# Generated by pormake.
# Topology uog, (4)-cn, num edge types: 1
# Building blocks:
#     Node 0, Type 0, BuildingBlock: CEKHIL_clean_sbu_0, # of connection points: 4
#     Node 1, Type 0, BuildingBlock: CEKHIL_clean_sbu_0, # of connection points: 4
#     Node 2, Type 0, BuildingBlock: CEKHIL_clean_sbu_0, # of connection points: 4
#     Node 3, Type 0, BuildingBlock: CEKHIL_clean_sbu_0, # of connection points: 4
#     Node 4, Type 0, BuildingBlock: CEKHIL_clean_sbu_0, # of connection points: 4
#     Node 5, Type 0, BuildingBlock: CEKHIL_clean_sbu_0, # of connection points: 4
#     Edge 6, Type (0, 0), BuildingBlock: FUNLAD_clean_linker_1, # of connection points: 2
#     Edge 7, Type (0, 0), BuildingBlock: FUNLAD_clean_linker_1, # of connection points: 2
#     Edge 8, Type (0, 0), BuildingBlock: FUNLAD_clean_linker_1, # of connection points: 2
#     Edge 9, Type (0, 0), BuildingBlock: FUNLAD_clean_linker_1, # of connection points: 2
#     Edge 10, Type (0, 0), BuildingBlock: FUNLAD_clean_linker_1, # of connection points: 2
#     Edge 11, Type (0, 0), BuildingBlock: FUNLAD_clean_linker_1, # of connection points: 2
#     Edge 12, Type (0, 0), BuildingBlock: FUNLAD_clean_linker_1, # of connection points: 2
#     Edge 13, Type (0, 0), BuildingBlock: FUNLAD_clean_linker_1, # of connection points: 2
#     Edge 14, Type (0, 0), BuildingBlock: FUNLAD_clean_linker_1, # of connection points: 2
#     Edge 15, Type (0, 0), BuildingBlock: FUNLAD_clean_linker_1, # of connection points: 2
#     Edge 16, Type (0, 0), BuildingBlock: FUNLAD_clean_linker_1, # of connection points: 2
#     Edge 17, Type (0, 0), BuildingBlock: FUNLAD_clean_linker_1, # of connection points: 2
# Relax obj value: 0.071
# Max RMSD: 0.169
# Mean RMSD: 0.168
data_MOF--net-uog--node1-CEKHIL_clean_sbu_0--edge1-FUNLAD_clean_linker_1
_symmetry_space_group_name_H-M    P1
_symmetry_Int_Tables_number       1
_symmetry_cell_setting            triclinic
loop_
_symmetry_equiv_pos_as_xyz
'x, y, z'
_cell_length_a     29.643141
_cell_length_b     29.521118
_cell_length_c     43.682566
_cell_angle_alpha  90.010054
_cell_angle_beta   90.201527
_cell_angle_gamma 120.19613
loop_
_atom_site_label
_atom_site_type_symbol
_atom_site_fract_x
_atom_site_fract_y
_atom_site_fract_z
_atom_type_partial_charge
Co0 Co 0.63087 0.30183 0.16984 0.0
O1 O 0.64927 0.24831 0.16947 0.0
O2 O 0.57346 0.23661 0.15304 0.0
C3 C 0.65828 0.3279 0.21796 0.0
O4 O 0.59994 0.35044 0.16814 0.0
Co5 Co 0.72135 0.416 0.17573 0.0
O6 O 0.6641 0.43142 0.18138 0.0
C7 C 0.70388 0.36151 0.11725 0.0
C8 C 0.60385 0.21718 0.15789 0.0
C9 C 0.61652 0.39903 0.17479 0.0
O10 O 0.66101 0.32415 0.12795 0.0
O11 O 0.73685 0.40029 0.13344 0.0
O12 O 0.61191 0.28856 0.21258 0.0
O13 O 0.68833 0.34711 0.1944 0.0
Co14 Co 0.30593 0.59921 0.49426 0.0
O15 O 0.37292 0.60534 0.48985 0.0
O16 O 0.29799 0.53508 0.47689 0.0
C17 C 0.31897 0.62993 0.54247 0.0
O18 O 0.22937 0.57902 0.49683 0.0
Co19 Co 0.29933 0.69921 0.50238 0.0
O20 O 0.22537 0.64954 0.51248 0.0
C21 C 0.31953 0.6724 0.44127 0.0
C22 C 0.34859 0.55799 0.47908 0.0
C23 C 0.20364 0.60094 0.50598 0.0
O24 O 0.31205 0.62878 0.45212 0.0
O25 O 0.31985 0.70825 0.45789 0.0
O26 O 0.30384 0.58114 0.53696 0.0
O27 O 0.33063 0.66001 0.5187 0.0
Co28 Co 0.7047 0.29424 0.83281 0.0
O29 O 0.76791 0.36062 0.82995 0.0
O30 O 0.75715 0.28717 0.80972 0.0
C31 C 0.69248 0.3009 0.88286 0.0
O32 O 0.64353 0.21813 0.83284 0.0
Co33 Co 0.60328 0.29532 0.84884 0.0
O34 O 0.57701 0.21996 0.85667 0.0
C35 C 0.64617 0.32397 0.78698 0.0
C36 C 0.78738 0.33734 0.81434 0.0
C37 C 0.59775 0.1951 0.84524 0.0
O38 O 0.67905 0.30939 0.79389 0.0
O39 O 0.61448 0.32526 0.80628 0.0
O40 O 0.7235 0.28435 0.87396 0.0
O41 O 0.67412 0.31742 0.86151 0.0
Co42 Co 0.42794 0.73373 0.16162 0.0
O43 O 0.40589 0.7845 0.15909 0.0
O44 O 0.48657 0.80217 0.15022 0.0
C45 C 0.38969 0.70002 0.20687 0.0
O46 O 0.46275 0.68857 0.16341 0.0
Co47 Co 0.34002 0.61747 0.15848 0.0
O48 O 0.398 0.60437 0.16763 0.0
C49 C 0.3718 0.67949 0.10235 0.0
C50 C 0.45325 0.81867 0.1519 0.0
C51 C 0.44633 0.63913 0.16675 0.0
O52 O 0.41029 0.71602 0.11718 0.0
O53 O 0.33562 0.63806 0.11505 0.0
O54 O 0.43514 0.74225 0.20566 0.0
O55 O 0.36628 0.68287 0.18079 0.0
Co56 Co 0.69128 0.43071 0.50565 0.0
O57 O 0.62128 0.41796 0.50236 0.0
O58 O 0.6922 0.49165 0.48863 0.0
C59 C 0.68416 0.40052 0.55343 0.0
O60 O 0.76978 0.45826 0.5068 0.0
Co61 Co 0.71063 0.33752 0.51268 0.0
O62 O 0.78331 0.39292 0.5214 0.0
C63 C 0.68535 0.36159 0.45205 0.0
C64 C 0.64166 0.4649 0.49121 0.0
C65 C 0.80009 0.44081 0.51485 0.0
O66 O 0.68533 0.40154 0.46349 0.0
O67 O 0.6924 0.32914 0.46784 0.0
O68 O 0.69374 0.44796 0.54858 0.0
O69 O 0.6741 0.37114 0.52945 0.0
Co70 Co 0.25691 0.6851 0.82705 0.0
O71 O 0.20048 0.6153 0.83419 0.0
O72 O 0.19283 0.67502 0.80774 0.0
C73 C 0.2852 0.69856 0.87585 0.0
O74 O 0.30794 0.76249 0.81661 0.0
Co75 Co 0.36992 0.70914 0.83564 0.0
O76 O 0.386 0.7827 0.83666 0.0
C77 C 0.3158 0.6624 0.77772 0.0
C78 C 0.17098 0.62761 0.81876 0.0
C79 C 0.35537 0.79598 0.82446 0.0
O80 O 0.27519 0.66189 0.78816 0.0
O81 O 0.358 0.67864 0.79313 0.0
O82 O 0.24746 0.70607 0.86746 0.0
O83 O 0.30215 0.67924 0.85523 0.0
H84 H 0.61944 0.15239 0.15705 0.0
C85 C 0.58939 0.16229 0.15219 0.0
H86 H 0.5107 0.13161 0.13859 0.0
H87 H 0.51233 0.92902 0.08447 0.0
H88 H 0.51 0.97138 0.03723 0.0
H89 H 0.51811 0.05878 0.03814 0.0
H90 H 0.52792 0.10417 0.08631 0.0
C91 C 0.54181 0.12363 0.14402 0.0
C92 C 0.53143 0.06854 0.14346 0.0
C93 C 0.52571 0.04255 0.11519 0.0
C94 C 0.52146 0.99226 0.11464 0.0
C95 C 0.51569 0.96719 0.08611 0.0
C96 C 0.51441 0.99111 0.05887 0.0
C97 C 0.51894 0.04032 0.05939 0.0
C98 C 0.52461 0.06597 0.08715 0.0
H99 H 0.43455 0.88146 0.14961 0.0
C100 C 0.46642 0.87345 0.14722 0.0
H101 H 0.54768 0.90781 0.14007 0.0
H102 H 0.53505 0.10409 0.2019 0.0
H103 H 0.53836 0.06221 0.24891 0.0
H104 H 0.53574 0.97737 0.24773 0.0
H105 H 0.52933 0.9337 0.1995 0.0
C106 C 0.51455 0.91377 0.14222 0.0
C107 C 0.52311 0.96812 0.14235 0.0
C108 C 0.52847 0.99395 0.17064 0.0
C109 C 0.53159 0.04363 0.17125 0.0
C110 C 0.53444 0.06725 0.19999 0.0
C111 C 0.53594 0.04343 0.22719 0.0
C112 C 0.53434 0.99561 0.22653 0.0
C113 C 0.53052 0.97092 0.19868 0.0
H114 H 0.35569 0.48844 0.46845 0.0
C115 C 0.37735 0.53052 0.47227 0.0
H116 H 0.45121 0.59817 0.47873 0.0
H117 H 0.55603 0.4831 0.54024 0.0
H118 H 0.5356 0.51789 0.58503 0.0
H119 H 0.47999 0.55776 0.58074 0.0
H120 H 0.44446 0.563 0.53168 0.0
C121 C 0.42974 0.5563 0.47408 0.0
C122 C 0.4596 0.52853 0.47641 0.0
C123 C 0.48005 0.52586 0.50532 0.0
C124 C 0.51196 0.50285 0.50782 0.0
C125 C 0.53166 0.50036 0.537 0.0
C126 C 0.52021 0.52013 0.56293 0.0
C127 C 0.48893 0.5426 0.56051 0.0
C128 C 0.46893 0.54549 0.53215 0.0
H129 H 0.62764 0.52885 0.47738 0.0
C130 C 0.60883 0.48747 0.48308 0.0
H131 H 0.53724 0.41719 0.49018 0.0
H132 H 0.42705 0.52822 0.41768 0.0
H133 H 0.44654 0.49221 0.37296 0.0
H134 H 0.50104 0.45109 0.37746 0.0
H135 H 0.53676 0.44608 0.42671 0.0
C136 C 0.55654 0.45853 0.48436 0.0
C137 C 0.52355 0.48287 0.48138 0.0
C138 C 0.50247 0.48474 0.45258 0.0
C139 C 0.47056 0.50788 0.45004 0.0
C140 C 0.45096 0.51046 0.4209 0.0
C141 C 0.46194 0.49003 0.39507 0.0
C142 C 0.49266 0.46691 0.39761 0.0
C143 C 0.51288 0.46425 0.42597 0.0
H144 H 0.85347 0.35064 0.78429 0.0
C145 C 0.84106 0.3678 0.80199 0.0
H146 H 0.85976 0.43339 0.82962 0.0
H147 H 0.10005 0.49973 0.78895 0.0
H148 H 0.08223 0.41319 0.80431 0.0
H149 H 0.99366 0.3454 0.81982 0.0
H150 H 0.92226 0.36284 0.81893 0.0
C151 C 0.8736 0.41691 0.81227 0.0
C152 C 0.92652 0.45378 0.79965 0.0
C153 C 0.96825 0.44337 0.80201 0.0
C154 C 0.02019 0.48371 0.79535 0.0
C155 C 0.06057 0.47138 0.79557 0.0
C156 C 0.05079 0.42181 0.80408 0.0
C157 C 1.00087 0.38357 0.81266 0.0
C158 C 0.96 0.39405 0.81181 0.0
H159 H 0.09789 0.56155 0.83501 0.0
C160 C 0.11494 0.58876 0.81603 0.0
H161 H 0.10268 0.60677 0.77113 0.0
H162 H 0.8551 0.48364 0.78612 0.0
H163 H 0.87364 0.57026 0.7706 0.0
H164 H 0.96438 0.64213 0.7639 0.0
H165 H 0.03711 0.62759 0.77209 0.0
C166 C 0.08618 0.58072 0.79061 0.0
C167 C 0.03114 0.53557 0.78916 0.0
C168 C 0.98917 0.54478 0.78436 0.0
C169 C 0.93686 0.50366 0.78912 0.0
C170 C 0.89561 0.51383 0.78373 0.0
C171 C 0.90569 0.56328 0.77465 0.0
C172 C 0.95677 0.6037 0.77081 0.0
C173 C 0.99818 0.59483 0.77561 0.0
H174 H 0.12754 0.52778 0.50104 0.0
C175 C 0.14625 0.56869 0.5079 0.0
H176 H 0.1346 0.6295 0.5245 0.0
H177 H 0.90443 0.48442 0.46207 0.0
H178 H 0.94996 0.52514 0.4151 0.0
H179 H 0.04578 0.5817 0.41457 0.0
H180 H 0.09666 0.59723 0.46103 0.0
C181 C 0.11679 0.58894 0.51713 0.0
C182 C 0.05899 0.55679 0.51774 0.0
C183 C 0.02973 0.54935 0.49059 0.0
C184 C 0.97436 0.51807 0.49112 0.0
C185 C 0.94635 0.50922 0.46332 0.0
C186 C 0.97206 0.53212 0.43609 0.0
C187 C 0.02601 0.56387 0.43577 0.0
C188 C 0.05474 0.57241 0.4626 0.0
H189 H 0.87169 0.51852 0.51031 0.0
C190 C 0.85707 0.47735 0.51511 0.0
H191 H 0.87672 0.41926 0.5251 0.0
H192 H 0.1038 0.56467 0.57378 0.0
H193 H 0.05841 0.52576 0.62126 0.0
H194 H 0.96225 0.47309 0.62258 0.0
H195 H 0.91088 0.45891 0.57647 0.0
C196 C 0.89088 0.46015 0.51973 0.0
C197 C 0.94842 0.49558 0.51907 0.0
C198 C 0.97778 0.50377 0.5463 0.0
C199 C 0.03316 0.53444 0.54562 0.0
C200 C 0.0616 0.54182 0.57308 0.0
C201 C 0.03606 0.51971 0.60047 0.0
C202 C 0.98192 0.49001 0.60121 0.0
C203 C 0.95292 0.48206 0.57454 0.0
H204 H 0.3953 0.86179 0.79272 0.0
C205 C 0.37926 0.85148 0.81564 0.0
H206 H 0.37935 0.87679 0.86032 0.0
H207 H 0.60083 0.07252 0.87026 0.0
H208 H 0.59925 0.01662 0.91138 0.0
H209 H 0.52592 0.92605 0.91639 0.0
H210 H 0.45386 0.89099 0.8807 0.0
C211 C 0.39435 0.88884 0.83727 0.0
C212 C 0.43935 0.94352 0.83294 0.0
C213 C 0.48232 0.96306 0.85372 0.0
C214 C 0.52508 0.01519 0.85071 0.0
C215 C 0.56706 0.0336 0.87183 0.0
C216 C 0.56687 1.0018 0.89541 0.0
C217 C 0.5256 0.95084 0.89823 0.0
C218 C 0.48404 0.93135 0.8776 0.0
H219 H 0.53548 0.12128 0.86411 0.0
C220 C 0.56568 0.13739 0.84667 0.0
H221 H 0.59373 0.11956 0.80674 0.0
H222 H 0.36176 0.92239 0.79108 0.0
H223 H 0.36601 0.97744 0.74884 0.0
H224 H 0.44359 0.06473 0.7413 0.0
H225 H 0.51707 0.0978 0.77638 0.0
C226 C 0.56687 0.1045 0.82589 0.0
C227 C 0.52568 0.04773 0.82668 0.0
C228 C 0.48411 0.02766 0.80514 0.0
C229 C 0.44021 0.97621 0.80875 0.0
C230 C 0.39736 0.95955 0.78845 0.0
C231 C 0.39897 0.99114 0.76429 0.0
C232 C 0.44257 0.04036 0.76011 0.0
C233 C 0.48451 0.05883 0.7804 0.0
H234 H 0.52514 0.649 0.17444 0.0
C235 C 0.48452 0.62072 0.16951 0.0
H236 H 0.42843 0.5415 0.16094 0.0
H237 H 0.64334 0.53069 0.13574 0.0
H238 H 0.66586 0.59783 0.09734 0.0
H239 H 0.61335 0.64066 0.09089 0.0
H240 H 0.53855 0.61721 0.12303 0.0
C241 C 0.46919 0.56943 0.16582 0.0
C242 C 0.50376 0.54658 0.17039 0.0
C243 C 0.54692 0.56009 0.15089 0.0
C244 C 0.57655 0.53442 0.15413 0.0
C245 C 0.6196 0.54896 0.13445 0.0
C246 C 0.63285 0.58728 0.11216 0.0
C247 C 0.60332 0.61144 0.10856 0.0
C248 C 0.56062 0.59787 0.12743 0.0
H249 H 0.53984 0.39338 0.16601 0.0
C250 C 0.57976 0.4194 0.17349 0.0
H251 H 0.63594 0.49636 0.18704 0.0
H252 H 0.42416 0.5115 0.21196 0.0
H253 H 0.40127 0.44369 0.24994 0.0
H254 H 0.4523 0.39906 0.25523 0.0
H255 H 0.52637 0.42178 0.22244 0.0
C256 C 0.59566 0.46995 0.18033 0.0
C257 C 0.56225 0.49417 0.17622 0.0
C258 C 0.51909 0.48057 0.19566 0.0
C259 C 0.48984 0.50666 0.1927 0.0
C260 C 0.44732 0.49257 0.21277 0.0
C261 C 0.4339 0.45389 0.23486 0.0
C262 C 0.46263 0.42877 0.23783 0.0
C263 C 0.50494 0.44201 0.21869 0.0
H264 H 0.65523 0.31816 0.92115 0.0
C265 C 0.68272 0.30539 0.91533 0.0
H266 H 0.73671 0.28435 0.93198 0.0
H267 H 0.70882 0.42225 0.04412 0.0
H268 H 0.74935 0.49578 0.00929 0.0
H269 H 0.77206 0.48433 0.95669 0.0
H270 H 0.75281 0.39892 0.93842 0.0
C271 C 0.70963 0.29778 0.93752 0.0
C272 C 0.70264 0.30631 0.97025 0.0
C273 C 0.71736 0.35726 0.98109 0.0
C274 C 0.70758 0.36454 0.01201 0.0
C275 C 0.71824 0.41493 0.02145 0.0
C276 C 0.74108 0.45748 0.00158 0.0
C277 C 0.75361 0.45099 0.97193 0.0
C278 C 0.74197 0.40159 0.96167 0.0
H279 H 0.75477 0.38365 0.07648 0.0
C280 C 0.71504 0.35938 0.08462 0.0
H281 H 0.637 0.30396 0.07325 0.0
H282 H 0.67025 0.20379 0.9567 0.0
H283 H 0.63404 0.13087 0.99225 0.0
H284 H 0.62293 0.14448 0.04679 0.0
H285 H 0.64711 0.23072 0.06603 0.0
C286 C 0.6767 0.3282 0.06504 0.0
C287 C 0.68672 0.32151 0.03253 0.0
C288 C 0.67344 0.27085 0.02186 0.0
C289 C 0.68099 0.26319 0.99061 0.0
C290 C 0.66606 0.21197 0.98034 0.0
C291 C 0.64516 0.16972 0.00048 0.0
C292 C 0.63877 0.17734 0.03117 0.0
C293 C 0.65272 0.22717 0.04188 0.0
H294 H 0.33151 0.63719 0.23695 0.0
C295 C 0.36567 0.67622 0.23646 0.0
H296 H 0.42028 0.74222 0.26169 0.0
H297 H 0.24048 0.63414 0.36861 0.0
H298 H 0.1805 0.64047 0.33327 0.0
H299 H 0.2059 0.66775 0.27974 0.0
H300 H 0.29084 0.68794 0.26108 0.0
C301 C 0.38583 0.70336 0.26257 0.0
C302 C 0.36704 0.6817 0.29366 0.0
C303 C 0.31755 0.67145 0.30426 0.0
C304 C 0.30358 0.65764 0.33544 0.0
C305 C 0.25348 0.64608 0.34536 0.0
C306 C 0.21865 0.64941 0.3253 0.0
C307 C 0.23291 0.66463 0.29514 0.0
C308 C 0.2818 0.67584 0.28466 0.0
H309 H 0.33603 0.71904 0.39884 0.0
C310 C 0.32809 0.68152 0.40801 0.0
H311 H 0.32053 0.60782 0.39794 0.0
H312 H 0.46302 0.69448 0.28023 0.0
H313 H 0.52288 0.68875 0.31583 0.0
H314 H 0.49961 0.66769 0.37022 0.0
H315 H 0.41631 0.6522 0.3893 0.0
C316 C 0.327 0.645 0.38907 0.0
C317 C 0.33968 0.65585 0.35606 0.0
C318 C 0.38835 0.66443 0.34527 0.0
C319 C 0.40198 0.67723 0.31404 0.0
C320 C 0.45095 0.68558 0.30386 0.0
C321 C 0.48563 0.68216 0.32402 0.0
C322 C 0.47251 0.67024 0.35462 0.0
C323 C 0.42451 0.6614 0.36526 0.0
H324 H 0.6184 0.35359 0.74906 0.0
C325 C 0.64501 0.33975 0.75513 0.0
H326 H 0.70407 0.32506 0.73964 0.0
H327 H 0.58866 0.33219 0.61033 0.0
H328 H 0.51243 0.2538 0.62876 0.0
H329 H 0.51153 0.21949 0.68039 0.0
H330 H 0.58646 0.26421 0.71409 0.0
C331 C 0.67627 0.33744 0.73369 0.0
C332 C 0.67758 0.35551 0.70189 0.0
C333 C 0.63423 0.32743 0.68205 0.0
C334 C 0.63585 0.34555 0.65171 0.0
C335 C 0.59069 0.31883 0.63305 0.0
C336 C 0.54641 0.27393 0.64344 0.0
C337 C 0.54582 0.25474 0.67254 0.0
C338 C 0.58905 0.28102 0.69173 0.0
H339 H 0.67733 0.34192 0.58738 0.0
C340 C 0.68231 0.38076 0.58453 0.0
H341 H 0.6903 0.4483 0.60634 0.0
H342 H 0.7673 0.41828 0.73428 0.0
H343 H 0.84528 0.49428 0.71508 0.0
H344 H 0.84987 0.52307 0.66159 0.0
H345 H 0.77636 0.47626 0.62706 0.0
C346 C 0.68452 0.40914 0.60913 0.0
C347 C 0.68195 0.38998 0.64084 0.0
C348 C 0.72558 0.41751 0.66057 0.0
C349 C 0.72329 0.40039 0.6912 0.0
C350 C 0.76713 0.4291 0.71063 0.0
C351 C 0.81215 0.4729 0.69994 0.0
C352 C 0.8147 0.48915 0.66984 0.0
C353 C 0.77211 0.46195 0.65028 0.0
H354 H 0.27976 0.71499 0.92419 0.0
C355 C 0.30004 0.70302 0.90832 0.0
H356 H 0.35181 0.67409 0.90377 0.0
H357 H 0.35462 0.75938 0.04817 0.0
H358 H 0.39077 0.84596 0.02611 0.0
H359 H 0.40577 0.85936 0.97048 0.0
H360 H 0.38298 0.78571 0.93656 0.0
C361 C 0.33291 0.6881 0.91929 0.0
C362 C 0.33703 0.68248 0.95296 0.0
C363 C 0.35393 0.72632 0.97267 0.0
C364 C 0.34894 0.71909 0.00493 0.0
C365 C 0.36096 0.76292 0.02373 0.0
C366 C 0.38118 0.81286 0.01131 0.0
C367 C 0.38936 0.82037 0.97999 0.0
C368 C 0.37578 0.77773 0.96078 0.0
H369 H 0.40846 0.71444 0.05837 0.0
C370 C 0.37181 0.68607 0.06893 0.0
H371 H 0.29203 0.63195 0.06161 0.0
H372 H 0.30309 0.59013 0.92177 0.0
H373 H 0.27401 0.50471 0.9439 0.0
H374 H 0.2721 0.49323 -0.00011 0.0
H375 H 0.29852 0.56702 0.03408 0.0
C376 C 0.32886 0.66067 0.05144 0.0
C377 C 0.33134 0.66854 0.01759 0.0
C378 C 0.31699 0.62515 -0.00214 0.0
C379 C 0.31933 0.63201 0.96554 0.0
C380 C 0.30299 0.58756 0.94646 0.0
C381 C 0.28612 0.53815 0.95886 0.0
C382 C 0.28498 0.53167 0.99037 0.0
C383 C 0.30018 0.57446 0.00975 0.0
H384 H 0.65652 0.37167 0.40783 0.0
C385 C 0.67719 0.35434 0.41888 0.0
H386 H 0.72003 0.31566 0.41216 0.0
H387 H 0.61535 0.22616 0.28234 0.0
H388 H 0.59162 0.14677 0.31068 0.0
H389 H 0.61305 0.15044 0.36558 0.0
H390 H 0.65905 0.23368 0.39232 0.0
C391 C 0.69861 0.33256 0.40163 0.0
C392 C 0.69246 0.3308 0.36775 0.0
C393 C 0.66535 0.28182 0.3526 0.0
C394 C 0.6519 0.27969 0.32117 0.0
C395 C 0.62551 0.23017 0.30639 0.0
C396 C 0.61182 0.18421 0.32236 0.0
C397 C 0.62395 0.18629 0.35324 0.0
C398 C 0.65035 0.23438 0.36832 0.0
H399 H 0.7199 0.36684 0.25306 0.0
C400 C 0.67808 0.34261 0.2494 0.0
H401 H 0.60389 0.29747 0.26933 0.0
H402 H 0.75762 0.43134 0.38755 0.0
H403 H 0.77993 0.51118 0.35984 0.0
H404 H 0.74673 0.50732 0.30746 0.0
H405 H 0.69276 0.42395 0.28216 0.0
C406 C 0.64554 0.32269 0.2733 0.0
C407 C 0.66462 0.32652 0.3052 0.0
C408 C 0.69364 0.37573 0.32006 0.0
C409 C 0.70952 0.37787 0.351 0.0
C410 C 0.74197 0.4275 0.36467 0.0
C411 C 0.75543 0.4736 0.34894 0.0
C412 C 0.73697 0.47142 0.3194 0.0
C413 C 0.70634 0.4232 0.30504 0.0
H414 H 0.27507 0.62212 0.73542 0.0
C415 C 0.31349 0.64686 0.7455 0.0
H416 H 0.39408 0.69499 0.73652 0.0
H417 H 0.38025 0.58725 0.60791 0.0
H418 H 0.43456 0.56277 0.63692 0.0
H419 H 0.45015 0.58245 0.69212 0.0
H420 H 0.41192 0.62729 0.71857 0.0
C421 C 0.3554 0.66914 0.72715 0.0
C422 C 0.34933 0.66095 0.69338 0.0
C423 C 0.37179 0.63463 0.67833 0.0
C424 C 0.36189 0.62237 0.64665 0.0
C425 C 0.38547 0.5966 0.63208 0.0
C426 C 0.41695 0.58249 0.64843 0.0
C427 C 0.42579 0.59364 0.6795 0.0
C428 C 0.40358 0.61939 0.6944 0.0
H429 H 0.34715 0.69238 0.57773 0.0
C430 C 0.32787 0.6503 0.57404 0.0
H431 H 0.29649 0.57547 0.59404 0.0
H432 H 0.31078 0.72296 0.71336 0.0
H433 H 0.25431 0.74536 0.68497 0.0
H434 H 0.2287 0.71528 0.63171 0.0
H435 H 0.26068 0.66414 0.60629 0.0
C436 C 0.31452 0.61741 0.598 0.0
C437 C 0.32884 0.63575 0.63018 0.0
C438 C 0.30748 0.66339 0.64506 0.0
C439 C 0.31936 0.67769 0.6764 0.0
C440 C 0.30064 0.70854 0.69013 0.0
C441 C 0.26854 0.72209 0.67401 0.0
C442 C 0.25435 0.70538 0.64399 0.0
C443 C 0.27337 0.67631 0.62958 0.0
loop_
_geom_bond_atom_site_label_1
_geom_bond_atom_site_label_2
_geom_bond_distance
_geom_bond_site_symmetry_2
_ccdc_geom_bond_type
Co0 O1 2.216 . S
Co0 O2 2.091 . S
Co0 O4 2.004 . S
Co0 O10 2.021 . S
Co0 O12 2.137 . S
Co0 O13 2.244 . S
O1 Co0 2.216 . S
O1 C8 1.247 . S
O2 Co0 2.091 . S
O2 C8 1.261 . S
C3 O12 1.247 . S
C3 O13 1.272 . S
O4 Co0 2.004 . S
O4 C9 1.259 . S
Co5 O6 2.061 . S
Co5 O11 2.052 . S
Co5 O13 2.135 . S
O6 Co5 2.061 . S
O6 C9 1.235 . S
C7 O10 1.238 . S
C7 O11 1.241 . S
C8 O1 1.247 . S
C8 O2 1.261 . S
C9 O4 1.259 . S
C9 O6 1.235 . S
O10 Co0 2.021 . S
O10 C7 1.238 . S
O11 Co5 2.052 . S
O11 C7 1.241 . S
O12 Co0 2.137 . S
O12 C3 1.247 . S
O13 Co0 2.244 . S
O13 C3 1.272 . S
O13 Co5 2.135 . S
Co14 O15 2.216 . S
Co14 O16 2.091 . S
Co14 O18 2.004 . S
Co14 O24 2.021 . S
Co14 O26 2.137 . S
Co14 O27 2.244 . S
O15 Co14 2.216 . S
O15 C22 1.247 . S
O16 Co14 2.091 . S
O16 C22 1.261 . S
C17 O26 1.247 . S
C17 O27 1.272 . S
O18 Co14 2.004 . S
O18 C23 1.259 . S
Co19 O20 2.061 . S
Co19 O25 2.052 . S
Co19 O27 2.135 . S
O20 Co19 2.061 . S
O20 C23 1.235 . S
C21 O24 1.238 . S
C21 O25 1.241 . S
C22 O15 1.247 . S
C22 O16 1.261 . S
C23 O18 1.259 . S
C23 O20 1.235 . S
O24 Co14 2.021 . S
O24 C21 1.238 . S
O25 Co19 2.052 . S
O25 C21 1.241 . S
O26 Co14 2.137 . S
O26 C17 1.247 . S
O27 Co14 2.244 . S
O27 C17 1.272 . S
O27 Co19 2.135 . S
Co28 O29 2.216 . S
Co28 O30 2.091 . S
Co28 O32 2.004 . S
Co28 O38 2.021 . S
Co28 O40 2.137 . S
Co28 O41 2.244 . S
O29 Co28 2.216 . S
O29 C36 1.247 . S
O30 Co28 2.091 . S
O30 C36 1.261 . S
C31 O40 1.247 . S
C31 O41 1.272 . S
O32 Co28 2.004 . S
O32 C37 1.259 . S
Co33 O34 2.061 . S
Co33 O39 2.052 . S
Co33 O41 2.135 . S
O34 Co33 2.061 . S
O34 C37 1.235 . S
C35 O38 1.238 . S
C35 O39 1.241 . S
C36 O29 1.247 . S
C36 O30 1.261 . S
C37 O32 1.259 . S
C37 O34 1.235 . S
O38 Co28 2.021 . S
O38 C35 1.238 . S
O39 Co33 2.052 . S
O39 C35 1.241 . S
O40 Co28 2.137 . S
O40 C31 1.247 . S
O41 Co28 2.244 . S
O41 C31 1.272 . S
O41 Co33 2.135 . S
Co42 O43 2.216 . S
Co42 O44 2.091 . S
Co42 O46 2.004 . S
Co42 O52 2.021 . S
Co42 O54 2.137 . S
Co42 O55 2.244 . S
O43 Co42 2.216 . S
O43 C50 1.247 . S
O44 Co42 2.091 . S
O44 C50 1.261 . S
C45 O54 1.247 . S
C45 O55 1.272 . S
O46 Co42 2.004 . S
O46 C51 1.259 . S
Co47 O48 2.061 . S
Co47 O53 2.052 . S
Co47 O55 2.135 . S
O48 Co47 2.061 . S
O48 C51 1.235 . S
C49 O52 1.238 . S
C49 O53 1.241 . S
C50 O43 1.247 . S
C50 O44 1.261 . S
C51 O46 1.259 . S
C51 O48 1.235 . S
O52 Co42 2.021 . S
O52 C49 1.238 . S
O53 Co47 2.052 . S
O53 C49 1.241 . S
O54 Co42 2.137 . S
O54 C45 1.247 . S
O55 Co42 2.244 . S
O55 C45 1.272 . S
O55 Co47 2.135 . S
Co56 O57 2.216 . S
Co56 O58 2.091 . S
Co56 O60 2.004 . S
Co56 O66 2.021 . S
Co56 O68 2.137 . S
Co56 O69 2.244 . S
O57 Co56 2.216 . S
O57 C64 1.247 . S
O58 Co56 2.091 . S
O58 C64 1.261 . S
C59 O68 1.247 . S
C59 O69 1.272 . S
O60 Co56 2.004 . S
O60 C65 1.259 . S
Co61 O62 2.061 . S
Co61 O67 2.052 . S
Co61 O69 2.135 . S
O62 Co61 2.061 . S
O62 C65 1.235 . S
C63 O66 1.238 . S
C63 O67 1.241 . S
C64 O57 1.247 . S
C64 O58 1.261 . S
C65 O60 1.259 . S
C65 O62 1.235 . S
O66 Co56 2.021 . S
O66 C63 1.238 . S
O67 Co61 2.052 . S
O67 C63 1.241 . S
O68 Co56 2.137 . S
O68 C59 1.247 . S
O69 Co56 2.244 . S
O69 C59 1.272 . S
O69 Co61 2.135 . S
Co70 O71 2.216 . S
Co70 O72 2.091 . S
Co70 O74 2.004 . S
Co70 O80 2.021 . S
Co70 O82 2.137 . S
Co70 O83 2.244 . S
O71 Co70 2.216 . S
O71 C78 1.247 . S
O72 Co70 2.091 . S
O72 C78 1.261 . S
C73 O82 1.247 . S
C73 O83 1.272 . S
O74 Co70 2.004 . S
O74 C79 1.259 . S
Co75 O76 2.061 . S
Co75 O81 2.052 . S
Co75 O83 2.135 . S
O76 Co75 2.061 . S
O76 C79 1.235 . S
C77 O80 1.238 . S
C77 O81 1.241 . S
C78 O71 1.247 . S
C78 O72 1.261 . S
C79 O74 1.259 . S
C79 O76 1.235 . S
O80 Co70 2.021 . S
O80 C77 1.238 . S
O81 Co75 2.052 . S
O81 C77 1.241 . S
O82 Co70 2.137 . S
O82 C73 1.247 . S
O83 Co70 2.244 . S
O83 C73 1.272 . S
O83 Co75 2.135 . S
H84 C85 0.951 . S
C85 H84 0.951 . S
C85 C91 1.265 . S
H86 C91 0.950 . S
H87 C95 0.949 . S
H88 C96 0.950 . S
H89 C97 0.951 . S
H90 C98 0.951 . S
C91 C85 1.265 . S
C91 H86 0.950 . S
C91 C92 1.478 . S
C92 C91 1.478 . S
C92 C93 1.397 . S
C92 C109 1.394 . S
C93 C92 1.397 . S
C93 C94 1.438 1_545 S
C93 C98 1.429 . S
C94 C93 1.438 1_565 S
C94 C95 1.428 . S
C94 C107 1.394 . S
C95 H87 0.949 . S
C95 C94 1.428 . S
C95 C96 1.345 . S
C96 H88 0.950 . S
C96 C95 1.345 . S
C96 C97 1.424 1_565 S
C97 H89 0.951 . S
C97 C96 1.424 1_545 S
C97 C98 1.347 . S
C98 H90 0.951 . S
C98 C93 1.429 . S
C98 C97 1.347 . S
H99 C100 0.951 . S
C100 H99 0.951 . S
C100 C106 1.265 . S
H101 C106 0.950 . S
H102 C110 0.949 . S
H103 C111 0.950 . S
H104 C112 0.951 . S
H105 C113 0.951 . S
C106 C100 1.265 . S
C106 H101 0.950 . S
C106 C107 1.478 . S
C107 C94 1.394 . S
C107 C106 1.478 . S
C107 C108 1.397 . S
C108 C107 1.397 . S
C108 C109 1.438 1_565 S
C108 C113 1.429 . S
C109 C92 1.394 . S
C109 C108 1.438 1_545 S
C109 C110 1.428 . S
C110 H102 0.949 . S
C110 C109 1.428 . S
C110 C111 1.345 . S
C111 H103 0.950 . S
C111 C110 1.345 . S
C111 C112 1.424 1_545 S
C112 H104 0.951 . S
C112 C111 1.424 1_565 S
C112 C113 1.347 . S
C113 H105 0.951 . S
C113 C108 1.429 . S
C113 C112 1.347 . S
H114 C115 0.951 . S
C115 H114 0.951 . S
C115 C121 1.265 . S
H116 C121 0.950 . S
H117 C125 0.949 . S
H118 C126 0.950 . S
H119 C127 0.951 . S
H120 C128 0.951 . S
C121 C115 1.265 . S
C121 H116 0.950 . S
C121 C122 1.478 . S
C122 C121 1.478 . S
C122 C123 1.397 . S
C122 C139 1.394 . S
C123 C122 1.397 . S
C123 C124 1.438 . S
C123 C128 1.429 . S
C124 C123 1.438 . S
C124 C125 1.428 . S
C124 C137 1.394 . S
C125 H117 0.949 . S
C125 C124 1.428 . S
C125 C126 1.345 . S
C126 H118 0.950 . S
C126 C125 1.345 . S
C126 C127 1.424 . S
C127 H119 0.951 . S
C127 C126 1.424 . S
C127 C128 1.347 . S
C128 H120 0.951 . S
C128 C123 1.429 . S
C128 C127 1.347 . S
H129 C130 0.951 . S
C130 H129 0.951 . S
C130 C136 1.265 . S
H131 C136 0.950 . S
H132 C140 0.949 . S
H133 C141 0.950 . S
H134 C142 0.951 . S
H135 C143 0.951 . S
C136 C130 1.265 . S
C136 H131 0.950 . S
C136 C137 1.478 . S
C137 C124 1.394 . S
C137 C136 1.478 . S
C137 C138 1.397 . S
C138 C137 1.397 . S
C138 C139 1.438 . S
C138 C143 1.429 . S
C139 C122 1.394 . S
C139 C138 1.438 . S
C139 C140 1.428 . S
C140 H132 0.949 . S
C140 C139 1.428 . S
C140 C141 1.345 . S
C141 H133 0.950 . S
C141 C140 1.345 . S
C141 C142 1.424 . S
C142 H134 0.951 . S
C142 C141 1.424 . S
C142 C143 1.347 . S
C143 H135 0.951 . S
C143 C138 1.429 . S
C143 C142 1.347 . S
H144 C145 0.951 . S
C145 H144 0.951 . S
C145 C151 1.265 . S
H146 C151 0.950 . S
H147 C155 0.949 . S
H148 C156 0.950 . S
H149 C157 0.951 . S
H150 C158 0.951 . S
C151 C145 1.265 . S
C151 H146 0.950 . S
C151 C152 1.478 . S
C152 C151 1.478 . S
C152 C153 1.397 . S
C152 C169 1.394 . S
C153 C152 1.397 . S
C153 C154 1.438 1_655 S
C153 C158 1.429 . S
C154 C153 1.438 1_455 S
C154 C155 1.428 . S
C154 C167 1.394 . S
C155 H147 0.949 . S
C155 C154 1.428 . S
C155 C156 1.345 . S
C156 H148 0.950 . S
C156 C155 1.345 . S
C156 C157 1.422 1_455 S
C157 H149 0.951 . S
C157 C156 1.422 1_655 S
C157 C158 1.349 . S
C158 H150 0.951 . S
C158 C153 1.429 . S
C158 C157 1.349 . S
H159 C160 0.951 . S
C160 H159 0.951 . S
C160 C166 1.265 . S
H161 C166 0.950 . S
H162 C170 0.949 . S
H163 C171 0.950 . S
H164 C172 0.951 . S
H165 C173 0.951 . S
C166 C160 1.265 . S
C166 H161 0.950 . S
C166 C167 1.478 . S
C167 C154 1.394 . S
C167 C166 1.478 . S
C167 C168 1.397 . S
C168 C167 1.397 . S
C168 C169 1.438 1_455 S
C168 C173 1.429 . S
C169 C152 1.394 . S
C169 C168 1.438 1_655 S
C169 C170 1.428 . S
C170 H162 0.949 . S
C170 C169 1.428 . S
C170 C171 1.345 . S
C171 H163 0.950 . S
C171 C170 1.345 . S
C171 C172 1.422 1_655 S
C172 H164 0.951 . S
C172 C171 1.422 1_455 S
C172 C173 1.349 . S
C173 H165 0.951 . S
C173 C168 1.429 . S
C173 C172 1.349 . S
H174 C175 0.951 . S
C175 H174 0.951 . S
C175 C181 1.265 . S
H176 C181 0.950 . S
H177 C185 0.949 . S
H178 C186 0.950 . S
H179 C187 0.951 . S
H180 C188 0.951 . S
C181 C175 1.265 . S
C181 H176 0.950 . S
C181 C182 1.478 . S
C182 C181 1.478 . S
C182 C183 1.397 . S
C182 C199 1.394 . S
C183 C182 1.397 . S
C183 C184 1.438 1_455 S
C183 C188 1.429 . S
C184 C183 1.438 1_655 S
C184 C185 1.428 . S
C184 C197 1.394 . S
C185 H177 0.949 . S
C185 C184 1.428 . S
C185 C186 1.345 . S
C186 H178 0.950 . S
C186 C185 1.345 . S
C186 C187 1.424 1_655 S
C187 H179 0.951 . S
C187 C186 1.424 1_455 S
C187 C188 1.347 . S
C188 H180 0.951 . S
C188 C183 1.429 . S
C188 C187 1.347 . S
H189 C190 0.951 . S
C190 H189 0.951 . S
C190 C196 1.265 . S
H191 C196 0.950 . S
H192 C200 0.949 . S
H193 C201 0.950 . S
H194 C202 0.951 . S
H195 C203 0.951 . S
C196 C190 1.265 . S
C196 H191 0.950 . S
C196 C197 1.478 . S
C197 C184 1.394 . S
C197 C196 1.478 . S
C197 C198 1.397 . S
C198 C197 1.397 . S
C198 C199 1.438 1_655 S
C198 C203 1.429 . S
C199 C182 1.394 . S
C199 C198 1.438 1_455 S
C199 C200 1.428 . S
C200 H192 0.949 . S
C200 C199 1.428 . S
C200 C201 1.345 . S
C201 H193 0.950 . S
C201 C200 1.345 . S
C201 C202 1.424 1_455 S
C202 H194 0.951 . S
C202 C201 1.424 1_655 S
C202 C203 1.347 . S
C203 H195 0.951 . S
C203 C198 1.429 . S
C203 C202 1.347 . S
H204 C205 0.951 . S
C205 H204 0.951 . S
C205 C211 1.265 . S
H206 C211 0.950 . S
H207 C215 0.949 . S
H208 C216 0.950 . S
H209 C217 0.951 . S
H210 C218 0.951 . S
C211 C205 1.265 . S
C211 H206 0.950 . S
C211 C212 1.478 . S
C212 C211 1.478 . S
C212 C213 1.397 . S
C212 C229 1.394 . S
C213 C212 1.397 . S
C213 C214 1.438 1_565 S
C213 C218 1.429 . S
C214 C213 1.438 1_545 S
C214 C215 1.428 . S
C214 C227 1.394 . S
C215 H207 0.949 . S
C215 C214 1.428 . S
C215 C216 1.345 . S
C216 H208 0.950 . S
C216 C215 1.345 . S
C216 C217 1.419 1_545 S
C217 H209 0.951 . S
C217 C216 1.419 1_565 S
C217 C218 1.352 . S
C218 H210 0.951 . S
C218 C213 1.429 . S
C218 C217 1.352 . S
H219 C220 0.951 . S
C220 H219 0.951 . S
C220 C226 1.265 . S
H221 C226 0.950 . S
H222 C230 0.949 . S
H223 C231 0.950 . S
H224 C232 0.951 . S
H225 C233 0.951 . S
C226 C220 1.265 . S
C226 H221 0.950 . S
C226 C227 1.478 . S
C227 C214 1.394 . S
C227 C226 1.478 . S
C227 C228 1.397 . S
C228 C227 1.397 . S
C228 C229 1.438 1_545 S
C228 C233 1.429 . S
C229 C212 1.394 . S
C229 C228 1.438 1_565 S
C229 C230 1.428 . S
C230 H222 0.949 . S
C230 C229 1.428 . S
C230 C231 1.345 . S
C231 H223 0.950 . S
C231 C230 1.345 . S
C231 C232 1.419 1_565 S
C232 H224 0.951 . S
C232 C231 1.419 1_545 S
C232 C233 1.352 . S
C233 H225 0.951 . S
C233 C228 1.429 . S
C233 C232 1.352 . S
H234 C235 0.951 . S
C235 H234 0.951 . S
C235 C241 1.265 . S
H236 C241 0.950 . S
H237 C245 0.949 . S
H238 C246 0.950 . S
H239 C247 0.951 . S
H240 C248 0.951 . S
C241 C235 1.265 . S
C241 H236 0.950 . S
C241 C242 1.478 . S
C242 C241 1.478 . S
C242 C243 1.397 . S
C242 C259 1.394 . S
C243 C242 1.397 . S
C243 C244 1.438 . S
C243 C248 1.429 . S
C244 C243 1.438 . S
C244 C245 1.428 . S
C244 C257 1.394 . S
C245 H237 0.949 . S
C245 C244 1.428 . S
C245 C246 1.345 . S
C246 H238 0.950 . S
C246 C245 1.345 . S
C246 C247 1.424 . S
C247 H239 0.951 . S
C247 C246 1.424 . S
C247 C248 1.347 . S
C248 H240 0.951 . S
C248 C243 1.429 . S
C248 C247 1.347 . S
H249 C250 0.951 . S
C250 H249 0.951 . S
C250 C256 1.265 . S
H251 C256 0.950 . S
H252 C260 0.949 . S
H253 C261 0.950 . S
H254 C262 0.951 . S
H255 C263 0.951 . S
C256 C250 1.265 . S
C256 H251 0.950 . S
C256 C257 1.478 . S
C257 C244 1.394 . S
C257 C256 1.478 . S
C257 C258 1.397 . S
C258 C257 1.397 . S
C258 C259 1.438 . S
C258 C263 1.429 . S
C259 C242 1.394 . S
C259 C258 1.438 . S
C259 C260 1.428 . S
C260 H252 0.949 . S
C260 C259 1.428 . S
C260 C261 1.345 . S
C261 H253 0.950 . S
C261 C260 1.345 . S
C261 C262 1.424 . S
C262 H254 0.951 . S
C262 C261 1.424 . S
C262 C263 1.347 . S
C263 H255 0.951 . S
C263 C258 1.429 . S
C263 C262 1.347 . S
H264 C265 0.951 . S
C265 H264 0.951 . S
C265 C271 1.265 . S
H266 C271 0.950 . S
H267 C275 0.949 . S
H268 C276 0.950 . S
H269 C277 0.951 . S
H270 C278 0.951 . S
C271 C265 1.265 . S
C271 H266 0.950 . S
C271 C272 1.478 . S
C272 C271 1.478 . S
C272 C273 1.397 . S
C272 C289 1.394 . S
C273 C272 1.397 . S
C273 C274 1.438 1_556 S
C273 C278 1.429 . S
C274 C273 1.438 1_554 S
C274 C275 1.428 . S
C274 C287 1.394 . S
C275 H267 0.949 . S
C275 C274 1.428 . S
C275 C276 1.345 . S
C276 H268 0.950 . S
C276 C275 1.345 . S
C276 C277 1.424 1_554 S
C277 H269 0.951 . S
C277 C276 1.424 1_556 S
C277 C278 1.347 . S
C278 H270 0.951 . S
C278 C273 1.429 . S
C278 C277 1.347 . S
H279 C280 0.951 . S
C280 H279 0.951 . S
C280 C286 1.265 . S
H281 C286 0.950 . S
H282 C290 0.949 . S
H283 C291 0.950 . S
H284 C292 0.951 . S
H285 C293 0.951 . S
C286 C280 1.265 . S
C286 H281 0.950 . S
C286 C287 1.478 . S
C287 C274 1.394 . S
C287 C286 1.478 . S
C287 C288 1.397 . S
C288 C287 1.397 . S
C288 C289 1.438 1_554 S
C288 C293 1.429 . S
C289 C272 1.394 . S
C289 C288 1.438 1_556 S
C289 C290 1.428 . S
C290 H282 0.949 . S
C290 C289 1.428 . S
C290 C291 1.345 . S
C291 H283 0.950 . S
C291 C290 1.345 . S
C291 C292 1.424 1_556 S
C292 H284 0.951 . S
C292 C291 1.424 1_554 S
C292 C293 1.347 . S
C293 H285 0.951 . S
C293 C288 1.429 . S
C293 C292 1.347 . S
H294 C295 0.951 . S
C295 H294 0.951 . S
C295 C301 1.265 . S
H296 C301 0.950 . S
H297 C305 0.949 . S
H298 C306 0.950 . S
H299 C307 0.951 . S
H300 C308 0.951 . S
C301 C295 1.265 . S
C301 H296 0.950 . S
C301 C302 1.478 . S
C302 C301 1.478 . S
C302 C303 1.397 . S
C302 C319 1.394 . S
C303 C302 1.397 . S
C303 C304 1.438 . S
C303 C308 1.429 . S
C304 C303 1.438 . S
C304 C305 1.428 . S
C304 C317 1.394 . S
C305 H297 0.949 . S
C305 C304 1.428 . S
C305 C306 1.345 . S
C306 H298 0.950 . S
C306 C305 1.345 . S
C306 C307 1.424 . S
C307 H299 0.951 . S
C307 C306 1.424 . S
C307 C308 1.347 . S
C308 H300 0.951 . S
C308 C303 1.429 . S
C308 C307 1.347 . S
H309 C310 0.951 . S
C310 H309 0.951 . S
C310 C316 1.265 . S
H311 C316 0.950 . S
H312 C320 0.949 . S
H313 C321 0.950 . S
H314 C322 0.951 . S
H315 C323 0.951 . S
C316 C310 1.265 . S
C316 H311 0.950 . S
C316 C317 1.478 . S
C317 C304 1.394 . S
C317 C316 1.478 . S
C317 C318 1.397 . S
C318 C317 1.397 . S
C318 C319 1.438 . S
C318 C323 1.429 . S
C319 C302 1.394 . S
C319 C318 1.438 . S
C319 C320 1.428 . S
C320 H312 0.949 . S
C320 C319 1.428 . S
C320 C321 1.345 . S
C321 H313 0.950 . S
C321 C320 1.345 . S
C321 C322 1.424 . S
C322 H314 0.951 . S
C322 C321 1.424 . S
C322 C323 1.347 . S
C323 H315 0.951 . S
C323 C318 1.429 . S
C323 C322 1.347 . S
H324 C325 0.951 . S
C325 H324 0.951 . S
C325 C331 1.265 . S
H326 C331 0.950 . S
H327 C335 0.949 . S
H328 C336 0.950 . S
H329 C337 0.951 . S
H330 C338 0.951 . S
C331 C325 1.265 . S
C331 H326 0.950 . S
C331 C332 1.478 . S
C332 C331 1.478 . S
C332 C333 1.397 . S
C332 C349 1.394 . S
C333 C332 1.397 . S
C333 C334 1.438 . S
C333 C338 1.429 . S
C334 C333 1.438 . S
C334 C335 1.428 . S
C334 C347 1.394 . S
C335 H327 0.949 . S
C335 C334 1.428 . S
C335 C336 1.345 . S
C336 H328 0.950 . S
C336 C335 1.345 . S
C336 C337 1.424 . S
C337 H329 0.951 . S
C337 C336 1.424 . S
C337 C338 1.347 . S
C338 H330 0.951 . S
C338 C333 1.429 . S
C338 C337 1.347 . S
H339 C340 0.951 . S
C340 H339 0.951 . S
C340 C346 1.265 . S
H341 C346 0.950 . S
H342 C350 0.949 . S
H343 C351 0.950 . S
H344 C352 0.951 . S
H345 C353 0.951 . S
C346 C340 1.265 . S
C346 H341 0.950 . S
C346 C347 1.478 . S
C347 C334 1.394 . S
C347 C346 1.478 . S
C347 C348 1.397 . S
C348 C347 1.397 . S
C348 C349 1.438 . S
C348 C353 1.429 . S
C349 C332 1.394 . S
C349 C348 1.438 . S
C349 C350 1.428 . S
C350 H342 0.949 . S
C350 C349 1.428 . S
C350 C351 1.345 . S
C351 H343 0.950 . S
C351 C350 1.345 . S
C351 C352 1.424 . S
C352 H344 0.951 . S
C352 C351 1.424 . S
C352 C353 1.347 . S
C353 H345 0.951 . S
C353 C348 1.429 . S
C353 C352 1.347 . S
H354 C355 0.951 . S
C355 H354 0.951 . S
C355 C361 1.265 . S
H356 C361 0.950 . S
H357 C365 0.949 . S
H358 C366 0.950 . S
H359 C367 0.951 . S
H360 C368 0.951 . S
C361 C355 1.265 . S
C361 H356 0.950 . S
C361 C362 1.478 . S
C362 C361 1.478 . S
C362 C363 1.397 . S
C362 C379 1.394 . S
C363 C362 1.397 . S
C363 C364 1.438 1_556 S
C363 C368 1.429 . S
C364 C363 1.438 1_554 S
C364 C365 1.428 . S
C364 C377 1.394 . S
C365 H357 0.949 . S
C365 C364 1.428 . S
C365 C366 1.345 . S
C366 H358 0.950 . S
C366 C365 1.345 . S
C366 C367 1.424 1_554 S
C367 H359 0.951 . S
C367 C366 1.424 1_556 S
C367 C368 1.347 . S
C368 H360 0.951 . S
C368 C363 1.429 . S
C368 C367 1.347 . S
H369 C370 0.951 . S
C370 H369 0.951 . S
C370 C376 1.265 . S
H371 C376 0.950 . S
H372 C380 0.949 . S
H373 C381 0.950 . S
H374 C382 0.951 . S
H375 C383 0.951 . S
C376 C370 1.265 . S
C376 H371 0.950 . S
C376 C377 1.478 . S
C377 C364 1.394 . S
C377 C376 1.478 . S
C377 C378 1.397 . S
C378 C377 1.397 . S
C378 C379 1.438 1_554 S
C378 C383 1.429 . S
C379 C362 1.394 . S
C379 C378 1.438 1_556 S
C379 C380 1.428 . S
C380 H372 0.949 . S
C380 C379 1.428 . S
C380 C381 1.345 . S
C381 H373 0.950 . S
C381 C380 1.345 . S
C381 C382 1.424 1_556 S
C382 H374 0.951 . S
C382 C381 1.424 1_554 S
C382 C383 1.347 . S
C383 H375 0.951 . S
C383 C378 1.429 . S
C383 C382 1.347 . S
H384 C385 0.951 . S
C385 H384 0.951 . S
C385 C391 1.265 . S
H386 C391 0.950 . S
H387 C395 0.949 . S
H388 C396 0.950 . S
H389 C397 0.951 . S
H390 C398 0.951 . S
C391 C385 1.265 . S
C391 H386 0.950 . S
C391 C392 1.478 . S
C392 C391 1.478 . S
C392 C393 1.397 . S
C392 C409 1.394 . S
C393 C392 1.397 . S
C393 C394 1.438 . S
C393 C398 1.429 . S
C394 C393 1.438 . S
C394 C395 1.428 . S
C394 C407 1.394 . S
C395 H387 0.949 . S
C395 C394 1.428 . S
C395 C396 1.345 . S
C396 H388 0.950 . S
C396 C395 1.345 . S
C396 C397 1.424 . S
C397 H389 0.951 . S
C397 C396 1.424 . S
C397 C398 1.347 . S
C398 H390 0.951 . S
C398 C393 1.429 . S
C398 C397 1.347 . S
H399 C400 0.951 . S
C400 H399 0.951 . S
C400 C406 1.265 . S
H401 C406 0.950 . S
H402 C410 0.949 . S
H403 C411 0.950 . S
H404 C412 0.951 . S
H405 C413 0.951 . S
C406 C400 1.265 . S
C406 H401 0.950 . S
C406 C407 1.478 . S
C407 C394 1.394 . S
C407 C406 1.478 . S
C407 C408 1.397 . S
C408 C407 1.397 . S
C408 C409 1.438 . S
C408 C413 1.429 . S
C409 C392 1.394 . S
C409 C408 1.438 . S
C409 C410 1.428 . S
C410 H402 0.949 . S
C410 C409 1.428 . S
C410 C411 1.345 . S
C411 H403 0.950 . S
C411 C410 1.345 . S
C411 C412 1.424 . S
C412 H404 0.951 . S
C412 C411 1.424 . S
C412 C413 1.347 . S
C413 H405 0.951 . S
C413 C408 1.429 . S
C413 C412 1.347 . S
H414 C415 0.951 . S
C415 H414 0.951 . S
C415 C421 1.265 . S
H416 C421 0.950 . S
H417 C425 0.949 . S
H418 C426 0.950 . S
H419 C427 0.951 . S
H420 C428 0.951 . S
C421 C415 1.265 . S
C421 H416 0.950 . S
C421 C422 1.478 . S
C422 C421 1.478 . S
C422 C423 1.397 . S
C422 C439 1.394 . S
C423 C422 1.397 . S
C423 C424 1.438 . S
C423 C428 1.429 . S
C424 C423 1.438 . S
C424 C425 1.428 . S
C424 C437 1.394 . S
C425 H417 0.949 . S
C425 C424 1.428 . S
C425 C426 1.345 . S
C426 H418 0.950 . S
C426 C425 1.345 . S
C426 C427 1.424 . S
C427 H419 0.951 . S
C427 C426 1.424 . S
C427 C428 1.347 . S
C428 H420 0.951 . S
C428 C423 1.429 . S
C428 C427 1.347 . S
H429 C430 0.951 . S
C430 H429 0.951 . S
C430 C436 1.265 . S
H431 C436 0.950 . S
H432 C440 0.949 . S
H433 C441 0.950 . S
H434 C442 0.951 . S
H435 C443 0.951 . S
C436 C430 1.265 . S
C436 H431 0.950 . S
C436 C437 1.478 . S
C437 C424 1.394 . S
C437 C436 1.478 . S
C437 C438 1.397 . S
C438 C437 1.397 . S
C438 C439 1.438 . S
C438 C443 1.429 . S
C439 C422 1.394 . S
C439 C438 1.438 . S
C439 C440 1.428 . S
C440 H432 0.949 . S
C440 C439 1.428 . S
C440 C441 1.345 . S
C441 H433 0.950 . S
C441 C440 1.345 . S
C441 C442 1.424 . S
C442 H434 0.951 . S
C442 C441 1.424 . S
C442 C443 1.347 . S
C443 H435 0.951 . S
C443 C438 1.429 . S
C443 C442 1.347 . S
C85 C8 1.396 . S
C100 C50 1.397 . S
C115 C22 1.404 . S
C130 C64 1.404 . S
C145 C36 1.396 . S
C160 C78 1.396 . S
C175 C23 1.494 . S
C190 C65 1.495 . S
C205 C79 1.431 . S
C220 C37 1.431 . S
C235 C51 1.430 . S
C250 C9 1.432 . S
C265 C31 1.267 . S
C280 C7 1.273 . S
C295 C45 1.164 . S
C310 C21 1.198 . S
C325 C35 1.240 . S
C340 C59 1.227 . S
C355 C73 1.152 . S
C370 C49 1.196 . S
C385 C63 1.268 . S
C400 C3 1.252 . S
C415 C77 1.235 . S
C430 C17 1.202 . S
