# Generated by pormake.
# Topology bcg, (8)-cn, num edge types: 1
# Building blocks:
#     Node 0, Type 0, BuildingBlock: OLANEW_clean_sbu_1, # of connection points: 8
#     Node 1, Type 0, BuildingBlock: OLANEW_clean_sbu_1, # of connection points: 8
#     Node 2, Type 0, BuildingBlock: OLANEW_clean_sbu_1, # of connection points: 8
#     Node 3, Type 0, BuildingBlock: OLANEW_clean_sbu_1, # of connection points: 8
#     Edge 4, Type (0, 0), BuildingBlock: TEMPAE_clean_linker_10, # of connection points: 2
#     Edge 5, Type (0, 0), BuildingBlock: TEMPAE_clean_linker_10, # of connection points: 2
#     Edge 6, Type (0, 0), BuildingBlock: TEMPAE_clean_linker_10, # of connection points: 2
#     Edge 7, Type (0, 0), BuildingBlock: TEMPAE_clean_linker_10, # of connection points: 2
#     Edge 8, Type (0, 0), BuildingBlock: TEMPAE_clean_linker_10, # of connection points: 2
#     Edge 9, Type (0, 0), BuildingBlock: TEMPAE_clean_linker_10, # of connection points: 2
#     Edge 10, Type (0, 0), BuildingBlock: TEMPAE_clean_linker_10, # of connection points: 2
#     Edge 11, Type (0, 0), BuildingBlock: TEMPAE_clean_linker_10, # of connection points: 2
#     Edge 12, Type (0, 0), BuildingBlock: TEMPAE_clean_linker_10, # of connection points: 2
#     Edge 13, Type (0, 0), BuildingBlock: TEMPAE_clean_linker_10, # of connection points: 2
#     Edge 14, Type (0, 0), BuildingBlock: TEMPAE_clean_linker_10, # of connection points: 2
#     Edge 15, Type (0, 0), BuildingBlock: TEMPAE_clean_linker_10, # of connection points: 2
#     Edge 16, Type (0, 0), BuildingBlock: TEMPAE_clean_linker_10, # of connection points: 2
#     Edge 17, Type (0, 0), BuildingBlock: TEMPAE_clean_linker_10, # of connection points: 2
#     Edge 18, Type (0, 0), BuildingBlock: TEMPAE_clean_linker_10, # of connection points: 2
#     Edge 19, Type (0, 0), BuildingBlock: TEMPAE_clean_linker_10, # of connection points: 2
# Relax obj value: 0.090
# Max RMSD: 0.203
# Mean RMSD: 0.203
data_MOF--net-bcg--node1-OLANEW_clean_sbu_1--edge1-TEMPAE_clean_linker_10
_symmetry_space_group_name_H-M    P1
_symmetry_Int_Tables_number       1
_symmetry_cell_setting            triclinic
loop_
_symmetry_equiv_pos_as_xyz
'x, y, z'
_cell_length_a     27.382426
_cell_length_b     28.009851
_cell_length_c     28.68854
_cell_angle_alpha  94.554463
_cell_angle_beta   90.230123
_cell_angle_gamma 89.084797
loop_
_atom_site_label
_atom_site_type_symbol
_atom_site_fract_x
_atom_site_fract_y
_atom_site_fract_z
_atom_type_partial_charge
Cd0 Cd 0.04196 0.20611 0.02343 0.0
Cd1 Cd 0.24464 0.19742 0.93644 0.0
C2 C 0.19365 0.31461 0.94109 0.0
Cd3 Cd 0.48347 0.30628 0.981 0.0
Cd4 Cd 0.27887 0.35073 0.00552 0.0
C5 C 0.50147 0.28241 0.8653 0.0
O6 O 0.46691 0.31473 0.86052 0.0
O7 O 0.1214 0.19276 0.98284 0.0
O8 O 0.17594 0.14344 0.94749 0.0
O9 O 0.56155 0.3385 0.01082 0.0
O10 O 0.2019 0.35707 0.95815 0.0
O11 O 0.22405 0.28246 0.95086 0.0
C12 C 0.39243 0.39282 -0.01006 0.0
O13 O 0.51153 0.26943 0.90567 0.0
C14 C 0.93403 0.22888 -0.00854 0.0
O15 O 0.93502 0.18458 0.00344 0.0
O16 O 0.4034 0.34839 0.9856 0.0
O17 O 0.34787 0.40567 -0.00394 0.0
C18 C 0.32816 0.23082 0.00464 0.0
O19 O 0.97389 0.25155 -0.00838 0.0
O20 O 0.31814 0.18914 0.98659 0.0
O21 O 0.30093 0.26511 -0.00647 0.0
C22 C 0.13359 0.15113 0.96509 0.0
O23 O 0.03657 0.22147 0.10892 0.0
C24 C 0.58875 0.34667 0.97656 0.0
O25 O 0.56879 0.34635 0.93489 0.0
C26 C 1.00162 0.19882 0.12556 0.0
O27 O 0.97759 0.16836 0.09718 0.0
Cd28 Cd 0.54182 0.73109 -0.00947 0.0
Cd29 Cd 0.73943 0.72055 0.01023 0.0
C30 C 0.69288 0.81705 0.95828 0.0
Cd31 Cd 0.98235 0.82256 0.86752 0.0
Cd32 Cd 0.81243 0.80402 0.98642 0.0
C33 C 0.96565 0.78591 0.76243 0.0
O34 O 0.9641 0.83295 0.76427 0.0
O35 O 0.62584 0.69939 -0.00714 0.0
O36 O 0.68583 0.64944 0.0053 0.0
O37 O 0.06649 0.80523 0.89228 0.0
O38 O 0.73613 0.83076 0.95145 0.0
O39 O 0.68523 0.78121 0.98155 0.0
C40 C 0.90689 0.86895 0.95176 0.0
O41 O 0.96668 0.76607 0.80066 0.0
C42 C 0.43791 0.70145 0.94765 0.0
O43 O 0.44042 0.68301 0.98826 0.0
O44 O 0.91545 0.83187 0.92424 0.0
O45 O 0.87073 0.86921 0.97945 0.0
C46 C 0.79085 0.77992 0.1022 0.0
O47 O 0.47561 0.72116 0.93264 0.0
O48 O 0.76422 0.74409 0.09051 0.0
O49 O 0.80873 0.8046 0.07127 0.0
C50 C 0.64057 0.65674 -0.00255 0.0
O51 O 0.50468 0.74375 0.06719 0.0
C52 C 0.09216 0.7819 0.86101 0.0
O53 O 0.07188 0.76925 0.82042 0.0
C54 C 0.49012 0.70782 0.0873 0.0
O55 O 0.49875 0.66457 0.06761 0.0
Cd56 Cd 0.02868 0.83757 0.49766 0.0
Cd57 Cd 0.2352 0.7893 0.47622 0.0
C58 C 0.19473 0.69673 0.52715 0.0
Cd59 Cd 0.49127 0.67441 0.61118 0.0
Cd60 Cd 0.31644 0.71883 0.50622 0.0
C61 C 0.48171 0.70962 0.71877 0.0
O62 O 0.48176 0.6626 0.71731 0.0
O63 O 0.11855 0.82549 0.49627 0.0
O64 O 0.18787 0.86436 0.49283 0.0
O65 O 0.57244 0.68719 0.5789 0.0
O66 O 0.23943 0.69106 0.53806 0.0
O67 O 0.18241 0.7265 0.49793 0.0
C68 C 0.41015 0.64455 0.52765 0.0
O69 O 0.48197 0.7294 0.6805 0.0
C70 C 0.94857 0.75889 0.51435 0.0
O71 O 0.96419 0.74817 0.47149 0.0
O72 O 0.42056 0.67722 0.55928 0.0
O73 O 0.37237 0.64948 0.50256 0.0
C74 C 0.30352 0.75188 0.38979 0.0
O75 O 0.96986 0.79183 0.53942 0.0
O76 O 0.26519 0.77761 0.39641 0.0
O77 O 0.3228 0.7316 0.42353 0.0
C78 C 0.14193 0.86457 0.49963 0.0
O79 O 0.99434 0.83542 0.41934 0.0
C80 C 0.60776 0.66288 0.59437 0.0
O81 O 0.59833 0.63079 0.62398 0.0
C82 C 0.94842 0.84238 0.41726 0.0
O83 O 0.92411 0.8526 0.45627 0.0
Cd84 Cd 0.51468 0.31245 0.41077 0.0
Cd85 Cd 0.71026 0.26999 0.47363 0.0
C86 C 0.72064 0.23013 0.58637 0.0
Cd87 Cd 0.95717 0.2137 0.56212 0.0
Cd88 Cd 0.77796 0.16302 0.4971 0.0
C89 C 0.95808 0.22386 0.68378 0.0
O90 O 0.92526 0.19024 0.68457 0.0
O91 O 0.59755 0.30753 0.44312 0.0
O92 O 0.66142 0.34422 0.47472 0.0
O93 O 0.03761 0.20149 0.52554 0.0
O94 O 0.74475 0.1923 0.5733 0.0
O95 O 0.70833 0.26015 0.55736 0.0
C96 C 0.8837 0.11998 0.52449 0.0
O97 O 0.97254 0.23697 0.6448 0.0
C98 C 0.40524 0.29517 0.43289 0.0
O99 O 0.40784 0.31999 0.396 0.0
O100 O 0.88703 0.16449 0.53671 0.0
O101 O 0.84273 0.10418 0.50953 0.0
C102 C 0.82281 0.25074 0.42591 0.0
O103 O 0.44479 0.28386 0.45296 0.0
O104 O 0.7863 0.27939 0.43033 0.0
O105 O 0.82355 0.2122 0.44646 0.0
C106 C 0.61699 0.34539 0.4618 0.0
O107 O 0.503 0.2839 0.32943 0.0
C108 C 0.06749 0.22958 0.54733 0.0
O109 O 0.05121 0.25772 0.5829 0.0
C110 C 0.52776 0.2911 0.29337 0.0
O111 O 0.5679 0.31614 0.2979 0.0
C112 C 0.66552 0.33499 0.02279 0.0
C113 C 0.64278 0.34443 0.98055 0.0
C114 C 0.7155 0.32278 0.02423 0.0
C115 C 0.74322 0.31969 0.98242 0.0
C116 C 0.72123 0.33256 0.94042 0.0
C117 C 0.67141 0.34505 0.94006 0.0
C118 C 0.73779 0.31 0.0699 0.0
C119 C 0.74938 0.32983 0.89509 0.0
C120 C 0.8815 0.3031 -0.01001 0.0
C121 C 0.88641 0.25303 0.9841 0.0
C122 C 0.8352 0.32559 -0.01095 0.0
C123 C 0.79303 0.29732 0.98142 0.0
C124 C 0.79813 0.24693 0.97347 0.0
C125 C 0.84464 0.22545 0.97521 0.0
C126 C 0.83124 0.37934 -0.00213 0.0
C127 C 0.75426 0.21549 0.96416 0.0
H128 H 0.64381 0.33467 0.05428 0.0
H129 H 0.65434 0.35263 0.90723 0.0
H130 H 0.7449 0.2708 0.06843 0.0
H131 H 0.77333 0.32797 0.07592 0.0
H132 H 0.71347 0.32014 0.10011 0.0
H133 H 0.72832 0.34515 0.86648 0.0
H134 H 0.78432 0.34911 0.89983 0.0
H135 H 0.75853 0.29186 0.88415 0.0
H136 H 0.91363 0.32461 -0.00284 0.0
H137 H 0.84822 0.18677 0.97029 0.0
H138 H 0.81173 0.38862 0.03127 0.0
H139 H 0.80955 0.39476 0.9698 0.0
H140 H 0.86759 0.39645 -0.00011 0.0
H141 H 0.72957 0.2189 -0.00514 0.0
H142 H 0.76465 0.17713 0.9569 0.0
H143 H 0.73328 0.22723 0.93382 0.0
C144 C 0.16901 0.73673 0.83769 0.0
C145 C 0.14401 0.76897 0.86955 0.0
C146 C 0.21793 0.72351 0.84527 0.0
C147 C 0.24272 0.74344 0.88542 0.0
C148 C 0.21796 0.77665 0.91728 0.0
C149 C 0.16884 0.78878 0.90913 0.0
C150 C 0.24279 0.6876 0.81077 0.0
C151 C 0.24328 0.79908 0.96027 0.0
C152 C 0.35021 0.67997 0.93874 0.0
C153 C 0.38974 0.70666 0.92483 0.0
C154 C 0.30243 0.69006 0.9242 0.0
C155 C 0.29385 0.72815 0.89545 0.0
C156 C 0.33394 0.75345 0.87909 0.0
C157 C 0.38153 0.74215 0.89372 0.0
C158 C 0.2609 0.66143 0.94156 0.0
C159 C 0.3264 0.79432 0.84842 0.0
H160 H 0.15015 0.7212 0.80697 0.0
H161 H 0.14993 0.81396 0.93371 0.0
H162 H 0.27646 0.703 0.79719 0.0
H163 H 0.25397 0.65538 0.82855 0.0
H164 H 0.21878 0.67628 0.78073 0.0
H165 H 0.21971 0.82597 0.98036 0.0
H166 H 0.25408 0.7709 0.98354 0.0
H167 H 0.27717 0.81679 0.95015 0.0
H168 H 0.35639 0.65214 0.9624 0.0
H169 H 0.41192 0.76289 0.88278 0.0
H170 H 0.23705 0.6485 0.912 0.0
H171 H 0.23812 0.68462 0.96626 0.0
H172 H 0.27408 0.63009 0.95976 0.0
H173 H 0.30223 0.78348 0.81845 0.0
H174 H 0.36143 0.80696 0.83474 0.0
H175 H 0.30811 0.82475 0.86889 0.0
C176 C 0.66988 0.71182 0.55628 0.0
C177 C 0.65906 0.673 0.5823 0.0
C178 C 0.71844 0.72336 0.54695 0.0
C179 C 0.75719 0.69526 0.56377 0.0
C180 C 0.74652 0.65564 0.58948 0.0
C181 C 0.69763 0.64505 0.59851 0.0
C182 C 0.72829 0.76595 0.51942 0.0
C183 C 0.78679 0.62461 0.60767 0.0
C184 C 0.87806 0.70386 0.50076 0.0
C185 C 0.90275 0.73788 0.53027 0.0
C186 C 0.83142 0.68834 0.5121 0.0
C187 C 0.80879 0.70731 0.55397 0.0
C188 C 0.8345 0.73986 0.58505 0.0
C189 C 0.88126 0.75467 0.57289 0.0
C190 C 0.80555 0.65312 0.47828 0.0
C191 C 0.81177 0.76074 0.63016 0.0
H192 H 0.6404 0.73371 0.54372 0.0
H193 H 0.68968 0.61493 0.61858 0.0
H194 H 0.75085 0.7922 0.54057 0.0
H195 H 0.74934 0.75437 0.48743 0.0
H196 H 0.69414 0.78424 0.50894 0.0
H197 H 0.77241 0.59481 0.62669 0.0
H198 H 0.80973 0.60923 0.57823 0.0
H199 H 0.81093 0.64661 0.63162 0.0
H200 H 0.89451 0.69038 0.46791 0.0
H201 H 0.90018 0.78073 0.59605 0.0
H202 H 0.77339 0.67093 0.46311 0.0
H203 H 0.79188 0.62271 0.49677 0.0
H204 H 0.82965 0.63877 0.44924 0.0
H205 H 0.78008 0.78396 0.62223 0.0
H206 H 0.83799 0.7824 0.65225 0.0
H207 H 0.79789 0.7318 0.65054 0.0
C208 C 0.14842 0.26914 0.55347 0.0
C209 C 0.11892 0.23307 0.5322 0.0
C210 C 0.19627 0.27548 0.53827 0.0
C211 C 0.21548 0.24472 0.50109 0.0
C212 C 0.18661 0.20704 0.48055 0.0
C213 C 0.13849 0.20179 0.4962 0.0
C214 C 0.22562 0.31631 0.56094 0.0
C215 C 0.20607 0.17314 0.44121 0.0
C216 C 0.31414 0.29871 0.43023 0.0
C217 C 0.357 0.28072 0.44985 0.0
C218 C 0.26795 0.28624 0.44581 0.0
C219 C 0.26433 0.25463 0.48171 0.0
C220 C 0.30738 0.23544 0.50103 0.0
C221 C 0.35328 0.24893 0.48504 0.0
C222 C 0.22299 0.30794 0.42464 0.0
C223 C 0.30493 0.20132 0.53908 0.0
H224 H 0.13376 0.2934 0.58146 0.0
H225 H 0.11607 0.17357 0.47988 0.0
H226 H 0.26129 0.30284 0.57334 0.0
H227 H 0.23331 0.34241 0.53487 0.0
H228 H 0.20629 0.33545 0.59105 0.0
H229 H 0.18105 0.1429 0.43232 0.0
H230 H 0.21118 0.19284 0.40957 0.0
H231 H 0.2423 0.15843 0.45071 0.0
H232 H 0.31659 0.32326 0.403 0.0
H233 H 0.38621 0.23459 0.50013 0.0
H234 H 0.20278 0.33045 0.45195 0.0
H235 H 0.19807 0.27929 0.41088 0.0
H236 H 0.23201 0.33047 0.39578 0.0
H237 H 0.28877 0.21996 0.57107 0.0
H238 H 0.34151 0.18688 0.54802 0.0
H239 H 0.28087 0.17094 0.52809 0.0
C240 C 0.56333 0.61851 0.96772 0.0
C241 C 0.60552 0.61679 -0.00455 0.0
C242 C 0.53003 0.58071 0.96478 0.0
C243 C 0.53825 0.5409 -0.00855 0.0
C244 C 0.58095 0.53883 0.01933 0.0
C245 C 0.61439 0.57653 0.02053 0.0
C246 C 0.48626 0.58319 0.93283 0.0
C247 C 0.5909 0.49711 0.04843 0.0
C248 C 0.42619 0.47097 0.02139 0.0
C249 C 0.43069 0.4296 -0.00923 0.0
C250 C 0.46145 0.50688 0.02262 0.0
C251 C 0.50139 0.50216 -0.00872 0.0
C252 C 0.50558 0.46085 0.95954 0.0
C253 C 0.47077 0.42445 0.96045 0.0
C254 C 0.45554 0.55017 0.05712 0.0
C255 C 0.5463 0.45551 0.92408 0.0
H256 H 0.5568 0.64904 0.94749 0.0
H257 H 0.64702 0.57497 0.04191 0.0
H258 H 0.48327 0.5495 0.90997 0.0
H259 H 0.4524 0.58719 0.95395 0.0
H260 H 0.48824 0.61357 0.9103 0.0
H261 H 0.62551 0.50107 0.06861 0.0
H262 H 0.56038 0.49374 0.07325 0.0
H263 H 0.59298 0.46328 0.02558 0.0
H264 H 0.39525 0.47496 0.04494 0.0
H265 H 0.47397 0.39271 0.9364 0.0
H266 H 0.4469 0.58216 0.03799 0.0
H267 H 0.49007 0.55719 0.07669 0.0
H268 H 0.42581 0.54584 0.08261 0.0
H269 H 0.5508 0.48913 0.90666 0.0
H270 H 0.53957 0.426 0.89673 0.0
H271 H 0.58124 0.44808 0.94202 0.0
C272 C 0.60945 0.43495 0.46866 0.0
C273 C 0.58775 0.3901 0.47018 0.0
C274 C 0.58211 0.4775 0.47832 0.0
C275 C 0.53203 0.47499 0.49003 0.0
C276 C 0.5102 0.42974 0.49217 0.0
C277 C 0.53847 0.38793 0.4827 0.0
C278 C 0.60673 0.5251 0.47599 0.0
C279 C 0.45703 0.42542 0.50478 0.0
C280 C 0.46753 0.58168 0.55483 0.0
C281 C 0.44206 0.60171 0.51849 0.0
C282 C 0.49787 0.54106 0.54597 0.0
C283 C 0.50218 0.51956 0.49973 0.0
C284 C 0.47634 0.53956 0.46295 0.0
C285 C 0.44652 0.5803 0.4728 0.0
C286 C 0.52464 0.52068 0.5862 0.0
C287 C 0.47985 0.51768 0.41321 0.0
H288 H 0.64776 0.43673 0.4597 0.0
H289 H 0.52224 0.35343 0.48639 0.0
H290 H 0.58812 0.54604 0.44968 0.0
H291 H 0.60371 0.54634 0.51022 0.0
H292 H 0.64598 0.52092 0.46663 0.0
H293 H 0.44554 0.38753 0.50444 0.0
H294 H 0.45016 0.44328 0.54011 0.0
H295 H 0.43371 0.44381 0.47981 0.0
H296 H 0.46265 0.59682 0.59041 0.0
H297 H 0.42683 0.59566 0.44457 0.0
H298 H 0.56435 0.51796 0.57874 0.0
H299 H 0.5118 0.48394 0.59056 0.0
H300 H 0.51915 0.54288 0.61967 0.0
H301 H 0.51857 0.51572 0.40187 0.0
H302 H 0.45854 0.53839 0.38841 0.0
H303 H 0.46615 0.4805 0.41109 0.0
C304 C 0.11607 0.06472 0.97125 0.0
C305 C 0.09894 0.11108 0.96444 0.0
C306 C 0.08426 0.02575 0.96882 0.0
C307 C 0.03426 0.03311 0.95823 0.0
C308 C 0.01696 0.07978 0.95035 0.0
C309 C 0.04943 0.11834 0.95412 0.0
C310 C 0.10419 0.97666 0.97754 0.0
C311 C 0.96426 0.089 0.93776 0.0
C312 C 0.96245 0.92372 0.91226 0.0
C313 C 0.93872 0.91142 0.95272 0.0
C314 C 0.99333 0.96344 0.91339 0.0
C315 C 1.00018 0.99193 0.95592 0.0
C316 C 0.97526 0.9804 -0.00341 0.0
C317 C 0.94479 0.94038 -0.00553 0.0
C318 C 0.01861 0.97496 0.86906 0.0
C319 C 0.98131 0.00997 0.04254 0.0
H320 H 0.15444 0.05901 0.97889 0.0
H321 H 0.03637 0.15393 0.94755 0.0
H322 H 0.08463 0.96261 0.00724 0.0
H323 H 0.09792 0.9514 0.94638 0.0
H324 H 0.14391 0.97698 0.98556 0.0
H325 H 0.95841 0.12534 0.92559 0.0
H326 H 0.95181 0.06221 0.90986 0.0
H327 H 0.94097 0.08546 0.96881 0.0
H328 H 0.95609 0.90297 0.87945 0.0
H329 H 0.92624 0.93129 0.02581 0.0
H330 H 0.05879 0.97368 0.87409 0.0
H331 H 0.00865 0.01186 0.86065 0.0
H332 H 0.00898 0.94964 0.83875 0.0
H333 H 0.02023 0.00949 0.05347 0.0
H334 H 0.95888 0.99666 0.07082 0.0
H335 H 0.97079 0.04783 0.03843 0.0
C336 C 0.96834 0.09874 0.5514 0.0
C337 C 0.92694 0.08743 0.52399 0.0
C338 C 0.00948 0.06792 0.55012 0.0
C339 C 0.00889 0.02463 0.52105 0.0
C340 C 0.96732 0.01332 0.49305 0.0
C341 C 0.92694 0.04475 0.49493 0.0
C342 C 0.05306 0.0812 0.58052 0.0
C343 C 0.96523 0.9676 0.46144 0.0
C344 C 0.11993 0.94867 0.48281 0.0
C345 C 0.11462 0.9099 0.51021 0.0
C346 C 0.08773 0.98841 0.48814 0.0
C347 C 0.04985 0.98909 0.52178 0.0
C348 C 0.04719 0.95164 0.55199 0.0
C349 C 0.07974 0.91262 0.54586 0.0
C350 C 0.09213 0.02791 0.45564 0.0
C351 C 0.00762 0.95083 0.58843 0.0
H352 H 0.96826 0.13108 0.57465 0.0
H353 H 0.89529 0.03591 0.4733 0.0
H354 H 0.0578 0.05503 0.60731 0.0
H355 H 0.08683 0.07964 0.55917 0.0
H356 H 0.04917 0.11767 0.59854 0.0
H357 H 0.92999 0.9638 0.44227 0.0
H358 H 0.9953 0.9666 0.43556 0.0
H359 H 0.97048 0.93626 0.48235 0.0
H360 H 0.1473 0.94668 0.45548 0.0
H361 H 0.07652 0.88297 0.56764 0.0
H362 H 0.08838 0.06356 0.47522 0.0
H363 H 0.0622 0.02498 0.42942 0.0
H364 H 0.12755 0.02601 0.43679 0.0
H365 H 0.00441 0.98604 0.60886 0.0
H366 H 0.01451 0.92267 0.61296 0.0
H367 H 0.97199 0.94371 0.57086 0.0
C368 C 0.46192 0.25408 0.24316 0.0
C369 C 0.5076 0.27608 0.24658 0.0
C370 C 0.43892 0.24459 0.19989 0.0
C371 C 0.4624 0.25675 0.15872 0.0
C372 C 0.50973 0.27648 0.16144 0.0
C373 C 0.53172 0.28623 0.20551 0.0
C374 C 0.38828 0.22377 0.1986 0.0
C375 C 0.53618 0.28915 0.11814 0.0
C376 C 0.39976 0.20179 0.04986 0.0
C377 C 0.36723 0.23885 0.03997 0.0
C378 C 0.43389 0.20821 0.08641 0.0
C379 C 0.43496 0.25247 0.11387 0.0
C380 C 0.40418 0.29082 0.10219 0.0
C381 C 0.37068 0.2835 0.06544 0.0
C382 C 0.46696 0.16686 0.0972 0.0
C383 C 0.40416 0.33868 0.13046 0.0
H384 H 0.44306 0.24575 0.27459 0.0
H385 H 0.56718 0.30294 0.2078 0.0
H386 H 0.36176 0.25009 0.1857 0.0
H387 H 0.38718 0.19116 0.17405 0.0
H388 H 0.3761 0.21428 0.23353 0.0
H389 H 0.57535 0.29667 0.1252 0.0
H390 H 0.53355 0.25974 0.09 0.0
H391 H 0.51887 0.32149 0.10484 0.0
H392 H 0.39771 0.16737 0.02986 0.0
H393 H 0.34585 0.31241 0.05789 0.0
H394 H 0.45436 0.15176 0.12958 0.0
H395 H 0.50489 0.17921 0.1035 0.0
H396 H 0.4672 0.13784 0.06846 0.0
H397 H 0.38877 0.33458 0.16563 0.0
H398 H 0.38215 0.36625 0.11362 0.0
H399 H 0.44194 0.35181 0.13548 0.0
C400 C 0.43335 0.67715 0.14555 0.0
C401 C 0.46065 0.71487 0.13039 0.0
C402 C 0.40428 0.68369 0.18577 0.0
C403 C 0.40314 0.72882 0.21178 0.0
C404 C 0.43036 0.76712 0.19645 0.0
C405 C 0.45855 0.75977 0.15575 0.0
C406 C 0.37539 0.64211 0.20083 0.0
C407 C 0.43074 0.81551 0.22373 0.0
C408 C 0.3039 0.75773 0.30272 0.0
C409 C 0.32793 0.74629 0.3437 0.0
C410 C 0.32769 0.75179 0.25922 0.0
C411 C 0.37675 0.73484 0.25704 0.0
C412 C 0.4012 0.72374 0.29838 0.0
C413 C 0.37643 0.72927 0.34104 0.0
C414 C 0.30039 0.76337 0.21562 0.0
C415 C 0.45374 0.70629 0.29767 0.0
H416 H 0.43438 0.64252 0.1258 0.0
H417 H 0.47955 0.78908 0.14415 0.0
H418 H 0.38951 0.63135 0.23481 0.0
H419 H 0.3365 0.6529 0.20604 0.0
H420 H 0.37738 0.6105 0.1749 0.0
H421 H 0.45203 0.84215 0.20593 0.0
H422 H 0.39288 0.82949 0.22905 0.0
H423 H 0.44689 0.81196 0.25885 0.0
H424 H 0.26641 0.77075 0.30456 0.0
H425 H 0.39551 0.72074 0.37258 0.0
H426 H 0.29966 0.73127 0.19033 0.0
H427 H 0.31949 0.79181 0.19839 0.0
H428 H 0.26222 0.77555 0.22315 0.0
H429 H 0.45735 0.67242 0.27506 0.0
H430 H 0.46765 0.69991 0.33311 0.0
H431 H 0.47734 0.73297 0.28263 0.0
C432 C 0.5191 0.71576 0.79781 0.0
C433 C 0.49398 0.73803 0.76268 0.0
C434 C 0.54249 0.74293 0.83405 0.0
C435 C 0.53921 0.79363 0.83603 0.0
C436 C 0.50865 0.81602 0.80417 0.0
C437 C 0.48709 0.78796 0.76707 0.0
C438 C 0.5747 0.71724 0.86728 0.0
C439 C 0.50112 0.86962 0.80774 0.0
C440 C 0.60448 0.83423 0.94618 0.0
C441 C 0.65245 0.83323 0.92922 0.0
C442 C 0.56473 0.82983 0.91517 0.0
C443 C 0.57393 0.8218 0.86664 0.0
C444 C 0.62167 0.82828 0.84951 0.0
C445 C 0.66043 0.83474 0.88124 0.0
C446 C 0.51372 0.83039 0.93494 0.0
C447 C 0.63317 0.8212 0.79796 0.0
H448 H 0.52413 0.67717 0.79489 0.0
H449 H 0.46661 0.80522 0.74051 0.0
H450 H 0.61361 0.72318 0.85906 0.0
H451 H 0.56838 0.73152 0.9039 0.0
H452 H 0.56841 0.67803 0.86471 0.0
H453 H 0.46962 0.88048 0.78623 0.0
H454 H 0.49491 0.8832 0.84469 0.0
H455 H 0.53433 0.88696 0.7955 0.0
H456 H 0.59823 0.83467 0.98352 0.0
H457 H 0.69753 0.83451 0.8681 0.0
H458 H 0.48623 0.81516 0.90974 0.0
H459 H 0.5028 0.86812 0.94501 0.0
H460 H 0.51272 0.81106 0.96721 0.0
H461 H 0.6324 0.78239 0.7866 0.0
H462 H 0.66984 0.83482 0.78996 0.0
H463 H 0.60552 0.83955 0.7771 0.0
C464 C 0.5852 0.26079 0.83619 0.0
C465 C 0.53563 0.26919 0.82647 0.0
C466 C 0.61951 0.25323 0.80007 0.0
C467 C 0.60366 0.2527 0.75304 0.0
C468 C 0.55337 0.2595 0.74301 0.0
C469 C 0.52004 0.26849 0.77992 0.0
C470 C 0.67288 0.24768 0.81235 0.0
C471 C 0.53485 0.25801 0.69328 0.0
C472 C 0.6875 0.28151 0.6544 0.0
C473 C 0.69889 0.23573 0.63362 0.0
C474 C 0.65876 0.28744 0.69492 0.0
C475 C 0.63968 0.24664 0.71419 0.0
C476 C 0.65272 0.20026 0.69444 0.0
C477 C 0.68278 0.19536 0.65472 0.0
C478 C 0.64711 0.33746 0.7159 0.0
C479 C 0.63244 0.15591 0.71342 0.0
H480 H 0.59761 0.26211 0.8722 0.0
H481 H 0.48179 0.27502 0.77239 0.0
H482 H 0.68841 0.21436 0.7944 0.0
H483 H 0.69351 0.27804 0.80005 0.0
H484 H 0.67886 0.24673 0.85059 0.0
H485 H 0.49436 0.26046 0.69144 0.0
H486 H 0.55018 0.28816 0.67552 0.0
H487 H 0.54718 0.22432 0.67354 0.0
H488 H 0.69998 0.31277 0.63818 0.0
H489 H 0.69094 0.1599 0.63839 0.0
H490 H 0.65387 0.34005 0.75417 0.0
H491 H 0.60787 0.34589 0.71047 0.0
H492 H 0.66912 0.36491 0.70003 0.0
H493 H 0.63916 0.1563 0.75159 0.0
H494 H 0.64863 0.12249 0.6961 0.0
H495 H 0.59228 0.1553 0.70804 0.0
C496 C 0.94644 0.81597 0.33201 0.0
C497 C 0.92208 0.83535 0.37221 0.0
C498 C 0.92139 0.80705 0.28957 0.0
C499 C 0.87087 0.8182 0.28718 0.0
C500 C 0.84611 0.83811 0.32751 0.0
C501 C 0.872 0.84631 0.36963 0.0
C502 C 0.94902 0.78559 0.24729 0.0
C503 C 0.79238 0.85091 0.32611 0.0
C504 C 0.82485 0.8363 0.16521 0.0
C505 C 0.80494 0.79147 0.15159 0.0
C506 C 0.84443 0.84619 0.21004 0.0
C507 C 0.84454 0.81021 0.24194 0.0
C508 C 0.82254 0.7656 0.22922 0.0
C509 C 0.80269 0.75682 0.18418 0.0
C510 C 0.86693 0.89445 0.22251 0.0
C511 C 0.82216 0.72632 0.26234 0.0
H512 H 0.98506 0.80716 0.33379 0.0
H513 H 0.85293 0.86134 0.40057 0.0
H514 H 0.9317 0.75179 0.23349 0.0
H515 H 0.94752 0.8105 0.2191 0.0
H516 H 0.98794 0.77787 0.2553 0.0
H517 H 0.77844 0.86576 0.36067 0.0
H518 H 0.78569 0.87774 0.30026 0.0
H519 H 0.77102 0.81876 0.31457 0.0
H520 H 0.82624 0.86345 0.14035 0.0
H521 H 0.78745 0.72208 0.17383 0.0
H522 H 0.907 0.89001 0.22679 0.0
H523 H 0.85229 0.91046 0.25631 0.0
H524 H 0.86002 0.91988 0.19532 0.0
H525 H 0.86013 0.71367 0.26824 0.0
H526 H 0.80019 0.69526 0.24864 0.0
H527 H 0.80729 0.74013 0.2968 0.0
C528 C 0.90363 0.22868 0.38927 0.0
C529 C 0.86076 0.25696 0.39014 0.0
C530 C 0.93403 0.22449 0.3498 0.0
C531 C 0.92104 0.24881 0.31004 0.0
C532 C 0.88039 0.28089 0.3124 0.0
C533 C 0.85085 0.28478 0.35255 0.0
C534 C 0.97756 0.19069 0.34926 0.0
C535 C 0.86535 0.30772 0.27093 0.0
C536 C 0.00466 0.24687 0.20364 0.0
C537 C 0.98444 0.20968 0.17437 0.0
C538 C 0.98521 0.25962 0.2484 0.0
C539 C 0.94453 0.23473 0.26404 0.0
C540 C 0.92491 0.19639 0.23506 0.0
C541 C 0.94512 0.18433 0.1908 0.0
C542 C 0.00742 0.30037 0.27845 0.0
C543 C 0.88169 0.16864 0.25035 0.0
H544 H 0.912 0.20753 0.41843 0.0
H545 H 0.81794 0.30683 0.35289 0.0
H546 H 0.96863 0.15699 0.3282 0.0
H547 H 0.00952 0.20639 0.33282 0.0
H548 H 0.98791 0.18164 0.38504 0.0
H549 H 0.83778 0.33632 0.28049 0.0
H550 H 0.89747 0.32408 0.25542 0.0
H551 H 0.84937 0.2823 0.24359 0.0
H552 H 0.03503 0.2667 0.19125 0.0
H553 H 0.92929 0.15544 0.16862 0.0
H554 H 0.01599 0.289 0.31378 0.0
H555 H 0.98075 0.3306 0.28298 0.0
H556 H 0.04132 0.31346 0.26294 0.0
H557 H 0.89013 0.15282 0.28376 0.0
H558 H 0.87129 0.13934 0.22398 0.0
H559 H 0.84973 0.19314 0.2566 0.0
C560 C 0.15267 0.25926 0.88162 0.0
C561 C 0.15185 0.30262 0.90965 0.0
C562 C 0.11512 0.2476 0.84969 0.0
C563 C 0.07517 0.27978 0.84607 0.0
C564 C 0.07269 0.32246 0.87606 0.0
C565 C 0.11146 0.33373 0.90718 0.0
C566 C 0.11958 0.20192 0.81813 0.0
C567 C 0.0298 0.35677 0.8743 0.0
C568 C 0.02157 0.27499 0.72423 0.0
C569 C 0.98312 0.24283 0.72722 0.0
C570 C 0.05018 0.28908 0.7633 0.0
C571 C 0.03978 0.27123 0.8069 0.0
C572 C 0.99913 0.24117 0.81104 0.0
C573 C 0.97142 0.22699 0.77099 0.0
C574 C 0.09346 0.3208 0.75712 0.0
C575 C 0.98628 0.22218 0.85719 0.0
H576 H 0.18367 0.23496 0.88336 0.0
H577 H 0.11024 0.3669 0.92936 0.0
H578 H 0.08616 0.18038 0.82024 0.0
H579 H 0.12336 0.21076 0.78129 0.0
H580 H 0.15157 0.17954 0.8272 0.0
H581 H 0.03038 0.38512 0.90366 0.0
H582 H 0.03027 0.37418 0.84091 0.0
H583 H 0.995 0.33713 0.87547 0.0
H584 H 0.03077 0.28785 0.69076 0.0
H585 H 0.94155 0.20246 0.77376 0.0
H586 H 0.12779 0.30053 0.76305 0.0
H587 H 0.09233 0.3522 0.78321 0.0
H588 H 0.09479 0.33392 0.72161 0.0
H589 H 0.01259 0.19333 0.86495 0.0
H590 H 0.94893 0.20722 0.85676 0.0
H591 H 0.98878 0.2508 0.88611 0.0
C592 C 0.10906 0.67178 0.54006 0.0
C593 C 0.15639 0.67976 0.55742 0.0
C594 C 0.06899 0.67304 0.57058 0.0
C595 C 0.07673 0.68472 0.61894 0.0
C596 C 0.12501 0.68622 0.6369 0.0
C597 C 0.1644 0.68286 0.6058 0.0
C598 C 0.0184 0.66518 0.5507 0.0
C599 C 0.13518 0.69804 0.68832 0.0
C600 C 1.00154 0.7825 0.68296 0.0
C601 C 0.98154 0.75817 0.71898 0.0
C602 C 0.02992 0.75815 0.64802 0.0
C603 C 0.03702 0.70792 0.64818 0.0
C604 C 0.01152 0.68237 0.6807 0.0
C605 C 0.98462 0.70792 0.71641 0.0
C606 C 0.05646 0.78719 0.61413 0.0
C607 C 0.01528 0.62854 0.67959 0.0
H608 H 0.10307 0.66789 0.50258 0.0
H609 H 0.20105 0.68857 0.61937 0.0
H610 H 0.00784 0.62778 0.55537 0.0
H611 H 0.99084 0.68905 0.56916 0.0
H612 H 0.01695 0.67037 0.51274 0.0
H613 H 0.17403 0.69127 0.69737 0.0
H614 H 0.12654 0.73648 0.69761 0.0
H615 H 0.11184 0.67678 0.7101 0.0
H616 H 0.99881 0.82123 0.68425 0.0
H617 H 0.96825 0.68877 0.74362 0.0
H618 H 0.05466 0.76998 0.57804 0.0
H619 H 0.09558 0.78951 0.62424 0.0
H620 H 0.04115 0.82413 0.61408 0.0
H621 H 0.01218 0.61238 0.64312 0.0
H622 H 0.98651 0.61361 0.70118 0.0
H623 H 0.05144 0.61785 0.69326 0.0
loop_
_geom_bond_atom_site_label_1
_geom_bond_atom_site_label_2
_geom_bond_distance
_geom_bond_site_symmetry_2
_ccdc_geom_bond_type
Cd0 O7 2.298 . S
Cd0 O19 2.255 1_455 S
Cd0 O23 2.218 . S
Cd1 O8 2.269 1_554 S
Cd1 O11 2.237 1_554 S
Cd1 O20 2.201 . S
C2 O10 1.266 . S
C2 O11 1.194 . S
Cd3 O9 2.255 . S
Cd3 O13 2.218 . S
Cd3 O16 2.298 . S
Cd4 O10 2.201 . S
Cd4 O17 2.269 1_556 S
Cd4 O21 2.237 1_556 S
C5 O6 1.201 . S
C5 O13 1.235 . S
O6 C5 1.201 . S
O7 Cd0 2.298 . S
O7 C22 1.265 . S
O8 Cd1 2.269 1_556 S
O8 C22 1.233 1_556 S
O9 Cd3 2.255 . S
O9 C24 1.210 . S
O10 C2 1.266 . S
O10 Cd4 2.201 . S
O11 Cd1 2.237 1_556 S
O11 C2 1.194 . S
C12 O16 1.265 . S
C12 O17 1.233 1_556 S
O13 Cd3 2.218 . S
O13 C5 1.235 . S
C14 O15 1.269 . S
C14 O19 1.210 . S
O15 C14 1.269 . S
O16 Cd3 2.298 . S
O16 C12 1.265 . S
O17 Cd4 2.269 1_554 S
O17 C12 1.233 1_554 S
C18 O20 1.266 . S
C18 O21 1.194 . S
O19 Cd0 2.255 1_655 S
O19 C14 1.210 . S
O20 Cd1 2.201 . S
O20 C18 1.266 . S
O21 Cd4 2.237 1_554 S
O21 C18 1.194 . S
C22 O7 1.265 . S
C22 O8 1.233 1_554 S
O23 Cd0 2.218 . S
O23 C26 1.235 . S
C24 O9 1.210 . S
C24 O25 1.269 . S
O25 C24 1.269 . S
C26 O23 1.235 . S
C26 O27 1.201 . S
O27 C26 1.201 . S
Cd28 O35 2.298 . S
Cd28 O47 2.255 . S
Cd28 O51 2.218 . S
Cd29 O36 2.269 1_554 S
Cd29 O39 2.237 1_554 S
Cd29 O48 2.201 . S
C30 O38 1.266 . S
C30 O39 1.194 . S
Cd31 O37 2.255 1_655 S
Cd31 O41 2.218 . S
Cd31 O44 2.298 . S
Cd32 O38 2.201 . S
Cd32 O45 2.269 1_556 S
Cd32 O49 2.237 1_556 S
C33 O34 1.201 . S
C33 O41 1.235 . S
O34 C33 1.201 . S
O35 Cd28 2.298 . S
O35 C50 1.265 . S
O36 Cd29 2.269 1_556 S
O36 C50 1.233 1_556 S
O37 Cd31 2.255 1_455 S
O37 C52 1.210 . S
O38 C30 1.266 . S
O38 Cd32 2.201 . S
O39 Cd29 2.237 1_556 S
O39 C30 1.194 . S
C40 O44 1.265 . S
C40 O45 1.233 1_556 S
O41 Cd31 2.218 . S
O41 C33 1.235 . S
C42 O43 1.269 . S
C42 O47 1.210 . S
O43 C42 1.269 . S
O44 Cd31 2.298 . S
O44 C40 1.265 . S
O45 Cd32 2.269 1_554 S
O45 C40 1.233 1_554 S
C46 O48 1.266 . S
C46 O49 1.194 . S
O47 Cd28 2.255 . S
O47 C42 1.210 . S
O48 Cd29 2.201 . S
O48 C46 1.266 . S
O49 Cd32 2.237 1_554 S
O49 C46 1.194 . S
C50 O35 1.265 . S
C50 O36 1.233 1_554 S
O51 Cd28 2.218 . S
O51 C54 1.235 . S
C52 O37 1.210 . S
C52 O53 1.269 . S
O53 C52 1.269 . S
C54 O51 1.235 . S
C54 O55 1.201 . S
O55 C54 1.201 . S
Cd56 O63 2.298 . S
Cd56 O75 2.255 1_455 S
Cd56 O79 2.218 . S
Cd57 O64 2.269 . S
Cd57 O67 2.237 . S
Cd57 O76 2.201 . S
C58 O66 1.266 . S
C58 O67 1.194 . S
Cd59 O65 2.255 . S
Cd59 O69 2.218 . S
Cd59 O72 2.298 . S
Cd60 O66 2.201 . S
Cd60 O73 2.269 . S
Cd60 O77 2.237 . S
C61 O62 1.201 . S
C61 O69 1.235 . S
O62 C61 1.201 . S
O63 Cd56 2.298 . S
O63 C78 1.265 . S
O64 Cd57 2.269 . S
O64 C78 1.233 . S
O65 Cd59 2.255 . S
O65 C80 1.210 . S
O66 C58 1.266 . S
O66 Cd60 2.201 . S
O67 Cd57 2.237 . S
O67 C58 1.194 . S
C68 O72 1.265 . S
C68 O73 1.233 . S
O69 Cd59 2.218 . S
O69 C61 1.235 . S
C70 O71 1.269 . S
C70 O75 1.210 . S
O71 C70 1.269 . S
O72 Cd59 2.298 . S
O72 C68 1.265 . S
O73 Cd60 2.269 . S
O73 C68 1.233 . S
C74 O76 1.266 . S
C74 O77 1.194 . S
O75 Cd56 2.255 1_655 S
O75 C70 1.210 . S
O76 Cd57 2.201 . S
O76 C74 1.266 . S
O77 Cd60 2.237 . S
O77 C74 1.194 . S
C78 O63 1.265 . S
C78 O64 1.233 . S
O79 Cd56 2.218 . S
O79 C82 1.235 . S
C80 O65 1.210 . S
C80 O81 1.269 . S
O81 C80 1.269 . S
C82 O79 1.235 . S
C82 O83 1.201 . S
O83 C82 1.201 . S
Cd84 O91 2.298 . S
Cd84 O103 2.255 . S
Cd84 O107 2.218 . S
Cd85 O92 2.269 . S
Cd85 O95 2.237 . S
Cd85 O104 2.201 . S
C86 O94 1.266 . S
C86 O95 1.194 . S
Cd87 O93 2.255 1_655 S
Cd87 O97 2.218 . S
Cd87 O100 2.298 . S
Cd88 O94 2.201 . S
Cd88 O101 2.269 . S
Cd88 O105 2.237 . S
C89 O90 1.201 . S
C89 O97 1.235 . S
O90 C89 1.201 . S
O91 Cd84 2.298 . S
O91 C106 1.265 . S
O92 Cd85 2.269 . S
O92 C106 1.233 . S
O93 Cd87 2.255 1_455 S
O93 C108 1.210 . S
O94 C86 1.266 . S
O94 Cd88 2.201 . S
O95 Cd85 2.237 . S
O95 C86 1.194 . S
C96 O100 1.265 . S
C96 O101 1.233 . S
O97 Cd87 2.218 . S
O97 C89 1.235 . S
C98 O99 1.269 . S
C98 O103 1.210 . S
O99 C98 1.269 . S
O100 Cd87 2.298 . S
O100 C96 1.265 . S
O101 Cd88 2.269 . S
O101 C96 1.233 . S
C102 O104 1.266 . S
C102 O105 1.194 . S
O103 Cd84 2.255 . S
O103 C98 1.210 . S
O104 Cd85 2.201 . S
O104 C102 1.266 . S
O105 Cd88 2.237 . S
O105 C102 1.194 . S
C106 O91 1.265 . S
C106 O92 1.233 . S
O107 Cd84 2.218 . S
O107 C110 1.235 . S
C108 O93 1.210 . S
C108 O109 1.269 . S
O109 C108 1.269 . S
C110 O107 1.235 . S
C110 O111 1.201 . S
O111 C110 1.201 . S
C112 C113 1.391 . S
C112 C114 1.394 1_556 S
C112 H128 0.931 . S
C113 C112 1.391 . S
C113 C117 1.376 . S
C114 C112 1.394 1_554 S
C114 C115 1.369 1_554 S
C114 C118 1.531 . S
C115 C114 1.369 1_556 S
C115 C116 1.410 . S
C115 C123 1.503 1_556 S
C116 C115 1.410 . S
C116 C117 1.392 . S
C116 C119 1.511 . S
C117 C113 1.376 . S
C117 C116 1.392 . S
C117 H129 0.929 . S
C118 C114 1.531 . S
C118 H130 0.960 . S
C118 H131 0.962 . S
C118 H132 0.960 . S
C119 C116 1.511 . S
C119 H133 0.961 . S
C119 H134 0.961 . S
C119 H135 0.961 . S
C120 C121 1.370 . S
C120 C122 1.363 1_554 S
C120 H136 0.931 . S
C121 C120 1.370 . S
C121 C125 1.408 . S
C122 C120 1.363 1_556 S
C122 C123 1.370 1_556 S
C122 C126 1.524 . S
C123 C115 1.503 1_554 S
C123 C122 1.370 1_554 S
C123 C124 1.403 . S
C124 C123 1.403 . S
C124 C125 1.404 . S
C124 C127 1.539 . S
C125 C121 1.408 . S
C125 C124 1.404 . S
C125 H137 0.930 . S
C126 C122 1.524 . S
C126 H138 0.956 . S
C126 H139 0.961 . S
C126 H140 0.961 . S
C127 C124 1.539 . S
C127 H141 0.958 . S
C127 H142 0.961 . S
C127 H143 0.960 . S
H128 C112 0.931 . S
H129 C117 0.929 . S
H130 C118 0.960 . S
H131 C118 0.962 . S
H132 C118 0.960 . S
H133 C119 0.961 . S
H134 C119 0.961 . S
H135 C119 0.961 . S
H136 C120 0.931 . S
H137 C125 0.930 . S
H138 C126 0.956 . S
H139 C126 0.961 . S
H140 C126 0.961 . S
H141 C127 0.958 . S
H142 C127 0.961 . S
H143 C127 0.960 . S
C144 C145 1.391 . S
C144 C146 1.394 . S
C144 H160 0.931 . S
C145 C144 1.391 . S
C145 C149 1.376 . S
C146 C144 1.394 . S
C146 C147 1.369 . S
C146 C150 1.531 . S
C147 C146 1.369 . S
C147 C148 1.410 1_556 S
C147 C155 1.503 1_556 S
C148 C147 1.410 1_554 S
C148 C149 1.392 1_554 S
C148 C151 1.511 . S
C149 C145 1.376 . S
C149 C148 1.392 1_556 S
C149 H161 0.929 1_556 S
C150 C146 1.531 . S
C150 H162 0.960 . S
C150 H163 0.962 . S
C150 H164 0.960 . S
C151 C148 1.511 . S
C151 H165 0.961 . S
C151 H166 0.961 . S
C151 H167 0.961 . S
C152 C153 1.370 . S
C152 C154 1.363 . S
C152 H168 0.931 . S
C153 C152 1.370 . S
C153 C157 1.408 . S
C154 C152 1.363 . S
C154 C155 1.370 . S
C154 C158 1.524 . S
C155 C147 1.503 1_554 S
C155 C154 1.370 . S
C155 C156 1.403 . S
C156 C155 1.403 . S
C156 C157 1.404 . S
C156 C159 1.539 1_554 S
C157 C153 1.408 . S
C157 C156 1.404 . S
C157 H169 0.930 . S
C158 C154 1.524 . S
C158 H170 0.956 . S
C158 H171 0.961 . S
C158 H172 0.961 . S
C159 C156 1.539 1_556 S
C159 H173 0.958 . S
C159 H174 0.961 . S
C159 H175 0.960 . S
H160 C144 0.931 . S
H161 C149 0.929 1_554 S
H162 C150 0.960 . S
H163 C150 0.962 . S
H164 C150 0.960 . S
H165 C151 0.961 . S
H166 C151 0.961 . S
H167 C151 0.961 . S
H168 C152 0.931 . S
H169 C157 0.930 . S
H170 C158 0.956 . S
H171 C158 0.961 . S
H172 C158 0.961 . S
H173 C159 0.958 . S
H174 C159 0.961 . S
H175 C159 0.960 . S
C176 C177 1.391 . S
C176 C178 1.394 . S
C176 H192 0.931 . S
C177 C176 1.391 . S
C177 C181 1.376 . S
C178 C176 1.394 . S
C178 C179 1.369 . S
C178 C182 1.531 . S
C179 C178 1.369 . S
C179 C180 1.410 . S
C179 C187 1.503 . S
C180 C179 1.410 . S
C180 C181 1.392 . S
C180 C183 1.511 . S
C181 C177 1.376 . S
C181 C180 1.392 . S
C181 H193 0.929 . S
C182 C178 1.531 . S
C182 H194 0.960 . S
C182 H195 0.962 . S
C182 H196 0.960 . S
C183 C180 1.511 . S
C183 H197 0.961 . S
C183 H198 0.961 . S
C183 H199 0.961 . S
C184 C185 1.370 . S
C184 C186 1.363 . S
C184 H200 0.931 . S
C185 C184 1.370 . S
C185 C189 1.408 . S
C186 C184 1.363 . S
C186 C187 1.370 . S
C186 C190 1.524 . S
C187 C179 1.503 . S
C187 C186 1.370 . S
C187 C188 1.403 . S
C188 C187 1.403 . S
C188 C189 1.404 . S
C188 C191 1.539 . S
C189 C185 1.408 . S
C189 C188 1.404 . S
C189 H201 0.930 . S
C190 C186 1.524 . S
C190 H202 0.956 . S
C190 H203 0.961 . S
C190 H204 0.961 . S
C191 C188 1.539 . S
C191 H205 0.958 . S
C191 H206 0.961 . S
C191 H207 0.960 . S
H192 C176 0.931 . S
H193 C181 0.929 . S
H194 C182 0.960 . S
H195 C182 0.962 . S
H196 C182 0.960 . S
H197 C183 0.961 . S
H198 C183 0.961 . S
H199 C183 0.961 . S
H200 C184 0.931 . S
H201 C189 0.930 . S
H202 C190 0.956 . S
H203 C190 0.961 . S
H204 C190 0.961 . S
H205 C191 0.958 . S
H206 C191 0.961 . S
H207 C191 0.960 . S
C208 C209 1.391 . S
C208 C210 1.394 . S
C208 H224 0.931 . S
C209 C208 1.391 . S
C209 C213 1.376 . S
C210 C208 1.394 . S
C210 C211 1.369 . S
C210 C214 1.531 . S
C211 C210 1.369 . S
C211 C212 1.410 . S
C211 C219 1.503 . S
C212 C211 1.410 . S
C212 C213 1.392 . S
C212 C215 1.511 . S
C213 C209 1.376 . S
C213 C212 1.392 . S
C213 H225 0.929 . S
C214 C210 1.531 . S
C214 H226 0.960 . S
C214 H227 0.962 . S
C214 H228 0.960 . S
C215 C212 1.511 . S
C215 H229 0.961 . S
C215 H230 0.961 . S
C215 H231 0.961 . S
C216 C217 1.370 . S
C216 C218 1.363 . S
C216 H232 0.931 . S
C217 C216 1.370 . S
C217 C221 1.408 . S
C218 C216 1.363 . S
C218 C219 1.370 . S
C218 C222 1.524 . S
C219 C211 1.503 . S
C219 C218 1.370 . S
C219 C220 1.403 . S
C220 C219 1.403 . S
C220 C221 1.404 . S
C220 C223 1.539 . S
C221 C217 1.408 . S
C221 C220 1.404 . S
C221 H233 0.930 . S
C222 C218 1.524 . S
C222 H234 0.956 . S
C222 H235 0.961 . S
C222 H236 0.961 . S
C223 C220 1.539 . S
C223 H237 0.958 . S
C223 H238 0.961 . S
C223 H239 0.960 . S
H224 C208 0.931 . S
H225 C213 0.929 . S
H226 C214 0.960 . S
H227 C214 0.962 . S
H228 C214 0.960 . S
H229 C215 0.961 . S
H230 C215 0.961 . S
H231 C215 0.961 . S
H232 C216 0.931 . S
H233 C221 0.930 . S
H234 C222 0.956 . S
H235 C222 0.961 . S
H236 C222 0.961 . S
H237 C223 0.958 . S
H238 C223 0.961 . S
H239 C223 0.960 . S
C240 C241 1.391 . S
C240 C242 1.394 . S
C240 H256 0.931 . S
C241 C240 1.391 . S
C241 C245 1.376 1_556 S
C242 C240 1.394 . S
C242 C243 1.369 . S
C242 C246 1.531 . S
C243 C242 1.369 . S
C243 C244 1.410 1_556 S
C243 C251 1.503 . S
C244 C243 1.410 1_554 S
C244 C245 1.392 . S
C244 C247 1.511 . S
C245 C241 1.376 1_554 S
C245 C244 1.392 . S
C245 H257 0.929 . S
C246 C242 1.531 . S
C246 H258 0.960 . S
C246 H259 0.962 . S
C246 H260 0.960 . S
C247 C244 1.511 . S
C247 H261 0.961 . S
C247 H262 0.961 . S
C247 H263 0.961 . S
C248 C249 1.370 . S
C248 C250 1.363 . S
C248 H264 0.931 . S
C249 C248 1.370 . S
C249 C253 1.408 1_554 S
C250 C248 1.363 . S
C250 C251 1.370 1_554 S
C250 C254 1.524 . S
C251 C243 1.503 . S
C251 C250 1.370 1_556 S
C251 C252 1.403 . S
C252 C251 1.403 . S
C252 C253 1.404 . S
C252 C255 1.539 . S
C253 C249 1.408 1_556 S
C253 C252 1.404 . S
C253 H265 0.930 . S
C254 C250 1.524 . S
C254 H266 0.956 . S
C254 H267 0.961 . S
C254 H268 0.961 . S
C255 C252 1.539 . S
C255 H269 0.958 . S
C255 H270 0.961 . S
C255 H271 0.960 . S
H256 C240 0.931 . S
H257 C245 0.929 . S
H258 C246 0.960 . S
H259 C246 0.962 . S
H260 C246 0.960 . S
H261 C247 0.961 . S
H262 C247 0.961 . S
H263 C247 0.961 . S
H264 C248 0.931 . S
H265 C253 0.930 . S
H266 C254 0.956 . S
H267 C254 0.961 . S
H268 C254 0.961 . S
H269 C255 0.958 . S
H270 C255 0.961 . S
H271 C255 0.960 . S
C272 C273 1.391 . S
C272 C274 1.394 . S
C272 H288 0.931 . S
C273 C272 1.391 . S
C273 C277 1.376 . S
C274 C272 1.394 . S
C274 C275 1.369 . S
C274 C278 1.531 . S
C275 C274 1.369 . S
C275 C276 1.410 . S
C275 C283 1.503 . S
C276 C275 1.410 . S
C276 C277 1.392 . S
C276 C279 1.511 . S
C277 C273 1.376 . S
C277 C276 1.392 . S
C277 H289 0.929 . S
C278 C274 1.531 . S
C278 H290 0.960 . S
C278 H291 0.962 . S
C278 H292 0.960 . S
C279 C276 1.511 . S
C279 H293 0.961 . S
C279 H294 0.961 . S
C279 H295 0.961 . S
C280 C281 1.370 . S
C280 C282 1.363 . S
C280 H296 0.931 . S
C281 C280 1.370 . S
C281 C285 1.408 . S
C282 C280 1.363 . S
C282 C283 1.370 . S
C282 C286 1.524 . S
C283 C275 1.503 . S
C283 C282 1.370 . S
C283 C284 1.403 . S
C284 C283 1.403 . S
C284 C285 1.404 . S
C284 C287 1.539 . S
C285 C281 1.408 . S
C285 C284 1.404 . S
C285 H297 0.930 . S
C286 C282 1.524 . S
C286 H298 0.956 . S
C286 H299 0.961 . S
C286 H300 0.961 . S
C287 C284 1.539 . S
C287 H301 0.958 . S
C287 H302 0.961 . S
C287 H303 0.960 . S
H288 C272 0.931 . S
H289 C277 0.929 . S
H290 C278 0.960 . S
H291 C278 0.962 . S
H292 C278 0.960 . S
H293 C279 0.961 . S
H294 C279 0.961 . S
H295 C279 0.961 . S
H296 C280 0.931 . S
H297 C285 0.930 . S
H298 C286 0.956 . S
H299 C286 0.961 . S
H300 C286 0.961 . S
H301 C287 0.958 . S
H302 C287 0.961 . S
H303 C287 0.960 . S
C304 C305 1.391 . S
C304 C306 1.393 1_556 S
C304 H320 0.931 . S
C305 C304 1.391 . S
C305 C309 1.376 1_556 S
C306 C304 1.393 1_554 S
C306 C307 1.369 . S
C306 C310 1.531 1_545 S
C307 C306 1.369 . S
C307 C308 1.410 1_455 S
C307 C315 1.503 1_445 S
C308 C307 1.410 1_655 S
C308 C309 1.392 1_655 S
C308 C311 1.511 . S
C309 C305 1.376 1_554 S
C309 C308 1.392 1_455 S
C309 H321 0.929 . S
C310 C306 1.531 1_565 S
C310 H322 0.960 . S
C310 H323 0.962 1_554 S
C310 H324 0.960 . S
C311 C308 1.511 . S
C311 H325 0.961 1_554 S
C311 H326 0.961 . S
C311 H327 0.961 . S
C312 C313 1.370 1_556 S
C312 C314 1.363 . S
C312 H328 0.931 . S
C313 C312 1.370 1_554 S
C313 C317 1.408 . S
C314 C312 1.363 . S
C314 C315 1.370 1_556 S
C314 C318 1.524 . S
C315 C307 1.503 1_665 S
C315 C314 1.370 1_554 S
C315 C316 1.403 . S
C316 C315 1.403 . S
C316 C317 1.404 . S
C316 C319 1.539 . S
C317 C313 1.408 . S
C317 C316 1.404 . S
C317 H329 0.930 . S
C318 C314 1.524 . S
C318 H330 0.956 1_655 S
C318 H331 0.961 1_565 S
C318 H332 0.961 . S
C319 C316 1.539 . S
C319 H333 0.958 1_655 S
C319 H334 0.961 . S
C319 H335 0.960 1_565 S
H320 C304 0.931 . S
H321 C309 0.929 . S
H322 C310 0.960 . S
H323 C310 0.962 1_556 S
H324 C310 0.960 . S
H325 C311 0.961 1_556 S
H326 C311 0.961 . S
H327 C311 0.961 . S
H328 C312 0.931 . S
H329 C317 0.930 . S
H330 C318 0.956 1_455 S
H331 C318 0.961 1_545 S
H332 C318 0.961 . S
H333 C319 0.958 1_455 S
H334 C319 0.961 . S
H335 C319 0.960 1_545 S
C336 C337 1.391 . S
C336 C338 1.394 1_655 S
C336 H352 0.931 . S
C337 C336 1.391 . S
C337 C341 1.376 . S
C338 C336 1.394 1_455 S
C338 C339 1.369 1_455 S
C338 C342 1.531 . S
C339 C338 1.369 1_655 S
C339 C340 1.410 . S
C339 C347 1.503 1_645 S
C340 C339 1.410 . S
C340 C341 1.392 . S
C340 C343 1.511 1_545 S
C341 C337 1.376 . S
C341 C340 1.392 . S
C341 H353 0.929 . S
C342 C338 1.531 . S
C342 H354 0.960 . S
C342 H355 0.962 . S
C342 H356 0.960 . S
C343 C340 1.511 1_565 S
C343 H357 0.961 . S
C343 H358 0.961 . S
C343 H359 0.961 . S
C344 C345 1.370 . S
C344 C346 1.363 . S
C344 H360 0.931 . S
C345 C344 1.370 . S
C345 C349 1.408 . S
C346 C344 1.363 . S
C346 C347 1.370 . S
C346 C350 1.524 . S
C347 C339 1.503 1_465 S
C347 C346 1.370 . S
C347 C348 1.403 . S
C348 C347 1.403 . S
C348 C349 1.404 . S
C348 C351 1.539 1_455 S
C349 C345 1.408 . S
C349 C348 1.404 . S
C349 H361 0.930 . S
C350 C346 1.524 . S
C350 H362 0.956 1_565 S
C350 H363 0.961 . S
C350 H364 0.961 . S
C351 C348 1.539 1_655 S
C351 H365 0.958 . S
C351 H366 0.961 . S
C351 H367 0.960 . S
H352 C336 0.931 . S
H353 C341 0.929 . S
H354 C342 0.960 . S
H355 C342 0.962 . S
H356 C342 0.960 . S
H357 C343 0.961 . S
H358 C343 0.961 . S
H359 C343 0.961 . S
H360 C344 0.931 . S
H361 C349 0.930 . S
H362 C350 0.956 1_545 S
H363 C350 0.961 . S
H364 C350 0.961 . S
H365 C351 0.958 . S
H366 C351 0.961 . S
H367 C351 0.960 . S
C368 C369 1.391 . S
C368 C370 1.394 . S
C368 H384 0.931 . S
C369 C368 1.391 . S
C369 C373 1.376 . S
C370 C368 1.394 . S
C370 C371 1.369 . S
C370 C374 1.531 . S
C371 C370 1.369 . S
C371 C372 1.410 . S
C371 C379 1.503 . S
C372 C371 1.410 . S
C372 C373 1.392 . S
C372 C375 1.511 . S
C373 C369 1.376 . S
C373 C372 1.392 . S
C373 H385 0.929 . S
C374 C370 1.531 . S
C374 H386 0.960 . S
C374 H387 0.962 . S
C374 H388 0.960 . S
C375 C372 1.511 . S
C375 H389 0.961 . S
C375 H390 0.961 . S
C375 H391 0.961 . S
C376 C377 1.370 . S
C376 C378 1.363 . S
C376 H392 0.931 . S
C377 C376 1.370 . S
C377 C381 1.408 . S
C378 C376 1.363 . S
C378 C379 1.370 . S
C378 C382 1.524 . S
C379 C371 1.503 . S
C379 C378 1.370 . S
C379 C380 1.403 . S
C380 C379 1.403 . S
C380 C381 1.404 . S
C380 C383 1.539 . S
C381 C377 1.408 . S
C381 C380 1.404 . S
C381 H393 0.930 . S
C382 C378 1.524 . S
C382 H394 0.956 . S
C382 H395 0.961 . S
C382 H396 0.961 . S
C383 C380 1.539 . S
C383 H397 0.958 . S
C383 H398 0.961 . S
C383 H399 0.960 . S
H384 C368 0.931 . S
H385 C373 0.929 . S
H386 C374 0.960 . S
H387 C374 0.962 . S
H388 C374 0.960 . S
H389 C375 0.961 . S
H390 C375 0.961 . S
H391 C375 0.961 . S
H392 C376 0.931 . S
H393 C381 0.930 . S
H394 C382 0.956 . S
H395 C382 0.961 . S
H396 C382 0.961 . S
H397 C383 0.958 . S
H398 C383 0.961 . S
H399 C383 0.960 . S
C400 C401 1.391 . S
C400 C402 1.394 . S
C400 H416 0.931 . S
C401 C400 1.391 . S
C401 C405 1.376 . S
C402 C400 1.394 . S
C402 C403 1.369 . S
C402 C406 1.531 . S
C403 C402 1.369 . S
C403 C404 1.410 . S
C403 C411 1.503 . S
C404 C403 1.410 . S
C404 C405 1.392 . S
C404 C407 1.511 . S
C405 C401 1.376 . S
C405 C404 1.392 . S
C405 H417 0.929 . S
C406 C402 1.531 . S
C406 H418 0.960 . S
C406 H419 0.962 . S
C406 H420 0.960 . S
C407 C404 1.511 . S
C407 H421 0.961 . S
C407 H422 0.961 . S
C407 H423 0.961 . S
C408 C409 1.370 . S
C408 C410 1.363 . S
C408 H424 0.931 . S
C409 C408 1.370 . S
C409 C413 1.408 . S
C410 C408 1.363 . S
C410 C411 1.370 . S
C410 C414 1.524 . S
C411 C403 1.503 . S
C411 C410 1.370 . S
C411 C412 1.403 . S
C412 C411 1.403 . S
C412 C413 1.404 . S
C412 C415 1.539 . S
C413 C409 1.408 . S
C413 C412 1.404 . S
C413 H425 0.930 . S
C414 C410 1.524 . S
C414 H426 0.956 . S
C414 H427 0.961 . S
C414 H428 0.961 . S
C415 C412 1.539 . S
C415 H429 0.958 . S
C415 H430 0.961 . S
C415 H431 0.960 . S
H416 C400 0.931 . S
H417 C405 0.929 . S
H418 C406 0.960 . S
H419 C406 0.962 . S
H420 C406 0.960 . S
H421 C407 0.961 . S
H422 C407 0.961 . S
H423 C407 0.961 . S
H424 C408 0.931 . S
H425 C413 0.930 . S
H426 C414 0.956 . S
H427 C414 0.961 . S
H428 C414 0.961 . S
H429 C415 0.958 . S
H430 C415 0.961 . S
H431 C415 0.960 . S
C432 C433 1.391 . S
C432 C434 1.394 . S
C432 H448 0.931 . S
C433 C432 1.391 . S
C433 C437 1.376 . S
C434 C432 1.394 . S
C434 C435 1.369 . S
C434 C438 1.531 . S
C435 C434 1.369 . S
C435 C436 1.410 . S
C435 C443 1.503 . S
C436 C435 1.410 . S
C436 C437 1.392 . S
C436 C439 1.511 . S
C437 C433 1.376 . S
C437 C436 1.392 . S
C437 H449 0.929 . S
C438 C434 1.531 . S
C438 H450 0.960 . S
C438 H451 0.962 . S
C438 H452 0.960 . S
C439 C436 1.511 . S
C439 H453 0.961 . S
C439 H454 0.961 . S
C439 H455 0.961 . S
C440 C441 1.370 . S
C440 C442 1.363 . S
C440 H456 0.931 . S
C441 C440 1.370 . S
C441 C445 1.408 . S
C442 C440 1.363 . S
C442 C443 1.370 . S
C442 C446 1.524 . S
C443 C435 1.503 . S
C443 C442 1.370 . S
C443 C444 1.403 . S
C444 C443 1.403 . S
C444 C445 1.404 . S
C444 C447 1.539 . S
C445 C441 1.408 . S
C445 C444 1.404 . S
C445 H457 0.930 . S
C446 C442 1.524 . S
C446 H458 0.956 . S
C446 H459 0.961 . S
C446 H460 0.961 . S
C447 C444 1.539 . S
C447 H461 0.958 . S
C447 H462 0.961 . S
C447 H463 0.960 . S
H448 C432 0.931 . S
H449 C437 0.929 . S
H450 C438 0.960 . S
H451 C438 0.962 . S
H452 C438 0.960 . S
H453 C439 0.961 . S
H454 C439 0.961 . S
H455 C439 0.961 . S
H456 C440 0.931 . S
H457 C445 0.930 . S
H458 C446 0.956 . S
H459 C446 0.961 . S
H460 C446 0.961 . S
H461 C447 0.958 . S
H462 C447 0.961 . S
H463 C447 0.960 . S
C464 C465 1.391 . S
C464 C466 1.394 . S
C464 H480 0.931 . S
C465 C464 1.391 . S
C465 C469 1.376 . S
C466 C464 1.394 . S
C466 C467 1.369 . S
C466 C470 1.531 . S
C467 C466 1.369 . S
C467 C468 1.410 . S
C467 C475 1.503 . S
C468 C467 1.410 . S
C468 C469 1.392 . S
C468 C471 1.511 . S
C469 C465 1.376 . S
C469 C468 1.392 . S
C469 H481 0.929 . S
C470 C466 1.531 . S
C470 H482 0.960 . S
C470 H483 0.962 . S
C470 H484 0.960 . S
C471 C468 1.511 . S
C471 H485 0.961 . S
C471 H486 0.961 . S
C471 H487 0.961 . S
C472 C473 1.370 . S
C472 C474 1.363 . S
C472 H488 0.931 . S
C473 C472 1.370 . S
C473 C477 1.408 . S
C474 C472 1.363 . S
C474 C475 1.370 . S
C474 C478 1.524 . S
C475 C467 1.503 . S
C475 C474 1.370 . S
C475 C476 1.403 . S
C476 C475 1.403 . S
C476 C477 1.404 . S
C476 C479 1.539 . S
C477 C473 1.408 . S
C477 C476 1.404 . S
C477 H489 0.930 . S
C478 C474 1.524 . S
C478 H490 0.956 . S
C478 H491 0.961 . S
C478 H492 0.961 . S
C479 C476 1.539 . S
C479 H493 0.958 . S
C479 H494 0.961 . S
C479 H495 0.960 . S
H480 C464 0.931 . S
H481 C469 0.929 . S
H482 C470 0.960 . S
H483 C470 0.962 . S
H484 C470 0.960 . S
H485 C471 0.961 . S
H486 C471 0.961 . S
H487 C471 0.961 . S
H488 C472 0.931 . S
H489 C477 0.930 . S
H490 C478 0.956 . S
H491 C478 0.961 . S
H492 C478 0.961 . S
H493 C479 0.958 . S
H494 C479 0.961 . S
H495 C479 0.960 . S
C496 C497 1.391 . S
C496 C498 1.394 1_455 S
C496 H512 0.931 . S
C497 C496 1.391 . S
C497 C501 1.376 1_455 S
C498 C496 1.394 1_655 S
C498 C499 1.369 . S
C498 C502 1.531 . S
C499 C498 1.369 . S
C499 C500 1.410 . S
C499 C507 1.503 . S
C500 C499 1.410 . S
C500 C501 1.392 . S
C500 C503 1.511 . S
C501 C497 1.376 1_655 S
C501 C500 1.392 . S
C501 H513 0.929 . S
C502 C498 1.531 . S
C502 H514 0.960 . S
C502 H515 0.962 1_655 S
C502 H516 0.960 1_655 S
C503 C500 1.511 . S
C503 H517 0.961 . S
C503 H518 0.961 . S
C503 H519 0.961 . S
C504 C505 1.370 . S
C504 C506 1.363 . S
C504 H520 0.931 . S
C505 C504 1.370 . S
C505 C509 1.408 . S
C506 C504 1.363 . S
C506 C507 1.370 . S
C506 C510 1.524 . S
C507 C499 1.503 . S
C507 C506 1.370 . S
C507 C508 1.403 . S
C508 C507 1.403 . S
C508 C509 1.404 . S
C508 C511 1.539 . S
C509 C505 1.408 . S
C509 C508 1.404 . S
C509 H521 0.930 . S
C510 C506 1.524 . S
C510 H522 0.956 . S
C510 H523 0.961 . S
C510 H524 0.961 . S
C511 C508 1.539 . S
C511 H525 0.958 . S
C511 H526 0.961 . S
C511 H527 0.960 . S
H512 C496 0.931 . S
H513 C501 0.929 . S
H514 C502 0.960 . S
H515 C502 0.962 1_455 S
H516 C502 0.960 1_455 S
H517 C503 0.961 . S
H518 C503 0.961 . S
H519 C503 0.961 . S
H520 C504 0.931 . S
H521 C509 0.930 . S
H522 C510 0.956 . S
H523 C510 0.961 . S
H524 C510 0.961 . S
H525 C511 0.958 . S
H526 C511 0.961 . S
H527 C511 0.960 . S
C528 C529 1.391 . S
C528 C530 1.394 . S
C528 H544 0.931 . S
C529 C528 1.391 . S
C529 C533 1.376 . S
C530 C528 1.394 . S
C530 C531 1.369 . S
C530 C534 1.531 . S
C531 C530 1.369 . S
C531 C532 1.410 . S
C531 C539 1.503 . S
C532 C531 1.410 . S
C532 C533 1.392 . S
C532 C535 1.511 . S
C533 C529 1.376 . S
C533 C532 1.392 . S
C533 H545 0.929 . S
C534 C530 1.531 . S
C534 H546 0.960 . S
C534 H547 0.962 . S
C534 H548 0.960 . S
C535 C532 1.511 . S
C535 H549 0.961 . S
C535 H550 0.961 . S
C535 H551 0.961 . S
C536 C537 1.370 1_655 S
C536 C538 1.363 . S
C536 H552 0.931 . S
C537 C536 1.370 1_455 S
C537 C541 1.408 . S
C538 C536 1.363 . S
C538 C539 1.370 . S
C538 C542 1.524 . S
C539 C531 1.503 . S
C539 C538 1.370 . S
C539 C540 1.403 1_655 S
C540 C539 1.403 1_455 S
C540 C541 1.404 . S
C540 C543 1.539 . S
C541 C537 1.408 . S
C541 C540 1.404 . S
C541 H553 0.930 . S
C542 C538 1.524 . S
C542 H554 0.956 . S
C542 H555 0.961 . S
C542 H556 0.961 . S
C543 C540 1.539 . S
C543 H557 0.958 . S
C543 H558 0.961 . S
C543 H559 0.960 1_455 S
H544 C528 0.931 . S
H545 C533 0.929 . S
H546 C534 0.960 . S
H547 C534 0.962 . S
H548 C534 0.960 . S
H549 C535 0.961 . S
H550 C535 0.961 . S
H551 C535 0.961 . S
H552 C536 0.931 . S
H553 C541 0.930 . S
H554 C542 0.956 . S
H555 C542 0.961 . S
H556 C542 0.961 . S
H557 C543 0.958 . S
H558 C543 0.961 . S
H559 C543 0.960 1_655 S
C560 C561 1.391 . S
C560 C562 1.394 . S
C560 H576 0.931 . S
C561 C560 1.391 . S
C561 C565 1.376 . S
C562 C560 1.394 . S
C562 C563 1.369 . S
C562 C566 1.531 . S
C563 C562 1.369 . S
C563 C564 1.410 . S
C563 C571 1.503 . S
C564 C563 1.410 . S
C564 C565 1.392 . S
C564 C567 1.511 . S
C565 C561 1.376 . S
C565 C564 1.392 . S
C565 H577 0.929 . S
C566 C562 1.531 . S
C566 H578 0.960 . S
C566 H579 0.962 . S
C566 H580 0.960 . S
C567 C564 1.511 . S
C567 H581 0.961 . S
C567 H582 0.961 1_455 S
C567 H583 0.961 1_455 S
C568 C569 1.370 . S
C568 C570 1.363 1_655 S
C568 H584 0.931 . S
C569 C568 1.370 . S
C569 C573 1.408 . S
C570 C568 1.363 1_455 S
C570 C571 1.370 . S
C570 C574 1.524 . S
C571 C563 1.503 . S
C571 C570 1.370 . S
C571 C572 1.403 . S
C572 C571 1.403 . S
C572 C573 1.404 1_455 S
C572 C575 1.539 . S
C573 C569 1.408 . S
C573 C572 1.404 1_655 S
C573 H585 0.930 . S
C574 C570 1.524 . S
C574 H586 0.956 . S
C574 H587 0.961 . S
C574 H588 0.961 . S
C575 C572 1.539 . S
C575 H589 0.958 . S
C575 H590 0.961 1_455 S
C575 H591 0.960 . S
H576 C560 0.931 . S
H577 C565 0.929 . S
H578 C566 0.960 . S
H579 C566 0.962 . S
H580 C566 0.960 . S
H581 C567 0.961 . S
H582 C567 0.961 1_655 S
H583 C567 0.961 1_655 S
H584 C568 0.931 . S
H585 C573 0.930 . S
H586 C574 0.956 . S
H587 C574 0.961 . S
H588 C574 0.961 . S
H589 C575 0.958 . S
H590 C575 0.961 1_655 S
H591 C575 0.960 . S
C592 C593 1.391 . S
C592 C594 1.394 . S
C592 H608 0.931 . S
C593 C592 1.391 . S
C593 C597 1.376 . S
C594 C592 1.394 . S
C594 C595 1.369 . S
C594 C598 1.531 . S
C595 C594 1.369 . S
C595 C596 1.410 . S
C595 C603 1.503 . S
C596 C595 1.410 . S
C596 C597 1.392 . S
C596 C599 1.511 . S
C597 C593 1.376 . S
C597 C596 1.392 . S
C597 H609 0.929 . S
C598 C594 1.531 . S
C598 H610 0.960 . S
C598 H611 0.962 . S
C598 H612 0.960 . S
C599 C596 1.511 . S
C599 H613 0.961 . S
C599 H614 0.961 . S
C599 H615 0.961 . S
C600 C601 1.370 . S
C600 C602 1.371 . S
C600 H616 0.931 . S
C601 C600 1.370 . S
C601 C605 1.408 1_655 S
C602 C600 1.371 . S
C602 C603 1.362 1_655 S
C602 C606 1.525 . S
C603 C595 1.503 . S
C603 C602 1.362 1_455 S
C603 C604 1.403 . S
C604 C603 1.403 . S
C604 C605 1.404 . S
C604 C607 1.539 . S
C605 C601 1.408 1_455 S
C605 C604 1.404 . S
C605 H617 0.930 . S
C606 C602 1.525 . S
C606 H618 0.956 . S
C606 H619 0.961 1_655 S
C606 H620 0.961 . S
C607 C604 1.539 . S
C607 H621 0.958 . S
C607 H622 0.961 . S
C607 H623 0.960 . S
H608 C592 0.931 . S
H609 C597 0.929 . S
H610 C598 0.960 . S
H611 C598 0.962 . S
H612 C598 0.960 . S
H613 C599 0.961 . S
H614 C599 0.961 . S
H615 C599 0.961 . S
H616 C600 0.931 . S
H617 C605 0.930 . S
H618 C606 0.956 . S
H619 C606 0.961 1_455 S
H620 C606 0.961 . S
H621 C607 0.958 . S
H622 C607 0.961 . S
H623 C607 0.960 . S
C113 C24 2.291 . S
C121 C14 2.328 . S
C145 C52 2.338 . S
C153 C42 2.307 . S
C177 C80 2.311 . S
C185 C70 2.317 . S
C209 C108 2.329 . S
C217 C98 2.310 . S
C241 C50 1.523 1_556 S
C249 C12 1.487 1_554 S
C273 C106 1.482 . S
C281 C68 1.499 . S
C305 C22 1.449 1_556 S
C313 C40 1.514 1_554 S
C337 C96 1.446 . S
C345 C78 1.516 . S
C369 C110 1.481 . S
C377 C18 2.092 . S
C401 C54 1.580 . S
C409 C74 2.088 . S
C433 C61 1.466 . S
C441 C30 2.097 . S
C465 C5 1.567 . S
C473 C86 2.092 . S
C497 C82 1.530 . S
C505 C46 2.091 . S
C529 C102 2.086 . S
C537 C26 1.521 . S
C561 C2 2.090 . S
C569 C89 1.518 . S
C593 C58 2.089 . S
C601 C33 1.525 . S
