# Generated by pormake.
# Topology dia, (4)-cn, num edge types: 1
# Building blocks:
#     Node 0, Type 0, BuildingBlock: QUQFOY_clean_sbu_1, # of connection points: 4
#     Node 1, Type 0, BuildingBlock: QUQFOY_clean_sbu_1, # of connection points: 4
#     Node 2, Type 0, BuildingBlock: QUQFOY_clean_sbu_1, # of connection points: 4
#     Node 3, Type 0, BuildingBlock: QUQFOY_clean_sbu_1, # of connection points: 4
#     Node 4, Type 0, BuildingBlock: QUQFOY_clean_sbu_1, # of connection points: 4
#     Node 5, Type 0, BuildingBlock: QUQFOY_clean_sbu_1, # of connection points: 4
#     Node 6, Type 0, BuildingBlock: QUQFOY_clean_sbu_1, # of connection points: 4
#     Node 7, Type 0, BuildingBlock: QUQFOY_clean_sbu_1, # of connection points: 4
#     Edge 8, Type (0, 0), BuildingBlock: TEMPAE_clean_linker_10, # of connection points: 2
#     Edge 9, Type (0, 0), BuildingBlock: TEMPAE_clean_linker_10, # of connection points: 2
#     Edge 10, Type (0, 0), BuildingBlock: TEMPAE_clean_linker_10, # of connection points: 2
#     Edge 11, Type (0, 0), BuildingBlock: TEMPAE_clean_linker_10, # of connection points: 2
#     Edge 12, Type (0, 0), BuildingBlock: TEMPAE_clean_linker_10, # of connection points: 2
#     Edge 13, Type (0, 0), BuildingBlock: TEMPAE_clean_linker_10, # of connection points: 2
#     Edge 14, Type (0, 0), BuildingBlock: TEMPAE_clean_linker_10, # of connection points: 2
#     Edge 15, Type (0, 0), BuildingBlock: TEMPAE_clean_linker_10, # of connection points: 2
#     Edge 16, Type (0, 0), BuildingBlock: TEMPAE_clean_linker_10, # of connection points: 2
#     Edge 17, Type (0, 0), BuildingBlock: TEMPAE_clean_linker_10, # of connection points: 2
#     Edge 18, Type (0, 0), BuildingBlock: TEMPAE_clean_linker_10, # of connection points: 2
#     Edge 19, Type (0, 0), BuildingBlock: TEMPAE_clean_linker_10, # of connection points: 2
#     Edge 20, Type (0, 0), BuildingBlock: TEMPAE_clean_linker_10, # of connection points: 2
#     Edge 21, Type (0, 0), BuildingBlock: TEMPAE_clean_linker_10, # of connection points: 2
#     Edge 22, Type (0, 0), BuildingBlock: TEMPAE_clean_linker_10, # of connection points: 2
#     Edge 23, Type (0, 0), BuildingBlock: TEMPAE_clean_linker_10, # of connection points: 2
# Relax obj value: 0.200
# Max RMSD: 0.231
# Mean RMSD: 0.231
data_MOF--net-dia--node1-QUQFOY_clean_sbu_1--edge1-TEMPAE_clean_linker_10
_symmetry_space_group_name_H-M    P1
_symmetry_Int_Tables_number       1
_symmetry_cell_setting            triclinic
loop_
_symmetry_equiv_pos_as_xyz
'x, y, z'
_cell_length_a     34.534965
_cell_length_b     34.51729
_cell_length_c     40.75139
_cell_angle_alpha  90.036682
_cell_angle_beta   89.985014
_cell_angle_gamma 103.09691
loop_
_atom_site_label
_atom_site_type_symbol
_atom_site_fract_x
_atom_site_fract_y
_atom_site_fract_z
_atom_type_partial_charge
O0 O 0.12608 0.15392 0.58894 0.0
Cd1 Cd 0.09223 0.11756 0.62335 0.0
Cd2 Cd 0.15843 0.08897 0.62588 0.0
O3 O 0.18387 0.14089 0.60202 0.0
O4 O 0.04762 0.14291 0.63496 0.0
O5 O 0.09419 0.1358 0.67037 0.0
C6 C 0.06259 0.14856 0.66401 0.0
C7 C 0.19442 0.06345 0.66559 0.0
C8 C 0.16361 0.16058 0.58561 0.0
C9 C 0.08532 0.03941 0.5931 0.0
O10 O 0.12275 0.04663 0.59688 0.0
O11 O 0.0653 0.06199 0.60615 0.0
O12 O 0.20289 0.06258 0.63489 0.0
O13 O 0.16616 0.08026 0.67417 0.0
O14 O 0.8091 0.31743 0.88293 0.0
Cd15 Cd 0.83656 0.36963 0.86013 0.0
Cd16 Cd 0.90188 0.33818 0.86027 0.0
O17 O 0.86584 0.30064 0.89262 0.0
O18 O 0.79211 0.39532 0.84872 0.0
O19 O 0.83457 0.38231 0.81194 0.0
C20 C 0.80439 0.39716 0.81879 0.0
C21 C 0.9353 0.30715 0.82203 0.0
C22 C 0.82875 0.29567 0.89759 0.0
C23 C 0.91047 0.41499 0.89422 0.0
O24 O 0.92949 0.39196 0.8804 0.0
O25 O 0.87309 0.40965 0.8905 0.0
O26 O 0.94458 0.30881 0.85267 0.0
O27 O 0.90763 0.3243 0.81262 0.0
O28 O 0.67178 0.18494 0.11379 0.0
Cd29 Cd 0.61933 0.15951 0.13724 0.0
Cd30 Cd 0.64709 0.09212 0.1361 0.0
O31 O 0.68523 0.12679 0.10341 0.0
O32 O 0.59616 0.20538 0.1496 0.0
O33 O 0.60754 0.16125 0.18558 0.0
C34 C 0.59397 0.1924 0.17933 0.0
C35 C 0.67756 0.05761 0.17386 0.0
C36 C 0.69198 0.16405 0.09865 0.0
C37 C 0.57006 0.08733 0.10335 0.0
O38 O 0.59223 0.06689 0.11655 0.0
O39 O 0.57731 0.1248 0.10736 0.0
O40 O 0.67454 0.04786 0.14332 0.0
O41 O 0.6618 0.0862 0.18353 0.0
O42 O 0.83161 0.86464 0.40339 0.0
Cd43 Cd 0.86832 0.89714 0.36855 0.0
Cd44 Cd 0.89074 0.83036 0.36394 0.0
O45 O 0.83616 0.80619 0.38427 0.0
O46 O 0.84579 0.94371 0.35711 0.0
O47 O 0.84905 0.89551 0.32194 0.0
C48 C 0.83835 0.92826 0.32833 0.0
C49 C 0.91542 0.80091 0.31967 0.0
C50 C 0.82056 0.82695 0.40382 0.0
C51 C 0.94346 0.89689 0.40032 0.0
O52 O 0.93226 0.85941 0.39713 0.0
O53 O 0.92524 0.91955 0.38512 0.0
O54 O 0.91097 0.78413 0.34808 0.0
O55 O 0.90463 0.83413 0.31598 0.0
O56 O 0.15246 0.67816 0.09452 0.0
Cd57 Cd 0.10006 0.64742 0.11487 0.0
Cd58 Cd 0.13713 0.58437 0.11684 0.0
O59 O 0.17754 0.62505 0.09001 0.0
O60 O 0.06758 0.68729 0.12312 0.0
O61 O 0.08732 0.65238 0.16274 0.0
C62 C 0.06781 0.67841 0.15379 0.0
C63 C 0.16532 0.5505 0.15644 0.0
C64 C 0.17945 0.66157 0.08425 0.0
C65 C 0.06281 0.57164 0.07822 0.0
O66 O 0.08791 0.55469 0.09144 0.0
O67 O 0.06384 0.60804 0.08388 0.0
O68 O 0.16884 0.54401 0.12561 0.0
O69 O 0.14451 0.5755 0.16516 0.0
O70 O 0.30712 0.35385 0.39309 0.0
Cd71 Cd 0.34276 0.39817 0.36661 0.0
Cd72 Cd 0.39586 0.34875 0.37189 0.0
O73 O 0.34814 0.31321 0.39621 0.0
O74 O 0.30759 0.43418 0.35421 0.0
O75 O 0.33566 0.40179 0.31764 0.0
C76 C 0.31305 0.42594 0.32402 0.0
C77 C 0.43244 0.31876 0.33537 0.0
C78 C 0.31508 0.3217 0.40309 0.0
C79 C 0.41693 0.4285 0.40546 0.0
O80 O 0.42752 0.39662 0.39832 0.0
O81 O 0.3847 0.43518 0.39451 0.0
O82 O 0.43571 0.31541 0.36665 0.0
O83 O 0.40774 0.33877 0.32451 0.0
O84 O 0.33027 0.83824 0.89332 0.0
Cd85 Cd 0.3553 0.89401 0.87561 0.0
Cd86 Cd 0.42135 0.86891 0.87896 0.0
O87 O 0.38765 0.82856 0.91067 0.0
O88 O 0.30926 0.91537 0.86108 0.0
O89 O 0.35887 0.91012 0.82811 0.0
C90 C 0.32572 0.92078 0.83257 0.0
C91 C 0.45329 0.84232 0.83727 0.0
C92 C 0.34993 0.81886 0.91063 0.0
C93 C 0.4223 0.94329 0.91372 0.0
O94 O 0.44428 0.9241 0.89874 0.0
O95 O 0.38484 0.93384 0.90987 0.0
O96 O 0.46757 0.8465 0.86663 0.0
O97 O 0.42134 0.85462 0.83123 0.0
O98 O 0.64725 0.68416 0.60697 0.0
Cd99 Cd 0.60087 0.65097 0.63292 0.0
Cd100 Cd 0.64762 0.59474 0.62605 0.0
O101 O 0.68332 0.63971 0.59894 0.0
O102 O 0.57084 0.69262 0.64246 0.0
O103 O 0.5919 0.65806 0.68145 0.0
C104 C 0.57396 0.68557 0.67319 0.0
C105 C 0.67775 0.55827 0.66252 0.0
C106 C 0.67692 0.6741 0.59403 0.0
C107 C 0.5664 0.57721 0.59464 0.0
O108 O 0.59693 0.56447 0.60236 0.0
O109 O 0.56224 0.61097 0.60441 0.0
O110 O 0.67868 0.55291 0.63128 0.0
O111 O 0.66002 0.58492 0.67331 0.0
C112 C 0.26422 0.31471 0.44711 0.0
C113 C 0.28792 0.29689 0.42668 0.0
C114 C 0.24235 0.29349 0.47287 0.0
C115 C 0.24334 0.25317 0.4777 0.0
C116 C 0.26564 0.23443 0.45615 0.0
C117 C 0.28823 0.25675 0.43114 0.0
C118 C 0.2197 0.31474 0.49582 0.0
C119 C 0.26636 0.1911 0.46001 0.0
C120 C 0.22307 0.20712 0.56218 0.0
C121 C 0.18307 0.18739 0.55943 0.0
C122 C 0.2428 0.22958 0.53598 0.0
C123 C 0.22227 0.23109 0.50608 0.0
C124 C 0.18178 0.2114 0.50329 0.0
C125 C 0.16247 0.19025 0.53022 0.0
C126 C 0.28568 0.25128 0.54016 0.0
C127 C 0.15926 0.21153 0.47153 0.0
H128 H 0.26428 0.34591 0.444 0.0
H129 H 0.30647 0.24293 0.41531 0.0
H130 H 0.18806 0.29868 0.49717 0.0
H131 H 0.23217 0.31518 0.52095 0.0
H132 H 0.22107 0.34587 0.48807 0.0
H133 H 0.2823 0.18018 0.43954 0.0
H134 H 0.28125 0.1867 0.48338 0.0
H135 H 0.23558 0.17263 0.46118 0.0
H136 H 0.23895 0.20487 0.5848 0.0
H137 H 0.13166 0.17444 0.5279 0.0
H138 H 0.28928 0.28318 0.53389 0.0
H139 H 0.30477 0.23882 0.52311 0.0
H140 H 0.29654 0.24905 0.56559 0.0
H141 H 0.15977 0.24249 0.46396 0.0
H142 H 0.1278 0.19487 0.4735 0.0
H143 H 0.17389 0.19794 0.45175 0.0
C144 C 0.71112 0.54898 0.71553 0.0
C145 C 0.6961 0.534 0.68501 0.0
C146 C 0.72956 0.52632 0.73654 0.0
C147 C 0.73181 0.48732 0.7272 0.0
C148 C 0.71602 0.47186 0.69661 0.0
C149 C 0.69893 0.49563 0.67567 0.0
C150 C 0.74695 0.54425 0.76858 0.0
C151 C 0.71667 0.43001 0.68619 0.0
C152 C 0.80789 0.43898 0.76838 0.0
C153 C 0.78534 0.41755 0.79375 0.0
C154 C 0.79092 0.46199 0.74657 0.0
C155 C 0.75014 0.46247 0.74964 0.0
C156 C 0.72693 0.43958 0.77448 0.0
C157 C 0.74499 0.41794 0.79658 0.0
C158 C 0.81688 0.48677 0.72094 0.0
C159 C 0.6831 0.43821 0.77791 0.0
H160 H 0.70922 0.57876 0.72267 0.0
H161 H 0.68703 0.48385 0.65217 0.0
H162 H 0.73161 0.52656 0.78944 0.0
H163 H 0.77883 0.54336 0.77004 0.0
H164 H 0.74434 0.57555 0.77155 0.0
H165 H 0.70226 0.42215 0.66197 0.0
H166 H 0.74777 0.42653 0.68476 0.0
H167 H 0.70113 0.40848 0.70473 0.0
H168 H 0.83922 0.43906 0.76642 0.0
H169 H 0.72748 0.40122 0.81613 0.0
H170 H 0.81704 0.51867 0.72466 0.0
H171 H 0.80475 0.4785 0.69608 0.0
H172 H 0.84802 0.48315 0.72181 0.0
H173 H 0.67872 0.46816 0.78429 0.0
H174 H 0.66876 0.41692 0.79713 0.0
H175 H 0.66772 0.42952 0.75422 0.0
C176 C 0.52905 0.02704 0.0759 0.0
C177 C 0.53958 0.06851 0.07922 0.0
C178 C 0.50579 0.00923 0.04939 0.0
C179 C 0.4933 0.03354 0.02547 0.0
C180 C 0.50187 0.07527 0.02969 0.0
C181 C 0.52467 0.09226 0.05668 0.0
C182 C 0.49645 0.9645 0.04605 0.0
C183 C 0.48925 0.10215 0.0046 0.0
C184 C 0.48099 0.98697 0.94093 0.0
C185 C 0.43976 0.9722 0.9394 0.0
C186 C 0.49861 0.00878 0.9682 0.0
C187 C 0.47441 0.0154 0.99474 0.0
C188 C 0.43261 0.00234 0.99262 0.0
C189 C 0.41573 0.98113 0.96481 0.0
C190 C 0.54329 0.02306 0.96928 0.0
C191 C 0.40591 0.00864 0.02052 0.0
H192 H 0.54019 0.00851 0.09336 0.0
H193 H 0.53268 0.12437 0.05901 0.0
H194 H 0.46428 0.95294 0.0412 0.0
H195 H 0.51296 0.95606 0.02485 0.0
H196 H 0.50469 0.94974 0.06836 0.0
H197 H 0.49422 0.13339 0.01334 0.0
H198 H 0.5065 0.10173 0.98168 0.0
H199 H 0.45736 0.09141 -0.00165 0.0
H200 H 0.49966 0.98038 0.92126 0.0
H201 H 0.38382 0.96963 0.96387 0.0
H202 H 0.55561 0.00664 0.98859 0.0
H203 H 0.55162 0.05511 0.97573 0.0
H204 H 0.55745 0.01864 0.94551 0.0
H205 H 0.41057 0.99013 0.04177 0.0
H206 H 0.37396 0.00049 0.01363 0.0
H207 H 0.41339 0.0401 0.0287 0.0
C208 C 0.92905 0.74204 0.29052 0.0
C209 C 0.93456 0.7834 0.29291 0.0
C210 C 0.94959 0.72485 0.26695 0.0
C211 C 0.97741 0.74973 0.24616 0.0
C212 C 0.98292 0.79159 0.24839 0.0
C213 C 0.96085 0.80794 0.27142 0.0
C214 C 0.94181 0.68008 0.26454 0.0
C215 C 0.01309 0.81911 0.22729 0.0
C216 C 0.05814 0.70371 0.21001 0.0
C217 C 0.04517 0.69679 0.17755 0.0
C218 C 0.03686 0.72184 0.23244 0.0
C219 C 0.00107 0.73188 0.22238 0.0
C220 C 0.98757 0.72428 0.18971 0.0
C221 C 0.01017 0.70746 0.16754 0.0
C222 C 0.0528 0.73053 0.26681 0.0
C223 C 0.94892 0.73328 0.17833 0.0
H224 H 0.90859 0.7231 0.30713 0.0
H225 H 0.96547 0.83997 0.27361 0.0
H226 H 0.93423 0.67042 0.2389 0.0
H227 H 0.96902 0.66995 0.27126 0.0
H228 H 0.91721 0.66506 0.28087 0.0
H229 H 0.0138 0.85095 0.23208 0.0
H230 H 0.04314 0.81385 0.23196 0.0
H231 H 0.0064 0.81286 0.20095 0.0
H232 H 0.08536 0.69569 0.21766 0.0
H233 H 0.99992 0.70175 0.14248 0.0
H234 H 0.03153 0.71348 0.28483 0.0
H235 H 0.05606 0.76257 0.27248 0.0
H236 H 0.08206 0.7228 0.27023 0.0
H237 H 0.92409 0.71712 0.1939 0.0
H238 H 0.94217 0.72469 0.15232 0.0
H239 H 0.95006 0.76549 0.181 0.0
C240 C 0.26609 0.93336 0.80411 0.0
C241 C 0.30754 0.94012 0.8064 0.0
C242 C 0.2481 0.95322 0.78062 0.0
C243 C 0.27222 0.98163 0.75981 0.0
C244 C 0.31418 0.98868 0.76215 0.0
C245 C 0.33137 0.96724 0.78508 0.0
C246 C 0.20331 0.94378 0.77807 0.0
C247 C 0.34084 0.01956 0.74104 0.0
C248 C 0.22821 0.00959 0.68039 0.0
C249 C 0.21521 0.04363 0.68971 0.0
C250 C 0.24661 0.98901 0.70302 0.0
C251 C 0.25342 0.00366 0.73543 0.0
C252 C 0.24126 0.03867 0.74475 0.0
C253 C 0.22155 0.05786 0.72188 0.0
C254 C 0.25783 0.95105 0.69244 0.0
C255 C 0.24911 0.05585 0.77882 0.0
H256 H 0.24771 0.91224 0.82059 0.0
H257 H 0.36345 0.9728 0.7872 0.0
H258 H 0.19203 0.97058 0.78403 0.0
H259 H 0.19403 0.93504 0.75254 0.0
H260 H 0.18898 0.91938 0.79486 0.0
H261 H 0.37285 0.02206 0.7464 0.0
H262 H 0.33549 0.01209 0.71472 0.0
H263 H 0.33381 0.04902 0.74507 0.0
H264 H 0.2229 -0.00167 0.65556 0.0
H265 H 0.21168 0.08433 0.72898 0.0
H266 H 0.24243 0.92603 0.70817 0.0
H267 H 0.29023 0.95381 0.69559 0.0
H268 H 0.24998 0.94342 0.66642 0.0
H269 H 0.23254 0.03467 0.79714 0.0
H270 H 0.24015 0.08464 0.78148 0.0
H271 H 0.28119 0.06048 0.78476 0.0
C272 C 0.97231 0.457 0.91854 0.0
C273 C 0.93081 0.44426 0.91859 0.0
C274 C 0.99217 0.48022 0.94432 0.0
C275 C 0.96998 0.49004 0.97105 0.0
C276 C 0.92801 0.47839 0.9707 0.0
C277 C 0.90888 0.45601 0.94425 0.0
C278 C 0.03697 0.49309 0.94349 0.0
C279 C 0.90341 0.48776 -0.00097 0.0
C280 C 0.02623 0.5088 0.05149 0.0
C281 C 0.03532 0.55042 0.05302 0.0
C282 C 0.00369 0.48869 0.02546 0.0
C283 C 0.99086 0.51085 7e-05 0.0
C284 C 0.99917 0.55282 0.00189 0.0
C285 C 0.02094 0.5721 0.02857 0.0
C286 C 0.99445 0.44379 0.02473 0.0
C287 C 0.98657 0.57743 0.97499 0.0
H288 H 0.98932 0.4481 0.89868 0.0
H289 H 0.87678 0.44593 0.94459 0.0
H290 H 0.04659 0.52558 0.9479 0.0
H291 H 0.04979 0.47795 0.96335 0.0
H292 H 0.04948 0.48602 0.91968 0.0
H293 H 0.87099 0.47858 0.99407 0.0
H294 H 0.9101 0.47212 0.02138 0.0
H295 H 0.91112 0.52007 0.00448 0.0
H296 H 0.03716 0.49198 0.07042 0.0
H297 H 0.02821 0.60433 0.02946 0.0
H298 H 0.00969 0.43353 0.00356 0.0
H299 H 0.96205 0.43185 0.02141 0.0
H300 H 0.00404 0.43101 0.04752 0.0
H301 H 0.00169 0.57287 0.95175 0.0
H302 H 0.99384 0.60971 0.98085 0.0
H303 H 0.95411 0.56777 0.97061 0.0
C304 C 0.44316 0.28756 0.28166 0.0
C305 C 0.457 0.30065 0.31296 0.0
C306 C 0.46604 0.26925 0.26073 0.0
C307 C 0.50417 0.26524 0.27099 0.0
C308 C 0.51853 0.27917 0.30236 0.0
C309 C 0.49448 0.2961 0.32317 0.0
C310 C 0.44925 0.25381 0.22781 0.0
C311 C 0.55948 0.27664 0.31379 0.0
C312 C 0.5511 0.18854 0.22909 0.0
C313 C 0.5741 0.2115 0.20471 0.0
C314 C 0.52807 0.2056 0.25083 0.0
C315 C 0.5292 0.24683 0.24875 0.0
C316 C 0.55378 0.27041 0.22502 0.0
C317 C 0.57538 0.25231 0.2029 0.0
C318 C 0.50147 0.17928 0.27521 0.0
C319 C 0.55689 0.31468 0.22273 0.0
H320 H 0.41406 0.29081 0.27385 0.0
H321 H 0.50538 0.30654 0.34729 0.0
H322 H 0.46831 0.26957 0.20783 0.0
H323 H 0.44909 0.22173 0.22554 0.0
H324 H 0.41849 0.25771 0.22411 0.0
H325 H 0.56665 0.28992 0.33851 0.0
H326 H 0.56182 0.24514 0.31459 0.0
H327 H 0.58219 0.29228 0.29615 0.0
H328 H 0.5497 0.15687 0.2302 0.0
H329 H 0.59329 0.27009 0.18408 0.0
H330 H 0.47003 0.18031 0.27065 0.0
H331 H 0.50885 0.19024 0.30054 0.0
H332 H 0.5041 0.14783 0.27375 0.0
H333 H 0.52775 0.32047 0.21555 0.0
H334 H 0.57953 0.32917 0.20453 0.0
H335 H 0.56474 0.32882 0.24702 0.0
C336 C 0.77328 0.76817 0.42777 0.0
C337 C 0.79562 0.80724 0.43103 0.0
C338 C 0.75367 0.7476 0.45491 0.0
C339 C 0.75771 0.7662 0.48612 0.0
C340 C 0.77993 0.80579 0.48944 0.0
C341 C 0.79811 0.82606 0.46172 0.0
C342 C 0.72908 0.70583 0.4503 0.0
C343 C 0.78566 0.82626 0.52244 0.0
C344 C 0.68148 0.72652 0.55164 0.0
C345 C 0.6999 0.70046 0.56893 0.0
C346 C 0.69999 0.74805 0.52464 0.0
C347 C 0.73838 0.74436 0.51529 0.0
C348 C 0.75792 0.71941 0.53345 0.0
C349 C 0.73813 0.69717 0.55982 0.0
C350 C 0.6778 0.77355 0.5054 0.0
C351 C 0.79943 0.71577 0.52471 0.0
H352 H 0.77147 0.7536 0.40406 0.0
H353 H 0.81597 0.85606 0.46445 0.0
H354 H 0.74226 0.68461 0.46449 0.0
H355 H 0.69855 0.7036 0.45982 0.0
H356 H 0.72711 0.69654 0.42413 0.0
H357 H 0.80406 0.85709 0.52082 0.0
H358 H 0.75646 0.82736 0.53326 0.0
H359 H 0.80028 0.80906 0.53958 0.0
H360 H 0.65165 0.72875 0.55824 0.0
H361 H 0.75239 0.67704 0.57313 0.0
H362 H 0.67369 0.76273 0.4797 0.0
H363 H 0.69525 0.80474 0.50453 0.0
H364 H 0.64812 0.77329 0.51605 0.0
H365 H 0.79937 0.7021 0.50007 0.0
H366 H 0.81149 0.69735 0.54267 0.0
H367 H 0.81971 0.74569 0.52356 0.0
C368 C 0.22455 0.52601 0.17324 0.0
C369 C 0.18645 0.53126 0.18064 0.0
C370 C 0.246 0.50879 0.19602 0.0
C371 C 0.22822 0.49506 0.22639 0.0
C372 C 0.18927 0.49942 0.23365 0.0
C373 C 0.16912 0.51829 0.21089 0.0
C374 C 0.28801 0.50617 0.18788 0.0
C375 C 0.16885 0.48396 0.26533 0.0
C376 C 0.27298 0.42006 0.27267 0.0
C377 C 0.29342 0.4437 0.29787 0.0
C378 C 0.25097 0.43621 0.24949 0.0
C379 C 0.2509 0.47723 0.25093 0.0
C380 C 0.27276 0.50142 0.27577 0.0
C381 C 0.29305 0.48412 0.2994 0.0
C382 C 0.22696 0.40924 0.22404 0.0
C383 C 0.27479 0.54555 0.27737 0.0
H384 H 0.23806 0.53645 0.1499 0.0
H385 H 0.13952 0.52216 0.21643 0.0
H386 H 0.30876 0.52216 0.20679 0.0
H387 H 0.29048 0.4747 0.18813 0.0
H388 H 0.29776 0.51908 0.16347 0.0
H389 H 0.13761 0.48727 0.26624 0.0
H390 H 0.16901 0.45205 0.26842 0.0
H391 H 0.1852 0.5002 0.28644 0.0
H392 H 0.27294 0.38865 0.2719 0.0
H393 H 0.30904 0.50229 0.31895 0.0
H394 H 0.23706 0.41952 0.19905 0.0
H395 H 0.19518 0.41041 0.22599 0.0
H396 H 0.22934 0.37785 0.22681 0.0
H397 H 0.28519 0.55967 0.25353 0.0
H398 H 0.29509 0.5605 0.29702 0.0
H399 H 0.24476 0.55083 0.28198 0.0
C400 C 0.83427 0.2587 0.94924 0.0
C401 C 0.81016 0.26945 0.92468 0.0
C402 C 0.81773 0.24012 0.97818 0.0
C403 C 0.77601 0.23125 0.98236 0.0
C404 C 0.75135 0.23993 0.9569 0.0
C405 C 0.76876 0.25935 0.92847 0.0
C406 C 0.84501 0.23183 0.00495 0.0
C407 C 0.70664 0.2299 0.96016 0.0
C408 C 0.72858 0.15674 0.04713 0.0
C409 C 0.71861 0.18164 0.07146 0.0
C410 C 0.74783 0.17249 0.01821 0.0
C411 C 0.75817 0.21417 0.01381 0.0
C412 C 0.75022 0.23957 0.03903 0.0
C413 C 0.73014 0.22298 0.06746 0.0
C414 C 0.75533 0.14445 0.99171 0.0
C415 C 0.76178 0.28426 0.03552 0.0
H416 H 0.86634 0.2667 0.94668 0.0
H417 H 0.75 0.26749 0.90957 0.0
H418 H 0.84223 0.25014 0.02684 0.0
H419 H 0.83637 0.20021 0.01258 0.0
H420 H 0.87665 0.23859 -0.00285 0.0
H421 H 0.69165 0.23574 0.93717 0.0
H422 H 0.69585 0.19812 0.96684 0.0
H423 H 0.69767 0.24786 0.98016 0.0
H424 H 0.71954 0.12473 0.04986 0.0
H425 H 0.72262 0.24236 0.08618 0.0
H426 H 0.78706 0.15192 0.9843 0.0
H427 H 0.73755 0.14774 0.96963 0.0
H428 H 0.74737 0.11285 -0.00034 0.0
H429 H 0.79372 0.29394 0.02903 0.0
H430 H 0.75629 0.29979 0.05835 0.0
H431 H 0.74451 0.29374 0.0153 0.0
C432 C 0.82228 0.98827 0.30272 0.0
C433 C 0.81642 0.94681 0.30413 0.0
C434 C 0.80013 0.00638 0.28107 0.0
C435 C 0.77031 0.98234 0.26135 0.0
C436 C 0.76411 0.94036 0.26291 0.0
C437 C 0.78781 0.9231 0.28386 0.0
C438 C 0.80873 0.05121 0.27923 0.0
C439 C 0.73182 0.91369 0.24306 0.0
C440 C 0.68943 0.03137 0.22935 0.0
C441 C 0.70048 0.0379 0.19641 0.0
C442 C 0.71132 0.01236 0.25062 0.0
C443 C 0.74589 0.00116 0.2389 0.0
C444 C 0.75746 0.00841 0.20574 0.0
C445 C 0.73418 0.026 0.18476 0.0
C446 C 0.69729 0.00396 0.28553 0.0
C447 C 0.79486 -0.00168 0.19255 0.0
H448 H 0.84451 0.00658 0.31837 0.0
H449 H 0.78292 0.891 0.28531 0.0
H450 H 0.81524 0.0611 0.2535 0.0
H451 H 0.78226 0.06192 0.28715 0.0
H452 H 0.83433 0.06554 0.29488 0.0
H453 H 0.73003 0.88165 0.24783 0.0
H454 H 0.70262 0.92036 0.24894 0.0
H455 H 0.73718 0.91942 0.21649 0.0
H456 H 0.66324 0.04041 0.23828 0.0
H457 H 0.74299 0.03147 0.15933 0.0
H458 H 0.71991 0.02048 0.30281 0.0
H459 H 0.6935 0.97181 0.29096 0.0
H460 H 0.66867 0.01254 0.29028 0.0
H461 H 0.82087 0.01366 0.20729 0.0
H462 H 0.80034 0.00703 0.16643 0.0
H463 H 0.79288 0.96591 0.19472 0.0
C464 C 0.98013 0.88888 0.45166 0.0
C465 C 0.97235 0.91357 0.42628 0.0
C466 C 1.00066 0.90499 0.47999 0.0
C467 C 0.01431 0.94669 0.48269 0.0
C468 C 0.00896 0.97154 0.45622 0.0
C469 C 0.98774 0.95469 0.4284 0.0
C470 C 0.00552 0.87759 0.5078 0.0
C471 C 0.02397 0.01613 0.45793 0.0
C472 C 0.02502 -0.00026 0.56469 0.0
C473 C 0.0664 0.0092 0.56876 0.0
C474 C 0.00746 0.97738 0.53762 0.0
C475 C 0.03195 0.96476 0.51388 0.0
C476 C 0.07348 0.97214 0.51887 0.0
C477 C 0.09018 -0.00601 0.54642 0.0
C478 C 0.96289 0.96917 0.5335 0.0
C479 C 0.10056 0.95935 0.49402 0.0
H480 H 0.96815 0.85706 0.45032 0.0
H481 H 0.98199 0.97388 0.40882 0.0
H482 H 0.03671 0.88429 0.5166 0.0
H483 H 0.98659 0.88235 0.52875 0.0
H484 H 0.99694 0.84576 0.50055 0.0
H485 H 0.02056 0.03083 0.4342 0.0
H486 H 0.00727 0.02849 0.47703 0.0
H487 H 0.05581 0.02377 0.46503 0.0
H488 H 0.00645 0.01114 0.58196 0.0
H489 H 0.12222 0.00115 0.5493 0.0
H490 H 0.95076 0.93722 0.52805 0.0
H491 H 0.95548 0.98648 0.51241 0.0
H492 H 0.94783 0.97731 0.55571 0.0
H493 H 0.08936 0.92766 0.48729 0.0
H494 H 0.13151 0.96351 0.50323 0.0
H495 H 0.10108 0.97713 0.47128 0.0
C496 C 0.96588 0.2501 0.80986 0.0
C497 C 0.95473 0.28453 0.799 0.0
C498 C 0.9834 0.22726 0.7884 0.0
C499 C 0.99134 0.24001 0.75558 0.0
C500 C 0.98093 0.27532 0.74468 0.0
C501 C 0.96199 0.29677 0.76639 0.0
C502 C 0.99266 0.18908 0.80069 0.0
C503 C 0.99007 0.29056 0.71017 0.0
C504 C 0.06854 0.19782 0.70963 0.0
C505 C 0.04453 0.17032 0.68867 0.0
C506 C 0.05168 0.22128 0.73115 0.0
C507 C 0.00979 0.2159 0.73255 0.0
C508 C 0.98543 0.18718 0.7121 0.0
C509 C 0.00316 0.16531 0.68992 0.0
C510 C 0.0787 0.25245 0.75178 0.0
C511 C 0.94064 0.17944 0.71372 0.0
H512 H 0.95989 0.24041 0.83503 0.0
H513 H 0.95359 0.32356 0.75808 0.0
H514 H 0.97705 0.16376 0.78534 0.0
H515 H 0.02497 0.19055 0.79857 0.0
H516 H 0.98364 0.18284 0.82667 0.0
H517 H 0.98221 0.31967 0.70614 0.0
H518 H 0.0222 0.29389 0.70492 0.0
H519 H 0.97341 0.26883 0.69228 0.0
H520 H 0.10058 0.20203 0.7083 0.0
H521 H 0.98462 0.14391 0.67374 0.0
H522 H 0.0726 0.24628 0.77821 0.0
H523 H 0.07278 0.28214 0.7466 0.0
H524 H 0.11065 0.2537 0.74708 0.0
H525 H 0.93042 0.17218 0.73928 0.0
H526 H 0.92599 0.1546 0.69744 0.0
H527 H 0.93064 0.20656 0.70648 0.0
C528 C 0.54378 0.69256 0.7281 0.0
C529 C 0.55785 0.70907 0.6978 0.0
C530 C 0.52662 0.71444 0.75076 0.0
C531 C 0.52474 0.75408 0.74326 0.0
C532 C 0.53998 0.77115 0.71303 0.0
C533 C 0.55578 0.74822 0.69047 0.0
C534 C 0.50981 0.69493 0.78243 0.0
C535 C 0.53967 0.81367 0.70453 0.0
C536 C 0.44921 0.80106 0.78649 0.0
C537 C 0.47204 0.82194 0.81199 0.0
C538 C 0.46589 0.77847 0.76414 0.0
C539 C 0.5066 0.7777 0.76687 0.0
C540 C 0.53005 0.79974 0.792 0.0
C541 C 0.51233 0.82114 0.81456 0.0
C542 C 0.43974 0.75471 0.73806 0.0
C543 C 0.57382 0.80064 0.79512 0.0
H544 H 0.54516 0.6622 0.73366 0.0
H545 H 0.56703 0.76114 0.66714 0.0
H546 H 0.52504 0.71192 0.80367 0.0
H547 H 0.47781 0.69516 0.7843 0.0
H548 H 0.51301 0.6637 0.7843 0.0
H549 H 0.5544 0.82302 0.68067 0.0
H550 H 0.50862 0.81733 0.70329 0.0
H551 H 0.55503 0.83397 0.72398 0.0
H552 H 0.41794 0.80128 0.7847 0.0
H553 H 0.53007 0.8374 0.83421 0.0
H554 H 0.44004 0.72275 0.74045 0.0
H555 H 0.45143 0.76444 0.71334 0.0
H556 H 0.40849 0.75787 0.73967 0.0
H557 H 0.57804 0.77026 0.80001 0.0
H558 H 0.58821 0.82061 0.81517 0.0
H559 H 0.58928 0.8108 0.77173 0.0
C560 C 0.21794 0.72476 0.05922 0.0
C561 C 0.21068 0.68329 0.06201 0.0
C562 C 0.24385 0.74496 0.03516 0.0
C563 C 0.26223 0.723 0.01304 0.0
C564 C 0.25615 0.68132 0.01648 0.0
C565 C 0.23073 0.66199 0.04115 0.0
C566 C 0.25041 0.78962 0.03263 0.0
C567 C 0.27481 0.65689 0.99307 0.0
C568 C 0.28806 0.77287 0.93071 0.0
C569 C 0.32882 0.78923 0.93436 0.0
C570 C 0.26635 0.74971 0.95565 0.0
C571 C 0.2858 0.74347 0.98511 0.0
C572 C 0.32725 0.7585 0.98838 0.0
C573 C 0.34838 0.78092 0.96278 0.0
C574 C 0.2223 0.73327 0.951 0.0
C575 C 0.34888 0.75279 0.01958 0.0
H576 H 0.20271 0.74136 0.0754 0.0
H577 H 0.2251 0.62988 0.04303 0.0
H578 H 0.2827 0.8035 0.03198 0.0
H579 H 0.23732 0.79758 0.00943 0.0
H580 H 0.23678 0.80255 0.05344 0.0
H581 H 0.26949 0.62519 0.00059 0.0
H582 H 0.26229 0.6583 0.96814 0.0
H583 H 0.30733 0.66914 0.99135 0.0
H584 H 0.2729 0.77906 0.9087 0.0
H585 H 0.37986 0.79375 0.96583 0.0
H586 H 0.20544 0.748 0.96835 0.0
H587 H 0.2145 0.70095 0.95651 0.0
H588 H 0.21243 0.73788 0.92564 0.0
H589 H 0.33833 0.76916 0.03992 0.0
H590 H 0.38159 0.76369 0.01724 0.0
H591 H 0.34235 0.72093 0.02657 0.0
C592 C 0.41634 0.4669 0.45661 0.0
C593 C 0.43827 0.45434 0.43142 0.0
C594 C 0.43531 0.48673 0.48422 0.0
C595 C 0.47728 0.49558 0.48596 0.0
C596 C 0.49968 0.48437 0.4599 0.0
C597 C 0.47978 0.46297 0.43319 0.0
C598 C 0.41038 0.49685 0.51203 0.0
C599 C 0.54456 0.49465 0.46038 0.0
C600 C 0.52654 0.57756 0.54419 0.0
C601 C 0.53936 0.55584 0.56939 0.0
C602 C 0.50646 0.55831 0.51678 0.0
C603 C 0.49771 0.51629 0.51521 0.0
C604 C 0.50889 0.49412 0.5414 0.0
C605 C 0.53042 0.51426 0.56792 0.0
C606 C 0.49619 0.58298 0.48888 0.0
C607 C 0.49869 0.44921 0.54113 0.0
H608 H 0.38412 0.45941 0.4555 0.0
H609 H 0.49659 0.453 0.41371 0.0
H610 H 0.41692 0.48204 0.53488 0.0
H611 H 0.41795 0.52934 0.51672 0.0
H612 H 0.37801 0.48745 0.50693 0.0
H613 H 0.55744 0.48654 0.43707 0.0
H614 H 0.55574 0.527 0.46471 0.0
H615 H 0.55548 0.47879 0.48082 0.0
H616 H 0.53419 0.6098 0.54503 0.0
H617 H 0.54054 0.49757 0.5874 0.0
H618 H 0.46376 0.575 0.48403 0.0
H619 H 0.5113 0.57661 0.46612 0.0
H620 H 0.50513 0.61541 0.49397 0.0
H621 H 0.46643 0.4379 0.53651 0.0
H622 H 0.50648 0.43653 0.56463 0.0
H623 H 0.5149 0.43817 0.52097 0.0
loop_
_geom_bond_atom_site_label_1
_geom_bond_atom_site_label_2
_geom_bond_distance
_geom_bond_site_symmetry_2
_ccdc_geom_bond_type
O0 Cd1 2.223 . S
O0 C8 1.315 . S
Cd1 O0 2.223 . S
Cd1 O4 2.297 . S
Cd1 O5 2.439 . S
Cd1 O11 2.240 . S
Cd2 O3 2.240 . S
Cd2 O10 2.223 . S
Cd2 O12 2.297 . S
Cd2 O13 2.439 . S
O3 Cd2 2.240 . S
O3 C8 1.279 . S
O4 Cd1 2.297 . S
O4 C6 1.247 . S
O5 Cd1 2.439 . S
O5 C6 1.208 . S
C6 O4 1.247 . S
C6 O5 1.208 . S
C7 O12 1.247 . S
C7 O13 1.208 . S
C8 O0 1.315 . S
C8 O3 1.279 . S
C9 O10 1.315 . S
C9 O11 1.279 . S
O10 Cd2 2.223 . S
O10 C9 1.315 . S
O11 Cd1 2.240 . S
O11 C9 1.279 . S
O12 Cd2 2.297 . S
O12 C7 1.247 . S
O13 Cd2 2.439 . S
O13 C7 1.208 . S
O14 Cd15 2.223 . S
O14 C22 1.315 . S
Cd15 O14 2.223 . S
Cd15 O18 2.297 . S
Cd15 O19 2.439 . S
Cd15 O25 2.240 . S
Cd16 O17 2.240 . S
Cd16 O24 2.223 . S
Cd16 O26 2.297 . S
Cd16 O27 2.439 . S
O17 Cd16 2.240 . S
O17 C22 1.279 . S
O18 Cd15 2.297 . S
O18 C20 1.247 . S
O19 Cd15 2.439 . S
O19 C20 1.208 . S
C20 O18 1.247 . S
C20 O19 1.208 . S
C21 O26 1.247 . S
C21 O27 1.208 . S
C22 O14 1.315 . S
C22 O17 1.279 . S
C23 O24 1.315 . S
C23 O25 1.279 . S
O24 Cd16 2.223 . S
O24 C23 1.315 . S
O25 Cd15 2.240 . S
O25 C23 1.279 . S
O26 Cd16 2.297 . S
O26 C21 1.247 . S
O27 Cd16 2.439 . S
O27 C21 1.208 . S
O28 Cd29 2.223 . S
O28 C36 1.315 . S
Cd29 O28 2.223 . S
Cd29 O32 2.297 . S
Cd29 O33 2.439 . S
Cd29 O39 2.240 . S
Cd30 O31 2.240 . S
Cd30 O38 2.223 . S
Cd30 O40 2.297 . S
Cd30 O41 2.439 . S
O31 Cd30 2.240 . S
O31 C36 1.279 . S
O32 Cd29 2.297 . S
O32 C34 1.247 . S
O33 Cd29 2.439 . S
O33 C34 1.208 . S
C34 O32 1.247 . S
C34 O33 1.208 . S
C35 O40 1.247 . S
C35 O41 1.208 . S
C36 O28 1.315 . S
C36 O31 1.279 . S
C37 O38 1.315 . S
C37 O39 1.279 . S
O38 Cd30 2.223 . S
O38 C37 1.315 . S
O39 Cd29 2.240 . S
O39 C37 1.279 . S
O40 Cd30 2.297 . S
O40 C35 1.247 . S
O41 Cd30 2.439 . S
O41 C35 1.208 . S
O42 Cd43 2.223 . S
O42 C50 1.315 . S
Cd43 O42 2.223 . S
Cd43 O46 2.297 . S
Cd43 O47 2.439 . S
Cd43 O53 2.240 . S
Cd44 O45 2.240 . S
Cd44 O52 2.223 . S
Cd44 O54 2.297 . S
Cd44 O55 2.439 . S
O45 Cd44 2.240 . S
O45 C50 1.279 . S
O46 Cd43 2.297 . S
O46 C48 1.247 . S
O47 Cd43 2.439 . S
O47 C48 1.208 . S
C48 O46 1.247 . S
C48 O47 1.208 . S
C49 O54 1.247 . S
C49 O55 1.208 . S
C50 O42 1.315 . S
C50 O45 1.279 . S
C51 O52 1.315 . S
C51 O53 1.279 . S
O52 Cd44 2.223 . S
O52 C51 1.315 . S
O53 Cd43 2.240 . S
O53 C51 1.279 . S
O54 Cd44 2.297 . S
O54 C49 1.247 . S
O55 Cd44 2.439 . S
O55 C49 1.208 . S
O56 Cd57 2.223 . S
O56 C64 1.315 . S
Cd57 O56 2.223 . S
Cd57 O60 2.297 . S
Cd57 O61 2.439 . S
Cd57 O67 2.240 . S
Cd58 O59 2.240 . S
Cd58 O66 2.223 . S
Cd58 O68 2.297 . S
Cd58 O69 2.439 . S
O59 Cd58 2.240 . S
O59 C64 1.279 . S
O60 Cd57 2.297 . S
O60 C62 1.247 . S
O61 Cd57 2.439 . S
O61 C62 1.208 . S
C62 O60 1.247 . S
C62 O61 1.208 . S
C63 O68 1.247 . S
C63 O69 1.208 . S
C64 O56 1.315 . S
C64 O59 1.279 . S
C65 O66 1.315 . S
C65 O67 1.279 . S
O66 Cd58 2.223 . S
O66 C65 1.315 . S
O67 Cd57 2.240 . S
O67 C65 1.279 . S
O68 Cd58 2.297 . S
O68 C63 1.247 . S
O69 Cd58 2.439 . S
O69 C63 1.208 . S
O70 Cd71 2.223 . S
O70 C78 1.315 . S
Cd71 O70 2.223 . S
Cd71 O74 2.297 . S
Cd71 O75 2.439 . S
Cd71 O81 2.240 . S
Cd72 O73 2.240 . S
Cd72 O80 2.223 . S
Cd72 O82 2.297 . S
Cd72 O83 2.439 . S
O73 Cd72 2.240 . S
O73 C78 1.279 . S
O74 Cd71 2.297 . S
O74 C76 1.247 . S
O75 Cd71 2.439 . S
O75 C76 1.208 . S
C76 O74 1.247 . S
C76 O75 1.208 . S
C77 O82 1.247 . S
C77 O83 1.208 . S
C78 O70 1.315 . S
C78 O73 1.279 . S
C79 O80 1.315 . S
C79 O81 1.279 . S
O80 Cd72 2.223 . S
O80 C79 1.315 . S
O81 Cd71 2.240 . S
O81 C79 1.279 . S
O82 Cd72 2.297 . S
O82 C77 1.247 . S
O83 Cd72 2.439 . S
O83 C77 1.208 . S
O84 Cd85 2.223 . S
O84 C92 1.315 . S
Cd85 O84 2.223 . S
Cd85 O88 2.297 . S
Cd85 O89 2.439 . S
Cd85 O95 2.240 . S
Cd86 O87 2.240 . S
Cd86 O94 2.223 . S
Cd86 O96 2.297 . S
Cd86 O97 2.439 . S
O87 Cd86 2.240 . S
O87 C92 1.279 . S
O88 Cd85 2.297 . S
O88 C90 1.247 . S
O89 Cd85 2.439 . S
O89 C90 1.208 . S
C90 O88 1.247 . S
C90 O89 1.208 . S
C91 O96 1.247 . S
C91 O97 1.208 . S
C92 O84 1.315 . S
C92 O87 1.279 . S
C93 O94 1.315 . S
C93 O95 1.279 . S
O94 Cd86 2.223 . S
O94 C93 1.315 . S
O95 Cd85 2.240 . S
O95 C93 1.279 . S
O96 Cd86 2.297 . S
O96 C91 1.247 . S
O97 Cd86 2.439 . S
O97 C91 1.208 . S
O98 Cd99 2.223 . S
O98 C106 1.315 . S
Cd99 O98 2.223 . S
Cd99 O102 2.297 . S
Cd99 O103 2.439 . S
Cd99 O109 2.240 . S
Cd100 O101 2.240 . S
Cd100 O108 2.223 . S
Cd100 O110 2.297 . S
Cd100 O111 2.439 . S
O101 Cd100 2.240 . S
O101 C106 1.279 . S
O102 Cd99 2.297 . S
O102 C104 1.247 . S
O103 Cd99 2.439 . S
O103 C104 1.208 . S
C104 O102 1.247 . S
C104 O103 1.208 . S
C105 O110 1.247 . S
C105 O111 1.208 . S
C106 O98 1.315 . S
C106 O101 1.279 . S
C107 O108 1.315 . S
C107 O109 1.279 . S
O108 Cd100 2.223 . S
O108 C107 1.315 . S
O109 Cd99 2.240 . S
O109 C107 1.279 . S
O110 Cd100 2.297 . S
O110 C105 1.247 . S
O111 Cd100 2.439 . S
O111 C105 1.208 . S
C112 C113 1.391 . S
C112 C114 1.394 . S
C112 H128 0.931 . S
C113 C112 1.391 . S
C113 C117 1.376 . S
C114 C112 1.394 . S
C114 C115 1.369 . S
C114 C118 1.531 . S
C115 C114 1.369 . S
C115 C116 1.410 . S
C115 C123 1.503 . S
C116 C115 1.410 . S
C116 C117 1.392 . S
C116 C119 1.511 . S
C117 C113 1.376 . S
C117 C116 1.392 . S
C117 H129 0.929 . S
C118 C114 1.531 . S
C118 H130 0.960 . S
C118 H131 0.962 . S
C118 H132 0.960 . S
C119 C116 1.511 . S
C119 H133 0.961 . S
C119 H134 0.961 . S
C119 H135 0.961 . S
C120 C121 1.370 . S
C120 C122 1.363 . S
C120 H136 0.931 . S
C121 C120 1.370 . S
C121 C125 1.408 . S
C122 C120 1.363 . S
C122 C123 1.370 . S
C122 C126 1.524 . S
C123 C115 1.503 . S
C123 C122 1.370 . S
C123 C124 1.403 . S
C124 C123 1.403 . S
C124 C125 1.404 . S
C124 C127 1.539 . S
C125 C121 1.408 . S
C125 C124 1.404 . S
C125 H137 0.930 . S
C126 C122 1.524 . S
C126 H138 0.956 . S
C126 H139 0.961 . S
C126 H140 0.961 . S
C127 C124 1.539 . S
C127 H141 0.958 . S
C127 H142 0.961 . S
C127 H143 0.960 . S
H128 C112 0.931 . S
H129 C117 0.929 . S
H130 C118 0.960 . S
H131 C118 0.962 . S
H132 C118 0.960 . S
H133 C119 0.961 . S
H134 C119 0.961 . S
H135 C119 0.961 . S
H136 C120 0.931 . S
H137 C125 0.930 . S
H138 C126 0.956 . S
H139 C126 0.961 . S
H140 C126 0.961 . S
H141 C127 0.958 . S
H142 C127 0.961 . S
H143 C127 0.960 . S
C144 C145 1.391 . S
C144 C146 1.394 . S
C144 H160 0.931 . S
C145 C144 1.391 . S
C145 C149 1.376 . S
C146 C144 1.394 . S
C146 C147 1.369 . S
C146 C150 1.531 . S
C147 C146 1.369 . S
C147 C148 1.410 . S
C147 C155 1.503 . S
C148 C147 1.410 . S
C148 C149 1.392 . S
C148 C151 1.511 . S
C149 C145 1.376 . S
C149 C148 1.392 . S
C149 H161 0.929 . S
C150 C146 1.531 . S
C150 H162 0.960 . S
C150 H163 0.962 . S
C150 H164 0.960 . S
C151 C148 1.511 . S
C151 H165 0.961 . S
C151 H166 0.961 . S
C151 H167 0.961 . S
C152 C153 1.370 . S
C152 C154 1.363 . S
C152 H168 0.931 . S
C153 C152 1.370 . S
C153 C157 1.408 . S
C154 C152 1.363 . S
C154 C155 1.370 . S
C154 C158 1.524 . S
C155 C147 1.503 . S
C155 C154 1.370 . S
C155 C156 1.403 . S
C156 C155 1.403 . S
C156 C157 1.404 . S
C156 C159 1.539 . S
C157 C153 1.408 . S
C157 C156 1.404 . S
C157 H169 0.930 . S
C158 C154 1.524 . S
C158 H170 0.956 . S
C158 H171 0.961 . S
C158 H172 0.961 . S
C159 C156 1.539 . S
C159 H173 0.958 . S
C159 H174 0.961 . S
C159 H175 0.960 . S
H160 C144 0.931 . S
H161 C149 0.929 . S
H162 C150 0.960 . S
H163 C150 0.962 . S
H164 C150 0.960 . S
H165 C151 0.961 . S
H166 C151 0.961 . S
H167 C151 0.961 . S
H168 C152 0.931 . S
H169 C157 0.930 . S
H170 C158 0.956 . S
H171 C158 0.961 . S
H172 C158 0.961 . S
H173 C159 0.958 . S
H174 C159 0.961 . S
H175 C159 0.960 . S
C176 C177 1.391 . S
C176 C178 1.394 1_545 S
C176 H192 0.931 1_545 S
C177 C176 1.391 . S
C177 C181 1.376 . S
C178 C176 1.394 1_565 S
C178 C179 1.355 1_565 S
C178 C182 1.531 . S
C179 C178 1.355 1_545 S
C179 C180 1.436 . S
C179 C187 1.490 1_544 S
C180 C179 1.436 . S
C180 C181 1.392 . S
C180 C183 1.511 1_554 S
C181 C177 1.376 . S
C181 C180 1.392 . S
C181 H193 0.929 . S
C182 C178 1.531 . S
C182 H194 0.960 . S
C182 H195 0.962 . S
C182 H196 0.960 . S
C183 C180 1.511 1_556 S
C183 H197 0.961 . S
C183 H198 0.961 . S
C183 H199 0.961 . S
C184 C185 1.370 . S
C184 C186 1.363 . S
C184 H200 0.931 . S
C185 C184 1.370 . S
C185 C189 1.408 . S
C186 C184 1.363 . S
C186 C187 1.370 . S
C186 C190 1.524 . S
C187 C179 1.490 1_566 S
C187 C186 1.370 . S
C187 C188 1.403 . S
C188 C187 1.403 . S
C188 C189 1.404 . S
C188 C191 1.539 1_556 S
C189 C185 1.408 . S
C189 C188 1.404 . S
C189 H201 0.930 . S
C190 C186 1.524 . S
C190 H202 0.956 . S
C190 H203 0.961 . S
C190 H204 0.961 . S
C191 C188 1.539 1_554 S
C191 H205 0.958 . S
C191 H206 0.961 1_554 S
C191 H207 0.960 1_565 S
H192 C176 0.931 1_565 S
H193 C181 0.929 . S
H194 C182 0.960 . S
H195 C182 0.962 . S
H196 C182 0.960 . S
H197 C183 0.961 . S
H198 C183 0.961 . S
H199 C183 0.961 . S
H200 C184 0.931 . S
H201 C189 0.930 . S
H202 C190 0.956 . S
H203 C190 0.961 . S
H204 C190 0.961 . S
H205 C191 0.958 . S
H206 C191 0.961 1_556 S
H207 C191 0.960 1_545 S
C208 C209 1.391 . S
C208 C210 1.394 . S
C208 H224 0.931 . S
C209 C208 1.391 . S
C209 C213 1.376 1_655 S
C210 C208 1.394 . S
C210 C211 1.369 1_655 S
C210 C214 1.531 . S
C211 C210 1.369 1_455 S
C211 C212 1.410 . S
C211 C219 1.503 . S
C212 C211 1.410 . S
C212 C213 1.392 . S
C212 C215 1.511 . S
C213 C209 1.376 1_455 S
C213 C212 1.392 . S
C213 H225 0.929 . S
C214 C210 1.531 . S
C214 H226 0.960 . S
C214 H227 0.962 . S
C214 H228 0.960 . S
C215 C212 1.511 . S
C215 H229 0.961 . S
C215 H230 0.961 . S
C215 H231 0.961 . S
C216 C217 1.370 . S
C216 C218 1.363 . S
C216 H232 0.931 . S
C217 C216 1.370 . S
C217 C221 1.408 . S
C218 C216 1.363 . S
C218 C219 1.370 . S
C218 C222 1.524 . S
C219 C211 1.503 . S
C219 C218 1.370 . S
C219 C220 1.403 . S
C220 C219 1.403 . S
C220 C221 1.404 . S
C220 C223 1.539 . S
C221 C217 1.408 . S
C221 C220 1.404 . S
C221 H233 0.930 . S
C222 C218 1.524 . S
C222 H234 0.956 . S
C222 H235 0.961 . S
C222 H236 0.961 . S
C223 C220 1.539 . S
C223 H237 0.958 1_455 S
C223 H238 0.961 . S
C223 H239 0.960 . S
H224 C208 0.931 . S
H225 C213 0.929 . S
H226 C214 0.960 . S
H227 C214 0.962 . S
H228 C214 0.960 . S
H229 C215 0.961 . S
H230 C215 0.961 . S
H231 C215 0.961 . S
H232 C216 0.931 . S
H233 C221 0.930 . S
H234 C222 0.956 . S
H235 C222 0.961 . S
H236 C222 0.961 . S
H237 C223 0.958 1_655 S
H238 C223 0.961 . S
H239 C223 0.960 . S
C240 C241 1.391 . S
C240 C242 1.394 . S
C240 H256 0.931 . S
C241 C240 1.391 . S
C241 C245 1.376 . S
C242 C240 1.394 . S
C242 C243 1.369 . S
C242 C246 1.531 . S
C243 C242 1.369 . S
C243 C244 1.410 . S
C243 C251 1.503 . S
C244 C243 1.410 . S
C244 C245 1.392 . S
C244 C247 1.511 1_565 S
C245 C241 1.376 . S
C245 C244 1.392 . S
C245 H257 0.929 . S
C246 C242 1.531 . S
C246 H258 0.960 . S
C246 H259 0.962 . S
C246 H260 0.960 . S
C247 C244 1.511 1_545 S
C247 H261 0.961 . S
C247 H262 0.961 . S
C247 H263 0.961 . S
C248 C249 1.370 1_565 S
C248 C250 1.363 . S
C248 H264 0.931 . S
C249 C248 1.370 1_545 S
C249 C253 1.408 . S
C250 C248 1.363 . S
C250 C251 1.370 . S
C250 C254 1.524 . S
C251 C243 1.503 . S
C251 C250 1.370 . S
C251 C252 1.403 1_565 S
C252 C251 1.403 1_545 S
C252 C253 1.404 . S
C252 C255 1.539 . S
C253 C249 1.408 . S
C253 C252 1.404 . S
C253 H265 0.930 . S
C254 C250 1.524 . S
C254 H266 0.956 . S
C254 H267 0.961 . S
C254 H268 0.961 . S
C255 C252 1.539 . S
C255 H269 0.958 . S
C255 H270 0.961 . S
C255 H271 0.960 . S
H256 C240 0.931 . S
H257 C245 0.929 . S
H258 C246 0.960 . S
H259 C246 0.962 . S
H260 C246 0.960 . S
H261 C247 0.961 . S
H262 C247 0.961 . S
H263 C247 0.961 . S
H264 C248 0.931 . S
H265 C253 0.930 . S
H266 C254 0.956 . S
H267 C254 0.961 . S
H268 C254 0.961 . S
H269 C255 0.958 . S
H270 C255 0.961 . S
H271 C255 0.960 . S
C272 C273 1.391 . S
C272 C274 1.394 1_655 S
C272 H288 0.931 1_655 S
C273 C272 1.391 . S
C273 C277 1.376 . S
C274 C272 1.394 1_455 S
C274 C275 1.377 . S
C274 C278 1.531 . S
C275 C274 1.377 . S
C275 C276 1.396 1_455 S
C275 C283 1.510 1_556 S
C276 C275 1.396 1_655 S
C276 C277 1.392 . S
C276 C279 1.511 1_556 S
C277 C273 1.376 . S
C277 C276 1.392 . S
C277 H289 0.929 . S
C278 C274 1.531 . S
C278 H290 0.960 . S
C278 H291 0.962 . S
C278 H292 0.960 . S
C279 C276 1.511 1_554 S
C279 H293 0.961 . S
C279 H294 0.961 . S
C279 H295 0.961 . S
C280 C281 1.370 . S
C280 C282 1.363 . S
C280 H296 0.931 . S
C281 C280 1.370 . S
C281 C285 1.408 . S
C282 C280 1.363 . S
C282 C283 1.370 . S
C282 C286 1.524 . S
C283 C275 1.510 1_554 S
C283 C282 1.370 . S
C283 C284 1.403 . S
C284 C283 1.403 . S
C284 C285 1.404 . S
C284 C287 1.539 1_554 S
C285 C281 1.408 . S
C285 C284 1.404 . S
C285 H297 0.930 . S
C286 C282 1.524 . S
C286 H298 0.956 . S
C286 H299 0.961 1_455 S
C286 H300 0.961 . S
C287 C284 1.539 1_556 S
C287 H301 0.958 . S
C287 H302 0.961 . S
C287 H303 0.960 1_455 S
H288 C272 0.931 1_455 S
H289 C277 0.929 . S
H290 C278 0.960 . S
H291 C278 0.962 . S
H292 C278 0.960 . S
H293 C279 0.961 . S
H294 C279 0.961 . S
H295 C279 0.961 . S
H296 C280 0.931 . S
H297 C285 0.930 . S
H298 C286 0.956 . S
H299 C286 0.961 1_655 S
H300 C286 0.961 . S
H301 C287 0.958 . S
H302 C287 0.961 . S
H303 C287 0.960 1_655 S
C304 C305 1.391 . S
C304 C306 1.394 . S
C304 H320 0.931 . S
C305 C304 1.391 . S
C305 C309 1.376 . S
C306 C304 1.394 . S
C306 C307 1.369 . S
C306 C310 1.531 . S
C307 C306 1.369 . S
C307 C308 1.410 . S
C307 C315 1.503 . S
C308 C307 1.410 . S
C308 C309 1.392 . S
C308 C311 1.511 . S
C309 C305 1.376 . S
C309 C308 1.392 . S
C309 H321 0.929 . S
C310 C306 1.531 . S
C310 H322 0.960 . S
C310 H323 0.962 . S
C310 H324 0.960 . S
C311 C308 1.511 . S
C311 H325 0.961 . S
C311 H326 0.961 . S
C311 H327 0.961 . S
C312 C313 1.370 . S
C312 C314 1.363 . S
C312 H328 0.931 . S
C313 C312 1.370 . S
C313 C317 1.408 . S
C314 C312 1.363 . S
C314 C315 1.370 . S
C314 C318 1.524 . S
C315 C307 1.503 . S
C315 C314 1.370 . S
C315 C316 1.403 . S
C316 C315 1.403 . S
C316 C317 1.404 . S
C316 C319 1.539 . S
C317 C313 1.408 . S
C317 C316 1.404 . S
C317 H329 0.930 . S
C318 C314 1.524 . S
C318 H330 0.956 . S
C318 H331 0.961 . S
C318 H332 0.961 . S
C319 C316 1.539 . S
C319 H333 0.958 . S
C319 H334 0.961 . S
C319 H335 0.960 . S
H320 C304 0.931 . S
H321 C309 0.929 . S
H322 C310 0.960 . S
H323 C310 0.962 . S
H324 C310 0.960 . S
H325 C311 0.961 . S
H326 C311 0.961 . S
H327 C311 0.961 . S
H328 C312 0.931 . S
H329 C317 0.930 . S
H330 C318 0.956 . S
H331 C318 0.961 . S
H332 C318 0.961 . S
H333 C319 0.958 . S
H334 C319 0.961 . S
H335 C319 0.960 . S
C336 C337 1.391 . S
C336 C338 1.394 . S
C336 H352 0.931 . S
C337 C336 1.391 . S
C337 C341 1.376 . S
C338 C336 1.394 . S
C338 C339 1.369 . S
C338 C342 1.531 . S
C339 C338 1.369 . S
C339 C340 1.410 . S
C339 C347 1.503 . S
C340 C339 1.410 . S
C340 C341 1.392 . S
C340 C343 1.511 . S
C341 C337 1.376 . S
C341 C340 1.392 . S
C341 H353 0.929 . S
C342 C338 1.531 . S
C342 H354 0.960 . S
C342 H355 0.962 . S
C342 H356 0.960 . S
C343 C340 1.511 . S
C343 H357 0.961 . S
C343 H358 0.961 . S
C343 H359 0.961 . S
C344 C345 1.370 . S
C344 C346 1.363 . S
C344 H360 0.931 . S
C345 C344 1.370 . S
C345 C349 1.408 . S
C346 C344 1.363 . S
C346 C347 1.370 . S
C346 C350 1.524 . S
C347 C339 1.503 . S
C347 C346 1.370 . S
C347 C348 1.403 . S
C348 C347 1.403 . S
C348 C349 1.404 . S
C348 C351 1.539 . S
C349 C345 1.408 . S
C349 C348 1.404 . S
C349 H361 0.930 . S
C350 C346 1.524 . S
C350 H362 0.956 . S
C350 H363 0.961 . S
C350 H364 0.961 . S
C351 C348 1.539 . S
C351 H365 0.958 . S
C351 H366 0.961 . S
C351 H367 0.960 . S
H352 C336 0.931 . S
H353 C341 0.929 . S
H354 C342 0.960 . S
H355 C342 0.962 . S
H356 C342 0.960 . S
H357 C343 0.961 . S
H358 C343 0.961 . S
H359 C343 0.961 . S
H360 C344 0.931 . S
H361 C349 0.930 . S
H362 C350 0.956 . S
H363 C350 0.961 . S
H364 C350 0.961 . S
H365 C351 0.958 . S
H366 C351 0.961 . S
H367 C351 0.960 . S
C368 C369 1.391 . S
C368 C370 1.394 . S
C368 H384 0.931 . S
C369 C368 1.391 . S
C369 C373 1.376 . S
C370 C368 1.394 . S
C370 C371 1.369 . S
C370 C374 1.531 . S
C371 C370 1.369 . S
C371 C372 1.410 . S
C371 C379 1.503 . S
C372 C371 1.410 . S
C372 C373 1.392 . S
C372 C375 1.511 . S
C373 C369 1.376 . S
C373 C372 1.392 . S
C373 H385 0.929 . S
C374 C370 1.531 . S
C374 H386 0.960 . S
C374 H387 0.962 . S
C374 H388 0.960 . S
C375 C372 1.511 . S
C375 H389 0.961 . S
C375 H390 0.961 . S
C375 H391 0.961 . S
C376 C377 1.370 . S
C376 C378 1.363 . S
C376 H392 0.931 . S
C377 C376 1.370 . S
C377 C381 1.408 . S
C378 C376 1.363 . S
C378 C379 1.370 . S
C378 C382 1.524 . S
C379 C371 1.503 . S
C379 C378 1.370 . S
C379 C380 1.403 . S
C380 C379 1.403 . S
C380 C381 1.404 . S
C380 C383 1.539 . S
C381 C377 1.408 . S
C381 C380 1.404 . S
C381 H393 0.930 . S
C382 C378 1.524 . S
C382 H394 0.956 . S
C382 H395 0.961 . S
C382 H396 0.961 . S
C383 C380 1.539 . S
C383 H397 0.958 . S
C383 H398 0.961 . S
C383 H399 0.960 . S
H384 C368 0.931 . S
H385 C373 0.929 . S
H386 C374 0.960 . S
H387 C374 0.962 . S
H388 C374 0.960 . S
H389 C375 0.961 . S
H390 C375 0.961 . S
H391 C375 0.961 . S
H392 C376 0.931 . S
H393 C381 0.930 . S
H394 C382 0.956 . S
H395 C382 0.961 . S
H396 C382 0.961 . S
H397 C383 0.958 . S
H398 C383 0.961 . S
H399 C383 0.960 . S
C400 C401 1.391 . S
C400 C402 1.394 . S
C400 H416 0.931 . S
C401 C400 1.391 . S
C401 C405 1.376 . S
C402 C400 1.394 . S
C402 C403 1.369 . S
C402 C406 1.531 1_556 S
C403 C402 1.369 . S
C403 C404 1.410 . S
C403 C411 1.503 1_556 S
C404 C403 1.410 . S
C404 C405 1.392 . S
C404 C407 1.511 . S
C405 C401 1.376 . S
C405 C404 1.392 . S
C405 H417 0.929 . S
C406 C402 1.531 1_554 S
C406 H418 0.960 . S
C406 H419 0.962 . S
C406 H420 0.960 . S
C407 C404 1.511 . S
C407 H421 0.961 . S
C407 H422 0.961 . S
C407 H423 0.961 . S
C408 C409 1.370 . S
C408 C410 1.363 . S
C408 H424 0.931 . S
C409 C408 1.370 . S
C409 C413 1.408 . S
C410 C408 1.363 . S
C410 C411 1.370 . S
C410 C414 1.524 1_554 S
C411 C403 1.503 1_554 S
C411 C410 1.370 . S
C411 C412 1.403 . S
C412 C411 1.403 . S
C412 C413 1.404 . S
C412 C415 1.539 . S
C413 C409 1.408 . S
C413 C412 1.404 . S
C413 H425 0.930 . S
C414 C410 1.524 1_556 S
C414 H426 0.956 1_556 S
C414 H427 0.961 . S
C414 H428 0.961 1_556 S
C415 C412 1.539 . S
C415 H429 0.958 . S
C415 H430 0.961 . S
C415 H431 0.960 . S
H416 C400 0.931 . S
H417 C405 0.929 . S
H418 C406 0.960 . S
H419 C406 0.962 . S
H420 C406 0.960 . S
H421 C407 0.961 . S
H422 C407 0.961 . S
H423 C407 0.961 . S
H424 C408 0.931 . S
H425 C413 0.930 . S
H426 C414 0.956 1_554 S
H427 C414 0.961 . S
H428 C414 0.961 1_554 S
H429 C415 0.958 . S
H430 C415 0.961 . S
H431 C415 0.960 . S
C432 C433 1.391 . S
C432 C434 1.394 . S
C432 H448 0.931 . S
C433 C432 1.391 . S
C433 C437 1.376 . S
C434 C432 1.394 . S
C434 C435 1.369 . S
C434 C438 1.531 1_565 S
C435 C434 1.369 . S
C435 C436 1.410 . S
C435 C443 1.503 . S
C436 C435 1.410 . S
C436 C437 1.392 . S
C436 C439 1.511 . S
C437 C433 1.376 . S
C437 C436 1.392 . S
C437 H449 0.929 . S
C438 C434 1.531 1_545 S
C438 H450 0.960 . S
C438 H451 0.962 . S
C438 H452 0.960 . S
C439 C436 1.511 . S
C439 H453 0.961 . S
C439 H454 0.961 . S
C439 H455 0.961 . S
C440 C441 1.370 . S
C440 C442 1.363 1_545 S
C440 H456 0.931 . S
C441 C440 1.370 . S
C441 C445 1.408 . S
C442 C440 1.363 1_565 S
C442 C443 1.370 . S
C442 C446 1.524 . S
C443 C435 1.503 . S
C443 C442 1.370 . S
C443 C444 1.403 1_565 S
C444 C443 1.403 1_545 S
C444 C445 1.404 . S
C444 C447 1.539 . S
C445 C441 1.408 . S
C445 C444 1.404 . S
C445 H457 0.930 . S
C446 C442 1.524 . S
C446 H458 0.956 . S
C446 H459 0.961 . S
C446 H460 0.961 . S
C447 C444 1.539 . S
C447 H461 0.958 . S
C447 H462 0.961 . S
C447 H463 0.960 1_545 S
H448 C432 0.931 . S
H449 C437 0.929 . S
H450 C438 0.960 . S
H451 C438 0.962 . S
H452 C438 0.960 . S
H453 C439 0.961 . S
H454 C439 0.961 . S
H455 C439 0.961 . S
H456 C440 0.931 . S
H457 C445 0.930 . S
H458 C446 0.956 . S
H459 C446 0.961 . S
H460 C446 0.961 . S
H461 C447 0.958 . S
H462 C447 0.961 . S
H463 C447 0.960 1_565 S
C464 C465 1.391 . S
C464 C466 1.394 1_655 S
C464 H480 0.931 . S
C465 C464 1.391 . S
C465 C469 1.376 . S
C466 C464 1.394 1_455 S
C466 C467 1.369 . S
C466 C470 1.531 . S
C467 C466 1.369 . S
C467 C468 1.410 1_455 S
C467 C475 1.503 1_565 S
C468 C467 1.410 1_655 S
C468 C469 1.392 . S
C468 C471 1.511 1_565 S
C469 C465 1.376 . S
C469 C468 1.392 . S
C469 H481 0.929 . S
C470 C466 1.531 . S
C470 H482 0.960 . S
C470 H483 0.962 . S
C470 H484 0.960 . S
C471 C468 1.511 1_545 S
C471 H485 0.961 . S
C471 H486 0.961 . S
C471 H487 0.961 . S
C472 C473 1.370 . S
C472 C474 1.363 1_545 S
C472 H488 0.931 . S
C473 C472 1.370 . S
C473 C477 1.408 . S
C474 C472 1.363 1_565 S
C474 C475 1.370 1_565 S
C474 C478 1.524 1_455 S
C475 C467 1.503 1_545 S
C475 C474 1.370 1_545 S
C475 C476 1.403 . S
C476 C475 1.403 . S
C476 C477 1.404 . S
C476 C479 1.539 . S
C477 C473 1.408 . S
C477 C476 1.404 . S
C477 H489 0.930 . S
C478 C474 1.524 1_655 S
C478 H490 0.956 . S
C478 H491 0.961 . S
C478 H492 0.961 . S
C479 C476 1.539 . S
C479 H493 0.958 . S
C479 H494 0.961 . S
C479 H495 0.960 . S
H480 C464 0.931 . S
H481 C469 0.929 . S
H482 C470 0.960 . S
H483 C470 0.962 . S
H484 C470 0.960 . S
H485 C471 0.961 . S
H486 C471 0.961 . S
H487 C471 0.961 . S
H488 C472 0.931 . S
H489 C477 0.930 . S
H490 C478 0.956 . S
H491 C478 0.961 . S
H492 C478 0.961 . S
H493 C479 0.958 . S
H494 C479 0.961 . S
H495 C479 0.960 . S
C496 C497 1.391 . S
C496 C498 1.394 1_655 S
C496 H512 0.931 . S
C497 C496 1.391 . S
C497 C501 1.376 . S
C498 C496 1.394 1_455 S
C498 C499 1.369 . S
C498 C502 1.531 . S
C499 C498 1.369 . S
C499 C500 1.410 1_455 S
C499 C507 1.503 . S
C500 C499 1.410 1_655 S
C500 C501 1.392 . S
C500 C503 1.511 . S
C501 C497 1.376 . S
C501 C500 1.392 . S
C501 H513 0.929 . S
C502 C498 1.531 . S
C502 H514 0.960 . S
C502 H515 0.962 . S
C502 H516 0.960 . S
C503 C500 1.511 . S
C503 H517 0.961 . S
C503 H518 0.961 1_655 S
C503 H519 0.961 . S
C504 C505 1.370 . S
C504 C506 1.363 . S
C504 H520 0.931 . S
C505 C504 1.370 . S
C505 C509 1.408 . S
C506 C504 1.363 . S
C506 C507 1.370 . S
C506 C510 1.524 . S
C507 C499 1.503 . S
C507 C506 1.370 . S
C507 C508 1.403 . S
C508 C507 1.403 . S
C508 C509 1.404 . S
C508 C511 1.539 1_455 S
C509 C505 1.408 . S
C509 C508 1.404 . S
C509 H521 0.930 . S
C510 C506 1.524 . S
C510 H522 0.956 . S
C510 H523 0.961 . S
C510 H524 0.961 . S
C511 C508 1.539 1_655 S
C511 H525 0.958 . S
C511 H526 0.961 . S
C511 H527 0.960 . S
H512 C496 0.931 . S
H513 C501 0.929 . S
H514 C502 0.960 . S
H515 C502 0.962 . S
H516 C502 0.960 . S
H517 C503 0.961 . S
H518 C503 0.961 1_455 S
H519 C503 0.961 . S
H520 C504 0.931 . S
H521 C509 0.930 . S
H522 C510 0.956 . S
H523 C510 0.961 . S
H524 C510 0.961 . S
H525 C511 0.958 . S
H526 C511 0.961 . S
H527 C511 0.960 . S
C528 C529 1.391 . S
C528 C530 1.394 . S
C528 H544 0.931 . S
C529 C528 1.391 . S
C529 C533 1.376 . S
C530 C528 1.394 . S
C530 C531 1.369 . S
C530 C534 1.531 . S
C531 C530 1.369 . S
C531 C532 1.410 . S
C531 C539 1.503 . S
C532 C531 1.410 . S
C532 C533 1.392 . S
C532 C535 1.511 . S
C533 C529 1.376 . S
C533 C532 1.392 . S
C533 H545 0.929 . S
C534 C530 1.531 . S
C534 H546 0.960 . S
C534 H547 0.962 . S
C534 H548 0.960 . S
C535 C532 1.511 . S
C535 H549 0.961 . S
C535 H550 0.961 . S
C535 H551 0.961 . S
C536 C537 1.370 . S
C536 C538 1.363 . S
C536 H552 0.931 . S
C537 C536 1.370 . S
C537 C541 1.408 . S
C538 C536 1.363 . S
C538 C539 1.370 . S
C538 C542 1.524 . S
C539 C531 1.503 . S
C539 C538 1.370 . S
C539 C540 1.403 . S
C540 C539 1.403 . S
C540 C541 1.404 . S
C540 C543 1.539 . S
C541 C537 1.408 . S
C541 C540 1.404 . S
C541 H553 0.930 . S
C542 C538 1.524 . S
C542 H554 0.956 . S
C542 H555 0.961 . S
C542 H556 0.961 . S
C543 C540 1.539 . S
C543 H557 0.958 . S
C543 H558 0.961 . S
C543 H559 0.960 . S
H544 C528 0.931 . S
H545 C533 0.929 . S
H546 C534 0.960 . S
H547 C534 0.962 . S
H548 C534 0.960 . S
H549 C535 0.961 . S
H550 C535 0.961 . S
H551 C535 0.961 . S
H552 C536 0.931 . S
H553 C541 0.930 . S
H554 C542 0.956 . S
H555 C542 0.961 . S
H556 C542 0.961 . S
H557 C543 0.958 . S
H558 C543 0.961 . S
H559 C543 0.960 . S
C560 C561 1.391 . S
C560 C562 1.394 . S
C560 H576 0.931 . S
C561 C560 1.391 . S
C561 C565 1.376 . S
C562 C560 1.394 . S
C562 C563 1.369 . S
C562 C566 1.531 . S
C563 C562 1.369 . S
C563 C564 1.410 . S
C563 C571 1.503 1_554 S
C564 C563 1.410 . S
C564 C565 1.392 . S
C564 C567 1.511 1_554 S
C565 C561 1.376 . S
C565 C564 1.392 . S
C565 H577 0.929 . S
C566 C562 1.531 . S
C566 H578 0.960 . S
C566 H579 0.962 . S
C566 H580 0.960 . S
C567 C564 1.511 1_556 S
C567 H581 0.961 . S
C567 H582 0.961 . S
C567 H583 0.961 . S
C568 C569 1.370 . S
C568 C570 1.363 . S
C568 H584 0.931 . S
C569 C568 1.370 . S
C569 C573 1.408 . S
C570 C568 1.363 . S
C570 C571 1.370 . S
C570 C574 1.524 . S
C571 C563 1.503 1_556 S
C571 C570 1.370 . S
C571 C572 1.403 . S
C572 C571 1.403 . S
C572 C573 1.404 . S
C572 C575 1.539 1_556 S
C573 C569 1.408 . S
C573 C572 1.404 . S
C573 H585 0.930 . S
C574 C570 1.524 . S
C574 H586 0.956 . S
C574 H587 0.961 . S
C574 H588 0.961 . S
C575 C572 1.539 1_554 S
C575 H589 0.958 . S
C575 H590 0.961 1_554 S
C575 H591 0.960 . S
H576 C560 0.931 . S
H577 C565 0.929 . S
H578 C566 0.960 . S
H579 C566 0.962 . S
H580 C566 0.960 . S
H581 C567 0.961 . S
H582 C567 0.961 . S
H583 C567 0.961 . S
H584 C568 0.931 . S
H585 C573 0.930 . S
H586 C574 0.956 . S
H587 C574 0.961 . S
H588 C574 0.961 . S
H589 C575 0.958 . S
H590 C575 0.961 1_556 S
H591 C575 0.960 . S
C592 C593 1.391 . S
C592 C594 1.394 . S
C592 H608 0.931 . S
C593 C592 1.391 . S
C593 C597 1.376 . S
C594 C592 1.394 . S
C594 C595 1.369 . S
C594 C598 1.531 . S
C595 C594 1.369 . S
C595 C596 1.410 . S
C595 C603 1.503 . S
C596 C595 1.410 . S
C596 C597 1.392 . S
C596 C599 1.511 . S
C597 C593 1.376 . S
C597 C596 1.392 . S
C597 H609 0.929 . S
C598 C594 1.531 . S
C598 H610 0.960 . S
C598 H611 0.962 . S
C598 H612 0.960 . S
C599 C596 1.511 . S
C599 H613 0.961 . S
C599 H614 0.961 . S
C599 H615 0.961 . S
C600 C601 1.370 . S
C600 C602 1.363 . S
C600 H616 0.931 . S
C601 C600 1.370 . S
C601 C605 1.408 . S
C602 C600 1.363 . S
C602 C603 1.370 . S
C602 C606 1.524 . S
C603 C595 1.503 . S
C603 C602 1.370 . S
C603 C604 1.403 . S
C604 C603 1.403 . S
C604 C605 1.404 . S
C604 C607 1.539 . S
C605 C601 1.408 . S
C605 C604 1.404 . S
C605 H617 0.930 . S
C606 C602 1.524 . S
C606 H618 0.956 . S
C606 H619 0.961 . S
C606 H620 0.961 . S
C607 C604 1.539 . S
C607 H621 0.958 . S
C607 H622 0.961 . S
C607 H623 0.960 . S
H608 C592 0.931 . S
H609 C597 0.929 . S
H610 C598 0.960 . S
H611 C598 0.962 . S
H612 C598 0.960 . S
H613 C599 0.961 . S
H614 C599 0.961 . S
H615 C599 0.961 . S
H616 C600 0.931 . S
H617 C605 0.930 . S
H618 C606 0.956 . S
H619 C606 0.961 . S
H620 C606 0.961 . S
H621 C607 0.958 . S
H622 C607 0.961 . S
H623 C607 0.960 . S
C113 C78 1.588 . S
C121 C8 1.591 . S
C145 C105 1.557 . S
C153 C20 1.531 . S
C177 C37 1.594 . S
C185 C93 1.594 . S
C209 C49 1.555 . S
C217 C62 1.530 . S
C241 C90 1.502 . S
C249 C7 1.535 . S
C273 C23 1.593 . S
C281 C65 1.593 . S
C305 C77 1.561 . S
C313 C34 1.538 . S
C337 C50 1.593 . S
C345 C106 1.594 . S
C369 C63 1.527 . S
C377 C76 1.523 . S
C401 C22 1.581 . S
C409 C36 1.589 . S
C433 C48 1.537 . S
C441 C35 1.524 . S
C465 C51 1.589 . S
C473 C9 1.591 . S
C497 C21 1.511 . S
C505 C6 1.525 . S
C529 C104 1.552 . S
C537 C91 1.528 . S
C561 C64 1.594 . S
C569 C92 1.594 . S
C593 C79 1.581 . S
C601 C107 1.589 . S
