# Generated by pormake.
# Topology uoz, (4)-cn, num edge types: 1
# Building blocks:
#     Node 0, Type 0, BuildingBlock: UXUYUI_clean_sbu_0, # of connection points: 4
#     Node 1, Type 0, BuildingBlock: UXUYUI_clean_sbu_0, # of connection points: 4
#     Node 2, Type 0, BuildingBlock: UXUYUI_clean_sbu_0, # of connection points: 4
#     Node 3, Type 0, BuildingBlock: UXUYUI_clean_sbu_0, # of connection points: 4
#     Node 4, Type 0, BuildingBlock: UXUYUI_clean_sbu_0, # of connection points: 4
#     Node 5, Type 0, BuildingBlock: UXUYUI_clean_sbu_0, # of connection points: 4
#     Node 6, Type 0, BuildingBlock: UXUYUI_clean_sbu_0, # of connection points: 4
#     Node 7, Type 0, BuildingBlock: UXUYUI_clean_sbu_0, # of connection points: 4
#     Node 8, Type 0, BuildingBlock: UXUYUI_clean_sbu_0, # of connection points: 4
#     Node 9, Type 0, BuildingBlock: UXUYUI_clean_sbu_0, # of connection points: 4
#     Node 10, Type 0, BuildingBlock: UXUYUI_clean_sbu_0, # of connection points: 4
#     Node 11, Type 0, BuildingBlock: UXUYUI_clean_sbu_0, # of connection points: 4
#     Node 12, Type 0, BuildingBlock: UXUYUI_clean_sbu_0, # of connection points: 4
#     Node 13, Type 0, BuildingBlock: UXUYUI_clean_sbu_0, # of connection points: 4
#     Node 14, Type 0, BuildingBlock: UXUYUI_clean_sbu_0, # of connection points: 4
#     Node 15, Type 0, BuildingBlock: UXUYUI_clean_sbu_0, # of connection points: 4
#     Edge 16, Type (0, 0), BuildingBlock: KIFKEQ_clean_linker_1, # of connection points: 2
#     Edge 17, Type (0, 0), BuildingBlock: KIFKEQ_clean_linker_1, # of connection points: 2
#     Edge 18, Type (0, 0), BuildingBlock: KIFKEQ_clean_linker_1, # of connection points: 2
#     Edge 19, Type (0, 0), BuildingBlock: KIFKEQ_clean_linker_1, # of connection points: 2
#     Edge 20, Type (0, 0), BuildingBlock: KIFKEQ_clean_linker_1, # of connection points: 2
#     Edge 21, Type (0, 0), BuildingBlock: KIFKEQ_clean_linker_1, # of connection points: 2
#     Edge 22, Type (0, 0), BuildingBlock: KIFKEQ_clean_linker_1, # of connection points: 2
#     Edge 23, Type (0, 0), BuildingBlock: KIFKEQ_clean_linker_1, # of connection points: 2
#     Edge 24, Type (0, 0), BuildingBlock: KIFKEQ_clean_linker_1, # of connection points: 2
#     Edge 25, Type (0, 0), BuildingBlock: KIFKEQ_clean_linker_1, # of connection points: 2
#     Edge 26, Type (0, 0), BuildingBlock: KIFKEQ_clean_linker_1, # of connection points: 2
#     Edge 27, Type (0, 0), BuildingBlock: KIFKEQ_clean_linker_1, # of connection points: 2
#     Edge 28, Type (0, 0), BuildingBlock: KIFKEQ_clean_linker_1, # of connection points: 2
#     Edge 29, Type (0, 0), BuildingBlock: KIFKEQ_clean_linker_1, # of connection points: 2
#     Edge 30, Type (0, 0), BuildingBlock: KIFKEQ_clean_linker_1, # of connection points: 2
#     Edge 31, Type (0, 0), BuildingBlock: KIFKEQ_clean_linker_1, # of connection points: 2
#     Edge 32, Type (0, 0), BuildingBlock: KIFKEQ_clean_linker_1, # of connection points: 2
#     Edge 33, Type (0, 0), BuildingBlock: KIFKEQ_clean_linker_1, # of connection points: 2
#     Edge 34, Type (0, 0), BuildingBlock: KIFKEQ_clean_linker_1, # of connection points: 2
#     Edge 35, Type (0, 0), BuildingBlock: KIFKEQ_clean_linker_1, # of connection points: 2
#     Edge 36, Type (0, 0), BuildingBlock: KIFKEQ_clean_linker_1, # of connection points: 2
#     Edge 37, Type (0, 0), BuildingBlock: KIFKEQ_clean_linker_1, # of connection points: 2
#     Edge 38, Type (0, 0), BuildingBlock: KIFKEQ_clean_linker_1, # of connection points: 2
#     Edge 39, Type (0, 0), BuildingBlock: KIFKEQ_clean_linker_1, # of connection points: 2
#     Edge 40, Type (0, 0), BuildingBlock: KIFKEQ_clean_linker_1, # of connection points: 2
#     Edge 41, Type (0, 0), BuildingBlock: KIFKEQ_clean_linker_1, # of connection points: 2
#     Edge 42, Type (0, 0), BuildingBlock: KIFKEQ_clean_linker_1, # of connection points: 2
#     Edge 43, Type (0, 0), BuildingBlock: KIFKEQ_clean_linker_1, # of connection points: 2
#     Edge 44, Type (0, 0), BuildingBlock: KIFKEQ_clean_linker_1, # of connection points: 2
#     Edge 45, Type (0, 0), BuildingBlock: KIFKEQ_clean_linker_1, # of connection points: 2
#     Edge 46, Type (0, 0), BuildingBlock: KIFKEQ_clean_linker_1, # of connection points: 2
#     Edge 47, Type (0, 0), BuildingBlock: KIFKEQ_clean_linker_1, # of connection points: 2
# Relax obj value: 0.206
# Max RMSD: 0.135
# Mean RMSD: 0.135
data_MOF--net-uoz--node1-UXUYUI_clean_sbu_0--edge1-KIFKEQ_clean_linker_1
_symmetry_space_group_name_H-M    P1
_symmetry_Int_Tables_number       1
_symmetry_cell_setting            triclinic
loop_
_symmetry_equiv_pos_as_xyz
'x, y, z'
_cell_length_a     87.641307
_cell_length_b     87.52201
_cell_length_c     33.586153
_cell_angle_alpha  89.986429
_cell_angle_beta   89.985829
_cell_angle_gamma 89.999819
loop_
_atom_site_label
_atom_site_type_symbol
_atom_site_fract_x
_atom_site_fract_y
_atom_site_fract_z
_atom_type_partial_charge
Li0 Li 0.98573 0.59649 0.32192 0.0
Li1 Li 0.01376 0.59509 0.31736 0.0
Li2 Li 0.99731 0.57383 0.29539 0.0
Li3 Li 0.99969 0.578 0.36586 0.0
C4 C 0.99348 0.60358 0.24474 0.0
N5 N 0.98223 0.62236 0.18546 0.0
C6 C 1.00007 0.61789 0.23795 0.0
C7 C 0.98135 0.59872 0.2209 0.0
C8 C 0.99418 0.62725 0.20795 0.0
C9 C 0.97577 0.60841 0.19124 0.0
C10 C 0.01013 0.60594 0.39579 0.0
C11 C 0.03347 0.60391 0.43345 0.0
N12 N 0.02842 0.61505 0.45843 0.0
C13 C 0.00517 0.61736 0.42182 0.0
C14 C 0.02439 0.59915 0.4016 0.0
C15 C 0.01458 0.62181 0.45331 0.0
C16 C 0.95473 0.60603 0.31034 0.0
N17 N 0.96945 0.61075 0.31361 0.0
C18 C 0.96296 0.63531 0.28752 0.0
C19 C 0.97354 0.62529 0.30438 0.0
C20 C 0.94786 0.63044 0.28092 0.0
C21 C 0.94369 0.61575 0.29414 0.0
H22 H 0.95166 0.59452 0.31867 0.0
H23 H 0.98532 0.62879 0.30756 0.0
C24 C 0.03837 0.60184 0.26838 0.0
N25 N 0.03109 0.60687 0.30163 0.0
C26 C 0.04946 0.61086 0.24995 0.0
C27 C 0.04542 0.63015 0.30031 0.0
C28 C 0.03445 0.62069 0.31796 0.0
C29 C 0.05292 0.62535 0.26543 0.0
H30 H 0.03495 0.59117 0.25489 0.0
H31 H 0.02813 0.62471 0.34354 0.0
C32 C 0.97027 0.56385 0.32532 0.0
N33 N 0.94966 0.54125 0.30486 0.0
C34 C 0.96896 0.55067 0.34866 0.0
C35 C 0.96103 0.56553 0.29169 0.0
C36 C 0.95848 0.53939 0.33781 0.0
C37 C 0.95071 0.55398 0.28179 0.0
C38 C 0.022 0.55866 0.31904 0.0
C39 C 0.01486 0.54553 0.33378 0.0
C40 C 0.03476 0.55722 0.2944 0.0
C41 C 0.02058 0.53118 0.32343 0.0
C42 C 0.04013 0.54266 0.28468 0.0
N43 N 0.03298 0.53005 0.29926 0.0
C44 C 0.00206 0.5635 0.2181 0.0
C45 C 0.99086 0.54461 0.2593 0.0
C46 C 0.002 0.55353 0.18574 0.0
N47 N 0.99633 0.55899 0.25384 0.0
C48 C 0.99045 0.53431 0.22769 0.0
C49 C 0.99602 0.53874 0.19022 0.0
H50 H 0.00681 0.57482 0.21481 0.0
H51 H 0.98694 0.541 0.2882 0.0
C52 C 0.9878 0.56498 0.43758 0.0
N53 N 1.00071 0.56737 0.41599 0.0
C54 C 0.98776 0.55449 0.46909 0.0
C55 C 0.01456 0.54992 0.4573 0.0
C56 C 0.01407 0.56049 0.42612 0.0
C57 C 0.00117 0.54641 0.47851 0.0
H58 H 0.97728 0.57051 0.42877 0.0
H59 H 0.02422 0.56259 0.40861 0.0
O60 O 0.99892 0.59436 0.27446 0.0
O61 O 1.00096 0.60145 0.36498 0.0
O62 O 0.9804 0.57508 0.33563 0.0
O63 O 0.0164 0.57281 0.3284 0.0
H64 H 0.00947 0.62186 0.25604 0.0
H65 H 0.97632 0.58757 0.22516 0.0
H66 H 0.99907 0.63841 0.20263 0.0
H67 H 0.96632 0.60483 0.17276 0.0
H68 H 0.04454 0.59876 0.43828 0.0
H69 H 0.99415 0.62272 0.4177 0.0
H70 H 0.02849 0.59036 0.38169 0.0
H71 H 0.01089 0.63064 0.47369 0.0
H72 H 0.96686 0.64642 0.2777 0.0
H73 H 0.93212 0.61161 0.29092 0.0
H74 H 0.05467 0.60684 0.22265 0.0
H75 H 0.04774 0.64123 0.31326 0.0
H76 H 0.97609 0.54903 0.37452 0.0
H77 H 0.96184 0.57562 0.27331 0.0
H78 H 0.95741 0.52911 0.3555 0.0
H79 H 0.94354 0.55513 0.25574 0.0
H80 H 0.00484 0.54641 0.35244 0.0
H81 H 0.04051 0.56722 0.28297 0.0
H82 H 0.0151 0.52094 0.33442 0.0
H83 H 0.04998 0.54138 0.26557 0.0
H84 H 0.00678 0.55732 0.15769 0.0
H85 H 0.98569 0.52305 0.23257 0.0
H86 H 0.97715 0.55214 0.48443 0.0
H87 H 0.02523 0.54424 0.46399 0.0
Li88 Li 0.67611 0.75174 0.60692 0.0
Li89 Li 0.65631 0.76657 0.56779 0.0
Li90 Li 0.65726 0.73805 0.56557 0.0
Li91 Li 0.6773 0.75326 0.53554 0.0
C92 C 0.64925 0.74262 0.64517 0.0
N93 N 0.64185 0.72481 0.7103 0.0
C94 C 0.63799 0.74744 0.6718 0.0
C95 C 0.65675 0.72873 0.65162 0.0
C96 C 0.63441 0.73828 0.70457 0.0
C97 C 0.65284 0.7199 0.68473 0.0
C98 C 0.68961 0.77899 0.55588 0.0
C99 C 0.69765 0.79616 0.50378 0.0
N100 N 0.71233 0.79479 0.51642 0.0
C101 C 0.70476 0.77781 0.5685 0.0
C102 C 0.686 0.78829 0.52338 0.0
C103 C 0.71609 0.78587 0.54811 0.0
C104 C 0.70326 0.74511 0.64591 0.0
N105 N 0.6891 0.75086 0.65286 0.0
C106 C 0.69561 0.75572 0.72096 0.0
C107 C 0.68506 0.75606 0.68953 0.0
C108 C 0.71045 0.75002 0.71452 0.0
C109 C 0.71413 0.74462 0.67626 0.0
H110 H 0.70622 0.7412 0.61635 0.0
H111 H 0.67373 0.76061 0.69432 0.0
C112 C 0.62796 0.77921 0.55151 0.0
N113 N 0.6424 0.78314 0.56202 0.0
C114 C 0.61785 0.79024 0.53717 0.0
C115 C 0.63737 0.80938 0.54707 0.0
C116 C 0.64714 0.79793 0.56113 0.0
C117 C 0.62264 0.80552 0.53367 0.0
H118 H 0.62463 0.76731 0.55174 0.0
H119 H 0.65874 0.80073 0.56933 0.0
C120 C 0.68425 0.72182 0.55021 0.0
N121 N 0.6933 0.69534 0.51218 0.0
C122 C 0.68043 0.71938 0.51033 0.0
C123 C 0.69273 0.71082 0.57073 0.0
C124 C 0.6851 0.70592 0.49163 0.0
C125 C 0.69718 0.69749 0.55099 0.0
C126 C 0.64994 0.7543 0.48454 0.0
C127 C 0.64638 0.74133 0.46206 0.0
C128 C 0.64725 0.76881 0.4685 0.0
C129 C 0.6403 0.74309 0.4239 0.0
C130 C 0.64115 0.77009 0.43023 0.0
N131 N 0.63783 0.75731 0.4089 0.0
C132 C 0.62977 0.72539 0.54371 0.0
C133 C 0.64814 0.70622 0.55716 0.0
C134 C 0.61966 0.71454 0.52854 0.0
N135 N 0.64385 0.72116 0.55649 0.0
C136 C 0.63835 0.69494 0.54227 0.0
C137 C 0.62401 0.6991 0.52677 0.0
H138 H 0.62671 0.73736 0.54323 0.0
H139 H 0.65933 0.70307 0.56786 0.0
C140 C 0.70587 0.74865 0.50024 0.0
N141 N 0.69161 0.75402 0.49265 0.0
C142 C 0.71691 0.74855 0.4703 0.0
C143 C 0.69842 0.75966 0.42542 0.0
C144 C 0.68779 0.75962 0.45626 0.0
C145 C 0.71316 0.75399 0.43222 0.0
H146 H 0.70865 0.74439 0.52959 0.0
H147 H 0.67658 0.76419 0.45105 0.0
O148 O 0.6529 0.75153 0.61309 0.0
O149 O 0.67843 0.77081 0.57466 0.0
O150 O 0.67978 0.73487 0.56929 0.0
O151 O 0.65561 0.75281 0.52237 0.0
H152 H 0.6321 0.75816 0.66719 0.0
H153 H 0.66549 0.72479 0.6314 0.0
H154 H 0.62572 0.74187 0.72544 0.0
H155 H 0.65855 0.70913 0.6901 0.0
H156 H 0.69504 0.8033 0.47838 0.0
H157 H 0.70775 0.77066 0.59356 0.0
H158 H 0.67436 0.7892 0.51295 0.0
H159 H 0.72787 0.78501 0.55741 0.0
H160 H 0.69214 0.75983 0.74998 0.0
H161 H 0.72544 0.7404 0.66942 0.0
H162 H 0.60674 0.78663 0.52673 0.0
H163 H 0.64148 0.82103 0.54554 0.0
H164 H 0.67401 0.72781 0.49397 0.0
H165 H 0.69577 0.71254 0.60165 0.0
H166 H 0.68221 0.70389 0.46077 0.0
H167 H 0.7037 0.68886 0.56653 0.0
H168 H 0.64823 0.72999 0.47391 0.0
H169 H 0.65004 0.779 0.48511 0.0
H170 H 0.63752 0.73314 0.40623 0.0
H171 H 0.63908 0.78124 0.41746 0.0
H172 H 0.60886 0.71838 0.51655 0.0
H173 H 0.64208 0.68315 0.54221 0.0
H174 H 0.72815 0.74403 0.47668 0.0
H175 H 0.69519 0.76423 0.39666 0.0
Li176 Li 0.50421 0.42728 0.78747 0.0
Li177 Li 0.50155 0.4246 0.86085 0.0
Li178 Li 0.51628 0.4055 0.81807 0.0
Li179 Li 0.48865 0.40655 0.81489 0.0
C180 C 0.52908 0.43983 0.81658 0.0
N181 N 0.54515 0.46514 0.79077 0.0
C182 C 0.52872 0.45338 0.83857 0.0
C183 C 0.53776 0.43911 0.7817 0.0
C184 C 0.53689 0.46606 0.82499 0.0
C185 C 0.54575 0.45204 0.76906 0.0
C186 C 0.47075 0.43203 0.81402 0.0
C187 C 0.44471 0.43327 0.83698 0.0
N188 N 0.44019 0.43755 0.79988 0.0
C189 C 0.46587 0.43658 0.77621 0.0
C190 C 0.46011 0.43048 0.84475 0.0
C191 C 0.45036 0.43926 0.76962 0.0
C192 C 0.50678 0.4374 0.70824 0.0
N193 N 0.50508 0.44205 0.74654 0.0
C194 C 0.50369 0.46815 0.72621 0.0
C195 C 0.50342 0.45705 0.75603 0.0
C196 C 0.50553 0.46369 0.68631 0.0
C197 C 0.50714 0.44808 0.67752 0.0
H198 H 0.5077 0.42538 0.70148 0.0
H199 H 0.50177 0.46035 0.78676 0.0
C200 C 0.50754 0.43393 0.94248 0.0
N201 N 0.50039 0.43719 0.90753 0.0
C202 C 0.50753 0.44463 0.97361 0.0
C203 C 0.4927 0.46165 0.93228 0.0
C204 C 0.49289 0.45064 0.90223 0.0
C205 C 0.50027 0.45884 0.96841 0.0
H206 H 0.51357 0.42322 0.9458 0.0
H207 H 0.48745 0.45303 0.87403 0.0
C208 C 0.50883 0.39495 0.74579 0.0
N209 N 0.52092 0.37222 0.69809 0.0
C210 C 0.50176 0.38065 0.7437 0.0
C211 C 0.52203 0.39768 0.72346 0.0
C212 C 0.50804 0.36932 0.71938 0.0
C213 C 0.52798 0.38604 0.69963 0.0
C214 C 0.49362 0.39328 0.89043 0.0
C215 C 0.49637 0.37765 0.89495 0.0
C216 C 0.4829 0.40051 0.9148 0.0
C217 C 0.48815 0.36944 0.9235 0.0
C218 C 0.47492 0.3919 0.94298 0.0
N219 N 0.47768 0.37667 0.94669 0.0
C220 C 0.54743 0.39761 0.80495 0.0
C221 C 0.53031 0.37673 0.80837 0.0
C222 C 0.55892 0.38813 0.79 0.0
N223 N 0.5333 0.39189 0.8124 0.0
C224 C 0.54138 0.36688 0.79299 0.0
C225 C 0.5558 0.37263 0.78222 0.0
H226 H 0.54956 0.40969 0.80856 0.0
H227 H 0.51892 0.37251 0.81401 0.0
C228 C 0.46559 0.39829 0.76386 0.0
N229 N 0.4707 0.39504 0.80115 0.0
C230 C 0.45391 0.38973 0.74666 0.0
C231 C 0.45282 0.37445 0.80646 0.0
C232 C 0.4644 0.38351 0.82285 0.0
C233 C 0.44758 0.37742 0.76766 0.0
H234 H 0.47112 0.40714 0.74665 0.0
H235 H 0.46865 0.38093 0.85219 0.0
O236 O 0.52091 0.42738 0.829 0.0
O237 O 0.48588 0.42923 0.82098 0.0
O238 O 0.503 0.40614 0.76994 0.0
O239 O 0.50161 0.4015 0.86279 0.0
H240 H 0.52219 0.45414 0.86579 0.0
H241 H 0.53814 0.42876 0.76421 0.0
H242 H 0.53666 0.47664 0.84164 0.0
H243 H 0.55239 0.45168 0.74193 0.0
H244 H 0.43634 0.43206 0.86046 0.0
H245 H 0.47393 0.43785 0.75205 0.0
H246 H 0.4637 0.42716 0.87429 0.0
H247 H 0.44641 0.44267 0.74043 0.0
H248 H 0.50215 0.48003 0.73422 0.0
H249 H 0.50871 0.44414 0.64722 0.0
H250 H 0.51358 0.44202 0.00089 0.0
H251 H 0.48678 0.47232 0.92711 0.0
H252 H 0.49168 0.37819 0.76108 0.0
H253 H 0.52777 0.40859 0.72495 0.0
H254 H 0.50272 0.35819 0.71765 0.0
H255 H 0.53826 0.38796 0.68251 0.0
H256 H 0.50471 0.3719 0.87655 0.0
H257 H 0.48079 0.41262 0.91208 0.0
H258 H 0.49011 0.35732 0.92721 0.0
H259 H 0.46655 0.39734 0.96196 0.0
H260 H 0.56996 0.39304 0.78328 0.0
H261 H 0.53827 0.35512 0.78725 0.0
H262 H 0.45042 0.39224 0.71642 0.0
H263 H 0.44819 0.36505 0.82362 0.0
Li264 Li 0.8273 0.24951 0.10819 0.0
Li265 Li 0.84662 0.2334 0.07002 0.0
Li266 Li 0.84658 0.26196 0.06521 0.0
Li267 Li 0.82616 0.24711 0.03622 0.0
C268 C 0.85499 0.25808 0.14488 0.0
N269 N 0.86414 0.27644 0.20735 0.0
C270 C 0.86735 0.25378 0.16862 0.0
C271 C 0.84729 0.27173 0.15284 0.0
C272 C 0.8718 0.26322 0.20009 0.0
C273 C 0.85208 0.28085 0.18457 0.0
C274 C 0.81266 0.22218 0.05967 0.0
C275 C 0.80351 0.20443 0.01018 0.0
N276 N 0.789 0.20667 0.02327 0.0
C277 C 0.79766 0.22426 0.07272 0.0
C278 C 0.81563 0.21215 0.02822 0.0
C279 C 0.78585 0.21633 0.0539 0.0
C280 C 0.80026 0.25745 0.14595 0.0
N281 N 0.8142 0.25135 0.1538 0.0
C282 C 0.80709 0.24718 0.22184 0.0
C283 C 0.81784 0.24633 0.19093 0.0
C284 C 0.79242 0.25315 0.21439 0.0
C285 C 0.78917 0.25839 0.17571 0.0
H286 H 0.79759 0.2612 0.11606 0.0
H287 H 0.82901 0.2415 0.19645 0.0
C288 C 0.87487 0.21977 0.05842 0.0
N289 N 0.86 0.21633 0.06563 0.0
C290 C 0.88484 0.20856 0.04431 0.0
C291 C 0.86417 0.1903 0.04694 0.0
C292 C 0.85464 0.20183 0.06161 0.0
C293 C 0.87937 0.19375 0.037 0.0
H294 H 0.87871 0.23148 0.06105 0.0
H295 H 0.84276 0.1994 0.0675 0.0
C296 C 0.82048 0.2799 0.05444 0.0
N297 N 0.8131 0.30861 0.02618 0.0
C298 C 0.82238 0.28337 0.01415 0.0
C299 C 0.81469 0.29098 0.08033 0.0
C300 C 0.81862 0.29796 1.00044 0.0
C301 C 0.81107 0.30544 0.06548 0.0
C302 C 0.852 0.24494 0.98415 0.0
C303 C 0.85315 0.25778 0.95955 0.0
C304 C 0.85552 0.23051 0.96879 0.0
C305 C 0.85759 0.25595 0.9199 0.0
C306 C 0.85991 0.22915 0.92896 0.0
N307 N 0.86084 0.24179 0.90553 0.0
C308 C 0.87291 0.27423 0.03362 0.0
C309 C 0.85712 0.29355 0.06091 0.0
C310 C 0.88234 0.28515 0.01612 0.0
N311 N 0.86024 0.27854 0.05411 0.0
C312 C 0.86647 0.30493 0.04446 0.0
C313 C 0.87894 0.30071 0.0206 0.0
H314 H 0.87525 0.26222 0.02908 0.0
H315 H 0.84709 0.29674 0.07766 0.0
C316 C 0.79854 0.2538 0.99766 0.0
N317 N 0.81197 0.24621 0.99314 0.0
C318 C 0.78768 0.25366 0.9673 0.0
C319 C 0.80444 0.23746 0.92874 0.0
C320 C 0.81499 0.238 0.9597 0.0
C321 C 0.79062 0.24544 0.93225 0.0
H322 H 0.79626 0.25993 0.02496 0.0
H323 H 0.82542 0.2316 0.9572 0.0
O324 O 0.85054 0.24897 0.11392 0.0
O325 O 0.82432 0.23015 0.07706 0.0
O326 O 0.82421 0.26573 0.06864 0.0
O327 O 0.84793 0.24651 0.02334 0.0
H328 H 0.87344 0.24325 0.16275 0.0
H329 H 0.83772 0.27525 0.1348 0.0
H330 H 0.88135 0.26003 0.21873 0.0
H331 H 0.84622 0.29144 0.19108 0.0
H332 H 0.80564 0.19675 0.98557 0.0
H333 H 0.79514 0.23195 0.097 0.0
H334 H 0.82711 0.21065 0.01711 0.0
H335 H 0.77418 0.21788 0.06362 0.0
H336 H 0.81026 0.24319 0.25121 0.0
H337 H 0.77802 0.2628 0.168 0.0
H338 H 0.89643 0.21172 0.03667 0.0
H339 H 0.85957 0.17897 0.04204 0.0
H340 H 0.8266 0.27487 0.99365 0.0
H341 H 0.8131 0.28845 0.11161 0.0
H342 H 0.82006 0.30081 0.96932 0.0
H343 H 0.80664 0.31415 0.0852 0.0
H344 H 0.85081 0.26908 0.97096 0.0
H345 H 0.85463 0.22041 0.98714 0.0
H346 H 0.85851 0.26579 0.90057 0.0
H347 H 0.86255 0.21803 0.91666 0.0
H348 H 0.892 0.28148 0.99841 0.0
H349 H 0.86355 0.31685 0.04868 0.0
H350 H 0.77704 0.25975 0.9714 0.0
H351 H 0.80714 0.23099 0.90217 0.0
Li352 Li 1.00041 0.42506 0.78635 0.0
Li353 Li 0.99729 0.4282 0.8596 0.0
Li354 Li 0.01324 0.40751 0.83328 0.0
Li355 Li 0.98567 0.40594 0.82924 0.0
C356 C 0.03096 0.43258 0.83518 0.0
N357 N 0.06148 0.43693 0.85251 0.0
C358 C 0.03532 0.43853 0.87209 0.0
C359 C 0.04212 0.429 0.80694 0.0
C360 C 0.05081 0.4406 0.88032 0.0
C361 C 0.05748 0.43123 0.81631 0.0
C362 C 0.972 0.43995 0.82768 0.0
C363 C 0.95399 0.45207 0.87189 0.0
N364 N 0.95435 0.46484 0.84879 0.0
C365 C 0.97213 0.45316 0.80427 0.0
C366 C 0.96279 0.43936 0.86164 0.0
C367 C 0.96314 0.46563 0.81548 0.0
C368 C 0.99192 0.43595 0.7078 0.0
N369 N 0.00155 0.43752 0.73933 0.0
C370 C 0.01162 0.46069 0.71212 0.0
C371 C 0.01142 0.44947 0.74162 0.0
C372 C 0.00149 0.45975 0.6798 0.0
C373 C 0.99177 0.44697 0.6774 0.0
H374 H 0.98398 0.4265 0.70702 0.0
H375 H 0.0188 0.45061 0.7672 0.0
C376 C 0.99638 0.4381 0.93888 0.0
N377 N 0.99586 0.44294 0.9005 0.0
C378 C 0.99578 0.44863 0.96993 0.0
C379 C 0.99434 0.46897 0.92131 0.0
C380 C 0.99512 0.45803 0.89119 0.0
C381 C 0.99467 0.46431 0.96136 0.0
H382 H 0.99756 0.42608 0.94542 0.0
H383 H 0.9952 0.46157 0.86035 0.0
C384 C 0.00891 0.39368 0.75825 0.0
N385 N 0.02541 0.37692 0.70342 0.0
C386 C 0.00661 0.37793 0.75487 0.0
C387 C 0.01944 0.40094 0.73339 0.0
C388 C 0.0151 0.36965 0.72705 0.0
C389 C 0.02772 0.39226 0.70597 0.0
C390 C 0.99285 0.39658 0.90337 0.0
C391 C 0.99981 0.38229 0.90742 0.0
C392 C 0.97977 0.39993 0.92558 0.0
C393 C 0.99352 0.37156 0.93349 0.0
C394 C 0.9738 0.38887 0.95122 0.0
N395 N 0.98075 0.37504 0.95463 0.0
C396 C 0.03586 0.39978 0.88601 0.0
C397 C 0.03767 0.38448 0.82812 0.0
C398 C 0.04737 0.3914 0.90454 0.0
N399 N 0.03111 0.39615 0.84866 0.0
C400 C 0.04911 0.37559 0.84585 0.0
C401 C 0.0539 0.37881 0.88501 0.0
H402 H 0.03026 0.40887 0.90212 0.0
H403 H 0.03372 0.38162 0.79867 0.0
C404 C 0.95456 0.39724 0.84216 0.0
N405 N 0.96895 0.39199 0.83551 0.0
C406 C 0.94339 0.38747 0.85768 0.0
C407 C 0.96186 0.36697 0.85718 0.0
C408 C 0.97256 0.37703 0.84104 0.0
C409 C 0.94722 0.37229 0.86686 0.0
H410 H 0.95199 0.40918 0.83768 0.0
H411 H 0.98411 0.37319 0.8359 0.0
O412 O 0.01586 0.43027 0.82676 0.0
O413 O 0.98085 0.42769 0.81742 0.0
O414 O 1.00063 0.40196 0.78513 0.0
O415 O 0.9987 0.40718 0.8775 0.0
H416 H 0.02688 0.44138 0.89433 0.0
H417 H 0.03897 0.42448 0.77817 0.0
H418 H 0.05435 0.4451 0.90885 0.0
H419 H 0.06624 0.42843 0.7948 0.0
H420 H 0.94691 0.45181 0.89825 0.0
H421 H 0.97914 0.45384 0.77786 0.0
H422 H 0.96259 0.42927 0.8802 0.0
H423 H 0.96318 0.47594 0.79772 0.0
H424 H 0.01948 0.47018 0.71497 0.0
H425 H 0.98369 0.44582 0.6532 0.0
H426 H 0.99652 0.44453 1.00029 0.0
H427 H 0.99343 0.48092 0.91329 0.0
H428 H 0.9984 0.37215 0.77361 0.0
H429 H 0.02117 0.41314 0.73511 0.0
H430 H 0.0135 0.35744 0.72424 0.0
H431 H 0.03595 0.39772 0.68664 0.0
H432 H 0.00982 0.37938 0.8902 0.0
H433 H 0.97421 0.4109 0.92279 0.0
H434 H 0.99874 0.36043 0.93674 0.0
H435 H 0.96363 0.39127 0.96834 0.0
H436 H 0.05083 0.39461 0.93432 0.0
H437 H 0.05366 0.36593 0.82961 0.0
H438 H 0.93221 0.39198 0.8648 0.0
H439 H 0.96518 0.3553 0.86358 0.0
Li440 Li 0.84647 0.73784 0.07562 0.0
Li441 Li 0.82622 0.75254 0.10631 0.0
Li442 Li 0.82734 0.75137 0.03472 0.0
Li443 Li 0.84696 0.76636 0.07415 0.0
C444 C 0.81985 0.7208 0.08924 0.0
N445 N 0.81157 0.69332 0.12348 0.0
C446 C 0.82305 0.71797 0.12931 0.0
C447 C 0.81238 0.70969 0.06659 0.0
C448 C 0.81879 0.704 0.14608 0.0
C449 C 0.80831 0.69586 0.08444 0.0
C450 C 0.85326 0.75364 0.15746 0.0
C451 C 0.86198 0.76896 0.21273 0.0
N452 N 0.86465 0.75601 0.234 0.0
C453 C 0.85617 0.74048 0.17988 0.0
C454 C 0.85626 0.768 0.174 0.0
C455 C 0.86189 0.74192 0.2185 0.0
C456 C 0.87383 0.72566 0.09965 0.0
N457 N 0.86018 0.72119 0.08453 0.0
C458 C 0.86625 0.69498 0.09721 0.0
C459 C 0.85641 0.70615 0.08189 0.0
C460 C 0.88003 0.69936 0.11554 0.0
C461 C 0.8839 0.71496 0.11562 0.0
H462 H 0.8765 0.73771 0.10156 0.0
H463 H 0.84556 0.70282 0.06937 0.0
C464 C 0.79781 0.74728 0.14194 0.0
N465 N 0.81195 0.75301 0.14929 0.0
C466 C 0.7867 0.74732 0.1717 0.0
C467 C 0.80487 0.75928 0.21595 0.0
C468 C 0.81559 0.75904 0.18533 0.0
C469 C 0.7902 0.75335 0.20936 0.0
H470 H 0.79514 0.74277 0.11277 0.0
H471 H 0.8267 0.76385 0.19037 0.0
C472 C 0.85432 0.74284 0.99606 0.0
N473 N 0.862 0.72542 0.93047 0.0
C474 C 0.86563 0.74786 0.96981 0.0
C475 C 0.84693 0.72895 0.989 0.0
C476 C 0.86935 0.73889 0.9368 0.0
C477 C 0.85097 0.72031 0.95567 0.0
C478 C 0.81352 0.77823 0.08672 0.0
C479 C 0.79838 0.77698 0.07404 0.0
C480 C 0.81704 0.78737 0.11958 0.0
C481 C 0.78698 0.78483 0.09468 0.0
C482 C 0.8053 0.79504 0.13943 0.0
N483 N 0.79064 0.79361 0.1267 0.0
C484 C 0.80015 0.74464 0.99614 0.0
C485 C 0.81804 0.75611 0.9525 0.0
C486 C 0.78909 0.74443 0.96623 0.0
N487 N 0.81423 0.75057 0.98903 0.0
C488 C 0.80731 0.75601 0.92147 0.0
C489 C 0.79251 0.7503 0.92833 0.0
H490 H 0.7974 0.74036 0.02549 0.0
H491 H 0.82929 0.76085 0.94763 0.0
C492 C 0.87533 0.77912 0.08883 0.0
N493 N 0.86069 0.78303 0.08021 0.0
C494 C 0.88553 0.79005 0.10319 0.0
C495 C 0.86564 0.80906 0.09756 0.0
C496 C 0.8558 0.79773 0.0832 0.0
C497 C 0.88061 0.80518 0.10885 0.0
H498 H 0.87878 0.76727 0.08698 0.0
H499 H 0.84407 0.80051 0.07642 0.0
O500 O 0.82401 0.73433 0.07198 0.0
O501 O 0.84794 0.75246 0.11922 0.0
O502 O 0.85054 0.75156 0.02839 0.0
O503 O 0.82478 0.77025 0.06766 0.0
H504 H 0.82868 0.72648 0.1473 0.0
H505 H 0.80984 0.71172 0.03549 0.0
H506 H 0.8212 0.70166 0.17707 0.0
H507 H 0.80256 0.68714 0.06725 0.0
H508 H 0.86426 0.78 0.2259 0.0
H509 H 0.85414 0.72925 0.16761 0.0
H510 H 0.85397 0.77833 0.15743 0.0
H511 H 0.86419 0.73184 0.23613 0.0
H512 H 0.86289 0.68309 0.09559 0.0
H513 H 0.89421 0.71904 0.1298 0.0
H514 H 0.77545 0.74287 0.16511 0.0
H515 H 0.80811 0.76393 0.2446 0.0
H516 H 0.87145 0.7586 0.9749 0.0
H517 H 0.83815 0.72486 0.00892 0.0
H518 H 0.87807 0.74264 0.91621 0.0
H519 H 0.84534 0.70954 0.94983 0.0
H520 H 0.79546 0.76995 0.04871 0.0
H521 H 0.82865 0.78829 0.13017 0.0
H522 H 0.77521 0.78391 0.08532 0.0
H523 H 0.80785 0.80204 0.16512 0.0
H524 H 0.77795 0.73971 0.97276 0.0
H525 H 0.81042 0.76073 0.8928 0.0
H526 H 0.89687 0.78647 0.11194 0.0
H527 H 0.86143 0.82062 0.10092 0.0
Li528 Li 0.48644 0.59521 0.32798 0.0
Li529 Li 0.51447 0.59716 0.32888 0.0
Li530 Li 0.50046 0.57661 0.28693 0.0
Li531 Li 0.50123 0.57541 0.35807 0.0
C532 C 0.49586 0.61098 0.25667 0.0
N533 N 0.4871 0.634 0.2051 0.0
C534 C 0.50012 0.6261 0.26409 0.0
C535 C 0.4875 0.60753 0.22236 0.0
C536 C 0.49547 0.63759 0.23788 0.0
C537 C 0.48309 0.61933 0.19684 0.0
C538 C 0.49223 0.59926 0.40838 0.0
C539 C 0.48772 0.61353 0.46869 0.0
N540 N 0.47568 0.60429 0.47723 0.0
C541 C 0.47986 0.58985 0.41789 0.0
C542 C 0.49624 0.61116 0.43408 0.0
C543 C 0.47162 0.59259 0.45276 0.0
C544 C 0.45569 0.60197 0.35118 0.0
N545 N 0.46902 0.6081 0.33786 0.0
C546 C 0.46055 0.63317 0.35575 0.0
C547 C 0.47152 0.62341 0.33955 0.0
C548 C 0.44697 0.62711 0.37159 0.0
C549 C 0.44448 0.61129 0.36817 0.0
H550 H 0.45417 0.58972 0.3514 0.0
H551 H 0.48244 0.62798 0.33068 0.0
C552 C 0.54575 0.60782 0.33364 0.0
N553 N 0.5307 0.61121 0.33828 0.0
C554 C 0.55691 0.61729 0.35059 0.0
C555 C 0.53684 0.63378 0.37487 0.0
C556 C 0.52615 0.6241 0.35741 0.0
C557 C 0.55243 0.63017 0.37274 0.0
H558 H 0.54905 0.59733 0.31895 0.0
H559 H 0.51411 0.62643 0.36093 0.0
C560 C 0.47042 0.56873 0.30263 0.0
N561 N 0.44508 0.56054 0.25851 0.0
C562 C 0.46359 0.55446 0.30825 0.0
C563 C 0.46428 0.57886 0.27477 0.0
C564 C 0.45082 0.55051 0.28559 0.0
C565 C 0.45149 0.57452 0.25273 0.0
C566 C 0.52823 0.56481 0.34085 0.0
C567 C 0.52789 0.54932 0.33077 0.0
C568 C 0.53757 0.56976 0.37202 0.0
C569 C 0.53682 0.539 0.35231 0.0
C570 C 0.54634 0.55909 0.39281 0.0
N571 N 0.54578 0.54405 0.38264 0.0
C572 C 0.50435 0.56771 0.20359 0.0
C573 C 0.49683 0.54865 0.2496 0.0
C574 C 0.50427 0.55698 0.17251 0.0
N575 N 0.5006 0.56337 0.24124 0.0
C576 C 0.49665 0.5376 0.21967 0.0
C577 C 0.50036 0.54164 0.18034 0.0
H578 H 0.50745 0.57946 0.19766 0.0
H579 H 0.49412 0.54543 0.27987 0.0
C580 C 0.49666 0.54719 0.39567 0.0
N581 N 0.50248 0.56142 0.40089 0.0
C582 C 0.49739 0.53651 0.4264 0.0
C583 C 0.51031 0.55531 0.46704 0.0
C584 C 0.50927 0.56564 0.43556 0.0
C585 C 0.50427 0.54054 0.46272 0.0
H586 H 0.49151 0.54415 0.36754 0.0
H587 H 0.514 0.57699 0.43859 0.0
O588 O 0.50057 0.59954 0.28167 0.0
O589 O 0.5004 0.59688 0.37416 0.0
O590 O 0.48311 0.57264 0.32415 0.0
O591 O 0.51925 0.57504 0.32085 0.0
H592 H 0.50689 0.62897 0.2899 0.0
H593 H 0.48451 0.59585 0.21533 0.0
H594 H 0.49857 0.64936 0.24352 0.0
H595 H 0.47653 0.61682 0.17036 0.0
H596 H 0.49068 0.62272 0.48879 0.0
H597 H 0.47659 0.58055 0.39851 0.0
H598 H 0.50584 0.61849 0.42745 0.0
H599 H 0.46199 0.58543 0.46036 0.0
H600 H 0.46297 0.64529 0.35713 0.0
H601 H 0.4344 0.60597 0.38062 0.0
H602 H 0.56882 0.61408 0.34842 0.0
H603 H 0.53291 0.64372 0.39113 0.0
H604 H 0.46814 0.54647 0.32975 0.0
H605 H 0.46918 0.59004 0.27073 0.0
H606 H 0.44546 0.53948 0.28954 0.0
H607 H 0.44662 0.58228 0.23113 0.0
H608 H 0.52075 0.54529 0.30675 0.0
H609 H 0.53779 0.58166 0.38064 0.0
H610 H 0.53661 0.52697 0.34496 0.0
H611 H 0.55353 0.56274 0.4172 0.0
H612 H 0.50711 0.5607 0.14267 0.0
H613 H 0.4939 0.52593 0.22756 0.0
H614 H 0.49245 0.5253 0.42192 0.0
H615 H 0.51594 0.55881 0.49425 0.0
Li616 Li 0.65785 0.26401 0.58069 0.0
Li617 Li 0.67862 0.24775 0.60557 0.0
Li618 Li 0.67501 0.25138 0.53374 0.0
Li619 Li 0.65685 0.23599 0.57391 0.0
C620 C 0.68237 0.282 0.57916 0.0
N621 N 0.68589 0.31308 0.58999 0.0
C622 C 0.68925 0.28757 0.61377 0.0
C623 C 0.6774 0.2922 0.54991 0.0
C624 C 0.6909 0.30333 0.61872 0.0
C625 C 0.67924 0.30788 0.55599 0.0
C626 C 0.64662 0.2423 0.64753 0.0
C627 C 0.63787 0.22198 0.69045 0.0
N628 N 0.62417 0.22914 0.69415 0.0
C629 C 0.63246 0.24947 0.65186 0.0
C630 C 0.64937 0.22847 0.66713 0.0
C631 C 0.62127 0.24264 0.67556 0.0
C632 C 0.63316 0.28555 0.57563 0.0
N633 N 0.64602 0.28143 0.59557 0.0
C634 C 0.64081 0.29963 0.64687 0.0
C635 C 0.64996 0.28821 0.63051 0.0
C636 C 0.62723 0.30383 0.62771 0.0
C637 C 0.62348 0.29676 0.59141 0.0
H638 H 0.63011 0.2797 0.5484 0.0
H639 H 0.65988 0.28426 0.6466 0.0
C640 C 0.70837 0.2489 0.63699 0.0
N641 N 0.69348 0.24634 0.6462 0.0
C642 C 0.71949 0.24828 0.66664 0.0
C643 C 0.69971 0.24257 0.71462 0.0
C644 C 0.68898 0.24336 0.6841 0.0
C645 C 0.71518 0.24507 0.70604 0.0
H646 H 0.71155 0.2515 0.60662 0.0
H647 H 0.67704 0.24183 0.6908 0.0
C648 C 0.649 0.25068 0.49348 0.0
N649 N 0.64393 0.24793 0.41267 0.0
C650 C 0.64526 0.23648 0.47715 0.0
C651 C 0.65007 0.2635 0.46885 0.0
C652 C 0.64274 0.23533 0.43618 0.0
C653 C 0.6475 0.26186 0.42802 0.0
C654 C 0.69144 0.22387 0.57307 0.0
C655 C 0.70491 0.22579 0.55134 0.0
C656 C 0.69132 0.21418 0.60618 0.0
C657 C 0.71808 0.21805 0.56326 0.0
C658 C 0.70474 0.20668 0.6172 0.0
N659 N 0.71773 0.20875 0.5957 0.0
C660 C 0.69798 0.26396 0.48529 0.0
C661 C 0.6857 0.24284 0.45523 0.0
C662 C 0.70863 0.26462 0.45438 0.0
N663 N 0.68685 0.25314 0.48542 0.0
C664 C 0.69607 0.24317 0.42342 0.0
C665 C 0.70794 0.25404 0.42294 0.0
H666 H 0.69906 0.27171 0.51014 0.0
H667 H 0.67708 0.23402 0.45646 0.0
C668 C 0.62804 0.22209 0.58183 0.0
N669 N 0.64318 0.219 0.57846 0.0
C670 C 0.61802 0.211 0.59649 0.0
C671 C 0.63913 0.19331 0.60016 0.0
C672 C 0.64876 0.20479 0.58578 0.0
C673 C 0.62363 0.19652 0.60732 0.0
H674 H 0.62394 0.23355 0.57615 0.0
H675 H 0.66083 0.2026 0.58267 0.0
O676 O 0.68049 0.26662 0.57395 0.0
O677 O 0.65764 0.24866 0.62376 0.0
O678 O 0.65165 0.25202 0.53341 0.0
O679 O 0.67849 0.23159 0.56233 0.0
H680 H 0.69314 0.27982 0.63671 0.0
H681 H 0.67209 0.28804 0.52293 0.0
H682 H 0.69613 0.30782 0.64544 0.0
H683 H 0.67538 0.31592 0.5337 0.0
H684 H 0.6398 0.21121 0.70541 0.0
H685 H 0.63003 0.2601 0.63679 0.0
H686 H 0.66018 0.22265 0.66379 0.0
H687 H 0.61024 0.24804 0.67902 0.0
H688 H 0.64395 0.30458 0.67528 0.0
H689 H 0.61305 0.29968 0.57585 0.0
H690 H 0.73132 0.25023 0.65884 0.0
H691 H 0.69589 0.24038 0.74476 0.0
H692 H 0.64441 0.22645 0.49586 0.0
H693 H 0.6529 0.27457 0.48113 0.0
H694 H 0.63989 0.22441 0.42307 0.0
H695 H 0.64835 0.27167 0.40853 0.0
H696 H 0.70525 0.23325 0.5257 0.0
H697 H 0.68107 0.21268 0.62362 0.0
H698 H 0.72859 0.21948 0.5468 0.0
H699 H 0.70484 0.19925 0.64295 0.0
H700 H 0.71771 0.27299 0.45613 0.0
H701 H 0.69492 0.23483 0.39982 0.0
H702 H 0.60624 0.21413 0.60171 0.0
H703 H 0.64392 0.18222 0.60705 0.0
Li704 Li 0.32578 0.25218 0.608 0.0
Li705 Li 0.34631 0.23771 0.57762 0.0
Li706 Li 0.34656 0.26626 0.57657 0.0
Li707 Li 0.32722 0.25118 0.53643 0.0
C708 C 0.35251 0.25309 0.66001 0.0
N709 N 0.36345 0.25476 0.73713 0.0
C710 C 0.3552 0.23974 0.68181 0.0
C711 C 0.35548 0.2673 0.67748 0.0
C712 C 0.36071 0.24083 0.72073 0.0
C713 C 0.36097 0.2679 0.71649 0.0
C714 C 0.31973 0.22034 0.58964 0.0
C715 C 0.30856 0.1953 0.58279 0.0
N716 N 0.3114 0.19254 0.62195 0.0
C717 C 0.32248 0.21729 0.62982 0.0
C718 C 0.31267 0.2093 0.5659 0.0
C719 C 0.3182 0.20316 0.64561 0.0
C720 C 0.29735 0.24637 0.64329 0.0
N721 N 0.31137 0.25241 0.65068 0.0
C722 C 0.30424 0.25825 0.71757 0.0
C723 C 0.31488 0.25847 0.68678 0.0
C724 C 0.28977 0.2519 0.71097 0.0
C725 C 0.28629 0.24603 0.67317 0.0
H726 H 0.29479 0.24181 0.61412 0.0
H727 H 0.32583 0.26367 0.69172 0.0
C728 C 0.37369 0.226 0.6025 0.0
N729 N 0.36017 0.22122 0.58708 0.0
C730 C 0.38365 0.21558 0.62008 0.0
C731 C 0.36636 0.19521 0.60211 0.0
C732 C 0.35656 0.20611 0.58529 0.0
C733 C 0.3798 0.20003 0.62114 0.0
H734 H 0.37625 0.23808 0.60354 0.0
H735 H 0.3458 0.20254 0.5727 0.0
C736 C 0.31326 0.27798 0.5891 0.0
N737 N 0.29071 0.29344 0.6301 0.0
C738 C 0.29801 0.27659 0.5775 0.0
C739 C 0.31706 0.28731 0.62139 0.0
C740 C 0.28677 0.28448 0.59866 0.0
C741 C 0.30548 0.29502 0.64177 0.0
C742 C 0.35437 0.24298 0.49825 0.0
C743 C 0.36545 0.24833 0.47176 0.0
C744 C 0.34734 0.2289 0.49129 0.0
C745 C 0.3693 0.23948 0.43861 0.0
C746 C 0.3515 0.22039 0.45781 0.0
N747 N 0.3623 0.22582 0.43239 0.0
C748 C 0.3744 0.27921 0.59541 0.0
C749 C 0.35534 0.29783 0.58326 0.0
C750 C 0.38425 0.29031 0.61044 0.0
N751 N 0.36011 0.28305 0.58338 0.0
C752 C 0.36491 0.30938 0.59775 0.0
C753 C 0.37944 0.30562 0.61281 0.0
H754 H 0.37775 0.26731 0.59588 0.0
H755 H 0.34387 0.30056 0.57378 0.0
C756 C 0.30006 0.24467 0.49775 0.0
N757 N 0.31421 0.2504 0.49055 0.0
C758 C 0.289 0.2445 0.46782 0.0
C759 C 0.30738 0.25571 0.42286 0.0
C760 C 0.3181 0.25578 0.45392 0.0
C761 C 0.29251 0.25022 0.42982 0.0
H762 H 0.29725 0.2405 0.52718 0.0
H763 H 0.32941 0.26037 0.44899 0.0
O764 O 0.34744 0.25228 0.62147 0.0
O765 O 0.32389 0.23404 0.57335 0.0
O766 O 0.32437 0.26996 0.5696 0.0
O767 O 0.35045 0.25158 0.53067 0.0
H768 H 0.35317 0.22862 0.66885 0.0
H769 H 0.35334 0.27778 0.6614 0.0
H770 H 0.36285 0.23058 0.73786 0.0
H771 H 0.36323 0.27882 0.73038 0.0
H772 H 0.30313 0.18663 0.56475 0.0
H773 H 0.32777 0.22575 0.64865 0.0
H774 H 0.31046 0.21151 0.53471 0.0
H775 H 0.32027 0.20064 0.67667 0.0
H776 H 0.30722 0.2632 0.74609 0.0
H777 H 0.27525 0.24102 0.66697 0.0
H778 H 0.394 0.21971 0.63402 0.0
H779 H 0.36304 0.18329 0.60231 0.0
H780 H 0.29487 0.26939 0.55265 0.0
H781 H 0.32877 0.28836 0.63109 0.0
H782 H 0.27491 0.28344 0.59015 0.0
H783 H 0.30824 0.30218 0.667 0.0
H784 H 0.37099 0.25922 0.47675 0.0
H785 H 0.33875 0.22455 0.51138 0.0
H786 H 0.37784 0.24349 0.41784 0.0
H787 H 0.34614 0.20948 0.45204 0.0
H788 H 0.39518 0.28672 0.62219 0.0
H789 H 0.36078 0.32103 0.59824 0.0
H790 H 0.2778 0.23995 0.47442 0.0
H791 H 0.31056 0.26031 0.3941 0.0
Li792 Li 0.15573 0.7641 0.07507 0.0
Li793 Li 0.17548 0.7481 0.10465 0.0
Li794 Li 0.17431 0.75026 0.03323 0.0
Li795 Li 0.15417 0.73566 0.07163 0.0
C796 C 0.18341 0.77902 0.09353 0.0
N797 N 0.19382 0.80375 0.13682 0.0
C798 C 0.17904 0.78087 0.13327 0.0
C799 C 0.19311 0.78972 0.07584 0.0
C800 C 0.18442 0.79345 0.15465 0.0
C801 C 0.19824 0.80216 0.09821 0.0
C802 C 0.14733 0.74731 0.15442 0.0
C803 C 0.13827 0.73108 0.20752 0.0
N804 N 0.13374 0.74366 0.22813 0.0
C805 C 0.14259 0.76008 0.17621 0.0
C806 C 0.14517 0.73268 0.17026 0.0
C807 C 0.13575 0.75799 0.21338 0.0
C808 C 0.12772 0.77726 0.09125 0.0
N809 N 0.14252 0.78116 0.08482 0.0
C810 C 0.13776 0.80653 0.10824 0.0
C811 C 0.14752 0.79566 0.09138 0.0
C812 C 0.12263 0.80254 0.11784 0.0
C813 C 0.11753 0.78782 0.10753 0.0
H814 H 0.12405 0.76565 0.0858 0.0
H815 H 0.15925 0.79864 0.0855 0.0
C816 C 0.20466 0.74915 0.13756 0.0
N817 N 0.18981 0.74668 0.14725 0.0
C818 C 0.21594 0.74859 0.16678 0.0
C819 C 0.1964 0.74325 0.21562 0.0
C820 C 0.18553 0.74374 0.18537 0.0
C821 C 0.21186 0.74569 0.20655 0.0
H822 H 0.20772 0.75156 0.10699 0.0
H823 H 0.17372 0.74193 0.19262 0.0
C824 C 0.14788 0.7603 0.99517 0.0
N825 N 0.14134 0.77882 0.93077 0.0
C826 C 0.13688 0.75585 0.9674 0.0
C827 C 0.15555 0.77418 0.99024 0.0
C828 C 0.13374 0.76537 0.93502 0.0
C829 C 0.15208 0.78338 0.95747 0.0
C830 C 0.1873 0.72212 0.08121 0.0
C831 C 0.20197 0.72198 0.06491 0.0
C832 C 0.18415 0.71335 0.11501 0.0
C833 C 0.21332 0.7132 0.08306 0.0
C834 C 0.19581 0.70475 0.13233 0.0
N835 N 0.21004 0.70486 0.11615 0.0
C836 C 0.20164 0.75686 0.99534 0.0
C837 C 0.18379 0.74585 0.95087 0.0
C838 C 0.21278 0.75721 0.96563 0.0
N839 N 0.18753 0.75114 0.98769 0.0
C840 C 0.19463 0.74603 0.92008 0.0
C841 C 0.20945 0.75159 0.92741 0.0
H842 H 0.20436 0.76087 0.02495 0.0
H843 H 0.17251 0.74126 0.94559 0.0
C844 C 0.12565 0.72311 0.08789 0.0
N845 N 0.1401 0.71922 0.07729 0.0
C846 C 0.11565 0.71207 0.10276 0.0
C847 C 0.13528 0.69303 0.09318 0.0
C848 C 0.14494 0.70447 0.07859 0.0
C849 C 0.12057 0.69685 0.10675 0.0
H850 H 0.12226 0.735 0.08746 0.0
H851 H 0.15656 0.70172 0.07045 0.0
O852 O 0.17844 0.76671 0.07205 0.0
O853 O 0.15383 0.74913 0.11763 0.0
O854 O 0.15111 0.75103 0.02686 0.0
O855 O 0.17613 0.73094 0.06445 0.0
H856 H 0.17157 0.77271 0.14746 0.0
H857 H 0.19661 0.78844 0.04511 0.0
H858 H 0.18111 0.79503 0.1854 0.0
H859 H 0.20573 0.81055 0.08488 0.0
H860 H 0.13654 0.71983 0.22008 0.0
H861 H 0.14421 0.7715 0.16467 0.0
H862 H 0.14887 0.72266 0.15419 0.0
H863 H 0.13204 0.76778 0.2305 0.0
H864 H 0.14232 0.81768 0.11557 0.0
H865 H 0.10589 0.78427 0.11316 0.0
H866 H 0.22773 0.75034 0.15823 0.0
H867 H 0.19265 0.74128 0.2459 0.0
H868 H 0.13086 0.74513 0.97082 0.0
H869 H 0.16409 0.77785 0.01138 0.0
H870 H 0.12526 0.76206 0.91327 0.0
H871 H 0.15793 0.79415 0.95327 0.0
H872 H 0.20459 0.72865 0.03867 0.0
H873 H 0.17288 0.71338 0.12809 0.0
H874 H 0.22475 0.71305 0.0709 0.0
H875 H 0.19357 0.69802 0.15871 0.0
H876 H 0.22392 0.76184 0.97263 0.0
H877 H 0.19155 0.74147 0.8912 0.0
H878 H 0.10454 0.71565 0.11331 0.0
H879 H 0.13949 0.68142 0.09509 0.0
Li880 Li 0.17581 0.25171 0.1092 0.0
Li881 Li 0.15637 0.26671 0.0692 0.0
Li882 Li 0.15663 0.23819 0.06852 0.0
Li883 Li 0.17707 0.25262 0.0377 0.0
C884 C 0.14867 0.24356 0.14779 0.0
N885 N 0.14066 0.22644 0.21368 0.0
C886 C 0.13725 0.24872 0.17353 0.0
C887 C 0.15601 0.22969 0.15552 0.0
C888 C 0.13337 0.23989 0.2067 0.0
C889 C 0.1518 0.22121 0.18899 0.0
C890 C 0.18979 0.27836 0.05648 0.0
C891 C 0.19782 0.29537 0.00401 0.0
N892 N 0.21257 0.29359 0.01574 0.0
C893 C 0.20501 0.27676 0.06816 0.0
C894 C 0.18614 0.28779 0.02427 0.0
C895 C 0.21636 0.28454 0.04714 0.0
C896 C 0.20285 0.24482 0.14828 0.0
N897 N 0.18882 0.2509 0.15508 0.0
C898 C 0.19554 0.25612 0.22286 0.0
C899 C 0.18495 0.25644 0.19153 0.0
C900 C 0.21026 0.2501 0.21654 0.0
C901 C 0.21377 0.24435 0.17853 0.0
H902 H 0.20568 0.24063 0.11889 0.0
H903 H 0.17371 0.26124 0.19621 0.0
C904 C 0.12846 0.27945 0.05059 0.0
N905 N 0.14275 0.28344 0.06237 0.0
C906 C 0.11861 0.2904 0.03481 0.0
C907 C 0.13788 0.30964 0.04655 0.0
C908 C 0.14748 0.29824 0.06173 0.0
C909 C 0.12345 0.30563 0.03153 0.0
H910 H 0.12511 0.26756 0.05093 0.0
H911 H 0.15898 0.30107 0.0708 0.0
C912 C 0.18301 0.2209 0.05519 0.0
N913 N 0.19091 0.19333 0.02088 0.0
C914 C 0.17963 0.21807 0.01523 0.0
C915 C 0.19047 0.20974 0.07769 0.0
C916 C 0.1837 0.20406 0.99842 0.0
C917 C 0.19436 0.19586 0.05981 0.0
C918 C 0.1501 0.25382 0.98613 0.0
C919 C 0.14681 0.24067 0.96407 0.0
C920 C 0.14751 0.26819 0.96919 0.0
C921 C 0.14109 0.24212 0.92544 0.0
C922 C 0.14176 0.26917 0.93049 0.0
N923 N 0.1387 0.25622 0.90959 0.0
C924 C 0.12918 0.22607 0.04485 0.0
C925 C 0.14632 0.20656 0.06442 0.0
C926 C 0.11891 0.2153 0.03014 0.0
N927 N 0.14278 0.22161 0.06035 0.0
C928 C 0.13627 0.19533 0.05044 0.0
C929 C 0.12249 0.19965 0.03195 0.0
H930 H 0.12668 0.23812 0.04185 0.0
H931 H 0.15714 0.20325 0.07723 0.0
C932 C 0.20543 0.24677 0.0021 0.0
N933 N 0.19142 0.25283 0.99485 0.0
C934 C 0.2165 0.24656 0.97224 0.0
C935 C 0.19857 0.25894 0.92813 0.0
C936 C 0.1879 0.25898 0.95887 0.0
C937 C 0.21309 0.25265 0.93457 0.0
H938 H 0.20802 0.24219 0.03123 0.0
H939 H 0.17691 0.26408 0.95393 0.0
O940 O 0.1526 0.25212 0.1153 0.0
O941 O 0.17856 0.27046 0.07588 0.0
O942 O 0.17904 0.23447 0.07249 0.0
O943 O 0.15538 0.25263 0.02444 0.0
H944 H 0.13147 0.25943 0.16793 0.0
H945 H 0.16488 0.2255 0.13601 0.0
H946 H 0.12456 0.24375 0.2269 0.0
H947 H 0.15739 0.21046 0.19534 0.0
H948 H 0.19518 0.3026 0.97881 0.0
H949 H 0.20803 0.26949 0.09297 0.0
H950 H 0.17444 0.28901 0.01453 0.0
H951 H 0.2282 0.28334 0.05571 0.0
H952 H 0.19219 0.26051 0.25171 0.0
H953 H 0.22498 0.23986 0.17176 0.0
H954 H 0.10751 0.28689 0.02396 0.0
H955 H 0.14203 0.32127 0.04439 0.0
H956 H 0.17401 0.22663 0.99735 0.0
H957 H 0.19316 0.21176 0.10871 0.0
H958 H 0.18115 0.20172 0.96751 0.0
H959 H 0.2001 0.1871 0.07689 0.0
H960 H 0.14855 0.22943 0.97662 0.0
H961 H 0.15012 0.27852 0.98543 0.0
H962 H 0.13851 0.23204 0.9081 0.0
H963 H 0.13977 0.28022 0.91704 0.0
H964 H 0.10863 0.21933 0.01572 0.0
H965 H 0.13941 0.18342 0.05335 0.0
H966 H 0.22765 0.24184 0.97876 0.0
H967 H 0.19538 0.26366 0.89951 0.0
Li968 Li 0.3446 0.73636 0.56619 0.0
Li969 Li 0.32666 0.75184 0.60783 0.0
Li970 Li 0.32375 0.7501 0.53408 0.0
Li971 Li 0.34501 0.76323 0.56268 0.0
C972 C 0.31925 0.72111 0.59845 0.0
N973 N 0.31338 0.69659 0.648 0.0
C974 C 0.32871 0.7182 0.6311 0.0
C975 C 0.30684 0.71151 0.59094 0.0
C976 C 0.32554 0.70576 0.65582 0.0
C977 C 0.30406 0.69918 0.61634 0.0
C978 C 0.35829 0.76135 0.62986 0.0
C979 C 0.36055 0.78413 0.66983 0.0
N980 N 0.37593 0.78391 0.6644 0.0
C981 C 0.37412 0.7613 0.62481 0.0
C982 C 0.35144 0.77282 0.65264 0.0
C983 C 0.38284 0.77283 0.64247 0.0
C984 C 0.37236 0.72113 0.55587 0.0
N985 N 0.35711 0.71859 0.55907 0.0
C986 C 0.36013 0.69317 0.53404 0.0
C987 C 0.35092 0.70482 0.54937 0.0
C988 C 0.37585 0.69569 0.52903 0.0
C989 C 0.38201 0.70973 0.54129 0.0
H990 H 0.3769 0.73234 0.56217 0.0
H991 H 0.33872 0.70319 0.55089 0.0
C992 C 0.29911 0.75692 0.64572 0.0
N993 N 0.31376 0.75291 0.65393 0.0
C994 C 0.28813 0.75724 0.67583 0.0
C995 C 0.30745 0.74926 0.7227 0.0
C996 C 0.31812 0.74913 0.69153 0.0
C997 C 0.29217 0.75332 0.71503 0.0
H998 H 0.29591 0.75964 0.61543 0.0
H999 H 0.32981 0.74583 0.69723 0.0
C1000 C 0.34618 0.73966 0.48466 0.0
N1001 N 0.34838 0.72089 0.41865 0.0
C1002 C 0.35673 0.7429 0.45458 0.0
C1003 C 0.33666 0.72691 0.48088 0.0
C1004 C 0.35769 0.73327 0.42152 0.0
C1005 C 0.33797 0.71755 0.44738 0.0
C1006 C 0.32102 0.78352 0.56548 0.0
C1007 C 0.32229 0.79065 0.5284 0.0
C1008 C 0.31761 0.79223 0.59922 0.0
C1009 C 0.32029 0.80645 0.52574 0.0
C1010 C 0.31567 0.808 0.59531 0.0
N1011 N 0.31706 0.81473 0.55897 0.0
C1012 C 0.29607 0.74194 0.49772 0.0
C1013 C 0.31243 0.75725 0.45809 0.0
C1014 C 0.28545 0.7411 0.46688 0.0
N1015 N 0.30924 0.74986 0.49266 0.0
C1016 C 0.30207 0.75687 0.42663 0.0
C1017 C 0.28838 0.74863 0.43067 0.0
H1018 H 0.2939 0.73616 0.52559 0.0
H1019 H 0.32309 0.76335 0.45488 0.0
C1020 C 0.37053 0.77479 0.52625 0.0
N1021 N 0.35913 0.77957 0.5507 0.0
C1022 C 0.38042 0.78528 0.50873 0.0
C1023 C 0.3677 0.80548 0.54472 0.0
C1024 C 0.35792 0.79452 0.56148 0.0
C1025 C 0.37878 0.80091 0.51684 0.0
H1026 H 0.37168 0.76279 0.51948 0.0
H1027 H 0.34912 0.79808 0.58196 0.0
O1028 O 0.32206 0.73326 0.57382 0.0
O1029 O 0.34945 0.75051 0.61175 0.0
O1030 O 0.34522 0.74899 0.51737 0.0
O1031 O 0.32287 0.76807 0.56874 0.0
H1032 H 0.33841 0.72542 0.63738 0.0
H1033 H 0.29944 0.71353 0.56571 0.0
H1034 H 0.33275 0.7034 0.68122 0.0
H1035 H 0.29449 0.69166 0.61088 0.0
H1036 H 0.35539 0.79311 0.68736 0.0
H1037 H 0.37962 0.75257 0.60718 0.0
H1038 H 0.33921 0.77308 0.65666 0.0
H1039 H 0.39509 0.77298 0.63863 0.0
H1040 H 0.35495 0.6825 0.52488 0.0
H1041 H 0.39402 0.71222 0.53729 0.0
H1042 H 0.27649 0.76016 0.66819 0.0
H1043 H 0.31114 0.74626 0.75245 0.0
H1044 H 0.36409 0.75279 0.45659 0.0
H1045 H 0.32833 0.7242 0.50351 0.0
H1046 H 0.36583 0.73564 0.3981 0.0
H1047 H 0.33071 0.70763 0.44424 0.0
H1048 H 0.32499 0.78409 0.50208 0.0
H1049 H 0.31648 0.78686 0.6281 0.0
H1050 H 0.32135 0.81215 0.49728 0.0
H1051 H 0.31308 0.81489 0.62117 0.0
H1052 H 0.27518 0.73441 0.4712 0.0
H1053 H 0.30473 0.76304 0.39958 0.0
H1054 H 0.3891 0.78121 0.48837 0.0
H1055 H 0.36617 0.81742 0.55213 0.0
Li1056 Li 0.51538 0.09525 0.81472 0.0
Li1057 Li 0.48739 0.09614 0.81906 0.0
Li1058 Li 0.50158 0.07796 0.86321 0.0
Li1059 Li 0.49927 0.07369 0.79271 0.0
C1060 C 0.51158 0.10606 0.89294 0.0
N1061 N 0.52979 0.11555 0.95538 0.0
C1062 C 0.50653 0.11754 0.91867 0.0
C1063 C 0.52591 0.09941 0.89895 0.0
C1064 C 0.5159 0.12218 0.95007 0.0
C1065 C 0.53493 0.10436 0.9307 0.0
C1066 C 0.49488 0.10369 0.74269 0.0
C1067 C 0.47669 0.10886 0.69048 0.0
N1068 N 0.48296 0.12293 0.68532 0.0
C1069 C 0.50125 0.11815 0.73654 0.0
C1070 C 0.48261 0.09893 0.71917 0.0
C1071 C 0.49503 0.12773 0.70749 0.0
C1072 C 0.54055 0.10211 0.76747 0.0
N1073 N 0.53259 0.10731 0.79947 0.0
C1074 C 0.54621 0.131 0.7977 0.0
C1075 C 0.53526 0.12142 0.81496 0.0
C1076 C 0.55446 0.12599 0.76423 0.0
C1077 C 0.5517 0.11122 0.74962 0.0
H1078 H 0.53765 0.0912 0.75448 0.0
H1079 H 0.52841 0.12554 0.83948 0.0
C1080 C 0.4563 0.10519 0.80659 0.0
N1081 N 0.47089 0.11016 0.81098 0.0
C1082 C 0.44511 0.11495 0.79124 0.0
C1083 C 0.46398 0.135 0.78743 0.0
C1084 C 0.47472 0.12492 0.80339 0.0
C1085 C 0.449 0.12995 0.78 0.0
H1086 H 0.45344 0.09348 0.8135 0.0
H1087 H 0.48641 0.1286 0.80729 0.0
C1088 C 0.52435 0.0589 0.81751 0.0
N1089 N 0.53621 0.03039 0.80028 0.0
C1090 C 0.51733 0.04573 0.83234 0.0
C1091 C 0.53747 0.05755 0.79412 0.0
C1092 C 0.52348 0.03143 0.82327 0.0
C1093 C 0.54327 0.04304 0.78567 0.0
C1094 C 0.47267 0.06305 0.82274 0.0
C1095 C 0.47174 0.04995 0.84649 0.0
C1096 C 0.46351 0.06424 0.78882 0.0
C1097 C 0.46173 0.03823 0.83572 0.0
C1098 C 0.45367 0.05226 0.77901 0.0
N1099 N 0.45299 0.03961 0.80247 0.0
C1100 C 0.48979 0.06539 0.93546 0.0
C1101 C 0.51595 0.06044 0.92365 0.0
C1102 C 0.48969 0.05503 0.96726 0.0
N1103 N 0.50267 0.06748 0.91357 0.0
C1104 C 0.51634 0.04993 0.95498 0.0
C1105 C 0.50297 0.04671 0.97664 0.0
H1106 H 0.47936 0.07111 0.92685 0.0
H1107 H 0.52607 0.0623 0.90586 0.0
C1108 C 0.50352 0.06347 0.7151 0.0
N1109 N 0.49853 0.05874 0.75138 0.0
C1110 C 0.50366 0.05342 0.68293 0.0
C1111 C 0.49386 0.03365 0.72617 0.0
C1112 C 0.49393 0.04408 0.75751 0.0
C1113 C 0.49873 0.0383 0.68824 0.0
H1114 H 0.50755 0.07504 0.7112 0.0
H1115 H 0.49046 0.04037 0.78671 0.0
O1116 O 0.50247 0.10141 0.86219 0.0
O1117 O 0.50063 0.09425 0.77153 0.0
O1118 O 0.51836 0.073 0.82574 0.0
O1119 O 0.48235 0.0747 0.83295 0.0
H1120 H 0.49547 0.12281 0.91439 0.0
H1121 H 0.53007 0.09057 0.87929 0.0
H1122 H 0.51213 0.13106 0.97021 0.0
H1123 H 0.54604 0.09932 0.93568 0.0
H1124 H 0.46713 0.10535 0.67228 0.0
H1125 H 0.51075 0.12204 0.75437 0.0
H1126 H 0.47772 0.0877 0.72297 0.0
H1127 H 0.49976 0.13899 0.70268 0.0
H1128 H 0.54797 0.14233 0.80982 0.0
H1129 H 0.55754 0.10704 0.72336 0.0
H1130 H 0.43364 0.11062 0.78726 0.0
H1131 H 0.46768 0.14635 0.77907 0.0
H1132 H 0.50707 0.04652 0.85009 0.0
H1133 H 0.54317 0.06758 0.78273 0.0
H1134 H 0.51809 0.02116 0.83434 0.0
H1135 H 0.5534 0.04184 0.76754 0.0
H1136 H 0.47879 0.04871 0.87264 0.0
H1137 H 0.46404 0.07425 0.77011 0.0
H1138 H 0.46097 0.02801 0.85373 0.0
H1139 H 0.44658 0.05302 0.75273 0.0
H1140 H 0.47918 0.05325 0.98356 0.0
H1141 H 0.52685 0.0438 0.96064 0.0
H1142 H 0.50782 0.05739 0.65437 0.0
H1143 H 0.48993 0.0221 0.73156 0.0
Li1144 Li 0.00447 0.92875 0.29608 0.0
Li1145 Li 0.00229 0.92405 0.36634 0.0
Li1146 Li 0.01745 0.90692 0.32173 0.0
Li1147 Li 0.98951 0.90638 0.31658 0.0
C1148 C 0.02967 0.94118 0.32527 0.0
N1149 N 0.04646 0.96656 0.30316 0.0
C1150 C 0.03027 0.954 0.35009 0.0
C1151 C 0.0376 0.94133 0.28912 0.0
C1152 C 0.03883 0.9667 0.33842 0.0
C1153 C 0.04602 0.95426 0.27849 0.0
C1154 C 0.97808 0.94158 0.31941 0.0
C1155 C 0.95857 0.9552 0.28325 0.0
N1156 N 0.96343 0.96852 0.29978 0.0
C1157 C 0.98284 0.9554 0.33615 0.0
C1158 C 0.9658 0.94146 0.29288 0.0
C1159 C 0.9753 0.9689 0.32583 0.0
C1160 C 0.0015 0.93907 0.21786 0.0
N1161 N 0.00439 0.94406 0.25543 0.0
C1162 C 0.00659 0.9698 0.23236 0.0
C1163 C 0.00672 0.95914 0.2632 0.0
C1164 C 0.00399 0.96489 0.19319 0.0
C1165 C 0.00134 0.94931 0.18611 0.0
H1166 H 0.99927 0.92711 0.21252 0.0
H1167 H 0.00877 0.96295 0.29326 0.0
C1168 C 0.01341 0.93677 0.43891 0.0
N1169 N 1.0006 0.93409 0.41718 0.0
C1170 C 0.01304 0.94694 0.47109 0.0
C1171 C 0.98608 0.95053 0.45972 0.0
C1172 C 0.98696 0.94027 0.42788 0.0
C1173 C 0.99933 0.95439 0.48102 0.0
H1174 H 0.02413 0.93177 0.42969 0.0
H1175 H 0.97689 0.93793 0.41031 0.0
C1176 C 0.01081 0.89795 0.24808 0.0
N1177 N 0.02433 0.87688 0.19794 0.0
C1178 C 0.00593 0.88274 0.24816 0.0
C1179 C 0.02247 0.90246 0.22221 0.0
C1180 C 0.01291 0.87227 0.22261 0.0
C1181 C 0.0292 0.89163 0.19721 0.0
C1182 C 0.9936 0.89501 0.39431 0.0
C1183 C 0.99889 0.88293 0.41773 0.0
C1184 C 0.97927 0.90138 0.40207 0.0
C1185 C 0.98974 0.8774 0.44861 0.0
C1186 C 0.97047 0.89554 0.43323 0.0
N1187 N 0.97584 0.88377 0.45566 0.0
C1188 C 0.04779 0.89948 0.29845 0.0
C1189 C 0.03237 0.87831 0.31616 0.0
C1190 C 0.05866 0.88981 0.28144 0.0
N1191 N 0.03466 0.89366 0.31379 0.0
C1192 C 0.04306 0.86819 0.29994 0.0
C1193 C 0.0561 0.87399 0.28087 0.0
H1194 H 0.04945 0.91166 0.29722 0.0
H1195 H 0.02174 0.87398 0.32798 0.0
C1196 C 0.96726 0.89852 0.26321 0.0
N1197 N 0.97269 0.89415 0.29935 0.0
C1198 C 0.95641 0.8897 0.24344 0.0
C1199 C 0.95675 0.87194 0.2985 0.0
C1200 C 0.96765 0.88116 0.31734 0.0
C1201 C 0.95118 0.87604 0.26066 0.0
H1202 H 0.97186 0.9086 0.24897 0.0
H1203 H 0.97251 0.8776 0.34541 0.0
O1204 O 0.02144 0.92857 0.3364 0.0
O1205 O 0.98538 0.92825 0.32903 0.0
O1206 O 0.00442 0.90831 0.2737 0.0
O1207 O 0.00251 0.90055 0.36414 0.0
H1208 H 0.02408 0.95425 0.37786 0.0
H1209 H 0.03695 0.93175 0.26897 0.0
H1210 H 0.03936 0.97669 0.35733 0.0
H1211 H 0.0521 0.95454 0.25047 0.0
H1212 H 0.94908 0.95526 0.26268 0.0
H1213 H 0.99248 0.95578 0.35623 0.0
H1214 H 0.96184 0.93088 0.27994 0.0
H1215 H 0.97895 0.97968 0.33834 0.0
H1216 H 0.00875 0.98171 0.23903 0.0
H1217 H 0.99899 0.94512 0.1564 0.0
H1218 H 0.02357 0.94959 0.48649 0.0
H1219 H 0.9752 0.95574 0.46678 0.0
H1220 H 0.99705 0.87898 0.26822 0.0
H1221 H 0.02639 0.91418 0.22167 0.0
H1222 H 0.00933 0.86044 0.2226 0.0
H1223 H 0.03833 0.89494 0.1773 0.0
H1224 H 0.00996 0.87788 0.41207 0.0
H1225 H 0.97491 0.91064 0.38411 0.0
H1226 H 0.99369 0.86804 0.46697 0.0
H1227 H 0.95936 0.90034 0.43954 0.0
H1228 H 0.06869 0.8947 0.26755 0.0
H1229 H 0.04065 0.85605 0.29993 0.0
H1230 H 0.95236 0.89342 0.21457 0.0
H1231 H 0.95323 0.86139 0.31263 0.0
Li1232 Li 0.50051 0.9254 0.28223 0.0
Li1233 Li 0.49823 0.92933 0.35289 0.0
Li1234 Li 0.51408 0.90771 0.33037 0.0
Li1235 Li 0.4861 0.90721 0.32592 0.0
C1236 C 0.52372 0.94374 0.329 0.0
N1237 N 0.53653 0.97167 0.34785 0.0
C1238 C 0.51741 0.95723 0.31398 0.0
C1239 C 0.53661 0.94446 0.35341 0.0
C1240 C 0.52404 0.97123 0.32387 0.0
C1241 C 0.5429 0.95869 0.36267 0.0
C1242 C 0.47207 0.94068 0.3239 0.0
C1243 C 0.45401 0.95189 0.36962 0.0
N1244 N 0.45333 0.9646 0.34639 0.0
C1245 C 0.47118 0.95386 0.30047 0.0
C1246 C 0.46338 0.93968 0.35872 0.0
C1247 C 0.46164 0.96582 0.31234 0.0
C1248 C 0.48914 0.9389 0.21044 0.0
N1249 N 0.50192 0.93612 0.23223 0.0
C1250 C 0.51628 0.9535 0.19193 0.0
C1251 C 0.51548 0.94271 0.22254 0.0
C1252 C 0.50304 0.95744 0.17068 0.0
C1253 C 0.48945 0.94957 0.17932 0.0
H1254 H 0.47847 0.93358 0.21885 0.0
H1255 H 0.52553 0.94027 0.2401 0.0
C1256 C 0.50203 0.93913 0.43116 0.0
N1257 N 0.49773 0.94416 0.39457 0.0
C1258 C 0.50231 0.94911 0.46348 0.0
C1259 C 0.49402 0.96942 0.41977 0.0
C1260 C 0.49392 0.95904 0.38832 0.0
C1261 C 0.49822 0.96447 0.45799 0.0
H1262 H 0.50542 0.92736 0.43521 0.0
H1263 H 0.49093 0.96295 0.35892 0.0
C1264 C 0.51015 0.89724 0.25173 0.0
N1265 N 0.52815 0.88774 0.18889 0.0
C1266 C 0.50495 0.88586 0.22592 0.0
C1267 C 0.52451 0.90379 0.2456 0.0
C1268 C 0.51422 0.88121 0.19432 0.0
C1269 C 0.53344 0.89883 0.21365 0.0
C1270 C 0.49341 0.89861 0.40081 0.0
C1271 C 0.49946 0.88388 0.40418 0.0
C1272 C 0.48124 0.90296 0.42522 0.0
C1273 C 0.49305 0.87367 0.43145 0.0
C1274 C 0.47512 0.89241 0.45204 0.0
N1275 N 0.4811 0.8781 0.45455 0.0
C1276 C 0.53838 0.90032 0.37936 0.0
C1277 C 0.53492 0.88208 0.32803 0.0
C1278 C 0.54961 0.89129 0.3971 0.0
N1279 N 0.53129 0.89563 0.34552 0.0
C1280 C 0.54604 0.87261 0.34499 0.0
C1281 C 0.55341 0.87711 0.3803 0.0
H1282 H 0.53475 0.91076 0.39372 0.0
H1283 H 0.52876 0.8783 0.30196 0.0
C1284 C 0.45514 0.89859 0.34143 0.0
N1285 N 0.46941 0.89333 0.3335 0.0
C1286 C 0.44403 0.88877 0.3569 0.0
C1287 C 0.46221 0.86807 0.3532 0.0
C1288 C 0.4729 0.87827 0.33752 0.0
C1289 C 0.44766 0.87337 0.36434 0.0
H1290 H 0.45253 0.91054 0.33738 0.0
H1291 H 0.48436 0.87439 0.33108 0.0
O1292 O 0.5173 0.92991 0.31985 0.0
O1293 O 0.48128 0.9288 0.3126 0.0
O1294 O 0.50113 0.90193 0.28264 0.0
O1295 O 0.4993 0.90868 0.37365 0.0
H1296 H 0.50732 0.95692 0.29549 0.0
H1297 H 0.54177 0.93416 0.36497 0.0
H1298 H 0.5192 0.98176 0.31267 0.0
H1299 H 0.55286 0.95941 0.3816 0.0
H1300 H 0.4473 0.95127 0.39661 0.0
H1301 H 0.4779 0.95498 0.27369 0.0
H1302 H 0.46399 0.92966 0.3774 0.0
H1303 H 0.4609 0.9761 0.29455 0.0
H1304 H 0.52707 0.95907 0.18579 0.0
H1305 H 0.47896 0.95226 0.1638 0.0
H1306 H 0.50592 0.9449 0.49229 0.0
H1307 H 0.49071 0.98115 0.41425 0.0
H1308 H 0.49385 0.88068 0.23029 0.0
H1309 H 0.5288 0.91253 0.26536 0.0
H1310 H 0.51034 0.87241 0.17411 0.0
H1311 H 0.54457 0.90379 0.20858 0.0
H1312 H 0.50883 0.88027 0.38551 0.0
H1313 H 0.47656 0.91436 0.42347 0.0
H1314 H 0.49754 0.8622 0.4341 0.0
H1315 H 0.46563 0.8956 0.47088 0.0
H1316 H 0.55471 0.89505 0.42478 0.0
H1317 H 0.54862 0.86175 0.33108 0.0
H1318 H 0.43286 0.8933 0.36396 0.0
H1319 H 0.46563 0.85637 0.35857 0.0
Li1320 Li 0.01659 0.09563 0.82734 0.0
Li1321 Li 0.98878 0.09492 0.8274 0.0
Li1322 Li 0.00404 0.07364 0.85901 0.0
Li1323 Li 0.0027 0.07645 0.78791 0.0
C1324 C 0.00981 0.10184 0.90513 0.0
N1325 N 0.02506 0.11563 0.96744 0.0
C1326 C 0.00472 0.11584 0.92009 0.0
C1327 C 0.02258 0.09479 0.92198 0.0
C1328 C 0.01261 0.12264 0.9516 0.0
C1329 C 0.03015 0.10197 0.95343 0.0
C1330 C 0.99523 0.11 0.75955 0.0
C1331 C 0.97332 0.11801 0.7215 0.0
N1332 N 0.97974 0.13204 0.71675 0.0
C1333 C 0.00168 0.12444 0.75402 0.0
C1334 C 0.981 0.10669 0.74291 0.0
C1335 C 0.99364 0.13545 0.73238 0.0
C1336 C 0.04742 0.10472 0.84508 0.0
N1337 N 0.03299 0.10964 0.83722 0.0
C1338 C 0.03886 0.13442 0.86297 0.0
C1339 C 0.02872 0.12429 0.84478 0.0
C1340 C 0.0536 0.12947 0.87294 0.0
C1341 C 0.05804 0.11459 0.86256 0.0
H1342 H 0.05045 0.09291 0.84039 0.0
H1343 H 0.01705 0.12776 0.83951 0.0
C1344 C 0.95932 0.10094 0.85643 0.0
N1345 N 0.97159 0.10757 0.83875 0.0
C1346 C 0.94805 0.10996 0.87426 0.0
C1347 C 0.96187 0.13246 0.8535 0.0
C1348 C 0.97298 0.12302 0.83663 0.0
C1349 C 0.94941 0.12598 0.8739 0.0
H1350 H 0.95876 0.08863 0.85888 0.0
H1351 H 0.98311 0.12804 0.82384 0.0
C1352 C 0.03423 0.07138 0.79934 0.0
N1353 N 0.06014 0.06734 0.75366 0.0
C1354 C 0.03641 0.08006 0.76484 0.0
C1355 C 0.04521 0.06064 0.81056 0.0
C1356 C 0.04959 0.07785 0.74217 0.0
C1357 C 0.05824 0.05877 0.78708 0.0
C1358 C 0.97759 0.06119 0.80674 0.0
C1359 C 0.98203 0.04597 0.8116 0.0
C1360 C 0.96522 0.06472 0.78217 0.0
C1361 C 0.97422 0.03452 0.79098 0.0
C1362 C 0.95769 0.05295 0.76209 0.0
N1363 N 0.96233 0.03822 0.76681 0.0
C1364 C 0.99678 0.06354 0.93551 0.0
C1365 C 0.01265 0.04679 0.89844 0.0
C1366 C 0.99681 0.05351 0.96776 0.0
N1367 N 0.00462 0.05999 0.9019 0.0
C1368 C 0.01293 0.03639 0.92987 0.0
C1369 C 0.00492 0.03971 0.96506 0.0
H1370 H 0.99044 0.07413 0.93711 0.0
H1371 H 0.01873 0.04434 0.87116 0.0
C1372 C 0.99533 0.06614 0.70733 0.0
N1373 N 0.00274 0.06311 0.74204 0.0
C1374 C 0.99489 0.05516 0.67689 0.0
C1375 C 0.00988 0.03832 0.71825 0.0
C1376 C 0.00992 0.04951 0.74782 0.0
C1377 C 0.00223 0.041 0.68221 0.0
H1378 H 0.98954 0.07694 0.70348 0.0
H1379 H 0.01533 0.04712 0.77606 0.0
O1380 O 0.0026 0.09531 0.8733 0.0
O1381 O 0.00288 0.09913 0.78089 0.0
O1382 O 0.02139 0.07323 0.82207 0.0
O1383 O 0.98538 0.07258 0.8258 0.0
H1384 H 0.9949 0.12147 0.90721 0.0
H1385 H 0.02674 0.08403 0.91042 0.0
H1386 H 0.00887 0.13352 0.96336 0.0
H1387 H 0.04012 0.09671 0.96656 0.0
H1388 H 0.96225 0.11563 0.70868 0.0
H1389 H 0.01278 0.12712 0.76623 0.0
H1390 H 0.97591 0.09555 0.74677 0.0
H1391 H 0.99847 0.1467 0.72798 0.0
H1392 H 0.03503 0.14582 0.87058 0.0
H1393 H 0.06925 0.11032 0.87029 0.0
H1394 H 0.93886 0.10435 0.8901 0.0
H1395 H 0.96335 0.14472 0.85176 0.0
H1396 H 0.02806 0.08841 0.75555 0.0
H1397 H 0.04369 0.05383 0.83717 0.0
H1398 H 0.05143 0.08448 0.71541 0.0
H1399 H 0.06683 0.0505 0.79543 0.0
H1400 H 0.99156 0.04305 0.83059 0.0
H1401 H 0.96146 0.07641 0.77868 0.0
H1402 H 0.97764 0.02271 0.79409 0.0
H1403 H 0.94815 0.05551 0.74277 0.0
H1404 H 0.99036 0.0564 0.99421 0.0
H1405 H 0.01942 0.02592 0.92681 0.0
H1406 H 0.98889 0.05773 0.64951 0.0
H1407 H 0.01541 0.02749 0.72411 0.0
H1408 H 0.08944 0.69328 0.10271 0.0
H1409 H 0.12961 0.67465 0.15935 0.0
H1410 H 0.07346 0.67599 0.14154 0.0
H1411 H 0.11364 0.65724 0.19766 0.0
H1412 H 0.08024 0.61829 0.23013 0.0
H1413 H 0.09658 0.63499 0.19033 0.0
H1414 H 0.06579 0.67264 0.21167 0.0
H1415 H 0.04929 0.65588 0.25063 0.0
C1416 C 0.09488 0.6855 0.12338 0.0
C1417 C 0.11085 0.68541 0.12781 0.0
C1418 C 0.08571 0.6756 0.14569 0.0
C1419 C 0.09226 0.66529 0.17289 0.0
C1420 C 0.10823 0.66493 0.17667 0.0
C1421 C 0.1174 0.67488 0.15451 0.0
C1422 C 0.07697 0.63013 0.2263 0.0
C1423 C 0.06347 0.63575 0.24361 0.0
C1424 C 0.08638 0.63973 0.20371 0.0
C1425 C 0.08245 0.65513 0.19764 0.0
C1426 C 0.06905 0.66078 0.21534 0.0
C1427 C 0.0597 0.65122 0.23813 0.0
H1428 H 0.58065 0.88439 0.41558 0.0
H1429 H 0.55048 0.84637 0.39289 0.0
H1430 H 0.59743 0.86766 0.45399 0.0
H1431 H 0.5674 0.82959 0.43058 0.0
H1432 H 0.59149 0.80869 0.53864 0.0
H1433 H 0.57517 0.82599 0.50086 0.0
H1434 H 0.61492 0.84568 0.44484 0.0
H1435 H 0.63125 0.82824 0.48202 0.0
C1436 C 0.57765 0.87245 0.41863 0.0
C1437 C 0.56423 0.86672 0.40115 0.0
C1438 C 0.58731 0.86284 0.44043 0.0
C1439 C 0.58371 0.84731 0.44555 0.0
C1440 C 0.5704 0.84154 0.42762 0.0
C1441 C 0.5608 0.85112 0.40558 0.0
C1442 C 0.59677 0.81667 0.5182 0.0
C1443 C 0.61272 0.81701 0.51341 0.0
C1444 C 0.5874 0.82658 0.4965 0.0
C1445 C 0.59373 0.83714 0.46963 0.0
C1446 C 0.60969 0.83778 0.46557 0.0
C1447 C 0.61906 0.8278 0.48709 0.0
H1448 H 0.42226 0.38541 0.7248 0.0
H1449 H 0.44811 0.34629 0.76455 0.0
H1450 H 0.40544 0.36854 0.68659 0.0
H1451 H 0.43133 0.32945 0.72637 0.0
H1452 H 0.41074 0.30812 0.61274 0.0
H1453 H 0.42649 0.32543 0.65198 0.0
H1454 H 0.386 0.34706 0.69848 0.0
H1455 H 0.37014 0.3294 0.66052 0.0
C1456 C 0.42425 0.3732 0.72559 0.0
C1457 C 0.43647 0.36715 0.7477 0.0
C1458 C 0.41461 0.36355 0.70386 0.0
C1459 C 0.41715 0.3477 0.70327 0.0
C1460 C 0.4292 0.34164 0.72595 0.0
C1461 C 0.4387 0.35126 0.74814 0.0
C1462 C 0.40513 0.31647 0.6315 0.0
C1463 C 0.3891 0.31723 0.63349 0.0
C1464 C 0.41419 0.3264 0.65395 0.0
C1465 C 0.40747 0.3375 0.67854 0.0
C1466 C 0.39149 0.33866 0.67961 0.0
C1467 C 0.38241 0.32859 0.65756 0.0
H1468 H 0.87175 0.17649 0.97246 0.0
H1469 H 0.90898 0.18593 0.05279 0.0
H1470 H 0.88831 0.16005 0.93298 0.0
H1471 H 0.92547 0.16899 0.0144 0.0
H1472 H 0.95581 0.15233 0.915 0.0
H1473 H 0.93866 0.16801 0.95404 0.0
H1474 H 0.90165 0.13689 0.92847 0.0
H1475 H 0.91859 0.1218 0.88666 0.0
C1476 C 0.88341 0.17475 0.98217 0.0
C1477 C 0.88907 0.18248 0.01572 0.0
C1478 C 0.89293 0.1653 0.95954 0.0
C1479 C 0.90833 0.16319 0.97017 0.0
C1480 C 0.91381 0.17058 0.00461 0.0
C1481 C 0.90434 0.1802 0.02688 0.0
C1482 C 0.94395 0.14896 0.91683 0.0
C1483 C 0.93865 0.13578 0.8972 0.0
C1484 C 0.93413 0.15784 0.94006 0.0
C1485 C 0.91873 0.15371 0.94494 0.0
C1486 C 0.91338 0.14056 0.92523 0.0
C1487 C 0.92318 0.13176 0.90155 0.0
H1488 H 0.07877 0.36346 0.85438 0.0
H1489 H 0.05403 0.37092 0.96413 0.0
H1490 H 0.09613 0.34623 0.88942 0.0
H1491 H 0.07171 0.35423 0.999 0.0
H1492 H 0.11587 0.33473 0.05441 0.0
H1493 H 0.09982 0.35308 0.01843 0.0
H1494 H 0.09375 0.32035 0.9236 0.0
H1495 H 0.10973 0.30208 0.95944 0.0
C1496 C 0.077 0.36147 0.88586 0.0
C1497 C 0.06497 0.3687 0.90629 0.0
C1498 C 0.087 0.35165 0.90595 0.0
C1499 C 0.08532 0.34896 0.94699 0.0
C1500 C 0.07345 0.35629 0.96752 0.0
C1501 C 0.06335 0.36593 0.94742 0.0
C1502 C 0.11114 0.33152 0.02583 0.0
C1503 C 0.11392 0.31694 0.0099 0.0
C1504 C 0.10192 0.34197 0.00533 0.0
C1505 C 0.09554 0.33813 0.96821 0.0
C1506 C 0.09859 0.32366 0.95198 0.0
C1507 C 0.10761 0.31316 0.97269 0.0
H1508 H 0.92672 0.85967 0.28912 0.0
H1509 H 0.9518 0.86924 0.18121 0.0
H1510 H 0.90965 0.84288 0.25178 0.0
H1511 H 0.93444 0.85303 0.14378 0.0
H1512 H 0.91136 0.80944 0.09854 0.0
H1513 H 0.92821 0.82639 0.13563 0.0
H1514 H 0.88958 0.84365 0.20167 0.0
H1515 H 0.87281 0.82625 0.16563 0.0
C1516 C 0.92859 0.85821 0.25747 0.0
C1517 C 0.9406 0.86587 0.2382 0.0
C1518 C 0.9187 0.84873 0.23596 0.0
C1519 C 0.92064 0.84662 0.1947 0.0
C1520 C 0.93268 0.85426 0.17553 0.0
C1521 C 0.94253 0.86373 0.19697 0.0
C1522 C 0.90646 0.81683 0.12101 0.0
C1523 C 0.89072 0.81647 0.12903 0.0
C1524 C 0.91611 0.82666 0.14207 0.0
C1525 C 0.91027 0.83639 0.17174 0.0
C1526 C 0.89449 0.83619 0.17938 0.0
C1527 C 0.88484 0.82637 0.15827 0.0
H1528 H 0.40394 0.68503 0.55095 0.0
H1529 H 0.3698 0.68115 0.459 0.0
H1530 H 0.42063 0.66788 0.51383 0.0
H1531 H 0.38663 0.6645 0.42092 0.0
H1532 H 0.4156 0.62511 0.37541 0.0
H1533 H 0.39821 0.64038 0.41549 0.0
H1534 H 0.43621 0.66745 0.45739 0.0
H1535 H 0.45364 0.6515 0.41993 0.0
C1536 C 0.40003 0.68049 0.52274 0.0
C1537 C 0.38556 0.68438 0.50796 0.0
C1538 C 0.40963 0.67074 0.50123 0.0
C1539 C 0.4051 0.66484 0.46402 0.0
C1540 C 0.39048 0.66857 0.44964 0.0
C1541 C 0.3808 0.67815 0.47145 0.0
C1542 C 0.42029 0.6342 0.39352 0.0
C1543 C 0.4361 0.63702 0.39416 0.0
C1544 C 0.41026 0.64312 0.41621 0.0
C1545 C 0.41574 0.6552 0.43992 0.0
C1546 C 0.43152 0.65811 0.44015 0.0
C1547 C 0.44155 0.6491 0.41788 0.0
H1548 H 0.59305 0.19067 0.59599 0.0
H1549 H 0.63158 0.17729 0.66841 0.0
H1550 H 0.57661 0.17379 0.6348 0.0
H1551 H 0.61519 0.16014 0.70622 0.0
H1552 H 0.58301 0.11951 0.73577 0.0
H1553 H 0.5998 0.13615 0.69693 0.0
H1554 H 0.56665 0.1725 0.70513 0.0
H1555 H 0.54982 0.15584 0.74367 0.0
C1556 C 0.59805 0.18415 0.62007 0.0
C1557 C 0.61371 0.18537 0.62885 0.0
C1558 C 0.58861 0.17447 0.64231 0.0
C1559 C 0.5946 0.16566 0.67363 0.0
C1560 C 0.61027 0.16664 0.68197 0.0
C1561 C 0.61969 0.17643 0.66004 0.0
C1562 C 0.57934 0.13107 0.72934 0.0
C1563 C 0.56511 0.13638 0.74288 0.0
C1564 C 0.58898 0.14061 0.70727 0.0
C1565 C 0.58451 0.15561 0.69781 0.0
C1566 C 0.57033 0.16095 0.71159 0.0
C1567 C 0.56078 0.15147 0.73406 0.0
H1568 H 0.91737 0.36576 0.84969 0.0
H1569 H 0.95295 0.35683 0.93539 0.0
H1570 H 0.89993 0.34924 0.88753 0.0
H1571 H 0.9355 0.34061 0.97348 0.0
H1572 H 0.89364 0.32589 0.0501 0.0
H1573 H 0.90964 0.34407 0.01306 0.0
H1574 H 0.90014 0.31974 0.90408 0.0
H1575 H 0.88445 0.30148 0.94111 0.0
C1576 C 0.92141 0.36032 0.87667 0.0
C1577 C 0.93652 0.36244 0.88946 0.0
C1578 C 0.91148 0.35088 0.89824 0.0
C1579 C 0.91638 0.34371 0.93347 0.0
C1580 C 0.9314 0.34609 0.94662 0.0
C1581 C 0.9414 0.35525 0.92466 0.0
C1582 C 0.89493 0.32453 0.01822 0.0
C1583 C 0.88792 0.31227 0.99844 0.0
C1584 C 0.9041 0.33486 0.9971 0.0
C1585 C 0.9061 0.33328 0.95573 0.0
C1586 C 0.89871 0.32127 0.93587 0.0
C1587 C 0.88983 0.31079 0.95706 0.0
H1588 H 0.44583 0.16118 0.78487 0.0
H1589 H 0.42696 0.12155 0.72596 0.0
H1590 H 0.4293 0.17759 0.74594 0.0
H1591 H 0.40948 0.1379 0.68944 0.0
H1592 H 0.39169 0.17245 0.59803 0.0
H1593 H 0.40801 0.15539 0.63693 0.0
H1594 H 0.40448 0.18608 0.73749 0.0
H1595 H 0.38889 0.20331 0.69784 0.0
C1596 C 0.43809 0.15591 0.76385 0.0
C1597 C 0.43786 0.13997 0.75867 0.0
C1598 C 0.42838 0.16536 0.74183 0.0
C1599 C 0.41794 0.15915 0.71437 0.0
C1600 C 0.41748 0.14318 0.70976 0.0
C1601 C 0.42736 0.13374 0.73139 0.0
C1602 C 0.39445 0.17547 0.62847 0.0
C1603 C 0.38921 0.18926 0.64479 0.0
C1604 C 0.40373 0.16567 0.65094 0.0
C1605 C 0.40772 0.16933 0.6905 0.0
C1606 C 0.40205 0.18299 0.70694 0.0
C1607 C 0.39303 0.19287 0.68428 0.0
H1608 H 0.5499 0.63931 0.44982 0.0
H1609 H 0.58036 0.64118 0.34896 0.0
H1610 H 0.5676 0.65466 0.48856 0.0
H1611 H 0.59805 0.657 0.38748 0.0
H1612 H 0.63229 0.6753 0.47797 0.0
H1613 H 0.61563 0.65768 0.44224 0.0
H1614 H 0.57621 0.68017 0.49268 0.0
H1615 H 0.59282 0.69713 0.52997 0.0
C1616 C 0.56035 0.64315 0.43579 0.0
C1617 C 0.56364 0.63921 0.39614 0.0
C1618 C 0.57051 0.65199 0.45801 0.0
C1619 C 0.58421 0.65727 0.44112 0.0
C1620 C 0.58768 0.65303 0.40165 0.0
C1621 C 0.57753 0.64403 0.37946 0.0
C1622 C 0.62007 0.67628 0.48208 0.0
C1623 C 0.61392 0.68767 0.50693 0.0
C1624 C 0.6105 0.66631 0.46107 0.0
C1625 C 0.59454 0.6675 0.46433 0.0
C1626 C 0.58843 0.67874 0.4897 0.0
C1627 C 0.59798 0.68863 0.5108 0.0
H1628 H 0.12125 0.83399 0.11362 0.0
H1629 H 0.10132 0.79539 0.17486 0.0
H1630 H 0.10605 0.85124 0.15413 0.0
H1631 H 0.08526 0.81254 0.2129 0.0
H1632 H 0.06903 0.84696 0.30432 0.0
H1633 H 0.08533 0.83004 0.2652 0.0
H1634 H 0.08151 0.86075 0.16477 0.0
H1635 H 0.06583 0.87787 0.20463 0.0
C1636 C 0.11359 0.82914 0.13549 0.0
C1637 C 0.11259 0.81321 0.1407 0.0
C1638 C 0.10467 0.83907 0.15846 0.0
C1639 C 0.09435 0.83337 0.187 0.0
C1640 C 0.09322 0.81744 0.19179 0.0
C1641 C 0.10227 0.80753 0.16924 0.0
C1642 C 0.07177 0.85007 0.27394 0.0
C1643 C 0.06629 0.86377 0.25764 0.0
C1644 C 0.08103 0.84034 0.25132 0.0
C1645 C 0.08479 0.84394 0.21157 0.0
C1646 C 0.07919 0.85768 0.1954 0.0
C1647 C 0.07014 0.8675 0.21821 0.0
H1648 H 0.94533 0.66183 0.28106 0.0
H1649 H 0.92567 0.6213 0.22811 0.0
H1650 H 0.92907 0.67769 0.23912 0.0
H1651 H 0.90897 0.63728 0.18767 0.0
H1652 H 0.8711 0.67405 0.15825 0.0
H1653 H 0.88703 0.65697 0.19787 0.0
H1654 H 0.92705 0.68233 0.16295 0.0
H1655 H 0.91134 0.69903 0.12185 0.0
C1656 C 0.93757 0.65625 0.26062 0.0
C1657 C 0.93694 0.6402 0.25806 0.0
C1658 C 0.92822 0.66537 0.23666 0.0
C1659 C 0.91783 0.65871 0.21 0.0
C1660 C 0.91681 0.64272 0.20817 0.0
C1661 C 0.92633 0.63357 0.23166 0.0
C1662 C 0.88332 0.67581 0.15813 0.0
C1663 C 0.88986 0.68805 0.13685 0.0
C1664 C 0.89243 0.66607 0.18113 0.0
C1665 C 0.90824 0.66845 0.18386 0.0
C1666 C 0.91485 0.6804 0.16195 0.0
C1667 C 0.9058 0.68999 0.13847 0.0
H1668 H 0.04681 0.14378 0.94248 0.0
H1669 H 0.08338 0.137 0.8584 0.0
H1670 H 0.06347 0.1594 0.98376 0.0
H1671 H 0.09998 0.15332 0.89844 0.0
H1672 H 0.13062 0.17331 0.9925 0.0
H1673 H 0.11418 0.15566 0.95681 0.0
H1674 H 0.07495 0.18309 0.98815 0.0
H1675 H 0.09118 0.19992 0.02659 0.0
C1676 C 0.0584 0.14586 0.93259 0.0
C1677 C 0.06379 0.13932 0.89712 0.0
C1678 C 0.06797 0.15487 0.95617 0.0
C1679 C 0.08314 0.15779 0.94454 0.0
C1680 C 0.08849 0.15117 0.9089 0.0
C1681 C 0.07897 0.14192 0.88568 0.0
C1682 C 0.11845 0.17539 0.99269 0.0
C1683 C 0.11231 0.18817 0.01247 0.0
C1684 C 0.109 0.16538 0.97147 0.0
C1685 C 0.09317 0.16795 0.969 0.0
C1686 C 0.08702 0.18054 0.98953 0.0
C1687 C 0.09642 0.1904 0.01121 0.0
H1688 H 0.63393 0.33171 0.65987 0.0
H1689 H 0.5967 0.30029 0.64066 0.0
H1690 H 0.61687 0.34861 0.69731 0.0
H1691 H 0.57967 0.31712 0.6783 0.0
H1692 H 0.56127 0.34181 0.79127 0.0
H1693 H 0.57816 0.32563 0.75181 0.0
H1694 H 0.5929 0.36496 0.68461 0.0
H1695 H 0.57558 0.38111 0.72265 0.0
C1696 C 0.62207 0.32849 0.66344 0.0
C1697 C 0.61662 0.31472 0.64727 0.0
C1698 C 0.61232 0.33816 0.68474 0.0
C1699 C 0.59698 0.33412 0.69091 0.0
C1700 C 0.59148 0.32045 0.6743 0.0
C1701 C 0.60117 0.3109 0.65244 0.0
C1702 C 0.56798 0.34704 0.76789 0.0
C1703 C 0.56699 0.36284 0.76036 0.0
C1704 C 0.57768 0.33775 0.74533 0.0
C1705 C 0.58679 0.34403 0.71507 0.0
C1706 C 0.58609 0.35982 0.70799 0.0
C1707 C 0.57623 0.3691 0.73012 0.0
H1708 H 0.38431 0.80159 0.43719 0.0
H1709 H 0.39419 0.82585 0.54602 0.0
H1710 H 0.4001 0.81943 0.40003 0.0
H1711 H 0.41046 0.84359 0.50899 0.0
H1712 H 0.42823 0.88064 0.42562 0.0
H1713 H 0.41093 0.86382 0.46161 0.0
H1714 H 0.42591 0.82579 0.38945 0.0
H1715 H 0.44245 0.84278 0.35187 0.0
C1716 C 0.39 0.8107 0.45324 0.0
C1717 C 0.38813 0.81223 0.49461 0.0
C1718 C 0.39912 0.82092 0.43193 0.0
C1719 C 0.40674 0.83291 0.45142 0.0
C1720 C 0.40465 0.83461 0.49282 0.0
C1721 C 0.39537 0.82443 0.51413 0.0
C1722 C 0.42761 0.86875 0.41684 0.0
C1723 C 0.43672 0.86313 0.38556 0.0
C1724 C 0.41785 0.85903 0.438 0.0
C1725 C 0.41699 0.84339 0.42863 0.0
C1726 C 0.42606 0.83779 0.39725 0.0
C1727 C 0.43574 0.84752 0.37594 0.0
H1728 H 0.98978 0.54517 0.11208 0.0
H1729 H 0.00154 0.50795 0.19107 0.0
H1730 H 0.98927 0.52743 0.05606 0.0
H1731 H 1.00056 0.49023 0.13517 0.0
H1732 H 0.97983 0.462 0.0328 0.0
H1733 H 0.98015 0.48012 0.0879 0.0
H1734 H 0.00845 0.51062 0.01895 0.0
H1735 H 0.00856 0.49234 0.96413 0.0
C1736 C 0.99235 0.53324 0.11749 0.0
C1737 C 0.99569 0.52798 0.1561 0.0
C1738 C 0.992 0.52311 0.08544 0.0
C1739 C 0.99482 0.50749 0.09142 0.0
C1740 C 0.99813 0.5022 0.12991 0.0
C1741 C 0.99864 0.51235 0.1619 0.0
C1742 C 0.98625 0.4725 0.02946 0.0
C1743 C 0.99424 0.47568 0.99409 0.0
C1744 C 0.98638 0.48287 0.06097 0.0
C1745 C 0.99436 0.49671 0.05762 0.0
C1746 C 0.00209 0.50007 0.02208 0.0
C1747 C 0.00209 0.48963 0.99068 0.0
H1748 H 0.78458 0.77608 0.26329 0.0
H1749 H 0.76976 0.7309 0.22853 0.0
H1750 H 0.76607 0.77601 0.31748 0.0
H1751 H 0.75109 0.73097 0.28244 0.0
H1752 H 0.70877 0.74484 0.3555 0.0
H1753 H 0.72732 0.74479 0.30126 0.0
H1754 H 0.76177 0.76213 0.38137 0.0
H1755 H 0.74312 0.76249 0.43545 0.0
C1756 C 0.77745 0.76609 0.26737 0.0
C1757 C 0.77867 0.75347 0.24167 0.0
C1758 C 0.76685 0.76607 0.29837 0.0
C1759 C 0.75719 0.75347 0.30419 0.0
C1760 C 0.75829 0.74091 0.27834 0.0
C1761 C 0.76895 0.74089 0.24743 0.0
C1762 C 0.72028 0.74873 0.36142 0.0
C1763 C 0.72451 0.75371 0.39962 0.0
C1764 C 0.73092 0.74856 0.3305 0.0
C1765 C 0.74597 0.75346 0.33713 0.0
C1766 C 0.7502 0.75842 0.37536 0.0
C1767 C 0.73959 0.75849 0.40635 0.0
H1768 H 0.49986 0.54596 0.54212 0.0
H1769 H 0.51042 0.50995 0.45846 0.0
H1770 H 0.50058 0.52752 0.59655 0.0
H1771 H 0.5109 0.49151 0.51286 0.0
H1772 H 0.4918 0.46151 0.61354 0.0
H1773 H 0.49203 0.48018 0.55975 0.0
H1774 H 0.51917 0.51063 0.63201 0.0
H1775 H 0.51914 0.49185 0.68582 0.0
C1776 C 0.50248 0.53415 0.53539 0.0
C1777 C 0.50503 0.52941 0.49594 0.0
C1778 C 0.50287 0.5236 0.56655 0.0
C1779 C 0.50574 0.50809 0.55887 0.0
C1780 C 0.50843 0.50337 0.51954 0.0
C1781 C 0.50813 0.51392 0.48841 0.0
C1782 C 0.49797 0.47211 0.61783 0.0
C1783 C 0.50552 0.47517 0.65388 0.0
C1784 C 0.49808 0.4828 0.58703 0.0
C1785 C 0.50567 0.49681 0.59168 0.0
C1786 C 0.5131 0.49996 0.6278 0.0
C1787 C 0.51306 0.48923 0.65859 0.0
H1788 H 0.77461 0.26948 0.90178 0.0
H1789 H 0.78136 0.22085 0.88852 0.0
H1790 H 0.75642 0.26916 0.84672 0.0
H1791 H 0.76347 0.22059 0.83284 0.0
H1792 H 0.71765 0.22424 0.76615 0.0
H1793 H 0.7358 0.22432 0.82127 0.0
H1794 H 0.75688 0.26503 0.77356 0.0
H1795 H 0.73848 0.26516 0.71897 0.0
C1796 C 0.77215 0.25873 0.88718 0.0
C1797 C 0.77939 0.24519 0.89938 0.0
C1798 C 0.76188 0.25857 0.85543 0.0
C1799 C 0.75859 0.24486 0.83543 0.0
C1800 C 0.76572 0.2313 0.84788 0.0
C1801 C 0.77605 0.23148 0.87949 0.0
C1802 C 0.72614 0.23322 0.76756 0.0
C1803 C 0.72665 0.24471 0.73836 0.0
C1804 C 0.73659 0.2332 0.79888 0.0
C1805 C 0.74772 0.2447 0.80172 0.0
C1806 C 0.74832 0.25611 0.77232 0.0
C1807 C 0.73791 0.25609 0.74087 0.0
H1808 H 0.21893 0.27502 0.8797 0.0
H1809 H 0.2332 0.2298 0.91584 0.0
H1810 H 0.23723 0.27436 0.82508 0.0
H1811 H 0.25173 0.22934 0.86163 0.0
H1812 H 0.29427 0.24317 0.78793 0.0
H1813 H 0.27573 0.24325 0.84226 0.0
H1814 H 0.24106 0.25964 0.76146 0.0
H1815 H 0.25967 0.25976 0.70721 0.0
C1816 C 0.22589 0.2649 0.87586 0.0
C1817 C 0.22456 0.25244 0.90207 0.0
C1818 C 0.23638 0.26455 0.84462 0.0
C1819 C 0.24584 0.25179 0.8391 0.0
C1820 C 0.24466 0.23939 0.86547 0.0
C1821 C 0.23409 0.23969 0.89657 0.0
C1822 C 0.28269 0.24682 0.78187 0.0
C1823 C 0.27839 0.2515 0.74346 0.0
C1824 C 0.27207 0.24675 0.81283 0.0
C1825 C 0.25699 0.25147 0.80602 0.0
C1826 C 0.25266 0.25607 0.76756 0.0
C1827 C 0.26325 0.25601 0.7365 0.0
H1828 H 0.25713 0.74877 0.43489 0.0
H1829 H 0.29445 0.7467 0.35071 0.0
H1830 H 0.23897 0.74732 0.38005 0.0
H1831 H 0.27619 0.74584 0.29598 0.0
H1832 H 0.23705 0.76407 0.2138 0.0
H1833 H 0.25585 0.7642 0.26728 0.0
H1834 H 0.23173 0.72759 0.32604 0.0
H1835 H 0.21319 0.72698 0.27194 0.0
C1836 C 0.26149 0.74789 0.4048 0.0
C1837 C 0.27728 0.74785 0.39729 0.0
C1838 C 0.25107 0.74712 0.37344 0.0
C1839 C 0.25622 0.74648 0.33391 0.0
C1840 C 0.27195 0.74649 0.32624 0.0
C1841 C 0.28238 0.74706 0.35761 0.0
C1842 C 0.23587 0.75584 0.23769 0.0
C1843 C 0.22356 0.74553 0.23853 0.0
C1844 C 0.24661 0.75598 0.26837 0.0
C1845 C 0.24516 0.74595 0.30075 0.0
C1846 C 0.23297 0.73557 0.30159 0.0
C1847 C 0.22233 0.73529 0.27068 0.0
H1848 H 0.50849 0.99396 0.45844 0.0
H1849 H 0.48843 0.95942 0.53409 0.0
H1850 H 0.50866 0.01181 0.51418 0.0
H1851 H 0.48871 0.97725 0.58987 0.0
H1852 H 0.50747 0.00832 0.68871 0.0
H1853 H 0.50741 0.99043 0.63304 0.0
H1854 H 0.49009 0.02587 0.55576 0.0
H1855 H 0.49004 0.04374 0.61143 0.0
C1856 C 0.50401 0.99022 0.48688 0.0
C1857 C 0.49842 0.97529 0.49188 0.0
C1858 C 0.50413 1.00043 0.51877 0.0
C1859 C 0.4987 0.99591 0.55632 0.0
C1860 C 0.49317 0.98098 0.56138 0.0
C1861 C 0.49301 0.97077 0.52947 0.0
C1862 C 0.50351 0.01225 0.65992 0.0
C1863 C 0.49875 0.02743 0.65445 0.0
C1864 C 0.5035 0.00201 0.62807 0.0
C1865 C 0.49875 0.00677 0.5901 0.0
C1866 C 0.49402 0.02195 0.58459 0.0
C1867 C 0.494 0.03218 0.61645 0.0
H1868 H 0.00122 0.00879 0.9616 0.0
H1869 H 0.00842 0.04594 0.04416 0.0
H1870 H 1.00088 0.99074 0.01687 0.0
H1871 H 0.00825 0.02788 0.09948 0.0
H1872 H 0.9907 0.99308 0.19045 0.0
H1873 H 0.99087 0.01121 0.13525 0.0
H1874 H 0.01794 0.97971 0.06571 0.0
H1875 H 0.01761 0.96156 0.12074 0.0
C1876 C 0.00289 0.01307 0.99156 0.0
C1877 C 0.00487 0.02875 0.99861 0.0
C1878 C 0.0027 0.00274 0.0232 0.0
C1879 C 0.00455 0.00788 0.06254 0.0
C1880 C 0.00656 0.02358 0.06956 0.0
C1881 C 0.00668 0.03392 0.03792 0.0
C1882 C 0.99676 0.9901 0.16343 0.0
C1883 C 0.00412 0.97592 0.15982 0.0
C1884 C 0.99688 1.00048 0.13186 0.0
C1885 C 0.00442 0.99689 0.09612 0.0
C1886 C 0.01182 0.98271 0.09262 0.0
C1887 C 0.01165 0.97232 0.12412 0.0
H1888 H 0.00258 0.49053 0.69365 0.0
H1889 H 0.99864 0.45764 0.5984 0.0
H1890 H 0.00236 0.51127 0.64532 0.0
H1891 H 0.99796 0.47848 0.54992 0.0
H1892 H 0.01534 0.51859 0.4737 0.0
H1893 H 0.015 0.49777 0.52188 0.0
H1894 H 0.9857 0.52439 0.59854 0.0
H1895 H 0.98643 0.54545 0.55081 0.0
C1896 C 0.00169 0.48771 0.66234 0.0
C1897 C 1.00077 0.47237 0.64994 0.0
C1898 C 0.00137 0.49964 0.63462 0.0
C1899 C 1.00016 0.49659 0.59365 0.0
C1900 C 0.99908 0.48126 0.58121 0.0
C1901 C 0.99932 0.4693 0.60902 0.0
C1902 C 0.00897 0.5201 0.50105 0.0
C1903 C 1.00102 0.53379 0.50845 0.0
C1904 C 0.0086 0.50806 0.52845 0.0
C1905 C 1.00029 0.50935 0.56412 0.0
C1906 C 0.99233 0.52303 0.57156 0.0
C1907 C 0.99265 0.53507 0.54403 0.0
H1908 H 0.76245 0.75828 0.93596 0.0
H1909 H 0.79548 0.74321 0.84902 0.0
H1910 H 0.74262 0.75812 0.88503 0.0
H1911 H 0.77566 0.74335 0.79777 0.0
H1912 H 0.7325 0.72841 0.72963 0.0
H1913 H 0.75236 0.7289 0.78033 0.0
H1914 H 0.73492 0.77183 0.82421 0.0
H1915 H 0.71518 0.77154 0.77302 0.0
C1916 C 0.76549 0.75491 0.90596 0.0
C1917 C 0.78057 0.75068 0.89667 0.0
C1918 C 0.75413 0.75497 0.87665 0.0
C1919 C 0.75751 0.75069 0.83728 0.0
C1920 C 0.77261 0.74655 0.82789 0.0
C1921 C 0.78402 0.74661 0.85717 0.0
C1922 C 0.73294 0.73806 0.74977 0.0
C1923 C 0.72219 0.74997 0.74692 0.0
C1924 C 0.74436 0.73832 0.77891 0.0
C1925 C 0.7453 0.75044 0.80628 0.0
C1926 C 0.73444 0.76224 0.80389 0.0
C1927 C 0.72306 0.76204 0.77456 0.0
H1928 H 0.52017 0.53858 0.11718 0.0
H1929 H 0.4804 0.51775 0.17047 0.0
H1930 H 0.52052 0.51863 0.06639 0.0
H1931 H 0.48095 0.49772 0.12019 0.0
H1932 H 0.49642 0.45561 0.04916 0.0
H1933 H 0.49674 0.47564 0.09996 0.0
H1934 H 0.50552 0.50943 0.0091 0.0
H1935 H 0.50549 0.48942 0.95857 0.0
C1936 C 0.51141 0.52986 0.11793 0.0
C1937 C 0.5003 0.52981 0.1482 0.0
C1938 C 0.51165 0.51837 0.08885 0.0
C1939 C 0.50083 0.50649 0.08936 0.0
C1940 C 0.48964 0.50652 0.11933 0.0
C1941 C 0.48934 0.51803 0.14822 0.0
C1942 C 0.49855 0.4673 0.04011 0.0
C1943 C 0.50084 0.47091 0.99976 0.0
C1944 C 0.49859 0.4788 0.06915 0.0
C1945 C 0.5011 0.49418 0.05861 0.0
C1946 C 0.50366 0.49773 0.01834 0.0
C1947 C 0.50348 0.48626 0.9893 0.0
H1948 H 0.77027 0.27496 0.22639 0.0
H1949 H 0.78709 0.23238 0.27454 0.0
H1950 H 0.74965 0.27484 0.27455 0.0
H1951 H 0.76704 0.23283 0.32467 0.0
H1952 H 0.72062 0.22933 0.38429 0.0
H1953 H 0.74065 0.22926 0.33418 0.0
H1954 H 0.74345 0.27848 0.34145 0.0
H1955 H 0.72271 0.27862 0.38935 0.0
C1956 C 0.76964 0.26556 0.2473 0.0
C1957 C 0.78039 0.25362 0.24611 0.0
C1958 C 0.75787 0.26562 0.27548 0.0
C1959 C 0.75655 0.25382 0.30376 0.0
C1960 C 0.76747 0.24201 0.30308 0.0
C1961 C 0.77918 0.24188 0.27461 0.0
C1962 C 0.72527 0.24018 0.37469 0.0
C1963 C 0.71992 0.25398 0.39111 0.0
C1964 C 0.73701 0.24012 0.34632 0.0
C1965 C 0.74385 0.25386 0.33369 0.0
C1966 C 0.73842 0.26766 0.3499 0.0
C1967 C 0.7266 0.26773 0.37796 0.0
H1968 H 0.29535 0.24275 0.35071 0.0
H1969 H 0.2626 0.25873 0.43726 0.0
H1970 H 0.27549 0.24294 0.29951 0.0
H1971 H 0.24274 0.25864 0.3864 0.0
H1972 H 0.21545 0.27192 0.27402 0.0
H1973 H 0.23525 0.2722 0.32503 0.0
H1974 H 0.25191 0.22871 0.28286 0.0
H1975 H 0.23197 0.22823 0.23238 0.0
C1976 C 0.28394 0.24637 0.35878 0.0
C1977 C 0.28057 0.25066 0.39815 0.0
C1978 C 0.27252 0.24634 0.32953 0.0
C1979 C 0.25749 0.25076 0.33885 0.0
C1980 C 0.25419 0.25528 0.37809 0.0
C1981 C 0.26556 0.25518 0.40736 0.0
C1982 C 0.22317 0.26229 0.2759 0.0
C1983 C 0.22205 0.25007 0.24881 0.0
C1984 C 0.23459 0.26249 0.30512 0.0
C1985 C 0.24525 0.25052 0.30792 0.0
C1986 C 0.24407 0.23825 0.2811 0.0
C1987 C 0.23261 0.23799 0.25209 0.0
H1988 H 0.28866 0.73262 0.77594 0.0
H1989 H 0.26877 0.77368 0.72696 0.0
H1990 H 0.26871 0.73186 0.82657 0.0
H1991 H 0.24883 0.77289 0.77746 0.0
H1992 H 0.20655 0.75823 0.84769 0.0
H1993 H 0.22647 0.75832 0.79682 0.0
H1994 H 0.2597 0.74505 0.88527 0.0
H1995 H 0.23973 0.74441 0.93567 0.0
C1996 C 0.28015 0.74159 0.7762 0.0
C1997 C 0.28036 0.75319 0.74718 0.0
C1998 C 0.26867 0.74114 0.80524 0.0
C1999 C 0.25707 0.75227 0.80608 0.0
C2000 C 0.25738 0.76395 0.77732 0.0
C2001 C 0.26886 0.76441 0.74834 0.0
C2002 C 0.21807 0.75516 0.8562 0.0
C2003 C 0.2215 0.75138 0.89591 0.0
C2004 C 0.22955 0.75539 0.8271 0.0
C2005 C 0.24475 0.75177 0.83689 0.0
C2006 C 0.24813 0.74779 0.87649 0.0
C2007 C 0.23668 0.7476 0.90555 0.0
H2008 H 0.48963 0.9591 0.09682 0.0
H2009 H 0.51658 0.98532 0.17985 0.0
H2010 H 0.4896 0.98067 0.05069 0.0
H2011 H 0.51624 0.00699 0.13451 0.0
H2012 H 0.52564 0.03811 0.02887 0.0
H2013 H 0.52588 0.01641 0.07402 0.0
H2014 H 0.47964 0.0054 0.03985 0.0
H2015 H 0.47976 0.02648 0.99276 0.0
C2016 C 0.49548 0.9695 0.10529 0.0
C2017 C 0.50321 0.97042 0.14188 0.0
C2018 C 0.49541 0.98193 0.07894 0.0
C2019 C 0.50292 0.99568 0.08868 0.0
C2020 C 0.51059 0.99656 0.12543 0.0
C2021 C 0.51078 0.9841 0.15155 0.0
C2022 C 0.51555 0.031 0.03065 0.0
C2023 C 0.5027 0.03414 0.00688 0.0
C2024 C 0.51561 0.01861 0.05704 0.0
C2025 C 0.50278 0.00903 0.06076 0.0
C2026 C 0.48983 0.01232 0.03749 0.0
C2027 C 0.48981 0.02464 0.01087 0.0
H2028 H 0.02548 0.02241 0.65741 0.0
H2029 H 0.97779 0.03191 0.63692 0.0
H2030 H 0.02443 0.00156 0.60949 0.0
H2031 H 0.97665 0.01089 0.58923 0.0
H2032 H 0.98432 0.98178 0.47713 0.0
H2033 H 0.98489 0.00277 0.52467 0.0
H2034 H 0.01444 0.97635 0.60125 0.0
H2035 H 0.01399 0.9554 0.55334 0.0
C2036 C 0.01474 0.02 0.64278 0.0
C2037 C 0.00171 0.02883 0.65112 0.0
C2038 C 0.01411 0.00798 0.61538 0.0
C2039 C 1.00042 0.00439 0.59559 0.0
C2040 C 0.98744 0.01339 0.60349 0.0
C2041 C 0.98809 0.02548 0.63083 0.0
C2042 C 0.99077 0.98035 0.50437 0.0
C2043 C 0.99908 0.96685 0.51139 0.0
C2044 C 0.99111 0.99242 0.53169 0.0
C2045 C 0.99975 0.99134 0.56689 0.0
C2046 C 0.00789 0.97774 0.57417 0.0
C2047 C 0.0076 0.96568 0.54674 0.0
loop_
_geom_bond_atom_site_label_1
_geom_bond_atom_site_label_2
_geom_bond_distance
_geom_bond_site_symmetry_2
_ccdc_geom_bond_type
Li0 N17 1.990 . S
Li0 O60 1.919 1_655 S
Li0 O61 1.994 . S
Li0 O62 1.961 . S
Li1 N25 1.990 . S
Li1 O60 2.005 . S
Li1 O61 1.931 1_455 S
Li1 O63 1.961 . S
Li2 N47 1.993 . S
Li2 O60 1.958 1_655 S
Li2 O62 1.986 . S
Li2 O63 1.939 1_655 S
Li3 N53 1.994 . S
Li3 O61 1.958 1_455 S
Li3 O62 1.926 1_455 S
Li3 O63 1.998 . S
C4 C6 1.348 . S
C4 C7 1.356 1_455 S
C4 O60 1.324 . S
N5 C8 1.314 1_655 S
N5 C9 1.279 . S
C6 C4 1.348 . S
C6 C8 1.353 . S
C6 H64 0.929 . S
C7 C4 1.356 1_655 S
C7 C9 1.358 . S
C7 H65 0.930 . S
C8 N5 1.314 1_455 S
C8 C6 1.353 . S
C8 H66 0.930 . S
C9 N5 1.279 . S
C9 C7 1.358 . S
C9 H67 0.930 . S
C10 C13 1.348 1_455 S
C10 C14 1.356 . S
C10 O61 1.324 1_455 S
C11 N12 1.279 . S
C11 C14 1.358 . S
C11 H68 0.930 . S
N12 C11 1.279 . S
N12 C15 1.314 1_455 S
C13 C10 1.348 1_655 S
C13 C15 1.353 . S
C13 H69 0.929 . S
C14 C10 1.356 . S
C14 C11 1.358 . S
C14 H70 0.930 . S
C15 N12 1.314 1_655 S
C15 C13 1.353 . S
C15 H71 0.930 . S
C16 N17 1.314 . S
C16 C21 1.353 . S
C16 H22 0.930 . S
N17 Li0 1.990 . S
N17 C16 1.314 . S
N17 C19 1.279 . S
C18 C19 1.358 . S
C18 C20 1.356 . S
C18 H72 0.930 . S
C19 N17 1.279 . S
C19 C18 1.358 . S
C19 H23 0.930 . S
C20 C18 1.356 . S
C20 C21 1.348 . S
C21 C16 1.353 . S
C21 C20 1.348 . S
C21 H73 0.929 . S
H22 C16 0.930 . S
H23 C19 0.930 . S
C24 N25 1.314 . S
C24 C26 1.353 . S
C24 H30 0.930 . S
N25 Li1 1.990 . S
N25 C24 1.314 . S
N25 C28 1.279 . S
C26 C24 1.353 . S
C26 C29 1.348 . S
C26 H74 0.929 . S
C27 C28 1.358 . S
C27 C29 1.356 . S
C27 H75 0.930 . S
C28 N25 1.279 . S
C28 C27 1.358 . S
C28 H31 0.930 . S
C29 C26 1.348 . S
C29 C27 1.356 . S
H30 C24 0.930 . S
H31 C28 0.930 . S
C32 C34 1.348 . S
C32 C35 1.356 . S
C32 O62 1.325 . S
N33 C36 1.314 . S
N33 C37 1.279 . S
C34 C32 1.348 . S
C34 C36 1.353 . S
C34 H76 0.929 . S
C35 C32 1.356 . S
C35 C37 1.358 . S
C35 H77 0.930 . S
C36 N33 1.314 . S
C36 C34 1.353 . S
C36 H78 0.930 . S
C37 N33 1.279 . S
C37 C35 1.358 . S
C37 H79 0.930 . S
C38 C39 1.348 . S
C38 C40 1.356 . S
C38 O63 1.325 . S
C39 C38 1.348 . S
C39 C41 1.353 . S
C39 H80 0.929 . S
C40 C38 1.356 . S
C40 C42 1.358 . S
C40 H81 0.930 . S
C41 C39 1.353 . S
C41 N43 1.314 . S
C41 H82 0.930 . S
C42 C40 1.358 . S
C42 N43 1.279 . S
C42 H83 0.930 . S
N43 C41 1.314 . S
N43 C42 1.279 . S
C44 C46 1.353 . S
C44 N47 1.314 1_455 S
C44 H50 0.930 . S
C45 N47 1.279 . S
C45 C48 1.358 . S
C45 H51 0.930 . S
C46 C44 1.353 . S
C46 C49 1.348 . S
C46 H84 0.929 . S
N47 Li2 1.993 . S
N47 C44 1.314 1_655 S
N47 C45 1.279 . S
C48 C45 1.358 . S
C48 C49 1.356 1_655 S
C48 H85 0.930 . S
C49 C46 1.348 . S
C49 C48 1.356 1_455 S
H50 C44 0.930 . S
H51 C45 0.930 . S
C52 N53 1.314 1_655 S
C52 C54 1.353 . S
C52 H58 0.930 . S
N53 Li3 1.994 . S
N53 C52 1.314 1_455 S
N53 C56 1.279 . S
C54 C52 1.353 . S
C54 C57 1.348 1_655 S
C54 H86 0.929 . S
C55 C56 1.358 . S
C55 C57 1.356 . S
C55 H87 0.930 . S
C56 N53 1.279 . S
C56 C55 1.358 . S
C56 H59 0.930 . S
C57 C54 1.348 1_455 S
C57 C55 1.356 . S
H58 C52 0.930 . S
H59 C56 0.930 . S
O60 Li0 1.919 1_455 S
O60 Li1 2.005 . S
O60 Li2 1.958 1_455 S
O60 C4 1.324 . S
O61 Li0 1.994 . S
O61 Li1 1.931 1_655 S
O61 Li3 1.958 1_655 S
O61 C10 1.324 1_655 S
O62 Li0 1.961 . S
O62 Li2 1.986 . S
O62 Li3 1.926 1_655 S
O62 C32 1.325 . S
O63 Li1 1.961 . S
O63 Li2 1.939 1_455 S
O63 Li3 1.998 . S
O63 C38 1.325 . S
H64 C6 0.929 . S
H65 C7 0.930 . S
H66 C8 0.930 . S
H67 C9 0.930 . S
H68 C11 0.930 . S
H69 C13 0.929 . S
H70 C14 0.930 . S
H71 C15 0.930 . S
H72 C18 0.930 . S
H73 C21 0.929 . S
H74 C26 0.929 . S
H75 C27 0.930 . S
H76 C34 0.929 . S
H77 C35 0.930 . S
H78 C36 0.930 . S
H79 C37 0.930 . S
H80 C39 0.929 . S
H81 C40 0.930 . S
H82 C41 0.930 . S
H83 C42 0.930 . S
H84 C46 0.929 . S
H85 C48 0.930 . S
H86 C54 0.929 . S
H87 C55 0.930 . S
Li88 N105 1.990 . S
Li88 O148 1.956 . S
Li88 O149 1.970 . S
Li88 O150 1.961 . S
Li89 N113 1.990 . S
Li89 O148 1.970 . S
Li89 O149 1.956 . S
Li89 O151 1.961 . S
Li90 N135 1.990 . S
Li90 O148 1.961 . S
Li90 O150 1.956 . S
Li90 O151 1.970 . S
Li91 N141 1.990 . S
Li91 O149 1.961 . S
Li91 O150 1.970 . S
Li91 O151 1.956 . S
C92 C94 1.348 . S
C92 C95 1.356 . S
C92 O148 1.325 . S
N93 C96 1.314 . S
N93 C97 1.279 . S
C94 C92 1.348 . S
C94 C96 1.353 . S
C94 H152 0.929 . S
C95 C92 1.356 . S
C95 C97 1.358 . S
C95 H153 0.930 . S
C96 N93 1.314 . S
C96 C94 1.353 . S
C96 H154 0.930 . S
C97 N93 1.279 . S
C97 C95 1.358 . S
C97 H155 0.930 . S
C98 C101 1.348 . S
C98 C102 1.356 . S
C98 O149 1.325 . S
C99 N100 1.279 . S
C99 C102 1.358 . S
C99 H156 0.930 . S
N100 C99 1.279 . S
N100 C103 1.314 . S
C101 C98 1.348 . S
C101 C103 1.353 . S
C101 H157 0.929 . S
C102 C98 1.356 . S
C102 C99 1.358 . S
C102 H158 0.930 . S
C103 N100 1.314 . S
C103 C101 1.353 . S
C103 H159 0.930 . S
C104 N105 1.314 . S
C104 C109 1.353 . S
C104 H110 0.930 . S
N105 Li88 1.990 . S
N105 C104 1.314 . S
N105 C107 1.279 . S
C106 C107 1.358 . S
C106 C108 1.356 . S
C106 H160 0.930 . S
C107 N105 1.279 . S
C107 C106 1.358 . S
C107 H111 0.930 . S
C108 C106 1.356 . S
C108 C109 1.348 . S
C109 C104 1.353 . S
C109 C108 1.348 . S
C109 H161 0.929 . S
H110 C104 0.930 . S
H111 C107 0.930 . S
C112 N113 1.314 . S
C112 C114 1.353 . S
C112 H118 0.930 . S
N113 Li89 1.990 . S
N113 C112 1.314 . S
N113 C116 1.279 . S
C114 C112 1.353 . S
C114 C117 1.348 . S
C114 H162 0.929 . S
C115 C116 1.358 . S
C115 C117 1.356 . S
C115 H163 0.930 . S
C116 N113 1.279 . S
C116 C115 1.358 . S
C116 H119 0.930 . S
C117 C114 1.348 . S
C117 C115 1.356 . S
H118 C112 0.930 . S
H119 C116 0.930 . S
C120 C122 1.348 . S
C120 C123 1.356 . S
C120 O150 1.325 . S
N121 C124 1.314 . S
N121 C125 1.279 . S
C122 C120 1.348 . S
C122 C124 1.353 . S
C122 H164 0.929 . S
C123 C120 1.356 . S
C123 C125 1.358 . S
C123 H165 0.930 . S
C124 N121 1.314 . S
C124 C122 1.353 . S
C124 H166 0.930 . S
C125 N121 1.279 . S
C125 C123 1.358 . S
C125 H167 0.930 . S
C126 C127 1.348 . S
C126 C128 1.356 . S
C126 O151 1.325 . S
C127 C126 1.348 . S
C127 C129 1.353 . S
C127 H168 0.929 . S
C128 C126 1.356 . S
C128 C130 1.358 . S
C128 H169 0.930 . S
C129 C127 1.353 . S
C129 N131 1.314 . S
C129 H170 0.930 . S
C130 C128 1.358 . S
C130 N131 1.279 . S
C130 H171 0.930 . S
N131 C129 1.314 . S
N131 C130 1.279 . S
C132 C134 1.353 . S
C132 N135 1.314 . S
C132 H138 0.930 . S
C133 N135 1.279 . S
C133 C136 1.358 . S
C133 H139 0.930 . S
C134 C132 1.353 . S
C134 C137 1.348 . S
C134 H172 0.929 . S
N135 Li90 1.990 . S
N135 C132 1.314 . S
N135 C133 1.279 . S
C136 C133 1.358 . S
C136 C137 1.356 . S
C136 H173 0.930 . S
C137 C134 1.348 . S
C137 C136 1.356 . S
H138 C132 0.930 . S
H139 C133 0.930 . S
C140 N141 1.314 . S
C140 C142 1.353 . S
C140 H146 0.930 . S
N141 Li91 1.990 . S
N141 C140 1.314 . S
N141 C144 1.279 . S
C142 C140 1.353 . S
C142 C145 1.348 . S
C142 H174 0.929 . S
C143 C144 1.358 . S
C143 C145 1.356 . S
C143 H175 0.930 . S
C144 N141 1.279 . S
C144 C143 1.358 . S
C144 H147 0.930 . S
C145 C142 1.348 . S
C145 C143 1.356 . S
H146 C140 0.930 . S
H147 C144 0.930 . S
O148 Li88 1.956 . S
O148 Li89 1.970 . S
O148 Li90 1.961 . S
O148 C92 1.325 . S
O149 Li88 1.970 . S
O149 Li89 1.956 . S
O149 Li91 1.961 . S
O149 C98 1.325 . S
O150 Li88 1.961 . S
O150 Li90 1.956 . S
O150 Li91 1.970 . S
O150 C120 1.325 . S
O151 Li89 1.961 . S
O151 Li90 1.970 . S
O151 Li91 1.956 . S
O151 C126 1.325 . S
H152 C94 0.929 . S
H153 C95 0.930 . S
H154 C96 0.930 . S
H155 C97 0.930 . S
H156 C99 0.930 . S
H157 C101 0.929 . S
H158 C102 0.930 . S
H159 C103 0.930 . S
H160 C106 0.930 . S
H161 C109 0.929 . S
H162 C114 0.929 . S
H163 C115 0.930 . S
H164 C122 0.929 . S
H165 C123 0.930 . S
H166 C124 0.930 . S
H167 C125 0.930 . S
H168 C127 0.929 . S
H169 C128 0.930 . S
H170 C129 0.930 . S
H171 C130 0.930 . S
H172 C134 0.929 . S
H173 C136 0.930 . S
H174 C142 0.929 . S
H175 C143 0.930 . S
Li176 N193 1.990 . S
Li176 O236 1.956 . S
Li176 O237 1.970 . S
Li176 O238 1.961 . S
Li177 N201 1.990 . S
Li177 O236 1.970 . S
Li177 O237 1.956 . S
Li177 O239 1.961 . S
Li178 N223 1.990 . S
Li178 O236 1.961 . S
Li178 O238 1.956 . S
Li178 O239 1.970 . S
Li179 N229 1.990 . S
Li179 O237 1.961 . S
Li179 O238 1.970 . S
Li179 O239 1.956 . S
C180 C182 1.348 . S
C180 C183 1.356 . S
C180 O236 1.325 . S
N181 C184 1.314 . S
N181 C185 1.279 . S
C182 C180 1.348 . S
C182 C184 1.353 . S
C182 H240 0.929 . S
C183 C180 1.356 . S
C183 C185 1.358 . S
C183 H241 0.930 . S
C184 N181 1.314 . S
C184 C182 1.353 . S
C184 H242 0.930 . S
C185 N181 1.279 . S
C185 C183 1.358 . S
C185 H243 0.930 . S
C186 C189 1.348 . S
C186 C190 1.356 . S
C186 O237 1.325 . S
C187 N188 1.279 . S
C187 C190 1.358 . S
C187 H244 0.930 . S
N188 C187 1.279 . S
N188 C191 1.314 . S
C189 C186 1.348 . S
C189 C191 1.353 . S
C189 H245 0.929 . S
C190 C186 1.356 . S
C190 C187 1.358 . S
C190 H246 0.930 . S
C191 N188 1.314 . S
C191 C189 1.353 . S
C191 H247 0.930 . S
C192 N193 1.314 . S
C192 C197 1.353 . S
C192 H198 0.930 . S
N193 Li176 1.990 . S
N193 C192 1.314 . S
N193 C195 1.279 . S
C194 C195 1.358 . S
C194 C196 1.356 . S
C194 H248 0.930 . S
C195 N193 1.279 . S
C195 C194 1.358 . S
C195 H199 0.930 . S
C196 C194 1.356 . S
C196 C197 1.348 . S
C197 C192 1.353 . S
C197 C196 1.348 . S
C197 H249 0.929 . S
H198 C192 0.930 . S
H199 C195 0.930 . S
C200 N201 1.314 . S
C200 C202 1.353 . S
C200 H206 0.930 . S
N201 Li177 1.990 . S
N201 C200 1.314 . S
N201 C204 1.279 . S
C202 C200 1.353 . S
C202 C205 1.348 . S
C202 H250 0.929 . S
C203 C204 1.358 . S
C203 C205 1.356 . S
C203 H251 0.930 . S
C204 N201 1.279 . S
C204 C203 1.358 . S
C204 H207 0.930 . S
C205 C202 1.348 . S
C205 C203 1.356 . S
H206 C200 0.930 . S
H207 C204 0.930 . S
C208 C210 1.348 . S
C208 C211 1.356 . S
C208 O238 1.325 . S
N209 C212 1.314 . S
N209 C213 1.279 . S
C210 C208 1.348 . S
C210 C212 1.353 . S
C210 H252 0.929 . S
C211 C208 1.356 . S
C211 C213 1.358 . S
C211 H253 0.930 . S
C212 N209 1.314 . S
C212 C210 1.353 . S
C212 H254 0.930 . S
C213 N209 1.279 . S
C213 C211 1.358 . S
C213 H255 0.930 . S
C214 C215 1.348 . S
C214 C216 1.356 . S
C214 O239 1.325 . S
C215 C214 1.348 . S
C215 C217 1.353 . S
C215 H256 0.929 . S
C216 C214 1.356 . S
C216 C218 1.358 . S
C216 H257 0.930 . S
C217 C215 1.353 . S
C217 N219 1.314 . S
C217 H258 0.930 . S
C218 C216 1.358 . S
C218 N219 1.279 . S
C218 H259 0.930 . S
N219 C217 1.314 . S
N219 C218 1.279 . S
C220 C222 1.353 . S
C220 N223 1.314 . S
C220 H226 0.930 . S
C221 N223 1.279 . S
C221 C224 1.358 . S
C221 H227 0.930 . S
C222 C220 1.353 . S
C222 C225 1.348 . S
C222 H260 0.929 . S
N223 Li178 1.990 . S
N223 C220 1.314 . S
N223 C221 1.279 . S
C224 C221 1.358 . S
C224 C225 1.356 . S
C224 H261 0.930 . S
C225 C222 1.348 . S
C225 C224 1.356 . S
H226 C220 0.930 . S
H227 C221 0.930 . S
C228 N229 1.314 . S
C228 C230 1.353 . S
C228 H234 0.930 . S
N229 Li179 1.990 . S
N229 C228 1.314 . S
N229 C232 1.279 . S
C230 C228 1.353 . S
C230 C233 1.348 . S
C230 H262 0.929 . S
C231 C232 1.358 . S
C231 C233 1.356 . S
C231 H263 0.930 . S
C232 N229 1.279 . S
C232 C231 1.358 . S
C232 H235 0.930 . S
C233 C230 1.348 . S
C233 C231 1.356 . S
H234 C228 0.930 . S
H235 C232 0.930 . S
O236 Li176 1.956 . S
O236 Li177 1.970 . S
O236 Li178 1.961 . S
O236 C180 1.325 . S
O237 Li176 1.970 . S
O237 Li177 1.956 . S
O237 Li179 1.961 . S
O237 C186 1.325 . S
O238 Li176 1.961 . S
O238 Li178 1.956 . S
O238 Li179 1.970 . S
O238 C208 1.325 . S
O239 Li177 1.961 . S
O239 Li178 1.970 . S
O239 Li179 1.956 . S
O239 C214 1.325 . S
H240 C182 0.929 . S
H241 C183 0.930 . S
H242 C184 0.930 . S
H243 C185 0.930 . S
H244 C187 0.930 . S
H245 C189 0.929 . S
H246 C190 0.930 . S
H247 C191 0.930 . S
H248 C194 0.930 . S
H249 C197 0.929 . S
H250 C202 0.929 . S
H251 C203 0.930 . S
H252 C210 0.929 . S
H253 C211 0.930 . S
H254 C212 0.930 . S
H255 C213 0.930 . S
H256 C215 0.929 . S
H257 C216 0.930 . S
H258 C217 0.930 . S
H259 C218 0.930 . S
H260 C222 0.929 . S
H261 C224 0.930 . S
H262 C230 0.929 . S
H263 C231 0.930 . S
Li264 N281 1.990 . S
Li264 O324 1.956 . S
Li264 O325 1.970 . S
Li264 O326 1.961 . S
Li265 N289 1.990 . S
Li265 O324 1.970 . S
Li265 O325 1.956 . S
Li265 O327 1.961 1_554 S
Li266 N311 1.990 . S
Li266 O324 1.961 . S
Li266 O326 1.956 . S
Li266 O327 1.970 1_554 S
Li267 N317 1.990 . S
Li267 O325 1.961 1_556 S
Li267 O326 1.970 1_556 S
Li267 O327 1.956 . S
C268 C270 1.348 . S
C268 C271 1.356 . S
C268 O324 1.325 . S
N269 C272 1.314 . S
N269 C273 1.279 . S
C270 C268 1.348 . S
C270 C272 1.353 . S
C270 H328 0.929 . S
C271 C268 1.356 . S
C271 C273 1.358 . S
C271 H329 0.930 . S
C272 N269 1.314 . S
C272 C270 1.353 . S
C272 H330 0.930 . S
C273 N269 1.279 . S
C273 C271 1.358 . S
C273 H331 0.930 . S
C274 C277 1.348 . S
C274 C278 1.356 1_554 S
C274 O325 1.325 . S
C275 N276 1.279 . S
C275 C278 1.358 1_554 S
C275 H332 0.930 1_554 S
N276 C275 1.279 . S
N276 C279 1.314 . S
C277 C274 1.348 . S
C277 C279 1.353 . S
C277 H333 0.929 . S
C278 C274 1.356 1_556 S
C278 C275 1.358 1_556 S
C278 H334 0.930 . S
C279 N276 1.314 . S
C279 C277 1.353 . S
C279 H335 0.930 . S
C280 N281 1.314 . S
C280 C285 1.353 . S
C280 H286 0.930 . S
N281 Li264 1.990 . S
N281 C280 1.314 . S
N281 C283 1.279 . S
C282 C283 1.358 . S
C282 C284 1.356 . S
C282 H336 0.930 . S
C283 N281 1.279 . S
C283 C282 1.358 . S
C283 H287 0.930 . S
C284 C282 1.356 . S
C284 C285 1.348 . S
C285 C280 1.353 . S
C285 C284 1.348 . S
C285 H337 0.929 . S
H286 C280 0.930 . S
H287 C283 0.930 . S
C288 N289 1.314 1_556 S
C288 C290 1.353 . S
C288 H294 0.930 . S
N289 Li265 1.990 . S
N289 C288 1.314 1_554 S
N289 C292 1.279 . S
C290 C288 1.353 . S
C290 C293 1.348 1_556 S
C290 H338 0.929 . S
C291 C292 1.358 . S
C291 C293 1.356 . S
C291 H339 0.930 . S
C292 N289 1.279 . S
C292 C291 1.358 . S
C292 H295 0.930 . S
C293 C290 1.348 1_554 S
C293 C291 1.356 . S
H294 C288 0.930 . S
H295 C292 0.930 . S
C296 C298 1.360 . S
C296 C299 1.356 . S
C296 O326 1.325 . S
N297 C300 1.314 . S
N297 C301 1.279 . S
C298 C296 1.360 . S
C298 C300 1.356 . S
C298 H340 0.914 1_554 S
C299 C296 1.356 . S
C299 C301 1.358 . S
C299 H341 0.930 . S
C300 N297 1.314 . S
C300 C298 1.356 . S
C300 H342 0.930 1_554 S
C301 N297 1.279 . S
C301 C299 1.358 . S
C301 H343 0.930 . S
C302 C303 1.348 . S
C302 C304 1.356 . S
C302 O327 1.325 . S
C303 C302 1.348 . S
C303 C305 1.353 . S
C303 H344 0.929 . S
C304 C302 1.356 . S
C304 C306 1.358 . S
C304 H345 0.930 . S
C305 C303 1.353 . S
C305 N307 1.314 . S
C305 H346 0.930 . S
C306 C304 1.358 . S
C306 N307 1.279 . S
C306 H347 0.930 . S
N307 C305 1.314 . S
N307 C306 1.279 . S
C308 C310 1.353 . S
C308 N311 1.314 . S
C308 H314 0.930 . S
C309 N311 1.279 . S
C309 C312 1.358 . S
C309 H315 0.930 . S
C310 C308 1.353 . S
C310 C313 1.348 . S
C310 H348 0.929 . S
N311 Li266 1.990 . S
N311 C308 1.314 . S
N311 C309 1.279 . S
C312 C309 1.358 . S
C312 C313 1.356 . S
C312 H349 0.930 1_554 S
C313 C310 1.348 . S
C313 C312 1.356 . S
H314 C308 0.930 . S
H315 C309 0.930 . S
C316 N317 1.314 . S
C316 C318 1.353 . S
C316 H322 0.930 . S
N317 Li267 1.990 . S
N317 C316 1.314 . S
N317 C320 1.279 . S
C318 C316 1.353 . S
C318 C321 1.348 . S
C318 H350 0.929 . S
C319 C320 1.358 . S
C319 C321 1.356 . S
C319 H351 0.930 . S
C320 N317 1.279 . S
C320 C319 1.358 . S
C320 H323 0.930 . S
C321 C318 1.348 . S
C321 C319 1.356 . S
H322 C316 0.930 . S
H323 C320 0.930 . S
O324 Li264 1.956 . S
O324 Li265 1.970 . S
O324 Li266 1.961 . S
O324 C268 1.325 . S
O325 Li264 1.970 . S
O325 Li265 1.956 . S
O325 Li267 1.961 1_554 S
O325 C274 1.325 . S
O326 Li264 1.961 . S
O326 Li266 1.956 . S
O326 Li267 1.970 1_554 S
O326 C296 1.325 . S
O327 Li265 1.961 1_556 S
O327 Li266 1.970 1_556 S
O327 Li267 1.956 . S
O327 C302 1.325 . S
H328 C270 0.929 . S
H329 C271 0.930 . S
H330 C272 0.930 . S
H331 C273 0.930 . S
H332 C275 0.930 1_556 S
H333 C277 0.929 . S
H334 C278 0.930 . S
H335 C279 0.930 . S
H336 C282 0.930 . S
H337 C285 0.929 . S
H338 C290 0.929 . S
H339 C291 0.930 . S
H340 C298 0.914 1_556 S
H341 C299 0.930 . S
H342 C300 0.930 1_556 S
H343 C301 0.930 . S
H344 C303 0.929 . S
H345 C304 0.930 . S
H346 C305 0.930 . S
H347 C306 0.930 . S
H348 C310 0.929 . S
H349 C312 0.930 1_556 S
H350 C318 0.929 . S
H351 C319 0.930 . S
Li352 N369 1.994 . S
Li352 O412 1.998 . S
Li352 O413 1.926 1_455 S
Li352 O414 1.958 1_455 S
Li353 N377 1.993 . S
Li353 O412 1.939 1_655 S
Li353 O413 1.986 . S
Li353 O415 1.958 1_655 S
Li354 N399 1.990 . S
Li354 O412 1.961 . S
Li354 O414 1.931 1_455 S
Li354 O415 2.005 . S
Li355 N405 1.990 . S
Li355 O413 1.961 . S
Li355 O414 1.994 . S
Li355 O415 1.919 1_655 S
C356 C358 1.348 . S
C356 C359 1.356 . S
C356 O412 1.325 . S
N357 C360 1.314 . S
N357 C361 1.279 . S
C358 C356 1.348 . S
C358 C360 1.353 . S
C358 H416 0.929 . S
C359 C356 1.356 . S
C359 C361 1.358 . S
C359 H417 0.930 . S
C360 N357 1.314 . S
C360 C358 1.353 . S
C360 H418 0.930 . S
C361 N357 1.279 . S
C361 C359 1.358 . S
C361 H419 0.930 . S
C362 C365 1.348 . S
C362 C366 1.356 . S
C362 O413 1.325 . S
C363 N364 1.279 . S
C363 C366 1.358 . S
C363 H420 0.930 . S
N364 C363 1.279 . S
N364 C367 1.314 . S
C365 C362 1.348 . S
C365 C367 1.353 . S
C365 H421 0.929 . S
C366 C362 1.356 . S
C366 C363 1.358 . S
C366 H422 0.930 . S
C367 N364 1.314 . S
C367 C365 1.353 . S
C367 H423 0.930 . S
C368 N369 1.314 1_655 S
C368 C373 1.353 . S
C368 H374 0.930 . S
N369 Li352 1.994 . S
N369 C368 1.314 1_455 S
N369 C371 1.279 . S
C370 C371 1.358 . S
C370 C372 1.356 . S
C370 H424 0.930 . S
C371 N369 1.279 . S
C371 C370 1.358 . S
C371 H375 0.930 . S
C372 C370 1.356 . S
C372 C373 1.348 1_455 S
C373 C368 1.353 . S
C373 C372 1.348 1_655 S
C373 H425 0.929 . S
H374 C368 0.930 . S
H375 C371 0.930 . S
C376 N377 1.314 1_455 S
C376 C378 1.353 1_556 S
C376 H382 0.930 . S
N377 Li353 1.993 . S
N377 C376 1.314 1_655 S
N377 C380 1.279 . S
C378 C376 1.353 1_554 S
C378 C381 1.348 . S
C378 H426 0.929 . S
C379 C380 1.358 . S
C379 C381 1.356 1_656 S
C379 H427 0.930 . S
C380 N377 1.279 . S
C380 C379 1.358 . S
C380 H383 0.930 . S
C381 C378 1.348 . S
C381 C379 1.356 1_454 S
H382 C376 0.930 . S
H383 C380 0.930 . S
C384 C386 1.348 1_455 S
C384 C387 1.356 . S
C384 O414 1.324 1_455 S
N385 C388 1.314 1_455 S
N385 C389 1.279 . S
C386 C384 1.348 1_655 S
C386 C388 1.353 . S
C386 H428 0.929 . S
C387 C384 1.356 . S
C387 C389 1.358 . S
C387 H429 0.930 . S
C388 N385 1.314 1_655 S
C388 C386 1.353 . S
C388 H430 0.930 . S
C389 N385 1.279 . S
C389 C387 1.358 . S
C389 H431 0.930 . S
C390 C391 1.348 . S
C390 C392 1.356 1_455 S
C390 O415 1.324 . S
C391 C390 1.348 . S
C391 C393 1.353 1_556 S
C391 H432 0.929 . S
C392 C390 1.356 1_655 S
C392 C394 1.358 1_556 S
C392 H433 0.930 . S
C393 C391 1.353 1_554 S
C393 N395 1.314 1_455 S
C393 H434 0.930 . S
C394 C392 1.358 1_554 S
C394 N395 1.279 . S
C394 H435 0.930 . S
N395 C393 1.314 1_655 S
N395 C394 1.279 . S
C396 C398 1.353 . S
C396 N399 1.314 . S
C396 H402 0.930 . S
C397 N399 1.279 . S
C397 C400 1.358 . S
C397 H403 0.930 . S
C398 C396 1.353 . S
C398 C401 1.348 . S
C398 H436 0.929 . S
N399 Li354 1.990 . S
N399 C396 1.314 . S
N399 C397 1.279 . S
C400 C397 1.358 . S
C400 C401 1.356 . S
C400 H437 0.930 . S
C401 C398 1.348 . S
C401 C400 1.356 . S
H402 C396 0.930 . S
H403 C397 0.930 . S
C404 N405 1.314 . S
C404 C406 1.353 . S
C404 H410 0.930 . S
N405 Li355 1.990 . S
N405 C404 1.314 . S
N405 C408 1.279 . S
C406 C404 1.353 . S
C406 C409 1.348 . S
C406 H438 0.929 . S
C407 C408 1.358 . S
C407 C409 1.356 . S
C407 H439 0.930 . S
C408 N405 1.279 . S
C408 C407 1.358 . S
C408 H411 0.930 . S
C409 C406 1.348 . S
C409 C407 1.356 . S
H410 C404 0.930 . S
H411 C408 0.930 . S
O412 Li352 1.998 . S
O412 Li353 1.939 1_455 S
O412 Li354 1.961 . S
O412 C356 1.325 . S
O413 Li352 1.926 1_655 S
O413 Li353 1.986 . S
O413 Li355 1.961 . S
O413 C362 1.325 . S
O414 Li352 1.958 1_655 S
O414 Li354 1.931 1_655 S
O414 Li355 1.994 . S
O414 C384 1.324 1_655 S
O415 Li353 1.958 1_455 S
O415 Li354 2.005 . S
O415 Li355 1.919 1_455 S
O415 C390 1.324 . S
H416 C358 0.929 . S
H417 C359 0.930 . S
H418 C360 0.930 . S
H419 C361 0.930 . S
H420 C363 0.930 . S
H421 C365 0.929 . S
H422 C366 0.930 . S
H423 C367 0.930 . S
H424 C370 0.930 . S
H425 C373 0.929 . S
H426 C378 0.929 . S
H427 C379 0.930 . S
H428 C386 0.929 . S
H429 C387 0.930 . S
H430 C388 0.930 . S
H431 C389 0.930 . S
H432 C391 0.929 . S
H433 C392 0.930 . S
H434 C393 0.930 . S
H435 C394 0.930 . S
H436 C398 0.929 . S
H437 C400 0.930 . S
H438 C406 0.929 . S
H439 C407 0.930 . S
Li440 N457 1.990 . S
Li440 O500 1.956 . S
Li440 O501 1.970 . S
Li440 O502 1.961 . S
Li441 N465 1.990 . S
Li441 O500 1.970 . S
Li441 O501 1.956 . S
Li441 O503 1.961 . S
Li442 N487 1.990 . S
Li442 O500 1.961 . S
Li442 O502 1.956 . S
Li442 O503 1.970 . S
Li443 N493 1.990 . S
Li443 O501 1.961 . S
Li443 O502 1.970 . S
Li443 O503 1.956 . S
C444 C446 1.348 . S
C444 C447 1.356 . S
C444 O500 1.325 . S
N445 C448 1.314 . S
N445 C449 1.279 . S
C446 C444 1.348 . S
C446 C448 1.353 . S
C446 H504 0.929 . S
C447 C444 1.356 . S
C447 C449 1.358 . S
C447 H505 0.930 . S
C448 N445 1.314 . S
C448 C446 1.353 . S
C448 H506 0.930 . S
C449 N445 1.279 . S
C449 C447 1.358 . S
C449 H507 0.930 . S
C450 C453 1.348 . S
C450 C454 1.356 . S
C450 O501 1.325 . S
C451 N452 1.279 . S
C451 C454 1.358 . S
C451 H508 0.930 . S
N452 C451 1.279 . S
N452 C455 1.314 . S
C453 C450 1.348 . S
C453 C455 1.353 . S
C453 H509 0.929 . S
C454 C450 1.356 . S
C454 C451 1.358 . S
C454 H510 0.930 . S
C455 N452 1.314 . S
C455 C453 1.353 . S
C455 H511 0.930 . S
C456 N457 1.314 . S
C456 C461 1.353 . S
C456 H462 0.930 . S
N457 Li440 1.990 . S
N457 C456 1.314 . S
N457 C459 1.279 . S
C458 C459 1.358 . S
C458 C460 1.356 . S
C458 H512 0.930 . S
C459 N457 1.279 . S
C459 C458 1.358 . S
C459 H463 0.930 . S
C460 C458 1.356 . S
C460 C461 1.348 . S
C461 C456 1.353 . S
C461 C460 1.348 . S
C461 H513 0.929 . S
H462 C456 0.930 . S
H463 C459 0.930 . S
C464 N465 1.314 . S
C464 C466 1.353 . S
C464 H470 0.930 . S
N465 Li441 1.990 . S
N465 C464 1.314 . S
N465 C468 1.279 . S
C466 C464 1.353 . S
C466 C469 1.348 . S
C466 H514 0.929 . S
C467 C468 1.358 . S
C467 C469 1.356 . S
C467 H515 0.930 . S
C468 N465 1.279 . S
C468 C467 1.358 . S
C468 H471 0.930 . S
C469 C466 1.348 . S
C469 C467 1.356 . S
H470 C464 0.930 . S
H471 C468 0.930 . S
C472 C474 1.348 . S
C472 C475 1.356 . S
C472 O502 1.325 . S
N473 C476 1.314 1_556 S
N473 C477 1.279 1_556 S
C474 C472 1.348 . S
C474 C476 1.353 . S
C474 H516 0.929 . S
C475 C472 1.356 . S
C475 C477 1.358 . S
C475 H517 0.930 . S
C476 N473 1.314 1_554 S
C476 C474 1.353 . S
C476 H518 0.930 . S
C477 N473 1.279 1_554 S
C477 C475 1.358 . S
C477 H519 0.930 1_554 S
C478 C479 1.348 . S
C478 C480 1.356 . S
C478 O503 1.325 . S
C479 C478 1.348 . S
C479 C481 1.353 . S
C479 H520 0.929 . S
C480 C478 1.356 . S
C480 C482 1.358 . S
C480 H521 0.930 . S
C481 C479 1.353 . S
C481 N483 1.314 . S
C481 H522 0.930 . S
C482 C480 1.358 . S
C482 N483 1.279 . S
C482 H523 0.930 . S
N483 C481 1.314 . S
N483 C482 1.279 . S
C484 C486 1.353 1_554 S
C484 N487 1.314 . S
C484 H490 0.930 . S
C485 N487 1.279 1_556 S
C485 C488 1.358 . S
C485 H491 0.930 . S
C486 C484 1.353 1_556 S
C486 C489 1.348 . S
C486 H524 0.929 . S
N487 Li442 1.990 . S
N487 C484 1.314 . S
N487 C485 1.279 1_554 S
C488 C485 1.358 . S
C488 C489 1.356 . S
C488 H525 0.930 . S
C489 C486 1.348 . S
C489 C488 1.356 . S
H490 C484 0.930 . S
H491 C485 0.930 . S
C492 N493 1.314 . S
C492 C494 1.353 . S
C492 H498 0.930 . S
N493 Li443 1.990 . S
N493 C492 1.314 . S
N493 C496 1.279 . S
C494 C492 1.353 . S
C494 C497 1.348 . S
C494 H526 0.929 . S
C495 C496 1.358 . S
C495 C497 1.356 . S
C495 H527 0.930 . S
C496 N493 1.279 . S
C496 C495 1.358 . S
C496 H499 0.930 . S
C497 C494 1.348 . S
C497 C495 1.356 . S
H498 C492 0.930 . S
H499 C496 0.930 . S
O500 Li440 1.956 . S
O500 Li441 1.970 . S
O500 Li442 1.961 . S
O500 C444 1.325 . S
O501 Li440 1.970 . S
O501 Li441 1.956 . S
O501 Li443 1.961 . S
O501 C450 1.325 . S
O502 Li440 1.961 . S
O502 Li442 1.956 . S
O502 Li443 1.970 . S
O502 C472 1.325 . S
O503 Li441 1.961 . S
O503 Li442 1.970 . S
O503 Li443 1.956 . S
O503 C478 1.325 . S
H504 C446 0.929 . S
H505 C447 0.930 . S
H506 C448 0.930 . S
H507 C449 0.930 . S
H508 C451 0.930 . S
H509 C453 0.929 . S
H510 C454 0.930 . S
H511 C455 0.930 . S
H512 C458 0.930 . S
H513 C461 0.929 . S
H514 C466 0.929 . S
H515 C467 0.930 . S
H516 C474 0.929 . S
H517 C475 0.930 . S
H518 C476 0.930 . S
H519 C477 0.930 1_556 S
H520 C479 0.929 . S
H521 C480 0.930 . S
H522 C481 0.930 . S
H523 C482 0.930 . S
H524 C486 0.929 . S
H525 C488 0.930 . S
H526 C494 0.929 . S
H527 C495 0.930 . S
Li528 N545 1.990 . S
Li528 O588 1.956 . S
Li528 O589 1.970 . S
Li528 O590 1.961 . S
Li529 N553 1.990 . S
Li529 O588 1.970 . S
Li529 O589 1.956 . S
Li529 O591 1.961 . S
Li530 N575 1.990 . S
Li530 O588 1.961 . S
Li530 O590 1.956 . S
Li530 O591 1.970 . S
Li531 N581 1.990 . S
Li531 O589 1.961 . S
Li531 O590 1.970 . S
Li531 O591 1.956 . S
C532 C534 1.348 . S
C532 C535 1.356 . S
C532 O588 1.325 . S
N533 C536 1.314 . S
N533 C537 1.279 . S
C534 C532 1.348 . S
C534 C536 1.353 . S
C534 H592 0.929 . S
C535 C532 1.356 . S
C535 C537 1.358 . S
C535 H593 0.930 . S
C536 N533 1.314 . S
C536 C534 1.353 . S
C536 H594 0.930 . S
C537 N533 1.279 . S
C537 C535 1.358 . S
C537 H595 0.930 . S
C538 C541 1.348 . S
C538 C542 1.356 . S
C538 O589 1.325 . S
C539 N540 1.279 . S
C539 C542 1.358 . S
C539 H596 0.930 . S
N540 C539 1.279 . S
N540 C543 1.314 . S
C541 C538 1.348 . S
C541 C543 1.353 . S
C541 H597 0.929 . S
C542 C538 1.356 . S
C542 C539 1.358 . S
C542 H598 0.930 . S
C543 N540 1.314 . S
C543 C541 1.353 . S
C543 H599 0.930 . S
C544 N545 1.314 . S
C544 C549 1.353 . S
C544 H550 0.930 . S
N545 Li528 1.990 . S
N545 C544 1.314 . S
N545 C547 1.279 . S
C546 C547 1.358 . S
C546 C548 1.356 . S
C546 H600 0.930 . S
C547 N545 1.279 . S
C547 C546 1.358 . S
C547 H551 0.930 . S
C548 C546 1.356 . S
C548 C549 1.348 . S
C549 C544 1.353 . S
C549 C548 1.348 . S
C549 H601 0.929 . S
H550 C544 0.930 . S
H551 C547 0.930 . S
C552 N553 1.314 . S
C552 C554 1.353 . S
C552 H558 0.930 . S
N553 Li529 1.990 . S
N553 C552 1.314 . S
N553 C556 1.279 . S
C554 C552 1.353 . S
C554 C557 1.348 . S
C554 H602 0.929 . S
C555 C556 1.358 . S
C555 C557 1.356 . S
C555 H603 0.930 . S
C556 N553 1.279 . S
C556 C555 1.358 . S
C556 H559 0.930 . S
C557 C554 1.348 . S
C557 C555 1.356 . S
H558 C552 0.930 . S
H559 C556 0.930 . S
C560 C562 1.348 . S
C560 C563 1.356 . S
C560 O590 1.325 . S
N561 C564 1.314 . S
N561 C565 1.279 . S
C562 C560 1.348 . S
C562 C564 1.353 . S
C562 H604 0.929 . S
C563 C560 1.356 . S
C563 C565 1.358 . S
C563 H605 0.930 . S
C564 N561 1.314 . S
C564 C562 1.353 . S
C564 H606 0.930 . S
C565 N561 1.279 . S
C565 C563 1.358 . S
C565 H607 0.930 . S
C566 C567 1.348 . S
C566 C568 1.356 . S
C566 O591 1.325 . S
C567 C566 1.348 . S
C567 C569 1.353 . S
C567 H608 0.929 . S
C568 C566 1.356 . S
C568 C570 1.358 . S
C568 H609 0.930 . S
C569 C567 1.353 . S
C569 N571 1.314 . S
C569 H610 0.930 . S
C570 C568 1.358 . S
C570 N571 1.279 . S
C570 H611 0.930 . S
N571 C569 1.314 . S
N571 C570 1.279 . S
C572 C574 1.353 . S
C572 N575 1.314 . S
C572 H578 0.930 . S
C573 N575 1.279 . S
C573 C576 1.358 . S
C573 H579 0.930 . S
C574 C572 1.353 . S
C574 C577 1.348 . S
C574 H612 0.929 . S
N575 Li530 1.990 . S
N575 C572 1.314 . S
N575 C573 1.279 . S
C576 C573 1.358 . S
C576 C577 1.356 . S
C576 H613 0.930 . S
C577 C574 1.348 . S
C577 C576 1.356 . S
H578 C572 0.930 . S
H579 C573 0.930 . S
C580 N581 1.314 . S
C580 C582 1.353 . S
C580 H586 0.930 . S
N581 Li531 1.990 . S
N581 C580 1.314 . S
N581 C584 1.279 . S
C582 C580 1.353 . S
C582 C585 1.348 . S
C582 H614 0.929 . S
C583 C584 1.358 . S
C583 C585 1.356 . S
C583 H615 0.930 . S
C584 N581 1.279 . S
C584 C583 1.358 . S
C584 H587 0.930 . S
C585 C582 1.348 . S
C585 C583 1.356 . S
H586 C580 0.930 . S
H587 C584 0.930 . S
O588 Li528 1.956 . S
O588 Li529 1.970 . S
O588 Li530 1.961 . S
O588 C532 1.325 . S
O589 Li528 1.970 . S
O589 Li529 1.956 . S
O589 Li531 1.961 . S
O589 C538 1.325 . S
O590 Li528 1.961 . S
O590 Li530 1.956 . S
O590 Li531 1.970 . S
O590 C560 1.325 . S
O591 Li529 1.961 . S
O591 Li530 1.970 . S
O591 Li531 1.956 . S
O591 C566 1.325 . S
H592 C534 0.929 . S
H593 C535 0.930 . S
H594 C536 0.930 . S
H595 C537 0.930 . S
H596 C539 0.930 . S
H597 C541 0.929 . S
H598 C542 0.930 . S
H599 C543 0.930 . S
H600 C546 0.930 . S
H601 C549 0.929 . S
H602 C554 0.929 . S
H603 C555 0.930 . S
H604 C562 0.929 . S
H605 C563 0.930 . S
H606 C564 0.930 . S
H607 C565 0.930 . S
H608 C567 0.929 . S
H609 C568 0.930 . S
H610 C569 0.930 . S
H611 C570 0.930 . S
H612 C574 0.929 . S
H613 C576 0.930 . S
H614 C582 0.929 . S
H615 C583 0.930 . S
Li616 N633 1.990 . S
Li616 O676 1.956 . S
Li616 O677 1.970 . S
Li616 O678 1.961 . S
Li617 N641 1.990 . S
Li617 O676 1.970 . S
Li617 O677 1.956 . S
Li617 O679 1.961 . S
Li618 N663 1.990 . S
Li618 O676 1.961 . S
Li618 O678 1.956 . S
Li618 O679 1.970 . S
Li619 N669 1.990 . S
Li619 O677 1.961 . S
Li619 O678 1.970 . S
Li619 O679 1.956 . S
C620 C622 1.348 . S
C620 C623 1.356 . S
C620 O676 1.325 . S
N621 C624 1.314 . S
N621 C625 1.279 . S
C622 C620 1.348 . S
C622 C624 1.353 . S
C622 H680 0.929 . S
C623 C620 1.356 . S
C623 C625 1.358 . S
C623 H681 0.930 . S
C624 N621 1.314 . S
C624 C622 1.353 . S
C624 H682 0.930 . S
C625 N621 1.279 . S
C625 C623 1.358 . S
C625 H683 0.930 . S
C626 C629 1.348 . S
C626 C630 1.356 . S
C626 O677 1.325 . S
C627 N628 1.279 . S
C627 C630 1.358 . S
C627 H684 0.930 . S
N628 C627 1.279 . S
N628 C631 1.314 . S
C629 C626 1.348 . S
C629 C631 1.353 . S
C629 H685 0.929 . S
C630 C626 1.356 . S
C630 C627 1.358 . S
C630 H686 0.930 . S
C631 N628 1.314 . S
C631 C629 1.353 . S
C631 H687 0.930 . S
C632 N633 1.314 . S
C632 C637 1.353 . S
C632 H638 0.930 . S
N633 Li616 1.990 . S
N633 C632 1.314 . S
N633 C635 1.279 . S
C634 C635 1.358 . S
C634 C636 1.356 . S
C634 H688 0.930 . S
C635 N633 1.279 . S
C635 C634 1.358 . S
C635 H639 0.930 . S
C636 C634 1.356 . S
C636 C637 1.348 . S
C637 C632 1.353 . S
C637 C636 1.348 . S
C637 H689 0.929 . S
H638 C632 0.930 . S
H639 C635 0.930 . S
C640 N641 1.314 . S
C640 C642 1.353 . S
C640 H646 0.930 . S
N641 Li617 1.990 . S
N641 C640 1.314 . S
N641 C644 1.279 . S
C642 C640 1.353 . S
C642 C645 1.348 . S
C642 H690 0.929 . S
C643 C644 1.358 . S
C643 C645 1.356 . S
C643 H691 0.930 . S
C644 N641 1.279 . S
C644 C643 1.358 . S
C644 H647 0.930 . S
C645 C642 1.348 . S
C645 C643 1.356 . S
H646 C640 0.930 . S
H647 C644 0.930 . S
C648 C650 1.348 . S
C648 C651 1.356 . S
C648 O678 1.325 . S
N649 C652 1.314 . S
N649 C653 1.279 . S
C650 C648 1.348 . S
C650 C652 1.353 . S
C650 H692 0.929 . S
C651 C648 1.356 . S
C651 C653 1.358 . S
C651 H693 0.930 . S
C652 N649 1.314 . S
C652 C650 1.353 . S
C652 H694 0.930 . S
C653 N649 1.279 . S
C653 C651 1.358 . S
C653 H695 0.930 . S
C654 C655 1.348 . S
C654 C656 1.356 . S
C654 O679 1.325 . S
C655 C654 1.348 . S
C655 C657 1.353 . S
C655 H696 0.929 . S
C656 C654 1.356 . S
C656 C658 1.358 . S
C656 H697 0.930 . S
C657 C655 1.353 . S
C657 N659 1.314 . S
C657 H698 0.930 . S
C658 C656 1.358 . S
C658 N659 1.279 . S
C658 H699 0.930 . S
N659 C657 1.314 . S
N659 C658 1.279 . S
C660 C662 1.353 . S
C660 N663 1.314 . S
C660 H666 0.930 . S
C661 N663 1.279 . S
C661 C664 1.358 . S
C661 H667 0.930 . S
C662 C660 1.353 . S
C662 C665 1.348 . S
C662 H700 0.929 . S
N663 Li618 1.990 . S
N663 C660 1.314 . S
N663 C661 1.279 . S
C664 C661 1.358 . S
C664 C665 1.356 . S
C664 H701 0.930 . S
C665 C662 1.348 . S
C665 C664 1.356 . S
H666 C660 0.930 . S
H667 C661 0.930 . S
C668 N669 1.314 . S
C668 C670 1.353 . S
C668 H674 0.930 . S
N669 Li619 1.990 . S
N669 C668 1.314 . S
N669 C672 1.279 . S
C670 C668 1.353 . S
C670 C673 1.348 . S
C670 H702 0.929 . S
C671 C672 1.358 . S
C671 C673 1.356 . S
C671 H703 0.930 . S
C672 N669 1.279 . S
C672 C671 1.358 . S
C672 H675 0.930 . S
C673 C670 1.348 . S
C673 C671 1.356 . S
H674 C668 0.930 . S
H675 C672 0.930 . S
O676 Li616 1.956 . S
O676 Li617 1.970 . S
O676 Li618 1.961 . S
O676 C620 1.325 . S
O677 Li616 1.970 . S
O677 Li617 1.956 . S
O677 Li619 1.961 . S
O677 C626 1.325 . S
O678 Li616 1.961 . S
O678 Li618 1.956 . S
O678 Li619 1.970 . S
O678 C648 1.325 . S
O679 Li617 1.961 . S
O679 Li618 1.970 . S
O679 Li619 1.956 . S
O679 C654 1.325 . S
H680 C622 0.929 . S
H681 C623 0.930 . S
H682 C624 0.930 . S
H683 C625 0.930 . S
H684 C627 0.930 . S
H685 C629 0.929 . S
H686 C630 0.930 . S
H687 C631 0.930 . S
H688 C634 0.930 . S
H689 C637 0.929 . S
H690 C642 0.929 . S
H691 C643 0.930 . S
H692 C650 0.929 . S
H693 C651 0.930 . S
H694 C652 0.930 . S
H695 C653 0.930 . S
H696 C655 0.929 . S
H697 C656 0.930 . S
H698 C657 0.930 . S
H699 C658 0.930 . S
H700 C662 0.929 . S
H701 C664 0.930 . S
H702 C670 0.929 . S
H703 C671 0.930 . S
Li704 N721 1.990 . S
Li704 O764 1.956 . S
Li704 O765 1.970 . S
Li704 O766 1.961 . S
Li705 N729 1.990 . S
Li705 O764 1.970 . S
Li705 O765 1.956 . S
Li705 O767 1.961 . S
Li706 N751 1.990 . S
Li706 O764 1.961 . S
Li706 O766 1.956 . S
Li706 O767 1.970 . S
Li707 N757 1.990 . S
Li707 O765 1.961 . S
Li707 O766 1.970 . S
Li707 O767 1.956 . S
C708 C710 1.348 . S
C708 C711 1.356 . S
C708 O764 1.325 . S
N709 C712 1.314 . S
N709 C713 1.279 . S
C710 C708 1.348 . S
C710 C712 1.353 . S
C710 H768 0.929 . S
C711 C708 1.356 . S
C711 C713 1.358 . S
C711 H769 0.930 . S
C712 N709 1.314 . S
C712 C710 1.353 . S
C712 H770 0.930 . S
C713 N709 1.279 . S
C713 C711 1.358 . S
C713 H771 0.930 . S
C714 C717 1.348 . S
C714 C718 1.356 . S
C714 O765 1.325 . S
C715 N716 1.279 . S
C715 C718 1.358 . S
C715 H772 0.930 . S
N716 C715 1.279 . S
N716 C719 1.314 . S
C717 C714 1.348 . S
C717 C719 1.353 . S
C717 H773 0.929 . S
C718 C714 1.356 . S
C718 C715 1.358 . S
C718 H774 0.930 . S
C719 N716 1.314 . S
C719 C717 1.353 . S
C719 H775 0.930 . S
C720 N721 1.314 . S
C720 C725 1.353 . S
C720 H726 0.930 . S
N721 Li704 1.990 . S
N721 C720 1.314 . S
N721 C723 1.279 . S
C722 C723 1.358 . S
C722 C724 1.356 . S
C722 H776 0.930 . S
C723 N721 1.279 . S
C723 C722 1.358 . S
C723 H727 0.930 . S
C724 C722 1.356 . S
C724 C725 1.348 . S
C725 C720 1.353 . S
C725 C724 1.348 . S
C725 H777 0.929 . S
H726 C720 0.930 . S
H727 C723 0.930 . S
C728 N729 1.314 . S
C728 C730 1.353 . S
C728 H734 0.930 . S
N729 Li705 1.990 . S
N729 C728 1.314 . S
N729 C732 1.279 . S
C730 C728 1.353 . S
C730 C733 1.348 . S
C730 H778 0.929 . S
C731 C732 1.358 . S
C731 C733 1.356 . S
C731 H779 0.930 . S
C732 N729 1.279 . S
C732 C731 1.358 . S
C732 H735 0.930 . S
C733 C730 1.348 . S
C733 C731 1.356 . S
H734 C728 0.930 . S
H735 C732 0.930 . S
C736 C738 1.348 . S
C736 C739 1.356 . S
C736 O766 1.325 . S
N737 C740 1.314 . S
N737 C741 1.279 . S
C738 C736 1.348 . S
C738 C740 1.353 . S
C738 H780 0.929 . S
C739 C736 1.356 . S
C739 C741 1.358 . S
C739 H781 0.930 . S
C740 N737 1.314 . S
C740 C738 1.353 . S
C740 H782 0.930 . S
C741 N737 1.279 . S
C741 C739 1.358 . S
C741 H783 0.930 . S
C742 C743 1.348 . S
C742 C744 1.356 . S
C742 O767 1.325 . S
C743 C742 1.348 . S
C743 C745 1.353 . S
C743 H784 0.929 . S
C744 C742 1.356 . S
C744 C746 1.358 . S
C744 H785 0.930 . S
C745 C743 1.353 . S
C745 N747 1.314 . S
C745 H786 0.930 . S
C746 C744 1.358 . S
C746 N747 1.279 . S
C746 H787 0.930 . S
N747 C745 1.314 . S
N747 C746 1.279 . S
C748 C750 1.353 . S
C748 N751 1.314 . S
C748 H754 0.930 . S
C749 N751 1.279 . S
C749 C752 1.358 . S
C749 H755 0.930 . S
C750 C748 1.353 . S
C750 C753 1.348 . S
C750 H788 0.929 . S
N751 Li706 1.990 . S
N751 C748 1.314 . S
N751 C749 1.279 . S
C752 C749 1.358 . S
C752 C753 1.356 . S
C752 H789 0.930 . S
C753 C750 1.348 . S
C753 C752 1.356 . S
H754 C748 0.930 . S
H755 C749 0.930 . S
C756 N757 1.314 . S
C756 C758 1.353 . S
C756 H762 0.930 . S
N757 Li707 1.990 . S
N757 C756 1.314 . S
N757 C760 1.279 . S
C758 C756 1.353 . S
C758 C761 1.348 . S
C758 H790 0.929 . S
C759 C760 1.358 . S
C759 C761 1.356 . S
C759 H791 0.930 . S
C760 N757 1.279 . S
C760 C759 1.358 . S
C760 H763 0.930 . S
C761 C758 1.348 . S
C761 C759 1.356 . S
H762 C756 0.930 . S
H763 C760 0.930 . S
O764 Li704 1.956 . S
O764 Li705 1.970 . S
O764 Li706 1.961 . S
O764 C708 1.325 . S
O765 Li704 1.970 . S
O765 Li705 1.956 . S
O765 Li707 1.961 . S
O765 C714 1.325 . S
O766 Li704 1.961 . S
O766 Li706 1.956 . S
O766 Li707 1.970 . S
O766 C736 1.325 . S
O767 Li705 1.961 . S
O767 Li706 1.970 . S
O767 Li707 1.956 . S
O767 C742 1.325 . S
H768 C710 0.929 . S
H769 C711 0.930 . S
H770 C712 0.930 . S
H771 C713 0.930 . S
H772 C715 0.930 . S
H773 C717 0.929 . S
H774 C718 0.930 . S
H775 C719 0.930 . S
H776 C722 0.930 . S
H777 C725 0.929 . S
H778 C730 0.929 . S
H779 C731 0.930 . S
H780 C738 0.929 . S
H781 C739 0.930 . S
H782 C740 0.930 . S
H783 C741 0.930 . S
H784 C743 0.929 . S
H785 C744 0.930 . S
H786 C745 0.930 . S
H787 C746 0.930 . S
H788 C750 0.929 . S
H789 C752 0.930 . S
H790 C758 0.929 . S
H791 C759 0.930 . S
Li792 N809 1.990 . S
Li792 O852 1.956 . S
Li792 O853 1.970 . S
Li792 O854 1.961 . S
Li793 N817 1.990 . S
Li793 O852 1.970 . S
Li793 O853 1.956 . S
Li793 O855 1.961 . S
Li794 N839 1.990 . S
Li794 O852 1.961 . S
Li794 O854 1.956 . S
Li794 O855 1.970 . S
Li795 N845 1.990 . S
Li795 O853 1.961 . S
Li795 O854 1.970 . S
Li795 O855 1.956 . S
C796 C798 1.348 . S
C796 C799 1.356 . S
C796 O852 1.325 . S
N797 C800 1.314 . S
N797 C801 1.279 . S
C798 C796 1.348 . S
C798 C800 1.353 . S
C798 H856 0.929 . S
C799 C796 1.356 . S
C799 C801 1.358 . S
C799 H857 0.930 . S
C800 N797 1.314 . S
C800 C798 1.353 . S
C800 H858 0.930 . S
C801 N797 1.279 . S
C801 C799 1.358 . S
C801 H859 0.930 . S
C802 C805 1.348 . S
C802 C806 1.356 . S
C802 O853 1.325 . S
C803 N804 1.279 . S
C803 C806 1.358 . S
C803 H860 0.930 . S
N804 C803 1.279 . S
N804 C807 1.314 . S
C805 C802 1.348 . S
C805 C807 1.353 . S
C805 H861 0.929 . S
C806 C802 1.356 . S
C806 C803 1.358 . S
C806 H862 0.930 . S
C807 N804 1.314 . S
C807 C805 1.353 . S
C807 H863 0.930 . S
C808 N809 1.314 . S
C808 C813 1.353 . S
C808 H814 0.930 . S
N809 Li792 1.990 . S
N809 C808 1.314 . S
N809 C811 1.279 . S
C810 C811 1.358 . S
C810 C812 1.356 . S
C810 H864 0.930 . S
C811 N809 1.279 . S
C811 C810 1.358 . S
C811 H815 0.930 . S
C812 C810 1.356 . S
C812 C813 1.348 . S
C813 C808 1.353 . S
C813 C812 1.348 . S
C813 H865 0.929 . S
H814 C808 0.930 . S
H815 C811 0.930 . S
C816 N817 1.314 . S
C816 C818 1.353 . S
C816 H822 0.930 . S
N817 Li793 1.990 . S
N817 C816 1.314 . S
N817 C820 1.279 . S
C818 C816 1.353 . S
C818 C821 1.348 . S
C818 H866 0.929 . S
C819 C820 1.358 . S
C819 C821 1.356 . S
C819 H867 0.930 . S
C820 N817 1.279 . S
C820 C819 1.358 . S
C820 H823 0.930 . S
C821 C818 1.348 . S
C821 C819 1.356 . S
H822 C816 0.930 . S
H823 C820 0.930 . S
C824 C826 1.348 . S
C824 C827 1.356 . S
C824 O854 1.325 . S
N825 C828 1.314 1_556 S
N825 C829 1.279 1_556 S
C826 C824 1.348 . S
C826 C828 1.353 . S
C826 H868 0.929 . S
C827 C824 1.356 . S
C827 C829 1.358 . S
C827 H869 0.930 . S
C828 N825 1.314 1_554 S
C828 C826 1.353 . S
C828 H870 0.930 . S
C829 N825 1.279 1_554 S
C829 C827 1.358 . S
C829 H871 0.930 1_554 S
C830 C831 1.348 . S
C830 C832 1.356 . S
C830 O855 1.325 . S
C831 C830 1.348 . S
C831 C833 1.353 . S
C831 H872 0.929 . S
C832 C830 1.356 . S
C832 C834 1.358 . S
C832 H873 0.930 . S
C833 C831 1.353 . S
C833 N835 1.314 . S
C833 H874 0.930 . S
C834 C832 1.358 . S
C834 N835 1.279 . S
C834 H875 0.930 . S
N835 C833 1.314 . S
N835 C834 1.279 . S
C836 C838 1.353 1_554 S
C836 N839 1.314 . S
C836 H842 0.930 . S
C837 N839 1.279 1_556 S
C837 C840 1.358 . S
C837 H843 0.930 . S
C838 C836 1.353 1_556 S
C838 C841 1.348 . S
C838 H876 0.929 . S
N839 Li794 1.990 . S
N839 C836 1.314 . S
N839 C837 1.279 1_554 S
C840 C837 1.358 . S
C840 C841 1.356 . S
C840 H877 0.930 . S
C841 C838 1.348 . S
C841 C840 1.356 . S
H842 C836 0.930 . S
H843 C837 0.930 . S
C844 N845 1.314 . S
C844 C846 1.353 . S
C844 H850 0.930 . S
N845 Li795 1.990 . S
N845 C844 1.314 . S
N845 C848 1.279 . S
C846 C844 1.353 . S
C846 C849 1.348 . S
C846 H878 0.929 . S
C847 C848 1.358 . S
C847 C849 1.356 . S
C847 H879 0.930 . S
C848 N845 1.279 . S
C848 C847 1.358 . S
C848 H851 0.930 . S
C849 C846 1.348 . S
C849 C847 1.356 . S
H850 C844 0.930 . S
H851 C848 0.930 . S
O852 Li792 1.956 . S
O852 Li793 1.970 . S
O852 Li794 1.961 . S
O852 C796 1.325 . S
O853 Li792 1.970 . S
O853 Li793 1.956 . S
O853 Li795 1.961 . S
O853 C802 1.325 . S
O854 Li792 1.961 . S
O854 Li794 1.956 . S
O854 Li795 1.970 . S
O854 C824 1.325 . S
O855 Li793 1.961 . S
O855 Li794 1.970 . S
O855 Li795 1.956 . S
O855 C830 1.325 . S
H856 C798 0.929 . S
H857 C799 0.930 . S
H858 C800 0.930 . S
H859 C801 0.930 . S
H860 C803 0.930 . S
H861 C805 0.929 . S
H862 C806 0.930 . S
H863 C807 0.930 . S
H864 C810 0.930 . S
H865 C813 0.929 . S
H866 C818 0.929 . S
H867 C819 0.930 . S
H868 C826 0.929 . S
H869 C827 0.930 . S
H870 C828 0.930 . S
H871 C829 0.930 1_556 S
H872 C831 0.929 . S
H873 C832 0.930 . S
H874 C833 0.930 . S
H875 C834 0.930 . S
H876 C838 0.929 . S
H877 C840 0.930 . S
H878 C846 0.929 . S
H879 C847 0.930 . S
Li880 N897 1.990 . S
Li880 O940 1.956 . S
Li880 O941 1.970 . S
Li880 O942 1.961 . S
Li881 N905 1.990 . S
Li881 O940 1.970 . S
Li881 O941 1.956 . S
Li881 O943 1.961 1_554 S
Li882 N927 1.990 . S
Li882 O940 1.961 . S
Li882 O942 1.956 . S
Li882 O943 1.970 1_554 S
Li883 N933 1.990 . S
Li883 O941 1.961 1_556 S
Li883 O942 1.970 1_556 S
Li883 O943 1.956 . S
C884 C886 1.348 . S
C884 C887 1.356 . S
C884 O940 1.325 . S
N885 C888 1.314 . S
N885 C889 1.279 . S
C886 C884 1.348 . S
C886 C888 1.353 . S
C886 H944 0.929 . S
C887 C884 1.356 . S
C887 C889 1.358 . S
C887 H945 0.930 . S
C888 N885 1.314 . S
C888 C886 1.353 . S
C888 H946 0.930 . S
C889 N885 1.279 . S
C889 C887 1.358 . S
C889 H947 0.930 . S
C890 C893 1.348 . S
C890 C894 1.356 1_554 S
C890 O941 1.325 . S
C891 N892 1.279 . S
C891 C894 1.358 1_554 S
C891 H948 0.930 1_554 S
N892 C891 1.279 . S
N892 C895 1.314 . S
C893 C890 1.348 . S
C893 C895 1.353 . S
C893 H949 0.929 . S
C894 C890 1.356 1_556 S
C894 C891 1.358 1_556 S
C894 H950 0.930 . S
C895 N892 1.314 . S
C895 C893 1.353 . S
C895 H951 0.930 . S
C896 N897 1.314 . S
C896 C901 1.353 . S
C896 H902 0.930 . S
N897 Li880 1.990 . S
N897 C896 1.314 . S
N897 C899 1.279 . S
C898 C899 1.358 . S
C898 C900 1.356 . S
C898 H952 0.930 . S
C899 N897 1.279 . S
C899 C898 1.358 . S
C899 H903 0.930 . S
C900 C898 1.356 . S
C900 C901 1.348 . S
C901 C896 1.353 . S
C901 C900 1.348 . S
C901 H953 0.929 . S
H902 C896 0.930 . S
H903 C899 0.930 . S
C904 N905 1.314 1_556 S
C904 C906 1.353 . S
C904 H910 0.930 . S
N905 Li881 1.990 . S
N905 C904 1.314 1_554 S
N905 C908 1.279 . S
C906 C904 1.353 . S
C906 C909 1.348 1_556 S
C906 H954 0.929 . S
C907 C908 1.358 . S
C907 C909 1.356 . S
C907 H955 0.930 . S
C908 N905 1.279 . S
C908 C907 1.358 . S
C908 H911 0.930 . S
C909 C906 1.348 1_554 S
C909 C907 1.356 . S
H910 C904 0.930 . S
H911 C908 0.930 . S
C912 C914 1.360 . S
C912 C915 1.356 . S
C912 O942 1.325 . S
N913 C916 1.314 . S
N913 C917 1.279 . S
C914 C912 1.360 . S
C914 C916 1.356 . S
C914 H956 0.914 1_554 S
C915 C912 1.356 . S
C915 C917 1.358 . S
C915 H957 0.930 . S
C916 N913 1.314 . S
C916 C914 1.356 . S
C916 H958 0.930 1_554 S
C917 N913 1.279 . S
C917 C915 1.358 . S
C917 H959 0.930 . S
C918 C919 1.348 . S
C918 C920 1.356 . S
C918 O943 1.325 . S
C919 C918 1.348 . S
C919 C921 1.353 . S
C919 H960 0.929 . S
C920 C918 1.356 . S
C920 C922 1.358 . S
C920 H961 0.930 . S
C921 C919 1.353 . S
C921 N923 1.314 . S
C921 H962 0.930 . S
C922 C920 1.358 . S
C922 N923 1.279 . S
C922 H963 0.930 . S
N923 C921 1.314 . S
N923 C922 1.279 . S
C924 C926 1.353 . S
C924 N927 1.314 . S
C924 H930 0.930 . S
C925 N927 1.279 . S
C925 C928 1.358 . S
C925 H931 0.930 . S
C926 C924 1.353 . S
C926 C929 1.348 . S
C926 H964 0.929 . S
N927 Li882 1.990 . S
N927 C924 1.314 . S
N927 C925 1.279 . S
C928 C925 1.358 . S
C928 C929 1.356 . S
C928 H965 0.930 1_554 S
C929 C926 1.348 . S
C929 C928 1.356 . S
H930 C924 0.930 . S
H931 C925 0.930 . S
C932 N933 1.314 . S
C932 C934 1.353 . S
C932 H938 0.930 . S
N933 Li883 1.990 . S
N933 C932 1.314 . S
N933 C936 1.279 . S
C934 C932 1.353 . S
C934 C937 1.348 . S
C934 H966 0.929 . S
C935 C936 1.358 . S
C935 C937 1.356 . S
C935 H967 0.930 . S
C936 N933 1.279 . S
C936 C935 1.358 . S
C936 H939 0.930 . S
C937 C934 1.348 . S
C937 C935 1.356 . S
H938 C932 0.930 . S
H939 C936 0.930 . S
O940 Li880 1.956 . S
O940 Li881 1.970 . S
O940 Li882 1.961 . S
O940 C884 1.325 . S
O941 Li880 1.970 . S
O941 Li881 1.956 . S
O941 Li883 1.961 1_554 S
O941 C890 1.325 . S
O942 Li880 1.961 . S
O942 Li882 1.956 . S
O942 Li883 1.970 1_554 S
O942 C912 1.325 . S
O943 Li881 1.961 1_556 S
O943 Li882 1.970 1_556 S
O943 Li883 1.956 . S
O943 C918 1.325 . S
H944 C886 0.929 . S
H945 C887 0.930 . S
H946 C888 0.930 . S
H947 C889 0.930 . S
H948 C891 0.930 1_556 S
H949 C893 0.929 . S
H950 C894 0.930 . S
H951 C895 0.930 . S
H952 C898 0.930 . S
H953 C901 0.929 . S
H954 C906 0.929 . S
H955 C907 0.930 . S
H956 C914 0.914 1_556 S
H957 C915 0.930 . S
H958 C916 0.930 1_556 S
H959 C917 0.930 . S
H960 C919 0.929 . S
H961 C920 0.930 . S
H962 C921 0.930 . S
H963 C922 0.930 . S
H964 C926 0.929 . S
H965 C928 0.930 1_556 S
H966 C934 0.929 . S
H967 C935 0.930 . S
Li968 N985 1.990 . S
Li968 O1028 1.956 . S
Li968 O1029 1.970 . S
Li968 O1030 1.961 . S
Li969 N993 1.990 . S
Li969 O1028 1.970 . S
Li969 O1029 1.956 . S
Li969 O1031 1.961 . S
Li970 N1015 1.990 . S
Li970 O1028 1.961 . S
Li970 O1030 1.956 . S
Li970 O1031 1.970 . S
Li971 N1021 1.990 . S
Li971 O1029 1.961 . S
Li971 O1030 1.970 . S
Li971 O1031 1.956 . S
C972 C974 1.348 . S
C972 C975 1.356 . S
C972 O1028 1.325 . S
N973 C976 1.314 . S
N973 C977 1.279 . S
C974 C972 1.348 . S
C974 C976 1.353 . S
C974 H1032 0.929 . S
C975 C972 1.356 . S
C975 C977 1.358 . S
C975 H1033 0.930 . S
C976 N973 1.314 . S
C976 C974 1.353 . S
C976 H1034 0.930 . S
C977 N973 1.279 . S
C977 C975 1.358 . S
C977 H1035 0.930 . S
C978 C981 1.348 . S
C978 C982 1.356 . S
C978 O1029 1.325 . S
C979 N980 1.279 . S
C979 C982 1.358 . S
C979 H1036 0.930 . S
N980 C979 1.279 . S
N980 C983 1.314 . S
C981 C978 1.348 . S
C981 C983 1.353 . S
C981 H1037 0.929 . S
C982 C978 1.356 . S
C982 C979 1.358 . S
C982 H1038 0.930 . S
C983 N980 1.314 . S
C983 C981 1.353 . S
C983 H1039 0.930 . S
C984 N985 1.314 . S
C984 C989 1.353 . S
C984 H990 0.930 . S
N985 Li968 1.990 . S
N985 C984 1.314 . S
N985 C987 1.279 . S
C986 C987 1.358 . S
C986 C988 1.356 . S
C986 H1040 0.930 . S
C987 N985 1.279 . S
C987 C986 1.358 . S
C987 H991 0.930 . S
C988 C986 1.356 . S
C988 C989 1.348 . S
C989 C984 1.353 . S
C989 C988 1.348 . S
C989 H1041 0.929 . S
H990 C984 0.930 . S
H991 C987 0.930 . S
C992 N993 1.314 . S
C992 C994 1.353 . S
C992 H998 0.930 . S
N993 Li969 1.990 . S
N993 C992 1.314 . S
N993 C996 1.279 . S
C994 C992 1.353 . S
C994 C997 1.348 . S
C994 H1042 0.929 . S
C995 C996 1.358 . S
C995 C997 1.356 . S
C995 H1043 0.930 . S
C996 N993 1.279 . S
C996 C995 1.358 . S
C996 H999 0.930 . S
C997 C994 1.348 . S
C997 C995 1.356 . S
H998 C992 0.930 . S
H999 C996 0.930 . S
C1000 C1002 1.348 . S
C1000 C1003 1.356 . S
C1000 O1030 1.325 . S
N1001 C1004 1.314 . S
N1001 C1005 1.279 . S
C1002 C1000 1.348 . S
C1002 C1004 1.353 . S
C1002 H1044 0.929 . S
C1003 C1000 1.356 . S
C1003 C1005 1.358 . S
C1003 H1045 0.930 . S
C1004 N1001 1.314 . S
C1004 C1002 1.353 . S
C1004 H1046 0.930 . S
C1005 N1001 1.279 . S
C1005 C1003 1.358 . S
C1005 H1047 0.930 . S
C1006 C1007 1.348 . S
C1006 C1008 1.356 . S
C1006 O1031 1.325 . S
C1007 C1006 1.348 . S
C1007 C1009 1.353 . S
C1007 H1048 0.929 . S
C1008 C1006 1.356 . S
C1008 C1010 1.358 . S
C1008 H1049 0.930 . S
C1009 C1007 1.353 . S
C1009 N1011 1.314 . S
C1009 H1050 0.930 . S
C1010 C1008 1.358 . S
C1010 N1011 1.279 . S
C1010 H1051 0.930 . S
N1011 C1009 1.314 . S
N1011 C1010 1.279 . S
C1012 C1014 1.353 . S
C1012 N1015 1.314 . S
C1012 H1018 0.930 . S
C1013 N1015 1.279 . S
C1013 C1016 1.358 . S
C1013 H1019 0.930 . S
C1014 C1012 1.353 . S
C1014 C1017 1.348 . S
C1014 H1052 0.929 . S
N1015 Li970 1.990 . S
N1015 C1012 1.314 . S
N1015 C1013 1.279 . S
C1016 C1013 1.358 . S
C1016 C1017 1.356 . S
C1016 H1053 0.930 . S
C1017 C1014 1.348 . S
C1017 C1016 1.356 . S
H1018 C1012 0.930 . S
H1019 C1013 0.930 . S
C1020 N1021 1.314 . S
C1020 C1022 1.353 . S
C1020 H1026 0.930 . S
N1021 Li971 1.990 . S
N1021 C1020 1.314 . S
N1021 C1024 1.279 . S
C1022 C1020 1.353 . S
C1022 C1025 1.348 . S
C1022 H1054 0.929 . S
C1023 C1024 1.358 . S
C1023 C1025 1.356 . S
C1023 H1055 0.930 . S
C1024 N1021 1.279 . S
C1024 C1023 1.358 . S
C1024 H1027 0.930 . S
C1025 C1022 1.348 . S
C1025 C1023 1.356 . S
H1026 C1020 0.930 . S
H1027 C1024 0.930 . S
O1028 Li968 1.956 . S
O1028 Li969 1.970 . S
O1028 Li970 1.961 . S
O1028 C972 1.325 . S
O1029 Li968 1.970 . S
O1029 Li969 1.956 . S
O1029 Li971 1.961 . S
O1029 C978 1.325 . S
O1030 Li968 1.961 . S
O1030 Li970 1.956 . S
O1030 Li971 1.970 . S
O1030 C1000 1.325 . S
O1031 Li969 1.961 . S
O1031 Li970 1.970 . S
O1031 Li971 1.956 . S
O1031 C1006 1.325 . S
H1032 C974 0.929 . S
H1033 C975 0.930 . S
H1034 C976 0.930 . S
H1035 C977 0.930 . S
H1036 C979 0.930 . S
H1037 C981 0.929 . S
H1038 C982 0.930 . S
H1039 C983 0.930 . S
H1040 C986 0.930 . S
H1041 C989 0.929 . S
H1042 C994 0.929 . S
H1043 C995 0.930 . S
H1044 C1002 0.929 . S
H1045 C1003 0.930 . S
H1046 C1004 0.930 . S
H1047 C1005 0.930 . S
H1048 C1007 0.929 . S
H1049 C1008 0.930 . S
H1050 C1009 0.930 . S
H1051 C1010 0.930 . S
H1052 C1014 0.929 . S
H1053 C1016 0.930 . S
H1054 C1022 0.929 . S
H1055 C1023 0.930 . S
Li1056 N1073 1.990 . S
Li1056 O1116 1.956 . S
Li1056 O1117 1.970 . S
Li1056 O1118 1.961 . S
Li1057 N1081 1.990 . S
Li1057 O1116 1.970 . S
Li1057 O1117 1.956 . S
Li1057 O1119 1.961 . S
Li1058 N1103 1.990 . S
Li1058 O1116 1.961 . S
Li1058 O1118 1.956 . S
Li1058 O1119 1.970 . S
Li1059 N1109 1.990 . S
Li1059 O1117 1.961 . S
Li1059 O1118 1.970 . S
Li1059 O1119 1.956 . S
C1060 C1062 1.348 . S
C1060 C1063 1.356 . S
C1060 O1116 1.325 . S
N1061 C1064 1.314 . S
N1061 C1065 1.279 . S
C1062 C1060 1.348 . S
C1062 C1064 1.353 . S
C1062 H1120 0.929 . S
C1063 C1060 1.356 . S
C1063 C1065 1.358 . S
C1063 H1121 0.930 . S
C1064 N1061 1.314 . S
C1064 C1062 1.353 . S
C1064 H1122 0.930 . S
C1065 N1061 1.279 . S
C1065 C1063 1.358 . S
C1065 H1123 0.930 . S
C1066 C1069 1.348 . S
C1066 C1070 1.356 . S
C1066 O1117 1.325 . S
C1067 N1068 1.279 . S
C1067 C1070 1.358 . S
C1067 H1124 0.930 . S
N1068 C1067 1.279 . S
N1068 C1071 1.314 . S
C1069 C1066 1.348 . S
C1069 C1071 1.353 . S
C1069 H1125 0.929 . S
C1070 C1066 1.356 . S
C1070 C1067 1.358 . S
C1070 H1126 0.930 . S
C1071 N1068 1.314 . S
C1071 C1069 1.353 . S
C1071 H1127 0.930 . S
C1072 N1073 1.314 . S
C1072 C1077 1.353 . S
C1072 H1078 0.930 . S
N1073 Li1056 1.990 . S
N1073 C1072 1.314 . S
N1073 C1075 1.279 . S
C1074 C1075 1.358 . S
C1074 C1076 1.356 . S
C1074 H1128 0.930 . S
C1075 N1073 1.279 . S
C1075 C1074 1.358 . S
C1075 H1079 0.930 . S
C1076 C1074 1.356 . S
C1076 C1077 1.348 . S
C1077 C1072 1.353 . S
C1077 C1076 1.348 . S
C1077 H1129 0.929 . S
H1078 C1072 0.930 . S
H1079 C1075 0.930 . S
C1080 N1081 1.314 . S
C1080 C1082 1.353 . S
C1080 H1086 0.930 . S
N1081 Li1057 1.990 . S
N1081 C1080 1.314 . S
N1081 C1084 1.279 . S
C1082 C1080 1.353 . S
C1082 C1085 1.348 . S
C1082 H1130 0.929 . S
C1083 C1084 1.358 . S
C1083 C1085 1.356 . S
C1083 H1131 0.930 . S
C1084 N1081 1.279 . S
C1084 C1083 1.358 . S
C1084 H1087 0.930 . S
C1085 C1082 1.348 . S
C1085 C1083 1.356 . S
H1086 C1080 0.930 . S
H1087 C1084 0.930 . S
C1088 C1090 1.348 . S
C1088 C1091 1.356 . S
C1088 O1118 1.325 . S
N1089 C1092 1.314 . S
N1089 C1093 1.279 . S
C1090 C1088 1.348 . S
C1090 C1092 1.353 . S
C1090 H1132 0.929 . S
C1091 C1088 1.356 . S
C1091 C1093 1.358 . S
C1091 H1133 0.930 . S
C1092 N1089 1.314 . S
C1092 C1090 1.353 . S
C1092 H1134 0.930 . S
C1093 N1089 1.279 . S
C1093 C1091 1.358 . S
C1093 H1135 0.930 . S
C1094 C1095 1.348 . S
C1094 C1096 1.356 . S
C1094 O1119 1.325 . S
C1095 C1094 1.348 . S
C1095 C1097 1.353 . S
C1095 H1136 0.929 . S
C1096 C1094 1.356 . S
C1096 C1098 1.358 . S
C1096 H1137 0.930 . S
C1097 C1095 1.353 . S
C1097 N1099 1.314 . S
C1097 H1138 0.930 . S
C1098 C1096 1.358 . S
C1098 N1099 1.279 . S
C1098 H1139 0.930 . S
N1099 C1097 1.314 . S
N1099 C1098 1.279 . S
C1100 C1102 1.353 . S
C1100 N1103 1.314 . S
C1100 H1106 0.930 . S
C1101 N1103 1.279 . S
C1101 C1104 1.358 . S
C1101 H1107 0.930 . S
C1102 C1100 1.353 . S
C1102 C1105 1.348 . S
C1102 H1140 0.929 . S
N1103 Li1058 1.990 . S
N1103 C1100 1.314 . S
N1103 C1101 1.279 . S
C1104 C1101 1.358 . S
C1104 C1105 1.356 . S
C1104 H1141 0.930 . S
C1105 C1102 1.348 . S
C1105 C1104 1.356 . S
H1106 C1100 0.930 . S
H1107 C1101 0.930 . S
C1108 N1109 1.314 . S
C1108 C1110 1.353 . S
C1108 H1114 0.930 . S
N1109 Li1059 1.990 . S
N1109 C1108 1.314 . S
N1109 C1112 1.279 . S
C1110 C1108 1.353 . S
C1110 C1113 1.348 . S
C1110 H1142 0.929 . S
C1111 C1112 1.358 . S
C1111 C1113 1.356 . S
C1111 H1143 0.930 . S
C1112 N1109 1.279 . S
C1112 C1111 1.358 . S
C1112 H1115 0.930 . S
C1113 C1110 1.348 . S
C1113 C1111 1.356 . S
H1114 C1108 0.930 . S
H1115 C1112 0.930 . S
O1116 Li1056 1.956 . S
O1116 Li1057 1.970 . S
O1116 Li1058 1.961 . S
O1116 C1060 1.325 . S
O1117 Li1056 1.970 . S
O1117 Li1057 1.956 . S
O1117 Li1059 1.961 . S
O1117 C1066 1.325 . S
O1118 Li1056 1.961 . S
O1118 Li1058 1.956 . S
O1118 Li1059 1.970 . S
O1118 C1088 1.325 . S
O1119 Li1057 1.961 . S
O1119 Li1058 1.970 . S
O1119 Li1059 1.956 . S
O1119 C1094 1.325 . S
H1120 C1062 0.929 . S
H1121 C1063 0.930 . S
H1122 C1064 0.930 . S
H1123 C1065 0.930 . S
H1124 C1067 0.930 . S
H1125 C1069 0.929 . S
H1126 C1070 0.930 . S
H1127 C1071 0.930 . S
H1128 C1074 0.930 . S
H1129 C1077 0.929 . S
H1130 C1082 0.929 . S
H1131 C1083 0.930 . S
H1132 C1090 0.929 . S
H1133 C1091 0.930 . S
H1134 C1092 0.930 . S
H1135 C1093 0.930 . S
H1136 C1095 0.929 . S
H1137 C1096 0.930 . S
H1138 C1097 0.930 . S
H1139 C1098 0.930 . S
H1140 C1102 0.929 . S
H1141 C1104 0.930 . S
H1142 C1110 0.929 . S
H1143 C1111 0.930 . S
Li1144 N1161 1.994 . S
Li1144 O1204 1.998 . S
Li1144 O1205 1.926 1_455 S
Li1144 O1206 1.958 1_455 S
Li1145 N1169 1.993 . S
Li1145 O1204 1.939 1_655 S
Li1145 O1205 1.986 . S
Li1145 O1207 1.958 1_655 S
Li1146 N1191 1.990 . S
Li1146 O1204 1.961 . S
Li1146 O1206 1.931 1_455 S
Li1146 O1207 2.005 . S
Li1147 N1197 1.990 . S
Li1147 O1205 1.961 . S
Li1147 O1206 1.994 . S
Li1147 O1207 1.919 1_655 S
C1148 C1150 1.348 . S
C1148 C1151 1.356 . S
C1148 O1204 1.325 . S
N1149 C1152 1.314 . S
N1149 C1153 1.279 . S
C1150 C1148 1.348 . S
C1150 C1152 1.353 . S
C1150 H1208 0.929 . S
C1151 C1148 1.356 . S
C1151 C1153 1.358 . S
C1151 H1209 0.930 . S
C1152 N1149 1.314 . S
C1152 C1150 1.353 . S
C1152 H1210 0.930 . S
C1153 N1149 1.279 . S
C1153 C1151 1.358 . S
C1153 H1211 0.930 . S
C1154 C1157 1.348 . S
C1154 C1158 1.356 . S
C1154 O1205 1.325 . S
C1155 N1156 1.279 . S
C1155 C1158 1.358 . S
C1155 H1212 0.930 . S
N1156 C1155 1.279 . S
N1156 C1159 1.314 . S
C1157 C1154 1.348 . S
C1157 C1159 1.353 . S
C1157 H1213 0.929 . S
C1158 C1154 1.356 . S
C1158 C1155 1.358 . S
C1158 H1214 0.930 . S
C1159 N1156 1.314 . S
C1159 C1157 1.353 . S
C1159 H1215 0.930 . S
C1160 N1161 1.314 1_655 S
C1160 C1165 1.353 . S
C1160 H1166 0.930 . S
N1161 Li1144 1.994 . S
N1161 C1160 1.314 1_455 S
N1161 C1163 1.279 . S
C1162 C1163 1.358 . S
C1162 C1164 1.356 . S
C1162 H1216 0.930 . S
C1163 N1161 1.279 . S
C1163 C1162 1.358 . S
C1163 H1167 0.930 . S
C1164 C1162 1.356 . S
C1164 C1165 1.348 1_455 S
C1165 C1160 1.353 . S
C1165 C1164 1.348 1_655 S
C1165 H1217 0.929 . S
H1166 C1160 0.930 . S
H1167 C1163 0.930 . S
C1168 N1169 1.314 1_455 S
C1168 C1170 1.353 . S
C1168 H1174 0.930 . S
N1169 Li1145 1.993 . S
N1169 C1168 1.314 1_655 S
N1169 C1172 1.279 . S
C1170 C1168 1.353 . S
C1170 C1173 1.348 . S
C1170 H1218 0.929 . S
C1171 C1172 1.358 . S
C1171 C1173 1.356 1_655 S
C1171 H1219 0.930 . S
C1172 N1169 1.279 . S
C1172 C1171 1.358 . S
C1172 H1175 0.930 . S
C1173 C1170 1.348 . S
C1173 C1171 1.356 1_455 S
H1174 C1168 0.930 . S
H1175 C1172 0.930 . S
C1176 C1178 1.348 1_455 S
C1176 C1179 1.356 . S
C1176 O1206 1.324 1_455 S
N1177 C1180 1.314 1_455 S
N1177 C1181 1.279 . S
C1178 C1176 1.348 1_655 S
C1178 C1180 1.353 . S
C1178 H1220 0.929 . S
C1179 C1176 1.356 . S
C1179 C1181 1.358 . S
C1179 H1221 0.930 . S
C1180 N1177 1.314 1_655 S
C1180 C1178 1.353 . S
C1180 H1222 0.930 . S
C1181 N1177 1.279 . S
C1181 C1179 1.358 . S
C1181 H1223 0.930 . S
C1182 C1183 1.348 . S
C1182 C1184 1.356 1_455 S
C1182 O1207 1.324 . S
C1183 C1182 1.348 . S
C1183 C1185 1.353 . S
C1183 H1224 0.929 . S
C1184 C1182 1.356 1_655 S
C1184 C1186 1.358 . S
C1184 H1225 0.930 . S
C1185 C1183 1.353 . S
C1185 N1187 1.314 1_455 S
C1185 H1226 0.930 . S
C1186 C1184 1.358 . S
C1186 N1187 1.279 . S
C1186 H1227 0.930 . S
N1187 C1185 1.314 1_655 S
N1187 C1186 1.279 . S
C1188 C1190 1.353 . S
C1188 N1191 1.314 . S
C1188 H1194 0.930 . S
C1189 N1191 1.279 . S
C1189 C1192 1.358 . S
C1189 H1195 0.930 . S
C1190 C1188 1.353 . S
C1190 C1193 1.348 . S
C1190 H1228 0.929 . S
N1191 Li1146 1.990 . S
N1191 C1188 1.314 . S
N1191 C1189 1.279 . S
C1192 C1189 1.358 . S
C1192 C1193 1.356 . S
C1192 H1229 0.930 . S
C1193 C1190 1.348 . S
C1193 C1192 1.356 . S
H1194 C1188 0.930 . S
H1195 C1189 0.930 . S
C1196 N1197 1.314 . S
C1196 C1198 1.353 . S
C1196 H1202 0.930 . S
N1197 Li1147 1.990 . S
N1197 C1196 1.314 . S
N1197 C1200 1.279 . S
C1198 C1196 1.353 . S
C1198 C1201 1.348 . S
C1198 H1230 0.929 . S
C1199 C1200 1.358 . S
C1199 C1201 1.356 . S
C1199 H1231 0.930 . S
C1200 N1197 1.279 . S
C1200 C1199 1.358 . S
C1200 H1203 0.930 . S
C1201 C1198 1.348 . S
C1201 C1199 1.356 . S
H1202 C1196 0.930 . S
H1203 C1200 0.930 . S
O1204 Li1144 1.998 . S
O1204 Li1145 1.939 1_455 S
O1204 Li1146 1.961 . S
O1204 C1148 1.325 . S
O1205 Li1144 1.926 1_655 S
O1205 Li1145 1.986 . S
O1205 Li1147 1.961 . S
O1205 C1154 1.325 . S
O1206 Li1144 1.958 1_655 S
O1206 Li1146 1.931 1_655 S
O1206 Li1147 1.994 . S
O1206 C1176 1.324 1_655 S
O1207 Li1145 1.958 1_455 S
O1207 Li1146 2.005 . S
O1207 Li1147 1.919 1_455 S
O1207 C1182 1.324 . S
H1208 C1150 0.929 . S
H1209 C1151 0.930 . S
H1210 C1152 0.930 . S
H1211 C1153 0.930 . S
H1212 C1155 0.930 . S
H1213 C1157 0.929 . S
H1214 C1158 0.930 . S
H1215 C1159 0.930 . S
H1216 C1162 0.930 . S
H1217 C1165 0.929 . S
H1218 C1170 0.929 . S
H1219 C1171 0.930 . S
H1220 C1178 0.929 . S
H1221 C1179 0.930 . S
H1222 C1180 0.930 . S
H1223 C1181 0.930 . S
H1224 C1183 0.929 . S
H1225 C1184 0.930 . S
H1226 C1185 0.930 . S
H1227 C1186 0.930 . S
H1228 C1190 0.929 . S
H1229 C1192 0.930 . S
H1230 C1198 0.929 . S
H1231 C1199 0.930 . S
Li1232 N1249 1.990 . S
Li1232 O1292 1.956 . S
Li1232 O1293 1.970 . S
Li1232 O1294 1.961 . S
Li1233 N1257 1.990 . S
Li1233 O1292 1.970 . S
Li1233 O1293 1.956 . S
Li1233 O1295 1.961 . S
Li1234 N1279 1.990 . S
Li1234 O1292 1.961 . S
Li1234 O1294 1.956 . S
Li1234 O1295 1.970 . S
Li1235 N1285 1.990 . S
Li1235 O1293 1.961 . S
Li1235 O1294 1.970 . S
Li1235 O1295 1.956 . S
C1236 C1238 1.348 . S
C1236 C1239 1.356 . S
C1236 O1292 1.325 . S
N1237 C1240 1.314 . S
N1237 C1241 1.279 . S
C1238 C1236 1.348 . S
C1238 C1240 1.353 . S
C1238 H1296 0.929 . S
C1239 C1236 1.356 . S
C1239 C1241 1.358 . S
C1239 H1297 0.930 . S
C1240 N1237 1.314 . S
C1240 C1238 1.353 . S
C1240 H1298 0.930 . S
C1241 N1237 1.279 . S
C1241 C1239 1.358 . S
C1241 H1299 0.930 . S
C1242 C1245 1.348 . S
C1242 C1246 1.356 . S
C1242 O1293 1.325 . S
C1243 N1244 1.279 . S
C1243 C1246 1.358 . S
C1243 H1300 0.930 . S
N1244 C1243 1.279 . S
N1244 C1247 1.314 . S
C1245 C1242 1.348 . S
C1245 C1247 1.353 . S
C1245 H1301 0.929 . S
C1246 C1242 1.356 . S
C1246 C1243 1.358 . S
C1246 H1302 0.930 . S
C1247 N1244 1.314 . S
C1247 C1245 1.353 . S
C1247 H1303 0.930 . S
C1248 N1249 1.314 . S
C1248 C1253 1.353 . S
C1248 H1254 0.930 . S
N1249 Li1232 1.990 . S
N1249 C1248 1.314 . S
N1249 C1251 1.279 . S
C1250 C1251 1.358 . S
C1250 C1252 1.356 . S
C1250 H1304 0.930 . S
C1251 N1249 1.279 . S
C1251 C1250 1.358 . S
C1251 H1255 0.930 . S
C1252 C1250 1.356 . S
C1252 C1253 1.348 . S
C1253 C1248 1.353 . S
C1253 C1252 1.348 . S
C1253 H1305 0.929 . S
H1254 C1248 0.930 . S
H1255 C1251 0.930 . S
C1256 N1257 1.314 . S
C1256 C1258 1.353 . S
C1256 H1262 0.930 . S
N1257 Li1233 1.990 . S
N1257 C1256 1.314 . S
N1257 C1260 1.279 . S
C1258 C1256 1.353 . S
C1258 C1261 1.348 . S
C1258 H1306 0.929 . S
C1259 C1260 1.358 . S
C1259 C1261 1.356 . S
C1259 H1307 0.930 . S
C1260 N1257 1.279 . S
C1260 C1259 1.358 . S
C1260 H1263 0.930 . S
C1261 C1258 1.348 . S
C1261 C1259 1.356 . S
H1262 C1256 0.930 . S
H1263 C1260 0.930 . S
C1264 C1266 1.348 . S
C1264 C1267 1.356 . S
C1264 O1294 1.325 . S
N1265 C1268 1.314 . S
N1265 C1269 1.279 . S
C1266 C1264 1.348 . S
C1266 C1268 1.353 . S
C1266 H1308 0.929 . S
C1267 C1264 1.356 . S
C1267 C1269 1.358 . S
C1267 H1309 0.930 . S
C1268 N1265 1.314 . S
C1268 C1266 1.353 . S
C1268 H1310 0.930 . S
C1269 N1265 1.279 . S
C1269 C1267 1.358 . S
C1269 H1311 0.930 . S
C1270 C1271 1.348 . S
C1270 C1272 1.356 . S
C1270 O1295 1.325 . S
C1271 C1270 1.348 . S
C1271 C1273 1.353 . S
C1271 H1312 0.929 . S
C1272 C1270 1.356 . S
C1272 C1274 1.358 . S
C1272 H1313 0.930 . S
C1273 C1271 1.353 . S
C1273 N1275 1.314 . S
C1273 H1314 0.930 . S
C1274 C1272 1.358 . S
C1274 N1275 1.279 . S
C1274 H1315 0.930 . S
N1275 C1273 1.314 . S
N1275 C1274 1.279 . S
C1276 C1278 1.353 . S
C1276 N1279 1.314 . S
C1276 H1282 0.930 . S
C1277 N1279 1.279 . S
C1277 C1280 1.358 . S
C1277 H1283 0.930 . S
C1278 C1276 1.353 . S
C1278 C1281 1.348 . S
C1278 H1316 0.929 . S
N1279 Li1234 1.990 . S
N1279 C1276 1.314 . S
N1279 C1277 1.279 . S
C1280 C1277 1.358 . S
C1280 C1281 1.356 . S
C1280 H1317 0.930 . S
C1281 C1278 1.348 . S
C1281 C1280 1.356 . S
H1282 C1276 0.930 . S
H1283 C1277 0.930 . S
C1284 N1285 1.314 . S
C1284 C1286 1.353 . S
C1284 H1290 0.930 . S
N1285 Li1235 1.990 . S
N1285 C1284 1.314 . S
N1285 C1288 1.279 . S
C1286 C1284 1.353 . S
C1286 C1289 1.348 . S
C1286 H1318 0.929 . S
C1287 C1288 1.358 . S
C1287 C1289 1.356 . S
C1287 H1319 0.930 . S
C1288 N1285 1.279 . S
C1288 C1287 1.358 . S
C1288 H1291 0.930 . S
C1289 C1286 1.348 . S
C1289 C1287 1.356 . S
H1290 C1284 0.930 . S
H1291 C1288 0.930 . S
O1292 Li1232 1.956 . S
O1292 Li1233 1.970 . S
O1292 Li1234 1.961 . S
O1292 C1236 1.325 . S
O1293 Li1232 1.970 . S
O1293 Li1233 1.956 . S
O1293 Li1235 1.961 . S
O1293 C1242 1.325 . S
O1294 Li1232 1.961 . S
O1294 Li1234 1.956 . S
O1294 Li1235 1.970 . S
O1294 C1264 1.325 . S
O1295 Li1233 1.961 . S
O1295 Li1234 1.970 . S
O1295 Li1235 1.956 . S
O1295 C1270 1.325 . S
H1296 C1238 0.929 . S
H1297 C1239 0.930 . S
H1298 C1240 0.930 . S
H1299 C1241 0.930 . S
H1300 C1243 0.930 . S
H1301 C1245 0.929 . S
H1302 C1246 0.930 . S
H1303 C1247 0.930 . S
H1304 C1250 0.930 . S
H1305 C1253 0.929 . S
H1306 C1258 0.929 . S
H1307 C1259 0.930 . S
H1308 C1266 0.929 . S
H1309 C1267 0.930 . S
H1310 C1268 0.930 . S
H1311 C1269 0.930 . S
H1312 C1271 0.929 . S
H1313 C1272 0.930 . S
H1314 C1273 0.930 . S
H1315 C1274 0.930 . S
H1316 C1278 0.929 . S
H1317 C1280 0.930 . S
H1318 C1286 0.929 . S
H1319 C1287 0.930 . S
Li1320 N1337 1.990 . S
Li1320 O1380 1.931 1_455 S
Li1320 O1381 2.005 . S
Li1320 O1382 1.961 . S
Li1321 N1345 1.990 . S
Li1321 O1380 1.994 . S
Li1321 O1381 1.919 1_655 S
Li1321 O1383 1.961 . S
Li1322 N1367 1.994 . S
Li1322 O1380 1.958 1_455 S
Li1322 O1382 1.998 . S
Li1322 O1383 1.926 1_455 S
Li1323 N1373 1.993 . S
Li1323 O1381 1.958 1_655 S
Li1323 O1382 1.939 1_655 S
Li1323 O1383 1.986 . S
C1324 C1326 1.348 1_455 S
C1324 C1327 1.356 . S
C1324 O1380 1.324 1_455 S
N1325 C1328 1.314 1_455 S
N1325 C1329 1.279 . S
C1326 C1324 1.348 1_655 S
C1326 C1328 1.353 1_556 S
C1326 H1384 0.929 . S
C1327 C1324 1.356 . S
C1327 C1329 1.358 1_556 S
C1327 H1385 0.930 . S
C1328 N1325 1.314 1_655 S
C1328 C1326 1.353 1_554 S
C1328 H1386 0.930 . S
C1329 N1325 1.279 . S
C1329 C1327 1.358 1_554 S
C1329 H1387 0.930 . S
C1330 C1333 1.348 . S
C1330 C1334 1.356 1_455 S
C1330 O1381 1.324 . S
C1331 N1332 1.279 . S
C1331 C1334 1.358 . S
C1331 H1388 0.930 . S
N1332 C1331 1.279 . S
N1332 C1335 1.314 1_655 S
C1333 C1330 1.348 . S
C1333 C1335 1.353 . S
C1333 H1389 0.929 . S
C1334 C1330 1.356 1_655 S
C1334 C1331 1.358 . S
C1334 H1390 0.930 . S
C1335 N1332 1.314 1_455 S
C1335 C1333 1.353 . S
C1335 H1391 0.930 . S
C1336 N1337 1.314 . S
C1336 C1341 1.353 . S
C1336 H1342 0.930 . S
N1337 Li1320 1.990 . S
N1337 C1336 1.314 . S
N1337 C1339 1.279 . S
C1338 C1339 1.358 . S
C1338 C1340 1.356 . S
C1338 H1392 0.930 . S
C1339 N1337 1.279 . S
C1339 C1338 1.358 . S
C1339 H1343 0.930 . S
C1340 C1338 1.356 . S
C1340 C1341 1.348 . S
C1341 C1336 1.353 . S
C1341 C1340 1.348 . S
C1341 H1393 0.929 . S
H1342 C1336 0.930 . S
H1343 C1339 0.930 . S
C1344 N1345 1.314 . S
C1344 C1346 1.353 . S
C1344 H1350 0.930 . S
N1345 Li1321 1.990 . S
N1345 C1344 1.314 . S
N1345 C1348 1.279 . S
C1346 C1344 1.353 . S
C1346 C1349 1.348 . S
C1346 H1394 0.929 . S
C1347 C1348 1.358 . S
C1347 C1349 1.356 . S
C1347 H1395 0.930 . S
C1348 N1345 1.279 . S
C1348 C1347 1.358 . S
C1348 H1351 0.930 . S
C1349 C1346 1.348 . S
C1349 C1347 1.356 . S
H1350 C1344 0.930 . S
H1351 C1348 0.930 . S
C1352 C1354 1.348 . S
C1352 C1355 1.356 . S
C1352 O1382 1.325 . S
N1353 C1356 1.314 . S
N1353 C1357 1.279 . S
C1354 C1352 1.348 . S
C1354 C1356 1.353 . S
C1354 H1396 0.929 . S
C1355 C1352 1.356 . S
C1355 C1357 1.358 . S
C1355 H1397 0.930 . S
C1356 N1353 1.314 . S
C1356 C1354 1.353 . S
C1356 H1398 0.930 . S
C1357 N1353 1.279 . S
C1357 C1355 1.358 . S
C1357 H1399 0.930 . S
C1358 C1359 1.348 . S
C1358 C1360 1.356 . S
C1358 O1383 1.325 . S
C1359 C1358 1.348 . S
C1359 C1361 1.353 . S
C1359 H1400 0.929 . S
C1360 C1358 1.356 . S
C1360 C1362 1.358 . S
C1360 H1401 0.930 . S
C1361 C1359 1.353 . S
C1361 N1363 1.314 . S
C1361 H1402 0.930 . S
C1362 C1360 1.358 . S
C1362 N1363 1.279 . S
C1362 H1403 0.930 . S
N1363 C1361 1.314 . S
N1363 C1362 1.279 . S
C1364 C1366 1.353 1_556 S
C1364 N1367 1.314 1_655 S
C1364 H1370 0.930 . S
C1365 N1367 1.279 . S
C1365 C1368 1.358 . S
C1365 H1371 0.930 . S
C1366 C1364 1.353 1_554 S
C1366 C1369 1.348 1_655 S
C1366 H1404 0.929 . S
N1367 Li1322 1.994 . S
N1367 C1364 1.314 1_455 S
N1367 C1365 1.279 . S
C1368 C1365 1.358 . S
C1368 C1369 1.356 1_556 S
C1368 H1405 0.930 . S
C1369 C1366 1.348 1_455 S
C1369 C1368 1.356 1_554 S
H1370 C1364 0.930 . S
H1371 C1365 0.930 . S
C1372 N1373 1.314 1_455 S
C1372 C1374 1.353 . S
C1372 H1378 0.930 . S
N1373 Li1323 1.993 . S
N1373 C1372 1.314 1_655 S
N1373 C1376 1.279 . S
C1374 C1372 1.353 . S
C1374 C1377 1.348 . S
C1374 H1406 0.929 . S
C1375 C1376 1.358 . S
C1375 C1377 1.356 1_655 S
C1375 H1407 0.930 . S
C1376 N1373 1.279 . S
C1376 C1375 1.358 . S
C1376 H1379 0.930 . S
C1377 C1374 1.348 . S
C1377 C1375 1.356 1_455 S
H1378 C1372 0.930 . S
H1379 C1376 0.930 . S
O1380 Li1320 1.931 1_655 S
O1380 Li1321 1.994 . S
O1380 Li1322 1.958 1_655 S
O1380 C1324 1.324 1_655 S
O1381 Li1320 2.005 . S
O1381 Li1321 1.919 1_455 S
O1381 Li1323 1.958 1_455 S
O1381 C1330 1.324 . S
O1382 Li1320 1.961 . S
O1382 Li1322 1.998 . S
O1382 Li1323 1.939 1_455 S
O1382 C1352 1.325 . S
O1383 Li1321 1.961 . S
O1383 Li1322 1.926 1_655 S
O1383 Li1323 1.986 . S
O1383 C1358 1.325 . S
H1384 C1326 0.929 . S
H1385 C1327 0.930 . S
H1386 C1328 0.930 . S
H1387 C1329 0.930 . S
H1388 C1331 0.930 . S
H1389 C1333 0.929 . S
H1390 C1334 0.930 . S
H1391 C1335 0.930 . S
H1392 C1338 0.930 . S
H1393 C1341 0.929 . S
H1394 C1346 0.929 . S
H1395 C1347 0.930 . S
H1396 C1354 0.929 . S
H1397 C1355 0.930 . S
H1398 C1356 0.930 . S
H1399 C1357 0.930 . S
H1400 C1359 0.929 . S
H1401 C1360 0.930 . S
H1402 C1361 0.930 . S
H1403 C1362 0.930 . S
H1404 C1366 0.929 . S
H1405 C1368 0.930 . S
H1406 C1374 0.929 . S
H1407 C1375 0.930 . S
H1408 C1416 0.950 . S
H1409 C1421 0.950 . S
H1410 C1418 0.950 . S
H1411 C1420 0.950 . S
H1412 C1422 0.950 . S
H1413 C1424 0.950 . S
H1414 C1426 0.950 . S
H1415 C1427 0.950 . S
C1416 H1408 0.950 . S
C1416 C1417 1.386 . S
C1416 C1418 1.391 . S
C1417 C1416 1.386 . S
C1417 C1421 1.393 . S
C1418 H1410 0.950 . S
C1418 C1416 1.391 . S
C1418 C1419 1.400 . S
C1419 C1418 1.400 . S
C1419 C1420 1.398 . S
C1419 C1425 1.491 . S
C1420 H1411 0.950 . S
C1420 C1419 1.398 . S
C1420 C1421 1.391 . S
C1421 H1409 0.950 . S
C1421 C1417 1.393 . S
C1421 C1420 1.391 . S
C1422 H1412 0.950 . S
C1422 C1423 1.386 . S
C1422 C1424 1.391 . S
C1423 C1422 1.386 . S
C1423 C1427 1.393 . S
C1424 H1413 0.950 . S
C1424 C1422 1.391 . S
C1424 C1425 1.400 . S
C1425 C1419 1.491 . S
C1425 C1424 1.400 . S
C1425 C1426 1.398 . S
C1426 H1414 0.950 . S
C1426 C1425 1.398 . S
C1426 C1427 1.391 . S
C1427 H1415 0.950 . S
C1427 C1423 1.393 . S
C1427 C1426 1.391 . S
H1428 C1436 0.950 . S
H1429 C1441 0.950 . S
H1430 C1438 0.950 . S
H1431 C1440 0.950 . S
H1432 C1442 0.950 . S
H1433 C1444 0.950 . S
H1434 C1446 0.950 . S
H1435 C1447 0.950 . S
C1436 H1428 0.950 . S
C1436 C1437 1.386 . S
C1436 C1438 1.391 . S
C1437 C1436 1.386 . S
C1437 C1441 1.393 . S
C1438 H1430 0.950 . S
C1438 C1436 1.391 . S
C1438 C1439 1.400 . S
C1439 C1438 1.400 . S
C1439 C1440 1.398 . S
C1439 C1445 1.491 . S
C1440 H1431 0.950 . S
C1440 C1439 1.398 . S
C1440 C1441 1.391 . S
C1441 H1429 0.950 . S
C1441 C1437 1.393 . S
C1441 C1440 1.391 . S
C1442 H1432 0.950 . S
C1442 C1443 1.386 . S
C1442 C1444 1.391 . S
C1443 C1442 1.386 . S
C1443 C1447 1.393 . S
C1444 H1433 0.950 . S
C1444 C1442 1.391 . S
C1444 C1445 1.400 . S
C1445 C1439 1.491 . S
C1445 C1444 1.400 . S
C1445 C1446 1.398 . S
C1446 H1434 0.950 . S
C1446 C1445 1.398 . S
C1446 C1447 1.391 . S
C1447 H1435 0.950 . S
C1447 C1443 1.393 . S
C1447 C1446 1.391 . S
H1448 C1456 0.950 . S
H1449 C1461 0.950 . S
H1450 C1458 0.950 . S
H1451 C1460 0.950 . S
H1452 C1462 0.950 . S
H1453 C1464 0.950 . S
H1454 C1466 0.950 . S
H1455 C1467 0.950 . S
C1456 H1448 0.950 . S
C1456 C1457 1.386 . S
C1456 C1458 1.391 . S
C1457 C1456 1.386 . S
C1457 C1461 1.393 . S
C1458 H1450 0.950 . S
C1458 C1456 1.391 . S
C1458 C1459 1.400 . S
C1459 C1458 1.400 . S
C1459 C1460 1.398 . S
C1459 C1465 1.491 . S
C1460 H1451 0.950 . S
C1460 C1459 1.398 . S
C1460 C1461 1.391 . S
C1461 H1449 0.950 . S
C1461 C1457 1.393 . S
C1461 C1460 1.391 . S
C1462 H1452 0.950 . S
C1462 C1463 1.386 . S
C1462 C1464 1.391 . S
C1463 C1462 1.386 . S
C1463 C1467 1.393 . S
C1464 H1453 0.950 . S
C1464 C1462 1.391 . S
C1464 C1465 1.400 . S
C1465 C1459 1.491 . S
C1465 C1464 1.400 . S
C1465 C1466 1.398 . S
C1466 H1454 0.950 . S
C1466 C1465 1.398 . S
C1466 C1467 1.391 . S
C1467 H1455 0.950 . S
C1467 C1463 1.393 . S
C1467 C1466 1.391 . S
H1468 C1476 0.952 . S
H1469 C1481 0.950 . S
H1470 C1478 0.950 . S
H1471 C1480 0.950 . S
H1472 C1482 0.950 . S
H1473 C1484 0.950 . S
H1474 C1486 0.950 . S
H1475 C1487 0.950 . S
C1476 H1468 0.952 . S
C1476 C1477 1.386 . S
C1476 C1478 1.391 . S
C1477 C1476 1.386 . S
C1477 C1481 1.393 . S
C1478 H1470 0.950 . S
C1478 C1476 1.391 . S
C1478 C1479 1.400 . S
C1479 C1478 1.400 . S
C1479 C1480 1.398 . S
C1479 C1485 1.491 . S
C1480 H1471 0.950 . S
C1480 C1479 1.398 . S
C1480 C1481 1.391 . S
C1481 H1469 0.950 . S
C1481 C1477 1.393 . S
C1481 C1480 1.391 . S
C1482 H1472 0.950 . S
C1482 C1483 1.386 . S
C1482 C1484 1.391 . S
C1483 C1482 1.386 . S
C1483 C1487 1.393 . S
C1484 H1473 0.950 . S
C1484 C1482 1.391 . S
C1484 C1485 1.400 . S
C1485 C1479 1.491 . S
C1485 C1484 1.400 . S
C1485 C1486 1.398 . S
C1486 H1474 0.950 . S
C1486 C1485 1.398 . S
C1486 C1487 1.391 . S
C1487 H1475 0.950 . S
C1487 C1483 1.393 . S
C1487 C1486 1.391 . S
H1488 C1496 0.950 . S
H1489 C1501 0.950 . S
H1490 C1498 0.950 . S
H1491 C1500 0.950 . S
H1492 C1502 0.950 . S
H1493 C1504 0.950 1_554 S
H1494 C1506 0.950 . S
H1495 C1507 0.950 . S
C1496 H1488 0.950 . S
C1496 C1497 1.386 . S
C1496 C1498 1.391 . S
C1497 C1496 1.386 . S
C1497 C1501 1.393 . S
C1498 H1490 0.950 . S
C1498 C1496 1.391 . S
C1498 C1499 1.400 . S
C1499 C1498 1.400 . S
C1499 C1500 1.398 . S
C1499 C1505 1.491 . S
C1500 H1491 0.950 . S
C1500 C1499 1.398 . S
C1500 C1501 1.391 . S
C1501 H1489 0.950 . S
C1501 C1497 1.393 . S
C1501 C1500 1.391 . S
C1502 H1492 0.950 . S
C1502 C1503 1.386 1_554 S
C1502 C1504 1.391 1_554 S
C1503 C1502 1.386 1_556 S
C1503 C1507 1.393 . S
C1504 H1493 0.950 1_556 S
C1504 C1502 1.391 1_556 S
C1504 C1505 1.400 . S
C1505 C1499 1.491 . S
C1505 C1504 1.400 . S
C1505 C1506 1.398 . S
C1506 H1494 0.950 . S
C1506 C1505 1.398 . S
C1506 C1507 1.391 . S
C1507 H1495 0.950 . S
C1507 C1503 1.393 . S
C1507 C1506 1.391 . S
H1508 C1516 0.950 . S
H1509 C1521 0.950 . S
H1510 C1518 0.950 . S
H1511 C1520 0.950 . S
H1512 C1522 0.950 . S
H1513 C1524 0.950 . S
H1514 C1526 0.950 . S
H1515 C1527 0.950 . S
C1516 H1508 0.950 . S
C1516 C1517 1.386 . S
C1516 C1518 1.391 . S
C1517 C1516 1.386 . S
C1517 C1521 1.393 . S
C1518 H1510 0.950 . S
C1518 C1516 1.391 . S
C1518 C1519 1.400 . S
C1519 C1518 1.400 . S
C1519 C1520 1.398 . S
C1519 C1525 1.491 . S
C1520 H1511 0.950 . S
C1520 C1519 1.398 . S
C1520 C1521 1.391 . S
C1521 H1509 0.950 . S
C1521 C1517 1.393 . S
C1521 C1520 1.391 . S
C1522 H1512 0.950 . S
C1522 C1523 1.386 . S
C1522 C1524 1.391 . S
C1523 C1522 1.386 . S
C1523 C1527 1.393 . S
C1524 H1513 0.950 . S
C1524 C1522 1.391 . S
C1524 C1525 1.400 . S
C1525 C1519 1.491 . S
C1525 C1524 1.400 . S
C1525 C1526 1.398 . S
C1526 H1514 0.950 . S
C1526 C1525 1.398 . S
C1526 C1527 1.391 . S
C1527 H1515 0.950 . S
C1527 C1523 1.393 . S
C1527 C1526 1.391 . S
H1528 C1536 0.950 . S
H1529 C1541 0.950 . S
H1530 C1538 0.950 . S
H1531 C1540 0.950 . S
H1532 C1542 0.950 . S
H1533 C1544 0.950 . S
H1534 C1546 0.950 . S
H1535 C1547 0.950 . S
C1536 H1528 0.950 . S
C1536 C1537 1.386 . S
C1536 C1538 1.391 . S
C1537 C1536 1.386 . S
C1537 C1541 1.393 . S
C1538 H1530 0.950 . S
C1538 C1536 1.391 . S
C1538 C1539 1.400 . S
C1539 C1538 1.400 . S
C1539 C1540 1.398 . S
C1539 C1545 1.491 . S
C1540 H1531 0.950 . S
C1540 C1539 1.398 . S
C1540 C1541 1.391 . S
C1541 H1529 0.950 . S
C1541 C1537 1.393 . S
C1541 C1540 1.391 . S
C1542 H1532 0.950 . S
C1542 C1543 1.386 . S
C1542 C1544 1.391 . S
C1543 C1542 1.386 . S
C1543 C1547 1.393 . S
C1544 H1533 0.950 . S
C1544 C1542 1.391 . S
C1544 C1545 1.400 . S
C1545 C1539 1.491 . S
C1545 C1544 1.400 . S
C1545 C1546 1.398 . S
C1546 H1534 0.950 . S
C1546 C1545 1.398 . S
C1546 C1547 1.391 . S
C1547 H1535 0.950 . S
C1547 C1543 1.393 . S
C1547 C1546 1.391 . S
H1548 C1556 0.950 . S
H1549 C1561 0.950 . S
H1550 C1558 0.950 . S
H1551 C1560 0.950 . S
H1552 C1562 0.950 . S
H1553 C1564 0.950 . S
H1554 C1566 0.950 . S
H1555 C1567 0.950 . S
C1556 H1548 0.950 . S
C1556 C1557 1.386 . S
C1556 C1558 1.391 . S
C1557 C1556 1.386 . S
C1557 C1561 1.393 . S
C1558 H1550 0.950 . S
C1558 C1556 1.391 . S
C1558 C1559 1.400 . S
C1559 C1558 1.400 . S
C1559 C1560 1.398 . S
C1559 C1565 1.491 . S
C1560 H1551 0.950 . S
C1560 C1559 1.398 . S
C1560 C1561 1.391 . S
C1561 H1549 0.950 . S
C1561 C1557 1.393 . S
C1561 C1560 1.391 . S
C1562 H1552 0.950 . S
C1562 C1563 1.386 . S
C1562 C1564 1.391 . S
C1563 C1562 1.386 . S
C1563 C1567 1.393 . S
C1564 H1553 0.950 . S
C1564 C1562 1.391 . S
C1564 C1565 1.400 . S
C1565 C1559 1.491 . S
C1565 C1564 1.400 . S
C1565 C1566 1.398 . S
C1566 H1554 0.950 . S
C1566 C1565 1.398 . S
C1566 C1567 1.391 . S
C1567 H1555 0.950 . S
C1567 C1563 1.393 . S
C1567 C1566 1.391 . S
H1568 C1576 0.950 . S
H1569 C1581 0.950 . S
H1570 C1578 0.950 . S
H1571 C1580 0.950 . S
H1572 C1582 0.950 1_554 S
H1573 C1584 0.950 . S
H1574 C1586 0.950 . S
H1575 C1587 0.950 . S
C1576 H1568 0.950 . S
C1576 C1577 1.386 . S
C1576 C1578 1.391 . S
C1577 C1576 1.386 . S
C1577 C1581 1.393 . S
C1578 H1570 0.950 . S
C1578 C1576 1.391 . S
C1578 C1579 1.400 . S
C1579 C1578 1.400 . S
C1579 C1580 1.398 . S
C1579 C1585 1.491 . S
C1580 H1571 0.950 . S
C1580 C1579 1.398 . S
C1580 C1581 1.391 . S
C1581 H1569 0.950 . S
C1581 C1577 1.393 . S
C1581 C1580 1.391 . S
C1582 H1572 0.950 1_556 S
C1582 C1583 1.386 . S
C1582 C1584 1.391 . S
C1583 C1582 1.386 . S
C1583 C1587 1.393 . S
C1584 H1573 0.950 . S
C1584 C1582 1.391 . S
C1584 C1585 1.400 . S
C1585 C1579 1.491 . S
C1585 C1584 1.400 . S
C1585 C1586 1.398 . S
C1586 H1574 0.950 . S
C1586 C1585 1.398 . S
C1586 C1587 1.391 . S
C1587 H1575 0.950 . S
C1587 C1583 1.393 . S
C1587 C1586 1.391 . S
H1588 C1596 0.950 . S
H1589 C1601 0.950 . S
H1590 C1598 0.950 . S
H1591 C1600 0.950 . S
H1592 C1602 0.950 . S
H1593 C1604 0.950 . S
H1594 C1606 0.950 . S
H1595 C1607 0.950 . S
C1596 H1588 0.950 . S
C1596 C1597 1.386 . S
C1596 C1598 1.391 . S
C1597 C1596 1.386 . S
C1597 C1601 1.393 . S
C1598 H1590 0.950 . S
C1598 C1596 1.391 . S
C1598 C1599 1.400 . S
C1599 C1598 1.400 . S
C1599 C1600 1.398 . S
C1599 C1605 1.491 . S
C1600 H1591 0.950 . S
C1600 C1599 1.398 . S
C1600 C1601 1.391 . S
C1601 H1589 0.950 . S
C1601 C1597 1.393 . S
C1601 C1600 1.391 . S
C1602 H1592 0.950 . S
C1602 C1603 1.386 . S
C1602 C1604 1.391 . S
C1603 C1602 1.386 . S
C1603 C1607 1.393 . S
C1604 H1593 0.950 . S
C1604 C1602 1.391 . S
C1604 C1605 1.400 . S
C1605 C1599 1.491 . S
C1605 C1604 1.400 . S
C1605 C1606 1.398 . S
C1606 H1594 0.950 . S
C1606 C1605 1.398 . S
C1606 C1607 1.391 . S
C1607 H1595 0.950 . S
C1607 C1603 1.393 . S
C1607 C1606 1.391 . S
H1608 C1616 0.950 . S
H1609 C1621 0.950 . S
H1610 C1618 0.950 . S
H1611 C1620 0.950 . S
H1612 C1622 0.950 . S
H1613 C1624 0.950 . S
H1614 C1626 0.950 . S
H1615 C1627 0.950 . S
C1616 H1608 0.950 . S
C1616 C1617 1.386 . S
C1616 C1618 1.391 . S
C1617 C1616 1.386 . S
C1617 C1621 1.393 . S
C1618 H1610 0.950 . S
C1618 C1616 1.391 . S
C1618 C1619 1.400 . S
C1619 C1618 1.400 . S
C1619 C1620 1.398 . S
C1619 C1625 1.491 . S
C1620 H1611 0.950 . S
C1620 C1619 1.398 . S
C1620 C1621 1.391 . S
C1621 H1609 0.950 . S
C1621 C1617 1.393 . S
C1621 C1620 1.391 . S
C1622 H1612 0.950 . S
C1622 C1623 1.386 . S
C1622 C1624 1.391 . S
C1623 C1622 1.386 . S
C1623 C1627 1.393 . S
C1624 H1613 0.950 . S
C1624 C1622 1.391 . S
C1624 C1625 1.400 . S
C1625 C1619 1.491 . S
C1625 C1624 1.400 . S
C1625 C1626 1.398 . S
C1626 H1614 0.950 . S
C1626 C1625 1.398 . S
C1626 C1627 1.391 . S
C1627 H1615 0.950 . S
C1627 C1623 1.393 . S
C1627 C1626 1.391 . S
H1628 C1636 0.950 . S
H1629 C1641 0.950 . S
H1630 C1638 0.950 . S
H1631 C1640 0.950 . S
H1632 C1642 0.950 . S
H1633 C1644 0.950 . S
H1634 C1646 0.950 . S
H1635 C1647 0.950 . S
C1636 H1628 0.950 . S
C1636 C1637 1.386 . S
C1636 C1638 1.391 . S
C1637 C1636 1.386 . S
C1637 C1641 1.393 . S
C1638 H1630 0.950 . S
C1638 C1636 1.391 . S
C1638 C1639 1.400 . S
C1639 C1638 1.400 . S
C1639 C1640 1.398 . S
C1639 C1645 1.491 . S
C1640 H1631 0.950 . S
C1640 C1639 1.398 . S
C1640 C1641 1.391 . S
C1641 H1629 0.950 . S
C1641 C1637 1.393 . S
C1641 C1640 1.391 . S
C1642 H1632 0.950 . S
C1642 C1643 1.386 . S
C1642 C1644 1.391 . S
C1643 C1642 1.386 . S
C1643 C1647 1.393 . S
C1644 H1633 0.950 . S
C1644 C1642 1.391 . S
C1644 C1645 1.400 . S
C1645 C1639 1.491 . S
C1645 C1644 1.400 . S
C1645 C1646 1.398 . S
C1646 H1634 0.950 . S
C1646 C1645 1.398 . S
C1646 C1647 1.391 . S
C1647 H1635 0.950 . S
C1647 C1643 1.393 . S
C1647 C1646 1.391 . S
H1648 C1656 0.950 . S
H1649 C1661 0.950 . S
H1650 C1658 0.950 . S
H1651 C1660 0.950 . S
H1652 C1662 0.950 . S
H1653 C1664 0.950 . S
H1654 C1666 0.950 . S
H1655 C1667 0.950 . S
C1656 H1648 0.950 . S
C1656 C1657 1.386 . S
C1656 C1658 1.391 . S
C1657 C1656 1.386 . S
C1657 C1661 1.393 . S
C1658 H1650 0.950 . S
C1658 C1656 1.391 . S
C1658 C1659 1.400 . S
C1659 C1658 1.400 . S
C1659 C1660 1.398 . S
C1659 C1665 1.491 . S
C1660 H1651 0.950 . S
C1660 C1659 1.398 . S
C1660 C1661 1.391 . S
C1661 H1649 0.950 . S
C1661 C1657 1.393 . S
C1661 C1660 1.391 . S
C1662 H1652 0.950 . S
C1662 C1663 1.386 . S
C1662 C1664 1.391 . S
C1663 C1662 1.386 . S
C1663 C1667 1.393 . S
C1664 H1653 0.950 . S
C1664 C1662 1.391 . S
C1664 C1665 1.400 . S
C1665 C1659 1.491 . S
C1665 C1664 1.400 . S
C1665 C1666 1.398 . S
C1666 H1654 0.950 . S
C1666 C1665 1.398 . S
C1666 C1667 1.391 . S
C1667 H1655 0.950 . S
C1667 C1663 1.393 . S
C1667 C1666 1.391 . S
H1668 C1676 0.950 . S
H1669 C1681 0.950 . S
H1670 C1678 0.950 . S
H1671 C1680 0.950 . S
H1672 C1682 0.950 . S
H1673 C1684 0.950 . S
H1674 C1686 0.950 1_554 S
H1675 C1687 0.950 . S
C1676 H1668 0.950 . S
C1676 C1677 1.386 . S
C1676 C1678 1.391 . S
C1677 C1676 1.386 . S
C1677 C1681 1.393 . S
C1678 H1670 0.950 . S
C1678 C1676 1.391 . S
C1678 C1679 1.400 . S
C1679 C1678 1.400 . S
C1679 C1680 1.398 . S
C1679 C1685 1.491 . S
C1680 H1671 0.950 . S
C1680 C1679 1.398 . S
C1680 C1681 1.391 . S
C1681 H1669 0.950 . S
C1681 C1677 1.393 . S
C1681 C1680 1.391 . S
C1682 H1672 0.950 . S
C1682 C1683 1.386 . S
C1682 C1684 1.391 . S
C1683 C1682 1.386 . S
C1683 C1687 1.393 1_556 S
C1684 H1673 0.950 . S
C1684 C1682 1.391 . S
C1684 C1685 1.400 . S
C1685 C1679 1.491 . S
C1685 C1684 1.400 . S
C1685 C1686 1.398 . S
C1686 H1674 0.950 1_556 S
C1686 C1685 1.398 . S
C1686 C1687 1.391 1_556 S
C1687 H1675 0.950 . S
C1687 C1683 1.393 1_554 S
C1687 C1686 1.391 1_554 S
H1688 C1696 0.950 . S
H1689 C1701 0.950 . S
H1690 C1698 0.950 . S
H1691 C1700 0.950 . S
H1692 C1702 0.950 . S
H1693 C1704 0.950 . S
H1694 C1706 0.950 . S
H1695 C1707 0.950 . S
C1696 H1688 0.950 . S
C1696 C1697 1.386 . S
C1696 C1698 1.391 . S
C1697 C1696 1.386 . S
C1697 C1701 1.393 . S
C1698 H1690 0.950 . S
C1698 C1696 1.391 . S
C1698 C1699 1.400 . S
C1699 C1698 1.400 . S
C1699 C1700 1.398 . S
C1699 C1705 1.491 . S
C1700 H1691 0.950 . S
C1700 C1699 1.398 . S
C1700 C1701 1.391 . S
C1701 H1689 0.950 . S
C1701 C1697 1.393 . S
C1701 C1700 1.391 . S
C1702 H1692 0.950 . S
C1702 C1703 1.386 . S
C1702 C1704 1.391 . S
C1703 C1702 1.386 . S
C1703 C1707 1.393 . S
C1704 H1693 0.950 . S
C1704 C1702 1.391 . S
C1704 C1705 1.400 . S
C1705 C1699 1.491 . S
C1705 C1704 1.400 . S
C1705 C1706 1.398 . S
C1706 H1694 0.950 . S
C1706 C1705 1.398 . S
C1706 C1707 1.391 . S
C1707 H1695 0.950 . S
C1707 C1703 1.393 . S
C1707 C1706 1.391 . S
H1708 C1716 0.950 . S
H1709 C1721 0.950 . S
H1710 C1718 0.950 . S
H1711 C1720 0.950 . S
H1712 C1722 0.950 . S
H1713 C1724 0.950 . S
H1714 C1726 0.950 . S
H1715 C1727 0.950 . S
C1716 H1708 0.950 . S
C1716 C1717 1.386 . S
C1716 C1718 1.391 . S
C1717 C1716 1.386 . S
C1717 C1721 1.393 . S
C1718 H1710 0.950 . S
C1718 C1716 1.391 . S
C1718 C1719 1.400 . S
C1719 C1718 1.400 . S
C1719 C1720 1.398 . S
C1719 C1725 1.491 . S
C1720 H1711 0.950 . S
C1720 C1719 1.398 . S
C1720 C1721 1.391 . S
C1721 H1709 0.950 . S
C1721 C1717 1.393 . S
C1721 C1720 1.391 . S
C1722 H1712 0.950 . S
C1722 C1723 1.386 . S
C1722 C1724 1.391 . S
C1723 C1722 1.386 . S
C1723 C1727 1.393 . S
C1724 H1713 0.950 . S
C1724 C1722 1.391 . S
C1724 C1725 1.400 . S
C1725 C1719 1.491 . S
C1725 C1724 1.400 . S
C1725 C1726 1.398 . S
C1726 H1714 0.950 . S
C1726 C1725 1.398 . S
C1726 C1727 1.391 . S
C1727 H1715 0.950 . S
C1727 C1723 1.393 . S
C1727 C1726 1.391 . S
H1728 C1736 0.953 . S
H1729 C1741 0.950 . S
H1730 C1738 0.950 . S
H1731 C1740 0.950 . S
H1732 C1742 0.949 . S
H1733 C1744 0.950 . S
H1734 C1746 0.952 . S
H1735 C1747 0.950 . S
C1736 H1728 0.953 . S
C1736 C1737 1.388 . S
C1736 C1738 1.391 . S
C1737 C1736 1.388 . S
C1737 C1741 1.393 . S
C1738 H1730 0.950 . S
C1738 C1736 1.391 . S
C1738 C1739 1.400 . S
C1739 C1738 1.400 . S
C1739 C1740 1.402 . S
C1739 C1745 1.490 . S
C1740 H1731 0.950 . S
C1740 C1739 1.402 . S
C1740 C1741 1.391 . S
C1741 H1729 0.950 . S
C1741 C1737 1.393 . S
C1741 C1740 1.391 . S
C1742 H1732 0.949 . S
C1742 C1743 1.386 1_554 S
C1742 C1744 1.391 1_655 S
C1743 C1742 1.386 1_556 S
C1743 C1747 1.393 . S
C1744 H1733 0.950 . S
C1744 C1742 1.391 1_455 S
C1744 C1745 1.400 . S
C1745 C1739 1.490 . S
C1745 C1744 1.400 . S
C1745 C1746 1.397 1_455 S
C1746 H1734 0.952 . S
C1746 C1745 1.397 1_655 S
C1746 C1747 1.391 1_554 S
C1747 H1735 0.950 . S
C1747 C1743 1.393 . S
C1747 C1746 1.391 1_556 S
H1748 C1756 0.950 . S
H1749 C1761 0.950 . S
H1750 C1758 0.950 . S
H1751 C1760 0.950 . S
H1752 C1762 0.950 . S
H1753 C1764 0.950 . S
H1754 C1766 0.950 . S
H1755 C1767 0.950 . S
C1756 H1748 0.950 . S
C1756 C1757 1.386 . S
C1756 C1758 1.391 . S
C1757 C1756 1.386 . S
C1757 C1761 1.393 . S
C1758 H1750 0.950 . S
C1758 C1756 1.391 . S
C1758 C1759 1.400 . S
C1759 C1758 1.400 . S
C1759 C1760 1.398 . S
C1759 C1765 1.491 . S
C1760 H1751 0.950 . S
C1760 C1759 1.398 . S
C1760 C1761 1.391 . S
C1761 H1749 0.950 . S
C1761 C1757 1.393 . S
C1761 C1760 1.391 . S
C1762 H1752 0.950 . S
C1762 C1763 1.386 . S
C1762 C1764 1.391 . S
C1763 C1762 1.386 . S
C1763 C1767 1.393 . S
C1764 H1753 0.950 . S
C1764 C1762 1.391 . S
C1764 C1765 1.400 . S
C1765 C1759 1.491 . S
C1765 C1764 1.400 . S
C1765 C1766 1.398 . S
C1766 H1754 0.950 . S
C1766 C1765 1.398 . S
C1766 C1767 1.391 . S
C1767 H1755 0.950 . S
C1767 C1763 1.393 . S
C1767 C1766 1.391 . S
H1768 C1776 0.950 . S
H1769 C1781 0.950 . S
H1770 C1778 0.950 . S
H1771 C1780 0.950 . S
H1772 C1782 0.950 . S
H1773 C1784 0.950 . S
H1774 C1786 0.950 . S
H1775 C1787 0.950 . S
C1776 H1768 0.950 . S
C1776 C1777 1.386 . S
C1776 C1778 1.391 . S
C1777 C1776 1.386 . S
C1777 C1781 1.393 . S
C1778 H1770 0.950 . S
C1778 C1776 1.391 . S
C1778 C1779 1.400 . S
C1779 C1778 1.400 . S
C1779 C1780 1.398 . S
C1779 C1785 1.491 . S
C1780 H1771 0.950 . S
C1780 C1779 1.398 . S
C1780 C1781 1.391 . S
C1781 H1769 0.950 . S
C1781 C1777 1.393 . S
C1781 C1780 1.391 . S
C1782 H1772 0.950 . S
C1782 C1783 1.386 . S
C1782 C1784 1.391 . S
C1783 C1782 1.386 . S
C1783 C1787 1.393 . S
C1784 H1773 0.950 . S
C1784 C1782 1.391 . S
C1784 C1785 1.400 . S
C1785 C1779 1.491 . S
C1785 C1784 1.400 . S
C1785 C1786 1.398 . S
C1786 H1774 0.950 . S
C1786 C1785 1.398 . S
C1786 C1787 1.391 . S
C1787 H1775 0.950 . S
C1787 C1783 1.393 . S
C1787 C1786 1.391 . S
H1788 C1796 0.950 . S
H1789 C1801 0.950 . S
H1790 C1798 0.950 . S
H1791 C1800 0.950 . S
H1792 C1802 0.950 . S
H1793 C1804 0.950 . S
H1794 C1806 0.950 . S
H1795 C1807 0.950 . S
C1796 H1788 0.950 . S
C1796 C1797 1.386 . S
C1796 C1798 1.391 . S
C1797 C1796 1.386 . S
C1797 C1801 1.393 . S
C1798 H1790 0.950 . S
C1798 C1796 1.391 . S
C1798 C1799 1.400 . S
C1799 C1798 1.400 . S
C1799 C1800 1.398 . S
C1799 C1805 1.491 . S
C1800 H1791 0.950 . S
C1800 C1799 1.398 . S
C1800 C1801 1.391 . S
C1801 H1789 0.950 . S
C1801 C1797 1.393 . S
C1801 C1800 1.391 . S
C1802 H1792 0.950 . S
C1802 C1803 1.386 . S
C1802 C1804 1.391 . S
C1803 C1802 1.386 . S
C1803 C1807 1.393 . S
C1804 H1793 0.950 . S
C1804 C1802 1.391 . S
C1804 C1805 1.400 . S
C1805 C1799 1.491 . S
C1805 C1804 1.400 . S
C1805 C1806 1.398 . S
C1806 H1794 0.950 . S
C1806 C1805 1.398 . S
C1806 C1807 1.391 . S
C1807 H1795 0.950 . S
C1807 C1803 1.393 . S
C1807 C1806 1.391 . S
H1808 C1816 0.950 . S
H1809 C1821 0.950 . S
H1810 C1818 0.950 . S
H1811 C1820 0.950 . S
H1812 C1822 0.950 . S
H1813 C1824 0.950 . S
H1814 C1826 0.950 . S
H1815 C1827 0.950 . S
C1816 H1808 0.950 . S
C1816 C1817 1.386 . S
C1816 C1818 1.391 . S
C1817 C1816 1.386 . S
C1817 C1821 1.393 . S
C1818 H1810 0.950 . S
C1818 C1816 1.391 . S
C1818 C1819 1.400 . S
C1819 C1818 1.400 . S
C1819 C1820 1.398 . S
C1819 C1825 1.491 . S
C1820 H1811 0.950 . S
C1820 C1819 1.398 . S
C1820 C1821 1.391 . S
C1821 H1809 0.950 . S
C1821 C1817 1.393 . S
C1821 C1820 1.391 . S
C1822 H1812 0.950 . S
C1822 C1823 1.386 . S
C1822 C1824 1.391 . S
C1823 C1822 1.386 . S
C1823 C1827 1.393 . S
C1824 H1813 0.950 . S
C1824 C1822 1.391 . S
C1824 C1825 1.400 . S
C1825 C1819 1.491 . S
C1825 C1824 1.400 . S
C1825 C1826 1.398 . S
C1826 H1814 0.950 . S
C1826 C1825 1.398 . S
C1826 C1827 1.391 . S
C1827 H1815 0.950 . S
C1827 C1823 1.393 . S
C1827 C1826 1.391 . S
H1828 C1836 0.950 . S
H1829 C1841 0.950 . S
H1830 C1838 0.950 . S
H1831 C1840 0.950 . S
H1832 C1842 0.950 . S
H1833 C1844 0.950 . S
H1834 C1846 0.950 . S
H1835 C1847 0.950 . S
C1836 H1828 0.950 . S
C1836 C1837 1.386 . S
C1836 C1838 1.391 . S
C1837 C1836 1.386 . S
C1837 C1841 1.393 . S
C1838 H1830 0.950 . S
C1838 C1836 1.391 . S
C1838 C1839 1.400 . S
C1839 C1838 1.400 . S
C1839 C1840 1.398 . S
C1839 C1845 1.491 . S
C1840 H1831 0.950 . S
C1840 C1839 1.398 . S
C1840 C1841 1.391 . S
C1841 H1829 0.950 . S
C1841 C1837 1.393 . S
C1841 C1840 1.391 . S
C1842 H1832 0.950 . S
C1842 C1843 1.386 . S
C1842 C1844 1.391 . S
C1843 C1842 1.386 . S
C1843 C1847 1.393 . S
C1844 H1833 0.950 . S
C1844 C1842 1.391 . S
C1844 C1845 1.400 . S
C1845 C1839 1.491 . S
C1845 C1844 1.400 . S
C1845 C1846 1.398 . S
C1846 H1834 0.950 . S
C1846 C1845 1.398 . S
C1846 C1847 1.391 . S
C1847 H1835 0.950 . S
C1847 C1843 1.393 . S
C1847 C1846 1.391 . S
H1848 C1856 0.950 . S
H1849 C1861 0.950 . S
H1850 C1858 0.950 . S
H1851 C1860 0.950 . S
H1852 C1862 0.950 . S
H1853 C1864 0.950 . S
H1854 C1866 0.950 . S
H1855 C1867 0.950 . S
C1856 H1848 0.950 . S
C1856 C1857 1.386 . S
C1856 C1858 1.391 1_565 S
C1857 C1856 1.386 . S
C1857 C1861 1.393 . S
C1858 H1850 0.950 . S
C1858 C1856 1.391 1_545 S
C1858 C1859 1.400 1_545 S
C1859 C1858 1.400 1_565 S
C1859 C1860 1.398 . S
C1859 C1865 1.491 1_565 S
C1860 H1851 0.950 . S
C1860 C1859 1.398 . S
C1860 C1861 1.391 . S
C1861 H1849 0.950 . S
C1861 C1857 1.393 . S
C1861 C1860 1.391 . S
C1862 H1852 0.950 . S
C1862 C1863 1.386 . S
C1862 C1864 1.391 1_545 S
C1863 C1862 1.386 . S
C1863 C1867 1.393 . S
C1864 H1853 0.950 . S
C1864 C1862 1.391 1_565 S
C1864 C1865 1.400 1_565 S
C1865 C1859 1.491 1_545 S
C1865 C1864 1.400 1_545 S
C1865 C1866 1.398 . S
C1866 H1854 0.950 . S
C1866 C1865 1.398 . S
C1866 C1867 1.391 . S
C1867 H1855 0.950 . S
C1867 C1863 1.393 . S
C1867 C1866 1.391 . S
H1868 C1876 0.950 . S
H1869 C1881 0.950 . S
H1870 C1878 0.995 . S
H1871 C1880 0.950 . S
H1872 C1882 0.950 . S
H1873 C1884 0.995 . S
H1874 C1886 0.950 . S
H1875 C1887 0.950 . S
C1876 H1868 0.950 . S
C1876 C1877 1.381 1_655 S
C1876 C1878 1.364 1_546 S
C1877 C1876 1.381 1_455 S
C1877 C1881 1.398 1_556 S
C1878 H1870 0.995 . S
C1878 C1876 1.364 1_564 S
C1878 C1879 1.386 1_665 S
C1879 C1878 1.386 1_445 S
C1879 C1880 1.396 . S
C1879 C1885 1.490 1_445 S
C1880 H1871 0.950 . S
C1880 C1879 1.396 . S
C1880 C1881 1.391 . S
C1881 H1869 0.950 . S
C1881 C1877 1.398 1_554 S
C1881 C1880 1.391 . S
C1882 H1872 0.950 . S
C1882 C1883 1.370 1_455 S
C1882 C1884 1.364 1_565 S
C1883 C1882 1.370 1_655 S
C1883 C1887 1.412 . S
C1884 H1873 0.995 . S
C1884 C1882 1.364 1_545 S
C1884 C1885 1.374 1_445 S
C1885 C1879 1.490 1_665 S
C1885 C1884 1.374 1_665 S
C1885 C1886 1.411 . S
C1886 H1874 0.950 . S
C1886 C1885 1.411 . S
C1886 C1887 1.391 . S
C1887 H1875 0.950 . S
C1887 C1883 1.412 . S
C1887 C1886 1.391 . S
H1888 C1896 0.950 . S
H1889 C1901 0.950 . S
H1890 C1898 0.950 . S
H1891 C1900 0.950 . S
H1892 C1902 0.950 . S
H1893 C1904 0.950 . S
H1894 C1906 0.950 . S
H1895 C1907 0.950 . S
C1896 H1888 0.950 . S
C1896 C1897 1.382 1_655 S
C1896 C1898 1.391 . S
C1897 C1896 1.382 1_455 S
C1897 C1901 1.397 . S
C1898 H1890 0.950 . S
C1898 C1896 1.391 . S
C1898 C1899 1.401 1_655 S
C1899 C1898 1.401 1_455 S
C1899 C1900 1.397 . S
C1899 C1905 1.490 1_455 S
C1900 H1891 0.950 . S
C1900 C1899 1.397 . S
C1900 C1901 1.391 . S
C1901 H1889 0.950 . S
C1901 C1897 1.397 . S
C1901 C1900 1.391 . S
C1902 H1892 0.950 . S
C1902 C1903 1.374 1_455 S
C1902 C1904 1.391 . S
C1903 C1902 1.374 1_655 S
C1903 C1907 1.408 . S
C1904 H1893 0.950 . S
C1904 C1902 1.391 . S
C1904 C1905 1.393 1_455 S
C1905 C1899 1.490 1_655 S
C1905 C1904 1.393 1_655 S
C1905 C1906 1.408 . S
C1906 H1894 0.950 . S
C1906 C1905 1.408 . S
C1906 C1907 1.391 . S
C1907 H1895 0.950 . S
C1907 C1903 1.408 . S
C1907 C1906 1.391 . S
H1908 C1916 0.950 . S
H1909 C1921 0.950 . S
H1910 C1918 0.950 . S
H1911 C1920 0.950 . S
H1912 C1922 0.950 . S
H1913 C1924 0.950 . S
H1914 C1926 0.950 . S
H1915 C1927 0.950 . S
C1916 H1908 0.950 . S
C1916 C1917 1.386 . S
C1916 C1918 1.391 . S
C1917 C1916 1.386 . S
C1917 C1921 1.393 . S
C1918 H1910 0.950 . S
C1918 C1916 1.391 . S
C1918 C1919 1.400 . S
C1919 C1918 1.400 . S
C1919 C1920 1.398 . S
C1919 C1925 1.491 . S
C1920 H1911 0.950 . S
C1920 C1919 1.398 . S
C1920 C1921 1.391 . S
C1921 H1909 0.950 . S
C1921 C1917 1.393 . S
C1921 C1920 1.391 . S
C1922 H1912 0.950 . S
C1922 C1923 1.386 . S
C1922 C1924 1.391 . S
C1923 C1922 1.386 . S
C1923 C1927 1.393 . S
C1924 H1913 0.950 . S
C1924 C1922 1.391 . S
C1924 C1925 1.400 . S
C1925 C1919 1.491 . S
C1925 C1924 1.400 . S
C1925 C1926 1.398 . S
C1926 H1914 0.950 . S
C1926 C1925 1.398 . S
C1926 C1927 1.391 . S
C1927 H1915 0.950 . S
C1927 C1923 1.393 . S
C1927 C1926 1.391 . S
H1928 C1936 0.950 . S
H1929 C1941 0.950 . S
H1930 C1938 0.950 . S
H1931 C1940 0.950 . S
H1932 C1942 0.950 . S
H1933 C1944 0.950 . S
H1934 C1946 0.950 . S
H1935 C1947 0.950 . S
C1936 H1928 0.950 . S
C1936 C1937 1.386 . S
C1936 C1938 1.391 . S
C1937 C1936 1.386 . S
C1937 C1941 1.393 . S
C1938 H1930 0.950 . S
C1938 C1936 1.391 . S
C1938 C1939 1.400 . S
C1939 C1938 1.400 . S
C1939 C1940 1.398 . S
C1939 C1945 1.491 . S
C1940 H1931 0.950 . S
C1940 C1939 1.398 . S
C1940 C1941 1.391 . S
C1941 H1929 0.950 . S
C1941 C1937 1.393 . S
C1941 C1940 1.391 . S
C1942 H1932 0.950 . S
C1942 C1943 1.386 1_554 S
C1942 C1944 1.391 . S
C1943 C1942 1.386 1_556 S
C1943 C1947 1.393 . S
C1944 H1933 0.950 . S
C1944 C1942 1.391 . S
C1944 C1945 1.400 . S
C1945 C1939 1.491 . S
C1945 C1944 1.400 . S
C1945 C1946 1.398 . S
C1946 H1934 0.950 . S
C1946 C1945 1.398 . S
C1946 C1947 1.391 1_554 S
C1947 H1935 0.950 . S
C1947 C1943 1.393 . S
C1947 C1946 1.391 1_556 S
H1948 C1956 0.950 . S
H1949 C1961 0.950 . S
H1950 C1958 0.950 . S
H1951 C1960 0.950 . S
H1952 C1962 0.950 . S
H1953 C1964 0.950 . S
H1954 C1966 0.950 . S
H1955 C1967 0.950 . S
C1956 H1948 0.950 . S
C1956 C1957 1.386 . S
C1956 C1958 1.391 . S
C1957 C1956 1.386 . S
C1957 C1961 1.393 . S
C1958 H1950 0.950 . S
C1958 C1956 1.391 . S
C1958 C1959 1.400 . S
C1959 C1958 1.400 . S
C1959 C1960 1.398 . S
C1959 C1965 1.491 . S
C1960 H1951 0.950 . S
C1960 C1959 1.398 . S
C1960 C1961 1.391 . S
C1961 H1949 0.950 . S
C1961 C1957 1.393 . S
C1961 C1960 1.391 . S
C1962 H1952 0.950 . S
C1962 C1963 1.386 . S
C1962 C1964 1.391 . S
C1963 C1962 1.386 . S
C1963 C1967 1.393 . S
C1964 H1953 0.950 . S
C1964 C1962 1.391 . S
C1964 C1965 1.400 . S
C1965 C1959 1.491 . S
C1965 C1964 1.400 . S
C1965 C1966 1.398 . S
C1966 H1954 0.950 . S
C1966 C1965 1.398 . S
C1966 C1967 1.391 . S
C1967 H1955 0.950 . S
C1967 C1963 1.393 . S
C1967 C1966 1.391 . S
H1968 C1976 0.950 . S
H1969 C1981 0.950 . S
H1970 C1978 0.950 . S
H1971 C1980 0.950 . S
H1972 C1982 0.950 . S
H1973 C1984 0.950 . S
H1974 C1986 0.950 . S
H1975 C1987 0.950 . S
C1976 H1968 0.950 . S
C1976 C1977 1.386 . S
C1976 C1978 1.391 . S
C1977 C1976 1.386 . S
C1977 C1981 1.393 . S
C1978 H1970 0.950 . S
C1978 C1976 1.391 . S
C1978 C1979 1.400 . S
C1979 C1978 1.400 . S
C1979 C1980 1.398 . S
C1979 C1985 1.491 . S
C1980 H1971 0.950 . S
C1980 C1979 1.398 . S
C1980 C1981 1.391 . S
C1981 H1969 0.950 . S
C1981 C1977 1.393 . S
C1981 C1980 1.391 . S
C1982 H1972 0.950 . S
C1982 C1983 1.386 . S
C1982 C1984 1.391 . S
C1983 C1982 1.386 . S
C1983 C1987 1.393 . S
C1984 H1973 0.950 . S
C1984 C1982 1.391 . S
C1984 C1985 1.400 . S
C1985 C1979 1.491 . S
C1985 C1984 1.400 . S
C1985 C1986 1.398 . S
C1986 H1974 0.950 . S
C1986 C1985 1.398 . S
C1986 C1987 1.391 . S
C1987 H1975 0.950 . S
C1987 C1983 1.393 . S
C1987 C1986 1.391 . S
H1988 C1996 0.950 . S
H1989 C2001 0.950 . S
H1990 C1998 0.950 . S
H1991 C2000 0.950 . S
H1992 C2002 0.950 . S
H1993 C2004 0.950 . S
H1994 C2006 0.950 . S
H1995 C2007 0.950 . S
C1996 H1988 0.950 . S
C1996 C1997 1.386 . S
C1996 C1998 1.391 . S
C1997 C1996 1.386 . S
C1997 C2001 1.393 . S
C1998 H1990 0.950 . S
C1998 C1996 1.391 . S
C1998 C1999 1.400 . S
C1999 C1998 1.400 . S
C1999 C2000 1.398 . S
C1999 C2005 1.491 . S
C2000 H1991 0.950 . S
C2000 C1999 1.398 . S
C2000 C2001 1.391 . S
C2001 H1989 0.950 . S
C2001 C1997 1.393 . S
C2001 C2000 1.391 . S
C2002 H1992 0.950 . S
C2002 C2003 1.386 . S
C2002 C2004 1.391 . S
C2003 C2002 1.386 . S
C2003 C2007 1.393 . S
C2004 H1993 0.950 . S
C2004 C2002 1.391 . S
C2004 C2005 1.400 . S
C2005 C1999 1.491 . S
C2005 C2004 1.400 . S
C2005 C2006 1.398 . S
C2006 H1994 0.950 . S
C2006 C2005 1.398 . S
C2006 C2007 1.391 . S
C2007 H1995 0.950 . S
C2007 C2003 1.393 . S
C2007 C2006 1.391 . S
H2008 C2016 0.950 . S
H2009 C2021 0.950 . S
H2010 C2018 0.950 . S
H2011 C2020 0.950 1_545 S
H2012 C2022 0.950 . S
H2013 C2024 0.950 . S
H2014 C2026 0.950 1_565 S
H2015 C2027 0.950 . S
C2016 H2008 0.950 . S
C2016 C2017 1.386 . S
C2016 C2018 1.391 . S
C2017 C2016 1.386 . S
C2017 C2021 1.393 . S
C2018 H2010 0.950 . S
C2018 C2016 1.391 . S
C2018 C2019 1.400 . S
C2019 C2018 1.400 . S
C2019 C2020 1.398 . S
C2019 C2025 1.491 1_565 S
C2020 H2011 0.950 1_565 S
C2020 C2019 1.398 . S
C2020 C2021 1.391 . S
C2021 H2009 0.950 . S
C2021 C2017 1.393 . S
C2021 C2020 1.391 . S
C2022 H2012 0.950 . S
C2022 C2023 1.386 1_554 S
C2022 C2024 1.391 . S
C2023 C2022 1.386 1_556 S
C2023 C2027 1.393 . S
C2024 H2013 0.950 . S
C2024 C2022 1.391 . S
C2024 C2025 1.400 . S
C2025 C2019 1.491 1_545 S
C2025 C2024 1.400 . S
C2025 C2026 1.398 . S
C2026 H2014 0.950 1_545 S
C2026 C2025 1.398 . S
C2026 C2027 1.391 1_554 S
C2027 H2015 0.950 . S
C2027 C2023 1.393 . S
C2027 C2026 1.391 1_556 S
H2028 C2036 0.950 . S
H2029 C2041 0.950 . S
H2030 C2038 0.950 1_565 S
H2031 C2040 0.950 . S
H2032 C2042 0.950 . S
H2033 C2044 0.950 1_545 S
H2034 C2046 0.950 . S
H2035 C2047 0.950 . S
C2036 H2028 0.950 . S
C2036 C2037 1.386 1_455 S
C2036 C2038 1.391 . S
C2037 C2036 1.386 1_655 S
C2037 C2041 1.392 . S
C2038 H2030 0.950 1_545 S
C2038 C2036 1.391 . S
C2038 C2039 1.403 . S
C2039 C2038 1.403 . S
C2039 C2040 1.396 1_455 S
C2039 C2045 1.490 1_545 S
C2040 H2031 0.950 . S
C2040 C2039 1.396 1_655 S
C2040 C2041 1.391 . S
C2041 H2029 0.950 . S
C2041 C2037 1.392 . S
C2041 C2040 1.391 . S
C2042 H2032 0.950 . S
C2042 C2043 1.357 1_655 S
C2042 C2044 1.391 . S
C2043 C2042 1.357 1_455 S
C2043 C2047 1.426 . S
C2044 H2033 0.950 1_565 S
C2044 C2042 1.391 . S
C2044 C2045 1.380 1_655 S
C2045 C2039 1.490 1_565 S
C2045 C2044 1.380 1_455 S
C2045 C2046 1.422 . S
C2046 H2034 0.950 . S
C2046 C2045 1.422 . S
C2046 C2047 1.391 . S
C2047 H2035 0.950 . S
C2047 C2043 1.426 . S
C2047 C2046 1.391 . S
C1417 C849 1.564 . S
C1423 C29 1.561 . S
C1437 C1281 1.556 . S
C1443 C117 1.547 . S
C1457 C233 1.554 . S
C1463 C753 1.550 . S
C1477 C293 1.548 1_556 S
C1483 C1349 1.559 . S
C1497 C401 1.566 . S
C1503 C909 1.549 1_556 S
C1517 C1201 1.561 . S
C1523 C497 1.553 . S
C1537 C988 1.564 . S
C1543 C548 1.564 . S
C1557 C673 1.562 . S
C1563 C1076 1.568 . S
C1577 C409 1.545 . S
C1583 C313 1.563 1_556 S
C1597 C1085 1.546 . S
C1603 C733 1.557 . S
C1617 C557 1.556 . S
C1623 C137 1.559 . S
C1637 C812 1.568 . S
C1643 C1193 1.558 . S
C1657 C20 1.551 . S
C1663 C460 1.561 . S
C1677 C1340 1.554 . S
C1683 C929 1.553 1_556 S
C1697 C636 1.570 . S
C1703 C225 1.563 . S
C1717 C1025 1.560 . S
C1723 C1289 1.545 . S
C1737 C49 0.818 . S
C1743 C381 0.815 1_656 S
C1757 C469 0.815 . S
C1763 C145 0.817 . S
C1777 C585 0.808 . S
C1783 C196 0.808 . S
C1797 C321 0.803 . S
C1803 C645 0.804 . S
C1817 C937 0.820 . S
C1823 C724 0.820 . S
C1837 C1017 0.812 . S
C1843 C821 0.810 . S
C1857 C1261 0.810 . S
C1863 C1113 0.813 . S
C1877 C1369 0.815 1_556 S
C1883 C1164 0.816 1_655 S
C1897 C372 2.003 . S
C1903 C57 2.003 1_655 S
C1917 C489 2.015 . S
C1923 C108 2.014 . S
C1937 C577 2.000 . S
C1943 C205 1.999 . S
C1957 C284 2.008 . S
C1963 C665 2.008 . S
C1977 C761 2.010 . S
C1983 C900 2.011 . S
C1997 C997 2.016 . S
C2003 C841 2.016 . S
C2017 C1252 2.001 . S
C2023 C1105 2.000 . S
C2037 C1377 2.002 1_655 S
C2043 C1173 2.002 . S
