# Generated by pormake.
# Topology lig, (3)-cn, num edge types: 1
# Building blocks:
#     Node 0, Type 0, BuildingBlock: OLANEW_clean_sbu_2, # of connection points: 3
#     Node 1, Type 0, BuildingBlock: OLANEW_clean_sbu_2, # of connection points: 3
#     Node 2, Type 0, BuildingBlock: OLANEW_clean_sbu_2, # of connection points: 3
#     Node 3, Type 0, BuildingBlock: OLANEW_clean_sbu_2, # of connection points: 3
#     Node 4, Type 0, BuildingBlock: OLANEW_clean_sbu_2, # of connection points: 3
#     Node 5, Type 0, BuildingBlock: OLANEW_clean_sbu_2, # of connection points: 3
#     Node 6, Type 0, BuildingBlock: OLANEW_clean_sbu_2, # of connection points: 3
#     Node 7, Type 0, BuildingBlock: OLANEW_clean_sbu_2, # of connection points: 3
#     Node 8, Type 0, BuildingBlock: OLANEW_clean_sbu_2, # of connection points: 3
#     Node 9, Type 0, BuildingBlock: OLANEW_clean_sbu_2, # of connection points: 3
#     Node 10, Type 0, BuildingBlock: OLANEW_clean_sbu_2, # of connection points: 3
#     Node 11, Type 0, BuildingBlock: OLANEW_clean_sbu_2, # of connection points: 3
#     Node 12, Type 0, BuildingBlock: OLANEW_clean_sbu_2, # of connection points: 3
#     Node 13, Type 0, BuildingBlock: OLANEW_clean_sbu_2, # of connection points: 3
#     Node 14, Type 0, BuildingBlock: OLANEW_clean_sbu_2, # of connection points: 3
#     Node 15, Type 0, BuildingBlock: OLANEW_clean_sbu_2, # of connection points: 3
#     Edge 16, Type (0, 0), BuildingBlock: ZUJKAS_clean_linker_0, # of connection points: 2
#     Edge 17, Type (0, 0), BuildingBlock: ZUJKAS_clean_linker_0, # of connection points: 2
#     Edge 18, Type (0, 0), BuildingBlock: ZUJKAS_clean_linker_0, # of connection points: 2
#     Edge 19, Type (0, 0), BuildingBlock: ZUJKAS_clean_linker_0, # of connection points: 2
#     Edge 20, Type (0, 0), BuildingBlock: ZUJKAS_clean_linker_0, # of connection points: 2
#     Edge 21, Type (0, 0), BuildingBlock: ZUJKAS_clean_linker_0, # of connection points: 2
#     Edge 22, Type (0, 0), BuildingBlock: ZUJKAS_clean_linker_0, # of connection points: 2
#     Edge 23, Type (0, 0), BuildingBlock: ZUJKAS_clean_linker_0, # of connection points: 2
#     Edge 24, Type (0, 0), BuildingBlock: ZUJKAS_clean_linker_0, # of connection points: 2
#     Edge 25, Type (0, 0), BuildingBlock: ZUJKAS_clean_linker_0, # of connection points: 2
#     Edge 26, Type (0, 0), BuildingBlock: ZUJKAS_clean_linker_0, # of connection points: 2
#     Edge 27, Type (0, 0), BuildingBlock: ZUJKAS_clean_linker_0, # of connection points: 2
#     Edge 28, Type (0, 0), BuildingBlock: ZUJKAS_clean_linker_0, # of connection points: 2
#     Edge 29, Type (0, 0), BuildingBlock: ZUJKAS_clean_linker_0, # of connection points: 2
#     Edge 30, Type (0, 0), BuildingBlock: ZUJKAS_clean_linker_0, # of connection points: 2
#     Edge 31, Type (0, 0), BuildingBlock: ZUJKAS_clean_linker_0, # of connection points: 2
#     Edge 32, Type (0, 0), BuildingBlock: ZUJKAS_clean_linker_0, # of connection points: 2
#     Edge 33, Type (0, 0), BuildingBlock: ZUJKAS_clean_linker_0, # of connection points: 2
#     Edge 34, Type (0, 0), BuildingBlock: ZUJKAS_clean_linker_0, # of connection points: 2
#     Edge 35, Type (0, 0), BuildingBlock: ZUJKAS_clean_linker_0, # of connection points: 2
#     Edge 36, Type (0, 0), BuildingBlock: ZUJKAS_clean_linker_0, # of connection points: 2
#     Edge 37, Type (0, 0), BuildingBlock: ZUJKAS_clean_linker_0, # of connection points: 2
#     Edge 38, Type (0, 0), BuildingBlock: ZUJKAS_clean_linker_0, # of connection points: 2
#     Edge 39, Type (0, 0), BuildingBlock: ZUJKAS_clean_linker_0, # of connection points: 2
# Relax obj value: 0.021
# Max RMSD: 0.112
# Mean RMSD: 0.090
data_MOF--net-lig--node1-OLANEW_clean_sbu_2--edge1-ZUJKAS_clean_linker_0
_symmetry_space_group_name_H-M    P1
_symmetry_Int_Tables_number       1
_symmetry_cell_setting            triclinic
loop_
_symmetry_equiv_pos_as_xyz
'x, y, z'
_cell_length_a     73.256036
_cell_length_b     64.640883
_cell_length_c     71.611649
_cell_angle_alpha  90.097474
_cell_angle_beta   89.897426
_cell_angle_gamma 113.59324
loop_
_atom_site_label
_atom_site_type_symbol
_atom_site_fract_x
_atom_site_fract_y
_atom_site_fract_z
_atom_type_partial_charge
O0 O 0.14002 0.98709 0.0679 0.0
Cd1 Cd 0.12138 0.96391 0.09399 0.0
O2 O 0.11806 0.00202 0.06831 0.0
Cd3 Cd 0.1011 0.02162 0.05973 0.0
O4 O 0.07756 0.03419 0.05775 0.0
C5 C 0.05978 0.01969 0.05592 0.0
O6 O 0.05658 0.99822 0.05473 0.0
C7 C 0.13351 0.00093 0.06103 0.0
C8 C 0.14392 0.96991 0.12642 0.0
O9 O 0.14297 0.95487 0.11433 0.0
O10 O 0.13435 0.98232 0.12307 0.0
O11 O 0.24952 0.91482 0.34393 0.0
Cd12 Cd 0.24114 0.94783 0.34237 0.0
O13 O 0.27964 0.93271 0.33243 0.0
Cd14 Cd 0.27263 0.96092 0.3235 0.0
O15 O 0.25771 0.97338 0.30276 0.0
C16 C 0.24215 0.95826 0.29574 0.0
O17 O 0.23621 0.93748 0.30198 0.0
C18 C 0.26646 0.91504 0.33961 0.0
C19 C 0.24906 0.97009 0.37668 0.0
O20 O 0.23172 0.95504 0.37296 0.0
O21 O 0.26254 0.97487 0.36404 0.0
O22 O 0.35643 0.03882 0.60833 0.0
Cd23 Cd 0.3228 0.03806 0.60689 0.0
O24 O 0.3715 0.07413 0.59927 0.0
Cd25 Cd 0.34326 0.07491 0.59064 0.0
O26 O 0.32204 0.06437 0.56761 0.0
C27 C 0.32328 0.04847 0.55795 0.0
O28 O 0.33604 0.03996 0.56313 0.0
C29 C 0.37242 0.05599 0.60506 0.0
C30 C 0.31229 0.05259 0.6404 0.0
O31 O 0.30954 0.0319 0.63799 0.0
O32 O 0.31998 0.06643 0.62694 0.0
O33 O 0.25448 0.18545 0.84085 0.0
Cd34 Cd 0.24665 0.14523 0.84477 0.0
O35 O 0.27464 0.19643 0.86498 0.0
Cd36 Cd 0.26526 0.16213 0.87576 0.0
O37 O 0.24887 0.13601 0.89602 0.0
C38 C 0.23704 0.14071 0.90653 0.0
O39 O 0.23549 0.1601 0.9042 0.0
C40 C 0.26671 0.20123 0.85078 0.0
C41 C 0.2569 0.12816 0.81241 0.0
O42 O 0.23979 0.12898 0.81415 0.0
O43 O 0.26911 0.13514 0.8261 0.0
O44 O 0.88162 0.07606 0.04137 0.0
Cd45 Cd 0.84965 0.07885 0.03696 0.0
O46 O 0.87391 0.06623 0.07047 0.0
Cd47 Cd 0.87722 0.05722 0.09933 0.0
O48 O 0.87113 0.04749 0.12863 0.0
C49 C 0.87141 0.06211 0.14064 0.0
O50 O 0.87622 0.08306 0.13523 0.0
C51 C 0.8862 0.07022 0.057 0.0
C52 C 0.84836 0.09645 0.00176 0.0
O53 O 0.8543 0.10938 0.01605 0.0
O54 O 0.84276 0.07515 0.00418 0.0
O55 O 0.86322 0.25927 0.79726 0.0
Cd56 Cd 0.88131 0.235 0.79356 0.0
O57 O 0.83754 0.23139 0.78557 0.0
Cd58 Cd 0.80777 0.21398 0.77373 0.0
O59 O 0.783 0.19253 0.75627 0.0
C60 C 0.78497 0.19497 0.73868 0.0
O61 O 0.80138 0.21062 0.73194 0.0
C62 C 0.84502 0.25119 0.79245 0.0
C63 C 0.87525 0.20773 0.82499 0.0
O64 O 0.8903 0.22668 0.82383 0.0
O65 O 0.86321 0.2015 0.81112 0.0
O66 O 0.63515 0.05659 0.59622 0.0
Cd67 Cd 0.60888 0.03707 0.57356 0.0
O68 O 0.61971 0.0348 0.6198 0.0
Cd69 Cd 0.59191 0.0189 0.60442 0.0
O70 O 0.5619 0.01698 0.59966 0.0
C71 C 0.56044 0.03561 0.59656 0.0
O72 O 0.57682 0.05408 0.59523 0.0
C73 C 0.63495 0.05086 0.61323 0.0
C74 C 0.62379 0.01995 0.54418 0.0
O75 O 0.62408 0.03989 0.54344 0.0
O76 O 0.61628 0.00806 0.55874 0.0
O77 O 0.76959 0.91402 0.34676 0.0
Cd78 Cd 0.7642 0.94888 0.34845 0.0
O79 O 0.74683 0.89515 0.36751 0.0
Cd80 Cd 0.73809 0.92273 0.37493 0.0
O81 O 0.72424 0.94044 0.39219 0.0
C82 C 0.71373 0.92914 0.40574 0.0
O83 O 0.71189 0.90823 0.4081 0.0
C84 C 0.7602 0.89598 0.35583 0.0
C85 C 0.78219 0.97484 0.31723 0.0
O86 O 0.79174 0.97719 0.33261 0.0
O87 O 0.76398 0.96065 0.31679 0.0
O88 O 0.63403 0.51732 0.55955 0.0
Cd89 Cd 0.60848 0.50646 0.58401 0.0
O90 O 0.64604 0.55332 0.56707 0.0
Cd91 Cd 0.6207 0.54872 0.58506 0.0
O92 O 0.59037 0.54593 0.58971 0.0
C93 C 0.57796 0.53646 0.57677 0.0
O94 O 0.58393 0.52836 0.56224 0.0
C95 C 0.64698 0.53734 0.55727 0.0
C96 C 0.62403 0.49996 0.618 0.0
O97 O 0.61632 0.48371 0.60634 0.0
O98 O 0.62424 0.51928 0.61367 0.0
O99 O 0.72248 0.38805 0.82692 0.0
Cd100 Cd 0.7058 0.41366 0.83224 0.0
O101 O 0.74847 0.41462 0.8138 0.0
Cd102 Cd 0.73322 0.43719 0.80982 0.0
O103 O 0.71809 0.45223 0.79149 0.0
C104 C 0.72251 0.45232 0.77431 0.0
O105 O 0.73571 0.44427 0.76946 0.0
C106 C 0.73994 0.39463 0.82011 0.0
C107 C 0.72023 0.43775 0.86523 0.0
O108 O 0.70494 0.41895 0.86536 0.0
O109 O 0.72845 0.44536 0.84946 0.0
O110 O 0.8769 0.54107 0.08801 0.0
Cd111 Cd 0.84273 0.53863 0.08742 0.0
O112 O 0.88759 0.56561 0.06507 0.0
Cd113 Cd 0.85772 0.56232 0.05742 0.0
O114 O 0.83292 0.55112 0.03772 0.0
C115 C 0.82475 0.53009 0.03427 0.0
O116 O 0.83068 0.51641 0.0436 0.0
C117 C 0.89106 0.55388 0.07771 0.0
C118 C 0.83316 0.55211 0.12184 0.0
O119 O 0.83092 0.53165 0.11898 0.0
O120 O 0.83971 0.56617 0.10834 0.0
O121 O 0.78667 0.67812 0.33418 0.0
Cd122 Cd 0.7836 0.63909 0.33596 0.0
O123 O 0.79688 0.68604 0.36322 0.0
Cd124 Cd 0.79284 0.65189 0.37113 0.0
O125 O 0.78045 0.6262 0.3927 0.0
C126 C 0.76213 0.61305 0.39193 0.0
O127 O 0.75173 0.61395 0.37725 0.0
C128 C 0.79263 0.6922 0.34755 0.0
C129 C 0.79156 0.62417 0.30151 0.0
O130 O 0.77408 0.62284 0.30555 0.0
O131 O 0.80529 0.63248 0.31379 0.0
O132 O 0.38414 0.56485 0.58008 0.0
Cd133 Cd 0.35291 0.56996 0.58259 0.0
O134 O 0.36939 0.52784 0.57849 0.0
Cd135 Cd 0.3409 0.52797 0.5872 0.0
O136 O 0.32208 0.52722 0.61106 0.0
C137 C 0.33135 0.53847 0.62516 0.0
O138 O 0.35065 0.55032 0.6238 0.0
C139 C 0.38521 0.54582 0.57791 0.0
C140 C 0.3414 0.57979 0.54772 0.0
O141 O 0.35259 0.59554 0.55856 0.0
O142 O 0.33551 0.55936 0.55345 0.0
O143 O 0.28137 0.68956 0.3368 0.0
Cd144 Cd 0.27977 0.65127 0.3332 0.0
O145 O 0.28946 0.69892 0.30747 0.0
Cd146 Cd 0.28526 0.66516 0.29805 0.0
O147 O 0.27341 0.63785 0.27764 0.0
C148 C 0.27707 0.64344 0.26059 0.0
O149 O 0.28848 0.66453 0.25658 0.0
C150 C 0.28616 0.70422 0.32386 0.0
C151 C 0.28907 0.63641 0.36702 0.0
O152 O 0.30268 0.64686 0.35506 0.0
O153 O 0.27102 0.63271 0.36285 0.0
O154 O 0.15134 0.54609 0.09747 0.0
Cd155 Cd 0.12623 0.54006 0.07317 0.0
O156 O 0.13249 0.51682 0.11423 0.0
Cd157 Cd 0.10643 0.51072 0.09684 0.0
O158 O 0.07904 0.51402 0.08866 0.0
C159 C 0.07868 0.5334 0.09067 0.0
O160 O 0.0948 0.55012 0.09669 0.0
C161 C 0.14906 0.53343 0.11163 0.0
C162 C 0.13708 0.52635 0.03949 0.0
O163 O 0.14208 0.54733 0.04315 0.0
O164 O 0.12693 0.51188 0.05176 0.0
O165 O 0.26718 0.43331 0.84762 0.0
Cd166 Cd 0.26072 0.46761 0.84849 0.0
O167 O 0.23678 0.41251 0.8381 0.0
Cd168 Cd 0.22595 0.43831 0.84572 0.0
O169 O 0.2139 0.45578 0.86512 0.0
C170 C 0.20282 0.44361 0.87799 0.0
O171 O 0.19909 0.42197 0.87827 0.0
C172 C 0.25441 0.41453 0.84169 0.0
C173 C 0.26643 0.48607 0.81267 0.0
O174 O 0.28066 0.49223 0.82458 0.0
O175 O 0.24935 0.47157 0.81785 0.0
H176 H 0.15589 0.99119 0.03492 0.0
H177 H 0.17307 0.01392 0.008 0.0
H178 H 0.1515 0.06469 0.02324 0.0
H179 H 0.13453 0.04221 0.05038 0.0
H180 H 0.147 0.05236 0.98458 0.0
H181 H 0.22386 0.07265 0.01011 0.0
H182 H 0.20787 0.04311 0.00987 0.0
H183 H 0.20235 0.06185 0.02524 0.0
C184 C 0.15481 0.00721 0.03257 0.0
C185 C 0.14355 0.01472 0.04463 0.0
C186 C 0.16469 0.02019 0.01721 0.0
C187 C 0.16368 0.04105 0.01373 0.0
C188 C 0.15238 0.04857 0.02566 0.0
H189 H 0.21134 0.14677 0.93137 0.0
H190 H 0.19312 0.12175 0.95667 0.0
C191 C 0.14249 0.03559 0.04105 0.0
C192 C 0.17431 0.05494 0.99756 0.0
H193 H 0.22068 0.08373 0.97921 0.0
C194 C 0.16311 0.05928 0.98341 0.0
C195 C 0.19531 0.06382 0.99606 0.0
C196 C 0.20812 0.06033 0.01118 0.0
C197 C 0.17236 0.07211 0.96765 0.0
C198 C 0.19338 0.08118 0.96622 0.0
C199 C 0.20456 0.07669 0.98032 0.0
C200 C 0.20412 0.09601 0.95053 0.0
C201 C 0.15952 0.07554 0.95253 0.0
C202 C 0.21672 0.09008 0.93892 0.0
C203 C 0.22731 0.10445 0.92446 0.0
C204 C 0.22556 0.12508 0.92148 0.0
C205 C 0.21295 0.13095 0.93319 0.0
C206 C 0.20241 0.1166 0.94761 0.0
H207 H 0.14404 0.06246 0.9531 0.0
H208 H 0.15884 0.09225 0.95445 0.0
H209 H 0.16579 0.07515 0.93846 0.0
H210 H 0.21835 0.07431 0.94103 0.0
H211 H 0.23694 0.09946 0.91573 0.0
H212 H 0.20881 0.92933 0.27801 0.0
H213 H 0.19318 0.93644 0.25011 0.0
H214 H 0.23599 0.00559 0.24941 0.0
H215 H 0.252 0.99855 0.27731 0.0
H216 H 0.17626 0.9675 0.24297 0.0
H217 H 0.24182 0.98171 0.19741 0.0
H218 H 0.23936 0.96959 0.22044 0.0
H219 H 0.24648 0.99943 0.21774 0.0
C220 C 0.21489 0.94611 0.27202 0.0
C221 C 0.23178 0.96332 0.27979 0.0
C222 C 0.20589 0.95015 0.25608 0.0
C223 C 0.21361 0.97143 0.24755 0.0
C224 C 0.23003 0.98893 0.25561 0.0
H225 H 0.14926 0.00056 0.15454 0.0
H226 H 0.16699 0.00354 0.18405 0.0
C227 C 0.23908 0.9849 0.2716 0.0
C228 C 0.20466 0.97484 0.22991 0.0
H229 H 0.21371 0.98392 0.1832 0.0
C230 C 0.18447 0.97132 0.22991 0.0
C231 C 0.2154 0.97956 0.2129 0.0
C232 C 0.23692 0.98263 0.21197 0.0
C233 C 0.17459 0.97193 0.21327 0.0
C234 C 0.18531 0.97655 0.19625 0.0
C235 C 0.2056 0.98052 0.19631 0.0
C236 C 0.17541 0.97571 0.17808 0.0
C237 C 0.15259 0.96669 0.21396 0.0
C238 C 0.17479 0.95954 0.16473 0.0
C239 C 0.16482 0.95789 0.14784 0.0
C240 C 0.15529 0.97244 0.14395 0.0
C241 C 0.15633 0.989 0.15717 0.0
C242 C 0.16637 0.99067 0.17407 0.0
H243 H 0.14576 0.95885 0.22743 0.0
H244 H 0.15034 0.98258 0.21232 0.0
H245 H 0.14461 0.95514 0.20241 0.0
H246 H 0.18173 0.94788 0.16754 0.0
H247 H 0.16434 0.94499 0.13794 0.0
H248 H 0.22321 0.96584 0.40549 0.0
H249 H 0.23128 0.98179 0.43692 0.0
H250 H 0.29332 0.01398 0.42159 0.0
H251 H 0.28533 0.99861 0.39008 0.0
H252 H 0.25426 0.97333 0.4619 0.0
H253 H 0.28574 0.06501 0.4479 0.0
H254 H 0.27181 0.04444 0.43058 0.0
H255 H 0.29788 0.05103 0.43416 0.0
C256 C 0.23853 0.9766 0.40873 0.0
C257 C 0.25363 0.98098 0.39528 0.0
C258 C 0.24311 0.98571 0.4267 0.0
C259 C 0.26286 0.99938 0.43155 0.0
C260 C 0.27791 0.004 0.41805 0.0
H261 H 0.32404 0.01586 0.53426 0.0
H262 H 0.30667 0.00406 0.50464 0.0
C263 C 0.27333 0.99504 0.40006 0.0
C264 C 0.26805 0.0072 0.45108 0.0
H265 H 0.29484 0.05356 0.47734 0.0
C266 C 0.26285 0.99093 0.46531 0.0
C267 C 0.27894 0.0302 0.45563 0.0
C268 C 0.28372 0.04868 0.44127 0.0
C269 C 0.2692 0.99687 0.48376 0.0
C270 C 0.28144 0.01961 0.48801 0.0
C271 C 0.28568 0.03608 0.47402 0.0
C272 C 0.29118 0.02633 0.50646 0.0
C273 C 0.26291 0.97866 0.49848 0.0
C274 C 0.28859 0.04317 0.51717 0.0
C275 C 0.2987 0.05015 0.53414 0.0
C276 C 0.31165 0.04049 0.54057 0.0
C277 C 0.31409 0.02356 0.52981 0.0
C278 C 0.30405 0.01666 0.5129 0.0
H279 H 0.24869 0.9645 0.49466 0.0
H280 H 0.27449 0.97174 0.49973 0.0
H281 H 0.26106 0.98538 0.51231 0.0
H282 H 0.27884 0.05098 0.51236 0.0
H283 H 0.29656 0.06329 0.54208 0.0
H284 H 0.2896 0.11866 0.80615 0.0
H285 H 0.29903 0.1055 0.77711 0.0
H286 H 0.24672 0.10629 0.75012 0.0
H287 H 0.23687 0.11877 0.77923 0.0
H288 H 0.25189 0.06875 0.74161 0.0
H289 H 0.32323 0.14279 0.73153 0.0
H290 H 0.32185 0.129 0.75352 0.0
H291 H 0.30505 0.1424 0.7487 0.0
C292 C 0.28011 0.11604 0.79402 0.0
C293 C 0.26253 0.11985 0.79497 0.0
C294 C 0.2856 0.10867 0.77739 0.0
C295 C 0.27381 0.10536 0.76131 0.0
C296 C 0.25611 0.10885 0.76231 0.0
H297 H 0.31109 0.09351 0.64798 0.0
H298 H 0.30126 0.10583 0.67721 0.0
C299 C 0.2505 0.11599 0.77897 0.0
C300 C 0.27967 0.09787 0.74351 0.0
H301 H 0.31724 0.11139 0.71146 0.0
C302 C 0.26616 0.07812 0.73499 0.0
C303 C 0.29817 0.11029 0.73471 0.0
C304 C 0.31283 0.13242 0.74247 0.0
C305 C 0.27068 0.07029 0.71803 0.0
C306 C 0.28949 0.08222 0.70961 0.0
C307 C 0.30292 0.10212 0.71802 0.0
C308 C 0.29541 0.07458 0.69191 0.0
C309 C 0.25506 0.04962 0.70911 0.0
C310 C 0.29565 0.05302 0.69051 0.0
C311 C 0.30105 0.04584 0.67376 0.0
C312 C 0.30666 0.06024 0.65817 0.0
C313 C 0.30682 0.082 0.65972 0.0
C314 C 0.30123 0.08908 0.67643 0.0
H315 H 0.23987 0.0466 0.71422 0.0
H316 H 0.25526 0.0512 0.69367 0.0
H317 H 0.25807 0.0346 0.71273 0.0
H318 H 0.29176 0.04176 0.70241 0.0
H319 H 0.30098 0.02907 0.67308 0.0
H320 H 0.82043 0.00639 0.3138 0.0
H321 H 0.83742 0.0251 0.28523 0.0
H322 H 0.7838 0.98964 0.25366 0.0
H323 H 0.76661 0.97119 0.28214 0.0
H324 H 0.84429 0.00507 0.25399 0.0
H325 H 0.79978 0.05407 0.23579 0.0
H326 H 0.79861 0.04156 0.25852 0.0
H327 H 0.78466 0.02466 0.2393 0.0
C328 C 0.81217 0.0028 0.30081 0.0
C329 C 0.79214 0.98735 0.30025 0.0
C330 C 0.82191 0.01348 0.28451 0.0
C331 C 0.8118 0.009 0.26737 0.0
C332 C 0.79176 0.99375 0.2668 0.0
H333 H 0.85749 0.01965 0.15559 0.0
H334 H 0.84473 0.00822 0.18712 0.0
C335 C 0.78199 0.98312 0.28309 0.0
C336 C 0.82248 0.01919 0.24989 0.0
H337 H 0.82035 0.04938 0.21152 0.0
C338 C 0.83919 0.01497 0.24479 0.0
C339 C 0.81599 0.03236 0.23803 0.0
C340 C 0.7989 0.03864 0.24326 0.0
C341 C 0.84915 0.02288 0.22783 0.0
C342 C 0.84196 0.03496 0.21549 0.0
C343 C 0.82571 0.03989 0.2209 0.0
C344 C 0.85069 0.0421 0.19668 0.0
C345 C 0.8673 0.01827 0.22331 0.0
C346 C 0.858 0.06491 0.19147 0.0
C347 C 0.86515 0.07149 0.17338 0.0
C348 C 0.86503 0.05534 0.16013 0.0
C349 C 0.85791 0.03253 0.16547 0.0
C350 C 0.85072 0.02598 0.18354 0.0
H351 H 0.87431 0.01518 0.23617 0.0
H352 H 0.86281 0.00292 0.21446 0.0
H353 H 0.87857 0.03256 0.21556 0.0
H354 H 0.85802 0.07761 0.20137 0.0
H355 H 0.8705 0.08919 0.16972 0.0
H356 H 0.85716 0.14041 0.99253 0.0
H357 H 0.85907 0.15631 0.96127 0.0
H358 H 0.84214 0.09006 0.93715 0.0
H359 H 0.84021 0.07395 0.96838 0.0
H360 H 0.87682 0.12444 0.92115 0.0
H361 H 0.81301 0.14998 0.92498 0.0
H362 H 0.83 0.15936 0.9443 0.0
H363 H 0.81581 0.12968 0.94077 0.0
C364 C 0.85367 0.12917 0.9806 0.0
C365 C 0.84852 0.10591 0.98294 0.0
C366 C 0.85467 0.13827 0.96276 0.0
C367 C 0.85053 0.1243 0.94696 0.0
C368 C 0.84528 0.10107 0.94921 0.0
H369 H 0.84247 0.16951 0.83344 0.0
H370 H 0.83599 0.14741 0.86231 0.0
C371 C 0.84416 0.09192 0.96706 0.0
C372 C 0.85274 0.13418 0.92805 0.0
H373 H 0.83558 0.16474 0.89958 0.0
C374 C 0.8677 0.13308 0.91634 0.0
C375 C 0.84067 0.14521 0.92179 0.0
C376 C 0.82383 0.146 0.93352 0.0
C377 C 0.87139 0.14346 0.89874 0.0
C378 C 0.8599 0.15534 0.89283 0.0
C379 C 0.84446 0.15575 0.90425 0.0
C380 C 0.86413 0.16814 0.87512 0.0
C381 C 0.88759 0.14174 0.88662 0.0
C382 C 0.88205 0.18712 0.87287 0.0
C383 C 0.88577 0.19983 0.85648 0.0
C384 C 0.87161 0.19374 0.84203 0.0
C385 C 0.85372 0.17458 0.84428 0.0
C386 C 0.84996 0.16196 0.86075 0.0
H387 H 0.89167 0.12769 0.89109 0.0
H388 H 0.8829 0.13916 0.87176 0.0
H389 H 0.90109 0.15771 0.88763 0.0
H390 H 0.89304 0.19233 0.88394 0.0
H391 H 0.89967 0.21452 0.8552 0.0
H392 H 0.63797 0.04532 0.65081 0.0
H393 H 0.66413 0.06926 0.67189 0.0
H394 H 0.69615 0.1096 0.62518 0.0
H395 H 0.66992 0.086 0.60399 0.0
H396 H 0.70505 0.08022 0.67313 0.0
H397 H 0.68918 0.15607 0.66012 0.0
H398 H 0.67248 0.12812 0.65293 0.0
H399 H 0.69439 0.1437 0.63941 0.0
C400 C 0.65063 0.05918 0.64497 0.0
C401 C 0.65174 0.06388 0.62572 0.0
C402 C 0.66556 0.07284 0.65705 0.0
C403 C 0.68184 0.09146 0.65013 0.0
C404 C 0.68346 0.09561 0.63085 0.0
H405 H 0.78424 0.1969 0.7006 0.0
H406 H 0.75923 0.17125 0.67942 0.0
C407 C 0.66851 0.08201 0.61875 0.0
C408 C 0.6969 0.10676 0.66317 0.0
H409 H 0.71758 0.16134 0.6785 0.0
C410 C 0.70777 0.09794 0.67437 0.0
C411 C 0.70031 0.12984 0.66479 0.0
C412 C 0.68836 0.14 0.65382 0.0
C413 C 0.72227 0.11172 0.68691 0.0
C414 C 0.72576 0.13481 0.68841 0.0
C415 C 0.71487 0.14362 0.67725 0.0
C416 C 0.74078 0.15022 0.70139 0.0
C417 C 0.73402 0.10159 0.69818 0.0
C418 C 0.73849 0.14707 0.72077 0.0
C419 C 0.75273 0.16174 0.73294 0.0
C420 C 0.76949 0.17984 0.72591 0.0
C421 C 0.77156 0.1831 0.70648 0.0
C422 C 0.75729 0.16847 0.69434 0.0
H423 H 0.73272 0.08509 0.6924 0.0
H424 H 0.75001 0.11319 0.69867 0.0
H425 H 0.72827 0.0988 0.71271 0.0
H426 H 0.72565 0.13331 0.72647 0.0
H427 H 0.75066 0.1588 0.74783 0.0
H428 H 0.71402 0.97176 0.40504 0.0
H429 H 0.69879 0.98851 0.42776 0.0
H430 H 0.67639 0.92626 0.4589 0.0
H431 H 0.69157 0.90946 0.43646 0.0
H432 H 0.6576 0.97288 0.43928 0.0
H433 H 0.70782 0.97478 0.49782 0.0
H434 H 0.71353 0.97131 0.47377 0.0
H435 H 0.69613 0.94778 0.4866 0.0
C436 C 0.70585 0.96164 0.41673 0.0
C437 C 0.70414 0.93932 0.419 0.0
C438 C 0.69715 0.97123 0.42966 0.0
C439 C 0.68674 0.95871 0.44513 0.0
C440 C 0.68467 0.93632 0.44723 0.0
H441 H 0.625 0.97832 0.54165 0.0
H442 H 0.63984 0.96409 0.51681 0.0
C443 C 0.6933 0.92673 0.43432 0.0
C444 C 0.67795 0.96892 0.45916 0.0
H445 H 0.67947 0.98223 0.50544 0.0
C446 C 0.66245 0.97512 0.45372 0.0
C447 C 0.68435 0.97178 0.47797 0.0
C448 C 0.70149 0.96627 0.48442 0.0
C449 C 0.65273 0.98348 0.46676 0.0
C450 C 0.65895 0.98604 0.48563 0.0
C451 C 0.67466 0.98015 0.49098 0.0
C452 C 0.64925 0.99452 0.50018 0.0
C453 C 0.63549 0.98882 0.46035 0.0
C454 C 0.64969 0.01639 0.4991 0.0
C455 C 0.64118 0.02457 0.51327 0.0
C456 C 0.63221 0.01106 0.52885 0.0
C457 C 0.63177 0.98914 0.52985 0.0
C458 C 0.64025 0.98099 0.51567 0.0
H459 H 0.62948 0.98075 0.44672 0.0
H460 H 0.62326 0.98317 0.47081 0.0
H461 H 0.64062 0.00736 0.45865 0.0
H462 H 0.65692 0.02728 0.48746 0.0
H463 H 0.64187 0.04157 0.51212 0.0
H464 H 0.72291 0.58453 0.3954 0.0
H465 H 0.70511 0.56773 0.42413 0.0
H466 H 0.7602 0.5952 0.45492 0.0
H467 H 0.77822 0.61188 0.42622 0.0
H468 H 0.73342 0.55028 0.46613 0.0
H469 H 0.69718 0.61107 0.46296 0.0
H470 H 0.69399 0.59393 0.44246 0.0
H471 H 0.71842 0.61399 0.44872 0.0
C472 C 0.73132 0.58669 0.4082 0.0
C473 C 0.75195 0.59983 0.40856 0.0
C474 C 0.72111 0.57713 0.42461 0.0
C475 C 0.73131 0.58061 0.44167 0.0
C476 C 0.75206 0.59243 0.44189 0.0
H477 H 0.67774 0.5777 0.54974 0.0
H478 H 0.69999 0.5872 0.52275 0.0
C479 C 0.76232 0.60197 0.42547 0.0
C480 C 0.72015 0.57364 0.45942 0.0
H481 H 0.68647 0.5837 0.48686 0.0
C482 C 0.72314 0.55754 0.47071 0.0
C483 C 0.70706 0.58349 0.46548 0.0
C484 C 0.70405 0.60173 0.45439 0.0
C485 C 0.71304 0.55072 0.48781 0.0
C486 C 0.69953 0.56014 0.49359 0.0
C487 C 0.69679 0.57645 0.48238 0.0
C488 C 0.68791 0.55346 0.51115 0.0
C489 C 0.71716 0.53382 0.49968 0.0
C490 C 0.67395 0.53123 0.51375 0.0
C491 C 0.66122 0.5257 0.52923 0.0
C492 C 0.6621 0.54239 0.54226 0.0
C493 C 0.6766 0.56445 0.53995 0.0
C494 C 0.68935 0.56992 0.52453 0.0
H495 H 0.73149 0.53284 0.49583 0.0
H496 H 0.71757 0.53816 0.51473 0.0
H497 H 0.70508 0.51686 0.49758 0.0
H498 H 0.67232 0.51835 0.50342 0.0
H499 H 0.65018 0.50857 0.53055 0.0
H500 H 0.64048 0.53066 0.64603 0.0
H501 H 0.65613 0.52532 0.67477 0.0
H502 H 0.64342 0.4566 0.65871 0.0
H503 H 0.62748 0.46164 0.63014 0.0
H504 H 0.63501 0.46097 0.69608 0.0
H505 H 0.71088 0.52245 0.67671 0.0
H506 H 0.69193 0.53347 0.67671 0.0
H507 H 0.69072 0.51208 0.66011 0.0
C508 C 0.64097 0.51439 0.64864 0.0
C509 C 0.63285 0.49661 0.63573 0.0
C510 C 0.64999 0.51141 0.66503 0.0
C511 C 0.6512 0.49068 0.66872 0.0
C512 C 0.6427 0.47277 0.65609 0.0
H513 H 0.72845 0.45344 0.7367 0.0
H514 H 0.71067 0.4643 0.71248 0.0
C515 C 0.63363 0.47569 0.63974 0.0
C516 C 0.66157 0.48759 0.68557 0.0
H517 H 0.70731 0.505 0.70615 0.0
C518 C 0.65079 0.47068 0.69838 0.0
C519 C 0.68219 0.50019 0.68841 0.0
C520 C 0.6947 0.51795 0.67471 0.0
C521 C 0.66014 0.46576 0.71382 0.0
C522 C 0.68076 0.47835 0.71665 0.0
C523 C 0.69146 0.49552 0.70401 0.0
C524 C 0.69186 0.47272 0.7317 0.0
C525 C 0.64806 0.44654 0.72654 0.0
C526 C 0.68741 0.47421 0.75061 0.0
C527 C 0.69754 0.46791 0.76456 0.0
C528 C 0.71235 0.46014 0.75981 0.0
C529 C 0.71709 0.45926 0.74087 0.0
C530 C 0.70696 0.46551 0.72698 0.0
H531 H 0.63349 0.43566 0.72027 0.0
H532 H 0.65634 0.43589 0.72985 0.0
H533 H 0.64511 0.45348 0.73984 0.0
H534 H 0.67605 0.48013 0.75456 0.0
H535 H 0.69363 0.4689 0.77903 0.0
H536 H 0.80635 0.48646 0.02236 0.0
H537 H 0.78639 0.47271 0.99417 0.0
H538 H 0.79151 0.5401 0.98197 0.0
H539 H 0.81149 0.55409 0.01026 0.0
H540 H 0.75193 0.50364 0.97595 0.0
H541 H 0.81378 0.48877 0.94176 0.0
H542 H 0.80668 0.47607 0.96439 0.0
H543 H 0.81741 0.50628 0.96226 0.0
C544 C 0.80307 0.49836 0.01383 0.0
C545 C 0.8107 0.52143 0.01846 0.0
C546 C 0.79171 0.49046 0.99769 0.0
C547 C 0.78778 0.50546 0.98588 0.0
C548 C 0.79449 0.5283 0.9909 0.0
H549 H 0.75326 0.47703 0.86949 0.0
H550 H 0.76868 0.49529 0.89871 0.0
C551 C 0.80591 0.53625 0.00705 0.0
C552 C 0.7776 0.49746 0.96782 0.0
H553 H 0.78282 0.47512 0.92595 0.0
C554 C 0.75866 0.49748 0.96496 0.0
C555 C 0.78661 0.48978 0.95344 0.0
C556 C 0.80731 0.49036 0.95547 0.0
C557 C 0.74824 0.4894 0.94821 0.0
C558 C 0.75697 0.48095 0.93411 0.0
C559 C 0.77611 0.48149 0.93683 0.0
C560 C 0.74647 0.47107 0.9165 0.0
C561 C 0.72807 0.49013 0.94568 0.0
C562 C 0.72882 0.45145 0.91682 0.0
C563 C 0.71997 0.44095 0.90014 0.0
C564 C 0.72869 0.44982 0.88283 0.0
C565 C 0.74615 0.46976 0.88257 0.0
C566 C 0.75499 0.48022 0.89925 0.0
H567 H 0.72587 0.50237 0.95538 0.0
H568 H 0.72609 0.49475 0.93112 0.0
H569 H 0.71632 0.47317 0.94861 0.0
H570 H 0.72222 0.44384 0.92997 0.0
H571 H 0.70656 0.42557 0.90083 0.0
H572 H 0.83041 0.59192 0.13076 0.0
H573 H 0.82327 0.60388 0.16134 0.0
H574 H 0.81915 0.54095 0.18527 0.0
H575 H 0.82561 0.52857 0.15461 0.0
H576 H 0.7897 0.55147 0.1975 0.0
H577 H 0.86083 0.62641 0.20464 0.0
H578 H 0.84745 0.62732 0.18392 0.0
H579 H 0.85676 0.60559 0.18655 0.0
C580 C 0.82801 0.58064 0.14254 0.0
C581 C 0.82866 0.55934 0.14028 0.0
C582 C 0.82407 0.58757 0.16005 0.0
C583 C 0.8211 0.57352 0.17571 0.0
C584 C 0.8215 0.55213 0.17342 0.0
H585 H 0.82495 0.61806 0.29092 0.0
H586 H 0.83171 0.60492 0.26068 0.0
C587 C 0.82521 0.54508 0.15588 0.0
C588 C 0.81713 0.58085 0.1944 0.0
H589 H 0.83548 0.62297 0.2268 0.0
C590 C 0.79976 0.56705 0.20394 0.0
C591 C 0.83042 0.601 0.20296 0.0
C592 C 0.85 0.61581 0.19408 0.0
C593 C 0.79517 0.57298 0.22167 0.0
C594 C 0.80801 0.59364 0.22985 0.0
C595 C 0.82552 0.60727 0.22043 0.0
C596 C 0.80368 0.60134 0.24825 0.0
C597 C 0.77684 0.55678 0.23159 0.0
C598 C 0.78578 0.60395 0.25128 0.0
C599 C 0.78177 0.61119 0.26863 0.0
C600 C 0.79577 0.61638 0.28318 0.0
C601 C 0.81385 0.61417 0.28001 0.0
C602 C 0.81774 0.60668 0.26272 0.0
H603 H 0.77228 0.53927 0.22626 0.0
H604 H 0.77933 0.55675 0.24687 0.0
H605 H 0.76431 0.56195 0.22913 0.0
H606 H 0.77494 0.60056 0.24018 0.0
H607 H 0.7678 0.61296 0.27056 0.0
H608 H 0.348 0.55762 0.65828 0.0
H609 H 0.33245 0.55059 0.68908 0.0
H610 H 0.27631 0.50774 0.66442 0.0
H611 H 0.29188 0.51429 0.63346 0.0
H612 H 0.30036 0.55706 0.70458 0.0
H613 H 0.28632 0.46591 0.70181 0.0
H614 H 0.30203 0.48603 0.68509 0.0
H615 H 0.27539 0.47566 0.68321 0.0
C616 C 0.3323 0.54683 0.65934 0.0
C617 C 0.32124 0.53627 0.64343 0.0
C618 C 0.32343 0.54287 0.67697 0.0
C619 C 0.30333 0.52831 0.67908 0.0
C620 C 0.29195 0.51865 0.66314 0.0
H621 H 0.24027 0.47325 0.78341 0.0
H622 H 0.24704 0.48495 0.75074 0.0
C623 C 0.30085 0.52251 0.64546 0.0
C624 C 0.29476 0.5225 0.69808 0.0
H625 H 0.2765 0.47891 0.72911 0.0
C626 C 0.29499 0.53995 0.70991 0.0
C627 C 0.2878 0.50016 0.70501 0.0
C628 C 0.28798 0.48085 0.69322 0.0
C629 C 0.28869 0.5357 0.72858 0.0
C630 C 0.28224 0.51347 0.73561 0.0
C631 C 0.28142 0.49592 0.72363 0.0
C632 C 0.27751 0.50818 0.75561 0.0
C633 C 0.2891 0.55502 0.74065 0.0
C634 C 0.2924 0.51743 0.76916 0.0
C635 C 0.28862 0.51074 0.78782 0.0
C636 C 0.26988 0.4946 0.79325 0.0
C637 C 0.25484 0.48576 0.7797 0.0
C638 C 0.25867 0.49241 0.76103 0.0
H639 H 0.28884 0.56923 0.73209 0.0
H640 H 0.27627 0.54948 0.75045 0.0
H641 H 0.30301 0.56141 0.749 0.0
H642 H 0.30717 0.52928 0.76522 0.0
H643 H 0.30054 0.51782 0.79788 0.0
H644 H 0.26353 0.6134 0.39496 0.0
H645 H 0.27205 0.60288 0.4255 0.0
H646 H 0.3344 0.63304 0.41105 0.0
H647 H 0.32603 0.64334 0.38037 0.0
H648 H 0.32303 0.59096 0.42793 0.0
H649 H 0.29663 0.64686 0.46864 0.0
H650 H 0.27828 0.62765 0.45326 0.0
H651 H 0.30031 0.64936 0.44368 0.0
C652 C 0.27906 0.61777 0.39826 0.0
C653 C 0.29411 0.62932 0.38527 0.0
C654 C 0.2839 0.61185 0.41576 0.0
C655 C 0.30387 0.61753 0.42065 0.0
C656 C 0.3189 0.62861 0.40758 0.0
H657 H 0.35253 0.62123 0.53135 0.0
H658 H 0.34348 0.62981 0.50035 0.0
C659 C 0.31408 0.6345 0.39006 0.0
C660 C 0.30915 0.6119 0.43939 0.0
H661 H 0.3062 0.62159 0.48596 0.0
C662 C 0.31937 0.59765 0.44063 0.0
C663 C 0.30458 0.62091 0.4559 0.0
C664 C 0.29451 0.63721 0.45538 0.0
C665 C 0.32497 0.59197 0.45798 0.0
C666 C 0.31992 0.60048 0.47452 0.0
C667 C 0.30988 0.61492 0.47326 0.0
C668 C 0.32531 0.59505 0.49328 0.0
C669 C 0.33662 0.57729 0.45843 0.0
C670 C 0.31789 0.57268 0.49968 0.0
C671 C 0.32307 0.56769 0.51739 0.0
C672 C 0.33565 0.58504 0.52907 0.0
C673 C 0.34283 0.60747 0.5227 0.0
C674 C 0.33767 0.61242 0.50499 0.0
H675 H 0.34362 0.577 0.44471 0.0
H676 H 0.34846 0.58323 0.46923 0.0
H677 H 0.32639 0.55972 0.4619 0.0
H678 H 0.30799 0.55907 0.49103 0.0
H679 H 0.31719 0.55026 0.52191 0.0
H680 H 0.27982 0.65143 0.22307 0.0
H681 H 0.26 0.62656 0.19836 0.0
H682 H 0.2316 0.57408 0.23882 0.0
H683 H 0.25115 0.59905 0.26378 0.0
H684 H 0.25477 0.58337 0.18566 0.0
H685 H 0.18493 0.58439 0.21553 0.0
H686 H 0.20927 0.60351 0.22329 0.0
H687 H 0.1991 0.57464 0.23096 0.0
C688 C 0.26951 0.63453 0.22674 0.0
C689 C 0.26687 0.62734 0.24545 0.0
C690 C 0.25823 0.62031 0.21256 0.0
C691 C 0.24409 0.59864 0.2168 0.0
C692 C 0.24217 0.59092 0.23531 0.0
H693 H 0.14846 0.51122 0.1443 0.0
H694 H 0.17279 0.52363 0.16964 0.0
C695 C 0.25341 0.60518 0.24954 0.0
C696 C 0.23059 0.58488 0.20196 0.0
H697 H 0.18207 0.56397 0.18781 0.0
C698 C 0.23884 0.57893 0.18618 0.0
C699 C 0.20982 0.57915 0.20267 0.0
C700 C 0.2002 0.58587 0.21892 0.0
C701 C 0.22689 0.56766 0.17096 0.0
C702 C 0.20624 0.56254 0.17148 0.0
C703 C 0.19791 0.56785 0.1875 0.0
C704 C 0.1931 0.55324 0.15513 0.0
C705 C 0.23649 0.56144 0.15446 0.0
C706 C 0.19658 0.5656 0.13844 0.0
C707 C 0.18271 0.55858 0.12392 0.0
C708 C 0.16499 0.53913 0.12588 0.0
C709 C 0.16193 0.52629 0.14233 0.0
C710 C 0.17582 0.53334 0.15684 0.0
H711 H 0.25057 0.56 0.15849 0.0
H712 H 0.22631 0.54523 0.14813 0.0
H713 H 0.24013 0.57484 0.1437 0.0
H714 H 0.2096 0.58127 0.13696 0.0
H715 H 0.18553 0.5689 0.11148 0.0
H716 H 0.1587 0.55295 0.01084 0.0
H717 H 0.1687 0.54075 0.9816 0.0
H718 H 0.13918 0.47127 0.99875 0.0
H719 H 0.12892 0.48324 0.02789 0.0
H720 H 0.192 0.51601 0.97719 0.0
H721 H 0.11717 0.47055 0.94622 0.0
H722 H 0.12154 0.48986 0.96559 0.0
H723 H 0.11938 0.46149 0.96947 0.0
C724 C 0.15422 0.53506 0.00834 0.0
C725 C 0.14294 0.51905 0.02167 0.0
C726 C 0.15995 0.52813 0.99163 0.0
C727 C 0.15441 0.5051 0.98788 0.0
C728 C 0.14324 0.4891 0.00118 0.0
H729 H 0.17878 0.42177 0.90707 0.0
H730 H 0.16719 0.43827 0.93276 0.0
C731 C 0.1375 0.49599 0.01789 0.0
C732 C 0.16102 0.49779 0.97044 0.0
H733 H 0.144 0.46423 0.93202 0.0
C734 C 0.18153 0.5049 0.96718 0.0
C735 C 0.14731 0.48332 0.95742 0.0
C736 C 0.12512 0.47602 0.95972 0.0
C737 C 0.18871 0.49722 0.95161 0.0
C738 C 0.17498 0.48233 0.93883 0.0
C739 C 0.15448 0.47562 0.94187 0.0
C740 C 0.18158 0.47259 0.92275 0.0
C741 C 0.2109 0.5044 0.94935 0.0
C742 C 0.19324 0.48641 0.90841 0.0
C743 C 0.19995 0.47702 0.89366 0.0
C744 C 0.19501 0.45364 0.89299 0.0
C745 C 0.18292 0.43984 0.90717 0.0
C746 C 0.17624 0.44923 0.92187 0.0
H747 H 0.21913 0.51195 0.96236 0.0
H748 H 0.21443 0.48982 0.9453 0.0
H749 H 0.21637 0.51723 0.93811 0.0
H750 H 0.19723 0.50445 0.90867 0.0
H751 H 0.20915 0.4881 0.88292 0.0
H752 H 0.89532 0.04181 0.08008 0.0
H753 H 0.92648 0.0364 0.08114 0.0
H754 H 0.95127 0.08707 0.03851 0.0
H755 H 0.92022 0.09272 0.03751 0.0
H756 H 0.95478 0.04706 0.03047 0.0
H757 H 0.98161 0.07588 0.10222 0.0
H758 H 0.95633 0.05536 0.10113 0.0
H759 H 0.96275 0.08274 0.09087 0.0
C760 C 0.90761 0.05236 0.07142 0.0
C761 C 0.90544 0.06803 0.059 0.0
C762 C 0.92539 0.04915 0.07195 0.0
C763 C 0.9413 0.06158 0.0601 0.0
C764 C 0.93923 0.07741 0.04785 0.0
H765 H 0.0607 0.06213 0.06116 0.0
H766 H 0.03235 0.07315 0.06173 0.0
C767 C 0.92148 0.08059 0.0473 0.0
C768 C 0.95951 0.05691 0.05941 0.0
H769 H 0.99806 0.05617 0.08575 0.0
C770 C 0.96431 0.04919 0.04253 0.0
C771 C 0.97202 0.05991 0.0751 0.0
C772 C 0.96807 0.06913 0.09332 0.0
C773 C 0.98104 0.04388 0.04103 0.0
C774 C 0.99313 0.04609 0.05689 0.0
C775 C 0.98864 0.05434 0.07366 0.0
C776 C 0.01028 0.03948 0.05641 0.0
C777 C 0.98571 0.03608 0.02244 0.0
C778 C 0.0072 0.01689 0.05337 0.0
C779 C 0.02331 0.01053 0.05304 0.0
C780 C 0.04283 0.02666 0.05581 0.0
C781 C 0.04587 0.04931 0.0589 0.0
C782 C 0.0297 0.05564 0.05929 0.0
H783 H 0.97813 0.0407 0.01074 0.0
H784 H 0.002 0.04344 0.01975 0.0
H785 H 0.98051 0.01742 0.02259 0.0
H786 H 0.99228 0.00412 0.0514 0.0
H787 H 0.02042 0.99294 0.05071 0.0
H788 H 0.29474 0.73895 0.29906 0.0
H789 H 0.29358 0.77571 0.30443 0.0
H790 H 0.27779 0.75818 0.36203 0.0
H791 H 0.27905 0.72132 0.35688 0.0
H792 H 0.25949 0.78176 0.3164 0.0
H793 H 0.32307 0.82206 0.36497 0.0
H794 H 0.32036 0.79791 0.35074 0.0
H795 H 0.30568 0.79431 0.37153 0.0
C796 C 0.29125 0.74295 0.31294 0.0
C797 C 0.28695 0.72714 0.32753 0.0
C798 C 0.29059 0.76398 0.31598 0.0
C799 C 0.28577 0.76972 0.33365 0.0
C800 C 0.28187 0.75421 0.34836 0.0
H801 H 0.24124 0.87405 0.3534 0.0
H802 H 0.24627 0.83887 0.35356 0.0
C803 C 0.28249 0.73312 0.34534 0.0
C804 C 0.28349 0.79129 0.33625 0.0
H805 H 0.30221 0.84162 0.35957 0.0
C806 C 0.26881 0.79485 0.32584 0.0
C807 C 0.29579 0.80835 0.34849 0.0
C808 C 0.31224 0.80565 0.35949 0.0
C809 C 0.26603 0.81502 0.32736 0.0
C810 C 0.27808 0.83194 0.33983 0.0
C811 C 0.29287 0.82848 0.35017 0.0
C812 C 0.2759 0.85364 0.34172 0.0
C813 C 0.25049 0.81825 0.31529 0.0
C814 C 0.29121 0.87373 0.33568 0.0
C815 C 0.28843 0.8939 0.33561 0.0
C816 C 0.27028 0.89432 0.34165 0.0
C817 C 0.25534 0.87431 0.34852 0.0
C818 C 0.25815 0.85417 0.34858 0.0
H819 H 0.24562 0.80587 0.30364 0.0
H820 H 0.23724 0.81595 0.32395 0.0
H821 H 0.25627 0.83555 0.30935 0.0
H822 H 0.30505 0.87365 0.33039 0.0
H823 H 0.30028 0.909 0.3303 0.0
H824 H 0.40948 0.08893 0.59835 0.0
H825 H 0.44122 0.08474 0.59761 0.0
H826 H 0.41138 0.0151 0.61417 0.0
H827 H 0.37955 0.019 0.61486 0.0
H828 H 0.46108 0.07022 0.62614 0.0
H829 H 0.44002 0.01275 0.5647 0.0
H830 H 0.42654 0.02969 0.57131 0.0
H831 H 0.42282 0.00433 0.58394 0.0
C832 C 0.40966 0.07276 0.60199 0.0
C833 C 0.39193 0.05425 0.60652 0.0
C834 C 0.42782 0.07041 0.60154 0.0
C835 C 0.42854 0.04951 0.6055 0.0
C836 C 0.41104 0.03125 0.61073 0.0
H837 H 0.52379 0.00159 0.60277 0.0
H838 H 0.4917 0.00489 0.60504 0.0
C839 C 0.39289 0.03357 0.61122 0.0
C840 C 0.44757 0.04674 0.60383 0.0
H841 H 0.47094 0.01931 0.57894 0.0
C842 C 0.46329 0.05914 0.61581 0.0
C843 C 0.45032 0.03221 0.59035 0.0
C844 C 0.43412 0.01909 0.57671 0.0
C845 C 0.48167 0.05718 0.61483 0.0
C846 C 0.48449 0.04281 0.60123 0.0
C847 C 0.46872 0.03031 0.58933 0.0
C848 C 0.50377 0.04068 0.59906 0.0
C849 C 0.49777 0.0702 0.62859 0.0
C850 C 0.52105 0.05957 0.59442 0.0
C851 C 0.53938 0.05777 0.59314 0.0
C852 C 0.54074 0.03697 0.59633 0.0
C853 C 0.52326 0.01787 0.60029 0.0
C854 C 0.50492 0.01972 0.60161 0.0
H855 H 0.49159 0.07544 0.64104 0.0
H856 H 0.50602 0.06001 0.63332 0.0
H857 H 0.50852 0.08569 0.62176 0.0
H858 H 0.52039 0.07578 0.59195 0.0
H859 H 0.55252 0.07277 0.58991 0.0
H860 H 0.23205 0.37342 0.82629 0.0
H861 H 0.23966 0.33988 0.8255 0.0
H862 H 0.29612 0.37711 0.8521 0.0
H863 H 0.28873 0.41087 0.85293 0.0
H864 H 0.27694 0.33475 0.8103 0.0
H865 H 0.26278 0.32068 0.88671 0.0
H866 H 0.25301 0.33758 0.87328 0.0
H867 H 0.279 0.34848 0.87894 0.0
C868 C 0.24618 0.37458 0.83183 0.0
C869 C 0.25972 0.39479 0.83981 0.0
C870 C 0.25051 0.35542 0.8313 0.0
C871 C 0.26837 0.35607 0.83884 0.0
C872 C 0.28222 0.37633 0.84629 0.0
H873 H 0.29426 0.23931 0.86699 0.0
H874 H 0.29801 0.2783 0.86246 0.0
C875 C 0.27796 0.39558 0.84673 0.0
C876 C 0.27186 0.33512 0.83988 0.0
H877 H 0.27033 0.29381 0.87015 0.0
C878 C 0.27568 0.32583 0.82337 0.0
C879 C 0.27032 0.32371 0.85699 0.0
C880 C 0.26596 0.33294 0.87504 0.0
C881 C 0.27777 0.30516 0.82351 0.0
C882 C 0.27541 0.29324 0.84054 0.0
C883 C 0.27215 0.30293 0.8571 0.0
C884 C 0.27495 0.27011 0.84146 0.0
C885 C 0.28255 0.29637 0.80544 0.0
C886 C 0.26091 0.25256 0.83101 0.0
C887 C 0.25885 0.23029 0.83345 0.0
C888 C 0.27056 0.22507 0.84664 0.0
C889 C 0.28497 0.24274 0.85675 0.0
C890 C 0.28714 0.26504 0.85418 0.0
H891 H 0.29058 0.31038 0.79562 0.0
H892 H 0.29179 0.28657 0.80786 0.0
H893 H 0.26847 0.28516 0.79861 0.0
H894 H 0.25096 0.25592 0.8215 0.0
H895 H 0.24751 0.21709 0.82553 0.0
H896 H 0.77834 0.40437 0.80944 0.0
H897 H 0.79461 0.37815 0.80584 0.0
H898 H 0.74101 0.32321 0.82411 0.0
H899 H 0.72451 0.34931 0.8278 0.0
H900 H 0.79915 0.34757 0.83442 0.0
H901 H 0.75558 0.30341 0.77202 0.0
H902 H 0.75743 0.33097 0.77922 0.0
H903 H 0.74175 0.30634 0.79191 0.0
C904 C 0.76998 0.38673 0.81275 0.0
C905 C 0.75008 0.37892 0.81883 0.0
C906 C 0.77933 0.3718 0.8107 0.0
C907 C 0.76892 0.34876 0.8145 0.0
C908 C 0.74919 0.34091 0.82089 0.0
H909 H 0.80505 0.23633 0.79972 0.0
H910 H 0.78599 0.25937 0.80543 0.0
C911 C 0.73984 0.35587 0.82307 0.0
C912 C 0.77881 0.33304 0.81172 0.0
H913 H 0.77938 0.29068 0.7835 0.0
C914 C 0.79483 0.33508 0.82333 0.0
C915 C 0.77299 0.3167 0.79731 0.0
C916 C 0.75608 0.31419 0.78427 0.0
C917 C 0.80526 0.32119 0.8209 0.0
C918 C 0.79985 0.30528 0.80613 0.0
C919 C 0.78355 0.30295 0.79475 0.0
C920 C 0.81122 0.2913 0.80201 0.0
C921 C 0.82183 0.32352 0.83434 0.0
C922 C 0.83161 0.3016 0.79776 0.0
C923 C 0.84248 0.28849 0.79439 0.0
C924 C 0.83309 0.26481 0.79486 0.0
C925 C 0.81258 0.2545 0.79871 0.0
C926 C 0.80172 0.26765 0.80219 0.0
H927 H 0.8201 0.33117 0.84778 0.0
H928 H 0.82234 0.30689 0.83726 0.0
H929 H 0.83629 0.33473 0.82812 0.0
H930 H 0.83914 0.31982 0.7971 0.0
H931 H 0.85826 0.29689 0.79142 0.0
H932 H 0.74403 0.85536 0.37383 0.0
H933 H 0.75203 0.82247 0.36934 0.0
H934 H 0.79449 0.85786 0.32654 0.0
H935 H 0.78684 0.89106 0.33113 0.0
H936 H 0.74857 0.79683 0.33751 0.0
H937 H 0.82715 0.83612 0.36167 0.0
H938 H 0.80962 0.84888 0.36573 0.0
H939 H 0.82092 0.85084 0.34314 0.0
C940 C 0.75512 0.85622 0.36348 0.0
C941 C 0.76488 0.87592 0.35291 0.0
C942 C 0.75964 0.83738 0.36092 0.0
C943 C 0.77403 0.83783 0.34778 0.0
C944 C 0.78362 0.85731 0.33701 0.0
H945 H 0.78476 0.71165 0.31623 0.0
H946 H 0.78193 0.74807 0.31413 0.0
C947 C 0.77915 0.87623 0.33959 0.0
C948 C 0.77872 0.81771 0.34535 0.0
H949 H 0.8157 0.79868 0.35049 0.0
C950 C 0.76327 0.79723 0.34023 0.0
C951 C 0.79788 0.8183 0.34907 0.0
C952 C 0.81484 0.83964 0.35536 0.0
C953 C 0.76634 0.77719 0.33904 0.0
C954 C 0.78553 0.77778 0.34269 0.0
C955 C 0.80107 0.79834 0.34752 0.0
C956 C 0.78931 0.7569 0.34313 0.0
C957 C 0.74882 0.75543 0.33465 0.0
C958 C 0.79533 0.75031 0.35987 0.0
C959 C 0.79719 0.72969 0.36106 0.0
C960 C 0.79303 0.71519 0.34552 0.0
C961 C 0.7879 0.72232 0.3285 0.0
C962 C 0.78615 0.74306 0.3273 0.0
H963 H 0.73439 0.75711 0.33634 0.0
H964 H 0.74991 0.75059 0.31995 0.0
H965 H 0.74875 0.74156 0.34381 0.0
H966 H 0.79793 0.76079 0.37223 0.0
H967 H 0.80125 0.72482 0.37438 0.0
H968 H 0.39296 0.50799 0.57381 0.0
H969 H 0.42551 0.5058 0.57309 0.0
H970 H 0.45446 0.5783 0.57723 0.0
H971 H 0.42201 0.58073 0.57773 0.0
H972 H 0.47182 0.55978 0.55082 0.0
H973 H 0.46152 0.51593 0.61912 0.0
H974 H 0.44214 0.50216 0.60242 0.0
H975 H 0.4456 0.52948 0.61135 0.0
C976 C 0.40624 0.5235 0.57446 0.0
C977 C 0.40486 0.54454 0.57596 0.0
C978 C 0.42482 0.52219 0.57417 0.0
C979 C 0.44236 0.54186 0.57548 0.0
C980 C 0.44108 0.56292 0.57634 0.0
H981 H 0.56145 0.55402 0.60356 0.0
H982 H 0.52844 0.55516 0.60314 0.0
C983 C 0.42251 0.56426 0.57661 0.0
C984 C 0.46206 0.54052 0.57611 0.0
H985 H 0.49032 0.51989 0.60174 0.0
C986 C 0.47589 0.55107 0.56194 0.0
C987 C 0.46739 0.52943 0.59081 0.0
C988 C 0.45348 0.51877 0.6069 0.0
C989 C 0.49487 0.55056 0.56192 0.0
C990 C 0.49998 0.5389 0.57632 0.0
C991 C 0.48626 0.52862 0.59063 0.0
C992 C 0.51963 0.53742 0.57685 0.0
C993 C 0.5094 0.56285 0.54668 0.0
C994 C 0.52539 0.5266 0.56243 0.0
C995 C 0.54421 0.52592 0.56261 0.0
C996 C 0.55759 0.53595 0.57729 0.0
C997 C 0.55153 0.5462 0.59202 0.0
C998 C 0.53269 0.54687 0.59181 0.0
H999 H 0.50509 0.5755 0.53958 0.0
H1000 H 0.52469 0.57158 0.55235 0.0
H1001 H 0.50968 0.55049 0.53604 0.0
H1002 H 0.51536 0.51878 0.55096 0.0
H1003 H 0.54833 0.51775 0.55111 0.0
H1004 H 0.90325 0.5292 0.10188 0.0
H1005 H 0.93607 0.52789 0.10369 0.0
H1006 H 0.95753 0.57784 0.0601 0.0
H1007 H 0.92467 0.57906 0.05797 0.0
H1008 H 0.96668 0.54077 0.05398 0.0
H1009 H 0.98769 0.57401 0.12578 0.0
H1010 H 0.96389 0.55062 0.12444 0.0
H1011 H 0.96748 0.5768 0.11316 0.0
C1012 C 0.91499 0.5401 0.0928 0.0
C1013 C 0.91132 0.55426 0.07979 0.0
C1014 C 0.93378 0.53939 0.09392 0.0
C1015 C 0.94929 0.55296 0.08219 0.0
C1016 C 0.94576 0.56729 0.06933 0.0
H1017 H 0.07324 0.57263 0.09409 0.0
H1018 H 0.0422 0.57794 0.09081 0.0
C1019 C 0.92698 0.56799 0.06817 0.0
C1020 C 0.96892 0.55141 0.08271 0.0
H1021 H 0.00774 0.5571 0.11149 0.0
C1022 C 0.97574 0.54447 0.06651 0.0
C1023 C 0.98078 0.55649 0.09902 0.0
C1024 C 0.97471 0.56511 0.11654 0.0
C1025 C 0.99392 0.54199 0.0663 0.0
C1026 C 0.0054 0.54624 0.08281 0.0
C1027 C 0.99881 0.55366 0.09889 0.0
C1028 C 0.02433 0.54309 0.08377 0.0
C1029 C 0.00076 0.53508 0.04835 0.0
C1030 C 0.02458 0.52172 0.08086 0.0
C1031 C 0.04232 0.51862 0.08268 0.0
C1032 C 0.06011 0.53683 0.08758 0.0
C1033 C 0.05982 0.55825 0.09029 0.0
C1034 C 0.04209 0.56132 0.08845 0.0
H1035 H 0.99317 0.53841 0.03601 0.0
H1036 H 0.0171 0.54417 0.04651 0.0
H1037 H 0.99718 0.51671 0.04877 0.0
H1038 H 0.01096 0.50733 0.07759 0.0
H1039 H 0.04201 0.50188 0.08059 0.0
loop_
_geom_bond_atom_site_label_1
_geom_bond_atom_site_label_2
_geom_bond_distance
_geom_bond_site_symmetry_2
_ccdc_geom_bond_type
O0 Cd1 2.300 . S
O0 C7 1.275 . S
Cd1 O0 2.300 . S
Cd1 O9 2.381 1_545 S
Cd1 O10 2.378 . S
O2 Cd3 2.385 . S
O2 C7 1.255 . S
Cd3 O2 2.385 . S
Cd3 O4 2.317 . S
O4 Cd3 2.317 . S
O4 C5 1.232 . S
C5 O4 1.232 . S
C5 O6 1.218 . S
O6 C5 1.218 . S
C7 O0 1.275 . S
C7 O2 1.255 . S
C8 O9 1.258 1_545 S
C8 O10 1.256 . S
O9 Cd1 2.381 1_565 S
O9 C8 1.258 1_565 S
O10 Cd1 2.378 . S
O10 C8 1.256 . S
O11 Cd12 2.300 . S
O11 C18 1.275 . S
Cd12 O11 2.300 . S
Cd12 O20 2.381 . S
Cd12 O21 2.378 . S
O13 Cd14 2.385 . S
O13 C18 1.255 . S
Cd14 O13 2.385 . S
Cd14 O15 2.317 . S
O15 Cd14 2.317 . S
O15 C16 1.232 . S
C16 O15 1.232 . S
C16 O17 1.218 . S
O17 C16 1.218 . S
C18 O11 1.275 . S
C18 O13 1.255 . S
C19 O20 1.258 . S
C19 O21 1.256 . S
O20 Cd12 2.381 . S
O20 C19 1.258 . S
O21 Cd12 2.378 . S
O21 C19 1.256 . S
O22 Cd23 2.300 . S
O22 C29 1.275 . S
Cd23 O22 2.300 . S
Cd23 O31 2.381 . S
Cd23 O32 2.378 . S
O24 Cd25 2.385 . S
O24 C29 1.255 . S
Cd25 O24 2.385 . S
Cd25 O26 2.317 . S
O26 Cd25 2.317 . S
O26 C27 1.232 . S
C27 O26 1.232 . S
C27 O28 1.218 . S
O28 C27 1.218 . S
C29 O22 1.275 . S
C29 O24 1.255 . S
C30 O31 1.258 . S
C30 O32 1.256 . S
O31 Cd23 2.381 . S
O31 C30 1.258 . S
O32 Cd23 2.378 . S
O32 C30 1.256 . S
O33 Cd34 2.300 . S
O33 C40 1.275 . S
Cd34 O33 2.300 . S
Cd34 O42 2.381 . S
Cd34 O43 2.378 . S
O35 Cd36 2.385 . S
O35 C40 1.255 . S
Cd36 O35 2.385 . S
Cd36 O37 2.317 . S
O37 Cd36 2.317 . S
O37 C38 1.232 . S
C38 O37 1.232 . S
C38 O39 1.218 . S
O39 C38 1.218 . S
C40 O33 1.275 . S
C40 O35 1.255 . S
C41 O42 1.258 . S
C41 O43 1.256 . S
O42 Cd34 2.381 . S
O42 C41 1.258 . S
O43 Cd34 2.378 . S
O43 C41 1.256 . S
O44 Cd45 2.300 . S
O44 C51 1.275 . S
Cd45 O44 2.300 . S
Cd45 O53 2.381 . S
Cd45 O54 2.378 . S
O46 Cd47 2.385 . S
O46 C51 1.255 . S
Cd47 O46 2.385 . S
Cd47 O48 2.317 . S
O48 Cd47 2.317 . S
O48 C49 1.232 . S
C49 O48 1.232 . S
C49 O50 1.218 . S
O50 C49 1.218 . S
C51 O44 1.275 . S
C51 O46 1.255 . S
C52 O53 1.258 . S
C52 O54 1.256 . S
O53 Cd45 2.381 . S
O53 C52 1.258 . S
O54 Cd45 2.378 . S
O54 C52 1.256 . S
O55 Cd56 2.300 . S
O55 C62 1.275 . S
Cd56 O55 2.300 . S
Cd56 O64 2.381 . S
Cd56 O65 2.378 . S
O57 Cd58 2.385 . S
O57 C62 1.255 . S
Cd58 O57 2.385 . S
Cd58 O59 2.317 . S
O59 Cd58 2.317 . S
O59 C60 1.232 . S
C60 O59 1.232 . S
C60 O61 1.218 . S
O61 C60 1.218 . S
C62 O55 1.275 . S
C62 O57 1.255 . S
C63 O64 1.258 . S
C63 O65 1.256 . S
O64 Cd56 2.381 . S
O64 C63 1.258 . S
O65 Cd56 2.378 . S
O65 C63 1.256 . S
O66 Cd67 2.304 . S
O66 C73 1.275 . S
Cd67 O66 2.304 . S
Cd67 O75 2.382 . S
Cd67 O76 2.376 1_545 S
O68 Cd69 2.385 1_545 S
O68 C73 1.255 . S
Cd69 O68 2.385 1_565 S
Cd69 O70 2.317 1_565 S
O70 Cd69 2.317 1_545 S
O70 C71 1.232 . S
C71 O70 1.232 . S
C71 O72 1.218 . S
O72 C71 1.218 . S
C73 O66 1.275 . S
C73 O68 1.255 . S
C74 O75 1.258 1_565 S
C74 O76 1.256 . S
O75 Cd67 2.382 . S
O75 C74 1.258 1_545 S
O76 Cd67 2.376 1_565 S
O76 C74 1.256 . S
O77 Cd78 2.300 . S
O77 C84 1.275 . S
Cd78 O77 2.300 . S
Cd78 O86 2.381 . S
Cd78 O87 2.378 . S
O79 Cd80 2.385 . S
O79 C84 1.255 . S
Cd80 O79 2.385 . S
Cd80 O81 2.317 . S
O81 Cd80 2.317 . S
O81 C82 1.232 . S
C82 O81 1.232 . S
C82 O83 1.218 . S
O83 C82 1.218 . S
C84 O77 1.275 . S
C84 O79 1.255 . S
C85 O86 1.258 . S
C85 O87 1.256 . S
O86 Cd78 2.381 . S
O86 C85 1.258 . S
O87 Cd78 2.378 . S
O87 C85 1.256 . S
O88 Cd89 2.300 . S
O88 C95 1.275 . S
Cd89 O88 2.300 . S
Cd89 O97 2.381 . S
Cd89 O98 2.378 . S
O90 Cd91 2.385 . S
O90 C95 1.255 . S
Cd91 O90 2.385 . S
Cd91 O92 2.317 . S
O92 Cd91 2.317 . S
O92 C93 1.232 . S
C93 O92 1.232 . S
C93 O94 1.218 . S
O94 C93 1.218 . S
C95 O88 1.275 . S
C95 O90 1.255 . S
C96 O97 1.258 . S
C96 O98 1.256 . S
O97 Cd89 2.381 . S
O97 C96 1.258 . S
O98 Cd89 2.378 . S
O98 C96 1.256 . S
O99 Cd100 2.300 . S
O99 C106 1.275 . S
Cd100 O99 2.300 . S
Cd100 O108 2.381 . S
Cd100 O109 2.378 . S
O101 Cd102 2.385 . S
O101 C106 1.255 . S
Cd102 O101 2.385 . S
Cd102 O103 2.317 . S
O103 Cd102 2.317 . S
O103 C104 1.232 . S
C104 O103 1.232 . S
C104 O105 1.218 . S
O105 C104 1.218 . S
C106 O99 1.275 . S
C106 O101 1.255 . S
C107 O108 1.258 . S
C107 O109 1.256 . S
O108 Cd100 2.381 . S
O108 C107 1.258 . S
O109 Cd100 2.378 . S
O109 C107 1.256 . S
O110 Cd111 2.300 . S
O110 C117 1.275 . S
Cd111 O110 2.300 . S
Cd111 O119 2.381 . S
Cd111 O120 2.378 . S
O112 Cd113 2.385 . S
O112 C117 1.255 . S
Cd113 O112 2.385 . S
Cd113 O114 2.317 . S
O114 Cd113 2.317 . S
O114 C115 1.232 . S
C115 O114 1.232 . S
C115 O116 1.218 . S
O116 C115 1.218 . S
C117 O110 1.275 . S
C117 O112 1.255 . S
C118 O119 1.258 . S
C118 O120 1.256 . S
O119 Cd111 2.381 . S
O119 C118 1.258 . S
O120 Cd111 2.378 . S
O120 C118 1.256 . S
O121 Cd122 2.300 . S
O121 C128 1.275 . S
Cd122 O121 2.300 . S
Cd122 O130 2.381 . S
Cd122 O131 2.378 . S
O123 Cd124 2.385 . S
O123 C128 1.255 . S
Cd124 O123 2.385 . S
Cd124 O125 2.317 . S
O125 Cd124 2.317 . S
O125 C126 1.232 . S
C126 O125 1.232 . S
C126 O127 1.218 . S
O127 C126 1.218 . S
C128 O121 1.275 . S
C128 O123 1.255 . S
C129 O130 1.258 . S
C129 O131 1.256 . S
O130 Cd122 2.381 . S
O130 C129 1.258 . S
O131 Cd122 2.378 . S
O131 C129 1.256 . S
O132 Cd133 2.300 . S
O132 C139 1.275 . S
Cd133 O132 2.300 . S
Cd133 O141 2.381 . S
Cd133 O142 2.378 . S
O134 Cd135 2.385 . S
O134 C139 1.255 . S
Cd135 O134 2.385 . S
Cd135 O136 2.317 . S
O136 Cd135 2.317 . S
O136 C137 1.232 . S
C137 O136 1.232 . S
C137 O138 1.218 . S
O138 C137 1.218 . S
C139 O132 1.275 . S
C139 O134 1.255 . S
C140 O141 1.258 . S
C140 O142 1.256 . S
O141 Cd133 2.381 . S
O141 C140 1.258 . S
O142 Cd133 2.378 . S
O142 C140 1.256 . S
O143 Cd144 2.300 . S
O143 C150 1.275 . S
Cd144 O143 2.300 . S
Cd144 O152 2.381 . S
Cd144 O153 2.378 . S
O145 Cd146 2.385 . S
O145 C150 1.255 . S
Cd146 O145 2.385 . S
Cd146 O147 2.317 . S
O147 Cd146 2.317 . S
O147 C148 1.232 . S
C148 O147 1.232 . S
C148 O149 1.218 . S
O149 C148 1.218 . S
C150 O143 1.275 . S
C150 O145 1.255 . S
C151 O152 1.258 . S
C151 O153 1.256 . S
O152 Cd144 2.381 . S
O152 C151 1.258 . S
O153 Cd144 2.378 . S
O153 C151 1.256 . S
O154 Cd155 2.300 . S
O154 C161 1.275 . S
Cd155 O154 2.300 . S
Cd155 O163 2.381 . S
Cd155 O164 2.378 . S
O156 Cd157 2.385 . S
O156 C161 1.255 . S
Cd157 O156 2.385 . S
Cd157 O158 2.317 . S
O158 Cd157 2.317 . S
O158 C159 1.232 . S
C159 O158 1.232 . S
C159 O160 1.218 . S
O160 C159 1.218 . S
C161 O154 1.275 . S
C161 O156 1.255 . S
C162 O163 1.258 . S
C162 O164 1.256 . S
O163 Cd155 2.381 . S
O163 C162 1.258 . S
O164 Cd155 2.378 . S
O164 C162 1.256 . S
O165 Cd166 2.300 . S
O165 C172 1.275 . S
Cd166 O165 2.300 . S
Cd166 O174 2.381 . S
Cd166 O175 2.378 . S
O167 Cd168 2.385 . S
O167 C172 1.255 . S
Cd168 O167 2.385 . S
Cd168 O169 2.317 . S
O169 Cd168 2.317 . S
O169 C170 1.232 . S
C170 O169 1.232 . S
C170 O171 1.218 . S
O171 C170 1.218 . S
C172 O165 1.275 . S
C172 O167 1.255 . S
C173 O174 1.258 . S
C173 O175 1.256 . S
O174 Cd166 2.381 . S
O174 C173 1.258 . S
O175 Cd166 2.378 . S
O175 C173 1.256 . S
H176 C184 0.929 . S
H177 C186 0.930 . S
H178 C188 0.930 . S
H179 C191 0.929 . S
H180 C194 0.930 . S
H181 C196 0.960 . S
H182 C196 0.960 . S
H183 C196 0.960 . S
C184 H176 0.929 . S
C184 C185 1.377 . S
C184 C186 1.384 . S
C185 C184 1.377 . S
C185 C191 1.390 . S
C186 H177 0.930 . S
C186 C184 1.384 . S
C186 C187 1.372 . S
C187 C186 1.372 . S
C187 C188 1.400 . S
C187 C192 1.528 . S
C188 H178 0.930 . S
C188 C187 1.400 . S
C188 C191 1.386 . S
H189 C205 0.930 . S
H190 C206 0.931 . S
C191 H179 0.929 . S
C191 C185 1.390 . S
C191 C188 1.386 . S
C192 C187 1.528 . S
C192 C194 1.362 1_554 S
C192 C195 1.398 1_554 S
H193 C199 0.930 . S
C194 H180 0.930 . S
C194 C192 1.362 1_556 S
C194 C197 1.403 . S
C195 C192 1.398 1_556 S
C195 C196 1.524 1_556 S
C195 C199 1.400 . S
C196 H181 0.960 . S
C196 H182 0.960 . S
C196 H183 0.960 . S
C196 C195 1.524 1_554 S
C197 C194 1.403 . S
C197 C198 1.392 . S
C197 C201 1.495 . S
C198 C197 1.392 . S
C198 C199 1.385 . S
C198 C200 1.478 . S
C199 H193 0.930 . S
C199 C195 1.400 . S
C199 C198 1.385 . S
C200 C198 1.478 . S
C200 C202 1.381 . S
C200 C206 1.383 . S
C201 C197 1.495 . S
C201 H207 0.959 . S
C201 H208 0.961 . S
C201 H209 0.960 . S
C202 C200 1.381 . S
C202 C203 1.394 . S
C202 H210 0.930 . S
C203 C202 1.394 . S
C203 C204 1.383 . S
C203 H211 0.929 . S
C204 C203 1.383 . S
C204 C205 1.377 . S
C205 H189 0.930 . S
C205 C204 1.377 . S
C205 C206 1.379 . S
C206 H190 0.931 . S
C206 C200 1.383 . S
C206 C205 1.379 . S
H207 C201 0.959 . S
H208 C201 0.961 . S
H209 C201 0.960 . S
H210 C202 0.930 . S
H211 C203 0.929 . S
H212 C220 0.929 . S
H213 C222 0.930 . S
H214 C224 0.930 . S
H215 C227 0.929 . S
H216 C230 0.930 . S
H217 C232 0.960 . S
H218 C232 0.960 . S
H219 C232 0.960 . S
C220 H212 0.929 . S
C220 C221 1.377 . S
C220 C222 1.384 . S
C221 C220 1.377 . S
C221 C227 1.390 . S
C222 H213 0.930 . S
C222 C220 1.384 . S
C222 C223 1.372 . S
C223 C222 1.372 . S
C223 C224 1.400 . S
C223 C228 1.490 . S
C224 H214 0.930 . S
C224 C223 1.400 . S
C224 C227 1.386 . S
H225 C241 0.930 . S
H226 C242 0.931 . S
C227 H215 0.929 . S
C227 C221 1.390 . S
C227 C224 1.386 . S
C228 C223 1.490 . S
C228 C230 1.395 . S
C228 C231 1.403 . S
H229 C235 0.930 . S
C230 H216 0.930 . S
C230 C228 1.395 . S
C230 C233 1.403 . S
C231 C228 1.403 . S
C231 C232 1.524 . S
C231 C235 1.400 . S
C232 H217 0.960 . S
C232 H218 0.960 . S
C232 H219 0.960 . S
C232 C231 1.524 . S
C233 C230 1.403 . S
C233 C234 1.392 . S
C233 C237 1.495 . S
C234 C233 1.392 . S
C234 C235 1.385 . S
C234 C236 1.478 . S
C235 H229 0.930 . S
C235 C231 1.400 . S
C235 C234 1.385 . S
C236 C234 1.478 . S
C236 C238 1.381 . S
C236 C242 1.383 1_565 S
C237 C233 1.495 . S
C237 H243 0.959 . S
C237 H244 0.961 . S
C237 H245 0.960 . S
C238 C236 1.381 . S
C238 C239 1.394 . S
C238 H246 0.930 . S
C239 C238 1.394 . S
C239 C240 1.383 . S
C239 H247 0.929 . S
C240 C239 1.383 . S
C240 C241 1.377 1_565 S
C241 H225 0.930 . S
C241 C240 1.377 1_545 S
C241 C242 1.379 . S
C242 H226 0.931 . S
C242 C236 1.383 1_545 S
C242 C241 1.379 . S
H243 C237 0.959 . S
H244 C237 0.961 . S
H245 C237 0.960 . S
H246 C238 0.930 . S
H247 C239 0.929 . S
H248 C256 0.929 . S
H249 C258 0.930 . S
H250 C260 0.930 . S
H251 C263 0.929 . S
H252 C266 0.930 . S
H253 C268 0.960 . S
H254 C268 0.960 . S
H255 C268 0.960 . S
C256 H248 0.929 . S
C256 C257 1.377 . S
C256 C258 1.384 . S
C257 C256 1.377 . S
C257 C263 1.390 1_565 S
C258 H249 0.930 . S
C258 C256 1.384 . S
C258 C259 1.372 . S
C259 C258 1.372 . S
C259 C260 1.400 1_565 S
C259 C264 1.490 1_565 S
C260 H250 0.930 . S
C260 C259 1.400 1_545 S
C260 C263 1.386 . S
H261 C277 0.930 . S
H262 C278 0.931 . S
C263 H251 0.929 . S
C263 C257 1.390 1_545 S
C263 C260 1.386 . S
C264 C259 1.490 1_545 S
C264 C266 1.395 1_545 S
C264 C267 1.403 . S
H265 C271 0.930 . S
C266 H252 0.930 . S
C266 C264 1.395 1_565 S
C266 C269 1.403 . S
C267 C264 1.403 . S
C267 C268 1.524 . S
C267 C271 1.400 . S
C268 H253 0.960 . S
C268 H254 0.960 . S
C268 H255 0.960 . S
C268 C267 1.524 . S
C269 C266 1.403 . S
C269 C270 1.392 1_565 S
C269 C273 1.495 . S
C270 C269 1.392 1_545 S
C270 C271 1.385 . S
C270 C272 1.478 . S
C271 H265 0.930 . S
C271 C267 1.400 . S
C271 C270 1.385 . S
C272 C270 1.478 . S
C272 C274 1.381 . S
C272 C278 1.383 . S
C273 C269 1.495 . S
C273 H279 0.959 . S
C273 H280 0.961 . S
C273 H281 0.960 . S
C274 C272 1.381 . S
C274 C275 1.394 . S
C274 H282 0.930 . S
C275 C274 1.394 . S
C275 C276 1.383 . S
C275 H283 0.929 . S
C276 C275 1.383 . S
C276 C277 1.377 . S
C277 H261 0.930 . S
C277 C276 1.377 . S
C277 C278 1.379 . S
C278 H262 0.931 . S
C278 C272 1.383 . S
C278 C277 1.379 . S
H279 C273 0.959 . S
H280 C273 0.961 . S
H281 C273 0.960 . S
H282 C274 0.930 . S
H283 C275 0.929 . S
H284 C292 0.929 . S
H285 C294 0.930 . S
H286 C296 0.930 . S
H287 C299 0.929 . S
H288 C302 0.930 . S
H289 C304 0.960 . S
H290 C304 0.960 . S
H291 C304 0.960 . S
C292 H284 0.929 . S
C292 C293 1.377 . S
C292 C294 1.384 . S
C293 C292 1.377 . S
C293 C299 1.390 . S
C294 H285 0.930 . S
C294 C292 1.384 . S
C294 C295 1.372 . S
C295 C294 1.372 . S
C295 C296 1.400 . S
C295 C300 1.490 . S
C296 H286 0.930 . S
C296 C295 1.400 . S
C296 C299 1.386 . S
H297 C313 0.930 . S
H298 C314 0.931 . S
C299 H287 0.929 . S
C299 C293 1.390 . S
C299 C296 1.386 . S
C300 C295 1.490 . S
C300 C302 1.395 . S
C300 C303 1.403 . S
H301 C307 0.930 . S
C302 H288 0.930 . S
C302 C300 1.395 . S
C302 C305 1.403 . S
C303 C300 1.403 . S
C303 C304 1.524 . S
C303 C307 1.400 . S
C304 H289 0.960 . S
C304 H290 0.960 . S
C304 H291 0.960 . S
C304 C303 1.524 . S
C305 C302 1.403 . S
C305 C306 1.392 . S
C305 C309 1.495 . S
C306 C305 1.392 . S
C306 C307 1.385 . S
C306 C308 1.478 . S
C307 H301 0.930 . S
C307 C303 1.400 . S
C307 C306 1.385 . S
C308 C306 1.478 . S
C308 C310 1.381 . S
C308 C314 1.383 . S
C309 C305 1.495 . S
C309 H315 0.959 . S
C309 H316 0.961 . S
C309 H317 0.960 . S
C310 C308 1.381 . S
C310 C311 1.394 . S
C310 H318 0.930 . S
C311 C310 1.394 . S
C311 C312 1.383 . S
C311 H319 0.929 . S
C312 C311 1.383 . S
C312 C313 1.377 . S
C313 H297 0.930 . S
C313 C312 1.377 . S
C313 C314 1.379 . S
C314 H298 0.931 . S
C314 C308 1.383 . S
C314 C313 1.379 . S
H315 C309 0.959 . S
H316 C309 0.961 . S
H317 C309 0.960 . S
H318 C310 0.930 . S
H319 C311 0.929 . S
H320 C328 0.929 . S
H321 C330 0.930 . S
H322 C332 0.930 . S
H323 C335 0.929 . S
H324 C338 0.930 . S
H325 C340 0.960 . S
H326 C340 0.960 . S
H327 C340 0.960 . S
C328 H320 0.929 . S
C328 C329 1.377 1_545 S
C328 C330 1.384 . S
C329 C328 1.377 1_565 S
C329 C335 1.390 . S
C330 H321 0.930 . S
C330 C328 1.384 . S
C330 C331 1.361 1_545 S
C331 C330 1.361 1_565 S
C331 C332 1.414 . S
C331 C336 1.487 1_565 S
C332 H322 0.930 . S
C332 C331 1.414 . S
C332 C335 1.386 . S
H333 C349 0.930 . S
H334 C350 0.931 . S
C335 H323 0.929 . S
C335 C329 1.390 . S
C335 C332 1.386 . S
C336 C331 1.487 1_545 S
C336 C338 1.395 . S
C336 C339 1.403 1_545 S
H337 C343 0.930 . S
C338 H324 0.930 . S
C338 C336 1.395 . S
C338 C341 1.403 . S
C339 C336 1.403 1_565 S
C339 C340 1.523 . S
C339 C343 1.401 1_565 S
C340 H325 0.960 . S
C340 H326 0.960 . S
C340 H327 0.960 . S
C340 C339 1.523 . S
C341 C338 1.403 . S
C341 C342 1.392 . S
C341 C345 1.495 . S
C342 C341 1.392 . S
C342 C343 1.385 . S
C342 C344 1.478 . S
C343 H337 0.930 . S
C343 C339 1.401 1_545 S
C343 C342 1.385 . S
C344 C342 1.478 . S
C344 C346 1.381 . S
C344 C350 1.383 . S
C345 C341 1.495 . S
C345 H351 0.959 . S
C345 H352 0.961 . S
C345 H353 0.960 . S
C346 C344 1.381 . S
C346 C347 1.394 . S
C346 H354 0.930 . S
C347 C346 1.394 . S
C347 C348 1.383 . S
C347 H355 0.929 . S
C348 C347 1.383 . S
C348 C349 1.377 . S
C349 H333 0.930 . S
C349 C348 1.377 . S
C349 C350 1.379 . S
C350 H334 0.931 . S
C350 C344 1.383 . S
C350 C349 1.379 . S
H351 C345 0.959 . S
H352 C345 0.961 . S
H353 C345 0.960 . S
H354 C346 0.930 . S
H355 C347 0.929 . S
H356 C364 0.929 1_554 S
H357 C366 0.930 . S
H358 C368 0.930 . S
H359 C371 0.929 . S
H360 C374 0.930 . S
H361 C376 0.960 . S
H362 C376 0.960 . S
H363 C376 0.960 . S
C364 H356 0.929 1_556 S
C364 C365 1.377 . S
C364 C366 1.384 . S
C365 C364 1.377 . S
C365 C371 1.390 . S
C366 H357 0.930 . S
C366 C364 1.384 . S
C366 C367 1.372 . S
C367 C366 1.372 . S
C367 C368 1.400 . S
C367 C372 1.490 . S
C368 H358 0.930 . S
C368 C367 1.400 . S
C368 C371 1.386 . S
H369 C385 0.930 . S
H370 C386 0.931 . S
C371 H359 0.929 . S
C371 C365 1.390 . S
C371 C368 1.386 . S
C372 C367 1.490 . S
C372 C374 1.395 . S
C372 C375 1.403 . S
H373 C379 0.930 . S
C374 H360 0.930 . S
C374 C372 1.395 . S
C374 C377 1.403 . S
C375 C372 1.403 . S
C375 C376 1.524 . S
C375 C379 1.400 . S
C376 H361 0.960 . S
C376 H362 0.960 . S
C376 H363 0.960 . S
C376 C375 1.524 . S
C377 C374 1.403 . S
C377 C378 1.392 . S
C377 C381 1.495 . S
C378 C377 1.392 . S
C378 C379 1.385 . S
C378 C380 1.478 . S
C379 H373 0.930 . S
C379 C375 1.400 . S
C379 C378 1.385 . S
C380 C378 1.478 . S
C380 C382 1.381 . S
C380 C386 1.383 . S
C381 C377 1.495 . S
C381 H387 0.959 . S
C381 H388 0.961 . S
C381 H389 0.960 . S
C382 C380 1.381 . S
C382 C383 1.394 . S
C382 H390 0.930 . S
C383 C382 1.394 . S
C383 C384 1.383 . S
C383 H391 0.929 . S
C384 C383 1.383 . S
C384 C385 1.377 . S
C385 H369 0.930 . S
C385 C384 1.377 . S
C385 C386 1.379 . S
C386 H370 0.931 . S
C386 C380 1.383 . S
C386 C385 1.379 . S
H387 C381 0.959 . S
H388 C381 0.961 . S
H389 C381 0.960 . S
H390 C382 0.930 . S
H391 C383 0.929 . S
H392 C400 0.929 . S
H393 C402 0.930 . S
H394 C404 0.930 . S
H395 C407 0.929 . S
H396 C410 0.930 . S
H397 C412 0.960 . S
H398 C412 0.960 . S
H399 C412 0.960 . S
C400 H392 0.929 . S
C400 C401 1.377 . S
C400 C402 1.384 . S
C401 C400 1.377 . S
C401 C407 1.390 . S
C402 H393 0.930 . S
C402 C400 1.384 . S
C402 C403 1.372 . S
C403 C402 1.372 . S
C403 C404 1.400 . S
C403 C408 1.490 . S
C404 H394 0.930 . S
C404 C403 1.400 . S
C404 C407 1.386 . S
H405 C421 0.930 . S
H406 C422 0.931 . S
C407 H395 0.929 . S
C407 C401 1.390 . S
C407 C404 1.386 . S
C408 C403 1.490 . S
C408 C410 1.395 . S
C408 C411 1.403 . S
H409 C415 0.930 . S
C410 H396 0.930 . S
C410 C408 1.395 . S
C410 C413 1.403 . S
C411 C408 1.403 . S
C411 C412 1.524 . S
C411 C415 1.400 . S
C412 H397 0.960 . S
C412 H398 0.960 . S
C412 H399 0.960 . S
C412 C411 1.524 . S
C413 C410 1.403 . S
C413 C414 1.392 . S
C413 C417 1.495 . S
C414 C413 1.392 . S
C414 C415 1.385 . S
C414 C416 1.478 . S
C415 H409 0.930 . S
C415 C411 1.400 . S
C415 C414 1.385 . S
C416 C414 1.478 . S
C416 C418 1.381 . S
C416 C422 1.383 . S
C417 C413 1.495 . S
C417 H423 0.959 . S
C417 H424 0.961 . S
C417 H425 0.960 . S
C418 C416 1.381 . S
C418 C419 1.394 . S
C418 H426 0.930 . S
C419 C418 1.394 . S
C419 C420 1.383 . S
C419 H427 0.929 . S
C420 C419 1.383 . S
C420 C421 1.377 . S
C421 H405 0.930 . S
C421 C420 1.377 . S
C421 C422 1.379 . S
C422 H406 0.931 . S
C422 C416 1.383 . S
C422 C421 1.379 . S
H423 C417 0.959 . S
H424 C417 0.961 . S
H425 C417 0.960 . S
H426 C418 0.930 . S
H427 C419 0.929 . S
H428 C436 0.929 . S
H429 C438 0.902 1_545 S
H430 C440 0.930 . S
H431 C443 0.929 . S
H432 C446 0.923 1_545 S
H433 C448 0.960 . S
H434 C448 0.960 . S
H435 C448 0.960 . S
C436 H428 0.929 . S
C436 C437 1.377 . S
C436 C438 1.384 . S
C437 C436 1.377 . S
C437 C443 1.390 . S
C438 H429 0.902 1_565 S
C438 C436 1.384 . S
C438 C439 1.372 . S
C439 C438 1.372 . S
C439 C440 1.400 . S
C439 C444 1.490 . S
C440 H430 0.930 . S
C440 C439 1.400 . S
C440 C443 1.386 . S
H441 C457 0.930 . S
H442 C458 0.931 . S
C443 H431 0.929 . S
C443 C437 1.390 . S
C443 C440 1.386 . S
C444 C439 1.490 . S
C444 C446 1.395 . S
C444 C447 1.403 . S
H445 C451 0.930 . S
C446 H432 0.923 1_565 S
C446 C444 1.395 . S
C446 C449 1.403 . S
C447 C444 1.403 . S
C447 C448 1.524 . S
C447 C451 1.400 . S
C448 H433 0.960 . S
C448 H434 0.960 . S
C448 H435 0.960 . S
C448 C447 1.524 . S
C449 C446 1.403 . S
C449 C450 1.392 . S
C449 C453 1.495 1_565 S
C450 C449 1.392 . S
C450 C451 1.385 . S
C450 C452 1.478 . S
C451 H445 0.930 . S
C451 C447 1.400 . S
C451 C450 1.385 . S
C452 C450 1.478 . S
C452 C454 1.381 1_565 S
C452 C458 1.383 . S
C453 C449 1.495 1_545 S
C453 H459 0.959 . S
C453 H460 0.961 . S
C453 H461 0.960 . S
C454 C452 1.381 1_545 S
C454 C455 1.394 . S
C454 H462 0.930 . S
C455 C454 1.394 . S
C455 C456 1.383 1_545 S
C455 H463 0.929 . S
C456 C455 1.383 1_565 S
C456 C457 1.377 . S
C457 H441 0.930 . S
C457 C456 1.377 . S
C457 C458 1.379 . S
C458 H442 0.931 . S
C458 C452 1.383 . S
C458 C457 1.379 . S
H459 C453 0.959 . S
H460 C453 0.961 . S
H461 C453 0.960 . S
H462 C454 0.930 . S
H463 C455 0.929 . S
H464 C472 0.929 . S
H465 C474 0.930 . S
H466 C476 0.930 . S
H467 C479 0.929 . S
H468 C482 0.930 . S
H469 C484 0.960 . S
H470 C484 0.960 . S
H471 C484 0.960 . S
C472 H464 0.929 . S
C472 C473 1.377 . S
C472 C474 1.384 . S
C473 C472 1.377 . S
C473 C479 1.390 . S
C474 H465 0.930 . S
C474 C472 1.384 . S
C474 C475 1.372 . S
C475 C474 1.372 . S
C475 C476 1.400 . S
C475 C480 1.490 . S
C476 H466 0.930 . S
C476 C475 1.400 . S
C476 C479 1.386 . S
H477 C493 0.930 . S
H478 C494 0.931 . S
C479 H467 0.929 . S
C479 C473 1.390 . S
C479 C476 1.386 . S
C480 C475 1.490 . S
C480 C482 1.395 . S
C480 C483 1.403 . S
H481 C487 0.930 . S
C482 H468 0.930 . S
C482 C480 1.395 . S
C482 C485 1.403 . S
C483 C480 1.403 . S
C483 C484 1.524 . S
C483 C487 1.400 . S
C484 H469 0.960 . S
C484 H470 0.960 . S
C484 H471 0.960 . S
C484 C483 1.524 . S
C485 C482 1.403 . S
C485 C486 1.392 . S
C485 C489 1.495 . S
C486 C485 1.392 . S
C486 C487 1.385 . S
C486 C488 1.478 . S
C487 H481 0.930 . S
C487 C483 1.400 . S
C487 C486 1.385 . S
C488 C486 1.478 . S
C488 C490 1.381 . S
C488 C494 1.383 . S
C489 C485 1.495 . S
C489 H495 0.959 . S
C489 H496 0.961 . S
C489 H497 0.960 . S
C490 C488 1.381 . S
C490 C491 1.394 . S
C490 H498 0.930 . S
C491 C490 1.394 . S
C491 C492 1.383 . S
C491 H499 0.929 . S
C492 C491 1.383 . S
C492 C493 1.377 . S
C493 H477 0.930 . S
C493 C492 1.377 . S
C493 C494 1.379 . S
C494 H478 0.931 . S
C494 C488 1.383 . S
C494 C493 1.379 . S
H495 C489 0.959 . S
H496 C489 0.961 . S
H497 C489 0.960 . S
H498 C490 0.930 . S
H499 C491 0.929 . S
H500 C508 0.929 . S
H501 C510 0.930 . S
H502 C512 0.930 . S
H503 C515 0.929 . S
H504 C518 0.930 . S
H505 C520 0.960 . S
H506 C520 0.960 . S
H507 C520 0.960 . S
C508 H500 0.929 . S
C508 C509 1.377 . S
C508 C510 1.384 . S
C509 C508 1.377 . S
C509 C515 1.390 . S
C510 H501 0.930 . S
C510 C508 1.384 . S
C510 C511 1.372 . S
C511 C510 1.372 . S
C511 C512 1.400 . S
C511 C516 1.490 . S
C512 H502 0.930 . S
C512 C511 1.400 . S
C512 C515 1.386 . S
H513 C529 0.930 . S
H514 C530 0.931 . S
C515 H503 0.929 . S
C515 C509 1.390 . S
C515 C512 1.386 . S
C516 C511 1.490 . S
C516 C518 1.395 . S
C516 C519 1.403 . S
H517 C523 0.930 . S
C518 H504 0.930 . S
C518 C516 1.395 . S
C518 C521 1.403 . S
C519 C516 1.403 . S
C519 C520 1.524 . S
C519 C523 1.400 . S
C520 H505 0.960 . S
C520 H506 0.960 . S
C520 H507 0.960 . S
C520 C519 1.524 . S
C521 C518 1.403 . S
C521 C522 1.392 . S
C521 C525 1.495 . S
C522 C521 1.392 . S
C522 C523 1.385 . S
C522 C524 1.478 . S
C523 H517 0.930 . S
C523 C519 1.400 . S
C523 C522 1.385 . S
C524 C522 1.478 . S
C524 C526 1.381 . S
C524 C530 1.383 . S
C525 C521 1.495 . S
C525 H531 0.959 . S
C525 H532 0.961 . S
C525 H533 0.960 . S
C526 C524 1.381 . S
C526 C527 1.394 . S
C526 H534 0.930 . S
C527 C526 1.394 . S
C527 C528 1.383 . S
C527 H535 0.929 . S
C528 C527 1.383 . S
C528 C529 1.377 . S
C529 H513 0.930 . S
C529 C528 1.377 . S
C529 C530 1.379 . S
C530 H514 0.931 . S
C530 C524 1.383 . S
C530 C529 1.379 . S
H531 C525 0.959 . S
H532 C525 0.961 . S
H533 C525 0.960 . S
H534 C526 0.930 . S
H535 C527 0.929 . S
H536 C544 0.929 . S
H537 C546 0.930 . S
H538 C548 0.899 1_556 S
H539 C551 0.929 . S
H540 C554 0.930 . S
H541 C556 0.960 . S
H542 C556 0.960 . S
H543 C556 0.960 . S
C544 H536 0.929 . S
C544 C545 1.377 . S
C544 C546 1.384 . S
C545 C544 1.377 . S
C545 C551 1.390 . S
C546 H537 0.930 . S
C546 C544 1.384 . S
C546 C547 1.372 . S
C547 C546 1.372 . S
C547 C548 1.400 . S
C547 C552 1.490 1_554 S
C548 H538 0.899 1_554 S
C548 C547 1.400 . S
C548 C551 1.386 . S
H549 C565 0.930 . S
H550 C566 0.931 . S
C551 H539 0.929 . S
C551 C545 1.390 . S
C551 C548 1.386 . S
C552 C547 1.490 1_556 S
C552 C554 1.395 . S
C552 C555 1.403 . S
H553 C559 0.930 . S
C554 H540 0.930 . S
C554 C552 1.395 . S
C554 C557 1.403 . S
C555 C552 1.403 . S
C555 C556 1.524 . S
C555 C559 1.400 . S
C556 H541 0.960 . S
C556 H542 0.960 . S
C556 H543 0.960 . S
C556 C555 1.524 . S
C557 C554 1.403 . S
C557 C558 1.392 . S
C557 C561 1.495 . S
C558 C557 1.392 . S
C558 C559 1.385 . S
C558 C560 1.478 . S
C559 H553 0.930 . S
C559 C555 1.400 . S
C559 C558 1.385 . S
C560 C558 1.478 . S
C560 C562 1.381 . S
C560 C566 1.383 . S
C561 C557 1.495 . S
C561 H567 0.959 . S
C561 H568 0.961 . S
C561 H569 0.960 . S
C562 C560 1.381 . S
C562 C563 1.394 . S
C562 H570 0.930 . S
C563 C562 1.394 . S
C563 C564 1.383 . S
C563 H571 0.929 . S
C564 C563 1.383 . S
C564 C565 1.377 . S
C565 H549 0.930 . S
C565 C564 1.377 . S
C565 C566 1.379 . S
C566 H550 0.931 . S
C566 C560 1.383 . S
C566 C565 1.379 . S
H567 C561 0.959 . S
H568 C561 0.961 . S
H569 C561 0.960 . S
H570 C562 0.930 . S
H571 C563 0.929 . S
H572 C580 0.929 . S
H573 C582 0.930 . S
H574 C584 0.930 . S
H575 C587 0.929 . S
H576 C590 0.930 . S
H577 C592 0.960 . S
H578 C592 0.960 . S
H579 C592 0.960 . S
C580 H572 0.929 . S
C580 C581 1.377 . S
C580 C582 1.384 . S
C581 C580 1.377 . S
C581 C587 1.390 . S
C582 H573 0.930 . S
C582 C580 1.384 . S
C582 C583 1.372 . S
C583 C582 1.372 . S
C583 C584 1.400 . S
C583 C588 1.490 . S
C584 H574 0.930 . S
C584 C583 1.400 . S
C584 C587 1.386 . S
H585 C601 0.930 . S
H586 C602 0.931 . S
C587 H575 0.929 . S
C587 C581 1.390 . S
C587 C584 1.386 . S
C588 C583 1.490 . S
C588 C590 1.395 . S
C588 C591 1.403 . S
H589 C595 0.930 . S
C590 H576 0.930 . S
C590 C588 1.395 . S
C590 C593 1.403 . S
C591 C588 1.403 . S
C591 C592 1.524 . S
C591 C595 1.400 . S
C592 H577 0.960 . S
C592 H578 0.960 . S
C592 H579 0.960 . S
C592 C591 1.524 . S
C593 C590 1.403 . S
C593 C594 1.392 . S
C593 C597 1.495 . S
C594 C593 1.392 . S
C594 C595 1.385 . S
C594 C596 1.478 . S
C595 H589 0.930 . S
C595 C591 1.400 . S
C595 C594 1.385 . S
C596 C594 1.478 . S
C596 C598 1.381 . S
C596 C602 1.383 . S
C597 C593 1.495 . S
C597 H603 0.959 . S
C597 H604 0.961 . S
C597 H605 0.960 . S
C598 C596 1.381 . S
C598 C599 1.394 . S
C598 H606 0.930 . S
C599 C598 1.394 . S
C599 C600 1.383 . S
C599 H607 0.929 . S
C600 C599 1.383 . S
C600 C601 1.377 . S
C601 H585 0.930 . S
C601 C600 1.377 . S
C601 C602 1.379 . S
C602 H586 0.931 . S
C602 C596 1.383 . S
C602 C601 1.379 . S
H603 C597 0.959 . S
H604 C597 0.961 . S
H605 C597 0.960 . S
H606 C598 0.930 . S
H607 C599 0.929 . S
H608 C616 0.929 . S
H609 C618 0.930 . S
H610 C620 0.930 . S
H611 C623 0.929 . S
H612 C626 0.930 . S
H613 C628 0.960 . S
H614 C628 0.960 . S
H615 C628 0.960 . S
C616 H608 0.929 . S
C616 C617 1.377 . S
C616 C618 1.384 . S
C617 C616 1.377 . S
C617 C623 1.390 . S
C618 H609 0.930 . S
C618 C616 1.384 . S
C618 C619 1.372 . S
C619 C618 1.372 . S
C619 C620 1.400 . S
C619 C624 1.490 . S
C620 H610 0.930 . S
C620 C619 1.400 . S
C620 C623 1.386 . S
H621 C637 0.930 . S
H622 C638 0.931 . S
C623 H611 0.929 . S
C623 C617 1.390 . S
C623 C620 1.386 . S
C624 C619 1.490 . S
C624 C626 1.395 . S
C624 C627 1.403 . S
H625 C631 0.930 . S
C626 H612 0.930 . S
C626 C624 1.395 . S
C626 C629 1.403 . S
C627 C624 1.403 . S
C627 C628 1.524 . S
C627 C631 1.400 . S
C628 H613 0.960 . S
C628 H614 0.960 . S
C628 H615 0.960 . S
C628 C627 1.524 . S
C629 C626 1.403 . S
C629 C630 1.392 . S
C629 C633 1.495 . S
C630 C629 1.392 . S
C630 C631 1.385 . S
C630 C632 1.478 . S
C631 H625 0.930 . S
C631 C627 1.400 . S
C631 C630 1.385 . S
C632 C630 1.478 . S
C632 C634 1.381 . S
C632 C638 1.383 . S
C633 C629 1.495 . S
C633 H639 0.959 . S
C633 H640 0.961 . S
C633 H641 0.960 . S
C634 C632 1.381 . S
C634 C635 1.394 . S
C634 H642 0.930 . S
C635 C634 1.394 . S
C635 C636 1.383 . S
C635 H643 0.929 . S
C636 C635 1.383 . S
C636 C637 1.377 . S
C637 H621 0.930 . S
C637 C636 1.377 . S
C637 C638 1.379 . S
C638 H622 0.931 . S
C638 C632 1.383 . S
C638 C637 1.379 . S
H639 C633 0.959 . S
H640 C633 0.961 . S
H641 C633 0.960 . S
H642 C634 0.930 . S
H643 C635 0.929 . S
H644 C652 0.929 . S
H645 C654 0.930 . S
H646 C656 0.930 . S
H647 C659 0.929 . S
H648 C662 0.930 . S
H649 C664 0.960 . S
H650 C664 0.960 . S
H651 C664 0.960 . S
C652 H644 0.929 . S
C652 C653 1.377 . S
C652 C654 1.384 . S
C653 C652 1.377 . S
C653 C659 1.390 . S
C654 H645 0.930 . S
C654 C652 1.384 . S
C654 C655 1.372 . S
C655 C654 1.372 . S
C655 C656 1.400 . S
C655 C660 1.490 . S
C656 H646 0.930 . S
C656 C655 1.400 . S
C656 C659 1.386 . S
H657 C673 0.930 . S
H658 C674 0.931 . S
C659 H647 0.929 . S
C659 C653 1.390 . S
C659 C656 1.386 . S
C660 C655 1.490 . S
C660 C662 1.395 . S
C660 C663 1.403 . S
H661 C667 0.930 . S
C662 H648 0.930 . S
C662 C660 1.395 . S
C662 C665 1.403 . S
C663 C660 1.403 . S
C663 C664 1.524 . S
C663 C667 1.400 . S
C664 H649 0.960 . S
C664 H650 0.960 . S
C664 H651 0.960 . S
C664 C663 1.524 . S
C665 C662 1.403 . S
C665 C666 1.392 . S
C665 C669 1.495 . S
C666 C665 1.392 . S
C666 C667 1.385 . S
C666 C668 1.478 . S
C667 H661 0.930 . S
C667 C663 1.400 . S
C667 C666 1.385 . S
C668 C666 1.478 . S
C668 C670 1.381 . S
C668 C674 1.383 . S
C669 C665 1.495 . S
C669 H675 0.959 . S
C669 H676 0.961 . S
C669 H677 0.960 . S
C670 C668 1.381 . S
C670 C671 1.394 . S
C670 H678 0.930 . S
C671 C670 1.394 . S
C671 C672 1.383 . S
C671 H679 0.929 . S
C672 C671 1.383 . S
C672 C673 1.377 . S
C673 H657 0.930 . S
C673 C672 1.377 . S
C673 C674 1.379 . S
C674 H658 0.931 . S
C674 C668 1.383 . S
C674 C673 1.379 . S
H675 C669 0.959 . S
H676 C669 0.961 . S
H677 C669 0.960 . S
H678 C670 0.930 . S
H679 C671 0.929 . S
H680 C688 0.929 . S
H681 C690 0.930 . S
H682 C692 0.930 . S
H683 C695 0.929 . S
H684 C698 0.930 . S
H685 C700 0.960 . S
H686 C700 0.960 . S
H687 C700 0.960 . S
C688 H680 0.929 . S
C688 C689 1.377 . S
C688 C690 1.384 . S
C689 C688 1.377 . S
C689 C695 1.390 . S
C690 H681 0.930 . S
C690 C688 1.384 . S
C690 C691 1.372 . S
C691 C690 1.372 . S
C691 C692 1.400 . S
C691 C696 1.490 . S
C692 H682 0.930 . S
C692 C691 1.400 . S
C692 C695 1.386 . S
H693 C709 0.930 . S
H694 C710 0.931 . S
C695 H683 0.929 . S
C695 C689 1.390 . S
C695 C692 1.386 . S
C696 C691 1.490 . S
C696 C698 1.395 . S
C696 C699 1.403 . S
H697 C703 0.930 . S
C698 H684 0.930 . S
C698 C696 1.395 . S
C698 C701 1.403 . S
C699 C696 1.403 . S
C699 C700 1.524 . S
C699 C703 1.400 . S
C700 H685 0.960 . S
C700 H686 0.960 . S
C700 H687 0.960 . S
C700 C699 1.524 . S
C701 C698 1.403 . S
C701 C702 1.392 . S
C701 C705 1.495 . S
C702 C701 1.392 . S
C702 C703 1.385 . S
C702 C704 1.478 . S
C703 H697 0.930 . S
C703 C699 1.400 . S
C703 C702 1.385 . S
C704 C702 1.478 . S
C704 C706 1.381 . S
C704 C710 1.383 . S
C705 C701 1.495 . S
C705 H711 0.959 . S
C705 H712 0.961 . S
C705 H713 0.960 . S
C706 C704 1.381 . S
C706 C707 1.394 . S
C706 H714 0.930 . S
C707 C706 1.394 . S
C707 C708 1.383 . S
C707 H715 0.929 . S
C708 C707 1.383 . S
C708 C709 1.377 . S
C709 H693 0.930 . S
C709 C708 1.377 . S
C709 C710 1.379 . S
C710 H694 0.931 . S
C710 C704 1.383 . S
C710 C709 1.379 . S
H711 C705 0.959 . S
H712 C705 0.961 . S
H713 C705 0.960 . S
H714 C706 0.930 . S
H715 C707 0.929 . S
H716 C724 0.929 . S
H717 C726 0.930 . S
H718 C728 0.936 . S
H719 C731 0.929 . S
H720 C734 0.930 . S
H721 C736 0.960 . S
H722 C736 0.960 . S
H723 C736 0.960 . S
C724 H716 0.929 . S
C724 C725 1.377 . S
C724 C726 1.384 1_554 S
C725 C724 1.377 . S
C725 C731 1.390 . S
C726 H717 0.930 . S
C726 C724 1.384 1_556 S
C726 C727 1.372 . S
C727 C726 1.372 . S
C727 C728 1.436 . S
C727 C732 1.490 . S
C728 H718 0.936 . S
C728 C727 1.436 . S
C728 C731 1.345 1_556 S
H729 C745 0.930 . S
H730 C746 0.931 . S
C731 H719 0.929 . S
C731 C725 1.390 . S
C731 C728 1.345 1_554 S
C732 C727 1.490 . S
C732 C734 1.395 . S
C732 C735 1.403 . S
H733 C739 0.930 . S
C734 H720 0.930 . S
C734 C732 1.395 . S
C734 C737 1.403 . S
C735 C732 1.403 . S
C735 C736 1.524 . S
C735 C739 1.400 . S
C736 H721 0.960 . S
C736 H722 0.960 . S
C736 H723 0.960 . S
C736 C735 1.524 . S
C737 C734 1.403 . S
C737 C738 1.392 . S
C737 C741 1.495 . S
C738 C737 1.392 . S
C738 C739 1.385 . S
C738 C740 1.478 . S
C739 H733 0.930 . S
C739 C735 1.400 . S
C739 C738 1.385 . S
C740 C738 1.478 . S
C740 C742 1.381 . S
C740 C746 1.383 . S
C741 C737 1.495 . S
C741 H747 0.959 . S
C741 H748 0.961 . S
C741 H749 0.960 . S
C742 C740 1.381 . S
C742 C743 1.394 . S
C742 H750 0.930 . S
C743 C742 1.394 . S
C743 C744 1.383 . S
C743 H751 0.929 . S
C744 C743 1.383 . S
C744 C745 1.377 . S
C745 H729 0.930 . S
C745 C744 1.377 . S
C745 C746 1.379 . S
C746 H730 0.931 . S
C746 C740 1.383 . S
C746 C745 1.379 . S
H747 C741 0.959 . S
H748 C741 0.961 . S
H749 C741 0.960 . S
H750 C742 0.930 . S
H751 C743 0.929 . S
H752 C760 0.929 . S
H753 C762 0.930 . S
H754 C764 0.930 . S
H755 C767 0.929 . S
H756 C770 0.930 . S
H757 C772 0.960 . S
H758 C772 0.960 . S
H759 C772 0.960 . S
C760 H752 0.929 . S
C760 C761 1.377 . S
C760 C762 1.384 . S
C761 C760 1.377 . S
C761 C767 1.390 . S
C762 H753 0.930 . S
C762 C760 1.384 . S
C762 C763 1.372 . S
C763 C762 1.372 . S
C763 C764 1.400 . S
C763 C768 1.490 . S
C764 H754 0.930 . S
C764 C763 1.400 . S
C764 C767 1.386 . S
H765 C781 0.930 . S
H766 C782 0.931 . S
C767 H755 0.929 . S
C767 C761 1.390 . S
C767 C764 1.386 . S
C768 C763 1.490 . S
C768 C770 1.395 . S
C768 C771 1.403 . S
H769 C775 0.930 . S
C770 H756 0.930 . S
C770 C768 1.395 . S
C770 C773 1.403 . S
C771 C768 1.403 . S
C771 C772 1.524 . S
C771 C775 1.400 . S
C772 H757 0.960 . S
C772 H758 0.960 . S
C772 H759 0.960 . S
C772 C771 1.524 . S
C773 C770 1.403 . S
C773 C774 1.392 1_655 S
C773 C777 1.495 1_655 S
C774 C773 1.392 1_455 S
C774 C775 1.385 1_455 S
C774 C776 1.478 . S
C775 H769 0.930 . S
C775 C771 1.400 . S
C775 C774 1.385 1_655 S
C776 C774 1.478 . S
C776 C778 1.381 . S
C776 C782 1.383 . S
C777 C773 1.495 1_455 S
C777 H783 0.959 . S
C777 H784 0.961 . S
C777 H785 0.960 . S
C778 C776 1.381 . S
C778 C779 1.394 . S
C778 H786 0.930 . S
C779 C778 1.394 . S
C779 C780 1.383 . S
C779 H787 0.929 . S
C780 C779 1.383 . S
C780 C781 1.377 . S
C781 H765 0.930 . S
C781 C780 1.377 . S
C781 C782 1.379 . S
C782 H766 0.931 . S
C782 C776 1.383 . S
C782 C781 1.379 . S
H783 C777 0.959 . S
H784 C777 0.961 . S
H785 C777 0.960 . S
H786 C778 0.930 . S
H787 C779 0.929 . S
H788 C796 0.929 . S
H789 C798 0.930 . S
H790 C800 0.930 . S
H791 C803 0.929 . S
H792 C806 0.930 . S
H793 C808 0.960 . S
H794 C808 0.960 . S
H795 C808 0.960 . S
C796 H788 0.929 . S
C796 C797 1.377 . S
C796 C798 1.384 . S
C797 C796 1.377 . S
C797 C803 1.390 . S
C798 H789 0.930 . S
C798 C796 1.384 . S
C798 C799 1.372 . S
C799 C798 1.372 . S
C799 C800 1.400 . S
C799 C804 1.490 . S
C800 H790 0.930 . S
C800 C799 1.400 . S
C800 C803 1.386 . S
H801 C817 0.930 . S
H802 C818 0.931 . S
C803 H791 0.929 . S
C803 C797 1.390 . S
C803 C800 1.386 . S
C804 C799 1.490 . S
C804 C806 1.395 . S
C804 C807 1.403 . S
H805 C811 0.930 . S
C806 H792 0.930 . S
C806 C804 1.395 . S
C806 C809 1.403 . S
C807 C804 1.403 . S
C807 C808 1.524 . S
C807 C811 1.400 . S
C808 H793 0.960 . S
C808 H794 0.960 . S
C808 H795 0.960 . S
C808 C807 1.524 . S
C809 C806 1.403 . S
C809 C810 1.392 . S
C809 C813 1.495 . S
C810 C809 1.392 . S
C810 C811 1.385 . S
C810 C812 1.478 . S
C811 H805 0.930 . S
C811 C807 1.400 . S
C811 C810 1.385 . S
C812 C810 1.478 . S
C812 C814 1.381 . S
C812 C818 1.383 . S
C813 C809 1.495 . S
C813 H819 0.959 . S
C813 H820 0.961 . S
C813 H821 0.960 . S
C814 C812 1.381 . S
C814 C815 1.394 . S
C814 H822 0.930 . S
C815 C814 1.394 . S
C815 C816 1.383 . S
C815 H823 0.929 . S
C816 C815 1.383 . S
C816 C817 1.377 . S
C817 H801 0.930 . S
C817 C816 1.377 . S
C817 C818 1.379 . S
C818 H802 0.931 . S
C818 C812 1.383 . S
C818 C817 1.379 . S
H819 C813 0.959 . S
H820 C813 0.961 . S
H821 C813 0.960 . S
H822 C814 0.930 . S
H823 C815 0.929 . S
H824 C832 0.929 . S
H825 C834 0.930 . S
H826 C836 0.930 . S
H827 C839 0.929 . S
H828 C842 0.930 . S
H829 C844 0.932 1_565 S
H830 C844 0.960 . S
H831 C844 0.960 . S
C832 H824 0.929 . S
C832 C833 1.377 . S
C832 C834 1.384 . S
C833 C832 1.377 . S
C833 C839 1.390 . S
C834 H825 0.930 . S
C834 C832 1.384 . S
C834 C835 1.372 . S
C835 C834 1.372 . S
C835 C836 1.400 . S
C835 C840 1.490 . S
C836 H826 0.930 . S
C836 C835 1.400 . S
C836 C839 1.386 . S
H837 C853 0.930 . S
H838 C854 0.931 . S
C839 H827 0.929 . S
C839 C833 1.390 . S
C839 C836 1.386 . S
C840 C835 1.490 . S
C840 C842 1.395 . S
C840 C843 1.403 . S
H841 C847 0.930 . S
C842 H828 0.930 . S
C842 C840 1.395 . S
C842 C845 1.403 . S
C843 C840 1.403 . S
C843 C844 1.524 . S
C843 C847 1.400 . S
C844 H829 0.932 1_545 S
C844 H830 0.960 . S
C844 H831 0.960 . S
C844 C843 1.524 . S
C845 C842 1.403 . S
C845 C846 1.392 . S
C845 C849 1.495 . S
C846 C845 1.392 . S
C846 C847 1.385 . S
C846 C848 1.478 . S
C847 H841 0.930 . S
C847 C843 1.400 . S
C847 C846 1.385 . S
C848 C846 1.478 . S
C848 C850 1.381 . S
C848 C854 1.383 . S
C849 C845 1.495 . S
C849 H855 0.959 . S
C849 H856 0.961 . S
C849 H857 0.960 . S
C850 C848 1.381 . S
C850 C851 1.394 . S
C850 H858 0.930 . S
C851 C850 1.394 . S
C851 C852 1.383 . S
C851 H859 0.929 . S
C852 C851 1.383 . S
C852 C853 1.377 . S
C853 H837 0.930 . S
C853 C852 1.377 . S
C853 C854 1.379 . S
C854 H838 0.931 . S
C854 C848 1.383 . S
C854 C853 1.379 . S
H855 C849 0.959 . S
H856 C849 0.961 . S
H857 C849 0.960 . S
H858 C850 0.930 . S
H859 C851 0.929 . S
H860 C868 0.929 . S
H861 C870 0.930 . S
H862 C872 0.930 . S
H863 C875 0.929 . S
H864 C878 0.930 . S
H865 C880 0.960 . S
H866 C880 0.960 . S
H867 C880 0.960 . S
C868 H860 0.929 . S
C868 C869 1.377 . S
C868 C870 1.384 . S
C869 C868 1.377 . S
C869 C875 1.390 . S
C870 H861 0.930 . S
C870 C868 1.384 . S
C870 C871 1.372 . S
C871 C870 1.372 . S
C871 C872 1.400 . S
C871 C876 1.490 . S
C872 H862 0.930 . S
C872 C871 1.400 . S
C872 C875 1.386 . S
H873 C889 0.930 . S
H874 C890 0.931 . S
C875 H863 0.929 . S
C875 C869 1.390 . S
C875 C872 1.386 . S
C876 C871 1.490 . S
C876 C878 1.395 . S
C876 C879 1.403 . S
H877 C883 0.930 . S
C878 H864 0.930 . S
C878 C876 1.395 . S
C878 C881 1.403 . S
C879 C876 1.403 . S
C879 C880 1.524 . S
C879 C883 1.400 . S
C880 H865 0.960 . S
C880 H866 0.960 . S
C880 H867 0.960 . S
C880 C879 1.524 . S
C881 C878 1.403 . S
C881 C882 1.392 . S
C881 C885 1.495 . S
C882 C881 1.392 . S
C882 C883 1.385 . S
C882 C884 1.478 . S
C883 H877 0.930 . S
C883 C879 1.400 . S
C883 C882 1.385 . S
C884 C882 1.478 . S
C884 C886 1.381 . S
C884 C890 1.383 . S
C885 C881 1.495 . S
C885 H891 0.959 . S
C885 H892 0.961 . S
C885 H893 0.960 . S
C886 C884 1.381 . S
C886 C887 1.394 . S
C886 H894 0.930 . S
C887 C886 1.394 . S
C887 C888 1.383 . S
C887 H895 0.929 . S
C888 C887 1.383 . S
C888 C889 1.377 . S
C889 H873 0.930 . S
C889 C888 1.377 . S
C889 C890 1.379 . S
C890 H874 0.931 . S
C890 C884 1.383 . S
C890 C889 1.379 . S
H891 C885 0.959 . S
H892 C885 0.961 . S
H893 C885 0.960 . S
H894 C886 0.930 . S
H895 C887 0.929 . S
H896 C904 0.929 . S
H897 C906 0.930 . S
H898 C908 0.930 . S
H899 C911 0.929 . S
H900 C914 0.930 . S
H901 C916 0.960 . S
H902 C916 0.960 . S
H903 C916 0.960 . S
C904 H896 0.929 . S
C904 C905 1.377 . S
C904 C906 1.384 . S
C905 C904 1.377 . S
C905 C911 1.390 . S
C906 H897 0.930 . S
C906 C904 1.384 . S
C906 C907 1.372 . S
C907 C906 1.372 . S
C907 C908 1.400 . S
C907 C912 1.490 . S
C908 H898 0.930 . S
C908 C907 1.400 . S
C908 C911 1.386 . S
H909 C925 0.930 . S
H910 C926 0.931 . S
C911 H899 0.929 . S
C911 C905 1.390 . S
C911 C908 1.386 . S
C912 C907 1.490 . S
C912 C914 1.395 . S
C912 C915 1.403 . S
H913 C919 0.930 . S
C914 H900 0.930 . S
C914 C912 1.395 . S
C914 C917 1.403 . S
C915 C912 1.403 . S
C915 C916 1.524 . S
C915 C919 1.400 . S
C916 H901 0.960 . S
C916 H902 0.960 . S
C916 H903 0.960 . S
C916 C915 1.524 . S
C917 C914 1.403 . S
C917 C918 1.392 . S
C917 C921 1.495 . S
C918 C917 1.392 . S
C918 C919 1.385 . S
C918 C920 1.478 . S
C919 H913 0.930 . S
C919 C915 1.400 . S
C919 C918 1.385 . S
C920 C918 1.478 . S
C920 C922 1.381 . S
C920 C926 1.383 . S
C921 C917 1.495 . S
C921 H927 0.959 . S
C921 H928 0.961 . S
C921 H929 0.960 . S
C922 C920 1.381 . S
C922 C923 1.394 . S
C922 H930 0.930 . S
C923 C922 1.394 . S
C923 C924 1.383 . S
C923 H931 0.929 . S
C924 C923 1.383 . S
C924 C925 1.377 . S
C925 H909 0.930 . S
C925 C924 1.377 . S
C925 C926 1.379 . S
C926 H910 0.931 . S
C926 C920 1.383 . S
C926 C925 1.379 . S
H927 C921 0.959 . S
H928 C921 0.961 . S
H929 C921 0.960 . S
H930 C922 0.930 . S
H931 C923 0.929 . S
H932 C940 0.929 . S
H933 C942 0.930 . S
H934 C944 0.930 . S
H935 C947 0.929 . S
H936 C950 0.930 . S
H937 C952 0.960 . S
H938 C952 0.960 . S
H939 C952 0.960 . S
C940 H932 0.929 . S
C940 C941 1.377 . S
C940 C942 1.384 . S
C941 C940 1.377 . S
C941 C947 1.390 . S
C942 H933 0.930 . S
C942 C940 1.384 . S
C942 C943 1.372 . S
C943 C942 1.372 . S
C943 C944 1.400 . S
C943 C948 1.490 . S
C944 H934 0.930 . S
C944 C943 1.400 . S
C944 C947 1.386 . S
H945 C961 0.930 . S
H946 C962 0.931 . S
C947 H935 0.929 . S
C947 C941 1.390 . S
C947 C944 1.386 . S
C948 C943 1.490 . S
C948 C950 1.395 . S
C948 C951 1.403 . S
H949 C955 0.930 . S
C950 H936 0.930 . S
C950 C948 1.395 . S
C950 C953 1.403 . S
C951 C948 1.403 . S
C951 C952 1.524 . S
C951 C955 1.400 . S
C952 H937 0.960 . S
C952 H938 0.960 . S
C952 H939 0.960 . S
C952 C951 1.524 . S
C953 C950 1.403 . S
C953 C954 1.392 . S
C953 C957 1.495 . S
C954 C953 1.392 . S
C954 C955 1.385 . S
C954 C956 1.478 . S
C955 H949 0.930 . S
C955 C951 1.400 . S
C955 C954 1.385 . S
C956 C954 1.478 . S
C956 C958 1.381 . S
C956 C962 1.383 . S
C957 C953 1.495 . S
C957 H963 0.959 . S
C957 H964 0.961 . S
C957 H965 0.960 . S
C958 C956 1.381 . S
C958 C959 1.394 . S
C958 H966 0.930 . S
C959 C958 1.394 . S
C959 C960 1.383 . S
C959 H967 0.929 . S
C960 C959 1.383 . S
C960 C961 1.377 . S
C961 H945 0.930 . S
C961 C960 1.377 . S
C961 C962 1.379 . S
C962 H946 0.931 . S
C962 C956 1.383 . S
C962 C961 1.379 . S
H963 C957 0.959 . S
H964 C957 0.961 . S
H965 C957 0.960 . S
H966 C958 0.930 . S
H967 C959 0.929 . S
H968 C976 0.929 . S
H969 C978 0.930 . S
H970 C980 0.930 . S
H971 C983 0.929 . S
H972 C986 0.930 . S
H973 C988 0.960 . S
H974 C988 0.960 . S
H975 C988 0.960 . S
C976 H968 0.929 . S
C976 C977 1.377 . S
C976 C978 1.384 . S
C977 C976 1.377 . S
C977 C983 1.390 . S
C978 H969 0.930 . S
C978 C976 1.384 . S
C978 C979 1.372 . S
C979 C978 1.372 . S
C979 C980 1.400 . S
C979 C984 1.490 . S
C980 H970 0.930 . S
C980 C979 1.400 . S
C980 C983 1.386 . S
H981 C997 0.930 . S
H982 C998 0.931 . S
C983 H971 0.929 . S
C983 C977 1.390 . S
C983 C980 1.386 . S
C984 C979 1.490 . S
C984 C986 1.395 . S
C984 C987 1.403 . S
H985 C991 0.930 . S
C986 H972 0.930 . S
C986 C984 1.395 . S
C986 C989 1.403 . S
C987 C984 1.403 . S
C987 C988 1.524 . S
C987 C991 1.400 . S
C988 H973 0.960 . S
C988 H974 0.960 . S
C988 H975 0.960 . S
C988 C987 1.524 . S
C989 C986 1.403 . S
C989 C990 1.392 . S
C989 C993 1.495 . S
C990 C989 1.392 . S
C990 C991 1.385 . S
C990 C992 1.478 . S
C991 H985 0.930 . S
C991 C987 1.400 . S
C991 C990 1.385 . S
C992 C990 1.478 . S
C992 C994 1.381 . S
C992 C998 1.383 . S
C993 C989 1.495 . S
C993 H999 0.959 . S
C993 H1000 0.961 . S
C993 H1001 0.960 . S
C994 C992 1.381 . S
C994 C995 1.394 . S
C994 H1002 0.930 . S
C995 C994 1.394 . S
C995 C996 1.383 . S
C995 H1003 0.929 . S
C996 C995 1.383 . S
C996 C997 1.377 . S
C997 H981 0.930 . S
C997 C996 1.377 . S
C997 C998 1.379 . S
C998 H982 0.931 . S
C998 C992 1.383 . S
C998 C997 1.379 . S
H999 C993 0.959 . S
H1000 C993 0.961 . S
H1001 C993 0.960 . S
H1002 C994 0.930 . S
H1003 C995 0.929 . S
H1004 C1012 0.929 . S
H1005 C1014 0.930 . S
H1006 C1016 0.930 . S
H1007 C1019 0.929 . S
H1008 C1022 0.930 . S
H1009 C1024 0.960 . S
H1010 C1024 0.960 . S
H1011 C1024 0.960 . S
C1012 H1004 0.929 . S
C1012 C1013 1.377 . S
C1012 C1014 1.384 . S
C1013 C1012 1.377 . S
C1013 C1019 1.390 . S
C1014 H1005 0.930 . S
C1014 C1012 1.384 . S
C1014 C1015 1.372 . S
C1015 C1014 1.372 . S
C1015 C1016 1.400 . S
C1015 C1020 1.490 . S
C1016 H1006 0.930 . S
C1016 C1015 1.400 . S
C1016 C1019 1.386 . S
H1017 C1033 0.930 . S
H1018 C1034 0.931 . S
C1019 H1007 0.929 . S
C1019 C1013 1.390 . S
C1019 C1016 1.386 . S
C1020 C1015 1.490 . S
C1020 C1022 1.395 . S
C1020 C1023 1.403 . S
H1021 C1027 0.930 1_455 S
C1022 H1008 0.930 . S
C1022 C1020 1.395 . S
C1022 C1025 1.403 . S
C1023 C1020 1.403 . S
C1023 C1024 1.524 . S
C1023 C1027 1.400 . S
C1024 H1009 0.960 . S
C1024 H1010 0.960 . S
C1024 H1011 0.960 . S
C1024 C1023 1.524 . S
C1025 C1022 1.403 . S
C1025 C1026 1.392 . S
C1025 C1029 1.495 . S
C1026 C1025 1.392 . S
C1026 C1027 1.385 . S
C1026 C1028 1.478 1_655 S
C1027 H1021 0.930 1_655 S
C1027 C1023 1.400 . S
C1027 C1026 1.385 . S
C1028 C1026 1.478 1_455 S
C1028 C1030 1.381 . S
C1028 C1034 1.383 . S
C1029 C1025 1.495 . S
C1029 H1035 0.959 . S
C1029 H1036 0.937 1_655 S
C1029 H1037 0.960 . S
C1030 C1028 1.381 . S
C1030 C1031 1.394 . S
C1030 H1038 0.930 . S
C1031 C1030 1.394 . S
C1031 C1032 1.383 . S
C1031 H1039 0.929 . S
C1032 C1031 1.383 . S
C1032 C1033 1.377 . S
C1033 H1017 0.930 . S
C1033 C1032 1.377 . S
C1033 C1034 1.379 . S
C1034 H1018 0.931 . S
C1034 C1028 1.383 . S
C1034 C1033 1.379 . S
H1035 C1029 0.959 . S
H1036 C1029 0.937 1_455 S
H1037 C1029 0.960 . S
H1038 C1030 0.930 . S
H1039 C1031 0.929 . S
C185 C7 1.463 . S
C204 C38 1.408 . S
C221 C16 1.375 . S
C240 C8 1.536 1_565 S
C257 C19 1.519 . S
C276 C27 1.351 . S
C293 C41 1.511 . S
C312 C30 1.520 . S
C329 C85 1.505 . S
C348 C49 1.324 . S
C365 C52 1.506 1_556 S
C384 C63 1.505 . S
C401 C73 1.505 . S
C420 C60 1.280 . S
C437 C82 1.341 . S
C456 C74 1.559 . S
C473 C126 1.386 . S
C492 C95 1.474 . S
C509 C96 1.536 . S
C528 C104 1.406 . S
C545 C115 1.330 . S
C564 C107 1.523 . S
C581 C118 1.515 . S
C600 C129 1.517 . S
C617 C137 1.298 . S
C636 C173 1.516 . S
C653 C151 1.495 . S
C672 C140 1.489 . S
C689 C148 1.284 . S
C708 C161 1.489 . S
C725 C162 1.559 . S
C744 C170 1.380 . S
C761 C51 1.484 . S
C780 C5 1.253 . S
C797 C150 1.475 . S
C816 C18 1.511 . S
C833 C29 1.513 . S
C852 C71 1.396 . S
C869 C172 1.480 . S
C888 C40 1.479 . S
C905 C106 1.493 . S
C924 C62 1.443 . S
C941 C84 1.484 . S
C960 C128 1.505 . S
C977 C139 1.483 . S
C996 C93 1.237 . S
C1013 C117 1.512 . S
C1032 C159 1.408 . S
