# Generated by pormake.
# Topology zfu, (5)-cn, num edge types: 1
# Building blocks:
#     Node 0, Type 0, BuildingBlock: BEQFEK_clean_sbu_0, # of connection points: 5
#     Node 1, Type 0, BuildingBlock: BEQFEK_clean_sbu_0, # of connection points: 5
#     Node 2, Type 0, BuildingBlock: BEQFEK_clean_sbu_0, # of connection points: 5
#     Node 3, Type 0, BuildingBlock: BEQFEK_clean_sbu_0, # of connection points: 5
#     Node 4, Type 0, BuildingBlock: BEQFEK_clean_sbu_0, # of connection points: 5
#     Node 5, Type 0, BuildingBlock: BEQFEK_clean_sbu_0, # of connection points: 5
#     Node 6, Type 0, BuildingBlock: BEQFEK_clean_sbu_0, # of connection points: 5
#     Node 7, Type 0, BuildingBlock: BEQFEK_clean_sbu_0, # of connection points: 5
#     Edge 8, Type (0, 0), BuildingBlock: EZIPEK_clean_linker_0, # of connection points: 2
#     Edge 9, Type (0, 0), BuildingBlock: EZIPEK_clean_linker_0, # of connection points: 2
#     Edge 10, Type (0, 0), BuildingBlock: EZIPEK_clean_linker_0, # of connection points: 2
#     Edge 11, Type (0, 0), BuildingBlock: EZIPEK_clean_linker_0, # of connection points: 2
#     Edge 12, Type (0, 0), BuildingBlock: EZIPEK_clean_linker_0, # of connection points: 2
#     Edge 13, Type (0, 0), BuildingBlock: EZIPEK_clean_linker_0, # of connection points: 2
#     Edge 14, Type (0, 0), BuildingBlock: EZIPEK_clean_linker_0, # of connection points: 2
#     Edge 15, Type (0, 0), BuildingBlock: EZIPEK_clean_linker_0, # of connection points: 2
#     Edge 16, Type (0, 0), BuildingBlock: EZIPEK_clean_linker_0, # of connection points: 2
#     Edge 17, Type (0, 0), BuildingBlock: EZIPEK_clean_linker_0, # of connection points: 2
#     Edge 18, Type (0, 0), BuildingBlock: EZIPEK_clean_linker_0, # of connection points: 2
#     Edge 19, Type (0, 0), BuildingBlock: EZIPEK_clean_linker_0, # of connection points: 2
#     Edge 20, Type (0, 0), BuildingBlock: EZIPEK_clean_linker_0, # of connection points: 2
#     Edge 21, Type (0, 0), BuildingBlock: EZIPEK_clean_linker_0, # of connection points: 2
#     Edge 22, Type (0, 0), BuildingBlock: EZIPEK_clean_linker_0, # of connection points: 2
#     Edge 23, Type (0, 0), BuildingBlock: EZIPEK_clean_linker_0, # of connection points: 2
#     Edge 24, Type (0, 0), BuildingBlock: EZIPEK_clean_linker_0, # of connection points: 2
#     Edge 25, Type (0, 0), BuildingBlock: EZIPEK_clean_linker_0, # of connection points: 2
#     Edge 26, Type (0, 0), BuildingBlock: EZIPEK_clean_linker_0, # of connection points: 2
#     Edge 27, Type (0, 0), BuildingBlock: EZIPEK_clean_linker_0, # of connection points: 2
# Relax obj value: 0.069
# Max RMSD: 0.103
# Mean RMSD: 0.103
data_MOF--net-zfu--node1-BEQFEK_clean_sbu_0--edge1-EZIPEK_clean_linker_0
_symmetry_space_group_name_H-M    P1
_symmetry_Int_Tables_number       1
_symmetry_cell_setting            triclinic
loop_
_symmetry_equiv_pos_as_xyz
'x, y, z'
_cell_length_a     31.94957
_cell_length_b     31.961227
_cell_length_c     20.064169
_cell_angle_alpha  90.020128
_cell_angle_beta   89.996751
_cell_angle_gamma 90.050367
loop_
_atom_site_label
_atom_site_type_symbol
_atom_site_fract_x
_atom_site_fract_y
_atom_site_fract_z
_atom_type_partial_charge
Co0 Co 0.44869 0.6957 0.08173 0.0
Co1 Co 0.39262 0.77682 0.07177 0.0
C2 C 0.48135 0.78137 0.11649 0.0
O3 O 0.48496 0.74199 0.11073 0.0
O4 O 0.44769 0.80015 0.10065 0.0
C5 C 0.52341 0.64546 0.0847 0.0
O6 O 0.53999 0.67873 0.11257 0.0
C7 C 0.36579 0.85476 0.00846 0.0
C8 C 0.30255 0.86429 0.05021 0.0
C9 C 0.33158 0.88119 1.00661 0.0
N10 N 0.35749 0.82338 0.05109 0.0
N11 N 0.3197 0.82938 0.07619 0.0
C12 C 0.40545 0.859 0.96958 0.0
H13 H 0.42438 0.88482 0.99108 0.0
H14 H 0.42383 0.82957 0.97153 0.0
H15 H 0.39828 0.86726 0.91707 0.0
C16 C 0.41644 0.68369 0.94601 0.0
N17 N 0.42139 0.70767 1.00064 0.0
N18 N 0.39693 0.74069 0.9962 0.0
C19 C 0.37513 0.73823 0.93864 0.0
C20 C 0.38694 0.70221 0.90504 0.0
C21 C 0.43642 0.6418 0.93654 0.0
H22 H 0.47094 0.64521 0.93936 0.0
H23 H 0.42787 0.62773 0.88782 0.0
H24 H 0.42642 0.6206 0.97734 0.0
O25 O 0.40619 0.68636 0.15211 0.0
O26 O 0.36778 0.74475 0.14778 0.0
H27 H 0.32059 0.7532 0.87928 0.0
H28 H 0.35372 0.7966 0.9009 0.0
C29 C 0.3402 0.76687 0.91942 0.0
H30 H 0.32028 0.77361 0.96333 0.0
H31 H 0.30541 0.80939 0.11046 0.0
O32 O 0.48475 0.64528 0.06945 0.0
C33 C 0.37636 0.70923 0.17355 0.0
Co34 Co 0.81695 0.94703 0.33304 0.0
Co35 Co 0.7334 0.89483 0.32117 0.0
C36 C 0.73232 0.98344 0.36557 0.0
O37 O 0.77191 0.98537 0.36069 0.0
O38 O 0.71217 0.95065 0.34921 0.0
C39 C 0.86618 0.01525 0.29041 0.0
O40 O 0.83304 0.02091 0.25267 0.0
C41 C 0.65388 0.86964 0.25974 0.0
C42 C 0.64469 0.80596 0.29991 0.0
C43 C 0.6273 0.83547 0.25774 0.0
N44 N 0.68581 0.86081 0.30106 0.0
N45 N 0.67994 0.82279 0.32533 0.0
C46 C 0.64946 0.90961 0.22177 0.0
H47 H 0.62477 0.92895 0.24546 0.0
H48 H 0.67936 0.92733 0.22194 0.0
H49 H 0.63954 0.90299 0.16979 0.0
C50 C 0.82936 0.91164 0.19777 0.0
N51 N 0.80512 0.91925 0.25143 0.0
N52 N 0.77017 0.89756 0.24602 0.0
C53 C 0.77121 0.87575 0.18833 0.0
C54 C 0.80852 0.88423 0.15595 0.0
C55 C 0.87385 0.92534 0.19123 0.0
H56 H 0.89082 0.91695 0.23751 0.0
H57 H 0.87497 0.95972 0.18467 0.0
H58 H 0.88954 0.91052 0.14792 0.0
O59 O 0.82359 0.90517 0.40437 0.0
O60 O 0.76369 0.86923 0.39841 0.0
H61 H 0.73278 0.82267 0.21078 0.0
H62 H 0.75126 0.82425 0.12574 0.0
C63 C 0.73984 0.84348 0.16807 0.0
H64 H 0.71071 0.85942 0.15241 0.0
H65 H 0.70038 0.80805 0.35838 0.0
O66 O 0.86769 0.98323 0.32795 0.0
C67 C 0.79926 0.87636 0.42507 0.0
Co68 Co 0.56426 0.31713 0.584 0.0
Co69 Co 0.61644 0.23362 0.573 0.0
C70 C 0.52744 0.23254 0.61586 0.0
O71 O 0.5257 0.27212 0.61099 0.0
O72 O 0.56027 0.21232 0.6 0.0
C73 C 0.49629 0.36636 0.54073 0.0
O74 O 0.49046 0.33309 0.50333 0.0
C75 C 0.64307 0.1546 0.51133 0.0
C76 C 0.70661 0.14637 0.55267 0.0
C77 C 0.67778 0.12875 0.50947 0.0
N78 N 0.651 0.18637 0.55346 0.0
N79 N 0.68893 0.18105 0.57843 0.0
C80 C 0.60351 0.14976 0.47233 0.0
H81 H 0.58542 0.17939 0.47237 0.0
H82 H 0.61073 0.1401 0.42043 0.0
H83 H 0.58423 0.12474 0.49534 0.0
C84 C 0.60044 0.3295 0.4493 0.0
N85 N 0.59256 0.3053 0.50288 0.0
N86 N 0.61434 0.27042 0.49785 0.0
C87 C 0.63653 0.27152 0.44053 0.0
C88 C 0.62813 0.30874 0.40798 0.0
C89 C 0.58676 0.37393 0.44246 0.0
H90 H 0.55237 0.37498 0.4359 0.0
H91 H 0.60162 0.38951 0.39907 0.0
H92 H 0.59521 0.39101 0.48863 0.0
O93 O 0.60559 0.3238 0.65608 0.0
O94 O 0.64141 0.2639 0.6508 0.0
H95 H 0.68966 0.23352 0.46411 0.0
H96 H 0.68877 0.25209 0.37915 0.0
C97 C 0.6692 0.24044 0.42093 0.0
H98 H 0.65364 0.2112 0.40467 0.0
H99 H 0.70308 0.20157 0.61206 0.0
O100 O 0.52828 0.3679 0.57838 0.0
C101 C 0.63416 0.29945 0.67737 0.0
Co102 Co 0.19463 0.06189 0.83032 0.0
Co103 Co 0.27668 0.11684 0.82193 0.0
C104 C 0.27964 0.02743 0.86377 0.0
O105 O 0.24022 0.02442 0.85752 0.0
O106 O 0.29904 0.06104 0.84926 0.0
C107 C 0.14125 0.99024 0.84325 0.0
O108 O 0.17091 0.9769 0.88321 0.0
C109 C 0.355 0.14448 0.75977 0.0
C110 C 0.36393 0.20744 0.80288 0.0
C111 C 0.38112 0.17901 0.75862 0.0
N112 N 0.32352 0.15206 0.80258 0.0
N113 N 0.3292 0.18968 0.82853 0.0
C114 C 0.35947 0.10529 0.71975 0.0
H115 H 0.32999 0.08688 0.7207 0.0
H116 H 0.3681 0.11306 0.6676 0.0
H117 H 0.38511 0.08612 0.74112 0.0
C118 C 0.18305 0.09607 0.69573 0.0
N119 N 0.2069 0.09022 0.75025 0.0
N120 N 0.24044 0.11405 0.74635 0.0
C121 C 0.2385 0.13632 0.68921 0.0
C122 C 0.20228 0.12543 0.65534 0.0
C123 C 0.14075 0.07698 0.68581 0.0
H124 H 0.11988 0.08659 0.72729 0.0
H125 H 0.14353 0.04239 0.68708 0.0
H126 H 0.12666 0.08661 0.63764 0.0
O127 O 0.18622 0.10303 0.9029 0.0
O128 O 0.24512 0.14081 0.89907 0.0
H129 H 0.27459 0.19055 0.71492 0.0
H130 H 0.2547 0.19083 0.63058 0.0
C131 C 0.26783 0.17088 0.67071 0.0
H132 H 0.29749 0.15707 0.65249 0.0
H133 H 0.309 0.20351 0.86296 0.0
O134 O 0.14404 0.02637 0.8171 0.0
C135 C 0.20957 0.13237 0.92486 0.0
Co136 Co 0.94577 0.81833 0.7451 0.0
Co137 Co 0.89419 0.73432 0.75705 0.0
C138 C 0.9827 0.73377 0.71157 0.0
O139 O 0.98407 0.77344 0.71564 0.0
O140 O 0.9504 0.71331 0.72957 0.0
C141 C 0.01235 0.86822 0.79139 0.0
O142 O 0.01817 0.83446 0.82756 0.0
C143 C 0.86748 0.65488 0.81852 0.0
C144 C 0.80378 0.64702 0.77759 0.0
C145 C 0.83262 0.62912 0.82039 0.0
N146 N 0.85961 0.68687 0.77676 0.0
N147 N 0.82158 0.68174 0.75205 0.0
C148 C 0.90714 0.64974 0.85714 0.0
H149 H 0.9262 0.62473 0.83373 0.0
H150 H 0.92541 0.6793 0.85725 0.0
H151 H 0.90002 0.63992 0.909 0.0
C152 C 0.91057 0.83029 0.88046 0.0
N153 N 0.91833 0.80601 0.82689 0.0
N154 N 0.89683 0.77095 0.8324 0.0
C155 C 0.87504 0.77193 0.89012 0.0
C156 C 0.88335 0.80931 0.9224 0.0
C157 C 0.92363 0.87501 0.88659 0.0
H158 H 0.91698 0.89123 0.83897 0.0
H159 H 0.95765 0.8766 0.89676 0.0
H160 H 0.90699 0.89121 0.92769 0.0
O161 O 0.90334 0.82559 0.67518 0.0
O162 O 0.86841 0.76509 0.68006 0.0
H163 H 0.82178 0.73378 0.86743 0.0
H164 H 0.82338 0.75212 0.95251 0.0
C165 C 0.8426 0.74066 0.91022 0.0
H166 H 0.85834 0.71142 0.92585 0.0
H167 H 0.80742 0.7024 0.71872 0.0
O168 O 0.9814 0.86948 0.75162 0.0
C169 C 0.87498 0.80093 0.65392 0.0
Co170 Co 0.69304 0.44634 0.99819 0.0
Co171 Co 0.7769 0.3944 0.00816 0.0
C172 C 0.7772 0.48321 0.96301 0.0
O173 O 0.73761 0.48507 0.96874 0.0
O174 O 0.79749 0.45046 0.97916 0.0
C175 C 0.64324 0.51411 0.04005 0.0
O176 O 0.67804 0.52257 0.07226 0.0
C177 C 0.85655 0.36853 0.06939 0.0
C178 C 0.8653 0.30517 0.02769 0.0
C179 C 0.88277 0.33408 0.0709 0.0
N180 N 0.82472 0.36037 0.02743 0.0
N181 N 0.83037 0.32256 1.00224 0.0
C182 C 0.86114 0.40806 0.10852 0.0
H183 H 0.8864 0.42729 0.08609 0.0
H184 H 0.83152 0.4262 0.10794 0.0
H185 H 0.87037 0.40079 0.16059 0.0
C186 C 0.68239 0.41186 0.13414 0.0
N187 N 0.70607 0.41917 0.07977 0.0
N188 N 0.74087 0.39721 0.08422 0.0
C189 C 0.74015 0.3753 0.14182 0.0
C190 C 0.70331 0.38417 0.17525 0.0
C191 C 0.63816 0.42604 0.14202 0.0
H192 H 0.62035 0.41713 0.09677 0.0
H193 H 0.63753 0.46051 0.14737 0.0
H194 H 0.62302 0.41198 0.18647 0.0
O195 O 0.68571 0.40381 0.92806 0.0
O196 O 0.74572 0.36813 0.93228 0.0
H197 H 0.77779 0.32207 0.11721 0.0
H198 H 0.75927 0.32255 0.20224 0.0
C199 C 0.77102 0.34229 0.16075 0.0
H200 H 0.80037 0.35755 0.17722 0.0
H201 H 0.80992 0.30826 0.96867 0.0
O202 O 0.64131 0.48111 1.00481 0.0
C203 C 0.70984 0.3751 0.90656 0.0
Co204 Co 0.06322 0.19347 0.24653 0.0
Co205 Co 0.11716 0.27605 0.25768 0.0
C206 C 0.02836 0.27858 0.21309 0.0
O207 O 0.02566 0.23907 0.21848 0.0
O208 O 0.06161 0.29812 0.2291 0.0
C209 C 0.99468 0.14434 0.2898 0.0
O210 O 0.98923 0.1772 0.32823 0.0
C211 C 0.14361 0.35515 0.31989 0.0
C212 C 0.20752 0.3634 0.28011 0.0
C213 C 0.17828 0.38112 0.32246 0.0
N214 N 0.15193 0.32326 0.27816 0.0
N215 N 0.19011 0.32859 0.25414 0.0
C216 C 0.10365 0.36007 0.35779 0.0
H217 H 0.08551 0.33043 0.35745 0.0
H218 H 0.11033 0.36984 0.40982 0.0
H219 H 0.08464 0.38503 0.33414 0.0
C220 C 0.09852 0.18068 0.38158 0.0
N221 N 0.09116 0.20506 0.32804 0.0
N222 N 0.11349 0.23963 0.3333 0.0
C223 C 0.13538 0.23821 0.3909 0.0
C224 C 0.12631 0.20106 0.42326 0.0
C225 C 0.08476 0.1362 0.38763 0.0
H226 H 0.05042 0.13508 0.39477 0.0
H227 H 0.09986 0.12022 0.43041 0.0
H228 H 0.09288 0.11952 0.34096 0.0
O229 O 0.10522 0.18561 0.17593 0.0
O230 O 0.14269 0.24457 0.18101 0.0
H231 H 0.18751 0.25703 0.45309 0.0
H232 H 0.15332 0.29839 0.4265 0.0
C233 C 0.16847 0.26883 0.41084 0.0
H234 H 0.18936 0.27529 0.36797 0.0
H235 H 0.20458 0.30805 0.22091 0.0
O236 O 0.02646 0.14313 0.25169 0.0
C237 C 0.1346 0.20905 0.15468 0.0
Co238 Co 0.31823 0.56289 0.49468 0.0
Co239 Co 0.23516 0.61593 0.50943 0.0
C240 C 0.23244 0.52729 0.46495 0.0
O241 O 0.27208 0.52516 0.46894 0.0
O242 O 0.21264 0.56027 0.48158 0.0
C243 C 0.36783 0.49514 0.53827 0.0
O244 O 0.33552 0.49042 0.57814 0.0
C245 C 0.15534 0.64374 0.56959 0.0
C246 C 0.15284 0.71004 0.53885 0.0
C247 C 0.13184 0.67998 0.57555 0.0
N248 N 0.18902 0.65198 0.53142 0.0
N249 N 0.18708 0.69163 0.51281 0.0
C250 C 0.14663 0.60245 0.6016 0.0
H251 H 0.17533 0.58291 0.60261 0.0
H252 H 0.13458 0.60711 0.65297 0.0
H253 H 0.12212 0.58594 0.5725 0.0
C254 C 0.33312 0.59882 0.62882 0.0
N255 N 0.308 0.59113 0.57622 0.0
N256 N 0.27283 0.61217 0.58361 0.0
C257 C 0.27441 0.63307 0.64211 0.0
C258 C 0.31251 0.6252 0.67241 0.0
C259 C 0.37806 0.58635 0.63271 0.0
H260 H 0.39338 0.59384 0.58461 0.0
H261 H 0.38017 0.55223 0.64168 0.0
H262 H 0.39468 0.60277 0.67365 0.0
O263 O 0.32466 0.60418 0.42295 0.0
O264 O 0.2654 0.64089 0.43083 0.0
H265 H 0.23629 0.68716 0.62718 0.0
H266 H 0.25183 0.67903 0.71274 0.0
C267 C 0.24209 0.66321 0.666 0.0
H268 H 0.21269 0.64586 0.67551 0.0
H269 H 0.20964 0.70639 0.48342 0.0
O270 O 0.36856 0.52621 0.49871 0.0
C271 C 0.30051 0.63323 0.4029 0.0
C272 C 0.61688 0.58634 0.01595 0.0
C273 C 0.60882 0.54535 0.04007 0.0
C274 C 0.54287 0.56919 0.08967 0.0
C275 C 0.55084 0.6101 0.06541 0.0
N276 N 0.58882 0.65487 0.98984 0.0
N277 N 0.55835 0.49531 0.08093 0.0
C278 C 0.58596 0.6179 0.02389 0.0
C279 C 0.56986 0.53591 0.07064 0.0
N280 N 0.65416 0.59513 0.98549 0.0
N281 N 0.51097 0.56243 0.1338 0.0
H282 H 0.57652 0.47021 0.06533 0.0
H283 H 0.52877 0.48649 0.09764 0.0
H284 H 0.49073 0.58598 0.14969 0.0
H285 H 0.50677 0.53431 0.15916 0.0
H286 H 0.66429 0.62541 0.97505 0.0
H287 H 0.67594 0.57214 0.97289 0.0
H288 H 0.61147 0.6609 0.9538 0.0
H289 H 0.56599 0.67814 0.99263 0.0
C290 C 0.97404 0.06768 0.29239 0.0
C291 C 0.96249 0.11057 0.28831 0.0
C292 C 0.88863 0.09047 0.29662 0.0
C293 C 0.89981 0.04756 0.29203 0.0
N294 N 0.95384 0.99588 0.2733 0.0
N295 N 0.90776 0.16125 0.26785 0.0
C296 C 0.94271 0.03626 0.28661 0.0
C297 C 0.91947 0.12156 0.28507 0.0
N298 N 0.0146 0.0566 0.30444 0.0
N299 N 0.84903 0.10179 0.31506 0.0
H300 H 0.92914 0.18447 0.25453 0.0
H301 H 0.87673 0.16961 0.25899 0.0
H302 H 0.82604 0.08017 0.32837 0.0
H303 H 0.84059 0.13268 0.3249 0.0
H304 H 0.02367 0.02617 0.31614 0.0
H305 H 0.03873 0.07816 0.30881 0.0
H306 H 0.98421 0.98706 0.26063 0.0
H307 H 0.93233 0.9717 0.26889 0.0
C308 C 0.47568 0.44288 0.53529 0.0
C309 C 0.46416 0.4001 0.54192 0.0
C310 C 0.39019 0.4199 0.53519 0.0
C311 C 0.40144 0.46288 0.53694 0.0
N312 N 0.45571 0.51508 0.55025 0.0
N313 N 0.4098 0.34969 0.56653 0.0
C314 C 0.44441 0.47437 0.54007 0.0
C315 C 0.42121 0.38909 0.54713 0.0
N316 N 0.51614 0.45372 0.52179 0.0
N317 N 0.35028 0.40818 0.51907 0.0
H318 H 0.4314 0.32675 0.58 0.0
H319 H 0.37892 0.3414 0.57692 0.0
H320 H 0.32707 0.42951 0.50574 0.0
H321 H 0.34166 0.37711 0.51119 0.0
H322 H 0.52514 0.48384 0.50798 0.0
H323 H 0.54029 0.43214 0.51865 0.0
H324 H 0.48619 0.52427 0.56158 0.0
H325 H 0.43432 0.53939 0.55314 0.0
C326 C 0.03298 0.94294 0.81636 0.0
C327 C 0.04404 0.90232 0.79353 0.0
C328 C 0.11792 0.92354 0.78952 0.0
C329 C 0.1074 0.96128 0.82277 0.0
N330 N 0.05558 0.00599 0.87322 0.0
N331 N 0.09683 0.85384 0.75556 0.0
C332 C 0.06505 0.97101 0.83698 0.0
C333 C 0.08652 0.89264 0.77922 0.0
N334 N 0.992 0.955 0.8178 0.0
N335 N 0.15759 0.91804 0.7653 0.0
H336 H 0.07455 0.83197 0.74025 0.0
H337 H 0.1274 0.84269 0.75315 0.0
H338 H 0.18114 0.94044 0.77044 0.0
H339 H 0.16634 0.89317 0.73485 0.0
H340 H 0.98242 0.98548 0.82784 0.0
H341 H 0.96769 0.93586 0.80187 0.0
H342 H 0.02588 0.01214 0.89219 0.0
H343 H 0.07814 0.02734 0.88926 0.0
C344 C 0.30929 0.63729 0.27927 0.0
C345 C 0.31304 0.65672 0.34261 0.0
C346 C 0.3548 0.71334 0.29391 0.0
C347 C 0.35125 0.69378 0.23053 0.0
N348 N 0.31782 0.64313 0.15933 0.0
N349 N 0.33112 0.71684 0.40892 0.0
C350 C 0.32619 0.65752 0.22216 0.0
C351 C 0.33295 0.69612 0.34936 0.0
N352 N 0.29047 0.59896 0.27416 0.0
N353 N 0.38099 0.74685 0.30187 0.0
H354 H 0.31616 0.70452 0.45078 0.0
H355 H 0.34134 0.74749 0.41555 0.0
H356 H 0.39739 0.76046 0.26252 0.0
H357 H 0.38879 0.75955 0.34799 0.0
H358 H 0.29123 0.58064 0.23129 0.0
H359 H 0.27559 0.58435 0.31421 0.0
H360 H 0.29658 0.61928 0.14907 0.0
H361 H 0.32948 0.65753 0.11649 0.0
C362 C 0.83378 0.81425 0.47717 0.0
C363 C 0.81198 0.85254 0.48477 0.0
C364 C 0.82213 0.84966 0.60575 0.0
C365 C 0.84918 0.81496 0.59697 0.0
N366 N 0.88271 0.7646 0.52508 0.0
N367 N 0.78518 0.9077 0.55469 0.0
C368 C 0.85503 0.79684 0.53301 0.0
C369 C 0.80571 0.87034 0.54877 0.0
N370 N 0.8342 0.79475 0.41651 0.0
N371 N 0.81168 0.86223 0.66876 0.0
H372 H 0.77104 0.92273 0.51441 0.0
H373 H 0.7839 0.92497 0.59863 0.0
H374 H 0.82299 0.84736 0.71142 0.0
H375 H 0.78912 0.8848 0.67903 0.0
H376 H 0.84602 0.7648 0.40886 0.0
H377 H 0.81954 0.80725 0.37452 0.0
H378 H 0.89216 0.75321 0.47888 0.0
H379 H 0.89845 0.75069 0.56483 0.0
C380 C 0.65948 0.32371 0.85816 0.0
C381 C 0.69524 0.34946 0.8497 0.0
C382 C 0.69679 0.33259 0.7304 0.0
C383 C 0.65766 0.31219 0.73742 0.0
N384 N 0.60075 0.28811 0.80639 0.0
N385 N 0.74734 0.38069 0.77817 0.0
C386 C 0.63887 0.30735 0.80102 0.0
C387 C 0.71423 0.354 0.78608 0.0
N388 N 0.64589 0.31429 0.92104 0.0
N389 N 0.71706 0.3316 0.6704 0.0
H390 H 0.76119 0.39666 0.81773 0.0
H391 H 0.75947 0.38923 0.73199 0.0
H392 H 0.70457 0.31693 0.62839 0.0
H393 H 0.74756 0.34222 0.66347 0.0
H394 H 0.62242 0.29261 0.93118 0.0
H395 H 0.6607 0.32549 0.96386 0.0
H396 H 0.58291 0.28801 0.84979 0.0
H397 H 0.58576 0.27387 0.76611 0.0
C398 C 0.19968 0.13608 0.04836 0.0
C399 C 0.19587 0.15538 0.98496 0.0
C400 C 0.15599 0.21316 0.0342 0.0
C401 C 0.15979 0.19383 0.09766 0.0
N402 N 0.19282 0.1428 0.16844 0.0
N403 N 0.17851 0.21568 0.91857 0.0
C404 C 0.18403 0.15703 0.10569 0.0
C405 C 0.17681 0.19521 0.97834 0.0
N406 N 0.21746 0.09728 0.05342 0.0
N407 N 0.1305 0.24718 0.02658 0.0
H408 H 0.19243 0.20281 0.87624 0.0
H409 H 0.16911 0.24659 0.91208 0.0
H410 H 0.11504 0.26145 0.06628 0.0
H411 H 0.12239 0.25974 0.98051 0.0
H412 H 0.21663 0.07922 0.09655 0.0
H413 H 0.23132 0.08195 0.01314 0.0
H414 H 0.21353 0.11847 0.17837 0.0
H415 H 0.18223 0.15785 0.21141 0.0
C416 C 0.35582 0.68204 0.72455 0.0
C417 C 0.33019 0.64607 0.73222 0.0
C418 C 0.33747 0.65039 0.85357 0.0
C419 C 0.3666 0.68356 0.84548 0.0
N420 N 0.40702 0.72878 0.77412 0.0
N421 N 0.29968 0.59295 0.8022 0.0
C422 C 0.37664 0.69894 0.78116 0.0
C423 C 0.32179 0.62942 0.79628 0.0
N424 N 0.35954 0.70049 0.66333 0.0
N425 N 0.32381 0.63985 0.91596 0.0
H426 H 0.28674 0.57733 0.76144 0.0
H427 H 0.29664 0.57654 0.84676 0.0
H428 H 0.33449 0.65456 0.95915 0.0
H429 H 0.29934 0.61905 0.92479 0.0
H430 H 0.37399 0.72928 0.65563 0.0
H431 H 0.34529 0.6886 0.62055 0.0
H432 H 0.41922 0.73797 0.7283 0.0
H433 H 0.42235 0.74242 0.81458 0.0
C434 C 0.85506 0.83015 0.10376 0.0
C435 C 0.82556 0.86296 0.09606 0.0
C436 C 0.82885 0.85534 0.97466 0.0
C437 C 0.86208 0.82631 0.98232 0.0
N438 N 0.90961 0.78813 0.05292 0.0
N439 N 0.78641 0.90962 0.02536 0.0
C440 C 0.87584 0.81408 0.04658 0.0
C441 C 0.81281 0.87621 0.03178 0.0
N442 N 0.86245 0.81376 0.1656 0.0
N443 N 0.8121 0.86224 0.91292 0.0
H444 H 0.77327 0.92506 0.06611 0.0
H445 H 0.77973 0.92392 0.97999 0.0
H446 H 0.82321 0.84764 0.86992 0.0
H447 H 0.78506 0.87966 0.90484 0.0
H448 H 0.88024 0.78699 0.17376 0.0
H449 H 0.84787 0.82486 0.20864 0.0
H450 H 0.92426 0.7819 0.09818 0.0
H451 H 0.92498 0.77493 0.01214 0.0
C452 C 0.69914 0.37566 0.29932 0.0
C453 C 0.68634 0.36263 0.23493 0.0
C454 C 0.63581 0.31376 0.28389 0.0
C455 C 0.64957 0.3258 0.34827 0.0
N456 N 0.69948 0.36157 0.41814 0.0
N457 N 0.64914 0.31387 0.16486 0.0
C458 C 0.68287 0.35477 0.35625 0.0
C459 C 0.65666 0.32996 0.22689 0.0
N460 N 0.72581 0.40889 0.306 0.0
N461 N 0.60196 0.28786 0.27732 0.0
H462 H 0.66372 0.3251 0.12192 0.0
H463 H 0.63119 0.2872 0.15638 0.0
H464 H 0.58656 0.27454 0.31797 0.0
H465 H 0.5873 0.28178 0.23201 0.0
H466 H 0.73257 0.42308 0.35145 0.0
H467 H 0.73917 0.42427 0.26537 0.0
H468 H 0.72656 0.37893 0.4265 0.0
H469 H 0.68815 0.34699 0.46102 0.0
C470 C 0.18179 0.15587 0.47475 0.0
C471 C 0.1474 0.18348 0.48289 0.0
C472 C 0.15288 0.17728 0.60427 0.0
C473 C 0.18425 0.14631 0.59588 0.0
N474 N 0.22644 0.10293 0.52432 0.0
N475 N 0.0972 0.21791 0.55369 0.0
C476 C 0.19829 0.13483 0.5314 0.0
C477 C 0.13218 0.19361 0.54724 0.0
N478 N 0.19911 0.15043 0.41302 0.0
N479 N 0.14374 0.19188 0.66668 0.0
H480 H 0.08192 0.23142 0.51309 0.0
H481 H 0.08157 0.22244 0.59864 0.0
H482 H 0.15812 0.18054 0.7097 0.0
H483 H 0.1245 0.21753 0.67565 0.0
H484 H 0.2269 0.13429 0.40468 0.0
H485 H 0.18745 0.16486 0.37026 0.0
H486 H 0.23441 0.08977 0.4786 0.0
H487 H 0.23987 0.08747 0.56479 0.0
C488 C 0.305 0.91484 0.9018 0.0
C489 C 0.32529 0.91871 0.96439 0.0
C490 C 0.32172 0.99513 0.95667 0.0
C491 C 0.30199 0.99129 0.8934 0.0
N492 N 0.28448 0.94862 0.79855 0.0
N493 N 0.3621 0.96152 0.04395 0.0
C494 C 0.29684 0.95138 0.86363 0.0
C495 C 0.33689 0.95859 0.98911 0.0
N496 N 0.29203 0.87642 0.88004 0.0
N497 N 0.32319 0.03303 0.98825 0.0
H498 H 0.37291 0.93536 0.06982 0.0
H499 H 0.37524 0.98956 0.06021 0.0
H500 H 0.31219 0.06068 0.96716 0.0
H501 H 0.33237 0.03664 0.03772 0.0
H502 H 0.27282 0.87209 0.8387 0.0
H503 H 0.29805 0.84889 0.90611 0.0
H504 H 0.28364 0.92066 0.77192 0.0
H505 H 0.27897 0.975 0.76918 0.0
C506 C 0.51335 0.82537 0.20766 0.0
C507 C 0.51727 0.80461 0.14524 0.0
C508 C 0.59371 0.80828 0.15328 0.0
C509 C 0.58981 0.82913 0.2154 0.0
N510 N 0.54701 0.86665 0.294 0.0
N511 N 0.5599 0.78658 0.05063 0.0
C512 C 0.54991 0.84092 0.23977 0.0
C513 C 0.55716 0.7995 0.11545 0.0
N514 N 0.47532 0.82756 0.23871 0.0
N515 N 0.63215 0.79534 0.13167 0.0
H516 H 0.53349 0.78066 0.02146 0.0
H517 H 0.58782 0.78574 0.0239 0.0
H518 H 0.65971 0.80186 0.15739 0.0
H519 H 0.6365 0.77572 0.09083 0.0
H520 H 0.47152 0.83746 0.28778 0.0
H521 H 0.44764 0.81672 0.21741 0.0
H522 H 0.51899 0.87991 0.31002 0.0
H523 H 0.5732 0.87772 0.3196 0.0
C524 C 0.6887 0.01533 0.45712 0.0
C525 C 0.71035 0.01973 0.39554 0.0
C526 C 0.70751 0.09608 0.40597 0.0
C527 C 0.68512 0.09166 0.46666 0.0
N528 N 0.6459 0.04816 0.54223 0.0
N529 N 0.73102 0.06337 0.30346 0.0
C530 C 0.67267 0.05158 0.48937 0.0
C531 C 0.71672 0.05993 0.36745 0.0
N532 N 0.68614 0.97711 0.48751 0.0
N533 N 0.72127 0.13465 0.38629 0.0
H534 H 0.73726 0.03733 0.27367 0.0
H535 H 0.73284 0.09163 0.27781 0.0
H536 H 0.71425 0.16199 0.41226 0.0
H537 H 0.742 0.13928 0.34693 0.0
H538 H 0.67541 0.97301 0.53608 0.0
H539 H 0.69782 0.94966 0.46668 0.0
H540 H 0.63212 0.02003 0.5566 0.0
H541 H 0.63457 0.07404 0.56825 0.0
C542 C 0.45079 0.21731 0.61709 0.0
C543 C 0.49088 0.21077 0.64554 0.0
C544 C 0.45839 0.17365 0.73943 0.0
C545 C 0.41846 0.18624 0.71627 0.0
N546 N 0.37598 0.22233 0.63527 0.0
N547 N 0.53299 0.18674 0.7382 0.0
C548 C 0.41441 0.20844 0.65537 0.0
C549 C 0.49489 0.18935 0.70738 0.0
N550 N 0.44766 0.23147 0.553 0.0
N551 N 0.46145 0.14702 0.79248 0.0
H552 H 0.56061 0.19821 0.71756 0.0
H553 H 0.53682 0.17618 0.78691 0.0
H554 H 0.43538 0.13588 0.8183 0.0
H555 H 0.48944 0.13314 0.80719 0.0
H556 H 0.41949 0.23343 0.52711 0.0
H557 H 0.47386 0.23746 0.5234 0.0
H558 H 0.37162 0.24292 0.59567 0.0
H559 H 0.3485 0.21557 0.6611 0.0
C560 C 0.83742 0.55182 0.84003 0.0
C561 C 0.82506 0.59188 0.86293 0.0
C562 C 0.79273 0.55987 0.96142 0.0
C563 C 0.79909 0.51971 0.93312 0.0
N564 N 0.82395 0.4773 0.84137 0.0
N565 N 0.78889 0.63472 0.94338 0.0
C566 C 0.82115 0.51548 0.87185 0.0
C567 C 0.80239 0.59615 0.92339 0.0
N568 N 0.86438 0.5485 0.78739 0.0
N569 N 0.77816 0.56319 0.02528 0.0
H570 H 0.79646 0.66216 0.91805 0.0
H571 H 0.76792 0.63932 0.98244 0.0
H572 H 0.77174 0.5371 0.05485 0.0
H573 H 0.77636 0.59138 0.05114 0.0
H574 H 0.87814 0.52041 0.77291 0.0
H575 H 0.87586 0.57444 0.76166 0.0
H576 H 0.83495 0.47325 0.79295 0.0
H577 H 0.81226 0.4498 0.86203 0.0
C578 C 0.95202 0.29505 0.21237 0.0
C579 C 0.99216 0.30117 0.18384 0.0
C580 C 0.96005 0.33927 0.09063 0.0
C581 C 0.91999 0.32687 0.11359 0.0
N582 N 0.87719 0.29075 0.19426 0.0
N583 N 0.03456 0.32576 0.09186 0.0
C584 C 0.91573 0.30444 0.17426 0.0
C585 C 0.9964 0.32308 0.12246 0.0
N586 N 0.94875 0.28079 0.2764 0.0
N587 N 0.96334 0.36615 0.03792 0.0
H588 H 0.06208 0.31416 0.11254 0.0
H589 H 0.03857 0.33665 0.04337 0.0
H590 H 0.93735 0.37763 0.01233 0.0
H591 H 0.99145 0.37986 0.0233 0.0
H592 H 0.92057 0.27915 0.30234 0.0
H593 H 0.97489 0.27449 0.30593 0.0
H594 H 0.87266 0.27 0.23361 0.0
H595 H 0.84977 0.29784 0.16856 0.0
C596 C 0.18874 0.49494 0.37374 0.0
C597 C 0.21009 0.49092 0.43564 0.0
C598 C 0.20708 0.41444 0.42628 0.0
C599 C 0.18518 0.41849 0.36506 0.0
N600 N 0.1466 0.46158 0.28819 0.0
N601 N 0.23035 0.44781 0.52849 0.0
C602 C 0.17295 0.45847 0.34163 0.0
C603 C 0.21623 0.45085 0.46435 0.0
N604 N 0.18627 0.53304 0.34297 0.0
N605 N 0.22045 0.37595 0.44688 0.0
H606 H 0.23661 0.47404 0.55786 0.0
H607 H 0.23203 0.41973 0.55464 0.0
H608 H 0.21333 0.34845 0.42137 0.0
H609 H 0.24088 0.37147 0.48667 0.0
H610 H 0.17582 0.53693 0.29421 0.0
H611 H 0.19767 0.56062 0.36384 0.0
H612 H 0.13296 0.48961 0.27314 0.0
H613 H 0.13548 0.43553 0.26231 0.0
C614 C 0.09635 0.70459 0.68012 0.0
C615 C 0.09318 0.68704 0.61528 0.0
C616 C 0.01638 0.69047 0.62119 0.0
C617 C 0.01974 0.71191 0.6832 0.0
N618 N 0.06152 0.73714 0.77465 0.0
N619 N 0.05165 0.66254 0.5232 0.0
C620 C 0.05941 0.71789 0.71378 0.0
C621 C 0.05352 0.67908 0.58608 0.0
N622 N 0.13483 0.70822 0.70941 0.0
N623 N 0.97772 0.68179 0.59523 0.0
H624 H 0.0781 0.65258 0.49718 0.0
H625 H 0.02446 0.66007 0.49504 0.0
H626 H 0.94984 0.69207 0.61644 0.0
H627 H 0.97262 0.66254 0.55425 0.0
H628 H 0.13978 0.71714 0.75859 0.0
H629 H 0.16246 0.70029 0.68506 0.0
H630 H 0.08904 0.74746 0.7969 0.0
H631 H 0.03503 0.74368 0.80322 0.0
loop_
_geom_bond_atom_site_label_1
_geom_bond_atom_site_label_2
_geom_bond_distance
_geom_bond_site_symmetry_2
_ccdc_geom_bond_type
Co0 O3 1.970 . S
Co0 N17 1.989 1_554 S
Co0 O25 1.967 . S
Co0 O32 1.920 . S
Co1 O4 1.966 . S
Co1 N10 2.022 . S
Co1 N18 1.993 1_554 S
Co1 O26 1.941 . S
C2 O3 1.258 . S
C2 O4 1.263 . S
O3 Co0 1.970 . S
O3 C2 1.258 . S
O4 Co1 1.966 . S
O4 C2 1.263 . S
C5 O6 1.235 . S
C5 O32 1.289 . S
O6 C5 1.235 . S
C7 C9 1.400 . S
C7 N10 1.351 . S
C7 C12 1.501 . S
C8 C9 1.387 . S
C8 N11 1.341 . S
C9 C7 1.400 . S
C9 C8 1.387 . S
N10 Co1 2.022 . S
N10 C7 1.351 . S
N10 N11 1.365 . S
N11 C8 1.341 . S
N11 N10 1.365 . S
N11 H31 0.862 . S
C12 C7 1.501 . S
C12 H13 0.961 . S
C12 H14 0.961 1_554 S
C12 H15 0.960 . S
H13 C12 0.961 . S
H14 C12 0.961 1_556 S
H15 C12 0.960 . S
C16 N17 1.342 . S
C16 C20 1.401 . S
C16 C21 1.499 . S
N17 Co0 1.989 1_556 S
N17 C16 1.342 . S
N17 N18 1.388 . S
N18 Co1 1.993 1_556 S
N18 N17 1.388 . S
N18 C19 1.346 . S
C19 N18 1.346 . S
C19 C20 1.396 . S
C19 C29 1.510 . S
C20 C16 1.401 . S
C20 C19 1.396 . S
C21 C16 1.499 . S
C21 H22 0.959 . S
C21 H23 0.960 . S
C21 H24 0.961 . S
H22 C21 0.959 . S
H23 C21 0.960 . S
H24 C21 0.961 . S
O25 Co0 1.967 . S
O25 C33 1.258 . S
O26 Co1 1.941 . S
O26 C33 1.266 . S
H27 C29 0.959 . S
H28 C29 0.961 . S
C29 C19 1.510 . S
C29 H27 0.959 . S
C29 H28 0.961 . S
C29 H30 0.960 . S
H30 C29 0.960 . S
H31 N11 0.862 . S
O32 Co0 1.920 . S
O32 C5 1.289 . S
C33 O25 1.258 . S
C33 O26 1.266 . S
Co34 O37 1.970 . S
Co34 N51 1.989 . S
Co34 O59 1.967 . S
Co34 O66 1.920 . S
Co35 O38 1.966 . S
Co35 N44 2.022 . S
Co35 N52 1.993 . S
Co35 O60 1.941 . S
C36 O37 1.258 . S
C36 O38 1.263 . S
O37 Co34 1.970 . S
O37 C36 1.258 . S
O38 Co35 1.966 . S
O38 C36 1.263 . S
C39 O40 1.235 . S
C39 O66 1.289 1_545 S
O40 C39 1.235 . S
C41 C43 1.400 . S
C41 N44 1.351 . S
C41 C46 1.501 . S
C42 C43 1.387 . S
C42 N45 1.341 . S
C43 C41 1.400 . S
C43 C42 1.387 . S
N44 Co35 2.022 . S
N44 C41 1.351 . S
N44 N45 1.365 . S
N45 C42 1.341 . S
N45 N44 1.365 . S
N45 H65 0.862 . S
C46 C41 1.501 . S
C46 H47 0.961 . S
C46 H48 0.961 . S
C46 H49 0.960 . S
H47 C46 0.961 . S
H48 C46 0.961 . S
H49 C46 0.960 . S
C50 N51 1.342 . S
C50 C54 1.401 . S
C50 C55 1.499 . S
N51 Co34 1.989 . S
N51 C50 1.342 . S
N51 N52 1.388 . S
N52 Co35 1.993 . S
N52 N51 1.388 . S
N52 C53 1.346 . S
C53 N52 1.346 . S
C53 C54 1.396 . S
C53 C63 1.510 . S
C54 C50 1.401 . S
C54 C53 1.396 . S
C55 C50 1.499 . S
C55 H56 0.959 . S
C55 H57 0.960 . S
C55 H58 0.961 . S
H56 C55 0.959 . S
H57 C55 0.960 . S
H58 C55 0.961 . S
O59 Co34 1.967 . S
O59 C67 1.258 . S
O60 Co35 1.941 . S
O60 C67 1.266 . S
H61 C63 0.959 . S
H62 C63 0.961 . S
C63 C53 1.510 . S
C63 H61 0.959 . S
C63 H62 0.961 . S
C63 H64 0.960 . S
H64 C63 0.960 . S
H65 N45 0.862 . S
O66 Co34 1.920 . S
O66 C39 1.289 1_565 S
C67 O59 1.258 . S
C67 O60 1.266 . S
Co68 O71 1.970 . S
Co68 N85 1.989 . S
Co68 O93 1.967 . S
Co68 O100 1.920 . S
Co69 O72 1.966 . S
Co69 N78 2.022 . S
Co69 N86 1.993 . S
Co69 O94 1.941 . S
C70 O71 1.258 . S
C70 O72 1.263 . S
O71 Co68 1.970 . S
O71 C70 1.258 . S
O72 Co69 1.966 . S
O72 C70 1.263 . S
C73 O74 1.235 . S
C73 O100 1.289 . S
O74 C73 1.235 . S
C75 C77 1.400 . S
C75 N78 1.351 . S
C75 C80 1.501 . S
C76 C77 1.387 . S
C76 N79 1.341 . S
C77 C75 1.400 . S
C77 C76 1.387 . S
N78 Co69 2.022 . S
N78 C75 1.351 . S
N78 N79 1.365 . S
N79 C76 1.341 . S
N79 N78 1.365 . S
N79 H99 0.862 . S
C80 C75 1.501 . S
C80 H81 0.961 . S
C80 H82 0.961 . S
C80 H83 0.960 . S
H81 C80 0.961 . S
H82 C80 0.961 . S
H83 C80 0.960 . S
C84 N85 1.342 . S
C84 C88 1.401 . S
C84 C89 1.499 . S
N85 Co68 1.989 . S
N85 C84 1.342 . S
N85 N86 1.388 . S
N86 Co69 1.993 . S
N86 N85 1.388 . S
N86 C87 1.346 . S
C87 N86 1.346 . S
C87 C88 1.396 . S
C87 C97 1.510 . S
C88 C84 1.401 . S
C88 C87 1.396 . S
C89 C84 1.499 . S
C89 H90 0.959 . S
C89 H91 0.960 . S
C89 H92 0.961 . S
H90 C89 0.959 . S
H91 C89 0.960 . S
H92 C89 0.961 . S
O93 Co68 1.967 . S
O93 C101 1.258 . S
O94 Co69 1.941 . S
O94 C101 1.266 . S
H95 C97 0.959 . S
H96 C97 0.961 . S
C97 C87 1.510 . S
C97 H95 0.959 . S
C97 H96 0.961 . S
C97 H98 0.960 . S
H98 C97 0.960 . S
H99 N79 0.862 . S
O100 Co68 1.920 . S
O100 C73 1.289 . S
C101 O93 1.258 . S
C101 O94 1.266 . S
Co102 O105 1.970 . S
Co102 N119 1.989 . S
Co102 O127 1.967 . S
Co102 O134 1.920 . S
Co103 O106 1.966 . S
Co103 N112 2.022 . S
Co103 N120 1.993 . S
Co103 O128 1.941 . S
C104 O105 1.258 . S
C104 O106 1.263 . S
O105 Co102 1.970 . S
O105 C104 1.258 . S
O106 Co103 1.966 . S
O106 C104 1.263 . S
C107 O108 1.235 . S
C107 O134 1.289 1_565 S
O108 C107 1.235 . S
C109 C111 1.400 . S
C109 N112 1.351 . S
C109 C114 1.501 . S
C110 C111 1.387 . S
C110 N113 1.341 . S
C111 C109 1.400 . S
C111 C110 1.387 . S
N112 Co103 2.022 . S
N112 C109 1.351 . S
N112 N113 1.365 . S
N113 C110 1.341 . S
N113 N112 1.365 . S
N113 H133 0.862 . S
C114 C109 1.501 . S
C114 H115 0.961 . S
C114 H116 0.961 . S
C114 H117 0.960 . S
H115 C114 0.961 . S
H116 C114 0.961 . S
H117 C114 0.960 . S
C118 N119 1.342 . S
C118 C122 1.401 . S
C118 C123 1.499 . S
N119 Co102 1.989 . S
N119 C118 1.342 . S
N119 N120 1.388 . S
N120 Co103 1.993 . S
N120 N119 1.388 . S
N120 C121 1.346 . S
C121 N120 1.346 . S
C121 C122 1.396 . S
C121 C131 1.510 . S
C122 C118 1.401 . S
C122 C121 1.396 . S
C123 C118 1.499 . S
C123 H124 0.959 . S
C123 H125 0.960 . S
C123 H126 0.961 . S
H124 C123 0.959 . S
H125 C123 0.960 . S
H126 C123 0.961 . S
O127 Co102 1.967 . S
O127 C135 1.258 . S
O128 Co103 1.941 . S
O128 C135 1.266 . S
H129 C131 0.959 . S
H130 C131 0.961 . S
C131 C121 1.510 . S
C131 H129 0.959 . S
C131 H130 0.961 . S
C131 H132 0.960 . S
H132 C131 0.960 . S
H133 N113 0.862 . S
O134 Co102 1.920 . S
O134 C107 1.289 1_545 S
C135 O127 1.258 . S
C135 O128 1.266 . S
Co136 O139 1.970 . S
Co136 N153 1.989 . S
Co136 O161 1.967 . S
Co136 O168 1.920 . S
Co137 O140 1.966 . S
Co137 N146 2.022 . S
Co137 N154 1.993 . S
Co137 O162 1.941 . S
C138 O139 1.258 . S
C138 O140 1.263 . S
O139 Co136 1.970 . S
O139 C138 1.258 . S
O140 Co137 1.966 . S
O140 C138 1.263 . S
C141 O142 1.235 . S
C141 O168 1.289 1_455 S
O142 C141 1.235 . S
C143 C145 1.400 . S
C143 N146 1.351 . S
C143 C148 1.501 . S
C144 C145 1.387 . S
C144 N147 1.341 . S
C145 C143 1.400 . S
C145 C144 1.387 . S
N146 Co137 2.022 . S
N146 C143 1.351 . S
N146 N147 1.365 . S
N147 C144 1.341 . S
N147 N146 1.365 . S
N147 H167 0.862 . S
C148 C143 1.501 . S
C148 H149 0.961 . S
C148 H150 0.961 . S
C148 H151 0.960 . S
H149 C148 0.961 . S
H150 C148 0.961 . S
H151 C148 0.960 . S
C152 N153 1.342 . S
C152 C156 1.401 . S
C152 C157 1.499 . S
N153 Co136 1.989 . S
N153 C152 1.342 . S
N153 N154 1.388 . S
N154 Co137 1.993 . S
N154 N153 1.388 . S
N154 C155 1.346 . S
C155 N154 1.346 . S
C155 C156 1.396 . S
C155 C165 1.510 . S
C156 C152 1.401 . S
C156 C155 1.396 . S
C157 C152 1.499 . S
C157 H158 0.959 . S
C157 H159 0.960 . S
C157 H160 0.961 . S
H158 C157 0.959 . S
H159 C157 0.960 . S
H160 C157 0.961 . S
O161 Co136 1.967 . S
O161 C169 1.258 . S
O162 Co137 1.941 . S
O162 C169 1.266 . S
H163 C165 0.959 . S
H164 C165 0.961 . S
C165 C155 1.510 . S
C165 H163 0.959 . S
C165 H164 0.961 . S
C165 H166 0.960 . S
H166 C165 0.960 . S
H167 N147 0.862 . S
O168 Co136 1.920 . S
O168 C141 1.289 1_655 S
C169 O161 1.258 . S
C169 O162 1.266 . S
Co170 O173 1.970 . S
Co170 N187 1.989 1_556 S
Co170 O195 1.967 . S
Co170 O202 1.920 . S
Co171 O174 1.966 . S
Co171 N180 2.022 1_556 S
Co171 N188 1.993 1_556 S
Co171 O196 1.941 . S
C172 O173 1.258 . S
C172 O174 1.263 . S
O173 Co170 1.970 . S
O173 C172 1.258 . S
O174 Co171 1.966 . S
O174 C172 1.263 . S
C175 O176 1.235 . S
C175 O202 1.289 1_554 S
O176 C175 1.235 . S
C177 C179 1.400 . S
C177 N180 1.351 . S
C177 C182 1.501 . S
C178 C179 1.387 . S
C178 N181 1.341 . S
C179 C177 1.400 . S
C179 C178 1.387 . S
N180 Co171 2.022 1_554 S
N180 C177 1.351 . S
N180 N181 1.365 . S
N181 C178 1.341 . S
N181 N180 1.365 . S
N181 H201 0.862 . S
C182 C177 1.501 . S
C182 H183 0.961 . S
C182 H184 0.961 . S
C182 H185 0.960 . S
H183 C182 0.961 . S
H184 C182 0.961 . S
H185 C182 0.960 . S
C186 N187 1.342 . S
C186 C190 1.401 . S
C186 C191 1.499 . S
N187 Co170 1.989 1_554 S
N187 C186 1.342 . S
N187 N188 1.388 . S
N188 Co171 1.993 1_554 S
N188 N187 1.388 . S
N188 C189 1.346 . S
C189 N188 1.346 . S
C189 C190 1.396 . S
C189 C199 1.510 . S
C190 C186 1.401 . S
C190 C189 1.396 . S
C191 C186 1.499 . S
C191 H192 0.959 . S
C191 H193 0.960 . S
C191 H194 0.961 . S
H192 C191 0.959 . S
H193 C191 0.960 . S
H194 C191 0.961 . S
O195 Co170 1.967 . S
O195 C203 1.258 . S
O196 Co171 1.941 . S
O196 C203 1.266 . S
H197 C199 0.959 . S
H198 C199 0.961 . S
C199 C189 1.510 . S
C199 H197 0.959 . S
C199 H198 0.961 . S
C199 H200 0.960 . S
H200 C199 0.960 . S
H201 N181 0.862 . S
O202 Co170 1.920 . S
O202 C175 1.289 1_556 S
C203 O195 1.258 . S
C203 O196 1.266 . S
Co204 O207 1.970 . S
Co204 N221 1.989 . S
Co204 O229 1.967 . S
Co204 O236 1.920 . S
Co205 O208 1.966 . S
Co205 N214 2.022 . S
Co205 N222 1.993 . S
Co205 O230 1.941 . S
C206 O207 1.258 . S
C206 O208 1.263 . S
O207 Co204 1.970 . S
O207 C206 1.258 . S
O208 Co205 1.966 . S
O208 C206 1.263 . S
C209 O210 1.235 . S
C209 O236 1.289 1_655 S
O210 C209 1.235 . S
C211 C213 1.400 . S
C211 N214 1.351 . S
C211 C216 1.501 . S
C212 C213 1.387 . S
C212 N215 1.341 . S
C213 C211 1.400 . S
C213 C212 1.387 . S
N214 Co205 2.022 . S
N214 C211 1.351 . S
N214 N215 1.365 . S
N215 C212 1.341 . S
N215 N214 1.365 . S
N215 H235 0.862 . S
C216 C211 1.501 . S
C216 H217 0.961 . S
C216 H218 0.961 . S
C216 H219 0.960 . S
H217 C216 0.961 . S
H218 C216 0.961 . S
H219 C216 0.960 . S
C220 N221 1.342 . S
C220 C224 1.401 . S
C220 C225 1.499 . S
N221 Co204 1.989 . S
N221 C220 1.342 . S
N221 N222 1.388 . S
N222 Co205 1.993 . S
N222 N221 1.388 . S
N222 C223 1.346 . S
C223 N222 1.346 . S
C223 C224 1.396 . S
C223 C233 1.510 . S
C224 C220 1.401 . S
C224 C223 1.396 . S
C225 C220 1.499 . S
C225 H226 0.959 . S
C225 H227 0.960 . S
C225 H228 0.961 . S
H226 C225 0.959 . S
H227 C225 0.960 . S
H228 C225 0.961 . S
O229 Co204 1.967 . S
O229 C237 1.258 . S
O230 Co205 1.941 . S
O230 C237 1.266 . S
H231 C233 0.959 . S
H232 C233 0.961 . S
C233 C223 1.510 . S
C233 H231 0.959 . S
C233 H232 0.961 . S
C233 H234 0.960 . S
H234 C233 0.960 . S
H235 N215 0.862 . S
O236 Co204 1.920 . S
O236 C209 1.289 1_455 S
C237 O229 1.258 . S
C237 O230 1.266 . S
Co238 O241 1.970 . S
Co238 N255 1.989 . S
Co238 O263 1.967 . S
Co238 O270 1.920 . S
Co239 O242 1.966 . S
Co239 N248 2.022 . S
Co239 N256 1.993 . S
Co239 O264 1.941 . S
C240 O241 1.258 . S
C240 O242 1.263 . S
O241 Co238 1.970 . S
O241 C240 1.258 . S
O242 Co239 1.966 . S
O242 C240 1.263 . S
C243 O244 1.235 . S
C243 O270 1.289 . S
O244 C243 1.235 . S
C245 C247 1.400 . S
C245 N248 1.351 . S
C245 C250 1.501 . S
C246 C247 1.387 . S
C246 N249 1.341 . S
C247 C245 1.400 . S
C247 C246 1.387 . S
N248 Co239 2.022 . S
N248 C245 1.351 . S
N248 N249 1.365 . S
N249 C246 1.341 . S
N249 N248 1.365 . S
N249 H269 0.862 . S
C250 C245 1.501 . S
C250 H251 0.961 . S
C250 H252 0.961 . S
C250 H253 0.960 . S
H251 C250 0.961 . S
H252 C250 0.961 . S
H253 C250 0.960 . S
C254 N255 1.342 . S
C254 C258 1.401 . S
C254 C259 1.499 . S
N255 Co238 1.989 . S
N255 C254 1.342 . S
N255 N256 1.388 . S
N256 Co239 1.993 . S
N256 N255 1.388 . S
N256 C257 1.346 . S
C257 N256 1.346 . S
C257 C258 1.396 . S
C257 C267 1.510 . S
C258 C254 1.401 . S
C258 C257 1.396 . S
C259 C254 1.499 . S
C259 H260 0.959 . S
C259 H261 0.960 . S
C259 H262 0.961 . S
H260 C259 0.959 . S
H261 C259 0.960 . S
H262 C259 0.961 . S
O263 Co238 1.967 . S
O263 C271 1.258 . S
O264 Co239 1.941 . S
O264 C271 1.266 . S
H265 C267 0.959 . S
H266 C267 0.961 . S
C267 C257 1.510 . S
C267 H265 0.959 . S
C267 H266 0.961 . S
C267 H268 0.960 . S
H268 C267 0.960 . S
H269 N249 0.862 . S
O270 Co238 1.920 . S
O270 C243 1.289 . S
C271 O263 1.258 . S
C271 O264 1.266 . S
C272 C273 1.363 1_556 S
C272 C278 1.379 . S
C272 N280 1.356 . S
C273 C272 1.363 1_554 S
C273 C279 1.363 . S
C274 C275 1.363 . S
C274 C279 1.379 . S
C274 N281 1.356 . S
C275 C274 1.363 . S
C275 C278 1.363 1_554 S
N276 C278 1.356 . S
N276 H288 0.984 . S
N276 H289 0.985 . S
N277 C279 1.356 . S
N277 H282 0.984 . S
N277 H283 0.985 . S
C278 C272 1.379 . S
C278 C275 1.363 1_556 S
C278 N276 1.356 . S
C279 C273 1.363 . S
C279 C274 1.379 . S
C279 N277 1.356 . S
N280 C272 1.356 . S
N280 H286 0.984 . S
N280 H287 0.984 . S
N281 C274 1.356 . S
N281 H284 0.984 . S
N281 H285 0.985 . S
H282 N277 0.984 . S
H283 N277 0.985 . S
H284 N281 0.984 . S
H285 N281 0.985 . S
H286 N280 0.984 . S
H287 N280 0.984 . S
H288 N276 0.984 . S
H289 N276 0.985 . S
C290 C291 1.363 . S
C290 C296 1.379 . S
C290 N298 1.356 1_655 S
C291 C290 1.363 . S
C291 C297 1.363 . S
C292 C293 1.363 . S
C292 C297 1.379 . S
C292 N299 1.356 . S
C293 C292 1.363 . S
C293 C296 1.363 . S
N294 C296 1.356 1_565 S
N294 H306 0.984 . S
N294 H307 0.985 . S
N295 C297 1.356 . S
N295 H300 0.984 . S
N295 H301 0.985 . S
C296 C290 1.379 . S
C296 C293 1.363 . S
C296 N294 1.356 1_545 S
C297 C291 1.363 . S
C297 C292 1.379 . S
C297 N295 1.356 . S
N298 C290 1.356 1_455 S
N298 H304 0.984 . S
N298 H305 0.984 . S
N299 C292 1.356 . S
N299 H302 0.984 . S
N299 H303 0.985 . S
H300 N295 0.984 . S
H301 N295 0.985 . S
H302 N299 0.984 . S
H303 N299 0.985 . S
H304 N298 0.984 . S
H305 N298 0.984 . S
H306 N294 0.984 . S
H307 N294 0.985 . S
C308 C309 1.363 . S
C308 C314 1.379 . S
C308 N316 1.356 . S
C309 C308 1.363 . S
C309 C315 1.363 . S
C310 C311 1.363 . S
C310 C315 1.379 . S
C310 N317 1.356 . S
C311 C310 1.363 . S
C311 C314 1.363 . S
N312 C314 1.356 . S
N312 H324 0.984 . S
N312 H325 0.985 . S
N313 C315 1.356 . S
N313 H318 0.984 . S
N313 H319 0.985 . S
C314 C308 1.379 . S
C314 C311 1.363 . S
C314 N312 1.356 . S
C315 C309 1.363 . S
C315 C310 1.379 . S
C315 N313 1.356 . S
N316 C308 1.356 . S
N316 H322 0.984 . S
N316 H323 0.984 . S
N317 C310 1.356 . S
N317 H320 0.984 . S
N317 H321 0.985 . S
H318 N313 0.984 . S
H319 N313 0.985 . S
H320 N317 0.984 . S
H321 N317 0.985 . S
H322 N316 0.984 . S
H323 N316 0.984 . S
H324 N312 0.984 . S
H325 N312 0.985 . S
C326 C327 1.363 . S
C326 C332 1.379 . S
C326 N334 1.356 1_455 S
C327 C326 1.363 . S
C327 C333 1.363 . S
C328 C329 1.363 . S
C328 C333 1.379 . S
C328 N335 1.356 . S
C329 C328 1.363 . S
C329 C332 1.363 . S
N330 C332 1.356 . S
N330 H342 0.985 1_565 S
N330 H343 0.985 1_565 S
N331 C333 1.356 . S
N331 H336 0.984 . S
N331 H337 0.985 . S
C332 C326 1.379 . S
C332 C329 1.363 . S
C332 N330 1.356 . S
C333 C327 1.363 . S
C333 C328 1.379 . S
C333 N331 1.356 . S
N334 C326 1.356 1_655 S
N334 H340 0.984 . S
N334 H341 0.984 . S
N335 C328 1.356 . S
N335 H338 0.984 . S
N335 H339 0.985 . S
H336 N331 0.984 . S
H337 N331 0.985 . S
H338 N335 0.984 . S
H339 N335 0.985 . S
H340 N334 0.984 . S
H341 N334 0.984 . S
H342 N330 0.985 1_545 S
H343 N330 0.985 1_545 S
C344 C345 1.363 . S
C344 C350 1.379 . S
C344 N352 1.356 . S
C345 C344 1.363 . S
C345 C351 1.363 . S
C346 C347 1.363 . S
C346 C351 1.379 . S
C346 N353 1.356 . S
C347 C346 1.363 . S
C347 C350 1.363 . S
N348 C350 1.356 . S
N348 H360 0.984 . S
N348 H361 0.985 . S
N349 C351 1.356 . S
N349 H354 0.984 . S
N349 H355 0.985 . S
C350 C344 1.379 . S
C350 C347 1.363 . S
C350 N348 1.356 . S
C351 C345 1.363 . S
C351 C346 1.379 . S
C351 N349 1.356 . S
N352 C344 1.356 . S
N352 H358 0.984 . S
N352 H359 0.984 . S
N353 C346 1.356 . S
N353 H356 0.984 . S
N353 H357 0.985 . S
H354 N349 0.984 . S
H355 N349 0.985 . S
H356 N353 0.984 . S
H357 N353 0.985 . S
H358 N352 0.984 . S
H359 N352 0.984 . S
H360 N348 0.984 . S
H361 N348 0.985 . S
C362 C363 1.363 . S
C362 C368 1.379 . S
C362 N370 1.356 . S
C363 C362 1.363 . S
C363 C369 1.363 . S
C364 C365 1.363 . S
C364 C369 1.379 . S
C364 N371 1.356 . S
C365 C364 1.363 . S
C365 C368 1.363 . S
N366 C368 1.356 . S
N366 H378 0.984 . S
N366 H379 0.985 . S
N367 C369 1.356 . S
N367 H372 0.984 . S
N367 H373 0.985 . S
C368 C362 1.379 . S
C368 C365 1.363 . S
C368 N366 1.356 . S
C369 C363 1.363 . S
C369 C364 1.379 . S
C369 N367 1.356 . S
N370 C362 1.356 . S
N370 H376 0.984 . S
N370 H377 0.984 . S
N371 C364 1.356 . S
N371 H374 0.984 . S
N371 H375 0.985 . S
H372 N367 0.984 . S
H373 N367 0.985 . S
H374 N371 0.984 . S
H375 N371 0.985 . S
H376 N370 0.984 . S
H377 N370 0.984 . S
H378 N366 0.984 . S
H379 N366 0.985 . S
C380 C381 1.363 . S
C380 C386 1.379 . S
C380 N388 1.356 . S
C381 C380 1.363 . S
C381 C387 1.363 . S
C382 C383 1.363 . S
C382 C387 1.379 . S
C382 N389 1.356 . S
C383 C382 1.363 . S
C383 C386 1.363 . S
N384 C386 1.356 . S
N384 H396 0.984 . S
N384 H397 0.985 . S
N385 C387 1.356 . S
N385 H390 0.984 . S
N385 H391 0.985 . S
C386 C380 1.379 . S
C386 C383 1.363 . S
C386 N384 1.356 . S
C387 C381 1.363 . S
C387 C382 1.379 . S
C387 N385 1.356 . S
N388 C380 1.356 . S
N388 H394 0.984 . S
N388 H395 0.984 . S
N389 C382 1.356 . S
N389 H392 0.984 . S
N389 H393 0.985 . S
H390 N385 0.984 . S
H391 N385 0.985 . S
H392 N389 0.984 . S
H393 N389 0.985 . S
H394 N388 0.984 . S
H395 N388 0.984 . S
H396 N384 0.984 . S
H397 N384 0.985 . S
C398 C399 1.363 1_554 S
C398 C404 1.379 . S
C398 N406 1.356 1_554 S
C399 C398 1.363 1_556 S
C399 C405 1.363 1_556 S
C400 C401 1.363 . S
C400 C405 1.379 . S
C400 N407 1.356 . S
C401 C400 1.363 . S
C401 C404 1.363 . S
N402 C404 1.356 . S
N402 H414 0.984 . S
N402 H415 0.985 . S
N403 C405 1.356 1_556 S
N403 H408 0.984 . S
N403 H409 0.985 . S
C404 C398 1.379 . S
C404 C401 1.363 . S
C404 N402 1.356 . S
C405 C399 1.363 1_554 S
C405 C400 1.379 . S
C405 N403 1.356 1_554 S
N406 C398 1.356 1_556 S
N406 H412 0.987 . S
N406 H413 0.984 . S
N407 C400 1.356 . S
N407 H410 0.984 . S
N407 H411 0.985 . S
H408 N403 0.984 . S
H409 N403 0.985 . S
H410 N407 0.984 . S
H411 N407 0.985 . S
H412 N406 0.987 . S
H413 N406 0.984 . S
H414 N402 0.984 . S
H415 N402 0.985 . S
C416 C417 1.363 . S
C416 C422 1.379 . S
C416 N424 1.356 . S
C417 C416 1.363 . S
C417 C423 1.363 . S
C418 C419 1.363 . S
C418 C423 1.379 . S
C418 N425 1.356 . S
C419 C418 1.363 . S
C419 C422 1.363 . S
N420 C422 1.356 . S
N420 H432 0.984 . S
N420 H433 0.985 . S
N421 C423 1.356 . S
N421 H426 0.984 . S
N421 H427 0.985 . S
C422 C416 1.379 . S
C422 C419 1.363 . S
C422 N420 1.356 . S
C423 C417 1.363 . S
C423 C418 1.379 . S
C423 N421 1.356 . S
N424 C416 1.356 . S
N424 H430 0.984 . S
N424 H431 0.984 . S
N425 C418 1.356 . S
N425 H428 0.984 . S
N425 H429 0.985 . S
H426 N421 0.984 . S
H427 N421 0.985 . S
H428 N425 0.984 . S
H429 N425 0.985 . S
H430 N424 0.984 . S
H431 N424 0.984 . S
H432 N420 0.984 . S
H433 N420 0.985 . S
C434 C435 1.363 . S
C434 C440 1.379 . S
C434 N442 1.356 . S
C435 C434 1.363 . S
C435 C441 1.363 . S
C436 C437 1.363 . S
C436 C441 1.379 1_556 S
C436 N443 1.356 . S
C437 C436 1.363 . S
C437 C440 1.363 1_556 S
N438 C440 1.356 . S
N438 H450 0.984 . S
N438 H451 0.985 1_554 S
N439 C441 1.356 . S
N439 H444 0.984 . S
N439 H445 0.985 . S
C440 C434 1.379 . S
C440 C437 1.363 1_554 S
C440 N438 1.356 . S
C441 C435 1.363 . S
C441 C436 1.379 1_554 S
C441 N439 1.356 . S
N442 C434 1.356 . S
N442 H448 0.984 . S
N442 H449 0.984 . S
N443 C436 1.356 . S
N443 H446 0.984 . S
N443 H447 0.985 . S
H444 N439 0.984 . S
H445 N439 0.985 . S
H446 N443 0.984 . S
H447 N443 0.985 . S
H448 N442 0.984 . S
H449 N442 0.984 . S
H450 N438 0.984 . S
H451 N438 0.985 1_556 S
C452 C453 1.363 . S
C452 C458 1.379 . S
C452 N460 1.356 . S
C453 C452 1.363 . S
C453 C459 1.363 . S
C454 C455 1.363 . S
C454 C459 1.379 . S
C454 N461 1.356 . S
C455 C454 1.363 . S
C455 C458 1.363 . S
N456 C458 1.356 . S
N456 H468 0.984 . S
N456 H469 0.985 . S
N457 C459 1.356 . S
N457 H462 0.984 . S
N457 H463 0.985 . S
C458 C452 1.379 . S
C458 C455 1.363 . S
C458 N456 1.356 . S
C459 C453 1.363 . S
C459 C454 1.379 . S
C459 N457 1.356 . S
N460 C452 1.356 . S
N460 H466 0.984 . S
N460 H467 0.984 . S
N461 C454 1.356 . S
N461 H464 0.984 . S
N461 H465 0.985 . S
H462 N457 0.984 . S
H463 N457 0.985 . S
H464 N461 0.984 . S
H465 N461 0.985 . S
H466 N460 0.984 . S
H467 N460 0.984 . S
H468 N456 0.984 . S
H469 N456 0.985 . S
C470 C471 1.363 . S
C470 C476 1.379 . S
C470 N478 1.356 . S
C471 C470 1.363 . S
C471 C477 1.363 . S
C472 C473 1.363 . S
C472 C477 1.379 . S
C472 N479 1.356 . S
C473 C472 1.363 . S
C473 C476 1.363 . S
N474 C476 1.356 . S
N474 H486 0.984 . S
N474 H487 0.985 . S
N475 C477 1.356 . S
N475 H480 0.984 . S
N475 H481 0.985 . S
C476 C470 1.379 . S
C476 C473 1.363 . S
C476 N474 1.356 . S
C477 C471 1.363 . S
C477 C472 1.379 . S
C477 N475 1.356 . S
N478 C470 1.356 . S
N478 H484 0.984 . S
N478 H485 0.984 . S
N479 C472 1.356 . S
N479 H482 0.984 . S
N479 H483 0.985 . S
H480 N475 0.984 . S
H481 N475 0.985 . S
H482 N479 0.984 . S
H483 N479 0.985 . S
H484 N478 0.984 . S
H485 N478 0.984 . S
H486 N474 0.984 . S
H487 N474 0.985 . S
C488 C489 1.363 . S
C488 C494 1.379 . S
C488 N496 1.356 . S
C489 C488 1.363 . S
C489 C495 1.363 . S
C490 C491 1.363 . S
C490 C495 1.379 . S
C490 N497 1.356 1_565 S
C491 C490 1.363 . S
C491 C494 1.363 . S
N492 C494 1.356 . S
N492 H504 0.984 . S
N492 H505 0.985 1_565 S
N493 C495 1.356 1_554 S
N493 H498 0.984 . S
N493 H499 0.985 . S
C494 C488 1.379 . S
C494 C491 1.363 . S
C494 N492 1.356 . S
C495 C489 1.363 . S
C495 C490 1.379 . S
C495 N493 1.356 1_556 S
N496 C488 1.356 . S
N496 H502 0.984 . S
N496 H503 0.984 . S
N497 C490 1.356 1_545 S
N497 H500 0.984 . S
N497 H501 0.985 . S
H498 N493 0.984 . S
H499 N493 0.985 . S
H500 N497 0.984 . S
H501 N497 0.985 . S
H502 N496 0.984 . S
H503 N496 0.984 . S
H504 N492 0.984 . S
H505 N492 0.985 1_545 S
C506 C507 1.363 . S
C506 C512 1.379 . S
C506 N514 1.356 . S
C507 C506 1.363 . S
C507 C513 1.363 . S
C508 C509 1.363 . S
C508 C513 1.379 . S
C508 N515 1.356 . S
C509 C508 1.363 . S
C509 C512 1.363 . S
N510 C512 1.356 . S
N510 H522 0.984 . S
N510 H523 0.985 . S
N511 C513 1.356 . S
N511 H516 0.984 . S
N511 H517 0.985 . S
C512 C506 1.379 . S
C512 C509 1.363 . S
C512 N510 1.356 . S
C513 C507 1.363 . S
C513 C508 1.379 . S
C513 N511 1.356 . S
N514 C506 1.356 . S
N514 H520 0.984 . S
N514 H521 0.984 . S
N515 C508 1.356 . S
N515 H518 0.984 . S
N515 H519 0.985 . S
H516 N511 0.984 . S
H517 N511 0.985 . S
H518 N515 0.984 . S
H519 N515 0.985 . S
H520 N514 0.984 . S
H521 N514 0.984 . S
H522 N510 0.984 . S
H523 N510 0.985 . S
C524 C525 1.363 . S
C524 C530 1.379 . S
C524 N532 1.356 1_545 S
C525 C524 1.363 . S
C525 C531 1.363 . S
C526 C527 1.363 . S
C526 C531 1.379 . S
C526 N533 1.356 . S
C527 C526 1.363 . S
C527 C530 1.363 . S
N528 C530 1.356 . S
N528 H540 0.984 . S
N528 H541 0.985 . S
N529 C531 1.356 . S
N529 H534 0.984 . S
N529 H535 0.985 . S
C530 C524 1.379 . S
C530 C527 1.363 . S
C530 N528 1.356 . S
C531 C525 1.363 . S
C531 C526 1.379 . S
C531 N529 1.356 . S
N532 C524 1.356 1_565 S
N532 H538 0.984 . S
N532 H539 0.984 . S
N533 C526 1.356 . S
N533 H536 0.984 . S
N533 H537 0.985 . S
H534 N529 0.984 . S
H535 N529 0.985 . S
H536 N533 0.984 . S
H537 N533 0.985 . S
H538 N532 0.984 . S
H539 N532 0.984 . S
H540 N528 0.984 . S
H541 N528 0.985 . S
C542 C543 1.363 . S
C542 C548 1.379 . S
C542 N550 1.356 . S
C543 C542 1.363 . S
C543 C549 1.363 . S
C544 C545 1.363 . S
C544 C549 1.379 . S
C544 N551 1.356 . S
C545 C544 1.363 . S
C545 C548 1.363 . S
N546 C548 1.356 . S
N546 H558 0.984 . S
N546 H559 0.985 . S
N547 C549 1.356 . S
N547 H552 0.984 . S
N547 H553 0.985 . S
C548 C542 1.379 . S
C548 C545 1.363 . S
C548 N546 1.356 . S
C549 C543 1.363 . S
C549 C544 1.379 . S
C549 N547 1.356 . S
N550 C542 1.356 . S
N550 H556 0.984 . S
N550 H557 0.984 . S
N551 C544 1.356 . S
N551 H554 0.984 . S
N551 H555 0.985 . S
H552 N547 0.984 . S
H553 N547 0.985 . S
H554 N551 0.984 . S
H555 N551 0.985 . S
H556 N550 0.984 . S
H557 N550 0.984 . S
H558 N546 0.984 . S
H559 N546 0.985 . S
C560 C561 1.363 . S
C560 C566 1.379 . S
C560 N568 1.356 . S
C561 C560 1.363 . S
C561 C567 1.363 . S
C562 C563 1.363 . S
C562 C567 1.379 . S
C562 N569 1.356 . S
C563 C562 1.363 . S
C563 C566 1.363 . S
N564 C566 1.356 . S
N564 H576 0.984 . S
N564 H577 0.985 . S
N565 C567 1.356 . S
N565 H570 0.984 . S
N565 H571 0.985 . S
C566 C560 1.379 . S
C566 C563 1.363 . S
C566 N564 1.356 . S
C567 C561 1.363 . S
C567 C562 1.379 . S
C567 N565 1.356 . S
N568 C560 1.356 . S
N568 H574 0.984 . S
N568 H575 0.984 . S
N569 C562 1.356 . S
N569 H572 0.984 . S
N569 H573 0.985 . S
H570 N565 0.984 . S
H571 N565 0.985 . S
H572 N569 0.984 . S
H573 N569 0.985 . S
H574 N568 0.984 . S
H575 N568 0.984 . S
H576 N564 0.984 . S
H577 N564 0.985 . S
C578 C579 1.363 . S
C578 C584 1.379 . S
C578 N586 1.356 . S
C579 C578 1.363 . S
C579 C585 1.363 . S
C580 C581 1.363 . S
C580 C585 1.379 . S
C580 N587 1.356 . S
C581 C580 1.363 . S
C581 C584 1.363 . S
N582 C584 1.356 . S
N582 H594 0.984 . S
N582 H595 0.985 . S
N583 C585 1.356 . S
N583 H588 0.984 1_655 S
N583 H589 0.985 . S
C584 C578 1.379 . S
C584 C581 1.363 . S
C584 N582 1.356 . S
C585 C579 1.363 . S
C585 C580 1.379 . S
C585 N583 1.356 . S
N586 C578 1.356 . S
N586 H592 0.984 . S
N586 H593 0.984 1_655 S
N587 C580 1.356 . S
N587 H590 0.984 . S
N587 H591 0.985 . S
H588 N583 0.984 1_455 S
H589 N583 0.985 . S
H590 N587 0.984 . S
H591 N587 0.985 . S
H592 N586 0.984 . S
H593 N586 0.984 1_455 S
H594 N582 0.984 . S
H595 N582 0.985 . S
C596 C597 1.363 . S
C596 C602 1.379 . S
C596 N604 1.356 . S
C597 C596 1.363 . S
C597 C603 1.363 . S
C598 C599 1.363 . S
C598 C603 1.379 . S
C598 N605 1.356 . S
C599 C598 1.363 . S
C599 C602 1.363 . S
N600 C602 1.356 . S
N600 H612 0.984 . S
N600 H613 0.985 . S
N601 C603 1.356 . S
N601 H606 0.984 . S
N601 H607 0.985 . S
C602 C596 1.379 . S
C602 C599 1.363 . S
C602 N600 1.356 . S
C603 C597 1.363 . S
C603 C598 1.379 . S
C603 N601 1.356 . S
N604 C596 1.356 . S
N604 H610 0.984 . S
N604 H611 0.984 . S
N605 C598 1.356 . S
N605 H608 0.984 . S
N605 H609 0.985 . S
H606 N601 0.984 . S
H607 N601 0.985 . S
H608 N605 0.984 . S
H609 N605 0.985 . S
H610 N604 0.984 . S
H611 N604 0.984 . S
H612 N600 0.984 . S
H613 N600 0.985 . S
C614 C615 1.363 . S
C614 C620 1.379 . S
C614 N622 1.356 . S
C615 C614 1.363 . S
C615 C621 1.363 . S
C616 C617 1.363 . S
C616 C621 1.379 . S
C616 N623 1.356 1_455 S
C617 C616 1.363 . S
C617 C620 1.363 . S
N618 C620 1.356 . S
N618 H630 0.984 . S
N618 H631 0.985 . S
N619 C621 1.356 . S
N619 H624 0.984 . S
N619 H625 0.985 . S
C620 C614 1.379 . S
C620 C617 1.363 . S
C620 N618 1.356 . S
C621 C615 1.363 . S
C621 C616 1.379 . S
C621 N619 1.356 . S
N622 C614 1.356 . S
N622 H628 0.984 . S
N622 H629 0.984 . S
N623 C616 1.356 1_655 S
N623 H626 0.984 . S
N623 H627 0.985 . S
H624 N619 0.984 . S
H625 N619 0.985 . S
H626 N623 0.984 . S
H627 N623 0.985 . S
H628 N622 0.984 . S
H629 N622 0.984 . S
H630 N618 0.984 . S
H631 N618 0.985 . S
C273 C175 1.408 . S
C275 C5 1.408 . S
C291 C209 1.408 . S
C293 C39 1.408 . S
C309 C73 1.408 . S
C311 C243 1.408 . S
C327 C141 1.408 . S
C329 C107 1.408 . S
C345 C271 1.512 . S
C347 C33 1.512 . S
C363 C67 1.512 . S
C365 C169 1.512 . S
C381 C203 1.512 . S
C383 C101 1.512 . S
C399 C135 1.512 . S
C401 C237 1.512 . S
C417 C258 1.440 . S
C419 C20 1.440 . S
C435 C54 1.440 . S
C437 C156 1.440 . S
C453 C190 1.440 . S
C455 C88 1.440 . S
C471 C224 1.440 . S
C473 C122 1.440 . S
C489 C9 1.652 1_556 S
C491 C104 1.652 1_565 S
C507 C2 1.651 . S
C509 C43 1.652 . S
C525 C36 1.652 1_545 S
C527 C77 1.652 . S
C543 C70 1.652 . S
C545 C111 1.652 . S
C561 C145 1.652 . S
C563 C172 1.652 . S
C579 C206 1.652 1_655 S
C581 C179 1.652 . S
C597 C240 1.652 . S
C599 C213 1.652 . S
C615 C247 1.652 . S
C617 C138 1.651 1_455 S
