# Generated by pormake.
# Topology vbm, (6)-cn, num edge types: 1
# Building blocks:
#     Node 0, Type 0, BuildingBlock: PAMTOO_clean_sbu_0, # of connection points: 6
#     Node 1, Type 0, BuildingBlock: PAMTOO_clean_sbu_0, # of connection points: 6
#     Node 2, Type 0, BuildingBlock: PAMTOO_clean_sbu_0, # of connection points: 6
#     Node 3, Type 0, BuildingBlock: PAMTOO_clean_sbu_0, # of connection points: 6
#     Node 4, Type 0, BuildingBlock: PAMTOO_clean_sbu_0, # of connection points: 6
#     Node 5, Type 0, BuildingBlock: PAMTOO_clean_sbu_0, # of connection points: 6
#     Node 6, Type 0, BuildingBlock: PAMTOO_clean_sbu_0, # of connection points: 6
#     Node 7, Type 0, BuildingBlock: PAMTOO_clean_sbu_0, # of connection points: 6
#     Node 8, Type 0, BuildingBlock: PAMTOO_clean_sbu_0, # of connection points: 6
#     Node 9, Type 0, BuildingBlock: PAMTOO_clean_sbu_0, # of connection points: 6
#     Node 10, Type 0, BuildingBlock: PAMTOO_clean_sbu_0, # of connection points: 6
#     Node 11, Type 0, BuildingBlock: PAMTOO_clean_sbu_0, # of connection points: 6
#     Node 12, Type 0, BuildingBlock: PAMTOO_clean_sbu_0, # of connection points: 6
#     Node 13, Type 0, BuildingBlock: PAMTOO_clean_sbu_0, # of connection points: 6
#     Node 14, Type 0, BuildingBlock: PAMTOO_clean_sbu_0, # of connection points: 6
#     Node 15, Type 0, BuildingBlock: PAMTOO_clean_sbu_0, # of connection points: 6
#     Edge 16, Type (0, 0), BuildingBlock: KIFKEQ_clean_linker_1, # of connection points: 2
#     Edge 17, Type (0, 0), BuildingBlock: KIFKEQ_clean_linker_1, # of connection points: 2
#     Edge 18, Type (0, 0), BuildingBlock: KIFKEQ_clean_linker_1, # of connection points: 2
#     Edge 19, Type (0, 0), BuildingBlock: KIFKEQ_clean_linker_1, # of connection points: 2
#     Edge 20, Type (0, 0), BuildingBlock: KIFKEQ_clean_linker_1, # of connection points: 2
#     Edge 21, Type (0, 0), BuildingBlock: KIFKEQ_clean_linker_1, # of connection points: 2
#     Edge 22, Type (0, 0), BuildingBlock: KIFKEQ_clean_linker_1, # of connection points: 2
#     Edge 23, Type (0, 0), BuildingBlock: KIFKEQ_clean_linker_1, # of connection points: 2
#     Edge 24, Type (0, 0), BuildingBlock: KIFKEQ_clean_linker_1, # of connection points: 2
#     Edge 25, Type (0, 0), BuildingBlock: KIFKEQ_clean_linker_1, # of connection points: 2
#     Edge 26, Type (0, 0), BuildingBlock: KIFKEQ_clean_linker_1, # of connection points: 2
#     Edge 27, Type (0, 0), BuildingBlock: KIFKEQ_clean_linker_1, # of connection points: 2
#     Edge 28, Type (0, 0), BuildingBlock: KIFKEQ_clean_linker_1, # of connection points: 2
#     Edge 29, Type (0, 0), BuildingBlock: KIFKEQ_clean_linker_1, # of connection points: 2
#     Edge 30, Type (0, 0), BuildingBlock: KIFKEQ_clean_linker_1, # of connection points: 2
#     Edge 31, Type (0, 0), BuildingBlock: KIFKEQ_clean_linker_1, # of connection points: 2
#     Edge 32, Type (0, 0), BuildingBlock: KIFKEQ_clean_linker_1, # of connection points: 2
#     Edge 33, Type (0, 0), BuildingBlock: KIFKEQ_clean_linker_1, # of connection points: 2
#     Edge 34, Type (0, 0), BuildingBlock: KIFKEQ_clean_linker_1, # of connection points: 2
#     Edge 35, Type (0, 0), BuildingBlock: KIFKEQ_clean_linker_1, # of connection points: 2
#     Edge 36, Type (0, 0), BuildingBlock: KIFKEQ_clean_linker_1, # of connection points: 2
#     Edge 37, Type (0, 0), BuildingBlock: KIFKEQ_clean_linker_1, # of connection points: 2
#     Edge 38, Type (0, 0), BuildingBlock: KIFKEQ_clean_linker_1, # of connection points: 2
#     Edge 39, Type (0, 0), BuildingBlock: KIFKEQ_clean_linker_1, # of connection points: 2
#     Edge 40, Type (0, 0), BuildingBlock: KIFKEQ_clean_linker_1, # of connection points: 2
#     Edge 41, Type (0, 0), BuildingBlock: KIFKEQ_clean_linker_1, # of connection points: 2
#     Edge 42, Type (0, 0), BuildingBlock: KIFKEQ_clean_linker_1, # of connection points: 2
#     Edge 43, Type (0, 0), BuildingBlock: KIFKEQ_clean_linker_1, # of connection points: 2
#     Edge 44, Type (0, 0), BuildingBlock: KIFKEQ_clean_linker_1, # of connection points: 2
#     Edge 45, Type (0, 0), BuildingBlock: KIFKEQ_clean_linker_1, # of connection points: 2
#     Edge 46, Type (0, 0), BuildingBlock: KIFKEQ_clean_linker_1, # of connection points: 2
#     Edge 47, Type (0, 0), BuildingBlock: KIFKEQ_clean_linker_1, # of connection points: 2
#     Edge 48, Type (0, 0), BuildingBlock: KIFKEQ_clean_linker_1, # of connection points: 2
#     Edge 49, Type (0, 0), BuildingBlock: KIFKEQ_clean_linker_1, # of connection points: 2
#     Edge 50, Type (0, 0), BuildingBlock: KIFKEQ_clean_linker_1, # of connection points: 2
#     Edge 51, Type (0, 0), BuildingBlock: KIFKEQ_clean_linker_1, # of connection points: 2
#     Edge 52, Type (0, 0), BuildingBlock: KIFKEQ_clean_linker_1, # of connection points: 2
#     Edge 53, Type (0, 0), BuildingBlock: KIFKEQ_clean_linker_1, # of connection points: 2
#     Edge 54, Type (0, 0), BuildingBlock: KIFKEQ_clean_linker_1, # of connection points: 2
#     Edge 55, Type (0, 0), BuildingBlock: KIFKEQ_clean_linker_1, # of connection points: 2
#     Edge 56, Type (0, 0), BuildingBlock: KIFKEQ_clean_linker_1, # of connection points: 2
#     Edge 57, Type (0, 0), BuildingBlock: KIFKEQ_clean_linker_1, # of connection points: 2
#     Edge 58, Type (0, 0), BuildingBlock: KIFKEQ_clean_linker_1, # of connection points: 2
#     Edge 59, Type (0, 0), BuildingBlock: KIFKEQ_clean_linker_1, # of connection points: 2
#     Edge 60, Type (0, 0), BuildingBlock: KIFKEQ_clean_linker_1, # of connection points: 2
#     Edge 61, Type (0, 0), BuildingBlock: KIFKEQ_clean_linker_1, # of connection points: 2
#     Edge 62, Type (0, 0), BuildingBlock: KIFKEQ_clean_linker_1, # of connection points: 2
#     Edge 63, Type (0, 0), BuildingBlock: KIFKEQ_clean_linker_1, # of connection points: 2
# Relax obj value: 0.043
# Max RMSD: 0.118
# Mean RMSD: 0.118
data_MOF--net-vbm--node1-PAMTOO_clean_sbu_0--edge1-KIFKEQ_clean_linker_1
_symmetry_space_group_name_H-M    P1
_symmetry_Int_Tables_number       1
_symmetry_cell_setting            triclinic
loop_
_symmetry_equiv_pos_as_xyz
'x, y, z'
_cell_length_a     56.221477
_cell_length_b     26.084395
_cell_length_c     58.783572
_cell_angle_alpha  89.865923
_cell_angle_beta   89.976859
_cell_angle_gamma 89.99046
loop_
_atom_site_label
_atom_site_type_symbol
_atom_site_fract_x
_atom_site_fract_y
_atom_site_fract_z
_atom_type_partial_charge
Dy0 Dy 0.1088 0.20136 0.14243 0.0
Dy1 Dy 0.13342 0.08627 0.13335 0.0
C2 C 0.11682 0.15752 0.09236 0.0
O3 O 0.07833 0.15026 0.13473 0.0
O4 O 0.09501 0.06997 0.1401 0.0
O5 O 0.08638 0.26497 0.13266 0.0
O6 O 0.10481 0.26616 0.16507 0.0
O7 O 0.13985 0.11336 0.16872 0.0
O8 O 0.1041 0.15152 0.17333 0.0
O9 O 0.16197 0.14305 0.1254 0.0
O10 O 0.14786 0.21109 0.14632 0.0
O11 O 0.1465 1.01679 0.14875 0.0
O12 O 0.14905 0.02677 0.11227 0.0
C13 C 0.07651 0.10037 0.13735 0.0
O14 O 0.11881 0.19818 0.10547 0.0
O15 O 0.11645 0.11091 0.10091 0.0
C16 C 0.09715 0.34638 0.14752 0.0
C17 C 0.1064 0.45233 0.14174 0.0
C18 C 0.1161 0.41602 0.12662 0.0
C19 C 0.11158 0.36349 0.12953 0.0
C20 C 0.08755 0.38236 0.16263 0.0
C21 C 0.09212 0.43469 0.1598 0.0
C22 C 0.09147 0.29158 0.1508 0.0
C23 C 0.12178 0.12478 0.18173 0.0
C24 C 0.16489 0.18822 0.1349 0.0
C25 C 0.1451 0.94164 0.12655 0.0
C26 C 0.13388 0.83583 0.12563 0.0
C27 C 0.11645 0.87247 0.13136 0.0
C28 C 0.12201 0.92488 0.13181 0.0
C29 C 0.1623 0.90552 0.1202 0.0
C30 C 0.15678 0.85321 0.11971 0.0
C31 C 0.15221 0.9957 0.12943 0.0
H32 H 0.12739 0.42816 0.11268 0.0
H33 H 0.11928 0.33631 0.11772 0.0
H34 H 0.07632 0.36996 0.17658 0.0
H35 H 0.08408 0.46145 0.17158 0.0
H36 H 0.09856 0.86063 0.1357 0.0
H37 H 0.10845 0.95218 0.13677 0.0
H38 H 0.18027 0.91764 0.11624 0.0
H39 H 0.17075 0.82626 0.1155 0.0
Dy40 Dy 0.87593 0.85995 0.13816 0.0
Dy41 Dy 0.85502 0.97525 0.12209 0.0
C42 C 0.87134 0.89144 0.0863 0.0
O43 O 0.90767 0.90829 0.13092 0.0
O44 O 0.89205 0.98999 0.13387 0.0
O45 O 0.89875 0.79458 0.13201 0.0
O46 O 0.8757 0.79577 0.16151 0.0
O47 O 0.85185 0.97284 0.15982 0.0
O48 O 0.87927 0.91032 0.16895 0.0
O49 O 0.82641 0.91729 0.11512 0.0
O50 O 0.83689 0.85936 0.14265 0.0
O51 O 0.82889 0.03596 0.12469 0.0
O52 O 0.85682 0.04063 0.09945 0.0
C53 C 0.91019 0.95818 0.13299 0.0
O54 O 0.86643 0.85497 0.10104 0.0
O55 O 0.87335 0.93931 0.09268 0.0
C56 C 0.88539 0.71442 0.14616 0.0
C57 C 0.87606 0.60854 0.14033 0.0
C58 C 0.86 0.64578 0.13213 0.0
C59 C 0.86464 0.69829 0.13498 0.0
C60 C 0.90134 0.67755 0.15442 0.0
C61 C 0.89676 0.62526 0.15156 0.0
C62 C 0.89086 0.76918 0.14959 0.0
C63 C 0.86589 0.94988 0.17451 0.0
C64 C 0.82147 0.87744 0.12803 0.0
C65 C 0.84212 0.11909 0.11377 0.0
C66 C 0.84829 0.22549 0.12148 0.0
C67 C 0.85493 0.18922 0.13815 0.0
C68 C 0.8519 0.13651 0.13432 0.0
C69 C 0.83554 0.15497 0.09714 0.0
C70 C 0.83858 0.2075 0.10092 0.0
C71 C 0.83894 0.06397 0.10898 0.0
H72 H 0.844 0.6344 0.12322 0.0
H73 H 0.8521 0.72623 0.12846 0.0
H74 H 0.91739 0.68924 0.16319 0.0
H75 H 0.90934 0.59789 0.15846 0.0
H76 H 0.86226 0.20155 0.15427 0.0
H77 H 0.85718 0.1094 0.14737 0.0
H78 H 0.82813 0.1423 0.08109 0.0
H79 H 0.83368 0.23397 0.0875 0.0
Dy80 Dy 0.10471 0.83691 0.36483 0.0
Dy81 Dy 0.12863 0.95199 0.37346 0.0
C82 C 0.11209 0.88126 0.41451 0.0
O83 O 0.0744 0.88753 0.37383 0.0
O84 O 0.09033 0.96681 0.36541 0.0
O85 O 0.08219 0.77356 0.37467 0.0
O86 O 0.10058 0.7721 0.34224 0.0
O87 O 0.13637 0.92367 0.33857 0.0
O88 O 0.10061 0.88609 0.3336 0.0
O89 O 0.15761 0.89643 0.38169 0.0
O90 O 0.14385 0.82638 0.36184 0.0
O91 O 0.14093 1.0221 0.35806 0.0
O92 O 0.14408 1.01169 0.39451 0.0
C93 C 0.07205 0.93686 0.36987 0.0
O94 O 0.11525 0.8406 0.40164 0.0
O95 O 0.11101 0.92757 0.40569 0.0
C96 C 0.09266 0.69207 0.3598 0.0
C97 C 0.10161 0.58608 0.3656 0.0
C98 C 0.112 0.62236 0.38028 0.0
C99 C 0.10763 0.67494 0.37736 0.0
C100 C 0.08237 0.65612 0.34512 0.0
C101 C 0.08679 0.60374 0.34795 0.0
C102 C 0.08716 0.7469 0.35652 0.0
C103 C 0.11866 0.91176 0.32524 0.0
C104 C 0.16079 0.85072 0.37277 0.0
C105 C 0.13974 0.09692 0.38048 0.0
C106 C 0.12846 0.20263 0.38172 0.0
C107 C 0.11092 0.16595 0.37637 0.0
C108 C 0.11651 0.11357 0.37575 0.0
C109 C 0.15706 0.13307 0.38646 0.0
C110 C 0.15151 0.18533 0.3871 0.0
C111 C 0.14687 0.04299 0.37736 0.0
H112 H 0.12371 0.61016 0.39388 0.0
H113 H 0.11586 0.70214 0.38882 0.0
H114 H 0.07072 0.66857 0.3315 0.0
H115 H 0.07822 0.57698 0.33652 0.0
H116 H 0.09292 0.17775 0.37244 0.0
H117 H 0.10287 0.08623 0.37107 0.0
H118 H 0.17513 0.121 0.38999 0.0
H119 H 0.16556 0.2123 0.39099 0.0
Dy120 Dy 0.87389 0.18299 0.37129 0.0
Dy121 Dy 0.85056 0.06774 0.38416 0.0
C122 C 0.86447 0.14872 0.42257 0.0
O123 O 0.90408 0.13224 0.38091 0.0
O124 O 0.88793 0.05313 0.37303 0.0
O125 O 0.89683 0.24718 0.37941 0.0
O126 O 0.8766 0.2471 0.3481 0.0
O127 O 0.84761 0.07662 0.34668 0.0
O128 O 0.87789 0.13402 0.34002 0.0
O129 O 0.82201 0.12586 0.39088 0.0
O130 O 0.83496 0.18815 0.36616 0.0
O131 O 0.82458 1.00744 0.37903 0.0
O132 O 0.851 1.00036 0.40558 0.0
C133 C 0.90636 0.08303 0.37672 0.0
O134 O 0.86289 0.18703 0.40804 0.0
O135 O 0.86572 0.10103 0.41568 0.0
C136 C 0.88515 0.32797 0.36451 0.0
C137 C 0.87532 0.43405 0.36887 0.0
C138 C 0.85736 0.39723 0.37261 0.0
C139 C 0.86225 0.34467 0.37051 0.0
C140 C 0.90308 0.36442 0.36089 0.0
C141 C 0.89825 0.41682 0.36305 0.0
C142 C 0.89072 0.27311 0.36135 0.0
C143 C 0.8633 0.09776 0.33305 0.0
C144 C 0.81845 0.16829 0.37921 0.0
C145 C 0.83683 0.92332 0.38957 0.0
C146 C 0.84409 0.81721 0.38197 0.0
C147 C 0.85557 0.85423 0.36829 0.0
C148 C 0.85199 0.90682 0.37208 0.0
C149 C 0.82524 0.88671 0.40307 0.0
C150 C 0.82881 0.83432 0.39935 0.0
C151 C 0.83357 0.97815 0.39486 0.0
H152 H 0.83957 0.40901 0.37737 0.0
H153 H 0.84817 0.31711 0.37346 0.0
H154 H 0.92084 0.35234 0.35615 0.0
H155 H 0.91244 0.4439 0.35972 0.0
H156 H 0.86727 0.8426 0.3546 0.0
H157 H 0.86118 0.93456 0.36151 0.0
H158 H 0.81364 0.89869 0.4168 0.0
H159 H 0.81999 0.80725 0.41051 0.0
Dy160 Dy 0.85031 0.9604 0.8738 0.0
Dy161 Dy 0.87534 0.84567 0.86599 0.0
C162 C 0.86216 0.92006 0.826 0.0
O163 O 0.82142 0.9042 0.88136 0.0
O164 O 0.83634 0.83417 0.86223 0.0
O165 O 0.83765 0.02957 0.85779 0.0
O166 O 0.83453 1.02076 0.89429 0.0
O167 O 0.86422 0.84902 0.90261 0.0
O168 O 0.86627 0.93642 0.90684 0.0
O169 O 0.90503 0.89726 0.87572 0.0
O170 O 0.88875 0.9759 0.86668 0.0
O171 O 0.89774 0.78248 0.87634 0.0
O172 O 0.88044 0.78117 0.84339 0.0
C173 C 0.81892 0.85808 0.87266 0.0
O174 O 0.84392 0.93133 0.83878 0.0
O175 O 0.88009 0.89492 0.83489 0.0
C176 C 0.83895 0.1054 0.87961 0.0
C177 C 0.85029 0.21116 0.88057 0.0
C178 C 0.86748 0.17457 0.87416 0.0
C179 C 0.86187 0.12219 0.87369 0.0
C180 C 0.822 0.14149 0.88659 0.0
C181 C 0.82758 0.19376 0.8871 0.0
C182 C 0.83174 0.05134 0.87691 0.0
C183 C 0.86578 0.88996 0.91559 0.0
C184 C 0.90711 0.9466 0.87163 0.0
C185 C 0.88768 0.70095 0.86108 0.0
C186 C 0.87837 0.59485 0.86629 0.0
C187 C 0.86917 0.63064 0.88193 0.0
C188 C 0.87372 0.68324 0.87931 0.0
C189 C 0.89676 0.66547 0.84546 0.0
C190 C 0.89217 0.61307 0.848 0.0
C191 C 0.89334 0.75585 0.85805 0.0
H192 H 0.88524 0.18642 0.86933 0.0
H193 H 0.87525 0.09493 0.86825 0.0
H194 H 0.80416 0.12935 0.89107 0.0
H195 H 0.81379 0.22068 0.89185 0.0
H196 H 0.85826 0.61806 0.89606 0.0
H197 H 0.86639 0.70999 0.89152 0.0
H198 H 0.90761 0.67831 0.83131 0.0
H199 H 0.8998 0.5867 0.83581 0.0
Dy200 Dy 0.12796 0.07585 0.88511 0.0
Dy201 Dy 0.10677 0.19089 0.86993 0.0
C202 C 0.11752 0.10281 0.83299 0.0
O203 O 0.1567 0.1332 0.89244 0.0
O204 O 0.14588 0.19332 0.8659 0.0
O205 O 0.15427 1.01535 0.88238 0.0
O206 O 0.12567 1.00929 0.90686 0.0
O207 O 0.11661 0.19566 0.90695 0.0
O208 O 0.11011 0.111 0.91502 0.0
O209 O 0.07545 0.14225 0.87851 0.0
O210 O 0.09113 0.06184 0.87247 0.0
O211 O 0.08443 0.25655 0.87666 0.0
O212 O 0.10578 0.25414 0.846 0.0
C213 C 0.16147 0.17401 0.88006 0.0
O214 O 0.13194 0.08047 0.84752 0.0
O215 O 0.10349 0.14098 0.83894 0.0
C216 C 0.14061 0.93187 0.89181 0.0
C217 C 0.13374 0.82597 0.88369 0.0
C218 C 0.11806 0.86265 0.87439 0.0
C219 C 0.12149 0.91513 0.87839 0.0
C220 C 0.15643 0.89563 0.90082 0.0
C221 C 0.15307 0.84327 0.89681 0.0
C222 C 0.1438 0.98647 0.8975 0.0
C223 C 0.11199 0.15879 0.92158 0.0
C224 C 0.07286 0.09282 0.875 0.0
C225 C 0.09769 0.33627 0.86141 0.0
C226 C 0.10685 0.44257 0.86607 0.0
C227 C 0.11147 0.40837 0.88415 0.0
C228 C 0.10696 0.35573 0.88184 0.0
C229 C 0.09348 0.37004 0.84327 0.0
C230 C 0.09803 0.4225 0.84553 0.0
C231 C 0.09161 0.28149 0.85866 0.0
H232 H 0.10317 0.85081 0.86398 0.0
H233 H 0.10907 0.94258 0.87125 0.0
H234 H 0.17122 0.90779 0.91132 0.0
H235 H 0.16531 0.81627 0.9045 0.0
H236 H 0.11807 0.42238 0.90028 0.0
H237 H 0.11043 0.3304 0.89609 0.0
H238 H 0.08646 0.35583 0.82732 0.0
H239 H 0.0947 0.44732 0.83109 0.0
Dy240 Dy 0.85369 0.09402 0.63369 0.0
Dy241 Dy 0.87748 0.2093 0.64338 0.0
C242 C 0.86366 0.13273 0.6824 0.0
O243 O 0.82513 0.15032 0.62514 0.0
O244 O 0.83828 0.21844 0.64652 0.0
O245 O 0.84112 1.0236 0.64857 0.0
O246 O 0.83802 0.03535 0.61218 0.0
O247 O 0.86786 0.20561 0.60632 0.0
O248 O 0.87226 0.11876 0.60205 0.0
O249 O 0.9084 0.15878 0.6364 0.0
O250 O 0.89195 0.07812 0.64121 0.0
O251 O 0.90028 0.27254 0.63407 0.0
O252 O 0.88043 0.27491 0.66571 0.0
C253 C 0.82164 0.19516 0.63476 0.0
O254 O 0.84609 0.12074 0.6689 0.0
O255 O 0.88148 0.15978 0.67446 0.0
C256 C 0.84185 0.94942 0.62565 0.0
C257 C 0.85168 0.84306 0.62413 0.0
C258 C 0.86925 0.87815 0.63116 0.0
C259 C 0.86437 0.93086 0.63195 0.0
C260 C 0.82464 0.91486 0.61782 0.0
C261 C 0.82948 0.86228 0.61703 0.0
C262 C 0.83511 1.00351 0.62912 0.0
C263 C 0.87135 0.16519 0.59338 0.0
C264 C 0.91037 0.10886 0.63886 0.0
C265 C 0.8889 0.35443 0.64785 0.0
C266 C 0.88048 0.46022 0.64047 0.0
C267 C 0.87138 0.42322 0.62534 0.0
C268 C 0.87553 0.37081 0.62901 0.0
C269 C 0.8977 0.39102 0.6631 0.0
C270 C 0.89353 0.44327 0.6595 0.0
C271 C 0.89439 0.2998 0.6518 0.0
H272 H 0.88647 0.86476 0.6369 0.0
H273 H 0.8779 0.9569 0.63813 0.0
H274 H 0.80716 0.9284 0.61289 0.0
H275 H 0.81569 0.83658 0.61112 0.0
H276 H 0.86142 0.43478 0.61043 0.0
H277 H 0.86852 0.34316 0.61703 0.0
H278 H 0.90795 0.37915 0.67781 0.0
H279 H 0.90041 0.47038 0.67177 0.0
Dy280 Dy 0.13248 0.98294 0.6227 0.0
Dy281 Dy 0.11003 0.86771 0.63701 0.0
C282 C 0.11979 0.95553 0.6743 0.0
O283 O 0.16109 0.92477 0.61622 0.0
O284 O 0.14893 0.86531 0.64249 0.0
O285 O 0.15792 0.04436 0.62748 0.0
O286 O 0.13244 0.0482 0.59994 0.0
O287 O 0.12043 0.86275 0.60007 0.0
O288 O 0.11652 0.94822 0.5919 0.0
O289 O 0.07895 0.91688 0.62866 0.0
O290 O 0.0949 0.99792 0.63303 0.0
O291 O 0.08788 0.80203 0.6297 0.0
O292 O 0.10836 0.80448 0.66086 0.0
C293 C 0.16506 0.88364 0.62864 0.0
O294 O 0.13503 0.9772 0.66035 0.0
O295 O 0.10575 0.91783 0.66782 0.0
C296 C 0.14492 0.12743 0.61538 0.0
C297 C 0.13754 0.23386 0.62202 0.0
C298 C 0.13866 0.20004 0.64073 0.0
C299 C 0.14223 0.1473 0.63745 0.0
C300 C 0.14385 0.16108 0.59676 0.0
C301 C 0.14017 0.21358 0.60001 0.0
C302 C 0.14903 0.07223 0.61109 0.0
C303 C 0.11826 0.90044 0.5853 0.0
C304 C 0.07662 0.96666 0.63122 0.0
C305 C 0.10072 0.72265 0.64521 0.0
C306 C 0.11151 0.61716 0.64053 0.0
C307 C 0.12247 0.65401 0.6264 0.0
C308 C 0.11717 0.70632 0.62876 0.0
C309 C 0.08989 0.68619 0.65935 0.0
C310 C 0.0952 0.63407 0.65707 0.0
C311 C 0.09444 0.7772 0.64794 0.0
H312 H 0.13647 0.21425 0.6579 0.0
H313 H 0.14285 0.12218 0.65213 0.0
H314 H 0.14596 0.1467 0.5796 0.0
H315 H 0.13976 0.23844 0.58523 0.0
H316 H 0.1353 0.64248 0.61366 0.0
H317 H 0.12584 0.73396 0.61775 0.0
H318 H 0.07713 0.69804 0.67213 0.0
H319 H 0.08616 0.6069 0.66802 0.0
Dy320 Dy 0.60972 0.69931 0.13712 0.0
Dy321 Dy 0.63505 0.58451 0.13088 0.0
C322 C 0.61894 0.65059 0.08795 0.0
O323 O 0.58005 0.64768 0.12798 0.0
O324 O 0.59633 0.56917 0.13729 0.0
O325 O 0.58735 0.76201 0.12613 0.0
O326 O 0.60439 0.76466 0.15917 0.0
O327 O 0.6416 0.61625 0.16541 0.0
O328 O 0.6052 0.65158 0.16883 0.0
O329 O 0.66377 0.64072 0.1223 0.0
O330 O 0.64861 0.71235 0.14004 0.0
O331 O 0.646 0.51516 0.14786 0.0
O332 O 0.65291 0.52445 0.11183 0.0
C333 C 0.57797 0.59849 0.13222 0.0
O334 O 0.61994 0.69278 0.10025 0.0
O335 O 0.61912 0.60483 0.0974 0.0
C336 C 0.59707 0.8441 0.14087 0.0
C337 C 0.60622 0.95006 0.1348 0.0
C338 C 0.61747 0.91324 0.12093 0.0
C339 C 0.61296 0.86074 0.12396 0.0
C340 C 0.58603 0.8805 0.15483 0.0
C341 C 0.59055 0.93282 0.15188 0.0
C342 C 0.59151 0.7893 0.14428 0.0
C343 C 0.6233 0.62766 0.17809 0.0
C344 C 0.666 0.68799 0.12981 0.0
C345 C 0.64766 0.43944 0.12591 0.0
C346 C 0.63776 0.33312 0.12383 0.0
C347 C 0.61957 0.36863 0.12872 0.0
C348 C 0.62448 0.42131 0.12979 0.0
C349 C 0.66562 0.40441 0.12031 0.0
C350 C 0.66075 0.35187 0.11926 0.0
C351 C 0.65402 0.49377 0.12936 0.0
H352 H 0.62948 0.92498 0.1075 0.0
H353 H 0.62174 0.83322 0.11303 0.0
H354 H 0.57383 0.86842 0.16808 0.0
H355 H 0.58193 0.95974 0.16319 0.0
H356 H 0.6017 0.35561 0.1325 0.0
H357 H 0.61035 0.44772 0.13423 0.0
H358 H 0.68362 0.41761 0.11726 0.0
H359 H 0.67509 0.32585 0.11504 0.0
Dy360 Dy 0.37942 0.35617 0.13782 0.0
Dy361 Dy 0.35461 0.47118 0.13086 0.0
C362 C 0.36894 0.40217 0.08842 0.0
O363 O 0.40908 0.40723 0.1278 0.0
O364 O 0.39329 0.48579 0.13742 0.0
O365 O 0.40154 0.2931 0.12691 0.0
O366 O 0.38492 0.29119 0.16018 0.0
O367 O 0.34815 0.44118 0.16579 0.0
O368 O 0.38425 0.40412 0.1693 0.0
O369 O 0.32531 0.41557 0.12379 0.0
O370 O 0.34054 0.34435 0.14196 0.0
O371 O 0.34318 0.54071 0.14725 0.0
O372 O 0.33788 0.5316 0.11101 0.0
C373 C 0.41148 0.45624 0.13216 0.0
O374 O 0.36788 0.36079 0.10129 0.0
O375 O 0.3696 0.44838 0.09729 0.0
C376 C 0.3919 0.21137 0.14228 0.0
C377 C 0.3825 0.10542 0.13714 0.0
C378 C 0.37194 0.14168 0.12247 0.0
C379 C 0.37653 0.19422 0.12506 0.0
C380 C 0.40237 0.17543 0.15692 0.0
C381 C 0.39774 0.12308 0.15442 0.0
C382 C 0.39756 0.26619 0.14526 0.0
C383 C 0.3663 0.42862 0.17847 0.0
C384 C 0.32293 0.369 0.13216 0.0
C385 C 0.34313 0.61632 0.12513 0.0
C386 C 0.35436 0.72205 0.12338 0.0
C387 C 0.37203 0.68539 0.12843 0.0
C388 C 0.36647 0.63301 0.1293 0.0
C389 C 0.32566 0.65247 0.11946 0.0
C390 C 0.33118 0.70474 0.11857 0.0
C391 C 0.33613 0.56231 0.12842 0.0
H392 H 0.35992 0.12949 0.10915 0.0
H393 H 0.36814 0.22139 0.11364 0.0
H394 H 0.41432 0.18787 0.17028 0.0
H395 H 0.40644 0.09634 0.16582 0.0
H396 H 0.39013 0.6972 0.13192 0.0
H397 H 0.38024 0.60568 0.13371 0.0
H398 H 0.30751 0.64039 0.11636 0.0
H399 H 0.31704 0.73171 0.11492 0.0
Dy400 Dy 0.60858 0.35002 0.36479 0.0
Dy401 Dy 0.63316 0.46495 0.37374 0.0
C402 C 0.61452 0.39665 0.41457 0.0
O403 O 0.57788 0.40125 0.37106 0.0
O404 O 0.59485 0.4815 0.36634 0.0
O405 O 0.58599 0.28684 0.37473 0.0
O406 O 0.60506 0.28417 0.34268 0.0
O407 O 0.6404 0.4374 0.33855 0.0
O408 O 0.60485 0.39868 0.33333 0.0
O409 O 0.66121 0.40759 0.38299 0.0
O410 O 0.6476 0.33972 0.36174 0.0
O411 O 0.64574 0.53492 0.35841 0.0
O412 O 0.64954 0.52366 0.39474 0.0
C413 C 0.57623 0.45115 0.36847 0.0
O414 O 0.61772 0.35549 0.40198 0.0
O415 O 0.61416 0.44272 0.40551 0.0
C416 C 0.597 0.20476 0.36079 0.0
C417 C 0.60583 0.09897 0.36792 0.0
C418 C 0.61596 0.13616 0.38235 0.0
C419 C 0.6116 0.18857 0.37881 0.0
C420 C 0.58714 0.16799 0.34625 0.0
C421 C 0.5915 0.11576 0.34972 0.0
C422 C 0.59143 0.25941 0.35692 0.0
C423 C 0.6227 0.42539 0.32518 0.0
C424 C 0.66419 0.36197 0.37389 0.0
C425 C 0.64569 0.60948 0.38111 0.0
C426 C 0.6359 0.71593 0.38273 0.0
C427 C 0.618 0.68065 0.37669 0.0
C428 C 0.62286 0.62792 0.37585 0.0
C429 C 0.66329 0.64425 0.38791 0.0
C430 C 0.65848 0.69685 0.38874 0.0
C431 C 0.65221 0.55521 0.37767 0.0
H432 H 0.62692 0.12477 0.39663 0.0
H433 H 0.61946 0.21637 0.39022 0.0
H434 H 0.57593 0.1797 0.33216 0.0
H435 H 0.58379 0.08854 0.33796 0.0
H436 H 0.60048 0.6939 0.3718 0.0
H437 H 0.60902 0.60173 0.37046 0.0
H438 H 0.68102 0.63083 0.39202 0.0
H439 H 0.67256 0.72267 0.39387 0.0
Dy440 Dy 0.37703 0.69331 0.36823 0.0
Dy441 Dy 0.35324 0.57795 0.37683 0.0
C442 C 0.36966 0.64763 0.41787 0.0
O443 O 0.40777 0.64255 0.37537 0.0
O444 O 0.39153 0.56235 0.36919 0.0
O445 O 0.39983 0.75572 0.3788 0.0
O446 O 0.38074 0.76012 0.34679 0.0
O447 O 0.34663 0.6044 0.3413 0.0
O448 O 0.38171 0.64582 0.33667 0.0
O449 O 0.32427 0.63391 0.38458 0.0
O450 O 0.33802 0.7026 0.36379 0.0
O451 O 0.34026 0.50822 0.36182 0.0
O452 O 0.33784 0.51863 0.3983 0.0
C453 C 0.4099 0.593 0.37203 0.0
O454 O 0.36623 0.68826 0.40498 0.0
O455 O 0.37112 0.6016 0.40897 0.0
C456 C 0.38871 0.83834 0.36589 0.0
C457 C 0.37917 0.94343 0.37331 0.0
C458 C 0.36041 0.90801 0.37096 0.0
C459 C 0.36514 0.85588 0.36736 0.0
C460 C 0.4074 0.87339 0.36845 0.0
C461 C 0.40272 0.92535 0.37215 0.0
C462 C 0.39434 0.78412 0.36128 0.0
C463 C 0.36433 0.61826 0.32823 0.0
C464 C 0.32101 0.67887 0.3749 0.0
C465 C 0.34187 0.43323 0.38447 0.0
C466 C 0.35147 0.32679 0.38641 0.0
C467 C 0.36703 0.3604 0.37494 0.0
C468 C 0.3623 0.4131 0.37401 0.0
C469 C 0.32681 0.40023 0.3966 0.0
C470 C 0.33157 0.34763 0.39764 0.0
C471 C 0.3348 0.48729 0.38128 0.0
H472 H 0.34208 0.92055 0.37203 0.0
H473 H 0.35042 0.8294 0.36558 0.0
H474 H 0.42571 0.86061 0.36733 0.0
H475 H 0.41757 0.95156 0.3736 0.0
H476 H 0.38241 0.34583 0.36594 0.0
H477 H 0.37422 0.43783 0.36453 0.0
H478 H 0.31098 0.41498 0.40482 0.0
H479 H 0.31946 0.32319 0.40702 0.0
Dy480 Dy 0.34887 0.46296 0.8755 0.0
Dy481 Dy 0.37323 0.34782 0.86671 0.0
C482 C 0.35933 0.42317 0.827 0.0
O483 O 0.32075 0.406 0.88493 0.0
O484 O 0.33415 0.33748 0.86396 0.0
O485 O 0.3364 0.53298 0.86015 0.0
O486 O 0.33249 0.52171 0.89648 0.0
O487 O 0.36437 0.35375 0.90395 0.0
O488 O 0.36802 0.44101 0.90722 0.0
O489 O 0.40403 0.39893 0.87276 0.0
O490 O 0.38716 0.47926 0.86794 0.0
O491 O 0.39584 0.28467 0.87664 0.0
O492 O 0.37666 0.28186 0.84466 0.0
C493 C 0.31761 0.3603 0.87599 0.0
O494 O 0.3416 0.43534 0.84033 0.0
O495 O 0.37707 0.39623 0.8352 0.0
C496 C 0.33638 0.6075 0.88288 0.0
C497 C 0.34617 0.71388 0.88459 0.0
C498 C 0.36408 0.67863 0.87855 0.0
C499 C 0.35922 0.62591 0.87766 0.0
C500 C 0.31877 0.64224 0.88968 0.0
C501 C 0.32358 0.69482 0.89056 0.0
C502 C 0.32987 0.55327 0.87941 0.0
C503 C 0.3677 0.39506 0.9164 0.0
C504 C 0.40575 0.4488 0.87004 0.0
C505 C 0.38485 0.20255 0.86278 0.0
C506 C 0.37612 0.09679 0.86996 0.0
C507 C 0.36597 0.13397 0.88439 0.0
C508 C 0.37028 0.18637 0.88082 0.0
C509 C 0.39474 0.16579 0.84823 0.0
C510 C 0.39042 0.11357 0.85173 0.0
C511 C 0.39036 0.25719 0.85886 0.0
H512 H 0.38162 0.6919 0.87369 0.0
H513 H 0.37308 0.59973 0.87226 0.0
H514 H 0.30103 0.62881 0.89377 0.0
H515 H 0.30949 0.72063 0.89569 0.0
H516 H 0.35502 0.12257 0.8987 0.0
H517 H 0.36241 0.21418 0.89223 0.0
H518 H 0.40592 0.17751 0.83413 0.0
H519 H 0.39815 0.08634 0.83998 0.0
Dy520 Dy 0.62866 0.57711 0.87503 0.0
Dy521 Dy 0.60452 0.69226 0.86629 0.0
C522 C 0.6176 0.61725 0.82639 0.0
O523 O 0.65748 0.63353 0.88273 0.0
O524 O 0.64349 0.70172 0.86176 0.0
O525 O 0.64188 0.50758 0.86001 0.0
O526 O 0.64399 0.51771 0.89651 0.0
O527 O 0.6155 0.68761 0.903 0.0
O528 O 0.61085 0.60092 0.9072 0.0
O529 O 0.57393 0.64124 0.87358 0.0
O530 O 0.59038 0.56118 0.86748 0.0
O531 O 0.58167 0.75466 0.87683 0.0
O532 O 0.60071 0.75895 0.84478 0.0
C533 C 0.66056 0.67851 0.873 0.0
O534 O 0.63528 0.60364 0.83951 0.0
O535 O 0.60007 0.64454 0.83476 0.0
C536 C 0.64008 0.43238 0.88252 0.0
C537 C 0.6304 0.32589 0.88427 0.0
C538 C 0.61494 0.35967 0.87277 0.0
C539 C 0.6197 0.41237 0.87194 0.0
C540 C 0.65506 0.3992 0.89467 0.0
C541 C 0.65026 0.34659 0.8956 0.0
C542 C 0.64718 0.48649 0.87948 0.0
C543 C 0.61226 0.64706 0.91599 0.0
C544 C 0.57194 0.59164 0.87035 0.0
C545 C 0.59275 0.83728 0.86383 0.0
C546 C 0.60232 0.94245 0.87114 0.0
C547 C 0.62106 0.9069 0.86898 0.0
C548 C 0.61632 0.85475 0.86544 0.0
C549 C 0.57407 0.87245 0.8662 0.0
C550 C 0.57877 0.92444 0.86984 0.0
C551 C 0.58712 0.78301 0.85928 0.0
H552 H 0.5996 0.34524 0.86369 0.0
H553 H 0.60785 0.43722 0.86245 0.0
H554 H 0.67085 0.41383 0.90298 0.0
H555 H 0.6623 0.32205 0.90501 0.0
H556 H 0.63939 0.91935 0.87017 0.0
H557 H 0.63103 0.82818 0.86382 0.0
H558 H 0.55576 0.85974 0.86497 0.0
H559 H 0.56392 0.95072 0.87114 0.0
Dy560 Dy 0.34932 0.5831 0.63275 0.0
Dy561 Dy 0.37483 0.69765 0.63917 0.0
C562 C 0.3611 0.62587 0.68003 0.0
O563 O 0.32069 0.63972 0.62428 0.0
O564 O 0.33601 0.71066 0.6424 0.0
O565 O 0.33824 0.5138 0.64971 0.0
O566 O 0.3315 0.52307 0.61365 0.0
O567 O 0.36433 0.69166 0.60234 0.0
O568 O 0.36509 0.60377 0.59925 0.0
O569 O 0.40437 0.64604 0.62971 0.0
O570 O 0.38807 0.5675 0.63893 0.0
O571 O 0.39718 0.76042 0.6282 0.0
O572 O 0.38025 0.76285 0.66131 0.0
C573 C 0.31859 0.68689 0.63197 0.0
O574 O 0.34281 0.61469 0.66732 0.0
O575 O 0.37929 0.64958 0.6708 0.0
C576 C 0.33675 0.43803 0.62776 0.0
C577 C 0.34668 0.33166 0.62576 0.0
C578 C 0.36476 0.36713 0.63105 0.0
C579 C 0.35983 0.41982 0.63207 0.0
C580 C 0.31891 0.40305 0.62178 0.0
C581 C 0.3238 0.35049 0.62076 0.0
C582 C 0.33033 0.49238 0.63118 0.0
C583 C 0.3652 0.64964 0.58992 0.0
C584 C 0.40643 0.59678 0.63377 0.0
C585 C 0.38741 0.84244 0.64305 0.0
C586 C 0.3782 0.94846 0.63706 0.0
C587 C 0.36734 0.91172 0.62288 0.0
C588 C 0.37188 0.85921 0.62586 0.0
C589 C 0.39804 0.87876 0.65733 0.0
C590 C 0.39349 0.93109 0.65441 0.0
C591 C 0.39304 0.78763 0.64638 0.0
H592 H 0.38253 0.35407 0.63516 0.0
H593 H 0.37387 0.44617 0.63681 0.0
H594 H 0.30099 0.41629 0.61839 0.0
H595 H 0.30954 0.32452 0.61624 0.0
H596 H 0.35563 0.92355 0.60922 0.0
H597 H 0.3634 0.83178 0.61468 0.0
H598 H 0.40996 0.8666 0.67078 0.0
H599 H 0.4018 0.95792 0.66597 0.0
Dy600 Dy 0.62984 0.47025 0.62917 0.0
Dy601 Dy 0.60525 0.35502 0.63592 0.0
C602 C 0.61811 0.4273 0.67671 0.0
O603 O 0.65925 0.41502 0.62208 0.0
O604 O 0.64418 0.34325 0.63993 0.0
O605 O 0.6408 0.54008 0.64555 0.0
O606 O 0.64701 0.5303 0.60945 0.0
O607 O 0.61662 0.36025 0.59935 0.0
O608 O 0.61466 0.44787 0.59562 0.0
O609 O 0.57543 0.40608 0.62625 0.0
O610 O 0.59117 0.4847 0.63585 0.0
O611 O 0.58283 0.2925 0.62503 0.0
O612 O 0.60014 0.28932 0.65796 0.0
C613 C 0.66177 0.36842 0.63034 0.0
O614 O 0.63627 0.44008 0.66408 0.0
O615 O 0.60027 0.40253 0.66749 0.0
C616 C 0.64178 0.61541 0.62317 0.0
C617 C 0.63184 0.72163 0.62093 0.0
C618 C 0.61398 0.68639 0.62718 0.0
C619 C 0.61891 0.63374 0.62833 0.0
C620 C 0.65934 0.65014 0.61617 0.0
C621 C 0.65444 0.70265 0.61503 0.0
C622 C 0.64836 0.56126 0.62679 0.0
C623 C 0.61536 0.4018 0.5866 0.0
C624 C 0.57299 0.45504 0.63072 0.0
C625 C 0.59268 0.21021 0.63961 0.0
C626 C 0.60144 0.10434 0.63322 0.0
C627 C 0.61141 0.14107 0.61839 0.0
C628 C 0.60709 0.19354 0.62157 0.0
C629 C 0.58296 0.17389 0.65455 0.0
C630 C 0.5873 0.12159 0.65144 0.0
C631 C 0.58716 0.26493 0.64312 0.0
H632 H 0.59643 0.69963 0.63199 0.0
H633 H 0.60509 0.60756 0.63384 0.0
H634 H 0.67709 0.63675 0.61212 0.0
H635 H 0.66849 0.72848 0.60974 0.0
H636 H 0.62222 0.12927 0.60408 0.0
H637 H 0.61483 0.22099 0.60985 0.0
H638 H 0.57191 0.186 0.66866 0.0
H639 H 0.57972 0.09468 0.66348 0.0
H640 H 0.20649 0.15116 0.11695 0.0
H641 H 0.17551 0.28584 0.14792 0.0
H642 H 0.24461 0.19561 0.11411 0.0
H643 H 0.21355 0.32961 0.14532 0.0
H644 H 0.28012 0.40901 0.11844 0.0
H645 H 0.24176 0.36507 0.117 0.0
H646 H 0.27497 0.22603 0.14132 0.0
H647 H 0.31318 0.26929 0.14249 0.0
C648 C 0.20778 0.19015 0.12313 0.0
C649 C 0.18801 0.21477 0.13281 0.0
C650 C 0.22961 0.21552 0.12156 0.0
C651 C 0.23203 0.26606 0.1295 0.0
C652 C 0.21216 0.29091 0.13882 0.0
C653 C 0.19041 0.26554 0.14049 0.0
C654 C 0.27924 0.36903 0.12337 0.0
C655 C 0.29967 0.34281 0.13073 0.0
C656 C 0.25728 0.34395 0.12262 0.0
C657 C 0.25541 0.29214 0.12906 0.0
C658 C 0.27591 0.26577 0.136 0.0
C659 C 0.29778 0.29081 0.13687 0.0
H660 H 0.78058 0.9097 0.10667 0.0
H661 H 0.81091 0.7823 0.14387 0.0
H662 H 0.74279 0.86312 0.10401 0.0
H663 H 0.77349 0.73655 0.14131 0.0
H664 H 0.70917 0.64875 0.11677 0.0
H665 H 0.74681 0.69499 0.11313 0.0
H666 H 0.71167 0.83579 0.13211 0.0
H667 H 0.67416 0.79011 0.13555 0.0
C668 C 0.77922 0.87186 0.11419 0.0
C669 C 0.79863 0.84998 0.12568 0.0
C670 C 0.75763 0.84528 0.1127 0.0
C671 C 0.75526 0.79617 0.12242 0.0
C672 C 0.77486 0.774 0.13342 0.0
C673 C 0.79624 0.80061 0.13509 0.0
C674 C 0.70946 0.6896 0.12002 0.0
C675 C 0.68874 0.71556 0.12673 0.0
C676 C 0.73099 0.71603 0.11797 0.0
C677 C 0.73214 0.76897 0.12238 0.0
C678 C 0.71128 0.79515 0.12838 0.0
C679 C 0.68984 0.76874 0.1306 0.0
H680 H 0.30962 0.77633 0.36204 0.0
H681 H 0.27926 0.63869 0.39119 0.0
H682 H 0.27091 0.81762 0.36338 0.0
H683 H 0.24042 0.68059 0.39271 0.0
H684 H 0.17207 0.75202 0.36195 0.0
H685 H 0.21074 0.71062 0.3643 0.0
H686 H 0.2412 0.84991 0.39115 0.0
H687 H 0.20246 0.89188 0.38858 0.0
C688 C 0.29472 0.75488 0.36882 0.0
C689 C 0.29751 0.70403 0.37637 0.0
C690 C 0.27257 0.77879 0.36976 0.0
C691 C 0.25267 0.75235 0.37816 0.0
C692 C 0.25545 0.70171 0.38597 0.0
C693 C 0.27769 0.67782 0.38516 0.0
C694 C 0.18697 0.77394 0.36838 0.0
C695 C 0.18421 0.82545 0.37491 0.0
C696 C 0.20909 0.74999 0.36991 0.0
C697 C 0.22896 0.77703 0.3779 0.0
C698 C 0.22619 0.82831 0.38472 0.0
C699 C 0.20401 0.85225 0.38332 0.0
H700 H 0.80932 0.26557 0.36508 0.0
H701 H 0.7762 0.13502 0.39767 0.0
H702 H 0.7721 0.31227 0.36691 0.0
H703 H 0.73862 0.18248 0.39953 0.0
H704 H 0.67242 0.26077 0.36596 0.0
H705 H 0.7095 0.2139 0.3703 0.0
H706 H 0.74387 0.35121 0.39473 0.0
H707 H 0.70661 0.3987 0.39024 0.0
C708 C 0.7941 0.24679 0.37272 0.0
C709 C 0.79568 0.19628 0.38105 0.0
C710 C 0.77282 0.2739 0.37397 0.0
C711 C 0.7525 0.25111 0.38342 0.0
C712 C 0.75404 0.20084 0.39205 0.0
C713 C 0.77551 0.17374 0.39102 0.0
C714 C 0.68784 0.28113 0.3723 0.0
C715 C 0.68667 0.33373 0.37747 0.0
C716 C 0.70902 0.25401 0.37503 0.0
C717 C 0.72954 0.27889 0.38284 0.0
C718 C 0.7283 0.3312 0.38851 0.0
C719 C 0.707 0.35834 0.38597 0.0
H720 H 0.70244 0.64032 0.88997 0.0
H721 H 0.67128 0.77604 0.85984 0.0
H722 H 0.74084 0.68408 0.89195 0.0
H723 H 0.7095 0.81912 0.86165 0.0
H724 H 0.77649 0.89739 0.88761 0.0
H725 H 0.73822 0.85337 0.88978 0.0
H726 H 0.77076 0.71522 0.86398 0.0
H727 H 0.80897 0.75864 0.86203 0.0
C728 C 0.70374 0.67939 0.88381 0.0
C729 C 0.68383 0.70454 0.87463 0.0
C730 C 0.72572 0.70435 0.88489 0.0
C731 C 0.72811 0.755 0.87698 0.0
C732 C 0.70813 0.78033 0.86814 0.0
C733 C 0.68626 0.75537 0.86693 0.0
C734 C 0.7755 0.85758 0.88249 0.0
C735 C 0.79574 0.83169 0.87448 0.0
C736 C 0.75358 0.83246 0.88368 0.0
C737 C 0.75154 0.7809 0.87703 0.0
C738 C 0.77186 0.75478 0.86945 0.0
C739 C 0.7937 0.7799 0.86814 0.0
H740 H 0.30851 0.25934 0.86804 0.0
H741 H 0.27551 0.39865 0.8923 0.0
H742 H 0.27095 0.21408 0.87228 0.0
H743 H 0.23782 0.35286 0.89668 0.0
H744 H 0.17173 0.27095 0.8664 0.0
H745 H 0.20948 0.31562 0.86855 0.0
H746 H 0.24114 0.18399 0.90139 0.0
H747 H 0.203 0.13857 0.89917 0.0
C748 C 0.29326 0.28032 0.87436 0.0
C749 C 0.29491 0.33285 0.87954 0.0
C750 C 0.27181 0.25414 0.87703 0.0
C751 C 0.25149 0.27994 0.88478 0.0
C752 C 0.25322 0.33215 0.89049 0.0
C753 C 0.27477 0.35832 0.88801 0.0
C754 C 0.18667 0.25134 0.87414 0.0
C755 C 0.18445 0.20091 0.8824 0.0
C756 C 0.20825 0.27728 0.87558 0.0
C757 C 0.22822 0.25336 0.88518 0.0
C758 C 0.226 0.2032 0.8938 0.0
C759 C 0.20422 0.17729 0.89258 0.0
H760 H 0.67228 0.26897 0.64069 0.0
H761 H 0.70437 0.41021 0.61719 0.0
H762 H 0.71097 0.22745 0.64004 0.0
H763 H 0.74316 0.36808 0.61628 0.0
H764 H 0.80979 0.29209 0.64789 0.0
H765 H 0.77126 0.3339 0.64501 0.0
H766 H 0.74213 0.19871 0.61315 0.0
H767 H 0.78072 0.15628 0.61627 0.0
C768 C 0.68756 0.29118 0.63529 0.0
C769 C 0.68525 0.34309 0.62915 0.0
C770 C 0.70971 0.26715 0.63473 0.0
C771 C 0.73006 0.29451 0.62812 0.0
C772 C 0.72777 0.34622 0.62167 0.0
C773 C 0.70555 0.37025 0.62211 0.0
C774 C 0.79521 0.27114 0.64025 0.0
C775 C 0.79829 0.22064 0.63246 0.0
C776 C 0.77318 0.29536 0.63843 0.0
C777 C 0.75371 0.26959 0.62885 0.0
C778 C 0.75681 0.21931 0.62081 0.0
C779 C 0.77891 0.1951 0.62252 0.0
H780 H 0.17427 0.7876 0.64423 0.0
H781 H 0.20676 0.91432 0.60824 0.0
H782 H 0.2112 0.73993 0.64206 0.0
H783 H 0.24402 0.86575 0.60592 0.0
H784 H 0.31121 0.78911 0.63798 0.0
H785 H 0.27422 0.83641 0.63422 0.0
H786 H 0.23805 0.69747 0.61438 0.0
H787 H 0.27522 0.6495 0.61837 0.0
C788 C 0.18931 0.80536 0.63581 0.0
C789 C 0.18767 0.85512 0.62664 0.0
C790 C 0.21041 0.77764 0.63434 0.0
C791 C 0.23045 0.79901 0.62377 0.0
C792 C 0.22882 0.8485 0.61429 0.0
C793 C 0.20754 0.87623 0.61559 0.0
C794 C 0.29541 0.76845 0.63279 0.0
C795 C 0.29609 0.71528 0.62877 0.0
C796 C 0.27427 0.79581 0.63038 0.0
C797 C 0.25327 0.77066 0.62402 0.0
C798 C 0.25398 0.71773 0.61949 0.0
C799 C 0.27524 0.6903 0.62174 0.0
H800 H 0.08037 0.95926 0.30612 0.0
H801 H 0.1542 0.92338 0.29451 0.0
H802 H 0.08017 1.01407 0.27245 0.0
H803 H 0.15381 0.97443 0.25987 0.0
H804 H 0.15689 0.10762 0.21244 0.0
H805 H 0.15497 0.05608 0.24689 0.0
H806 H 0.08045 0.02597 0.23395 0.0
H807 H 0.08227 0.08123 0.20048 0.0
C808 C 0.09635 0.96188 0.29587 0.0
C809 C 0.11728 0.93704 0.30279 0.0
C810 C 0.09631 0.99338 0.2765 0.0
C811 C 0.11709 0.9998 0.26332 0.0
C812 C 0.13764 0.97237 0.26981 0.0
C813 C 0.13783 0.94222 0.2895 0.0
C814 C 0.14003 0.09069 0.2173 0.0
C815 C 0.11971 0.09871 0.20397 0.0
C816 C 0.13894 0.06028 0.23688 0.0
C817 C 0.11764 0.03544 0.24324 0.0
C818 C 0.09714 0.04461 0.23 0.0
C819 C 0.09812 0.07637 0.21074 0.0
H820 H 0.88309 0.14305 0.29518 0.0
H821 H 0.84839 1.0045 0.3182 0.0
H822 H 0.88564 0.10717 0.25667 0.0
H823 H 0.85116 0.96892 0.28006 0.0
H824 H 0.8819 0.90324 0.21357 0.0
H825 H 0.88323 0.9397 0.25195 0.0
H826 H 0.85487 0.0822 0.22618 0.0
H827 H 0.8533 0.04599 0.18803 0.0
C828 C 0.8761 0.10501 0.29206 0.0
C829 C 0.86534 0.07689 0.30969 0.0
C830 C 0.87752 0.08454 0.27006 0.0
C831 C 0.86865 0.03518 0.26542 0.0
C832 C 0.85834 1.00681 0.28316 0.0
C833 C 0.85656 0.02751 0.30497 0.0
C834 C 0.87601 0.94236 0.21611 0.0
C835 C 0.86728 0.97148 0.19779 0.0
C836 C 0.87674 0.96318 0.23805 0.0
C837 C 0.86918 1.01383 0.24202 0.0
C838 C 0.861 0.04326 0.22361 0.0
C839 C 0.8599 1.02225 0.20179 0.0
H840 H 0.90259 0.08975 0.70245 0.0
H841 H 0.82759 0.11608 0.71213 0.0
H842 H 0.90332 0.03483 0.73607 0.0
H843 H 0.82839 0.0649 0.74673 0.0
H844 H 0.82764 0.9319 0.79426 0.0
H845 H 0.82916 0.98318 0.7597 0.0
H846 H 0.90226 1.02315 0.7746 0.0
H847 H 0.90098 0.96814 0.80818 0.0
C848 C 0.88641 0.08497 0.71225 0.0
C849 C 0.86504 0.10715 0.70479 0.0
C850 C 0.88676 0.05342 0.73159 0.0
C851 C 0.86583 0.0443 0.74422 0.0
C852 C 0.84475 0.06906 0.7372 0.0
C853 C 0.8443 0.09927 0.71754 0.0
C854 C 0.84414 0.95088 0.78978 0.0
C855 C 0.86424 0.94572 0.80369 0.0
C856 C 0.84497 0.98116 0.77015 0.0
C857 C 0.8657 1.0087 0.76432 0.0
C858 C 0.88602 1.00236 0.77813 0.0
C859 C 0.88535 0.97075 0.79745 0.0
H860 H 0.10069 0.14926 0.79419 0.0
H861 H 0.13126 1.00782 0.81904 0.0
H862 H 0.09941 0.11326 0.7557 0.0
H863 H 0.12973 0.97206 0.78082 0.0
H864 H 0.10095 0.90984 0.71246 0.0
H865 H 0.09861 0.94583 0.75093 0.0
H866 H 0.13135 0.08551 0.72693 0.0
H867 H 0.13394 0.04976 0.68877 0.0
C868 C 0.10703 0.11055 0.79147 0.0
C869 C 0.11628 0.08164 0.80963 0.0
C870 C 0.10634 0.08999 0.76947 0.0
C871 C 0.11442 0.0398 0.7653 0.0
C872 C 0.12318 1.01062 0.78355 0.0
C873 C 0.12426 0.0314 0.80541 0.0
C874 C 0.10759 0.94822 0.71542 0.0
C875 C 0.11782 0.9767 0.69761 0.0
C876 C 0.1063 0.96877 0.73741 0.0
C877 C 0.11476 1.01853 0.74188 0.0
C878 C 0.1245 0.04729 0.72396 0.0
C879 C 0.12617 0.02652 0.70214 0.0
H880 H 0.58367 0.4662 0.30428 0.0
H881 H 0.65894 0.442 0.29552 0.0
H882 H 0.58279 0.51858 0.26989 0.0
H883 H 0.65803 0.49052 0.2602 0.0
H884 H 0.65807 0.61833 0.20981 0.0
H885 H 0.65689 0.57003 0.24519 0.0
H886 H 0.58377 0.52814 0.23141 0.0
H887 H 0.58472 0.58033 0.19696 0.0
C888 C 0.59991 0.47091 0.29456 0.0
C889 C 0.62137 0.44999 0.30251 0.0
C890 C 0.59946 0.50101 0.27474 0.0
C891 C 0.6204 0.50992 0.26207 0.0
C892 C 0.64162 0.48655 0.26966 0.0
C893 C 0.64215 0.45783 0.28979 0.0
C894 C 0.64164 0.59955 0.21468 0.0
C895 C 0.62145 0.60346 0.2008 0.0
C896 C 0.641 0.57094 0.23483 0.0
C897 C 0.62036 0.54374 0.24129 0.0
C898 C 0.59996 0.54873 0.22745 0.0
C899 C 0.60044 0.57872 0.2076 0.0
H900 H 0.40381 0.58015 0.30723 0.0
H901 H 0.32854 0.6034 0.29799 0.0
H902 H 0.40539 0.53066 0.27212 0.0
H903 H 0.33014 0.55792 0.262 0.0
H904 H 0.33126 0.43426 0.21002 0.0
H905 H 0.33187 0.47951 0.2461 0.0
H906 H 0.40487 0.52438 0.23348 0.0
H907 H 0.4045 0.47508 0.19827 0.0
C908 C 0.38773 0.57587 0.29726 0.0
C909 C 0.36606 0.59561 0.30526 0.0
C910 C 0.38857 0.54746 0.27704 0.0
C911 C 0.36783 0.53916 0.26403 0.0
C912 C 0.3464 0.56144 0.2717 0.0
C913 C 0.34547 0.58841 0.29222 0.0
C914 C 0.34754 0.45301 0.21529 0.0
C915 C 0.36787 0.45082 0.20152 0.0
C916 C 0.34785 0.47988 0.23584 0.0
C917 C 0.36828 0.50706 0.24283 0.0
C918 C 0.38883 0.50373 0.2291 0.0
C919 C 0.38869 0.47542 0.20883 0.0
H920 H 0.32332 0.4419 0.79732 0.0
H921 H 0.39878 0.46252 0.80627 0.0
H922 H 0.32483 0.49066 0.76208 0.0
H923 H 0.4003 0.5151 0.77196 0.0
H924 H 0.3992 0.57702 0.69901 0.0
H925 H 0.39955 0.52484 0.73349 0.0
H926 H 0.32683 0.57016 0.74713 0.0
H927 H 0.32623 0.61844 0.71173 0.0
C928 C 0.34027 0.45701 0.79165 0.0
C929 C 0.36094 0.44807 0.8044 0.0
C930 C 0.34116 0.48586 0.77157 0.0
C931 C 0.36263 0.50826 0.76405 0.0
C932 C 0.38343 0.4983 0.77676 0.0
C933 C 0.38262 0.46808 0.79653 0.0
C934 C 0.38346 0.57618 0.70964 0.0
C935 C 0.36271 0.60186 0.70279 0.0
C936 C 0.38358 0.5462 0.7295 0.0
C937 C 0.36309 0.54214 0.74329 0.0
C938 C 0.34276 0.57033 0.7368 0.0
C939 C 0.34246 0.59894 0.71664 0.0
H940 H 0.57856 0.57754 0.80525 0.0
H941 H 0.65361 0.60433 0.79622 0.0
H942 H 0.57763 0.52805 0.77011 0.0
H943 H 0.65262 0.55887 0.76021 0.0
H944 H 0.653 0.4349 0.70833 0.0
H945 H 0.65178 0.48034 0.74435 0.0
H946 H 0.5784 0.52174 0.73147 0.0
H947 H 0.57941 0.47227 0.69633 0.0
C948 C 0.59472 0.57405 0.79531 0.0
C949 C 0.61615 0.59477 0.80337 0.0
C950 C 0.59425 0.54564 0.77508 0.0
C951 C 0.61513 0.53832 0.76213 0.0
C952 C 0.63629 0.56161 0.76986 0.0
C953 C 0.63686 0.58858 0.79039 0.0
C954 C 0.63652 0.45294 0.71352 0.0
C955 C 0.61627 0.44972 0.69971 0.0
C956 C 0.63584 0.47991 0.73404 0.0
C957 C 0.61512 0.50616 0.74094 0.0
C958 C 0.59466 0.50182 0.72716 0.0
C959 C 0.59517 0.47342 0.70692 0.0
H960 H 0.1341 0.23254 0.94756 0.0
H961 H 0.08365 0.10806 0.95102 0.0
H962 H 0.13414 0.23766 0.98934 0.0
H963 H 0.08305 0.11407 0.99221 0.0
H964 H 0.11498 0.0815 0.06082 0.0
H965 H 0.11222 0.08912 0.01992 0.0
H966 H 0.11177 0.25422 0.02541 0.0
H967 H 0.11507 0.24664 0.06693 0.0
C968 C 0.12261 0.20724 0.95722 0.0
C969 C 0.10918 0.16935 0.94613 0.0
C970 C 0.1226 0.21013 0.9811 0.0
C971 C 0.10902 0.17543 0.99413 0.0
C972 C 0.09428 0.14033 0.98277 0.0
C973 C 0.09452 0.13706 0.95913 0.0
C974 C 0.11423 0.11959 0.05348 0.0
C975 C 0.11508 0.16346 0.06728 0.0
C976 C 0.11249 0.12395 0.02992 0.0
C977 C 0.11139 0.1723 0.01935 0.0
C978 C 0.1126 0.21642 0.03303 0.0
C979 C 0.11438 0.21204 0.0568 0.0
H980 H 0.86675 0.9665 0.94692 0.0
H981 H 0.86788 0.80129 0.94127 0.0
H982 H 0.86963 0.95953 0.98785 0.0
H983 H 0.87125 0.7944 0.9828 0.0
H984 H 0.8492 0.81698 0.06075 0.0
H985 H 0.84878 0.81123 0.019 0.0
H986 H 0.8995 0.93539 0.0153 0.0
H987 H 0.89934 0.94194 0.05648 0.0
C988 C 0.86776 0.92855 0.95437 0.0
C989 C 0.86727 0.88447 0.94069 0.0
C990 C 0.86957 0.92457 0.97794 0.0
C991 C 0.87107 0.87641 0.98862 0.0
C992 C 0.87012 0.83206 0.97508 0.0
C993 C 0.86829 0.83605 0.9513 0.0
C994 C 0.86055 0.84225 0.05092 0.0
C995 C 0.874 0.88045 0.06178 0.0
C996 C 0.86032 0.839 0.02706 0.0
C997 C 0.87368 0.87369 0.01381 0.0
C998 C 0.88845 0.90912 0.02493 0.0
C999 C 0.88846 0.91269 0.04856 0.0
H1000 H 0.09148 0.94806 0.4437 0.0
H1001 H 0.1284 0.80292 0.44191 0.0
H1002 H 0.09191 0.94615 0.48494 0.0
H1003 H 0.12947 0.8017 0.48371 0.0
H1004 H 0.10936 0.80986 0.56218 0.0
H1005 H 0.10619 0.79901 0.52066 0.0
H1006 H 0.12422 0.95865 0.51137 0.0
H1007 H 0.12687 0.9696 0.55202 0.0
C1008 C 0.09967 0.9156 0.45214 0.0
C1009 C 0.11026 0.87608 0.43954 0.0
C1010 C 0.09999 0.91457 0.47583 0.0
C1011 C 0.11123 0.87436 0.48764 0.0
C1012 C 0.1207 0.83323 0.47511 0.0
C1013 C 0.12016 0.83402 0.45121 0.0
C1014 C 0.1127 0.8424 0.55116 0.0
C1015 C 0.11792 0.89078 0.56044 0.0
C1016 C 0.11093 0.8362 0.52744 0.0
C1017 C 0.11441 0.87829 0.51273 0.0
C1018 C 0.12066 0.9258 0.52216 0.0
C1019 C 0.12228 0.932 0.54558 0.0
H1020 H 0.85527 0.24404 0.56618 0.0
H1021 H 0.89189 0.09856 0.56403 0.0
H1022 H 0.8541 0.24568 0.52441 0.0
H1023 H 0.89132 0.10086 0.52278 0.0
H1024 H 0.856 0.07881 0.45564 0.0
H1025 H 0.85898 0.08897 0.49633 0.0
H1026 H 0.87719 0.24865 0.4875 0.0
H1027 H 0.87372 0.23862 0.44599 0.0
C1028 C 0.86344 0.21297 0.55681 0.0
C1029 C 0.87328 0.1707 0.56837 0.0
C1030 C 0.86282 0.21398 0.53292 0.0
C1031 C 0.87216 0.17287 0.52028 0.0
C1032 C 0.88335 0.13245 0.53198 0.0
C1033 C 0.88376 0.1312 0.55567 0.0
C1034 C 0.86069 0.11625 0.4622 0.0
C1035 C 0.86499 0.15774 0.44747 0.0
C1036 C 0.86251 0.12199 0.48564 0.0
C1037 C 0.86889 0.1693 0.4952 0.0
C1038 C 0.87234 0.21162 0.48063 0.0
C1039 C 0.87039 0.20588 0.4569 0.0
H1040 H 0.60969 0.73492 0.06094 0.0
H1041 H 0.62567 0.57307 0.05776 0.0
H1042 H 0.60651 0.73747 0.01938 0.0
H1043 H 0.62331 0.57591 0.01669 0.0
H1044 H 0.59442 0.57824 0.94633 0.0
H1045 H 0.59478 0.58271 0.98755 0.0
H1046 H 0.62851 0.7314 0.98407 0.0
H1047 H 0.6273 0.72761 0.94247 0.0
C1048 C 0.61267 0.70002 0.05141 0.0
C1049 C 0.61769 0.6537 0.06274 0.0
C1050 C 0.61094 0.7015 0.02757 0.0
C1051 C 0.61434 0.65674 0.01459 0.0
C1052 C 0.6199 0.61088 0.02604 0.0
C1053 C 0.62142 0.60932 0.04971 0.0
C1054 C 0.6018 0.61208 0.95431 0.0
C1055 C 0.61105 0.65234 0.94109 0.0
C1056 C 0.60215 0.61454 0.97802 0.0
C1057 C 0.61209 0.657 0.98927 0.0
C1058 C 0.62062 0.69819 0.97604 0.0
C1059 C 0.62002 0.69596 0.95219 0.0
H1060 H 0.35352 0.31644 0.94461 0.0
H1061 H 0.38777 0.46458 0.94486 0.0
H1062 H 0.35431 0.31521 0.98628 0.0
H1063 H 0.38944 0.4626 0.98608 0.0
H1064 H 0.36199 0.47822 0.05738 0.0
H1065 H 0.36254 0.47267 0.01631 0.0
H1066 H 0.3776 0.31046 0.02074 0.0
H1067 H 0.3762 0.3158 0.06233 0.0
C1068 C 0.36156 0.34831 0.95354 0.0
C1069 C 0.37028 0.39092 0.94145 0.0
C1070 C 0.36209 0.34757 0.97743 0.0
C1071 C 0.37157 0.38922 0.98966 0.0
C1072 C 0.38133 0.43052 0.97737 0.0
C1073 C 0.38052 0.43153 0.95365 0.0
C1074 C 0.36548 0.44127 0.0497 0.0
C1075 C 0.36923 0.39752 0.06323 0.0
C1076 C 0.36596 0.43813 0.02602 0.0
C1077 C 0.37049 0.39125 0.01505 0.0
C1078 C 0.37394 0.34717 0.02856 0.0
C1079 C 0.37325 0.35026 0.0524 0.0
H1080 H 0.59477 0.46585 0.44341 0.0
H1081 H 0.62904 0.31772 0.44244 0.0
H1082 H 0.59363 0.46344 0.48465 0.0
H1083 H 0.62878 0.31606 0.4841 0.0
H1084 H 0.60787 0.31575 0.5604 0.0
H1085 H 0.60597 0.31091 0.51882 0.0
H1086 H 0.62087 0.4732 0.51459 0.0
H1087 H 0.62192 0.47826 0.55568 0.0
C1088 C 0.60213 0.43271 0.45204 0.0
C1089 C 0.61222 0.39222 0.43963 0.0
C1090 C 0.60163 0.43145 0.47577 0.0
C1091 C 0.61156 0.39003 0.48786 0.0
C1092 C 0.62089 0.34851 0.47542 0.0
C1093 C 0.62111 0.34949 0.45153 0.0
C1094 C 0.61069 0.35033 0.55052 0.0
C1095 C 0.61481 0.39747 0.56142 0.0
C1096 C 0.60971 0.34753 0.52668 0.0
C1097 C 0.61296 0.39177 0.51324 0.0
C1098 C 0.6176 0.43853 0.52427 0.0
C1099 C 0.61836 0.44139 0.54795 0.0
H1100 H 0.35816 0.57243 0.55966 0.0
H1101 H 0.37405 0.7343 0.56296 0.0
H1102 H 0.35996 0.57567 0.51858 0.0
H1103 H 0.37667 0.73725 0.52135 0.0
H1104 H 0.35483 0.72789 0.44466 0.0
H1105 H 0.35418 0.73139 0.48629 0.0
H1106 H 0.38813 0.58283 0.4891 0.0
H1107 H 0.38794 0.57865 0.44789 0.0
C1108 C 0.36228 0.60877 0.55163 0.0
C1109 C 0.36615 0.65304 0.5647 0.0
C1110 C 0.36347 0.61056 0.52794 0.0
C1111 C 0.36885 0.65655 0.51651 0.0
C1112 C 0.37238 0.7012 0.52954 0.0
C1113 C 0.37099 0.69948 0.55339 0.0
C1114 C 0.36228 0.6962 0.45424 0.0
C1115 C 0.37114 0.6527 0.44296 0.0
C1116 C 0.36199 0.69827 0.47811 0.0
C1117 C 0.37075 0.65702 0.49116 0.0
C1118 C 0.38058 0.61469 0.47972 0.0
C1119 C 0.38062 0.6124 0.456 0.0
H1120 H 0.92491 0.0551 0.12278 0.0
H1121 H 0.95028 0.90787 0.14628 0.0
H1122 H 0.96534 0.08829 0.12378 0.0
H1123 H 0.99055 0.94159 0.14841 0.0
H1124 H 0.06329 1.00235 0.12697 0.0
H1125 H 0.02298 0.96778 0.12588 0.0
H1126 H -0.00452 0.11377 0.14876 0.0
H1127 H 0.03547 0.14867 0.1487 0.0
C1128 C 0.93911 0.03007 0.12844 0.0
C1129 C 0.93449 0.97894 0.1344 0.0
C1130 C 0.96229 0.0491 0.12914 0.0
C1131 C 0.98127 1.01765 0.13622 0.0
C1132 C 0.97649 0.96662 0.14245 0.0
C1133 C 0.95338 0.94738 0.14138 0.0
C1134 C 0.04857 0.02686 0.13177 0.0
C1135 C 0.05244 0.07824 0.1377 0.0
C1136 C 0.02548 1.00707 0.13127 0.0
C1137 C 0.0059 0.03808 0.1371 0.0
C1138 C 0.01 0.08913 0.1436 0.0
C1139 C 0.03297 0.10907 0.14371 0.0
H1140 H 0.94805 0.13005 0.38801 0.0
H1141 H 0.91953 0.98724 0.36261 0.0
H1142 H 0.98804 0.095 0.38589 0.0
H1143 H 0.9597 0.95266 0.35995 0.0
H1144 H 0.03122 0.88947 0.38337 0.0
H1145 H 0.99136 0.92497 0.38473 0.0
H1146 H 0.0179 0.06903 0.35858 0.0
H1147 H 0.05811 0.03386 0.35776 0.0
C1148 C 0.9503 0.09124 0.38185 0.0
C1149 C 0.93058 0.06135 0.37554 0.0
C1150 C 0.97327 0.07132 0.38049 0.0
C1151 C 0.97705 1.02114 0.3727 0.0
C1152 C 0.95734 0.99127 0.36631 0.0
C1153 C 0.93432 1.01112 0.36777 0.0
C1154 C 0.02862 0.92872 0.37786 0.0
C1155 C 0.04787 0.95886 0.37045 0.0
C1156 C 0.0057 0.94895 0.37851 0.0
C1157 C 0.00144 0.99972 0.37168 0.0
C1158 C 0.02066 0.02992 0.36421 0.0
C1159 C 0.04368 1.00972 0.36365 0.0
H1160 H 0.05937 0.99576 0.86309 0.0
H1161 H 0.03124 0.1424 0.88431 0.0
H1162 H 0.01912 0.96141 0.86144 0.0
H1163 H 0.99116 0.10763 0.88326 0.0
H1164 H 0.92083 0.04219 0.85737 0.0
H1165 H 0.96099 0.07766 0.85719 0.0
H1166 H 0.98771 0.9377 0.88728 0.0
H1167 H 0.94788 0.90184 0.88693 0.0
C1168 C 0.04464 1.0206 0.86749 0.0
C1169 C 0.04852 0.07177 0.87386 0.0
C1170 C 0.02158 1.00086 0.86664 0.0
C1171 C 0.00195 0.03179 0.87228 0.0
C1172 C 0.00586 0.08303 0.87851 0.0
C1173 C 0.02888 0.10284 0.87925 0.0
C1174 C 0.93529 1.01907 0.86398 0.0
C1175 C 0.93118 0.96917 0.8721 0.0
C1176 C 0.95827 0.03943 0.86394 0.0
C1177 C 0.97754 1.01037 0.87213 0.0
C1178 C 0.97333 0.9607 0.88044 0.0
C1179 C 0.95044 0.94029 0.88038 0.0
H1180 H 0.92359 1.01162 0.62736 0.0
H1181 H 0.9515 0.15679 0.65038 0.0
H1182 H 0.96388 0.97744 0.62522 0.0
H1183 H -0.00841 0.12214 0.64942 0.0
H1184 H 0.06203 0.06441 0.62215 0.0
H1185 H 0.02163 0.09797 0.62398 0.0
H1186 H -0.00359 0.94991 0.64694 0.0
H1187 H 0.03652 0.91601 0.64395 0.0
C1188 C 0.93834 0.03592 0.63227 0.0
C1189 C 0.93448 0.08687 0.63889 0.0
C1190 C 0.96143 1.01635 0.63116 0.0
C1191 C 0.98107 0.0471 0.63705 0.0
C1192 C 0.97701 0.09772 0.64422 0.0
C1193 C 0.954 0.1175 0.64494 0.0
C1194 C 0.0478 0.03917 0.62756 0.0
C1195 C 0.05236 0.98762 0.63279 0.0
C1196 C 0.02465 0.0584 0.62876 0.0
C1197 C 0.00568 0.02666 0.63563 0.0
C1198 C 0.01043 0.97521 0.64113 0.0
C1199 C 0.03347 0.95582 0.63954 0.0
H1200 H 0.45226 0.40831 0.11892 0.0
H1201 H 0.42574 0.55254 0.14482 0.0
H1202 H 0.49246 0.44216 0.1191 0.0
H1203 H 0.46626 0.58606 0.14541 0.0
H1204 H 0.53717 0.6455 0.11846 0.0
H1205 H 0.49711 0.6112 0.11859 0.0
H1206 H 0.52346 0.46795 0.14573 0.0
H1207 H 0.56393 0.50199 0.1452 0.0
C1208 C 0.45498 0.44723 0.12474 0.0
C1209 C 0.43576 0.47779 0.13185 0.0
C1210 C 0.4781 0.46644 0.12499 0.0
C1211 C 0.48254 0.51662 0.13237 0.0
C1212 C 0.46333 0.54735 0.13941 0.0
C1213 C 0.44014 0.52814 0.13912 0.0
C1214 C 0.53453 0.60663 0.12447 0.0
C1215 C 0.55379 0.57645 0.13186 0.0
C1216 C 0.51148 0.58715 0.12468 0.0
C1217 C 0.5071 0.53706 0.13231 0.0
C1218 C 0.52634 0.50661 0.13956 0.0
C1219 C 0.54949 0.52611 0.13931 0.0
H1220 H 0.42407 0.49458 0.38045 0.0
H1221 H 0.45031 0.64391 0.36078 0.0
H1222 H 0.46457 0.46113 0.37962 0.0
H1223 H 0.4905 0.61021 0.35878 0.0
H1224 H 0.56263 0.54799 0.38033 0.0
H1225 H 0.52221 0.58196 0.38143 0.0
H1226 H 0.49556 0.43837 0.35496 0.0
H1227 H 0.53568 0.40393 0.35503 0.0
C1228 C 0.43849 0.52003 0.37571 0.0
C1229 C 0.43412 0.57181 0.37084 0.0
C1230 C 0.46168 0.5009 0.37509 0.0
C1231 C 0.48087 0.53301 0.36916 0.0
C1232 C 0.4763 0.58464 0.36392 0.0
C1233 C 0.45322 0.6039 0.36493 0.0
C1234 C 0.54808 0.52393 0.3747 0.0
C1235 C 0.5522 0.47332 0.36776 0.0
C1236 C 0.52493 0.54336 0.37522 0.0
C1237 C 0.50555 0.51279 0.3684 0.0
C1238 C 0.50991 0.46258 0.36088 0.0
C1239 C 0.53294 0.44294 0.36076 0.0
H1240 H 0.41952 0.54601 0.88108 0.0
H1241 H 0.44619 0.40088 0.85667 0.0
H1242 H 0.45992 0.58007 0.88132 0.0
H1243 H 0.48628 0.43537 0.85574 0.0
H1244 H 0.55814 0.49334 0.87957 0.0
H1245 H 0.51771 0.45948 0.87958 0.0
H1246 H 0.49116 0.60743 0.85788 0.0
H1247 H 0.53129 0.64158 0.85905 0.0
C1248 C 0.434 0.5217 0.87548 0.0
C1249 C 0.42981 0.4708 0.86902 0.0
C1250 C 0.45715 0.54118 0.8755 0.0
C1251 C 0.47644 0.51038 0.86864 0.0
C1252 C 0.472 0.45981 0.86166 0.0
C1253 C 0.44898 0.44013 0.86204 0.0
C1254 C 0.5436 0.51844 0.8748 0.0
C1255 C 0.54778 0.57007 0.86947 0.0
C1256 C 0.52044 0.49908 0.87467 0.0
C1257 C 0.50109 0.53078 0.86878 0.0
C1258 C 0.50549 0.5822 0.86302 0.0
C1259 C 0.52854 0.60171 0.86354 0.0
H1260 H 0.42062 0.49996 0.64623 0.0
H1261 H 0.44701 0.64385 0.61955 0.0
H1262 H 0.46111 0.46581 0.64599 0.0
H1263 H 0.48704 0.6095 0.61894 0.0
H1264 H 0.55874 0.55093 0.64394 0.0
H1265 H 0.5182 0.58409 0.64529 0.0
H1266 H 0.49182 0.44052 0.61883 0.0
H1267 H 0.53209 0.40699 0.61788 0.0
C1268 C 0.43497 0.52414 0.6402 0.0
C1269 C 0.43058 0.57463 0.633 0.0
C1270 C 0.45813 0.50459 0.64001 0.0
C1271 C 0.47725 0.53515 0.63257 0.0
C1272 C 0.47276 0.58536 0.62517 0.0
C1273 C 0.44973 0.60488 0.6254 0.0
C1274 C 0.5443 0.52652 0.63836 0.0
C1275 C 0.54867 0.47637 0.63081 0.0
C1276 C 0.52109 0.54552 0.63909 0.0
C1277 C 0.50183 0.51479 0.63222 0.0
C1278 C 0.50624 0.46479 0.62458 0.0
C1279 C 0.52938 0.44578 0.62389 0.0
H1280 H 0.14871 0.75969 0.09658 0.0
H1281 H 0.10743 0.78437 0.15757 0.0
H1282 H 0.14251 0.66748 0.1002 0.0
H1283 H 0.10041 0.69249 0.16065 0.0
H1284 H 0.11588 0.52367 0.17467 0.0
H1285 H 0.12185 0.61557 0.17011 0.0
H1286 H 0.113 0.60041 0.09745 0.0
H1287 H 0.10713 0.50819 0.10203 0.0
C1288 C 0.13822 0.74553 0.11071 0.0
C1289 C 0.12866 0.77968 0.12682 0.0
C1290 C 0.13445 0.69259 0.11266 0.0
C1291 C 0.12105 0.6723 0.13079 0.0
C1292 C 0.11112 0.70655 0.14664 0.0
C1293 C 0.11487 0.75945 0.1447 0.0
C1294 C 0.11505 0.53992 0.15772 0.0
C1295 C 0.11091 0.50839 0.13873 0.0
C1296 C 0.11843 0.59276 0.1551 0.0
C1297 C 0.11775 0.6157 0.13342 0.0
C1298 C 0.11391 0.5841 0.11438 0.0
C1299 C 0.11056 0.53114 0.117 0.0
H1300 H 0.81868 0.30455 0.10899 0.0
H1301 H 0.88565 0.27436 0.14245 0.0
H1302 H 0.8252 0.39634 0.11318 0.0
H1303 H 0.89165 0.36616 0.14756 0.0
H1304 H 0.90805 0.53302 0.1295 0.0
H1305 H 0.90099 0.4414 0.12566 0.0
H1306 H 0.82653 0.46483 0.14051 0.0
H1307 H 0.83362 0.55674 0.14429 0.0
C1308 C 0.8348 0.3174 0.11729 0.0
C1309 C 0.8517 0.28175 0.12523 0.0
C1310 C 0.8384 0.37019 0.11995 0.0
C1311 C 0.859 0.38896 0.13066 0.0
C1312 C 0.87573 0.35329 0.13893 0.0
C1313 C 0.87213 0.30047 0.13626 0.0
C1314 C 0.89018 0.51868 0.13213 0.0
C1315 C 0.87144 0.55249 0.13731 0.0
C1316 C 0.88613 0.46597 0.12996 0.0
C1317 C 0.8632 0.44538 0.1329 0.0
C1318 C 0.84438 0.47923 0.13785 0.0
C1319 C 0.84844 0.53206 0.14001 0.0
H1320 H 0.10115 0.25399 0.35043 0.0
H1321 H 0.14406 0.27878 0.41034 0.0
H1322 H 0.0942 0.34589 0.3474 0.0
H1323 H 0.13796 0.37099 0.40672 0.0
H1324 H 0.10321 0.53076 0.4054 0.0
H1325 H 0.10881 0.43849 0.41005 0.0
H1326 H 0.11559 0.4223 0.33722 0.0
H1327 H 0.10985 0.51425 0.3326 0.0
C1328 C 0.10897 0.27894 0.36308 0.0
C1329 C 0.1232 0.25874 0.38063 0.0
C1330 C 0.10526 0.33184 0.36115 0.0
C1331 C 0.11569 0.36611 0.37669 0.0
C1332 C 0.12951 0.34586 0.39452 0.0
C1333 C 0.13322 0.29292 0.39646 0.0
C1334 C 0.10612 0.50756 0.3904 0.0
C1335 C 0.10596 0.53001 0.36861 0.0
C1336 C 0.10932 0.45458 0.39306 0.0
C1337 C 0.1125 0.42269 0.37401 0.0
C1338 C 0.11267 0.44535 0.35226 0.0
C1339 C 0.10943 0.49821 0.3496 0.0
H1340 H 0.83582 0.48679 0.35426 0.0
H1341 H 0.90338 0.50877 0.38773 0.0
H1342 H 0.8282 0.57874 0.35636 0.0
H1343 H 0.89573 0.60051 0.39 0.0
H1344 H 0.88598 0.76834 0.37125 0.0
H1345 H 0.8931 0.67663 0.36727 0.0
H1346 H 0.81918 0.6466 0.38231 0.0
H1347 H 0.81183 0.73832 0.3852 0.0
C1348 C 0.84895 0.51112 0.36229 0.0
C1349 C 0.87025 0.49018 0.37077 0.0
C1350 C 0.84459 0.56398 0.36349 0.0
C1351 C 0.86138 0.5974 0.37327 0.0
C1352 C 0.88258 0.57631 0.38192 0.0
C1353 C 0.88696 0.52353 0.38067 0.0
C1354 C 0.87114 0.7423 0.37336 0.0
C1355 C 0.84832 0.76105 0.37862 0.0
C1356 C 0.8753 0.6895 0.37138 0.0
C1357 C 0.85678 0.65386 0.37463 0.0
C1358 C 0.83388 0.67268 0.3795 0.0
C1359 C 0.82971 0.72545 0.38144 0.0
H1360 H 0.83658 0.28653 0.91048 0.0
H1361 H 0.87577 0.26336 0.84813 0.0
H1362 H 0.84293 0.37876 0.90728 0.0
H1363 H 0.88295 0.35525 0.84543 0.0
H1364 H 0.86771 0.52489 0.83311 0.0
H1365 H 0.86158 0.43291 0.83715 0.0
H1366 H 0.87272 0.44521 0.90964 0.0
H1367 H 0.87874 0.53749 0.90557 0.0
C1368 C 0.84664 0.30103 0.89613 0.0
C1369 C 0.85557 0.2673 0.87952 0.0
C1370 C 0.8505 0.35398 0.89442 0.0
C1371 C 0.86337 0.37471 0.87603 0.0
C1372 C 0.87266 0.34087 0.85966 0.0
C1373 C 0.86882 0.28796 0.86137 0.0
C1374 C 0.86901 0.50799 0.8499 0.0
C1375 C 0.87382 0.53873 0.86899 0.0
C1376 C 0.86554 0.4551 0.85223 0.0
C1377 C 0.8668 0.43133 0.87371 0.0
C1378 C 0.87134 0.46216 0.89286 0.0
C1379 C 0.87478 0.51516 0.89053 0.0
H1380 H 0.14338 0.49192 0.8882 0.0
H1381 H 0.07931 0.52138 0.84978 0.0
H1382 H 0.14956 0.58396 0.89244 0.0
H1383 H 0.08608 0.61318 0.85312 0.0
H1384 H 0.09145 0.77347 0.88445 0.0
H1385 H 0.08504 0.68157 0.88029 0.0
H1386 H 0.16056 0.65922 0.87108 0.0
H1387 H 0.16696 0.75112 0.87534 0.0
C1388 C 0.13059 0.51794 0.88066 0.0
C1389 C 0.11085 0.49896 0.86862 0.0
C1390 C 0.1343 0.57084 0.88285 0.0
C1391 C 0.11837 0.60625 0.87308 0.0
C1392 C 0.09861 0.58723 0.86109 0.0
C1393 C 0.09489 0.53441 0.85892 0.0
C1394 C 0.10667 0.74907 0.88127 0.0
C1395 C 0.12973 0.76989 0.88026 0.0
C1396 C 0.103 0.69623 0.8789 0.0
C1397 C 0.12228 0.6627 0.8754 0.0
C1398 C 0.14532 0.68361 0.87417 0.0
C1399 C 0.14899 0.73643 0.87657 0.0
H1400 H 0.82101 0.76805 0.6384 0.0
H1401 H 0.89219 0.79 0.61249 0.0
H1402 H 0.82805 0.67623 0.64108 0.0
H1403 H 0.89923 0.69779 0.61505 0.0
H1404 H 0.91182 0.53938 0.64728 0.0
H1405 H 0.90486 0.63091 0.64268 0.0
H1406 H 0.83357 0.59982 0.61908 0.0
H1407 H 0.84016 0.50828 0.6247 0.0
C1408 C 0.83808 0.75323 0.63295 0.0
C1409 C 0.856 0.78659 0.62515 0.0
C1410 C 0.84212 0.70041 0.63448 0.0
C1411 C 0.86421 0.67932 0.62825 0.0
C1412 C 0.88211 0.71264 0.62032 0.0
C1413 C 0.87807 0.76558 0.61882 0.0
C1414 C 0.89457 0.552 0.6413 0.0
C1415 C 0.8765 0.51621 0.63654 0.0
C1416 C 0.89068 0.60461 0.63836 0.0
C1417 C 0.86863 0.62302 0.63053 0.0
C1418 C 0.85068 0.5872 0.62542 0.0
C1419 C 0.85456 0.53454 0.62839 0.0
H1420 H 0.1091 0.29833 0.59716 0.0
H1421 H 0.15745 0.29686 0.65421 0.0
H1422 H 0.10369 0.39041 0.60164 0.0
H1423 H 0.15217 0.38921 0.65864 0.0
H1424 H 0.11742 0.54497 0.67412 0.0
H1425 H 0.12352 0.45299 0.66991 0.0
H1426 H 0.12425 0.47067 0.59683 0.0
H1427 H 0.11721 0.56242 0.60104 0.0
C1428 C 0.11874 0.31772 0.61056 0.0
C1429 C 0.13377 0.29006 0.62528 0.0
C1430 C 0.11568 0.37066 0.61311 0.0
C1431 C 0.12758 0.39754 0.63043 0.0
C1432 C 0.14247 0.3698 0.64528 0.0
C1433 C 0.14549 0.31676 0.64275 0.0
C1434 C 0.11873 0.52924 0.65713 0.0
C1435 C 0.11667 0.56126 0.63792 0.0
C1436 C 0.1225 0.47645 0.65472 0.0
C1437 C 0.12431 0.45413 0.63302 0.0
C1438 C 0.12263 0.48629 0.61381 0.0
C1439 C 0.11889 0.53911 0.61623 0.0
H1440 H 0.64841 0.99823 0.12447 0.0
H1441 H 0.57427 0.02941 0.13794 0.0
H1442 H 0.65583 0.08983 0.12026 0.0
H1443 H 0.58192 0.12098 0.13484 0.0
H1444 H 0.59885 0.28091 0.10748 0.0
H1445 H 0.5913 0.18877 0.10879 0.0
H1446 H 0.65847 0.16562 0.14298 0.0
H1447 H 0.66604 0.25738 0.14151 0.0
C1448 C 0.63365 0.02451 0.12645 0.0
C1449 C 0.61075 1.00615 0.13165 0.0
C1450 C 0.63797 0.07722 0.12431 0.0
C1451 C 0.61952 0.1131 0.12733 0.0
C1452 C 0.59655 0.09467 0.13218 0.0
C1453 C 0.59223 0.042 0.13428 0.0
C1454 C 0.61196 0.25616 0.11535 0.0
C1455 C 0.6331 0.27672 0.1243 0.0
C1456 C 0.60763 0.20324 0.11613 0.0
C1457 C 0.62429 0.16946 0.12595 0.0
C1458 C 0.64542 0.19012 0.13487 0.0
C1459 C 0.64977 0.24293 0.13405 0.0
H1460 H 0.38237 0.77358 0.15392 0.0
H1461 H 0.33817 0.798 0.09479 0.0
H1462 H 0.38953 0.86546 0.1564 0.0
H1463 H 0.34453 0.89022 0.09785 0.0
H1464 H 0.37987 0.04952 0.09766 0.0
H1465 H 0.37385 0.95727 0.09359 0.0
H1466 H 0.36853 0.94232 0.16661 0.0
H1467 H 0.37468 0.03424 0.17065 0.0
C1468 C 0.37431 0.79845 0.14132 0.0
C1469 C 0.35967 0.77816 0.12416 0.0
C1470 C 0.37815 0.85134 0.14294 0.0
C1471 C 0.36746 0.88551 0.12745 0.0
C1472 C 0.35319 0.86516 0.11 0.0
C1473 C 0.34934 0.81222 0.10839 0.0
C1474 C 0.37719 0.02659 0.11283 0.0
C1475 C 0.37788 0.04938 0.13449 0.0
C1476 C 0.37375 0.97363 0.1105 0.0
C1477 C 0.37086 0.94209 0.12977 0.0
C1478 C 0.37121 0.96509 0.1514 0.0
C1479 C 0.37469 1.01793 0.15372 0.0
H1480 H 0.57416 1.0196 0.36301 0.0
H1481 H 0.64709 0.05097 0.38141 0.0
H1482 H 0.58146 0.92812 0.36716 0.0
H1483 H 0.65409 0.95945 0.38664 0.0
H1484 H 0.66565 0.79116 0.3669 0.0
H1485 H 0.65839 0.88296 0.36459 0.0
H1486 H 0.58877 0.86103 0.39417 0.0
H1487 H 0.59602 0.76886 0.39633 0.0
C1488 C 0.59178 1.00707 0.36798 0.0
C1489 C 0.61008 0.04295 0.37167 0.0
C1490 C 0.59588 0.95445 0.37068 0.0
C1491 C 0.6184 0.93608 0.37721 0.0
C1492 C 0.6366 0.972 0.38129 0.0
C1493 C 0.6325 0.02467 0.37856 0.0
C1494 C 0.64889 0.80589 0.37319 0.0
C1495 C 0.63146 0.77241 0.38187 0.0
C1496 C 0.64472 0.85872 0.37188 0.0
C1497 C 0.62299 0.87974 0.37922 0.0
C1498 C 0.60558 0.84629 0.38803 0.0
C1499 C 0.60974 0.79334 0.3893 0.0
H1500 H 0.34592 1.00271 0.35159 0.0
H1501 H 0.40159 1.01049 0.40204 0.0
H1502 H 0.33918 0.09456 0.35548 0.0
H1503 H 0.3947 0.10231 0.40616 0.0
H1504 H 0.39376 0.27397 0.38896 0.0
H1505 H 0.40003 0.18174 0.38613 0.0
H1506 H 0.32415 0.15874 0.38065 0.0
H1507 H 0.31798 0.25093 0.38231 0.0
C1508 C 0.35651 1.0239 0.36375 0.0
C1509 C 0.37433 0.99917 0.37647 0.0
C1510 C 0.35264 0.07666 0.36601 0.0
C1511 C 0.36642 0.10609 0.38112 0.0
C1512 C 0.38403 0.08116 0.39406 0.0
C1513 C 0.38795 0.02844 0.39174 0.0
C1514 C 0.37842 0.24931 0.38698 0.0
C1515 C 0.35536 0.27015 0.38585 0.0
C1516 C 0.38199 0.19625 0.38563 0.0
C1517 C 0.3626 0.16257 0.38315 0.0
C1518 C 0.33954 0.18341 0.38227 0.0
C1519 C 0.33598 0.2364 0.38356 0.0
H1520 H 0.38597 0.76675 0.89837 0.0
H1521 H 0.31648 0.78908 0.86868 0.0
H1522 H 0.39321 0.85894 0.89628 0.0
H1523 H 0.32373 0.88088 0.86643 0.0
H1524 H 0.33486 0.04877 0.88341 0.0
H1525 H 0.3279 0.95725 0.88862 0.0
H1526 H 0.40059 0.92604 0.86925 0.0
H1527 H 0.40786 1.01754 0.86512 0.0
C1528 C 0.37228 0.79125 0.8913 0.0
C1529 C 0.35061 0.77034 0.88377 0.0
C1530 C 0.37643 0.84419 0.89007 0.0
C1531 C 0.35905 0.87763 0.88121 0.0
C1532 C 0.33737 0.85663 0.87377 0.0
C1533 C 0.33321 0.80381 0.87504 0.0
C1534 C 0.34947 1.02249 0.88058 0.0
C1535 C 0.37191 0.0408 0.87373 0.0
C1536 C 0.3454 0.96983 0.8833 0.0
C1537 C 0.36363 0.93396 0.87925 0.0
C1538 C 0.38616 0.95235 0.87275 0.0
C1539 C 0.39024 1.00497 0.87007 0.0
H1540 H 0.66381 0.24973 0.88039 0.0
H1541 H 0.58801 0.27332 0.88647 0.0
H1542 H 0.65753 0.15758 0.8787 0.0
H1543 H 0.58164 0.18114 0.8836 0.0
H1544 H 0.57962 1.00992 0.89954 0.0
H1545 H 0.58658 0.1017 0.90362 0.0
H1546 H 0.64273 0.09326 0.85356 0.0
H1547 H 0.6359 1.00143 0.8497 0.0
C1548 C 0.64579 0.23534 0.8815 0.0
C1549 C 0.62643 0.26925 0.88365 0.0
C1550 C 0.64216 0.18235 0.8802 0.0
C1551 C 0.61906 0.16166 0.88091 0.0
C1552 C 0.59971 0.19551 0.88324 0.0
C1553 C 0.60334 0.24855 0.8846 0.0
C1554 C 0.5934 0.0277 0.88935 0.0
C1555 C 0.60718 0.99822 0.87427 0.0
C1556 C 0.59737 0.08042 0.89166 0.0
C1557 C 0.61518 0.10517 0.87888 0.0
C1558 C 0.62911 0.07553 0.86395 0.0
C1559 C 0.62519 1.02277 0.86172 0.0
H1560 H 0.33622 0.99659 0.62586 0.0
H1561 H 0.40995 0.02795 0.64109 0.0
H1562 H 0.32883 0.08819 0.62158 0.0
H1563 H 0.40231 0.11951 0.63792 0.0
H1564 H 0.38603 0.2795 0.61029 0.0
H1565 H 0.39358 0.18737 0.61171 0.0
H1566 H 0.3255 0.16399 0.64423 0.0
H1567 H 0.31794 0.25575 0.64265 0.0
C1568 C 0.3509 1.02291 0.62821 0.0
C1569 C 0.37368 1.00458 0.63392 0.0
C1570 C 0.34659 0.07563 0.62604 0.0
C1571 C 0.36492 0.11157 0.62952 0.0
C1572 C 0.38777 0.09316 0.63489 0.0
C1573 C 0.39209 0.0405 0.63703 0.0
C1574 C 0.37271 0.25471 0.61782 0.0
C1575 C 0.35133 0.27523 0.62627 0.0
C1576 C 0.37705 0.20179 0.61866 0.0
C1577 C 0.36015 0.16793 0.62806 0.0
C1578 C 0.33876 0.18854 0.63646 0.0
C1579 C 0.33441 0.24135 0.63557 0.0
H1580 H 0.59197 0.77392 0.60684 0.0
H1581 H 0.66139 0.79717 0.63649 0.0
H1582 H 0.58459 0.86611 0.60843 0.0
H1583 H 0.65401 0.88897 0.63822 0.0
H1584 H 0.64268 0.05628 0.61994 0.0
H1585 H 0.64973 0.96467 0.61532 0.0
H1586 H 0.57718 0.93357 0.63528 0.0
H1587 H 0.56983 0.02515 0.63884 0.0
C1588 C 0.60561 0.79863 0.61379 0.0
C1589 C 0.62731 0.77801 0.62145 0.0
C1590 C 0.60139 0.85154 0.61473 0.0
C1591 C 0.61872 0.8852 0.62342 0.0
C1592 C 0.64042 0.8645 0.63101 0.0
C1593 C 0.64465 0.8117 0.63003 0.0
C1594 C 0.62812 0.02999 0.62303 0.0
C1595 C 0.6057 0.04832 0.62986 0.0
C1596 C 0.63225 0.97731 0.62065 0.0
C1597 C 0.61407 0.94149 0.62504 0.0
C1598 C 0.59156 0.95989 0.63153 0.0
C1599 C 0.58743 1.01252 0.63388 0.0
loop_
_geom_bond_atom_site_label_1
_geom_bond_atom_site_label_2
_geom_bond_distance
_geom_bond_site_symmetry_2
_ccdc_geom_bond_type
Dy0 O3 2.307 . S
Dy0 O5 2.395 . S
Dy0 O6 2.379 . S
Dy0 O8 2.339 . S
Dy0 O10 2.298 . S
Dy0 O14 2.275 . S
Dy0 C22 2.738 . S
Dy1 O4 2.298 . S
Dy1 O7 2.275 . S
Dy1 O9 2.307 . S
Dy1 O11 2.395 1_545 S
Dy1 O12 2.379 1_545 S
Dy1 O15 2.339 . S
Dy1 C31 2.738 1_545 S
C2 O14 1.254 . S
C2 O15 1.257 . S
O3 Dy0 2.307 . S
O3 C13 1.266 . S
O4 Dy1 2.298 . S
O4 C13 1.236 . S
O5 Dy0 2.395 . S
O5 C22 1.255 . S
O6 Dy0 2.379 . S
O6 C22 1.249 . S
O7 Dy1 2.275 . S
O7 C23 1.254 . S
O8 Dy0 2.339 . S
O8 C23 1.257 . S
O9 Dy1 2.307 . S
O9 C24 1.266 . S
O10 Dy0 2.298 . S
O10 C24 1.236 . S
O11 Dy1 2.395 1_565 S
O11 C31 1.255 . S
O12 Dy1 2.379 1_565 S
O12 C31 1.249 . S
C13 O3 1.266 . S
C13 O4 1.236 . S
O14 Dy0 2.275 . S
O14 C2 1.254 . S
O15 Dy1 2.339 . S
O15 C2 1.257 . S
C16 C19 1.344 . S
C16 C20 1.328 . S
C16 C22 1.516 . S
C17 C18 1.304 . S
C17 C21 1.323 . S
C18 C17 1.304 . S
C18 C19 1.371 . S
C18 H32 0.930 . S
C19 C16 1.344 . S
C19 C18 1.371 . S
C19 H33 0.931 . S
C20 C16 1.328 . S
C20 C21 1.433 . S
C20 H34 0.931 . S
C21 C17 1.323 . S
C21 C20 1.433 . S
C21 H35 0.933 . S
C22 Dy0 2.738 . S
C22 O5 1.255 . S
C22 O6 1.249 . S
C22 C16 1.516 . S
C23 O7 1.254 . S
C23 O8 1.257 . S
C24 O9 1.266 . S
C24 O10 1.236 . S
C25 C28 1.344 . S
C25 C29 1.328 . S
C25 C31 1.516 . S
C26 C27 1.304 . S
C26 C30 1.323 . S
C27 C26 1.304 . S
C27 C28 1.371 . S
C27 H36 0.930 . S
C28 C25 1.344 . S
C28 C27 1.371 . S
C28 H37 0.931 . S
C29 C25 1.328 . S
C29 C30 1.433 . S
C29 H38 0.931 . S
C30 C26 1.323 . S
C30 C29 1.433 . S
C30 H39 0.933 . S
C31 Dy1 2.738 1_565 S
C31 O11 1.255 . S
C31 O12 1.249 . S
C31 C25 1.516 . S
H32 C18 0.930 . S
H33 C19 0.931 . S
H34 C20 0.931 . S
H35 C21 0.933 . S
H36 C27 0.930 . S
H37 C28 0.931 . S
H38 C29 0.931 . S
H39 C30 0.933 . S
Dy40 O43 2.307 . S
Dy40 O45 2.395 . S
Dy40 O46 2.379 . S
Dy40 O48 2.339 . S
Dy40 O50 2.298 . S
Dy40 O54 2.275 . S
Dy40 C62 2.738 . S
Dy41 O44 2.298 . S
Dy41 O47 2.275 . S
Dy41 O49 2.307 . S
Dy41 O51 2.395 1_565 S
Dy41 O52 2.379 1_565 S
Dy41 O55 2.339 . S
Dy41 C71 2.738 1_565 S
C42 O54 1.254 . S
C42 O55 1.257 . S
O43 Dy40 2.307 . S
O43 C53 1.266 . S
O44 Dy41 2.298 . S
O44 C53 1.236 . S
O45 Dy40 2.395 . S
O45 C62 1.255 . S
O46 Dy40 2.379 . S
O46 C62 1.249 . S
O47 Dy41 2.275 . S
O47 C63 1.254 . S
O48 Dy40 2.339 . S
O48 C63 1.257 . S
O49 Dy41 2.307 . S
O49 C64 1.266 . S
O50 Dy40 2.298 . S
O50 C64 1.236 . S
O51 Dy41 2.395 1_545 S
O51 C71 1.255 . S
O52 Dy41 2.379 1_545 S
O52 C71 1.249 . S
C53 O43 1.266 . S
C53 O44 1.236 . S
O54 Dy40 2.275 . S
O54 C42 1.254 . S
O55 Dy41 2.339 . S
O55 C42 1.257 . S
C56 C59 1.344 . S
C56 C60 1.328 . S
C56 C62 1.516 . S
C57 C58 1.304 . S
C57 C61 1.323 . S
C58 C57 1.304 . S
C58 C59 1.371 . S
C58 H72 0.930 . S
C59 C56 1.344 . S
C59 C58 1.371 . S
C59 H73 0.931 . S
C60 C56 1.328 . S
C60 C61 1.433 . S
C60 H74 0.931 . S
C61 C57 1.323 . S
C61 C60 1.433 . S
C61 H75 0.933 . S
C62 Dy40 2.738 . S
C62 O45 1.255 . S
C62 O46 1.249 . S
C62 C56 1.516 . S
C63 O47 1.254 . S
C63 O48 1.257 . S
C64 O49 1.266 . S
C64 O50 1.236 . S
C65 C68 1.344 . S
C65 C69 1.328 . S
C65 C71 1.516 . S
C66 C67 1.304 . S
C66 C70 1.323 . S
C67 C66 1.304 . S
C67 C68 1.371 . S
C67 H76 0.930 . S
C68 C65 1.344 . S
C68 C67 1.371 . S
C68 H77 0.931 . S
C69 C65 1.328 . S
C69 C70 1.433 . S
C69 H78 0.931 . S
C70 C66 1.323 . S
C70 C69 1.433 . S
C70 H79 0.933 . S
C71 Dy41 2.738 1_545 S
C71 O51 1.255 . S
C71 O52 1.249 . S
C71 C65 1.516 . S
H72 C58 0.930 . S
H73 C59 0.931 . S
H74 C60 0.931 . S
H75 C61 0.933 . S
H76 C67 0.930 . S
H77 C68 0.931 . S
H78 C69 0.931 . S
H79 C70 0.933 . S
Dy80 O83 2.307 . S
Dy80 O85 2.395 . S
Dy80 O86 2.379 . S
Dy80 O88 2.339 . S
Dy80 O90 2.298 . S
Dy80 O94 2.275 . S
Dy80 C102 2.738 . S
Dy81 O84 2.298 . S
Dy81 O87 2.275 . S
Dy81 O89 2.307 . S
Dy81 O91 2.395 1_565 S
Dy81 O92 2.379 1_565 S
Dy81 O95 2.339 . S
Dy81 C111 2.738 1_565 S
C82 O94 1.254 . S
C82 O95 1.257 . S
O83 Dy80 2.307 . S
O83 C93 1.266 . S
O84 Dy81 2.298 . S
O84 C93 1.236 . S
O85 Dy80 2.395 . S
O85 C102 1.255 . S
O86 Dy80 2.379 . S
O86 C102 1.249 . S
O87 Dy81 2.275 . S
O87 C103 1.254 . S
O88 Dy80 2.339 . S
O88 C103 1.257 . S
O89 Dy81 2.307 . S
O89 C104 1.266 . S
O90 Dy80 2.298 . S
O90 C104 1.236 . S
O91 Dy81 2.395 1_545 S
O91 C111 1.255 . S
O92 Dy81 2.379 1_545 S
O92 C111 1.249 . S
C93 O83 1.266 . S
C93 O84 1.236 . S
O94 Dy80 2.275 . S
O94 C82 1.254 . S
O95 Dy81 2.339 . S
O95 C82 1.257 . S
C96 C99 1.344 . S
C96 C100 1.328 . S
C96 C102 1.516 . S
C97 C98 1.304 . S
C97 C101 1.323 . S
C98 C97 1.304 . S
C98 C99 1.371 . S
C98 H112 0.930 . S
C99 C96 1.344 . S
C99 C98 1.371 . S
C99 H113 0.931 . S
C100 C96 1.328 . S
C100 C101 1.433 . S
C100 H114 0.931 . S
C101 C97 1.323 . S
C101 C100 1.433 . S
C101 H115 0.933 . S
C102 Dy80 2.738 . S
C102 O85 1.255 . S
C102 O86 1.249 . S
C102 C96 1.516 . S
C103 O87 1.254 . S
C103 O88 1.257 . S
C104 O89 1.266 . S
C104 O90 1.236 . S
C105 C108 1.344 . S
C105 C109 1.328 . S
C105 C111 1.516 . S
C106 C107 1.304 . S
C106 C110 1.323 . S
C107 C106 1.304 . S
C107 C108 1.371 . S
C107 H116 0.930 . S
C108 C105 1.344 . S
C108 C107 1.371 . S
C108 H117 0.931 . S
C109 C105 1.328 . S
C109 C110 1.433 . S
C109 H118 0.931 . S
C110 C106 1.323 . S
C110 C109 1.433 . S
C110 H119 0.933 . S
C111 Dy81 2.738 1_545 S
C111 O91 1.255 . S
C111 O92 1.249 . S
C111 C105 1.516 . S
H112 C98 0.930 . S
H113 C99 0.931 . S
H114 C100 0.931 . S
H115 C101 0.933 . S
H116 C107 0.930 . S
H117 C108 0.931 . S
H118 C109 0.931 . S
H119 C110 0.933 . S
Dy120 O123 2.307 . S
Dy120 O125 2.395 . S
Dy120 O126 2.379 . S
Dy120 O128 2.339 . S
Dy120 O130 2.298 . S
Dy120 O134 2.275 . S
Dy120 C142 2.738 . S
Dy121 O124 2.298 . S
Dy121 O127 2.275 . S
Dy121 O129 2.307 . S
Dy121 O131 2.395 1_545 S
Dy121 O132 2.379 1_545 S
Dy121 O135 2.339 . S
Dy121 C151 2.738 1_545 S
C122 O134 1.254 . S
C122 O135 1.257 . S
O123 Dy120 2.307 . S
O123 C133 1.266 . S
O124 Dy121 2.298 . S
O124 C133 1.236 . S
O125 Dy120 2.395 . S
O125 C142 1.255 . S
O126 Dy120 2.379 . S
O126 C142 1.249 . S
O127 Dy121 2.275 . S
O127 C143 1.254 . S
O128 Dy120 2.339 . S
O128 C143 1.257 . S
O129 Dy121 2.307 . S
O129 C144 1.266 . S
O130 Dy120 2.298 . S
O130 C144 1.236 . S
O131 Dy121 2.395 1_565 S
O131 C151 1.255 . S
O132 Dy121 2.379 1_565 S
O132 C151 1.249 . S
C133 O123 1.266 . S
C133 O124 1.236 . S
O134 Dy120 2.275 . S
O134 C122 1.254 . S
O135 Dy121 2.339 . S
O135 C122 1.257 . S
C136 C139 1.344 . S
C136 C140 1.328 . S
C136 C142 1.516 . S
C137 C138 1.304 . S
C137 C141 1.323 . S
C138 C137 1.304 . S
C138 C139 1.371 . S
C138 H152 0.930 . S
C139 C136 1.344 . S
C139 C138 1.371 . S
C139 H153 0.931 . S
C140 C136 1.328 . S
C140 C141 1.433 . S
C140 H154 0.931 . S
C141 C137 1.323 . S
C141 C140 1.433 . S
C141 H155 0.933 . S
C142 Dy120 2.738 . S
C142 O125 1.255 . S
C142 O126 1.249 . S
C142 C136 1.516 . S
C143 O127 1.254 . S
C143 O128 1.257 . S
C144 O129 1.266 . S
C144 O130 1.236 . S
C145 C148 1.344 . S
C145 C149 1.328 . S
C145 C151 1.516 . S
C146 C147 1.304 . S
C146 C150 1.323 . S
C147 C146 1.304 . S
C147 C148 1.371 . S
C147 H156 0.930 . S
C148 C145 1.344 . S
C148 C147 1.371 . S
C148 H157 0.931 . S
C149 C145 1.328 . S
C149 C150 1.433 . S
C149 H158 0.931 . S
C150 C146 1.323 . S
C150 C149 1.433 . S
C150 H159 0.933 . S
C151 Dy121 2.738 1_565 S
C151 O131 1.255 . S
C151 O132 1.249 . S
C151 C145 1.516 . S
H152 C138 0.930 . S
H153 C139 0.931 . S
H154 C140 0.931 . S
H155 C141 0.933 . S
H156 C147 0.930 . S
H157 C148 0.931 . S
H158 C149 0.931 . S
H159 C150 0.933 . S
Dy160 O163 2.307 . S
Dy160 O165 2.395 1_565 S
Dy160 O166 2.379 1_565 S
Dy160 O168 2.339 . S
Dy160 O170 2.298 . S
Dy160 O174 2.275 . S
Dy160 C182 2.738 1_565 S
Dy161 O164 2.298 . S
Dy161 O167 2.275 . S
Dy161 O169 2.307 . S
Dy161 O171 2.395 . S
Dy161 O172 2.379 . S
Dy161 O175 2.339 . S
Dy161 C191 2.738 . S
C162 O174 1.254 . S
C162 O175 1.257 . S
O163 Dy160 2.307 . S
O163 C173 1.266 . S
O164 Dy161 2.298 . S
O164 C173 1.236 . S
O165 Dy160 2.395 1_545 S
O165 C182 1.255 . S
O166 Dy160 2.379 1_545 S
O166 C182 1.249 . S
O167 Dy161 2.275 . S
O167 C183 1.254 . S
O168 Dy160 2.339 . S
O168 C183 1.257 . S
O169 Dy161 2.307 . S
O169 C184 1.266 . S
O170 Dy160 2.298 . S
O170 C184 1.236 . S
O171 Dy161 2.395 . S
O171 C191 1.255 . S
O172 Dy161 2.379 . S
O172 C191 1.249 . S
C173 O163 1.266 . S
C173 O164 1.236 . S
O174 Dy160 2.275 . S
O174 C162 1.254 . S
O175 Dy161 2.339 . S
O175 C162 1.257 . S
C176 C179 1.344 . S
C176 C180 1.328 . S
C176 C182 1.516 . S
C177 C178 1.304 . S
C177 C181 1.323 . S
C178 C177 1.304 . S
C178 C179 1.371 . S
C178 H192 0.930 . S
C179 C176 1.344 . S
C179 C178 1.371 . S
C179 H193 0.931 . S
C180 C176 1.328 . S
C180 C181 1.433 . S
C180 H194 0.931 . S
C181 C177 1.323 . S
C181 C180 1.433 . S
C181 H195 0.933 . S
C182 Dy160 2.738 1_545 S
C182 O165 1.255 . S
C182 O166 1.249 . S
C182 C176 1.516 . S
C183 O167 1.254 . S
C183 O168 1.257 . S
C184 O169 1.266 . S
C184 O170 1.236 . S
C185 C188 1.344 . S
C185 C189 1.328 . S
C185 C191 1.516 . S
C186 C187 1.304 . S
C186 C190 1.323 . S
C187 C186 1.304 . S
C187 C188 1.371 . S
C187 H196 0.930 . S
C188 C185 1.344 . S
C188 C187 1.371 . S
C188 H197 0.931 . S
C189 C185 1.328 . S
C189 C190 1.433 . S
C189 H198 0.931 . S
C190 C186 1.323 . S
C190 C189 1.433 . S
C190 H199 0.933 . S
C191 Dy161 2.738 . S
C191 O171 1.255 . S
C191 O172 1.249 . S
C191 C185 1.516 . S
H192 C178 0.930 . S
H193 C179 0.931 . S
H194 C180 0.931 . S
H195 C181 0.933 . S
H196 C187 0.930 . S
H197 C188 0.931 . S
H198 C189 0.931 . S
H199 C190 0.933 . S
Dy200 O203 2.307 . S
Dy200 O205 2.395 1_545 S
Dy200 O206 2.379 1_545 S
Dy200 O208 2.339 . S
Dy200 O210 2.298 . S
Dy200 O214 2.275 . S
Dy200 C222 2.738 1_545 S
Dy201 O204 2.298 . S
Dy201 O207 2.275 . S
Dy201 O209 2.307 . S
Dy201 O211 2.395 . S
Dy201 O212 2.379 . S
Dy201 O215 2.339 . S
Dy201 C231 2.738 . S
C202 O214 1.254 . S
C202 O215 1.257 . S
O203 Dy200 2.307 . S
O203 C213 1.266 . S
O204 Dy201 2.298 . S
O204 C213 1.236 . S
O205 Dy200 2.395 1_565 S
O205 C222 1.255 . S
O206 Dy200 2.379 1_565 S
O206 C222 1.249 . S
O207 Dy201 2.275 . S
O207 C223 1.254 . S
O208 Dy200 2.339 . S
O208 C223 1.257 . S
O209 Dy201 2.307 . S
O209 C224 1.266 . S
O210 Dy200 2.298 . S
O210 C224 1.236 . S
O211 Dy201 2.395 . S
O211 C231 1.255 . S
O212 Dy201 2.379 . S
O212 C231 1.249 . S
C213 O203 1.266 . S
C213 O204 1.236 . S
O214 Dy200 2.275 . S
O214 C202 1.254 . S
O215 Dy201 2.339 . S
O215 C202 1.257 . S
C216 C219 1.344 . S
C216 C220 1.328 . S
C216 C222 1.516 . S
C217 C218 1.304 . S
C217 C221 1.323 . S
C218 C217 1.304 . S
C218 C219 1.371 . S
C218 H232 0.930 . S
C219 C216 1.344 . S
C219 C218 1.371 . S
C219 H233 0.931 . S
C220 C216 1.328 . S
C220 C221 1.433 . S
C220 H234 0.931 . S
C221 C217 1.323 . S
C221 C220 1.433 . S
C221 H235 0.933 . S
C222 Dy200 2.738 1_565 S
C222 O205 1.255 . S
C222 O206 1.249 . S
C222 C216 1.516 . S
C223 O207 1.254 . S
C223 O208 1.257 . S
C224 O209 1.266 . S
C224 O210 1.236 . S
C225 C228 1.344 . S
C225 C229 1.328 . S
C225 C231 1.516 . S
C226 C227 1.304 . S
C226 C230 1.323 . S
C227 C226 1.304 . S
C227 C228 1.371 . S
C227 H236 0.930 . S
C228 C225 1.344 . S
C228 C227 1.371 . S
C228 H237 0.931 . S
C229 C225 1.328 . S
C229 C230 1.433 . S
C229 H238 0.931 . S
C230 C226 1.323 . S
C230 C229 1.433 . S
C230 H239 0.933 . S
C231 Dy201 2.738 . S
C231 O211 1.255 . S
C231 O212 1.249 . S
C231 C225 1.516 . S
H232 C218 0.930 . S
H233 C219 0.931 . S
H234 C220 0.931 . S
H235 C221 0.933 . S
H236 C227 0.930 . S
H237 C228 0.931 . S
H238 C229 0.931 . S
H239 C230 0.933 . S
Dy240 O243 2.307 . S
Dy240 O245 2.395 1_545 S
Dy240 O246 2.379 1_545 S
Dy240 O248 2.339 . S
Dy240 O250 2.298 . S
Dy240 O254 2.275 . S
Dy240 C262 2.738 1_545 S
Dy241 O244 2.298 . S
Dy241 O247 2.275 . S
Dy241 O249 2.307 . S
Dy241 O251 2.395 . S
Dy241 O252 2.379 . S
Dy241 O255 2.339 . S
Dy241 C271 2.738 . S
C242 O254 1.254 . S
C242 O255 1.257 . S
O243 Dy240 2.307 . S
O243 C253 1.266 . S
O244 Dy241 2.298 . S
O244 C253 1.236 . S
O245 Dy240 2.395 1_565 S
O245 C262 1.255 . S
O246 Dy240 2.379 1_565 S
O246 C262 1.249 . S
O247 Dy241 2.275 . S
O247 C263 1.254 . S
O248 Dy240 2.339 . S
O248 C263 1.257 . S
O249 Dy241 2.307 . S
O249 C264 1.266 . S
O250 Dy240 2.298 . S
O250 C264 1.236 . S
O251 Dy241 2.395 . S
O251 C271 1.255 . S
O252 Dy241 2.379 . S
O252 C271 1.249 . S
C253 O243 1.266 . S
C253 O244 1.236 . S
O254 Dy240 2.275 . S
O254 C242 1.254 . S
O255 Dy241 2.339 . S
O255 C242 1.257 . S
C256 C259 1.344 . S
C256 C260 1.328 . S
C256 C262 1.516 . S
C257 C258 1.304 . S
C257 C261 1.323 . S
C258 C257 1.304 . S
C258 C259 1.371 . S
C258 H272 0.930 . S
C259 C256 1.344 . S
C259 C258 1.371 . S
C259 H273 0.931 . S
C260 C256 1.328 . S
C260 C261 1.433 . S
C260 H274 0.931 . S
C261 C257 1.323 . S
C261 C260 1.433 . S
C261 H275 0.933 . S
C262 Dy240 2.738 1_565 S
C262 O245 1.255 . S
C262 O246 1.249 . S
C262 C256 1.516 . S
C263 O247 1.254 . S
C263 O248 1.257 . S
C264 O249 1.266 . S
C264 O250 1.236 . S
C265 C268 1.344 . S
C265 C269 1.328 . S
C265 C271 1.516 . S
C266 C267 1.304 . S
C266 C270 1.323 . S
C267 C266 1.304 . S
C267 C268 1.371 . S
C267 H276 0.930 . S
C268 C265 1.344 . S
C268 C267 1.371 . S
C268 H277 0.931 . S
C269 C265 1.328 . S
C269 C270 1.433 . S
C269 H278 0.931 . S
C270 C266 1.323 . S
C270 C269 1.433 . S
C270 H279 0.933 . S
C271 Dy241 2.738 . S
C271 O251 1.255 . S
C271 O252 1.249 . S
C271 C265 1.516 . S
H272 C258 0.930 . S
H273 C259 0.931 . S
H274 C260 0.931 . S
H275 C261 0.933 . S
H276 C267 0.930 . S
H277 C268 0.931 . S
H278 C269 0.931 . S
H279 C270 0.933 . S
Dy280 O283 2.307 . S
Dy280 O285 2.395 1_565 S
Dy280 O286 2.379 1_565 S
Dy280 O288 2.339 . S
Dy280 O290 2.298 . S
Dy280 O294 2.275 . S
Dy280 C302 2.738 1_565 S
Dy281 O284 2.298 . S
Dy281 O287 2.275 . S
Dy281 O289 2.307 . S
Dy281 O291 2.395 . S
Dy281 O292 2.379 . S
Dy281 O295 2.339 . S
Dy281 C311 2.738 . S
C282 O294 1.254 . S
C282 O295 1.257 . S
O283 Dy280 2.307 . S
O283 C293 1.266 . S
O284 Dy281 2.298 . S
O284 C293 1.236 . S
O285 Dy280 2.395 1_545 S
O285 C302 1.255 . S
O286 Dy280 2.379 1_545 S
O286 C302 1.249 . S
O287 Dy281 2.275 . S
O287 C303 1.254 . S
O288 Dy280 2.339 . S
O288 C303 1.257 . S
O289 Dy281 2.307 . S
O289 C304 1.266 . S
O290 Dy280 2.298 . S
O290 C304 1.236 . S
O291 Dy281 2.395 . S
O291 C311 1.255 . S
O292 Dy281 2.379 . S
O292 C311 1.249 . S
C293 O283 1.266 . S
C293 O284 1.236 . S
O294 Dy280 2.275 . S
O294 C282 1.254 . S
O295 Dy281 2.339 . S
O295 C282 1.257 . S
C296 C299 1.344 . S
C296 C300 1.328 . S
C296 C302 1.516 . S
C297 C298 1.304 . S
C297 C301 1.323 . S
C298 C297 1.304 . S
C298 C299 1.371 . S
C298 H312 0.930 . S
C299 C296 1.344 . S
C299 C298 1.371 . S
C299 H313 0.931 . S
C300 C296 1.328 . S
C300 C301 1.433 . S
C300 H314 0.931 . S
C301 C297 1.323 . S
C301 C300 1.433 . S
C301 H315 0.933 . S
C302 Dy280 2.738 1_545 S
C302 O285 1.255 . S
C302 O286 1.249 . S
C302 C296 1.516 . S
C303 O287 1.254 . S
C303 O288 1.257 . S
C304 O289 1.266 . S
C304 O290 1.236 . S
C305 C308 1.344 . S
C305 C309 1.328 . S
C305 C311 1.516 . S
C306 C307 1.304 . S
C306 C310 1.323 . S
C307 C306 1.304 . S
C307 C308 1.371 . S
C307 H316 0.930 . S
C308 C305 1.344 . S
C308 C307 1.371 . S
C308 H317 0.931 . S
C309 C305 1.328 . S
C309 C310 1.433 . S
C309 H318 0.931 . S
C310 C306 1.323 . S
C310 C309 1.433 . S
C310 H319 0.933 . S
C311 Dy281 2.738 . S
C311 O291 1.255 . S
C311 O292 1.249 . S
C311 C305 1.516 . S
H312 C298 0.930 . S
H313 C299 0.931 . S
H314 C300 0.931 . S
H315 C301 0.933 . S
H316 C307 0.930 . S
H317 C308 0.931 . S
H318 C309 0.931 . S
H319 C310 0.933 . S
Dy320 O323 2.307 . S
Dy320 O325 2.395 . S
Dy320 O326 2.379 . S
Dy320 O328 2.339 . S
Dy320 O330 2.298 . S
Dy320 O334 2.275 . S
Dy320 C342 2.738 . S
Dy321 O324 2.298 . S
Dy321 O327 2.275 . S
Dy321 O329 2.307 . S
Dy321 O331 2.395 . S
Dy321 O332 2.379 . S
Dy321 O335 2.339 . S
Dy321 C351 2.738 . S
C322 O334 1.254 . S
C322 O335 1.257 . S
O323 Dy320 2.307 . S
O323 C333 1.266 . S
O324 Dy321 2.298 . S
O324 C333 1.236 . S
O325 Dy320 2.395 . S
O325 C342 1.255 . S
O326 Dy320 2.379 . S
O326 C342 1.249 . S
O327 Dy321 2.275 . S
O327 C343 1.254 . S
O328 Dy320 2.339 . S
O328 C343 1.257 . S
O329 Dy321 2.307 . S
O329 C344 1.266 . S
O330 Dy320 2.298 . S
O330 C344 1.236 . S
O331 Dy321 2.395 . S
O331 C351 1.255 . S
O332 Dy321 2.379 . S
O332 C351 1.249 . S
C333 O323 1.266 . S
C333 O324 1.236 . S
O334 Dy320 2.275 . S
O334 C322 1.254 . S
O335 Dy321 2.339 . S
O335 C322 1.257 . S
C336 C339 1.344 . S
C336 C340 1.328 . S
C336 C342 1.516 . S
C337 C338 1.304 . S
C337 C341 1.323 . S
C338 C337 1.304 . S
C338 C339 1.371 . S
C338 H352 0.930 . S
C339 C336 1.344 . S
C339 C338 1.371 . S
C339 H353 0.931 . S
C340 C336 1.328 . S
C340 C341 1.433 . S
C340 H354 0.931 . S
C341 C337 1.323 . S
C341 C340 1.433 . S
C341 H355 0.933 . S
C342 Dy320 2.738 . S
C342 O325 1.255 . S
C342 O326 1.249 . S
C342 C336 1.516 . S
C343 O327 1.254 . S
C343 O328 1.257 . S
C344 O329 1.266 . S
C344 O330 1.236 . S
C345 C348 1.344 . S
C345 C349 1.328 . S
C345 C351 1.516 . S
C346 C347 1.304 . S
C346 C350 1.323 . S
C347 C346 1.304 . S
C347 C348 1.371 . S
C347 H356 0.930 . S
C348 C345 1.344 . S
C348 C347 1.371 . S
C348 H357 0.931 . S
C349 C345 1.328 . S
C349 C350 1.433 . S
C349 H358 0.931 . S
C350 C346 1.323 . S
C350 C349 1.433 . S
C350 H359 0.933 . S
C351 Dy321 2.738 . S
C351 O331 1.255 . S
C351 O332 1.249 . S
C351 C345 1.516 . S
H352 C338 0.930 . S
H353 C339 0.931 . S
H354 C340 0.931 . S
H355 C341 0.933 . S
H356 C347 0.930 . S
H357 C348 0.931 . S
H358 C349 0.931 . S
H359 C350 0.933 . S
Dy360 O363 2.307 . S
Dy360 O365 2.395 . S
Dy360 O366 2.379 . S
Dy360 O368 2.339 . S
Dy360 O370 2.298 . S
Dy360 O374 2.275 . S
Dy360 C382 2.738 . S
Dy361 O364 2.298 . S
Dy361 O367 2.275 . S
Dy361 O369 2.307 . S
Dy361 O371 2.395 . S
Dy361 O372 2.379 . S
Dy361 O375 2.339 . S
Dy361 C391 2.738 . S
C362 O374 1.254 . S
C362 O375 1.257 . S
O363 Dy360 2.307 . S
O363 C373 1.266 . S
O364 Dy361 2.298 . S
O364 C373 1.236 . S
O365 Dy360 2.395 . S
O365 C382 1.255 . S
O366 Dy360 2.379 . S
O366 C382 1.249 . S
O367 Dy361 2.275 . S
O367 C383 1.254 . S
O368 Dy360 2.339 . S
O368 C383 1.257 . S
O369 Dy361 2.307 . S
O369 C384 1.266 . S
O370 Dy360 2.298 . S
O370 C384 1.236 . S
O371 Dy361 2.395 . S
O371 C391 1.255 . S
O372 Dy361 2.379 . S
O372 C391 1.249 . S
C373 O363 1.266 . S
C373 O364 1.236 . S
O374 Dy360 2.275 . S
O374 C362 1.254 . S
O375 Dy361 2.339 . S
O375 C362 1.257 . S
C376 C379 1.344 . S
C376 C380 1.328 . S
C376 C382 1.516 . S
C377 C378 1.304 . S
C377 C381 1.323 . S
C378 C377 1.304 . S
C378 C379 1.371 . S
C378 H392 0.930 . S
C379 C376 1.344 . S
C379 C378 1.371 . S
C379 H393 0.931 . S
C380 C376 1.328 . S
C380 C381 1.433 . S
C380 H394 0.931 . S
C381 C377 1.323 . S
C381 C380 1.433 . S
C381 H395 0.933 . S
C382 Dy360 2.738 . S
C382 O365 1.255 . S
C382 O366 1.249 . S
C382 C376 1.516 . S
C383 O367 1.254 . S
C383 O368 1.257 . S
C384 O369 1.266 . S
C384 O370 1.236 . S
C385 C388 1.344 . S
C385 C389 1.328 . S
C385 C391 1.516 . S
C386 C387 1.304 . S
C386 C390 1.323 . S
C387 C386 1.304 . S
C387 C388 1.371 . S
C387 H396 0.930 . S
C388 C385 1.344 . S
C388 C387 1.371 . S
C388 H397 0.931 . S
C389 C385 1.328 . S
C389 C390 1.433 . S
C389 H398 0.931 . S
C390 C386 1.323 . S
C390 C389 1.433 . S
C390 H399 0.933 . S
C391 Dy361 2.738 . S
C391 O371 1.255 . S
C391 O372 1.249 . S
C391 C385 1.516 . S
H392 C378 0.930 . S
H393 C379 0.931 . S
H394 C380 0.931 . S
H395 C381 0.933 . S
H396 C387 0.930 . S
H397 C388 0.931 . S
H398 C389 0.931 . S
H399 C390 0.933 . S
Dy400 O403 2.307 . S
Dy400 O405 2.395 . S
Dy400 O406 2.379 . S
Dy400 O408 2.339 . S
Dy400 O410 2.298 . S
Dy400 O414 2.275 . S
Dy400 C422 2.738 . S
Dy401 O404 2.298 . S
Dy401 O407 2.275 . S
Dy401 O409 2.307 . S
Dy401 O411 2.395 . S
Dy401 O412 2.379 . S
Dy401 O415 2.339 . S
Dy401 C431 2.738 . S
C402 O414 1.254 . S
C402 O415 1.257 . S
O403 Dy400 2.307 . S
O403 C413 1.266 . S
O404 Dy401 2.298 . S
O404 C413 1.236 . S
O405 Dy400 2.395 . S
O405 C422 1.255 . S
O406 Dy400 2.379 . S
O406 C422 1.249 . S
O407 Dy401 2.275 . S
O407 C423 1.254 . S
O408 Dy400 2.339 . S
O408 C423 1.257 . S
O409 Dy401 2.307 . S
O409 C424 1.266 . S
O410 Dy400 2.298 . S
O410 C424 1.236 . S
O411 Dy401 2.395 . S
O411 C431 1.255 . S
O412 Dy401 2.379 . S
O412 C431 1.249 . S
C413 O403 1.266 . S
C413 O404 1.236 . S
O414 Dy400 2.275 . S
O414 C402 1.254 . S
O415 Dy401 2.339 . S
O415 C402 1.257 . S
C416 C419 1.344 . S
C416 C420 1.328 . S
C416 C422 1.516 . S
C417 C418 1.304 . S
C417 C421 1.323 . S
C418 C417 1.304 . S
C418 C419 1.371 . S
C418 H432 0.930 . S
C419 C416 1.344 . S
C419 C418 1.371 . S
C419 H433 0.931 . S
C420 C416 1.328 . S
C420 C421 1.433 . S
C420 H434 0.931 . S
C421 C417 1.323 . S
C421 C420 1.433 . S
C421 H435 0.933 . S
C422 Dy400 2.738 . S
C422 O405 1.255 . S
C422 O406 1.249 . S
C422 C416 1.516 . S
C423 O407 1.254 . S
C423 O408 1.257 . S
C424 O409 1.266 . S
C424 O410 1.236 . S
C425 C428 1.344 . S
C425 C429 1.328 . S
C425 C431 1.516 . S
C426 C427 1.304 . S
C426 C430 1.323 . S
C427 C426 1.304 . S
C427 C428 1.371 . S
C427 H436 0.930 . S
C428 C425 1.344 . S
C428 C427 1.371 . S
C428 H437 0.931 . S
C429 C425 1.328 . S
C429 C430 1.433 . S
C429 H438 0.931 . S
C430 C426 1.323 . S
C430 C429 1.433 . S
C430 H439 0.933 . S
C431 Dy401 2.738 . S
C431 O411 1.255 . S
C431 O412 1.249 . S
C431 C425 1.516 . S
H432 C418 0.930 . S
H433 C419 0.931 . S
H434 C420 0.931 . S
H435 C421 0.933 . S
H436 C427 0.930 . S
H437 C428 0.931 . S
H438 C429 0.931 . S
H439 C430 0.933 . S
Dy440 O443 2.307 . S
Dy440 O445 2.395 . S
Dy440 O446 2.379 . S
Dy440 O448 2.339 . S
Dy440 O450 2.298 . S
Dy440 O454 2.275 . S
Dy440 C462 2.738 . S
Dy441 O444 2.298 . S
Dy441 O447 2.275 . S
Dy441 O449 2.307 . S
Dy441 O451 2.395 . S
Dy441 O452 2.379 . S
Dy441 O455 2.339 . S
Dy441 C471 2.738 . S
C442 O454 1.254 . S
C442 O455 1.257 . S
O443 Dy440 2.307 . S
O443 C453 1.266 . S
O444 Dy441 2.298 . S
O444 C453 1.236 . S
O445 Dy440 2.395 . S
O445 C462 1.255 . S
O446 Dy440 2.379 . S
O446 C462 1.249 . S
O447 Dy441 2.275 . S
O447 C463 1.254 . S
O448 Dy440 2.339 . S
O448 C463 1.257 . S
O449 Dy441 2.307 . S
O449 C464 1.266 . S
O450 Dy440 2.298 . S
O450 C464 1.236 . S
O451 Dy441 2.395 . S
O451 C471 1.255 . S
O452 Dy441 2.379 . S
O452 C471 1.249 . S
C453 O443 1.266 . S
C453 O444 1.236 . S
O454 Dy440 2.275 . S
O454 C442 1.254 . S
O455 Dy441 2.339 . S
O455 C442 1.257 . S
C456 C459 1.344 . S
C456 C460 1.328 . S
C456 C462 1.516 . S
C457 C458 1.304 . S
C457 C461 1.323 . S
C458 C457 1.304 . S
C458 C459 1.371 . S
C458 H472 0.930 . S
C459 C456 1.344 . S
C459 C458 1.371 . S
C459 H473 0.931 . S
C460 C456 1.328 . S
C460 C461 1.433 . S
C460 H474 0.931 . S
C461 C457 1.323 . S
C461 C460 1.433 . S
C461 H475 0.933 . S
C462 Dy440 2.738 . S
C462 O445 1.255 . S
C462 O446 1.249 . S
C462 C456 1.516 . S
C463 O447 1.254 . S
C463 O448 1.257 . S
C464 O449 1.266 . S
C464 O450 1.236 . S
C465 C468 1.344 . S
C465 C469 1.328 . S
C465 C471 1.516 . S
C466 C467 1.304 . S
C466 C470 1.323 . S
C467 C466 1.304 . S
C467 C468 1.371 . S
C467 H476 0.930 . S
C468 C465 1.344 . S
C468 C467 1.371 . S
C468 H477 0.931 . S
C469 C465 1.328 . S
C469 C470 1.433 . S
C469 H478 0.931 . S
C470 C466 1.323 . S
C470 C469 1.433 . S
C470 H479 0.933 . S
C471 Dy441 2.738 . S
C471 O451 1.255 . S
C471 O452 1.249 . S
C471 C465 1.516 . S
H472 C458 0.930 . S
H473 C459 0.931 . S
H474 C460 0.931 . S
H475 C461 0.933 . S
H476 C467 0.930 . S
H477 C468 0.931 . S
H478 C469 0.931 . S
H479 C470 0.933 . S
Dy480 O483 2.307 . S
Dy480 O485 2.395 . S
Dy480 O486 2.379 . S
Dy480 O488 2.339 . S
Dy480 O490 2.298 . S
Dy480 O494 2.275 . S
Dy480 C502 2.738 . S
Dy481 O484 2.298 . S
Dy481 O487 2.275 . S
Dy481 O489 2.307 . S
Dy481 O491 2.395 . S
Dy481 O492 2.379 . S
Dy481 O495 2.339 . S
Dy481 C511 2.738 . S
C482 O494 1.254 . S
C482 O495 1.257 . S
O483 Dy480 2.307 . S
O483 C493 1.266 . S
O484 Dy481 2.298 . S
O484 C493 1.236 . S
O485 Dy480 2.395 . S
O485 C502 1.255 . S
O486 Dy480 2.379 . S
O486 C502 1.249 . S
O487 Dy481 2.275 . S
O487 C503 1.254 . S
O488 Dy480 2.339 . S
O488 C503 1.257 . S
O489 Dy481 2.307 . S
O489 C504 1.266 . S
O490 Dy480 2.298 . S
O490 C504 1.236 . S
O491 Dy481 2.395 . S
O491 C511 1.255 . S
O492 Dy481 2.379 . S
O492 C511 1.249 . S
C493 O483 1.266 . S
C493 O484 1.236 . S
O494 Dy480 2.275 . S
O494 C482 1.254 . S
O495 Dy481 2.339 . S
O495 C482 1.257 . S
C496 C499 1.344 . S
C496 C500 1.328 . S
C496 C502 1.516 . S
C497 C498 1.304 . S
C497 C501 1.323 . S
C498 C497 1.304 . S
C498 C499 1.371 . S
C498 H512 0.930 . S
C499 C496 1.344 . S
C499 C498 1.371 . S
C499 H513 0.931 . S
C500 C496 1.328 . S
C500 C501 1.433 . S
C500 H514 0.931 . S
C501 C497 1.323 . S
C501 C500 1.433 . S
C501 H515 0.933 . S
C502 Dy480 2.738 . S
C502 O485 1.255 . S
C502 O486 1.249 . S
C502 C496 1.516 . S
C503 O487 1.254 . S
C503 O488 1.257 . S
C504 O489 1.266 . S
C504 O490 1.236 . S
C505 C508 1.344 . S
C505 C509 1.328 . S
C505 C511 1.516 . S
C506 C507 1.304 . S
C506 C510 1.323 . S
C507 C506 1.304 . S
C507 C508 1.371 . S
C507 H516 0.930 . S
C508 C505 1.344 . S
C508 C507 1.371 . S
C508 H517 0.931 . S
C509 C505 1.328 . S
C509 C510 1.433 . S
C509 H518 0.931 . S
C510 C506 1.323 . S
C510 C509 1.433 . S
C510 H519 0.933 . S
C511 Dy481 2.738 . S
C511 O491 1.255 . S
C511 O492 1.249 . S
C511 C505 1.516 . S
H512 C498 0.930 . S
H513 C499 0.931 . S
H514 C500 0.931 . S
H515 C501 0.933 . S
H516 C507 0.930 . S
H517 C508 0.931 . S
H518 C509 0.931 . S
H519 C510 0.933 . S
Dy520 O523 2.307 . S
Dy520 O525 2.395 . S
Dy520 O526 2.379 . S
Dy520 O528 2.339 . S
Dy520 O530 2.298 . S
Dy520 O534 2.275 . S
Dy520 C542 2.738 . S
Dy521 O524 2.298 . S
Dy521 O527 2.275 . S
Dy521 O529 2.307 . S
Dy521 O531 2.395 . S
Dy521 O532 2.379 . S
Dy521 O535 2.339 . S
Dy521 C551 2.738 . S
C522 O534 1.254 . S
C522 O535 1.257 . S
O523 Dy520 2.307 . S
O523 C533 1.266 . S
O524 Dy521 2.298 . S
O524 C533 1.236 . S
O525 Dy520 2.395 . S
O525 C542 1.255 . S
O526 Dy520 2.379 . S
O526 C542 1.249 . S
O527 Dy521 2.275 . S
O527 C543 1.254 . S
O528 Dy520 2.339 . S
O528 C543 1.257 . S
O529 Dy521 2.307 . S
O529 C544 1.266 . S
O530 Dy520 2.298 . S
O530 C544 1.236 . S
O531 Dy521 2.395 . S
O531 C551 1.255 . S
O532 Dy521 2.379 . S
O532 C551 1.249 . S
C533 O523 1.266 . S
C533 O524 1.236 . S
O534 Dy520 2.275 . S
O534 C522 1.254 . S
O535 Dy521 2.339 . S
O535 C522 1.257 . S
C536 C539 1.344 . S
C536 C540 1.328 . S
C536 C542 1.516 . S
C537 C538 1.304 . S
C537 C541 1.323 . S
C538 C537 1.304 . S
C538 C539 1.371 . S
C538 H552 0.930 . S
C539 C536 1.344 . S
C539 C538 1.371 . S
C539 H553 0.931 . S
C540 C536 1.328 . S
C540 C541 1.433 . S
C540 H554 0.931 . S
C541 C537 1.323 . S
C541 C540 1.433 . S
C541 H555 0.933 . S
C542 Dy520 2.738 . S
C542 O525 1.255 . S
C542 O526 1.249 . S
C542 C536 1.516 . S
C543 O527 1.254 . S
C543 O528 1.257 . S
C544 O529 1.266 . S
C544 O530 1.236 . S
C545 C548 1.344 . S
C545 C549 1.328 . S
C545 C551 1.516 . S
C546 C547 1.304 . S
C546 C550 1.323 . S
C547 C546 1.304 . S
C547 C548 1.371 . S
C547 H556 0.930 . S
C548 C545 1.344 . S
C548 C547 1.371 . S
C548 H557 0.931 . S
C549 C545 1.328 . S
C549 C550 1.433 . S
C549 H558 0.931 . S
C550 C546 1.323 . S
C550 C549 1.433 . S
C550 H559 0.933 . S
C551 Dy521 2.738 . S
C551 O531 1.255 . S
C551 O532 1.249 . S
C551 C545 1.516 . S
H552 C538 0.930 . S
H553 C539 0.931 . S
H554 C540 0.931 . S
H555 C541 0.933 . S
H556 C547 0.930 . S
H557 C548 0.931 . S
H558 C549 0.931 . S
H559 C550 0.933 . S
Dy560 O563 2.307 . S
Dy560 O565 2.395 . S
Dy560 O566 2.379 . S
Dy560 O568 2.339 . S
Dy560 O570 2.298 . S
Dy560 O574 2.275 . S
Dy560 C582 2.738 . S
Dy561 O564 2.298 . S
Dy561 O567 2.275 . S
Dy561 O569 2.307 . S
Dy561 O571 2.395 . S
Dy561 O572 2.379 . S
Dy561 O575 2.339 . S
Dy561 C591 2.738 . S
C562 O574 1.254 . S
C562 O575 1.257 . S
O563 Dy560 2.307 . S
O563 C573 1.266 . S
O564 Dy561 2.298 . S
O564 C573 1.236 . S
O565 Dy560 2.395 . S
O565 C582 1.255 . S
O566 Dy560 2.379 . S
O566 C582 1.249 . S
O567 Dy561 2.275 . S
O567 C583 1.254 . S
O568 Dy560 2.339 . S
O568 C583 1.257 . S
O569 Dy561 2.307 . S
O569 C584 1.266 . S
O570 Dy560 2.298 . S
O570 C584 1.236 . S
O571 Dy561 2.395 . S
O571 C591 1.255 . S
O572 Dy561 2.379 . S
O572 C591 1.249 . S
C573 O563 1.266 . S
C573 O564 1.236 . S
O574 Dy560 2.275 . S
O574 C562 1.254 . S
O575 Dy561 2.339 . S
O575 C562 1.257 . S
C576 C579 1.344 . S
C576 C580 1.328 . S
C576 C582 1.516 . S
C577 C578 1.304 . S
C577 C581 1.323 . S
C578 C577 1.304 . S
C578 C579 1.371 . S
C578 H592 0.930 . S
C579 C576 1.344 . S
C579 C578 1.371 . S
C579 H593 0.931 . S
C580 C576 1.328 . S
C580 C581 1.433 . S
C580 H594 0.931 . S
C581 C577 1.323 . S
C581 C580 1.433 . S
C581 H595 0.933 . S
C582 Dy560 2.738 . S
C582 O565 1.255 . S
C582 O566 1.249 . S
C582 C576 1.516 . S
C583 O567 1.254 . S
C583 O568 1.257 . S
C584 O569 1.266 . S
C584 O570 1.236 . S
C585 C588 1.344 . S
C585 C589 1.328 . S
C585 C591 1.516 . S
C586 C587 1.304 . S
C586 C590 1.323 . S
C587 C586 1.304 . S
C587 C588 1.371 . S
C587 H596 0.930 . S
C588 C585 1.344 . S
C588 C587 1.371 . S
C588 H597 0.931 . S
C589 C585 1.328 . S
C589 C590 1.433 . S
C589 H598 0.931 . S
C590 C586 1.323 . S
C590 C589 1.433 . S
C590 H599 0.933 . S
C591 Dy561 2.738 . S
C591 O571 1.255 . S
C591 O572 1.249 . S
C591 C585 1.516 . S
H592 C578 0.930 . S
H593 C579 0.931 . S
H594 C580 0.931 . S
H595 C581 0.933 . S
H596 C587 0.930 . S
H597 C588 0.931 . S
H598 C589 0.931 . S
H599 C590 0.933 . S
Dy600 O603 2.307 . S
Dy600 O605 2.395 . S
Dy600 O606 2.379 . S
Dy600 O608 2.339 . S
Dy600 O610 2.298 . S
Dy600 O614 2.275 . S
Dy600 C622 2.738 . S
Dy601 O604 2.298 . S
Dy601 O607 2.275 . S
Dy601 O609 2.307 . S
Dy601 O611 2.395 . S
Dy601 O612 2.379 . S
Dy601 O615 2.339 . S
Dy601 C631 2.738 . S
C602 O614 1.254 . S
C602 O615 1.257 . S
O603 Dy600 2.307 . S
O603 C613 1.266 . S
O604 Dy601 2.298 . S
O604 C613 1.236 . S
O605 Dy600 2.395 . S
O605 C622 1.255 . S
O606 Dy600 2.379 . S
O606 C622 1.249 . S
O607 Dy601 2.275 . S
O607 C623 1.254 . S
O608 Dy600 2.339 . S
O608 C623 1.257 . S
O609 Dy601 2.307 . S
O609 C624 1.266 . S
O610 Dy600 2.298 . S
O610 C624 1.236 . S
O611 Dy601 2.395 . S
O611 C631 1.255 . S
O612 Dy601 2.379 . S
O612 C631 1.249 . S
C613 O603 1.266 . S
C613 O604 1.236 . S
O614 Dy600 2.275 . S
O614 C602 1.254 . S
O615 Dy601 2.339 . S
O615 C602 1.257 . S
C616 C619 1.344 . S
C616 C620 1.328 . S
C616 C622 1.516 . S
C617 C618 1.304 . S
C617 C621 1.323 . S
C618 C617 1.304 . S
C618 C619 1.371 . S
C618 H632 0.930 . S
C619 C616 1.344 . S
C619 C618 1.371 . S
C619 H633 0.931 . S
C620 C616 1.328 . S
C620 C621 1.433 . S
C620 H634 0.931 . S
C621 C617 1.323 . S
C621 C620 1.433 . S
C621 H635 0.933 . S
C622 Dy600 2.738 . S
C622 O605 1.255 . S
C622 O606 1.249 . S
C622 C616 1.516 . S
C623 O607 1.254 . S
C623 O608 1.257 . S
C624 O609 1.266 . S
C624 O610 1.236 . S
C625 C628 1.344 . S
C625 C629 1.328 . S
C625 C631 1.516 . S
C626 C627 1.304 . S
C626 C630 1.323 . S
C627 C626 1.304 . S
C627 C628 1.371 . S
C627 H636 0.930 . S
C628 C625 1.344 . S
C628 C627 1.371 . S
C628 H637 0.931 . S
C629 C625 1.328 . S
C629 C630 1.433 . S
C629 H638 0.931 . S
C630 C626 1.323 . S
C630 C629 1.433 . S
C630 H639 0.933 . S
C631 Dy601 2.738 . S
C631 O611 1.255 . S
C631 O612 1.249 . S
C631 C625 1.516 . S
H632 C618 0.930 . S
H633 C619 0.931 . S
H634 C620 0.931 . S
H635 C621 0.933 . S
H636 C627 0.930 . S
H637 C628 0.931 . S
H638 C629 0.931 . S
H639 C630 0.933 . S
H640 C648 0.950 . S
H641 C653 0.950 . S
H642 C650 0.950 . S
H643 C652 0.950 . S
H644 C654 0.950 . S
H645 C656 0.950 . S
H646 C658 0.950 . S
H647 C659 0.950 . S
C648 H640 0.950 . S
C648 C649 1.386 . S
C648 C650 1.391 . S
C649 C648 1.386 . S
C649 C653 1.393 . S
C650 H642 0.950 . S
C650 C648 1.391 . S
C650 C651 1.400 . S
C651 C650 1.400 . S
C651 C652 1.398 . S
C651 C657 1.491 . S
C652 H643 0.950 . S
C652 C651 1.398 . S
C652 C653 1.391 . S
C653 H641 0.950 . S
C653 C649 1.393 . S
C653 C652 1.391 . S
C654 H644 0.950 . S
C654 C655 1.386 . S
C654 C656 1.391 . S
C655 C654 1.386 . S
C655 C659 1.393 . S
C656 H645 0.950 . S
C656 C654 1.391 . S
C656 C657 1.400 . S
C657 C651 1.491 . S
C657 C656 1.400 . S
C657 C658 1.398 . S
C658 H646 0.950 . S
C658 C657 1.398 . S
C658 C659 1.391 . S
C659 H647 0.950 . S
C659 C655 1.393 . S
C659 C658 1.391 . S
H660 C668 0.950 . S
H661 C673 0.950 . S
H662 C670 0.950 . S
H663 C672 0.950 . S
H664 C674 0.950 . S
H665 C676 0.950 . S
H666 C678 0.950 . S
H667 C679 0.950 . S
C668 H660 0.950 . S
C668 C669 1.386 . S
C668 C670 1.391 . S
C669 C668 1.386 . S
C669 C673 1.393 . S
C670 H662 0.950 . S
C670 C668 1.391 . S
C670 C671 1.400 . S
C671 C670 1.400 . S
C671 C672 1.398 . S
C671 C677 1.491 . S
C672 H663 0.950 . S
C672 C671 1.398 . S
C672 C673 1.391 . S
C673 H661 0.950 . S
C673 C669 1.393 . S
C673 C672 1.391 . S
C674 H664 0.950 . S
C674 C675 1.386 . S
C674 C676 1.391 . S
C675 C674 1.386 . S
C675 C679 1.393 . S
C676 H665 0.950 . S
C676 C674 1.391 . S
C676 C677 1.400 . S
C677 C671 1.491 . S
C677 C676 1.400 . S
C677 C678 1.398 . S
C678 H666 0.950 . S
C678 C677 1.398 . S
C678 C679 1.391 . S
C679 H667 0.950 . S
C679 C675 1.393 . S
C679 C678 1.391 . S
H680 C688 0.950 . S
H681 C693 0.950 . S
H682 C690 0.950 . S
H683 C692 0.950 . S
H684 C694 0.950 . S
H685 C696 0.950 . S
H686 C698 0.950 . S
H687 C699 0.950 . S
C688 H680 0.950 . S
C688 C689 1.386 . S
C688 C690 1.391 . S
C689 C688 1.386 . S
C689 C693 1.393 . S
C690 H682 0.950 . S
C690 C688 1.391 . S
C690 C691 1.400 . S
C691 C690 1.400 . S
C691 C692 1.398 . S
C691 C697 1.491 . S
C692 H683 0.950 . S
C692 C691 1.398 . S
C692 C693 1.391 . S
C693 H681 0.950 . S
C693 C689 1.393 . S
C693 C692 1.391 . S
C694 H684 0.950 . S
C694 C695 1.386 . S
C694 C696 1.391 . S
C695 C694 1.386 . S
C695 C699 1.393 . S
C696 H685 0.950 . S
C696 C694 1.391 . S
C696 C697 1.400 . S
C697 C691 1.491 . S
C697 C696 1.400 . S
C697 C698 1.398 . S
C698 H686 0.950 . S
C698 C697 1.398 . S
C698 C699 1.391 . S
C699 H687 0.950 . S
C699 C695 1.393 . S
C699 C698 1.391 . S
H700 C708 0.950 . S
H701 C713 0.950 . S
H702 C710 0.950 . S
H703 C712 0.950 . S
H704 C714 0.950 . S
H705 C716 0.950 . S
H706 C718 0.950 . S
H707 C719 0.950 . S
C708 H700 0.950 . S
C708 C709 1.386 . S
C708 C710 1.391 . S
C709 C708 1.386 . S
C709 C713 1.393 . S
C710 H702 0.950 . S
C710 C708 1.391 . S
C710 C711 1.400 . S
C711 C710 1.400 . S
C711 C712 1.398 . S
C711 C717 1.491 . S
C712 H703 0.950 . S
C712 C711 1.398 . S
C712 C713 1.391 . S
C713 H701 0.950 . S
C713 C709 1.393 . S
C713 C712 1.391 . S
C714 H704 0.950 . S
C714 C715 1.386 . S
C714 C716 1.391 . S
C715 C714 1.386 . S
C715 C719 1.393 . S
C716 H705 0.950 . S
C716 C714 1.391 . S
C716 C717 1.400 . S
C717 C711 1.491 . S
C717 C716 1.400 . S
C717 C718 1.398 . S
C718 H706 0.950 . S
C718 C717 1.398 . S
C718 C719 1.391 . S
C719 H707 0.950 . S
C719 C715 1.393 . S
C719 C718 1.391 . S
H720 C728 0.950 . S
H721 C733 0.950 . S
H722 C730 0.950 . S
H723 C732 0.950 . S
H724 C734 0.950 . S
H725 C736 0.950 . S
H726 C738 0.950 . S
H727 C739 0.950 . S
C728 H720 0.950 . S
C728 C729 1.386 . S
C728 C730 1.391 . S
C729 C728 1.386 . S
C729 C733 1.393 . S
C730 H722 0.950 . S
C730 C728 1.391 . S
C730 C731 1.400 . S
C731 C730 1.400 . S
C731 C732 1.398 . S
C731 C737 1.491 . S
C732 H723 0.950 . S
C732 C731 1.398 . S
C732 C733 1.391 . S
C733 H721 0.950 . S
C733 C729 1.393 . S
C733 C732 1.391 . S
C734 H724 0.950 . S
C734 C735 1.386 . S
C734 C736 1.391 . S
C735 C734 1.386 . S
C735 C739 1.393 . S
C736 H725 0.950 . S
C736 C734 1.391 . S
C736 C737 1.400 . S
C737 C731 1.491 . S
C737 C736 1.400 . S
C737 C738 1.398 . S
C738 H726 0.950 . S
C738 C737 1.398 . S
C738 C739 1.391 . S
C739 H727 0.950 . S
C739 C735 1.393 . S
C739 C738 1.391 . S
H740 C748 0.950 . S
H741 C753 0.950 . S
H742 C750 0.950 . S
H743 C752 0.950 . S
H744 C754 0.950 . S
H745 C756 0.950 . S
H746 C758 0.950 . S
H747 C759 0.950 . S
C748 H740 0.950 . S
C748 C749 1.386 . S
C748 C750 1.391 . S
C749 C748 1.386 . S
C749 C753 1.393 . S
C750 H742 0.950 . S
C750 C748 1.391 . S
C750 C751 1.400 . S
C751 C750 1.400 . S
C751 C752 1.398 . S
C751 C757 1.491 . S
C752 H743 0.950 . S
C752 C751 1.398 . S
C752 C753 1.391 . S
C753 H741 0.950 . S
C753 C749 1.393 . S
C753 C752 1.391 . S
C754 H744 0.950 . S
C754 C755 1.386 . S
C754 C756 1.391 . S
C755 C754 1.386 . S
C755 C759 1.393 . S
C756 H745 0.950 . S
C756 C754 1.391 . S
C756 C757 1.400 . S
C757 C751 1.491 . S
C757 C756 1.400 . S
C757 C758 1.398 . S
C758 H746 0.950 . S
C758 C757 1.398 . S
C758 C759 1.391 . S
C759 H747 0.950 . S
C759 C755 1.393 . S
C759 C758 1.391 . S
H760 C768 0.950 . S
H761 C773 0.950 . S
H762 C770 0.950 . S
H763 C772 0.950 . S
H764 C774 0.950 . S
H765 C776 0.950 . S
H766 C778 0.950 . S
H767 C779 0.950 . S
C768 H760 0.950 . S
C768 C769 1.386 . S
C768 C770 1.391 . S
C769 C768 1.386 . S
C769 C773 1.393 . S
C770 H762 0.950 . S
C770 C768 1.391 . S
C770 C771 1.400 . S
C771 C770 1.400 . S
C771 C772 1.398 . S
C771 C777 1.491 . S
C772 H763 0.950 . S
C772 C771 1.398 . S
C772 C773 1.391 . S
C773 H761 0.950 . S
C773 C769 1.393 . S
C773 C772 1.391 . S
C774 H764 0.950 . S
C774 C775 1.386 . S
C774 C776 1.391 . S
C775 C774 1.386 . S
C775 C779 1.393 . S
C776 H765 0.950 . S
C776 C774 1.391 . S
C776 C777 1.400 . S
C777 C771 1.491 . S
C777 C776 1.400 . S
C777 C778 1.398 . S
C778 H766 0.950 . S
C778 C777 1.398 . S
C778 C779 1.391 . S
C779 H767 0.950 . S
C779 C775 1.393 . S
C779 C778 1.391 . S
H780 C788 0.950 . S
H781 C793 0.950 . S
H782 C790 0.950 . S
H783 C792 0.950 . S
H784 C794 0.950 . S
H785 C796 0.950 . S
H786 C798 0.950 . S
H787 C799 0.950 . S
C788 H780 0.950 . S
C788 C789 1.386 . S
C788 C790 1.391 . S
C789 C788 1.386 . S
C789 C793 1.393 . S
C790 H782 0.950 . S
C790 C788 1.391 . S
C790 C791 1.400 . S
C791 C790 1.400 . S
C791 C792 1.398 . S
C791 C797 1.491 . S
C792 H783 0.950 . S
C792 C791 1.398 . S
C792 C793 1.391 . S
C793 H781 0.950 . S
C793 C789 1.393 . S
C793 C792 1.391 . S
C794 H784 0.950 . S
C794 C795 1.386 . S
C794 C796 1.391 . S
C795 C794 1.386 . S
C795 C799 1.393 . S
C796 H785 0.950 . S
C796 C794 1.391 . S
C796 C797 1.400 . S
C797 C791 1.491 . S
C797 C796 1.400 . S
C797 C798 1.398 . S
C798 H786 0.950 . S
C798 C797 1.398 . S
C798 C799 1.391 . S
C799 H787 0.950 . S
C799 C795 1.393 . S
C799 C798 1.391 . S
H800 C808 0.950 . S
H801 C813 0.950 . S
H802 C810 0.950 . S
H803 C812 0.950 . S
H804 C814 0.950 . S
H805 C816 0.950 . S
H806 C818 0.950 . S
H807 C819 0.950 . S
C808 H800 0.950 . S
C808 C809 1.386 . S
C808 C810 1.391 . S
C809 C808 1.386 . S
C809 C813 1.393 . S
C810 H802 0.950 . S
C810 C808 1.391 . S
C810 C811 1.400 . S
C811 C810 1.400 . S
C811 C812 1.398 . S
C811 C817 1.491 1_565 S
C812 H803 0.950 . S
C812 C811 1.398 . S
C812 C813 1.391 . S
C813 H801 0.950 . S
C813 C809 1.393 . S
C813 C812 1.391 . S
C814 H804 0.950 . S
C814 C815 1.386 . S
C814 C816 1.391 . S
C815 C814 1.386 . S
C815 C819 1.393 . S
C816 H805 0.950 . S
C816 C814 1.391 . S
C816 C817 1.400 . S
C817 C811 1.491 1_545 S
C817 C816 1.400 . S
C817 C818 1.398 . S
C818 H806 0.950 . S
C818 C817 1.398 . S
C818 C819 1.391 . S
C819 H807 0.950 . S
C819 C815 1.393 . S
C819 C818 1.391 . S
H820 C828 0.950 . S
H821 C833 0.950 . S
H822 C830 0.950 . S
H823 C832 0.950 . S
H824 C834 0.950 . S
H825 C836 0.950 . S
H826 C838 0.950 . S
H827 C839 0.950 . S
C828 H820 0.950 . S
C828 C829 1.386 . S
C828 C830 1.391 . S
C829 C828 1.386 . S
C829 C833 1.393 . S
C830 H822 0.950 . S
C830 C828 1.391 . S
C830 C831 1.400 . S
C831 C830 1.400 . S
C831 C832 1.398 1_545 S
C831 C837 1.491 1_545 S
C832 H823 0.950 . S
C832 C831 1.398 1_565 S
C832 C833 1.391 1_565 S
C833 H821 0.950 . S
C833 C829 1.393 . S
C833 C832 1.391 1_545 S
C834 H824 0.950 . S
C834 C835 1.386 . S
C834 C836 1.391 . S
C835 C834 1.386 . S
C835 C839 1.393 . S
C836 H825 0.950 . S
C836 C834 1.391 . S
C836 C837 1.400 . S
C837 C831 1.491 1_565 S
C837 C836 1.400 . S
C837 C838 1.398 1_565 S
C838 H826 0.950 . S
C838 C837 1.398 1_545 S
C838 C839 1.391 1_545 S
C839 H827 0.950 . S
C839 C835 1.393 . S
C839 C838 1.391 1_565 S
H840 C848 0.950 . S
H841 C853 0.950 . S
H842 C850 0.951 1_565 S
H843 C852 0.950 . S
H844 C854 0.950 . S
H845 C856 0.951 1_545 S
H846 C858 0.950 . S
H847 C859 0.950 . S
C848 H840 0.950 . S
C848 C849 1.386 . S
C848 C850 1.391 . S
C849 C848 1.386 . S
C849 C853 1.393 . S
C850 H842 0.951 1_545 S
C850 C848 1.391 . S
C850 C851 1.400 . S
C851 C850 1.400 . S
C851 C852 1.398 . S
C851 C857 1.491 1_545 S
C852 H843 0.950 . S
C852 C851 1.398 . S
C852 C853 1.391 . S
C853 H841 0.950 . S
C853 C849 1.393 . S
C853 C852 1.391 . S
C854 H844 0.950 . S
C854 C855 1.386 . S
C854 C856 1.391 . S
C855 C854 1.386 . S
C855 C859 1.393 . S
C856 H845 0.951 1_565 S
C856 C854 1.391 . S
C856 C857 1.400 . S
C857 C851 1.491 1_565 S
C857 C856 1.400 . S
C857 C858 1.398 . S
C858 H846 0.950 . S
C858 C857 1.398 . S
C858 C859 1.391 . S
C859 H847 0.950 . S
C859 C855 1.393 . S
C859 C858 1.391 . S
H860 C868 0.950 . S
H861 C873 0.950 1_565 S
H862 C870 0.950 . S
H863 C872 0.950 . S
H864 C874 0.950 . S
H865 C876 0.950 . S
H866 C878 0.950 . S
H867 C879 0.950 1_545 S
C868 H860 0.950 . S
C868 C869 1.386 . S
C868 C870 1.391 . S
C869 C868 1.386 . S
C869 C873 1.393 . S
C870 H862 0.950 . S
C870 C868 1.391 . S
C870 C871 1.400 . S
C871 C870 1.400 . S
C871 C872 1.398 1_545 S
C871 C877 1.491 1_545 S
C872 H863 0.950 . S
C872 C871 1.398 1_565 S
C872 C873 1.391 1_565 S
C873 H861 0.950 1_545 S
C873 C869 1.393 . S
C873 C872 1.391 1_545 S
C874 H864 0.950 . S
C874 C875 1.386 . S
C874 C876 1.391 . S
C875 C874 1.386 . S
C875 C879 1.393 . S
C876 H865 0.950 . S
C876 C874 1.391 . S
C876 C877 1.400 . S
C877 C871 1.491 1_565 S
C877 C876 1.400 . S
C877 C878 1.398 1_565 S
C878 H866 0.950 . S
C878 C877 1.398 1_545 S
C878 C879 1.391 1_545 S
C879 H867 0.950 1_565 S
C879 C875 1.393 . S
C879 C878 1.391 1_565 S
H880 C888 0.950 . S
H881 C893 0.950 . S
H882 C890 0.950 . S
H883 C892 0.950 . S
H884 C894 0.950 . S
H885 C896 0.950 . S
H886 C898 0.950 . S
H887 C899 0.950 . S
C888 H880 0.950 . S
C888 C889 1.386 . S
C888 C890 1.391 . S
C889 C888 1.386 . S
C889 C893 1.393 . S
C890 H882 0.950 . S
C890 C888 1.391 . S
C890 C891 1.400 . S
C891 C890 1.400 . S
C891 C892 1.398 . S
C891 C897 1.491 . S
C892 H883 0.950 . S
C892 C891 1.398 . S
C892 C893 1.391 . S
C893 H881 0.950 . S
C893 C889 1.393 . S
C893 C892 1.391 . S
C894 H884 0.950 . S
C894 C895 1.386 . S
C894 C896 1.391 . S
C895 C894 1.386 . S
C895 C899 1.393 . S
C896 H885 0.950 . S
C896 C894 1.391 . S
C896 C897 1.400 . S
C897 C891 1.491 . S
C897 C896 1.400 . S
C897 C898 1.398 . S
C898 H886 0.950 . S
C898 C897 1.398 . S
C898 C899 1.391 . S
C899 H887 0.950 . S
C899 C895 1.393 . S
C899 C898 1.391 . S
H900 C908 0.950 . S
H901 C913 0.950 . S
H902 C910 0.950 . S
H903 C912 0.950 . S
H904 C914 0.950 . S
H905 C916 0.950 . S
H906 C918 0.950 . S
H907 C919 0.950 . S
C908 H900 0.950 . S
C908 C909 1.386 . S
C908 C910 1.391 . S
C909 C908 1.386 . S
C909 C913 1.393 . S
C910 H902 0.950 . S
C910 C908 1.391 . S
C910 C911 1.400 . S
C911 C910 1.400 . S
C911 C912 1.398 . S
C911 C917 1.491 . S
C912 H903 0.950 . S
C912 C911 1.398 . S
C912 C913 1.391 . S
C913 H901 0.950 . S
C913 C909 1.393 . S
C913 C912 1.391 . S
C914 H904 0.950 . S
C914 C915 1.386 . S
C914 C916 1.391 . S
C915 C914 1.386 . S
C915 C919 1.393 . S
C916 H905 0.950 . S
C916 C914 1.391 . S
C916 C917 1.400 . S
C917 C911 1.491 . S
C917 C916 1.400 . S
C917 C918 1.398 . S
C918 H906 0.950 . S
C918 C917 1.398 . S
C918 C919 1.391 . S
C919 H907 0.950 . S
C919 C915 1.393 . S
C919 C918 1.391 . S
H920 C928 0.950 . S
H921 C933 0.950 . S
H922 C930 0.950 . S
H923 C932 0.950 . S
H924 C934 0.950 . S
H925 C936 0.950 . S
H926 C938 0.950 . S
H927 C939 0.950 . S
C928 H920 0.950 . S
C928 C929 1.386 . S
C928 C930 1.391 . S
C929 C928 1.386 . S
C929 C933 1.393 . S
C930 H922 0.950 . S
C930 C928 1.391 . S
C930 C931 1.400 . S
C931 C930 1.400 . S
C931 C932 1.398 . S
C931 C937 1.491 . S
C932 H923 0.950 . S
C932 C931 1.398 . S
C932 C933 1.391 . S
C933 H921 0.950 . S
C933 C929 1.393 . S
C933 C932 1.391 . S
C934 H924 0.950 . S
C934 C935 1.386 . S
C934 C936 1.391 . S
C935 C934 1.386 . S
C935 C939 1.393 . S
C936 H925 0.950 . S
C936 C934 1.391 . S
C936 C937 1.400 . S
C937 C931 1.491 . S
C937 C936 1.400 . S
C937 C938 1.398 . S
C938 H926 0.950 . S
C938 C937 1.398 . S
C938 C939 1.391 . S
C939 H927 0.950 . S
C939 C935 1.393 . S
C939 C938 1.391 . S
H940 C948 0.950 . S
H941 C953 0.950 . S
H942 C950 0.950 . S
H943 C952 0.950 . S
H944 C954 0.950 . S
H945 C956 0.950 . S
H946 C958 0.950 . S
H947 C959 0.950 . S
C948 H940 0.950 . S
C948 C949 1.386 . S
C948 C950 1.391 . S
C949 C948 1.386 . S
C949 C953 1.393 . S
C950 H942 0.950 . S
C950 C948 1.391 . S
C950 C951 1.400 . S
C951 C950 1.400 . S
C951 C952 1.398 . S
C951 C957 1.491 . S
C952 H943 0.950 . S
C952 C951 1.398 . S
C952 C953 1.391 . S
C953 H941 0.950 . S
C953 C949 1.393 . S
C953 C952 1.391 . S
C954 H944 0.950 . S
C954 C955 1.386 . S
C954 C956 1.391 . S
C955 C954 1.386 . S
C955 C959 1.393 . S
C956 H945 0.950 . S
C956 C954 1.391 . S
C956 C957 1.400 . S
C957 C951 1.491 . S
C957 C956 1.400 . S
C957 C958 1.398 . S
C958 H946 0.950 . S
C958 C957 1.398 . S
C958 C959 1.391 . S
C959 H947 0.950 . S
C959 C955 1.393 . S
C959 C958 1.391 . S
H960 C968 0.950 . S
H961 C973 0.950 . S
H962 C970 0.950 . S
H963 C972 0.950 . S
H964 C974 0.950 . S
H965 C976 0.950 . S
H966 C978 0.950 . S
H967 C979 0.950 . S
C968 H960 0.950 . S
C968 C969 1.386 . S
C968 C970 1.391 . S
C969 C968 1.386 . S
C969 C973 1.393 . S
C970 H962 0.950 . S
C970 C968 1.391 . S
C970 C971 1.400 . S
C971 C970 1.400 . S
C971 C972 1.398 . S
C971 C977 1.491 1_556 S
C972 H963 0.950 . S
C972 C971 1.398 . S
C972 C973 1.391 . S
C973 H961 0.950 . S
C973 C969 1.393 . S
C973 C972 1.391 . S
C974 H964 0.950 . S
C974 C975 1.386 . S
C974 C976 1.391 . S
C975 C974 1.386 . S
C975 C979 1.393 . S
C976 H965 0.950 . S
C976 C974 1.391 . S
C976 C977 1.400 . S
C977 C971 1.491 1_554 S
C977 C976 1.400 . S
C977 C978 1.398 . S
C978 H966 0.950 . S
C978 C977 1.398 . S
C978 C979 1.391 . S
C979 H967 0.950 . S
C979 C975 1.393 . S
C979 C978 1.391 . S
H980 C988 0.950 . S
H981 C993 0.950 . S
H982 C990 0.950 . S
H983 C992 0.950 . S
H984 C994 0.950 . S
H985 C996 0.950 . S
H986 C998 0.950 . S
H987 C999 0.950 . S
C988 H980 0.950 . S
C988 C989 1.386 . S
C988 C990 1.391 . S
C989 C988 1.386 . S
C989 C993 1.393 . S
C990 H982 0.950 . S
C990 C988 1.391 . S
C990 C991 1.400 . S
C991 C990 1.400 . S
C991 C992 1.398 . S
C991 C997 1.491 1_556 S
C992 H983 0.950 . S
C992 C991 1.398 . S
C992 C993 1.391 . S
C993 H981 0.950 . S
C993 C989 1.393 . S
C993 C992 1.391 . S
C994 H984 0.950 . S
C994 C995 1.386 . S
C994 C996 1.391 . S
C995 C994 1.386 . S
C995 C999 1.393 . S
C996 H985 0.950 . S
C996 C994 1.391 . S
C996 C997 1.400 . S
C997 C991 1.491 1_554 S
C997 C996 1.400 . S
C997 C998 1.398 . S
C998 H986 0.950 . S
C998 C997 1.398 . S
C998 C999 1.391 . S
C999 H987 0.950 . S
C999 C995 1.393 . S
C999 C998 1.391 . S
H1000 C1008 0.950 . S
H1001 C1013 0.950 . S
H1002 C1010 0.950 . S
H1003 C1012 0.950 . S
H1004 C1014 0.950 . S
H1005 C1016 0.950 . S
H1006 C1018 0.950 . S
H1007 C1019 0.950 . S
C1008 H1000 0.950 . S
C1008 C1009 1.386 . S
C1008 C1010 1.391 . S
C1009 C1008 1.386 . S
C1009 C1013 1.393 . S
C1010 H1002 0.950 . S
C1010 C1008 1.391 . S
C1010 C1011 1.400 . S
C1011 C1010 1.400 . S
C1011 C1012 1.398 . S
C1011 C1017 1.491 . S
C1012 H1003 0.950 . S
C1012 C1011 1.398 . S
C1012 C1013 1.391 . S
C1013 H1001 0.950 . S
C1013 C1009 1.393 . S
C1013 C1012 1.391 . S
C1014 H1004 0.950 . S
C1014 C1015 1.386 . S
C1014 C1016 1.391 . S
C1015 C1014 1.386 . S
C1015 C1019 1.393 . S
C1016 H1005 0.950 . S
C1016 C1014 1.391 . S
C1016 C1017 1.400 . S
C1017 C1011 1.491 . S
C1017 C1016 1.400 . S
C1017 C1018 1.398 . S
C1018 H1006 0.950 . S
C1018 C1017 1.398 . S
C1018 C1019 1.391 . S
C1019 H1007 0.950 . S
C1019 C1015 1.393 . S
C1019 C1018 1.391 . S
H1020 C1028 0.950 . S
H1021 C1033 0.950 . S
H1022 C1030 0.950 . S
H1023 C1032 0.950 . S
H1024 C1034 0.950 . S
H1025 C1036 0.950 . S
H1026 C1038 0.950 . S
H1027 C1039 0.950 . S
C1028 H1020 0.950 . S
C1028 C1029 1.386 . S
C1028 C1030 1.391 . S
C1029 C1028 1.386 . S
C1029 C1033 1.393 . S
C1030 H1022 0.950 . S
C1030 C1028 1.391 . S
C1030 C1031 1.400 . S
C1031 C1030 1.400 . S
C1031 C1032 1.398 . S
C1031 C1037 1.491 . S
C1032 H1023 0.950 . S
C1032 C1031 1.398 . S
C1032 C1033 1.391 . S
C1033 H1021 0.950 . S
C1033 C1029 1.393 . S
C1033 C1032 1.391 . S
C1034 H1024 0.950 . S
C1034 C1035 1.386 . S
C1034 C1036 1.391 . S
C1035 C1034 1.386 . S
C1035 C1039 1.393 . S
C1036 H1025 0.950 . S
C1036 C1034 1.391 . S
C1036 C1037 1.400 . S
C1037 C1031 1.491 . S
C1037 C1036 1.400 . S
C1037 C1038 1.398 . S
C1038 H1026 0.950 . S
C1038 C1037 1.398 . S
C1038 C1039 1.391 . S
C1039 H1027 0.950 . S
C1039 C1035 1.393 . S
C1039 C1038 1.391 . S
H1040 C1048 0.950 . S
H1041 C1053 0.950 . S
H1042 C1050 0.950 . S
H1043 C1052 0.950 . S
H1044 C1054 0.950 . S
H1045 C1056 0.950 . S
H1046 C1058 0.950 . S
H1047 C1059 0.950 . S
C1048 H1040 0.950 . S
C1048 C1049 1.386 . S
C1048 C1050 1.391 . S
C1049 C1048 1.386 . S
C1049 C1053 1.393 . S
C1050 H1042 0.950 . S
C1050 C1048 1.391 . S
C1050 C1051 1.400 . S
C1051 C1050 1.400 . S
C1051 C1052 1.398 . S
C1051 C1057 1.491 1_554 S
C1052 H1043 0.950 . S
C1052 C1051 1.398 . S
C1052 C1053 1.391 . S
C1053 H1041 0.950 . S
C1053 C1049 1.393 . S
C1053 C1052 1.391 . S
C1054 H1044 0.950 . S
C1054 C1055 1.386 . S
C1054 C1056 1.391 . S
C1055 C1054 1.386 . S
C1055 C1059 1.393 . S
C1056 H1045 0.950 . S
C1056 C1054 1.391 . S
C1056 C1057 1.400 . S
C1057 C1051 1.491 1_556 S
C1057 C1056 1.400 . S
C1057 C1058 1.398 . S
C1058 H1046 0.950 . S
C1058 C1057 1.398 . S
C1058 C1059 1.391 . S
C1059 H1047 0.950 . S
C1059 C1055 1.393 . S
C1059 C1058 1.391 . S
H1060 C1068 0.950 . S
H1061 C1073 0.950 . S
H1062 C1070 0.950 . S
H1063 C1072 0.950 . S
H1064 C1074 0.950 . S
H1065 C1076 0.950 . S
H1066 C1078 0.950 . S
H1067 C1079 0.950 . S
C1068 H1060 0.950 . S
C1068 C1069 1.386 . S
C1068 C1070 1.391 . S
C1069 C1068 1.386 . S
C1069 C1073 1.393 . S
C1070 H1062 0.950 . S
C1070 C1068 1.391 . S
C1070 C1071 1.400 . S
C1071 C1070 1.400 . S
C1071 C1072 1.398 . S
C1071 C1077 1.491 1_556 S
C1072 H1063 0.950 . S
C1072 C1071 1.398 . S
C1072 C1073 1.391 . S
C1073 H1061 0.950 . S
C1073 C1069 1.393 . S
C1073 C1072 1.391 . S
C1074 H1064 0.950 . S
C1074 C1075 1.386 . S
C1074 C1076 1.391 . S
C1075 C1074 1.386 . S
C1075 C1079 1.393 . S
C1076 H1065 0.950 . S
C1076 C1074 1.391 . S
C1076 C1077 1.400 . S
C1077 C1071 1.491 1_554 S
C1077 C1076 1.400 . S
C1077 C1078 1.398 . S
C1078 H1066 0.950 . S
C1078 C1077 1.398 . S
C1078 C1079 1.391 . S
C1079 H1067 0.950 . S
C1079 C1075 1.393 . S
C1079 C1078 1.391 . S
H1080 C1088 0.950 . S
H1081 C1093 0.950 . S
H1082 C1090 0.950 . S
H1083 C1092 0.950 . S
H1084 C1094 0.950 . S
H1085 C1096 0.950 . S
H1086 C1098 0.950 . S
H1087 C1099 0.950 . S
C1088 H1080 0.950 . S
C1088 C1089 1.386 . S
C1088 C1090 1.391 . S
C1089 C1088 1.386 . S
C1089 C1093 1.393 . S
C1090 H1082 0.950 . S
C1090 C1088 1.391 . S
C1090 C1091 1.400 . S
C1091 C1090 1.400 . S
C1091 C1092 1.398 . S
C1091 C1097 1.491 . S
C1092 H1083 0.950 . S
C1092 C1091 1.398 . S
C1092 C1093 1.391 . S
C1093 H1081 0.950 . S
C1093 C1089 1.393 . S
C1093 C1092 1.391 . S
C1094 H1084 0.950 . S
C1094 C1095 1.386 . S
C1094 C1096 1.391 . S
C1095 C1094 1.386 . S
C1095 C1099 1.393 . S
C1096 H1085 0.950 . S
C1096 C1094 1.391 . S
C1096 C1097 1.400 . S
C1097 C1091 1.491 . S
C1097 C1096 1.400 . S
C1097 C1098 1.398 . S
C1098 H1086 0.950 . S
C1098 C1097 1.398 . S
C1098 C1099 1.391 . S
C1099 H1087 0.950 . S
C1099 C1095 1.393 . S
C1099 C1098 1.391 . S
H1100 C1108 0.950 . S
H1101 C1113 0.950 . S
H1102 C1110 0.950 . S
H1103 C1112 0.950 . S
H1104 C1114 0.950 . S
H1105 C1116 0.950 . S
H1106 C1118 0.950 . S
H1107 C1119 0.950 . S
C1108 H1100 0.950 . S
C1108 C1109 1.386 . S
C1108 C1110 1.391 . S
C1109 C1108 1.386 . S
C1109 C1113 1.393 . S
C1110 H1102 0.950 . S
C1110 C1108 1.391 . S
C1110 C1111 1.400 . S
C1111 C1110 1.400 . S
C1111 C1112 1.398 . S
C1111 C1117 1.491 . S
C1112 H1103 0.950 . S
C1112 C1111 1.398 . S
C1112 C1113 1.391 . S
C1113 H1101 0.950 . S
C1113 C1109 1.393 . S
C1113 C1112 1.391 . S
C1114 H1104 0.950 . S
C1114 C1115 1.386 . S
C1114 C1116 1.391 . S
C1115 C1114 1.386 . S
C1115 C1119 1.393 . S
C1116 H1105 0.950 . S
C1116 C1114 1.391 . S
C1116 C1117 1.400 . S
C1117 C1111 1.491 . S
C1117 C1116 1.400 . S
C1117 C1118 1.398 . S
C1118 H1106 0.950 . S
C1118 C1117 1.398 . S
C1118 C1119 1.391 . S
C1119 H1107 0.950 . S
C1119 C1115 1.393 . S
C1119 C1118 1.391 . S
H1120 C1128 0.950 . S
H1121 C1133 0.950 . S
H1122 C1130 0.950 . S
H1123 C1132 0.950 . S
H1124 C1134 0.950 . S
H1125 C1136 0.950 . S
H1126 C1138 0.950 . S
H1127 C1139 0.950 . S
C1128 H1120 0.950 . S
C1128 C1129 1.386 1_545 S
C1128 C1130 1.391 . S
C1129 C1128 1.386 1_565 S
C1129 C1133 1.393 . S
C1130 H1122 0.950 . S
C1130 C1128 1.391 . S
C1130 C1131 1.400 1_545 S
C1131 C1130 1.400 1_565 S
C1131 C1132 1.398 . S
C1131 C1137 1.491 1_665 S
C1132 H1123 0.950 . S
C1132 C1131 1.398 . S
C1132 C1133 1.391 . S
C1133 H1121 0.950 . S
C1133 C1129 1.393 . S
C1133 C1132 1.391 . S
C1134 H1124 0.950 . S
C1134 C1135 1.386 1_565 S
C1134 C1136 1.391 . S
C1135 C1134 1.386 1_545 S
C1135 C1139 1.393 . S
C1136 H1125 0.950 . S
C1136 C1134 1.391 . S
C1136 C1137 1.400 1_565 S
C1137 C1131 1.491 1_445 S
C1137 C1136 1.400 1_545 S
C1137 C1138 1.398 . S
C1138 H1126 0.950 . S
C1138 C1137 1.398 . S
C1138 C1139 1.391 . S
C1139 H1127 0.950 . S
C1139 C1135 1.393 . S
C1139 C1138 1.391 . S
H1140 C1148 0.950 . S
H1141 C1153 0.950 . S
H1142 C1150 0.950 . S
H1143 C1152 0.949 1_565 S
H1144 C1154 0.950 . S
H1145 C1156 0.950 . S
H1146 C1158 0.949 1_545 S
H1147 C1159 0.950 . S
C1148 H1140 0.950 . S
C1148 C1149 1.386 . S
C1148 C1150 1.391 . S
C1149 C1148 1.386 . S
C1149 C1153 1.393 . S
C1150 H1142 0.950 . S
C1150 C1148 1.391 . S
C1150 C1151 1.400 . S
C1151 C1150 1.400 . S
C1151 C1152 1.398 . S
C1151 C1157 1.491 1_645 S
C1152 H1143 0.949 1_545 S
C1152 C1151 1.398 . S
C1152 C1153 1.391 . S
C1153 H1141 0.950 . S
C1153 C1149 1.393 . S
C1153 C1152 1.391 . S
C1154 H1144 0.950 . S
C1154 C1155 1.386 . S
C1154 C1156 1.391 . S
C1155 C1154 1.386 . S
C1155 C1159 1.393 . S
C1156 H1145 0.950 . S
C1156 C1154 1.391 . S
C1156 C1157 1.400 . S
C1157 C1151 1.491 1_465 S
C1157 C1156 1.400 . S
C1157 C1158 1.398 . S
C1158 H1146 0.949 1_565 S
C1158 C1157 1.398 . S
C1158 C1159 1.391 . S
C1159 H1147 0.950 . S
C1159 C1155 1.393 . S
C1159 C1158 1.391 . S
H1160 C1168 0.955 . S
H1161 C1173 0.950 . S
H1162 C1170 0.950 . S
H1163 C1172 0.950 . S
H1164 C1174 0.955 . S
H1165 C1176 0.950 . S
H1166 C1178 0.950 . S
H1167 C1179 0.950 . S
C1168 H1160 0.955 . S
C1168 C1169 1.386 . S
C1168 C1170 1.391 1_545 S
C1169 C1168 1.386 . S
C1169 C1173 1.393 . S
C1170 H1162 0.950 . S
C1170 C1168 1.391 1_565 S
C1170 C1171 1.400 1_565 S
C1171 C1170 1.400 1_545 S
C1171 C1172 1.398 . S
C1171 C1177 1.491 1_445 S
C1172 H1163 0.950 . S
C1172 C1171 1.398 . S
C1172 C1173 1.391 . S
C1173 H1161 0.950 . S
C1173 C1169 1.393 . S
C1173 C1172 1.391 . S
C1174 H1164 0.955 . S
C1174 C1175 1.386 . S
C1174 C1176 1.391 1_565 S
C1175 C1174 1.386 . S
C1175 C1179 1.393 . S
C1176 H1165 0.950 . S
C1176 C1174 1.391 1_545 S
C1176 C1177 1.400 1_545 S
C1177 C1171 1.491 1_665 S
C1177 C1176 1.400 1_565 S
C1177 C1178 1.398 . S
C1178 H1166 0.950 . S
C1178 C1177 1.398 . S
C1178 C1179 1.391 . S
C1179 H1167 0.950 . S
C1179 C1175 1.393 . S
C1179 C1178 1.391 . S
H1180 C1188 0.950 . S
H1181 C1193 0.950 . S
H1182 C1190 0.950 . S
H1183 C1192 0.950 . S
H1184 C1194 0.950 . S
H1185 C1196 0.950 . S
H1186 C1198 0.950 . S
H1187 C1199 0.950 . S
C1188 H1180 0.950 . S
C1188 C1189 1.386 1_565 S
C1188 C1190 1.391 . S
C1189 C1188 1.386 1_545 S
C1189 C1193 1.393 . S
C1190 H1182 0.950 . S
C1190 C1188 1.391 . S
C1190 C1191 1.400 1_565 S
C1191 C1190 1.400 1_545 S
C1191 C1192 1.398 . S
C1191 C1197 1.491 1_645 S
C1192 H1183 0.950 . S
C1192 C1191 1.398 . S
C1192 C1193 1.391 . S
C1193 H1181 0.950 . S
C1193 C1189 1.393 . S
C1193 C1192 1.391 . S
C1194 H1184 0.950 . S
C1194 C1195 1.386 1_545 S
C1194 C1196 1.391 . S
C1195 C1194 1.386 1_565 S
C1195 C1199 1.393 . S
C1196 H1185 0.950 . S
C1196 C1194 1.391 . S
C1196 C1197 1.400 1_545 S
C1197 C1191 1.491 1_465 S
C1197 C1196 1.400 1_565 S
C1197 C1198 1.398 . S
C1198 H1186 0.950 . S
C1198 C1197 1.398 . S
C1198 C1199 1.391 . S
C1199 H1187 0.950 . S
C1199 C1195 1.393 . S
C1199 C1198 1.391 . S
H1200 C1208 0.950 . S
H1201 C1213 0.950 . S
H1202 C1210 0.950 . S
H1203 C1212 0.950 . S
H1204 C1214 0.950 . S
H1205 C1216 0.950 . S
H1206 C1218 0.950 . S
H1207 C1219 0.950 . S
C1208 H1200 0.950 . S
C1208 C1209 1.386 . S
C1208 C1210 1.391 . S
C1209 C1208 1.386 . S
C1209 C1213 1.393 . S
C1210 H1202 0.950 . S
C1210 C1208 1.391 . S
C1210 C1211 1.400 . S
C1211 C1210 1.400 . S
C1211 C1212 1.398 . S
C1211 C1217 1.491 . S
C1212 H1203 0.950 . S
C1212 C1211 1.398 . S
C1212 C1213 1.391 . S
C1213 H1201 0.950 . S
C1213 C1209 1.393 . S
C1213 C1212 1.391 . S
C1214 H1204 0.950 . S
C1214 C1215 1.386 . S
C1214 C1216 1.391 . S
C1215 C1214 1.386 . S
C1215 C1219 1.393 . S
C1216 H1205 0.950 . S
C1216 C1214 1.391 . S
C1216 C1217 1.400 . S
C1217 C1211 1.491 . S
C1217 C1216 1.400 . S
C1217 C1218 1.398 . S
C1218 H1206 0.950 . S
C1218 C1217 1.398 . S
C1218 C1219 1.391 . S
C1219 H1207 0.950 . S
C1219 C1215 1.393 . S
C1219 C1218 1.391 . S
H1220 C1228 0.950 . S
H1221 C1233 0.950 . S
H1222 C1230 0.950 . S
H1223 C1232 0.950 . S
H1224 C1234 0.950 . S
H1225 C1236 0.950 . S
H1226 C1238 0.950 . S
H1227 C1239 0.950 . S
C1228 H1220 0.950 . S
C1228 C1229 1.386 . S
C1228 C1230 1.391 . S
C1229 C1228 1.386 . S
C1229 C1233 1.393 . S
C1230 H1222 0.950 . S
C1230 C1228 1.391 . S
C1230 C1231 1.400 . S
C1231 C1230 1.400 . S
C1231 C1232 1.398 . S
C1231 C1237 1.491 . S
C1232 H1223 0.950 . S
C1232 C1231 1.398 . S
C1232 C1233 1.391 . S
C1233 H1221 0.950 . S
C1233 C1229 1.393 . S
C1233 C1232 1.391 . S
C1234 H1224 0.950 . S
C1234 C1235 1.386 . S
C1234 C1236 1.391 . S
C1235 C1234 1.386 . S
C1235 C1239 1.393 . S
C1236 H1225 0.950 . S
C1236 C1234 1.391 . S
C1236 C1237 1.400 . S
C1237 C1231 1.491 . S
C1237 C1236 1.400 . S
C1237 C1238 1.398 . S
C1238 H1226 0.950 . S
C1238 C1237 1.398 . S
C1238 C1239 1.391 . S
C1239 H1227 0.950 . S
C1239 C1235 1.393 . S
C1239 C1238 1.391 . S
H1240 C1248 0.950 . S
H1241 C1253 0.950 . S
H1242 C1250 0.950 . S
H1243 C1252 0.950 . S
H1244 C1254 0.950 . S
H1245 C1256 0.950 . S
H1246 C1258 0.950 . S
H1247 C1259 0.950 . S
C1248 H1240 0.950 . S
C1248 C1249 1.386 . S
C1248 C1250 1.391 . S
C1249 C1248 1.386 . S
C1249 C1253 1.393 . S
C1250 H1242 0.950 . S
C1250 C1248 1.391 . S
C1250 C1251 1.400 . S
C1251 C1250 1.400 . S
C1251 C1252 1.398 . S
C1251 C1257 1.491 . S
C1252 H1243 0.950 . S
C1252 C1251 1.398 . S
C1252 C1253 1.391 . S
C1253 H1241 0.950 . S
C1253 C1249 1.393 . S
C1253 C1252 1.391 . S
C1254 H1244 0.950 . S
C1254 C1255 1.386 . S
C1254 C1256 1.391 . S
C1255 C1254 1.386 . S
C1255 C1259 1.393 . S
C1256 H1245 0.950 . S
C1256 C1254 1.391 . S
C1256 C1257 1.400 . S
C1257 C1251 1.491 . S
C1257 C1256 1.400 . S
C1257 C1258 1.398 . S
C1258 H1246 0.950 . S
C1258 C1257 1.398 . S
C1258 C1259 1.391 . S
C1259 H1247 0.950 . S
C1259 C1255 1.393 . S
C1259 C1258 1.391 . S
H1260 C1268 0.950 . S
H1261 C1273 0.950 . S
H1262 C1270 0.950 . S
H1263 C1272 0.950 . S
H1264 C1274 0.950 . S
H1265 C1276 0.950 . S
H1266 C1278 0.950 . S
H1267 C1279 0.950 . S
C1268 H1260 0.950 . S
C1268 C1269 1.386 . S
C1268 C1270 1.391 . S
C1269 C1268 1.386 . S
C1269 C1273 1.393 . S
C1270 H1262 0.950 . S
C1270 C1268 1.391 . S
C1270 C1271 1.400 . S
C1271 C1270 1.400 . S
C1271 C1272 1.398 . S
C1271 C1277 1.491 . S
C1272 H1263 0.950 . S
C1272 C1271 1.398 . S
C1272 C1273 1.391 . S
C1273 H1261 0.950 . S
C1273 C1269 1.393 . S
C1273 C1272 1.391 . S
C1274 H1264 0.950 . S
C1274 C1275 1.386 . S
C1274 C1276 1.391 . S
C1275 C1274 1.386 . S
C1275 C1279 1.393 . S
C1276 H1265 0.950 . S
C1276 C1274 1.391 . S
C1276 C1277 1.400 . S
C1277 C1271 1.491 . S
C1277 C1276 1.400 . S
C1277 C1278 1.398 . S
C1278 H1266 0.950 . S
C1278 C1277 1.398 . S
C1278 C1279 1.391 . S
C1279 H1267 0.950 . S
C1279 C1275 1.393 . S
C1279 C1278 1.391 . S
H1280 C1288 0.950 . S
H1281 C1293 0.950 . S
H1282 C1290 0.950 . S
H1283 C1292 0.950 . S
H1284 C1294 0.950 . S
H1285 C1296 0.950 . S
H1286 C1298 0.950 . S
H1287 C1299 0.950 . S
C1288 H1280 0.950 . S
C1288 C1289 1.386 . S
C1288 C1290 1.391 . S
C1289 C1288 1.386 . S
C1289 C1293 1.393 . S
C1290 H1282 0.950 . S
C1290 C1288 1.391 . S
C1290 C1291 1.400 . S
C1291 C1290 1.400 . S
C1291 C1292 1.398 . S
C1291 C1297 1.491 . S
C1292 H1283 0.950 . S
C1292 C1291 1.398 . S
C1292 C1293 1.391 . S
C1293 H1281 0.950 . S
C1293 C1289 1.393 . S
C1293 C1292 1.391 . S
C1294 H1284 0.950 . S
C1294 C1295 1.386 . S
C1294 C1296 1.391 . S
C1295 C1294 1.386 . S
C1295 C1299 1.393 . S
C1296 H1285 0.950 . S
C1296 C1294 1.391 . S
C1296 C1297 1.400 . S
C1297 C1291 1.491 . S
C1297 C1296 1.400 . S
C1297 C1298 1.398 . S
C1298 H1286 0.950 . S
C1298 C1297 1.398 . S
C1298 C1299 1.391 . S
C1299 H1287 0.950 . S
C1299 C1295 1.393 . S
C1299 C1298 1.391 . S
H1300 C1308 0.950 . S
H1301 C1313 0.950 . S
H1302 C1310 0.950 . S
H1303 C1312 0.950 . S
H1304 C1314 0.950 . S
H1305 C1316 0.950 . S
H1306 C1318 0.950 . S
H1307 C1319 0.950 . S
C1308 H1300 0.950 . S
C1308 C1309 1.386 . S
C1308 C1310 1.391 . S
C1309 C1308 1.386 . S
C1309 C1313 1.393 . S
C1310 H1302 0.950 . S
C1310 C1308 1.391 . S
C1310 C1311 1.400 . S
C1311 C1310 1.400 . S
C1311 C1312 1.398 . S
C1311 C1317 1.491 . S
C1312 H1303 0.950 . S
C1312 C1311 1.398 . S
C1312 C1313 1.391 . S
C1313 H1301 0.950 . S
C1313 C1309 1.393 . S
C1313 C1312 1.391 . S
C1314 H1304 0.950 . S
C1314 C1315 1.386 . S
C1314 C1316 1.391 . S
C1315 C1314 1.386 . S
C1315 C1319 1.393 . S
C1316 H1305 0.950 . S
C1316 C1314 1.391 . S
C1316 C1317 1.400 . S
C1317 C1311 1.491 . S
C1317 C1316 1.400 . S
C1317 C1318 1.398 . S
C1318 H1306 0.950 . S
C1318 C1317 1.398 . S
C1318 C1319 1.391 . S
C1319 H1307 0.950 . S
C1319 C1315 1.393 . S
C1319 C1318 1.391 . S
H1320 C1328 0.950 . S
H1321 C1333 0.950 . S
H1322 C1330 0.950 . S
H1323 C1332 0.950 . S
H1324 C1334 0.950 . S
H1325 C1336 0.950 . S
H1326 C1338 0.950 . S
H1327 C1339 0.950 . S
C1328 H1320 0.950 . S
C1328 C1329 1.386 . S
C1328 C1330 1.391 . S
C1329 C1328 1.386 . S
C1329 C1333 1.393 . S
C1330 H1322 0.950 . S
C1330 C1328 1.391 . S
C1330 C1331 1.400 . S
C1331 C1330 1.400 . S
C1331 C1332 1.398 . S
C1331 C1337 1.491 . S
C1332 H1323 0.950 . S
C1332 C1331 1.398 . S
C1332 C1333 1.391 . S
C1333 H1321 0.950 . S
C1333 C1329 1.393 . S
C1333 C1332 1.391 . S
C1334 H1324 0.950 . S
C1334 C1335 1.386 . S
C1334 C1336 1.391 . S
C1335 C1334 1.386 . S
C1335 C1339 1.393 . S
C1336 H1325 0.950 . S
C1336 C1334 1.391 . S
C1336 C1337 1.400 . S
C1337 C1331 1.491 . S
C1337 C1336 1.400 . S
C1337 C1338 1.398 . S
C1338 H1326 0.950 . S
C1338 C1337 1.398 . S
C1338 C1339 1.391 . S
C1339 H1327 0.950 . S
C1339 C1335 1.393 . S
C1339 C1338 1.391 . S
H1340 C1348 0.950 . S
H1341 C1353 0.950 . S
H1342 C1350 0.950 . S
H1343 C1352 0.950 . S
H1344 C1354 0.950 . S
H1345 C1356 0.950 . S
H1346 C1358 0.950 . S
H1347 C1359 0.950 . S
C1348 H1340 0.950 . S
C1348 C1349 1.386 . S
C1348 C1350 1.391 . S
C1349 C1348 1.386 . S
C1349 C1353 1.393 . S
C1350 H1342 0.950 . S
C1350 C1348 1.391 . S
C1350 C1351 1.400 . S
C1351 C1350 1.400 . S
C1351 C1352 1.398 . S
C1351 C1357 1.491 . S
C1352 H1343 0.950 . S
C1352 C1351 1.398 . S
C1352 C1353 1.391 . S
C1353 H1341 0.950 . S
C1353 C1349 1.393 . S
C1353 C1352 1.391 . S
C1354 H1344 0.950 . S
C1354 C1355 1.386 . S
C1354 C1356 1.391 . S
C1355 C1354 1.386 . S
C1355 C1359 1.393 . S
C1356 H1345 0.950 . S
C1356 C1354 1.391 . S
C1356 C1357 1.400 . S
C1357 C1351 1.491 . S
C1357 C1356 1.400 . S
C1357 C1358 1.398 . S
C1358 H1346 0.950 . S
C1358 C1357 1.398 . S
C1358 C1359 1.391 . S
C1359 H1347 0.950 . S
C1359 C1355 1.393 . S
C1359 C1358 1.391 . S
H1360 C1368 0.950 . S
H1361 C1373 0.950 . S
H1362 C1370 0.950 . S
H1363 C1372 0.950 . S
H1364 C1374 0.950 . S
H1365 C1376 0.950 . S
H1366 C1378 0.950 . S
H1367 C1379 0.950 . S
C1368 H1360 0.950 . S
C1368 C1369 1.386 . S
C1368 C1370 1.391 . S
C1369 C1368 1.386 . S
C1369 C1373 1.393 . S
C1370 H1362 0.950 . S
C1370 C1368 1.391 . S
C1370 C1371 1.400 . S
C1371 C1370 1.400 . S
C1371 C1372 1.398 . S
C1371 C1377 1.491 . S
C1372 H1363 0.950 . S
C1372 C1371 1.398 . S
C1372 C1373 1.391 . S
C1373 H1361 0.950 . S
C1373 C1369 1.393 . S
C1373 C1372 1.391 . S
C1374 H1364 0.950 . S
C1374 C1375 1.386 . S
C1374 C1376 1.391 . S
C1375 C1374 1.386 . S
C1375 C1379 1.393 . S
C1376 H1365 0.950 . S
C1376 C1374 1.391 . S
C1376 C1377 1.400 . S
C1377 C1371 1.491 . S
C1377 C1376 1.400 . S
C1377 C1378 1.398 . S
C1378 H1366 0.950 . S
C1378 C1377 1.398 . S
C1378 C1379 1.391 . S
C1379 H1367 0.950 . S
C1379 C1375 1.393 . S
C1379 C1378 1.391 . S
H1380 C1388 0.950 . S
H1381 C1393 0.950 . S
H1382 C1390 0.950 . S
H1383 C1392 0.950 . S
H1384 C1394 0.950 . S
H1385 C1396 0.950 . S
H1386 C1398 0.950 . S
H1387 C1399 0.950 . S
C1388 H1380 0.950 . S
C1388 C1389 1.386 . S
C1388 C1390 1.391 . S
C1389 C1388 1.386 . S
C1389 C1393 1.393 . S
C1390 H1382 0.950 . S
C1390 C1388 1.391 . S
C1390 C1391 1.400 . S
C1391 C1390 1.400 . S
C1391 C1392 1.398 . S
C1391 C1397 1.491 . S
C1392 H1383 0.950 . S
C1392 C1391 1.398 . S
C1392 C1393 1.391 . S
C1393 H1381 0.950 . S
C1393 C1389 1.393 . S
C1393 C1392 1.391 . S
C1394 H1384 0.950 . S
C1394 C1395 1.386 . S
C1394 C1396 1.391 . S
C1395 C1394 1.386 . S
C1395 C1399 1.393 . S
C1396 H1385 0.950 . S
C1396 C1394 1.391 . S
C1396 C1397 1.400 . S
C1397 C1391 1.491 . S
C1397 C1396 1.400 . S
C1397 C1398 1.398 . S
C1398 H1386 0.950 . S
C1398 C1397 1.398 . S
C1398 C1399 1.391 . S
C1399 H1387 0.950 . S
C1399 C1395 1.393 . S
C1399 C1398 1.391 . S
H1400 C1408 0.950 . S
H1401 C1413 0.950 . S
H1402 C1410 0.950 . S
H1403 C1412 0.950 . S
H1404 C1414 0.950 . S
H1405 C1416 0.950 . S
H1406 C1418 0.950 . S
H1407 C1419 0.950 . S
C1408 H1400 0.950 . S
C1408 C1409 1.386 . S
C1408 C1410 1.391 . S
C1409 C1408 1.386 . S
C1409 C1413 1.393 . S
C1410 H1402 0.950 . S
C1410 C1408 1.391 . S
C1410 C1411 1.400 . S
C1411 C1410 1.400 . S
C1411 C1412 1.398 . S
C1411 C1417 1.491 . S
C1412 H1403 0.950 . S
C1412 C1411 1.398 . S
C1412 C1413 1.391 . S
C1413 H1401 0.950 . S
C1413 C1409 1.393 . S
C1413 C1412 1.391 . S
C1414 H1404 0.950 . S
C1414 C1415 1.386 . S
C1414 C1416 1.391 . S
C1415 C1414 1.386 . S
C1415 C1419 1.393 . S
C1416 H1405 0.950 . S
C1416 C1414 1.391 . S
C1416 C1417 1.400 . S
C1417 C1411 1.491 . S
C1417 C1416 1.400 . S
C1417 C1418 1.398 . S
C1418 H1406 0.950 . S
C1418 C1417 1.398 . S
C1418 C1419 1.391 . S
C1419 H1407 0.950 . S
C1419 C1415 1.393 . S
C1419 C1418 1.391 . S
H1420 C1428 0.950 . S
H1421 C1433 0.950 . S
H1422 C1430 0.950 . S
H1423 C1432 0.950 . S
H1424 C1434 0.950 . S
H1425 C1436 0.950 . S
H1426 C1438 0.950 . S
H1427 C1439 0.950 . S
C1428 H1420 0.950 . S
C1428 C1429 1.386 . S
C1428 C1430 1.391 . S
C1429 C1428 1.386 . S
C1429 C1433 1.393 . S
C1430 H1422 0.950 . S
C1430 C1428 1.391 . S
C1430 C1431 1.400 . S
C1431 C1430 1.400 . S
C1431 C1432 1.398 . S
C1431 C1437 1.491 . S
C1432 H1423 0.950 . S
C1432 C1431 1.398 . S
C1432 C1433 1.391 . S
C1433 H1421 0.950 . S
C1433 C1429 1.393 . S
C1433 C1432 1.391 . S
C1434 H1424 0.950 . S
C1434 C1435 1.386 . S
C1434 C1436 1.391 . S
C1435 C1434 1.386 . S
C1435 C1439 1.393 . S
C1436 H1425 0.950 . S
C1436 C1434 1.391 . S
C1436 C1437 1.400 . S
C1437 C1431 1.491 . S
C1437 C1436 1.400 . S
C1437 C1438 1.398 . S
C1438 H1426 0.950 . S
C1438 C1437 1.398 . S
C1438 C1439 1.391 . S
C1439 H1427 0.950 . S
C1439 C1435 1.393 . S
C1439 C1438 1.391 . S
H1440 C1448 0.950 . S
H1441 C1453 0.950 . S
H1442 C1450 0.950 . S
H1443 C1452 0.950 . S
H1444 C1454 0.950 . S
H1445 C1456 0.950 . S
H1446 C1458 0.950 . S
H1447 C1459 0.950 . S
C1448 H1440 0.950 . S
C1448 C1449 1.386 . S
C1448 C1450 1.391 1_565 S
C1449 C1448 1.386 . S
C1449 C1453 1.393 . S
C1450 H1442 0.950 . S
C1450 C1448 1.391 1_545 S
C1450 C1451 1.400 . S
C1451 C1450 1.400 . S
C1451 C1452 1.398 . S
C1451 C1457 1.491 . S
C1452 H1443 0.950 . S
C1452 C1451 1.398 . S
C1452 C1453 1.391 1_545 S
C1453 H1441 0.950 . S
C1453 C1449 1.393 . S
C1453 C1452 1.391 1_565 S
C1454 H1444 0.950 . S
C1454 C1455 1.386 . S
C1454 C1456 1.391 . S
C1455 C1454 1.386 . S
C1455 C1459 1.393 . S
C1456 H1445 0.950 . S
C1456 C1454 1.391 . S
C1456 C1457 1.400 . S
C1457 C1451 1.491 . S
C1457 C1456 1.400 . S
C1457 C1458 1.398 . S
C1458 H1446 0.950 . S
C1458 C1457 1.398 . S
C1458 C1459 1.391 . S
C1459 H1447 0.950 . S
C1459 C1455 1.393 . S
C1459 C1458 1.391 . S
H1460 C1468 0.950 . S
H1461 C1473 0.950 . S
H1462 C1470 0.950 . S
H1463 C1472 0.950 . S
H1464 C1474 0.950 . S
H1465 C1476 0.950 . S
H1466 C1478 0.950 . S
H1467 C1479 0.950 . S
C1468 H1460 0.950 . S
C1468 C1469 1.386 . S
C1468 C1470 1.391 . S
C1469 C1468 1.386 . S
C1469 C1473 1.393 . S
C1470 H1462 0.950 . S
C1470 C1468 1.391 . S
C1470 C1471 1.400 . S
C1471 C1470 1.400 . S
C1471 C1472 1.398 . S
C1471 C1477 1.491 . S
C1472 H1463 0.950 . S
C1472 C1471 1.398 . S
C1472 C1473 1.391 . S
C1473 H1461 0.950 . S
C1473 C1469 1.393 . S
C1473 C1472 1.391 . S
C1474 H1464 0.950 . S
C1474 C1475 1.386 . S
C1474 C1476 1.391 1_545 S
C1475 C1474 1.386 . S
C1475 C1479 1.393 . S
C1476 H1465 0.950 . S
C1476 C1474 1.391 1_565 S
C1476 C1477 1.400 . S
C1477 C1471 1.491 . S
C1477 C1476 1.400 . S
C1477 C1478 1.398 . S
C1478 H1466 0.950 . S
C1478 C1477 1.398 . S
C1478 C1479 1.391 1_565 S
C1479 H1467 0.950 . S
C1479 C1475 1.393 . S
C1479 C1478 1.391 1_545 S
H1480 C1488 0.950 . S
H1481 C1493 0.950 . S
H1482 C1490 0.950 . S
H1483 C1492 0.950 . S
H1484 C1494 0.950 . S
H1485 C1496 0.950 . S
H1486 C1498 0.950 . S
H1487 C1499 0.950 . S
C1488 H1480 0.950 . S
C1488 C1489 1.386 . S
C1488 C1490 1.391 1_545 S
C1489 C1488 1.386 . S
C1489 C1493 1.393 . S
C1490 H1482 0.950 . S
C1490 C1488 1.391 1_565 S
C1490 C1491 1.400 . S
C1491 C1490 1.400 . S
C1491 C1492 1.398 . S
C1491 C1497 1.491 . S
C1492 H1483 0.950 . S
C1492 C1491 1.398 . S
C1492 C1493 1.391 1_565 S
C1493 H1481 0.950 . S
C1493 C1489 1.393 . S
C1493 C1492 1.391 1_545 S
C1494 H1484 0.950 . S
C1494 C1495 1.386 . S
C1494 C1496 1.391 . S
C1495 C1494 1.386 . S
C1495 C1499 1.393 . S
C1496 H1485 0.950 . S
C1496 C1494 1.391 . S
C1496 C1497 1.400 . S
C1497 C1491 1.491 . S
C1497 C1496 1.400 . S
C1497 C1498 1.398 . S
C1498 H1486 0.950 . S
C1498 C1497 1.398 . S
C1498 C1499 1.391 . S
C1499 H1487 0.950 . S
C1499 C1495 1.393 . S
C1499 C1498 1.391 . S
H1500 C1508 0.950 . S
H1501 C1513 0.950 . S
H1502 C1510 0.950 . S
H1503 C1512 0.950 . S
H1504 C1514 0.950 . S
H1505 C1516 0.950 . S
H1506 C1518 0.950 . S
H1507 C1519 0.950 . S
C1508 H1500 0.950 . S
C1508 C1509 1.386 . S
C1508 C1510 1.391 1_565 S
C1509 C1508 1.386 . S
C1509 C1513 1.393 . S
C1510 H1502 0.950 . S
C1510 C1508 1.391 1_545 S
C1510 C1511 1.400 . S
C1511 C1510 1.400 . S
C1511 C1512 1.398 . S
C1511 C1517 1.491 . S
C1512 H1503 0.950 . S
C1512 C1511 1.398 . S
C1512 C1513 1.391 1_545 S
C1513 H1501 0.950 . S
C1513 C1509 1.393 . S
C1513 C1512 1.391 1_565 S
C1514 H1504 0.950 . S
C1514 C1515 1.386 . S
C1514 C1516 1.391 . S
C1515 C1514 1.386 . S
C1515 C1519 1.393 . S
C1516 H1505 0.950 . S
C1516 C1514 1.391 . S
C1516 C1517 1.400 . S
C1517 C1511 1.491 . S
C1517 C1516 1.400 . S
C1517 C1518 1.398 . S
C1518 H1506 0.950 . S
C1518 C1517 1.398 . S
C1518 C1519 1.391 . S
C1519 H1507 0.950 . S
C1519 C1515 1.393 . S
C1519 C1518 1.391 . S
H1520 C1528 0.950 . S
H1521 C1533 0.950 . S
H1522 C1530 0.950 . S
H1523 C1532 0.950 . S
H1524 C1534 0.950 . S
H1525 C1536 0.950 . S
H1526 C1538 0.950 . S
H1527 C1539 0.950 . S
C1528 H1520 0.950 . S
C1528 C1529 1.386 . S
C1528 C1530 1.391 . S
C1529 C1528 1.386 . S
C1529 C1533 1.393 . S
C1530 H1522 0.950 . S
C1530 C1528 1.391 . S
C1530 C1531 1.400 . S
C1531 C1530 1.400 . S
C1531 C1532 1.398 . S
C1531 C1537 1.491 . S
C1532 H1523 0.950 . S
C1532 C1531 1.398 . S
C1532 C1533 1.391 . S
C1533 H1521 0.950 . S
C1533 C1529 1.393 . S
C1533 C1532 1.391 . S
C1534 H1524 0.950 . S
C1534 C1535 1.386 . S
C1534 C1536 1.391 1_545 S
C1535 C1534 1.386 . S
C1535 C1539 1.393 . S
C1536 H1525 0.950 . S
C1536 C1534 1.391 1_565 S
C1536 C1537 1.400 . S
C1537 C1531 1.491 . S
C1537 C1536 1.400 . S
C1537 C1538 1.398 . S
C1538 H1526 0.950 . S
C1538 C1537 1.398 . S
C1538 C1539 1.391 1_565 S
C1539 H1527 0.950 . S
C1539 C1535 1.393 . S
C1539 C1538 1.391 1_545 S
H1540 C1548 0.950 . S
H1541 C1553 0.950 . S
H1542 C1550 0.950 . S
H1543 C1552 0.950 . S
H1544 C1554 0.950 . S
H1545 C1556 0.950 . S
H1546 C1558 0.950 . S
H1547 C1559 0.950 . S
C1548 H1540 0.950 . S
C1548 C1549 1.386 . S
C1548 C1550 1.391 . S
C1549 C1548 1.386 . S
C1549 C1553 1.393 . S
C1550 H1542 0.950 . S
C1550 C1548 1.391 . S
C1550 C1551 1.400 . S
C1551 C1550 1.400 . S
C1551 C1552 1.398 . S
C1551 C1557 1.491 . S
C1552 H1543 0.950 . S
C1552 C1551 1.398 . S
C1552 C1553 1.391 . S
C1553 H1541 0.950 . S
C1553 C1549 1.393 . S
C1553 C1552 1.391 . S
C1554 H1544 0.950 . S
C1554 C1555 1.386 . S
C1554 C1556 1.391 1_565 S
C1555 C1554 1.386 . S
C1555 C1559 1.393 . S
C1556 H1545 0.950 . S
C1556 C1554 1.391 1_545 S
C1556 C1557 1.400 . S
C1557 C1551 1.491 . S
C1557 C1556 1.400 . S
C1557 C1558 1.398 . S
C1558 H1546 0.950 . S
C1558 C1557 1.398 . S
C1558 C1559 1.391 1_545 S
C1559 H1547 0.950 . S
C1559 C1555 1.393 . S
C1559 C1558 1.391 1_565 S
H1560 C1568 0.950 . S
H1561 C1573 0.950 . S
H1562 C1570 0.950 . S
H1563 C1572 0.950 . S
H1564 C1574 0.950 . S
H1565 C1576 0.950 . S
H1566 C1578 0.950 . S
H1567 C1579 0.950 . S
C1568 H1560 0.950 . S
C1568 C1569 1.386 . S
C1568 C1570 1.391 1_565 S
C1569 C1568 1.386 . S
C1569 C1573 1.393 . S
C1570 H1562 0.950 . S
C1570 C1568 1.391 1_545 S
C1570 C1571 1.400 . S
C1571 C1570 1.400 . S
C1571 C1572 1.398 . S
C1571 C1577 1.491 . S
C1572 H1563 0.950 . S
C1572 C1571 1.398 . S
C1572 C1573 1.391 1_545 S
C1573 H1561 0.950 . S
C1573 C1569 1.393 . S
C1573 C1572 1.391 1_565 S
C1574 H1564 0.950 . S
C1574 C1575 1.386 . S
C1574 C1576 1.391 . S
C1575 C1574 1.386 . S
C1575 C1579 1.393 . S
C1576 H1565 0.950 . S
C1576 C1574 1.391 . S
C1576 C1577 1.400 . S
C1577 C1571 1.491 . S
C1577 C1576 1.400 . S
C1577 C1578 1.398 . S
C1578 H1566 0.950 . S
C1578 C1577 1.398 . S
C1578 C1579 1.391 . S
C1579 H1567 0.950 . S
C1579 C1575 1.393 . S
C1579 C1578 1.391 . S
H1580 C1588 0.950 . S
H1581 C1593 0.950 . S
H1582 C1590 0.950 . S
H1583 C1592 0.950 . S
H1584 C1594 0.950 . S
H1585 C1596 0.950 . S
H1586 C1598 0.950 . S
H1587 C1599 0.950 . S
C1588 H1580 0.950 . S
C1588 C1589 1.386 . S
C1588 C1590 1.391 . S
C1589 C1588 1.386 . S
C1589 C1593 1.393 . S
C1590 H1582 0.950 . S
C1590 C1588 1.391 . S
C1590 C1591 1.400 . S
C1591 C1590 1.400 . S
C1591 C1592 1.398 . S
C1591 C1597 1.491 . S
C1592 H1583 0.950 . S
C1592 C1591 1.398 . S
C1592 C1593 1.391 . S
C1593 H1581 0.950 . S
C1593 C1589 1.393 . S
C1593 C1592 1.391 . S
C1594 H1584 0.950 . S
C1594 C1595 1.386 . S
C1594 C1596 1.391 1_545 S
C1595 C1594 1.386 . S
C1595 C1599 1.393 . S
C1596 H1585 0.950 . S
C1596 C1594 1.391 1_565 S
C1596 C1597 1.400 . S
C1597 C1591 1.491 . S
C1597 C1596 1.400 . S
C1597 C1598 1.398 . S
C1598 H1586 0.950 . S
C1598 C1597 1.398 . S
C1598 C1599 1.391 1_565 S
C1599 H1587 0.950 . S
C1599 C1595 1.393 . S
C1599 C1598 1.391 1_545 S
C649 C24 1.548 . S
C655 C384 1.542 . S
C669 C64 1.548 . S
C675 C344 1.542 . S
C689 C464 1.542 . S
C695 C104 1.547 . S
C709 C144 1.545 . S
C715 C424 1.550 . S
C729 C533 1.542 . S
C735 C173 1.546 . S
C749 C493 1.550 . S
C755 C213 1.547 . S
C769 C613 1.550 . S
C775 C253 1.545 . S
C789 C293 1.550 . S
C795 C573 1.544 . S
C809 C103 1.679 . S
C815 C23 1.679 . S
C829 C143 1.677 . S
C835 C63 1.679 . S
C849 C242 1.674 . S
C855 C162 1.675 . S
C869 C202 1.678 . S
C875 C282 1.675 . S
C889 C423 1.679 . S
C895 C343 1.678 . S
C909 C463 1.679 . S
C915 C383 1.679 . S
C929 C482 1.679 . S
C935 C562 1.678 . S
C949 C522 1.676 . S
C955 C602 1.674 . S
C969 C223 1.552 . S
C975 C2 1.562 . S
C989 C183 1.569 . S
C995 C42 1.545 . S
C1009 C82 1.554 . S
C1015 C303 1.560 . S
C1029 C263 1.548 . S
C1035 C122 1.566 . S
C1049 C322 1.548 . S
C1055 C543 1.567 . S
C1069 C503 1.546 . S
C1075 C362 1.568 . S
C1089 C402 1.563 . S
C1095 C623 1.552 . S
C1109 C583 1.561 . S
C1115 C442 1.553 . S
C1129 C53 1.561 . S
C1135 C13 1.556 . S
C1149 C133 1.556 . S
C1155 C93 1.558 . S
C1169 C224 1.556 . S
C1175 C184 1.558 . S
C1189 C264 1.556 . S
C1195 C304 1.561 . S
C1209 C373 1.569 . S
C1215 C333 1.568 . S
C1229 C453 1.563 . S
C1235 C413 1.557 . S
C1249 C504 1.560 . S
C1255 C544 1.566 . S
C1269 C584 1.566 . S
C1275 C624 1.569 . S
C1289 C26 1.446 . S
C1295 C17 1.446 . S
C1309 C66 1.441 . S
C1315 C57 1.441 . S
C1329 C106 1.446 . S
C1335 C97 1.446 . S
C1349 C137 1.441 . S
C1355 C146 1.441 . S
C1369 C177 1.441 . S
C1375 C186 1.441 . S
C1389 C226 1.447 . S
C1395 C217 1.447 . S
C1409 C257 1.446 . S
C1415 C266 1.446 . S
C1429 C297 1.441 . S
C1435 C306 1.441 . S
C1449 C337 1.441 . S
C1455 C346 1.441 . S
C1469 C386 1.443 . S
C1475 C377 1.443 . S
C1489 C417 1.447 . S
C1495 C426 1.447 . S
C1509 C457 1.441 . S
C1515 C466 1.441 . S
C1529 C497 1.441 . S
C1535 C506 1.441 . S
C1549 C537 1.448 . S
C1555 C546 1.448 . S
C1569 C586 1.447 . S
C1575 C577 1.447 . S
C1589 C617 1.442 . S
C1595 C626 1.442 . S
