# Generated by pormake.
# Topology unm, (4)-cn, num edge types: 1
# Building blocks:
#     Node 0, Type 0, BuildingBlock: CEKHIL_clean_sbu_0, # of connection points: 4
#     Node 1, Type 0, BuildingBlock: CEKHIL_clean_sbu_0, # of connection points: 4
#     Node 2, Type 0, BuildingBlock: CEKHIL_clean_sbu_0, # of connection points: 4
#     Node 3, Type 0, BuildingBlock: CEKHIL_clean_sbu_0, # of connection points: 4
#     Node 4, Type 0, BuildingBlock: CEKHIL_clean_sbu_0, # of connection points: 4
#     Node 5, Type 0, BuildingBlock: CEKHIL_clean_sbu_0, # of connection points: 4
#     Node 6, Type 0, BuildingBlock: CEKHIL_clean_sbu_0, # of connection points: 4
#     Node 7, Type 0, BuildingBlock: CEKHIL_clean_sbu_0, # of connection points: 4
#     Edge 8, Type (0, 0), BuildingBlock: XUDNAN_clean_linker_2, # of connection points: 2
#     Edge 9, Type (0, 0), BuildingBlock: XUDNAN_clean_linker_2, # of connection points: 2
#     Edge 10, Type (0, 0), BuildingBlock: XUDNAN_clean_linker_2, # of connection points: 2
#     Edge 11, Type (0, 0), BuildingBlock: XUDNAN_clean_linker_2, # of connection points: 2
#     Edge 12, Type (0, 0), BuildingBlock: XUDNAN_clean_linker_2, # of connection points: 2
#     Edge 13, Type (0, 0), BuildingBlock: XUDNAN_clean_linker_2, # of connection points: 2
#     Edge 14, Type (0, 0), BuildingBlock: XUDNAN_clean_linker_2, # of connection points: 2
#     Edge 15, Type (0, 0), BuildingBlock: XUDNAN_clean_linker_2, # of connection points: 2
#     Edge 16, Type (0, 0), BuildingBlock: XUDNAN_clean_linker_2, # of connection points: 2
#     Edge 17, Type (0, 0), BuildingBlock: XUDNAN_clean_linker_2, # of connection points: 2
#     Edge 18, Type (0, 0), BuildingBlock: XUDNAN_clean_linker_2, # of connection points: 2
#     Edge 19, Type (0, 0), BuildingBlock: XUDNAN_clean_linker_2, # of connection points: 2
#     Edge 20, Type (0, 0), BuildingBlock: XUDNAN_clean_linker_2, # of connection points: 2
#     Edge 21, Type (0, 0), BuildingBlock: XUDNAN_clean_linker_2, # of connection points: 2
#     Edge 22, Type (0, 0), BuildingBlock: XUDNAN_clean_linker_2, # of connection points: 2
#     Edge 23, Type (0, 0), BuildingBlock: XUDNAN_clean_linker_2, # of connection points: 2
# Relax obj value: 0.188
# Max RMSD: 0.152
# Mean RMSD: 0.152
data_MOF--net-unm--node1-CEKHIL_clean_sbu_0--edge1-XUDNAN_clean_linker_2
_symmetry_space_group_name_H-M    P1
_symmetry_Int_Tables_number       1
_symmetry_cell_setting            triclinic
loop_
_symmetry_equiv_pos_as_xyz
'x, y, z'
_cell_length_a     25.105726
_cell_length_b     25.089179
_cell_length_c     43.380717
_cell_angle_alpha  89.992917
_cell_angle_beta   90.010603
_cell_angle_gamma 90.016197
loop_
_atom_site_label
_atom_site_type_symbol
_atom_site_fract_x
_atom_site_fract_y
_atom_site_fract_z
_atom_type_partial_charge
Co0 Co 0.18937 0.26448 0.18082 0.0
O1 O 0.24689 0.21925 0.19423 0.0
O2 O 0.25633 0.30329 0.17953 0.0
C3 C 0.13096 0.24865 0.21947 0.0
O4 O 0.13861 0.32297 0.16666 0.0
Co5 Co 0.08294 0.20994 0.16151 0.0
O6 O 0.05812 0.28474 0.15967 0.0
C7 C 0.17084 0.21379 0.11675 0.0
C8 C 0.278 0.25989 0.19013 0.0
C9 C 0.08846 0.32551 0.16045 0.0
O10 O 0.19886 0.24058 0.13631 0.0
O11 O 0.1251 0.19427 0.1233 0.0
O12 O 0.17057 0.2812 0.22322 0.0
O13 O 0.13337 0.21999 0.19467 0.0
Co14 Co 0.24092 0.68567 0.68789 0.0
O15 O 0.27782 0.75038 0.69908 0.0
O16 O 0.19135 0.74526 0.68954 0.0
C17 C 0.27516 0.63126 0.7246 0.0
O18 O 0.18934 0.62573 0.67717 0.0
Co19 Co 0.30603 0.58748 0.66518 0.0
O20 O 0.23739 0.55041 0.6724 0.0
C21 C 0.28543 0.67597 0.62195 0.0
C22 C 0.2321 0.77424 0.69745 0.0
C23 C 0.19291 0.57467 0.67456 0.0
O24 O 0.25557 0.69917 0.6422 0.0
O25 O 0.31216 0.63372 0.62779 0.0
O26 O 0.23602 0.66315 0.73109 0.0
O27 O 0.29674 0.63866 0.69792 0.0
Co28 Co 0.82418 0.73527 0.18649 0.0
O29 O 0.76097 0.77126 0.20241 0.0
O30 O 0.76316 0.68907 0.18423 0.0
C31 C 0.88193 0.75499 0.22511 0.0
O32 O 0.87824 0.6826 0.17008 0.0
Co33 Co 0.92858 0.79182 0.16711 0.0
O34 O 0.95986 0.71898 0.16771 0.0
C35 C 0.83857 0.78724 0.12295 0.0
C36 C 0.73582 0.72674 0.19721 0.0
C37 C 0.92879 0.67899 0.16609 0.0
O38 O 0.81074 0.76129 0.14294 0.0
O39 O 0.88518 0.80554 0.12877 0.0
O40 O 0.84624 0.71796 0.22818 0.0
O41 O 0.87734 0.78386 0.20042 0.0
Co42 Co 0.75642 0.32356 0.68329 0.0
O43 O 0.70404 0.27095 0.69531 0.0
O44 O 0.79041 0.25539 0.69094 0.0
C45 C 0.72901 0.38995 0.7149 0.0
O46 O 0.82266 0.36634 0.67337 0.0
Co47 Co 0.72629 0.43171 0.65299 0.0
O48 O 0.80105 0.45137 0.66311 0.0
C49 C 0.72464 0.33324 0.61537 0.0
C50 C 0.74337 0.2376 0.69804 0.0
C51 C 0.83544 0.41532 0.66881 0.0
O52 O 0.74547 0.30628 0.63775 0.0
O53 O 0.71014 0.38197 0.61803 0.0
O54 O 0.75922 0.35208 0.72542 0.0
O55 O 0.71233 0.38382 0.68698 0.0
Co56 Co 0.68966 0.23594 0.32707 0.0
O57 O 0.74337 0.28825 0.31676 0.0
O58 O 0.75904 0.20266 0.32534 0.0
C59 C 0.62936 0.25606 0.29002 0.0
O60 O 0.6461 0.16982 0.33647 0.0
Co61 Co 0.57705 0.26788 0.34987 0.0
O62 O 0.55982 0.19197 0.34144 0.0
C63 C 0.66702 0.27014 0.39385 0.0
C64 C 0.77733 0.24915 0.31751 0.0
C65 C 0.59661 0.15726 0.33892 0.0
O66 O 0.69805 0.25101 0.37287 0.0
O67 O 0.61852 0.28315 0.38856 0.0
O68 O 0.67125 0.22775 0.28384 0.0
O69 O 0.62889 0.27755 0.3172 0.0
Co70 Co 0.25554 0.18575 0.827 0.0
O71 O 0.222 0.252 0.81419 0.0
O72 O 0.30585 0.24391 0.82891 0.0
C73 C 0.22811 0.13236 0.78786 0.0
O74 O 0.30519 0.12568 0.83989 0.0
Co75 Co 0.1879 0.08719 0.84603 0.0
O76 O 0.25757 0.05017 0.84472 0.0
C77 C 0.20572 0.17259 0.89157 0.0
C78 C 0.26821 0.27433 0.81828 0.0
C79 C 0.30186 0.07501 0.84416 0.0
O80 O 0.23491 0.19769 0.87182 0.0
O81 O 0.18043 0.12977 0.88497 0.0
O82 O 0.26697 0.16584 0.78415 0.0
O83 O 0.20183 0.138 0.81338 0.0
Co84 Co 0.32582 0.7503 0.33062 0.0
O85 O 0.26263 0.71093 0.31978 0.0
O86 O 0.26464 0.798 0.32772 0.0
C87 C 0.38157 0.71612 0.29465 0.0
O88 O 0.38466 0.80359 0.34083 0.0
Co89 Co 0.42426 0.68725 0.35495 0.0
O90 O 0.46015 0.75618 0.34704 0.0
C91 C 0.33582 0.71044 0.39769 0.0
C92 C 0.23717 0.75583 0.32041 0.0
C93 C 0.43568 0.80041 0.34398 0.0
O94 O 0.31188 0.73761 0.37648 0.0
O95 O 0.37874 0.68431 0.39272 0.0
O96 O 0.3487 0.75405 0.28749 0.0
O97 O 0.37421 0.69518 0.32153 0.0
Co98 Co 0.72789 0.82298 0.83645 0.0
O99 O 0.77004 0.76447 0.81938 0.0
O100 O 0.68791 0.75788 0.83732 0.0
C101 C 0.74137 0.88473 0.79905 0.0
O102 O 0.66926 0.87007 0.85305 0.0
Co103 Co 0.77177 0.9321 0.85772 0.0
O104 O 0.69596 0.95519 0.85546 0.0
C105 C 0.77834 0.83991 0.9002 0.0
C106 C 0.72768 0.7353 0.82348 0.0
C107 C 0.65947 0.91995 0.85627 0.0
O108 O 0.75498 0.81024 0.87996 0.0
O109 O 0.79136 0.88846 0.89498 0.0
O110 O 0.70853 0.84539 0.79511 0.0
O111 O 0.77064 0.8817 0.82365 0.0
H112 H 0.12786 0.15374 0.06982 0.0
H113 H 0.25355 0.26791 0.08908 0.0
H114 H 0.27458 0.27221 0.03347 0.0
H115 H 0.19735 0.08341 0.00814 0.0
H116 H 0.13712 0.07312 0.98631 0.0
H117 H 0.13427 0.07762 0.02771 0.0
H118 H 0.06524 0.15398 0.02302 0.0
H119 H 0.06861 0.1504 0.98161 0.0
H120 H 0.08171 0.21261 1.00096 0.0
H121 H 0.27788 0.26802 0.97466 0.0
H122 H 0.27003 0.24795 0.91904 0.0
H123 H 0.14263 0.13603 0.93897 0.0
C124 C 0.16038 0.17913 0.06253 0.0
C125 C 0.18902 0.21046 0.08406 0.0
C126 C 0.23116 0.24317 0.07324 0.0
C127 C 0.24319 0.2462 0.0416 0.0
C128 C 0.21302 0.216 0.02098 0.0
C129 C 0.17305 0.18244 0.03112 0.0
C130 C 0.1464 0.15414 1.00438 0.0
C131 C 0.15428 0.09348 0.00678 0.0
C132 C 0.08697 0.16867 1.00239 0.0
C133 C 0.17728 0.17727 0.97752 0.0
C134 C 0.21534 0.21312 0.98747 0.0
C135 C 0.24837 0.23977 0.96668 0.0
C136 C 0.24331 0.22837 0.93504 0.0
C137 C 0.20569 0.19039 0.92439 0.0
C138 C 0.17182 0.1653 0.94612 0.0
H139 H 0.35608 0.6482 0.57693 0.0
H140 H 0.21615 0.74586 0.59276 0.0
H141 H 0.21235 0.76645 0.53681 0.0
H142 H 0.41515 0.73019 0.51677 0.0
H143 H 0.43944 0.67286 0.49607 0.0
H144 H 0.43229 0.67016 0.53734 0.0
H145 H 0.37237 0.5865 0.53178 0.0
H146 H 0.37859 0.58944 0.4905 0.0
H147 H 0.31351 0.58982 0.50803 0.0
H148 H 0.22251 0.77139 0.47693 0.0
H149 H 0.2485 0.7644 0.42184 0.0
H150 H 0.37981 0.66118 0.44782 0.0
C151 C 0.32488 0.67454 0.56889 0.0
C152 C 0.2864 0.69537 0.58944 0.0
C153 C 0.24641 0.7297 0.57763 0.0
C154 C 0.24376 0.74134 0.5458 0.0
C155 C 0.28154 0.71858 0.52611 0.0
C156 C 0.32165 0.68636 0.53747 0.0
C157 C 0.35692 0.66546 0.51198 0.0
C158 C 0.41434 0.68591 0.51577 0.0
C159 C 0.35521 0.60419 0.5105 0.0
C160 C 0.3302 0.69016 0.48424 0.0
C161 C 0.2869 0.72092 0.49257 0.0
C162 C 0.25649 0.74746 0.47033 0.0
C163 C 0.27139 0.74305 0.43902 0.0
C164 C 0.31617 0.7121 0.43019 0.0
C165 C 0.34524 0.68508 0.45339 0.0
H166 H 0.87366 0.85337 0.07626 0.0
H167 H 0.75964 0.72774 0.09591 0.0
H168 H 0.73518 0.72446 0.04082 0.0
H169 H 0.7922 0.92079 0.01843 0.0
H170 H 0.84883 0.93852 0.99504 0.0
H171 H 0.85634 0.9313 0.03611 0.0
H172 H 0.93171 0.86249 0.02717 0.0
H173 H 0.92376 0.86878 0.98606 0.0
H174 H 0.91868 0.80421 1.00405 0.0
H175 H 0.72733 0.73082 0.9826 0.0
H176 H 0.72692 0.75556 0.92747 0.0
H177 H 0.84321 0.87955 0.94609 0.0
C178 C 0.84306 0.82559 0.0691 0.0
C179 C 0.81864 0.79081 0.09062 0.0
C180 C 0.77873 0.75514 0.08009 0.0
C181 C 0.76484 0.75263 0.04872 0.0
C182 C 0.7907 0.78646 0.02806 0.0
C183 C 0.82819 0.82302 0.03792 0.0
C184 C 0.84919 0.85574 0.01113 0.0
C185 C 0.83582 0.9151 0.01544 0.0
C186 C 0.90941 0.84728 0.00686 0.0
C187 C 0.81794 0.83165 0.98462 0.0
C188 C 0.78492 0.79128 0.9948 0.0
C189 C 0.75279 0.76264 0.97444 0.0
C190 C 0.75319 0.77671 0.94305 0.0
C191 C 0.78501 0.81953 0.93226 0.0
C192 C 0.81837 0.84664 0.95346 0.0
H193 H 0.62391 0.32811 0.44137 0.0
H194 H 0.75332 0.21956 0.4201 0.0
H195 H 0.77935 0.21888 0.47517 0.0
H196 H 0.69561 0.40565 0.49775 0.0
H197 H 0.63774 0.41533 0.52169 0.0
H198 H 0.63007 0.40644 0.48076 0.0
H199 H 0.5658 0.32743 0.49081 0.0
H200 H 0.57401 0.33552 0.53179 0.0
H201 H 0.58786 0.27207 0.51403 0.0
H202 H 0.78868 0.22801 0.53409 0.0
H203 H 0.78745 0.25534 0.58907 0.0
H204 H 0.65352 0.35949 0.57025 0.0
C205 C 0.65794 0.30434 0.44816 0.0
C206 C 0.68643 0.27378 0.42627 0.0
C207 C 0.73095 0.24358 0.43631 0.0
C208 C 0.7458 0.2426 0.46763 0.0
C209 C 0.71605 0.27238 0.48867 0.0
C210 C 0.67356 0.30333 0.47916 0.0
C211 C 0.64891 0.33308 0.50596 0.0
C212 C 0.65338 0.39371 0.50126 0.0
C213 C 0.5907 0.31598 0.51093 0.0
C214 C 0.6841 0.3142 0.53211 0.0
C215 C 0.72223 0.27864 0.52191 0.0
C216 C 0.75904 0.25597 0.54223 0.0
C217 C 0.75778 0.27134 0.57349 0.0
C218 C 0.72044 0.30955 0.58402 0.0
C219 C 0.68266 0.33025 0.56299 0.0
H220 H 0.33548 0.32631 0.22789 0.0
H221 H 0.3472 0.18332 0.1723 0.0
H222 H 0.44032 0.17085 0.18948 0.0
H223 H 0.47432 0.37237 0.21981 0.0
H224 H 0.47921 0.39326 0.25947 0.0
H225 H 0.41576 0.39483 0.24005 0.0
H226 H 0.37511 0.33564 0.28294 0.0
H227 H 0.43845 0.33367 0.30239 0.0
H228 H 0.40561 0.27243 0.29185 0.0
H229 H 0.53031 0.1723 0.21327 0.0
H230 H 0.6105 0.18303 0.24521 0.0
H231 H 0.53969 0.32079 0.28979 0.0
C232 C 0.35835 0.29326 0.21881 0.0
C233 C 0.33498 0.25639 0.19817 0.0
C234 C 0.36497 0.21233 0.18769 0.0
C235 C 0.41776 0.20499 0.19733 0.0
C236 C 0.43961 0.24152 0.21799 0.0
C237 C 0.41085 0.28452 0.22891 0.0
C238 C 0.44247 0.31488 0.25313 0.0
C239 C 0.4536 0.37224 0.24247 0.0
C240 C 0.41368 0.31409 0.28443 0.0
C241 C 0.49334 0.28212 0.25413 0.0
C242 C 0.4909 0.24053 0.23326 0.0
C243 C 0.53274 0.20474 0.22966 0.0
C244 C 0.57825 0.21131 0.24791 0.0
C245 C 0.58154 0.25285 0.26998 0.0
C246 C 0.53836 0.28873 0.2731 0.0
H247 H 0.17868 0.8248 0.74453 0.0
H248 H 0.27938 0.85302 0.66512 0.0
H249 H 0.2808 0.94944 0.67703 0.0
H250 H 0.10252 0.95109 0.74224 0.0
H251 H 0.10313 0.95907 0.78353 0.0
H252 H 0.10438 0.89325 0.76688 0.0
H253 H 0.19052 0.87172 0.79736 0.0
H254 H 0.18944 0.93739 0.81407 0.0
H255 H 0.24757 0.91488 0.79349 0.0
H256 H 0.27648 0.04076 0.69893 0.0
H257 H 0.27165 0.12139 0.73106 0.0
H258 H 0.17612 0.03594 0.79825 0.0
C259 C 0.19976 0.85172 0.7293 0.0
C260 C 0.22792 0.83204 0.70344 0.0
C261 C 0.25692 0.86774 0.68467 0.0
C262 C 0.25787 0.92246 0.69127 0.0
C263 C 0.23022 0.9408 0.71706 0.0
C264 C 0.202 0.90661 0.73598 0.0
C265 C 0.18007 0.9363 0.76383 0.0
C266 C 0.11888 0.93484 0.76413 0.0
C267 C 0.20329 0.91372 0.79396 0.0
C268 C 0.20061 0.99232 0.75764 0.0
C269 C 0.229 0.99385 0.73035 0.0
C270 C 0.25401 0.04015 0.72022 0.0
C271 C 0.251 0.08585 0.73869 0.0
C272 C 0.22337 0.08527 0.76718 0.0
C273 C 0.19694 0.03798 0.77644 0.0
H274 H 0.44894 0.79172 0.27114 0.0
H275 H 0.42774 0.6211 0.28066 0.0
H276 H 0.51355 0.60606 0.25381 0.0
H277 H 0.51668 0.79294 0.19668 0.0
H278 H 0.56264 0.8448 0.20764 0.0
H279 H 0.49734 0.84215 0.22481 0.0
H280 H 0.53992 0.84076 0.27879 0.0
H281 H 0.60565 0.8424 0.26228 0.0
H282 H 0.58756 0.78963 0.28847 0.0
H283 H 0.60042 0.60959 0.22567 0.0
H284 H 0.68823 0.6302 0.20355 0.0
H285 H 0.65899 0.79925 0.21667 0.0
C286 C 0.46203 0.75123 0.26696 0.0
C287 C 0.4313 0.70732 0.27716 0.0
C288 C 0.45044 0.65501 0.27251 0.0
C289 C 0.49902 0.64621 0.25729 0.0
C290 C 0.52856 0.69027 0.24758 0.0
C291 C 0.51129 0.7418 0.25263 0.0
C292 C 0.55295 0.78201 0.24223 0.0
C293 C 0.53108 0.81757 0.21629 0.0
C294 C 0.57271 0.81565 0.26958 0.0
C295 C 0.59625 0.74498 0.23037 0.0
C296 C 0.58073 0.69231 0.23325 0.0
C297 C 0.61311 0.65064 0.22344 0.0
C298 C 0.66295 0.66287 0.21076 0.0
C299 C 0.68074 0.71637 0.20835 0.0
C300 C 0.64664 0.75799 0.21823 0.0
H301 H 0.81446 0.1733 0.72915 0.0
H302 H 0.65251 0.17871 0.69441 0.0
H303 H 0.63608 0.08867 0.71541 0.0
H304 H 0.8389 0.03231 0.71672 0.0
H305 H 0.87524 0.02348 0.7522 0.0
H306 H 0.87554 0.08726 0.7331 0.0
H307 H 0.84099 0.13223 0.78296 0.0
H308 H 0.84052 0.06859 0.8022 0.0
H309 H 0.78064 0.10812 0.80066 0.0
H310 H 0.63721 0.99829 0.73917 0.0
H311 H 0.6532 0.91482 0.76739 0.0
H312 H 0.81254 0.96849 0.79085 0.0
C313 C 0.77578 0.15515 0.72568 0.0
C314 C 0.73487 0.1827 0.70977 0.0
C315 C 0.68442 0.15824 0.70634 0.0
C316 C 0.67477 0.10709 0.71816 0.0
C317 C 0.71571 0.08112 0.73384 0.0
C318 C 0.76507 0.10438 0.73796 0.0
C319 C 0.80111 0.06862 0.75715 0.0
C320 C 0.85063 0.05193 0.73868 0.0
C321 C 0.81672 0.09603 0.78755 0.0
C322 C 0.76442 0.02143 0.76288 0.0
C323 C 0.71557 0.02952 0.74892 0.0
C324 C 0.67524 0.99155 0.75024 0.0
C325 C 0.68489 0.94406 0.76626 0.0
C326 C 0.73424 0.93487 0.78125 0.0
C327 C 0.77445 0.97436 0.77964 0.0
H328 H 0.84081 0.17817 0.28659 0.0
H329 H 0.83874 0.33773 0.32497 0.0
H330 H 0.93057 0.35245 0.30607 0.0
H331 H 0.98107 0.14787 0.29988 0.0
H332 H 0.98936 0.11417 0.2635 0.0
H333 H 0.92533 0.1143 0.28227 0.0
H334 H 0.88229 0.15419 0.23315 0.0
H335 H 0.94617 0.15429 0.21426 0.0
H336 H 0.90847 0.2152 0.21724 0.0
H337 H 0.02168 0.34997 0.2833 0.0
H338 H 0.10432 0.33423 0.25434 0.0
H339 H 0.04595 0.17876 0.22619 0.0
C340 C 0.86019 0.21582 0.29146 0.0
C341 C 0.83324 0.2566 0.30773 0.0
C342 C 0.859 0.30593 0.31282 0.0
C343 C 0.91109 0.31455 0.30221 0.0
C344 C 0.93646 0.27377 0.28602 0.0
C345 C 0.91176 0.22558 0.2803 0.0
C346 C 0.9466 0.19001 0.26034 0.0
C347 C 0.96147 0.13854 0.27753 0.0
C348 C 0.91924 0.17771 0.22941 0.0
C349 C 0.99486 0.22567 0.25587 0.0
C350 C 0.98823 0.27346 0.27129 0.0
C351 C 0.02729 0.31276 0.27112 0.0
C352 C 0.07427 0.30325 0.25465 0.0
C353 C 0.08178 0.25514 0.23805 0.0
C354 C 0.04136 0.21586 0.23866 0.0
H355 H 0.20108 0.5643 0.75011 0.0
H356 H 0.3709 0.58531 0.73712 0.0
H357 H 0.38749 0.49916 0.76337 0.0
H358 H 0.20477 0.49503 0.82454 0.0
H359 H 0.15203 0.44958 0.81431 0.0
H360 H 0.15382 0.51543 0.79773 0.0
H361 H 0.15162 0.47448 0.74314 0.0
H362 H 0.15026 0.40842 0.75928 0.0
H363 H 0.20158 0.42645 0.73216 0.0
H364 H 0.38544 0.41049 0.79035 0.0
H365 H 0.36538 0.32126 0.81115 0.0
H366 H 0.19613 0.3533 0.80261 0.0
C367 C 0.24178 0.55125 0.75355 0.0
C368 C 0.28499 0.58197 0.74244 0.0
C369 C 0.33751 0.56269 0.74601 0.0
C370 C 0.34721 0.51389 0.76088 0.0
C371 C 0.3038 0.48428 0.77142 0.0
C372 C 0.25205 0.50185 0.76757 0.0
C373 C 0.21243 0.46007 0.77843 0.0
C374 C 0.17878 0.48131 0.80536 0.0
C375 C 0.1769 0.44124 0.75165 0.0
C376 C 0.24998 0.41627 0.78901 0.0
C377 C 0.30249 0.43154 0.78521 0.0
C378 C 0.34448 0.39811 0.79338 0.0
C379 C 0.33264 0.34747 0.8053 0.0
C380 C 0.2792 0.33012 0.80856 0.0
C381 C 0.23738 0.36535 0.80046 0.0
H382 H 0.18348 0.81796 0.27792 0.0
H383 H 0.16179 0.6938 0.34623 0.0
H384 H 0.06684 0.68659 0.33196 0.0
H385 H 0.04931 0.87954 0.2841 0.0
H386 H 0.04349 0.88999 0.24313 0.0
H387 H 0.10817 0.89074 0.26119 0.0
H388 H 0.14034 0.81728 0.22361 0.0
H389 H 0.07577 0.81621 0.20554 0.0
H390 H 0.10364 0.75565 0.221 0.0
H391 H 0.97678 0.68858 0.30896 0.0
H392 H 0.89678 0.69564 0.27665 0.0
H393 H 0.97505 0.81511 0.22008 0.0
C394 C 0.15814 0.79045 0.29037 0.0
C395 C 0.17941 0.75723 0.31372 0.0
C396 C 0.14588 0.72008 0.32867 0.0
C397 C 0.09196 0.71576 0.32072 0.0
C398 C 0.07218 0.74832 0.29734 0.0
C399 C 0.1041 0.78477 0.28216 0.0
C400 C 0.07352 0.81116 0.25595 0.0
C401 C 0.06832 0.87145 0.26143 0.0
C402 C 0.0999 0.79935 0.22468 0.0
C403 C 0.01977 0.78348 0.25867 0.0
C404 C 0.02001 0.74793 0.28302 0.0
C405 C 0.97598 0.71648 0.28993 0.0
C406 C 0.93061 0.72082 0.27134 0.0
C407 C 0.92931 0.75601 0.24578 0.0
C408 C 0.9745 0.78822 0.2396 0.0
H409 H 0.79874 0.4468 0.75163 0.0
H410 H 0.63812 0.44736 0.71485 0.0
H411 H 0.62079 0.5335 0.74045 0.0
H412 H 0.76978 0.5115 0.82538 0.0
H413 H 0.82962 0.55123 0.82525 0.0
H414 H 0.82871 0.48742 0.80616 0.0
H415 H 0.85933 0.53215 0.75535 0.0
H416 H 0.86035 0.59606 0.77426 0.0
H417 H 0.82131 0.58681 0.73979 0.0
H418 H 0.61938 0.61688 0.77047 0.0
H419 H 0.63614 0.69984 0.7989 0.0
H420 H 0.80098 0.65333 0.81272 0.0
C421 C 0.75971 0.46482 0.74952 0.0
C422 C 0.71919 0.44006 0.73186 0.0
C423 C 0.66928 0.46546 0.7286 0.0
C424 C 0.65912 0.5143 0.74307 0.0
C425 C 0.69972 0.53788 0.76021 0.0
C426 C 0.74931 0.51461 0.7632 0.0
C427 C 0.78675 0.55076 0.7813 0.0
C428 C 0.80478 0.5236 0.8113 0.0
C429 C 0.83477 0.56743 0.76149 0.0
C430 C 0.75029 0.59786 0.78794 0.0
C431 C 0.70006 0.58868 0.77596 0.0
C432 C 0.65857 0.62472 0.77982 0.0
C433 C 0.6685 0.67166 0.79619 0.0
C434 C 0.7198 0.6831 0.80808 0.0
C435 C 0.76145 0.64572 0.80377 0.0
H436 H 0.02455 0.63475 0.18329 0.0
H437 H 0.88059 0.60471 0.13068 0.0
H438 H 0.91201 0.51405 0.1189 0.0
H439 H 0.11634 0.55274 0.13533 0.0
H440 H 0.15228 0.52814 0.16837 0.0
H441 H 0.12245 0.59348 0.16939 0.0
H442 H 0.07051 0.56757 0.21877 0.0
H443 H 0.10009 0.50226 0.2179 0.0
H444 H 0.02863 0.50918 0.21842 0.0
H445 H 0.95317 0.42601 0.11654 0.0
H446 H 0.00114 0.34204 0.12508 0.0
H447 H 0.11899 0.4256 0.18024 0.0
C448 C 1.00045 0.60932 0.16871 0.0
C449 C 0.95041 0.62655 0.15765 0.0
C450 C 0.91904 0.59203 0.13934 0.0
C451 C 0.93668 0.54068 0.13236 0.0
C452 C 0.98565 0.52438 0.14401 0.0
C453 C 0.01718 0.55736 0.16186 0.0
C454 C 0.06564 0.52771 0.17386 0.0
C455 C 0.11724 0.55197 0.16096 0.0
C456 C 0.06621 0.52662 0.20934 0.0
C457 C 0.0555 0.47272 0.16056 0.0
C458 C 0.00947 0.47223 0.14308 0.0
C459 C 0.98962 0.42586 0.12986 0.0
C460 C 0.01703 0.37833 0.13501 0.0
C461 C 0.06377 0.37736 0.15331 0.0
C462 C 0.08382 0.42539 0.16578 0.0
H463 H 0.87969 0.5158 0.67039 0.0
H464 H 0.92041 0.3474 0.66994 0.0
H465 H 0.01557 0.3705 0.67204 0.0
H466 H 0.98781 0.55997 0.62276 0.0
H467 H 0.9986 0.62079 0.64398 0.0
H468 H 0.93321 0.59134 0.64274 0.0
H469 H 0.93048 0.58913 0.70247 0.0
H470 H 0.99588 0.61863 0.7039 0.0
H471 H 0.98326 0.55635 0.72329 0.0
H472 H 0.10553 0.41072 0.6732 0.0
H473 H 0.1862 0.46603 0.67391 0.0
H474 H 0.08838 0.60904 0.67437 0.0
C475 C 0.9086 0.48377 0.67063 0.0
C476 C 0.89249 0.42976 0.66989 0.0
C477 C 0.93164 0.38907 0.67053 0.0
C478 C 0.98586 0.40174 0.6717 0.0
C479 C 1.00032 0.45524 0.67239 0.0
C480 C 0.96301 0.49567 0.67196 0.0
C481 C 0.98955 0.54991 0.67298 0.0
C482 C 0.97651 0.5824 0.64388 0.0
C483 C 0.97386 0.58029 0.70241 0.0
C484 C 0.04763 0.53349 0.67368 0.0
C485 C 0.05273 0.47867 0.67337 0.0
C486 C 0.10215 0.45371 0.67347 0.0
C487 C 0.14778 0.48563 0.6738 0.0
C488 C 0.1438 0.54203 0.67414 0.0
C489 C 0.09287 0.56611 0.67417 0.0
H490 H 0.49658 0.11299 0.33465 0.0
H491 H 0.664 0.07225 0.34454 0.0
H492 H 0.64038 0.97709 0.34645 0.0
H493 H 0.44533 0.01364 0.38562 0.0
H494 H 0.3874 0.99935 0.36249 0.0
H495 H 0.41717 0.06463 0.36129 0.0
H496 H 0.4273 0.05718 0.30198 0.0
H497 H 0.39738 0.99192 0.30299 0.0
H498 H 0.4621 1.00093 0.28578 0.0
H499 H 0.59948 0.88747 0.34859 0.0
H500 H 0.54379 0.80717 0.34963 0.0
H501 H 0.40216 0.90479 0.33764 0.0
C502 C 0.52831 0.08409 0.33723 0.0
C503 C 0.58217 0.10017 0.33954 0.0
C504 C 0.62248 0.06101 0.34266 0.0
C505 C 0.60949 0.00682 0.34381 0.0
C506 C 0.5561 0.99243 0.34161 0.0
C507 C 0.51611 0.02974 0.33823 0.0
C508 C 0.46191 0.00331 0.33633 0.0
C509 C 0.42584 0.02131 0.36303 0.0
C510 C 0.43564 0.01397 0.3049 0.0
C511 C 0.47775 0.94534 0.33964 0.0
C512 C 0.5323 0.94017 0.34258 0.0
C513 C 0.5567 0.8909 0.34625 0.0
C514 C 0.52452 0.84549 0.34688 0.0
C515 C 0.46838 0.8495 0.34376 0.0
C516 C 0.44483 0.90028 0.34009 0.0
H517 H 0.40584 0.10967 0.84 0.0
H518 H 0.3095 0.96965 0.85958 0.0
H519 H 0.39086 0.91725 0.8681 0.0
H520 H 0.50708 0.04134 0.79821 0.0
H521 H 0.56097 0.08148 0.81286 0.0
H522 H 0.49508 0.10929 0.80981 0.0
H523 H 0.49724 0.13359 0.86788 0.0
H524 H 0.56311 0.10562 0.87113 0.0
H525 H 0.51046 0.08227 0.89595 0.0
H526 H 0.48104 0.87909 0.87297 0.0
H527 H 0.57608 0.85582 0.87167 0.0
H528 H 0.61546 0.01973 0.8486 0.0
C529 C 0.40181 0.06811 0.84629 0.0
C530 C 0.35114 0.04395 0.84926 0.0
C531 C 0.34773 0.98924 0.85722 0.0
C532 C 0.39373 0.95907 0.86223 0.0
C533 C 0.44288 0.9841 0.85918 0.0
C534 C 0.44741 0.03722 0.85128 0.0
C535 C 0.50534 0.05355 0.84828 0.0
C536 C 0.51784 0.07252 0.81533 0.0
C537 C 0.51988 0.09629 0.87224 0.0
C538 C 0.53248 1.00103 0.85537 0.0
C539 C 0.49556 0.96174 0.86183 0.0
C540 C 0.51044 0.9095 0.86811 0.0
C541 C 0.56458 0.89673 0.86726 0.0
C542 C 0.60328 0.93599 0.8601 0.0
C543 C 0.58692 0.98903 0.85453 0.0
loop_
_geom_bond_atom_site_label_1
_geom_bond_atom_site_label_2
_geom_bond_distance
_geom_bond_site_symmetry_2
_ccdc_geom_bond_type
Co0 O1 2.216 . S
Co0 O2 2.091 . S
Co0 O4 2.004 . S
Co0 O10 2.021 . S
Co0 O12 2.137 . S
Co0 O13 2.244 . S
O1 Co0 2.216 . S
O1 C8 1.247 . S
O2 Co0 2.091 . S
O2 C8 1.261 . S
C3 O12 1.247 . S
C3 O13 1.272 . S
O4 Co0 2.004 . S
O4 C9 1.259 . S
Co5 O6 2.061 . S
Co5 O11 2.052 . S
Co5 O13 2.135 . S
O6 Co5 2.061 . S
O6 C9 1.235 . S
C7 O10 1.238 . S
C7 O11 1.241 . S
C8 O1 1.247 . S
C8 O2 1.261 . S
C9 O4 1.259 . S
C9 O6 1.235 . S
O10 Co0 2.021 . S
O10 C7 1.238 . S
O11 Co5 2.052 . S
O11 C7 1.241 . S
O12 Co0 2.137 . S
O12 C3 1.247 . S
O13 Co0 2.244 . S
O13 C3 1.272 . S
O13 Co5 2.135 . S
Co14 O15 2.216 . S
Co14 O16 2.091 . S
Co14 O18 2.004 . S
Co14 O24 2.021 . S
Co14 O26 2.137 . S
Co14 O27 2.244 . S
O15 Co14 2.216 . S
O15 C22 1.247 . S
O16 Co14 2.091 . S
O16 C22 1.261 . S
C17 O26 1.247 . S
C17 O27 1.272 . S
O18 Co14 2.004 . S
O18 C23 1.259 . S
Co19 O20 2.061 . S
Co19 O25 2.052 . S
Co19 O27 2.135 . S
O20 Co19 2.061 . S
O20 C23 1.235 . S
C21 O24 1.238 . S
C21 O25 1.241 . S
C22 O15 1.247 . S
C22 O16 1.261 . S
C23 O18 1.259 . S
C23 O20 1.235 . S
O24 Co14 2.021 . S
O24 C21 1.238 . S
O25 Co19 2.052 . S
O25 C21 1.241 . S
O26 Co14 2.137 . S
O26 C17 1.247 . S
O27 Co14 2.244 . S
O27 C17 1.272 . S
O27 Co19 2.135 . S
Co28 O29 2.216 . S
Co28 O30 2.091 . S
Co28 O32 2.004 . S
Co28 O38 2.021 . S
Co28 O40 2.137 . S
Co28 O41 2.244 . S
O29 Co28 2.216 . S
O29 C36 1.247 . S
O30 Co28 2.091 . S
O30 C36 1.261 . S
C31 O40 1.247 . S
C31 O41 1.272 . S
O32 Co28 2.004 . S
O32 C37 1.259 . S
Co33 O34 2.061 . S
Co33 O39 2.052 . S
Co33 O41 2.135 . S
O34 Co33 2.061 . S
O34 C37 1.235 . S
C35 O38 1.238 . S
C35 O39 1.241 . S
C36 O29 1.247 . S
C36 O30 1.261 . S
C37 O32 1.259 . S
C37 O34 1.235 . S
O38 Co28 2.021 . S
O38 C35 1.238 . S
O39 Co33 2.052 . S
O39 C35 1.241 . S
O40 Co28 2.137 . S
O40 C31 1.247 . S
O41 Co28 2.244 . S
O41 C31 1.272 . S
O41 Co33 2.135 . S
Co42 O43 2.216 . S
Co42 O44 2.091 . S
Co42 O46 2.004 . S
Co42 O52 2.021 . S
Co42 O54 2.137 . S
Co42 O55 2.244 . S
O43 Co42 2.216 . S
O43 C50 1.247 . S
O44 Co42 2.091 . S
O44 C50 1.261 . S
C45 O54 1.247 . S
C45 O55 1.272 . S
O46 Co42 2.004 . S
O46 C51 1.259 . S
Co47 O48 2.061 . S
Co47 O53 2.052 . S
Co47 O55 2.135 . S
O48 Co47 2.061 . S
O48 C51 1.235 . S
C49 O52 1.238 . S
C49 O53 1.241 . S
C50 O43 1.247 . S
C50 O44 1.261 . S
C51 O46 1.259 . S
C51 O48 1.235 . S
O52 Co42 2.021 . S
O52 C49 1.238 . S
O53 Co47 2.052 . S
O53 C49 1.241 . S
O54 Co42 2.137 . S
O54 C45 1.247 . S
O55 Co42 2.244 . S
O55 C45 1.272 . S
O55 Co47 2.135 . S
Co56 O57 2.216 . S
Co56 O58 2.091 . S
Co56 O60 2.004 . S
Co56 O66 2.021 . S
Co56 O68 2.137 . S
Co56 O69 2.244 . S
O57 Co56 2.216 . S
O57 C64 1.247 . S
O58 Co56 2.091 . S
O58 C64 1.261 . S
C59 O68 1.247 . S
C59 O69 1.272 . S
O60 Co56 2.004 . S
O60 C65 1.259 . S
Co61 O62 2.061 . S
Co61 O67 2.052 . S
Co61 O69 2.135 . S
O62 Co61 2.061 . S
O62 C65 1.235 . S
C63 O66 1.238 . S
C63 O67 1.241 . S
C64 O57 1.247 . S
C64 O58 1.261 . S
C65 O60 1.259 . S
C65 O62 1.235 . S
O66 Co56 2.021 . S
O66 C63 1.238 . S
O67 Co61 2.052 . S
O67 C63 1.241 . S
O68 Co56 2.137 . S
O68 C59 1.247 . S
O69 Co56 2.244 . S
O69 C59 1.272 . S
O69 Co61 2.135 . S
Co70 O71 2.216 . S
Co70 O72 2.091 . S
Co70 O74 2.004 . S
Co70 O80 2.021 . S
Co70 O82 2.137 . S
Co70 O83 2.244 . S
O71 Co70 2.216 . S
O71 C78 1.247 . S
O72 Co70 2.091 . S
O72 C78 1.261 . S
C73 O82 1.247 . S
C73 O83 1.272 . S
O74 Co70 2.004 . S
O74 C79 1.259 . S
Co75 O76 2.061 . S
Co75 O81 2.052 . S
Co75 O83 2.135 . S
O76 Co75 2.061 . S
O76 C79 1.235 . S
C77 O80 1.238 . S
C77 O81 1.241 . S
C78 O71 1.247 . S
C78 O72 1.261 . S
C79 O74 1.259 . S
C79 O76 1.235 . S
O80 Co70 2.021 . S
O80 C77 1.238 . S
O81 Co75 2.052 . S
O81 C77 1.241 . S
O82 Co70 2.137 . S
O82 C73 1.247 . S
O83 Co70 2.244 . S
O83 C73 1.272 . S
O83 Co75 2.135 . S
Co84 O85 2.216 . S
Co84 O86 2.091 . S
Co84 O88 2.004 . S
Co84 O94 2.021 . S
Co84 O96 2.137 . S
Co84 O97 2.244 . S
O85 Co84 2.216 . S
O85 C92 1.247 . S
O86 Co84 2.091 . S
O86 C92 1.261 . S
C87 O96 1.247 . S
C87 O97 1.272 . S
O88 Co84 2.004 . S
O88 C93 1.259 . S
Co89 O90 2.061 . S
Co89 O95 2.052 . S
Co89 O97 2.135 . S
O90 Co89 2.061 . S
O90 C93 1.235 . S
C91 O94 1.238 . S
C91 O95 1.241 . S
C92 O85 1.247 . S
C92 O86 1.261 . S
C93 O88 1.259 . S
C93 O90 1.235 . S
O94 Co84 2.021 . S
O94 C91 1.238 . S
O95 Co89 2.052 . S
O95 C91 1.241 . S
O96 Co84 2.137 . S
O96 C87 1.247 . S
O97 Co84 2.244 . S
O97 C87 1.272 . S
O97 Co89 2.135 . S
Co98 O99 2.216 . S
Co98 O100 2.091 . S
Co98 O102 2.004 . S
Co98 O108 2.021 . S
Co98 O110 2.137 . S
Co98 O111 2.244 . S
O99 Co98 2.216 . S
O99 C106 1.247 . S
O100 Co98 2.091 . S
O100 C106 1.261 . S
C101 O110 1.247 . S
C101 O111 1.272 . S
O102 Co98 2.004 . S
O102 C107 1.259 . S
Co103 O104 2.061 . S
Co103 O109 2.052 . S
Co103 O111 2.135 . S
O104 Co103 2.061 . S
O104 C107 1.235 . S
C105 O108 1.238 . S
C105 O109 1.241 . S
C106 O99 1.247 . S
C106 O100 1.261 . S
C107 O102 1.259 . S
C107 O104 1.235 . S
O108 Co98 2.021 . S
O108 C105 1.238 . S
O109 Co103 2.052 . S
O109 C105 1.241 . S
O110 Co98 2.137 . S
O110 C101 1.247 . S
O111 Co98 2.244 . S
O111 C101 1.272 . S
O111 Co103 2.135 . S
H112 C124 0.930 . S
H113 C126 0.930 . S
H114 C127 0.930 . S
H115 C131 0.959 . S
H116 C131 0.959 . S
H117 C131 0.961 . S
H118 C132 0.960 . S
H119 C132 0.961 1_556 S
H120 C132 0.959 . S
H121 C135 0.929 . S
H122 C136 0.931 . S
H123 C138 0.930 . S
C124 H112 0.930 . S
C124 C125 1.399 . S
C124 C129 1.399 . S
C125 C124 1.399 . S
C125 C126 1.376 . S
C126 H113 0.930 . S
C126 C125 1.376 . S
C126 C127 1.388 . S
C127 H114 0.930 . S
C127 C126 1.388 . S
C127 C128 1.390 . S
C128 C127 1.390 . S
C128 C129 1.394 . S
C128 C134 1.465 1_554 S
C129 C124 1.399 . S
C129 C128 1.394 . S
C129 C130 1.516 . S
C130 C129 1.516 . S
C130 C131 1.502 . S
C130 C132 1.561 . S
C130 C133 1.526 1_554 S
C131 H115 0.959 . S
C131 H116 0.959 . S
C131 H117 0.961 . S
C131 C130 1.502 . S
C132 H118 0.960 . S
C132 H119 0.961 1_554 S
C132 H120 0.959 . S
C132 C130 1.561 . S
C133 C130 1.526 1_556 S
C133 C134 1.396 . S
C133 C138 1.390 . S
C134 C128 1.465 1_556 S
C134 C133 1.396 . S
C134 C135 1.399 . S
C135 H121 0.929 . S
C135 C134 1.399 . S
C135 C136 1.385 . S
C136 H122 0.931 . S
C136 C135 1.385 . S
C136 C137 1.389 . S
C137 C136 1.389 . S
C137 C138 1.387 . S
C138 H123 0.930 . S
C138 C133 1.390 . S
C138 C137 1.387 . S
H139 C151 0.930 . S
H140 C153 0.930 . S
H141 C154 0.930 . S
H142 C158 0.959 . S
H143 C158 0.959 . S
H144 C158 0.961 . S
H145 C159 0.960 . S
H146 C159 0.961 . S
H147 C159 0.959 . S
H148 C162 0.929 . S
H149 C163 0.931 . S
H150 C165 0.930 . S
C151 H139 0.930 . S
C151 C152 1.399 . S
C151 C156 1.399 . S
C152 C151 1.399 . S
C152 C153 1.376 . S
C153 H140 0.930 . S
C153 C152 1.376 . S
C153 C154 1.388 . S
C154 H141 0.930 . S
C154 C153 1.388 . S
C154 C155 1.390 . S
C155 C154 1.390 . S
C155 C156 1.394 . S
C155 C161 1.465 . S
C156 C151 1.399 . S
C156 C155 1.394 . S
C156 C157 1.516 . S
C157 C156 1.516 . S
C157 C158 1.502 . S
C157 C159 1.561 . S
C157 C160 1.526 . S
C158 H142 0.959 . S
C158 H143 0.959 . S
C158 H144 0.961 . S
C158 C157 1.502 . S
C159 H145 0.960 . S
C159 H146 0.961 . S
C159 H147 0.959 . S
C159 C157 1.561 . S
C160 C157 1.526 . S
C160 C161 1.396 . S
C160 C165 1.390 . S
C161 C155 1.465 . S
C161 C160 1.396 . S
C161 C162 1.399 . S
C162 H148 0.929 . S
C162 C161 1.399 . S
C162 C163 1.385 . S
C163 H149 0.931 . S
C163 C162 1.385 . S
C163 C164 1.389 . S
C164 C163 1.389 . S
C164 C165 1.387 . S
C165 H150 0.930 . S
C165 C160 1.390 . S
C165 C164 1.387 . S
H166 C178 0.930 . S
H167 C180 0.930 . S
H168 C181 0.930 . S
H169 C185 0.959 . S
H170 C185 0.962 . S
H171 C185 0.961 . S
H172 C186 0.960 1_554 S
H173 C186 0.961 . S
H174 C186 0.959 . S
H175 C189 0.929 . S
H176 C190 0.931 . S
H177 C192 0.930 . S
C178 H166 0.930 . S
C178 C179 1.399 . S
C178 C183 1.399 . S
C179 C178 1.399 . S
C179 C180 1.376 . S
C180 H167 0.930 . S
C180 C179 1.376 . S
C180 C181 1.388 . S
C181 H168 0.930 . S
C181 C180 1.388 . S
C181 C182 1.390 . S
C182 C181 1.390 . S
C182 C183 1.394 . S
C182 C188 1.465 1_554 S
C183 C178 1.399 . S
C183 C182 1.394 . S
C183 C184 1.516 . S
C184 C183 1.516 . S
C184 C185 1.502 . S
C184 C186 1.561 1_554 S
C184 C187 1.526 1_554 S
C185 H169 0.959 . S
C185 H170 0.962 . S
C185 H171 0.961 . S
C185 C184 1.502 . S
C186 H172 0.960 1_556 S
C186 H173 0.961 . S
C186 H174 0.959 . S
C186 C184 1.561 1_556 S
C187 C184 1.526 1_556 S
C187 C188 1.396 . S
C187 C192 1.390 . S
C188 C182 1.465 1_556 S
C188 C187 1.396 . S
C188 C189 1.399 . S
C189 H175 0.929 . S
C189 C188 1.399 . S
C189 C190 1.385 . S
C190 H176 0.931 . S
C190 C189 1.385 . S
C190 C191 1.389 . S
C191 C190 1.389 . S
C191 C192 1.387 . S
C192 H177 0.930 . S
C192 C187 1.390 . S
C192 C191 1.387 . S
H193 C205 0.930 . S
H194 C207 0.930 . S
H195 C208 0.930 . S
H196 C212 0.959 . S
H197 C212 0.959 . S
H198 C212 0.961 . S
H199 C213 0.960 . S
H200 C213 0.961 . S
H201 C213 0.959 . S
H202 C216 0.929 . S
H203 C217 0.931 . S
H204 C219 0.930 . S
C205 H193 0.930 . S
C205 C206 1.399 . S
C205 C210 1.399 . S
C206 C205 1.399 . S
C206 C207 1.376 . S
C207 H194 0.930 . S
C207 C206 1.376 . S
C207 C208 1.388 . S
C208 H195 0.930 . S
C208 C207 1.388 . S
C208 C209 1.390 . S
C209 C208 1.390 . S
C209 C210 1.394 . S
C209 C215 1.465 . S
C210 C205 1.399 . S
C210 C209 1.394 . S
C210 C211 1.516 . S
C211 C210 1.516 . S
C211 C212 1.502 . S
C211 C213 1.561 . S
C211 C214 1.526 . S
C212 H196 0.959 . S
C212 H197 0.959 . S
C212 H198 0.961 . S
C212 C211 1.502 . S
C213 H199 0.960 . S
C213 H200 0.961 . S
C213 H201 0.959 . S
C213 C211 1.561 . S
C214 C211 1.526 . S
C214 C215 1.396 . S
C214 C219 1.390 . S
C215 C209 1.465 . S
C215 C214 1.396 . S
C215 C216 1.399 . S
C216 H202 0.929 . S
C216 C215 1.399 . S
C216 C217 1.385 . S
C217 H203 0.931 . S
C217 C216 1.385 . S
C217 C218 1.389 . S
C218 C217 1.389 . S
C218 C219 1.387 . S
C219 H204 0.930 . S
C219 C214 1.390 . S
C219 C218 1.387 . S
H220 C232 0.930 . S
H221 C234 0.930 . S
H222 C235 0.930 . S
H223 C239 0.959 . S
H224 C239 0.959 . S
H225 C239 0.961 . S
H226 C240 0.960 . S
H227 C240 0.961 . S
H228 C240 0.959 . S
H229 C243 0.929 . S
H230 C244 0.931 . S
H231 C246 0.930 . S
C232 H220 0.930 . S
C232 C233 1.399 . S
C232 C237 1.399 . S
C233 C232 1.399 . S
C233 C234 1.376 . S
C234 H221 0.930 . S
C234 C233 1.376 . S
C234 C235 1.388 . S
C235 H222 0.930 . S
C235 C234 1.388 . S
C235 C236 1.390 . S
C236 C235 1.390 . S
C236 C237 1.394 . S
C236 C242 1.465 . S
C237 C232 1.399 . S
C237 C236 1.394 . S
C237 C238 1.516 . S
C238 C237 1.516 . S
C238 C239 1.502 . S
C238 C240 1.561 . S
C238 C241 1.526 . S
C239 H223 0.959 . S
C239 H224 0.959 . S
C239 H225 0.961 . S
C239 C238 1.502 . S
C240 H226 0.960 . S
C240 H227 0.961 . S
C240 H228 0.959 . S
C240 C238 1.561 . S
C241 C238 1.526 . S
C241 C242 1.396 . S
C241 C246 1.390 . S
C242 C236 1.465 . S
C242 C241 1.396 . S
C242 C243 1.399 . S
C243 H229 0.929 . S
C243 C242 1.399 . S
C243 C244 1.385 . S
C244 H230 0.931 . S
C244 C243 1.385 . S
C244 C245 1.389 . S
C245 C244 1.389 . S
C245 C246 1.387 . S
C246 H231 0.930 . S
C246 C241 1.390 . S
C246 C245 1.387 . S
H247 C259 0.930 . S
H248 C261 0.930 . S
H249 C262 0.930 . S
H250 C266 0.959 . S
H251 C266 0.959 . S
H252 C266 0.961 . S
H253 C267 0.960 . S
H254 C267 0.961 . S
H255 C267 0.959 . S
H256 C270 0.929 . S
H257 C271 0.931 . S
H258 C273 0.930 . S
C259 H247 0.930 . S
C259 C260 1.399 . S
C259 C264 1.399 . S
C260 C259 1.399 . S
C260 C261 1.376 . S
C261 H248 0.930 . S
C261 C260 1.376 . S
C261 C262 1.388 . S
C262 H249 0.930 . S
C262 C261 1.388 . S
C262 C263 1.390 . S
C263 C262 1.390 . S
C263 C264 1.394 . S
C263 C269 1.465 . S
C264 C259 1.399 . S
C264 C263 1.394 . S
C264 C265 1.516 . S
C265 C264 1.516 . S
C265 C266 1.502 . S
C265 C267 1.561 . S
C265 C268 1.526 . S
C266 H250 0.959 . S
C266 H251 0.959 . S
C266 H252 0.961 . S
C266 C265 1.502 . S
C267 H253 0.960 . S
C267 H254 0.961 . S
C267 H255 0.959 . S
C267 C265 1.561 . S
C268 C265 1.526 . S
C268 C269 1.396 . S
C268 C273 1.390 . S
C269 C263 1.465 . S
C269 C268 1.396 . S
C269 C270 1.399 1_565 S
C270 H256 0.929 . S
C270 C269 1.399 1_545 S
C270 C271 1.385 . S
C271 H257 0.931 . S
C271 C270 1.385 . S
C271 C272 1.389 . S
C272 C271 1.389 . S
C272 C273 1.387 1_545 S
C273 H258 0.930 . S
C273 C268 1.390 . S
C273 C272 1.387 1_565 S
H274 C286 0.930 . S
H275 C288 0.930 . S
H276 C289 0.930 . S
H277 C293 0.959 . S
H278 C293 0.959 . S
H279 C293 0.961 . S
H280 C294 0.960 . S
H281 C294 0.961 . S
H282 C294 0.959 . S
H283 C297 0.929 . S
H284 C298 0.931 . S
H285 C300 0.930 . S
C286 H274 0.930 . S
C286 C287 1.399 . S
C286 C291 1.399 . S
C287 C286 1.399 . S
C287 C288 1.376 . S
C288 H275 0.930 . S
C288 C287 1.376 . S
C288 C289 1.388 . S
C289 H276 0.930 . S
C289 C288 1.388 . S
C289 C290 1.390 . S
C290 C289 1.390 . S
C290 C291 1.394 . S
C290 C296 1.465 . S
C291 C286 1.399 . S
C291 C290 1.394 . S
C291 C292 1.516 . S
C292 C291 1.516 . S
C292 C293 1.502 . S
C292 C294 1.561 . S
C292 C295 1.526 . S
C293 H277 0.959 . S
C293 H278 0.959 . S
C293 H279 0.961 . S
C293 C292 1.502 . S
C294 H280 0.960 . S
C294 H281 0.961 . S
C294 H282 0.959 . S
C294 C292 1.561 . S
C295 C292 1.526 . S
C295 C296 1.396 . S
C295 C300 1.390 . S
C296 C290 1.465 . S
C296 C295 1.396 . S
C296 C297 1.399 . S
C297 H283 0.929 . S
C297 C296 1.399 . S
C297 C298 1.385 . S
C298 H284 0.931 . S
C298 C297 1.385 . S
C298 C299 1.389 . S
C299 C298 1.389 . S
C299 C300 1.387 . S
C300 H285 0.930 . S
C300 C295 1.390 . S
C300 C299 1.387 . S
H301 C313 0.930 . S
H302 C315 0.930 . S
H303 C316 0.930 . S
H304 C320 0.959 . S
H305 C320 0.959 . S
H306 C320 0.961 . S
H307 C321 0.960 . S
H308 C321 0.961 . S
H309 C321 0.959 . S
H310 C324 0.929 . S
H311 C325 0.931 . S
H312 C327 0.930 1_545 S
C313 H301 0.930 . S
C313 C314 1.399 . S
C313 C318 1.399 . S
C314 C313 1.399 . S
C314 C315 1.376 . S
C315 H302 0.930 . S
C315 C314 1.376 . S
C315 C316 1.388 . S
C316 H303 0.930 . S
C316 C315 1.388 . S
C316 C317 1.390 . S
C317 C316 1.390 . S
C317 C318 1.394 . S
C317 C323 1.465 . S
C318 C313 1.399 . S
C318 C317 1.394 . S
C318 C319 1.516 . S
C319 C318 1.516 . S
C319 C320 1.502 . S
C319 C321 1.561 . S
C319 C322 1.526 . S
C320 H304 0.959 . S
C320 H305 0.959 . S
C320 H306 0.961 . S
C320 C319 1.502 . S
C321 H307 0.960 . S
C321 H308 0.961 . S
C321 H309 0.959 . S
C321 C319 1.561 . S
C322 C319 1.526 . S
C322 C323 1.396 . S
C322 C327 1.391 1_545 S
C323 C317 1.465 . S
C323 C322 1.396 . S
C323 C324 1.399 1_545 S
C324 H310 0.929 . S
C324 C323 1.399 1_565 S
C324 C325 1.385 . S
C325 H311 0.931 . S
C325 C324 1.385 . S
C325 C326 1.389 . S
C326 C325 1.389 . S
C326 C327 1.385 . S
C327 H312 0.930 1_565 S
C327 C322 1.391 1_565 S
C327 C326 1.385 . S
H328 C340 0.930 . S
H329 C342 0.930 . S
H330 C343 0.930 . S
H331 C347 0.959 . S
H332 C347 0.959 . S
H333 C347 0.961 . S
H334 C348 0.960 . S
H335 C348 0.961 . S
H336 C348 0.959 . S
H337 C351 0.929 . S
H338 C352 0.931 . S
H339 C354 0.930 . S
C340 H328 0.930 . S
C340 C341 1.399 . S
C340 C345 1.399 . S
C341 C340 1.399 . S
C341 C342 1.376 . S
C342 H329 0.930 . S
C342 C341 1.376 . S
C342 C343 1.388 . S
C343 H330 0.930 . S
C343 C342 1.388 . S
C343 C344 1.390 . S
C344 C343 1.390 . S
C344 C345 1.394 . S
C344 C350 1.465 . S
C345 C340 1.399 . S
C345 C344 1.394 . S
C345 C346 1.516 . S
C346 C345 1.516 . S
C346 C347 1.502 . S
C346 C348 1.561 . S
C346 C349 1.526 . S
C347 H331 0.959 . S
C347 H332 0.959 . S
C347 H333 0.961 . S
C347 C346 1.502 . S
C348 H334 0.960 . S
C348 H335 0.961 . S
C348 H336 0.959 . S
C348 C346 1.561 . S
C349 C346 1.526 . S
C349 C350 1.396 . S
C349 C354 1.390 1_655 S
C350 C344 1.465 . S
C350 C349 1.396 . S
C350 C351 1.399 . S
C351 H337 0.929 . S
C351 C350 1.399 . S
C351 C352 1.385 1_655 S
C352 H338 0.931 . S
C352 C351 1.385 1_455 S
C352 C353 1.389 . S
C353 C352 1.389 . S
C353 C354 1.387 . S
C354 H339 0.930 . S
C354 C349 1.390 1_455 S
C354 C353 1.387 . S
H355 C367 0.930 . S
H356 C369 0.930 . S
H357 C370 0.930 . S
H358 C374 0.959 . S
H359 C374 0.959 . S
H360 C374 0.961 . S
H361 C375 0.960 . S
H362 C375 0.961 . S
H363 C375 0.959 . S
H364 C378 0.929 . S
H365 C379 0.931 . S
H366 C381 0.930 . S
C367 H355 0.930 . S
C367 C368 1.399 . S
C367 C372 1.399 . S
C368 C367 1.399 . S
C368 C369 1.376 . S
C369 H356 0.930 . S
C369 C368 1.376 . S
C369 C370 1.388 . S
C370 H357 0.930 . S
C370 C369 1.388 . S
C370 C371 1.390 . S
C371 C370 1.390 . S
C371 C372 1.394 . S
C371 C377 1.465 . S
C372 C367 1.399 . S
C372 C371 1.394 . S
C372 C373 1.516 . S
C373 C372 1.516 . S
C373 C374 1.502 . S
C373 C375 1.561 . S
C373 C376 1.526 . S
C374 H358 0.959 . S
C374 H359 0.959 . S
C374 H360 0.961 . S
C374 C373 1.502 . S
C375 H361 0.960 . S
C375 H362 0.961 . S
C375 H363 0.959 . S
C375 C373 1.561 . S
C376 C373 1.526 . S
C376 C377 1.396 . S
C376 C381 1.390 . S
C377 C371 1.465 . S
C377 C376 1.396 . S
C377 C378 1.399 . S
C378 H364 0.929 . S
C378 C377 1.399 . S
C378 C379 1.385 . S
C379 H365 0.931 . S
C379 C378 1.385 . S
C379 C380 1.389 . S
C380 C379 1.389 . S
C380 C381 1.387 . S
C381 H366 0.930 . S
C381 C376 1.390 . S
C381 C380 1.387 . S
H382 C394 0.930 . S
H383 C396 0.930 . S
H384 C397 0.930 . S
H385 C401 0.959 . S
H386 C401 0.959 1_655 S
H387 C401 0.961 . S
H388 C402 0.960 . S
H389 C402 0.961 . S
H390 C402 0.959 . S
H391 C405 0.929 . S
H392 C406 0.931 . S
H393 C408 0.930 . S
C394 H382 0.930 . S
C394 C395 1.399 . S
C394 C399 1.399 . S
C395 C394 1.399 . S
C395 C396 1.376 . S
C396 H383 0.930 . S
C396 C395 1.376 . S
C396 C397 1.388 . S
C397 H384 0.930 . S
C397 C396 1.388 . S
C397 C398 1.390 . S
C398 C397 1.390 . S
C398 C399 1.394 . S
C398 C404 1.465 . S
C399 C394 1.399 . S
C399 C398 1.394 . S
C399 C400 1.516 . S
C400 C399 1.516 . S
C400 C401 1.502 . S
C400 C402 1.561 . S
C400 C403 1.526 . S
C401 H385 0.959 . S
C401 H386 0.959 1_455 S
C401 H387 0.961 . S
C401 C400 1.502 . S
C402 H388 0.960 . S
C402 H389 0.961 . S
C402 H390 0.959 . S
C402 C400 1.561 . S
C403 C400 1.526 . S
C403 C404 1.396 . S
C403 C408 1.390 1_455 S
C404 C398 1.465 . S
C404 C403 1.396 . S
C404 C405 1.399 . S
C405 H391 0.929 . S
C405 C404 1.399 . S
C405 C406 1.385 1_455 S
C406 H392 0.931 . S
C406 C405 1.385 1_655 S
C406 C407 1.389 . S
C407 C406 1.389 . S
C407 C408 1.387 . S
C408 H393 0.930 . S
C408 C403 1.390 1_655 S
C408 C407 1.387 . S
H409 C421 0.930 . S
H410 C423 0.930 . S
H411 C424 0.930 . S
H412 C428 0.959 . S
H413 C428 0.959 . S
H414 C428 0.961 . S
H415 C429 0.960 . S
H416 C429 0.961 . S
H417 C429 0.959 . S
H418 C432 0.929 . S
H419 C433 0.931 . S
H420 C435 0.930 . S
C421 H409 0.930 . S
C421 C422 1.399 . S
C421 C426 1.399 . S
C422 C421 1.399 . S
C422 C423 1.376 . S
C423 H410 0.930 . S
C423 C422 1.376 . S
C423 C424 1.388 . S
C424 H411 0.930 . S
C424 C423 1.388 . S
C424 C425 1.390 . S
C425 C424 1.390 . S
C425 C426 1.394 . S
C425 C431 1.465 . S
C426 C421 1.399 . S
C426 C425 1.394 . S
C426 C427 1.516 . S
C427 C426 1.516 . S
C427 C428 1.502 . S
C427 C429 1.561 . S
C427 C430 1.526 . S
C428 H412 0.959 . S
C428 H413 0.959 . S
C428 H414 0.961 . S
C428 C427 1.502 . S
C429 H415 0.960 . S
C429 H416 0.961 . S
C429 H417 0.959 . S
C429 C427 1.561 . S
C430 C427 1.526 . S
C430 C431 1.396 . S
C430 C435 1.390 . S
C431 C425 1.465 . S
C431 C430 1.396 . S
C431 C432 1.399 . S
C432 H418 0.929 . S
C432 C431 1.399 . S
C432 C433 1.385 . S
C433 H419 0.931 . S
C433 C432 1.385 . S
C433 C434 1.389 . S
C434 C433 1.389 . S
C434 C435 1.387 . S
C435 H420 0.930 . S
C435 C430 1.390 . S
C435 C434 1.387 . S
H436 C448 0.930 . S
H437 C450 0.930 . S
H438 C451 0.930 . S
H439 C455 0.959 . S
H440 C455 0.959 . S
H441 C455 0.961 . S
H442 C456 0.960 . S
H443 C456 0.961 . S
H444 C456 0.959 . S
H445 C459 0.929 1_655 S
H446 C460 0.931 . S
H447 C462 0.930 . S
C448 H436 0.930 . S
C448 C449 1.399 . S
C448 C453 1.399 . S
C449 C448 1.399 . S
C449 C450 1.376 . S
C450 H437 0.930 . S
C450 C449 1.376 . S
C450 C451 1.388 . S
C451 H438 0.930 . S
C451 C450 1.388 . S
C451 C452 1.390 . S
C452 C451 1.390 . S
C452 C453 1.394 . S
C452 C458 1.465 1_655 S
C453 C448 1.399 . S
C453 C452 1.394 . S
C453 C454 1.516 1_655 S
C454 C453 1.516 1_455 S
C454 C455 1.502 . S
C454 C456 1.561 . S
C454 C457 1.526 . S
C455 H439 0.959 . S
C455 H440 0.959 . S
C455 H441 0.961 . S
C455 C454 1.502 . S
C456 H442 0.960 . S
C456 H443 0.961 . S
C456 H444 0.959 . S
C456 C454 1.561 . S
C457 C454 1.526 . S
C457 C458 1.396 . S
C457 C462 1.390 . S
C458 C452 1.465 1_455 S
C458 C457 1.396 . S
C458 C459 1.399 . S
C459 H445 0.929 1_455 S
C459 C458 1.399 . S
C459 C460 1.385 . S
C460 H446 0.931 . S
C460 C459 1.385 . S
C460 C461 1.389 . S
C461 C460 1.389 . S
C461 C462 1.387 . S
C462 H447 0.930 . S
C462 C457 1.390 . S
C462 C461 1.387 . S
H463 C475 0.930 . S
H464 C477 0.930 . S
H465 C478 0.930 1_455 S
H466 C482 0.959 . S
H467 C482 0.959 . S
H468 C482 0.961 . S
H469 C483 0.960 1_655 S
H470 C483 0.961 . S
H471 C483 0.959 . S
H472 C486 0.929 . S
H473 C487 0.931 . S
H474 C489 0.930 . S
C475 H463 0.930 . S
C475 C476 1.399 . S
C475 C480 1.399 . S
C476 C475 1.399 . S
C476 C477 1.376 . S
C477 H464 0.930 . S
C477 C476 1.376 . S
C477 C478 1.388 . S
C478 H465 0.930 1_655 S
C478 C477 1.388 . S
C478 C479 1.390 . S
C479 C478 1.390 . S
C479 C480 1.394 . S
C479 C485 1.465 1_655 S
C480 C475 1.399 . S
C480 C479 1.394 . S
C480 C481 1.516 . S
C481 C480 1.516 . S
C481 C482 1.502 . S
C481 C483 1.561 1_655 S
C481 C484 1.526 1_655 S
C482 H466 0.959 . S
C482 H467 0.959 . S
C482 H468 0.961 . S
C482 C481 1.502 . S
C483 H469 0.960 1_455 S
C483 H470 0.961 . S
C483 H471 0.959 . S
C483 C481 1.561 1_455 S
C484 C481 1.526 1_455 S
C484 C485 1.396 . S
C484 C489 1.390 . S
C485 C479 1.465 1_455 S
C485 C484 1.396 . S
C485 C486 1.399 . S
C486 H472 0.929 . S
C486 C485 1.399 . S
C486 C487 1.385 . S
C487 H473 0.931 . S
C487 C486 1.385 . S
C487 C488 1.389 . S
C488 C487 1.389 . S
C488 C489 1.387 . S
C489 H474 0.930 . S
C489 C484 1.390 . S
C489 C488 1.387 . S
H490 C502 0.930 . S
H491 C504 0.930 . S
H492 C505 0.930 . S
H493 C509 0.959 . S
H494 C509 0.959 . S
H495 C509 0.961 . S
H496 C510 0.960 . S
H497 C510 0.961 . S
H498 C510 0.959 . S
H499 C513 0.929 . S
H500 C514 0.931 . S
H501 C516 0.930 . S
C502 H490 0.930 . S
C502 C503 1.399 . S
C502 C507 1.399 . S
C503 C502 1.399 . S
C503 C504 1.376 . S
C504 H491 0.930 . S
C504 C503 1.376 . S
C504 C505 1.388 . S
C505 H492 0.930 . S
C505 C504 1.388 . S
C505 C506 1.390 . S
C506 C505 1.390 . S
C506 C507 1.394 . S
C506 C512 1.465 1_545 S
C507 C502 1.399 . S
C507 C506 1.394 . S
C507 C508 1.516 1_545 S
C508 C507 1.516 1_565 S
C508 C509 1.502 1_565 S
C508 C510 1.561 . S
C508 C511 1.526 . S
C509 H493 0.959 . S
C509 H494 0.959 . S
C509 H495 0.961 . S
C509 C508 1.502 1_545 S
C510 H496 0.960 . S
C510 H497 0.961 . S
C510 H498 0.959 . S
C510 C508 1.561 . S
C511 C508 1.526 . S
C511 C512 1.396 . S
C511 C516 1.390 . S
C512 C506 1.465 1_565 S
C512 C511 1.396 . S
C512 C513 1.399 . S
C513 H499 0.929 . S
C513 C512 1.399 . S
C513 C514 1.385 . S
C514 H500 0.931 . S
C514 C513 1.385 . S
C514 C515 1.389 . S
C515 C514 1.389 . S
C515 C516 1.387 . S
C516 H501 0.930 . S
C516 C511 1.390 . S
C516 C515 1.387 . S
H517 C529 0.930 . S
H518 C531 0.930 . S
H519 C532 0.930 . S
H520 C536 0.959 . S
H521 C536 0.959 . S
H522 C536 0.961 . S
H523 C537 0.960 1_545 S
H524 C537 0.961 . S
H525 C537 0.959 . S
H526 C540 0.929 . S
H527 C541 0.931 . S
H528 C543 0.930 . S
C529 H517 0.930 . S
C529 C530 1.399 . S
C529 C534 1.399 . S
C530 C529 1.399 . S
C530 C531 1.376 . S
C531 H518 0.930 . S
C531 C530 1.376 . S
C531 C532 1.388 . S
C532 H519 0.930 . S
C532 C531 1.388 . S
C532 C533 1.390 . S
C533 C532 1.390 . S
C533 C534 1.394 . S
C533 C539 1.465 1_545 S
C534 C529 1.399 . S
C534 C533 1.394 . S
C534 C535 1.516 . S
C535 C534 1.516 . S
C535 C536 1.502 . S
C535 C537 1.561 1_545 S
C535 C538 1.526 1_545 S
C536 H520 0.959 . S
C536 H521 0.959 . S
C536 H522 0.961 . S
C536 C535 1.502 . S
C537 H523 0.960 1_565 S
C537 H524 0.961 . S
C537 H525 0.959 . S
C537 C535 1.561 1_565 S
C538 C535 1.526 1_565 S
C538 C539 1.396 . S
C538 C543 1.390 . S
C539 C533 1.465 1_565 S
C539 C538 1.396 . S
C539 C540 1.399 . S
C540 H526 0.929 . S
C540 C539 1.399 . S
C540 C541 1.385 . S
C541 H527 0.931 . S
C541 C540 1.385 . S
C541 C542 1.389 . S
C542 C541 1.389 . S
C542 C543 1.387 . S
C543 H528 0.930 . S
C543 C538 1.390 . S
C543 C542 1.387 . S
C125 C7 1.273 . S
C137 C77 1.338 . S
C152 C21 1.280 . S
C164 C91 1.296 . S
C179 C35 1.290 . S
C191 C105 1.340 . S
C206 C63 1.326 . S
C218 C49 1.317 . S
C233 C8 1.627 . S
C245 C59 1.598 . S
C260 C22 1.649 . S
C272 C73 1.595 . S
C287 C87 1.627 . S
C299 C36 1.618 . S
C314 C50 1.649 . S
C326 C101 1.590 . S
C341 C64 1.640 . S
C353 C3 1.584 . S
C368 C17 1.635 . S
C380 C78 1.627 . S
C395 C92 1.630 . S
C407 C31 1.594 . S
C422 C45 1.587 . S
C434 C106 1.635 . S
C449 C37 0.637 . S
C461 C9 0.496 . S
C476 C51 0.688 . S
C488 C23 0.550 . S
C503 C65 0.665 . S
C515 C93 0.588 . S
C530 C79 0.501 . S
C542 C107 0.628 . S
