# Generated by pormake.
# Topology ecf, (8)-cn, num edge types: 1
# Building blocks:
#     Node 0, Type 0, BuildingBlock: VETTIZ_charged_sbu_0, # of connection points: 8
#     Node 1, Type 0, BuildingBlock: VETTIZ_charged_sbu_0, # of connection points: 8
#     Node 2, Type 0, BuildingBlock: VETTIZ_charged_sbu_0, # of connection points: 8
#     Node 3, Type 0, BuildingBlock: VETTIZ_charged_sbu_0, # of connection points: 8
#     Node 4, Type 0, BuildingBlock: VETTIZ_charged_sbu_0, # of connection points: 8
#     Node 5, Type 0, BuildingBlock: VETTIZ_charged_sbu_0, # of connection points: 8
#     Edge 6, Type (0, 0), BuildingBlock: MIFKUJ_clean_linker_0, # of connection points: 2
#     Edge 7, Type (0, 0), BuildingBlock: MIFKUJ_clean_linker_0, # of connection points: 2
#     Edge 8, Type (0, 0), BuildingBlock: MIFKUJ_clean_linker_0, # of connection points: 2
#     Edge 9, Type (0, 0), BuildingBlock: MIFKUJ_clean_linker_0, # of connection points: 2
#     Edge 10, Type (0, 0), BuildingBlock: MIFKUJ_clean_linker_0, # of connection points: 2
#     Edge 11, Type (0, 0), BuildingBlock: MIFKUJ_clean_linker_0, # of connection points: 2
#     Edge 12, Type (0, 0), BuildingBlock: MIFKUJ_clean_linker_0, # of connection points: 2
#     Edge 13, Type (0, 0), BuildingBlock: MIFKUJ_clean_linker_0, # of connection points: 2
#     Edge 14, Type (0, 0), BuildingBlock: MIFKUJ_clean_linker_0, # of connection points: 2
#     Edge 15, Type (0, 0), BuildingBlock: MIFKUJ_clean_linker_0, # of connection points: 2
#     Edge 16, Type (0, 0), BuildingBlock: MIFKUJ_clean_linker_0, # of connection points: 2
#     Edge 17, Type (0, 0), BuildingBlock: MIFKUJ_clean_linker_0, # of connection points: 2
#     Edge 18, Type (0, 0), BuildingBlock: MIFKUJ_clean_linker_0, # of connection points: 2
#     Edge 19, Type (0, 0), BuildingBlock: MIFKUJ_clean_linker_0, # of connection points: 2
#     Edge 20, Type (0, 0), BuildingBlock: MIFKUJ_clean_linker_0, # of connection points: 2
#     Edge 21, Type (0, 0), BuildingBlock: MIFKUJ_clean_linker_0, # of connection points: 2
#     Edge 22, Type (0, 0), BuildingBlock: MIFKUJ_clean_linker_0, # of connection points: 2
#     Edge 23, Type (0, 0), BuildingBlock: MIFKUJ_clean_linker_0, # of connection points: 2
#     Edge 24, Type (0, 0), BuildingBlock: MIFKUJ_clean_linker_0, # of connection points: 2
#     Edge 25, Type (0, 0), BuildingBlock: MIFKUJ_clean_linker_0, # of connection points: 2
#     Edge 26, Type (0, 0), BuildingBlock: MIFKUJ_clean_linker_0, # of connection points: 2
#     Edge 27, Type (0, 0), BuildingBlock: MIFKUJ_clean_linker_0, # of connection points: 2
#     Edge 28, Type (0, 0), BuildingBlock: MIFKUJ_clean_linker_0, # of connection points: 2
#     Edge 29, Type (0, 0), BuildingBlock: MIFKUJ_clean_linker_0, # of connection points: 2
# Relax obj value: 0.148
# Max RMSD: 0.140
# Mean RMSD: 0.140
data_MOF--net-ecf--node1-VETTIZ_charged_sbu_0--edge1-MIFKUJ_clean_linker_0
_symmetry_space_group_name_H-M    P1
_symmetry_Int_Tables_number       1
_symmetry_cell_setting            triclinic
loop_
_symmetry_equiv_pos_as_xyz
'x, y, z'
_cell_length_a     41.922232
_cell_length_b     41.780204
_cell_length_c     35.150731
_cell_angle_alpha  90.10274
_cell_angle_beta   90.149286
_cell_angle_gamma 119.88623
loop_
_atom_site_label
_atom_site_type_symbol
_atom_site_fract_x
_atom_site_fract_y
_atom_site_fract_z
_atom_type_partial_charge
Fe0 Fe 0.18006 0.2665 0.20969 0.0
O1 O 0.1889 0.30456 0.24707 0.0
Fe2 Fe 0.19422 0.35479 0.22966 0.0
Fe3 Fe 0.15552 0.29458 0.2913 0.0
O4 O 0.19151 0.30745 0.2449 0.0
O5 O 0.16156 0.3452 0.27523 0.0
O6 O 0.15976 0.34271 0.27796 0.0
Fe7 Fe 0.17062 0.38071 0.31653 0.0
C8 C 0.10253 0.24202 0.23418 0.0
O9 O 0.19455 0.24464 0.25506 0.0
O10 O 0.15607 0.24576 0.30094 0.0
O11 O 0.22409 0.41502 0.3009 0.0
O12 O 0.24154 0.38419 0.262 0.0
O13 O 0.22776 0.35639 0.18251 0.0
O14 O 0.23184 0.30352 0.19027 0.0
O15 O 0.20112 0.31953 0.32499 0.0
O16 O 0.18949 0.35788 0.35792 0.0
C17 C 0.24147 0.33494 0.17407 0.0
O18 O 0.1576 0.40555 0.27287 0.0
O19 O 0.1914 0.40363 0.22135 0.0
O20 O 0.12641 0.23273 0.2262 0.0
O21 O 0.10969 0.26846 0.25698 0.0
C22 C 0.17837 0.23525 0.28799 0.0
C23 C 0.20579 0.33911 0.35421 0.0
C24 C 0.10674 0.30999 0.34774 0.0
O25 O 0.12111 0.29 0.33722 0.0
O26 O 0.11786 0.34329 0.33559 0.0
C27 C 0.24891 0.41048 0.28529 0.0
O28 O 0.14827 0.32731 0.19534 0.0
O29 O 0.16059 0.28659 0.16731 0.0
C30 C 0.17254 0.41628 0.23936 0.0
C31 C 0.14357 0.30478 0.16847 0.0
Fe32 Fe 0.83315 0.09678 0.71297 0.0
O33 O 0.8175 0.12198 0.74883 0.0
Fe34 Fe 0.81087 0.16602 0.73139 0.0
Fe35 Fe 0.84416 0.14339 0.79747 0.0
O36 O 0.81612 0.12278 0.74616 0.0
O37 O 0.83852 0.18822 0.78036 0.0
O38 O 0.83902 0.18673 0.78383 0.0
Fe39 Fe 0.82081 0.2088 0.82106 0.0
C40 C 0.82664 0.06293 0.79101 0.0
O41 O 0.88462 0.11747 0.7372 0.0
O42 O 0.8936 0.16676 0.77022 0.0
O43 O 0.83598 0.24913 0.77975 0.0
O44 O 0.80967 0.21579 0.72417 0.0
O45 O 0.85931 0.18936 0.69976 0.0
O46 O 0.85599 0.13882 0.67338 0.0
O47 O 0.87253 0.17155 0.84706 0.0
O48 O 0.87169 0.22615 0.84668 0.0
C49 C 0.86879 0.17364 0.67443 0.0
O50 O 0.76888 0.18788 0.79803 0.0
O51 O 0.76128 0.14261 0.75909 0.0
O52 O 0.81479 0.0577 0.75603 0.0
O53 O 0.84551 0.09504 0.80709 0.0
C54 C 0.90586 0.14805 0.75377 0.0
C55 C 0.88424 0.20514 0.85898 0.0
C56 C 0.78901 0.13046 0.85572 0.0
O57 O 0.79491 0.11841 0.82509 0.0
O58 O 0.80109 0.16496 0.86025 0.0
C59 C 0.82484 0.24621 0.74453 0.0
O60 O 0.78089 0.13509 0.68274 0.0
O61 O 0.7832 0.08088 0.68722 0.0
C62 C 0.74851 0.15998 0.77734 0.0
C63 C 0.76942 0.10049 0.67405 0.0
Fe64 Fe 0.70515 0.85856 0.23443 0.0
O65 O 0.69291 0.87693 0.28153 0.0
Fe66 Fe 0.61923 0.79313 0.2007 0.0
Fe67 Fe 0.72788 0.89945 0.32363 0.0
O68 O 0.65579 0.81426 0.24184 0.0
O69 O 0.65317 0.81323 0.24433 0.0
O70 O 0.69008 0.87594 0.28403 0.0
Fe71 Fe 0.64182 0.83043 0.29311 0.0
C72 C 0.75754 0.85285 0.28687 0.0
O73 O 0.7547 0.90827 0.23207 0.0
O74 O 0.75342 0.94121 0.28424 0.0
O75 O 0.6153 0.85373 0.26492 0.0
O76 O 0.58497 0.81203 0.21953 0.0
O77 O 0.64553 0.83867 0.16454 0.0
O78 O 0.68374 0.88445 0.20228 0.0
O79 O 0.69011 0.91268 0.34421 0.0
O80 O 0.63654 0.85606 0.34328 0.0
C81 C 0.66691 0.87304 0.17078 0.0
O82 O 0.59248 0.77908 0.29529 0.0
O83 O 0.59177 0.75033 0.23854 0.0
O84 O 0.72952 0.83451 0.2656 0.0
O85 O 0.76294 0.88179 0.30447 0.0
C86 C 0.76513 0.93889 0.25066 0.0
C87 C 0.6565 0.89036 0.3547 0.0
C88 C 0.68676 0.82001 0.35329 0.0
O89 O 0.70405 0.8546 0.36016 0.0
O90 O 0.66706 0.80657 0.32349 0.0
C91 C 0.58898 0.83835 0.24107 0.0
O92 O 0.65613 0.77834 0.18047 0.0
O93 O 0.7116 0.83258 0.18576 0.0
C94 C 0.58068 0.75016 0.27312 0.0
C95 C 0.69079 0.79917 0.1726 0.0
Fe96 Fe 0.82557 0.73617 0.71848 0.0
O97 O 0.81269 0.69378 0.751 0.0
Fe98 Fe 0.81066 0.64637 0.72937 0.0
Fe99 Fe 0.83852 0.69744 0.79974 0.0
O100 O 0.811 0.69156 0.74844 0.0
O101 O 0.83741 0.65028 0.77848 0.0
O102 O 0.83931 0.65277 0.78145 0.0
Fe103 Fe 0.82288 0.61001 0.81567 0.0
C104 C 0.899 0.76122 0.75934 0.0
O105 O 0.80343 0.75105 0.76311 0.0
O106 O 0.83295 0.74275 0.81429 0.0
O107 O 0.77067 0.57848 0.79317 0.0
O108 O 0.75989 0.61404 0.75374 0.0
O109 O 0.78311 0.64963 0.67947 0.0
O110 O 0.77749 0.70123 0.69015 0.0
O111 O 0.78834 0.66508 0.82356 0.0
O112 O 0.80181 0.62963 0.85782 0.0
C113 C 0.77 0.67151 0.67129 0.0
O114 O 0.83996 0.58909 0.77147 0.0
O115 O 0.8138 0.59846 0.71726 0.0
O116 O 0.87619 0.76894 0.7438 0.0
O117 O 0.88909 0.73096 0.77639 0.0
C118 C 0.81314 0.75522 0.79878 0.0
C119 C 0.78592 0.64868 0.85438 0.0
C120 C 0.88193 0.67659 0.85782 0.0
O121 O 0.86675 0.69628 0.84889 0.0
O122 O 0.87311 0.64489 0.84213 0.0
C123 C 0.74881 0.58518 0.77398 0.0
O124 O 0.86041 0.67769 0.70239 0.0
O125 O 0.85189 0.72233 0.67772 0.0
C126 C 0.82928 0.58272 0.736 0.0
C127 C 0.86861 0.70384 0.67878 0.0
Fe128 Fe 0.17193 0.90295 0.21956 0.0
O129 O 0.18428 0.87406 0.25388 0.0
Fe130 Fe 0.18384 0.82649 0.23503 0.0
Fe131 Fe 0.15789 0.8543 0.30264 0.0
O132 O 0.1854 0.87306 0.25127 0.0
O133 O 0.15712 0.80643 0.28437 0.0
O134 O 0.15599 0.80754 0.28724 0.0
Fe135 Fe 0.1709 0.78147 0.32343 0.0
C136 C 0.18604 0.93773 0.2982 0.0
O137 O 0.12245 0.88877 0.2458 0.0
O138 O 0.1077 0.83712 0.27716 0.0
O139 O 0.15275 0.74133 0.28093 0.0
O140 O 0.17911 0.77444 0.22581 0.0
O141 O 0.13425 0.80808 0.20642 0.0
O142 O 0.14313 0.86102 0.18065 0.0
O143 O 0.12891 0.82725 0.35183 0.0
O144 O 0.12123 0.76872 0.3482 0.0
C145 C 0.12635 0.82578 0.18196 0.0
O146 O 0.22248 0.7992 0.30136 0.0
O147 O 0.23454 0.84475 0.2605 0.0
O148 O 0.19615 0.94183 0.26269 0.0
O149 O 0.1646 0.90614 0.31417 0.0
C150 C 0.09862 0.85873 0.26127 0.0
C151 C 0.11303 0.7927 0.36193 0.0
C152 C 0.20987 0.85907 0.36021 0.0
O153 O 0.20764 0.87286 0.32903 0.0
O154 O 0.19312 0.8241 0.36428 0.0
C155 C 0.16339 0.74397 0.24564 0.0
O156 O 0.21158 0.85404 0.18483 0.0
O157 O 0.21887 0.91252 0.19075 0.0
C158 C 0.24482 0.82651 0.28121 0.0
C159 C 0.22551 0.88846 0.17446 0.0
Fe160 Fe 0.26619 0.15995 0.70711 0.0
O161 O 0.30708 0.17629 0.74318 0.0
Fe162 Fe 0.35659 0.18142 0.72337 0.0
Fe163 Fe 0.30271 0.14977 0.79184 0.0
O164 O 0.3095 0.17787 0.74011 0.0
O165 O 0.35299 0.15638 0.7734 0.0
O166 O 0.35095 0.15553 0.7767 0.0
Fe167 Fe 0.39263 0.17423 0.81209 0.0
C168 C 0.23855 0.16524 0.78516 0.0
O169 O 0.2364 0.10803 0.73035 0.0
O170 O 0.27597 0.09936 0.76532 0.0
O171 O 0.41543 0.15722 0.77005 0.0
O172 O 0.406 0.18085 0.71391 0.0
O173 O 0.32877 0.13043 0.69545 0.0
O174 O 0.28542 0.13784 0.66677 0.0
O175 O 0.3041 0.1214 0.84073 0.0
O176 O 0.36035 0.12398 0.83812 0.0
C177 C 0.30402 0.12141 0.66976 0.0
O178 O 0.42238 0.22587 0.78875 0.0
O179 O 0.38575 0.23329 0.74782 0.0
O180 O 0.24532 0.17752 0.75049 0.0
O181 O 0.25282 0.14772 0.80207 0.0
C182 C 0.24611 0.08702 0.74666 0.0
C183 C 0.32706 0.11046 0.85078 0.0
C184 C 0.34873 0.20825 0.84834 0.0
O185 O 0.32725 0.19958 0.81991 0.0
O186 O 0.37068 0.19553 0.85197 0.0
C187 C 0.42134 0.1659 0.73417 0.0
O188 O 0.3534 0.20844 0.6733 0.0
O189 O 0.29927 0.20982 0.68131 0.0
C190 C 0.41441 0.24629 0.76875 0.0
C191 C 0.33092 0.2208 0.66522 0.0
H192 H 0.11866 0.43305 0.25193 0.0
H193 H 0.11779 0.48859 0.23379 0.0
H194 H 0.21823 0.5258 0.17058 0.0
H195 H 0.21974 0.46997 0.18968 0.0
H196 H 0.22389 0.5794 0.21424 0.0
H197 H 0.1353 0.50161 0.12478 0.0
H198 H 0.08123 0.44562 0.09984 0.0
H199 H 0.0109 0.46323 0.1751 0.0
H200 H 0.06458 0.51897 0.20101 0.0
H201 H 0.20477 0.73873 0.18813 0.0
H202 H 0.20617 0.68326 0.16778 0.0
H203 H 0.11708 0.61736 0.24428 0.0
H204 H 0.1155 0.6724 0.26473 0.0
H205 H 0.11128 0.58161 0.17503 0.0
H206 H 0.20435 0.65219 0.27201 0.0
H207 H 0.25932 0.70808 0.29589 0.0
H208 H 0.32241 0.70347 0.20217 0.0
H209 H 0.26761 0.64792 0.17735 0.0
C210 C 0.14032 0.45267 0.23362 0.0
C211 C 0.16931 0.44703 0.22231 0.0
C212 C 0.13962 0.48442 0.22295 0.0
C213 C 0.16765 0.51134 0.20032 0.0
C214 C 0.19611 0.50532 0.18781 0.0
C215 C 0.19681 0.47328 0.1985 0.0
C216 C 0.16841 0.5469 0.19317 0.0
C217 C 0.19958 0.57993 0.20464 0.0
C218 C 0.13669 0.54785 0.18071 0.0
C219 C 0.10409 0.51451 0.16495 0.0
C220 C 0.10835 0.49346 0.13619 0.0
C221 C 0.07775 0.46175 0.12187 0.0
C222 C 0.04267 0.45087 0.13589 0.0
C223 C 0.0381 0.47172 0.16424 0.0
C224 C 0.06861 0.50343 0.17871 0.0
C225 C 0.18489 0.7123 0.19994 0.0
C226 C 0.16021 0.71006 0.22831 0.0
C227 C 0.18586 0.68065 0.1884 0.0
C228 C 0.16199 0.64623 0.20482 0.0
C229 C 0.13577 0.64361 0.23125 0.0
C230 C 0.13503 0.67518 0.24305 0.0
C231 C 0.16615 0.61342 0.19758 0.0
C232 C 0.13587 0.58102 0.18352 0.0
C233 C 0.1988 0.61309 0.20728 0.0
C234 C 0.23176 0.64625 0.22251 0.0
C235 C 0.22986 0.6633 0.25631 0.0
C236 C 0.26099 0.69489 0.27003 0.0
C237 C 0.2943 0.70939 0.25047 0.0
C238 C 0.29656 0.69227 0.21722 0.0
C239 C 0.26548 0.66076 0.2033 0.0
H240 H 0.31839 0.7338 0.26114 0.0
H241 H 0.01902 0.42633 0.12476 0.0
H242 H 0.41796 0.10027 0.72453 0.0
H243 H 0.47087 0.09102 0.71767 0.0
H244 H 0.54168 0.20821 0.70217 0.0
H245 H 0.48837 0.21726 0.70785 0.0
H246 H 0.56908 0.16783 0.6656 0.0
H247 H 0.52346 0.17579 0.78947 0.0
H248 H 0.47519 0.15738 0.83814 0.0
H249 H 0.45903 0.04748 0.83845 0.0
H250 H 0.5068 0.06512 0.78924 0.0
H251 H 0.70866 0.18421 0.81694 0.0
H252 H 0.64947 0.17778 0.79921 0.0
H253 H 0.64235 0.11013 0.70312 0.0
H254 H 0.70189 0.11663 0.72047 0.0
H255 H 0.58117 0.12071 0.79131 0.0
H256 H 0.60567 0.13152 0.63053 0.0
H257 H 0.65733 0.159 0.58499 0.0
H258 H 0.72182 0.24514 0.66498 0.0
H259 H 0.67097 0.21797 0.71118 0.0
C260 C 0.44455 0.12374 0.71772 0.0
C261 C 0.44934 0.15943 0.71664 0.0
C262 C 0.47476 0.11849 0.714 0.0
C263 C 0.51028 0.14902 0.71029 0.0
C264 C 0.5145 0.18428 0.70504 0.0
C265 C 0.48409 0.18946 0.70818 0.0
C266 C 0.54285 0.14526 0.71926 0.0
C267 C 0.57151 0.15702 0.69282 0.0
C268 C 0.5465 0.13209 0.75523 0.0
C269 C 0.51838 0.12165 0.78541 0.0
C270 C 0.50946 0.14765 0.79978 0.0
C271 C 0.4822 0.13736 0.82745 0.0
C272 C 0.46398 0.10126 0.84131 0.0
C273 C 0.4731 0.07541 0.82763 0.0
C274 C 0.50026 0.08554 0.79985 0.0
C275 C 0.69433 0.16751 0.79232 0.0
C276 C 0.71012 0.15107 0.77007 0.0
C277 C 0.66046 0.16386 0.78223 0.0
C278 C 0.64175 0.14391 0.74957 0.0
C279 C 0.65659 0.12607 0.72816 0.0
C280 C 0.69046 0.12955 0.73835 0.0
C281 C 0.60736 0.14301 0.73759 0.0
C282 C 0.57836 0.13054 0.76363 0.0
C283 C 0.60391 0.15644 0.70174 0.0
C284 C 0.63469 0.17257 0.67432 0.0
C285 C 0.63096 0.15626 0.63839 0.0
C286 C 0.66012 0.17168 0.61256 0.0
C287 C 0.69291 0.2036 0.62222 0.0
C288 C 0.69663 0.22019 0.65773 0.0
C289 C 0.66771 0.20473 0.68379 0.0
H290 H 0.71537 0.21558 0.60212 0.0
H291 H 0.44286 0.09333 0.86271 0.0
H292 H 0.27372 0.46123 0.34232 0.0
H293 H 0.33434 0.51545 0.34902 0.0
H294 H 0.37302 0.47999 0.2532 0.0
H295 H 0.31159 0.42528 0.2456 0.0
H296 H 0.42501 0.51604 0.32314 0.0
H297 H 0.34985 0.5334 0.22938 0.0
H298 H 0.29182 0.52908 0.20775 0.0
H299 H 0.29821 0.60069 0.29882 0.0
H300 H 0.35588 0.60471 0.32157 0.0
H301 H 0.57007 0.683 0.25274 0.0
H302 H 0.51722 0.62289 0.26626 0.0
H303 H 0.47182 0.67432 0.33767 0.0
H304 H 0.52502 0.73527 0.32371 0.0
H305 H 0.42277 0.62947 0.28573 0.0
H306 H 0.50083 0.61826 0.37598 0.0
H307 H 0.55721 0.62109 0.40087 0.0
H308 H 0.54549 0.53864 0.32013 0.0
H309 H 0.48934 0.53571 0.2943 0.0
C310 C 0.2951 0.4645 0.32283 0.0
C311 C 0.28755 0.43927 0.29283 0.0
C312 C 0.32982 0.49546 0.32695 0.0
C313 C 0.35787 0.50181 0.30139 0.0
C314 C 0.35154 0.47539 0.2732 0.0
C315 C 0.31647 0.44426 0.26884 0.0
C316 C 0.39193 0.53815 0.30164 0.0
C317 C 0.42485 0.54087 0.31449 0.0
C318 C 0.39104 0.57049 0.29171 0.0
C319 C 0.35692 0.56895 0.27747 0.0
C320 C 0.3387 0.54794 0.24502 0.0
C321 C 0.3059 0.54557 0.23254 0.0
C322 C 0.29127 0.56446 0.25202 0.0
C323 C 0.30953 0.58597 0.28386 0.0
C324 C 0.34227 0.58829 0.29656 0.0
C325 C 0.54915 0.68157 0.27183 0.0
C326 C 0.55153 0.71389 0.28694 0.0
C327 C 0.51905 0.64708 0.27978 0.0
C328 C 0.49063 0.64401 0.30314 0.0
C329 C 0.49356 0.67609 0.31964 0.0
C330 C 0.52399 0.71083 0.31185 0.0
C331 C 0.45649 0.60771 0.30678 0.0
C332 C 0.42325 0.60486 0.29464 0.0
C333 C 0.45718 0.57536 0.31755 0.0
C334 C 0.49098 0.57698 0.33298 0.0
C335 C 0.51043 0.60095 0.36329 0.0
C336 C 0.54233 0.60253 0.37762 0.0
C337 C 0.55496 0.58012 0.36204 0.0
C338 C 0.53568 0.55601 0.33215 0.0
C339 C 0.50378 0.55434 0.31768 0.0
H340 H 0.57966 0.58138 0.37318 0.0
H341 H 0.26581 0.56245 0.24241 0.0
H342 H 0.7777 0.25273 0.69497 0.0
H343 H 0.77723 0.30989 0.67911 0.0
H344 H 0.87872 0.37315 0.74146 0.0
H345 H 0.87872 0.31656 0.75793 0.0
H346 H 0.82751 0.38726 0.76646 0.0
H347 H 0.87257 0.37676 0.64246 0.0
H348 H 0.86883 0.34461 0.58226 0.0
H349 H 0.76624 0.33915 0.55542 0.0
H350 H 0.76917 0.3709 0.6157 0.0
H351 H 0.88598 0.56924 0.74114 0.0
H352 H 0.88421 0.51127 0.7264 0.0
H353 H 0.77609 0.46825 0.67717 0.0
H354 H 0.77813 0.52694 0.69118 0.0
H355 H 0.82124 0.43999 0.64211 0.0
H356 H 0.77609 0.45114 0.76366 0.0
H357 H 0.7784 0.48303 0.82357 0.0
H358 H 0.87801 0.48444 0.85561 0.0
H359 H 0.87667 0.45316 0.79551 0.0
C360 C 0.80028 0.279 0.70438 0.0
C361 C 0.828 0.28022 0.72799 0.0
C362 C 0.80001 0.31161 0.69537 0.0
C363 C 0.82781 0.34586 0.70936 0.0
C364 C 0.85677 0.34709 0.73067 0.0
C365 C 0.85678 0.3147 0.74001 0.0
C366 C 0.82541 0.38008 0.70559 0.0
C367 C 0.82651 0.39884 0.73917 0.0
C368 C 0.8224 0.3945 0.67015 0.0
C369 C 0.82092 0.37588 0.63373 0.0
C370 C 0.8491 0.36849 0.62383 0.0
C371 C 0.84714 0.35038 0.58968 0.0
C372 C 0.81727 0.33976 0.56508 0.0
C373 C 0.78934 0.34735 0.57452 0.0
C374 C 0.79116 0.36544 0.60865 0.0
C375 C 0.8624 0.54794 0.72593 0.0
C376 C 0.83211 0.55244 0.71755 0.0
C377 C 0.86139 0.51483 0.71751 0.0
C378 C 0.82976 0.48524 0.7013 0.0
C379 C 0.80078 0.49076 0.68963 0.0
C380 C 0.802 0.52429 0.69762 0.0
C381 C 0.82506 0.4476 0.7029 0.0
C382 C 0.82213 0.42813 0.66924 0.0
C383 C 0.82599 0.43206 0.73833 0.0
C384 C 0.82642 0.45005 0.77496 0.0
C385 C 0.79861 0.45844 0.78338 0.0
C386 C 0.79974 0.47641 0.81737 0.0
C387 C 0.82837 0.48581 0.84335 0.0
C388 C 0.85586 0.47716 0.83544 0.0
C389 C 0.85492 0.45929 0.80143 0.0
H390 H 0.82922 0.49974 0.86964 0.0
H391 H 0.81579 0.32571 0.53867 0.0
H392 H 0.3056 0.89068 0.25773 0.0
H393 H 0.36906 0.90294 0.25314 0.0
H394 H 0.33481 0.79374 0.29572 0.0
H395 H 0.27209 0.78192 0.30173 0.0
H396 H 0.39815 0.83811 0.3243 0.0
H397 H 0.34698 0.81532 0.19696 0.0
H398 H 0.3151 0.82763 0.14479 0.0
H399 H 0.40351 0.93979 0.13878 0.0
H400 H 0.43584 0.92814 0.19102 0.0
H401 H 0.52887 0.81209 0.19414 0.0
H402 H 0.47574 0.82064 0.20067 0.0
H403 H 0.52888 0.89605 0.29407 0.0
H404 H 0.58205 0.88709 0.28832 0.0
H405 H 0.4593 0.87484 0.19851 0.0
H406 H 0.46558 0.87779 0.36238 0.0
H407 H 0.49169 0.858 0.41421 0.0
H408 H 0.48482 0.77082 0.3435 0.0
H409 H 0.45828 0.78983 0.2915 0.0
C410 C 0.31172 0.86944 0.26638 0.0
C411 C 0.28373 0.8353 0.27997 0.0
C412 C 0.34798 0.87641 0.26363 0.0
C413 C 0.35673 0.84903 0.27346 0.0
C414 C 0.32892 0.81535 0.28796 0.0
C415 C 0.29293 0.80861 0.29131 0.0
C416 C 0.39419 0.85431 0.26707 0.0
C417 C 0.41163 0.84652 0.29689 0.0
C418 C 0.41168 0.8646 0.23115 0.0
C419 C 0.39368 0.87094 0.19799 0.0
C420 C 0.35968 0.84255 0.18435 0.0
C421 C 0.34151 0.84942 0.15482 0.0
C422 C 0.35722 0.88449 0.13854 0.0
C423 C 0.39139 0.91263 0.15137 0.0
C424 C 0.4097 0.90589 0.18088 0.0
C425 C 0.52962 0.83095 0.21578 0.0
C426 C 0.55962 0.84845 0.24109 0.0
C427 C 0.4992 0.83596 0.2193 0.0
C428 C 0.49802 0.85854 0.24821 0.0
C429 C 0.52894 0.87806 0.27188 0.0
C430 C 0.5594 0.87297 0.26847 0.0
C431 C 0.46312 0.85857 0.25575 0.0
C432 C 0.44613 0.86718 0.22612 0.0
C433 C 0.4454 0.8478 0.2915 0.0
C434 C 0.46036 0.83552 0.32297 0.0
C435 C 0.4695 0.85431 0.358 0.0
C436 C 0.48441 0.84325 0.38738 0.0
C437 C 0.49005 0.81327 0.3821 0.0
C438 C 0.48058 0.79413 0.34752 0.0
C439 C 0.46562 0.80504 0.31809 0.0
H440 H 0.50167 0.80482 0.40484 0.0
H441 H 0.34282 0.88985 0.11609 0.0
H442 H 0.46477 0.28563 0.82354 0.0
H443 H 0.51389 0.34968 0.82122 0.0
H444 H 0.47485 0.36245 0.71179 0.0
H445 H 0.42518 0.29766 0.71384 0.0
H446 H 0.54956 0.38739 0.71243 0.0
H447 H 0.46612 0.40659 0.78692 0.0
H448 H 0.42166 0.39425 0.83839 0.0
H449 H 0.50527 0.41667 0.92184 0.0
H450 H 0.55013 0.42857 0.87089 0.0
H451 H 0.69649 0.57473 0.72065 0.0
H452 H 0.63273 0.52375 0.71739 0.0
H453 H 0.64793 0.48093 0.82322 0.0
H454 H 0.71153 0.53141 0.82658 0.0
H455 H 0.57911 0.47729 0.81774 0.0
H456 H 0.65746 0.44585 0.74484 0.0
H457 H 0.70294 0.45661 0.69492 0.0
H458 H 0.62894 0.45593 0.60979 0.0
H459 H 0.58323 0.44579 0.65937 0.0
C460 C 0.46625 0.30209 0.79911 0.0
C461 C 0.44112 0.28647 0.76879 0.0
C462 C 0.49429 0.33884 0.79794 0.0
C463 C 0.49795 0.361 0.76646 0.0
C464 C 0.47243 0.34586 0.73642 0.0
C465 C 0.44399 0.30895 0.73773 0.0
C466 C 0.53005 0.39903 0.7644 0.0
C467 C 0.55552 0.40746 0.73489 0.0
C468 C 0.53824 0.42494 0.79415 0.0
C469 C 0.51149 0.41831 0.825 0.0
C470 C 0.475 0.40868 0.81624 0.0
C471 C 0.44972 0.40178 0.84534 0.0
C472 C 0.46062 0.40462 0.88336 0.0
C473 C 0.49687 0.41448 0.89237 0.0
C474 C 0.52226 0.42137 0.86338 0.0
C475 C 0.68607 0.55476 0.74351 0.0
C476 C 0.70918 0.55695 0.77373 0.0
C477 C 0.64968 0.52563 0.74155 0.0
C478 C 0.63569 0.49846 0.76996 0.0
C479 C 0.65815 0.50162 0.80103 0.0
C480 C 0.69458 0.53038 0.80277 0.0
C481 C 0.59871 0.46518 0.76621 0.0
C482 C 0.57256 0.45761 0.79474 0.0
C483 C 0.58994 0.43996 0.73571 0.0
C484 C 0.61714 0.44554 0.70583 0.0
C485 C 0.65101 0.4483 0.7155 0.0
C486 C 0.67681 0.45424 0.68728 0.0
C487 C 0.66887 0.45707 0.64922 0.0
C488 C 0.63507 0.45382 0.6393 0.0
C489 C 0.60921 0.44798 0.66744 0.0
H490 H 0.68888 0.46167 0.6274 0.0
H491 H 0.44099 0.39923 0.90585 0.0
H492 H 0.13909 0.19661 0.35027 0.0
H493 H 0.14742 0.15203 0.38758 0.0
H494 H 0.24129 0.17375 0.31903 0.0
H495 H 0.23318 0.2182 0.28156 0.0
H496 H 0.13911 0.09077 0.35646 0.0
H497 H 0.30247 0.15996 0.37058 0.0
H498 H 0.35358 0.21784 0.39611 0.0
H499 H 0.27717 0.23852 0.45722 0.0
H500 H 0.22557 0.18052 0.43281 0.0
H501 H 0.2305 0.0099 0.27763 0.0
H502 H 0.23924 0.06432 0.3121 0.0
H503 H 0.17723 0.9963 0.40657 0.0
H504 H 0.16841 0.94148 0.37257 0.0
H505 H 0.25774 0.0996 0.39282 0.0
H506 H 0.11157 0.01163 0.41098 0.0
H507 H 0.05957 0.95112 0.39127 0.0
H508 H 0.10005 0.9702 0.27666 0.0
H509 H 0.15208 0.03083 0.29578 0.0
C510 C 0.16187 0.19232 0.34345 0.0
C511 C 0.18506 0.21039 0.31238 0.0
C512 C 0.16671 0.16704 0.36505 0.0
C513 C 0.19514 0.15985 0.35635 0.0
C514 C 0.21953 0.17936 0.32671 0.0
C515 C 0.2145 0.20433 0.30486 0.0
C516 C 0.19564 0.12754 0.37271 0.0
C517 C 0.16465 0.09279 0.36615 0.0
C518 C 0.22871 0.13 0.3859 0.0
C519 C 0.25993 0.16568 0.39962 0.0
C520 C 0.29644 0.17666 0.3896 0.0
C521 C 0.32557 0.2096 0.40389 0.0
C522 C 0.31862 0.23184 0.42828 0.0
C523 C 0.28252 0.22135 0.43824 0.0
C524 C 0.2533 0.18849 0.42404 0.0
C525 C 0.2195 0.00647 0.30612 0.0
C526 C 0.19753 0.97119 0.32166 0.0
C527 C 0.2251 0.03772 0.32607 0.0
C528 C 0.20863 0.03413 0.36167 0.0
C529 C 0.19016 0.99949 0.37911 0.0
C530 C 0.1847 0.96817 0.35927 0.0
C531 C 0.20209 0.06401 0.37414 0.0
C532 C 0.23184 0.098 0.38556 0.0
C533 C 0.16755 0.06096 0.36683 0.0
C534 C 0.13544 0.02559 0.35475 0.0
C535 C 0.10909 0.00295 0.38154 0.0
C536 C 0.07972 0.96864 0.37051 0.0
C537 C 0.0765 0.95682 0.33273 0.0
C538 C 0.10254 0.97938 0.30588 0.0
C539 C 0.1319 0.01372 0.31677 0.0
H540 H 0.05384 0.9302 0.32429 0.0
H541 H 0.34121 0.25714 0.43955 0.0
H542 H 0.95974 0.20998 0.78947 0.0
H543 H 0.02069 0.22148 0.80868 0.0
H544 H -0.0002 0.12056 0.75351 0.0
H545 H 0.9393 0.10899 0.73357 0.0
H546 H 0.0208 0.12894 0.83429 0.0
H547 H 0.05356 0.20081 0.71437 0.0
H548 H 0.06005 0.25303 0.67591 0.0
H549 H 0.12961 0.32928 0.76185 0.0
H550 H 0.12317 0.27765 0.80101 0.0
H551 H 0.17042 0.10871 0.79543 0.0
H552 H 0.11624 0.11339 0.8097 0.0
H553 H 0.18539 0.23003 0.83288 0.0
H554 H 0.2396 0.22542 0.81564 0.0
H555 H 0.14149 0.2248 0.7847 0.0
H556 H 0.11623 0.16412 0.90318 0.0
H557 H 0.11158 0.11892 0.95108 0.0
H558 H 0.02991 0.03051 0.88283 0.0
H559 H 0.03463 0.07521 0.83428 0.0
C560 C 0.96836 0.19055 0.78085 0.0
C561 C 0.94455 0.15837 0.76028 0.0
C562 C 0.00308 0.19712 0.79203 0.0
C563 C 0.01424 0.17154 0.78292 0.0
C564 C 0.99129 0.14036 0.76102 0.0
C565 C 0.95684 0.13394 0.74951 0.0
C566 C 0.04906 0.17587 0.79739 0.0
C567 C 0.04735 0.14977 0.82352 0.0
C568 C 0.08349 0.20448 0.78505 0.0
C569 C 0.08733 0.23526 0.76094 0.0
C570 C 0.06987 0.22867 0.72527 0.0
C571 C 0.07366 0.25822 0.70328 0.0
C572 C 0.09512 0.29442 0.71657 0.0
C573 C 0.11291 0.30121 0.75171 0.0
C574 C 0.10918 0.27183 0.77378 0.0
C575 C 0.17394 0.13499 0.80491 0.0
C576 C 0.20861 0.16676 0.80428 0.0
C577 C 0.143 0.13768 0.81357 0.0
C578 C 0.1465 0.17209 0.82267 0.0
C579 C 0.18189 0.20323 0.82571 0.0
C580 C 0.2128 0.20067 0.81602 0.0
C581 C 0.11362 0.17657 0.82052 0.0
C582 C 0.11535 0.2043 0.79655 0.0
C583 C 0.07932 0.1502 0.83593 0.0
C584 C 0.07616 0.12304 0.86495 0.0
C585 C 0.09762 0.13502 0.89824 0.0
C586 C 0.09487 0.10949 0.92555 0.0
C587 C 0.07054 0.07184 0.91995 0.0
C588 C 0.04879 0.05968 0.88711 0.0
C589 C 0.05145 0.08512 0.85973 0.0
H590 H 0.06846 0.0521 0.94111 0.0
H591 H 0.09824 0.31736 0.69971 0.0
H592 H 0.08251 0.19606 0.17313 0.0
H593 H 0.02049 0.15272 0.15134 0.0
H594 H 0.97599 0.1939 0.23649 0.0
H595 H 0.03833 0.23842 0.25775 0.0
H596 H 0.98147 0.10212 0.20293 0.0
H597 H 0.90594 0.18018 0.22212 0.0
H598 H 0.89545 0.2292 0.19637 0.0
H599 H 0.92626 0.21198 0.08502 0.0
H600 H 0.93817 0.16386 0.11052 0.0
H601 H 0.78943 0.00951 0.27483 0.0
H602 H 0.84198 0.06562 0.25089 0.0
H603 H 0.8579 0.00281 0.16303 0.0
H604 H 0.80524 0.94632 0.18654 0.0
H605 H 0.86527 0.10372 0.1819 0.0
H606 H 0.95159 0.03354 0.16359 0.0
H607 H 0.95158 0.97686 0.1833 0.0
H608 H 0.89482 0.97339 0.28606 0.0
H609 H 0.89547 0.03062 0.26749 0.0
C610 C 0.05959 0.19658 0.18667 0.0
C611 C 0.0652 0.21986 0.21794 0.0
C612 C 0.02416 0.17211 0.17378 0.0
C613 C 0.9936 0.17 0.19227 0.0
C614 C 0.99917 0.19543 0.22135 0.0
C615 C 0.0348 0.22043 0.23395 0.0
C616 C 0.95754 0.13593 0.18853 0.0
C617 C 0.95618 0.10244 0.19719 0.0
C618 C 0.92444 0.13617 0.18191 0.0
C619 C 0.92359 0.16909 0.16831 0.0
C620 C 0.9113 0.18756 0.19235 0.0
C621 C 0.90492 0.215 0.17778 0.0
C622 C 0.90998 0.22354 0.13904 0.0
C623 C 0.92226 0.20527 0.11499 0.0
C624 C 0.92943 0.17838 0.12961 0.0
C625 C 0.80371 0.00759 0.25007 0.0
C626 C 0.79373 0.97331 0.23322 0.0
C627 C 0.83346 0.03976 0.23618 0.0
C628 C 0.8538 0.03811 0.20546 0.0
C629 C 0.84241 0.00443 0.18682 0.0
C630 C 0.8125 0.9722 0.20054 0.0
C631 C 0.88958 0.0706 0.19679 0.0
C632 C 0.89079 0.10351 0.18636 0.0
C633 C 0.92265 0.06983 0.20169 0.0
C634 C 0.92311 0.03604 0.21384 0.0
C635 C 0.93926 0.02075 0.19046 0.0
C636 C 0.93915 0.98854 0.20144 0.0
C637 C 0.92296 0.97137 0.23577 0.0
C638 C 0.9072 0.98661 0.25939 0.0
C639 C 0.90749 0.01898 0.24868 0.0
H640 H 0.92279 0.94638 0.24417 0.0
H641 H 0.90468 0.24453 0.12771 0.0
H642 H 0.77547 0.9908 0.77724 0.0
H643 H 0.7646 0.93703 0.81419 0.0
H644 H 0.84776 0.00748 0.89516 0.0
H645 H 0.85881 0.06164 0.85842 0.0
H646 H 0.86136 0.95629 0.86464 0.0
H647 H 0.76439 0.95208 0.93271 0.0
H648 H 0.70937 0.9569 0.94672 0.0
H649 H 0.64576 0.86863 0.86845 0.0
H650 H 0.7003 0.86306 0.85392 0.0
H651 H 0.83521 0.77915 0.87203 0.0
H652 H 0.82664 0.82498 0.90678 0.0
H653 H 0.75785 0.82611 0.81594 0.0
H654 H 0.76595 0.78035 0.78116 0.0
H655 H 0.74059 0.8445 0.88868 0.0
H656 H 0.84833 0.87292 0.80614 0.0
H657 H 0.90236 0.86586 0.7936 0.0
H658 H 0.94734 0.91272 0.90304 0.0
H659 H 0.89258 0.91836 0.91692 0.0
C660 C 0.79121 0.99496 0.80309 0.0
C661 C 0.8185 0.03042 0.81442 0.0
C662 C 0.78451 0.96424 0.8246 0.0
C663 C 0.80507 0.96835 0.85771 0.0
C664 C 0.83135 0.0038 0.86995 0.0
C665 C 0.83781 0.03463 0.84866 0.0
C666 C 0.80355 0.93528 0.87458 0.0
C667 C 0.83523 0.93217 0.87163 0.0
C668 C 0.7696 0.90395 0.88403 0.0
C669 C 0.73655 0.90717 0.89219 0.0
C670 C 0.73874 0.93379 0.91829 0.0
C671 C 0.70761 0.93664 0.9264 0.0
C672 C 0.67416 0.91323 0.9084 0.0
C673 C 0.6717 0.88675 0.88239 0.0
C674 C 0.70268 0.88359 0.87435 0.0
C675 C 0.81752 0.78846 0.85982 0.0
C676 C 0.80251 0.7773 0.82304 0.0
C677 C 0.81227 0.81427 0.88004 0.0
C678 C 0.79215 0.8293 0.86359 0.0
C679 C 0.77356 0.81487 0.82908 0.0
C680 C 0.77879 0.78917 0.80887 0.0
C681 C 0.79782 0.86552 0.876 0.0
C682 C 0.76703 0.86912 0.88423 0.0
C683 C 0.83272 0.89756 0.87177 0.0
C684 C 0.86623 0.89559 0.86277 0.0
C685 C 0.86967 0.88153 0.82759 0.0
C686 C 0.90035 0.87769 0.82028 0.0
C687 C 0.92834 0.88895 0.84744 0.0
C688 C 0.9256 0.90394 0.88205 0.0
C689 C 0.89464 0.90724 0.88976 0.0
H690 H 0.95213 0.88605 0.84168 0.0
H691 H 0.65014 0.91558 0.91466 0.0
H692 H 0.83023 0.9015 0.2948 0.0
H693 H 0.8814 0.88961 0.29079 0.0
H694 H 0.8054 0.77334 0.27598 0.0
H695 H 0.75336 0.78522 0.27876 0.0
H696 H 0.87771 0.80681 0.33421 0.0
H697 H 0.83265 0.79673 0.20704 0.0
H698 H 0.80953 0.81494 0.15179 0.0
H699 H 0.91096 0.91791 0.14568 0.0
H700 H 0.93461 0.90051 0.20163 0.0
H701 H 0.03743 0.79424 0.28339 0.0
H702 H 0.97392 0.7819 0.28741 0.0
H703 H 0.00924 0.89272 0.24927 0.0
H704 H 0.07208 0.90474 0.24397 0.0
H705 H 0.94896 0.84751 0.21436 0.0
H706 H 0.99152 0.86335 0.34475 0.0
H707 H 0.01496 0.84907 0.40295 0.0
H708 H 0.91988 0.74063 0.40576 0.0
H709 H 0.8962 0.75396 0.34711 0.0
C710 C 0.82421 0.87327 0.29109 0.0
C711 C 0.78775 0.84425 0.28693 0.0
C712 C 0.85354 0.86658 0.28882 0.0
C713 C 0.84711 0.8307 0.28301 0.0
C714 C 0.81076 0.80125 0.28048 0.0
C715 C 0.7812 0.80806 0.28183 0.0
C716 C 0.87903 0.8253 0.27695 0.0
C717 C 0.893 0.81485 0.30782 0.0
C718 C 0.89914 0.83664 0.24267 0.0
C719 C 0.88519 0.84745 0.20898 0.0
C720 C 0.84983 0.82355 0.19443 0.0
C721 C 0.83665 0.8337 0.16284 0.0
C722 C 0.85861 0.86772 0.14534 0.0
C723 C 0.89391 0.89161 0.15937 0.0
C724 C 0.90726 0.88156 0.191 0.0
C725 C 0.03158 0.8159 0.27572 0.0
C726 C 0.0599 0.85049 0.26331 0.0
C727 C 0.99528 0.80886 0.2782 0.0
C728 C 0.98673 0.83646 0.26894 0.0
C729 C 0.01498 0.87086 0.25637 0.0
C730 C 0.05104 0.87774 0.25345 0.0
C731 C 0.94861 0.83013 0.27216 0.0
C732 C 0.93351 0.83867 0.24067 0.0
C733 C 0.92779 0.81756 0.30614 0.0
C734 C 0.94237 0.80945 0.34114 0.0
C735 C 0.97582 0.83629 0.35748 0.0
C736 C 0.98912 0.82839 0.39061 0.0
C737 C 0.96896 0.79392 0.40796 0.0
C738 C 0.93551 0.76727 0.3922 0.0
C739 C 0.92217 0.77496 0.359 0.0
H740 H 0.97912 0.7879 0.43373 0.0
H741 H 0.84833 0.87549 0.12083 0.0
H742 H 0.22351 0.04219 0.80853 0.0
H743 H 0.16886 0.98068 0.81226 0.0
H744 H 0.1536 0.9818 0.69078 0.0
H745 H 0.20706 0.04385 0.68751 0.0
H746 H 0.0949 0.9705 0.72649 0.0
H747 H 0.17727 0.92084 0.73851 0.0
H748 H 0.22837 0.9167 0.76842 0.0
H749 H 0.17044 0.88665 0.87461 0.0
H750 H 0.11925 0.89125 0.84553 0.0
H751 H 0.9378 0.80102 0.69875 0.0
H752 H 0.00175 0.85073 0.69758 0.0
H753 H 0.0114 0.83651 0.81796 0.0
H754 H 0.94795 0.78452 0.81831 0.0
H755 H 0.07342 0.8544 0.78718 0.0
H756 H 0.99557 0.90878 0.78056 0.0
H757 H 0.94624 0.91928 0.75608 0.0
H758 H 0.99605 0.94394 0.64564 0.0
H759 H 0.04594 0.93416 0.66949 0.0
C760 C 0.20908 0.02864 0.78256 0.0
C761 C 0.21923 0.04744 0.74772 0.0
C762 C 0.17789 0.99353 0.78467 0.0
C763 C 0.15709 0.97656 0.75177 0.0
C764 C 0.16909 0.99442 0.71655 0.0
C765 C 0.19964 0.02974 0.71462 0.0
C766 C 0.12034 0.94294 0.7543 0.0
C767 C 0.0904 0.9449 0.73913 0.0
C768 C 0.11411 0.9102 0.77266 0.0
C769 C 0.14455 0.90667 0.78989 0.0
C770 C 0.17552 0.91358 0.7683 0.0
C771 C 0.20451 0.91116 0.78512 0.0
C772 C 0.20272 0.90158 0.82344 0.0
C773 C 0.17185 0.8942 0.84498 0.0
C774 C 0.14282 0.89666 0.82832 0.0
C775 C 0.95381 0.80827 0.72478 0.0
C776 C 0.93815 0.78935 0.75863 0.0
C777 C 0.99022 0.83687 0.72424 0.0
C778 C 0.01111 0.84829 0.75797 0.0
C779 C 0.99581 0.82843 0.79163 0.0
C780 C 0.95963 0.79886 0.79187 0.0
C781 C 0.04827 0.88169 0.75808 0.0
C782 C 0.07809 0.87992 0.77422 0.0
C783 C 0.05455 0.91508 0.74121 0.0
C784 C 0.02426 0.92041 0.72672 0.0
C785 C 0.99584 0.91621 0.75101 0.0
C786 C 0.96784 0.92208 0.73728 0.0
C787 C 0.96784 0.93192 0.69931 0.0
C788 C 0.99602 0.93622 0.67502 0.0
C789 C 0.02426 0.93071 0.68866 0.0
H790 H 0.94609 0.93638 0.68876 0.0
H791 H 0.22521 0.89977 0.83642 0.0
H792 H 0.30282 0.32892 0.16726 0.0
H793 H 0.32735 0.31834 0.10862 0.0
H794 H 0.25369 0.34072 0.04293 0.0
H795 H 0.22899 0.35133 0.10202 0.0
H796 H 0.24704 0.27619 0.02175 0.0
H797 H 0.34829 0.39739 0.03812 0.0
H798 H 0.39915 0.45007 0.07159 0.0
H799 H 0.45285 0.38666 0.08973 0.0
H800 H 0.40202 0.33336 0.05685 0.0
H801 H 0.30963 0.24487 0.84686 0.0
H802 H 0.29868 0.27698 0.89874 0.0
H803 H 0.36768 0.25509 0.97277 0.0
H804 H 0.37949 0.22339 0.92046 0.0
H805 H 0.37754 0.32367 0.98668 0.0
H806 H 0.27284 0.20098 0.97429 0.0
H807 H 0.22389 0.15018 0.93683 0.0
H808 H 0.17744 0.21864 0.90958 0.0
H809 H 0.2264 0.26997 0.94635 0.0
C810 C 0.29297 0.33321 0.14029 0.0
C811 C 0.26441 0.34171 0.13944 0.0
C812 C 0.30689 0.32688 0.1066 0.0
C813 C 0.29251 0.32861 0.07096 0.0
C814 C 0.26539 0.33918 0.06991 0.0
C815 C 0.25169 0.34592 0.10374 0.0
C816 C 0.30329 0.3159 0.03563 0.0
C817 C 0.2756 0.28718 1.0138 0.0
C818 C 0.34055 0.32933 0.02533 0.0
C819 C 0.37114 0.36124 0.0453 0.0
C820 C 0.37077 0.39454 0.04955 0.0
C821 C 0.39963 0.42455 0.06835 0.0
C822 C 0.42917 0.42168 0.08286 0.0
C823 C 0.42993 0.38882 0.07852 0.0
C824 C 0.40111 0.35871 0.05976 0.0
C825 C 0.3229 0.24712 0.87401 0.0
C826 C 0.34529 0.2311 0.87932 0.0
C827 C 0.31644 0.26548 0.90385 0.0
C828 C 0.33169 0.268 0.94017 0.0
C829 C 0.35539 0.2535 0.94518 0.0
C830 C 0.36209 0.23527 0.91517 0.0
C831 C 0.32133 0.28393 0.97317 0.0
C832 C 0.34903 0.31299 0.99461 0.0
C833 C 0.28407 0.27091 0.98314 0.0
C834 C 0.25345 0.23941 0.96279 0.0
C835 C 0.25217 0.20518 0.96027 0.0
C836 C 0.22446 0.1763 0.93912 0.0
C837 C 0.19765 0.18119 0.92069 0.0
C838 C 0.19822 0.21484 0.92378 0.0
C839 C 0.22594 0.24384 0.94481 0.0
H840 H 0.17653 0.15892 0.90396 0.0
H841 H 0.4515 0.44495 0.0974 0.0
H842 H 0.93277 0.17587 0.65634 0.0
H843 H 0.97173 0.20427 0.60048 0.0
H844 H 0.90107 0.24631 0.56512 0.0
H845 H 0.86274 0.21899 0.62205 0.0
H846 H 0.91623 0.20712 0.50607 0.0
H847 H 0.97727 0.30464 0.59192 0.0
H848 H 0.00949 0.34133 0.64858 0.0
H849 H 0.09716 0.31797 0.63058 0.0
H850 H 0.06457 0.27951 0.57505 0.0
H851 H 0.05356 0.32852 0.3637 0.0
H852 H 0.01047 0.30767 0.41747 0.0
H853 H 0.05372 0.23904 0.45622 0.0
H854 H 0.09597 0.25873 0.40213 0.0
H855 H 0.05002 0.29701 0.51147 0.0
H856 H 0.9799 0.19313 0.42545 0.0
H857 H 0.9491 0.16622 0.36431 0.0
H858 H 0.87935 0.21331 0.37931 0.0
H859 H 0.91021 0.24104 0.44029 0.0
C860 C 0.92607 0.19193 0.63711 0.0
C861 C 0.89504 0.19569 0.64386 0.0
C862 C 0.94825 0.20802 0.60508 0.0
C863 C 0.93938 0.22739 0.57836 0.0
C864 C 0.90854 0.23152 0.58524 0.0
C865 C 0.88686 0.21624 0.61795 0.0
C866 C 0.96176 0.24196 0.54284 0.0
C867 C 0.94539 0.22712 0.50733 0.0
C868 C -0.00013 0.26818 0.54409 0.0
C869 C 0.0181 0.28862 0.57952 0.0
C870 C 0.0029 0.30641 0.60062 0.0
C871 C 0.0213 0.32764 0.63256 0.0
C872 C 0.05524 0.33184 0.64336 0.0
C873 C 0.07069 0.31448 0.62247 0.0
C874 C 0.05215 0.29276 0.59086 0.0
C875 C 0.05357 0.30859 0.38336 0.0
C876 C 0.07823 0.29523 0.37835 0.0
C877 C 0.02889 0.2967 0.4141 0.0
C878 C 0.02882 0.27177 0.44092 0.0
C879 C 0.05317 0.25819 0.43586 0.0
C880 C 0.07721 0.26938 0.40473 0.0
C881 C 0.00479 0.26117 0.47531 0.0
C882 C 0.02087 0.27692 0.51049 0.0
C883 C 0.96639 0.23646 0.47362 0.0
C884 C 0.94769 0.21956 0.43717 0.0
C885 C 0.95829 0.1981 0.41551 0.0
C886 C 0.94075 0.18261 0.38093 0.0
C887 C 0.91237 0.18816 0.36786 0.0
C888 C 0.90139 0.2091 0.38942 0.0
C889 C 0.91888 0.22469 0.424 0.0
H890 H 0.89883 0.17615 0.34109 0.0
H891 H 0.06968 0.34879 0.66775 0.0
H892 H 0.63539 0.86147 0.09938 0.0
H893 H 0.65357 0.90554 0.04672 0.0
H894 H 0.73611 0.99054 0.1182 0.0
H895 H 0.71836 0.9469 0.17075 0.0
H896 H 0.65623 0.97217 0.03587 0.0
H897 H 0.81213 0.04312 0.06498 0.0
H898 H 0.85693 0.02887 0.09483 0.0
H899 H 0.78716 0.91388 0.06876 0.0
H900 H 0.74226 0.92755 0.03818 0.0
H901 H 0.76005 0.13898 0.92333 0.0
H902 H 0.73644 0.09564 0.97714 0.0
H903 H 0.75917 0.01984 0.91585 0.0
H904 H 0.78131 0.06187 0.86204 0.0
H905 H 0.7858 0.03285 0.99212 0.0
H906 H 0.67482 0.99733 0.92115 0.0
H907 H 0.62879 0.00821 0.88886 0.0
H908 H 0.60714 0.04652 0.99382 0.0
H909 H 0.65344 0.03632 0.02662 0.0
C910 C 0.65718 0.88962 0.10407 0.0
C911 C 0.67535 0.9004 0.13951 0.0
C912 C 0.66751 0.91487 0.07387 0.0
C913 C 0.69651 0.95139 0.0782 0.0
C914 C 0.71395 0.96248 0.11385 0.0
C915 C 0.70356 0.9374 0.14405 0.0
C916 C 0.70947 0.97749 0.0452 0.0
C917 C 0.68462 0.98555 0.02651 0.0
C918 C 0.7464 0.99475 0.03236 0.0
C919 C 0.7737 0.98634 0.04964 0.0
C920 C 0.80647 0.01483 0.06542 0.0
C921 C 0.83186 0.00685 0.08248 0.0
C922 C 0.82484 0.97047 0.0838 0.0
C923 C 0.79251 0.94203 0.06783 0.0
C924 C 0.76708 0.94988 0.05064 0.0
C925 C 0.75963 0.11292 0.92119 0.0
C926 C 0.77249 0.10403 0.8881 0.0
C927 C 0.74619 0.08817 0.952 0.0
C928 C 0.74606 0.05441 0.95066 0.0
C929 C 0.75895 0.04561 0.91773 0.0
C930 C 0.77152 0.06979 0.88678 0.0
C931 C 0.73277 0.02816 0.98343 0.0
C932 C 0.75755 0.01989 1.00189 0.0
C933 C 0.69575 0.01045 0.99577 0.0
C934 C 0.66787 0.01649 0.97621 0.0
C935 C 0.66048 0.0084 0.93725 0.0
C936 C 0.63429 0.01437 0.91888 0.0
C937 C 0.61513 0.02817 0.93925 0.0
C938 C 0.62205 0.03591 0.97807 0.0
C939 C 0.64824 0.03001 0.99657 0.0
H940 H 0.59487 0.03277 0.92498 0.0
H941 H 0.84446 0.96433 0.09714 0.0
H942 H 0.71484 0.68635 0.65946 0.0
H943 H 0.69446 0.69774 0.5989 0.0
H944 H 0.75936 0.65956 0.53966 0.0
H945 H 0.78105 0.64929 0.60108 0.0
H946 H 0.77326 0.72155 0.51014 0.0
H947 H 0.66119 0.61307 0.53432 0.0
H948 H 0.60732 0.56737 0.57034 0.0
H949 H 0.57162 0.6466 0.58597 0.0
H950 H 0.62556 0.693 0.55055 0.0
H951 H 0.68877 0.75609 0.34094 0.0
H952 H 0.69702 0.71777 0.3889 0.0
H953 H 0.69724 0.78901 0.47783 0.0
H954 H 0.69035 0.82794 0.43022 0.0
H955 H 0.64744 0.69848 0.48206 0.0
H956 H 0.77086 0.80904 0.46828 0.0
H957 H 0.82268 0.85132 0.42764 0.0
H958 H 0.83351 0.76033 0.38661 0.0
H959 H 0.78117 0.71738 0.42656 0.0
C960 C 0.72387 0.67916 0.63359 0.0
C961 C 0.74939 0.66665 0.63523 0.0
C962 C 0.71208 0.68565 0.59873 0.0
C963 C 0.725 0.67935 0.56425 0.0
C964 C 0.74883 0.66465 0.56571 0.0
C965 C 0.7608 0.6582 0.60088 0.0
C966 C 0.71635 0.69182 0.52757 0.0
C967 C 0.74552 0.71564 0.5037 0.0
C968 C 0.68023 0.68442 0.51856 0.0
C969 C 0.6476 0.65661 0.53988 0.0
C970 C 0.642 0.62086 0.54565 0.0
C971 C 0.61141 0.5948 0.56594 0.0
C972 C 0.58608 0.60409 0.58047 0.0
C973 C 0.59125 0.63944 0.57468 0.0
C974 C 0.62181 0.66561 0.55444 0.0
C975 C 0.6903 0.76332 0.37076 0.0
C976 C 0.689 0.79504 0.38186 0.0
C977 C 0.69508 0.7415 0.39807 0.0
C978 C 0.69774 0.75057 0.43691 0.0
C979 C 0.69524 0.78152 0.44804 0.0
C980 C 0.69144 0.8038 0.4208 0.0
C981 C 0.70438 0.72881 0.46616 0.0
C982 C 0.67488 0.70344 0.48839 0.0
C983 C 0.73992 0.73416 0.47322 0.0
C984 C 0.77184 0.75999 0.44997 0.0
C985 C 0.78405 0.79801 0.4503 0.0
C986 C 0.81353 0.8221 0.42745 0.0
C987 C 0.83127 0.80851 0.40443 0.0
C988 C 0.81966 0.7708 0.40436 0.0
C989 C 0.79009 0.74658 0.4271 0.0
H990 H 0.85409 0.82726 0.38681 0.0
H991 H 0.56242 0.58388 0.59618 0.0
H992 H 0.9161 0.64232 0.89263 0.0
H993 H 0.95819 0.6644 0.94722 0.0
H994 H 0.9512 0.7639 0.95064 0.0
H995 H 0.90988 0.74253 0.89595 0.0
H996 H 0.01974 0.78067 0.96195 0.0
H997 H 0.90284 0.69135 1.01329 0.0
H998 H 0.84682 0.63039 0.01858 0.0
H999 H 0.91266 0.58068 0.04404 0.0
H1000 H 0.96916 0.64133 0.03839 0.0
H1001 H 0.08491 0.84921 0.1445 0.0
H1002 H 0.04361 0.82023 0.0906 0.0
H1003 H 0.0626 0.72797 0.09665 0.0
H1004 H 0.10352 0.75661 0.15175 0.0
H1005 H 0.99122 0.70508 0.07895 0.0
H1006 H 0.10898 0.79932 0.03262 0.0
H1007 H 0.16224 0.86254 0.03192 0.0
H1008 H 0.09197 0.90513 0.99868 0.0
H1009 H 0.03814 0.84229 0.99992 0.0
C1010 C 0.92367 0.66902 0.90479 0.0
C1011 C 0.90925 0.69044 0.88975 0.0
C1012 C 0.94764 0.68154 0.93625 0.0
C1013 C 0.95763 0.71569 0.95356 0.0
C1014 C 0.94399 0.73746 0.93799 0.0
C1015 C 0.92014 0.72504 0.90663 0.0
C1016 C 0.98193 0.72884 0.98804 0.0
C1017 C 0.0133 0.76417 0.98757 0.0
C1018 C 0.97412 0.70723 0.02145 0.0
C1019 C 0.94023 0.67078 0.02498 0.0
C1020 C 0.90539 0.66736 0.01972 0.0
C1021 C 0.87355 0.63288 0.02283 0.0
C1022 C 0.87618 0.60166 0.03152 0.0
C1023 C 0.91067 0.60488 0.03723 0.0
C1024 C 0.94261 0.6393 0.0341 0.0
C1025 C 0.08013 0.82258 0.13464 0.0
C1026 C 0.09792 0.80545 0.15221 0.0
C1027 C 0.05655 0.80608 0.10362 0.0
C1028 C 0.05068 0.77234 0.0887 0.0
C1029 C 0.06691 0.75417 0.10734 0.0
C1030 C 0.09026 0.77053 0.13888 0.0
C1031 C 0.02871 0.75706 0.05295 0.0
C1032 C 0.99787 0.72136 0.05316 0.0
C1033 C 0.03676 0.77851 0.01937 0.0
C1034 C 0.06944 0.81608 0.01673 0.0
C1035 C 0.10486 0.82217 0.02526 0.0
C1036 C 0.13514 0.85795 0.02483 0.0
C1037 C 0.1304 0.88782 1.01556 0.0
C1038 C 0.09552 0.88195 1.00607 0.0
C1039 C 0.06512 0.84626 1.0066 0.0
H1040 H 0.15372 0.91555 0.0158 0.0
H1041 H 0.8515 0.57499 0.03393 0.0
H1042 H 0.34812 0.09239 0.64789 0.0
H1043 H 0.33604 0.04761 0.59644 0.0
H1044 H 0.23008 0.03805 0.57652 0.0
H1045 H 0.24235 0.08313 0.62643 0.0
H1046 H 0.28738 0.97797 0.58159 0.0
H1047 H 0.20606 0.02411 0.48348 0.0
H1048 H 0.20244 0.08022 0.47056 0.0
H1049 H 0.31418 0.14788 0.50802 0.0
H1050 H 0.31869 0.09222 0.52073 0.0
H1051 H 0.19416 0.84267 0.43605 0.0
H1052 H 0.21293 0.88591 0.48946 0.0
H1053 H 0.27919 0.9761 0.41388 0.0
H1054 H 0.2592 0.93316 0.36024 0.0
H1055 H 0.24677 0.99838 0.45578 0.0
H1056 H 0.31511 0.93712 0.48658 0.0
H1057 H 0.32283 0.88322 0.49884 0.0
H1058 H 0.24665 0.85101 0.59166 0.0
H1059 H 0.23824 0.90454 0.57971 0.0
C1060 C 0.32223 0.08062 0.6326 0.0
C1061 C 0.29651 0.09191 0.64109 0.0
C1062 C 0.31529 0.05495 0.60314 0.0
C1063 C 0.28243 0.0399 0.58169 0.0
C1064 C 0.25611 0.04988 0.59157 0.0
C1065 C 0.26317 0.0757 0.62044 0.0
C1066 C 0.27557 0.01427 0.54869 0.0
C1067 C 0.27866 0.98258 0.55405 0.0
C1068 C 0.26452 0.02015 0.51233 0.0
C1069 C 0.26252 0.05391 0.5036 0.0
C1070 C 0.22993 0.05095 0.48882 0.0
C1071 C 0.2277 0.08268 0.4816 0.0
C1072 C 0.25798 0.11756 0.48875 0.0
C1073 C 0.29069 0.12082 0.50272 0.0
C1074 C 0.29308 0.08918 0.50999 0.0
C1075 C 0.21333 0.87161 0.43092 0.0
C1076 C 0.22548 0.88427 0.39377 0.0
C1077 C 0.2241 0.89649 0.46164 0.0
C1078 C 0.24798 0.93463 0.45628 0.0
C1079 C 0.26074 0.94704 0.41921 0.0
C1080 C 0.24951 0.92232 0.38844 0.0
C1081 C 0.25843 0.96184 0.4886 0.0
C1082 C 0.25577 0.99381 0.48318 0.0
C1083 C 0.27057 0.95658 0.52459 0.0
C1084 C 0.27594 0.9247 0.53214 0.0
C1085 C 0.29994 0.91846 0.50952 0.0
C1086 C 0.30443 0.88799 0.51642 0.0
C1087 C 0.28521 0.86369 0.54599 0.0
C1088 C 0.26153 0.86987 0.56879 0.0
C1089 C 0.25695 0.9003 0.56202 0.0
H1090 H 0.28869 0.8401 0.55126 0.0
H1091 H 0.2561 0.14207 0.48351 0.0
H1092 H 0.77912 0.62367 0.92805 0.0
H1093 H 0.76492 0.64866 0.98465 0.0
H1094 H 0.75497 0.72794 0.91448 0.0
H1095 H 0.76599 0.70145 0.85822 0.0
H1096 H 0.79865 0.71265 0.01804 0.0
H1097 H 0.70047 0.75471 0.94974 0.0
H1098 H 0.6558 0.73578 0.89687 0.0
H1099 H 0.63347 0.62405 0.90682 0.0
H1100 H 0.67781 0.64229 0.95997 0.0
H1101 H 0.75559 0.83542 0.13189 0.0
H1102 H 0.77616 0.80917 0.08126 0.0
H1103 H 0.68153 0.70198 0.10046 0.0
H1104 H 0.66111 0.72732 0.15088 0.0
H1105 H 0.69114 0.73183 0.02365 0.0
H1106 H 0.75328 0.70646 0.12461 0.0
H1107 H 0.79694 0.71906 0.17732 0.0
H1108 H 0.887 0.79038 0.10518 0.0
H1109 H 0.8438 0.77852 0.0521 0.0
C1110 C 0.77302 0.64583 0.92468 0.0
C1111 C 0.77351 0.66035 0.8885 0.0
C1112 C 0.76532 0.66039 0.95708 0.0
C1113 C 0.75841 0.68995 0.9539 0.0
C1114 C 0.75916 0.70452 0.91779 0.0
C1115 C 0.76578 0.6894 0.8855 0.0
C1116 C 0.75067 0.70589 0.98818 0.0
C1117 C 0.77512 0.71681 0.01924 0.0
C1118 C 0.72002 0.71147 0.98988 0.0
C1119 C 0.69255 0.6999 0.95867 0.0
C1120 C 0.68582 0.72606 0.9408 0.0
C1121 C 0.66064 0.71547 0.91074 0.0
C1122 C 0.64184 0.67874 0.89846 0.0
C1123 C 0.64811 0.6525 0.91631 0.0
C1124 C 0.67328 0.66294 0.94638 0.0
C1125 C 0.73954 0.80614 0.12577 0.0
C1126 C 0.70642 0.78363 0.14518 0.0
C1127 C 0.75135 0.79122 0.09689 0.0
C1128 C 0.73025 0.75368 0.0872 0.0
C1129 C 0.69814 0.73101 0.10755 0.0
C1130 C 0.68647 0.7457 0.13631 0.0
C1131 C 0.73897 0.73835 0.05341 0.0
C1132 C 0.71477 0.72781 0.02231 0.0
C1133 C 0.76955 0.73281 0.05196 0.0
C1134 C 0.79525 0.74192 0.08451 0.0
C1135 C 0.78232 0.72529 0.12014 0.0
C1136 C 0.80702 0.73204 0.14999 0.0
C1137 C 0.84474 0.75525 0.14449 0.0
C1138 C 0.8578 0.7722 0.1093 0.0
C1139 C 0.83322 0.76549 0.07935 0.0
H1140 H 0.86383 0.76035 0.1676 0.0
H1141 H 0.6224 0.67061 0.87514 0.0
H1142 H 0.08823 0.83386 0.39878 0.0
H1143 H 0.04824 0.81647 0.45407 0.0
H1144 H 0.03655 0.70791 0.45229 0.0
H1145 H 0.07659 0.72493 0.39669 0.0
H1146 H 0.9713 0.70505 0.46596 0.0
H1147 H 0.0949 0.77222 0.51453 0.0
H1148 H 0.15825 0.82467 0.51961 0.0
H1149 H 0.11666 0.89627 0.55137 0.0
H1150 H 0.05302 0.84437 0.54596 0.0
H1151 H 0.8954 0.6596 0.65328 0.0
H1152 H 0.93897 0.67275 0.60105 0.0
H1153 H 0.95 0.78033 0.58706 0.0
H1154 H 0.90634 0.76735 0.63846 0.0
H1155 H 0.01739 0.78095 0.58343 0.0
H1156 H 0.89515 0.71649 0.52991 0.0
H1157 H 0.83123 0.66505 0.52536 0.0
H1158 H 0.87036 0.58947 0.5029 0.0
H1159 H 0.93457 0.64044 0.50795 0.0
C1160 C 0.0771 0.80618 0.40989 0.0
C1161 C 0.08605 0.78093 0.3934 0.0
C1162 C 0.0543 0.79635 0.44166 0.0
C1163 C 0.03996 0.76112 0.45767 0.0
C1164 C 0.04754 0.73532 0.44046 0.0
C1165 C 0.07046 0.74515 0.40868 0.0
C1166 C 0.01755 0.75151 0.49273 0.0
C1167 C 0.98162 0.72124 0.49186 0.0
C1168 C 0.03081 0.77313 0.52627 0.0
C1169 C 0.06913 0.80442 0.52956 0.0
C1170 C 0.09923 0.79921 0.52231 0.0
C1171 C 0.13521 0.82884 0.52529 0.0
C1172 C 0.14147 0.86379 0.53576 0.0
C1173 C 0.11177 0.86918 0.54326 0.0
C1174 C 0.07574 0.83966 0.54027 0.0
C1175 C 0.90746 0.68619 0.63935 0.0
C1176 C 0.8973 0.71236 0.64987 0.0
C1177 C 0.93222 0.69361 0.6095 0.0
C1178 C 0.94747 0.72743 0.59015 0.0
C1179 C 0.93854 0.7541 0.60168 0.0
C1180 C 0.91347 0.74654 0.63099 0.0
C1181 C 0.97128 0.7346 0.55656 0.0
C1182 C 0.00735 0.7645 0.55766 0.0
C1183 C 0.95817 0.71277 0.52323 0.0
C1184 C 0.91963 0.68217 0.51977 0.0
C1185 C 0.89012 0.68884 0.52433 0.0
C1186 C 0.85384 0.65979 0.5216 0.0
C1187 C 0.84674 0.624 0.51395 0.0
C1188 C 0.87591 0.61721 0.5089 0.0
C1189 C 0.91225 0.64616 0.51168 0.0
H1190 H 0.81864 0.60153 0.51185 0.0
H1191 H 0.16933 0.88669 0.53819 0.0
H1192 H 0.27261 0.03839 0.84658 0.0
H1193 H 0.25788 0.99002 0.89412 0.0
H1194 H 0.34113 0.07081 0.96896 0.0
H1195 H 0.35719 0.11824 0.92043 0.0
H1196 H 0.34614 0.01299 0.97199 0.0
H1197 H 0.23976 0.03208 0.97809 0.0
H1198 H 0.1861 0.03313 0.95043 0.0
H1199 H 0.13973 0.91982 0.91616 0.0
H1200 H 0.19341 0.91831 0.94312 0.0
H1201 H 0.28562 0.95474 0.15882 0.0
H1202 H 0.30671 0.98124 0.09577 0.0
H1203 H 0.22951 0.87715 0.04411 0.0
H1204 H 0.20851 0.85034 0.10749 0.0
H1205 H 0.2195 0.93368 0.02008 0.0
H1206 H 0.31958 0.91133 0.02457 0.0
H1207 H 0.37342 0.90944 0.0502 0.0
H1208 H 0.431 0.02718 0.06455 0.0
H1209 H 0.37758 0.02984 0.03879 0.0
C1210 C 0.28734 0.04563 0.87342 0.0
C1211 C 0.31564 0.08192 0.88028 0.0
C1212 C 0.27894 0.01807 0.90063 0.0
C1213 C 0.29797 0.02668 0.93562 0.0
C1214 C 0.32606 0.06323 0.9423 0.0
C1215 C 0.33506 0.09043 0.91476 0.0
C1216 C 0.28923 0.99813 0.96552 0.0
C1217 C 0.31843 0.9959 0.98266 0.0
C1218 C 0.2529 0.97426 0.97838 0.0
C1219 C 0.22068 0.97519 0.96229 0.0
C1220 C 0.2182 0.00748 0.96444 0.0
C1221 C 0.18781 0.00815 0.94888 0.0
C1222 C 0.15961 0.9766 0.93139 0.0
C1223 C 0.1617 0.94429 0.92948 0.0
C1224 C 0.1921 0.94352 0.94487 0.0
C1225 C 0.2742 0.9371 0.13405 0.0
C1226 C 0.24557 0.90047 0.13804 0.0
C1227 C 0.28625 0.95226 0.09797 0.0
C1228 C 0.26962 0.93124 0.06512 0.0
C1229 C 0.24276 0.89385 0.06905 0.0
C1230 C 0.23106 0.87846 0.10527 0.0
C1231 C 0.27661 0.95007 0.02766 0.0
C1232 C 0.24709 0.95037 1.009 0.0
C1233 C 0.3126 0.97219 1.01343 0.0
C1234 C 0.34447 0.97074 0.02992 0.0
C1235 C 0.34361 0.9368 0.03346 0.0
C1236 C 0.37412 0.93561 0.04785 0.0
C1237 C 0.40556 0.96815 0.05908 0.0
C1238 C 0.40662 0.00199 0.05583 0.0
C1239 C 0.3763 0.00338 0.04116 0.0
H1240 H 0.42914 0.96715 0.07025 0.0
H1241 H 0.13608 0.97716 0.91941 0.0
H1242 H 0.32336 0.2812 0.66439 0.0
H1243 H 0.31445 0.31005 0.60816 0.0
H1244 H 0.34358 0.24503 0.53616 0.0
H1245 H 0.35255 0.21577 0.59286 0.0
H1246 H 0.36525 0.32608 0.51059 0.0
H1247 H 0.26355 0.20604 0.54238 0.0
H1248 H 0.22165 0.15894 0.58776 0.0
H1249 H 0.18351 0.2318 0.62568 0.0
H1250 H 0.22574 0.27961 0.58093 0.0
H1251 H 0.25527 0.31504 0.34945 0.0
H1252 H 0.28733 0.30392 0.40116 0.0
H1253 H 0.23945 0.34549 0.48193 0.0
H1254 H 0.20694 0.35675 0.43 0.0
H1255 H 0.23048 0.27708 0.50164 0.0
H1256 H 0.32831 0.39476 0.4624 0.0
H1257 H 0.37074 0.44083 0.41659 0.0
H1258 H 0.41667 0.37167 0.39061 0.0
H1259 H 0.37412 0.32492 0.43582 0.0
C1260 C 0.32944 0.27419 0.63667 0.0
C1261 C 0.33869 0.2463 0.63298 0.0
C1262 C 0.32425 0.29064 0.60455 0.0
C1263 C 0.32804 0.27946 0.56802 0.0
C1264 C 0.34079 0.25422 0.56415 0.0
C1265 C 0.34609 0.23767 0.59654 0.0
C1266 C 0.31244 0.28936 0.53508 0.0
C1267 C 0.3358 0.31503 0.50816 0.0
C1268 C 0.27406 0.27537 0.53238 0.0
C1269 C 0.24804 0.24649 0.55867 0.0
C1270 C 0.24643 0.2121 0.56063 0.0
C1271 C 0.22261 0.18528 0.58619 0.0
C1272 C 0.20001 0.19241 0.60968 0.0
C1273 C 0.20109 0.22634 0.60752 0.0
C1274 C 0.22493 0.25331 0.58205 0.0
C1275 C 0.25185 0.32234 0.37814 0.0
C1276 C 0.22842 0.33679 0.38556 0.0
C1277 C 0.27039 0.31608 0.40768 0.0
C1278 C 0.266 0.32406 0.4454 0.0
C1279 C 0.24331 0.33924 0.45296 0.0
C1280 C 0.22491 0.34585 0.42326 0.0
C1281 C 0.2832 0.31419 0.47697 0.0
C1282 C 0.25998 0.2883 0.50381 0.0
C1283 C 0.32165 0.32775 0.4791 0.0
C1284 C 0.34764 0.35605 0.4522 0.0
C1285 C 0.3472 0.38919 0.44667 0.0
C1286 C 0.37134 0.41548 0.42085 0.0
C1287 C 0.3963 0.40913 0.40061 0.0
C1288 C 0.39726 0.37652 0.40625 0.0
C1289 C 0.37314 0.35011 0.43199 0.0
H1290 H 0.41496 0.42952 0.38063 0.0
H1291 H 0.1816 0.17163 0.62948 0.0
H1292 H 0.11923 0.3514 0.14356 0.0
H1293 H 0.07735 0.34116 0.09003 0.0
H1294 H 0.06601 0.23389 0.07081 0.0
H1295 H 0.10913 0.24485 0.12226 0.0
H1296 H 0.07565 0.26791 1.0066 0.0
H1297 H 0.00639 0.2551 0.1204 0.0
H1298 H 0.9944 0.27869 0.17958 0.0
H1299 H 0.97628 0.35576 0.11578 0.0
H1300 H 0.98994 0.3339 0.05618 0.0
H1301 H 0.91881 0.17102 0.89195 0.0
H1302 H 0.96332 0.19327 0.94389 0.0
H1303 H 0.95925 0.29432 0.9486 0.0
H1304 H 0.91394 0.27192 0.89684 0.0
H1305 H 0.95975 0.27157 0.019 0.0
H1306 H 0.03555 0.29317 0.90992 0.0
H1307 H 0.06227 0.28335 0.85161 0.0
H1308 H 0.07269 0.19741 0.90678 0.0
H1309 H 0.04594 0.20658 0.9654 0.0
C1310 C 0.10772 0.32567 0.12785 0.0
C1311 C 0.11738 0.29887 0.13724 0.0
C1312 C 0.08376 0.31981 0.09732 0.0
C1313 C 0.06812 0.28653 0.07655 0.0
C1314 C 0.07769 0.25981 0.08622 0.0
C1315 C 0.10225 0.26604 0.11588 0.0
C1316 C 0.04204 0.27894 0.04439 0.0
C1317 C 0.05005 0.26824 1.00956 0.0
C1318 C 0.00941 0.28106 0.04771 0.0
C1319 C 0.99975 0.29314 0.08363 0.0
C1320 C 0.00051 0.27754 0.11889 0.0
C1321 C 0.99352 0.29071 0.15261 0.0
C1322 C 0.98478 0.31887 0.15148 0.0
C1323 C 0.98315 0.334 0.11662 0.0
C1324 C 0.99064 0.3213 0.08285 0.0
C1325 C 0.92733 0.19806 0.9038 0.0
C1326 C 0.91265 0.21963 0.88986 0.0
C1327 C 0.95304 0.21086 0.93356 0.0
C1328 C 0.96512 0.24574 0.95008 0.0
C1329 C 0.95046 0.26733 0.93642 0.0
C1330 C 0.92464 0.25451 0.90659 0.0
C1331 C 0.99295 0.2593 0.98155 0.0
C1332 C 0.98531 0.2712 0.01615 0.0
C1333 C 0.02632 0.25877 0.97819 0.0
C1334 C 0.03855 0.25043 0.9419 0.0
C1335 C 0.04294 0.27175 0.9094 0.0
C1336 C 0.05832 0.26648 0.87643 0.0
C1337 C 0.06932 0.23996 0.87574 0.0
C1338 C 0.06425 0.21803 0.90755 0.0
C1339 C 0.04903 0.22327 0.94062 0.0
H1340 H 0.08211 0.23665 0.85072 0.0
H1341 H 0.9791 0.32884 0.17759 0.0
H1342 H 0.75957 0.12501 0.60469 0.0
H1343 H 0.72036 0.08547 0.5525 0.0
H1344 H 0.6737 0.99183 0.62794 0.0
H1345 H 0.71265 0.0309 0.67959 0.0
H1346 H 0.70542 0.98015 0.56758 0.0
H1347 H 0.62039 0.02204 0.58975 0.0
H1348 H 0.59838 0.06636 0.59838 0.0
H1349 H 0.63373 0.10773 0.4855 0.0
H1350 H 0.65667 0.06417 0.47641 0.0
H1351 H 0.61847 0.85584 0.41947 0.0
H1352 H 0.61661 0.88756 0.47763 0.0
H1353 H 0.66521 0.99084 0.41698 0.0
H1354 H 0.66625 0.95927 0.35909 0.0
H1355 H 0.62349 0.9925 0.47402 0.0
H1356 H 0.71882 0.95973 0.45773 0.0
H1357 H 0.741 0.91564 0.44766 0.0
H1358 H 0.68723 0.85865 0.55009 0.0
H1359 H 0.66419 0.90206 0.56039 0.0
C1360 C 0.73987 0.09633 0.61038 0.0
C1361 C 0.73932 0.08093 0.64604 0.0
C1362 C 0.71756 0.07368 0.58055 0.0
C1363 C 0.69431 0.0355 0.58619 0.0
C1364 C 0.69156 0.02104 0.62276 0.0
C1365 C 0.71378 0.04346 0.6523 0.0
C1366 C 0.67711 0.00975 0.55342 0.0
C1367 C 0.68684 0.98242 0.54765 0.0
C1368 C 0.65351 0.0131 0.52685 0.0
C1369 C 0.64053 0.03997 0.5325 0.0
C1370 C 0.6239 0.04087 0.5669 0.0
C1371 C 0.61114 0.06579 0.57185 0.0
C1372 C 0.61458 0.08977 0.54247 0.0
C1373 C 0.63102 0.08908 0.5082 0.0
C1374 C 0.64391 0.06427 0.50313 0.0
C1375 C 0.62705 0.88494 0.41819 0.0
C1376 C 0.64297 0.90521 0.38495 0.0
C1377 C 0.62633 0.90316 0.45152 0.0
C1378 C 0.64179 0.94184 0.45198 0.0
C1379 C 0.65342 0.96113 0.41757 0.0
C1380 C 0.65407 0.94301 0.38443 0.0
C1381 C 0.65193 0.96313 0.48837 0.0
C1382 C 0.64137 0.98984 0.49457 0.0
C1383 C 0.67506 0.95954 0.5154 0.0
C1384 C 0.68946 0.93386 0.5096 0.0
C1385 C 0.71158 0.93768 0.47799 0.0
C1386 C 0.72429 0.91281 0.47224 0.0
C1387 C 0.71548 0.88433 0.49819 0.0
C1388 C 0.69398 0.88069 0.52998 0.0
C1389 C 0.68107 0.9054 0.53578 0.0
H1390 H 0.72537 0.86513 0.49373 0.0
H1391 H 0.60445 0.10886 0.54625 0.0
loop_
_geom_bond_atom_site_label_1
_geom_bond_atom_site_label_2
_geom_bond_distance
_geom_bond_site_symmetry_2
_ccdc_geom_bond_type
Fe0 O1 1.886 . S
Fe0 O4 1.715 . S
Fe0 O9 2.077 . S
Fe0 O14 1.935 . S
Fe0 O20 2.077 . S
Fe0 O29 1.935 . S
O1 Fe0 1.886 . S
O1 Fe3 1.715 . S
Fe2 O4 1.886 . S
Fe2 O5 1.715 . S
Fe2 O12 1.935 . S
Fe2 O13 2.077 . S
Fe2 O19 1.935 . S
Fe2 O28 2.077 . S
Fe3 O1 1.715 . S
Fe3 O6 1.886 . S
Fe3 O10 1.935 . S
Fe3 O15 2.077 . S
Fe3 O21 1.935 . S
Fe3 O25 2.077 . S
O4 Fe0 1.715 . S
O4 Fe2 1.886 . S
O5 Fe2 1.715 . S
O5 Fe7 1.886 . S
O6 Fe3 1.886 . S
O6 Fe7 1.715 . S
Fe7 O5 1.886 . S
Fe7 O6 1.715 . S
Fe7 O11 2.077 . S
Fe7 O16 1.935 . S
Fe7 O18 2.077 . S
Fe7 O26 1.935 . S
C8 O20 1.381 . S
C8 O21 1.421 . S
O9 Fe0 2.077 . S
O9 C22 1.381 . S
O10 Fe3 1.935 . S
O10 C22 1.421 . S
O11 Fe7 2.077 . S
O11 C27 1.381 . S
O12 Fe2 1.935 . S
O12 C27 1.421 . S
O13 Fe2 2.077 . S
O13 C17 1.381 . S
O14 Fe0 1.935 . S
O14 C17 1.421 . S
O15 Fe3 2.077 . S
O15 C23 1.381 . S
O16 Fe7 1.935 . S
O16 C23 1.421 . S
C17 O13 1.381 . S
C17 O14 1.421 . S
O18 Fe7 2.077 . S
O18 C30 1.381 . S
O19 Fe2 1.935 . S
O19 C30 1.421 . S
O20 Fe0 2.077 . S
O20 C8 1.381 . S
O21 Fe3 1.935 . S
O21 C8 1.421 . S
C22 O9 1.381 . S
C22 O10 1.421 . S
C23 O15 1.381 . S
C23 O16 1.421 . S
C24 O25 1.381 . S
C24 O26 1.421 . S
O25 Fe3 2.077 . S
O25 C24 1.381 . S
O26 Fe7 1.935 . S
O26 C24 1.421 . S
C27 O11 1.381 . S
C27 O12 1.421 . S
O28 Fe2 2.077 . S
O28 C31 1.381 . S
O29 Fe0 1.935 . S
O29 C31 1.421 . S
C30 O18 1.381 . S
C30 O19 1.421 . S
C31 O28 1.381 . S
C31 O29 1.421 . S
Fe32 O33 1.886 . S
Fe32 O36 1.715 . S
Fe32 O41 2.077 . S
Fe32 O46 1.935 . S
Fe32 O52 2.077 . S
Fe32 O61 1.935 . S
O33 Fe32 1.886 . S
O33 Fe35 1.715 . S
Fe34 O36 1.886 . S
Fe34 O37 1.715 . S
Fe34 O44 1.935 . S
Fe34 O45 2.077 . S
Fe34 O51 1.935 . S
Fe34 O60 2.077 . S
Fe35 O33 1.715 . S
Fe35 O38 1.886 . S
Fe35 O42 1.935 . S
Fe35 O47 2.077 . S
Fe35 O53 1.935 . S
Fe35 O57 2.077 . S
O36 Fe32 1.715 . S
O36 Fe34 1.886 . S
O37 Fe34 1.715 . S
O37 Fe39 1.886 . S
O38 Fe35 1.886 . S
O38 Fe39 1.715 . S
Fe39 O37 1.886 . S
Fe39 O38 1.715 . S
Fe39 O43 2.077 . S
Fe39 O48 1.935 . S
Fe39 O50 2.077 . S
Fe39 O58 1.935 . S
C40 O52 1.381 . S
C40 O53 1.421 . S
O41 Fe32 2.077 . S
O41 C54 1.381 . S
O42 Fe35 1.935 . S
O42 C54 1.421 . S
O43 Fe39 2.077 . S
O43 C59 1.381 . S
O44 Fe34 1.935 . S
O44 C59 1.421 . S
O45 Fe34 2.077 . S
O45 C49 1.381 . S
O46 Fe32 1.935 . S
O46 C49 1.421 . S
O47 Fe35 2.077 . S
O47 C55 1.381 . S
O48 Fe39 1.935 . S
O48 C55 1.421 . S
C49 O45 1.381 . S
C49 O46 1.421 . S
O50 Fe39 2.077 . S
O50 C62 1.381 . S
O51 Fe34 1.935 . S
O51 C62 1.421 . S
O52 Fe32 2.077 . S
O52 C40 1.381 . S
O53 Fe35 1.935 . S
O53 C40 1.421 . S
C54 O41 1.381 . S
C54 O42 1.421 . S
C55 O47 1.381 . S
C55 O48 1.421 . S
C56 O57 1.381 . S
C56 O58 1.421 . S
O57 Fe35 2.077 . S
O57 C56 1.381 . S
O58 Fe39 1.935 . S
O58 C56 1.421 . S
C59 O43 1.381 . S
C59 O44 1.421 . S
O60 Fe34 2.077 . S
O60 C63 1.381 . S
O61 Fe32 1.935 . S
O61 C63 1.421 . S
C62 O50 1.381 . S
C62 O51 1.421 . S
C63 O60 1.381 . S
C63 O61 1.421 . S
Fe64 O65 1.886 . S
Fe64 O68 1.715 . S
Fe64 O73 2.077 . S
Fe64 O78 1.935 . S
Fe64 O84 2.077 . S
Fe64 O93 1.935 . S
O65 Fe64 1.886 . S
O65 Fe67 1.715 . S
Fe66 O68 1.886 . S
Fe66 O69 1.715 . S
Fe66 O76 1.935 . S
Fe66 O77 2.077 . S
Fe66 O83 1.935 . S
Fe66 O92 2.077 . S
Fe67 O65 1.715 . S
Fe67 O70 1.886 . S
Fe67 O74 1.935 . S
Fe67 O79 2.077 . S
Fe67 O85 1.935 . S
Fe67 O89 2.077 . S
O68 Fe64 1.715 . S
O68 Fe66 1.886 . S
O69 Fe66 1.715 . S
O69 Fe71 1.886 . S
O70 Fe67 1.886 . S
O70 Fe71 1.715 . S
Fe71 O69 1.886 . S
Fe71 O70 1.715 . S
Fe71 O75 2.077 . S
Fe71 O80 1.935 . S
Fe71 O82 2.077 . S
Fe71 O90 1.935 . S
C72 O84 1.381 . S
C72 O85 1.421 . S
O73 Fe64 2.077 . S
O73 C86 1.381 . S
O74 Fe67 1.935 . S
O74 C86 1.421 . S
O75 Fe71 2.077 . S
O75 C91 1.381 . S
O76 Fe66 1.935 . S
O76 C91 1.421 . S
O77 Fe66 2.077 . S
O77 C81 1.381 . S
O78 Fe64 1.935 . S
O78 C81 1.421 . S
O79 Fe67 2.077 . S
O79 C87 1.381 . S
O80 Fe71 1.935 . S
O80 C87 1.421 . S
C81 O77 1.381 . S
C81 O78 1.421 . S
O82 Fe71 2.077 . S
O82 C94 1.381 . S
O83 Fe66 1.935 . S
O83 C94 1.421 . S
O84 Fe64 2.077 . S
O84 C72 1.381 . S
O85 Fe67 1.935 . S
O85 C72 1.421 . S
C86 O73 1.381 . S
C86 O74 1.421 . S
C87 O79 1.381 . S
C87 O80 1.421 . S
C88 O89 1.381 . S
C88 O90 1.421 . S
O89 Fe67 2.077 . S
O89 C88 1.381 . S
O90 Fe71 1.935 . S
O90 C88 1.421 . S
C91 O75 1.381 . S
C91 O76 1.421 . S
O92 Fe66 2.077 . S
O92 C95 1.381 . S
O93 Fe64 1.935 . S
O93 C95 1.421 . S
C94 O82 1.381 . S
C94 O83 1.421 . S
C95 O92 1.381 . S
C95 O93 1.421 . S
Fe96 O97 1.886 . S
Fe96 O100 1.715 . S
Fe96 O105 2.077 . S
Fe96 O110 1.935 . S
Fe96 O116 2.077 . S
Fe96 O125 1.935 . S
O97 Fe96 1.886 . S
O97 Fe99 1.715 . S
Fe98 O100 1.886 . S
Fe98 O101 1.715 . S
Fe98 O108 1.935 . S
Fe98 O109 2.077 . S
Fe98 O115 1.935 . S
Fe98 O124 2.077 . S
Fe99 O97 1.715 . S
Fe99 O102 1.886 . S
Fe99 O106 1.935 . S
Fe99 O111 2.077 . S
Fe99 O117 1.935 . S
Fe99 O121 2.077 . S
O100 Fe96 1.715 . S
O100 Fe98 1.886 . S
O101 Fe98 1.715 . S
O101 Fe103 1.886 . S
O102 Fe99 1.886 . S
O102 Fe103 1.715 . S
Fe103 O101 1.886 . S
Fe103 O102 1.715 . S
Fe103 O107 2.077 . S
Fe103 O112 1.935 . S
Fe103 O114 2.077 . S
Fe103 O122 1.935 . S
C104 O116 1.381 . S
C104 O117 1.421 . S
O105 Fe96 2.077 . S
O105 C118 1.381 . S
O106 Fe99 1.935 . S
O106 C118 1.421 . S
O107 Fe103 2.077 . S
O107 C123 1.381 . S
O108 Fe98 1.935 . S
O108 C123 1.421 . S
O109 Fe98 2.077 . S
O109 C113 1.381 . S
O110 Fe96 1.935 . S
O110 C113 1.421 . S
O111 Fe99 2.077 . S
O111 C119 1.381 . S
O112 Fe103 1.935 . S
O112 C119 1.421 . S
C113 O109 1.381 . S
C113 O110 1.421 . S
O114 Fe103 2.077 . S
O114 C126 1.381 . S
O115 Fe98 1.935 . S
O115 C126 1.421 . S
O116 Fe96 2.077 . S
O116 C104 1.381 . S
O117 Fe99 1.935 . S
O117 C104 1.421 . S
C118 O105 1.381 . S
C118 O106 1.421 . S
C119 O111 1.381 . S
C119 O112 1.421 . S
C120 O121 1.381 . S
C120 O122 1.421 . S
O121 Fe99 2.077 . S
O121 C120 1.381 . S
O122 Fe103 1.935 . S
O122 C120 1.421 . S
C123 O107 1.381 . S
C123 O108 1.421 . S
O124 Fe98 2.077 . S
O124 C127 1.381 . S
O125 Fe96 1.935 . S
O125 C127 1.421 . S
C126 O114 1.381 . S
C126 O115 1.421 . S
C127 O124 1.381 . S
C127 O125 1.421 . S
Fe128 O129 1.886 . S
Fe128 O132 1.715 . S
Fe128 O137 2.077 . S
Fe128 O142 1.935 . S
Fe128 O148 2.077 . S
Fe128 O157 1.935 . S
O129 Fe128 1.886 . S
O129 Fe131 1.715 . S
Fe130 O132 1.886 . S
Fe130 O133 1.715 . S
Fe130 O140 1.935 . S
Fe130 O141 2.077 . S
Fe130 O147 1.935 . S
Fe130 O156 2.077 . S
Fe131 O129 1.715 . S
Fe131 O134 1.886 . S
Fe131 O138 1.935 . S
Fe131 O143 2.077 . S
Fe131 O149 1.935 . S
Fe131 O153 2.077 . S
O132 Fe128 1.715 . S
O132 Fe130 1.886 . S
O133 Fe130 1.715 . S
O133 Fe135 1.886 . S
O134 Fe131 1.886 . S
O134 Fe135 1.715 . S
Fe135 O133 1.886 . S
Fe135 O134 1.715 . S
Fe135 O139 2.077 . S
Fe135 O144 1.935 . S
Fe135 O146 2.077 . S
Fe135 O154 1.935 . S
C136 O148 1.381 . S
C136 O149 1.421 . S
O137 Fe128 2.077 . S
O137 C150 1.381 . S
O138 Fe131 1.935 . S
O138 C150 1.421 . S
O139 Fe135 2.077 . S
O139 C155 1.381 . S
O140 Fe130 1.935 . S
O140 C155 1.421 . S
O141 Fe130 2.077 . S
O141 C145 1.381 . S
O142 Fe128 1.935 . S
O142 C145 1.421 . S
O143 Fe131 2.077 . S
O143 C151 1.381 . S
O144 Fe135 1.935 . S
O144 C151 1.421 . S
C145 O141 1.381 . S
C145 O142 1.421 . S
O146 Fe135 2.077 . S
O146 C158 1.381 . S
O147 Fe130 1.935 . S
O147 C158 1.421 . S
O148 Fe128 2.077 . S
O148 C136 1.381 . S
O149 Fe131 1.935 . S
O149 C136 1.421 . S
C150 O137 1.381 . S
C150 O138 1.421 . S
C151 O143 1.381 . S
C151 O144 1.421 . S
C152 O153 1.381 . S
C152 O154 1.421 . S
O153 Fe131 2.077 . S
O153 C152 1.381 . S
O154 Fe135 1.935 . S
O154 C152 1.421 . S
C155 O139 1.381 . S
C155 O140 1.421 . S
O156 Fe130 2.077 . S
O156 C159 1.381 . S
O157 Fe128 1.935 . S
O157 C159 1.421 . S
C158 O146 1.381 . S
C158 O147 1.421 . S
C159 O156 1.381 . S
C159 O157 1.421 . S
Fe160 O161 1.886 . S
Fe160 O164 1.715 . S
Fe160 O169 2.077 . S
Fe160 O174 1.935 . S
Fe160 O180 2.077 . S
Fe160 O189 1.935 . S
O161 Fe160 1.886 . S
O161 Fe163 1.715 . S
Fe162 O164 1.886 . S
Fe162 O165 1.715 . S
Fe162 O172 1.935 . S
Fe162 O173 2.077 . S
Fe162 O179 1.935 . S
Fe162 O188 2.077 . S
Fe163 O161 1.715 . S
Fe163 O166 1.886 . S
Fe163 O170 1.935 . S
Fe163 O175 2.077 . S
Fe163 O181 1.935 . S
Fe163 O185 2.077 . S
O164 Fe160 1.715 . S
O164 Fe162 1.886 . S
O165 Fe162 1.715 . S
O165 Fe167 1.886 . S
O166 Fe163 1.886 . S
O166 Fe167 1.715 . S
Fe167 O165 1.886 . S
Fe167 O166 1.715 . S
Fe167 O171 2.077 . S
Fe167 O176 1.935 . S
Fe167 O178 2.077 . S
Fe167 O186 1.935 . S
C168 O180 1.381 . S
C168 O181 1.421 . S
O169 Fe160 2.077 . S
O169 C182 1.381 . S
O170 Fe163 1.935 . S
O170 C182 1.421 . S
O171 Fe167 2.077 . S
O171 C187 1.381 . S
O172 Fe162 1.935 . S
O172 C187 1.421 . S
O173 Fe162 2.077 . S
O173 C177 1.381 . S
O174 Fe160 1.935 . S
O174 C177 1.421 . S
O175 Fe163 2.077 . S
O175 C183 1.381 . S
O176 Fe167 1.935 . S
O176 C183 1.421 . S
C177 O173 1.381 . S
C177 O174 1.421 . S
O178 Fe167 2.077 . S
O178 C190 1.381 . S
O179 Fe162 1.935 . S
O179 C190 1.421 . S
O180 Fe160 2.077 . S
O180 C168 1.381 . S
O181 Fe163 1.935 . S
O181 C168 1.421 . S
C182 O169 1.381 . S
C182 O170 1.421 . S
C183 O175 1.381 . S
C183 O176 1.421 . S
C184 O185 1.381 . S
C184 O186 1.421 . S
O185 Fe163 2.077 . S
O185 C184 1.381 . S
O186 Fe167 1.935 . S
O186 C184 1.421 . S
C187 O171 1.381 . S
C187 O172 1.421 . S
O188 Fe162 2.077 . S
O188 C191 1.381 . S
O189 Fe160 1.935 . S
O189 C191 1.421 . S
C190 O178 1.381 . S
C190 O179 1.421 . S
C191 O188 1.381 . S
C191 O189 1.421 . S
H192 C210 0.951 . S
H193 C212 0.951 . S
H194 C214 0.950 . S
H195 C215 0.950 . S
H196 C217 0.950 . S
H197 C220 0.950 . S
H198 C221 0.950 . S
H199 C223 0.950 . S
H200 C224 0.950 . S
H201 C225 0.951 . S
H202 C227 0.951 . S
H203 C229 0.950 . S
H204 C230 0.950 . S
H205 C232 0.950 . S
H206 C235 0.950 . S
H207 C236 0.950 . S
H208 C238 0.950 . S
H209 C239 0.950 . S
C210 H192 0.951 . S
C210 C211 1.366 . S
C210 C212 1.388 . S
C211 C210 1.366 . S
C211 C215 1.385 . S
C212 H193 0.951 . S
C212 C210 1.388 . S
C212 C213 1.366 . S
C213 C212 1.366 . S
C213 C214 1.414 . S
C213 C216 1.499 . S
C214 H194 0.950 . S
C214 C213 1.414 . S
C214 C215 1.374 . S
C215 H195 0.950 . S
C215 C211 1.385 . S
C215 C214 1.374 . S
C216 C213 1.499 . S
C216 C217 1.373 . S
C216 C218 1.389 . S
C217 H196 0.950 . S
C217 C216 1.373 . S
C217 C233 1.377 . S
C218 C216 1.389 . S
C218 C219 1.524 . S
C218 C232 1.377 . S
C219 C218 1.524 . S
C219 C220 1.397 . S
C219 C224 1.363 . S
C220 H197 0.950 . S
C220 C219 1.397 . S
C220 C221 1.334 . S
C221 H198 0.950 . S
C221 C220 1.334 . S
C221 C222 1.287 . S
C222 C221 1.287 . S
C222 C223 1.524 . S
C222 H241 0.913 . S
C223 H199 0.950 . S
C223 C222 1.524 . S
C223 C224 1.415 . S
C224 H200 0.950 . S
C224 C219 1.363 . S
C224 C223 1.415 . S
C225 H201 0.951 . S
C225 C226 1.366 . S
C225 C227 1.388 . S
C226 C225 1.366 . S
C226 C230 1.385 . S
C227 H202 0.951 . S
C227 C225 1.388 . S
C227 C228 1.366 . S
C228 C227 1.366 . S
C228 C229 1.414 . S
C228 C231 1.499 . S
C229 H203 0.950 . S
C229 C228 1.414 . S
C229 C230 1.374 . S
C230 H204 0.950 . S
C230 C226 1.385 . S
C230 C229 1.374 . S
C231 C228 1.499 . S
C231 C232 1.373 . S
C231 C233 1.389 . S
C232 H205 0.950 . S
C232 C218 1.377 . S
C232 C231 1.373 . S
C233 C217 1.377 . S
C233 C231 1.389 . S
C233 C234 1.524 . S
C234 C233 1.524 . S
C234 C235 1.397 . S
C234 C239 1.363 . S
C235 H206 0.950 . S
C235 C234 1.397 . S
C235 C236 1.334 . S
C236 H207 0.950 . S
C236 C235 1.334 . S
C236 C237 1.287 . S
C237 C236 1.287 . S
C237 C238 1.524 . S
C237 H240 0.999 . S
C238 H208 0.950 . S
C238 C237 1.524 . S
C238 C239 1.415 . S
C239 H209 0.950 . S
C239 C234 1.363 . S
C239 C238 1.415 . S
H240 C237 0.999 . S
H241 C222 0.913 . S
H242 C260 0.951 . S
H243 C262 0.951 . S
H244 C264 0.950 . S
H245 C265 0.950 . S
H246 C267 0.950 . S
H247 C270 0.950 . S
H248 C271 0.950 . S
H249 C273 0.950 . S
H250 C274 0.950 . S
H251 C275 0.951 . S
H252 C277 0.951 . S
H253 C279 0.950 . S
H254 C280 0.950 . S
H255 C282 0.950 . S
H256 C285 0.950 . S
H257 C286 0.950 . S
H258 C288 0.950 . S
H259 C289 0.950 . S
C260 H242 0.951 . S
C260 C261 1.366 . S
C260 C262 1.388 . S
C261 C260 1.366 . S
C261 C265 1.385 . S
C262 H243 0.951 . S
C262 C260 1.388 . S
C262 C263 1.366 . S
C263 C262 1.366 . S
C263 C264 1.414 . S
C263 C266 1.499 . S
C264 H244 0.950 . S
C264 C263 1.414 . S
C264 C265 1.374 . S
C265 H245 0.950 . S
C265 C261 1.385 . S
C265 C264 1.374 . S
C266 C263 1.499 . S
C266 C267 1.373 . S
C266 C268 1.389 . S
C267 H246 0.950 . S
C267 C266 1.373 . S
C267 C283 1.377 . S
C268 C266 1.389 . S
C268 C269 1.524 . S
C268 C282 1.377 . S
C269 C268 1.524 . S
C269 C270 1.397 . S
C269 C274 1.363 . S
C270 H247 0.950 . S
C270 C269 1.397 . S
C270 C271 1.334 . S
C271 H248 0.950 . S
C271 C270 1.334 . S
C271 C272 1.287 . S
C272 C271 1.287 . S
C272 C273 1.524 . S
C272 H291 0.913 . S
C273 H249 0.950 . S
C273 C272 1.524 . S
C273 C274 1.415 . S
C274 H250 0.950 . S
C274 C269 1.363 . S
C274 C273 1.415 . S
C275 H251 0.951 . S
C275 C276 1.366 . S
C275 C277 1.388 . S
C276 C275 1.366 . S
C276 C280 1.385 . S
C277 H252 0.951 . S
C277 C275 1.388 . S
C277 C278 1.366 . S
C278 C277 1.366 . S
C278 C279 1.414 . S
C278 C281 1.499 . S
C279 H253 0.950 . S
C279 C278 1.414 . S
C279 C280 1.374 . S
C280 H254 0.950 . S
C280 C276 1.385 . S
C280 C279 1.374 . S
C281 C278 1.499 . S
C281 C282 1.373 . S
C281 C283 1.389 . S
C282 H255 0.950 . S
C282 C268 1.377 . S
C282 C281 1.373 . S
C283 C267 1.377 . S
C283 C281 1.389 . S
C283 C284 1.524 . S
C284 C283 1.524 . S
C284 C285 1.397 . S
C284 C289 1.363 . S
C285 H256 0.950 . S
C285 C284 1.397 . S
C285 C286 1.334 . S
C286 H257 0.950 . S
C286 C285 1.334 . S
C286 C287 1.287 . S
C287 C286 1.287 . S
C287 C288 1.524 . S
C287 H290 0.999 . S
C288 H258 0.950 . S
C288 C287 1.524 . S
C288 C289 1.415 . S
C289 H259 0.950 . S
C289 C284 1.363 . S
C289 C288 1.415 . S
H290 C287 0.999 . S
H291 C272 0.913 . S
H292 C310 0.951 . S
H293 C312 0.951 . S
H294 C314 0.950 . S
H295 C315 0.950 . S
H296 C317 0.950 . S
H297 C320 0.950 . S
H298 C321 0.950 . S
H299 C323 0.950 . S
H300 C324 0.950 . S
H301 C325 0.951 . S
H302 C327 0.951 . S
H303 C329 0.950 . S
H304 C330 0.950 . S
H305 C332 0.950 . S
H306 C335 0.950 . S
H307 C336 0.950 . S
H308 C338 0.950 . S
H309 C339 0.950 . S
C310 H292 0.951 . S
C310 C311 1.366 . S
C310 C312 1.388 . S
C311 C310 1.366 . S
C311 C315 1.385 . S
C312 H293 0.951 . S
C312 C310 1.388 . S
C312 C313 1.366 . S
C313 C312 1.366 . S
C313 C314 1.414 . S
C313 C316 1.499 . S
C314 H294 0.950 . S
C314 C313 1.414 . S
C314 C315 1.374 . S
C315 H295 0.950 . S
C315 C311 1.385 . S
C315 C314 1.374 . S
C316 C313 1.499 . S
C316 C317 1.373 . S
C316 C318 1.389 . S
C317 H296 0.950 . S
C317 C316 1.373 . S
C317 C333 1.377 . S
C318 C316 1.389 . S
C318 C319 1.524 . S
C318 C332 1.377 . S
C319 C318 1.524 . S
C319 C320 1.397 . S
C319 C324 1.363 . S
C320 H297 0.950 . S
C320 C319 1.397 . S
C320 C321 1.334 . S
C321 H298 0.950 . S
C321 C320 1.334 . S
C321 C322 1.287 . S
C322 C321 1.287 . S
C322 C323 1.524 . S
C322 H341 0.913 . S
C323 H299 0.950 . S
C323 C322 1.524 . S
C323 C324 1.415 . S
C324 H300 0.950 . S
C324 C319 1.363 . S
C324 C323 1.415 . S
C325 H301 0.951 . S
C325 C326 1.366 . S
C325 C327 1.388 . S
C326 C325 1.366 . S
C326 C330 1.385 . S
C327 H302 0.951 . S
C327 C325 1.388 . S
C327 C328 1.366 . S
C328 C327 1.366 . S
C328 C329 1.414 . S
C328 C331 1.499 . S
C329 H303 0.950 . S
C329 C328 1.414 . S
C329 C330 1.374 . S
C330 H304 0.950 . S
C330 C326 1.385 . S
C330 C329 1.374 . S
C331 C328 1.499 . S
C331 C332 1.373 . S
C331 C333 1.389 . S
C332 H305 0.950 . S
C332 C318 1.377 . S
C332 C331 1.373 . S
C333 C317 1.377 . S
C333 C331 1.389 . S
C333 C334 1.524 . S
C334 C333 1.524 . S
C334 C335 1.397 . S
C334 C339 1.363 . S
C335 H306 0.950 . S
C335 C334 1.397 . S
C335 C336 1.334 . S
C336 H307 0.950 . S
C336 C335 1.334 . S
C336 C337 1.287 . S
C337 C336 1.287 . S
C337 C338 1.524 . S
C337 H340 0.999 . S
C338 H308 0.950 . S
C338 C337 1.524 . S
C338 C339 1.415 . S
C339 H309 0.950 . S
C339 C334 1.363 . S
C339 C338 1.415 . S
H340 C337 0.999 . S
H341 C322 0.913 . S
H342 C360 0.951 . S
H343 C362 0.951 . S
H344 C364 0.950 . S
H345 C365 0.950 . S
H346 C367 0.950 . S
H347 C370 0.950 . S
H348 C371 0.950 . S
H349 C373 0.950 . S
H350 C374 0.950 . S
H351 C375 0.951 . S
H352 C377 0.951 . S
H353 C379 0.950 . S
H354 C380 0.950 . S
H355 C382 0.950 . S
H356 C385 0.950 . S
H357 C386 0.950 . S
H358 C388 0.950 . S
H359 C389 0.950 . S
C360 H342 0.951 . S
C360 C361 1.366 . S
C360 C362 1.388 . S
C361 C360 1.366 . S
C361 C365 1.385 . S
C362 H343 0.951 . S
C362 C360 1.388 . S
C362 C363 1.366 . S
C363 C362 1.366 . S
C363 C364 1.414 . S
C363 C366 1.499 . S
C364 H344 0.950 . S
C364 C363 1.414 . S
C364 C365 1.374 . S
C365 H345 0.950 . S
C365 C361 1.385 . S
C365 C364 1.374 . S
C366 C363 1.499 . S
C366 C367 1.373 . S
C366 C368 1.389 . S
C367 H346 0.950 . S
C367 C366 1.373 . S
C367 C383 1.377 . S
C368 C366 1.389 . S
C368 C369 1.524 . S
C368 C382 1.377 . S
C369 C368 1.524 . S
C369 C370 1.397 . S
C369 C374 1.363 . S
C370 H347 0.950 . S
C370 C369 1.397 . S
C370 C371 1.334 . S
C371 H348 0.950 . S
C371 C370 1.334 . S
C371 C372 1.287 . S
C372 C371 1.287 . S
C372 C373 1.524 . S
C372 H391 0.913 . S
C373 H349 0.950 . S
C373 C372 1.524 . S
C373 C374 1.415 . S
C374 H350 0.950 . S
C374 C369 1.363 . S
C374 C373 1.415 . S
C375 H351 0.951 . S
C375 C376 1.366 . S
C375 C377 1.388 . S
C376 C375 1.366 . S
C376 C380 1.385 . S
C377 H352 0.951 . S
C377 C375 1.388 . S
C377 C378 1.366 . S
C378 C377 1.366 . S
C378 C379 1.414 . S
C378 C381 1.499 . S
C379 H353 0.950 . S
C379 C378 1.414 . S
C379 C380 1.374 . S
C380 H354 0.950 . S
C380 C376 1.385 . S
C380 C379 1.374 . S
C381 C378 1.499 . S
C381 C382 1.373 . S
C381 C383 1.389 . S
C382 H355 0.950 . S
C382 C368 1.377 . S
C382 C381 1.373 . S
C383 C367 1.377 . S
C383 C381 1.389 . S
C383 C384 1.524 . S
C384 C383 1.524 . S
C384 C385 1.397 . S
C384 C389 1.363 . S
C385 H356 0.950 . S
C385 C384 1.397 . S
C385 C386 1.334 . S
C386 H357 0.950 . S
C386 C385 1.334 . S
C386 C387 1.287 . S
C387 C386 1.287 . S
C387 C388 1.524 . S
C387 H390 0.999 . S
C388 H358 0.950 . S
C388 C387 1.524 . S
C388 C389 1.415 . S
C389 H359 0.950 . S
C389 C384 1.363 . S
C389 C388 1.415 . S
H390 C387 0.999 . S
H391 C372 0.913 . S
H392 C410 0.951 . S
H393 C412 0.951 . S
H394 C414 0.950 . S
H395 C415 0.950 . S
H396 C417 0.950 . S
H397 C420 0.950 . S
H398 C421 0.950 . S
H399 C423 0.950 . S
H400 C424 0.950 . S
H401 C425 0.951 . S
H402 C427 0.951 . S
H403 C429 0.950 . S
H404 C430 0.950 . S
H405 C432 0.950 . S
H406 C435 0.950 . S
H407 C436 0.950 . S
H408 C438 0.950 . S
H409 C439 0.950 . S
C410 H392 0.951 . S
C410 C411 1.366 . S
C410 C412 1.388 . S
C411 C410 1.366 . S
C411 C415 1.385 . S
C412 H393 0.951 . S
C412 C410 1.388 . S
C412 C413 1.366 . S
C413 C412 1.366 . S
C413 C414 1.414 . S
C413 C416 1.499 . S
C414 H394 0.950 . S
C414 C413 1.414 . S
C414 C415 1.374 . S
C415 H395 0.950 . S
C415 C411 1.385 . S
C415 C414 1.374 . S
C416 C413 1.499 . S
C416 C417 1.373 . S
C416 C418 1.389 . S
C417 H396 0.950 . S
C417 C416 1.373 . S
C417 C433 1.377 . S
C418 C416 1.389 . S
C418 C419 1.524 . S
C418 C432 1.377 . S
C419 C418 1.524 . S
C419 C420 1.397 . S
C419 C424 1.363 . S
C420 H397 0.950 . S
C420 C419 1.397 . S
C420 C421 1.334 . S
C421 H398 0.950 . S
C421 C420 1.334 . S
C421 C422 1.287 . S
C422 C421 1.287 . S
C422 C423 1.524 . S
C422 H441 0.913 . S
C423 H399 0.950 . S
C423 C422 1.524 . S
C423 C424 1.415 . S
C424 H400 0.950 . S
C424 C419 1.363 . S
C424 C423 1.415 . S
C425 H401 0.951 . S
C425 C426 1.366 . S
C425 C427 1.388 . S
C426 C425 1.366 . S
C426 C430 1.385 . S
C427 H402 0.951 . S
C427 C425 1.388 . S
C427 C428 1.366 . S
C428 C427 1.366 . S
C428 C429 1.414 . S
C428 C431 1.499 . S
C429 H403 0.950 . S
C429 C428 1.414 . S
C429 C430 1.374 . S
C430 H404 0.950 . S
C430 C426 1.385 . S
C430 C429 1.374 . S
C431 C428 1.499 . S
C431 C432 1.373 . S
C431 C433 1.389 . S
C432 H405 0.950 . S
C432 C418 1.377 . S
C432 C431 1.373 . S
C433 C417 1.377 . S
C433 C431 1.389 . S
C433 C434 1.524 . S
C434 C433 1.524 . S
C434 C435 1.397 . S
C434 C439 1.363 . S
C435 H406 0.950 . S
C435 C434 1.397 . S
C435 C436 1.334 . S
C436 H407 0.950 . S
C436 C435 1.334 . S
C436 C437 1.287 . S
C437 C436 1.287 . S
C437 C438 1.524 . S
C437 H440 0.999 . S
C438 H408 0.950 . S
C438 C437 1.524 . S
C438 C439 1.415 . S
C439 H409 0.950 . S
C439 C434 1.363 . S
C439 C438 1.415 . S
H440 C437 0.999 . S
H441 C422 0.913 . S
H442 C460 0.951 . S
H443 C462 0.951 . S
H444 C464 0.950 . S
H445 C465 0.950 . S
H446 C467 0.950 . S
H447 C470 0.950 . S
H448 C471 0.950 . S
H449 C473 0.950 . S
H450 C474 0.950 . S
H451 C475 0.951 . S
H452 C477 0.951 . S
H453 C479 0.950 . S
H454 C480 0.950 . S
H455 C482 0.950 . S
H456 C485 0.950 . S
H457 C486 0.950 . S
H458 C488 0.950 . S
H459 C489 0.950 . S
C460 H442 0.951 . S
C460 C461 1.366 . S
C460 C462 1.388 . S
C461 C460 1.366 . S
C461 C465 1.385 . S
C462 H443 0.951 . S
C462 C460 1.388 . S
C462 C463 1.366 . S
C463 C462 1.366 . S
C463 C464 1.414 . S
C463 C466 1.499 . S
C464 H444 0.950 . S
C464 C463 1.414 . S
C464 C465 1.374 . S
C465 H445 0.950 . S
C465 C461 1.385 . S
C465 C464 1.374 . S
C466 C463 1.499 . S
C466 C467 1.373 . S
C466 C468 1.389 . S
C467 H446 0.950 . S
C467 C466 1.373 . S
C467 C483 1.377 . S
C468 C466 1.389 . S
C468 C469 1.524 . S
C468 C482 1.377 . S
C469 C468 1.524 . S
C469 C470 1.397 . S
C469 C474 1.363 . S
C470 H447 0.950 . S
C470 C469 1.397 . S
C470 C471 1.334 . S
C471 H448 0.950 . S
C471 C470 1.334 . S
C471 C472 1.287 . S
C472 C471 1.287 . S
C472 C473 1.524 . S
C472 H491 0.913 . S
C473 H449 0.950 . S
C473 C472 1.524 . S
C473 C474 1.415 . S
C474 H450 0.950 . S
C474 C469 1.363 . S
C474 C473 1.415 . S
C475 H451 0.951 . S
C475 C476 1.366 . S
C475 C477 1.388 . S
C476 C475 1.366 . S
C476 C480 1.385 . S
C477 H452 0.951 . S
C477 C475 1.388 . S
C477 C478 1.366 . S
C478 C477 1.366 . S
C478 C479 1.414 . S
C478 C481 1.499 . S
C479 H453 0.950 . S
C479 C478 1.414 . S
C479 C480 1.374 . S
C480 H454 0.950 . S
C480 C476 1.385 . S
C480 C479 1.374 . S
C481 C478 1.499 . S
C481 C482 1.373 . S
C481 C483 1.389 . S
C482 H455 0.950 . S
C482 C468 1.377 . S
C482 C481 1.373 . S
C483 C467 1.377 . S
C483 C481 1.389 . S
C483 C484 1.524 . S
C484 C483 1.524 . S
C484 C485 1.397 . S
C484 C489 1.363 . S
C485 H456 0.950 . S
C485 C484 1.397 . S
C485 C486 1.334 . S
C486 H457 0.950 . S
C486 C485 1.334 . S
C486 C487 1.287 . S
C487 C486 1.287 . S
C487 C488 1.524 . S
C487 H490 0.999 . S
C488 H458 0.950 . S
C488 C487 1.524 . S
C488 C489 1.415 . S
C489 H459 0.950 . S
C489 C484 1.363 . S
C489 C488 1.415 . S
H490 C487 0.999 . S
H491 C472 0.913 . S
H492 C510 0.951 . S
H493 C512 0.951 . S
H494 C514 0.950 . S
H495 C515 0.950 . S
H496 C517 0.950 . S
H497 C520 0.950 . S
H498 C521 0.950 . S
H499 C523 0.950 . S
H500 C524 0.950 . S
H501 C525 0.951 . S
H502 C527 0.951 . S
H503 C529 0.950 . S
H504 C530 0.950 . S
H505 C532 0.950 . S
H506 C535 0.950 . S
H507 C536 0.950 . S
H508 C538 0.950 . S
H509 C539 0.950 . S
C510 H492 0.951 . S
C510 C511 1.366 . S
C510 C512 1.388 . S
C511 C510 1.366 . S
C511 C515 1.385 . S
C512 H493 0.951 . S
C512 C510 1.388 . S
C512 C513 1.366 . S
C513 C512 1.366 . S
C513 C514 1.414 . S
C513 C516 1.499 . S
C514 H494 0.950 . S
C514 C513 1.414 . S
C514 C515 1.374 . S
C515 H495 0.950 . S
C515 C511 1.385 . S
C515 C514 1.374 . S
C516 C513 1.499 . S
C516 C517 1.373 . S
C516 C518 1.389 . S
C517 H496 0.950 . S
C517 C516 1.373 . S
C517 C533 1.377 . S
C518 C516 1.389 . S
C518 C519 1.524 . S
C518 C532 1.377 . S
C519 C518 1.524 . S
C519 C520 1.397 . S
C519 C524 1.363 . S
C520 H497 0.950 . S
C520 C519 1.397 . S
C520 C521 1.334 . S
C521 H498 0.950 . S
C521 C520 1.334 . S
C521 C522 1.287 . S
C522 C521 1.287 . S
C522 C523 1.524 . S
C522 H541 0.913 . S
C523 H499 0.950 . S
C523 C522 1.524 . S
C523 C524 1.415 . S
C524 H500 0.950 . S
C524 C519 1.363 . S
C524 C523 1.415 . S
C525 H501 0.951 . S
C525 C526 1.366 . S
C525 C527 1.388 1_565 S
C526 C525 1.366 . S
C526 C530 1.385 . S
C527 H502 0.951 . S
C527 C525 1.388 1_545 S
C527 C528 1.366 . S
C528 C527 1.366 . S
C528 C529 1.414 1_545 S
C528 C531 1.499 . S
C529 H503 0.950 . S
C529 C528 1.414 1_565 S
C529 C530 1.374 . S
C530 H504 0.950 . S
C530 C526 1.385 . S
C530 C529 1.374 . S
C531 C528 1.499 . S
C531 C532 1.373 . S
C531 C533 1.389 . S
C532 H505 0.950 . S
C532 C518 1.377 . S
C532 C531 1.373 . S
C533 C517 1.377 . S
C533 C531 1.389 . S
C533 C534 1.524 . S
C534 C533 1.524 . S
C534 C535 1.397 . S
C534 C539 1.363 . S
C535 H506 0.950 . S
C535 C534 1.397 . S
C535 C536 1.334 1_545 S
C536 H507 0.950 . S
C536 C535 1.334 1_565 S
C536 C537 1.287 1_565 S
C537 C536 1.287 1_545 S
C537 C538 1.524 . S
C537 H540 0.999 1_545 S
C538 H508 0.950 . S
C538 C537 1.524 . S
C538 C539 1.415 . S
C539 H509 0.950 . S
C539 C534 1.363 . S
C539 C538 1.415 . S
H540 C537 0.999 1_565 S
H541 C522 0.913 . S
H542 C560 0.951 . S
H543 C562 0.951 . S
H544 C564 0.950 . S
H545 C565 0.950 . S
H546 C567 0.950 . S
H547 C570 0.950 . S
H548 C571 0.950 . S
H549 C573 0.950 . S
H550 C574 0.950 . S
H551 C575 0.951 . S
H552 C577 0.951 . S
H553 C579 0.950 . S
H554 C580 0.950 . S
H555 C582 0.950 . S
H556 C585 0.950 . S
H557 C586 0.950 . S
H558 C588 0.950 . S
H559 C589 0.950 . S
C560 H542 0.951 . S
C560 C561 1.366 . S
C560 C562 1.388 1_655 S
C561 C560 1.366 . S
C561 C565 1.385 . S
C562 H543 0.951 . S
C562 C560 1.388 1_455 S
C562 C563 1.366 . S
C563 C562 1.366 . S
C563 C564 1.414 1_455 S
C563 C566 1.499 . S
C564 H544 0.950 . S
C564 C563 1.414 1_655 S
C564 C565 1.374 . S
C565 H545 0.950 . S
C565 C561 1.385 . S
C565 C564 1.374 . S
C566 C563 1.499 . S
C566 C567 1.373 . S
C566 C568 1.389 . S
C567 H546 0.950 . S
C567 C566 1.373 . S
C567 C583 1.377 . S
C568 C566 1.389 . S
C568 C569 1.524 . S
C568 C582 1.377 . S
C569 C568 1.524 . S
C569 C570 1.397 . S
C569 C574 1.363 . S
C570 H547 0.950 . S
C570 C569 1.397 . S
C570 C571 1.334 . S
C571 H548 0.950 . S
C571 C570 1.334 . S
C571 C572 1.287 . S
C572 C571 1.287 . S
C572 C573 1.524 . S
C572 H591 0.913 . S
C573 H549 0.950 . S
C573 C572 1.524 . S
C573 C574 1.415 . S
C574 H550 0.950 . S
C574 C569 1.363 . S
C574 C573 1.415 . S
C575 H551 0.951 . S
C575 C576 1.366 . S
C575 C577 1.388 . S
C576 C575 1.366 . S
C576 C580 1.385 . S
C577 H552 0.951 . S
C577 C575 1.388 . S
C577 C578 1.366 . S
C578 C577 1.366 . S
C578 C579 1.414 . S
C578 C581 1.499 . S
C579 H553 0.950 . S
C579 C578 1.414 . S
C579 C580 1.374 . S
C580 H554 0.950 . S
C580 C576 1.385 . S
C580 C579 1.374 . S
C581 C578 1.499 . S
C581 C582 1.373 . S
C581 C583 1.389 . S
C582 H555 0.950 . S
C582 C568 1.377 . S
C582 C581 1.373 . S
C583 C567 1.377 . S
C583 C581 1.389 . S
C583 C584 1.524 . S
C584 C583 1.524 . S
C584 C585 1.397 . S
C584 C589 1.363 . S
C585 H556 0.950 . S
C585 C584 1.397 . S
C585 C586 1.334 . S
C586 H557 0.950 . S
C586 C585 1.334 . S
C586 C587 1.287 . S
C587 C586 1.287 . S
C587 C588 1.524 . S
C587 H590 0.999 . S
C588 H558 0.950 . S
C588 C587 1.524 . S
C588 C589 1.415 . S
C589 H559 0.950 . S
C589 C584 1.363 . S
C589 C588 1.415 . S
H590 C587 0.999 . S
H591 C572 0.913 . S
H592 C610 0.951 . S
H593 C612 0.951 . S
H594 C614 0.950 . S
H595 C615 0.950 . S
H596 C617 0.950 . S
H597 C620 0.950 . S
H598 C621 0.950 . S
H599 C623 0.950 . S
H600 C624 0.950 . S
H601 C625 0.951 . S
H602 C627 0.951 . S
H603 C629 0.950 . S
H604 C630 0.950 . S
H605 C632 0.950 . S
H606 C635 0.950 . S
H607 C636 0.950 . S
H608 C638 0.950 . S
H609 C639 0.950 . S
C610 H592 0.951 . S
C610 C611 1.366 . S
C610 C612 1.388 1_455 S
C611 C610 1.366 . S
C611 C615 1.385 . S
C612 H593 0.951 . S
C612 C610 1.388 1_655 S
C612 C613 1.366 . S
C613 C612 1.366 . S
C613 C614 1.414 1_655 S
C613 C616 1.499 . S
C614 H594 0.950 . S
C614 C613 1.414 1_455 S
C614 C615 1.374 . S
C615 H595 0.950 . S
C615 C611 1.385 . S
C615 C614 1.374 . S
C616 C613 1.499 . S
C616 C617 1.373 . S
C616 C618 1.389 . S
C617 H596 0.950 . S
C617 C616 1.373 . S
C617 C633 1.377 . S
C618 C616 1.389 . S
C618 C619 1.524 . S
C618 C632 1.377 . S
C619 C618 1.524 . S
C619 C620 1.397 . S
C619 C624 1.363 . S
C620 H597 0.950 . S
C620 C619 1.397 . S
C620 C621 1.334 . S
C621 H598 0.950 . S
C621 C620 1.334 . S
C621 C622 1.287 . S
C622 C621 1.287 . S
C622 C623 1.524 . S
C622 H641 0.913 . S
C623 H599 0.950 . S
C623 C622 1.524 . S
C623 C624 1.415 . S
C624 H600 0.950 . S
C624 C619 1.363 . S
C624 C623 1.415 . S
C625 H601 0.951 . S
C625 C626 1.366 . S
C625 C627 1.388 . S
C626 C625 1.366 . S
C626 C630 1.385 . S
C627 H602 0.951 . S
C627 C625 1.388 . S
C627 C628 1.366 1_565 S
C628 C627 1.366 1_545 S
C628 C629 1.414 . S
C628 C631 1.499 . S
C629 H603 0.950 . S
C629 C628 1.414 . S
C629 C630 1.374 1_545 S
C630 H604 0.950 . S
C630 C626 1.385 . S
C630 C629 1.374 1_565 S
C631 C628 1.499 . S
C631 C632 1.373 . S
C631 C633 1.389 . S
C632 H605 0.950 . S
C632 C618 1.377 . S
C632 C631 1.373 . S
C633 C617 1.377 . S
C633 C631 1.389 . S
C633 C634 1.524 . S
C634 C633 1.524 . S
C634 C635 1.397 . S
C634 C639 1.363 . S
C635 H606 0.950 . S
C635 C634 1.397 . S
C635 C636 1.334 1_545 S
C636 H607 0.950 . S
C636 C635 1.334 1_565 S
C636 C637 1.287 . S
C637 C636 1.287 . S
C637 C638 1.524 . S
C637 H640 0.999 . S
C638 H608 0.950 . S
C638 C637 1.524 . S
C638 C639 1.415 1_565 S
C639 H609 0.950 . S
C639 C634 1.363 . S
C639 C638 1.415 1_545 S
H640 C637 0.999 . S
H641 C622 0.913 . S
H642 C660 0.951 . S
H643 C662 0.951 . S
H644 C664 0.950 . S
H645 C665 0.950 . S
H646 C667 0.950 . S
H647 C670 0.950 . S
H648 C671 0.950 . S
H649 C673 0.950 . S
H650 C674 0.950 . S
H651 C675 0.951 . S
H652 C677 0.951 . S
H653 C679 0.950 . S
H654 C680 0.950 . S
H655 C682 0.950 . S
H656 C685 0.950 . S
H657 C686 0.950 . S
H658 C688 0.950 . S
H659 C689 0.950 . S
C660 H642 0.951 . S
C660 C661 1.366 . S
C660 C662 1.388 1_545 S
C661 C660 1.366 . S
C661 C665 1.385 . S
C662 H643 0.951 . S
C662 C660 1.388 1_565 S
C662 C663 1.366 . S
C663 C662 1.366 . S
C663 C664 1.414 1_565 S
C663 C666 1.499 . S
C664 H644 0.950 . S
C664 C663 1.414 1_545 S
C664 C665 1.374 . S
C665 H645 0.950 . S
C665 C661 1.385 . S
C665 C664 1.374 . S
C666 C663 1.499 . S
C666 C667 1.373 . S
C666 C668 1.389 . S
C667 H646 0.950 . S
C667 C666 1.373 . S
C667 C683 1.377 . S
C668 C666 1.389 . S
C668 C669 1.524 . S
C668 C682 1.377 . S
C669 C668 1.524 . S
C669 C670 1.397 . S
C669 C674 1.363 . S
C670 H647 0.950 . S
C670 C669 1.397 . S
C670 C671 1.334 . S
C671 H648 0.950 . S
C671 C670 1.334 . S
C671 C672 1.287 . S
C672 C671 1.287 . S
C672 C673 1.524 . S
C672 H691 0.913 . S
C673 H649 0.950 . S
C673 C672 1.524 . S
C673 C674 1.415 . S
C674 H650 0.950 . S
C674 C669 1.363 . S
C674 C673 1.415 . S
C675 H651 0.951 . S
C675 C676 1.366 . S
C675 C677 1.388 . S
C676 C675 1.366 . S
C676 C680 1.385 . S
C677 H652 0.951 . S
C677 C675 1.388 . S
C677 C678 1.366 . S
C678 C677 1.366 . S
C678 C679 1.414 . S
C678 C681 1.499 . S
C679 H653 0.950 . S
C679 C678 1.414 . S
C679 C680 1.374 . S
C680 H654 0.950 . S
C680 C676 1.385 . S
C680 C679 1.374 . S
C681 C678 1.499 . S
C681 C682 1.373 . S
C681 C683 1.389 . S
C682 H655 0.950 . S
C682 C668 1.377 . S
C682 C681 1.373 . S
C683 C667 1.377 . S
C683 C681 1.389 . S
C683 C684 1.524 . S
C684 C683 1.524 . S
C684 C685 1.397 . S
C684 C689 1.363 . S
C685 H656 0.950 . S
C685 C684 1.397 . S
C685 C686 1.334 . S
C686 H657 0.950 . S
C686 C685 1.334 . S
C686 C687 1.287 . S
C687 C686 1.287 . S
C687 C688 1.524 . S
C687 H690 0.999 . S
C688 H658 0.950 . S
C688 C687 1.524 . S
C688 C689 1.415 . S
C689 H659 0.950 . S
C689 C684 1.363 . S
C689 C688 1.415 . S
H690 C687 0.999 . S
H691 C672 0.913 . S
H692 C710 0.951 . S
H693 C712 0.951 . S
H694 C714 0.950 . S
H695 C715 0.950 . S
H696 C717 0.950 . S
H697 C720 0.950 . S
H698 C721 0.950 . S
H699 C723 0.950 . S
H700 C724 0.950 . S
H701 C725 0.951 . S
H702 C727 0.951 . S
H703 C729 0.950 . S
H704 C730 0.950 . S
H705 C732 0.950 . S
H706 C735 0.950 . S
H707 C736 0.950 . S
H708 C738 0.950 . S
H709 C739 0.950 . S
C710 H692 0.951 . S
C710 C711 1.366 . S
C710 C712 1.388 . S
C711 C710 1.366 . S
C711 C715 1.385 . S
C712 H693 0.951 . S
C712 C710 1.388 . S
C712 C713 1.366 . S
C713 C712 1.366 . S
C713 C714 1.414 . S
C713 C716 1.499 . S
C714 H694 0.950 . S
C714 C713 1.414 . S
C714 C715 1.374 . S
C715 H695 0.950 . S
C715 C711 1.385 . S
C715 C714 1.374 . S
C716 C713 1.499 . S
C716 C717 1.373 . S
C716 C718 1.389 . S
C717 H696 0.950 . S
C717 C716 1.373 . S
C717 C733 1.377 . S
C718 C716 1.389 . S
C718 C719 1.524 . S
C718 C732 1.377 . S
C719 C718 1.524 . S
C719 C720 1.397 . S
C719 C724 1.363 . S
C720 H697 0.950 . S
C720 C719 1.397 . S
C720 C721 1.334 . S
C721 H698 0.950 . S
C721 C720 1.334 . S
C721 C722 1.287 . S
C722 C721 1.287 . S
C722 C723 1.524 . S
C722 H741 0.913 . S
C723 H699 0.950 . S
C723 C722 1.524 . S
C723 C724 1.415 . S
C724 H700 0.950 . S
C724 C719 1.363 . S
C724 C723 1.415 . S
C725 H701 0.951 . S
C725 C726 1.366 . S
C725 C727 1.388 1_455 S
C726 C725 1.366 . S
C726 C730 1.385 . S
C727 H702 0.951 . S
C727 C725 1.388 1_655 S
C727 C728 1.366 . S
C728 C727 1.366 . S
C728 C729 1.414 1_655 S
C728 C731 1.499 . S
C729 H703 0.950 . S
C729 C728 1.414 1_455 S
C729 C730 1.374 . S
C730 H704 0.950 . S
C730 C726 1.385 . S
C730 C729 1.374 . S
C731 C728 1.499 . S
C731 C732 1.373 . S
C731 C733 1.389 . S
C732 H705 0.950 . S
C732 C718 1.377 . S
C732 C731 1.373 . S
C733 C717 1.377 . S
C733 C731 1.389 . S
C733 C734 1.524 . S
C734 C733 1.524 . S
C734 C735 1.397 . S
C734 C739 1.363 . S
C735 H706 0.950 . S
C735 C734 1.397 . S
C735 C736 1.334 . S
C736 H707 0.950 . S
C736 C735 1.334 . S
C736 C737 1.287 . S
C737 C736 1.287 . S
C737 C738 1.524 . S
C737 H740 0.999 . S
C738 H708 0.950 . S
C738 C737 1.524 . S
C738 C739 1.415 . S
C739 H709 0.950 . S
C739 C734 1.363 . S
C739 C738 1.415 . S
H740 C737 0.999 . S
H741 C722 0.913 . S
H742 C760 0.951 . S
H743 C762 0.951 . S
H744 C764 0.950 . S
H745 C765 0.950 . S
H746 C767 0.950 . S
H747 C770 0.950 . S
H748 C771 0.950 . S
H749 C773 0.950 . S
H750 C774 0.950 . S
H751 C775 0.951 . S
H752 C777 0.951 . S
H753 C779 0.952 . S
H754 C780 0.950 . S
H755 C782 0.950 . S
H756 C785 0.950 . S
H757 C786 0.950 . S
H758 C788 0.950 . S
H759 C789 0.950 . S
C760 H742 0.951 . S
C760 C761 1.366 . S
C760 C762 1.388 1_545 S
C761 C760 1.366 . S
C761 C765 1.385 . S
C762 H743 0.951 . S
C762 C760 1.388 1_565 S
C762 C763 1.366 . S
C763 C762 1.366 . S
C763 C764 1.414 . S
C763 C766 1.499 . S
C764 H744 0.950 . S
C764 C763 1.414 . S
C764 C765 1.374 1_565 S
C765 H745 0.950 . S
C765 C761 1.385 . S
C765 C764 1.374 1_545 S
C766 C763 1.499 . S
C766 C767 1.373 . S
C766 C768 1.389 . S
C767 H746 0.950 . S
C767 C766 1.373 . S
C767 C783 1.377 . S
C768 C766 1.389 . S
C768 C769 1.524 . S
C768 C782 1.377 . S
C769 C768 1.524 . S
C769 C770 1.397 . S
C769 C774 1.363 . S
C770 H747 0.950 . S
C770 C769 1.397 . S
C770 C771 1.334 . S
C771 H748 0.950 . S
C771 C770 1.334 . S
C771 C772 1.287 . S
C772 C771 1.287 . S
C772 C773 1.524 . S
C772 H791 0.913 . S
C773 H749 0.950 . S
C773 C772 1.524 . S
C773 C774 1.415 . S
C774 H750 0.950 . S
C774 C769 1.363 . S
C774 C773 1.415 . S
C775 H751 0.951 . S
C775 C776 1.366 . S
C775 C777 1.388 1_655 S
C776 C775 1.366 . S
C776 C780 1.385 . S
C777 H752 0.951 . S
C777 C775 1.388 1_455 S
C777 C778 1.366 . S
C778 C777 1.366 . S
C778 C779 1.415 . S
C778 C781 1.499 . S
C779 H753 0.952 . S
C779 C778 1.415 . S
C779 C780 1.371 1_455 S
C780 H754 0.950 . S
C780 C776 1.385 . S
C780 C779 1.371 1_655 S
C781 C778 1.499 . S
C781 C782 1.373 . S
C781 C783 1.389 . S
C782 H755 0.950 . S
C782 C768 1.377 . S
C782 C781 1.373 . S
C783 C767 1.377 . S
C783 C781 1.389 . S
C783 C784 1.524 . S
C784 C783 1.524 . S
C784 C785 1.397 1_455 S
C784 C789 1.363 . S
C785 H756 0.950 . S
C785 C784 1.397 1_655 S
C785 C786 1.334 . S
C786 H757 0.950 . S
C786 C785 1.334 . S
C786 C787 1.287 . S
C787 C786 1.287 . S
C787 C788 1.524 1_655 S
C787 H790 0.999 . S
C788 H758 0.950 . S
C788 C787 1.524 1_455 S
C788 C789 1.415 . S
C789 H759 0.950 . S
C789 C784 1.363 . S
C789 C788 1.415 . S
H790 C787 0.999 . S
H791 C772 0.913 . S
H792 C810 0.951 . S
H793 C812 0.951 . S
H794 C814 0.950 . S
H795 C815 0.950 . S
H796 C817 0.950 . S
H797 C820 0.943 1_554 S
H798 C821 0.952 . S
H799 C823 0.950 . S
H800 C824 0.950 . S
H801 C825 0.951 . S
H802 C827 0.951 . S
H803 C829 0.950 . S
H804 C830 0.950 . S
H805 C832 0.950 . S
H806 C835 0.943 1_556 S
H807 C836 0.952 . S
H808 C838 0.950 . S
H809 C839 0.950 . S
C810 H792 0.951 . S
C810 C811 1.366 . S
C810 C812 1.388 . S
C811 C810 1.366 . S
C811 C815 1.385 . S
C812 H793 0.951 . S
C812 C810 1.388 . S
C812 C813 1.366 . S
C813 C812 1.366 . S
C813 C814 1.414 . S
C813 C816 1.499 . S
C814 H794 0.950 . S
C814 C813 1.414 . S
C814 C815 1.374 . S
C815 H795 0.950 . S
C815 C811 1.385 . S
C815 C814 1.374 . S
C816 C813 1.499 . S
C816 C817 1.373 . S
C816 C818 1.389 1_554 S
C817 H796 0.950 . S
C817 C816 1.373 . S
C817 C833 1.377 . S
C818 C816 1.389 1_556 S
C818 C819 1.524 . S
C818 C832 1.377 . S
C819 C818 1.524 . S
C819 C820 1.401 . S
C819 C824 1.363 . S
C820 H797 0.943 1_556 S
C820 C819 1.401 . S
C820 C821 1.338 . S
C821 H798 0.952 . S
C821 C820 1.338 . S
C821 C822 1.287 . S
C822 C821 1.287 . S
C822 C823 1.524 . S
C822 H841 0.913 . S
C823 H799 0.950 . S
C823 C822 1.524 . S
C823 C824 1.415 . S
C824 H800 0.950 . S
C824 C819 1.363 . S
C824 C823 1.415 . S
C825 H801 0.951 . S
C825 C826 1.366 . S
C825 C827 1.388 . S
C826 C825 1.366 . S
C826 C830 1.385 . S
C827 H802 0.951 . S
C827 C825 1.388 . S
C827 C828 1.366 . S
C828 C827 1.366 . S
C828 C829 1.414 . S
C828 C831 1.499 . S
C829 H803 0.950 . S
C829 C828 1.414 . S
C829 C830 1.374 . S
C830 H804 0.950 . S
C830 C826 1.385 . S
C830 C829 1.374 . S
C831 C828 1.499 . S
C831 C832 1.373 . S
C831 C833 1.389 1_556 S
C832 H805 0.950 . S
C832 C818 1.377 . S
C832 C831 1.373 . S
C833 C817 1.377 . S
C833 C831 1.389 1_554 S
C833 C834 1.524 . S
C834 C833 1.524 . S
C834 C835 1.401 . S
C834 C839 1.363 . S
C835 H806 0.943 1_554 S
C835 C834 1.401 . S
C835 C836 1.338 . S
C836 H807 0.952 . S
C836 C835 1.338 . S
C836 C837 1.287 . S
C837 C836 1.287 . S
C837 C838 1.524 . S
C837 H840 0.999 . S
C838 H808 0.950 . S
C838 C837 1.524 . S
C838 C839 1.415 . S
C839 H809 0.950 . S
C839 C834 1.363 . S
C839 C838 1.415 . S
H840 C837 0.999 . S
H841 C822 0.913 . S
H842 C860 0.951 . S
H843 C862 0.951 . S
H844 C864 0.950 . S
H845 C865 0.950 . S
H846 C867 0.950 . S
H847 C870 0.950 1_655 S
H848 C871 0.950 1_655 S
H849 C873 0.950 . S
H850 C874 0.950 . S
H851 C875 0.951 . S
H852 C877 0.951 . S
H853 C879 0.950 . S
H854 C880 0.950 . S
H855 C882 0.950 . S
H856 C885 0.950 1_455 S
H857 C886 0.950 1_455 S
H858 C888 0.950 . S
H859 C889 0.950 . S
C860 H842 0.951 . S
C860 C861 1.366 . S
C860 C862 1.388 . S
C861 C860 1.366 . S
C861 C865 1.385 . S
C862 H843 0.951 . S
C862 C860 1.388 . S
C862 C863 1.366 . S
C863 C862 1.366 . S
C863 C864 1.414 . S
C863 C866 1.499 . S
C864 H844 0.950 . S
C864 C863 1.414 . S
C864 C865 1.374 . S
C865 H845 0.950 . S
C865 C861 1.385 . S
C865 C864 1.374 . S
C866 C863 1.499 . S
C866 C867 1.373 . S
C866 C868 1.389 1_655 S
C867 H846 0.950 . S
C867 C866 1.373 . S
C867 C883 1.377 . S
C868 C866 1.389 1_455 S
C868 C869 1.524 . S
C868 C882 1.377 . S
C869 C868 1.524 . S
C869 C870 1.397 . S
C869 C874 1.363 . S
C870 H847 0.950 1_455 S
C870 C869 1.397 . S
C870 C871 1.334 . S
C871 H848 0.950 1_455 S
C871 C870 1.334 . S
C871 C872 1.287 . S
C872 C871 1.287 . S
C872 C873 1.524 . S
C872 H891 0.913 . S
C873 H849 0.950 . S
C873 C872 1.524 . S
C873 C874 1.415 . S
C874 H850 0.950 . S
C874 C869 1.363 . S
C874 C873 1.415 . S
C875 H851 0.951 . S
C875 C876 1.366 . S
C875 C877 1.388 . S
C876 C875 1.366 . S
C876 C880 1.385 . S
C877 H852 0.951 . S
C877 C875 1.388 . S
C877 C878 1.366 . S
C878 C877 1.366 . S
C878 C879 1.414 . S
C878 C881 1.499 . S
C879 H853 0.950 . S
C879 C878 1.414 . S
C879 C880 1.374 . S
C880 H854 0.950 . S
C880 C876 1.385 . S
C880 C879 1.374 . S
C881 C878 1.499 . S
C881 C882 1.373 . S
C881 C883 1.389 1_455 S
C882 H855 0.950 . S
C882 C868 1.377 . S
C882 C881 1.373 . S
C883 C867 1.377 . S
C883 C881 1.389 1_655 S
C883 C884 1.524 . S
C884 C883 1.524 . S
C884 C885 1.397 . S
C884 C889 1.363 . S
C885 H856 0.950 1_655 S
C885 C884 1.397 . S
C885 C886 1.334 . S
C886 H857 0.950 1_655 S
C886 C885 1.334 . S
C886 C887 1.287 . S
C887 C886 1.287 . S
C887 C888 1.524 . S
C887 H890 0.999 . S
C888 H858 0.950 . S
C888 C887 1.524 . S
C888 C889 1.415 . S
C889 H859 0.950 . S
C889 C884 1.363 . S
C889 C888 1.415 . S
H890 C887 0.999 . S
H891 C872 0.913 . S
H892 C910 0.951 . S
H893 C912 0.951 . S
H894 C914 0.950 . S
H895 C915 0.950 . S
H896 C917 0.950 . S
H897 C920 0.950 . S
H898 C921 0.950 . S
H899 C923 0.950 . S
H900 C924 0.950 . S
H901 C925 0.951 . S
H902 C927 0.951 . S
H903 C929 0.950 . S
H904 C930 0.950 . S
H905 C932 0.950 . S
H906 C935 0.950 . S
H907 C936 0.950 . S
H908 C938 0.950 . S
H909 C939 0.950 . S
C910 H892 0.951 . S
C910 C911 1.366 . S
C910 C912 1.388 . S
C911 C910 1.366 . S
C911 C915 1.385 . S
C912 H893 0.951 . S
C912 C910 1.388 . S
C912 C913 1.366 . S
C913 C912 1.366 . S
C913 C914 1.414 . S
C913 C916 1.499 . S
C914 H894 0.950 . S
C914 C913 1.414 . S
C914 C915 1.374 . S
C915 H895 0.950 . S
C915 C911 1.385 . S
C915 C914 1.374 . S
C916 C913 1.499 . S
C916 C917 1.373 1_565 S
C916 C918 1.377 1_554 S
C917 H896 0.950 . S
C917 C916 1.373 1_545 S
C917 C933 1.389 . S
C918 C916 1.377 1_556 S
C918 C919 1.525 . S
C918 C932 1.389 . S
C919 C918 1.525 . S
C919 C920 1.397 1_556 S
C919 C924 1.363 . S
C920 H897 0.950 . S
C920 C919 1.397 1_554 S
C920 C921 1.334 . S
C921 H898 0.950 . S
C921 C920 1.334 . S
C921 C922 1.287 1_554 S
C922 C921 1.287 1_556 S
C922 C923 1.524 . S
C922 H941 0.913 . S
C923 H899 0.950 . S
C923 C922 1.524 . S
C923 C924 1.415 . S
C924 H900 0.950 . S
C924 C919 1.363 . S
C924 C923 1.415 . S
C925 H901 0.951 . S
C925 C926 1.366 . S
C925 C927 1.388 . S
C926 C925 1.366 . S
C926 C930 1.385 . S
C927 H902 0.951 . S
C927 C925 1.388 . S
C927 C928 1.366 . S
C928 C927 1.366 . S
C928 C929 1.414 . S
C928 C931 1.499 . S
C929 H903 0.950 . S
C929 C928 1.414 . S
C929 C930 1.374 . S
C930 H904 0.950 . S
C930 C926 1.385 . S
C930 C929 1.374 . S
C931 C928 1.499 . S
C931 C932 1.373 1_545 S
C931 C933 1.377 1_556 S
C932 H905 0.950 . S
C932 C918 1.389 . S
C932 C931 1.373 1_565 S
C933 C917 1.389 . S
C933 C931 1.377 1_554 S
C933 C934 1.525 . S
C934 C933 1.525 . S
C934 C935 1.397 1_554 S
C934 C939 1.363 . S
C935 H906 0.950 . S
C935 C934 1.397 1_556 S
C935 C936 1.334 . S
C936 H907 0.950 . S
C936 C935 1.334 . S
C936 C937 1.287 1_556 S
C937 C936 1.287 1_554 S
C937 C938 1.524 . S
C937 H940 0.999 . S
C938 H908 0.950 . S
C938 C937 1.524 . S
C938 C939 1.415 . S
C939 H909 0.950 . S
C939 C934 1.363 . S
C939 C938 1.415 . S
H940 C937 0.999 . S
H941 C922 0.913 . S
H942 C960 0.951 . S
H943 C962 0.951 . S
H944 C964 0.950 . S
H945 C965 0.950 . S
H946 C967 0.950 . S
H947 C970 0.950 . S
H948 C971 0.950 . S
H949 C973 0.950 . S
H950 C974 0.950 . S
H951 C975 0.951 . S
H952 C977 0.951 . S
H953 C979 0.950 . S
H954 C980 0.950 . S
H955 C982 0.950 . S
H956 C985 0.950 . S
H957 C986 0.950 . S
H958 C988 0.950 . S
H959 C989 0.950 . S
C960 H942 0.951 . S
C960 C961 1.366 . S
C960 C962 1.388 . S
C961 C960 1.366 . S
C961 C965 1.385 . S
C962 H943 0.951 . S
C962 C960 1.388 . S
C962 C963 1.366 . S
C963 C962 1.366 . S
C963 C964 1.414 . S
C963 C966 1.499 . S
C964 H944 0.950 . S
C964 C963 1.414 . S
C964 C965 1.374 . S
C965 H945 0.950 . S
C965 C961 1.385 . S
C965 C964 1.374 . S
C966 C963 1.499 . S
C966 C967 1.373 . S
C966 C968 1.389 . S
C967 H946 0.950 . S
C967 C966 1.373 . S
C967 C983 1.377 . S
C968 C966 1.389 . S
C968 C969 1.524 . S
C968 C982 1.377 . S
C969 C968 1.524 . S
C969 C970 1.397 . S
C969 C974 1.363 . S
C970 H947 0.950 . S
C970 C969 1.397 . S
C970 C971 1.334 . S
C971 H948 0.950 . S
C971 C970 1.334 . S
C971 C972 1.287 . S
C972 C971 1.287 . S
C972 C973 1.524 . S
C972 H991 0.913 . S
C973 H949 0.950 . S
C973 C972 1.524 . S
C973 C974 1.415 . S
C974 H950 0.950 . S
C974 C969 1.363 . S
C974 C973 1.415 . S
C975 H951 0.951 . S
C975 C976 1.366 . S
C975 C977 1.388 . S
C976 C975 1.366 . S
C976 C980 1.385 . S
C977 H952 0.951 . S
C977 C975 1.388 . S
C977 C978 1.366 . S
C978 C977 1.366 . S
C978 C979 1.414 . S
C978 C981 1.499 . S
C979 H953 0.950 . S
C979 C978 1.414 . S
C979 C980 1.374 . S
C980 H954 0.950 . S
C980 C976 1.385 . S
C980 C979 1.374 . S
C981 C978 1.499 . S
C981 C982 1.373 . S
C981 C983 1.389 . S
C982 H955 0.950 . S
C982 C968 1.377 . S
C982 C981 1.373 . S
C983 C967 1.377 . S
C983 C981 1.389 . S
C983 C984 1.524 . S
C984 C983 1.524 . S
C984 C985 1.397 . S
C984 C989 1.363 . S
C985 H956 0.950 . S
C985 C984 1.397 . S
C985 C986 1.334 . S
C986 H957 0.950 . S
C986 C985 1.334 . S
C986 C987 1.287 . S
C987 C986 1.287 . S
C987 C988 1.524 . S
C987 H990 0.999 . S
C988 H958 0.950 . S
C988 C987 1.524 . S
C988 C989 1.415 . S
C989 H959 0.950 . S
C989 C984 1.363 . S
C989 C988 1.415 . S
H990 C987 0.999 . S
H991 C972 0.913 . S
H992 C1010 0.951 . S
H993 C1012 0.951 . S
H994 C1014 0.950 . S
H995 C1015 0.950 . S
H996 C1017 0.950 . S
H997 C1020 0.950 . S
H998 C1021 0.950 . S
H999 C1023 0.950 . S
H1000 C1024 0.950 . S
H1001 C1025 0.951 . S
H1002 C1027 0.951 . S
H1003 C1029 0.950 . S
H1004 C1030 0.950 . S
H1005 C1032 0.950 . S
H1006 C1035 0.950 . S
H1007 C1036 0.950 . S
H1008 C1038 0.950 . S
H1009 C1039 0.950 . S
C1010 H992 0.951 . S
C1010 C1011 1.366 . S
C1010 C1012 1.388 . S
C1011 C1010 1.366 . S
C1011 C1015 1.385 . S
C1012 H993 0.951 . S
C1012 C1010 1.388 . S
C1012 C1013 1.366 . S
C1013 C1012 1.366 . S
C1013 C1014 1.414 . S
C1013 C1016 1.499 . S
C1014 H994 0.950 . S
C1014 C1013 1.414 . S
C1014 C1015 1.374 . S
C1015 H995 0.950 . S
C1015 C1011 1.385 . S
C1015 C1014 1.374 . S
C1016 C1013 1.499 . S
C1016 C1017 1.373 . S
C1016 C1018 1.389 . S
C1017 H996 0.950 . S
C1017 C1016 1.373 . S
C1017 C1033 1.377 1_656 S
C1018 C1016 1.389 . S
C1018 C1019 1.524 . S
C1018 C1032 1.377 1_656 S
C1019 C1018 1.524 . S
C1019 C1020 1.397 . S
C1019 C1024 1.363 . S
C1020 H997 0.950 . S
C1020 C1019 1.397 . S
C1020 C1021 1.334 . S
C1021 H998 0.950 . S
C1021 C1020 1.334 . S
C1021 C1022 1.287 . S
C1022 C1021 1.287 . S
C1022 C1023 1.524 . S
C1022 H1041 0.913 . S
C1023 H999 0.950 . S
C1023 C1022 1.524 . S
C1023 C1024 1.415 . S
C1024 H1000 0.950 . S
C1024 C1019 1.363 . S
C1024 C1023 1.415 . S
C1025 H1001 0.951 . S
C1025 C1026 1.366 . S
C1025 C1027 1.388 . S
C1026 C1025 1.366 . S
C1026 C1030 1.385 . S
C1027 H1002 0.951 . S
C1027 C1025 1.388 . S
C1027 C1028 1.366 . S
C1028 C1027 1.366 . S
C1028 C1029 1.414 . S
C1028 C1031 1.499 . S
C1029 H1003 0.950 . S
C1029 C1028 1.414 . S
C1029 C1030 1.374 . S
C1030 H1004 0.950 . S
C1030 C1026 1.385 . S
C1030 C1029 1.374 . S
C1031 C1028 1.499 . S
C1031 C1032 1.373 . S
C1031 C1033 1.389 . S
C1032 H1005 0.950 . S
C1032 C1018 1.377 1_454 S
C1032 C1031 1.373 . S
C1033 C1017 1.377 1_454 S
C1033 C1031 1.389 . S
C1033 C1034 1.524 . S
C1034 C1033 1.524 . S
C1034 C1035 1.397 . S
C1034 C1039 1.363 . S
C1035 H1006 0.950 . S
C1035 C1034 1.397 . S
C1035 C1036 1.334 . S
C1036 H1007 0.950 . S
C1036 C1035 1.334 . S
C1036 C1037 1.287 . S
C1037 C1036 1.287 . S
C1037 C1038 1.524 . S
C1037 H1040 0.999 . S
C1038 H1008 0.950 . S
C1038 C1037 1.524 . S
C1038 C1039 1.415 . S
C1039 H1009 0.950 . S
C1039 C1034 1.363 . S
C1039 C1038 1.415 . S
H1040 C1037 0.999 . S
H1041 C1022 0.913 . S
H1042 C1060 0.951 . S
H1043 C1062 0.951 . S
H1044 C1064 0.950 . S
H1045 C1065 0.950 . S
H1046 C1067 0.950 . S
H1047 C1070 0.950 . S
H1048 C1071 0.950 . S
H1049 C1073 0.950 . S
H1050 C1074 0.950 . S
H1051 C1075 0.951 . S
H1052 C1077 0.951 . S
H1053 C1079 0.950 . S
H1054 C1080 0.950 . S
H1055 C1082 0.950 . S
H1056 C1085 0.950 . S
H1057 C1086 0.950 . S
H1058 C1088 0.950 . S
H1059 C1089 0.950 . S
C1060 H1042 0.951 . S
C1060 C1061 1.366 . S
C1060 C1062 1.388 . S
C1061 C1060 1.366 . S
C1061 C1065 1.385 . S
C1062 H1043 0.951 . S
C1062 C1060 1.388 . S
C1062 C1063 1.366 . S
C1063 C1062 1.366 . S
C1063 C1064 1.414 . S
C1063 C1066 1.499 . S
C1064 H1044 0.950 . S
C1064 C1063 1.414 . S
C1064 C1065 1.374 . S
C1065 H1045 0.950 . S
C1065 C1061 1.385 . S
C1065 C1064 1.374 . S
C1066 C1063 1.499 . S
C1066 C1067 1.373 1_545 S
C1066 C1068 1.389 . S
C1067 H1046 0.950 . S
C1067 C1066 1.373 1_565 S
C1067 C1083 1.377 . S
C1068 C1066 1.389 . S
C1068 C1069 1.524 . S
C1068 C1082 1.377 . S
C1069 C1068 1.524 . S
C1069 C1070 1.397 . S
C1069 C1074 1.363 . S
C1070 H1047 0.950 . S
C1070 C1069 1.397 . S
C1070 C1071 1.334 . S
C1071 H1048 0.950 . S
C1071 C1070 1.334 . S
C1071 C1072 1.287 . S
C1072 C1071 1.287 . S
C1072 C1073 1.524 . S
C1072 H1091 0.913 . S
C1073 H1049 0.950 . S
C1073 C1072 1.524 . S
C1073 C1074 1.415 . S
C1074 H1050 0.950 . S
C1074 C1069 1.363 . S
C1074 C1073 1.415 . S
C1075 H1051 0.951 . S
C1075 C1076 1.366 . S
C1075 C1077 1.388 . S
C1076 C1075 1.366 . S
C1076 C1080 1.385 . S
C1077 H1052 0.951 . S
C1077 C1075 1.388 . S
C1077 C1078 1.366 . S
C1078 C1077 1.366 . S
C1078 C1079 1.414 . S
C1078 C1081 1.499 . S
C1079 H1053 0.950 . S
C1079 C1078 1.414 . S
C1079 C1080 1.374 . S
C1080 H1054 0.950 . S
C1080 C1076 1.385 . S
C1080 C1079 1.374 . S
C1081 C1078 1.499 . S
C1081 C1082 1.373 1_565 S
C1081 C1083 1.389 . S
C1082 H1055 0.950 . S
C1082 C1068 1.377 . S
C1082 C1081 1.373 1_545 S
C1083 C1067 1.377 . S
C1083 C1081 1.389 . S
C1083 C1084 1.524 . S
C1084 C1083 1.524 . S
C1084 C1085 1.397 . S
C1084 C1089 1.363 . S
C1085 H1056 0.950 . S
C1085 C1084 1.397 . S
C1085 C1086 1.334 . S
C1086 H1057 0.950 . S
C1086 C1085 1.334 . S
C1086 C1087 1.287 . S
C1087 C1086 1.287 . S
C1087 C1088 1.524 . S
C1087 H1090 0.999 . S
C1088 H1058 0.950 . S
C1088 C1087 1.524 . S
C1088 C1089 1.415 . S
C1089 H1059 0.950 . S
C1089 C1084 1.363 . S
C1089 C1088 1.415 . S
H1090 C1087 0.999 . S
H1091 C1072 0.913 . S
H1092 C1110 0.951 . S
H1093 C1112 0.951 . S
H1094 C1114 0.950 . S
H1095 C1115 0.950 . S
H1096 C1117 0.950 . S
H1097 C1120 0.950 . S
H1098 C1121 0.950 . S
H1099 C1123 0.950 . S
H1100 C1124 0.950 . S
H1101 C1125 0.951 . S
H1102 C1127 0.951 . S
H1103 C1129 0.950 . S
H1104 C1130 0.950 . S
H1105 C1132 0.950 . S
H1106 C1135 0.950 . S
H1107 C1136 0.950 . S
H1108 C1138 0.950 . S
H1109 C1139 0.950 . S
C1110 H1092 0.951 . S
C1110 C1111 1.366 . S
C1110 C1112 1.388 . S
C1111 C1110 1.366 . S
C1111 C1115 1.385 . S
C1112 H1093 0.951 . S
C1112 C1110 1.388 . S
C1112 C1113 1.366 . S
C1113 C1112 1.366 . S
C1113 C1114 1.414 . S
C1113 C1116 1.499 . S
C1114 H1094 0.950 . S
C1114 C1113 1.414 . S
C1114 C1115 1.374 . S
C1115 H1095 0.950 . S
C1115 C1111 1.385 . S
C1115 C1114 1.374 . S
C1116 C1113 1.499 . S
C1116 C1117 1.375 1_556 S
C1116 C1118 1.389 . S
C1117 H1096 0.950 . S
C1117 C1116 1.375 1_554 S
C1117 C1133 1.375 . S
C1118 C1116 1.389 . S
C1118 C1119 1.524 . S
C1118 C1132 1.375 . S
C1119 C1118 1.524 . S
C1119 C1120 1.397 . S
C1119 C1124 1.363 . S
C1120 H1097 0.950 . S
C1120 C1119 1.397 . S
C1120 C1121 1.334 . S
C1121 H1098 0.950 . S
C1121 C1120 1.334 . S
C1121 C1122 1.287 . S
C1122 C1121 1.287 . S
C1122 C1123 1.524 . S
C1122 H1141 0.913 . S
C1123 H1099 0.950 . S
C1123 C1122 1.524 . S
C1123 C1124 1.415 . S
C1124 H1100 0.950 . S
C1124 C1119 1.363 . S
C1124 C1123 1.415 . S
C1125 H1101 0.951 . S
C1125 C1126 1.366 . S
C1125 C1127 1.388 . S
C1126 C1125 1.366 . S
C1126 C1130 1.385 . S
C1127 H1102 0.951 . S
C1127 C1125 1.388 . S
C1127 C1128 1.366 . S
C1128 C1127 1.366 . S
C1128 C1129 1.414 . S
C1128 C1131 1.499 . S
C1129 H1103 0.950 . S
C1129 C1128 1.414 . S
C1129 C1130 1.374 . S
C1130 H1104 0.950 . S
C1130 C1126 1.385 . S
C1130 C1129 1.374 . S
C1131 C1128 1.499 . S
C1131 C1132 1.375 1_554 S
C1131 C1133 1.389 . S
C1132 H1105 0.950 . S
C1132 C1118 1.375 . S
C1132 C1131 1.375 1_556 S
C1133 C1117 1.375 . S
C1133 C1131 1.389 . S
C1133 C1134 1.524 . S
C1134 C1133 1.524 . S
C1134 C1135 1.397 . S
C1134 C1139 1.363 . S
C1135 H1106 0.950 . S
C1135 C1134 1.397 . S
C1135 C1136 1.334 . S
C1136 H1107 0.950 . S
C1136 C1135 1.334 . S
C1136 C1137 1.287 . S
C1137 C1136 1.287 . S
C1137 C1138 1.524 . S
C1137 H1140 0.999 . S
C1138 H1108 0.950 . S
C1138 C1137 1.524 . S
C1138 C1139 1.415 . S
C1139 H1109 0.950 . S
C1139 C1134 1.363 . S
C1139 C1138 1.415 . S
H1140 C1137 0.999 . S
H1141 C1122 0.913 . S
H1142 C1160 0.951 . S
H1143 C1162 0.951 . S
H1144 C1164 0.950 . S
H1145 C1165 0.950 . S
H1146 C1167 0.950 . S
H1147 C1170 0.950 . S
H1148 C1171 0.950 . S
H1149 C1173 0.950 . S
H1150 C1174 0.950 . S
H1151 C1175 0.951 . S
H1152 C1177 0.951 . S
H1153 C1179 0.950 . S
H1154 C1180 0.950 . S
H1155 C1182 0.950 . S
H1156 C1185 0.950 . S
H1157 C1186 0.950 . S
H1158 C1188 0.950 . S
H1159 C1189 0.950 . S
C1160 H1142 0.951 . S
C1160 C1161 1.366 . S
C1160 C1162 1.388 . S
C1161 C1160 1.366 . S
C1161 C1165 1.385 . S
C1162 H1143 0.951 . S
C1162 C1160 1.388 . S
C1162 C1163 1.366 . S
C1163 C1162 1.366 . S
C1163 C1164 1.414 . S
C1163 C1166 1.499 . S
C1164 H1144 0.950 . S
C1164 C1163 1.414 . S
C1164 C1165 1.374 . S
C1165 H1145 0.950 . S
C1165 C1161 1.385 . S
C1165 C1164 1.374 . S
C1166 C1163 1.499 . S
C1166 C1167 1.373 . S
C1166 C1168 1.389 . S
C1167 H1146 0.950 . S
C1167 C1166 1.373 . S
C1167 C1183 1.377 1_455 S
C1168 C1166 1.389 . S
C1168 C1169 1.524 . S
C1168 C1182 1.377 1_455 S
C1169 C1168 1.524 . S
C1169 C1170 1.397 . S
C1169 C1174 1.363 . S
C1170 H1147 0.950 . S
C1170 C1169 1.397 . S
C1170 C1171 1.334 . S
C1171 H1148 0.950 . S
C1171 C1170 1.334 . S
C1171 C1172 1.287 . S
C1172 C1171 1.287 . S
C1172 C1173 1.524 . S
C1172 H1191 0.913 . S
C1173 H1149 0.950 . S
C1173 C1172 1.524 . S
C1173 C1174 1.415 . S
C1174 H1150 0.950 . S
C1174 C1169 1.363 . S
C1174 C1173 1.415 . S
C1175 H1151 0.951 . S
C1175 C1176 1.366 . S
C1175 C1177 1.388 . S
C1176 C1175 1.366 . S
C1176 C1180 1.385 . S
C1177 H1152 0.951 . S
C1177 C1175 1.388 . S
C1177 C1178 1.366 . S
C1178 C1177 1.366 . S
C1178 C1179 1.414 . S
C1178 C1181 1.499 . S
C1179 H1153 0.950 . S
C1179 C1178 1.414 . S
C1179 C1180 1.374 . S
C1180 H1154 0.950 . S
C1180 C1176 1.385 . S
C1180 C1179 1.374 . S
C1181 C1178 1.499 . S
C1181 C1182 1.373 . S
C1181 C1183 1.389 . S
C1182 H1155 0.950 . S
C1182 C1168 1.377 1_655 S
C1182 C1181 1.373 . S
C1183 C1167 1.377 1_655 S
C1183 C1181 1.389 . S
C1183 C1184 1.524 . S
C1184 C1183 1.524 . S
C1184 C1185 1.397 . S
C1184 C1189 1.363 . S
C1185 H1156 0.950 . S
C1185 C1184 1.397 . S
C1185 C1186 1.334 . S
C1186 H1157 0.950 . S
C1186 C1185 1.334 . S
C1186 C1187 1.287 . S
C1187 C1186 1.287 . S
C1187 C1188 1.524 . S
C1187 H1190 0.999 . S
C1188 H1158 0.950 . S
C1188 C1187 1.524 . S
C1188 C1189 1.415 . S
C1189 H1159 0.950 . S
C1189 C1184 1.363 . S
C1189 C1188 1.415 . S
H1190 C1187 0.999 . S
H1191 C1172 0.913 . S
H1192 C1210 0.951 . S
H1193 C1212 0.951 . S
H1194 C1214 0.950 . S
H1195 C1215 0.950 . S
H1196 C1217 0.950 . S
H1197 C1220 0.950 . S
H1198 C1221 0.950 . S
H1199 C1223 0.950 . S
H1200 C1224 0.950 . S
H1201 C1225 0.951 . S
H1202 C1227 0.951 . S
H1203 C1229 0.950 . S
H1204 C1230 0.950 . S
H1205 C1232 0.950 . S
H1206 C1235 0.950 . S
H1207 C1236 0.950 . S
H1208 C1238 0.950 . S
H1209 C1239 0.950 . S
C1210 H1192 0.951 . S
C1210 C1211 1.366 . S
C1210 C1212 1.388 . S
C1211 C1210 1.366 . S
C1211 C1215 1.385 . S
C1212 H1193 0.951 . S
C1212 C1210 1.388 . S
C1212 C1213 1.366 . S
C1213 C1212 1.366 . S
C1213 C1214 1.414 . S
C1213 C1216 1.499 . S
C1214 H1194 0.950 . S
C1214 C1213 1.414 . S
C1214 C1215 1.374 . S
C1215 H1195 0.950 . S
C1215 C1211 1.385 . S
C1215 C1214 1.374 . S
C1216 C1213 1.499 . S
C1216 C1217 1.373 . S
C1216 C1218 1.389 . S
C1217 H1196 0.950 . S
C1217 C1216 1.373 . S
C1217 C1233 1.377 1_546 S
C1218 C1216 1.389 . S
C1218 C1219 1.524 . S
C1218 C1232 1.377 1_546 S
C1219 C1218 1.524 . S
C1219 C1220 1.397 . S
C1219 C1224 1.363 1_545 S
C1220 H1197 0.950 . S
C1220 C1219 1.397 . S
C1220 C1221 1.334 . S
C1221 H1198 0.950 . S
C1221 C1220 1.334 . S
C1221 C1222 1.287 . S
C1222 C1221 1.287 . S
C1222 C1223 1.524 1_545 S
C1222 H1241 0.913 . S
C1223 H1199 0.950 . S
C1223 C1222 1.524 1_565 S
C1223 C1224 1.415 . S
C1224 H1200 0.950 . S
C1224 C1219 1.363 1_565 S
C1224 C1223 1.415 . S
C1225 H1201 0.951 . S
C1225 C1226 1.366 . S
C1225 C1227 1.388 . S
C1226 C1225 1.366 . S
C1226 C1230 1.385 . S
C1227 H1202 0.951 . S
C1227 C1225 1.388 . S
C1227 C1228 1.366 . S
C1228 C1227 1.366 . S
C1228 C1229 1.414 . S
C1228 C1231 1.499 . S
C1229 H1203 0.950 . S
C1229 C1228 1.414 . S
C1229 C1230 1.374 . S
C1230 H1204 0.950 . S
C1230 C1226 1.385 . S
C1230 C1229 1.374 . S
C1231 C1228 1.499 . S
C1231 C1232 1.373 . S
C1231 C1233 1.389 . S
C1232 H1205 0.950 . S
C1232 C1218 1.377 1_564 S
C1232 C1231 1.373 . S
C1233 C1217 1.377 1_564 S
C1233 C1231 1.389 . S
C1233 C1234 1.524 . S
C1234 C1233 1.524 . S
C1234 C1235 1.397 . S
C1234 C1239 1.363 1_565 S
C1235 H1206 0.950 . S
C1235 C1234 1.397 . S
C1235 C1236 1.334 . S
C1236 H1207 0.950 . S
C1236 C1235 1.334 . S
C1236 C1237 1.287 . S
C1237 C1236 1.287 . S
C1237 C1238 1.524 1_565 S
C1237 H1240 0.999 . S
C1238 H1208 0.950 . S
C1238 C1237 1.524 1_545 S
C1238 C1239 1.415 . S
C1239 H1209 0.950 . S
C1239 C1234 1.363 1_545 S
C1239 C1238 1.415 . S
H1240 C1237 0.999 . S
H1241 C1222 0.913 . S
H1242 C1260 0.951 . S
H1243 C1262 0.951 . S
H1244 C1264 0.950 . S
H1245 C1265 0.950 . S
H1246 C1267 0.950 . S
H1247 C1270 0.950 . S
H1248 C1271 0.950 . S
H1249 C1273 0.950 . S
H1250 C1274 0.950 . S
H1251 C1275 0.951 . S
H1252 C1277 0.951 . S
H1253 C1279 0.950 . S
H1254 C1280 0.950 . S
H1255 C1282 0.950 . S
H1256 C1285 0.950 . S
H1257 C1286 0.950 . S
H1258 C1288 0.950 . S
H1259 C1289 0.950 . S
C1260 H1242 0.951 . S
C1260 C1261 1.366 . S
C1260 C1262 1.388 . S
C1261 C1260 1.366 . S
C1261 C1265 1.385 . S
C1262 H1243 0.951 . S
C1262 C1260 1.388 . S
C1262 C1263 1.366 . S
C1263 C1262 1.366 . S
C1263 C1264 1.414 . S
C1263 C1266 1.499 . S
C1264 H1244 0.950 . S
C1264 C1263 1.414 . S
C1264 C1265 1.374 . S
C1265 H1245 0.950 . S
C1265 C1261 1.385 . S
C1265 C1264 1.374 . S
C1266 C1263 1.499 . S
C1266 C1267 1.373 . S
C1266 C1268 1.389 . S
C1267 H1246 0.950 . S
C1267 C1266 1.373 . S
C1267 C1283 1.377 . S
C1268 C1266 1.389 . S
C1268 C1269 1.524 . S
C1268 C1282 1.377 . S
C1269 C1268 1.524 . S
C1269 C1270 1.397 . S
C1269 C1274 1.363 . S
C1270 H1247 0.950 . S
C1270 C1269 1.397 . S
C1270 C1271 1.334 . S
C1271 H1248 0.950 . S
C1271 C1270 1.334 . S
C1271 C1272 1.287 . S
C1272 C1271 1.287 . S
C1272 C1273 1.524 . S
C1272 H1291 0.913 . S
C1273 H1249 0.950 . S
C1273 C1272 1.524 . S
C1273 C1274 1.415 . S
C1274 H1250 0.950 . S
C1274 C1269 1.363 . S
C1274 C1273 1.415 . S
C1275 H1251 0.951 . S
C1275 C1276 1.366 . S
C1275 C1277 1.388 . S
C1276 C1275 1.366 . S
C1276 C1280 1.385 . S
C1277 H1252 0.951 . S
C1277 C1275 1.388 . S
C1277 C1278 1.366 . S
C1278 C1277 1.366 . S
C1278 C1279 1.414 . S
C1278 C1281 1.499 . S
C1279 H1253 0.950 . S
C1279 C1278 1.414 . S
C1279 C1280 1.374 . S
C1280 H1254 0.950 . S
C1280 C1276 1.385 . S
C1280 C1279 1.374 . S
C1281 C1278 1.499 . S
C1281 C1282 1.373 . S
C1281 C1283 1.389 . S
C1282 H1255 0.950 . S
C1282 C1268 1.377 . S
C1282 C1281 1.373 . S
C1283 C1267 1.377 . S
C1283 C1281 1.389 . S
C1283 C1284 1.524 . S
C1284 C1283 1.524 . S
C1284 C1285 1.397 . S
C1284 C1289 1.363 . S
C1285 H1256 0.950 . S
C1285 C1284 1.397 . S
C1285 C1286 1.334 . S
C1286 H1257 0.950 . S
C1286 C1285 1.334 . S
C1286 C1287 1.287 . S
C1287 C1286 1.287 . S
C1287 C1288 1.524 . S
C1287 H1290 0.999 . S
C1288 H1258 0.950 . S
C1288 C1287 1.524 . S
C1288 C1289 1.415 . S
C1289 H1259 0.950 . S
C1289 C1284 1.363 . S
C1289 C1288 1.415 . S
H1290 C1287 0.999 . S
H1291 C1272 0.913 . S
H1292 C1310 0.951 . S
H1293 C1312 0.951 . S
H1294 C1314 0.950 . S
H1295 C1315 0.950 . S
H1296 C1317 0.950 . S
H1297 C1320 0.950 . S
H1298 C1321 0.950 . S
H1299 C1323 0.950 . S
H1300 C1324 0.950 . S
H1301 C1325 0.951 . S
H1302 C1327 0.951 . S
H1303 C1329 0.950 . S
H1304 C1330 0.950 . S
H1305 C1332 0.950 . S
H1306 C1335 0.950 . S
H1307 C1336 0.950 . S
H1308 C1338 0.950 . S
H1309 C1339 0.950 . S
C1310 H1292 0.951 . S
C1310 C1311 1.366 . S
C1310 C1312 1.388 . S
C1311 C1310 1.366 . S
C1311 C1315 1.385 . S
C1312 H1293 0.951 . S
C1312 C1310 1.388 . S
C1312 C1313 1.366 . S
C1313 C1312 1.366 . S
C1313 C1314 1.414 . S
C1313 C1316 1.499 . S
C1314 H1294 0.950 . S
C1314 C1313 1.414 . S
C1314 C1315 1.374 . S
C1315 H1295 0.950 . S
C1315 C1311 1.385 . S
C1315 C1314 1.374 . S
C1316 C1313 1.499 . S
C1316 C1317 1.373 . S
C1316 C1318 1.389 1_455 S
C1317 H1296 0.950 . S
C1317 C1316 1.373 . S
C1317 C1333 1.377 1_554 S
C1318 C1316 1.389 1_655 S
C1318 C1319 1.524 . S
C1318 C1332 1.377 1_554 S
C1319 C1318 1.524 . S
C1319 C1320 1.397 . S
C1319 C1324 1.363 . S
C1320 H1297 0.950 . S
C1320 C1319 1.397 . S
C1320 C1321 1.334 . S
C1321 H1298 0.950 . S
C1321 C1320 1.334 . S
C1321 C1322 1.287 . S
C1322 C1321 1.287 . S
C1322 C1323 1.524 . S
C1322 H1341 0.913 . S
C1323 H1299 0.950 . S
C1323 C1322 1.524 . S
C1323 C1324 1.415 . S
C1324 H1300 0.950 . S
C1324 C1319 1.363 . S
C1324 C1323 1.415 . S
C1325 H1301 0.951 . S
C1325 C1326 1.366 . S
C1325 C1327 1.388 . S
C1326 C1325 1.366 . S
C1326 C1330 1.385 . S
C1327 H1302 0.951 . S
C1327 C1325 1.388 . S
C1327 C1328 1.366 . S
C1328 C1327 1.366 . S
C1328 C1329 1.414 . S
C1328 C1331 1.499 . S
C1329 H1303 0.950 . S
C1329 C1328 1.414 . S
C1329 C1330 1.374 . S
C1330 H1304 0.950 . S
C1330 C1326 1.385 . S
C1330 C1329 1.374 . S
C1331 C1328 1.499 . S
C1331 C1332 1.373 . S
C1331 C1333 1.389 1_655 S
C1332 H1305 0.950 . S
C1332 C1318 1.377 1_556 S
C1332 C1331 1.373 . S
C1333 C1317 1.377 1_556 S
C1333 C1331 1.389 1_455 S
C1333 C1334 1.524 . S
C1334 C1333 1.524 . S
C1334 C1335 1.397 . S
C1334 C1339 1.363 . S
C1335 H1306 0.950 . S
C1335 C1334 1.397 . S
C1335 C1336 1.334 . S
C1336 H1307 0.950 . S
C1336 C1335 1.334 . S
C1336 C1337 1.287 . S
C1337 C1336 1.287 . S
C1337 C1338 1.524 . S
C1337 H1340 0.999 . S
C1338 H1308 0.950 . S
C1338 C1337 1.524 . S
C1338 C1339 1.415 . S
C1339 H1309 0.950 . S
C1339 C1334 1.363 . S
C1339 C1338 1.415 . S
H1340 C1337 0.999 . S
H1341 C1322 0.913 . S
H1342 C1360 0.951 . S
H1343 C1362 0.951 . S
H1344 C1364 0.950 . S
H1345 C1365 0.950 . S
H1346 C1367 0.950 . S
H1347 C1370 0.950 . S
H1348 C1371 0.950 . S
H1349 C1373 0.950 . S
H1350 C1374 0.950 . S
H1351 C1375 0.951 . S
H1352 C1377 0.951 . S
H1353 C1379 0.950 . S
H1354 C1380 0.950 . S
H1355 C1382 0.950 . S
H1356 C1385 0.950 . S
H1357 C1386 0.950 . S
H1358 C1388 0.950 . S
H1359 C1389 0.950 . S
C1360 H1342 0.951 . S
C1360 C1361 1.366 . S
C1360 C1362 1.388 . S
C1361 C1360 1.366 . S
C1361 C1365 1.385 . S
C1362 H1343 0.951 . S
C1362 C1360 1.388 . S
C1362 C1363 1.366 . S
C1363 C1362 1.366 . S
C1363 C1364 1.414 . S
C1363 C1366 1.499 . S
C1364 H1344 0.950 . S
C1364 C1363 1.414 . S
C1364 C1365 1.374 . S
C1365 H1345 0.950 . S
C1365 C1361 1.385 . S
C1365 C1364 1.374 . S
C1366 C1363 1.499 . S
C1366 C1367 1.373 1_545 S
C1366 C1368 1.389 . S
C1367 H1346 0.950 . S
C1367 C1366 1.373 1_565 S
C1367 C1383 1.377 . S
C1368 C1366 1.389 . S
C1368 C1369 1.524 . S
C1368 C1382 1.377 . S
C1369 C1368 1.524 . S
C1369 C1370 1.397 . S
C1369 C1374 1.363 . S
C1370 H1347 0.950 . S
C1370 C1369 1.397 . S
C1370 C1371 1.334 . S
C1371 H1348 0.950 . S
C1371 C1370 1.334 . S
C1371 C1372 1.287 . S
C1372 C1371 1.287 . S
C1372 C1373 1.524 . S
C1372 H1391 0.913 . S
C1373 H1349 0.950 . S
C1373 C1372 1.524 . S
C1373 C1374 1.415 . S
C1374 H1350 0.950 . S
C1374 C1369 1.363 . S
C1374 C1373 1.415 . S
C1375 H1351 0.951 . S
C1375 C1376 1.366 . S
C1375 C1377 1.388 . S
C1376 C1375 1.366 . S
C1376 C1380 1.385 . S
C1377 H1352 0.951 . S
C1377 C1375 1.388 . S
C1377 C1378 1.366 . S
C1378 C1377 1.366 . S
C1378 C1379 1.414 . S
C1378 C1381 1.499 . S
C1379 H1353 0.950 . S
C1379 C1378 1.414 . S
C1379 C1380 1.374 . S
C1380 H1354 0.950 . S
C1380 C1376 1.385 . S
C1380 C1379 1.374 . S
C1381 C1378 1.499 . S
C1381 C1382 1.373 1_565 S
C1381 C1383 1.389 . S
C1382 H1355 0.950 . S
C1382 C1368 1.377 . S
C1382 C1381 1.373 1_545 S
C1383 C1367 1.377 . S
C1383 C1381 1.389 . S
C1383 C1384 1.524 . S
C1384 C1383 1.524 . S
C1384 C1385 1.397 . S
C1384 C1389 1.363 . S
C1385 H1356 0.950 . S
C1385 C1384 1.397 . S
C1385 C1386 1.334 . S
C1386 H1357 0.950 . S
C1386 C1385 1.334 . S
C1386 C1387 1.287 . S
C1387 C1386 1.287 . S
C1387 C1388 1.524 . S
C1387 H1390 0.999 . S
C1388 H1358 0.950 . S
C1388 C1387 1.524 . S
C1388 C1389 1.415 . S
C1389 H1359 0.950 . S
C1389 C1384 1.363 . S
C1389 C1388 1.415 . S
H1390 C1387 0.999 . S
H1391 C1372 0.913 . S
C211 C30 1.066 . S
C226 C155 1.066 . S
C261 C187 1.066 . S
C276 C62 1.066 . S
C311 C27 1.067 . S
C326 C94 1.066 . S
C361 C59 1.067 . S
C376 C126 1.066 . S
C411 C158 1.066 . S
C426 C91 1.067 . S
C461 C190 1.066 . S
C476 C123 1.067 . S
C511 C22 0.880 . S
C526 C136 0.881 . S
C561 C54 0.880 . S
C576 C168 0.881 . S
C611 C8 0.880 . S
C626 C86 0.881 . S
C661 C40 0.880 . S
C676 C118 0.881 . S
C711 C72 0.881 . S
C726 C150 0.880 . S
C761 C182 0.880 . S
C776 C104 0.881 . S
C811 C17 1.487 . S
C826 C184 1.510 . S
C861 C49 1.486 . S
C876 C24 1.509 . S
C911 C81 1.488 . S
C926 C56 1.509 . S
C961 C113 1.486 . S
C976 C88 1.509 . S
C1011 C120 1.509 . S
C1026 C145 1.488 . S
C1061 C177 1.487 . S
C1076 C152 1.510 . S
C1111 C119 1.509 . S
C1126 C95 1.487 . S
C1161 C151 1.510 . S
C1176 C127 1.487 . S
C1211 C183 1.510 . S
C1226 C159 1.486 . S
C1261 C191 1.488 . S
C1276 C23 1.509 . S
C1311 C31 1.486 . S
C1326 C55 1.509 . S
C1361 C63 1.487 . S
C1376 C87 1.510 . S
