# Generated by pormake.
# Topology wlh, (5)-cn, num edge types: 1
# Building blocks:
#     Node 0, Type 0, BuildingBlock: XOMCOT_clean_sbu_0, # of connection points: 5
#     Node 1, Type 0, BuildingBlock: XOMCOT_clean_sbu_0, # of connection points: 5
#     Node 2, Type 0, BuildingBlock: XOMCOT_clean_sbu_0, # of connection points: 5
#     Node 3, Type 0, BuildingBlock: XOMCOT_clean_sbu_0, # of connection points: 5
#     Node 4, Type 0, BuildingBlock: XOMCOT_clean_sbu_0, # of connection points: 5
#     Node 5, Type 0, BuildingBlock: XOMCOT_clean_sbu_0, # of connection points: 5
#     Node 6, Type 0, BuildingBlock: XOMCOT_clean_sbu_0, # of connection points: 5
#     Node 7, Type 0, BuildingBlock: XOMCOT_clean_sbu_0, # of connection points: 5
#     Node 8, Type 0, BuildingBlock: XOMCOT_clean_sbu_0, # of connection points: 5
#     Node 9, Type 0, BuildingBlock: XOMCOT_clean_sbu_0, # of connection points: 5
#     Node 10, Type 0, BuildingBlock: XOMCOT_clean_sbu_0, # of connection points: 5
#     Node 11, Type 0, BuildingBlock: XOMCOT_clean_sbu_0, # of connection points: 5
#     Node 12, Type 0, BuildingBlock: XOMCOT_clean_sbu_0, # of connection points: 5
#     Node 13, Type 0, BuildingBlock: XOMCOT_clean_sbu_0, # of connection points: 5
#     Node 14, Type 0, BuildingBlock: XOMCOT_clean_sbu_0, # of connection points: 5
#     Node 15, Type 0, BuildingBlock: XOMCOT_clean_sbu_0, # of connection points: 5
#     Node 16, Type 0, BuildingBlock: XOMCOT_clean_sbu_0, # of connection points: 5
#     Node 17, Type 0, BuildingBlock: XOMCOT_clean_sbu_0, # of connection points: 5
#     Node 18, Type 0, BuildingBlock: XOMCOT_clean_sbu_0, # of connection points: 5
#     Node 19, Type 0, BuildingBlock: XOMCOT_clean_sbu_0, # of connection points: 5
#     Node 20, Type 0, BuildingBlock: XOMCOT_clean_sbu_0, # of connection points: 5
#     Node 21, Type 0, BuildingBlock: XOMCOT_clean_sbu_0, # of connection points: 5
#     Node 22, Type 0, BuildingBlock: XOMCOT_clean_sbu_0, # of connection points: 5
#     Node 23, Type 0, BuildingBlock: XOMCOT_clean_sbu_0, # of connection points: 5
#     Node 24, Type 0, BuildingBlock: XOMCOT_clean_sbu_0, # of connection points: 5
#     Node 25, Type 0, BuildingBlock: XOMCOT_clean_sbu_0, # of connection points: 5
#     Node 26, Type 0, BuildingBlock: XOMCOT_clean_sbu_0, # of connection points: 5
#     Node 27, Type 0, BuildingBlock: XOMCOT_clean_sbu_0, # of connection points: 5
#     Node 28, Type 0, BuildingBlock: XOMCOT_clean_sbu_0, # of connection points: 5
#     Node 29, Type 0, BuildingBlock: XOMCOT_clean_sbu_0, # of connection points: 5
#     Node 30, Type 0, BuildingBlock: XOMCOT_clean_sbu_0, # of connection points: 5
#     Node 31, Type 0, BuildingBlock: XOMCOT_clean_sbu_0, # of connection points: 5
#     Node 32, Type 0, BuildingBlock: XOMCOT_clean_sbu_0, # of connection points: 5
#     Node 33, Type 0, BuildingBlock: XOMCOT_clean_sbu_0, # of connection points: 5
#     Node 34, Type 0, BuildingBlock: XOMCOT_clean_sbu_0, # of connection points: 5
#     Node 35, Type 0, BuildingBlock: XOMCOT_clean_sbu_0, # of connection points: 5
#     Edge 36, Type (0, 0), BuildingBlock: XIVTED_clean_linker_0, # of connection points: 2
#     Edge 37, Type (0, 0), BuildingBlock: XIVTED_clean_linker_0, # of connection points: 2
#     Edge 38, Type (0, 0), BuildingBlock: XIVTED_clean_linker_0, # of connection points: 2
#     Edge 39, Type (0, 0), BuildingBlock: XIVTED_clean_linker_0, # of connection points: 2
#     Edge 40, Type (0, 0), BuildingBlock: XIVTED_clean_linker_0, # of connection points: 2
#     Edge 41, Type (0, 0), BuildingBlock: XIVTED_clean_linker_0, # of connection points: 2
#     Edge 42, Type (0, 0), BuildingBlock: XIVTED_clean_linker_0, # of connection points: 2
#     Edge 43, Type (0, 0), BuildingBlock: XIVTED_clean_linker_0, # of connection points: 2
#     Edge 44, Type (0, 0), BuildingBlock: XIVTED_clean_linker_0, # of connection points: 2
#     Edge 45, Type (0, 0), BuildingBlock: XIVTED_clean_linker_0, # of connection points: 2
#     Edge 46, Type (0, 0), BuildingBlock: XIVTED_clean_linker_0, # of connection points: 2
#     Edge 47, Type (0, 0), BuildingBlock: XIVTED_clean_linker_0, # of connection points: 2
#     Edge 48, Type (0, 0), BuildingBlock: XIVTED_clean_linker_0, # of connection points: 2
#     Edge 49, Type (0, 0), BuildingBlock: XIVTED_clean_linker_0, # of connection points: 2
#     Edge 50, Type (0, 0), BuildingBlock: XIVTED_clean_linker_0, # of connection points: 2
#     Edge 51, Type (0, 0), BuildingBlock: XIVTED_clean_linker_0, # of connection points: 2
#     Edge 52, Type (0, 0), BuildingBlock: XIVTED_clean_linker_0, # of connection points: 2
#     Edge 53, Type (0, 0), BuildingBlock: XIVTED_clean_linker_0, # of connection points: 2
#     Edge 54, Type (0, 0), BuildingBlock: XIVTED_clean_linker_0, # of connection points: 2
#     Edge 55, Type (0, 0), BuildingBlock: XIVTED_clean_linker_0, # of connection points: 2
#     Edge 56, Type (0, 0), BuildingBlock: XIVTED_clean_linker_0, # of connection points: 2
#     Edge 57, Type (0, 0), BuildingBlock: XIVTED_clean_linker_0, # of connection points: 2
#     Edge 58, Type (0, 0), BuildingBlock: XIVTED_clean_linker_0, # of connection points: 2
#     Edge 59, Type (0, 0), BuildingBlock: XIVTED_clean_linker_0, # of connection points: 2
#     Edge 60, Type (0, 0), BuildingBlock: XIVTED_clean_linker_0, # of connection points: 2
#     Edge 61, Type (0, 0), BuildingBlock: XIVTED_clean_linker_0, # of connection points: 2
#     Edge 62, Type (0, 0), BuildingBlock: XIVTED_clean_linker_0, # of connection points: 2
#     Edge 63, Type (0, 0), BuildingBlock: XIVTED_clean_linker_0, # of connection points: 2
#     Edge 64, Type (0, 0), BuildingBlock: XIVTED_clean_linker_0, # of connection points: 2
#     Edge 65, Type (0, 0), BuildingBlock: XIVTED_clean_linker_0, # of connection points: 2
#     Edge 66, Type (0, 0), BuildingBlock: XIVTED_clean_linker_0, # of connection points: 2
#     Edge 67, Type (0, 0), BuildingBlock: XIVTED_clean_linker_0, # of connection points: 2
#     Edge 68, Type (0, 0), BuildingBlock: XIVTED_clean_linker_0, # of connection points: 2
#     Edge 69, Type (0, 0), BuildingBlock: XIVTED_clean_linker_0, # of connection points: 2
#     Edge 70, Type (0, 0), BuildingBlock: XIVTED_clean_linker_0, # of connection points: 2
#     Edge 71, Type (0, 0), BuildingBlock: XIVTED_clean_linker_0, # of connection points: 2
#     Edge 72, Type (0, 0), BuildingBlock: XIVTED_clean_linker_0, # of connection points: 2
#     Edge 73, Type (0, 0), BuildingBlock: XIVTED_clean_linker_0, # of connection points: 2
#     Edge 74, Type (0, 0), BuildingBlock: XIVTED_clean_linker_0, # of connection points: 2
#     Edge 75, Type (0, 0), BuildingBlock: XIVTED_clean_linker_0, # of connection points: 2
#     Edge 76, Type (0, 0), BuildingBlock: XIVTED_clean_linker_0, # of connection points: 2
#     Edge 77, Type (0, 0), BuildingBlock: XIVTED_clean_linker_0, # of connection points: 2
#     Edge 78, Type (0, 0), BuildingBlock: XIVTED_clean_linker_0, # of connection points: 2
#     Edge 79, Type (0, 0), BuildingBlock: XIVTED_clean_linker_0, # of connection points: 2
#     Edge 80, Type (0, 0), BuildingBlock: XIVTED_clean_linker_0, # of connection points: 2
#     Edge 81, Type (0, 0), BuildingBlock: XIVTED_clean_linker_0, # of connection points: 2
#     Edge 82, Type (0, 0), BuildingBlock: XIVTED_clean_linker_0, # of connection points: 2
#     Edge 83, Type (0, 0), BuildingBlock: XIVTED_clean_linker_0, # of connection points: 2
#     Edge 84, Type (0, 0), BuildingBlock: XIVTED_clean_linker_0, # of connection points: 2
#     Edge 85, Type (0, 0), BuildingBlock: XIVTED_clean_linker_0, # of connection points: 2
#     Edge 86, Type (0, 0), BuildingBlock: XIVTED_clean_linker_0, # of connection points: 2
#     Edge 87, Type (0, 0), BuildingBlock: XIVTED_clean_linker_0, # of connection points: 2
#     Edge 88, Type (0, 0), BuildingBlock: XIVTED_clean_linker_0, # of connection points: 2
#     Edge 89, Type (0, 0), BuildingBlock: XIVTED_clean_linker_0, # of connection points: 2
#     Edge 90, Type (0, 0), BuildingBlock: XIVTED_clean_linker_0, # of connection points: 2
#     Edge 91, Type (0, 0), BuildingBlock: XIVTED_clean_linker_0, # of connection points: 2
#     Edge 92, Type (0, 0), BuildingBlock: XIVTED_clean_linker_0, # of connection points: 2
#     Edge 93, Type (0, 0), BuildingBlock: XIVTED_clean_linker_0, # of connection points: 2
#     Edge 94, Type (0, 0), BuildingBlock: XIVTED_clean_linker_0, # of connection points: 2
#     Edge 95, Type (0, 0), BuildingBlock: XIVTED_clean_linker_0, # of connection points: 2
#     Edge 96, Type (0, 0), BuildingBlock: XIVTED_clean_linker_0, # of connection points: 2
#     Edge 97, Type (0, 0), BuildingBlock: XIVTED_clean_linker_0, # of connection points: 2
#     Edge 98, Type (0, 0), BuildingBlock: XIVTED_clean_linker_0, # of connection points: 2
#     Edge 99, Type (0, 0), BuildingBlock: XIVTED_clean_linker_0, # of connection points: 2
#     Edge 100, Type (0, 0), BuildingBlock: XIVTED_clean_linker_0, # of connection points: 2
#     Edge 101, Type (0, 0), BuildingBlock: XIVTED_clean_linker_0, # of connection points: 2
#     Edge 102, Type (0, 0), BuildingBlock: XIVTED_clean_linker_0, # of connection points: 2
#     Edge 103, Type (0, 0), BuildingBlock: XIVTED_clean_linker_0, # of connection points: 2
#     Edge 104, Type (0, 0), BuildingBlock: XIVTED_clean_linker_0, # of connection points: 2
#     Edge 105, Type (0, 0), BuildingBlock: XIVTED_clean_linker_0, # of connection points: 2
#     Edge 106, Type (0, 0), BuildingBlock: XIVTED_clean_linker_0, # of connection points: 2
#     Edge 107, Type (0, 0), BuildingBlock: XIVTED_clean_linker_0, # of connection points: 2
#     Edge 108, Type (0, 0), BuildingBlock: XIVTED_clean_linker_0, # of connection points: 2
#     Edge 109, Type (0, 0), BuildingBlock: XIVTED_clean_linker_0, # of connection points: 2
#     Edge 110, Type (0, 0), BuildingBlock: XIVTED_clean_linker_0, # of connection points: 2
#     Edge 111, Type (0, 0), BuildingBlock: XIVTED_clean_linker_0, # of connection points: 2
#     Edge 112, Type (0, 0), BuildingBlock: XIVTED_clean_linker_0, # of connection points: 2
#     Edge 113, Type (0, 0), BuildingBlock: XIVTED_clean_linker_0, # of connection points: 2
#     Edge 114, Type (0, 0), BuildingBlock: XIVTED_clean_linker_0, # of connection points: 2
#     Edge 115, Type (0, 0), BuildingBlock: XIVTED_clean_linker_0, # of connection points: 2
#     Edge 116, Type (0, 0), BuildingBlock: XIVTED_clean_linker_0, # of connection points: 2
#     Edge 117, Type (0, 0), BuildingBlock: XIVTED_clean_linker_0, # of connection points: 2
#     Edge 118, Type (0, 0), BuildingBlock: XIVTED_clean_linker_0, # of connection points: 2
#     Edge 119, Type (0, 0), BuildingBlock: XIVTED_clean_linker_0, # of connection points: 2
#     Edge 120, Type (0, 0), BuildingBlock: XIVTED_clean_linker_0, # of connection points: 2
#     Edge 121, Type (0, 0), BuildingBlock: XIVTED_clean_linker_0, # of connection points: 2
#     Edge 122, Type (0, 0), BuildingBlock: XIVTED_clean_linker_0, # of connection points: 2
#     Edge 123, Type (0, 0), BuildingBlock: XIVTED_clean_linker_0, # of connection points: 2
#     Edge 124, Type (0, 0), BuildingBlock: XIVTED_clean_linker_0, # of connection points: 2
#     Edge 125, Type (0, 0), BuildingBlock: XIVTED_clean_linker_0, # of connection points: 2
# Relax obj value: 0.366
# Max RMSD: 0.248
# Mean RMSD: 0.248
data_MOF--net-wlh--node1-XOMCOT_clean_sbu_0--edge1-XIVTED_clean_linker_0
_symmetry_space_group_name_H-M    P1
_symmetry_Int_Tables_number       1
_symmetry_cell_setting            triclinic
loop_
_symmetry_equiv_pos_as_xyz
'x, y, z'
_cell_length_a     39.746606
_cell_length_b     39.749665
_cell_length_c     151.94488
_cell_angle_alpha  90.000873
_cell_angle_beta   89.995869
_cell_angle_gamma 119.99857
loop_
_atom_site_label
_atom_site_type_symbol
_atom_site_fract_x
_atom_site_fract_y
_atom_site_fract_z
_atom_type_partial_charge
Co0 Co 0.0666 0.26394 0.19266 0.0
C1 C 0.04227 0.31739 0.18542 0.0
C2 C 0.003 0.25808 0.18175 0.0
C3 C 0.98923 0.28099 0.17837 0.0
N4 N 0.03593 0.28089 0.18624 0.0
N5 N 0.014 0.31813 0.18067 0.0
H6 H 0.0665 0.34266 0.18838 0.0
H7 H 0.98976 0.22696 0.18101 0.0
C8 C 0.00944 0.18987 0.2011 0.0
O9 O 0.02886 0.20432 0.20843 0.0
N10 N 0.09792 0.2455 0.19876 0.0
C11 C 0.1107 0.24907 0.20717 0.0
C12 C 0.12946 0.22806 0.2082 0.0
C13 C 0.10949 0.22233 0.19488 0.0
N14 N 0.12888 0.21173 0.20042 0.0
C15 C 0.08224 0.3095 0.20868 0.0
C16 C 0.00506 0.27772 0.21329 0.0
C17 C 0.03345 0.29958 0.2196 0.0
C18 C 0.07267 0.31753 0.21701 0.0
C19 C 0.01595 0.26932 0.20527 0.0
N20 N 0.05408 0.28214 0.20341 0.0
H21 H 0.11244 0.32266 0.20678 0.0
H22 H 0.99341 0.25092 0.20069 0.0
H23 H 0.10524 0.26351 0.21249 0.0
H24 H 0.10247 0.21175 0.1882 0.0
O25 O 0.11383 0.31074 0.18925 0.0
O26 O 0.08496 0.25582 0.18162 0.0
O27 O 0.01971 0.21024 0.19406 0.0
C28 C 0.11395 0.29106 0.18239 0.0
H29 H 0.96325 0.27126 0.17444 0.0
H30 H 0.1419 0.22444 0.21422 0.0
H31 H 0.97441 0.26561 0.21465 0.0
H32 H 0.09586 0.33577 0.2215 0.0
Co33 Co 0.73631 0.80481 0.19207 0.0
C34 C 0.682 0.72491 0.18523 0.0
C35 C 0.7318 0.75784 0.17701 0.0
C36 C 0.70693 0.72399 0.17272 0.0
N37 N 0.71645 0.75844 0.18489 0.0
N38 N 0.67576 0.70344 0.1779 0.0
H39 H 0.66052 0.71733 0.19032 0.0
H40 H 0.75846 0.78146 0.17437 0.0
C41 C 0.80243 0.7887 0.19104 0.0
O42 O 0.77759 0.75122 0.19132 0.0
N43 N 0.75653 0.85191 0.19881 0.0
C44 C 0.74112 0.85877 0.20601 0.0
C45 C 0.76374 0.89743 0.20823 0.0
C46 C 0.78777 0.88615 0.19668 0.0
N47 N 0.79288 0.91455 0.20231 0.0
C48 C 0.68901 0.75337 0.206 0.0
C49 C 0.75015 0.76426 0.21658 0.0
C50 C 0.71218 0.73978 0.21953 0.0
C51 C 0.68128 0.73479 0.21419 0.0
C52 C 0.75653 0.78263 0.20846 0.0
N53 N 0.72628 0.77576 0.20304 0.0
H54 H 0.66499 0.75098 0.2022 0.0
H55 H 0.78598 0.80394 0.20681 0.0
H56 H 0.71487 0.83747 0.20928 0.0
H57 H 0.80611 0.89014 0.19106 0.0
O58 O 0.68767 0.80447 0.19079 0.0
O59 O 0.73789 0.83319 0.18167 0.0
O60 O 0.79058 0.81322 0.19124 0.0
C61 C 0.70299 0.82535 0.18375 0.0
H62 H 0.71075 0.71567 0.16617 0.0
H63 H 0.75843 0.91204 0.2136 0.0
H64 H 0.77488 0.77064 0.22071 0.0
H65 H 0.65148 0.71712 0.21636 0.0
Co66 Co 0.19627 0.93741 0.19026 0.0
C67 C 0.27622 0.95936 0.18405 0.0
C68 C 0.24508 0.97618 0.17522 0.0
C69 C 0.27866 0.98296 0.17115 0.0
N70 N 0.24353 0.96173 0.18335 0.0
N71 N 0.29808 0.97235 0.17669 0.0
H72 H 0.28267 0.94579 0.18942 0.0
H73 H 0.22211 0.97943 0.17227 0.0
C74 C 0.21311 0.01936 0.1878 0.0
O75 O 0.25044 0.03167 0.18846 0.0
N76 N 0.14803 0.91247 0.19671 0.0
C77 C 0.1411 0.89702 0.20487 0.0
C78 C 0.10203 0.881 0.20667 0.0
C79 C 0.11326 0.90502 0.1936 0.0
N80 N 0.08477 0.88588 0.19953 0.0
C81 C 0.24534 0.94537 0.20516 0.0
C82 C 0.22956 0.9956 0.21445 0.0
C83 C 0.25053 0.98053 0.21864 0.0
C84 C 0.25927 0.95575 0.21381 0.0
C85 C 0.21548 0.98382 0.20599 0.0
N86 N 0.22386 0.95956 0.2013 0.0
H87 H 0.24944 0.92371 0.20184 0.0
H88 H 0.19511 0.99198 0.2036 0.0
H89 H 0.16267 0.89681 0.20917 0.0
H90 H 0.10885 0.91322 0.18709 0.0
O91 O 0.1963 0.88866 0.19015 0.0
O92 O 0.16937 0.90791 0.18 0.0
O93 O 0.18833 0.98306 0.18818 0.0
C94 C 0.17652 0.88132 0.18287 0.0
H95 H 0.28748 0.99342 0.16449 0.0
H96 H 0.08722 0.86589 0.21262 0.0
H97 H 0.22203 0.01486 0.21787 0.0
H98 H 0.27459 0.94265 0.21685 0.0
Co99 Co 0.2601 0.06561 0.31187 0.0
C100 C 0.31531 0.0422 0.31908 0.0
C101 C 0.25909 0.01254 0.32513 0.0
C102 C 0.28335 0.00378 0.32975 0.0
N103 N 0.27874 0.03606 0.31832 0.0
N104 N 0.3186 0.02249 0.32595 0.0
H105 H 0.33989 0.06326 0.31533 0.0
H106 H 0.22977 0.00446 0.32701 0.0
C107 C 0.19486 0.9841 0.3103 0.0
O108 O 0.22097 0.97426 0.3083 0.0
N109 N 0.24127 0.09567 0.30589 0.0
C110 C 0.26168 0.1264 0.30055 0.0
C111 C 0.2389 0.14242 0.29851 0.0
C112 C 0.20649 0.09313 0.307 0.0
N113 N 0.20432 0.12129 0.30255 0.0
C114 C 0.30645 0.06056 0.29758 0.0
C115 C 0.24548 0.02856 0.28575 0.0
C116 C 0.28269 0.03893 0.28276 0.0
C117 C 0.31346 0.05448 0.28881 0.0
C118 C 0.23984 0.03513 0.29444 0.0
N119 N 0.26979 0.05024 0.30035 0.0
H120 H 0.33087 0.07577 0.30192 0.0
H121 H 0.2114 0.02993 0.29626 0.0
H122 H 0.29136 0.13699 0.2985 0.0
H123 H 0.18385 0.07219 0.31125 0.0
O124 O 0.30907 0.11283 0.31372 0.0
O125 O 0.25861 0.08931 0.32281 0.0
O126 O 0.20553 0.01949 0.31209 0.0
C127 C 0.29354 0.11694 0.32089 0.0
H128 H 0.27614 0.98635 0.33567 0.0
H129 H 0.24711 0.16774 0.29445 0.0
H130 H 0.22093 0.01679 0.28129 0.0
H131 H 0.34284 0.06385 0.28667 0.0
Co132 Co 0.9313 0.19753 0.31015 0.0
C133 C 0.96054 0.27535 0.31776 0.0
C134 C 0.98833 0.24575 0.32334 0.0
C135 C 0.00023 0.27967 0.32793 0.0
N136 N 0.96342 0.2431 0.31701 0.0
N137 N 0.98268 0.29808 0.32441 0.0
H138 H 0.94082 0.2808 0.31391 0.0
H139 H 0.99562 0.22354 0.32481 0.0
C140 C 0.98404 0.17304 0.30229 0.0
O141 O 0.9635 0.16514 0.29503 0.0
N142 N 0.89833 0.15002 0.30362 0.0
C143 C 0.87378 0.14251 0.2968 0.0
C144 C 0.85602 0.10347 0.29482 0.0
C145 C 0.89408 0.11519 0.30583 0.0
N146 N 0.86885 0.08642 0.30052 0.0
C147 C 0.92031 0.23563 0.29521 0.0
C148 C 0.99517 0.268 0.28878 0.0
C149 C 0.96673 0.26912 0.28354 0.0
C150 C 0.92934 0.25446 0.28707 0.0
C151 C 0.98478 0.24897 0.2969 0.0
N152 N 0.94688 0.22975 0.29959 0.0
H153 H 0.89142 0.2245 0.29784 0.0
H154 H 0.00721 0.24884 0.30087 0.0
H155 H 0.86813 0.16305 0.29348 0.0
H156 H 0.90998 0.11127 0.31113 0.0
O157 O 0.88587 0.20051 0.31334 0.0
O158 O 0.90927 0.16885 0.32086 0.0
O159 O 0.97612 0.1875 0.30896 0.0
C160 C 0.88262 0.17851 0.32001 0.0
H161 H 0.0193 0.2895 0.3336 0.0
H162 H 0.83481 0.08868 0.28968 0.0
H163 H 0.02476 0.27993 0.28649 0.0
H164 H 0.90692 0.25647 0.28345 0.0
Co165 Co 0.80225 0.73919 0.30992 0.0
C166 C 0.72404 0.68854 0.31722 0.0
C167 C 0.75305 0.74474 0.3234 0.0
C168 C 0.71881 0.72167 0.3278 0.0
N169 N 0.75629 0.72387 0.31681 0.0
N170 N 0.70073 0.6865 0.3239 0.0
H171 H 0.71893 0.66422 0.3131 0.0
H172 H 0.77503 0.77398 0.32515 0.0
C173 C 0.8222 0.81508 0.30188 0.0
O174 O 0.8293 0.80195 0.29459 0.0
N175 N 0.84993 0.75547 0.30335 0.0
C176 C 0.85913 0.73623 0.29737 0.0
C177 C 0.89856 0.75699 0.29583 0.0
C178 C 0.88409 0.78719 0.30544 0.0
N179 N 0.9142 0.78899 0.30094 0.0
C180 C 0.76585 0.68922 0.29503 0.0
C181 C 0.73108 0.72899 0.28836 0.0
C182 C 0.73181 0.70016 0.28316 0.0
C183 C 0.74751 0.67864 0.28685 0.0
C184 C 0.74936 0.73818 0.29657 0.0
N185 N 0.76999 0.72113 0.29936 0.0
H186 H 0.77756 0.67221 0.29778 0.0
H187 H 0.74803 0.76007 0.30051 0.0
H188 H 0.83968 0.70815 0.29461 0.0
H189 H 0.88699 0.80739 0.31056 0.0
O190 O 0.80148 0.69183 0.31311 0.0
O191 O 0.83164 0.74695 0.32062 0.0
O192 O 0.81007 0.79339 0.30872 0.0
C193 C 0.82355 0.71109 0.31972 0.0
H194 H 0.70849 0.72965 0.33359 0.0
H195 H 0.91456 0.74847 0.29148 0.0
H196 H 0.71823 0.74569 0.28598 0.0
H197 H 0.74658 0.65445 0.28335 0.0
Co198 Co 0.9297 0.7358 0.80641 0.0
C199 C 0.95718 0.68483 0.81359 0.0
C200 C 0.9836 0.74051 0.82001 0.0
C201 C 0.99512 0.71746 0.82429 0.0
N202 N 0.95975 0.71996 0.81336 0.0
N203 N 0.97857 0.68268 0.82022 0.0
H204 H 0.93845 0.66079 0.80935 0.0
H205 H 0.99061 0.76958 0.82186 0.0
C206 C 0.98582 0.81282 0.79876 0.0
O207 O 0.96554 0.80169 0.79146 0.0
N208 N 0.89888 0.75273 0.79971 0.0
C209 C 0.88343 0.74377 0.79152 0.0
C210 C 0.86552 0.76511 0.78972 0.0
C211 C 0.88951 0.77893 0.80275 0.0
N212 N 0.86923 0.78678 0.79684 0.0
C213 C 0.91663 0.68512 0.79161 0.0
C214 C 0.99232 0.72392 0.78556 0.0
C215 C 0.9639 0.69381 0.7804 0.0
C216 C 0.92583 0.67322 0.78373 0.0
C217 C 0.98189 0.73444 0.7934 0.0
N218 N 0.94391 0.71736 0.79594 0.0
H219 H 0.88707 0.6696 0.79399 0.0
H220 H 0.00458 0.75687 0.79734 0.0
H221 H 0.88561 0.72433 0.78693 0.0
H222 H 0.89839 0.79304 0.8091 0.0
O223 O 0.88216 0.68893 0.80975 0.0
O224 O 0.90928 0.74459 0.81707 0.0
O225 O 0.9766 0.78956 0.8053 0.0
C226 C 0.8808 0.70909 0.81636 0.0
H227 H 0.01337 0.72518 0.83008 0.0
H228 H 0.85093 0.76476 0.78368 0.0
H229 H 0.02229 0.74047 0.78345 0.0
H230 H 0.90312 0.64866 0.78022 0.0
Co231 Co 0.26479 0.19456 0.80822 0.0
C232 C 0.31584 0.27365 0.81497 0.0
C233 C 0.25624 0.25221 0.8186 0.0
C234 C 0.27819 0.28966 0.82166 0.0
N235 N 0.27986 0.24244 0.81435 0.0
N236 N 0.31555 0.30295 0.81939 0.0
H237 H 0.34147 0.27519 0.81208 0.0
H238 H 0.22523 0.23359 0.81937 0.0
C239 C 0.18997 0.17427 0.79933 0.0
O240 O 0.20345 0.16597 0.79226 0.0
N241 N 0.24926 0.14537 0.80237 0.0
C242 C 0.27187 0.13276 0.79865 0.0
C243 C 0.24975 0.0934 0.79709 0.0
C244 C 0.21422 0.11304 0.80333 0.0
N245 N 0.2135 0.08134 0.79999 0.0
C246 C 0.31346 0.22505 0.7927 0.0
C247 C 0.27835 0.26532 0.78649 0.0
C248 C 0.30601 0.26312 0.78115 0.0
C249 C 0.32478 0.24388 0.78455 0.0
C250 C 0.26847 0.24666 0.79462 0.0
N251 N 0.28363 0.22421 0.79732 0.0
H252 H 0.32898 0.21154 0.79532 0.0
H253 H 0.24766 0.24953 0.79864 0.0
H254 H 0.30284 0.14978 0.79771 0.0
H255 H 0.19018 0.11219 0.80687 0.0
O256 O 0.31159 0.1956 0.81225 0.0
O257 O 0.25508 0.16767 0.81926 0.0
O258 O 0.21091 0.1869 0.80627 0.0
C259 C 0.29076 0.17481 0.81889 0.0
H260 H 0.26761 0.30576 0.82537 0.0
H261 H 0.25974 0.07492 0.79428 0.0
H262 H 0.26317 0.28009 0.78433 0.0
H263 H 0.34787 0.24313 0.78094 0.0
Co264 Co 0.80564 0.06449 0.80877 0.0
C265 C 0.72544 0.03797 0.81579 0.0
C266 C 0.75428 0.01158 0.8223 0.0
C267 C 0.71837 0.99779 0.82609 0.0
N268 N 0.75834 0.03577 0.81563 0.0
N269 N 0.70042 0.0145 0.822 0.0
H270 H 0.71977 0.05654 0.81163 0.0
H271 H 0.7762 0.00464 0.82432 0.0
C272 C 0.78535 0.98135 0.80691 0.0
O273 O 0.74864 0.97148 0.80609 0.0
N274 N 0.8535 0.09342 0.80232 0.0
C275 C 0.86381 0.12469 0.79717 0.0
C276 C 0.90252 0.14066 0.795 0.0
C277 C 0.88569 0.09052 0.80318 0.0
N278 N 0.91602 0.11902 0.79878 0.0
C279 C 0.75459 0.06718 0.79544 0.0
C280 C 0.76581 0.02169 0.78337 0.0
C281 C 0.73988 0.03458 0.78131 0.0
C282 C 0.73509 0.05859 0.78733 0.0
C283 C 0.78523 0.0317 0.79139 0.0
N284 N 0.77759 0.05188 0.7976 0.0
H285 H 0.75213 0.0871 0.79985 0.0
H286 H 0.80728 0.02391 0.79245 0.0
H287 H 0.84496 0.136 0.79543 0.0
H288 H 0.8875 0.06938 0.80734 0.0
O289 O 0.80718 0.11279 0.81166 0.0
O290 O 0.83385 0.08523 0.81954 0.0
O291 O 0.81146 0.01689 0.80801 0.0
C292 C 0.82788 0.11428 0.81846 0.0
H293 H 0.7067 0.97783 0.83158 0.0
H294 H 0.91965 0.16658 0.79112 0.0
H295 H 0.77207 0.00504 0.77867 0.0
H296 H 0.71666 0.07063 0.78577 0.0
Co297 Co 0.74322 0.93799 0.69198 0.0
C298 C 0.6886 0.96188 0.68431 0.0
C299 C 0.74107 0.98161 0.67688 0.0
C300 C 0.71704 0.99086 0.6723 0.0
N301 N 0.72348 0.96362 0.68445 0.0
N302 N 0.68419 0.97847 0.67698 0.0
H303 H 0.66587 0.94697 0.68909 0.0
H304 H 0.76897 0.98628 0.67469 0.0
C305 C 0.80559 0.02175 0.6923 0.0
O306 O 0.77856 0.03148 0.69287 0.0
N307 N 0.76357 0.91219 0.69911 0.0
C308 C 0.74695 0.88904 0.70613 0.0
C309 C 0.76992 0.87382 0.70868 0.0
C310 C 0.79593 0.91053 0.69741 0.0
N311 N 0.80053 0.88721 0.70315 0.0
C312 C 0.68998 0.93759 0.7051 0.0
C313 C 0.7469 0.9882 0.71655 0.0
C314 C 0.70798 0.97339 0.71885 0.0
C315 C 0.67917 0.94711 0.71311 0.0
C316 C 0.75632 0.97724 0.70865 0.0
N317 N 0.7282 0.95402 0.70276 0.0
H318 H 0.66764 0.91586 0.70096 0.0
H319 H 0.78642 0.98627 0.70752 0.0
H320 H 0.71956 0.88276 0.70903 0.0
H321 H 0.81529 0.92558 0.69198 0.0
O322 O 0.6968 0.88811 0.68979 0.0
O323 O 0.75045 0.91422 0.68173 0.0
O324 O 0.79621 0.98599 0.69195 0.0
C325 C 0.7158 0.88514 0.68312 0.0
H326 H 0.72285 0.00486 0.66592 0.0
H327 H 0.76375 0.85329 0.71397 0.0
H328 H 0.77002 0.00675 0.72103 0.0
H329 H 0.64873 0.93373 0.71485 0.0
Co330 Co 0.07113 0.80832 0.69214 0.0
C331 C 0.04236 0.73113 0.68415 0.0
C332 C 0.01664 0.76211 0.67826 0.0
C333 C 0.00442 0.72804 0.67368 0.0
N334 N 0.04044 0.76396 0.68478 0.0
N335 N 0.02058 0.70871 0.67742 0.0
H336 H 0.0607 0.72469 0.68826 0.0
H337 H 0.00993 0.78469 0.67674 0.0
C338 C 0.01318 0.82247 0.70136 0.0
O339 O 0.03234 0.82595 0.70867 0.0
N340 N 0.10277 0.85453 0.69918 0.0
C341 C 0.13807 0.86645 0.70279 0.0
C342 C 0.1551 0.90532 0.70489 0.0
C343 C 0.09967 0.88685 0.69891 0.0
N344 N 0.13069 0.91785 0.70247 0.0
C345 C 0.08614 0.7723 0.70704 0.0
C346 C 0.00946 0.72867 0.71223 0.0
C347 C 0.03844 0.73061 0.71786 0.0
C348 C 0.07713 0.75121 0.7149 0.0
C349 C 0.01978 0.74948 0.70436 0.0
N350 N 0.05788 0.77376 0.70226 0.0
H351 H 0.11582 0.78746 0.70483 0.0
H352 H 0.99695 0.74744 0.70014 0.0
H353 H 0.15256 0.84969 0.70311 0.0
H354 H 0.07679 0.88863 0.69546 0.0
O355 O 0.11786 0.80915 0.68816 0.0
O356 O 0.09103 0.84038 0.68183 0.0
O357 O 0.02424 0.81463 0.69412 0.0
C358 C 0.11921 0.83267 0.68201 0.0
H359 H 0.98567 0.71846 0.66796 0.0
H360 H 0.18398 0.92342 0.70754 0.0
H361 H 0.97905 0.71283 0.71401 0.0
H362 H 0.10047 0.75169 0.71867 0.0
Co363 Co 0.19766 0.26383 0.69218 0.0
C364 C 0.27573 0.31298 0.6847 0.0
C365 C 0.24565 0.2567 0.67858 0.0
C366 C 0.28002 0.27915 0.67416 0.0
N367 N 0.24302 0.27803 0.68514 0.0
N368 N 0.29878 0.31434 0.67804 0.0
H369 H 0.28145 0.33749 0.68883 0.0
H370 H 0.22326 0.22756 0.67688 0.0
C371 C 0.17694 0.18853 0.70068 0.0
O372 O 0.16943 0.20212 0.70784 0.0
N373 N 0.15061 0.24892 0.69889 0.0
C374 C 0.14161 0.26993 0.7044 0.0
C375 C 0.10218 0.24972 0.706 0.0
C376 C 0.11634 0.21677 0.6971 0.0
N377 N 0.08642 0.21631 0.70139 0.0
C378 C 0.2356 0.31471 0.70702 0.0
C379 C 0.27155 0.27504 0.71308 0.0
C380 C 0.27241 0.30433 0.7184 0.0
C381 C 0.2557 0.3256 0.71503 0.0
C382 C 0.25171 0.26566 0.70509 0.0
N383 N 0.23085 0.28283 0.70257 0.0
H384 H 0.22367 0.3318 0.70443 0.0
H385 H 0.25236 0.24365 0.70105 0.0
H386 H 0.16115 0.29891 0.70669 0.0
H387 H 0.11317 0.19528 0.69229 0.0
O388 O 0.19793 0.31074 0.6885 0.0
O389 O 0.16737 0.25394 0.68165 0.0
O390 O 0.18983 0.20978 0.69378 0.0
C391 C 0.1751 0.28976 0.68212 0.0
H392 H 0.29003 0.27071 0.66839 0.0
H393 H 0.08623 0.25958 0.70999 0.0
H394 H 0.28459 0.25811 0.71516 0.0
H395 H 0.25761 0.35009 0.71859 0.0
Co396 Co 0.73746 0.59343 0.5256 0.0
C397 C 0.70825 0.64569 0.51906 0.0
C398 C 0.68649 0.59265 0.51176 0.0
C399 C 0.67115 0.61378 0.5082 0.0
N400 N 0.70879 0.61195 0.51875 0.0
N401 N 0.68493 0.64703 0.51279 0.0
H402 H 0.72454 0.66903 0.52362 0.0
H403 H 0.68169 0.56489 0.50941 0.0
C404 C 0.65465 0.52955 0.52673 0.0
O405 O 0.64414 0.55588 0.52766 0.0
N406 N 0.76619 0.57432 0.53201 0.0
C407 C 0.7928 0.59257 0.53837 0.0
C408 C 0.81007 0.57076 0.54026 0.0
C409 C 0.76752 0.54197 0.5301 0.0
N410 N 0.79417 0.53903 0.53503 0.0
C411 C 0.73721 0.64457 0.53928 0.0
C412 C 0.69102 0.58546 0.55079 0.0
C413 C 0.70243 0.62369 0.55313 0.0
C414 C 0.72687 0.65373 0.5474 0.0
C415 C 0.70255 0.5778 0.54277 0.0
N416 N 0.72303 0.60677 0.53682 0.0
H417 H 0.75737 0.66788 0.53509 0.0
H418 H 0.69563 0.54835 0.54149 0.0
H419 H 0.80009 0.62038 0.54119 0.0
H420 H 0.75086 0.52221 0.52485 0.0
O421 O 0.78583 0.641 0.5231 0.0
O422 O 0.75952 0.58783 0.51486 0.0
O423 O 0.69046 0.53958 0.52589 0.0
C424 C 0.78818 0.62281 0.51618 0.0
H425 H 0.65205 0.60583 0.50255 0.0
H426 H 0.83311 0.57814 0.54499 0.0
H427 H 0.67411 0.56161 0.55526 0.0
H428 H 0.73774 0.68382 0.54917 0.0
Co429 Co 0.40286 0.13861 0.52582 0.0
C430 C 0.35085 0.06059 0.5185 0.0
C431 C 0.41072 0.08092 0.51535 0.0
C432 C 0.38851 0.04411 0.51198 0.0
N433 N 0.38712 0.09103 0.5195 0.0
N434 N 0.35099 0.0315 0.51396 0.0
H435 H 0.32507 0.05945 0.52119 0.0
H436 H 0.44191 0.09894 0.51482 0.0
C437 C 0.47928 0.16099 0.53416 0.0
O438 O 0.46765 0.17155 0.54118 0.0
N439 N 0.41947 0.18763 0.53196 0.0
C440 C 0.40984 0.19558 0.53994 0.0
C441 C 0.43147 0.23498 0.54146 0.0
C442 C 0.44636 0.22259 0.52875 0.0
N443 N 0.45402 0.25165 0.53438 0.0
C444 C 0.35076 0.10463 0.54053 0.0
C445 C 0.38862 0.06908 0.5479 0.0
C446 C 0.35917 0.07023 0.55273 0.0
C447 C 0.3389 0.08674 0.54877 0.0
C448 C 0.39964 0.08756 0.53975 0.0
N449 N 0.38311 0.10806 0.53655 0.0
H450 H 0.33568 0.11825 0.53766 0.0
H451 H 0.42221 0.08607 0.53613 0.0
H452 H 0.38992 0.17492 0.5446 0.0
H453 H 0.46123 0.22668 0.52254 0.0
O454 O 0.35667 0.1392 0.52188 0.0
O455 O 0.41294 0.16589 0.51482 0.0
O456 O 0.45648 0.1456 0.52759 0.0
C457 C 0.37768 0.15982 0.51525 0.0
H458 H 0.39903 0.02798 0.50827 0.0
H459 H 0.4309 0.2502 0.54731 0.0
H460 H 0.4045 0.05584 0.55057 0.0
H461 H 0.31502 0.08703 0.55213 0.0
Co462 Co 0.86235 0.26173 0.52561 0.0
C463 C 0.94322 0.28734 0.51913 0.0
C464 C 0.91694 0.31679 0.51284 0.0
C465 C 0.95326 0.33045 0.50932 0.0
N466 N 0.91105 0.29086 0.51925 0.0
N467 N 0.9696 0.31187 0.51326 0.0
H468 H 0.94725 0.26689 0.52299 0.0
H469 H 0.8959 0.32481 0.51075 0.0
C470 C 0.88065 0.34398 0.52742 0.0
O471 O 0.91637 0.35312 0.52946 0.0
N472 N 0.81307 0.23249 0.53152 0.0
C473 C 0.8017 0.20141 0.5368 0.0
C474 C 0.76275 0.18591 0.53865 0.0
C475 C 0.78126 0.23572 0.53026 0.0
N476 N 0.75017 0.20766 0.53455 0.0
C477 C 0.91269 0.26357 0.53969 0.0
C478 C 0.89353 0.3048 0.55133 0.0
C479 C 0.92157 0.29524 0.5538 0.0
C480 C 0.93038 0.27334 0.548 0.0
C481 C 0.87601 0.29369 0.5431 0.0
N482 N 0.88757 0.27575 0.53712 0.0
H483 H 0.91823 0.24513 0.53547 0.0
H484 H 0.85272 0.29928 0.54159 0.0
H485 H 0.82013 0.19011 0.53891 0.0
H486 H 0.78039 0.25702 0.52598 0.0
O487 O 0.86277 0.214 0.52357 0.0
O488 O 0.83707 0.2392 0.5146 0.0
O489 O 0.85543 0.30879 0.52558 0.0
C490 C 0.84349 0.21088 0.5164 0.0
H491 H 0.96626 0.35153 0.50407 0.0
H492 H 0.74495 0.16046 0.54262 0.0
H493 H 0.8844 0.31987 0.55582 0.0
H494 H 0.95063 0.26387 0.54987 0.0
Co495 Co 0.92814 0.40148 0.64376 0.0
C496 C 0.98212 0.37498 0.65066 0.0
C497 C 0.93005 0.35473 0.65827 0.0
C498 C 0.95211 0.3409 0.66206 0.0
N499 N 0.94814 0.37508 0.65097 0.0
N500 N 0.98476 0.35377 0.65728 0.0
H501 H 0.00467 0.39001 0.64585 0.0
H502 H 0.90249 0.35022 0.66068 0.0
C503 C 0.86413 0.31834 0.64379 0.0
O504 O 0.89034 0.30756 0.6431 0.0
N505 N 0.90764 0.42811 0.63698 0.0
C506 C 0.92705 0.4576 0.63127 0.0
C507 C 0.90348 0.47255 0.62902 0.0
C508 C 0.87269 0.42523 0.63809 0.0
N509 N 0.86941 0.45199 0.6333 0.0
C510 C 0.97745 0.39895 0.63005 0.0
C511 C 0.91755 0.3499 0.61902 0.0
C512 C 0.9558 0.36303 0.61638 0.0
C513 C 0.98612 0.38854 0.6219 0.0
C514 C 0.91029 0.36175 0.62707 0.0
N515 N 0.93984 0.38409 0.63275 0.0
H516 H 0.00102 0.42012 0.63403 0.0
H517 H 0.88074 0.35401 0.62851 0.0
H518 H 0.95676 0.4685 0.6292 0.0
H519 H 0.85096 0.40551 0.64268 0.0
O520 O 0.97596 0.45016 0.64532 0.0
O521 O 0.92485 0.4273 0.6542 0.0
O522 O 0.87437 0.35433 0.64422 0.0
C523 C 0.95954 0.45523 0.65222 0.0
H524 H 0.94514 0.32335 0.66795 0.0
H525 H 0.91101 0.49707 0.62474 0.0
H526 H 0.89338 0.33198 0.61471 0.0
H527 H 0.01613 0.40062 0.6199 0.0
Co528 Co 0.59732 0.52999 0.6428 0.0
C529 C 0.62607 0.60795 0.65053 0.0
C530 C 0.66357 0.58497 0.6535 0.0
C531 C 0.67918 0.62134 0.65717 0.0
N532 N 0.63053 0.57678 0.64928 0.0
N533 N 0.65553 0.6356 0.65532 0.0
H534 H 0.60219 0.6106 0.6479 0.0
H535 H 0.67555 0.56588 0.65393 0.0
C536 C 0.64888 0.50395 0.63482 0.0
O537 O 0.62749 0.4954 0.62768 0.0
N538 N 0.5635 0.48175 0.63664 0.0
C539 C 0.5373 0.47336 0.63014 0.0
C540 C 0.51907 0.43408 0.62842 0.0
C541 C 0.55973 0.44723 0.63894 0.0
N542 N 0.53326 0.41779 0.63398 0.0
C543 C 0.58521 0.5664 0.62761 0.0
C544 C 0.65976 0.59821 0.62104 0.0
C545 C 0.63133 0.59958 0.61584 0.0
C546 C 0.59401 0.58492 0.61942 0.0
C547 C 0.64965 0.57958 0.6292 0.0
N548 N 0.61193 0.56079 0.63201 0.0
H549 H 0.55656 0.5558 0.63033 0.0
H550 H 0.67227 0.57965 0.63314 0.0
H551 H 0.53074 0.49346 0.62691 0.0
H552 H 0.57679 0.444 0.64407 0.0
O553 O 0.55203 0.53318 0.64608 0.0
O554 O 0.57629 0.50267 0.65373 0.0
O555 O 0.64181 0.51923 0.64146 0.0
C556 C 0.54905 0.51146 0.65279 0.0
H557 H 0.70559 0.63601 0.66102 0.0
H558 H 0.49663 0.41863 0.62355 0.0
H559 H 0.6893 0.60996 0.61873 0.0
H560 H 0.57158 0.58715 0.61587 0.0
Co561 Co 0.47423 0.07271 0.64234 0.0
C562 C 0.39611 0.02181 0.64987 0.0
C563 C 0.42264 0.08014 0.65489 0.0
C564 C 0.38611 0.05903 0.65846 0.0
N565 N 0.42866 0.05693 0.64945 0.0
N566 N 0.36959 0.02249 0.65531 0.0
H567 H 0.39158 0.9967 0.64613 0.0
H568 H 0.44324 0.11042 0.65614 0.0
C569 C 0.49373 0.14936 0.63503 0.0
O570 O 0.49855 0.1362 0.62749 0.0
N571 N 0.52197 0.09014 0.63555 0.0
C572 C 0.52917 0.08322 0.62722 0.0
C573 C 0.56854 0.10487 0.62561 0.0
C574 C 0.55734 0.11562 0.63882 0.0
N575 N 0.58596 0.12481 0.63295 0.0
C576 C 0.43781 0.02923 0.62646 0.0
C577 C 0.3968 0.06677 0.62283 0.0
C578 C 0.39878 0.04275 0.61632 0.0
C579 C 0.41805 0.02222 0.61843 0.0
C580 C 0.41791 0.07372 0.63059 0.0
N581 N 0.44108 0.05789 0.63193 0.0
H582 H 0.45273 0.01349 0.628 0.0
H583 H 0.41648 0.09289 0.63543 0.0
H584 H 0.50816 0.06521 0.62238 0.0
H585 H 0.56207 0.12838 0.64531 0.0
O586 O 0.47245 0.02404 0.64467 0.0
O587 O 0.50318 0.07705 0.65289 0.0
O588 O 0.48342 0.12759 0.64186 0.0
C589 C 0.49455 0.04136 0.65143 0.0
H590 H 0.37275 0.06959 0.66308 0.0
H591 H 0.58323 0.10601 0.61952 0.0
H592 H 0.38002 0.08111 0.62187 0.0
H593 H 0.41961 0.00235 0.6138 0.0
Co594 Co 0.59813 0.06926 0.14251 0.0
C595 C 0.62228 0.01461 0.14967 0.0
C596 C 0.65687 0.07268 0.15451 0.0
C597 C 0.6664 0.04904 0.15916 0.0
N598 N 0.62978 0.05145 0.14839 0.0
N599 N 0.64466 0.01268 0.15609 0.0
H600 H 0.59838 0.98918 0.14672 0.0
H601 H 0.66679 0.10275 0.15605 0.0
C602 C 0.67814 0.13458 0.13955 0.0
O603 O 0.68703 0.10858 0.13683 0.0
N604 N 0.56618 0.08749 0.13719 0.0
C605 C 0.53633 0.06801 0.13161 0.0
C606 C 0.519 0.09004 0.13012 0.0
C607 C 0.56662 0.12078 0.13907 0.0
N608 N 0.53802 0.12329 0.13483 0.0
C609 C 0.60439 0.02322 0.12831 0.0
C610 C 0.62762 0.08115 0.11579 0.0
C611 C 0.62199 0.04492 0.11325 0.0
C612 C 0.61064 0.01575 0.11962 0.0
C613 C 0.62175 0.08756 0.12451 0.0
N614 N 0.61083 0.05909 0.13073 0.0
H615 H 0.59282 0.99966 0.13294 0.0
H616 H 0.62497 0.11542 0.1262 0.0
H617 H 0.52723 0.0394 0.129 0.0
H618 H 0.58712 0.14218 0.1436 0.0
O619 O 0.55187 0.02015 0.14482 0.0
O620 O 0.57716 0.07098 0.15382 0.0
O621 O 0.64375 0.1239 0.14223 0.0
C622 C 0.54945 0.03575 0.15217 0.0
H623 H 0.68625 0.05748 0.16467 0.0
H624 H 0.49353 0.08134 0.1261 0.0
H625 H 0.636 0.10429 0.11103 0.0
H626 H 0.60503 0.98703 0.11781 0.0
Co627 Co 0.93163 0.52872 0.14341 0.0
C628 C 0.98568 0.6072 0.15074 0.0
C629 C 0.92745 0.58333 0.15551 0.0
C630 C 0.95085 0.61647 0.1602 0.0
N631 N 0.94897 0.57774 0.14943 0.0
N632 N 0.98737 0.63133 0.15719 0.0
H633 H 0.0112 0.60906 0.14776 0.0
H634 H 0.89727 0.5631 0.15695 0.0
C635 C 0.86732 0.54495 0.14009 0.0
O636 O 0.89391 0.58005 0.13763 0.0
N637 N 0.91423 0.47915 0.13787 0.0
C638 C 0.93501 0.46984 0.13243 0.0
C639 C 0.91378 0.43072 0.13067 0.0
C640 C 0.88087 0.44584 0.1394 0.0
N641 N 0.87968 0.41551 0.13507 0.0
C642 C 0.98117 0.58045 0.1294 0.0
C643 C 0.92348 0.54884 0.11676 0.0
C644 C 0.96068 0.5777 0.11425 0.0
C645 C 0.9898 0.59407 0.12068 0.0
C646 C 0.91616 0.5364 0.12543 0.0
N647 N 0.94439 0.55258 0.13173 0.0
H648 H 0.00446 0.59107 0.1341 0.0
H649 H 0.88769 0.51248 0.127 0.0
H650 H 0.96403 0.48993 0.13012 0.0
H651 H 0.8585 0.44402 0.14375 0.0
O652 O 0.97978 0.53014 0.14641 0.0
O653 O 0.92655 0.50483 0.15465 0.0
O654 O 0.87731 0.52052 0.14262 0.0
C655 C 0.96177 0.51145 0.15353 0.0
H656 H 0.94209 0.62783 0.16566 0.0
H657 H 0.92359 0.41471 0.1267 0.0
H658 H 0.90015 0.53527 0.112 0.0
H659 H 0.01917 0.61585 0.11892 0.0
Co660 Co 0.47111 0.40323 0.14417 0.0
C661 C 0.39 0.37594 0.15032 0.0
C662 C 0.41184 0.33945 0.15483 0.0
C663 C 0.37513 0.32534 0.15816 0.0
N664 N 0.42067 0.37015 0.14956 0.0
N665 N 0.36155 0.34834 0.15533 0.0
H666 H 0.38889 0.40053 0.14765 0.0
H667 H 0.43128 0.32876 0.15647 0.0
C668 C 0.45777 0.32411 0.14046 0.0
O669 O 0.42342 0.31591 0.13749 0.0
N670 N 0.52188 0.43675 0.13923 0.0
C671 C 0.53187 0.46741 0.13393 0.0
C672 C 0.57117 0.48543 0.1324 0.0
C673 C 0.55502 0.4365 0.1409 0.0
N674 N 0.58588 0.46602 0.13678 0.0
C675 C 0.42098 0.39886 0.12961 0.0
C676 C 0.45667 0.3755 0.11739 0.0
C677 C 0.42585 0.38049 0.11464 0.0
C678 C 0.40778 0.39229 0.12086 0.0
C679 C 0.46875 0.38225 0.12609 0.0
N680 N 0.45018 0.39239 0.13221 0.0
H681 H 0.40857 0.4104 0.13413 0.0
H682 H 0.49353 0.37948 0.12791 0.0
H683 H 0.51203 0.47642 0.13149 0.0
H684 H 0.55627 0.41532 0.14514 0.0
O685 O 0.46708 0.44857 0.1467 0.0
O686 O 0.49198 0.42264 0.1557 0.0
O687 O 0.48084 0.35785 0.14362 0.0
C688 C 0.48447 0.45043 0.1541 0.0
H689 H 0.36019 0.30112 0.16265 0.0
H690 H 0.58754 0.51147 0.12852 0.0
H691 H 0.47154 0.36635 0.11285 0.0
H692 H 0.38454 0.3975 0.11894 0.0
Co693 Co 0.39956 0.26615 0.02306 0.0
C694 C 0.34333 0.29113 0.01738 0.0
C695 C 0.39771 0.32041 0.01053 0.0
C696 C 0.37267 0.33018 0.00662 0.0
N697 N 0.37975 0.29649 0.0174 0.0
N698 N 0.33871 0.31188 0.01096 0.0
H699 H 0.31953 0.26981 0.02128 0.0
H700 H 0.42621 0.32801 0.0081 0.0
C701 C 0.46615 0.34717 0.02426 0.0
O702 O 0.44112 0.35755 0.02687 0.0
N703 N 0.41956 0.23544 0.02821 0.0
C704 C 0.40329 0.2081 0.03451 0.0
C705 C 0.42474 0.18966 0.0353 0.0
C706 C 0.45019 0.23322 0.02521 0.0
N707 N 0.45404 0.20536 0.0294 0.0
C708 C 0.35768 0.27209 0.03814 0.0
C709 C 0.42181 0.30572 0.04906 0.0
C710 C 0.38576 0.29752 0.05247 0.0
C711 C 0.35333 0.28061 0.04688 0.0
C712 C 0.42476 0.29664 0.04038 0.0
N713 N 0.39335 0.28139 0.03489 0.0
H714 H 0.33206 0.25632 0.03417 0.0
H715 H 0.45242 0.30087 0.03818 0.0
H716 H 0.37696 0.20116 0.03804 0.0
H717 H 0.46864 0.25114 0.01992 0.0
O718 O 0.34986 0.21934 0.02169 0.0
O719 O 0.39749 0.24277 0.01183 0.0
O720 O 0.45435 0.31171 0.02228 0.0
C721 C 0.36308 0.21529 0.01415 0.0
H722 H 0.37819 0.34767 0.00076 0.0
H723 H 0.41825 0.16551 0.03962 0.0
H724 H 0.44771 0.31862 0.05311 0.0
H725 H 0.32471 0.27263 0.04934 0.0
Co726 Co 0.72986 0.13339 0.02322 0.0
C727 C 0.71524 0.05824 0.01584 0.0
C728 C 0.68973 0.08513 0.00813 0.0
C729 C 0.68418 0.05244 0.00379 0.0
N730 N 0.70927 0.08879 0.01563 0.0
N731 N 0.70019 0.0357 0.00865 0.0
H732 H 0.7315 0.05351 0.02093 0.0
H733 H 0.6814 0.10566 0.00582 0.0
C734 C 0.67349 0.15746 0.01935 0.0
O735 O 0.70232 0.18607 0.01509 0.0
N736 N 0.7495 0.17901 0.03073 0.0
C737 C 0.73212 0.18127 0.03817 0.0
C738 C 0.7472 0.21967 0.04042 0.0
C739 C 0.77489 0.21632 0.02858 0.0
N740 N 0.77389 0.2416 0.03434 0.0
C741 C 0.74099 0.10689 0.03989 0.0
C742 C 0.66333 0.0538 0.04275 0.0
C743 C 0.68958 0.06345 0.04977 0.0
C744 C 0.72919 0.08911 0.04814 0.0
C745 C 0.67628 0.07249 0.03466 0.0
N746 N 0.71428 0.10012 0.0335 0.0
H747 H 0.77116 0.12843 0.03885 0.0
H748 H 0.65543 0.06601 0.02944 0.0
H749 H 0.70771 0.15696 0.04134 0.0
H750 H 0.79098 0.22532 0.02248 0.0
O751 O 0.78211 0.14182 0.02149 0.0
O752 O 0.75346 0.16549 0.01306 0.0
O753 O 0.6785 0.1316 0.02309 0.0
C754 C 0.78392 0.16251 0.01466 0.0
H755 H 0.66988 0.04191 0.99751 0.0
H756 H 0.73741 0.23064 0.04577 0.0
H757 H 0.63269 0.03322 0.04361 0.0
H758 H 0.75058 0.09751 0.05332 0.0
Co759 Co 0.86186 0.59019 0.0229 0.0
C760 C 0.94103 0.64583 0.01595 0.0
C761 C 0.91198 0.59227 0.00878 0.0
C762 C 0.94511 0.61731 0.00429 0.0
N763 N 0.90953 0.60972 0.01619 0.0
N764 N 0.96324 0.65089 0.0088 0.0
H765 H 0.94599 0.66915 0.02035 0.0
H766 H 0.88972 0.56411 0.00647 0.0
C767 C 0.87585 0.52305 0.02261 0.0
O768 O 0.91278 0.54758 0.02413 0.0
N769 N 0.81335 0.57036 0.02913 0.0
C770 C 0.80567 0.58662 0.03604 0.0
C771 C 0.76638 0.56567 0.03774 0.0
C772 C 0.77894 0.54004 0.02668 0.0
N773 N 0.74962 0.53649 0.03183 0.0
C774 C 0.9139 0.63262 0.03737 0.0
C775 C 0.88934 0.56831 0.04806 0.0
C776 C 0.91613 0.60483 0.05144 0.0
C777 C 0.92884 0.63734 0.04595 0.0
C778 C 0.87486 0.56503 0.0396 0.0
N779 N 0.88792 0.59662 0.0342 0.0
H780 H 0.92151 0.65818 0.03353 0.0
H781 H 0.85149 0.53699 0.03759 0.0
H782 H 0.82694 0.61253 0.03943 0.0
H783 H 0.77527 0.52225 0.02097 0.0
O784 O 0.86456 0.64 0.02201 0.0
O785 O 0.83642 0.59201 0.0123 0.0
O786 O 0.85192 0.53544 0.02172 0.0
C787 C 0.84481 0.6267 0.01475 0.0
H788 H 0.95434 0.61191 0.998 0.0
H789 H 0.75128 0.57189 0.04285 0.0
H790 H 0.8785 0.54225 0.05201 0.0
H791 H 0.94861 0.66627 0.04837 0.0
Co792 Co 0.40074 0.92983 0.85781 0.0
C793 C 0.37424 0.98176 0.85062 0.0
C794 C 0.33664 0.92223 0.84685 0.0
C795 C 0.32163 0.94419 0.84355 0.0
N796 N 0.36935 0.94573 0.85134 0.0
N797 N 0.34529 0.98151 0.84591 0.0
H798 H 0.39788 0.00735 0.85363 0.0
H799 H 0.32439 0.89125 0.84606 0.0
C800 C 0.34543 0.85411 0.86624 0.0
O801 O 0.36754 0.86577 0.87329 0.0
N802 N 0.43264 0.91309 0.86404 0.0
C803 C 0.46106 0.93172 0.87005 0.0
C804 C 0.47855 0.90996 0.87169 0.0
C805 C 0.43406 0.88075 0.86198 0.0
N806 N 0.46154 0.87791 0.8666 0.0
C807 C 0.41823 0.98159 0.87263 0.0
C808 C 0.34459 0.94325 0.87985 0.0
C809 C 0.37499 0.97224 0.88482 0.0
C810 C 0.41188 0.99283 0.88091 0.0
C811 C 0.35235 0.93305 0.87162 0.0
N812 N 0.38953 0.94958 0.86852 0.0
H813 H 0.44656 0.99801 0.86965 0.0
H814 H 0.32834 0.91106 0.86788 0.0
H815 H 0.47013 0.95976 0.87288 0.0
H816 H 0.41609 0.86041 0.85695 0.0
O817 O 0.44775 0.97585 0.85392 0.0
O818 O 0.41855 0.91932 0.84694 0.0
O819 O 0.35371 0.8765 0.85957 0.0
C820 C 0.44776 0.95459 0.84739 0.0
H821 H 0.29552 0.93365 0.83963 0.0
H822 H 0.50239 0.91759 0.87619 0.0
H823 H 0.31531 0.92717 0.88242 0.0
H824 H 0.43582 0.01687 0.88429 0.0
Co825 Co 0.06469 0.47313 0.85694 0.0
C826 C 0.01441 0.39354 0.85009 0.0
C827 C 0.07386 0.41752 0.84601 0.0
C828 C 0.05278 0.38037 0.84277 0.0
N829 N 0.0499 0.42556 0.85067 0.0
N830 N 0.01553 0.36547 0.84532 0.0
H831 H 0.98858 0.39062 0.8532 0.0
H832 H 0.10453 0.43725 0.84501 0.0
C833 C 0.14168 0.495 0.86484 0.0
O834 O 0.1296 0.50304 0.87217 0.0
N835 N 0.08031 0.52223 0.86288 0.0
C836 C 0.05806 0.53423 0.86704 0.0
C837 C 0.08018 0.5735 0.86874 0.0
C838 C 0.11502 0.5549 0.8618 0.0
N839 N 0.11603 0.58615 0.8655 0.0
C840 C 0.01995 0.44227 0.87289 0.0
C841 C 0.05805 0.40409 0.87853 0.0
C842 C 0.03123 0.40599 0.88422 0.0
C843 C 0.0108 0.42398 0.88111 0.0
C844 C 0.06565 0.42208 0.87032 0.0
N845 N 0.04914 0.44367 0.8679 0.0
H846 H 0.00332 0.45504 0.87053 0.0
H847 H 0.08589 0.41955 0.86601 0.0
H848 H 0.02732 0.51679 0.86826 0.0
H849 H 0.13868 0.55631 0.85799 0.0
O850 O 0.01619 0.46995 0.85379 0.0
O851 O 0.07043 0.49954 0.84591 0.0
O852 O 0.11943 0.48246 0.8581 0.0
C853 C 0.03443 0.49083 0.84694 0.0
H854 H 0.06381 0.3656 0.83872 0.0
H855 H 0.07048 0.5915 0.87194 0.0
H856 H 0.07431 0.39012 0.88046 0.0
H857 H 0.9881 0.42427 0.88498 0.0
Co858 Co 0.52513 0.59685 0.85588 0.0
C859 C 0.60559 0.62326 0.84932 0.0
C860 C 0.5859 0.66293 0.84601 0.0
C861 C 0.62236 0.67687 0.84255 0.0
N862 N 0.5759 0.63021 0.85063 0.0
N863 N 0.63464 0.65191 0.84463 0.0
H864 H 0.60558 0.59726 0.85138 0.0
H865 H 0.5674 0.67519 0.84487 0.0
C866 C 0.54022 0.67582 0.86093 0.0
O867 O 0.5743 0.68301 0.86387 0.0
N868 N 0.47396 0.56334 0.86063 0.0
C869 C 0.46138 0.52908 0.86476 0.0
C870 C 0.42217 0.51281 0.86637 0.0
C871 C 0.44258 0.56761 0.8598 0.0
N872 N 0.41063 0.53722 0.86327 0.0
C873 C 0.57564 0.59719 0.86996 0.0
C874 C 0.54037 0.61748 0.88295 0.0
C875 C 0.57176 0.61263 0.88524 0.0
C876 C 0.58958 0.60231 0.87864 0.0
C877 C 0.52778 0.61251 0.87428 0.0
N878 N 0.54607 0.60382 0.8678 0.0
H879 H 0.58808 0.58701 0.86511 0.0
H880 H 0.5031 0.61593 0.87278 0.0
H881 H 0.47933 0.51657 0.86634 0.0
H882 H 0.44279 0.59181 0.85648 0.0
O883 O 0.52713 0.55116 0.8523 0.0
O884 O 0.50386 0.58154 0.84425 0.0
O885 O 0.5171 0.64298 0.85739 0.0
C886 C 0.50975 0.55231 0.84512 0.0
H887 H 0.63799 0.70247 0.83847 0.0
H888 H 0.40357 0.48526 0.86956 0.0
H889 H 0.52573 0.62554 0.88781 0.0
H890 H 0.61334 0.59737 0.8802 0.0
Co891 Co 0.59489 0.72982 0.97604 0.0
C892 C 0.6509 0.70647 0.98279 0.0
C893 C 0.5959 0.678 0.98939 0.0
C894 C 0.62079 0.66938 0.99379 0.0
N895 N 0.61435 0.70063 0.98237 0.0
N896 N 0.65525 0.68732 0.98963 0.0
H897 H 0.6749 0.72707 0.97883 0.0
H898 H 0.56704 0.67043 0.99155 0.0
C899 C 0.5299 0.64846 0.97508 0.0
O900 O 0.55613 0.63896 0.97295 0.0
N901 N 0.57536 0.75968 0.97023 0.0
C902 C 0.59272 0.78564 0.9637 0.0
C903 C 0.57219 0.80462 0.96229 0.0
C904 C 0.54478 0.7632 0.97274 0.0
N905 N 0.54217 0.79057 0.96801 0.0
C906 C 0.63845 0.72187 0.96152 0.0
C907 C 0.57555 0.68752 0.95025 0.0
C908 C 0.61191 0.69544 0.94714 0.0
C909 C 0.6437 0.71259 0.9529 0.0
C910 C 0.57165 0.69721 0.95881 0.0
N911 N 0.60248 0.71303 0.96448 0.0
H912 H 0.66366 0.73794 0.96559 0.0
H913 H 0.54375 0.69314 0.96077 0.0
H914 H 0.61915 0.79125 0.96041 0.0
H915 H 0.52616 0.74753 0.97824 0.0
O916 O 0.64437 0.77682 0.97742 0.0
O917 O 0.59564 0.75462 0.98698 0.0
O918 O 0.5403 0.68393 0.97672 0.0
C919 C 0.63049 0.78159 0.98478 0.0
H920 H 0.61461 0.65263 0.99979 0.0
H921 H 0.57927 0.82747 0.95754 0.0
H922 H 0.55016 0.67451 0.94603 0.0
H923 H 0.67254 0.72028 0.95066 0.0
Co924 Co 0.26789 0.8639 0.97564 0.0
C925 C 0.29002 0.94226 0.98288 0.0
C926 C 0.31547 0.91373 0.9899 0.0
C927 C 0.3234 0.94679 0.99442 0.0
N928 N 0.29502 0.91102 0.98258 0.0
N929 N 0.30738 0.96458 0.99 0.0
H930 H 0.27144 0.9471 0.97854 0.0
H931 H 0.32211 0.89183 0.9921 0.0
C932 C 0.35019 0.88109 0.97554 0.0
O933 O 0.36104 0.91763 0.97394 0.0
N934 N 0.24034 0.81613 0.96915 0.0
C935 C 0.21139 0.8064 0.96331 0.0
C936 C 0.19596 0.76776 0.96114 0.0
C937 C 0.24241 0.78373 0.97043 0.0
N938 N 0.21567 0.75382 0.96562 0.0
C939 C 0.27447 0.91682 0.9617 0.0
C940 C 0.31908 0.89937 0.95072 0.0
C941 C 0.30985 0.92743 0.94802 0.0
C942 C 0.28646 0.93553 0.95353 0.0
C943 C 0.30606 0.88108 0.95882 0.0
N944 N 0.28603 0.89148 0.96447 0.0
H945 H 0.25468 0.92164 0.9656 0.0
H946 H 0.31142 0.85774 0.96043 0.0
H947 H 0.20136 0.82566 0.96103 0.0
H948 H 0.26171 0.78151 0.97512 0.0
O949 O 0.21971 0.86442 0.977 0.0
O950 O 0.24186 0.83658 0.9862 0.0
O951 O 0.31419 0.85607 0.97646 0.0
C952 C 0.2145 0.84399 0.98411 0.0
H953 H 0.33851 0.95629 0.00065 0.0
H954 H 0.17182 0.75104 0.95674 0.0
H955 H 0.33523 0.89061 0.94647 0.0
H956 H 0.27735 0.9559 0.95152 0.0
Co957 Co 0.13671 0.4041 0.97458 0.0
C958 C 0.05823 0.35622 0.98203 0.0
C959 C 0.0807 0.417 0.98451 0.0
C960 C 0.0443 0.3965 0.98819 0.0
N961 N 0.08922 0.39173 0.9806 0.0
N962 N 0.03042 0.3584 0.98666 0.0
H963 H 0.05598 0.32941 0.97972 0.0
H964 H 0.0997 0.44811 0.9848 0.0
C965 C 0.16666 0.48261 0.9668 0.0
O966 O 0.1756 0.46965 0.95974 0.0
N967 N 0.18555 0.41719 0.9689 0.0
C968 C 0.19468 0.39753 0.96302 0.0
C969 C 0.23444 0.41707 0.96187 0.0
C970 C 0.21992 0.44758 0.97139 0.0
N971 N 0.25014 0.44862 0.96713 0.0
C972 C 0.10187 0.35772 0.95901 0.0
C973 C 0.07192 0.40233 0.95257 0.0
C974 C 0.06912 0.37195 0.94734 0.0
C975 C 0.08318 0.34858 0.95082 0.0
C976 C 0.09036 0.41005 0.96072 0.0
N977 N 0.10795 0.38996 0.96352 0.0
H978 H 0.11136 0.33876 0.96171 0.0
H979 H 0.09074 0.43267 0.96471 0.0
H980 H 0.17472 0.37032 0.95997 0.0
H981 H 0.22269 0.46798 0.97645 0.0
O982 O 0.13065 0.35439 0.97782 0.0
O983 O 0.16148 0.4083 0.98576 0.0
O984 O 0.1499 0.46008 0.97335 0.0
C985 C 0.15109 0.37185 0.98478 0.0
H986 H 0.02956 0.40855 0.99191 0.0
H987 H 0.2505 0.40844 0.95757 0.0
H988 H 0.06102 0.42094 0.95033 0.0
H989 H 0.07988 0.32349 0.94727 0.0
Co990 Co 0.26547 0.40209 0.47575 0.0
C991 C 0.2933 0.3518 0.48315 0.0
C992 C 0.33158 0.41186 0.48636 0.0
C993 C 0.34667 0.39024 0.48984 0.0
N994 N 0.29835 0.38775 0.48211 0.0
N995 N 0.32252 0.35257 0.48784 0.0
H996 H 0.26912 0.32577 0.48042 0.0
H997 H 0.344 0.44295 0.48691 0.0
C998 C 0.31817 0.47855 0.46729 0.0
O999 O 0.29604 0.46588 0.46026 0.0
N1000 N 0.2319 0.41699 0.46963 0.0
C1001 C 0.2033 0.39735 0.46371 0.0
C1002 C 0.1847 0.41806 0.46206 0.0
C1003 C 0.22945 0.44879 0.47163 0.0
N1004 N 0.20124 0.45044 0.46705 0.0
C1005 C 0.24999 0.35094 0.46084 0.0
C1006 C 0.32393 0.39156 0.45385 0.0
C1007 C 0.29467 0.36138 0.44888 0.0
C1008 C 0.25759 0.33983 0.45267 0.0
C1009 C 0.31504 0.40137 0.46198 0.0
N1010 N 0.27767 0.38354 0.46499 0.0
H1011 H 0.22167 0.33361 0.46378 0.0
H1012 H 0.3384 0.42396 0.46575 0.0
H1013 H 0.19497 0.36936 0.46095 0.0
H1014 H 0.24736 0.46972 0.47658 0.0
O1015 O 0.21965 0.35495 0.47967 0.0
O1016 O 0.24725 0.41142 0.48668 0.0
O1017 O 0.31097 0.45642 0.47398 0.0
C1018 C 0.21915 0.37558 0.48628 0.0
H1019 H 0.37302 0.40126 0.49369 0.0
H1020 H 0.16054 0.4096 0.4576 0.0
H1021 H 0.3533 0.40868 0.45139 0.0
H1022 H 0.23452 0.3149 0.44933 0.0
Co1023 Co 0.59922 0.85898 0.47663 0.0
C1024 C 0.64931 0.93715 0.48403 0.0
C1025 C 0.5915 0.90948 0.48939 0.0
C1026 C 0.61387 0.94384 0.49381 0.0
N1027 N 0.6138 0.90534 0.48331 0.0
N1028 N 0.65004 0.96107 0.49041 0.0
H1029 H 0.67449 0.94158 0.48033 0.0
H1030 H 0.56161 0.88808 0.4908 0.0
C1031 C 0.52711 0.84336 0.46718 0.0
O1032 O 0.54125 0.8358 0.46012 0.0
N1033 N 0.58367 0.81066 0.47031 0.0
C1034 C 0.60664 0.79739 0.4671 0.0
C1035 C 0.58429 0.75832 0.46531 0.0
C1036 C 0.54791 0.77876 0.47073 0.0
N1037 N 0.54738 0.74683 0.46756 0.0
C1038 C 0.64915 0.88889 0.4614 0.0
C1039 C 0.61764 0.93238 0.45511 0.0
C1040 C 0.64203 0.92572 0.44961 0.0
C1041 C 0.65952 0.90543 0.45303 0.0
C1042 C 0.60783 0.91495 0.4634 0.0
N1043 N 0.62079 0.89057 0.46609 0.0
H1044 H 0.66335 0.87408 0.46401 0.0
H1045 H 0.58805 0.91935 0.46747 0.0
H1046 H 0.63791 0.8134 0.46687 0.0
H1047 H 0.52331 0.77813 0.47393 0.0
O1048 O 0.64468 0.85829 0.48094 0.0
O1049 O 0.58679 0.82959 0.48738 0.0
O1050 O 0.54667 0.85365 0.47434 0.0
C1051 C 0.62244 0.8365 0.48729 0.0
H1052 H 0.60467 0.95484 0.49927 0.0
H1053 H 0.59468 0.73945 0.46294 0.0
H1054 H 0.6041 0.94858 0.4528 0.0
H1055 H 0.67989 0.90114 0.44913 0.0
Co1056 Co 0.14382 0.73644 0.47603 0.0
C1057 C 0.064 0.70976 0.48325 0.0
C1058 C 0.08881 0.67609 0.48794 0.0
C1059 C 0.05289 0.66193 0.49173 0.0
N1060 N 0.09529 0.70505 0.48233 0.0
N1061 N 0.03747 0.68318 0.48879 0.0
H1062 H 0.06083 0.73255 0.48023 0.0
H1063 H 0.10925 0.6664 0.48938 0.0
C1064 C 0.12604 0.65512 0.47245 0.0
O1065 O 0.09039 0.64636 0.47044 0.0
N1066 N 0.19281 0.76791 0.47017 0.0
C1067 C 0.2036 0.8006 0.46551 0.0
C1068 C 0.24244 0.81704 0.46344 0.0
C1069 C 0.22484 0.76465 0.47084 0.0
N1070 N 0.25551 0.79426 0.46678 0.0
C1071 C 0.09189 0.73788 0.46269 0.0
C1072 C 0.11202 0.70171 0.44988 0.0
C1073 C 0.08274 0.71035 0.44807 0.0
C1074 C 0.07344 0.72982 0.45445 0.0
C1075 C 0.13016 0.71102 0.45805 0.0
N1076 N 0.11818 0.7263 0.46459 0.0
H1077 H 0.0858 0.75431 0.4674 0.0
H1078 H 0.15404 0.70582 0.45911 0.0
H1079 H 0.18485 0.81226 0.46398 0.0
H1080 H 0.22619 0.74216 0.47457 0.0
O1081 O 0.14361 0.78339 0.47942 0.0
O1082 O 0.16949 0.75462 0.48716 0.0
O1083 O 0.15094 0.68969 0.47481 0.0
C1084 C 0.16315 0.78354 0.48633 0.0
H1085 H 0.03957 0.63864 0.4965 0.0
H1086 H 0.25987 0.84385 0.45987 0.0
H1087 H 0.12131 0.68841 0.44494 0.0
H1088 H 0.05212 0.73853 0.4531 0.0
Co1089 Co 0.07172 0.60266 0.35835 0.0
C1090 C 0.01794 0.62925 0.35148 0.0
C1091 C 0.06715 0.64431 0.34317 0.0
C1092 C 0.04294 0.65418 0.33889 0.0
N1093 N 0.05175 0.62886 0.35109 0.0
N1094 N 0.01217 0.64475 0.34412 0.0
H1095 H 0.99668 0.61641 0.35665 0.0
H1096 H 0.09352 0.64665 0.34054 0.0
C1097 C 0.13694 0.68535 0.35749 0.0
O1098 O 0.11179 0.69762 0.3576 0.0
N1099 N 0.0923 0.57618 0.36515 0.0
C1100 C 0.07317 0.54675 0.37089 0.0
C1101 C 0.09664 0.53143 0.37295 0.0
C1102 C 0.12694 0.57861 0.36384 0.0
N1103 N 0.13035 0.55169 0.36852 0.0
C1104 C 0.02332 0.60586 0.37216 0.0
C1105 C 0.08378 0.65714 0.38279 0.0
C1106 C 0.04564 0.64341 0.38562 0.0
C1107 C 0.01508 0.61688 0.38029 0.0
C1108 C 0.09066 0.64476 0.37477 0.0
N1109 N 0.06075 0.62106 0.3693 0.0
H1110 H 0.99959 0.58411 0.36831 0.0
H1111 H 0.12025 0.65311 0.37321 0.0
H1112 H 0.04362 0.53601 0.37307 0.0
H1113 H 0.14826 0.59801 0.35913 0.0
O1114 O 0.02356 0.55401 0.35692 0.0
O1115 O 0.07446 0.57627 0.34799 0.0
O1116 O 0.12551 0.6491 0.35766 0.0
C1117 C 0.03968 0.54873 0.34999 0.0
H1118 H 0.04694 0.66626 0.33234 0.0
H1119 H 0.08923 0.50683 0.3772 0.0
H1120 H 0.10822 0.67594 0.38694 0.0
H1121 H 0.98519 0.60446 0.38242 0.0
Co1122 Co 0.40205 0.4717 0.35904 0.0
C1123 C 0.37281 0.39259 0.35215 0.0
C1124 C 0.3448 0.42113 0.34613 0.0
C1125 C 0.33285 0.38644 0.34187 0.0
N1126 N 0.3699 0.42493 0.35253 0.0
N1127 N 0.35049 0.36868 0.34566 0.0
H1128 H 0.39268 0.38786 0.35612 0.0
H1129 H 0.33745 0.44304 0.34438 0.0
C1130 C 0.35021 0.49886 0.36625 0.0
O1131 O 0.37115 0.5081 0.37346 0.0
N1132 N 0.4352 0.52023 0.36522 0.0
C1133 C 0.45284 0.52806 0.37318 0.0
C1134 C 0.47271 0.56779 0.37446 0.0
C1135 C 0.44527 0.55531 0.36178 0.0
N1136 N 0.46806 0.58453 0.36723 0.0
C1137 C 0.41276 0.43506 0.3743 0.0
C1138 C 0.33783 0.40347 0.38062 0.0
C1139 C 0.3655 0.40058 0.38582 0.0
C1140 C 0.40306 0.4153 0.38234 0.0
C1141 C 0.34868 0.42287 0.37257 0.0
N1142 N 0.3865 0.44124 0.36986 0.0
H1143 H 0.442 0.44688 0.37182 0.0
H1144 H 0.32648 0.42344 0.3686 0.0
H1145 H 0.45119 0.50714 0.37791 0.0
H1146 H 0.43522 0.55947 0.35547 0.0
O1147 O 0.44783 0.46857 0.35614 0.0
O1148 O 0.42404 0.49831 0.34808 0.0
O1149 O 0.35723 0.48228 0.35985 0.0
C1150 C 0.45123 0.48967 0.34928 0.0
H1151 H 0.31375 0.37568 0.33621 0.0
H1152 H 0.48933 0.58318 0.38022 0.0
H1153 H 0.30821 0.39208 0.38283 0.0
H1154 H 0.42507 0.41225 0.38586 0.0
Co1155 Co 0.52937 0.92479 0.35813 0.0
C1156 C 0.6093 0.98199 0.35183 0.0
C1157 C 0.5767 0.93532 0.34278 0.0
C1158 C 0.61044 0.96191 0.33872 0.0
N1159 N 0.57595 0.94763 0.35101 0.0
N1160 N 0.63074 0.99108 0.34441 0.0
H1161 H 0.6167 0.00134 0.35737 0.0
H1162 H 0.55323 0.90961 0.33977 0.0
C1163 C 0.54733 0.8605 0.35558 0.0
O1164 O 0.5846 0.88614 0.35584 0.0
N1165 N 0.4818 0.9016 0.36481 0.0
C1166 C 0.47545 0.91026 0.37301 0.0
C1167 C 0.43632 0.88805 0.37485 0.0
C1168 C 0.4467 0.87501 0.36172 0.0
N1169 N 0.41852 0.86635 0.3677 0.0
C1170 C 0.5786 0.96768 0.37282 0.0
C1171 C 0.56764 0.90322 0.38209 0.0
C1172 C 0.58778 0.93959 0.38618 0.0
C1173 C 0.59382 0.97231 0.38136 0.0
C1174 C 0.5519 0.89978 0.37376 0.0
N1175 N 0.55814 0.9317 0.36906 0.0
H1176 H 0.58112 0.99281 0.36949 0.0
H1177 H 0.53229 0.87083 0.3715 0.0
H1178 H 0.49736 0.9318 0.37728 0.0
H1179 H 0.44176 0.8627 0.35517 0.0
O1180 O 0.52868 0.9732 0.35785 0.0
O1181 O 0.50128 0.92604 0.34794 0.0
O1182 O 0.52207 0.87133 0.35623 0.0
C1183 C 0.50832 0.95993 0.35067 0.0
H1184 H 0.61887 0.96068 0.332 0.0
H1185 H 0.42183 0.88887 0.38081 0.0
H1186 H 0.56234 0.87694 0.38542 0.0
H1187 H 0.60833 0.00097 0.3843 0.0
H1188 H 0.17007 0.21349 0.18616 0.0
H1189 H 0.14418 0.00613 0.19466 0.0
H1190 H 0.11903 0.15061 0.21013 0.0
H1191 H 0.25079 0.09645 0.18325 0.0
H1192 H 0.12452 0.05425 0.1977 0.0
H1193 H 0.19124 0.16651 0.18251 0.0
C1194 C 0.1635 0.18979 0.19064 0.0
C1195 C 0.14308 0.18575 0.19846 0.0
C1196 C 0.15207 0.06338 0.19448 0.0
C1197 C 0.166 0.13191 0.19426 0.0
C1198 C 0.1632 0.03598 0.19267 0.0
C1199 C 0.19925 0.04741 0.1887 0.0
C1200 C 0.17669 0.10227 0.19213 0.0
C1201 C 0.22284 0.08654 0.18634 0.0
C1202 C 0.17557 0.16323 0.18858 0.0
C1203 C 0.13509 0.15473 0.20409 0.0
N1204 N 0.21105 0.11267 0.18804 0.0
N1205 N 0.14616 0.12861 0.20183 0.0
H1206 H 0.97351 0.14493 0.21543 0.0
H1207 H 0.82967 0.95642 0.18774 0.0
H1208 H 0.9678 0.14441 0.18705 0.0
H1209 H 0.82375 0.96493 0.21594 0.0
H1210 H 0.88111 0.0245 0.18726 0.0
H1211 H 0.91933 0.07856 0.21565 0.0
C1212 C 0.9608 0.13088 0.20923 0.0
C1213 C 0.97536 0.15024 0.2012 0.0
C1214 C 0.86845 0.01151 0.19355 0.0
C1215 C 0.91316 0.07389 0.20142 0.0
C1216 C 0.83929 0.97256 0.19384 0.0
C1217 C 0.82254 0.95488 0.20191 0.0
C1218 C 0.88118 0.0329 0.20139 0.0
C1219 C 0.83564 0.97743 0.20958 0.0
C1220 C 0.92974 0.09293 0.20937 0.0
C1221 C 0.9575 0.13056 0.19339 0.0
N1222 N 0.86432 0.01518 0.20914 0.0
N1223 N 0.92744 0.09332 0.19369 0.0
H1224 H 0.8429 0.75411 0.18513 0.0
H1225 H 0.03609 0.89174 0.21097 0.0
H1226 H 0.85708 0.85535 0.1989 0.0
H1227 H 0.04131 0.84795 0.18538 0.0
H1228 H 0.96645 0.86803 0.20868 0.0
H1229 H 0.91278 0.77802 0.18704 0.0
C1230 C 0.86073 0.78131 0.18854 0.0
C1231 C 0.84439 0.80292 0.19183 0.0
C1232 C 0.98294 0.86366 0.20358 0.0
C1233 C 0.92342 0.82965 0.19421 0.0
C1234 C 0.02237 0.87695 0.2049 0.0
C1235 C 0.0441 0.87184 0.19833 0.0
C1236 C 0.96511 0.84422 0.19574 0.0
C1237 C 0.02534 0.85265 0.19054 0.0
C1238 C 0.90041 0.79491 0.1896 0.0
C1239 C 0.86865 0.83799 0.1962 0.0
N1240 N 0.9867 0.83912 0.18949 0.0
N1241 N 0.90691 0.85006 0.19736 0.0
H1242 H 0.05128 0.21235 0.31175 0.0
H1243 H 0.12838 0.06785 0.30114 0.0
H1244 H 0.9909 0.11702 0.29362 0.0
H1245 H 0.20772 0.19062 0.30402 0.0
H1246 H 0.07376 0.0804 0.30122 0.0
H1247 H 0.10599 0.19991 0.31187 0.0
C1248 C 0.04953 0.18872 0.30784 0.0
C1249 C 0.0168 0.16573 0.30263 0.0
C1250 C 0.10317 0.10453 0.30182 0.0
C1251 C 0.07842 0.15111 0.30286 0.0
C1252 C 0.13412 0.09739 0.30181 0.0
C1253 C 0.17231 0.12833 0.30252 0.0
C1254 C 0.11058 0.14274 0.30279 0.0
C1255 C 0.17857 0.16616 0.30336 0.0
C1256 C 0.08068 0.18182 0.30788 0.0
C1257 C 0.01585 0.13556 0.29766 0.0
N1258 N 0.14791 0.17235 0.30356 0.0
N1259 N 0.04613 0.12886 0.29795 0.0
H1260 H 0.82137 0.85742 0.3161 0.0
H1261 H 0.84853 0.03672 0.28674 0.0
H1262 H 0.83311 0.86213 0.28781 0.0
H1263 H 0.86671 0.04444 0.31482 0.0
H1264 H 0.83458 0.96945 0.28717 0.0
H1265 H 0.83034 0.92312 0.31591 0.0
C1266 C 0.82569 0.87219 0.30985 0.0
C1267 C 0.82666 0.85432 0.30196 0.0
C1268 C 0.84155 0.98584 0.29324 0.0
C1269 C 0.83669 0.92922 0.30169 0.0
C1270 C 0.84924 0.02414 0.29301 0.0
C1271 C 0.85895 0.04626 0.30075 0.0
C1272 C 0.84323 0.96935 0.30129 0.0
C1273 C 0.85988 0.02859 0.30868 0.0
C1274 C 0.8309 0.90968 0.30975 0.0
C1275 C 0.83238 0.87482 0.29406 0.0
N1276 N 0.85209 0.99116 0.30875 0.0
N1277 N 0.83711 0.91109 0.29413 0.0
H1278 H 0.13255 0.995 0.31277 0.0
H1279 H 0.97589 0.77835 0.29827 0.0
H1280 H 0.16175 0.90735 0.3058 0.0
H1281 H 0.94549 0.86383 0.30636 0.0
H1282 H 0.04422 0.82571 0.30075 0.0
H1283 H 0.06394 0.94756 0.31047 0.0
C1284 C 0.12456 0.96573 0.31081 0.0
C1285 C 0.15302 0.95517 0.30948 0.0
C1286 C 0.02262 0.83415 0.30199 0.0
C1287 C 0.07447 0.90077 0.30677 0.0
C1288 C 0.98355 0.80716 0.3005 0.0
C1289 C 0.9548 0.81707 0.30211 0.0
C1290 C 0.03317 0.87145 0.30508 0.0
C1291 C 0.96658 0.85476 0.30513 0.0
C1292 C 0.08535 0.93867 0.30948 0.0
C1293 C 0.14088 0.91684 0.30691 0.0
N1294 N 0.00483 0.88056 0.30652 0.0
N1295 N 0.10257 0.8911 0.30562 0.0
H1296 H 0.74482 0.90451 0.8113 0.0
H1297 H 0.87885 0.84356 0.78563 0.0
H1298 H 0.85202 0.99127 0.79942 0.0
H1299 H 0.82899 0.79118 0.81061 0.0
H1300 H 0.85801 0.89174 0.7881 0.0
H1301 H 0.7645 0.85566 0.80873 0.0
C1302 C 0.77242 0.91318 0.80814 0.0
C1303 C 0.79699 0.95186 0.80561 0.0
C1304 C 0.85155 0.86953 0.793 0.0
C1305 C 0.81894 0.89636 0.80247 0.0
C1306 C 0.86312 0.84209 0.79157 0.0
C1307 C 0.8555 0.81369 0.79794 0.0
C1308 C 0.83131 0.86766 0.80073 0.0
C1309 C 0.8354 0.8129 0.80559 0.0
C1310 C 0.7836 0.88545 0.80671 0.0
C1311 C 0.83246 0.96175 0.80154 0.0
N1312 N 0.82362 0.83934 0.80675 0.0
N1313 N 0.84224 0.93404 0.8 0.0
H1314 H 0.1391 0.06057 0.79667 0.0
H1315 H 0.05088 0.83821 0.80902 0.0
H1316 H 0.21355 0.01424 0.80316 0.0
H1317 H 0.99817 0.87678 0.78964 0.0
H1318 H 0.10762 0.90421 0.80942 0.0
H1319 H 0.08316 0.99441 0.79657 0.0
C1320 C 0.14351 0.03636 0.7981 0.0
C1321 C 0.18078 0.0426 0.79989 0.0
C1322 C 0.08356 0.89802 0.80508 0.0
C1323 C 0.11726 0.96729 0.79989 0.0
C1324 C 0.05122 0.86059 0.80489 0.0
C1325 C 0.01998 0.85216 0.79926 0.0
C1326 C 0.08402 0.92719 0.79979 0.0
C1327 C 0.02182 0.88205 0.79402 0.0
C1328 C 0.11176 0.99876 0.798 0.0
C1329 C 0.18522 0.01039 0.80166 0.0
N1330 N 0.05318 0.91835 0.79446 0.0
N1331 N 0.15369 0.97399 0.80169 0.0
H1332 H 0.16048 0.21272 0.80862 0.0
H1333 H 0.93991 0.06663 0.79709 0.0
H1334 H 0.12813 0.11897 0.79017 0.0
H1335 H 0.98141 0.18871 0.80064 0.0
H1336 H 0.00751 0.08028 0.79723 0.0
H1337 H 0.09304 0.19953 0.80847 0.0
C1338 C 0.13915 0.18934 0.80457 0.0
C1339 C 0.14977 0.167 0.79936 0.0
C1340 C 0.00172 0.10402 0.79796 0.0
C1341 C 0.073 0.1514 0.79931 0.0
C1342 C 0.96335 0.09624 0.79791 0.0
C1343 C 0.95538 0.12666 0.79879 0.0
C1344 C 0.03212 0.14233 0.79914 0.0
C1345 C 0.98658 0.16462 0.79984 0.0
C1346 C 0.10088 0.18197 0.80446 0.0
C1347 C 0.12113 0.13707 0.79421 0.0
N1348 N 0.02367 0.1714 0.80007 0.0
N1349 N 0.08392 0.12986 0.79438 0.0
H1350 H 0.97297 0.82809 0.68731 0.0
H1351 H 0.82929 0.86677 0.71704 0.0
H1352 H 0.97784 0.833 0.7157 0.0
H1353 H 0.8397 0.88331 0.68891 0.0
H1354 H 0.87983 0.84876 0.71663 0.0
H1355 H 0.92006 0.84267 0.68772 0.0
C1356 C 0.9628 0.83203 0.69363 0.0
C1357 C 0.97996 0.82944 0.70148 0.0
C1358 C 0.87108 0.85639 0.71055 0.0
C1359 C 0.91944 0.84615 0.70199 0.0
C1360 C 0.84212 0.86648 0.71078 0.0
C1361 C 0.83039 0.87675 0.70301 0.0
C1362 C 0.88823 0.85622 0.70248 0.0
C1363 C 0.84825 0.87621 0.69508 0.0
C1364 C 0.93268 0.84049 0.69386 0.0
C1365 C 0.9656 0.83488 0.70948 0.0
N1366 N 0.8762 0.86605 0.69501 0.0
N1367 N 0.93619 0.84297 0.70953 0.0
H1368 H 0.07917 0.94092 0.70628 0.0
H1369 H 0.2137 0.15899 0.6907 0.0
H1370 H 0.19805 0.98354 0.69857 0.0
H1371 H 0.12622 0.12775 0.71078 0.0
H1372 H 0.20329 0.09259 0.69128 0.0
H1373 H 0.09075 0.00763 0.70579 0.0
C1374 C 0.1077 0.96446 0.7045 0.0
C1375 C 0.13779 0.95701 0.70252 0.0
C1376 C 0.1865 0.10045 0.69555 0.0
C1377 C 0.15105 0.03286 0.70179 0.0
C1378 C 0.19223 0.13812 0.69519 0.0
C1379 C 0.17086 0.14877 0.70073 0.0
C1380 C 0.15856 0.07319 0.70132 0.0
C1381 C 0.14351 0.12075 0.70645 0.0
C1382 C 0.11432 0.00236 0.70425 0.0
C1383 C 0.17431 0.98833 0.70025 0.0
N1384 N 0.1379 0.08414 0.70656 0.0
N1385 N 0.17988 0.02497 0.69986 0.0
H1386 H 0.83712 0.09998 0.69526 0.0
H1387 H 0.05548 0.13993 0.6976 0.0
H1388 H 0.86863 0.0115 0.69161 0.0
H1389 H 0.02467 0.22785 0.70277 0.0
H1390 H 0.98705 0.09284 0.69511 0.0
H1391 H 0.90567 0.14782 0.69762 0.0
C1392 C 0.85842 0.09063 0.6949 0.0
C1393 C 0.84705 0.05163 0.69324 0.0
C1394 C 0.99519 0.12241 0.69681 0.0
C1395 C 0.92551 0.10618 0.69599 0.0
C1396 C 0.0343 0.14934 0.6982 0.0
C1397 C 0.04587 0.18793 0.70037 0.0
C1398 C 0.96729 0.13409 0.69756 0.0
C1399 C 0.01706 0.19835 0.7012 0.0
C1400 C 0.89755 0.11794 0.69629 0.0
C1401 C 0.87597 0.04121 0.69288 0.0
N1402 N 0.97911 0.17162 0.69975 0.0
N1403 N 0.91379 0.06828 0.69425 0.0
H1404 H 0.74985 0.46454 0.52951 0.0
H1405 H 0.92534 0.42043 0.53205 0.0
H1406 H 0.86509 0.54756 0.53849 0.0
H1407 H 0.80838 0.33484 0.52461 0.0
H1408 H 0.90415 0.46793 0.53402 0.0
H1409 H 0.77096 0.41699 0.52737 0.0
C1410 C 0.77961 0.47279 0.53102 0.0
C1411 C 0.80575 0.51014 0.53417 0.0
C1412 C 0.88312 0.43878 0.53194 0.0
C1413 C 0.83012 0.4558 0.53176 0.0
C1414 C 0.89523 0.41164 0.53079 0.0
C1415 C 0.8686 0.37355 0.52816 0.0
C1416 C 0.84409 0.42783 0.53045 0.0
C1417 C 0.82994 0.36386 0.52663 0.0
C1418 C 0.79161 0.44558 0.52983 0.0
C1419 C 0.84382 0.51902 0.53615 0.0
N1420 N 0.81885 0.39082 0.52781 0.0
N1421 N 0.85489 0.49211 0.53488 0.0
H1422 H 0.46134 0.29583 0.52029 0.0
H1423 H 0.66436 0.47205 0.53382 0.0
H1424 H 0.51036 0.29822 0.54571 0.0
H1425 H 0.57862 0.49327 0.52166 0.0
H1426 H 0.61444 0.4036 0.53579 0.0
H1427 H 0.51059 0.36478 0.51822 0.0
C1428 C 0.48259 0.31106 0.5254 0.0
C1429 C 0.48201 0.29189 0.53319 0.0
C1430 C 0.60674 0.42335 0.53268 0.0
C1431 C 0.53836 0.36948 0.53081 0.0
C1432 C 0.63511 0.46217 0.5315 0.0
C1433 C 0.62539 0.48814 0.52759 0.0
C1434 C 0.56883 0.41035 0.52968 0.0
C1435 C 0.58708 0.47407 0.52475 0.0
C1436 C 0.51039 0.35012 0.52425 0.0
C1437 C 0.50991 0.31243 0.53967 0.0
N1438 N 0.56014 0.43589 0.52577 0.0
N1439 N 0.53739 0.35015 0.5383 0.0
H1440 H 0.72859 0.26202 0.53545 0.0
H1441 H 0.50561 0.11843 0.52535 0.0
H1442 H 0.68345 0.13874 0.53317 0.0
H1443 H 0.54323 0.21762 0.54242 0.0
H1444 H 0.57233 0.1295 0.52533 0.0
H1445 H 0.66181 0.25051 0.53518 0.0
C1446 C 0.70453 0.23259 0.53486 0.0
C1447 C 0.71125 0.20123 0.53439 0.0
C1448 C 0.56579 0.14873 0.52907 0.0
C1449 C 0.63536 0.18794 0.53391 0.0
C1450 C 0.52794 0.14257 0.52906 0.0
C1451 C 0.51903 0.16707 0.53393 0.0
C1452 C 0.59492 0.18017 0.5338 0.0
C1453 C 0.5489 0.19788 0.53864 0.0
C1454 C 0.66661 0.22602 0.53474 0.0
C1455 C 0.67925 0.16355 0.53365 0.0
N1456 N 0.58563 0.20379 0.5384 0.0
N1457 N 0.64257 0.15791 0.53336 0.0
H1458 H 0.71829 0.54492 0.64347 0.0
H1459 H 0.79323 0.39843 0.63276 0.0
H1460 H 0.65361 0.44591 0.62653 0.0
H1461 H 0.87296 0.5216 0.63433 0.0
H1462 H 0.73861 0.41096 0.63333 0.0
H1463 H 0.77306 0.5325 0.64311 0.0
C1464 C 0.71558 0.52046 0.63974 0.0
C1465 C 0.6816 0.49644 0.63499 0.0
C1466 C 0.7681 0.43519 0.63354 0.0
C1467 C 0.74338 0.48188 0.63468 0.0
C1468 C 0.79907 0.42806 0.63323 0.0
C1469 C 0.83738 0.45909 0.63344 0.0
C1470 C 0.77562 0.47353 0.63429 0.0
C1471 C 0.84373 0.49704 0.63405 0.0
C1472 C 0.74678 0.51357 0.6395 0.0
C1473 C 0.67949 0.46525 0.63022 0.0
N1474 N 0.81309 0.50325 0.63454 0.0
N1475 N 0.70987 0.45863 0.63024 0.0
H1476 H 0.4957 0.19195 0.64952 0.0
H1477 H 0.50955 0.36656 0.62046 0.0
H1478 H 0.49973 0.19518 0.62112 0.0
H1479 H 0.53546 0.3777 0.64823 0.0
H1480 H 0.4971 0.29989 0.62095 0.0
H1481 H 0.50252 0.25687 0.64952 0.0
C1482 C 0.49794 0.20624 0.6433 0.0
C1483 C 0.49739 0.18822 0.63531 0.0
C1484 C 0.50542 0.31688 0.62695 0.0
C1485 C 0.50479 0.26202 0.63526 0.0
C1486 C 0.51223 0.35484 0.62668 0.0
C1487 C 0.52375 0.37778 0.6343 0.0
C1488 C 0.50987 0.30156 0.63491 0.0
C1489 C 0.52721 0.3612 0.64217 0.0
C1490 C 0.50188 0.24324 0.6433 0.0
C1491 C 0.50032 0.20801 0.62744 0.0
N1492 N 0.52032 0.32407 0.64228 0.0
N1493 N 0.50382 0.24373 0.62762 0.0
H1494 H 0.63428 0.18243 0.62205 0.0
H1495 H 0.82671 0.24193 0.64867 0.0
H1496 H 0.62926 0.12822 0.64693 0.0
H1497 H 0.80784 0.32861 0.63618 0.0
H1498 H 0.75814 0.19341 0.64602 0.0
H1499 H 0.70296 0.23038 0.62489 0.0
C1500 C 0.64791 0.18052 0.62805 0.0
C1501 C 0.62649 0.15166 0.63428 0.0
C1502 C 0.76916 0.22313 0.64391 0.0
C1503 C 0.70433 0.20547 0.6375 0.0
C1504 C 0.8081 0.2507 0.6454 0.0
C1505 C 0.82272 0.28925 0.64269 0.0
C1506 C 0.74523 0.23409 0.63944 0.0
C1507 C 0.79753 0.29922 0.63845 0.0
C1508 C 0.68675 0.20785 0.62969 0.0
C1509 C 0.64504 0.15033 0.64202 0.0
N1510 N 0.76006 0.27167 0.63686 0.0
N1511 N 0.68312 0.17672 0.64339 0.0
H1512 H 0.56603 0.18307 0.14675 0.0
H1513 H 0.42176 0.25593 0.13136 0.0
H1514 H 0.48777 0.13428 0.12462 0.0
H1515 H 0.52191 0.32555 0.14769 0.0
H1516 H 0.44246 0.20797 0.12985 0.0
H1517 H 0.54777 0.23283 0.14804 0.0
C1518 C 0.54522 0.18265 0.14211 0.0
C1519 C 0.52837 0.1538 0.13557 0.0
C1520 C 0.45997 0.23374 0.13376 0.0
C1521 C 0.50693 0.21088 0.13717 0.0
C1522 C 0.44807 0.2611 0.13466 0.0
C1523 C 0.47009 0.29479 0.13968 0.0
C1524 C 0.49396 0.23981 0.13797 0.0
C1525 C 0.50406 0.29997 0.14376 0.0
C1526 C 0.53475 0.21122 0.1429 0.0
C1527 C 0.50123 0.15517 0.12986 0.0
N1528 N 0.51489 0.27264 0.14285 0.0
N1529 N 0.49126 0.18303 0.13083 0.0
H1530 H 0.87107 0.35637 0.12443 0.0
H1531 H 0.67442 0.19579 0.14679 0.0
H1532 H 0.81871 0.38117 0.1466 0.0
H1533 H 0.74832 0.16834 0.13118 0.0
H1534 H 0.72301 0.26486 0.14561 0.0
H1535 H 0.82202 0.28817 0.12561 0.0
C1536 C 0.84956 0.34777 0.12958 0.0
C1537 C 0.84966 0.37509 0.13547 0.0
C1538 C 0.72857 0.24364 0.14247 0.0
C1539 C 0.79266 0.29652 0.13673 0.0
C1540 C 0.70087 0.20427 0.14313 0.0
C1541 C 0.70742 0.17628 0.1391 0.0
C1542 C 0.76276 0.25507 0.13765 0.0
C1543 C 0.74216 0.18889 0.13443 0.0
C1544 C 0.82139 0.30863 0.13022 0.0
C1545 C 0.82007 0.36166 0.14186 0.0
N1546 N 0.76844 0.22738 0.1338 0.0
N1547 N 0.79279 0.32337 0.14231 0.0
H1548 H 0.61885 0.43607 0.14783 0.0
H1549 H 0.83493 0.58353 0.13207 0.0
H1550 H 0.6463 0.51874 0.1267 0.0
H1551 H 0.80503 0.47969 0.14693 0.0
H1552 H 0.76609 0.56351 0.13117 0.0
H1553 H 0.68709 0.45447 0.14857 0.0
C1554 C 0.63884 0.4579 0.14331 0.0
C1555 C 0.62619 0.47589 0.13721 0.0
C1556 C 0.77459 0.54508 0.13462 0.0
C1557 C 0.70494 0.49747 0.13816 0.0
C1558 C 0.81391 0.55657 0.13517 0.0
C1559 C 0.82576 0.53327 0.13959 0.0
C1560 C 0.74688 0.51023 0.1386 0.0
C1561 C 0.79717 0.49852 0.14344 0.0
C1562 C 0.678 0.46846 0.14377 0.0
C1563 C 0.6542 0.50431 0.13162 0.0
N1564 N 0.75903 0.48812 0.14289 0.0
N1565 N 0.69214 0.5143 0.13226 0.0
H1566 H 0.61657 0.1205 0.03183 0.0
H1567 H 0.49271 0.21461 0.01405 0.0
H1568 H 0.64708 0.19533 0.00911 0.0
H1569 H 0.47932 0.16829 0.04033 0.0
H1570 H 0.54257 0.19773 0.01118 0.0
H1571 H 0.55912 0.12753 0.03403 0.0
C1572 C 0.61089 0.13794 0.02725 0.0
C1573 C 0.63667 0.15759 0.02031 0.0
C1574 C 0.52872 0.19119 0.01758 0.0
C1575 C 0.57143 0.16568 0.02277 0.0
C1576 C 0.50036 0.20111 0.01925 0.0
C1577 C 0.48218 0.19356 0.02751 0.0
C1578 C 0.53906 0.1734 0.02419 0.0
C1579 C 0.49254 0.1747 0.03388 0.0
C1580 C 0.57831 0.14211 0.02853 0.0
C1581 C 0.62814 0.17997 0.01459 0.0
N1582 N 0.52051 0.16545 0.0321 0.0
N1583 N 0.59633 0.18345 0.01596 0.0
H1584 H 0.80029 0.46571 0.02461 0.0
H1585 H 0.84418 0.29095 0.02726 0.0
H1586 H 0.91687 0.48439 0.02285 0.0
H1587 H 0.74134 0.28568 0.03806 0.0
H1588 H 0.86994 0.36002 0.02389 0.0
H1589 H 0.77626 0.39707 0.02753 0.0
C1590 C 0.82083 0.45532 0.02474 0.0
C1591 C 0.86072 0.48087 0.02351 0.0
C1592 C 0.84187 0.34373 0.02706 0.0
C1593 C 0.83329 0.40228 0.0269 0.0
C1594 C 0.82722 0.30445 0.02897 0.0
C1595 C 0.79076 0.28274 0.033 0.0
C1596 C 0.81953 0.36111 0.02906 0.0
C1597 C 0.76983 0.30148 0.03509 0.0
C1598 C 0.80708 0.41617 0.02648 0.0
C1599 C 0.88592 0.46572 0.0238 0.0
N1600 N 0.78438 0.3395 0.03303 0.0
N1601 N 0.87178 0.42733 0.02546 0.0
H1602 H 0.68929 0.54667 0.03645 0.0
H1603 H 0.52681 0.33562 0.02004 0.0
H1604 H 0.71631 0.46428 0.02463 0.0
H1605 H 0.5017 0.42307 0.02957 0.0
H1606 H 0.59623 0.38179 0.02174 0.0
H1607 H 0.62032 0.50087 0.03429 0.0
C1608 C 0.68075 0.51883 0.03346 0.0
C1609 C 0.70873 0.50933 0.03073 0.0
C1610 C 0.57552 0.39092 0.02342 0.0
C1611 C 0.62956 0.45674 0.02813 0.0
C1612 C 0.53586 0.36459 0.02243 0.0
C1613 C 0.50832 0.37546 0.02467 0.0
C1614 C 0.58776 0.42833 0.02671 0.0
C1615 C 0.52181 0.41337 0.02776 0.0
C1616 C 0.6413 0.49276 0.03216 0.0
C1617 C 0.69581 0.473 0.02675 0.0
N1618 N 0.56051 0.43833 0.02872 0.0
N1619 N 0.65718 0.44801 0.02559 0.0
H1620 H 0.58355 0.74974 0.8673 0.0
H1621 H 0.41566 0.80329 0.86115 0.0
H1622 H 0.47049 0.67012 0.85657 0.0
H1623 H 0.53132 0.88409 0.87034 0.0
H1624 H 0.43443 0.75364 0.85969 0.0
H1625 H 0.56408 0.7987 0.86877 0.0
C1626 C 0.55461 0.74252 0.86524 0.0
C1627 C 0.52866 0.70575 0.86178 0.0
C1628 C 0.45568 0.78224 0.86203 0.0
C1629 C 0.5061 0.76183 0.86348 0.0
C1630 C 0.44504 0.8107 0.86283 0.0
C1631 C 0.47195 0.84806 0.86586 0.0
C1632 C 0.49352 0.79114 0.86429 0.0
C1633 C 0.50942 0.85568 0.86808 0.0
C1634 C 0.54351 0.77055 0.86609 0.0
C1635 C 0.49151 0.69812 0.85925 0.0
N1636 N 0.51907 0.82752 0.86723 0.0
N1637 N 0.48134 0.72592 0.86015 0.0
H1638 H 0.27827 0.82932 0.85685 0.0
H1639 H 0.19071 0.60652 0.86834 0.0
H1640 H 0.33377 0.79011 0.87532 0.0
H1641 H 0.11587 0.65371 0.86317 0.0
H1642 H 0.24676 0.67264 0.86861 0.0
H1643 H 0.22102 0.76371 0.8568 0.0
C1644 C 0.2784 0.80688 0.86087 0.0
C1645 C 0.31066 0.81504 0.86611 0.0
C1646 C 0.21805 0.6685 0.86743 0.0
C1647 C 0.24591 0.7403 0.86598 0.0
C1648 C 0.18623 0.63091 0.86723 0.0
C1649 C 0.14881 0.62489 0.86575 0.0
C1650 C 0.21249 0.70022 0.86593 0.0
C1651 C 0.1443 0.65734 0.86441 0.0
C1652 C 0.24576 0.76964 0.86087 0.0
C1653 C 0.30936 0.78505 0.87123 0.0
N1654 N 0.1759 0.69373 0.86445 0.0
N1655 N 0.27765 0.74887 0.87097 0.0
H1656 H 0.39048 0.5916 0.86646 0.0
H1657 H 0.16779 0.45609 0.85466 0.0
H1658 H 0.34333 0.47032 0.8604 0.0
H1659 H 0.20548 0.54761 0.87395 0.0
H1660 H 0.23404 0.46633 0.85419 0.0
H1661 H 0.32424 0.58152 0.86675 0.0
C1662 C 0.3661 0.56293 0.86516 0.0
C1663 C 0.37208 0.53167 0.86344 0.0
C1664 C 0.22767 0.48409 0.85852 0.0
C1665 C 0.29685 0.52008 0.86364 0.0
C1666 C 0.19007 0.47843 0.85876 0.0
C1667 C 0.1813 0.50098 0.86437 0.0
C1668 C 0.25672 0.51311 0.86377 0.0
C1669 C 0.21107 0.52942 0.86958 0.0
C1670 C 0.32849 0.55716 0.86537 0.0
C1671 C 0.3397 0.49498 0.86183 0.0
N1672 N 0.24762 0.53493 0.8691 0.0
N1673 N 0.30336 0.4902 0.8619 0.0
H1674 H 0.33809 0.80784 0.97849 0.0
H1675 H 0.55383 0.86275 0.96468 0.0
H1676 H 0.42785 0.92405 0.97171 0.0
H1677 H 0.46856 0.74965 0.97434 0.0
H1678 H 0.50757 0.8853 0.96696 0.0
H1679 H 0.38514 0.78578 0.97694 0.0
C1680 C 0.36775 0.8288 0.97673 0.0
C1681 C 0.379 0.8679 0.97521 0.0
C1682 C 0.49895 0.85555 0.96859 0.0
C1683 C 0.43299 0.84269 0.97337 0.0
C1684 C 0.52527 0.84255 0.96723 0.0
C1685 C 0.51502 0.80416 0.96929 0.0
C1686 C 0.46192 0.82996 0.972 0.0
C1687 C 0.47781 0.77954 0.97273 0.0
C1688 C 0.3946 0.81614 0.97584 0.0
C1689 C 0.41784 0.89367 0.97295 0.0
N1690 N 0.45256 0.79281 0.97395 0.0
N1691 N 0.44336 0.88057 0.97205 0.0
H1692 H 0.14556 0.68824 0.966 0.0
H1693 H 0.22726 0.54534 0.95913 0.0
H1694 H 0.2687 0.73041 0.96571 0.0
H1695 H 0.12454 0.51135 0.97474 0.0
H1696 H 0.23971 0.61232 0.959 0.0
H1697 H 0.13351 0.62127 0.96667 0.0
C1698 C 0.16995 0.68324 0.96601 0.0
C1699 C 0.20813 0.71456 0.96578 0.0
C1700 C 0.21456 0.59016 0.96247 0.0
C1701 C 0.19471 0.63874 0.96647 0.0
C1702 C 0.20736 0.55206 0.96252 0.0
C1703 C 0.17489 0.52302 0.96696 0.0
C1704 C 0.18851 0.59894 0.9667 0.0
C1705 C 0.15004 0.5331 0.9713 0.0
C1706 C 0.16312 0.64526 0.96646 0.0
C1707 C 0.2389 0.70686 0.96591 0.0
N1708 N 0.15711 0.57027 0.97097 0.0
N1709 N 0.23154 0.66962 0.96616 0.0
H1710 H 0.46689 0.65813 0.97765 0.0
H1711 H 0.3122 0.43838 0.96477 0.0
H1712 H 0.49793 0.57129 0.97121 0.0
H1713 H 0.28061 0.52387 0.97206 0.0
H1714 H 0.38053 0.48687 0.96703 0.0
H1715 H 0.39839 0.60921 0.97582 0.0
C1716 C 0.45932 0.62874 0.97591 0.0
C1717 C 0.48823 0.61882 0.97458 0.0
C1718 C 0.35864 0.49501 0.96815 0.0
C1719 C 0.4099 0.56277 0.9724 0.0
C1720 C 0.31963 0.46738 0.9668 0.0
C1721 C 0.29061 0.47701 0.96826 0.0
C1722 C 0.36874 0.53263 0.97094 0.0
C1723 C 0.30194 0.51498 0.97099 0.0
C1724 C 0.4202 0.60083 0.97484 0.0
C1725 C 0.47667 0.5803 0.9723 0.0
N1726 N 0.34009 0.54138 0.97223 0.0
N1727 N 0.43845 0.55374 0.97126 0.0
H1728 H 0.19763 0.66322 0.47563 0.0
H1729 H 0.13042 0.44228 0.46359 0.0
H1730 H 0.08125 0.57904 0.46749 0.0
H1731 H 0.24665 0.5259 0.4719 0.0
H1732 H 0.11221 0.49231 0.46478 0.0
H1733 H 0.21632 0.61352 0.47422 0.0
C1734 C 0.17597 0.63428 0.47356 0.0
C1735 C 0.13776 0.62528 0.47169 0.0
C1736 C 0.14171 0.49974 0.46635 0.0
C1737 C 0.15904 0.56824 0.47004 0.0
C1738 C 0.15221 0.47119 0.46561 0.0
C1739 C 0.19015 0.47981 0.46766 0.0
C1740 C 0.16933 0.53728 0.46913 0.0
C1741 C 0.21695 0.51775 0.47038 0.0
C1742 C 0.18669 0.60591 0.47275 0.0
C1743 C 0.111 0.58731 0.46901 0.0
N1744 N 0.20603 0.54506 0.47103 0.0
N1745 N 0.12215 0.56021 0.46827 0.0
H1746 H 0.54787 0.68052 0.47139 0.0
H1747 H 0.32777 0.54083 0.45777 0.0
H1748 H 0.47284 0.72471 0.46373 0.0
H1749 H 0.38515 0.50663 0.47692 0.0
H1750 H 0.38394 0.60675 0.45788 0.0
H1751 H 0.49157 0.61444 0.47145 0.0
C1752 C 0.51955 0.67619 0.46966 0.0
C1753 C 0.51483 0.70791 0.46753 0.0
C1754 C 0.38415 0.58479 0.46206 0.0
C1755 C 0.45067 0.63281 0.46753 0.0
C1756 C 0.35227 0.54719 0.46197 0.0
C1757 C 0.3519 0.51832 0.46735 0.0
C1758 C 0.4162 0.59335 0.46742 0.0
C1759 C 0.38425 0.52815 0.47272 0.0
C1760 C 0.48749 0.63864 0.46976 0.0
C1761 C 0.4775 0.70092 0.46545 0.0
N1762 N 0.41531 0.56482 0.47256 0.0
N1763 N 0.44683 0.66404 0.46543 0.0
H1764 H 0.27833 0.74159 0.46404 0.0
H1765 H 0.49824 0.88128 0.47683 0.0
H1766 H 0.32143 0.86294 0.46923 0.0
H1767 H 0.466 0.7919 0.4572 0.0
H1768 H 0.43152 0.86996 0.47655 0.0
H1769 H 0.34554 0.75419 0.46392 0.0
C1770 C 0.30204 0.77083 0.46516 0.0
C1771 C 0.29464 0.80135 0.4666 0.0
C1772 C 0.43924 0.85301 0.47229 0.0
C1773 C 0.37093 0.81579 0.46664 0.0
C1774 C 0.47709 0.85931 0.47247 0.0
C1775 C 0.48751 0.8376 0.467 0.0
C1776 C 0.41153 0.82409 0.46678 0.0
C1777 C 0.45914 0.80949 0.46146 0.0
C1778 C 0.34019 0.77802 0.46506 0.0
C1779 C 0.32618 0.83881 0.46801 0.0
N1780 N 0.42226 0.80322 0.46156 0.0
N1781 N 0.36304 0.84497 0.46809 0.0
H1782 H 0.28 0.45664 0.35787 0.0
H1783 H 0.20659 0.60499 0.36846 0.0
H1784 H 0.34676 0.5588 0.37378 0.0
H1785 H 0.12639 0.48178 0.36751 0.0
H1786 H 0.2609 0.59228 0.36739 0.0
H1787 H 0.22519 0.46915 0.35826 0.0
C1788 C 0.28318 0.48184 0.36135 0.0
C1789 C 0.31772 0.50668 0.36583 0.0
C1790 C 0.23139 0.56806 0.36742 0.0
C1791 C 0.25594 0.52129 0.3662 0.0
C1792 C 0.20057 0.57529 0.36802 0.0
C1793 C 0.16221 0.54434 0.36814 0.0
C1794 C 0.2237 0.52964 0.36673 0.0
C1795 C 0.15568 0.5063 0.36755 0.0
C1796 C 0.25196 0.48878 0.36163 0.0
C1797 C 0.32045 0.53882 0.37031 0.0
N1798 N 0.18618 0.49996 0.36679 0.0
N1799 N 0.29005 0.54537 0.37033 0.0
H1800 H 0.48101 0.80455 0.36336 0.0
H1801 H 0.50657 0.62479 0.35284 0.0
H1802 H 0.58508 0.82214 0.3503 0.0
H1803 H 0.46159 0.63538 0.37782 0.0
H1804 H 0.5271 0.69315 0.34963 0.0
H1805 H 0.46345 0.73726 0.36638 0.0
C1806 C 0.4999 0.7941 0.36101 0.0
C1807 C 0.5346 0.8189 0.35657 0.0
C1808 C 0.513 0.68051 0.35583 0.0
C1809 C 0.51446 0.74212 0.35998 0.0
C1810 C 0.50133 0.64178 0.35765 0.0
C1811 C 0.48273 0.62499 0.36561 0.0
C1812 C 0.50477 0.70192 0.36192 0.0
C1813 C 0.47627 0.64772 0.37166 0.0
C1814 C 0.49001 0.75589 0.36282 0.0
C1815 C 0.55814 0.80392 0.35376 0.0
N1816 N 0.48681 0.68502 0.36964 0.0
N1817 N 0.5475 0.76628 0.35546 0.0
H1818 H 0.36809 0.81228 0.37896 0.0
H1819 H 0.1781 0.76111 0.35203 0.0
H1820 H 0.37644 0.86385 0.35354 0.0
H1821 H 0.19024 0.67281 0.36581 0.0
H1822 H 0.24763 0.80693 0.35455 0.0
H1823 H 0.29828 0.76808 0.37641 0.0
C1824 C 0.355 0.81433 0.37289 0.0
C1825 C 0.37765 0.84125 0.36642 0.0
C1826 C 0.23485 0.77744 0.35698 0.0
C1827 C 0.29858 0.79191 0.36353 0.0
C1828 C 0.19538 0.75145 0.35557 0.0
C1829 C 0.17863 0.71319 0.35867 0.0
C1830 C 0.2571 0.76523 0.36174 0.0
C1831 C 0.20216 0.70198 0.36324 0.0
C1832 C 0.31549 0.78919 0.37142 0.0
C1833 C 0.35973 0.84302 0.35862 0.0
N1834 N 0.24015 0.72803 0.36472 0.0
N1835 N 0.32103 0.8188 0.3574 0.0
H1836 H 0.34685 0.40542 0.1602 0.0
H1837 H 0.12205 0.25344 0.16833 0.0
H1838 H 0.29276 0.28225 0.15564 0.0
H1839 H 0.18284 0.36062 0.18296 0.0
H1840 H 0.18141 0.27132 0.16017 0.0
H1841 H 0.2839 0.39614 0.16537 0.0
C1842 C 0.32154 0.3766 0.16017 0.0
C1843 C 0.32471 0.34443 0.15758 0.0
C1844 C 0.18164 0.29118 0.16509 0.0
C1845 C 0.2533 0.33373 0.16332 0.0
C1846 C 0.14772 0.2811 0.16973 0.0
C1847 C 0.14765 0.30536 0.17642 0.0
C1848 C 0.2158 0.32584 0.16712 0.0
C1849 C 0.18176 0.34096 0.1779 0.0
C1850 C 0.28587 0.37131 0.16314 0.0
C1851 C 0.29138 0.30761 0.15769 0.0
N1852 N 0.21472 0.35002 0.17333 0.0
N1853 N 0.25706 0.30324 0.16051 0.0
H1854 H 0.71463 0.84872 0.16664 0.0
H1855 H 0.63932 0.99375 0.17324 0.0
H1856 H 0.64866 0.84268 0.18972 0.0
H1857 H 0.64607 0.95454 0.14724 0.0
H1858 H 0.64369 0.93929 0.17954 0.0
H1859 H 0.69076 0.88753 0.15927 0.0
C1860 C 0.69459 0.85506 0.17009 0.0
C1861 C 0.68373 0.84279 0.1788 0.0
C1862 C 0.64358 0.94218 0.17245 0.0
C1863 C 0.65711 0.88767 0.17051 0.0
C1864 C 0.64135 0.97329 0.16888 0.0
C1865 C 0.64268 0.97849 0.15975 0.0
C1866 C 0.64824 0.91678 0.16683 0.0
C1867 C 0.64498 0.95124 0.15432 0.0
C1868 C 0.68091 0.87705 0.16588 0.0
C1869 C 0.65766 0.85161 0.18299 0.0
N1870 N 0.64849 0.92185 0.15795 0.0
N1871 N 0.64583 0.87426 0.17887 0.0
H1872 H 0.15747 0.86563 0.16558 0.0
H1873 H 0.00402 0.64877 0.17437 0.0
H1874 H 0.15494 0.81075 0.19025 0.0
H1875 H 0.04782 0.688 0.1482 0.0
H1876 H 0.05876 0.70804 0.18039 0.0
H1877 H 0.11793 0.80146 0.15893 0.0
C1878 C 0.14914 0.83998 0.16954 0.0
C1879 C 0.15919 0.8433 0.17847 0.0
C1880 C 0.05677 0.70346 0.17334 0.0
C1881 C 0.11336 0.77011 0.17099 0.0
C1882 C 0.02545 0.66988 0.16991 0.0
C1883 C 0.02142 0.66396 0.16079 0.0
C1884 C 0.08369 0.73172 0.16759 0.0
C1885 C 0.05009 0.69175 0.15527 0.0
C1886 C 0.12669 0.80343 0.16574 0.0
C1887 C 0.1478 0.80931 0.18333 0.0
N1888 N 0.07973 0.7249 0.15875 0.0
N1889 N 0.12473 0.77401 0.17957 0.0
H1890 H 0.35609 0.35046 0.32888 0.0
H1891 H 0.27699 0.12988 0.3376 0.0
H1892 H 0.34252 0.30837 0.35549 0.0
H1893 H 0.34993 0.18809 0.31522 0.0
H1894 H 0.29808 0.1933 0.34442 0.0
H1895 H 0.35047 0.28966 0.32358 0.0
C1896 C 0.35201 0.32829 0.33359 0.0
C1897 C 0.34944 0.33401 0.3426 0.0
C1898 C 0.31004 0.19208 0.3381 0.0
C1899 C 0.34266 0.2645 0.33664 0.0
C1900 C 0.29804 0.15598 0.33421 0.0
C1901 C 0.31164 0.15383 0.32583 0.0
C1902 C 0.33496 0.22611 0.33346 0.0
C1903 C 0.3388 0.18846 0.3217 0.0
C1904 C 0.34914 0.29384 0.33059 0.0
C1905 C 0.34462 0.30477 0.34849 0.0
N1906 N 0.34898 0.22325 0.32548 0.0
N1907 N 0.34069 0.27084 0.34539 0.0
H1908 H 0.6447 0.0362 0.33019 0.0
H1909 H 0.87018 0.13653 0.33513 0.0
H1910 H 0.69653 0.02532 0.3541 0.0
H1911 H 0.81556 0.18036 0.3176 0.0
H1912 H 0.80808 0.09813 0.34275 0.0
H1913 H 0.70735 0.09119 0.32581 0.0
C1914 C 0.66941 0.04591 0.33455 0.0
C1915 C 0.66593 0.02635 0.34245 0.0
C1916 C 0.80992 0.11678 0.33735 0.0
C1917 C 0.73764 0.08854 0.33748 0.0
C1918 C 0.8453 0.13862 0.33299 0.0
C1919 C 0.84781 0.1612 0.32566 0.0
C1920 C 0.77682 0.11706 0.33423 0.0
C1921 C 0.81481 0.16308 0.32319 0.0
C1922 C 0.70503 0.07731 0.33209 0.0
C1923 C 0.69841 0.03991 0.34795 0.0
N1924 N 0.78047 0.14069 0.32736 0.0
N1925 N 0.7333 0.06982 0.34528 0.0
H1926 H 0.86737 0.74176 0.33462 0.0
H1927 H 0.97183 0.62015 0.32905 0.0
H1928 H 0.82457 0.64388 0.31695 0.0
H1929 H 0.97661 0.67513 0.35379 0.0
H1930 H 0.91854 0.6301 0.32436 0.0
H1931 H 0.90785 0.71944 0.34188 0.0
C1932 C 0.86597 0.71524 0.33237 0.0
C1933 C 0.84285 0.69481 0.32512 0.0
C1934 C 0.93081 0.63956 0.33087 0.0
C1935 C 0.88941 0.66966 0.33327 0.0
C1936 C 0.96124 0.63405 0.3335 0.0
C1937 C 0.97845 0.64705 0.34177 0.0
C1938 C 0.91814 0.65913 0.33646 0.0
C1939 C 0.9638 0.6647 0.34737 0.0
C1940 C 0.88901 0.70252 0.33652 0.0
C1941 C 0.84208 0.66062 0.32248 0.0
N1942 N 0.93482 0.67091 0.34455 0.0
N1943 N 0.86556 0.64949 0.32645 0.0
H1944 H 0.87298 0.74561 0.83066 0.0
H1945 H 0.64736 0.59505 0.83847 0.0
H1946 H 0.81105 0.64033 0.81542 0.0
H1947 H 0.7044 0.71687 0.84484 0.0
H1948 H 0.70955 0.60414 0.83278 0.0
H1949 H 0.8139 0.72751 0.83893 0.0
C1950 C 0.84705 0.71836 0.82913 0.0
C1951 C 0.8468 0.69468 0.82226 0.0
C1952 C 0.70839 0.62871 0.83551 0.0
C1953 C 0.77884 0.67392 0.8317 0.0
C1954 C 0.67313 0.6235 0.83878 0.0
C1955 C 0.67099 0.6554 0.84204 0.0
C1956 C 0.74158 0.66588 0.8357 0.0
C1957 C 0.70493 0.69175 0.84228 0.0
C1958 C 0.81328 0.70813 0.83384 0.0
C1959 C 0.81239 0.65953 0.82063 0.0
N1960 N 0.73879 0.69601 0.83915 0.0
N1961 N 0.77954 0.65033 0.82527 0.0
H1962 H 0.36163 0.1783 0.81906 0.0
H1963 H 0.2778 0.98198 0.84572 0.0
H1964 H 0.25037 0.1245 0.83215 0.0
H1965 H 0.40066 0.05427 0.84116 0.0
H1966 H 0.26786 0.03483 0.84076 0.0
H1967 H 0.37818 0.13523 0.82721 0.0
C1968 C 0.34101 0.15801 0.82377 0.0
C1969 C 0.30442 0.15475 0.82486 0.0
C1970 C 0.29711 0.03944 0.84093 0.0
C1971 C 0.32285 0.10508 0.83406 0.0
C1972 C 0.3027 0.0092 0.84371 0.0
C1973 C 0.34001 0.01381 0.84378 0.0
C1974 C 0.329 0.07441 0.83801 0.0
C1975 C 0.37146 0.04975 0.84121 0.0
C1976 C 0.35045 0.1334 0.8284 0.0
C1977 C 0.2788 0.12789 0.83104 0.0
N1978 N 0.3652 0.07858 0.83829 0.0
N1979 N 0.28827 0.10374 0.8353 0.0
H1980 H 0.82467 0.18179 0.81764 0.0
H1981 H 0.0171 0.29864 0.84539 0.0
H1982 H 0.87753 0.12649 0.83201 0.0
H1983 H 0.94269 0.34625 0.84021 0.0
H1984 H 0.96586 0.23525 0.84027 0.0
H1985 H 0.86629 0.24233 0.82567 0.0
C1986 C 0.84453 0.18219 0.82257 0.0
C1987 C 0.8479 0.14916 0.8241 0.0
C1988 C 0.96042 0.25936 0.84034 0.0
C1989 C 0.89578 0.21818 0.83317 0.0
C1990 C 0.98971 0.29549 0.84322 0.0
C1991 C 0.984 0.3275 0.84317 0.0
C1992 C 0.92536 0.25533 0.83719 0.0
C1993 C 0.94796 0.32206 0.84037 0.0
C1994 C 0.86824 0.2167 0.82715 0.0
C1995 C 0.8741 0.15129 0.83056 0.0
N1996 N 0.9201 0.2867 0.83735 0.0
N1997 N 0.89737 0.18531 0.83476 0.0
H1998 H 0.72292 0.70339 0.65534 0.0
H1999 H 0.64694 0.81569 0.68485 0.0
H2000 H 0.60132 0.652 0.66155 0.0
H2001 H 0.75169 0.87307 0.66928 0.0
H2002 H 0.6286 0.75486 0.67694 0.0
H2003 H 0.734 0.76549 0.66109 0.0
C2004 C 0.69854 0.70541 0.65789 0.0
C2005 C 0.66126 0.67275 0.65801 0.0
C2006 C 0.6553 0.78099 0.6752 0.0
C2007 C 0.67358 0.74349 0.6647 0.0
C2008 C 0.66576 0.81564 0.6797 0.0
C2009 C 0.70106 0.84939 0.67778 0.0
C2010 C 0.68062 0.78022 0.66885 0.0
C2011 C 0.72437 0.84773 0.67105 0.0
C2012 C 0.70476 0.74082 0.66113 0.0
C2013 C 0.63046 0.67676 0.66131 0.0
N2014 N 0.71398 0.8137 0.66692 0.0
N2015 N 0.63736 0.71146 0.66466 0.0
H2016 H 0.18452 0.82569 0.68105 0.0
H2017 H 0.30466 0.02718 0.65678 0.0
H2018 H 0.13186 0.88817 0.66988 0.0
H2019 H 0.34781 0.9473 0.65864 0.0
H2020 H 0.24096 0.97594 0.66172 0.0
H2021 H 0.24444 0.86835 0.67294 0.0
C2022 C 0.18534 0.84792 0.67679 0.0
C2023 C 0.1533 0.85364 0.6762 0.0
C2024 C 0.26414 0.96933 0.66096 0.0
C2025 C 0.22164 0.90267 0.66705 0.0
C2026 C 0.30047 0.99863 0.65819 0.0
C2027 C 0.33133 0.99134 0.65737 0.0
C2028 C 0.25879 0.93262 0.66312 0.0
C2029 C 0.32452 0.95383 0.65918 0.0
C2030 C 0.2195 0.87222 0.67217 0.0
C2031 C 0.15591 0.88286 0.67058 0.0
N2032 N 0.28903 0.92589 0.66211 0.0
N2033 N 0.18964 0.90659 0.66633 0.0
H2034 H 0.18307 0.36265 0.68141 0.0
H2035 H 0.97716 0.28386 0.66024 0.0
H2036 H 0.11858 0.24782 0.67014 0.0
H2037 H 0.06175 0.40561 0.65854 0.0
H2038 H 0.02851 0.27044 0.66468 0.0
H2039 H 0.13989 0.38057 0.6737 0.0
C2040 C 0.16034 0.34147 0.6772 0.0
C2041 C 0.1542 0.3036 0.67648 0.0
C2042 C 0.03606 0.30008 0.66323 0.0
C2043 C 0.10459 0.32362 0.66783 0.0
C2044 C 0.00679 0.30765 0.66074 0.0
C2045 C 0.01552 0.34576 0.65904 0.0
C2046 C 0.07422 0.33102 0.66426 0.0
C2047 C 0.05421 0.37582 0.65975 0.0
C2048 C 0.13578 0.35172 0.67281 0.0
C2049 C 0.12429 0.27728 0.67095 0.0
N2050 N 0.08222 0.36792 0.66246 0.0
N2051 N 0.10024 0.28759 0.66696 0.0
H2052 H 0.85738 0.69182 0.51795 0.0
H2053 H 0.97002 0.61592 0.48904 0.0
H2054 H 0.79939 0.58881 0.50184 0.0
H2055 H 0.02079 0.73824 0.49425 0.0
H2056 H 0.90752 0.60539 0.49442 0.0
H2057 H 0.91808 0.71068 0.50993 0.0
C2058 C 0.85723 0.67356 0.51264 0.0
C2059 C 0.8234 0.63847 0.51063 0.0
C2060 C 0.93213 0.63467 0.49431 0.0
C2061 C 0.89245 0.65948 0.50158 0.0
C2062 C 0.9677 0.64056 0.49127 0.0
C2063 C 0.00025 0.67789 0.49122 0.0
C2064 C 0.92925 0.66624 0.49754 0.0
C2065 C 0.99606 0.70907 0.49415 0.0
C2066 C 0.89181 0.68433 0.50808 0.0
C2067 C 0.82482 0.6159 0.50369 0.0
N2068 N 0.96122 0.70251 0.49734 0.0
N2069 N 0.85884 0.62649 0.49952 0.0
H2070 H 0.26608 0.28047 0.49272 0.0
H2071 H 0.41917 0.20989 0.50207 0.0
H2072 H 0.38959 0.35118 0.48873 0.0
H2073 H 0.30771 0.15843 0.51505 0.0
H2074 H 0.40297 0.25304 0.49408 0.0
H2075 H 0.27585 0.2275 0.49808 0.0
C2076 C 0.29514 0.28458 0.49287 0.0
C2077 C 0.32716 0.32024 0.49036 0.0
C2078 C 0.38185 0.232 0.4986 0.0
C2079 C 0.33846 0.2601 0.49637 0.0
C2080 C 0.39096 0.20715 0.50313 0.0
C2081 C 0.36488 0.18072 0.50931 0.0
C2082 C 0.34632 0.2304 0.50019 0.0
C2083 C 0.32873 0.17852 0.51038 0.0
C2084 C 0.3007 0.25454 0.49596 0.0
C2085 C 0.36425 0.32432 0.49072 0.0
N2086 N 0.32059 0.20332 0.50591 0.0
N2087 N 0.36888 0.29465 0.49367 0.0
H2088 H 0.67141 0.97847 0.50734 0.0
H2089 H 0.81415 0.1994 0.49967 0.0
H2090 H 0.70378 0.02173 0.4809 0.0
H2091 H 0.82786 0.13912 0.52177 0.0
H2092 H 0.77195 0.13656 0.49258 0.0
H2093 H 0.72595 0.03899 0.51298 0.0
C2094 C 0.69023 0.00084 0.50274 0.0
C2095 C 0.68326 0.99552 0.49368 0.0
C2096 C 0.78487 0.13724 0.4989 0.0
C2097 C 0.74515 0.06469 0.50002 0.0
C2098 C 0.80887 0.17299 0.50295 0.0
C2099 C 0.82434 0.17437 0.51133 0.0
C2100 C 0.77557 0.1028 0.50338 0.0
C2101 C 0.81658 0.13935 0.5153 0.0
C2102 C 0.72141 0.03512 0.50593 0.0
C2103 C 0.7085 0.02502 0.48794 0.0
N2104 N 0.79209 0.10492 0.51137 0.0
N2105 N 0.73808 0.05879 0.49121 0.0
H2106 H 0.01507 0.52587 0.64609 0.0
H2107 H 0.01078 0.64798 0.68735 0.0
H2108 H 0.94243 0.47028 0.66868 0.0
H2109 H 0.02333 0.68858 0.66061 0.0
H2110 H 0.00175 0.5856 0.68185 0.0
H2111 H 0.03548 0.58929 0.65279 0.0
C2112 C 0.0041 0.52699 0.65255 0.0
C2113 C 0.97688 0.49287 0.65683 0.0
C2114 C 0.00679 0.60837 0.67722 0.0
C2115 C 0.00012 0.56507 0.66449 0.0
C2116 C 0.01202 0.64378 0.68034 0.0
C2117 C 0.0174 0.67302 0.67439 0.0
C2118 C 0.008 0.60281 0.66813 0.0
C2119 C 0.01873 0.66642 0.66537 0.0
C2120 C 0.01551 0.56313 0.65632 0.0
C2121 C 0.9633 0.49598 0.66515 0.0
N2122 N 0.01419 0.63203 0.6625 0.0
N2123 N 0.97501 0.53153 0.66872 0.0
H2124 H 0.53832 0.47613 0.66884 0.0
H2125 H 0.3162 0.34006 0.66136 0.0
H2126 H 0.47763 0.50015 0.64847 0.0
H2127 H 0.36076 0.36395 0.68784 0.0
H2128 H 0.37724 0.39525 0.65611 0.0
H2129 H 0.4757 0.4325 0.67589 0.0
C2130 C 0.51191 0.47285 0.66596 0.0
C2131 C 0.51309 0.49168 0.65805 0.0
C2132 C 0.37355 0.38866 0.66308 0.0
C2133 C 0.44175 0.44121 0.66591 0.0
C2134 C 0.33897 0.3571 0.66605 0.0
C2135 C 0.33383 0.34761 0.67501 0.0
C2136 C 0.40356 0.41021 0.6691 0.0
C2137 C 0.36389 0.37063 0.68088 0.0
C2138 C 0.47629 0.44799 0.66998 0.0
C2139 C 0.47805 0.48631 0.65457 0.0
N2140 N 0.3979 0.40061 0.6778 0.0
N2141 N 0.44372 0.46093 0.65842 0.0
H2142 H 0.50148 0.97874 0.64682 0.0
H2143 H 0.64055 0.99855 0.68694 0.0
H2144 H 0.53158 0.06422 0.66733 0.0
H2145 H 0.65162 0.96278 0.66086 0.0
H2146 H 0.58689 0.00762 0.68168 0.0
H2147 H 0.54242 0.95682 0.65394 0.0
C2148 C 0.51602 0.99233 0.65292 0.0
C2149 C 0.51343 0.02355 0.65646 0.0
C2150 C 0.60087 0.99737 0.67715 0.0
C2151 C 0.56013 0.9986 0.66461 0.0
C2152 C 0.63119 0.99208 0.68015 0.0
C2153 C 0.65053 0.98033 0.67428 0.0
C2154 C 0.58942 0.98992 0.66829 0.0
C2155 C 0.63766 0.97239 0.66553 0.0
C2156 C 0.53954 0.97998 0.65694 0.0
C2157 C 0.53306 0.04023 0.66436 0.0
N2158 N 0.60788 0.9773 0.6628 0.0
N2159 N 0.55579 0.02767 0.66816 0.0
H2160 H 0.31136 0.94313 0.16202 0.0
H2161 H 0.53747 0.05928 0.16821 0.0
H2162 H 0.3633 0.9996 0.18652 0.0
H2163 H 0.4809 0.96978 0.14857 0.0
H2164 H 0.47504 0.03511 0.1757 0.0
H2165 H 0.37327 0.94954 0.15746 0.0
C2166 C 0.33591 0.95648 0.16647 0.0
C2167 C 0.33267 0.97122 0.17459 0.0
C2168 C 0.47645 0.02027 0.16986 0.0
C2169 C 0.40369 0.97933 0.16942 0.0
C2170 C 0.51206 0.03406 0.16558 0.0
C2171 C 0.51422 0.01683 0.15769 0.0
C2172 C 0.44277 0.98948 0.16613 0.0
C2173 C 0.48049 0.98414 0.15459 0.0
C2174 C 0.37116 0.96002 0.1639 0.0
C2175 C 0.36497 0.98797 0.1802 0.0
N2176 N 0.44601 0.97198 0.15873 0.0
N2177 N 0.39951 0.99231 0.17744 0.0
H2178 H 0.0298 0.5096 0.15188 0.0
H2179 H 0.94885 0.32268 0.18125 0.0
H2180 H 0.9288 0.47038 0.16846 0.0
H2181 H 0.07071 0.38842 0.17497 0.0
H2182 H 0.94127 0.37697 0.17626 0.0
H2183 H 0.04724 0.46726 0.16009 0.0
C2184 C 0.0118 0.49279 0.15736 0.0
C2185 C 0.97751 0.49308 0.15941 0.0
C2186 C 0.96983 0.37985 0.17607 0.0
C2187 C 0.99682 0.44435 0.16867 0.0
C2188 C 0.97403 0.34881 0.17886 0.0
C2189 C 0.01035 0.35124 0.17846 0.0
C2190 C 0.00204 0.41326 0.17265 0.0
C2191 C 0.04229 0.38572 0.17539 0.0
C2192 C 0.02172 0.46862 0.16202 0.0
C2193 C 0.95522 0.47072 0.16657 0.0
N2194 N 0.0373 0.4153 0.17244 0.0
N2195 N 0.96489 0.44679 0.17083 0.0
H2196 H 0.52076 0.46284 0.17009 0.0
H2197 H 0.63814 0.68726 0.1624 0.0
H2198 H 0.48792 0.51916 0.15036 0.0
H2199 H 0.63511 0.6396 0.18803 0.0
H2200 H 0.58259 0.62516 0.15794 0.0
H2201 H 0.56118 0.52594 0.17719 0.0
C2202 C 0.52133 0.48831 0.16737 0.0
C2203 C 0.50135 0.48586 0.15956 0.0
C2204 C 0.59366 0.62831 0.16459 0.0
C2205 C 0.54801 0.55794 0.16752 0.0
C2206 C 0.62547 0.66359 0.16709 0.0
C2207 C 0.64119 0.66813 0.17554 0.0
C2208 C 0.57802 0.59702 0.17052 0.0
C2209 C 0.62362 0.63694 0.18145 0.0
C2210 C 0.54442 0.52428 0.17142 0.0
C2211 C 0.50305 0.51973 0.15633 0.0
N2212 N 0.59329 0.60231 0.17878 0.0
N2213 N 0.52664 0.5545 0.16022 0.0
H2214 H 0.29448 0.9807 0.00646 0.0
H2215 H 0.37713 0.20177 0.99728 0.0
H2216 H 0.31724 0.02504 0.97996 0.0
H2217 H 0.30555 0.1448 0.01993 0.0
H2218 H 0.35466 0.13817 0.99049 0.0
H2219 H 0.29816 0.04093 0.01148 0.0
C2220 C 0.30004 0.00319 0.00171 0.0
C2221 C 0.30599 0.99833 0.99282 0.0
C2222 C 0.34323 0.13966 0.99686 0.0
C2223 C 0.31056 0.06728 0.99848 0.0
C2224 C 0.35602 0.17591 0.00074 0.0
C2225 C 0.34342 0.17847 0.00921 0.0
C2226 C 0.31839 0.10584 0.00159 0.0
C2227 C 0.31605 0.14412 0.01339 0.0
C2228 C 0.30183 0.03737 0.00454 0.0
C2229 C 0.31257 0.02795 0.98687 0.0
N2230 N 0.30505 0.10914 0.00962 0.0
N2231 N 0.3154 0.06159 0.98983 0.0
H2232 H 0.855 0.16672 0.0165 0.0
H2233 H 0.96206 0.35693 0.98735 0.0
H2234 H 0.79449 0.21134 0.00114 0.0
H2235 H 0.01618 0.28861 0.99293 0.0
H2236 H 0.90105 0.30509 0.99337 0.0
H2237 H 0.91545 0.21172 0.00875 0.0
C2238 C 0.85433 0.18556 0.01144 0.0
C2239 C 0.81978 0.1855 0.0095 0.0
C2240 C 0.92613 0.30119 0.99322 0.0
C2241 C 0.8884 0.23704 0.00077 0.0
C2242 C 0.96091 0.33084 0.98983 0.0
C2243 C 0.99398 0.32691 0.98967 0.0
C2244 C 0.92455 0.2676 0.99664 0.0
C2245 C 0.99108 0.29246 0.9929 0.0
C2246 C 0.88873 0.21115 0.00703 0.0
C2247 C 0.82046 0.2105 0.00289 0.0
N2248 N 0.95699 0.26417 0.99636 0.0
N2249 N 0.85426 0.23551 0.99885 0.0
H2250 H 0.83207 0.68343 0.0212 0.0
H2251 H 0.70782 0.68105 0.97954 0.0
H2252 H 0.81849 0.61612 0.99783 0.0
H2253 H 0.68206 0.69664 0.00626 0.0
H2254 H 0.76357 0.67585 0.98491 0.0
H2255 H 0.79258 0.70779 0.01434 0.0
C2256 C 0.8216 0.67457 0.01454 0.0
C2257 C 0.8281 0.64744 0.0101 0.0
C2258 C 0.74596 0.68096 0.98956 0.0
C2259 C 0.78317 0.67508 0.00226 0.0
C2260 C 0.71442 0.68402 0.98651 0.0
C2261 C 0.69029 0.68869 0.99251 0.0
C2262 C 0.75364 0.68344 0.99863 0.0
C2263 C 0.69973 0.69237 0.00148 0.0
C2264 C 0.79892 0.68826 0.01067 0.0
C2265 C 0.81372 0.63671 0.00151 0.0
N2266 N 0.73065 0.68956 0.00428 0.0
N2267 N 0.79164 0.65036 0.99787 0.0
H2268 H 0.679 0.06912 0.82378 0.0
H2269 H 0.45938 0.91117 0.83522 0.0
H2270 H 0.63589 0.94598 0.825 0.0
H2271 H 0.51438 0.02617 0.84653 0.0
H2272 H 0.51981 0.92796 0.82761 0.0
H2273 H 0.61471 0.05753 0.82859 0.0
C2274 C 0.65577 0.03968 0.82494 0.0
C2275 C 0.66249 0.00839 0.82406 0.0
C2276 C 0.51848 0.94968 0.83166 0.0
C2277 C 0.58949 0.99496 0.82939 0.0
C2278 C 0.48393 0.94024 0.83597 0.0
C2279 C 0.48192 0.96721 0.84159 0.0
C2280 C 0.55126 0.98648 0.83288 0.0
C2281 C 0.51477 0.00444 0.8423 0.0
C2282 C 0.61936 0.03312 0.82772 0.0
C2283 C 0.63178 0.97078 0.82569 0.0
N2284 N 0.54828 0.01297 0.83804 0.0
N2285 N 0.59659 0.96509 0.82826 0.0
H2286 H 0.99462 0.63597 0.81032 0.0
H2287 H 0.97148 0.4981 0.8508 0.0
H2288 H 0.96603 0.65352 0.83661 0.0
H2289 H 0.0595 0.52693 0.83096 0.0
H2290 H 0.95157 0.53982 0.84332 0.0
H2291 H 0.00207 0.58145 0.81575 0.0
C2292 C 0.98944 0.62786 0.8172 0.0
C2293 C 0.98009 0.6491 0.82308 0.0
C2294 C 0.97477 0.5364 0.84053 0.0
C2295 C 0.98754 0.58706 0.82924 0.0
C2296 C 0.98599 0.51242 0.84475 0.0
C2297 C 0.01742 0.50936 0.84152 0.0
C2298 C 0.99471 0.55694 0.83297 0.0
C2299 C 0.03531 0.52878 0.83368 0.0
C2300 C 0.99375 0.59706 0.82028 0.0
C2301 C 0.97369 0.63791 0.83193 0.0
N2302 N 0.02384 0.55201 0.82968 0.0
N2303 N 0.97742 0.60754 0.83475 0.0
H2304 H 0.51251 0.48465 0.8456 0.0
H2305 H 0.31662 0.37128 0.81919 0.0
H2306 H 0.46242 0.54259 0.83121 0.0
H2307 H 0.38824 0.32022 0.82411 0.0
H2308 H 0.37039 0.43453 0.82366 0.0
H2309 H 0.46931 0.42445 0.83768 0.0
C2310 C 0.49308 0.48496 0.84064 0.0
C2311 C 0.49077 0.51859 0.83913 0.0
C2312 C 0.37461 0.40964 0.82367 0.0
C2313 C 0.44085 0.4498 0.83022 0.0
C2314 C 0.34384 0.37356 0.82118 0.0
C2315 C 0.34805 0.34063 0.82135 0.0
C2316 C 0.40964 0.4127 0.82654 0.0
C2317 C 0.38402 0.34507 0.82388 0.0
C2318 C 0.46838 0.45058 0.83614 0.0
C2319 C 0.46503 0.51731 0.83264 0.0
N2320 N 0.41334 0.3804 0.82651 0.0
N2321 N 0.44061 0.48333 0.82854 0.0
H2322 H 0.61353 0.79641 0.00127 0.0
H2323 H 0.72064 0.02036 0.99296 0.0
H2324 H 0.69352 0.84994 0.97969 0.0
H2325 H 0.68182 0.97325 0.0189 0.0
H2326 H 0.71339 0.95827 0.98823 0.0
H2327 H 0.64027 0.8601 0.0083 0.0
C2328 C 0.63721 0.82147 0.9981 0.0
C2329 C 0.65103 0.81804 0.98984 0.0
C2330 C 0.70709 0.96158 0.995 0.0
C2331 C 0.68124 0.89086 0.99776 0.0
C2332 C 0.7111 0.99689 0.99767 0.0
C2333 C 0.70152 0.00149 0.00628 0.0
C2334 C 0.69239 0.93031 0.00093 0.0
C2335 C 0.68949 0.97055 0.0122 0.0
C2336 C 0.6525 0.85777 0.00212 0.0
C2337 C 0.68186 0.85134 0.98603 0.0
N2338 N 0.68447 0.93585 0.00937 0.0
N2339 N 0.69544 0.88651 0.98995 0.0
H2340 H 0.97792 0.68073 0.99241 0.0
H2341 H 0.2009 0.81461 0.00078 0.0
H2342 H 0.0251 0.70038 0.01863 0.0
H2343 H 0.14377 0.83079 0.97839 0.0
H2344 H 0.13747 0.77413 0.00769 0.0
H2345 H 0.03847 0.73629 0.98718 0.0
C2346 C 0.00109 0.69709 0.99706 0.0
C2347 C 0.99694 0.68596 0.00593 0.0
C2348 C 0.13887 0.78716 0.00135 0.0
C2349 C 0.06629 0.74914 1.00002 0.0
C2350 C 0.17501 0.81018 0.99739 0.0
C2351 C 0.17746 0.82576 0.98897 0.0
C2352 C 0.10497 0.77898 0.99675 0.0
C2353 C 0.14312 0.81928 0.98488 0.0
C2354 C 0.03548 0.72888 0.99411 0.0
C2355 C 0.02743 0.70822 0.01175 0.0
N2356 N 0.10818 0.79574 0.98874 0.0
N2357 N 0.06124 0.73843 0.00867 0.0
H2358 H 0.18594 0.39624 0.00086 0.0
H2359 H 0.30451 0.29049 0.99514 0.0
H2360 H 0.15425 0.3061 0.98144 0.0
H2361 H 0.29384 0.33077 0.0207 0.0
H2362 H 0.24898 0.29591 0.99 0.0
H2363 H 0.22437 0.37273 0.00856 0.0
C2364 C 0.1864 0.371 0.99832 0.0
C2365 C 0.16724 0.3533 0.99046 0.0
C2366 C 0.25825 0.30293 0.99678 0.0
C2367 C 0.21163 0.32692 0.9991 0.0
C2368 C 0.28992 0.29998 0.99967 0.0
C2369 C 0.30343 0.31035 0.0083 0.0
C2370 C 0.24076 0.31743 0.00251 0.0
C2371 C 0.28388 0.32249 0.014 0.0
C2372 C 0.20827 0.35759 0.00273 0.0
C2373 C 0.1687 0.32067 0.98746 0.0
N2374 N 0.25386 0.32648 0.01095 0.0
N2375 N 0.19124 0.30903 0.99169 0.0
H2376 H 0.98859 0.2564 0.50991 0.0
H2377 H 0.20965 0.41509 0.49977 0.0
H2378 H 0.036 0.37998 0.51204 0.0
H2379 H 0.15235 0.30404 0.48658 0.0
H2380 H 0.15035 0.39626 0.50806 0.0
H2381 H 0.05259 0.26795 0.50484 0.0
C2382 C 0.01274 0.28584 0.50946 0.0
C2383 C 0.00737 0.31739 0.51133 0.0
C2384 C 0.15092 0.3758 0.50344 0.0
C2385 C 0.07991 0.33074 0.5057 0.0
C2386 C 0.18481 0.38643 0.49872 0.0
C2387 C 0.18579 0.36128 0.49238 0.0
C2388 C 0.11772 0.33967 0.50186 0.0
C2389 C 0.15271 0.32442 0.49136 0.0
C2390 C 0.04897 0.29242 0.50654 0.0
C2391 C 0.03916 0.35505 0.51059 0.0
N2392 N 0.11977 0.31479 0.496 0.0
N2393 N 0.07407 0.3607 0.50784 0.0
H2394 H 0.69544 0.8463 0.48931 0.0
H2395 H 0.61474 0.63865 0.50957 0.0
H2396 H 0.57764 0.77852 0.49877 0.0
H2397 H 0.73594 0.72434 0.51202 0.0
H2398 H 0.60089 0.68979 0.50523 0.0
H2399 H 0.7123 0.80332 0.49739 0.0
C2400 C 0.67333 0.82285 0.49321 0.0
C2401 C 0.63501 0.81573 0.49331 0.0
C2402 C 0.63048 0.6976 0.50683 0.0
C2403 C 0.65388 0.76629 0.50238 0.0
C2404 C 0.63833 0.66844 0.50925 0.0
C2405 C 0.67645 0.67752 0.5111 0.0
C2406 C 0.66117 0.73601 0.50604 0.0
C2407 C 0.70615 0.71645 0.51066 0.0
C2408 C 0.68298 0.7984 0.49782 0.0
C2409 C 0.6075 0.78498 0.49847 0.0
N2410 N 0.69801 0.74434 0.50802 0.0
N2411 N 0.61731 0.761 0.50267 0.0
H2412 H 0.20756 0.7916 0.50068 0.0
H2413 H 0.28025 0.01686 0.50826 0.0
H2414 H 0.16296 0.85263 0.48553 0.0
H2415 H 0.34773 0.96221 0.51421 0.0
H2416 H 0.22733 0.95397 0.5029 0.0
H2417 H 0.24845 0.851 0.5089 0.0
C2418 C 0.20586 0.81734 0.49917 0.0
C2419 C 0.18218 0.81729 0.49232 0.0
C2420 C 0.25361 0.95579 0.50547 0.0
C2421 C 0.22919 0.88552 0.5017 0.0
C2422 C 0.28358 0.99146 0.50855 0.0
C2423 C 0.31835 0.99454 0.51159 0.0
C2424 C 0.25836 0.92307 0.50561 0.0
C2425 C 0.32153 0.96101 0.51181 0.0
C2426 C 0.22937 0.85129 0.50385 0.0
C2427 C 0.18102 0.8515 0.49072 0.0
N2428 N 0.29196 0.9267 0.50885 0.0
N2429 N 0.20456 0.88446 0.49532 0.0
H2430 H 0.98006 0.31564 0.34143 0.0
H2431 H 0.05373 0.53567 0.33314 0.0
H2432 H 0.98804 0.35833 0.31501 0.0
H2433 H 0.98646 0.47719 0.3562 0.0
H2434 H 0.03264 0.47237 0.32629 0.0
H2435 H 0.9858 0.37591 0.34715 0.0
C2436 C 0.98298 0.33782 0.33685 0.0
C2437 C 0.98397 0.33244 0.32777 0.0
C2438 C 0.02193 0.47346 0.33278 0.0
C2439 C 0.99075 0.40125 0.33421 0.0
C2440 C 0.03397 0.50947 0.33669 0.0
C2441 C 0.02186 0.51149 0.34524 0.0
C2442 C 0.99854 0.43939 0.33756 0.0
C2443 C 0.99631 0.4768 0.34957 0.0
C2444 C 0.98588 0.37195 0.3401 0.0
C2445 C 0.98722 0.36165 0.32207 0.0
N2446 N 0.98607 0.44208 0.34575 0.0
N2447 N 0.99117 0.39523 0.32539 0.0
H2448 H 0.46222 0.52281 0.33299 0.0
H2449 H 0.6839 0.66093 0.3406 0.0
H2450 H 0.52271 0.50194 0.35395 0.0
H2451 H 0.63923 0.63568 0.31414 0.0
H2452 H 0.62332 0.6054 0.34592 0.0
H2453 H 0.52487 0.56591 0.32592 0.0
C2454 C 0.48862 0.52665 0.336 0.0
C2455 C 0.48736 0.5089 0.34407 0.0
C2456 C 0.6269 0.61172 0.33893 0.0
C2457 C 0.55878 0.55878 0.33618 0.0
C2458 C 0.66122 0.64348 0.33593 0.0
C2459 C 0.66617 0.65275 0.32695 0.0
C2460 C 0.59693 0.58973 0.33295 0.0
C2461 C 0.63625 0.62919 0.32111 0.0
C2462 C 0.52427 0.55121 0.33197 0.0
C2463 C 0.52238 0.51496 0.34772 0.0
N2464 N 0.60247 0.59903 0.32423 0.0
N2465 N 0.55676 0.54005 0.34384 0.0
H2466 H 0.34156 0.02904 0.34286 0.0
H2467 H 0.48458 0.95201 0.33362 0.0
H2468 H 0.37388 0.01862 0.31638 0.0
H2469 H 0.49066 0.0126 0.35765 0.0
H2470 H 0.44515 0.97679 0.327 0.0
H2471 H 0.39642 0.02362 0.34844 0.0
C2472 C 0.36054 0.02591 0.33823 0.0
C2473 C 0.35317 0.0238 0.32917 0.0
C2474 C 0.45573 0.98529 0.33366 0.0
C2475 C 0.41556 0.01723 0.33547 0.0
C2476 C 0.47811 0.97108 0.33745 0.0
C2477 C 0.49056 0.98009 0.3462 0.0
C2478 C 0.44496 0.00784 0.33875 0.0
C2479 C 0.48158 0.00501 0.35087 0.0
C2480 C 0.39193 0.02311 0.3414 0.0
C2481 C 0.37876 0.02029 0.32341 0.0
N2482 N 0.45863 0.01743 0.34714 0.0
N2483 N 0.4085 0.01636 0.32666 0.0
H2484 H 0.03319 0.32973 0.2762 0.0
H2485 H 0.97152 0.2417 0.22842 0.0
H2486 H 0.9191 0.23567 0.26944 0.0
H2487 H 0.06914 0.35732 0.23233 0.0
H2488 H 0.9533 0.24019 0.2436 0.0
H2489 H 0.04838 0.34182 0.26045 0.0
C2490 C 0.01119 0.31195 0.27142 0.0
C2491 C 0.97486 0.28144 0.27417 0.0
C2492 C 0.97845 0.26617 0.24115 0.0
C2493 C 0.99214 0.29504 0.2562 0.0
C2494 C 0.98883 0.2673 0.23238 0.0
C2495 C 0.02174 0.30003 0.22893 0.0
C2496 C 0.00146 0.29759 0.24669 0.0
C2497 C 0.04371 0.33133 0.23466 0.0
C2498 C 0.01984 0.319 0.26245 0.0
C2499 C 0.94734 0.2597 0.26768 0.0
N2500 N 0.03334 0.32922 0.24329 0.0
N2501 N 0.95673 0.26662 0.25904 0.0
H2502 H 0.74736 0.70272 0.22687 0.0
H2503 H 0.67201 0.70635 0.27543 0.0
H2504 H 0.66304 0.73789 0.23249 0.0
H2505 H 0.76455 0.68307 0.26928 0.0
H2506 H 0.65989 0.70726 0.25966 0.0
H2507 H 0.74479 0.68374 0.24224 0.0
C2508 C 0.72796 0.70602 0.23134 0.0
C2509 C 0.70577 0.72235 0.22844 0.0
C2510 C 0.68248 0.70143 0.26179 0.0
C2511 C 0.70288 0.70103 0.24608 0.0
C2512 C 0.68958 0.70109 0.2708 0.0
C2513 C 0.71967 0.69502 0.27374 0.0
C2514 C 0.70561 0.69565 0.25567 0.0
C2515 C 0.74081 0.68752 0.2674 0.0
C2516 C 0.72647 0.69519 0.24011 0.0
C2517 C 0.68063 0.72542 0.23446 0.0
N2518 N 0.73361 0.68842 0.2587 0.0
N2519 N 0.68027 0.71538 0.24304 0.0
H2520 H 0.20294 0.98187 0.23131 0.0
H2521 H 0.32009 0.00513 0.27429 0.0
H2522 H 0.31647 0.99417 0.22795 0.0
H2523 H 0.25822 0.06677 0.26951 0.0
H2524 H 0.31726 0.99138 0.25833 0.0
H2525 H 0.21781 -0.00016 0.24664 0.0
C2526 C 0.23125 0.98871 0.23376 0.0
C2527 C 0.25903 0.98782 0.22821 0.0
C2528 C 0.305 0.00846 0.26082 0.0
C2529 C 0.27571 0.00737 0.24598 0.0
C2530 C 0.30667 0.01638 0.26987 0.0
C2531 C 0.28857 0.03634 0.27321 0.0
C2532 C 0.28474 0.02033 0.25522 0.0
C2533 C 0.27164 0.05041 0.26724 0.0
C2534 C 0.2396 0.99879 0.24255 0.0
C2535 C 0.29442 0.995 0.23197 0.0
N2536 N 0.26955 0.04156 0.25859 0.0
N2537 N 0.30192 0.00465 0.24066 0.0
H2538 H 0.03283 0.70086 0.77439 0.0
H2539 H 0.97056 0.66681 0.72389 0.0
H2540 H 0.91741 0.67002 0.76564 0.0
H2541 H 0.08352 0.7566 0.73282 0.0
H2542 H 0.95149 0.64875 0.73922 0.0
H2543 H 0.0517 0.70156 0.75906 0.0
C2544 C 0.01127 0.6939 0.7693 0.0
C2545 C 0.97363 0.68641 0.77137 0.0
C2546 C 0.98062 0.67198 0.73775 0.0
C2547 C 0.99496 0.68581 0.75383 0.0
C2548 C 0.99156 0.68265 0.729 0.0
C2549 C 0.02858 0.71409 0.72695 0.0
C2550 C 0.00711 0.69214 0.74451 0.0
C2551 C 0.05478 0.73214 0.73395 0.0
C2552 C 0.02211 0.69405 0.76056 0.0
C2553 C 0.94672 0.676 0.76445 0.0
N2554 N 0.04344 0.72108 0.7424 0.0
N2555 N 0.95801 0.67635 0.75598 0.0
H2556 H 0.32504 0.23514 0.76652 0.0
H2557 H 0.24812 0.32741 0.73301 0.0
H2558 H 0.30301 0.32661 0.77464 0.0
H2559 H 0.33205 0.29455 0.72494 0.0
H2560 H 0.26632 0.32661 0.74827 0.0
H2561 H 0.32682 0.25485 0.75126 0.0
C2562 C 0.32133 0.25982 0.76517 0.0
C2563 C 0.31314 0.27867 0.77197 0.0
C2564 C 0.28111 0.32014 0.74313 0.0
C2565 C 0.31394 0.30048 0.7544 0.0
C2566 C 0.27092 0.32081 0.73437 0.0
C2567 C 0.28795 0.31033 0.72757 0.0
C2568 C 0.30789 0.30811 0.74517 0.0
C2569 C 0.31697 0.30148 0.7299 0.0
C2570 C 0.32215 0.2709 0.75642 0.0
C2571 C 0.30803 0.31016 0.76967 0.0
N2572 N 0.32541 0.29977 0.7385 0.0
N2573 N 0.30773 0.31954 0.76108 0.0
H2574 H 0.69568 0.96273 0.77419 0.0
H2575 H 0.73428 0.04524 0.72595 0.0
H2576 H 0.74201 0.08425 0.76855 0.0
H2577 H 0.66201 0.92338 0.73172 0.0
H2578 H 0.7305 0.06038 0.74139 0.0
H2579 H 0.6759 0.94738 0.7588 0.0
C2580 C 0.70089 0.98608 0.76972 0.0
C2581 C 0.72068 0.02479 0.77259 0.0
C2582 C 0.71474 0.03036 0.73927 0.0
C2583 C 0.69901 0.00766 0.75494 0.0
C2584 C 0.7169 0.02174 0.73046 0.0
C2585 C 0.69867 0.98301 0.7276 0.0
C2586 C 0.69486 -4e-05 0.74531 0.0
C2587 C 0.67643 0.95362 0.73367 0.0
C2588 C 0.68963 0.97736 0.76094 0.0
C2589 C 0.72675 0.05403 0.76658 0.0
N2590 N 0.67577 0.96264 0.74229 0.0
N2591 N 0.71664 0.04494 0.75798 0.0
H2592 H 0.69905 0.6596 0.60882 0.0
H2593 H 0.62897 0.58989 0.55959 0.0
H2594 H 0.58332 0.57038 0.60153 0.0
H2595 H 0.7474 0.67316 0.56631 0.0
H2596 H 0.60948 0.59215 0.57471 0.0
H2597 H 0.71502 0.6738 0.59321 0.0
C2598 C 0.67685 0.6432 0.60396 0.0
C2599 C 0.63988 0.61329 0.60654 0.0
C2600 C 0.63968 0.61039 0.57288 0.0
C2601 C 0.65798 0.62975 0.58864 0.0
C2602 C 0.65076 0.60916 0.56425 0.0
C2603 C 0.68988 0.63106 0.56175 0.0
C2604 C 0.66798 0.63335 0.57913 0.0
C2605 C 0.71694 0.65582 0.56799 0.0
C2606 C 0.68599 0.6515 0.59505 0.0
C2607 C 0.61212 0.59379 0.59992 0.0
N2608 N 0.70559 0.65585 0.57645 0.0
N2609 N 0.62188 0.60207 0.59131 0.0
H2610 H 0.39544 0.10157 0.60765 0.0
H2611 H 0.35735 0.00655 0.56047 0.0
H2612 H 0.36866 0.98278 0.60405 0.0
H2613 H 0.34833 0.10785 0.56649 0.0
H2614 H 0.35922 0.9952 0.57628 0.0
H2615 H 0.37601 0.10254 0.59263 0.0
C2616 C 0.38473 0.07526 0.60381 0.0
C2617 C 0.38368 0.04192 0.60726 0.0
C2618 C 0.35612 0.01948 0.57413 0.0
C2619 C 0.36257 0.04359 0.58972 0.0
C2620 C 0.35518 0.02606 0.56511 0.0
C2621 C 0.35301 0.05841 0.56214 0.0
C2622 C 0.35545 0.04577 0.5802 0.0
C2623 C 0.3498 0.08244 0.56845 0.0
C2624 C 0.37388 0.07604 0.59514 0.0
C2625 C 0.37068 0.00942 0.6017 0.0
N2626 N 0.35169 0.07596 0.57716 0.0
N2627 N 0.36106 0.01122 0.59317 0.0
H2628 H 0.92621 0.2905 0.60941 0.0
H2629 H 0.9599 0.36779 0.56085 0.0
H2630 H 0.00048 0.4116 0.60318 0.0
H2631 H 0.92214 0.24815 0.56686 0.0
H2632 H 0.97897 0.3849 0.57623 0.0
H2633 H 0.92812 0.27405 0.59397 0.0
C2634 C 0.94356 0.31352 0.6048 0.0
C2635 C 0.96306 0.35244 0.60753 0.0
C2636 C 0.96724 0.35502 0.57418 0.0
C2637 C 0.96474 0.33403 0.58984 0.0
C2638 C 0.95632 0.34528 0.56541 0.0
C2639 C 0.93931 0.30653 0.56264 0.0
C2640 C 0.96024 0.32562 0.58026 0.0
C2641 C 0.93527 0.27837 0.56876 0.0
C2642 C 0.94469 0.30416 0.59599 0.0
C2643 C 0.98515 0.38124 0.60132 0.0
N2644 N 0.94498 0.28835 0.57734 0.0
N2645 N 0.9848 0.37153 0.59272 0.0
H2646 H 0.72253 0.04218 0.06313 0.0
H2647 H 0.58405 0.0537 0.09943 0.0
H2648 H 0.62428 0.0569 0.05736 0.0
H2649 H 0.66928 0.02074 0.10579 0.0
H2650 H 0.59612 0.05023 0.08381 0.0
H2651 H 0.70193 0.02995 0.07858 0.0
C2652 C 0.69645 0.04245 0.06507 0.0
C2653 C 0.67522 0.05074 0.0589 0.0
C2654 C 0.61199 0.04331 0.08858 0.0
C2655 C 0.65155 0.03679 0.07656 0.0
C2656 C 0.60508 0.04532 0.09749 0.0
C2657 C 0.6259 0.03773 0.10386 0.0
C2658 C 0.64047 0.03425 0.08598 0.0
C2659 C 0.65266 0.02676 0.10104 0.0
C2660 C 0.68462 0.03529 0.07389 0.0
C2661 C 0.6414 0.05021 0.0618 0.0
N2662 N 0.65963 0.02586 0.09229 0.0
N2663 N 0.63092 0.04378 0.0704 0.0
H2664 H 0.87038 0.56599 0.06546 0.0
H2665 H 0.99363 0.65041 0.10661 0.0
H2666 H 0.98852 0.65208 0.05898 0.0
H2667 H 0.94322 0.52873 0.10044 0.0
H2668 H 0.98966 0.66366 0.09084 0.0
H2669 H 0.89067 0.56447 0.08048 0.0
C2670 C 0.90066 0.58458 0.06717 0.0
C2671 C 0.92804 0.60826 0.06084 0.0
C2672 C 0.98053 0.63433 0.09298 0.0
C2673 C 0.95094 0.6075 0.07817 0.0
C2674 C 0.98285 0.62677 0.10192 0.0
C2675 C 0.96803 0.58833 0.10481 0.0
C2676 C 0.96292 0.6031 0.08706 0.0
C2677 C 0.95418 0.55865 0.0985 0.0
C2678 C 0.91206 0.58382 0.07576 0.0
C2679 C 0.96656 0.63308 0.06362 0.0
N2680 N 0.9511 0.56652 0.08996 0.0
N2681 N 0.97708 0.63195 0.07213 0.0
H2682 H 0.42027 0.28388 0.06641 0.0
H2683 H 0.35169 0.3413 0.10773 0.0
H2684 H 0.34417 0.32874 0.06005 0.0
H2685 H 0.47262 0.40365 0.10021 0.0
H2686 H 0.33447 0.31981 0.0923 0.0
H2687 H 0.42463 0.30673 0.08148 0.0
C2688 C 0.40426 0.29834 0.06819 0.0
C2689 C 0.38274 0.30546 0.06189 0.0
C2690 C 0.36459 0.33881 0.09408 0.0
C2691 C 0.38682 0.33048 0.07919 0.0
C2692 C 0.37446 0.35114 0.10283 0.0
C2693 C 0.41372 0.37352 0.10528 0.0
C2694 C 0.39431 0.3487 0.08791 0.0
C2695 C 0.44209 0.38545 0.09867 0.0
C2696 C 0.40664 0.31111 0.07678 0.0
C2697 C 0.36137 0.32301 0.06469 0.0
N2698 N 0.4319 0.37217 0.09034 0.0
N2699 N 0.36422 0.3354 0.07318 0.0
H2700 H 0.38229 0.95848 0.94091 0.0
H2701 H 0.31117 0.9705 0.89251 0.0
H2702 H 0.26723 0.93782 0.93517 0.0
H2703 H 0.4244 0.98679 0.89867 0.0
H2704 H 0.29775 0.96883 0.90826 0.0
H2705 H 0.40139 0.97958 0.92574 0.0
C2706 C 0.36116 0.9588 0.93646 0.0
C2707 C 0.32299 0.94592 0.93926 0.0
C2708 C 0.32573 0.97333 0.90616 0.0
C2709 C 0.34452 0.96977 0.92183 0.0
C2710 C 0.33339 0.97414 0.89716 0.0
C2711 C 0.3688 0.97824 0.89422 0.0
C2712 C 0.35362 0.97651 0.91229 0.0
C2713 C 0.39677 0.98372 0.90058 0.0
C2714 C 0.37207 0.9709 0.9278 0.0
C2715 C 0.29694 0.94751 0.93327 0.0
N2716 N 0.38839 0.98221 0.90929 0.0
N2717 N 0.30803 0.95866 0.92479 0.0
H2718 H 0.03823 0.34463 0.89073 0.0
H2719 H 0.01076 0.38375 0.94095 0.0
H2720 H 0.01367 0.43425 0.89902 0.0
H2721 H 0.09167 0.34722 0.93272 0.0
H2722 H 0.99396 0.38506 0.92555 0.0
H2723 H 0.04043 0.32872 0.90618 0.0
C2724 C 0.0331 0.36092 0.89574 0.0
C2725 C 0.02652 0.3915 0.89347 0.0
C2726 C 0.01502 0.37631 0.92717 0.0
C2727 C 0.02762 0.37219 0.91117 0.0
C2728 C 0.02491 0.37579 0.93595 0.0
C2729 C 0.05349 0.36628 0.93819 0.0
C2730 C 0.03322 0.36655 0.92056 0.0
C2731 C 0.0695 0.35473 0.93138 0.0
C2732 C 0.03408 0.35151 0.90455 0.0
C2733 C 0.01862 0.41033 0.90033 0.0
N2734 N 0.05936 0.35548 0.92286 0.0
N2735 N 0.0196 0.40051 0.90885 0.0
H2736 H 0.58111 0.71119 0.93282 0.0
H2737 H 0.64647 0.65501 0.89166 0.0
H2738 H 0.65181 0.66127 0.94012 0.0
H2739 H 0.52715 0.58507 0.89995 0.0
H2740 H 0.66477 0.67628 0.90707 0.0
H2741 H 0.57792 0.68808 0.9178 0.0
C2742 C 0.59628 0.69567 0.93125 0.0
C2743 C 0.61594 0.68726 0.93778 0.0
C2744 C 0.63485 0.6555 0.90547 0.0
C2745 C 0.61311 0.6618 0.92057 0.0
C2746 C 0.62438 0.64331 0.89674 0.0
C2747 C 0.58512 0.61884 0.89453 0.0
C2748 C 0.60572 0.64318 0.91189 0.0
C2749 C 0.55759 0.60467 0.90134 0.0
C2750 C 0.59458 0.68275 0.92269 0.0
C2751 C 0.63612 0.66807 0.93528 0.0
N2752 N 0.56827 0.61777 0.90967 0.0
N2753 N 0.63382 0.65542 0.92683 0.0
H2754 H 0.41359 0.42257 0.40028 0.0
H2755 H 0.24524 0.33899 0.43467 0.0
H2756 H 0.29518 0.34287 0.39245 0.0
H2757 H 0.36212 0.36878 0.44184 0.0
H2758 H 0.26196 0.33911 0.41922 0.0
H2759 H 0.39553 0.40295 0.4155 0.0
C2760 C 0.38396 0.40039 0.40168 0.0
C2761 C 0.35585 0.38484 0.39497 0.0
C2762 C 0.28374 0.34503 0.42419 0.0
C2763 C 0.33477 0.36318 0.41256 0.0
C2764 C 0.27417 0.34476 0.43305 0.0
C2765 C 0.30247 0.35463 0.43963 0.0
C2766 C 0.32202 0.35587 0.42187 0.0
C2767 C 0.33962 0.36227 0.43702 0.0
C2768 C 0.37364 0.38937 0.41042 0.0
C2769 C 0.31773 0.35669 0.39736 0.0
N2770 N 0.3485 0.36345 0.42835 0.0
N2771 N 0.30818 0.34729 0.40596 0.0
H2772 H 0.54881 0.88697 0.39929 0.0
H2773 H 0.65468 0.99324 0.44147 0.0
H2774 H 0.65179 0.99844 0.39487 0.0
H2775 H 0.63255 0.8773 0.43611 0.0
H2776 H 0.64654 0.00134 0.42564 0.0
H2777 H 0.56952 0.88784 0.41433 0.0
C2778 C 0.57607 0.91151 0.4014 0.0
C2779 C 0.59925 0.94209 0.39562 0.0
C2780 C 0.6444 0.97458 0.42797 0.0
C2781 C 0.6219 0.94383 0.41311 0.0
C2782 C 0.64887 0.96987 0.43695 0.0
C2783 C 0.64431 0.93455 0.44008 0.0
C2784 C 0.6342 0.94334 0.42222 0.0
C2785 C 0.63669 0.90511 0.43398 0.0
C2786 C 0.58759 0.91202 0.41004 0.0
C2787 C 0.63311 0.97407 0.39904 0.0
N2788 N 0.63108 0.90987 0.42538 0.0
N2789 N 0.64348 0.97421 0.40761 0.0
H2790 H 0.0395 0.63817 0.44118 0.0
H2791 H 0.07653 0.71622 0.39258 0.0
H2792 H 0.08478 0.75913 0.43513 0.0
H2793 H 0.00042 0.59549 0.39887 0.0
H2794 H 0.07502 0.73303 0.40801 0.0
H2795 H 0.01957 0.62172 0.42582 0.0
C2796 C 0.04438 0.66113 0.43662 0.0
C2797 C 0.06373 0.69999 0.43936 0.0
C2798 C 0.05799 0.70293 0.406 0.0
C2799 C 0.04212 0.68168 0.42175 0.0
C2800 C 0.05892 0.69335 0.3972 0.0
C2801 C 0.03882 0.6544 0.39449 0.0
C2802 C 0.03745 0.67325 0.41217 0.0
C2803 C 0.01627 0.62587 0.40071 0.0
C2804 C 0.03309 0.6518 0.42786 0.0
C2805 C 0.06973 0.72881 0.43324 0.0
N2806 N 0.01677 0.63578 0.40929 0.0
N2807 N 0.0596 0.71915 0.42466 0.0
loop_
_geom_bond_atom_site_label_1
_geom_bond_atom_site_label_2
_geom_bond_distance
_geom_bond_site_symmetry_2
_ccdc_geom_bond_type
Co0 N4 2.148 . S
Co0 N10 2.128 . S
Co0 N20 2.194 . S
Co0 O25 2.351 . S
Co0 O26 2.155 . S
Co0 O27 2.096 . S
C1 N4 1.301 . S
C1 N5 1.328 . S
C1 H6 0.930 . S
C2 C3 1.333 . S
C2 N4 1.317 . S
C2 H7 0.930 1_455 S
C3 C2 1.333 . S
C3 N5 1.350 . S
C3 H29 0.931 1_455 S
N4 Co0 2.148 . S
N4 C1 1.301 . S
N4 C2 1.317 . S
N5 C1 1.328 . S
N5 C3 1.350 . S
H6 C1 0.930 . S
H7 C2 0.930 1_655 S
C8 O9 1.224 . S
C8 O27 1.247 . S
O9 C8 1.224 . S
N10 Co0 2.128 . S
N10 C11 1.355 . S
N10 C13 1.311 . S
C11 N10 1.355 . S
C11 C12 1.363 . S
C11 H23 0.929 . S
C12 C11 1.363 . S
C12 N14 1.375 . S
C12 H30 0.931 . S
C13 N10 1.311 . S
C13 N14 1.347 . S
C13 H24 0.929 . S
N14 C12 1.375 . S
N14 C13 1.347 . S
C15 C18 1.365 . S
C15 N20 1.328 . S
C15 H21 0.929 . S
C16 C17 1.362 . S
C16 C19 1.378 . S
C16 H31 0.929 . S
C17 C16 1.362 . S
C17 C18 1.366 . S
C18 C15 1.365 . S
C18 C17 1.366 . S
C18 H32 0.930 . S
C19 C16 1.378 . S
C19 N20 1.315 . S
C19 H22 0.930 . S
N20 Co0 2.194 . S
N20 C15 1.328 . S
N20 C19 1.315 . S
H21 C15 0.929 . S
H22 C19 0.930 . S
H23 C11 0.929 . S
H24 C13 0.929 . S
O25 Co0 2.351 . S
O25 C28 1.244 . S
O26 Co0 2.155 . S
O26 C28 1.240 . S
O27 Co0 2.096 . S
O27 C8 1.247 . S
C28 O25 1.244 . S
C28 O26 1.240 . S
H29 C3 0.931 1_655 S
H30 C12 0.931 . S
H31 C16 0.929 . S
H32 C18 0.930 . S
Co33 N37 2.148 . S
Co33 N43 2.128 . S
Co33 N53 2.194 . S
Co33 O58 2.351 . S
Co33 O59 2.155 . S
Co33 O60 2.096 . S
C34 N37 1.301 . S
C34 N38 1.328 . S
C34 H39 0.930 . S
C35 C36 1.333 . S
C35 N37 1.317 . S
C35 H40 0.930 . S
C36 C35 1.333 . S
C36 N38 1.350 . S
C36 H62 0.931 . S
N37 Co33 2.148 . S
N37 C34 1.301 . S
N37 C35 1.317 . S
N38 C34 1.328 . S
N38 C36 1.350 . S
H39 C34 0.930 . S
H40 C35 0.930 . S
C41 O42 1.224 . S
C41 O60 1.247 . S
O42 C41 1.224 . S
N43 Co33 2.128 . S
N43 C44 1.355 . S
N43 C46 1.311 . S
C44 N43 1.355 . S
C44 C45 1.363 . S
C44 H56 0.929 . S
C45 C44 1.363 . S
C45 N47 1.375 . S
C45 H63 0.931 . S
C46 N43 1.311 . S
C46 N47 1.347 . S
C46 H57 0.929 . S
N47 C45 1.375 . S
N47 C46 1.347 . S
C48 C51 1.365 . S
C48 N53 1.328 . S
C48 H54 0.929 . S
C49 C50 1.362 . S
C49 C52 1.378 . S
C49 H64 0.929 . S
C50 C49 1.362 . S
C50 C51 1.366 . S
C51 C48 1.365 . S
C51 C50 1.366 . S
C51 H65 0.930 . S
C52 C49 1.378 . S
C52 N53 1.315 . S
C52 H55 0.930 . S
N53 Co33 2.194 . S
N53 C48 1.328 . S
N53 C52 1.315 . S
H54 C48 0.929 . S
H55 C52 0.930 . S
H56 C44 0.929 . S
H57 C46 0.929 . S
O58 Co33 2.351 . S
O58 C61 1.244 . S
O59 Co33 2.155 . S
O59 C61 1.240 . S
O60 Co33 2.096 . S
O60 C41 1.247 . S
C61 O58 1.244 . S
C61 O59 1.240 . S
H62 C36 0.931 . S
H63 C45 0.931 . S
H64 C49 0.929 . S
H65 C51 0.930 . S
Co66 N70 2.148 . S
Co66 N76 2.128 . S
Co66 N86 2.194 . S
Co66 O91 2.351 . S
Co66 O92 2.155 . S
Co66 O93 2.096 . S
C67 N70 1.301 . S
C67 N71 1.328 . S
C67 H72 0.930 . S
C68 C69 1.333 . S
C68 N70 1.317 . S
C68 H73 0.930 1_565 S
C69 C68 1.333 . S
C69 N71 1.350 . S
C69 H95 0.931 1_565 S
N70 Co66 2.148 . S
N70 C67 1.301 . S
N70 C68 1.317 . S
N71 C67 1.328 . S
N71 C69 1.350 . S
H72 C67 0.930 . S
H73 C68 0.930 1_545 S
C74 O75 1.224 . S
C74 O93 1.247 . S
O75 C74 1.224 . S
N76 Co66 2.128 . S
N76 C77 1.355 . S
N76 C79 1.311 . S
C77 N76 1.355 . S
C77 C78 1.363 . S
C77 H89 0.929 . S
C78 C77 1.363 . S
C78 N80 1.375 . S
C78 H96 0.931 . S
C79 N76 1.311 . S
C79 N80 1.347 . S
C79 H90 0.929 . S
N80 C78 1.375 . S
N80 C79 1.347 . S
C81 C84 1.365 . S
C81 N86 1.328 . S
C81 H87 0.929 . S
C82 C83 1.362 . S
C82 C85 1.378 . S
C82 H97 0.929 . S
C83 C82 1.362 . S
C83 C84 1.366 . S
C84 C81 1.365 . S
C84 C83 1.366 . S
C84 H98 0.930 . S
C85 C82 1.378 . S
C85 N86 1.315 . S
C85 H88 0.930 . S
N86 Co66 2.194 . S
N86 C81 1.328 . S
N86 C85 1.315 . S
H87 C81 0.929 . S
H88 C85 0.930 . S
H89 C77 0.929 . S
H90 C79 0.929 . S
O91 Co66 2.351 . S
O91 C94 1.244 . S
O92 Co66 2.155 . S
O92 C94 1.240 . S
O93 Co66 2.096 . S
O93 C74 1.247 . S
C94 O91 1.244 . S
C94 O92 1.240 . S
H95 C69 0.931 1_545 S
H96 C78 0.931 . S
H97 C82 0.929 . S
H98 C84 0.930 . S
Co99 N103 2.148 . S
Co99 N109 2.128 . S
Co99 N119 2.194 . S
Co99 O124 2.351 . S
Co99 O125 2.155 . S
Co99 O126 2.096 . S
C100 N103 1.301 . S
C100 N104 1.328 . S
C100 H105 0.930 . S
C101 C102 1.333 . S
C101 N103 1.317 . S
C101 H106 0.930 1_545 S
C102 C101 1.333 . S
C102 N104 1.350 . S
C102 H128 0.931 1_545 S
N103 Co99 2.148 . S
N103 C100 1.301 . S
N103 C101 1.317 . S
N104 C100 1.328 . S
N104 C102 1.350 . S
H105 C100 0.930 . S
H106 C101 0.930 1_565 S
C107 O108 1.224 . S
C107 O126 1.247 . S
O108 C107 1.224 . S
N109 Co99 2.128 . S
N109 C110 1.355 . S
N109 C112 1.311 . S
C110 N109 1.355 . S
C110 C111 1.363 . S
C110 H122 0.929 . S
C111 C110 1.363 . S
C111 N113 1.375 . S
C111 H129 0.931 . S
C112 N109 1.311 . S
C112 N113 1.347 . S
C112 H123 0.929 . S
N113 C111 1.375 . S
N113 C112 1.347 . S
C114 C117 1.365 . S
C114 N119 1.328 . S
C114 H120 0.929 . S
C115 C116 1.362 . S
C115 C118 1.378 . S
C115 H130 0.929 . S
C116 C115 1.362 . S
C116 C117 1.366 . S
C117 C114 1.365 . S
C117 C116 1.366 . S
C117 H131 0.930 . S
C118 C115 1.378 . S
C118 N119 1.315 . S
C118 H121 0.930 . S
N119 Co99 2.194 . S
N119 C114 1.328 . S
N119 C118 1.315 . S
H120 C114 0.929 . S
H121 C118 0.930 . S
H122 C110 0.929 . S
H123 C112 0.929 . S
O124 Co99 2.351 . S
O124 C127 1.244 . S
O125 Co99 2.155 . S
O125 C127 1.240 . S
O126 Co99 2.096 . S
O126 C107 1.247 . S
C127 O124 1.244 . S
C127 O125 1.240 . S
H128 C102 0.931 1_565 S
H129 C111 0.931 . S
H130 C115 0.929 . S
H131 C117 0.930 . S
Co132 N136 2.148 . S
Co132 N142 2.128 . S
Co132 N152 2.194 . S
Co132 O157 2.351 . S
Co132 O158 2.155 . S
Co132 O159 2.096 . S
C133 N136 1.301 . S
C133 N137 1.328 . S
C133 H138 0.930 . S
C134 C135 1.333 . S
C134 N136 1.317 . S
C134 H139 0.930 1_655 S
C135 C134 1.333 . S
C135 N137 1.350 . S
C135 H161 0.931 1_655 S
N136 Co132 2.148 . S
N136 C133 1.301 . S
N136 C134 1.317 . S
N137 C133 1.328 . S
N137 C135 1.350 . S
H138 C133 0.930 . S
H139 C134 0.930 1_455 S
C140 O141 1.224 . S
C140 O159 1.247 . S
O141 C140 1.224 . S
N142 Co132 2.128 . S
N142 C143 1.355 . S
N142 C145 1.311 . S
C143 N142 1.355 . S
C143 C144 1.363 . S
C143 H155 0.929 . S
C144 C143 1.363 . S
C144 N146 1.375 . S
C144 H162 0.931 . S
C145 N142 1.311 . S
C145 N146 1.347 . S
C145 H156 0.929 . S
N146 C144 1.375 . S
N146 C145 1.347 . S
C147 C150 1.365 . S
C147 N152 1.328 . S
C147 H153 0.929 . S
C148 C149 1.362 . S
C148 C151 1.378 . S
C148 H163 0.929 . S
C149 C148 1.362 . S
C149 C150 1.366 . S
C150 C147 1.365 . S
C150 C149 1.366 . S
C150 H164 0.930 . S
C151 C148 1.378 . S
C151 N152 1.315 . S
C151 H154 0.930 . S
N152 Co132 2.194 . S
N152 C147 1.328 . S
N152 C151 1.315 . S
H153 C147 0.929 . S
H154 C151 0.930 . S
H155 C143 0.929 . S
H156 C145 0.929 . S
O157 Co132 2.351 . S
O157 C160 1.244 . S
O158 Co132 2.155 . S
O158 C160 1.240 . S
O159 Co132 2.096 . S
O159 C140 1.247 . S
C160 O157 1.244 . S
C160 O158 1.240 . S
H161 C135 0.931 1_455 S
H162 C144 0.931 . S
H163 C148 0.929 . S
H164 C150 0.930 . S
Co165 N169 2.148 . S
Co165 N175 2.128 . S
Co165 N185 2.194 . S
Co165 O190 2.351 . S
Co165 O191 2.155 . S
Co165 O192 2.096 . S
C166 N169 1.301 . S
C166 N170 1.328 . S
C166 H171 0.930 . S
C167 C168 1.333 . S
C167 N169 1.317 . S
C167 H172 0.930 . S
C168 C167 1.333 . S
C168 N170 1.350 . S
C168 H194 0.931 . S
N169 Co165 2.148 . S
N169 C166 1.301 . S
N169 C167 1.317 . S
N170 C166 1.328 . S
N170 C168 1.350 . S
H171 C166 0.930 . S
H172 C167 0.930 . S
C173 O174 1.224 . S
C173 O192 1.247 . S
O174 C173 1.224 . S
N175 Co165 2.128 . S
N175 C176 1.355 . S
N175 C178 1.311 . S
C176 N175 1.355 . S
C176 C177 1.363 . S
C176 H188 0.929 . S
C177 C176 1.363 . S
C177 N179 1.375 . S
C177 H195 0.931 . S
C178 N175 1.311 . S
C178 N179 1.347 . S
C178 H189 0.929 . S
N179 C177 1.375 . S
N179 C178 1.347 . S
C180 C183 1.365 . S
C180 N185 1.328 . S
C180 H186 0.929 . S
C181 C182 1.362 . S
C181 C184 1.378 . S
C181 H196 0.929 . S
C182 C181 1.362 . S
C182 C183 1.366 . S
C183 C180 1.365 . S
C183 C182 1.366 . S
C183 H197 0.930 . S
C184 C181 1.378 . S
C184 N185 1.315 . S
C184 H187 0.930 . S
N185 Co165 2.194 . S
N185 C180 1.328 . S
N185 C184 1.315 . S
H186 C180 0.929 . S
H187 C184 0.930 . S
H188 C176 0.929 . S
H189 C178 0.929 . S
O190 Co165 2.351 . S
O190 C193 1.244 . S
O191 Co165 2.155 . S
O191 C193 1.240 . S
O192 Co165 2.096 . S
O192 C173 1.247 . S
C193 O190 1.244 . S
C193 O191 1.240 . S
H194 C168 0.931 . S
H195 C177 0.931 . S
H196 C181 0.929 . S
H197 C183 0.930 . S
Co198 N202 2.148 . S
Co198 N208 2.128 . S
Co198 N218 2.194 . S
Co198 O223 2.351 . S
Co198 O224 2.155 . S
Co198 O225 2.096 . S
C199 N202 1.301 . S
C199 N203 1.328 . S
C199 H204 0.930 . S
C200 C201 1.333 . S
C200 N202 1.317 . S
C200 H205 0.930 1_655 S
C201 C200 1.333 . S
C201 N203 1.350 . S
C201 H227 0.931 1_655 S
N202 Co198 2.148 . S
N202 C199 1.301 . S
N202 C200 1.317 . S
N203 C199 1.328 . S
N203 C201 1.350 . S
H204 C199 0.930 . S
H205 C200 0.930 1_455 S
C206 O207 1.224 . S
C206 O225 1.247 . S
O207 C206 1.224 . S
N208 Co198 2.128 . S
N208 C209 1.355 . S
N208 C211 1.311 . S
C209 N208 1.355 . S
C209 C210 1.363 . S
C209 H221 0.929 . S
C210 C209 1.363 . S
C210 N212 1.375 . S
C210 H228 0.931 . S
C211 N208 1.311 . S
C211 N212 1.347 . S
C211 H222 0.929 . S
N212 C210 1.375 . S
N212 C211 1.347 . S
C213 C216 1.365 . S
C213 N218 1.328 . S
C213 H219 0.929 . S
C214 C215 1.362 . S
C214 C217 1.378 . S
C214 H229 0.929 . S
C215 C214 1.362 . S
C215 C216 1.366 . S
C216 C213 1.365 . S
C216 C215 1.366 . S
C216 H230 0.930 . S
C217 C214 1.378 . S
C217 N218 1.315 . S
C217 H220 0.930 . S
N218 Co198 2.194 . S
N218 C213 1.328 . S
N218 C217 1.315 . S
H219 C213 0.929 . S
H220 C217 0.930 . S
H221 C209 0.929 . S
H222 C211 0.929 . S
O223 Co198 2.351 . S
O223 C226 1.244 . S
O224 Co198 2.155 . S
O224 C226 1.240 . S
O225 Co198 2.096 . S
O225 C206 1.247 . S
C226 O223 1.244 . S
C226 O224 1.240 . S
H227 C201 0.931 1_455 S
H228 C210 0.931 . S
H229 C214 0.929 . S
H230 C216 0.930 . S
Co231 N235 2.148 . S
Co231 N241 2.128 . S
Co231 N251 2.194 . S
Co231 O256 2.351 . S
Co231 O257 2.155 . S
Co231 O258 2.096 . S
C232 N235 1.301 . S
C232 N236 1.328 . S
C232 H237 0.930 . S
C233 C234 1.333 . S
C233 N235 1.317 . S
C233 H238 0.930 . S
C234 C233 1.333 . S
C234 N236 1.350 . S
C234 H260 0.931 . S
N235 Co231 2.148 . S
N235 C232 1.301 . S
N235 C233 1.317 . S
N236 C232 1.328 . S
N236 C234 1.350 . S
H237 C232 0.930 . S
H238 C233 0.930 . S
C239 O240 1.224 . S
C239 O258 1.247 . S
O240 C239 1.224 . S
N241 Co231 2.128 . S
N241 C242 1.355 . S
N241 C244 1.311 . S
C242 N241 1.355 . S
C242 C243 1.363 . S
C242 H254 0.929 . S
C243 C242 1.363 . S
C243 N245 1.375 . S
C243 H261 0.931 . S
C244 N241 1.311 . S
C244 N245 1.347 . S
C244 H255 0.929 . S
N245 C243 1.375 . S
N245 C244 1.347 . S
C246 C249 1.365 . S
C246 N251 1.328 . S
C246 H252 0.929 . S
C247 C248 1.362 . S
C247 C250 1.378 . S
C247 H262 0.929 . S
C248 C247 1.362 . S
C248 C249 1.366 . S
C249 C246 1.365 . S
C249 C248 1.366 . S
C249 H263 0.930 . S
C250 C247 1.378 . S
C250 N251 1.315 . S
C250 H253 0.930 . S
N251 Co231 2.194 . S
N251 C246 1.328 . S
N251 C250 1.315 . S
H252 C246 0.929 . S
H253 C250 0.930 . S
H254 C242 0.929 . S
H255 C244 0.929 . S
O256 Co231 2.351 . S
O256 C259 1.244 . S
O257 Co231 2.155 . S
O257 C259 1.240 . S
O258 Co231 2.096 . S
O258 C239 1.247 . S
C259 O256 1.244 . S
C259 O257 1.240 . S
H260 C234 0.931 . S
H261 C243 0.931 . S
H262 C247 0.929 . S
H263 C249 0.930 . S
Co264 N268 2.148 . S
Co264 N274 2.128 . S
Co264 N284 2.194 . S
Co264 O289 2.351 . S
Co264 O290 2.155 . S
Co264 O291 2.096 . S
C265 N268 1.301 . S
C265 N269 1.328 . S
C265 H270 0.930 . S
C266 C267 1.333 . S
C266 N268 1.317 . S
C266 H271 0.930 1_545 S
C267 C266 1.333 . S
C267 N269 1.350 . S
C267 H293 0.931 1_545 S
N268 Co264 2.148 . S
N268 C265 1.301 . S
N268 C266 1.317 . S
N269 C265 1.328 . S
N269 C267 1.350 . S
H270 C265 0.930 . S
H271 C266 0.930 1_565 S
C272 O273 1.224 . S
C272 O291 1.247 . S
O273 C272 1.224 . S
N274 Co264 2.128 . S
N274 C275 1.355 . S
N274 C277 1.311 . S
C275 N274 1.355 . S
C275 C276 1.363 . S
C275 H287 0.929 . S
C276 C275 1.363 . S
C276 N278 1.375 . S
C276 H294 0.931 . S
C277 N274 1.311 . S
C277 N278 1.347 . S
C277 H288 0.929 . S
N278 C276 1.375 . S
N278 C277 1.347 . S
C279 C282 1.365 . S
C279 N284 1.328 . S
C279 H285 0.929 . S
C280 C281 1.362 . S
C280 C283 1.378 . S
C280 H295 0.929 . S
C281 C280 1.362 . S
C281 C282 1.366 . S
C282 C279 1.365 . S
C282 C281 1.366 . S
C282 H296 0.930 . S
C283 C280 1.378 . S
C283 N284 1.315 . S
C283 H286 0.930 . S
N284 Co264 2.194 . S
N284 C279 1.328 . S
N284 C283 1.315 . S
H285 C279 0.929 . S
H286 C283 0.930 . S
H287 C275 0.929 . S
H288 C277 0.929 . S
O289 Co264 2.351 . S
O289 C292 1.244 . S
O290 Co264 2.155 . S
O290 C292 1.240 . S
O291 Co264 2.096 . S
O291 C272 1.247 . S
C292 O289 1.244 . S
C292 O290 1.240 . S
H293 C267 0.931 1_565 S
H294 C276 0.931 . S
H295 C280 0.929 . S
H296 C282 0.930 . S
Co297 N301 2.148 . S
Co297 N307 2.128 . S
Co297 N317 2.194 . S
Co297 O322 2.351 . S
Co297 O323 2.155 . S
Co297 O324 2.096 . S
C298 N301 1.301 . S
C298 N302 1.328 . S
C298 H303 0.930 . S
C299 C300 1.333 . S
C299 N301 1.317 . S
C299 H304 0.930 1_565 S
C300 C299 1.333 . S
C300 N302 1.350 . S
C300 H326 0.931 1_565 S
N301 Co297 2.148 . S
N301 C298 1.301 . S
N301 C299 1.317 . S
N302 C298 1.328 . S
N302 C300 1.350 . S
H303 C298 0.930 . S
H304 C299 0.930 1_545 S
C305 O306 1.224 . S
C305 O324 1.247 . S
O306 C305 1.224 . S
N307 Co297 2.128 . S
N307 C308 1.355 . S
N307 C310 1.311 . S
C308 N307 1.355 . S
C308 C309 1.363 . S
C308 H320 0.929 . S
C309 C308 1.363 . S
C309 N311 1.375 . S
C309 H327 0.931 . S
C310 N307 1.311 . S
C310 N311 1.347 . S
C310 H321 0.929 . S
N311 C309 1.375 . S
N311 C310 1.347 . S
C312 C315 1.365 . S
C312 N317 1.328 . S
C312 H318 0.929 . S
C313 C314 1.362 . S
C313 C316 1.378 . S
C313 H328 0.929 . S
C314 C313 1.362 . S
C314 C315 1.366 . S
C315 C312 1.365 . S
C315 C314 1.366 . S
C315 H329 0.930 . S
C316 C313 1.378 . S
C316 N317 1.315 . S
C316 H319 0.930 . S
N317 Co297 2.194 . S
N317 C312 1.328 . S
N317 C316 1.315 . S
H318 C312 0.929 . S
H319 C316 0.930 . S
H320 C308 0.929 . S
H321 C310 0.929 . S
O322 Co297 2.351 . S
O322 C325 1.244 . S
O323 Co297 2.155 . S
O323 C325 1.240 . S
O324 Co297 2.096 . S
O324 C305 1.247 . S
C325 O322 1.244 . S
C325 O323 1.240 . S
H326 C300 0.931 1_545 S
H327 C309 0.931 . S
H328 C313 0.929 . S
H329 C315 0.930 . S
Co330 N334 2.148 . S
Co330 N340 2.128 . S
Co330 N350 2.194 . S
Co330 O355 2.351 . S
Co330 O356 2.155 . S
Co330 O357 2.096 . S
C331 N334 1.301 . S
C331 N335 1.328 . S
C331 H336 0.930 . S
C332 C333 1.333 . S
C332 N334 1.317 . S
C332 H337 0.930 1_455 S
C333 C332 1.333 . S
C333 N335 1.350 . S
C333 H359 0.931 1_455 S
N334 Co330 2.148 . S
N334 C331 1.301 . S
N334 C332 1.317 . S
N335 C331 1.328 . S
N335 C333 1.350 . S
H336 C331 0.930 . S
H337 C332 0.930 1_655 S
C338 O339 1.224 . S
C338 O357 1.247 . S
O339 C338 1.224 . S
N340 Co330 2.128 . S
N340 C341 1.355 . S
N340 C343 1.311 . S
C341 N340 1.355 . S
C341 C342 1.363 . S
C341 H353 0.929 . S
C342 C341 1.363 . S
C342 N344 1.375 . S
C342 H360 0.931 . S
C343 N340 1.311 . S
C343 N344 1.347 . S
C343 H354 0.929 . S
N344 C342 1.375 . S
N344 C343 1.347 . S
C345 C348 1.365 . S
C345 N350 1.328 . S
C345 H351 0.929 . S
C346 C347 1.362 . S
C346 C349 1.378 . S
C346 H361 0.929 . S
C347 C346 1.362 . S
C347 C348 1.366 . S
C348 C345 1.365 . S
C348 C347 1.366 . S
C348 H362 0.930 . S
C349 C346 1.378 . S
C349 N350 1.315 . S
C349 H352 0.930 . S
N350 Co330 2.194 . S
N350 C345 1.328 . S
N350 C349 1.315 . S
H351 C345 0.929 . S
H352 C349 0.930 . S
H353 C341 0.929 . S
H354 C343 0.929 . S
O355 Co330 2.351 . S
O355 C358 1.244 . S
O356 Co330 2.155 . S
O356 C358 1.240 . S
O357 Co330 2.096 . S
O357 C338 1.247 . S
C358 O355 1.244 . S
C358 O356 1.240 . S
H359 C333 0.931 1_655 S
H360 C342 0.931 . S
H361 C346 0.929 . S
H362 C348 0.930 . S
Co363 N367 2.148 . S
Co363 N373 2.128 . S
Co363 N383 2.194 . S
Co363 O388 2.351 . S
Co363 O389 2.155 . S
Co363 O390 2.096 . S
C364 N367 1.301 . S
C364 N368 1.328 . S
C364 H369 0.930 . S
C365 C366 1.333 . S
C365 N367 1.317 . S
C365 H370 0.930 . S
C366 C365 1.333 . S
C366 N368 1.350 . S
C366 H392 0.931 . S
N367 Co363 2.148 . S
N367 C364 1.301 . S
N367 C365 1.317 . S
N368 C364 1.328 . S
N368 C366 1.350 . S
H369 C364 0.930 . S
H370 C365 0.930 . S
C371 O372 1.224 . S
C371 O390 1.247 . S
O372 C371 1.224 . S
N373 Co363 2.128 . S
N373 C374 1.355 . S
N373 C376 1.311 . S
C374 N373 1.355 . S
C374 C375 1.363 . S
C374 H386 0.929 . S
C375 C374 1.363 . S
C375 N377 1.375 . S
C375 H393 0.931 . S
C376 N373 1.311 . S
C376 N377 1.347 . S
C376 H387 0.929 . S
N377 C375 1.375 . S
N377 C376 1.347 . S
C378 C381 1.365 . S
C378 N383 1.328 . S
C378 H384 0.929 . S
C379 C380 1.362 . S
C379 C382 1.378 . S
C379 H394 0.929 . S
C380 C379 1.362 . S
C380 C381 1.366 . S
C381 C378 1.365 . S
C381 C380 1.366 . S
C381 H395 0.930 . S
C382 C379 1.378 . S
C382 N383 1.315 . S
C382 H385 0.930 . S
N383 Co363 2.194 . S
N383 C378 1.328 . S
N383 C382 1.315 . S
H384 C378 0.929 . S
H385 C382 0.930 . S
H386 C374 0.929 . S
H387 C376 0.929 . S
O388 Co363 2.351 . S
O388 C391 1.244 . S
O389 Co363 2.155 . S
O389 C391 1.240 . S
O390 Co363 2.096 . S
O390 C371 1.247 . S
C391 O388 1.244 . S
C391 O389 1.240 . S
H392 C366 0.931 . S
H393 C375 0.931 . S
H394 C379 0.929 . S
H395 C381 0.930 . S
Co396 N400 2.148 . S
Co396 N406 2.128 . S
Co396 N416 2.194 . S
Co396 O421 2.351 . S
Co396 O422 2.155 . S
Co396 O423 2.096 . S
C397 N400 1.301 . S
C397 N401 1.328 . S
C397 H402 0.930 . S
C398 C399 1.333 . S
C398 N400 1.317 . S
C398 H403 0.930 . S
C399 C398 1.333 . S
C399 N401 1.350 . S
C399 H425 0.931 . S
N400 Co396 2.148 . S
N400 C397 1.301 . S
N400 C398 1.317 . S
N401 C397 1.328 . S
N401 C399 1.350 . S
H402 C397 0.930 . S
H403 C398 0.930 . S
C404 O405 1.224 . S
C404 O423 1.247 . S
O405 C404 1.224 . S
N406 Co396 2.128 . S
N406 C407 1.355 . S
N406 C409 1.311 . S
C407 N406 1.355 . S
C407 C408 1.363 . S
C407 H419 0.929 . S
C408 C407 1.363 . S
C408 N410 1.375 . S
C408 H426 0.931 . S
C409 N406 1.311 . S
C409 N410 1.347 . S
C409 H420 0.929 . S
N410 C408 1.375 . S
N410 C409 1.347 . S
C411 C414 1.365 . S
C411 N416 1.328 . S
C411 H417 0.929 . S
C412 C413 1.362 . S
C412 C415 1.378 . S
C412 H427 0.929 . S
C413 C412 1.362 . S
C413 C414 1.366 . S
C414 C411 1.365 . S
C414 C413 1.366 . S
C414 H428 0.930 . S
C415 C412 1.378 . S
C415 N416 1.315 . S
C415 H418 0.930 . S
N416 Co396 2.194 . S
N416 C411 1.328 . S
N416 C415 1.315 . S
H417 C411 0.929 . S
H418 C415 0.930 . S
H419 C407 0.929 . S
H420 C409 0.929 . S
O421 Co396 2.351 . S
O421 C424 1.244 . S
O422 Co396 2.155 . S
O422 C424 1.240 . S
O423 Co396 2.096 . S
O423 C404 1.247 . S
C424 O421 1.244 . S
C424 O422 1.240 . S
H425 C399 0.931 . S
H426 C408 0.931 . S
H427 C412 0.929 . S
H428 C414 0.930 . S
Co429 N433 2.148 . S
Co429 N439 2.128 . S
Co429 N449 2.194 . S
Co429 O454 2.351 . S
Co429 O455 2.155 . S
Co429 O456 2.096 . S
C430 N433 1.301 . S
C430 N434 1.328 . S
C430 H435 0.930 . S
C431 C432 1.333 . S
C431 N433 1.317 . S
C431 H436 0.930 . S
C432 C431 1.333 . S
C432 N434 1.350 . S
C432 H458 0.931 . S
N433 Co429 2.148 . S
N433 C430 1.301 . S
N433 C431 1.317 . S
N434 C430 1.328 . S
N434 C432 1.350 . S
H435 C430 0.930 . S
H436 C431 0.930 . S
C437 O438 1.224 . S
C437 O456 1.247 . S
O438 C437 1.224 . S
N439 Co429 2.128 . S
N439 C440 1.355 . S
N439 C442 1.311 . S
C440 N439 1.355 . S
C440 C441 1.363 . S
C440 H452 0.929 . S
C441 C440 1.363 . S
C441 N443 1.375 . S
C441 H459 0.931 . S
C442 N439 1.311 . S
C442 N443 1.347 . S
C442 H453 0.929 . S
N443 C441 1.375 . S
N443 C442 1.347 . S
C444 C447 1.365 . S
C444 N449 1.328 . S
C444 H450 0.929 . S
C445 C446 1.362 . S
C445 C448 1.378 . S
C445 H460 0.929 . S
C446 C445 1.362 . S
C446 C447 1.366 . S
C447 C444 1.365 . S
C447 C446 1.366 . S
C447 H461 0.930 . S
C448 C445 1.378 . S
C448 N449 1.315 . S
C448 H451 0.930 . S
N449 Co429 2.194 . S
N449 C444 1.328 . S
N449 C448 1.315 . S
H450 C444 0.929 . S
H451 C448 0.930 . S
H452 C440 0.929 . S
H453 C442 0.929 . S
O454 Co429 2.351 . S
O454 C457 1.244 . S
O455 Co429 2.155 . S
O455 C457 1.240 . S
O456 Co429 2.096 . S
O456 C437 1.247 . S
C457 O454 1.244 . S
C457 O455 1.240 . S
H458 C432 0.931 . S
H459 C441 0.931 . S
H460 C445 0.929 . S
H461 C447 0.930 . S
Co462 N466 2.148 . S
Co462 N472 2.128 . S
Co462 N482 2.194 . S
Co462 O487 2.351 . S
Co462 O488 2.155 . S
Co462 O489 2.096 . S
C463 N466 1.301 . S
C463 N467 1.328 . S
C463 H468 0.930 . S
C464 C465 1.333 . S
C464 N466 1.317 . S
C464 H469 0.930 . S
C465 C464 1.333 . S
C465 N467 1.350 . S
C465 H491 0.931 . S
N466 Co462 2.148 . S
N466 C463 1.301 . S
N466 C464 1.317 . S
N467 C463 1.328 . S
N467 C465 1.350 . S
H468 C463 0.930 . S
H469 C464 0.930 . S
C470 O471 1.224 . S
C470 O489 1.247 . S
O471 C470 1.224 . S
N472 Co462 2.128 . S
N472 C473 1.355 . S
N472 C475 1.311 . S
C473 N472 1.355 . S
C473 C474 1.363 . S
C473 H485 0.929 . S
C474 C473 1.363 . S
C474 N476 1.375 . S
C474 H492 0.931 . S
C475 N472 1.311 . S
C475 N476 1.347 . S
C475 H486 0.929 . S
N476 C474 1.375 . S
N476 C475 1.347 . S
C477 C480 1.365 . S
C477 N482 1.328 . S
C477 H483 0.929 . S
C478 C479 1.362 . S
C478 C481 1.378 . S
C478 H493 0.929 . S
C479 C478 1.362 . S
C479 C480 1.366 . S
C480 C477 1.365 . S
C480 C479 1.366 . S
C480 H494 0.930 . S
C481 C478 1.378 . S
C481 N482 1.315 . S
C481 H484 0.930 . S
N482 Co462 2.194 . S
N482 C477 1.328 . S
N482 C481 1.315 . S
H483 C477 0.929 . S
H484 C481 0.930 . S
H485 C473 0.929 . S
H486 C475 0.929 . S
O487 Co462 2.351 . S
O487 C490 1.244 . S
O488 Co462 2.155 . S
O488 C490 1.240 . S
O489 Co462 2.096 . S
O489 C470 1.247 . S
C490 O487 1.244 . S
C490 O488 1.240 . S
H491 C465 0.931 . S
H492 C474 0.931 . S
H493 C478 0.929 . S
H494 C480 0.930 . S
Co495 N499 2.148 . S
Co495 N505 2.128 . S
Co495 N515 2.194 . S
Co495 O520 2.351 . S
Co495 O521 2.155 . S
Co495 O522 2.096 . S
C496 N499 1.301 . S
C496 N500 1.328 . S
C496 H501 0.930 1_655 S
C497 C498 1.333 . S
C497 N499 1.317 . S
C497 H502 0.930 . S
C498 C497 1.333 . S
C498 N500 1.350 . S
C498 H524 0.931 . S
N499 Co495 2.148 . S
N499 C496 1.301 . S
N499 C497 1.317 . S
N500 C496 1.328 . S
N500 C498 1.350 . S
H501 C496 0.930 1_455 S
H502 C497 0.930 . S
C503 O504 1.224 . S
C503 O522 1.247 . S
O504 C503 1.224 . S
N505 Co495 2.128 . S
N505 C506 1.355 . S
N505 C508 1.311 . S
C506 N505 1.355 . S
C506 C507 1.363 . S
C506 H518 0.929 . S
C507 C506 1.363 . S
C507 N509 1.375 . S
C507 H525 0.931 . S
C508 N505 1.311 . S
C508 N509 1.347 . S
C508 H519 0.929 . S
N509 C507 1.375 . S
N509 C508 1.347 . S
C510 C513 1.365 . S
C510 N515 1.328 . S
C510 H516 0.929 . S
C511 C512 1.362 . S
C511 C514 1.378 . S
C511 H526 0.929 . S
C512 C511 1.362 . S
C512 C513 1.366 . S
C513 C510 1.365 . S
C513 C512 1.366 . S
C513 H527 0.930 1_655 S
C514 C511 1.378 . S
C514 N515 1.315 . S
C514 H517 0.930 . S
N515 Co495 2.194 . S
N515 C510 1.328 . S
N515 C514 1.315 . S
H516 C510 0.929 . S
H517 C514 0.930 . S
H518 C506 0.929 . S
H519 C508 0.929 . S
O520 Co495 2.351 . S
O520 C523 1.244 . S
O521 Co495 2.155 . S
O521 C523 1.240 . S
O522 Co495 2.096 . S
O522 C503 1.247 . S
C523 O520 1.244 . S
C523 O521 1.240 . S
H524 C498 0.931 . S
H525 C507 0.931 . S
H526 C511 0.929 . S
H527 C513 0.930 1_455 S
Co528 N532 2.148 . S
Co528 N538 2.128 . S
Co528 N548 2.194 . S
Co528 O553 2.351 . S
Co528 O554 2.155 . S
Co528 O555 2.096 . S
C529 N532 1.301 . S
C529 N533 1.328 . S
C529 H534 0.930 . S
C530 C531 1.333 . S
C530 N532 1.317 . S
C530 H535 0.930 . S
C531 C530 1.333 . S
C531 N533 1.350 . S
C531 H557 0.931 . S
N532 Co528 2.148 . S
N532 C529 1.301 . S
N532 C530 1.317 . S
N533 C529 1.328 . S
N533 C531 1.350 . S
H534 C529 0.930 . S
H535 C530 0.930 . S
C536 O537 1.224 . S
C536 O555 1.247 . S
O537 C536 1.224 . S
N538 Co528 2.128 . S
N538 C539 1.355 . S
N538 C541 1.311 . S
C539 N538 1.355 . S
C539 C540 1.363 . S
C539 H551 0.929 . S
C540 C539 1.363 . S
C540 N542 1.375 . S
C540 H558 0.931 . S
C541 N538 1.311 . S
C541 N542 1.347 . S
C541 H552 0.929 . S
N542 C540 1.375 . S
N542 C541 1.347 . S
C543 C546 1.365 . S
C543 N548 1.328 . S
C543 H549 0.929 . S
C544 C545 1.362 . S
C544 C547 1.378 . S
C544 H559 0.929 . S
C545 C544 1.362 . S
C545 C546 1.366 . S
C546 C543 1.365 . S
C546 C545 1.366 . S
C546 H560 0.930 . S
C547 C544 1.378 . S
C547 N548 1.315 . S
C547 H550 0.930 . S
N548 Co528 2.194 . S
N548 C543 1.328 . S
N548 C547 1.315 . S
H549 C543 0.929 . S
H550 C547 0.930 . S
H551 C539 0.929 . S
H552 C541 0.929 . S
O553 Co528 2.351 . S
O553 C556 1.244 . S
O554 Co528 2.155 . S
O554 C556 1.240 . S
O555 Co528 2.096 . S
O555 C536 1.247 . S
C556 O553 1.244 . S
C556 O554 1.240 . S
H557 C531 0.931 . S
H558 C540 0.931 . S
H559 C544 0.929 . S
H560 C546 0.930 . S
Co561 N565 2.148 . S
Co561 N571 2.128 . S
Co561 N581 2.194 . S
Co561 O586 2.351 . S
Co561 O587 2.155 . S
Co561 O588 2.096 . S
C562 N565 1.301 . S
C562 N566 1.328 . S
C562 H567 0.930 1_545 S
C563 C564 1.333 . S
C563 N565 1.317 . S
C563 H568 0.930 . S
C564 C563 1.333 . S
C564 N566 1.350 . S
C564 H590 0.931 . S
N565 Co561 2.148 . S
N565 C562 1.301 . S
N565 C563 1.317 . S
N566 C562 1.328 . S
N566 C564 1.350 . S
H567 C562 0.930 1_565 S
H568 C563 0.930 . S
C569 O570 1.224 . S
C569 O588 1.247 . S
O570 C569 1.224 . S
N571 Co561 2.128 . S
N571 C572 1.355 . S
N571 C574 1.311 . S
C572 N571 1.355 . S
C572 C573 1.363 . S
C572 H584 0.929 . S
C573 C572 1.363 . S
C573 N575 1.375 . S
C573 H591 0.931 . S
C574 N571 1.311 . S
C574 N575 1.347 . S
C574 H585 0.929 . S
N575 C573 1.375 . S
N575 C574 1.347 . S
C576 C579 1.365 . S
C576 N581 1.328 . S
C576 H582 0.929 . S
C577 C578 1.362 . S
C577 C580 1.378 . S
C577 H592 0.929 . S
C578 C577 1.362 . S
C578 C579 1.366 . S
C579 C576 1.365 . S
C579 C578 1.366 . S
C579 H593 0.930 1_545 S
C580 C577 1.378 . S
C580 N581 1.315 . S
C580 H583 0.930 . S
N581 Co561 2.194 . S
N581 C576 1.328 . S
N581 C580 1.315 . S
H582 C576 0.929 . S
H583 C580 0.930 . S
H584 C572 0.929 . S
H585 C574 0.929 . S
O586 Co561 2.351 . S
O586 C589 1.244 . S
O587 Co561 2.155 . S
O587 C589 1.240 . S
O588 Co561 2.096 . S
O588 C569 1.247 . S
C589 O586 1.244 . S
C589 O587 1.240 . S
H590 C564 0.931 . S
H591 C573 0.931 . S
H592 C577 0.929 . S
H593 C579 0.930 1_565 S
Co594 N598 2.148 . S
Co594 N604 2.128 . S
Co594 N614 2.194 . S
Co594 O619 2.351 . S
Co594 O620 2.155 . S
Co594 O621 2.096 . S
C595 N598 1.301 . S
C595 N599 1.328 . S
C595 H600 0.930 1_545 S
C596 C597 1.333 . S
C596 N598 1.317 . S
C596 H601 0.930 . S
C597 C596 1.333 . S
C597 N599 1.350 . S
C597 H623 0.931 . S
N598 Co594 2.148 . S
N598 C595 1.301 . S
N598 C596 1.317 . S
N599 C595 1.328 . S
N599 C597 1.350 . S
H600 C595 0.930 1_565 S
H601 C596 0.930 . S
C602 O603 1.224 . S
C602 O621 1.247 . S
O603 C602 1.224 . S
N604 Co594 2.128 . S
N604 C605 1.355 . S
N604 C607 1.311 . S
C605 N604 1.355 . S
C605 C606 1.363 . S
C605 H617 0.929 . S
C606 C605 1.363 . S
C606 N608 1.375 . S
C606 H624 0.931 . S
C607 N604 1.311 . S
C607 N608 1.347 . S
C607 H618 0.929 . S
N608 C606 1.375 . S
N608 C607 1.347 . S
C609 C612 1.365 . S
C609 N614 1.328 . S
C609 H615 0.929 . S
C610 C611 1.362 . S
C610 C613 1.378 . S
C610 H625 0.929 . S
C611 C610 1.362 . S
C611 C612 1.366 . S
C612 C609 1.365 . S
C612 C611 1.366 . S
C612 H626 0.930 1_545 S
C613 C610 1.378 . S
C613 N614 1.315 . S
C613 H616 0.930 . S
N614 Co594 2.194 . S
N614 C609 1.328 . S
N614 C613 1.315 . S
H615 C609 0.929 . S
H616 C613 0.930 . S
H617 C605 0.929 . S
H618 C607 0.929 . S
O619 Co594 2.351 . S
O619 C622 1.244 . S
O620 Co594 2.155 . S
O620 C622 1.240 . S
O621 Co594 2.096 . S
O621 C602 1.247 . S
C622 O619 1.244 . S
C622 O620 1.240 . S
H623 C597 0.931 . S
H624 C606 0.931 . S
H625 C610 0.929 . S
H626 C612 0.930 1_565 S
Co627 N631 2.148 . S
Co627 N637 2.128 . S
Co627 N647 2.194 . S
Co627 O652 2.351 . S
Co627 O653 2.155 . S
Co627 O654 2.096 . S
C628 N631 1.301 . S
C628 N632 1.328 . S
C628 H633 0.930 1_655 S
C629 C630 1.333 . S
C629 N631 1.317 . S
C629 H634 0.930 . S
C630 C629 1.333 . S
C630 N632 1.350 . S
C630 H656 0.931 . S
N631 Co627 2.148 . S
N631 C628 1.301 . S
N631 C629 1.317 . S
N632 C628 1.328 . S
N632 C630 1.350 . S
H633 C628 0.930 1_455 S
H634 C629 0.930 . S
C635 O636 1.224 . S
C635 O654 1.247 . S
O636 C635 1.224 . S
N637 Co627 2.128 . S
N637 C638 1.355 . S
N637 C640 1.311 . S
C638 N637 1.355 . S
C638 C639 1.363 . S
C638 H650 0.929 . S
C639 C638 1.363 . S
C639 N641 1.375 . S
C639 H657 0.931 . S
C640 N637 1.311 . S
C640 N641 1.347 . S
C640 H651 0.929 . S
N641 C639 1.375 . S
N641 C640 1.347 . S
C642 C645 1.365 . S
C642 N647 1.328 . S
C642 H648 0.929 . S
C643 C644 1.362 . S
C643 C646 1.378 . S
C643 H658 0.929 . S
C644 C643 1.362 . S
C644 C645 1.366 . S
C645 C642 1.365 . S
C645 C644 1.366 . S
C645 H659 0.930 1_655 S
C646 C643 1.378 . S
C646 N647 1.315 . S
C646 H649 0.930 . S
N647 Co627 2.194 . S
N647 C642 1.328 . S
N647 C646 1.315 . S
H648 C642 0.929 . S
H649 C646 0.930 . S
H650 C638 0.929 . S
H651 C640 0.929 . S
O652 Co627 2.351 . S
O652 C655 1.244 . S
O653 Co627 2.155 . S
O653 C655 1.240 . S
O654 Co627 2.096 . S
O654 C635 1.247 . S
C655 O652 1.244 . S
C655 O653 1.240 . S
H656 C630 0.931 . S
H657 C639 0.931 . S
H658 C643 0.929 . S
H659 C645 0.930 1_455 S
Co660 N664 2.148 . S
Co660 N670 2.128 . S
Co660 N680 2.194 . S
Co660 O685 2.351 . S
Co660 O686 2.155 . S
Co660 O687 2.096 . S
C661 N664 1.301 . S
C661 N665 1.328 . S
C661 H666 0.930 . S
C662 C663 1.333 . S
C662 N664 1.317 . S
C662 H667 0.930 . S
C663 C662 1.333 . S
C663 N665 1.350 . S
C663 H689 0.931 . S
N664 Co660 2.148 . S
N664 C661 1.301 . S
N664 C662 1.317 . S
N665 C661 1.328 . S
N665 C663 1.350 . S
H666 C661 0.930 . S
H667 C662 0.930 . S
C668 O669 1.224 . S
C668 O687 1.247 . S
O669 C668 1.224 . S
N670 Co660 2.128 . S
N670 C671 1.355 . S
N670 C673 1.311 . S
C671 N670 1.355 . S
C671 C672 1.363 . S
C671 H683 0.929 . S
C672 C671 1.363 . S
C672 N674 1.375 . S
C672 H690 0.931 . S
C673 N670 1.311 . S
C673 N674 1.347 . S
C673 H684 0.929 . S
N674 C672 1.375 . S
N674 C673 1.347 . S
C675 C678 1.365 . S
C675 N680 1.328 . S
C675 H681 0.929 . S
C676 C677 1.362 . S
C676 C679 1.378 . S
C676 H691 0.929 . S
C677 C676 1.362 . S
C677 C678 1.366 . S
C678 C675 1.365 . S
C678 C677 1.366 . S
C678 H692 0.930 . S
C679 C676 1.378 . S
C679 N680 1.315 . S
C679 H682 0.930 . S
N680 Co660 2.194 . S
N680 C675 1.328 . S
N680 C679 1.315 . S
H681 C675 0.929 . S
H682 C679 0.930 . S
H683 C671 0.929 . S
H684 C673 0.929 . S
O685 Co660 2.351 . S
O685 C688 1.244 . S
O686 Co660 2.155 . S
O686 C688 1.240 . S
O687 Co660 2.096 . S
O687 C668 1.247 . S
C688 O685 1.244 . S
C688 O686 1.240 . S
H689 C663 0.931 . S
H690 C672 0.931 . S
H691 C676 0.929 . S
H692 C678 0.930 . S
Co693 N697 2.148 . S
Co693 N703 2.128 . S
Co693 N713 2.194 . S
Co693 O718 2.351 . S
Co693 O719 2.155 . S
Co693 O720 2.096 . S
C694 N697 1.301 . S
C694 N698 1.328 . S
C694 H699 0.930 . S
C695 C696 1.333 . S
C695 N697 1.317 . S
C695 H700 0.930 . S
C696 C695 1.333 . S
C696 N698 1.350 . S
C696 H722 0.931 . S
N697 Co693 2.148 . S
N697 C694 1.301 . S
N697 C695 1.317 . S
N698 C694 1.328 . S
N698 C696 1.350 . S
H699 C694 0.930 . S
H700 C695 0.930 . S
C701 O702 1.224 . S
C701 O720 1.247 . S
O702 C701 1.224 . S
N703 Co693 2.128 . S
N703 C704 1.355 . S
N703 C706 1.311 . S
C704 N703 1.355 . S
C704 C705 1.363 . S
C704 H716 0.929 . S
C705 C704 1.363 . S
C705 N707 1.375 . S
C705 H723 0.931 . S
C706 N703 1.311 . S
C706 N707 1.347 . S
C706 H717 0.929 . S
N707 C705 1.375 . S
N707 C706 1.347 . S
C708 C711 1.365 . S
C708 N713 1.328 . S
C708 H714 0.929 . S
C709 C710 1.362 . S
C709 C712 1.378 . S
C709 H724 0.929 . S
C710 C709 1.362 . S
C710 C711 1.366 . S
C711 C708 1.365 . S
C711 C710 1.366 . S
C711 H725 0.930 . S
C712 C709 1.378 . S
C712 N713 1.315 . S
C712 H715 0.930 . S
N713 Co693 2.194 . S
N713 C708 1.328 . S
N713 C712 1.315 . S
H714 C708 0.929 . S
H715 C712 0.930 . S
H716 C704 0.929 . S
H717 C706 0.929 . S
O718 Co693 2.351 . S
O718 C721 1.244 . S
O719 Co693 2.155 . S
O719 C721 1.240 . S
O720 Co693 2.096 . S
O720 C701 1.247 . S
C721 O718 1.244 . S
C721 O719 1.240 . S
H722 C696 0.931 . S
H723 C705 0.931 . S
H724 C709 0.929 . S
H725 C711 0.930 . S
Co726 N730 2.148 . S
Co726 N736 2.128 . S
Co726 N746 2.194 . S
Co726 O751 2.351 . S
Co726 O752 2.155 . S
Co726 O753 2.096 . S
C727 N730 1.301 . S
C727 N731 1.328 . S
C727 H732 0.930 . S
C728 C729 1.333 . S
C728 N730 1.317 . S
C728 H733 0.930 . S
C729 C728 1.333 . S
C729 N731 1.350 . S
C729 H755 0.931 . S
N730 Co726 2.148 . S
N730 C727 1.301 . S
N730 C728 1.317 . S
N731 C727 1.328 . S
N731 C729 1.350 . S
H732 C727 0.930 . S
H733 C728 0.930 . S
C734 O735 1.224 . S
C734 O753 1.247 . S
O735 C734 1.224 . S
N736 Co726 2.128 . S
N736 C737 1.355 . S
N736 C739 1.311 . S
C737 N736 1.355 . S
C737 C738 1.363 . S
C737 H749 0.929 . S
C738 C737 1.363 . S
C738 N740 1.375 . S
C738 H756 0.931 . S
C739 N736 1.311 . S
C739 N740 1.347 . S
C739 H750 0.929 . S
N740 C738 1.375 . S
N740 C739 1.347 . S
C741 C744 1.365 . S
C741 N746 1.328 . S
C741 H747 0.929 . S
C742 C743 1.362 . S
C742 C745 1.378 . S
C742 H757 0.929 . S
C743 C742 1.362 . S
C743 C744 1.366 . S
C744 C741 1.365 . S
C744 C743 1.366 . S
C744 H758 0.930 . S
C745 C742 1.378 . S
C745 N746 1.315 . S
C745 H748 0.930 . S
N746 Co726 2.194 . S
N746 C741 1.328 . S
N746 C745 1.315 . S
H747 C741 0.929 . S
H748 C745 0.930 . S
H749 C737 0.929 . S
H750 C739 0.929 . S
O751 Co726 2.351 . S
O751 C754 1.244 . S
O752 Co726 2.155 . S
O752 C754 1.240 . S
O753 Co726 2.096 . S
O753 C734 1.247 . S
C754 O751 1.244 . S
C754 O752 1.240 . S
H755 C729 0.931 . S
H756 C738 0.931 . S
H757 C742 0.929 . S
H758 C744 0.930 . S
Co759 N763 2.148 . S
Co759 N769 2.128 . S
Co759 N779 2.194 . S
Co759 O784 2.351 . S
Co759 O785 2.155 . S
Co759 O786 2.096 . S
C760 N763 1.301 . S
C760 N764 1.328 . S
C760 H765 0.930 . S
C761 C762 1.333 . S
C761 N763 1.317 . S
C761 H766 0.930 . S
C762 C761 1.333 . S
C762 N764 1.350 . S
C762 H788 0.931 . S
N763 Co759 2.148 . S
N763 C760 1.301 . S
N763 C761 1.317 . S
N764 C760 1.328 . S
N764 C762 1.350 . S
H765 C760 0.930 . S
H766 C761 0.930 . S
C767 O768 1.224 . S
C767 O786 1.247 . S
O768 C767 1.224 . S
N769 Co759 2.128 . S
N769 C770 1.355 . S
N769 C772 1.311 . S
C770 N769 1.355 . S
C770 C771 1.363 . S
C770 H782 0.929 . S
C771 C770 1.363 . S
C771 N773 1.375 . S
C771 H789 0.931 . S
C772 N769 1.311 . S
C772 N773 1.347 . S
C772 H783 0.929 . S
N773 C771 1.375 . S
N773 C772 1.347 . S
C774 C777 1.365 . S
C774 N779 1.328 . S
C774 H780 0.929 . S
C775 C776 1.362 . S
C775 C778 1.378 . S
C775 H790 0.929 . S
C776 C775 1.362 . S
C776 C777 1.366 . S
C777 C774 1.365 . S
C777 C776 1.366 . S
C777 H791 0.930 . S
C778 C775 1.378 . S
C778 N779 1.315 . S
C778 H781 0.930 . S
N779 Co759 2.194 . S
N779 C774 1.328 . S
N779 C778 1.315 . S
H780 C774 0.929 . S
H781 C778 0.930 . S
H782 C770 0.929 . S
H783 C772 0.929 . S
O784 Co759 2.351 . S
O784 C787 1.244 . S
O785 Co759 2.155 . S
O785 C787 1.240 . S
O786 Co759 2.096 . S
O786 C767 1.247 . S
C787 O784 1.244 . S
C787 O785 1.240 . S
H788 C762 0.931 . S
H789 C771 0.931 . S
H790 C775 0.929 . S
H791 C777 0.930 . S
Co792 N796 2.148 . S
Co792 N802 2.128 . S
Co792 N812 2.194 . S
Co792 O817 2.351 . S
Co792 O818 2.155 . S
Co792 O819 2.096 . S
C793 N796 1.301 . S
C793 N797 1.328 . S
C793 H798 0.930 1_565 S
C794 C795 1.333 . S
C794 N796 1.317 . S
C794 H799 0.930 . S
C795 C794 1.333 . S
C795 N797 1.350 . S
C795 H821 0.931 . S
N796 Co792 2.148 . S
N796 C793 1.301 . S
N796 C794 1.317 . S
N797 C793 1.328 . S
N797 C795 1.350 . S
H798 C793 0.930 1_545 S
H799 C794 0.930 . S
C800 O801 1.224 . S
C800 O819 1.247 . S
O801 C800 1.224 . S
N802 Co792 2.128 . S
N802 C803 1.355 . S
N802 C805 1.311 . S
C803 N802 1.355 . S
C803 C804 1.363 . S
C803 H815 0.929 . S
C804 C803 1.363 . S
C804 N806 1.375 . S
C804 H822 0.931 . S
C805 N802 1.311 . S
C805 N806 1.347 . S
C805 H816 0.929 . S
N806 C804 1.375 . S
N806 C805 1.347 . S
C807 C810 1.365 . S
C807 N812 1.328 . S
C807 H813 0.929 . S
C808 C809 1.362 . S
C808 C811 1.378 . S
C808 H823 0.929 . S
C809 C808 1.362 . S
C809 C810 1.366 . S
C810 C807 1.365 . S
C810 C809 1.366 . S
C810 H824 0.930 1_565 S
C811 C808 1.378 . S
C811 N812 1.315 . S
C811 H814 0.930 . S
N812 Co792 2.194 . S
N812 C807 1.328 . S
N812 C811 1.315 . S
H813 C807 0.929 . S
H814 C811 0.930 . S
H815 C803 0.929 . S
H816 C805 0.929 . S
O817 Co792 2.351 . S
O817 C820 1.244 . S
O818 Co792 2.155 . S
O818 C820 1.240 . S
O819 Co792 2.096 . S
O819 C800 1.247 . S
C820 O817 1.244 . S
C820 O818 1.240 . S
H821 C795 0.931 . S
H822 C804 0.931 . S
H823 C808 0.929 . S
H824 C810 0.930 1_545 S
Co825 N829 2.148 . S
Co825 N835 2.128 . S
Co825 N845 2.194 . S
Co825 O850 2.351 . S
Co825 O851 2.155 . S
Co825 O852 2.096 . S
C826 N829 1.301 . S
C826 N830 1.328 . S
C826 H831 0.930 1_455 S
C827 C828 1.333 . S
C827 N829 1.317 . S
C827 H832 0.930 . S
C828 C827 1.333 . S
C828 N830 1.350 . S
C828 H854 0.931 . S
N829 Co825 2.148 . S
N829 C826 1.301 . S
N829 C827 1.317 . S
N830 C826 1.328 . S
N830 C828 1.350 . S
H831 C826 0.930 1_655 S
H832 C827 0.930 . S
C833 O834 1.224 . S
C833 O852 1.247 . S
O834 C833 1.224 . S
N835 Co825 2.128 . S
N835 C836 1.355 . S
N835 C838 1.311 . S
C836 N835 1.355 . S
C836 C837 1.363 . S
C836 H848 0.929 . S
C837 C836 1.363 . S
C837 N839 1.375 . S
C837 H855 0.931 . S
C838 N835 1.311 . S
C838 N839 1.347 . S
C838 H849 0.929 . S
N839 C837 1.375 . S
N839 C838 1.347 . S
C840 C843 1.365 . S
C840 N845 1.328 . S
C840 H846 0.929 . S
C841 C842 1.362 . S
C841 C844 1.378 . S
C841 H856 0.929 . S
C842 C841 1.362 . S
C842 C843 1.366 . S
C843 C840 1.365 . S
C843 C842 1.366 . S
C843 H857 0.930 1_455 S
C844 C841 1.378 . S
C844 N845 1.315 . S
C844 H847 0.930 . S
N845 Co825 2.194 . S
N845 C840 1.328 . S
N845 C844 1.315 . S
H846 C840 0.929 . S
H847 C844 0.930 . S
H848 C836 0.929 . S
H849 C838 0.929 . S
O850 Co825 2.351 . S
O850 C853 1.244 . S
O851 Co825 2.155 . S
O851 C853 1.240 . S
O852 Co825 2.096 . S
O852 C833 1.247 . S
C853 O850 1.244 . S
C853 O851 1.240 . S
H854 C828 0.931 . S
H855 C837 0.931 . S
H856 C841 0.929 . S
H857 C843 0.930 1_655 S
Co858 N862 2.148 . S
Co858 N868 2.128 . S
Co858 N878 2.194 . S
Co858 O883 2.351 . S
Co858 O884 2.155 . S
Co858 O885 2.096 . S
C859 N862 1.301 . S
C859 N863 1.328 . S
C859 H864 0.930 . S
C860 C861 1.333 . S
C860 N862 1.317 . S
C860 H865 0.930 . S
C861 C860 1.333 . S
C861 N863 1.350 . S
C861 H887 0.931 . S
N862 Co858 2.148 . S
N862 C859 1.301 . S
N862 C860 1.317 . S
N863 C859 1.328 . S
N863 C861 1.350 . S
H864 C859 0.930 . S
H865 C860 0.930 . S
C866 O867 1.224 . S
C866 O885 1.247 . S
O867 C866 1.224 . S
N868 Co858 2.128 . S
N868 C869 1.355 . S
N868 C871 1.311 . S
C869 N868 1.355 . S
C869 C870 1.363 . S
C869 H881 0.929 . S
C870 C869 1.363 . S
C870 N872 1.375 . S
C870 H888 0.931 . S
C871 N868 1.311 . S
C871 N872 1.347 . S
C871 H882 0.929 . S
N872 C870 1.375 . S
N872 C871 1.347 . S
C873 C876 1.365 . S
C873 N878 1.328 . S
C873 H879 0.929 . S
C874 C875 1.362 . S
C874 C877 1.378 . S
C874 H889 0.929 . S
C875 C874 1.362 . S
C875 C876 1.366 . S
C876 C873 1.365 . S
C876 C875 1.366 . S
C876 H890 0.930 . S
C877 C874 1.378 . S
C877 N878 1.315 . S
C877 H880 0.930 . S
N878 Co858 2.194 . S
N878 C873 1.328 . S
N878 C877 1.315 . S
H879 C873 0.929 . S
H880 C877 0.930 . S
H881 C869 0.929 . S
H882 C871 0.929 . S
O883 Co858 2.351 . S
O883 C886 1.244 . S
O884 Co858 2.155 . S
O884 C886 1.240 . S
O885 Co858 2.096 . S
O885 C866 1.247 . S
C886 O883 1.244 . S
C886 O884 1.240 . S
H887 C861 0.931 . S
H888 C870 0.931 . S
H889 C874 0.929 . S
H890 C876 0.930 . S
Co891 N895 2.148 . S
Co891 N901 2.128 . S
Co891 N911 2.194 . S
Co891 O916 2.351 . S
Co891 O917 2.155 . S
Co891 O918 2.096 . S
C892 N895 1.301 . S
C892 N896 1.328 . S
C892 H897 0.930 . S
C893 C894 1.333 . S
C893 N895 1.317 . S
C893 H898 0.930 . S
C894 C893 1.333 . S
C894 N896 1.350 . S
C894 H920 0.931 . S
N895 Co891 2.148 . S
N895 C892 1.301 . S
N895 C893 1.317 . S
N896 C892 1.328 . S
N896 C894 1.350 . S
H897 C892 0.930 . S
H898 C893 0.930 . S
C899 O900 1.224 . S
C899 O918 1.247 . S
O900 C899 1.224 . S
N901 Co891 2.128 . S
N901 C902 1.355 . S
N901 C904 1.311 . S
C902 N901 1.355 . S
C902 C903 1.363 . S
C902 H914 0.929 . S
C903 C902 1.363 . S
C903 N905 1.375 . S
C903 H921 0.931 . S
C904 N901 1.311 . S
C904 N905 1.347 . S
C904 H915 0.929 . S
N905 C903 1.375 . S
N905 C904 1.347 . S
C906 C909 1.365 . S
C906 N911 1.328 . S
C906 H912 0.929 . S
C907 C908 1.362 . S
C907 C910 1.378 . S
C907 H922 0.929 . S
C908 C907 1.362 . S
C908 C909 1.366 . S
C909 C906 1.365 . S
C909 C908 1.366 . S
C909 H923 0.930 . S
C910 C907 1.378 . S
C910 N911 1.315 . S
C910 H913 0.930 . S
N911 Co891 2.194 . S
N911 C906 1.328 . S
N911 C910 1.315 . S
H912 C906 0.929 . S
H913 C910 0.930 . S
H914 C902 0.929 . S
H915 C904 0.929 . S
O916 Co891 2.351 . S
O916 C919 1.244 . S
O917 Co891 2.155 . S
O917 C919 1.240 . S
O918 Co891 2.096 . S
O918 C899 1.247 . S
C919 O916 1.244 . S
C919 O917 1.240 . S
H920 C894 0.931 . S
H921 C903 0.931 . S
H922 C907 0.929 . S
H923 C909 0.930 . S
Co924 N928 2.148 . S
Co924 N934 2.128 . S
Co924 N944 2.194 . S
Co924 O949 2.351 . S
Co924 O950 2.155 . S
Co924 O951 2.096 . S
C925 N928 1.301 . S
C925 N929 1.328 . S
C925 H930 0.930 . S
C926 C927 1.333 . S
C926 N928 1.317 . S
C926 H931 0.930 . S
C927 C926 1.333 . S
C927 N929 1.350 . S
C927 H953 0.931 . S
N928 Co924 2.148 . S
N928 C925 1.301 . S
N928 C926 1.317 . S
N929 C925 1.328 . S
N929 C927 1.350 . S
H930 C925 0.930 . S
H931 C926 0.930 . S
C932 O933 1.224 . S
C932 O951 1.247 . S
O933 C932 1.224 . S
N934 Co924 2.128 . S
N934 C935 1.355 . S
N934 C937 1.311 . S
C935 N934 1.355 . S
C935 C936 1.363 . S
C935 H947 0.929 . S
C936 C935 1.363 . S
C936 N938 1.375 . S
C936 H954 0.931 . S
C937 N934 1.311 . S
C937 N938 1.347 . S
C937 H948 0.929 . S
N938 C936 1.375 . S
N938 C937 1.347 . S
C939 C942 1.365 . S
C939 N944 1.328 . S
C939 H945 0.929 . S
C940 C941 1.362 . S
C940 C943 1.378 . S
C940 H955 0.929 . S
C941 C940 1.362 . S
C941 C942 1.366 . S
C942 C939 1.365 . S
C942 C941 1.366 . S
C942 H956 0.930 . S
C943 C940 1.378 . S
C943 N944 1.315 . S
C943 H946 0.930 . S
N944 Co924 2.194 . S
N944 C939 1.328 . S
N944 C943 1.315 . S
H945 C939 0.929 . S
H946 C943 0.930 . S
H947 C935 0.929 . S
H948 C937 0.929 . S
O949 Co924 2.351 . S
O949 C952 1.244 . S
O950 Co924 2.155 . S
O950 C952 1.240 . S
O951 Co924 2.096 . S
O951 C932 1.247 . S
C952 O949 1.244 . S
C952 O950 1.240 . S
H953 C927 0.931 . S
H954 C936 0.931 . S
H955 C940 0.929 . S
H956 C942 0.930 . S
Co957 N961 2.148 . S
Co957 N967 2.128 . S
Co957 N977 2.194 . S
Co957 O982 2.351 . S
Co957 O983 2.155 . S
Co957 O984 2.096 . S
C958 N961 1.301 . S
C958 N962 1.328 . S
C958 H963 0.930 . S
C959 C960 1.333 . S
C959 N961 1.317 . S
C959 H964 0.930 . S
C960 C959 1.333 . S
C960 N962 1.350 . S
C960 H986 0.931 . S
N961 Co957 2.148 . S
N961 C958 1.301 . S
N961 C959 1.317 . S
N962 C958 1.328 . S
N962 C960 1.350 . S
H963 C958 0.930 . S
H964 C959 0.930 . S
C965 O966 1.224 . S
C965 O984 1.247 . S
O966 C965 1.224 . S
N967 Co957 2.128 . S
N967 C968 1.355 . S
N967 C970 1.311 . S
C968 N967 1.355 . S
C968 C969 1.363 . S
C968 H980 0.929 . S
C969 C968 1.363 . S
C969 N971 1.375 . S
C969 H987 0.931 . S
C970 N967 1.311 . S
C970 N971 1.347 . S
C970 H981 0.929 . S
N971 C969 1.375 . S
N971 C970 1.347 . S
C972 C975 1.365 . S
C972 N977 1.328 . S
C972 H978 0.929 . S
C973 C974 1.362 . S
C973 C976 1.378 . S
C973 H988 0.929 . S
C974 C973 1.362 . S
C974 C975 1.366 . S
C975 C972 1.365 . S
C975 C974 1.366 . S
C975 H989 0.930 . S
C976 C973 1.378 . S
C976 N977 1.315 . S
C976 H979 0.930 . S
N977 Co957 2.194 . S
N977 C972 1.328 . S
N977 C976 1.315 . S
H978 C972 0.929 . S
H979 C976 0.930 . S
H980 C968 0.929 . S
H981 C970 0.929 . S
O982 Co957 2.351 . S
O982 C985 1.244 . S
O983 Co957 2.155 . S
O983 C985 1.240 . S
O984 Co957 2.096 . S
O984 C965 1.247 . S
C985 O982 1.244 . S
C985 O983 1.240 . S
H986 C960 0.931 . S
H987 C969 0.931 . S
H988 C973 0.929 . S
H989 C975 0.930 . S
Co990 N994 2.148 . S
Co990 N1000 2.128 . S
Co990 N1010 2.194 . S
Co990 O1015 2.351 . S
Co990 O1016 2.155 . S
Co990 O1017 2.096 . S
C991 N994 1.301 . S
C991 N995 1.328 . S
C991 H996 0.930 . S
C992 C993 1.333 . S
C992 N994 1.317 . S
C992 H997 0.930 . S
C993 C992 1.333 . S
C993 N995 1.350 . S
C993 H1019 0.931 . S
N994 Co990 2.148 . S
N994 C991 1.301 . S
N994 C992 1.317 . S
N995 C991 1.328 . S
N995 C993 1.350 . S
H996 C991 0.930 . S
H997 C992 0.930 . S
C998 O999 1.224 . S
C998 O1017 1.247 . S
O999 C998 1.224 . S
N1000 Co990 2.128 . S
N1000 C1001 1.355 . S
N1000 C1003 1.311 . S
C1001 N1000 1.355 . S
C1001 C1002 1.363 . S
C1001 H1013 0.929 . S
C1002 C1001 1.363 . S
C1002 N1004 1.375 . S
C1002 H1020 0.931 . S
C1003 N1000 1.311 . S
C1003 N1004 1.347 . S
C1003 H1014 0.929 . S
N1004 C1002 1.375 . S
N1004 C1003 1.347 . S
C1005 C1008 1.365 . S
C1005 N1010 1.328 . S
C1005 H1011 0.929 . S
C1006 C1007 1.362 . S
C1006 C1009 1.378 . S
C1006 H1021 0.929 . S
C1007 C1006 1.362 . S
C1007 C1008 1.366 . S
C1008 C1005 1.365 . S
C1008 C1007 1.366 . S
C1008 H1022 0.930 . S
C1009 C1006 1.378 . S
C1009 N1010 1.315 . S
C1009 H1012 0.930 . S
N1010 Co990 2.194 . S
N1010 C1005 1.328 . S
N1010 C1009 1.315 . S
H1011 C1005 0.929 . S
H1012 C1009 0.930 . S
H1013 C1001 0.929 . S
H1014 C1003 0.929 . S
O1015 Co990 2.351 . S
O1015 C1018 1.244 . S
O1016 Co990 2.155 . S
O1016 C1018 1.240 . S
O1017 Co990 2.096 . S
O1017 C998 1.247 . S
C1018 O1015 1.244 . S
C1018 O1016 1.240 . S
H1019 C993 0.931 . S
H1020 C1002 0.931 . S
H1021 C1006 0.929 . S
H1022 C1008 0.930 . S
Co1023 N1027 2.148 . S
Co1023 N1033 2.128 . S
Co1023 N1043 2.194 . S
Co1023 O1048 2.351 . S
Co1023 O1049 2.155 . S
Co1023 O1050 2.096 . S
C1024 N1027 1.301 . S
C1024 N1028 1.328 . S
C1024 H1029 0.930 . S
C1025 C1026 1.333 . S
C1025 N1027 1.317 . S
C1025 H1030 0.930 . S
C1026 C1025 1.333 . S
C1026 N1028 1.350 . S
C1026 H1052 0.931 . S
N1027 Co1023 2.148 . S
N1027 C1024 1.301 . S
N1027 C1025 1.317 . S
N1028 C1024 1.328 . S
N1028 C1026 1.350 . S
H1029 C1024 0.930 . S
H1030 C1025 0.930 . S
C1031 O1032 1.224 . S
C1031 O1050 1.247 . S
O1032 C1031 1.224 . S
N1033 Co1023 2.128 . S
N1033 C1034 1.355 . S
N1033 C1036 1.311 . S
C1034 N1033 1.355 . S
C1034 C1035 1.363 . S
C1034 H1046 0.929 . S
C1035 C1034 1.363 . S
C1035 N1037 1.375 . S
C1035 H1053 0.931 . S
C1036 N1033 1.311 . S
C1036 N1037 1.347 . S
C1036 H1047 0.929 . S
N1037 C1035 1.375 . S
N1037 C1036 1.347 . S
C1038 C1041 1.365 . S
C1038 N1043 1.328 . S
C1038 H1044 0.929 . S
C1039 C1040 1.362 . S
C1039 C1042 1.378 . S
C1039 H1054 0.929 . S
C1040 C1039 1.362 . S
C1040 C1041 1.366 . S
C1041 C1038 1.365 . S
C1041 C1040 1.366 . S
C1041 H1055 0.930 . S
C1042 C1039 1.378 . S
C1042 N1043 1.315 . S
C1042 H1045 0.930 . S
N1043 Co1023 2.194 . S
N1043 C1038 1.328 . S
N1043 C1042 1.315 . S
H1044 C1038 0.929 . S
H1045 C1042 0.930 . S
H1046 C1034 0.929 . S
H1047 C1036 0.929 . S
O1048 Co1023 2.351 . S
O1048 C1051 1.244 . S
O1049 Co1023 2.155 . S
O1049 C1051 1.240 . S
O1050 Co1023 2.096 . S
O1050 C1031 1.247 . S
C1051 O1048 1.244 . S
C1051 O1049 1.240 . S
H1052 C1026 0.931 . S
H1053 C1035 0.931 . S
H1054 C1039 0.929 . S
H1055 C1041 0.930 . S
Co1056 N1060 2.148 . S
Co1056 N1066 2.128 . S
Co1056 N1076 2.194 . S
Co1056 O1081 2.351 . S
Co1056 O1082 2.155 . S
Co1056 O1083 2.096 . S
C1057 N1060 1.301 . S
C1057 N1061 1.328 . S
C1057 H1062 0.930 . S
C1058 C1059 1.333 . S
C1058 N1060 1.317 . S
C1058 H1063 0.930 . S
C1059 C1058 1.333 . S
C1059 N1061 1.350 . S
C1059 H1085 0.931 . S
N1060 Co1056 2.148 . S
N1060 C1057 1.301 . S
N1060 C1058 1.317 . S
N1061 C1057 1.328 . S
N1061 C1059 1.350 . S
H1062 C1057 0.930 . S
H1063 C1058 0.930 . S
C1064 O1065 1.224 . S
C1064 O1083 1.247 . S
O1065 C1064 1.224 . S
N1066 Co1056 2.128 . S
N1066 C1067 1.355 . S
N1066 C1069 1.311 . S
C1067 N1066 1.355 . S
C1067 C1068 1.363 . S
C1067 H1079 0.929 . S
C1068 C1067 1.363 . S
C1068 N1070 1.375 . S
C1068 H1086 0.931 . S
C1069 N1066 1.311 . S
C1069 N1070 1.347 . S
C1069 H1080 0.929 . S
N1070 C1068 1.375 . S
N1070 C1069 1.347 . S
C1071 C1074 1.365 . S
C1071 N1076 1.328 . S
C1071 H1077 0.929 . S
C1072 C1073 1.362 . S
C1072 C1075 1.378 . S
C1072 H1087 0.929 . S
C1073 C1072 1.362 . S
C1073 C1074 1.366 . S
C1074 C1071 1.365 . S
C1074 C1073 1.366 . S
C1074 H1088 0.930 . S
C1075 C1072 1.378 . S
C1075 N1076 1.315 . S
C1075 H1078 0.930 . S
N1076 Co1056 2.194 . S
N1076 C1071 1.328 . S
N1076 C1075 1.315 . S
H1077 C1071 0.929 . S
H1078 C1075 0.930 . S
H1079 C1067 0.929 . S
H1080 C1069 0.929 . S
O1081 Co1056 2.351 . S
O1081 C1084 1.244 . S
O1082 Co1056 2.155 . S
O1082 C1084 1.240 . S
O1083 Co1056 2.096 . S
O1083 C1064 1.247 . S
C1084 O1081 1.244 . S
C1084 O1082 1.240 . S
H1085 C1059 0.931 . S
H1086 C1068 0.931 . S
H1087 C1072 0.929 . S
H1088 C1074 0.930 . S
Co1089 N1093 2.148 . S
Co1089 N1099 2.128 . S
Co1089 N1109 2.194 . S
Co1089 O1114 2.351 . S
Co1089 O1115 2.155 . S
Co1089 O1116 2.096 . S
C1090 N1093 1.301 . S
C1090 N1094 1.328 . S
C1090 H1095 0.930 1_455 S
C1091 C1092 1.333 . S
C1091 N1093 1.317 . S
C1091 H1096 0.930 . S
C1092 C1091 1.333 . S
C1092 N1094 1.350 . S
C1092 H1118 0.931 . S
N1093 Co1089 2.148 . S
N1093 C1090 1.301 . S
N1093 C1091 1.317 . S
N1094 C1090 1.328 . S
N1094 C1092 1.350 . S
H1095 C1090 0.930 1_655 S
H1096 C1091 0.930 . S
C1097 O1098 1.224 . S
C1097 O1116 1.247 . S
O1098 C1097 1.224 . S
N1099 Co1089 2.128 . S
N1099 C1100 1.355 . S
N1099 C1102 1.311 . S
C1100 N1099 1.355 . S
C1100 C1101 1.363 . S
C1100 H1112 0.929 . S
C1101 C1100 1.363 . S
C1101 N1103 1.375 . S
C1101 H1119 0.931 . S
C1102 N1099 1.311 . S
C1102 N1103 1.347 . S
C1102 H1113 0.929 . S
N1103 C1101 1.375 . S
N1103 C1102 1.347 . S
C1104 C1107 1.365 . S
C1104 N1109 1.328 . S
C1104 H1110 0.929 . S
C1105 C1106 1.362 . S
C1105 C1108 1.378 . S
C1105 H1120 0.929 . S
C1106 C1105 1.362 . S
C1106 C1107 1.366 . S
C1107 C1104 1.365 . S
C1107 C1106 1.366 . S
C1107 H1121 0.930 1_455 S
C1108 C1105 1.378 . S
C1108 N1109 1.315 . S
C1108 H1111 0.930 . S
N1109 Co1089 2.194 . S
N1109 C1104 1.328 . S
N1109 C1108 1.315 . S
H1110 C1104 0.929 . S
H1111 C1108 0.930 . S
H1112 C1100 0.929 . S
H1113 C1102 0.929 . S
O1114 Co1089 2.351 . S
O1114 C1117 1.244 . S
O1115 Co1089 2.155 . S
O1115 C1117 1.240 . S
O1116 Co1089 2.096 . S
O1116 C1097 1.247 . S
C1117 O1114 1.244 . S
C1117 O1115 1.240 . S
H1118 C1092 0.931 . S
H1119 C1101 0.931 . S
H1120 C1105 0.929 . S
H1121 C1107 0.930 1_655 S
Co1122 N1126 2.148 . S
Co1122 N1132 2.128 . S
Co1122 N1142 2.194 . S
Co1122 O1147 2.351 . S
Co1122 O1148 2.155 . S
Co1122 O1149 2.096 . S
C1123 N1126 1.301 . S
C1123 N1127 1.328 . S
C1123 H1128 0.930 . S
C1124 C1125 1.333 . S
C1124 N1126 1.317 . S
C1124 H1129 0.930 . S
C1125 C1124 1.333 . S
C1125 N1127 1.350 . S
C1125 H1151 0.931 . S
N1126 Co1122 2.148 . S
N1126 C1123 1.301 . S
N1126 C1124 1.317 . S
N1127 C1123 1.328 . S
N1127 C1125 1.350 . S
H1128 C1123 0.930 . S
H1129 C1124 0.930 . S
C1130 O1131 1.224 . S
C1130 O1149 1.247 . S
O1131 C1130 1.224 . S
N1132 Co1122 2.128 . S
N1132 C1133 1.355 . S
N1132 C1135 1.311 . S
C1133 N1132 1.355 . S
C1133 C1134 1.363 . S
C1133 H1145 0.929 . S
C1134 C1133 1.363 . S
C1134 N1136 1.375 . S
C1134 H1152 0.931 . S
C1135 N1132 1.311 . S
C1135 N1136 1.347 . S
C1135 H1146 0.929 . S
N1136 C1134 1.375 . S
N1136 C1135 1.347 . S
C1137 C1140 1.365 . S
C1137 N1142 1.328 . S
C1137 H1143 0.929 . S
C1138 C1139 1.362 . S
C1138 C1141 1.378 . S
C1138 H1153 0.929 . S
C1139 C1138 1.362 . S
C1139 C1140 1.366 . S
C1140 C1137 1.365 . S
C1140 C1139 1.366 . S
C1140 H1154 0.930 . S
C1141 C1138 1.378 . S
C1141 N1142 1.315 . S
C1141 H1144 0.930 . S
N1142 Co1122 2.194 . S
N1142 C1137 1.328 . S
N1142 C1141 1.315 . S
H1143 C1137 0.929 . S
H1144 C1141 0.930 . S
H1145 C1133 0.929 . S
H1146 C1135 0.929 . S
O1147 Co1122 2.351 . S
O1147 C1150 1.244 . S
O1148 Co1122 2.155 . S
O1148 C1150 1.240 . S
O1149 Co1122 2.096 . S
O1149 C1130 1.247 . S
C1150 O1147 1.244 . S
C1150 O1148 1.240 . S
H1151 C1125 0.931 . S
H1152 C1134 0.931 . S
H1153 C1138 0.929 . S
H1154 C1140 0.930 . S
Co1155 N1159 2.148 . S
Co1155 N1165 2.128 . S
Co1155 N1175 2.194 . S
Co1155 O1180 2.351 . S
Co1155 O1181 2.155 . S
Co1155 O1182 2.096 . S
C1156 N1159 1.301 . S
C1156 N1160 1.328 . S
C1156 H1161 0.930 1_565 S
C1157 C1158 1.333 . S
C1157 N1159 1.317 . S
C1157 H1162 0.930 . S
C1158 C1157 1.333 . S
C1158 N1160 1.350 . S
C1158 H1184 0.931 . S
N1159 Co1155 2.148 . S
N1159 C1156 1.301 . S
N1159 C1157 1.317 . S
N1160 C1156 1.328 . S
N1160 C1158 1.350 . S
H1161 C1156 0.930 1_545 S
H1162 C1157 0.930 . S
C1163 O1164 1.224 . S
C1163 O1182 1.247 . S
O1164 C1163 1.224 . S
N1165 Co1155 2.128 . S
N1165 C1166 1.355 . S
N1165 C1168 1.311 . S
C1166 N1165 1.355 . S
C1166 C1167 1.363 . S
C1166 H1178 0.929 . S
C1167 C1166 1.363 . S
C1167 N1169 1.375 . S
C1167 H1185 0.931 . S
C1168 N1165 1.311 . S
C1168 N1169 1.347 . S
C1168 H1179 0.929 . S
N1169 C1167 1.375 . S
N1169 C1168 1.347 . S
C1170 C1173 1.365 . S
C1170 N1175 1.328 . S
C1170 H1176 0.929 . S
C1171 C1172 1.362 . S
C1171 C1174 1.378 . S
C1171 H1186 0.929 . S
C1172 C1171 1.362 . S
C1172 C1173 1.366 . S
C1173 C1170 1.365 . S
C1173 C1172 1.366 . S
C1173 H1187 0.930 1_565 S
C1174 C1171 1.378 . S
C1174 N1175 1.315 . S
C1174 H1177 0.930 . S
N1175 Co1155 2.194 . S
N1175 C1170 1.328 . S
N1175 C1174 1.315 . S
H1176 C1170 0.929 . S
H1177 C1174 0.930 . S
H1178 C1166 0.929 . S
H1179 C1168 0.929 . S
O1180 Co1155 2.351 . S
O1180 C1183 1.244 . S
O1181 Co1155 2.155 . S
O1181 C1183 1.240 . S
O1182 Co1155 2.096 . S
O1182 C1163 1.247 . S
C1183 O1180 1.244 . S
C1183 O1181 1.240 . S
H1184 C1158 0.931 . S
H1185 C1167 0.931 . S
H1186 C1171 0.929 . S
H1187 C1173 0.930 1_545 S
H1188 C1194 0.930 . S
H1189 C1198 0.930 1_565 S
H1190 C1203 0.929 . S
H1191 C1201 0.929 . S
H1192 C1196 0.929 . S
H1193 C1202 0.929 . S
C1194 H1188 0.930 . S
C1194 C1195 1.367 . S
C1194 C1202 1.378 . S
C1195 C1194 1.367 . S
C1195 C1203 1.433 . S
C1196 H1192 0.929 . S
C1196 C1198 1.378 . S
C1196 C1200 1.350 . S
C1197 C1200 1.463 . S
C1197 C1202 1.350 . S
C1197 N1205 1.427 . S
C1198 H1189 0.930 1_545 S
C1198 C1196 1.378 . S
C1198 C1199 1.367 . S
C1199 C1198 1.367 . S
C1199 C1201 1.433 . S
C1200 C1196 1.350 . S
C1200 C1197 1.463 . S
C1200 N1204 1.427 . S
C1201 H1191 0.929 . S
C1201 C1199 1.433 . S
C1201 N1204 1.384 . S
C1202 H1193 0.929 . S
C1202 C1194 1.378 . S
C1202 C1197 1.350 . S
C1203 H1190 0.929 . S
C1203 C1195 1.433 . S
C1203 N1205 1.384 . S
N1204 C1200 1.427 . S
N1204 C1201 1.384 . S
N1205 C1197 1.427 . S
N1205 C1203 1.384 . S
H1206 C1212 0.930 . S
H1207 C1216 0.930 . S
H1208 C1221 0.929 . S
H1209 C1219 0.929 . S
H1210 C1214 0.929 . S
H1211 C1220 0.929 . S
C1212 H1206 0.930 . S
C1212 C1213 1.367 . S
C1212 C1220 1.378 . S
C1213 C1212 1.367 . S
C1213 C1221 1.433 . S
C1214 H1210 0.929 . S
C1214 C1216 1.378 1_545 S
C1214 C1218 1.350 . S
C1215 C1218 1.463 . S
C1215 C1220 1.350 . S
C1215 N1223 1.427 . S
C1216 H1207 0.930 . S
C1216 C1214 1.378 1_565 S
C1216 C1217 1.367 . S
C1217 C1216 1.367 . S
C1217 C1219 1.433 . S
C1218 C1214 1.350 . S
C1218 C1215 1.463 . S
C1218 N1222 1.427 . S
C1219 H1209 0.929 . S
C1219 C1217 1.433 . S
C1219 N1222 1.384 1_565 S
C1220 H1211 0.929 . S
C1220 C1212 1.378 . S
C1220 C1215 1.350 . S
C1221 H1208 0.929 . S
C1221 C1213 1.433 . S
C1221 N1223 1.384 . S
N1222 C1218 1.427 . S
N1222 C1219 1.384 1_545 S
N1223 C1215 1.427 . S
N1223 C1221 1.384 . S
H1224 C1230 0.930 . S
H1225 C1234 0.930 . S
H1226 C1239 0.929 . S
H1227 C1237 0.929 . S
H1228 C1232 0.929 . S
H1229 C1238 0.929 . S
C1230 H1224 0.930 . S
C1230 C1231 1.367 . S
C1230 C1238 1.378 . S
C1231 C1230 1.367 . S
C1231 C1239 1.433 . S
C1232 H1228 0.929 . S
C1232 C1234 1.378 1_655 S
C1232 C1236 1.350 . S
C1233 C1236 1.463 . S
C1233 C1238 1.350 . S
C1233 N1241 1.427 . S
C1234 H1225 0.930 . S
C1234 C1232 1.378 1_455 S
C1234 C1235 1.367 . S
C1235 C1234 1.367 . S
C1235 C1237 1.433 . S
C1236 C1232 1.350 . S
C1236 C1233 1.463 . S
C1236 N1240 1.427 . S
C1237 H1227 0.929 . S
C1237 C1235 1.433 . S
C1237 N1240 1.384 1_455 S
C1238 H1229 0.929 . S
C1238 C1230 1.378 . S
C1238 C1233 1.350 . S
C1239 H1226 0.929 . S
C1239 C1231 1.433 . S
C1239 N1241 1.384 . S
N1240 C1236 1.427 . S
N1240 C1237 1.384 1_655 S
N1241 C1233 1.427 . S
N1241 C1239 1.384 . S
H1242 C1248 0.930 . S
H1243 C1252 0.930 . S
H1244 C1257 0.929 1_655 S
H1245 C1255 0.929 . S
H1246 C1250 0.929 . S
H1247 C1256 0.929 . S
C1248 H1242 0.930 . S
C1248 C1249 1.367 . S
C1248 C1256 1.378 . S
C1249 C1248 1.367 . S
C1249 C1257 1.433 . S
C1250 H1246 0.929 . S
C1250 C1252 1.378 . S
C1250 C1254 1.350 . S
C1251 C1254 1.463 . S
C1251 C1256 1.350 . S
C1251 N1259 1.427 . S
C1252 H1243 0.930 . S
C1252 C1250 1.378 . S
C1252 C1253 1.367 . S
C1253 C1252 1.367 . S
C1253 C1255 1.433 . S
C1254 C1250 1.350 . S
C1254 C1251 1.463 . S
C1254 N1258 1.427 . S
C1255 H1245 0.929 . S
C1255 C1253 1.433 . S
C1255 N1258 1.384 . S
C1256 H1247 0.929 . S
C1256 C1248 1.378 . S
C1256 C1251 1.350 . S
C1257 H1244 0.929 1_455 S
C1257 C1249 1.433 . S
C1257 N1259 1.384 . S
N1258 C1254 1.427 . S
N1258 C1255 1.384 . S
N1259 C1251 1.427 . S
N1259 C1257 1.384 . S
H1260 C1266 0.930 . S
H1261 C1270 0.930 . S
H1262 C1275 0.929 . S
H1263 C1273 0.929 . S
H1264 C1268 0.929 . S
H1265 C1274 0.929 . S
C1266 H1260 0.930 . S
C1266 C1267 1.367 . S
C1266 C1274 1.378 . S
C1267 C1266 1.367 . S
C1267 C1275 1.433 . S
C1268 H1264 0.929 . S
C1268 C1270 1.378 1_565 S
C1268 C1272 1.350 . S
C1269 C1272 1.463 . S
C1269 C1274 1.350 . S
C1269 N1277 1.427 . S
C1270 H1261 0.930 . S
C1270 C1268 1.378 1_545 S
C1270 C1271 1.367 . S
C1271 C1270 1.367 . S
C1271 C1273 1.433 . S
C1272 C1268 1.350 . S
C1272 C1269 1.463 . S
C1272 N1276 1.427 . S
C1273 H1263 0.929 . S
C1273 C1271 1.433 . S
C1273 N1276 1.384 1_545 S
C1274 H1265 0.929 . S
C1274 C1266 1.378 . S
C1274 C1269 1.350 . S
C1275 H1262 0.929 . S
C1275 C1267 1.433 . S
C1275 N1277 1.384 . S
N1276 C1272 1.427 . S
N1276 C1273 1.384 1_565 S
N1277 C1269 1.427 . S
N1277 C1275 1.384 . S
H1278 C1284 0.930 . S
H1279 C1288 0.930 . S
H1280 C1293 0.929 . S
H1281 C1291 0.929 . S
H1282 C1286 0.929 . S
H1283 C1292 0.929 . S
C1284 H1278 0.930 . S
C1284 C1285 1.367 . S
C1284 C1292 1.378 . S
C1285 C1284 1.367 . S
C1285 C1293 1.433 . S
C1286 H1282 0.929 . S
C1286 C1288 1.378 1_455 S
C1286 C1290 1.350 . S
C1287 C1290 1.463 . S
C1287 C1292 1.350 . S
C1287 N1295 1.427 . S
C1288 H1279 0.930 . S
C1288 C1286 1.378 1_655 S
C1288 C1289 1.367 . S
C1289 C1288 1.367 . S
C1289 C1291 1.433 . S
C1290 C1286 1.350 . S
C1290 C1287 1.463 . S
C1290 N1294 1.427 . S
C1291 H1281 0.929 . S
C1291 C1289 1.433 . S
C1291 N1294 1.384 1_655 S
C1292 H1283 0.929 . S
C1292 C1284 1.378 . S
C1292 C1287 1.350 . S
C1293 H1280 0.929 . S
C1293 C1285 1.433 . S
C1293 N1295 1.384 . S
N1294 C1290 1.427 . S
N1294 C1291 1.384 1_455 S
N1295 C1287 1.427 . S
N1295 C1293 1.384 . S
H1296 C1302 0.930 . S
H1297 C1306 0.930 . S
H1298 C1311 0.929 1_545 S
H1299 C1309 0.929 . S
H1300 C1304 0.929 . S
H1301 C1310 0.929 . S
C1302 H1296 0.930 . S
C1302 C1303 1.367 . S
C1302 C1310 1.378 . S
C1303 C1302 1.367 . S
C1303 C1311 1.433 . S
C1304 H1300 0.929 . S
C1304 C1306 1.378 . S
C1304 C1308 1.350 . S
C1305 C1308 1.463 . S
C1305 C1310 1.350 . S
C1305 N1313 1.427 . S
C1306 H1297 0.930 . S
C1306 C1304 1.378 . S
C1306 C1307 1.367 . S
C1307 C1306 1.367 . S
C1307 C1309 1.433 . S
C1308 C1304 1.350 . S
C1308 C1305 1.463 . S
C1308 N1312 1.427 . S
C1309 H1299 0.929 . S
C1309 C1307 1.433 . S
C1309 N1312 1.384 . S
C1310 H1301 0.929 . S
C1310 C1302 1.378 . S
C1310 C1305 1.350 . S
C1311 H1298 0.929 1_565 S
C1311 C1303 1.433 . S
C1311 N1313 1.384 . S
N1312 C1308 1.427 . S
N1312 C1309 1.384 . S
N1313 C1305 1.427 . S
N1313 C1311 1.384 . S
H1314 C1320 0.930 . S
H1315 C1324 0.930 . S
H1316 C1329 0.929 . S
H1317 C1327 0.908 1_655 S
H1318 C1322 0.929 . S
H1319 C1328 0.929 . S
C1320 H1314 0.930 . S
C1320 C1321 1.367 . S
C1320 C1328 1.378 1_545 S
C1321 C1320 1.367 . S
C1321 C1329 1.433 . S
C1322 H1318 0.929 . S
C1322 C1324 1.378 . S
C1322 C1326 1.350 . S
C1323 C1326 1.463 . S
C1323 C1328 1.350 . S
C1323 N1331 1.427 . S
C1324 H1315 0.930 . S
C1324 C1322 1.378 . S
C1324 C1325 1.367 . S
C1325 C1324 1.367 . S
C1325 C1327 1.433 . S
C1326 C1322 1.350 . S
C1326 C1323 1.463 . S
C1326 N1330 1.427 . S
C1327 H1317 0.908 1_455 S
C1327 C1325 1.433 . S
C1327 N1330 1.384 . S
C1328 H1319 0.929 . S
C1328 C1320 1.378 1_565 S
C1328 C1323 1.350 . S
C1329 H1316 0.929 . S
C1329 C1321 1.433 . S
C1329 N1331 1.384 1_545 S
N1330 C1326 1.427 . S
N1330 C1327 1.384 . S
N1331 C1323 1.427 . S
N1331 C1329 1.384 1_565 S
H1332 C1338 0.930 . S
H1333 C1342 0.930 . S
H1334 C1347 0.929 . S
H1335 C1345 0.929 . S
H1336 C1340 0.929 . S
H1337 C1346 0.929 . S
C1338 H1332 0.930 . S
C1338 C1339 1.367 . S
C1338 C1346 1.378 . S
C1339 C1338 1.367 . S
C1339 C1347 1.433 . S
C1340 H1336 0.929 . S
C1340 C1342 1.378 1_455 S
C1340 C1344 1.350 . S
C1341 C1344 1.463 . S
C1341 C1346 1.350 . S
C1341 N1349 1.427 . S
C1342 H1333 0.930 . S
C1342 C1340 1.378 1_655 S
C1342 C1343 1.367 . S
C1343 C1342 1.367 . S
C1343 C1345 1.433 . S
C1344 C1340 1.350 . S
C1344 C1341 1.463 . S
C1344 N1348 1.427 . S
C1345 H1335 0.929 . S
C1345 C1343 1.433 . S
C1345 N1348 1.384 1_655 S
C1346 H1337 0.929 . S
C1346 C1338 1.378 . S
C1346 C1341 1.350 . S
C1347 H1334 0.929 . S
C1347 C1339 1.433 . S
C1347 N1349 1.384 . S
N1348 C1344 1.427 . S
N1348 C1345 1.384 1_455 S
N1349 C1341 1.427 . S
N1349 C1347 1.384 . S
H1350 C1356 0.930 1_455 S
H1351 C1360 0.930 . S
H1352 C1365 0.929 . S
H1353 C1363 0.929 . S
H1354 C1358 0.929 . S
H1355 C1364 0.929 . S
C1356 H1350 0.930 1_655 S
C1356 C1357 1.367 . S
C1356 C1364 1.378 . S
C1357 C1356 1.367 . S
C1357 C1365 1.433 . S
C1358 H1354 0.929 . S
C1358 C1360 1.378 . S
C1358 C1362 1.350 . S
C1359 C1362 1.463 . S
C1359 C1364 1.350 . S
C1359 N1367 1.427 . S
C1360 H1351 0.930 . S
C1360 C1358 1.378 . S
C1360 C1361 1.367 . S
C1361 C1360 1.367 . S
C1361 C1363 1.433 . S
C1362 C1358 1.350 . S
C1362 C1359 1.463 . S
C1362 N1366 1.427 . S
C1363 H1353 0.929 . S
C1363 C1361 1.433 . S
C1363 N1366 1.384 . S
C1364 H1355 0.929 . S
C1364 C1356 1.378 . S
C1364 C1359 1.350 . S
C1365 H1352 0.929 . S
C1365 C1357 1.433 . S
C1365 N1367 1.384 . S
N1366 C1362 1.427 . S
N1366 C1363 1.384 . S
N1367 C1359 1.427 . S
N1367 C1365 1.384 . S
H1368 C1374 0.930 . S
H1369 C1378 0.930 . S
H1370 C1383 0.929 . S
H1371 C1381 0.929 . S
H1372 C1376 0.929 . S
H1373 C1382 0.929 . S
C1374 H1368 0.930 . S
C1374 C1375 1.367 . S
C1374 C1382 1.378 1_565 S
C1375 C1374 1.367 . S
C1375 C1383 1.433 . S
C1376 H1372 0.929 . S
C1376 C1378 1.378 . S
C1376 C1380 1.350 . S
C1377 C1380 1.463 . S
C1377 C1382 1.350 . S
C1377 N1385 1.427 . S
C1378 H1369 0.930 . S
C1378 C1376 1.378 . S
C1378 C1379 1.367 . S
C1379 C1378 1.367 . S
C1379 C1381 1.433 . S
C1380 C1376 1.350 . S
C1380 C1377 1.463 . S
C1380 N1384 1.427 . S
C1381 H1371 0.929 . S
C1381 C1379 1.433 . S
C1381 N1384 1.384 . S
C1382 H1373 0.929 . S
C1382 C1374 1.378 1_545 S
C1382 C1377 1.350 . S
C1383 H1370 0.929 . S
C1383 C1375 1.433 . S
C1383 N1385 1.384 1_565 S
N1384 C1380 1.427 . S
N1384 C1381 1.384 . S
N1385 C1377 1.427 . S
N1385 C1383 1.384 1_545 S
H1386 C1392 0.930 . S
H1387 C1396 0.930 . S
H1388 C1401 0.929 . S
H1389 C1399 0.929 . S
H1390 C1394 0.929 . S
H1391 C1400 0.929 . S
C1392 H1386 0.930 . S
C1392 C1393 1.367 . S
C1392 C1400 1.378 . S
C1393 C1392 1.367 . S
C1393 C1401 1.433 . S
C1394 H1390 0.929 . S
C1394 C1396 1.378 1_655 S
C1394 C1398 1.350 . S
C1395 C1398 1.463 . S
C1395 C1400 1.350 . S
C1395 N1403 1.427 . S
C1396 H1387 0.930 . S
C1396 C1394 1.378 1_455 S
C1396 C1397 1.367 . S
C1397 C1396 1.367 . S
C1397 C1399 1.433 . S
C1398 C1394 1.350 . S
C1398 C1395 1.463 . S
C1398 N1402 1.427 . S
C1399 H1389 0.929 . S
C1399 C1397 1.433 . S
C1399 N1402 1.384 1_455 S
C1400 H1391 0.929 . S
C1400 C1392 1.378 . S
C1400 C1395 1.350 . S
C1401 H1388 0.929 . S
C1401 C1393 1.433 . S
C1401 N1403 1.384 . S
N1402 C1398 1.427 . S
N1402 C1399 1.384 1_655 S
N1403 C1395 1.427 . S
N1403 C1401 1.384 . S
H1404 C1410 0.930 . S
H1405 C1414 0.930 . S
H1406 C1419 0.929 . S
H1407 C1417 0.929 . S
H1408 C1412 0.929 . S
H1409 C1418 0.929 . S
C1410 H1404 0.930 . S
C1410 C1411 1.367 . S
C1410 C1418 1.378 . S
C1411 C1410 1.367 . S
C1411 C1419 1.433 . S
C1412 H1408 0.929 . S
C1412 C1414 1.378 . S
C1412 C1416 1.350 . S
C1413 C1416 1.463 . S
C1413 C1418 1.350 . S
C1413 N1421 1.427 . S
C1414 H1405 0.930 . S
C1414 C1412 1.378 . S
C1414 C1415 1.367 . S
C1415 C1414 1.367 . S
C1415 C1417 1.433 . S
C1416 C1412 1.350 . S
C1416 C1413 1.463 . S
C1416 N1420 1.427 . S
C1417 H1407 0.929 . S
C1417 C1415 1.433 . S
C1417 N1420 1.384 . S
C1418 H1409 0.929 . S
C1418 C1410 1.378 . S
C1418 C1413 1.350 . S
C1419 H1406 0.929 . S
C1419 C1411 1.433 . S
C1419 N1421 1.384 . S
N1420 C1416 1.427 . S
N1420 C1417 1.384 . S
N1421 C1413 1.427 . S
N1421 C1419 1.384 . S
H1422 C1428 0.930 . S
H1423 C1432 0.930 . S
H1424 C1437 0.929 . S
H1425 C1435 0.929 . S
H1426 C1430 0.929 . S
H1427 C1436 0.929 . S
C1428 H1422 0.930 . S
C1428 C1429 1.367 . S
C1428 C1436 1.378 . S
C1429 C1428 1.367 . S
C1429 C1437 1.433 . S
C1430 H1426 0.929 . S
C1430 C1432 1.378 . S
C1430 C1434 1.350 . S
C1431 C1434 1.463 . S
C1431 C1436 1.350 . S
C1431 N1439 1.427 . S
C1432 H1423 0.930 . S
C1432 C1430 1.378 . S
C1432 C1433 1.367 . S
C1433 C1432 1.367 . S
C1433 C1435 1.433 . S
C1434 C1430 1.350 . S
C1434 C1431 1.463 . S
C1434 N1438 1.427 . S
C1435 H1425 0.929 . S
C1435 C1433 1.433 . S
C1435 N1438 1.384 . S
C1436 H1427 0.929 . S
C1436 C1428 1.378 . S
C1436 C1431 1.350 . S
C1437 H1424 0.929 . S
C1437 C1429 1.433 . S
C1437 N1439 1.384 . S
N1438 C1434 1.427 . S
N1438 C1435 1.384 . S
N1439 C1431 1.427 . S
N1439 C1437 1.384 . S
H1440 C1446 0.930 . S
H1441 C1450 0.930 . S
H1442 C1455 0.929 . S
H1443 C1453 0.929 . S
H1444 C1448 0.929 . S
H1445 C1454 0.929 . S
C1446 H1440 0.930 . S
C1446 C1447 1.367 . S
C1446 C1454 1.378 . S
C1447 C1446 1.367 . S
C1447 C1455 1.433 . S
C1448 H1444 0.929 . S
C1448 C1450 1.378 . S
C1448 C1452 1.350 . S
C1449 C1452 1.463 . S
C1449 C1454 1.350 . S
C1449 N1457 1.427 . S
C1450 H1441 0.930 . S
C1450 C1448 1.378 . S
C1450 C1451 1.367 . S
C1451 C1450 1.367 . S
C1451 C1453 1.433 . S
C1452 C1448 1.350 . S
C1452 C1449 1.463 . S
C1452 N1456 1.427 . S
C1453 H1443 0.929 . S
C1453 C1451 1.433 . S
C1453 N1456 1.384 . S
C1454 H1445 0.929 . S
C1454 C1446 1.378 . S
C1454 C1449 1.350 . S
C1455 H1442 0.929 . S
C1455 C1447 1.433 . S
C1455 N1457 1.384 . S
N1456 C1452 1.427 . S
N1456 C1453 1.384 . S
N1457 C1449 1.427 . S
N1457 C1455 1.384 . S
H1458 C1464 0.930 . S
H1459 C1468 0.930 . S
H1460 C1473 0.929 . S
H1461 C1471 0.929 . S
H1462 C1466 0.929 . S
H1463 C1472 0.929 . S
C1464 H1458 0.930 . S
C1464 C1465 1.367 . S
C1464 C1472 1.378 . S
C1465 C1464 1.367 . S
C1465 C1473 1.433 . S
C1466 H1462 0.929 . S
C1466 C1468 1.378 . S
C1466 C1470 1.350 . S
C1467 C1470 1.463 . S
C1467 C1472 1.350 . S
C1467 N1475 1.427 . S
C1468 H1459 0.930 . S
C1468 C1466 1.378 . S
C1468 C1469 1.367 . S
C1469 C1468 1.367 . S
C1469 C1471 1.433 . S
C1470 C1466 1.350 . S
C1470 C1467 1.463 . S
C1470 N1474 1.427 . S
C1471 H1461 0.929 . S
C1471 C1469 1.433 . S
C1471 N1474 1.384 . S
C1472 H1463 0.929 . S
C1472 C1464 1.378 . S
C1472 C1467 1.350 . S
C1473 H1460 0.929 . S
C1473 C1465 1.433 . S
C1473 N1475 1.384 . S
N1474 C1470 1.427 . S
N1474 C1471 1.384 . S
N1475 C1467 1.427 . S
N1475 C1473 1.384 . S
H1476 C1482 0.930 . S
H1477 C1486 0.930 . S
H1478 C1491 0.929 . S
H1479 C1489 0.929 . S
H1480 C1484 0.929 . S
H1481 C1490 0.929 . S
C1482 H1476 0.930 . S
C1482 C1483 1.367 . S
C1482 C1490 1.378 . S
C1483 C1482 1.367 . S
C1483 C1491 1.433 . S
C1484 H1480 0.929 . S
C1484 C1486 1.378 . S
C1484 C1488 1.350 . S
C1485 C1488 1.463 . S
C1485 C1490 1.350 . S
C1485 N1493 1.427 . S
C1486 H1477 0.930 . S
C1486 C1484 1.378 . S
C1486 C1487 1.367 . S
C1487 C1486 1.367 . S
C1487 C1489 1.433 . S
C1488 C1484 1.350 . S
C1488 C1485 1.463 . S
C1488 N1492 1.427 . S
C1489 H1479 0.929 . S
C1489 C1487 1.433 . S
C1489 N1492 1.384 . S
C1490 H1481 0.929 . S
C1490 C1482 1.378 . S
C1490 C1485 1.350 . S
C1491 H1478 0.929 . S
C1491 C1483 1.433 . S
C1491 N1493 1.384 . S
N1492 C1488 1.427 . S
N1492 C1489 1.384 . S
N1493 C1485 1.427 . S
N1493 C1491 1.384 . S
H1494 C1500 0.930 . S
H1495 C1504 0.930 . S
H1496 C1509 0.929 . S
H1497 C1507 0.929 . S
H1498 C1502 0.929 . S
H1499 C1508 0.929 . S
C1500 H1494 0.930 . S
C1500 C1501 1.367 . S
C1500 C1508 1.378 . S
C1501 C1500 1.367 . S
C1501 C1509 1.433 . S
C1502 H1498 0.929 . S
C1502 C1504 1.378 . S
C1502 C1506 1.350 . S
C1503 C1506 1.463 . S
C1503 C1508 1.350 . S
C1503 N1511 1.427 . S
C1504 H1495 0.930 . S
C1504 C1502 1.378 . S
C1504 C1505 1.367 . S
C1505 C1504 1.367 . S
C1505 C1507 1.433 . S
C1506 C1502 1.350 . S
C1506 C1503 1.463 . S
C1506 N1510 1.427 . S
C1507 H1497 0.929 . S
C1507 C1505 1.433 . S
C1507 N1510 1.384 . S
C1508 H1499 0.929 . S
C1508 C1500 1.378 . S
C1508 C1503 1.350 . S
C1509 H1496 0.929 . S
C1509 C1501 1.433 . S
C1509 N1511 1.384 . S
N1510 C1506 1.427 . S
N1510 C1507 1.384 . S
N1511 C1503 1.427 . S
N1511 C1509 1.384 . S
H1512 C1518 0.930 . S
H1513 C1522 0.930 . S
H1514 C1527 0.929 . S
H1515 C1525 0.929 . S
H1516 C1520 0.929 . S
H1517 C1526 0.929 . S
C1518 H1512 0.930 . S
C1518 C1519 1.367 . S
C1518 C1526 1.378 . S
C1519 C1518 1.367 . S
C1519 C1527 1.433 . S
C1520 H1516 0.929 . S
C1520 C1522 1.378 . S
C1520 C1524 1.350 . S
C1521 C1524 1.463 . S
C1521 C1526 1.350 . S
C1521 N1529 1.427 . S
C1522 H1513 0.930 . S
C1522 C1520 1.378 . S
C1522 C1523 1.367 . S
C1523 C1522 1.367 . S
C1523 C1525 1.433 . S
C1524 C1520 1.350 . S
C1524 C1521 1.463 . S
C1524 N1528 1.427 . S
C1525 H1515 0.929 . S
C1525 C1523 1.433 . S
C1525 N1528 1.384 . S
C1526 H1517 0.929 . S
C1526 C1518 1.378 . S
C1526 C1521 1.350 . S
C1527 H1514 0.929 . S
C1527 C1519 1.433 . S
C1527 N1529 1.384 . S
N1528 C1524 1.427 . S
N1528 C1525 1.384 . S
N1529 C1521 1.427 . S
N1529 C1527 1.384 . S
H1530 C1536 0.930 . S
H1531 C1540 0.930 . S
H1532 C1545 0.929 . S
H1533 C1543 0.929 . S
H1534 C1538 0.929 . S
H1535 C1544 0.929 . S
C1536 H1530 0.930 . S
C1536 C1537 1.367 . S
C1536 C1544 1.378 . S
C1537 C1536 1.367 . S
C1537 C1545 1.433 . S
C1538 H1534 0.929 . S
C1538 C1540 1.378 . S
C1538 C1542 1.350 . S
C1539 C1542 1.463 . S
C1539 C1544 1.350 . S
C1539 N1547 1.427 . S
C1540 H1531 0.930 . S
C1540 C1538 1.378 . S
C1540 C1541 1.367 . S
C1541 C1540 1.367 . S
C1541 C1543 1.433 . S
C1542 C1538 1.350 . S
C1542 C1539 1.463 . S
C1542 N1546 1.427 . S
C1543 H1533 0.929 . S
C1543 C1541 1.433 . S
C1543 N1546 1.384 . S
C1544 H1535 0.929 . S
C1544 C1536 1.378 . S
C1544 C1539 1.350 . S
C1545 H1532 0.929 . S
C1545 C1537 1.433 . S
C1545 N1547 1.384 . S
N1546 C1542 1.427 . S
N1546 C1543 1.384 . S
N1547 C1539 1.427 . S
N1547 C1545 1.384 . S
H1548 C1554 0.930 . S
H1549 C1558 0.930 . S
H1550 C1563 0.929 . S
H1551 C1561 0.929 . S
H1552 C1556 0.929 . S
H1553 C1562 0.929 . S
C1554 H1548 0.930 . S
C1554 C1555 1.367 . S
C1554 C1562 1.378 . S
C1555 C1554 1.367 . S
C1555 C1563 1.433 . S
C1556 H1552 0.929 . S
C1556 C1558 1.378 . S
C1556 C1560 1.350 . S
C1557 C1560 1.463 . S
C1557 C1562 1.350 . S
C1557 N1565 1.427 . S
C1558 H1549 0.930 . S
C1558 C1556 1.378 . S
C1558 C1559 1.367 . S
C1559 C1558 1.367 . S
C1559 C1561 1.433 . S
C1560 C1556 1.350 . S
C1560 C1557 1.463 . S
C1560 N1564 1.427 . S
C1561 H1551 0.929 . S
C1561 C1559 1.433 . S
C1561 N1564 1.384 . S
C1562 H1553 0.929 . S
C1562 C1554 1.378 . S
C1562 C1557 1.350 . S
C1563 H1550 0.929 . S
C1563 C1555 1.433 . S
C1563 N1565 1.384 . S
N1564 C1560 1.427 . S
N1564 C1561 1.384 . S
N1565 C1557 1.427 . S
N1565 C1563 1.384 . S
H1566 C1572 0.930 . S
H1567 C1576 0.930 . S
H1568 C1581 0.929 . S
H1569 C1579 0.929 . S
H1570 C1574 0.929 . S
H1571 C1580 0.929 . S
C1572 H1566 0.930 . S
C1572 C1573 1.367 . S
C1572 C1580 1.378 . S
C1573 C1572 1.367 . S
C1573 C1581 1.433 . S
C1574 H1570 0.929 . S
C1574 C1576 1.378 . S
C1574 C1578 1.350 . S
C1575 C1578 1.463 . S
C1575 C1580 1.350 . S
C1575 N1583 1.427 . S
C1576 H1567 0.930 . S
C1576 C1574 1.378 . S
C1576 C1577 1.367 . S
C1577 C1576 1.367 . S
C1577 C1579 1.433 . S
C1578 C1574 1.350 . S
C1578 C1575 1.463 . S
C1578 N1582 1.427 . S
C1579 H1569 0.929 . S
C1579 C1577 1.433 . S
C1579 N1582 1.384 . S
C1580 H1571 0.929 . S
C1580 C1572 1.378 . S
C1580 C1575 1.350 . S
C1581 H1568 0.929 . S
C1581 C1573 1.433 . S
C1581 N1583 1.384 . S
N1582 C1578 1.427 . S
N1582 C1579 1.384 . S
N1583 C1575 1.427 . S
N1583 C1581 1.384 . S
H1584 C1590 0.930 . S
H1585 C1594 0.930 . S
H1586 C1599 0.929 . S
H1587 C1597 0.929 . S
H1588 C1592 0.929 . S
H1589 C1598 0.929 . S
C1590 H1584 0.930 . S
C1590 C1591 1.367 . S
C1590 C1598 1.378 . S
C1591 C1590 1.367 . S
C1591 C1599 1.433 . S
C1592 H1588 0.929 . S
C1592 C1594 1.378 . S
C1592 C1596 1.350 . S
C1593 C1596 1.463 . S
C1593 C1598 1.350 . S
C1593 N1601 1.427 . S
C1594 H1585 0.930 . S
C1594 C1592 1.378 . S
C1594 C1595 1.367 . S
C1595 C1594 1.367 . S
C1595 C1597 1.433 . S
C1596 C1592 1.350 . S
C1596 C1593 1.463 . S
C1596 N1600 1.427 . S
C1597 H1587 0.929 . S
C1597 C1595 1.433 . S
C1597 N1600 1.384 . S
C1598 H1589 0.929 . S
C1598 C1590 1.378 . S
C1598 C1593 1.350 . S
C1599 H1586 0.929 . S
C1599 C1591 1.433 . S
C1599 N1601 1.384 . S
N1600 C1596 1.427 . S
N1600 C1597 1.384 . S
N1601 C1593 1.427 . S
N1601 C1599 1.384 . S
H1602 C1608 0.930 . S
H1603 C1612 0.930 . S
H1604 C1617 0.929 . S
H1605 C1615 0.929 . S
H1606 C1610 0.929 . S
H1607 C1616 0.929 . S
C1608 H1602 0.930 . S
C1608 C1609 1.367 . S
C1608 C1616 1.378 . S
C1609 C1608 1.367 . S
C1609 C1617 1.433 . S
C1610 H1606 0.929 . S
C1610 C1612 1.378 . S
C1610 C1614 1.350 . S
C1611 C1614 1.463 . S
C1611 C1616 1.350 . S
C1611 N1619 1.427 . S
C1612 H1603 0.930 . S
C1612 C1610 1.378 . S
C1612 C1613 1.367 . S
C1613 C1612 1.367 . S
C1613 C1615 1.433 . S
C1614 C1610 1.350 . S
C1614 C1611 1.463 . S
C1614 N1618 1.427 . S
C1615 H1605 0.929 . S
C1615 C1613 1.433 . S
C1615 N1618 1.384 . S
C1616 H1607 0.929 . S
C1616 C1608 1.378 . S
C1616 C1611 1.350 . S
C1617 H1604 0.929 . S
C1617 C1609 1.433 . S
C1617 N1619 1.384 . S
N1618 C1614 1.427 . S
N1618 C1615 1.384 . S
N1619 C1611 1.427 . S
N1619 C1617 1.384 . S
H1620 C1626 0.930 . S
H1621 C1630 0.930 . S
H1622 C1635 0.929 . S
H1623 C1633 0.929 . S
H1624 C1628 0.929 . S
H1625 C1634 0.929 . S
C1626 H1620 0.930 . S
C1626 C1627 1.367 . S
C1626 C1634 1.378 . S
C1627 C1626 1.367 . S
C1627 C1635 1.433 . S
C1628 H1624 0.929 . S
C1628 C1630 1.378 . S
C1628 C1632 1.350 . S
C1629 C1632 1.463 . S
C1629 C1634 1.350 . S
C1629 N1637 1.427 . S
C1630 H1621 0.930 . S
C1630 C1628 1.378 . S
C1630 C1631 1.367 . S
C1631 C1630 1.367 . S
C1631 C1633 1.433 . S
C1632 C1628 1.350 . S
C1632 C1629 1.463 . S
C1632 N1636 1.427 . S
C1633 H1623 0.929 . S
C1633 C1631 1.433 . S
C1633 N1636 1.384 . S
C1634 H1625 0.929 . S
C1634 C1626 1.378 . S
C1634 C1629 1.350 . S
C1635 H1622 0.929 . S
C1635 C1627 1.433 . S
C1635 N1637 1.384 . S
N1636 C1632 1.427 . S
N1636 C1633 1.384 . S
N1637 C1629 1.427 . S
N1637 C1635 1.384 . S
H1638 C1644 0.930 . S
H1639 C1648 0.930 . S
H1640 C1653 0.929 . S
H1641 C1651 0.929 . S
H1642 C1646 0.929 . S
H1643 C1652 0.929 . S
C1644 H1638 0.930 . S
C1644 C1645 1.367 . S
C1644 C1652 1.378 . S
C1645 C1644 1.367 . S
C1645 C1653 1.433 . S
C1646 H1642 0.929 . S
C1646 C1648 1.378 . S
C1646 C1650 1.350 . S
C1647 C1650 1.463 . S
C1647 C1652 1.350 . S
C1647 N1655 1.427 . S
C1648 H1639 0.930 . S
C1648 C1646 1.378 . S
C1648 C1649 1.367 . S
C1649 C1648 1.367 . S
C1649 C1651 1.433 . S
C1650 C1646 1.350 . S
C1650 C1647 1.463 . S
C1650 N1654 1.427 . S
C1651 H1641 0.929 . S
C1651 C1649 1.433 . S
C1651 N1654 1.384 . S
C1652 H1643 0.929 . S
C1652 C1644 1.378 . S
C1652 C1647 1.350 . S
C1653 H1640 0.929 . S
C1653 C1645 1.433 . S
C1653 N1655 1.384 . S
N1654 C1650 1.427 . S
N1654 C1651 1.384 . S
N1655 C1647 1.427 . S
N1655 C1653 1.384 . S
H1656 C1662 0.930 . S
H1657 C1666 0.930 . S
H1658 C1671 0.929 . S
H1659 C1669 0.929 . S
H1660 C1664 0.929 . S
H1661 C1670 0.929 . S
C1662 H1656 0.930 . S
C1662 C1663 1.367 . S
C1662 C1670 1.378 . S
C1663 C1662 1.367 . S
C1663 C1671 1.433 . S
C1664 H1660 0.929 . S
C1664 C1666 1.378 . S
C1664 C1668 1.350 . S
C1665 C1668 1.463 . S
C1665 C1670 1.350 . S
C1665 N1673 1.427 . S
C1666 H1657 0.930 . S
C1666 C1664 1.378 . S
C1666 C1667 1.367 . S
C1667 C1666 1.367 . S
C1667 C1669 1.433 . S
C1668 C1664 1.350 . S
C1668 C1665 1.463 . S
C1668 N1672 1.427 . S
C1669 H1659 0.929 . S
C1669 C1667 1.433 . S
C1669 N1672 1.384 . S
C1670 H1661 0.929 . S
C1670 C1662 1.378 . S
C1670 C1665 1.350 . S
C1671 H1658 0.929 . S
C1671 C1663 1.433 . S
C1671 N1673 1.384 . S
N1672 C1668 1.427 . S
N1672 C1669 1.384 . S
N1673 C1665 1.427 . S
N1673 C1671 1.384 . S
H1674 C1680 0.930 . S
H1675 C1684 0.930 . S
H1676 C1689 0.929 . S
H1677 C1687 0.929 . S
H1678 C1682 0.929 . S
H1679 C1688 0.929 . S
C1680 H1674 0.930 . S
C1680 C1681 1.367 . S
C1680 C1688 1.378 . S
C1681 C1680 1.367 . S
C1681 C1689 1.433 . S
C1682 H1678 0.929 . S
C1682 C1684 1.378 . S
C1682 C1686 1.350 . S
C1683 C1686 1.463 . S
C1683 C1688 1.350 . S
C1683 N1691 1.427 . S
C1684 H1675 0.930 . S
C1684 C1682 1.378 . S
C1684 C1685 1.367 . S
C1685 C1684 1.367 . S
C1685 C1687 1.433 . S
C1686 C1682 1.350 . S
C1686 C1683 1.463 . S
C1686 N1690 1.427 . S
C1687 H1677 0.929 . S
C1687 C1685 1.433 . S
C1687 N1690 1.384 . S
C1688 H1679 0.929 . S
C1688 C1680 1.378 . S
C1688 C1683 1.350 . S
C1689 H1676 0.929 . S
C1689 C1681 1.433 . S
C1689 N1691 1.384 . S
N1690 C1686 1.427 . S
N1690 C1687 1.384 . S
N1691 C1683 1.427 . S
N1691 C1689 1.384 . S
H1692 C1698 0.930 . S
H1693 C1702 0.930 . S
H1694 C1707 0.929 . S
H1695 C1705 0.929 . S
H1696 C1700 0.929 . S
H1697 C1706 0.929 . S
C1698 H1692 0.930 . S
C1698 C1699 1.367 . S
C1698 C1706 1.378 . S
C1699 C1698 1.367 . S
C1699 C1707 1.433 . S
C1700 H1696 0.929 . S
C1700 C1702 1.378 . S
C1700 C1704 1.350 . S
C1701 C1704 1.463 . S
C1701 C1706 1.350 . S
C1701 N1709 1.427 . S
C1702 H1693 0.930 . S
C1702 C1700 1.378 . S
C1702 C1703 1.367 . S
C1703 C1702 1.367 . S
C1703 C1705 1.433 . S
C1704 C1700 1.350 . S
C1704 C1701 1.463 . S
C1704 N1708 1.427 . S
C1705 H1695 0.929 . S
C1705 C1703 1.433 . S
C1705 N1708 1.384 . S
C1706 H1697 0.929 . S
C1706 C1698 1.378 . S
C1706 C1701 1.350 . S
C1707 H1694 0.929 . S
C1707 C1699 1.433 . S
C1707 N1709 1.384 . S
N1708 C1704 1.427 . S
N1708 C1705 1.384 . S
N1709 C1701 1.427 . S
N1709 C1707 1.384 . S
H1710 C1716 0.930 . S
H1711 C1720 0.930 . S
H1712 C1725 0.929 . S
H1713 C1723 0.929 . S
H1714 C1718 0.929 . S
H1715 C1724 0.929 . S
C1716 H1710 0.930 . S
C1716 C1717 1.367 . S
C1716 C1724 1.378 . S
C1717 C1716 1.367 . S
C1717 C1725 1.433 . S
C1718 H1714 0.929 . S
C1718 C1720 1.378 . S
C1718 C1722 1.350 . S
C1719 C1722 1.463 . S
C1719 C1724 1.350 . S
C1719 N1727 1.427 . S
C1720 H1711 0.930 . S
C1720 C1718 1.378 . S
C1720 C1721 1.367 . S
C1721 C1720 1.367 . S
C1721 C1723 1.433 . S
C1722 C1718 1.350 . S
C1722 C1719 1.463 . S
C1722 N1726 1.427 . S
C1723 H1713 0.929 . S
C1723 C1721 1.433 . S
C1723 N1726 1.384 . S
C1724 H1715 0.929 . S
C1724 C1716 1.378 . S
C1724 C1719 1.350 . S
C1725 H1712 0.929 . S
C1725 C1717 1.433 . S
C1725 N1727 1.384 . S
N1726 C1722 1.427 . S
N1726 C1723 1.384 . S
N1727 C1719 1.427 . S
N1727 C1725 1.384 . S
H1728 C1734 0.930 . S
H1729 C1738 0.930 . S
H1730 C1743 0.929 . S
H1731 C1741 0.929 . S
H1732 C1736 0.929 . S
H1733 C1742 0.929 . S
C1734 H1728 0.930 . S
C1734 C1735 1.367 . S
C1734 C1742 1.378 . S
C1735 C1734 1.367 . S
C1735 C1743 1.433 . S
C1736 H1732 0.929 . S
C1736 C1738 1.378 . S
C1736 C1740 1.350 . S
C1737 C1740 1.463 . S
C1737 C1742 1.350 . S
C1737 N1745 1.427 . S
C1738 H1729 0.930 . S
C1738 C1736 1.378 . S
C1738 C1739 1.367 . S
C1739 C1738 1.367 . S
C1739 C1741 1.433 . S
C1740 C1736 1.350 . S
C1740 C1737 1.463 . S
C1740 N1744 1.427 . S
C1741 H1731 0.929 . S
C1741 C1739 1.433 . S
C1741 N1744 1.384 . S
C1742 H1733 0.929 . S
C1742 C1734 1.378 . S
C1742 C1737 1.350 . S
C1743 H1730 0.929 . S
C1743 C1735 1.433 . S
C1743 N1745 1.384 . S
N1744 C1740 1.427 . S
N1744 C1741 1.384 . S
N1745 C1737 1.427 . S
N1745 C1743 1.384 . S
H1746 C1752 0.930 . S
H1747 C1756 0.930 . S
H1748 C1761 0.929 . S
H1749 C1759 0.929 . S
H1750 C1754 0.929 . S
H1751 C1760 0.929 . S
C1752 H1746 0.930 . S
C1752 C1753 1.367 . S
C1752 C1760 1.378 . S
C1753 C1752 1.367 . S
C1753 C1761 1.433 . S
C1754 H1750 0.929 . S
C1754 C1756 1.378 . S
C1754 C1758 1.350 . S
C1755 C1758 1.463 . S
C1755 C1760 1.350 . S
C1755 N1763 1.427 . S
C1756 H1747 0.930 . S
C1756 C1754 1.378 . S
C1756 C1757 1.367 . S
C1757 C1756 1.367 . S
C1757 C1759 1.433 . S
C1758 C1754 1.350 . S
C1758 C1755 1.463 . S
C1758 N1762 1.427 . S
C1759 H1749 0.929 . S
C1759 C1757 1.433 . S
C1759 N1762 1.384 . S
C1760 H1751 0.929 . S
C1760 C1752 1.378 . S
C1760 C1755 1.350 . S
C1761 H1748 0.929 . S
C1761 C1753 1.433 . S
C1761 N1763 1.384 . S
N1762 C1758 1.427 . S
N1762 C1759 1.384 . S
N1763 C1755 1.427 . S
N1763 C1761 1.384 . S
H1764 C1770 0.930 . S
H1765 C1774 0.930 . S
H1766 C1779 0.929 . S
H1767 C1777 0.929 . S
H1768 C1772 0.929 . S
H1769 C1778 0.929 . S
C1770 H1764 0.930 . S
C1770 C1771 1.367 . S
C1770 C1778 1.378 . S
C1771 C1770 1.367 . S
C1771 C1779 1.433 . S
C1772 H1768 0.929 . S
C1772 C1774 1.378 . S
C1772 C1776 1.350 . S
C1773 C1776 1.463 . S
C1773 C1778 1.350 . S
C1773 N1781 1.427 . S
C1774 H1765 0.930 . S
C1774 C1772 1.378 . S
C1774 C1775 1.367 . S
C1775 C1774 1.367 . S
C1775 C1777 1.433 . S
C1776 C1772 1.350 . S
C1776 C1773 1.463 . S
C1776 N1780 1.427 . S
C1777 H1767 0.929 . S
C1777 C1775 1.433 . S
C1777 N1780 1.384 . S
C1778 H1769 0.929 . S
C1778 C1770 1.378 . S
C1778 C1773 1.350 . S
C1779 H1766 0.929 . S
C1779 C1771 1.433 . S
C1779 N1781 1.384 . S
N1780 C1776 1.427 . S
N1780 C1777 1.384 . S
N1781 C1773 1.427 . S
N1781 C1779 1.384 . S
H1782 C1788 0.930 . S
H1783 C1792 0.930 . S
H1784 C1797 0.929 . S
H1785 C1795 0.929 . S
H1786 C1790 0.929 . S
H1787 C1796 0.929 . S
C1788 H1782 0.930 . S
C1788 C1789 1.367 . S
C1788 C1796 1.378 . S
C1789 C1788 1.367 . S
C1789 C1797 1.433 . S
C1790 H1786 0.929 . S
C1790 C1792 1.378 . S
C1790 C1794 1.350 . S
C1791 C1794 1.463 . S
C1791 C1796 1.350 . S
C1791 N1799 1.427 . S
C1792 H1783 0.930 . S
C1792 C1790 1.378 . S
C1792 C1793 1.367 . S
C1793 C1792 1.367 . S
C1793 C1795 1.433 . S
C1794 C1790 1.350 . S
C1794 C1791 1.463 . S
C1794 N1798 1.427 . S
C1795 H1785 0.929 . S
C1795 C1793 1.433 . S
C1795 N1798 1.384 . S
C1796 H1787 0.929 . S
C1796 C1788 1.378 . S
C1796 C1791 1.350 . S
C1797 H1784 0.929 . S
C1797 C1789 1.433 . S
C1797 N1799 1.384 . S
N1798 C1794 1.427 . S
N1798 C1795 1.384 . S
N1799 C1791 1.427 . S
N1799 C1797 1.384 . S
H1800 C1806 0.930 . S
H1801 C1810 0.930 . S
H1802 C1815 0.929 . S
H1803 C1813 0.929 . S
H1804 C1808 0.929 . S
H1805 C1814 0.929 . S
C1806 H1800 0.930 . S
C1806 C1807 1.367 . S
C1806 C1814 1.378 . S
C1807 C1806 1.367 . S
C1807 C1815 1.433 . S
C1808 H1804 0.929 . S
C1808 C1810 1.378 . S
C1808 C1812 1.350 . S
C1809 C1812 1.463 . S
C1809 C1814 1.350 . S
C1809 N1817 1.427 . S
C1810 H1801 0.930 . S
C1810 C1808 1.378 . S
C1810 C1811 1.367 . S
C1811 C1810 1.367 . S
C1811 C1813 1.433 . S
C1812 C1808 1.350 . S
C1812 C1809 1.463 . S
C1812 N1816 1.427 . S
C1813 H1803 0.929 . S
C1813 C1811 1.433 . S
C1813 N1816 1.384 . S
C1814 H1805 0.929 . S
C1814 C1806 1.378 . S
C1814 C1809 1.350 . S
C1815 H1802 0.929 . S
C1815 C1807 1.433 . S
C1815 N1817 1.384 . S
N1816 C1812 1.427 . S
N1816 C1813 1.384 . S
N1817 C1809 1.427 . S
N1817 C1815 1.384 . S
H1818 C1824 0.930 . S
H1819 C1828 0.930 . S
H1820 C1833 0.929 . S
H1821 C1831 0.929 . S
H1822 C1826 0.929 . S
H1823 C1832 0.929 . S
C1824 H1818 0.930 . S
C1824 C1825 1.367 . S
C1824 C1832 1.378 . S
C1825 C1824 1.367 . S
C1825 C1833 1.433 . S
C1826 H1822 0.929 . S
C1826 C1828 1.378 . S
C1826 C1830 1.350 . S
C1827 C1830 1.463 . S
C1827 C1832 1.350 . S
C1827 N1835 1.427 . S
C1828 H1819 0.930 . S
C1828 C1826 1.378 . S
C1828 C1829 1.367 . S
C1829 C1828 1.367 . S
C1829 C1831 1.433 . S
C1830 C1826 1.350 . S
C1830 C1827 1.463 . S
C1830 N1834 1.427 . S
C1831 H1821 0.929 . S
C1831 C1829 1.433 . S
C1831 N1834 1.384 . S
C1832 H1823 0.929 . S
C1832 C1824 1.378 . S
C1832 C1827 1.350 . S
C1833 H1820 0.929 . S
C1833 C1825 1.433 . S
C1833 N1835 1.384 . S
N1834 C1830 1.427 . S
N1834 C1831 1.384 . S
N1835 C1827 1.427 . S
N1835 C1833 1.384 . S
H1836 C1842 0.930 . S
H1837 C1846 0.930 . S
H1838 C1851 0.929 . S
H1839 C1849 0.929 . S
H1840 C1844 0.929 . S
H1841 C1850 0.929 . S
C1842 H1836 0.930 . S
C1842 C1843 1.367 . S
C1842 C1850 1.378 . S
C1843 C1842 1.367 . S
C1843 C1851 1.433 . S
C1844 H1840 0.929 . S
C1844 C1846 1.378 . S
C1844 C1848 1.350 . S
C1845 C1848 1.463 . S
C1845 C1850 1.350 . S
C1845 N1853 1.427 . S
C1846 H1837 0.930 . S
C1846 C1844 1.378 . S
C1846 C1847 1.367 . S
C1847 C1846 1.367 . S
C1847 C1849 1.433 . S
C1848 C1844 1.350 . S
C1848 C1845 1.463 . S
C1848 N1852 1.427 . S
C1849 H1839 0.929 . S
C1849 C1847 1.433 . S
C1849 N1852 1.384 . S
C1850 H1841 0.929 . S
C1850 C1842 1.378 . S
C1850 C1845 1.350 . S
C1851 H1838 0.929 . S
C1851 C1843 1.433 . S
C1851 N1853 1.384 . S
N1852 C1848 1.427 . S
N1852 C1849 1.384 . S
N1853 C1845 1.427 . S
N1853 C1851 1.384 . S
H1854 C1860 0.930 . S
H1855 C1864 0.930 . S
H1856 C1869 0.929 . S
H1857 C1867 0.929 . S
H1858 C1862 0.929 . S
H1859 C1868 0.929 . S
C1860 H1854 0.930 . S
C1860 C1861 1.367 . S
C1860 C1868 1.378 . S
C1861 C1860 1.367 . S
C1861 C1869 1.433 . S
C1862 H1858 0.929 . S
C1862 C1864 1.378 . S
C1862 C1866 1.350 . S
C1863 C1866 1.463 . S
C1863 C1868 1.350 . S
C1863 N1871 1.427 . S
C1864 H1855 0.930 . S
C1864 C1862 1.378 . S
C1864 C1865 1.367 . S
C1865 C1864 1.367 . S
C1865 C1867 1.433 . S
C1866 C1862 1.350 . S
C1866 C1863 1.463 . S
C1866 N1870 1.427 . S
C1867 H1857 0.929 . S
C1867 C1865 1.433 . S
C1867 N1870 1.384 . S
C1868 H1859 0.929 . S
C1868 C1860 1.378 . S
C1868 C1863 1.350 . S
C1869 H1856 0.929 . S
C1869 C1861 1.433 . S
C1869 N1871 1.384 . S
N1870 C1866 1.427 . S
N1870 C1867 1.384 . S
N1871 C1863 1.427 . S
N1871 C1869 1.384 . S
H1872 C1878 0.930 . S
H1873 C1882 0.930 1_655 S
H1874 C1887 0.929 . S
H1875 C1885 0.929 . S
H1876 C1880 0.929 . S
H1877 C1886 0.929 . S
C1878 H1872 0.930 . S
C1878 C1879 1.367 . S
C1878 C1886 1.378 . S
C1879 C1878 1.367 . S
C1879 C1887 1.433 . S
C1880 H1876 0.929 . S
C1880 C1882 1.378 . S
C1880 C1884 1.350 . S
C1881 C1884 1.463 . S
C1881 C1886 1.350 . S
C1881 N1889 1.427 . S
C1882 H1873 0.930 1_455 S
C1882 C1880 1.378 . S
C1882 C1883 1.367 . S
C1883 C1882 1.367 . S
C1883 C1885 1.433 . S
C1884 C1880 1.350 . S
C1884 C1881 1.463 . S
C1884 N1888 1.427 . S
C1885 H1875 0.929 . S
C1885 C1883 1.433 . S
C1885 N1888 1.384 . S
C1886 H1877 0.929 . S
C1886 C1878 1.378 . S
C1886 C1881 1.350 . S
C1887 H1874 0.929 . S
C1887 C1879 1.433 . S
C1887 N1889 1.384 . S
N1888 C1884 1.427 . S
N1888 C1885 1.384 . S
N1889 C1881 1.427 . S
N1889 C1887 1.384 . S
H1890 C1896 0.930 . S
H1891 C1900 0.930 . S
H1892 C1905 0.929 . S
H1893 C1903 0.929 . S
H1894 C1898 0.929 . S
H1895 C1904 0.929 . S
C1896 H1890 0.930 . S
C1896 C1897 1.367 . S
C1896 C1904 1.378 . S
C1897 C1896 1.367 . S
C1897 C1905 1.433 . S
C1898 H1894 0.929 . S
C1898 C1900 1.378 . S
C1898 C1902 1.350 . S
C1899 C1902 1.463 . S
C1899 C1904 1.350 . S
C1899 N1907 1.427 . S
C1900 H1891 0.930 . S
C1900 C1898 1.378 . S
C1900 C1901 1.367 . S
C1901 C1900 1.367 . S
C1901 C1903 1.433 . S
C1902 C1898 1.350 . S
C1902 C1899 1.463 . S
C1902 N1906 1.427 . S
C1903 H1893 0.929 . S
C1903 C1901 1.433 . S
C1903 N1906 1.384 . S
C1904 H1895 0.929 . S
C1904 C1896 1.378 . S
C1904 C1899 1.350 . S
C1905 H1892 0.929 . S
C1905 C1897 1.433 . S
C1905 N1907 1.384 . S
N1906 C1902 1.427 . S
N1906 C1903 1.384 . S
N1907 C1899 1.427 . S
N1907 C1905 1.384 . S
H1908 C1914 0.930 . S
H1909 C1918 0.930 . S
H1910 C1923 0.929 . S
H1911 C1921 0.929 . S
H1912 C1916 0.929 . S
H1913 C1922 0.929 . S
C1914 H1908 0.930 . S
C1914 C1915 1.367 . S
C1914 C1922 1.378 . S
C1915 C1914 1.367 . S
C1915 C1923 1.433 . S
C1916 H1912 0.929 . S
C1916 C1918 1.378 . S
C1916 C1920 1.350 . S
C1917 C1920 1.463 . S
C1917 C1922 1.350 . S
C1917 N1925 1.427 . S
C1918 H1909 0.930 . S
C1918 C1916 1.378 . S
C1918 C1919 1.367 . S
C1919 C1918 1.367 . S
C1919 C1921 1.433 . S
C1920 C1916 1.350 . S
C1920 C1917 1.463 . S
C1920 N1924 1.427 . S
C1921 H1911 0.929 . S
C1921 C1919 1.433 . S
C1921 N1924 1.384 . S
C1922 H1913 0.929 . S
C1922 C1914 1.378 . S
C1922 C1917 1.350 . S
C1923 H1910 0.929 . S
C1923 C1915 1.433 . S
C1923 N1925 1.384 . S
N1924 C1920 1.427 . S
N1924 C1921 1.384 . S
N1925 C1917 1.427 . S
N1925 C1923 1.384 . S
H1926 C1932 0.930 . S
H1927 C1936 0.930 . S
H1928 C1941 0.929 . S
H1929 C1939 0.929 . S
H1930 C1934 0.929 . S
H1931 C1940 0.929 . S
C1932 H1926 0.930 . S
C1932 C1933 1.367 . S
C1932 C1940 1.378 . S
C1933 C1932 1.367 . S
C1933 C1941 1.433 . S
C1934 H1930 0.929 . S
C1934 C1936 1.378 . S
C1934 C1938 1.350 . S
C1935 C1938 1.463 . S
C1935 C1940 1.350 . S
C1935 N1943 1.427 . S
C1936 H1927 0.930 . S
C1936 C1934 1.378 . S
C1936 C1937 1.367 . S
C1937 C1936 1.367 . S
C1937 C1939 1.433 . S
C1938 C1934 1.350 . S
C1938 C1935 1.463 . S
C1938 N1942 1.427 . S
C1939 H1929 0.929 . S
C1939 C1937 1.433 . S
C1939 N1942 1.384 . S
C1940 H1931 0.929 . S
C1940 C1932 1.378 . S
C1940 C1935 1.350 . S
C1941 H1928 0.929 . S
C1941 C1933 1.433 . S
C1941 N1943 1.384 . S
N1942 C1938 1.427 . S
N1942 C1939 1.384 . S
N1943 C1935 1.427 . S
N1943 C1941 1.384 . S
H1944 C1950 0.930 . S
H1945 C1954 0.930 . S
H1946 C1959 0.929 . S
H1947 C1957 0.929 . S
H1948 C1952 0.929 . S
H1949 C1958 0.929 . S
C1950 H1944 0.930 . S
C1950 C1951 1.367 . S
C1950 C1958 1.378 . S
C1951 C1950 1.367 . S
C1951 C1959 1.433 . S
C1952 H1948 0.929 . S
C1952 C1954 1.378 . S
C1952 C1956 1.350 . S
C1953 C1956 1.463 . S
C1953 C1958 1.350 . S
C1953 N1961 1.427 . S
C1954 H1945 0.930 . S
C1954 C1952 1.378 . S
C1954 C1955 1.367 . S
C1955 C1954 1.367 . S
C1955 C1957 1.433 . S
C1956 C1952 1.350 . S
C1956 C1953 1.463 . S
C1956 N1960 1.427 . S
C1957 H1947 0.929 . S
C1957 C1955 1.433 . S
C1957 N1960 1.384 . S
C1958 H1949 0.929 . S
C1958 C1950 1.378 . S
C1958 C1953 1.350 . S
C1959 H1946 0.929 . S
C1959 C1951 1.433 . S
C1959 N1961 1.384 . S
N1960 C1956 1.427 . S
N1960 C1957 1.384 . S
N1961 C1953 1.427 . S
N1961 C1959 1.384 . S
H1962 C1968 0.930 . S
H1963 C1972 0.930 . S
H1964 C1977 0.929 . S
H1965 C1975 0.929 . S
H1966 C1970 0.929 . S
H1967 C1976 0.929 . S
C1968 H1962 0.930 . S
C1968 C1969 1.367 . S
C1968 C1976 1.378 . S
C1969 C1968 1.367 . S
C1969 C1977 1.433 . S
C1970 H1966 0.929 . S
C1970 C1972 1.378 . S
C1970 C1974 1.350 . S
C1971 C1974 1.463 . S
C1971 C1976 1.350 . S
C1971 N1979 1.427 . S
C1972 H1963 0.930 . S
C1972 C1970 1.378 . S
C1972 C1973 1.367 . S
C1973 C1972 1.367 . S
C1973 C1975 1.433 . S
C1974 C1970 1.350 . S
C1974 C1971 1.463 . S
C1974 N1978 1.427 . S
C1975 H1965 0.929 . S
C1975 C1973 1.433 . S
C1975 N1978 1.384 . S
C1976 H1967 0.929 . S
C1976 C1968 1.378 . S
C1976 C1971 1.350 . S
C1977 H1964 0.929 . S
C1977 C1969 1.433 . S
C1977 N1979 1.384 . S
N1978 C1974 1.427 . S
N1978 C1975 1.384 . S
N1979 C1971 1.427 . S
N1979 C1977 1.384 . S
H1980 C1986 0.930 . S
H1981 C1990 0.930 . S
H1982 C1995 0.929 . S
H1983 C1993 0.929 . S
H1984 C1988 0.929 . S
H1985 C1994 0.929 . S
C1986 H1980 0.930 . S
C1986 C1987 1.367 . S
C1986 C1994 1.378 . S
C1987 C1986 1.367 . S
C1987 C1995 1.433 . S
C1988 H1984 0.929 . S
C1988 C1990 1.378 . S
C1988 C1992 1.350 . S
C1989 C1992 1.463 . S
C1989 C1994 1.350 . S
C1989 N1997 1.427 . S
C1990 H1981 0.930 . S
C1990 C1988 1.378 . S
C1990 C1991 1.367 . S
C1991 C1990 1.367 . S
C1991 C1993 1.433 . S
C1992 C1988 1.350 . S
C1992 C1989 1.463 . S
C1992 N1996 1.427 . S
C1993 H1983 0.929 . S
C1993 C1991 1.433 . S
C1993 N1996 1.384 . S
C1994 H1985 0.929 . S
C1994 C1986 1.378 . S
C1994 C1989 1.350 . S
C1995 H1982 0.929 . S
C1995 C1987 1.433 . S
C1995 N1997 1.384 . S
N1996 C1992 1.427 . S
N1996 C1993 1.384 . S
N1997 C1989 1.427 . S
N1997 C1995 1.384 . S
H1998 C2004 0.930 . S
H1999 C2008 0.930 . S
H2000 C2013 0.929 . S
H2001 C2011 0.929 . S
H2002 C2006 0.929 . S
H2003 C2012 0.929 . S
C2004 H1998 0.930 . S
C2004 C2005 1.367 . S
C2004 C2012 1.378 . S
C2005 C2004 1.367 . S
C2005 C2013 1.433 . S
C2006 H2002 0.929 . S
C2006 C2008 1.378 . S
C2006 C2010 1.350 . S
C2007 C2010 1.463 . S
C2007 C2012 1.350 . S
C2007 N2015 1.427 . S
C2008 H1999 0.930 . S
C2008 C2006 1.378 . S
C2008 C2009 1.367 . S
C2009 C2008 1.367 . S
C2009 C2011 1.433 . S
C2010 C2006 1.350 . S
C2010 C2007 1.463 . S
C2010 N2014 1.427 . S
C2011 H2001 0.929 . S
C2011 C2009 1.433 . S
C2011 N2014 1.384 . S
C2012 H2003 0.929 . S
C2012 C2004 1.378 . S
C2012 C2007 1.350 . S
C2013 H2000 0.929 . S
C2013 C2005 1.433 . S
C2013 N2015 1.384 . S
N2014 C2010 1.427 . S
N2014 C2011 1.384 . S
N2015 C2007 1.427 . S
N2015 C2013 1.384 . S
H2016 C2022 0.930 . S
H2017 C2026 0.930 1_545 S
H2018 C2031 0.929 . S
H2019 C2029 0.929 . S
H2020 C2024 0.929 . S
H2021 C2030 0.929 . S
C2022 H2016 0.930 . S
C2022 C2023 1.367 . S
C2022 C2030 1.378 . S
C2023 C2022 1.367 . S
C2023 C2031 1.433 . S
C2024 H2020 0.929 . S
C2024 C2026 1.378 . S
C2024 C2028 1.350 . S
C2025 C2028 1.463 . S
C2025 C2030 1.350 . S
C2025 N2033 1.427 . S
C2026 H2017 0.930 1_565 S
C2026 C2024 1.378 . S
C2026 C2027 1.367 . S
C2027 C2026 1.367 . S
C2027 C2029 1.433 . S
C2028 C2024 1.350 . S
C2028 C2025 1.463 . S
C2028 N2032 1.427 . S
C2029 H2019 0.929 . S
C2029 C2027 1.433 . S
C2029 N2032 1.384 . S
C2030 H2021 0.929 . S
C2030 C2022 1.378 . S
C2030 C2025 1.350 . S
C2031 H2018 0.929 . S
C2031 C2023 1.433 . S
C2031 N2033 1.384 . S
N2032 C2028 1.427 . S
N2032 C2029 1.384 . S
N2033 C2025 1.427 . S
N2033 C2031 1.384 . S
H2034 C2040 0.930 . S
H2035 C2044 0.930 1_655 S
H2036 C2049 0.929 . S
H2037 C2047 0.929 . S
H2038 C2042 0.929 . S
H2039 C2048 0.929 . S
C2040 H2034 0.930 . S
C2040 C2041 1.367 . S
C2040 C2048 1.378 . S
C2041 C2040 1.367 . S
C2041 C2049 1.433 . S
C2042 H2038 0.929 . S
C2042 C2044 1.378 . S
C2042 C2046 1.350 . S
C2043 C2046 1.463 . S
C2043 C2048 1.350 . S
C2043 N2051 1.427 . S
C2044 H2035 0.930 1_455 S
C2044 C2042 1.378 . S
C2044 C2045 1.367 . S
C2045 C2044 1.367 . S
C2045 C2047 1.433 . S
C2046 C2042 1.350 . S
C2046 C2043 1.463 . S
C2046 N2050 1.427 . S
C2047 H2037 0.929 . S
C2047 C2045 1.433 . S
C2047 N2050 1.384 . S
C2048 H2039 0.929 . S
C2048 C2040 1.378 . S
C2048 C2043 1.350 . S
C2049 H2036 0.929 . S
C2049 C2041 1.433 . S
C2049 N2051 1.384 . S
N2050 C2046 1.427 . S
N2050 C2047 1.384 . S
N2051 C2043 1.427 . S
N2051 C2049 1.384 . S
H2052 C2058 0.930 . S
H2053 C2062 0.930 . S
H2054 C2067 0.929 . S
H2055 C2065 0.929 1_455 S
H2056 C2060 0.929 . S
H2057 C2066 0.929 . S
C2058 H2052 0.930 . S
C2058 C2059 1.367 . S
C2058 C2066 1.378 . S
C2059 C2058 1.367 . S
C2059 C2067 1.433 . S
C2060 H2056 0.929 . S
C2060 C2062 1.378 . S
C2060 C2064 1.350 . S
C2061 C2064 1.463 . S
C2061 C2066 1.350 . S
C2061 N2069 1.427 . S
C2062 H2053 0.930 . S
C2062 C2060 1.378 . S
C2062 C2063 1.367 1_655 S
C2063 C2062 1.367 1_455 S
C2063 C2065 1.433 1_455 S
C2064 C2060 1.350 . S
C2064 C2061 1.463 . S
C2064 N2068 1.427 . S
C2065 H2055 0.929 1_655 S
C2065 C2063 1.433 1_655 S
C2065 N2068 1.384 . S
C2066 H2057 0.929 . S
C2066 C2058 1.378 . S
C2066 C2061 1.350 . S
C2067 H2054 0.929 . S
C2067 C2059 1.433 . S
C2067 N2069 1.384 . S
N2068 C2064 1.427 . S
N2068 C2065 1.384 . S
N2069 C2061 1.427 . S
N2069 C2067 1.384 . S
H2070 C2076 0.930 . S
H2071 C2080 0.930 . S
H2072 C2085 0.929 . S
H2073 C2083 0.929 . S
H2074 C2078 0.929 . S
H2075 C2084 0.929 . S
C2076 H2070 0.930 . S
C2076 C2077 1.367 . S
C2076 C2084 1.378 . S
C2077 C2076 1.367 . S
C2077 C2085 1.433 . S
C2078 H2074 0.929 . S
C2078 C2080 1.378 . S
C2078 C2082 1.350 . S
C2079 C2082 1.463 . S
C2079 C2084 1.350 . S
C2079 N2087 1.427 . S
C2080 H2071 0.930 . S
C2080 C2078 1.378 . S
C2080 C2081 1.367 . S
C2081 C2080 1.367 . S
C2081 C2083 1.433 . S
C2082 C2078 1.350 . S
C2082 C2079 1.463 . S
C2082 N2086 1.427 . S
C2083 H2073 0.929 . S
C2083 C2081 1.433 . S
C2083 N2086 1.384 . S
C2084 H2075 0.929 . S
C2084 C2076 1.378 . S
C2084 C2079 1.350 . S
C2085 H2072 0.929 . S
C2085 C2077 1.433 . S
C2085 N2087 1.384 . S
N2086 C2082 1.427 . S
N2086 C2083 1.384 . S
N2087 C2079 1.427 . S
N2087 C2085 1.384 . S
H2088 C2094 0.923 1_565 S
H2089 C2098 0.930 . S
H2090 C2103 0.929 . S
H2091 C2101 0.929 . S
H2092 C2096 0.929 . S
H2093 C2102 0.929 . S
C2094 H2088 0.923 1_545 S
C2094 C2095 1.357 1_545 S
C2094 C2102 1.396 . S
C2095 C2094 1.357 1_565 S
C2095 C2103 1.433 1_565 S
C2096 H2092 0.929 . S
C2096 C2098 1.378 . S
C2096 C2100 1.350 . S
C2097 C2100 1.463 . S
C2097 C2102 1.350 . S
C2097 N2105 1.427 . S
C2098 H2089 0.930 . S
C2098 C2096 1.378 . S
C2098 C2099 1.367 . S
C2099 C2098 1.367 . S
C2099 C2101 1.433 . S
C2100 C2096 1.350 . S
C2100 C2097 1.463 . S
C2100 N2104 1.427 . S
C2101 H2091 0.929 . S
C2101 C2099 1.433 . S
C2101 N2104 1.384 . S
C2102 H2093 0.929 . S
C2102 C2094 1.396 . S
C2102 C2097 1.350 . S
C2103 H2090 0.929 . S
C2103 C2095 1.433 1_545 S
C2103 N2105 1.384 . S
N2104 C2100 1.427 . S
N2104 C2101 1.384 . S
N2105 C2097 1.427 . S
N2105 C2103 1.384 . S
H2106 C2112 0.930 . S
H2107 C2116 0.930 . S
H2108 C2121 0.936 . S
H2109 C2119 0.929 . S
H2110 C2114 0.929 . S
H2111 C2120 0.929 . S
C2112 H2106 0.930 . S
C2112 C2113 1.367 . S
C2112 C2120 1.378 . S
C2113 C2112 1.367 . S
C2113 C2121 1.429 1_655 S
C2114 H2110 0.929 . S
C2114 C2116 1.378 . S
C2114 C2118 1.350 . S
C2115 C2118 1.463 . S
C2115 C2120 1.350 1_455 S
C2115 N2123 1.427 . S
C2116 H2107 0.930 . S
C2116 C2114 1.378 . S
C2116 C2117 1.367 . S
C2117 C2116 1.367 . S
C2117 C2119 1.433 . S
C2118 C2114 1.350 . S
C2118 C2115 1.463 . S
C2118 N2122 1.427 . S
C2119 H2109 0.929 . S
C2119 C2117 1.433 . S
C2119 N2122 1.384 . S
C2120 H2111 0.929 . S
C2120 C2112 1.378 . S
C2120 C2115 1.350 1_655 S
C2121 H2108 0.936 . S
C2121 C2113 1.429 1_455 S
C2121 N2123 1.380 . S
N2122 C2118 1.427 . S
N2122 C2119 1.384 . S
N2123 C2115 1.427 . S
N2123 C2121 1.380 . S
H2124 C2130 0.930 . S
H2125 C2134 0.930 . S
H2126 C2139 0.929 . S
H2127 C2137 0.929 . S
H2128 C2132 0.929 . S
H2129 C2138 0.929 . S
C2130 H2124 0.930 . S
C2130 C2131 1.367 . S
C2130 C2138 1.378 . S
C2131 C2130 1.367 . S
C2131 C2139 1.433 . S
C2132 H2128 0.929 . S
C2132 C2134 1.378 . S
C2132 C2136 1.350 . S
C2133 C2136 1.463 . S
C2133 C2138 1.350 . S
C2133 N2141 1.427 . S
C2134 H2125 0.930 . S
C2134 C2132 1.378 . S
C2134 C2135 1.367 . S
C2135 C2134 1.367 . S
C2135 C2137 1.433 . S
C2136 C2132 1.350 . S
C2136 C2133 1.463 . S
C2136 N2140 1.427 . S
C2137 H2127 0.929 . S
C2137 C2135 1.433 . S
C2137 N2140 1.384 . S
C2138 H2129 0.929 . S
C2138 C2130 1.378 . S
C2138 C2133 1.350 . S
C2139 H2126 0.929 . S
C2139 C2131 1.433 . S
C2139 N2141 1.384 . S
N2140 C2136 1.427 . S
N2140 C2137 1.384 . S
N2141 C2133 1.427 . S
N2141 C2139 1.384 . S
H2142 C2148 0.930 . S
H2143 C2152 0.930 1_545 S
H2144 C2157 0.929 . S
H2145 C2155 0.929 . S
H2146 C2150 0.929 . S
H2147 C2156 0.929 . S
C2148 H2142 0.930 . S
C2148 C2149 1.367 1_565 S
C2148 C2156 1.378 . S
C2149 C2148 1.367 1_545 S
C2149 C2157 1.433 . S
C2150 H2146 0.929 . S
C2150 C2152 1.378 1_545 S
C2150 C2154 1.350 1_545 S
C2151 C2154 1.463 . S
C2151 C2156 1.350 . S
C2151 N2159 1.427 1_565 S
C2152 H2143 0.930 1_565 S
C2152 C2150 1.378 1_565 S
C2152 C2153 1.367 . S
C2153 C2152 1.367 . S
C2153 C2155 1.433 . S
C2154 C2150 1.350 1_565 S
C2154 C2151 1.463 . S
C2154 N2158 1.427 . S
C2155 H2145 0.929 . S
C2155 C2153 1.433 . S
C2155 N2158 1.384 . S
C2156 H2147 0.929 . S
C2156 C2148 1.378 . S
C2156 C2151 1.350 . S
C2157 H2144 0.929 . S
C2157 C2149 1.433 . S
C2157 N2159 1.384 . S
N2158 C2154 1.427 . S
N2158 C2155 1.384 . S
N2159 C2151 1.427 1_545 S
N2159 C2157 1.384 . S
H2160 C2166 0.930 . S
H2161 C2170 0.930 . S
H2162 C2175 0.929 . S
H2163 C2173 0.929 . S
H2164 C2168 0.929 . S
H2165 C2174 0.929 . S
C2166 H2160 0.930 . S
C2166 C2167 1.367 . S
C2166 C2174 1.378 . S
C2167 C2166 1.367 . S
C2167 C2175 1.433 1_565 S
C2168 H2164 0.929 . S
C2168 C2170 1.378 . S
C2168 C2172 1.350 1_545 S
C2169 C2172 1.463 . S
C2169 C2174 1.350 . S
C2169 N2177 1.427 1_565 S
C2170 H2161 0.930 . S
C2170 C2168 1.378 . S
C2170 C2171 1.367 . S
C2171 C2170 1.367 . S
C2171 C2173 1.433 1_545 S
C2172 C2168 1.350 1_565 S
C2172 C2169 1.463 . S
C2172 N2176 1.427 . S
C2173 H2163 0.929 . S
C2173 C2171 1.433 1_565 S
C2173 N2176 1.384 . S
C2174 H2165 0.929 . S
C2174 C2166 1.378 . S
C2174 C2169 1.350 . S
C2175 H2162 0.929 . S
C2175 C2167 1.433 1_545 S
C2175 N2177 1.384 . S
N2176 C2172 1.427 . S
N2176 C2173 1.384 . S
N2177 C2169 1.427 1_545 S
N2177 C2175 1.384 . S
H2178 C2184 0.930 . S
H2179 C2188 0.930 . S
H2180 C2193 0.929 . S
H2181 C2191 0.929 . S
H2182 C2186 0.929 1_655 S
H2183 C2192 0.929 . S
C2184 H2178 0.930 . S
C2184 C2185 1.367 1_455 S
C2184 C2192 1.378 . S
C2185 C2184 1.367 1_655 S
C2185 C2193 1.433 . S
C2186 H2182 0.929 1_455 S
C2186 C2188 1.378 . S
C2186 C2190 1.350 . S
C2187 C2190 1.463 . S
C2187 C2192 1.350 . S
C2187 N2195 1.427 1_455 S
C2188 H2179 0.930 . S
C2188 C2186 1.378 . S
C2188 C2189 1.367 . S
C2189 C2188 1.367 . S
C2189 C2191 1.433 . S
C2190 C2186 1.350 . S
C2190 C2187 1.463 . S
C2190 N2194 1.427 . S
C2191 H2181 0.929 . S
C2191 C2189 1.433 . S
C2191 N2194 1.384 . S
C2192 H2183 0.929 . S
C2192 C2184 1.378 . S
C2192 C2187 1.350 . S
C2193 H2180 0.929 . S
C2193 C2185 1.433 . S
C2193 N2195 1.384 . S
N2194 C2190 1.427 . S
N2194 C2191 1.384 . S
N2195 C2187 1.427 1_655 S
N2195 C2193 1.384 . S
H2196 C2202 0.930 . S
H2197 C2206 0.930 . S
H2198 C2211 0.929 . S
H2199 C2209 0.929 . S
H2200 C2204 0.929 . S
H2201 C2210 0.929 . S
C2202 H2196 0.930 . S
C2202 C2203 1.367 . S
C2202 C2210 1.378 . S
C2203 C2202 1.367 . S
C2203 C2211 1.433 . S
C2204 H2200 0.929 . S
C2204 C2206 1.378 . S
C2204 C2208 1.350 . S
C2205 C2208 1.463 . S
C2205 C2210 1.350 . S
C2205 N2213 1.427 . S
C2206 H2197 0.930 . S
C2206 C2204 1.378 . S
C2206 C2207 1.367 . S
C2207 C2206 1.367 . S
C2207 C2209 1.433 . S
C2208 C2204 1.350 . S
C2208 C2205 1.463 . S
C2208 N2212 1.427 . S
C2209 H2199 0.929 . S
C2209 C2207 1.433 . S
C2209 N2212 1.384 . S
C2210 H2201 0.929 . S
C2210 C2202 1.378 . S
C2210 C2205 1.350 . S
C2211 H2198 0.929 . S
C2211 C2203 1.433 . S
C2211 N2213 1.384 . S
N2212 C2208 1.427 . S
N2212 C2209 1.384 . S
N2213 C2205 1.427 . S
N2213 C2211 1.384 . S
H2214 C2220 0.930 . S
H2215 C2224 0.930 . S
H2216 C2229 0.929 . S
H2217 C2227 0.929 . S
H2218 C2222 1.014 . S
H2219 C2228 0.838 1_554 S
C2220 H2214 0.930 . S
C2220 C2221 1.367 . S
C2220 C2228 1.445 1_565 S
C2221 C2220 1.367 . S
C2221 C2229 1.433 1_565 S
C2222 H2218 1.014 . S
C2222 C2224 1.325 1_556 S
C2222 C2226 1.326 1_556 S
C2223 C2226 1.463 1_556 S
C2223 C2228 1.386 . S
C2223 N2231 1.427 . S
C2224 H2215 0.930 . S
C2224 C2222 1.325 1_554 S
C2224 C2225 1.367 . S
C2225 C2224 1.367 . S
C2225 C2227 1.433 . S
C2226 C2222 1.326 1_554 S
C2226 C2223 1.463 1_554 S
C2226 N2230 1.427 . S
C2227 H2217 0.929 . S
C2227 C2225 1.433 . S
C2227 N2230 1.384 . S
C2228 H2219 0.838 1_556 S
C2228 C2220 1.445 1_545 S
C2228 C2223 1.386 . S
C2229 H2216 0.929 . S
C2229 C2221 1.433 1_545 S
C2229 N2231 1.384 . S
N2230 C2226 1.427 . S
N2230 C2227 1.384 . S
N2231 C2223 1.427 . S
N2231 C2229 1.384 . S
H2232 C2238 0.930 . S
H2233 C2242 0.930 . S
H2234 C2247 0.942 . S
H2235 C2245 0.929 . S
H2236 C2240 0.929 . S
H2237 C2246 0.929 . S
C2238 H2232 0.930 . S
C2238 C2239 1.367 . S
C2238 C2246 1.378 . S
C2239 C2238 1.367 . S
C2239 C2247 1.433 . S
C2240 H2236 0.929 . S
C2240 C2242 1.378 . S
C2240 C2244 1.350 . S
C2241 C2244 1.463 1_554 S
C2241 C2246 1.350 . S
C2241 N2249 1.427 1_554 S
C2242 H2233 0.930 . S
C2242 C2240 1.378 . S
C2242 C2243 1.367 1_655 S
C2243 C2242 1.367 1_455 S
C2243 C2245 1.433 . S
C2244 C2240 1.350 . S
C2244 C2241 1.463 1_556 S
C2244 N2248 1.414 1_556 S
C2245 H2235 0.929 . S
C2245 C2243 1.433 . S
C2245 N2248 1.368 1_456 S
C2246 H2237 0.929 . S
C2246 C2238 1.378 . S
C2246 C2241 1.350 . S
C2247 H2234 0.942 . S
C2247 C2239 1.433 . S
C2247 N2249 1.384 1_554 S
N2248 C2244 1.414 1_554 S
N2248 C2245 1.368 1_654 S
N2249 C2241 1.427 1_556 S
N2249 C2247 1.384 1_556 S
H2250 C2256 0.930 . S
H2251 C2260 0.930 . S
H2252 C2265 0.929 . S
H2253 C2263 0.929 . S
H2254 C2258 0.929 . S
H2255 C2264 0.929 . S
C2256 H2250 0.930 . S
C2256 C2257 1.367 . S
C2256 C2264 1.378 . S
C2257 C2256 1.367 . S
C2257 C2265 1.433 . S
C2258 H2254 0.929 . S
C2258 C2260 1.378 . S
C2258 C2262 1.350 . S
C2259 C2262 1.463 1_554 S
C2259 C2264 1.350 . S
C2259 N2267 1.418 1_554 S
C2260 H2251 0.930 . S
C2260 C2258 1.378 . S
C2260 C2261 1.367 . S
C2261 C2260 1.367 . S
C2261 C2263 1.433 . S
C2262 C2258 1.350 . S
C2262 C2259 1.463 1_556 S
C2262 N2266 1.427 . S
C2263 H2253 0.929 . S
C2263 C2261 1.433 . S
C2263 N2266 1.384 . S
C2264 H2255 0.929 . S
C2264 C2256 1.378 . S
C2264 C2259 1.350 . S
C2265 H2252 0.929 . S
C2265 C2257 1.433 . S
C2265 N2267 1.362 1_554 S
N2266 C2262 1.427 . S
N2266 C2263 1.384 . S
N2267 C2259 1.418 1_556 S
N2267 C2265 1.362 1_556 S
H2268 C2274 0.930 . S
H2269 C2278 0.930 . S
H2270 C2283 0.929 . S
H2271 C2281 0.929 . S
H2272 C2276 0.929 . S
H2273 C2282 0.929 . S
C2274 H2268 0.930 . S
C2274 C2275 1.367 . S
C2274 C2282 1.378 . S
C2275 C2274 1.367 . S
C2275 C2283 1.433 1_545 S
C2276 H2272 0.929 . S
C2276 C2278 1.378 . S
C2276 C2280 1.350 1_565 S
C2277 C2280 1.463 . S
C2277 C2282 1.350 . S
C2277 N2285 1.427 1_545 S
C2278 H2269 0.930 . S
C2278 C2276 1.378 . S
C2278 C2279 1.367 . S
C2279 C2278 1.367 . S
C2279 C2281 1.433 1_565 S
C2280 C2276 1.350 1_545 S
C2280 C2277 1.463 . S
C2280 N2284 1.427 . S
C2281 H2271 0.929 . S
C2281 C2279 1.433 1_545 S
C2281 N2284 1.384 . S
C2282 H2273 0.929 . S
C2282 C2274 1.378 . S
C2282 C2277 1.350 . S
C2283 H2270 0.929 . S
C2283 C2275 1.433 1_565 S
C2283 N2285 1.384 . S
N2284 C2280 1.427 . S
N2284 C2281 1.384 . S
N2285 C2277 1.427 1_565 S
N2285 C2283 1.384 . S
H2286 C2292 0.930 . S
H2287 C2296 0.930 . S
H2288 C2301 0.929 . S
H2289 C2299 0.929 . S
H2290 C2294 0.929 . S
H2291 C2300 0.929 . S
C2292 H2286 0.930 . S
C2292 C2293 1.367 . S
C2292 C2300 1.378 . S
C2293 C2292 1.367 . S
C2293 C2301 1.433 . S
C2294 H2290 0.929 . S
C2294 C2296 1.378 1_655 S
C2294 C2298 1.350 . S
C2295 C2298 1.463 . S
C2295 C2300 1.350 . S
C2295 N2303 1.427 . S
C2296 H2287 0.930 . S
C2296 C2294 1.378 1_455 S
C2296 C2297 1.367 . S
C2297 C2296 1.367 . S
C2297 C2299 1.433 . S
C2298 C2294 1.350 . S
C2298 C2295 1.463 . S
C2298 N2302 1.427 1_655 S
C2299 H2289 0.929 . S
C2299 C2297 1.433 . S
C2299 N2302 1.384 . S
C2300 H2291 0.929 . S
C2300 C2292 1.378 . S
C2300 C2295 1.350 . S
C2301 H2288 0.929 . S
C2301 C2293 1.433 . S
C2301 N2303 1.384 . S
N2302 C2298 1.427 1_455 S
N2302 C2299 1.384 . S
N2303 C2295 1.427 . S
N2303 C2301 1.384 . S
H2304 C2310 0.930 . S
H2305 C2314 0.930 . S
H2306 C2319 0.929 . S
H2307 C2317 0.929 . S
H2308 C2312 0.929 . S
H2309 C2318 0.929 . S
C2310 H2304 0.930 . S
C2310 C2311 1.367 . S
C2310 C2318 1.378 . S
C2311 C2310 1.367 . S
C2311 C2319 1.433 . S
C2312 H2308 0.929 . S
C2312 C2314 1.378 . S
C2312 C2316 1.350 . S
C2313 C2316 1.463 . S
C2313 C2318 1.350 . S
C2313 N2321 1.427 . S
C2314 H2305 0.930 . S
C2314 C2312 1.378 . S
C2314 C2315 1.367 . S
C2315 C2314 1.367 . S
C2315 C2317 1.433 . S
C2316 C2312 1.350 . S
C2316 C2313 1.463 . S
C2316 N2320 1.427 . S
C2317 H2307 0.929 . S
C2317 C2315 1.433 . S
C2317 N2320 1.384 . S
C2318 H2309 0.929 . S
C2318 C2310 1.378 . S
C2318 C2313 1.350 . S
C2319 H2306 0.929 . S
C2319 C2311 1.433 . S
C2319 N2321 1.384 . S
N2320 C2316 1.427 . S
N2320 C2317 1.384 . S
N2321 C2313 1.427 . S
N2321 C2319 1.384 . S
H2322 C2328 0.931 1_554 S
H2323 C2332 0.930 . S
H2324 C2337 0.929 . S
H2325 C2335 0.929 . S
H2326 C2330 0.993 . S
H2327 C2336 0.929 . S
C2328 H2322 0.931 1_556 S
C2328 C2329 1.367 . S
C2328 C2336 1.378 1_556 S
C2329 C2328 1.367 . S
C2329 C2337 1.433 . S
C2330 H2326 0.993 . S
C2330 C2332 1.343 1_566 S
C2330 C2334 1.322 1_556 S
C2331 C2334 1.463 1_556 S
C2331 C2336 1.350 1_556 S
C2331 N2339 1.427 . S
C2332 H2323 0.930 . S
C2332 C2330 1.343 1_544 S
C2332 C2333 1.367 . S
C2333 C2332 1.367 . S
C2333 C2335 1.433 1_545 S
C2334 C2330 1.322 1_554 S
C2334 C2331 1.463 1_554 S
C2334 N2338 1.427 . S
C2335 H2325 0.929 . S
C2335 C2333 1.433 1_565 S
C2335 N2338 1.384 . S
C2336 H2327 0.929 . S
C2336 C2328 1.378 1_554 S
C2336 C2331 1.350 1_554 S
C2337 H2324 0.929 . S
C2337 C2329 1.433 . S
C2337 N2339 1.384 . S
N2338 C2334 1.427 . S
N2338 C2335 1.384 . S
N2339 C2331 1.427 . S
N2339 C2337 1.384 . S
H2340 C2346 0.958 . S
H2341 C2350 0.930 1_554 S
H2342 C2355 0.929 . S
H2343 C2353 0.929 . S
H2344 C2348 0.929 . S
H2345 C2354 0.929 . S
C2346 H2340 0.958 . S
C2346 C2347 1.367 . S
C2346 C2354 1.378 1_654 S
C2347 C2346 1.367 . S
C2347 C2355 1.433 1_655 S
C2348 H2344 0.929 . S
C2348 C2350 1.378 1_554 S
C2348 C2352 1.350 1_554 S
C2349 C2352 1.463 1_554 S
C2349 C2354 1.350 1_554 S
C2349 N2357 1.427 . S
C2350 H2341 0.930 1_556 S
C2350 C2348 1.378 1_556 S
C2350 C2351 1.367 . S
C2351 C2350 1.367 . S
C2351 C2353 1.433 . S
C2352 C2348 1.350 1_556 S
C2352 C2349 1.463 1_556 S
C2352 N2356 1.427 . S
C2353 H2343 0.929 . S
C2353 C2351 1.433 . S
C2353 N2356 1.384 . S
C2354 H2345 0.929 . S
C2354 C2346 1.378 1_456 S
C2354 C2349 1.350 1_556 S
C2355 H2342 0.929 . S
C2355 C2347 1.433 1_455 S
C2355 N2357 1.384 . S
N2356 C2352 1.427 . S
N2356 C2353 1.384 . S
N2357 C2349 1.427 . S
N2357 C2355 1.384 . S
H2358 C2364 0.887 1_554 S
H2359 C2368 0.993 . S
H2360 C2373 0.929 . S
H2361 C2371 0.929 . S
H2362 C2366 1.060 . S
H2363 C2372 0.929 . S
C2364 H2358 0.887 1_556 S
C2364 C2365 1.367 . S
C2364 C2372 1.378 1_556 S
C2365 C2364 1.367 . S
C2365 C2373 1.433 . S
C2366 H2362 1.060 . S
C2366 C2368 1.313 1_556 S
C2366 C2370 1.293 1_556 S
C2367 C2370 1.463 1_556 S
C2367 C2372 1.350 1_556 S
C2367 N2375 1.427 . S
C2368 H2359 0.993 . S
C2368 C2366 1.313 1_554 S
C2368 C2369 1.367 . S
C2369 C2368 1.367 . S
C2369 C2371 1.433 . S
C2370 C2366 1.293 1_554 S
C2370 C2367 1.463 1_554 S
C2370 N2374 1.427 . S
C2371 H2361 0.929 . S
C2371 C2369 1.433 . S
C2371 N2374 1.384 . S
C2372 H2363 0.929 . S
C2372 C2364 1.378 1_554 S
C2372 C2367 1.350 1_554 S
C2373 H2360 0.929 . S
C2373 C2365 1.433 . S
C2373 N2375 1.384 . S
N2374 C2370 1.427 . S
N2374 C2371 1.384 . S
N2375 C2367 1.427 . S
N2375 C2373 1.384 . S
H2376 C2382 0.937 . S
H2377 C2386 0.930 . S
H2378 C2391 0.929 . S
H2379 C2389 0.929 . S
H2380 C2384 0.929 . S
H2381 C2390 0.929 . S
C2382 H2376 0.937 . S
C2382 C2383 1.379 . S
C2382 C2390 1.359 1_655 S
C2383 C2382 1.379 . S
C2383 C2391 1.433 1_655 S
C2384 H2380 0.929 . S
C2384 C2386 1.378 . S
C2384 C2388 1.350 . S
C2385 C2388 1.463 . S
C2385 C2390 1.350 . S
C2385 N2393 1.427 . S
C2386 H2377 0.930 . S
C2386 C2384 1.378 . S
C2386 C2387 1.367 . S
C2387 C2386 1.367 . S
C2387 C2389 1.433 . S
C2388 C2384 1.350 . S
C2388 C2385 1.463 . S
C2388 N2392 1.427 . S
C2389 H2379 0.929 . S
C2389 C2387 1.433 . S
C2389 N2392 1.384 . S
C2390 H2381 0.929 . S
C2390 C2382 1.359 1_455 S
C2390 C2385 1.350 . S
C2391 H2378 0.929 . S
C2391 C2383 1.433 1_455 S
C2391 N2393 1.384 . S
N2392 C2388 1.427 . S
N2392 C2389 1.384 . S
N2393 C2385 1.427 . S
N2393 C2391 1.384 . S
H2394 C2400 0.930 . S
H2395 C2404 0.930 . S
H2396 C2409 0.929 . S
H2397 C2407 0.929 . S
H2398 C2402 0.929 . S
H2399 C2408 0.929 . S
C2400 H2394 0.930 . S
C2400 C2401 1.367 . S
C2400 C2408 1.378 . S
C2401 C2400 1.367 . S
C2401 C2409 1.433 . S
C2402 H2398 0.929 . S
C2402 C2404 1.378 . S
C2402 C2406 1.350 . S
C2403 C2406 1.463 . S
C2403 C2408 1.350 . S
C2403 N2411 1.427 . S
C2404 H2395 0.930 . S
C2404 C2402 1.378 . S
C2404 C2405 1.367 . S
C2405 C2404 1.367 . S
C2405 C2407 1.433 . S
C2406 C2402 1.350 . S
C2406 C2403 1.463 . S
C2406 N2410 1.427 . S
C2407 H2397 0.929 . S
C2407 C2405 1.433 . S
C2407 N2410 1.384 . S
C2408 H2399 0.929 . S
C2408 C2400 1.378 . S
C2408 C2403 1.350 . S
C2409 H2396 0.929 . S
C2409 C2401 1.433 . S
C2409 N2411 1.384 . S
N2410 C2406 1.427 . S
N2410 C2407 1.384 . S
N2411 C2403 1.427 . S
N2411 C2409 1.384 . S
H2412 C2418 0.930 . S
H2413 C2422 0.930 . S
H2414 C2427 0.929 . S
H2415 C2425 0.929 . S
H2416 C2420 0.929 . S
H2417 C2426 0.929 . S
C2418 H2412 0.930 . S
C2418 C2419 1.367 . S
C2418 C2426 1.378 . S
C2419 C2418 1.367 . S
C2419 C2427 1.433 . S
C2420 H2416 0.929 . S
C2420 C2422 1.378 1_565 S
C2420 C2424 1.350 . S
C2421 C2424 1.463 . S
C2421 C2426 1.350 . S
C2421 N2429 1.427 . S
C2422 H2413 0.930 . S
C2422 C2420 1.378 1_545 S
C2422 C2423 1.367 . S
C2423 C2422 1.367 . S
C2423 C2425 1.433 1_545 S
C2424 C2420 1.350 . S
C2424 C2421 1.463 . S
C2424 N2428 1.427 . S
C2425 H2415 0.929 . S
C2425 C2423 1.433 1_565 S
C2425 N2428 1.384 . S
C2426 H2417 0.929 . S
C2426 C2418 1.378 . S
C2426 C2421 1.350 . S
C2427 H2414 0.929 . S
C2427 C2419 1.433 . S
C2427 N2429 1.384 . S
N2428 C2424 1.427 . S
N2428 C2425 1.384 . S
N2429 C2421 1.427 . S
N2429 C2427 1.384 . S
H2430 C2436 0.930 . S
H2431 C2440 0.930 . S
H2432 C2445 0.929 . S
H2433 C2443 0.929 . S
H2434 C2438 0.929 . S
H2435 C2444 0.929 . S
C2436 H2430 0.930 . S
C2436 C2437 1.367 . S
C2436 C2444 1.378 . S
C2437 C2436 1.367 . S
C2437 C2445 1.433 . S
C2438 H2434 0.929 . S
C2438 C2440 1.378 1_655 S
C2438 C2442 1.350 . S
C2439 C2442 1.463 . S
C2439 C2444 1.350 . S
C2439 N2447 1.427 . S
C2440 H2431 0.930 . S
C2440 C2438 1.378 1_455 S
C2440 C2441 1.367 . S
C2441 C2440 1.367 . S
C2441 C2443 1.433 . S
C2442 C2438 1.350 . S
C2442 C2439 1.463 . S
C2442 N2446 1.425 1_655 S
C2443 H2433 0.929 . S
C2443 C2441 1.433 . S
C2443 N2446 1.380 . S
C2444 H2435 0.929 . S
C2444 C2436 1.378 . S
C2444 C2439 1.350 . S
C2445 H2432 0.929 . S
C2445 C2437 1.433 . S
C2445 N2447 1.384 . S
N2446 C2442 1.425 1_455 S
N2446 C2443 1.380 . S
N2447 C2439 1.427 . S
N2447 C2445 1.384 . S
H2448 C2454 0.930 . S
H2449 C2458 0.930 . S
H2450 C2463 0.929 . S
H2451 C2461 0.929 . S
H2452 C2456 0.929 . S
H2453 C2462 0.929 . S
C2454 H2448 0.930 . S
C2454 C2455 1.367 . S
C2454 C2462 1.378 . S
C2455 C2454 1.367 . S
C2455 C2463 1.433 . S
C2456 H2452 0.929 . S
C2456 C2458 1.378 . S
C2456 C2460 1.350 . S
C2457 C2460 1.463 . S
C2457 C2462 1.350 . S
C2457 N2465 1.427 . S
C2458 H2449 0.930 . S
C2458 C2456 1.378 . S
C2458 C2459 1.367 . S
C2459 C2458 1.367 . S
C2459 C2461 1.433 . S
C2460 C2456 1.350 . S
C2460 C2457 1.463 . S
C2460 N2464 1.427 . S
C2461 H2451 0.929 . S
C2461 C2459 1.433 . S
C2461 N2464 1.384 . S
C2462 H2453 0.929 . S
C2462 C2454 1.378 . S
C2462 C2457 1.350 . S
C2463 H2450 0.929 . S
C2463 C2455 1.433 . S
C2463 N2465 1.384 . S
N2464 C2460 1.427 . S
N2464 C2461 1.384 . S
N2465 C2457 1.427 . S
N2465 C2463 1.384 . S
H2466 C2472 0.930 . S
H2467 C2476 0.930 . S
H2468 C2481 0.929 . S
H2469 C2479 0.929 . S
H2470 C2474 0.929 . S
H2471 C2480 0.929 . S
C2472 H2466 0.930 . S
C2472 C2473 1.367 . S
C2472 C2480 1.378 . S
C2473 C2472 1.367 . S
C2473 C2481 1.433 . S
C2474 H2470 0.929 . S
C2474 C2476 1.378 . S
C2474 C2478 1.350 1_565 S
C2475 C2478 1.463 . S
C2475 C2480 1.350 . S
C2475 N2483 1.427 . S
C2476 H2467 0.930 . S
C2476 C2474 1.378 . S
C2476 C2477 1.367 . S
C2477 C2476 1.367 . S
C2477 C2479 1.433 1_565 S
C2478 C2474 1.350 1_545 S
C2478 C2475 1.463 . S
C2478 N2482 1.427 . S
C2479 H2469 0.929 . S
C2479 C2477 1.433 1_545 S
C2479 N2482 1.384 . S
C2480 H2471 0.929 . S
C2480 C2472 1.378 . S
C2480 C2475 1.350 . S
C2481 H2468 0.929 . S
C2481 C2473 1.433 . S
C2481 N2483 1.384 . S
N2482 C2478 1.427 . S
N2482 C2479 1.384 . S
N2483 C2475 1.427 . S
N2483 C2481 1.384 . S
H2484 C2490 0.930 . S
H2485 C2494 0.930 . S
H2486 C2499 0.929 . S
H2487 C2497 0.929 . S
H2488 C2492 0.929 1_655 S
H2489 C2498 0.929 1_455 S
C2490 H2484 0.930 . S
C2490 C2491 1.367 . S
C2490 C2498 1.378 . S
C2491 C2490 1.367 . S
C2491 C2499 1.433 . S
C2492 H2488 0.929 1_455 S
C2492 C2494 1.378 . S
C2492 C2496 1.350 . S
C2493 C2496 1.463 1_655 S
C2493 C2498 1.350 . S
C2493 N2501 1.427 . S
C2494 H2485 0.930 . S
C2494 C2492 1.378 . S
C2494 C2495 1.367 . S
C2495 C2494 1.367 . S
C2495 C2497 1.433 . S
C2496 C2492 1.350 . S
C2496 C2493 1.463 1_455 S
C2496 N2500 1.427 . S
C2497 H2487 0.929 . S
C2497 C2495 1.433 . S
C2497 N2500 1.384 . S
C2498 H2489 0.929 1_655 S
C2498 C2490 1.378 . S
C2498 C2493 1.350 . S
C2499 H2486 0.929 . S
C2499 C2491 1.433 . S
C2499 N2501 1.384 . S
N2500 C2496 1.427 . S
N2500 C2497 1.384 . S
N2501 C2493 1.427 . S
N2501 C2499 1.384 . S
H2502 C2508 0.930 . S
H2503 C2512 0.930 . S
H2504 C2517 0.929 . S
H2505 C2515 0.929 . S
H2506 C2510 0.929 . S
H2507 C2516 0.929 . S
C2508 H2502 0.930 . S
C2508 C2509 1.367 . S
C2508 C2516 1.378 . S
C2509 C2508 1.367 . S
C2509 C2517 1.433 . S
C2510 H2506 0.929 . S
C2510 C2512 1.378 . S
C2510 C2514 1.350 . S
C2511 C2514 1.463 . S
C2511 C2516 1.350 . S
C2511 N2519 1.427 . S
C2512 H2503 0.930 . S
C2512 C2510 1.378 . S
C2512 C2513 1.367 . S
C2513 C2512 1.367 . S
C2513 C2515 1.433 . S
C2514 C2510 1.350 . S
C2514 C2511 1.463 . S
C2514 N2518 1.427 . S
C2515 H2505 0.929 . S
C2515 C2513 1.433 . S
C2515 N2518 1.384 . S
C2516 H2507 0.929 . S
C2516 C2508 1.378 . S
C2516 C2511 1.350 . S
C2517 H2504 0.929 . S
C2517 C2509 1.433 . S
C2517 N2519 1.384 . S
N2518 C2514 1.427 . S
N2518 C2515 1.384 . S
N2519 C2511 1.427 . S
N2519 C2517 1.384 . S
H2520 C2526 0.930 . S
H2521 C2530 0.930 . S
H2522 C2535 0.929 . S
H2523 C2533 0.929 . S
H2524 C2528 0.929 1_565 S
H2525 C2534 0.929 1_545 S
C2526 H2520 0.930 . S
C2526 C2527 1.367 . S
C2526 C2534 1.378 . S
C2527 C2526 1.367 . S
C2527 C2535 1.433 . S
C2528 H2524 0.929 1_545 S
C2528 C2530 1.378 . S
C2528 C2532 1.350 . S
C2529 C2532 1.463 1_565 S
C2529 C2534 1.350 . S
C2529 N2537 1.427 . S
C2530 H2521 0.930 . S
C2530 C2528 1.378 . S
C2530 C2531 1.367 . S
C2531 C2530 1.367 . S
C2531 C2533 1.433 . S
C2532 C2528 1.350 . S
C2532 C2529 1.463 1_545 S
C2532 N2536 1.427 . S
C2533 H2523 0.929 . S
C2533 C2531 1.433 . S
C2533 N2536 1.384 . S
C2534 H2525 0.929 1_565 S
C2534 C2526 1.378 . S
C2534 C2529 1.350 . S
C2535 H2522 0.929 . S
C2535 C2527 1.433 . S
C2535 N2537 1.384 . S
N2536 C2532 1.427 . S
N2536 C2533 1.384 . S
N2537 C2529 1.427 . S
N2537 C2535 1.384 . S
H2538 C2544 0.930 . S
H2539 C2548 0.930 . S
H2540 C2553 0.929 . S
H2541 C2551 0.929 . S
H2542 C2546 0.929 . S
H2543 C2552 0.929 . S
C2544 H2538 0.930 . S
C2544 C2545 1.367 . S
C2544 C2552 1.378 1_655 S
C2545 C2544 1.367 . S
C2545 C2553 1.433 . S
C2546 H2542 0.929 . S
C2546 C2548 1.378 1_655 S
C2546 C2550 1.350 1_655 S
C2547 C2550 1.463 1_655 S
C2547 C2552 1.350 1_655 S
C2547 N2555 1.427 . S
C2548 H2539 0.930 . S
C2548 C2546 1.378 1_455 S
C2548 C2549 1.367 . S
C2549 C2548 1.367 . S
C2549 C2551 1.433 . S
C2550 C2546 1.350 1_455 S
C2550 C2547 1.463 1_455 S
C2550 N2554 1.427 . S
C2551 H2541 0.929 . S
C2551 C2549 1.433 . S
C2551 N2554 1.384 . S
C2552 H2543 0.929 . S
C2552 C2544 1.378 1_455 S
C2552 C2547 1.350 1_455 S
C2553 H2540 0.929 . S
C2553 C2545 1.433 . S
C2553 N2555 1.384 . S
N2554 C2550 1.427 . S
N2554 C2551 1.384 . S
N2555 C2547 1.427 . S
N2555 C2553 1.384 . S
H2556 C2562 0.930 . S
H2557 C2566 0.930 . S
H2558 C2571 0.929 . S
H2559 C2569 0.929 . S
H2560 C2564 0.929 . S
H2561 C2570 0.929 . S
C2562 H2556 0.930 . S
C2562 C2563 1.367 . S
C2562 C2570 1.378 . S
C2563 C2562 1.367 . S
C2563 C2571 1.433 . S
C2564 H2560 0.929 . S
C2564 C2566 1.378 . S
C2564 C2568 1.350 . S
C2565 C2568 1.463 . S
C2565 C2570 1.350 . S
C2565 N2573 1.427 . S
C2566 H2557 0.930 . S
C2566 C2564 1.378 . S
C2566 C2567 1.367 . S
C2567 C2566 1.367 . S
C2567 C2569 1.433 . S
C2568 C2564 1.350 . S
C2568 C2565 1.463 . S
C2568 N2572 1.427 . S
C2569 H2559 0.929 . S
C2569 C2567 1.433 . S
C2569 N2572 1.384 . S
C2570 H2561 0.929 . S
C2570 C2562 1.378 . S
C2570 C2565 1.350 . S
C2571 H2558 0.929 . S
C2571 C2563 1.433 . S
C2571 N2573 1.384 . S
N2572 C2568 1.427 . S
N2572 C2569 1.384 . S
N2573 C2565 1.427 . S
N2573 C2571 1.384 . S
H2574 C2580 0.930 . S
H2575 C2584 0.930 . S
H2576 C2589 0.929 . S
H2577 C2587 0.929 . S
H2578 C2582 0.929 . S
H2579 C2588 0.929 . S
C2580 H2574 0.930 . S
C2580 C2581 1.367 . S
C2580 C2588 1.378 1_545 S
C2581 C2580 1.367 . S
C2581 C2589 1.433 . S
C2582 H2578 0.929 . S
C2582 C2584 1.378 1_545 S
C2582 C2586 1.350 1_545 S
C2583 C2586 1.463 1_545 S
C2583 C2588 1.350 1_545 S
C2583 N2591 1.427 . S
C2584 H2575 0.930 . S
C2584 C2582 1.378 1_565 S
C2584 C2585 1.367 . S
C2585 C2584 1.367 . S
C2585 C2587 1.433 . S
C2586 C2582 1.350 1_565 S
C2586 C2583 1.463 1_565 S
C2586 N2590 1.427 . S
C2587 H2577 0.929 . S
C2587 C2585 1.433 . S
C2587 N2590 1.384 . S
C2588 H2579 0.929 . S
C2588 C2580 1.378 1_565 S
C2588 C2583 1.350 1_565 S
C2589 H2576 0.929 . S
C2589 C2581 1.433 . S
C2589 N2591 1.384 . S
N2590 C2586 1.427 . S
N2590 C2587 1.384 . S
N2591 C2583 1.427 . S
N2591 C2589 1.384 . S
H2592 C2598 0.930 . S
H2593 C2602 0.930 . S
H2594 C2607 0.929 . S
H2595 C2605 0.929 . S
H2596 C2600 0.929 . S
H2597 C2606 0.929 . S
C2598 H2592 0.930 . S
C2598 C2599 1.367 . S
C2598 C2606 1.378 . S
C2599 C2598 1.367 . S
C2599 C2607 1.433 . S
C2600 H2596 0.929 . S
C2600 C2602 1.378 . S
C2600 C2604 1.350 . S
C2601 C2604 1.463 . S
C2601 C2606 1.350 . S
C2601 N2609 1.427 . S
C2602 H2593 0.930 . S
C2602 C2600 1.378 . S
C2602 C2603 1.367 . S
C2603 C2602 1.367 . S
C2603 C2605 1.433 . S
C2604 C2600 1.350 . S
C2604 C2601 1.463 . S
C2604 N2608 1.427 . S
C2605 H2595 0.929 . S
C2605 C2603 1.433 . S
C2605 N2608 1.384 . S
C2606 H2597 0.929 . S
C2606 C2598 1.378 . S
C2606 C2601 1.350 . S
C2607 H2594 0.929 . S
C2607 C2599 1.433 . S
C2607 N2609 1.384 . S
N2608 C2604 1.427 . S
N2608 C2605 1.384 . S
N2609 C2601 1.427 . S
N2609 C2607 1.384 . S
H2610 C2616 0.930 . S
H2611 C2620 0.930 . S
H2612 C2625 0.929 1_565 S
H2613 C2623 0.929 . S
H2614 C2618 0.929 . S
H2615 C2624 0.929 . S
C2616 H2610 0.930 . S
C2616 C2617 1.367 . S
C2616 C2624 1.378 . S
C2617 C2616 1.367 . S
C2617 C2625 1.433 . S
C2618 H2614 0.929 . S
C2618 C2620 1.378 . S
C2618 C2622 1.350 . S
C2619 C2622 1.463 . S
C2619 C2624 1.350 . S
C2619 N2627 1.427 . S
C2620 H2611 0.930 . S
C2620 C2618 1.378 . S
C2620 C2621 1.367 . S
C2621 C2620 1.367 . S
C2621 C2623 1.433 . S
C2622 C2618 1.350 . S
C2622 C2619 1.463 . S
C2622 N2626 1.427 . S
C2623 H2613 0.929 . S
C2623 C2621 1.433 . S
C2623 N2626 1.384 . S
C2624 H2615 0.929 . S
C2624 C2616 1.378 . S
C2624 C2619 1.350 . S
C2625 H2612 0.929 1_545 S
C2625 C2617 1.433 . S
C2625 N2627 1.384 . S
N2626 C2622 1.427 . S
N2626 C2623 1.384 . S
N2627 C2619 1.427 . S
N2627 C2625 1.384 . S
H2628 C2634 0.930 . S
H2629 C2638 0.930 . S
H2630 C2643 0.929 1_455 S
H2631 C2641 0.929 . S
H2632 C2636 0.929 . S
H2633 C2642 0.929 . S
C2634 H2628 0.930 . S
C2634 C2635 1.367 . S
C2634 C2642 1.378 . S
C2635 C2634 1.367 . S
C2635 C2643 1.433 . S
C2636 H2632 0.929 . S
C2636 C2638 1.378 . S
C2636 C2640 1.350 . S
C2637 C2640 1.463 . S
C2637 C2642 1.350 . S
C2637 N2645 1.427 . S
C2638 H2629 0.930 . S
C2638 C2636 1.378 . S
C2638 C2639 1.367 . S
C2639 C2638 1.367 . S
C2639 C2641 1.433 . S
C2640 C2636 1.350 . S
C2640 C2637 1.463 . S
C2640 N2644 1.427 . S
C2641 H2631 0.929 . S
C2641 C2639 1.433 . S
C2641 N2644 1.384 . S
C2642 H2633 0.929 . S
C2642 C2634 1.378 . S
C2642 C2637 1.350 . S
C2643 H2630 0.929 1_655 S
C2643 C2635 1.433 . S
C2643 N2645 1.384 . S
N2644 C2640 1.427 . S
N2644 C2641 1.384 . S
N2645 C2637 1.427 . S
N2645 C2643 1.384 . S
H2646 C2652 0.930 . S
H2647 C2656 0.930 . S
H2648 C2661 0.929 . S
H2649 C2659 0.929 . S
H2650 C2654 0.929 . S
H2651 C2660 0.929 . S
C2652 H2646 0.930 . S
C2652 C2653 1.367 . S
C2652 C2660 1.378 . S
C2653 C2652 1.367 . S
C2653 C2661 1.433 . S
C2654 H2650 0.929 . S
C2654 C2656 1.378 . S
C2654 C2658 1.350 . S
C2655 C2658 1.463 . S
C2655 C2660 1.350 . S
C2655 N2663 1.427 . S
C2656 H2647 0.930 . S
C2656 C2654 1.378 . S
C2656 C2657 1.367 . S
C2657 C2656 1.367 . S
C2657 C2659 1.433 . S
C2658 C2654 1.350 . S
C2658 C2655 1.463 . S
C2658 N2662 1.427 . S
C2659 H2649 0.929 . S
C2659 C2657 1.433 . S
C2659 N2662 1.384 . S
C2660 H2651 0.929 . S
C2660 C2652 1.378 . S
C2660 C2655 1.350 . S
C2661 H2648 0.929 . S
C2661 C2653 1.433 . S
C2661 N2663 1.384 . S
N2662 C2658 1.427 . S
N2662 C2659 1.384 . S
N2663 C2655 1.427 . S
N2663 C2661 1.384 . S
H2664 C2670 0.930 . S
H2665 C2674 0.930 . S
H2666 C2679 0.929 . S
H2667 C2677 0.929 . S
H2668 C2672 0.929 . S
H2669 C2678 0.929 . S
C2670 H2664 0.930 . S
C2670 C2671 1.367 . S
C2670 C2678 1.378 . S
C2671 C2670 1.367 . S
C2671 C2679 1.433 . S
C2672 H2668 0.929 . S
C2672 C2674 1.378 . S
C2672 C2676 1.350 . S
C2673 C2676 1.463 . S
C2673 C2678 1.350 . S
C2673 N2681 1.427 . S
C2674 H2665 0.930 . S
C2674 C2672 1.378 . S
C2674 C2675 1.367 . S
C2675 C2674 1.367 . S
C2675 C2677 1.433 . S
C2676 C2672 1.350 . S
C2676 C2673 1.463 . S
C2676 N2680 1.427 . S
C2677 H2667 0.929 . S
C2677 C2675 1.433 . S
C2677 N2680 1.384 . S
C2678 H2669 0.929 . S
C2678 C2670 1.378 . S
C2678 C2673 1.350 . S
C2679 H2666 0.929 . S
C2679 C2671 1.433 . S
C2679 N2681 1.384 . S
N2680 C2676 1.427 . S
N2680 C2677 1.384 . S
N2681 C2673 1.427 . S
N2681 C2679 1.384 . S
H2682 C2688 0.930 . S
H2683 C2692 0.930 . S
H2684 C2697 0.929 . S
H2685 C2695 0.929 . S
H2686 C2690 0.929 . S
H2687 C2696 0.929 . S
C2688 H2682 0.930 . S
C2688 C2689 1.367 . S
C2688 C2696 1.378 . S
C2689 C2688 1.367 . S
C2689 C2697 1.433 . S
C2690 H2686 0.929 . S
C2690 C2692 1.378 . S
C2690 C2694 1.350 . S
C2691 C2694 1.463 . S
C2691 C2696 1.350 . S
C2691 N2699 1.427 . S
C2692 H2683 0.930 . S
C2692 C2690 1.378 . S
C2692 C2693 1.367 . S
C2693 C2692 1.367 . S
C2693 C2695 1.433 . S
C2694 C2690 1.350 . S
C2694 C2691 1.463 . S
C2694 N2698 1.427 . S
C2695 H2685 0.929 . S
C2695 C2693 1.433 . S
C2695 N2698 1.384 . S
C2696 H2687 0.929 . S
C2696 C2688 1.378 . S
C2696 C2691 1.350 . S
C2697 H2684 0.929 . S
C2697 C2689 1.433 . S
C2697 N2699 1.384 . S
N2698 C2694 1.427 . S
N2698 C2695 1.384 . S
N2699 C2691 1.427 . S
N2699 C2697 1.384 . S
H2700 C2706 0.930 . S
H2701 C2710 0.930 . S
H2702 C2715 0.929 . S
H2703 C2713 0.929 . S
H2704 C2708 0.929 . S
H2705 C2714 0.929 . S
C2706 H2700 0.930 . S
C2706 C2707 1.367 . S
C2706 C2714 1.378 . S
C2707 C2706 1.367 . S
C2707 C2715 1.433 . S
C2708 H2704 0.929 . S
C2708 C2710 1.378 . S
C2708 C2712 1.350 . S
C2709 C2712 1.463 . S
C2709 C2714 1.350 . S
C2709 N2717 1.427 . S
C2710 H2701 0.930 . S
C2710 C2708 1.378 . S
C2710 C2711 1.367 . S
C2711 C2710 1.367 . S
C2711 C2713 1.433 . S
C2712 C2708 1.350 . S
C2712 C2709 1.463 . S
C2712 N2716 1.427 . S
C2713 H2703 0.929 . S
C2713 C2711 1.433 . S
C2713 N2716 1.384 . S
C2714 H2705 0.929 . S
C2714 C2706 1.378 . S
C2714 C2709 1.350 . S
C2715 H2702 0.929 . S
C2715 C2707 1.433 . S
C2715 N2717 1.384 . S
N2716 C2712 1.427 . S
N2716 C2713 1.384 . S
N2717 C2709 1.427 . S
N2717 C2715 1.384 . S
H2718 C2724 0.930 . S
H2719 C2728 0.930 . S
H2720 C2733 0.929 . S
H2721 C2731 0.929 . S
H2722 C2726 0.929 . S
H2723 C2732 0.929 . S
C2724 H2718 0.930 . S
C2724 C2725 1.367 . S
C2724 C2732 1.378 . S
C2725 C2724 1.367 . S
C2725 C2733 1.433 . S
C2726 H2722 0.929 . S
C2726 C2728 1.378 . S
C2726 C2730 1.350 . S
C2727 C2730 1.463 . S
C2727 C2732 1.350 . S
C2727 N2735 1.427 . S
C2728 H2719 0.930 . S
C2728 C2726 1.378 . S
C2728 C2729 1.367 . S
C2729 C2728 1.367 . S
C2729 C2731 1.433 . S
C2730 C2726 1.350 . S
C2730 C2727 1.463 . S
C2730 N2734 1.427 . S
C2731 H2721 0.929 . S
C2731 C2729 1.433 . S
C2731 N2734 1.384 . S
C2732 H2723 0.929 . S
C2732 C2724 1.378 . S
C2732 C2727 1.350 . S
C2733 H2720 0.929 . S
C2733 C2725 1.433 . S
C2733 N2735 1.384 . S
N2734 C2730 1.427 . S
N2734 C2731 1.384 . S
N2735 C2727 1.427 . S
N2735 C2733 1.384 . S
H2736 C2742 0.930 . S
H2737 C2746 0.930 . S
H2738 C2751 0.929 . S
H2739 C2749 0.929 . S
H2740 C2744 0.929 . S
H2741 C2750 0.929 . S
C2742 H2736 0.930 . S
C2742 C2743 1.367 . S
C2742 C2750 1.378 . S
C2743 C2742 1.367 . S
C2743 C2751 1.433 . S
C2744 H2740 0.929 . S
C2744 C2746 1.378 . S
C2744 C2748 1.350 . S
C2745 C2748 1.463 . S
C2745 C2750 1.350 . S
C2745 N2753 1.427 . S
C2746 H2737 0.930 . S
C2746 C2744 1.378 . S
C2746 C2747 1.367 . S
C2747 C2746 1.367 . S
C2747 C2749 1.433 . S
C2748 C2744 1.350 . S
C2748 C2745 1.463 . S
C2748 N2752 1.427 . S
C2749 H2739 0.929 . S
C2749 C2747 1.433 . S
C2749 N2752 1.384 . S
C2750 H2741 0.929 . S
C2750 C2742 1.378 . S
C2750 C2745 1.350 . S
C2751 H2738 0.929 . S
C2751 C2743 1.433 . S
C2751 N2753 1.384 . S
N2752 C2748 1.427 . S
N2752 C2749 1.384 . S
N2753 C2745 1.427 . S
N2753 C2751 1.384 . S
H2754 C2760 0.930 . S
H2755 C2764 0.930 . S
H2756 C2769 0.929 . S
H2757 C2767 0.929 . S
H2758 C2762 0.929 . S
H2759 C2768 0.929 . S
C2760 H2754 0.930 . S
C2760 C2761 1.367 . S
C2760 C2768 1.378 . S
C2761 C2760 1.367 . S
C2761 C2769 1.433 . S
C2762 H2758 0.929 . S
C2762 C2764 1.378 . S
C2762 C2766 1.350 . S
C2763 C2766 1.463 . S
C2763 C2768 1.350 . S
C2763 N2771 1.427 . S
C2764 H2755 0.930 . S
C2764 C2762 1.378 . S
C2764 C2765 1.367 . S
C2765 C2764 1.367 . S
C2765 C2767 1.433 . S
C2766 C2762 1.350 . S
C2766 C2763 1.463 . S
C2766 N2770 1.427 . S
C2767 H2757 0.929 . S
C2767 C2765 1.433 . S
C2767 N2770 1.384 . S
C2768 H2759 0.929 . S
C2768 C2760 1.378 . S
C2768 C2763 1.350 . S
C2769 H2756 0.929 . S
C2769 C2761 1.433 . S
C2769 N2771 1.384 . S
N2770 C2766 1.427 . S
N2770 C2767 1.384 . S
N2771 C2763 1.427 . S
N2771 C2769 1.384 . S
H2772 C2778 0.930 . S
H2773 C2782 0.930 . S
H2774 C2787 0.929 1_545 S
H2775 C2785 0.929 . S
H2776 C2780 0.929 . S
H2777 C2786 0.929 . S
C2778 H2772 0.930 . S
C2778 C2779 1.367 . S
C2778 C2786 1.378 . S
C2779 C2778 1.367 . S
C2779 C2787 1.433 . S
C2780 H2776 0.929 . S
C2780 C2782 1.378 . S
C2780 C2784 1.350 . S
C2781 C2784 1.463 . S
C2781 C2786 1.350 . S
C2781 N2789 1.427 . S
C2782 H2773 0.930 . S
C2782 C2780 1.378 . S
C2782 C2783 1.367 . S
C2783 C2782 1.367 . S
C2783 C2785 1.433 . S
C2784 C2780 1.350 . S
C2784 C2781 1.463 . S
C2784 N2788 1.427 . S
C2785 H2775 0.929 . S
C2785 C2783 1.433 . S
C2785 N2788 1.384 . S
C2786 H2777 0.929 . S
C2786 C2778 1.378 . S
C2786 C2781 1.350 . S
C2787 H2774 0.929 1_565 S
C2787 C2779 1.433 . S
C2787 N2789 1.384 . S
N2788 C2784 1.427 . S
N2788 C2785 1.384 . S
N2789 C2781 1.427 . S
N2789 C2787 1.384 . S
H2790 C2796 0.930 . S
H2791 C2800 0.930 . S
H2792 C2805 0.929 . S
H2793 C2803 0.929 . S
H2794 C2798 0.929 . S
H2795 C2804 0.929 . S
C2796 H2790 0.930 . S
C2796 C2797 1.367 . S
C2796 C2804 1.378 . S
C2797 C2796 1.367 . S
C2797 C2805 1.433 . S
C2798 H2794 0.929 . S
C2798 C2800 1.378 . S
C2798 C2802 1.350 . S
C2799 C2802 1.463 . S
C2799 C2804 1.350 . S
C2799 N2807 1.427 . S
C2800 H2791 0.930 . S
C2800 C2798 1.378 . S
C2800 C2801 1.367 . S
C2801 C2800 1.367 . S
C2801 C2803 1.433 . S
C2802 C2798 1.350 . S
C2802 C2799 1.463 . S
C2802 N2806 1.427 . S
C2803 H2793 0.929 . S
C2803 C2801 1.433 . S
C2803 N2806 1.384 . S
C2804 H2795 0.929 . S
C2804 C2796 1.378 . S
C2804 C2799 1.350 . S
C2805 H2792 0.929 . S
C2805 C2797 1.433 . S
C2805 N2807 1.384 . S
N2806 C2802 1.427 . S
N2806 C2803 1.384 . S
N2807 C2799 1.427 . S
N2807 C2805 1.384 . S
C1195 N14 1.195 . S
C1199 C74 1.158 1_545 S
C1213 C8 1.162 1_655 S
C1217 N47 1.203 . S
C1231 C41 1.181 . S
C1235 N80 1.213 . S
C1249 C140 1.167 1_455 S
C1253 N113 1.207 . S
C1267 C173 1.178 . S
C1271 N146 1.206 . S
C1285 C107 1.181 1_565 S
C1289 N179 1.211 . S
C1303 C272 1.181 1_565 S
C1307 N212 1.213 . S
C1321 N245 1.204 . S
C1325 C206 1.163 1_455 S
C1339 C239 1.164 . S
C1343 N278 1.204 . S
C1357 C338 1.176 1_655 S
C1361 N311 1.204 . S
C1375 N344 1.206 . S
C1379 C371 1.166 . S
C1393 C305 1.159 1_545 S
C1397 N377 1.200 . S
C1411 N410 1.213 . S
C1415 C470 1.179 . S
C1429 N443 1.196 . S
C1433 C404 1.158 . S
C1447 N476 1.205 . S
C1451 C437 1.164 . S
C1465 C536 1.167 . S
C1469 N509 1.207 . S
C1483 C569 1.174 . S
C1487 N542 1.203 . S
C1501 N575 1.213 . S
C1505 C503 1.179 . S
C1519 N608 1.201 . S
C1523 C668 1.160 . S
C1537 N641 1.209 . S
C1541 C602 1.180 . S
C1555 N674 1.199 . S
C1559 C635 1.159 . S
C1573 C734 1.158 . S
C1577 N707 1.198 . S
C1591 C767 1.158 . S
C1595 N740 1.196 . S
C1609 N773 1.212 . S
C1613 C701 1.182 . S
C1627 C866 1.177 . S
C1631 N806 1.213 . S
C1645 C800 1.165 . S
C1649 N839 1.206 . S
C1663 N872 1.209 . S
C1667 C833 1.170 . S
C1681 C932 1.166 . S
C1685 N905 1.197 . S
C1699 N938 1.203 . S
C1703 C965 1.174 . S
C1717 C899 1.162 . S
C1721 N971 1.196 . S
C1735 C1064 1.179 . S
C1739 N1004 1.208 . S
C1753 N1037 1.202 . S
C1757 C998 1.173 . S
C1771 N1070 1.210 . S
C1775 C1031 1.170 . S
C1789 C1130 1.163 . S
C1793 N1103 1.204 . S
C1807 C1163 1.158 . S
C1811 N1136 1.198 . S
C1825 N1169 1.212 . S
C1829 C1097 1.182 . S
C1843 N665 1.341 . S
C1847 C28 1.330 . S
C1861 C61 1.333 . S
C1865 N599 1.336 1_565 S
C1879 C94 1.343 . S
C1883 N632 1.331 1_455 S
C1897 N1127 1.331 . S
C1901 C127 1.340 . S
C1915 N1160 1.339 1_545 S
C1919 C160 1.332 . S
C1933 C193 1.331 . S
C1937 N1094 1.339 1_655 S
C1951 C226 1.328 . S
C1955 N863 1.345 . S
C1969 C259 1.340 . S
C1973 N797 1.339 1_545 S
C1987 C292 1.341 . S
C1991 N830 1.339 1_655 S
C2005 N533 1.335 . S
C2009 C325 1.342 . S
C2023 C358 1.344 . S
C2027 N566 1.333 1_565 S
C2041 C391 1.344 . S
C2045 N500 1.332 1_455 S
C2059 C424 1.343 . S
C2063 N1061 1.333 . S
C2077 N995 1.337 . S
C2081 C457 1.333 . S
C2095 N1028 1.331 . S
C2099 C490 1.341 . S
C2113 C523 1.331 . S
C2117 N335 1.345 . S
C2131 C556 1.339 . S
C2135 N368 1.332 . S
C2149 C589 1.339 . S
C2153 N302 1.340 . S
C2167 N71 1.343 . S
C2171 C622 1.328 . S
C2185 C655 1.337 . S
C2189 N5 1.341 . S
C2203 C688 1.336 . S
C2207 N38 1.335 . S
C2221 N929 1.339 . S
C2225 C721 1.332 . S
C2239 C754 1.338 . S
C2243 N962 1.340 . S
C2257 C787 1.329 . S
C2261 N896 1.346 . S
C2275 N269 1.342 . S
C2279 C820 1.328 . S
C2293 N203 1.344 . S
C2297 C853 1.334 . S
C2311 C886 1.341 . S
C2315 N236 1.339 . S
C2329 C919 1.334 . S
C2333 N731 1.336 . S
C2347 N764 1.332 . S
C2351 C952 1.338 . S
C2365 C985 1.340 . S
C2369 N698 1.332 . S
C2383 N467 1.343 . S
C2387 C1018 1.328 . S
C2401 C1051 1.344 . S
C2405 N401 1.332 . S
C2419 C1084 1.331 . S
C2423 N434 1.340 . S
C2437 N137 1.332 . S
C2441 C1117 1.339 . S
C2455 C1150 1.340 . S
C2459 N170 1.332 . S
C2473 N104 1.334 . S
C2477 C1183 1.337 . S
C2491 C149 1.565 . S
C2495 C17 1.559 . S
C2509 C50 1.559 . S
C2513 C182 1.557 . S
C2527 C83 1.558 . S
C2531 C116 1.563 . S
C2545 C215 1.558 . S
C2549 C347 1.558 . S
C2563 C248 1.572 . S
C2567 C380 1.571 . S
C2581 C281 1.557 . S
C2585 C314 1.559 . S
C2599 C545 1.558 . S
C2603 C413 1.559 . S
C2617 C578 1.558 . S
C2621 C446 1.562 . S
C2635 C512 1.557 . S
C2639 C479 1.560 . S
C2653 C743 1.572 . S
C2657 C611 1.568 . S
C2671 C776 1.558 . S
C2675 C644 1.562 . S
C2689 C710 1.568 . S
C2693 C677 1.572 . S
C2707 C941 1.558 . S
C2711 C809 1.558 . S
C2725 C842 1.558 . S
C2729 C974 1.558 . S
C2743 C908 1.558 . S
C2747 C875 1.562 . S
C2761 C1139 1.573 . S
C2765 C1007 1.570 . S
C2779 C1172 1.560 . S
C2783 C1040 1.566 . S
C2797 C1073 1.557 . S
C2801 C1106 1.558 . S
