# Generated by pormake.
# Topology utg, (3)-cn, num edge types: 1
# Building blocks:
#     Node 0, Type 0, BuildingBlock: OLANEW_clean_sbu_2, # of connection points: 3
#     Node 1, Type 0, BuildingBlock: OLANEW_clean_sbu_2, # of connection points: 3
#     Node 2, Type 0, BuildingBlock: OLANEW_clean_sbu_2, # of connection points: 3
#     Node 3, Type 0, BuildingBlock: OLANEW_clean_sbu_2, # of connection points: 3
#     Node 4, Type 0, BuildingBlock: OLANEW_clean_sbu_2, # of connection points: 3
#     Node 5, Type 0, BuildingBlock: OLANEW_clean_sbu_2, # of connection points: 3
#     Node 6, Type 0, BuildingBlock: OLANEW_clean_sbu_2, # of connection points: 3
#     Node 7, Type 0, BuildingBlock: OLANEW_clean_sbu_2, # of connection points: 3
#     Node 8, Type 0, BuildingBlock: OLANEW_clean_sbu_2, # of connection points: 3
#     Node 9, Type 0, BuildingBlock: OLANEW_clean_sbu_2, # of connection points: 3
#     Node 10, Type 0, BuildingBlock: OLANEW_clean_sbu_2, # of connection points: 3
#     Node 11, Type 0, BuildingBlock: OLANEW_clean_sbu_2, # of connection points: 3
#     Node 12, Type 0, BuildingBlock: OLANEW_clean_sbu_2, # of connection points: 3
#     Node 13, Type 0, BuildingBlock: OLANEW_clean_sbu_2, # of connection points: 3
#     Node 14, Type 0, BuildingBlock: OLANEW_clean_sbu_2, # of connection points: 3
#     Node 15, Type 0, BuildingBlock: OLANEW_clean_sbu_2, # of connection points: 3
#     Edge 16, Type (0, 0), BuildingBlock: UVAHIK_clean_linker_0, # of connection points: 2
#     Edge 17, Type (0, 0), BuildingBlock: UVAHIK_clean_linker_0, # of connection points: 2
#     Edge 18, Type (0, 0), BuildingBlock: UVAHIK_clean_linker_0, # of connection points: 2
#     Edge 19, Type (0, 0), BuildingBlock: UVAHIK_clean_linker_0, # of connection points: 2
#     Edge 20, Type (0, 0), BuildingBlock: UVAHIK_clean_linker_0, # of connection points: 2
#     Edge 21, Type (0, 0), BuildingBlock: UVAHIK_clean_linker_0, # of connection points: 2
#     Edge 22, Type (0, 0), BuildingBlock: UVAHIK_clean_linker_0, # of connection points: 2
#     Edge 23, Type (0, 0), BuildingBlock: UVAHIK_clean_linker_0, # of connection points: 2
#     Edge 24, Type (0, 0), BuildingBlock: UVAHIK_clean_linker_0, # of connection points: 2
#     Edge 25, Type (0, 0), BuildingBlock: UVAHIK_clean_linker_0, # of connection points: 2
#     Edge 26, Type (0, 0), BuildingBlock: UVAHIK_clean_linker_0, # of connection points: 2
#     Edge 27, Type (0, 0), BuildingBlock: UVAHIK_clean_linker_0, # of connection points: 2
#     Edge 28, Type (0, 0), BuildingBlock: UVAHIK_clean_linker_0, # of connection points: 2
#     Edge 29, Type (0, 0), BuildingBlock: UVAHIK_clean_linker_0, # of connection points: 2
#     Edge 30, Type (0, 0), BuildingBlock: UVAHIK_clean_linker_0, # of connection points: 2
#     Edge 31, Type (0, 0), BuildingBlock: UVAHIK_clean_linker_0, # of connection points: 2
#     Edge 32, Type (0, 0), BuildingBlock: UVAHIK_clean_linker_0, # of connection points: 2
#     Edge 33, Type (0, 0), BuildingBlock: UVAHIK_clean_linker_0, # of connection points: 2
#     Edge 34, Type (0, 0), BuildingBlock: UVAHIK_clean_linker_0, # of connection points: 2
#     Edge 35, Type (0, 0), BuildingBlock: UVAHIK_clean_linker_0, # of connection points: 2
#     Edge 36, Type (0, 0), BuildingBlock: UVAHIK_clean_linker_0, # of connection points: 2
#     Edge 37, Type (0, 0), BuildingBlock: UVAHIK_clean_linker_0, # of connection points: 2
#     Edge 38, Type (0, 0), BuildingBlock: UVAHIK_clean_linker_0, # of connection points: 2
#     Edge 39, Type (0, 0), BuildingBlock: UVAHIK_clean_linker_0, # of connection points: 2
# Relax obj value: 0.003
# Max RMSD: 0.051
# Mean RMSD: 0.051
data_MOF--net-utg--node1-OLANEW_clean_sbu_2--edge1-UVAHIK_clean_linker_0
_symmetry_space_group_name_H-M    P1
_symmetry_Int_Tables_number       1
_symmetry_cell_setting            triclinic
loop_
_symmetry_equiv_pos_as_xyz
'x, y, z'
_cell_length_a     55.601431
_cell_length_b     55.363217
_cell_length_c     111.50899
_cell_angle_alpha  90.096204
_cell_angle_beta   89.93928
_cell_angle_gamma 90.014893
loop_
_atom_site_label
_atom_site_type_symbol
_atom_site_fract_x
_atom_site_fract_y
_atom_site_fract_z
_atom_type_partial_charge
O0 O 0.09469 0.15435 0.16256 0.0
Cd1 Cd 0.09829 0.13019 0.18081 0.0
O2 O 0.13341 0.15268 0.15855 0.0
Cd3 Cd 0.14384 0.13462 0.17509 0.0
O4 O 0.16726 0.1402 0.19051 0.0
C5 C 0.16135 0.15713 0.19763 0.0
O6 O 0.14081 0.16832 0.19588 0.0
C7 C 0.11234 0.15964 0.1558 0.0
C8 C 0.06726 0.09057 0.18065 0.0
O9 O 0.06008 0.11139 0.1842 0.0
O10 O 0.08914 0.08846 0.17717 0.0
O11 O 0.8221 0.59581 0.4169 0.0
Cd12 Cd 0.8475 0.60162 0.43456 0.0
O13 O 0.8133 0.63451 0.41583 0.0
Cd14 Cd 0.8333 0.64693 0.43147 0.0
O15 O 0.83225 0.67478 0.44532 0.0
C16 C 0.82644 0.69573 0.44169 0.0
O17 O 0.82342 0.69919 0.43013 0.0
C18 C 0.81111 0.61312 0.41181 0.0
C19 C 0.8875 0.57121 0.43451 0.0
O20 O 0.86718 0.56401 0.43859 0.0
O21 O 0.8889 0.59278 0.4304 0.0
O22 O 0.38471 0.32299 0.66924 0.0
Cd23 Cd 0.38001 0.34416 0.68836 0.0
O24 O 0.35004 0.33523 0.66197 0.0
Cd25 Cd 0.3374 0.34892 0.67919 0.0
O26 O 0.31395 0.33899 0.69408 0.0
C27 C 0.31745 0.31794 0.69825 0.0
O28 O 0.3354 0.3051 0.69397 0.0
C29 C 0.36979 0.32397 0.66062 0.0
C30 C 0.40932 0.38508 0.68919 0.0
O31 O 0.41739 0.36427 0.6922 0.0
O32 O 0.38731 0.38658 0.68586 0.0
O33 O 0.65784 0.89662 0.9213 0.0
Cd34 Cd 0.63934 0.89407 0.94116 0.0
O35 O 0.64781 0.85951 0.9163 0.0
Cd36 Cd 0.63777 0.84863 0.93441 0.0
O37 O 0.65002 0.82358 0.94822 0.0
C38 C 0.65881 0.80396 0.94421 0.0
O39 O 0.6584 0.80008 0.93258 0.0
C40 C 0.65701 0.87978 0.91354 0.0
C41 C 0.59684 0.9209 0.94206 0.0
O42 O 0.61725 0.93076 0.9442 0.0
O43 O 0.59649 0.8983 0.93957 0.0
O44 O 0.08839 0.32421 0.04934 0.0
Cd45 Cd 0.09065 0.34399 0.02977 0.0
O46 O 0.12618 0.33174 0.05381 0.0
Cd47 Cd 0.13595 0.34431 0.03595 0.0
O48 O 0.15815 0.33422 0.0206 0.0
C49 C 0.1502 0.31796 0.0136 0.0
O50 O 0.12829 0.3097 0.01527 0.0
C51 C 0.10576 0.32323 0.05673 0.0
C52 C 0.06208 0.38541 0.02908 0.0
O53 O 0.05327 0.36457 0.02667 0.0
O54 O 0.08445 0.3867 0.03178 0.0
O55 O 0.65656 0.58595 0.30246 0.0
Cd56 Cd 0.63744 0.58925 0.2828 0.0
O57 O 0.64343 0.62124 0.30875 0.0
Cd58 Cd 0.63192 0.63284 0.29099 0.0
O59 O 0.64238 0.65701 0.27645 0.0
C60 C 0.65209 0.67668 0.27981 0.0
O61 O 0.65359 0.68122 0.29136 0.0
C62 C 0.6545 0.60157 0.31077 0.0
C63 C 0.5959 0.56101 0.28193 0.0
O64 O 0.61658 0.55199 0.27951 0.0
O65 O 0.59482 0.58348 0.28466 0.0
O66 O 0.37022 0.15038 0.5574 0.0
Cd67 Cd 0.36375 0.12652 0.53921 0.0
O68 O 0.38335 0.1815 0.54706 0.0
Cd69 Cd 0.36932 0.16788 0.5301 0.0
O70 O 0.34168 0.17373 0.51652 0.0
C71 C 0.34225 0.1941 0.51129 0.0
O72 O 0.35999 0.209 0.51373 0.0
C73 C 0.37955 0.17136 0.5571 0.0
C74 C 0.39609 0.08805 0.53811 0.0
O75 O 0.40201 0.10912 0.53439 0.0
O76 O 0.37479 0.08509 0.54227 0.0
O77 O 0.81582 0.886 0.80376 0.0
Cd78 Cd 0.83962 0.88207 0.78541 0.0
O79 O 0.8046 0.84786 0.80356 0.0
Cd80 Cd 0.82113 0.83702 0.78665 0.0
O81 O 0.81394 0.81174 0.77205 0.0
C82 C 0.80515 0.79161 0.77534 0.0
O83 O 0.80286 0.78735 0.78688 0.0
C84 C 0.80432 0.86859 0.80849 0.0
C85 C 0.88031 0.9116 0.78596 0.0
O86 O 0.85992 0.91979 0.78249 0.0
O87 O 0.8815 0.88939 0.78914 0.0
O88 O 0.58643 0.65634 0.66704 0.0
Cd89 Cd 0.59085 0.63676 0.68656 0.0
O90 O 0.61937 0.64045 0.65946 0.0
Cd91 Cd 0.6321 0.628 0.67687 0.0
O92 O 0.65552 0.63789 0.69177 0.0
C93 C 0.65142 0.65842 0.69646 0.0
O94 O 0.63285 0.67093 0.69267 0.0
C95 C 0.6005 0.65316 0.65818 0.0
C96 C 0.56203 0.59558 0.68793 0.0
O97 O 0.55363 0.6165 0.69053 0.0
O98 O 0.58415 0.59409 0.68476 0.0
O99 O 0.31633 0.08337 0.92162 0.0
Cd100 Cd 0.33522 0.08714 0.94133 0.0
O101 O 0.32869 0.11905 0.91554 0.0
Cd102 Cd 0.33843 0.13131 0.93347 0.0
O103 O 0.32268 0.15625 0.94647 0.0
C104 C 0.29984 0.15682 0.9461 0.0
O105 O 0.28867 0.14204 0.93874 0.0
C106 C 0.31824 0.09909 0.91337 0.0
C107 C 0.37793 0.06066 0.94223 0.0
O108 O 0.35764 0.05079 0.94463 0.0
O109 O 0.37807 0.08313 0.93948 0.0
O110 O 0.87959 0.82222 0.16385 0.0
Cd111 Cd 0.87624 0.84599 0.18228 0.0
O112 O 0.84093 0.81376 0.16333 0.0
Cd113 Cd 0.83084 0.83042 0.18032 0.0
O114 O 0.80782 0.82292 0.19573 0.0
C115 C 0.81198 0.80304 0.20102 0.0
O116 O 0.83046 0.79003 0.19751 0.0
C117 C 0.86181 0.8121 0.15875 0.0
C118 C 0.90696 0.88586 0.18194 0.0
O119 O 0.91442 0.86508 0.18536 0.0
O120 O 0.88493 0.88782 0.17871 0.0
O121 O 0.15628 0.39011 0.41593 0.0
Cd122 Cd 0.13714 0.38775 0.43563 0.0
O123 O 0.14529 0.35353 0.4105 0.0
Cd124 Cd 0.1342 0.34303 0.4285 0.0
O125 O 0.14738 0.32037 0.44308 0.0
C126 C 0.15757 0.30097 0.43968 0.0
O127 O 0.15772 0.29572 0.42818 0.0
C128 C 0.15527 0.37358 0.40802 0.0
C129 C 0.09614 0.41676 0.43631 0.0
O130 O 0.117 0.4255 0.43858 0.0
O131 O 0.09461 0.3942 0.43383 0.0
O132 O 0.59425 0.82739 0.55461 0.0
Cd133 Cd 0.59979 0.8542 0.53742 0.0
O134 O 0.63121 0.81338 0.55336 0.0
Cd135 Cd 0.64371 0.83448 0.53808 0.0
O136 O 0.67183 0.83394 0.52442 0.0
C137 C 0.69055 0.82237 0.52753 0.0
O138 O 0.69154 0.8134 0.53842 0.0
C139 C 0.61069 0.8134 0.55839 0.0
C140 C 0.56674 0.89212 0.53747 0.0
O141 O 0.56123 0.87141 0.53311 0.0
O142 O 0.5879 0.89493 0.54181 0.0
O143 O 0.15471 0.09025 0.80561 0.0
Cd144 Cd 0.13065 0.09445 0.78738 0.0
O145 O 0.16595 0.12837 0.80533 0.0
Cd146 Cd 0.14869 0.13934 0.78867 0.0
O147 O 0.1555 0.16505 0.77425 0.0
C148 C 0.16527 0.18466 0.77766 0.0
O149 O 0.1687 0.18812 0.78919 0.0
C150 C 0.16639 0.10766 0.81024 0.0
C151 C 0.08999 0.06486 0.78768 0.0
O152 O 0.11041 0.05677 0.78415 0.0
O153 O 0.08878 0.08695 0.79108 0.0
O154 O 0.88795 0.66036 0.04744 0.0
Cd155 Cd 0.88552 0.64073 0.02783 0.0
O156 O 0.8525 0.6473 0.05333 0.0
Cd157 Cd 0.84175 0.63531 0.0355 0.0
O158 O 0.81831 0.6457 0.02071 0.0
C159 C 0.82299 0.66579 0.01574 0.0
O160 O 0.84234 0.67765 0.01908 0.0
C161 C 0.87198 0.65847 0.05556 0.0
C162 C 0.91371 0.59902 0.02732 0.0
O163 O 0.92273 0.61973 0.02486 0.0
O164 O 0.89127 0.59798 0.02993 0.0
O165 O 0.31948 0.38525 0.30037 0.0
Cd166 Cd 0.34312 0.38161 0.28195 0.0
O167 O 0.31573 0.34588 0.30234 0.0
Cd168 Cd 0.33298 0.33547 0.28555 0.0
O169 O 0.32621 0.31042 0.27083 0.0
C170 C 0.32061 0.28904 0.2739 0.0
O171 O 0.32134 0.28332 0.28533 0.0
C172 C 0.31166 0.36712 0.30618 0.0
C173 C 0.38393 0.41096 0.28224 0.0
O174 O 0.36351 0.41922 0.27884 0.0
O175 O 0.38505 0.38881 0.28553 0.0
C176 C 0.30635 0.27905 0.25315 0.0
C177 C 0.30992 0.27206 0.26512 0.0
C178 C 0.29315 0.26438 0.24534 0.0
C179 C 0.26673 0.20312 0.24144 0.0
H180 H 0.21868 0.23786 0.22313 0.0
C181 C 0.20242 0.15776 0.20697 0.0
C182 C 0.1787 0.16656 0.20654 0.0
C183 C 0.21958 0.16891 0.21429 0.0
C184 C 0.23188 0.22786 0.22825 0.0
H185 H 0.30371 0.24351 0.27808 0.0
H186 H 0.2805 0.21815 0.26452 0.0
H187 H 0.24788 0.26025 0.23494 0.0
H188 H 0.15409 0.19305 0.21398 0.0
H189 H 0.18387 0.2122 0.22684 0.0
H190 H 0.25015 0.17067 0.23495 0.0
C191 C 0.28799 0.23485 0.26112 0.0
C192 C 0.24888 0.24072 0.23487 0.0
C193 C 0.3012 0.24949 0.26892 0.0
C194 C 0.17225 0.18596 0.21401 0.0
C195 C 0.18936 0.19706 0.22132 0.0
C196 C 0.2497 0.19022 0.23477 0.0
C197 C 0.28323 0.24244 0.24934 0.0
C198 C 0.2664 0.22853 0.24163 0.0
C199 C 0.21335 0.18906 0.22133 0.0
C200 C 0.2319 0.20248 0.22822 0.0
H201 H 0.31299 0.29623 0.2499 0.0
H202 H 0.29018 0.27052 0.23624 0.0
H203 H 0.28011 0.19321 0.24649 0.0
H204 H 0.20798 0.14283 0.20132 0.0
H205 H 0.23793 0.16236 0.21408 0.0
C206 C 0.7282 0.80053 0.52185 0.0
C207 C 0.70971 0.81665 0.51875 0.0
C208 C 0.74483 0.79283 0.51328 0.0
C209 C 0.75003 0.78509 0.4806 0.0
H210 H 0.81509 0.7657 0.48861 0.0
C211 C 0.80989 0.73677 0.4462 0.0
C212 C 0.81973 0.71492 0.45033 0.0
C213 C 0.80032 0.75353 0.45427 0.0
C214 C 0.79698 0.77108 0.48625 0.0
H215 H 0.69507 0.83848 0.50438 0.0
H216 H 0.72449 0.82546 0.48944 0.0
H217 H 0.79118 0.78823 0.50322 0.0
H218 H 0.82868 0.69428 0.46623 0.0
H219 H 0.81196 0.7236 0.48032 0.0
H220 H 0.7557 0.76763 0.46372 0.0
C221 C 0.72575 0.81829 0.49845 0.0
C222 C 0.78324 0.78393 0.49462 0.0
C223 C 0.70896 0.82586 0.50702 0.0
C224 C 0.82113 0.71088 0.46275 0.0
C225 C 0.81167 0.72774 0.47083 0.0
C226 C 0.76383 0.77246 0.47222 0.0
C227 C 0.74354 0.80121 0.5014 0.0
C228 C 0.75937 0.79057 0.49201 0.0
C229 C 0.80054 0.7489 0.46664 0.0
C230 C 0.78725 0.76485 0.47505 0.0
H231 H 0.72933 0.79308 0.53081 0.0
H232 H 0.75802 0.77944 0.51588 0.0
H233 H 0.73163 0.7895 0.47832 0.0
H234 H 0.8087 0.74056 0.43669 0.0
H235 H 0.79215 0.76984 0.4508 0.0
C236 C 0.30477 0.28379 0.71144 0.0
C237 C 0.30034 0.30698 0.70685 0.0
C238 C 0.28786 0.2724 0.71876 0.0
C239 C 0.2349 0.28327 0.73803 0.0
H240 H 0.22509 0.2146 0.73313 0.0
C241 C 0.18872 0.22194 0.77285 0.0
C242 C 0.17538 0.20192 0.76886 0.0
C243 C 0.2008 0.2367 0.76468 0.0
C244 C 0.22727 0.23384 0.73452 0.0
H245 H 0.27489 0.33666 0.70659 0.0
H246 H 0.24521 0.31664 0.71933 0.0
H247 H 0.25262 0.23649 0.72016 0.0
H248 H 0.16309 0.18252 0.7531 0.0
H249 H 0.18386 0.20857 0.7388 0.0
H250 H 0.20933 0.28059 0.75235 0.0
C251 C 0.26188 0.30735 0.71733 0.0
C252 C 0.24338 0.24633 0.72719 0.0
C253 C 0.27887 0.31881 0.71001 0.0
C254 C 0.17338 0.19769 0.75647 0.0
C255 C 0.18541 0.21254 0.74829 0.0
C256 C 0.21871 0.27076 0.74536 0.0
C257 C 0.26604 0.28386 0.72164 0.0
C258 C 0.24772 0.27109 0.72899 0.0
C259 C 0.19974 0.23187 0.75231 0.0
C260 C 0.21499 0.2458 0.74381 0.0
H261 H 0.3212 0.27423 0.70926 0.0
H262 H 0.2919 0.25454 0.72215 0.0
H263 H 0.23787 0.30232 0.73968 0.0
H264 H 0.19061 0.22576 0.78233 0.0
H265 H 0.21185 0.25125 0.76813 0.0
C266 C 0.67397 0.79178 0.96452 0.0
C267 C 0.6716 0.78695 0.95221 0.0
C268 C 0.68811 0.77688 0.97177 0.0
C269 C 0.71884 0.71717 0.97283 0.0
H270 H 0.76157 0.7502 -0.00512 0.0
C271 C 0.7827 0.66693 0.00559 0.0
C272 C 0.80555 0.67717 0.00746 0.0
C273 C 0.76541 0.67912 -0.00122 0.0
C274 C 0.74989 0.74069 -0.0113 0.0
H275 H 0.68144 0.7621 0.93795 0.0
H276 H 0.7063 0.73642 0.95052 0.0
H277 H 0.73225 0.77334 0.98353 0.0
H278 H 0.8285 0.70767 0.0032 0.0
H279 H 0.79858 0.72863 -0.00881 0.0
H280 H 0.73709 0.6846 0.97776 0.0
C281 C 0.69706 0.75153 0.95463 0.0
C282 C 0.7328 0.75393 0.98233 0.0
C283 C 0.6829 0.76638 0.9474 0.0
C284 C 0.81102 0.69937 0.00202 0.0
C285 C 0.79379 0.71149 -0.00479 0.0
C286 C 0.73598 0.70391 0.97922 0.0
C287 C 0.70021 0.75684 0.96686 0.0
C288 C 0.7172 0.74238 0.97424 0.0
C289 C 0.77062 0.70176 -0.0063 0.0
C290 C 0.75188 0.71557 -0.01287 0.0
H291 H 0.66537 0.8074 0.96852 0.0
H292 H 0.68984 0.78125 0.98121 0.0
H293 H 0.70693 0.70768 0.96676 0.0
H294 H 0.7779 0.64987 0.00967 0.0
H295 H 0.74771 0.67117 -0.00215 0.0
C296 C 0.19121 0.31108 0.00481 0.0
C297 C 0.16641 0.30605 0.00486 0.0
C298 C 0.20689 0.29762 -0.00238 0.0
C299 C 0.2092 0.2558 0.97171 0.0
H300 H 0.26591 0.23024 -0.01255 0.0
C301 C 0.26068 0.17456 0.95266 0.0
C302 C 0.28593 0.1748 0.95308 0.0
C303 C 0.24731 0.19221 0.95862 0.0
C304 C 0.25037 0.2375 0.98285 0.0
H305 H 0.13853 0.28371 -0.00304 0.0
H306 H 0.16583 0.26033 -0.01557 0.0
H307 H 0.24039 0.25922 -0.00203 0.0
H308 H 0.31697 0.19363 0.96026 0.0
H309 H 0.29354 0.22464 0.97065 0.0
H310 H 0.21897 0.23392 0.95665 0.0
C311 C 0.17317 0.27469 -0.01008 0.0
C312 C 0.23575 0.25413 -0.01112 0.0
C313 C 0.15752 0.28803 -0.00284 0.0
C314 C 0.29753 0.1929 0.95979 0.0
C315 C 0.2841 0.21063 0.96576 0.0
C316 C 0.22383 0.23925 0.96568 0.0
C317 C 0.19808 0.27899 -0.00974 0.0
C318 C 0.21479 0.26315 0.98344 0.0
C319 C 0.25883 0.21061 0.96514 0.0
C320 C 0.24435 0.22956 0.97126 0.0
H321 H 0.19864 0.32488 0.01063 0.0
H322 H 0.22596 0.30156 -0.00205 0.0
H323 H 0.19339 0.26273 0.96721 0.0
H324 H 0.25114 0.16081 0.94764 0.0
H325 H 0.22787 0.19133 0.95817 0.0
C326 C 0.66406 0.68743 0.25877 0.0
C327 C 0.66393 0.69293 0.27108 0.0
C328 C 0.67745 0.70146 0.25076 0.0
C329 C 0.71041 0.7597 0.24762 0.0
H330 H 0.74849 0.72344 0.22469 0.0
C331 C 0.77272 0.80468 0.21218 0.0
C332 C 0.79482 0.79317 0.20991 0.0
C333 C 0.75557 0.79385 0.21963 0.0
C334 C 0.7381 0.73384 0.23109 0.0
H335 H 0.6769 0.71812 0.28454 0.0
H336 H 0.70045 0.74226 0.27063 0.0
H337 H 0.71971 0.70239 0.23733 0.0
H338 H 0.81664 0.76184 0.21413 0.0
H339 H 0.78699 0.74325 0.22723 0.0
H340 H 0.7295 0.79106 0.24161 0.0
C341 C 0.69004 0.72731 0.26712 0.0
C342 C 0.7213 0.7218 0.23822 0.0
C343 C 0.67663 0.71334 0.27511 0.0
C344 C 0.79974 0.7711 0.2156 0.0
C345 C 0.78265 0.76034 0.22304 0.0
C346 C 0.72725 0.77176 0.24048 0.0
C347 C 0.69102 0.72126 0.25488 0.0
C348 C 0.70743 0.73452 0.24667 0.0
C349 C 0.76018 0.77132 0.22496 0.0
C350 C 0.74152 0.75889 0.23224 0.0
H351 H 0.65433 0.67193 0.25536 0.0
H352 H 0.67748 0.69656 0.24135 0.0
H353 H 0.69983 0.77007 0.25396 0.0
H354 H 0.76837 0.82169 0.20791 0.0
H355 H 0.7384 0.80274 0.22089 0.0
C356 C 0.32335 0.22443 0.49767 0.0
C357 C 0.32211 0.20208 0.50358 0.0
C358 C 0.30367 0.23316 0.49125 0.0
C359 C 0.24648 0.21519 0.47693 0.0
H360 H 0.23291 0.28368 0.47965 0.0
C361 C 0.18512 0.26637 0.44397 0.0
C362 C 0.17164 0.28612 0.44818 0.0
C363 C 0.20077 0.25405 0.4516 0.0
C364 C 0.23616 0.26445 0.47892 0.0
H365 H 0.29939 0.17101 0.50709 0.0
H366 H 0.26488 0.18639 0.49592 0.0
H367 H 0.26578 0.26628 0.49108 0.0
H368 H 0.16296 0.30752 0.46391 0.0
H369 H 0.19002 0.28574 0.4773 0.0
H370 H 0.21663 0.21338 0.46483 0.0
C371 C 0.28118 0.19708 0.4962 0.0
C372 C 0.25529 0.25453 0.48533 0.0
C373 C 0.30094 0.18829 0.50262 0.0
C374 C 0.17324 0.29251 0.46036 0.0
C375 C 0.18886 0.28012 0.46801 0.0
C376 C 0.22727 0.22512 0.47052 0.0
C377 C 0.2822 0.2198 0.4906 0.0
C378 C 0.26095 0.22988 0.48426 0.0
C379 C 0.20326 0.26112 0.46364 0.0
C380 C 0.2221 0.24995 0.4713 0.0
H381 H 0.33943 0.23543 0.49815 0.0
H382 H 0.30527 0.25047 0.48681 0.0
H383 H 0.25039 0.19614 0.47588 0.0
H384 H 0.18429 0.26092 0.43465 0.0
H385 H 0.21172 0.23969 0.44789 0.0
C386 C 0.79533 0.77974 0.75416 0.0
C387 C 0.79479 0.77458 0.76649 0.0
C388 C 0.78299 0.76505 0.74601 0.0
C389 C 0.75161 0.70585 0.74276 0.0
H390 H 0.71396 0.74059 0.71918 0.0
C391 C 0.69069 0.65817 0.70759 0.0
C392 C 0.66853 0.66929 0.70508 0.0
C393 C 0.70766 0.6697 0.71489 0.0
C394 C 0.72424 0.73061 0.72576 0.0
H395 H 0.78187 0.74923 0.77986 0.0
H396 H 0.7601 0.72396 0.76573 0.0
H397 H 0.7418 0.76259 0.73194 0.0
H398 H 0.64643 0.70078 0.70867 0.0
H399 H 0.67572 0.72059 0.72153 0.0
H400 H 0.73325 0.67396 0.73684 0.0
C401 C 0.77023 0.73916 0.76229 0.0
C402 C 0.74052 0.74319 0.73296 0.0
C403 C 0.78261 0.75378 0.77042 0.0
C404 C 0.6634 0.69179 0.71034 0.0
C405 C 0.68029 0.70325 0.71764 0.0
C406 C 0.73526 0.69324 0.73556 0.0
C407 C 0.7698 0.74491 0.75002 0.0
C408 C 0.75419 0.73103 0.74166 0.0
C409 C 0.70279 0.69257 0.71984 0.0
C410 C 0.72111 0.70556 0.7271 0.0
H411 H 0.8047 0.79552 0.75083 0.0
H412 H 0.78339 0.76974 0.73659 0.0
H413 H 0.76206 0.69588 0.74928 0.0
H414 H 0.69522 0.64085 0.70366 0.0
H415 H 0.72486 0.66103 0.71636 0.0
C416 C 0.129 0.186 0.13964 0.0
C417 C 0.10891 0.17568 0.14532 0.0
C418 C 0.12604 0.20308 0.13058 0.0
C419 C 0.08528 0.22538 0.10766 0.0
H420 H 0.12255 0.28435 0.11056 0.0
C421 C 0.08075 0.30026 0.07165 0.0
C422 C 0.10298 0.31029 0.06827 0.0
C423 C 0.07894 0.28579 0.08189 0.0
C424 C 0.11215 0.26793 0.10954 0.0
H425 H 0.0699 0.17453 0.14561 0.0
H426 H 0.06478 0.20416 0.1295 0.0
H427 H 0.1245 0.25407 0.12636 0.0
H428 H 0.14057 0.3136 0.07325 0.0
H429 H 0.13756 0.28814 0.09083 0.0
H430 H 0.07367 0.23871 0.09062 0.0
C431 C 0.08279 0.19909 0.13221 0.0
C432 C 0.11323 0.25064 0.11862 0.0
C433 C 0.08574 0.18218 0.14142 0.0
C434 C 0.12313 0.30624 0.07559 0.0
C435 C 0.12137 0.2917 0.08575 0.0
C436 C 0.0844 0.24258 0.09849 0.0
C437 C 0.10294 0.21004 0.12689 0.0
C438 C 0.10015 0.22903 0.11767 0.0
C439 C 0.09934 0.28098 0.08895 0.0
C440 C 0.09819 0.26388 0.09922 0.0
H441 H 0.14711 0.18144 0.1424 0.0
H442 H 0.14187 0.21099 0.12649 0.0
H443 H 0.07508 0.20882 0.10671 0.0
H444 H 0.06484 0.30311 0.06623 0.0
H445 H 0.06162 0.27815 0.08419 0.0
C446 C 0.66661 0.61632 0.3311 0.0
C447 C 0.66669 0.59789 0.32243 0.0
C448 C 0.68031 0.61416 0.34152 0.0
C449 C 0.7341 0.58312 0.35302 0.0
H450 H 0.71376 0.61201 0.38305 0.0
C451 C 0.79327 0.58565 0.39615 0.0
C452 C 0.79462 0.60851 0.40164 0.0
C453 C 0.7768 0.58138 0.38688 0.0
C454 C 0.71967 0.60387 0.37472 0.0
H455 H 0.68038 0.56217 0.31819 0.0
H456 H 0.704 0.55824 0.33652 0.0
H457 H 0.68536 0.60902 0.36648 0.0
H458 H 0.77983 0.64482 0.40162 0.0
H459 H 0.75122 0.6373 0.38559 0.0
H460 H 0.76854 0.57821 0.36131 0.0
C461 C 0.69368 0.57458 0.33513 0.0
C462 C 0.70344 0.6022 0.36521 0.0
C463 C 0.68001 0.57678 0.32466 0.0
C464 C 0.77931 0.62699 0.39761 0.0
C465 C 0.76275 0.62266 0.38848 0.0
C466 C 0.7503 0.58462 0.36258 0.0
C467 C 0.69434 0.59345 0.34358 0.0
C468 C 0.71063 0.59238 0.35414 0.0
C469 C 0.7612 0.5998 0.38307 0.0
C470 C 0.7434 0.59558 0.37341 0.0
H471 H 0.6566 0.63286 0.32968 0.0
H472 H 0.68062 0.62921 0.34774 0.0
H473 H 0.74034 0.57568 0.34458 0.0
H474 H 0.80482 0.57103 0.39905 0.0
H475 H 0.77595 0.56359 0.38285 0.0
C476 C 0.37604 0.17583 0.57942 0.0
C477 C 0.38409 0.18487 0.56835 0.0
C478 C 0.37758 0.18998 0.58979 0.0
C479 C 0.4059 0.24443 0.60297 0.0
H480 H 0.34686 0.24789 0.62144 0.0
C481 C 0.39585 0.29721 0.64787 0.0
C482 C 0.37437 0.31028 0.64943 0.0
C483 C 0.39896 0.28218 0.63789 0.0
C484 C 0.36344 0.2472 0.61634 0.0
H485 H 0.4013 0.21536 0.55962 0.0
H486 H 0.40394 0.23998 0.57769 0.0
H487 H 0.34968 0.21994 0.60461 0.0
H488 H 0.33975 0.31855 0.64144 0.0
H489 H 0.34524 0.29241 0.62408 0.0
H490 H 0.41945 0.27207 0.61465 0.0
C491 C 0.39648 0.22195 0.57837 0.0
C492 C 0.36517 0.23096 0.6068 0.0
C493 C 0.39483 0.20787 0.56799 0.0
C494 C 0.35647 0.30867 0.64057 0.0
C495 C 0.35953 0.29356 0.63065 0.0
C496 C 0.40422 0.26059 0.6126 0.0
C497 C 0.38733 0.2134 0.58931 0.0
C498 C 0.38634 0.22952 0.59994 0.0
C499 C 0.3806 0.27981 0.62932 0.0
C500 C 0.38286 0.26232 0.61929 0.0
H501 H 0.36778 0.15816 0.58003 0.0
H502 H 0.3707 0.18279 0.59814 0.0
H503 H 0.42248 0.24362 0.59788 0.0
H504 H 0.41002 0.29807 0.65451 0.0
H505 H 0.41537 0.27174 0.63711 0.0
C506 C 0.6685 0.8638 0.89333 0.0
C507 C 0.6685 0.88291 0.90165 0.0
C508 C 0.68149 0.86556 0.88266 0.0
C509 C 0.7336 0.89697 0.86964 0.0
H510 H 0.71115 0.86675 0.84032 0.0
C511 C 0.78869 0.89504 0.82515 0.0
C512 C 0.78937 0.87248 0.81932 0.0
C513 C 0.77334 0.8988 0.83494 0.0
C514 C 0.71769 0.8752 0.84846 0.0
H515 H 0.68142 0.91928 0.90502 0.0
H516 H 0.70391 0.92245 0.88626 0.0
H517 H 0.68424 0.86968 0.85752 0.0
H518 H 0.77475 0.83609 0.81941 0.0
H519 H 0.74818 0.84269 0.8364 0.0
H520 H 0.76718 0.90223 0.86053 0.0
C521 C 0.69412 0.90595 0.88812 0.0
C522 C 0.70228 0.87687 0.85831 0.0
C523 C 0.68109 0.90419 0.89882 0.0
C524 C 0.77468 0.85372 0.82363 0.0
C525 C 0.75928 0.85753 0.83332 0.0
C526 C 0.74899 0.89541 0.85973 0.0
C527 C 0.69478 0.88649 0.88 0.0
C528 C 0.71022 0.88728 0.86911 0.0
C529 C 0.75824 0.88016 0.83901 0.0
C530 C 0.74135 0.884 0.84914 0.0
H531 H 0.65904 0.84713 0.89521 0.0
H532 H 0.68183 0.85009 0.8767 0.0
H533 H 0.74038 0.90488 0.87786 0.0
H534 H 0.79977 0.90986 0.82206 0.0
H535 H 0.77288 0.91643 0.83916 0.0
C536 C 0.57611 0.68122 0.64537 0.0
C537 C 0.59611 0.6659 0.64672 0.0
C538 C 0.57355 0.6954 0.63508 0.0
C539 C 0.59679 0.70366 0.60404 0.0
H540 H 0.58033 0.77092 0.60938 0.0
C541 C 0.62304 0.77845 0.57111 0.0
C542 C 0.60596 0.7963 0.56832 0.0
C543 C 0.61858 0.76167 0.58015 0.0
C544 C 0.58459 0.75212 0.60772 0.0
H545 H 0.62855 0.65277 0.63806 0.0
H546 H 0.62427 0.67762 0.62027 0.0
H547 H 0.57789 0.74231 0.62597 0.0
H548 H 0.57085 0.81064 0.57297 0.0
H549 H 0.56321 0.78133 0.58897 0.0
H550 H 0.60433 0.71371 0.5859 0.0
C551 C 0.61038 0.67853 0.62707 0.0
C552 C 0.58314 0.73569 0.6172 0.0
C553 C 0.61292 0.66434 0.63733 0.0
C554 C 0.58437 0.79712 0.5749 0.0
C555 C 0.58001 0.7804 0.58406 0.0
C556 C 0.59837 0.7201 0.5946 0.0
C557 C 0.59091 0.69457 0.62592 0.0
C558 C 0.58971 0.71136 0.61554 0.0
C559 C 0.59702 0.7624 0.5867 0.0
C560 C 0.59278 0.74459 0.5964 0.0
H561 H 0.56275 0.68277 0.65241 0.0
H562 H 0.55815 0.70728 0.63439 0.0
H563 H 0.6015 0.68497 0.60239 0.0
H564 H 0.63986 0.77724 0.56624 0.0
H565 H 0.6322 0.74827 0.58212 0.0
C566 C 0.30682 0.11352 0.89291 0.0
C567 C 0.30643 0.09522 0.90162 0.0
C568 C 0.29337 0.11127 0.88241 0.0
C569 C 0.23967 0.08045 0.87063 0.0
H570 H 0.26133 0.10815 0.84059 0.0
C571 C 0.18238 0.08141 0.82684 0.0
C572 C 0.18181 0.10379 0.82089 0.0
C573 C 0.19817 0.07766 0.83644 0.0
C574 C 0.25502 0.10038 0.84893 0.0
H575 H 0.29243 0.05964 0.90585 0.0
H576 H 0.26922 0.05555 0.88738 0.0
H577 H 0.2891 0.10551 0.85742 0.0
H578 H 0.1971 0.1399 0.82055 0.0
H579 H 0.22446 0.13331 0.83718 0.0
H580 H 0.20548 0.07556 0.86207 0.0
C581 C 0.27961 0.07186 0.8888 0.0
C582 C 0.27091 0.09889 0.85858 0.0
C583 C 0.29306 0.07413 0.89935 0.0
C584 C 0.19706 0.12241 0.82488 0.0
C585 C 0.21291 0.11859 0.83436 0.0
C586 C 0.2238 0.0818 0.86092 0.0
C587 C 0.27926 0.09061 0.88031 0.0
C588 C 0.26327 0.08944 0.86964 0.0
C589 C 0.21383 0.09614 0.84017 0.0
C590 C 0.23118 0.09231 0.85007 0.0
H591 H 0.31687 0.13003 0.89436 0.0
H592 H 0.2933 0.12622 0.87615 0.0
H593 H 0.2331 0.0733 0.87905 0.0
H594 H 0.17086 0.0667 0.82399 0.0
H595 H 0.19853 0.06016 0.84077 0.0
C596 C 0.88796 0.79544 0.14226 0.0
C597 C 0.8654 0.79692 0.14794 0.0
C598 C 0.89148 0.77969 0.13257 0.0
C599 C 0.86737 0.72378 0.11962 0.0
H600 H 0.89683 0.7448 0.08989 0.0
C601 C 0.85624 0.67108 0.07564 0.0
C602 C 0.87507 0.67093 0.06722 0.0
C603 C 0.85794 0.6849 0.08608 0.0
C604 C 0.88899 0.73846 0.09821 0.0
H605 H 0.82875 0.78333 0.14772 0.0
H606 H 0.83497 0.75595 0.13094 0.0
H607 H 0.89441 0.77268 0.10685 0.0
H608 H 0.91093 0.68441 0.06345 0.0
H609 H 0.91407 0.70822 0.08183 0.0
H610 H 0.86185 0.68965 0.11107 0.0
C611 C 0.84996 0.7668 0.13403 0.0
C612 C 0.88754 0.75449 0.1079 0.0
C613 C 0.84638 0.78266 0.14359 0.0
C614 C 0.89604 0.68421 0.06972 0.0
C615 C 0.89778 0.698 0.08021 0.0
C616 C 0.86899 0.70772 0.10999 0.0
C617 C 0.87259 0.76494 0.12851 0.0
C618 C 0.87623 0.74745 0.1186 0.0
C619 C 0.87857 0.69883 0.08842 0.0
C620 C 0.87933 0.71502 0.09907 0.0
H621 H 0.90298 0.80619 0.14539 0.0
H622 H 0.90911 0.77859 0.12847 0.0
H623 H 0.85896 0.71774 0.12785 0.0
H624 H 0.83979 0.66113 0.074 0.0
H625 H 0.84264 0.68535 0.09209 0.0
C626 C 0.17901 0.39865 0.39346 0.0
C627 C 0.16753 0.37677 0.39633 0.0
C628 C 0.19282 0.40067 0.38301 0.0
C629 C 0.20603 0.36996 0.35398 0.0
H630 H 0.26803 0.40155 0.357 0.0
C631 C 0.28389 0.35061 0.32176 0.0
C632 C 0.29615 0.3705 0.31686 0.0
C633 C 0.26754 0.35376 0.33112 0.0
C634 C 0.25066 0.39293 0.35599 0.0
H635 H 0.16092 0.34011 0.39024 0.0
H636 H 0.18522 0.34346 0.37225 0.0
H637 H 0.23951 0.40311 0.37366 0.0
H638 H 0.3014 0.40924 0.31824 0.0
H639 H 0.27298 0.41464 0.33485 0.0
H640 H 0.21762 0.35902 0.33649 0.0
C641 C 0.18332 0.35923 0.37792 0.0
C642 C 0.23425 0.39389 0.3655 0.0
C643 C 0.16944 0.35726 0.38831 0.0
C644 C 0.29223 0.39355 0.32181 0.0
C645 C 0.27601 0.39666 0.33131 0.0
C646 C 0.2225 0.36881 0.34455 0.0
C647 C 0.1955 0.38083 0.37523 0.0
C648 C 0.21191 0.38202 0.36469 0.0
C649 C 0.2632 0.37682 0.33589 0.0
C650 C 0.24513 0.37991 0.34554 0.0
H651 H 0.17781 0.41408 0.39941 0.0
H652 H 0.20164 0.41768 0.38111 0.0
H653 H 0.1888 0.36108 0.35294 0.0
H654 H 0.28645 0.33258 0.31819 0.0
H655 H 0.2582 0.3381 0.33462 0.0
C656 C 0.05975 0.04603 0.17928 0.0
C657 C 0.05077 0.06959 0.18062 0.0
C658 C 0.04418 0.02619 0.1794 0.0
C659 C 0.98206 0.00823 0.18825 0.0
H660 H -0.00458 0.95284 0.16798 0.0
C661 C 0.91416 0.93045 0.18047 0.0
C662 C 0.92333 0.90693 0.18172 0.0
C663 C 0.92964 0.95035 0.18035 0.0
C664 C -0.00843 0.96814 0.17374 0.0
H665 H 0.01838 0.09088 0.18295 0.0
H666 H -0.00886 0.05646 0.18275 0.0
H667 H 0.02236 0.98758 0.16753 0.0
H668 H 0.95595 0.88583 0.1837 0.0
H669 H 0.983 0.92061 0.18329 0.0
H670 H 0.95089 0.98884 0.19419 0.0
C671 C 0.01026 0.05313 0.18194 0.0
C672 C 0.00705 0.98803 0.17354 0.0
C673 C 0.02587 0.07293 0.18198 0.0
C674 C 0.94832 0.90372 0.18275 0.0
C675 C 0.96382 0.9236 0.18245 0.0
C676 C 0.96642 0.98846 0.18832 0.0
C677 C 0.0192 0.02947 0.18071 0.0
C678 C 0.00257 0.00833 0.18083 0.0
C679 C 0.95463 0.94711 0.18129 0.0
C680 C 0.97107 0.96819 0.1811 0.0
H681 H 0.07887 0.04285 0.17829 0.0
H682 H 0.05181 0.00827 0.17864 0.0
H683 H 0.97822 0.02327 0.19416 0.0
H684 H 0.89499 0.93351 0.17967 0.0
H685 H 0.92211 0.96828 0.17936 0.0
C686 C 0.07689 0.45762 0.43659 0.0
C687 C 0.07454 0.43236 0.43641 0.0
C688 C 0.05654 0.47243 0.43643 0.0
C689 C -0.00887 0.4716 0.42939 0.0
H690 H -0.0086 0.53191 0.44713 0.0
C691 C 0.90614 0.53029 0.43685 0.0
C692 C 0.90875 0.55513 0.43461 0.0
C693 C 0.92624 0.51512 0.437 0.0
C694 C -0.00885 0.51519 0.44207 0.0
H695 H 0.04898 0.40279 0.4361 0.0
H696 H 0.01345 0.42855 0.43622 0.0
H697 H 0.02651 0.5056 0.44785 0.0
H698 H 0.9345 0.58356 0.43082 0.0
H699 H 0.96964 0.55708 0.43127 0.0
H700 H 0.95545 0.48111 0.42387 0.0
C701 C 0.03101 0.43701 0.43616 0.0
C702 C 0.0113 0.50012 0.44243 0.0
C703 C 0.05139 0.42221 0.43617 0.0
C704 C 0.93189 0.5645 0.43256 0.0
C705 C 0.95202 0.54938 0.43288 0.0
C706 C 0.97087 0.48655 0.42916 0.0
C707 C 0.03331 0.46234 0.43624 0.0
C708 C 0.01163 0.47817 0.43604 0.0
C709 C 0.94938 0.52455 0.43509 0.0
C710 C 0.97074 0.50854 0.43544 0.0
H711 H 0.09449 0.46601 0.43668 0.0
H712 H 0.0591 0.49181 0.43627 0.0
H713 H -0.00918 0.45509 0.42417 0.0
H714 H 0.88854 0.52252 0.43844 0.0
H715 H 0.92372 0.49606 0.4388 0.0
C716 C 0.55663 0.55063 0.68773 0.0
C717 C 0.54655 0.57385 0.68846 0.0
C718 C 0.54196 0.53013 0.68813 0.0
C719 C 0.48026 0.50993 0.69654 0.0
H720 H 0.49654 0.45445 0.67687 0.0
C721 C 0.41523 0.42993 0.68825 0.0
C722 C 0.42503 0.40666 0.68944 0.0
C723 C 0.43013 0.45028 0.68841 0.0
C724 C 0.49188 0.46975 0.68248 0.0
H725 H 0.51315 0.59379 0.69008 0.0
H726 H 0.48751 0.55817 0.69042 0.0
H727 H 0.52228 0.49009 0.6765 0.0
H728 H 0.45816 0.38648 0.6917 0.0
H729 H 0.48418 0.42205 0.69182 0.0
H730 H 0.44949 0.48964 0.70226 0.0
C731 C 0.50679 0.55567 0.68985 0.0
C732 C 0.50668 0.49016 0.68232 0.0
C733 C 0.52149 0.57614 0.68958 0.0
C734 C 0.45005 0.40417 0.69077 0.0
C735 C 0.46497 0.4245 0.69078 0.0
C736 C 0.46532 0.48961 0.69659 0.0
C737 C 0.51681 0.53236 0.68914 0.0
C738 C 0.5011 0.51054 0.68936 0.0
C739 C 0.45516 0.44776 0.68961 0.0
C740 C 0.47101 0.46931 0.68957 0.0
H741 H 0.57591 0.54826 0.68693 0.0
H742 H 0.55039 0.51252 0.68778 0.0
H743 H 0.47559 0.52504 0.70226 0.0
H744 H 0.39602 0.43245 0.68722 0.0
H745 H 0.42211 0.46799 0.6874 0.0
C746 C 0.39979 0.02119 0.94363 0.0
C747 C 0.40049 0.04646 0.94253 0.0
C748 C 0.42105 0.00771 0.94372 0.0
C749 C 0.48578 0.01145 0.93555 0.0
H750 H 0.49082 0.95486 0.95584 0.0
C751 C 0.57528 0.96059 0.94321 0.0
C752 C 0.57438 0.93527 0.94238 0.0
C753 C 0.55411 0.97421 0.94331 0.0
C754 C 0.48959 0.97052 0.95006 0.0
H755 H 0.4241 0.07744 0.94081 0.0
H756 H 0.4612 0.05405 0.94128 0.0
H757 H 0.45397 0.97872 0.95604 0.0
H758 H 0.55052 0.90436 0.9411 0.0
H759 H 0.51354 0.92817 0.9414 0.0
H760 H 0.52163 0.00337 0.92974 0.0
C761 C 0.44422 0.04452 0.9418 0.0
C762 C 0.46845 0.98418 0.95014 0.0
C763 C 0.42294 0.05798 0.9416 0.0
C764 C 0.55183 0.92384 0.94175 0.0
C765 C 0.53065 0.93745 0.94198 0.0
C766 C 0.507 -0.00209 0.93556 0.0
C767 C 0.44356 0.01919 0.94281 0.0
C768 C 0.46622 0.00479 0.94285 0.0
C769 C 0.53157 0.96278 0.94271 0.0
C770 C 0.5091 0.97726 0.94279 0.0
H771 H 0.38278 0.01174 0.94429 0.0
H772 H 0.41977 0.98824 0.94431 0.0
H773 H 0.4846 0.02692 0.92965 0.0
H774 H 0.59237 0.96995 0.9437 0.0
H775 H 0.55537 -0.00631 0.94399 0.0
C776 C 0.95396 0.57879 0.02637 0.0
C777 C 0.92882 0.577 0.02725 0.0
C778 C 0.9683 0.55805 0.0265 0.0
C779 C 0.96703 0.49309 0.03488 0.0
H780 H 0.02439 0.49014 0.01512 0.0
C781 C 0.02171 0.40535 0.02773 0.0
C782 C 0.04683 0.40733 0.02877 0.0
C783 C 0.00728 0.42602 0.02755 0.0
C784 C 0.00852 0.49079 0.02075 0.0
H785 H 0.89895 0.552 0.0288 0.0
H786 H 0.92385 0.5158 0.02869 0.0
H787 H -0.00092 0.52608 0.01458 0.0
H788 H 0.07651 0.43257 0.03036 0.0
H789 H 0.05127 0.46868 0.02991 0.0
H790 H 0.97636 0.45754 0.04086 0.0
C791 C 0.93261 0.53324 0.02819 0.0
C792 C -0.00597 0.51141 0.02048 0.0
C793 C 0.91829 0.554 0.02817 0.0
C794 C 0.05721 0.43043 0.02955 0.0
C795 C 0.04279 0.45111 0.02923 0.0
C796 C 0.98141 0.47238 0.03506 0.0
C797 C 0.95782 0.53498 0.0274 0.0
C798 C 0.97312 0.51288 0.02758 0.0
C799 C 0.01767 0.44911 0.02826 0.0
C800 C 0.00234 0.47104 0.02802 0.0
H801 H 0.96265 0.59626 0.02573 0.0
H802 H 0.98764 0.56017 0.02609 0.0
H803 H 0.95134 0.4937 0.04064 0.0
H804 H 0.01315 0.38781 0.02712 0.0
H805 H -0.01202 0.42394 0.02669 0.0
C806 C 0.57584 0.52055 0.28102 0.0
C807 C 0.57399 0.54582 0.2817 0.0
C808 C 0.55521 0.50613 0.28105 0.0
C809 C 0.49005 0.50761 0.28864 0.0
H810 H 0.48849 0.44898 0.26957 0.0
C811 C 0.4035 0.45163 0.28077 0.0
C812 C 0.40558 0.42651 0.28228 0.0
C813 C 0.42396 0.46631 0.28076 0.0
C814 C 0.48875 0.46522 0.27501 0.0
H815 H 0.54903 0.57582 0.28275 0.0
H816 H 0.513 0.55077 0.28242 0.0
H817 H 0.52415 0.47458 0.26915 0.0
H818 H 0.43078 0.3971 0.28494 0.0
H819 H 0.46654 0.42276 0.28477 0.0
H820 H 0.45435 0.49836 0.29427 0.0
C821 C 0.53039 0.54198 0.28218 0.0
C822 C 0.50922 0.47987 0.27481 0.0
C823 C 0.55105 0.55639 0.28229 0.0
C824 C 0.42857 0.41638 0.28376 0.0
C825 C 0.44905 0.43104 0.2836 0.0
C826 C 0.46949 0.49308 0.28873 0.0
C827 C 0.53219 0.51664 0.28161 0.0
C828 C 0.5102 0.50122 0.28167 0.0
C829 C 0.44694 0.45615 0.28212 0.0
C830 C 0.46867 0.47169 0.28195 0.0
H831 H 0.59327 0.51184 0.28065 0.0
H832 H 0.55737 0.4867 0.28082 0.0
H833 H 0.49027 0.52365 0.29421 0.0
H834 H 0.38604 0.45998 0.27962 0.0
H835 H 0.42183 0.48559 0.27952 0.0
C836 C 0.43814 0.07232 0.53631 0.0
C837 C 0.41345 0.06782 0.53775 0.0
C838 C 0.45463 0.05327 0.53624 0.0
C839 C 0.46068 0.98831 0.54454 0.0
H840 H 0.51775 -0.00774 0.52461 0.0
C841 C 0.52458 0.90757 0.53567 0.0
C842 C 0.54917 0.91217 0.53747 0.0
C843 C 0.50794 0.9265 0.53575 0.0
C844 C 0.50194 -0.00899 0.53026 0.0
H845 H 0.3866 0.03981 0.54001 0.0
H846 H 0.41517 0.0065 0.5394 0.0
H847 H 0.48859 0.02513 0.52433 0.0
H848 H 0.57566 0.94023 0.54064 0.0
H849 H 0.54657 0.97338 0.54051 0.0
H850 H 0.47388 0.95375 0.55014 0.0
C851 C 0.422 0.02476 0.53871 0.0
C852 C 0.48526 0.00989 0.53017 0.0
C853 C 0.40555 0.04386 0.53897 0.0
C854 C 0.55682 0.93611 0.53926 0.0
C855 C 0.54022 0.95508 0.53912 0.0
C856 C 0.47718 0.96927 0.54447 0.0
C857 C 0.44681 0.0292 0.53741 0.0
C858 C 0.46443 0.00888 0.53735 0.0
C859 C 0.51563 0.95043 0.53742 0.0
C860 C 0.49802 0.9705 0.53738 0.0
H861 H 0.4448 0.09062 0.53545 0.0
H862 H 0.47357 0.05753 0.53546 0.0
H863 H 0.44517 0.98701 0.55038 0.0
H864 H 0.51813 0.88931 0.5343 0.0
H865 H 0.48908 0.92247 0.53435 0.0
C866 C 0.89949 0.95251 0.78527 0.0
C867 C 0.90183 0.92733 0.78627 0.0
C868 C 0.91977 0.96741 0.78562 0.0
C869 C 0.98444 0.96771 0.7944 0.0
H870 H 0.98628 0.02525 0.77463 0.0
C871 C 0.07075 0.02401 0.78643 0.0
C872 C 0.06844 0.04916 0.78775 0.0
C873 C 0.0504 0.00917 0.78647 0.0
C874 C 0.98592 0.00932 0.78026 0.0
H875 H 0.92731 0.89799 0.78829 0.0
H876 H 0.96275 0.92384 0.7885 0.0
H877 H 0.95102 -0.00089 0.77406 0.0
H878 H 0.04299 0.07848 0.79008 0.0
H879 H 0.0074 0.05253 0.78996 0.0
H880 H 0.01973 0.97775 0.80031 0.0
C881 C 0.94522 0.93223 0.78777 0.0
C882 C 0.96568 -0.00563 0.77998 0.0
C883 C 0.9249 0.91735 0.78758 0.0
C884 C 0.04536 0.05917 0.78907 0.0
C885 C 0.02499 0.04435 0.78893 0.0
C886 C 0.00481 0.98251 0.79454 0.0
C887 C 0.94295 0.95748 0.78683 0.0
C888 C 0.96461 0.97337 0.78708 0.0
C889 C 0.02732 0.01921 0.78766 0.0
C890 C 0.00572 0.00349 0.7875 0.0
H891 H 0.88193 0.96077 0.78434 0.0
H892 H 0.9172 0.98676 0.7851 0.0
H893 H 0.98415 0.95199 0.80016 0.0
H894 H 0.08829 0.01575 0.78542 0.0
H895 H 0.05269 -0.01014 0.78539 0.0
loop_
_geom_bond_atom_site_label_1
_geom_bond_atom_site_label_2
_geom_bond_distance
_geom_bond_site_symmetry_2
_ccdc_geom_bond_type
O0 Cd1 2.300 . S
O0 C7 1.275 . S
Cd1 O0 2.300 . S
Cd1 O9 2.381 . S
Cd1 O10 2.378 . S
O2 Cd3 2.385 . S
O2 C7 1.255 . S
Cd3 O2 2.385 . S
Cd3 O4 2.317 . S
O4 Cd3 2.317 . S
O4 C5 1.232 . S
C5 O4 1.232 . S
C5 O6 1.218 . S
O6 C5 1.218 . S
C7 O0 1.275 . S
C7 O2 1.255 . S
C8 O9 1.258 . S
C8 O10 1.256 . S
O9 Cd1 2.381 . S
O9 C8 1.258 . S
O10 Cd1 2.378 . S
O10 C8 1.256 . S
O11 Cd12 2.300 . S
O11 C18 1.275 . S
Cd12 O11 2.300 . S
Cd12 O20 2.381 . S
Cd12 O21 2.378 . S
O13 Cd14 2.385 . S
O13 C18 1.255 . S
Cd14 O13 2.385 . S
Cd14 O15 2.317 . S
O15 Cd14 2.317 . S
O15 C16 1.232 . S
C16 O15 1.232 . S
C16 O17 1.218 . S
O17 C16 1.218 . S
C18 O11 1.275 . S
C18 O13 1.255 . S
C19 O20 1.258 . S
C19 O21 1.256 . S
O20 Cd12 2.381 . S
O20 C19 1.258 . S
O21 Cd12 2.378 . S
O21 C19 1.256 . S
O22 Cd23 2.300 . S
O22 C29 1.275 . S
Cd23 O22 2.300 . S
Cd23 O31 2.381 . S
Cd23 O32 2.378 . S
O24 Cd25 2.385 . S
O24 C29 1.255 . S
Cd25 O24 2.385 . S
Cd25 O26 2.317 . S
O26 Cd25 2.317 . S
O26 C27 1.232 . S
C27 O26 1.232 . S
C27 O28 1.218 . S
O28 C27 1.218 . S
C29 O22 1.275 . S
C29 O24 1.255 . S
C30 O31 1.258 . S
C30 O32 1.256 . S
O31 Cd23 2.381 . S
O31 C30 1.258 . S
O32 Cd23 2.378 . S
O32 C30 1.256 . S
O33 Cd34 2.300 . S
O33 C40 1.275 . S
Cd34 O33 2.300 . S
Cd34 O42 2.381 . S
Cd34 O43 2.378 . S
O35 Cd36 2.385 . S
O35 C40 1.255 . S
Cd36 O35 2.385 . S
Cd36 O37 2.317 . S
O37 Cd36 2.317 . S
O37 C38 1.232 . S
C38 O37 1.232 . S
C38 O39 1.218 . S
O39 C38 1.218 . S
C40 O33 1.275 . S
C40 O35 1.255 . S
C41 O42 1.258 . S
C41 O43 1.256 . S
O42 Cd34 2.381 . S
O42 C41 1.258 . S
O43 Cd34 2.378 . S
O43 C41 1.256 . S
O44 Cd45 2.300 . S
O44 C51 1.275 . S
Cd45 O44 2.300 . S
Cd45 O53 2.381 . S
Cd45 O54 2.378 . S
O46 Cd47 2.385 . S
O46 C51 1.255 . S
Cd47 O46 2.385 . S
Cd47 O48 2.317 . S
O48 Cd47 2.317 . S
O48 C49 1.232 . S
C49 O48 1.232 . S
C49 O50 1.218 . S
O50 C49 1.218 . S
C51 O44 1.275 . S
C51 O46 1.255 . S
C52 O53 1.258 . S
C52 O54 1.256 . S
O53 Cd45 2.381 . S
O53 C52 1.258 . S
O54 Cd45 2.378 . S
O54 C52 1.256 . S
O55 Cd56 2.300 . S
O55 C62 1.275 . S
Cd56 O55 2.300 . S
Cd56 O64 2.381 . S
Cd56 O65 2.378 . S
O57 Cd58 2.385 . S
O57 C62 1.255 . S
Cd58 O57 2.385 . S
Cd58 O59 2.317 . S
O59 Cd58 2.317 . S
O59 C60 1.232 . S
C60 O59 1.232 . S
C60 O61 1.218 . S
O61 C60 1.218 . S
C62 O55 1.275 . S
C62 O57 1.255 . S
C63 O64 1.258 . S
C63 O65 1.256 . S
O64 Cd56 2.381 . S
O64 C63 1.258 . S
O65 Cd56 2.378 . S
O65 C63 1.256 . S
O66 Cd67 2.300 . S
O66 C73 1.275 . S
Cd67 O66 2.300 . S
Cd67 O75 2.381 . S
Cd67 O76 2.378 . S
O68 Cd69 2.385 . S
O68 C73 1.255 . S
Cd69 O68 2.385 . S
Cd69 O70 2.317 . S
O70 Cd69 2.317 . S
O70 C71 1.232 . S
C71 O70 1.232 . S
C71 O72 1.218 . S
O72 C71 1.218 . S
C73 O66 1.275 . S
C73 O68 1.255 . S
C74 O75 1.258 . S
C74 O76 1.256 . S
O75 Cd67 2.381 . S
O75 C74 1.258 . S
O76 Cd67 2.378 . S
O76 C74 1.256 . S
O77 Cd78 2.300 . S
O77 C84 1.275 . S
Cd78 O77 2.300 . S
Cd78 O86 2.381 . S
Cd78 O87 2.378 . S
O79 Cd80 2.385 . S
O79 C84 1.255 . S
Cd80 O79 2.385 . S
Cd80 O81 2.317 . S
O81 Cd80 2.317 . S
O81 C82 1.232 . S
C82 O81 1.232 . S
C82 O83 1.218 . S
O83 C82 1.218 . S
C84 O77 1.275 . S
C84 O79 1.255 . S
C85 O86 1.258 . S
C85 O87 1.256 . S
O86 Cd78 2.381 . S
O86 C85 1.258 . S
O87 Cd78 2.378 . S
O87 C85 1.256 . S
O88 Cd89 2.300 . S
O88 C95 1.275 . S
Cd89 O88 2.300 . S
Cd89 O97 2.381 . S
Cd89 O98 2.378 . S
O90 Cd91 2.385 . S
O90 C95 1.255 . S
Cd91 O90 2.385 . S
Cd91 O92 2.317 . S
O92 Cd91 2.317 . S
O92 C93 1.232 . S
C93 O92 1.232 . S
C93 O94 1.218 . S
O94 C93 1.218 . S
C95 O88 1.275 . S
C95 O90 1.255 . S
C96 O97 1.258 . S
C96 O98 1.256 . S
O97 Cd89 2.381 . S
O97 C96 1.258 . S
O98 Cd89 2.378 . S
O98 C96 1.256 . S
O99 Cd100 2.300 . S
O99 C106 1.275 . S
Cd100 O99 2.300 . S
Cd100 O108 2.381 . S
Cd100 O109 2.378 . S
O101 Cd102 2.385 . S
O101 C106 1.255 . S
Cd102 O101 2.385 . S
Cd102 O103 2.317 . S
O103 Cd102 2.317 . S
O103 C104 1.232 . S
C104 O103 1.232 . S
C104 O105 1.218 . S
O105 C104 1.218 . S
C106 O99 1.275 . S
C106 O101 1.255 . S
C107 O108 1.258 . S
C107 O109 1.256 . S
O108 Cd100 2.381 . S
O108 C107 1.258 . S
O109 Cd100 2.378 . S
O109 C107 1.256 . S
O110 Cd111 2.300 . S
O110 C117 1.275 . S
Cd111 O110 2.300 . S
Cd111 O119 2.381 . S
Cd111 O120 2.378 . S
O112 Cd113 2.385 . S
O112 C117 1.255 . S
Cd113 O112 2.385 . S
Cd113 O114 2.317 . S
O114 Cd113 2.317 . S
O114 C115 1.232 . S
C115 O114 1.232 . S
C115 O116 1.218 . S
O116 C115 1.218 . S
C117 O110 1.275 . S
C117 O112 1.255 . S
C118 O119 1.258 . S
C118 O120 1.256 . S
O119 Cd111 2.381 . S
O119 C118 1.258 . S
O120 Cd111 2.378 . S
O120 C118 1.256 . S
O121 Cd122 2.300 . S
O121 C128 1.275 . S
Cd122 O121 2.300 . S
Cd122 O130 2.381 . S
Cd122 O131 2.378 . S
O123 Cd124 2.385 . S
O123 C128 1.255 . S
Cd124 O123 2.385 . S
Cd124 O125 2.317 . S
O125 Cd124 2.317 . S
O125 C126 1.232 . S
C126 O125 1.232 . S
C126 O127 1.218 . S
O127 C126 1.218 . S
C128 O121 1.275 . S
C128 O123 1.255 . S
C129 O130 1.258 . S
C129 O131 1.256 . S
O130 Cd122 2.381 . S
O130 C129 1.258 . S
O131 Cd122 2.378 . S
O131 C129 1.256 . S
O132 Cd133 2.300 . S
O132 C139 1.275 . S
Cd133 O132 2.300 . S
Cd133 O141 2.381 . S
Cd133 O142 2.378 . S
O134 Cd135 2.385 . S
O134 C139 1.255 . S
Cd135 O134 2.385 . S
Cd135 O136 2.317 . S
O136 Cd135 2.317 . S
O136 C137 1.232 . S
C137 O136 1.232 . S
C137 O138 1.218 . S
O138 C137 1.218 . S
C139 O132 1.275 . S
C139 O134 1.255 . S
C140 O141 1.258 . S
C140 O142 1.256 . S
O141 Cd133 2.381 . S
O141 C140 1.258 . S
O142 Cd133 2.378 . S
O142 C140 1.256 . S
O143 Cd144 2.300 . S
O143 C150 1.275 . S
Cd144 O143 2.300 . S
Cd144 O152 2.381 . S
Cd144 O153 2.378 . S
O145 Cd146 2.385 . S
O145 C150 1.255 . S
Cd146 O145 2.385 . S
Cd146 O147 2.317 . S
O147 Cd146 2.317 . S
O147 C148 1.232 . S
C148 O147 1.232 . S
C148 O149 1.218 . S
O149 C148 1.218 . S
C150 O143 1.275 . S
C150 O145 1.255 . S
C151 O152 1.258 . S
C151 O153 1.256 . S
O152 Cd144 2.381 . S
O152 C151 1.258 . S
O153 Cd144 2.378 . S
O153 C151 1.256 . S
O154 Cd155 2.300 . S
O154 C161 1.275 . S
Cd155 O154 2.300 . S
Cd155 O163 2.381 . S
Cd155 O164 2.378 . S
O156 Cd157 2.385 . S
O156 C161 1.255 . S
Cd157 O156 2.385 . S
Cd157 O158 2.317 . S
O158 Cd157 2.317 . S
O158 C159 1.232 . S
C159 O158 1.232 . S
C159 O160 1.218 . S
O160 C159 1.218 . S
C161 O154 1.275 . S
C161 O156 1.255 . S
C162 O163 1.258 . S
C162 O164 1.256 . S
O163 Cd155 2.381 . S
O163 C162 1.258 . S
O164 Cd155 2.378 . S
O164 C162 1.256 . S
O165 Cd166 2.300 . S
O165 C172 1.275 . S
Cd166 O165 2.300 . S
Cd166 O174 2.381 . S
Cd166 O175 2.378 . S
O167 Cd168 2.385 . S
O167 C172 1.255 . S
Cd168 O167 2.385 . S
Cd168 O169 2.317 . S
O169 Cd168 2.317 . S
O169 C170 1.232 . S
C170 O169 1.232 . S
C170 O171 1.218 . S
O171 C170 1.218 . S
C172 O165 1.275 . S
C172 O167 1.255 . S
C173 O174 1.258 . S
C173 O175 1.256 . S
O174 Cd166 2.381 . S
O174 C173 1.258 . S
O175 Cd166 2.378 . S
O175 C173 1.256 . S
C176 C177 1.349 . S
C176 C178 1.327 . S
C176 H201 0.950 . S
C177 C176 1.349 . S
C177 C193 1.349 . S
C178 C176 1.327 . S
C178 C197 1.429 . S
C178 H202 0.950 . S
C179 C196 1.574 . S
C179 C198 1.368 . S
C179 H203 0.949 . S
H180 C184 0.949 . S
C181 C182 1.349 . S
C181 C183 1.327 . S
C181 H204 0.950 . S
C182 C181 1.349 . S
C182 C194 1.349 . S
C183 C181 1.327 . S
C183 C199 1.429 . S
C183 H205 0.950 . S
C184 H180 0.949 . S
C184 C192 1.574 . S
C184 C200 1.368 . S
H185 C193 0.950 . S
H186 C191 0.950 . S
H187 C192 0.949 . S
H188 C194 0.950 . S
H189 C195 0.950 . S
H190 C196 0.949 . S
C191 H186 0.950 . S
C191 C193 1.327 . S
C191 C197 1.429 . S
C192 C184 1.574 . S
C192 H187 0.949 . S
C192 C198 1.368 . S
C193 C177 1.349 . S
C193 H185 0.950 . S
C193 C191 1.327 . S
C194 C182 1.349 . S
C194 H188 0.950 . S
C194 C195 1.327 . S
C195 H189 0.950 . S
C195 C194 1.327 . S
C195 C199 1.429 . S
C196 C179 1.574 . S
C196 H190 0.949 . S
C196 C200 1.368 . S
C197 C178 1.429 . S
C197 C191 1.429 . S
C197 C198 1.523 . S
C198 C179 1.368 . S
C198 C192 1.368 . S
C198 C197 1.523 . S
C199 C183 1.429 . S
C199 C195 1.429 . S
C199 C200 1.523 . S
C200 C184 1.368 . S
C200 C196 1.368 . S
C200 C199 1.523 . S
H201 C176 0.950 . S
H202 C178 0.950 . S
H203 C179 0.949 . S
H204 C181 0.950 . S
H205 C183 0.950 . S
C206 C207 1.349 . S
C206 C208 1.327 . S
C206 H231 0.950 . S
C207 C206 1.349 . S
C207 C223 1.349 . S
C208 C206 1.327 . S
C208 C227 1.429 . S
C208 H232 0.950 . S
C209 C226 1.574 . S
C209 C228 1.368 . S
C209 H233 0.949 . S
H210 C214 0.949 . S
C211 C212 1.349 . S
C211 C213 1.327 . S
C211 H234 0.950 . S
C212 C211 1.349 . S
C212 C224 1.349 . S
C213 C211 1.327 . S
C213 C229 1.429 . S
C213 H235 0.950 . S
C214 H210 0.949 . S
C214 C222 1.574 . S
C214 C230 1.368 . S
H215 C223 0.950 . S
H216 C221 0.950 . S
H217 C222 0.949 . S
H218 C224 0.950 . S
H219 C225 0.950 . S
H220 C226 0.949 . S
C221 H216 0.950 . S
C221 C223 1.327 . S
C221 C227 1.429 . S
C222 C214 1.574 . S
C222 H217 0.949 . S
C222 C228 1.368 . S
C223 C207 1.349 . S
C223 H215 0.950 . S
C223 C221 1.327 . S
C224 C212 1.349 . S
C224 H218 0.950 . S
C224 C225 1.327 . S
C225 H219 0.950 . S
C225 C224 1.327 . S
C225 C229 1.429 . S
C226 C209 1.574 . S
C226 H220 0.949 . S
C226 C230 1.368 . S
C227 C208 1.429 . S
C227 C221 1.429 . S
C227 C228 1.523 . S
C228 C209 1.368 . S
C228 C222 1.368 . S
C228 C227 1.523 . S
C229 C213 1.429 . S
C229 C225 1.429 . S
C229 C230 1.523 . S
C230 C214 1.368 . S
C230 C226 1.368 . S
C230 C229 1.523 . S
H231 C206 0.950 . S
H232 C208 0.950 . S
H233 C209 0.949 . S
H234 C211 0.950 . S
H235 C213 0.950 . S
C236 C237 1.349 . S
C236 C238 1.327 . S
C236 H261 0.950 . S
C237 C236 1.349 . S
C237 C253 1.349 . S
C238 C236 1.327 . S
C238 C257 1.429 . S
C238 H262 0.950 . S
C239 C256 1.574 . S
C239 C258 1.368 . S
C239 H263 0.949 . S
H240 C244 0.949 . S
C241 C242 1.349 . S
C241 C243 1.327 . S
C241 H264 0.950 . S
C242 C241 1.349 . S
C242 C254 1.349 . S
C243 C241 1.327 . S
C243 C259 1.429 . S
C243 H265 0.950 . S
C244 H240 0.949 . S
C244 C252 1.574 . S
C244 C260 1.368 . S
H245 C253 0.950 . S
H246 C251 0.950 . S
H247 C252 0.949 . S
H248 C254 0.950 . S
H249 C255 0.950 . S
H250 C256 0.949 . S
C251 H246 0.950 . S
C251 C253 1.327 . S
C251 C257 1.429 . S
C252 C244 1.574 . S
C252 H247 0.949 . S
C252 C258 1.368 . S
C253 C237 1.349 . S
C253 H245 0.950 . S
C253 C251 1.327 . S
C254 C242 1.349 . S
C254 H248 0.950 . S
C254 C255 1.327 . S
C255 H249 0.950 . S
C255 C254 1.327 . S
C255 C259 1.429 . S
C256 C239 1.574 . S
C256 H250 0.949 . S
C256 C260 1.368 . S
C257 C238 1.429 . S
C257 C251 1.429 . S
C257 C258 1.523 . S
C258 C239 1.368 . S
C258 C252 1.368 . S
C258 C257 1.523 . S
C259 C243 1.429 . S
C259 C255 1.429 . S
C259 C260 1.523 . S
C260 C244 1.368 . S
C260 C256 1.368 . S
C260 C259 1.523 . S
H261 C236 0.950 . S
H262 C238 0.950 . S
H263 C239 0.949 . S
H264 C241 0.950 . S
H265 C243 0.950 . S
C266 C267 1.349 . S
C266 C268 1.327 . S
C266 H291 0.950 . S
C267 C266 1.349 . S
C267 C283 1.349 . S
C268 C266 1.327 . S
C268 C287 1.429 . S
C268 H292 0.950 . S
C269 C286 1.574 . S
C269 C288 1.368 . S
C269 H293 0.949 . S
H270 C274 0.949 . S
C271 C272 1.349 . S
C271 C273 1.327 . S
C271 H294 0.950 . S
C272 C271 1.349 . S
C272 C284 1.349 . S
C273 C271 1.327 . S
C273 C289 1.429 . S
C273 H295 0.950 . S
C274 H270 0.949 . S
C274 C282 1.574 . S
C274 C290 1.368 . S
H275 C283 0.950 . S
H276 C281 0.950 . S
H277 C282 0.949 . S
H278 C284 0.950 . S
H279 C285 0.950 . S
H280 C286 0.949 . S
C281 H276 0.950 . S
C281 C283 1.327 . S
C281 C287 1.429 . S
C282 C274 1.574 . S
C282 H277 0.949 . S
C282 C288 1.368 1_554 S
C283 C267 1.349 . S
C283 H275 0.950 . S
C283 C281 1.327 . S
C284 C272 1.349 . S
C284 H278 0.950 . S
C284 C285 1.327 . S
C285 H279 0.950 . S
C285 C284 1.327 . S
C285 C289 1.429 . S
C286 C269 1.574 . S
C286 H280 0.949 . S
C286 C290 1.368 1_556 S
C287 C268 1.429 . S
C287 C281 1.429 . S
C287 C288 1.523 . S
C288 C269 1.368 . S
C288 C282 1.368 1_556 S
C288 C287 1.523 . S
C289 C273 1.429 . S
C289 C285 1.429 . S
C289 C290 1.523 . S
C290 C274 1.368 . S
C290 C286 1.368 1_554 S
C290 C289 1.523 . S
H291 C266 0.950 . S
H292 C268 0.950 . S
H293 C269 0.949 . S
H294 C271 0.950 . S
H295 C273 0.950 . S
C296 C297 1.349 . S
C296 C298 1.327 . S
C296 H321 0.950 . S
C297 C296 1.349 . S
C297 C313 1.349 . S
C298 C296 1.327 . S
C298 C317 1.429 . S
C298 H322 0.950 . S
C299 C316 1.574 . S
C299 C318 1.368 1_556 S
C299 H323 0.949 . S
H300 C304 0.949 . S
C301 C302 1.349 . S
C301 C303 1.327 . S
C301 H324 0.950 . S
C302 C301 1.349 . S
C302 C314 1.349 . S
C303 C301 1.327 . S
C303 C319 1.429 . S
C303 H325 0.950 . S
C304 H300 0.949 . S
C304 C312 1.574 . S
C304 C320 1.368 1_554 S
H305 C313 0.950 . S
H306 C311 0.950 . S
H307 C312 0.949 . S
H308 C314 0.950 . S
H309 C315 0.950 . S
H310 C316 0.949 . S
C311 H306 0.950 . S
C311 C313 1.327 . S
C311 C317 1.429 . S
C312 C304 1.574 . S
C312 H307 0.949 . S
C312 C318 1.368 . S
C313 C297 1.349 . S
C313 H305 0.950 . S
C313 C311 1.327 . S
C314 C302 1.349 . S
C314 H308 0.950 . S
C314 C315 1.327 . S
C315 H309 0.950 . S
C315 C314 1.327 . S
C315 C319 1.429 . S
C316 C299 1.574 . S
C316 H310 0.949 . S
C316 C320 1.368 . S
C317 C298 1.429 . S
C317 C311 1.429 . S
C317 C318 1.523 . S
C318 C299 1.368 1_554 S
C318 C312 1.368 . S
C318 C317 1.523 . S
C319 C303 1.429 . S
C319 C315 1.429 . S
C319 C320 1.523 . S
C320 C304 1.368 1_556 S
C320 C316 1.368 . S
C320 C319 1.523 . S
H321 C296 0.950 . S
H322 C298 0.950 . S
H323 C299 0.949 . S
H324 C301 0.950 . S
H325 C303 0.950 . S
C326 C327 1.349 . S
C326 C328 1.327 . S
C326 H351 0.950 . S
C327 C326 1.349 . S
C327 C343 1.349 . S
C328 C326 1.327 . S
C328 C347 1.429 . S
C328 H352 0.950 . S
C329 C346 1.574 . S
C329 C348 1.368 . S
C329 H353 0.949 . S
H330 C334 0.949 . S
C331 C332 1.349 . S
C331 C333 1.327 . S
C331 H354 0.950 . S
C332 C331 1.349 . S
C332 C344 1.349 . S
C333 C331 1.327 . S
C333 C349 1.429 . S
C333 H355 0.950 . S
C334 H330 0.949 . S
C334 C342 1.574 . S
C334 C350 1.368 . S
H335 C343 0.950 . S
H336 C341 0.950 . S
H337 C342 0.949 . S
H338 C344 0.950 . S
H339 C345 0.950 . S
H340 C346 0.949 . S
C341 H336 0.950 . S
C341 C343 1.327 . S
C341 C347 1.429 . S
C342 C334 1.574 . S
C342 H337 0.949 . S
C342 C348 1.368 . S
C343 C327 1.349 . S
C343 H335 0.950 . S
C343 C341 1.327 . S
C344 C332 1.349 . S
C344 H338 0.950 . S
C344 C345 1.327 . S
C345 H339 0.950 . S
C345 C344 1.327 . S
C345 C349 1.429 . S
C346 C329 1.574 . S
C346 H340 0.949 . S
C346 C350 1.368 . S
C347 C328 1.429 . S
C347 C341 1.429 . S
C347 C348 1.523 . S
C348 C329 1.368 . S
C348 C342 1.368 . S
C348 C347 1.523 . S
C349 C333 1.429 . S
C349 C345 1.429 . S
C349 C350 1.523 . S
C350 C334 1.368 . S
C350 C346 1.368 . S
C350 C349 1.523 . S
H351 C326 0.950 . S
H352 C328 0.950 . S
H353 C329 0.949 . S
H354 C331 0.950 . S
H355 C333 0.950 . S
C356 C357 1.349 . S
C356 C358 1.327 . S
C356 H381 0.950 . S
C357 C356 1.349 . S
C357 C373 1.349 . S
C358 C356 1.327 . S
C358 C377 1.429 . S
C358 H382 0.950 . S
C359 C376 1.574 . S
C359 C378 1.368 . S
C359 H383 0.949 . S
H360 C364 0.949 . S
C361 C362 1.349 . S
C361 C363 1.327 . S
C361 H384 0.950 . S
C362 C361 1.349 . S
C362 C374 1.349 . S
C363 C361 1.327 . S
C363 C379 1.429 . S
C363 H385 0.950 . S
C364 H360 0.949 . S
C364 C372 1.574 . S
C364 C380 1.368 . S
H365 C373 0.950 . S
H366 C371 0.950 . S
H367 C372 0.949 . S
H368 C374 0.950 . S
H369 C375 0.950 . S
H370 C376 0.949 . S
C371 H366 0.950 . S
C371 C373 1.327 . S
C371 C377 1.429 . S
C372 C364 1.574 . S
C372 H367 0.949 . S
C372 C378 1.368 . S
C373 C357 1.349 . S
C373 H365 0.950 . S
C373 C371 1.327 . S
C374 C362 1.349 . S
C374 H368 0.950 . S
C374 C375 1.327 . S
C375 H369 0.950 . S
C375 C374 1.327 . S
C375 C379 1.429 . S
C376 C359 1.574 . S
C376 H370 0.949 . S
C376 C380 1.368 . S
C377 C358 1.429 . S
C377 C371 1.429 . S
C377 C378 1.523 . S
C378 C359 1.368 . S
C378 C372 1.368 . S
C378 C377 1.523 . S
C379 C363 1.429 . S
C379 C375 1.429 . S
C379 C380 1.523 . S
C380 C364 1.368 . S
C380 C376 1.368 . S
C380 C379 1.523 . S
H381 C356 0.950 . S
H382 C358 0.950 . S
H383 C359 0.949 . S
H384 C361 0.950 . S
H385 C363 0.950 . S
C386 C387 1.349 . S
C386 C388 1.327 . S
C386 H411 0.950 . S
C387 C386 1.349 . S
C387 C403 1.349 . S
C388 C386 1.327 . S
C388 C407 1.429 . S
C388 H412 0.950 . S
C389 C406 1.574 . S
C389 C408 1.368 . S
C389 H413 0.949 . S
H390 C394 0.949 . S
C391 C392 1.349 . S
C391 C393 1.327 . S
C391 H414 0.950 . S
C392 C391 1.349 . S
C392 C404 1.349 . S
C393 C391 1.327 . S
C393 C409 1.429 . S
C393 H415 0.950 . S
C394 H390 0.949 . S
C394 C402 1.574 . S
C394 C410 1.368 . S
H395 C403 0.950 . S
H396 C401 0.950 . S
H397 C402 0.949 . S
H398 C404 0.950 . S
H399 C405 0.950 . S
H400 C406 0.949 . S
C401 H396 0.950 . S
C401 C403 1.327 . S
C401 C407 1.429 . S
C402 C394 1.574 . S
C402 H397 0.949 . S
C402 C408 1.368 . S
C403 C387 1.349 . S
C403 H395 0.950 . S
C403 C401 1.327 . S
C404 C392 1.349 . S
C404 H398 0.950 . S
C404 C405 1.327 . S
C405 H399 0.950 . S
C405 C404 1.327 . S
C405 C409 1.429 . S
C406 C389 1.574 . S
C406 H400 0.949 . S
C406 C410 1.368 . S
C407 C388 1.429 . S
C407 C401 1.429 . S
C407 C408 1.523 . S
C408 C389 1.368 . S
C408 C402 1.368 . S
C408 C407 1.523 . S
C409 C393 1.429 . S
C409 C405 1.429 . S
C409 C410 1.523 . S
C410 C394 1.368 . S
C410 C406 1.368 . S
C410 C409 1.523 . S
H411 C386 0.950 . S
H412 C388 0.950 . S
H413 C389 0.949 . S
H414 C391 0.950 . S
H415 C393 0.950 . S
C416 C417 1.349 . S
C416 C418 1.327 . S
C416 H441 0.950 . S
C417 C416 1.349 . S
C417 C433 1.349 . S
C418 C416 1.327 . S
C418 C437 1.429 . S
C418 H442 0.950 . S
C419 C436 1.574 . S
C419 C438 1.368 . S
C419 H443 0.949 . S
H420 C424 0.949 . S
C421 C422 1.349 . S
C421 C423 1.327 . S
C421 H444 0.950 . S
C422 C421 1.349 . S
C422 C434 1.349 . S
C423 C421 1.327 . S
C423 C439 1.429 . S
C423 H445 0.950 . S
C424 H420 0.949 . S
C424 C432 1.574 . S
C424 C440 1.368 . S
H425 C433 0.950 . S
H426 C431 0.950 . S
H427 C432 0.949 . S
H428 C434 0.950 . S
H429 C435 0.950 . S
H430 C436 0.949 . S
C431 H426 0.950 . S
C431 C433 1.327 . S
C431 C437 1.429 . S
C432 C424 1.574 . S
C432 H427 0.949 . S
C432 C438 1.368 . S
C433 C417 1.349 . S
C433 H425 0.950 . S
C433 C431 1.327 . S
C434 C422 1.349 . S
C434 H428 0.950 . S
C434 C435 1.327 . S
C435 H429 0.950 . S
C435 C434 1.327 . S
C435 C439 1.429 . S
C436 C419 1.574 . S
C436 H430 0.949 . S
C436 C440 1.368 . S
C437 C418 1.429 . S
C437 C431 1.429 . S
C437 C438 1.523 . S
C438 C419 1.368 . S
C438 C432 1.368 . S
C438 C437 1.523 . S
C439 C423 1.429 . S
C439 C435 1.429 . S
C439 C440 1.523 . S
C440 C424 1.368 . S
C440 C436 1.368 . S
C440 C439 1.523 . S
H441 C416 0.950 . S
H442 C418 0.950 . S
H443 C419 0.949 . S
H444 C421 0.950 . S
H445 C423 0.950 . S
C446 C447 1.349 . S
C446 C448 1.327 . S
C446 H471 0.950 . S
C447 C446 1.349 . S
C447 C463 1.349 . S
C448 C446 1.327 . S
C448 C467 1.429 . S
C448 H472 0.950 . S
C449 C466 1.574 . S
C449 C468 1.368 . S
C449 H473 0.949 . S
H450 C454 0.949 . S
C451 C452 1.349 . S
C451 C453 1.327 . S
C451 H474 0.950 . S
C452 C451 1.349 . S
C452 C464 1.349 . S
C453 C451 1.327 . S
C453 C469 1.429 . S
C453 H475 0.950 . S
C454 H450 0.949 . S
C454 C462 1.574 . S
C454 C470 1.368 . S
H455 C463 0.950 . S
H456 C461 0.950 . S
H457 C462 0.949 . S
H458 C464 0.950 . S
H459 C465 0.950 . S
H460 C466 0.949 . S
C461 H456 0.950 . S
C461 C463 1.327 . S
C461 C467 1.429 . S
C462 C454 1.574 . S
C462 H457 0.949 . S
C462 C468 1.368 . S
C463 C447 1.349 . S
C463 H455 0.950 . S
C463 C461 1.327 . S
C464 C452 1.349 . S
C464 H458 0.950 . S
C464 C465 1.327 . S
C465 H459 0.950 . S
C465 C464 1.327 . S
C465 C469 1.429 . S
C466 C449 1.574 . S
C466 H460 0.949 . S
C466 C470 1.368 . S
C467 C448 1.429 . S
C467 C461 1.429 . S
C467 C468 1.523 . S
C468 C449 1.368 . S
C468 C462 1.368 . S
C468 C467 1.523 . S
C469 C453 1.429 . S
C469 C465 1.429 . S
C469 C470 1.523 . S
C470 C454 1.368 . S
C470 C466 1.368 . S
C470 C469 1.523 . S
H471 C446 0.950 . S
H472 C448 0.950 . S
H473 C449 0.949 . S
H474 C451 0.950 . S
H475 C453 0.950 . S
C476 C477 1.349 . S
C476 C478 1.327 . S
C476 H501 0.950 . S
C477 C476 1.349 . S
C477 C493 1.349 . S
C478 C476 1.327 . S
C478 C497 1.429 . S
C478 H502 0.950 . S
C479 C496 1.574 . S
C479 C498 1.368 . S
C479 H503 0.949 . S
H480 C484 0.949 . S
C481 C482 1.349 . S
C481 C483 1.327 . S
C481 H504 0.950 . S
C482 C481 1.349 . S
C482 C494 1.349 . S
C483 C481 1.327 . S
C483 C499 1.429 . S
C483 H505 0.950 . S
C484 H480 0.949 . S
C484 C492 1.574 . S
C484 C500 1.368 . S
H485 C493 0.950 . S
H486 C491 0.950 . S
H487 C492 0.949 . S
H488 C494 0.950 . S
H489 C495 0.950 . S
H490 C496 0.949 . S
C491 H486 0.950 . S
C491 C493 1.327 . S
C491 C497 1.429 . S
C492 C484 1.574 . S
C492 H487 0.949 . S
C492 C498 1.368 . S
C493 C477 1.349 . S
C493 H485 0.950 . S
C493 C491 1.327 . S
C494 C482 1.349 . S
C494 H488 0.950 . S
C494 C495 1.327 . S
C495 H489 0.950 . S
C495 C494 1.327 . S
C495 C499 1.429 . S
C496 C479 1.574 . S
C496 H490 0.949 . S
C496 C500 1.368 . S
C497 C478 1.429 . S
C497 C491 1.429 . S
C497 C498 1.523 . S
C498 C479 1.368 . S
C498 C492 1.368 . S
C498 C497 1.523 . S
C499 C483 1.429 . S
C499 C495 1.429 . S
C499 C500 1.523 . S
C500 C484 1.368 . S
C500 C496 1.368 . S
C500 C499 1.523 . S
H501 C476 0.950 . S
H502 C478 0.950 . S
H503 C479 0.949 . S
H504 C481 0.950 . S
H505 C483 0.950 . S
C506 C507 1.349 . S
C506 C508 1.327 . S
C506 H531 0.950 . S
C507 C506 1.349 . S
C507 C523 1.349 . S
C508 C506 1.327 . S
C508 C527 1.429 . S
C508 H532 0.950 . S
C509 C526 1.574 . S
C509 C528 1.368 . S
C509 H533 0.949 . S
H510 C514 0.949 . S
C511 C512 1.349 . S
C511 C513 1.327 . S
C511 H534 0.950 . S
C512 C511 1.349 . S
C512 C524 1.349 . S
C513 C511 1.327 . S
C513 C529 1.429 . S
C513 H535 0.950 . S
C514 H510 0.949 . S
C514 C522 1.574 . S
C514 C530 1.368 . S
H515 C523 0.950 . S
H516 C521 0.950 . S
H517 C522 0.949 . S
H518 C524 0.950 . S
H519 C525 0.950 . S
H520 C526 0.949 . S
C521 H516 0.950 . S
C521 C523 1.327 . S
C521 C527 1.429 . S
C522 C514 1.574 . S
C522 H517 0.949 . S
C522 C528 1.368 . S
C523 C507 1.349 . S
C523 H515 0.950 . S
C523 C521 1.327 . S
C524 C512 1.349 . S
C524 H518 0.950 . S
C524 C525 1.327 . S
C525 H519 0.950 . S
C525 C524 1.327 . S
C525 C529 1.429 . S
C526 C509 1.574 . S
C526 H520 0.949 . S
C526 C530 1.368 . S
C527 C508 1.429 . S
C527 C521 1.429 . S
C527 C528 1.523 . S
C528 C509 1.368 . S
C528 C522 1.368 . S
C528 C527 1.523 . S
C529 C513 1.429 . S
C529 C525 1.429 . S
C529 C530 1.523 . S
C530 C514 1.368 . S
C530 C526 1.368 . S
C530 C529 1.523 . S
H531 C506 0.950 . S
H532 C508 0.950 . S
H533 C509 0.949 . S
H534 C511 0.950 . S
H535 C513 0.950 . S
C536 C537 1.349 . S
C536 C538 1.327 . S
C536 H561 0.950 . S
C537 C536 1.349 . S
C537 C553 1.349 . S
C538 C536 1.327 . S
C538 C557 1.429 . S
C538 H562 0.950 . S
C539 C556 1.574 . S
C539 C558 1.368 . S
C539 H563 0.949 . S
H540 C544 0.949 . S
C541 C542 1.349 . S
C541 C543 1.327 . S
C541 H564 0.950 . S
C542 C541 1.349 . S
C542 C554 1.349 . S
C543 C541 1.327 . S
C543 C559 1.429 . S
C543 H565 0.950 . S
C544 H540 0.949 . S
C544 C552 1.574 . S
C544 C560 1.368 . S
H545 C553 0.950 . S
H546 C551 0.950 . S
H547 C552 0.949 . S
H548 C554 0.950 . S
H549 C555 0.950 . S
H550 C556 0.949 . S
C551 H546 0.950 . S
C551 C553 1.327 . S
C551 C557 1.429 . S
C552 C544 1.574 . S
C552 H547 0.949 . S
C552 C558 1.368 . S
C553 C537 1.349 . S
C553 H545 0.950 . S
C553 C551 1.327 . S
C554 C542 1.349 . S
C554 H548 0.950 . S
C554 C555 1.327 . S
C555 H549 0.950 . S
C555 C554 1.327 . S
C555 C559 1.429 . S
C556 C539 1.574 . S
C556 H550 0.949 . S
C556 C560 1.368 . S
C557 C538 1.429 . S
C557 C551 1.429 . S
C557 C558 1.523 . S
C558 C539 1.368 . S
C558 C552 1.368 . S
C558 C557 1.523 . S
C559 C543 1.429 . S
C559 C555 1.429 . S
C559 C560 1.523 . S
C560 C544 1.368 . S
C560 C556 1.368 . S
C560 C559 1.523 . S
H561 C536 0.950 . S
H562 C538 0.950 . S
H563 C539 0.949 . S
H564 C541 0.950 . S
H565 C543 0.950 . S
C566 C567 1.349 . S
C566 C568 1.327 . S
C566 H591 0.950 . S
C567 C566 1.349 . S
C567 C583 1.349 . S
C568 C566 1.327 . S
C568 C587 1.429 . S
C568 H592 0.950 . S
C569 C586 1.574 . S
C569 C588 1.368 . S
C569 H593 0.949 . S
H570 C574 0.949 . S
C571 C572 1.349 . S
C571 C573 1.327 . S
C571 H594 0.950 . S
C572 C571 1.349 . S
C572 C584 1.349 . S
C573 C571 1.327 . S
C573 C589 1.429 . S
C573 H595 0.950 . S
C574 H570 0.949 . S
C574 C582 1.574 . S
C574 C590 1.368 . S
H575 C583 0.950 . S
H576 C581 0.950 . S
H577 C582 0.949 . S
H578 C584 0.950 . S
H579 C585 0.950 . S
H580 C586 0.949 . S
C581 H576 0.950 . S
C581 C583 1.327 . S
C581 C587 1.429 . S
C582 C574 1.574 . S
C582 H577 0.949 . S
C582 C588 1.368 . S
C583 C567 1.349 . S
C583 H575 0.950 . S
C583 C581 1.327 . S
C584 C572 1.349 . S
C584 H578 0.950 . S
C584 C585 1.327 . S
C585 H579 0.950 . S
C585 C584 1.327 . S
C585 C589 1.429 . S
C586 C569 1.574 . S
C586 H580 0.949 . S
C586 C590 1.368 . S
C587 C568 1.429 . S
C587 C581 1.429 . S
C587 C588 1.523 . S
C588 C569 1.368 . S
C588 C582 1.368 . S
C588 C587 1.523 . S
C589 C573 1.429 . S
C589 C585 1.429 . S
C589 C590 1.523 . S
C590 C574 1.368 . S
C590 C586 1.368 . S
C590 C589 1.523 . S
H591 C566 0.950 . S
H592 C568 0.950 . S
H593 C569 0.949 . S
H594 C571 0.950 . S
H595 C573 0.950 . S
C596 C597 1.349 . S
C596 C598 1.327 . S
C596 H621 0.950 . S
C597 C596 1.349 . S
C597 C613 1.349 . S
C598 C596 1.327 . S
C598 C617 1.429 . S
C598 H622 0.950 . S
C599 C616 1.574 . S
C599 C618 1.368 . S
C599 H623 0.949 . S
H600 C604 0.949 . S
C601 C602 1.349 . S
C601 C603 1.327 . S
C601 H624 0.950 . S
C602 C601 1.349 . S
C602 C614 1.349 . S
C603 C601 1.327 . S
C603 C619 1.429 . S
C603 H625 0.950 . S
C604 H600 0.949 . S
C604 C612 1.574 . S
C604 C620 1.368 . S
H605 C613 0.950 . S
H606 C611 0.950 . S
H607 C612 0.949 . S
H608 C614 0.950 . S
H609 C615 0.950 . S
H610 C616 0.949 . S
C611 H606 0.950 . S
C611 C613 1.327 . S
C611 C617 1.429 . S
C612 C604 1.574 . S
C612 H607 0.949 . S
C612 C618 1.368 . S
C613 C597 1.349 . S
C613 H605 0.950 . S
C613 C611 1.327 . S
C614 C602 1.349 . S
C614 H608 0.950 . S
C614 C615 1.327 . S
C615 H609 0.950 . S
C615 C614 1.327 . S
C615 C619 1.429 . S
C616 C599 1.574 . S
C616 H610 0.949 . S
C616 C620 1.368 . S
C617 C598 1.429 . S
C617 C611 1.429 . S
C617 C618 1.523 . S
C618 C599 1.368 . S
C618 C612 1.368 . S
C618 C617 1.523 . S
C619 C603 1.429 . S
C619 C615 1.429 . S
C619 C620 1.523 . S
C620 C604 1.368 . S
C620 C616 1.368 . S
C620 C619 1.523 . S
H621 C596 0.950 . S
H622 C598 0.950 . S
H623 C599 0.949 . S
H624 C601 0.950 . S
H625 C603 0.950 . S
C626 C627 1.349 . S
C626 C628 1.327 . S
C626 H651 0.950 . S
C627 C626 1.349 . S
C627 C643 1.349 . S
C628 C626 1.327 . S
C628 C647 1.429 . S
C628 H652 0.950 . S
C629 C646 1.574 . S
C629 C648 1.368 . S
C629 H653 0.949 . S
H630 C634 0.949 . S
C631 C632 1.349 . S
C631 C633 1.327 . S
C631 H654 0.950 . S
C632 C631 1.349 . S
C632 C644 1.349 . S
C633 C631 1.327 . S
C633 C649 1.429 . S
C633 H655 0.950 . S
C634 H630 0.949 . S
C634 C642 1.574 . S
C634 C650 1.368 . S
H635 C643 0.950 . S
H636 C641 0.950 . S
H637 C642 0.949 . S
H638 C644 0.950 . S
H639 C645 0.950 . S
H640 C646 0.949 . S
C641 H636 0.950 . S
C641 C643 1.327 . S
C641 C647 1.429 . S
C642 C634 1.574 . S
C642 H637 0.949 . S
C642 C648 1.368 . S
C643 C627 1.349 . S
C643 H635 0.950 . S
C643 C641 1.327 . S
C644 C632 1.349 . S
C644 H638 0.950 . S
C644 C645 1.327 . S
C645 H639 0.950 . S
C645 C644 1.327 . S
C645 C649 1.429 . S
C646 C629 1.574 . S
C646 H640 0.949 . S
C646 C650 1.368 . S
C647 C628 1.429 . S
C647 C641 1.429 . S
C647 C648 1.523 . S
C648 C629 1.368 . S
C648 C642 1.368 . S
C648 C647 1.523 . S
C649 C633 1.429 . S
C649 C645 1.429 . S
C649 C650 1.523 . S
C650 C634 1.368 . S
C650 C646 1.368 . S
C650 C649 1.523 . S
H651 C626 0.950 . S
H652 C628 0.950 . S
H653 C629 0.949 . S
H654 C631 0.950 . S
H655 C633 0.950 . S
C656 C657 1.349 . S
C656 C658 1.327 . S
C656 H681 0.950 . S
C657 C656 1.349 . S
C657 C673 1.349 . S
C658 C656 1.327 . S
C658 C677 1.429 . S
C658 H682 0.950 . S
C659 C676 1.574 1_455 S
C659 C678 1.368 . S
C659 H683 0.949 . S
H660 C664 0.949 . S
C661 C662 1.349 . S
C661 C663 1.327 . S
C661 H684 0.950 . S
C662 C661 1.349 . S
C662 C674 1.349 . S
C663 C661 1.327 . S
C663 C679 1.429 . S
C663 H685 0.950 . S
C664 H660 0.949 . S
C664 C672 1.574 1_655 S
C664 C680 1.368 . S
H665 C673 0.950 . S
H666 C671 0.950 . S
H667 C672 0.949 . S
H668 C674 0.950 . S
H669 C675 0.950 . S
H670 C676 0.949 . S
C671 H666 0.950 . S
C671 C673 1.327 . S
C671 C677 1.429 . S
C672 C664 1.574 1_455 S
C672 H667 0.949 . S
C672 C678 1.368 1_565 S
C673 C657 1.349 . S
C673 H665 0.950 . S
C673 C671 1.327 . S
C674 C662 1.349 . S
C674 H668 0.950 . S
C674 C675 1.327 . S
C675 H669 0.950 . S
C675 C674 1.327 . S
C675 C679 1.429 . S
C676 C659 1.574 1_655 S
C676 H670 0.949 . S
C676 C680 1.368 1_545 S
C677 C658 1.429 . S
C677 C671 1.429 . S
C677 C678 1.523 . S
C678 C659 1.368 . S
C678 C672 1.368 1_545 S
C678 C677 1.523 . S
C679 C663 1.429 . S
C679 C675 1.429 . S
C679 C680 1.523 . S
C680 C664 1.368 . S
C680 C676 1.368 1_565 S
C680 C679 1.523 . S
H681 C656 0.950 . S
H682 C658 0.950 . S
H683 C659 0.949 . S
H684 C661 0.950 . S
H685 C663 0.950 . S
C686 C687 1.349 . S
C686 C688 1.327 . S
C686 H711 0.950 . S
C687 C686 1.349 . S
C687 C703 1.349 . S
C688 C686 1.327 . S
C688 C707 1.429 . S
C688 H712 0.950 . S
C689 C706 1.574 . S
C689 C708 1.368 1_655 S
C689 H713 0.949 . S
H690 C694 0.949 . S
C691 C692 1.349 . S
C691 C693 1.327 . S
C691 H714 0.950 . S
C692 C691 1.349 . S
C692 C704 1.349 . S
C693 C691 1.327 . S
C693 C709 1.429 . S
C693 H715 0.950 . S
C694 H690 0.949 . S
C694 C702 1.574 . S
C694 C710 1.368 1_455 S
H695 C703 0.950 . S
H696 C701 0.950 . S
H697 C702 0.949 . S
H698 C704 0.950 . S
H699 C705 0.950 . S
H700 C706 0.949 . S
C701 H696 0.950 . S
C701 C703 1.327 . S
C701 C707 1.429 . S
C702 C694 1.574 . S
C702 H697 0.949 . S
C702 C708 1.368 . S
C703 C687 1.349 . S
C703 H695 0.950 . S
C703 C701 1.327 . S
C704 C692 1.349 . S
C704 H698 0.950 . S
C704 C705 1.327 . S
C705 H699 0.950 . S
C705 C704 1.327 . S
C705 C709 1.429 . S
C706 C689 1.574 . S
C706 H700 0.949 . S
C706 C710 1.368 . S
C707 C688 1.429 . S
C707 C701 1.429 . S
C707 C708 1.523 . S
C708 C689 1.368 1_455 S
C708 C702 1.368 . S
C708 C707 1.523 . S
C709 C693 1.429 . S
C709 C705 1.429 . S
C709 C710 1.523 . S
C710 C694 1.368 1_655 S
C710 C706 1.368 . S
C710 C709 1.523 . S
H711 C686 0.950 . S
H712 C688 0.950 . S
H713 C689 0.949 . S
H714 C691 0.950 . S
H715 C693 0.950 . S
C716 C717 1.349 . S
C716 C718 1.327 . S
C716 H741 0.950 . S
C717 C716 1.349 . S
C717 C733 1.349 . S
C718 C716 1.327 . S
C718 C737 1.429 . S
C718 H742 0.950 . S
C719 C736 1.574 . S
C719 C738 1.368 . S
C719 H743 0.949 . S
H720 C724 0.949 . S
C721 C722 1.349 . S
C721 C723 1.327 . S
C721 H744 0.950 . S
C722 C721 1.349 . S
C722 C734 1.349 . S
C723 C721 1.327 . S
C723 C739 1.429 . S
C723 H745 0.950 . S
C724 H720 0.949 . S
C724 C732 1.574 . S
C724 C740 1.368 . S
H725 C733 0.950 . S
H726 C731 0.950 . S
H727 C732 0.949 . S
H728 C734 0.950 . S
H729 C735 0.950 . S
H730 C736 0.949 . S
C731 H726 0.950 . S
C731 C733 1.327 . S
C731 C737 1.429 . S
C732 C724 1.574 . S
C732 H727 0.949 . S
C732 C738 1.368 . S
C733 C717 1.349 . S
C733 H725 0.950 . S
C733 C731 1.327 . S
C734 C722 1.349 . S
C734 H728 0.950 . S
C734 C735 1.327 . S
C735 H729 0.950 . S
C735 C734 1.327 . S
C735 C739 1.429 . S
C736 C719 1.574 . S
C736 H730 0.949 . S
C736 C740 1.368 . S
C737 C718 1.429 . S
C737 C731 1.429 . S
C737 C738 1.523 . S
C738 C719 1.368 . S
C738 C732 1.368 . S
C738 C737 1.523 . S
C739 C723 1.429 . S
C739 C735 1.429 . S
C739 C740 1.523 . S
C740 C724 1.368 . S
C740 C736 1.368 . S
C740 C739 1.523 . S
H741 C716 0.950 . S
H742 C718 0.950 . S
H743 C719 0.949 . S
H744 C721 0.950 . S
H745 C723 0.950 . S
C746 C747 1.349 . S
C746 C748 1.327 . S
C746 H771 0.950 . S
C747 C746 1.349 . S
C747 C763 1.349 . S
C748 C746 1.327 . S
C748 C767 1.429 . S
C748 H772 0.950 . S
C749 C766 1.574 1_545 S
C749 C768 1.368 . S
C749 H773 0.949 . S
H750 C754 0.949 . S
C751 C752 1.349 . S
C751 C753 1.327 . S
C751 H774 0.950 . S
C752 C751 1.349 . S
C752 C764 1.349 . S
C753 C751 1.327 . S
C753 C769 1.429 . S
C753 H775 0.950 . S
C754 H750 0.949 . S
C754 C762 1.574 1_565 S
C754 C770 1.368 . S
H755 C763 0.950 . S
H756 C761 0.950 . S
H757 C762 0.949 . S
H758 C764 0.950 . S
H759 C765 0.950 . S
H760 C766 0.949 . S
C761 H756 0.950 . S
C761 C763 1.327 . S
C761 C767 1.429 . S
C762 C754 1.574 1_545 S
C762 H757 0.949 . S
C762 C768 1.368 . S
C763 C747 1.349 . S
C763 H755 0.950 . S
C763 C761 1.327 . S
C764 C752 1.349 . S
C764 H758 0.950 . S
C764 C765 1.327 . S
C765 H759 0.950 . S
C765 C764 1.327 . S
C765 C769 1.429 . S
C766 C749 1.574 1_565 S
C766 H760 0.949 . S
C766 C770 1.368 . S
C767 C748 1.429 . S
C767 C761 1.429 . S
C767 C768 1.523 . S
C768 C749 1.368 . S
C768 C762 1.368 . S
C768 C767 1.523 . S
C769 C753 1.429 . S
C769 C765 1.429 . S
C769 C770 1.523 . S
C770 C754 1.368 . S
C770 C766 1.368 . S
C770 C769 1.523 . S
H771 C746 0.950 . S
H772 C748 0.950 . S
H773 C749 0.949 . S
H774 C751 0.950 . S
H775 C753 0.950 . S
C776 C777 1.349 . S
C776 C778 1.327 . S
C776 H801 0.950 . S
C777 C776 1.349 . S
C777 C793 1.349 . S
C778 C776 1.327 . S
C778 C797 1.429 . S
C778 H802 0.950 . S
C779 C796 1.574 1_655 S
C779 C798 1.368 . S
C779 H803 0.949 . S
H780 C784 0.949 . S
C781 C782 1.349 . S
C781 C783 1.327 . S
C781 H804 0.950 . S
C782 C781 1.349 . S
C782 C794 1.349 . S
C783 C781 1.327 . S
C783 C799 1.429 . S
C783 H805 0.950 . S
C784 H780 0.949 . S
C784 C792 1.574 1_455 S
C784 C800 1.368 . S
H785 C793 0.950 . S
H786 C791 0.950 . S
H787 C792 0.949 . S
H788 C794 0.950 . S
H789 C795 0.950 . S
H790 C796 0.949 . S
C791 H786 0.950 . S
C791 C793 1.327 . S
C791 C797 1.429 . S
C792 C784 1.574 1_655 S
C792 H787 0.949 . S
C792 C798 1.368 . S
C793 C777 1.349 . S
C793 H785 0.950 . S
C793 C791 1.327 . S
C794 C782 1.349 . S
C794 H788 0.950 . S
C794 C795 1.327 . S
C795 H789 0.950 . S
C795 C794 1.327 . S
C795 C799 1.429 . S
C796 C779 1.574 1_455 S
C796 H790 0.949 . S
C796 C800 1.368 . S
C797 C778 1.429 . S
C797 C791 1.429 . S
C797 C798 1.523 . S
C798 C779 1.368 . S
C798 C792 1.368 . S
C798 C797 1.523 . S
C799 C783 1.429 . S
C799 C795 1.429 . S
C799 C800 1.523 . S
C800 C784 1.368 . S
C800 C796 1.368 . S
C800 C799 1.523 . S
H801 C776 0.950 . S
H802 C778 0.950 . S
H803 C779 0.949 . S
H804 C781 0.950 . S
H805 C783 0.950 . S
C806 C807 1.349 . S
C806 C808 1.327 . S
C806 H831 0.950 . S
C807 C806 1.349 . S
C807 C823 1.349 . S
C808 C806 1.327 . S
C808 C827 1.429 . S
C808 H832 0.950 . S
C809 C826 1.574 . S
C809 C828 1.368 . S
C809 H833 0.949 . S
H810 C814 0.949 . S
C811 C812 1.349 . S
C811 C813 1.327 . S
C811 H834 0.950 . S
C812 C811 1.349 . S
C812 C824 1.349 . S
C813 C811 1.327 . S
C813 C829 1.429 . S
C813 H835 0.950 . S
C814 H810 0.949 . S
C814 C822 1.574 . S
C814 C830 1.368 . S
H815 C823 0.950 . S
H816 C821 0.950 . S
H817 C822 0.949 . S
H818 C824 0.950 . S
H819 C825 0.950 . S
H820 C826 0.949 . S
C821 H816 0.950 . S
C821 C823 1.327 . S
C821 C827 1.429 . S
C822 C814 1.574 . S
C822 H817 0.949 . S
C822 C828 1.368 . S
C823 C807 1.349 . S
C823 H815 0.950 . S
C823 C821 1.327 . S
C824 C812 1.349 . S
C824 H818 0.950 . S
C824 C825 1.327 . S
C825 H819 0.950 . S
C825 C824 1.327 . S
C825 C829 1.429 . S
C826 C809 1.574 . S
C826 H820 0.949 . S
C826 C830 1.368 . S
C827 C808 1.429 . S
C827 C821 1.429 . S
C827 C828 1.523 . S
C828 C809 1.368 . S
C828 C822 1.368 . S
C828 C827 1.523 . S
C829 C813 1.429 . S
C829 C825 1.429 . S
C829 C830 1.523 . S
C830 C814 1.368 . S
C830 C826 1.368 . S
C830 C829 1.523 . S
H831 C806 0.950 . S
H832 C808 0.950 . S
H833 C809 0.949 . S
H834 C811 0.950 . S
H835 C813 0.950 . S
C836 C837 1.349 . S
C836 C838 1.327 . S
C836 H861 0.950 . S
C837 C836 1.349 . S
C837 C853 1.349 . S
C838 C836 1.327 . S
C838 C857 1.429 . S
C838 H862 0.950 . S
C839 C856 1.574 . S
C839 C858 1.368 1_565 S
C839 H863 0.949 . S
H840 C844 0.949 . S
C841 C842 1.349 . S
C841 C843 1.327 . S
C841 H864 0.950 . S
C842 C841 1.349 . S
C842 C854 1.349 . S
C843 C841 1.327 . S
C843 C859 1.429 . S
C843 H865 0.950 . S
C844 H840 0.949 . S
C844 C852 1.574 . S
C844 C860 1.368 1_545 S
H845 C853 0.950 . S
H846 C851 0.950 . S
H847 C852 0.949 . S
H848 C854 0.950 . S
H849 C855 0.950 . S
H850 C856 0.949 . S
C851 H846 0.950 . S
C851 C853 1.327 . S
C851 C857 1.429 . S
C852 C844 1.574 . S
C852 H847 0.949 . S
C852 C858 1.368 . S
C853 C837 1.349 . S
C853 H845 0.950 . S
C853 C851 1.327 . S
C854 C842 1.349 . S
C854 H848 0.950 . S
C854 C855 1.327 . S
C855 H849 0.950 . S
C855 C854 1.327 . S
C855 C859 1.429 . S
C856 C839 1.574 . S
C856 H850 0.949 . S
C856 C860 1.368 . S
C857 C838 1.429 . S
C857 C851 1.429 . S
C857 C858 1.523 . S
C858 C839 1.368 1_545 S
C858 C852 1.368 . S
C858 C857 1.523 . S
C859 C843 1.429 . S
C859 C855 1.429 . S
C859 C860 1.523 . S
C860 C844 1.368 1_565 S
C860 C856 1.368 . S
C860 C859 1.523 . S
H861 C836 0.950 . S
H862 C838 0.950 . S
H863 C839 0.949 . S
H864 C841 0.950 . S
H865 C843 0.950 . S
C866 C867 1.349 . S
C866 C868 1.327 . S
C866 H891 0.950 . S
C867 C866 1.349 . S
C867 C883 1.349 . S
C868 C866 1.327 . S
C868 C887 1.429 . S
C868 H892 0.950 . S
C869 C886 1.574 1_565 S
C869 C888 1.368 1_455 S
C869 H893 0.949 . S
H870 C874 0.949 . S
C871 C872 1.349 . S
C871 C873 1.327 . S
C871 H894 0.950 . S
C872 C871 1.349 . S
C872 C884 1.349 . S
C873 C871 1.327 . S
C873 C889 1.429 . S
C873 H895 0.950 . S
C874 H870 0.949 . S
C874 C882 1.574 1_545 S
C874 C890 1.368 1_655 S
H875 C883 0.950 . S
H876 C881 0.950 . S
H877 C882 0.949 . S
H878 C884 0.950 . S
H879 C885 0.950 . S
H880 C886 0.949 . S
C881 H876 0.950 . S
C881 C883 1.327 . S
C881 C887 1.429 . S
C882 C874 1.574 1_565 S
C882 H877 0.949 . S
C882 C888 1.368 . S
C883 C867 1.349 . S
C883 H875 0.950 . S
C883 C881 1.327 . S
C884 C872 1.349 . S
C884 H878 0.950 . S
C884 C885 1.327 . S
C885 H879 0.950 . S
C885 C884 1.327 . S
C885 C889 1.429 . S
C886 C869 1.574 1_545 S
C886 H880 0.949 . S
C886 C890 1.368 . S
C887 C868 1.429 . S
C887 C881 1.429 . S
C887 C888 1.523 . S
C888 C869 1.368 1_655 S
C888 C882 1.368 . S
C888 C887 1.523 . S
C889 C873 1.429 . S
C889 C885 1.429 . S
C889 C890 1.523 . S
C890 C874 1.368 1_455 S
C890 C886 1.368 . S
C890 C889 1.523 . S
H891 C866 0.950 . S
H892 C868 0.950 . S
H893 C869 0.949 . S
H894 C871 0.950 . S
H895 C873 0.950 . S
C177 C170 1.392 . S
C182 C5 1.392 . S
C207 C137 1.392 . S
C212 C16 1.392 . S
C237 C27 1.392 . S
C242 C148 1.392 . S
C267 C38 1.392 . S
C272 C159 1.392 . S
C297 C49 1.392 . S
C302 C104 1.392 . S
C327 C60 1.392 . S
C332 C115 1.392 . S
C357 C71 1.392 . S
C362 C126 1.392 . S
C387 C82 1.392 . S
C392 C93 1.392 . S
C417 C7 1.530 . S
C422 C51 1.530 . S
C447 C62 1.530 . S
C452 C18 1.530 . S
C477 C73 1.530 . S
C482 C29 1.530 . S
C507 C40 1.530 . S
C512 C84 1.530 . S
C537 C95 1.530 . S
C542 C139 1.530 . S
C567 C106 1.530 . S
C572 C150 1.530 . S
C597 C117 1.530 . S
C602 C161 1.530 . S
C627 C128 1.530 . S
C632 C172 1.530 . S
C657 C8 1.590 . S
C662 C118 1.590 . S
C687 C129 1.590 . S
C692 C19 1.590 . S
C717 C96 1.590 . S
C722 C30 1.590 . S
C747 C107 1.590 . S
C752 C41 1.590 . S
C777 C162 1.590 . S
C782 C52 1.590 . S
C807 C63 1.590 . S
C812 C173 1.590 . S
C837 C74 1.590 . S
C842 C140 1.590 . S
C867 C85 1.590 . S
C872 C151 1.590 . S
