# Generated by pormake.
# Topology tes, (8)-cn, num edge types: 1
# Building blocks:
#     Node 0, Type 0, BuildingBlock: TAGTUT_clean_sbu_3, # of connection points: 8
#     Node 1, Type 0, BuildingBlock: TAGTUT_clean_sbu_3, # of connection points: 8
#     Node 2, Type 0, BuildingBlock: TAGTUT_clean_sbu_3, # of connection points: 8
#     Node 3, Type 0, BuildingBlock: TAGTUT_clean_sbu_3, # of connection points: 8
#     Node 4, Type 0, BuildingBlock: TAGTUT_clean_sbu_3, # of connection points: 8
#     Node 5, Type 0, BuildingBlock: TAGTUT_clean_sbu_3, # of connection points: 8
#     Node 6, Type 0, BuildingBlock: TAGTUT_clean_sbu_3, # of connection points: 8
#     Node 7, Type 0, BuildingBlock: TAGTUT_clean_sbu_3, # of connection points: 8
#     Node 8, Type 0, BuildingBlock: TAGTUT_clean_sbu_3, # of connection points: 8
#     Node 9, Type 0, BuildingBlock: TAGTUT_clean_sbu_3, # of connection points: 8
#     Node 10, Type 0, BuildingBlock: TAGTUT_clean_sbu_3, # of connection points: 8
#     Node 11, Type 0, BuildingBlock: TAGTUT_clean_sbu_3, # of connection points: 8
#     Node 12, Type 0, BuildingBlock: TAGTUT_clean_sbu_3, # of connection points: 8
#     Node 13, Type 0, BuildingBlock: TAGTUT_clean_sbu_3, # of connection points: 8
#     Node 14, Type 0, BuildingBlock: TAGTUT_clean_sbu_3, # of connection points: 8
#     Node 15, Type 0, BuildingBlock: TAGTUT_clean_sbu_3, # of connection points: 8
#     Node 16, Type 0, BuildingBlock: TAGTUT_clean_sbu_3, # of connection points: 8
#     Node 17, Type 0, BuildingBlock: TAGTUT_clean_sbu_3, # of connection points: 8
#     Node 18, Type 0, BuildingBlock: TAGTUT_clean_sbu_3, # of connection points: 8
#     Node 19, Type 0, BuildingBlock: TAGTUT_clean_sbu_3, # of connection points: 8
#     Node 20, Type 0, BuildingBlock: TAGTUT_clean_sbu_3, # of connection points: 8
#     Node 21, Type 0, BuildingBlock: TAGTUT_clean_sbu_3, # of connection points: 8
#     Node 22, Type 0, BuildingBlock: TAGTUT_clean_sbu_3, # of connection points: 8
#     Node 23, Type 0, BuildingBlock: TAGTUT_clean_sbu_3, # of connection points: 8
#     Edge 24, Type (0, 0), None
#     Edge 25, Type (0, 0), None
#     Edge 26, Type (0, 0), None
#     Edge 27, Type (0, 0), None
#     Edge 28, Type (0, 0), None
#     Edge 29, Type (0, 0), None
#     Edge 30, Type (0, 0), None
#     Edge 31, Type (0, 0), None
#     Edge 32, Type (0, 0), None
#     Edge 33, Type (0, 0), None
#     Edge 34, Type (0, 0), None
#     Edge 35, Type (0, 0), None
#     Edge 36, Type (0, 0), None
#     Edge 37, Type (0, 0), None
#     Edge 38, Type (0, 0), None
#     Edge 39, Type (0, 0), None
#     Edge 40, Type (0, 0), None
#     Edge 41, Type (0, 0), None
#     Edge 42, Type (0, 0), None
#     Edge 43, Type (0, 0), None
#     Edge 44, Type (0, 0), None
#     Edge 45, Type (0, 0), None
#     Edge 46, Type (0, 0), None
#     Edge 47, Type (0, 0), None
#     Edge 48, Type (0, 0), None
#     Edge 49, Type (0, 0), None
#     Edge 50, Type (0, 0), None
#     Edge 51, Type (0, 0), None
#     Edge 52, Type (0, 0), None
#     Edge 53, Type (0, 0), None
#     Edge 54, Type (0, 0), None
#     Edge 55, Type (0, 0), None
#     Edge 56, Type (0, 0), None
#     Edge 57, Type (0, 0), None
#     Edge 58, Type (0, 0), None
#     Edge 59, Type (0, 0), None
#     Edge 60, Type (0, 0), None
#     Edge 61, Type (0, 0), None
#     Edge 62, Type (0, 0), None
#     Edge 63, Type (0, 0), None
#     Edge 64, Type (0, 0), None
#     Edge 65, Type (0, 0), None
#     Edge 66, Type (0, 0), None
#     Edge 67, Type (0, 0), None
#     Edge 68, Type (0, 0), None
#     Edge 69, Type (0, 0), None
#     Edge 70, Type (0, 0), None
#     Edge 71, Type (0, 0), None
#     Edge 72, Type (0, 0), None
#     Edge 73, Type (0, 0), None
#     Edge 74, Type (0, 0), None
#     Edge 75, Type (0, 0), None
#     Edge 76, Type (0, 0), None
#     Edge 77, Type (0, 0), None
#     Edge 78, Type (0, 0), None
#     Edge 79, Type (0, 0), None
#     Edge 80, Type (0, 0), None
#     Edge 81, Type (0, 0), None
#     Edge 82, Type (0, 0), None
#     Edge 83, Type (0, 0), None
#     Edge 84, Type (0, 0), None
#     Edge 85, Type (0, 0), None
#     Edge 86, Type (0, 0), None
#     Edge 87, Type (0, 0), None
#     Edge 88, Type (0, 0), None
#     Edge 89, Type (0, 0), None
#     Edge 90, Type (0, 0), None
#     Edge 91, Type (0, 0), None
#     Edge 92, Type (0, 0), None
#     Edge 93, Type (0, 0), None
#     Edge 94, Type (0, 0), None
#     Edge 95, Type (0, 0), None
#     Edge 96, Type (0, 0), None
#     Edge 97, Type (0, 0), None
#     Edge 98, Type (0, 0), None
#     Edge 99, Type (0, 0), None
#     Edge 100, Type (0, 0), None
#     Edge 101, Type (0, 0), None
#     Edge 102, Type (0, 0), None
#     Edge 103, Type (0, 0), None
#     Edge 104, Type (0, 0), None
#     Edge 105, Type (0, 0), None
#     Edge 106, Type (0, 0), None
#     Edge 107, Type (0, 0), None
#     Edge 108, Type (0, 0), None
#     Edge 109, Type (0, 0), None
#     Edge 110, Type (0, 0), None
#     Edge 111, Type (0, 0), None
#     Edge 112, Type (0, 0), None
#     Edge 113, Type (0, 0), None
#     Edge 114, Type (0, 0), None
#     Edge 115, Type (0, 0), None
#     Edge 116, Type (0, 0), None
#     Edge 117, Type (0, 0), None
#     Edge 118, Type (0, 0), None
#     Edge 119, Type (0, 0), None
# Relax obj value: 0.421
# Max RMSD: 0.240
# Mean RMSD: 0.240
data_MOF--net-tes--node1-TAGTUT_clean_sbu_3--edge1-none
_symmetry_space_group_name_H-M    P1
_symmetry_Int_Tables_number       1
_symmetry_cell_setting            triclinic
loop_
_symmetry_equiv_pos_as_xyz
'x, y, z'
_cell_length_a     23.860403
_cell_length_b     23.865636
_cell_length_c     23.797027
_cell_angle_alpha  89.8869
_cell_angle_beta   89.879067
_cell_angle_gamma 90.114667
loop_
_atom_site_label
_atom_site_type_symbol
_atom_site_fract_x
_atom_site_fract_y
_atom_site_fract_z
_atom_type_partial_charge
C0 C 0.1271 0.28863 0.51173 0.0
C1 C 0.22281 0.23641 0.33433 0.0
C2 C 0.19014 0.35803 0.28109 0.0
Mg3 Mg 0.16074 0.40519 0.46592 0.0
Mg4 Mg 0.03935 0.48869 0.39207 0.0
O5 O 0.11396 0.45645 0.40756 0.0
Mg6 Mg 0.12215 0.37283 0.38412 0.0
O7 O 0.14086 0.28844 0.36982 0.0
Mg8 Mg 0.20325 0.33395 0.42124 0.0
Mg9 Mg 0.12928 0.25935 0.29081 0.0
C10 C 0.09091 0.48996 0.28332 0.0
O11 O 0.03789 0.30713 0.36494 0.0
O12 O 0.10184 0.475 0.46606 0.0
O13 O 0.05647 0.22628 0.3188 0.0
O14 O 0.06409 0.37034 0.47612 0.0
O15 O 0.04351 0.54347 0.46172 0.0
O16 O 0.0257 0.40337 0.39741 0.0
O17 O 0.22221 0.41127 0.36755 0.0
O18 O 0.23563 0.4623 0.44317 0.0
C19 C 0.2479 0.4534 0.39195 0.0
C20 C 0.08413 0.52014 0.4868 0.0
O21 O 0.10421 0.43796 0.29636 0.0
O22 O 0.18878 0.26642 0.36218 0.0
O23 O 0.06575 0.52155 0.31755 0.0
O24 O 0.21994 0.37012 0.32542 0.0
O25 O 0.20392 0.21009 0.29212 0.0
O26 O 0.13935 0.34452 0.28591 0.0
O27 O 0.10343 0.33123 0.48559 0.0
O28 O 0.17726 0.27757 0.49703 0.0
C29 C 0.02077 0.38812 0.44785 0.0
C30 C 0.02444 0.25631 0.34855 0.0
C31 C 0.79577 0.99441 0.64574 0.0
C32 C 0.73113 0.83027 0.74181 0.0
C33 C 0.86414 0.76797 0.69837 0.0
Mg34 Mg 0.9165 0.95011 0.67226 0.0
Mg35 Mg 0.98959 0.88011 0.53841 0.0
O36 O 0.9609 0.88906 0.61797 0.0
Mg37 Mg 0.87725 0.86956 0.63472 0.0
O38 O 0.79382 0.86176 0.66046 0.0
Mg39 Mg 0.84567 0.90806 0.71802 0.0
Mg40 Mg 0.76255 0.78697 0.64542 0.0
C41 C 0.99459 0.77428 0.5966 0.0
O42 O 0.81351 0.85088 0.54804 0.0
O43 O 0.98278 0.93761 0.6116 0.0
O44 O 0.73031 0.81098 0.56975 0.0
O45 O 0.87786 0.96924 0.57871 0.0
O46 O 0.03969 0.95446 0.54229 0.0
O47 O 0.90427 0.89148 0.53454 0.0
O48 O 0.91976 0.85074 0.73438 0.0
O49 O 0.9752 0.92333 0.74538 0.0
C50 C 0.96371 0.87298 0.75901 0.0
C51 C 0.01359 0.9722 0.58521 0.0
O52 O 0.94413 0.787 0.61466 0.0
O53 O 0.77593 0.84899 0.72095 0.0
O54 O 0.02293 0.80645 0.56506 0.0
O55 O 0.88154 0.81182 0.72592 0.0
O56 O 0.70816 0.78966 0.71627 0.0
O57 O 0.84777 0.77214 0.64829 0.0
O58 O 0.83764 0.96918 0.6205 0.0
O59 O 0.7879 0.98255 0.69728 0.0
C60 C 0.88996 0.94223 0.53273 0.0
C61 C 0.76194 0.83623 0.53528 0.0
C62 C 0.23776 0.54675 0.87397 0.0
C63 C 0.39832 0.47533 0.9905 0.0
C64 C 0.46868 0.60856 0.94135 0.0
Mg65 Mg 0.29498 0.66114 0.90164 0.0
Mg66 Mg 0.37422 0.73583 0.77321 0.0
O67 O 0.36571 0.70268 0.85263 0.0
Mg68 Mg 0.37286 0.61762 0.87483 0.0
O69 O 0.36045 0.53476 0.89934 0.0
Mg70 Mg 0.32247 0.59155 0.95367 0.0
Mg71 Mg 0.43742 0.51099 0.89213 0.0
C72 C 0.46932 0.74614 0.84015 0.0
O73 O 0.40084 0.55657 0.78885 0.0
O74 O 0.31613 0.72525 0.84512 0.0
O75 O 0.434 0.4728 0.81628 0.0
O76 O 0.28652 0.61797 0.80925 0.0
O77 O 0.29894 0.7855 0.77952 0.0
O78 O 0.365 0.64923 0.76955 0.0
O79 O 0.38229 0.66041 0.97594 0.0
O80 O 0.31306 0.72067 0.97517 0.0
C81 C 0.35969 0.70643 0.99614 0.0
C82 C 0.28185 0.75796 0.82182 0.0
O83 O 0.44799 0.69834 0.85876 0.0
O84 O 0.37084 0.51791 0.97674 0.0
O85 O 0.44528 0.77339 0.80143 0.0
O86 O 0.42276 0.61844 0.96978 0.0
O87 O 0.44086 0.4603 0.96233 0.0
O88 O 0.46683 0.59232 0.89121 0.0
O89 O 0.27098 0.58375 0.84868 0.0
O90 O 0.24398 0.54144 0.92696 0.0
C91 C 0.31461 0.63381 0.76512 0.0
C92 C 0.41625 0.50481 0.77809 0.0
C93 C 0.71187 0.00305 0.13632 0.0
C94 C 0.77043 0.16613 0.23684 0.0
C95 C 0.63765 0.22621 0.19658 0.0
Mg96 Mg 0.59006 0.04342 0.17046 0.0
Mg97 Mg 0.50975 0.11197 0.0458 0.0
O98 O 0.54009 0.09976 0.12121 0.0
Mg99 Mg 0.62406 0.1251 0.13109 0.0
O100 O 0.70814 0.13704 0.1537 0.0
Mg101 Mg 0.66035 0.08669 0.21259 0.0
Mg102 Mg 0.73937 0.21247 0.14113 0.0
C103 C 0.50492 0.22093 0.09819 0.0
O104 O 0.68958 0.14549 0.04401 0.0
O105 O 0.52109 0.03622 0.11078 0.0
O106 O 0.77134 0.18888 0.06506 0.0
O107 O 0.62614 0.03022 0.07464 0.0
O108 O 0.4567 0.041 0.04776 0.0
O109 O 0.59484 0.10803 0.0334 0.0
O110 O 0.58383 0.14195 0.23207 0.0
O111 O 0.53076 0.06796 0.24536 0.0
C112 C 0.54059 0.11902 0.25777 0.0
C113 C 0.47755 0.01547 0.08953 0.0
O114 O 0.55683 0.20968 0.11336 0.0
O115 O 0.72696 0.14732 0.21402 0.0
O116 O 0.4755 0.18644 0.07065 0.0
O117 O 0.62222 0.18155 0.22428 0.0
O118 O 0.79376 0.20728 0.21227 0.0
O119 O 0.65349 0.22283 0.14622 0.0
O120 O 0.6672 0.02649 0.11419 0.0
O121 O 0.72141 0.01451 0.18769 0.0
C122 C 0.61196 0.05832 0.02982 0.0
C123 C 0.74086 0.16198 0.03096 0.0
C124 C 0.24202 0.54227 0.11357 0.0
C125 C 0.0693 0.49578 0.0264 0.0
C126 C 0.01576 0.61836 0.06415 0.0
Mg127 Mg 0.20261 0.6619 0.08101 0.0
Mg128 Mg 0.13831 0.74213 0.20714 0.0
O129 O 0.14909 0.71442 0.13023 0.0
Mg130 Mg 0.12143 0.63116 0.12535 0.0
O131 O 0.10273 0.54745 0.10912 0.0
Mg132 Mg 0.15316 0.5925 0.04412 0.0
Mg133 Mg 0.02491 0.51581 0.12192 0.0
C134 C 0.02764 0.74892 0.16241 0.0
O135 O 0.10473 0.56122 0.21002 0.0
O136 O 0.21151 0.73127 0.14086 0.0
O137 O 0.05611 0.48118 0.19396 0.0
O138 O 0.21788 0.62734 0.17771 0.0
O139 O 0.2087 0.795 0.20502 0.0
O140 O 0.1407 0.65735 0.22142 0.0
O141 O 0.10017 0.67044 0.02473 0.0
O142 O 0.17666 0.71879 0.00592 0.0
C143 C 0.12472 0.711 0.99592 0.0
C144 C 0.23268 0.77475 0.16205 0.0
O145 O 0.03725 0.69693 0.14708 0.0
O146 O 0.09424 0.52741 0.06083 0.0
O147 O 0.06377 0.77792 0.18798 0.0
O148 O 0.05977 0.63425 0.03573 0.0
O149 O 0.02811 0.46746 0.04485 0.0
O150 O 0.02027 0.6025 0.11458 0.0
O151 O 0.22048 0.58693 0.13725 0.0
O152 O 0.22588 0.53171 0.06387 0.0
C153 C 0.19055 0.6404 0.22344 0.0
C154 C 0.08803 0.51044 0.22475 0.0
C155 C 0.70611 0.99717 0.36736 0.0
C156 C 0.75903 0.83162 0.27246 0.0
C157 C 0.63737 0.76865 0.31141 0.0
Mg158 Mg 0.58801 0.95394 0.3431 0.0
Mg159 Mg 0.51167 0.87774 0.47339 0.0
O160 O 0.54224 0.89011 0.39458 0.0
Mg161 Mg 0.62468 0.87094 0.37883 0.0
O162 O 0.70694 0.86232 0.35518 0.0
Mg163 Mg 0.6569 0.91078 0.29351 0.0
Mg164 Mg 0.73998 0.78552 0.3674 0.0
C165 C 0.50718 0.77404 0.41024 0.0
O166 O 0.68933 0.85058 0.46457 0.0
O167 O 0.52111 0.93653 0.40191 0.0
O168 O 0.77269 0.81117 0.44252 0.0
O169 O 0.62713 0.96779 0.43711 0.0
O170 O 0.46159 0.95239 0.46928 0.0
O171 O 0.5975 0.88925 0.4784 0.0
O172 O 0.58171 0.85676 0.27928 0.0
O173 O 0.53074 0.93307 0.26948 0.0
C174 C 0.53994 0.88286 0.25462 0.0
C175 C 0.48895 0.97052 0.42718 0.0
O176 O 0.55838 0.787 0.39452 0.0
O177 O 0.724 0.85344 0.30574 0.0
O178 O 0.47835 0.80513 0.44225 0.0
O179 O 0.62474 0.81212 0.28015 0.0
O180 O 0.78837 0.79172 0.29178 0.0
O181 O 0.65447 0.77459 0.3611 0.0
O182 O 0.66612 0.97015 0.39422 0.0
O183 O 0.71265 0.98601 0.31552 0.0
C184 C 0.61254 0.93982 0.48189 0.0
C185 C 0.74108 0.83628 0.47703 0.0
C186 C 0.37778 0.28609 0.49436 0.0
C187 C 0.29351 0.22166 0.65397 0.0
C188 C 0.31327 0.36781 0.73026 0.0
Mg189 Mg 0.3419 0.40185 0.53634 0.0
Mg190 Mg 0.46212 0.4855 0.60807 0.0
O191 O 0.38662 0.45592 0.59319 0.0
Mg192 Mg 0.38463 0.37314 0.61962 0.0
O193 O 0.36857 0.29167 0.63834 0.0
Mg194 Mg 0.30333 0.33072 0.5847 0.0
Mg195 Mg 0.37154 0.25416 0.71395 0.0
C196 C 0.41977 0.48253 0.72029 0.0
O197 O 0.46458 0.30342 0.63958 0.0
O198 O 0.3999 0.47261 0.53285 0.0
O199 O 0.45183 0.23175 0.70073 0.0
O200 O 0.4394 0.36817 0.52777 0.0
O201 O 0.45886 0.54072 0.53807 0.0
O202 O 0.48004 0.40084 0.60552 0.0
O203 O 0.28378 0.41152 0.63559 0.0
O204 O 0.26622 0.45739 0.55705 0.0
C205 C 0.25578 0.4515 0.60912 0.0
C206 C 0.41822 0.51778 0.51245 0.0
O207 O 0.40653 0.43035 0.70765 0.0
O208 O 0.32481 0.2604 0.6353 0.0
O209 O 0.44133 0.51585 0.68498 0.0
O210 O 0.29607 0.37312 0.67826 0.0
O211 O 0.312 0.1918 0.6938 0.0
O212 O 0.34307 0.32776 0.74924 0.0
O213 O 0.40047 0.32988 0.51908 0.0
O214 O 0.3278 0.27405 0.5091 0.0
C215 C 0.48357 0.38503 0.55528 0.0
C216 C 0.48074 0.25673 0.66369 0.0
C217 C 0.97213 0.12782 0.75343 0.0
C218 C 0.01515 0.03031 0.92612 0.0
C219 C 0.89383 0.06492 0.97836 0.0
Mg220 Mg 0.85212 0.08924 0.79088 0.0
Mg221 Mg 0.76721 0.20895 0.86214 0.0
O222 O 0.79814 0.13411 0.84683 0.0
Mg223 Mg 0.88104 0.12972 0.87392 0.0
O224 O 0.96451 0.114 0.89415 0.0
Mg225 Mg 0.92132 0.05163 0.84011 0.0
Mg226 Mg 0.9951 0.12391 0.97302 0.0
C227 C 0.76297 0.16156 0.97264 0.0
O228 O 0.95278 0.21179 0.88938 0.0
O229 O 0.78108 0.14724 0.78612 0.0
O230 O 0.03173 0.19348 0.93886 0.0
O231 O 0.88548 0.18661 0.78173 0.0
O232 O 0.71357 0.20677 0.79167 0.0
O233 O 0.85235 0.2263 0.85998 0.0
O234 O 0.84143 0.02881 0.89112 0.0
O235 O 0.79543 0.01247 0.81268 0.0
C236 C 0.80133 0.00107 0.86466 0.0
C237 C 0.73581 0.16571 0.76627 0.0
O238 O 0.81533 0.14874 0.96078 0.0
O239 O 0.98591 0.06632 0.90042 0.0
O240 O 0.73182 0.18563 0.93721 0.0
O241 O 0.88069 0.03559 0.93398 0.0
O242 O 0.04151 0.04649 0.96941 0.0
O243 O 0.90904 0.11529 0.97345 0.0
O244 O 0.92601 0.14893 0.77495 0.0
O245 O 0.98318 0.07778 0.76827 0.0
C246 C 0.8692 0.23056 0.80992 0.0
C247 C 0.00437 0.22416 0.90511 0.0
C248 C 0.40999 0.24715 0.4528 0.0
C249 C 0.47354 0.08821 0.53709 0.0
C250 C 0.48397 0.02545 0.40622 0.0
Mg251 Mg 0.40263 0.24506 0.32106 0.0
Mg252 Mg 0.28574 0.13951 0.27421 0.0
O253 O 0.36316 0.16107 0.2997 0.0
Mg254 Mg 0.38092 0.12762 0.37738 0.0
O255 O 0.41596 0.11209 0.45451 0.0
Mg256 Mg 0.50045 0.14946 0.4293 0.0
Mg257 Mg 0.39405 0.0364 0.48534 0.0
C258 C 0.34697 0.02601 0.27212 0.0
O259 O 0.28982 0.1157 0.43597 0.0
O260 O 0.35976 0.19606 0.25944 0.0
O261 O 0.31358 0.06258 0.51024 0.0
O262 O 0.31308 0.27263 0.34345 0.0
O263 O 0.28967 0.19369 0.20187 0.0
O264 O 0.29648 0.18224 0.35204 0.0
O265 O 0.47268 0.12841 0.3377 0.0
O266 O 0.48816 0.20346 0.28795 0.0
C267 C 0.49988 0.15228 0.29738 0.0
C268 C 0.33437 0.21784 0.21777 0.0
O269 O 0.36793 0.03679 0.32205 0.0
O270 O 0.45176 0.1107 0.49381 0.0
O271 O 0.31345 0.05981 0.24873 0.0
O272 O 0.52569 0.05919 0.41054 0.0
O273 O 0.44906 0.04493 0.55639 0.0
O274 O 0.43472 0.04349 0.4061 0.0
O275 O 0.38445 0.21939 0.41424 0.0
O276 O 0.46166 0.23627 0.45978 0.0
C277 C 0.27903 0.23173 0.35204 0.0
C278 C 0.27906 0.09487 0.48626 0.0
C279 C 0.01403 0.16064 0.71436 0.0
C280 C 0.21891 0.21031 0.77531 0.0
C281 C 0.23609 0.22125 0.63975 0.0
Mg282 Mg 0.00324 0.15185 0.58108 0.0
Mg283 Mg 0.10747 0.03778 0.5213 0.0
O284 O 0.08575 0.11311 0.55398 0.0
Mg285 Mg 0.12542 0.128 0.62936 0.0
O286 O 0.15453 0.15872 0.70673 0.0
Mg287 Mg 0.12162 0.2445 0.6877 0.0
Mg288 Mg 0.23078 0.12371 0.71688 0.0
C289 C 0.222 0.09523 0.5141 0.0
O290 O 0.13161 0.03524 0.68532 0.0
O291 O 0.04963 0.11218 0.51432 0.0
O292 O 0.19268 0.05353 0.75368 0.0
O293 O 0.97685 0.06138 0.60179 0.0
O294 O 0.05147 0.04606 0.45208 0.0
O295 O 0.06778 0.04679 0.60142 0.0
O296 O 0.12419 0.22033 0.59158 0.0
O297 O 0.04429 0.23844 0.55008 0.0
C298 C 0.09643 0.24945 0.55512 0.0
C299 C 0.02775 0.08971 0.47104 0.0
O300 O 0.21348 0.11167 0.56608 0.0
O301 O 0.17587 0.19454 0.74703 0.0
O302 O 0.18576 0.06543 0.48957 0.0
O303 O 0.20751 0.2657 0.64902 0.0
O304 O 0.2561 0.17408 0.7861 0.0
O305 O 0.21272 0.1746 0.64521 0.0
O306 O 0.03655 0.13651 0.67159 0.0
O307 O 0.03526 0.20782 0.72894 0.0
C308 C 0.01884 0.02792 0.6047 0.0
C309 C 0.15313 0.02387 0.7349 0.0
C310 C 0.09313 0.75133 0.95483 0.0
C311 C 0.03523 0.91555 0.03367 0.0
C312 C 0.01862 0.97537 0.904 0.0
Mg313 Mg 0.10145 0.74898 0.82326 0.0
Mg314 Mg 0.21485 0.85512 0.76804 0.0
O315 O 0.13903 0.83305 0.79865 0.0
Mg316 Mg 0.12173 0.8689 0.87416 0.0
O317 O 0.08895 0.8885 0.9506 0.0
Mg318 Mg 0.00328 0.85114 0.93114 0.0
Mg319 Mg 0.11206 0.96539 0.97718 0.0
C320 C 0.15079 0.96732 0.76302 0.0
O321 O 0.21297 0.88183 0.92842 0.0
O322 O 0.14051 0.79825 0.75949 0.0
O323 O 0.19133 0.93741 1.00128 0.0
O324 O 0.19244 0.72263 0.8413 0.0
O325 O 0.20734 0.79955 0.69769 0.0
O326 O 0.20973 0.81316 0.84676 0.0
O327 O 0.03031 0.86594 0.83845 0.0
O328 O 0.01466 0.78892 0.7921 0.0
C329 C 0.00296 0.84039 0.79979 0.0
C330 C 0.16363 0.77575 0.71687 0.0
O331 O 0.13193 0.95858 0.81435 0.0
O332 O 0.05657 0.89076 0.99134 0.0
O333 O 0.18423 0.93293 0.74049 0.0
O334 O 0.97734 0.94154 0.91118 0.0
O335 O 0.05955 0.95984 0.05042 0.0
O336 O 0.0677 0.95713 0.90046 0.0
O337 O 0.11902 0.77798 0.9153 0.0
O338 O 0.04195 0.76415 0.96294 0.0
C339 C 0.22718 0.76365 0.845 0.0
C340 C 0.22437 0.90327 0.97793 0.0
C341 C 0.49981 0.85486 0.21243 0.0
C342 C 0.32956 0.76601 0.27108 0.0
C343 C 0.27618 0.80462 0.1341 0.0
Mg344 Mg 0.46192 0.83243 0.09039 0.0
Mg345 Mg 0.38905 0.96139 0.01371 0.0
O346 O 0.40406 0.88484 0.04289 0.0
Mg347 Mg 0.37752 0.87057 0.12509 0.0
O348 O 0.36293 0.84441 0.20735 0.0
Mg349 Mg 0.41324 0.78538 0.15938 0.0
Mg350 Mg 0.28743 0.86135 0.23767 0.0
C351 C 0.28156 0.9037 0.00346 0.0
O352 O 0.36149 0.9578 0.19419 0.0
O353 O 0.46087 0.89662 0.02379 0.0
O354 O 0.31574 0.93452 0.2738 0.0
O355 O 0.47557 0.92593 0.13115 0.0
O356 O 0.45949 0.96061 0.95952 0.0
O357 O 0.39774 0.96706 0.1 0.0
O358 O 0.36289 0.77143 0.07988 0.0
O359 O 0.4397 0.76075 0.02961 0.0
C360 C 0.38913 0.74638 0.03811 0.0
C361 C 0.48361 0.91835 0.98093 0.0
O362 O 0.29171 0.88798 0.05572 0.0
O363 O 0.34993 0.78701 0.22675 0.0
O364 O 0.31588 0.9342 0.97674 0.0
O365 O 0.32008 0.77669 0.11753 0.0
O366 O 0.28808 0.79119 0.29278 0.0
O367 O 0.2807 0.85447 0.1511 0.0
O368 O 0.47631 0.882 0.17043 0.0
O369 O 0.48445 0.8046 0.22046 0.0
C370 C 0.4479 0.97065 0.11624 0.0
C371 C 0.34596 0.96862 0.24647 0.0
C372 C 0.28189 0.50131 0.14446 0.0
C373 C 0.21668 0.33192 0.23408 0.0
C374 C 0.35087 0.27128 0.19471 0.0
Mg375 Mg 0.40025 0.4573 0.17146 0.0
Mg376 Mg 0.47879 0.3864 0.04358 0.0
O377 O 0.45017 0.40185 0.12026 0.0
Mg378 Mg 0.36653 0.37711 0.1336 0.0
O379 O 0.28282 0.3634 0.15641 0.0
Mg380 Mg 0.33047 0.41121 0.21724 0.0
Mg381 Mg 0.24769 0.29017 0.13758 0.0
C382 C 0.48222 0.27847 0.09808 0.0
O383 O 0.29759 0.36531 0.05074 0.0
O384 O 0.46776 0.4594 0.10713 0.0
O385 O 0.21529 0.32042 0.06251 0.0
O386 O 0.3598 0.4667 0.07874 0.0
O387 O 0.53156 0.45719 0.04223 0.0
O388 O 0.39422 0.39166 0.03384 0.0
O389 O 0.40939 0.3588 0.23111 0.0
O390 O 0.45948 0.43592 0.24226 0.0
C391 C 0.45187 0.38475 0.25494 0.0
C392 C 0.51004 0.48196 0.08416 0.0
O393 O 0.43041 0.29026 0.11341 0.0
O394 O 0.26126 0.35117 0.21281 0.0
O395 O 0.51212 0.31256 0.07039 0.0
O396 O 0.36435 0.31358 0.2271 0.0
O397 O 0.19284 0.29245 0.20759 0.0
O398 O 0.33299 0.2787 0.14544 0.0
O399 O 0.324 0.47654 0.11908 0.0
O400 O 0.27234 0.48656 0.19504 0.0
C401 C 0.37636 0.44137 0.03329 0.0
C402 C 0.2473 0.35153 0.03354 0.0
C403 C 0.86004 0.80407 0.99901 0.0
C404 C 0.77864 0.73224 0.16574 0.0
C405 C 0.76932 0.85784 0.22001 0.0
Mg406 Mg 0.84195 0.92366 0.03113 0.0
Mg407 Mg 0.96175 0.99981 0.11864 0.0
O408 O 0.88995 0.96533 0.09652 0.0
Mg409 Mg 0.87627 0.88377 0.12135 0.0
O410 O 0.84333 0.8062 0.13583 0.0
Mg411 Mg 0.76276 0.83415 0.09318 0.0
Mg412 Mg 0.85836 0.77968 0.2158 0.0
C413 C 0.90038 0.98853 0.22665 0.0
O414 O 0.96103 0.82268 0.14074 0.0
O415 O 0.90133 0.99141 0.04414 0.0
O416 O 0.93711 0.75015 0.19572 0.0
O417 O 0.93895 0.88914 0.02169 0.0
O418 O 0.9581 0.06085 0.05342 0.0
O419 O 0.97407 0.91619 0.10481 0.0
O420 O 0.78221 0.92543 0.12153 0.0
O421 O 0.76815 0.98293 0.05191 0.0
C422 C 0.75467 0.96792 0.10127 0.0
C423 C 0.91948 0.03751 0.02527 0.0
O424 O 0.88651 0.93737 0.21207 0.0
O425 O 0.80676 0.7693 0.13904 0.0
O426 O 0.92817 0.02125 0.19509 0.0
O427 O 0.73106 0.85696 0.18229 0.0
O428 O 0.79945 0.71205 0.2104 0.0
O429 O 0.81989 0.85852 0.2061 0.0
O430 O 0.88943 0.84213 0.02518 0.0
O431 O 0.80712 0.80231 0.00861 0.0
C432 C 0.9812 0.89985 0.05511 0.0
C433 C 0.97125 0.77371 0.16277 0.0
C434 C 0.21567 0.49418 0.6385 0.0
C435 C 0.2843 0.66345 0.72318 0.0
C436 C 0.14435 0.72314 0.69479 0.0
Mg437 Mg 0.09453 0.53591 0.66719 0.0
Mg438 Mg 0.01664 0.61055 0.54051 0.0
O439 O 0.04645 0.59394 0.61685 0.0
Mg440 Mg 0.12945 0.61794 0.63058 0.0
O441 O 0.21274 0.63517 0.65131 0.0
Mg442 Mg 0.16769 0.58488 0.71223 0.0
Mg443 Mg 0.24472 0.71081 0.63395 0.0
C444 C 0.01505 0.71677 0.59676 0.0
O445 O 0.19241 0.63626 0.5439 0.0
O446 O 0.02351 0.53815 0.60568 0.0
O447 O 0.27305 0.68349 0.55875 0.0
O448 O 0.13203 0.52094 0.57282 0.0
O449 O 0.95761 0.54534 0.54343 0.0
O450 O 0.10119 0.59933 0.53319 0.0
O451 O 0.08809 0.63533 0.73111 0.0
O452 O 0.03641 0.55954 0.74012 0.0
C453 C 0.04601 0.60915 0.75605 0.0
C454 C 0.97737 0.52042 0.58605 0.0
O455 O 0.06586 0.70376 0.61291 0.0
O456 O 0.23737 0.64589 0.70568 0.0
O457 O 0.98557 0.68455 0.56699 0.0
O458 O 0.13147 0.6807 0.72726 0.0
O459 O 0.30546 0.70508 0.69776 0.0
O460 O 0.1602 0.71538 0.64516 0.0
O461 O 0.17217 0.51753 0.61384 0.0
O462 O 0.22745 0.51266 0.68687 0.0
C463 C 0.11512 0.5488 0.52891 0.0
C464 C 0.2422 0.65325 0.52817 0.0
C465 C 0.7587 0.96054 0.89473 0.0
C466 C 0.58735 0.02865 0.98432 0.0
C467 C 0.52917 0.89195 0.95317 0.0
Mg468 Mg 0.71296 0.83951 0.92399 0.0
Mg469 Mg 0.63814 0.76172 0.79748 0.0
O470 O 0.65376 0.79286 0.87291 0.0
Mg471 Mg 0.63144 0.87662 0.88466 0.0
O472 O 0.61976 0.96059 0.90778 0.0
Mg473 Mg 0.66845 0.91327 0.96812 0.0
Mg474 Mg 0.54432 0.99088 0.89166 0.0
C475 C 0.52819 0.76336 0.8492 0.0
O476 O 0.61524 0.93899 0.79814 0.0
O477 O 0.71022 0.77034 0.86255 0.0
O478 O 0.5703 0.02019 0.81571 0.0
O479 O 0.72981 0.87614 0.82929 0.0
O480 O 0.70507 0.70439 0.80063 0.0
O481 O 0.65132 0.84641 0.78833 0.0
O482 O 0.61348 0.83571 0.98356 0.0
O483 O 0.6858 0.78023 0.99659 0.0
C484 C 0.63485 0.79123 0.00789 0.0
C485 C 0.73054 0.72594 0.84205 0.0
O486 O 0.54239 0.81465 0.8638 0.0
O487 O 0.60817 0.98364 0.96571 0.0
O488 O 0.56214 0.73146 0.82403 0.0
O489 O 0.57307 0.87792 0.98245 0.0
O490 O 0.54581 0.04887 0.95811 0.0
O491 O 0.53385 0.90664 0.90264 0.0
O492 O 0.73354 0.91769 0.87012 0.0
O493 O 0.74323 0.97097 0.94471 0.0
C494 C 0.70218 0.86014 0.78483 0.0
C495 C 0.59926 0.98942 0.78375 0.0
C496 C 0.74623 0.03851 0.39655 0.0
C497 C 0.91547 0.97248 0.48786 0.0
C498 C 0.97531 0.10832 0.44807 0.0
Mg499 Mg 0.78659 0.1582 0.42099 0.0
Mg500 Mg 0.85999 0.23474 0.29281 0.0
O501 O 0.84532 0.20482 0.36924 0.0
Mg502 Mg 0.86904 0.12186 0.38439 0.0
O503 O 0.88142 0.03883 0.41014 0.0
Mg504 Mg 0.83485 0.08826 0.46919 0.0
Mg505 Mg 0.95523 0.00694 0.39207 0.0
C506 C 0.96678 0.23632 0.34898 0.0
O507 O 0.88559 0.05837 0.29862 0.0
O508 O 0.78819 0.22708 0.35896 0.0
O509 O 0.92629 0.97537 0.31801 0.0
O510 O 0.76886 0.1218 0.32592 0.0
O511 O 0.79299 0.29217 0.29591 0.0
O512 O 0.84832 0.14994 0.28604 0.0
O513 O 0.88824 0.16525 0.48168 0.0
O514 O 0.81231 0.21654 0.49293 0.0
C515 C 0.86341 0.20811 0.50545 0.0
C516 C 0.76802 0.27146 0.3382 0.0
O517 O 0.95385 0.18545 0.36521 0.0
O518 O 0.89473 0.01755 0.46933 0.0
O519 O 0.93442 0.26593 0.31935 0.0
O520 O 0.93283 0.12138 0.48036 0.0
O521 O 0.95585 0.95141 0.46047 0.0
O522 O 0.96797 0.09114 0.39871 0.0
O523 O 0.77038 0.08017 0.36991 0.0
O524 O 0.76004 0.03085 0.44763 0.0
C525 C 0.79761 0.13651 0.28155 0.0
C526 C 0.89929 0.00699 0.28515 0.0
C527 C 0.64183 0.20341 0.5003 0.0
C528 C 0.73977 0.26954 0.6667 0.0
C529 C 0.70543 0.1347 0.72524 0.0
Mg530 Mg 0.66654 0.0833 0.54072 0.0
Mg531 Mg 0.54198 0.00664 0.61881 0.0
O532 O 0.61737 0.03749 0.60196 0.0
Mg533 Mg 0.63352 0.12067 0.62427 0.0
O534 O 0.66026 0.20364 0.63516 0.0
Mg535 Mg 0.71672 0.15375 0.58534 0.0
Mg536 Mg 0.64663 0.23343 0.71104 0.0
C537 C 0.59914 0.00773 0.72532 0.0
O538 O 0.5494 0.18486 0.64416 0.0
O539 O 0.60505 0.0148 0.54504 0.0
O540 O 0.57223 0.26594 0.68707 0.0
O541 O 0.56935 0.11849 0.52736 0.0
O542 O 0.54396 0.94843 0.55209 0.0
O543 O 0.53322 0.09121 0.60957 0.0
O544 O 0.73186 0.07742 0.63916 0.0
O545 O 0.74024 0.02416 0.56435 0.0
C546 C 0.75512 0.03416 0.61469 0.0
C547 C 0.58535 0.96948 0.52607 0.0
O548 O 0.61574 0.05799 0.71062 0.0
O549 O 0.72094 0.22475 0.64556 0.0
O550 O 0.56945 0.9771 0.69388 0.0
O551 O 0.73196 0.11773 0.68054 0.0
O552 O 0.71428 0.28942 0.70894 0.0
O553 O 0.65487 0.14904 0.72246 0.0
O554 O 0.61559 0.16204 0.52573 0.0
O555 O 0.69329 0.2107 0.51201 0.0
C556 C 0.52632 0.10712 0.55976 0.0
C557 C 0.53804 0.23628 0.65972 0.0
C558 C 0.19646 0.50652 0.84257 0.0
C559 C 0.30982 0.41628 0.76595 0.0
C560 C 0.23136 0.26861 0.78409 0.0
Mg561 Mg 0.06768 0.49921 0.84551 0.0
Mg562 Mg 0.02191 0.39522 0.96236 0.0
O563 O 0.04648 0.41512 0.88439 0.0
Mg564 Mg 0.12431 0.38326 0.86737 0.0
O565 O 0.19782 0.36724 0.83419 0.0
Mg566 Mg 0.18256 0.40438 0.75844 0.0
Mg567 Mg 0.27413 0.35818 0.85613 0.0
C568 C 0.0273 0.28127 0.90153 0.0
O569 O 0.1776 0.36834 0.95891 0.0
O570 O 0.00567 0.44905 0.88658 0.0
O571 O 0.2713 0.3635 0.94168 0.0
O572 O 0.08344 0.52952 0.9355 0.0
O573 O 0.94738 0.44599 0.95625 0.0
O574 O 0.09766 0.44057 0.95595 0.0
O575 O 0.08894 0.37983 0.77244 0.0
O576 O 0.0396 0.45575 0.75953 0.0
C577 C 0.04906 0.40486 0.7467 0.0
C578 C 0.96352 0.47033 0.91153 0.0
O579 O 0.07542 0.29293 0.8777 0.0
O580 O 0.26645 0.44437 0.76131 0.0
O581 O 0.00422 0.31404 0.93631 0.0
O582 O 0.20201 0.30647 0.75857 0.0
O583 O 0.33035 0.41259 0.8146 0.0
O584 O 0.26833 0.27938 0.82128 0.0
O585 O 0.16008 0.47641 0.86859 0.0
O586 O 0.20122 0.49679 0.79058 0.0
C587 C 0.09161 0.49031 0.97152 0.0
C588 C 0.23013 0.36402 0.97523 0.0
C589 C 0.45501 0.61323 0.24468 0.0
C590 C 0.52174 0.5149 0.41157 0.0
C591 C 0.38755 0.54702 0.47027 0.0
Mg592 Mg 0.33523 0.58239 0.2864 0.0
Mg593 Mg 0.2592 0.70727 0.36176 0.0
O594 O 0.28811 0.63145 0.34624 0.0
Mg595 Mg 0.37201 0.61845 0.36884 0.0
O596 O 0.45578 0.59445 0.38049 0.0
Mg597 Mg 0.40741 0.53649 0.33035 0.0
Mg598 Mg 0.48554 0.60719 0.45674 0.0
C599 C 0.25982 0.65251 0.46961 0.0
O600 O 0.43555 0.70407 0.38982 0.0
O601 O 0.26555 0.64309 0.28718 0.0
O602 O 0.51636 0.68259 0.43425 0.0
O603 O 0.37171 0.67755 0.27211 0.0
O604 O 0.2014 0.70644 0.29507 0.0
O605 O 0.34359 0.71874 0.35113 0.0
O606 O 0.33072 0.51857 0.3843 0.0
O607 O 0.27708 0.50834 0.30997 0.0
C608 C 0.28766 0.49404 0.36031 0.0
C609 C 0.22092 0.66464 0.2687 0.0
O610 O 0.30993 0.63578 0.45501 0.0
O611 O 0.47729 0.53461 0.39081 0.0
O612 O 0.22946 0.68215 0.43787 0.0
O613 O 0.37171 0.51977 0.42562 0.0
O614 O 0.54234 0.54011 0.45357 0.0
O615 O 0.40121 0.59774 0.46708 0.0
O616 O 0.41208 0.63682 0.26946 0.0
O617 O 0.46475 0.56227 0.2571 0.0
C618 C 0.3576 0.72215 0.30027 0.0
C619 C 0.48636 0.71653 0.40696 0.0
C620 C 0.88776 0.7583 0.9614 0.0
C621 C 0.97332 0.58912 0.03431 0.0
C622 C 0.94082 0.524 0.89541 0.0
Mg623 Mg 0.9144 0.71064 0.84391 0.0
Mg624 Mg 0.78629 0.63704 0.76745 0.0
O625 O 0.86311 0.65154 0.79696 0.0
Mg626 Mg 0.87755 0.62995 0.88052 0.0
O627 O 0.89994 0.61761 0.96393 0.0
Mg628 Mg 0.9606 0.66531 0.91613 0.0
Mg629 Mg 0.8831 0.54293 0.99691 0.0
C630 C 0.84233 0.5301 0.76516 0.0
O631 O 0.79042 0.61259 0.94561 0.0
O632 O 0.85262 0.7076 0.775 0.0
O633 O 0.80861 0.56917 0.02774 0.0
O634 O 0.82023 0.7262 0.88204 0.0
O635 O 0.79101 0.70311 0.70875 0.0
O636 O 0.78003 0.64746 0.8525 0.0
O637 O 0.97831 0.61176 0.83924 0.0
O638 O 0.98691 0.68633 0.78569 0.0
C639 C 0.00351 0.63726 0.79684 0.0
C640 C 0.83397 0.7268 0.72916 0.0
O641 O 0.85953 0.54337 0.81596 0.0
O642 O 0.95559 0.6065 0.98738 0.0
O643 O 0.81175 0.56224 0.73628 0.0
O644 O 0.97299 0.56702 0.88335 0.0
O645 O 0.94785 0.54782 0.0561 0.0
O646 O 0.89136 0.53051 0.91243 0.0
O647 O 0.86185 0.73207 0.92033 0.0
O648 O 0.93698 0.74146 0.97239 0.0
C649 C 0.77587 0.69759 0.86804 0.0
C650 C 0.77637 0.59744 0.99684 0.0
C651 C 0.4946 0.64438 0.2038 0.0
C652 C 0.65699 0.71724 0.2869 0.0
C653 C 0.72173 0.72252 0.15112 0.0
Mg654 Mg 0.52573 0.66548 0.08429 0.0
Mg655 Mg 0.6069 0.54012 0.01179 0.0
O656 O 0.58998 0.61497 0.04255 0.0
Mg657 Mg 0.61654 0.62628 0.12497 0.0
O658 O 0.63116 0.65735 0.20485 0.0
Mg659 Mg 0.59258 0.73887 0.17862 0.0
Mg660 Mg 0.70836 0.63891 0.23492 0.0
C661 C 0.71822 0.5978 0.01716 0.0
O662 O 0.63434 0.53809 0.18475 0.0
O663 O 0.53471 0.60555 0.0156 0.0
O664 O 0.68631 0.55926 0.26028 0.0
O665 O 0.50825 0.57229 0.12145 0.0
O666 O 0.54255 0.54396 0.95006 0.0
O667 O 0.58825 0.5318 0.09593 0.0
O668 O 0.61818 0.7211 0.08544 0.0
O669 O 0.54947 0.73822 0.02714 0.0
C670 C 0.59882 0.74977 0.043 0.0
C671 C 0.51606 0.5854 0.97027 0.0
O672 O 0.70542 0.61409 0.06825 0.0
O673 O 0.63332 0.69456 0.2448 0.0
O674 O 0.68543 0.5683 0.98747 0.0
O675 O 0.68503 0.76145 0.15838 0.0
O676 O 0.70165 0.69445 0.30443 0.0
O677 O 0.7081 0.67198 0.1539 0.0
O678 O 0.52069 0.61691 0.16498 0.0
O679 O 0.50535 0.69677 0.2088 0.0
C680 C 0.53741 0.52797 0.10938 0.0
C681 C 0.6546 0.52588 0.23434 0.0
C682 C 0.49516 0.35597 0.29313 0.0
C683 C 0.66647 0.26863 0.22678 0.0
C684 C 0.72322 0.30055 0.36452 0.0
Mg685 Mg 0.53969 0.33279 0.41352 0.0
Mg686 Mg 0.61403 0.4635 0.48619 0.0
O687 O 0.59983 0.38601 0.45775 0.0
Mg688 Mg 0.62184 0.36984 0.37507 0.0
O689 O 0.63475 0.34499 0.29248 0.0
Mg690 Mg 0.58446 0.28541 0.34048 0.0
Mg691 Mg 0.71137 0.36056 0.26292 0.0
C692 C 0.72165 0.40728 0.49055 0.0
O693 O 0.63871 0.45593 0.30833 0.0
O694 O 0.5447 0.39678 0.47944 0.0
O695 O 0.68644 0.43539 0.22931 0.0
O696 O 0.5239 0.42536 0.37197 0.0
O697 O 0.54766 0.45902 0.54507 0.0
O698 O 0.6018 0.46786 0.40064 0.0
O699 O 0.6365 0.27006 0.41847 0.0
O700 O 0.56354 0.26271 0.4745 0.0
C701 C 0.6122 0.246 0.46191 0.0
C702 C 0.52453 0.41571 0.5247 0.0
O703 O 0.70839 0.38923 0.44011 0.0
O704 O 0.64678 0.28832 0.27195 0.0
O705 O 0.68933 0.43862 0.51845 0.0
O706 O 0.6787 0.27224 0.37903 0.0
O707 O 0.70886 0.29322 0.20593 0.0
O708 O 0.71936 0.35062 0.34828 0.0
O709 O 0.52082 0.38214 0.33436 0.0
O710 O 0.5117 0.30695 0.2818 0.0
C711 C 0.55143 0.47061 0.38519 0.0
C712 C 0.65567 0.46825 0.25717 0.0
C713 C 0.00754 0.37174 0.70955 0.0
C714 C 0.84138 0.27359 0.77954 0.0
C715 C 0.78295 0.30077 0.64013 0.0
Mg716 Mg 0.96281 0.34024 0.59057 0.0
Mg717 Mg 0.88695 0.46557 0.51298 0.0
O718 O 0.90185 0.38973 0.54402 0.0
Mg719 Mg 0.88056 0.37504 0.62758 0.0
O720 O 0.87005 0.35071 0.71128 0.0
Mg721 Mg 0.92276 0.2934 0.66437 0.0
Mg722 Mg 0.79297 0.36251 0.74027 0.0
C723 C 0.77981 0.40777 0.51153 0.0
O724 O 0.86035 0.46058 0.69216 0.0
O725 O 0.9588 0.40144 0.5229 0.0
O726 O 0.81479 0.43854 0.7723 0.0
O727 O 0.9726 0.43419 0.63021 0.0
O728 O 0.95471 0.46089 0.45499 0.0
O729 O 0.8956 0.47613 0.59845 0.0
O730 O 0.87 0.27407 0.58711 0.0
O731 O 0.94238 0.26783 0.53045 0.0
C732 C 0.89393 0.25044 0.54348 0.0
C733 C 0.97892 0.41909 0.47718 0.0
O734 O 0.79337 0.39095 0.56247 0.0
O735 O 0.86128 0.29323 0.73426 0.0
O736 O 0.81187 0.43849 0.48232 0.0
O737 O 0.82903 0.27461 0.62716 0.0
O738 O 0.79762 0.29658 0.799 0.0
O739 O 0.7839 0.35132 0.65511 0.0
O740 O 0.98054 0.39438 0.6672 0.0
O741 O 0.99577 0.32103 0.72126 0.0
C742 C 0.94578 0.47896 0.61459 0.0
C743 C 0.84363 0.47245 0.74343 0.0
loop_
_geom_bond_atom_site_label_1
_geom_bond_atom_site_label_2
_geom_bond_distance
_geom_bond_site_symmetry_2
_ccdc_geom_bond_type
C0 O27 1.312 . S
C0 O28 1.208 . S
C1 O22 1.331 . S
C1 O25 1.244 . S
C2 O24 1.264 . S
C2 O26 1.273 . S
Mg3 O5 1.936 . S
Mg3 O12 2.081 . S
Mg3 O14 2.023 . S
Mg3 O18 2.031 . S
Mg3 O27 2.291 . S
Mg4 O5 1.963 1_655 S
Mg4 O15 1.942 . S
Mg4 O16 1.955 . S
Mg4 O23 1.986 1_655 S
O5 Mg3 1.936 . S
O5 Mg4 1.963 1_455 S
O5 Mg6 1.915 . S
Mg6 O5 1.915 . S
Mg6 O7 1.915 . S
Mg6 O11 2.013 . S
Mg6 O17 2.114 . S
Mg6 O21 2.013 . S
Mg6 O27 2.114 . S
O7 Mg6 1.915 . S
O7 Mg8 1.936 . S
O7 Mg9 1.963 . S
Mg8 O7 1.936 . S
Mg8 O17 2.291 . S
Mg8 O22 2.081 . S
Mg8 O24 2.023 . S
Mg8 O28 2.031 . S
Mg9 O7 1.963 . S
Mg9 O13 1.986 . S
Mg9 O25 1.942 . S
Mg9 O26 1.955 . S
C10 O21 1.191 . S
C10 O23 1.307 . S
O11 Mg6 2.013 . S
O11 C30 1.191 . S
O12 Mg3 2.081 . S
O12 C20 1.331 . S
O13 Mg9 1.986 . S
O13 C30 1.307 . S
O14 Mg3 2.023 . S
O14 C29 1.264 1_455 S
O15 Mg4 1.942 . S
O15 C20 1.244 1_655 S
O16 Mg4 1.955 . S
O16 C29 1.273 . S
O17 Mg6 2.114 . S
O17 Mg8 2.291 . S
O17 C19 1.312 . S
O18 Mg3 2.031 . S
O18 C19 1.208 . S
C19 O17 1.312 . S
C19 O18 1.208 . S
C20 O12 1.331 . S
C20 O15 1.244 1_455 S
O21 Mg6 2.013 . S
O21 C10 1.191 . S
O22 C1 1.331 . S
O22 Mg8 2.081 . S
O23 Mg4 1.986 1_455 S
O23 C10 1.307 . S
O24 C2 1.264 . S
O24 Mg8 2.023 . S
O25 C1 1.244 . S
O25 Mg9 1.942 . S
O26 C2 1.273 . S
O26 Mg9 1.955 . S
O27 C0 1.312 . S
O27 Mg3 2.291 . S
O27 Mg6 2.114 . S
O28 C0 1.208 . S
O28 Mg8 2.031 . S
C29 O14 1.264 1_655 S
C29 O16 1.273 . S
C30 O11 1.191 . S
C30 O13 1.307 . S
C31 O58 1.312 . S
C31 O59 1.208 . S
C32 O53 1.331 . S
C32 O56 1.244 . S
C33 O55 1.264 . S
C33 O57 1.273 . S
Mg34 O36 1.936 . S
Mg34 O43 2.081 1_655 S
Mg34 O45 2.023 . S
Mg34 O49 2.031 . S
Mg34 O58 2.291 . S
Mg35 O36 1.963 . S
Mg35 O46 1.942 1_655 S
Mg35 O47 1.955 . S
Mg35 O54 1.986 . S
O36 Mg34 1.936 . S
O36 Mg35 1.963 . S
O36 Mg37 1.915 . S
Mg37 O36 1.915 . S
Mg37 O38 1.915 . S
Mg37 O42 2.013 . S
Mg37 O48 2.114 . S
Mg37 O52 2.013 . S
Mg37 O58 2.114 . S
O38 Mg37 1.915 . S
O38 Mg39 1.936 . S
O38 Mg40 1.963 . S
Mg39 O38 1.936 . S
Mg39 O48 2.291 . S
Mg39 O53 2.081 . S
Mg39 O55 2.023 . S
Mg39 O59 2.031 . S
Mg40 O38 1.963 . S
Mg40 O44 1.986 . S
Mg40 O56 1.942 . S
Mg40 O57 1.955 . S
C41 O52 1.191 . S
C41 O54 1.307 . S
O42 Mg37 2.013 . S
O42 C61 1.191 . S
O43 Mg34 2.081 1_455 S
O43 C51 1.331 . S
O44 Mg40 1.986 . S
O44 C61 1.307 . S
O45 Mg34 2.023 . S
O45 C60 1.264 . S
O46 Mg35 1.942 1_455 S
O46 C51 1.244 . S
O47 Mg35 1.955 . S
O47 C60 1.273 . S
O48 Mg37 2.114 . S
O48 Mg39 2.291 . S
O48 C50 1.312 . S
O49 Mg34 2.031 . S
O49 C50 1.208 . S
C50 O48 1.312 . S
C50 O49 1.208 . S
C51 O43 1.331 . S
C51 O46 1.244 . S
O52 Mg37 2.013 . S
O52 C41 1.191 . S
O53 C32 1.331 . S
O53 Mg39 2.081 . S
O54 Mg35 1.986 . S
O54 C41 1.307 . S
O55 C33 1.264 . S
O55 Mg39 2.023 . S
O56 C32 1.244 . S
O56 Mg40 1.942 . S
O57 C33 1.273 . S
O57 Mg40 1.955 . S
O58 C31 1.312 . S
O58 Mg34 2.291 . S
O58 Mg37 2.114 . S
O59 C31 1.208 . S
O59 Mg39 2.031 . S
C60 O45 1.264 . S
C60 O47 1.273 . S
C61 O42 1.191 . S
C61 O44 1.307 . S
C62 O89 1.312 . S
C62 O90 1.208 . S
C63 O84 1.331 . S
C63 O87 1.244 . S
C64 O86 1.264 . S
C64 O88 1.273 . S
Mg65 O67 1.936 . S
Mg65 O74 2.081 . S
Mg65 O76 2.023 . S
Mg65 O80 2.031 . S
Mg65 O89 2.291 . S
Mg66 O67 1.963 . S
Mg66 O77 1.942 . S
Mg66 O78 1.955 . S
Mg66 O85 1.986 . S
O67 Mg65 1.936 . S
O67 Mg66 1.963 . S
O67 Mg68 1.915 . S
Mg68 O67 1.915 . S
Mg68 O69 1.915 . S
Mg68 O73 2.013 . S
Mg68 O79 2.114 . S
Mg68 O83 2.013 . S
Mg68 O89 2.114 . S
O69 Mg68 1.915 . S
O69 Mg70 1.936 . S
O69 Mg71 1.963 . S
Mg70 O69 1.936 . S
Mg70 O79 2.291 . S
Mg70 O84 2.081 . S
Mg70 O86 2.023 . S
Mg70 O90 2.031 . S
Mg71 O69 1.963 . S
Mg71 O75 1.986 . S
Mg71 O87 1.942 . S
Mg71 O88 1.955 . S
C72 O83 1.191 . S
C72 O85 1.307 . S
O73 Mg68 2.013 . S
O73 C92 1.191 . S
O74 Mg65 2.081 . S
O74 C82 1.331 . S
O75 Mg71 1.986 . S
O75 C92 1.307 . S
O76 Mg65 2.023 . S
O76 C91 1.264 . S
O77 Mg66 1.942 . S
O77 C82 1.244 . S
O78 Mg66 1.955 . S
O78 C91 1.273 . S
O79 Mg68 2.114 . S
O79 Mg70 2.291 . S
O79 C81 1.312 . S
O80 Mg65 2.031 . S
O80 C81 1.208 . S
C81 O79 1.312 . S
C81 O80 1.208 . S
C82 O74 1.331 . S
C82 O77 1.244 . S
O83 Mg68 2.013 . S
O83 C72 1.191 . S
O84 C63 1.331 . S
O84 Mg70 2.081 . S
O85 Mg66 1.986 . S
O85 C72 1.307 . S
O86 C64 1.264 . S
O86 Mg70 2.023 . S
O87 C63 1.244 . S
O87 Mg71 1.942 . S
O88 C64 1.273 . S
O88 Mg71 1.955 . S
O89 C62 1.312 . S
O89 Mg65 2.291 . S
O89 Mg68 2.114 . S
O90 C62 1.208 . S
O90 Mg70 2.031 . S
C91 O76 1.264 . S
C91 O78 1.273 . S
C92 O73 1.191 . S
C92 O75 1.307 . S
C93 O120 1.312 . S
C93 O121 1.208 . S
C94 O115 1.331 . S
C94 O118 1.244 . S
C95 O117 1.264 . S
C95 O119 1.273 . S
Mg96 O98 1.936 . S
Mg96 O105 2.081 . S
Mg96 O107 2.023 . S
Mg96 O111 2.031 . S
Mg96 O120 2.291 . S
Mg97 O98 1.963 1_556 S
Mg97 O108 1.942 . S
Mg97 O109 1.955 . S
Mg97 O116 1.986 1_556 S
O98 Mg96 1.936 . S
O98 Mg97 1.963 1_554 S
O98 Mg99 1.915 . S
Mg99 O98 1.915 . S
Mg99 O100 1.915 . S
Mg99 O104 2.013 . S
Mg99 O110 2.114 . S
Mg99 O114 2.013 . S
Mg99 O120 2.114 . S
O100 Mg99 1.915 . S
O100 Mg101 1.936 . S
O100 Mg102 1.963 . S
Mg101 O100 1.936 . S
Mg101 O110 2.291 . S
Mg101 O115 2.081 . S
Mg101 O117 2.023 . S
Mg101 O121 2.031 . S
Mg102 O100 1.963 . S
Mg102 O106 1.986 . S
Mg102 O118 1.942 . S
Mg102 O119 1.955 . S
C103 O114 1.191 . S
C103 O116 1.307 . S
O104 Mg99 2.013 . S
O104 C123 1.191 . S
O105 Mg96 2.081 . S
O105 C113 1.331 . S
O106 Mg102 1.986 . S
O106 C123 1.307 . S
O107 Mg96 2.023 . S
O107 C122 1.264 1_554 S
O108 Mg97 1.942 . S
O108 C113 1.244 1_556 S
O109 Mg97 1.955 . S
O109 C122 1.273 . S
O110 Mg99 2.114 . S
O110 Mg101 2.291 . S
O110 C112 1.312 . S
O111 Mg96 2.031 . S
O111 C112 1.208 . S
C112 O110 1.312 . S
C112 O111 1.208 . S
C113 O105 1.331 . S
C113 O108 1.244 1_554 S
O114 Mg99 2.013 . S
O114 C103 1.191 . S
O115 C94 1.331 . S
O115 Mg101 2.081 . S
O116 Mg97 1.986 1_554 S
O116 C103 1.307 . S
O117 C95 1.264 . S
O117 Mg101 2.023 . S
O118 C94 1.244 . S
O118 Mg102 1.942 . S
O119 C95 1.273 . S
O119 Mg102 1.955 . S
O120 C93 1.312 . S
O120 Mg96 2.291 . S
O120 Mg99 2.114 . S
O121 C93 1.208 . S
O121 Mg101 2.031 . S
C122 O107 1.264 1_556 S
C122 O109 1.273 . S
C123 O104 1.191 . S
C123 O106 1.307 . S
C124 O151 1.312 . S
C124 O152 1.208 . S
C125 O146 1.331 . S
C125 O149 1.244 1_455 S
C126 O148 1.264 1_655 S
C126 O150 1.273 . S
Mg127 O129 1.936 . S
Mg127 O136 2.081 . S
Mg127 O138 2.023 . S
Mg127 O142 2.031 . S
Mg127 O151 2.291 . S
Mg128 O129 1.963 . S
Mg128 O139 1.942 . S
Mg128 O140 1.955 . S
Mg128 O147 1.986 . S
O129 Mg127 1.936 . S
O129 Mg128 1.963 . S
O129 Mg130 1.915 . S
Mg130 O129 1.915 . S
Mg130 O131 1.915 . S
Mg130 O135 2.013 . S
Mg130 O141 2.114 . S
Mg130 O145 2.013 . S
Mg130 O151 2.114 . S
O131 Mg130 1.915 . S
O131 Mg132 1.936 . S
O131 Mg133 1.963 1_455 S
Mg132 O131 1.936 . S
Mg132 O141 2.291 . S
Mg132 O146 2.081 . S
Mg132 O148 2.023 . S
Mg132 O152 2.031 . S
Mg133 O131 1.963 1_655 S
Mg133 O137 1.986 1_655 S
Mg133 O149 1.942 . S
Mg133 O150 1.955 . S
C134 O145 1.191 . S
C134 O147 1.307 . S
O135 Mg130 2.013 . S
O135 C154 1.191 . S
O136 Mg127 2.081 . S
O136 C144 1.331 . S
O137 Mg133 1.986 1_455 S
O137 C154 1.307 . S
O138 Mg127 2.023 . S
O138 C153 1.264 . S
O139 Mg128 1.942 . S
O139 C144 1.244 . S
O140 Mg128 1.955 . S
O140 C153 1.273 . S
O141 Mg130 2.114 . S
O141 Mg132 2.291 . S
O141 C143 1.312 . S
O142 Mg127 2.031 . S
O142 C143 1.208 . S
C143 O141 1.312 . S
C143 O142 1.208 . S
C144 O136 1.331 . S
C144 O139 1.244 . S
O145 Mg130 2.013 . S
O145 C134 1.191 . S
O146 C125 1.331 . S
O146 Mg132 2.081 . S
O147 Mg128 1.986 . S
O147 C134 1.307 . S
O148 C126 1.264 1_455 S
O148 Mg132 2.023 . S
O149 C125 1.244 1_655 S
O149 Mg133 1.942 . S
O150 C126 1.273 . S
O150 Mg133 1.955 . S
O151 C124 1.312 . S
O151 Mg127 2.291 . S
O151 Mg130 2.114 . S
O152 C124 1.208 . S
O152 Mg132 2.031 . S
C153 O138 1.264 . S
C153 O140 1.273 . S
C154 O135 1.191 . S
C154 O137 1.307 . S
C155 O182 1.312 . S
C155 O183 1.208 . S
C156 O177 1.331 . S
C156 O180 1.244 . S
C157 O179 1.264 . S
C157 O181 1.273 . S
Mg158 O160 1.936 . S
Mg158 O167 2.081 . S
Mg158 O169 2.023 . S
Mg158 O173 2.031 . S
Mg158 O182 2.291 . S
Mg159 O160 1.963 . S
Mg159 O170 1.942 . S
Mg159 O171 1.955 . S
Mg159 O178 1.986 . S
O160 Mg158 1.936 . S
O160 Mg159 1.963 . S
O160 Mg161 1.915 . S
Mg161 O160 1.915 . S
Mg161 O162 1.915 . S
Mg161 O166 2.013 . S
Mg161 O172 2.114 . S
Mg161 O176 2.013 . S
Mg161 O182 2.114 . S
O162 Mg161 1.915 . S
O162 Mg163 1.936 . S
O162 Mg164 1.963 . S
Mg163 O162 1.936 . S
Mg163 O172 2.291 . S
Mg163 O177 2.081 . S
Mg163 O179 2.023 . S
Mg163 O183 2.031 . S
Mg164 O162 1.963 . S
Mg164 O168 1.986 . S
Mg164 O180 1.942 . S
Mg164 O181 1.955 . S
C165 O176 1.191 . S
C165 O178 1.307 . S
O166 Mg161 2.013 . S
O166 C185 1.191 . S
O167 Mg158 2.081 . S
O167 C175 1.331 . S
O168 Mg164 1.986 . S
O168 C185 1.307 . S
O169 Mg158 2.023 . S
O169 C184 1.264 . S
O170 Mg159 1.942 . S
O170 C175 1.244 . S
O171 Mg159 1.955 . S
O171 C184 1.273 . S
O172 Mg161 2.114 . S
O172 Mg163 2.291 . S
O172 C174 1.312 . S
O173 Mg158 2.031 . S
O173 C174 1.208 . S
C174 O172 1.312 . S
C174 O173 1.208 . S
C175 O167 1.331 . S
C175 O170 1.244 . S
O176 Mg161 2.013 . S
O176 C165 1.191 . S
O177 C156 1.331 . S
O177 Mg163 2.081 . S
O178 Mg159 1.986 . S
O178 C165 1.307 . S
O179 C157 1.264 . S
O179 Mg163 2.023 . S
O180 C156 1.244 . S
O180 Mg164 1.942 . S
O181 C157 1.273 . S
O181 Mg164 1.955 . S
O182 C155 1.312 . S
O182 Mg158 2.291 . S
O182 Mg161 2.114 . S
O183 C155 1.208 . S
O183 Mg163 2.031 . S
C184 O169 1.264 . S
C184 O171 1.273 . S
C185 O166 1.191 . S
C185 O168 1.307 . S
C186 O213 1.312 . S
C186 O214 1.208 . S
C187 O208 1.331 . S
C187 O211 1.244 . S
C188 O210 1.264 . S
C188 O212 1.273 . S
Mg189 O191 1.936 . S
Mg189 O198 2.081 . S
Mg189 O200 2.023 . S
Mg189 O204 2.031 . S
Mg189 O213 2.291 . S
Mg190 O191 1.963 . S
Mg190 O201 1.942 . S
Mg190 O202 1.955 . S
Mg190 O209 1.986 . S
O191 Mg189 1.936 . S
O191 Mg190 1.963 . S
O191 Mg192 1.915 . S
Mg192 O191 1.915 . S
Mg192 O193 1.915 . S
Mg192 O197 2.013 . S
Mg192 O203 2.114 . S
Mg192 O207 2.013 . S
Mg192 O213 2.114 . S
O193 Mg192 1.915 . S
O193 Mg194 1.936 . S
O193 Mg195 1.963 . S
Mg194 O193 1.936 . S
Mg194 O203 2.291 . S
Mg194 O208 2.081 . S
Mg194 O210 2.023 . S
Mg194 O214 2.031 . S
Mg195 O193 1.963 . S
Mg195 O199 1.986 . S
Mg195 O211 1.942 . S
Mg195 O212 1.955 . S
C196 O207 1.191 . S
C196 O209 1.307 . S
O197 Mg192 2.013 . S
O197 C216 1.191 . S
O198 Mg189 2.081 . S
O198 C206 1.331 . S
O199 Mg195 1.986 . S
O199 C216 1.307 . S
O200 Mg189 2.023 . S
O200 C215 1.264 . S
O201 Mg190 1.942 . S
O201 C206 1.244 . S
O202 Mg190 1.955 . S
O202 C215 1.273 . S
O203 Mg192 2.114 . S
O203 Mg194 2.291 . S
O203 C205 1.312 . S
O204 Mg189 2.031 . S
O204 C205 1.208 . S
C205 O203 1.312 . S
C205 O204 1.208 . S
C206 O198 1.331 . S
C206 O201 1.244 . S
O207 Mg192 2.013 . S
O207 C196 1.191 . S
O208 C187 1.331 . S
O208 Mg194 2.081 . S
O209 Mg190 1.986 . S
O209 C196 1.307 . S
O210 C188 1.264 . S
O210 Mg194 2.023 . S
O211 C187 1.244 . S
O211 Mg195 1.942 . S
O212 C188 1.273 . S
O212 Mg195 1.955 . S
O213 C186 1.312 . S
O213 Mg189 2.291 . S
O213 Mg192 2.114 . S
O214 C186 1.208 . S
O214 Mg194 2.031 . S
C215 O200 1.264 . S
C215 O202 1.273 . S
C216 O197 1.191 . S
C216 O199 1.307 . S
C217 O244 1.312 . S
C217 O245 1.208 . S
C218 O239 1.331 . S
C218 O242 1.244 1_556 S
C219 O241 1.264 1_554 S
C219 O243 1.273 . S
Mg220 O222 1.936 . S
Mg220 O229 2.081 . S
Mg220 O231 2.023 . S
Mg220 O235 2.031 . S
Mg220 O244 2.291 . S
Mg221 O222 1.963 . S
Mg221 O232 1.942 . S
Mg221 O233 1.955 . S
Mg221 O240 1.986 . S
O222 Mg220 1.936 . S
O222 Mg221 1.963 . S
O222 Mg223 1.915 . S
Mg223 O222 1.915 . S
Mg223 O224 1.915 . S
Mg223 O228 2.013 . S
Mg223 O234 2.114 . S
Mg223 O238 2.013 . S
Mg223 O244 2.114 . S
O224 Mg223 1.915 . S
O224 Mg225 1.936 . S
O224 Mg226 1.963 1_556 S
Mg225 O224 1.936 . S
Mg225 O234 2.291 . S
Mg225 O239 2.081 1_655 S
Mg225 O241 2.023 . S
Mg225 O245 2.031 . S
Mg226 O224 1.963 1_554 S
Mg226 O230 1.986 1_554 S
Mg226 O242 1.942 1_655 S
Mg226 O243 1.955 . S
C227 O238 1.191 . S
C227 O240 1.307 . S
O228 Mg223 2.013 . S
O228 C247 1.191 . S
O229 Mg220 2.081 . S
O229 C237 1.331 . S
O230 Mg226 1.986 1_556 S
O230 C247 1.307 . S
O231 Mg220 2.023 . S
O231 C246 1.264 . S
O232 Mg221 1.942 . S
O232 C237 1.244 . S
O233 Mg221 1.955 . S
O233 C246 1.273 . S
O234 Mg223 2.114 . S
O234 Mg225 2.291 . S
O234 C236 1.312 . S
O235 Mg220 2.031 . S
O235 C236 1.208 . S
C236 O234 1.312 . S
C236 O235 1.208 . S
C237 O229 1.331 . S
C237 O232 1.244 . S
O238 Mg223 2.013 . S
O238 C227 1.191 . S
O239 C218 1.331 . S
O239 Mg225 2.081 1_455 S
O240 Mg221 1.986 . S
O240 C227 1.307 . S
O241 C219 1.264 1_556 S
O241 Mg225 2.023 . S
O242 C218 1.244 1_554 S
O242 Mg226 1.942 1_455 S
O243 C219 1.273 . S
O243 Mg226 1.955 . S
O244 C217 1.312 . S
O244 Mg220 2.291 . S
O244 Mg223 2.114 . S
O245 C217 1.208 . S
O245 Mg225 2.031 . S
C246 O231 1.264 . S
C246 O233 1.273 . S
C247 O228 1.191 . S
C247 O230 1.307 . S
C248 O275 1.312 . S
C248 O276 1.208 . S
C249 O270 1.331 . S
C249 O273 1.244 1_545 S
C250 O272 1.264 1_565 S
C250 O274 1.273 . S
Mg251 O253 1.936 . S
Mg251 O260 2.081 . S
Mg251 O262 2.023 . S
Mg251 O266 2.031 . S
Mg251 O275 2.291 . S
Mg252 O253 1.963 . S
Mg252 O263 1.942 . S
Mg252 O264 1.955 . S
Mg252 O271 1.986 . S
O253 Mg251 1.936 . S
O253 Mg252 1.963 . S
O253 Mg254 1.915 . S
Mg254 O253 1.915 . S
Mg254 O255 1.915 . S
Mg254 O259 2.013 . S
Mg254 O265 2.114 . S
Mg254 O269 2.013 . S
Mg254 O275 2.114 . S
O255 Mg254 1.915 . S
O255 Mg256 1.936 . S
O255 Mg257 1.963 1_545 S
Mg256 O255 1.936 . S
Mg256 O265 2.291 . S
Mg256 O270 2.081 . S
Mg256 O272 2.023 . S
Mg256 O276 2.031 . S
Mg257 O255 1.963 1_565 S
Mg257 O261 1.986 1_565 S
Mg257 O273 1.942 . S
Mg257 O274 1.955 . S
C258 O269 1.191 . S
C258 O271 1.307 . S
O259 Mg254 2.013 . S
O259 C278 1.191 . S
O260 Mg251 2.081 . S
O260 C268 1.331 . S
O261 Mg257 1.986 1_545 S
O261 C278 1.307 . S
O262 Mg251 2.023 . S
O262 C277 1.264 . S
O263 Mg252 1.942 . S
O263 C268 1.244 . S
O264 Mg252 1.955 . S
O264 C277 1.273 . S
O265 Mg254 2.114 . S
O265 Mg256 2.291 . S
O265 C267 1.312 . S
O266 Mg251 2.031 . S
O266 C267 1.208 . S
C267 O265 1.312 . S
C267 O266 1.208 . S
C268 O260 1.331 . S
C268 O263 1.244 . S
O269 Mg254 2.013 . S
O269 C258 1.191 . S
O270 C249 1.331 . S
O270 Mg256 2.081 . S
O271 Mg252 1.986 . S
O271 C258 1.307 . S
O272 C250 1.264 1_545 S
O272 Mg256 2.023 . S
O273 C249 1.244 1_565 S
O273 Mg257 1.942 . S
O274 C250 1.273 . S
O274 Mg257 1.955 . S
O275 C248 1.312 . S
O275 Mg251 2.291 . S
O275 Mg254 2.114 . S
O276 C248 1.208 . S
O276 Mg256 2.031 . S
C277 O262 1.264 . S
C277 O264 1.273 . S
C278 O259 1.191 . S
C278 O261 1.307 . S
C279 O306 1.312 . S
C279 O307 1.208 . S
C280 O301 1.331 . S
C280 O304 1.244 . S
C281 O303 1.264 . S
C281 O305 1.273 . S
Mg282 O284 1.936 . S
Mg282 O291 2.081 . S
Mg282 O293 2.023 . S
Mg282 O297 2.031 . S
Mg282 O306 2.291 . S
Mg283 O284 1.963 1_565 S
Mg283 O294 1.942 . S
Mg283 O295 1.955 . S
Mg283 O302 1.986 1_565 S
O284 Mg282 1.936 . S
O284 Mg283 1.963 1_545 S
O284 Mg285 1.915 . S
Mg285 O284 1.915 . S
Mg285 O286 1.915 . S
Mg285 O290 2.013 . S
Mg285 O296 2.114 . S
Mg285 O300 2.013 . S
Mg285 O306 2.114 . S
O286 Mg285 1.915 . S
O286 Mg287 1.936 . S
O286 Mg288 1.963 . S
Mg287 O286 1.936 . S
Mg287 O296 2.291 . S
Mg287 O301 2.081 . S
Mg287 O303 2.023 . S
Mg287 O307 2.031 . S
Mg288 O286 1.963 . S
Mg288 O292 1.986 . S
Mg288 O304 1.942 . S
Mg288 O305 1.955 . S
C289 O300 1.191 . S
C289 O302 1.307 . S
O290 Mg285 2.013 . S
O290 C309 1.191 . S
O291 Mg282 2.081 . S
O291 C299 1.331 . S
O292 Mg288 1.986 . S
O292 C309 1.307 . S
O293 Mg282 2.023 . S
O293 C308 1.264 1_545 S
O294 Mg283 1.942 . S
O294 C299 1.244 1_565 S
O295 Mg283 1.955 . S
O295 C308 1.273 . S
O296 Mg285 2.114 . S
O296 Mg287 2.291 . S
O296 C298 1.312 . S
O297 Mg282 2.031 . S
O297 C298 1.208 . S
C298 O296 1.312 . S
C298 O297 1.208 . S
C299 O291 1.331 . S
C299 O294 1.244 1_545 S
O300 Mg285 2.013 . S
O300 C289 1.191 . S
O301 C280 1.331 . S
O301 Mg287 2.081 . S
O302 Mg283 1.986 1_545 S
O302 C289 1.307 . S
O303 C281 1.264 . S
O303 Mg287 2.023 . S
O304 C280 1.244 . S
O304 Mg288 1.942 . S
O305 C281 1.273 . S
O305 Mg288 1.955 . S
O306 C279 1.312 . S
O306 Mg282 2.291 . S
O306 Mg285 2.114 . S
O307 C279 1.208 . S
O307 Mg287 2.031 . S
C308 O293 1.264 1_565 S
C308 O295 1.273 . S
C309 O290 1.191 . S
C309 O292 1.307 . S
C310 O337 1.312 . S
C310 O338 1.208 . S
C311 O332 1.331 . S
C311 O335 1.244 1_565 S
C312 O334 1.264 1_545 S
C312 O336 1.273 . S
Mg313 O315 1.936 . S
Mg313 O322 2.081 . S
Mg313 O324 2.023 . S
Mg313 O328 2.031 . S
Mg313 O337 2.291 . S
Mg314 O315 1.963 . S
Mg314 O325 1.942 . S
Mg314 O326 1.955 . S
Mg314 O333 1.986 . S
O315 Mg313 1.936 . S
O315 Mg314 1.963 . S
O315 Mg316 1.915 . S
Mg316 O315 1.915 . S
Mg316 O317 1.915 . S
Mg316 O321 2.013 . S
Mg316 O327 2.114 . S
Mg316 O331 2.013 . S
Mg316 O337 2.114 . S
O317 Mg316 1.915 . S
O317 Mg318 1.936 . S
O317 Mg319 1.963 1_565 S
Mg318 O317 1.936 . S
Mg318 O327 2.291 . S
Mg318 O332 2.081 1_556 S
Mg318 O334 2.023 . S
Mg318 O338 2.031 . S
Mg319 O317 1.963 1_545 S
Mg319 O323 1.986 1_545 S
Mg319 O335 1.942 1_556 S
Mg319 O336 1.955 . S
C320 O331 1.191 . S
C320 O333 1.307 . S
O321 Mg316 2.013 . S
O321 C340 1.191 . S
O322 Mg313 2.081 . S
O322 C330 1.331 . S
O323 Mg319 1.986 1_565 S
O323 C340 1.307 . S
O324 Mg313 2.023 . S
O324 C339 1.264 . S
O325 Mg314 1.942 . S
O325 C330 1.244 . S
O326 Mg314 1.955 . S
O326 C339 1.273 . S
O327 Mg316 2.114 . S
O327 Mg318 2.291 . S
O327 C329 1.312 . S
O328 Mg313 2.031 . S
O328 C329 1.208 . S
C329 O327 1.312 . S
C329 O328 1.208 . S
C330 O322 1.331 . S
C330 O325 1.244 . S
O331 Mg316 2.013 . S
O331 C320 1.191 . S
O332 C311 1.331 . S
O332 Mg318 2.081 1_554 S
O333 Mg314 1.986 . S
O333 C320 1.307 . S
O334 C312 1.264 1_565 S
O334 Mg318 2.023 . S
O335 C311 1.244 1_545 S
O335 Mg319 1.942 1_554 S
O336 C312 1.273 . S
O336 Mg319 1.955 . S
O337 C310 1.312 . S
O337 Mg313 2.291 . S
O337 Mg316 2.114 . S
O338 C310 1.208 . S
O338 Mg318 2.031 . S
C339 O324 1.264 . S
C339 O326 1.273 . S
C340 O321 1.191 . S
C340 O323 1.307 . S
C341 O368 1.312 . S
C341 O369 1.208 . S
C342 O363 1.331 . S
C342 O366 1.244 . S
C343 O365 1.264 . S
C343 O367 1.273 . S
Mg344 O346 1.936 . S
Mg344 O353 2.081 1_554 S
Mg344 O355 2.023 . S
Mg344 O359 2.031 . S
Mg344 O368 2.291 . S
Mg345 O346 1.963 1_545 S
Mg345 O356 1.942 1_554 S
Mg345 O357 1.955 . S
Mg345 O364 1.986 1_545 S
O346 Mg344 1.936 . S
O346 Mg345 1.963 1_565 S
O346 Mg347 1.915 . S
Mg347 O346 1.915 . S
Mg347 O348 1.915 . S
Mg347 O352 2.013 . S
Mg347 O358 2.114 . S
Mg347 O362 2.013 . S
Mg347 O368 2.114 . S
O348 Mg347 1.915 . S
O348 Mg349 1.936 . S
O348 Mg350 1.963 . S
Mg349 O348 1.936 . S
Mg349 O358 2.291 . S
Mg349 O363 2.081 . S
Mg349 O365 2.023 . S
Mg349 O369 2.031 . S
Mg350 O348 1.963 . S
Mg350 O354 1.986 . S
Mg350 O366 1.942 . S
Mg350 O367 1.955 . S
C351 O362 1.191 . S
C351 O364 1.307 . S
O352 Mg347 2.013 . S
O352 C371 1.191 . S
O353 Mg344 2.081 1_556 S
O353 C361 1.331 . S
O354 Mg350 1.986 . S
O354 C371 1.307 . S
O355 Mg344 2.023 . S
O355 C370 1.264 1_565 S
O356 Mg345 1.942 1_556 S
O356 C361 1.244 1_545 S
O357 Mg345 1.955 . S
O357 C370 1.273 . S
O358 Mg347 2.114 . S
O358 Mg349 2.291 . S
O358 C360 1.312 . S
O359 Mg344 2.031 . S
O359 C360 1.208 . S
C360 O358 1.312 . S
C360 O359 1.208 . S
C361 O353 1.331 . S
C361 O356 1.244 1_565 S
O362 Mg347 2.013 . S
O362 C351 1.191 . S
O363 C342 1.331 . S
O363 Mg349 2.081 . S
O364 Mg345 1.986 1_565 S
O364 C351 1.307 . S
O365 C343 1.264 . S
O365 Mg349 2.023 . S
O366 C342 1.244 . S
O366 Mg350 1.942 . S
O367 C343 1.273 . S
O367 Mg350 1.955 . S
O368 C341 1.312 . S
O368 Mg344 2.291 . S
O368 Mg347 2.114 . S
O369 C341 1.208 . S
O369 Mg349 2.031 . S
C370 O355 1.264 1_545 S
C370 O357 1.273 . S
C371 O352 1.191 . S
C371 O354 1.307 . S
C372 O399 1.312 . S
C372 O400 1.208 . S
C373 O394 1.331 . S
C373 O397 1.244 . S
C374 O396 1.264 . S
C374 O398 1.273 . S
Mg375 O377 1.936 . S
Mg375 O384 2.081 . S
Mg375 O386 2.023 . S
Mg375 O390 2.031 . S
Mg375 O399 2.291 . S
Mg376 O377 1.963 1_556 S
Mg376 O387 1.942 . S
Mg376 O388 1.955 . S
Mg376 O395 1.986 1_556 S
O377 Mg375 1.936 . S
O377 Mg376 1.963 1_554 S
O377 Mg378 1.915 . S
Mg378 O377 1.915 . S
Mg378 O379 1.915 . S
Mg378 O383 2.013 . S
Mg378 O389 2.114 . S
Mg378 O393 2.013 . S
Mg378 O399 2.114 . S
O379 Mg378 1.915 . S
O379 Mg380 1.936 . S
O379 Mg381 1.963 . S
Mg380 O379 1.936 . S
Mg380 O389 2.291 . S
Mg380 O394 2.081 . S
Mg380 O396 2.023 . S
Mg380 O400 2.031 . S
Mg381 O379 1.963 . S
Mg381 O385 1.986 . S
Mg381 O397 1.942 . S
Mg381 O398 1.955 . S
C382 O393 1.191 . S
C382 O395 1.307 . S
O383 Mg378 2.013 . S
O383 C402 1.191 . S
O384 Mg375 2.081 . S
O384 C392 1.331 . S
O385 Mg381 1.986 . S
O385 C402 1.307 . S
O386 Mg375 2.023 . S
O386 C401 1.264 1_554 S
O387 Mg376 1.942 . S
O387 C392 1.244 1_556 S
O388 Mg376 1.955 . S
O388 C401 1.273 . S
O389 Mg378 2.114 . S
O389 Mg380 2.291 . S
O389 C391 1.312 . S
O390 Mg375 2.031 . S
O390 C391 1.208 . S
C391 O389 1.312 . S
C391 O390 1.208 . S
C392 O384 1.331 . S
C392 O387 1.244 1_554 S
O393 Mg378 2.013 . S
O393 C382 1.191 . S
O394 C373 1.331 . S
O394 Mg380 2.081 . S
O395 Mg376 1.986 1_554 S
O395 C382 1.307 . S
O396 C374 1.264 . S
O396 Mg380 2.023 . S
O397 C373 1.244 . S
O397 Mg381 1.942 . S
O398 C374 1.273 . S
O398 Mg381 1.955 . S
O399 C372 1.312 . S
O399 Mg375 2.291 . S
O399 Mg378 2.114 . S
O400 C372 1.208 . S
O400 Mg380 2.031 . S
C401 O386 1.264 1_556 S
C401 O388 1.273 . S
C402 O383 1.191 . S
C402 O385 1.307 . S
C403 O430 1.312 . S
C403 O431 1.208 . S
C404 O425 1.331 . S
C404 O428 1.244 . S
C405 O427 1.264 . S
C405 O429 1.273 . S
Mg406 O408 1.936 . S
Mg406 O415 2.081 1_565 S
Mg406 O417 2.023 . S
Mg406 O421 2.031 . S
Mg406 O430 2.291 . S
Mg407 O408 1.963 1_455 S
Mg407 O418 1.942 1_565 S
Mg407 O419 1.955 . S
Mg407 O426 1.986 1_455 S
O408 Mg406 1.936 . S
O408 Mg407 1.963 1_655 S
O408 Mg409 1.915 . S
Mg409 O408 1.915 . S
Mg409 O410 1.915 . S
Mg409 O414 2.013 . S
Mg409 O420 2.114 . S
Mg409 O424 2.013 . S
Mg409 O430 2.114 . S
O410 Mg409 1.915 . S
O410 Mg411 1.936 . S
O410 Mg412 1.963 . S
Mg411 O410 1.936 . S
Mg411 O420 2.291 . S
Mg411 O425 2.081 . S
Mg411 O427 2.023 . S
Mg411 O431 2.031 . S
Mg412 O410 1.963 . S
Mg412 O416 1.986 . S
Mg412 O428 1.942 . S
Mg412 O429 1.955 . S
C413 O424 1.191 . S
C413 O426 1.307 . S
O414 Mg409 2.013 . S
O414 C433 1.191 . S
O415 Mg406 2.081 1_545 S
O415 C423 1.331 . S
O416 Mg412 1.986 . S
O416 C433 1.307 . S
O417 Mg406 2.023 . S
O417 C432 1.264 1_655 S
O418 Mg407 1.942 1_545 S
O418 C423 1.244 1_455 S
O419 Mg407 1.955 . S
O419 C432 1.273 . S
O420 Mg409 2.114 . S
O420 Mg411 2.291 . S
O420 C422 1.312 . S
O421 Mg406 2.031 . S
O421 C422 1.208 . S
C422 O420 1.312 . S
C422 O421 1.208 . S
C423 O415 1.331 . S
C423 O418 1.244 1_655 S
O424 Mg409 2.013 . S
O424 C413 1.191 . S
O425 C404 1.331 . S
O425 Mg411 2.081 . S
O426 Mg407 1.986 1_655 S
O426 C413 1.307 . S
O427 C405 1.264 . S
O427 Mg411 2.023 . S
O428 C404 1.244 . S
O428 Mg412 1.942 . S
O429 C405 1.273 . S
O429 Mg412 1.955 . S
O430 C403 1.312 . S
O430 Mg406 2.291 . S
O430 Mg409 2.114 . S
O431 C403 1.208 . S
O431 Mg411 2.031 . S
C432 O417 1.264 1_455 S
C432 O419 1.273 . S
C433 O414 1.191 . S
C433 O416 1.307 . S
C434 O461 1.312 . S
C434 O462 1.208 . S
C435 O456 1.331 . S
C435 O459 1.244 . S
C436 O458 1.264 . S
C436 O460 1.273 . S
Mg437 O439 1.936 . S
Mg437 O446 2.081 1_455 S
Mg437 O448 2.023 . S
Mg437 O452 2.031 . S
Mg437 O461 2.291 . S
Mg438 O439 1.963 . S
Mg438 O449 1.942 1_455 S
Mg438 O450 1.955 . S
Mg438 O457 1.986 . S
O439 Mg437 1.936 . S
O439 Mg438 1.963 . S
O439 Mg440 1.915 . S
Mg440 O439 1.915 . S
Mg440 O441 1.915 . S
Mg440 O445 2.013 . S
Mg440 O451 2.114 . S
Mg440 O455 2.013 . S
Mg440 O461 2.114 . S
O441 Mg440 1.915 . S
O441 Mg442 1.936 . S
O441 Mg443 1.963 . S
Mg442 O441 1.936 . S
Mg442 O451 2.291 . S
Mg442 O456 2.081 . S
Mg442 O458 2.023 . S
Mg442 O462 2.031 . S
Mg443 O441 1.963 . S
Mg443 O447 1.986 . S
Mg443 O459 1.942 . S
Mg443 O460 1.955 . S
C444 O455 1.191 . S
C444 O457 1.307 . S
O445 Mg440 2.013 . S
O445 C464 1.191 . S
O446 Mg437 2.081 1_655 S
O446 C454 1.331 . S
O447 Mg443 1.986 . S
O447 C464 1.307 . S
O448 Mg437 2.023 . S
O448 C463 1.264 . S
O449 Mg438 1.942 1_655 S
O449 C454 1.244 . S
O450 Mg438 1.955 . S
O450 C463 1.273 . S
O451 Mg440 2.114 . S
O451 Mg442 2.291 . S
O451 C453 1.312 . S
O452 Mg437 2.031 . S
O452 C453 1.208 . S
C453 O451 1.312 . S
C453 O452 1.208 . S
C454 O446 1.331 . S
C454 O449 1.244 . S
O455 Mg440 2.013 . S
O455 C444 1.191 . S
O456 C435 1.331 . S
O456 Mg442 2.081 . S
O457 Mg438 1.986 . S
O457 C444 1.307 . S
O458 C436 1.264 . S
O458 Mg442 2.023 . S
O459 C435 1.244 . S
O459 Mg443 1.942 . S
O460 C436 1.273 . S
O460 Mg443 1.955 . S
O461 C434 1.312 . S
O461 Mg437 2.291 . S
O461 Mg440 2.114 . S
O462 C434 1.208 . S
O462 Mg442 2.031 . S
C463 O448 1.264 . S
C463 O450 1.273 . S
C464 O445 1.191 . S
C464 O447 1.307 . S
C465 O492 1.312 . S
C465 O493 1.208 . S
C466 O487 1.331 . S
C466 O490 1.244 . S
C467 O489 1.264 . S
C467 O491 1.273 . S
Mg468 O470 1.936 . S
Mg468 O477 2.081 . S
Mg468 O479 2.023 . S
Mg468 O483 2.031 . S
Mg468 O492 2.291 . S
Mg469 O470 1.963 . S
Mg469 O480 1.942 . S
Mg469 O481 1.955 . S
Mg469 O488 1.986 . S
O470 Mg468 1.936 . S
O470 Mg469 1.963 . S
O470 Mg471 1.915 . S
Mg471 O470 1.915 . S
Mg471 O472 1.915 . S
Mg471 O476 2.013 . S
Mg471 O482 2.114 . S
Mg471 O486 2.013 . S
Mg471 O492 2.114 . S
O472 Mg471 1.915 . S
O472 Mg473 1.936 . S
O472 Mg474 1.963 . S
Mg473 O472 1.936 . S
Mg473 O482 2.291 . S
Mg473 O487 2.081 1_565 S
Mg473 O489 2.023 . S
Mg473 O493 2.031 . S
Mg474 O472 1.963 . S
Mg474 O478 1.986 . S
Mg474 O490 1.942 1_565 S
Mg474 O491 1.955 . S
C475 O486 1.191 . S
C475 O488 1.307 . S
O476 Mg471 2.013 . S
O476 C495 1.191 . S
O477 Mg468 2.081 . S
O477 C485 1.331 . S
O478 Mg474 1.986 . S
O478 C495 1.307 . S
O479 Mg468 2.023 . S
O479 C494 1.264 . S
O480 Mg469 1.942 . S
O480 C485 1.244 . S
O481 Mg469 1.955 . S
O481 C494 1.273 . S
O482 Mg471 2.114 . S
O482 Mg473 2.291 . S
O482 C484 1.312 . S
O483 Mg468 2.031 . S
O483 C484 1.208 . S
C484 O482 1.312 . S
C484 O483 1.208 . S
C485 O477 1.331 . S
C485 O480 1.244 . S
O486 Mg471 2.013 . S
O486 C475 1.191 . S
O487 C466 1.331 . S
O487 Mg473 2.081 1_545 S
O488 Mg469 1.986 . S
O488 C475 1.307 . S
O489 C467 1.264 . S
O489 Mg473 2.023 . S
O490 C466 1.244 . S
O490 Mg474 1.942 1_545 S
O491 C467 1.273 . S
O491 Mg474 1.955 . S
O492 C465 1.312 . S
O492 Mg468 2.291 . S
O492 Mg471 2.114 . S
O493 C465 1.208 . S
O493 Mg473 2.031 . S
C494 O479 1.264 . S
C494 O481 1.273 . S
C495 O476 1.191 . S
C495 O478 1.307 . S
C496 O523 1.312 . S
C496 O524 1.208 . S
C497 O518 1.331 . S
C497 O521 1.244 1_655 S
C498 O520 1.264 1_455 S
C498 O522 1.273 . S
Mg499 O501 1.936 . S
Mg499 O508 2.081 . S
Mg499 O510 2.023 . S
Mg499 O514 2.031 . S
Mg499 O523 2.291 . S
Mg500 O501 1.963 . S
Mg500 O511 1.942 . S
Mg500 O512 1.955 . S
Mg500 O519 1.986 . S
O501 Mg499 1.936 . S
O501 Mg500 1.963 . S
O501 Mg502 1.915 . S
Mg502 O501 1.915 . S
Mg502 O503 1.915 . S
Mg502 O507 2.013 . S
Mg502 O513 2.114 . S
Mg502 O517 2.013 . S
Mg502 O523 2.114 . S
O503 Mg502 1.915 . S
O503 Mg504 1.936 . S
O503 Mg505 1.963 1_655 S
Mg504 O503 1.936 . S
Mg504 O513 2.291 . S
Mg504 O518 2.081 1_545 S
Mg504 O520 2.023 . S
Mg504 O524 2.031 . S
Mg505 O503 1.963 1_455 S
Mg505 O509 1.986 1_455 S
Mg505 O521 1.942 1_545 S
Mg505 O522 1.955 . S
C506 O517 1.191 . S
C506 O519 1.307 . S
O507 Mg502 2.013 . S
O507 C526 1.191 . S
O508 Mg499 2.081 . S
O508 C516 1.331 . S
O509 Mg505 1.986 1_655 S
O509 C526 1.307 . S
O510 Mg499 2.023 . S
O510 C525 1.264 . S
O511 Mg500 1.942 . S
O511 C516 1.244 . S
O512 Mg500 1.955 . S
O512 C525 1.273 . S
O513 Mg502 2.114 . S
O513 Mg504 2.291 . S
O513 C515 1.312 . S
O514 Mg499 2.031 . S
O514 C515 1.208 . S
C515 O513 1.312 . S
C515 O514 1.208 . S
C516 O508 1.331 . S
C516 O511 1.244 . S
O517 Mg502 2.013 . S
O517 C506 1.191 . S
O518 C497 1.331 . S
O518 Mg504 2.081 1_565 S
O519 Mg500 1.986 . S
O519 C506 1.307 . S
O520 C498 1.264 1_655 S
O520 Mg504 2.023 . S
O521 C497 1.244 1_455 S
O521 Mg505 1.942 1_565 S
O522 C498 1.273 . S
O522 Mg505 1.955 . S
O523 C496 1.312 . S
O523 Mg499 2.291 . S
O523 Mg502 2.114 . S
O524 C496 1.208 . S
O524 Mg504 2.031 . S
C525 O510 1.264 . S
C525 O512 1.273 . S
C526 O507 1.191 . S
C526 O509 1.307 . S
C527 O554 1.312 . S
C527 O555 1.208 . S
C528 O549 1.331 . S
C528 O552 1.244 . S
C529 O551 1.264 . S
C529 O553 1.273 . S
Mg530 O532 1.936 . S
Mg530 O539 2.081 1_545 S
Mg530 O541 2.023 . S
Mg530 O545 2.031 . S
Mg530 O554 2.291 . S
Mg531 O532 1.963 . S
Mg531 O542 1.942 1_545 S
Mg531 O543 1.955 . S
Mg531 O550 1.986 . S
O532 Mg530 1.936 . S
O532 Mg531 1.963 . S
O532 Mg533 1.915 . S
Mg533 O532 1.915 . S
Mg533 O534 1.915 . S
Mg533 O538 2.013 . S
Mg533 O544 2.114 . S
Mg533 O548 2.013 . S
Mg533 O554 2.114 . S
O534 Mg533 1.915 . S
O534 Mg535 1.936 . S
O534 Mg536 1.963 . S
Mg535 O534 1.936 . S
Mg535 O544 2.291 . S
Mg535 O549 2.081 . S
Mg535 O551 2.023 . S
Mg535 O555 2.031 . S
Mg536 O534 1.963 . S
Mg536 O540 1.986 . S
Mg536 O552 1.942 . S
Mg536 O553 1.955 . S
C537 O548 1.191 . S
C537 O550 1.307 . S
O538 Mg533 2.013 . S
O538 C557 1.191 . S
O539 Mg530 2.081 1_565 S
O539 C547 1.331 . S
O540 Mg536 1.986 . S
O540 C557 1.307 . S
O541 Mg530 2.023 . S
O541 C556 1.264 . S
O542 Mg531 1.942 1_565 S
O542 C547 1.244 . S
O543 Mg531 1.955 . S
O543 C556 1.273 . S
O544 Mg533 2.114 . S
O544 Mg535 2.291 . S
O544 C546 1.312 . S
O545 Mg530 2.031 . S
O545 C546 1.208 . S
C546 O544 1.312 . S
C546 O545 1.208 . S
C547 O539 1.331 . S
C547 O542 1.244 . S
O548 Mg533 2.013 . S
O548 C537 1.191 . S
O549 C528 1.331 . S
O549 Mg535 2.081 . S
O550 Mg531 1.986 . S
O550 C537 1.307 . S
O551 C529 1.264 . S
O551 Mg535 2.023 . S
O552 C528 1.244 . S
O552 Mg536 1.942 . S
O553 C529 1.273 . S
O553 Mg536 1.955 . S
O554 C527 1.312 . S
O554 Mg530 2.291 . S
O554 Mg533 2.114 . S
O555 C527 1.208 . S
O555 Mg535 2.031 . S
C556 O541 1.264 . S
C556 O543 1.273 . S
C557 O538 1.191 . S
C557 O540 1.307 . S
C558 O585 1.312 . S
C558 O586 1.208 . S
C559 O580 1.331 . S
C559 O583 1.244 . S
C560 O582 1.264 . S
C560 O584 1.273 . S
Mg561 O563 1.936 . S
Mg561 O570 2.081 1_455 S
Mg561 O572 2.023 . S
Mg561 O576 2.031 . S
Mg561 O585 2.291 . S
Mg562 O563 1.963 1_554 S
Mg562 O573 1.942 1_455 S
Mg562 O574 1.955 . S
Mg562 O581 1.986 1_554 S
O563 Mg561 1.936 . S
O563 Mg562 1.963 1_556 S
O563 Mg564 1.915 . S
Mg564 O563 1.915 . S
Mg564 O565 1.915 . S
Mg564 O569 2.013 . S
Mg564 O575 2.114 . S
Mg564 O579 2.013 . S
Mg564 O585 2.114 . S
O565 Mg564 1.915 . S
O565 Mg566 1.936 . S
O565 Mg567 1.963 . S
Mg566 O565 1.936 . S
Mg566 O575 2.291 . S
Mg566 O580 2.081 . S
Mg566 O582 2.023 . S
Mg566 O586 2.031 . S
Mg567 O565 1.963 . S
Mg567 O571 1.986 . S
Mg567 O583 1.942 . S
Mg567 O584 1.955 . S
C568 O579 1.191 . S
C568 O581 1.307 . S
O569 Mg564 2.013 . S
O569 C588 1.191 . S
O570 Mg561 2.081 1_655 S
O570 C578 1.331 . S
O571 Mg567 1.986 . S
O571 C588 1.307 . S
O572 Mg561 2.023 . S
O572 C587 1.264 1_556 S
O573 Mg562 1.942 1_655 S
O573 C578 1.244 1_554 S
O574 Mg562 1.955 . S
O574 C587 1.273 . S
O575 Mg564 2.114 . S
O575 Mg566 2.291 . S
O575 C577 1.312 . S
O576 Mg561 2.031 . S
O576 C577 1.208 . S
C577 O575 1.312 . S
C577 O576 1.208 . S
C578 O570 1.331 . S
C578 O573 1.244 1_556 S
O579 Mg564 2.013 . S
O579 C568 1.191 . S
O580 C559 1.331 . S
O580 Mg566 2.081 . S
O581 Mg562 1.986 1_556 S
O581 C568 1.307 . S
O582 C560 1.264 . S
O582 Mg566 2.023 . S
O583 C559 1.244 . S
O583 Mg567 1.942 . S
O584 C560 1.273 . S
O584 Mg567 1.955 . S
O585 C558 1.312 . S
O585 Mg561 2.291 . S
O585 Mg564 2.114 . S
O586 C558 1.208 . S
O586 Mg566 2.031 . S
C587 O572 1.264 1_554 S
C587 O574 1.273 . S
C588 O569 1.191 . S
C588 O571 1.307 . S
C589 O616 1.312 . S
C589 O617 1.208 . S
C590 O611 1.331 . S
C590 O614 1.244 . S
C591 O613 1.264 . S
C591 O615 1.273 . S
Mg592 O594 1.936 . S
Mg592 O601 2.081 . S
Mg592 O603 2.023 . S
Mg592 O607 2.031 . S
Mg592 O616 2.291 . S
Mg593 O594 1.963 . S
Mg593 O604 1.942 . S
Mg593 O605 1.955 . S
Mg593 O612 1.986 . S
O594 Mg592 1.936 . S
O594 Mg593 1.963 . S
O594 Mg595 1.915 . S
Mg595 O594 1.915 . S
Mg595 O596 1.915 . S
Mg595 O600 2.013 . S
Mg595 O606 2.114 . S
Mg595 O610 2.013 . S
Mg595 O616 2.114 . S
O596 Mg595 1.915 . S
O596 Mg597 1.936 . S
O596 Mg598 1.963 . S
Mg597 O596 1.936 . S
Mg597 O606 2.291 . S
Mg597 O611 2.081 . S
Mg597 O613 2.023 . S
Mg597 O617 2.031 . S
Mg598 O596 1.963 . S
Mg598 O602 1.986 . S
Mg598 O614 1.942 . S
Mg598 O615 1.955 . S
C599 O610 1.191 . S
C599 O612 1.307 . S
O600 Mg595 2.013 . S
O600 C619 1.191 . S
O601 Mg592 2.081 . S
O601 C609 1.331 . S
O602 Mg598 1.986 . S
O602 C619 1.307 . S
O603 Mg592 2.023 . S
O603 C618 1.264 . S
O604 Mg593 1.942 . S
O604 C609 1.244 . S
O605 Mg593 1.955 . S
O605 C618 1.273 . S
O606 Mg595 2.114 . S
O606 Mg597 2.291 . S
O606 C608 1.312 . S
O607 Mg592 2.031 . S
O607 C608 1.208 . S
C608 O606 1.312 . S
C608 O607 1.208 . S
C609 O601 1.331 . S
C609 O604 1.244 . S
O610 Mg595 2.013 . S
O610 C599 1.191 . S
O611 C590 1.331 . S
O611 Mg597 2.081 . S
O612 Mg593 1.986 . S
O612 C599 1.307 . S
O613 C591 1.264 . S
O613 Mg597 2.023 . S
O614 C590 1.244 . S
O614 Mg598 1.942 . S
O615 C591 1.273 . S
O615 Mg598 1.955 . S
O616 C589 1.312 . S
O616 Mg592 2.291 . S
O616 Mg595 2.114 . S
O617 C589 1.208 . S
O617 Mg597 2.031 . S
C618 O603 1.264 . S
C618 O605 1.273 . S
C619 O600 1.191 . S
C619 O602 1.307 . S
C620 O647 1.312 . S
C620 O648 1.208 . S
C621 O642 1.331 . S
C621 O645 1.244 . S
C622 O644 1.264 . S
C622 O646 1.273 . S
Mg623 O625 1.936 . S
Mg623 O632 2.081 . S
Mg623 O634 2.023 . S
Mg623 O638 2.031 . S
Mg623 O647 2.291 . S
Mg624 O625 1.963 . S
Mg624 O635 1.942 . S
Mg624 O636 1.955 . S
Mg624 O643 1.986 . S
O625 Mg623 1.936 . S
O625 Mg624 1.963 . S
O625 Mg626 1.915 . S
Mg626 O625 1.915 . S
Mg626 O627 1.915 . S
Mg626 O631 2.013 . S
Mg626 O637 2.114 . S
Mg626 O641 2.013 . S
Mg626 O647 2.114 . S
O627 Mg626 1.915 . S
O627 Mg628 1.936 . S
O627 Mg629 1.963 . S
Mg628 O627 1.936 . S
Mg628 O637 2.291 . S
Mg628 O642 2.081 1_556 S
Mg628 O644 2.023 . S
Mg628 O648 2.031 . S
Mg629 O627 1.963 . S
Mg629 O633 1.986 . S
Mg629 O645 1.942 1_556 S
Mg629 O646 1.955 . S
C630 O641 1.191 . S
C630 O643 1.307 . S
O631 Mg626 2.013 . S
O631 C650 1.191 . S
O632 Mg623 2.081 . S
O632 C640 1.331 . S
O633 Mg629 1.986 . S
O633 C650 1.307 . S
O634 Mg623 2.023 . S
O634 C649 1.264 . S
O635 Mg624 1.942 . S
O635 C640 1.244 . S
O636 Mg624 1.955 . S
O636 C649 1.273 . S
O637 Mg626 2.114 . S
O637 Mg628 2.291 . S
O637 C639 1.312 . S
O638 Mg623 2.031 . S
O638 C639 1.208 . S
C639 O637 1.312 . S
C639 O638 1.208 . S
C640 O632 1.331 . S
C640 O635 1.244 . S
O641 Mg626 2.013 . S
O641 C630 1.191 . S
O642 C621 1.331 . S
O642 Mg628 2.081 1_554 S
O643 Mg624 1.986 . S
O643 C630 1.307 . S
O644 C622 1.264 . S
O644 Mg628 2.023 . S
O645 C621 1.244 . S
O645 Mg629 1.942 1_554 S
O646 C622 1.273 . S
O646 Mg629 1.955 . S
O647 C620 1.312 . S
O647 Mg623 2.291 . S
O647 Mg626 2.114 . S
O648 C620 1.208 . S
O648 Mg628 2.031 . S
C649 O634 1.264 . S
C649 O636 1.273 . S
C650 O631 1.191 . S
C650 O633 1.307 . S
C651 O678 1.312 . S
C651 O679 1.208 . S
C652 O673 1.331 . S
C652 O676 1.244 . S
C653 O675 1.264 . S
C653 O677 1.273 . S
Mg654 O656 1.936 . S
Mg654 O663 2.081 1_554 S
Mg654 O665 2.023 . S
Mg654 O669 2.031 . S
Mg654 O678 2.291 . S
Mg655 O656 1.963 . S
Mg655 O666 1.942 1_554 S
Mg655 O667 1.955 . S
Mg655 O674 1.986 . S
O656 Mg654 1.936 . S
O656 Mg655 1.963 . S
O656 Mg657 1.915 . S
Mg657 O656 1.915 . S
Mg657 O658 1.915 . S
Mg657 O662 2.013 . S
Mg657 O668 2.114 . S
Mg657 O672 2.013 . S
Mg657 O678 2.114 . S
O658 Mg657 1.915 . S
O658 Mg659 1.936 . S
O658 Mg660 1.963 . S
Mg659 O658 1.936 . S
Mg659 O668 2.291 . S
Mg659 O673 2.081 . S
Mg659 O675 2.023 . S
Mg659 O679 2.031 . S
Mg660 O658 1.963 . S
Mg660 O664 1.986 . S
Mg660 O676 1.942 . S
Mg660 O677 1.955 . S
C661 O672 1.191 . S
C661 O674 1.307 . S
O662 Mg657 2.013 . S
O662 C681 1.191 . S
O663 Mg654 2.081 1_556 S
O663 C671 1.331 . S
O664 Mg660 1.986 . S
O664 C681 1.307 . S
O665 Mg654 2.023 . S
O665 C680 1.264 . S
O666 Mg655 1.942 1_556 S
O666 C671 1.244 . S
O667 Mg655 1.955 . S
O667 C680 1.273 . S
O668 Mg657 2.114 . S
O668 Mg659 2.291 . S
O668 C670 1.312 . S
O669 Mg654 2.031 . S
O669 C670 1.208 . S
C670 O668 1.312 . S
C670 O669 1.208 . S
C671 O663 1.331 . S
C671 O666 1.244 . S
O672 Mg657 2.013 . S
O672 C661 1.191 . S
O673 C652 1.331 . S
O673 Mg659 2.081 . S
O674 Mg655 1.986 . S
O674 C661 1.307 . S
O675 C653 1.264 . S
O675 Mg659 2.023 . S
O676 C652 1.244 . S
O676 Mg660 1.942 . S
O677 C653 1.273 . S
O677 Mg660 1.955 . S
O678 C651 1.312 . S
O678 Mg654 2.291 . S
O678 Mg657 2.114 . S
O679 C651 1.208 . S
O679 Mg659 2.031 . S
C680 O665 1.264 . S
C680 O667 1.273 . S
C681 O662 1.191 . S
C681 O664 1.307 . S
C682 O709 1.312 . S
C682 O710 1.208 . S
C683 O704 1.331 . S
C683 O707 1.244 . S
C684 O706 1.264 . S
C684 O708 1.273 . S
Mg685 O687 1.936 . S
Mg685 O694 2.081 . S
Mg685 O696 2.023 . S
Mg685 O700 2.031 . S
Mg685 O709 2.291 . S
Mg686 O687 1.963 . S
Mg686 O697 1.942 . S
Mg686 O698 1.955 . S
Mg686 O705 1.986 . S
O687 Mg685 1.936 . S
O687 Mg686 1.963 . S
O687 Mg688 1.915 . S
Mg688 O687 1.915 . S
Mg688 O689 1.915 . S
Mg688 O693 2.013 . S
Mg688 O699 2.114 . S
Mg688 O703 2.013 . S
Mg688 O709 2.114 . S
O689 Mg688 1.915 . S
O689 Mg690 1.936 . S
O689 Mg691 1.963 . S
Mg690 O689 1.936 . S
Mg690 O699 2.291 . S
Mg690 O704 2.081 . S
Mg690 O706 2.023 . S
Mg690 O710 2.031 . S
Mg691 O689 1.963 . S
Mg691 O695 1.986 . S
Mg691 O707 1.942 . S
Mg691 O708 1.955 . S
C692 O703 1.191 . S
C692 O705 1.307 . S
O693 Mg688 2.013 . S
O693 C712 1.191 . S
O694 Mg685 2.081 . S
O694 C702 1.331 . S
O695 Mg691 1.986 . S
O695 C712 1.307 . S
O696 Mg685 2.023 . S
O696 C711 1.264 . S
O697 Mg686 1.942 . S
O697 C702 1.244 . S
O698 Mg686 1.955 . S
O698 C711 1.273 . S
O699 Mg688 2.114 . S
O699 Mg690 2.291 . S
O699 C701 1.312 . S
O700 Mg685 2.031 . S
O700 C701 1.208 . S
C701 O699 1.312 . S
C701 O700 1.208 . S
C702 O694 1.331 . S
C702 O697 1.244 . S
O703 Mg688 2.013 . S
O703 C692 1.191 . S
O704 C683 1.331 . S
O704 Mg690 2.081 . S
O705 Mg686 1.986 . S
O705 C692 1.307 . S
O706 C684 1.264 . S
O706 Mg690 2.023 . S
O707 C683 1.244 . S
O707 Mg691 1.942 . S
O708 C684 1.273 . S
O708 Mg691 1.955 . S
O709 C682 1.312 . S
O709 Mg685 2.291 . S
O709 Mg688 2.114 . S
O710 C682 1.208 . S
O710 Mg690 2.031 . S
C711 O696 1.264 . S
C711 O698 1.273 . S
C712 O693 1.191 . S
C712 O695 1.307 . S
C713 O740 1.312 . S
C713 O741 1.208 . S
C714 O735 1.331 . S
C714 O738 1.244 . S
C715 O737 1.264 . S
C715 O739 1.273 . S
Mg716 O718 1.936 . S
Mg716 O725 2.081 . S
Mg716 O727 2.023 . S
Mg716 O731 2.031 . S
Mg716 O740 2.291 . S
Mg717 O718 1.963 . S
Mg717 O728 1.942 . S
Mg717 O729 1.955 . S
Mg717 O736 1.986 . S
O718 Mg716 1.936 . S
O718 Mg717 1.963 . S
O718 Mg719 1.915 . S
Mg719 O718 1.915 . S
Mg719 O720 1.915 . S
Mg719 O724 2.013 . S
Mg719 O730 2.114 . S
Mg719 O734 2.013 . S
Mg719 O740 2.114 . S
O720 Mg719 1.915 . S
O720 Mg721 1.936 . S
O720 Mg722 1.963 . S
Mg721 O720 1.936 . S
Mg721 O730 2.291 . S
Mg721 O735 2.081 . S
Mg721 O737 2.023 . S
Mg721 O741 2.031 . S
Mg722 O720 1.963 . S
Mg722 O726 1.986 . S
Mg722 O738 1.942 . S
Mg722 O739 1.955 . S
C723 O734 1.191 . S
C723 O736 1.307 . S
O724 Mg719 2.013 . S
O724 C743 1.191 . S
O725 Mg716 2.081 . S
O725 C733 1.331 . S
O726 Mg722 1.986 . S
O726 C743 1.307 . S
O727 Mg716 2.023 . S
O727 C742 1.264 . S
O728 Mg717 1.942 . S
O728 C733 1.244 . S
O729 Mg717 1.955 . S
O729 C742 1.273 . S
O730 Mg719 2.114 . S
O730 Mg721 2.291 . S
O730 C732 1.312 . S
O731 Mg716 2.031 . S
O731 C732 1.208 . S
C732 O730 1.312 . S
C732 O731 1.208 . S
C733 O725 1.331 . S
C733 O728 1.244 . S
O734 Mg719 2.013 . S
O734 C723 1.191 . S
O735 C714 1.331 . S
O735 Mg721 2.081 . S
O736 Mg717 1.986 . S
O736 C723 1.307 . S
O737 C715 1.264 . S
O737 Mg721 2.023 . S
O738 C714 1.244 . S
O738 Mg722 1.942 . S
O739 C715 1.273 . S
O739 Mg722 1.955 . S
O740 C713 1.312 . S
O740 Mg716 2.291 . S
O740 Mg719 2.114 . S
O741 C713 1.208 . S
O741 Mg721 2.031 . S
C742 O727 1.264 . S
C742 O729 1.273 . S
C743 O724 1.191 . S
C743 O726 1.307 . S
C1 C277 2.001 . S
C51 C308 2.001 . S
C339 C82 2.001 . S
C370 C113 2.001 . S
C144 C343 2.001 . S
C175 C250 2.001 . S
C187 C281 2.001 . S
C312 C218 2.001 . S
C374 C268 2.001 . S
C299 C498 2.001 . S
C330 C436 2.001 . S
C467 C361 2.001 . S
C342 C618 2.001 . S
C556 C249 2.001 . S
C280 C560 2.001 . S
C432 C311 2.001 . S
C373 C2 2.001 . S
C237 C529 2.001 . S
C587 C125 2.001 . S
C405 C156 2.001 . S
C219 C423 2.001 . S
C91 C435 2.001 . S
C463 C20 2.001 . S
C401 C63 2.001 . S
C485 C649 2.001 . S
C392 C680 2.001 . S
C684 C516 2.001 . S
C454 C742 2.001 . S
C715 C528 2.001 . S
C622 C578 2.001 . S
C404 C653 2.001 . S
C711 C590 2.001 . S
C33 C640 2.001 . S
C671 C64 2.001 . S
C95 C683 2.001 . S
C29 C733 2.001 . S
C714 C246 2.001 . S
C621 C126 2.001 . S
C652 C157 2.001 . S
C702 C215 2.001 . S
C32 C494 2.001 . S
C153 C609 2.001 . S
C547 C184 2.001 . S
C188 C559 2.001 . S
C206 C591 2.001 . S
C94 C525 2.001 . S
C466 C122 2.001 . S
C497 C60 2.001 . S
C0 C298 3.950 . S
C329 C50 3.950 1_455 S
C360 C81 3.950 1_554 S
C267 C112 3.950 . S
C310 C143 3.950 1_556 S
C341 C174 3.950 . S
C248 C186 3.950 . S
C217 C279 3.950 1_655 S
C124 C372 3.950 . S
C236 C465 3.950 1_545 S
C496 C155 3.950 1_545 S
C422 C93 3.950 1_565 S
C205 C434 3.950 . S
C19 C608 3.950 . S
C558 C62 3.950 . S
C670 C484 3.950 1_554 S
C682 C391 3.950 . S
C515 C732 3.950 . S
C639 C453 3.950 1_655 S
C701 C527 3.950 . S
C713 C577 3.950 1_655 S
C403 C620 3.950 1_554 S
C651 C589 3.950 . S
C31 C546 3.950 1_565 S
C154 C10 2.336 . S
C185 C61 2.336 . S
C196 C92 2.336 . S
C227 C123 2.336 1_556 S
C289 C278 2.336 . S
C320 C309 2.336 1_565 S
C340 C351 2.336 1_556 S
C258 C371 2.336 1_545 S
C382 C103 2.336 . S
C247 C568 2.336 1_655 S
C433 C134 2.336 1_655 S
C165 C619 2.336 . S
C41 C444 2.336 1_655 S
C30 C506 2.336 1_455 S
C72 C475 2.336 . S
C537 C495 2.336 1_545 S
C402 C588 2.336 1_554 S
C413 C526 2.336 1_565 S
C464 C599 2.336 . S
C661 C650 2.336 1_554 S
C712 C681 2.336 . S
C723 C692 2.336 . S
C743 C630 2.336 . S
C216 C557 2.336 . S
