# Generated by pormake.
# Topology afw, (4)-cn, num edge types: 1
# Building blocks:
#     Node 0, Type 0, BuildingBlock: NAHDIM_clean_sbu_0, # of connection points: 4
#     Node 1, Type 0, BuildingBlock: NAHDIM_clean_sbu_0, # of connection points: 4
#     Node 2, Type 0, BuildingBlock: NAHDIM_clean_sbu_0, # of connection points: 4
#     Node 3, Type 0, BuildingBlock: NAHDIM_clean_sbu_0, # of connection points: 4
#     Node 4, Type 0, BuildingBlock: NAHDIM_clean_sbu_0, # of connection points: 4
#     Node 5, Type 0, BuildingBlock: NAHDIM_clean_sbu_0, # of connection points: 4
#     Node 6, Type 0, BuildingBlock: NAHDIM_clean_sbu_0, # of connection points: 4
#     Node 7, Type 0, BuildingBlock: NAHDIM_clean_sbu_0, # of connection points: 4
#     Node 8, Type 0, BuildingBlock: NAHDIM_clean_sbu_0, # of connection points: 4
#     Edge 9, Type (0, 0), BuildingBlock: CIFDUS_clean_linker_0, # of connection points: 2
#     Edge 10, Type (0, 0), BuildingBlock: CIFDUS_clean_linker_0, # of connection points: 2
#     Edge 11, Type (0, 0), BuildingBlock: CIFDUS_clean_linker_0, # of connection points: 2
#     Edge 12, Type (0, 0), BuildingBlock: CIFDUS_clean_linker_0, # of connection points: 2
#     Edge 13, Type (0, 0), BuildingBlock: CIFDUS_clean_linker_0, # of connection points: 2
#     Edge 14, Type (0, 0), BuildingBlock: CIFDUS_clean_linker_0, # of connection points: 2
#     Edge 15, Type (0, 0), BuildingBlock: CIFDUS_clean_linker_0, # of connection points: 2
#     Edge 16, Type (0, 0), BuildingBlock: CIFDUS_clean_linker_0, # of connection points: 2
#     Edge 17, Type (0, 0), BuildingBlock: CIFDUS_clean_linker_0, # of connection points: 2
#     Edge 18, Type (0, 0), BuildingBlock: CIFDUS_clean_linker_0, # of connection points: 2
#     Edge 19, Type (0, 0), BuildingBlock: CIFDUS_clean_linker_0, # of connection points: 2
#     Edge 20, Type (0, 0), BuildingBlock: CIFDUS_clean_linker_0, # of connection points: 2
#     Edge 21, Type (0, 0), BuildingBlock: CIFDUS_clean_linker_0, # of connection points: 2
#     Edge 22, Type (0, 0), BuildingBlock: CIFDUS_clean_linker_0, # of connection points: 2
#     Edge 23, Type (0, 0), BuildingBlock: CIFDUS_clean_linker_0, # of connection points: 2
#     Edge 24, Type (0, 0), BuildingBlock: CIFDUS_clean_linker_0, # of connection points: 2
#     Edge 25, Type (0, 0), BuildingBlock: CIFDUS_clean_linker_0, # of connection points: 2
#     Edge 26, Type (0, 0), BuildingBlock: CIFDUS_clean_linker_0, # of connection points: 2
# Relax obj value: 0.263
# Max RMSD: 0.264
# Mean RMSD: 0.246
data_MOF--net-afw--node1-NAHDIM_clean_sbu_0--edge1-CIFDUS_clean_linker_0
_symmetry_space_group_name_H-M    P1
_symmetry_Int_Tables_number       1
_symmetry_cell_setting            triclinic
loop_
_symmetry_equiv_pos_as_xyz
'x, y, z'
_cell_length_a     34.257919
_cell_length_b     36.36957
_cell_length_c     30.9419
_cell_angle_alpha  92.157318
_cell_angle_beta   90.799311
_cell_angle_gamma 118.60616
loop_
_atom_site_label
_atom_site_type_symbol
_atom_site_fract_x
_atom_site_fract_y
_atom_site_fract_z
_atom_type_partial_charge
C0 C 0.03815 0.26814 0.93326 0.0
O1 O 0.05876 0.29014 0.96891 0.0
O2 O 0.05695 0.20033 0.01108 0.0
Zn3 Zn 0.00091 0.20098 -0.00847 0.0
O4 O 0.98177 0.22992 0.03633 0.0
C5 C 0.92659 0.11897 0.00981 0.0
O6 O 0.92433 0.13772 0.04602 0.0
O7 O 0.01092 0.22934 0.9353 0.0
C8 C 0.98759 0.22646 0.07628 0.0
O9 O 0.00751 0.20497 0.08775 0.0
C10 C 0.07927 0.19317 0.98267 0.0
O11 O 0.06679 0.18963 0.9417 0.0
O12 O 0.95466 0.14021 0.98208 0.0
C13 C 0.81402 0.73194 0.03399 0.0
O14 O 0.82897 0.72069 -0.00012 0.0
O15 O 0.91513 0.82502 -0.00805 0.0
Zn16 Zn 0.84933 0.80553 -0.01176 0.0
O17 O 0.8168 0.77361 0.93317 0.0
C18 C 0.85749 0.88035 0.95874 0.0
O19 O 0.87028 0.86577 0.9255 0.0
O20 O 0.81949 0.76905 0.03744 0.0
C21 C 0.83075 0.77114 0.89591 0.0
O22 O 0.87365 0.79054 0.88938 0.0
C23 C 0.93959 0.81015 0.97777 0.0
O24 O 0.92179 0.77424 0.95514 0.0
O25 O 0.84456 0.85861 -0.00803 0.0
C26 C 0.32795 0.00819 0.9484 0.0
O27 O 0.32374 0.98888 0.98448 0.0
O28 O 0.21573 0.9831 -0.00601 0.0
Zn29 Zn 0.27385 0.03711 -0.00744 0.0
O30 O 0.30728 0.05147 0.05031 0.0
C31 C 0.24009 0.09437 0.00875 0.0
O32 O 0.23719 0.08042 0.04777 0.0
O33 O 0.3106 0.03203 0.94506 0.0
C34 C 0.28927 0.03147 0.08364 0.0
O35 O 0.24851 8e-05 0.08005 0.0
C36 C 0.20092 0.95425 0.96408 0.0
O37 O 0.22526 0.95784 0.93046 0.0
O38 O 0.25685 0.0815 0.97934 0.0
C39 C 0.68617 0.59492 0.23199 0.0
O40 O 0.67413 0.60645 0.26792 0.0
O41 O 0.70395 0.49159 0.27662 0.0
Zn42 Zn 0.66556 0.51953 0.27692 0.0
O43 O 0.674 0.55067 0.33445 0.0
C44 C 0.57275 0.46695 0.29714 0.0
O45 O 0.58181 0.49523 0.32879 0.0
O46 O 0.68362 0.55891 0.22848 0.0
C47 C 0.67542 0.53346 0.369 0.0
O48 O 0.67248 0.49606 0.36623 0.0
C49 C 0.74267 0.50794 0.29436 0.0
O50 O 0.75992 0.54576 0.31298 0.0
O51 O 0.60213 0.47268 0.2696 0.0
C52 C 0.38319 0.09155 0.43366 0.0
O53 O 0.38456 0.07416 0.39612 0.0
O54 O 0.49976 0.17879 0.39827 0.0
Zn55 Zn 0.43608 0.16588 0.38902 0.0
O56 O 0.41227 0.13474 0.33121 0.0
C57 C 0.42325 0.23399 0.3571 0.0
O58 O 0.40216 0.20735 0.32434 0.0
O59 O 0.40151 0.13129 0.43803 0.0
C60 C 0.43573 0.14676 0.29795 0.0
O61 O 0.47586 0.17915 0.30201 0.0
C62 C 0.51453 0.15342 0.38938 0.0
O63 O 0.48715 0.11564 0.37295 0.0
O64 O 0.43734 0.22205 0.38906 0.0
C65 C 0.94136 0.34054 0.39449 0.0
O66 O 0.94331 0.35159 0.3543 0.0
O67 O 0.84736 0.34312 0.34465 0.0
Zn68 Zn 0.85413 0.29391 0.36347 0.0
O69 O 0.87142 0.2684 0.3135 0.0
C70 C 0.76961 0.21719 0.36753 0.0
O71 O 0.78563 0.20293 0.33678 0.0
O72 O 0.90399 0.31403 0.40837 0.0
C73 C 0.87862 0.28341 0.27625 0.0
O74 O 0.87204 0.31538 0.26882 0.0
C75 C 0.8585 0.37571 0.36915 0.0
O76 O 0.87687 0.37855 0.40754 0.0
O77 O 0.79425 0.25338 0.38533 0.0
C78 C 0.33476 0.93061 0.61724 0.0
O79 O 0.34239 0.94906 0.65609 0.0
O80 O 0.39479 0.85274 0.63953 0.0
Zn81 Zn 0.34879 0.86797 0.66056 0.0
O82 O 0.36776 0.90455 0.71535 0.0
C83 C 0.28218 0.78358 0.64486 0.0
O84 O 0.29894 0.79159 0.60624 0.0
O85 O 0.33438 0.89559 0.6123 0.0
C86 C 0.37085 0.8894 0.75077 0.0
O87 O 0.36522 0.85101 0.75017 0.0
C88 C 0.43273 0.86217 0.65616 0.0
O89 O 0.44737 0.88689 0.69136 0.0
O90 O 0.29628 0.81319 0.67377 0.0
C91 C 0.13294 0.39889 0.72302 0.0
O92 O 0.12113 0.37357 0.68825 0.0
O93 O 0.24333 0.46471 0.65527 0.0
Zn94 Zn 0.18168 0.45829 0.66059 0.0
O95 O 0.13772 0.4194 0.61398 0.0
C96 C 0.18491 0.54095 0.6794 0.0
O97 O 0.17559 0.53079 0.71969 0.0
O98 O 0.15908 0.43777 0.71944 0.0
C99 C 0.13293 0.43433 0.57902 0.0
O100 O 0.15874 0.47425 0.57272 0.0
C101 C 0.26311 0.47485 0.61974 0.0
O102 O 0.24106 0.47645 0.58546 0.0
O103 O 0.18827 0.51547 0.65252 0.0
C104 C 0.63719 0.6461 0.57661 0.0
O105 O 0.6316 0.62374 0.61064 0.0
O106 O 0.53939 0.63068 0.63589 0.0
Zn107 Zn 0.60047 0.68097 0.63425 0.0
O108 O 0.64027 0.6853 0.68457 0.0
C109 C 0.56297 0.73377 0.61319 0.0
O110 O 0.54094 0.70316 0.58397 0.0
O111 O 0.6271 0.67547 0.57878 0.0
C112 C 0.63026 0.69184 0.72238 0.0
O113 O 0.59324 0.69374 0.72753 0.0
C114 C 0.52434 0.60233 0.66329 0.0
O115 O 0.55023 0.60348 0.69559 0.0
O116 O 0.59232 0.73218 0.63738 0.0
H117 H 0.20133 0.12634 0.06371 0.0
H118 H 0.23021 0.11968 0.92913 0.0
H119 H 0.18617 0.15349 0.90978 0.0
H120 H 0.13375 0.17859 0.93011 0.0
H121 H 0.10381 0.18423 0.0645 0.0
H122 H 0.15442 0.15762 0.08485 0.0
C123 C 0.19845 0.1327 0.03019 0.0
C124 C 0.2186 0.11997 -0.00212 0.0
C125 C 0.17266 0.15176 0.01919 0.0
C126 C 0.21485 0.12888 0.95467 0.0
C127 C 0.18954 0.14812 0.94352 0.0
C128 C 0.13865 0.17448 0.96393 0.0
C129 C 0.11456 0.1829 -0.00436 0.0
C130 C 0.1674 0.1587 0.97537 0.0
C131 C 0.12173 0.17781 0.03936 0.0
C132 C 0.15056 0.16243 0.05103 0.0
H133 H 0.8437 0.92415 0.02492 0.0
H134 H 0.88551 0.93363 0.89289 0.0
H135 H 0.90614 0.0077 0.89565 0.0
H136 H 0.91981 0.07122 0.9377 0.0
H137 H 0.87931 0.06272 0.07005 0.0
H138 H 0.85007 0.98683 0.06469 0.0
C139 C 0.85673 0.94229 -0.00343 0.0
C140 C 0.8637 0.92349 0.95902 0.0
C141 C 0.86903 0.98515 -0.00155 0.0
C142 C 0.88027 0.94736 0.92243 0.0
C143 C 0.89215 0.98981 0.92393 0.0
C144 C 0.90406 0.05273 0.96522 0.0
C145 C 0.90236 0.0727 0.00437 0.0
C146 C 0.88787 0.00925 0.96214 0.0
C147 C 0.8813 0.0482 0.03955 0.0
C148 C 0.86474 0.00478 0.0366 0.0
H149 H 0.00465 0.80713 0.9302 0.0
H150 H 0.98377 0.87055 0.04096 0.0
H151 H 0.06343 0.91821 0.04889 0.0
H152 H 0.138 0.94564 0.02107 0.0
H153 H 0.15952 0.88534 0.90804 0.0
H154 H 0.08089 0.83258 0.90458 0.0
C155 C 0.01769 0.83099 0.95641 0.0
C156 C 0.98833 0.83545 0.98477 0.0
C157 C 0.06363 0.85908 0.96023 0.0
C158 C 0.00563 0.86669 0.01845 0.0
C159 C 0.0512 0.89399 0.02304 0.0
C160 C 0.12569 0.9207 -0.00406 0.0
C161 C 0.15459 0.91966 0.9647 0.0
C162 C 0.08037 0.89107 -0.00642 0.0
C163 C 0.13796 0.88706 0.93238 0.0
C164 C 0.09295 0.85688 0.93033 0.0
H165 H 0.80398 0.37057 0.30199 0.0
H166 H 0.88578 0.45311 0.40833 0.0
H167 H 0.86024 0.50344 0.39184 0.0
H168 H 0.81016 0.52131 0.35089 0.0
H169 H 0.72534 0.43663 0.2473 0.0
H170 H 0.75686 0.39001 0.25886 0.0
C171 C 0.81666 0.39979 0.32127 0.0
C172 C 0.84654 0.40796 0.35649 0.0
C173 C 0.8011 0.42813 0.31224 0.0
C174 C 0.86253 0.44593 0.38119 0.0
C175 C 0.84792 0.47472 0.37181 0.0
C176 C 0.79905 0.49296 0.33045 0.0
C177 C 0.76535 0.48237 0.29841 0.0
C178 C 0.81654 0.46577 0.33795 0.0
C179 C 0.75107 0.44537 0.27237 0.0
C180 C 0.76903 0.41867 0.27897 0.0
H181 H 0.43888 0.27467 0.28264 0.0
H182 H 0.44648 0.29486 0.42146 0.0
H183 H 0.48738 0.37074 0.41413 0.0
H184 H 0.53022 0.43003 0.36899 0.0
H185 H 0.53007 0.40884 0.23088 0.0
H186 H 0.47643 0.33471 0.23699 0.0
C187 C 0.4485 0.29572 0.31123 0.0
C188 C 0.43983 0.27928 0.35255 0.0
C189 C 0.47377 0.33911 0.30682 0.0
C190 C 0.45298 0.30687 0.38934 0.0
C191 C 0.47648 0.3502 0.38515 0.0
C192 C 0.51756 0.40941 0.3401 0.0
C193 C 0.53408 0.42477 0.29953 0.0
C194 C 0.48846 0.36655 0.34415 0.0
C195 C 0.51788 0.39761 0.26245 0.0
C196 C 0.48739 0.35524 0.26598 0.0
H197 H 0.5603 0.11422 0.35925 0.0
H198 H 0.57724 0.22495 0.43184 0.0
H199 H 0.65751 0.252 0.43585 0.0
H200 H 0.72313 0.24726 0.41355 0.0
H201 H 0.70721 0.13852 0.33781 0.0
H202 H 0.62636 0.10739 0.34092 0.0
C203 C 0.58151 0.14405 0.37635 0.0
C204 C 0.56275 0.16767 0.39485 0.0
C205 C 0.62788 0.15985 0.37794 0.0
C206 C 0.59076 0.20627 0.41693 0.0
C207 C 0.63673 0.22179 0.41931 0.0
C208 C 0.70208 0.21643 0.39828 0.0
C209 C 0.72127 0.1954 0.37523 0.0
C210 C 0.6557 0.19927 0.39918 0.0
C211 C 0.69335 0.15551 0.3556 0.0
C212 C 0.64708 0.13774 0.35722 0.0
H213 H 0.50884 0.86556 0.6891 0.0
H214 H 0.41141 0.81085 0.58332 0.0
H215 H 0.44579 0.76917 0.55846 0.0
H216 H 0.49913 0.74353 0.57023 0.0
H217 H 0.59577 0.79668 0.67668 0.0
H218 H 0.56642 0.84393 0.69731 0.0
C219 C 0.49547 0.84493 0.6603 0.0
C220 C 0.45729 0.84108 0.63847 0.0
C221 C 0.5151 0.82052 0.64633 0.0
C222 C 0.44055 0.81427 0.60105 0.0
C223 C 0.46015 0.79031 0.58676 0.0
C224 C 0.51417 0.76577 0.59764 0.0
C225 C 0.54928 0.76619 0.62209 0.0
C226 C 0.49677 0.79245 0.60971 0.0
C227 C 0.56854 0.79548 0.65736 0.0
C228 C 0.55168 0.82246 0.6693 0.0
H229 H 0.25222 0.7133 0.59245 0.0
H230 H 0.25053 0.75514 0.72449 0.0
H231 H 0.21628 0.68278 0.74647 0.0
H232 H 0.19446 0.60851 0.72947 0.0
H233 H 0.19869 0.56798 0.59741 0.0
H234 H 0.2241 0.63881 0.57436 0.0
C235 C 0.24378 0.70662 0.62595 0.0
C236 C 0.25446 0.73967 0.65681 0.0
C237 C 0.22498 0.66511 0.63854 0.0
C238 C 0.24292 0.73032 0.70003 0.0
C239 C 0.22352 0.68894 0.71271 0.0
C240 C 0.20041 0.61509 0.69559 0.0
C241 C 0.19528 0.58305 0.66541 0.0
C242 C 0.21562 0.6562 0.68246 0.0
C243 C 0.20288 0.59209 0.62152 0.0
C244 C 0.21741 0.63264 0.60821 0.0
H245 H 0.32015 0.48181 0.68602 0.0
H246 H 0.31616 0.50734 0.55128 0.0
H247 H 0.3971 0.54642 0.5522 0.0
H248 H 0.46841 0.57942 0.59291 0.0
H249 H 0.47334 0.55426 0.72747 0.0
H250 H 0.39268 0.5087 0.72482 0.0
C251 C 0.33699 0.49537 0.65667 0.0
C252 C 0.31199 0.49212 0.61882 0.0
C253 C 0.38371 0.51823 0.65747 0.0
C254 C 0.33443 0.50958 0.58099 0.0
C255 C 0.3808 0.53212 0.58149 0.0
C256 C 0.4519 0.56366 0.62158 0.0
C257 C 0.47669 0.57068 0.66048 0.0
C258 C 0.40565 0.53766 0.61984 0.0
C259 C 0.45496 0.5495 0.69715 0.0
C260 C 0.40882 0.52356 0.69569 0.0
H261 H 0.09375 0.34988 0.91729 0.0
H262 H 0.00638 0.22946 0.85359 0.0
H263 H 0.02701 0.25975 0.78319 0.0
H264 H 0.07186 0.31946 0.73963 0.0
H265 H 0.15929 0.44011 0.80265 0.0
H266 H 0.13641 0.41064 0.87339 0.0
C267 C 0.07904 0.3303 0.88802 0.0
C268 C 0.04875 0.28741 0.89078 0.0
C269 C 0.09113 0.34789 0.8475 0.0
C270 C 0.02985 0.26255 0.85249 0.0
C271 C 0.04167 0.27981 0.81215 0.0
C272 C 0.08586 0.3394 0.7688 0.0
C273 C 0.11746 0.38184 0.76584 0.0
C274 C 0.07262 0.32229 0.80928 0.0
C275 C 0.13495 0.40729 0.804 0.0
C276 C 0.12195 0.39045 0.84448 0.0
H277 H 0.74137 0.73907 0.89806 0.0
H278 H 0.84665 0.75924 0.81125 0.0
H279 H 0.79287 0.7331 0.74993 0.0
H280 H 0.71693 0.70956 0.72063 0.0
H281 H 0.61315 0.69327 0.80785 0.0
H282 H 0.66556 0.71279 0.86951 0.0
C283 C 0.75266 0.73742 0.86582 0.0
C284 C 0.79807 0.75136 0.85925 0.0
C285 C 0.72185 0.72331 0.83078 0.0
C286 C 0.81193 0.74888 0.81721 0.0
C287 C 0.78121 0.73403 0.78213 0.0
C288 C 0.70569 0.70984 0.75317 0.0
C289 C 0.66126 0.7002 0.75965 0.0
C290 C 0.73623 0.72193 0.78846 0.0
C291 C 0.64722 0.70085 0.80197 0.0
C292 C 0.67716 0.71199 0.83725 0.0
H293 H 0.37045 0.96363 0.76308 0.0
H294 H 0.37656 0.8655 0.83226 0.0
H295 H 0.36903 0.89678 0.90067 0.0
H296 H 0.35214 0.9472 0.93967 0.0
H297 H 0.3428 0.04344 0.86984 0.0
H298 H 0.36066 0.01791 0.803 0.0
C299 C 0.37083 0.9494 0.79315 0.0
C300 C 0.37349 0.91196 0.79245 0.0
C301 C 0.36553 0.96702 0.83228 0.0
C302 C 0.37417 0.89412 0.83179 0.0
C303 C 0.36975 0.91193 0.87096 0.0
C304 C 0.3547 0.96303 0.90999 0.0
C305 C 0.34559 -0.00315 0.9097 0.0
C306 C 0.36407 0.94765 0.87144 0.0
C307 C 0.34925 0.01708 0.87094 0.0
C308 C 0.35937 0.00246 0.83264 0.0
H309 H 0.35577 0.07794 0.279 0.0
H310 H 0.47226 0.17215 0.2195 0.0
H311 H 0.43804 0.14358 0.14785 0.0
H312 H 0.37354 0.09421 0.10217 0.0
H313 H 0.25703 0.00015 0.16183 0.0
H314 H 0.29295 0.02623 0.23326 0.0
C315 C 0.37381 0.09209 0.25038 0.0
C316 C 0.41638 0.12732 0.25466 0.0
C317 C 0.3539 0.07564 0.20926 0.0
C318 C 0.4394 0.14506 0.21719 0.0
C319 C 0.41983 0.12881 0.17616 0.0
C320 C 0.35608 0.07923 0.13076 0.0
C321 C 0.31251 0.04547 0.1266 0.0
C322 C 0.37685 0.09447 0.17182 0.0
C323 C 0.29052 0.02628 0.16402 0.0
C324 C 0.311 0.04121 0.20495 0.0
H325 H 0.9708 0.20386 0.15921 0.0
H326 H 0.9592 0.28425 0.06663 0.0
H327 H 0.9237 0.3085 0.12017 0.0
H328 H 0.89579 0.30662 0.19316 0.0
H329 H 0.90564 0.22453 0.28486 0.0
H330 H 0.94164 0.20094 0.23155 0.0
C331 C 0.9608 0.22692 0.15083 0.0
C332 C 0.96786 0.24244 0.10914 0.0
C333 C 0.93978 0.24016 0.18147 0.0
C334 C 0.95417 0.27187 0.09857 0.0
C335 C 0.93382 0.2857 0.12912 0.0
C336 C 0.90566 0.28346 0.20146 0.0
C337 C 0.89807 0.26745 0.24297 0.0
C338 C 0.92632 0.26994 0.17062 0.0
C339 C 0.91098 0.23735 0.25312 0.0
C340 C 0.93174 0.22392 0.22271 0.0
H341 H 0.72099 0.58275 0.15804 0.0
H342 H 0.69692 0.67432 0.22839 0.0
H343 H 0.73418 0.72483 0.17319 0.0
H344 H 0.77525 0.7435 0.10587 0.0
H345 H 0.79958 0.65162 0.03642 0.0
H346 H 0.76066 0.60083 0.09057 0.0
C347 C 0.72361 0.61366 0.16126 0.0
C348 C 0.70621 0.62471 0.19735 0.0
C349 C 0.74538 0.64262 0.12971 0.0
C350 C 0.71002 0.66496 0.20095 0.0
C351 C 0.73142 0.69392 0.16945 0.0
C352 C 0.77206 0.71238 0.10259 0.0
C353 C 0.79045 0.70147 0.06718 0.0
C354 C 0.74956 0.68319 0.13388 0.0
C355 C 0.78584 0.66093 0.06336 0.0
C356 C 0.76353 0.63179 0.09429 0.0
H357 H 0.12279 0.45262 0.49722 0.0
H358 H 0.05977 0.35851 0.59088 0.0
H359 H 0.99484 0.32038 0.5416 0.0
H360 H 0.95435 0.31614 0.47334 0.0
H361 H 0.01901 0.41021 0.37985 0.0
H362 H 0.08484 0.44599 0.42773 0.0
C363 C 0.09499 0.4236 0.50678 0.0
C364 C 0.09592 0.40862 0.54774 0.0
C365 C 0.0579 0.402 0.47844 0.0
C366 C 0.05987 0.37072 0.55946 0.0
C367 C 0.02264 0.34902 0.5314 0.0
C368 C 0.98292 0.3444 0.46348 0.0
C369 C 0.98161 0.36067 0.42327 0.0
C370 C 0.02099 0.36476 0.49109 0.0
C371 C 0.01907 0.39704 0.41065 0.0
C372 C 0.05677 0.41759 0.43802 0.0
H373 H 0.67098 0.60537 0.38551 0.0
H374 H 0.67917 0.50517 0.44849 0.0
H375 H 0.67149 0.53329 0.51873 0.0
H376 H 0.65701 0.58309 0.56157 0.0
H377 H 0.64675 0.68229 0.49875 0.0
H378 H 0.66113 0.65794 0.42915 0.0
C379 C 0.67154 0.58991 0.41463 0.0
C380 C 0.67525 0.55301 0.41169 0.0
C381 C 0.66654 0.60592 0.45492 0.0
C382 C 0.67606 0.53346 0.44977 0.0
C383 C 0.67162 0.54948 0.48998 0.0
C384 C 0.6583 0.59967 0.53276 0.0
C385 C 0.65042 0.63423 0.53532 0.0
C386 C 0.66598 0.5852 0.49283 0.0
C387 C 0.65249 0.65547 0.49767 0.0
C388 C 0.66061 0.64151 0.45783 0.0
H389 H 0.34832 0.01064 0.61477 0.0
H390 H 0.31759 0.90059 0.53306 0.0
H391 H 0.32517 0.93993 0.46878 0.0
H392 H 0.34819 0.00709 0.4359 0.0
H393 H 0.38154 0.11789 0.51735 0.0
H394 H 0.36467 0.07654 0.58151 0.0
C395 C 0.34264 -0.00493 0.58293 0.0
C396 C 0.33299 0.95286 0.57879 0.0
C397 C 0.34783 0.01808 0.546 0.0
C398 C 0.3255 0.93316 0.53724 0.0
C399 C 0.32989 0.95565 0.50041 0.0
C400 C 0.35123 0.02217 0.46761 0.0
C401 C 0.36669 0.06564 0.47179 0.0
C402 C 0.34228 -0.00161 0.50441 0.0
C403 C 0.37004 0.08453 0.51317 0.0
C404 C 0.36053 0.06093 0.54993 0.0
loop_
_geom_bond_atom_site_label_1
_geom_bond_atom_site_label_2
_geom_bond_distance
_geom_bond_site_symmetry_2
_ccdc_geom_bond_type
C0 O1 1.160 . S
C0 O7 1.185 . S
O1 C0 1.160 . S
O2 Zn3 1.899 . S
O2 C10 1.284 1_556 S
Zn3 O2 1.899 . S
Zn3 O4 2.032 1_556 S
Zn3 O7 2.086 . S
Zn3 O12 1.977 1_455 S
O4 Zn3 2.032 1_554 S
O4 C8 1.277 1_455 S
C5 O6 1.203 . S
C5 O12 1.267 1_554 S
O6 C5 1.203 . S
O7 C0 1.185 . S
O7 Zn3 2.086 . S
C8 O4 1.277 1_655 S
C8 O9 1.211 . S
O9 C8 1.211 . S
C10 O2 1.284 1_554 S
C10 O11 1.273 . S
O11 C10 1.273 . S
O12 Zn3 1.977 1_655 S
O12 C5 1.267 1_556 S
C13 O14 1.160 . S
C13 O20 1.185 . S
O14 C13 1.160 . S
O15 Zn16 1.899 . S
O15 C23 1.284 1_554 S
Zn16 O15 1.899 . S
Zn16 O17 2.032 1_554 S
Zn16 O20 2.086 . S
Zn16 O25 1.977 . S
O17 Zn16 2.032 1_556 S
O17 C21 1.278 . S
C18 O19 1.203 1_554 S
C18 O25 1.267 . S
O19 C18 1.203 1_556 S
O20 C13 1.185 . S
O20 Zn16 2.086 . S
C21 O17 1.278 . S
C21 O22 1.211 . S
O22 C21 1.211 . S
C23 O15 1.284 1_556 S
C23 O24 1.273 . S
O24 C23 1.273 . S
O25 Zn16 1.977 . S
O25 C18 1.267 . S
C26 O27 1.160 . S
C26 O33 1.185 1_565 S
O27 C26 1.160 . S
O28 Zn29 1.899 1_565 S
O28 C36 1.284 1_556 S
Zn29 O28 1.899 1_545 S
Zn29 O30 2.032 1_556 S
Zn29 O33 2.086 . S
Zn29 O38 1.977 . S
O30 Zn29 2.032 1_554 S
O30 C34 1.278 . S
C31 O32 1.203 . S
C31 O38 1.267 1_554 S
O32 C31 1.203 . S
O33 C26 1.185 1_545 S
O33 Zn29 2.086 . S
C34 O30 1.278 . S
C34 O35 1.211 . S
O35 C34 1.211 . S
C36 O28 1.284 1_554 S
C36 O37 1.273 . S
O37 C36 1.273 . S
O38 Zn29 1.977 . S
O38 C31 1.267 1_556 S
C39 O40 1.160 . S
C39 O46 1.185 . S
O40 C39 1.160 . S
O41 Zn42 1.899 . S
O41 C49 1.284 . S
Zn42 O41 1.899 . S
Zn42 O43 2.032 . S
Zn42 O46 2.086 . S
Zn42 O51 1.977 . S
O43 Zn42 2.032 . S
O43 C47 1.278 . S
C44 O45 1.203 . S
C44 O51 1.267 . S
O45 C44 1.203 . S
O46 C39 1.185 . S
O46 Zn42 2.086 . S
C47 O43 1.278 . S
C47 O48 1.211 . S
O48 C47 1.211 . S
C49 O41 1.284 . S
C49 O50 1.273 . S
O50 C49 1.273 . S
O51 Zn42 1.977 . S
O51 C44 1.267 . S
C52 O53 1.160 . S
C52 O59 1.185 . S
O53 C52 1.160 . S
O54 Zn55 1.899 . S
O54 C62 1.284 . S
Zn55 O54 1.899 . S
Zn55 O56 2.032 . S
Zn55 O59 2.086 . S
Zn55 O64 1.977 . S
O56 Zn55 2.032 . S
O56 C60 1.278 . S
C57 O58 1.203 . S
C57 O64 1.267 . S
O58 C57 1.203 . S
O59 C52 1.185 . S
O59 Zn55 2.086 . S
C60 O56 1.278 . S
C60 O61 1.211 . S
O61 C60 1.211 . S
C62 O54 1.284 . S
C62 O63 1.273 . S
O63 C62 1.273 . S
O64 Zn55 1.977 . S
O64 C57 1.267 . S
C65 O66 1.160 . S
C65 O72 1.185 . S
O66 C65 1.160 . S
O67 Zn68 1.899 . S
O67 C75 1.284 . S
Zn68 O67 1.899 . S
Zn68 O69 2.032 . S
Zn68 O72 2.086 . S
Zn68 O77 1.977 . S
O69 Zn68 2.032 . S
O69 C73 1.278 . S
C70 O71 1.203 . S
C70 O77 1.267 . S
O71 C70 1.203 . S
O72 C65 1.185 . S
O72 Zn68 2.086 . S
C73 O69 1.278 . S
C73 O74 1.211 . S
O74 C73 1.211 . S
C75 O67 1.284 . S
C75 O76 1.273 . S
O76 C75 1.273 . S
O77 Zn68 1.977 . S
O77 C70 1.267 . S
C78 O79 1.160 . S
C78 O85 1.185 . S
O79 C78 1.160 . S
O80 Zn81 1.899 . S
O80 C88 1.284 . S
Zn81 O80 1.899 . S
Zn81 O82 2.032 . S
Zn81 O85 2.086 . S
Zn81 O90 1.977 . S
O82 Zn81 2.032 . S
O82 C86 1.278 . S
C83 O84 1.203 . S
C83 O90 1.267 . S
O84 C83 1.203 . S
O85 C78 1.185 . S
O85 Zn81 2.086 . S
C86 O82 1.278 . S
C86 O87 1.211 . S
O87 C86 1.211 . S
C88 O80 1.284 . S
C88 O89 1.273 . S
O89 C88 1.273 . S
O90 Zn81 1.977 . S
O90 C83 1.267 . S
C91 O92 1.160 . S
C91 O98 1.185 . S
O92 C91 1.160 . S
O93 Zn94 1.899 . S
O93 C101 1.284 . S
Zn94 O93 1.899 . S
Zn94 O95 2.032 . S
Zn94 O98 2.086 . S
Zn94 O103 1.977 . S
O95 Zn94 2.032 . S
O95 C99 1.278 . S
C96 O97 1.203 . S
C96 O103 1.267 . S
O97 C96 1.203 . S
O98 C91 1.185 . S
O98 Zn94 2.086 . S
C99 O95 1.278 . S
C99 O100 1.211 . S
O100 C99 1.211 . S
C101 O93 1.284 . S
C101 O102 1.273 . S
O102 C101 1.273 . S
O103 Zn94 1.977 . S
O103 C96 1.267 . S
C104 O105 1.160 . S
C104 O111 1.185 . S
O105 C104 1.160 . S
O106 Zn107 1.899 . S
O106 C114 1.284 . S
Zn107 O106 1.899 . S
Zn107 O108 2.032 . S
Zn107 O111 2.086 . S
Zn107 O116 1.977 . S
O108 Zn107 2.032 . S
O108 C112 1.278 . S
C109 O110 1.203 . S
C109 O116 1.267 . S
O110 C109 1.203 . S
O111 C104 1.185 . S
O111 Zn107 2.086 . S
C112 O108 1.278 . S
C112 O113 1.211 . S
O113 C112 1.211 . S
C114 O106 1.284 . S
C114 O115 1.273 . S
O115 C114 1.273 . S
O116 Zn107 1.977 . S
O116 C109 1.267 . S
H117 C123 0.930 . S
H118 C126 0.930 . S
H119 C127 0.930 . S
H120 C128 0.930 . S
H121 C131 0.930 . S
H122 C132 0.931 . S
C123 H117 0.930 . S
C123 C124 1.355 . S
C123 C125 1.415 1_556 S
C124 C123 1.355 . S
C124 C126 1.419 1_556 S
C125 C123 1.415 1_554 S
C125 C130 1.425 . S
C125 C132 1.409 . S
C126 H118 0.930 . S
C126 C124 1.419 1_554 S
C126 C127 1.362 . S
C127 H119 0.930 . S
C127 C126 1.362 . S
C127 C130 1.409 . S
C128 H120 0.930 . S
C128 C129 1.355 . S
C128 C130 1.415 . S
C129 C128 1.355 . S
C129 C131 1.419 . S
C130 C125 1.425 . S
C130 C127 1.409 . S
C130 C128 1.415 . S
C131 H121 0.930 . S
C131 C129 1.419 . S
C131 C132 1.362 . S
C132 H122 0.931 . S
C132 C125 1.409 . S
C132 C131 1.362 . S
H133 C139 0.930 . S
H134 C142 0.930 . S
H135 C143 0.930 1_556 S
H136 C144 0.930 . S
H137 C147 0.930 . S
H138 C148 0.930 . S
C139 H133 0.930 . S
C139 C140 1.355 . S
C139 C141 1.415 1_565 S
C140 C139 1.355 . S
C140 C142 1.419 . S
C141 C139 1.415 1_545 S
C141 C146 1.425 . S
C141 C148 1.409 . S
C142 H134 0.930 . S
C142 C140 1.419 . S
C142 C143 1.362 . S
C143 H135 0.930 1_554 S
C143 C142 1.362 . S
C143 C146 1.409 1_565 S
C144 H136 0.930 . S
C144 C145 1.355 . S
C144 C146 1.415 1_556 S
C145 C144 1.355 . S
C145 C147 1.419 1_556 S
C146 C141 1.425 . S
C146 C143 1.409 1_545 S
C146 C144 1.415 1_554 S
C147 H137 0.930 . S
C147 C145 1.419 1_554 S
C147 C148 1.362 . S
C148 H138 0.930 . S
C148 C141 1.409 . S
C148 C147 1.362 . S
H149 C155 0.930 . S
H150 C158 0.930 . S
H151 C159 0.930 1_455 S
H152 C160 0.930 . S
H153 C163 0.930 . S
H154 C164 0.930 . S
C155 H149 0.930 . S
C155 C156 1.355 . S
C155 C157 1.415 1_655 S
C156 C155 1.355 . S
C156 C158 1.419 1_556 S
C157 C155 1.415 1_455 S
C157 C162 1.425 1_556 S
C157 C164 1.409 . S
C158 H150 0.930 . S
C158 C156 1.419 1_554 S
C158 C159 1.362 . S
C159 H151 0.930 1_655 S
C159 C158 1.362 . S
C159 C162 1.409 1_655 S
C160 H152 0.930 . S
C160 C161 1.355 . S
C160 C162 1.415 . S
C161 C160 1.355 . S
C161 C163 1.419 1_554 S
C162 C157 1.425 1_554 S
C162 C159 1.409 1_455 S
C162 C160 1.415 . S
C163 H153 0.930 . S
C163 C161 1.419 1_556 S
C163 C164 1.362 . S
C164 H154 0.930 . S
C164 C157 1.409 . S
C164 C163 1.362 . S
H165 C171 0.930 . S
H166 C174 0.930 . S
H167 C175 0.930 . S
H168 C176 0.930 . S
H169 C179 0.930 . S
H170 C180 0.930 . S
C171 H165 0.930 . S
C171 C172 1.355 . S
C171 C173 1.415 . S
C172 C171 1.355 . S
C172 C174 1.419 . S
C173 C171 1.415 . S
C173 C178 1.425 . S
C173 C180 1.409 . S
C174 H166 0.930 . S
C174 C172 1.419 . S
C174 C175 1.362 . S
C175 H167 0.930 . S
C175 C174 1.362 . S
C175 C178 1.409 . S
C176 H168 0.930 . S
C176 C177 1.355 . S
C176 C178 1.415 . S
C177 C176 1.355 . S
C177 C179 1.419 . S
C178 C173 1.425 . S
C178 C175 1.409 . S
C178 C176 1.415 . S
C179 H169 0.930 . S
C179 C177 1.419 . S
C179 C180 1.362 . S
C180 H170 0.930 . S
C180 C173 1.409 . S
C180 C179 1.362 . S
H181 C187 0.930 . S
H182 C190 0.930 . S
H183 C191 0.930 . S
H184 C192 0.930 . S
H185 C195 0.930 . S
H186 C196 0.930 . S
C187 H181 0.930 . S
C187 C188 1.355 . S
C187 C189 1.415 . S
C188 C187 1.355 . S
C188 C190 1.419 . S
C189 C187 1.415 . S
C189 C194 1.425 . S
C189 C196 1.409 . S
C190 H182 0.930 . S
C190 C188 1.419 . S
C190 C191 1.362 . S
C191 H183 0.930 . S
C191 C190 1.362 . S
C191 C194 1.409 . S
C192 H184 0.930 . S
C192 C193 1.355 . S
C192 C194 1.415 . S
C193 C192 1.355 . S
C193 C195 1.419 . S
C194 C189 1.425 . S
C194 C191 1.409 . S
C194 C192 1.415 . S
C195 H185 0.930 . S
C195 C193 1.419 . S
C195 C196 1.362 . S
C196 H186 0.930 . S
C196 C189 1.409 . S
C196 C195 1.362 . S
H197 C203 0.930 . S
H198 C206 0.930 . S
H199 C207 0.930 . S
H200 C208 0.930 . S
H201 C211 0.930 . S
H202 C212 0.930 . S
C203 H197 0.930 . S
C203 C204 1.355 . S
C203 C205 1.415 . S
C204 C203 1.355 . S
C204 C206 1.419 . S
C205 C203 1.415 . S
C205 C210 1.425 . S
C205 C212 1.409 . S
C206 H198 0.930 . S
C206 C204 1.419 . S
C206 C207 1.362 . S
C207 H199 0.930 . S
C207 C206 1.362 . S
C207 C210 1.409 . S
C208 H200 0.930 . S
C208 C209 1.355 . S
C208 C210 1.415 . S
C209 C208 1.355 . S
C209 C211 1.419 . S
C210 C205 1.425 . S
C210 C207 1.409 . S
C210 C208 1.415 . S
C211 H201 0.930 . S
C211 C209 1.419 . S
C211 C212 1.362 . S
C212 H202 0.930 . S
C212 C205 1.409 . S
C212 C211 1.362 . S
H213 C219 0.930 . S
H214 C222 0.930 . S
H215 C223 0.930 . S
H216 C224 0.930 . S
H217 C227 0.930 . S
H218 C228 0.930 . S
C219 H213 0.930 . S
C219 C220 1.355 . S
C219 C221 1.415 . S
C220 C219 1.355 . S
C220 C222 1.419 . S
C221 C219 1.415 . S
C221 C226 1.425 . S
C221 C228 1.409 . S
C222 H214 0.930 . S
C222 C220 1.419 . S
C222 C223 1.362 . S
C223 H215 0.930 . S
C223 C222 1.362 . S
C223 C226 1.409 . S
C224 H216 0.930 . S
C224 C225 1.355 . S
C224 C226 1.415 . S
C225 C224 1.355 . S
C225 C227 1.419 . S
C226 C221 1.425 . S
C226 C223 1.409 . S
C226 C224 1.415 . S
C227 H217 0.930 . S
C227 C225 1.419 . S
C227 C228 1.362 . S
C228 H218 0.930 . S
C228 C221 1.409 . S
C228 C227 1.362 . S
H229 C235 0.930 . S
H230 C238 0.930 . S
H231 C239 0.930 . S
H232 C240 0.930 . S
H233 C243 0.930 . S
H234 C244 0.930 . S
C235 H229 0.930 . S
C235 C236 1.355 . S
C235 C237 1.415 . S
C236 C235 1.355 . S
C236 C238 1.419 . S
C237 C235 1.415 . S
C237 C242 1.425 . S
C237 C244 1.409 . S
C238 H230 0.930 . S
C238 C236 1.419 . S
C238 C239 1.362 . S
C239 H231 0.930 . S
C239 C238 1.362 . S
C239 C242 1.409 . S
C240 H232 0.930 . S
C240 C241 1.355 . S
C240 C242 1.415 . S
C241 C240 1.355 . S
C241 C243 1.419 . S
C242 C237 1.425 . S
C242 C239 1.409 . S
C242 C240 1.415 . S
C243 H233 0.930 . S
C243 C241 1.419 . S
C243 C244 1.362 . S
C244 H234 0.930 . S
C244 C237 1.409 . S
C244 C243 1.362 . S
H245 C251 0.930 . S
H246 C254 0.930 . S
H247 C255 0.930 . S
H248 C256 0.930 . S
H249 C259 0.930 . S
H250 C260 0.930 . S
C251 H245 0.930 . S
C251 C252 1.355 . S
C251 C253 1.415 . S
C252 C251 1.355 . S
C252 C254 1.419 . S
C253 C251 1.415 . S
C253 C258 1.425 . S
C253 C260 1.409 . S
C254 H246 0.930 . S
C254 C252 1.419 . S
C254 C255 1.362 . S
C255 H247 0.930 . S
C255 C254 1.362 . S
C255 C258 1.409 . S
C256 H248 0.930 . S
C256 C257 1.355 . S
C256 C258 1.415 . S
C257 C256 1.355 . S
C257 C259 1.419 . S
C258 C253 1.425 . S
C258 C255 1.409 . S
C258 C256 1.415 . S
C259 H249 0.930 . S
C259 C257 1.419 . S
C259 C260 1.362 . S
C260 H250 0.930 . S
C260 C253 1.409 . S
C260 C259 1.362 . S
H261 C267 0.930 . S
H262 C270 0.930 . S
H263 C271 0.930 . S
H264 C272 0.930 . S
H265 C275 0.930 . S
H266 C276 0.930 . S
C267 H261 0.930 . S
C267 C268 1.355 . S
C267 C269 1.415 . S
C268 C267 1.355 . S
C268 C270 1.419 . S
C269 C267 1.415 . S
C269 C274 1.425 . S
C269 C276 1.409 . S
C270 H262 0.930 . S
C270 C268 1.419 . S
C270 C271 1.362 . S
C271 H263 0.930 . S
C271 C270 1.362 . S
C271 C274 1.409 . S
C272 H264 0.930 . S
C272 C273 1.355 . S
C272 C274 1.415 . S
C273 C272 1.355 . S
C273 C275 1.419 . S
C274 C269 1.425 . S
C274 C271 1.409 . S
C274 C272 1.415 . S
C275 H265 0.930 . S
C275 C273 1.419 . S
C275 C276 1.362 . S
C276 H266 0.930 . S
C276 C269 1.409 . S
C276 C275 1.362 . S
H277 C283 0.930 . S
H278 C286 0.930 . S
H279 C287 0.930 . S
H280 C288 0.930 . S
H281 C291 0.930 . S
H282 C292 0.930 . S
C283 H277 0.930 . S
C283 C284 1.355 . S
C283 C285 1.415 . S
C284 C283 1.355 . S
C284 C286 1.419 . S
C285 C283 1.415 . S
C285 C290 1.425 . S
C285 C292 1.409 . S
C286 H278 0.930 . S
C286 C284 1.419 . S
C286 C287 1.362 . S
C287 H279 0.930 . S
C287 C286 1.362 . S
C287 C290 1.409 . S
C288 H280 0.930 . S
C288 C289 1.355 . S
C288 C290 1.415 . S
C289 C288 1.355 . S
C289 C291 1.419 . S
C290 C285 1.425 . S
C290 C287 1.409 . S
C290 C288 1.415 . S
C291 H281 0.930 . S
C291 C289 1.419 . S
C291 C292 1.362 . S
C292 H282 0.930 . S
C292 C285 1.409 . S
C292 C291 1.362 . S
H293 C299 0.930 . S
H294 C302 0.930 . S
H295 C303 0.930 . S
H296 C304 0.930 . S
H297 C307 0.930 . S
H298 C308 0.930 . S
C299 H293 0.930 . S
C299 C300 1.355 . S
C299 C301 1.415 . S
C300 C299 1.355 . S
C300 C302 1.419 . S
C301 C299 1.415 . S
C301 C306 1.425 . S
C301 C308 1.409 1_565 S
C302 H294 0.930 . S
C302 C300 1.419 . S
C302 C303 1.362 . S
C303 H295 0.930 . S
C303 C302 1.362 . S
C303 C306 1.409 . S
C304 H296 0.930 . S
C304 C305 1.355 . S
C304 C306 1.415 . S
C305 C304 1.355 . S
C305 C307 1.419 1_565 S
C306 C301 1.425 . S
C306 C303 1.409 . S
C306 C304 1.415 . S
C307 H297 0.930 . S
C307 C305 1.419 1_545 S
C307 C308 1.362 . S
C308 H298 0.930 . S
C308 C301 1.409 1_545 S
C308 C307 1.362 . S
H309 C315 0.930 . S
H310 C318 0.930 . S
H311 C319 0.930 . S
H312 C320 0.930 . S
H313 C323 0.930 1_565 S
H314 C324 0.930 . S
C315 H309 0.930 . S
C315 C316 1.355 . S
C315 C317 1.415 . S
C316 C315 1.355 . S
C316 C318 1.419 . S
C317 C315 1.415 . S
C317 C322 1.425 . S
C317 C324 1.409 . S
C318 H310 0.930 . S
C318 C316 1.419 . S
C318 C319 1.362 . S
C319 H311 0.930 . S
C319 C318 1.362 . S
C319 C322 1.409 . S
C320 H312 0.930 . S
C320 C321 1.355 . S
C320 C322 1.415 . S
C321 C320 1.355 . S
C321 C323 1.419 . S
C322 C317 1.425 . S
C322 C319 1.409 . S
C322 C320 1.415 . S
C323 H313 0.930 1_545 S
C323 C321 1.419 . S
C323 C324 1.362 . S
C324 H314 0.930 . S
C324 C317 1.409 . S
C324 C323 1.362 . S
H325 C331 0.930 . S
H326 C334 0.930 . S
H327 C335 0.930 1_455 S
H328 C336 0.930 . S
H329 C339 0.930 . S
H330 C340 0.930 . S
C331 H325 0.930 . S
C331 C332 1.355 . S
C331 C333 1.415 . S
C332 C331 1.355 . S
C332 C334 1.419 1_655 S
C333 C331 1.415 . S
C333 C338 1.425 . S
C333 C340 1.409 . S
C334 H326 0.930 . S
C334 C332 1.419 1_455 S
C334 C335 1.362 1_455 S
C335 H327 0.930 1_655 S
C335 C334 1.362 1_655 S
C335 C338 1.409 . S
C336 H328 0.930 . S
C336 C337 1.355 . S
C336 C338 1.415 . S
C337 C336 1.355 . S
C337 C339 1.419 . S
C338 C333 1.425 . S
C338 C335 1.409 . S
C338 C336 1.415 . S
C339 H329 0.930 . S
C339 C337 1.419 . S
C339 C340 1.362 . S
C340 H330 0.930 . S
C340 C333 1.409 . S
C340 C339 1.362 . S
H341 C347 0.930 . S
H342 C350 0.930 . S
H343 C351 0.930 . S
H344 C352 0.930 . S
H345 C355 0.930 . S
H346 C356 0.930 . S
C347 H341 0.930 . S
C347 C348 1.355 . S
C347 C349 1.415 . S
C348 C347 1.355 . S
C348 C350 1.419 . S
C349 C347 1.415 . S
C349 C354 1.425 . S
C349 C356 1.409 . S
C350 H342 0.930 . S
C350 C348 1.419 . S
C350 C351 1.362 . S
C351 H343 0.930 . S
C351 C350 1.362 . S
C351 C354 1.409 . S
C352 H344 0.930 . S
C352 C353 1.355 . S
C352 C354 1.415 . S
C353 C352 1.355 . S
C353 C355 1.419 . S
C354 C349 1.425 . S
C354 C351 1.409 . S
C354 C352 1.415 . S
C355 H345 0.930 . S
C355 C353 1.419 . S
C355 C356 1.362 . S
C356 H346 0.930 . S
C356 C349 1.409 . S
C356 C355 1.362 . S
H357 C363 0.930 . S
H358 C366 0.930 . S
H359 C367 0.930 . S
H360 C368 0.930 . S
H361 C371 0.932 . S
H362 C372 0.930 . S
C363 H357 0.930 . S
C363 C364 1.355 . S
C363 C365 1.415 . S
C364 C363 1.355 . S
C364 C366 1.419 . S
C365 C363 1.415 . S
C365 C370 1.425 . S
C365 C372 1.409 . S
C366 H358 0.930 . S
C366 C364 1.419 . S
C366 C367 1.362 . S
C367 H359 0.930 . S
C367 C366 1.362 . S
C367 C370 1.409 . S
C368 H360 0.930 . S
C368 C369 1.355 . S
C368 C370 1.415 1_655 S
C369 C368 1.355 . S
C369 C371 1.419 1_655 S
C370 C365 1.425 . S
C370 C367 1.409 . S
C370 C368 1.415 1_455 S
C371 H361 0.932 . S
C371 C369 1.419 1_455 S
C371 C372 1.362 . S
C372 H362 0.930 . S
C372 C365 1.409 . S
C372 C371 1.362 . S
H373 C379 0.930 . S
H374 C382 0.930 . S
H375 C383 0.930 . S
H376 C384 0.930 . S
H377 C387 0.930 . S
H378 C388 0.930 . S
C379 H373 0.930 . S
C379 C380 1.355 . S
C379 C381 1.415 . S
C380 C379 1.355 . S
C380 C382 1.419 . S
C381 C379 1.415 . S
C381 C386 1.425 . S
C381 C388 1.409 . S
C382 H374 0.930 . S
C382 C380 1.419 . S
C382 C383 1.362 . S
C383 H375 0.930 . S
C383 C382 1.362 . S
C383 C386 1.409 . S
C384 H376 0.930 . S
C384 C385 1.355 . S
C384 C386 1.415 . S
C385 C384 1.355 . S
C385 C387 1.419 . S
C386 C381 1.425 . S
C386 C383 1.409 . S
C386 C384 1.415 . S
C387 H377 0.930 . S
C387 C385 1.419 . S
C387 C388 1.362 . S
C388 H378 0.930 . S
C388 C381 1.409 . S
C388 C387 1.362 . S
H389 C395 0.930 1_545 S
H390 C398 0.930 . S
H391 C399 0.930 . S
H392 C400 0.930 . S
H393 C403 0.930 . S
H394 C404 0.930 . S
C395 H389 0.930 1_565 S
C395 C396 1.355 . S
C395 C397 1.415 1_565 S
C396 C395 1.355 . S
C396 C398 1.419 . S
C397 C395 1.415 1_545 S
C397 C402 1.425 1_545 S
C397 C404 1.409 . S
C398 H390 0.930 . S
C398 C396 1.419 . S
C398 C399 1.362 . S
C399 H391 0.930 . S
C399 C398 1.362 . S
C399 C402 1.409 . S
C400 H392 0.930 . S
C400 C401 1.355 . S
C400 C402 1.415 1_545 S
C401 C400 1.355 . S
C401 C403 1.419 . S
C402 C397 1.425 1_565 S
C402 C399 1.409 . S
C402 C400 1.415 1_565 S
C403 H393 0.930 . S
C403 C401 1.419 . S
C403 C404 1.362 . S
C404 H394 0.930 . S
C404 C397 1.409 . S
C404 C403 1.362 . S
C124 C31 1.105 1_556 S
C129 C10 1.089 . S
C140 C18 0.978 . S
C145 C5 1.078 1_556 S
C156 C23 1.101 . S
C161 C36 1.126 . S
C172 C75 1.133 . S
C177 C49 1.085 . S
C188 C57 1.038 . S
C193 C44 1.083 . S
C204 C62 1.088 . S
C209 C70 1.068 . S
C220 C88 1.074 . S
C225 C109 1.043 . S
C236 C83 0.941 . S
C241 C96 0.922 . S
C252 C101 1.122 . S
C257 C114 1.098 . S
C268 C0 1.330 . S
C273 C91 1.314 . S
C284 C21 1.355 . S
C289 C112 1.282 . S
C300 C86 1.229 . S
C305 C26 1.310 . S
C316 C60 1.263 . S
C321 C34 1.277 . S
C332 C8 1.325 . S
C337 C73 1.298 . S
C348 C39 1.310 . S
C353 C13 1.311 . S
C364 C99 1.324 . S
C369 C65 1.259 . S
C380 C47 1.326 . S
C385 C104 1.309 . S
C396 C78 1.324 . S
C401 C52 1.329 . S
