# Generated by pormake.
# Topology xbj, (5)-cn, num edge types: 1
# Building blocks:
#     Node 0, Type 0, BuildingBlock: XOMCOT_clean_sbu_1, # of connection points: 5
#     Node 1, Type 0, BuildingBlock: XOMCOT_clean_sbu_1, # of connection points: 5
#     Node 2, Type 0, BuildingBlock: XOMCOT_clean_sbu_1, # of connection points: 5
#     Node 3, Type 0, BuildingBlock: XOMCOT_clean_sbu_1, # of connection points: 5
#     Node 4, Type 0, BuildingBlock: XOMCOT_clean_sbu_1, # of connection points: 5
#     Node 5, Type 0, BuildingBlock: XOMCOT_clean_sbu_1, # of connection points: 5
#     Node 6, Type 0, BuildingBlock: XOMCOT_clean_sbu_1, # of connection points: 5
#     Node 7, Type 0, BuildingBlock: XOMCOT_clean_sbu_1, # of connection points: 5
#     Edge 8, Type (0, 0), BuildingBlock: ZUJKAS_clean_linker_0, # of connection points: 2
#     Edge 9, Type (0, 0), BuildingBlock: ZUJKAS_clean_linker_0, # of connection points: 2
#     Edge 10, Type (0, 0), BuildingBlock: ZUJKAS_clean_linker_0, # of connection points: 2
#     Edge 11, Type (0, 0), BuildingBlock: ZUJKAS_clean_linker_0, # of connection points: 2
#     Edge 12, Type (0, 0), BuildingBlock: ZUJKAS_clean_linker_0, # of connection points: 2
#     Edge 13, Type (0, 0), BuildingBlock: ZUJKAS_clean_linker_0, # of connection points: 2
#     Edge 14, Type (0, 0), BuildingBlock: ZUJKAS_clean_linker_0, # of connection points: 2
#     Edge 15, Type (0, 0), BuildingBlock: ZUJKAS_clean_linker_0, # of connection points: 2
#     Edge 16, Type (0, 0), BuildingBlock: ZUJKAS_clean_linker_0, # of connection points: 2
#     Edge 17, Type (0, 0), BuildingBlock: ZUJKAS_clean_linker_0, # of connection points: 2
#     Edge 18, Type (0, 0), BuildingBlock: ZUJKAS_clean_linker_0, # of connection points: 2
#     Edge 19, Type (0, 0), BuildingBlock: ZUJKAS_clean_linker_0, # of connection points: 2
#     Edge 20, Type (0, 0), BuildingBlock: ZUJKAS_clean_linker_0, # of connection points: 2
#     Edge 21, Type (0, 0), BuildingBlock: ZUJKAS_clean_linker_0, # of connection points: 2
#     Edge 22, Type (0, 0), BuildingBlock: ZUJKAS_clean_linker_0, # of connection points: 2
#     Edge 23, Type (0, 0), BuildingBlock: ZUJKAS_clean_linker_0, # of connection points: 2
#     Edge 24, Type (0, 0), BuildingBlock: ZUJKAS_clean_linker_0, # of connection points: 2
#     Edge 25, Type (0, 0), BuildingBlock: ZUJKAS_clean_linker_0, # of connection points: 2
#     Edge 26, Type (0, 0), BuildingBlock: ZUJKAS_clean_linker_0, # of connection points: 2
#     Edge 27, Type (0, 0), BuildingBlock: ZUJKAS_clean_linker_0, # of connection points: 2
# Relax obj value: 0.199
# Max RMSD: 0.174
# Mean RMSD: 0.167
data_MOF--net-xbj--node1-XOMCOT_clean_sbu_1--edge1-ZUJKAS_clean_linker_0
_symmetry_space_group_name_H-M    P1
_symmetry_Int_Tables_number       1
_symmetry_cell_setting            triclinic
loop_
_symmetry_equiv_pos_as_xyz
'x, y, z'
_cell_length_a     22.029418
_cell_length_b     22.044369
_cell_length_c     137.75777
_cell_angle_alpha  96.042769
_cell_angle_beta   95.959106
_cell_angle_gamma 89.667781
loop_
_atom_site_label
_atom_site_type_symbol
_atom_site_fract_x
_atom_site_fract_y
_atom_site_fract_z
_atom_type_partial_charge
C0 C 0.11239 0.9704 0.05512 0.0
C1 C 0.17478 0.97721 0.05692 0.0
N2 N 0.20122 0.9249 0.05355 0.0
N3 N 0.09934 0.91423 0.05057 0.0
C4 C 0.15426 0.8872 0.04985 0.0
H5 H 0.07858 1.00465 0.05679 0.0
Co6 Co 1.02072 0.88464 0.04626 0.0
C7 C 0.03605 0.81153 0.02768 0.0
O8 O 0.98709 0.83845 0.02388 0.0
N9 N 0.94006 0.8536 0.04267 0.0
C10 C 0.86231 0.78789 0.03905 0.0
C11 C 0.92419 0.79557 0.03918 0.0
C12 C 0.88689 0.87868 0.04527 0.0
N13 N 0.8386 0.84035 0.04287 0.0
O14 O 0.02983 0.82976 0.056 0.0
H15 H 0.95578 0.75945 0.0374 0.0
H16 H 0.88405 0.92329 0.04928 0.0
O17 O 0.05404 0.82321 0.03682 0.0
C18 C 1.006 0.84384 0.06393 0.0
O19 O 0.97584 0.89528 0.06503 0.0
N20 N 1.01339 0.94129 0.03647 0.0
C21 C 1.00365 1.00835 0.02027 0.0
C22 C 0.05818 0.97953 0.02311 0.0
C23 C 0.06217 0.94653 0.03118 0.0
C24 C 0.96206 0.97474 0.03439 0.0
C25 C 0.95548 1.00714 0.02612 0.0
H26 H 0.10369 0.92158 0.0327 0.0
H27 H 0.92521 0.97591 0.03891 0.0
H28 H 0.15966 0.84102 0.04655 0.0
H29 H 0.1987 1.01836 0.06016 0.0
H30 H 0.83733 0.74573 0.03684 0.0
H31 H 0.09649 0.9793 0.01876 0.0
H32 H 0.91306 0.03034 0.02425 0.0
C33 C 0.5664 0.99481 0.30279 0.0
C34 C 0.56213 0.05712 0.30453 0.0
N35 N 0.61705 0.08183 0.30377 0.0
N36 N 0.62381 0.97978 0.301 0.0
C37 C 0.65372 0.03379 0.30161 0.0
H38 H 0.52961 0.96231 0.30262 0.0
Co39 Co 0.6474 0.89951 0.29759 0.0
C40 C 0.77503 0.9149 0.29416 0.0
O41 O 0.79237 0.87616 0.30052 0.0
N42 N 0.66976 0.8185 0.29412 0.0
C43 C 0.70143 0.73457 0.28579 0.0
C44 C 0.69354 0.79642 0.28583 0.0
C45 C 0.66288 0.76902 0.29895 0.0
N46 N 0.68226 0.71709 0.29406 0.0
O47 O 0.69203 0.89663 0.3101 0.0
H48 H 0.70353 0.82345 0.28007 0.0
H49 H 0.6438 0.77124 0.3059 0.0
O50 O 0.7188 0.9281 0.29252 0.0
C51 C 0.66422 0.89601 0.31771 0.0
O52 O 0.60511 0.90548 0.31706 0.0
N53 N 0.60177 0.90007 0.28543 0.0
C54 C 0.53571 0.87954 0.26705 0.0
C55 C 0.58435 0.92144 0.26867 0.0
C56 C 0.61658 0.93163 0.27799 0.0
C57 C 0.55241 0.86216 0.28416 0.0
C58 C 0.51879 0.85102 0.27501 0.0
H59 H 0.65427 0.96356 0.27909 0.0
H60 H 0.54094 0.83826 0.2902 0.0
H61 H 0.7012 0.0379 0.3004 0.0
H62 H 0.52101 0.08232 0.30588 0.0
H63 H 0.71829 0.70463 0.27994 0.0
H64 H 0.59793 0.94535 0.26276 0.0
H65 H 0.48169 0.81821 0.27408 0.0
C66 C 0.63457 0.40301 0.54408 0.0
C67 C 0.69677 0.41171 0.54543 0.0
N68 N 0.72395 0.35666 0.54522 0.0
N69 N 0.62221 0.34282 0.54304 0.0
C70 C 0.67752 0.31564 0.54379 0.0
H71 H 0.60037 0.43828 0.5436 0.0
Co72 Co 0.54347 0.31057 0.54027 0.0
C73 C 0.56615 0.17825 0.53928 0.0
O74 O 0.52936 0.17173 0.54603 0.0
N75 N 0.46375 0.27907 0.53744 0.0
C76 C 0.38189 0.22933 0.52986 0.0
C77 C 0.44371 0.23732 0.52993 0.0
C78 C 0.41303 0.29634 0.54175 0.0
N79 N 0.36236 0.26651 0.5373 0.0
O80 O 0.54362 0.2944 0.55353 0.0
H81 H 0.47195 0.21544 0.52463 0.0
H82 H 0.4132 0.33085 0.54794 0.0
O83 O 0.57576 0.23102 0.53677 0.0
C84 C 0.53063 0.33951 0.55947 0.0
O85 O 0.51996 0.3926 0.55611 0.0
N86 N 0.5425 0.32894 0.52734 0.0
C87 C 0.53015 0.35585 0.50796 0.0
C88 C 0.5769 0.3174 0.51131 0.0
C89 C 0.58251 0.30468 0.52107 0.0
C90 C 0.49865 0.36868 0.52435 0.0
C91 C 0.49121 0.38229 0.51464 0.0
H92 H 0.61884 0.27514 0.52354 0.0
H93 H 0.46847 0.38889 0.52949 0.0
H94 H 0.6837 0.26674 0.54318 0.0
H95 H 0.72005 0.45528 0.54614 0.0
H96 H 0.35329 0.2001 0.52447 0.0
H97 H 0.60819 0.29644 0.5064 0.0
H98 H 0.45553 0.41346 0.5124 0.0
C99 C 1.0065 0.17535 0.78986 0.0
C100 C 0.99722 0.2375 0.79043 0.0
N101 N 0.04339 0.26305 0.78659 0.0
N102 N 0.05841 0.16162 0.78572 0.0
C103 C 0.0793 0.2162 0.78371 0.0
H104 H 0.97643 0.14222 0.79213 0.0
Co105 Co 0.0876 0.08229 0.78254 0.0
C106 C 0.20517 0.14818 0.78697 0.0
O107 O 0.1941 0.1637 0.79608 0.0
N108 N 0.1156 1.00314 0.7792 0.0
C109 C 0.15857 0.92382 0.77123 0.0
C110 C 0.15324 0.98634 0.77227 0.0
C111 C 0.099 0.95002 0.78233 0.0
N112 N 0.12455 0.90111 0.77758 0.0
O113 O 0.11168 0.07506 0.79603 0.0
H114 H 0.17417 1.01745 0.76802 0.0
H115 H 0.06698 0.94682 0.78769 0.0
O116 O 0.16724 0.11449 0.78119 0.0
C117 C 0.07425 0.05578 0.80145 0.0
O118 O 1.01912 0.03915 0.79755 0.0
N119 N 0.06117 0.08865 0.76937 0.0
C120 C 1.00497 0.10191 0.75065 0.0
C121 C 0.06215 0.12858 0.75386 0.0
C122 C 0.08949 0.1216 0.76326 0.0
C123 C 1.00664 0.06068 0.76628 0.0
C124 C 0.9777 0.06652 0.75692 0.0
H125 H 0.13235 0.14453 0.76564 0.0
H126 H 0.98466 0.03527 0.77125 0.0
H127 H 0.11872 0.22177 0.77983 0.0
H128 H 0.95951 0.26198 0.79343 0.0
H129 H 0.18513 0.89704 0.76617 0.0
H130 H 0.085 0.15583 0.74922 0.0
H131 H 0.93319 0.04583 0.75479 0.0
C132 C 0.06786 0.34854 0.90839 0.0
C133 C 1.00543 0.35423 0.90669 0.0
N134 N 0.97886 0.31872 0.91247 0.0
N135 N 0.08108 0.30966 0.9152 0.0
C136 C 0.02597 0.29221 0.91753 0.0
H137 H 0.10164 0.37096 0.90483 0.0
Co138 Co 0.16086 0.28754 0.91964 0.0
C139 C 0.1364 0.17271 0.9286 0.0
O140 O 0.17175 0.13848 0.92319 0.0
N141 N 0.24108 0.26634 0.9239 0.0
C142 C 0.32467 0.24233 0.93315 0.0
C143 C 0.26246 0.24938 0.93275 0.0
C144 C 0.29131 0.27023 0.91911 0.0
N145 N 0.34296 0.25563 0.92458 0.0
O146 O 0.16172 0.22772 0.9084 0.0
H147 H 0.23497 0.24472 0.93869 0.0
H148 H 0.28999 0.28458 0.91181 0.0
O149 O 0.12977 0.22912 0.92748 0.0
C150 C 0.12298 0.18784 0.90428 0.0
O151 O 0.07225 0.17939 0.90821 0.0
N152 N 0.16156 0.34822 0.93032 0.0
C153 C 0.17226 0.43332 0.94689 0.0
C154 C 0.12376 0.39142 0.94521 0.0
C155 C 0.11894 0.34976 0.93685 0.0
C156 C 0.20731 0.39066 0.93154 0.0
C157 C 0.214 0.43329 0.93986 0.0
H158 H 0.08124 0.31816 0.93577 0.0
H159 H 0.23981 0.39043 0.92617 0.0
H160 H 1.02056 0.26064 0.92288 0.0
H161 H 0.98174 0.38182 0.90147 0.0
H162 H 0.35447 0.23094 0.93944 0.0
H163 H 0.09048 0.38956 0.95043 0.0
H164 H 0.25143 0.4657 0.94079 0.0
C165 C 0.95508 0.60501 0.18108 0.0
C166 C 0.94777 0.54303 0.18082 0.0
N167 N 0.99513 0.51543 0.1768 0.0
N168 N 1.00751 0.61743 0.17735 0.0
C169 C 0.03025 0.56143 0.17467 0.0
H170 H 0.92267 0.63782 0.18369 0.0
Co171 Co 0.0404 0.69354 0.17491 0.0
C172 C 0.14043 0.64012 0.18742 0.0
O173 O 0.10034 0.614 0.19208 0.0
N174 N 0.07224 0.76759 0.17212 0.0
C175 C 0.13467 0.83625 0.16774 0.0
C176 C 0.12632 0.77539 0.16864 0.0
C177 C 0.04808 0.82422 0.17314 0.0
N178 N 0.0855 0.86717 0.17062 0.0
O179 O 0.05591 0.65823 0.16226 0.0
H180 H 0.15781 0.73906 0.16687 0.0
H181 H 1.00447 0.83389 0.1759 0.0
O182 O 0.12192 0.6706 0.18028 0.0
C183 C 1.00998 0.65807 0.15587 0.0
O184 O 0.95738 0.6771 0.15873 0.0
N185 N 1.02285 0.73216 0.18718 0.0
C186 C 0.98883 0.79935 0.20404 0.0
C187 C 0.94494 0.77967 0.19627 0.0
C188 C 0.96328 0.74768 0.18779 0.0
C189 C 0.06656 0.75538 0.19438 0.0
C190 C 0.05042 0.78792 0.20295 0.0
H191 H 0.92989 0.73628 0.18154 0.0
H192 H 0.11439 0.75168 0.19344 0.0
H193 H 0.07176 0.55462 0.17113 0.0
H194 H 0.91039 0.52018 0.18347 0.0
H195 H 0.17386 0.85597 0.16509 0.0
H196 H 0.89709 0.79016 0.19665 0.0
H197 H 0.08594 0.8041 0.20865 0.0
C198 C 0.44042 0.81156 0.41212 0.0
C199 C 0.37818 0.81826 0.41084 0.0
N200 N 0.35198 0.7632 0.41089 0.0
N201 N 0.45394 0.7525 0.41292 0.0
C202 C 0.39904 0.72392 0.41209 0.0
H203 H 0.47393 0.84782 0.41278 0.0
Co204 Co 0.53374 0.72636 0.41616 0.0
C205 C 0.51539 0.59591 0.4176 0.0
O206 O 0.55429 0.58099 0.41114 0.0
N207 N 0.61405 0.70145 0.4195 0.0
C208 C 0.6969 0.66652 0.42768 0.0
C209 C 0.63469 0.67287 0.42738 0.0
C210 C 0.66461 0.71212 0.41512 0.0
N211 N 0.7158 0.69131 0.41997 0.0
O212 O 0.53804 0.68926 0.40316 0.0
H213 H 0.60642 0.65881 0.43272 0.0
H214 H 0.66411 0.73667 0.40871 0.0
O215 O 0.50345 0.6518 0.41994 0.0
C216 C 0.54001 0.72298 0.39628 0.0
O217 O 0.53265 0.78206 0.3981 0.0
N218 N 0.53147 0.76466 0.42887 0.0
C219 C 0.54104 0.8213 0.448 0.0
C220 C 0.49626 0.77652 0.44485 0.0
C221 C 0.49207 0.74877 0.43521 0.0
C222 C 0.57302 0.81032 0.43164 0.0
C223 C 0.57907 0.83885 0.44122 0.0
H224 H 0.45755 0.71419 0.43291 0.0
H225 H 0.60274 0.82349 0.42644 0.0
H226 H 0.39353 0.676 0.41287 0.0
H227 H 0.35411 0.86076 0.41013 0.0
H228 H 0.72604 0.64559 0.43319 0.0
H229 H 0.46572 0.76201 0.44985 0.0
H230 H 0.6132 0.87431 0.44329 0.0
C231 C 0.36633 0.28654 0.68459 0.0
C232 C 0.35815 0.22511 0.68499 0.0
N233 N 0.40758 0.19539 0.68194 0.0
N234 N 0.42097 0.29588 0.68142 0.0
C235 C 0.44479 0.23956 0.67977 0.0
H236 H 0.3344 0.32216 0.68649 0.0
Co237 Co 0.45242 0.37127 0.67951 0.0
C238 C 0.58544 0.36592 0.68597 0.0
O239 O 0.58634 0.42403 0.68931 0.0
N240 N 0.48279 0.44797 0.67717 0.0
C241 C 0.53399 0.51636 0.67033 0.0
C242 C 0.52546 0.45535 0.671 0.0
C243 C 0.46497 0.50561 0.67994 0.0
N244 N 0.49578 0.54801 0.67595 0.0
O245 O 0.45579 0.34373 0.6661 0.0
H246 H 0.54865 0.41844 0.66711 0.0
H247 H 0.42961 0.51685 0.68466 0.0
O248 O 0.53532 0.34074 0.68209 0.0
C249 C 0.41374 0.35365 0.65944 0.0
O250 O 0.36465 0.38316 0.66188 0.0
N251 N 0.44689 0.39712 0.69293 0.0
C252 C 0.41951 0.42103 0.71233 0.0
C253 C 0.47039 0.38615 0.71008 0.0
C254 C 0.4822 0.37321 0.70035 0.0
C255 C 0.39682 0.43093 0.69499 0.0
C256 C 0.38241 0.44378 0.70465 0.0
H257 H 0.51695 0.34003 0.69889 0.0
H258 H 0.3658 0.44499 0.68904 0.0
H259 H 0.48791 0.23113 0.6768 0.0
H260 H 0.31893 0.20428 0.68745 0.0
H261 H 0.56451 0.53576 0.6658 0.0
H262 H 0.49818 0.36485 0.71572 0.0
H263 H 0.34141 0.46911 0.70607 0.0
H264 H 0.08778 0.75112 0.06631 0.0
H265 H 0.10264 0.68957 0.08024 0.0
H266 H 0.95448 0.78418 0.09328 0.0
H267 H 0.93978 0.84625 0.07954 0.0
H268 H 0.10896 0.76579 0.10302 0.0
H269 H 0.94311 0.57592 0.09163 0.0
H270 H 0.98328 0.61188 0.08293 0.0
H271 H 0.92162 0.65086 0.0884 0.0
C272 C 0.058 0.75829 0.0721 0.0
C273 C 1.01285 0.80373 0.07189 0.0
C274 C 0.06654 0.72313 0.08002 0.0
C275 C 0.02935 0.73237 0.08769 0.0
C276 C 0.98327 0.77638 0.08735 0.0
H277 H 0.92335 0.66908 0.14061 0.0
H278 H 0.939 0.67035 0.12343 0.0
C279 C 0.97518 0.81193 0.07954 0.0
C280 C 0.04084 0.70026 0.09654 0.0
H281 H 0.97769 0.59345 0.10864 0.0
C282 C 0.08171 0.72699 0.10424 0.0
C283 C 1.00483 0.65001 0.09798 0.0
C284 C 0.96082 0.61997 0.08981 0.0
C285 C 0.0839 0.70796 0.11366 0.0
C286 C 0.04507 0.65982 0.1153 0.0
C287 C 1.00754 0.63012 0.10736 0.0
C288 C 0.03489 0.64739 0.12537 0.0
C289 C 0.12382 0.74312 0.12192 0.0
C290 C 0.08301 0.63137 0.13211 0.0
C291 C 0.0744 0.63159 0.14204 0.0
C292 C 1.01728 0.64692 0.1453 0.0
C293 C 0.96808 0.6577 0.13837 0.0
C294 C 0.97688 0.65816 0.12851 0.0
H295 H 0.14305 0.78527 0.11964 0.0
H296 H 0.0976 0.75613 0.12828 0.0
H297 H 0.16249 0.71407 0.12438 0.0
H298 H 0.12778 0.6214 0.12979 0.0
H299 H 0.113 0.6223 0.1472 0.0
H300 H 0.50226 0.75083 0.37803 0.0
H301 H 0.55998 0.736 0.36378 0.0
H302 H 0.6955 0.63365 0.38003 0.0
H303 H 0.63607 0.6462 0.39424 0.0
H304 H 0.73372 0.74967 0.37356 0.0
H305 H 0.61518 0.59822 0.34305 0.0
H306 H 0.56282 0.64431 0.34976 0.0
H307 H 0.60907 0.58911 0.35583 0.0
C308 C 0.54283 0.72278 0.37839 0.0
C309 C 0.56483 0.6996 0.38716 0.0
C310 C 0.57569 0.71409 0.37026 0.0
C311 C 0.63171 0.68331 0.37085 0.0
C312 C 0.65189 0.65664 0.3794 0.0
H313 H 0.74768 0.80431 0.31794 0.0
H314 H 0.77121 0.73998 0.33131 0.0
C315 C 0.61794 0.66385 0.38748 0.0
C316 C 0.67318 0.69158 0.36334 0.0
H317 H 0.66313 0.6901 0.33852 0.0
C318 C 0.72041 0.73461 0.36589 0.0
C319 C 0.65651 0.67122 0.35338 0.0
C320 C 0.60847 0.62262 0.35034 0.0
C321 C 0.74441 0.76479 0.35867 0.0
C322 C 0.72068 0.75099 0.34877 0.0
C323 C 0.68073 0.70119 0.34615 0.0
C324 C 0.72229 0.7964 0.34167 0.0
C325 C 0.79011 0.81556 0.36173 0.0
C326 C 0.6884 0.85007 0.34319 0.0
C327 C 0.67357 0.88579 0.33554 0.0
C328 C 0.69343 0.86898 0.3263 0.0
C329 C 0.73228 0.8185 0.32504 0.0
C330 C 0.74578 0.78171 0.33265 0.0
H331 H 0.81834 0.80752 0.36864 0.0
H332 H 0.8205 0.82034 0.3559 0.0
H333 H 0.7654 0.85917 0.36308 0.0
H334 H 0.66893 0.86153 0.35006 0.0
H335 H 0.6434 0.92432 0.33665 0.0
H336 H 0.53765 0.23421 0.56852 0.0
H337 H 0.521 0.22302 0.58558 0.0
H338 H 0.49003 0.41656 0.59071 0.0
H339 H 0.50706 0.42833 0.57381 0.0
H340 H 0.57018 0.36823 0.60536 0.0
H341 H 0.35263 0.23699 0.59672 0.0
H342 H 0.41701 0.20734 0.59074 0.0
H343 H 0.38444 0.27887 0.58785 0.0
C344 C 0.52753 0.27437 0.5733 0.0
C345 C 0.52343 0.33214 0.56981 0.0
C346 C 0.51768 0.26782 0.58301 0.0
C347 C 0.50355 0.31888 0.58934 0.0
C348 C 0.50067 0.3766 0.58592 0.0
H349 H 0.34229 0.38332 0.64318 0.0
H350 H 0.36537 0.36674 0.6261 0.0
C351 C 0.51036 0.38319 0.57625 0.0
C352 C 0.49181 0.3131 0.59957 0.0
H353 H 0.38815 0.25987 0.61345 0.0
C354 C 0.53077 0.34405 0.60715 0.0
C355 C 0.43994 0.282 0.60182 0.0
C356 C 0.39568 0.24968 0.59388 0.0
C357 C 0.51862 0.34584 0.61696 0.0
C358 C 0.46662 0.31496 0.61923 0.0
C359 C 0.42817 0.28309 0.61166 0.0
C360 C 0.44966 0.31861 0.62938 0.0
C361 C 0.56019 0.38281 0.62478 0.0
C362 C 0.48852 0.29534 0.6368 0.0
C363 C 0.47569 0.30502 0.64655 0.0
C364 C 0.42348 0.33775 0.64903 0.0
C365 C 0.38297 0.35819 0.64151 0.0
C366 C 0.39601 0.34867 0.63175 0.0
H367 H 0.59021 0.41408 0.62159 0.0
H368 H 0.53329 0.41027 0.63003 0.0
H369 H 0.58975 0.35149 0.62895 0.0
H370 H 0.52958 0.27106 0.63507 0.0
H371 H 0.5075 0.2881 0.65216 0.0
H372 H 0.04298 0.11263 0.8922 0.0
H373 H 0.05138 0.07478 0.8751 0.0
H374 H 0.23102 0.15477 0.87705 0.0
H375 H 0.22271 0.19372 0.89414 0.0
H376 H 0.15382 0.19184 0.86211 0.0
H377 H 0.1449 0.9402 0.86075 0.0
H378 H 0.08428 0.97674 0.86686 0.0
H379 H 0.16214 0.989 0.87208 0.0
C380 C 0.08486 0.12107 0.88907 0.0
C381 C 0.13194 0.15667 0.8945 0.0
C382 C 0.08977 0.09896 0.8793 0.0
C383 C 0.14208 0.11144 0.87483 0.0
C384 C 0.19038 0.14442 0.88038 0.0
H385 H 0.18435 0.08647 0.81189 0.0
H386 H 0.20879 0.09462 0.82972 0.0
C387 C 0.18547 0.1667 0.89014 0.0
C388 C 0.14284 0.09709 0.8641 0.0
H389 H 0.12036 0.9824 0.8454 0.0
C390 C 0.14766 0.14591 0.85846 0.0
C391 C 0.13444 0.03719 0.85938 0.0
C392 C 0.13174 0.98271 0.86509 0.0
C393 C 0.14144 0.1369 0.84818 0.0
C394 C 0.13121 0.07723 0.84344 0.0
C395 C 0.12821 0.02808 0.84908 0.0
C396 C 0.11928 0.0659 0.83264 0.0
C397 C 0.1429 0.1917 0.84249 0.0
C398 C 0.06166 0.04486 0.82838 0.0
C399 C 0.04761 0.0399 0.81821 0.0
C400 C 0.09105 0.05587 0.81212 0.0
C401 C 0.14967 0.07445 0.81639 0.0
C402 C 0.16371 0.07924 0.82657 0.0
H403 H 0.13866 0.23523 0.84722 0.0
H404 H 0.18691 0.1927 0.83925 0.0
H405 H 0.10549 0.18912 0.8364 0.0
H406 H 0.02683 0.03422 0.83296 0.0
H407 H 1.00217 0.02511 0.81516 0.0
H408 H 0.12981 0.73349 0.03256 0.0
H409 H 0.18751 0.66843 0.02113 0.0
H410 H 0.08197 0.7385 -0.00336 0.0
H411 H 1.02452 0.80243 0.00783 0.0
H412 H 0.13142 0.57847 0.00601 0.0
H413 H 0.26074 0.75127 -0.0098 0.0
H414 H 0.23156 0.76554 0.00202 0.0
H415 H 0.18246 0.77264 -0.00909 0.0
C416 C 0.11934 0.7351 0.02474 0.0
C417 C 0.07233 0.77263 0.02109 0.0
C418 C 0.15243 0.69826 0.01824 0.0
C419 C 0.1397 0.69974 0.00807 0.0
C420 C 0.0934 0.73776 0.00447 0.0
H421 H 0.08256 0.49603 0.95579 0.0
H422 H 0.0915 0.55604 0.97179 0.0
C423 C 0.06008 0.77375 0.01089 0.0
C424 C 0.16953 0.65779 0.00097 0.0
H425 H 0.23246 0.65855 0.97937 0.0
C426 C 0.15551 0.59548 0.00036 0.0
C427 C 0.20135 0.68004 -0.00634 0.0
C428 C 0.22048 0.74601 -0.00572 0.0
C429 C 0.16675 0.55607 -0.00792 0.0
C430 C 0.19235 0.57989 -0.01572 0.0
C431 C 0.21218 0.64071 -0.01466 0.0
C432 C 0.18922 0.54522 0.97449 0.0
C433 C 0.14722 0.49018 -0.00861 0.0
C434 C 0.24167 0.52097 0.97063 0.0
C435 C 0.23668 0.48605 0.96148 0.0
C436 C 0.17918 0.47545 0.95608 0.0
C437 C 0.12729 0.50223 0.95984 0.0
C438 C 0.13229 0.53661 0.96897 0.0
H439 H 0.14297 0.47539 -0.00124 0.0
H440 H 0.10204 0.48439 -0.01299 0.0
H441 H 0.18021 0.46006 -0.01234 0.0
H442 H 0.28602 0.52773 0.9748 0.0
H443 H 0.27741 0.46568 0.9588 0.0
H444 H 0.8731 0.85097 0.28831 0.0
H445 H 0.9234 0.8627 0.27371 0.0
H446 H 0.8212 0.02717 0.26942 0.0
H447 H 0.76843 1.01377 0.28383 0.0
H448 H 0.80361 0.95359 0.25394 0.0
H449 H 0.05153 0.95786 0.26407 0.0
H450 H 1.02026 0.89399 0.26889 0.0
H451 H 0.9983 0.97039 0.27319 0.0
C452 C 0.86295 0.89083 0.28447 0.0
C453 C 0.81659 0.9312 0.28713 0.0
C454 C 0.89212 0.8978 0.27613 0.0
C455 C 0.8766 0.94618 0.27048 0.0
C456 C 0.83397 0.98951 0.27366 0.0
H457 H 0.03928 0.90287 0.21443 0.0
H458 H 1.01175 0.95254 0.23013 0.0
C459 C 0.80391 0.98187 0.28188 0.0
C460 C 0.89627 0.94481 0.26048 0.0
H461 H 1.01744 0.90924 0.24746 0.0
C462 C 0.85072 0.94558 0.25255 0.0
C463 C 0.95771 0.93553 0.25858 0.0
C464 C 1.00964 0.94015 0.26667 0.0
C465 C 0.86421 0.93246 0.24285 0.0
C466 C 0.92443 0.91606 0.24103 0.0
C467 C 0.97091 0.92034 0.24887 0.0
C468 C 0.9389 0.88898 0.23125 0.0
C469 C 0.81332 0.93479 0.23467 0.0
C470 C 0.90734 0.83665 0.22671 0.0
C471 C 0.92262 0.8086 0.21775 0.0
C472 C 0.97058 0.83164 0.21324 0.0
C473 C 1.0023 0.884 0.21778 0.0
C474 C 0.98654 0.91247 0.22672 0.0
H475 H 0.77853 0.96908 0.23676 0.0
H476 H 0.83072 0.94616 0.2278 0.0
H477 H 0.79016 0.88969 0.23323 0.0
H478 H 0.87176 0.81651 0.23022 0.0
H479 H 0.89818 0.7677 0.2145 0.0
H480 H 0.57102 0.48819 0.42119 0.0
H481 H 0.55814 0.43062 0.43508 0.0
H482 H 0.40747 0.54597 0.44255 0.0
H483 H 0.4203 0.60395 0.42874 0.0
H484 H 0.50622 0.54999 0.45696 0.0
H485 H 0.43745 0.3106 0.44411 0.0
H486 H 0.49915 0.33908 0.43827 0.0
H487 H 0.42467 0.37217 0.43646 0.0
C488 C 0.53366 0.49978 0.42556 0.0
C489 C 0.49726 0.55112 0.42399 0.0
C490 C 0.52625 0.46672 0.43348 0.0
C491 C 0.4819 0.48415 0.43983 0.0
C492 C 0.44196 0.53187 0.43772 0.0
H493 H 0.42375 0.3582 0.49591 0.0
H494 H 0.41035 0.38524 0.47901 0.0
C495 C 0.44947 0.56502 0.42985 0.0
C496 C 0.48437 0.46066 0.44952 0.0
H497 H 0.47589 0.3316 0.46102 0.0
C498 C 0.49897 0.50233 0.45785 0.0
C499 C 0.47511 0.3985 0.45062 0.0
C500 C 0.45771 0.35244 0.44191 0.0
C501 C 0.50564 0.48335 0.46727 0.0
C502 C 0.49803 0.42101 0.46837 0.0
C503 C 0.48216 0.37932 0.46009 0.0
C504 C 0.50664 0.39903 0.47816 0.0
C505 C 0.52104 0.52999 0.47601 0.0
C506 C 0.56531 0.39726 0.48315 0.0
C507 C 0.57311 0.38215 0.49278 0.0
C508 C 0.52226 0.36884 0.49758 0.0
C509 C 0.46364 0.36913 0.49244 0.0
C510 C 0.45593 0.38394 0.48278 0.0
H511 H 0.51517 0.57745 0.47405 0.0
H512 H 0.49189 0.52323 0.48192 0.0
H513 H 0.56928 0.52425 0.47897 0.0
H514 H 0.60488 0.40894 0.47965 0.0
H515 H 0.61874 0.38267 0.49657 0.0
H516 H 0.99553 0.21155 0.74318 0.0
H517 H 0.9328 0.23672 0.72853 0.0
H518 H 0.87558 0.04873 0.7221 0.0
H519 H 0.93844 1.02302 0.73686 0.0
H520 H 0.92745 0.19427 0.70846 0.0
H521 H 0.71523 0.14073 0.72473 0.0
H522 H 0.78873 0.14687 0.73187 0.0
H523 H 0.76968 0.08016 0.72347 0.0
C524 C 0.97062 0.17522 0.73856 0.0
C525 C 0.97167 0.11531 0.74121 0.0
C526 C 0.93468 0.18974 0.73019 0.0
C527 C 0.89901 0.14476 0.72431 0.0
C528 C 0.90201 0.08429 0.72665 0.0
H529 H 0.59377 0.24129 0.6831 0.0
H530 H 0.67488 0.17788 0.69007 0.0
C531 C 0.93782 0.06972 0.73507 0.0
C532 C 0.85561 0.16294 0.71621 0.0
H533 H 0.70378 0.18461 0.70994 0.0
C534 C 0.87849 0.19133 0.70868 0.0
C535 C 0.79178 0.15883 0.71651 0.0
C536 C 0.76459 0.13043 0.7246 0.0
C537 C 0.83918 0.21799 0.70166 0.0
C538 C 0.7756 0.21681 0.7023 0.0
C539 C 0.75262 0.18532 0.70947 0.0
C540 C 0.73244 0.25397 0.69647 0.0
C541 C 0.86613 0.24839 0.69377 0.0
C542 C 0.73849 0.31772 0.69759 0.0
C543 C 0.69213 0.35411 0.69366 0.0
C544 C 0.63858 0.3274 0.6886 0.0
C545 C 0.6342 0.2634 0.687 0.0
C546 C 0.68059 0.22701 0.69096 0.0
H547 H 0.91068 0.22784 0.69218 0.0
H548 H 0.83485 0.24501 0.68687 0.0
H549 H 0.87423 0.29739 0.69633 0.0
H550 H 0.77749 0.33956 0.702 0.0
H551 H 0.69708 0.40322 0.69501 0.0
H552 H 0.25814 0.25829 0.79418 0.0
H553 H 0.31112 0.32676 0.7849 0.0
H554 H 0.30166 0.18833 0.7602 0.0
H555 H 0.25022 0.11951 0.76944 0.0
H556 H 0.41057 0.2512 0.76298 0.0
H557 H 0.21283 0.41004 0.76323 0.0
H558 H 0.25087 0.39564 0.77494 0.0
H559 H 0.20948 0.33523 0.76735 0.0
C560 C 0.26901 0.24183 0.78687 0.0
C561 C 0.24948 0.1837 0.78249 0.0
C562 C 0.29856 0.28132 0.78155 0.0
C563 C 0.30892 0.26312 0.77179 0.0
C564 C 0.29367 0.20348 0.7677 0.0
H565 H 0.30842 0.39303 0.71764 0.0
H566 H 0.28601 0.37089 0.7339 0.0
C567 C 0.26432 0.16413 0.77299 0.0
C568 C 0.33177 0.30634 0.76546 0.0
H569 H 0.28738 0.42727 0.75285 0.0
C570 C 0.38446 0.29051 0.76089 0.0
C571 C 0.29711 0.35732 0.76273 0.0
C572 C 0.23919 0.37563 0.76724 0.0
C573 C 0.40147 0.32171 0.75323 0.0
C574 C 0.36561 0.37135 0.75024 0.0
C575 C 0.3149 0.3895 0.7552 0.0
C576 C 0.37504 0.39859 0.74112 0.0
C577 C 0.45502 0.29819 0.74794 0.0
C578 C 0.43123 0.42493 0.7399 0.0
C579 C 0.44432 0.43705 0.73057 0.0
C580 C 0.40092 0.42414 0.72239 0.0
C581 C 0.34255 0.40381 0.72382 0.0
C582 C 0.32979 0.39096 0.73312 0.0
H583 H 0.47045 0.25279 0.75001 0.0
H584 H 0.44314 0.29441 0.73987 0.0
H585 H 0.49392 0.33048 0.74984 0.0
H586 H 0.46624 0.43257 0.74603 0.0
H587 H 0.48949 0.45327 0.72966 0.0
H588 H 0.22794 0.71706 0.18278 0.0
H589 H 0.31716 0.75619 0.19358 0.0
H590 H 0.28191 0.63047 0.21432 0.0
H591 H 0.19336 0.59055 0.20355 0.0
H592 H 0.29991 0.81348 0.2115 0.0
H593 H 0.4666 0.62779 0.21608 0.0
H594 H 0.40755 0.62492 0.2059 0.0
H595 H 0.39087 0.60376 0.21762 0.0
C596 C 0.24039 0.69611 0.18946 0.0
C597 C 0.2029 0.65126 0.19237 0.0
C598 C 0.29138 0.71872 0.19564 0.0
C599 C 0.30623 0.69628 0.20475 0.0
C600 C 0.272 0.64785 0.20726 0.0
H601 H 0.41349 0.86436 0.26158 0.0
H602 H 0.36399 0.82564 0.24543 0.0
C603 C 0.22101 0.62529 0.2011 0.0
C604 C 0.35017 0.72959 0.21229 0.0
H605 H 0.46887 0.70839 0.22956 0.0
C606 C 0.33774 0.79086 0.21531 0.0
C607 C 0.39972 0.7003 0.21721 0.0
C608 C 0.41737 0.63573 0.21396 0.0
C609 C 0.37113 0.82243 0.22349 0.0
C610 C 0.41757 0.79164 0.22886 0.0
C611 C 0.43267 0.73167 0.22549 0.0
C612 C 0.44759 0.81911 0.2384 0.0
C613 C 0.35534 0.88798 0.22646 0.0
C614 C 0.51101 0.82791 0.23981 0.0
C615 C 0.53945 0.84986 0.24905 0.0
C616 C 0.50492 0.86261 0.25705 0.0
C617 C 0.44127 0.85469 0.25556 0.0
C618 C 0.41291 0.83306 0.24632 0.0
H619 H 0.3328 0.90997 0.22015 0.0
H620 H 0.32316 0.88953 0.23217 0.0
H621 H 0.39668 0.91482 0.22955 0.0
H622 H 0.53854 0.81693 0.23379 0.0
H623 H 0.58867 0.85468 0.25001 0.0
H624 H 0.45168 0.86246 0.45939 0.0
H625 H 0.4649 0.91204 0.47627 0.0
H626 H 0.66004 0.89327 0.47674 0.0
H627 H 0.6473 0.84316 0.4599 0.0
H628 H 0.59911 0.86079 0.49462 0.0
H629 H 0.54617 0.08959 0.48227 0.0
H630 H 0.49419 0.02844 0.47745 0.0
H631 H 0.57088 0.02671 0.47414 0.0
C632 C 0.49734 0.86826 0.46313 0.0
C633 C 0.5485 0.84938 0.45832 0.0
C634 C 0.50478 0.89667 0.47274 0.0
C635 C 0.56341 0.90631 0.47768 0.0
C636 C 0.61447 0.8861 0.47301 0.0
H637 H 0.6572 0.17159 0.52733 0.0
H638 H 0.66513 0.09719 0.51308 0.0
C639 C 0.60712 0.85806 0.46338 0.0
C640 C 0.57161 0.94053 0.48753 0.0
H641 H 0.5602 0.08333 0.49932 0.0
C642 C 0.59077 0.90946 0.49569 0.0
C643 C 0.5613 1.00399 0.48881 0.0
C644 C 0.54238 0.03954 0.48022 0.0
C645 C 0.59883 0.94042 0.50519 0.0
C646 C 0.58733 1.00372 0.50648 0.0
C647 C 0.56907 0.03473 0.49829 0.0
C648 C 0.59229 0.03934 0.51625 0.0
C649 C 0.61999 0.90559 0.51376 0.0
C650 C 0.55047 0.02989 0.52297 0.0
C651 C 0.54581 0.07244 0.53114 0.0
C652 C 0.58248 0.12525 0.5326 0.0
C653 C 0.62787 0.13167 0.52632 0.0
C654 C 0.63254 0.08919 0.51819 0.0
H655 H 0.63969 0.8607 0.51134 0.0
H656 H 0.65464 0.93229 0.51888 0.0
H657 H 0.58051 0.89739 0.51785 0.0
H658 H 0.51846 0.99212 0.52153 0.0
H659 H 0.51016 0.06647 0.53582 0.0
H660 H 0.07766 0.09123 0.0141 0.0
H661 H 0.08219 0.11386 -0.00281 0.0
H662 H 0.92235 1.00207 -0.01212 0.0
H663 H 0.91715 0.98014 0.00489 0.0
H664 H 0.09907 1.01867 -0.01739 0.0
H665 H 0.89115 0.15292 0.97273 0.0
H666 H 0.92028 0.14601 -0.01469 0.0
H667 H 0.87992 0.08345 0.97811 0.0
C668 C 0.04239 0.07318 0.00849 0.0
C669 C 0.99698 0.03417 0.01076 0.0
C670 C 0.04516 0.08579 -0.00116 0.0
C671 C 1.00273 0.05947 -0.00871 0.0
C672 C 0.95503 1.02346 -0.00638 0.0
H673 H 0.11496 0.05299 0.93124 0.0
H674 H 0.07364 1.01491 0.94539 0.0
C675 C 0.95196 1.01117 0.00332 0.0
C676 C 1.01288 0.06493 0.98097 0.0
H677 H 0.9566 0.12879 0.96041 0.0
C678 C 0.06772 0.04224 0.9777 0.0
C679 C 0.97156 0.09525 0.97461 0.0
C680 C 0.91253 0.12126 0.97784 0.0
C681 C 0.08392 0.05171 0.9684 0.0
C682 C 0.04345 0.08365 0.96213 0.0
C683 C 0.98725 0.10387 0.96522 0.0
C684 C 0.0626 0.10464 0.95304 0.0
C685 C 0.14574 0.03067 0.96562 0.0
C686 C 0.06855 0.16739 0.95256 0.0
C687 C 0.09162 0.18897 0.94454 0.0
C688 C 0.10914 0.1484 0.93677 0.0
C689 C 0.10207 0.08536 0.93714 0.0
C690 C 0.07855 0.0636 0.94521 0.0
H691 H 0.17536 1.01585 0.97196 0.0
H692 H 0.13981 0.99146 0.95986 0.0
H693 H 0.16955 0.06771 0.96263 0.0
H694 H 0.05719 0.19985 0.95856 0.0
H695 H 0.09769 0.23756 0.94466 0.0
H696 H 0.73952 0.78486 0.03244 0.0
H697 H 0.63259 0.80076 0.03513 0.0
H698 H 0.68575 0.93595 0.05943 0.0
H699 H 0.79323 0.92015 0.0568 0.0
H700 H 0.57461 0.7847 0.05152 0.0
H701 H 0.55614 0.0255 0.04312 0.0
H702 H 0.61968 0.97768 0.04007 0.0
H703 H 0.61616 1.01147 0.05246 0.0
C704 C 0.72868 0.81782 0.0384 0.0
C705 C 0.77527 0.85117 0.0444 0.0
C706 C 0.66737 0.82703 0.0399 0.0
C707 C 0.65091 0.87003 0.04741 0.0
C708 C 0.69716 0.90342 0.05345 0.0
H709 H 0.29471 0.98061 0.06558 0.0
H710 H 0.40402 0.96589 0.06453 0.0
C711 C 0.7587 0.89432 0.05194 0.0
C712 C 0.58537 0.87857 0.04898 0.0
H713 H 0.47005 0.98304 0.04888 0.0
C714 C 0.55175 0.82808 0.05094 0.0
C715 C 0.55551 0.9352 0.04824 0.0
C716 C 0.58844 0.9905 0.04577 0.0
C717 C 0.48933 0.83269 0.05222 0.0
C718 C 0.4593 0.8891 0.05137 0.0
C719 C 0.49306 0.9398 0.04954 0.0
C720 C 0.3927 0.89631 0.05218 0.0
C721 C 0.4563 0.77728 0.05463 0.0
C722 C 0.34976 0.86228 0.04556 0.0
C723 C 0.2871 0.87073 0.04612 0.0
C724 C 0.26589 0.91379 0.05327 0.0
C725 C 0.30916 0.94756 0.05992 0.0
C726 C 0.37179 0.93905 0.05935 0.0
H727 H 0.48853 0.74346 0.05768 0.0
H728 H 0.42291 0.79016 0.05999 0.0
H729 H 0.43104 0.75482 0.04782 0.0
H730 H 0.3647 0.83002 0.03982 0.0
H731 H 0.2554 0.8447 0.04076 0.0
H732 H 0.75188 0.62164 0.28781 0.0
H733 H 0.74329 0.51567 0.29105 0.0
H734 H 0.60314 0.56518 0.31001 0.0
H735 H 0.60967 0.67137 0.30649 0.0
H736 H 0.75848 0.45905 0.30799 0.0
H737 H 0.51967 0.43155 0.29066 0.0
H738 H 0.56617 0.49668 0.28934 0.0
H739 H 0.53093 0.49223 0.30045 0.0
C740 C 0.71872 0.61021 0.2926 0.0
C741 C 0.68061 0.6553 0.29672 0.0
C742 C 0.7143 0.54946 0.29452 0.0
C743 C 0.67173 0.53207 0.30061 0.0
C744 C 0.6354 0.57721 0.3051 0.0
H745 H 0.56266 0.17389 0.31423 0.0
H746 H 0.5793 0.28327 0.31418 0.0
C747 C 0.63965 0.63817 0.30316 0.0
C748 C 0.66478 0.46646 0.30201 0.0
H749 H 0.56345 0.3474 0.29798 0.0
C750 C 0.7158 0.43465 0.30582 0.0
C751 C 0.60915 0.43449 0.29915 0.0
C752 C 0.55344 0.46519 0.29459 0.0
C753 C 0.71259 0.37198 0.3069 0.0
C754 C 0.65712 0.33998 0.30395 0.0
C755 C 0.60596 0.37194 0.30025 0.0
C756 C 0.65089 0.27324 0.30452 0.0
C757 C 0.76839 0.34079 0.3113 0.0
C758 C 0.68586 0.23089 0.29915 0.0
C759 C 0.67628 0.16803 0.29914 0.0
C760 C 0.63108 0.14626 0.30442 0.0
C761 C 0.59717 0.18891 0.30996 0.0
C762 C 0.60681 0.25157 0.30998 0.0
H763 H 0.80126 0.37407 0.31556 0.0
H764 H 0.75572 0.30702 0.31619 0.0
H765 H 0.79184 0.3162 0.30532 0.0
H766 H 0.71929 0.24644 0.29472 0.0
H767 H 0.70266 0.13664 0.29469 0.0
H768 H 0.26881 0.18551 0.53267 0.0
H769 H 0.16171 0.2021 0.53513 0.0
H770 H 0.20581 0.38142 0.54974 0.0
H771 H 0.31295 0.36621 0.54695 0.0
H772 H 0.10349 0.22646 0.55173 0.0
H773 H 0.07216 0.41821 0.52861 0.0
H774 H 0.13873 0.37015 0.52871 0.0
H775 H 0.13226 0.43002 0.53847 0.0
C776 C 0.25589 0.22879 0.53633 0.0
C777 C 0.29977 0.27485 0.53947 0.0
C778 C 0.19453 0.23799 0.5378 0.0
C779 C 0.17537 0.29344 0.54244 0.0
C780 C 0.21923 0.33874 0.54593 0.0
H781 H 0.81566 0.43209 0.55381 0.0
H782 H 0.92528 0.41543 0.55367 0.0
C783 C 0.28074 0.32966 0.54443 0.0
C784 C 0.1094 0.30367 0.5435 0.0
H785 H 0.98869 0.39439 0.53704 0.0
C786 C 0.07838 0.26318 0.54851 0.0
C787 C 0.07653 0.35147 0.53928 0.0
C788 C 0.10635 0.39466 0.53338 0.0
C789 C 1.01567 0.26954 0.5495 0.0
C790 C 0.98285 0.31719 0.54525 0.0
C791 C 1.01393 0.35796 0.54031 0.0
C792 C 0.91612 0.32543 0.54574 0.0
C793 C 0.98525 0.22572 0.5552 0.0
C794 C 0.87431 0.28036 0.54131 0.0
C795 C 0.81135 0.28989 0.54132 0.0
C796 C 0.78885 0.34493 0.54571 0.0
C797 C 0.83108 0.38955 0.55024 0.0
C798 C 0.8939 0.38 0.55022 0.0
H799 H 1.01903 0.2022 0.56005 0.0
H800 H 0.95194 0.24973 0.55976 0.0
H801 H 0.96016 0.19045 0.54998 0.0
H802 H 0.89032 0.23838 0.53763 0.0
H803 H 0.78043 0.25488 0.53762 0.0
H804 H 0.12044 0.85048 0.79455 0.0
H805 H 0.11103 0.74155 0.79647 0.0
H806 H 0.09525 0.70009 0.76498 0.0
H807 H 0.1083 0.80828 0.76315 0.0
H808 H 0.02805 0.66157 0.79179 0.0
H809 H 0.22126 0.58006 0.77155 0.0
H810 H 0.20753 0.66011 0.77461 0.0
H811 H 0.16733 0.61918 0.76383 0.0
C812 C 0.11522 0.81784 0.78807 0.0
C813 C 0.11584 0.83756 0.77872 0.0
C814 C 0.1099 0.75559 0.78915 0.0
C815 C 0.10411 0.71184 0.78088 0.0
C816 C 0.10225 0.73212 0.77151 0.0
H817 H 0.95665 0.34654 0.78246 0.0
H818 H 0.97204 0.45496 0.78106 0.0
C819 C 0.10912 0.79409 0.77045 0.0
C820 C 0.09815 0.64545 0.78204 0.0
H821 H 0.14996 0.50375 0.77432 0.0
C822 C 0.05522 0.62721 0.78804 0.0
C823 C 0.13433 0.60013 0.77734 0.0
C824 C 0.18563 0.61597 0.77157 0.0
C825 C 0.04659 0.56546 0.78931 0.0
C826 C 0.07972 0.51989 0.78406 0.0
C827 C 0.1236 0.53819 0.77823 0.0
C828 C 0.07021 0.4532 0.78458 0.0
C829 C 1.00316 0.55028 0.7965 0.0
C830 C 0.12032 0.41474 0.78647 0.0
C831 C 0.1116 0.35227 0.78697 0.0
C832 C 0.05253 0.32695 0.78571 0.0
C833 C 1.00254 0.36508 0.78367 0.0
C834 C 1.01135 0.42724 0.78294 0.0
H835 H 0.99893 0.58901 0.80224 0.0
H836 H 0.95712 0.54117 0.79254 0.0
H837 H 1.01825 0.50951 0.80018 0.0
H838 H 0.16628 0.43315 0.78769 0.0
H839 H 0.15097 0.32399 0.78856 0.0
H840 H 0.92289 0.22716 0.92018 0.0
H841 H 0.8141 0.21579 0.92154 0.0
H842 H 0.7772 0.3796 0.9075 0.0
H843 H 0.88595 0.39255 0.9063 0.0
H844 H 0.73577 0.30469 0.93128 0.0
H845 H 0.65856 0.24901 0.89164 0.0
H846 H 0.73707 0.2414 0.89662 0.0
H847 H 0.70649 0.31544 0.89477 0.0
C848 C 0.8921 0.26121 0.91742 0.0
C849 C 0.91405 0.31092 0.91312 0.0
C850 C 0.8296 0.25431 0.91816 0.0
C851 C 0.7874 0.29639 0.91451 0.0
C852 C 0.80882 0.34592 0.91021 0.0
H853 H 0.39095 0.33158 0.91299 0.0
H854 H 0.49884 0.34141 0.91038 0.0
C855 C 0.87131 0.35316 0.90952 0.0
C856 C 0.72125 0.28965 0.91553 0.0
H857 H 0.58168 0.26328 0.90244 0.0
C858 C 0.70206 0.29541 0.92498 0.0
C859 C 0.6773 0.2781 0.9073 0.0
C860 C 0.69562 0.27013 0.897 0.0
C861 C 0.64008 0.2907 0.92643 0.0
C862 C 0.59604 0.27813 0.91821 0.0
C863 C 0.61528 0.27274 0.90874 0.0
C864 C 0.53002 0.26995 0.91931 0.0
C865 C 0.62233 0.30084 0.93677 0.0
C866 C 0.51118 0.22528 0.92493 0.0
C867 C 0.44974 0.21982 0.92645 0.0
C868 C 0.40539 0.25826 0.92228 0.0
C869 C 0.42385 0.30112 0.91628 0.0
C870 C 0.48557 0.30693 0.91482 0.0
H871 H 0.65756 0.32767 0.94177 0.0
H872 H 0.57809 0.32506 0.937 0.0
H873 H 0.61769 0.25604 0.93962 0.0
H874 H 0.54415 0.19486 0.92822 0.0
H875 H 0.43691 0.1855 0.93094 0.0
H876 H 0.17261 0.95563 0.17245 0.0
H877 H 0.15723 0.06566 0.17322 0.0
H878 H 0.96244 0.03828 0.1708 0.0
H879 H 0.97736 0.92783 0.16997 0.0
H880 H 0.09471 0.13436 0.15966 0.0
H881 H 0.99216 0.16251 0.19498 0.0
H882 H 0.0312 0.09386 0.19086 0.0
H883 H 0.95405 0.10715 0.18593 0.0
C884 C 0.1264 0.97272 0.17201 0.0
C885 C 0.07622 0.93247 0.17115 0.0
C886 C 0.11773 0.03585 0.1725 0.0
C887 C 0.05876 0.06041 0.17219 0.0
C888 C 1.00847 1.02052 0.17126 0.0
H889 H 0.90975 0.42546 0.17399 0.0
H890 H 0.92716 0.31561 0.17255 0.0
C891 C 1.01709 0.95726 0.17079 0.0
C892 C 0.0501 0.12767 0.17269 0.0
H893 H 0.99089 0.249 0.18609 0.0
C894 C 0.07223 0.1595 0.16546 0.0
C895 C 1.02089 0.1605 0.18027 0.0
C896 C 0.99867 0.12947 0.18851 0.0
C897 C 0.06476 0.22295 0.16548 0.0
C898 C 0.03526 0.25571 0.17303 0.0
C899 C 1.0134 0.2239 0.18029 0.0
C900 C 0.0255 0.32282 0.17349 0.0
C901 C 0.08712 0.25409 0.15727 0.0
C902 C 0.07501 0.36376 0.17448 0.0
C903 C 0.06516 0.42694 0.17533 0.0
C904 C 1.00561 0.45044 0.1753 0.0
C905 C 0.95623 0.40916 0.17419 0.0
C906 C 0.96609 0.3462 0.17332 0.0
H907 H 0.09433 0.22107 0.15082 0.0
H908 H 0.05431 0.28931 0.15486 0.0
H909 H 0.13139 0.27696 0.15991 0.0
H910 H 0.12137 0.3469 0.17483 0.0
H911 H 0.10423 0.45733 0.17631 0.0
H912 H 0.81601 0.70574 0.43308 0.0
H913 H 0.92197 0.71233 0.42964 0.0
H914 H 0.86423 0.69464 0.39857 0.0
H915 H 0.7573 0.68928 0.40203 0.0
H916 H 0.99094 0.6315 0.42011 0.0
H917 H 0.97404 0.84181 0.40107 0.0
H918 H 0.91345 0.817 0.4076 0.0
H919 H 0.92372 0.7812 0.39554 0.0
C920 C 0.82577 0.70318 0.42551 0.0
C921 C 0.7782 0.69691 0.41783 0.0
C922 C 0.88647 0.70705 0.42354 0.0
C923 C 0.9014 0.70454 0.41384 0.0
C924 C 0.85401 0.69805 0.40612 0.0
H925 H 0.29104 0.65803 0.40388 0.0
H926 H 0.18104 0.63879 0.40349 0.0
C927 C 0.7929 0.69485 0.4081 0.0
C928 C 0.96678 0.70794 0.412 0.0
H929 H 0.06978 0.79328 0.40229 0.0
C930 C 1.00813 0.6667 0.41616 0.0
C931 C 0.98939 0.75405 0.40689 0.0
C932 C 0.94804 0.80141 0.40259 0.0
C933 C 0.07133 0.67127 0.41563 0.0
C934 C 0.09397 0.71746 0.41054 0.0
C935 C 0.05247 0.75766 0.40614 0.0
C936 C 0.16065 0.72834 0.41042 0.0
C937 C 0.11337 0.62833 0.42091 0.0
C938 C 0.18579 0.78536 0.41421 0.0
C939 C 0.24824 0.79654 0.41434 0.0
C940 C 0.28741 0.75096 0.41069 0.0
C941 C 0.26227 0.69381 0.40686 0.0
C942 C 0.1994 0.68277 0.40665 0.0
H943 H 0.09018 0.60565 0.42635 0.0
H944 H 0.12887 0.59227 0.41549 0.0
H945 H 0.15426 0.65286 0.42477 0.0
H946 H 0.1571 0.82121 0.41721 0.0
H947 H 0.26597 0.84075 0.41749 0.0
H948 H 0.32244 0.10522 0.6806 0.0
H949 H 0.34029 0.99584 0.68 0.0
H950 H 0.53371 0.02668 0.68047 0.0
H951 H 0.51667 0.13664 0.68156 0.0
H952 H 0.38951 0.91883 0.66643 0.0
H953 H 0.52954 0.91857 0.70232 0.0
H954 H 0.48723 0.98455 0.69881 0.0
H955 H 0.5595 0.96683 0.69423 0.0
C956 C 0.36895 0.08914 0.68073 0.0
C957 C 0.41811 0.1303 0.68123 0.0
C958 C 0.37901 0.02631 0.68031 0.0
C959 C 0.43841 1.00297 0.68037 0.0
C960 C 0.48756 0.04363 0.68065 0.0
H961 H 0.58148 0.6341 0.675 0.0
H962 H 0.56709 0.74472 0.67604 0.0
C963 C 0.4776 0.10663 0.68113 0.0
C964 C 0.44834 0.93601 0.67994 0.0
H965 H 0.52197 0.82473 0.69206 0.0
C966 C 0.41827 0.89828 0.67206 0.0
C967 C 0.48585 0.90914 0.68729 0.0
C968 C 0.51694 0.94674 0.69619 0.0
C969 C 0.42522 0.83464 0.67128 0.0
C970 C 0.46282 0.80792 0.67861 0.0
C971 C 0.49318 0.84547 0.68646 0.0
C972 C 0.47144 0.74098 0.67821 0.0
C973 C 0.39309 0.79642 0.66254 0.0
C974 C 0.42261 0.70234 0.67924 0.0
C975 C 0.43071 0.63908 0.67866 0.0
C976 C 0.48778 0.61332 0.677 0.0
C977 C 0.53679 0.6524 0.67614 0.0
C978 C 0.52875 0.71561 0.67679 0.0
H979 H 0.37619 0.82449 0.65659 0.0
H980 H 0.42405 0.76082 0.65956 0.0
H981 H 0.35335 0.77309 0.66487 0.0
H982 H 0.37816 0.72114 0.68046 0.0
H983 H 0.39196 0.61033 0.67928 0.0
loop_
_geom_bond_atom_site_label_1
_geom_bond_atom_site_label_2
_geom_bond_distance
_geom_bond_site_symmetry_2
_ccdc_geom_bond_type
C0 C1 1.351 . S
C0 N3 1.368 . S
C0 H5 0.931 . S
C1 C0 1.351 . S
C1 N2 1.373 . S
C1 H29 0.930 . S
N2 C1 1.373 . S
N2 C4 1.340 . S
N3 C0 1.368 . S
N3 C4 1.321 . S
N3 Co6 2.135 . S
C4 N2 1.340 . S
C4 N3 1.321 . S
C4 H28 0.930 . S
H5 C0 0.931 . S
Co6 N3 2.135 . S
Co6 N9 2.121 1_455 S
Co6 O14 2.055 . S
Co6 O17 2.039 . S
Co6 N20 2.140 . S
C7 O8 1.227 . S
C7 O17 1.265 . S
O8 C7 1.227 . S
N9 Co6 2.121 1_655 S
N9 C11 1.375 . S
N9 C12 1.313 . S
C10 C11 1.338 . S
C10 N13 1.377 . S
C10 H30 0.930 . S
C11 N9 1.375 . S
C11 C10 1.338 . S
C11 H15 0.931 . S
C12 N9 1.313 . S
C12 N13 1.344 . S
C12 H16 0.930 . S
N13 C10 1.377 . S
N13 C12 1.344 . S
O14 Co6 2.055 . S
O14 C18 1.253 . S
H15 C11 0.931 . S
H16 C12 0.930 . S
O17 Co6 2.039 . S
O17 C7 1.265 . S
C18 O14 1.253 . S
C18 O19 1.227 . S
O19 C18 1.227 . S
N20 Co6 2.140 . S
N20 C23 1.346 . S
N20 C24 1.343 1_455 S
C21 C22 1.387 . S
C21 C25 1.391 1_455 S
C22 C21 1.387 . S
C22 C23 1.369 . S
C22 H31 0.929 . S
C23 N20 1.346 . S
C23 C22 1.369 . S
C23 H26 0.928 . S
C24 N20 1.343 1_655 S
C24 C25 1.371 . S
C24 H27 0.933 . S
C25 C21 1.391 1_655 S
C25 C24 1.371 . S
C25 H32 0.930 . S
H26 C23 0.928 . S
H27 C24 0.933 . S
H28 C4 0.930 . S
H29 C1 0.930 . S
H30 C10 0.930 . S
H31 C22 0.929 . S
H32 C25 0.930 . S
C33 C34 1.351 . S
C33 N36 1.368 . S
C33 H38 0.931 . S
C34 C33 1.351 . S
C34 N35 1.373 . S
C34 H62 0.930 . S
N35 C34 1.373 . S
N35 C37 1.340 . S
N36 C33 1.368 . S
N36 C37 1.321 . S
N36 Co39 2.135 . S
C37 N35 1.340 . S
C37 N36 1.321 . S
C37 H61 0.930 . S
H38 C33 0.931 . S
Co39 N36 2.135 . S
Co39 N42 2.121 . S
Co39 O47 2.055 . S
Co39 O50 2.039 . S
Co39 N53 2.140 . S
C40 O41 1.227 . S
C40 O50 1.265 . S
O41 C40 1.227 . S
N42 Co39 2.121 . S
N42 C44 1.375 . S
N42 C45 1.313 . S
C43 C44 1.338 . S
C43 N46 1.377 . S
C43 H63 0.930 . S
C44 N42 1.375 . S
C44 C43 1.338 . S
C44 H48 0.931 . S
C45 N42 1.313 . S
C45 N46 1.344 . S
C45 H49 0.930 . S
N46 C43 1.377 . S
N46 C45 1.344 . S
O47 Co39 2.055 . S
O47 C51 1.253 . S
H48 C44 0.931 . S
H49 C45 0.930 . S
O50 Co39 2.039 . S
O50 C40 1.265 . S
C51 O47 1.253 . S
C51 O52 1.227 . S
O52 C51 1.227 . S
N53 Co39 2.140 . S
N53 C56 1.346 . S
N53 C57 1.345 . S
C54 C55 1.387 . S
C54 C58 1.391 . S
C55 C54 1.387 . S
C55 C56 1.369 . S
C55 H64 0.929 . S
C56 N53 1.346 . S
C56 C55 1.369 . S
C56 H59 0.928 . S
C57 N53 1.345 . S
C57 C58 1.371 . S
C57 H60 0.931 . S
C58 C54 1.391 . S
C58 C57 1.371 . S
C58 H65 0.930 . S
H59 C56 0.928 . S
H60 C57 0.931 . S
H61 C37 0.930 . S
H62 C34 0.930 . S
H63 C43 0.930 . S
H64 C55 0.929 . S
H65 C58 0.930 . S
C66 C67 1.351 . S
C66 N69 1.368 . S
C66 H71 0.931 . S
C67 C66 1.351 . S
C67 N68 1.373 . S
C67 H95 0.930 . S
N68 C67 1.373 . S
N68 C70 1.340 . S
N69 C66 1.368 . S
N69 C70 1.321 . S
N69 Co72 2.135 . S
C70 N68 1.340 . S
C70 N69 1.321 . S
C70 H94 0.930 . S
H71 C66 0.931 . S
Co72 N69 2.135 . S
Co72 N75 2.121 . S
Co72 O80 2.055 . S
Co72 O83 2.039 . S
Co72 N86 2.140 . S
C73 O74 1.227 . S
C73 O83 1.265 . S
O74 C73 1.227 . S
N75 Co72 2.121 . S
N75 C77 1.375 . S
N75 C78 1.313 . S
C76 C77 1.338 . S
C76 N79 1.377 . S
C76 H96 0.930 . S
C77 N75 1.375 . S
C77 C76 1.338 . S
C77 H81 0.931 . S
C78 N75 1.313 . S
C78 N79 1.344 . S
C78 H82 0.930 . S
N79 C76 1.377 . S
N79 C78 1.344 . S
O80 Co72 2.055 . S
O80 C84 1.253 . S
H81 C77 0.931 . S
H82 C78 0.930 . S
O83 Co72 2.039 . S
O83 C73 1.265 . S
C84 O80 1.253 . S
C84 O85 1.227 . S
O85 C84 1.227 . S
N86 Co72 2.140 . S
N86 C89 1.346 . S
N86 C90 1.345 . S
C87 C88 1.387 . S
C87 C91 1.391 . S
C88 C87 1.387 . S
C88 C89 1.369 . S
C88 H97 0.929 . S
C89 N86 1.346 . S
C89 C88 1.369 . S
C89 H92 0.928 . S
C90 N86 1.345 . S
C90 C91 1.371 . S
C90 H93 0.931 . S
C91 C87 1.391 . S
C91 C90 1.371 . S
C91 H98 0.930 . S
H92 C89 0.928 . S
H93 C90 0.931 . S
H94 C70 0.930 . S
H95 C67 0.930 . S
H96 C76 0.930 . S
H97 C88 0.929 . S
H98 C91 0.930 . S
C99 C100 1.351 . S
C99 N102 1.368 . S
C99 H104 0.931 . S
C100 C99 1.351 . S
C100 N101 1.373 . S
C100 H128 0.930 . S
N101 C100 1.373 . S
N101 C103 1.340 . S
N102 C99 1.368 . S
N102 C103 1.321 . S
N102 Co105 2.135 . S
C103 N101 1.340 . S
C103 N102 1.321 . S
C103 H127 0.930 . S
H104 C99 0.931 . S
Co105 N102 2.135 . S
Co105 N108 2.121 . S
Co105 O113 2.055 . S
Co105 O116 2.039 . S
Co105 N119 2.140 . S
C106 O107 1.227 . S
C106 O116 1.265 . S
O107 C106 1.227 . S
N108 Co105 2.121 . S
N108 C110 1.375 . S
N108 C111 1.313 . S
C109 C110 1.338 . S
C109 N112 1.377 . S
C109 H129 0.930 . S
C110 N108 1.375 . S
C110 C109 1.338 . S
C110 H114 0.931 . S
C111 N108 1.313 . S
C111 N112 1.344 . S
C111 H115 0.930 . S
N112 C109 1.377 . S
N112 C111 1.344 . S
O113 Co105 2.055 . S
O113 C117 1.253 . S
H114 C110 0.931 . S
H115 C111 0.930 . S
O116 Co105 2.039 . S
O116 C106 1.265 . S
C117 O113 1.253 . S
C117 O118 1.227 . S
O118 C117 1.227 . S
N119 Co105 2.140 . S
N119 C122 1.346 . S
N119 C123 1.345 1_455 S
C120 C121 1.387 . S
C120 C124 1.391 . S
C121 C120 1.387 . S
C121 C122 1.369 1_655 S
C121 H130 0.929 . S
C122 N119 1.346 . S
C122 C121 1.369 1_455 S
C122 H125 0.928 . S
C123 N119 1.345 1_655 S
C123 C124 1.371 . S
C123 H126 0.931 . S
C124 C120 1.391 . S
C124 C123 1.371 . S
C124 H131 0.930 . S
H125 C122 0.928 . S
H126 C123 0.931 . S
H127 C103 0.930 . S
H128 C100 0.930 . S
H129 C109 0.930 . S
H130 C121 0.929 . S
H131 C124 0.930 . S
C132 C133 1.351 . S
C132 N135 1.368 . S
C132 H137 0.931 . S
C133 C132 1.351 . S
C133 N134 1.373 . S
C133 H161 0.930 . S
N134 C133 1.373 . S
N134 C136 1.340 . S
N135 C132 1.368 . S
N135 C136 1.321 . S
N135 Co138 2.135 1_655 S
C136 N134 1.340 . S
C136 N135 1.321 . S
C136 H160 0.930 . S
H137 C132 0.931 . S
Co138 N135 2.135 1_455 S
Co138 N141 2.121 . S
Co138 O146 2.055 . S
Co138 O149 2.039 . S
Co138 N152 2.140 . S
C139 O140 1.227 . S
C139 O149 1.265 . S
O140 C139 1.227 . S
N141 Co138 2.121 . S
N141 C143 1.375 . S
N141 C144 1.313 . S
C142 C143 1.338 . S
C142 N145 1.377 . S
C142 H162 0.930 . S
C143 N141 1.375 . S
C143 C142 1.338 . S
C143 H147 0.931 . S
C144 N141 1.313 . S
C144 N145 1.344 . S
C144 H148 0.930 . S
N145 C142 1.377 . S
N145 C144 1.344 . S
O146 Co138 2.055 . S
O146 C150 1.253 . S
H147 C143 0.931 . S
H148 C144 0.930 . S
O149 Co138 2.039 . S
O149 C139 1.265 . S
C150 O146 1.253 . S
C150 O151 1.227 . S
O151 C150 1.227 . S
N152 Co138 2.140 . S
N152 C155 1.346 . S
N152 C156 1.345 . S
C153 C154 1.387 . S
C153 C157 1.391 . S
C154 C153 1.387 . S
C154 C155 1.369 . S
C154 H163 0.929 1_455 S
C155 N152 1.346 . S
C155 C154 1.369 . S
C155 H158 0.928 1_455 S
C156 N152 1.345 . S
C156 C157 1.371 . S
C156 H159 0.931 . S
C157 C153 1.391 . S
C157 C156 1.371 . S
C157 H164 0.930 . S
H158 C155 0.928 1_655 S
H159 C156 0.931 . S
H160 C136 0.930 . S
H161 C133 0.930 . S
H162 C142 0.930 . S
H163 C154 0.929 1_655 S
H164 C157 0.930 . S
C165 C166 1.351 . S
C165 N168 1.368 1_655 S
C165 H170 0.931 . S
C166 C165 1.351 . S
C166 N167 1.373 1_655 S
C166 H194 0.930 . S
N167 C166 1.373 1_455 S
N167 C169 1.340 . S
N168 C165 1.368 1_455 S
N168 C169 1.321 . S
N168 Co171 2.135 . S
C169 N167 1.340 . S
C169 N168 1.321 . S
C169 H193 0.930 . S
H170 C165 0.931 . S
Co171 N168 2.135 . S
Co171 N174 2.121 . S
Co171 O179 2.055 . S
Co171 O182 2.039 . S
Co171 N185 2.140 1_455 S
C172 O173 1.227 . S
C172 O182 1.265 . S
O173 C172 1.227 . S
N174 Co171 2.121 . S
N174 C176 1.375 . S
N174 C177 1.313 . S
C175 C176 1.338 . S
C175 N178 1.377 . S
C175 H195 0.930 . S
C176 N174 1.375 . S
C176 C175 1.338 . S
C176 H180 0.931 . S
C177 N174 1.313 . S
C177 N178 1.344 . S
C177 H181 0.930 . S
N178 C175 1.377 . S
N178 C177 1.344 . S
O179 Co171 2.055 . S
O179 C183 1.253 . S
H180 C176 0.931 . S
H181 C177 0.930 . S
O182 Co171 2.039 . S
O182 C172 1.265 . S
C183 O179 1.253 . S
C183 O184 1.227 1_455 S
O184 C183 1.227 1_655 S
N185 Co171 2.140 1_655 S
N185 C188 1.346 . S
N185 C189 1.345 . S
C186 C187 1.387 . S
C186 C190 1.391 . S
C187 C186 1.387 . S
C187 C188 1.369 . S
C187 H196 0.929 . S
C188 N185 1.346 . S
C188 C187 1.369 . S
C188 H191 0.928 . S
C189 N185 1.345 . S
C189 C190 1.371 . S
C189 H192 0.931 . S
C190 C186 1.391 . S
C190 C189 1.371 . S
C190 H197 0.930 . S
H191 C188 0.928 . S
H192 C189 0.931 . S
H193 C169 0.930 . S
H194 C166 0.930 . S
H195 C175 0.930 . S
H196 C187 0.929 . S
H197 C190 0.930 . S
C198 C199 1.351 . S
C198 N201 1.368 . S
C198 H203 0.931 . S
C199 C198 1.351 . S
C199 N200 1.373 . S
C199 H227 0.930 . S
N200 C199 1.373 . S
N200 C202 1.340 . S
N201 C198 1.368 . S
N201 C202 1.321 . S
N201 Co204 2.135 . S
C202 N200 1.340 . S
C202 N201 1.321 . S
C202 H226 0.930 . S
H203 C198 0.931 . S
Co204 N201 2.135 . S
Co204 N207 2.121 . S
Co204 O212 2.055 . S
Co204 O215 2.039 . S
Co204 N218 2.140 . S
C205 O206 1.227 . S
C205 O215 1.265 . S
O206 C205 1.227 . S
N207 Co204 2.121 . S
N207 C209 1.375 . S
N207 C210 1.313 . S
C208 C209 1.338 . S
C208 N211 1.377 . S
C208 H228 0.930 . S
C209 N207 1.375 . S
C209 C208 1.338 . S
C209 H213 0.931 . S
C210 N207 1.313 . S
C210 N211 1.344 . S
C210 H214 0.930 . S
N211 C208 1.377 . S
N211 C210 1.344 . S
O212 Co204 2.055 . S
O212 C216 1.253 . S
H213 C209 0.931 . S
H214 C210 0.930 . S
O215 Co204 2.039 . S
O215 C205 1.265 . S
C216 O212 1.253 . S
C216 O217 1.227 . S
O217 C216 1.227 . S
N218 Co204 2.140 . S
N218 C221 1.346 . S
N218 C222 1.345 . S
C219 C220 1.387 . S
C219 C223 1.391 . S
C220 C219 1.387 . S
C220 C221 1.369 . S
C220 H229 0.929 . S
C221 N218 1.346 . S
C221 C220 1.369 . S
C221 H224 0.928 . S
C222 N218 1.345 . S
C222 C223 1.371 . S
C222 H225 0.931 . S
C223 C219 1.391 . S
C223 C222 1.371 . S
C223 H230 0.930 . S
H224 C221 0.928 . S
H225 C222 0.931 . S
H226 C202 0.930 . S
H227 C199 0.930 . S
H228 C208 0.930 . S
H229 C220 0.929 . S
H230 C223 0.930 . S
C231 C232 1.351 . S
C231 N234 1.368 . S
C231 H236 0.931 . S
C232 C231 1.351 . S
C232 N233 1.373 . S
C232 H260 0.930 . S
N233 C232 1.373 . S
N233 C235 1.340 . S
N234 C231 1.368 . S
N234 C235 1.321 . S
N234 Co237 2.135 . S
C235 N233 1.340 . S
C235 N234 1.321 . S
C235 H259 0.930 . S
H236 C231 0.931 . S
Co237 N234 2.135 . S
Co237 N240 2.121 . S
Co237 O245 2.055 . S
Co237 O248 2.039 . S
Co237 N251 2.140 . S
C238 O239 1.227 . S
C238 O248 1.265 . S
O239 C238 1.227 . S
N240 Co237 2.121 . S
N240 C242 1.375 . S
N240 C243 1.313 . S
C241 C242 1.338 . S
C241 N244 1.377 . S
C241 H261 0.930 . S
C242 N240 1.375 . S
C242 C241 1.338 . S
C242 H246 0.931 . S
C243 N240 1.313 . S
C243 N244 1.344 . S
C243 H247 0.930 . S
N244 C241 1.377 . S
N244 C243 1.344 . S
O245 Co237 2.055 . S
O245 C249 1.253 . S
H246 C242 0.931 . S
H247 C243 0.930 . S
O248 Co237 2.039 . S
O248 C238 1.265 . S
C249 O245 1.253 . S
C249 O250 1.227 . S
O250 C249 1.227 . S
N251 Co237 2.140 . S
N251 C254 1.346 . S
N251 C255 1.345 . S
C252 C253 1.387 . S
C252 C256 1.391 . S
C253 C252 1.387 . S
C253 C254 1.369 . S
C253 H262 0.929 . S
C254 N251 1.346 . S
C254 C253 1.369 . S
C254 H257 0.928 . S
C255 N251 1.345 . S
C255 C256 1.371 . S
C255 H258 0.931 . S
C256 C252 1.391 . S
C256 C255 1.371 . S
C256 H263 0.930 . S
H257 C254 0.928 . S
H258 C255 0.931 . S
H259 C235 0.930 . S
H260 C232 0.930 . S
H261 C241 0.930 . S
H262 C253 0.929 . S
H263 C256 0.930 . S
H264 C272 0.929 . S
H265 C274 0.930 . S
H266 C276 0.930 . S
H267 C279 0.929 . S
H268 C282 0.930 . S
H269 C284 0.960 . S
H270 C284 0.960 . S
H271 C284 0.960 . S
C272 H264 0.929 . S
C272 C273 1.377 . S
C272 C274 1.384 . S
C273 C272 1.377 . S
C273 C279 1.390 1_455 S
C274 H265 0.930 . S
C274 C272 1.384 . S
C274 C275 1.372 . S
C275 C274 1.372 . S
C275 C276 1.400 1_455 S
C275 C280 1.490 . S
C276 H266 0.930 . S
C276 C275 1.400 1_655 S
C276 C279 1.386 . S
H277 C293 0.930 . S
H278 C294 0.931 . S
C279 H267 0.929 . S
C279 C273 1.390 1_655 S
C279 C276 1.386 . S
C280 C275 1.490 . S
C280 C282 1.395 . S
C280 C283 1.403 1_455 S
H281 C287 0.930 . S
C282 H268 0.930 . S
C282 C280 1.395 . S
C282 C285 1.403 . S
C283 C280 1.403 1_655 S
C283 C284 1.524 . S
C283 C287 1.400 . S
C284 H269 0.960 . S
C284 H270 0.960 . S
C284 H271 0.960 . S
C284 C283 1.524 . S
C285 C282 1.403 . S
C285 C286 1.392 . S
C285 C289 1.495 . S
C286 C285 1.392 . S
C286 C287 1.385 1_455 S
C286 C288 1.478 . S
C287 H281 0.930 . S
C287 C283 1.400 . S
C287 C286 1.385 1_655 S
C288 C286 1.478 . S
C288 C290 1.381 . S
C288 C294 1.383 1_455 S
C289 C285 1.495 . S
C289 H295 0.959 . S
C289 H296 0.961 . S
C289 H297 0.960 . S
C290 C288 1.381 . S
C290 C291 1.394 . S
C290 H298 0.930 . S
C291 C290 1.394 . S
C291 C292 1.383 . S
C291 H299 0.929 . S
C292 C291 1.383 . S
C292 C293 1.377 1_455 S
C293 H277 0.930 . S
C293 C292 1.377 1_655 S
C293 C294 1.379 . S
C294 H278 0.931 . S
C294 C288 1.383 1_655 S
C294 C293 1.379 . S
H295 C289 0.959 . S
H296 C289 0.961 . S
H297 C289 0.960 . S
H298 C290 0.930 . S
H299 C291 0.929 . S
H300 C308 0.929 . S
H301 C310 0.930 . S
H302 C312 0.930 . S
H303 C315 0.929 . S
H304 C318 0.930 . S
H305 C320 0.960 . S
H306 C320 0.960 . S
H307 C320 0.960 . S
C308 H300 0.929 . S
C308 C309 1.377 . S
C308 C310 1.384 . S
C309 C308 1.377 . S
C309 C315 1.390 . S
C310 H301 0.930 . S
C310 C308 1.384 . S
C310 C311 1.372 . S
C311 C310 1.372 . S
C311 C312 1.400 . S
C311 C316 1.490 . S
C312 H302 0.930 . S
C312 C311 1.400 . S
C312 C315 1.386 . S
H313 C329 0.930 . S
H314 C330 0.931 . S
C315 H303 0.929 . S
C315 C309 1.390 . S
C315 C312 1.386 . S
C316 C311 1.490 . S
C316 C318 1.395 . S
C316 C319 1.403 . S
H317 C323 0.930 . S
C318 H304 0.930 . S
C318 C316 1.395 . S
C318 C321 1.403 . S
C319 C316 1.403 . S
C319 C320 1.524 . S
C319 C323 1.400 . S
C320 H305 0.960 . S
C320 H306 0.960 . S
C320 H307 0.960 . S
C320 C319 1.524 . S
C321 C318 1.403 . S
C321 C322 1.392 . S
C321 C325 1.495 . S
C322 C321 1.392 . S
C322 C323 1.385 . S
C322 C324 1.478 . S
C323 H317 0.930 . S
C323 C319 1.400 . S
C323 C322 1.385 . S
C324 C322 1.478 . S
C324 C326 1.381 . S
C324 C330 1.383 . S
C325 C321 1.495 . S
C325 H331 0.959 . S
C325 H332 0.961 . S
C325 H333 0.960 . S
C326 C324 1.381 . S
C326 C327 1.394 . S
C326 H334 0.930 . S
C327 C326 1.394 . S
C327 C328 1.383 . S
C327 H335 0.929 . S
C328 C327 1.383 . S
C328 C329 1.377 . S
C329 H313 0.930 . S
C329 C328 1.377 . S
C329 C330 1.379 . S
C330 H314 0.931 . S
C330 C324 1.383 . S
C330 C329 1.379 . S
H331 C325 0.959 . S
H332 C325 0.961 . S
H333 C325 0.960 . S
H334 C326 0.930 . S
H335 C327 0.929 . S
H336 C344 0.929 . S
H337 C346 0.930 . S
H338 C348 0.930 . S
H339 C351 0.929 . S
H340 C354 0.930 . S
H341 C356 0.960 . S
H342 C356 0.960 . S
H343 C356 0.960 . S
C344 H336 0.929 . S
C344 C345 1.377 . S
C344 C346 1.384 . S
C345 C344 1.377 . S
C345 C351 1.390 . S
C346 H337 0.930 . S
C346 C344 1.384 . S
C346 C347 1.372 . S
C347 C346 1.372 . S
C347 C348 1.400 . S
C347 C352 1.490 . S
C348 H338 0.930 . S
C348 C347 1.400 . S
C348 C351 1.386 . S
H349 C365 0.930 . S
H350 C366 0.931 . S
C351 H339 0.929 . S
C351 C345 1.390 . S
C351 C348 1.386 . S
C352 C347 1.490 . S
C352 C354 1.395 . S
C352 C355 1.403 . S
H353 C359 0.930 . S
C354 H340 0.930 . S
C354 C352 1.395 . S
C354 C357 1.403 . S
C355 C352 1.403 . S
C355 C356 1.524 . S
C355 C359 1.400 . S
C356 H341 0.960 . S
C356 H342 0.960 . S
C356 H343 0.960 . S
C356 C355 1.524 . S
C357 C354 1.403 . S
C357 C358 1.392 . S
C357 C361 1.495 . S
C358 C357 1.392 . S
C358 C359 1.385 . S
C358 C360 1.478 . S
C359 H353 0.930 . S
C359 C355 1.400 . S
C359 C358 1.385 . S
C360 C358 1.478 . S
C360 C362 1.381 . S
C360 C366 1.383 . S
C361 C357 1.495 . S
C361 H367 0.959 . S
C361 H368 0.961 . S
C361 H369 0.960 . S
C362 C360 1.381 . S
C362 C363 1.394 . S
C362 H370 0.930 . S
C363 C362 1.394 . S
C363 C364 1.383 . S
C363 H371 0.929 . S
C364 C363 1.383 . S
C364 C365 1.377 . S
C365 H349 0.930 . S
C365 C364 1.377 . S
C365 C366 1.379 . S
C366 H350 0.931 . S
C366 C360 1.383 . S
C366 C365 1.379 . S
H367 C361 0.959 . S
H368 C361 0.961 . S
H369 C361 0.960 . S
H370 C362 0.930 . S
H371 C363 0.929 . S
H372 C380 0.929 1_655 S
H373 C382 0.930 1_655 S
H374 C384 0.930 . S
H375 C387 0.929 . S
H376 C390 0.930 . S
H377 C392 0.960 . S
H378 C392 0.960 . S
H379 C392 0.960 . S
C380 H372 0.929 1_455 S
C380 C381 1.377 . S
C380 C382 1.384 . S
C381 C380 1.377 . S
C381 C387 1.390 . S
C382 H373 0.930 1_455 S
C382 C380 1.384 . S
C382 C383 1.372 . S
C383 C382 1.372 . S
C383 C384 1.400 . S
C383 C388 1.490 . S
C384 H374 0.930 . S
C384 C383 1.400 . S
C384 C387 1.386 . S
H385 C401 0.930 . S
H386 C402 0.931 . S
C387 H375 0.929 . S
C387 C381 1.390 . S
C387 C384 1.386 . S
C388 C383 1.490 . S
C388 C390 1.395 . S
C388 C391 1.403 . S
H389 C395 0.930 . S
C390 H376 0.930 . S
C390 C388 1.395 . S
C390 C393 1.403 . S
C391 C388 1.403 . S
C391 C392 1.524 . S
C391 C395 1.400 . S
C392 H377 0.960 . S
C392 H378 0.960 . S
C392 H379 0.960 . S
C392 C391 1.524 . S
C393 C390 1.403 . S
C393 C394 1.392 . S
C393 C397 1.495 . S
C394 C393 1.392 . S
C394 C395 1.385 . S
C394 C396 1.478 . S
C395 H389 0.930 . S
C395 C391 1.400 . S
C395 C394 1.385 . S
C396 C394 1.478 . S
C396 C398 1.381 . S
C396 C402 1.383 . S
C397 C393 1.495 . S
C397 H403 0.959 . S
C397 H404 0.961 . S
C397 H405 0.960 . S
C398 C396 1.381 . S
C398 C399 1.394 . S
C398 H406 0.922 1_455 S
C399 C398 1.394 . S
C399 C400 1.383 . S
C399 H407 0.929 . S
C400 C399 1.383 . S
C400 C401 1.377 . S
C401 H385 0.930 . S
C401 C400 1.377 . S
C401 C402 1.379 . S
C402 H386 0.931 . S
C402 C396 1.383 . S
C402 C401 1.379 . S
H403 C397 0.959 . S
H404 C397 0.961 . S
H405 C397 0.960 . S
H406 C398 0.922 1_655 S
H407 C399 0.929 . S
H408 C416 0.929 . S
H409 C418 0.930 . S
H410 C420 0.930 1_655 S
H411 C423 0.929 1_655 S
H412 C426 0.930 . S
H413 C428 0.960 1_556 S
H414 C428 0.960 . S
H415 C428 0.960 . S
C416 H408 0.929 . S
C416 C417 1.377 . S
C416 C418 1.384 . S
C417 C416 1.377 . S
C417 C423 1.390 . S
C418 H409 0.930 . S
C418 C416 1.384 . S
C418 C419 1.372 . S
C419 C418 1.372 . S
C419 C420 1.400 . S
C419 C424 1.490 . S
C420 H410 0.930 1_455 S
C420 C419 1.400 . S
C420 C423 1.386 . S
H421 C437 0.930 1_655 S
H422 C438 0.931 1_655 S
C423 H411 0.929 1_455 S
C423 C417 1.390 . S
C423 C420 1.386 . S
C424 C419 1.490 . S
C424 C426 1.395 . S
C424 C427 1.403 . S
H425 C431 0.930 . S
C426 H412 0.930 . S
C426 C424 1.395 . S
C426 C429 1.403 . S
C427 C424 1.403 . S
C427 C428 1.524 . S
C427 C431 1.400 1_554 S
C428 H413 0.960 1_554 S
C428 H414 0.960 . S
C428 H415 0.960 . S
C428 C427 1.524 . S
C429 C426 1.403 . S
C429 C430 1.392 1_554 S
C429 C433 1.495 . S
C430 C429 1.392 1_556 S
C430 C431 1.385 . S
C430 C432 1.478 . S
C431 H425 0.930 . S
C431 C427 1.400 1_556 S
C431 C430 1.385 . S
C432 C430 1.478 . S
C432 C434 1.381 . S
C432 C438 1.383 . S
C433 C429 1.495 . S
C433 H439 0.959 . S
C433 H440 1.011 . S
C433 H441 0.960 . S
C434 C432 1.381 . S
C434 C435 1.394 . S
C434 H442 0.930 . S
C435 C434 1.394 . S
C435 C436 1.383 . S
C435 H443 0.929 . S
C436 C435 1.383 . S
C436 C437 1.377 . S
C437 H421 0.930 1_455 S
C437 C436 1.377 . S
C437 C438 1.379 . S
C438 H422 0.931 1_455 S
C438 C432 1.383 . S
C438 C437 1.379 . S
H439 C433 0.959 . S
H440 C433 1.011 . S
H441 C433 0.960 . S
H442 C434 0.930 . S
H443 C435 0.929 . S
H444 C452 0.929 . S
H445 C454 0.930 . S
H446 C456 0.930 . S
H447 C459 0.929 . S
H448 C462 0.930 . S
H449 C464 0.960 . S
H450 C464 0.960 . S
H451 C464 0.960 . S
C452 H444 0.929 . S
C452 C453 1.377 . S
C452 C454 1.384 . S
C453 C452 1.377 . S
C453 C459 1.390 . S
C454 H445 0.930 . S
C454 C452 1.384 . S
C454 C455 1.372 . S
C455 C454 1.372 . S
C455 C456 1.400 . S
C455 C460 1.490 . S
C456 H446 0.930 . S
C456 C455 1.400 . S
C456 C459 1.386 . S
H457 C473 0.930 . S
H458 C474 0.931 . S
C459 H447 0.929 . S
C459 C453 1.390 . S
C459 C456 1.386 . S
C460 C455 1.490 . S
C460 C462 1.395 . S
C460 C463 1.403 . S
H461 C467 0.930 . S
C462 H448 0.930 . S
C462 C460 1.395 . S
C462 C465 1.403 . S
C463 C460 1.403 . S
C463 C464 1.524 . S
C463 C467 1.400 . S
C464 H449 0.960 . S
C464 H450 0.960 . S
C464 H451 0.960 . S
C464 C463 1.524 . S
C465 C462 1.403 . S
C465 C466 1.392 . S
C465 C469 1.495 . S
C466 C465 1.392 . S
C466 C467 1.385 . S
C466 C468 1.478 . S
C467 H461 0.930 . S
C467 C463 1.400 . S
C467 C466 1.385 . S
C468 C466 1.478 . S
C468 C470 1.381 . S
C468 C474 1.383 . S
C469 C465 1.495 . S
C469 H475 0.959 . S
C469 H476 0.961 . S
C469 H477 0.960 . S
C470 C468 1.381 . S
C470 C471 1.394 . S
C470 H478 0.930 . S
C471 C470 1.394 . S
C471 C472 1.383 . S
C471 H479 0.929 . S
C472 C471 1.383 . S
C472 C473 1.377 . S
C473 H457 0.930 . S
C473 C472 1.377 . S
C473 C474 1.379 . S
C474 H458 0.931 . S
C474 C468 1.383 . S
C474 C473 1.379 . S
H475 C469 0.959 . S
H476 C469 0.961 . S
H477 C469 0.960 . S
H478 C470 0.930 . S
H479 C471 0.929 . S
H480 C488 0.929 . S
H481 C490 0.930 . S
H482 C492 0.930 . S
H483 C495 0.929 . S
H484 C498 0.930 . S
H485 C500 0.960 . S
H486 C500 0.960 . S
H487 C500 0.960 . S
C488 H480 0.929 . S
C488 C489 1.377 . S
C488 C490 1.384 . S
C489 C488 1.377 . S
C489 C495 1.390 . S
C490 H481 0.930 . S
C490 C488 1.384 . S
C490 C491 1.372 . S
C491 C490 1.372 . S
C491 C492 1.400 . S
C491 C496 1.490 . S
C492 H482 0.930 . S
C492 C491 1.400 . S
C492 C495 1.386 . S
H493 C509 0.930 . S
H494 C510 0.931 . S
C495 H483 0.929 . S
C495 C489 1.390 . S
C495 C492 1.386 . S
C496 C491 1.490 . S
C496 C498 1.395 . S
C496 C499 1.403 . S
H497 C503 0.930 . S
C498 H484 0.930 . S
C498 C496 1.395 . S
C498 C501 1.403 . S
C499 C496 1.403 . S
C499 C500 1.524 . S
C499 C503 1.400 . S
C500 H485 0.960 . S
C500 H486 0.960 . S
C500 H487 0.960 . S
C500 C499 1.524 . S
C501 C498 1.403 . S
C501 C502 1.392 . S
C501 C505 1.495 . S
C502 C501 1.392 . S
C502 C503 1.385 . S
C502 C504 1.478 . S
C503 H497 0.930 . S
C503 C499 1.400 . S
C503 C502 1.385 . S
C504 C502 1.478 . S
C504 C506 1.381 . S
C504 C510 1.383 . S
C505 C501 1.495 . S
C505 H511 0.959 . S
C505 H512 0.961 . S
C505 H513 0.960 . S
C506 C504 1.381 . S
C506 C507 1.394 . S
C506 H514 0.930 . S
C507 C506 1.394 . S
C507 C508 1.383 . S
C507 H515 0.929 . S
C508 C507 1.383 . S
C508 C509 1.377 . S
C509 H493 0.930 . S
C509 C508 1.377 . S
C509 C510 1.379 . S
C510 H494 0.931 . S
C510 C504 1.383 . S
C510 C509 1.379 . S
H511 C505 0.959 . S
H512 C505 0.961 . S
H513 C505 0.960 . S
H514 C506 0.930 . S
H515 C507 0.929 . S
H516 C524 0.929 . S
H517 C526 0.930 . S
H518 C528 0.930 . S
H519 C531 0.929 . S
H520 C534 0.930 . S
H521 C536 0.960 . S
H522 C536 0.960 . S
H523 C536 0.960 . S
C524 H516 0.929 . S
C524 C525 1.377 . S
C524 C526 1.384 . S
C525 C524 1.377 . S
C525 C531 1.390 . S
C526 H517 0.930 . S
C526 C524 1.384 . S
C526 C527 1.372 . S
C527 C526 1.372 . S
C527 C528 1.400 . S
C527 C532 1.490 . S
C528 H518 0.930 . S
C528 C527 1.400 . S
C528 C531 1.386 . S
H529 C545 0.930 . S
H530 C546 0.931 . S
C531 H519 0.929 . S
C531 C525 1.390 . S
C531 C528 1.386 . S
C532 C527 1.490 . S
C532 C534 1.395 . S
C532 C535 1.403 . S
H533 C539 0.930 . S
C534 H520 0.930 . S
C534 C532 1.395 . S
C534 C537 1.403 . S
C535 C532 1.403 . S
C535 C536 1.524 . S
C535 C539 1.400 . S
C536 H521 0.960 . S
C536 H522 0.960 . S
C536 H523 0.960 . S
C536 C535 1.524 . S
C537 C534 1.403 . S
C537 C538 1.392 . S
C537 C541 1.495 . S
C538 C537 1.392 . S
C538 C539 1.385 . S
C538 C540 1.478 . S
C539 H533 0.930 . S
C539 C535 1.400 . S
C539 C538 1.385 . S
C540 C538 1.478 . S
C540 C542 1.381 . S
C540 C546 1.383 . S
C541 C537 1.495 . S
C541 H547 0.959 . S
C541 H548 0.961 . S
C541 H549 0.960 . S
C542 C540 1.381 . S
C542 C543 1.394 . S
C542 H550 0.930 . S
C543 C542 1.394 . S
C543 C544 1.383 . S
C543 H551 0.929 . S
C544 C543 1.383 . S
C544 C545 1.377 . S
C545 H529 0.930 . S
C545 C544 1.377 . S
C545 C546 1.379 . S
C546 H530 0.931 . S
C546 C540 1.383 . S
C546 C545 1.379 . S
H547 C541 0.959 . S
H548 C541 0.961 . S
H549 C541 0.960 . S
H550 C542 0.930 . S
H551 C543 0.929 . S
H552 C560 0.929 . S
H553 C562 0.930 . S
H554 C564 0.930 . S
H555 C567 0.929 . S
H556 C570 0.930 . S
H557 C572 0.960 . S
H558 C572 0.960 . S
H559 C572 0.960 . S
C560 H552 0.929 . S
C560 C561 1.377 . S
C560 C562 1.384 . S
C561 C560 1.377 . S
C561 C567 1.390 . S
C562 H553 0.930 . S
C562 C560 1.384 . S
C562 C563 1.372 . S
C563 C562 1.372 . S
C563 C564 1.400 . S
C563 C568 1.490 . S
C564 H554 0.930 . S
C564 C563 1.400 . S
C564 C567 1.386 . S
H565 C581 0.930 . S
H566 C582 0.931 . S
C567 H555 0.929 . S
C567 C561 1.390 . S
C567 C564 1.386 . S
C568 C563 1.490 . S
C568 C570 1.395 . S
C568 C571 1.403 . S
H569 C575 0.930 . S
C570 H556 0.930 . S
C570 C568 1.395 . S
C570 C573 1.403 . S
C571 C568 1.403 . S
C571 C572 1.524 . S
C571 C575 1.400 . S
C572 H557 0.960 . S
C572 H558 0.960 . S
C572 H559 0.960 . S
C572 C571 1.524 . S
C573 C570 1.403 . S
C573 C574 1.392 . S
C573 C577 1.495 . S
C574 C573 1.392 . S
C574 C575 1.385 . S
C574 C576 1.478 . S
C575 H569 0.930 . S
C575 C571 1.400 . S
C575 C574 1.385 . S
C576 C574 1.478 . S
C576 C578 1.381 . S
C576 C582 1.383 . S
C577 C573 1.495 . S
C577 H583 0.959 . S
C577 H584 0.961 . S
C577 H585 0.960 . S
C578 C576 1.381 . S
C578 C579 1.394 . S
C578 H586 0.930 . S
C579 C578 1.394 . S
C579 C580 1.383 . S
C579 H587 0.929 . S
C580 C579 1.383 . S
C580 C581 1.377 . S
C581 H565 0.930 . S
C581 C580 1.377 . S
C581 C582 1.379 . S
C582 H566 0.931 . S
C582 C576 1.383 . S
C582 C581 1.379 . S
H583 C577 0.959 . S
H584 C577 0.961 . S
H585 C577 0.960 . S
H586 C578 0.930 . S
H587 C579 0.929 . S
H588 C596 0.929 . S
H589 C598 0.930 . S
H590 C600 0.930 . S
H591 C603 0.929 . S
H592 C606 0.930 . S
H593 C608 0.960 . S
H594 C608 0.960 . S
H595 C608 0.960 . S
C596 H588 0.929 . S
C596 C597 1.377 . S
C596 C598 1.384 . S
C597 C596 1.377 . S
C597 C603 1.390 . S
C598 H589 0.930 . S
C598 C596 1.384 . S
C598 C599 1.372 . S
C599 C598 1.372 . S
C599 C600 1.400 . S
C599 C604 1.490 . S
C600 H590 0.930 . S
C600 C599 1.400 . S
C600 C603 1.386 . S
H601 C617 0.930 . S
H602 C618 0.931 . S
C603 H591 0.929 . S
C603 C597 1.390 . S
C603 C600 1.386 . S
C604 C599 1.490 . S
C604 C606 1.395 . S
C604 C607 1.403 . S
H605 C611 0.930 . S
C606 H592 0.930 . S
C606 C604 1.395 . S
C606 C609 1.403 . S
C607 C604 1.403 . S
C607 C608 1.524 . S
C607 C611 1.400 . S
C608 H593 0.960 . S
C608 H594 0.960 . S
C608 H595 0.960 . S
C608 C607 1.524 . S
C609 C606 1.403 . S
C609 C610 1.392 . S
C609 C613 1.495 . S
C610 C609 1.392 . S
C610 C611 1.385 . S
C610 C612 1.478 . S
C611 H605 0.930 . S
C611 C607 1.400 . S
C611 C610 1.385 . S
C612 C610 1.478 . S
C612 C614 1.381 . S
C612 C618 1.383 . S
C613 C609 1.495 . S
C613 H619 0.959 . S
C613 H620 0.961 . S
C613 H621 0.960 . S
C614 C612 1.381 . S
C614 C615 1.394 . S
C614 H622 0.930 . S
C615 C614 1.394 . S
C615 C616 1.383 . S
C615 H623 0.929 . S
C616 C615 1.383 . S
C616 C617 1.377 . S
C617 H601 0.930 . S
C617 C616 1.377 . S
C617 C618 1.379 . S
C618 H602 0.931 . S
C618 C612 1.383 . S
C618 C617 1.379 . S
H619 C613 0.959 . S
H620 C613 0.961 . S
H621 C613 0.960 . S
H622 C614 0.930 . S
H623 C615 0.929 . S
H624 C632 0.929 . S
H625 C634 0.930 . S
H626 C636 0.930 . S
H627 C639 0.929 . S
H628 C642 0.930 . S
H629 C644 0.960 . S
H630 C644 0.960 . S
H631 C644 0.960 1_565 S
C632 H624 0.929 . S
C632 C633 1.377 . S
C632 C634 1.384 . S
C633 C632 1.377 . S
C633 C639 1.390 . S
C634 H625 0.930 . S
C634 C632 1.384 . S
C634 C635 1.372 . S
C635 C634 1.372 . S
C635 C636 1.400 . S
C635 C640 1.490 . S
C636 H626 0.930 . S
C636 C635 1.400 . S
C636 C639 1.386 . S
H637 C653 0.930 . S
H638 C654 0.931 . S
C639 H627 0.929 . S
C639 C633 1.390 . S
C639 C636 1.386 . S
C640 C635 1.490 . S
C640 C642 1.395 . S
C640 C643 1.403 1_565 S
H641 C647 0.930 . S
C642 H628 0.930 . S
C642 C640 1.395 . S
C642 C645 1.403 1_565 S
C643 C640 1.403 1_545 S
C643 C644 1.524 . S
C643 C647 1.400 . S
C644 H629 0.960 . S
C644 H630 0.960 . S
C644 H631 0.960 1_545 S
C644 C643 1.524 . S
C645 C642 1.403 1_545 S
C645 C646 1.392 . S
C645 C649 1.495 . S
C646 C645 1.392 . S
C646 C647 1.385 . S
C646 C648 1.478 . S
C647 H641 0.930 . S
C647 C643 1.400 . S
C647 C646 1.385 . S
C648 C646 1.478 . S
C648 C650 1.381 . S
C648 C654 1.383 . S
C649 C645 1.495 . S
C649 H655 0.959 1_545 S
C649 H656 0.961 . S
C649 H657 0.960 . S
C650 C648 1.381 . S
C650 C651 1.394 . S
C650 H658 0.930 . S
C651 C650 1.394 . S
C651 C652 1.383 . S
C651 H659 0.929 . S
C652 C651 1.383 . S
C652 C653 1.377 . S
C653 H637 0.930 . S
C653 C652 1.377 . S
C653 C654 1.379 . S
C654 H638 0.931 . S
C654 C648 1.383 . S
C654 C653 1.379 . S
H655 C649 0.959 1_565 S
H656 C649 0.961 . S
H657 C649 0.960 . S
H658 C650 0.930 . S
H659 C651 0.929 . S
H660 C668 0.929 1_545 S
H661 C670 0.930 . S
H662 C672 0.920 1_655 S
H663 C675 0.940 . S
H664 C678 0.930 . S
H665 C680 0.960 . S
H666 C680 0.960 . S
H667 C680 0.960 . S
C668 H660 0.929 1_565 S
C668 C669 1.377 . S
C668 C670 1.384 1_565 S
C669 C668 1.377 . S
C669 C675 1.381 1_455 S
C670 H661 0.930 . S
C670 C668 1.384 1_545 S
C670 C671 1.372 1_545 S
C671 C670 1.372 1_565 S
C671 C672 1.411 . S
C671 C676 1.490 1_565 S
C672 H662 0.920 1_455 S
C672 C671 1.411 . S
C672 C675 1.382 1_455 S
H673 C689 0.930 1_655 S
H674 C690 0.931 1_665 S
C675 H663 0.940 . S
C675 C669 1.381 1_655 S
C675 C672 1.382 1_655 S
C676 C671 1.490 1_545 S
C676 C678 1.395 1_545 S
C676 C679 1.403 1_455 S
H677 C683 0.930 1_655 S
C678 H664 0.930 . S
C678 C676 1.395 1_565 S
C678 C681 1.403 1_564 S
C679 C676 1.403 1_655 S
C679 C680 1.524 . S
C679 C683 1.400 1_654 S
C680 H665 0.960 . S
C680 H666 0.960 . S
C680 H667 0.960 . S
C680 C679 1.524 . S
C681 C678 1.403 1_546 S
C681 C682 1.392 . S
C681 C685 1.495 . S
C682 C681 1.392 . S
C682 C683 1.385 . S
C682 C684 1.478 . S
C683 H677 0.930 1_455 S
C683 C679 1.400 1_456 S
C683 C682 1.385 . S
C684 C682 1.478 . S
C684 C686 1.381 . S
C684 C690 1.383 . S
C685 C681 1.495 . S
C685 H691 0.959 1_545 S
C685 H692 0.961 1_545 S
C685 H693 0.960 . S
C686 C684 1.381 . S
C686 C687 1.394 . S
C686 H694 0.930 . S
C687 C686 1.394 . S
C687 C688 1.383 . S
C687 H695 0.929 . S
C688 C687 1.383 . S
C688 C689 1.377 . S
C689 H673 0.930 1_455 S
C689 C688 1.377 . S
C689 C690 1.379 . S
C690 H674 0.931 1_445 S
C690 C684 1.383 . S
C690 C689 1.379 . S
H691 C685 0.959 1_565 S
H692 C685 0.961 1_565 S
H693 C685 0.960 . S
H694 C686 0.930 . S
H695 C687 0.929 . S
H696 C704 0.929 . S
H697 C706 0.930 . S
H698 C708 0.930 . S
H699 C711 0.929 . S
H700 C714 0.930 . S
H701 C716 0.960 . S
H702 C716 0.960 . S
H703 C716 0.960 . S
C704 H696 0.929 . S
C704 C705 1.377 . S
C704 C706 1.384 . S
C705 C704 1.377 . S
C705 C711 1.390 . S
C706 H697 0.930 . S
C706 C704 1.384 . S
C706 C707 1.372 . S
C707 C706 1.372 . S
C707 C708 1.400 . S
C707 C712 1.490 . S
C708 H698 0.930 . S
C708 C707 1.400 . S
C708 C711 1.386 . S
H709 C725 0.930 . S
H710 C726 0.931 . S
C711 H699 0.929 . S
C711 C705 1.390 . S
C711 C708 1.386 . S
C712 C707 1.490 . S
C712 C714 1.395 . S
C712 C715 1.403 . S
H713 C719 0.930 . S
C714 H700 0.930 . S
C714 C712 1.395 . S
C714 C717 1.403 . S
C715 C712 1.403 . S
C715 C716 1.524 . S
C715 C719 1.400 . S
C716 H701 0.960 . S
C716 H702 0.960 . S
C716 H703 0.960 . S
C716 C715 1.524 . S
C717 C714 1.403 . S
C717 C718 1.392 . S
C717 C721 1.495 . S
C718 C717 1.392 . S
C718 C719 1.385 . S
C718 C720 1.478 . S
C719 H713 0.930 . S
C719 C715 1.400 . S
C719 C718 1.385 . S
C720 C718 1.478 . S
C720 C722 1.381 . S
C720 C726 1.383 . S
C721 C717 1.495 . S
C721 H727 0.959 . S
C721 H728 0.961 . S
C721 H729 0.960 . S
C722 C720 1.381 . S
C722 C723 1.394 . S
C722 H730 0.930 . S
C723 C722 1.394 . S
C723 C724 1.383 . S
C723 H731 0.929 . S
C724 C723 1.383 . S
C724 C725 1.377 . S
C725 H709 0.930 . S
C725 C724 1.377 . S
C725 C726 1.379 . S
C726 H710 0.931 . S
C726 C720 1.383 . S
C726 C725 1.379 . S
H727 C721 0.959 . S
H728 C721 0.961 . S
H729 C721 0.960 . S
H730 C722 0.930 . S
H731 C723 0.929 . S
H732 C740 0.929 . S
H733 C742 0.930 . S
H734 C744 0.930 . S
H735 C747 0.929 . S
H736 C750 0.930 . S
H737 C752 0.960 . S
H738 C752 0.960 . S
H739 C752 0.960 . S
C740 H732 0.929 . S
C740 C741 1.377 . S
C740 C742 1.384 . S
C741 C740 1.377 . S
C741 C747 1.390 . S
C742 H733 0.930 . S
C742 C740 1.384 . S
C742 C743 1.372 . S
C743 C742 1.372 . S
C743 C744 1.400 . S
C743 C748 1.490 . S
C744 H734 0.930 . S
C744 C743 1.400 . S
C744 C747 1.386 . S
H745 C761 0.930 . S
H746 C762 0.931 . S
C747 H735 0.929 . S
C747 C741 1.390 . S
C747 C744 1.386 . S
C748 C743 1.490 . S
C748 C750 1.395 . S
C748 C751 1.403 . S
H749 C755 0.930 . S
C750 H736 0.930 . S
C750 C748 1.395 . S
C750 C753 1.403 . S
C751 C748 1.403 . S
C751 C752 1.524 . S
C751 C755 1.400 . S
C752 H737 0.960 . S
C752 H738 0.960 . S
C752 H739 0.960 . S
C752 C751 1.524 . S
C753 C750 1.403 . S
C753 C754 1.392 . S
C753 C757 1.495 . S
C754 C753 1.392 . S
C754 C755 1.385 . S
C754 C756 1.478 . S
C755 H749 0.930 . S
C755 C751 1.400 . S
C755 C754 1.385 . S
C756 C754 1.478 . S
C756 C758 1.381 . S
C756 C762 1.383 . S
C757 C753 1.495 . S
C757 H763 0.959 . S
C757 H764 0.961 . S
C757 H765 0.960 . S
C758 C756 1.381 . S
C758 C759 1.394 . S
C758 H766 0.930 . S
C759 C758 1.394 . S
C759 C760 1.383 . S
C759 H767 0.929 . S
C760 C759 1.383 . S
C760 C761 1.377 . S
C761 H745 0.930 . S
C761 C760 1.377 . S
C761 C762 1.379 . S
C762 H746 0.931 . S
C762 C756 1.383 . S
C762 C761 1.379 . S
H763 C757 0.959 . S
H764 C757 0.961 . S
H765 C757 0.960 . S
H766 C758 0.930 . S
H767 C759 0.929 . S
H768 C776 0.929 . S
H769 C778 0.930 . S
H770 C780 0.930 . S
H771 C783 0.929 . S
H772 C786 0.930 . S
H773 C788 0.960 . S
H774 C788 0.960 . S
H775 C788 0.960 . S
C776 H768 0.929 . S
C776 C777 1.377 . S
C776 C778 1.384 . S
C777 C776 1.377 . S
C777 C783 1.390 . S
C778 H769 0.930 . S
C778 C776 1.384 . S
C778 C779 1.372 . S
C779 C778 1.372 . S
C779 C780 1.400 . S
C779 C784 1.490 . S
C780 H770 0.930 . S
C780 C779 1.400 . S
C780 C783 1.386 . S
H781 C797 0.930 . S
H782 C798 0.931 . S
C783 H771 0.929 . S
C783 C777 1.390 . S
C783 C780 1.386 . S
C784 C779 1.490 . S
C784 C786 1.395 . S
C784 C787 1.403 . S
H785 C791 0.930 1_655 S
C786 H772 0.930 . S
C786 C784 1.395 . S
C786 C789 1.403 . S
C787 C784 1.403 . S
C787 C788 1.524 . S
C787 C791 1.400 . S
C788 H773 0.960 . S
C788 H774 0.960 . S
C788 H775 0.960 . S
C788 C787 1.524 . S
C789 C786 1.403 . S
C789 C790 1.392 1_455 S
C789 C793 1.495 1_455 S
C790 C789 1.392 1_655 S
C790 C791 1.385 1_655 S
C790 C792 1.478 . S
C791 H785 0.930 1_455 S
C791 C787 1.400 . S
C791 C790 1.385 1_455 S
C792 C790 1.478 . S
C792 C794 1.381 . S
C792 C798 1.383 . S
C793 C789 1.495 1_655 S
C793 H799 0.959 1_655 S
C793 H800 0.961 . S
C793 H801 0.960 . S
C794 C792 1.381 . S
C794 C795 1.394 . S
C794 H802 0.930 . S
C795 C794 1.394 . S
C795 C796 1.383 . S
C795 H803 0.929 . S
C796 C795 1.383 . S
C796 C797 1.377 . S
C797 H781 0.930 . S
C797 C796 1.377 . S
C797 C798 1.379 . S
C798 H782 0.931 . S
C798 C792 1.383 . S
C798 C797 1.379 . S
H799 C793 0.959 1_455 S
H800 C793 0.961 . S
H801 C793 0.960 . S
H802 C794 0.930 . S
H803 C795 0.929 . S
H804 C812 0.929 . S
H805 C814 0.930 . S
H806 C816 0.930 . S
H807 C819 0.929 . S
H808 C822 0.930 . S
H809 C824 0.960 . S
H810 C824 0.960 . S
H811 C824 0.960 . S
C812 H804 0.929 . S
C812 C813 1.377 . S
C812 C814 1.384 . S
C813 C812 1.377 . S
C813 C819 1.390 . S
C814 H805 0.930 . S
C814 C812 1.384 . S
C814 C815 1.372 . S
C815 C814 1.372 . S
C815 C816 1.400 . S
C815 C820 1.490 . S
C816 H806 0.930 . S
C816 C815 1.400 . S
C816 C819 1.386 . S
H817 C833 0.930 . S
H818 C834 0.931 . S
C819 H807 0.929 . S
C819 C813 1.390 . S
C819 C816 1.386 . S
C820 C815 1.490 . S
C820 C822 1.395 . S
C820 C823 1.403 . S
H821 C827 0.930 . S
C822 H808 0.930 . S
C822 C820 1.395 . S
C822 C825 1.403 . S
C823 C820 1.403 . S
C823 C824 1.524 . S
C823 C827 1.400 . S
C824 H809 0.960 . S
C824 H810 0.960 . S
C824 H811 0.960 . S
C824 C823 1.524 . S
C825 C822 1.403 . S
C825 C826 1.392 . S
C825 C829 1.495 . S
C826 C825 1.392 . S
C826 C827 1.385 . S
C826 C828 1.478 . S
C827 H821 0.930 . S
C827 C823 1.400 . S
C827 C826 1.385 . S
C828 C826 1.478 . S
C828 C830 1.381 . S
C828 C834 1.383 . S
C829 C825 1.495 . S
C829 H835 0.959 . S
C829 H836 0.961 . S
C829 H837 0.960 . S
C830 C828 1.381 . S
C830 C831 1.394 . S
C830 H838 0.930 . S
C831 C830 1.394 . S
C831 C832 1.383 . S
C831 H839 0.929 . S
C832 C831 1.383 . S
C832 C833 1.377 . S
C833 H817 0.930 . S
C833 C832 1.377 . S
C833 C834 1.379 . S
C834 H818 0.931 . S
C834 C828 1.383 . S
C834 C833 1.379 . S
H835 C829 0.959 . S
H836 C829 0.961 . S
H837 C829 0.960 . S
H838 C830 0.930 . S
H839 C831 0.929 . S
H840 C848 0.929 . S
H841 C850 0.930 . S
H842 C852 0.930 . S
H843 C855 0.929 . S
H844 C858 0.930 . S
H845 C860 0.960 . S
H846 C860 0.960 . S
H847 C860 0.960 . S
C848 H840 0.929 . S
C848 C849 1.377 . S
C848 C850 1.384 . S
C849 C848 1.377 . S
C849 C855 1.390 . S
C850 H841 0.930 . S
C850 C848 1.384 . S
C850 C851 1.372 . S
C851 C850 1.372 . S
C851 C852 1.400 . S
C851 C856 1.490 . S
C852 H842 0.930 . S
C852 C851 1.400 . S
C852 C855 1.386 . S
H853 C869 0.930 . S
H854 C870 0.931 . S
C855 H843 0.929 . S
C855 C849 1.390 . S
C855 C852 1.386 . S
C856 C851 1.490 . S
C856 C858 1.395 . S
C856 C859 1.403 . S
H857 C863 0.930 . S
C858 H844 0.930 . S
C858 C856 1.395 . S
C858 C861 1.403 . S
C859 C856 1.403 . S
C859 C860 1.524 . S
C859 C863 1.400 . S
C860 H845 0.960 . S
C860 H846 0.960 . S
C860 H847 0.960 . S
C860 C859 1.524 . S
C861 C858 1.403 . S
C861 C862 1.392 . S
C861 C865 1.495 . S
C862 C861 1.392 . S
C862 C863 1.385 . S
C862 C864 1.478 . S
C863 H857 0.930 . S
C863 C859 1.400 . S
C863 C862 1.385 . S
C864 C862 1.478 . S
C864 C866 1.381 . S
C864 C870 1.383 . S
C865 C861 1.495 . S
C865 H871 0.959 . S
C865 H872 0.961 . S
C865 H873 0.960 . S
C866 C864 1.381 . S
C866 C867 1.394 . S
C866 H874 0.930 . S
C867 C866 1.394 . S
C867 C868 1.383 . S
C867 H875 0.929 . S
C868 C867 1.383 . S
C868 C869 1.377 . S
C869 H853 0.930 . S
C869 C868 1.377 . S
C869 C870 1.379 . S
C870 H854 0.931 . S
C870 C864 1.383 . S
C870 C869 1.379 . S
H871 C865 0.959 . S
H872 C865 0.961 . S
H873 C865 0.960 . S
H874 C866 0.930 . S
H875 C867 0.929 . S
H876 C884 0.929 . S
H877 C886 0.930 . S
H878 C888 0.930 . S
H879 C891 0.929 . S
H880 C894 0.930 . S
H881 C896 0.960 . S
H882 C896 0.960 . S
H883 C896 0.960 . S
C884 H876 0.929 . S
C884 C885 1.377 . S
C884 C886 1.384 . S
C885 C884 1.377 . S
C885 C891 1.390 . S
C886 H877 0.930 . S
C886 C884 1.384 . S
C886 C887 1.372 . S
C887 C886 1.372 . S
C887 C888 1.400 . S
C887 C892 1.490 . S
C888 H878 0.930 . S
C888 C887 1.400 . S
C888 C891 1.386 . S
H889 C905 0.930 . S
H890 C906 0.931 . S
C891 H879 0.929 . S
C891 C885 1.390 . S
C891 C888 1.386 . S
C892 C887 1.490 . S
C892 C894 1.395 . S
C892 C895 1.403 1_455 S
H893 C899 0.930 1_655 S
C894 H880 0.930 . S
C894 C892 1.395 . S
C894 C897 1.403 . S
C895 C892 1.403 1_655 S
C895 C896 1.524 . S
C895 C899 1.400 1_655 S
C896 H881 0.960 . S
C896 H882 0.960 . S
C896 H883 0.960 . S
C896 C895 1.524 . S
C897 C894 1.403 . S
C897 C898 1.392 . S
C897 C901 1.495 . S
C898 C897 1.392 . S
C898 C899 1.385 . S
C898 C900 1.478 . S
C899 H893 0.930 1_455 S
C899 C895 1.400 1_455 S
C899 C898 1.385 . S
C900 C898 1.478 . S
C900 C902 1.381 . S
C900 C906 1.383 . S
C901 C897 1.495 . S
C901 H907 0.959 . S
C901 H908 0.961 . S
C901 H909 0.960 . S
C902 C900 1.381 . S
C902 C903 1.394 . S
C902 H910 0.930 . S
C903 C902 1.394 . S
C903 C904 1.383 . S
C903 H911 0.929 . S
C904 C903 1.383 . S
C904 C905 1.377 . S
C905 H889 0.930 . S
C905 C904 1.377 . S
C905 C906 1.379 . S
C906 H890 0.931 . S
C906 C900 1.383 . S
C906 C905 1.379 . S
H907 C901 0.959 . S
H908 C901 0.961 . S
H909 C901 0.960 . S
H910 C902 0.930 . S
H911 C903 0.929 . S
H912 C920 0.929 . S
H913 C922 0.930 . S
H914 C924 0.930 . S
H915 C927 0.929 . S
H916 C930 0.930 . S
H917 C932 0.960 1_455 S
H918 C932 0.960 . S
H919 C932 0.960 . S
C920 H912 0.929 . S
C920 C921 1.377 . S
C920 C922 1.384 . S
C921 C920 1.377 . S
C921 C927 1.390 . S
C922 H913 0.930 . S
C922 C920 1.384 . S
C922 C923 1.372 . S
C923 C922 1.372 . S
C923 C924 1.400 . S
C923 C928 1.490 . S
C924 H914 0.930 . S
C924 C923 1.400 . S
C924 C927 1.386 . S
H925 C941 0.930 . S
H926 C942 0.931 . S
C927 H915 0.929 . S
C927 C921 1.390 . S
C927 C924 1.386 . S
C928 C923 1.490 . S
C928 C930 1.395 1_655 S
C928 C931 1.403 1_655 S
H929 C935 0.930 . S
C930 H916 0.930 . S
C930 C928 1.395 1_455 S
C930 C933 1.403 . S
C931 C928 1.403 1_455 S
C931 C932 1.524 1_455 S
C931 C935 1.400 . S
C932 H917 0.960 1_655 S
C932 H918 0.960 . S
C932 H919 0.960 . S
C932 C931 1.524 1_655 S
C933 C930 1.403 . S
C933 C934 1.392 . S
C933 C937 1.495 . S
C934 C933 1.392 . S
C934 C935 1.385 . S
C934 C936 1.478 . S
C935 H929 0.930 . S
C935 C931 1.400 . S
C935 C934 1.385 . S
C936 C934 1.478 . S
C936 C938 1.381 . S
C936 C942 1.383 . S
C937 C933 1.495 . S
C937 H943 0.959 . S
C937 H944 0.961 . S
C937 H945 0.960 . S
C938 C936 1.381 . S
C938 C939 1.394 . S
C938 H946 0.930 . S
C939 C938 1.394 . S
C939 C940 1.383 . S
C939 H947 0.929 . S
C940 C939 1.383 . S
C940 C941 1.377 . S
C941 H925 0.930 . S
C941 C940 1.377 . S
C941 C942 1.379 . S
C942 H926 0.931 . S
C942 C936 1.383 . S
C942 C941 1.379 . S
H943 C937 0.959 . S
H944 C937 0.961 . S
H945 C937 0.960 . S
H946 C938 0.930 . S
H947 C939 0.929 . S
H948 C956 0.929 . S
H949 C958 0.930 . S
H950 C960 0.930 . S
H951 C963 0.929 . S
H952 C966 0.930 . S
H953 C968 0.960 . S
H954 C968 0.960 . S
H955 C968 0.960 . S
C956 H948 0.929 . S
C956 C957 1.377 . S
C956 C958 1.384 . S
C957 C956 1.377 . S
C957 C963 1.390 . S
C958 H949 0.930 . S
C958 C956 1.384 . S
C958 C959 1.372 . S
C959 C958 1.372 . S
C959 C960 1.400 . S
C959 C964 1.490 . S
C960 H950 0.930 . S
C960 C959 1.400 . S
C960 C963 1.386 . S
H961 C977 0.930 . S
H962 C978 0.931 . S
C963 H951 0.929 . S
C963 C957 1.390 . S
C963 C960 1.386 . S
C964 C959 1.490 . S
C964 C966 1.395 . S
C964 C967 1.403 . S
H965 C971 0.930 . S
C966 H952 0.930 . S
C966 C964 1.395 . S
C966 C969 1.403 . S
C967 C964 1.403 . S
C967 C968 1.524 . S
C967 C971 1.400 . S
C968 H953 0.960 . S
C968 H954 0.960 . S
C968 H955 0.960 . S
C968 C967 1.524 . S
C969 C966 1.403 . S
C969 C970 1.392 . S
C969 C973 1.495 . S
C970 C969 1.392 . S
C970 C971 1.385 . S
C970 C972 1.478 . S
C971 H965 0.930 . S
C971 C967 1.400 . S
C971 C970 1.385 . S
C972 C970 1.478 . S
C972 C974 1.381 . S
C972 C978 1.383 . S
C973 C969 1.495 . S
C973 H979 0.959 . S
C973 H980 0.961 . S
C973 H981 0.960 . S
C974 C972 1.381 . S
C974 C975 1.394 . S
C974 H982 0.930 . S
C975 C974 1.394 . S
C975 C976 1.383 . S
C975 H983 0.929 . S
C976 C975 1.383 . S
C976 C977 1.377 . S
C977 H961 0.930 . S
C977 C976 1.377 . S
C977 C978 1.379 . S
C978 H962 0.931 . S
C978 C972 1.383 . S
C978 C977 1.379 . S
H979 C973 0.959 . S
H980 C973 0.961 . S
H981 C973 0.960 . S
H982 C974 0.930 . S
H983 C975 0.929 . S
C273 C18 1.264 . S
C292 C183 1.256 . S
C309 C216 1.261 . S
C328 C51 1.267 . S
C345 C84 1.263 . S
C364 C249 1.257 . S
C381 C150 1.263 . S
C400 C117 1.263 . S
C417 C7 0.398 . S
C436 C153 0.247 . S
C453 C40 0.521 . S
C472 C186 0.450 . S
C489 C205 0.523 . S
C508 C87 0.473 . S
C525 C120 0.356 . S
C544 C238 0.498 . S
C561 C106 0.498 . S
C580 C252 0.351 . S
C597 C172 0.426 . S
C616 C54 0.370 . S
C633 C219 0.359 . S
C652 C73 0.477 . S
C669 C21 0.467 . S
C688 C139 0.565 . S
C705 N13 1.899 . S
C724 N2 1.896 . S
C741 N46 1.899 . S
C760 N35 1.896 1_545 S
C777 N79 1.899 . S
C796 N68 1.899 . S
C813 N112 1.900 1_565 S
C832 N101 1.876 . S
C849 N134 1.900 . S
C868 N145 1.886 . S
C885 N178 1.902 1_545 S
C904 N167 1.911 . S
C921 N211 1.905 . S
C940 N200 1.912 . S
C957 N233 1.899 1_565 S
C976 N244 1.915 . S
