# Generated by pormake.
# Topology tzs, (4)-cn, num edge types: 1
# Building blocks:
#     Node 0, Type 0, BuildingBlock: CEKHIL_clean_sbu_0, # of connection points: 4
#     Node 1, Type 0, BuildingBlock: CEKHIL_clean_sbu_0, # of connection points: 4
#     Node 2, Type 0, BuildingBlock: CEKHIL_clean_sbu_0, # of connection points: 4
#     Node 3, Type 0, BuildingBlock: CEKHIL_clean_sbu_0, # of connection points: 4
#     Node 4, Type 0, BuildingBlock: CEKHIL_clean_sbu_0, # of connection points: 4
#     Node 5, Type 0, BuildingBlock: CEKHIL_clean_sbu_0, # of connection points: 4
#     Node 6, Type 0, BuildingBlock: CEKHIL_clean_sbu_0, # of connection points: 4
#     Node 7, Type 0, BuildingBlock: CEKHIL_clean_sbu_0, # of connection points: 4
#     Node 8, Type 0, BuildingBlock: CEKHIL_clean_sbu_0, # of connection points: 4
#     Node 9, Type 0, BuildingBlock: CEKHIL_clean_sbu_0, # of connection points: 4
#     Node 10, Type 0, BuildingBlock: CEKHIL_clean_sbu_0, # of connection points: 4
#     Node 11, Type 0, BuildingBlock: CEKHIL_clean_sbu_0, # of connection points: 4
#     Node 12, Type 0, BuildingBlock: CEKHIL_clean_sbu_0, # of connection points: 4
#     Node 13, Type 0, BuildingBlock: CEKHIL_clean_sbu_0, # of connection points: 4
#     Node 14, Type 0, BuildingBlock: CEKHIL_clean_sbu_0, # of connection points: 4
#     Node 15, Type 0, BuildingBlock: CEKHIL_clean_sbu_0, # of connection points: 4
#     Edge 16, Type (0, 0), BuildingBlock: OJICUG_clean_linker_0, # of connection points: 2
#     Edge 17, Type (0, 0), BuildingBlock: OJICUG_clean_linker_0, # of connection points: 2
#     Edge 18, Type (0, 0), BuildingBlock: OJICUG_clean_linker_0, # of connection points: 2
#     Edge 19, Type (0, 0), BuildingBlock: OJICUG_clean_linker_0, # of connection points: 2
#     Edge 20, Type (0, 0), BuildingBlock: OJICUG_clean_linker_0, # of connection points: 2
#     Edge 21, Type (0, 0), BuildingBlock: OJICUG_clean_linker_0, # of connection points: 2
#     Edge 22, Type (0, 0), BuildingBlock: OJICUG_clean_linker_0, # of connection points: 2
#     Edge 23, Type (0, 0), BuildingBlock: OJICUG_clean_linker_0, # of connection points: 2
#     Edge 24, Type (0, 0), BuildingBlock: OJICUG_clean_linker_0, # of connection points: 2
#     Edge 25, Type (0, 0), BuildingBlock: OJICUG_clean_linker_0, # of connection points: 2
#     Edge 26, Type (0, 0), BuildingBlock: OJICUG_clean_linker_0, # of connection points: 2
#     Edge 27, Type (0, 0), BuildingBlock: OJICUG_clean_linker_0, # of connection points: 2
#     Edge 28, Type (0, 0), BuildingBlock: OJICUG_clean_linker_0, # of connection points: 2
#     Edge 29, Type (0, 0), BuildingBlock: OJICUG_clean_linker_0, # of connection points: 2
#     Edge 30, Type (0, 0), BuildingBlock: OJICUG_clean_linker_0, # of connection points: 2
#     Edge 31, Type (0, 0), BuildingBlock: OJICUG_clean_linker_0, # of connection points: 2
#     Edge 32, Type (0, 0), BuildingBlock: OJICUG_clean_linker_0, # of connection points: 2
#     Edge 33, Type (0, 0), BuildingBlock: OJICUG_clean_linker_0, # of connection points: 2
#     Edge 34, Type (0, 0), BuildingBlock: OJICUG_clean_linker_0, # of connection points: 2
#     Edge 35, Type (0, 0), BuildingBlock: OJICUG_clean_linker_0, # of connection points: 2
#     Edge 36, Type (0, 0), BuildingBlock: OJICUG_clean_linker_0, # of connection points: 2
#     Edge 37, Type (0, 0), BuildingBlock: OJICUG_clean_linker_0, # of connection points: 2
#     Edge 38, Type (0, 0), BuildingBlock: OJICUG_clean_linker_0, # of connection points: 2
#     Edge 39, Type (0, 0), BuildingBlock: OJICUG_clean_linker_0, # of connection points: 2
#     Edge 40, Type (0, 0), BuildingBlock: OJICUG_clean_linker_0, # of connection points: 2
#     Edge 41, Type (0, 0), BuildingBlock: OJICUG_clean_linker_0, # of connection points: 2
#     Edge 42, Type (0, 0), BuildingBlock: OJICUG_clean_linker_0, # of connection points: 2
#     Edge 43, Type (0, 0), BuildingBlock: OJICUG_clean_linker_0, # of connection points: 2
#     Edge 44, Type (0, 0), BuildingBlock: OJICUG_clean_linker_0, # of connection points: 2
#     Edge 45, Type (0, 0), BuildingBlock: OJICUG_clean_linker_0, # of connection points: 2
#     Edge 46, Type (0, 0), BuildingBlock: OJICUG_clean_linker_0, # of connection points: 2
#     Edge 47, Type (0, 0), BuildingBlock: OJICUG_clean_linker_0, # of connection points: 2
# Relax obj value: 0.121
# Max RMSD: 0.118
# Mean RMSD: 0.118
data_MOF--net-tzs--node1-CEKHIL_clean_sbu_0--edge1-OJICUG_clean_linker_0
_symmetry_space_group_name_H-M    P1
_symmetry_Int_Tables_number       1
_symmetry_cell_setting            triclinic
loop_
_symmetry_equiv_pos_as_xyz
'x, y, z'
_cell_length_a     34.756633
_cell_length_b     34.758762
_cell_length_c     28.429926
_cell_angle_alpha  89.995154
_cell_angle_beta   90.000191
_cell_angle_gamma 90.002857
loop_
_atom_site_label
_atom_site_type_symbol
_atom_site_fract_x
_atom_site_fract_y
_atom_site_fract_z
_atom_type_partial_charge
Co0 Co 0.15126 0.35343 0.19687 0.0
O1 O 0.16533 0.29961 0.19934 0.0
O2 O 0.20236 0.34733 0.22357 0.0
C3 C 0.09088 0.34517 0.22405 0.0
O4 O 0.1461 0.41241 0.20406 0.0
Co5 Co 0.08311 0.38386 0.13582 0.0
O6 O 0.08812 0.43007 0.17632 0.0
C7 C 0.15233 0.34961 0.09282 0.0
C8 C 0.19758 0.31048 0.21819 0.0
C9 C 0.11849 0.43716 0.19995 0.0
O10 O 0.17205 0.35652 0.13039 0.0
O11 O 0.1159 0.35451 0.09045 0.0
O12 O 0.11944 0.34703 0.2537 0.0
O13 O 0.10022 0.3459 0.18049 0.0
Co14 Co 0.66785 0.15139 0.19702 0.0
O15 O 0.72166 0.16548 0.19957 0.0
O16 O 0.67391 0.20248 0.22375 0.0
C17 C 0.6761 0.09101 0.2242 0.0
O18 O 0.60886 0.1462 0.20412 0.0
Co19 Co 0.63752 0.08323 0.13591 0.0
O20 O 0.59123 0.08825 0.17627 0.0
C21 C 0.67176 0.15248 0.09297 0.0
C22 C 0.71077 0.19771 0.21842 0.0
C23 C 0.58411 0.11861 0.19991 0.0
O24 O 0.66481 0.17219 0.13053 0.0
O25 O 0.66692 0.11604 0.09061 0.0
O26 O 0.6742 0.11956 0.25386 0.0
O27 O 0.67541 0.10036 0.18065 0.0
Co28 Co 0.86974 0.66788 0.19743 0.0
O29 O 0.85566 0.72169 0.19991 0.0
O30 O 0.81867 0.67397 0.22422 0.0
C31 C 0.93015 0.67616 0.22449 0.0
O32 O 0.87494 0.6089 0.2046 0.0
Co33 Co 0.93784 0.63751 0.13624 0.0
O34 O 0.93287 0.59125 0.17668 0.0
C35 C 0.86855 0.67175 0.0934 0.0
C36 C 0.82344 0.71081 0.21881 0.0
C37 C 0.90253 0.58415 0.20038 0.0
O38 O 0.84888 0.66479 0.13099 0.0
O39 O 0.90499 0.6669 0.09099 0.0
O40 O 0.90164 0.67429 0.2542 0.0
O41 O 0.92075 0.67543 0.18095 0.0
Co42 Co 0.35328 0.86987 0.19705 0.0
O43 O 0.29947 0.85578 0.19955 0.0
O44 O 0.34719 0.81881 0.22387 0.0
C45 C 0.34501 0.93028 0.22409 0.0
O46 O 0.41226 0.87506 0.20422 0.0
Co47 Co 0.3837 0.93793 0.13585 0.0
O48 O 0.42992 0.93299 0.17635 0.0
C49 C 0.34943 0.86865 0.09302 0.0
C50 C 0.31034 0.82357 0.21846 0.0
C51 C 0.43701 0.90265 0.20005 0.0
O52 O 0.35637 0.84898 0.13062 0.0
O53 O 0.35432 0.90508 0.09059 0.0
O54 O 0.34688 0.90177 0.25381 0.0
O55 O 0.34574 0.92087 0.18055 0.0
Co56 Co 0.1513 0.66811 0.30177 0.0
O57 O 0.16542 0.72192 0.29921 0.0
O58 O 0.20241 0.67415 0.27505 0.0
C59 C 0.09093 0.67638 0.2746 0.0
O60 O 0.1461 0.60913 0.29466 0.0
Co61 Co 0.08312 0.63779 0.36285 0.0
O62 O 0.08814 0.5915 0.32249 0.0
C63 C 0.15235 0.67208 0.40579 0.0
C64 C 0.19766 0.71101 0.28039 0.0
C65 C 0.11851 0.58438 0.29885 0.0
O66 O 0.17208 0.66507 0.36826 0.0
O67 O 0.1159 0.66725 0.40811 0.0
O68 O 0.11947 0.67447 0.24492 0.0
O69 O 0.10029 0.67569 0.31814 0.0
Co70 Co 0.35301 0.1514 0.30144 0.0
O71 O 0.29921 0.16553 0.29888 0.0
O72 O 0.34699 0.20252 0.27476 0.0
C73 C 0.34473 0.09104 0.27423 0.0
O74 O 0.412 0.14619 0.29436 0.0
Co75 Co 0.3833 0.08318 0.36248 0.0
O76 O 0.4296 0.08821 0.32213 0.0
C77 C 0.34906 0.15239 0.40548 0.0
C78 C 0.31013 0.19777 0.28008 0.0
C79 C 0.43673 0.11859 0.29853 0.0
O80 O 0.35605 0.17214 0.36796 0.0
O81 O 0.35388 0.11594 0.40778 0.0
O82 O 0.34666 0.11959 0.24458 0.0
O83 O 0.34541 0.10038 0.31778 0.0
Co84 Co 0.86984 0.35308 0.30191 0.0
O85 O 0.85571 0.29928 0.29932 0.0
O86 O 0.8187 0.34707 0.27528 0.0
C87 C 0.93018 0.34483 0.27459 0.0
O88 O 0.87504 0.41206 0.29486 0.0
Co89 Co 0.93811 0.38332 0.36289 0.0
O90 O 0.93306 0.42965 0.32258 0.0
C91 C 0.8689 0.34913 0.40597 0.0
C92 C 0.82345 0.31021 0.28055 0.0
C93 C 0.90265 0.4368 0.29902 0.0
O94 O 0.84914 0.35608 0.36844 0.0
O95 O 0.90535 0.35394 0.40825 0.0
O96 O 0.90159 0.34677 0.24499 0.0
O97 O 0.92088 0.34547 0.31816 0.0
Co98 Co 0.668 0.86994 0.30185 0.0
O99 O 0.7218 0.85581 0.29933 0.0
O100 O 0.67403 0.81882 0.27519 0.0
C101 C 0.67627 0.93029 0.27461 0.0
O102 O 0.60902 0.87514 0.29472 0.0
Co103 Co 0.63769 0.93815 0.36288 0.0
O104 O 0.5914 0.93312 0.32251 0.0
C105 C 0.67189 0.86892 0.4059 0.0
C106 C 0.71088 0.82356 0.28054 0.0
C107 C 0.58427 0.90274 0.29889 0.0
O108 O 0.66493 0.84919 0.36835 0.0
O109 O 0.66707 0.90537 0.40821 0.0
O110 O 0.67437 0.90173 0.24497 0.0
O111 O 0.67558 0.92096 0.31817 0.0
Co112 Co 0.85284 0.65125 0.80213 0.0
O113 O 0.79904 0.66536 0.79954 0.0
O114 O 0.84682 0.70235 0.77542 0.0
C115 C 0.84461 0.59088 0.77493 0.0
O116 O 0.91182 0.64606 0.79506 0.0
Co117 Co 0.88315 0.58307 0.86323 0.0
O118 O 0.92942 0.58807 0.82282 0.0
C119 C 0.8489 0.65231 0.90618 0.0
C120 C 0.80996 0.6976 0.78073 0.0
C121 C 0.93655 0.61844 0.7992 0.0
O122 O 0.85586 0.67203 0.86862 0.0
O123 O 0.85375 0.61587 0.90853 0.0
O124 O 0.84652 0.61943 0.74528 0.0
O125 O 0.84526 0.60022 0.81849 0.0
Co126 Co 0.36966 0.85255 0.80175 0.0
O127 O 0.35551 0.79876 0.79921 0.0
O128 O 0.31855 0.84655 0.77506 0.0
C129 C 0.43002 0.84426 0.77455 0.0
O130 O 0.37489 0.91153 0.79463 0.0
Co131 Co 0.43788 0.88283 0.8628 0.0
O132 O 0.43288 0.92912 0.82242 0.0
C133 C 0.36862 0.84866 0.9058 0.0
C134 C 0.32327 0.80969 0.78039 0.0
C135 C 0.40251 0.93626 0.7988 0.0
O136 O 0.3489 0.85562 0.86825 0.0
O137 O 0.40507 0.85346 0.90812 0.0
O138 O 0.40147 0.84618 0.74489 0.0
O139 O 0.42068 0.84494 0.8181 0.0
Co140 Co 0.16836 0.36952 0.80143 0.0
O141 O 0.22213 0.35532 0.79879 0.0
O142 O 0.17427 0.31837 0.77481 0.0
C143 C 0.17668 0.42984 0.77411 0.0
O144 O 0.10937 0.37483 0.79447 0.0
Co145 Co 0.13831 0.43787 0.86244 0.0
O146 O 0.09192 0.43287 0.82222 0.0
C147 C 0.17238 0.3686 0.9055 0.0
C148 C 0.21114 0.32307 0.78005 0.0
C149 C 0.08468 0.40248 0.79868 0.0
O150 O 0.16536 0.34885 0.86799 0.0
O151 O 0.16767 0.40506 0.90775 0.0
O152 O 0.17467 0.40127 0.7445 0.0
O153 O 0.17607 0.42053 0.81767 0.0
Co154 Co 0.65131 0.16799 0.80163 0.0
O155 O 0.66543 0.22179 0.79903 0.0
O156 O 0.70245 0.17401 0.77498 0.0
C157 C 0.59096 0.17619 0.77436 0.0
O158 O 0.64611 0.109 0.79461 0.0
Co159 Co 0.58309 0.13775 0.86271 0.0
O160 O 0.5881 0.09144 0.82237 0.0
C161 C 0.65231 0.17199 0.90569 0.0
C162 C 0.69769 0.21087 0.78027 0.0
C163 C 0.61848 0.08428 0.79878 0.0
O164 O 0.67205 0.165 0.86815 0.0
O165 O 0.61586 0.16717 0.90801 0.0
O166 O 0.61953 0.17428 0.74473 0.0
O167 O 0.60028 0.17558 0.81792 0.0
Co168 Co 0.85343 0.3698 0.69735 0.0
O169 O 0.79961 0.35571 0.6998 0.0
O170 O 0.84733 0.31869 0.72403 0.0
C171 C 0.84513 0.43016 0.72454 0.0
O172 O 0.91241 0.37499 0.70453 0.0
Co173 Co 0.88381 0.438 0.63632 0.0
O174 O 0.93007 0.43296 0.67674 0.0
C175 C 0.8496 0.36877 0.5933 0.0
C176 C 0.81048 0.32346 0.71863 0.0
C177 C 0.93717 0.40258 0.70036 0.0
O178 O 0.85653 0.34904 0.63085 0.0
O179 O 0.85445 0.40521 0.59097 0.0
O180 O 0.84701 0.40161 0.7542 0.0
O181 O 0.84587 0.42083 0.68099 0.0
Co182 Co 0.65116 0.85319 0.69719 0.0
O183 O 0.66526 0.79938 0.69968 0.0
O184 O 0.70224 0.84712 0.72396 0.0
C185 C 0.59077 0.84487 0.72429 0.0
O186 O 0.64596 0.91217 0.70437 0.0
Co187 Co 0.58303 0.88358 0.63608 0.0
O188 O 0.58803 0.92984 0.67649 0.0
C189 C 0.6523 0.84938 0.59315 0.0
C190 C 0.69748 0.81027 0.71858 0.0
C191 C 0.61839 0.93693 0.70016 0.0
O192 O 0.672 0.8563 0.63074 0.0
O193 O 0.61586 0.85422 0.59078 0.0
O194 O 0.61929 0.84676 0.75399 0.0
O195 O 0.60015 0.84562 0.68075 0.0
Co196 Co 0.16747 0.65105 0.697 0.0
O197 O 0.22131 0.66507 0.69943 0.0
O198 O 0.17364 0.70207 0.72387 0.0
C199 C 0.17571 0.59061 0.72395 0.0
O200 O 0.10849 0.64594 0.70428 0.0
Co201 Co 0.13687 0.5831 0.63577 0.0
O202 O 0.09068 0.58808 0.67631 0.0
C203 C 0.17127 0.65234 0.59299 0.0
C204 C 0.21048 0.69728 0.7184 0.0
C205 C 0.08368 0.6184 0.70008 0.0
O206 O 0.16435 0.672 0.6306 0.0
O207 O 0.16632 0.61592 0.59053 0.0
O208 O 0.17392 0.61909 0.7537 0.0
O209 O 0.17492 0.60005 0.68042 0.0
Co210 Co 0.36984 0.16724 0.69681 0.0
O211 O 0.3558 0.22106 0.69929 0.0
O212 O 0.31875 0.17338 0.72354 0.0
C213 C 0.43023 0.17547 0.72396 0.0
O214 O 0.37496 0.10825 0.704 0.0
Co215 Co 0.43795 0.13677 0.63574 0.0
O216 O 0.43292 0.09055 0.67622 0.0
C217 C 0.36877 0.17115 0.59279 0.0
C218 C 0.32355 0.21022 0.71814 0.0
C219 C 0.40254 0.08349 0.69987 0.0
O220 O 0.34903 0.16419 0.63033 0.0
O221 O 0.4052 0.16622 0.59043 0.0
O222 O 0.40168 0.17362 0.75363 0.0
O223 O 0.42087 0.17474 0.68041 0.0
C224 C 0.24314 0.21641 0.25686 0.0
C225 C 0.28168 0.22701 0.26442 0.0
H226 H 0.18674 0.23419 0.23563 0.0
C227 C 0.29252 0.26546 0.25648 0.0
H228 H 0.23386 0.187 0.26243 0.0
C229 C 0.26523 0.29278 0.24185 0.0
C230 C 0.22678 0.28198 0.23381 0.0
H231 H 0.32198 0.27453 0.26205 0.0
H232 H 0.27433 0.32224 0.23635 0.0
C233 C 0.21614 0.24344 0.24128 0.0
C234 C 0.80482 0.24323 0.25728 0.0
C235 C 0.79422 0.28176 0.26486 0.0
H236 H 0.78704 0.18685 0.23597 0.0
C237 C 0.75577 0.29261 0.25689 0.0
H238 H 0.83421 0.23395 0.26287 0.0
C239 C 0.72845 0.26534 0.24219 0.0
C240 C 0.73926 0.2269 0.23413 0.0
H241 H 0.7467 0.32207 0.26248 0.0
H242 H 0.699 0.27444 0.23667 0.0
C243 C 0.77779 0.21625 0.24164 0.0
C244 C 0.75578 0.72852 0.24246 0.0
C245 C 0.79424 0.73931 0.23444 0.0
H246 H 0.69903 0.74679 0.2626 0.0
C247 C 0.80488 0.77785 0.24189 0.0
H248 H 0.74668 0.69906 0.23698 0.0
C249 C 0.77788 0.8049 0.25742 0.0
C250 C 0.73934 0.79431 0.26495 0.0
H251 H 0.83429 0.78709 0.23625 0.0
H252 H 0.78717 0.8343 0.26297 0.0
C253 C 0.7285 0.75585 0.25704 0.0
C254 C 0.24331 0.805 0.24159 0.0
C255 C 0.28185 0.79437 0.23413 0.0
H256 H 0.18688 0.78727 0.26275 0.0
C257 C 0.29266 0.75592 0.24217 0.0
H258 H 0.23406 0.8344 0.23594 0.0
C259 C 0.26535 0.72864 0.25681 0.0
C260 C 0.22689 0.73947 0.26474 0.0
H261 H 0.32213 0.74683 0.23667 0.0
H262 H 0.27442 0.69918 0.26238 0.0
C263 C 0.21628 0.778 0.25718 0.0
C264 C 0.7651 0.79258 0.74236 0.0
C265 C 0.72666 0.78178 0.73429 0.0
H266 H 0.82183 0.77434 0.76265 0.0
C267 C 0.71601 0.74325 0.74179 0.0
H268 H 0.77421 0.82204 0.73684 0.0
C269 C 0.74298 0.71622 0.75744 0.0
C270 C 0.78152 0.72683 0.76503 0.0
H271 H 0.68661 0.734 0.73612 0.0
H272 H 0.7337 0.68683 0.76304 0.0
C273 C 0.79237 0.76527 0.75706 0.0
C274 C 0.27754 0.71577 0.74149 0.0
C275 C 0.23901 0.72643 0.73407 0.0
H276 H 0.334 0.73344 0.76264 0.0
C277 C 0.22823 0.76488 0.74218 0.0
H278 H 0.28677 0.68637 0.73579 0.0
C279 C 0.25557 0.79213 0.75683 0.0
C280 C 0.29402 0.78126 0.76473 0.0
H281 H 0.19877 0.774 0.73672 0.0
H282 H 0.24652 0.82159 0.76246 0.0
C283 C 0.3046 0.74273 0.7571 0.0
C284 C 0.27809 0.30435 0.75674 0.0
C285 C 0.23955 0.29379 0.76438 0.0
H286 H 0.33445 0.28651 0.73547 0.0
C287 C 0.22867 0.25534 0.7565 0.0
H288 H 0.2874 0.33375 0.76226 0.0
C289 C 0.25592 0.22799 0.74187 0.0
C290 C 0.29438 0.23875 0.73378 0.0
H291 H 0.19921 0.2463 0.76213 0.0
H292 H 0.2468 0.19853 0.73643 0.0
C293 C 0.30505 0.27729 0.74117 0.0
C294 C 0.76541 0.2285 0.75678 0.0
C295 C 0.72695 0.23933 0.76467 0.0
H296 H 0.82222 0.24669 0.73675 0.0
C297 C 0.71637 0.27787 0.75714 0.0
H298 H 0.77447 0.19903 0.76233 0.0
C299 C 0.74342 0.30488 0.74163 0.0
C300 C 0.78197 0.29425 0.73421 0.0
H301 H 0.68696 0.28715 0.76268 0.0
H302 H 0.73418 0.33428 0.73601 0.0
C303 C 0.79275 0.25579 0.74222 0.0
C304 C 0.15673 0.3209 0.96742 0.0
C305 C 0.18107 0.34988 0.95069 0.0
H306 H 0.12913 0.29736 0.02817 0.0
C307 C 0.20536 0.36921 0.98261 0.0
H308 H 0.13779 0.30562 0.9436 0.0
C309 C 0.20047 0.36455 0.03107 0.0
C310 C 0.17112 0.34064 0.04774 0.0
H311 H 0.22468 0.39151 0.97027 0.0
H312 H 0.21582 0.38347 0.05485 0.0
C313 C 0.15171 0.31637 0.01587 0.0
C314 C 0.70024 0.15674 0.96753 0.0
C315 C 0.67107 0.18085 0.95081 0.0
H316 H 0.7241 0.12946 0.02831 0.0
C317 C 0.65168 0.20513 0.98269 0.0
H318 H 0.71556 0.13782 0.94373 0.0
C319 C 0.65651 0.20042 0.03115 0.0
C320 C 0.68064 0.17126 0.04786 0.0
H321 H 0.62924 0.22429 0.97035 0.0
H322 H 0.63756 0.21573 0.05493 0.0
C323 C 0.70494 0.1519 0.01599 0.0
C324 C 0.86418 0.70025 0.96798 0.0
C325 C 0.84005 0.67108 0.95129 0.0
H326 H 0.89151 0.7241 0.02872 0.0
C327 C 0.81579 0.6517 0.9832 0.0
H328 H 0.88309 0.71557 0.94416 0.0
C329 C 0.82054 0.65652 0.03166 0.0
C330 C 0.84972 0.68064 0.04833 0.0
H331 H 0.79662 0.62927 0.97089 0.0
H332 H 0.80525 0.63757 0.05546 0.0
C333 C 0.86906 0.70494 0.01643 0.0
C334 C 0.36448 0.82052 0.03134 0.0
C335 C 0.34048 0.84981 0.04798 0.0
H336 H 0.39157 0.7964 0.97059 0.0
C337 C 0.3162 0.86916 0.01608 0.0
H338 H 0.3834 0.80521 0.05515 0.0
C339 C 0.32079 0.86417 0.96763 0.0
C340 C 0.34985 0.83992 0.95095 0.0
H341 H 0.29712 0.89169 0.02836 0.0
H342 H 0.3055 0.88309 0.9438 0.0
C343 C 0.3692 0.81565 0.98288 0.0
C344 C 0.20468 0.65181 0.51618 0.0
C345 C 0.18033 0.67118 0.54798 0.0
H346 H 0.21548 0.63777 0.44397 0.0
C347 C 0.15635 0.70044 0.53122 0.0
H348 H 0.22374 0.6293 0.52856 0.0
C349 C 0.15169 0.70524 0.48275 0.0
C350 C 0.17109 0.68093 0.45091 0.0
H351 H 0.13737 0.71577 0.55496 0.0
H352 H 0.12934 0.72447 0.47036 0.0
C353 C 0.20015 0.65673 0.46771 0.0
C354 C 0.3207 0.15634 0.53093 0.0
C355 C 0.35002 0.18023 0.54772 0.0
H356 H 0.2966 0.12945 0.47004 0.0
C357 C 0.36947 0.20455 0.51595 0.0
H358 H 0.30531 0.1374 0.55465 0.0
C359 C 0.36455 0.20008 0.46747 0.0
C360 C 0.34025 0.17111 0.45064 0.0
H361 H 0.39203 0.22355 0.52835 0.0
H362 H 0.38355 0.21538 0.44374 0.0
C363 C 0.31589 0.15175 0.48245 0.0
C364 C 0.82106 0.36451 0.46786 0.0
C365 C 0.85017 0.34032 0.45113 0.0
H366 H 0.7973 0.39187 0.52863 0.0
C367 C 0.86955 0.31605 0.48302 0.0
H368 H 0.80575 0.38343 0.44406 0.0
C369 C 0.86478 0.3208 0.53148 0.0
C370 C 0.84071 0.35001 0.54819 0.0
H371 H 0.89195 0.29684 0.47068 0.0
H372 H 0.88372 0.30548 0.55526 0.0
C373 C 0.81642 0.36939 0.51632 0.0
C374 C 0.70026 0.86469 0.53138 0.0
C375 C 0.6711 0.84054 0.54806 0.0
H376 H 0.72414 0.89199 0.47064 0.0
C377 C 0.65176 0.81625 0.51615 0.0
H378 H 0.71555 0.88362 0.5552 0.0
C379 C 0.65663 0.82097 0.4677 0.0
C380 C 0.68074 0.85016 0.45102 0.0
H381 H 0.62933 0.79707 0.52846 0.0
H382 H 0.63771 0.80564 0.44389 0.0
C383 C 0.70499 0.86953 0.48293 0.0
C384 C 0.15516 0.52873 0.26105 0.0
C385 C 0.12025 0.54665 0.27367 0.0
H386 H 0.18236 0.47954 0.22868 0.0
C387 C 0.08562 0.5282 0.26159 0.0
H388 H 0.18236 0.54213 0.2698 0.0
C389 C 0.08562 0.4932 0.23753 0.0
C390 C 0.12025 0.47485 0.22521 0.0
H391 H 0.05813 0.54108 0.27022 0.0
H392 H 0.05812 0.48023 0.22906 0.0
C393 C 0.15516 0.49286 0.23762 0.0
C394 C 0.52838 0.15526 0.23757 0.0
C395 C 0.54636 0.12036 0.22507 0.0
H396 H 0.47911 0.18245 0.26976 0.0
C397 C 0.52793 0.08572 0.2372 0.0
H398 H 0.54176 0.18246 0.22877 0.0
C399 C 0.49289 0.08572 0.26119 0.0
C400 C 0.47448 0.12035 0.27337 0.0
H401 H 0.54086 0.05823 0.22866 0.0
H402 H 0.47995 0.05822 0.26969 0.0
C403 C 0.49248 0.15525 0.26092 0.0
C404 C 0.93546 0.52803 0.23772 0.0
C405 C 0.90081 0.54642 0.22558 0.0
H406 H 0.963 0.48007 0.27021 0.0
C407 C 0.86592 0.52842 0.2381 0.0
H408 H 0.96294 0.54098 0.22917 0.0
C409 C 0.86595 0.49253 0.26146 0.0
C410 C 0.90087 0.47455 0.2739 0.0
H411 H 0.83871 0.54178 0.2293 0.0
H412 H 0.83876 0.47914 0.2703 0.0
C413 C 0.93549 0.493 0.26172 0.0
C414 C 0.52806 0.93559 0.26163 0.0
C415 C 0.54653 0.90097 0.27373 0.0
H416 H 0.48007 0.96305 0.2291 0.0
C417 C 0.52862 0.86606 0.26114 0.0
H418 H 0.54094 0.9631 0.27025 0.0
C419 C 0.49274 0.86604 0.23772 0.0
C420 C 0.47471 0.90093 0.2253 0.0
H421 H 0.54203 0.83887 0.2699 0.0
H422 H 0.47943 0.83883 0.22881 0.0
C423 C 0.49305 0.93557 0.23758 0.0
C424 C 0.84497 0.5214 0.79684 0.0
C425 C 0.84499 0.54991 0.76149 0.0
H426 H 0.84516 0.46112 0.81307 0.0
C427 C 0.84522 0.53867 0.71429 0.0
H428 H 0.84468 0.52915 0.83373 0.0
C429 C 0.84527 0.49965 0.70265 0.0
C430 C 0.84528 0.47114 0.73799 0.0
H431 H 0.8452 0.55992 0.68642 0.0
H432 H 0.84521 0.49189 0.66576 0.0
C433 C 0.84521 0.48238 0.7852 0.0
C434 C 0.53852 0.84483 0.78488 0.0
C435 C 0.54979 0.84498 0.73769 0.0
H436 H 0.49172 0.84422 0.83337 0.0
C437 C 0.5213 0.84501 0.70232 0.0
H438 H 0.55976 0.84476 0.81277 0.0
C439 C 0.48227 0.84493 0.71392 0.0
C440 C 0.471 0.84463 0.76112 0.0
H441 H 0.52908 0.845 0.66543 0.0
H442 H 0.46102 0.84495 0.68604 0.0
C443 C 0.49949 0.84457 0.79649 0.0
C444 C 0.17688 0.4993 0.79604 0.0
C445 C 0.17626 0.47082 0.76067 0.0
H446 H 0.17701 0.55955 0.81236 0.0
C447 C 0.17528 0.4821 0.71349 0.0
H448 H 0.17777 0.49151 0.83291 0.0
C449 C 0.17506 0.52114 0.70191 0.0
C450 C 0.17564 0.54961 0.73729 0.0
H451 H 0.17479 0.46087 0.68561 0.0
H452 H 0.17452 0.52894 0.66504 0.0
C453 C 0.17647 0.53832 0.78447 0.0
C454 C 0.49972 0.17525 0.70205 0.0
C455 C 0.47121 0.17534 0.73739 0.0
H456 H 0.56 0.1753 0.68583 0.0
C457 C 0.48245 0.17556 0.7846 0.0
H458 H 0.49196 0.17519 0.66516 0.0
C459 C 0.52147 0.17586 0.79624 0.0
C460 C 0.54998 0.17576 0.7609 0.0
H461 H 0.46119 0.17568 0.81246 0.0
H462 H 0.52922 0.17628 0.83313 0.0
C463 C 0.53874 0.17536 0.71369 0.0
C464 C 0.6551 0.02851 0.76121 0.0
C465 C 0.62021 0.04654 0.77364 0.0
H466 H 0.68227 0.97921 0.72907 0.0
C467 C 0.58556 0.02816 0.76143 0.0
H468 H 0.68231 0.04185 0.77006 0.0
C469 C 0.58554 0.99313 0.73744 0.0
C470 C 0.62016 0.97467 0.72533 0.0
H471 H 0.55808 0.04113 0.76991 0.0
H472 H 0.55804 0.98022 0.72887 0.0
C473 C 0.65508 0.99261 0.73785 0.0
C474 C 0.9926 0.58554 0.76168 0.0
C475 C 0.97425 0.62018 0.77397 0.0
H476 H 0.04046 0.55804 0.72892 0.0
C477 C 0.99226 0.65508 0.7615 0.0
H478 H 0.97964 0.55805 0.77019 0.0
C479 C 0.0281 0.65507 0.73801 0.0
C480 C 0.04601 0.62016 0.72539 0.0
H481 H 0.97894 0.68228 0.77042 0.0
H482 H 0.04149 0.68226 0.7292 0.0
C483 C 0.02757 0.58553 0.73755 0.0
C484 C 0.36587 0.02779 0.73756 0.0
C485 C 0.40078 0.04579 0.72514 0.0
H486 H 0.33866 0.97853 0.76976 0.0
C487 C 0.43541 0.02743 0.73745 0.0
H488 H 0.33867 0.04112 0.72863 0.0
C489 C 0.4354 0.99243 0.76152 0.0
C490 C 0.40077 0.97399 0.77361 0.0
H491 H 0.46291 0.04039 0.72897 0.0
H492 H 0.4629 0.97954 0.77014 0.0
C493 C 0.36586 0.99192 0.761 0.0
C494 C 0.02889 0.36586 0.76111 0.0
C495 C 0.04687 0.40076 0.77366 0.0
H496 H 0.9796 0.3387 0.72893 0.0
C497 C 0.02839 0.4354 0.76168 0.0
H498 H 0.04231 0.33866 0.76978 0.0
C499 C 0.99332 0.43542 0.73776 0.0
C500 C 0.97492 0.4008 0.72551 0.0
H501 H 0.04132 0.46288 0.77026 0.0
H502 H 0.98034 0.46292 0.72936 0.0
C503 C 0.99296 0.36589 0.73783 0.0
C504 C 0.34528 0.03878 0.21363 0.0
C505 C 0.34504 0.05006 0.26082 0.0
H506 H 0.34521 0.99194 0.16518 0.0
C507 C 0.34495 0.02158 0.29621 0.0
H508 H 0.34531 0.06 0.18574 0.0
C509 C 0.34513 0.98255 0.28463 0.0
C510 C 0.34521 0.97127 0.23745 0.0
H511 H 0.34466 0.02937 0.33309 0.0
H512 H 0.34504 0.96133 0.31253 0.0
C513 C 0.34526 0.99974 0.20205 0.0
C514 C 0.98236 0.34542 0.21388 0.0
C515 C 0.97114 0.34517 0.26109 0.0
H516 H 0.02911 0.34539 0.1653 0.0
C517 C 0.99968 0.34508 0.29641 0.0
H518 H 0.96108 0.34546 0.18603 0.0
C519 C 0.03869 0.34527 0.28473 0.0
C520 C 0.04991 0.34536 0.23752 0.0
H521 H 0.99195 0.34476 0.33331 0.0
H522 H 0.05997 0.34517 0.31258 0.0
C523 C 0.02138 0.34543 0.2022 0.0
C524 C 0.6758 0.9825 0.21394 0.0
C525 C 0.67597 0.97126 0.26115 0.0
H526 H 0.67594 0.02928 0.16541 0.0
C527 C 0.67603 0.99977 0.29649 0.0
H528 H 0.67579 0.96125 0.18608 0.0
C529 C 0.67588 0.03879 0.28485 0.0
C530 C 0.67587 0.05004 0.23764 0.0
H531 H 0.67628 0.99202 0.33338 0.0
H532 H 0.67594 0.06005 0.31271 0.0
C533 C 0.67584 0.02153 0.20229 0.0
C534 C 0.02147 0.67615 0.2966 0.0
C535 C 0.04994 0.67608 0.26121 0.0
H536 H 0.96122 0.67607 0.31294 0.0
C537 C 0.03865 0.67587 0.21402 0.0
H538 H 0.02927 0.67643 0.33348 0.0
C539 C 0.99961 0.6759 0.20245 0.0
C540 C 0.97114 0.67595 0.23785 0.0
H541 H 0.05987 0.67585 0.18612 0.0
H542 H 0.99181 0.67598 0.16558 0.0
C543 C 0.98244 0.67599 0.28503 0.0
loop_
_geom_bond_atom_site_label_1
_geom_bond_atom_site_label_2
_geom_bond_distance
_geom_bond_site_symmetry_2
_ccdc_geom_bond_type
Co0 O1 2.216 . S
Co0 O2 2.091 . S
Co0 O4 2.004 . S
Co0 O10 2.021 . S
Co0 O12 2.137 . S
Co0 O13 2.244 . S
O1 Co0 2.216 . S
O1 C8 1.247 . S
O2 Co0 2.091 . S
O2 C8 1.261 . S
C3 O12 1.247 . S
C3 O13 1.272 . S
O4 Co0 2.004 . S
O4 C9 1.259 . S
Co5 O6 2.061 . S
Co5 O11 2.052 . S
Co5 O13 2.135 . S
O6 Co5 2.061 . S
O6 C9 1.235 . S
C7 O10 1.238 . S
C7 O11 1.241 . S
C8 O1 1.247 . S
C8 O2 1.261 . S
C9 O4 1.259 . S
C9 O6 1.235 . S
O10 Co0 2.021 . S
O10 C7 1.238 . S
O11 Co5 2.052 . S
O11 C7 1.241 . S
O12 Co0 2.137 . S
O12 C3 1.247 . S
O13 Co0 2.244 . S
O13 C3 1.272 . S
O13 Co5 2.135 . S
Co14 O15 2.216 . S
Co14 O16 2.091 . S
Co14 O18 2.004 . S
Co14 O24 2.021 . S
Co14 O26 2.137 . S
Co14 O27 2.244 . S
O15 Co14 2.216 . S
O15 C22 1.247 . S
O16 Co14 2.091 . S
O16 C22 1.261 . S
C17 O26 1.247 . S
C17 O27 1.272 . S
O18 Co14 2.004 . S
O18 C23 1.259 . S
Co19 O20 2.061 . S
Co19 O25 2.052 . S
Co19 O27 2.135 . S
O20 Co19 2.061 . S
O20 C23 1.235 . S
C21 O24 1.238 . S
C21 O25 1.241 . S
C22 O15 1.247 . S
C22 O16 1.261 . S
C23 O18 1.259 . S
C23 O20 1.235 . S
O24 Co14 2.021 . S
O24 C21 1.238 . S
O25 Co19 2.052 . S
O25 C21 1.241 . S
O26 Co14 2.137 . S
O26 C17 1.247 . S
O27 Co14 2.244 . S
O27 C17 1.272 . S
O27 Co19 2.135 . S
Co28 O29 2.216 . S
Co28 O30 2.091 . S
Co28 O32 2.004 . S
Co28 O38 2.021 . S
Co28 O40 2.137 . S
Co28 O41 2.244 . S
O29 Co28 2.216 . S
O29 C36 1.247 . S
O30 Co28 2.091 . S
O30 C36 1.261 . S
C31 O40 1.247 . S
C31 O41 1.272 . S
O32 Co28 2.004 . S
O32 C37 1.259 . S
Co33 O34 2.061 . S
Co33 O39 2.052 . S
Co33 O41 2.135 . S
O34 Co33 2.061 . S
O34 C37 1.235 . S
C35 O38 1.238 . S
C35 O39 1.241 . S
C36 O29 1.247 . S
C36 O30 1.261 . S
C37 O32 1.259 . S
C37 O34 1.235 . S
O38 Co28 2.021 . S
O38 C35 1.238 . S
O39 Co33 2.052 . S
O39 C35 1.241 . S
O40 Co28 2.137 . S
O40 C31 1.247 . S
O41 Co28 2.244 . S
O41 C31 1.272 . S
O41 Co33 2.135 . S
Co42 O43 2.216 . S
Co42 O44 2.091 . S
Co42 O46 2.004 . S
Co42 O52 2.021 . S
Co42 O54 2.137 . S
Co42 O55 2.244 . S
O43 Co42 2.216 . S
O43 C50 1.247 . S
O44 Co42 2.091 . S
O44 C50 1.261 . S
C45 O54 1.247 . S
C45 O55 1.272 . S
O46 Co42 2.004 . S
O46 C51 1.259 . S
Co47 O48 2.061 . S
Co47 O53 2.052 . S
Co47 O55 2.135 . S
O48 Co47 2.061 . S
O48 C51 1.235 . S
C49 O52 1.238 . S
C49 O53 1.241 . S
C50 O43 1.247 . S
C50 O44 1.261 . S
C51 O46 1.259 . S
C51 O48 1.235 . S
O52 Co42 2.021 . S
O52 C49 1.238 . S
O53 Co47 2.052 . S
O53 C49 1.241 . S
O54 Co42 2.137 . S
O54 C45 1.247 . S
O55 Co42 2.244 . S
O55 C45 1.272 . S
O55 Co47 2.135 . S
Co56 O57 2.216 . S
Co56 O58 2.091 . S
Co56 O60 2.004 . S
Co56 O66 2.021 . S
Co56 O68 2.137 . S
Co56 O69 2.244 . S
O57 Co56 2.216 . S
O57 C64 1.247 . S
O58 Co56 2.091 . S
O58 C64 1.261 . S
C59 O68 1.247 . S
C59 O69 1.272 . S
O60 Co56 2.004 . S
O60 C65 1.259 . S
Co61 O62 2.061 . S
Co61 O67 2.052 . S
Co61 O69 2.135 . S
O62 Co61 2.061 . S
O62 C65 1.235 . S
C63 O66 1.238 . S
C63 O67 1.241 . S
C64 O57 1.247 . S
C64 O58 1.261 . S
C65 O60 1.259 . S
C65 O62 1.235 . S
O66 Co56 2.021 . S
O66 C63 1.238 . S
O67 Co61 2.052 . S
O67 C63 1.241 . S
O68 Co56 2.137 . S
O68 C59 1.247 . S
O69 Co56 2.244 . S
O69 C59 1.272 . S
O69 Co61 2.135 . S
Co70 O71 2.216 . S
Co70 O72 2.091 . S
Co70 O74 2.004 . S
Co70 O80 2.021 . S
Co70 O82 2.137 . S
Co70 O83 2.244 . S
O71 Co70 2.216 . S
O71 C78 1.247 . S
O72 Co70 2.091 . S
O72 C78 1.261 . S
C73 O82 1.247 . S
C73 O83 1.272 . S
O74 Co70 2.004 . S
O74 C79 1.259 . S
Co75 O76 2.061 . S
Co75 O81 2.052 . S
Co75 O83 2.135 . S
O76 Co75 2.061 . S
O76 C79 1.235 . S
C77 O80 1.238 . S
C77 O81 1.241 . S
C78 O71 1.247 . S
C78 O72 1.261 . S
C79 O74 1.259 . S
C79 O76 1.235 . S
O80 Co70 2.021 . S
O80 C77 1.238 . S
O81 Co75 2.052 . S
O81 C77 1.241 . S
O82 Co70 2.137 . S
O82 C73 1.247 . S
O83 Co70 2.244 . S
O83 C73 1.272 . S
O83 Co75 2.135 . S
Co84 O85 2.216 . S
Co84 O86 2.091 . S
Co84 O88 2.004 . S
Co84 O94 2.021 . S
Co84 O96 2.137 . S
Co84 O97 2.244 . S
O85 Co84 2.216 . S
O85 C92 1.247 . S
O86 Co84 2.091 . S
O86 C92 1.261 . S
C87 O96 1.247 . S
C87 O97 1.272 . S
O88 Co84 2.004 . S
O88 C93 1.259 . S
Co89 O90 2.061 . S
Co89 O95 2.052 . S
Co89 O97 2.135 . S
O90 Co89 2.061 . S
O90 C93 1.235 . S
C91 O94 1.238 . S
C91 O95 1.241 . S
C92 O85 1.247 . S
C92 O86 1.261 . S
C93 O88 1.259 . S
C93 O90 1.235 . S
O94 Co84 2.021 . S
O94 C91 1.238 . S
O95 Co89 2.052 . S
O95 C91 1.241 . S
O96 Co84 2.137 . S
O96 C87 1.247 . S
O97 Co84 2.244 . S
O97 C87 1.272 . S
O97 Co89 2.135 . S
Co98 O99 2.216 . S
Co98 O100 2.091 . S
Co98 O102 2.004 . S
Co98 O108 2.021 . S
Co98 O110 2.137 . S
Co98 O111 2.244 . S
O99 Co98 2.216 . S
O99 C106 1.247 . S
O100 Co98 2.091 . S
O100 C106 1.261 . S
C101 O110 1.247 . S
C101 O111 1.272 . S
O102 Co98 2.004 . S
O102 C107 1.259 . S
Co103 O104 2.061 . S
Co103 O109 2.052 . S
Co103 O111 2.135 . S
O104 Co103 2.061 . S
O104 C107 1.235 . S
C105 O108 1.238 . S
C105 O109 1.241 . S
C106 O99 1.247 . S
C106 O100 1.261 . S
C107 O102 1.259 . S
C107 O104 1.235 . S
O108 Co98 2.021 . S
O108 C105 1.238 . S
O109 Co103 2.052 . S
O109 C105 1.241 . S
O110 Co98 2.137 . S
O110 C101 1.247 . S
O111 Co98 2.244 . S
O111 C101 1.272 . S
O111 Co103 2.135 . S
Co112 O113 2.216 . S
Co112 O114 2.091 . S
Co112 O116 2.004 . S
Co112 O122 2.021 . S
Co112 O124 2.137 . S
Co112 O125 2.244 . S
O113 Co112 2.216 . S
O113 C120 1.247 . S
O114 Co112 2.091 . S
O114 C120 1.261 . S
C115 O124 1.247 . S
C115 O125 1.272 . S
O116 Co112 2.004 . S
O116 C121 1.259 . S
Co117 O118 2.061 . S
Co117 O123 2.052 . S
Co117 O125 2.135 . S
O118 Co117 2.061 . S
O118 C121 1.235 . S
C119 O122 1.238 . S
C119 O123 1.241 . S
C120 O113 1.247 . S
C120 O114 1.261 . S
C121 O116 1.259 . S
C121 O118 1.235 . S
O122 Co112 2.021 . S
O122 C119 1.238 . S
O123 Co117 2.052 . S
O123 C119 1.241 . S
O124 Co112 2.137 . S
O124 C115 1.247 . S
O125 Co112 2.244 . S
O125 C115 1.272 . S
O125 Co117 2.135 . S
Co126 O127 2.216 . S
Co126 O128 2.091 . S
Co126 O130 2.004 . S
Co126 O136 2.021 . S
Co126 O138 2.137 . S
Co126 O139 2.244 . S
O127 Co126 2.216 . S
O127 C134 1.247 . S
O128 Co126 2.091 . S
O128 C134 1.261 . S
C129 O138 1.247 . S
C129 O139 1.272 . S
O130 Co126 2.004 . S
O130 C135 1.259 . S
Co131 O132 2.061 . S
Co131 O137 2.052 . S
Co131 O139 2.135 . S
O132 Co131 2.061 . S
O132 C135 1.235 . S
C133 O136 1.238 . S
C133 O137 1.241 . S
C134 O127 1.247 . S
C134 O128 1.261 . S
C135 O130 1.259 . S
C135 O132 1.235 . S
O136 Co126 2.021 . S
O136 C133 1.238 . S
O137 Co131 2.052 . S
O137 C133 1.241 . S
O138 Co126 2.137 . S
O138 C129 1.247 . S
O139 Co126 2.244 . S
O139 C129 1.272 . S
O139 Co131 2.135 . S
Co140 O141 2.216 . S
Co140 O142 2.091 . S
Co140 O144 2.004 . S
Co140 O150 2.021 . S
Co140 O152 2.137 . S
Co140 O153 2.244 . S
O141 Co140 2.216 . S
O141 C148 1.247 . S
O142 Co140 2.091 . S
O142 C148 1.261 . S
C143 O152 1.247 . S
C143 O153 1.272 . S
O144 Co140 2.004 . S
O144 C149 1.259 . S
Co145 O146 2.061 . S
Co145 O151 2.052 . S
Co145 O153 2.135 . S
O146 Co145 2.061 . S
O146 C149 1.235 . S
C147 O150 1.238 . S
C147 O151 1.241 . S
C148 O141 1.247 . S
C148 O142 1.261 . S
C149 O144 1.259 . S
C149 O146 1.235 . S
O150 Co140 2.021 . S
O150 C147 1.238 . S
O151 Co145 2.052 . S
O151 C147 1.241 . S
O152 Co140 2.137 . S
O152 C143 1.247 . S
O153 Co140 2.244 . S
O153 C143 1.272 . S
O153 Co145 2.135 . S
Co154 O155 2.216 . S
Co154 O156 2.091 . S
Co154 O158 2.004 . S
Co154 O164 2.021 . S
Co154 O166 2.137 . S
Co154 O167 2.244 . S
O155 Co154 2.216 . S
O155 C162 1.247 . S
O156 Co154 2.091 . S
O156 C162 1.261 . S
C157 O166 1.247 . S
C157 O167 1.272 . S
O158 Co154 2.004 . S
O158 C163 1.259 . S
Co159 O160 2.061 . S
Co159 O165 2.052 . S
Co159 O167 2.135 . S
O160 Co159 2.061 . S
O160 C163 1.235 . S
C161 O164 1.238 . S
C161 O165 1.241 . S
C162 O155 1.247 . S
C162 O156 1.261 . S
C163 O158 1.259 . S
C163 O160 1.235 . S
O164 Co154 2.021 . S
O164 C161 1.238 . S
O165 Co159 2.052 . S
O165 C161 1.241 . S
O166 Co154 2.137 . S
O166 C157 1.247 . S
O167 Co154 2.244 . S
O167 C157 1.272 . S
O167 Co159 2.135 . S
Co168 O169 2.216 . S
Co168 O170 2.091 . S
Co168 O172 2.004 . S
Co168 O178 2.021 . S
Co168 O180 2.137 . S
Co168 O181 2.244 . S
O169 Co168 2.216 . S
O169 C176 1.247 . S
O170 Co168 2.091 . S
O170 C176 1.261 . S
C171 O180 1.247 . S
C171 O181 1.272 . S
O172 Co168 2.004 . S
O172 C177 1.259 . S
Co173 O174 2.061 . S
Co173 O179 2.052 . S
Co173 O181 2.135 . S
O174 Co173 2.061 . S
O174 C177 1.235 . S
C175 O178 1.238 . S
C175 O179 1.241 . S
C176 O169 1.247 . S
C176 O170 1.261 . S
C177 O172 1.259 . S
C177 O174 1.235 . S
O178 Co168 2.021 . S
O178 C175 1.238 . S
O179 Co173 2.052 . S
O179 C175 1.241 . S
O180 Co168 2.137 . S
O180 C171 1.247 . S
O181 Co168 2.244 . S
O181 C171 1.272 . S
O181 Co173 2.135 . S
Co182 O183 2.216 . S
Co182 O184 2.091 . S
Co182 O186 2.004 . S
Co182 O192 2.021 . S
Co182 O194 2.137 . S
Co182 O195 2.244 . S
O183 Co182 2.216 . S
O183 C190 1.247 . S
O184 Co182 2.091 . S
O184 C190 1.261 . S
C185 O194 1.247 . S
C185 O195 1.272 . S
O186 Co182 2.004 . S
O186 C191 1.259 . S
Co187 O188 2.061 . S
Co187 O193 2.052 . S
Co187 O195 2.135 . S
O188 Co187 2.061 . S
O188 C191 1.235 . S
C189 O192 1.238 . S
C189 O193 1.241 . S
C190 O183 1.247 . S
C190 O184 1.261 . S
C191 O186 1.259 . S
C191 O188 1.235 . S
O192 Co182 2.021 . S
O192 C189 1.238 . S
O193 Co187 2.052 . S
O193 C189 1.241 . S
O194 Co182 2.137 . S
O194 C185 1.247 . S
O195 Co182 2.244 . S
O195 C185 1.272 . S
O195 Co187 2.135 . S
Co196 O197 2.216 . S
Co196 O198 2.091 . S
Co196 O200 2.004 . S
Co196 O206 2.021 . S
Co196 O208 2.137 . S
Co196 O209 2.244 . S
O197 Co196 2.216 . S
O197 C204 1.247 . S
O198 Co196 2.091 . S
O198 C204 1.261 . S
C199 O208 1.247 . S
C199 O209 1.272 . S
O200 Co196 2.004 . S
O200 C205 1.259 . S
Co201 O202 2.061 . S
Co201 O207 2.052 . S
Co201 O209 2.135 . S
O202 Co201 2.061 . S
O202 C205 1.235 . S
C203 O206 1.238 . S
C203 O207 1.241 . S
C204 O197 1.247 . S
C204 O198 1.261 . S
C205 O200 1.259 . S
C205 O202 1.235 . S
O206 Co196 2.021 . S
O206 C203 1.238 . S
O207 Co201 2.052 . S
O207 C203 1.241 . S
O208 Co196 2.137 . S
O208 C199 1.247 . S
O209 Co196 2.244 . S
O209 C199 1.272 . S
O209 Co201 2.135 . S
Co210 O211 2.216 . S
Co210 O212 2.091 . S
Co210 O214 2.004 . S
Co210 O220 2.021 . S
Co210 O222 2.137 . S
Co210 O223 2.244 . S
O211 Co210 2.216 . S
O211 C218 1.247 . S
O212 Co210 2.091 . S
O212 C218 1.261 . S
C213 O222 1.247 . S
C213 O223 1.272 . S
O214 Co210 2.004 . S
O214 C219 1.259 . S
Co215 O216 2.061 . S
Co215 O221 2.052 . S
Co215 O223 2.135 . S
O216 Co215 2.061 . S
O216 C219 1.235 . S
C217 O220 1.238 . S
C217 O221 1.241 . S
C218 O211 1.247 . S
C218 O212 1.261 . S
C219 O214 1.259 . S
C219 O216 1.235 . S
O220 Co210 2.021 . S
O220 C217 1.238 . S
O221 Co215 2.052 . S
O221 C217 1.241 . S
O222 Co210 2.137 . S
O222 C213 1.247 . S
O223 Co210 2.244 . S
O223 C213 1.272 . S
O223 Co215 2.135 . S
C224 C225 1.387 . S
C224 H228 0.950 . S
C224 C233 1.390 . S
C225 C224 1.387 . S
C225 C227 1.387 . S
H226 C233 0.950 . S
C227 C225 1.387 . S
C227 C229 1.390 . S
C227 H231 0.950 . S
H228 C224 0.950 . S
C229 C227 1.390 . S
C229 C230 1.387 . S
C229 H232 0.950 . S
C230 C229 1.387 . S
C230 C233 1.387 . S
H231 C227 0.950 . S
H232 C229 0.950 . S
C233 C224 1.390 . S
C233 H226 0.950 . S
C233 C230 1.387 . S
C234 C235 1.387 . S
C234 H238 0.950 . S
C234 C243 1.390 . S
C235 C234 1.387 . S
C235 C237 1.387 . S
H236 C243 0.950 . S
C237 C235 1.387 . S
C237 C239 1.390 . S
C237 H241 0.950 . S
H238 C234 0.950 . S
C239 C237 1.390 . S
C239 C240 1.387 . S
C239 H242 0.950 . S
C240 C239 1.387 . S
C240 C243 1.387 . S
H241 C237 0.950 . S
H242 C239 0.950 . S
C243 C234 1.390 . S
C243 H236 0.950 . S
C243 C240 1.387 . S
C244 C245 1.387 . S
C244 H248 0.950 . S
C244 C253 1.390 . S
C245 C244 1.387 . S
C245 C247 1.387 . S
H246 C253 0.950 . S
C247 C245 1.387 . S
C247 C249 1.390 . S
C247 H251 0.950 . S
H248 C244 0.950 . S
C249 C247 1.390 . S
C249 C250 1.387 . S
C249 H252 0.950 . S
C250 C249 1.387 . S
C250 C253 1.387 . S
H251 C247 0.950 . S
H252 C249 0.950 . S
C253 C244 1.390 . S
C253 H246 0.950 . S
C253 C250 1.387 . S
C254 C255 1.387 . S
C254 H258 0.950 . S
C254 C263 1.390 . S
C255 C254 1.387 . S
C255 C257 1.387 . S
H256 C263 0.950 . S
C257 C255 1.387 . S
C257 C259 1.390 . S
C257 H261 0.950 . S
H258 C254 0.950 . S
C259 C257 1.390 . S
C259 C260 1.387 . S
C259 H262 0.950 . S
C260 C259 1.387 . S
C260 C263 1.387 . S
H261 C257 0.950 . S
H262 C259 0.950 . S
C263 C254 1.390 . S
C263 H256 0.950 . S
C263 C260 1.387 . S
C264 C265 1.387 . S
C264 H268 0.950 . S
C264 C273 1.390 . S
C265 C264 1.387 . S
C265 C267 1.387 . S
H266 C273 0.950 . S
C267 C265 1.387 . S
C267 C269 1.390 . S
C267 H271 0.950 . S
H268 C264 0.950 . S
C269 C267 1.390 . S
C269 C270 1.387 . S
C269 H272 0.950 . S
C270 C269 1.387 . S
C270 C273 1.387 . S
H271 C267 0.950 . S
H272 C269 0.950 . S
C273 C264 1.390 . S
C273 H266 0.950 . S
C273 C270 1.387 . S
C274 C275 1.387 . S
C274 H278 0.950 . S
C274 C283 1.390 . S
C275 C274 1.387 . S
C275 C277 1.387 . S
H276 C283 0.950 . S
C277 C275 1.387 . S
C277 C279 1.390 . S
C277 H281 0.950 . S
H278 C274 0.950 . S
C279 C277 1.390 . S
C279 C280 1.387 . S
C279 H282 0.950 . S
C280 C279 1.387 . S
C280 C283 1.387 . S
H281 C277 0.950 . S
H282 C279 0.950 . S
C283 C274 1.390 . S
C283 H276 0.950 . S
C283 C280 1.387 . S
C284 C285 1.387 . S
C284 H288 0.950 . S
C284 C293 1.390 . S
C285 C284 1.387 . S
C285 C287 1.387 . S
H286 C293 0.950 . S
C287 C285 1.387 . S
C287 C289 1.390 . S
C287 H291 0.950 . S
H288 C284 0.950 . S
C289 C287 1.390 . S
C289 C290 1.387 . S
C289 H292 0.950 . S
C290 C289 1.387 . S
C290 C293 1.387 . S
H291 C287 0.950 . S
H292 C289 0.950 . S
C293 C284 1.390 . S
C293 H286 0.950 . S
C293 C290 1.387 . S
C294 C295 1.387 . S
C294 H298 0.950 . S
C294 C303 1.390 . S
C295 C294 1.387 . S
C295 C297 1.387 . S
H296 C303 0.950 . S
C297 C295 1.387 . S
C297 C299 1.390 . S
C297 H301 0.950 . S
H298 C294 0.950 . S
C299 C297 1.390 . S
C299 C300 1.387 . S
C299 H302 0.950 . S
C300 C299 1.387 . S
C300 C303 1.387 . S
H301 C297 0.950 . S
H302 C299 0.950 . S
C303 C294 1.390 . S
C303 H296 0.950 . S
C303 C300 1.387 . S
C304 C305 1.387 . S
C304 H308 0.950 . S
C304 C313 1.390 1_556 S
C305 C304 1.387 . S
C305 C307 1.387 . S
H306 C313 0.950 . S
C307 C305 1.387 . S
C307 C309 1.390 1_556 S
C307 H311 0.950 . S
H308 C304 0.950 . S
C309 C307 1.390 1_554 S
C309 C310 1.387 . S
C309 H312 0.950 . S
C310 C309 1.387 . S
C310 C313 1.387 . S
H311 C307 0.950 . S
H312 C309 0.950 . S
C313 C304 1.390 1_554 S
C313 H306 0.950 . S
C313 C310 1.387 . S
C314 C315 1.387 . S
C314 H318 0.950 . S
C314 C323 1.390 1_556 S
C315 C314 1.387 . S
C315 C317 1.387 . S
H316 C323 0.950 . S
C317 C315 1.387 . S
C317 C319 1.390 1_556 S
C317 H321 0.950 . S
H318 C314 0.950 . S
C319 C317 1.390 1_554 S
C319 C320 1.387 . S
C319 H322 0.950 . S
C320 C319 1.387 . S
C320 C323 1.387 . S
H321 C317 0.950 . S
H322 C319 0.950 . S
C323 C314 1.390 1_554 S
C323 H316 0.950 . S
C323 C320 1.387 . S
C324 C325 1.387 . S
C324 H328 0.950 . S
C324 C333 1.390 1_556 S
C325 C324 1.387 . S
C325 C327 1.387 . S
H326 C333 0.950 . S
C327 C325 1.387 . S
C327 C329 1.390 1_556 S
C327 H331 0.950 . S
H328 C324 0.950 . S
C329 C327 1.390 1_554 S
C329 C330 1.387 . S
C329 H332 0.950 . S
C330 C329 1.387 . S
C330 C333 1.387 . S
H331 C327 0.950 . S
H332 C329 0.950 . S
C333 C324 1.390 1_554 S
C333 H326 0.950 . S
C333 C330 1.387 . S
C334 C335 1.387 . S
C334 H338 0.950 . S
C334 C343 1.390 1_554 S
C335 C334 1.387 . S
C335 C337 1.387 . S
H336 C343 0.950 . S
C337 C335 1.387 . S
C337 C339 1.390 1_554 S
C337 H341 0.950 . S
H338 C334 0.950 . S
C339 C337 1.390 1_556 S
C339 C340 1.387 . S
C339 H342 0.950 . S
C340 C339 1.387 . S
C340 C343 1.387 . S
H341 C337 0.950 . S
H342 C339 0.950 . S
C343 C334 1.390 1_556 S
C343 H336 0.950 . S
C343 C340 1.387 . S
C344 C345 1.387 . S
C344 H348 0.950 . S
C344 C353 1.390 . S
C345 C344 1.387 . S
C345 C347 1.387 . S
H346 C353 0.950 . S
C347 C345 1.387 . S
C347 C349 1.390 . S
C347 H351 0.950 . S
H348 C344 0.950 . S
C349 C347 1.390 . S
C349 C350 1.387 . S
C349 H352 0.950 . S
C350 C349 1.387 . S
C350 C353 1.387 . S
H351 C347 0.950 . S
H352 C349 0.950 . S
C353 C344 1.390 . S
C353 H346 0.950 . S
C353 C350 1.387 . S
C354 C355 1.387 . S
C354 H358 0.950 . S
C354 C363 1.390 . S
C355 C354 1.387 . S
C355 C357 1.387 . S
H356 C363 0.950 . S
C357 C355 1.387 . S
C357 C359 1.390 . S
C357 H361 0.950 . S
H358 C354 0.950 . S
C359 C357 1.390 . S
C359 C360 1.387 . S
C359 H362 0.950 . S
C360 C359 1.387 . S
C360 C363 1.387 . S
H361 C357 0.950 . S
H362 C359 0.950 . S
C363 C354 1.390 . S
C363 H356 0.950 . S
C363 C360 1.387 . S
C364 C365 1.387 . S
C364 H368 0.950 . S
C364 C373 1.390 . S
C365 C364 1.387 . S
C365 C367 1.387 . S
H366 C373 0.950 . S
C367 C365 1.387 . S
C367 C369 1.390 . S
C367 H371 0.950 . S
H368 C364 0.950 . S
C369 C367 1.390 . S
C369 C370 1.387 . S
C369 H372 0.950 . S
C370 C369 1.387 . S
C370 C373 1.387 . S
H371 C367 0.950 . S
H372 C369 0.950 . S
C373 C364 1.390 . S
C373 H366 0.950 . S
C373 C370 1.387 . S
C374 C375 1.387 . S
C374 H378 0.950 . S
C374 C383 1.390 . S
C375 C374 1.387 . S
C375 C377 1.387 . S
H376 C383 0.950 . S
C377 C375 1.387 . S
C377 C379 1.390 . S
C377 H381 0.950 . S
H378 C374 0.950 . S
C379 C377 1.390 . S
C379 C380 1.387 . S
C379 H382 0.950 . S
C380 C379 1.387 . S
C380 C383 1.387 . S
H381 C377 0.950 . S
H382 C379 0.950 . S
C383 C374 1.390 . S
C383 H376 0.950 . S
C383 C380 1.387 . S
C384 C385 1.387 . S
C384 H388 0.950 . S
C384 C393 1.390 . S
C385 C384 1.387 . S
C385 C387 1.387 . S
H386 C393 0.950 . S
C387 C385 1.387 . S
C387 C389 1.390 . S
C387 H391 0.950 . S
H388 C384 0.950 . S
C389 C387 1.390 . S
C389 C390 1.387 . S
C389 H392 0.950 . S
C390 C389 1.387 . S
C390 C393 1.387 . S
H391 C387 0.950 . S
H392 C389 0.950 . S
C393 C384 1.390 . S
C393 H386 0.950 . S
C393 C390 1.387 . S
C394 C395 1.387 . S
C394 H398 0.950 . S
C394 C403 1.390 . S
C395 C394 1.387 . S
C395 C397 1.387 . S
H396 C403 0.950 . S
C397 C395 1.387 . S
C397 C399 1.390 . S
C397 H401 0.950 . S
H398 C394 0.950 . S
C399 C397 1.390 . S
C399 C400 1.387 . S
C399 H402 0.950 . S
C400 C399 1.387 . S
C400 C403 1.387 . S
H401 C397 0.950 . S
H402 C399 0.950 . S
C403 C394 1.390 . S
C403 H396 0.950 . S
C403 C400 1.387 . S
C404 C405 1.387 . S
C404 H408 0.950 . S
C404 C413 1.390 . S
C405 C404 1.387 . S
C405 C407 1.387 . S
H406 C413 0.950 . S
C407 C405 1.387 . S
C407 C409 1.390 . S
C407 H411 0.950 . S
H408 C404 0.950 . S
C409 C407 1.390 . S
C409 C410 1.387 . S
C409 H412 0.950 . S
C410 C409 1.387 . S
C410 C413 1.387 . S
H411 C407 0.950 . S
H412 C409 0.950 . S
C413 C404 1.390 . S
C413 H406 0.950 . S
C413 C410 1.387 . S
C414 C415 1.387 . S
C414 H418 0.950 . S
C414 C423 1.390 . S
C415 C414 1.387 . S
C415 C417 1.387 . S
H416 C423 0.950 . S
C417 C415 1.387 . S
C417 C419 1.390 . S
C417 H421 0.950 . S
H418 C414 0.950 . S
C419 C417 1.390 . S
C419 C420 1.387 . S
C419 H422 0.950 . S
C420 C419 1.387 . S
C420 C423 1.387 . S
H421 C417 0.950 . S
H422 C419 0.950 . S
C423 C414 1.390 . S
C423 H416 0.950 . S
C423 C420 1.387 . S
C424 C425 1.387 . S
C424 H428 0.950 . S
C424 C433 1.390 . S
C425 C424 1.387 . S
C425 C427 1.387 . S
H426 C433 0.950 . S
C427 C425 1.387 . S
C427 C429 1.390 . S
C427 H431 0.950 . S
H428 C424 0.950 . S
C429 C427 1.390 . S
C429 C430 1.387 . S
C429 H432 0.950 . S
C430 C429 1.387 . S
C430 C433 1.387 . S
H431 C427 0.950 . S
H432 C429 0.950 . S
C433 C424 1.390 . S
C433 H426 0.950 . S
C433 C430 1.387 . S
C434 C435 1.387 . S
C434 H438 0.950 . S
C434 C443 1.390 . S
C435 C434 1.387 . S
C435 C437 1.387 . S
H436 C443 0.950 . S
C437 C435 1.387 . S
C437 C439 1.390 . S
C437 H441 0.950 . S
H438 C434 0.950 . S
C439 C437 1.390 . S
C439 C440 1.387 . S
C439 H442 0.950 . S
C440 C439 1.387 . S
C440 C443 1.387 . S
H441 C437 0.950 . S
H442 C439 0.950 . S
C443 C434 1.390 . S
C443 H436 0.950 . S
C443 C440 1.387 . S
C444 C445 1.387 . S
C444 H448 0.950 . S
C444 C453 1.390 . S
C445 C444 1.387 . S
C445 C447 1.387 . S
H446 C453 0.950 . S
C447 C445 1.387 . S
C447 C449 1.390 . S
C447 H451 0.950 . S
H448 C444 0.950 . S
C449 C447 1.390 . S
C449 C450 1.387 . S
C449 H452 0.950 . S
C450 C449 1.387 . S
C450 C453 1.387 . S
H451 C447 0.950 . S
H452 C449 0.950 . S
C453 C444 1.390 . S
C453 H446 0.950 . S
C453 C450 1.387 . S
C454 C455 1.387 . S
C454 H458 0.950 . S
C454 C463 1.390 . S
C455 C454 1.387 . S
C455 C457 1.387 . S
H456 C463 0.950 . S
C457 C455 1.387 . S
C457 C459 1.390 . S
C457 H461 0.950 . S
H458 C454 0.950 . S
C459 C457 1.390 . S
C459 C460 1.387 . S
C459 H462 0.950 . S
C460 C459 1.387 . S
C460 C463 1.387 . S
H461 C457 0.950 . S
H462 C459 0.950 . S
C463 C454 1.390 . S
C463 H456 0.950 . S
C463 C460 1.387 . S
C464 C465 1.387 . S
C464 H468 0.950 . S
C464 C473 1.390 1_545 S
C465 C464 1.387 . S
C465 C467 1.387 . S
H466 C473 0.950 . S
C467 C465 1.387 . S
C467 C469 1.390 1_545 S
C467 H471 0.950 . S
H468 C464 0.950 . S
C469 C467 1.390 1_565 S
C469 C470 1.387 . S
C469 H472 0.950 . S
C470 C469 1.387 . S
C470 C473 1.387 . S
H471 C467 0.950 . S
H472 C469 0.950 . S
C473 C464 1.390 1_565 S
C473 H466 0.950 . S
C473 C470 1.387 . S
C474 C475 1.387 . S
C474 H478 0.950 . S
C474 C483 1.390 1_655 S
C475 C474 1.387 . S
C475 C477 1.387 . S
H476 C483 0.950 . S
C477 C475 1.387 . S
C477 C479 1.390 1_655 S
C477 H481 0.950 . S
H478 C474 0.950 . S
C479 C477 1.390 1_455 S
C479 C480 1.387 . S
C479 H482 0.950 . S
C480 C479 1.387 . S
C480 C483 1.387 . S
H481 C477 0.950 . S
H482 C479 0.950 . S
C483 C474 1.390 1_455 S
C483 H476 0.950 . S
C483 C480 1.387 . S
C484 C485 1.387 . S
C484 H488 0.950 . S
C484 C493 1.390 1_545 S
C485 C484 1.387 . S
C485 C487 1.387 . S
H486 C493 0.950 . S
C487 C485 1.387 . S
C487 C489 1.390 1_545 S
C487 H491 0.950 . S
H488 C484 0.950 . S
C489 C487 1.390 1_565 S
C489 C490 1.387 . S
C489 H492 0.950 . S
C490 C489 1.387 . S
C490 C493 1.387 . S
H491 C487 0.950 . S
H492 C489 0.950 . S
C493 C484 1.390 1_565 S
C493 H486 0.950 . S
C493 C490 1.387 . S
C494 C495 1.387 . S
C494 H498 0.950 . S
C494 C503 1.390 1_455 S
C495 C494 1.387 . S
C495 C497 1.387 . S
H496 C503 0.950 . S
C497 C495 1.387 . S
C497 C499 1.390 1_455 S
C497 H501 0.950 . S
H498 C494 0.950 . S
C499 C497 1.390 1_655 S
C499 C500 1.387 . S
C499 H502 0.950 . S
C500 C499 1.387 . S
C500 C503 1.387 . S
H501 C497 0.950 . S
H502 C499 0.950 . S
C503 C494 1.390 1_655 S
C503 H496 0.950 . S
C503 C500 1.387 . S
C504 C505 1.387 . S
C504 H508 0.950 . S
C504 C513 1.390 1_545 S
C505 C504 1.387 . S
C505 C507 1.387 . S
H506 C513 0.950 . S
C507 C505 1.387 . S
C507 C509 1.390 1_545 S
C507 H511 0.950 . S
H508 C504 0.950 . S
C509 C507 1.390 1_565 S
C509 C510 1.387 . S
C509 H512 0.950 . S
C510 C509 1.387 . S
C510 C513 1.387 . S
H511 C507 0.950 . S
H512 C509 0.950 . S
C513 C504 1.390 1_565 S
C513 H506 0.950 . S
C513 C510 1.387 . S
C514 C515 1.387 . S
C514 H518 0.950 . S
C514 C523 1.390 1_655 S
C515 C514 1.387 . S
C515 C517 1.387 . S
H516 C523 0.950 . S
C517 C515 1.387 . S
C517 C519 1.390 1_655 S
C517 H521 0.950 . S
H518 C514 0.950 . S
C519 C517 1.390 1_455 S
C519 C520 1.387 . S
C519 H522 0.950 . S
C520 C519 1.387 . S
C520 C523 1.387 . S
H521 C517 0.950 . S
H522 C519 0.950 . S
C523 C514 1.390 1_455 S
C523 H516 0.950 . S
C523 C520 1.387 . S
C524 C525 1.387 . S
C524 H528 0.950 . S
C524 C533 1.390 1_565 S
C525 C524 1.387 . S
C525 C527 1.387 . S
H526 C533 0.950 . S
C527 C525 1.387 . S
C527 C529 1.390 1_565 S
C527 H531 0.950 . S
H528 C524 0.950 . S
C529 C527 1.390 1_545 S
C529 C530 1.387 . S
C529 H532 0.950 . S
C530 C529 1.387 . S
C530 C533 1.387 . S
H531 C527 0.950 . S
H532 C529 0.950 . S
C533 C524 1.390 1_545 S
C533 H526 0.950 . S
C533 C530 1.387 . S
C534 C535 1.387 . S
C534 H538 0.950 . S
C534 C543 1.390 1_455 S
C535 C534 1.387 . S
C535 C537 1.387 . S
H536 C543 0.950 . S
C537 C535 1.387 . S
C537 C539 1.390 1_455 S
C537 H541 0.950 . S
H538 C534 0.950 . S
C539 C537 1.390 1_655 S
C539 C540 1.387 . S
C539 H542 0.950 . S
C540 C539 1.387 . S
C540 C543 1.387 . S
H541 C537 0.950 . S
H542 C539 0.950 . S
C543 C534 1.390 1_655 S
C543 H536 0.950 . S
C543 C540 1.387 . S
C225 C78 1.462 . S
C230 C8 1.462 . S
C235 C92 1.463 . S
C240 C22 1.462 . S
C245 C36 1.462 . S
C250 C106 1.463 . S
C255 C50 1.463 . S
C260 C64 1.462 . S
C265 C190 1.463 . S
C270 C120 1.463 . S
C275 C204 1.463 . S
C280 C134 1.462 . S
C285 C148 1.462 . S
C290 C218 1.463 . S
C295 C162 1.462 . S
C300 C176 1.463 . S
C305 C147 1.486 . S
C310 C7 1.489 . S
C315 C161 1.488 . S
C320 C21 1.488 . S
C325 C119 1.486 . S
C330 C35 1.489 . S
C335 C49 1.487 . S
C340 C133 1.489 . S
C345 C203 1.488 . S
C350 C63 1.487 . S
C355 C217 1.486 . S
C360 C77 1.489 . S
C365 C91 1.486 . S
C370 C175 1.489 . S
C375 C189 1.486 . S
C380 C105 1.488 . S
C385 C65 1.773 . S
C390 C9 1.773 . S
C395 C23 1.773 . S
C400 C79 1.773 . S
C405 C37 1.774 . S
C410 C93 1.774 . S
C415 C107 1.774 . S
C420 C51 1.774 . S
C425 C115 1.150 . S
C430 C171 1.150 . S
C435 C185 1.150 . S
C440 C129 1.150 . S
C445 C143 1.148 . S
C450 C199 1.148 . S
C455 C213 1.150 . S
C460 C157 1.150 . S
C465 C163 1.773 . S
C470 C191 1.773 . S
C475 C121 1.774 . S
C480 C205 1.774 . S
C485 C219 1.773 . S
C490 C135 1.773 . S
C495 C149 1.773 . S
C500 C177 1.773 . S
C505 C73 1.148 . S
C510 C45 1.148 . S
C515 C87 1.148 . S
C520 C3 1.148 . S
C525 C101 1.150 . S
C530 C17 1.150 . S
C535 C59 1.148 . S
C540 C31 1.148 . S
