# Generated by pormake.
# Topology wkp, (6)-cn, num edge types: 1
# Building blocks:
#     Node 0, Type 0, BuildingBlock: OJICUG_clean_sbu_0, # of connection points: 6
#     Node 1, Type 0, BuildingBlock: OJICUG_clean_sbu_0, # of connection points: 6
#     Node 2, Type 0, BuildingBlock: OJICUG_clean_sbu_0, # of connection points: 6
#     Node 3, Type 0, BuildingBlock: OJICUG_clean_sbu_0, # of connection points: 6
#     Node 4, Type 0, BuildingBlock: OJICUG_clean_sbu_0, # of connection points: 6
#     Node 5, Type 0, BuildingBlock: OJICUG_clean_sbu_0, # of connection points: 6
#     Node 6, Type 0, BuildingBlock: OJICUG_clean_sbu_0, # of connection points: 6
#     Node 7, Type 0, BuildingBlock: OJICUG_clean_sbu_0, # of connection points: 6
#     Node 8, Type 0, BuildingBlock: OJICUG_clean_sbu_0, # of connection points: 6
#     Node 9, Type 0, BuildingBlock: OJICUG_clean_sbu_0, # of connection points: 6
#     Node 10, Type 0, BuildingBlock: OJICUG_clean_sbu_0, # of connection points: 6
#     Node 11, Type 0, BuildingBlock: OJICUG_clean_sbu_0, # of connection points: 6
#     Edge 12, Type (0, 0), BuildingBlock: KIFKEQ_clean_linker_1, # of connection points: 2
#     Edge 13, Type (0, 0), BuildingBlock: KIFKEQ_clean_linker_1, # of connection points: 2
#     Edge 14, Type (0, 0), BuildingBlock: KIFKEQ_clean_linker_1, # of connection points: 2
#     Edge 15, Type (0, 0), BuildingBlock: KIFKEQ_clean_linker_1, # of connection points: 2
#     Edge 16, Type (0, 0), BuildingBlock: KIFKEQ_clean_linker_1, # of connection points: 2
#     Edge 17, Type (0, 0), BuildingBlock: KIFKEQ_clean_linker_1, # of connection points: 2
#     Edge 18, Type (0, 0), BuildingBlock: KIFKEQ_clean_linker_1, # of connection points: 2
#     Edge 19, Type (0, 0), BuildingBlock: KIFKEQ_clean_linker_1, # of connection points: 2
#     Edge 20, Type (0, 0), BuildingBlock: KIFKEQ_clean_linker_1, # of connection points: 2
#     Edge 21, Type (0, 0), BuildingBlock: KIFKEQ_clean_linker_1, # of connection points: 2
#     Edge 22, Type (0, 0), BuildingBlock: KIFKEQ_clean_linker_1, # of connection points: 2
#     Edge 23, Type (0, 0), BuildingBlock: KIFKEQ_clean_linker_1, # of connection points: 2
#     Edge 24, Type (0, 0), BuildingBlock: KIFKEQ_clean_linker_1, # of connection points: 2
#     Edge 25, Type (0, 0), BuildingBlock: KIFKEQ_clean_linker_1, # of connection points: 2
#     Edge 26, Type (0, 0), BuildingBlock: KIFKEQ_clean_linker_1, # of connection points: 2
#     Edge 27, Type (0, 0), BuildingBlock: KIFKEQ_clean_linker_1, # of connection points: 2
#     Edge 28, Type (0, 0), BuildingBlock: KIFKEQ_clean_linker_1, # of connection points: 2
#     Edge 29, Type (0, 0), BuildingBlock: KIFKEQ_clean_linker_1, # of connection points: 2
#     Edge 30, Type (0, 0), BuildingBlock: KIFKEQ_clean_linker_1, # of connection points: 2
#     Edge 31, Type (0, 0), BuildingBlock: KIFKEQ_clean_linker_1, # of connection points: 2
#     Edge 32, Type (0, 0), BuildingBlock: KIFKEQ_clean_linker_1, # of connection points: 2
#     Edge 33, Type (0, 0), BuildingBlock: KIFKEQ_clean_linker_1, # of connection points: 2
#     Edge 34, Type (0, 0), BuildingBlock: KIFKEQ_clean_linker_1, # of connection points: 2
#     Edge 35, Type (0, 0), BuildingBlock: KIFKEQ_clean_linker_1, # of connection points: 2
#     Edge 36, Type (0, 0), BuildingBlock: KIFKEQ_clean_linker_1, # of connection points: 2
#     Edge 37, Type (0, 0), BuildingBlock: KIFKEQ_clean_linker_1, # of connection points: 2
#     Edge 38, Type (0, 0), BuildingBlock: KIFKEQ_clean_linker_1, # of connection points: 2
#     Edge 39, Type (0, 0), BuildingBlock: KIFKEQ_clean_linker_1, # of connection points: 2
#     Edge 40, Type (0, 0), BuildingBlock: KIFKEQ_clean_linker_1, # of connection points: 2
#     Edge 41, Type (0, 0), BuildingBlock: KIFKEQ_clean_linker_1, # of connection points: 2
#     Edge 42, Type (0, 0), BuildingBlock: KIFKEQ_clean_linker_1, # of connection points: 2
#     Edge 43, Type (0, 0), BuildingBlock: KIFKEQ_clean_linker_1, # of connection points: 2
#     Edge 44, Type (0, 0), BuildingBlock: KIFKEQ_clean_linker_1, # of connection points: 2
#     Edge 45, Type (0, 0), BuildingBlock: KIFKEQ_clean_linker_1, # of connection points: 2
#     Edge 46, Type (0, 0), BuildingBlock: KIFKEQ_clean_linker_1, # of connection points: 2
#     Edge 47, Type (0, 0), BuildingBlock: KIFKEQ_clean_linker_1, # of connection points: 2
# Relax obj value: 0.288
# Max RMSD: 0.309
# Mean RMSD: 0.309
data_MOF--net-wkp--node1-OJICUG_clean_sbu_0--edge1-KIFKEQ_clean_linker_1
_symmetry_space_group_name_H-M    P1
_symmetry_Int_Tables_number       1
_symmetry_cell_setting            triclinic
loop_
_symmetry_equiv_pos_as_xyz
'x, y, z'
_cell_length_a     44.497036
_cell_length_b     44.586332
_cell_length_c     31.137936
_cell_angle_alpha  90.06141
_cell_angle_beta   89.87634
_cell_angle_gamma 120.07574
loop_
_atom_site_label
_atom_site_type_symbol
_atom_site_fract_x
_atom_site_fract_y
_atom_site_fract_z
_atom_type_partial_charge
Sc0 Sc 0.21583 0.43072 0.0137 0.0
Sc1 Sc 0.19421 0.34462 -0.00048 0.0
Sc2 Sc 0.26781 0.40067 0.05841 0.0
O3 O 0.22593 0.39201 0.02409 0.0
C4 C 0.29822 0.46941 0.00529 0.0
C5 C 0.19685 0.39456 0.92407 0.0
C6 C 0.26653 0.35211 0.9816 0.0
C7 C 0.14043 0.36514 0.03033 0.0
C8 C 0.23892 0.4431 0.11026 0.0
C9 C 0.21603 0.32572 0.0895 0.0
O10 O 0.26968 0.46944 0.00544 0.0
O11 O 0.1847 0.36476 0.94112 0.0
O12 O 0.27948 0.36934 0.01596 0.0
O13 O 0.16058 0.39684 0.02074 0.0
O14 O 0.26064 0.43272 0.10493 0.0
O15 O 0.20039 0.31736 0.05351 0.0
O16 O 0.2181 0.44126 0.08112 0.0
O17 O 0.15002 0.34263 0.02969 0.0
O18 O 0.23769 0.3569 0.09939 0.0
O19 O 0.21307 0.42249 0.94545 0.0
O20 O 0.30134 0.44453 0.01978 0.0
O21 O 0.23664 0.34439 0.96784 0.0
Sc22 Sc 0.85465 0.27463 0.22189 0.0
Sc23 Sc 0.83885 0.19972 0.16634 0.0
Sc24 Sc 0.77223 0.21894 0.17914 0.0
O25 O 0.82193 0.23111 0.18934 0.0
C26 C 0.78392 0.24457 0.2755 0.0
C27 C 0.88089 0.2253 0.25513 0.0
C28 C 0.76506 0.1453 0.19966 0.0
C29 C 0.90155 0.27331 0.14445 0.0
C30 C 0.81283 0.30101 0.16741 0.0
C31 C 0.78987 0.19833 0.09026 0.0
O32 O 0.81611 0.26602 0.27004 0.0
O33 O 0.87248 0.20753 0.22071 0.0
O34 O 0.7526 0.16463 0.19024 0.0
O35 O 0.89672 0.28756 0.17721 0.0
O36 O 0.78544 0.27149 0.16639 0.0
O37 O 0.80931 0.18843 0.10753 0.0
O38 O 0.84093 0.30601 0.18415 0.0
O39 O 0.88098 0.24201 0.13384 0.0
O40 O 0.77659 0.21329 0.11125 0.0
O41 O 0.87222 0.2479 0.26285 0.0
O42 O 0.76462 0.22395 0.24633 0.0
O43 O 0.79729 0.15537 0.19727 0.0
Sc44 Sc 0.53616 0.77711 0.34858 0.0
Sc45 Sc 0.62294 0.84101 0.33324 0.0
Sc46 Sc 0.5677 0.85993 0.39184 0.0
O47 O 0.57559 0.82597 0.35809 0.0
C48 C 0.49845 0.8214 0.33929 0.0
C49 C 0.57226 0.7932 0.2584 0.0
C50 C 0.6163 0.90602 0.31421 0.0
C51 C 0.60137 0.76679 0.36537 0.0
C52 C 0.52471 0.78946 0.44536 0.0
C53 C 0.64273 0.88273 0.42262 0.0
O54 O 0.49802 0.7927 0.33947 0.0
O55 O 0.60223 0.81105 0.27508 0.0
O56 O 0.59891 0.90215 0.34838 0.0
O57 O 0.56954 0.75536 0.3565 0.0
O58 O 0.53623 0.82167 0.43942 0.0
O59 O 0.65093 0.87485 0.38686 0.0
O60 O 0.52514 0.76965 0.41622 0.0
O61 O 0.62427 0.79877 0.36375 0.0
O62 O 0.61166 0.87389 0.43232 0.0
O63 O 0.54441 0.78155 0.28015 0.0
O64 O 0.52352 0.84933 0.35381 0.0
O65 O 0.62395 0.88369 0.30109 0.0
Sc66 Sc 0.68865 0.57142 0.55928 0.0
Sc67 Sc 0.7646 0.62879 0.50387 0.0
Sc68 Sc 0.74271 0.54188 0.51742 0.0
O69 O 0.73205 0.58072 0.52706 0.0
C70 C 0.71632 0.52936 0.61401 0.0
C71 C 0.74085 0.64686 0.59293 0.0
C72 C 0.81772 0.60705 0.53673 0.0
C73 C 0.69147 0.62006 0.48231 0.0
C74 C 0.66077 0.50266 0.50512 0.0
C75 C 0.76361 0.57985 0.4275 0.0
O76 O 0.69662 0.54205 0.60824 0.0
O77 O 0.75966 0.6555 0.5593 0.0
O78 O 0.79718 0.57505 0.52956 0.0
O79 O 0.67625 0.60015 0.51403 0.0
O80 O 0.68978 0.50373 0.50391 0.0
O81 O 0.77261 0.60914 0.44438 0.0
O82 O 0.65656 0.5262 0.52195 0.0
O83 O 0.72309 0.63112 0.47296 0.0
O84 O 0.75013 0.55189 0.44916 0.0
O85 O 0.71602 0.61626 0.59947 0.0
O86 O 0.73599 0.52869 0.58472 0.0
O87 O 0.80891 0.62996 0.53254 0.0
Sc88 Sc 0.18881 0.75351 0.67792 0.0
Sc89 Sc 0.12209 0.77332 0.66502 0.0
Sc90 Sc 0.10605 0.69879 0.72219 0.0
O91 O 0.13899 0.74194 0.68857 0.0
C92 C 0.14752 0.67143 0.66748 0.0
C93 C 0.16932 0.77191 0.58771 0.0
C94 C 0.05792 0.69893 0.64638 0.0
C95 C 0.19771 0.82812 0.69573 0.0
C96 C 0.17681 0.72865 0.77539 0.0
C97 C 0.08175 0.75063 0.75512 0.0
O98 O 0.17447 0.70106 0.66384 0.0
O99 O 0.14793 0.77966 0.60426 0.0
O100 O 0.06416 0.68423 0.67731 0.0
O101 O 0.20937 0.80761 0.69005 0.0
O102 O 0.14421 0.70907 0.77087 0.0
O103 O 0.09188 0.76954 0.72164 0.0
O104 O 0.19658 0.74731 0.74506 0.0
O105 O 0.16588 0.81902 0.69088 0.0
O106 O 0.08742 0.72575 0.76128 0.0
O107 O 0.18552 0.76058 0.60983 0.0
O108 O 0.12024 0.66658 0.68661 0.0
O109 O 0.07739 0.73066 0.63687 0.0
Sc110 Sc 0.39657 0.11328 0.88495 0.0
Sc111 Sc 0.33777 0.13068 0.83096 0.0
Sc112 Sc 0.42469 0.19685 0.84395 0.0
O113 O 0.38631 0.14693 0.85344 0.0
C114 C 0.43786 0.1827 0.94041 0.0
C115 C 0.32047 0.0884 0.91929 0.0
C116 C 0.35904 0.20533 0.86544 0.0
C117 C 0.34762 0.06701 0.80824 0.0
C118 C 0.46543 0.15578 0.83007 0.0
C119 C 0.3859 0.17932 0.75436 0.0
O120 O 0.42456 0.15022 0.93484 0.0
O121 O 0.31156 0.09937 0.88679 0.0
O122 O 0.39126 0.21727 0.8589 0.0
O123 O 0.36895 0.07256 0.83856 0.0
O124 O 0.46279 0.18276 0.82745 0.0
O125 O 0.35686 0.15777 0.77102 0.0
O126 O 0.44303 0.12833 0.84883 0.0
O127 O 0.33529 0.08666 0.80043 0.0
O128 O 0.41373 0.19498 0.77613 0.0
O129 O 0.35104 0.0937 0.92452 0.0
O130 O 0.43918 0.20307 0.91089 0.0
O131 O 0.33628 0.17372 0.85947 0.0
Sc132 Sc 0.56853 0.69949 0.80468 0.0
Sc133 Sc 0.62407 0.77504 0.86102 0.0
Sc134 Sc 0.53705 0.75178 0.84525 0.0
O135 O 0.57656 0.74215 0.83681 0.0
C136 C 0.52538 0.72564 0.7493 0.0
C137 C 0.64364 0.7517 0.77249 0.0
C138 C 0.6021 0.82705 0.82618 0.0
C139 C 0.61756 0.70353 0.88247 0.0
C140 C 0.49927 0.66997 0.85779 0.0
C141 C 0.57337 0.77345 0.9354 0.0
O142 O 0.53745 0.7055 0.756 0.0
O143 O 0.65193 0.76894 0.80737 0.0
O144 O 0.57015 0.8066 0.83447 0.0
O145 O 0.59935 0.68905 0.84922 0.0
O146 O 0.49912 0.69837 0.85702 0.0
O147 O 0.60336 0.78454 0.91908 0.0
O148 O 0.52404 0.66664 0.84304 0.0
O149 O 0.62588 0.73405 0.89405 0.0
O150 O 0.54562 0.75772 0.91352 0.0
O151 O 0.61271 0.72846 0.76391 0.0
O152 O 0.52539 0.74611 0.77778 0.0
O153 O 0.62516 0.81831 0.82975 0.0
Sc154 Sc 0.77248 0.54477 0.01419 0.0
Sc155 Sc 0.84007 0.63086 0.02794 0.0
Sc156 Sc 0.85526 0.57196 0.97026 0.0
O157 O 0.8226 0.58257 0.00394 0.0
C158 C 0.81258 0.50274 0.02404 0.0
C159 C 0.79209 0.5823 0.10472 0.0
C160 C 0.90343 0.61936 0.04666 0.0
C161 C 0.76496 0.61137 0.99667 0.0
C162 C 0.78463 0.53207 0.91664 0.0
C163 C 0.8808 0.64858 0.93815 0.0
O164 O 0.78595 0.50593 0.0281 0.0
O165 O 0.81392 0.61135 0.08843 0.0
O166 O 0.89703 0.59845 0.0156 0.0
O167 O 0.75271 0.57905 0.002 0.0
O168 O 0.8172 0.5449 0.9212 0.0
O169 O 0.8706 0.65733 0.97162 0.0
O170 O 0.76486 0.53096 0.94698 0.0
O171 O 0.79686 0.63365 0.00203 0.0
O172 O 0.87487 0.61795 0.93175 0.0
O173 O 0.77556 0.55491 0.08236 0.0
O174 O 0.84002 0.52504 0.00506 0.0
O175 O 0.88432 0.63205 0.05613 0.0
Sc176 Sc 0.27243 0.86335 0.13325 0.0
Sc177 Sc 0.1961 0.84437 0.18808 0.0
Sc178 Sc 0.21859 0.77976 0.17493 0.0
O179 O 0.22899 0.82915 0.16523 0.0
C180 C 0.24517 0.79362 0.07843 0.0
C181 C 0.22022 0.88629 0.09918 0.0
C182 C 0.14344 0.76934 0.15521 0.0
C183 C 0.26882 0.90921 0.20987 0.0
C184 C 0.30052 0.82286 0.18753 0.0
C185 C 0.19723 0.79674 0.26465 0.0
O186 O 0.26493 0.826 0.08438 0.0
O187 O 0.2013 0.87613 0.13271 0.0
O188 O 0.16411 0.75812 0.16281 0.0
O189 O 0.28424 0.90454 0.17833 0.0
O190 O 0.27158 0.79482 0.18841 0.0
O191 O 0.1879 0.81668 0.24757 0.0
O192 O 0.30463 0.85063 0.17096 0.0
O193 O 0.23726 0.88839 0.21926 0.0
O194 O 0.21112 0.78252 0.24318 0.0
O195 O 0.24501 0.88045 0.0927 0.0
O196 O 0.22536 0.77327 0.10759 0.0
O197 O 0.15206 0.80105 0.15904 0.0
Sc198 Sc 0.42346 0.22275 0.34099 0.0
Sc199 Sc 0.3365 0.20095 0.35491 0.0
Sc200 Sc 0.39354 0.27589 0.29803 0.0
O201 O 0.38447 0.23314 0.33108 0.0
C202 C 0.46268 0.30473 0.3514 0.0
C203 C 0.38609 0.20353 0.43124 0.0
C204 C 0.3449 0.27387 0.37501 0.0
C205 C 0.35805 0.14755 0.32343 0.0
C206 C 0.43561 0.24751 0.24401 0.0
C207 C 0.31795 0.2236 0.26551 0.0
O208 O 0.46189 0.2759 0.35258 0.0
O209 O 0.35654 0.19353 0.41441 0.0
O210 O 0.36432 0.28853 0.34266 0.0
O211 O 0.39008 0.16808 0.33082 0.0
O212 O 0.4233 0.26758 0.24957 0.0
O213 O 0.3094 0.20559 0.29974 0.0
O214 O 0.43595 0.22791 0.2735 0.0
O215 O 0.33515 0.15652 0.32659 0.0
O216 O 0.34874 0.24777 0.25802 0.0
O217 O 0.41405 0.21707 0.40941 0.0
O218 O 0.43869 0.30852 0.33521 0.0
O219 O 0.33449 0.24267 0.38543 0.0
Sc220 Sc 0.10959 0.4029 0.46636 0.0
Sc221 Sc 0.12469 0.34566 0.52608 0.0
Sc222 Sc 0.19093 0.43119 0.51261 0.0
O223 O 0.14178 0.39329 0.50153 0.0
C224 C 0.18165 0.4451 0.41598 0.0
C225 C 0.08501 0.32795 0.43528 0.0
C226 C 0.1988 0.36482 0.49499 0.0
C227 C 0.06064 0.35429 0.54218 0.0
C228 C 0.14826 0.47084 0.52132 0.0
C229 C 0.17267 0.39444 0.60198 0.0
O230 O 0.14955 0.43504 0.42073 0.0
O231 O 0.09112 0.31918 0.47171 0.0
O232 O 0.21109 0.3966 0.50461 0.0
O233 O 0.06558 0.37125 0.50745 0.0
O234 O 0.17633 0.46991 0.52208 0.0
O235 O 0.15416 0.3648 0.58484 0.0
O236 O 0.12031 0.44685 0.50514 0.0
O237 O 0.08251 0.34677 0.5574 0.0
O238 O 0.18525 0.42244 0.58068 0.0
O239 O 0.09603 0.35936 0.42512 0.0
O240 O 0.20006 0.44267 0.44539 0.0
O241 O 0.1665 0.34265 0.49617 0.0
Sc242 Sc 0.75002 0.19457 0.67893 0.0
Sc243 Sc 0.76845 0.12786 0.69073 0.0
Sc244 Sc 0.69509 0.11341 0.63321 0.0
O245 O 0.73776 0.14522 0.66742 0.0
C246 C 0.66747 0.15435 0.6869 0.0
C247 C 0.76803 0.17534 0.76756 0.0
C248 C 0.69459 0.06533 0.71014 0.0
C249 C 0.82373 0.20136 0.66013 0.0
C250 C 0.72716 0.18528 0.58201 0.0
C251 C 0.74429 0.08693 0.60107 0.0
O252 O 0.697 0.18177 0.68806 0.0
O253 O 0.77981 0.15762 0.74966 0.0
O254 O 0.68149 0.07031 0.67636 0.0
O255 O 0.80498 0.21401 0.67191 0.0
O256 O 0.70471 0.15331 0.58672 0.0
O257 O 0.76055 0.09402 0.63657 0.0
O258 O 0.74798 0.2037 0.61157 0.0
O259 O 0.81286 0.16901 0.6593 0.0
O260 O 0.72304 0.09713 0.59206 0.0
O261 O 0.75234 0.18788 0.7468 0.0
O262 O 0.66284 0.12612 0.67107 0.0
O263 O 0.72534 0.08618 0.72274 0.0
H264 H 0.19177 0.44979 0.65556 0.0
H265 H 0.16691 0.34286 0.65436 0.0
H266 H 0.1972 0.45098 0.73354 0.0
H267 H 0.17371 0.3444 0.73186 0.0
H268 H 0.14946 0.34384 0.87198 0.0
H269 H 0.14442 0.34528 0.79447 0.0
H270 H 0.23103 0.45031 0.79213 0.0
H271 H 0.23509 0.44928 0.87018 0.0
C272 C 0.18797 0.4267 0.6719 0.0
C273 C 0.17867 0.39615 0.64883 0.0
C274 C 0.19119 0.42741 0.71661 0.0
C275 C 0.18555 0.39768 0.73915 0.0
C276 C 0.17735 0.36752 0.71577 0.0
C277 C 0.1737 0.36668 0.67124 0.0
C278 C 0.16732 0.36732 0.85496 0.0
C279 C 0.19274 0.39641 0.87721 0.0
C280 C 0.16463 0.36807 0.81041 0.0
C281 C 0.18762 0.39775 0.78685 0.0
C282 C 0.21267 0.42712 0.80922 0.0
C283 C 0.21507 0.42652 0.85396 0.0
H284 H 0.79615 0.15235 0.0385 0.0
H285 H 0.77084 0.23406 0.03599 0.0
H286 H 0.78995 0.14684 0.96088 0.0
H287 H 0.7662 0.22975 0.95806 0.0
H288 H 0.72993 0.19175 0.82158 0.0
H289 H 0.73325 0.19598 0.89956 0.0
H290 H 0.81863 0.17566 0.89774 0.0
H291 H 0.81415 0.16986 0.82002 0.0
C292 C 0.78935 0.16922 0.0213 0.0
C293 C 0.784 0.19364 0.04338 0.0
C294 C 0.78609 0.16629 0.97669 0.0
C295 C 0.77795 0.18811 0.95294 0.0
C296 C 0.77207 0.21219 0.9752 0.0
C297 C 0.77482 0.21476 0.01993 0.0
C298 C 0.74953 0.18837 0.83787 0.0
C299 C 0.77172 0.18038 0.81463 0.0
C300 C 0.75152 0.19091 0.88263 0.0
C301 C 0.77608 0.18598 0.90518 0.0
C302 C 0.79882 0.1788 0.88169 0.0
C303 C 0.79647 0.17576 0.83702 0.0
H304 H 0.62423 0.81938 0.98872 0.0
H305 H 0.5173 0.73655 0.98824 0.0
H306 H 0.62217 0.82335 0.06636 0.0
H307 H 0.51559 0.73954 0.06638 0.0
H308 H 0.51703 0.77638 0.20514 0.0
H309 H 0.5159 0.77244 0.12691 0.0
H310 H 0.6214 0.792 0.12756 0.0
H311 H 0.6229 0.79726 0.20524 0.0
C312 C 0.60025 0.80196 0.00524 0.0
C313 C 0.57098 0.77755 0.98228 0.0
C314 C 0.59914 0.80402 0.04988 0.0
C315 C 0.56888 0.78138 0.07288 0.0
C316 C 0.53926 0.75756 0.0498 0.0
C317 C 0.54025 0.75579 0.00496 0.0
C318 C 0.53986 0.77957 0.18852 0.0
C319 C 0.57014 0.78738 0.21139 0.0
C320 C 0.53921 0.77725 0.14364 0.0
C321 C 0.56871 0.78234 0.12072 0.0
C322 C 0.5985 0.78889 0.14391 0.0
C323 C 0.59929 0.79161 0.18858 0.0
H324 H 0.75426 0.52475 0.37735 0.0
H325 H 0.78166 0.63237 0.37028 0.0
H326 H 0.76076 0.52396 0.29932 0.0
H327 H 0.78703 0.63121 0.2931 0.0
H328 H 0.83142 0.63168 0.1637 0.0
H329 H 0.82492 0.62921 0.24103 0.0
H330 H 0.73506 0.52663 0.23126 0.0
H331 H 0.74224 0.52863 0.1532 0.0
C332 C 0.76161 0.54818 0.35927 0.0
C333 C 0.76779 0.57871 0.38028 0.0
C334 C 0.76509 0.54765 0.31452 0.0
C335 C 0.77468 0.5776 0.2899 0.0
C336 C 0.78039 0.60788 0.31101 0.0
C337 C 0.77716 0.60848 0.35547 0.0
C338 C 0.81012 0.60857 0.17781 0.0
C339 C 0.78713 0.58048 0.15202 0.0
C340 C 0.80633 0.60721 0.22233 0.0
C341 C 0.77924 0.57787 0.24247 0.0
C342 C 0.75639 0.54952 0.21684 0.0
C343 C 0.76034 0.55078 0.17207 0.0
H344 H 0.13006 0.78224 0.52894 0.0
H345 H 0.21876 0.7676 0.53894 0.0
H346 H 0.13628 0.78596 0.45154 0.0
H347 H 0.22571 0.77251 0.46087 0.0
H348 H 0.20662 0.75123 0.31507 0.0
H349 H 0.20012 0.74422 0.3931 0.0
H350 H 0.17364 0.82508 0.39886 0.0
H351 H 0.17897 0.83127 0.32165 0.0
C352 C 0.15121 0.78021 0.5147 0.0
C353 C 0.17412 0.77495 0.54037 0.0
C354 C 0.15484 0.78246 0.47013 0.0
C355 C 0.18172 0.77989 0.44984 0.0
C356 C 0.20452 0.7743 0.47538 0.0
C357 C 0.2007 0.77175 0.52017 0.0
C358 C 0.19922 0.76733 0.33305 0.0
C359 C 0.19298 0.79155 0.31189 0.0
C360 C 0.19574 0.7635 0.37781 0.0
C361 C 0.18611 0.78391 0.40234 0.0
C362 C 0.18031 0.80833 0.38107 0.0
C363 C 0.18352 0.81198 0.33658 0.0
H364 H 0.33499 0.19061 0.48899 0.0
H365 H 0.44061 0.21097 0.48103 0.0
H366 H 0.33666 0.18715 0.56638 0.0
H367 H 0.44184 0.20629 0.55927 0.0
H368 H 0.44047 0.22699 0.70487 0.0
H369 H 0.44189 0.23386 0.62681 0.0
H370 H 0.33615 0.14896 0.61926 0.0
H371 H 0.3343 0.14286 0.69653 0.0
C372 C 0.35851 0.19392 0.50369 0.0
C373 C 0.38756 0.20068 0.47859 0.0
C374 C 0.35942 0.19183 0.54826 0.0
C375 C 0.38924 0.19603 0.56917 0.0
C376 C 0.41853 0.20318 0.54424 0.0
C377 C 0.41774 0.2056 0.49938 0.0
C378 C 0.41748 0.20999 0.6865 0.0
C379 C 0.38717 0.18462 0.70716 0.0
C380 C 0.41839 0.21374 0.64172 0.0
C381 C 0.38907 0.19211 0.61669 0.0
C382 C 0.35899 0.1666 0.63746 0.0
C383 C 0.35798 0.16303 0.68198 0.0
H384 H 0.24936 0.31737 0.90524 0.0
H385 H 0.32579 0.35285 0.00691 0.0
H386 H 0.27442 0.28484 0.87396 0.0
H387 H 0.35052 0.31987 0.97559 0.0
H388 H 0.2925 0.19193 0.87628 0.0
H389 H 0.2737 0.23184 0.90028 0.0
H390 H 0.38065 0.31349 0.91131 0.0
H391 H 0.39973 0.27353 0.88778 0.0
C392 C 0.27175 0.3186 0.92066 0.0
C393 C 0.28524 0.33727 0.95898 0.0
C394 C 0.28596 0.29983 0.9028 0.0
C395 C 0.31397 0.29942 0.92281 0.0
C396 C 0.32894 0.31983 0.95951 0.0
C397 C 0.3147 0.33863 0.97746 0.0
C398 C 0.31207 0.21837 0.88376 0.0
C399 C 0.34761 0.22951 0.88011 0.0
C400 C 0.30128 0.24129 0.89714 0.0
C401 C 0.32577 0.27578 0.90725 0.0
C402 C 0.36128 0.28698 0.9038 0.0
C403 C 0.37212 0.26409 0.89023 0.0
H404 H 0.95922 0.33482 0.16569 0.0
H405 H 0.91785 0.25509 0.06796 0.0
H406 H 0.01643 0.35997 0.13248 0.0
H407 H 0.97495 0.28053 0.03478 0.0
H408 H 0.08685 0.29908 0.04178 0.0
H409 H 0.02757 0.28098 0.06302 0.0
H410 H 0.0526 0.38791 0.06684 0.0
H411 H 0.11225 0.40631 0.04599 0.0
C412 C 0.9621 0.32315 0.1366 0.0
C413 C 0.93419 0.29253 0.11999 0.0
C414 C -0.00516 0.33763 0.11754 0.0
C415 C 9e-05 0.32175 0.08159 0.0
C416 C 0.97164 0.29279 0.06304 0.0
C417 C 0.93897 0.27832 0.08202 0.0
C418 C 0.07978 0.31878 0.047 0.0
C419 C 0.1043 0.35412 0.04237 0.0
C420 C 0.04574 0.30839 0.05873 0.0
C421 C 0.03556 0.3331 0.06622 0.0
C422 C 0.0599 0.36841 0.06132 0.0
C423 C 0.09397 0.37885 0.04932 0.0
H424 H 0.696 0.11673 0.21803 0.0
H425 H 0.779 0.09286 0.21256 0.0
H426 H 0.65571 0.05751 0.24056 0.0
H427 H 0.73865 0.03385 0.23559 0.0
H428 H 0.61446 0.96432 0.33733 0.0
H429 H 0.64812 0.02187 0.30593 0.0
H430 H 0.68634 0.98086 0.2078 0.0
H431 H 0.65306 0.92336 0.23915 0.0
C432 C 0.70567 0.09889 0.22155 0.0
C433 C 0.74075 0.10951 0.21352 0.0
C434 C 0.68258 0.06506 0.23455 0.0
C435 C 0.69408 0.04118 0.23951 0.0
C436 C 0.72903 0.05167 0.23131 0.0
C437 C 0.75218 0.08553 0.21852 0.0
C438 C 0.62952 0.9674 0.30861 0.0
C439 C 0.63153 0.93936 0.29118 0.0
C440 C 0.64872 0.00035 0.2906 0.0
C441 C 0.67018 0.00576 0.25491 0.0
C442 C 0.67049 0.9774 0.23587 0.0
C443 C 0.65129 0.94448 0.25375 0.0
H444 H 0.71127 0.65513 0.40637 0.0
H445 H 0.62954 0.61592 0.50194 0.0
H446 H 0.68619 0.68653 0.37215 0.0
H447 H 0.60482 0.6478 0.46782 0.0
H448 H 0.5598 0.69736 0.38056 0.0
H449 H 0.57791 0.65617 0.40187 0.0
H450 H 0.68514 0.73829 0.3996 0.0
H451 H 0.66735 0.77935 0.37785 0.0
C452 C 0.6877 0.65283 0.41976 0.0
C453 C 0.67278 0.63365 0.4574 0.0
C454 C 0.67343 0.67085 0.40018 0.0
C455 C 0.64402 0.67004 0.41787 0.0
C456 C 0.62751 0.64878 0.45352 0.0
C457 C 0.64176 0.63064 0.47312 0.0
C458 C 0.58726 0.70659 0.38435 0.0
C459 C 0.61216 0.74168 0.37768 0.0
C460 C 0.59754 0.683 0.39658 0.0
C461 C 0.63286 0.69406 0.40206 0.0
C462 C 0.65774 0.72897 0.39484 0.0
C463 C 0.64751 0.75256 0.38283 0.0
H464 H 0.00063 0.63781 0.66959 0.0
H465 H 0.04027 0.71659 0.5707 0.0
H466 H 0.9427 0.61271 0.6387 0.0
H467 H -0.01752 0.69115 0.53969 0.0
H468 H 0.84541 0.5658 0.55471 0.0
H469 H 0.90503 0.58418 0.57513 0.0
H470 H 0.93064 0.69122 0.56883 0.0
H471 H 0.8714 0.67314 0.54788 0.0
C472 C -0.00282 0.64923 0.64068 0.0
C473 C 0.02483 0.67957 0.62308 0.0
C474 C 0.96403 0.63481 0.62297 0.0
C475 C 0.95812 0.65046 0.58736 0.0
C476 C -0.01372 0.67911 0.56778 0.0
C477 C 0.01934 0.69355 0.58547 0.0
C478 C 0.86377 0.59328 0.55753 0.0
C479 C 0.85364 0.61804 0.54968 0.0
C480 C 0.89785 0.60372 0.56928 0.0
C481 C 0.9224 0.63906 0.57315 0.0
C482 C 0.91234 0.66378 0.56525 0.0
C483 C 0.8783 0.6534 0.55367 0.0
H484 H 0.31015 0.05046 0.73412 0.0
H485 H 0.35225 0.00961 0.82742 0.0
H486 H 0.277 -0.00672 0.70187 0.0
H487 H 0.31864 0.95232 0.79535 0.0
H488 H 0.2673 0.85676 0.71035 0.0
H489 H 0.30846 0.91618 0.7308 0.0
H490 H 0.22587 0.94046 0.72993 0.0
H491 H 0.18466 0.88123 0.70879 0.0
C492 C 0.31273 0.02941 0.74738 0.0
C493 C 0.33334 0.03439 0.78381 0.0
C494 C 0.29361 -0.00332 0.729 0.0
C495 C 0.29476 0.96835 0.74667 0.0
C496 C 0.31733 0.97378 0.78105 0.0
C497 C 0.33655 0.00658 0.79944 0.0
C498 C 0.25786 0.87476 0.71434 0.0
C499 C 0.2226 0.8642 0.70807 0.0
C500 C 0.28149 0.90876 0.72611 0.0
C501 C 0.27037 0.93288 0.73172 0.0
C502 C 0.23525 0.92249 0.72509 0.0
C503 C 0.21159 0.88848 0.71338 0.0
H504 H 0.6561 0.72487 0.95603 0.0
H505 H 0.61394 0.64208 0.86225 0.0
H506 H 0.68893 0.70051 0.98821 0.0
H507 H 0.64724 0.61816 0.89422 0.0
H508 H 0.77962 0.67809 0.98409 0.0
H509 H 0.73977 0.6975 0.96185 0.0
H510 H 0.65558 0.59137 0.959 0.0
H511 H 0.6954 0.57171 0.98056 0.0
C512 C 0.65347 0.70126 0.94257 0.0
C513 C 0.63278 0.6857 0.90615 0.0
C514 C 0.67243 0.68745 0.96091 0.0
C515 C 0.67101 0.6578 0.94327 0.0
C516 C 0.64871 0.64099 0.90856 0.0
C517 C 0.62971 0.65479 0.89019 0.0
C518 C 0.75262 0.65886 0.97885 0.0
C519 C 0.74078 0.62335 0.98392 0.0
C520 C 0.72974 0.67001 0.96649 0.0
C521 C 0.69458 0.64591 0.95892 0.0
C522 C 0.68262 0.61046 0.96436 0.0
C523 C 0.70547 0.59928 0.97679 0.0
H524 H 0.92089 0.6538 0.12299 0.0
H525 H 0.96079 0.61582 0.02287 0.0
H526 H 0.97876 0.68652 0.15369 0.0
H527 H 0.01881 0.64899 0.0535 0.0
H528 H 0.08914 0.78083 0.14451 0.0
H529 H 0.02996 0.739 0.12394 0.0
H530 H 0.05707 0.65866 0.11679 0.0
H531 H 0.11659 0.70056 0.13686 0.0
C532 C 0.94189 0.65199 0.10792 0.0
C533 C 0.93646 0.6328 0.07002 0.0
C534 C 0.975 0.67083 0.12543 0.0
C535 C 0.00325 0.67082 0.10537 0.0
C536 C -0.00259 0.64942 0.06955 0.0
C537 C 0.9642 0.63046 0.05203 0.0
C538 C 0.08257 0.75429 0.13859 0.0
C539 C 0.10761 0.74408 0.14229 0.0
C540 C 0.04859 0.73025 0.12724 0.0
C541 C 0.03895 0.69556 0.11926 0.0
C542 C 0.0639 0.68528 0.12275 0.0
C543 C 0.09792 0.7093 0.1343 0.0
H544 H 0.33083 0.9669 0.19039 0.0
H545 H 0.24786 0.92551 0.28434 0.0
H546 H 0.35487 0.02397 0.2231 0.0
H547 H 0.27229 0.9825 0.3172 0.0
H548 H 0.39933 0.11926 0.30905 0.0
H549 H 0.38107 0.05983 0.28838 0.0
H550 H 0.27401 0.03526 0.28892 0.0
H551 H 0.29196 0.09434 0.31014 0.0
C552 C 0.31818 0.96976 0.21858 0.0
C553 C 0.28706 0.94187 0.23424 0.0
C554 C 0.33203 0.00243 0.23737 0.0
C555 C 0.31503 0.00764 0.27216 0.0
C556 C 0.28543 0.97923 0.28979 0.0
C557 C 0.27156 0.94663 0.27103 0.0
C558 C 0.37186 0.10116 0.30496 0.0
C559 C 0.34708 0.11157 0.3111 0.0
C560 C 0.36149 0.06719 0.29309 0.0
C561 C 0.32619 0.04301 0.28735 0.0
C562 C 0.30139 0.05327 0.29389 0.0
C563 C 0.31172 0.08721 0.30563 0.0
H564 H 0.18527 0.29857 0.48234 0.0
H565 H 0.26799 0.4056 0.47756 0.0
H566 H 0.22572 0.28022 0.45872 0.0
H567 H 0.30841 0.38698 0.45437 0.0
H568 H 0.31035 0.25493 0.45142 0.0
H569 H 0.27841 0.27967 0.48525 0.0
H570 H 0.31518 0.35918 0.38771 0.0
H571 H 0.34751 0.33469 0.35379 0.0
C572 C 0.21207 0.31815 0.47651 0.0
C573 C 0.22337 0.35351 0.48172 0.0
C574 C 0.23528 0.30763 0.46336 0.0
C575 C 0.27017 0.33225 0.45503 0.0
C576 C 0.2816 0.36756 0.46048 0.0
C577 C 0.25844 0.37811 0.47387 0.0
C578 C 0.31208 0.278 0.43747 0.0
C579 C 0.33092 0.29249 0.39944 0.0
C580 C 0.29371 0.29205 0.45682 0.0
C581 C 0.29391 0.32088 0.4386 0.0
C582 C 0.31469 0.33693 0.4024 0.0
C583 C 0.33312 0.32285 0.38295 0.0
H584 H 0.86159 0.18969 0.60071 0.0
H585 H 0.86573 0.26765 0.68711 0.0
H586 H 0.91948 0.23145 0.57366 0.0
H587 H 0.92403 0.309 0.66062 0.0
H588 H 0.04501 0.33727 0.62657 0.0
H589 H -0.01312 0.30219 0.65767 0.0
H590 H 0.94108 0.29906 0.5346 0.0
H591 H -0.00111 0.33474 0.50353 0.0
C592 C 0.87504 0.21557 0.6142 0.0
C593 C 0.85932 0.22557 0.64586 0.0
C594 C 0.90788 0.23937 0.59859 0.0
C595 C 0.92564 0.27316 0.61511 0.0
C596 C 0.91048 0.28298 0.64754 0.0
C597 C 0.8773 0.25942 0.66251 0.0
C598 C 0.02248 0.32973 0.60647 0.0
C599 C 0.02632 0.3386 0.56271 0.0
C600 C -0.01056 0.30979 0.62422 0.0
C601 C 0.96001 0.298 0.59818 0.0
C602 C 0.96368 0.30798 0.55498 0.0
C603 C -0.00335 0.32851 0.53743 0.0
H604 H 0.56045 0.85341 0.80372 0.0
H605 H 0.66816 0.88134 0.81743 0.0
H606 H 0.57864 0.91249 0.781 0.0
H607 H 0.68606 0.93999 0.79438 0.0
H608 H 0.63526 0.00697 0.6845 0.0
H609 H 0.60965 0.94953 0.71682 0.0
H610 H 0.68354 -0.0085 0.82076 0.0
H611 H 0.70943 0.0488 0.78851 0.0
C612 C 0.58795 0.87211 0.80202 0.0
C613 C 0.61289 0.86268 0.81235 0.0
C614 C 0.59828 0.90584 0.78893 0.0
C615 C 0.63368 0.93075 0.78633 0.0
C616 C 0.65856 0.9214 0.79687 0.0
C617 C 0.64829 0.88771 0.80966 0.0
C618 C 0.64557 0.00411 0.71472 0.0
C619 C 0.67481 0.03228 0.73349 0.0
C620 C 0.63085 0.97123 0.73324 0.0
C621 C 0.6451 0.96611 0.7708 0.0
C622 C 0.67259 -0.00528 0.79126 0.0
C623 C 0.68731 0.02751 0.77282 0.0
H624 H 0.35225 0.46904 0.96502 0.0
H625 H 0.31251 0.53621 0.00119 0.0
H626 H 0.40064 0.51702 0.92807 0.0
H627 H 0.36194 0.58483 0.96647 0.0
H628 H 0.43233 0.65557 0.86258 0.0
H629 H 0.38396 0.60662 0.8983 0.0
H630 H 0.45255 0.56913 0.93753 0.0
H631 H 0.5003 0.61702 0.89957 0.0
C632 C 0.35428 0.49429 0.96567 0.0
C633 C 0.3287 0.49901 0.98576 0.0
C634 C 0.38207 0.52185 0.94467 0.0
C635 C 0.38518 0.55483 0.94411 0.0
C636 C 0.35995 0.55963 0.96533 0.0
C637 C 0.33178 0.53189 0.98554 0.0
C638 C 0.43689 0.63668 0.87866 0.0
C639 C 0.46989 0.6399 0.87827 0.0
C640 C 0.4093 0.6088 0.89947 0.0
C641 C 0.41437 0.58401 0.92111 0.0
C642 C 0.44752 0.58735 0.92059 0.0
C643 C 0.47493 0.61484 0.89899 0.0
H644 H 0.86339 0.48531 0.02129 0.0
H645 H 0.76036 0.4513 0.07118 0.0
H646 H 0.86293 0.43608 0.0557 0.0
H647 H 0.76036 0.40258 0.10614 0.0
H648 H 0.86512 0.36861 0.16465 0.0
H649 H 0.86453 0.41692 0.12923 0.0
H650 H 0.75908 0.34852 0.08766 0.0
H651 H 0.75925 0.30024 0.12368 0.0
C652 C 0.84066 0.46738 0.03954 0.0
C653 C 0.81193 0.47227 0.0435 0.0
C654 C 0.84051 0.43933 0.05945 0.0
C655 C 0.81167 0.41566 0.0837 0.0
C656 C 0.78279 0.42026 0.08725 0.0
C657 C 0.7829 0.44826 0.06733 0.0
C658 C 0.84174 0.36384 0.1481 0.0
C659 C 0.81221 0.33055 0.14705 0.0
C660 C 0.84153 0.39148 0.12758 0.0
C661 C 0.81181 0.38639 0.1056 0.0
C662 C 0.78222 0.35323 0.10477 0.0
C663 C 0.78239 0.32557 0.12531 0.0
H664 H 0.50032 0.87557 0.29716 0.0
H665 H 0.43107 0.76972 0.33603 0.0
H666 H 0.45303 0.87621 0.25902 0.0
H667 H 0.38309 0.77084 0.30018 0.0
H668 H 0.31345 0.76966 0.19475 0.0
H669 H 0.36182 0.77004 0.23154 0.0
H670 H 0.40152 0.87732 0.26695 0.0
H671 H 0.35425 0.87729 0.22783 0.0
C672 C 0.47474 0.85266 0.29818 0.0
C673 C 0.46923 0.82256 0.31934 0.0
C674 C 0.44759 0.85304 0.27649 0.0
C675 C 0.41422 0.82353 0.27634 0.0
C676 C 0.40862 0.79374 0.2987 0.0
C677 C 0.43597 0.79314 0.31957 0.0
C678 C 0.33273 0.79332 0.2102 0.0
C679 C 0.33032 0.82346 0.20843 0.0
C680 C 0.36027 0.79351 0.23163 0.0
C681 C 0.38547 0.82364 0.25256 0.0
C682 C 0.38296 0.85383 0.2506 0.0
C683 C 0.35584 0.85382 0.22834 0.0
H684 H 0.60789 0.50396 0.46374 0.0
H685 H 0.64717 0.43624 0.4985 0.0
H686 H 0.56069 0.45697 0.42424 0.0
H687 H 0.59872 0.38841 0.46142 0.0
H688 H 0.52947 0.31881 0.35657 0.0
H689 H 0.57758 0.36746 0.39303 0.0
H690 H 0.50879 0.40507 0.4316 0.0
H691 H 0.4615 0.35767 0.39274 0.0
C692 C 0.60595 0.47874 0.46354 0.0
C693 C 0.63101 0.47356 0.48404 0.0
C694 C 0.57885 0.45175 0.44107 0.0
C695 C 0.57586 0.41883 0.43953 0.0
C696 C 0.60064 0.41359 0.46102 0.0
C697 C 0.6282 0.44083 0.48262 0.0
C698 C 0.52489 0.33775 0.3726 0.0
C699 C 0.49199 0.33472 0.37183 0.0
C700 C 0.5523 0.36543 0.39383 0.0
C701 C 0.54706 0.39011 0.41559 0.0
C702 C 0.514 0.38698 0.41456 0.0
C703 C 0.48684 0.35976 0.39246 0.0
H704 H 0.20123 0.52431 0.56466 0.0
H705 H 0.09477 0.48453 0.52465 0.0
H706 H 0.20046 0.57209 0.60091 0.0
H707 H 0.09443 0.53305 0.56037 0.0
H708 H 0.09638 0.60319 0.66976 0.0
H709 H 0.09637 0.55454 0.63397 0.0
H710 H 0.1983 0.62397 0.58207 0.0
H711 H 0.19881 0.6724 0.61836 0.0
C712 C 0.17774 0.52588 0.56323 0.0
C713 C 0.14806 0.50061 0.54166 0.0
C714 C 0.17738 0.55336 0.58393 0.0
C715 C 0.14741 0.55625 0.58338 0.0
C716 C 0.11775 0.53116 0.56169 0.0
C717 C 0.11806 0.50356 0.541 0.0
C718 C 0.11885 0.60806 0.65087 0.0
C719 C 0.14764 0.64166 0.64705 0.0
C720 C 0.11871 0.58024 0.63016 0.0
C721 C 0.14732 0.58555 0.60526 0.0
C722 C 0.17609 0.61908 0.60154 0.0
C723 C 0.17629 0.64683 0.62226 0.0
H724 H 0.48199 0.10441 0.83056 0.0
H725 H 0.51665 0.2077 0.78227 0.0
H726 H 0.53079 0.10453 0.79499 0.0
H727 H 0.56497 0.20737 0.74608 0.0
H728 H 0.59952 0.10247 0.68781 0.0
H729 H 0.55062 0.10327 0.72183 0.0
H730 H 0.61886 0.20836 0.76436 0.0
H731 H 0.66767 0.20798 0.72971 0.0
C732 C 0.49994 0.12711 0.81234 0.0
C733 C 0.49543 0.15607 0.80934 0.0
C734 C 0.52774 0.12705 0.79173 0.0
C735 C 0.55156 0.15591 0.76768 0.0
C736 C 0.5472 0.18492 0.76481 0.0
C737 C 0.51944 0.18502 0.78545 0.0
C738 C 0.6041 0.12582 0.70424 0.0
C739 C 0.63752 0.15515 0.70606 0.0
C740 C 0.57612 0.12617 0.72393 0.0
C741 C 0.58101 0.15582 0.74587 0.0
C742 C 0.61428 0.18527 0.74726 0.0
C743 C 0.64226 0.18497 0.72753 0.0
H744 H 0.20556 0.26248 0.06516 0.0
H745 H 0.22501 0.32763 0.17639 0.0
H746 H 0.21965 0.2248 0.10706 0.0
H747 H 0.23823 0.28946 0.2184 0.0
H748 H 0.25355 0.2109 0.28835 0.0
H749 H 0.21611 0.22516 0.24599 0.0
H750 H 0.28347 0.24698 0.13638 0.0
H751 H 0.32137 0.23368 0.17892 0.0
C752 C 0.21139 0.26795 0.09899 0.0
C753 C 0.21443 0.29816 0.11747 0.0
C754 C 0.21962 0.24646 0.12284 0.0
C755 C 0.23015 0.25433 0.16582 0.0
C756 C 0.2299 0.28263 0.1854 0.0
C757 C 0.22245 0.30455 0.16134 0.0
C758 C 0.25959 0.2174 0.25473 0.0
C759 C 0.29044 0.22134 0.23691 0.0
C760 C 0.23828 0.22577 0.23064 0.0
C761 C 0.24703 0.23731 0.18807 0.0
C762 C 0.27598 0.23788 0.16904 0.0
C763 C 0.2977 0.23032 0.19337 0.0
H764 H 0.07911 0.33042 0.34823 0.0
H765 H 0.03054 0.26525 0.45878 0.0
H766 H 0.02792 0.2931 0.30517 0.0
H767 H 0.97905 0.22839 0.41579 0.0
H768 H 0.93423 0.2148 0.23323 0.0
H769 H -0.01431 0.22973 0.2766 0.0
H770 H 0.93814 0.25017 0.38513 0.0
H771 H 0.88713 0.23609 0.34164 0.0
C772 C 0.05797 0.30752 0.36295 0.0
C773 C 0.0588 0.30088 0.4069 0.0
C774 C 0.02871 0.28609 0.33828 0.0
C775 C -0.00052 0.25801 0.35729 0.0
C776 C 0.00125 0.2499 0.40043 0.0
C777 C 0.03082 0.27092 0.42491 0.0
C778 C 0.93425 0.22125 0.26679 0.0
C779 C 0.90675 0.22445 0.28406 0.0
C780 C 0.96379 0.23 0.29145 0.0
C781 C 0.96591 0.24124 0.33407 0.0
C782 C 0.93708 0.24132 0.35245 0.0
C783 C 0.90792 0.23335 0.32755 0.0
H784 H 0.75568 0.03427 0.62315 0.0
H785 H 0.73302 0.0798 0.51453 0.0
H786 H 0.7417 0.98302 0.58005 0.0
H787 H 0.7198 0.02891 0.47135 0.0
H788 H 0.70534 0.93678 0.39811 0.0
H789 H 0.74226 -0.01137 0.44061 0.0
H790 H 0.67868 0.93987 0.55224 0.0
H791 H 0.64134 0.88844 0.50967 0.0
C792 C 0.74905 0.03395 0.58963 0.0
C793 C 0.74518 0.06095 0.57227 0.0
C794 C 0.74089 0.00453 0.56509 0.0
C795 C 0.72954 0.00197 0.5225 0.0
C796 C 0.72876 0.03031 0.50401 0.0
C797 C 0.7362 0.05939 0.52877 0.0
C798 C 0.70006 0.93662 0.43212 0.0
C799 C 0.67037 0.90865 0.45059 0.0
C800 C 0.72105 0.96639 0.4563 0.0
C801 C 0.71317 0.9683 0.49957 0.0
C802 C 0.68551 0.93901 0.51903 0.0
C803 C 0.66409 0.90959 0.49466 0.0
H804 H 0.75631 0.71233 0.57193 0.0
H805 H 0.72918 0.64215 0.67927 0.0
H806 H 0.74387 0.75063 0.61543 0.0
H807 H 0.71773 0.68088 0.72297 0.0
H808 H 0.70619 0.76029 0.79668 0.0
H809 H 0.74291 0.74503 0.75405 0.0
H810 H 0.67941 0.7304 0.64271 0.0
H811 H 0.64216 0.74464 0.68549 0.0
C812 C 0.74919 0.70586 0.60534 0.0
C813 C 0.74354 0.67419 0.62223 0.0
C814 C 0.74191 0.72769 0.63009 0.0
C815 C 0.72977 0.71863 0.67242 0.0
C816 C 0.72737 0.68864 0.69053 0.0
C817 C 0.73382 0.66642 0.66552 0.0
C818 C 0.70093 0.75518 0.76269 0.0
C819 C 0.67127 0.75351 0.74435 0.0
C820 C 0.72181 0.74626 0.73844 0.0
C821 C 0.71387 0.73644 0.69523 0.0
C822 C 0.68628 0.73817 0.67587 0.0
C823 C 0.66493 0.74625 0.70034 0.0
H824 H 0.0292 0.76223 0.73385 0.0
H825 H 0.07662 0.74139 0.84186 0.0
H826 H 0.97791 0.74763 0.77777 0.0
H827 H 0.02591 0.72792 0.88602 0.0
H828 H 0.88678 0.64431 0.85155 0.0
H829 H 0.93727 0.68236 0.80756 0.0
H830 H -0.01631 0.75072 0.9158 0.0
H831 H 0.93261 0.71319 0.95956 0.0
C832 C 0.02937 0.75615 0.7675 0.0
C833 C 0.05684 0.75288 0.78451 0.0
C834 C -6e-05 0.74759 0.79248 0.0
C835 C -0.00202 0.73658 0.83516 0.0
C836 C 0.02689 0.73664 0.85331 0.0
C837 C 0.0559 0.74431 0.82807 0.0
C838 C 0.90711 0.6682 0.8654 0.0
C839 C 0.90578 0.67581 0.90891 0.0
C840 C 0.93597 0.69001 0.84025 0.0
C841 C 0.96438 0.71937 0.85843 0.0
C842 C 0.96205 0.72828 0.90108 0.0
C843 C 0.93274 0.70691 0.92597 0.0
H844 H 0.32511 0.08184 0.0056 0.0
H845 H 0.25591 0.03663 0.89774 0.0
H846 H 0.28746 0.03085 0.04895 0.0
H847 H 0.21886 0.98503 0.9408 0.0
H848 H 0.20728 0.93778 0.12127 0.0
H849 H 0.22132 -0.01083 0.0783 0.0
H850 H 0.24366 0.94362 0.9694 0.0
H851 H 0.23079 0.89279 0.01262 0.0
C852 C 0.30121 0.06153 0.9917 0.0
C853 C 0.29338 0.06317 0.94841 0.0
C854 C 0.27965 0.03239 0.01647 0.0
C855 C 0.25038 0.00404 -0.00193 0.0
C856 C 0.24122 0.00665 0.95569 0.0
C857 C 0.26231 0.03624 0.93121 0.0
C858 C 0.21386 0.93816 0.08768 0.0
C859 C 0.21804 0.91136 0.07023 0.0
C860 C 0.22207 0.96764 0.06325 0.0
C861 C 0.23359 0.97029 0.02068 0.0
C862 C 0.23451 0.94204 0.00205 0.0
C863 C 0.2272 0.913 0.02675 0.0
H864 H 0.16191 0.47451 0.35334 0.0
H865 H 0.23585 0.44139 0.38139 0.0
H866 H 0.18161 0.48524 0.27893 0.0
H867 H 0.25411 0.44999 0.30691 0.0
H868 H 0.28865 0.47184 0.17251 0.0
H869 H 0.28069 0.48373 0.24682 0.0
H870 H 0.17297 0.45009 0.21993 0.0
H871 H 0.18166 0.44034 0.14556 0.0
C872 C 0.18259 0.46981 0.34361 0.0
C873 C 0.19709 0.45676 0.37298 0.0
C874 C 0.19374 0.47572 0.30092 0.0
C875 C 0.21905 0.4679 0.28648 0.0
C876 C 0.23491 0.45678 0.31666 0.0
C877 C 0.22427 0.45159 0.3595 0.0
C878 C 0.2635 0.46769 0.18247 0.0
C879 C 0.23569 0.45485 0.15343 0.0
C880 C 0.25883 0.47429 0.22511 0.0
C881 C 0.22603 0.46739 0.2398 0.0
C882 C 0.19876 0.45626 0.20996 0.0
C883 C 0.20365 0.45038 0.16719 0.0
H884 H 0.78582 0.23813 0.54677 0.0
H885 H 0.67766 0.16675 0.52002 0.0
H886 H 0.79512 0.25676 0.4724 0.0
H887 H 0.68631 0.18681 0.44585 0.0
H888 H 0.72882 0.18763 0.3105 0.0
H889 H 0.71148 0.17819 0.38531 0.0
H890 H 0.78789 0.28473 0.41383 0.0
H891 H 0.80654 0.29343 0.339 0.0
C892 C 0.76377 0.22719 0.52519 0.0
C893 C 0.73113 0.20067 0.53899 0.0
C894 C 0.76902 0.23803 0.48245 0.0
C895 C 0.74155 0.22306 0.4527 0.0
C896 C 0.70829 0.19828 0.46747 0.0
C897 C 0.70323 0.18691 0.51003 0.0
C898 C 0.74148 0.20922 0.33259 0.0
C899 C 0.76934 0.24112 0.31903 0.0
C900 C 0.73139 0.2039 0.37563 0.0
C901 C 0.74852 0.23058 0.40601 0.0
C902 C 0.77471 0.2633 0.39166 0.0
C903 C 0.78527 0.2684 0.34871 0.0
H904 H 0.53254 0.69544 0.67655 0.0
H905 H 0.49255 0.76037 0.72207 0.0
H906 H 0.52301 0.70636 0.60307 0.0
H907 H 0.48181 0.77033 0.64818 0.0
H908 H 0.5286 0.82526 0.51838 0.0
H909 H 0.51946 0.80433 0.59162 0.0
H910 H 0.48516 0.70058 0.54571 0.0
H911 H 0.49552 0.72185 0.47199 0.0
C912 C 0.52089 0.71137 0.67098 0.0
C913 C 0.51388 0.72751 0.70527 0.0
C914 C 0.51515 0.71744 0.62867 0.0
C915 C 0.50197 0.73955 0.61959 0.0
C916 C 0.49268 0.75374 0.65401 0.0
C917 C 0.4987 0.7479 0.6964 0.0
C918 C 0.51856 0.79785 0.52369 0.0
C919 C 0.51337 0.77537 0.48922 0.0
C920 C 0.51303 0.78575 0.56588 0.0
C921 C 0.50187 0.75079 0.57469 0.0
C922 C 0.49441 0.72781 0.54008 0.0
C923 C 0.5002 0.73998 0.4978 0.0
H924 H 0.71637 0.5021 0.89163 0.0
H925 H 0.81959 0.53619 0.84269 0.0
H926 H 0.69395 0.4906 0.81842 0.0
H927 H 0.79753 0.52598 0.77006 0.0
H928 H 0.75229 0.49758 0.64073 0.0
H929 H 0.76325 0.48757 0.71453 0.0
H930 H 0.69807 0.52717 0.76046 0.0
H931 H 0.68612 0.5359 0.68719 0.0
C932 C 0.73422 0.5068 0.86539 0.0
C933 C 0.76987 0.52054 0.8731 0.0
C934 C 0.72139 0.50035 0.82339 0.0
C935 C 0.74396 0.5077 0.78824 0.0
C936 C 0.77924 0.51956 0.79622 0.0
C937 C 0.79199 0.52576 0.83808 0.0
C938 C 0.73975 0.50349 0.66657 0.0
C939 C 0.71876 0.51806 0.65797 0.0
C940 C 0.74617 0.4979 0.7089 0.0
C941 C 0.73197 0.50703 0.74352 0.0
C942 C 0.7092 0.51948 0.73474 0.0
C943 C 0.70256 0.52478 0.69251 0.0
H944 H 0.14188 0.6976 0.84925 0.0
H945 H 0.24508 0.76697 0.80047 0.0
H946 H 0.16392 0.70935 0.9219 0.0
H947 H 0.26749 0.77779 0.8737 0.0
H948 H 0.27553 0.83051 0.00542 0.0
H949 H 0.26353 0.81003 0.93202 0.0
H950 H 0.19807 0.70514 0.97734 0.0
H951 H 0.20907 0.72592 0.05127 0.0
C952 C 0.16948 0.71479 0.85389 0.0
C953 C 0.19159 0.73177 0.8189 0.0
C954 C 0.18222 0.7213 0.89577 0.0
C955 C 0.21748 0.74475 0.90383 0.0
C956 C 0.24005 0.76007 0.86869 0.0
C957 C 0.22723 0.75373 0.82667 0.0
C958 C 0.25902 0.80296 -6e-05 0.0
C959 C 0.24276 0.77996 0.03437 0.0
C960 C 0.25234 0.79113 0.95763 0.0
C961 C 0.22947 0.75595 0.94862 0.0
C962 C 0.21522 0.73254 0.98311 0.0
C963 C 0.22167 0.74443 0.02553 0.0
H964 H 0.43196 0.14626 0.01349 0.0
H965 H 0.46886 0.25045 0.9673 0.0
H966 H 0.44066 0.16697 0.08679 0.0
H967 H 0.47881 0.27147 0.04115 0.0
H968 H 0.43064 0.27828 0.17064 0.0
H969 H 0.4406 0.2668 0.09756 0.0
H970 H 0.47761 0.19984 0.14426 0.0
H971 H 0.46641 0.21039 0.21782 0.0
C972 C 0.44275 0.17378 0.01886 0.0
C973 C 0.44912 0.19658 0.98438 0.0
C974 C 0.44804 0.18574 0.06111 0.0
C975 C 0.46011 0.22087 0.07002 0.0
C976 C 0.46881 0.24411 0.03545 0.0
C977 C 0.46327 0.23209 0.99308 0.0
C978 C 0.44142 0.26151 0.16554 0.0
C979 C 0.44716 0.24481 0.20021 0.0
C980 C 0.44744 0.25514 0.12344 0.0
C981 C 0.45963 0.23212 0.11488 0.0
C982 C 0.46757 0.2172 0.14968 0.0
C983 C 0.46128 0.22337 0.19188 0.0
loop_
_geom_bond_atom_site_label_1
_geom_bond_atom_site_label_2
_geom_bond_distance
_geom_bond_site_symmetry_2
_ccdc_geom_bond_type
Sc0 O3 2.025 . S
Sc0 O10 2.105 1_554 S
Sc0 O13 2.105 . S
Sc0 O16 2.105 . S
Sc0 O19 2.105 1_554 S
Sc1 O3 2.025 1_556 S
Sc1 O11 2.105 . S
Sc1 O15 2.105 1_556 S
Sc1 O17 2.105 1_556 S
Sc1 O21 2.105 . S
Sc2 O3 2.025 . S
Sc2 O12 2.105 1_554 S
Sc2 O14 2.105 . S
Sc2 O18 2.105 . S
Sc2 O20 2.105 . S
O3 Sc0 2.025 . S
O3 Sc1 2.025 1_554 S
O3 Sc2 2.025 . S
C4 O10 1.268 . S
C4 O20 1.268 1_556 S
C5 O11 1.268 . S
C5 O19 1.268 . S
C6 O12 1.268 . S
C6 O21 1.268 . S
C7 O13 1.268 . S
C7 O17 1.268 . S
C8 O14 1.268 . S
C8 O16 1.268 . S
C9 O15 1.268 . S
C9 O18 1.268 . S
O10 Sc0 2.105 1_556 S
O10 C4 1.268 . S
O11 Sc1 2.105 . S
O11 C5 1.268 . S
O12 Sc2 2.105 1_556 S
O12 C6 1.268 . S
O13 Sc0 2.105 . S
O13 C7 1.268 . S
O14 Sc2 2.105 . S
O14 C8 1.268 . S
O15 Sc1 2.105 1_554 S
O15 C9 1.268 . S
O16 Sc0 2.105 . S
O16 C8 1.268 . S
O17 Sc1 2.105 1_554 S
O17 C7 1.268 . S
O18 Sc2 2.105 . S
O18 C9 1.268 . S
O19 Sc0 2.105 1_556 S
O19 C5 1.268 . S
O20 Sc2 2.105 . S
O20 C4 1.268 1_554 S
O21 Sc1 2.105 . S
O21 C6 1.268 . S
Sc22 O25 2.025 . S
Sc22 O32 2.105 . S
Sc22 O35 2.105 . S
Sc22 O38 2.105 . S
Sc22 O41 2.105 . S
Sc23 O25 2.025 . S
Sc23 O33 2.105 . S
Sc23 O37 2.105 . S
Sc23 O39 2.105 . S
Sc23 O43 2.105 . S
Sc24 O25 2.025 . S
Sc24 O34 2.105 . S
Sc24 O36 2.105 . S
Sc24 O40 2.105 . S
Sc24 O42 2.105 . S
O25 Sc22 2.025 . S
O25 Sc23 2.025 . S
O25 Sc24 2.025 . S
C26 O32 1.268 . S
C26 O42 1.268 . S
C27 O33 1.268 . S
C27 O41 1.268 . S
C28 O34 1.268 . S
C28 O43 1.268 . S
C29 O35 1.268 . S
C29 O39 1.268 . S
C30 O36 1.268 . S
C30 O38 1.268 . S
C31 O37 1.268 . S
C31 O40 1.268 . S
O32 Sc22 2.105 . S
O32 C26 1.268 . S
O33 Sc23 2.105 . S
O33 C27 1.268 . S
O34 Sc24 2.105 . S
O34 C28 1.268 . S
O35 Sc22 2.105 . S
O35 C29 1.268 . S
O36 Sc24 2.105 . S
O36 C30 1.268 . S
O37 Sc23 2.105 . S
O37 C31 1.268 . S
O38 Sc22 2.105 . S
O38 C30 1.268 . S
O39 Sc23 2.105 . S
O39 C29 1.268 . S
O40 Sc24 2.105 . S
O40 C31 1.268 . S
O41 Sc22 2.105 . S
O41 C27 1.268 . S
O42 Sc24 2.105 . S
O42 C26 1.268 . S
O43 Sc23 2.105 . S
O43 C28 1.268 . S
Sc44 O47 2.025 . S
Sc44 O54 2.105 . S
Sc44 O57 2.105 . S
Sc44 O60 2.105 . S
Sc44 O63 2.105 . S
Sc45 O47 2.025 . S
Sc45 O55 2.105 . S
Sc45 O59 2.105 . S
Sc45 O61 2.105 . S
Sc45 O65 2.105 . S
Sc46 O47 2.025 . S
Sc46 O56 2.105 . S
Sc46 O58 2.105 . S
Sc46 O62 2.105 . S
Sc46 O64 2.105 . S
O47 Sc44 2.025 . S
O47 Sc45 2.025 . S
O47 Sc46 2.025 . S
C48 O54 1.268 . S
C48 O64 1.268 . S
C49 O55 1.268 . S
C49 O63 1.268 . S
C50 O56 1.268 . S
C50 O65 1.268 . S
C51 O57 1.268 . S
C51 O61 1.268 . S
C52 O58 1.268 . S
C52 O60 1.268 . S
C53 O59 1.268 . S
C53 O62 1.268 . S
O54 Sc44 2.105 . S
O54 C48 1.268 . S
O55 Sc45 2.105 . S
O55 C49 1.268 . S
O56 Sc46 2.105 . S
O56 C50 1.268 . S
O57 Sc44 2.105 . S
O57 C51 1.268 . S
O58 Sc46 2.105 . S
O58 C52 1.268 . S
O59 Sc45 2.105 . S
O59 C53 1.268 . S
O60 Sc44 2.105 . S
O60 C52 1.268 . S
O61 Sc45 2.105 . S
O61 C51 1.268 . S
O62 Sc46 2.105 . S
O62 C53 1.268 . S
O63 Sc44 2.105 . S
O63 C49 1.268 . S
O64 Sc46 2.105 . S
O64 C48 1.268 . S
O65 Sc45 2.105 . S
O65 C50 1.268 . S
Sc66 O69 2.025 . S
Sc66 O76 2.105 . S
Sc66 O79 2.105 . S
Sc66 O82 2.105 . S
Sc66 O85 2.105 . S
Sc67 O69 2.025 . S
Sc67 O77 2.105 . S
Sc67 O81 2.105 . S
Sc67 O83 2.105 . S
Sc67 O87 2.105 . S
Sc68 O69 2.025 . S
Sc68 O78 2.105 . S
Sc68 O80 2.105 . S
Sc68 O84 2.105 . S
Sc68 O86 2.105 . S
O69 Sc66 2.025 . S
O69 Sc67 2.025 . S
O69 Sc68 2.025 . S
C70 O76 1.268 . S
C70 O86 1.268 . S
C71 O77 1.268 . S
C71 O85 1.268 . S
C72 O78 1.268 . S
C72 O87 1.268 . S
C73 O79 1.268 . S
C73 O83 1.268 . S
C74 O80 1.268 . S
C74 O82 1.268 . S
C75 O81 1.268 . S
C75 O84 1.268 . S
O76 Sc66 2.105 . S
O76 C70 1.268 . S
O77 Sc67 2.105 . S
O77 C71 1.268 . S
O78 Sc68 2.105 . S
O78 C72 1.268 . S
O79 Sc66 2.105 . S
O79 C73 1.268 . S
O80 Sc68 2.105 . S
O80 C74 1.268 . S
O81 Sc67 2.105 . S
O81 C75 1.268 . S
O82 Sc66 2.105 . S
O82 C74 1.268 . S
O83 Sc67 2.105 . S
O83 C73 1.268 . S
O84 Sc68 2.105 . S
O84 C75 1.268 . S
O85 Sc66 2.105 . S
O85 C71 1.268 . S
O86 Sc68 2.105 . S
O86 C70 1.268 . S
O87 Sc67 2.105 . S
O87 C72 1.268 . S
Sc88 O91 2.025 . S
Sc88 O98 2.105 . S
Sc88 O101 2.105 . S
Sc88 O104 2.105 . S
Sc88 O107 2.105 . S
Sc89 O91 2.025 . S
Sc89 O99 2.105 . S
Sc89 O103 2.105 . S
Sc89 O105 2.105 . S
Sc89 O109 2.105 . S
Sc90 O91 2.025 . S
Sc90 O100 2.105 . S
Sc90 O102 2.105 . S
Sc90 O106 2.105 . S
Sc90 O108 2.105 . S
O91 Sc88 2.025 . S
O91 Sc89 2.025 . S
O91 Sc90 2.025 . S
C92 O98 1.268 . S
C92 O108 1.268 . S
C93 O99 1.268 . S
C93 O107 1.268 . S
C94 O100 1.268 . S
C94 O109 1.268 . S
C95 O101 1.268 . S
C95 O105 1.268 . S
C96 O102 1.268 . S
C96 O104 1.268 . S
C97 O103 1.268 . S
C97 O106 1.268 . S
O98 Sc88 2.105 . S
O98 C92 1.268 . S
O99 Sc89 2.105 . S
O99 C93 1.268 . S
O100 Sc90 2.105 . S
O100 C94 1.268 . S
O101 Sc88 2.105 . S
O101 C95 1.268 . S
O102 Sc90 2.105 . S
O102 C96 1.268 . S
O103 Sc89 2.105 . S
O103 C97 1.268 . S
O104 Sc88 2.105 . S
O104 C96 1.268 . S
O105 Sc89 2.105 . S
O105 C95 1.268 . S
O106 Sc90 2.105 . S
O106 C97 1.268 . S
O107 Sc88 2.105 . S
O107 C93 1.268 . S
O108 Sc90 2.105 . S
O108 C92 1.268 . S
O109 Sc89 2.105 . S
O109 C94 1.268 . S
Sc110 O113 2.025 . S
Sc110 O120 2.105 . S
Sc110 O123 2.105 . S
Sc110 O126 2.105 . S
Sc110 O129 2.105 . S
Sc111 O113 2.025 . S
Sc111 O121 2.105 . S
Sc111 O125 2.105 . S
Sc111 O127 2.105 . S
Sc111 O131 2.105 . S
Sc112 O113 2.025 . S
Sc112 O122 2.105 . S
Sc112 O124 2.105 . S
Sc112 O128 2.105 . S
Sc112 O130 2.105 . S
O113 Sc110 2.025 . S
O113 Sc111 2.025 . S
O113 Sc112 2.025 . S
C114 O120 1.268 . S
C114 O130 1.268 . S
C115 O121 1.268 . S
C115 O129 1.268 . S
C116 O122 1.268 . S
C116 O131 1.268 . S
C117 O123 1.268 . S
C117 O127 1.268 . S
C118 O124 1.268 . S
C118 O126 1.268 . S
C119 O125 1.268 . S
C119 O128 1.268 . S
O120 Sc110 2.105 . S
O120 C114 1.268 . S
O121 Sc111 2.105 . S
O121 C115 1.268 . S
O122 Sc112 2.105 . S
O122 C116 1.268 . S
O123 Sc110 2.105 . S
O123 C117 1.268 . S
O124 Sc112 2.105 . S
O124 C118 1.268 . S
O125 Sc111 2.105 . S
O125 C119 1.268 . S
O126 Sc110 2.105 . S
O126 C118 1.268 . S
O127 Sc111 2.105 . S
O127 C117 1.268 . S
O128 Sc112 2.105 . S
O128 C119 1.268 . S
O129 Sc110 2.105 . S
O129 C115 1.268 . S
O130 Sc112 2.105 . S
O130 C114 1.268 . S
O131 Sc111 2.105 . S
O131 C116 1.268 . S
Sc132 O135 2.025 . S
Sc132 O142 2.105 . S
Sc132 O145 2.105 . S
Sc132 O148 2.105 . S
Sc132 O151 2.105 . S
Sc133 O135 2.025 . S
Sc133 O143 2.105 . S
Sc133 O147 2.105 . S
Sc133 O149 2.105 . S
Sc133 O153 2.105 . S
Sc134 O135 2.025 . S
Sc134 O144 2.105 . S
Sc134 O146 2.105 . S
Sc134 O150 2.105 . S
Sc134 O152 2.105 . S
O135 Sc132 2.025 . S
O135 Sc133 2.025 . S
O135 Sc134 2.025 . S
C136 O142 1.268 . S
C136 O152 1.268 . S
C137 O143 1.268 . S
C137 O151 1.268 . S
C138 O144 1.268 . S
C138 O153 1.268 . S
C139 O145 1.268 . S
C139 O149 1.268 . S
C140 O146 1.268 . S
C140 O148 1.268 . S
C141 O147 1.268 . S
C141 O150 1.268 . S
O142 Sc132 2.105 . S
O142 C136 1.268 . S
O143 Sc133 2.105 . S
O143 C137 1.268 . S
O144 Sc134 2.105 . S
O144 C138 1.268 . S
O145 Sc132 2.105 . S
O145 C139 1.268 . S
O146 Sc134 2.105 . S
O146 C140 1.268 . S
O147 Sc133 2.105 . S
O147 C141 1.268 . S
O148 Sc132 2.105 . S
O148 C140 1.268 . S
O149 Sc133 2.105 . S
O149 C139 1.268 . S
O150 Sc134 2.105 . S
O150 C141 1.268 . S
O151 Sc132 2.105 . S
O151 C137 1.268 . S
O152 Sc134 2.105 . S
O152 C136 1.268 . S
O153 Sc133 2.105 . S
O153 C138 1.268 . S
Sc154 O157 2.025 . S
Sc154 O164 2.105 . S
Sc154 O167 2.105 . S
Sc154 O170 2.105 1_554 S
Sc154 O173 2.105 . S
Sc155 O157 2.025 . S
Sc155 O165 2.105 . S
Sc155 O169 2.105 1_554 S
Sc155 O171 2.105 . S
Sc155 O175 2.105 . S
Sc156 O157 2.025 1_556 S
Sc156 O166 2.105 1_556 S
Sc156 O168 2.105 . S
Sc156 O172 2.105 . S
Sc156 O174 2.105 1_556 S
O157 Sc154 2.025 . S
O157 Sc155 2.025 . S
O157 Sc156 2.025 1_554 S
C158 O164 1.268 . S
C158 O174 1.268 . S
C159 O165 1.268 . S
C159 O173 1.268 . S
C160 O166 1.268 . S
C160 O175 1.268 . S
C161 O167 1.268 1_556 S
C161 O171 1.268 1_556 S
C162 O168 1.268 . S
C162 O170 1.268 . S
C163 O169 1.268 . S
C163 O172 1.268 . S
O164 Sc154 2.105 . S
O164 C158 1.268 . S
O165 Sc155 2.105 . S
O165 C159 1.268 . S
O166 Sc156 2.105 1_554 S
O166 C160 1.268 . S
O167 Sc154 2.105 . S
O167 C161 1.268 1_554 S
O168 Sc156 2.105 . S
O168 C162 1.268 . S
O169 Sc155 2.105 1_556 S
O169 C163 1.268 . S
O170 Sc154 2.105 1_556 S
O170 C162 1.268 . S
O171 Sc155 2.105 . S
O171 C161 1.268 1_554 S
O172 Sc156 2.105 . S
O172 C163 1.268 . S
O173 Sc154 2.105 . S
O173 C159 1.268 . S
O174 Sc156 2.105 1_554 S
O174 C158 1.268 . S
O175 Sc155 2.105 . S
O175 C160 1.268 . S
Sc176 O179 2.025 . S
Sc176 O186 2.105 . S
Sc176 O189 2.105 . S
Sc176 O192 2.105 . S
Sc176 O195 2.105 . S
Sc177 O179 2.025 . S
Sc177 O187 2.105 . S
Sc177 O191 2.105 . S
Sc177 O193 2.105 . S
Sc177 O197 2.105 . S
Sc178 O179 2.025 . S
Sc178 O188 2.105 . S
Sc178 O190 2.105 . S
Sc178 O194 2.105 . S
Sc178 O196 2.105 . S
O179 Sc176 2.025 . S
O179 Sc177 2.025 . S
O179 Sc178 2.025 . S
C180 O186 1.268 . S
C180 O196 1.268 . S
C181 O187 1.268 . S
C181 O195 1.268 . S
C182 O188 1.268 . S
C182 O197 1.268 . S
C183 O189 1.268 . S
C183 O193 1.268 . S
C184 O190 1.268 . S
C184 O192 1.268 . S
C185 O191 1.268 . S
C185 O194 1.268 . S
O186 Sc176 2.105 . S
O186 C180 1.268 . S
O187 Sc177 2.105 . S
O187 C181 1.268 . S
O188 Sc178 2.105 . S
O188 C182 1.268 . S
O189 Sc176 2.105 . S
O189 C183 1.268 . S
O190 Sc178 2.105 . S
O190 C184 1.268 . S
O191 Sc177 2.105 . S
O191 C185 1.268 . S
O192 Sc176 2.105 . S
O192 C184 1.268 . S
O193 Sc177 2.105 . S
O193 C183 1.268 . S
O194 Sc178 2.105 . S
O194 C185 1.268 . S
O195 Sc176 2.105 . S
O195 C181 1.268 . S
O196 Sc178 2.105 . S
O196 C180 1.268 . S
O197 Sc177 2.105 . S
O197 C182 1.268 . S
Sc198 O201 2.025 . S
Sc198 O208 2.105 . S
Sc198 O211 2.105 . S
Sc198 O214 2.105 . S
Sc198 O217 2.105 . S
Sc199 O201 2.025 . S
Sc199 O209 2.105 . S
Sc199 O213 2.105 . S
Sc199 O215 2.105 . S
Sc199 O219 2.105 . S
Sc200 O201 2.025 . S
Sc200 O210 2.105 . S
Sc200 O212 2.105 . S
Sc200 O216 2.105 . S
Sc200 O218 2.105 . S
O201 Sc198 2.025 . S
O201 Sc199 2.025 . S
O201 Sc200 2.025 . S
C202 O208 1.268 . S
C202 O218 1.268 . S
C203 O209 1.268 . S
C203 O217 1.268 . S
C204 O210 1.268 . S
C204 O219 1.268 . S
C205 O211 1.268 . S
C205 O215 1.268 . S
C206 O212 1.268 . S
C206 O214 1.268 . S
C207 O213 1.268 . S
C207 O216 1.268 . S
O208 Sc198 2.105 . S
O208 C202 1.268 . S
O209 Sc199 2.105 . S
O209 C203 1.268 . S
O210 Sc200 2.105 . S
O210 C204 1.268 . S
O211 Sc198 2.105 . S
O211 C205 1.268 . S
O212 Sc200 2.105 . S
O212 C206 1.268 . S
O213 Sc199 2.105 . S
O213 C207 1.268 . S
O214 Sc198 2.105 . S
O214 C206 1.268 . S
O215 Sc199 2.105 . S
O215 C205 1.268 . S
O216 Sc200 2.105 . S
O216 C207 1.268 . S
O217 Sc198 2.105 . S
O217 C203 1.268 . S
O218 Sc200 2.105 . S
O218 C202 1.268 . S
O219 Sc199 2.105 . S
O219 C204 1.268 . S
Sc220 O223 2.025 . S
Sc220 O230 2.105 . S
Sc220 O233 2.105 . S
Sc220 O236 2.105 . S
Sc220 O239 2.105 . S
Sc221 O223 2.025 . S
Sc221 O231 2.105 . S
Sc221 O235 2.105 . S
Sc221 O237 2.105 . S
Sc221 O241 2.105 . S
Sc222 O223 2.025 . S
Sc222 O232 2.105 . S
Sc222 O234 2.105 . S
Sc222 O238 2.105 . S
Sc222 O240 2.105 . S
O223 Sc220 2.025 . S
O223 Sc221 2.025 . S
O223 Sc222 2.025 . S
C224 O230 1.268 . S
C224 O240 1.268 . S
C225 O231 1.268 . S
C225 O239 1.268 . S
C226 O232 1.268 . S
C226 O241 1.268 . S
C227 O233 1.268 . S
C227 O237 1.268 . S
C228 O234 1.268 . S
C228 O236 1.268 . S
C229 O235 1.268 . S
C229 O238 1.268 . S
O230 Sc220 2.105 . S
O230 C224 1.268 . S
O231 Sc221 2.105 . S
O231 C225 1.268 . S
O232 Sc222 2.105 . S
O232 C226 1.268 . S
O233 Sc220 2.105 . S
O233 C227 1.268 . S
O234 Sc222 2.105 . S
O234 C228 1.268 . S
O235 Sc221 2.105 . S
O235 C229 1.268 . S
O236 Sc220 2.105 . S
O236 C228 1.268 . S
O237 Sc221 2.105 . S
O237 C227 1.268 . S
O238 Sc222 2.105 . S
O238 C229 1.268 . S
O239 Sc220 2.105 . S
O239 C225 1.268 . S
O240 Sc222 2.105 . S
O240 C224 1.268 . S
O241 Sc221 2.105 . S
O241 C226 1.268 . S
Sc242 O245 2.025 . S
Sc242 O252 2.105 . S
Sc242 O255 2.105 . S
Sc242 O258 2.105 . S
Sc242 O261 2.105 . S
Sc243 O245 2.025 . S
Sc243 O253 2.105 . S
Sc243 O257 2.105 . S
Sc243 O259 2.105 . S
Sc243 O263 2.105 . S
Sc244 O245 2.025 . S
Sc244 O254 2.105 . S
Sc244 O256 2.105 . S
Sc244 O260 2.105 . S
Sc244 O262 2.105 . S
O245 Sc242 2.025 . S
O245 Sc243 2.025 . S
O245 Sc244 2.025 . S
C246 O252 1.268 . S
C246 O262 1.268 . S
C247 O253 1.268 . S
C247 O261 1.268 . S
C248 O254 1.268 . S
C248 O263 1.268 . S
C249 O255 1.268 . S
C249 O259 1.268 . S
C250 O256 1.268 . S
C250 O258 1.268 . S
C251 O257 1.268 . S
C251 O260 1.268 . S
O252 Sc242 2.105 . S
O252 C246 1.268 . S
O253 Sc243 2.105 . S
O253 C247 1.268 . S
O254 Sc244 2.105 . S
O254 C248 1.268 . S
O255 Sc242 2.105 . S
O255 C249 1.268 . S
O256 Sc244 2.105 . S
O256 C250 1.268 . S
O257 Sc243 2.105 . S
O257 C251 1.268 . S
O258 Sc242 2.105 . S
O258 C250 1.268 . S
O259 Sc243 2.105 . S
O259 C249 1.268 . S
O260 Sc244 2.105 . S
O260 C251 1.268 . S
O261 Sc242 2.105 . S
O261 C247 1.268 . S
O262 Sc244 2.105 . S
O262 C246 1.268 . S
O263 Sc243 2.105 . S
O263 C248 1.268 . S
H264 C272 0.950 . S
H265 C277 0.950 . S
H266 C274 0.950 . S
H267 C276 0.950 . S
H268 C278 0.950 . S
H269 C280 0.950 . S
H270 C282 0.950 . S
H271 C283 0.950 . S
C272 H264 0.950 . S
C272 C273 1.386 . S
C272 C274 1.391 . S
C273 C272 1.386 . S
C273 C277 1.393 . S
C274 H266 0.950 . S
C274 C272 1.391 . S
C274 C275 1.400 . S
C275 C274 1.400 . S
C275 C276 1.398 . S
C275 C281 1.491 . S
C276 H267 0.950 . S
C276 C275 1.398 . S
C276 C277 1.391 . S
C277 H265 0.950 . S
C277 C273 1.393 . S
C277 C276 1.391 . S
C278 H268 0.950 . S
C278 C279 1.386 . S
C278 C280 1.391 . S
C279 C278 1.386 . S
C279 C283 1.393 . S
C280 H269 0.950 . S
C280 C278 1.391 . S
C280 C281 1.400 . S
C281 C275 1.491 . S
C281 C280 1.400 . S
C281 C282 1.398 . S
C282 H270 0.950 . S
C282 C281 1.398 . S
C282 C283 1.391 . S
C283 H271 0.950 . S
C283 C279 1.393 . S
C283 C282 1.391 . S
H284 C292 0.950 . S
H285 C297 0.950 . S
H286 C294 0.950 . S
H287 C296 0.950 . S
H288 C298 0.950 . S
H289 C300 0.950 . S
H290 C302 0.950 . S
H291 C303 0.950 . S
C292 H284 0.950 . S
C292 C293 1.386 . S
C292 C294 1.391 1_554 S
C293 C292 1.386 . S
C293 C297 1.393 . S
C294 H286 0.950 . S
C294 C292 1.391 1_556 S
C294 C295 1.400 . S
C295 C294 1.400 . S
C295 C296 1.398 . S
C295 C301 1.491 . S
C296 H287 0.950 . S
C296 C295 1.398 . S
C296 C297 1.391 1_556 S
C297 H285 0.950 . S
C297 C293 1.393 . S
C297 C296 1.391 1_554 S
C298 H288 0.950 . S
C298 C299 1.386 . S
C298 C300 1.391 . S
C299 C298 1.386 . S
C299 C303 1.393 . S
C300 H289 0.950 . S
C300 C298 1.391 . S
C300 C301 1.400 . S
C301 C295 1.491 . S
C301 C300 1.400 . S
C301 C302 1.398 . S
C302 H290 0.950 . S
C302 C301 1.398 . S
C302 C303 1.391 . S
C303 H291 0.950 . S
C303 C299 1.393 . S
C303 C302 1.391 . S
H304 C312 0.950 1_556 S
H305 C317 0.950 1_556 S
H306 C314 0.950 . S
H307 C316 0.950 . S
H308 C318 0.950 . S
H309 C320 0.950 . S
H310 C322 0.950 . S
H311 C323 0.950 . S
C312 H304 0.950 1_554 S
C312 C313 1.386 1_554 S
C312 C314 1.391 . S
C313 C312 1.386 1_556 S
C313 C317 1.393 1_556 S
C314 H306 0.950 . S
C314 C312 1.391 . S
C314 C315 1.400 . S
C315 C314 1.400 . S
C315 C316 1.398 . S
C315 C321 1.491 . S
C316 H307 0.950 . S
C316 C315 1.398 . S
C316 C317 1.391 . S
C317 H305 0.950 1_554 S
C317 C313 1.393 1_554 S
C317 C316 1.391 . S
C318 H308 0.950 . S
C318 C319 1.386 . S
C318 C320 1.391 . S
C319 C318 1.386 . S
C319 C323 1.393 . S
C320 H309 0.950 . S
C320 C318 1.391 . S
C320 C321 1.400 . S
C321 C315 1.491 . S
C321 C320 1.400 . S
C321 C322 1.398 . S
C322 H310 0.950 . S
C322 C321 1.398 . S
C322 C323 1.391 . S
C323 H311 0.950 . S
C323 C319 1.393 . S
C323 C322 1.391 . S
H324 C332 0.950 . S
H325 C337 0.950 . S
H326 C334 0.950 . S
H327 C336 0.950 . S
H328 C338 0.950 . S
H329 C340 0.950 . S
H330 C342 0.950 . S
H331 C343 0.950 . S
C332 H324 0.950 . S
C332 C333 1.386 . S
C332 C334 1.391 . S
C333 C332 1.386 . S
C333 C337 1.393 . S
C334 H326 0.950 . S
C334 C332 1.391 . S
C334 C335 1.400 . S
C335 C334 1.400 . S
C335 C336 1.398 . S
C335 C341 1.491 . S
C336 H327 0.950 . S
C336 C335 1.398 . S
C336 C337 1.391 . S
C337 H325 0.950 . S
C337 C333 1.393 . S
C337 C336 1.391 . S
C338 H328 0.950 . S
C338 C339 1.386 . S
C338 C340 1.391 . S
C339 C338 1.386 . S
C339 C343 1.393 . S
C340 H329 0.950 . S
C340 C338 1.391 . S
C340 C341 1.400 . S
C341 C335 1.491 . S
C341 C340 1.400 . S
C341 C342 1.398 . S
C342 H330 0.950 . S
C342 C341 1.398 . S
C342 C343 1.391 . S
C343 H331 0.950 . S
C343 C339 1.393 . S
C343 C342 1.391 . S
H344 C352 0.950 . S
H345 C357 0.950 . S
H346 C354 0.950 . S
H347 C356 0.950 . S
H348 C358 0.950 . S
H349 C360 0.950 . S
H350 C362 0.950 . S
H351 C363 0.950 . S
C352 H344 0.950 . S
C352 C353 1.386 . S
C352 C354 1.391 . S
C353 C352 1.386 . S
C353 C357 1.393 . S
C354 H346 0.950 . S
C354 C352 1.391 . S
C354 C355 1.400 . S
C355 C354 1.400 . S
C355 C356 1.398 . S
C355 C361 1.491 . S
C356 H347 0.950 . S
C356 C355 1.398 . S
C356 C357 1.391 . S
C357 H345 0.950 . S
C357 C353 1.393 . S
C357 C356 1.391 . S
C358 H348 0.950 . S
C358 C359 1.386 . S
C358 C360 1.391 . S
C359 C358 1.386 . S
C359 C363 1.393 . S
C360 H349 0.950 . S
C360 C358 1.391 . S
C360 C361 1.400 . S
C361 C355 1.491 . S
C361 C360 1.400 . S
C361 C362 1.398 . S
C362 H350 0.950 . S
C362 C361 1.398 . S
C362 C363 1.391 . S
C363 H351 0.950 . S
C363 C359 1.393 . S
C363 C362 1.391 . S
H364 C372 0.950 . S
H365 C377 0.950 . S
H366 C374 0.950 . S
H367 C376 0.950 . S
H368 C378 0.950 . S
H369 C380 0.950 . S
H370 C382 0.950 . S
H371 C383 0.950 . S
C372 H364 0.950 . S
C372 C373 1.386 . S
C372 C374 1.391 . S
C373 C372 1.386 . S
C373 C377 1.393 . S
C374 H366 0.950 . S
C374 C372 1.391 . S
C374 C375 1.400 . S
C375 C374 1.400 . S
C375 C376 1.398 . S
C375 C381 1.491 . S
C376 H367 0.950 . S
C376 C375 1.398 . S
C376 C377 1.391 . S
C377 H365 0.950 . S
C377 C373 1.393 . S
C377 C376 1.391 . S
C378 H368 0.950 . S
C378 C379 1.386 . S
C378 C380 1.391 . S
C379 C378 1.386 . S
C379 C383 1.393 . S
C380 H369 0.950 . S
C380 C378 1.391 . S
C380 C381 1.400 . S
C381 C375 1.491 . S
C381 C380 1.400 . S
C381 C382 1.398 . S
C382 H370 0.950 . S
C382 C381 1.398 . S
C382 C383 1.391 . S
C383 H371 0.950 . S
C383 C379 1.393 . S
C383 C382 1.391 . S
H384 C392 0.950 . S
H385 C397 0.950 1_554 S
H386 C394 0.950 . S
H387 C396 0.950 . S
H388 C398 0.950 . S
H389 C400 0.950 . S
H390 C402 0.950 . S
H391 C403 0.950 . S
C392 H384 0.950 . S
C392 C393 1.386 . S
C392 C394 1.391 . S
C393 C392 1.386 . S
C393 C397 1.393 . S
C394 H386 0.950 . S
C394 C392 1.391 . S
C394 C395 1.400 . S
C395 C394 1.400 . S
C395 C396 1.398 . S
C395 C401 1.491 . S
C396 H387 0.950 . S
C396 C395 1.398 . S
C396 C397 1.391 . S
C397 H385 0.950 1_556 S
C397 C393 1.393 . S
C397 C396 1.391 . S
C398 H388 0.950 . S
C398 C399 1.386 . S
C398 C400 1.391 . S
C399 C398 1.386 . S
C399 C403 1.393 . S
C400 H389 0.950 . S
C400 C398 1.391 . S
C400 C401 1.400 . S
C401 C395 1.491 . S
C401 C400 1.400 . S
C401 C402 1.398 . S
C402 H390 0.950 . S
C402 C401 1.398 . S
C402 C403 1.391 . S
C403 H391 0.950 . S
C403 C399 1.393 . S
C403 C402 1.391 . S
H404 C412 0.950 . S
H405 C417 0.950 . S
H406 C414 0.950 . S
H407 C416 0.950 . S
H408 C418 0.950 . S
H409 C420 0.950 . S
H410 C422 0.950 . S
H411 C423 0.950 . S
C412 H404 0.950 . S
C412 C413 1.386 . S
C412 C414 1.391 1_655 S
C413 C412 1.386 . S
C413 C417 1.393 . S
C414 H406 0.950 . S
C414 C412 1.391 1_455 S
C414 C415 1.400 . S
C415 C414 1.400 . S
C415 C416 1.398 . S
C415 C421 1.491 . S
C416 H407 0.950 . S
C416 C415 1.398 . S
C416 C417 1.391 1_455 S
C417 H405 0.950 . S
C417 C413 1.393 . S
C417 C416 1.391 1_655 S
C418 H408 0.950 . S
C418 C419 1.386 . S
C418 C420 1.391 . S
C419 C418 1.386 . S
C419 C423 1.393 . S
C420 H409 0.950 . S
C420 C418 1.391 . S
C420 C421 1.400 . S
C421 C415 1.491 . S
C421 C420 1.400 . S
C421 C422 1.398 . S
C422 H410 0.950 . S
C422 C421 1.398 . S
C422 C423 1.391 . S
C423 H411 0.950 . S
C423 C419 1.393 . S
C423 C422 1.391 . S
H424 C432 0.950 . S
H425 C437 0.950 . S
H426 C434 0.950 . S
H427 C436 0.950 . S
H428 C438 0.950 . S
H429 C440 0.950 . S
H430 C442 0.953 1_545 S
H431 C443 0.950 . S
C432 H424 0.950 . S
C432 C433 1.386 . S
C432 C434 1.391 . S
C433 C432 1.386 . S
C433 C437 1.393 . S
C434 H426 0.950 . S
C434 C432 1.391 . S
C434 C435 1.400 . S
C435 C434 1.400 . S
C435 C436 1.398 . S
C435 C441 1.491 . S
C436 H427 0.950 . S
C436 C435 1.398 . S
C436 C437 1.391 . S
C437 H425 0.950 . S
C437 C433 1.393 . S
C437 C436 1.391 . S
C438 H428 0.950 . S
C438 C439 1.386 . S
C438 C440 1.391 1_565 S
C439 C438 1.386 . S
C439 C443 1.393 . S
C440 H429 0.950 . S
C440 C438 1.391 1_545 S
C440 C441 1.400 . S
C441 C435 1.491 . S
C441 C440 1.400 . S
C441 C442 1.398 1_545 S
C442 H430 0.953 1_565 S
C442 C441 1.398 1_565 S
C442 C443 1.391 . S
C443 H431 0.950 . S
C443 C439 1.393 . S
C443 C442 1.391 . S
H444 C452 0.950 . S
H445 C457 0.950 . S
H446 C454 0.950 . S
H447 C456 0.950 . S
H448 C458 0.950 . S
H449 C460 0.950 . S
H450 C462 0.950 . S
H451 C463 0.950 . S
C452 H444 0.950 . S
C452 C453 1.386 . S
C452 C454 1.391 . S
C453 C452 1.386 . S
C453 C457 1.393 . S
C454 H446 0.950 . S
C454 C452 1.391 . S
C454 C455 1.400 . S
C455 C454 1.400 . S
C455 C456 1.398 . S
C455 C461 1.491 . S
C456 H447 0.950 . S
C456 C455 1.398 . S
C456 C457 1.391 . S
C457 H445 0.950 . S
C457 C453 1.393 . S
C457 C456 1.391 . S
C458 H448 0.950 . S
C458 C459 1.386 . S
C458 C460 1.391 . S
C459 C458 1.386 . S
C459 C463 1.393 . S
C460 H449 0.950 . S
C460 C458 1.391 . S
C460 C461 1.400 . S
C461 C455 1.491 . S
C461 C460 1.400 . S
C461 C462 1.398 . S
C462 H450 0.950 . S
C462 C461 1.398 . S
C462 C463 1.391 . S
C463 H451 0.950 . S
C463 C459 1.393 . S
C463 C462 1.391 . S
H464 C472 0.950 . S
H465 C477 0.950 . S
H466 C474 0.950 . S
H467 C476 0.950 1_655 S
H468 C478 0.950 . S
H469 C480 0.950 . S
H470 C482 0.950 . S
H471 C483 0.950 . S
C472 H464 0.950 . S
C472 C473 1.386 . S
C472 C474 1.391 1_455 S
C473 C472 1.386 . S
C473 C477 1.393 . S
C474 H466 0.950 . S
C474 C472 1.391 1_655 S
C474 C475 1.400 . S
C475 C474 1.400 . S
C475 C476 1.398 1_655 S
C475 C481 1.491 . S
C476 H467 0.950 1_455 S
C476 C475 1.398 1_455 S
C476 C477 1.391 . S
C477 H465 0.950 . S
C477 C473 1.393 . S
C477 C476 1.391 . S
C478 H468 0.950 . S
C478 C479 1.386 . S
C478 C480 1.391 . S
C479 C478 1.386 . S
C479 C483 1.393 . S
C480 H469 0.950 . S
C480 C478 1.391 . S
C480 C481 1.400 . S
C481 C475 1.491 . S
C481 C480 1.400 . S
C481 C482 1.398 . S
C482 H470 0.950 . S
C482 C481 1.398 . S
C482 C483 1.391 . S
C483 H471 0.950 . S
C483 C479 1.393 . S
C483 C482 1.391 . S
H484 C492 0.950 . S
H485 C497 0.950 . S
H486 C494 0.950 . S
H487 C496 0.950 . S
H488 C498 0.950 . S
H489 C500 0.950 . S
H490 C502 0.950 . S
H491 C503 0.950 . S
C492 H484 0.950 . S
C492 C493 1.386 . S
C492 C494 1.391 . S
C493 C492 1.386 . S
C493 C497 1.393 . S
C494 H486 0.950 . S
C494 C492 1.391 . S
C494 C495 1.400 1_545 S
C495 C494 1.400 1_565 S
C495 C496 1.398 . S
C495 C501 1.491 . S
C496 H487 0.950 . S
C496 C495 1.398 . S
C496 C497 1.391 1_565 S
C497 H485 0.950 . S
C497 C493 1.393 . S
C497 C496 1.391 1_545 S
C498 H488 0.950 . S
C498 C499 1.386 . S
C498 C500 1.391 . S
C499 C498 1.386 . S
C499 C503 1.393 . S
C500 H489 0.950 . S
C500 C498 1.391 . S
C500 C501 1.400 . S
C501 C495 1.491 . S
C501 C500 1.400 . S
C501 C502 1.398 . S
C502 H490 0.950 . S
C502 C501 1.398 . S
C502 C503 1.391 . S
C503 H491 0.950 . S
C503 C499 1.393 . S
C503 C502 1.391 . S
H504 C512 0.950 . S
H505 C517 0.950 . S
H506 C514 0.950 1_554 S
H507 C516 0.950 . S
H508 C518 0.950 . S
H509 C520 0.950 . S
H510 C522 0.950 1_554 S
H511 C523 0.950 . S
C512 H504 0.950 . S
C512 C513 1.386 . S
C512 C514 1.391 . S
C513 C512 1.386 . S
C513 C517 1.393 . S
C514 H506 0.950 1_556 S
C514 C512 1.391 . S
C514 C515 1.400 . S
C515 C514 1.400 . S
C515 C516 1.398 . S
C515 C521 1.491 . S
C516 H507 0.950 . S
C516 C515 1.398 . S
C516 C517 1.391 . S
C517 H505 0.950 . S
C517 C513 1.393 . S
C517 C516 1.391 . S
C518 H508 0.950 . S
C518 C519 1.386 . S
C518 C520 1.391 . S
C519 C518 1.386 . S
C519 C523 1.393 1_556 S
C520 H509 0.950 . S
C520 C518 1.391 . S
C520 C521 1.400 . S
C521 C515 1.491 . S
C521 C520 1.400 . S
C521 C522 1.398 . S
C522 H510 0.950 1_556 S
C522 C521 1.398 . S
C522 C523 1.391 1_556 S
C523 H511 0.950 . S
C523 C519 1.393 1_554 S
C523 C522 1.391 1_554 S
H524 C532 0.950 . S
H525 C537 0.950 . S
H526 C534 0.950 . S
H527 C536 0.950 . S
H528 C538 0.950 . S
H529 C540 0.950 . S
H530 C542 0.950 . S
H531 C543 0.950 . S
C532 H524 0.950 . S
C532 C533 1.386 . S
C532 C534 1.391 1_655 S
C533 C532 1.386 . S
C533 C537 1.393 . S
C534 H526 0.950 . S
C534 C532 1.391 1_455 S
C534 C535 1.400 . S
C535 C534 1.400 . S
C535 C536 1.398 . S
C535 C541 1.491 . S
C536 H527 0.950 . S
C536 C535 1.398 . S
C536 C537 1.391 1_455 S
C537 H525 0.950 . S
C537 C533 1.393 . S
C537 C536 1.391 1_655 S
C538 H528 0.950 . S
C538 C539 1.386 . S
C538 C540 1.391 . S
C539 C538 1.386 . S
C539 C543 1.393 . S
C540 H529 0.950 . S
C540 C538 1.391 . S
C540 C541 1.400 . S
C541 C535 1.491 . S
C541 C540 1.400 . S
C541 C542 1.398 . S
C542 H530 0.950 . S
C542 C541 1.398 . S
C542 C543 1.391 . S
C543 H531 0.950 . S
C543 C539 1.393 . S
C543 C542 1.391 . S
H544 C552 0.950 . S
H545 C557 0.950 . S
H546 C554 0.950 . S
H547 C556 0.959 . S
H548 C558 0.950 . S
H549 C560 0.950 . S
H550 C562 0.950 . S
H551 C563 0.950 . S
C552 H544 0.950 . S
C552 C553 1.386 . S
C552 C554 1.391 1_565 S
C553 C552 1.386 . S
C553 C557 1.393 . S
C554 H546 0.950 . S
C554 C552 1.391 1_545 S
C554 C555 1.400 . S
C555 C554 1.400 . S
C555 C556 1.426 . S
C555 C561 1.491 . S
C556 H547 0.959 . S
C556 C555 1.426 . S
C556 C557 1.355 1_545 S
C557 H545 0.950 . S
C557 C553 1.393 . S
C557 C556 1.355 1_565 S
C558 H548 0.950 . S
C558 C559 1.386 . S
C558 C560 1.391 . S
C559 C558 1.386 . S
C559 C563 1.393 . S
C560 H549 0.950 . S
C560 C558 1.391 . S
C560 C561 1.400 . S
C561 C555 1.491 . S
C561 C560 1.400 . S
C561 C562 1.398 . S
C562 H550 0.950 . S
C562 C561 1.398 . S
C562 C563 1.391 . S
C563 H551 0.950 . S
C563 C559 1.393 . S
C563 C562 1.391 . S
H564 C572 0.950 . S
H565 C577 0.950 . S
H566 C574 0.950 . S
H567 C576 0.950 . S
H568 C578 0.950 . S
H569 C580 0.950 . S
H570 C582 0.950 . S
H571 C583 0.950 . S
C572 H564 0.950 . S
C572 C573 1.386 . S
C572 C574 1.391 . S
C573 C572 1.386 . S
C573 C577 1.393 . S
C574 H566 0.950 . S
C574 C572 1.391 . S
C574 C575 1.400 . S
C575 C574 1.400 . S
C575 C576 1.398 . S
C575 C581 1.491 . S
C576 H567 0.950 . S
C576 C575 1.398 . S
C576 C577 1.391 . S
C577 H565 0.950 . S
C577 C573 1.393 . S
C577 C576 1.391 . S
C578 H568 0.950 . S
C578 C579 1.386 . S
C578 C580 1.391 . S
C579 C578 1.386 . S
C579 C583 1.393 . S
C580 H569 0.950 . S
C580 C578 1.391 . S
C580 C581 1.400 . S
C581 C575 1.491 . S
C581 C580 1.400 . S
C581 C582 1.398 . S
C582 H570 0.950 . S
C582 C581 1.398 . S
C582 C583 1.391 . S
C583 H571 0.950 . S
C583 C579 1.393 . S
C583 C582 1.391 . S
H584 C592 0.950 . S
H585 C597 0.950 . S
H586 C594 0.950 . S
H587 C596 0.950 . S
H588 C598 0.950 . S
H589 C600 0.950 . S
H590 C602 0.950 . S
H591 C603 0.950 . S
C592 H584 0.950 . S
C592 C593 1.386 . S
C592 C594 1.391 . S
C593 C592 1.386 . S
C593 C597 1.393 . S
C594 H586 0.950 . S
C594 C592 1.391 . S
C594 C595 1.400 . S
C595 C594 1.400 . S
C595 C596 1.398 . S
C595 C601 1.491 . S
C596 H587 0.950 . S
C596 C595 1.398 . S
C596 C597 1.391 . S
C597 H585 0.950 . S
C597 C593 1.393 . S
C597 C596 1.391 . S
C598 H588 0.950 . S
C598 C599 1.386 . S
C598 C600 1.391 1_455 S
C599 C598 1.386 . S
C599 C603 1.393 . S
C600 H589 0.950 . S
C600 C598 1.391 1_655 S
C600 C601 1.400 . S
C601 C595 1.491 . S
C601 C600 1.400 . S
C601 C602 1.398 . S
C602 H590 0.950 . S
C602 C601 1.398 . S
C602 C603 1.391 1_655 S
C603 H591 0.950 . S
C603 C599 1.393 . S
C603 C602 1.391 1_455 S
H604 C612 0.950 . S
H605 C617 0.950 . S
H606 C614 0.950 . S
H607 C616 0.950 . S
H608 C618 0.950 . S
H609 C620 0.950 . S
H610 C622 0.950 . S
H611 C623 0.950 . S
C612 H604 0.950 . S
C612 C613 1.386 . S
C612 C614 1.391 . S
C613 C612 1.386 . S
C613 C617 1.393 . S
C614 H606 0.950 . S
C614 C612 1.391 . S
C614 C615 1.400 . S
C615 C614 1.400 . S
C615 C616 1.398 . S
C615 C621 1.491 . S
C616 H607 0.950 . S
C616 C615 1.398 . S
C616 C617 1.391 . S
C617 H605 0.950 . S
C617 C613 1.393 . S
C617 C616 1.391 . S
C618 H608 0.950 . S
C618 C619 1.386 . S
C618 C620 1.391 1_545 S
C619 C618 1.386 . S
C619 C623 1.393 . S
C620 H609 0.950 . S
C620 C618 1.391 1_565 S
C620 C621 1.400 . S
C621 C615 1.491 . S
C621 C620 1.400 . S
C621 C622 1.398 . S
C622 H610 0.950 . S
C622 C621 1.398 . S
C622 C623 1.391 1_565 S
C623 H611 0.950 . S
C623 C619 1.393 . S
C623 C622 1.391 1_545 S
H624 C632 0.950 . S
H625 C637 0.950 . S
H626 C634 0.950 . S
H627 C636 0.950 . S
H628 C638 0.950 . S
H629 C640 0.950 . S
H630 C642 0.950 . S
H631 C643 0.950 . S
C632 H624 0.950 . S
C632 C633 1.386 . S
C632 C634 1.391 . S
C633 C632 1.386 . S
C633 C637 1.393 . S
C634 H626 0.950 . S
C634 C632 1.391 . S
C634 C635 1.400 . S
C635 C634 1.400 . S
C635 C636 1.398 . S
C635 C641 1.491 . S
C636 H627 0.950 . S
C636 C635 1.398 . S
C636 C637 1.391 . S
C637 H625 0.950 . S
C637 C633 1.393 . S
C637 C636 1.391 . S
C638 H628 0.950 . S
C638 C639 1.386 . S
C638 C640 1.391 . S
C639 C638 1.386 . S
C639 C643 1.393 . S
C640 H629 0.950 . S
C640 C638 1.391 . S
C640 C641 1.400 . S
C641 C635 1.491 . S
C641 C640 1.400 . S
C641 C642 1.398 . S
C642 H630 0.950 . S
C642 C641 1.398 . S
C642 C643 1.391 . S
C643 H631 0.950 . S
C643 C639 1.393 . S
C643 C642 1.391 . S
H644 C652 0.950 . S
H645 C657 0.950 . S
H646 C654 0.950 . S
H647 C656 0.950 . S
H648 C658 0.950 . S
H649 C660 0.950 . S
H650 C662 0.950 . S
H651 C663 0.950 . S
C652 H644 0.950 . S
C652 C653 1.386 . S
C652 C654 1.391 . S
C653 C652 1.386 . S
C653 C657 1.393 . S
C654 H646 0.950 . S
C654 C652 1.391 . S
C654 C655 1.400 . S
C655 C654 1.400 . S
C655 C656 1.398 . S
C655 C661 1.491 . S
C656 H647 0.950 . S
C656 C655 1.398 . S
C656 C657 1.391 . S
C657 H645 0.950 . S
C657 C653 1.393 . S
C657 C656 1.391 . S
C658 H648 0.950 . S
C658 C659 1.386 . S
C658 C660 1.391 . S
C659 C658 1.386 . S
C659 C663 1.393 . S
C660 H649 0.950 . S
C660 C658 1.391 . S
C660 C661 1.400 . S
C661 C655 1.491 . S
C661 C660 1.400 . S
C661 C662 1.398 . S
C662 H650 0.950 . S
C662 C661 1.398 . S
C662 C663 1.391 . S
C663 H651 0.950 . S
C663 C659 1.393 . S
C663 C662 1.391 . S
H664 C672 0.950 . S
H665 C677 0.950 . S
H666 C674 0.950 . S
H667 C676 0.950 . S
H668 C678 0.950 . S
H669 C680 0.950 . S
H670 C682 0.950 . S
H671 C683 0.950 . S
C672 H664 0.950 . S
C672 C673 1.386 . S
C672 C674 1.391 . S
C673 C672 1.386 . S
C673 C677 1.393 . S
C674 H666 0.950 . S
C674 C672 1.391 . S
C674 C675 1.400 . S
C675 C674 1.400 . S
C675 C676 1.398 . S
C675 C681 1.491 . S
C676 H667 0.950 . S
C676 C675 1.398 . S
C676 C677 1.391 . S
C677 H665 0.950 . S
C677 C673 1.393 . S
C677 C676 1.391 . S
C678 H668 0.950 . S
C678 C679 1.386 . S
C678 C680 1.391 . S
C679 C678 1.386 . S
C679 C683 1.393 . S
C680 H669 0.950 . S
C680 C678 1.391 . S
C680 C681 1.400 . S
C681 C675 1.491 . S
C681 C680 1.400 . S
C681 C682 1.398 . S
C682 H670 0.950 . S
C682 C681 1.398 . S
C682 C683 1.391 . S
C683 H671 0.950 . S
C683 C679 1.393 . S
C683 C682 1.391 . S
H684 C692 0.950 . S
H685 C697 0.950 . S
H686 C694 0.950 . S
H687 C696 0.950 . S
H688 C698 0.950 . S
H689 C700 0.950 . S
H690 C702 0.950 . S
H691 C703 0.950 . S
C692 H684 0.950 . S
C692 C693 1.386 . S
C692 C694 1.391 . S
C693 C692 1.386 . S
C693 C697 1.393 . S
C694 H686 0.950 . S
C694 C692 1.391 . S
C694 C695 1.400 . S
C695 C694 1.400 . S
C695 C696 1.398 . S
C695 C701 1.491 . S
C696 H687 0.950 . S
C696 C695 1.398 . S
C696 C697 1.391 . S
C697 H685 0.950 . S
C697 C693 1.393 . S
C697 C696 1.391 . S
C698 H688 0.950 . S
C698 C699 1.386 . S
C698 C700 1.391 . S
C699 C698 1.386 . S
C699 C703 1.393 . S
C700 H689 0.950 . S
C700 C698 1.391 . S
C700 C701 1.400 . S
C701 C695 1.491 . S
C701 C700 1.400 . S
C701 C702 1.398 . S
C702 H690 0.950 . S
C702 C701 1.398 . S
C702 C703 1.391 . S
C703 H691 0.950 . S
C703 C699 1.393 . S
C703 C702 1.391 . S
H704 C712 0.950 . S
H705 C717 0.950 . S
H706 C714 0.950 . S
H707 C716 0.950 . S
H708 C718 0.950 . S
H709 C720 0.950 . S
H710 C722 0.950 . S
H711 C723 0.950 . S
C712 H704 0.950 . S
C712 C713 1.386 . S
C712 C714 1.391 . S
C713 C712 1.386 . S
C713 C717 1.393 . S
C714 H706 0.950 . S
C714 C712 1.391 . S
C714 C715 1.400 . S
C715 C714 1.400 . S
C715 C716 1.398 . S
C715 C721 1.491 . S
C716 H707 0.950 . S
C716 C715 1.398 . S
C716 C717 1.391 . S
C717 H705 0.950 . S
C717 C713 1.393 . S
C717 C716 1.391 . S
C718 H708 0.950 . S
C718 C719 1.386 . S
C718 C720 1.391 . S
C719 C718 1.386 . S
C719 C723 1.393 . S
C720 H709 0.950 . S
C720 C718 1.391 . S
C720 C721 1.400 . S
C721 C715 1.491 . S
C721 C720 1.400 . S
C721 C722 1.398 . S
C722 H710 0.950 . S
C722 C721 1.398 . S
C722 C723 1.391 . S
C723 H711 0.950 . S
C723 C719 1.393 . S
C723 C722 1.391 . S
H724 C732 0.950 . S
H725 C737 0.950 . S
H726 C734 0.950 . S
H727 C736 0.950 . S
H728 C738 0.950 . S
H729 C740 0.950 . S
H730 C742 0.950 . S
H731 C743 0.950 . S
C732 H724 0.950 . S
C732 C733 1.386 . S
C732 C734 1.391 . S
C733 C732 1.386 . S
C733 C737 1.393 . S
C734 H726 0.950 . S
C734 C732 1.391 . S
C734 C735 1.400 . S
C735 C734 1.400 . S
C735 C736 1.398 . S
C735 C741 1.491 . S
C736 H727 0.950 . S
C736 C735 1.398 . S
C736 C737 1.391 . S
C737 H725 0.950 . S
C737 C733 1.393 . S
C737 C736 1.391 . S
C738 H728 0.950 . S
C738 C739 1.386 . S
C738 C740 1.391 . S
C739 C738 1.386 . S
C739 C743 1.393 . S
C740 H729 0.950 . S
C740 C738 1.391 . S
C740 C741 1.400 . S
C741 C735 1.491 . S
C741 C740 1.400 . S
C741 C742 1.398 . S
C742 H730 0.950 . S
C742 C741 1.398 . S
C742 C743 1.391 . S
C743 H731 0.950 . S
C743 C739 1.393 . S
C743 C742 1.391 . S
H744 C752 0.950 . S
H745 C757 0.950 . S
H746 C754 0.950 . S
H747 C756 0.950 . S
H748 C758 0.950 . S
H749 C760 0.950 . S
H750 C762 0.950 . S
H751 C763 0.950 . S
C752 H744 0.950 . S
C752 C753 1.386 . S
C752 C754 1.391 . S
C753 C752 1.386 . S
C753 C757 1.393 . S
C754 H746 0.950 . S
C754 C752 1.391 . S
C754 C755 1.400 . S
C755 C754 1.400 . S
C755 C756 1.398 . S
C755 C761 1.491 . S
C756 H747 0.950 . S
C756 C755 1.398 . S
C756 C757 1.391 . S
C757 H745 0.950 . S
C757 C753 1.393 . S
C757 C756 1.391 . S
C758 H748 0.950 . S
C758 C759 1.386 . S
C758 C760 1.391 . S
C759 C758 1.386 . S
C759 C763 1.393 . S
C760 H749 0.950 . S
C760 C758 1.391 . S
C760 C761 1.400 . S
C761 C755 1.491 . S
C761 C760 1.400 . S
C761 C762 1.398 . S
C762 H750 0.950 . S
C762 C761 1.398 . S
C762 C763 1.391 . S
C763 H751 0.950 . S
C763 C759 1.393 . S
C763 C762 1.391 . S
H764 C772 0.950 . S
H765 C777 0.950 . S
H766 C774 0.950 . S
H767 C776 0.950 . S
H768 C778 0.950 . S
H769 C780 0.950 . S
H770 C782 0.950 . S
H771 C783 0.950 . S
C772 H764 0.950 . S
C772 C773 1.386 . S
C772 C774 1.391 . S
C773 C772 1.386 . S
C773 C777 1.393 . S
C774 H766 0.950 . S
C774 C772 1.391 . S
C774 C775 1.400 . S
C775 C774 1.400 . S
C775 C776 1.398 . S
C775 C781 1.491 1_455 S
C776 H767 0.950 . S
C776 C775 1.398 . S
C776 C777 1.391 . S
C777 H765 0.950 . S
C777 C773 1.393 . S
C777 C776 1.391 . S
C778 H768 0.950 . S
C778 C779 1.386 . S
C778 C780 1.391 . S
C779 C778 1.386 . S
C779 C783 1.393 . S
C780 H769 0.950 . S
C780 C778 1.391 . S
C780 C781 1.400 . S
C781 C775 1.491 1_655 S
C781 C780 1.400 . S
C781 C782 1.398 . S
C782 H770 0.950 . S
C782 C781 1.398 . S
C782 C783 1.391 . S
C783 H771 0.950 . S
C783 C779 1.393 . S
C783 C782 1.391 . S
H784 C792 0.950 . S
H785 C797 0.950 . S
H786 C794 0.950 1_565 S
H787 C796 0.950 . S
H788 C798 0.950 . S
H789 C800 0.950 1_545 S
H790 C802 0.950 . S
H791 C803 0.950 . S
C792 H784 0.950 . S
C792 C793 1.386 . S
C792 C794 1.391 . S
C793 C792 1.386 . S
C793 C797 1.393 . S
C794 H786 0.950 1_545 S
C794 C792 1.391 . S
C794 C795 1.400 . S
C795 C794 1.400 . S
C795 C796 1.398 . S
C795 C801 1.491 1_545 S
C796 H787 0.950 . S
C796 C795 1.398 . S
C796 C797 1.391 . S
C797 H785 0.950 . S
C797 C793 1.393 . S
C797 C796 1.391 . S
C798 H788 0.950 . S
C798 C799 1.386 . S
C798 C800 1.391 . S
C799 C798 1.386 . S
C799 C803 1.393 . S
C800 H789 0.950 1_565 S
C800 C798 1.391 . S
C800 C801 1.400 . S
C801 C795 1.491 1_565 S
C801 C800 1.400 . S
C801 C802 1.398 . S
C802 H790 0.950 . S
C802 C801 1.398 . S
C802 C803 1.391 . S
C803 H791 0.950 . S
C803 C799 1.393 . S
C803 C802 1.391 . S
H804 C812 0.950 . S
H805 C817 0.950 . S
H806 C814 0.950 . S
H807 C816 0.950 . S
H808 C818 0.950 . S
H809 C820 0.950 . S
H810 C822 0.950 . S
H811 C823 0.950 . S
C812 H804 0.950 . S
C812 C813 1.386 . S
C812 C814 1.391 . S
C813 C812 1.386 . S
C813 C817 1.393 . S
C814 H806 0.950 . S
C814 C812 1.391 . S
C814 C815 1.400 . S
C815 C814 1.400 . S
C815 C816 1.398 . S
C815 C821 1.491 . S
C816 H807 0.950 . S
C816 C815 1.398 . S
C816 C817 1.391 . S
C817 H805 0.950 . S
C817 C813 1.393 . S
C817 C816 1.391 . S
C818 H808 0.950 . S
C818 C819 1.386 . S
C818 C820 1.391 . S
C819 C818 1.386 . S
C819 C823 1.393 . S
C820 H809 0.950 . S
C820 C818 1.391 . S
C820 C821 1.400 . S
C821 C815 1.491 . S
C821 C820 1.400 . S
C821 C822 1.398 . S
C822 H810 0.950 . S
C822 C821 1.398 . S
C822 C823 1.391 . S
C823 H811 0.950 . S
C823 C819 1.393 . S
C823 C822 1.391 . S
H824 C832 0.950 . S
H825 C837 0.950 . S
H826 C834 0.950 . S
H827 C836 0.950 . S
H828 C838 0.950 . S
H829 C840 0.950 . S
H830 C842 0.950 . S
H831 C843 0.950 . S
C832 H824 0.950 . S
C832 C833 1.386 . S
C832 C834 1.391 . S
C833 C832 1.386 . S
C833 C837 1.393 . S
C834 H826 0.950 . S
C834 C832 1.391 . S
C834 C835 1.400 . S
C835 C834 1.400 . S
C835 C836 1.398 . S
C835 C841 1.491 1_455 S
C836 H827 0.950 . S
C836 C835 1.398 . S
C836 C837 1.391 . S
C837 H825 0.950 . S
C837 C833 1.393 . S
C837 C836 1.391 . S
C838 H828 0.950 . S
C838 C839 1.386 . S
C838 C840 1.391 . S
C839 C838 1.386 . S
C839 C843 1.393 . S
C840 H829 0.950 . S
C840 C838 1.391 . S
C840 C841 1.400 . S
C841 C835 1.491 1_655 S
C841 C840 1.400 . S
C841 C842 1.398 . S
C842 H830 0.950 . S
C842 C841 1.398 . S
C842 C843 1.391 . S
C843 H831 0.950 . S
C843 C839 1.393 . S
C843 C842 1.391 . S
H844 C852 0.950 . S
H845 C857 0.950 . S
H846 C854 0.950 . S
H847 C856 0.950 1_554 S
H848 C858 0.950 . S
H849 C860 0.950 . S
H850 C862 0.950 . S
H851 C863 0.950 . S
C852 H844 0.950 . S
C852 C853 1.386 . S
C852 C854 1.391 . S
C853 C852 1.386 . S
C853 C857 1.393 . S
C854 H846 0.950 . S
C854 C852 1.391 . S
C854 C855 1.404 . S
C855 C854 1.404 . S
C855 C856 1.399 . S
C855 C861 1.487 1_546 S
C856 H847 0.950 1_556 S
C856 C855 1.399 . S
C856 C857 1.391 . S
C857 H845 0.950 . S
C857 C853 1.393 . S
C857 C856 1.391 . S
C858 H848 0.950 . S
C858 C859 1.386 . S
C858 C860 1.391 . S
C859 C858 1.386 . S
C859 C863 1.393 . S
C860 H849 0.950 . S
C860 C858 1.391 . S
C860 C861 1.400 . S
C861 C855 1.487 1_564 S
C861 C860 1.400 . S
C861 C862 1.398 . S
C862 H850 0.950 . S
C862 C861 1.398 . S
C862 C863 1.391 . S
C863 H851 0.950 . S
C863 C859 1.393 . S
C863 C862 1.391 . S
H864 C872 0.950 . S
H865 C877 0.950 . S
H866 C874 0.950 . S
H867 C876 0.950 . S
H868 C878 0.950 . S
H869 C880 0.950 . S
H870 C882 0.950 . S
H871 C883 0.950 . S
C872 H864 0.950 . S
C872 C873 1.386 . S
C872 C874 1.391 . S
C873 C872 1.386 . S
C873 C877 1.393 . S
C874 H866 0.950 . S
C874 C872 1.391 . S
C874 C875 1.400 . S
C875 C874 1.400 . S
C875 C876 1.398 . S
C875 C881 1.491 . S
C876 H867 0.950 . S
C876 C875 1.398 . S
C876 C877 1.391 . S
C877 H865 0.950 . S
C877 C873 1.393 . S
C877 C876 1.391 . S
C878 H868 0.950 . S
C878 C879 1.386 . S
C878 C880 1.391 . S
C879 C878 1.386 . S
C879 C883 1.393 . S
C880 H869 0.950 . S
C880 C878 1.391 . S
C880 C881 1.400 . S
C881 C875 1.491 . S
C881 C880 1.400 . S
C881 C882 1.398 . S
C882 H870 0.950 . S
C882 C881 1.398 . S
C882 C883 1.391 . S
C883 H871 0.950 . S
C883 C879 1.393 . S
C883 C882 1.391 . S
H884 C892 0.950 . S
H885 C897 0.950 . S
H886 C894 0.950 . S
H887 C896 0.950 . S
H888 C898 0.950 . S
H889 C900 0.950 . S
H890 C902 0.950 . S
H891 C903 0.950 . S
C892 H884 0.950 . S
C892 C893 1.386 . S
C892 C894 1.391 . S
C893 C892 1.386 . S
C893 C897 1.393 . S
C894 H886 0.950 . S
C894 C892 1.391 . S
C894 C895 1.400 . S
C895 C894 1.400 . S
C895 C896 1.398 . S
C895 C901 1.491 . S
C896 H887 0.950 . S
C896 C895 1.398 . S
C896 C897 1.391 . S
C897 H885 0.950 . S
C897 C893 1.393 . S
C897 C896 1.391 . S
C898 H888 0.950 . S
C898 C899 1.386 . S
C898 C900 1.391 . S
C899 C898 1.386 . S
C899 C903 1.393 . S
C900 H889 0.950 . S
C900 C898 1.391 . S
C900 C901 1.400 . S
C901 C895 1.491 . S
C901 C900 1.400 . S
C901 C902 1.398 . S
C902 H890 0.950 . S
C902 C901 1.398 . S
C902 C903 1.391 . S
C903 H891 0.950 . S
C903 C899 1.393 . S
C903 C902 1.391 . S
H904 C912 0.950 . S
H905 C917 0.950 . S
H906 C914 0.950 . S
H907 C916 0.950 . S
H908 C918 0.950 . S
H909 C920 0.950 . S
H910 C922 0.950 . S
H911 C923 0.950 . S
C912 H904 0.950 . S
C912 C913 1.386 . S
C912 C914 1.391 . S
C913 C912 1.386 . S
C913 C917 1.393 . S
C914 H906 0.950 . S
C914 C912 1.391 . S
C914 C915 1.400 . S
C915 C914 1.400 . S
C915 C916 1.398 . S
C915 C921 1.491 . S
C916 H907 0.950 . S
C916 C915 1.398 . S
C916 C917 1.391 . S
C917 H905 0.950 . S
C917 C913 1.393 . S
C917 C916 1.391 . S
C918 H908 0.950 . S
C918 C919 1.386 . S
C918 C920 1.391 . S
C919 C918 1.386 . S
C919 C923 1.393 . S
C920 H909 0.950 . S
C920 C918 1.391 . S
C920 C921 1.400 . S
C921 C915 1.491 . S
C921 C920 1.400 . S
C921 C922 1.398 . S
C922 H910 0.950 . S
C922 C921 1.398 . S
C922 C923 1.391 . S
C923 H911 0.950 . S
C923 C919 1.393 . S
C923 C922 1.391 . S
H924 C932 0.950 . S
H925 C937 0.950 . S
H926 C934 0.950 . S
H927 C936 0.950 . S
H928 C938 0.950 . S
H929 C940 0.950 . S
H930 C942 0.950 . S
H931 C943 0.950 . S
C932 H924 0.950 . S
C932 C933 1.386 . S
C932 C934 1.391 . S
C933 C932 1.386 . S
C933 C937 1.393 . S
C934 H926 0.950 . S
C934 C932 1.391 . S
C934 C935 1.400 . S
C935 C934 1.400 . S
C935 C936 1.398 . S
C935 C941 1.491 . S
C936 H927 0.950 . S
C936 C935 1.398 . S
C936 C937 1.391 . S
C937 H925 0.950 . S
C937 C933 1.393 . S
C937 C936 1.391 . S
C938 H928 0.950 . S
C938 C939 1.386 . S
C938 C940 1.391 . S
C939 C938 1.386 . S
C939 C943 1.393 . S
C940 H929 0.950 . S
C940 C938 1.391 . S
C940 C941 1.400 . S
C941 C935 1.491 . S
C941 C940 1.400 . S
C941 C942 1.398 . S
C942 H930 0.950 . S
C942 C941 1.398 . S
C942 C943 1.391 . S
C943 H931 0.950 . S
C943 C939 1.393 . S
C943 C942 1.391 . S
H944 C952 0.950 . S
H945 C957 0.950 . S
H946 C954 0.950 . S
H947 C956 0.950 . S
H948 C958 0.950 . S
H949 C960 0.950 . S
H950 C962 0.950 . S
H951 C963 0.950 . S
C952 H944 0.950 . S
C952 C953 1.386 . S
C952 C954 1.391 . S
C953 C952 1.386 . S
C953 C957 1.393 . S
C954 H946 0.950 . S
C954 C952 1.391 . S
C954 C955 1.400 . S
C955 C954 1.400 . S
C955 C956 1.398 . S
C955 C961 1.491 . S
C956 H947 0.950 . S
C956 C955 1.398 . S
C956 C957 1.391 . S
C957 H945 0.950 . S
C957 C953 1.393 . S
C957 C956 1.391 . S
C958 H948 0.950 . S
C958 C959 1.386 . S
C958 C960 1.391 1_554 S
C959 C958 1.386 . S
C959 C963 1.393 . S
C960 H949 0.950 . S
C960 C958 1.391 1_556 S
C960 C961 1.400 . S
C961 C955 1.491 . S
C961 C960 1.400 . S
C961 C962 1.398 . S
C962 H950 0.950 . S
C962 C961 1.398 . S
C962 C963 1.391 1_556 S
C963 H951 0.950 . S
C963 C959 1.393 . S
C963 C962 1.391 1_554 S
H964 C972 0.950 . S
H965 C977 0.950 . S
H966 C974 0.950 . S
H967 C976 0.950 . S
H968 C978 0.950 . S
H969 C980 0.950 . S
H970 C982 0.950 . S
H971 C983 0.950 . S
C972 H964 0.950 . S
C972 C973 1.386 1_554 S
C972 C974 1.391 . S
C973 C972 1.386 1_556 S
C973 C977 1.393 . S
C974 H966 0.950 . S
C974 C972 1.391 . S
C974 C975 1.400 . S
C975 C974 1.400 . S
C975 C976 1.398 . S
C975 C981 1.491 . S
C976 H967 0.950 . S
C976 C975 1.398 . S
C976 C977 1.391 1_554 S
C977 H965 0.950 . S
C977 C973 1.393 . S
C977 C976 1.391 1_556 S
C978 H968 0.950 . S
C978 C979 1.386 . S
C978 C980 1.391 . S
C979 C978 1.386 . S
C979 C983 1.393 . S
C980 H969 0.950 . S
C980 C978 1.391 . S
C980 C981 1.400 . S
C981 C975 1.491 . S
C981 C980 1.400 . S
C981 C982 1.398 . S
C982 H970 0.950 . S
C982 C981 1.398 . S
C982 C983 1.391 . S
C983 H971 0.950 . S
C983 C979 1.393 . S
C983 C982 1.391 . S
C273 C229 1.214 . S
C279 C5 1.214 . S
C293 C31 1.208 . S
C299 C247 1.213 . S
C313 C141 1.209 . S
C319 C49 1.210 . S
C333 C75 1.216 . S
C339 C159 1.212 . S
C353 C93 1.208 . S
C359 C185 1.211 . S
C373 C203 1.208 . S
C379 C119 1.213 . S
C393 C6 1.239 . S
C399 C116 1.316 . S
C413 C29 1.217 . S
C419 C7 1.305 . S
C433 C28 1.322 . S
C439 C50 1.252 . S
C453 C73 1.253 . S
C459 C51 1.323 . S
C473 C94 1.215 . S
C479 C72 1.305 . S
C493 C117 1.253 . S
C499 C95 1.323 . S
C513 C139 1.240 . S
C519 C161 1.316 . S
C533 C160 1.228 . S
C539 C182 1.310 . S
C553 C183 1.222 . S
C559 C205 1.309 . S
C573 C226 1.313 . S
C579 C204 1.231 . S
C593 C249 1.307 . S
C599 C227 1.219 . S
C613 C138 1.320 . S
C619 C248 1.248 . S
C633 C4 1.292 . S
C639 C140 1.292 . S
C653 C158 1.284 . S
C659 C30 1.286 . S
C673 C48 1.292 . S
C679 C184 1.292 . S
C693 C74 1.288 . S
C699 C202 1.286 . S
C713 C228 1.276 . S
C719 C92 1.277 . S
C733 C118 1.285 . S
C739 C246 1.287 . S
C753 C9 1.141 . S
C759 C207 1.169 . S
C773 C225 1.163 . S
C779 C27 1.163 . S
C793 C251 1.129 . S
C799 C53 1.153 . S
C813 C71 1.136 . S
C819 C137 1.166 . S
C833 C97 1.132 . S
C839 C163 1.140 . S
C853 C115 1.160 . S
C859 C181 1.165 . S
C873 C224 1.826 . S
C879 C8 1.821 . S
C893 C250 1.821 . S
C899 C26 1.825 . S
C913 C136 1.827 . S
C919 C52 1.819 . S
C933 C162 1.819 . S
C939 C70 1.828 . S
C953 C96 1.825 . S
C959 C180 1.821 . S
C973 C114 1.828 . S
C979 C206 1.819 . S
