# Generated by pormake.
# Topology lcx, (8)-cn, num edge types: 1
# Building blocks:
#     Node 0, Type 0, BuildingBlock: OLANAS_clean_sbu_2, # of connection points: 8
#     Node 1, Type 0, BuildingBlock: OLANAS_clean_sbu_2, # of connection points: 8
#     Node 2, Type 0, BuildingBlock: OLANAS_clean_sbu_2, # of connection points: 8
#     Node 3, Type 0, BuildingBlock: OLANAS_clean_sbu_2, # of connection points: 8
#     Node 4, Type 0, BuildingBlock: OLANAS_clean_sbu_2, # of connection points: 8
#     Node 5, Type 0, BuildingBlock: OLANAS_clean_sbu_2, # of connection points: 8
#     Edge 6, Type (0, 0), BuildingBlock: ZUJKAS_clean_linker_0, # of connection points: 2
#     Edge 7, Type (0, 0), BuildingBlock: ZUJKAS_clean_linker_0, # of connection points: 2
#     Edge 8, Type (0, 0), BuildingBlock: ZUJKAS_clean_linker_0, # of connection points: 2
#     Edge 9, Type (0, 0), BuildingBlock: ZUJKAS_clean_linker_0, # of connection points: 2
#     Edge 10, Type (0, 0), BuildingBlock: ZUJKAS_clean_linker_0, # of connection points: 2
#     Edge 11, Type (0, 0), BuildingBlock: ZUJKAS_clean_linker_0, # of connection points: 2
#     Edge 12, Type (0, 0), BuildingBlock: ZUJKAS_clean_linker_0, # of connection points: 2
#     Edge 13, Type (0, 0), BuildingBlock: ZUJKAS_clean_linker_0, # of connection points: 2
#     Edge 14, Type (0, 0), BuildingBlock: ZUJKAS_clean_linker_0, # of connection points: 2
#     Edge 15, Type (0, 0), BuildingBlock: ZUJKAS_clean_linker_0, # of connection points: 2
#     Edge 16, Type (0, 0), BuildingBlock: ZUJKAS_clean_linker_0, # of connection points: 2
#     Edge 17, Type (0, 0), BuildingBlock: ZUJKAS_clean_linker_0, # of connection points: 2
#     Edge 18, Type (0, 0), BuildingBlock: ZUJKAS_clean_linker_0, # of connection points: 2
#     Edge 19, Type (0, 0), BuildingBlock: ZUJKAS_clean_linker_0, # of connection points: 2
#     Edge 20, Type (0, 0), BuildingBlock: ZUJKAS_clean_linker_0, # of connection points: 2
#     Edge 21, Type (0, 0), BuildingBlock: ZUJKAS_clean_linker_0, # of connection points: 2
#     Edge 22, Type (0, 0), BuildingBlock: ZUJKAS_clean_linker_0, # of connection points: 2
#     Edge 23, Type (0, 0), BuildingBlock: ZUJKAS_clean_linker_0, # of connection points: 2
#     Edge 24, Type (0, 0), BuildingBlock: ZUJKAS_clean_linker_0, # of connection points: 2
#     Edge 25, Type (0, 0), BuildingBlock: ZUJKAS_clean_linker_0, # of connection points: 2
#     Edge 26, Type (0, 0), BuildingBlock: ZUJKAS_clean_linker_0, # of connection points: 2
#     Edge 27, Type (0, 0), BuildingBlock: ZUJKAS_clean_linker_0, # of connection points: 2
#     Edge 28, Type (0, 0), BuildingBlock: ZUJKAS_clean_linker_0, # of connection points: 2
#     Edge 29, Type (0, 0), BuildingBlock: ZUJKAS_clean_linker_0, # of connection points: 2
# Relax obj value: 0.048
# Max RMSD: 0.137
# Mean RMSD: 0.137
data_MOF--net-lcx--node1-OLANAS_clean_sbu_2--edge1-ZUJKAS_clean_linker_0
_symmetry_space_group_name_H-M    P1
_symmetry_Int_Tables_number       1
_symmetry_cell_setting            triclinic
loop_
_symmetry_equiv_pos_as_xyz
'x, y, z'
_cell_length_a     38.448354
_cell_length_b     38.461285
_cell_length_c     38.452533
_cell_angle_alpha  90.162272
_cell_angle_beta   89.938194
_cell_angle_gamma 90.025184
loop_
_atom_site_label
_atom_site_type_symbol
_atom_site_fract_x
_atom_site_fract_y
_atom_site_fract_z
_atom_type_partial_charge
C0 C 0.95475 0.28974 0.50203 0.0
O1 O 0.92162 0.29825 0.50206 0.0
C2 C 0.9825 0.3159 0.5042 0.0
C3 C 0.97981 0.35204 0.50748 0.0
C4 C 0.01099 0.37153 0.5096 0.0
C5 C 0.04377 0.35479 0.50853 0.0
C6 C 0.04427 0.31856 0.50521 0.0
N7 N 0.01407 0.30174 0.50311 0.0
N8 N 0.01699 0.25343 0.4494 0.0
Co9 Co 0.01615 0.25413 0.49984 0.0
N10 N 0.0182 0.20656 0.49667 0.0
C11 C 0.02107 0.15685 0.46129 0.0
C12 C 0.02114 0.13664 0.49203 0.0
C13 C 0.01968 0.15273 0.52518 0.0
C14 C 0.01814 0.18906 0.52651 0.0
C15 C 0.01953 0.19303 0.46478 0.0
N16 N 0.01556 0.247 0.54974 0.0
N17 N 0.96568 0.25592 0.49948 0.0
N18 N 0.06621 0.26026 0.5009 0.0
C19 C 0.01896 0.21984 0.43762 0.0
O20 O 0.02051 0.21214 0.40432 0.0
C21 C 0.07418 0.29487 0.50391 0.0
O22 O 0.10646 0.30614 0.50525 0.0
C23 C 0.09281 0.23436 0.4988 0.0
C24 C 0.14129 0.21173 0.46491 0.0
C25 C 0.10853 0.22761 0.46643 0.0
C26 C 0.10943 0.22388 0.52957 0.0
C27 C 0.1423 0.20827 0.52821 0.0
C28 C 0.15741 0.20131 0.4958 0.0
C29 C 0.01657 0.21217 0.55699 0.0
O30 O 0.01697 0.20029 0.58901 0.0
C31 C 0.01536 0.27287 0.57655 0.0
C32 C 0.04703 0.28635 0.58878 0.0
C33 C 0.04791 0.30672 0.619 0.0
C34 C 0.01694 0.31334 0.63697 0.0
C35 C 0.9854 0.2988 0.62592 0.0
C36 C 0.98454 0.27928 0.59512 0.0
C37 C 0.94144 0.22779 0.49657 0.0
C38 C 0.92128 0.21877 0.52576 0.0
C39 C 0.8907 0.1993 0.5217 0.0
C40 C 0.88146 0.1875 0.48851 0.0
C41 C 0.90099 0.19668 0.45925 0.0
C42 C 0.93133 0.21634 0.46335 0.0
C43 C 0.01665 0.28247 0.42623 0.0
C44 C 0.01925 0.3306 0.37204 0.0
C45 C 0.98841 0.31191 0.37781 0.0
C46 C 0.98701 0.28866 0.40584 0.0
C47 C 0.04793 0.29945 0.41836 0.0
C48 C 0.04944 0.32344 0.39111 0.0
H49 H 0.95473 0.36475 0.5085 0.0
H50 H 0.00976 0.39953 0.5122 0.0
H51 H 0.06764 0.36961 0.51033 0.0
H52 H 0.02215 0.1446 0.43594 0.0
H53 H 0.02233 0.10859 0.49017 0.0
H54 H 0.01975 0.13735 0.5487 0.0
H55 H 0.09681 0.23746 0.44286 0.0
H56 H 0.09831 0.23078 0.55449 0.0
H57 H 0.18291 0.18928 0.49466 0.0
H58 H 0.07107 0.27972 0.57583 0.0
H59 H 0.01777 0.32799 0.66112 0.0
H60 H 0.96055 0.26701 0.58697 0.0
H61 H 0.92769 0.22957 0.55096 0.0
H62 H 0.85751 0.17294 0.48505 0.0
H63 H 0.94516 0.22526 0.44061 0.0
H64 H 0.02072 0.34861 0.35045 0.0
H65 H 0.96388 0.27328 0.41013 0.0
H66 H 0.07153 0.29241 0.43184 0.0
C67 C 0.30324 0.49676 0.9415 0.0
O68 O 0.3124 0.4939 0.90867 0.0
C69 C 0.32881 0.49861 0.96985 0.0
C70 C 0.36512 0.49691 0.96824 0.0
C71 C 0.38385 0.49893 -0.00012 0.0
C72 C 0.36622 0.50251 0.03205 0.0
C73 C 0.32987 0.504 0.03151 0.0
N74 N 0.31379 0.50205 0.0009 0.0
N75 N 0.26067 0.45375 0.00651 0.0
Co76 Co 0.26608 0.50354 0.00167 0.0
N77 N 0.21837 0.50498 0.00243 0.0
C78 C 0.16553 0.47472 0.00632 0.0
C79 C 0.14828 0.5071 0.00326 0.0
C80 C 0.16741 0.53838 -0.00025 0.0
C81 C 0.20372 0.53621 -0.0006 0.0
C82 C 0.20191 0.47469 0.0058 0.0
N83 N 0.26366 0.55354 0.9968 0.0
N84 N 0.26914 0.49842 0.95169 0.0
N85 N 0.27087 0.50826 0.05166 0.0
C86 C 0.22615 0.44522 0.00824 0.0
O87 O 0.21546 0.41288 0.01117 0.0
C88 C 0.30532 0.50751 0.06066 0.0
O89 O 0.31574 0.51052 0.09309 0.0
C90 C 0.24382 0.51235 0.07693 0.0
C91 C 0.21501 0.48989 0.12864 0.0
C92 C 0.23577 0.48451 0.0991 0.0
C93 C 0.23091 0.5457 0.08436 0.0
C94 C 0.20942 0.55106 0.11325 0.0
C95 C 0.2008 0.52294 0.1346 0.0
C96 C 0.22965 0.56414 0.99615 0.0
O97 O 0.22087 0.59704 0.99329 0.0
C98 C 0.292 0.57751 0.99507 0.0
C99 C 0.30291 0.59442 0.02549 0.0
C100 C 0.32514 0.62318 0.02362 0.0
C101 C 0.33733 0.63415 0.99108 0.0
C102 C 0.32596 0.61798 0.96038 0.0
C103 C 0.30354 0.58933 0.96257 0.0
C104 C 0.24109 0.49845 0.92741 0.0
C105 C 0.22991 0.53004 0.91335 0.0
C106 C 0.2067 0.53042 0.8854 0.0
C107 C 0.19409 0.49886 0.87212 0.0
C108 C 0.20595 0.46701 0.88523 0.0
C109 C 0.22935 0.46695 0.91318 0.0
C110 C 0.28771 0.42832 0.00742 0.0
C111 C 0.33467 0.37304 0.00909 0.0
C112 C 0.32419 0.38646 0.97691 0.0
C113 C 0.30067 0.41431 0.97623 0.0
C114 C 0.29737 0.41374 0.03934 0.0
C115 C 0.32071 0.38594 0.04016 0.0
H116 H 0.37853 0.49404 0.94364 0.0
H117 H 0.41196 0.49765 -0.00053 0.0
H118 H 0.38048 0.504 0.05626 0.0
H119 H 0.15095 0.45079 0.00895 0.0
H120 H 0.12015 0.50795 0.00358 0.0
H121 H 0.15428 0.56315 0.99739 0.0
H122 H 0.24783 0.45947 0.09475 0.0
H123 H 0.23902 0.5677 0.06896 0.0
H124 H 0.185 0.52747 0.15756 0.0
H125 H 0.29252 0.58651 0.05039 0.0
H126 H 0.35292 0.6576 0.98944 0.0
H127 H 0.29357 0.57754 0.93904 0.0
H128 H 0.24066 0.55422 0.92287 0.0
H129 H 0.17758 0.49908 0.84926 0.0
H130 H 0.23964 0.4426 0.92276 0.0
H131 H 0.35143 0.35035 0.00994 0.0
H132 H 0.29141 0.42408 0.95158 0.0
H133 H 0.28555 0.42293 0.06319 0.0
C134 C 0.0735 0.70651 0.49507 0.0
O135 O 0.10544 0.69445 0.49309 0.0
C136 C 0.04287 0.68358 0.49581 0.0
C137 C 0.04121 0.64729 0.49377 0.0
C138 C 0.00797 0.63144 0.49506 0.0
C139 C 0.97746 0.65183 0.49833 0.0
C140 C 0.98128 0.68796 0.50026 0.0
N141 N 0.01324 0.70126 0.49892 0.0
N142 N 0.01401 0.75515 0.45107 0.0
Co143 Co 0.0168 0.74881 0.50108 0.0
N144 N 0.0205 0.79639 0.50319 0.0
C145 C 0.02431 0.84946 0.47348 0.0
C146 C 0.02863 0.86601 0.50614 0.0
C147 C 0.02896 0.8464 0.53725 0.0
C148 C 0.0248 0.81035 0.53462 0.0
C149 C 0.02022 0.81331 0.47302 0.0
N150 N 0.02034 0.75039 0.55134 0.0
N151 N 0.06648 0.74131 0.49749 0.0
N152 N 0.96659 0.74848 0.50429 0.0
C153 C 0.01638 0.78976 0.44311 0.0
O154 O 0.01559 0.80109 0.41089 0.0
C155 C 0.95442 0.71501 0.50333 0.0
O156 O 0.92109 0.70762 0.50541 0.0
C157 C 0.94409 0.77786 0.50744 0.0
C158 C 0.89632 0.81156 0.48331 0.0
C159 C 0.92332 0.78736 0.47906 0.0
C160 C 0.93767 0.79227 0.54036 0.0
C161 C 0.91144 0.81703 0.54466 0.0
C162 C 0.89206 0.82772 0.51584 0.0
C163 C 0.02467 0.78407 0.56228 0.0
O164 O 0.0271 0.79242 0.59538 0.0
C165 C 0.0168 0.72235 0.57544 0.0
C166 C 0.98353 0.71295 0.58728 0.0
C167 C 0.97991 0.69243 0.61702 0.0
C168 C 0.00959 0.68059 0.63431 0.0
C169 C 0.0429 0.69114 0.62385 0.0
C170 C 0.04635 0.71106 0.59359 0.0
C171 C 0.09318 0.76706 0.49972 0.0
C172 C 0.10794 0.7751 0.53209 0.0
C173 C 0.13645 0.79757 0.53415 0.0
C174 C 0.15008 0.81202 0.50372 0.0
C175 C 0.13651 0.80298 0.47109 0.0
C176 C 0.10779 0.78061 0.46922 0.0
C177 C 0.01203 0.72874 0.42487 0.0
C178 C 0.00616 0.68346 0.36833 0.0
C179 C 0.03769 0.70105 0.37378 0.0
C180 C 0.04074 0.72287 0.40295 0.0
C181 C 0.97987 0.7134 0.41708 0.0
C182 C 0.97691 0.6905 0.3889 0.0
H183 H 0.06454 0.63175 0.49125 0.0
H184 H 0.00585 0.60343 0.4935 0.0
H185 H 0.95204 0.63978 0.49923 0.0
H186 H 0.0244 0.86436 0.44964 0.0
H187 H 0.03191 0.89393 0.50732 0.0
H188 H 0.03251 0.85895 0.56222 0.0
H189 H 0.92654 0.77375 0.45457 0.0
H190 H 0.95133 0.78264 0.56291 0.0
H191 H 0.87127 0.84639 0.51972 0.0
H192 H 0.96063 0.72392 0.57533 0.0
H193 H 0.00644 0.6652 0.6577 0.0
H194 H 0.07168 0.72052 0.58597 0.0
H195 H 0.09807 0.76306 0.55542 0.0
H196 H 0.17323 0.82811 0.50531 0.0
H197 H 0.09765 0.77279 0.44417 0.0
H198 H 0.00345 0.66617 0.34618 0.0
H199 H 0.06454 0.73717 0.4074 0.0
H200 H 0.95694 0.72053 0.43176 0.0
C201 C 0.72855 0.50184 0.94156 0.0
O202 O 0.72003 0.50331 0.90849 0.0
C203 C 0.70242 0.50152 0.96949 0.0
C204 C 0.66618 0.50375 0.96714 0.0
C205 C 0.64682 0.50406 0.9985 0.0
C206 C 0.66378 0.50235 0.03112 0.0
C207 C 0.70011 0.50024 0.03131 0.0
N208 N 0.71678 0.49967 0.00094 0.0
N209 N 0.76931 0.54873 0.00491 0.0
Co210 Co 0.7645 0.49869 0.00267 0.0
N211 N 0.8122 0.49785 0.00434 0.0
C212 C 0.86465 0.52895 0.00692 0.0
C213 C 0.88231 0.49665 0.00568 0.0
C214 C 0.86358 0.46499 0.00363 0.0
C215 C 0.82725 0.4667 0.00291 0.0
C216 C 0.82827 0.5285 0.00613 0.0
N217 N 0.76754 0.44848 0.00051 0.0
N218 N 0.76245 0.50073 0.95239 0.0
N219 N 0.75867 0.49708 0.05275 0.0
C220 C 0.80369 0.55778 0.00661 0.0
O221 O 0.81394 0.59035 0.00837 0.0
C222 C 0.72404 0.49879 0.06106 0.0
O223 O 0.71294 0.49779 0.0934 0.0
C224 C 0.78499 0.49331 0.07872 0.0
C225 C 0.81252 0.51708 0.1306 0.0
C226 C 0.79326 0.52185 0.10004 0.0
C227 C 0.79644 0.45992 0.08788 0.0
C228 C 0.81646 0.45512 0.11781 0.0
C229 C 0.82509 0.48382 0.13851 0.0
C230 C 0.8017 0.43832 0.00066 0.0
O231 O 0.81094 0.40541 -8e-05 0.0
C232 C 0.73958 0.42397 9e-05 0.0
C233 C 0.725 0.41305 0.03166 0.0
C234 C 0.70348 0.38372 0.03278 0.0
C235 C 0.69615 0.36576 0.00189 0.0
C236 C 0.71152 0.37566 0.97033 0.0
C237 C 0.73251 0.40543 0.9694 0.0
C238 C 0.79096 0.50061 0.92853 0.0
C239 C 0.80358 0.46882 0.91583 0.0
C240 C 0.82718 0.4681 0.88806 0.0
C241 C 0.83856 0.49955 0.87363 0.0
C242 C 0.82506 0.5314 0.88517 0.0
C243 C 0.80142 0.53184 0.91291 0.0
C244 C 0.7419 0.57376 0.00533 0.0
C245 C 0.69353 0.62781 0.00625 0.0
C246 C 0.70588 0.61521 0.9743 0.0
C247 C 0.72999 0.58792 0.97397 0.0
C248 C 0.7304 0.58747 0.03713 0.0
C249 C 0.70622 0.61466 0.03773 0.0
H250 H 0.6533 0.50544 0.9422 0.0
H251 H 0.61875 0.50584 0.99752 0.0
H252 H 0.64905 0.50286 0.05512 0.0
H253 H 0.87892 0.55317 0.00833 0.0
H254 H 0.91044 0.49617 0.00623 0.0
H255 H 0.87703 0.44029 0.00257 0.0
H256 H 0.7824 0.54712 0.09423 0.0
H257 H 0.78822 0.43751 0.07301 0.0
H258 H 0.83968 0.47976 0.16229 0.0
H259 H 0.73207 0.42593 0.05564 0.0
H260 H 0.68056 0.34227 0.00287 0.0
H261 H 0.74559 0.41252 0.94552 0.0
H262 H 0.79356 0.44471 0.92618 0.0
H263 H 0.85525 0.49907 0.85086 0.0
H264 H 0.78983 0.55615 0.9211 0.0
H265 H 0.67618 0.65005 0.00664 0.0
H266 H 0.74037 0.5786 0.94951 0.0
H267 H 0.74112 0.57779 0.06123 0.0
C268 C 0.52229 0.06233 0.28721 0.0
O269 O 0.52486 0.0957 0.29427 0.0
C270 C 0.51932 0.03582 0.31452 0.0
C271 C 0.5196 0.03989 0.35068 0.0
C272 C 0.51632 0.00964 0.37137 0.0
C273 C 0.51287 0.97641 0.35577 0.0
C274 C 0.51276 0.97451 0.31943 0.0
N275 N 0.51589 0.00389 0.30147 0.0
N276 N 0.56603 0.99491 0.25055 0.0
Co277 Co 0.51609 -0.0001 0.2539 0.0
N278 N 0.51631 0.99588 0.20633 0.0
C279 C 0.54839 0.98803 0.15499 0.0
C280 C 0.51654 0.98909 0.13653 0.0
C281 C 0.48457 0.99359 0.15432 0.0
C282 C 0.48553 0.99699 0.19053 0.0
C283 C 0.5472 0.99163 0.19118 0.0
N284 N 0.46615 0.00442 0.24947 0.0
N285 N 0.52113 0.04992 0.25382 0.0
N286 N 0.51116 0.95043 0.26175 0.0
C287 C 0.57583 0.99119 0.21651 0.0
O288 O 0.60851 0.98724 0.20721 0.0
C289 C 0.50998 0.94381 0.29672 0.0
O290 O 0.50702 0.91211 0.30911 0.0
C291 C 0.51004 0.92317 0.23641 0.0
C292 C 0.5388 0.87235 0.2119 0.0
C293 C 0.54059 0.90462 0.22876 0.0
C294 C 0.47766 0.90999 0.22578 0.0
C295 C 0.47569 0.87777 0.20892 0.0
C296 C 0.50633 0.85964 0.20135 0.0
C297 C 0.45667 0.00173 0.21524 0.0
O298 O 0.42402 0.00316 0.20521 0.0
C299 C 0.44111 0.00748 0.27682 0.0
C300 C 0.42383 0.97754 0.28833 0.0
C301 C 0.39368 0.98032 0.30854 0.0
C302 C 0.38242 0.01329 0.31927 0.0
C303 C 0.39926 0.04346 0.30777 0.0
C304 C 0.42869 0.04047 0.28645 0.0
C305 C 0.52118 0.07228 0.22427 0.0
C306 C 0.48953 0.08474 0.21145 0.0
C307 C 0.48908 0.11133 0.18682 0.0
C308 C 0.52049 0.12508 0.17455 0.0
C309 C 0.55237 0.11372 0.18816 0.0
C310 C 0.55255 0.08688 0.21278 0.0
C311 C 0.59047 0.99524 0.27849 0.0
C312 C 0.64555 0.99377 0.32574 0.0
C313 C 0.63626 0.0253 0.31009 0.0
C314 C 0.60855 0.02594 0.28645 0.0
C315 C 0.60067 0.96375 0.29352 0.0
C316 C 0.62867 0.96278 0.31666 0.0
H317 H 0.52229 0.06529 0.36255 0.0
H318 H 0.51649 0.01194 0.39942 0.0
H319 H 0.51046 0.95326 0.37153 0.0
H320 H 0.57283 0.98447 0.14145 0.0
H321 H 0.51663 0.98636 0.10851 0.0
H322 H 0.4602 0.99433 0.14027 0.0
H323 H 0.56536 0.91406 0.23808 0.0
H324 H 0.45402 0.92347 0.23277 0.0
H325 H 0.50472 0.83472 0.18815 0.0
H326 H 0.43216 0.95233 0.27913 0.0
H327 H 0.35879 0.01561 0.33456 0.0
H328 H 0.44079 0.06362 0.27607 0.0
H329 H 0.46529 0.07544 0.22224 0.0
H330 H 0.51986 0.14717 0.15708 0.0
H331 H 0.57681 0.07871 0.22444 0.0
H332 H 0.66835 0.99278 0.34232 0.0
H333 H 0.60207 0.04983 0.27313 0.0
H334 H 0.58821 0.93979 0.28576 0.0
C335 C 0.51278 0.94075 0.71226 0.0
O336 O 0.51193 0.90819 0.70176 0.0
C337 C 0.51273 0.97009 0.6878 0.0
C338 C 0.5125 0.96968 0.65142 0.0
C339 C 0.51228 0.00204 0.63391 0.0
C340 C 0.51223 0.03372 0.65279 0.0
C341 C 0.51239 0.03196 0.68911 0.0
N342 N 0.51267 0.00073 0.70401 0.0
N343 N 0.56313 -0.00043 0.7554 0.0
Co344 Co 0.51283 -0.00017 0.75172 0.0
N345 N 0.51297 0.99891 0.79942 0.0
C346 C 0.54516 0.99738 0.85118 0.0
C347 C 0.51318 0.99736 0.86952 0.0
C348 C 0.48109 0.9981 0.85146 0.0
C349 C 0.48206 0.99887 0.81511 0.0
C350 C 0.54397 0.99819 0.81483 0.0
N351 N 0.46261 -6e-05 0.75582 0.0
N352 N 0.51274 0.94967 0.74677 0.0
N353 N 0.51287 0.05005 0.74888 0.0
C354 C 0.5728 0.99841 0.78965 0.0
O355 O 0.60559 0.99776 0.7993 0.0
C356 C 0.51253 0.06035 0.71482 0.0
O357 O 0.513 0.0933 0.7058 0.0
C358 C 0.51492 0.07421 0.77708 0.0
C359 C 0.54938 0.11574 0.80999 0.0
C360 C 0.54734 0.08798 0.78646 0.0
C361 C 0.48433 0.08847 0.79096 0.0
C362 C 0.48603 0.11629 0.81456 0.0
C363 C 0.51871 0.12916 0.8245 0.0
C364 C 0.4531 -0.0004 0.79015 0.0
O365 O 0.42037 0.00018 0.80006 0.0
C366 C 0.43775 0.00189 0.72828 0.0
C367 C 0.42629 0.03453 0.71683 0.0
C368 C 0.39842 0.0369 0.6936 0.0
C369 C 0.38201 0.00646 0.6821 0.0
C370 C 0.3914 0.97385 0.6954 0.0
C371 C 0.42025 0.97165 0.71759 0.0
C372 C 0.5107 0.92423 0.77377 0.0
C373 C 0.47798 0.9128 0.78523 0.0
C374 C 0.47517 0.88347 0.80652 0.0
C375 C 0.50538 0.86582 0.81645 0.0
C376 C 0.53809 0.87597 0.80396 0.0
C377 C 0.54074 0.90585 0.78333 0.0
C378 C 0.58787 0.99894 0.72758 0.0
C379 C 0.6426 0.99905 0.67972 0.0
C380 C 0.63351 0.96813 0.69648 0.0
C381 C 0.60601 0.96808 0.72031 0.0
C382 C 0.59829 0.03018 0.71186 0.0
C383 C 0.62594 0.0304 0.68804 0.0
H384 H 0.51248 0.94546 0.63704 0.0
H385 H 0.51213 0.00256 0.60577 0.0
H386 H 0.51208 0.05846 0.63946 0.0
H387 H 0.56969 0.9968 0.86494 0.0
H388 H 0.51326 0.99674 0.89765 0.0
H389 H 0.45664 0.99803 0.86542 0.0
H390 H 0.57075 0.07818 0.77425 0.0
H391 H 0.45931 0.07898 0.78218 0.0
H392 H 0.52016 0.1519 0.84119 0.0
H393 H 0.43797 0.05798 0.72716 0.0
H394 H 0.35986 0.00853 0.66479 0.0
H395 H 0.42756 0.94688 0.72852 0.0
H396 H 0.45468 0.92556 0.77622 0.0
H397 H 0.50314 0.8424 0.83197 0.0
H398 H 0.56564 0.91328 0.77261 0.0
H399 H 0.66518 -0.0007 0.66275 0.0
H400 H 0.59983 0.94456 0.73436 0.0
H401 H 0.58621 0.05442 0.71944 0.0
H402 H 0.06851 0.38993 0.37639 0.0
H403 H 0.11337 0.40684 0.33453 0.0
H404 H 0.14945 0.30085 0.32948 0.0
H405 H 0.10468 0.28376 0.37161 0.0
H406 H 0.2025 0.3695 0.32221 0.0
H407 H 0.08892 0.35292 0.23415 0.0
H408 H 0.08083 0.37523 0.27458 0.0
H409 H 0.09274 0.33014 0.27499 0.0
C410 C 0.08704 0.3706 0.36756 0.0
C411 C 0.08306 0.33558 0.37695 0.0
C412 C 0.11256 0.38022 0.34365 0.0
C413 C 0.1343 0.35496 0.32877 0.0
C414 C 0.1329 0.32065 0.34085 0.0
H415 H 0.19954 0.42042 0.12075 0.0
H416 H 0.18841 0.37814 0.16736 0.0
C417 C 0.10745 0.311 0.36501 0.0
C418 C 0.15319 0.36344 0.29649 0.0
H419 H 0.13709 0.38427 0.212 0.0
C420 C 0.18853 0.37214 0.29787 0.0
C421 C 0.13505 0.36585 0.26465 0.0
C422 C 0.09733 0.35532 0.26169 0.0
C423 C 0.20558 0.38576 0.26856 0.0
C424 C 0.1864 0.39155 0.23763 0.0
C425 C 0.15182 0.38008 0.23566 0.0
C426 C 0.19941 0.41424 0.2093 0.0
C427 C 0.24367 0.39468 0.27135 0.0
C428 C 0.20966 0.44831 0.21733 0.0
C429 C 0.216 0.4722 0.19097 0.0
C430 C 0.21161 0.46285 0.15588 0.0
C431 C 0.20292 0.42833 0.1476 0.0
C432 C 0.19663 0.40422 0.17417 0.0
H433 H 0.2572 0.37628 0.28899 0.0
H434 H 0.2567 0.39412 0.24557 0.0
H435 H 0.24645 0.42111 0.28267 0.0
H436 H 0.21109 0.45706 0.24408 0.0
H437 H 0.22345 0.49842 0.19817 0.0
H438 H 0.25474 0.57527 0.85906 0.0
H439 H 0.24465 0.61817 0.81297 0.0
H440 H 0.13425 0.59993 0.82043 0.0
H441 H 0.14416 0.55679 0.86602 0.0
H442 H 0.18319 0.58188 0.75208 0.0
H443 H 0.17889 0.71693 0.8041 0.0
H444 H 0.20782 0.68421 0.82148 0.0
H445 H 0.16218 0.68216 0.83076 0.0
C446 C 0.22825 0.58148 0.85177 0.0
C447 C 0.20014 0.56267 0.86577 0.0
C448 C 0.2226 0.60585 0.82545 0.0
C449 C 0.18878 0.61195 0.81344 0.0
C450 C 0.16052 0.59553 0.82962 0.0
H451 H 0.04307 0.698 0.69417 0.0
H452 H 0.08941 0.68425 0.73441 0.0
C453 C 0.16615 0.57097 0.85556 0.0
C454 C 0.18266 0.63012 0.78036 0.0
H455 H 0.15378 0.70727 0.74841 0.0
C456 C 0.17765 0.60951 0.7507 0.0
C457 C 0.1759 0.66604 0.77906 0.0
C458 C 0.18156 0.68889 0.81043 0.0
C459 C 0.1624 0.62319 0.72064 0.0
C460 C 0.15274 0.65872 0.72019 0.0
C461 C 0.16118 0.68006 0.74879 0.0
C462 C 0.12727 0.67187 0.69452 0.0
C463 C 0.15364 0.59866 0.69118 0.0
C464 C 0.13327 0.67039 0.65846 0.0
C465 C 0.10613 0.67716 0.63511 0.0
C466 C 0.07283 0.68584 0.64761 0.0
C467 C 0.06792 0.68985 0.68364 0.0
C468 C 0.09468 0.68268 0.70676 0.0
H469 H 0.15901 0.57109 0.69783 0.0
H470 H 0.12576 0.60097 0.68405 0.0
H471 H 0.16948 0.60538 0.66803 0.0
H472 H 0.1585 0.66292 0.64843 0.0
H473 H 0.11088 0.67452 0.60746 0.0
H474 H 0.79995 0.5127 0.19986 0.0
H475 H 0.81249 0.5557 0.24449 0.0
H476 H 0.84391 0.62891 0.1656 0.0
H477 H 0.83233 0.58501 0.12041 0.0
H478 H 0.89296 0.62067 0.213 0.0
H479 H 0.77012 0.64241 0.28331 0.0
H480 H 0.77765 0.59664 0.27905 0.0
H481 H 0.7714 0.62269 0.24061 0.0
C482 C 0.80928 0.53806 0.19192 0.0
C483 C 0.81598 0.54528 0.15673 0.0
C484 C 0.81577 0.56291 0.21748 0.0
C485 C 0.82862 0.59579 0.20847 0.0
C486 C 0.83367 0.60378 0.17312 0.0
H487 H 0.92338 0.73076 0.36699 0.0
H488 H 0.87903 0.71253 0.32484 0.0
C489 C 0.82715 0.57875 0.14737 0.0
C490 C 0.84199 0.61896 0.23631 0.0
H491 H 0.82344 0.64769 0.31854 0.0
C492 C 0.87745 0.62749 0.23559 0.0
C493 C 0.8218 0.62812 0.26582 0.0
C494 C 0.78304 0.62228 0.26703 0.0
C495 C 0.89382 0.64226 0.26457 0.0
C496 C 0.87433 0.64821 0.2952 0.0
C497 C 0.83838 0.64232 0.29519 0.0
C498 C 0.89216 0.65797 0.32776 0.0
C499 C 0.93235 0.64974 0.26292 0.0
C500 C 0.91248 0.63297 0.34476 0.0
C501 C 0.93777 0.64328 0.36863 0.0
C502 C 0.94281 0.67868 0.37592 0.0
C503 C 0.91963 0.70326 0.36205 0.0
C504 C 0.89445 0.69293 0.33787 0.0
H505 H 0.94209 0.65024 0.23571 0.0
H506 H 0.93839 0.67505 0.2755 0.0
H507 H 0.94665 0.62917 0.27718 0.0
H508 H 0.91099 0.60586 0.33716 0.0
H509 H 0.95554 0.62399 0.37886 0.0
H510 H 0.89083 0.44431 0.86839 0.0
H511 H 0.9023 0.40125 0.82285 0.0
H512 H 0.79302 0.37657 0.81808 0.0
H513 H 0.78135 0.41963 0.86388 0.0
H514 H 0.84829 0.31694 0.80691 0.0
H515 H 0.85932 0.43464 0.7245 0.0
H516 H 0.8837 0.43679 0.76432 0.0
H517 H 0.83704 0.43463 0.76589 0.0
C518 C 0.86947 0.42879 0.85852 0.0
C519 C 0.83524 0.43543 0.86936 0.0
C520 C 0.87599 0.40432 0.83252 0.0
C521 C 0.8484 0.38628 0.81687 0.0
C522 C 0.81458 0.39035 0.8299 0.0
H523 H 0.91961 0.32221 0.61119 0.0
H524 H 0.87368 0.33566 0.65382 0.0
C525 C 0.80802 0.41478 0.85615 0.0
C526 C 0.85471 0.36751 0.78393 0.0
H527 H 0.88452 0.38252 0.70195 0.0
C528 C 0.85555 0.3311 0.78365 0.0
C529 C 0.86296 0.38606 0.75335 0.0
C530 C 0.86042 0.4252 0.75176 0.0
C531 C 0.86756 0.31285 0.75426 0.0
C532 C 0.87963 0.3317 0.72501 0.0
C533 C 0.87556 0.36795 0.72435 0.0
C534 C 0.90227 0.31579 0.69804 0.0
C535 C 0.86829 0.27368 0.75533 0.0
C536 C 0.93304 0.29931 0.70854 0.0
C537 C 0.95898 0.29176 0.68442 0.0
C538 C 0.95495 0.30089 0.64933 0.0
C539 C 0.92325 0.31505 0.63817 0.0
C540 C 0.8971 0.32267 0.66247 0.0
H541 H 0.84584 0.26352 0.77044 0.0
H542 H 0.8677 0.26217 0.72882 0.0
H543 H 0.89234 0.26503 0.76867 0.0
H544 H 0.93822 0.29454 0.73578 0.0
H545 H 0.9831 0.28045 0.69356 0.0
H546 H 0.38337 0.07357 0.36958 0.0
H547 H 0.33723 0.11632 0.37919 0.0
H548 H 0.32636 0.12955 0.26843 0.0
H549 H 0.37307 0.08699 0.25871 0.0
H550 H 0.31321 0.19369 0.31725 0.0
H551 H 0.23979 0.07285 0.34526 0.0
H552 H 0.28041 0.07601 0.36812 0.0
H553 H 0.28032 0.07299 0.32146 0.0
C554 C 0.37225 0.08683 0.3474 0.0
C555 C 0.38157 0.07705 0.31348 0.0
C556 C 0.34582 0.11105 0.35285 0.0
C557 C 0.3281 0.12552 0.32448 0.0
C558 C 0.33976 0.11858 0.2906 0.0
H559 H 0.12345 0.18026 0.40326 0.0
H560 H 0.16345 0.16604 0.35528 0.0
C561 C 0.36653 0.09446 0.28511 0.0
C562 C 0.29429 0.14277 0.33062 0.0
H563 H 0.21523 0.12578 0.36668 0.0
C564 C 0.29143 0.17894 0.32742 0.0
C565 C 0.26549 0.1233 0.34256 0.0
C566 C 0.2664 0.08409 0.34425 0.0
C567 C 0.26142 0.19644 0.33899 0.0
C568 C 0.23424 0.17722 0.35488 0.0
C569 C 0.23599 0.14076 0.35484 0.0
C570 C 0.20736 0.19376 0.3773 0.0
C571 C 0.25965 0.23538 0.335 0.0
C572 C 0.2182 0.21522 0.40479 0.0
C573 C 0.19547 0.22339 0.43179 0.0
C574 C 0.16155 0.20985 0.43224 0.0
C575 C 0.14955 0.19088 0.40345 0.0
C576 C 0.1724 0.18278 0.37613 0.0
H577 H 0.27217 0.24354 0.31027 0.0
H578 H 0.23242 0.24499 0.33534 0.0
H579 H 0.27423 0.2479 0.35655 0.0
H580 H 0.24507 0.22334 0.40704 0.0
H581 H 0.20519 0.2384 0.45362 0.0
H582 H 0.42714 0.86186 0.75931 0.0
H583 H 0.38201 0.81791 0.76948 0.0
H584 H 0.40374 0.82166 0.87949 0.0
H585 H 0.44867 0.86532 0.86936 0.0
H586 H 0.40347 0.75498 0.79648 0.0
H587 H 0.29856 0.80854 0.87851 0.0
H588 H 0.32651 0.83581 0.85234 0.0
H589 H 0.34038 0.8214 0.89466 0.0
C590 C 0.42104 0.85445 0.78579 0.0
C591 C 0.44126 0.86685 0.81363 0.0
C592 C 0.39545 0.82921 0.79154 0.0
C593 C 0.3894 0.8166 0.82524 0.0
C594 C 0.40743 0.83144 0.85335 0.0
H595 H 0.38825 0.63891 0.93423 0.0
H596 H 0.39716 0.68271 0.88928 0.0
C597 C 0.43318 0.85633 0.84759 0.0
C598 C 0.36976 0.78393 0.83084 0.0
H599 H 0.31285 0.74722 0.88795 0.0
C600 C 0.38282 0.75332 0.81565 0.0
C601 C 0.34252 0.78169 0.85541 0.0
C602 C 0.32595 0.81372 0.87087 0.0
C603 C 0.37191 0.72048 0.82714 0.0
C604 C 0.3476 0.71832 0.85462 0.0
C605 C 0.33184 0.74885 0.86713 0.0
C606 C 0.34281 0.68597 0.87488 0.0
C607 C 0.38795 0.68844 0.81116 0.0
C608 C 0.30945 0.67242 0.88099 0.0
C609 C 0.30439 0.64717 0.90664 0.0
C610 C 0.33255 0.63566 0.92689 0.0
C611 C 0.36621 0.64728 0.91885 0.0
C612 C 0.37128 0.67221 0.89307 0.0
H613 H 0.39548 0.69315 0.78367 0.0
H614 H 0.41188 0.6816 0.82572 0.0
H615 H 0.36983 0.66597 0.81217 0.0
H616 H 0.28712 0.68287 0.8674 0.0
H617 H 0.27811 0.6389 0.9126 0.0
H618 H 0.65446 0.91445 0.27224 0.0
H619 H 0.69807 0.87015 0.28643 0.0
H620 H 0.68557 0.89329 0.3955 0.0
H621 H 0.64274 0.93824 0.38138 0.0
H622 H 0.75843 0.90272 0.33323 0.0
H623 H 0.69845 0.77964 0.37898 0.0
H624 H 0.67846 0.80714 0.34652 0.0
H625 H 0.67711 0.81947 0.39153 0.0
C626 C 0.65996 0.90896 0.29931 0.0
C627 C 0.64539 0.92957 0.32584 0.0
C628 C 0.68489 0.88379 0.30732 0.0
C629 C 0.69478 0.8785 0.34195 0.0
C630 C 0.67784 0.89681 0.36865 0.0
H631 H 0.82639 0.81648 0.4932 0.0
H632 H 0.78157 0.82664 0.4504 0.0
C633 C 0.65345 0.92239 0.36063 0.0
C634 C 0.72709 0.85971 0.35024 0.0
H635 H 0.75683 0.7909 0.39698 0.0
C636 C 0.75851 0.87778 0.34635 0.0
C637 C 0.72669 0.82733 0.36718 0.0
C638 C 0.69344 0.80698 0.37121 0.0
C639 C 0.78914 0.86598 0.36217 0.0
C640 C 0.78831 0.83464 0.38142 0.0
C641 C 0.75745 0.81495 0.38232 0.0
C642 C 0.81643 0.82558 0.40615 0.0
C643 C 0.82106 0.88885 0.36082 0.0
C644 C 0.85119 0.82117 0.39562 0.0
C645 C 0.87745 0.81661 0.42048 0.0
C646 C 0.86919 0.81595 0.45615 0.0
C647 C 0.83408 0.81843 0.46617 0.0
C648 C 0.80817 0.82352 0.44157 0.0
H649 H 0.81544 0.9148 0.34951 0.0
H650 H 0.83198 0.8927 0.38727 0.0
H651 H 0.8412 0.8762 0.34445 0.0
H652 H 0.85808 0.8218 0.36833 0.0
H653 H 0.90417 0.81424 0.41184 0.0
H654 H 0.72324 0.30634 0.97035 0.0
H655 H 0.71223 0.26501 0.9239 0.0
H656 H 0.68553 0.34916 0.85485 0.0
H657 H 0.69565 0.39107 0.90233 0.0
H658 H 0.63542 0.30277 0.85733 0.0
H659 H 0.75627 0.2297 0.83714 0.0
H660 H 0.74812 0.23178 0.88292 0.0
H661 H 0.75582 0.27138 0.85897 0.0
C662 C 0.71539 0.31614 0.94516 0.0
C663 C 0.70945 0.35179 0.94011 0.0
C664 C 0.70979 0.29248 0.91833 0.0
C665 C 0.69861 0.3039 0.88559 0.0
C666 C 0.6945 0.33979 0.87982 0.0
H667 H 0.59285 0.14211 0.76057 0.0
H668 H 0.63675 0.18769 0.76964 0.0
C669 C 0.70016 0.36366 0.90688 0.0
C670 C 0.68549 0.27776 0.86037 0.0
H671 H 0.70166 0.1946 0.83331 0.0
C672 C 0.65033 0.27972 0.85082 0.0
C673 C 0.70488 0.24768 0.85148 0.0
C674 C 0.74348 0.24528 0.85789 0.0
C675 C 0.63319 0.25101 0.83632 0.0
C676 C 0.65163 0.2196 0.83155 0.0
C677 C 0.68752 0.21862 0.83765 0.0
C678 C 0.63253 0.18686 0.8257 0.0
C679 C 0.59473 0.25339 0.82892 0.0
C680 C 0.61703 0.17049 0.85432 0.0
C681 C 0.59199 0.14475 0.84927 0.0
C682 C 0.58225 0.13492 0.81549 0.0
C683 C 0.60016 0.14906 0.78689 0.0
C684 C 0.6251 0.17512 0.79198 0.0
H685 H 0.58538 0.28072 0.82901 0.0
H686 H 0.58869 0.24146 0.80329 0.0
H687 H 0.58015 0.23875 0.84906 0.0
H688 H 0.62248 0.17939 0.88052 0.0
H689 H 0.57854 0.1342 0.87166 0.0
H690 H 0.17493 0.74954 0.56813 0.0
H691 H 0.22026 0.76164 0.61158 0.0
H692 H 0.18796 0.86894 0.61543 0.0
H693 H 0.14343 0.8571 0.57138 0.0
H694 H 0.27035 0.81965 0.58976 0.0
H695 H 0.21158 0.8368 0.72048 0.0
H696 H 0.19343 0.80815 0.68777 0.0
H697 H 0.1869 0.85427 0.68481 0.0
C698 C 0.17672 0.77533 0.5794 0.0
C699 C 0.15577 0.80243 0.56683 0.0
C700 C 0.20259 0.78221 0.60404 0.0
C701 C 0.20717 0.81608 0.61682 0.0
C702 C 0.18439 0.84252 0.60624 0.0
H703 H 0.32069 0.97399 0.6957 0.0
H704 H 0.28146 0.92676 0.68186 0.0
C705 C 0.15902 0.83581 0.58118 0.0
C706 C 0.23913 0.82577 0.63576 0.0
H707 H 0.26586 0.86575 0.71019 0.0
C708 C 0.26992 0.82887 0.61645 0.0
C709 C 0.23817 0.83759 0.67046 0.0
C710 C 0.20584 0.83385 0.69232 0.0
C711 C 0.29879 0.84685 0.62973 0.0
C712 C 0.29697 0.86114 0.66369 0.0
C713 C 0.26724 0.85493 0.68414 0.0
C714 C 0.32194 0.88812 0.67556 0.0
C715 C 0.32951 0.85316 0.60607 0.0
C716 C 0.35799 0.88215 0.67739 0.0
C717 C 0.38091 0.90975 0.68426 0.0
C718 C 0.36798 0.94356 0.68974 0.0
C719 C 0.33175 0.94869 0.69011 0.0
C720 C 0.30913 0.92146 0.68283 0.0
H721 H 0.32434 0.84473 0.5789 0.0
H722 H 0.33649 0.88117 0.6058 0.0
H723 H 0.35227 0.83835 0.61572 0.0
H724 H 0.36845 0.85642 0.67277 0.0
H725 H 0.40863 0.90481 0.68438 0.0
H726 H 0.60343 0.88956 0.18645 0.0
H727 H 0.64984 0.84866 0.1699 0.0
H728 H 0.58934 0.76371 0.2112 0.0
H729 H 0.54411 0.80425 0.22891 0.0
H730 H 0.65924 0.75204 0.21865 0.0
H731 H 0.62642 0.79286 0.08346 0.0
H732 H 0.64365 0.82581 0.11177 0.0
H733 H 0.60153 0.80742 0.12042 0.0
C734 C 0.60064 0.86228 0.19277 0.0
C735 C 0.56977 0.84981 0.20783 0.0
C736 C 0.62701 0.83895 0.18321 0.0
C737 C 0.62255 0.80302 0.18843 0.0
C738 C 0.59326 0.79123 0.20662 0.0
H739 H 0.64198 0.62942 0.06298 0.0
H740 H 0.62786 0.67419 0.10601 0.0
C741 C 0.56721 0.81439 0.21634 0.0
C742 C 0.64473 0.77693 0.17066 0.0
H743 H 0.65905 0.74251 0.09004 0.0
C744 C 0.65998 0.75029 0.1905 0.0
C745 C 0.64522 0.77452 0.1339 0.0
C746 C 0.62819 0.80146 0.11101 0.0
C747 C 0.67394 0.72043 0.17455 0.0
C748 C 0.6727 0.71745 0.13802 0.0
C749 C 0.65961 0.74499 0.11815 0.0
C750 C 0.68145 0.68493 0.11945 0.0
C751 C 0.68792 0.69135 0.19669 0.0
C752 C 0.71617 0.67508 0.11414 0.0
C753 C 0.72424 0.6492 0.08975 0.0
C754 C 0.69765 0.63336 0.07022 0.0
C755 C 0.66284 0.6413 0.07775 0.0
C756 C 0.65482 0.66686 0.10222 0.0
H757 H 0.68532 0.69694 0.22494 0.0
H758 H 0.67392 0.66681 0.19063 0.0
H759 H 0.71583 0.68715 0.1906 0.0
H760 H 0.73704 0.68901 0.12695 0.0
H761 H 0.7513 0.64375 0.08406 0.0
H762 H 0.64135 0.04963 0.62186 0.0
H763 H 0.68592 0.09182 0.60509 0.0
H764 H 0.69494 0.12534 0.71178 0.0
H765 H 0.65 0.08326 0.7287 0.0
H766 H 0.70504 0.18015 0.65442 0.0
H767 H 0.78524 0.06068 0.64367 0.0
H768 H 0.74481 0.05861 0.62035 0.0
H769 H 0.74445 0.06193 0.66697 0.0
C770 C 0.65179 0.06703 0.64145 0.0
C771 C 0.64252 0.0631 0.67654 0.0
C772 C 0.67734 0.09094 0.63192 0.0
C773 C 0.69412 0.11106 0.65735 0.0
C774 C 0.68233 0.10988 0.69186 0.0
H775 H 0.90187 0.17332 0.58728 0.0
H776 H 0.85702 0.15838 0.63052 0.0
C777 C 0.65653 0.08603 0.70142 0.0
C778 C 0.72694 0.12899 0.64843 0.0
H779 H 0.80817 0.11183 0.61728 0.0
C780 C 0.72785 0.16538 0.64679 0.0
C781 C 0.75699 0.10966 0.63964 0.0
C782 C 0.7581 0.07056 0.64303 0.0
C783 C 0.75733 0.1828 0.63395 0.0
C784 C 0.78617 0.16318 0.62194 0.0
C785 C 0.78609 0.12696 0.62623 0.0
C786 C 0.81411 0.17854 0.60016 0.0
C787 C 0.75696 0.22198 0.63264 0.0
C788 C 0.80502 0.19542 0.56921 0.0
C789 C 0.83039 0.20384 0.54479 0.0
C790 C 0.86542 0.19516 0.55049 0.0
C791 C 0.87501 0.18016 0.5823 0.0
C792 C 0.84944 0.17167 0.60692 0.0
H793 H 0.74138 0.23289 0.65445 0.0
H794 H 0.78365 0.23296 0.63385 0.0
H795 H 0.74456 0.23046 0.60804 0.0
H796 H 0.77802 0.20023 0.56286 0.0
H797 H 0.82237 0.21585 0.52063 0.0
H798 H 0.45599 0.15527 0.23009 0.0
H799 H 0.41387 0.19966 0.21356 0.0
H800 H 0.40771 0.1549 0.11058 0.0
H801 H 0.4518 0.11183 0.12673 0.0
H802 H 0.4255 0.21789 0.10596 0.0
H803 H 0.31409 0.21605 0.1964 0.0
H804 H 0.35403 0.21799 0.22022 0.0
H805 H 0.34457 0.18047 0.19364 0.0
C806 C 0.44456 0.15426 0.20435 0.0
C807 C 0.4568 0.13038 0.17958 0.0
C808 C 0.42027 0.17947 0.19496 0.0
C809 C 0.40729 0.1806 0.16086 0.0
C810 C 0.41733 0.15458 0.13705 0.0
H811 H 0.27797 0.3372 0.06643 0.0
H812 H 0.29635 0.28852 0.10295 0.0
C813 C 0.44232 0.12991 0.14621 0.0
C814 C 0.38911 0.21221 0.1483 0.0
H815 H 0.32528 0.27112 0.1675 0.0
C816 C 0.40323 0.22909 0.11921 0.0
C817 C 0.36006 0.22707 0.1655 0.0
C818 C 0.34214 0.20918 0.19543 0.0
C819 C 0.38963 0.26048 0.10712 0.0
C820 C 0.36205 0.27647 0.12556 0.0
C821 C 0.34714 0.25931 0.15411 0.0
C822 C 0.34732 0.30989 0.1136 0.0
C823 C 0.40467 0.27583 0.07422 0.0
C824 C 0.36893 0.33912 0.10977 0.0
C825 C 0.35867 0.36661 0.08848 0.0
C826 C 0.32628 0.36556 0.07189 0.0
C827 C 0.30293 0.33856 0.07944 0.0
C828 C 0.31344 0.31074 0.10018 0.0
H829 H 0.41889 0.25605 0.0586 0.0
H830 H 0.38397 0.28725 0.05768 0.0
H831 H 0.42338 0.2967 0.08113 0.0
H832 H 0.39496 0.33914 0.12051 0.0
H833 H 0.37709 0.38711 0.08261 0.0
H834 H 0.92546 0.64966 0.60034 0.0
H835 H 0.87822 0.63266 0.64 0.0
H836 H 0.9146 0.70813 0.715 0.0
H837 H 0.96027 0.72577 0.67506 0.0
H838 H 0.89378 0.60178 0.69596 0.0
H839 H 0.81485 0.71324 0.73728 0.0
H840 H 0.84146 0.71484 0.69858 0.0
H841 H 0.85954 0.72574 0.74056 0.0
C842 C 0.92206 0.66361 0.62462 0.0
C843 C 0.94623 0.68887 0.63491 0.0
C844 C 0.89524 0.6539 0.64732 0.0
C845 C 0.89258 0.6692 0.68058 0.0
C846 C 0.91519 0.69651 0.68934 0.0
H847 H 0.88711 0.56031 0.86773 0.0
H848 H 0.89776 0.59844 0.81798 0.0
C849 C 0.9416 0.70639 0.66661 0.0
C850 C 0.87228 0.65208 0.70866 0.0
H851 H 0.82727 0.6697 0.78344 0.0
C852 C 0.87838 0.61657 0.71444 0.0
C853 C 0.85177 0.67097 0.73287 0.0
C854 C 0.84127 0.70821 0.72667 0.0
C855 C 0.86714 0.60026 0.74492 0.0
C856 C 0.85023 0.62016 0.77088 0.0
C857 C 0.84134 0.65483 0.76398 0.0
C858 C 0.84327 0.60519 0.80561 0.0
C859 C 0.87456 0.56198 0.74953 0.0
C860 C 0.8091 0.59879 0.81667 0.0
C861 C 0.803 0.57754 0.84555 0.0
C862 C 0.83106 0.56241 0.86342 0.0
C863 C 0.86514 0.57172 0.85433 0.0
C864 C 0.87119 0.59322 0.82581 0.0
H865 H 0.87788 0.54864 0.72407 0.0
H866 H 0.89908 0.55882 0.76439 0.0
H867 H 0.85332 0.54891 0.7641 0.0
H868 H 0.78725 0.60799 0.8015 0.0
H869 H 0.77649 0.57042 0.85192 0.0
H870 H 0.99568 0.31481 0.30741 0.0
H871 H 0.95091 0.32114 0.26378 0.0
H872 H 0.87175 0.31318 0.34301 0.0
H873 H 0.91711 0.30952 0.3878 0.0
H874 H 0.89883 0.2826 0.24088 0.0
H875 H 0.84579 0.40409 0.30027 0.0
H876 H 0.88528 0.38439 0.31581 0.0
H877 H 0.84381 0.36547 0.32629 0.0
C878 C 0.96882 0.31519 0.31591 0.0
C879 C 0.96012 0.31313 0.3514 0.0
C880 C 0.94312 0.3181 0.2907 0.0
C881 C 0.90788 0.31834 0.30005 0.0
C882 C 0.89879 0.31403 0.33523 0.0
H883 H 0.76956 0.41054 0.14534 0.0
H884 H 0.78291 0.36463 0.18751 0.0
C885 C 0.92474 0.31167 0.36077 0.0
C886 C 0.88175 0.3257 0.2726 0.0
H887 H 0.82911 0.39092 0.2437 0.0
C888 C 0.88289 0.30585 0.2418 0.0
C889 C 0.86069 0.35591 0.2738 0.0
C890 C 0.85882 0.3789 0.30565 0.0
C891 C 0.86631 0.31718 0.21137 0.0
C892 C 0.84772 0.34874 0.21196 0.0
C893 C 0.84348 0.36665 0.24351 0.0
C894 C 0.83855 0.36741 0.17971 0.0
C895 C 0.87053 0.29659 0.17824 0.0
C896 C 0.86535 0.38302 0.16043 0.0
C897 C 0.85783 0.40949 0.13685 0.0
C898 C 0.82338 0.42024 0.13188 0.0
C899 C 0.79628 0.40218 0.14845 0.0
C900 C 0.80386 0.3761 0.17257 0.0
H901 H 0.87721 0.26902 0.18363 0.0
H902 H 0.84637 0.29751 0.16245 0.0
H903 H 0.89189 0.3081 0.16261 0.0
H904 H 0.89231 0.37708 0.16602 0.0
H905 H 0.87905 0.42353 0.12474 0.0
H906 H 0.06851 0.37149 0.63799 0.0
H907 H 0.11343 0.3856 0.68065 0.0
H908 H 0.14514 0.27805 0.68286 0.0
H909 H 0.10013 0.2639 0.6398 0.0
H910 H 0.12257 0.30483 0.74731 0.0
H911 H 0.21988 0.39245 0.68819 0.0
H912 H 0.17624 0.40448 0.67687 0.0
H913 H 0.19325 0.36321 0.66265 0.0
C914 C 0.08609 0.3512 0.64648 0.0
C915 C 0.08104 0.3167 0.63568 0.0
C916 C 0.11178 0.35924 0.67079 0.0
C917 C 0.13273 0.33289 0.68481 0.0
C918 C 0.12941 0.29878 0.67214 0.0
H919 H 0.25223 0.42056 0.8583 0.0
H920 H 0.24044 0.3774 0.81267 0.0
C921 C 0.1039 0.29078 0.64743 0.0
C922 C 0.15317 0.34034 0.71659 0.0
H923 H 0.2094 0.40016 0.75014 0.0
C924 C 0.14235 0.32495 0.74787 0.0
C925 C 0.17917 0.36628 0.71731 0.0
C926 C 0.19308 0.38231 0.68437 0.0
C927 C 0.15454 0.33712 0.78007 0.0
C928 C 0.17792 0.36544 0.78088 0.0
C929 C 0.19119 0.37861 0.74951 0.0
C930 C 0.18473 0.38525 0.81323 0.0
C931 C 0.14097 0.32076 0.81298 0.0
C932 C 0.15721 0.40311 0.82934 0.0
C933 C 0.16388 0.42776 0.85517 0.0
C934 C 0.19817 0.43492 0.86541 0.0
C935 C 0.22551 0.41518 0.85117 0.0
C936 C 0.21885 0.39072 0.82499 0.0
H937 H 0.13305 0.29333 0.80848 0.0
H938 H 0.1608 0.32155 0.83396 0.0
H939 H 0.11772 0.33532 0.82198 0.0
H940 H 0.13076 0.39975 0.82025 0.0
H941 H 0.14244 0.44281 0.86562 0.0
H942 H 0.02871 0.69983 0.30349 0.0
H943 H 0.0721 0.69148 0.25868 0.0
H944 H 0.15333 0.69542 0.33596 0.0
H945 H 0.10927 0.70087 0.38191 0.0
H946 H 0.12495 0.72611 0.23386 0.0
H947 H 0.17408 0.60345 0.29321 0.0
H948 H 0.13612 0.62537 0.30971 0.0
H949 H 0.17883 0.64207 0.31904 0.0
C950 C 0.05571 0.69817 0.3113 0.0
C951 C 0.0653 0.69948 0.34659 0.0
C952 C 0.08066 0.69408 0.28541 0.0
C953 C 0.11604 0.69197 0.29387 0.0
C954 C 0.12612 0.69588 0.32884 0.0
H955 H 0.2546 0.59848 0.13894 0.0
H956 H 0.23959 0.64483 0.18029 0.0
C957 C 0.10091 0.69932 0.35506 0.0
C958 C 0.14117 0.68305 0.26582 0.0
H959 H 0.192 0.61615 0.23693 0.0
C960 C 0.14023 0.70243 0.23481 0.0
C961 C 0.16127 0.65218 0.26697 0.0
C962 C 0.16259 0.62936 0.29885 0.0
C963 C 0.15636 0.6903 0.20432 0.0
C964 C 0.1744 0.65845 0.20509 0.0
C965 C 0.17813 0.64071 0.23667 0.0
C966 C 0.18408 0.63961 0.17297 0.0
C967 C 0.15244 0.71045 0.17101 0.0
C968 C 0.15784 0.62253 0.15416 0.0
C969 C 0.16632 0.5958 0.13102 0.0
C970 C 0.20117 0.58625 0.12606 0.0
C971 C 0.22757 0.60588 0.142 0.0
C972 C 0.21905 0.6322 0.16569 0.0
H973 H 0.14479 0.73787 0.17601 0.0
H974 H 0.17709 0.71005 0.15592 0.0
H975 H 0.13198 0.69806 0.15482 0.0
H976 H 0.1307 0.62755 0.15986 0.0
H977 H 0.14562 0.58059 0.1194 0.0
H978 H 0.67858 0.94514 0.74516 0.0
H979 H 0.73189 0.9121 0.73336 0.0
H980 H 0.69679 0.89284 0.62855 0.0
H981 H 0.64425 0.92711 0.63993 0.0
H982 H 0.75546 0.84796 0.70728 0.0
H983 H 0.78124 0.95623 0.61636 0.0
H984 H 0.74552 0.95686 0.64675 0.0
H985 H 0.7416 0.93389 0.60606 0.0
C986 C 0.6817 0.93256 0.7201 0.0
C987 C 0.65758 0.93852 0.69336 0.0
C988 C 0.71219 0.91388 0.71333 0.0
C989 C 0.71864 0.90087 0.67983 0.0
C990 C 0.69256 0.90334 0.65438 0.0
H991 H 0.86965 0.77666 0.58301 0.0
H992 H 0.82838 0.79732 0.62631 0.0
C993 C 0.66243 0.92252 0.66093 0.0
C994 C 0.75411 0.88951 0.66986 0.0
H995 H 0.81805 0.90682 0.61119 0.0
C996 C 0.76943 0.86092 0.6865 0.0
C997 C 0.77299 0.90745 0.64392 0.0
C998 C 0.75969 0.94055 0.62753 0.0
C999 C 0.8023 0.84843 0.67619 0.0
C1000 C 0.81966 0.86442 0.64786 0.0
C1001 C 0.805 0.89424 0.63278 0.0
C1002 C 0.85065 0.84899 0.63041 0.0
C1003 C 0.81789 0.81835 0.69583 0.0
C1004 C 0.87788 0.87058 0.61876 0.0
C1005 C 0.90079 0.85902 0.59292 0.0
C1006 C 0.89747 0.82538 0.57931 0.0
C1007 C 0.87302 0.80253 0.59378 0.0
C1008 C 0.84947 0.81435 0.61877 0.0
H1009 H 0.81053 0.81953 0.72376 0.0
H1010 H 0.80744 0.7936 0.68521 0.0
H1011 H 0.84669 0.81795 0.69383 0.0
H1012 H 0.87949 0.89738 0.62736 0.0
H1013 H 0.91919 0.87714 0.58167 0.0
H1014 H 0.63927 0.36267 0.05356 0.0
H1015 H 0.62678 0.3203 0.09906 0.0
H1016 H 0.73417 0.32315 0.13138 0.0
H1017 H 0.74676 0.36573 0.08571 0.0
H1018 H 0.7111 0.25763 0.10951 0.0
H1019 H 0.61911 0.31303 0.20509 0.0
H1020 H 0.60673 0.32336 0.16135 0.0
H1021 H 0.64711 0.33981 0.17847 0.0
C1022 C 0.65983 0.35532 0.07132 0.0
C1023 C 0.69391 0.36731 0.06615 0.0
C1024 C 0.6527 0.33122 0.0974 0.0
C1025 C 0.67954 0.31866 0.11867 0.0
C1026 C 0.71308 0.33269 0.11537 0.0
H1027 H 0.59608 0.14256 0.23587 0.0
H1028 H 0.63796 0.18947 0.22546 0.0
C1029 C 0.72017 0.35714 0.08944 0.0
C1030 C 0.67345 0.28678 0.13927 0.0
H1031 H 0.61397 0.25073 0.19414 0.0
C1032 C 0.69059 0.25622 0.12886 0.0
C1033 C 0.64703 0.28496 0.16474 0.0
C1034 C 0.6292 0.31715 0.17833 0.0
C1035 C 0.67964 0.22355 0.14076 0.0
C1036 C 0.65077 0.22153 0.16339 0.0
C1037 C 0.63591 0.25228 0.17645 0.0
C1038 C 0.63213 0.18843 0.16953 0.0
C1039 C 0.69786 0.19138 0.12762 0.0
C1040 C 0.61588 0.17163 0.14144 0.0
C1041 C 0.59194 0.145 0.1473 0.0
C1042 C 0.58391 0.13469 0.18136 0.0
C1043 C 0.60215 0.1497 0.20932 0.0
C1044 C 0.62589 0.17663 0.20345 0.0
H1045 H 0.72534 0.19705 0.12066 0.0
H1046 H 0.69731 0.17032 0.14731 0.0
H1047 H 0.68451 0.18191 0.10383 0.0
H1048 H 0.61984 0.18074 0.11509 0.0
H1049 H 0.5781 0.13394 0.12537 0.0
H1050 H 0.3705 0.08248 0.73993 0.0
H1051 H 0.32433 0.12455 0.72685 0.0
H1052 H 0.34014 0.10714 0.61715 0.0
H1053 H 0.38576 0.06478 0.63011 0.0
H1054 H 0.31294 0.18637 0.67753 0.0
H1055 H 0.24164 0.06496 0.64624 0.0
H1056 H 0.28128 0.0654 0.67139 0.0
H1057 H 0.28302 0.06831 0.62477 0.0
C1058 C 0.36517 0.08892 0.71305 0.0
C1059 C 0.38139 0.07039 0.68594 0.0
C1060 C 0.3387 0.11276 0.70564 0.0
C1061 C 0.32852 0.11831 0.6711 0.0
C1062 C 0.34752 0.10285 0.64399 0.0
H1063 H 0.20777 0.23144 0.53892 0.0
H1064 H 0.24748 0.21472 0.58492 0.0
C1065 C 0.37367 0.07889 0.65135 0.0
C1066 C 0.29502 0.1353 0.66311 0.0
H1067 H 0.21748 0.11769 0.62416 0.0
C1068 C 0.29173 0.17144 0.66642 0.0
C1069 C 0.2669 0.11557 0.64995 0.0
C1070 C 0.26812 0.07636 0.64818 0.0
C1071 C 0.26203 0.18867 0.6539 0.0
C1072 C 0.23562 0.16921 0.63703 0.0
C1073 C 0.23772 0.13279 0.63675 0.0
C1074 C 0.20919 0.18561 0.61425 0.0
C1075 C 0.25975 0.2276 0.65801 0.0
C1076 C 0.1741 0.17511 0.61528 0.0
C1077 C 0.15132 0.18416 0.58832 0.0
C1078 C 0.16355 0.20345 0.5599 0.0
C1079 C 0.19787 0.21601 0.56029 0.0
C1080 C 0.22048 0.20697 0.58699 0.0
H1081 H 0.2719 0.23602 0.68285 0.0
H1082 H 0.27433 0.24024 0.63657 0.0
H1083 H 0.23239 0.23683 0.65747 0.0
H1084 H 0.16485 0.15839 0.63595 0.0
H1085 H 0.12489 0.17438 0.58864 0.0
H1086 H 0.27596 0.65106 0.06653 0.0
H1087 H 0.28394 0.70053 0.10621 0.0
H1088 H 0.39466 0.69662 0.08834 0.0
H1089 H 0.38672 0.64785 0.04815 0.0
H1090 H 0.32264 0.7171 0.16577 0.0
H1091 H 0.36688 0.79272 0.0523 0.0
H1092 H 0.3461 0.75082 0.04803 0.0
H1093 H 0.39203 0.75375 0.05685 0.0
C1094 C 0.30208 0.66018 0.07192 0.0
C1095 C 0.33077 0.646 0.05409 0.0
C1096 C 0.30655 0.68853 0.09437 0.0
C1097 C 0.33974 0.70286 0.09925 0.0
C1098 C 0.3687 0.68651 0.08408 0.0
H1099 H 0.45596 0.81479 0.2322 0.0
H1100 H 0.40908 0.77899 0.20985 0.0
C1101 C 0.36424 0.65852 0.06141 0.0
C1102 C 0.34442 0.73627 0.11786 0.0
H1103 H 0.38514 0.81426 0.10851 0.0
C1104 C 0.33569 0.7387 0.15321 0.0
C1105 C 0.35977 0.76515 0.10109 0.0
C1106 C 0.36632 0.76567 0.06237 0.0
C1107 C 0.34547 0.76788 0.17301 0.0
C1108 C 0.36531 0.79456 0.15716 0.0
C1109 C 0.3705 0.79368 0.12103 0.0
C1110 C 0.38671 0.8194 0.17765 0.0
C1111 C 0.33543 0.76921 0.21091 0.0
C1112 C 0.38966 0.85452 0.16772 0.0
C1113 C 0.41722 0.87496 0.1801 0.0
C1114 C 0.44209 0.86037 0.20236 0.0
C1115 C 0.43719 0.82644 0.21476 0.0
C1116 C 0.40997 0.80609 0.20236 0.0
H1117 H 0.30899 0.75818 0.21472 0.0
H1118 H 0.35376 0.75302 0.22616 0.0
H1119 H 0.33586 0.79618 0.2213 0.0
H1120 H 0.37213 0.86534 0.14857 0.0
H1121 H 0.42054 0.90114 0.1703 0.0
H1122 H 0.92076 0.15004 0.40913 0.0
H1123 H 0.88356 0.12884 0.3616 0.0
H1124 H 0.80693 0.20674 0.38786 0.0
H1125 H 0.84454 0.2285 0.43369 0.0
H1126 H 0.82735 0.09886 0.37714 0.0
H1127 H 0.78845 0.20229 0.28759 0.0
H1128 H 0.826 0.20687 0.31541 0.0
H1129 H 0.78322 0.21891 0.33076 0.0
C1130 C 0.89676 0.16359 0.40333 0.0
C1131 C 0.88527 0.19072 0.42483 0.0
C1132 C 0.87543 0.15146 0.37636 0.0
C1133 C 0.84232 0.1662 0.37089 0.0
C1134 C 0.83254 0.19539 0.3906 0.0
H1135 H 0.65536 0.05669 0.37045 0.0
H1136 H 0.70616 0.09411 0.37896 0.0
C1137 C 0.85393 0.20768 0.41712 0.0
C1138 C 0.81514 0.147 0.35113 0.0
H1139 H 0.74164 0.15999 0.30286 0.0
C1140 C 0.8093 0.1121 0.36004 0.0
C1141 C 0.79153 0.16375 0.32836 0.0
C1142 C 0.79798 0.19991 0.31475 0.0
C1143 C 0.77919 0.09461 0.34945 0.0
C1144 C 0.75361 0.11277 0.33034 0.0
C1145 C 0.76074 0.14654 0.31861 0.0
C1146 C 0.71891 0.09723 0.3242 0.0
C1147 C 0.77454 0.05707 0.3599 0.0
C1148 C 0.70779 0.08899 0.29044 0.0
C1149 C 0.6783 0.06816 0.28553 0.0
C1150 C 0.65984 0.05533 0.31437 0.0
C1151 C 0.66925 0.06627 0.34789 0.0
C1152 C 0.69837 0.08735 0.35273 0.0
H1153 H 0.8 0.04418 0.36437 0.0
H1154 H 0.75958 0.0559 0.38457 0.0
H1155 H 0.7601 0.04221 0.33975 0.0
H1156 H 0.72317 0.09661 0.2681 0.0
H1157 H 0.67166 0.05977 0.25945 0.0
H1158 H 0.28116 0.36158 0.92611 0.0
H1159 H 0.29553 0.31623 0.88339 0.0
H1160 H 0.40315 0.32116 0.91455 0.0
H1161 H 0.38904 0.36659 0.95681 0.0
H1162 H 0.39227 0.3088 0.84147 0.0
H1163 H 0.31677 0.21969 0.92729 0.0
H1164 H 0.29474 0.257 0.90982 0.0
H1165 H 0.32891 0.26291 0.94102 0.0
C1166 C 0.30807 0.35388 0.92286 0.0
C1167 C 0.334 0.36726 0.94495 0.0
C1168 C 0.31616 0.32776 0.89873 0.0
C1169 C 0.35025 0.31488 0.8964 0.0
C1170 C 0.37665 0.33062 0.91609 0.0
H1171 H 0.46793 0.13807 0.87952 0.0
H1172 H 0.42582 0.18347 0.89392 0.0
C1173 C 0.36859 0.35655 0.9402 0.0
C1174 C 0.35828 0.28245 0.87714 0.0
H1175 H 0.3524 0.19418 0.88505 0.0
C1176 C 0.38291 0.28371 0.85026 0.0
C1177 C 0.3462 0.2498 0.88907 0.0
C1178 C 0.32033 0.24695 0.91849 0.0
C1179 C 0.39733 0.25315 0.83633 0.0
C1180 C 0.3865 0.22053 0.84947 0.0
C1181 C 0.36038 0.21924 0.8749 0.0
C1182 C 0.40611 0.18835 0.84146 0.0
C1183 C 0.42591 0.25607 0.80954 0.0
C1184 C 0.4076 0.17474 0.80757 0.0
C1185 C 0.43167 0.14868 0.79931 0.0
C1186 C 0.45455 0.13603 0.82486 0.0
C1187 C 0.45077 0.14756 0.85934 0.0
C1188 C 0.42672 0.17346 0.86756 0.0
H1189 H 0.43409 0.28343 0.80523 0.0
H1190 H 0.44899 0.24078 0.81771 0.0
H1191 H 0.41666 0.24529 0.78441 0.0
H1192 H 0.39154 0.18558 0.78718 0.0
H1193 H 0.43413 0.14036 0.77248 0.0
H1194 H 0.16283 0.76032 0.42086 0.0
H1195 H 0.20962 0.77517 0.37986 0.0
H1196 H 0.20241 0.88268 0.41113 0.0
H1197 H 0.15604 0.86801 0.45215 0.0
H1198 H 0.2202 0.83412 0.32401 0.0
H1199 H 0.30144 0.84002 0.44296 0.0
H1200 H 0.26074 0.81656 0.441 0.0
H1201 H 0.26087 0.86297 0.44663 0.0
C1202 C 0.17036 0.78731 0.4179 0.0
C1203 C 0.15617 0.81308 0.43972 0.0
C1204 C 0.19714 0.79567 0.39467 0.0
C1205 C 0.20966 0.82986 0.39306 0.0
C1206 C 0.19316 0.85609 0.41235 0.0
H1207 H 0.32432 0.97677 0.29714 0.0
H1208 H 0.28492 0.92947 0.31099 0.0
C1209 C 0.16667 0.84776 0.43562 0.0
C1210 C 0.24259 0.83801 0.37516 0.0
H1211 H 0.32283 0.87083 0.39322 0.0
C1212 C 0.24302 0.84139 0.33891 0.0
C1213 C 0.27267 0.84628 0.3946 0.0
C1214 C 0.27418 0.84097 0.43344 0.0
C1215 C 0.27179 0.85621 0.32195 0.0
C1216 C 0.30012 0.8686 0.34202 0.0
C1217 C 0.30101 0.86174 0.37781 0.0
C1218 C 0.3253 0.89425 0.32821 0.0
C1219 C 0.27094 0.85979 0.28293 0.0
C1220 C 0.36128 0.8905 0.33364 0.0
C1221 C 0.384 0.91805 0.32633 0.0
C1222 C 0.37085 0.94982 0.31409 0.0
C1223 C 0.33509 0.95284 0.30732 0.0
C1224 C 0.31258 0.92549 0.31451 0.0
H1225 H 0.25696 0.83753 0.27089 0.0
H1226 H 0.2566 0.88382 0.27597 0.0
H1227 H 0.29755 0.86124 0.27174 0.0
H1228 H 0.37159 0.86673 0.34461 0.0
H1229 H 0.41152 0.91503 0.33151 0.0
H1230 H 0.64147 0.63166 0.95068 0.0
H1231 H 0.62745 0.67722 0.90874 0.0
H1232 H 0.73646 0.69006 0.88562 0.0
H1233 H 0.75066 0.64411 0.92754 0.0
H1234 H 0.66272 0.74595 0.9245 0.0
H1235 H 0.67998 0.69769 0.78877 0.0
H1236 H 0.66778 0.66838 0.82335 0.0
H1237 H 0.71079 0.68622 0.82224 0.0
C1238 C 0.6623 0.64332 0.93571 0.0
C1239 C 0.69709 0.63459 0.94236 0.0
C1240 C 0.65432 0.66934 0.91187 0.0
C1241 C 0.68097 0.68703 0.89433 0.0
C1242 C 0.71558 0.67646 0.89875 0.0
H1243 H 0.60416 0.8922 0.82635 0.0
H1244 H 0.6501 0.85068 0.84264 0.0
C1245 C 0.7236 0.65017 0.92255 0.0
C1246 C 0.67242 0.71964 0.87606 0.0
H1247 H 0.65408 0.75284 0.79607 0.0
C1248 C 0.66146 0.7479 0.89638 0.0
C1249 C 0.67124 0.72189 0.8395 0.0
C1250 C 0.68302 0.69204 0.81692 0.0
C1251 C 0.64674 0.7775 0.8812 0.0
C1252 C 0.64354 0.77905 0.84456 0.0
C1253 C 0.65682 0.7517 0.82411 0.0
C1254 C 0.62045 0.80502 0.828 0.0
C1255 C 0.63215 0.80546 0.90471 0.0
C1256 C 0.58966 0.79321 0.8125 0.0
C1257 C 0.56383 0.81665 0.80308 0.0
C1258 C 0.56812 0.85245 0.80912 0.0
C1259 C 0.60009 0.86466 0.82194 0.0
C1260 C 0.62619 0.84101 0.83132 0.0
H1261 H 0.63264 0.79781 0.93255 0.0
H1262 H 0.6478 0.82952 0.90186 0.0
H1263 H 0.60488 0.81155 0.89747 0.0
H1264 H 0.5847 0.76562 0.80951 0.0
H1265 H 0.5398 0.80661 0.79229 0.0
loop_
_geom_bond_atom_site_label_1
_geom_bond_atom_site_label_2
_geom_bond_distance
_geom_bond_site_symmetry_2
_ccdc_geom_bond_type
C0 O1 1.201 . S
C0 C2 1.493 . S
C0 N17 1.318 . S
O1 C0 1.201 . S
C2 C0 1.493 . S
C2 C3 1.381 . S
C2 N7 1.335 1_655 S
C3 C2 1.381 . S
C3 C4 1.411 1_655 S
C3 H49 0.931 . S
C4 C3 1.411 1_455 S
C4 C5 1.384 . S
C4 H50 0.930 . S
C5 C4 1.384 . S
C5 C6 1.376 . S
C5 H51 0.929 . S
C6 C5 1.376 . S
C6 N7 1.330 . S
C6 C21 1.484 . S
N7 C2 1.335 1_455 S
N7 C6 1.330 . S
N7 Co9 1.859 . S
N8 Co9 1.962 . S
N8 C19 1.318 . S
N8 C43 1.421 . S
Co9 N7 1.859 . S
Co9 N8 1.962 . S
Co9 N10 1.859 . S
Co9 N16 1.958 . S
Co9 N17 1.962 1_455 S
Co9 N18 1.958 . S
N10 Co9 1.859 . S
N10 C14 1.330 . S
N10 C15 1.335 . S
C11 C12 1.411 . S
C11 C15 1.381 . S
C11 H52 0.931 . S
C12 C11 1.411 . S
C12 C13 1.384 . S
C12 H53 0.930 . S
C13 C12 1.384 . S
C13 C14 1.376 . S
C13 H54 0.929 . S
C14 N10 1.330 . S
C14 C13 1.376 . S
C14 C29 1.484 . S
C15 N10 1.335 . S
C15 C11 1.381 . S
C15 C19 1.493 . S
N16 Co9 1.958 . S
N16 C29 1.344 . S
N16 C31 1.425 . S
N17 C0 1.318 . S
N17 Co9 1.962 1_655 S
N17 C37 1.421 . S
N18 Co9 1.958 . S
N18 C21 1.344 . S
N18 C23 1.425 . S
C19 N8 1.318 . S
C19 C15 1.493 . S
C19 O20 1.201 . S
O20 C19 1.201 . S
C21 C6 1.484 . S
C21 N18 1.344 . S
C21 O22 1.268 . S
O22 C21 1.268 . S
C23 N18 1.425 . S
C23 C25 1.392 . S
C23 C26 1.368 . S
C24 C25 1.382 . S
C24 C28 1.386 . S
C25 C23 1.392 . S
C25 C24 1.382 . S
C25 H55 0.928 . S
C26 C23 1.368 . S
C26 C27 1.367 . S
C26 H56 0.930 . S
C27 C26 1.367 . S
C27 C28 1.369 . S
C28 C24 1.386 . S
C28 C27 1.369 . S
C28 H57 0.930 . S
C29 C14 1.484 . S
C29 N16 1.344 . S
C29 O30 1.268 . S
O30 C29 1.268 . S
C31 N16 1.425 . S
C31 C32 1.368 . S
C31 C36 1.392 1_455 S
C32 C31 1.368 . S
C32 C33 1.367 . S
C32 H58 0.930 . S
C33 C32 1.367 . S
C33 C34 1.369 . S
C34 C33 1.369 . S
C34 C35 1.386 1_455 S
C34 H59 0.930 . S
C35 C34 1.386 1_655 S
C35 C36 1.382 . S
C36 C31 1.392 1_655 S
C36 C35 1.382 . S
C36 H60 0.928 . S
C37 N17 1.421 . S
C37 C38 1.371 . S
C37 C42 1.385 . S
C38 C37 1.371 . S
C38 C39 1.367 . S
C38 H61 0.931 . S
C39 C38 1.367 . S
C39 C40 1.401 . S
C40 C39 1.401 . S
C40 C41 1.385 . S
C40 H62 0.930 . S
C41 C40 1.385 . S
C41 C42 1.402 . S
C42 C37 1.385 . S
C42 C41 1.402 . S
C42 H63 0.929 . S
C43 N8 1.421 . S
C43 C46 1.385 1_455 S
C43 C47 1.371 . S
C44 C45 1.385 1_455 S
C44 C48 1.401 . S
C44 H64 0.930 . S
C45 C44 1.385 1_655 S
C45 C46 1.402 . S
C46 C43 1.385 1_655 S
C46 C45 1.402 . S
C46 H65 0.929 . S
C47 C43 1.371 . S
C47 C48 1.367 . S
C47 H66 0.931 . S
C48 C44 1.401 . S
C48 C47 1.367 . S
H49 C3 0.931 . S
H50 C4 0.930 . S
H51 C5 0.929 . S
H52 C11 0.931 . S
H53 C12 0.930 . S
H54 C13 0.929 . S
H55 C25 0.928 . S
H56 C26 0.930 . S
H57 C28 0.930 . S
H58 C32 0.930 . S
H59 C34 0.930 . S
H60 C36 0.928 . S
H61 C38 0.931 . S
H62 C40 0.930 . S
H63 C42 0.929 . S
H64 C44 0.930 . S
H65 C46 0.929 . S
H66 C47 0.931 . S
C67 O68 1.201 . S
C67 C69 1.493 . S
C67 N84 1.318 . S
O68 C67 1.201 . S
C69 C67 1.493 . S
C69 C70 1.381 . S
C69 N74 1.335 1_556 S
C70 C69 1.381 . S
C70 C71 1.411 1_556 S
C70 H116 0.931 . S
C71 C70 1.411 1_554 S
C71 C72 1.384 . S
C71 H117 0.930 . S
C72 C71 1.384 . S
C72 C73 1.376 . S
C72 H118 0.929 . S
C73 C72 1.376 . S
C73 N74 1.330 . S
C73 C88 1.484 . S
N74 C69 1.335 1_554 S
N74 C73 1.330 . S
N74 Co76 1.859 . S
N75 Co76 1.962 . S
N75 C86 1.318 . S
N75 C110 1.421 . S
Co76 N74 1.859 . S
Co76 N75 1.962 . S
Co76 N77 1.859 . S
Co76 N83 1.958 . S
Co76 N84 1.962 1_554 S
Co76 N85 1.958 . S
N77 Co76 1.859 . S
N77 C81 1.330 . S
N77 C82 1.335 . S
C78 C79 1.411 . S
C78 C82 1.381 . S
C78 H119 0.931 . S
C79 C78 1.411 . S
C79 C80 1.384 . S
C79 H120 0.930 . S
C80 C79 1.384 . S
C80 C81 1.376 . S
C80 H121 0.929 . S
C81 N77 1.330 . S
C81 C80 1.376 . S
C81 C96 1.484 . S
C82 N77 1.335 . S
C82 C78 1.381 . S
C82 C86 1.493 . S
N83 Co76 1.958 . S
N83 C96 1.344 . S
N83 C98 1.425 . S
N84 C67 1.318 . S
N84 Co76 1.962 1_556 S
N84 C104 1.421 . S
N85 Co76 1.958 . S
N85 C88 1.344 . S
N85 C90 1.425 . S
C86 N75 1.318 . S
C86 C82 1.493 . S
C86 O87 1.201 . S
O87 C86 1.201 . S
C88 C73 1.484 . S
C88 N85 1.344 . S
C88 O89 1.268 . S
O89 C88 1.268 . S
C90 N85 1.425 . S
C90 C92 1.392 . S
C90 C93 1.368 . S
C91 C92 1.382 . S
C91 C95 1.386 . S
C92 C90 1.392 . S
C92 C91 1.382 . S
C92 H122 0.928 . S
C93 C90 1.368 . S
C93 C94 1.367 . S
C93 H123 0.930 . S
C94 C93 1.367 . S
C94 C95 1.369 . S
C95 C91 1.386 . S
C95 C94 1.369 . S
C95 H124 0.930 . S
C96 C81 1.484 . S
C96 N83 1.344 . S
C96 O97 1.268 . S
O97 C96 1.268 . S
C98 N83 1.425 . S
C98 C99 1.368 . S
C98 C103 1.392 1_554 S
C99 C98 1.368 . S
C99 C100 1.367 . S
C99 H125 0.930 . S
C100 C99 1.367 . S
C100 C101 1.369 1_554 S
C101 C100 1.369 1_556 S
C101 C102 1.386 . S
C101 H126 0.930 . S
C102 C101 1.386 . S
C102 C103 1.382 . S
C103 C98 1.392 1_556 S
C103 C102 1.382 . S
C103 H127 0.928 . S
C104 N84 1.421 . S
C104 C105 1.371 . S
C104 C109 1.385 . S
C105 C104 1.371 . S
C105 C106 1.367 . S
C105 H128 0.931 . S
C106 C105 1.367 . S
C106 C107 1.401 . S
C107 C106 1.401 . S
C107 C108 1.385 . S
C107 H129 0.930 . S
C108 C107 1.385 . S
C108 C109 1.402 . S
C109 C104 1.385 . S
C109 C108 1.402 . S
C109 H130 0.929 . S
C110 N75 1.421 . S
C110 C113 1.385 1_554 S
C110 C114 1.371 . S
C111 C112 1.385 1_554 S
C111 C115 1.401 . S
C111 H131 0.930 . S
C112 C111 1.385 1_556 S
C112 C113 1.402 . S
C113 C110 1.385 1_556 S
C113 C112 1.402 . S
C113 H132 0.929 . S
C114 C110 1.371 . S
C114 C115 1.367 . S
C114 H133 0.931 . S
C115 C111 1.401 . S
C115 C114 1.367 . S
H116 C70 0.931 . S
H117 C71 0.930 . S
H118 C72 0.929 . S
H119 C78 0.931 . S
H120 C79 0.930 . S
H121 C80 0.929 . S
H122 C92 0.928 . S
H123 C93 0.930 . S
H124 C95 0.930 . S
H125 C99 0.930 . S
H126 C101 0.930 . S
H127 C103 0.928 . S
H128 C105 0.931 . S
H129 C107 0.930 . S
H130 C109 0.929 . S
H131 C111 0.930 . S
H132 C113 0.929 . S
H133 C114 0.931 . S
C134 O135 1.201 . S
C134 C136 1.493 . S
C134 N151 1.318 . S
O135 C134 1.201 . S
C136 C134 1.493 . S
C136 C137 1.381 . S
C136 N141 1.335 . S
C137 C136 1.381 . S
C137 C138 1.411 . S
C137 H183 0.931 . S
C138 C137 1.411 . S
C138 C139 1.384 1_455 S
C138 H184 0.930 . S
C139 C138 1.384 1_655 S
C139 C140 1.376 . S
C139 H185 0.929 . S
C140 C139 1.376 . S
C140 N141 1.330 1_655 S
C140 C155 1.484 . S
N141 C136 1.335 . S
N141 C140 1.330 1_455 S
N141 Co143 1.859 . S
N142 Co143 1.962 . S
N142 C153 1.318 . S
N142 C177 1.421 . S
Co143 N141 1.859 . S
Co143 N142 1.962 . S
Co143 N144 1.859 . S
Co143 N150 1.958 . S
Co143 N151 1.962 . S
Co143 N152 1.958 1_455 S
N144 Co143 1.859 . S
N144 C148 1.332 . S
N144 C149 1.334 1_455 S
C145 C146 1.411 . S
C145 C149 1.384 . S
C145 H186 0.931 . S
C146 C145 1.411 . S
C146 C147 1.384 . S
C146 H187 0.930 . S
C147 C146 1.384 . S
C147 C148 1.372 1_655 S
C147 H188 0.929 . S
C148 N144 1.332 . S
C148 C147 1.372 1_455 S
C148 C163 1.487 . S
C149 N144 1.334 1_655 S
C149 C145 1.384 . S
C149 C153 1.492 1_655 S
N150 Co143 1.958 . S
N150 C163 1.344 . S
N150 C165 1.425 . S
N151 C134 1.318 . S
N151 Co143 1.962 . S
N151 C171 1.421 . S
N152 Co143 1.958 1_655 S
N152 C155 1.344 . S
N152 C157 1.425 . S
C153 N142 1.318 . S
C153 C149 1.492 1_455 S
C153 O154 1.199 1_455 S
O154 C153 1.199 1_655 S
C155 C140 1.484 . S
C155 N152 1.344 . S
C155 O156 1.268 . S
O156 C155 1.268 . S
C157 N152 1.425 . S
C157 C159 1.392 . S
C157 C160 1.368 . S
C158 C159 1.382 . S
C158 C162 1.386 . S
C159 C157 1.392 . S
C159 C158 1.382 . S
C159 H189 0.928 . S
C160 C157 1.368 . S
C160 C161 1.367 . S
C160 H190 0.930 . S
C161 C160 1.367 . S
C161 C162 1.369 . S
C162 C158 1.386 . S
C162 C161 1.369 . S
C162 H191 0.930 . S
C163 C148 1.487 . S
C163 N150 1.344 . S
C163 O164 1.268 . S
O164 C163 1.268 . S
C165 N150 1.425 . S
C165 C166 1.368 1_455 S
C165 C170 1.392 . S
C166 C165 1.368 1_655 S
C166 C167 1.367 . S
C166 H192 0.930 . S
C167 C166 1.367 . S
C167 C168 1.369 1_655 S
C168 C167 1.369 1_455 S
C168 C169 1.386 . S
C168 H193 0.930 . S
C169 C168 1.386 . S
C169 C170 1.382 . S
C170 C165 1.392 . S
C170 C169 1.382 . S
C170 H194 0.928 . S
C171 N151 1.421 . S
C171 C172 1.371 . S
C171 C176 1.385 . S
C172 C171 1.371 . S
C172 C173 1.367 . S
C172 H195 0.931 . S
C173 C172 1.367 . S
C173 C174 1.401 . S
C174 C173 1.401 . S
C174 C175 1.385 . S
C174 H196 0.930 . S
C175 C174 1.385 . S
C175 C176 1.402 . S
C176 C171 1.385 . S
C176 C175 1.402 . S
C176 H197 0.929 . S
C177 N142 1.421 . S
C177 C180 1.385 . S
C177 C181 1.371 1_455 S
C178 C179 1.385 . S
C178 C182 1.401 1_455 S
C178 H198 0.930 . S
C179 C178 1.385 . S
C179 C180 1.402 . S
C180 C177 1.385 . S
C180 C179 1.402 . S
C180 H199 0.929 . S
C181 C177 1.371 1_655 S
C181 C182 1.367 . S
C181 H200 0.931 . S
C182 C178 1.401 1_655 S
C182 C181 1.367 . S
H183 C137 0.931 . S
H184 C138 0.930 . S
H185 C139 0.929 . S
H186 C145 0.931 . S
H187 C146 0.930 . S
H188 C147 0.929 . S
H189 C159 0.928 . S
H190 C160 0.930 . S
H191 C162 0.930 . S
H192 C166 0.930 . S
H193 C168 0.930 . S
H194 C170 0.928 . S
H195 C172 0.931 . S
H196 C174 0.930 . S
H197 C176 0.929 . S
H198 C178 0.930 . S
H199 C180 0.929 . S
H200 C181 0.931 . S
C201 O202 1.201 . S
C201 C203 1.493 . S
C201 N218 1.318 . S
O202 C201 1.201 . S
C203 C201 1.493 . S
C203 C204 1.381 . S
C203 N208 1.335 1_556 S
C204 C203 1.381 . S
C204 C205 1.411 1_556 S
C204 H250 0.931 . S
C205 C204 1.411 1_554 S
C205 C206 1.384 . S
C205 H251 0.930 . S
C206 C205 1.384 . S
C206 C207 1.376 . S
C206 H252 0.929 . S
C207 C206 1.376 . S
C207 N208 1.330 . S
C207 C222 1.484 . S
N208 C203 1.335 1_554 S
N208 C207 1.330 . S
N208 Co210 1.859 . S
N209 Co210 1.962 . S
N209 C220 1.318 . S
N209 C244 1.421 . S
Co210 N208 1.859 . S
Co210 N209 1.962 . S
Co210 N211 1.859 . S
Co210 N217 1.958 . S
Co210 N218 1.962 1_554 S
Co210 N219 1.958 . S
N211 Co210 1.859 . S
N211 C215 1.330 . S
N211 C216 1.335 . S
C212 C213 1.411 . S
C212 C216 1.381 . S
C212 H253 0.931 . S
C213 C212 1.411 . S
C213 C214 1.384 . S
C213 H254 0.930 . S
C214 C213 1.384 . S
C214 C215 1.376 . S
C214 H255 0.929 . S
C215 N211 1.330 . S
C215 C214 1.376 . S
C215 C230 1.484 . S
C216 N211 1.335 . S
C216 C212 1.381 . S
C216 C220 1.493 . S
N217 Co210 1.958 . S
N217 C230 1.344 . S
N217 C232 1.425 . S
N218 C201 1.318 . S
N218 Co210 1.962 1_556 S
N218 C238 1.421 . S
N219 Co210 1.958 . S
N219 C222 1.344 . S
N219 C224 1.425 . S
C220 N209 1.318 . S
C220 C216 1.493 . S
C220 O221 1.201 . S
O221 C220 1.201 . S
C222 C207 1.484 . S
C222 N219 1.344 . S
C222 O223 1.268 . S
O223 C222 1.268 . S
C224 N219 1.425 . S
C224 C226 1.392 . S
C224 C227 1.368 . S
C225 C226 1.382 . S
C225 C229 1.386 . S
C226 C224 1.392 . S
C226 C225 1.382 . S
C226 H256 0.928 . S
C227 C224 1.368 . S
C227 C228 1.367 . S
C227 H257 0.930 . S
C228 C227 1.367 . S
C228 C229 1.369 . S
C229 C225 1.386 . S
C229 C228 1.369 . S
C229 H258 0.930 . S
C230 C215 1.484 . S
C230 N217 1.344 . S
C230 O231 1.268 . S
O231 C230 1.268 . S
C232 N217 1.425 . S
C232 C233 1.368 . S
C232 C237 1.392 1_554 S
C233 C232 1.368 . S
C233 C234 1.367 . S
C233 H259 0.930 . S
C234 C233 1.367 . S
C234 C235 1.369 1_554 S
C235 C234 1.369 1_556 S
C235 C236 1.386 . S
C235 H260 0.930 . S
C236 C235 1.386 . S
C236 C237 1.382 . S
C237 C232 1.392 1_556 S
C237 C236 1.382 . S
C237 H261 0.928 . S
C238 N218 1.421 . S
C238 C239 1.371 . S
C238 C243 1.385 . S
C239 C238 1.371 . S
C239 C240 1.367 . S
C239 H262 0.931 . S
C240 C239 1.367 . S
C240 C241 1.401 . S
C241 C240 1.401 . S
C241 C242 1.385 . S
C241 H263 0.930 . S
C242 C241 1.385 . S
C242 C243 1.402 . S
C243 C238 1.385 . S
C243 C242 1.402 . S
C243 H264 0.929 . S
C244 N209 1.421 . S
C244 C247 1.385 1_554 S
C244 C248 1.371 . S
C245 C246 1.385 1_554 S
C245 C249 1.401 . S
C245 H265 0.930 . S
C246 C245 1.385 1_556 S
C246 C247 1.402 . S
C247 C244 1.385 1_556 S
C247 C246 1.402 . S
C247 H266 0.929 . S
C248 C244 1.371 . S
C248 C249 1.367 . S
C248 H267 0.931 . S
C249 C245 1.401 . S
C249 C248 1.367 . S
H250 C204 0.931 . S
H251 C205 0.930 . S
H252 C206 0.929 . S
H253 C212 0.931 . S
H254 C213 0.930 . S
H255 C214 0.929 . S
H256 C226 0.928 . S
H257 C227 0.930 . S
H258 C229 0.930 . S
H259 C233 0.930 . S
H260 C235 0.930 . S
H261 C237 0.928 . S
H262 C239 0.931 . S
H263 C241 0.930 . S
H264 C243 0.929 . S
H265 C245 0.930 . S
H266 C247 0.929 . S
H267 C248 0.931 . S
C268 O269 1.201 . S
C268 C270 1.493 . S
C268 N285 1.318 . S
O269 C268 1.201 . S
C270 C268 1.493 . S
C270 C271 1.381 . S
C270 N275 1.335 1_545 S
C271 C270 1.381 . S
C271 C272 1.411 1_545 S
C271 H317 0.931 . S
C272 C271 1.411 1_565 S
C272 C273 1.384 . S
C272 H318 0.930 . S
C273 C272 1.384 . S
C273 C274 1.376 . S
C273 H319 0.929 . S
C274 C273 1.376 . S
C274 N275 1.330 . S
C274 C289 1.484 . S
N275 C270 1.335 1_565 S
N275 C274 1.330 . S
N275 Co277 1.859 . S
N276 Co277 1.962 . S
N276 C287 1.318 . S
N276 C311 1.421 . S
Co277 N275 1.859 . S
Co277 N276 1.962 . S
Co277 N278 1.859 . S
Co277 N284 1.958 . S
Co277 N285 1.962 1_565 S
Co277 N286 1.958 . S
N278 Co277 1.859 . S
N278 C282 1.330 . S
N278 C283 1.335 . S
C279 C280 1.411 . S
C279 C283 1.381 . S
C279 H320 0.931 . S
C280 C279 1.411 . S
C280 C281 1.384 . S
C280 H321 0.930 . S
C281 C280 1.384 . S
C281 C282 1.376 . S
C281 H322 0.929 . S
C282 N278 1.330 . S
C282 C281 1.376 . S
C282 C297 1.484 . S
C283 N278 1.335 . S
C283 C279 1.381 . S
C283 C287 1.493 . S
N284 Co277 1.958 . S
N284 C297 1.344 . S
N284 C299 1.425 . S
N285 C268 1.318 . S
N285 Co277 1.962 1_545 S
N285 C305 1.421 . S
N286 Co277 1.958 . S
N286 C289 1.344 . S
N286 C291 1.425 . S
C287 N276 1.318 . S
C287 C283 1.493 . S
C287 O288 1.201 . S
O288 C287 1.201 . S
C289 C274 1.484 . S
C289 N286 1.344 . S
C289 O290 1.268 . S
O290 C289 1.268 . S
C291 N286 1.425 . S
C291 C293 1.392 . S
C291 C294 1.368 . S
C292 C293 1.382 . S
C292 C296 1.386 . S
C293 C291 1.392 . S
C293 C292 1.382 . S
C293 H323 0.928 . S
C294 C291 1.368 . S
C294 C295 1.367 . S
C294 H324 0.930 . S
C295 C294 1.367 . S
C295 C296 1.369 . S
C296 C292 1.386 . S
C296 C295 1.369 . S
C296 H325 0.930 . S
C297 C282 1.484 . S
C297 N284 1.344 . S
C297 O298 1.268 . S
O298 C297 1.268 . S
C299 N284 1.425 . S
C299 C300 1.377 . S
C299 C304 1.382 1_565 S
C300 C299 1.377 . S
C300 C301 1.367 . S
C300 H326 0.930 . S
C301 C300 1.367 . S
C301 C302 1.369 1_565 S
C302 C301 1.369 1_545 S
C302 C303 1.386 . S
C302 H327 0.930 . S
C303 C302 1.386 . S
C303 C304 1.382 . S
C304 C299 1.382 1_545 S
C304 C303 1.382 . S
C304 H328 0.928 . S
C305 N285 1.421 . S
C305 C306 1.371 . S
C305 C310 1.385 . S
C306 C305 1.371 . S
C306 C307 1.367 . S
C306 H329 0.931 . S
C307 C306 1.367 . S
C307 C308 1.401 . S
C308 C307 1.401 . S
C308 C309 1.385 . S
C308 H330 0.930 . S
C309 C308 1.385 . S
C309 C310 1.402 . S
C310 C305 1.385 . S
C310 C309 1.402 . S
C310 H331 0.929 . S
C311 N276 1.421 . S
C311 C314 1.385 1_565 S
C311 C315 1.371 . S
C312 C313 1.361 1_565 S
C312 C316 1.425 . S
C312 H332 0.930 . S
C313 C312 1.361 1_545 S
C313 C314 1.402 . S
C314 C311 1.385 1_545 S
C314 C313 1.402 . S
C314 H333 0.929 . S
C315 C311 1.371 . S
C315 C316 1.367 . S
C315 H334 0.931 . S
C316 C312 1.425 . S
C316 C315 1.367 . S
H317 C271 0.931 . S
H318 C272 0.930 . S
H319 C273 0.929 . S
H320 C279 0.931 . S
H321 C280 0.930 . S
H322 C281 0.929 . S
H323 C293 0.928 . S
H324 C294 0.930 . S
H325 C296 0.930 . S
H326 C300 0.930 . S
H327 C302 0.930 . S
H328 C304 0.928 . S
H329 C306 0.931 . S
H330 C308 0.930 . S
H331 C310 0.929 . S
H332 C312 0.930 . S
H333 C314 0.929 . S
H334 C315 0.931 . S
C335 O336 1.201 . S
C335 C337 1.493 . S
C335 N352 1.318 . S
O336 C335 1.201 . S
C337 C335 1.493 . S
C337 C338 1.381 . S
C337 N342 1.335 1_565 S
C338 C337 1.381 . S
C338 C339 1.411 1_565 S
C338 H384 0.931 . S
C339 C338 1.411 1_545 S
C339 C340 1.384 . S
C339 H385 0.930 . S
C340 C339 1.384 . S
C340 C341 1.376 . S
C340 H386 0.929 . S
C341 C340 1.376 . S
C341 N342 1.330 . S
C341 C356 1.484 . S
N342 C337 1.335 1_545 S
N342 C341 1.330 . S
N342 Co344 1.859 . S
N343 Co344 1.962 . S
N343 C354 1.318 . S
N343 C378 1.421 . S
Co344 N342 1.859 . S
Co344 N343 1.962 . S
Co344 N345 1.859 . S
Co344 N351 1.958 . S
Co344 N352 1.962 1_545 S
Co344 N353 1.958 . S
N345 Co344 1.859 . S
N345 C349 1.330 . S
N345 C350 1.335 . S
C346 C347 1.411 . S
C346 C350 1.381 . S
C346 H387 0.931 . S
C347 C346 1.411 . S
C347 C348 1.384 . S
C347 H388 0.930 . S
C348 C347 1.384 . S
C348 C349 1.376 . S
C348 H389 0.929 . S
C349 N345 1.330 . S
C349 C348 1.376 . S
C349 C364 1.484 . S
C350 N345 1.335 . S
C350 C346 1.381 . S
C350 C354 1.493 . S
N351 Co344 1.958 . S
N351 C364 1.344 . S
N351 C366 1.425 . S
N352 C335 1.318 . S
N352 Co344 1.962 1_565 S
N352 C372 1.421 . S
N353 Co344 1.958 . S
N353 C356 1.344 . S
N353 C358 1.425 . S
C354 N343 1.318 . S
C354 C350 1.493 . S
C354 O355 1.201 . S
O355 C354 1.201 . S
C356 C341 1.484 . S
C356 N353 1.344 . S
C356 O357 1.268 . S
O357 C356 1.268 . S
C358 N353 1.425 . S
C358 C360 1.392 . S
C358 C361 1.368 . S
C359 C360 1.382 . S
C359 C363 1.386 . S
C360 C358 1.392 . S
C360 C359 1.382 . S
C360 H390 0.928 . S
C361 C358 1.368 . S
C361 C362 1.367 . S
C361 H391 0.930 . S
C362 C361 1.367 . S
C362 C363 1.369 . S
C363 C359 1.386 . S
C363 C362 1.369 . S
C363 H392 0.930 . S
C364 C349 1.484 . S
C364 N351 1.344 . S
C364 O365 1.268 . S
O365 C364 1.268 . S
C366 N351 1.425 . S
C366 C367 1.368 . S
C366 C371 1.392 1_545 S
C367 C366 1.368 . S
C367 C368 1.367 . S
C367 H393 0.930 . S
C368 C367 1.367 . S
C368 C369 1.371 . S
C369 C368 1.371 . S
C369 C370 1.384 1_545 S
C369 H394 0.930 1_545 S
C370 C369 1.384 1_565 S
C370 C371 1.382 . S
C371 C366 1.392 1_565 S
C371 C370 1.382 . S
C371 H395 0.928 . S
C372 N352 1.421 . S
C372 C373 1.371 . S
C372 C377 1.385 . S
C373 C372 1.371 . S
C373 C374 1.367 . S
C373 H396 0.931 . S
C374 C373 1.367 . S
C374 C375 1.401 . S
C375 C374 1.401 . S
C375 C376 1.385 . S
C375 H397 0.930 . S
C376 C375 1.385 . S
C376 C377 1.402 . S
C377 C372 1.385 . S
C377 C376 1.402 . S
C377 H398 0.929 . S
C378 N343 1.421 . S
C378 C381 1.385 1_545 S
C378 C382 1.371 . S
C379 C380 1.385 1_545 S
C379 C383 1.401 . S
C379 H399 0.930 . S
C380 C379 1.385 1_565 S
C380 C381 1.402 . S
C381 C378 1.385 1_565 S
C381 C380 1.402 . S
C381 H400 0.929 . S
C382 C378 1.371 . S
C382 C383 1.367 . S
C382 H401 0.931 . S
C383 C379 1.401 . S
C383 C382 1.367 . S
H384 C338 0.931 . S
H385 C339 0.930 . S
H386 C340 0.929 . S
H387 C346 0.931 . S
H388 C347 0.930 . S
H389 C348 0.929 . S
H390 C360 0.928 . S
H391 C361 0.930 . S
H392 C363 0.930 . S
H393 C367 0.930 . S
H394 C369 0.930 1_565 S
H395 C371 0.928 . S
H396 C373 0.931 . S
H397 C375 0.930 . S
H398 C377 0.929 . S
H399 C379 0.930 . S
H400 C381 0.929 . S
H401 C382 0.931 . S
H402 C410 0.929 . S
H403 C412 0.930 . S
H404 C414 0.930 . S
H405 C417 0.929 . S
H406 C420 0.930 . S
H407 C422 0.960 . S
H408 C422 0.960 . S
H409 C422 0.960 . S
C410 H402 0.929 . S
C410 C411 1.377 . S
C410 C412 1.384 . S
C411 C410 1.377 . S
C411 C417 1.390 . S
C412 H403 0.930 . S
C412 C410 1.384 . S
C412 C413 1.372 . S
C413 C412 1.372 . S
C413 C414 1.400 . S
C413 C418 1.490 . S
C414 H404 0.930 . S
C414 C413 1.400 . S
C414 C417 1.386 . S
H415 C431 0.930 . S
H416 C432 0.931 . S
C417 H405 0.929 . S
C417 C411 1.390 . S
C417 C414 1.386 . S
C418 C413 1.490 . S
C418 C420 1.395 . S
C418 C421 1.403 . S
H419 C425 0.930 . S
C420 H406 0.930 . S
C420 C418 1.395 . S
C420 C423 1.403 . S
C421 C418 1.403 . S
C421 C422 1.524 . S
C421 C425 1.400 . S
C422 H407 0.960 . S
C422 H408 0.960 . S
C422 H409 0.960 . S
C422 C421 1.524 . S
C423 C420 1.403 . S
C423 C424 1.392 . S
C423 C427 1.495 . S
C424 C423 1.392 . S
C424 C425 1.385 . S
C424 C426 1.478 . S
C425 H419 0.930 . S
C425 C421 1.400 . S
C425 C424 1.385 . S
C426 C424 1.478 . S
C426 C428 1.381 . S
C426 C432 1.383 . S
C427 C423 1.495 . S
C427 H433 0.959 . S
C427 H434 0.961 . S
C427 H435 0.960 . S
C428 C426 1.381 . S
C428 C429 1.394 . S
C428 H436 0.930 . S
C429 C428 1.394 . S
C429 C430 1.383 . S
C429 H437 0.929 . S
C430 C429 1.383 . S
C430 C431 1.377 . S
C431 H415 0.930 . S
C431 C430 1.377 . S
C431 C432 1.379 . S
C432 H416 0.931 . S
C432 C426 1.383 . S
C432 C431 1.379 . S
H433 C427 0.959 . S
H434 C427 0.961 . S
H435 C427 0.960 . S
H436 C428 0.930 . S
H437 C429 0.929 . S
H438 C446 0.929 . S
H439 C448 0.930 . S
H440 C450 0.930 . S
H441 C453 0.929 . S
H442 C456 0.930 . S
H443 C458 0.960 . S
H444 C458 0.960 . S
H445 C458 0.960 . S
C446 H438 0.929 . S
C446 C447 1.377 . S
C446 C448 1.384 . S
C447 C446 1.377 . S
C447 C453 1.390 . S
C448 H439 0.930 . S
C448 C446 1.384 . S
C448 C449 1.372 . S
C449 C448 1.372 . S
C449 C450 1.400 . S
C449 C454 1.490 . S
C450 H440 0.930 . S
C450 C449 1.400 . S
C450 C453 1.386 . S
H451 C467 0.930 . S
H452 C468 0.931 . S
C453 H441 0.929 . S
C453 C447 1.390 . S
C453 C450 1.386 . S
C454 C449 1.490 . S
C454 C456 1.395 . S
C454 C457 1.403 . S
H455 C461 0.930 . S
C456 H442 0.930 . S
C456 C454 1.395 . S
C456 C459 1.403 . S
C457 C454 1.403 . S
C457 C458 1.524 . S
C457 C461 1.400 . S
C458 H443 0.960 . S
C458 H444 0.960 . S
C458 H445 0.960 . S
C458 C457 1.524 . S
C459 C456 1.403 . S
C459 C460 1.392 . S
C459 C463 1.495 . S
C460 C459 1.392 . S
C460 C461 1.385 . S
C460 C462 1.478 . S
C461 H455 0.930 . S
C461 C457 1.400 . S
C461 C460 1.385 . S
C462 C460 1.478 . S
C462 C464 1.381 . S
C462 C468 1.383 . S
C463 C459 1.495 . S
C463 H469 0.959 . S
C463 H470 0.961 . S
C463 H471 0.960 . S
C464 C462 1.381 . S
C464 C465 1.394 . S
C464 H472 0.930 . S
C465 C464 1.394 . S
C465 C466 1.383 . S
C465 H473 0.929 . S
C466 C465 1.383 . S
C466 C467 1.377 . S
C467 H451 0.930 . S
C467 C466 1.377 . S
C467 C468 1.379 . S
C468 H452 0.931 . S
C468 C462 1.383 . S
C468 C467 1.379 . S
H469 C463 0.959 . S
H470 C463 0.961 . S
H471 C463 0.960 . S
H472 C464 0.930 . S
H473 C465 0.929 . S
H474 C482 0.929 . S
H475 C484 0.930 . S
H476 C486 0.930 . S
H477 C489 0.929 . S
H478 C492 0.930 . S
H479 C494 0.960 . S
H480 C494 0.960 . S
H481 C494 0.960 . S
C482 H474 0.929 . S
C482 C483 1.377 . S
C482 C484 1.384 . S
C483 C482 1.377 . S
C483 C489 1.390 . S
C484 H475 0.930 . S
C484 C482 1.384 . S
C484 C485 1.372 . S
C485 C484 1.372 . S
C485 C486 1.400 . S
C485 C490 1.490 . S
C486 H476 0.930 . S
C486 C485 1.400 . S
C486 C489 1.386 . S
H487 C503 0.930 . S
H488 C504 0.931 . S
C489 H477 0.929 . S
C489 C483 1.390 . S
C489 C486 1.386 . S
C490 C485 1.490 . S
C490 C492 1.395 . S
C490 C493 1.403 . S
H491 C497 0.930 . S
C492 H478 0.930 . S
C492 C490 1.395 . S
C492 C495 1.403 . S
C493 C490 1.403 . S
C493 C494 1.524 . S
C493 C497 1.400 . S
C494 H479 0.960 . S
C494 H480 0.960 . S
C494 H481 0.960 . S
C494 C493 1.524 . S
C495 C492 1.403 . S
C495 C496 1.392 . S
C495 C499 1.495 . S
C496 C495 1.392 . S
C496 C497 1.385 . S
C496 C498 1.478 . S
C497 H491 0.930 . S
C497 C493 1.400 . S
C497 C496 1.385 . S
C498 C496 1.478 . S
C498 C500 1.381 . S
C498 C504 1.383 . S
C499 C495 1.495 . S
C499 H505 0.959 . S
C499 H506 0.961 . S
C499 H507 0.960 . S
C500 C498 1.381 . S
C500 C501 1.394 . S
C500 H508 0.930 . S
C501 C500 1.394 . S
C501 C502 1.383 . S
C501 H509 0.929 . S
C502 C501 1.383 . S
C502 C503 1.377 . S
C503 H487 0.930 . S
C503 C502 1.377 . S
C503 C504 1.379 . S
C504 H488 0.931 . S
C504 C498 1.383 . S
C504 C503 1.379 . S
H505 C499 0.959 . S
H506 C499 0.961 . S
H507 C499 0.960 . S
H508 C500 0.930 . S
H509 C501 0.929 . S
H510 C518 0.929 . S
H511 C520 0.930 . S
H512 C522 0.930 . S
H513 C525 0.929 . S
H514 C528 0.930 . S
H515 C530 0.960 . S
H516 C530 0.960 . S
H517 C530 0.960 . S
C518 H510 0.929 . S
C518 C519 1.377 . S
C518 C520 1.384 . S
C519 C518 1.377 . S
C519 C525 1.390 . S
C520 H511 0.930 . S
C520 C518 1.384 . S
C520 C521 1.372 . S
C521 C520 1.372 . S
C521 C522 1.400 . S
C521 C526 1.490 . S
C522 H512 0.930 . S
C522 C521 1.400 . S
C522 C525 1.386 . S
H523 C539 0.930 . S
H524 C540 0.931 . S
C525 H513 0.929 . S
C525 C519 1.390 . S
C525 C522 1.386 . S
C526 C521 1.490 . S
C526 C528 1.395 . S
C526 C529 1.403 . S
H527 C533 0.930 . S
C528 H514 0.930 . S
C528 C526 1.395 . S
C528 C531 1.403 . S
C529 C526 1.403 . S
C529 C530 1.524 . S
C529 C533 1.400 . S
C530 H515 0.960 . S
C530 H516 0.960 . S
C530 H517 0.960 . S
C530 C529 1.524 . S
C531 C528 1.403 . S
C531 C532 1.392 . S
C531 C535 1.495 . S
C532 C531 1.392 . S
C532 C533 1.385 . S
C532 C534 1.478 . S
C533 H527 0.930 . S
C533 C529 1.400 . S
C533 C532 1.385 . S
C534 C532 1.478 . S
C534 C536 1.381 . S
C534 C540 1.383 . S
C535 C531 1.495 . S
C535 H541 0.959 . S
C535 H542 0.961 . S
C535 H543 0.960 . S
C536 C534 1.381 . S
C536 C537 1.394 . S
C536 H544 0.930 . S
C537 C536 1.394 . S
C537 C538 1.383 . S
C537 H545 0.929 . S
C538 C537 1.383 . S
C538 C539 1.377 . S
C539 H523 0.930 . S
C539 C538 1.377 . S
C539 C540 1.379 . S
C540 H524 0.931 . S
C540 C534 1.383 . S
C540 C539 1.379 . S
H541 C535 0.959 . S
H542 C535 0.961 . S
H543 C535 0.960 . S
H544 C536 0.930 . S
H545 C537 0.929 . S
H546 C554 0.929 . S
H547 C556 0.930 . S
H548 C558 0.930 . S
H549 C561 0.929 . S
H550 C564 0.930 . S
H551 C566 0.960 . S
H552 C566 0.960 . S
H553 C566 0.960 . S
C554 H546 0.929 . S
C554 C555 1.377 . S
C554 C556 1.384 . S
C555 C554 1.377 . S
C555 C561 1.390 . S
C556 H547 0.930 . S
C556 C554 1.384 . S
C556 C557 1.372 . S
C557 C556 1.372 . S
C557 C558 1.400 . S
C557 C562 1.490 . S
C558 H548 0.930 . S
C558 C557 1.400 . S
C558 C561 1.386 . S
H559 C575 0.930 . S
H560 C576 0.931 . S
C561 H549 0.929 . S
C561 C555 1.390 . S
C561 C558 1.386 . S
C562 C557 1.490 . S
C562 C564 1.395 . S
C562 C565 1.403 . S
H563 C569 0.930 . S
C564 H550 0.930 . S
C564 C562 1.395 . S
C564 C567 1.403 . S
C565 C562 1.403 . S
C565 C566 1.524 . S
C565 C569 1.400 . S
C566 H551 0.960 . S
C566 H552 0.960 . S
C566 H553 0.960 . S
C566 C565 1.524 . S
C567 C564 1.403 . S
C567 C568 1.392 . S
C567 C571 1.495 . S
C568 C567 1.392 . S
C568 C569 1.385 . S
C568 C570 1.478 . S
C569 H563 0.930 . S
C569 C565 1.400 . S
C569 C568 1.385 . S
C570 C568 1.478 . S
C570 C572 1.381 . S
C570 C576 1.383 . S
C571 C567 1.495 . S
C571 H577 0.959 . S
C571 H578 0.961 . S
C571 H579 0.960 . S
C572 C570 1.381 . S
C572 C573 1.394 . S
C572 H580 0.930 . S
C573 C572 1.394 . S
C573 C574 1.383 . S
C573 H581 0.929 . S
C574 C573 1.383 . S
C574 C575 1.377 . S
C575 H559 0.930 . S
C575 C574 1.377 . S
C575 C576 1.379 . S
C576 H560 0.931 . S
C576 C570 1.383 . S
C576 C575 1.379 . S
H577 C571 0.959 . S
H578 C571 0.961 . S
H579 C571 0.960 . S
H580 C572 0.930 . S
H581 C573 0.929 . S
H582 C590 0.929 . S
H583 C592 0.930 . S
H584 C594 0.930 . S
H585 C597 0.929 . S
H586 C600 0.930 . S
H587 C602 0.960 . S
H588 C602 0.960 . S
H589 C602 0.960 . S
C590 H582 0.929 . S
C590 C591 1.377 . S
C590 C592 1.384 . S
C591 C590 1.377 . S
C591 C597 1.390 . S
C592 H583 0.930 . S
C592 C590 1.384 . S
C592 C593 1.372 . S
C593 C592 1.372 . S
C593 C594 1.400 . S
C593 C598 1.490 . S
C594 H584 0.930 . S
C594 C593 1.400 . S
C594 C597 1.386 . S
H595 C611 0.930 . S
H596 C612 0.931 . S
C597 H585 0.929 . S
C597 C591 1.390 . S
C597 C594 1.386 . S
C598 C593 1.490 . S
C598 C600 1.395 . S
C598 C601 1.403 . S
H599 C605 0.930 . S
C600 H586 0.930 . S
C600 C598 1.395 . S
C600 C603 1.403 . S
C601 C598 1.403 . S
C601 C602 1.524 . S
C601 C605 1.400 . S
C602 H587 0.960 . S
C602 H588 0.960 . S
C602 H589 0.960 . S
C602 C601 1.524 . S
C603 C600 1.403 . S
C603 C604 1.392 . S
C603 C607 1.495 . S
C604 C603 1.392 . S
C604 C605 1.385 . S
C604 C606 1.478 . S
C605 H599 0.930 . S
C605 C601 1.400 . S
C605 C604 1.385 . S
C606 C604 1.478 . S
C606 C608 1.381 . S
C606 C612 1.383 . S
C607 C603 1.495 . S
C607 H613 0.959 . S
C607 H614 0.961 . S
C607 H615 0.960 . S
C608 C606 1.381 . S
C608 C609 1.394 . S
C608 H616 0.930 . S
C609 C608 1.394 . S
C609 C610 1.383 . S
C609 H617 0.929 . S
C610 C609 1.383 . S
C610 C611 1.377 . S
C611 H595 0.930 . S
C611 C610 1.377 . S
C611 C612 1.379 . S
C612 H596 0.931 . S
C612 C606 1.383 . S
C612 C611 1.379 . S
H613 C607 0.959 . S
H614 C607 0.961 . S
H615 C607 0.960 . S
H616 C608 0.930 . S
H617 C609 0.929 . S
H618 C626 0.929 . S
H619 C628 0.930 . S
H620 C630 0.930 . S
H621 C633 0.929 . S
H622 C636 0.930 . S
H623 C638 0.960 . S
H624 C638 0.960 . S
H625 C638 0.960 . S
C626 H618 0.929 . S
C626 C627 1.377 . S
C626 C628 1.384 . S
C627 C626 1.377 . S
C627 C633 1.390 . S
C628 H619 0.930 . S
C628 C626 1.384 . S
C628 C629 1.372 . S
C629 C628 1.372 . S
C629 C630 1.400 . S
C629 C634 1.490 . S
C630 H620 0.930 . S
C630 C629 1.400 . S
C630 C633 1.386 . S
H631 C647 0.930 . S
H632 C648 0.931 . S
C633 H621 0.929 . S
C633 C627 1.390 . S
C633 C630 1.386 . S
C634 C629 1.490 . S
C634 C636 1.395 . S
C634 C637 1.403 . S
H635 C641 0.930 . S
C636 H622 0.930 . S
C636 C634 1.395 . S
C636 C639 1.403 . S
C637 C634 1.403 . S
C637 C638 1.524 . S
C637 C641 1.400 . S
C638 H623 0.960 . S
C638 H624 0.960 . S
C638 H625 0.960 . S
C638 C637 1.524 . S
C639 C636 1.403 . S
C639 C640 1.392 . S
C639 C643 1.495 . S
C640 C639 1.392 . S
C640 C641 1.385 . S
C640 C642 1.478 . S
C641 H635 0.930 . S
C641 C637 1.400 . S
C641 C640 1.385 . S
C642 C640 1.478 . S
C642 C644 1.381 . S
C642 C648 1.383 . S
C643 C639 1.495 . S
C643 H649 0.959 . S
C643 H650 0.961 . S
C643 H651 0.960 . S
C644 C642 1.381 . S
C644 C645 1.394 . S
C644 H652 0.930 . S
C645 C644 1.394 . S
C645 C646 1.383 . S
C645 H653 0.929 . S
C646 C645 1.383 . S
C646 C647 1.377 . S
C647 H631 0.930 . S
C647 C646 1.377 . S
C647 C648 1.379 . S
C648 H632 0.931 . S
C648 C642 1.383 . S
C648 C647 1.379 . S
H649 C643 0.959 . S
H650 C643 0.961 . S
H651 C643 0.960 . S
H652 C644 0.930 . S
H653 C645 0.929 . S
H654 C662 0.929 . S
H655 C664 0.930 . S
H656 C666 0.930 . S
H657 C669 0.929 . S
H658 C672 0.930 . S
H659 C674 0.960 . S
H660 C674 0.960 . S
H661 C674 0.960 . S
C662 H654 0.929 . S
C662 C663 1.377 . S
C662 C664 1.384 . S
C663 C662 1.377 . S
C663 C669 1.390 . S
C664 H655 0.930 . S
C664 C662 1.384 . S
C664 C665 1.372 . S
C665 C664 1.372 . S
C665 C666 1.400 . S
C665 C670 1.490 . S
C666 H656 0.930 . S
C666 C665 1.400 . S
C666 C669 1.386 . S
H667 C683 0.930 . S
H668 C684 0.931 . S
C669 H657 0.929 . S
C669 C663 1.390 . S
C669 C666 1.386 . S
C670 C665 1.490 . S
C670 C672 1.395 . S
C670 C673 1.403 . S
H671 C677 0.930 . S
C672 H658 0.930 . S
C672 C670 1.395 . S
C672 C675 1.403 . S
C673 C670 1.403 . S
C673 C674 1.524 . S
C673 C677 1.400 . S
C674 H659 0.960 . S
C674 H660 0.960 . S
C674 H661 0.960 . S
C674 C673 1.524 . S
C675 C672 1.403 . S
C675 C676 1.392 . S
C675 C679 1.495 . S
C676 C675 1.392 . S
C676 C677 1.385 . S
C676 C678 1.478 . S
C677 H671 0.930 . S
C677 C673 1.400 . S
C677 C676 1.385 . S
C678 C676 1.478 . S
C678 C680 1.381 . S
C678 C684 1.383 . S
C679 C675 1.495 . S
C679 H685 0.959 . S
C679 H686 0.961 . S
C679 H687 0.960 . S
C680 C678 1.381 . S
C680 C681 1.394 . S
C680 H688 0.930 . S
C681 C680 1.394 . S
C681 C682 1.383 . S
C681 H689 0.929 . S
C682 C681 1.383 . S
C682 C683 1.377 . S
C683 H667 0.930 . S
C683 C682 1.377 . S
C683 C684 1.379 . S
C684 H668 0.931 . S
C684 C678 1.383 . S
C684 C683 1.379 . S
H685 C679 0.959 . S
H686 C679 0.961 . S
H687 C679 0.960 . S
H688 C680 0.930 . S
H689 C681 0.929 . S
H690 C698 0.929 . S
H691 C700 0.930 . S
H692 C702 0.930 . S
H693 C705 0.929 . S
H694 C708 0.930 . S
H695 C710 0.960 . S
H696 C710 0.960 . S
H697 C710 0.960 . S
C698 H690 0.929 . S
C698 C699 1.377 . S
C698 C700 1.384 . S
C699 C698 1.377 . S
C699 C705 1.390 . S
C700 H691 0.930 . S
C700 C698 1.384 . S
C700 C701 1.372 . S
C701 C700 1.372 . S
C701 C702 1.400 . S
C701 C706 1.490 . S
C702 H692 0.930 . S
C702 C701 1.400 . S
C702 C705 1.386 . S
H703 C719 0.930 . S
H704 C720 0.931 . S
C705 H693 0.929 . S
C705 C699 1.390 . S
C705 C702 1.386 . S
C706 C701 1.490 . S
C706 C708 1.395 . S
C706 C709 1.403 . S
H707 C713 0.930 . S
C708 H694 0.930 . S
C708 C706 1.395 . S
C708 C711 1.403 . S
C709 C706 1.403 . S
C709 C710 1.524 . S
C709 C713 1.400 . S
C710 H695 0.960 . S
C710 H696 0.960 . S
C710 H697 0.960 . S
C710 C709 1.524 . S
C711 C708 1.403 . S
C711 C712 1.392 . S
C711 C715 1.495 . S
C712 C711 1.392 . S
C712 C713 1.385 . S
C712 C714 1.478 . S
C713 H707 0.930 . S
C713 C709 1.400 . S
C713 C712 1.385 . S
C714 C712 1.478 . S
C714 C716 1.381 . S
C714 C720 1.383 . S
C715 C711 1.495 . S
C715 H721 0.959 . S
C715 H722 0.961 . S
C715 H723 0.960 . S
C716 C714 1.381 . S
C716 C717 1.394 . S
C716 H724 0.930 . S
C717 C716 1.394 . S
C717 C718 1.383 . S
C717 H725 0.929 . S
C718 C717 1.383 . S
C718 C719 1.377 . S
C719 H703 0.930 . S
C719 C718 1.377 . S
C719 C720 1.379 . S
C720 H704 0.931 . S
C720 C714 1.383 . S
C720 C719 1.379 . S
H721 C715 0.959 . S
H722 C715 0.961 . S
H723 C715 0.960 . S
H724 C716 0.930 . S
H725 C717 0.929 . S
H726 C734 0.929 . S
H727 C736 0.930 . S
H728 C738 0.930 . S
H729 C741 0.929 . S
H730 C744 0.930 . S
H731 C746 0.960 . S
H732 C746 0.960 . S
H733 C746 0.960 . S
C734 H726 0.929 . S
C734 C735 1.377 . S
C734 C736 1.384 . S
C735 C734 1.377 . S
C735 C741 1.390 . S
C736 H727 0.930 . S
C736 C734 1.384 . S
C736 C737 1.372 . S
C737 C736 1.372 . S
C737 C738 1.400 . S
C737 C742 1.490 . S
C738 H728 0.930 . S
C738 C737 1.400 . S
C738 C741 1.386 . S
H739 C755 0.930 . S
H740 C756 0.931 . S
C741 H729 0.929 . S
C741 C735 1.390 . S
C741 C738 1.386 . S
C742 C737 1.490 . S
C742 C744 1.395 . S
C742 C745 1.403 . S
H743 C749 0.930 . S
C744 H730 0.930 . S
C744 C742 1.395 . S
C744 C747 1.403 . S
C745 C742 1.403 . S
C745 C746 1.524 . S
C745 C749 1.400 . S
C746 H731 0.960 . S
C746 H732 0.960 . S
C746 H733 0.960 . S
C746 C745 1.524 . S
C747 C744 1.403 . S
C747 C748 1.392 . S
C747 C751 1.495 . S
C748 C747 1.392 . S
C748 C749 1.385 . S
C748 C750 1.478 . S
C749 H743 0.930 . S
C749 C745 1.400 . S
C749 C748 1.385 . S
C750 C748 1.478 . S
C750 C752 1.381 . S
C750 C756 1.383 . S
C751 C747 1.495 . S
C751 H757 0.959 . S
C751 H758 0.961 . S
C751 H759 0.960 . S
C752 C750 1.381 . S
C752 C753 1.394 . S
C752 H760 0.930 . S
C753 C752 1.394 . S
C753 C754 1.383 . S
C753 H761 0.929 . S
C754 C753 1.383 . S
C754 C755 1.377 . S
C755 H739 0.930 . S
C755 C754 1.377 . S
C755 C756 1.379 . S
C756 H740 0.931 . S
C756 C750 1.383 . S
C756 C755 1.379 . S
H757 C751 0.959 . S
H758 C751 0.961 . S
H759 C751 0.960 . S
H760 C752 0.930 . S
H761 C753 0.929 . S
H762 C770 0.929 . S
H763 C772 0.930 . S
H764 C774 0.930 . S
H765 C777 0.929 . S
H766 C780 0.930 . S
H767 C782 0.960 . S
H768 C782 0.960 . S
H769 C782 0.960 . S
C770 H762 0.929 . S
C770 C771 1.377 . S
C770 C772 1.384 . S
C771 C770 1.377 . S
C771 C777 1.390 . S
C772 H763 0.930 . S
C772 C770 1.384 . S
C772 C773 1.372 . S
C773 C772 1.372 . S
C773 C774 1.400 . S
C773 C778 1.490 . S
C774 H764 0.930 . S
C774 C773 1.400 . S
C774 C777 1.386 . S
H775 C791 0.930 . S
H776 C792 0.931 . S
C777 H765 0.929 . S
C777 C771 1.390 . S
C777 C774 1.386 . S
C778 C773 1.490 . S
C778 C780 1.395 . S
C778 C781 1.403 . S
H779 C785 0.930 . S
C780 H766 0.930 . S
C780 C778 1.395 . S
C780 C783 1.403 . S
C781 C778 1.403 . S
C781 C782 1.524 . S
C781 C785 1.400 . S
C782 H767 0.960 . S
C782 H768 0.960 . S
C782 H769 0.960 . S
C782 C781 1.524 . S
C783 C780 1.403 . S
C783 C784 1.392 . S
C783 C787 1.495 . S
C784 C783 1.392 . S
C784 C785 1.385 . S
C784 C786 1.478 . S
C785 H779 0.930 . S
C785 C781 1.400 . S
C785 C784 1.385 . S
C786 C784 1.478 . S
C786 C788 1.381 . S
C786 C792 1.383 . S
C787 C783 1.495 . S
C787 H793 0.959 . S
C787 H794 0.961 . S
C787 H795 0.960 . S
C788 C786 1.381 . S
C788 C789 1.394 . S
C788 H796 0.930 . S
C789 C788 1.394 . S
C789 C790 1.383 . S
C789 H797 0.929 . S
C790 C789 1.383 . S
C790 C791 1.377 . S
C791 H775 0.930 . S
C791 C790 1.377 . S
C791 C792 1.379 . S
C792 H776 0.931 . S
C792 C786 1.383 . S
C792 C791 1.379 . S
H793 C787 0.959 . S
H794 C787 0.961 . S
H795 C787 0.960 . S
H796 C788 0.930 . S
H797 C789 0.929 . S
H798 C806 0.929 . S
H799 C808 0.930 . S
H800 C810 0.930 . S
H801 C813 0.929 . S
H802 C816 0.930 . S
H803 C818 0.960 . S
H804 C818 0.960 . S
H805 C818 0.960 . S
C806 H798 0.929 . S
C806 C807 1.377 . S
C806 C808 1.384 . S
C807 C806 1.377 . S
C807 C813 1.390 . S
C808 H799 0.930 . S
C808 C806 1.384 . S
C808 C809 1.372 . S
C809 C808 1.372 . S
C809 C810 1.400 . S
C809 C814 1.490 . S
C810 H800 0.930 . S
C810 C809 1.400 . S
C810 C813 1.386 . S
H811 C827 0.930 . S
H812 C828 0.931 . S
C813 H801 0.929 . S
C813 C807 1.390 . S
C813 C810 1.386 . S
C814 C809 1.490 . S
C814 C816 1.395 . S
C814 C817 1.403 . S
H815 C821 0.930 . S
C816 H802 0.930 . S
C816 C814 1.395 . S
C816 C819 1.403 . S
C817 C814 1.403 . S
C817 C818 1.524 . S
C817 C821 1.400 . S
C818 H803 0.960 . S
C818 H804 0.960 . S
C818 H805 0.960 . S
C818 C817 1.524 . S
C819 C816 1.403 . S
C819 C820 1.392 . S
C819 C823 1.495 . S
C820 C819 1.392 . S
C820 C821 1.385 . S
C820 C822 1.478 . S
C821 H815 0.930 . S
C821 C817 1.400 . S
C821 C820 1.385 . S
C822 C820 1.478 . S
C822 C824 1.381 . S
C822 C828 1.383 . S
C823 C819 1.495 . S
C823 H829 0.959 . S
C823 H830 0.961 . S
C823 H831 0.960 . S
C824 C822 1.381 . S
C824 C825 1.394 . S
C824 H832 0.930 . S
C825 C824 1.394 . S
C825 C826 1.383 . S
C825 H833 0.929 . S
C826 C825 1.383 . S
C826 C827 1.377 . S
C827 H811 0.930 . S
C827 C826 1.377 . S
C827 C828 1.379 . S
C828 H812 0.931 . S
C828 C822 1.383 . S
C828 C827 1.379 . S
H829 C823 0.959 . S
H830 C823 0.961 . S
H831 C823 0.960 . S
H832 C824 0.930 . S
H833 C825 0.929 . S
H834 C842 0.929 . S
H835 C844 0.930 . S
H836 C846 0.930 . S
H837 C849 0.929 . S
H838 C852 0.930 . S
H839 C854 0.960 . S
H840 C854 0.960 . S
H841 C854 0.960 . S
C842 H834 0.929 . S
C842 C843 1.377 . S
C842 C844 1.384 . S
C843 C842 1.377 . S
C843 C849 1.390 . S
C844 H835 0.930 . S
C844 C842 1.384 . S
C844 C845 1.372 . S
C845 C844 1.372 . S
C845 C846 1.400 . S
C845 C850 1.490 . S
C846 H836 0.930 . S
C846 C845 1.400 . S
C846 C849 1.386 . S
H847 C863 0.930 . S
H848 C864 0.931 . S
C849 H837 0.929 . S
C849 C843 1.390 . S
C849 C846 1.386 . S
C850 C845 1.490 . S
C850 C852 1.395 . S
C850 C853 1.403 . S
H851 C857 0.930 . S
C852 H838 0.930 . S
C852 C850 1.395 . S
C852 C855 1.403 . S
C853 C850 1.403 . S
C853 C854 1.524 . S
C853 C857 1.400 . S
C854 H839 0.960 . S
C854 H840 0.960 . S
C854 H841 0.960 . S
C854 C853 1.524 . S
C855 C852 1.403 . S
C855 C856 1.392 . S
C855 C859 1.495 . S
C856 C855 1.392 . S
C856 C857 1.385 . S
C856 C858 1.478 . S
C857 H851 0.930 . S
C857 C853 1.400 . S
C857 C856 1.385 . S
C858 C856 1.478 . S
C858 C860 1.381 . S
C858 C864 1.383 . S
C859 C855 1.495 . S
C859 H865 0.959 . S
C859 H866 0.961 . S
C859 H867 0.960 . S
C860 C858 1.381 . S
C860 C861 1.394 . S
C860 H868 0.930 . S
C861 C860 1.394 . S
C861 C862 1.383 . S
C861 H869 0.929 . S
C862 C861 1.383 . S
C862 C863 1.377 . S
C863 H847 0.930 . S
C863 C862 1.377 . S
C863 C864 1.379 . S
C864 H848 0.931 . S
C864 C858 1.383 . S
C864 C863 1.379 . S
H865 C859 0.959 . S
H866 C859 0.961 . S
H867 C859 0.960 . S
H868 C860 0.930 . S
H869 C861 0.929 . S
H870 C878 0.929 1_455 S
H871 C880 0.930 . S
H872 C882 0.930 . S
H873 C885 0.929 . S
H874 C888 0.930 . S
H875 C890 0.960 . S
H876 C890 0.960 . S
H877 C890 0.960 . S
C878 H870 0.929 1_655 S
C878 C879 1.377 . S
C878 C880 1.384 . S
C879 C878 1.377 . S
C879 C885 1.390 . S
C880 H871 0.930 . S
C880 C878 1.384 . S
C880 C881 1.372 . S
C881 C880 1.372 . S
C881 C882 1.400 . S
C881 C886 1.490 . S
C882 H872 0.930 . S
C882 C881 1.400 . S
C882 C885 1.386 . S
H883 C899 0.930 . S
H884 C900 0.931 . S
C885 H873 0.929 . S
C885 C879 1.390 . S
C885 C882 1.386 . S
C886 C881 1.490 . S
C886 C888 1.395 . S
C886 C889 1.403 . S
H887 C893 0.930 . S
C888 H874 0.930 . S
C888 C886 1.395 . S
C888 C891 1.403 . S
C889 C886 1.403 . S
C889 C890 1.524 . S
C889 C893 1.400 . S
C890 H875 0.960 . S
C890 H876 0.960 . S
C890 H877 0.960 . S
C890 C889 1.524 . S
C891 C888 1.403 . S
C891 C892 1.392 . S
C891 C895 1.495 . S
C892 C891 1.392 . S
C892 C893 1.385 . S
C892 C894 1.478 . S
C893 H887 0.930 . S
C893 C889 1.400 . S
C893 C892 1.385 . S
C894 C892 1.478 . S
C894 C896 1.381 . S
C894 C900 1.383 . S
C895 C891 1.495 . S
C895 H901 0.959 . S
C895 H902 0.961 . S
C895 H903 0.960 . S
C896 C894 1.381 . S
C896 C897 1.394 . S
C896 H904 0.930 . S
C897 C896 1.394 . S
C897 C898 1.383 . S
C897 H905 0.929 . S
C898 C897 1.383 . S
C898 C899 1.377 . S
C899 H883 0.930 . S
C899 C898 1.377 . S
C899 C900 1.379 . S
C900 H884 0.931 . S
C900 C894 1.383 . S
C900 C899 1.379 . S
H901 C895 0.959 . S
H902 C895 0.961 . S
H903 C895 0.960 . S
H904 C896 0.930 . S
H905 C897 0.929 . S
H906 C914 0.929 . S
H907 C916 0.930 . S
H908 C918 0.930 . S
H909 C921 0.929 . S
H910 C924 0.930 . S
H911 C926 0.960 . S
H912 C926 0.960 . S
H913 C926 0.960 . S
C914 H906 0.929 . S
C914 C915 1.377 . S
C914 C916 1.384 . S
C915 C914 1.377 . S
C915 C921 1.390 . S
C916 H907 0.930 . S
C916 C914 1.384 . S
C916 C917 1.372 . S
C917 C916 1.372 . S
C917 C918 1.400 . S
C917 C922 1.490 . S
C918 H908 0.930 . S
C918 C917 1.400 . S
C918 C921 1.386 . S
H919 C935 0.930 . S
H920 C936 0.931 . S
C921 H909 0.929 . S
C921 C915 1.390 . S
C921 C918 1.386 . S
C922 C917 1.490 . S
C922 C924 1.395 . S
C922 C925 1.403 . S
H923 C929 0.930 . S
C924 H910 0.930 . S
C924 C922 1.395 . S
C924 C927 1.403 . S
C925 C922 1.403 . S
C925 C926 1.524 . S
C925 C929 1.400 . S
C926 H911 0.960 . S
C926 H912 0.960 . S
C926 H913 0.960 . S
C926 C925 1.524 . S
C927 C924 1.403 . S
C927 C928 1.392 . S
C927 C931 1.495 . S
C928 C927 1.392 . S
C928 C929 1.385 . S
C928 C930 1.478 . S
C929 H923 0.930 . S
C929 C925 1.400 . S
C929 C928 1.385 . S
C930 C928 1.478 . S
C930 C932 1.381 . S
C930 C936 1.383 . S
C931 C927 1.495 . S
C931 H937 0.959 . S
C931 H938 0.961 . S
C931 H939 0.960 . S
C932 C930 1.381 . S
C932 C933 1.394 . S
C932 H940 0.930 . S
C933 C932 1.394 . S
C933 C934 1.383 . S
C933 H941 0.929 . S
C934 C933 1.383 . S
C934 C935 1.377 . S
C935 H919 0.930 . S
C935 C934 1.377 . S
C935 C936 1.379 . S
C936 H920 0.931 . S
C936 C930 1.383 . S
C936 C935 1.379 . S
H937 C931 0.959 . S
H938 C931 0.961 . S
H939 C931 0.960 . S
H940 C932 0.930 . S
H941 C933 0.929 . S
H942 C950 0.929 . S
H943 C952 0.930 . S
H944 C954 0.930 . S
H945 C957 0.929 . S
H946 C960 0.930 . S
H947 C962 0.960 . S
H948 C962 0.960 . S
H949 C962 0.960 . S
C950 H942 0.929 . S
C950 C951 1.377 . S
C950 C952 1.384 . S
C951 C950 1.377 . S
C951 C957 1.390 . S
C952 H943 0.930 . S
C952 C950 1.384 . S
C952 C953 1.372 . S
C953 C952 1.372 . S
C953 C954 1.400 . S
C953 C958 1.490 . S
C954 H944 0.930 . S
C954 C953 1.400 . S
C954 C957 1.386 . S
H955 C971 0.930 . S
H956 C972 0.931 . S
C957 H945 0.929 . S
C957 C951 1.390 . S
C957 C954 1.386 . S
C958 C953 1.490 . S
C958 C960 1.395 . S
C958 C961 1.403 . S
H959 C965 0.930 . S
C960 H946 0.930 . S
C960 C958 1.395 . S
C960 C963 1.403 . S
C961 C958 1.403 . S
C961 C962 1.524 . S
C961 C965 1.400 . S
C962 H947 0.960 . S
C962 H948 0.960 . S
C962 H949 0.960 . S
C962 C961 1.524 . S
C963 C960 1.403 . S
C963 C964 1.392 . S
C963 C967 1.495 . S
C964 C963 1.392 . S
C964 C965 1.385 . S
C964 C966 1.478 . S
C965 H959 0.930 . S
C965 C961 1.400 . S
C965 C964 1.385 . S
C966 C964 1.478 . S
C966 C968 1.381 . S
C966 C972 1.383 . S
C967 C963 1.495 . S
C967 H973 0.959 . S
C967 H974 0.961 . S
C967 H975 0.960 . S
C968 C966 1.381 . S
C968 C969 1.394 . S
C968 H976 0.930 . S
C969 C968 1.394 . S
C969 C970 1.383 . S
C969 H977 0.929 . S
C970 C969 1.383 . S
C970 C971 1.377 . S
C971 H955 0.930 . S
C971 C970 1.377 . S
C971 C972 1.379 . S
C972 H956 0.931 . S
C972 C966 1.383 . S
C972 C971 1.379 . S
H973 C967 0.959 . S
H974 C967 0.961 . S
H975 C967 0.960 . S
H976 C968 0.930 . S
H977 C969 0.929 . S
H978 C986 0.929 . S
H979 C988 0.930 . S
H980 C990 0.930 . S
H981 C993 0.929 . S
H982 C996 0.930 . S
H983 C998 0.960 . S
H984 C998 0.960 . S
H985 C998 0.960 . S
C986 H978 0.929 . S
C986 C987 1.377 . S
C986 C988 1.384 . S
C987 C986 1.377 . S
C987 C993 1.390 . S
C988 H979 0.930 . S
C988 C986 1.384 . S
C988 C989 1.372 . S
C989 C988 1.372 . S
C989 C990 1.400 . S
C989 C994 1.490 . S
C990 H980 0.930 . S
C990 C989 1.400 . S
C990 C993 1.386 . S
H991 C1007 0.930 . S
H992 C1008 0.931 . S
C993 H981 0.929 . S
C993 C987 1.390 . S
C993 C990 1.386 . S
C994 C989 1.490 . S
C994 C996 1.395 . S
C994 C997 1.403 . S
H995 C1001 0.930 . S
C996 H982 0.930 . S
C996 C994 1.395 . S
C996 C999 1.403 . S
C997 C994 1.403 . S
C997 C998 1.524 . S
C997 C1001 1.400 . S
C998 H983 0.960 . S
C998 H984 0.960 . S
C998 H985 0.960 . S
C998 C997 1.524 . S
C999 C996 1.403 . S
C999 C1000 1.392 . S
C999 C1003 1.495 . S
C1000 C999 1.392 . S
C1000 C1001 1.385 . S
C1000 C1002 1.478 . S
C1001 H995 0.930 . S
C1001 C997 1.400 . S
C1001 C1000 1.385 . S
C1002 C1000 1.478 . S
C1002 C1004 1.381 . S
C1002 C1008 1.383 . S
C1003 C999 1.495 . S
C1003 H1009 0.959 . S
C1003 H1010 0.961 . S
C1003 H1011 0.960 . S
C1004 C1002 1.381 . S
C1004 C1005 1.394 . S
C1004 H1012 0.930 . S
C1005 C1004 1.394 . S
C1005 C1006 1.383 . S
C1005 H1013 0.929 . S
C1006 C1005 1.383 . S
C1006 C1007 1.377 . S
C1007 H991 0.930 . S
C1007 C1006 1.377 . S
C1007 C1008 1.379 . S
C1008 H992 0.931 . S
C1008 C1002 1.383 . S
C1008 C1007 1.379 . S
H1009 C1003 0.959 . S
H1010 C1003 0.961 . S
H1011 C1003 0.960 . S
H1012 C1004 0.930 . S
H1013 C1005 0.929 . S
H1014 C1022 0.929 . S
H1015 C1024 0.930 . S
H1016 C1026 0.930 . S
H1017 C1029 0.929 . S
H1018 C1032 0.930 . S
H1019 C1034 0.960 . S
H1020 C1034 0.960 . S
H1021 C1034 0.960 . S
C1022 H1014 0.929 . S
C1022 C1023 1.377 . S
C1022 C1024 1.384 . S
C1023 C1022 1.377 . S
C1023 C1029 1.390 . S
C1024 H1015 0.930 . S
C1024 C1022 1.384 . S
C1024 C1025 1.372 . S
C1025 C1024 1.372 . S
C1025 C1026 1.400 . S
C1025 C1030 1.490 . S
C1026 H1016 0.930 . S
C1026 C1025 1.400 . S
C1026 C1029 1.386 . S
H1027 C1043 0.930 . S
H1028 C1044 0.931 . S
C1029 H1017 0.929 . S
C1029 C1023 1.390 . S
C1029 C1026 1.386 . S
C1030 C1025 1.490 . S
C1030 C1032 1.395 . S
C1030 C1033 1.403 . S
H1031 C1037 0.930 . S
C1032 H1018 0.930 . S
C1032 C1030 1.395 . S
C1032 C1035 1.403 . S
C1033 C1030 1.403 . S
C1033 C1034 1.524 . S
C1033 C1037 1.400 . S
C1034 H1019 0.960 . S
C1034 H1020 0.960 . S
C1034 H1021 0.960 . S
C1034 C1033 1.524 . S
C1035 C1032 1.403 . S
C1035 C1036 1.392 . S
C1035 C1039 1.495 . S
C1036 C1035 1.392 . S
C1036 C1037 1.385 . S
C1036 C1038 1.478 . S
C1037 H1031 0.930 . S
C1037 C1033 1.400 . S
C1037 C1036 1.385 . S
C1038 C1036 1.478 . S
C1038 C1040 1.381 . S
C1038 C1044 1.383 . S
C1039 C1035 1.495 . S
C1039 H1045 0.959 . S
C1039 H1046 0.961 . S
C1039 H1047 0.960 . S
C1040 C1038 1.381 . S
C1040 C1041 1.394 . S
C1040 H1048 0.930 . S
C1041 C1040 1.394 . S
C1041 C1042 1.383 . S
C1041 H1049 0.929 . S
C1042 C1041 1.383 . S
C1042 C1043 1.377 . S
C1043 H1027 0.930 . S
C1043 C1042 1.377 . S
C1043 C1044 1.379 . S
C1044 H1028 0.931 . S
C1044 C1038 1.383 . S
C1044 C1043 1.379 . S
H1045 C1039 0.959 . S
H1046 C1039 0.961 . S
H1047 C1039 0.960 . S
H1048 C1040 0.930 . S
H1049 C1041 0.929 . S
H1050 C1058 0.929 . S
H1051 C1060 0.930 . S
H1052 C1062 0.930 . S
H1053 C1065 0.929 . S
H1054 C1068 0.930 . S
H1055 C1070 0.960 . S
H1056 C1070 0.960 . S
H1057 C1070 0.960 . S
C1058 H1050 0.929 . S
C1058 C1059 1.377 . S
C1058 C1060 1.384 . S
C1059 C1058 1.377 . S
C1059 C1065 1.390 . S
C1060 H1051 0.930 . S
C1060 C1058 1.384 . S
C1060 C1061 1.372 . S
C1061 C1060 1.372 . S
C1061 C1062 1.400 . S
C1061 C1066 1.490 . S
C1062 H1052 0.930 . S
C1062 C1061 1.400 . S
C1062 C1065 1.386 . S
H1063 C1079 0.930 . S
H1064 C1080 0.931 . S
C1065 H1053 0.929 . S
C1065 C1059 1.390 . S
C1065 C1062 1.386 . S
C1066 C1061 1.490 . S
C1066 C1068 1.395 . S
C1066 C1069 1.403 . S
H1067 C1073 0.930 . S
C1068 H1054 0.930 . S
C1068 C1066 1.395 . S
C1068 C1071 1.403 . S
C1069 C1066 1.403 . S
C1069 C1070 1.524 . S
C1069 C1073 1.400 . S
C1070 H1055 0.960 . S
C1070 H1056 0.960 . S
C1070 H1057 0.960 . S
C1070 C1069 1.524 . S
C1071 C1068 1.403 . S
C1071 C1072 1.392 . S
C1071 C1075 1.495 . S
C1072 C1071 1.392 . S
C1072 C1073 1.385 . S
C1072 C1074 1.478 . S
C1073 H1067 0.930 . S
C1073 C1069 1.400 . S
C1073 C1072 1.385 . S
C1074 C1072 1.478 . S
C1074 C1076 1.381 . S
C1074 C1080 1.383 . S
C1075 C1071 1.495 . S
C1075 H1081 0.959 . S
C1075 H1082 0.961 . S
C1075 H1083 0.960 . S
C1076 C1074 1.381 . S
C1076 C1077 1.394 . S
C1076 H1084 0.930 . S
C1077 C1076 1.394 . S
C1077 C1078 1.383 . S
C1077 H1085 0.929 . S
C1078 C1077 1.383 . S
C1078 C1079 1.377 . S
C1079 H1063 0.930 . S
C1079 C1078 1.377 . S
C1079 C1080 1.379 . S
C1080 H1064 0.931 . S
C1080 C1074 1.383 . S
C1080 C1079 1.379 . S
H1081 C1075 0.959 . S
H1082 C1075 0.961 . S
H1083 C1075 0.960 . S
H1084 C1076 0.930 . S
H1085 C1077 0.929 . S
H1086 C1094 0.929 . S
H1087 C1096 0.930 . S
H1088 C1098 0.930 . S
H1089 C1101 0.929 . S
H1090 C1104 0.930 . S
H1091 C1106 0.960 . S
H1092 C1106 0.960 . S
H1093 C1106 0.960 . S
C1094 H1086 0.929 . S
C1094 C1095 1.377 . S
C1094 C1096 1.384 . S
C1095 C1094 1.377 . S
C1095 C1101 1.390 . S
C1096 H1087 0.930 . S
C1096 C1094 1.384 . S
C1096 C1097 1.372 . S
C1097 C1096 1.372 . S
C1097 C1098 1.400 . S
C1097 C1102 1.490 . S
C1098 H1088 0.930 . S
C1098 C1097 1.400 . S
C1098 C1101 1.386 . S
H1099 C1115 0.930 . S
H1100 C1116 0.931 . S
C1101 H1089 0.929 . S
C1101 C1095 1.390 . S
C1101 C1098 1.386 . S
C1102 C1097 1.490 . S
C1102 C1104 1.395 . S
C1102 C1105 1.403 . S
H1103 C1109 0.930 . S
C1104 H1090 0.930 . S
C1104 C1102 1.395 . S
C1104 C1107 1.403 . S
C1105 C1102 1.403 . S
C1105 C1106 1.524 . S
C1105 C1109 1.400 . S
C1106 H1091 0.960 . S
C1106 H1092 0.960 . S
C1106 H1093 0.960 . S
C1106 C1105 1.524 . S
C1107 C1104 1.403 . S
C1107 C1108 1.392 . S
C1107 C1111 1.495 . S
C1108 C1107 1.392 . S
C1108 C1109 1.385 . S
C1108 C1110 1.478 . S
C1109 H1103 0.930 . S
C1109 C1105 1.400 . S
C1109 C1108 1.385 . S
C1110 C1108 1.478 . S
C1110 C1112 1.381 . S
C1110 C1116 1.383 . S
C1111 C1107 1.495 . S
C1111 H1117 0.959 . S
C1111 H1118 0.961 . S
C1111 H1119 0.960 . S
C1112 C1110 1.381 . S
C1112 C1113 1.394 . S
C1112 H1120 0.930 . S
C1113 C1112 1.394 . S
C1113 C1114 1.383 . S
C1113 H1121 0.929 . S
C1114 C1113 1.383 . S
C1114 C1115 1.377 . S
C1115 H1099 0.930 . S
C1115 C1114 1.377 . S
C1115 C1116 1.379 . S
C1116 H1100 0.931 . S
C1116 C1110 1.383 . S
C1116 C1115 1.379 . S
H1117 C1111 0.959 . S
H1118 C1111 0.961 . S
H1119 C1111 0.960 . S
H1120 C1112 0.930 . S
H1121 C1113 0.929 . S
H1122 C1130 0.929 . S
H1123 C1132 0.930 . S
H1124 C1134 0.930 . S
H1125 C1137 0.929 . S
H1126 C1140 0.930 . S
H1127 C1142 0.960 . S
H1128 C1142 0.960 . S
H1129 C1142 0.960 . S
C1130 H1122 0.929 . S
C1130 C1131 1.377 . S
C1130 C1132 1.384 . S
C1131 C1130 1.377 . S
C1131 C1137 1.390 . S
C1132 H1123 0.930 . S
C1132 C1130 1.384 . S
C1132 C1133 1.372 . S
C1133 C1132 1.372 . S
C1133 C1134 1.400 . S
C1133 C1138 1.490 . S
C1134 H1124 0.930 . S
C1134 C1133 1.400 . S
C1134 C1137 1.386 . S
H1135 C1151 0.930 . S
H1136 C1152 0.931 . S
C1137 H1125 0.929 . S
C1137 C1131 1.390 . S
C1137 C1134 1.386 . S
C1138 C1133 1.490 . S
C1138 C1140 1.395 . S
C1138 C1141 1.403 . S
H1139 C1145 0.930 . S
C1140 H1126 0.930 . S
C1140 C1138 1.395 . S
C1140 C1143 1.403 . S
C1141 C1138 1.403 . S
C1141 C1142 1.524 . S
C1141 C1145 1.400 . S
C1142 H1127 0.960 . S
C1142 H1128 0.960 . S
C1142 H1129 0.960 . S
C1142 C1141 1.524 . S
C1143 C1140 1.403 . S
C1143 C1144 1.392 . S
C1143 C1147 1.495 . S
C1144 C1143 1.392 . S
C1144 C1145 1.385 . S
C1144 C1146 1.478 . S
C1145 H1139 0.930 . S
C1145 C1141 1.400 . S
C1145 C1144 1.385 . S
C1146 C1144 1.478 . S
C1146 C1148 1.381 . S
C1146 C1152 1.383 . S
C1147 C1143 1.495 . S
C1147 H1153 0.959 . S
C1147 H1154 0.961 . S
C1147 H1155 0.960 . S
C1148 C1146 1.381 . S
C1148 C1149 1.394 . S
C1148 H1156 0.930 . S
C1149 C1148 1.394 . S
C1149 C1150 1.383 . S
C1149 H1157 0.929 . S
C1150 C1149 1.383 . S
C1150 C1151 1.377 . S
C1151 H1135 0.930 . S
C1151 C1150 1.377 . S
C1151 C1152 1.379 . S
C1152 H1136 0.931 . S
C1152 C1146 1.383 . S
C1152 C1151 1.379 . S
H1153 C1147 0.959 . S
H1154 C1147 0.961 . S
H1155 C1147 0.960 . S
H1156 C1148 0.930 . S
H1157 C1149 0.929 . S
H1158 C1166 0.929 . S
H1159 C1168 0.930 . S
H1160 C1170 0.930 . S
H1161 C1173 0.929 . S
H1162 C1176 0.930 . S
H1163 C1178 0.960 . S
H1164 C1178 0.960 . S
H1165 C1178 0.960 . S
C1166 H1158 0.929 . S
C1166 C1167 1.377 . S
C1166 C1168 1.384 . S
C1167 C1166 1.377 . S
C1167 C1173 1.390 . S
C1168 H1159 0.930 . S
C1168 C1166 1.384 . S
C1168 C1169 1.372 . S
C1169 C1168 1.372 . S
C1169 C1170 1.400 . S
C1169 C1174 1.490 . S
C1170 H1160 0.930 . S
C1170 C1169 1.400 . S
C1170 C1173 1.386 . S
H1171 C1187 0.930 . S
H1172 C1188 0.931 . S
C1173 H1161 0.929 . S
C1173 C1167 1.390 . S
C1173 C1170 1.386 . S
C1174 C1169 1.490 . S
C1174 C1176 1.395 . S
C1174 C1177 1.403 . S
H1175 C1181 0.930 . S
C1176 H1162 0.930 . S
C1176 C1174 1.395 . S
C1176 C1179 1.403 . S
C1177 C1174 1.403 . S
C1177 C1178 1.524 . S
C1177 C1181 1.400 . S
C1178 H1163 0.960 . S
C1178 H1164 0.960 . S
C1178 H1165 0.960 . S
C1178 C1177 1.524 . S
C1179 C1176 1.403 . S
C1179 C1180 1.392 . S
C1179 C1183 1.495 . S
C1180 C1179 1.392 . S
C1180 C1181 1.385 . S
C1180 C1182 1.478 . S
C1181 H1175 0.930 . S
C1181 C1177 1.400 . S
C1181 C1180 1.385 . S
C1182 C1180 1.478 . S
C1182 C1184 1.381 . S
C1182 C1188 1.383 . S
C1183 C1179 1.495 . S
C1183 H1189 0.959 . S
C1183 H1190 0.961 . S
C1183 H1191 0.960 . S
C1184 C1182 1.381 . S
C1184 C1185 1.394 . S
C1184 H1192 0.930 . S
C1185 C1184 1.394 . S
C1185 C1186 1.383 . S
C1185 H1193 0.929 . S
C1186 C1185 1.383 . S
C1186 C1187 1.377 . S
C1187 H1171 0.930 . S
C1187 C1186 1.377 . S
C1187 C1188 1.379 . S
C1188 H1172 0.931 . S
C1188 C1182 1.383 . S
C1188 C1187 1.379 . S
H1189 C1183 0.959 . S
H1190 C1183 0.961 . S
H1191 C1183 0.960 . S
H1192 C1184 0.930 . S
H1193 C1185 0.929 . S
H1194 C1202 0.929 . S
H1195 C1204 0.930 . S
H1196 C1206 0.930 . S
H1197 C1209 0.929 . S
H1198 C1212 0.930 . S
H1199 C1214 0.960 . S
H1200 C1214 0.960 . S
H1201 C1214 0.960 . S
C1202 H1194 0.929 . S
C1202 C1203 1.377 . S
C1202 C1204 1.384 . S
C1203 C1202 1.377 . S
C1203 C1209 1.390 . S
C1204 H1195 0.930 . S
C1204 C1202 1.384 . S
C1204 C1205 1.372 . S
C1205 C1204 1.372 . S
C1205 C1206 1.400 . S
C1205 C1210 1.490 . S
C1206 H1196 0.930 . S
C1206 C1205 1.400 . S
C1206 C1209 1.386 . S
H1207 C1223 0.930 . S
H1208 C1224 0.931 . S
C1209 H1197 0.929 . S
C1209 C1203 1.390 . S
C1209 C1206 1.386 . S
C1210 C1205 1.490 . S
C1210 C1212 1.395 . S
C1210 C1213 1.403 . S
H1211 C1217 0.930 . S
C1212 H1198 0.930 . S
C1212 C1210 1.395 . S
C1212 C1215 1.403 . S
C1213 C1210 1.403 . S
C1213 C1214 1.524 . S
C1213 C1217 1.400 . S
C1214 H1199 0.960 . S
C1214 H1200 0.960 . S
C1214 H1201 0.960 . S
C1214 C1213 1.524 . S
C1215 C1212 1.403 . S
C1215 C1216 1.392 . S
C1215 C1219 1.495 . S
C1216 C1215 1.392 . S
C1216 C1217 1.385 . S
C1216 C1218 1.478 . S
C1217 H1211 0.930 . S
C1217 C1213 1.400 . S
C1217 C1216 1.385 . S
C1218 C1216 1.478 . S
C1218 C1220 1.381 . S
C1218 C1224 1.383 . S
C1219 C1215 1.495 . S
C1219 H1225 0.959 . S
C1219 H1226 0.961 . S
C1219 H1227 0.960 . S
C1220 C1218 1.381 . S
C1220 C1221 1.394 . S
C1220 H1228 0.930 . S
C1221 C1220 1.394 . S
C1221 C1222 1.383 . S
C1221 H1229 0.929 . S
C1222 C1221 1.383 . S
C1222 C1223 1.377 . S
C1223 H1207 0.930 . S
C1223 C1222 1.377 . S
C1223 C1224 1.379 . S
C1224 H1208 0.931 . S
C1224 C1218 1.383 . S
C1224 C1223 1.379 . S
H1225 C1219 0.959 . S
H1226 C1219 0.961 . S
H1227 C1219 0.960 . S
H1228 C1220 0.930 . S
H1229 C1221 0.929 . S
H1230 C1238 0.929 . S
H1231 C1240 0.930 . S
H1232 C1242 0.930 . S
H1233 C1245 0.929 . S
H1234 C1248 0.930 . S
H1235 C1250 0.960 . S
H1236 C1250 0.960 . S
H1237 C1250 0.960 . S
C1238 H1230 0.929 . S
C1238 C1239 1.377 . S
C1238 C1240 1.384 . S
C1239 C1238 1.377 . S
C1239 C1245 1.390 . S
C1240 H1231 0.930 . S
C1240 C1238 1.384 . S
C1240 C1241 1.372 . S
C1241 C1240 1.372 . S
C1241 C1242 1.400 . S
C1241 C1246 1.490 . S
C1242 H1232 0.930 . S
C1242 C1241 1.400 . S
C1242 C1245 1.386 . S
H1243 C1259 0.930 . S
H1244 C1260 0.931 . S
C1245 H1233 0.929 . S
C1245 C1239 1.390 . S
C1245 C1242 1.386 . S
C1246 C1241 1.490 . S
C1246 C1248 1.395 . S
C1246 C1249 1.403 . S
H1247 C1253 0.930 . S
C1248 H1234 0.930 . S
C1248 C1246 1.395 . S
C1248 C1251 1.403 . S
C1249 C1246 1.403 . S
C1249 C1250 1.524 . S
C1249 C1253 1.400 . S
C1250 H1235 0.960 . S
C1250 H1236 0.960 . S
C1250 H1237 0.960 . S
C1250 C1249 1.524 . S
C1251 C1248 1.403 . S
C1251 C1252 1.392 . S
C1251 C1255 1.495 . S
C1252 C1251 1.392 . S
C1252 C1253 1.385 . S
C1252 C1254 1.478 . S
C1253 H1247 0.930 . S
C1253 C1249 1.400 . S
C1253 C1252 1.385 . S
C1254 C1252 1.478 . S
C1254 C1256 1.381 . S
C1254 C1260 1.383 . S
C1255 C1251 1.495 . S
C1255 H1261 0.959 . S
C1255 H1262 0.961 . S
C1255 H1263 0.960 . S
C1256 C1254 1.381 . S
C1256 C1257 1.394 . S
C1256 H1264 0.930 . S
C1257 C1256 1.394 . S
C1257 C1258 1.383 . S
C1257 H1265 0.929 . S
C1258 C1257 1.383 . S
C1258 C1259 1.377 . S
C1259 H1243 0.930 . S
C1259 C1258 1.377 . S
C1259 C1260 1.379 . S
C1260 H1244 0.931 . S
C1260 C1254 1.383 . S
C1260 C1259 1.379 . S
H1261 C1255 0.959 . S
H1262 C1255 0.961 . S
H1263 C1255 0.960 . S
H1264 C1256 0.930 . S
H1265 C1257 0.929 . S
C411 C48 1.159 . S
C430 C91 1.181 . S
C447 C106 1.159 . S
C466 C169 1.178 . S
C483 C225 1.324 . S
C502 C182 1.283 . S
C519 C240 1.297 . S
C538 C35 1.339 . S
C555 C303 0.968 . S
C574 C24 0.983 . S
C591 C374 1.171 . S
C610 C102 1.217 . S
C627 C316 1.195 . S
C646 C158 1.234 . S
C663 C236 0.994 . S
C682 C359 0.956 . S
C699 C173 1.271 . S
C718 C370 1.308 . S
C735 C292 1.331 . S
C754 C249 1.327 . S
C771 C383 1.512 . S
C790 C39 1.483 . S
C807 C307 1.485 . S
C826 C115 1.488 . S
C843 C167 1.236 . S
C862 C242 1.216 . S
C879 C45 1.245 . S
C898 C228 1.268 . S
C915 C33 1.349 . S
C934 C108 1.368 . S
C951 C179 1.363 . S
C970 C94 1.376 . S
C987 C380 1.194 . S
C1006 C161 1.199 . S
C1023 C234 1.240 . S
C1042 C309 1.269 . S
C1059 C368 1.176 . S
C1078 C27 1.197 . S
C1095 C100 1.134 . S
C1114 C295 1.171 . S
C1131 C41 1.416 . S
C1150 C313 1.389 . S
C1167 C112 1.372 . S
C1186 C362 1.314 . S
C1203 C175 1.414 . S
C1222 C301 1.377 . S
C1239 C246 1.467 . S
C1258 C376 1.444 . S
