# Generated by pormake.
# Topology vbn, (6)-cn, num edge types: 1
# Building blocks:
#     Node 0, Type 0, BuildingBlock: VOLQOD_clean_sbu_1, # of connection points: 6
#     Node 1, Type 0, BuildingBlock: VOLQOD_clean_sbu_1, # of connection points: 6
#     Node 2, Type 0, BuildingBlock: VOLQOD_clean_sbu_1, # of connection points: 6
#     Node 3, Type 0, BuildingBlock: VOLQOD_clean_sbu_1, # of connection points: 6
#     Node 4, Type 0, BuildingBlock: VOLQOD_clean_sbu_1, # of connection points: 6
#     Node 5, Type 0, BuildingBlock: VOLQOD_clean_sbu_1, # of connection points: 6
#     Node 6, Type 0, BuildingBlock: VOLQOD_clean_sbu_1, # of connection points: 6
#     Node 7, Type 0, BuildingBlock: VOLQOD_clean_sbu_1, # of connection points: 6
#     Edge 8, Type (0, 0), BuildingBlock: KIFKEQ_clean_linker_1, # of connection points: 2
#     Edge 9, Type (0, 0), BuildingBlock: KIFKEQ_clean_linker_1, # of connection points: 2
#     Edge 10, Type (0, 0), BuildingBlock: KIFKEQ_clean_linker_1, # of connection points: 2
#     Edge 11, Type (0, 0), BuildingBlock: KIFKEQ_clean_linker_1, # of connection points: 2
#     Edge 12, Type (0, 0), BuildingBlock: KIFKEQ_clean_linker_1, # of connection points: 2
#     Edge 13, Type (0, 0), BuildingBlock: KIFKEQ_clean_linker_1, # of connection points: 2
#     Edge 14, Type (0, 0), BuildingBlock: KIFKEQ_clean_linker_1, # of connection points: 2
#     Edge 15, Type (0, 0), BuildingBlock: KIFKEQ_clean_linker_1, # of connection points: 2
#     Edge 16, Type (0, 0), BuildingBlock: KIFKEQ_clean_linker_1, # of connection points: 2
#     Edge 17, Type (0, 0), BuildingBlock: KIFKEQ_clean_linker_1, # of connection points: 2
#     Edge 18, Type (0, 0), BuildingBlock: KIFKEQ_clean_linker_1, # of connection points: 2
#     Edge 19, Type (0, 0), BuildingBlock: KIFKEQ_clean_linker_1, # of connection points: 2
#     Edge 20, Type (0, 0), BuildingBlock: KIFKEQ_clean_linker_1, # of connection points: 2
#     Edge 21, Type (0, 0), BuildingBlock: KIFKEQ_clean_linker_1, # of connection points: 2
#     Edge 22, Type (0, 0), BuildingBlock: KIFKEQ_clean_linker_1, # of connection points: 2
#     Edge 23, Type (0, 0), BuildingBlock: KIFKEQ_clean_linker_1, # of connection points: 2
#     Edge 24, Type (0, 0), BuildingBlock: KIFKEQ_clean_linker_1, # of connection points: 2
#     Edge 25, Type (0, 0), BuildingBlock: KIFKEQ_clean_linker_1, # of connection points: 2
#     Edge 26, Type (0, 0), BuildingBlock: KIFKEQ_clean_linker_1, # of connection points: 2
#     Edge 27, Type (0, 0), BuildingBlock: KIFKEQ_clean_linker_1, # of connection points: 2
#     Edge 28, Type (0, 0), BuildingBlock: KIFKEQ_clean_linker_1, # of connection points: 2
#     Edge 29, Type (0, 0), BuildingBlock: KIFKEQ_clean_linker_1, # of connection points: 2
#     Edge 30, Type (0, 0), BuildingBlock: KIFKEQ_clean_linker_1, # of connection points: 2
#     Edge 31, Type (0, 0), BuildingBlock: KIFKEQ_clean_linker_1, # of connection points: 2
# Relax obj value: 0.302
# Max RMSD: 0.245
# Mean RMSD: 0.245
data_MOF--net-vbn--node1-VOLQOD_clean_sbu_1--edge1-KIFKEQ_clean_linker_1
_symmetry_space_group_name_H-M    P1
_symmetry_Int_Tables_number       1
_symmetry_cell_setting            triclinic
loop_
_symmetry_equiv_pos_as_xyz
'x, y, z'
_cell_length_a     27.693911
_cell_length_b     29.625484
_cell_length_c     50.049641
_cell_angle_alpha  90.055084
_cell_angle_beta   90.073735
_cell_angle_gamma 90.063343
loop_
_atom_site_label
_atom_site_type_symbol
_atom_site_fract_x
_atom_site_fract_y
_atom_site_fract_z
_atom_type_partial_charge
O0 O 0.38895 0.3582 0.44701 0.0
Zn1 Zn 0.36492 0.29797 0.43449 0.0
O2 O 0.36497 0.29598 0.39577 0.0
Zn3 Zn 0.30011 0.28666 0.38186 0.0
Zn4 Zn 0.39144 0.35144 0.38213 0.0
Zn5 Zn 0.40728 0.24823 0.38419 0.0
O6 O 0.29573 0.22436 0.36394 0.0
O7 O 0.36755 0.19471 0.37388 0.0
O8 O 0.29789 0.28815 0.44984 0.0
O9 O 0.25407 0.28477 0.41267 0.0
O10 O 0.27712 0.34143 0.35996 0.0
O11 O 0.3388 0.38821 0.36698 0.0
O12 O 0.43494 0.34066 0.35105 0.0
O13 O 0.41513 0.2559 0.44961 0.0
O14 O 0.4423 0.26621 0.35067 0.0
O15 O 0.4548 0.23278 0.41352 0.0
C16 C 0.41443 0.38874 0.43598 0.0
C17 C 0.3249 0.19082 0.36454 0.0
C18 C 0.2968 0.38036 0.35787 0.0
C19 C 0.25711 0.28521 0.43805 0.0
C20 C 0.45012 0.30461 0.34015 0.0
C21 C 0.4513 0.23643 0.43885 0.0
O22 O 0.42257 0.38854 0.41094 0.0
O23 O 0.10587 0.14311 0.94438 0.0
Zn24 Zn 0.12862 0.20506 0.93453 0.0
O25 O 0.12702 0.2118 0.8963 0.0
Zn26 Zn 0.19124 0.21882 0.88137 0.0
Zn27 Zn 0.09348 0.16113 0.88137 0.0
Zn28 Zn 0.0886 0.26284 0.88764 0.0
O29 O 0.197 0.2822 0.86397 0.0
O30 O 0.1317 0.31479 0.8815 0.0
O31 O 0.19609 0.21378 0.94923 0.0
O32 O 0.23935 0.21769 0.91187 0.0
O33 O 0.20821 0.16289 0.85845 0.0
O34 O 0.1425 0.12124 0.86548 0.0
O35 O 0.05045 0.17842 0.85077 0.0
O36 O 0.07853 0.24494 0.95184 0.0
O37 O 0.05453 0.25299 0.85285 0.0
O38 O 0.04105 0.27544 0.91697 0.0
C39 C 0.0736 0.1184 0.9336 0.0
C40 C 0.17181 0.31748 0.8692 0.0
C41 C 0.18498 0.12563 0.85623 0.0
C42 C 0.23671 0.21635 0.93731 0.0
C43 C 0.0412 0.21709 0.84101 0.0
C44 C 0.04353 0.26741 0.94195 0.0
O45 O 0.05945 0.12518 0.90969 0.0
O46 O 0.88541 0.14167 0.54336 0.0
Zn47 Zn 0.86371 0.20414 0.55262 0.0
O48 O 0.86442 0.21153 0.59088 0.0
Zn49 Zn 0.79992 0.22062 0.6049 0.0
Zn50 Zn 0.89542 0.16007 0.60674 0.0
Zn51 Zn 0.90391 0.26216 0.5996 0.0
O52 O 0.7952 0.284 0.62211 0.0
O53 O 0.86204 0.31524 0.60552 0.0
O54 O 0.79688 0.21357 0.53709 0.0
O55 O 0.75294 0.21998 0.57405 0.0
O56 O 0.7799 0.16602 0.62772 0.0
O57 O 0.84465 0.12212 0.62308 0.0
O58 O 0.93876 0.17729 0.63725 0.0
O59 O 0.91508 0.24291 0.53552 0.0
O60 O 0.93737 0.25191 0.63454 0.0
O61 O 0.95219 0.27379 0.57044 0.0
C62 C 0.91578 0.11581 0.55479 0.0
C63 C 0.82151 0.31872 0.61732 0.0
C64 C 0.80176 0.12846 0.6313 0.0
C65 C 0.75609 0.21755 0.54868 0.0
C66 C 0.94932 0.21594 0.6467 0.0
C67 C 0.95014 0.26529 0.54549 0.0
O68 O 0.92868 0.12213 0.57897 0.0
O69 O 0.60401 0.35576 0.03912 0.0
Zn70 Zn 0.6281 0.29576 0.05181 0.0
O71 O 0.62768 0.29407 0.09053 0.0
Zn72 Zn 0.69233 0.28489 0.10469 0.0
Zn73 Zn 0.60136 0.3497 0.104 0.0
Zn74 Zn 0.58511 0.24641 0.10203 0.0
O75 O 0.6965 0.22255 0.12252 0.0
O76 O 0.62466 0.19287 0.11244 0.0
O77 O 0.69534 0.28638 0.03672 0.0
O78 O 0.73868 0.28322 0.07406 0.0
O79 O 0.71522 0.33975 0.12668 0.0
O80 O 0.65402 0.3867 0.11915 0.0
O81 O 0.55769 0.33914 0.13499 0.0
O82 O 0.57816 0.25339 0.03651 0.0
O83 O 0.54989 0.2647 0.13547 0.0
O84 O 0.53783 0.2309 0.07251 0.0
C85 C 0.57846 0.38633 0.05004 0.0
C86 C 0.66726 0.189 0.12185 0.0
C87 C 0.69582 0.37879 0.12849 0.0
C88 C 0.73597 0.2837 0.04867 0.0
C89 C 0.54223 0.30321 0.14592 0.0
C90 C 0.5417 0.23421 0.04718 0.0
O91 O 0.57028 0.38639 0.07508 0.0
O92 O 0.60415 0.65134 0.54025 0.0
Zn93 Zn 0.62875 0.712 0.55175 0.0
O94 O 0.62898 0.71678 0.59021 0.0
Zn95 Zn 0.69444 0.72304 0.60395 0.0
Zn96 Zn 0.59816 0.66372 0.60385 0.0
Zn97 Zn 0.58908 0.76636 0.60147 0.0
O98 O 0.70091 0.78453 0.62285 0.0
O99 O 0.63143 0.81784 0.61168 0.0
O100 O 0.69569 0.71946 0.53627 0.0
O101 O 0.74101 0.72494 0.57287 0.0
O102 O 0.71352 0.66605 0.62543 0.0
O103 O 0.64856 0.62365 0.6178 0.0
O104 O 0.55745 0.67687 0.63558 0.0
O105 O 0.57903 0.75418 0.53619 0.0
O106 O 0.55314 0.75143 0.63529 0.0
O107 O 0.54225 0.78231 0.57202 0.0
C108 C 0.57351 0.62514 0.55112 0.0
C109 C 0.67357 0.81941 0.62193 0.0
C110 C 0.69108 0.62829 0.62696 0.0
C111 C 0.73687 0.72318 0.54751 0.0
C112 C 0.54406 0.71367 0.64627 0.0
C113 C 0.54439 0.77619 0.54681 0.0
O114 O 0.56206 0.62937 0.57563 0.0
O115 O 0.8906 0.85233 0.03882 0.0
Zn116 Zn 0.86535 0.79303 0.05205 0.0
O117 O 0.86417 0.79385 0.09091 0.0
Zn118 Zn 0.79921 0.7848 0.10446 0.0
Zn119 Zn 0.89006 0.85003 0.10407 0.0
Zn120 Zn 0.90625 0.74711 0.10361 0.0
O121 O 0.79433 0.72249 0.12229 0.0
O122 O 0.86686 0.69326 0.1137 0.0
O123 O 0.7982 0.78415 0.03632 0.0
O124 O 0.75389 0.78342 0.07331 0.0
O125 O 0.776 0.83969 0.12623 0.0
O126 O 0.83697 0.88699 0.11866 0.0
O127 O 0.93365 0.841 0.13549 0.0
O128 O 0.91556 0.74929 0.03793 0.0
O129 O 0.94011 0.76653 0.13716 0.0
O130 O 0.9552 0.73217 0.07522 0.0
C131 C 0.91473 0.88408 0.04963 0.0
C132 C 0.82378 0.68915 0.12232 0.0
C133 C 0.79518 0.8789 0.12792 0.0
C134 C 0.75721 0.78295 0.04795 0.0
C135 C 0.94836 0.80536 0.14704 0.0
C136 C 0.95238 0.73282 0.04979 0.0
O137 O 0.92118 0.88588 0.07482 0.0
O138 O 0.1021 0.8524 0.449 0.0
Zn139 Zn 0.12827 0.79366 0.43554 0.0
O140 O 0.12955 0.795 0.39668 0.0
Zn141 Zn 0.19455 0.78641 0.38314 0.0
Zn142 Zn 0.10326 0.85105 0.38369 0.0
Zn143 Zn 0.08778 0.74815 0.38379 0.0
O144 O 0.19983 0.72401 0.36533 0.0
O145 O 0.12724 0.69458 0.37366 0.0
O146 O 0.19558 0.78584 0.45129 0.0
O147 O 0.23994 0.78598 0.4143 0.0
O148 O 0.21706 0.84129 0.36117 0.0
O149 O 0.15611 0.88837 0.36914 0.0
O150 O 0.05974 0.84189 0.35218 0.0
O151 O 0.07842 0.74919 0.44942 0.0
O152 O 0.05402 0.76739 0.35027 0.0
O153 O 0.03876 0.73296 0.41198 0.0
C154 C 0.07788 0.88414 0.43832 0.0
C155 C 0.17037 0.69061 0.36513 0.0
C156 C 0.19775 0.88041 0.35963 0.0
C157 C 0.23661 0.78548 0.43967 0.0
C158 C 0.04543 0.80616 0.3405 0.0
C159 C 0.04151 0.7331 0.43741 0.0
O160 O 0.07181 0.88638 0.41312 0.0
O161 O 0.38726 0.6466 0.94561 0.0
Zn162 Zn 0.36384 0.70787 0.93478 0.0
O163 O 0.36395 0.71367 0.89647 0.0
Zn164 Zn 0.29907 0.72113 0.88223 0.0
Zn165 Zn 0.39488 0.66125 0.88237 0.0
Zn166 Zn 0.40404 0.7633 0.88615 0.0
O167 O 0.29421 0.78337 0.86367 0.0
O168 O 0.36185 0.81581 0.87861 0.0
O169 O 0.29685 0.71586 0.94992 0.0
O170 O 0.25196 0.72292 0.91324 0.0
O171 O 0.27991 0.66448 0.86025 0.0
O172 O 0.3445 0.62167 0.86783 0.0
O173 O 0.43561 0.67553 0.85086 0.0
O174 O 0.4142 0.74893 0.95099 0.0
O175 O 0.43822 0.7502 0.85144 0.0
O176 O 0.45192 0.77679 0.91541 0.0
C177 C 0.41835 0.62095 0.93467 0.0
C178 C 0.32078 0.81839 0.8672 0.0
C179 C 0.30216 0.62667 0.8585 0.0
C180 C 0.25585 0.72043 0.93861 0.0
C181 C 0.44782 0.71273 0.84021 0.0
C182 C 0.44952 0.77029 0.94057 0.0
O183 O 0.43063 0.62619 0.91036 0.0
H184 H 0.16398 0.94589 0.32703 0.0
H185 H 0.29065 0.90463 0.37076 0.0
H186 H 0.19828 0.02095 0.32102 0.0
H187 H 0.32437 0.98033 0.36601 0.0
H188 H 0.38127 0.11892 0.35087 0.0
H189 H 0.35575 0.04183 0.34159 0.0
H190 H 0.20666 0.08239 0.35038 0.0
H191 H 0.23228 0.15974 0.35861 0.0
C192 C 0.19986 0.95268 0.33472 0.0
C193 C 0.22474 0.91961 0.34935 0.0
C194 C 0.21924 0.99588 0.33164 0.0
C195 C 0.26355 0.0073 0.34363 0.0
C196 C 0.29026 0.97292 0.35636 0.0
C197 C 0.27111 0.92935 0.35904 0.0
C198 C 0.34297 0.11147 0.35043 0.0
C199 C 0.30877 0.14544 0.35571 0.0
C200 C 0.32835 0.06714 0.34523 0.0
C201 C 0.27915 0.05549 0.34544 0.0
C202 C 0.24488 0.08998 0.34961 0.0
C203 C 0.25952 0.13446 0.35451 0.0
H204 H 0.1406 0.3972 0.88929 0.0
H205 H 0.2396 0.34161 0.83135 0.0
H206 H 0.16668 0.4725 0.87824 0.0
H207 H 0.26464 0.41817 0.81916 0.0
H208 H 0.34581 0.5509 0.84026 0.0
H209 H 0.31078 0.47653 0.83679 0.0
H210 H 0.16872 0.53345 0.84893 0.0
H211 H 0.20479 0.60835 0.8541 0.0
C212 C 0.16756 0.40109 0.8738 0.0
C213 C 0.18834 0.36321 0.86137 0.0
C214 C 0.18211 0.44465 0.86715 0.0
C215 C 0.21758 0.45192 0.84758 0.0
C216 C 0.23761 0.414 0.83456 0.0
C217 C 0.22339 0.37007 0.84153 0.0
C218 C 0.30691 0.5478 0.8417 0.0
C219 C 0.27819 0.5854 0.84825 0.0
C220 C 0.28666 0.5049 0.83945 0.0
C221 C 0.23694 0.49844 0.84332 0.0
C222 C 0.20743 0.5369 0.84674 0.0
C223 C 0.22791 0.58001 0.84933 0.0
H224 H 0.64719 0.55189 0.64412 0.0
H225 H 0.78842 0.61013 0.63172 0.0
H226 H 0.68233 0.47775 0.64767 0.0
H227 H 0.8246 0.53537 0.63698 0.0
H228 H 0.85477 0.39818 0.59771 0.0
H229 H 0.82848 0.47373 0.6082 0.0
H230 H 0.72775 0.42013 0.66609 0.0
H231 H 0.75284 0.34349 0.65438 0.0
C232 C 0.68614 0.54901 0.64297 0.0
C233 C 0.71492 0.5868 0.63687 0.0
C234 C 0.70647 0.50622 0.64529 0.0
C235 C 0.75635 0.50001 0.64195 0.0
C236 C 0.78581 0.53861 0.6388 0.0
C237 C 0.76525 0.58164 0.63615 0.0
C238 C 0.82715 0.40234 0.61282 0.0
C239 C 0.80551 0.36466 0.625 0.0
C240 C 0.81245 0.44602 0.61914 0.0
C241 C 0.77604 0.45353 0.63815 0.0
C242 C 0.75541 0.4158 0.65105 0.0
C243 C 0.7697 0.3718 0.64437 0.0
H244 H 0.61078 0.11676 0.13498 0.0
H245 H 0.75982 0.15824 0.12831 0.0
H246 H 0.6363 0.03981 0.14441 0.0
H247 H 0.78546 0.08103 0.13671 0.0
H248 H 0.82802 0.94488 0.16061 0.0
H249 H 0.79339 0.01985 0.16617 0.0
H250 H 0.66844 0.9782 0.12042 0.0
H251 H 0.70245 0.90258 0.11612 0.0
C252 C 0.64909 0.10949 0.13568 0.0
C253 C 0.6833 0.14362 0.13068 0.0
C254 C 0.66371 0.06523 0.14097 0.0
C255 C 0.71295 0.05379 0.14113 0.0
C256 C 0.74721 0.08844 0.13719 0.0
C257 C 0.73256 0.13284 0.1322 0.0
C258 C 0.79229 0.95142 0.15265 0.0
C259 C 0.76783 0.91806 0.13795 0.0
C260 C 0.77273 0.99458 0.15547 0.0
C261 C 0.72867 0.00569 0.14314 0.0
C262 C 0.70234 0.97104 0.13033 0.0
C263 C 0.72166 0.92751 0.12791 0.0
H264 H 0.70816 0.10437 0.62205 0.0
H265 H 0.83829 0.0611 0.66192 0.0
H266 H 0.67505 0.0285 0.62617 0.0
H267 H 0.80463 0.98563 0.6672 0.0
H268 H 0.76693 0.84904 0.62699 0.0
H269 H 0.79374 0.92563 0.63686 0.0
H270 H 0.64568 0.96601 0.65014 0.0
H271 H 0.619 0.88995 0.63917 0.0
C272 C 0.72874 0.07912 0.63279 0.0
C273 C 0.77586 0.08846 0.64147 0.0
C274 C 0.70989 0.03542 0.63512 0.0
C275 C 0.73762 1.00042 0.6465 0.0
C276 C 0.78283 0.01125 0.6576 0.0
C277 C 0.80188 0.05467 0.65491 0.0
C278 C 0.74028 0.87413 0.63245 0.0
C279 C 0.69089 0.86362 0.63193 0.0
C280 C 0.75557 0.91812 0.63828 0.0
C281 C 0.72182 0.9524 0.6441 0.0
C282 C 0.67263 0.94093 0.64517 0.0
C283 C 0.65735 0.8972 0.63899 0.0
H284 H 0.87999 0.6172 0.13625 0.0
H285 H 0.73108 0.65809 0.12791 0.0
H286 H 0.8543 0.54027 0.14574 0.0
H287 H 0.70533 0.58089 0.13639 0.0
H288 H 0.66237 0.44502 0.16075 0.0
H289 H 0.69685 0.52014 0.16624 0.0
H290 H 0.82273 0.47826 0.12163 0.0
H291 H 0.78882 0.40252 0.11736 0.0
C292 C 0.84167 0.60982 0.13659 0.0
C293 C 0.80755 0.64378 0.1311 0.0
C294 C 0.82696 0.56556 0.14191 0.0
C295 C 0.77774 0.55398 0.14166 0.0
C296 C 0.74355 0.58845 0.13721 0.0
C297 C 0.75828 0.63284 0.13217 0.0
C298 C 0.69825 0.45154 0.15303 0.0
C299 C 0.72299 0.41808 0.13863 0.0
C300 C 0.71773 0.49479 0.15581 0.0
C301 C 0.76202 0.50586 0.14376 0.0
C302 C 0.78863 0.47113 0.1313 0.0
C303 C 0.76937 0.42752 0.12891 0.0
H304 H 0.2039 0.40419 0.36905 0.0
H305 H 0.33045 0.44645 0.32562 0.0
H306 H 0.17039 0.48002 0.36495 0.0
H307 H 0.2964 0.52172 0.32036 0.0
H308 H 0.263 0.65941 0.35961 0.0
H309 H 0.28837 0.58221 0.35073 0.0
H310 H 0.13924 0.5422 0.34076 0.0
H311 H 0.11394 0.61907 0.3506 0.0
C312 C 0.22344 0.42916 0.35753 0.0
C313 C 0.26975 0.41964 0.34776 0.0
C314 C 0.20443 0.47281 0.35524 0.0
C315 C 0.23122 0.5075 0.34285 0.0
C316 C 0.2754 0.49636 0.33073 0.0
C317 C 0.29462 0.45305 0.33338 0.0
C318 C 0.23571 0.63429 0.35513 0.0
C319 C 0.18649 0.64535 0.35613 0.0
C320 C 0.2502 0.58992 0.34986 0.0
C321 C 0.21583 0.55563 0.34514 0.0
C322 C 0.16669 0.56737 0.3448 0.0
C323 C 0.15221 0.61158 0.35033 0.0
H324 H 0.28203 0.10856 0.84899 0.0
H325 H 0.14087 0.04781 0.84108 0.0
H326 H 0.31899 0.03423 0.8437 0.0
H327 H 0.17699 0.97408 0.8376 0.0
H328 H 0.2487 0.84046 0.83146 0.0
H329 H 0.22143 0.91611 0.81912 0.0
H330 H 0.32724 0.97396 0.87287 0.0
H331 H 0.35566 0.89934 0.88388 0.0
C332 C 0.25895 0.07959 0.84555 0.0
C333 C 0.20851 0.08405 0.84609 0.0
C334 C 0.28003 0.03678 0.8429 0.0
C335 C 0.25105 0.99762 0.84107 0.0
C336 C 0.2008 1.00298 0.83896 0.0
C337 C 0.17992 0.04558 0.84123 0.0
C338 C 0.26627 0.86948 0.84038 0.0
C339 C 0.30407 0.86377 0.85878 0.0
C340 C 0.25068 0.91293 0.83336 0.0
C341 C 0.27197 0.95159 0.84498 0.0
C342 C 0.31051 0.9455 0.86291 0.0
C343 C 0.32649 0.90235 0.86954 0.0
H344 H 0.42353 0.38888 0.49022 0.0
H345 H 0.45464 0.46855 0.41998 0.0
H346 H 0.46204 0.44566 0.51811 0.0
H347 H 0.49167 0.52628 0.44803 0.0
H348 H 0.60133 0.59503 0.50202 0.0
H349 H 0.56224 0.53814 0.47442 0.0
H350 H 0.45243 0.52036 0.53486 0.0
H351 H 0.49264 0.57614 0.56293 0.0
C352 C 0.4381 0.41881 0.48076 0.0
C353 C 0.43615 0.42421 0.45288 0.0
C354 C 0.45998 0.45148 0.49678 0.0
C355 C 0.47998 0.49053 0.48532 0.0
C356 C 0.47738 0.49622 0.45746 0.0
C357 C 0.45592 0.46328 0.44139 0.0
C358 C 0.5689 0.5789 0.50945 0.0
C359 C 0.5501 0.59001 0.53467 0.0
C360 C 0.54628 0.54652 0.49353 0.0
C361 C 0.50406 0.52484 0.50235 0.0
C362 C 0.48528 0.53595 0.52761 0.0
C363 C 0.50822 0.56804 0.54367 0.0
H364 H 0.95664 0.96364 0.06487 0.0
H365 H 0.92291 0.88278 -0.00469 0.0
H366 H 0.99433 0.02 0.03627 0.0
H367 H 0.96187 0.93842 0.96687 0.0
H368 H 0.99198 0.07002 0.9221 0.0
H369 H 0.95236 0.01398 0.95017 0.0
H370 H 0.06529 0.02888 0.00925 0.0
H371 H 0.10402 0.08577 0.98165 0.0
C372 C 0.95744 0.95781 0.0435 0.0
C373 C 0.93681 0.91876 0.03236 0.0
C374 C 0.97928 0.98996 0.02713 0.0
C375 C 0.98129 0.98356 -0.00069 0.0
C376 C 0.96036 0.94464 0.98818 0.0
C377 C 0.93822 0.91265 0.00452 0.0
C378 C 0.00844 0.06116 0.94103 0.0
C379 C 0.05101 0.08244 0.9497 0.0
C380 C 0.98582 0.02896 0.95707 0.0
C381 C 0.00554 0.01719 0.98201 0.0
C382 C 0.04864 0.03786 0.9904 0.0
C383 C 0.07103 0.07025 0.97447 0.0
H384 H 0.88591 0.08309 0.50664 0.0
H385 H -0.00372 0.06648 0.56701 0.0
H386 H 0.92511 0.02646 0.47906 0.0
H387 H 0.03643 0.01069 0.53896 0.0
H388 H 0.06833 0.88122 0.49255 0.0
H389 H 0.02809 0.93561 0.52129 0.0
H390 H -0.00324 0.01888 0.45255 0.0
H391 H 0.03571 0.96375 0.42365 0.0
C392 C 0.91861 0.06737 0.51402 0.0
C393 C 0.9381 0.07936 0.53897 0.0
C394 C 0.94127 0.03515 0.49811 0.0
C395 C 0.98416 0.01443 0.50668 0.0
C396 C 0.00317 0.02574 0.53188 0.0
C397 C 0.98025 0.05778 0.54793 0.0
C398 C 0.053 0.9112 0.48356 0.0
C399 C 0.0551 0.91814 0.45579 0.0
C400 C 0.0301 0.94247 0.50007 0.0
C401 C 0.0091 0.98149 0.48921 0.0
C402 C 0.01181 0.98873 0.46149 0.0
C403 C 0.0344 0.95728 0.44493 0.0
H404 H 0.38952 0.58941 0.98324 0.0
H405 H 0.49984 0.57288 0.923 0.0
H406 H 0.42883 0.53281 0.01081 0.0
H407 H 0.54021 0.51732 0.95105 0.0
H408 H 0.57035 0.38617 -0.00425 0.0
H409 H 0.53141 0.44226 0.96766 0.0
H410 H 0.49942 0.52264 0.03757 0.0
H411 H 0.53694 0.46564 0.06581 0.0
C412 C 0.42232 0.57382 0.97593 0.0
C413 C 0.44158 0.58558 0.95093 0.0
C414 C 0.44506 0.54161 0.99184 0.0
C415 C 0.48784 0.52075 0.98323 0.0
C416 C 0.50696 0.53234 0.95813 0.0
C417 C 0.48393 0.56427 0.94209 0.0
C418 C 0.55518 0.4159 0.00513 0.0
C419 C 0.55661 0.42145 0.03301 0.0
C420 C 0.53304 0.44817 0.98899 0.0
C421 C 0.51223 0.4869 0.00035 0.0
C422 C 0.51434 0.49277 0.02822 0.0
C423 C 0.53609 0.46026 0.0444 0.0
H424 H 0.54441 0.37554 0.17951 0.0
H425 H 0.4974 0.23657 0.17466 0.0
H426 H 0.52622 0.37655 0.22679 0.0
H427 H 0.47681 0.23824 0.222 0.0
H428 H 0.49514 0.23778 0.31169 0.0
H429 H 0.51553 0.23874 0.26432 0.0
H430 H 0.46533 0.37662 0.25888 0.0
H431 H 0.44732 0.37632 0.3062 0.0
C432 C 0.52895 0.34549 0.18838 0.0
C433 C 0.52247 0.30589 0.17329 0.0
C434 C 0.51849 0.34608 0.2156 0.0
C435 C 0.50053 0.30732 0.22837 0.0
C436 C 0.49179 0.26836 0.21298 0.0
C437 C 0.50292 0.26756 0.18576 0.0
C438 C 0.48939 0.26853 0.30044 0.0
C439 C 0.46971 0.30696 0.31274 0.0
C440 C 0.50041 0.26891 0.2732 0.0
C441 C 0.4914 0.30754 0.25763 0.0
C442 C 0.47326 0.34641 0.27021 0.0
C443 C 0.46292 0.34623 0.29745 0.0
H444 H 0.04491 0.28924 0.80736 0.0
H445 H 0.99513 0.1512 0.81237 0.0
H446 H 0.02649 0.29019 0.75995 0.0
H447 H 0.97443 0.15278 0.76507 0.0
H448 H 0.99313 0.14959 0.67588 0.0
H449 H 0.01372 0.15176 0.72319 0.0
H450 H 0.96599 0.29055 0.72727 0.0
H451 H 0.9477 0.28894 0.67984 0.0
C452 C 0.02881 0.25944 0.79848 0.0
C453 C 0.02164 0.22006 0.8136 0.0
C454 C 0.01825 0.25997 0.77122 0.0
C455 C -0.00041 0.22135 0.75852 0.0
C456 C 0.99006 0.18273 0.77401 0.0
C457 C 0.00129 0.18198 0.80121 0.0
C458 C 0.9879 0.18077 0.68682 0.0
C459 C 0.96882 0.21906 0.67412 0.0
C460 C -0.00094 0.18188 0.71402 0.0
C461 C 0.99072 0.2211 0.72922 0.0
C462 C 0.9733 0.25987 0.71623 0.0
C463 C 0.96283 0.25896 0.68896 0.0
H464 H 0.44558 0.64245 0.80539 0.0
H465 H 0.48999 0.78193 0.81214 0.0
H466 H 0.46445 0.64324 0.75832 0.0
H467 H 0.51177 0.78203 0.76486 0.0
H468 H 0.50018 0.78202 0.67421 0.0
H469 H 0.47785 0.78175 0.7214 0.0
H470 H 0.52688 0.64359 0.72788 0.0
H471 H 0.54634 0.64314 0.68086 0.0
C472 C 0.46061 0.67306 0.79696 0.0
C473 C 0.46648 0.71212 0.81258 0.0
C474 C 0.47154 0.67349 0.76983 0.0
C475 C 0.48965 0.71271 0.75764 0.0
C476 C 0.49698 0.75148 0.77344 0.0
C477 C 0.48516 0.75128 0.80062 0.0
C478 C 0.50524 0.7514 0.68569 0.0
C479 C 0.52468 0.71254 0.67374 0.0
C480 C 0.4931 0.7514 0.71281 0.0
C481 C 0.50084 0.71274 0.72859 0.0
C482 C 0.51951 0.67375 0.71638 0.0
C483 C 0.53078 0.67351 0.68929 0.0
H484 H 0.99474 0.7398 0.17563 0.0
H485 H 0.94608 0.87817 0.18041 0.0
H486 H 0.01663 0.74207 0.22276 0.0
H487 H 0.96598 0.87984 0.22765 0.0
H488 H 0.04816 0.87867 0.307 0.0
H489 H 0.02841 0.87993 0.25972 0.0
H490 H 0.97707 0.74232 0.26489 0.0
H491 H -0.0012 0.74048 0.31203 0.0
C492 C 0.9891 0.77081 0.18669 0.0
C493 C 0.96863 0.80875 0.17428 0.0
C494 C 0.00104 0.77195 0.21379 0.0
C495 C 0.99224 0.81087 0.22915 0.0
C496 C 0.97357 0.84939 0.21644 0.0
C497 C 0.96219 0.84843 0.18929 0.0
C498 C 0.03193 0.8489 0.29817 0.0
C499 C 0.02523 0.80938 0.31325 0.0
C500 C 0.02063 0.84961 0.27099 0.0
C501 C 0.00182 0.81101 0.25836 0.0
C502 C 0.99278 0.77225 0.2738 0.0
C503 C 0.00463 0.77136 0.30091 0.0
H504 H 0.46351 0.25457 0.49192 0.0
H505 H 0.53468 0.19248 0.42446 0.0
H506 H 0.53669 0.24746 0.51807 0.0
H507 H 0.60782 0.18357 0.45117 0.0
H508 H 0.74579 0.23006 0.49463 0.0
H509 H 0.67121 0.22899 0.46864 0.0
H510 H 0.59034 0.1997 0.54041 0.0
H511 H 0.66435 0.20276 0.56639 0.0
C512 C 0.49441 0.2383 0.48283 0.0
C513 C 0.49313 0.2243 0.45598 0.0
C514 C 0.53658 0.23409 0.49793 0.0
C515 C 0.57856 0.21526 0.48675 0.0
C516 C 0.57657 0.19915 0.46029 0.0
C517 C 0.53441 0.20377 0.44505 0.0
C518 C 0.71203 0.22354 0.50482 0.0
C519 C 0.71103 0.21703 0.53263 0.0
C520 C 0.66924 0.22246 0.48989 0.0
C521 C 0.6245 0.21428 0.50236 0.0
C522 C 0.62383 0.20698 0.53012 0.0
C523 C 0.66642 0.20864 0.54506 0.0
H524 H 0.02879 0.24227 -0.0062 0.0
H525 H 0.9625 0.31575 0.92882 0.0
H526 H 0.95472 0.24821 0.01933 0.0
H527 H 0.88856 0.323 0.95488 0.0
H528 H 0.82743 0.29446 0.06778 0.0
H529 H 0.90234 0.29717 0.04282 0.0
H530 H 0.82337 0.27519 0.9694 0.0
H531 H 0.74773 0.27407 -0.00557 0.0
C532 C -0.00119 0.26067 0.98518 0.0
C533 C 0.00162 0.27833 0.95916 0.0
C534 C 0.9562 0.26414 -0.00011 0.0
C535 C 0.9154 0.28572 0.98908 0.0
C536 C 0.91895 0.30532 0.96358 0.0
C537 C 0.96155 0.30161 0.94876 0.0
C538 C 0.82588 0.29007 0.04631 0.0
C539 C 0.78148 0.28372 0.03313 0.0
C540 C 0.869 0.29154 0.03198 0.0
C541 C 0.86904 0.28628 0.00409 0.0
C542 C 0.82463 0.28005 0.99084 0.0
C543 C 0.78129 0.27896 0.00519 0.0
H544 H 0.96527 0.23981 0.49371 0.0
H545 H 0.03132 0.31353 0.5588 0.0
H546 H 0.03923 0.24639 0.46811 0.0
H547 H 0.10515 0.32141 0.53269 0.0
H548 H 0.16524 0.295 0.41939 0.0
H549 H 0.09064 0.29632 0.44466 0.0
H550 H 0.17089 0.27479 0.51766 0.0
H551 H 0.2462 0.27505 0.49232 0.0
C552 C 0.9952 0.25835 0.50236 0.0
C553 C 0.9923 0.27599 0.52839 0.0
C554 C 0.03774 0.2622 0.48761 0.0
C555 C 0.07841 0.28414 0.49839 0.0
C556 C 0.07486 0.3035 0.52398 0.0
C557 C 0.03232 0.29941 0.53884 0.0
C558 C 0.16715 0.29042 0.44083 0.0
C559 C 0.21181 0.28459 0.4538 0.0
C560 C 0.1242 0.29108 0.45534 0.0
C561 C 0.12458 0.2855 0.48321 0.0
C562 C 0.16927 0.27984 0.49625 0.0
C563 C 0.21244 0.27956 0.48171 0.0
H564 H 0.45796 0.19055 0.06133 0.0
H565 H 0.5301 0.25199 -0.00599 0.0
H566 H 0.38497 0.18184 0.03447 0.0
H567 H 0.45704 0.24503 0.96767 0.0
H568 H 0.2477 0.22931 0.99125 0.0
H569 H 0.32234 0.2279 0.01708 0.0
H570 H 0.40256 0.19776 0.94521 0.0
H571 H 0.32835 0.20105 0.91934 0.0
C572 C 0.45848 0.20173 0.04074 0.0
C573 C 0.49998 0.22207 0.02992 0.0
C574 C 0.41641 0.19722 0.0254 0.0
C575 C 0.41469 0.21325 -0.00106 0.0
C576 C 0.45692 0.23178 0.98783 0.0
C577 C 0.49901 0.2359 0.00304 0.0
C578 C 0.28131 0.2225 0.98098 0.0
C579 C 0.28202 0.21573 0.95318 0.0
C580 C 0.32415 0.22122 -0.00417 0.0
C581 C 0.36873 0.21264 0.98331 0.0
C582 C 0.36919 0.20525 0.95554 0.0
C583 C 0.32649 0.20705 0.94066 0.0
H584 H 0.53147 0.75858 0.49371 0.0
H585 H 0.46049 0.8185 0.56194 0.0
H586 H 0.45714 0.76342 0.46838 0.0
H587 H 0.38606 0.82485 0.53607 0.0
H588 H 0.32688 0.80517 0.42165 0.0
H589 H 0.40116 0.81088 0.44703 0.0
H590 H 0.32403 0.7757 0.51911 0.0
H591 H 0.24874 0.7717 0.49366 0.0
C592 C 0.50035 0.77389 0.50314 0.0
C593 C 0.50206 0.78789 0.52998 0.0
C594 C 0.45752 0.77676 0.48852 0.0
C595 C 0.41528 0.79413 0.50022 0.0
C596 C 0.41761 0.81041 0.52661 0.0
C597 C 0.4605 0.80728 0.54134 0.0
C598 C 0.32559 0.79849 0.44291 0.0
C599 C 0.2818 0.7875 0.45557 0.0
C600 C 0.36839 0.80172 0.45749 0.0
C601 C 0.36884 0.79351 0.48513 0.0
C602 C 0.32497 0.78286 0.49791 0.0
C603 C 0.28185 0.78011 0.48329 0.0
H604 H 0.95801 0.7161 -0.00406 0.0
H605 H 0.04526 0.72523 0.06732 0.0
H606 H 0.03091 0.70886 0.96905 0.0
H607 H 0.11789 0.72071 0.04057 0.0
H608 H 0.24399 0.68425 0.98829 0.0
H609 H 0.17023 0.67961 0.01445 0.0
H610 H 0.09382 0.75275 0.95273 0.0
H611 H 0.16713 0.75483 0.92598 0.0
C612 C 0.99274 0.71617 0.00591 0.0
C613 C 0.99571 0.72124 0.03379 0.0
C614 C 0.03469 0.71262 0.99046 0.0
C615 C 0.08072 0.71489 0.00245 0.0
C616 C 0.0834 0.71819 0.03048 0.0
C617 C 0.04152 0.7209 0.04593 0.0
C618 C 0.21142 0.69945 0.98037 0.0
C619 C 0.21146 0.7201 0.95512 0.0
C620 C 0.16899 0.69692 -0.00457 0.0
C621 C 0.12562 0.7158 0.98587 0.0
C622 C 0.12598 0.73686 0.96063 0.0
C623 C 0.16823 0.73857 0.94535 0.0
H624 H 0.94886 0.72582 0.41946 0.0
H625 H 0.03502 0.71624 0.49122 0.0
H626 H 0.87584 0.72186 0.44586 0.0
H627 H 0.96165 0.7095 0.51777 0.0
H628 H 0.82573 0.75704 0.56025 0.0
H629 H 0.89923 0.75416 0.53374 0.0
H630 H 0.82243 0.6816 0.47178 0.0
H631 H 0.74844 0.68708 0.49772 0.0
C632 C 0.95228 0.72149 0.44087 0.0
C633 C -0.00209 0.7216 0.45321 0.0
C634 C 0.91014 0.71909 0.45611 0.0
C635 C 0.91239 0.71587 0.48415 0.0
C636 C 0.95822 0.71325 0.49634 0.0
C637 C 0.00044 0.7165 0.48109 0.0
C638 C 0.82458 0.74076 0.54087 0.0
C639 C 0.78119 0.72266 0.53098 0.0
C640 C 0.86694 0.73856 0.52574 0.0
C641 C 0.86728 0.71736 0.50052 0.0
C642 C 0.82372 0.69895 0.4908 0.0
C643 C 0.78115 0.70199 0.50572 0.0
H644 H 0.74563 0.77006 -0.00616 0.0
H645 H 0.66626 0.79911 0.06614 0.0
H646 H 0.67031 0.77239 0.96838 0.0
H647 H 0.59187 0.80311 0.04075 0.0
H648 H 0.5328 0.81428 0.92612 0.0
H649 H 0.60711 0.82084 0.95208 0.0
H650 H 0.53744 0.7546 0.01861 0.0
H651 H 0.46316 0.74947 0.99318 0.0
C652 C 0.71223 0.77712 0.00427 0.0
C653 C 0.71199 0.78385 0.03207 0.0
C654 C 0.66909 0.77891 0.98966 0.0
C655 C 0.62488 0.78786 0.0025 0.0
C656 C 0.62497 0.79527 0.03023 0.0
C657 C 0.66782 0.79305 0.04481 0.0
C658 C 0.53309 0.80194 0.94649 0.0
C659 C 0.49193 0.78126 0.95751 0.0
C660 C 0.5759 0.80522 0.96126 0.0
C661 C 0.57855 0.78779 0.98735 0.0
C662 C 0.53674 0.76887 -0.00129 0.0
C663 C 0.49397 0.76585 0.98404 0.0
loop_
_geom_bond_atom_site_label_1
_geom_bond_atom_site_label_2
_geom_bond_distance
_geom_bond_site_symmetry_2
_ccdc_geom_bond_type
O0 Zn1 1.953 . S
O0 C16 1.225 . S
Zn1 O0 1.953 . S
Zn1 O2 1.949 . S
Zn1 O8 1.919 . S
Zn1 O13 1.924 . S
O2 Zn1 1.949 . S
O2 Zn3 1.923 . S
O2 Zn4 1.950 . S
O2 Zn5 1.945 . S
Zn3 O2 1.923 . S
Zn3 O6 1.933 . S
Zn3 O9 1.941 . S
Zn3 O10 1.965 . S
Zn4 O2 1.950 . S
Zn4 O11 1.938 . S
Zn4 O12 1.906 . S
Zn4 O22 1.953 . S
Zn5 O2 1.945 . S
Zn5 O7 1.932 . S
Zn5 O14 1.977 . S
Zn5 O15 1.910 . S
O6 Zn3 1.933 . S
O6 C17 1.226 . S
O7 Zn5 1.932 . S
O7 C17 1.307 . S
O8 Zn1 1.919 . S
O8 C19 1.253 . S
O9 Zn3 1.941 . S
O9 C19 1.283 . S
O10 Zn3 1.965 . S
O10 C18 1.303 . S
O11 Zn4 1.938 . S
O11 C18 1.247 . S
O12 Zn4 1.906 . S
O12 C20 1.304 . S
O13 Zn1 1.924 . S
O13 C21 1.311 . S
O14 Zn5 1.977 . S
O14 C20 1.272 . S
O15 Zn5 1.910 . S
O15 C21 1.231 . S
C16 O0 1.225 . S
C16 O22 1.298 . S
C17 O6 1.226 . S
C17 O7 1.307 . S
C18 O10 1.303 . S
C18 O11 1.247 . S
C19 O8 1.253 . S
C19 O9 1.283 . S
C20 O12 1.304 . S
C20 O14 1.272 . S
C21 O13 1.311 . S
C21 O15 1.231 . S
O22 Zn4 1.953 . S
O22 C16 1.298 . S
O23 Zn24 1.953 . S
O23 C39 1.225 . S
Zn24 O23 1.953 . S
Zn24 O25 1.949 . S
Zn24 O31 1.919 . S
Zn24 O36 1.924 . S
O25 Zn24 1.949 . S
O25 Zn26 1.923 . S
O25 Zn27 1.950 . S
O25 Zn28 1.945 . S
Zn26 O25 1.923 . S
Zn26 O29 1.933 . S
Zn26 O32 1.941 . S
Zn26 O33 1.965 . S
Zn27 O25 1.950 . S
Zn27 O34 1.938 . S
Zn27 O35 1.906 . S
Zn27 O45 1.953 . S
Zn28 O25 1.945 . S
Zn28 O30 1.932 . S
Zn28 O37 1.977 . S
Zn28 O38 1.910 . S
O29 Zn26 1.933 . S
O29 C40 1.226 . S
O30 Zn28 1.932 . S
O30 C40 1.307 . S
O31 Zn24 1.919 . S
O31 C42 1.253 . S
O32 Zn26 1.941 . S
O32 C42 1.283 . S
O33 Zn26 1.965 . S
O33 C41 1.303 . S
O34 Zn27 1.938 . S
O34 C41 1.247 . S
O35 Zn27 1.906 . S
O35 C43 1.304 . S
O36 Zn24 1.924 . S
O36 C44 1.311 . S
O37 Zn28 1.977 . S
O37 C43 1.272 . S
O38 Zn28 1.910 . S
O38 C44 1.231 . S
C39 O23 1.225 . S
C39 O45 1.298 . S
C40 O29 1.226 . S
C40 O30 1.307 . S
C41 O33 1.303 . S
C41 O34 1.247 . S
C42 O31 1.253 . S
C42 O32 1.283 . S
C43 O35 1.304 . S
C43 O37 1.272 . S
C44 O36 1.311 . S
C44 O38 1.231 . S
O45 Zn27 1.953 . S
O45 C39 1.298 . S
O46 Zn47 1.953 . S
O46 C62 1.225 . S
Zn47 O46 1.953 . S
Zn47 O48 1.949 . S
Zn47 O54 1.919 . S
Zn47 O59 1.924 . S
O48 Zn47 1.949 . S
O48 Zn49 1.923 . S
O48 Zn50 1.950 . S
O48 Zn51 1.945 . S
Zn49 O48 1.923 . S
Zn49 O52 1.933 . S
Zn49 O55 1.941 . S
Zn49 O56 1.965 . S
Zn50 O48 1.950 . S
Zn50 O57 1.938 . S
Zn50 O58 1.906 . S
Zn50 O68 1.953 . S
Zn51 O48 1.945 . S
Zn51 O53 1.932 . S
Zn51 O60 1.977 . S
Zn51 O61 1.910 . S
O52 Zn49 1.933 . S
O52 C63 1.226 . S
O53 Zn51 1.932 . S
O53 C63 1.307 . S
O54 Zn47 1.919 . S
O54 C65 1.253 . S
O55 Zn49 1.941 . S
O55 C65 1.283 . S
O56 Zn49 1.965 . S
O56 C64 1.303 . S
O57 Zn50 1.938 . S
O57 C64 1.247 . S
O58 Zn50 1.906 . S
O58 C66 1.304 . S
O59 Zn47 1.924 . S
O59 C67 1.311 . S
O60 Zn51 1.977 . S
O60 C66 1.272 . S
O61 Zn51 1.910 . S
O61 C67 1.231 . S
C62 O46 1.225 . S
C62 O68 1.298 . S
C63 O52 1.226 . S
C63 O53 1.307 . S
C64 O56 1.303 . S
C64 O57 1.247 . S
C65 O54 1.253 . S
C65 O55 1.283 . S
C66 O58 1.304 . S
C66 O60 1.272 . S
C67 O59 1.311 . S
C67 O61 1.231 . S
O68 Zn50 1.953 . S
O68 C62 1.298 . S
O69 Zn70 1.953 . S
O69 C85 1.225 . S
Zn70 O69 1.953 . S
Zn70 O71 1.949 . S
Zn70 O77 1.919 . S
Zn70 O82 1.924 . S
O71 Zn70 1.949 . S
O71 Zn72 1.923 . S
O71 Zn73 1.950 . S
O71 Zn74 1.945 . S
Zn72 O71 1.923 . S
Zn72 O75 1.933 . S
Zn72 O78 1.941 . S
Zn72 O79 1.965 . S
Zn73 O71 1.950 . S
Zn73 O80 1.938 . S
Zn73 O81 1.906 . S
Zn73 O91 1.953 . S
Zn74 O71 1.945 . S
Zn74 O76 1.932 . S
Zn74 O83 1.977 . S
Zn74 O84 1.910 . S
O75 Zn72 1.933 . S
O75 C86 1.226 . S
O76 Zn74 1.932 . S
O76 C86 1.307 . S
O77 Zn70 1.919 . S
O77 C88 1.253 . S
O78 Zn72 1.941 . S
O78 C88 1.283 . S
O79 Zn72 1.965 . S
O79 C87 1.303 . S
O80 Zn73 1.938 . S
O80 C87 1.247 . S
O81 Zn73 1.906 . S
O81 C89 1.304 . S
O82 Zn70 1.924 . S
O82 C90 1.311 . S
O83 Zn74 1.977 . S
O83 C89 1.272 . S
O84 Zn74 1.910 . S
O84 C90 1.231 . S
C85 O69 1.225 . S
C85 O91 1.298 . S
C86 O75 1.226 . S
C86 O76 1.307 . S
C87 O79 1.303 . S
C87 O80 1.247 . S
C88 O77 1.253 . S
C88 O78 1.283 . S
C89 O81 1.304 . S
C89 O83 1.272 . S
C90 O82 1.311 . S
C90 O84 1.231 . S
O91 Zn73 1.953 . S
O91 C85 1.298 . S
O92 Zn93 1.953 . S
O92 C108 1.225 . S
Zn93 O92 1.953 . S
Zn93 O94 1.949 . S
Zn93 O100 1.919 . S
Zn93 O105 1.924 . S
O94 Zn93 1.949 . S
O94 Zn95 1.923 . S
O94 Zn96 1.950 . S
O94 Zn97 1.945 . S
Zn95 O94 1.923 . S
Zn95 O98 1.933 . S
Zn95 O101 1.941 . S
Zn95 O102 1.965 . S
Zn96 O94 1.950 . S
Zn96 O103 1.938 . S
Zn96 O104 1.906 . S
Zn96 O114 1.953 . S
Zn97 O94 1.945 . S
Zn97 O99 1.932 . S
Zn97 O106 1.977 . S
Zn97 O107 1.910 . S
O98 Zn95 1.933 . S
O98 C109 1.226 . S
O99 Zn97 1.932 . S
O99 C109 1.307 . S
O100 Zn93 1.919 . S
O100 C111 1.253 . S
O101 Zn95 1.941 . S
O101 C111 1.283 . S
O102 Zn95 1.965 . S
O102 C110 1.303 . S
O103 Zn96 1.938 . S
O103 C110 1.247 . S
O104 Zn96 1.906 . S
O104 C112 1.304 . S
O105 Zn93 1.924 . S
O105 C113 1.311 . S
O106 Zn97 1.977 . S
O106 C112 1.272 . S
O107 Zn97 1.910 . S
O107 C113 1.231 . S
C108 O92 1.225 . S
C108 O114 1.298 . S
C109 O98 1.226 . S
C109 O99 1.307 . S
C110 O102 1.303 . S
C110 O103 1.247 . S
C111 O100 1.253 . S
C111 O101 1.283 . S
C112 O104 1.304 . S
C112 O106 1.272 . S
C113 O105 1.311 . S
C113 O107 1.231 . S
O114 Zn96 1.953 . S
O114 C108 1.298 . S
O115 Zn116 1.953 . S
O115 C131 1.225 . S
Zn116 O115 1.953 . S
Zn116 O117 1.949 . S
Zn116 O123 1.919 . S
Zn116 O128 1.924 . S
O117 Zn116 1.949 . S
O117 Zn118 1.923 . S
O117 Zn119 1.950 . S
O117 Zn120 1.945 . S
Zn118 O117 1.923 . S
Zn118 O121 1.933 . S
Zn118 O124 1.941 . S
Zn118 O125 1.965 . S
Zn119 O117 1.950 . S
Zn119 O126 1.938 . S
Zn119 O127 1.906 . S
Zn119 O137 1.953 . S
Zn120 O117 1.945 . S
Zn120 O122 1.932 . S
Zn120 O129 1.977 . S
Zn120 O130 1.910 . S
O121 Zn118 1.933 . S
O121 C132 1.226 . S
O122 Zn120 1.932 . S
O122 C132 1.307 . S
O123 Zn116 1.919 . S
O123 C134 1.253 . S
O124 Zn118 1.941 . S
O124 C134 1.283 . S
O125 Zn118 1.965 . S
O125 C133 1.303 . S
O126 Zn119 1.938 . S
O126 C133 1.247 . S
O127 Zn119 1.906 . S
O127 C135 1.304 . S
O128 Zn116 1.924 . S
O128 C136 1.311 . S
O129 Zn120 1.977 . S
O129 C135 1.272 . S
O130 Zn120 1.910 . S
O130 C136 1.231 . S
C131 O115 1.225 . S
C131 O137 1.298 . S
C132 O121 1.226 . S
C132 O122 1.307 . S
C133 O125 1.303 . S
C133 O126 1.247 . S
C134 O123 1.253 . S
C134 O124 1.283 . S
C135 O127 1.304 . S
C135 O129 1.272 . S
C136 O128 1.311 . S
C136 O130 1.231 . S
O137 Zn119 1.953 . S
O137 C131 1.298 . S
O138 Zn139 1.953 . S
O138 C154 1.225 . S
Zn139 O138 1.953 . S
Zn139 O140 1.949 . S
Zn139 O146 1.919 . S
Zn139 O151 1.924 . S
O140 Zn139 1.949 . S
O140 Zn141 1.923 . S
O140 Zn142 1.950 . S
O140 Zn143 1.945 . S
Zn141 O140 1.923 . S
Zn141 O144 1.933 . S
Zn141 O147 1.941 . S
Zn141 O148 1.965 . S
Zn142 O140 1.950 . S
Zn142 O149 1.938 . S
Zn142 O150 1.906 . S
Zn142 O160 1.953 . S
Zn143 O140 1.945 . S
Zn143 O145 1.932 . S
Zn143 O152 1.977 . S
Zn143 O153 1.910 . S
O144 Zn141 1.933 . S
O144 C155 1.226 . S
O145 Zn143 1.932 . S
O145 C155 1.307 . S
O146 Zn139 1.919 . S
O146 C157 1.253 . S
O147 Zn141 1.941 . S
O147 C157 1.283 . S
O148 Zn141 1.965 . S
O148 C156 1.303 . S
O149 Zn142 1.938 . S
O149 C156 1.247 . S
O150 Zn142 1.906 . S
O150 C158 1.304 . S
O151 Zn139 1.924 . S
O151 C159 1.311 . S
O152 Zn143 1.977 . S
O152 C158 1.272 . S
O153 Zn143 1.910 . S
O153 C159 1.231 . S
C154 O138 1.225 . S
C154 O160 1.298 . S
C155 O144 1.226 . S
C155 O145 1.307 . S
C156 O148 1.303 . S
C156 O149 1.247 . S
C157 O146 1.253 . S
C157 O147 1.283 . S
C158 O150 1.304 . S
C158 O152 1.272 . S
C159 O151 1.311 . S
C159 O153 1.231 . S
O160 Zn142 1.953 . S
O160 C154 1.298 . S
O161 Zn162 1.953 . S
O161 C177 1.225 . S
Zn162 O161 1.953 . S
Zn162 O163 1.949 . S
Zn162 O169 1.919 . S
Zn162 O174 1.924 . S
O163 Zn162 1.949 . S
O163 Zn164 1.923 . S
O163 Zn165 1.950 . S
O163 Zn166 1.945 . S
Zn164 O163 1.923 . S
Zn164 O167 1.933 . S
Zn164 O170 1.941 . S
Zn164 O171 1.965 . S
Zn165 O163 1.950 . S
Zn165 O172 1.938 . S
Zn165 O173 1.906 . S
Zn165 O183 1.953 . S
Zn166 O163 1.945 . S
Zn166 O168 1.932 . S
Zn166 O175 1.977 . S
Zn166 O176 1.910 . S
O167 Zn164 1.933 . S
O167 C178 1.226 . S
O168 Zn166 1.932 . S
O168 C178 1.307 . S
O169 Zn162 1.919 . S
O169 C180 1.253 . S
O170 Zn164 1.941 . S
O170 C180 1.283 . S
O171 Zn164 1.965 . S
O171 C179 1.303 . S
O172 Zn165 1.938 . S
O172 C179 1.247 . S
O173 Zn165 1.906 . S
O173 C181 1.304 . S
O174 Zn162 1.924 . S
O174 C182 1.311 . S
O175 Zn166 1.977 . S
O175 C181 1.272 . S
O176 Zn166 1.910 . S
O176 C182 1.231 . S
C177 O161 1.225 . S
C177 O183 1.298 . S
C178 O167 1.226 . S
C178 O168 1.307 . S
C179 O171 1.303 . S
C179 O172 1.247 . S
C180 O169 1.253 . S
C180 O170 1.283 . S
C181 O173 1.304 . S
C181 O175 1.272 . S
C182 O174 1.311 . S
C182 O176 1.231 . S
O183 Zn165 1.953 . S
O183 C177 1.298 . S
H184 C192 0.950 . S
H185 C197 0.950 . S
H186 C194 0.950 . S
H187 C196 0.950 . S
H188 C198 0.950 . S
H189 C200 0.950 . S
H190 C202 0.950 . S
H191 C203 0.950 . S
C192 H184 0.950 . S
C192 C193 1.386 . S
C192 C194 1.391 1_565 S
C193 C192 1.386 . S
C193 C197 1.393 . S
C194 H186 0.950 . S
C194 C192 1.391 1_545 S
C194 C195 1.400 . S
C195 C194 1.400 . S
C195 C196 1.398 . S
C195 C201 1.491 . S
C196 H187 0.950 . S
C196 C195 1.398 . S
C196 C197 1.391 1_545 S
C197 H185 0.950 . S
C197 C193 1.393 . S
C197 C196 1.391 1_565 S
C198 H188 0.950 . S
C198 C199 1.386 . S
C198 C200 1.391 . S
C199 C198 1.386 . S
C199 C203 1.393 . S
C200 H189 0.950 . S
C200 C198 1.391 . S
C200 C201 1.400 . S
C201 C195 1.491 . S
C201 C200 1.400 . S
C201 C202 1.398 . S
C202 H190 0.950 . S
C202 C201 1.398 . S
C202 C203 1.391 . S
C203 H191 0.950 . S
C203 C199 1.393 . S
C203 C202 1.391 . S
H204 C212 0.950 . S
H205 C217 0.950 . S
H206 C214 0.950 . S
H207 C216 0.950 . S
H208 C218 0.950 . S
H209 C220 0.950 . S
H210 C222 0.950 . S
H211 C223 0.950 . S
C212 H204 0.950 . S
C212 C213 1.386 . S
C212 C214 1.391 . S
C213 C212 1.386 . S
C213 C217 1.393 . S
C214 H206 0.950 . S
C214 C212 1.391 . S
C214 C215 1.400 . S
C215 C214 1.400 . S
C215 C216 1.398 . S
C215 C221 1.491 . S
C216 H207 0.950 . S
C216 C215 1.398 . S
C216 C217 1.391 . S
C217 H205 0.950 . S
C217 C213 1.393 . S
C217 C216 1.391 . S
C218 H208 0.950 . S
C218 C219 1.386 . S
C218 C220 1.391 . S
C219 C218 1.386 . S
C219 C223 1.393 . S
C220 H209 0.950 . S
C220 C218 1.391 . S
C220 C221 1.400 . S
C221 C215 1.491 . S
C221 C220 1.400 . S
C221 C222 1.398 . S
C222 H210 0.950 . S
C222 C221 1.398 . S
C222 C223 1.391 . S
C223 H211 0.950 . S
C223 C219 1.393 . S
C223 C222 1.391 . S
H224 C232 0.950 . S
H225 C237 0.950 . S
H226 C234 0.950 . S
H227 C236 0.950 . S
H228 C238 0.950 . S
H229 C240 0.950 . S
H230 C242 0.950 . S
H231 C243 0.950 . S
C232 H224 0.950 . S
C232 C233 1.386 . S
C232 C234 1.391 . S
C233 C232 1.386 . S
C233 C237 1.393 . S
C234 H226 0.950 . S
C234 C232 1.391 . S
C234 C235 1.400 . S
C235 C234 1.400 . S
C235 C236 1.398 . S
C235 C241 1.491 . S
C236 H227 0.950 . S
C236 C235 1.398 . S
C236 C237 1.391 . S
C237 H225 0.950 . S
C237 C233 1.393 . S
C237 C236 1.391 . S
C238 H228 0.950 . S
C238 C239 1.386 . S
C238 C240 1.391 . S
C239 C238 1.386 . S
C239 C243 1.393 . S
C240 H229 0.950 . S
C240 C238 1.391 . S
C240 C241 1.400 . S
C241 C235 1.491 . S
C241 C240 1.400 . S
C241 C242 1.398 . S
C242 H230 0.950 . S
C242 C241 1.398 . S
C242 C243 1.391 . S
C243 H231 0.950 . S
C243 C239 1.393 . S
C243 C242 1.391 . S
H244 C252 0.950 . S
H245 C257 0.950 . S
H246 C254 0.950 . S
H247 C256 0.950 . S
H248 C258 0.950 . S
H249 C260 0.950 . S
H250 C262 0.950 . S
H251 C263 0.950 . S
C252 H244 0.950 . S
C252 C253 1.386 . S
C252 C254 1.391 . S
C253 C252 1.386 . S
C253 C257 1.393 . S
C254 H246 0.950 . S
C254 C252 1.391 . S
C254 C255 1.400 . S
C255 C254 1.400 . S
C255 C256 1.398 . S
C255 C261 1.491 . S
C256 H247 0.950 . S
C256 C255 1.398 . S
C256 C257 1.391 . S
C257 H245 0.950 . S
C257 C253 1.393 . S
C257 C256 1.391 . S
C258 H248 0.950 . S
C258 C259 1.386 . S
C258 C260 1.391 1_565 S
C259 C258 1.386 . S
C259 C263 1.393 . S
C260 H249 0.950 . S
C260 C258 1.391 1_545 S
C260 C261 1.400 . S
C261 C255 1.491 . S
C261 C260 1.400 . S
C261 C262 1.398 . S
C262 H250 0.950 . S
C262 C261 1.398 . S
C262 C263 1.391 1_545 S
C263 H251 0.950 . S
C263 C259 1.393 . S
C263 C262 1.391 1_565 S
H264 C272 0.950 . S
H265 C277 0.950 . S
H266 C274 0.950 . S
H267 C276 0.950 . S
H268 C278 0.950 . S
H269 C280 0.950 . S
H270 C282 0.950 . S
H271 C283 0.950 . S
C272 H264 0.950 . S
C272 C273 1.386 . S
C272 C274 1.391 1_545 S
C273 C272 1.386 . S
C273 C277 1.393 . S
C274 H266 0.950 . S
C274 C272 1.391 1_565 S
C274 C275 1.400 . S
C275 C274 1.400 . S
C275 C276 1.398 . S
C275 C281 1.491 . S
C276 H267 0.950 . S
C276 C275 1.398 . S
C276 C277 1.391 1_565 S
C277 H265 0.950 . S
C277 C273 1.393 . S
C277 C276 1.391 1_545 S
C278 H268 0.950 . S
C278 C279 1.386 . S
C278 C280 1.391 . S
C279 C278 1.386 . S
C279 C283 1.393 . S
C280 H269 0.950 . S
C280 C278 1.391 . S
C280 C281 1.400 . S
C281 C275 1.491 . S
C281 C280 1.400 . S
C281 C282 1.398 . S
C282 H270 0.950 . S
C282 C281 1.398 . S
C282 C283 1.391 . S
C283 H271 0.950 . S
C283 C279 1.393 . S
C283 C282 1.391 . S
H284 C292 0.950 . S
H285 C297 0.950 . S
H286 C294 0.950 . S
H287 C296 0.950 . S
H288 C298 0.950 . S
H289 C300 0.950 . S
H290 C302 0.950 . S
H291 C303 0.950 . S
C292 H284 0.950 . S
C292 C293 1.386 . S
C292 C294 1.391 . S
C293 C292 1.386 . S
C293 C297 1.393 . S
C294 H286 0.950 . S
C294 C292 1.391 . S
C294 C295 1.400 . S
C295 C294 1.400 . S
C295 C296 1.398 . S
C295 C301 1.491 . S
C296 H287 0.950 . S
C296 C295 1.398 . S
C296 C297 1.391 . S
C297 H285 0.950 . S
C297 C293 1.393 . S
C297 C296 1.391 . S
C298 H288 0.950 . S
C298 C299 1.386 . S
C298 C300 1.391 . S
C299 C298 1.386 . S
C299 C303 1.393 . S
C300 H289 0.950 . S
C300 C298 1.391 . S
C300 C301 1.400 . S
C301 C295 1.491 . S
C301 C300 1.400 . S
C301 C302 1.398 . S
C302 H290 0.950 . S
C302 C301 1.398 . S
C302 C303 1.391 . S
C303 H291 0.950 . S
C303 C299 1.393 . S
C303 C302 1.391 . S
H304 C312 0.950 . S
H305 C317 0.950 . S
H306 C314 0.950 . S
H307 C316 0.950 . S
H308 C318 0.950 . S
H309 C320 0.950 . S
H310 C322 0.950 . S
H311 C323 0.950 . S
C312 H304 0.950 . S
C312 C313 1.386 . S
C312 C314 1.391 . S
C313 C312 1.386 . S
C313 C317 1.393 . S
C314 H306 0.950 . S
C314 C312 1.391 . S
C314 C315 1.400 . S
C315 C314 1.400 . S
C315 C316 1.398 . S
C315 C321 1.491 . S
C316 H307 0.950 . S
C316 C315 1.398 . S
C316 C317 1.391 . S
C317 H305 0.950 . S
C317 C313 1.393 . S
C317 C316 1.391 . S
C318 H308 0.950 . S
C318 C319 1.386 . S
C318 C320 1.391 . S
C319 C318 1.386 . S
C319 C323 1.393 . S
C320 H309 0.950 . S
C320 C318 1.391 . S
C320 C321 1.400 . S
C321 C315 1.491 . S
C321 C320 1.400 . S
C321 C322 1.398 . S
C322 H310 0.950 . S
C322 C321 1.398 . S
C322 C323 1.391 . S
C323 H311 0.950 . S
C323 C319 1.393 . S
C323 C322 1.391 . S
H324 C332 0.950 . S
H325 C337 0.950 . S
H326 C334 0.950 . S
H327 C336 0.950 . S
H328 C338 0.950 . S
H329 C340 0.950 . S
H330 C342 0.950 . S
H331 C343 0.950 . S
C332 H324 0.950 . S
C332 C333 1.386 . S
C332 C334 1.391 1_545 S
C333 C332 1.386 . S
C333 C337 1.393 . S
C334 H326 0.950 . S
C334 C332 1.391 1_565 S
C334 C335 1.400 . S
C335 C334 1.400 . S
C335 C336 1.398 . S
C335 C341 1.491 . S
C336 H327 0.950 . S
C336 C335 1.398 . S
C336 C337 1.391 1_565 S
C337 H325 0.950 . S
C337 C333 1.393 . S
C337 C336 1.391 1_545 S
C338 H328 0.950 . S
C338 C339 1.386 . S
C338 C340 1.391 . S
C339 C338 1.386 . S
C339 C343 1.393 . S
C340 H329 0.950 . S
C340 C338 1.391 . S
C340 C341 1.400 . S
C341 C335 1.491 . S
C341 C340 1.400 . S
C341 C342 1.398 . S
C342 H330 0.950 . S
C342 C341 1.398 . S
C342 C343 1.391 . S
C343 H331 0.950 . S
C343 C339 1.393 . S
C343 C342 1.391 . S
H344 C352 0.950 . S
H345 C357 0.950 . S
H346 C354 0.950 . S
H347 C356 0.950 . S
H348 C358 0.950 . S
H349 C360 0.950 . S
H350 C362 0.950 . S
H351 C363 0.950 . S
C352 H344 0.950 . S
C352 C353 1.386 . S
C352 C354 1.391 . S
C353 C352 1.386 . S
C353 C357 1.393 . S
C354 H346 0.950 . S
C354 C352 1.391 . S
C354 C355 1.400 . S
C355 C354 1.400 . S
C355 C356 1.398 . S
C355 C361 1.491 . S
C356 H347 0.950 . S
C356 C355 1.398 . S
C356 C357 1.391 . S
C357 H345 0.950 . S
C357 C353 1.393 . S
C357 C356 1.391 . S
C358 H348 0.950 . S
C358 C359 1.386 . S
C358 C360 1.391 . S
C359 C358 1.386 . S
C359 C363 1.393 . S
C360 H349 0.950 . S
C360 C358 1.391 . S
C360 C361 1.400 . S
C361 C355 1.491 . S
C361 C360 1.400 . S
C361 C362 1.398 . S
C362 H350 0.950 . S
C362 C361 1.398 . S
C362 C363 1.391 . S
C363 H351 0.950 . S
C363 C359 1.393 . S
C363 C362 1.391 . S
H364 C372 0.950 . S
H365 C377 0.950 . S
H366 C374 0.950 . S
H367 C376 0.950 1_556 S
H368 C378 0.950 . S
H369 C380 0.950 . S
H370 C382 0.950 1_554 S
H371 C383 0.950 . S
C372 H364 0.950 . S
C372 C373 1.386 1_455 S
C372 C374 1.391 . S
C373 C372 1.386 1_655 S
C373 C377 1.393 . S
C374 H366 0.950 . S
C374 C372 1.391 . S
C374 C375 1.400 1_455 S
C375 C374 1.400 1_655 S
C375 C376 1.398 . S
C375 C381 1.491 1_664 S
C376 H367 0.950 1_554 S
C376 C375 1.398 . S
C376 C377 1.391 . S
C377 H365 0.950 . S
C377 C373 1.393 . S
C377 C376 1.391 . S
C378 H368 0.950 . S
C378 C379 1.386 1_655 S
C378 C380 1.391 . S
C379 C378 1.386 1_455 S
C379 C383 1.393 . S
C380 H369 0.950 . S
C380 C378 1.391 . S
C380 C381 1.400 1_655 S
C381 C375 1.491 1_446 S
C381 C380 1.400 1_455 S
C381 C382 1.398 . S
C382 H370 0.950 1_556 S
C382 C381 1.398 . S
C382 C383 1.391 . S
C383 H371 0.950 . S
C383 C379 1.393 . S
C383 C382 1.391 . S
H384 C392 0.950 . S
H385 C397 0.950 . S
H386 C394 0.950 1_565 S
H387 C396 0.950 . S
H388 C398 0.950 . S
H389 C400 0.950 1_545 S
H390 C402 0.950 . S
H391 C403 0.950 . S
C392 H384 0.950 . S
C392 C393 1.386 . S
C392 C394 1.391 . S
C393 C392 1.386 . S
C393 C397 1.393 1_655 S
C394 H386 0.950 1_545 S
C394 C392 1.391 . S
C394 C395 1.400 . S
C395 C394 1.400 . S
C395 C396 1.398 1_655 S
C395 C401 1.491 1_645 S
C396 H387 0.950 . S
C396 C395 1.398 1_455 S
C396 C397 1.391 . S
C397 H385 0.950 . S
C397 C393 1.393 1_455 S
C397 C396 1.391 . S
C398 H388 0.950 . S
C398 C399 1.386 . S
C398 C400 1.391 . S
C399 C398 1.386 . S
C399 C403 1.393 1_455 S
C400 H389 0.950 1_565 S
C400 C398 1.391 . S
C400 C401 1.400 . S
C401 C395 1.491 1_465 S
C401 C400 1.400 . S
C401 C402 1.398 1_455 S
C402 H390 0.950 . S
C402 C401 1.398 1_655 S
C402 C403 1.391 . S
C403 H391 0.950 . S
C403 C399 1.393 1_655 S
C403 C402 1.391 . S
H404 C412 0.950 . S
H405 C417 0.950 . S
H406 C414 0.950 1_554 S
H407 C416 0.950 . S
H408 C418 0.950 . S
H409 C420 0.950 1_556 S
H410 C422 0.950 . S
H411 C423 0.950 . S
C412 H404 0.950 . S
C412 C413 1.386 . S
C412 C414 1.391 . S
C413 C412 1.386 . S
C413 C417 1.393 . S
C414 H406 0.950 1_556 S
C414 C412 1.391 . S
C414 C415 1.400 . S
C415 C414 1.400 . S
C415 C416 1.398 . S
C415 C421 1.491 1_556 S
C416 H407 0.950 . S
C416 C415 1.398 . S
C416 C417 1.391 . S
C417 H405 0.950 . S
C417 C413 1.393 . S
C417 C416 1.391 . S
C418 H408 0.950 . S
C418 C419 1.386 . S
C418 C420 1.391 . S
C419 C418 1.386 . S
C419 C423 1.393 . S
C420 H409 0.950 1_554 S
C420 C418 1.391 . S
C420 C421 1.400 . S
C421 C415 1.491 1_554 S
C421 C420 1.400 . S
C421 C422 1.398 . S
C422 H410 0.950 . S
C422 C421 1.398 . S
C422 C423 1.391 . S
C423 H411 0.950 . S
C423 C419 1.393 . S
C423 C422 1.391 . S
H424 C432 0.950 . S
H425 C437 0.950 . S
H426 C434 0.950 . S
H427 C436 0.950 . S
H428 C438 0.950 . S
H429 C440 0.950 . S
H430 C442 0.950 . S
H431 C443 0.950 . S
C432 H424 0.950 . S
C432 C433 1.386 . S
C432 C434 1.391 . S
C433 C432 1.386 . S
C433 C437 1.393 . S
C434 H426 0.950 . S
C434 C432 1.391 . S
C434 C435 1.400 . S
C435 C434 1.400 . S
C435 C436 1.398 . S
C435 C441 1.491 . S
C436 H427 0.950 . S
C436 C435 1.398 . S
C436 C437 1.391 . S
C437 H425 0.950 . S
C437 C433 1.393 . S
C437 C436 1.391 . S
C438 H428 0.950 . S
C438 C439 1.386 . S
C438 C440 1.391 . S
C439 C438 1.386 . S
C439 C443 1.393 . S
C440 H429 0.950 . S
C440 C438 1.391 . S
C440 C441 1.400 . S
C441 C435 1.491 . S
C441 C440 1.400 . S
C441 C442 1.398 . S
C442 H430 0.950 . S
C442 C441 1.398 . S
C442 C443 1.391 . S
C443 H431 0.950 . S
C443 C439 1.393 . S
C443 C442 1.391 . S
H444 C452 0.950 . S
H445 C457 0.950 . S
H446 C454 0.950 . S
H447 C456 0.950 . S
H448 C458 0.950 . S
H449 C460 0.950 . S
H450 C462 0.950 . S
H451 C463 0.950 . S
C452 H444 0.950 . S
C452 C453 1.386 1_655 S
C452 C454 1.391 . S
C453 C452 1.386 1_455 S
C453 C457 1.393 . S
C454 H446 0.950 . S
C454 C452 1.391 . S
C454 C455 1.400 1_655 S
C455 C454 1.400 1_455 S
C455 C456 1.398 . S
C455 C461 1.491 1_455 S
C456 H447 0.950 . S
C456 C455 1.398 . S
C456 C457 1.391 . S
C457 H445 0.950 . S
C457 C453 1.393 . S
C457 C456 1.391 . S
C458 H448 0.950 . S
C458 C459 1.386 1_455 S
C458 C460 1.391 . S
C459 C458 1.386 1_655 S
C459 C463 1.393 . S
C460 H449 0.950 . S
C460 C458 1.391 . S
C460 C461 1.400 1_455 S
C461 C455 1.491 1_655 S
C461 C460 1.400 1_655 S
C461 C462 1.398 . S
C462 H450 0.950 . S
C462 C461 1.398 . S
C462 C463 1.391 . S
C463 H451 0.950 . S
C463 C459 1.393 . S
C463 C462 1.391 . S
H464 C472 0.950 . S
H465 C477 0.950 . S
H466 C474 0.950 . S
H467 C476 0.950 . S
H468 C478 0.950 . S
H469 C480 0.950 . S
H470 C482 0.950 . S
H471 C483 0.950 . S
C472 H464 0.950 . S
C472 C473 1.386 . S
C472 C474 1.391 . S
C473 C472 1.386 . S
C473 C477 1.393 . S
C474 H466 0.950 . S
C474 C472 1.391 . S
C474 C475 1.400 . S
C475 C474 1.400 . S
C475 C476 1.398 . S
C475 C481 1.491 . S
C476 H467 0.950 . S
C476 C475 1.398 . S
C476 C477 1.391 . S
C477 H465 0.950 . S
C477 C473 1.393 . S
C477 C476 1.391 . S
C478 H468 0.950 . S
C478 C479 1.386 . S
C478 C480 1.391 . S
C479 C478 1.386 . S
C479 C483 1.393 . S
C480 H469 0.950 . S
C480 C478 1.391 . S
C480 C481 1.400 . S
C481 C475 1.491 . S
C481 C480 1.400 . S
C481 C482 1.398 . S
C482 H470 0.950 . S
C482 C481 1.398 . S
C482 C483 1.391 . S
C483 H471 0.950 . S
C483 C479 1.393 . S
C483 C482 1.391 . S
H484 C492 0.950 . S
H485 C497 0.950 . S
H486 C494 0.950 . S
H487 C496 0.950 1_455 S
H488 C498 0.950 . S
H489 C500 0.950 . S
H490 C502 0.950 1_655 S
H491 C503 0.950 . S
C492 H484 0.950 . S
C492 C493 1.386 . S
C492 C494 1.391 . S
C493 C492 1.386 . S
C493 C497 1.393 . S
C494 H486 0.950 . S
C494 C492 1.391 . S
C494 C495 1.400 . S
C495 C494 1.400 . S
C495 C496 1.398 . S
C495 C501 1.491 1_655 S
C496 H487 0.950 1_655 S
C496 C495 1.398 . S
C496 C497 1.391 . S
C497 H485 0.950 . S
C497 C493 1.393 . S
C497 C496 1.391 . S
C498 H488 0.950 . S
C498 C499 1.386 . S
C498 C500 1.391 . S
C499 C498 1.386 . S
C499 C503 1.393 . S
C500 H489 0.950 . S
C500 C498 1.391 . S
C500 C501 1.400 . S
C501 C495 1.491 1_455 S
C501 C500 1.400 . S
C501 C502 1.398 . S
C502 H490 0.950 1_455 S
C502 C501 1.398 . S
C502 C503 1.391 . S
C503 H491 0.950 . S
C503 C499 1.393 . S
C503 C502 1.391 . S
H504 C512 0.950 . S
H505 C517 0.950 . S
H506 C514 0.950 . S
H507 C516 0.950 . S
H508 C518 0.950 . S
H509 C520 0.950 . S
H510 C522 0.950 . S
H511 C523 0.950 . S
C512 H504 0.950 . S
C512 C513 1.386 . S
C512 C514 1.391 . S
C513 C512 1.386 . S
C513 C517 1.393 . S
C514 H506 0.950 . S
C514 C512 1.391 . S
C514 C515 1.400 . S
C515 C514 1.400 . S
C515 C516 1.398 . S
C515 C521 1.491 . S
C516 H507 0.950 . S
C516 C515 1.398 . S
C516 C517 1.391 . S
C517 H505 0.950 . S
C517 C513 1.393 . S
C517 C516 1.391 . S
C518 H508 0.950 . S
C518 C519 1.386 . S
C518 C520 1.391 . S
C519 C518 1.386 . S
C519 C523 1.393 . S
C520 H509 0.950 . S
C520 C518 1.391 . S
C520 C521 1.400 . S
C521 C515 1.491 . S
C521 C520 1.400 . S
C521 C522 1.398 . S
C522 H510 0.950 . S
C522 C521 1.398 . S
C522 C523 1.391 . S
C523 H511 0.950 . S
C523 C519 1.393 . S
C523 C522 1.391 . S
H524 C532 0.950 . S
H525 C537 0.950 . S
H526 C534 0.950 . S
H527 C536 0.950 . S
H528 C538 0.950 . S
H529 C540 0.950 1_556 S
H530 C542 0.950 1_556 S
H531 C543 0.950 . S
C532 H524 0.950 . S
C532 C533 1.386 . S
C532 C534 1.391 . S
C533 C532 1.386 . S
C533 C537 1.393 . S
C534 H526 0.950 . S
C534 C532 1.391 . S
C534 C535 1.400 . S
C535 C534 1.400 . S
C535 C536 1.398 . S
C535 C541 1.491 . S
C536 H527 0.950 . S
C536 C535 1.398 . S
C536 C537 1.391 . S
C537 H525 0.950 . S
C537 C533 1.393 . S
C537 C536 1.391 . S
C538 H528 0.950 . S
C538 C539 1.386 . S
C538 C540 1.391 . S
C539 C538 1.386 . S
C539 C543 1.393 . S
C540 H529 0.950 1_554 S
C540 C538 1.391 . S
C540 C541 1.400 1_554 S
C541 C535 1.491 . S
C541 C540 1.400 1_556 S
C541 C542 1.398 1_556 S
C542 H530 0.950 1_554 S
C542 C541 1.398 1_554 S
C542 C543 1.391 . S
C543 H531 0.950 . S
C543 C539 1.393 . S
C543 C542 1.391 . S
H544 C552 0.950 . S
H545 C557 0.950 . S
H546 C554 0.950 . S
H547 C556 0.950 . S
H548 C558 0.950 . S
H549 C560 0.950 . S
H550 C562 0.950 . S
H551 C563 0.950 . S
C552 H544 0.950 . S
C552 C553 1.386 . S
C552 C554 1.391 . S
C553 C552 1.386 . S
C553 C557 1.393 . S
C554 H546 0.950 . S
C554 C552 1.391 . S
C554 C555 1.400 . S
C555 C554 1.400 . S
C555 C556 1.398 . S
C555 C561 1.491 . S
C556 H547 0.950 . S
C556 C555 1.398 . S
C556 C557 1.391 . S
C557 H545 0.950 . S
C557 C553 1.393 . S
C557 C556 1.391 . S
C558 H548 0.950 . S
C558 C559 1.386 . S
C558 C560 1.391 . S
C559 C558 1.386 . S
C559 C563 1.393 . S
C560 H549 0.950 . S
C560 C558 1.391 . S
C560 C561 1.400 . S
C561 C555 1.491 . S
C561 C560 1.400 . S
C561 C562 1.398 . S
C562 H550 0.950 . S
C562 C561 1.398 . S
C562 C563 1.391 . S
C563 H551 0.950 . S
C563 C559 1.393 . S
C563 C562 1.391 . S
H564 C572 0.950 . S
H565 C577 0.950 . S
H566 C574 0.950 . S
H567 C576 0.950 . S
H568 C578 0.950 . S
H569 C580 0.951 . S
H570 C582 0.942 1_554 S
H571 C583 0.950 . S
C572 H564 0.950 . S
C572 C573 1.386 . S
C572 C574 1.391 . S
C573 C572 1.386 . S
C573 C577 1.393 . S
C574 H566 0.950 . S
C574 C572 1.391 . S
C574 C575 1.400 . S
C575 C574 1.400 . S
C575 C576 1.398 . S
C575 C581 1.491 . S
C576 H567 0.950 . S
C576 C575 1.398 . S
C576 C577 1.391 . S
C577 H565 0.950 . S
C577 C573 1.393 . S
C577 C576 1.391 . S
C578 H568 0.950 . S
C578 C579 1.386 . S
C578 C580 1.391 . S
C579 C578 1.386 . S
C579 C583 1.393 . S
C580 H569 0.951 . S
C580 C578 1.391 . S
C580 C581 1.400 1_556 S
C581 C575 1.491 . S
C581 C580 1.400 1_554 S
C581 C582 1.398 1_554 S
C582 H570 0.942 1_556 S
C582 C581 1.398 1_556 S
C582 C583 1.391 . S
C583 H571 0.950 . S
C583 C579 1.393 . S
C583 C582 1.391 . S
H584 C592 0.950 . S
H585 C597 0.950 . S
H586 C594 0.950 . S
H587 C596 0.950 . S
H588 C598 0.950 . S
H589 C600 0.950 . S
H590 C602 0.950 . S
H591 C603 0.950 . S
C592 H584 0.950 . S
C592 C593 1.386 . S
C592 C594 1.391 . S
C593 C592 1.386 . S
C593 C597 1.393 . S
C594 H586 0.950 . S
C594 C592 1.391 . S
C594 C595 1.400 . S
C595 C594 1.400 . S
C595 C596 1.398 . S
C595 C601 1.491 . S
C596 H587 0.950 . S
C596 C595 1.398 . S
C596 C597 1.391 . S
C597 H585 0.950 . S
C597 C593 1.393 . S
C597 C596 1.391 . S
C598 H588 0.950 . S
C598 C599 1.386 . S
C598 C600 1.391 . S
C599 C598 1.386 . S
C599 C603 1.393 . S
C600 H589 0.950 . S
C600 C598 1.391 . S
C600 C601 1.400 . S
C601 C595 1.491 . S
C601 C600 1.400 . S
C601 C602 1.398 . S
C602 H590 0.950 . S
C602 C601 1.398 . S
C602 C603 1.391 . S
C603 H591 0.950 . S
C603 C599 1.393 . S
C603 C602 1.391 . S
H604 C612 0.950 . S
H605 C617 0.950 . S
H606 C614 0.950 1_556 S
H607 C616 0.950 . S
H608 C618 0.950 1_554 S
H609 C620 0.950 . S
H610 C622 0.950 . S
H611 C623 0.950 . S
C612 H604 0.950 . S
C612 C613 1.386 . S
C612 C614 1.391 . S
C613 C612 1.386 . S
C613 C617 1.393 . S
C614 H606 0.950 1_554 S
C614 C612 1.391 . S
C614 C615 1.400 . S
C615 C614 1.400 . S
C615 C616 1.398 . S
C615 C621 1.491 . S
C616 H607 0.950 . S
C616 C615 1.398 . S
C616 C617 1.391 . S
C617 H605 0.950 . S
C617 C613 1.393 . S
C617 C616 1.391 . S
C618 H608 0.950 1_556 S
C618 C619 1.386 . S
C618 C620 1.391 1_556 S
C619 C618 1.386 . S
C619 C623 1.393 . S
C620 H609 0.950 . S
C620 C618 1.391 1_554 S
C620 C621 1.400 . S
C621 C615 1.491 . S
C621 C620 1.400 . S
C621 C622 1.398 1_554 S
C622 H610 0.950 . S
C622 C621 1.398 1_556 S
C622 C623 1.391 . S
C623 H611 0.950 . S
C623 C619 1.393 . S
C623 C622 1.391 . S
H624 C632 0.950 . S
H625 C637 0.950 . S
H626 C634 0.950 . S
H627 C636 0.950 . S
H628 C638 0.950 . S
H629 C640 0.950 . S
H630 C642 0.950 . S
H631 C643 0.950 . S
C632 H624 0.950 . S
C632 C633 1.386 . S
C632 C634 1.391 . S
C633 C632 1.386 . S
C633 C637 1.393 . S
C634 H626 0.950 . S
C634 C632 1.391 . S
C634 C635 1.400 . S
C635 C634 1.400 . S
C635 C636 1.398 . S
C635 C641 1.491 . S
C636 H627 0.950 . S
C636 C635 1.398 . S
C636 C637 1.391 . S
C637 H625 0.950 . S
C637 C633 1.393 . S
C637 C636 1.391 . S
C638 H628 0.950 . S
C638 C639 1.386 . S
C638 C640 1.391 . S
C639 C638 1.386 . S
C639 C643 1.393 . S
C640 H629 0.950 . S
C640 C638 1.391 . S
C640 C641 1.400 . S
C641 C635 1.491 . S
C641 C640 1.400 . S
C641 C642 1.398 . S
C642 H630 0.950 . S
C642 C641 1.398 . S
C642 C643 1.391 . S
C643 H631 0.950 . S
C643 C639 1.393 . S
C643 C642 1.391 . S
H644 C652 0.950 . S
H645 C657 0.950 . S
H646 C654 0.950 . S
H647 C656 0.950 . S
H648 C658 0.950 . S
H649 C660 0.950 . S
H650 C662 0.950 . S
H651 C663 0.950 . S
C652 H644 0.950 . S
C652 C653 1.386 . S
C652 C654 1.391 1_554 S
C653 C652 1.386 . S
C653 C657 1.393 . S
C654 H646 0.950 . S
C654 C652 1.391 1_556 S
C654 C655 1.400 . S
C655 C654 1.400 . S
C655 C656 1.398 1_556 S
C655 C661 1.491 . S
C656 H647 0.950 . S
C656 C655 1.398 1_554 S
C656 C657 1.391 . S
C657 H645 0.950 . S
C657 C653 1.393 . S
C657 C656 1.391 . S
C658 H648 0.950 . S
C658 C659 1.386 . S
C658 C660 1.391 . S
C659 C658 1.386 . S
C659 C663 1.393 . S
C660 H649 0.950 . S
C660 C658 1.391 . S
C660 C661 1.400 . S
C661 C655 1.491 . S
C661 C660 1.400 . S
C661 C662 1.398 . S
C662 H650 0.950 . S
C662 C661 1.398 . S
C662 C663 1.391 . S
C663 H651 0.950 . S
C663 C659 1.393 . S
C663 C662 1.391 . S
C193 C156 1.598 . S
C199 C17 1.588 . S
C213 C40 1.567 . S
C219 C179 1.589 . S
C233 C110 1.601 . S
C239 C63 1.586 . S
C253 C86 1.572 . S
C259 C133 1.595 . S
C273 C64 1.593 . S
C279 C109 1.585 . S
C293 C132 1.587 . S
C299 C87 1.596 . S
C313 C18 1.591 . S
C319 C155 1.583 . S
C333 C41 1.597 . S
C339 C178 1.588 . S
C353 C16 0.846 . S
C359 C108 0.846 . S
C373 C131 0.824 . S
C379 C39 0.824 . S
C393 C62 0.823 . S
C399 C154 0.823 . S
C413 C177 0.859 . S
C419 C85 0.859 . S
C433 C89 1.322 . S
C439 C20 1.319 . S
C453 C43 1.323 . S
C459 C66 1.320 . S
C473 C181 1.323 . S
C479 C112 1.320 . S
C493 C135 1.320 . S
C499 C158 1.320 . S
C513 C21 1.663 . S
C519 C65 1.617 . S
C533 C44 1.659 1_655 S
C539 C88 1.619 . S
C553 C67 1.659 1_455 S
C559 C19 1.617 . S
C573 C90 1.662 . S
C579 C42 1.607 . S
C593 C113 1.663 . S
C599 C157 1.614 . S
C613 C136 1.661 1_455 S
C619 C180 1.603 . S
C633 C159 1.661 1_655 S
C639 C111 1.624 . S
C653 C134 1.610 . S
C659 C182 1.663 . S
