# Generated by pormake.
# Topology wjl, (5)-cn, num edge types: 1
# Building blocks:
#     Node 0, Type 0, BuildingBlock: BEQFEK_clean_sbu_0, # of connection points: 5
#     Node 1, Type 0, BuildingBlock: BEQFEK_clean_sbu_0, # of connection points: 5
#     Node 2, Type 0, BuildingBlock: BEQFEK_clean_sbu_0, # of connection points: 5
#     Node 3, Type 0, BuildingBlock: BEQFEK_clean_sbu_0, # of connection points: 5
#     Node 4, Type 0, BuildingBlock: BEQFEK_clean_sbu_0, # of connection points: 5
#     Node 5, Type 0, BuildingBlock: BEQFEK_clean_sbu_0, # of connection points: 5
#     Node 6, Type 0, BuildingBlock: BEQFEK_clean_sbu_0, # of connection points: 5
#     Node 7, Type 0, BuildingBlock: BEQFEK_clean_sbu_0, # of connection points: 5
#     Node 8, Type 0, BuildingBlock: BEQFEK_clean_sbu_0, # of connection points: 5
#     Node 9, Type 0, BuildingBlock: BEQFEK_clean_sbu_0, # of connection points: 5
#     Node 10, Type 0, BuildingBlock: BEQFEK_clean_sbu_0, # of connection points: 5
#     Node 11, Type 0, BuildingBlock: BEQFEK_clean_sbu_0, # of connection points: 5
#     Edge 12, Type (0, 0), BuildingBlock: KIFKEQ_clean_linker_1, # of connection points: 2
#     Edge 13, Type (0, 0), BuildingBlock: KIFKEQ_clean_linker_1, # of connection points: 2
#     Edge 14, Type (0, 0), BuildingBlock: KIFKEQ_clean_linker_1, # of connection points: 2
#     Edge 15, Type (0, 0), BuildingBlock: KIFKEQ_clean_linker_1, # of connection points: 2
#     Edge 16, Type (0, 0), BuildingBlock: KIFKEQ_clean_linker_1, # of connection points: 2
#     Edge 17, Type (0, 0), BuildingBlock: KIFKEQ_clean_linker_1, # of connection points: 2
#     Edge 18, Type (0, 0), BuildingBlock: KIFKEQ_clean_linker_1, # of connection points: 2
#     Edge 19, Type (0, 0), BuildingBlock: KIFKEQ_clean_linker_1, # of connection points: 2
#     Edge 20, Type (0, 0), BuildingBlock: KIFKEQ_clean_linker_1, # of connection points: 2
#     Edge 21, Type (0, 0), BuildingBlock: KIFKEQ_clean_linker_1, # of connection points: 2
#     Edge 22, Type (0, 0), BuildingBlock: KIFKEQ_clean_linker_1, # of connection points: 2
#     Edge 23, Type (0, 0), BuildingBlock: KIFKEQ_clean_linker_1, # of connection points: 2
#     Edge 24, Type (0, 0), BuildingBlock: KIFKEQ_clean_linker_1, # of connection points: 2
#     Edge 25, Type (0, 0), BuildingBlock: KIFKEQ_clean_linker_1, # of connection points: 2
#     Edge 26, Type (0, 0), BuildingBlock: KIFKEQ_clean_linker_1, # of connection points: 2
#     Edge 27, Type (0, 0), BuildingBlock: KIFKEQ_clean_linker_1, # of connection points: 2
#     Edge 28, Type (0, 0), BuildingBlock: KIFKEQ_clean_linker_1, # of connection points: 2
#     Edge 29, Type (0, 0), BuildingBlock: KIFKEQ_clean_linker_1, # of connection points: 2
#     Edge 30, Type (0, 0), BuildingBlock: KIFKEQ_clean_linker_1, # of connection points: 2
#     Edge 31, Type (0, 0), BuildingBlock: KIFKEQ_clean_linker_1, # of connection points: 2
#     Edge 32, Type (0, 0), BuildingBlock: KIFKEQ_clean_linker_1, # of connection points: 2
#     Edge 33, Type (0, 0), BuildingBlock: KIFKEQ_clean_linker_1, # of connection points: 2
#     Edge 34, Type (0, 0), BuildingBlock: KIFKEQ_clean_linker_1, # of connection points: 2
#     Edge 35, Type (0, 0), BuildingBlock: KIFKEQ_clean_linker_1, # of connection points: 2
#     Edge 36, Type (0, 0), BuildingBlock: KIFKEQ_clean_linker_1, # of connection points: 2
#     Edge 37, Type (0, 0), BuildingBlock: KIFKEQ_clean_linker_1, # of connection points: 2
#     Edge 38, Type (0, 0), BuildingBlock: KIFKEQ_clean_linker_1, # of connection points: 2
#     Edge 39, Type (0, 0), BuildingBlock: KIFKEQ_clean_linker_1, # of connection points: 2
#     Edge 40, Type (0, 0), BuildingBlock: KIFKEQ_clean_linker_1, # of connection points: 2
#     Edge 41, Type (0, 0), BuildingBlock: KIFKEQ_clean_linker_1, # of connection points: 2
# Relax obj value: 0.497
# Max RMSD: 0.235
# Mean RMSD: 0.235
data_MOF--net-wjl--node1-BEQFEK_clean_sbu_0--edge1-KIFKEQ_clean_linker_1
_symmetry_space_group_name_H-M    P1
_symmetry_Int_Tables_number       1
_symmetry_cell_setting            triclinic
loop_
_symmetry_equiv_pos_as_xyz
'x, y, z'
_cell_length_a     27.638868
_cell_length_b     27.635337
_cell_length_c     83.802215
_cell_angle_alpha  90.011614
_cell_angle_beta   90.004503
_cell_angle_gamma 119.9475
loop_
_atom_site_label
_atom_site_type_symbol
_atom_site_fract_x
_atom_site_fract_y
_atom_site_fract_z
_atom_type_partial_charge
Co0 Co 0.43692 0.07283 0.36329 0.0
Co1 Co 0.3292 0.02294 0.342 0.0
C2 C 0.4209 0.13829 0.33668 0.0
O3 O 0.44701 0.13271 0.34838 0.0
O4 O 0.37363 0.09827 0.33225 0.0
C5 C 0.55364 0.12858 0.36559 0.0
O6 O 0.54888 0.13457 0.35022 0.0
C7 C 0.2495 0.98176 0.31479 0.0
C8 C 0.18208 0.90292 0.32484 0.0
C9 C 0.19887 0.93448 0.31099 0.0
N10 N 0.26236 0.97734 0.33003 0.0
N11 N 0.22136 0.93053 0.33601 0.0
C12 C 0.2842 0.03147 0.30447 0.0
H13 H 0.29818 0.07016 0.3115 0.0
H14 H 0.32181 0.03034 0.30039 0.0
H15 H 0.26033 0.03287 0.29402 0.0
C16 C 0.44316 0.97758 0.35038 0.0
N17 N 0.41653 0.00674 0.35213 0.0
N18 N 0.37316 0.9866 0.34252 0.0
C19 C 0.37198 0.94461 0.33391 0.0
C20 C 0.41656 0.93776 0.33861 0.0
C21 C 0.49336 0.98773 0.35983 0.0
H22 H 0.49031 0.00028 0.37219 0.0
H23 H 0.53142 0.02181 0.35417 0.0
H24 H 0.4973 0.94969 0.36021 0.0
O25 O 0.38058 0.06134 0.37921 0.0
O26 O 0.30514 0.03259 0.36397 0.0
H27 H 0.29047 0.88819 0.32499 0.0
H28 H 0.34621 0.89137 0.31297 0.0
C29 C 0.333 0.91624 0.32027 0.0
H30 H 0.33125 0.94793 0.31257 0.0
H31 H 0.22113 0.91652 0.34759 0.0
O32 O 0.50979 0.10096 0.37392 0.0
C33 C 0.32938 0.04663 0.37752 0.0
Co34 Co 0.36353 0.42582 0.5297 0.0
Co35 Co 0.30352 0.31421 0.51026 0.0
C36 C 0.283 0.4075 0.50283 0.0
O37 O 0.31568 0.43578 0.51412 0.0
O38 O 0.27406 0.35869 0.49949 0.0
C39 C 0.42713 0.54381 0.53217 0.0
O40 O 0.42079 0.54079 0.51659 0.0
C41 C 0.27326 0.2355 0.48324 0.0
C42 C 0.25869 0.15891 0.4957 0.0
C43 C 0.26071 0.18076 0.48068 0.0
N44 N 0.27863 0.24544 0.49905 0.0
N45 N 0.26885 0.19914 0.50642 0.0
C46 C 0.28572 0.27929 0.47089 0.0
H47 H 0.31203 0.32162 0.476 0.0
H48 H 0.30714 0.27354 0.46047 0.0
H49 H 0.24587 0.27547 0.46671 0.0
C50 C 0.46426 0.426 0.51801 0.0
N51 N 0.40845 0.40181 0.5195 0.0
N52 N 0.38405 0.35541 0.51107 0.0
C53 C 0.42418 0.34909 0.50378 0.0
C54 C 0.47621 0.39366 0.50789 0.0
C55 C 0.50465 0.48206 0.52481 0.0
H56 H 0.49266 0.48513 0.53722 0.0
H57 H 0.5033 0.51487 0.51754 0.0
H58 H 0.54811 0.49019 0.52475 0.0
O59 O 0.31689 0.37206 0.54612 0.0
O60 O 0.26968 0.29377 0.53215 0.0
H61 H 0.38242 0.2617 0.49836 0.0
H62 H 0.4522 0.30069 0.49039 0.0
C63 C 0.41335 0.30184 0.49288 0.0
H64 H 0.3962 0.30687 0.48144 0.0
H65 H 0.27144 0.19574 0.51875 0.0
O66 O 0.40784 0.49898 0.54022 0.0
C67 C 0.27998 0.32068 0.54524 0.0
Co68 Co 0.9199 0.35311 0.6928 0.0
Co69 Co 0.96909 0.28766 0.67483 0.0
C70 C 0.85627 0.27188 0.66671 0.0
O71 O 0.86182 0.3075 0.6772 0.0
O72 O 0.89443 0.25952 0.66441 0.0
C73 C 0.86862 0.41967 0.69552 0.0
O74 O 0.86346 0.41247 0.67998 0.0
C75 C 0.01254 0.25239 0.64761 0.0
C76 C 0.07954 0.24384 0.65926 0.0
C77 C 0.05652 0.2427 0.64447 0.0
N78 N 0.01125 0.26079 0.6634 0.0
N79 N 0.05064 0.25436 0.67031 0.0
C80 C 0.97105 0.25186 0.63601 0.0
H81 H 0.92873 0.2296 0.64128 0.0
H82 H 0.98141 0.29537 0.63342 0.0
H83 H 0.97019 0.23032 0.62476 0.0
C84 C 0.02277 0.4503 0.68107 0.0
N85 N 0.98955 0.39484 0.68287 0.0
N86 N 0.01047 0.36832 0.67496 0.0
C87 C 0.0578 0.40674 0.66764 0.0
C88 C 0.06711 0.45984 0.67129 0.0
C89 C 0.00851 0.49259 0.68718 0.0
H90 H 0.99504 0.4834 0.69981 0.0
H91 H 0.97345 0.48987 0.68006 0.0
H92 H 0.04392 0.53583 0.6863 0.0
O93 O 0.92266 0.30434 0.70926 0.0
O94 O 0.95634 0.2561 0.6971 0.0
H95 H 0.10403 0.36485 0.6635 0.0
H96 H 0.13235 0.43135 0.6536 0.0
C97 C 0.09317 0.39321 0.65711 0.0
H98 H 0.06935 0.37174 0.64622 0.0
H99 H 0.05944 0.25967 0.6825 0.0
O100 O 0.89458 0.40026 0.70332 0.0
C101 C 0.93725 0.2674 0.70955 0.0
Co102 Co 0.54823 0.87576 0.85381 0.0
Co103 Co 0.66751 0.93427 0.83835 0.0
C104 C 0.5738 0.82259 0.82704 0.0
O105 O 0.53913 0.82356 0.83675 0.0
O106 O 0.62466 0.86147 0.82668 0.0
C107 C 0.42954 0.81554 0.85682 0.0
O108 O 0.43154 0.80136 0.84198 0.0
C109 C 0.73945 0.98901 0.81105 0.0
C110 C 0.82353 0.03609 0.82174 0.0
C111 C 0.79491 0.02646 0.80744 0.0
N112 N 0.73538 0.97787 0.82675 0.0
N113 N 0.7859 0.00548 0.83306 0.0
C114 C 0.69087 0.96225 0.7998 0.0
H115 H 0.67288 0.91631 0.8002 0.0
H116 H 0.65769 0.97099 0.80375 0.0
H117 H 0.70309 0.97633 0.78732 0.0
C118 C 0.55258 0.97996 0.84459 0.0
N119 N 0.57615 0.94771 0.84559 0.0
N120 N 0.62677 0.97415 0.8395 0.0
C121 C 0.63744 0.02534 0.83475 0.0
C122 C 0.5907 0.03052 0.83777 0.0
C123 C 0.49273 0.95989 0.84865 0.0
H124 H 0.48687 0.95356 0.86173 0.0
H125 H 0.46599 0.91916 0.84274 0.0
H126 H 0.47879 0.98923 0.84472 0.0
O127 O 0.5989 0.87535 0.87041 0.0
O128 O 0.68455 0.91785 0.8602 0.0
H129 H 0.72702 0.06738 0.83367 0.0
H130 H 0.69734 0.11178 0.8301 0.0
C131 C 0.6919 0.06965 0.82806 0.0
H132 H 0.69267 0.06346 0.81502 0.0
H133 H 0.79446 0.00474 0.84516 0.0
O134 O 0.47464 0.84865 0.86402 0.0
C135 C 0.65099 0.89281 0.87171 0.0
Co136 Co 0.65453 0.55027 0.03091 0.0
Co137 Co 0.71112 0.65405 0.00826 0.0
C138 C 0.72985 0.5584 0.00355 0.0
O139 O 0.69986 0.5351 0.01576 0.0
O140 O 0.73776 0.60542 -0.00141 0.0
C141 C 0.58882 0.43398 0.03582 0.0
O142 O 0.59058 0.43354 0.02016 0.0
C143 C 0.7343 0.72355 0.97928 0.0
C144 C 0.75793 0.80542 0.99001 0.0
C145 C 0.74832 0.77813 0.97546 0.0
N146 N 0.73488 0.71909 -0.00473 0.0
N147 N 0.75014 0.76848 0.00156 0.0
C148 C 0.71551 0.67502 0.96816 0.0
H149 H 0.6932 0.63501 0.97479 0.0
H150 H 0.68785 0.6762 0.95875 0.0
H151 H 0.75259 0.6773 0.9623 0.0
C152 C 0.55218 0.54626 0.01946 0.0
N153 N 0.60813 0.57092 0.02012 0.0
N154 N 0.63056 0.61391 0.01033 0.0
C155 C 0.5887 0.61733 0.00298 0.0
C156 C 0.53778 0.57401 0.0084 0.0
C157 C 0.51277 0.49671 0.0292 0.0
H158 H 0.53024 0.49933 0.04128 0.0
H159 H 0.50639 0.45806 0.02329 0.0
H160 H 0.47158 0.49428 0.03031 0.0
O161 O 0.7033 0.60882 0.04576 0.0
O162 O 0.74925 0.68148 0.02959 0.0
H163 H 0.63075 0.70041 0.99347 0.0
H164 H 0.55829 0.65994 0.98783 0.0
C165 C 0.59688 0.65821 0.99011 0.0
H166 H 0.6085 0.6453 0.97891 0.0
H167 H 0.75295 0.7764 0.0138 0.0
O168 O 0.61179 0.48052 0.04311 0.0
C169 C 0.7406 0.65933 0.04341 0.0
Co170 Co 0.08915 0.64111 0.1981 0.0
Co171 Co 0.04244 0.69821 0.17536 0.0
C172 C 0.15805 0.72069 0.17154 0.0
O173 O 0.15086 0.68974 0.18357 0.0
O174 O 0.11871 0.72777 0.1663 0.0
C175 C 0.14043 0.57601 0.20238 0.0
O176 O 0.14234 0.57887 0.18672 0.0
C177 C 0.0028 0.73444 0.14716 0.0
C178 C 0.92524 0.72716 0.15695 0.0
C179 C 0.95634 0.73899 0.14305 0.0
N180 N 0.99828 0.71931 0.16261 0.0
N181 N 0.95226 0.71596 0.16841 0.0
C182 C 0.05181 0.74634 0.13688 0.0
H183 H 0.09086 0.76976 0.14384 0.0
H184 H 0.0484 0.70638 0.13298 0.0
H185 H 0.05439 0.77155 0.12628 0.0
C186 C 0.99415 0.53899 0.1851 0.0
N187 N 0.02414 0.59486 0.18651 0.0
N188 N 0.00535 0.61797 0.17637 0.0
C189 C 0.96353 0.57701 0.16778 0.0
C190 C 0.9553 0.52562 0.17303 0.0
C191 C 0.00203 0.49889 0.19525 0.0
H192 H 0.0156 0.5162 0.20742 0.0
H193 H 0.03443 0.49158 0.18984 0.0
H194 H 0.96266 0.45816 0.19607 0.0
O195 O 0.07582 0.68674 0.21322 0.0
O196 O 0.04966 0.73325 0.19705 0.0
H197 H 0.90938 0.60367 0.15798 0.0
H198 H 0.91078 0.54861 0.14675 0.0
C199 C 0.93641 0.58724 0.15374 0.0
H200 H 0.96895 0.61907 0.14587 0.0
H201 H 0.93839 0.70427 0.18011 0.0
O202 O 0.11659 0.59811 0.20998 0.0
C203 C 0.06172 0.72347 0.21094 0.0
Co204 Co 0.91863 0.5398 0.42862 0.0
Co205 Co 0.9684 0.64626 0.45034 0.0
C206 C 0.85364 0.55435 0.45575 0.0
O207 O 0.85918 0.52942 0.44373 0.0
O208 O 0.89373 0.60111 0.46048 0.0
C209 C 0.86233 0.42319 0.42602 0.0
O210 O 0.85761 0.42757 0.44148 0.0
C211 C 0.01133 0.72674 0.47741 0.0
C212 C 0.08922 0.79391 0.46683 0.0
C213 C 0.05876 0.77768 0.48088 0.0
N214 N 0.01465 0.71324 0.46216 0.0
N215 N 0.0609 0.75406 0.45587 0.0
C216 C 0.96249 0.69236 0.48805 0.0
H217 H 0.96478 0.65565 0.49241 0.0
H218 H 0.96131 0.71699 0.49834 0.0
H219 H 0.92322 0.67694 0.48121 0.0
C220 C 0.01455 0.53343 0.44101 0.0
N221 N 0.985 0.55979 0.43957 0.0
N222 N 0.00529 0.60291 0.44929 0.0
C223 C 0.04788 0.6043 0.45761 0.0
C224 C 0.05498 0.56012 0.45264 0.0
C225 C 0.00408 0.48337 0.43145 0.0
H226 H 0.99086 0.48647 0.41918 0.0
H227 H 0.97031 0.44522 0.43716 0.0
H228 H 0.04215 0.47953 0.43083 0.0
O229 O 0.9295 0.59654 0.41292 0.0
O230 O 0.95728 0.67072 0.42858 0.0
H231 H 0.10474 0.68564 0.46656 0.0
H232 H 0.10157 0.62964 0.47845 0.0
C233 C 0.07666 0.64308 0.47126 0.0
H234 H 0.04523 0.64488 0.47907 0.0
H235 H 0.07399 0.75385 0.4442 0.0
O236 O 0.88982 0.46724 0.41776 0.0
C237 C 0.94327 0.64743 0.41489 0.0
Co238 Co 0.36383 0.90491 0.59292 0.0
Co239 Co 0.30376 0.95031 0.61488 0.0
C240 C 0.2876 0.83671 0.61983 0.0
O241 O 0.31883 0.84356 0.60791 0.0
O242 O 0.27819 0.87526 0.62435 0.0
C243 C 0.43157 0.85627 0.58825 0.0
O244 O 0.42928 0.85385 0.60391 0.0
C245 C 0.27364 0.98885 0.64403 0.0
C246 C 0.2439 0.04341 0.63412 0.0
C247 C 0.25289 0.02375 0.64841 0.0
N248 N 0.27665 0.98832 0.62801 0.0
N249 N 0.25824 0.02054 0.62217 0.0
C250 C 0.29438 0.95963 0.65469 0.0
H251 H 0.32204 0.94843 0.648 0.0
H252 H 0.31747 0.98646 0.665 0.0
H253 H 0.25826 0.92057 0.65923 0.0
C254 C 0.4641 0.00411 0.60511 0.0
N255 N 0.40833 0.97218 0.60393 0.0
N256 N 0.38427 0.99199 0.61342 0.0
C257 C 0.42477 0.03732 0.62107 0.0
C258 C 0.47659 0.04584 0.61618 0.0
C259 C 0.50515 0.99482 0.5959 0.0
H260 H 0.48923 0.98002 0.58369 0.0
H261 H 0.5114 0.96283 0.60204 0.0
H262 H 0.54614 0.03389 0.59511 0.0
O263 O 0.31473 0.91329 0.57778 0.0
O264 O 0.26715 0.93974 0.59339 0.0
H265 H 0.37943 0.07557 0.63022 0.0
H266 H 0.45193 0.11005 0.63611 0.0
C267 C 0.41431 0.069 0.63379 0.0
H268 H 0.40287 0.04458 0.64501 0.0
H269 H 0.25645 0.02774 0.61001 0.0
O270 O 0.40843 0.87957 0.5809 0.0
C271 C 0.27689 0.92607 0.57973 0.0
Co272 Co 0.43623 0.31489 0.76104 0.0
Co273 Co 0.33464 0.2674 0.7846 0.0
C274 C 0.43236 0.25435 0.79169 0.0
O275 O 0.45513 0.28082 0.7789 0.0
O276 O 0.38382 0.24446 0.79586 0.0
C277 C 0.55096 0.38565 0.75492 0.0
O278 O 0.5525 0.39166 0.7705 0.0
C279 C 0.25945 0.24595 0.81266 0.0
C280 C 0.18945 0.24779 0.80049 0.0
C281 C 0.20864 0.24352 0.81539 0.0
N282 N 0.2698 0.25184 0.79684 0.0
N283 N 0.22719 0.25183 0.78968 0.0
C284 C 0.2999 0.24857 0.82497 0.0
H285 H 0.34293 0.26928 0.82012 0.0
H286 H 0.29853 0.27128 0.83574 0.0
H287 H 0.28812 0.20543 0.82858 0.0
C288 C 0.43706 0.41951 0.76736 0.0
N289 N 0.41326 0.36382 0.76879 0.0
N290 N 0.37557 0.34609 0.78017 0.0
C291 C 0.37654 0.39084 0.78703 0.0
C292 C 0.41589 0.43915 0.77915 0.0
C293 C 0.47811 0.45302 0.75458 0.0
H294 H 0.46997 0.42733 0.74367 0.0
H295 H 0.52109 0.46669 0.75874 0.0
H296 H 0.47535 0.49075 0.75167 0.0
O297 O 0.37878 0.25563 0.74819 0.0
O298 O 0.3053 0.22146 0.7644 0.0
H299 H 0.302 0.37412 0.7993 0.0
H300 H 0.36519 0.42812 0.80849 0.0
C301 C 0.34615 0.38757 0.80213 0.0
H302 H 0.34688 0.35625 0.81019 0.0
H303 H 0.22509 0.2571 0.77742 0.0
O304 O 0.50434 0.355 0.74811 0.0
C305 C 0.32786 0.22128 0.75114 0.0
Co306 Co 0.09058 0.42489 0.93206 0.0
Co307 Co 0.04225 0.31517 0.95251 0.0
C308 C 0.15598 0.41163 0.95881 0.0
O309 O 0.15037 0.43867 0.94738 0.0
O310 O 0.11705 0.36274 0.96244 0.0
C311 C 0.14625 0.54207 0.92746 0.0
O312 O 0.15854 0.54237 0.94262 0.0
C313 C -0.00022 0.23984 0.98058 0.0
C314 C 0.93071 0.16404 0.96966 0.0
C315 C 0.95551 0.18686 0.98421 0.0
N316 N -0.00034 0.24819 0.96475 0.0
N317 N 0.95894 0.20224 0.95828 0.0
C318 C 0.04295 0.28118 0.99174 0.0
H319 H 0.08453 0.30074 0.98602 0.0
H320 H 0.03312 0.31458 0.99454 0.0
H321 H 0.04514 0.26095 0.00293 0.0
C322 C 0.99104 0.42506 0.94419 0.0
N323 N 0.02274 0.40096 0.94269 0.0
N324 N 0.00191 0.35544 0.95147 0.0
C325 C 0.95604 0.34956 0.95902 0.0
C326 C 0.94762 0.3934 0.95462 0.0
C327 C 0.0064 0.48082 0.93721 0.0
H328 H 0.01471 0.48083 0.92427 0.0
H329 H 0.04513 0.51327 0.94302 0.0
H330 H 0.97358 0.4921 0.93897 0.0
O331 O 0.08335 0.36913 0.91631 0.0
O332 O 0.05445 0.29207 0.93079 0.0
H333 H 0.90846 0.26276 0.96479 0.0
H334 H 0.88357 0.30474 0.97424 0.0
C335 C 0.92148 0.30361 0.97049 0.0
H336 H 0.94686 0.30752 0.98116 0.0
H337 H 0.94901 0.19779 0.94616 0.0
O338 O 0.11517 0.49573 0.92055 0.0
C339 C 0.06994 0.31809 0.91754 0.0
Co340 Co 0.65217 0.07454 0.09811 0.0
Co341 Co 0.71234 0.02685 0.11933 0.0
C342 C 0.73211 0.1417 0.12457 0.0
O343 O 0.69952 0.13532 0.11304 0.0
O344 O 0.74115 0.10257 0.12874 0.0
C345 C 0.58741 0.12686 0.09418 0.0
O346 O 0.59255 0.13104 0.10979 0.0
C347 C 0.74707 0.98547 0.1474 0.0
C348 C 0.75119 0.9148 0.13654 0.0
C349 C 0.75577 0.94112 0.151 0.0
N350 N 0.73632 0.98407 0.13167 0.0
N351 N 0.7399 0.94231 0.12524 0.0
C352 C 0.75122 0.02994 0.15846 0.0
H353 H 0.77188 0.07085 0.15234 0.0
H354 H 0.7087 0.02046 0.162 0.0
H355 H 0.77589 0.03326 0.16926 0.0
C356 C 0.55159 0.97579 0.11063 0.0
N357 N 0.60739 0.00751 0.10917 0.0
N358 N 0.63192 0.98782 0.11849 0.0
C359 C 0.59198 0.94329 0.12648 0.0
C360 C 0.53983 0.93421 0.12176 0.0
C361 C 0.51084 0.98886 0.10273 0.0
H362 H 0.52423 0.00295 0.09032 0.0
H363 H 0.50965 0.02287 0.10941 0.0
H364 H 0.46803 0.95246 0.10254 0.0
O365 O 0.69925 0.06475 0.08245 0.0
O366 O 0.74641 0.03634 0.09756 0.0
H367 H 0.62964 0.89515 0.13333 0.0
H368 H 0.56428 0.87455 0.14318 0.0
C369 C 0.60338 0.91074 0.13869 0.0
H370 H 0.6266 0.93845 0.14883 0.0
H371 H 0.7327 0.93141 0.1132 0.0
O372 O 0.6078 0.10133 0.08661 0.0
C373 C 0.73622 0.05056 0.08404 0.0
Co374 Co 0.56659 0.63817 0.26285 0.0
Co375 Co 0.67172 0.69301 0.28519 0.0
C376 C 0.57952 0.71643 0.2901 0.0
O377 O 0.55453 0.68577 0.27811 0.0
O378 O 0.62649 0.72343 0.2948 0.0
C379 C 0.44992 0.57458 0.25878 0.0
O380 O 0.4511 0.57688 0.27445 0.0
C381 C 0.74995 0.72659 0.31291 0.0
C382 C 0.81782 0.71722 0.30218 0.0
C383 C 0.80059 0.7293 0.31642 0.0
N384 N 0.7376 0.71219 0.29745 0.0
N385 N 0.77887 0.70761 0.2911 0.0
C386 C 0.71473 0.73931 0.32376 0.0
H387 H 0.69715 0.76156 0.31709 0.0
H388 H 0.6795 0.6997 0.32835 0.0
H389 H 0.73951 0.76581 0.33393 0.0
C390 C 0.55875 0.53481 0.27502 0.0
N391 N 0.58535 0.59075 0.27379 0.0
N392 N 0.62753 0.61289 0.28384 0.0
C393 C 0.62783 0.57123 0.29222 0.0
C394 C 0.58403 0.52038 0.2869 0.0
C395 C 0.51004 0.49565 0.26495 0.0
H396 H 0.51362 0.5134 0.25286 0.0
H397 H 0.47088 0.48909 0.27056 0.0
H398 H 0.50773 0.4545 0.26394 0.0
O399 O 0.62499 0.68472 0.24768 0.0
O400 O 0.69861 0.72907 0.26363 0.0
H401 H 0.70826 0.59575 0.30193 0.0
H402 H 0.65125 0.54155 0.31318 0.0
C403 C 0.66505 0.58038 0.30622 0.0
H404 H 0.66534 0.61264 0.31413 0.0
H405 H 0.77955 0.6961 0.27928 0.0
O406 O 0.4957 0.59643 0.25112 0.0
C407 C 0.67607 0.7207 0.24987 0.0
H408 H 0.52082 0.97338 0.32732 0.0
H409 H 0.35993 0.82513 0.33309 0.0
H410 H 0.55886 0.91736 0.31659 0.0
H411 H 0.39791 0.76843 0.32222 0.0
H412 H 0.47562 0.70226 0.28503 0.0
H413 H 0.43462 0.75373 0.29695 0.0
H414 H 0.58252 0.84711 0.32574 0.0
H415 H 0.6242 0.79611 0.31363 0.0
C416 C 0.49371 0.92861 0.32635 0.0
C417 C 0.43764 0.90336 0.33115 0.0
C418 C 0.51551 0.89651 0.32027 0.0
C419 C 0.48163 0.83838 0.31874 0.0
C420 C 0.42503 0.81319 0.32321 0.0
C421 C 0.40324 0.84547 0.32938 0.0
C422 C 0.49945 0.73358 0.29396 0.0
C423 C 0.5535 0.74535 0.29828 0.0
C424 C 0.47566 0.76281 0.30087 0.0
C425 C 0.50539 0.80468 0.31222 0.0
C426 C 0.55887 0.81557 0.31685 0.0
C427 C 0.58263 0.78613 0.30998 0.0
H428 H 0.50169 0.4064 0.47636 0.0
H429 H 0.57346 0.41804 0.52289 0.0
H430 H 0.59375 0.44287 0.46417 0.0
H431 H 0.6661 0.45551 0.51076 0.0
H432 H 0.82539 0.5879 0.48344 0.0
H433 H 0.73392 0.54443 0.49644 0.0
H434 H 0.66722 0.41729 0.45991 0.0
H435 H 0.75785 0.46038 0.4469 0.0
C436 C 0.53718 0.41603 0.48393 0.0
C437 C 0.53083 0.40986 0.50053 0.0
C438 C 0.58984 0.43702 0.47698 0.0
C439 C 0.63721 0.45249 0.48654 0.0
C440 C 0.63049 0.44478 0.50313 0.0
C441 C 0.57764 0.42325 0.51006 0.0
C442 C 0.79126 0.55064 0.47821 0.0
C443 C 0.799 0.52794 0.46407 0.0
C444 C 0.739 0.52554 0.48571 0.0
C445 C 0.69341 0.47756 0.47915 0.0
C446 C 0.70138 0.45458 0.46514 0.0
C447 C 0.7535 0.47929 0.45773 0.0
H448 H 0.28878 0.74214 0.61108 0.0
H449 H 0.22589 0.8075 0.64744 0.0
H450 H 0.24175 0.65106 0.62394 0.0
H451 H 0.17861 0.71585 0.66028 0.0
H452 H 0.14144 0.55549 0.68654 0.0
H453 H 0.19951 0.64798 0.67462 0.0
H454 H 0.14204 0.5772 0.62776 0.0
H455 H 0.08358 0.48523 0.63975 0.0
C456 C 0.26515 0.73724 0.62186 0.0
C457 C 0.26084 0.78215 0.62818 0.0
C458 C 0.23806 0.68491 0.62918 0.0
C459 C 0.20642 0.67631 0.64308 0.0
C460 C 0.20315 0.72143 0.64965 0.0
C461 C 0.22991 0.7738 0.64224 0.0
C462 C 0.14177 0.55993 0.67369 0.0
C463 C 0.10797 0.51368 0.66403 0.0
C464 C 0.17469 0.61269 0.66689 0.0
C465 C 0.17493 0.61986 0.65028 0.0
C466 C 0.14301 0.5729 0.64059 0.0
C467 C 0.1097 0.52031 0.64741 0.0
H468 H 0.39298 0.17986 0.81667 0.0
H469 H 0.54003 0.27834 0.78791 0.0
H470 H 0.43966 0.13463 0.82941 0.0
H471 H 0.5865 0.23382 0.80075 0.0
H472 H 0.60521 0.07682 0.80833 0.0
H473 H 0.57283 0.13943 0.799 0.0
H474 H 0.51791 0.1472 0.84673 0.0
H475 H 0.55079 0.08452 0.85601 0.0
C476 C 0.43549 0.19257 0.81327 0.0
C477 C 0.46236 0.23208 0.8011 0.0
C478 C 0.46235 0.16685 0.82061 0.0
C479 C 0.51658 0.18023 0.81594 0.0
C480 C 0.54439 0.22186 0.80439 0.0
C481 C 0.51767 0.24747 0.79707 0.0
C482 C 0.58761 0.09317 0.81688 0.0
C483 C 0.58003 0.0757 0.83283 0.0
C484 C 0.56892 0.12892 0.81156 0.0
C485 C 0.54228 0.14785 0.82211 0.0
C486 C 0.53743 0.1326 0.83827 0.0
C487 C 0.55646 0.09708 0.8436 0.0
H488 H 0.47194 0.47227 -0.00456 0.0
H489 H 0.47736 0.62773 0.00589 0.0
H490 H 0.37779 0.43401 0.98478 0.0
H491 H 0.38266 0.58963 0.99504 0.0
H492 H 0.24308 0.51849 0.95618 0.0
H493 H 0.33423 0.55923 0.96891 0.0
H494 H 0.28234 0.4046 0.99407 0.0
H495 H 0.19106 0.3633 0.98118 0.0
C496 C 0.45269 0.49814 -0.00452 0.0
C497 C 0.48168 0.5529 0.00142 0.0
C498 C 0.39874 0.47619 0.98945 0.0
C499 C 0.37261 0.50862 0.98918 0.0
C500 C 0.40189 0.56376 0.99501 0.0
C501 C 0.45599 0.58566 0.00114 0.0
C502 C 0.25082 0.49315 0.96451 0.0
C503 C 0.20976 0.43738 0.96756 0.0
C504 C 0.30304 0.51674 0.97188 0.0
C505 C 0.31558 0.48507 0.98242 0.0
C506 C 0.2741 0.42982 0.98583 0.0
C507 C 0.22169 0.40625 0.97852 0.0
H508 H 0.84301 0.47108 0.16706 0.0
H509 H 0.98981 0.45492 0.16276 0.0
H510 H 0.78577 0.37648 0.15627 0.0
H511 H 0.93335 0.36107 0.15201 0.0
H512 H 0.8112 0.17585 0.14822 0.0
H513 H 0.86233 0.26806 0.16047 0.0
H514 H 0.77088 0.32438 0.13144 0.0
H515 H 0.71897 0.23215 0.11944 0.0
C516 C 0.86291 0.44731 0.1637 0.0
C517 C 0.92054 0.46983 0.16583 0.0
C518 C 0.83033 0.3933 0.15755 0.0
C519 C 0.85495 0.361 0.15345 0.0
C520 C 0.91284 0.38422 0.1554 0.0
C521 C 0.94523 0.43802 0.1615 0.0
C522 C 0.80163 0.2077 0.14455 0.0
C523 C 0.76117 0.19655 0.13278 0.0
C524 C 0.83119 0.26069 0.1515 0.0
C525 C 0.82095 0.3037 0.14685 0.0
C526 C 0.77946 0.2921 0.1354 0.0
C527 C 0.74995 0.23921 0.12844 0.0
H528 H 0.29604 0.5116 0.50629 0.0
H529 H 0.20313 0.35849 0.47946 0.0
H530 H 0.24309 0.54945 0.49359 0.0
H531 H 0.1507 0.39714 0.46648 0.0
H532 H 0.02188 0.45593 0.46365 0.0
H533 H 0.07969 0.42007 0.47446 0.0
H534 H 0.22631 0.58261 0.46843 0.0
H535 H 0.16777 0.6184 0.4576 0.0
C536 C 0.26468 0.48612 0.49755 0.0
C537 C 0.25353 0.43169 0.49401 0.0
C538 C 0.23456 0.50811 0.49019 0.0
C539 C 0.19247 0.47628 0.47908 0.0
C540 C 0.18232 0.42244 0.47518 0.0
C541 C 0.21258 0.40039 0.48254 0.0
C542 C 0.06654 0.48381 0.46452 0.0
C543 C 0.09057 0.53978 0.45972 0.0
C544 C 0.0997 0.46325 0.47065 0.0
C545 C 0.15771 0.49829 0.47217 0.0
C546 C 0.18169 0.55461 0.4675 0.0
C547 C 0.14835 0.57516 0.46133 0.0
H548 H 0.54205 0.01163 0.63034 0.0
H549 H 0.53562 0.15997 0.61826 0.0
H550 H 0.63558 0.06882 0.64128 0.0
H551 H 0.6299 0.21795 0.62919 0.0
H552 H 0.76981 0.29313 0.66751 0.0
H553 H 0.679 0.24076 0.65478 0.0
H554 H 0.73076 0.13284 0.63258 0.0
H555 H 0.82163 0.18461 0.64562 0.0
C556 C 0.56094 0.05667 0.63003 0.0
C557 C 0.53187 0.08159 0.62354 0.0
C558 C 0.61461 0.08944 0.63618 0.0
C559 C 0.64048 0.14798 0.63597 0.0
C560 C 0.61097 0.17294 0.62962 0.0
C561 C 0.55708 0.13995 0.62342 0.0
C562 C 0.76213 0.25846 0.65983 0.0
C563 C 0.80301 0.24281 0.6577 0.0
C564 C 0.71005 0.22866 0.65244 0.0
C565 C 0.69745 0.18241 0.64275 0.0
C566 C 0.73889 0.16779 0.64019 0.0
C567 C 0.79113 0.19769 0.64757 0.0
H568 H 0.47759 0.76854 0.81002 0.0
H569 H 0.62632 0.76325 0.82225 0.0
H570 H 0.44066 0.67959 0.79614 0.0
H571 H 0.58798 0.67208 0.80988 0.0
H572 H 0.52546 0.52002 0.78079 0.0
H573 H 0.5648 0.61613 0.7887 0.0
H574 H 0.39886 0.58629 0.79956 0.0
H575 H 0.35933 0.49174 0.78923 0.0
C576 C 0.50236 0.74811 0.80964 0.0
C577 C 0.55487 0.77264 0.81703 0.0
C578 C 0.48092 0.69663 0.80191 0.0
C579 C 0.51063 0.66744 0.80192 0.0
C580 C 0.56392 0.69311 0.80915 0.0
C581 C 0.58611 0.7455 0.81636 0.0
C582 C 0.49713 0.53445 0.78424 0.0
C583 C 0.4391 0.49822 0.78415 0.0
C584 C 0.51992 0.58965 0.78927 0.0
C585 C 0.48554 0.60979 0.7951 0.0
C586 C 0.42717 0.57332 0.79496 0.0
C587 C 0.40428 0.51851 0.78931 0.0
H588 H 0.93358 0.40847 0.98595 0.0
H589 H 0.87444 0.41519 0.93884 0.0
H590 H 0.87686 0.44527 -0.00274 0.0
H591 H 0.81818 0.45297 0.95007 0.0
H592 H 0.79138 0.5888 0.97581 0.0
H593 H 0.83913 0.54361 0.96357 0.0
H594 H 0.77706 0.41935 0.00088 0.0
H595 H 0.72968 0.46402 0.01311 0.0
C596 C 0.9076 0.41695 0.97808 0.0
C597 C 0.90829 0.40922 0.96156 0.0
C598 C 0.87533 0.43816 0.98451 0.0
C599 C 0.84344 0.4524 0.97452 0.0
C600 C 0.84296 0.44312 0.95802 0.0
C601 C 0.87482 0.42132 0.95162 0.0
C602 C 0.78773 0.5517 0.98134 0.0
C603 C 0.75698 0.53033 -0.00451 0.0
C604 C 0.81478 0.52566 0.97429 0.0
C605 C 0.81198 0.47809 0.98133 0.0
C606 C 0.7805 0.45629 -0.0047 0.0
C607 C 0.75317 0.4819 0.00225 0.0
H608 H 0.44469 0.85627 0.10699 0.0
H609 H 0.5116 0.92893 0.15298 0.0
H610 H 0.35124 0.80245 0.11871 0.0
H611 H 0.41867 0.87453 0.16481 0.0
H612 H 0.25417 0.72752 0.18249 0.0
H613 H 0.34629 0.77495 0.1703 0.0
H614 H 0.28109 0.82577 0.13092 0.0
H615 H 0.18826 0.77806 0.14311 0.0
C616 C 0.43927 0.86031 0.11963 0.0
C617 C 0.48494 0.89679 0.1291 0.0
C618 C 0.38597 0.82977 0.12631 0.0
C619 C 0.37765 0.83462 0.14264 0.0
C620 C 0.42389 0.86967 0.15221 0.0
C621 C 0.47701 0.90063 0.14548 0.0
C622 C 0.25921 0.74865 0.17121 0.0
C623 C 0.21373 0.74914 0.16381 0.0
C624 C 0.31215 0.77601 0.16427 0.0
C625 C 0.32089 0.80411 0.14969 0.0
C626 C 0.27541 0.80401 0.14212 0.0
C627 C 0.22237 0.77703 0.14915 0.0
H628 H 0.37576 0.17145 0.31279 0.0
H629 H 0.52394 0.22914 0.34179 0.0
H630 H 0.41704 0.26305 0.3001 0.0
H631 H 0.56448 0.32056 0.32931 0.0
H632 H 0.6401 0.46407 0.29282 0.0
H633 H 0.6017 0.3698 0.30394 0.0
H634 H 0.44004 0.3574 0.30818 0.0
H635 H 0.4785 0.45105 0.29717 0.0
C636 C 0.4171 0.20347 0.31643 0.0
C637 C 0.4463 0.19291 0.32837 0.0
C638 C 0.44065 0.25606 0.30922 0.0
C639 C 0.49396 0.29914 0.31375 0.0
C640 C 0.52362 0.28816 0.32543 0.0
C641 C 0.50008 0.23574 0.33267 0.0
C642 C 0.59649 0.44103 0.29622 0.0
C643 C 0.56209 0.46438 0.29405 0.0
C644 C 0.57447 0.38721 0.30256 0.0
C645 C 0.51765 0.35593 0.3068 0.0
C646 C 0.4836 0.37983 0.30471 0.0
C647 C 0.50563 0.43348 0.29845 0.0
H648 H 0.8788 0.39206 0.39651 0.0
H649 H 0.76923 0.33261 0.43739 0.0
H650 H 0.81363 0.30899 0.38159 0.0
H651 H 0.70269 0.2518 0.42236 0.0
H652 H 0.58494 0.10728 0.39444 0.0
H653 H 0.67054 0.16777 0.4091 0.0
H654 H 0.72911 0.28291 0.36928 0.0
H655 H 0.64558 0.22089 0.35447 0.0
C656 C 0.84102 0.36085 0.40234 0.0
C657 C 0.82857 0.36906 0.41799 0.0
C658 C 0.80346 0.31343 0.39378 0.0
C659 C 0.75213 0.27403 0.4006 0.0
C660 C 0.74184 0.28061 0.41668 0.0
C661 C 0.77992 0.32736 0.42532 0.0
C662 C 0.61688 0.14498 0.38876 0.0
C663 C 0.60841 0.15991 0.37345 0.0
C664 C 0.66579 0.17985 0.39717 0.0
C665 C 0.70653 0.23096 0.39055 0.0
C666 C 0.69932 0.24377 0.37478 0.0
C667 C 0.65103 0.20834 0.36627 0.0
H668 H 0.42788 0.56209 0.56415 0.0
H669 H 0.47613 0.64801 0.51885 0.0
H670 H 0.44715 0.64807 0.57724 0.0
H671 H 0.49771 0.73512 0.53209 0.0
H672 H 0.42205 0.83427 0.55633 0.0
H673 H 0.43904 0.76699 0.54261 0.0
H674 H 0.50793 0.74066 0.58591 0.0
H675 H 0.48867 0.80668 0.59985 0.0
C676 C 0.44409 0.59974 0.55704 0.0
C677 C 0.44934 0.59801 0.54042 0.0
C678 C 0.45567 0.64937 0.56459 0.0
C679 C 0.47334 0.69855 0.55569 0.0
C680 C 0.48298 0.69773 0.53924 0.0
C681 C 0.47084 0.64787 0.53166 0.0
C682 C 0.44185 0.81501 0.56286 0.0
C683 C 0.45287 0.82483 0.57926 0.0
C684 C 0.45207 0.77661 0.55494 0.0
C685 C 0.47411 0.74765 0.56321 0.0
C686 C 0.48967 0.76124 0.57928 0.0
C687 C 0.47888 0.79926 0.58726 0.0
H688 H 0.85881 0.42578 0.72773 0.0
H689 H 0.80357 0.45902 0.68291 0.0
H690 H 0.78789 0.43625 0.7417 0.0
H691 H 0.7335 0.47159 0.69703 0.0
H692 H 0.56229 0.37244 0.72318 0.0
H693 H 0.64816 0.40142 0.70862 0.0
H694 H 0.74386 0.4869 0.75058 0.0
H695 H 0.65731 0.45608 0.76539 0.0
C696 C 0.83262 0.43704 0.7209 0.0
C697 C 0.83574 0.44004 0.70417 0.0
C698 C 0.79211 0.44355 0.72895 0.0
C699 C 0.7542 0.45367 0.72045 0.0
C700 C 0.76121 0.46243 0.70387 0.0
C701 C 0.80152 0.45549 0.69579 0.0
C702 C 0.6016 0.39816 0.72926 0.0
C703 C 0.60304 0.41095 0.74553 0.0
C704 C 0.65102 0.41538 0.72084 0.0
C705 C 0.70303 0.44614 0.72847 0.0
C706 C 0.70445 0.46242 0.74444 0.0
C707 C 0.65489 0.44483 0.75291 0.0
H708 H 0.40456 0.84818 0.88492 0.0
H709 H 0.33556 0.7187 0.84906 0.0
H710 H 0.32398 0.79274 0.90198 0.0
H711 H 0.25692 0.66212 0.86629 0.0
H712 H 0.11773 0.56205 0.898 0.0
H713 H 0.17556 0.64 0.88035 0.0
H714 H 0.29981 0.7141 0.91764 0.0
H715 H 0.24081 0.63812 0.93537 0.0
C716 C 0.37179 0.80813 0.88062 0.0
C717 C 0.37673 0.78722 0.86581 0.0
C718 C 0.32575 0.77622 0.89041 0.0
C719 C 0.28435 0.72235 0.8857 0.0
C720 C 0.28747 0.70351 0.87033 0.0
C721 C 0.33296 0.73583 0.86045 0.0
C722 C 0.15682 0.59585 0.90249 0.0
C723 C 0.17532 0.59361 0.91793 0.0
C724 C 0.19013 0.64036 0.89237 0.0
C725 C 0.24302 0.68287 0.8974 0.0
C726 C 0.25926 0.68259 0.91331 0.0
C727 C 0.22553 0.63864 0.9235 0.0
H728 H 0.58954 0.14316 0.06205 0.0
H729 H 0.53687 0.18221 0.10642 0.0
H730 H 0.5719 0.20977 0.0482 0.0
H731 H 0.51701 0.24766 0.09239 0.0
H732 H 0.59649 0.42203 0.06786 0.0
H733 H 0.57795 0.3379 0.08193 0.0
H734 H 0.51226 0.24208 0.03858 0.0
H735 H 0.53297 0.32718 0.0243 0.0
C736 C 0.57268 0.16486 0.06878 0.0
C737 C 0.56577 0.15835 0.08538 0.0
C738 C 0.56207 0.20285 0.06079 0.0
C739 C 0.54375 0.23477 0.06921 0.0
C740 C 0.5323 0.22467 0.08561 0.0
C741 C 0.54345 0.187 0.09364 0.0
C742 C 0.57713 0.38288 0.06137 0.0
C743 C 0.56731 0.38143 0.04489 0.0
C744 C 0.56599 0.33436 0.0695 0.0
C745 C 0.54425 0.28319 0.06135 0.0
C746 C 0.53015 0.28103 0.04513 0.0
C747 C 0.54181 0.32974 0.03696 0.0
H748 H 0.34438 0.52231 0.27121 0.0
H749 H 0.43502 0.58016 0.22682 0.0
H750 H 0.25852 0.50275 0.25758 0.0
H751 H 0.35016 0.56271 0.21337 0.0
H752 H 0.19249 0.52226 0.19009 0.0
H753 H 0.25826 0.50206 0.20379 0.0
H754 H 0.22763 0.56366 0.24788 0.0
H755 H 0.16073 0.58175 0.23436 0.0
C756 C 0.34583 0.53013 0.25851 0.0
C757 C 0.39662 0.55373 0.25014 0.0
C758 C 0.29669 0.51914 0.25071 0.0
C759 C 0.29752 0.53196 0.23443 0.0
C760 C 0.34767 0.55177 0.22587 0.0
C761 C 0.39661 0.56229 0.23363 0.0
C762 C 0.19896 0.5303 0.20279 0.0
C763 C 0.17225 0.55456 0.21109 0.0
C764 C 0.2368 0.51894 0.21062 0.0
C765 C 0.24898 0.53208 0.22688 0.0
C766 C 0.21904 0.5525 0.23539 0.0
C767 C 0.1809 0.56336 0.2276 0.0
H768 H 0.03307 0.68994 0.24155 0.0
H769 H 0.10052 0.83581 0.21137 0.0
H770 H 0.05756 0.7492 0.26517 0.0
H771 H 0.12637 0.8956 0.23515 0.0
H772 H 0.08768 0.869 0.30526 0.0
H773 H 0.04267 0.82296 0.28022 0.0
H774 H 0.20211 0.90747 0.25633 0.0
H775 H 0.24742 0.95117 0.28133 0.0
C776 C 0.05183 0.73467 0.23999 0.0
C777 C 0.06504 0.75839 0.22468 0.0
C778 C 0.06567 0.76858 0.2535 0.0
C779 C 0.09408 0.82696 0.25197 0.0
C780 C 0.10453 0.85066 0.23662 0.0
C781 C 0.08946 0.81653 0.22305 0.0
C782 C 0.11294 0.87866 0.29458 0.0
C783 C 0.17104 0.91486 0.29527 0.0
C784 C 0.08713 0.8524 0.28027 0.0
C785 C 0.11885 0.86214 0.26633 0.0
C786 C 0.17646 0.90029 0.26682 0.0
C787 C 0.2024 0.92582 0.28117 0.0
H788 H 0.30854 0.99134 0.40562 0.0
H789 H 0.28829 0.11675 0.38091 0.0
H790 H 0.27898 0.01449 0.43048 0.0
H791 H 0.26326 0.14379 0.40591 0.0
H792 H 0.206 0.1765 0.45294 0.0
H793 H 0.208 0.13303 0.42771 0.0
H794 H 0.31946 0.08357 0.44902 0.0
H795 H 0.31419 0.12376 0.47418 0.0
C796 C 0.2968 0.02334 0.40554 0.0
C797 C 0.30018 0.05207 0.39145 0.0
C798 C 0.28077 0.03744 0.41982 0.0
C799 C 0.27008 0.08225 0.42045 0.0
C800 C 0.27056 0.1088 0.40603 0.0
C801 C 0.28497 0.09344 0.39165 0.0
C802 C 0.23051 0.1559 0.45213 0.0
C803 C 0.26016 0.15365 0.46543 0.0
C804 C 0.2319 0.13109 0.43767 0.0
C805 C 0.26388 0.10444 0.43615 0.0
C806 C 0.29304 0.10208 0.44965 0.0
C807 C 0.29058 0.1257 0.46412 0.0
H808 H 0.11563 0.19033 0.63785 0.0
H809 H 0.05956 0.29598 0.61636 0.0
H810 H 0.16773 0.19738 0.61343 0.0
H811 H 0.10778 0.29903 0.59182 0.0
H812 H 0.1689 0.24336 0.54632 0.0
H813 H 0.10887 0.21309 0.5701 0.0
H814 H 0.25323 0.30755 0.59995 0.0
H815 H 0.31301 0.33949 0.57626 0.0
C816 C 0.11283 0.21347 0.6278 0.0
C817 C 0.08156 0.24087 0.62895 0.0
C818 C 0.14247 0.21726 0.61386 0.0
C819 C 0.14055 0.24772 0.60074 0.0
C820 C 0.10844 0.27398 0.60168 0.0
C821 C 0.08004 0.27143 0.61572 0.0
C822 C 0.18789 0.2565 0.55799 0.0
C823 C 0.2455 0.29387 0.55949 0.0
C824 C 0.1536 0.23935 0.57153 0.0
C825 C 0.17676 0.25797 0.58674 0.0
C826 C 0.2347 0.29236 0.58832 0.0
C827 C 0.26873 0.31069 0.57479 0.0
H828 H 0.89166 0.0496 0.79225 0.0
H829 H 0.75205 0.0783 0.78969 0.0
H830 H 0.93281 0.1086 0.76851 0.0
H831 H 0.79229 0.13608 0.7661 0.0
H832 H 0.94198 0.17095 0.71433 0.0
H833 H 0.91107 0.11111 0.73813 0.0
H834 H 0.87811 0.23002 0.76202 0.0
H835 H 0.90859 0.28934 0.73858 0.0
C836 C 0.86953 0.06791 0.78647 0.0
C837 C 0.81814 0.05848 0.79255 0.0
C838 C 0.8929 0.10141 0.77292 0.0
C839 C 0.86579 0.12699 0.76551 0.0
C840 C 0.81431 0.11719 0.77162 0.0
C841 C 0.79086 0.08347 0.78499 0.0
C842 C 0.92901 0.18468 0.72476 0.0
C843 C 0.927 0.23457 0.72444 0.0
C844 C 0.91137 0.15045 0.73837 0.0
C845 C 0.89122 0.1655 0.75179 0.0
C846 C 0.89228 0.21678 0.75173 0.0
C847 C 0.90999 0.25087 0.73827 0.0
H848 H 0.71381 0.85317 0.97084 0.0
H849 H 0.77245 0.75697 0.94506 0.0
H850 H 0.69727 0.88667 0.94576 0.0
H851 H 0.75409 0.7894 0.9198 0.0
H852 H 0.5962 0.86135 0.90009 0.0
H853 H 0.62624 0.83827 0.92472 0.0
H854 H 0.78233 0.87582 0.90264 0.0
H855 H 0.75201 0.89901 0.87767 0.0
C856 C 0.72345 0.83931 0.95981 0.0
C857 C 0.74304 0.80114 0.95997 0.0
C858 C 0.71362 0.85829 0.94543 0.0
C859 C 0.72351 0.83997 0.9308 0.0
C860 C 0.74589 0.80409 0.93089 0.0
C861 C 0.75557 0.78483 0.94536 0.0
C862 C 0.6371 0.86506 0.90043 0.0
C863 C 0.6717 0.88208 0.88688 0.0
C864 C 0.65444 0.85209 0.91461 0.0
C865 C 0.70674 0.85543 0.91565 0.0
C866 C 0.74168 0.87264 0.90216 0.0
C867 C 0.72448 0.88625 0.88792 0.0
H868 H 0.89273 0.78624 0.13657 0.0
H869 H 0.97146 0.70299 0.11379 0.0
H870 H 0.8459 0.78272 0.11148 0.0
H871 H 0.9269 0.70211 0.08868 0.0
H872 H 0.85345 0.73051 0.04325 0.0
H873 H 0.91484 0.76504 0.06673 0.0
H874 H 0.77033 0.69134 0.0975 0.0
H875 H 0.70948 0.65582 0.07421 0.0
C876 C 0.90149 0.76883 0.12612 0.0
C877 C 0.93683 0.74594 0.12717 0.0
C878 C 0.87477 0.76696 0.11177 0.0
C879 C 0.8832 0.74258 0.09814 0.0
C880 C 0.92068 0.72229 0.09893 0.0
C881 C 0.94671 0.72331 0.11334 0.0
C882 C 0.83497 0.72314 0.05503 0.0
C883 C 0.77686 0.69045 0.05698 0.0
C884 C 0.87 0.74255 0.06842 0.0
C885 C 0.84724 0.73076 0.08389 0.0
C886 C 0.78896 0.70148 0.08572 0.0
C887 C 0.75417 0.681 0.07241 0.0
H888 H 0.12468 0.8892 0.48589 0.0
H889 H 0.04398 0.73131 0.51083 0.0
H890 H 0.17264 0.93604 0.51053 0.0
H891 H 0.08963 0.77855 0.53546 0.0
H892 H 0.30821 0.94889 0.54875 0.0
H893 H 0.24737 0.92112 0.52541 0.0
H894 H 0.10304 0.85725 0.55614 0.0
H895 H 0.16438 0.88647 0.57964 0.0
C896 C 0.11577 0.86473 0.49671 0.0
C897 C 0.07945 0.80661 0.49641 0.0
C898 C 0.14314 0.8916 0.51079 0.0
C899 C 0.13438 0.86095 0.5249 0.0
C900 C 0.09609 0.80335 0.52482 0.0
C901 C 0.06944 0.77632 0.51069 0.0
C902 C 0.26359 0.93038 0.55051 0.0
C903 C 0.24091 0.91969 0.56596 0.0
C904 C 0.22881 0.91468 0.53717 0.0
C905 C 0.17056 0.88689 0.539 0.0
C906 C 0.14787 0.87861 0.55444 0.0
C907 C 0.18289 0.89558 0.56784 0.0
H908 H 0.34458 0.1368 0.74305 0.0
H909 H 0.24486 0.21206 0.73153 0.0
H910 H 0.31132 0.07934 0.71906 0.0
H911 H 0.21133 0.15456 0.70727 0.0
H912 H 0.26382 0.12421 0.6561 0.0
H913 H 0.26518 0.16144 0.6825 0.0
H914 H 0.23057 0.005 0.70369 0.0
H915 H 0.22743 0.96693 0.6772 0.0
C916 C 0.31393 0.13946 0.7356 0.0
C917 C 0.29675 0.1782 0.73909 0.0
C918 C 0.29481 0.10658 0.72188 0.0
C919 C 0.25892 0.11262 0.71123 0.0
C920 C 0.23922 0.14927 0.71523 0.0
C921 C 0.2579 0.18174 0.72913 0.0
C922 C 0.25562 0.09731 0.66635 0.0
C923 C 0.24778 0.04326 0.66452 0.0
C924 C 0.25603 0.11861 0.68149 0.0
C925 C 0.24855 0.08635 0.69519 0.0
C926 C 0.23746 0.03117 0.69335 0.0
C927 C 0.23653 0.00966 0.67815 0.0
H928 H 0.19181 0.18207 0.84273 0.0
H929 H 0.16985 0.31317 0.82241 0.0
H930 H 0.14875 0.18834 0.86762 0.0
H931 H 0.13021 0.32209 0.84722 0.0
H932 H 0.0277 0.3121 0.88804 0.0
H933 H 0.05372 0.28387 0.86348 0.0
H934 H 0.16099 0.2415 0.89045 0.0
H935 H 0.13087 0.26575 0.91511 0.0
C936 C 0.17826 0.21258 0.84369 0.0
C937 C 0.18403 0.2471 0.83069 0.0
C938 C 0.15366 0.21635 0.85794 0.0
C939 C 0.13518 0.25536 0.85953 0.0
C940 C 0.14193 0.29019 0.84645 0.0
C941 C 0.1653 0.28558 0.8322 0.0
C942 C 0.05556 0.29517 0.88868 0.0
C943 C 0.07726 0.29093 0.90337 0.0
C944 C 0.0713 0.27977 0.87459 0.0
C945 C 0.11096 0.26188 0.8748 0.0
C946 C 0.13023 0.25475 0.88971 0.0
C947 C 0.11307 0.26866 0.90388 0.0
H948 H 0.89545 0.07601 0.99132 0.0
H949 H 0.95741 0.2392 0.01244 0.0
H950 H 0.8454 0.03293 0.01612 0.0
H951 H 0.9111 0.19591 0.03734 0.0
H952 H 0.84828 0.089 0.08342 0.0
H953 H 0.90826 0.11644 0.05965 0.0
H954 H 0.76262 0.0527 0.02951 0.0
H955 H 0.70289 0.02718 0.05316 0.0
C956 C 0.89998 0.10266 0.00136 0.0
C957 C 0.93215 0.16116 -3e-05 0.0
C958 C 0.8715 0.07793 0.01552 0.0
C959 C 0.87546 0.11121 0.02865 0.0
C960 C 0.90879 0.16941 0.02749 0.0
C961 C 0.93605 0.19419 0.01322 0.0
C962 C 0.82911 0.07958 0.07171 0.0
C963 C 0.77107 0.05615 0.07007 0.0
C964 C 0.86335 0.09544 0.05817 0.0
C965 C 0.83981 0.08648 0.04285 0.0
C966 C 0.78157 0.05953 0.04122 0.0
C967 C 0.74752 0.04512 0.05472 0.0
H968 H 0.71076 0.94637 0.1799 0.0
H969 H 0.8072 0.88117 0.15745 0.0
H970 H 0.71019 0.90066 0.20469 0.0
H971 H 0.80306 0.83212 0.18219 0.0
H972 H 0.67197 0.68945 0.21901 0.0
H973 H 0.70699 0.7507 0.19572 0.0
H974 H 0.78128 0.89476 0.22665 0.0
H975 H 0.74774 0.83317 0.25007 0.0
C976 C 0.73395 0.92444 0.18036 0.0
C977 C 0.76068 0.91915 0.16673 0.0
C978 C 0.73297 0.8976 0.19458 0.0
C979 C 0.75712 0.86346 0.19536 0.0
C980 C 0.78462 0.85869 0.1819 0.0
C981 C 0.78675 0.88661 0.16776 0.0
C982 C 0.69735 0.73411 0.22083 0.0
C983 C 0.70726 0.7567 0.23629 0.0
C984 C 0.71745 0.76908 0.20753 0.0
C985 C 0.74661 0.8273 0.20945 0.0
C986 C 0.75897 0.84993 0.22492 0.0
C987 C 0.74009 0.81478 0.23827 0.0
H988 H 0.75269 0.69583 0.34622 0.0
H989 H 0.91146 0.77119 0.32175 0.0
H990 H 0.79821 0.69331 0.37077 0.0
H991 H 0.95638 0.76575 0.34628 0.0
H992 H 0.96396 0.63778 0.38375 0.0
H993 H 0.93729 0.67282 0.3606 0.0
H994 H 0.87826 0.75664 0.39178 0.0
H995 H 0.90647 0.72266 0.41507 0.0
C996 C 0.79755 0.71406 0.34616 0.0
C997 C 0.82854 0.73503 0.33202 0.0
C998 C 0.82358 0.71204 0.36026 0.0
C999 C 0.88082 0.72957 0.36042 0.0
C1000 C 0.91221 0.75212 0.34647 0.0
C1001 C 0.8864 0.75509 0.33244 0.0
C1002 C 0.94673 0.66497 0.38565 0.0
C1003 C 0.93724 0.67752 0.40118 0.0
C1004 C 0.93163 0.68515 0.37241 0.0
C1005 C 0.90558 0.71725 0.37443 0.0
C1006 C 0.89828 0.73193 0.38994 0.0
C1007 C 0.9147 0.71281 0.40322 0.0
loop_
_geom_bond_atom_site_label_1
_geom_bond_atom_site_label_2
_geom_bond_distance
_geom_bond_site_symmetry_2
_ccdc_geom_bond_type
Co0 O3 1.970 . S
Co0 N17 1.989 . S
Co0 O25 1.967 . S
Co0 O32 1.920 . S
Co1 O4 1.966 . S
Co1 N10 2.022 . S
Co1 N18 1.993 . S
Co1 O26 1.941 . S
C2 O3 1.258 . S
C2 O4 1.263 . S
O3 Co0 1.970 . S
O3 C2 1.258 . S
O4 Co1 1.966 . S
O4 C2 1.263 . S
C5 O6 1.235 . S
C5 O32 1.289 . S
O6 C5 1.235 . S
C7 C9 1.400 . S
C7 N10 1.351 . S
C7 C12 1.501 . S
C8 C9 1.387 1_565 S
C8 N11 1.341 1_565 S
C9 C7 1.400 . S
C9 C8 1.387 1_545 S
N10 Co1 2.022 . S
N10 C7 1.351 . S
N10 N11 1.365 . S
N11 C8 1.341 1_545 S
N11 N10 1.365 . S
N11 H31 0.862 1_545 S
C12 C7 1.501 . S
C12 H13 0.961 . S
C12 H14 0.961 . S
C12 H15 0.960 . S
H13 C12 0.961 . S
H14 C12 0.961 . S
H15 C12 0.960 . S
C16 N17 1.342 . S
C16 C20 1.401 . S
C16 C21 1.499 . S
N17 Co0 1.989 . S
N17 C16 1.342 . S
N17 N18 1.388 . S
N18 Co1 1.993 . S
N18 N17 1.388 . S
N18 C19 1.346 . S
C19 N18 1.346 . S
C19 C20 1.396 . S
C19 C29 1.510 . S
C20 C16 1.401 . S
C20 C19 1.396 . S
C21 C16 1.499 . S
C21 H22 0.959 . S
C21 H23 0.960 . S
C21 H24 0.961 . S
H22 C21 0.959 . S
H23 C21 0.960 . S
H24 C21 0.961 . S
O25 Co0 1.967 . S
O25 C33 1.258 . S
O26 Co1 1.941 . S
O26 C33 1.266 . S
H27 C29 0.959 1_565 S
H28 C29 0.961 . S
C29 C19 1.510 . S
C29 H27 0.959 1_545 S
C29 H28 0.961 . S
C29 H30 0.960 . S
H30 C29 0.960 . S
H31 N11 0.862 1_565 S
O32 Co0 1.920 . S
O32 C5 1.289 . S
C33 O25 1.258 . S
C33 O26 1.266 . S
Co34 O37 1.970 . S
Co34 N51 1.989 . S
Co34 O59 1.967 . S
Co34 O66 1.920 . S
Co35 O38 1.966 . S
Co35 N44 2.022 . S
Co35 N52 1.993 . S
Co35 O60 1.941 . S
C36 O37 1.258 . S
C36 O38 1.263 . S
O37 Co34 1.970 . S
O37 C36 1.258 . S
O38 Co35 1.966 . S
O38 C36 1.263 . S
C39 O40 1.235 . S
C39 O66 1.289 . S
O40 C39 1.235 . S
C41 C43 1.400 . S
C41 N44 1.351 . S
C41 C46 1.501 . S
C42 C43 1.387 . S
C42 N45 1.341 . S
C43 C41 1.400 . S
C43 C42 1.387 . S
N44 Co35 2.022 . S
N44 C41 1.351 . S
N44 N45 1.365 . S
N45 C42 1.341 . S
N45 N44 1.365 . S
N45 H65 0.862 . S
C46 C41 1.501 . S
C46 H47 0.961 . S
C46 H48 0.961 . S
C46 H49 0.960 . S
H47 C46 0.961 . S
H48 C46 0.961 . S
H49 C46 0.960 . S
C50 N51 1.342 . S
C50 C54 1.401 . S
C50 C55 1.499 . S
N51 Co34 1.989 . S
N51 C50 1.342 . S
N51 N52 1.388 . S
N52 Co35 1.993 . S
N52 N51 1.388 . S
N52 C53 1.346 . S
C53 N52 1.346 . S
C53 C54 1.396 . S
C53 C63 1.510 . S
C54 C50 1.401 . S
C54 C53 1.396 . S
C55 C50 1.499 . S
C55 H56 0.959 . S
C55 H57 0.960 . S
C55 H58 0.961 . S
H56 C55 0.959 . S
H57 C55 0.960 . S
H58 C55 0.961 . S
O59 Co34 1.967 . S
O59 C67 1.258 . S
O60 Co35 1.941 . S
O60 C67 1.266 . S
H61 C63 0.959 . S
H62 C63 0.961 . S
C63 C53 1.510 . S
C63 H61 0.959 . S
C63 H62 0.961 . S
C63 H64 0.960 . S
H64 C63 0.960 . S
H65 N45 0.862 . S
O66 Co34 1.920 . S
O66 C39 1.289 . S
C67 O59 1.258 . S
C67 O60 1.266 . S
Co68 O71 1.970 . S
Co68 N85 1.989 . S
Co68 O93 1.967 . S
Co68 O100 1.920 . S
Co69 O72 1.966 . S
Co69 N78 2.022 . S
Co69 N86 1.993 . S
Co69 O94 1.941 . S
C70 O71 1.258 . S
C70 O72 1.263 . S
O71 Co68 1.970 . S
O71 C70 1.258 . S
O72 Co69 1.966 . S
O72 C70 1.263 . S
C73 O74 1.235 . S
C73 O100 1.289 . S
O74 C73 1.235 . S
C75 C77 1.400 . S
C75 N78 1.351 . S
C75 C80 1.501 . S
C76 C77 1.387 1_455 S
C76 N79 1.341 1_455 S
C77 C75 1.400 . S
C77 C76 1.387 1_655 S
N78 Co69 2.022 . S
N78 C75 1.351 . S
N78 N79 1.365 . S
N79 C76 1.341 1_655 S
N79 N78 1.365 . S
N79 H99 0.862 . S
C80 C75 1.501 . S
C80 H81 0.961 . S
C80 H82 0.961 . S
C80 H83 0.960 . S
H81 C80 0.961 . S
H82 C80 0.961 . S
H83 C80 0.960 . S
C84 N85 1.342 . S
C84 C88 1.401 . S
C84 C89 1.499 . S
N85 Co68 1.989 . S
N85 C84 1.342 . S
N85 N86 1.388 . S
N86 Co69 1.993 . S
N86 N85 1.388 . S
N86 C87 1.346 . S
C87 N86 1.346 . S
C87 C88 1.396 . S
C87 C97 1.510 . S
C88 C84 1.401 . S
C88 C87 1.396 . S
C89 C84 1.499 . S
C89 H90 0.959 . S
C89 H91 0.960 . S
C89 H92 0.961 . S
H90 C89 0.959 . S
H91 C89 0.960 . S
H92 C89 0.961 . S
O93 Co68 1.967 . S
O93 C101 1.258 . S
O94 Co69 1.941 . S
O94 C101 1.266 . S
H95 C97 0.959 1_455 S
H96 C97 0.961 . S
C97 C87 1.510 . S
C97 H95 0.959 1_655 S
C97 H96 0.961 . S
C97 H98 0.960 . S
H98 C97 0.960 . S
H99 N79 0.862 . S
O100 Co68 1.920 . S
O100 C73 1.289 . S
C101 O93 1.258 . S
C101 O94 1.266 . S
Co102 O105 1.970 . S
Co102 N119 1.989 . S
Co102 O127 1.967 . S
Co102 O134 1.920 . S
Co103 O106 1.966 . S
Co103 N112 2.022 . S
Co103 N120 1.993 . S
Co103 O128 1.941 . S
C104 O105 1.258 . S
C104 O106 1.263 . S
O105 Co102 1.970 . S
O105 C104 1.258 . S
O106 Co103 1.966 . S
O106 C104 1.263 . S
C107 O108 1.235 . S
C107 O134 1.289 . S
O108 C107 1.235 . S
C109 C111 1.400 . S
C109 N112 1.351 . S
C109 C114 1.501 . S
C110 C111 1.387 . S
C110 N113 1.341 . S
C111 C109 1.400 . S
C111 C110 1.387 . S
N112 Co103 2.022 . S
N112 C109 1.351 . S
N112 N113 1.365 . S
N113 C110 1.341 . S
N113 N112 1.365 . S
N113 H133 0.862 . S
C114 C109 1.501 . S
C114 H115 0.961 . S
C114 H116 0.961 . S
C114 H117 0.960 . S
H115 C114 0.961 . S
H116 C114 0.961 . S
H117 C114 0.960 . S
C118 N119 1.342 . S
C118 C122 1.401 . S
C118 C123 1.499 . S
N119 Co102 1.989 . S
N119 C118 1.342 . S
N119 N120 1.388 . S
N120 Co103 1.993 . S
N120 N119 1.388 . S
N120 C121 1.346 . S
C121 N120 1.346 . S
C121 C122 1.396 . S
C121 C131 1.510 . S
C122 C118 1.401 . S
C122 C121 1.396 . S
C123 C118 1.499 . S
C123 H124 0.959 . S
C123 H125 0.960 . S
C123 H126 0.961 . S
H124 C123 0.959 . S
H125 C123 0.960 . S
H126 C123 0.961 . S
O127 Co102 1.967 . S
O127 C135 1.258 . S
O128 Co103 1.941 . S
O128 C135 1.266 . S
H129 C131 0.959 . S
H130 C131 0.961 . S
C131 C121 1.510 . S
C131 H129 0.959 . S
C131 H130 0.961 . S
C131 H132 0.960 . S
H132 C131 0.960 . S
H133 N113 0.862 . S
O134 Co102 1.920 . S
O134 C107 1.289 . S
C135 O127 1.258 . S
C135 O128 1.266 . S
Co136 O139 1.970 . S
Co136 N153 1.989 . S
Co136 O161 1.967 . S
Co136 O168 1.920 . S
Co137 O140 1.966 . S
Co137 N146 2.022 . S
Co137 N154 1.993 . S
Co137 O162 1.941 1_556 S
C138 O139 1.258 1_556 S
C138 O140 1.263 . S
O139 Co136 1.970 . S
O139 C138 1.258 1_554 S
O140 Co137 1.966 . S
O140 C138 1.263 . S
C141 O142 1.235 . S
C141 O168 1.289 . S
O142 C141 1.235 . S
C143 C145 1.400 . S
C143 N146 1.351 . S
C143 C148 1.501 . S
C144 C145 1.387 . S
C144 N147 1.341 . S
C145 C143 1.400 . S
C145 C144 1.387 . S
N146 Co137 2.022 . S
N146 C143 1.351 . S
N146 N147 1.365 . S
N147 C144 1.341 . S
N147 N146 1.365 . S
N147 H167 0.862 . S
C148 C143 1.501 . S
C148 H149 0.961 . S
C148 H150 0.961 . S
C148 H151 0.960 . S
H149 C148 0.961 . S
H150 C148 0.961 . S
H151 C148 0.960 . S
C152 N153 1.342 . S
C152 C156 1.401 . S
C152 C157 1.499 . S
N153 Co136 1.989 . S
N153 C152 1.342 . S
N153 N154 1.388 1_554 S
N154 Co137 1.993 . S
N154 N153 1.388 1_556 S
N154 C155 1.346 . S
C155 N154 1.346 . S
C155 C156 1.396 1_556 S
C155 C165 1.510 . S
C156 C152 1.401 . S
C156 C155 1.396 1_554 S
C157 C152 1.499 . S
C157 H158 0.959 . S
C157 H159 0.960 . S
C157 H160 0.961 . S
H158 C157 0.959 . S
H159 C157 0.960 . S
H160 C157 0.961 . S
O161 Co136 1.967 . S
O161 C169 1.258 . S
O162 Co137 1.941 1_554 S
O162 C169 1.266 . S
H163 C165 0.959 . S
H164 C165 0.961 . S
C165 C155 1.510 . S
C165 H163 0.959 . S
C165 H164 0.961 . S
C165 H166 0.960 . S
H166 C165 0.960 . S
H167 N147 0.862 . S
O168 Co136 1.920 . S
O168 C141 1.289 . S
C169 O161 1.258 . S
C169 O162 1.266 . S
Co170 O173 1.970 . S
Co170 N187 1.989 . S
Co170 O195 1.967 . S
Co170 O202 1.920 . S
Co171 O174 1.966 . S
Co171 N180 2.022 . S
Co171 N188 1.993 . S
Co171 O196 1.941 . S
C172 O173 1.258 . S
C172 O174 1.263 . S
O173 Co170 1.970 . S
O173 C172 1.258 . S
O174 Co171 1.966 . S
O174 C172 1.263 . S
C175 O176 1.235 . S
C175 O202 1.289 . S
O176 C175 1.235 . S
C177 C179 1.400 . S
C177 N180 1.351 . S
C177 C182 1.501 . S
C178 C179 1.387 . S
C178 N181 1.341 . S
C179 C177 1.400 . S
C179 C178 1.387 . S
N180 Co171 2.022 . S
N180 C177 1.351 . S
N180 N181 1.365 . S
N181 C178 1.341 . S
N181 N180 1.365 . S
N181 H201 0.862 . S
C182 C177 1.501 . S
C182 H183 0.961 . S
C182 H184 0.961 . S
C182 H185 0.960 . S
H183 C182 0.961 . S
H184 C182 0.961 . S
H185 C182 0.960 . S
C186 N187 1.342 . S
C186 C190 1.401 . S
C186 C191 1.499 . S
N187 Co170 1.989 . S
N187 C186 1.342 . S
N187 N188 1.388 . S
N188 Co171 1.993 . S
N188 N187 1.388 . S
N188 C189 1.346 . S
C189 N188 1.346 . S
C189 C190 1.396 . S
C189 C199 1.510 . S
C190 C186 1.401 . S
C190 C189 1.396 . S
C191 C186 1.499 . S
C191 H192 0.959 . S
C191 H193 0.960 . S
C191 H194 0.961 . S
H192 C191 0.959 . S
H193 C191 0.960 . S
H194 C191 0.961 . S
O195 Co170 1.967 . S
O195 C203 1.258 . S
O196 Co171 1.941 . S
O196 C203 1.266 . S
H197 C199 0.959 1_655 S
H198 C199 0.961 . S
C199 C189 1.510 . S
C199 H197 0.959 1_455 S
C199 H198 0.961 . S
C199 H200 0.960 . S
H200 C199 0.960 . S
H201 N181 0.862 . S
O202 Co170 1.920 . S
O202 C175 1.289 . S
C203 O195 1.258 . S
C203 O196 1.266 . S
Co204 O207 1.970 . S
Co204 N221 1.989 . S
Co204 O229 1.967 . S
Co204 O236 1.920 . S
Co205 O208 1.966 . S
Co205 N214 2.022 . S
Co205 N222 1.993 . S
Co205 O230 1.941 . S
C206 O207 1.258 . S
C206 O208 1.263 . S
O207 Co204 1.970 . S
O207 C206 1.258 . S
O208 Co205 1.966 . S
O208 C206 1.263 . S
C209 O210 1.235 . S
C209 O236 1.289 . S
O210 C209 1.235 . S
C211 C213 1.400 . S
C211 N214 1.351 . S
C211 C216 1.501 . S
C212 C213 1.387 1_455 S
C212 N215 1.341 1_455 S
C213 C211 1.400 . S
C213 C212 1.387 1_655 S
N214 Co205 2.022 . S
N214 C211 1.351 . S
N214 N215 1.365 . S
N215 C212 1.341 1_655 S
N215 N214 1.365 . S
N215 H235 0.862 . S
C216 C211 1.501 . S
C216 H217 0.961 . S
C216 H218 0.961 . S
C216 H219 0.960 . S
H217 C216 0.961 . S
H218 C216 0.961 . S
H219 C216 0.960 . S
C220 N221 1.342 . S
C220 C224 1.401 . S
C220 C225 1.499 . S
N221 Co204 1.989 . S
N221 C220 1.342 . S
N221 N222 1.388 . S
N222 Co205 1.993 . S
N222 N221 1.388 . S
N222 C223 1.346 . S
C223 N222 1.346 . S
C223 C224 1.396 . S
C223 C233 1.510 . S
C224 C220 1.401 . S
C224 C223 1.396 . S
C225 C220 1.499 . S
C225 H226 0.959 . S
C225 H227 0.960 . S
C225 H228 0.961 . S
H226 C225 0.959 . S
H227 C225 0.960 . S
H228 C225 0.961 . S
O229 Co204 1.967 . S
O229 C237 1.258 . S
O230 Co205 1.941 . S
O230 C237 1.266 . S
H231 C233 0.959 1_455 S
H232 C233 0.961 . S
C233 C223 1.510 . S
C233 H231 0.959 1_655 S
C233 H232 0.961 . S
C233 H234 0.960 . S
H234 C233 0.960 . S
H235 N215 0.862 . S
O236 Co204 1.920 . S
O236 C209 1.289 . S
C237 O229 1.258 . S
C237 O230 1.266 . S
Co238 O241 1.970 . S
Co238 N255 1.989 . S
Co238 O263 1.967 . S
Co238 O270 1.920 . S
Co239 O242 1.966 . S
Co239 N248 2.022 . S
Co239 N256 1.993 . S
Co239 O264 1.941 . S
C240 O241 1.258 . S
C240 O242 1.263 . S
O241 Co238 1.970 . S
O241 C240 1.258 . S
O242 Co239 1.966 . S
O242 C240 1.263 . S
C243 O244 1.235 . S
C243 O270 1.289 . S
O244 C243 1.235 . S
C245 C247 1.400 . S
C245 N248 1.351 . S
C245 C250 1.501 . S
C246 C247 1.387 . S
C246 N249 1.341 . S
C247 C245 1.400 . S
C247 C246 1.387 . S
N248 Co239 2.022 . S
N248 C245 1.351 . S
N248 N249 1.365 . S
N249 C246 1.341 . S
N249 N248 1.365 . S
N249 H269 0.862 . S
C250 C245 1.501 . S
C250 H251 0.961 . S
C250 H252 0.961 . S
C250 H253 0.960 . S
H251 C250 0.961 . S
H252 C250 0.961 . S
H253 C250 0.960 . S
C254 N255 1.342 . S
C254 C258 1.401 . S
C254 C259 1.499 . S
N255 Co238 1.989 . S
N255 C254 1.342 . S
N255 N256 1.388 . S
N256 Co239 1.993 . S
N256 N255 1.388 . S
N256 C257 1.346 . S
C257 N256 1.346 . S
C257 C258 1.396 . S
C257 C267 1.510 . S
C258 C254 1.401 . S
C258 C257 1.396 . S
C259 C254 1.499 . S
C259 H260 0.959 . S
C259 H261 0.960 . S
C259 H262 0.961 . S
H260 C259 0.959 . S
H261 C259 0.960 . S
H262 C259 0.961 . S
O263 Co238 1.967 . S
O263 C271 1.258 . S
O264 Co239 1.941 . S
O264 C271 1.266 . S
H265 C267 0.959 . S
H266 C267 0.961 . S
C267 C257 1.510 . S
C267 H265 0.959 . S
C267 H266 0.961 . S
C267 H268 0.960 . S
H268 C267 0.960 . S
H269 N249 0.862 . S
O270 Co238 1.920 . S
O270 C243 1.289 . S
C271 O263 1.258 . S
C271 O264 1.266 . S
Co272 O275 1.970 . S
Co272 N289 1.989 . S
Co272 O297 1.967 . S
Co272 O304 1.920 . S
Co273 O276 1.966 . S
Co273 N282 2.022 . S
Co273 N290 1.993 . S
Co273 O298 1.941 . S
C274 O275 1.258 . S
C274 O276 1.263 . S
O275 Co272 1.970 . S
O275 C274 1.258 . S
O276 Co273 1.966 . S
O276 C274 1.263 . S
C277 O278 1.235 . S
C277 O304 1.289 . S
O278 C277 1.235 . S
C279 C281 1.400 . S
C279 N282 1.351 . S
C279 C284 1.501 . S
C280 C281 1.387 . S
C280 N283 1.341 . S
C281 C279 1.400 . S
C281 C280 1.387 . S
N282 Co273 2.022 . S
N282 C279 1.351 . S
N282 N283 1.365 . S
N283 C280 1.341 . S
N283 N282 1.365 . S
N283 H303 0.862 . S
C284 C279 1.501 . S
C284 H285 0.961 . S
C284 H286 0.961 . S
C284 H287 0.960 . S
H285 C284 0.961 . S
H286 C284 0.961 . S
H287 C284 0.960 . S
C288 N289 1.342 . S
C288 C292 1.401 . S
C288 C293 1.499 . S
N289 Co272 1.989 . S
N289 C288 1.342 . S
N289 N290 1.388 . S
N290 Co273 1.993 . S
N290 N289 1.388 . S
N290 C291 1.346 . S
C291 N290 1.346 . S
C291 C292 1.396 . S
C291 C301 1.510 . S
C292 C288 1.401 . S
C292 C291 1.396 . S
C293 C288 1.499 . S
C293 H294 0.959 . S
C293 H295 0.960 . S
C293 H296 0.961 . S
H294 C293 0.959 . S
H295 C293 0.960 . S
H296 C293 0.961 . S
O297 Co272 1.967 . S
O297 C305 1.258 . S
O298 Co273 1.941 . S
O298 C305 1.266 . S
H299 C301 0.959 . S
H300 C301 0.961 . S
C301 C291 1.510 . S
C301 H299 0.959 . S
C301 H300 0.961 . S
C301 H302 0.960 . S
H302 C301 0.960 . S
H303 N283 0.862 . S
O304 Co272 1.920 . S
O304 C277 1.289 . S
C305 O297 1.258 . S
C305 O298 1.266 . S
Co306 O309 1.970 . S
Co306 N323 1.989 . S
Co306 O331 1.967 . S
Co306 O338 1.920 . S
Co307 O310 1.966 . S
Co307 N316 2.022 . S
Co307 N324 1.993 . S
Co307 O332 1.941 . S
C308 O309 1.258 . S
C308 O310 1.263 . S
O309 Co306 1.970 . S
O309 C308 1.258 . S
O310 Co307 1.966 . S
O310 C308 1.263 . S
C311 O312 1.235 . S
C311 O338 1.289 . S
O312 C311 1.235 . S
C313 C315 1.400 . S
C313 N316 1.351 1_554 S
C313 C318 1.501 . S
C314 C315 1.387 . S
C314 N317 1.341 1_554 S
C315 C313 1.400 . S
C315 C314 1.387 . S
N316 Co307 2.022 . S
N316 C313 1.351 1_556 S
N316 N317 1.365 . S
N317 C314 1.341 1_556 S
N317 N316 1.365 . S
N317 H337 0.862 . S
C318 C313 1.501 . S
C318 H319 0.961 . S
C318 H320 0.961 . S
C318 H321 0.960 . S
H319 C318 0.961 . S
H320 C318 0.961 . S
H321 C318 0.960 . S
C322 N323 1.342 . S
C322 C326 1.401 . S
C322 C327 1.499 . S
N323 Co306 1.989 . S
N323 C322 1.342 . S
N323 N324 1.388 . S
N324 Co307 1.993 . S
N324 N323 1.388 . S
N324 C325 1.346 . S
C325 N324 1.346 . S
C325 C326 1.396 . S
C325 C335 1.510 . S
C326 C322 1.401 . S
C326 C325 1.396 . S
C327 C322 1.499 . S
C327 H328 0.959 . S
C327 H329 0.960 . S
C327 H330 0.961 . S
H328 C327 0.959 . S
H329 C327 0.960 . S
H330 C327 0.961 . S
O331 Co306 1.967 . S
O331 C339 1.258 . S
O332 Co307 1.941 . S
O332 C339 1.266 . S
H333 C335 0.959 1_655 S
H334 C335 0.961 . S
C335 C325 1.510 . S
C335 H333 0.959 1_455 S
C335 H334 0.961 . S
C335 H336 0.960 . S
H336 C335 0.960 . S
H337 N317 0.862 . S
O338 Co306 1.920 . S
O338 C311 1.289 . S
C339 O331 1.258 . S
C339 O332 1.266 . S
Co340 O343 1.970 . S
Co340 N357 1.989 . S
Co340 O365 1.967 . S
Co340 O372 1.920 . S
Co341 O344 1.966 . S
Co341 N350 2.022 . S
Co341 N358 1.993 . S
Co341 O366 1.941 . S
C342 O343 1.258 . S
C342 O344 1.263 . S
O343 Co340 1.970 . S
O343 C342 1.258 . S
O344 Co341 1.966 . S
O344 C342 1.263 . S
C345 O346 1.235 . S
C345 O372 1.289 . S
O346 C345 1.235 . S
C347 C349 1.400 . S
C347 N350 1.351 . S
C347 C352 1.501 . S
C348 C349 1.387 1_565 S
C348 N351 1.341 1_565 S
C349 C347 1.400 . S
C349 C348 1.387 1_545 S
N350 Co341 2.022 . S
N350 C347 1.351 . S
N350 N351 1.365 . S
N351 C348 1.341 1_545 S
N351 N350 1.365 . S
N351 H371 0.862 1_545 S
C352 C347 1.501 . S
C352 H353 0.961 . S
C352 H354 0.961 . S
C352 H355 0.960 . S
H353 C352 0.961 . S
H354 C352 0.961 . S
H355 C352 0.960 . S
C356 N357 1.342 . S
C356 C360 1.401 . S
C356 C361 1.499 . S
N357 Co340 1.989 . S
N357 C356 1.342 . S
N357 N358 1.388 . S
N358 Co341 1.993 . S
N358 N357 1.388 . S
N358 C359 1.346 . S
C359 N358 1.346 . S
C359 C360 1.396 . S
C359 C369 1.510 . S
C360 C356 1.401 . S
C360 C359 1.396 . S
C361 C356 1.499 . S
C361 H362 0.959 . S
C361 H363 0.960 . S
C361 H364 0.961 . S
H362 C361 0.959 . S
H363 C361 0.960 . S
H364 C361 0.961 . S
O365 Co340 1.967 . S
O365 C373 1.258 . S
O366 Co341 1.941 . S
O366 C373 1.266 . S
H367 C369 0.959 1_565 S
H368 C369 0.961 . S
C369 C359 1.510 . S
C369 H367 0.959 1_545 S
C369 H368 0.961 . S
C369 H370 0.960 . S
H370 C369 0.960 . S
H371 N351 0.862 1_565 S
O372 Co340 1.920 . S
O372 C345 1.289 . S
C373 O365 1.258 . S
C373 O366 1.266 . S
Co374 O377 1.970 . S
Co374 N391 1.989 . S
Co374 O399 1.967 . S
Co374 O406 1.920 . S
Co375 O378 1.966 . S
Co375 N384 2.022 . S
Co375 N392 1.993 . S
Co375 O400 1.941 . S
C376 O377 1.258 . S
C376 O378 1.263 . S
O377 Co374 1.970 . S
O377 C376 1.258 . S
O378 Co375 1.966 . S
O378 C376 1.263 . S
C379 O380 1.235 . S
C379 O406 1.289 . S
O380 C379 1.235 . S
C381 C383 1.400 . S
C381 N384 1.351 . S
C381 C386 1.501 . S
C382 C383 1.387 . S
C382 N385 1.341 . S
C383 C381 1.400 . S
C383 C382 1.387 . S
N384 Co375 2.022 . S
N384 C381 1.351 . S
N384 N385 1.365 . S
N385 C382 1.341 . S
N385 N384 1.365 . S
N385 H405 0.862 . S
C386 C381 1.501 . S
C386 H387 0.961 . S
C386 H388 0.961 . S
C386 H389 0.960 . S
H387 C386 0.961 . S
H388 C386 0.961 . S
H389 C386 0.960 . S
C390 N391 1.342 . S
C390 C394 1.401 . S
C390 C395 1.499 . S
N391 Co374 1.989 . S
N391 C390 1.342 . S
N391 N392 1.388 . S
N392 Co375 1.993 . S
N392 N391 1.388 . S
N392 C393 1.346 . S
C393 N392 1.346 . S
C393 C394 1.396 . S
C393 C403 1.510 . S
C394 C390 1.401 . S
C394 C393 1.396 . S
C395 C390 1.499 . S
C395 H396 0.959 . S
C395 H397 0.960 . S
C395 H398 0.961 . S
H396 C395 0.959 . S
H397 C395 0.960 . S
H398 C395 0.961 . S
O399 Co374 1.967 . S
O399 C407 1.258 . S
O400 Co375 1.941 . S
O400 C407 1.266 . S
H401 C403 0.959 . S
H402 C403 0.961 . S
C403 C393 1.510 . S
C403 H401 0.959 . S
C403 H402 0.961 . S
C403 H404 0.960 . S
H404 C403 0.960 . S
H405 N385 0.862 . S
O406 Co374 1.920 . S
O406 C379 1.289 . S
C407 O399 1.258 . S
C407 O400 1.266 . S
H408 C416 0.950 . S
H409 C421 0.950 . S
H410 C418 0.950 . S
H411 C420 0.950 . S
H412 C422 0.950 . S
H413 C424 0.950 . S
H414 C426 0.950 1_545 S
H415 C427 0.950 . S
C416 H408 0.950 . S
C416 C417 1.386 . S
C416 C418 1.391 . S
C417 C416 1.386 . S
C417 C421 1.393 1_545 S
C418 H410 0.950 . S
C418 C416 1.391 . S
C418 C419 1.400 1_545 S
C419 C418 1.400 1_565 S
C419 C420 1.398 . S
C419 C425 1.491 . S
C420 H411 0.950 . S
C420 C419 1.398 . S
C420 C421 1.391 . S
C421 H409 0.950 . S
C421 C417 1.393 1_565 S
C421 C420 1.391 . S
C422 H412 0.950 . S
C422 C423 1.386 . S
C422 C424 1.391 . S
C423 C422 1.386 . S
C423 C427 1.393 . S
C424 H413 0.950 . S
C424 C422 1.391 . S
C424 C425 1.400 . S
C425 C419 1.491 . S
C425 C424 1.400 . S
C425 C426 1.398 . S
C426 H414 0.950 1_565 S
C426 C425 1.398 . S
C426 C427 1.391 . S
C427 H415 0.950 . S
C427 C423 1.393 . S
C427 C426 1.391 . S
H428 C436 0.950 . S
H429 C441 0.950 . S
H430 C438 0.950 . S
H431 C440 0.950 . S
H432 C442 0.950 . S
H433 C444 0.950 . S
H434 C446 0.950 . S
H435 C447 0.950 . S
C436 H428 0.950 . S
C436 C437 1.386 . S
C436 C438 1.391 . S
C437 C436 1.386 . S
C437 C441 1.393 . S
C438 H430 0.950 . S
C438 C436 1.391 . S
C438 C439 1.400 . S
C439 C438 1.400 . S
C439 C440 1.398 . S
C439 C445 1.491 . S
C440 H431 0.950 . S
C440 C439 1.398 . S
C440 C441 1.391 . S
C441 H429 0.950 . S
C441 C437 1.393 . S
C441 C440 1.391 . S
C442 H432 0.950 . S
C442 C443 1.386 . S
C442 C444 1.391 . S
C443 C442 1.386 . S
C443 C447 1.393 . S
C444 H433 0.950 . S
C444 C442 1.391 . S
C444 C445 1.400 . S
C445 C439 1.491 . S
C445 C444 1.400 . S
C445 C446 1.398 . S
C446 H434 0.950 . S
C446 C445 1.398 . S
C446 C447 1.391 . S
C447 H435 0.950 . S
C447 C443 1.393 . S
C447 C446 1.391 . S
H448 C456 0.950 . S
H449 C461 0.950 . S
H450 C458 0.950 1_655 S
H451 C460 0.950 . S
H452 C462 0.950 . S
H453 C464 0.950 . S
H454 C466 0.950 . S
H455 C467 0.950 . S
C456 H448 0.950 . S
C456 C457 1.386 . S
C456 C458 1.391 . S
C457 C456 1.386 . S
C457 C461 1.393 . S
C458 H450 0.950 1_455 S
C458 C456 1.391 . S
C458 C459 1.400 . S
C459 C458 1.400 . S
C459 C460 1.398 . S
C459 C465 1.491 . S
C460 H451 0.950 . S
C460 C459 1.398 . S
C460 C461 1.391 . S
C461 H449 0.950 . S
C461 C457 1.393 . S
C461 C460 1.391 . S
C462 H452 0.950 . S
C462 C463 1.386 1_455 S
C462 C464 1.391 . S
C463 C462 1.386 1_655 S
C463 C467 1.393 . S
C464 H453 0.950 . S
C464 C462 1.391 . S
C464 C465 1.400 . S
C465 C459 1.491 . S
C465 C464 1.400 . S
C465 C466 1.398 1_455 S
C466 H454 0.950 . S
C466 C465 1.398 1_655 S
C466 C467 1.391 . S
C467 H455 0.950 . S
C467 C463 1.393 . S
C467 C466 1.391 . S
H468 C476 0.950 . S
H469 C481 0.950 . S
H470 C478 0.950 . S
H471 C480 0.950 . S
H472 C482 0.950 . S
H473 C484 0.950 . S
H474 C486 0.950 . S
H475 C487 0.950 . S
C476 H468 0.950 . S
C476 C477 1.386 . S
C476 C478 1.391 . S
C477 C476 1.386 . S
C477 C481 1.393 . S
C478 H470 0.950 . S
C478 C476 1.391 . S
C478 C479 1.400 . S
C479 C478 1.400 . S
C479 C480 1.398 . S
C479 C485 1.491 . S
C480 H471 0.950 . S
C480 C479 1.398 . S
C480 C481 1.391 . S
C481 H469 0.950 . S
C481 C477 1.393 . S
C481 C480 1.391 . S
C482 H472 0.950 . S
C482 C483 1.386 . S
C482 C484 1.391 . S
C483 C482 1.386 . S
C483 C487 1.393 . S
C484 H473 0.950 . S
C484 C482 1.391 . S
C484 C485 1.400 1_565 S
C485 C479 1.491 . S
C485 C484 1.400 1_545 S
C485 C486 1.398 . S
C486 H474 0.950 . S
C486 C485 1.398 . S
C486 C487 1.391 1_545 S
C487 H475 0.950 . S
C487 C483 1.393 . S
C487 C486 1.391 1_565 S
H488 C496 0.950 . S
H489 C501 0.950 . S
H490 C498 0.945 1_554 S
H491 C500 0.950 . S
H492 C502 0.950 . S
H493 C504 0.950 . S
H494 C506 0.950 . S
H495 C507 0.950 . S
C496 H488 0.950 . S
C496 C497 1.390 . S
C496 C498 1.383 1_554 S
C497 C496 1.390 . S
C497 C501 1.385 1_554 S
C498 H490 0.945 1_556 S
C498 C496 1.383 1_556 S
C498 C499 1.415 . S
C499 C498 1.415 . S
C499 C500 1.398 . S
C499 C505 1.491 . S
C500 H491 0.950 . S
C500 C499 1.398 . S
C500 C501 1.391 . S
C501 H489 0.950 . S
C501 C497 1.385 1_556 S
C501 C500 1.391 . S
C502 H492 0.950 . S
C502 C503 1.386 . S
C502 C504 1.391 . S
C503 C502 1.386 . S
C503 C507 1.393 . S
C504 H493 0.950 . S
C504 C502 1.391 . S
C504 C505 1.400 . S
C505 C499 1.491 . S
C505 C504 1.400 . S
C505 C506 1.398 . S
C506 H494 0.950 . S
C506 C505 1.398 . S
C506 C507 1.391 . S
C507 H495 0.950 . S
C507 C503 1.393 . S
C507 C506 1.391 . S
H508 C516 0.950 . S
H509 C521 0.950 . S
H510 C518 0.950 . S
H511 C520 0.950 . S
H512 C522 0.950 . S
H513 C524 0.950 1_455 S
H514 C526 0.950 . S
H515 C527 0.950 . S
C516 H508 0.950 . S
C516 C517 1.386 1_655 S
C516 C518 1.391 . S
C517 C516 1.386 1_455 S
C517 C521 1.393 . S
C518 H510 0.950 . S
C518 C516 1.391 . S
C518 C519 1.400 . S
C519 C518 1.400 . S
C519 C520 1.398 1_655 S
C519 C525 1.491 . S
C520 H511 0.950 . S
C520 C519 1.398 1_455 S
C520 C521 1.391 . S
C521 H509 0.950 . S
C521 C517 1.393 . S
C521 C520 1.391 . S
C522 H512 0.950 . S
C522 C523 1.386 . S
C522 C524 1.391 . S
C523 C522 1.386 . S
C523 C527 1.393 . S
C524 H513 0.950 1_655 S
C524 C522 1.391 . S
C524 C525 1.400 . S
C525 C519 1.491 . S
C525 C524 1.400 . S
C525 C526 1.398 . S
C526 H514 0.950 . S
C526 C525 1.398 . S
C526 C527 1.391 . S
C527 H515 0.950 . S
C527 C523 1.393 . S
C527 C526 1.391 . S
H528 C536 0.950 . S
H529 C541 0.950 . S
H530 C538 0.950 . S
H531 C540 0.947 1_655 S
H532 C542 0.950 . S
H533 C544 0.950 . S
H534 C546 0.950 . S
H535 C547 0.950 . S
C536 H528 0.950 . S
C536 C537 1.386 . S
C536 C538 1.391 . S
C537 C536 1.386 . S
C537 C541 1.393 . S
C538 H530 0.950 . S
C538 C536 1.391 . S
C538 C539 1.400 . S
C539 C538 1.400 . S
C539 C540 1.398 . S
C539 C545 1.491 . S
C540 H531 0.947 1_455 S
C540 C539 1.398 . S
C540 C541 1.391 . S
C541 H529 0.950 . S
C541 C537 1.393 . S
C541 C540 1.391 . S
C542 H532 0.950 . S
C542 C543 1.386 . S
C542 C544 1.391 . S
C543 C542 1.386 . S
C543 C547 1.393 1_655 S
C544 H533 0.950 . S
C544 C542 1.391 . S
C544 C545 1.400 1_655 S
C545 C539 1.491 . S
C545 C544 1.400 1_455 S
C545 C546 1.398 . S
C546 H534 0.950 . S
C546 C545 1.398 . S
C546 C547 1.391 . S
C547 H535 0.950 . S
C547 C543 1.393 1_455 S
C547 C546 1.391 . S
H548 C556 0.950 . S
H549 C561 0.950 1_545 S
H550 C558 0.950 . S
H551 C560 0.950 . S
H552 C562 0.950 . S
H553 C564 0.950 . S
H554 C566 0.950 1_565 S
H555 C567 0.950 . S
C556 H548 0.950 . S
C556 C557 1.386 . S
C556 C558 1.391 . S
C557 C556 1.386 . S
C557 C561 1.393 . S
C558 H550 0.950 . S
C558 C556 1.391 . S
C558 C559 1.400 1_565 S
C559 C558 1.400 1_545 S
C559 C560 1.398 . S
C559 C565 1.491 . S
C560 H551 0.950 . S
C560 C559 1.398 . S
C560 C561 1.391 1_545 S
C561 H549 0.950 1_565 S
C561 C557 1.393 . S
C561 C560 1.391 1_565 S
C562 H552 0.950 . S
C562 C563 1.386 . S
C562 C564 1.391 . S
C563 C562 1.386 . S
C563 C567 1.393 . S
C564 H553 0.950 . S
C564 C562 1.391 . S
C564 C565 1.400 . S
C565 C559 1.491 . S
C565 C564 1.400 . S
C565 C566 1.398 . S
C566 H554 0.950 1_545 S
C566 C565 1.398 . S
C566 C567 1.391 . S
C567 H555 0.950 . S
C567 C563 1.393 . S
C567 C566 1.391 . S
H568 C576 0.950 . S
H569 C581 0.950 . S
H570 C578 0.950 . S
H571 C580 0.950 . S
H572 C582 0.950 . S
H573 C584 0.950 . S
H574 C586 0.950 . S
H575 C587 0.950 . S
C576 H568 0.950 . S
C576 C577 1.386 . S
C576 C578 1.391 . S
C577 C576 1.386 . S
C577 C581 1.393 . S
C578 H570 0.950 . S
C578 C576 1.391 . S
C578 C579 1.400 . S
C579 C578 1.400 . S
C579 C580 1.398 . S
C579 C585 1.491 . S
C580 H571 0.950 . S
C580 C579 1.398 . S
C580 C581 1.391 . S
C581 H569 0.950 . S
C581 C577 1.393 . S
C581 C580 1.391 . S
C582 H572 0.950 . S
C582 C583 1.386 . S
C582 C584 1.391 . S
C583 C582 1.386 . S
C583 C587 1.393 . S
C584 H573 0.950 . S
C584 C582 1.391 . S
C584 C585 1.400 . S
C585 C579 1.491 . S
C585 C584 1.400 . S
C585 C586 1.398 . S
C586 H574 0.950 . S
C586 C585 1.398 . S
C586 C587 1.391 . S
C587 H575 0.950 . S
C587 C583 1.393 . S
C587 C586 1.391 . S
H588 C596 0.950 . S
H589 C601 0.950 . S
H590 C598 0.950 . S
H591 C600 0.950 . S
H592 C602 0.950 . S
H593 C604 0.950 . S
H594 C606 0.956 1_455 S
H595 C607 0.950 1_554 S
C596 H588 0.950 . S
C596 C597 1.386 . S
C596 C598 1.391 . S
C597 C596 1.386 . S
C597 C601 1.393 1_455 S
C598 H590 0.950 . S
C598 C596 1.391 . S
C598 C599 1.400 1_455 S
C599 C598 1.400 1_655 S
C599 C600 1.398 . S
C599 C605 1.491 . S
C600 H591 0.950 . S
C600 C599 1.398 . S
C600 C601 1.391 . S
C601 H589 0.950 . S
C601 C597 1.393 1_655 S
C601 C600 1.391 . S
C602 H592 0.950 . S
C602 C603 1.386 . S
C602 C604 1.391 . S
C603 C602 1.386 . S
C603 C607 1.393 . S
C604 H593 0.950 . S
C604 C602 1.391 . S
C604 C605 1.400 . S
C605 C599 1.491 . S
C605 C604 1.400 . S
C605 C606 1.398 . S
C606 H594 0.956 1_655 S
C606 C605 1.398 . S
C606 C607 1.391 . S
C607 H595 0.950 1_556 S
C607 C603 1.393 . S
C607 C606 1.391 . S
H608 C616 0.950 . S
H609 C621 0.950 . S
H610 C618 0.950 . S
H611 C620 0.950 . S
H612 C622 0.950 . S
H613 C624 0.950 . S
H614 C626 0.950 . S
H615 C627 0.950 . S
C616 H608 0.950 . S
C616 C617 1.386 1_565 S
C616 C618 1.391 . S
C617 C616 1.386 1_545 S
C617 C621 1.393 . S
C618 H610 0.950 . S
C618 C616 1.391 . S
C618 C619 1.400 . S
C619 C618 1.400 . S
C619 C620 1.398 . S
C619 C625 1.491 . S
C620 H611 0.950 . S
C620 C619 1.398 . S
C620 C621 1.391 1_565 S
C621 H609 0.950 . S
C621 C617 1.393 . S
C621 C620 1.391 1_545 S
C622 H612 0.950 . S
C622 C623 1.386 . S
C622 C624 1.391 . S
C623 C622 1.386 . S
C623 C627 1.393 . S
C624 H613 0.950 . S
C624 C622 1.391 . S
C624 C625 1.400 . S
C625 C619 1.491 . S
C625 C624 1.400 . S
C625 C626 1.398 . S
C626 H614 0.950 . S
C626 C625 1.398 . S
C626 C627 1.391 . S
C627 H615 0.950 . S
C627 C623 1.393 . S
C627 C626 1.391 . S
H628 C636 0.950 . S
H629 C641 0.950 . S
H630 C638 0.950 . S
H631 C640 0.950 . S
H632 C642 0.950 . S
H633 C644 0.950 . S
H634 C646 0.950 . S
H635 C647 0.950 . S
C636 H628 0.950 . S
C636 C637 1.386 . S
C636 C638 1.391 . S
C637 C636 1.386 . S
C637 C641 1.393 . S
C638 H630 0.950 . S
C638 C636 1.391 . S
C638 C639 1.400 . S
C639 C638 1.400 . S
C639 C640 1.398 . S
C639 C645 1.491 . S
C640 H631 0.950 . S
C640 C639 1.398 . S
C640 C641 1.391 . S
C641 H629 0.950 . S
C641 C637 1.393 . S
C641 C640 1.391 . S
C642 H632 0.950 . S
C642 C643 1.386 . S
C642 C644 1.391 . S
C643 C642 1.386 . S
C643 C647 1.393 . S
C644 H633 0.950 . S
C644 C642 1.391 . S
C644 C645 1.400 . S
C645 C639 1.491 . S
C645 C644 1.400 . S
C645 C646 1.398 . S
C646 H634 0.950 . S
C646 C645 1.398 . S
C646 C647 1.391 . S
C647 H635 0.950 . S
C647 C643 1.393 . S
C647 C646 1.391 . S
H648 C656 0.950 . S
H649 C661 0.950 . S
H650 C658 0.950 . S
H651 C660 0.950 . S
H652 C662 0.950 . S
H653 C664 0.950 . S
H654 C666 0.950 . S
H655 C667 0.950 . S
C656 H648 0.950 . S
C656 C657 1.386 . S
C656 C658 1.391 . S
C657 C656 1.386 . S
C657 C661 1.393 . S
C658 H650 0.950 . S
C658 C656 1.391 . S
C658 C659 1.400 . S
C659 C658 1.400 . S
C659 C660 1.398 . S
C659 C665 1.491 . S
C660 H651 0.950 . S
C660 C659 1.398 . S
C660 C661 1.391 . S
C661 H649 0.950 . S
C661 C657 1.393 . S
C661 C660 1.391 . S
C662 H652 0.950 . S
C662 C663 1.386 . S
C662 C664 1.391 . S
C663 C662 1.386 . S
C663 C667 1.393 . S
C664 H653 0.950 . S
C664 C662 1.391 . S
C664 C665 1.400 . S
C665 C659 1.491 . S
C665 C664 1.400 . S
C665 C666 1.398 . S
C666 H654 0.950 . S
C666 C665 1.398 . S
C666 C667 1.391 . S
C667 H655 0.950 . S
C667 C663 1.393 . S
C667 C666 1.391 . S
H668 C676 0.950 . S
H669 C681 0.950 . S
H670 C678 0.950 . S
H671 C680 0.950 . S
H672 C682 0.950 . S
H673 C684 0.950 . S
H674 C686 0.950 . S
H675 C687 0.950 . S
C676 H668 0.950 . S
C676 C677 1.386 . S
C676 C678 1.391 . S
C677 C676 1.386 . S
C677 C681 1.393 . S
C678 H670 0.950 . S
C678 C676 1.391 . S
C678 C679 1.400 . S
C679 C678 1.400 . S
C679 C680 1.398 . S
C679 C685 1.491 . S
C680 H671 0.950 . S
C680 C679 1.398 . S
C680 C681 1.391 . S
C681 H669 0.950 . S
C681 C677 1.393 . S
C681 C680 1.391 . S
C682 H672 0.950 . S
C682 C683 1.386 . S
C682 C684 1.391 . S
C683 C682 1.386 . S
C683 C687 1.393 . S
C684 H673 0.950 . S
C684 C682 1.391 . S
C684 C685 1.400 . S
C685 C679 1.491 . S
C685 C684 1.400 . S
C685 C686 1.398 . S
C686 H674 0.950 . S
C686 C685 1.398 . S
C686 C687 1.391 . S
C687 H675 0.950 . S
C687 C683 1.393 . S
C687 C686 1.391 . S
H688 C696 0.950 . S
H689 C701 0.950 . S
H690 C698 0.950 . S
H691 C700 0.950 . S
H692 C702 0.950 . S
H693 C704 0.950 . S
H694 C706 0.950 . S
H695 C707 0.950 . S
C696 H688 0.950 . S
C696 C697 1.386 . S
C696 C698 1.391 . S
C697 C696 1.386 . S
C697 C701 1.393 . S
C698 H690 0.950 . S
C698 C696 1.391 . S
C698 C699 1.400 . S
C699 C698 1.400 . S
C699 C700 1.398 . S
C699 C705 1.491 . S
C700 H691 0.950 . S
C700 C699 1.398 . S
C700 C701 1.391 . S
C701 H689 0.950 . S
C701 C697 1.393 . S
C701 C700 1.391 . S
C702 H692 0.950 . S
C702 C703 1.386 . S
C702 C704 1.391 . S
C703 C702 1.386 . S
C703 C707 1.393 . S
C704 H693 0.950 . S
C704 C702 1.391 . S
C704 C705 1.400 . S
C705 C699 1.491 . S
C705 C704 1.400 . S
C705 C706 1.398 . S
C706 H694 0.950 . S
C706 C705 1.398 . S
C706 C707 1.391 . S
C707 H695 0.950 . S
C707 C703 1.393 . S
C707 C706 1.391 . S
H708 C716 0.950 . S
H709 C721 0.950 . S
H710 C718 0.950 . S
H711 C720 0.950 . S
H712 C722 0.950 . S
H713 C724 0.950 . S
H714 C726 0.950 . S
H715 C727 0.950 . S
C716 H708 0.950 . S
C716 C717 1.386 . S
C716 C718 1.391 . S
C717 C716 1.386 . S
C717 C721 1.393 . S
C718 H710 0.950 . S
C718 C716 1.391 . S
C718 C719 1.400 . S
C719 C718 1.400 . S
C719 C720 1.398 . S
C719 C725 1.491 . S
C720 H711 0.950 . S
C720 C719 1.398 . S
C720 C721 1.391 . S
C721 H709 0.950 . S
C721 C717 1.393 . S
C721 C720 1.391 . S
C722 H712 0.950 . S
C722 C723 1.386 . S
C722 C724 1.391 . S
C723 C722 1.386 . S
C723 C727 1.393 . S
C724 H713 0.950 . S
C724 C722 1.391 . S
C724 C725 1.400 . S
C725 C719 1.491 . S
C725 C724 1.400 . S
C725 C726 1.398 . S
C726 H714 0.950 . S
C726 C725 1.398 . S
C726 C727 1.391 . S
C727 H715 0.950 . S
C727 C723 1.393 . S
C727 C726 1.391 . S
H728 C736 0.950 . S
H729 C741 0.950 . S
H730 C738 0.950 . S
H731 C740 0.950 . S
H732 C742 0.950 . S
H733 C744 0.950 . S
H734 C746 0.950 . S
H735 C747 0.950 . S
C736 H728 0.950 . S
C736 C737 1.386 . S
C736 C738 1.391 . S
C737 C736 1.386 . S
C737 C741 1.393 . S
C738 H730 0.950 . S
C738 C736 1.391 . S
C738 C739 1.400 . S
C739 C738 1.400 . S
C739 C740 1.398 . S
C739 C745 1.491 . S
C740 H731 0.950 . S
C740 C739 1.398 . S
C740 C741 1.391 . S
C741 H729 0.950 . S
C741 C737 1.393 . S
C741 C740 1.391 . S
C742 H732 0.950 . S
C742 C743 1.386 . S
C742 C744 1.391 . S
C743 C742 1.386 . S
C743 C747 1.393 . S
C744 H733 0.950 . S
C744 C742 1.391 . S
C744 C745 1.400 . S
C745 C739 1.491 . S
C745 C744 1.400 . S
C745 C746 1.398 . S
C746 H734 0.950 . S
C746 C745 1.398 . S
C746 C747 1.391 . S
C747 H735 0.950 . S
C747 C743 1.393 . S
C747 C746 1.391 . S
H748 C756 0.950 . S
H749 C761 0.950 . S
H750 C758 0.950 . S
H751 C760 0.950 . S
H752 C762 0.950 . S
H753 C764 0.950 . S
H754 C766 0.950 . S
H755 C767 0.950 . S
C756 H748 0.950 . S
C756 C757 1.386 . S
C756 C758 1.391 . S
C757 C756 1.386 . S
C757 C761 1.393 . S
C758 H750 0.950 . S
C758 C756 1.391 . S
C758 C759 1.400 . S
C759 C758 1.400 . S
C759 C760 1.398 . S
C759 C765 1.491 . S
C760 H751 0.950 . S
C760 C759 1.398 . S
C760 C761 1.391 . S
C761 H749 0.950 . S
C761 C757 1.393 . S
C761 C760 1.391 . S
C762 H752 0.950 . S
C762 C763 1.386 . S
C762 C764 1.391 . S
C763 C762 1.386 . S
C763 C767 1.393 . S
C764 H753 0.950 . S
C764 C762 1.391 . S
C764 C765 1.400 . S
C765 C759 1.491 . S
C765 C764 1.400 . S
C765 C766 1.398 . S
C766 H754 0.950 . S
C766 C765 1.398 . S
C766 C767 1.391 . S
C767 H755 0.950 . S
C767 C763 1.393 . S
C767 C766 1.391 . S
H768 C776 0.950 . S
H769 C781 0.950 . S
H770 C778 0.950 . S
H771 C780 0.950 . S
H772 C782 0.950 . S
H773 C784 0.950 . S
H774 C786 0.950 . S
H775 C787 0.950 . S
C776 H768 0.950 . S
C776 C777 1.386 . S
C776 C778 1.391 . S
C777 C776 1.386 . S
C777 C781 1.393 . S
C778 H770 0.950 . S
C778 C776 1.391 . S
C778 C779 1.400 . S
C779 C778 1.400 . S
C779 C780 1.398 . S
C779 C785 1.491 . S
C780 H771 0.950 . S
C780 C779 1.398 . S
C780 C781 1.391 . S
C781 H769 0.950 . S
C781 C777 1.393 . S
C781 C780 1.391 . S
C782 H772 0.950 . S
C782 C783 1.386 . S
C782 C784 1.391 . S
C783 C782 1.386 . S
C783 C787 1.393 1_545 S
C784 H773 0.950 . S
C784 C782 1.391 . S
C784 C785 1.400 1_545 S
C785 C779 1.491 . S
C785 C784 1.400 1_565 S
C785 C786 1.398 . S
C786 H774 0.950 . S
C786 C785 1.398 . S
C786 C787 1.391 . S
C787 H775 0.950 . S
C787 C783 1.393 1_565 S
C787 C786 1.391 . S
H788 C796 0.950 . S
H789 C801 0.950 . S
H790 C798 0.950 . S
H791 C800 0.950 . S
H792 C802 0.950 . S
H793 C804 0.950 . S
H794 C806 0.950 . S
H795 C807 0.950 . S
C796 H788 0.950 . S
C796 C797 1.386 . S
C796 C798 1.391 . S
C797 C796 1.386 . S
C797 C801 1.393 . S
C798 H790 0.950 . S
C798 C796 1.391 . S
C798 C799 1.400 . S
C799 C798 1.400 . S
C799 C800 1.398 . S
C799 C805 1.491 . S
C800 H791 0.950 . S
C800 C799 1.398 . S
C800 C801 1.391 . S
C801 H789 0.950 . S
C801 C797 1.393 . S
C801 C800 1.391 . S
C802 H792 0.950 . S
C802 C803 1.386 . S
C802 C804 1.391 . S
C803 C802 1.386 . S
C803 C807 1.393 . S
C804 H793 0.950 . S
C804 C802 1.391 . S
C804 C805 1.400 . S
C805 C799 1.491 . S
C805 C804 1.400 . S
C805 C806 1.398 . S
C806 H794 0.950 . S
C806 C805 1.398 . S
C806 C807 1.391 . S
C807 H795 0.950 . S
C807 C803 1.393 . S
C807 C806 1.391 . S
H808 C816 0.950 . S
H809 C821 0.950 . S
H810 C818 0.950 . S
H811 C820 0.950 . S
H812 C822 0.950 . S
H813 C824 0.950 . S
H814 C826 0.950 . S
H815 C827 0.950 . S
C816 H808 0.950 . S
C816 C817 1.386 . S
C816 C818 1.391 1_655 S
C817 C816 1.386 . S
C817 C821 1.393 . S
C818 H810 0.950 . S
C818 C816 1.391 1_455 S
C818 C819 1.400 . S
C819 C818 1.400 . S
C819 C820 1.398 . S
C819 C825 1.491 . S
C820 H811 0.950 . S
C820 C819 1.398 . S
C820 C821 1.391 1_455 S
C821 H809 0.950 . S
C821 C817 1.393 . S
C821 C820 1.391 1_655 S
C822 H812 0.950 . S
C822 C823 1.386 . S
C822 C824 1.391 . S
C823 C822 1.386 . S
C823 C827 1.393 . S
C824 H813 0.950 . S
C824 C822 1.391 . S
C824 C825 1.400 . S
C825 C819 1.491 . S
C825 C824 1.400 . S
C825 C826 1.398 . S
C826 H814 0.950 . S
C826 C825 1.398 . S
C826 C827 1.391 . S
C827 H815 0.950 . S
C827 C823 1.393 . S
C827 C826 1.391 . S
H828 C836 0.950 1_545 S
H829 C841 0.950 . S
H830 C838 0.950 . S
H831 C840 0.950 . S
H832 C842 0.950 . S
H833 C844 0.950 1_565 S
H834 C846 0.950 . S
H835 C847 0.950 . S
C836 H828 0.950 1_565 S
C836 C837 1.386 . S
C836 C838 1.391 1_565 S
C837 C836 1.386 . S
C837 C841 1.393 . S
C838 H830 0.950 . S
C838 C836 1.391 1_545 S
C838 C839 1.400 . S
C839 C838 1.400 . S
C839 C840 1.398 1_545 S
C839 C845 1.491 . S
C840 H831 0.950 . S
C840 C839 1.398 1_565 S
C840 C841 1.391 . S
C841 H829 0.950 . S
C841 C837 1.393 . S
C841 C840 1.391 . S
C842 H832 0.950 . S
C842 C843 1.386 . S
C842 C844 1.391 . S
C843 C842 1.386 . S
C843 C847 1.393 . S
C844 H833 0.950 1_545 S
C844 C842 1.391 . S
C844 C845 1.400 . S
C845 C839 1.491 . S
C845 C844 1.400 . S
C845 C846 1.398 . S
C846 H834 0.950 . S
C846 C845 1.398 . S
C846 C847 1.391 . S
C847 H835 0.950 . S
C847 C843 1.393 . S
C847 C846 1.391 . S
H848 C856 0.950 . S
H849 C861 0.950 . S
H850 C858 0.950 . S
H851 C860 0.950 . S
H852 C862 0.950 . S
H853 C864 0.950 . S
H854 C866 0.950 . S
H855 C867 0.950 . S
C856 H848 0.950 . S
C856 C857 1.386 . S
C856 C858 1.391 . S
C857 C856 1.386 . S
C857 C861 1.393 . S
C858 H850 0.950 . S
C858 C856 1.391 . S
C858 C859 1.400 . S
C859 C858 1.400 . S
C859 C860 1.398 . S
C859 C865 1.491 . S
C860 H851 0.950 . S
C860 C859 1.398 . S
C860 C861 1.391 . S
C861 H849 0.950 . S
C861 C857 1.393 . S
C861 C860 1.391 . S
C862 H852 0.950 . S
C862 C863 1.386 . S
C862 C864 1.391 . S
C863 C862 1.386 . S
C863 C867 1.393 . S
C864 H853 0.950 . S
C864 C862 1.391 . S
C864 C865 1.400 . S
C865 C859 1.491 . S
C865 C864 1.400 . S
C865 C866 1.398 . S
C866 H854 0.950 . S
C866 C865 1.398 . S
C866 C867 1.391 . S
C867 H855 0.950 . S
C867 C863 1.393 . S
C867 C866 1.391 . S
H868 C876 0.950 . S
H869 C881 0.950 . S
H870 C878 0.950 . S
H871 C880 0.950 . S
H872 C882 0.950 . S
H873 C884 0.950 1_455 S
H874 C886 0.950 . S
H875 C887 0.950 . S
C876 H868 0.950 . S
C876 C877 1.386 1_655 S
C876 C878 1.391 . S
C877 C876 1.386 1_455 S
C877 C881 1.393 . S
C878 H870 0.950 . S
C878 C876 1.391 . S
C878 C879 1.400 . S
C879 C878 1.400 . S
C879 C880 1.398 1_655 S
C879 C885 1.491 . S
C880 H871 0.950 . S
C880 C879 1.398 1_455 S
C880 C881 1.391 . S
C881 H869 0.950 . S
C881 C877 1.393 . S
C881 C880 1.391 . S
C882 H872 0.950 . S
C882 C883 1.386 . S
C882 C884 1.391 . S
C883 C882 1.386 . S
C883 C887 1.393 . S
C884 H873 0.950 1_655 S
C884 C882 1.391 . S
C884 C885 1.400 . S
C885 C879 1.491 . S
C885 C884 1.400 . S
C885 C886 1.398 . S
C886 H874 0.950 . S
C886 C885 1.398 . S
C886 C887 1.391 . S
C887 H875 0.950 . S
C887 C883 1.393 . S
C887 C886 1.391 . S
H888 C896 0.950 . S
H889 C901 0.950 . S
H890 C898 0.950 . S
H891 C900 0.950 . S
H892 C902 0.950 . S
H893 C904 0.950 . S
H894 C906 0.950 . S
H895 C907 0.950 . S
C896 H888 0.950 . S
C896 C897 1.386 . S
C896 C898 1.391 . S
C897 C896 1.386 . S
C897 C901 1.393 1_655 S
C898 H890 0.950 . S
C898 C896 1.391 . S
C898 C899 1.400 1_655 S
C899 C898 1.400 1_455 S
C899 C900 1.398 . S
C899 C905 1.491 . S
C900 H891 0.950 . S
C900 C899 1.398 . S
C900 C901 1.391 . S
C901 H889 0.950 . S
C901 C897 1.393 1_455 S
C901 C900 1.391 . S
C902 H892 0.950 . S
C902 C903 1.386 . S
C902 C904 1.391 . S
C903 C902 1.386 . S
C903 C907 1.393 . S
C904 H893 0.950 . S
C904 C902 1.391 . S
C904 C905 1.400 . S
C905 C899 1.491 . S
C905 C904 1.400 . S
C905 C906 1.398 . S
C906 H894 0.950 . S
C906 C905 1.398 . S
C906 C907 1.391 . S
C907 H895 0.950 . S
C907 C903 1.393 . S
C907 C906 1.391 . S
H908 C916 0.950 . S
H909 C921 0.950 . S
H910 C918 0.950 1_565 S
H911 C920 0.950 . S
H912 C922 0.950 1_545 S
H913 C924 0.950 . S
H914 C926 0.950 . S
H915 C927 0.950 . S
C916 H908 0.950 . S
C916 C917 1.386 . S
C916 C918 1.391 . S
C917 C916 1.386 . S
C917 C921 1.393 . S
C918 H910 0.950 1_545 S
C918 C916 1.391 . S
C918 C919 1.400 . S
C919 C918 1.400 . S
C919 C920 1.398 . S
C919 C925 1.491 . S
C920 H911 0.950 . S
C920 C919 1.398 . S
C920 C921 1.391 . S
C921 H909 0.950 . S
C921 C917 1.393 . S
C921 C920 1.391 . S
C922 H912 0.950 1_565 S
C922 C923 1.386 . S
C922 C924 1.391 1_565 S
C923 C922 1.386 . S
C923 C927 1.393 . S
C924 H913 0.950 . S
C924 C922 1.391 1_545 S
C924 C925 1.400 . S
C925 C919 1.491 . S
C925 C924 1.400 . S
C925 C926 1.398 1_545 S
C926 H914 0.950 . S
C926 C925 1.398 1_565 S
C926 C927 1.391 . S
C927 H915 0.950 . S
C927 C923 1.393 . S
C927 C926 1.391 . S
H928 C936 0.950 . S
H929 C941 0.950 . S
H930 C938 0.950 . S
H931 C940 0.950 . S
H932 C942 0.950 . S
H933 C944 0.950 . S
H934 C946 0.950 . S
H935 C947 0.950 . S
C936 H928 0.950 . S
C936 C937 1.386 . S
C936 C938 1.391 . S
C937 C936 1.386 . S
C937 C941 1.393 . S
C938 H930 0.950 . S
C938 C936 1.391 . S
C938 C939 1.400 . S
C939 C938 1.400 . S
C939 C940 1.398 . S
C939 C945 1.491 . S
C940 H931 0.950 . S
C940 C939 1.398 . S
C940 C941 1.391 . S
C941 H929 0.950 . S
C941 C937 1.393 . S
C941 C940 1.391 . S
C942 H932 0.950 . S
C942 C943 1.386 . S
C942 C944 1.391 . S
C943 C942 1.386 . S
C943 C947 1.393 . S
C944 H933 0.950 . S
C944 C942 1.391 . S
C944 C945 1.400 . S
C945 C939 1.491 . S
C945 C944 1.400 . S
C945 C946 1.398 . S
C946 H934 0.950 . S
C946 C945 1.398 . S
C946 C947 1.391 . S
C947 H935 0.950 . S
C947 C943 1.393 . S
C947 C946 1.391 . S
H948 C956 0.950 1_655 S
H949 C961 0.950 . S
H950 C958 0.950 . S
H951 C960 0.950 . S
H952 C962 0.950 . S
H953 C964 0.950 . S
H954 C966 0.950 . S
H955 C967 0.950 . S
C956 H948 0.950 1_455 S
C956 C957 1.386 . S
C956 C958 1.391 1_455 S
C957 C956 1.386 . S
C957 C961 1.393 . S
C958 H950 0.950 . S
C958 C956 1.391 1_655 S
C958 C959 1.400 . S
C959 C958 1.400 . S
C959 C960 1.398 1_655 S
C959 C965 1.491 . S
C960 H951 0.950 . S
C960 C959 1.398 1_455 S
C960 C961 1.391 . S
C961 H949 0.950 . S
C961 C957 1.393 . S
C961 C960 1.391 . S
C962 H952 0.950 . S
C962 C963 1.386 . S
C962 C964 1.391 . S
C963 C962 1.386 . S
C963 C967 1.393 . S
C964 H953 0.950 . S
C964 C962 1.391 . S
C964 C965 1.400 . S
C965 C959 1.491 . S
C965 C964 1.400 . S
C965 C966 1.398 . S
C966 H954 0.950 . S
C966 C965 1.398 . S
C966 C967 1.391 . S
C967 H955 0.950 . S
C967 C963 1.393 . S
C967 C966 1.391 . S
H968 C976 0.950 . S
H969 C981 0.950 . S
H970 C978 0.956 . S
H971 C980 0.950 . S
H972 C982 0.950 . S
H973 C984 0.950 . S
H974 C986 0.950 . S
H975 C987 0.950 . S
C976 H968 0.950 . S
C976 C977 1.386 . S
C976 C978 1.397 . S
C977 C976 1.386 . S
C977 C981 1.393 1_545 S
C978 H970 0.956 . S
C978 C976 1.397 . S
C978 C979 1.388 1_545 S
C979 C978 1.388 1_565 S
C979 C980 1.398 . S
C979 C985 1.491 . S
C980 H971 0.950 . S
C980 C979 1.398 . S
C980 C981 1.391 . S
C981 H969 0.950 . S
C981 C977 1.393 1_565 S
C981 C980 1.391 . S
C982 H972 0.950 . S
C982 C983 1.386 . S
C982 C984 1.391 . S
C983 C982 1.386 . S
C983 C987 1.393 . S
C984 H973 0.950 . S
C984 C982 1.391 . S
C984 C985 1.400 . S
C985 C979 1.491 . S
C985 C984 1.400 . S
C985 C986 1.398 . S
C986 H974 0.950 . S
C986 C985 1.398 . S
C986 C987 1.391 . S
C987 H975 0.950 . S
C987 C983 1.393 . S
C987 C986 1.391 . S
H988 C996 0.950 . S
H989 C1001 0.950 . S
H990 C998 0.950 . S
H991 C1000 0.950 . S
H992 C1002 0.950 . S
H993 C1004 0.950 . S
H994 C1006 0.950 . S
H995 C1007 0.950 . S
C996 H988 0.950 . S
C996 C997 1.386 . S
C996 C998 1.391 . S
C997 C996 1.386 . S
C997 C1001 1.393 . S
C998 H990 0.950 . S
C998 C996 1.391 . S
C998 C999 1.400 . S
C999 C998 1.400 . S
C999 C1000 1.398 . S
C999 C1005 1.491 . S
C1000 H991 0.950 . S
C1000 C999 1.398 . S
C1000 C1001 1.391 . S
C1001 H989 0.950 . S
C1001 C997 1.393 . S
C1001 C1000 1.391 . S
C1002 H992 0.950 . S
C1002 C1003 1.386 . S
C1002 C1004 1.391 . S
C1003 C1002 1.386 . S
C1003 C1007 1.393 . S
C1004 H993 0.950 . S
C1004 C1002 1.391 . S
C1004 C1005 1.400 . S
C1005 C999 1.491 . S
C1005 C1004 1.400 . S
C1005 C1006 1.398 . S
C1006 H994 0.950 . S
C1006 C1005 1.398 . S
C1006 C1007 1.391 . S
C1007 H995 0.950 . S
C1007 C1003 1.393 . S
C1007 C1006 1.391 . S
C417 C20 1.408 . S
C423 C376 1.382 . S
C437 C54 1.400 . S
C443 C206 1.371 . S
C457 C240 1.369 . S
C463 C88 1.393 . S
C477 C274 1.394 . S
C483 C122 1.409 . S
C497 C156 1.409 . S
C503 C308 1.380 . S
C517 C190 1.391 . S
C523 C342 1.387 . S
C537 C36 1.382 . S
C543 C224 1.388 . S
C557 C258 1.410 . S
C563 C70 1.388 . S
C577 C104 1.389 . S
C583 C292 1.393 . S
C597 C326 1.393 . S
C603 C138 1.368 . S
C617 C360 1.408 . S
C623 C172 1.395 . S
C637 C2 1.380 . S
C643 C394 1.407 . S
C657 C209 0.720 . S
C663 C5 0.712 . S
C677 C39 0.698 . S
C683 C243 0.690 . S
C697 C73 0.700 . S
C703 C277 0.691 . S
C717 C107 0.712 . S
C723 C311 0.699 . S
C737 C345 0.692 . S
C743 C141 0.690 . S
C757 C379 0.714 . S
C763 C175 0.721 . S
C777 C203 0.846 . S
C783 C9 0.834 . S
C797 C33 0.838 . S
C803 C43 0.840 . S
C817 C77 0.866 . S
C823 C67 0.844 . S
C837 C111 0.861 . S
C843 C101 0.831 . S
C857 C145 0.849 . S
C863 C135 0.831 . S
C877 C179 0.861 . S
C883 C169 0.831 . S
C897 C213 0.859 . S
C903 C271 0.858 . S
C917 C305 0.860 . S
C923 C247 0.857 . S
C937 C281 0.848 . S
C943 C339 0.865 . S
C957 C315 0.865 . S
C963 C373 0.835 . S
C977 C349 0.832 . S
C983 C407 0.859 . S
C997 C383 0.832 . S
C1003 C237 0.857 . S
