# Generated by pormake.
# Topology kag, (6)-cn, num edge types: 1
# Building blocks:
#     Node 0, Type 0, BuildingBlock: KUMJIN_clean_sbu_1, # of connection points: 6
#     Node 1, Type 0, BuildingBlock: KUMJIN_clean_sbu_1, # of connection points: 6
#     Node 2, Type 0, BuildingBlock: KUMJIN_clean_sbu_1, # of connection points: 6
#     Edge 3, Type (0, 0), BuildingBlock: FUNLAD_clean_linker_1, # of connection points: 2
#     Edge 4, Type (0, 0), BuildingBlock: FUNLAD_clean_linker_1, # of connection points: 2
#     Edge 5, Type (0, 0), BuildingBlock: FUNLAD_clean_linker_1, # of connection points: 2
#     Edge 6, Type (0, 0), BuildingBlock: FUNLAD_clean_linker_1, # of connection points: 2
#     Edge 7, Type (0, 0), BuildingBlock: FUNLAD_clean_linker_1, # of connection points: 2
#     Edge 8, Type (0, 0), BuildingBlock: FUNLAD_clean_linker_1, # of connection points: 2
#     Edge 9, Type (0, 0), BuildingBlock: FUNLAD_clean_linker_1, # of connection points: 2
#     Edge 10, Type (0, 0), BuildingBlock: FUNLAD_clean_linker_1, # of connection points: 2
#     Edge 11, Type (0, 0), BuildingBlock: FUNLAD_clean_linker_1, # of connection points: 2
# Relax obj value: 0.091
# Max RMSD: 0.182
# Mean RMSD: 0.124
data_MOF--net-kag--node1-KUMJIN_clean_sbu_1--edge1-FUNLAD_clean_linker_1
_symmetry_space_group_name_H-M    P1
_symmetry_Int_Tables_number       1
_symmetry_cell_setting            triclinic
loop_
_symmetry_equiv_pos_as_xyz
'x, y, z'
_cell_length_a     32.6638
_cell_length_b     41.79183
_cell_length_c     15.588776
_cell_angle_alpha  108.43152
_cell_angle_beta   96.772856
_cell_angle_gamma 100.15901
loop_
_atom_site_label
_atom_site_type_symbol
_atom_site_fract_x
_atom_site_fract_y
_atom_site_fract_z
_atom_type_partial_charge
Eu0 Eu 0.04625 0.56097 0.07217 0.0
C1 C 0.09057 0.4186 0.91915 0.0
N2 N 0.06775 0.43519 0.87602 0.0
C3 C 0.10325 0.42027 0.74789 0.0
C4 C 0.12205 0.40322 0.87923 0.0
C5 C 0.07238 0.43513 0.79013 0.0
C6 C 0.1285 0.40454 0.79302 0.0
C7 C 0.10507 0.39948 0.04881 0.0
C8 C 0.08206 0.41683 0.00303 0.0
C9 C 0.13765 0.38536 0.01114 0.0
C10 C 0.14603 0.38714 0.92647 0.0
Eu11 Eu 1.01561 0.45877 0.95006 0.0
N12 N 0.04979 0.4302 0.03705 0.0
C13 C 0.0937 0.39575 0.12946 0.0
C14 C 0.0362 0.42365 0.11072 0.0
C15 C 0.05861 0.40732 0.15955 0.0
H16 H 0.05239 0.44686 0.75497 0.0
H17 H 0.04824 0.40299 0.21921 0.0
H18 H 0.04825 0.57895 0.29991 0.0
H19 H 0.95624 0.60642 0.83461 0.0
H20 H 1.00741 0.43004 0.13099 0.0
H21 H 0.11063 0.38266 0.16672 0.0
H22 H 1.01266 0.58076 0.88747 0.0
H23 H 0.10751 0.42086 0.68055 0.0
H24 H 0.15585 0.37224 0.04586 0.0
H25 H 0.17074 0.37558 0.89751 0.0
H26 H 1.00571 0.60249 0.41515 0.0
H27 H 0.15253 0.39318 0.7603 0.0
H28 H 0.90727 0.6277 0.93748 0.0
N29 N 1.00858 0.58403 0.18918 0.0
C30 C 0.9765 0.59808 0.16472 0.0
C31 C 0.99658 0.60073 0.34448 0.0
C32 C 0.95159 0.61224 0.22855 0.0
C33 C 1.0201 0.58664 0.27857 0.0
C34 C 0.96154 0.61281 0.3189 0.0
N35 N 0.9945 0.5863 0.01695 0.0
C36 C 0.99123 0.58981 0.93238 0.0
C37 C 0.93716 0.61468 0.04961 0.0
C38 C 0.96964 0.59973 0.07668 0.0
C39 C 0.93195 0.61651 0.96093 0.0
C40 C 0.95947 0.60444 0.90254 0.0
H41 H 0.94335 0.62364 0.37013 0.0
H42 H 0.8987 0.63692 0.24894 0.0
H43 H 0.88578 0.63869 0.09196 0.0
O44 O 0.09287 0.59604 0.03456 0.0
O45 O 0.97765 0.53406 0.99258 0.0
O46 O 0.96029 0.48095 0.00767 0.0
O47 O 0.08035 0.61101 0.1728 0.0
O48 O 0.06045 0.54078 0.92871 0.0
O49 O 1.00887 0.49059 0.85734 0.0
O50 O 0.98397 0.40449 0.91402 0.0
O51 O 0.08604 0.48673 0.96221 0.0
O52 O 0.09653 0.5315 0.09792 0.0
O53 O 0.96959 0.43187 0.8221 0.0
O54 O 1.00178 0.48052 0.09395 0.0
O55 O 0.05401 0.53006 0.16746 0.0
C56 C 0.94939 0.50952 0.00358 0.0
C57 C 0.15039 0.62835 0.15401 0.0
C58 C 0.2197 0.66396 0.16362 0.0
C59 C 0.23845 0.6458 0.21321 0.0
C60 C 0.16955 0.61096 0.20539 0.0
C61 C 0.21344 0.6196 0.2344 0.0
C62 C 0.17549 0.65469 0.13316 0.0
C63 C 0.03681 0.51685 0.85448 0.0
C64 C 0.10461 0.61825 0.11795 0.0
C65 C 0.91842 0.62628 0.20108 0.0
C66 C 0.91116 0.62742 0.11179 0.0
C67 C 0.11223 0.51097 0.03361 0.0
C68 C 0.91344 0.38987 0.83565 0.0
C69 C 0.85826 0.34663 0.85648 0.0
C70 C 0.82777 0.3642 0.83466 0.0
C71 C 0.88254 0.40708 0.8142 0.0
C72 C 0.90086 0.35942 0.85524 0.0
C73 C 0.83998 0.39418 0.81355 0.0
C74 C 1.02662 0.50315 0.16881 0.0
C75 C 0.95897 0.40381 0.8418 0.0
H76 H 0.27244 0.65209 0.23617 0.0
H77 H 0.15071 0.59041 0.22189 0.0
H78 H 0.22812 0.60584 0.27305 0.0
H79 H 0.16044 0.66719 0.09119 0.0
H80 H 0.79451 0.35476 0.83258 0.0
H81 H 0.89118 0.43067 0.799 0.0
H82 H 0.92457 0.34602 0.87178 0.0
H83 H 0.81638 0.40762 0.79716 0.0
Eu84 Eu 0.48549 0.97543 0.95413 0.0
C85 C 0.68854 0.98067 0.02837 0.0
N86 N 0.65926 0.99064 0.07968 0.0
C87 C 0.68751 0.96865 0.19293 0.0
C88 C 0.71792 0.96325 0.05627 0.0
C89 C 0.65942 0.98622 0.16292 0.0
C90 C 0.71656 0.9567 0.13876 0.0
C91 C 0.72318 0.9826 0.9003 0.0
C92 C 0.69101 0.9901 0.95124 0.0
C93 C 0.75124 0.96375 0.92511 0.0
C94 C 0.74858 0.95406 0.00289 0.0
Eu95 Eu 0.61191 0.019 0.02238 0.0
N96 N 0.66395 0.00882 0.93004 0.0
C97 C 0.72723 0.99546 0.82821 0.0
C98 C 0.6696 0.02344 0.86406 0.0
C99 C 0.70073 0.01642 0.81097 0.0
H100 H 0.637 0.99561 0.2047 0.0
H101 H 0.70448 0.02735 0.75731 0.0
H102 H 0.44953 0.9614 0.72893 0.0
H103 H 0.42495 0.04528 0.25351 0.0
H104 H 0.64936 0.03999 0.85138 0.0
H105 H 0.75158 0.99031 0.78752 0.0
H106 H 0.46386 0.00427 0.16718 0.0
H107 H 0.68687 0.96449 0.25789 0.0
H108 H 0.7759 0.95745 0.88625 0.0
H109 H 0.7712 0.9404 0.02274 0.0
H110 H 0.40689 0.98639 0.63704 0.0
H111 H 0.73857 0.94336 0.16252 0.0
H112 H 0.38468 0.07605 0.17441 0.0
N113 N 0.44268 0.99555 0.85779 0.0
C114 C 0.42171 0.01949 0.90126 0.0
C115 C 0.41134 0.99632 0.71138 0.0
C116 C 0.39605 0.03384 0.85116 0.0
C117 C 0.43619 0.98269 0.76387 0.0
C118 C 0.39165 0.02235 0.75527 0.0
N119 N 0.44779 0.01314 0.04174 0.0
C120 C 0.44722 0.01807 0.13238 0.0
C121 C 0.40088 0.05165 0.04212 0.0
C122 C 0.42387 0.02821 0.99563 0.0
C123 C 0.40204 0.0583 0.13632 0.0
C124 C 0.42482 0.04104 0.18129 0.0
H125 H 0.372 0.03258 0.71436 0.0
H126 H 0.35507 0.06987 0.86048 0.0
H127 H 0.35931 0.08547 0.02772 0.0
O128 O 0.45325 0.93693 0.00558 0.0
O129 O 0.50963 0.03362 0.02439 0.0
O130 O 0.56561 0.04218 0.95444 0.0
O131 O 0.43053 0.93536 0.86832 0.0
O132 O 0.51901 0.97711 0.09223 0.0
O133 O 0.57153 0.02674 0.13408 0.0
O134 O 0.63626 0.07241 0.03215 0.0
O135 O 0.59014 0.96529 0.03006 0.0
O136 O 0.53208 0.9412 0.91393 0.0
O137 O 0.65623 0.05569 0.14435 0.0
O138 O 0.59074 0.99185 0.86795 0.0
O139 O 0.51656 0.9759 0.83004 0.0
C140 C 0.5341 0.05287 0.9902 0.0
C141 C 0.38016 0.9168 0.94987 0.0
C142 C 0.32467 0.88275 0.99782 0.0
C143 C 0.29863 0.90548 0.98991 0.0
C144 C 0.3536 0.93903 0.94145 0.0
C145 C 0.313 0.93335 0.96158 0.0
C146 C 0.36569 0.88886 0.97811 0.0
C147 C 0.5477 0.00242 0.15468 0.0
C148 C 0.4236 0.92271 0.93283 0.0
C149 C 0.3745 0.05829 0.89779 0.0
C150 C 0.37688 0.06715 0.99301 0.0
C151 C 0.56206 0.93809 0.97291 0.0
C152 C 0.70637 0.09659 0.111 0.0
C153 C 0.7556 0.14315 0.0882 0.0
C154 C 0.78911 0.12766 0.10597 0.0
C155 C 0.74006 0.08118 0.12684 0.0
C156 C 0.71445 0.12763 0.09248 0.0
C157 C 0.78122 0.09685 0.12493 0.0
C158 C 0.55465 0.98108 0.80861 0.0
C159 C 0.66236 0.08009 0.10906 0.0
H160 H 0.26702 0.90159 0.00528 0.0
H161 H 0.36422 0.96078 0.91984 0.0
H162 H 0.29263 0.95063 0.95541 0.0
H163 H 0.38703 0.87252 0.98595 0.0
H164 H 0.82147 0.13927 0.10625 0.0
H165 H 0.73468 0.05705 0.14036 0.0
H166 H 0.68836 0.13934 0.07926 0.0
H167 H 0.80711 0.08501 0.13791 0.0
Eu168 Eu 0.51136 0.4428 0.92468 0.0
C169 C 0.63723 0.58585 0.14218 0.0
N170 N 0.60112 0.56962 0.16086 0.0
C171 C 0.63484 0.58392 0.31749 0.0
C172 C 0.67401 0.60106 0.21083 0.0
C173 C 0.59913 0.56924 0.24741 0.0
C174 C 0.6725 0.59972 0.29905 0.0
C175 C 0.67482 0.60307 0.03237 0.0
C176 C 0.63775 0.58652 0.05322 0.0
C177 C 0.71142 0.61817 0.10074 0.0
C178 C 0.71105 0.61709 0.18953 0.0
Eu179 Eu 0.54246 0.54815 0.03843 0.0
N180 N 0.6023 0.57063 0.98699 0.0
C181 C 0.67401 0.604 0.94326 0.0
C182 C 0.60097 0.57239 0.90108 0.0
C183 C 0.63692 0.58873 0.87751 0.0
H184 H 0.56983 0.55846 0.26339 0.0
H185 H 0.63592 0.59009 0.8092 0.0
H186 H 0.4939 0.42499 0.69429 0.0
H187 H 0.40518 0.40311 0.1355 0.0
H188 H 0.57175 0.56251 0.85218 0.0
H189 H 0.70177 0.61664 0.92471 0.0
H190 H 0.47349 0.42724 0.09988 0.0
H191 H 0.63314 0.58339 0.38598 0.0
H192 H 0.74023 0.63074 0.08558 0.0
H193 H 0.7396 0.62883 0.2414 0.0
H194 H 0.4334 0.40305 0.56401 0.0
H195 H 0.70009 0.61113 0.35362 0.0
H196 H 0.34067 0.38113 0.01451 0.0
N197 N 0.45612 0.42029 0.79326 0.0
C198 C 0.41708 0.4074 0.80717 0.0
C199 C 0.42841 0.40462 0.63239 0.0
C200 C 0.38189 0.39365 0.73427 0.0
C201 C 0.46247 0.41769 0.70666 0.0
C202 C 0.38786 0.39299 0.64644 0.0
N203 N 0.44708 0.42062 0.96325 0.0
C204 C 0.44518 0.41844 0.04806 0.0
C205 C 0.3731 0.39264 0.91068 0.0
C206 C 0.41259 0.40675 0.89413 0.0
C207 C 0.37042 0.39185 -0.00098 0.0
C208 C 0.40675 0.40442 0.0677 0.0
H209 H 0.36165 0.38265 0.58858 0.0
H210 H 0.31473 0.36992 0.69575 0.0
H211 H 0.30706 0.36906 0.85021 0.0
O212 O 0.53267 0.40543 0.9824 0.0
O213 O 0.45703 0.4704 0.9605 0.0
O214 O 0.46991 0.53013 0.02288 0.0
O215 O 0.51956 0.39295 0.83588 0.0
O216 O 0.54337 0.4702 0.07445 0.0
O217 O 0.51762 0.51899 0.12952 0.0
O218 O 0.5329 0.5946 0.00521 0.0
O219 O 0.59861 0.51924 0.03224 0.0
O220 O 0.57708 0.4678 0.90892 0.0
O221 O 0.53372 0.59358 0.14465 0.0
O222 O 0.5112 0.52277 0.8866 0.0
O223 O 0.53329 0.47172 0.83033 0.0
C224 C 0.44364 0.49927 0.99153 0.0
C225 C 0.50452 0.34602 0.89087 0.0
C226 C 0.50068 0.28834 0.9041 0.0
C227 C 0.45722 0.27946 0.86559 0.0
C228 C 0.46137 0.33573 0.85121 0.0
C229 C 0.43791 0.30297 0.83963 0.0
C230 C 0.52431 0.32192 0.91632 0.0
C231 C 0.52846 0.49122 0.13881 0.0
C232 C 0.52857 0.38139 0.90259 0.0
C233 C 0.34216 0.38034 0.75084 0.0
C234 C 0.33779 0.37977 0.83876 0.0
C235 C 0.60748 0.49257 0.96955 0.0
C236 C 0.52327 0.64718 0.12338 0.0
C237 C 0.5201 0.70355 0.10646 0.0
C238 C 0.50946 0.71446 0.19454 0.0
C239 C 0.51347 0.65955 0.2116 0.0
C240 C 0.52624 0.66933 0.07039 0.0
C241 C 0.50643 0.69273 0.24637 0.0
C242 C 0.52148 0.499 0.81949 0.0
C243 C 0.53049 0.61137 0.08991 0.0
H244 H 0.43815 0.25382 0.85189 0.0
H245 H 0.44581 0.35271 0.827 0.0
H246 H 0.40467 0.2955 0.80849 0.0
H247 H 0.55787 0.32916 0.94488 0.0
H248 H 0.50248 0.73962 0.22343 0.0
H249 H 0.51081 0.64341 0.25398 0.0
H250 H 0.53382 0.66024 0.00224 0.0
H251 H 0.49828 0.70162 0.31394 0.0
H252 H 0.06607 0.54237 0.76544 0.0
C253 C 0.04249 0.52038 0.76494 0.0
H254 H 0.99578 0.47596 0.68173 0.0
H255 H 0.97337 0.53384 0.35198 0.0
H256 H 0.91068 0.54386 0.41429 0.0
H257 H 0.89997 0.53473 0.5596 0.0
H258 H 0.95236 0.51575 0.64358 0.0
C259 C 1.02037 0.49758 0.68393 0.0
C260 C 1.02699 0.50239 0.59528 0.0
C261 C 0.99571 0.51268 0.5456 0.0
C262 C 1.00176 0.51758 0.46117 0.0
C263 C 0.97043 0.52907 0.41527 0.0
C264 C 0.93418 0.53507 0.45057 0.0
C265 C 0.92817 0.52996 0.53235 0.0
C266 C 0.95847 0.51897 0.57972 0.0
H267 H 0.99416 0.47848 0.2557 0.0
C268 C 1.02086 0.49841 0.25718 0.0
H269 H 0.07469 0.53599 0.34043 0.0
H270 H 0.09238 0.48103 0.67095 0.0
H271 H 0.15518 0.47052 0.60869 0.0
H272 H 0.16559 0.47843 0.46185 0.0
H273 H 0.11319 0.4969 0.37651 0.0
C274 C 0.04642 0.51739 0.33818 0.0
C275 C 0.03903 0.5117 0.42573 0.0
C276 C 0.07015 0.50112 0.47531 0.0
C277 C 0.06413 0.49645 0.56 0.0
C278 C 0.09543 0.48529 0.60693 0.0
C279 C 0.13164 0.47905 0.57177 0.0
C280 C 0.1375 0.48352 0.48914 0.0
C281 C 0.1072 0.49431 0.44106 0.0
H282 H 0.56093 0.0308 0.30483 0.0
C283 C 0.55055 0.00523 0.25238 0.0
H284 H 0.53146 0.95159 0.22355 0.0
H285 H 0.60674 0.02613 0.68172 0.0
H286 H 0.67169 0.05112 0.64351 0.0
H287 H 0.67884 0.04051 0.48173 0.0
H288 H 0.62025 0.00643 0.35764 0.0
C289 C 0.54122 0.977 0.27703 0.0
C290 C 0.54015 0.97892 0.37457 0.0
C291 C 0.57602 0.99631 0.44612 0.0
C292 C 0.57321 0.99968 0.53917 0.0
C293 C 0.60795 0.02059 0.60966 0.0
C294 C 0.64541 0.03537 0.58875 0.0
C295 C 0.64933 0.02964 0.49772 0.0
C296 C 0.6152 0.01033 0.42705 0.0
H297 H 0.58404 0.96509 0.68552 0.0
C298 C 0.55772 0.97528 0.71101 0.0
H299 H 0.50677 0.99745 0.6841 0.0
H300 H 0.46503 0.94355 0.25569 0.0
H301 H 0.40223 0.91461 0.29256 0.0
H302 H 0.40009 0.91559 0.45106 0.0
H303 H 0.46075 0.94548 0.5732 0.0
C304 C 0.53203 0.98606 0.65718 0.0
C305 C 0.53593 0.98273 0.55989 0.0
C306 C 0.50084 0.96392 0.48767 0.0
C307 C 0.50262 0.96252 0.39561 0.0
C308 C 0.46616 0.94478 0.32629 0.0
C309 C 0.42967 0.92811 0.34649 0.0
C310 C 0.42842 0.92868 0.43563 0.0
C311 C 0.46345 0.94622 0.50544 0.0
H312 H 0.49853 0.52064 0.71541 0.0
C313 C 0.51714 0.50275 0.72705 0.0
H314 H 0.55529 0.46871 0.67071 0.0
H315 H 0.47376 0.43807 0.25514 0.0
H316 H 0.45752 0.3812 0.26843 0.0
H317 H 0.47692 0.37349 0.41731 0.0
H318 H 0.51144 0.42267 0.55326 0.0
C319 C 0.53641 0.48645 0.65934 0.0
C320 C 0.53122 0.49069 0.56629 0.0
C321 C 0.51381 0.46134 0.4856 0.0
C322 C 0.50519 0.4654 0.39818 0.0
C323 C 0.48371 0.43606 0.32127 0.0
C324 C 0.47367 0.40333 0.32837 0.0
C325 C 0.48439 0.39904 0.41219 0.0
C326 C 0.50403 0.4276 0.49005 0.0
H327 H 0.54941 0.46824 0.24105 0.0
C328 C 0.53113 0.48634 0.22951 0.0
H329 H 0.49365 0.52097 0.28589 0.0
H330 H 0.57354 0.55114 0.70059 0.0
H331 H 0.59215 0.60776 0.68643 0.0
H332 H 0.57605 0.61506 0.53606 0.0
H333 H 0.54157 0.56596 0.40007 0.0
C334 C 0.51175 0.50267 0.29668 0.0
C335 C 0.51707 0.49846 0.38944 0.0
C336 C 0.53541 0.52772 0.46963 0.0
C337 C 0.5432 0.52376 0.55737 0.0
C338 C 0.56454 0.5531 0.6342 0.0
C339 C 0.57601 0.58564 0.62647 0.0
C340 C 0.56709 0.58972 0.54183 0.0
C341 C 0.54727 0.5612 0.46411 0.0
H342 H 0.17738 0.54473 0.08212 0.0
C343 C 0.16038 0.51864 0.03999 0.0
H344 H 0.1666 0.46999 0.95796 0.0
H345 H 0.34332 0.48855 0.84073 0.0
H346 H 0.29409 0.46138 0.69636 0.0
H347 H 0.21726 0.45431 0.69078 0.0
H348 H 0.18898 0.47441 0.82935 0.0
C349 C 0.18392 0.49583 0.00014 0.0
C350 C 0.23271 0.50352 0.00599 0.0
C351 C 0.25009 0.49236 0.92418 0.0
C352 C 0.29527 0.49656 0.92727 0.0
C353 C 0.31002 0.48538 0.84338 0.0
C354 C 0.28203 0.46996 0.75956 0.0
C355 C 0.23875 0.46597 0.75642 0.0
C356 C 0.22289 0.47731 0.83706 0.0
H357 H 0.37766 0.46803 0.96344 0.0
C358 C 0.39587 0.49462 0.98985 0.0
H359 H 0.39083 0.54645 0.0461 0.0
H360 H 0.2146 0.52242 0.17956 0.0
H361 H 0.26401 0.55021 0.32321 0.0
H362 H 0.34091 0.56141 0.32703 0.0
H363 H 0.36903 0.54421 0.18678 0.0
C364 C 0.37333 0.51966 0.01645 0.0
C365 C 0.32472 0.51244 0.01223 0.0
C366 C 0.30749 0.52382 0.09388 0.0
C367 C 0.26224 0.51861 0.09128 0.0
C368 C 0.24775 0.52768 0.17588 0.0
C369 C 0.27593 0.54321 0.25946 0.0
C370 C 0.31926 0.54944 0.26165 0.0
C371 C 0.33498 0.53961 0.18037 0.0
H372 H 0.73713 0.1897 0.07176 0.0
C373 C 0.76202 0.17535 0.06503 0.0
H374 H 0.81949 0.17159 0.01645 0.0
H375 H 0.79289 0.25689 0.75449 0.0
H376 H 0.78027 0.19872 0.64389 0.0
H377 H 0.77564 0.14831 0.69527 0.0
H378 H 0.78347 0.15576 0.85749 0.0
C379 C 0.79555 0.18651 0.03113 0.0
C380 C 0.79828 0.21716 0.00116 0.0
C381 C 0.79424 0.21237 0.90609 0.0
C382 C 0.7974 0.24146 0.87651 0.0
C383 C 0.7919 0.23582 0.78095 0.0
C384 C 0.78433 0.20252 0.71663 0.0
C385 C 0.78168 0.17414 0.74555 0.0
C386 C 0.78638 0.17882 0.83899 0.0
H387 H 0.87007 0.29858 0.87539 0.0
C388 C 0.84721 0.31484 0.88029 0.0
H389 H 0.78986 0.3228 0.92519 0.0
H390 H 0.80948 0.23566 0.189 0.0
H391 H 0.82102 0.29374 0.29918 0.0
H392 H 0.82528 0.34408 0.24757 0.0
H393 H 0.81825 0.33662 0.08542 0.0
C394 C 0.81205 0.3061 0.91251 0.0
C395 C 0.80529 0.27533 0.9422 0.0
C396 C 0.80837 0.28007 0.0371 0.0
C397 C 0.80529 0.25099 0.06677 0.0
C398 C 0.81039 0.25666 0.16231 0.0
C399 C 0.81733 0.28993 0.22645 0.0
C400 C 0.81978 0.31827 0.19741 0.0
C401 C 0.8156 0.31359 0.10403 0.0
H402 H 0.58944 0.90316 0.03134 0.0
C403 C 0.5624 0.90423 0.9853 0.0
H404 H 0.5014 0.8776 0.90895 0.0
H405 H 0.5895 0.75279 0.98525 0.0
H406 H 0.63726 0.76442 0.88529 0.0
H407 H 0.63494 0.81204 0.82473 0.0
H408 H 0.58527 0.84876 0.86487 0.0
C409 C 0.52978 0.87627 0.95046 0.0
C410 C 0.5288 0.84501 0.97927 0.0
C411 C 0.55687 0.8228 0.95254 0.0
C412 C 0.55729 0.79447 0.98527 0.0
C413 C 0.58714 0.77402 0.96089 0.0
C414 C 0.6148 0.78047 0.90366 0.0
C415 C 0.61355 0.80734 0.86969 0.0
C416 C 0.58501 0.82833 0.89358 0.0
H417 H 0.5144 0.716 0.97672 0.0
C418 C 0.52263 0.72733 0.05127 0.0
H419 H 0.54277 0.77371 0.1659 0.0
H420 H 0.47059 0.88168 0.04385 0.0
H421 H 0.42105 0.86877 0.13894 0.0
H422 H 0.41887 0.81792 0.18765 0.0
H423 H 0.46705 0.78016 0.14358 0.0
C424 C 0.53342 0.76231 0.09162 0.0
C425 C 0.5288 0.78762 0.04277 0.0
C426 C 0.49933 0.80884 0.06567 0.0
C427 C 0.49963 0.83762 0.03493 0.0
C428 C 0.47112 0.85909 0.06319 0.0
C429 C 0.44254 0.85203 0.11805 0.0
C430 C 0.44142 0.82347 0.14575 0.0
C431 C 0.46941 0.80209 0.12025 0.0
H432 H 0.90221 0.54218 0.03567 0.0
C433 C 0.90478 0.51542 0.01161 0.0
H434 H 0.87074 0.46382 0.96532 0.0
H435 H 0.69464 0.46363 0.08709 0.0
H436 H 0.72318 0.42494 0.15228 0.0
H437 H 0.79676 0.41916 0.14861 0.0
H438 H 0.84259 0.452 0.08043 0.0
C439 C 0.8679 0.49054 0.98863 0.0
C440 C 0.82269 0.49686 0.99602 0.0
C441 C 0.79527 0.47777 0.03712 0.0
C442 C 0.75208 0.48126 0.03995 0.0
C443 C 0.72698 0.46188 0.08241 0.0
C444 C 0.74302 0.43961 0.12036 0.0
C445 C 0.78447 0.43633 0.11821 0.0
C446 C 0.81041 0.45522 0.07791 0.0
H447 H 0.65568 0.46418 0.91397 0.0
C448 C 0.65294 0.48821 0.96416 0.0
H449 H 0.68877 0.53541 0.06262 0.0
H450 H 0.85947 0.53326 0.89559 0.0
H451 H 0.83101 0.57279 0.83496 0.0
H452 H 0.75896 0.58114 0.84893 0.0
H453 H 0.71462 0.54935 0.92294 0.0
C454 C 0.69022 0.51072 0.01387 0.0
C455 C 0.73487 0.50412 0.00265 0.0
C456 C 0.76203 0.52312 0.96145 0.0
C457 C 0.80493 0.51907 0.95625 0.0
C458 C 0.82849 0.5368 0.90774 0.0
C459 C 0.81215 0.55924 0.87088 0.0
C460 C 0.77154 0.5639 0.87858 0.0
C461 C 0.74654 0.5458 0.92209 0.0
H462 H 0.2798 0.69018 0.13793 0.0
C463 C 0.24702 0.69145 0.14134 0.0
H464 H 0.20142 0.7214 0.1353 0.0
H465 H 0.34856 0.8538 0.19547 0.0
H466 H 0.34735 0.86225 0.35642 0.0
H467 H 0.3062 0.81692 0.40212 0.0
H468 H 0.26617 0.76264 0.28689 0.0
C469 C 0.2331 0.71806 0.12711 0.0
C470 C 0.26047 0.74423 0.10051 0.0
C471 C 0.28313 0.77586 0.16856 0.0
C472 C 0.3062 0.80223 0.14217 0.0
C473 C 0.32956 0.83327 0.21161 0.0
C474 C 0.32939 0.83836 0.30428 0.0
C475 C 0.30623 0.81281 0.32999 0.0
C476 C 0.28334 0.78183 0.26322 0.0
H477 H 0.28009 0.85445 0.05959 0.0
C478 C 0.30832 0.85362 0.02897 0.0
H479 H 0.35173 0.82249 0.98311 0.0
H480 H 0.2225 0.68555 0.95368 0.0
H481 H 0.2251 0.67646 0.79295 0.0
H482 H 0.26467 0.72239 0.74685 0.0
H483 H 0.30185 0.77769 0.86114 0.0
C484 C 0.3254 0.82589 0.01877 0.0
C485 C 0.30569 0.79708 0.04763 0.0
C486 C 0.28479 0.76475 0.97991 0.0
C487 C 0.26199 0.73829 0.00642 0.0
C488 C 0.24046 0.7065 0.93734 0.0
C489 C 0.24166 0.70095 0.84482 0.0
C490 C 0.26394 0.72681 0.81887 0.0
C491 C 0.28519 0.75843 0.88525 0.0
H492 H 0.55405 0.2621 0.91372 0.0
C493 C 0.52164 0.26159 0.92395 0.0
H494 H 0.46865 0.23565 0.96043 0.0
H495 H 0.48674 0.08332 0.8192 0.0
H496 H 0.42855 0.08207 0.70567 0.0
H497 H 0.40929 0.13599 0.70131 0.0
H498 H 0.44876 0.19169 0.80901 0.0
C499 C 0.50071 0.23574 0.94825 0.0
C500 C 0.51611 0.20373 0.9464 0.0
C501 C 0.49238 0.17105 0.88366 0.0
C502 C 0.50313 0.13975 0.88688 0.0
C503 C 0.47946 0.1078 0.82149 0.0
C504 C 0.44599 0.10666 0.75562 0.0
C505 C 0.43523 0.13705 0.75298 0.0
C506 C 0.45807 0.16889 0.81574 0.0
H507 H 0.49487 0.09184 0.00863 0.0
C508 C 0.52385 0.08576 0.98689 0.0
H509 H 0.57854 0.10294 0.93892 0.0
H510 H 0.56806 0.26121 0.07817 0.0
H511 H 0.62866 0.26254 0.1863 0.0
H512 H 0.64858 0.2085 0.18835 0.0
H513 H 0.60759 0.15267 0.08321 0.0
C514 C 0.54873 0.10804 0.9577 0.0
C515 C 0.53755 0.14088 0.95325 0.0
C516 C 0.56237 0.17351 0.01344 0.0
C517 C 0.55137 0.20488 0.01092 0.0
C518 C 0.57558 0.23676 0.07519 0.0
C519 C 0.61035 0.23788 0.13804 0.0
C520 C 0.62154 0.20744 0.13929 0.0
C521 C 0.59781 0.17557 0.07834 0.0
loop_
_geom_bond_atom_site_label_1
_geom_bond_atom_site_label_2
_geom_bond_distance
_geom_bond_site_symmetry_2
_ccdc_geom_bond_type
Eu0 N29 2.600 1_455 S
Eu0 N35 2.562 1_455 S
Eu0 O44 2.462 1_554 S
Eu0 O45 2.373 1_455 S
Eu0 O47 2.432 . S
Eu0 O48 2.291 1_454 S
Eu0 O52 2.335 . S
Eu0 O55 2.372 . S
Eu0 C64 2.787 . S
C1 N2 1.365 . S
C1 C4 1.405 . S
C1 C8 1.448 . S
N2 C1 1.365 . S
N2 C5 1.319 1_455 S
N2 Eu11 2.600 1_455 S
C3 C5 1.397 1_455 S
C3 C6 1.367 . S
C3 H23 0.931 . S
C4 C1 1.405 . S
C4 C6 1.403 . S
C4 C10 1.439 . S
C5 N2 1.319 1_655 S
C5 C3 1.397 1_655 S
C5 H16 0.930 . S
C6 C3 1.367 . S
C6 C4 1.403 . S
C6 H27 0.929 . S
C7 C8 1.430 . S
C7 C9 1.387 . S
C7 C13 1.404 1_556 S
C8 C1 1.448 . S
C8 C7 1.430 . S
C8 N12 1.351 . S
C9 C7 1.387 . S
C9 C10 1.374 . S
C9 H24 0.931 . S
C10 C4 1.439 . S
C10 C9 1.374 . S
C10 H25 0.931 . S
Eu11 N2 2.600 1_655 S
Eu11 N12 2.562 1_655 S
Eu11 O46 2.335 . S
Eu11 O49 2.372 . S
Eu11 O50 2.462 1_556 S
Eu11 O51 2.373 1_655 S
Eu11 O53 2.432 . S
Eu11 O54 2.291 1_656 S
Eu11 C75 2.787 . S
N12 C8 1.351 . S
N12 Eu11 2.562 1_455 S
N12 C14 1.325 1_556 S
C13 C7 1.404 1_554 S
C13 C15 1.366 . S
C13 H21 0.930 . S
C14 N12 1.325 1_554 S
C14 C15 1.416 . S
C14 H20 0.929 . S
C15 C13 1.366 . S
C15 C14 1.416 . S
C15 H17 0.930 . S
H16 C5 0.930 . S
H17 C15 0.930 . S
H18 C33 0.930 . S
H19 C40 0.930 . S
H20 C14 0.929 . S
H21 C13 0.930 . S
H22 C36 0.929 . S
H23 C3 0.931 . S
H24 C9 0.931 . S
H25 C10 0.931 . S
H26 C31 0.931 . S
H27 C6 0.929 . S
H28 C39 0.930 . S
N29 Eu0 2.600 1_655 S
N29 C30 1.365 . S
N29 C33 1.319 1_655 S
C30 N29 1.365 . S
C30 C32 1.405 . S
C30 C38 1.448 . S
C31 H26 0.931 . S
C31 C33 1.397 1_655 S
C31 C34 1.367 . S
C32 C30 1.405 . S
C32 C34 1.403 . S
C32 C65 1.439 . S
C33 H18 0.930 . S
C33 N29 1.319 1_455 S
C33 C31 1.397 1_455 S
C34 C31 1.367 . S
C34 C32 1.403 . S
C34 H41 0.929 . S
N35 Eu0 2.562 1_655 S
N35 C36 1.325 1_554 S
N35 C38 1.351 . S
C36 H22 0.929 . S
C36 N35 1.325 1_556 S
C36 C40 1.416 . S
C37 C38 1.430 . S
C37 C39 1.404 1_554 S
C37 C66 1.387 . S
C38 C30 1.448 . S
C38 N35 1.351 . S
C38 C37 1.430 . S
C39 H28 0.930 . S
C39 C37 1.404 1_556 S
C39 C40 1.366 . S
C40 H19 0.930 . S
C40 C36 1.416 . S
C40 C39 1.366 . S
H41 C34 0.929 . S
H42 C65 0.931 . S
H43 C66 0.931 . S
O44 Eu0 2.462 1_556 S
O44 C64 1.252 1_556 S
O45 Eu0 2.373 1_655 S
O45 C56 1.247 1_554 S
O46 Eu11 2.335 . S
O46 C56 1.265 . S
O47 Eu0 2.432 . S
O47 C64 1.268 . S
O48 Eu0 2.291 1_656 S
O48 C63 1.255 . S
O49 Eu11 2.372 . S
O49 C63 1.257 . S
O50 Eu11 2.462 1_554 S
O50 C75 1.252 1_554 S
O51 Eu11 2.373 1_455 S
O51 C67 1.249 1_556 S
O52 Eu0 2.335 . S
O52 C67 1.264 . S
O53 Eu11 2.432 . S
O53 C75 1.268 . S
O54 Eu11 2.291 1_454 S
O54 C74 1.255 . S
O55 Eu0 2.372 . S
O55 C74 1.257 . S
C56 O45 1.247 1_556 S
C56 O46 1.265 . S
C57 C60 1.382 . S
C57 C62 1.390 . S
C57 C64 1.506 . S
C58 C59 1.398 . S
C58 C62 1.392 . S
C59 C58 1.398 . S
C59 C61 1.372 . S
C59 H76 0.931 . S
C60 C57 1.382 . S
C60 C61 1.390 . S
C60 H77 0.931 . S
C61 C59 1.372 . S
C61 C60 1.390 . S
C61 H78 0.929 . S
C62 C57 1.390 . S
C62 C58 1.392 . S
C62 H79 0.930 1_554 S
C63 O48 1.255 . S
C63 O49 1.257 . S
C64 Eu0 2.787 . S
C64 O44 1.252 1_554 S
C64 O47 1.268 . S
C64 C57 1.506 . S
C65 C32 1.439 . S
C65 H42 0.931 . S
C65 C66 1.374 . S
C66 C37 1.387 . S
C66 H43 0.931 . S
C66 C65 1.374 . S
C67 O51 1.249 1_554 S
C67 O52 1.264 . S
C68 C71 1.382 . S
C68 C72 1.390 . S
C68 C75 1.506 . S
C69 C70 1.398 . S
C69 C72 1.392 . S
C70 C69 1.398 . S
C70 C73 1.372 . S
C70 H80 0.931 . S
C71 C68 1.382 . S
C71 C73 1.390 . S
C71 H81 0.931 . S
C72 C68 1.390 . S
C72 C69 1.392 . S
C72 H82 0.930 1_556 S
C73 C70 1.372 . S
C73 C71 1.390 . S
C73 H83 0.929 . S
C74 O54 1.255 . S
C74 O55 1.257 . S
C75 Eu11 2.787 . S
C75 O50 1.252 1_556 S
C75 O53 1.268 . S
C75 C68 1.506 . S
H76 C59 0.931 . S
H77 C60 0.931 . S
H78 C61 0.929 . S
H79 C62 0.930 1_556 S
H80 C70 0.931 . S
H81 C71 0.931 . S
H82 C72 0.930 1_554 S
H83 C73 0.929 . S
Eu84 N113 2.600 . S
Eu84 N119 2.562 1_566 S
Eu84 O128 2.462 1_556 S
Eu84 O129 2.373 1_565 S
Eu84 O131 2.432 . S
Eu84 O132 2.291 1_566 S
Eu84 O136 2.335 . S
Eu84 O139 2.372 . S
Eu84 C148 2.787 . S
C85 N86 1.365 1_565 S
C85 C88 1.405 . S
C85 C92 1.448 . S
N86 C85 1.365 1_545 S
N86 C89 1.319 . S
N86 Eu95 2.600 . S
C87 C89 1.397 . S
C87 C90 1.367 1_545 S
C87 H107 0.931 . S
C88 C85 1.405 . S
C88 C90 1.403 . S
C88 C94 1.439 . S
C89 N86 1.319 . S
C89 C87 1.397 . S
C89 H100 0.930 . S
C90 C87 1.367 1_565 S
C90 C88 1.403 . S
C90 H111 0.929 . S
C91 C92 1.430 1_556 S
C91 C93 1.387 1_556 S
C91 C97 1.404 . S
C92 C85 1.448 . S
C92 C91 1.430 1_554 S
C92 N96 1.351 1_554 S
C93 C91 1.387 1_554 S
C93 C94 1.374 . S
C93 H108 0.931 . S
C94 C88 1.439 . S
C94 C93 1.374 . S
C94 H109 0.931 . S
Eu95 N86 2.600 . S
Eu95 N96 2.562 1_544 S
Eu95 O130 2.335 . S
Eu95 O133 2.372 . S
Eu95 O134 2.462 1_554 S
Eu95 O135 2.373 1_545 S
Eu95 O137 2.432 . S
Eu95 O138 2.291 1_544 S
Eu95 C159 2.787 . S
N96 C92 1.351 1_556 S
N96 Eu95 2.562 1_566 S
N96 C98 1.325 . S
C97 C91 1.404 . S
C97 C99 1.366 . S
C97 H105 0.930 . S
C98 N96 1.325 . S
C98 C99 1.416 . S
C98 H104 0.929 . S
C99 C97 1.366 . S
C99 C98 1.416 . S
C99 H101 0.930 . S
H100 C89 0.930 . S
H101 C99 0.930 . S
H102 C117 0.930 . S
H103 C124 0.930 . S
H104 C98 0.929 . S
H105 C97 0.930 . S
H106 C120 0.929 . S
H107 C87 0.931 . S
H108 C93 0.931 . S
H109 C94 0.931 . S
H110 C115 0.931 . S
H111 C90 0.929 . S
H112 C123 0.930 . S
N113 Eu84 2.600 . S
N113 C114 1.365 1_565 S
N113 C117 1.319 . S
C114 N113 1.365 1_545 S
C114 C116 1.405 . S
C114 C122 1.448 . S
C115 H110 0.931 . S
C115 C117 1.397 . S
C115 C118 1.367 1_565 S
C116 C114 1.405 . S
C116 C118 1.403 . S
C116 C149 1.439 . S
C117 H102 0.930 . S
C117 N113 1.319 . S
C117 C115 1.397 . S
C118 C115 1.367 1_545 S
C118 C116 1.403 . S
C118 H125 0.929 . S
N119 Eu84 2.562 1_544 S
N119 C120 1.325 . S
N119 C122 1.351 1_554 S
C120 H106 0.929 . S
C120 N119 1.325 . S
C120 C124 1.416 . S
C121 C122 1.430 1_554 S
C121 C123 1.404 . S
C121 C150 1.387 1_554 S
C122 C114 1.448 . S
C122 N119 1.351 1_556 S
C122 C121 1.430 1_556 S
C123 H112 0.930 . S
C123 C121 1.404 . S
C123 C124 1.366 . S
C124 H103 0.930 . S
C124 C120 1.416 . S
C124 C123 1.366 . S
H125 C118 0.929 . S
H126 C149 0.931 . S
H127 C150 0.931 . S
O128 Eu84 2.462 1_554 S
O128 C148 1.252 1_554 S
O129 Eu84 2.373 1_545 S
O129 C140 1.249 1_556 S
O130 Eu95 2.335 . S
O130 C140 1.264 . S
O131 Eu84 2.432 . S
O131 C148 1.268 . S
O132 Eu84 2.291 1_544 S
O132 C147 1.255 . S
O133 Eu95 2.372 . S
O133 C147 1.257 . S
O134 Eu95 2.462 1_556 S
O134 C159 1.252 1_556 S
O135 Eu95 2.373 1_565 S
O135 C151 1.249 1_554 S
O136 Eu84 2.335 . S
O136 C151 1.264 . S
O137 Eu95 2.432 . S
O137 C159 1.268 . S
O138 Eu95 2.291 1_566 S
O138 C158 1.255 . S
O139 Eu84 2.372 . S
O139 C158 1.257 . S
C140 O129 1.249 1_554 S
C140 O130 1.264 . S
C141 C144 1.382 . S
C141 C146 1.390 1_556 S
C141 C148 1.506 . S
C142 C143 1.398 1_554 S
C142 C146 1.392 . S
C143 C142 1.398 1_556 S
C143 C145 1.372 . S
C143 H160 0.931 . S
C144 C141 1.382 . S
C144 C145 1.390 . S
C144 H161 0.931 . S
C145 C143 1.372 . S
C145 C144 1.390 . S
C145 H162 0.929 . S
C146 C141 1.390 1_554 S
C146 C142 1.392 . S
C146 H163 0.930 . S
C147 O132 1.255 . S
C147 O133 1.257 . S
C148 Eu84 2.787 . S
C148 O128 1.252 1_556 S
C148 O131 1.268 . S
C148 C141 1.506 . S
C149 C116 1.439 . S
C149 H126 0.931 . S
C149 C150 1.374 . S
C150 C121 1.387 1_556 S
C150 H127 0.931 . S
C150 C149 1.374 . S
C151 O135 1.249 1_556 S
C151 O136 1.264 . S
C152 C155 1.382 . S
C152 C156 1.390 1_554 S
C152 C159 1.506 . S
C153 C154 1.398 1_556 S
C153 C156 1.392 . S
C154 C153 1.398 1_554 S
C154 C157 1.372 . S
C154 H164 0.931 . S
C155 C152 1.382 . S
C155 C157 1.390 . S
C155 H165 0.931 . S
C156 C152 1.390 1_556 S
C156 C153 1.392 . S
C156 H166 0.930 . S
C157 C154 1.372 . S
C157 C155 1.390 . S
C157 H167 0.929 . S
C158 O138 1.255 . S
C158 O139 1.257 . S
C159 Eu95 2.787 . S
C159 O134 1.252 1_554 S
C159 O137 1.268 . S
C159 C152 1.506 . S
H160 C143 0.931 . S
H161 C144 0.931 . S
H162 C145 0.929 . S
H163 C146 0.930 . S
H164 C154 0.931 . S
H165 C155 0.931 . S
H166 C156 0.930 . S
H167 C157 0.929 . S
Eu168 N197 2.600 . S
Eu168 N203 2.562 . S
Eu168 O212 2.462 1_556 S
Eu168 O213 2.373 . S
Eu168 O215 2.432 . S
Eu168 O216 2.291 1_556 S
Eu168 O220 2.335 . S
Eu168 O223 2.372 . S
Eu168 C232 2.787 . S
C169 N170 1.365 . S
C169 C172 1.405 . S
C169 C176 1.448 . S
N170 C169 1.365 . S
N170 C173 1.319 . S
N170 Eu179 2.600 . S
C171 C173 1.397 . S
C171 C174 1.367 . S
C171 H191 0.931 . S
C172 C169 1.405 . S
C172 C174 1.403 . S
C172 C178 1.439 . S
C173 N170 1.319 . S
C173 C171 1.397 . S
C173 H184 0.930 . S
C174 C171 1.367 . S
C174 C172 1.403 . S
C174 H195 0.929 . S
C175 C176 1.430 . S
C175 C177 1.387 . S
C175 C181 1.417 . S
C176 C169 1.448 . S
C176 C175 1.430 . S
C176 N180 1.351 . S
C177 C175 1.387 . S
C177 C178 1.374 . S
C177 H192 0.931 . S
C178 C172 1.439 . S
C178 C177 1.374 . S
C178 H193 0.931 . S
Eu179 N170 2.600 . S
Eu179 N180 2.562 . S
Eu179 O214 2.335 . S
Eu179 O217 2.372 . S
Eu179 O218 2.462 1_554 S
Eu179 O219 2.373 . S
Eu179 O221 2.432 . S
Eu179 O222 2.291 1_554 S
Eu179 C243 2.787 . S
N180 C176 1.351 . S
N180 Eu179 2.562 . S
N180 C182 1.325 1_554 S
C181 C175 1.417 . S
C181 C183 1.359 1_554 S
C181 H189 0.925 1_554 S
C182 N180 1.325 1_556 S
C182 C183 1.416 . S
C182 H188 0.929 . S
C183 C181 1.359 1_556 S
C183 C182 1.416 . S
C183 H185 0.930 . S
H184 C173 0.930 . S
H185 C183 0.930 . S
H186 C201 0.930 . S
H187 C208 0.930 . S
H188 C182 0.929 . S
H189 C181 0.925 1_556 S
H190 C204 0.929 . S
H191 C171 0.931 . S
H192 C177 0.931 . S
H193 C178 0.931 . S
H194 C199 0.931 . S
H195 C174 0.929 . S
H196 C207 0.933 . S
N197 Eu168 2.600 . S
N197 C198 1.365 . S
N197 C201 1.319 . S
C198 N197 1.365 . S
C198 C200 1.405 . S
C198 C206 1.448 . S
C199 H194 0.931 . S
C199 C201 1.397 . S
C199 C202 1.367 . S
C200 C198 1.405 . S
C200 C202 1.403 . S
C200 C233 1.439 . S
C201 H186 0.930 . S
C201 N197 1.319 . S
C201 C199 1.397 . S
C202 C199 1.367 . S
C202 C200 1.403 . S
C202 H209 0.929 . S
N203 Eu168 2.562 . S
N203 C204 1.325 1_556 S
N203 C206 1.351 . S
C204 H190 0.929 . S
C204 N203 1.325 1_554 S
C204 C208 1.416 . S
C205 C206 1.430 . S
C205 C207 1.399 1_556 S
C205 C234 1.387 . S
C206 C198 1.448 . S
C206 N203 1.351 . S
C206 C205 1.430 . S
C207 H196 0.933 . S
C207 C205 1.399 1_554 S
C207 C208 1.369 . S
C208 H187 0.930 . S
C208 C204 1.416 . S
C208 C207 1.369 . S
H209 C202 0.929 . S
H210 C233 0.931 . S
H211 C234 0.931 . S
O212 Eu168 2.462 1_554 S
O212 C232 1.252 1_554 S
O213 Eu168 2.373 . S
O213 C224 1.249 . S
O214 Eu179 2.335 . S
O214 C224 1.264 1_554 S
O215 Eu168 2.432 . S
O215 C232 1.268 . S
O216 Eu168 2.291 1_554 S
O216 C231 1.255 . S
O217 Eu179 2.372 . S
O217 C231 1.257 . S
O218 Eu179 2.462 1_556 S
O218 C243 1.252 1_556 S
O219 Eu179 2.373 . S
O219 C235 1.249 . S
O220 Eu168 2.335 . S
O220 C235 1.264 1_556 S
O221 Eu179 2.432 . S
O221 C243 1.268 . S
O222 Eu179 2.291 1_556 S
O222 C242 1.255 . S
O223 Eu168 2.372 . S
O223 C242 1.257 . S
C224 O213 1.249 . S
C224 O214 1.264 1_556 S
C225 C228 1.382 . S
C225 C230 1.390 1_556 S
C225 C232 1.506 . S
C226 C227 1.398 . S
C226 C230 1.392 1_556 S
C227 C226 1.398 . S
C227 C229 1.372 . S
C227 H244 0.931 . S
C228 C225 1.382 . S
C228 C229 1.390 . S
C228 H245 0.931 . S
C229 C227 1.372 . S
C229 C228 1.390 . S
C229 H246 0.929 . S
C230 C225 1.390 1_554 S
C230 C226 1.392 1_554 S
C230 H247 0.930 . S
C231 O216 1.255 . S
C231 O217 1.257 . S
C232 Eu168 2.787 . S
C232 O212 1.252 1_556 S
C232 O215 1.268 . S
C232 C225 1.506 . S
C233 C200 1.439 . S
C233 H210 0.931 . S
C233 C234 1.374 . S
C234 C205 1.387 . S
C234 H211 0.931 . S
C234 C233 1.374 . S
C235 O219 1.249 . S
C235 O220 1.264 1_554 S
C236 C239 1.382 . S
C236 C240 1.386 1_554 S
C236 C243 1.506 . S
C237 C238 1.398 . S
C237 C240 1.393 1_554 S
C238 C237 1.398 . S
C238 C241 1.372 . S
C238 H248 0.931 . S
C239 C236 1.382 . S
C239 C241 1.390 . S
C239 H249 0.931 . S
C240 C236 1.386 1_556 S
C240 C237 1.393 1_556 S
C240 H250 0.933 . S
C241 C238 1.372 . S
C241 C239 1.390 . S
C241 H251 0.929 . S
C242 O222 1.255 . S
C242 O223 1.257 . S
C243 Eu179 2.787 . S
C243 O218 1.252 1_554 S
C243 O221 1.268 . S
C243 C236 1.506 . S
H244 C227 0.931 . S
H245 C228 0.931 . S
H246 C229 0.929 . S
H247 C230 0.930 . S
H248 C238 0.931 . S
H249 C239 0.931 . S
H250 C240 0.933 . S
H251 C241 0.929 . S
H252 C253 0.951 . S
C253 H252 0.951 . S
C253 C259 1.265 1_455 S
H254 C259 0.950 . S
H255 C263 0.949 . S
H256 C264 0.950 . S
H257 C265 0.951 . S
H258 C266 0.951 . S
C259 C253 1.265 1_655 S
C259 H254 0.950 . S
C259 C260 1.478 . S
C260 C259 1.478 . S
C260 C261 1.397 . S
C260 C277 1.394 1_655 S
C261 C260 1.397 . S
C261 C262 1.438 . S
C261 C266 1.429 . S
C262 C261 1.438 . S
C262 C263 1.428 . S
C262 C275 1.394 1_655 S
C263 H255 0.949 . S
C263 C262 1.428 . S
C263 C264 1.345 . S
C264 H256 0.950 . S
C264 C263 1.345 . S
C264 C265 1.424 . S
C265 H257 0.951 . S
C265 C264 1.424 . S
C265 C266 1.347 . S
C266 H258 0.951 . S
C266 C261 1.429 . S
C266 C265 1.347 . S
H267 C268 0.951 . S
C268 H267 0.951 . S
C268 C274 1.265 1_655 S
H269 C274 0.950 . S
H270 C278 0.949 . S
H271 C279 0.950 . S
H272 C280 0.951 . S
H273 C281 0.951 . S
C274 C268 1.265 1_455 S
C274 H269 0.950 . S
C274 C275 1.478 . S
C275 C262 1.394 1_455 S
C275 C274 1.478 . S
C275 C276 1.397 . S
C276 C275 1.397 . S
C276 C277 1.438 . S
C276 C281 1.429 . S
C277 C260 1.394 1_455 S
C277 C276 1.438 . S
C277 C278 1.428 . S
C278 H270 0.949 . S
C278 C277 1.428 . S
C278 C279 1.345 . S
C279 H271 0.950 . S
C279 C278 1.345 . S
C279 C280 1.424 . S
C280 H272 0.951 . S
C280 C279 1.424 . S
C280 C281 1.347 . S
C281 H273 0.951 . S
C281 C276 1.429 . S
C281 C280 1.347 . S
H282 C283 0.951 . S
C283 H282 0.951 . S
C283 C289 1.265 1_545 S
H284 C289 0.950 . S
H285 C293 0.949 . S
H286 C294 0.950 . S
H287 C295 0.951 . S
H288 C296 0.951 . S
C289 C283 1.265 1_565 S
C289 H284 0.950 . S
C289 C290 1.478 . S
C290 C289 1.478 . S
C290 C291 1.397 1_565 S
C290 C307 1.394 . S
C291 C290 1.397 1_545 S
C291 C292 1.438 . S
C291 C296 1.429 . S
C292 C291 1.438 . S
C292 C293 1.428 . S
C292 C305 1.394 . S
C293 H285 0.949 . S
C293 C292 1.428 . S
C293 C294 1.345 . S
C294 H286 0.950 . S
C294 C293 1.345 . S
C294 C295 1.424 . S
C295 H287 0.951 . S
C295 C294 1.424 . S
C295 C296 1.347 . S
C296 H288 0.951 . S
C296 C291 1.429 . S
C296 C295 1.347 . S
H297 C298 0.951 . S
C298 H297 0.951 . S
C298 C304 1.265 1_565 S
H299 C304 0.950 . S
H300 C308 0.949 . S
H301 C309 0.950 . S
H302 C310 0.951 . S
H303 C311 0.951 . S
C304 C298 1.265 1_545 S
C304 H299 0.950 . S
C304 C305 1.478 . S
C305 C292 1.394 . S
C305 C304 1.478 . S
C305 C306 1.397 1_545 S
C306 C305 1.397 1_565 S
C306 C307 1.438 . S
C306 C311 1.429 . S
C307 C290 1.394 . S
C307 C306 1.438 . S
C307 C308 1.428 . S
C308 H300 0.949 . S
C308 C307 1.428 . S
C308 C309 1.345 . S
C309 H301 0.950 . S
C309 C308 1.345 . S
C309 C310 1.424 . S
C310 H302 0.951 . S
C310 C309 1.424 . S
C310 C311 1.347 . S
C311 H303 0.951 . S
C311 C306 1.429 . S
C311 C310 1.347 . S
H312 C313 0.951 . S
C313 H312 0.951 . S
C313 C319 1.265 . S
H314 C319 0.950 . S
H315 C323 0.949 . S
H316 C324 0.950 . S
H317 C325 0.951 . S
H318 C326 0.951 . S
C319 C313 1.265 . S
C319 H314 0.950 . S
C319 C320 1.478 . S
C320 C319 1.478 . S
C320 C321 1.397 . S
C320 C337 1.394 . S
C321 C320 1.397 . S
C321 C322 1.438 . S
C321 C326 1.429 . S
C322 C321 1.438 . S
C322 C323 1.428 . S
C322 C335 1.394 . S
C323 H315 0.949 . S
C323 C322 1.428 . S
C323 C324 1.345 . S
C324 H316 0.950 . S
C324 C323 1.345 . S
C324 C325 1.424 . S
C325 H317 0.951 . S
C325 C324 1.424 . S
C325 C326 1.347 . S
C326 H318 0.951 . S
C326 C321 1.429 . S
C326 C325 1.347 . S
H327 C328 0.951 . S
C328 H327 0.951 . S
C328 C334 1.265 . S
H329 C334 0.950 . S
H330 C338 0.949 . S
H331 C339 0.950 . S
H332 C340 0.951 . S
H333 C341 0.951 . S
C334 C328 1.265 . S
C334 H329 0.950 . S
C334 C335 1.478 . S
C335 C322 1.394 . S
C335 C334 1.478 . S
C335 C336 1.397 . S
C336 C335 1.397 . S
C336 C337 1.438 . S
C336 C341 1.429 . S
C337 C320 1.394 . S
C337 C336 1.438 . S
C337 C338 1.428 . S
C338 H330 0.949 . S
C338 C337 1.428 . S
C338 C339 1.345 . S
C339 H331 0.950 . S
C339 C338 1.345 . S
C339 C340 1.424 . S
C340 H332 0.951 . S
C340 C339 1.424 . S
C340 C341 1.347 . S
C341 H333 0.951 . S
C341 C336 1.429 . S
C341 C340 1.347 . S
H342 C343 0.951 1_556 S
C343 H342 0.951 1_554 S
C343 C349 1.265 . S
H344 C349 0.950 . S
H345 C353 0.949 . S
H346 C354 0.950 . S
H347 C355 0.951 . S
H348 C356 0.951 . S
C349 C343 1.265 . S
C349 H344 0.950 . S
C349 C350 1.478 . S
C350 C349 1.478 . S
C350 C351 1.397 1_554 S
C350 C367 1.394 . S
C351 C350 1.397 1_556 S
C351 C352 1.438 . S
C351 C356 1.429 . S
C352 C351 1.438 . S
C352 C353 1.428 . S
C352 C365 1.394 . S
C353 H345 0.949 . S
C353 C352 1.428 . S
C353 C354 1.345 . S
C354 H346 0.950 . S
C354 C353 1.345 . S
C354 C355 1.424 . S
C355 H347 0.951 . S
C355 C354 1.424 . S
C355 C356 1.347 . S
C356 H348 0.951 . S
C356 C351 1.429 . S
C356 C355 1.347 . S
H357 C358 0.951 1_554 S
C358 H357 0.951 1_556 S
C358 C364 1.265 . S
H359 C364 0.950 . S
H360 C368 0.949 . S
H361 C369 0.950 . S
H362 C370 0.951 . S
H363 C371 0.951 . S
C364 C358 1.265 . S
C364 H359 0.950 . S
C364 C365 1.478 . S
C365 C352 1.394 . S
C365 C364 1.478 . S
C365 C366 1.397 1_556 S
C366 C365 1.397 1_554 S
C366 C367 1.438 . S
C366 C371 1.429 . S
C367 C350 1.394 . S
C367 C366 1.438 . S
C367 C368 1.428 . S
C368 H360 0.949 . S
C368 C367 1.428 . S
C368 C369 1.345 . S
C369 H361 0.950 . S
C369 C368 1.345 . S
C369 C370 1.424 . S
C370 H362 0.951 . S
C370 C369 1.424 . S
C370 C371 1.347 . S
C371 H363 0.951 . S
C371 C366 1.429 . S
C371 C370 1.347 . S
H372 C373 0.951 . S
C373 H372 0.951 . S
C373 C379 1.265 . S
H374 C379 0.950 . S
H375 C383 0.949 . S
H376 C384 0.950 . S
H377 C385 0.951 . S
H378 C386 0.951 . S
C379 C373 1.265 . S
C379 H374 0.950 . S
C379 C380 1.478 . S
C380 C379 1.478 . S
C380 C381 1.397 . S
C380 C397 1.394 1_556 S
C381 C380 1.397 . S
C381 C382 1.438 . S
C381 C386 1.429 . S
C382 C381 1.438 . S
C382 C383 1.428 . S
C382 C395 1.394 1_556 S
C383 H375 0.949 . S
C383 C382 1.428 . S
C383 C384 1.345 . S
C384 H376 0.950 . S
C384 C383 1.345 . S
C384 C385 1.424 . S
C385 H377 0.951 . S
C385 C384 1.424 . S
C385 C386 1.347 . S
C386 H378 0.951 . S
C386 C381 1.429 . S
C386 C385 1.347 . S
H387 C388 0.951 . S
C388 H387 0.951 . S
C388 C394 1.265 . S
H389 C394 0.950 . S
H390 C398 0.949 . S
H391 C399 0.950 . S
H392 C400 0.951 . S
H393 C401 0.951 . S
C394 C388 1.265 . S
C394 H389 0.950 . S
C394 C395 1.478 . S
C395 C382 1.394 1_554 S
C395 C394 1.478 . S
C395 C396 1.397 . S
C396 C395 1.397 . S
C396 C397 1.438 . S
C396 C401 1.429 . S
C397 C380 1.394 1_554 S
C397 C396 1.438 . S
C397 C398 1.428 . S
C398 H390 0.949 . S
C398 C397 1.428 . S
C398 C399 1.345 . S
C399 H391 0.950 . S
C399 C398 1.345 . S
C399 C400 1.424 . S
C400 H392 0.951 . S
C400 C399 1.424 . S
C400 C401 1.347 . S
C401 H393 0.951 . S
C401 C396 1.429 . S
C401 C400 1.347 . S
H402 C403 0.951 . S
C403 H402 0.951 . S
C403 C409 1.265 . S
H404 C409 0.950 . S
H405 C413 0.949 . S
H406 C414 0.950 . S
H407 C415 0.951 . S
H408 C416 0.951 . S
C409 C403 1.265 . S
C409 H404 0.950 . S
C409 C410 1.478 . S
C410 C409 1.478 . S
C410 C411 1.397 . S
C410 C427 1.394 1_556 S
C411 C410 1.397 . S
C411 C412 1.438 . S
C411 C416 1.429 . S
C412 C411 1.438 . S
C412 C413 1.428 . S
C412 C425 1.394 . S
C413 H405 0.949 . S
C413 C412 1.428 . S
C413 C414 1.345 . S
C414 H406 0.950 . S
C414 C413 1.345 . S
C414 C415 1.424 . S
C415 H407 0.951 . S
C415 C414 1.424 . S
C415 C416 1.347 . S
C416 H408 0.951 . S
C416 C411 1.429 . S
C416 C415 1.347 . S
H417 C418 0.951 . S
C418 H417 0.951 . S
C418 C424 1.265 . S
H419 C424 0.950 . S
H420 C428 0.949 . S
H421 C429 0.950 . S
H422 C430 0.951 . S
H423 C431 0.951 . S
C424 C418 1.265 . S
C424 H419 0.950 . S
C424 C425 1.478 . S
C425 C412 1.394 . S
C425 C424 1.478 . S
C425 C426 1.397 1_556 S
C426 C425 1.397 1_554 S
C426 C427 1.438 . S
C426 C431 1.429 . S
C427 C410 1.394 1_554 S
C427 C426 1.438 . S
C427 C428 1.428 . S
C428 H420 0.949 . S
C428 C427 1.428 . S
C428 C429 1.345 . S
C429 H421 0.950 . S
C429 C428 1.345 . S
C429 C430 1.424 . S
C430 H422 0.951 . S
C430 C429 1.424 . S
C430 C431 1.347 . S
C431 H423 0.951 . S
C431 C426 1.429 . S
C431 C430 1.347 . S
H432 C433 0.951 . S
C433 H432 0.951 . S
C433 C439 1.265 1_556 S
H434 C439 0.950 . S
H435 C443 0.949 . S
H436 C444 0.950 . S
H437 C445 0.951 . S
H438 C446 0.951 . S
C439 C433 1.265 1_554 S
C439 H434 0.950 . S
C439 C440 1.478 1_554 S
C440 C439 1.478 1_556 S
C440 C441 1.396 1_556 S
C440 C457 1.394 . S
C441 C440 1.396 1_554 S
C441 C442 1.438 . S
C441 C446 1.429 . S
C442 C441 1.438 . S
C442 C443 1.428 . S
C442 C455 1.394 1_554 S
C443 H435 0.949 . S
C443 C442 1.428 . S
C443 C444 1.345 . S
C444 H436 0.950 . S
C444 C443 1.345 . S
C444 C445 1.424 . S
C445 H437 0.951 . S
C445 C444 1.424 . S
C445 C446 1.347 . S
C446 H438 0.951 . S
C446 C441 1.429 . S
C446 C445 1.347 . S
H447 C448 0.951 . S
C448 H447 0.951 . S
C448 C454 1.265 1_554 S
H449 C454 0.950 . S
H450 C458 0.949 . S
H451 C459 0.950 . S
H452 C460 0.951 . S
H453 C461 0.951 . S
C454 C448 1.265 1_556 S
C454 H449 0.950 . S
C454 C455 1.478 . S
C455 C442 1.394 1_556 S
C455 C454 1.478 . S
C455 C456 1.397 . S
C456 C455 1.397 . S
C456 C457 1.438 . S
C456 C461 1.429 . S
C457 C440 1.394 . S
C457 C456 1.438 . S
C457 C458 1.428 . S
C458 H450 0.949 . S
C458 C457 1.428 . S
C458 C459 1.345 . S
C459 H451 0.950 . S
C459 C458 1.345 . S
C459 C460 1.424 . S
C460 H452 0.951 . S
C460 C459 1.424 . S
C460 C461 1.347 . S
C461 H453 0.951 . S
C461 C456 1.429 . S
C461 C460 1.347 . S
H462 C463 0.951 . S
C463 H462 0.951 . S
C463 C469 1.265 . S
H464 C469 0.950 1_554 S
H465 C473 0.949 . S
H466 C474 0.950 . S
H467 C475 0.951 . S
H468 C476 0.951 . S
C469 C463 1.265 . S
C469 H464 0.950 1_556 S
C469 C470 1.478 1_556 S
C470 C469 1.478 1_554 S
C470 C471 1.397 . S
C470 C487 1.394 1_554 S
C471 C470 1.397 . S
C471 C472 1.438 . S
C471 C476 1.429 . S
C472 C471 1.438 . S
C472 C473 1.428 . S
C472 C485 1.394 . S
C473 H465 0.949 . S
C473 C472 1.428 . S
C473 C474 1.345 . S
C474 H466 0.950 . S
C474 C473 1.345 . S
C474 C475 1.424 . S
C475 H467 0.951 . S
C475 C474 1.424 . S
C475 C476 1.347 . S
C476 H468 0.951 . S
C476 C471 1.429 . S
C476 C475 1.347 . S
H477 C478 0.951 . S
C478 H477 0.951 . S
C478 C484 1.265 . S
H479 C484 0.950 . S
H480 C488 0.949 . S
H481 C489 0.950 . S
H482 C490 0.951 . S
H483 C491 0.951 . S
C484 C478 1.265 . S
C484 H479 0.950 . S
C484 C485 1.478 . S
C485 C472 1.394 . S
C485 C484 1.478 . S
C485 C486 1.397 1_554 S
C486 C485 1.397 1_556 S
C486 C487 1.438 . S
C486 C491 1.429 . S
C487 C470 1.394 1_556 S
C487 C486 1.438 . S
C487 C488 1.428 . S
C488 H480 0.949 . S
C488 C487 1.428 . S
C488 C489 1.345 . S
C489 H481 0.950 . S
C489 C488 1.345 . S
C489 C490 1.424 . S
C490 H482 0.951 . S
C490 C489 1.424 . S
C490 C491 1.347 . S
C491 H483 0.951 . S
C491 C486 1.429 . S
C491 C490 1.347 . S
H492 C493 0.951 . S
C493 H492 0.951 . S
C493 C499 1.265 . S
H494 C499 0.950 . S
H495 C503 0.949 . S
H496 C504 0.950 . S
H497 C505 0.951 . S
H498 C506 0.951 . S
C499 C493 1.265 . S
C499 H494 0.950 . S
C499 C500 1.478 . S
C500 C499 1.478 . S
C500 C501 1.397 1_554 S
C500 C517 1.394 . S
C501 C500 1.397 1_556 S
C501 C502 1.438 . S
C501 C506 1.429 . S
C502 C501 1.438 . S
C502 C503 1.428 . S
C502 C515 1.394 1_556 S
C503 H495 0.949 . S
C503 C502 1.428 . S
C503 C504 1.345 . S
C504 H496 0.950 . S
C504 C503 1.345 . S
C504 C505 1.424 . S
C505 H497 0.951 . S
C505 C504 1.424 . S
C505 C506 1.347 . S
C506 H498 0.951 . S
C506 C501 1.429 . S
C506 C505 1.347 . S
H507 C508 0.951 . S
C508 H507 0.951 . S
C508 C514 1.265 . S
H509 C514 0.950 . S
H510 C518 0.949 . S
H511 C519 0.950 . S
H512 C520 0.951 . S
H513 C521 0.951 . S
C514 C508 1.265 . S
C514 H509 0.950 . S
C514 C515 1.478 . S
C515 C502 1.394 1_554 S
C515 C514 1.478 . S
C515 C516 1.397 . S
C516 C515 1.397 . S
C516 C517 1.438 . S
C516 C521 1.429 . S
C517 C500 1.394 . S
C517 C516 1.438 . S
C517 C518 1.428 . S
C518 H510 0.949 . S
C518 C517 1.428 . S
C518 C519 1.345 . S
C519 H511 0.950 . S
C519 C518 1.345 . S
C519 C520 1.424 . S
C520 H512 0.951 . S
C520 C519 1.424 . S
C520 C521 1.347 . S
C521 H513 0.951 . S
C521 C516 1.429 . S
C521 C520 1.347 . S
C253 C63 1.498 1_455 S
C268 C74 1.498 1_655 S
C283 C147 1.520 . S
C298 C158 1.520 . S
C313 C242 1.500 . S
C328 C231 1.500 . S
C343 C67 2.266 . S
C358 C224 2.289 . S
C373 C153 0.768 . S
C388 C69 0.758 1_554 S
C403 C151 1.614 . S
C418 C237 1.492 1_556 S
C433 C56 2.292 . S
C448 C235 2.303 . S
C463 C58 0.811 1_556 S
C478 C142 0.801 . S
C493 C226 1.466 1_554 S
C508 C140 1.624 . S
