# Generated by pormake.
# Topology umw, (4)-cn, num edge types: 1
# Building blocks:
#     Node 0, Type 0, BuildingBlock: UXUYUI_clean_sbu_0, # of connection points: 4
#     Node 1, Type 0, BuildingBlock: UXUYUI_clean_sbu_0, # of connection points: 4
#     Node 2, Type 0, BuildingBlock: UXUYUI_clean_sbu_0, # of connection points: 4
#     Node 3, Type 0, BuildingBlock: UXUYUI_clean_sbu_0, # of connection points: 4
#     Node 4, Type 0, BuildingBlock: UXUYUI_clean_sbu_0, # of connection points: 4
#     Node 5, Type 0, BuildingBlock: UXUYUI_clean_sbu_0, # of connection points: 4
#     Node 6, Type 0, BuildingBlock: UXUYUI_clean_sbu_0, # of connection points: 4
#     Node 7, Type 0, BuildingBlock: UXUYUI_clean_sbu_0, # of connection points: 4
#     Edge 8, Type (0, 0), BuildingBlock: KIFKEQ_clean_linker_1, # of connection points: 2
#     Edge 9, Type (0, 0), BuildingBlock: KIFKEQ_clean_linker_1, # of connection points: 2
#     Edge 10, Type (0, 0), BuildingBlock: KIFKEQ_clean_linker_1, # of connection points: 2
#     Edge 11, Type (0, 0), BuildingBlock: KIFKEQ_clean_linker_1, # of connection points: 2
#     Edge 12, Type (0, 0), BuildingBlock: KIFKEQ_clean_linker_1, # of connection points: 2
#     Edge 13, Type (0, 0), BuildingBlock: KIFKEQ_clean_linker_1, # of connection points: 2
#     Edge 14, Type (0, 0), BuildingBlock: KIFKEQ_clean_linker_1, # of connection points: 2
#     Edge 15, Type (0, 0), BuildingBlock: KIFKEQ_clean_linker_1, # of connection points: 2
#     Edge 16, Type (0, 0), BuildingBlock: KIFKEQ_clean_linker_1, # of connection points: 2
#     Edge 17, Type (0, 0), BuildingBlock: KIFKEQ_clean_linker_1, # of connection points: 2
#     Edge 18, Type (0, 0), BuildingBlock: KIFKEQ_clean_linker_1, # of connection points: 2
#     Edge 19, Type (0, 0), BuildingBlock: KIFKEQ_clean_linker_1, # of connection points: 2
#     Edge 20, Type (0, 0), BuildingBlock: KIFKEQ_clean_linker_1, # of connection points: 2
#     Edge 21, Type (0, 0), BuildingBlock: KIFKEQ_clean_linker_1, # of connection points: 2
#     Edge 22, Type (0, 0), BuildingBlock: KIFKEQ_clean_linker_1, # of connection points: 2
#     Edge 23, Type (0, 0), BuildingBlock: KIFKEQ_clean_linker_1, # of connection points: 2
# Relax obj value: 0.239
# Max RMSD: 0.148
# Mean RMSD: 0.148
data_MOF--net-umw--node1-UXUYUI_clean_sbu_0--edge1-KIFKEQ_clean_linker_1
_symmetry_space_group_name_H-M    P1
_symmetry_Int_Tables_number       1
_symmetry_cell_setting            triclinic
loop_
_symmetry_equiv_pos_as_xyz
'x, y, z'
_cell_length_a     63.854418
_cell_length_b     63.845444
_cell_length_c     35.330992
_cell_angle_alpha  89.99231
_cell_angle_beta   90.02913
_cell_angle_gamma 89.992595
loop_
_atom_site_label
_atom_site_type_symbol
_atom_site_fract_x
_atom_site_fract_y
_atom_site_fract_z
_atom_type_partial_charge
Li0 Li 0.37791 0.14477 0.26724 0.0
Li1 Li 0.40442 0.16913 0.29793 0.0
Li2 Li 0.37258 0.18167 0.27221 0.0
Li3 Li 0.39911 0.17115 0.22862 0.0
C4 C 0.36163 0.16824 0.33983 0.0
N5 N 0.33213 0.18386 0.38963 0.0
C6 C 0.36746 0.18276 0.3675 0.0
C7 C 0.34081 0.16154 0.33768 0.0
C8 C 0.35231 0.19051 0.39234 0.0
C9 C 0.32614 0.16963 0.36311 0.0
C10 C 0.42386 0.1318 0.263 0.0
C11 C 0.4582 0.11797 0.24919 0.0
N12 N 0.45378 0.10073 0.27035 0.0
C13 C 0.41967 0.1139 0.28453 0.0
C14 C 0.44328 0.13381 0.24508 0.0
C15 C 0.43499 0.0984 0.28794 0.0
C16 C 0.37089 0.10436 0.23783 0.0
N17 N 0.36756 0.11698 0.26818 0.0
C18 C 0.35439 0.08825 0.30429 0.0
C19 C 0.35927 0.10945 0.30087 0.0
C20 C 0.35847 0.07456 0.27401 0.0
C21 C 0.36645 0.08297 0.24013 0.0
H22 H 0.37793 0.11075 0.21249 0.0
H23 H 0.35732 0.11971 0.32492 0.0
C24 C 0.42723 0.1911 0.35352 0.0
N25 N 0.42426 0.17182 0.33804 0.0
C26 C 0.44125 0.19379 0.38347 0.0
C27 C 0.44895 0.15675 0.38092 0.0
C28 C 0.43463 0.15476 0.35136 0.0
C29 C 0.45235 0.17645 0.39738 0.0
H30 H 0.41854 0.20439 0.34283 0.0
H31 H 0.43162 0.13953 0.33957 0.0
C32 C 0.35387 0.1739 0.20517 0.0
N33 N 0.32364 0.19446 0.16344 0.0
C34 C 0.35779 0.19396 0.19103 0.0
C35 C 0.33467 0.16421 0.19791 0.0
C36 C 0.34227 0.20412 0.17006 0.0
C37 C 0.31956 0.1749 0.17678 0.0
C38 C 0.41891 0.20517 0.2612 0.0
C39 C 0.41881 0.22694 0.25719 0.0
C40 C 0.4379 0.19432 0.26001 0.0
C41 C 0.43775 0.23751 0.25196 0.0
C42 C 0.45651 0.20543 0.25476 0.0
N43 N 0.45605 0.22662 0.25086 0.0
C44 C 0.35894 0.21972 0.30081 0.0
C45 C 0.33081 0.19859 0.27945 0.0
C46 C 0.34502 0.23397 0.31692 0.0
N47 N 0.35169 0.20223 0.28328 0.0
C48 C 0.31629 0.2125 0.29505 0.0
C49 C 0.32337 0.23021 0.31495 0.0
H50 H 0.37561 0.22196 0.30433 0.0
H51 H 0.3254 0.18428 0.26642 0.0
C52 C 0.42073 0.15694 0.16485 0.0
N53 N 0.41348 0.17458 0.18188 0.0
C54 C 0.43374 0.15834 0.13323 0.0
C55 C 0.43053 0.19603 0.13581 0.0
C56 C 0.41768 0.19389 0.16757 0.0
C57 C 0.43913 0.17811 0.11864 0.0
H58 H 0.41701 0.14178 0.1767 0.0
H59 H 0.41147 0.20768 0.18132 0.0
O60 O 0.37615 0.16089 0.31464 0.0
O61 O 0.40884 0.14698 0.25869 0.0
O62 O 0.3688 0.16377 0.22595 0.0
O63 O 0.4004 0.19466 0.26583 0.0
H64 H 0.38346 0.18816 0.36951 0.0
H65 H 0.33593 0.15057 0.31606 0.0
H66 H 0.35658 0.20188 0.4137 0.0
H67 H 0.30994 0.16474 0.36153 0.0
H68 H 0.47328 0.11936 0.23549 0.0
H69 H 0.40493 0.11215 0.29915 0.0
H70 H 0.44686 0.14742 0.22805 0.0
H71 H 0.43197 0.08454 0.30469 0.0
H72 H 0.34803 0.08256 0.33076 0.0
H73 H 0.37018 0.07301 0.21627 0.0
H74 H 0.44346 0.20924 0.39548 0.0
H75 H 0.4569 0.14293 0.3914 0.0
H76 H 0.37257 0.20167 0.19658 0.0
H77 H 0.33146 0.14866 0.20868 0.0
H78 H 0.34502 0.2197 0.15911 0.0
H79 H 0.30458 0.16764 0.17103 0.0
H80 H 0.40422 0.23558 0.25788 0.0
H81 H 0.43828 0.17755 0.26335 0.0
H82 H 0.4379 0.25436 0.24874 0.0
H83 H 0.47131 0.19721 0.25382 0.0
H84 H 0.35124 0.24717 0.33253 0.0
H85 H 0.29974 0.20905 0.29261 0.0
H86 H 0.44011 0.14408 0.12131 0.0
H87 H 0.43387 0.21157 0.12511 0.0
Li88 Li 0.82643 0.41054 0.5563 0.0
Li89 Li 0.8498 0.38707 0.51802 0.0
Li90 Li 0.82017 0.40446 0.48857 0.0
Li91 Li 0.81479 0.3755 0.53025 0.0
C92 C 0.85048 0.43325 0.49006 0.0
N93 N 0.86 0.46448 0.4388 0.0
C94 C 0.86436 0.42928 0.46036 0.0
C95 C 0.8416 0.45314 0.49397 0.0
C96 C 0.86894 0.44527 0.43467 0.0
C97 C 0.84658 0.46871 0.46769 0.0
C98 C 0.85304 0.37403 0.58878 0.0
C99 C 0.87644 0.34566 0.60444 0.0
N100 N 0.88704 0.35858 0.6283 0.0
C101 C 0.86406 0.38699 0.61369 0.0
C102 C 0.85915 0.35316 0.58431 0.0
C103 C 0.88124 0.37889 0.63334 0.0
C104 C 0.80956 0.42645 0.62347 0.0
N105 N 0.82495 0.42914 0.59743 0.0
C106 C 0.83962 0.45733 0.63293 0.0
C107 C 0.8398 0.44421 0.60136 0.0
C108 C 0.82402 0.45483 0.66063 0.0
C109 C 0.80875 0.43924 0.65546 0.0
H110 H 0.79812 0.41412 0.61964 0.0
H111 H 0.85196 0.4458 0.58026 0.0
C112 C 0.88543 0.36283 0.49465 0.0
N113 N 0.87849 0.37979 0.51424 0.0
C114 C 0.90679 0.35792 0.49433 0.0
C115 C 0.91322 0.38801 0.53427 0.0
C116 C 0.89188 0.39248 0.53338 0.0
C117 C 0.9209 0.3705 0.5147 0.0
H118 H 0.87442 0.35308 0.47951 0.0
H119 H 0.88588 0.40598 0.54835 0.0
C120 C 0.77983 0.40695 0.52021 0.0
N121 N 0.73922 0.41551 0.49817 0.0
C122 C 0.77088 0.39612 0.48993 0.0
C123 C 0.7682 0.42222 0.53919 0.0
C124 C 0.75031 0.40064 0.47923 0.0
C125 C 0.74766 0.4263 0.52765 0.0
C126 C 0.8227 0.35731 0.46458 0.0
C127 C 0.8086 0.35814 0.43434 0.0
C128 C 0.82939 0.33789 0.47826 0.0
C129 C 0.80116 0.33947 0.41867 0.0
C130 C 0.82157 0.31958 0.46186 0.0
N131 N 0.80772 0.32074 0.43267 0.0
C132 C 0.82179 0.4151 0.41139 0.0
C133 C 0.79941 0.43683 0.4478 0.0
C134 C 0.81975 0.4284 0.38024 0.0
N135 N 0.81202 0.41975 0.44451 0.0
C136 C 0.79676 0.45043 0.41722 0.0
C137 C 0.80747 0.44658 0.38324 0.0
H138 H 0.83211 0.40169 0.40987 0.0
H139 H 0.79245 0.44064 0.47479 0.0
C140 C 0.80104 0.34587 0.58176 0.0
N141 N 0.79766 0.35239 0.54564 0.0
C142 C 0.78845 0.33046 0.59788 0.0
C143 C 0.76901 0.32847 0.53933 0.0
C144 C 0.78209 0.34394 0.52421 0.0
C145 C 0.77201 0.32171 0.57682 0.0
H146 H 0.81312 0.3531 0.59865 0.0
H147 H 0.7795 0.34943 0.4957 0.0
O148 O 0.84522 0.41759 0.51466 0.0
O149 O 0.83649 0.3818 0.56855 0.0
O150 O 0.80003 0.40299 0.53088 0.0
O151 O 0.8302 0.37541 0.48023 0.0
H152 H 0.87128 0.41391 0.45689 0.0
H153 H 0.83072 0.45639 0.51671 0.0
H154 H 0.87952 0.44239 0.41134 0.0
H155 H 0.83968 0.48412 0.47013 0.0
H156 H 0.88142 0.32958 0.60106 0.0
H157 H 0.85954 0.40317 0.6175 0.0
H158 H 0.85071 0.34289 0.56535 0.0
H159 H 0.89001 0.38878 0.65251 0.0
H160 H 0.85155 0.46929 0.63564 0.0
H161 H 0.79663 0.4366 0.67635 0.0
H162 H 0.91217 0.3443 0.47886 0.0
H163 H 0.92364 0.3983 0.54974 0.0
H164 H 0.77981 0.38459 0.47454 0.0
H165 H 0.77498 0.43087 0.56252 0.0
H166 H 0.74319 0.39239 0.45577 0.0
H167 H 0.73846 0.43806 0.54209 0.0
H168 H 0.8034 0.37302 0.42313 0.0
H169 H 0.8404 0.33697 0.50145 0.0
H170 H 0.79016 0.33988 0.39538 0.0
H171 H 0.82651 0.30444 0.47234 0.0
H172 H 0.82822 0.42486 0.35446 0.0
H173 H 0.78743 0.46446 0.42087 0.0
H174 H 0.79108 0.32607 0.62711 0.0
H175 H 0.75655 0.32206 0.52205 0.0
Li176 Li 0.59203 0.82737 0.80327 0.0
Li177 Li 0.61736 0.84954 0.7649 0.0
Li178 Li 0.59482 0.82121 0.73385 0.0
Li179 Li 0.62262 0.81319 0.77618 0.0
C180 C 0.57174 0.86268 0.76058 0.0
N181 N 0.54286 0.89494 0.75901 0.0
C182 C 0.57594 0.88153 0.77922 0.0
C183 C 0.55282 0.86027 0.74109 0.0
C184 C 0.56115 0.89764 0.77811 0.0
C185 C 0.53842 0.87674 0.74067 0.0
C186 C 0.63661 0.8305 0.83887 0.0
C187 C 0.67283 0.83177 0.85821 0.0
N188 N 0.66858 0.81798 0.88652 0.0
C189 C 0.63258 0.81647 0.86834 0.0
C190 C 0.65688 0.8383 0.83381 0.0
C191 C 0.64896 0.81027 0.89204 0.0
C192 C 0.57185 0.80917 0.86558 0.0
N193 N 0.57374 0.82735 0.84582 0.0
C194 C 0.5503 0.84467 0.88816 0.0
C195 C 0.56337 0.84495 0.85654 0.0
C196 C 0.54802 0.82611 0.90915 0.0
C197 C 0.559 0.80818 0.89744 0.0
H198 H 0.58052 0.79546 0.85676 0.0
H199 H 0.5653 0.85926 0.84081 0.0
C200 C 0.62329 0.88736 0.72582 0.0
N201 N 0.62711 0.87734 0.75904 0.0
C202 C 0.62685 0.90887 0.72272 0.0
C203 C 0.63904 0.90909 0.78754 0.0
C204 C 0.63509 0.88762 0.78948 0.0
C205 C 0.63442 0.92007 0.75412 0.0
H206 H 0.61657 0.87879 0.70234 0.0
H207 H 0.6373 0.8794 0.81592 0.0
C208 C 0.5754 0.79027 0.77574 0.0
N209 N 0.53702 0.77024 0.77526 0.0
C210 C 0.57437 0.76841 0.77732 0.0
C211 C 0.55689 0.80192 0.77402 0.0
C212 C 0.55482 0.75858 0.77702 0.0
C213 C 0.53765 0.79152 0.77379 0.0
C214 C 0.63913 0.81654 0.70679 0.0
C215 C 0.63418 0.79608 0.69596 0.0
C216 C 0.6586 0.82502 0.69734 0.0
C217 C 0.649 0.78429 0.67616 0.0
C218 C 0.67298 0.81272 0.67748 0.0
N219 N 0.66793 0.79278 0.66743 0.0
C220 C 0.57559 0.83236 0.66573 0.0
C221 C 0.57095 0.79655 0.68131 0.0
C222 C 0.56241 0.83029 0.6344 0.0
N223 N 0.57918 0.81575 0.68891 0.0
C224 C 0.55741 0.79385 0.65063 0.0
C225 C 0.55277 0.81095 0.62711 0.0
H226 H 0.58245 0.84742 0.67236 0.0
H227 H 0.57448 0.78341 0.69943 0.0
C228 C 0.63702 0.77561 0.80636 0.0
N229 N 0.64385 0.79305 0.78812 0.0
C230 C 0.6513 0.76145 0.82171 0.0
C231 C 0.67951 0.78313 0.7984 0.0
C232 C 0.66464 0.79687 0.78335 0.0
C233 C 0.67287 0.76533 0.81847 0.0
H234 H 0.62045 0.77322 0.81066 0.0
H235 H 0.66972 0.81112 0.76966 0.0
O236 O 0.58626 0.84688 0.76054 0.0
O237 O 0.62087 0.83635 0.81481 0.0
O238 O 0.59452 0.80001 0.77588 0.0
O239 O 0.6249 0.82824 0.72642 0.0
H240 H 0.59032 0.88361 0.79492 0.0
H241 H 0.54924 0.84583 0.72643 0.0
H242 H 0.56421 0.91228 0.79252 0.0
H243 H 0.52373 0.87507 0.72571 0.0
H244 H 0.68861 0.83754 0.85443 0.0
H245 H 0.61702 0.81022 0.87257 0.0
H246 H 0.66035 0.84894 0.81083 0.0
H247 H 0.6461 0.79928 0.91476 0.0
H248 H 0.54197 0.85881 0.89592 0.0
H249 H 0.55799 0.79364 0.91311 0.0
H250 H 0.62317 0.91676 0.6964 0.0
H251 H 0.64453 0.9172 0.81257 0.0
H252 H 0.58853 0.75912 0.77855 0.0
H253 H 0.55731 0.81878 0.77309 0.0
H254 H 0.5538 0.74168 0.77813 0.0
H255 H 0.52322 0.80037 0.77247 0.0
H256 H 0.61914 0.78933 0.7031 0.0
H257 H 0.66259 0.84087 0.70551 0.0
H258 H 0.64546 0.76839 0.66777 0.0
H259 H 0.68817 0.81902 0.67011 0.0
H260 H 0.55915 0.84386 0.61695 0.0
H261 H 0.55052 0.77861 0.6455 0.0
H262 H 0.64547 0.74815 0.83753 0.0
H263 H 0.696 0.78666 0.79512 0.0
Li264 Li 0.14704 0.6189 0.01512 0.0
Li265 Li 0.17099 0.59294 0.04711 0.0
Li266 Li 0.18472 0.62396 0.0171 0.0
Li267 Li 0.17263 0.59575 0.97925 0.0
C268 C 0.17297 0.63525 0.08685 0.0
N269 N 0.19151 0.66195 0.1385 0.0
C270 C 0.1887 0.62789 0.11095 0.0
C271 C 0.16656 0.65615 0.08919 0.0
C272 C 0.19791 0.64165 0.13682 0.0
C273 C 0.17614 0.6694 0.11547 0.0
C274 C 0.13679 0.57171 0.02662 0.0
C275 C 0.13375 0.53557 0.04587 0.0
N276 N 0.11466 0.53977 0.06112 0.0
C277 C 0.11708 0.57563 0.04231 0.0
C278 C 0.14515 0.55148 0.02821 0.0
C279 C 0.10615 0.55929 0.05967 0.0
C280 C 0.1068 0.62706 0.98642 0.0
N281 N 0.11969 0.63018 0.01649 0.0
C282 C 0.09162 0.64459 0.05273 0.0
C283 C 0.11264 0.63898 0.04908 0.0
C284 C 0.07763 0.64072 0.02278 0.0
C285 C 0.08559 0.63223 0.98896 0.0
H286 H 0.11282 0.61965 0.96113 0.0
H287 H 0.12314 0.64083 0.07283 0.0
C288 C 0.19112 0.5645 0.0965 0.0
N289 N 0.17297 0.57497 0.08966 0.0
C290 C 0.19266 0.55102 0.12749 0.0
C291 C 0.15685 0.55949 0.14378 0.0
C292 C 0.15617 0.57316 0.11305 0.0
C293 C 0.17525 0.54823 0.15111 0.0
H294 H 0.20441 0.56666 0.07798 0.0
H295 H 0.14219 0.58222 0.10762 0.0
C296 C 0.172 0.64418 0.955 0.0
N297 N 0.18448 0.68098 0.9207 0.0
C298 C 0.19142 0.64532 0.9369 0.0
C299 C 0.15883 0.66166 0.95537 0.0
C300 C 0.19748 0.6641 0.91985 0.0
C301 C 0.16545 0.68015 0.9379 0.0
C302 C 0.21057 0.5839 0.99595 0.0
C303 C 0.22645 0.59389 0.97558 0.0
C304 C 0.20917 0.56205 0.99537 0.0
C305 C 0.24061 0.58183 0.95473 0.0
C306 C 0.22358 0.55056 0.97408 0.0
N307 N 0.23887 0.5606 0.95437 0.0
C308 C 0.22379 0.63791 0.04162 0.0
C309 C 0.20113 0.66583 0.02502 0.0
C310 C 0.23816 0.65189 0.05721 0.0
N311 N 0.20555 0.64499 0.02642 0.0
C312 C 0.21508 0.68039 0.04037 0.0
C313 C 0.23365 0.67341 0.0576 0.0
H314 H 0.22657 0.62126 0.04394 0.0
H315 H 0.18618 0.6711 0.01443 0.0
C316 C 0.16181 0.56306 0.93025 0.0
N317 N 0.17535 0.57933 0.9341 0.0
C318 C 0.16347 0.54939 0.89967 0.0
C319 C 0.19269 0.56974 0.8766 0.0
C320 C 0.19035 0.58315 0.90764 0.0
C321 C 0.17919 0.5525 0.8725 0.0
H322 H 0.14975 0.56053 0.95109 0.0
H323 H 0.20069 0.59641 0.91084 0.0
O324 O 0.16425 0.62218 0.06051 0.0
O325 O 0.14785 0.58758 0.00985 0.0
O326 O 0.16571 0.62595 0.97174 0.0
O327 O 0.1964 0.59543 0.01621 0.0
H328 H 0.194 0.61183 0.10928 0.0
H329 H 0.15464 0.6622 0.07035 0.0
H330 H 0.21022 0.63621 0.15543 0.0
H331 H 0.17149 0.68566 0.11735 0.0
H332 H 0.14011 0.51989 0.04751 0.0
H333 H 0.11031 0.59113 0.0414 0.0
H334 H 0.16035 0.54814 0.01622 0.0
H335 H 0.09093 0.56213 0.07207 0.0
H336 H 0.0863 0.65135 0.07913 0.0
H337 H 0.0754 0.62861 0.96536 0.0
H338 H 0.20712 0.54262 0.1326 0.0
H339 H 0.14325 0.55789 0.16188 0.0
H340 H 0.20177 0.63192 0.93638 0.0
H341 H 0.1437 0.66097 0.96914 0.0
H342 H 0.21253 0.66527 0.90595 0.0
H343 H 0.15546 0.69384 0.93807 0.0
H344 H 0.22771 0.61078 0.97545 0.0
H345 H 0.19701 0.55405 0.01097 0.0
H346 H 0.2529 0.58937 0.93868 0.0
H347 H 0.2226 0.53365 0.97319 0.0
H348 H 0.25205 0.64575 0.07088 0.0
H349 H 0.21099 0.69685 0.04005 0.0
H350 H 0.15281 0.53624 0.89781 0.0
H351 H 0.20483 0.57288 0.85598 0.0
Li352 Li 0.40401 0.81933 0.31099 0.0
Li353 Li 0.37732 0.81102 0.26648 0.0
Li354 Li 0.40828 0.82613 0.24218 0.0
Li355 Li 0.38175 0.84743 0.27927 0.0
C356 C 0.42491 0.78909 0.26962 0.0
N357 N 0.46361 0.76972 0.27187 0.0
C358 C 0.4264 0.76732 0.26642 0.0
C359 C 0.44314 0.801 0.27383 0.0
C360 C 0.4461 0.75782 0.26766 0.0
C361 C 0.46254 0.79092 0.27493 0.0
C362 C 0.36006 0.81333 0.33637 0.0
C363 C 0.32674 0.80829 0.36707 0.0
N364 N 0.33257 0.78848 0.37658 0.0
C365 C 0.36578 0.79297 0.34658 0.0
C366 C 0.34044 0.82112 0.34677 0.0
C367 C 0.35163 0.78063 0.36686 0.0
C368 C 0.42172 0.83037 0.38038 0.0
N369 N 0.41883 0.8138 0.3568 0.0
C370 C 0.44062 0.79222 0.3956 0.0
C371 C 0.42739 0.79475 0.36445 0.0
C372 C 0.44462 0.80932 0.4195 0.0
C373 C 0.43458 0.82845 0.41218 0.0
H374 H 0.41463 0.84531 0.37366 0.0
H375 H 0.42445 0.78165 0.3459 0.0
C376 C 0.36408 0.77436 0.23154 0.0
N377 N 0.35678 0.79073 0.25226 0.0
C378 C 0.35018 0.7606 0.21402 0.0
C379 C 0.32141 0.78033 0.24056 0.0
C380 C 0.3359 0.79372 0.25766 0.0
C381 C 0.32851 0.76377 0.21772 0.0
H382 H 0.38072 0.77265 0.22693 0.0
H383 H 0.33045 0.80715 0.27341 0.0
C384 C 0.42655 0.86179 0.28627 0.0
N385 N 0.45401 0.89524 0.28856 0.0
C386 C 0.42202 0.8802 0.26645 0.0
C387 C 0.44508 0.86041 0.30723 0.0
C388 C 0.43609 0.89693 0.26797 0.0
C389 C 0.45876 0.87748 0.30801 0.0
C390 C 0.36378 0.82928 0.20433 0.0
C391 C 0.36797 0.81651 0.17311 0.0
C392 C 0.34336 0.83634 0.21074 0.0
C393 C 0.35157 0.81078 0.14904 0.0
C394 C 0.32741 0.83033 0.18593 0.0
N395 N 0.3318 0.81774 0.15591 0.0
C396 C 0.42844 0.80873 0.17966 0.0
C397 C 0.43974 0.84328 0.19318 0.0
C398 C 0.44187 0.80764 0.14859 0.0
N399 N 0.42757 0.82638 0.20112 0.0
C400 C 0.45347 0.84285 0.16249 0.0
C401 C 0.45457 0.82489 0.13964 0.0
H402 H 0.41862 0.79549 0.18666 0.0
H403 H 0.43873 0.85718 0.21034 0.0
C404 C 0.37307 0.88462 0.31906 0.0
N405 N 0.37096 0.87484 0.28513 0.0
C406 C 0.36821 0.90587 0.32251 0.0
C407 C 0.35839 0.90627 0.25639 0.0
C408 C 0.36357 0.88509 0.25417 0.0
C409 C 0.36111 0.91704 0.2907 0.0
H410 H 0.37933 0.8761 0.34301 0.0
H411 H 0.36269 0.87709 0.22726 0.0
O412 O 0.40565 0.7985 0.26845 0.0
O413 O 0.37359 0.82556 0.3162 0.0
O414 O 0.41275 0.84538 0.28583 0.0
O415 O 0.37954 0.83463 0.22875 0.0
H416 H 0.41245 0.75785 0.26316 0.0
H417 H 0.44237 0.81782 0.27612 0.0
H418 H 0.44746 0.74098 0.2653 0.0
H419 H 0.47675 0.79997 0.27821 0.0
H420 H 0.31147 0.81406 0.37521 0.0
H421 H 0.38091 0.78672 0.3386 0.0
H422 H 0.33583 0.83687 0.33902 0.0
H423 H 0.35579 0.76481 0.37482 0.0
H424 H 0.44787 0.77713 0.40071 0.0
H425 H 0.43735 0.84202 0.42989 0.0
H426 H 0.35636 0.74827 0.19619 0.0
H427 H 0.30483 0.78326 0.24434 0.0
H428 H 0.40798 0.88145 0.24952 0.0
H429 H 0.44891 0.8463 0.32271 0.0
H430 H 0.43278 0.91124 0.25268 0.0
H431 H 0.47315 0.87661 0.32411 0.0
H432 H 0.38365 0.81089 0.16775 0.0
H433 H 0.33978 0.846 0.23505 0.0
H434 H 0.35455 0.80076 0.12496 0.0
H435 H 0.31151 0.83552 0.19074 0.0
H436 H 0.44241 0.79341 0.13193 0.0
H437 H 0.46281 0.85658 0.15626 0.0
H438 H 0.37043 0.91358 0.34951 0.0
H439 H 0.35336 0.91437 0.23103 0.0
Li440 Li 0.17752 0.40532 0.55276 0.0
Li441 Li 0.1858 0.37668 0.51546 0.0
Li442 Li 0.17387 0.40935 0.48505 0.0
Li443 Li 0.149 0.38501 0.52316 0.0
C444 C 0.21577 0.41542 0.52806 0.0
N445 N 0.24838 0.43839 0.55829 0.0
C446 C 0.22792 0.40708 0.55729 0.0
C447 C 0.22039 0.4353 0.51376 0.0
C448 C 0.24428 0.41898 0.57234 0.0
C449 C 0.2369 0.44671 0.52954 0.0
C450 C 0.17331 0.357 0.57823 0.0
C451 C 0.16395 0.32109 0.59083 0.0
N452 N 0.18249 0.31834 0.60913 0.0
C453 C 0.19217 0.3539 0.59748 0.0
C454 C 0.15899 0.34054 0.57508 0.0
C455 C 0.19657 0.3342 0.61276 0.0
C456 C 0.18167 0.41329 0.63175 0.0
N457 N 0.18391 0.42172 0.59666 0.0
C458 C 0.19132 0.45535 0.62312 0.0
C459 C 0.18888 0.44225 0.5919 0.0
C460 C 0.18852 0.4473 0.65974 0.0
C461 C 0.18394 0.42587 0.66389 0.0
H462 H 0.17751 0.39696 0.63475 0.0
H463 H 0.19007 0.44872 0.56374 0.0
C464 C 0.22368 0.36043 0.48996 0.0
N465 N 0.20496 0.35431 0.50456 0.0
C466 C 0.23724 0.34579 0.47402 0.0
C467 C 0.21248 0.31854 0.48967 0.0
C468 C 0.19934 0.33376 0.50528 0.0
C469 C 0.2315 0.32456 0.47291 0.0
H470 H 0.2276 0.37687 0.48869 0.0
H471 H 0.18417 0.32922 0.51586 0.0
C472 C 0.1447 0.43116 0.54764 0.0
N473 N 0.12967 0.46124 0.59687 0.0
C474 C 0.13427 0.42521 0.58069 0.0
C475 C 0.14743 0.45243 0.53954 0.0
C476 C 0.12682 0.44064 0.60526 0.0
C477 C 0.1397 0.46739 0.56479 0.0
C478 C 0.16749 0.36331 0.45204 0.0
C479 C 0.1827 0.36437 0.42368 0.0
C480 C 0.15623 0.34477 0.45738 0.0
C481 C 0.18657 0.34673 0.40135 0.0
C482 C 0.1605 0.3275 0.43434 0.0
N483 N 0.17549 0.32882 0.4071 0.0
C484 C 0.1919 0.4259 0.41876 0.0
C485 C 0.15903 0.44031 0.43587 0.0
C486 C 0.19268 0.43851 0.38651 0.0
N487 N 0.1752 0.427 0.44245 0.0
C488 C 0.15934 0.45349 0.40443 0.0
C489 C 0.17625 0.45261 0.37893 0.0
H490 H 0.20451 0.4151 0.42479 0.0
H491 H 0.14584 0.44063 0.45503 0.0
C492 C 0.10987 0.37268 0.55609 0.0
N493 N 0.12067 0.37619 0.52356 0.0
C494 C 0.08842 0.36836 0.55476 0.0
C495 C 0.08993 0.37046 0.4865 0.0
C496 C 0.11122 0.375 0.48919 0.0
C497 C 0.07807 0.36754 0.51959 0.0
H498 H 0.1178 0.37377 0.58308 0.0
H499 H 0.1202 0.37798 0.46381 0.0
O500 O 0.19966 0.40404 0.51303 0.0
O501 O 0.16863 0.37621 0.56339 0.0
O502 O 0.1526 0.41623 0.52382 0.0
O503 O 0.16389 0.38021 0.4749 0.0
H504 H 0.2247 0.39161 0.56829 0.0
H505 H 0.21117 0.44194 0.49102 0.0
H506 H 0.25374 0.41278 0.59515 0.0
H507 H 0.24056 0.46218 0.51898 0.0
H508 H 0.15308 0.30816 0.58841 0.0
H509 H 0.20327 0.36657 0.60061 0.0
H510 H 0.14431 0.34268 0.56029 0.0
H511 H 0.21116 0.33154 0.62757 0.0
H512 H 0.19443 0.47183 0.61848 0.0
H513 H 0.18179 0.41899 0.69163 0.0
H514 H 0.25154 0.35126 0.46085 0.0
H515 H 0.20748 0.30234 0.48967 0.0
H516 H 0.13235 0.40885 0.58769 0.0
H517 H 0.15575 0.45734 0.51441 0.0
H518 H 0.11887 0.43625 0.6311 0.0
H519 H 0.14181 0.48389 0.55901 0.0
H520 H 0.19164 0.37855 0.41934 0.0
H521 H 0.14455 0.34361 0.47947 0.0
H522 H 0.19844 0.34725 0.37953 0.0
H523 H 0.152 0.31301 0.43831 0.0
H524 H 0.20588 0.43695 0.36749 0.0
H525 H 0.14649 0.46432 0.40039 0.0
H526 H 0.07993 0.36646 0.58106 0.0
H527 H 0.0828 0.36958 0.45874 0.0
Li528 Li 0.6191 0.18567 0.7668 0.0
Li529 Li 0.59038 0.17591 0.80432 0.0
Li530 Li 0.6116 0.14852 0.77335 0.0
Li531 Li 0.58721 0.17334 0.73567 0.0
C532 C 0.63847 0.17028 0.83231 0.0
N533 N 0.67599 0.17426 0.8706 0.0
C534 C 0.64092 0.18583 0.85979 0.0
C535 C 0.65494 0.15646 0.82487 0.0
C536 C 0.66007 0.18768 0.87865 0.0
C537 C 0.67383 0.1588 0.8444 0.0
C538 C 0.58674 0.21758 0.78175 0.0
C539 C 0.56517 0.24849 0.78596 0.0
N540 N 0.578 0.25614 0.81341 0.0
C541 C 0.59977 0.22578 0.80982 0.0
C542 C 0.56936 0.22904 0.76951 0.0
C543 C 0.59507 0.24529 0.82554 0.0
C544 C 0.63442 0.22177 0.73353 0.0
N545 N 0.64076 0.20568 0.75602 0.0
C546 C 0.67656 0.21591 0.74856 0.0
C547 C 0.66137 0.20275 0.76426 0.0
C548 C 0.67045 0.23217 0.72411 0.0
C549 C 0.64902 0.23528 0.71736 0.0
H550 H 0.61807 0.22336 0.72619 0.0
H551 H 0.66623 0.18957 0.7811 0.0
C552 C 0.57947 0.17173 0.8814 0.0
N553 N 0.57389 0.18106 0.84832 0.0
C554 C 0.56621 0.17278 0.91278 0.0
C555 C 0.54216 0.19373 0.87587 0.0
C556 C 0.55575 0.19208 0.84513 0.0
C557 C 0.54715 0.18368 0.91004 0.0
H558 H 0.59385 0.16281 0.88293 0.0
H559 H 0.55135 0.19877 0.81821 0.0
C560 C 0.63309 0.16913 0.70288 0.0
N561 N 0.66688 0.18038 0.6585 0.0
C562 C 0.6303 0.1826 0.67211 0.0
C563 C 0.65301 0.16119 0.71085 0.0
C564 C 0.6476 0.18816 0.65009 0.0
C565 C 0.6699 0.1671 0.68811 0.0
C566 C 0.5625 0.14612 0.79267 0.0
C567 C 0.56349 0.13208 0.82297 0.0
C568 C 0.54336 0.1553 0.78298 0.0
C569 C 0.54529 0.1276 0.84336 0.0
C570 C 0.5255 0.15036 0.804 0.0
N571 N 0.52684 0.13676 0.83354 0.0
C572 C 0.62043 0.10846 0.80523 0.0
C573 C 0.62721 0.11229 0.73965 0.0
C574 C 0.62506 0.08707 0.80333 0.0
N575 N 0.62121 0.12043 0.77346 0.0
C576 C 0.63225 0.09112 0.73657 0.0
C577 C 0.63066 0.07802 0.76843 0.0
H578 H 0.61556 0.11538 0.83174 0.0
H579 H 0.62751 0.12212 0.71476 0.0
C580 C 0.56919 0.19345 0.67292 0.0
N581 N 0.56978 0.17531 0.69296 0.0
C582 C 0.5569 0.1949 0.64034 0.0
C583 C 0.5458 0.15909 0.65032 0.0
C584 C 0.55845 0.15829 0.68247 0.0
C585 C 0.54504 0.17752 0.62855 0.0
H586 H 0.57851 0.20668 0.68201 0.0
H587 H 0.55928 0.14408 0.69909 0.0
O588 O 0.61973 0.16801 0.81404 0.0
O589 O 0.59097 0.19848 0.76601 0.0
O590 O 0.61648 0.16409 0.72557 0.0
O591 O 0.58028 0.1513 0.77324 0.0
H592 H 0.62813 0.19624 0.86676 0.0
H593 H 0.65323 0.14414 0.80411 0.0
H594 H 0.66222 0.19972 0.89984 0.0
H595 H 0.68677 0.14832 0.83872 0.0
H596 H 0.55172 0.25749 0.7769 0.0
H597 H 0.61341 0.21721 0.81915 0.0
H598 H 0.55916 0.22288 0.74769 0.0
H599 H 0.60502 0.25183 0.84734 0.0
H600 H 0.69293 0.21301 0.75463 0.0
H601 H 0.64361 0.24733 0.69811 0.0
H602 H 0.57064 0.16488 0.93872 0.0
H603 H 0.52745 0.20196 0.8724 0.0
H604 H 0.615 0.18893 0.66563 0.0
H605 H 0.65545 0.15083 0.73466 0.0
H606 H 0.64571 0.19873 0.62639 0.0
H607 H 0.68544 0.16122 0.69415 0.0
H608 H 0.5782 0.12497 0.831 0.0
H609 H 0.54237 0.16639 0.75989 0.0
H610 H 0.54585 0.1169 0.86708 0.0
H611 H 0.51061 0.15746 0.797 0.0
H612 H 0.62339 0.07762 0.8286 0.0
H613 H 0.63692 0.08502 0.70925 0.0
H614 H 0.55703 0.20932 0.62421 0.0
H615 H 0.53666 0.14543 0.64275 0.0
Li616 Li 0.81402 0.62235 0.02269 0.0
Li617 Li 0.82288 0.5959 0.06771 0.0
Li618 Li 0.85058 0.61756 0.03297 0.0
Li619 Li 0.82792 0.59086 -0.00118 0.0
C620 C 0.8186 0.64184 0.08879 0.0
N621 N 0.79599 0.67334 0.12335 0.0
C622 C 0.79805 0.63816 0.10063 0.0
C623 C 0.82775 0.66144 0.09481 0.0
C624 C 0.78685 0.65433 0.11795 0.0
C625 C 0.81603 0.67719 0.11228 0.0
C626 C 0.79078 0.57562 0.03092 0.0
C627 C 0.79115 0.538 0.03708 0.0
N628 N 0.76988 0.53799 0.03908 0.0
C629 C 0.76893 0.57524 0.03301 0.0
C630 C 0.80198 0.55686 0.03297 0.0
C631 C 0.75865 0.55606 0.03714 0.0
C632 C 0.77639 0.6355 0.99108 0.0
N633 N 0.79382 0.64307 0.00842 0.0
C634 C 0.78446 0.67814 0.99169 0.0
C635 C 0.79785 0.66398 0.00972 0.0
C636 C 0.76692 0.67061 0.97189 0.0
C637 C 0.76266 0.64905 0.97261 0.0
H638 H 0.77378 0.6188 0.98972 0.0
H639 H 0.81216 0.66959 0.02251 0.0
C640 C 0.83513 0.57472 0.13301 0.0
N641 N 0.81794 0.58146 0.11394 0.0
C642 C 0.833 0.5619 0.16474 0.0
C643 C 0.7954 0.56411 0.15793 0.0
C644 C 0.79828 0.57684 0.12615 0.0
C645 C 0.81292 0.55613 0.17731 0.0
H646 H 0.85057 0.57876 0.12278 0.0
H647 H 0.78484 0.58266 0.1108 0.0
C648 C 0.83036 0.63341 0.95693 0.0
N649 N 0.81698 0.66237 0.90405 0.0
C650 C 0.8159 0.62764 0.9291 0.0
C651 C 0.83816 0.65387 0.95767 0.0
C652 C 0.80927 0.64253 0.90272 0.0
C653 C 0.83119 0.66828 0.93069 0.0
C654 C 0.86373 0.5716 0.0378 0.0
C655 C 0.88223 0.576 0.0182 0.0
C656 C 0.8613 0.55208 0.05526 0.0
C657 C 0.89788 0.56076 0.01605 0.0
C658 C 0.87732 0.53725 0.05246 0.0
N659 N 0.89513 0.54186 0.03307 0.0
C660 C 0.88812 0.62686 0.07063 0.0
C661 C 0.88808 0.63519 0.00521 0.0
C662 C 0.90935 0.63188 0.07334 0.0
N663 N 0.8781 0.6283 0.03682 0.0
C664 C 0.90926 0.64049 0.00668 0.0
C665 C 0.92028 0.63844 0.0409 0.0
H666 H 0.87979 0.62106 0.09514 0.0
H667 H 0.87985 0.63561 0.97848 0.0
C668 C 0.80843 0.56726 0.94134 0.0
N669 N 0.82726 0.57151 0.95764 0.0
C670 C 0.80719 0.55394 0.91013 0.0
C671 C 0.84478 0.5498 0.91259 0.0
C672 C 0.84528 0.56324 0.9437 0.0
C673 C 0.82555 0.54504 0.89532 0.0
H674 H 0.79436 0.57449 0.9522 0.0
H675 H 0.86011 0.56743 0.95607 0.0
O676 O 0.82975 0.62628 0.07159 0.0
O677 O 0.80101 0.59438 0.0275 0.0
O678 O 0.83663 0.61918 0.98357 0.0
O679 O 0.84841 0.58654 0.04097 0.0
H680 H 0.79078 0.62305 0.09612 0.0
H681 H 0.84368 0.66446 0.08585 0.0
H682 H 0.77088 0.65176 0.12706 0.0
H683 H 0.82285 0.69247 0.11698 0.0
H684 H 0.79965 0.52336 0.03863 0.0
H685 H 0.76001 0.58964 0.03173 0.0
H686 H 0.81882 0.55683 0.03108 0.0
H687 H 0.74174 0.55555 0.03888 0.0
H688 H 0.78844 0.69462 0.99141 0.0
H689 H 0.74918 0.64263 0.95804 0.0
H690 H 0.84698 0.55598 0.17838 0.0
H691 H 0.77962 0.56042 0.16698 0.0
H692 H 0.80963 0.61192 0.92823 0.0
H693 H 0.84914 0.65869 0.9793 0.0
H694 H 0.79793 0.63834 0.88126 0.0
H695 H 0.83696 0.68421 0.93111 0.0
H696 H 0.88436 0.59087 0.00417 0.0
H697 H 0.84726 0.54837 0.07097 0.0
H698 H 0.91221 0.56395 0.00076 0.0
H699 H 0.87562 0.52209 0.06579 0.0
H700 H 0.91725 0.63021 0.10031 0.0
H701 H 0.91717 0.64513 0.98088 0.0
H702 H 0.79203 0.55065 0.89774 0.0
H703 H 0.85937 0.54366 0.90155 0.0
H704 H 0.49182 0.1606 0.40352 0.0
H705 H 0.44576 0.19706 0.46395 0.0
H706 H 0.51515 0.16224 0.45808 0.0
H707 H 0.46878 0.19827 0.51903 0.0
H708 H 0.52174 0.21048 0.60179 0.0
H709 H 0.50076 0.21186 0.54423 0.0
H710 H 0.5173 0.14761 0.51977 0.0
H711 H 0.53925 0.14667 0.57584 0.0
C712 C 0.4867 0.16893 0.42858 0.0
C713 C 0.46698 0.17862 0.42963 0.0
C714 C 0.5 0.16981 0.45989 0.0
C715 C 0.49378 0.18023 0.49311 0.0
C716 C 0.47421 0.19035 0.49377 0.0
C717 C 0.46098 0.18963 0.46228 0.0
C718 C 0.52116 0.19676 0.58381 0.0
C719 C 0.53217 0.17845 0.59354 0.0
C720 C 0.50891 0.19746 0.55104 0.0
C721 C 0.5073 0.17984 0.52735 0.0
C722 C 0.51839 0.16158 0.53703 0.0
C723 C 0.53074 0.16093 0.56958 0.0
H724 H 0.85759 0.46659 0.70363 0.0
H725 H 0.79035 0.47287 0.69575 0.0
H726 H 0.85762 0.48835 0.76029 0.0
H727 H 0.7903 0.49402 0.75327 0.0
H728 H 0.80222 0.55055 0.83118 0.0
H729 H 0.80158 0.5286 0.77474 0.0
H730 H 0.84648 0.48674 0.82627 0.0
H731 H 0.84715 0.50872 0.88272 0.0
C732 C 0.84282 0.47267 0.71394 0.0
C733 C 0.82398 0.46807 0.69513 0.0
C734 C 0.84281 0.48492 0.74667 0.0
C735 C 0.82396 0.49285 0.76133 0.0
C736 C 0.8051 0.48828 0.7425 0.0
C737 C 0.80511 0.476 0.70978 0.0
C738 C 0.81177 0.53653 0.83063 0.0
C739 C 0.82475 0.53137 0.8614 0.0
C740 C 0.8114 0.52396 0.79829 0.0
C741 C 0.82401 0.50596 0.79601 0.0
C742 C 0.83684 0.5007 0.82692 0.0
C743 C 0.83722 0.51327 0.85925 0.0
H744 H 0.4458 0.81 0.06894 0.0
H745 H 0.49504 0.83855 0.13503 0.0
H746 H 0.46854 0.80995 0.01354 0.0
H747 H 0.5179 0.8383 0.07976 0.0
H748 H 0.54387 0.85617 0.96381 0.0
H749 H 0.52127 0.85553 0.01925 0.0
H750 H 0.49972 0.79369 0.98828 0.0
H751 H 0.52159 0.79475 0.93181 0.0
C752 C 0.46158 0.81603 0.07172 0.0
C753 C 0.46863 0.82431 0.10629 0.0
C754 C 0.47462 0.81598 0.04 0.0
C755 C 0.49503 0.82416 0.0422 0.0
C756 C 0.50214 0.83222 0.07693 0.0
C757 C 0.48907 0.83234 0.10861 0.0
C758 C 0.53413 0.84253 0.96858 0.0
C759 C 0.53448 0.82554 0.94329 0.0
C760 C 0.52138 0.84205 0.00065 0.0
C761 C 0.50873 0.82454 0.00826 0.0
C762 C 0.50912 0.80751 0.98305 0.0
C763 C 0.52184 0.80801 0.95091 0.0
H764 H 0.14293 0.46529 0.33548 0.0
H765 H 0.21029 0.47068 0.34412 0.0
H766 H 0.14316 0.48849 0.28139 0.0
H767 H 0.21071 0.49225 0.28759 0.0
H768 H 0.20264 0.54874 0.21003 0.0
H769 H 0.20309 0.52555 0.26494 0.0
H770 H 0.15102 0.49084 0.21774 0.0
H771 H 0.14994 0.51495 0.16429 0.0
C772 C 0.15784 0.47136 0.32589 0.0
C773 C 0.17658 0.46615 0.34461 0.0
C774 C 0.15801 0.4844 0.29421 0.0
C775 C 0.17697 0.49227 0.27978 0.0
C776 C 0.19576 0.4868 0.29812 0.0
C777 C 0.19555 0.47407 0.33029 0.0
C778 C 0.19136 0.53609 0.21163 0.0
C779 C 0.17618 0.5336 0.18332 0.0
C780 C 0.19166 0.52269 0.2429 0.0
C781 C 0.17704 0.50626 0.24603 0.0
C782 C 0.1622 0.50357 0.21693 0.0
C783 C 0.16163 0.51725 0.18614 0.0
H784 H 0.2889 0.21833 0.3558 0.0
H785 H 0.32446 0.2729 0.32247 0.0
H786 H 0.26623 0.2404 0.3945 0.0
H787 H 0.30204 0.29483 0.36183 0.0
H788 H 0.27432 0.32193 0.47086 0.0
H789 H 0.29572 0.29898 0.43153 0.0
H790 H 0.23983 0.26952 0.38796 0.0
H791 H 0.21833 0.29275 0.42665 0.0
C792 C 0.29169 0.23506 0.3562 0.0
C793 C 0.30853 0.24384 0.33601 0.0
C794 C 0.27876 0.24767 0.37856 0.0
C795 C 0.2825 0.26929 0.38146 0.0
C796 C 0.29903 0.27814 0.36068 0.0
C797 C 0.31185 0.26558 0.33811 0.0
C798 C 0.26657 0.3106 0.45284 0.0
C799 C 0.2446 0.30924 0.45186 0.0
C800 C 0.27883 0.29748 0.4303 0.0
C801 C 0.26943 0.28259 0.40646 0.0
C802 C 0.24751 0.28075 0.40628 0.0
C803 C 0.23521 0.29399 0.42862 0.0
H804 H 0.78165 0.28909 0.62399 0.0
H805 H 0.7293 0.32065 0.57149 0.0
H806 H 0.75747 0.26718 0.65986 0.0
H807 H 0.70513 0.29827 0.60642 0.0
H808 H 0.66964 0.27433 0.71031 0.0
H809 H 0.69421 0.2948 0.67265 0.0
H810 H 0.73136 0.23928 0.65318 0.0
H811 H 0.70671 0.21876 0.69074 0.0
C812 C 0.76497 0.29121 0.61985 0.0
C813 C 0.75739 0.3067 0.59507 0.0
C814 C 0.75113 0.27855 0.64018 0.0
C815 C 0.72938 0.28112 0.63625 0.0
C816 C 0.7218 0.29613 0.61052 0.0
C817 C 0.73566 0.30876 0.59011 0.0
C818 C 0.68303 0.26648 0.69793 0.0
C819 C 0.68623 0.24493 0.70357 0.0
C820 C 0.69706 0.27819 0.67623 0.0
C821 C 0.71464 0.26863 0.65967 0.0
C822 C 0.71806 0.24715 0.66585 0.0
C823 C 0.70399 0.23542 0.68752 0.0
H824 H 0.75261 0.66392 0.90025 0.0
H825 H 0.75226 0.70966 0.99029 0.0
H826 H 0.73115 0.68701 0.86143 0.0
H827 H 0.73057 0.73279 0.95151 0.0
H828 H 0.70747 0.77691 0.85911 0.0
H829 H 0.73122 0.75435 0.89473 0.0
H830 H 0.69573 0.70011 0.8595 0.0
H831 H 0.67256 0.72256 0.82271 0.0
C832 C 0.74773 0.67884 0.91191 0.0
C833 C 0.75391 0.68488 0.9485 0.0
C834 C 0.73547 0.69209 0.88963 0.0
C835 C 0.72905 0.71171 0.90341 0.0
C836 C 0.73546 0.71789 0.93986 0.0
C837 C 0.74781 0.70463 0.96214 0.0
C838 C 0.705 0.76013 0.85839 0.0
C839 C 0.68814 0.75152 0.83803 0.0
C840 C 0.71843 0.74723 0.87923 0.0
C841 C 0.71532 0.72543 0.88014 0.0
C842 C 0.69871 0.71681 0.85915 0.0
C843 C 0.68529 0.72969 0.83834 0.0
H844 H 0.2218 0.70527 0.10463 0.0
H845 H 0.2765 0.6744 0.05921 0.0
H846 H 0.24421 0.72741 0.14367 0.0
H847 H 0.2989 0.69647 0.09843 0.0
H848 H 0.32988 0.72142 0.20599 0.0
H849 H 0.30683 0.70039 0.16615 0.0
H850 H 0.2705 0.75554 0.13955 0.0
H851 H 0.29361 0.77661 0.17924 0.0
C852 C 0.23862 0.70347 0.10245 0.0
C853 C 0.24738 0.68809 0.07876 0.0
C854 C 0.25145 0.7161 0.12495 0.0
C855 C 0.27331 0.71358 0.12437 0.0
C856 C 0.28209 0.69853 0.10005 0.0
C857 C 0.26927 0.68593 0.07749 0.0
C858 C 0.31699 0.72906 0.19159 0.0
C859 C 0.31358 0.75068 0.19579 0.0
C860 C 0.30383 0.71703 0.16868 0.0
C861 C 0.28694 0.72634 0.14947 0.0
C862 C 0.28326 0.74788 0.15427 0.0
C863 C 0.29646 0.75993 0.17713 0.0
H864 H 0.38677 0.94573 0.32397 0.0
H865 H 0.32935 0.94043 0.26004 0.0
H866 H 0.38411 0.98369 0.32171 0.0
H867 H 0.32646 0.97858 0.2582 0.0
H868 H 0.34453 0.04582 0.22183 0.0
H869 H 0.34359 0.00782 0.22821 0.0
H870 H 0.3649 0.01326 0.3439 0.0
H871 H 0.36702 0.05101 0.33687 0.0
C872 C 0.37331 0.95269 0.31014 0.0
C873 C 0.35825 0.94009 0.29224 0.0
C874 C 0.37178 0.97449 0.30883 0.0
C875 C 0.35507 0.98423 0.28974 0.0
C876 C 0.3397 0.9716 0.27263 0.0
C877 C 0.34131 0.94976 0.27379 0.0
C878 C 0.34908 0.0389 0.24858 0.0
C879 C 0.35594 0.05154 0.27874 0.0
C880 C 0.34828 0.01711 0.25241 0.0
C881 C 0.35426 0.00745 0.28654 0.0
C882 C 0.36047 0.02014 0.31704 0.0
C883 C 0.36139 0.04187 0.31315 0.0
H884 H 0.94692 0.36945 0.57582 0.0
H885 H 0.9461 0.36141 0.45449 0.0
H886 H 0.985 0.36577 0.57591 0.0
H887 H 0.98425 0.35754 0.45459 0.0
H888 H 0.05088 0.3865 0.47045 0.0
H889 H 0.01299 0.38351 0.46814 0.0
H890 H 0.01446 0.3404 0.56223 0.0
H891 H 0.05266 0.34283 0.56399 0.0
C892 C 0.9549 0.36667 0.54924 0.0
C893 C 0.94363 0.36588 0.5151 0.0
C894 C 0.97665 0.36438 0.54933 0.0
C895 C 0.98757 0.36147 0.51524 0.0
C896 C 0.97622 0.35994 0.48124 0.0
C897 C 0.95442 0.362 0.4812 0.0
C898 C 0.04328 0.37596 0.49013 0.0
C899 C 0.05493 0.36486 0.51737 0.0
C900 C 0.02151 0.3743 0.48881 0.0
C901 C 0.01079 0.36168 0.51493 0.0
C902 C 0.02234 0.35036 0.54192 0.0
C903 C 0.0442 0.35185 0.54301 0.0
H904 H 0.6055 0.94732 0.72627 0.0
H905 H 0.66593 0.94517 0.78101 0.0
H906 H 0.60603 0.98534 0.72877 0.0
H907 H 0.66676 0.98345 0.78285 0.0
H908 H 0.64834 0.05045 0.81922 0.0
H909 H 0.65029 0.01242 0.8143 0.0
H910 H 0.62224 0.01545 0.7031 0.0
H911 H 0.619 0.05311 0.709 0.0
C912 C 0.61912 0.95502 0.73813 0.0
C913 C 0.63573 0.94327 0.75324 0.0
C914 C 0.61945 0.97685 0.73958 0.0
C915 C 0.63648 0.98753 0.75592 0.0
C916 C 0.65327 0.97575 0.77054 0.0
C917 C 0.65285 0.95385 0.76934 0.0
C918 C 0.64246 0.04299 0.79383 0.0
C919 C 0.63345 0.05494 0.7646 0.0
C920 C 0.64384 0.02118 0.79079 0.0
C921 C 0.63634 0.01081 0.75835 0.0
C922 C 0.62788 0.02283 0.72875 0.0
C923 C 0.62633 0.04455 0.73192 0.0
H924 H 0.94335 0.66981 0.00817 0.0
H925 H 0.94926 0.61353 0.07514 0.0
H926 H 0.98147 0.67303 0.00613 0.0
H927 H 0.98716 0.61647 0.07263 0.0
H928 H 0.05427 0.63357 0.08645 0.0
H929 H 0.01657 0.63609 0.09373 0.0
H930 H 0.01091 0.65589 0.9772 0.0
H931 H 0.04886 0.65465 0.97056 0.0
C932 C 0.95281 0.65817 0.02252 0.0
C933 C 0.94331 0.64146 0.04192 0.0
C934 C 0.97463 0.65997 0.02126 0.0
C935 C 0.98742 0.64501 0.0392 0.0
C936 C 0.97785 0.62852 0.05913 0.0
C937 C 0.95608 0.62681 0.06056 0.0
C938 C 0.0451 0.639 0.06259 0.0
C939 C 0.05469 0.64387 0.02784 0.0
C940 C 0.02339 0.64013 0.06663 0.0
C941 C 0.01064 0.64595 0.03595 0.0
C942 C 0.02024 0.65149 0.00154 0.0
C943 C 0.04201 0.65051 0.99757 0.0
H944 H 0.53476 0.15024 0.95248 0.0
H945 H 0.52492 0.21672 0.93858 0.0
H946 H 0.50842 0.14953 0.00258 0.0
H947 H 0.49836 0.21597 0.98848 0.0
H948 H 0.46994 0.20758 0.10905 0.0
H949 H 0.49602 0.20951 0.05878 0.0
H950 H 0.46944 0.15445 0.00666 0.0
H951 H 0.44299 0.15274 0.05631 0.0
C952 C 0.52711 0.16474 0.96042 0.0
C953 C 0.53193 0.18355 0.94174 0.0
C954 C 0.51187 0.16429 0.98877 0.0
C955 C 0.50127 0.18268 -0.00072 0.0
C956 C 0.50636 0.20158 0.98108 0.0
C957 C 0.52145 0.20199 0.95242 0.0
C958 C 0.46937 0.19609 0.08653 0.0
C959 C 0.45434 0.17997 0.08686 0.0
C960 C 0.48439 0.19717 0.05782 0.0
C961 C 0.48485 0.18205 0.02897 0.0
C962 C 0.46968 0.16612 0.02891 0.0
C963 C 0.45454 0.16514 0.05741 0.0
H964 H 0.78419 0.5244 0.1846 0.0
H965 H 0.83613 0.55374 0.24252 0.0
H966 H 0.78191 0.49826 0.23482 0.0
H967 H 0.83409 0.52729 0.29211 0.0
H968 H 0.8409 0.46169 0.34408 0.0
H969 H 0.84112 0.48871 0.29524 0.0
H970 H 0.77396 0.49467 0.3047 0.0
H971 H 0.77371 0.46736 0.35347 0.0
C972 C 0.79492 0.5255 0.20826 0.0
C973 C 0.81044 0.54115 0.20933 0.0
C974 C 0.79364 0.51045 0.23695 0.0
C975 C 0.80795 0.51062 0.26717 0.0
C976 C 0.82309 0.52655 0.26879 0.0
C977 C 0.82427 0.54168 0.24032 0.0
C978 C 0.82615 0.46858 0.3354 0.0
C979 C 0.80726 0.46233 0.35238 0.0
C980 C 0.82631 0.48422 0.30778 0.0
C981 C 0.80757 0.49388 0.29632 0.0
C982 C 0.78862 0.48743 0.31288 0.0
C983 C 0.78849 0.4719 0.34086 0.0
H984 H 0.55676 0.82352 0.55357 0.0
H985 H 0.51367 0.79408 0.63121 0.0
H986 H 0.53034 0.82162 0.50337 0.0
H987 H 0.4872 0.79233 0.58112 0.0
H988 H 0.44002 0.82161 0.49311 0.0
H989 H 0.46641 0.82056 0.54346 0.0
H990 H 0.51057 0.7926 0.46602 0.0
H991 H 0.48416 0.7935 0.41578 0.0
C992 C 0.54166 0.81659 0.55979 0.0
C993 C 0.53724 0.80891 0.59617 0.0
C994 C 0.52662 0.8154 0.5311 0.0
C995 C 0.50676 0.80685 0.53846 0.0
C996 C 0.50237 0.79909 0.57479 0.0
C997 C 0.51753 0.79995 0.6033 0.0
C998 C 0.45533 0.81513 0.487 0.0
C999 C 0.46007 0.8076 0.45065 0.0
C1000 C 0.47036 0.81443 0.51578 0.0
C1001 C 0.4905 0.80653 0.50853 0.0
C1002 C 0.49519 0.79886 0.47226 0.0
C1003 C 0.48006 0.79923 0.44367 0.0
H1004 H 0.14815 0.53524 0.82945 0.0
H1005 H 0.21536 0.53599 0.84332 0.0
H1006 H 0.15153 0.50926 0.77942 0.0
H1007 H 0.21877 0.50985 0.79314 0.0
H1008 H 0.21574 0.4796 0.67378 0.0
H1009 H 0.21406 0.50523 0.72493 0.0
H1010 H 0.16093 0.47261 0.77239 0.0
H1011 H 0.16209 0.44751 0.72055 0.0
C1012 C 0.16366 0.52977 0.82192 0.0
C1013 C 0.18148 0.53759 0.8405 0.0
C1014 C 0.16559 0.51482 0.79332 0.0
C1015 C 0.18541 0.5073 0.78256 0.0
C1016 C 0.20329 0.51543 0.80058 0.0
C1017 C 0.20135 0.53043 0.82925 0.0
C1018 C 0.2037 0.47791 0.69516 0.0
C1019 C 0.18898 0.46157 0.69297 0.0
C1020 C 0.20286 0.49249 0.72465 0.0
C1021 C 0.18725 0.49108 0.75256 0.0
C1022 C 0.17295 0.47435 0.751 0.0
C1023 C 0.1738 0.45978 0.72156 0.0
loop_
_geom_bond_atom_site_label_1
_geom_bond_atom_site_label_2
_geom_bond_distance
_geom_bond_site_symmetry_2
_ccdc_geom_bond_type
Li0 N17 1.990 . S
Li0 O60 1.956 . S
Li0 O61 1.970 . S
Li0 O62 1.961 . S
Li1 N25 1.990 . S
Li1 O60 1.970 . S
Li1 O61 1.956 . S
Li1 O63 1.961 . S
Li2 N47 1.990 . S
Li2 O60 1.961 . S
Li2 O62 1.956 . S
Li2 O63 1.970 . S
Li3 N53 1.990 . S
Li3 O61 1.961 . S
Li3 O62 1.970 . S
Li3 O63 1.956 . S
C4 C6 1.348 . S
C4 C7 1.356 . S
C4 O60 1.325 . S
N5 C8 1.314 . S
N5 C9 1.279 . S
C6 C4 1.348 . S
C6 C8 1.353 . S
C6 H64 0.929 . S
C7 C4 1.356 . S
C7 C9 1.358 . S
C7 H65 0.930 . S
C8 N5 1.314 . S
C8 C6 1.353 . S
C8 H66 0.930 . S
C9 N5 1.279 . S
C9 C7 1.358 . S
C9 H67 0.930 . S
C10 C13 1.348 . S
C10 C14 1.356 . S
C10 O61 1.325 . S
C11 N12 1.279 . S
C11 C14 1.358 . S
C11 H68 0.930 . S
N12 C11 1.279 . S
N12 C15 1.314 . S
C13 C10 1.348 . S
C13 C15 1.353 . S
C13 H69 0.929 . S
C14 C10 1.356 . S
C14 C11 1.358 . S
C14 H70 0.930 . S
C15 N12 1.314 . S
C15 C13 1.353 . S
C15 H71 0.930 . S
C16 N17 1.314 . S
C16 C21 1.353 . S
C16 H22 0.930 . S
N17 Li0 1.990 . S
N17 C16 1.314 . S
N17 C19 1.279 . S
C18 C19 1.358 . S
C18 C20 1.356 . S
C18 H72 0.930 . S
C19 N17 1.279 . S
C19 C18 1.358 . S
C19 H23 0.930 . S
C20 C18 1.356 . S
C20 C21 1.348 . S
C21 C16 1.353 . S
C21 C20 1.348 . S
C21 H73 0.929 . S
H22 C16 0.930 . S
H23 C19 0.930 . S
C24 N25 1.314 . S
C24 C26 1.353 . S
C24 H30 0.930 . S
N25 Li1 1.990 . S
N25 C24 1.314 . S
N25 C28 1.279 . S
C26 C24 1.353 . S
C26 C29 1.348 . S
C26 H74 0.929 . S
C27 C28 1.358 . S
C27 C29 1.356 . S
C27 H75 0.930 . S
C28 N25 1.279 . S
C28 C27 1.358 . S
C28 H31 0.930 . S
C29 C26 1.348 . S
C29 C27 1.356 . S
H30 C24 0.930 . S
H31 C28 0.930 . S
C32 C34 1.348 . S
C32 C35 1.356 . S
C32 O62 1.325 . S
N33 C36 1.314 . S
N33 C37 1.279 . S
C34 C32 1.348 . S
C34 C36 1.353 . S
C34 H76 0.929 . S
C35 C32 1.356 . S
C35 C37 1.358 . S
C35 H77 0.930 . S
C36 N33 1.314 . S
C36 C34 1.353 . S
C36 H78 0.930 . S
C37 N33 1.279 . S
C37 C35 1.358 . S
C37 H79 0.930 . S
C38 C39 1.348 . S
C38 C40 1.356 . S
C38 O63 1.325 . S
C39 C38 1.348 . S
C39 C41 1.353 . S
C39 H80 0.929 . S
C40 C38 1.356 . S
C40 C42 1.358 . S
C40 H81 0.930 . S
C41 C39 1.353 . S
C41 N43 1.314 . S
C41 H82 0.930 . S
C42 C40 1.358 . S
C42 N43 1.279 . S
C42 H83 0.930 . S
N43 C41 1.314 . S
N43 C42 1.279 . S
C44 C46 1.353 . S
C44 N47 1.314 . S
C44 H50 0.930 . S
C45 N47 1.279 . S
C45 C48 1.358 . S
C45 H51 0.930 . S
C46 C44 1.353 . S
C46 C49 1.348 . S
C46 H84 0.929 . S
N47 Li2 1.990 . S
N47 C44 1.314 . S
N47 C45 1.279 . S
C48 C45 1.358 . S
C48 C49 1.356 . S
C48 H85 0.930 . S
C49 C46 1.348 . S
C49 C48 1.356 . S
H50 C44 0.930 . S
H51 C45 0.930 . S
C52 N53 1.314 . S
C52 C54 1.353 . S
C52 H58 0.930 . S
N53 Li3 1.990 . S
N53 C52 1.314 . S
N53 C56 1.279 . S
C54 C52 1.353 . S
C54 C57 1.348 . S
C54 H86 0.929 . S
C55 C56 1.358 . S
C55 C57 1.356 . S
C55 H87 0.930 . S
C56 N53 1.279 . S
C56 C55 1.358 . S
C56 H59 0.930 . S
C57 C54 1.348 . S
C57 C55 1.356 . S
H58 C52 0.930 . S
H59 C56 0.930 . S
O60 Li0 1.956 . S
O60 Li1 1.970 . S
O60 Li2 1.961 . S
O60 C4 1.325 . S
O61 Li0 1.970 . S
O61 Li1 1.956 . S
O61 Li3 1.961 . S
O61 C10 1.325 . S
O62 Li0 1.961 . S
O62 Li2 1.956 . S
O62 Li3 1.970 . S
O62 C32 1.325 . S
O63 Li1 1.961 . S
O63 Li2 1.970 . S
O63 Li3 1.956 . S
O63 C38 1.325 . S
H64 C6 0.929 . S
H65 C7 0.930 . S
H66 C8 0.930 . S
H67 C9 0.930 . S
H68 C11 0.930 . S
H69 C13 0.929 . S
H70 C14 0.930 . S
H71 C15 0.930 . S
H72 C18 0.930 . S
H73 C21 0.929 . S
H74 C26 0.929 . S
H75 C27 0.930 . S
H76 C34 0.929 . S
H77 C35 0.930 . S
H78 C36 0.930 . S
H79 C37 0.930 . S
H80 C39 0.929 . S
H81 C40 0.930 . S
H82 C41 0.930 . S
H83 C42 0.930 . S
H84 C46 0.929 . S
H85 C48 0.930 . S
H86 C54 0.929 . S
H87 C55 0.930 . S
Li88 N105 1.990 . S
Li88 O148 1.956 . S
Li88 O149 1.970 . S
Li88 O150 1.961 . S
Li89 N113 1.990 . S
Li89 O148 1.970 . S
Li89 O149 1.956 . S
Li89 O151 1.961 . S
Li90 N135 1.990 . S
Li90 O148 1.961 . S
Li90 O150 1.956 . S
Li90 O151 1.970 . S
Li91 N141 1.990 . S
Li91 O149 1.961 . S
Li91 O150 1.970 . S
Li91 O151 1.956 . S
C92 C94 1.348 . S
C92 C95 1.356 . S
C92 O148 1.325 . S
N93 C96 1.314 . S
N93 C97 1.279 . S
C94 C92 1.348 . S
C94 C96 1.353 . S
C94 H152 0.929 . S
C95 C92 1.356 . S
C95 C97 1.358 . S
C95 H153 0.930 . S
C96 N93 1.314 . S
C96 C94 1.353 . S
C96 H154 0.930 . S
C97 N93 1.279 . S
C97 C95 1.358 . S
C97 H155 0.930 . S
C98 C101 1.348 . S
C98 C102 1.356 . S
C98 O149 1.325 . S
C99 N100 1.279 . S
C99 C102 1.358 . S
C99 H156 0.930 . S
N100 C99 1.279 . S
N100 C103 1.314 . S
C101 C98 1.348 . S
C101 C103 1.353 . S
C101 H157 0.929 . S
C102 C98 1.356 . S
C102 C99 1.358 . S
C102 H158 0.930 . S
C103 N100 1.314 . S
C103 C101 1.353 . S
C103 H159 0.930 . S
C104 N105 1.314 . S
C104 C109 1.353 . S
C104 H110 0.930 . S
N105 Li88 1.990 . S
N105 C104 1.314 . S
N105 C107 1.279 . S
C106 C107 1.358 . S
C106 C108 1.356 . S
C106 H160 0.930 . S
C107 N105 1.279 . S
C107 C106 1.358 . S
C107 H111 0.930 . S
C108 C106 1.356 . S
C108 C109 1.348 . S
C109 C104 1.353 . S
C109 C108 1.348 . S
C109 H161 0.929 . S
H110 C104 0.930 . S
H111 C107 0.930 . S
C112 N113 1.314 . S
C112 C114 1.353 . S
C112 H118 0.930 . S
N113 Li89 1.990 . S
N113 C112 1.314 . S
N113 C116 1.279 . S
C114 C112 1.353 . S
C114 C117 1.348 . S
C114 H162 0.929 . S
C115 C116 1.358 . S
C115 C117 1.356 . S
C115 H163 0.930 . S
C116 N113 1.279 . S
C116 C115 1.358 . S
C116 H119 0.930 . S
C117 C114 1.348 . S
C117 C115 1.356 . S
H118 C112 0.930 . S
H119 C116 0.930 . S
C120 C122 1.348 . S
C120 C123 1.356 . S
C120 O150 1.325 . S
N121 C124 1.314 . S
N121 C125 1.279 . S
C122 C120 1.348 . S
C122 C124 1.353 . S
C122 H164 0.929 . S
C123 C120 1.356 . S
C123 C125 1.358 . S
C123 H165 0.930 . S
C124 N121 1.314 . S
C124 C122 1.353 . S
C124 H166 0.930 . S
C125 N121 1.279 . S
C125 C123 1.358 . S
C125 H167 0.930 . S
C126 C127 1.348 . S
C126 C128 1.356 . S
C126 O151 1.325 . S
C127 C126 1.348 . S
C127 C129 1.353 . S
C127 H168 0.929 . S
C128 C126 1.356 . S
C128 C130 1.358 . S
C128 H169 0.930 . S
C129 C127 1.353 . S
C129 N131 1.314 . S
C129 H170 0.930 . S
C130 C128 1.358 . S
C130 N131 1.279 . S
C130 H171 0.930 . S
N131 C129 1.314 . S
N131 C130 1.279 . S
C132 C134 1.353 . S
C132 N135 1.314 . S
C132 H138 0.930 . S
C133 N135 1.279 . S
C133 C136 1.358 . S
C133 H139 0.930 . S
C134 C132 1.353 . S
C134 C137 1.348 . S
C134 H172 0.929 . S
N135 Li90 1.990 . S
N135 C132 1.314 . S
N135 C133 1.279 . S
C136 C133 1.358 . S
C136 C137 1.356 . S
C136 H173 0.930 . S
C137 C134 1.348 . S
C137 C136 1.356 . S
H138 C132 0.930 . S
H139 C133 0.930 . S
C140 N141 1.314 . S
C140 C142 1.353 . S
C140 H146 0.930 . S
N141 Li91 1.990 . S
N141 C140 1.314 . S
N141 C144 1.279 . S
C142 C140 1.353 . S
C142 C145 1.348 . S
C142 H174 0.929 . S
C143 C144 1.358 . S
C143 C145 1.356 . S
C143 H175 0.930 . S
C144 N141 1.279 . S
C144 C143 1.358 . S
C144 H147 0.930 . S
C145 C142 1.348 . S
C145 C143 1.356 . S
H146 C140 0.930 . S
H147 C144 0.930 . S
O148 Li88 1.956 . S
O148 Li89 1.970 . S
O148 Li90 1.961 . S
O148 C92 1.325 . S
O149 Li88 1.970 . S
O149 Li89 1.956 . S
O149 Li91 1.961 . S
O149 C98 1.325 . S
O150 Li88 1.961 . S
O150 Li90 1.956 . S
O150 Li91 1.970 . S
O150 C120 1.325 . S
O151 Li89 1.961 . S
O151 Li90 1.970 . S
O151 Li91 1.956 . S
O151 C126 1.325 . S
H152 C94 0.929 . S
H153 C95 0.930 . S
H154 C96 0.930 . S
H155 C97 0.930 . S
H156 C99 0.930 . S
H157 C101 0.929 . S
H158 C102 0.930 . S
H159 C103 0.930 . S
H160 C106 0.930 . S
H161 C109 0.929 . S
H162 C114 0.929 . S
H163 C115 0.930 . S
H164 C122 0.929 . S
H165 C123 0.930 . S
H166 C124 0.930 . S
H167 C125 0.930 . S
H168 C127 0.929 . S
H169 C128 0.930 . S
H170 C129 0.930 . S
H171 C130 0.930 . S
H172 C134 0.929 . S
H173 C136 0.930 . S
H174 C142 0.929 . S
H175 C143 0.930 . S
Li176 N193 1.990 . S
Li176 O236 1.956 . S
Li176 O237 1.970 . S
Li176 O238 1.961 . S
Li177 N201 1.990 . S
Li177 O236 1.970 . S
Li177 O237 1.956 . S
Li177 O239 1.961 . S
Li178 N223 1.990 . S
Li178 O236 1.961 . S
Li178 O238 1.956 . S
Li178 O239 1.970 . S
Li179 N229 1.990 . S
Li179 O237 1.961 . S
Li179 O238 1.970 . S
Li179 O239 1.956 . S
C180 C182 1.348 . S
C180 C183 1.356 . S
C180 O236 1.325 . S
N181 C184 1.314 . S
N181 C185 1.279 . S
C182 C180 1.348 . S
C182 C184 1.353 . S
C182 H240 0.929 . S
C183 C180 1.356 . S
C183 C185 1.358 . S
C183 H241 0.930 . S
C184 N181 1.314 . S
C184 C182 1.353 . S
C184 H242 0.930 . S
C185 N181 1.279 . S
C185 C183 1.358 . S
C185 H243 0.930 . S
C186 C189 1.348 . S
C186 C190 1.356 . S
C186 O237 1.325 . S
C187 N188 1.279 . S
C187 C190 1.358 . S
C187 H244 0.930 . S
N188 C187 1.279 . S
N188 C191 1.314 . S
C189 C186 1.348 . S
C189 C191 1.353 . S
C189 H245 0.929 . S
C190 C186 1.356 . S
C190 C187 1.358 . S
C190 H246 0.930 . S
C191 N188 1.314 . S
C191 C189 1.353 . S
C191 H247 0.930 . S
C192 N193 1.314 . S
C192 C197 1.353 . S
C192 H198 0.930 . S
N193 Li176 1.990 . S
N193 C192 1.314 . S
N193 C195 1.279 . S
C194 C195 1.358 . S
C194 C196 1.356 . S
C194 H248 0.930 . S
C195 N193 1.279 . S
C195 C194 1.358 . S
C195 H199 0.930 . S
C196 C194 1.356 . S
C196 C197 1.348 . S
C197 C192 1.353 . S
C197 C196 1.348 . S
C197 H249 0.929 . S
H198 C192 0.930 . S
H199 C195 0.930 . S
C200 N201 1.314 . S
C200 C202 1.353 . S
C200 H206 0.930 . S
N201 Li177 1.990 . S
N201 C200 1.314 . S
N201 C204 1.279 . S
C202 C200 1.353 . S
C202 C205 1.348 . S
C202 H250 0.929 . S
C203 C204 1.358 . S
C203 C205 1.356 . S
C203 H251 0.930 . S
C204 N201 1.279 . S
C204 C203 1.358 . S
C204 H207 0.930 . S
C205 C202 1.348 . S
C205 C203 1.356 . S
H206 C200 0.930 . S
H207 C204 0.930 . S
C208 C210 1.348 . S
C208 C211 1.356 . S
C208 O238 1.325 . S
N209 C212 1.314 . S
N209 C213 1.279 . S
C210 C208 1.348 . S
C210 C212 1.353 . S
C210 H252 0.929 . S
C211 C208 1.356 . S
C211 C213 1.358 . S
C211 H253 0.930 . S
C212 N209 1.314 . S
C212 C210 1.353 . S
C212 H254 0.930 . S
C213 N209 1.279 . S
C213 C211 1.358 . S
C213 H255 0.930 . S
C214 C215 1.348 . S
C214 C216 1.356 . S
C214 O239 1.325 . S
C215 C214 1.348 . S
C215 C217 1.353 . S
C215 H256 0.929 . S
C216 C214 1.356 . S
C216 C218 1.358 . S
C216 H257 0.930 . S
C217 C215 1.353 . S
C217 N219 1.314 . S
C217 H258 0.930 . S
C218 C216 1.358 . S
C218 N219 1.279 . S
C218 H259 0.930 . S
N219 C217 1.314 . S
N219 C218 1.279 . S
C220 C222 1.353 . S
C220 N223 1.314 . S
C220 H226 0.930 . S
C221 N223 1.279 . S
C221 C224 1.358 . S
C221 H227 0.930 . S
C222 C220 1.353 . S
C222 C225 1.348 . S
C222 H260 0.929 . S
N223 Li178 1.990 . S
N223 C220 1.314 . S
N223 C221 1.279 . S
C224 C221 1.358 . S
C224 C225 1.356 . S
C224 H261 0.930 . S
C225 C222 1.348 . S
C225 C224 1.356 . S
H226 C220 0.930 . S
H227 C221 0.930 . S
C228 N229 1.314 . S
C228 C230 1.353 . S
C228 H234 0.930 . S
N229 Li179 1.990 . S
N229 C228 1.314 . S
N229 C232 1.279 . S
C230 C228 1.353 . S
C230 C233 1.348 . S
C230 H262 0.929 . S
C231 C232 1.358 . S
C231 C233 1.356 . S
C231 H263 0.930 . S
C232 N229 1.279 . S
C232 C231 1.358 . S
C232 H235 0.930 . S
C233 C230 1.348 . S
C233 C231 1.356 . S
H234 C228 0.930 . S
H235 C232 0.930 . S
O236 Li176 1.956 . S
O236 Li177 1.970 . S
O236 Li178 1.961 . S
O236 C180 1.325 . S
O237 Li176 1.970 . S
O237 Li177 1.956 . S
O237 Li179 1.961 . S
O237 C186 1.325 . S
O238 Li176 1.961 . S
O238 Li178 1.956 . S
O238 Li179 1.970 . S
O238 C208 1.325 . S
O239 Li177 1.961 . S
O239 Li178 1.970 . S
O239 Li179 1.956 . S
O239 C214 1.325 . S
H240 C182 0.929 . S
H241 C183 0.930 . S
H242 C184 0.930 . S
H243 C185 0.930 . S
H244 C187 0.930 . S
H245 C189 0.929 . S
H246 C190 0.930 . S
H247 C191 0.930 . S
H248 C194 0.930 . S
H249 C197 0.929 . S
H250 C202 0.929 . S
H251 C203 0.930 . S
H252 C210 0.929 . S
H253 C211 0.930 . S
H254 C212 0.930 . S
H255 C213 0.930 . S
H256 C215 0.929 . S
H257 C216 0.930 . S
H258 C217 0.930 . S
H259 C218 0.930 . S
H260 C222 0.929 . S
H261 C224 0.930 . S
H262 C230 0.929 . S
H263 C231 0.930 . S
Li264 N281 1.990 . S
Li264 O324 1.956 . S
Li264 O325 1.970 . S
Li264 O326 1.961 1_554 S
Li265 N289 1.990 . S
Li265 O324 1.970 . S
Li265 O325 1.956 . S
Li265 O327 1.961 . S
Li266 N311 1.990 . S
Li266 O324 1.961 . S
Li266 O326 1.956 1_554 S
Li266 O327 1.970 . S
Li267 N317 1.990 . S
Li267 O325 1.961 1_556 S
Li267 O326 1.970 . S
Li267 O327 1.956 1_556 S
C268 C270 1.348 . S
C268 C271 1.356 . S
C268 O324 1.325 . S
N269 C272 1.314 . S
N269 C273 1.279 . S
C270 C268 1.348 . S
C270 C272 1.353 . S
C270 H328 0.929 . S
C271 C268 1.356 . S
C271 C273 1.358 . S
C271 H329 0.930 . S
C272 N269 1.314 . S
C272 C270 1.353 . S
C272 H330 0.930 . S
C273 N269 1.279 . S
C273 C271 1.358 . S
C273 H331 0.930 . S
C274 C277 1.348 . S
C274 C278 1.356 . S
C274 O325 1.325 . S
C275 N276 1.279 . S
C275 C278 1.358 . S
C275 H332 0.929 1_554 S
N276 C275 1.279 . S
N276 C279 1.314 . S
C277 C274 1.348 . S
C277 C279 1.353 . S
C277 H333 0.929 . S
C278 C274 1.356 . S
C278 C275 1.358 . S
C278 H334 0.930 . S
C279 N276 1.314 . S
C279 C277 1.353 . S
C279 H335 0.930 . S
C280 N281 1.314 1_556 S
C280 C285 1.353 . S
C280 H286 0.930 . S
N281 Li264 1.990 . S
N281 C280 1.314 1_554 S
N281 C283 1.279 . S
C282 C283 1.358 . S
C282 C284 1.356 . S
C282 H336 0.930 . S
C283 N281 1.279 . S
C283 C282 1.358 . S
C283 H287 0.930 . S
C284 C282 1.356 . S
C284 C285 1.348 1_554 S
C285 C280 1.353 . S
C285 C284 1.348 1_556 S
C285 H337 0.929 . S
H286 C280 0.930 . S
H287 C283 0.930 . S
C288 N289 1.314 . S
C288 C290 1.353 . S
C288 H294 0.930 . S
N289 Li265 1.990 . S
N289 C288 1.314 . S
N289 C292 1.279 . S
C290 C288 1.353 . S
C290 C293 1.348 . S
C290 H338 0.929 . S
C291 C292 1.358 . S
C291 C293 1.356 . S
C291 H339 0.930 . S
C292 N289 1.279 . S
C292 C291 1.358 . S
C292 H295 0.930 . S
C293 C290 1.348 . S
C293 C291 1.356 . S
H294 C288 0.930 . S
H295 C292 0.930 . S
C296 C298 1.348 . S
C296 C299 1.356 . S
C296 O326 1.325 . S
N297 C300 1.314 . S
N297 C301 1.279 . S
C298 C296 1.348 . S
C298 C300 1.353 . S
C298 H340 0.929 . S
C299 C296 1.356 . S
C299 C301 1.358 . S
C299 H341 0.930 . S
C300 N297 1.314 . S
C300 C298 1.353 . S
C300 H342 0.930 . S
C301 N297 1.279 . S
C301 C299 1.358 . S
C301 H343 0.930 . S
C302 C303 1.348 . S
C302 C304 1.356 . S
C302 O327 1.325 . S
C303 C302 1.348 . S
C303 C305 1.353 . S
C303 H344 0.929 . S
C304 C302 1.356 . S
C304 C306 1.358 . S
C304 H345 0.930 . S
C305 C303 1.353 . S
C305 N307 1.314 . S
C305 H346 0.930 . S
C306 C304 1.358 . S
C306 N307 1.279 . S
C306 H347 0.930 . S
N307 C305 1.314 . S
N307 C306 1.279 . S
C308 C310 1.353 . S
C308 N311 1.314 . S
C308 H314 0.930 . S
C309 N311 1.279 . S
C309 C312 1.358 . S
C309 H315 0.930 1_554 S
C310 C308 1.353 . S
C310 C313 1.348 . S
C310 H348 0.929 . S
N311 Li266 1.990 . S
N311 C308 1.314 . S
N311 C309 1.279 . S
C312 C309 1.358 . S
C312 C313 1.356 . S
C312 H349 0.930 . S
C313 C310 1.348 . S
C313 C312 1.356 . S
H314 C308 0.930 . S
H315 C309 0.930 1_556 S
C316 N317 1.314 . S
C316 C318 1.353 . S
C316 H322 0.930 . S
N317 Li267 1.990 . S
N317 C316 1.314 . S
N317 C320 1.279 . S
C318 C316 1.353 . S
C318 C321 1.348 . S
C318 H350 0.929 . S
C319 C320 1.358 . S
C319 C321 1.356 . S
C319 H351 0.930 . S
C320 N317 1.279 . S
C320 C319 1.358 . S
C320 H323 0.930 . S
C321 C318 1.348 . S
C321 C319 1.356 . S
H322 C316 0.930 . S
H323 C320 0.930 . S
O324 Li264 1.956 . S
O324 Li265 1.970 . S
O324 Li266 1.961 . S
O324 C268 1.325 . S
O325 Li264 1.970 . S
O325 Li265 1.956 . S
O325 Li267 1.961 1_554 S
O325 C274 1.325 . S
O326 Li264 1.961 1_556 S
O326 Li266 1.956 1_556 S
O326 Li267 1.970 . S
O326 C296 1.325 . S
O327 Li265 1.961 . S
O327 Li266 1.970 . S
O327 Li267 1.956 1_554 S
O327 C302 1.325 . S
H328 C270 0.929 . S
H329 C271 0.930 . S
H330 C272 0.930 . S
H331 C273 0.930 . S
H332 C275 0.929 1_556 S
H333 C277 0.929 . S
H334 C278 0.930 . S
H335 C279 0.930 . S
H336 C282 0.930 . S
H337 C285 0.929 . S
H338 C290 0.929 . S
H339 C291 0.930 . S
H340 C298 0.929 . S
H341 C299 0.930 . S
H342 C300 0.930 . S
H343 C301 0.930 . S
H344 C303 0.929 . S
H345 C304 0.930 . S
H346 C305 0.930 . S
H347 C306 0.930 . S
H348 C310 0.929 . S
H349 C312 0.930 . S
H350 C318 0.929 . S
H351 C319 0.930 . S
Li352 N369 1.990 . S
Li352 O412 1.956 . S
Li352 O413 1.970 . S
Li352 O414 1.961 . S
Li353 N377 1.990 . S
Li353 O412 1.970 . S
Li353 O413 1.956 . S
Li353 O415 1.961 . S
Li354 N399 1.990 . S
Li354 O412 1.961 . S
Li354 O414 1.956 . S
Li354 O415 1.970 . S
Li355 N405 1.990 . S
Li355 O413 1.961 . S
Li355 O414 1.970 . S
Li355 O415 1.956 . S
C356 C358 1.348 . S
C356 C359 1.356 . S
C356 O412 1.325 . S
N357 C360 1.314 . S
N357 C361 1.279 . S
C358 C356 1.348 . S
C358 C360 1.353 . S
C358 H416 0.929 . S
C359 C356 1.356 . S
C359 C361 1.358 . S
C359 H417 0.930 . S
C360 N357 1.314 . S
C360 C358 1.353 . S
C360 H418 0.930 . S
C361 N357 1.279 . S
C361 C359 1.358 . S
C361 H419 0.930 . S
C362 C365 1.348 . S
C362 C366 1.356 . S
C362 O413 1.325 . S
C363 N364 1.279 . S
C363 C366 1.358 . S
C363 H420 0.930 . S
N364 C363 1.279 . S
N364 C367 1.314 . S
C365 C362 1.348 . S
C365 C367 1.353 . S
C365 H421 0.929 . S
C366 C362 1.356 . S
C366 C363 1.358 . S
C366 H422 0.930 . S
C367 N364 1.314 . S
C367 C365 1.353 . S
C367 H423 0.930 . S
C368 N369 1.314 . S
C368 C373 1.353 . S
C368 H374 0.930 . S
N369 Li352 1.990 . S
N369 C368 1.314 . S
N369 C371 1.279 . S
C370 C371 1.358 . S
C370 C372 1.356 . S
C370 H424 0.930 . S
C371 N369 1.279 . S
C371 C370 1.358 . S
C371 H375 0.930 . S
C372 C370 1.356 . S
C372 C373 1.348 . S
C373 C368 1.353 . S
C373 C372 1.348 . S
C373 H425 0.929 . S
H374 C368 0.930 . S
H375 C371 0.930 . S
C376 N377 1.314 . S
C376 C378 1.353 . S
C376 H382 0.930 . S
N377 Li353 1.990 . S
N377 C376 1.314 . S
N377 C380 1.279 . S
C378 C376 1.353 . S
C378 C381 1.348 . S
C378 H426 0.929 . S
C379 C380 1.358 . S
C379 C381 1.356 . S
C379 H427 0.930 . S
C380 N377 1.279 . S
C380 C379 1.358 . S
C380 H383 0.930 . S
C381 C378 1.348 . S
C381 C379 1.356 . S
H382 C376 0.930 . S
H383 C380 0.930 . S
C384 C386 1.348 . S
C384 C387 1.356 . S
C384 O414 1.325 . S
N385 C388 1.314 . S
N385 C389 1.279 . S
C386 C384 1.348 . S
C386 C388 1.353 . S
C386 H428 0.929 . S
C387 C384 1.356 . S
C387 C389 1.358 . S
C387 H429 0.930 . S
C388 N385 1.314 . S
C388 C386 1.353 . S
C388 H430 0.930 . S
C389 N385 1.279 . S
C389 C387 1.358 . S
C389 H431 0.930 . S
C390 C391 1.348 . S
C390 C392 1.356 . S
C390 O415 1.325 . S
C391 C390 1.348 . S
C391 C393 1.353 . S
C391 H432 0.929 . S
C392 C390 1.356 . S
C392 C394 1.358 . S
C392 H433 0.930 . S
C393 C391 1.353 . S
C393 N395 1.314 . S
C393 H434 0.930 . S
C394 C392 1.358 . S
C394 N395 1.279 . S
C394 H435 0.930 . S
N395 C393 1.314 . S
N395 C394 1.279 . S
C396 C398 1.353 . S
C396 N399 1.314 . S
C396 H402 0.930 . S
C397 N399 1.279 . S
C397 C400 1.358 . S
C397 H403 0.930 . S
C398 C396 1.353 . S
C398 C401 1.348 . S
C398 H436 0.929 . S
N399 Li354 1.990 . S
N399 C396 1.314 . S
N399 C397 1.279 . S
C400 C397 1.358 . S
C400 C401 1.356 . S
C400 H437 0.930 . S
C401 C398 1.348 . S
C401 C400 1.356 . S
H402 C396 0.930 . S
H403 C397 0.930 . S
C404 N405 1.314 . S
C404 C406 1.353 . S
C404 H410 0.930 . S
N405 Li355 1.990 . S
N405 C404 1.314 . S
N405 C408 1.279 . S
C406 C404 1.353 . S
C406 C409 1.348 . S
C406 H438 0.929 . S
C407 C408 1.358 . S
C407 C409 1.356 . S
C407 H439 0.930 . S
C408 N405 1.279 . S
C408 C407 1.358 . S
C408 H411 0.930 . S
C409 C406 1.348 . S
C409 C407 1.356 . S
H410 C404 0.930 . S
H411 C408 0.930 . S
O412 Li352 1.956 . S
O412 Li353 1.970 . S
O412 Li354 1.961 . S
O412 C356 1.325 . S
O413 Li352 1.970 . S
O413 Li353 1.956 . S
O413 Li355 1.961 . S
O413 C362 1.325 . S
O414 Li352 1.961 . S
O414 Li354 1.956 . S
O414 Li355 1.970 . S
O414 C384 1.325 . S
O415 Li353 1.961 . S
O415 Li354 1.970 . S
O415 Li355 1.956 . S
O415 C390 1.325 . S
H416 C358 0.929 . S
H417 C359 0.930 . S
H418 C360 0.930 . S
H419 C361 0.930 . S
H420 C363 0.930 . S
H421 C365 0.929 . S
H422 C366 0.930 . S
H423 C367 0.930 . S
H424 C370 0.930 . S
H425 C373 0.929 . S
H426 C378 0.929 . S
H427 C379 0.930 . S
H428 C386 0.929 . S
H429 C387 0.930 . S
H430 C388 0.930 . S
H431 C389 0.930 . S
H432 C391 0.929 . S
H433 C392 0.930 . S
H434 C393 0.930 . S
H435 C394 0.930 . S
H436 C398 0.929 . S
H437 C400 0.930 . S
H438 C406 0.929 . S
H439 C407 0.930 . S
Li440 N457 1.990 . S
Li440 O500 1.956 . S
Li440 O501 1.970 . S
Li440 O502 1.961 . S
Li441 N465 1.990 . S
Li441 O500 1.970 . S
Li441 O501 1.956 . S
Li441 O503 1.961 . S
Li442 N487 1.990 . S
Li442 O500 1.961 . S
Li442 O502 1.956 . S
Li442 O503 1.970 . S
Li443 N493 1.990 . S
Li443 O501 1.961 . S
Li443 O502 1.970 . S
Li443 O503 1.956 . S
C444 C446 1.348 . S
C444 C447 1.356 . S
C444 O500 1.325 . S
N445 C448 1.314 . S
N445 C449 1.279 . S
C446 C444 1.348 . S
C446 C448 1.353 . S
C446 H504 0.929 . S
C447 C444 1.356 . S
C447 C449 1.358 . S
C447 H505 0.930 . S
C448 N445 1.314 . S
C448 C446 1.353 . S
C448 H506 0.930 . S
C449 N445 1.279 . S
C449 C447 1.358 . S
C449 H507 0.930 . S
C450 C453 1.348 . S
C450 C454 1.356 . S
C450 O501 1.325 . S
C451 N452 1.279 . S
C451 C454 1.358 . S
C451 H508 0.930 . S
N452 C451 1.279 . S
N452 C455 1.314 . S
C453 C450 1.348 . S
C453 C455 1.353 . S
C453 H509 0.929 . S
C454 C450 1.356 . S
C454 C451 1.358 . S
C454 H510 0.930 . S
C455 N452 1.314 . S
C455 C453 1.353 . S
C455 H511 0.930 . S
C456 N457 1.314 . S
C456 C461 1.353 . S
C456 H462 0.930 . S
N457 Li440 1.990 . S
N457 C456 1.314 . S
N457 C459 1.279 . S
C458 C459 1.358 . S
C458 C460 1.356 . S
C458 H512 0.930 . S
C459 N457 1.279 . S
C459 C458 1.358 . S
C459 H463 0.930 . S
C460 C458 1.356 . S
C460 C461 1.348 . S
C461 C456 1.353 . S
C461 C460 1.348 . S
C461 H513 0.929 . S
H462 C456 0.930 . S
H463 C459 0.930 . S
C464 N465 1.314 . S
C464 C466 1.353 . S
C464 H470 0.930 . S
N465 Li441 1.990 . S
N465 C464 1.314 . S
N465 C468 1.279 . S
C466 C464 1.353 . S
C466 C469 1.348 . S
C466 H514 0.929 . S
C467 C468 1.358 . S
C467 C469 1.356 . S
C467 H515 0.930 . S
C468 N465 1.279 . S
C468 C467 1.358 . S
C468 H471 0.930 . S
C469 C466 1.348 . S
C469 C467 1.356 . S
H470 C464 0.930 . S
H471 C468 0.930 . S
C472 C474 1.348 . S
C472 C475 1.356 . S
C472 O502 1.325 . S
N473 C476 1.314 . S
N473 C477 1.279 . S
C474 C472 1.348 . S
C474 C476 1.353 . S
C474 H516 0.929 . S
C475 C472 1.356 . S
C475 C477 1.358 . S
C475 H517 0.930 . S
C476 N473 1.314 . S
C476 C474 1.353 . S
C476 H518 0.930 . S
C477 N473 1.279 . S
C477 C475 1.358 . S
C477 H519 0.930 . S
C478 C479 1.348 . S
C478 C480 1.356 . S
C478 O503 1.325 . S
C479 C478 1.348 . S
C479 C481 1.353 . S
C479 H520 0.929 . S
C480 C478 1.356 . S
C480 C482 1.358 . S
C480 H521 0.930 . S
C481 C479 1.353 . S
C481 N483 1.314 . S
C481 H522 0.930 . S
C482 C480 1.358 . S
C482 N483 1.279 . S
C482 H523 0.930 . S
N483 C481 1.314 . S
N483 C482 1.279 . S
C484 C486 1.353 . S
C484 N487 1.314 . S
C484 H490 0.930 . S
C485 N487 1.279 . S
C485 C488 1.358 . S
C485 H491 0.930 . S
C486 C484 1.353 . S
C486 C489 1.348 . S
C486 H524 0.929 . S
N487 Li442 1.990 . S
N487 C484 1.314 . S
N487 C485 1.279 . S
C488 C485 1.358 . S
C488 C489 1.356 . S
C488 H525 0.930 . S
C489 C486 1.348 . S
C489 C488 1.356 . S
H490 C484 0.930 . S
H491 C485 0.930 . S
C492 N493 1.314 . S
C492 C494 1.353 . S
C492 H498 0.930 . S
N493 Li443 1.990 . S
N493 C492 1.314 . S
N493 C496 1.279 . S
C494 C492 1.353 . S
C494 C497 1.348 . S
C494 H526 0.929 . S
C495 C496 1.358 . S
C495 C497 1.356 . S
C495 H527 0.930 . S
C496 N493 1.279 . S
C496 C495 1.358 . S
C496 H499 0.930 . S
C497 C494 1.348 . S
C497 C495 1.356 . S
H498 C492 0.930 . S
H499 C496 0.930 . S
O500 Li440 1.956 . S
O500 Li441 1.970 . S
O500 Li442 1.961 . S
O500 C444 1.325 . S
O501 Li440 1.970 . S
O501 Li441 1.956 . S
O501 Li443 1.961 . S
O501 C450 1.325 . S
O502 Li440 1.961 . S
O502 Li442 1.956 . S
O502 Li443 1.970 . S
O502 C472 1.325 . S
O503 Li441 1.961 . S
O503 Li442 1.970 . S
O503 Li443 1.956 . S
O503 C478 1.325 . S
H504 C446 0.929 . S
H505 C447 0.930 . S
H506 C448 0.930 . S
H507 C449 0.930 . S
H508 C451 0.930 . S
H509 C453 0.929 . S
H510 C454 0.930 . S
H511 C455 0.930 . S
H512 C458 0.930 . S
H513 C461 0.929 . S
H514 C466 0.929 . S
H515 C467 0.930 . S
H516 C474 0.929 . S
H517 C475 0.930 . S
H518 C476 0.930 . S
H519 C477 0.930 . S
H520 C479 0.929 . S
H521 C480 0.930 . S
H522 C481 0.930 . S
H523 C482 0.930 . S
H524 C486 0.929 . S
H525 C488 0.930 . S
H526 C494 0.929 . S
H527 C495 0.930 . S
Li528 N545 1.990 . S
Li528 O588 1.956 . S
Li528 O589 1.970 . S
Li528 O590 1.961 . S
Li529 N553 1.990 . S
Li529 O588 1.970 . S
Li529 O589 1.956 . S
Li529 O591 1.961 . S
Li530 N575 1.990 . S
Li530 O588 1.961 . S
Li530 O590 1.956 . S
Li530 O591 1.970 . S
Li531 N581 1.990 . S
Li531 O589 1.961 . S
Li531 O590 1.970 . S
Li531 O591 1.956 . S
C532 C534 1.348 . S
C532 C535 1.356 . S
C532 O588 1.325 . S
N533 C536 1.314 . S
N533 C537 1.279 . S
C534 C532 1.348 . S
C534 C536 1.353 . S
C534 H592 0.929 . S
C535 C532 1.356 . S
C535 C537 1.358 . S
C535 H593 0.930 . S
C536 N533 1.314 . S
C536 C534 1.353 . S
C536 H594 0.930 . S
C537 N533 1.279 . S
C537 C535 1.358 . S
C537 H595 0.930 . S
C538 C541 1.348 . S
C538 C542 1.356 . S
C538 O589 1.325 . S
C539 N540 1.279 . S
C539 C542 1.358 . S
C539 H596 0.930 . S
N540 C539 1.279 . S
N540 C543 1.314 . S
C541 C538 1.348 . S
C541 C543 1.353 . S
C541 H597 0.929 . S
C542 C538 1.356 . S
C542 C539 1.358 . S
C542 H598 0.930 . S
C543 N540 1.314 . S
C543 C541 1.353 . S
C543 H599 0.930 . S
C544 N545 1.314 . S
C544 C549 1.353 . S
C544 H550 0.930 . S
N545 Li528 1.990 . S
N545 C544 1.314 . S
N545 C547 1.279 . S
C546 C547 1.358 . S
C546 C548 1.356 . S
C546 H600 0.930 . S
C547 N545 1.279 . S
C547 C546 1.358 . S
C547 H551 0.930 . S
C548 C546 1.356 . S
C548 C549 1.348 . S
C549 C544 1.353 . S
C549 C548 1.348 . S
C549 H601 0.929 . S
H550 C544 0.930 . S
H551 C547 0.930 . S
C552 N553 1.314 . S
C552 C554 1.353 . S
C552 H558 0.930 . S
N553 Li529 1.990 . S
N553 C552 1.314 . S
N553 C556 1.279 . S
C554 C552 1.353 . S
C554 C557 1.348 . S
C554 H602 0.929 . S
C555 C556 1.358 . S
C555 C557 1.356 . S
C555 H603 0.930 . S
C556 N553 1.279 . S
C556 C555 1.358 . S
C556 H559 0.930 . S
C557 C554 1.348 . S
C557 C555 1.356 . S
H558 C552 0.930 . S
H559 C556 0.930 . S
C560 C562 1.348 . S
C560 C563 1.356 . S
C560 O590 1.325 . S
N561 C564 1.314 . S
N561 C565 1.279 . S
C562 C560 1.348 . S
C562 C564 1.353 . S
C562 H604 0.929 . S
C563 C560 1.356 . S
C563 C565 1.358 . S
C563 H605 0.930 . S
C564 N561 1.314 . S
C564 C562 1.353 . S
C564 H606 0.930 . S
C565 N561 1.279 . S
C565 C563 1.358 . S
C565 H607 0.930 . S
C566 C567 1.348 . S
C566 C568 1.356 . S
C566 O591 1.325 . S
C567 C566 1.348 . S
C567 C569 1.353 . S
C567 H608 0.929 . S
C568 C566 1.356 . S
C568 C570 1.358 . S
C568 H609 0.930 . S
C569 C567 1.353 . S
C569 N571 1.314 . S
C569 H610 0.930 . S
C570 C568 1.358 . S
C570 N571 1.279 . S
C570 H611 0.930 . S
N571 C569 1.314 . S
N571 C570 1.279 . S
C572 C574 1.353 . S
C572 N575 1.314 . S
C572 H578 0.930 . S
C573 N575 1.279 . S
C573 C576 1.358 . S
C573 H579 0.930 . S
C574 C572 1.353 . S
C574 C577 1.348 . S
C574 H612 0.929 . S
N575 Li530 1.990 . S
N575 C572 1.314 . S
N575 C573 1.279 . S
C576 C573 1.358 . S
C576 C577 1.356 . S
C576 H613 0.930 . S
C577 C574 1.348 . S
C577 C576 1.356 . S
H578 C572 0.930 . S
H579 C573 0.930 . S
C580 N581 1.314 . S
C580 C582 1.353 . S
C580 H586 0.930 . S
N581 Li531 1.990 . S
N581 C580 1.314 . S
N581 C584 1.279 . S
C582 C580 1.353 . S
C582 C585 1.348 . S
C582 H614 0.929 . S
C583 C584 1.358 . S
C583 C585 1.356 . S
C583 H615 0.930 . S
C584 N581 1.279 . S
C584 C583 1.358 . S
C584 H587 0.930 . S
C585 C582 1.348 . S
C585 C583 1.356 . S
H586 C580 0.930 . S
H587 C584 0.930 . S
O588 Li528 1.956 . S
O588 Li529 1.970 . S
O588 Li530 1.961 . S
O588 C532 1.325 . S
O589 Li528 1.970 . S
O589 Li529 1.956 . S
O589 Li531 1.961 . S
O589 C538 1.325 . S
O590 Li528 1.961 . S
O590 Li530 1.956 . S
O590 Li531 1.970 . S
O590 C560 1.325 . S
O591 Li529 1.961 . S
O591 Li530 1.970 . S
O591 Li531 1.956 . S
O591 C566 1.325 . S
H592 C534 0.929 . S
H593 C535 0.930 . S
H594 C536 0.930 . S
H595 C537 0.930 . S
H596 C539 0.930 . S
H597 C541 0.929 . S
H598 C542 0.930 . S
H599 C543 0.930 . S
H600 C546 0.930 . S
H601 C549 0.929 . S
H602 C554 0.929 . S
H603 C555 0.930 . S
H604 C562 0.929 . S
H605 C563 0.930 . S
H606 C564 0.930 . S
H607 C565 0.930 . S
H608 C567 0.929 . S
H609 C568 0.930 . S
H610 C569 0.930 . S
H611 C570 0.930 . S
H612 C574 0.929 . S
H613 C576 0.930 . S
H614 C582 0.929 . S
H615 C583 0.930 . S
Li616 N633 1.991 . S
Li616 O676 1.956 . S
Li616 O677 1.970 . S
Li616 O678 1.961 1_554 S
Li617 N641 1.990 . S
Li617 O676 1.970 . S
Li617 O677 1.956 . S
Li617 O679 1.961 . S
Li618 N663 1.990 . S
Li618 O676 1.961 . S
Li618 O678 1.956 1_554 S
Li618 O679 1.970 . S
Li619 N669 1.990 . S
Li619 O677 1.961 1_556 S
Li619 O678 1.970 . S
Li619 O679 1.956 1_556 S
C620 C622 1.348 . S
C620 C623 1.356 . S
C620 O676 1.325 . S
N621 C624 1.314 . S
N621 C625 1.279 . S
C622 C620 1.348 . S
C622 C624 1.353 . S
C622 H680 0.929 . S
C623 C620 1.356 . S
C623 C625 1.358 . S
C623 H681 0.930 . S
C624 N621 1.314 . S
C624 C622 1.353 . S
C624 H682 0.930 . S
C625 N621 1.279 . S
C625 C623 1.358 . S
C625 H683 0.930 . S
C626 C629 1.348 . S
C626 C630 1.356 . S
C626 O677 1.325 . S
C627 N628 1.279 . S
C627 C630 1.358 . S
C627 H684 0.931 . S
N628 C627 1.279 . S
N628 C631 1.314 . S
C629 C626 1.348 . S
C629 C631 1.353 . S
C629 H685 0.929 . S
C630 C626 1.356 . S
C630 C627 1.358 . S
C630 H686 0.930 . S
C631 N628 1.314 . S
C631 C629 1.353 . S
C631 H687 0.930 . S
C632 N633 1.310 1_556 S
C632 C637 1.353 . S
C632 H638 0.930 . S
N633 Li616 1.991 . S
N633 C632 1.310 1_554 S
N633 C635 1.282 . S
C634 C635 1.358 . S
C634 C636 1.356 1_554 S
C634 H688 0.930 . S
C635 N633 1.282 . S
C635 C634 1.358 . S
C635 H639 0.930 . S
C636 C634 1.356 1_556 S
C636 C637 1.348 . S
C637 C632 1.353 . S
C637 C636 1.348 . S
C637 H689 0.929 . S
H638 C632 0.930 . S
H639 C635 0.930 . S
C640 N641 1.314 . S
C640 C642 1.353 . S
C640 H646 0.930 . S
N641 Li617 1.990 . S
N641 C640 1.314 . S
N641 C644 1.279 . S
C642 C640 1.353 . S
C642 C645 1.348 . S
C642 H690 0.929 . S
C643 C644 1.358 . S
C643 C645 1.356 . S
C643 H691 0.930 . S
C644 N641 1.279 . S
C644 C643 1.358 . S
C644 H647 0.930 . S
C645 C642 1.348 . S
C645 C643 1.356 . S
H646 C640 0.930 . S
H647 C644 0.930 . S
C648 C650 1.348 . S
C648 C651 1.356 . S
C648 O678 1.325 . S
N649 C652 1.314 . S
N649 C653 1.279 . S
C650 C648 1.348 . S
C650 C652 1.353 . S
C650 H692 0.929 . S
C651 C648 1.356 . S
C651 C653 1.358 . S
C651 H693 0.930 . S
C652 N649 1.314 . S
C652 C650 1.353 . S
C652 H694 0.930 . S
C653 N649 1.279 . S
C653 C651 1.358 . S
C653 H695 0.930 . S
C654 C655 1.348 . S
C654 C656 1.356 . S
C654 O679 1.325 . S
C655 C654 1.348 . S
C655 C657 1.353 . S
C655 H696 0.929 . S
C656 C654 1.356 . S
C656 C658 1.358 . S
C656 H697 0.930 . S
C657 C655 1.353 . S
C657 N659 1.314 . S
C657 H698 0.930 . S
C658 C656 1.358 . S
C658 N659 1.279 . S
C658 H699 0.930 . S
N659 C657 1.314 . S
N659 C658 1.279 . S
C660 C662 1.353 . S
C660 N663 1.314 . S
C660 H666 0.930 . S
C661 N663 1.279 1_556 S
C661 C664 1.358 . S
C661 H667 0.930 . S
C662 C660 1.353 . S
C662 C665 1.348 . S
C662 H700 0.929 . S
N663 Li618 1.990 . S
N663 C660 1.314 . S
N663 C661 1.279 1_554 S
C664 C661 1.358 . S
C664 C665 1.356 1_556 S
C664 H701 0.930 . S
C665 C662 1.348 . S
C665 C664 1.356 1_554 S
H666 C660 0.930 . S
H667 C661 0.930 . S
C668 N669 1.314 . S
C668 C670 1.353 . S
C668 H674 0.930 . S
N669 Li619 1.990 . S
N669 C668 1.314 . S
N669 C672 1.279 . S
C670 C668 1.353 . S
C670 C673 1.348 . S
C670 H702 0.929 . S
C671 C672 1.358 . S
C671 C673 1.356 . S
C671 H703 0.930 . S
C672 N669 1.279 . S
C672 C671 1.358 . S
C672 H675 0.930 . S
C673 C670 1.348 . S
C673 C671 1.356 . S
H674 C668 0.930 . S
H675 C672 0.930 . S
O676 Li616 1.956 . S
O676 Li617 1.970 . S
O676 Li618 1.961 . S
O676 C620 1.325 . S
O677 Li616 1.970 . S
O677 Li617 1.956 . S
O677 Li619 1.961 1_554 S
O677 C626 1.325 . S
O678 Li616 1.961 1_556 S
O678 Li618 1.956 1_556 S
O678 Li619 1.970 . S
O678 C648 1.325 . S
O679 Li617 1.961 . S
O679 Li618 1.970 . S
O679 Li619 1.956 1_554 S
O679 C654 1.325 . S
H680 C622 0.929 . S
H681 C623 0.930 . S
H682 C624 0.930 . S
H683 C625 0.930 . S
H684 C627 0.931 . S
H685 C629 0.929 . S
H686 C630 0.930 . S
H687 C631 0.930 . S
H688 C634 0.930 . S
H689 C637 0.929 . S
H690 C642 0.929 . S
H691 C643 0.930 . S
H692 C650 0.929 . S
H693 C651 0.930 . S
H694 C652 0.930 . S
H695 C653 0.930 . S
H696 C655 0.929 . S
H697 C656 0.930 . S
H698 C657 0.930 . S
H699 C658 0.930 . S
H700 C662 0.929 . S
H701 C664 0.930 . S
H702 C670 0.929 . S
H703 C671 0.930 . S
H704 C712 0.950 . S
H705 C717 0.950 . S
H706 C714 0.950 . S
H707 C716 0.950 . S
H708 C718 0.950 . S
H709 C720 0.950 . S
H710 C722 0.950 . S
H711 C723 0.950 . S
C712 H704 0.950 . S
C712 C713 1.386 . S
C712 C714 1.391 . S
C713 C712 1.386 . S
C713 C717 1.393 . S
C714 H706 0.950 . S
C714 C712 1.391 . S
C714 C715 1.400 . S
C715 C714 1.400 . S
C715 C716 1.398 . S
C715 C721 1.491 . S
C716 H707 0.950 . S
C716 C715 1.398 . S
C716 C717 1.391 . S
C717 H705 0.950 . S
C717 C713 1.393 . S
C717 C716 1.391 . S
C718 H708 0.950 . S
C718 C719 1.386 . S
C718 C720 1.391 . S
C719 C718 1.386 . S
C719 C723 1.393 . S
C720 H709 0.950 . S
C720 C718 1.391 . S
C720 C721 1.400 . S
C721 C715 1.491 . S
C721 C720 1.400 . S
C721 C722 1.398 . S
C722 H710 0.950 . S
C722 C721 1.398 . S
C722 C723 1.391 . S
C723 H711 0.950 . S
C723 C719 1.393 . S
C723 C722 1.391 . S
H724 C732 0.950 . S
H725 C737 0.950 . S
H726 C734 0.950 . S
H727 C736 0.950 . S
H728 C738 0.950 . S
H729 C740 0.950 . S
H730 C742 0.950 . S
H731 C743 0.950 . S
C732 H724 0.950 . S
C732 C733 1.386 . S
C732 C734 1.391 . S
C733 C732 1.386 . S
C733 C737 1.393 . S
C734 H726 0.950 . S
C734 C732 1.391 . S
C734 C735 1.400 . S
C735 C734 1.400 . S
C735 C736 1.398 . S
C735 C741 1.491 . S
C736 H727 0.950 . S
C736 C735 1.398 . S
C736 C737 1.391 . S
C737 H725 0.950 . S
C737 C733 1.393 . S
C737 C736 1.391 . S
C738 H728 0.950 . S
C738 C739 1.386 . S
C738 C740 1.391 . S
C739 C738 1.386 . S
C739 C743 1.393 . S
C740 H729 0.950 . S
C740 C738 1.391 . S
C740 C741 1.400 . S
C741 C735 1.491 . S
C741 C740 1.400 . S
C741 C742 1.398 . S
C742 H730 0.950 . S
C742 C741 1.398 . S
C742 C743 1.391 . S
C743 H731 0.950 . S
C743 C739 1.393 . S
C743 C742 1.391 . S
H744 C752 0.950 . S
H745 C757 0.950 . S
H746 C754 0.950 . S
H747 C756 0.950 . S
H748 C758 0.950 . S
H749 C760 0.950 . S
H750 C762 0.950 . S
H751 C763 0.950 . S
C752 H744 0.950 . S
C752 C753 1.386 . S
C752 C754 1.391 . S
C753 C752 1.386 . S
C753 C757 1.393 . S
C754 H746 0.950 . S
C754 C752 1.391 . S
C754 C755 1.400 . S
C755 C754 1.400 . S
C755 C756 1.398 . S
C755 C761 1.491 . S
C756 H747 0.950 . S
C756 C755 1.398 . S
C756 C757 1.391 . S
C757 H745 0.950 . S
C757 C753 1.393 . S
C757 C756 1.391 . S
C758 H748 0.950 . S
C758 C759 1.386 . S
C758 C760 1.391 1_556 S
C759 C758 1.386 . S
C759 C763 1.393 . S
C760 H749 0.950 . S
C760 C758 1.391 1_554 S
C760 C761 1.400 . S
C761 C755 1.491 . S
C761 C760 1.400 . S
C761 C762 1.398 1_554 S
C762 H750 0.950 . S
C762 C761 1.398 1_556 S
C762 C763 1.391 . S
C763 H751 0.950 . S
C763 C759 1.393 . S
C763 C762 1.391 . S
H764 C772 0.950 . S
H765 C777 0.950 . S
H766 C774 0.950 . S
H767 C776 0.950 . S
H768 C778 0.950 . S
H769 C780 0.950 . S
H770 C782 0.950 . S
H771 C783 0.950 . S
C772 H764 0.950 . S
C772 C773 1.386 . S
C772 C774 1.391 . S
C773 C772 1.386 . S
C773 C777 1.393 . S
C774 H766 0.950 . S
C774 C772 1.391 . S
C774 C775 1.400 . S
C775 C774 1.400 . S
C775 C776 1.398 . S
C775 C781 1.491 . S
C776 H767 0.950 . S
C776 C775 1.398 . S
C776 C777 1.391 . S
C777 H765 0.950 . S
C777 C773 1.393 . S
C777 C776 1.391 . S
C778 H768 0.950 . S
C778 C779 1.386 . S
C778 C780 1.391 . S
C779 C778 1.386 . S
C779 C783 1.393 . S
C780 H769 0.950 . S
C780 C778 1.391 . S
C780 C781 1.400 . S
C781 C775 1.491 . S
C781 C780 1.400 . S
C781 C782 1.398 . S
C782 H770 0.950 . S
C782 C781 1.398 . S
C782 C783 1.391 . S
C783 H771 0.950 . S
C783 C779 1.393 . S
C783 C782 1.391 . S
H784 C792 0.950 . S
H785 C797 0.950 . S
H786 C794 0.950 . S
H787 C796 0.950 . S
H788 C798 0.950 . S
H789 C800 0.950 . S
H790 C802 0.950 . S
H791 C803 0.950 . S
C792 H784 0.950 . S
C792 C793 1.386 . S
C792 C794 1.391 . S
C793 C792 1.386 . S
C793 C797 1.393 . S
C794 H786 0.950 . S
C794 C792 1.391 . S
C794 C795 1.400 . S
C795 C794 1.400 . S
C795 C796 1.398 . S
C795 C801 1.491 . S
C796 H787 0.950 . S
C796 C795 1.398 . S
C796 C797 1.391 . S
C797 H785 0.950 . S
C797 C793 1.393 . S
C797 C796 1.391 . S
C798 H788 0.950 . S
C798 C799 1.386 . S
C798 C800 1.391 . S
C799 C798 1.386 . S
C799 C803 1.393 . S
C800 H789 0.950 . S
C800 C798 1.391 . S
C800 C801 1.400 . S
C801 C795 1.491 . S
C801 C800 1.400 . S
C801 C802 1.398 . S
C802 H790 0.950 . S
C802 C801 1.398 . S
C802 C803 1.391 . S
C803 H791 0.950 . S
C803 C799 1.393 . S
C803 C802 1.391 . S
H804 C812 0.950 . S
H805 C817 0.950 . S
H806 C814 0.950 . S
H807 C816 0.950 . S
H808 C818 0.950 . S
H809 C820 0.950 . S
H810 C822 0.950 . S
H811 C823 0.950 . S
C812 H804 0.950 . S
C812 C813 1.386 . S
C812 C814 1.391 . S
C813 C812 1.386 . S
C813 C817 1.393 . S
C814 H806 0.950 . S
C814 C812 1.391 . S
C814 C815 1.400 . S
C815 C814 1.400 . S
C815 C816 1.398 . S
C815 C821 1.491 . S
C816 H807 0.950 . S
C816 C815 1.398 . S
C816 C817 1.391 . S
C817 H805 0.950 . S
C817 C813 1.393 . S
C817 C816 1.391 . S
C818 H808 0.950 . S
C818 C819 1.386 . S
C818 C820 1.391 . S
C819 C818 1.386 . S
C819 C823 1.393 . S
C820 H809 0.950 . S
C820 C818 1.391 . S
C820 C821 1.400 . S
C821 C815 1.491 . S
C821 C820 1.400 . S
C821 C822 1.398 . S
C822 H810 0.950 . S
C822 C821 1.398 . S
C822 C823 1.391 . S
C823 H811 0.950 . S
C823 C819 1.393 . S
C823 C822 1.391 . S
H824 C832 0.950 . S
H825 C837 0.950 1_554 S
H826 C834 0.950 . S
H827 C836 0.950 . S
H828 C838 0.950 . S
H829 C840 0.950 . S
H830 C842 0.950 . S
H831 C843 0.950 . S
C832 H824 0.950 . S
C832 C833 1.386 . S
C832 C834 1.391 . S
C833 C832 1.386 . S
C833 C837 1.393 . S
C834 H826 0.950 . S
C834 C832 1.391 . S
C834 C835 1.400 . S
C835 C834 1.400 . S
C835 C836 1.398 . S
C835 C841 1.491 . S
C836 H827 0.950 . S
C836 C835 1.398 . S
C836 C837 1.391 . S
C837 H825 0.950 1_556 S
C837 C833 1.393 . S
C837 C836 1.391 . S
C838 H828 0.950 . S
C838 C839 1.386 . S
C838 C840 1.391 . S
C839 C838 1.386 . S
C839 C843 1.393 . S
C840 H829 0.950 . S
C840 C838 1.391 . S
C840 C841 1.400 . S
C841 C835 1.491 . S
C841 C840 1.400 . S
C841 C842 1.398 . S
C842 H830 0.950 . S
C842 C841 1.398 . S
C842 C843 1.391 . S
C843 H831 0.950 . S
C843 C839 1.393 . S
C843 C842 1.391 . S
H844 C852 0.950 . S
H845 C857 0.950 . S
H846 C854 0.950 . S
H847 C856 0.950 . S
H848 C858 0.950 . S
H849 C860 0.950 . S
H850 C862 0.950 . S
H851 C863 0.950 . S
C852 H844 0.950 . S
C852 C853 1.386 . S
C852 C854 1.391 . S
C853 C852 1.386 . S
C853 C857 1.393 . S
C854 H846 0.950 . S
C854 C852 1.391 . S
C854 C855 1.400 . S
C855 C854 1.400 . S
C855 C856 1.398 . S
C855 C861 1.491 . S
C856 H847 0.950 . S
C856 C855 1.398 . S
C856 C857 1.391 . S
C857 H845 0.950 . S
C857 C853 1.393 . S
C857 C856 1.391 . S
C858 H848 0.950 . S
C858 C859 1.386 . S
C858 C860 1.391 . S
C859 C858 1.386 . S
C859 C863 1.393 . S
C860 H849 0.950 . S
C860 C858 1.391 . S
C860 C861 1.400 . S
C861 C855 1.491 . S
C861 C860 1.400 . S
C861 C862 1.398 . S
C862 H850 0.950 . S
C862 C861 1.398 . S
C862 C863 1.391 . S
C863 H851 0.950 . S
C863 C859 1.393 . S
C863 C862 1.391 . S
H864 C872 0.950 . S
H865 C877 0.950 . S
H866 C874 0.950 . S
H867 C876 0.950 . S
H868 C878 0.950 . S
H869 C880 0.950 . S
H870 C882 0.950 . S
H871 C883 0.950 . S
C872 H864 0.950 . S
C872 C873 1.386 . S
C872 C874 1.391 . S
C873 C872 1.386 . S
C873 C877 1.393 . S
C874 H866 0.950 . S
C874 C872 1.391 . S
C874 C875 1.400 . S
C875 C874 1.400 . S
C875 C876 1.398 . S
C875 C881 1.491 1_565 S
C876 H867 0.950 . S
C876 C875 1.398 . S
C876 C877 1.391 . S
C877 H865 0.950 . S
C877 C873 1.393 . S
C877 C876 1.391 . S
C878 H868 0.950 . S
C878 C879 1.386 . S
C878 C880 1.391 . S
C879 C878 1.386 . S
C879 C883 1.393 . S
C880 H869 0.950 . S
C880 C878 1.391 . S
C880 C881 1.400 . S
C881 C875 1.491 1_545 S
C881 C880 1.400 . S
C881 C882 1.398 . S
C882 H870 0.950 . S
C882 C881 1.398 . S
C882 C883 1.391 . S
C883 H871 0.950 . S
C883 C879 1.393 . S
C883 C882 1.391 . S
H884 C892 0.950 . S
H885 C897 0.950 . S
H886 C894 0.950 . S
H887 C896 0.950 . S
H888 C898 0.950 . S
H889 C900 0.950 . S
H890 C902 0.950 . S
H891 C903 0.950 . S
C892 H884 0.950 . S
C892 C893 1.386 . S
C892 C894 1.391 . S
C893 C892 1.386 . S
C893 C897 1.393 . S
C894 H886 0.950 . S
C894 C892 1.391 . S
C894 C895 1.400 . S
C895 C894 1.400 . S
C895 C896 1.398 . S
C895 C901 1.491 1_655 S
C896 H887 0.950 . S
C896 C895 1.398 . S
C896 C897 1.391 . S
C897 H885 0.950 . S
C897 C893 1.393 . S
C897 C896 1.391 . S
C898 H888 0.950 . S
C898 C899 1.386 . S
C898 C900 1.391 . S
C899 C898 1.386 . S
C899 C903 1.393 . S
C900 H889 0.950 . S
C900 C898 1.391 . S
C900 C901 1.400 . S
C901 C895 1.491 1_455 S
C901 C900 1.400 . S
C901 C902 1.398 . S
C902 H890 0.950 . S
C902 C901 1.398 . S
C902 C903 1.391 . S
C903 H891 0.950 . S
C903 C899 1.393 . S
C903 C902 1.391 . S
H904 C912 0.950 . S
H905 C917 0.950 . S
H906 C914 0.950 . S
H907 C916 0.950 . S
H908 C918 0.950 . S
H909 C920 0.950 . S
H910 C922 0.950 . S
H911 C923 0.950 . S
C912 H904 0.950 . S
C912 C913 1.386 . S
C912 C914 1.391 . S
C913 C912 1.386 . S
C913 C917 1.393 . S
C914 H906 0.950 . S
C914 C912 1.391 . S
C914 C915 1.400 . S
C915 C914 1.400 . S
C915 C916 1.398 . S
C915 C921 1.491 1_565 S
C916 H907 0.950 . S
C916 C915 1.398 . S
C916 C917 1.391 . S
C917 H905 0.950 . S
C917 C913 1.393 . S
C917 C916 1.391 . S
C918 H908 0.950 . S
C918 C919 1.386 . S
C918 C920 1.391 . S
C919 C918 1.386 . S
C919 C923 1.393 . S
C920 H909 0.950 . S
C920 C918 1.391 . S
C920 C921 1.400 . S
C921 C915 1.491 1_545 S
C921 C920 1.400 . S
C921 C922 1.398 . S
C922 H910 0.950 . S
C922 C921 1.398 . S
C922 C923 1.391 . S
C923 H911 0.950 . S
C923 C919 1.393 . S
C923 C922 1.391 . S
H924 C932 0.950 . S
H925 C937 0.950 . S
H926 C934 0.950 . S
H927 C936 0.950 . S
H928 C938 0.950 . S
H929 C940 0.950 . S
H930 C942 0.950 . S
H931 C943 0.950 . S
C932 H924 0.950 . S
C932 C933 1.386 1_556 S
C932 C934 1.391 . S
C933 C932 1.386 1_554 S
C933 C937 1.393 . S
C934 H926 0.950 . S
C934 C932 1.391 . S
C934 C935 1.400 1_556 S
C935 C934 1.400 1_554 S
C935 C936 1.398 . S
C935 C941 1.491 1_655 S
C936 H927 0.950 . S
C936 C935 1.398 . S
C936 C937 1.391 . S
C937 H925 0.950 . S
C937 C933 1.393 . S
C937 C936 1.391 . S
C938 H928 0.950 . S
C938 C939 1.386 . S
C938 C940 1.391 . S
C939 C938 1.386 . S
C939 C943 1.393 1_554 S
C940 H929 0.950 . S
C940 C938 1.391 . S
C940 C941 1.400 . S
C941 C935 1.491 1_455 S
C941 C940 1.400 . S
C941 C942 1.398 1_554 S
C942 H930 0.950 . S
C942 C941 1.398 1_556 S
C942 C943 1.391 . S
C943 H931 0.950 . S
C943 C939 1.393 1_556 S
C943 C942 1.391 . S
H944 C952 0.950 . S
H945 C957 0.950 . S
H946 C954 0.950 . S
H947 C956 0.950 . S
H948 C958 0.950 . S
H949 C960 0.950 . S
H950 C962 0.950 . S
H951 C963 0.950 . S
C952 H944 0.950 . S
C952 C953 1.386 . S
C952 C954 1.391 . S
C953 C952 1.386 . S
C953 C957 1.393 . S
C954 H946 0.950 . S
C954 C952 1.391 . S
C954 C955 1.400 1_556 S
C955 C954 1.400 1_554 S
C955 C956 1.398 . S
C955 C961 1.491 . S
C956 H947 0.950 . S
C956 C955 1.398 . S
C956 C957 1.391 1_554 S
C957 H945 0.950 . S
C957 C953 1.393 . S
C957 C956 1.391 1_556 S
C958 H948 0.950 . S
C958 C959 1.386 . S
C958 C960 1.391 . S
C959 C958 1.386 . S
C959 C963 1.393 . S
C960 H949 0.950 . S
C960 C958 1.391 . S
C960 C961 1.400 . S
C961 C955 1.491 . S
C961 C960 1.400 . S
C961 C962 1.398 . S
C962 H950 0.950 . S
C962 C961 1.398 . S
C962 C963 1.391 . S
C963 H951 0.950 . S
C963 C959 1.393 . S
C963 C962 1.391 . S
H964 C972 0.950 . S
H965 C977 0.950 . S
H966 C974 0.950 . S
H967 C976 0.950 . S
H968 C978 0.950 . S
H969 C980 0.950 . S
H970 C982 0.950 . S
H971 C983 0.950 . S
C972 H964 0.950 . S
C972 C973 1.386 . S
C972 C974 1.391 . S
C973 C972 1.386 . S
C973 C977 1.393 . S
C974 H966 0.950 . S
C974 C972 1.391 . S
C974 C975 1.400 . S
C975 C974 1.400 . S
C975 C976 1.398 . S
C975 C981 1.491 . S
C976 H967 0.950 . S
C976 C975 1.398 . S
C976 C977 1.391 . S
C977 H965 0.950 . S
C977 C973 1.393 . S
C977 C976 1.391 . S
C978 H968 0.950 . S
C978 C979 1.386 . S
C978 C980 1.391 . S
C979 C978 1.386 . S
C979 C983 1.393 . S
C980 H969 0.950 . S
C980 C978 1.391 . S
C980 C981 1.400 . S
C981 C975 1.491 . S
C981 C980 1.400 . S
C981 C982 1.398 . S
C982 H970 0.950 . S
C982 C981 1.398 . S
C982 C983 1.391 . S
C983 H971 0.950 . S
C983 C979 1.393 . S
C983 C982 1.391 . S
H984 C992 0.950 . S
H985 C997 0.950 . S
H986 C994 0.950 . S
H987 C996 0.950 . S
H988 C998 0.950 . S
H989 C1000 0.950 . S
H990 C1002 0.950 . S
H991 C1003 0.950 . S
C992 H984 0.950 . S
C992 C993 1.386 . S
C992 C994 1.391 . S
C993 C992 1.386 . S
C993 C997 1.393 . S
C994 H986 0.950 . S
C994 C992 1.391 . S
C994 C995 1.400 . S
C995 C994 1.400 . S
C995 C996 1.398 . S
C995 C1001 1.491 . S
C996 H987 0.950 . S
C996 C995 1.398 . S
C996 C997 1.391 . S
C997 H985 0.950 . S
C997 C993 1.393 . S
C997 C996 1.391 . S
C998 H988 0.950 . S
C998 C999 1.386 . S
C998 C1000 1.391 . S
C999 C998 1.386 . S
C999 C1003 1.393 . S
C1000 H989 0.950 . S
C1000 C998 1.391 . S
C1000 C1001 1.400 . S
C1001 C995 1.491 . S
C1001 C1000 1.400 . S
C1001 C1002 1.398 . S
C1002 H990 0.950 . S
C1002 C1001 1.398 . S
C1002 C1003 1.391 . S
C1003 H991 0.950 . S
C1003 C999 1.393 . S
C1003 C1002 1.391 . S
H1004 C1012 0.950 . S
H1005 C1017 0.950 . S
H1006 C1014 0.950 . S
H1007 C1016 0.950 . S
H1008 C1018 0.950 . S
H1009 C1020 0.950 . S
H1010 C1022 0.950 . S
H1011 C1023 0.950 . S
C1012 H1004 0.950 . S
C1012 C1013 1.386 . S
C1012 C1014 1.391 . S
C1013 C1012 1.386 . S
C1013 C1017 1.393 . S
C1014 H1006 0.950 . S
C1014 C1012 1.391 . S
C1014 C1015 1.400 . S
C1015 C1014 1.400 . S
C1015 C1016 1.398 . S
C1015 C1021 1.491 . S
C1016 H1007 0.950 . S
C1016 C1015 1.398 . S
C1016 C1017 1.391 . S
C1017 H1005 0.950 . S
C1017 C1013 1.393 . S
C1017 C1016 1.391 . S
C1018 H1008 0.950 . S
C1018 C1019 1.386 . S
C1018 C1020 1.391 . S
C1019 C1018 1.386 . S
C1019 C1023 1.393 . S
C1020 H1009 0.950 . S
C1020 C1018 1.391 . S
C1020 C1021 1.400 . S
C1021 C1015 1.491 . S
C1021 C1020 1.400 . S
C1021 C1022 1.398 . S
C1022 H1010 0.950 . S
C1022 C1021 1.398 . S
C1022 C1023 1.391 . S
C1023 H1011 0.950 . S
C1023 C1019 1.393 . S
C1023 C1022 1.391 . S
C713 C29 0.845 . S
C719 C585 0.836 . S
C733 C108 0.837 . S
C739 C673 0.845 . S
C753 C401 0.835 . S
C759 C196 0.845 . S
C773 C489 0.837 . S
C779 C293 0.844 . S
C793 C49 1.341 . S
C799 C469 1.345 . S
C813 C145 1.348 . S
C819 C548 1.353 . S
C833 C636 1.355 . S
C839 C233 1.360 . S
C853 C313 1.344 . S
C859 C381 1.340 . S
C873 C409 1.340 . S
C879 C20 1.343 . S
C893 C117 1.348 . S
C899 C497 1.342 . S
C913 C205 1.338 . S
C919 C577 1.345 . S
C933 C665 1.349 . S
C939 C284 1.339 . S
C953 C557 1.722 . S
C959 C57 1.727 . S
C973 C645 1.710 . S
C979 C137 1.718 . S
C993 C225 1.722 . S
C999 C372 1.713 . S
C1013 C321 1.728 . S
C1019 C460 1.721 . S
