# Generated by pormake.
# Topology wjv, (5)-cn, num edge types: 1
# Building blocks:
#     Node 0, Type 0, BuildingBlock: XOMCOT_clean_sbu_0, # of connection points: 5
#     Node 1, Type 0, BuildingBlock: XOMCOT_clean_sbu_0, # of connection points: 5
#     Node 2, Type 0, BuildingBlock: XOMCOT_clean_sbu_0, # of connection points: 5
#     Node 3, Type 0, BuildingBlock: XOMCOT_clean_sbu_0, # of connection points: 5
#     Node 4, Type 0, BuildingBlock: XOMCOT_clean_sbu_0, # of connection points: 5
#     Node 5, Type 0, BuildingBlock: XOMCOT_clean_sbu_0, # of connection points: 5
#     Node 6, Type 0, BuildingBlock: XOMCOT_clean_sbu_0, # of connection points: 5
#     Node 7, Type 0, BuildingBlock: XOMCOT_clean_sbu_0, # of connection points: 5
#     Node 8, Type 0, BuildingBlock: XOMCOT_clean_sbu_0, # of connection points: 5
#     Node 9, Type 0, BuildingBlock: XOMCOT_clean_sbu_0, # of connection points: 5
#     Node 10, Type 0, BuildingBlock: XOMCOT_clean_sbu_0, # of connection points: 5
#     Node 11, Type 0, BuildingBlock: XOMCOT_clean_sbu_0, # of connection points: 5
#     Edge 12, Type (0, 0), BuildingBlock: XIVTED_clean_linker_0, # of connection points: 2
#     Edge 13, Type (0, 0), BuildingBlock: XIVTED_clean_linker_0, # of connection points: 2
#     Edge 14, Type (0, 0), BuildingBlock: XIVTED_clean_linker_0, # of connection points: 2
#     Edge 15, Type (0, 0), BuildingBlock: XIVTED_clean_linker_0, # of connection points: 2
#     Edge 16, Type (0, 0), BuildingBlock: XIVTED_clean_linker_0, # of connection points: 2
#     Edge 17, Type (0, 0), BuildingBlock: XIVTED_clean_linker_0, # of connection points: 2
#     Edge 18, Type (0, 0), BuildingBlock: XIVTED_clean_linker_0, # of connection points: 2
#     Edge 19, Type (0, 0), BuildingBlock: XIVTED_clean_linker_0, # of connection points: 2
#     Edge 20, Type (0, 0), BuildingBlock: XIVTED_clean_linker_0, # of connection points: 2
#     Edge 21, Type (0, 0), BuildingBlock: XIVTED_clean_linker_0, # of connection points: 2
#     Edge 22, Type (0, 0), BuildingBlock: XIVTED_clean_linker_0, # of connection points: 2
#     Edge 23, Type (0, 0), BuildingBlock: XIVTED_clean_linker_0, # of connection points: 2
#     Edge 24, Type (0, 0), BuildingBlock: XIVTED_clean_linker_0, # of connection points: 2
#     Edge 25, Type (0, 0), BuildingBlock: XIVTED_clean_linker_0, # of connection points: 2
#     Edge 26, Type (0, 0), BuildingBlock: XIVTED_clean_linker_0, # of connection points: 2
#     Edge 27, Type (0, 0), BuildingBlock: XIVTED_clean_linker_0, # of connection points: 2
#     Edge 28, Type (0, 0), BuildingBlock: XIVTED_clean_linker_0, # of connection points: 2
#     Edge 29, Type (0, 0), BuildingBlock: XIVTED_clean_linker_0, # of connection points: 2
#     Edge 30, Type (0, 0), BuildingBlock: XIVTED_clean_linker_0, # of connection points: 2
#     Edge 31, Type (0, 0), BuildingBlock: XIVTED_clean_linker_0, # of connection points: 2
#     Edge 32, Type (0, 0), BuildingBlock: XIVTED_clean_linker_0, # of connection points: 2
#     Edge 33, Type (0, 0), BuildingBlock: XIVTED_clean_linker_0, # of connection points: 2
#     Edge 34, Type (0, 0), BuildingBlock: XIVTED_clean_linker_0, # of connection points: 2
#     Edge 35, Type (0, 0), BuildingBlock: XIVTED_clean_linker_0, # of connection points: 2
#     Edge 36, Type (0, 0), BuildingBlock: XIVTED_clean_linker_0, # of connection points: 2
#     Edge 37, Type (0, 0), BuildingBlock: XIVTED_clean_linker_0, # of connection points: 2
#     Edge 38, Type (0, 0), BuildingBlock: XIVTED_clean_linker_0, # of connection points: 2
#     Edge 39, Type (0, 0), BuildingBlock: XIVTED_clean_linker_0, # of connection points: 2
#     Edge 40, Type (0, 0), BuildingBlock: XIVTED_clean_linker_0, # of connection points: 2
#     Edge 41, Type (0, 0), BuildingBlock: XIVTED_clean_linker_0, # of connection points: 2
# Relax obj value: 0.158
# Max RMSD: 0.187
# Mean RMSD: 0.187
data_MOF--net-wjv--node1-XOMCOT_clean_sbu_0--edge1-XIVTED_clean_linker_0
_symmetry_space_group_name_H-M    P1
_symmetry_Int_Tables_number       1
_symmetry_cell_setting            triclinic
loop_
_symmetry_equiv_pos_as_xyz
'x, y, z'
_cell_length_a     37.504288
_cell_length_b     37.318671
_cell_length_c     50.906026
_cell_angle_alpha  90.015818
_cell_angle_beta   89.943056
_cell_angle_gamma 120.03923
loop_
_atom_site_label
_atom_site_type_symbol
_atom_site_fract_x
_atom_site_fract_y
_atom_site_fract_z
_atom_type_partial_charge
Co0 Co 0.2093 0.29757 0.18569 0.0
C1 C 0.18379 0.28925 0.12941 0.0
C2 C 0.17324 0.23221 0.1467 0.0
C3 C 0.15872 0.22436 0.12148 0.0
N4 N 0.18919 0.27278 0.15168 0.0
N5 N 0.16491 0.26002 0.1106 0.0
H6 H 0.1919 0.32133 0.12744 0.0
H7 H 0.17097 0.20948 0.16078 0.0
C8 C 0.26408 0.263 0.20029 0.0
O9 O 0.29165 0.29873 0.21029 0.0
N10 N 0.22788 0.3201 0.22086 0.0
C11 C 0.24192 0.35869 0.23036 0.0
C12 C 0.25123 0.35935 0.25662 0.0
C13 C 0.22634 0.29745 0.24204 0.0
N14 N 0.24139 0.3208 0.26384 0.0
C15 C 0.27538 0.37913 0.17151 0.0
C16 C 0.32503 0.3522 0.14919 0.0
C17 C 0.3424 0.39403 0.15589 0.0
C18 C 0.31639 0.40788 0.16565 0.0
C19 C 0.28399 0.32464 0.15566 0.0
N20 N 0.26133 0.33779 0.16943 0.0
H21 H 0.25534 0.39003 0.17838 0.0
H22 H 0.27129 0.29228 0.15096 0.0
H23 H 0.24425 0.38464 0.21967 0.0
H24 H 0.21531 0.26455 0.2414 0.0
O25 O 0.17873 0.32652 0.18243 0.0
O26 O 0.1548 0.26392 0.19976 0.0
O27 O 0.23016 0.25786 0.19108 0.0
C28 C 0.14808 0.29358 0.19285 0.0
H29 H 0.1441 0.19437 0.11203 0.0
H30 H 0.26366 0.38597 0.26953 0.0
H31 H 0.34359 0.34034 0.14074 0.0
H32 H 0.32805 0.44039 0.16964 0.0
Co33 Co 0.90162 0.20112 0.5232 0.0
C34 C 0.88405 0.18307 0.46606 0.0
C35 C 0.92428 0.16276 0.48161 0.0
C36 C 0.91535 0.1498 0.45603 0.0
N37 N 0.90474 0.18357 0.48795 0.0
N38 N 0.89001 0.16238 0.44629 0.0
H39 H 0.86341 0.19542 0.46509 0.0
H40 H 0.9422 0.1557 0.49505 0.0
C41 C 0.99269 0.24555 0.53708 0.0
O42 O 0.99246 0.27884 0.54526 0.0
N43 N 0.89842 0.21715 0.55932 0.0
C44 C 0.86957 0.22436 0.56997 0.0
C45 C 0.87832 0.234 0.59615 0.0
C46 C 0.92248 0.21963 0.57985 0.0
N47 N 0.91168 0.23109 0.60226 0.0
C48 C 0.89575 0.27472 0.51558 0.0
C49 C 0.97069 0.32049 0.49049 0.0
C50 C 0.95001 0.34075 0.49945 0.0
C51 C 0.9112 0.3169 0.5111 0.0
C52 C 0.95424 0.27822 0.49573 0.0
N53 N 0.91886 0.25676 0.5101 0.0
H54 H 0.86546 0.25678 0.52386 0.0
H55 H 0.97109 0.26328 0.48936 0.0
H56 H 0.84294 0.22144 0.55989 0.0
H57 H 0.94728 0.2129 0.5787 0.0
O58 O 0.84213 0.17483 0.51939 0.0
O59 O 0.87633 0.14481 0.53464 0.0
O60 O 0.95995 0.21433 0.52857 0.0
C61 C 0.84139 0.14166 0.52831 0.0
H62 H 0.92571 0.13141 0.44556 0.0
H63 H 0.86096 0.24162 0.60979 0.0
H64 H 0.00023 0.33749 0.48072 0.0
H65 H 0.89319 0.33089 0.51707 0.0
Co66 Co 0.68471 0.91861 0.85225 0.0
C67 C 0.68892 0.89499 0.79648 0.0
C68 C 0.74484 0.94766 0.81021 0.0
C69 C 0.75123 0.93882 0.78516 0.0
N70 N 0.7059 0.92047 0.81734 0.0
N71 N 0.71632 0.90563 0.77652 0.0
H72 H 0.65804 0.86854 0.79629 0.0
H73 H 0.76756 0.9716 0.82273 0.0
C74 C 0.70798 0.00831 0.85861 0.0
O75 O 0.67227 -0.00143 0.86916 0.0
N76 N 0.66614 0.91773 0.88826 0.0
C77 C 0.63664 0.88507 0.90168 0.0
C78 C 0.63872 0.89534 0.92783 0.0
C79 C 0.68699 0.94659 0.90697 0.0
N80 N 0.67044 0.93414 0.93116 0.0
C81 C 0.59821 0.89223 0.84571 0.0
C82 C 0.61175 0.95606 0.81211 0.0
C83 C 0.57288 0.93256 0.82369 0.0
C84 C 0.56567 0.89893 0.83963 0.0
C85 C 0.64339 0.94854 0.81898 0.0
N86 N 0.63718 0.91915 0.83728 0.0
H87 H 0.59216 0.86624 0.85783 0.0
H88 H 0.67373 0.96843 0.81091 0.0
H89 H 0.61676 0.85463 0.89365 0.0
H90 H 0.71556 0.97499 0.90339 0.0
O91 O 0.66485 0.8595 0.85364 0.0
O92 O 0.72678 0.90947 0.86609 0.0
O93 O 0.71682 0.98057 0.85239 0.0
C94 C 0.70131 0.87017 0.86287 0.0
H95 H 0.77975 0.95526 0.77423 0.0
H96 H 0.61918 0.87517 0.9433 0.0
H97 H 0.61856 0.98197 0.79938 0.0
H98 H 0.53555 0.87893 0.84807 0.0
Co99 Co 0.77657 0.69921 0.1844 0.0
C100 C 0.79476 0.69588 0.12715 0.0
C101 C 0.79309 0.75057 0.13773 0.0
C102 C 0.80613 0.75459 0.11218 0.0
N103 N 0.78478 0.71331 0.14714 0.0
N104 N 0.80697 0.72018 0.10555 0.0
H105 H 0.7973 0.66843 0.12895 0.0
H106 H 0.7928 0.77477 0.14922 0.0
C107 C 0.71857 0.73036 0.1738 0.0
O108 O 0.70403 0.70482 0.15374 0.0
N109 N 0.77042 0.68758 0.22168 0.0
C110 C 0.76742 0.65418 0.23389 0.0
C111 C 0.76169 0.65729 0.26038 0.0
C112 C 0.76681 0.71065 0.24077 0.0
N113 N 0.7611 0.69272 0.26464 0.0
C114 C 0.71945 0.61832 0.16095 0.0
C115 C 0.65286 0.60801 0.1903 0.0
C116 C 0.64644 0.57844 0.17122 0.0
C117 C 0.68038 0.58355 0.15652 0.0
C118 C 0.69179 0.64205 0.19382 0.0
N119 N 0.72435 0.6481 0.17856 0.0
H120 H 0.74543 0.62079 0.15046 0.0
H121 H 0.6954 0.66431 0.20865 0.0
H122 H 0.76838 0.62894 0.22412 0.0
H123 H 0.76811 0.73986 0.23723 0.0
O124 O 0.81629 0.67996 0.1823 0.0
O125 O 0.83068 0.7442 0.19082 0.0
O126 O 0.74675 0.73118 0.18831 0.0
C127 C 0.8438 0.71821 0.18787 0.0
H128 H 0.8164 0.78163 0.09983 0.0
H129 H 0.75697 0.63454 0.2752 0.0
H130 H 0.62769 0.60559 0.2021 0.0
H131 H 0.67686 0.56075 0.14203 0.0
Co132 Co 0.06648 0.77567 0.51294 0.0
C133 C 0.09166 0.79138 0.4568 0.0
C134 C 0.03373 0.78843 0.46383 0.0
C135 C 0.04256 0.79509 0.43748 0.0
N136 N 0.06414 0.78548 0.47585 0.0
N137 N 0.07891 0.79698 0.43311 0.0
H138 H 0.12017 0.7914 0.46018 0.0
H139 H 0.00725 0.78656 0.47359 0.0
C140 C 0.97901 0.70676 0.52212 0.0
O141 O 0.99088 0.68507 0.53616 0.0
N142 N 0.06868 0.76755 0.55075 0.0
C143 C 0.1028 0.77719 0.56486 0.0
C144 C 0.09344 0.77342 0.59116 0.0
C145 C 0.03949 0.76014 0.56908 0.0
N146 N 0.05358 0.76269 0.59389 0.0
C147 C 0.09679 0.71705 0.51637 0.0
C148 C 0.03734 0.65926 0.48329 0.0
C149 C 0.06182 0.64783 0.49772 0.0
C150 C 0.09283 0.67778 0.51379 0.0
C151 C 0.04184 0.6984 0.48682 0.0
N152 N 0.06957 0.72598 0.50443 0.0
H153 H 0.12124 0.73965 0.52837 0.0
H154 H 0.02112 0.70554 0.47636 0.0
H155 H 0.1333 0.78866 0.55687 0.0
H156 H 0.00932 0.75546 0.56455 0.0
O157 O 0.1244 0.81906 0.51318 0.0
O158 O 0.07113 0.8281 0.52029 0.0
O159 O 0.00492 0.7423 0.5131 0.0
C160 C 0.11072 0.84444 0.51814 0.0
H161 H 0.02433 0.79954 0.42275 0.0
H162 H 0.11479 0.77912 0.60704 0.0
H163 H 0.01319 0.63734 0.47049 0.0
H164 H 0.11341 0.6707 0.5246 0.0
Co165 Co 0.28837 0.08891 0.84847 0.0
C166 C 0.2923 0.11053 0.79192 0.0
C167 C 0.23182 0.06332 0.80389 0.0
C168 C 0.23057 0.0716 0.77771 0.0
N169 N 0.27053 0.08736 0.81269 0.0
N170 N 0.26855 0.10123 0.77017 0.0
H171 H 0.32473 0.13346 0.79274 0.0
H172 H 0.20608 0.04184 0.81583 0.0
C173 C 0.25717 -0.00162 0.85787 0.0
O174 O 0.29235 0.00686 0.86869 0.0
N175 N 0.30439 0.09048 0.88519 0.0
C176 C 0.33522 0.12257 0.89821 0.0
C177 C 0.33247 0.11314 0.92454 0.0
C178 C 0.28203 0.06309 0.90428 0.0
N179 N 0.29904 0.07556 0.92833 0.0
C180 C 0.37257 0.1058 0.84465 0.0
C181 C 0.35437 0.039 0.81253 0.0
C182 C 0.39314 0.06019 0.82448 0.0
C183 C 0.40277 0.09518 0.83974 0.0
C184 C 0.32504 0.05045 0.81821 0.0
N185 N 0.33333 0.08144 0.83575 0.0
H186 H 0.38063 0.13296 0.85611 0.0
H187 H 0.29466 0.03247 0.80978 0.0
H188 H 0.35712 0.15197 0.88964 0.0
H189 H 0.25259 0.03558 0.901 0.0
O190 O 0.31448 0.1487 0.84762 0.0
O191 O 0.24985 0.10523 0.85988 0.0
O192 O 0.25082 0.02731 0.85024 0.0
C193 C 0.27902 0.14306 0.85568 0.0
H194 H 0.20344 0.05767 0.76537 0.0
H195 H 0.35319 0.13283 0.93973 0.0
H196 H 0.3458 0.01217 0.80028 0.0
H197 H 0.43303 0.11347 0.8484 0.0
Co198 Co 0.69463 0.77767 0.51708 0.0
C199 C 0.69272 0.79307 0.57507 0.0
C200 C 0.7454 0.78908 0.56323 0.0
C201 C 0.74998 0.8003 0.58908 0.0
N202 N 0.70882 0.78289 0.55436 0.0
N203 N 0.71712 0.80323 0.59658 0.0
H204 H 0.66566 0.79628 0.57392 0.0
H205 H 0.76904 0.78868 0.55132 0.0
C206 C 0.72679 0.72002 0.52347 0.0
O207 O 0.70034 0.7036 0.5429 0.0
N208 N 0.68356 0.77551 0.47974 0.0
C209 C 0.6498 0.77199 0.46798 0.0
C210 C 0.65317 0.76804 0.44126 0.0
C211 C 0.70723 0.77438 0.46014 0.0
N212 N 0.68914 0.76917 0.43642 0.0
C213 C 0.62072 0.71042 0.54256 0.0
C214 C 0.6118 0.65234 0.50547 0.0
C215 C 0.58786 0.63884 0.52822 0.0
C216 C 0.59184 0.66837 0.54682 0.0
C217 C 0.6406 0.69378 0.50238 0.0
N218 N 0.64626 0.72239 0.52117 0.0
H219 H 0.6232 0.7327 0.55688 0.0
H220 H 0.66075 0.70197 0.48562 0.0
H221 H 0.62389 0.7707 0.47819 0.0
H222 H 0.7366 0.77619 0.46328 0.0
O223 O 0.67016 0.8122 0.52224 0.0
O224 O 0.73598 0.83488 0.51277 0.0
O225 O 0.72947 0.75094 0.51073 0.0
C226 C 0.70683 0.84329 0.51745 0.0
H227 H 0.77657 0.80765 0.60109 0.0
H228 H 0.62999 0.76272 0.42672 0.0
H229 H 0.61026 0.63061 0.49076 0.0
H230 H 0.57331 0.65903 0.56452 0.0
Co231 Co 0.909 0.70663 0.84691 0.0
C232 C 0.89823 0.70296 0.9059 0.0
C233 C 0.95404 0.75559 0.89272 0.0
C234 C 0.95129 0.75862 0.91935 0.0
N235 N 0.92174 0.71983 0.88414 0.0
N236 N 0.91629 0.72542 0.92781 0.0
H237 H 0.86755 0.67649 0.90564 0.0
H238 H 0.97702 0.77945 0.88029 0.0
C239 C -0.00186 0.73315 0.85052 0.0
O240 O 0.98868 0.70617 0.86963 0.0
N241 N 0.89692 0.69603 0.80977 0.0
C242 C 0.86448 0.66298 0.79882 0.0
C243 C 0.87008 0.66493 0.77195 0.0
C244 C 0.92151 0.71785 0.78952 0.0
N245 N 0.90615 0.69933 0.76611 0.0
C246 C 0.88741 0.62587 0.86888 0.0
C247 C 0.93764 0.61346 0.83484 0.0
C248 C 0.91979 0.58641 0.85605 0.0
C249 C 0.89342 0.5921 0.87286 0.0
C250 C 0.93139 0.64684 0.83191 0.0
N251 N 0.9087 0.65437 0.84977 0.0
H252 H 0.86594 0.629 0.88124 0.0
H253 H 0.947 0.66812 0.81598 0.0
H254 H 0.83948 0.63825 0.80969 0.0
H255 H 0.95061 0.74614 0.79202 0.0
O256 O 0.85152 0.68859 0.85386 0.0
O257 O 0.90058 0.75293 0.84464 0.0
O258 O 0.96984 0.73669 0.83886 0.0
C259 C 0.86236 0.72744 0.85071 0.0
H260 H 0.97233 0.78474 0.93125 0.0
H261 H 0.85004 0.64165 0.75801 0.0
H262 H 0.95813 0.61023 0.82127 0.0
H263 H 0.87787 0.57089 0.88893 0.0
Co264 Co 0.21749 0.91853 0.18036 0.0
C265 C 0.20615 0.89709 0.23767 0.0
C266 C 0.21745 0.95837 0.23053 0.0
C267 C 0.21091 0.95053 0.25695 0.0
N268 N 0.21653 0.9257 0.21839 0.0
N269 N 0.20379 0.912 0.2614 0.0
H270 H 0.19833 0.86535 0.2344 0.0
H271 H 0.21989 0.98523 0.22083 0.0
C272 C 0.28072 0.00813 0.18744 0.0
O273 O 0.29905 0.9974 0.20521 0.0
N274 N 0.21659 0.91142 0.14265 0.0
C275 C 0.2158 0.87957 0.12973 0.0
C276 C 0.21894 0.88787 0.10318 0.0
C277 C 0.21982 0.93847 0.1239 0.0
N278 N 0.22173 0.92505 0.09953 0.0
C279 C 0.27683 0.89608 0.20032 0.0
C280 C 0.34031 0.95232 0.16877 0.0
C281 C 0.34961 0.9346 0.18994 0.0
C282 C 0.31712 0.90433 0.20497 0.0
C283 C 0.29996 0.9432 0.16486 0.0
N284 N 0.26932 0.91804 0.18187 0.0
H285 H 0.25226 0.87321 0.21217 0.0
H286 H 0.29419 0.95945 0.14941 0.0
H287 H 0.21455 0.85291 0.13902 0.0
H288 H 0.22156 0.96772 0.12806 0.0
O289 O 0.17704 0.85987 0.18414 0.0
O290 O 0.16321 0.91076 0.17895 0.0
O291 O 0.24859 0.9805 0.17558 0.0
C292 C 0.14958 0.87152 0.18237 0.0
H293 H 0.2087 0.97048 0.27151 0.0
H294 H 0.22088 0.86878 0.08787 0.0
H295 H 0.3644 0.97476 0.15612 0.0
H296 H 0.32301 0.88891 0.22099 0.0
Co297 Co 0.32016 0.22895 0.51089 0.0
C298 C 0.31573 0.21073 0.5683 0.0
C299 C 0.3349 0.2743 0.56034 0.0
C300 C 0.33426 0.26899 0.58715 0.0
N301 N 0.32332 0.23779 0.54854 0.0
N302 N 0.32214 0.22897 0.59212 0.0
H303 H 0.30653 0.17856 0.56545 0.0
H304 H 0.34361 0.30292 0.55011 0.0
C305 C 0.25515 0.24129 0.51295 0.0
O306 O 0.28858 0.27741 0.5094 0.0
N307 N 0.31671 0.22059 0.47323 0.0
C308 C 0.33888 0.20812 0.45904 0.0
C309 C 0.33352 0.21285 0.43275 0.0
C310 C 0.29771 0.23221 0.45545 0.0
N311 N 0.30763 0.2279 0.4306 0.0
C312 C 0.40519 0.26605 0.52708 0.0
C313 C 0.42805 0.33386 0.49484 0.0
C314 C 0.45331 0.33764 0.51613 0.0
C315 C 0.44254 0.30268 0.5318 0.0
C316 C 0.39065 0.29777 0.49162 0.0
N317 N 0.37883 0.26524 0.50829 0.0
H318 H 0.39539 0.24019 0.54037 0.0
H319 H 0.36914 0.29779 0.47755 0.0
H320 H 0.35935 0.19851 0.46726 0.0
H321 H 0.27937 0.24618 0.46046 0.0
O322 O 0.32017 0.17573 0.51532 0.0
O323 O 0.2643 0.17759 0.51448 0.0
O324 O 0.25915 0.2089 0.51317 0.0
C325 C 0.28108 0.15476 0.51595 0.0
H326 H 0.34164 0.2927 0.6018 0.0
H327 H 0.34857 0.20707 0.41648 0.0
H328 H 0.43467 0.3602 0.48256 0.0
H329 H 0.46128 0.30453 0.54848 0.0
Co330 Co 0.06589 0.29517 0.85159 0.0
C331 C 0.08157 0.2917 0.90927 0.0
C332 C 0.02597 0.23909 0.89572 0.0
C333 C 0.03204 0.23228 0.92127 0.0
N334 N 0.05608 0.27698 0.88817 0.0
N335 N 0.06717 0.26513 0.92982 0.0
H336 H 0.11162 0.31927 0.90899 0.0
H337 H 0.00251 0.21629 0.88303 0.0
C338 C 0.97609 0.26131 0.858 0.0
O339 O 0.98557 0.28579 0.87854 0.0
N340 N 0.07565 0.3108 0.8149 0.0
C341 C 0.10406 0.34768 0.80499 0.0
C342 C 0.09697 0.34796 0.77843 0.0
C343 C 0.05238 0.28879 0.79428 0.0
N344 N 0.06446 0.31096 0.77181 0.0
C345 C 0.07851 0.36999 0.87881 0.0
C346 C 0.02818 0.3825 0.8449 0.0
C347 C 0.04542 0.40896 0.86635 0.0
C348 C 0.071 0.40273 0.88353 0.0
C349 C 0.03581 0.35024 0.84123 0.0
N350 N 0.05972 0.34328 0.85838 0.0
H351 H 0.09942 0.36645 0.8915 0.0
H352 H 0.02113 0.32986 0.82477 0.0
H353 H 0.1269 0.37323 0.8165 0.0
H354 H 0.02564 0.25818 0.79595 0.0
O355 O 0.12446 0.31927 0.85704 0.0
O356 O 0.0815 0.25422 0.84485 0.0
O357 O 0.00466 0.26063 0.84453 0.0
C358 C 0.1188 0.28298 0.85067 0.0
H359 H 0.01282 0.20433 0.93233 0.0
H360 H 0.11365 0.37378 0.76516 0.0
H361 H 0.00798 0.38606 0.83128 0.0
H362 H 0.08537 0.42317 0.9001 0.0
Co363 Co 0.7881 0.09029 0.18208 0.0
C364 C 0.80302 0.10207 0.23996 0.0
C365 C 0.822 0.0615 0.22297 0.0
C366 C 0.82905 0.06374 0.24952 0.0
N367 N 0.80519 0.08497 0.21701 0.0
N368 N 0.81702 0.08907 0.26022 0.0
H369 H 0.79044 0.12249 0.24189 0.0
H370 H 0.82851 0.04379 0.20892 0.0
C371 C 0.73148 0.00066 0.16879 0.0
O372 O 0.7038 0.00928 0.15977 0.0
N373 N 0.77289 0.09555 0.14609 0.0
C374 C 0.77161 0.12779 0.13503 0.0
C375 C 0.76288 0.12001 0.10863 0.0
C376 C 0.76762 0.07009 0.12568 0.0
N377 N 0.75999 0.08341 0.10284 0.0
C378 C 0.71774 0.10198 0.18933 0.0
C379 C 0.67267 0.03111 0.21893 0.0
C380 C 0.65286 0.05167 0.20911 0.0
C381 C 0.67653 0.08871 0.19516 0.0
C382 C 0.71372 0.04528 0.21245 0.0
N383 N 0.73481 0.07851 0.19612 0.0
H384 H 0.73536 0.13047 0.17876 0.0
H385 H 0.72776 0.02781 0.2193 0.0
H386 H 0.778 0.15591 0.14505 0.0
H387 H 0.77101 0.04309 0.12712 0.0
O388 O 0.81938 0.14991 0.18602 0.0
O389 O 0.84346 0.11068 0.16997 0.0
O390 O 0.7665 0.02937 0.17688 0.0
C391 C 0.85037 0.14721 0.17674 0.0
H392 H 0.84227 0.04808 0.26017 0.0
H393 H 0.75903 0.13987 0.09483 0.0
H394 H 0.65625 0.00341 0.23076 0.0
H395 H 0.663 0.10637 0.18768 0.0
H396 H 0.35999 0.27383 0.39206 0.0
H397 H 0.19117 0.24982 0.29005 0.0
H398 H 0.2326 0.21414 0.41545 0.0
H399 H 0.30878 0.36206 0.29439 0.0
H400 H 0.20614 0.22733 0.3321 0.0
H401 H 0.34267 0.29782 0.35169 0.0
C402 C 0.32834 0.26564 0.38853 0.0
C403 C 0.29759 0.24198 0.40693 0.0
C404 C 0.22846 0.25697 0.32386 0.0
C405 C 0.27751 0.26867 0.36085 0.0
C406 C 0.22004 0.26967 0.29993 0.0
C407 C 0.24875 0.30787 0.28892 0.0
C408 C 0.26635 0.28215 0.33636 0.0
C409 C 0.28573 0.33261 0.30242 0.0
C410 C 0.31853 0.27949 0.36567 0.0
C411 C 0.25706 0.23246 0.40168 0.0
N412 N 0.29373 0.3191 0.32527 0.0
N413 N 0.24801 0.24542 0.37892 0.0
H414 H 0.94907 0.19269 0.62498 0.0
H415 H 0.05282 0.36048 0.73835 0.0
H416 H 0.92313 0.2919 0.63594 0.0
H417 H 0.02778 0.23536 0.7487 0.0
H418 H 0.01487 0.34006 0.69679 0.0
H419 H 0.98705 0.21162 0.66678 0.0
C420 C 0.95141 0.21842 0.6362 0.0
C421 C 0.93285 0.2407 0.62711 0.0
C422 C 0.01775 0.31709 0.70813 0.0
C423 C 0.97656 0.26283 0.67449 0.0
C424 C 0.03967 0.3288 0.7317 0.0
C425 C 0.0435 0.29955 0.74689 0.0
C426 C 0.00015 0.276 0.69941 0.0
C427 C 0.02531 0.25872 0.73757 0.0
C428 C 0.97286 0.22907 0.66003 0.0
C429 C 0.93658 0.27368 0.64243 0.0
N430 N 0.00464 0.24816 0.7143 0.0
N431 N 0.95832 0.28399 0.66523 0.0
H432 H 0.71389 0.01764 0.93805 0.0
H433 H 0.72493 0.00061 0.09459 0.0
H434 H 0.66109 0.90205 0.98039 0.0
H435 H 0.7699 0.11678 0.05383 0.0
H436 H 0.70492 0.96451 0.05256 0.0
H437 H 0.73791 0.05485 0.97976 0.0
C438 C 0.70753 4e-05 0.95606 0.0
C439 C 0.68527 0.95654 0.95561 0.0
C440 C 0.71926 -0.00208 0.05276 0.0
C441 C 0.71253 -0.00095 1.00355 0.0
C442 C 0.73104 0.01866 0.07681 0.0
C443 C 0.74932 0.06196 0.07788 0.0
C444 C 0.72577 0.02048 0.02942 0.0
C445 C 0.7556 0.08343 0.05407 0.0
C446 C 0.72108 0.02134 0.97991 0.0
C447 C 0.67756 0.93549 0.97969 0.0
N448 N 0.74387 0.0625 0.03086 0.0
N449 N 0.69116 0.9569 1.00259 0.0
H450 H 0.72644 0.74097 0.27176 0.0
H451 H 0.73807 0.73554 0.42876 0.0
H452 H 0.77765 0.67687 0.31385 0.0
H453 H 0.67127 0.78431 0.38732 0.0
H454 H 0.75829 0.71959 0.38675 0.0
H455 H 0.7114 0.76263 0.31367 0.0
C456 C 0.73489 0.73174 0.28978 0.0
C457 C 0.75332 0.70695 0.28922 0.0
C458 C 0.73932 0.73392 0.38681 0.0
C459 C 0.73582 0.73144 0.33739 0.0
C460 C 0.72801 0.74338 0.41085 0.0
C461 C 0.70289 0.76138 0.41166 0.0
C462 C 0.72563 0.74262 0.36328 0.0
C463 C 0.69027 0.77007 0.38768 0.0
C464 C 0.72602 0.74391 0.31374 0.0
C465 C 0.76298 0.6955 0.3133 0.0
N466 N 0.70175 0.76061 0.3645 0.0
N467 N 0.75415 0.70782 0.33636 0.0
H468 H 0.08593 0.79607 0.64153 0.0
H469 H 0.87028 0.67618 0.71776 0.0
H470 H 0.97083 0.71598 0.60246 0.0
H471 H 0.98803 0.74931 0.75579 0.0
H472 H 0.90524 0.69339 0.67518 0.0
H473 H 0.04932 0.78252 0.68309 0.0
C474 C 0.05294 0.77549 0.64163 0.0
C475 C 0.0316 0.75681 0.61834 0.0
C476 C 0.92334 0.70579 0.69286 0.0
C477 C 0.98909 0.74138 0.66625 0.0
C478 C 0.90341 0.69584 0.71727 0.0
C479 C 0.92607 0.71113 0.74065 0.0
C480 C 0.96634 0.73129 0.6917 0.0
C481 C 0.96897 0.73705 0.73851 0.0
C482 C 0.03194 0.76791 0.66546 0.0
C483 C 0.98858 0.73121 0.61983 0.0
N484 N 0.98759 0.74612 0.71457 0.0
N485 N 0.96879 0.72408 0.64338 0.0
H486 H 0.25183 0.99238 0.93535 0.0
H487 H 0.25935 0.00854 0.09248 0.0
H488 H 0.31283 0.108 0.97771 0.0
H489 H 0.20204 0.8927 0.05027 0.0
H490 H 0.27527 0.04545 0.05068 0.0
H491 H 0.22962 0.95544 0.97715 0.0
C492 C 0.26026 0.01008 0.95339 0.0
C493 C 0.28439 0.05347 0.9529 0.0
C494 C 0.25907 0.01194 0.05055 0.0
C495 C 0.25936 0.01119 1.00101 0.0
C496 C 0.24967 0.99076 0.07448 0.0
C497 C 0.22936 0.94729 0.07501 0.0
C498 C 0.24809 0.98962 0.02686 0.0
C499 C 0.21823 0.92615 0.05089 0.0
C500 C 0.24776 0.98891 0.9773 0.0
C501 C 0.29481 0.0746 0.97704 0.0
N502 N 0.2278 0.94747 0.02785 0.0
N503 N 0.28231 0.05328 1.00005 0.0
H504 H 0.11774 0.33498 0.95778 0.0
H505 H 0.10004 0.20081 0.08375 0.0
H506 H 0.06104 0.20193 0.95914 0.0
H507 H 0.19707 0.32837 0.07878 0.0
H508 H 0.07964 0.20485 0.03931 0.0
H509 H 0.1439 0.33731 1.00265 0.0
C510 C 0.11109 0.30641 0.96737 0.0
C511 C 0.08639 0.26813 0.95489 0.0
C512 C 0.10557 0.23204 0.04776 0.0
C513 C 0.11551 0.27054 1.00591 0.0
C514 C 0.11739 0.2297 0.07323 0.0
C515 C 0.15102 0.264 0.0849 0.0
C516 C 0.12716 0.26908 0.03358 0.0
C517 C 0.17111 0.30112 0.07047 0.0
C518 C 0.12585 0.30775 0.99292 0.0
C519 C 0.07875 0.23204 0.96818 0.0
N520 N 0.15897 0.3027 0.04541 0.0
N521 N 0.0929 0.23416 0.9929 0.0
H522 H 0.80196 0.03665 0.30046 0.0
H523 H 0.87812 0.21141 0.41199 0.0
H524 H 0.83487 0.16244 0.28289 0.0
H525 H 0.858 0.08818 0.42277 0.0
H526 H 0.85272 0.1931 0.36641 0.0
H527 H 0.81206 0.05367 0.34697 0.0
C528 C 0.81123 0.06794 0.30649 0.0
C529 C 0.81824 0.09834 0.2878 0.0
C530 C 0.8535 0.17002 0.37889 0.0
C531 C 0.83024 0.11842 0.3413 0.0
C532 C 0.86773 0.18039 0.40484 0.0
C533 C 0.87057 0.15135 0.4209 0.0
C534 C 0.84167 0.13023 0.36927 0.0
C535 C 0.85695 0.11164 0.41084 0.0
C536 C 0.81694 0.0777 0.33309 0.0
C537 C 0.82928 0.13819 0.29674 0.0
N538 N 0.84333 0.10236 0.38574 0.0
N539 N 0.83551 0.14731 0.3229 0.0
H540 H 0.77465 0.89684 0.7516 0.0
H541 H 0.64608 0.78299 0.62322 0.0
H542 H 0.64837 0.86772 0.74487 0.0
H543 H 0.77828 0.85936 0.62722 0.0
H544 H 0.64152 0.80499 0.66838 0.0
H545 H 0.7715 0.87107 0.70746 0.0
C546 C 0.74616 0.88499 0.74074 0.0
C547 C 0.71202 0.88525 0.75171 0.0
C548 C 0.67138 0.81688 0.65917 0.0
C549 C 0.70804 0.85541 0.70075 0.0
C550 C 0.67399 0.80455 0.63345 0.0
C551 C 0.71268 0.81866 0.62165 0.0
C552 C 0.70776 0.84317 0.67295 0.0
C553 C 0.74789 0.84658 0.63572 0.0
C554 C 0.74434 0.87025 0.71547 0.0
C555 C 0.67541 0.8682 0.73699 0.0
N556 N 0.74456 0.85754 0.66054 0.0
N557 N 0.6744 0.85417 0.71204 0.0
H558 H 0.96094 0.75646 0.97237 0.0
H559 H 0.77087 0.65532 0.072 0.0
H560 H 0.83659 0.67735 0.94486 0.0
H561 H 0.88077 0.77272 0.0846 0.0
H562 H 0.79755 0.65092 0.02837 0.0
H563 H 0.9348 0.75023 1.01682 0.0
C564 C 0.92809 0.73785 0.97555 0.0
C565 C 0.90093 0.7183 0.95451 0.0
C566 C 0.81589 0.67738 0.04086 0.0
C567 C 0.87085 0.7102 1.00588 0.0
C568 C 0.80088 0.67969 0.06567 0.0
C569 C 0.8238 0.71444 0.08163 0.0
C570 C 0.85438 0.70967 0.03245 0.0
C571 C 0.86228 0.74558 0.07269 0.0
C572 C 0.91324 0.73411 1.00106 0.0
C573 C 0.85876 0.69322 0.9603 0.0
N574 N 0.87641 0.74243 0.04875 0.0
N575 N 0.84494 0.69009 0.98546 0.0
H576 H 0.04549 0.76792 0.38549 0.0
H577 H 0.23548 0.94268 0.30905 0.0
H578 H 0.16048 0.84778 0.42439 0.0
H579 H 0.14314 0.83287 0.26996 0.0
H580 H 0.20872 0.90902 0.35158 0.0
H581 H 0.08013 0.79101 0.34291 0.0
C582 C 0.0782 0.79 0.38497 0.0
C583 C 0.10021 0.8062 0.40836 0.0
C584 C 0.19468 0.892 0.33372 0.0
C585 C 0.1399 0.83322 0.35987 0.0
C586 C 0.20982 0.91125 0.30952 0.0
C587 C 0.19133 0.89049 0.2861 0.0
C588 C 0.16016 0.85202 0.33451 0.0
C589 C 0.15831 0.84975 0.28762 0.0
C590 C 0.09798 0.80303 0.36073 0.0
C591 C 0.14257 0.83449 0.40675 0.0
N592 N 0.14329 0.83203 0.31146 0.0
N593 N 0.16095 0.8477 0.38288 0.0
H594 H 0.3287 0.17941 0.75767 0.0
H595 H 0.27163 0.14796 0.60445 0.0
H596 H 0.23478 0.06491 0.72366 0.0
H597 H 0.35979 0.26566 0.6381 0.0
H598 H 0.26155 0.11615 0.64766 0.0
H599 H 0.34453 0.21066 0.71376 0.0
C600 C 0.31169 0.16074 0.74096 0.0
C601 C 0.28014 0.11956 0.74439 0.0
C602 C 0.2832 0.14894 0.64562 0.0
C603 C 0.29782 0.15512 0.69415 0.0
C604 C 0.28916 0.16711 0.62085 0.0
C605 C 0.31657 0.20965 0.61753 0.0
C606 C 0.30481 0.17336 0.66737 0.0
C607 C 0.33792 0.23292 0.63973 0.0
C608 C 0.32054 0.17865 0.71592 0.0
C609 C 0.25883 0.09694 0.72203 0.0
N610 N 0.33157 0.21449 0.66368 0.0
N611 N 0.26799 0.115 0.69795 0.0
H612 H 0.60576 0.54746 0.12434 0.0
H613 H 0.38912 0.44496 0.19509 0.0
H614 H 0.59002 0.53082 0.20827 0.0
H615 H 0.39884 0.40452 0.11735 0.0
H616 H 0.46396 0.48515 0.19764 0.0
H617 H 0.53123 0.50004 0.11884 0.0
C618 C 0.58684 0.53318 0.14153 0.0
C619 C 0.60394 0.54364 0.16683 0.0
C620 C 0.44979 0.46758 0.17997 0.0
C621 C 0.51918 0.49071 0.16071 0.0
C622 C 0.40705 0.44509 0.17835 0.0
C623 C 0.38774 0.42162 0.1559 0.0
C624 C 0.47367 0.46715 0.15886 0.0
C625 C 0.41262 0.42224 0.13502 0.0
C626 C 0.54439 0.50645 0.13837 0.0
C627 C 0.578 0.52442 0.18843 0.0
N628 N 0.45447 0.44491 0.13691 0.0
N629 N 0.53693 0.4995 0.1849 0.0
H630 H 0.98888 0.39259 0.45747 0.0
H631 H 0.05557 0.5996 0.53981 0.0
H632 H 0.95607 0.39327 0.53861 0.0
H633 H 0.04538 0.59596 0.45535 0.0
H634 H 0.03148 0.52533 0.53991 0.0
H635 H 0.0208 0.46848 0.45654 0.0
C636 C 0.98851 0.40872 0.47507 0.0
C637 C 0.96946 0.3866 0.49808 0.0
C638 C 0.03483 0.54085 0.52134 0.0
C639 C 0.00638 0.47313 0.49729 0.0
C640 C 0.04899 0.58333 0.52124 0.0
C641 C 0.05244 0.60404 0.49754 0.0
C642 C 0.02445 0.51885 0.49754 0.0
C643 C 0.04285 0.58114 0.47408 0.0
C644 C 0.00659 0.45191 0.47451 0.0
C645 C 0.96985 0.40903 0.52034 0.0
N646 N 0.02927 0.53978 0.47466 0.0
N647 N 0.98811 0.45097 0.51942 0.0
H648 H 0.43468 0.05025 0.86494 0.0
H649 H 0.549 0.95866 0.77995 0.0
H650 H 0.41488 0.03055 0.78145 0.0
H651 H 0.52832 0.93963 0.86345 0.0
H652 H 0.5051 0.99019 0.77915 0.0
H653 H 0.47634 0.01683 0.86388 0.0
C654 C 0.43963 0.03942 0.8463 0.0
C655 C 0.42149 0.04337 0.82322 0.0
C656 C 0.50988 0.97866 0.79755 0.0
C657 C 0.46866 0.00446 0.82192 0.0
C658 C 0.53485 0.9607 0.79802 0.0
C659 C 0.54216 0.94638 0.82179 0.0
C660 C 0.49284 0.98299 0.82109 0.0
C661 C 0.52309 0.94973 0.84464 0.0
C662 C 0.46299 0.01988 0.84576 0.0
C663 C 0.42825 0.02798 0.79969 0.0
N664 N 0.49969 0.96806 0.84377 0.0
N665 N 0.45147 0.00929 0.7996 0.0
H666 H 0.4639 0.37405 0.56438 0.0
H667 H 0.5334 0.58225 0.49402 0.0
H668 H 0.51249 0.39804 0.48551 0.0
H669 H 0.5853 0.59282 0.57116 0.0
H670 H 0.50737 0.50783 0.49497 0.0
H671 H 0.49723 0.44917 0.57193 0.0
C672 C 0.48299 0.39505 0.54905 0.0
C673 C 0.48509 0.37991 0.52413 0.0
C674 C 0.52402 0.52641 0.51183 0.0
C675 C 0.52124 0.46489 0.53231 0.0
C676 C 0.5384 0.56867 0.51145 0.0
C677 C 0.56194 0.59368 0.5324 0.0
C678 C 0.53256 0.50878 0.53347 0.0
C679 C 0.5672 0.57446 0.55464 0.0
C680 C 0.50146 0.43777 0.5533 0.0
C681 C 0.50968 0.40847 0.50485 0.0
N682 N 0.55283 0.53288 0.55458 0.0
N683 N 0.52582 0.44957 0.50909 0.0
H684 H 0.92413 0.53457 0.82029 0.0
H685 H 0.01223 0.42495 0.90988 0.0
H686 H 0.94269 0.56639 0.90259 0.0
H687 H 0.05318 0.46608 0.83069 0.0
H688 H 0.97828 0.4671 0.91031 0.0
H689 H 0.95827 0.49414 0.82603 0.0
C690 C 0.93494 0.53255 0.83967 0.0
C691 C 0.93133 0.55444 0.86089 0.0
C692 C -0.0046 0.46732 0.89311 0.0
C693 C 0.9705 0.50839 0.86756 0.0
C694 C 0.01507 0.44379 0.89295 0.0
C695 C 0.03509 0.44192 0.87011 0.0
C696 C -0.00453 0.48817 0.87014 0.0
C697 C 0.03759 0.46638 0.84855 0.0
C698 C 0.95462 0.50975 0.84289 0.0
C699 C 0.94501 0.54999 0.88573 0.0
N700 N 0.01736 0.48788 0.84892 0.0
N701 N 0.96445 0.52762 0.88841 0.0
H702 H 0.59374 0.96956 0.20636 0.0
H703 H 0.40852 0.01493 0.19617 0.0
H704 H 0.60799 0.09087 0.21705 0.0
H705 H 0.3896 0.89121 0.20056 0.0
H706 H 0.48152 0.0428 0.20516 0.0
H707 H 0.51919 0.93975 0.20612 0.0
C708 C 0.58129 0.98994 0.20913 0.0
C709 C 0.60743 0.03297 0.21163 0.0
C710 C 0.46151 0.00955 0.20435 0.0
C711 C 0.52178 -0.00113 0.21073 0.0
C712 C 0.41988 0.99363 0.19906 0.0
C713 C 0.39322 0.95074 0.19724 0.0
C714 C 0.47688 0.98244 0.20761 0.0
C715 C 0.40926 0.92448 0.2017 0.0
C716 C 0.53861 0.97283 0.20881 0.0
C717 C 0.58924 0.0577 0.21459 0.0
N718 N 0.45026 0.94078 0.20637 0.0
N719 N 0.54761 0.04034 0.21384 0.0
H720 H 0.09023 0.25712 0.23119 0.0
H721 H 0.90801 0.17105 0.13819 0.0
H722 H 0.1099 0.31214 0.15428 0.0
H723 H 0.88916 0.20064 0.21695 0.0
H724 H 0.98217 0.21969 0.14285 0.0
H725 H 0.01635 0.23306 0.22715 0.0
C726 C 0.07903 0.26497 0.21376 0.0
C727 C 0.10593 0.2868 0.19311 0.0
C728 C 0.96163 0.21632 0.15883 0.0
C729 C 0.02188 0.2582 0.18796 0.0
C730 C 0.91949 0.18866 0.15619 0.0
C731 C 0.89274 0.18233 0.17714 0.0
C732 C 0.97708 0.2363 0.18296 0.0
C733 C 0.90895 0.20526 0.20026 0.0
C734 C 0.03705 0.25134 0.21148 0.0
C735 C 0.09004 0.2958 0.17074 0.0
N736 N 0.95036 0.23052 0.20285 0.0
N737 N 0.04877 0.28049 0.16843 0.0
H738 H 0.75363 0.90292 0.48227 0.0
H739 H 0.80478 0.08878 0.56902 0.0
H740 H 0.68018 0.88113 0.55196 0.0
H741 H 0.7985 0.10018 0.48521 0.0
H742 H 0.75974 0.01351 0.56508 0.0
H743 H 0.77319 0.97617 0.48374 0.0
C744 C 0.74137 0.91364 0.49774 0.0
C745 C 0.71543 0.8863 0.51706 0.0
C746 C 0.76703 0.03264 0.54768 0.0
C747 C 0.7382 0.96979 0.51917 0.0
C748 C 0.79244 0.07547 0.54995 0.0
C749 C 0.80458 0.10043 0.52744 0.0
C750 C 0.75537 0.01481 0.52264 0.0
C751 C 0.78901 0.08185 0.50303 0.0
C752 C 0.75223 0.95523 0.49845 0.0
C753 C 0.70017 0.90146 0.53668 0.0
N754 N 0.76606 0.03992 0.50115 0.0
N755 N 0.71257 0.94256 0.53762 0.0
H756 H 0.67086 0.79191 0.84212 0.0
H757 H 0.88371 0.80454 0.86631 0.0
H758 H 0.76535 0.88155 0.89304 0.0
H759 H 0.77744 0.68688 0.84704 0.0
H760 H 0.83908 0.83313 0.87399 0.0
H761 H 0.70607 0.75108 0.84267 0.0
C762 C 0.69834 0.8024 0.85392 0.0
C763 C 0.71567 0.84042 0.86723 0.0
C764 C 0.82525 0.80094 0.86828 0.0
C765 C 0.75601 0.79465 0.86759 0.0
C766 C 0.85082 0.78469 0.86366 0.0
C767 C 0.8342 0.74341 0.85584 0.0
C768 C 0.78261 0.77607 0.8646 0.0
C769 C 0.79131 0.71893 0.85303 0.0
C770 C 0.71843 0.77924 0.85414 0.0
C771 C 0.75135 0.85279 0.88212 0.0
N772 N 0.76682 0.73583 0.85706 0.0
N773 N 0.7706 0.83031 0.88159 0.0
H774 H 0.8968 0.78207 0.21782 0.0
H775 H 0.10369 0.787 0.17298 0.0
H776 H 0.89157 0.68825 0.16584 0.0
H777 H 0.094 0.89158 0.19956 0.0
H778 H 0.02795 0.7431 0.17712 0.0
H779 H 0.97111 0.81395 0.21959 0.0
C780 C 0.9114 0.76799 0.20685 0.0
C781 C 0.88809 0.73289 0.1913 0.0
C782 C 0.04271 0.77563 0.18211 0.0
C783 C 0.97382 0.76982 0.19293 0.0
C784 C 0.08573 0.80055 0.17986 0.0
C785 C 0.10496 0.84299 0.18573 0.0
C786 C 0.01942 0.79339 0.19085 0.0
C787 C 0.08047 0.85916 0.19451 0.0
C788 C 0.95393 0.78629 0.20784 0.0
C789 C 0.90861 0.7155 0.17794 0.0
N790 N 0.03922 0.83441 0.19683 0.0
N791 N 0.95063 0.73454 0.17875 0.0
H792 H 0.08733 0.90051 0.53023 0.0
H793 H 0.31082 0.10108 0.51492 0.0
H794 H 0.19506 0.89233 0.51074 0.0
H795 H 0.19795 0.10456 0.5216 0.0
H796 H 0.27094 0.02524 0.51703 0.0
H797 H 0.12935 0.97542 0.53118 0.0
C798 C 0.11998 0.91446 0.52624 0.0
C799 C 0.13763 0.88995 0.52027 0.0
C800 C 0.25494 0.04261 0.51809 0.0
C801 C 0.18626 0.9765 0.52126 0.0
C802 C 0.27765 0.08587 0.51695 0.0
C803 C 0.2576 0.1091 0.51805 0.0
C804 C 0.21189 0.02247 0.52053 0.0
C805 C 0.21463 0.08787 0.52063 0.0
C806 C 0.144 0.95743 0.52674 0.0
C807 C 0.18018 0.91002 0.51541 0.0
N808 N 0.19327 0.04583 0.52179 0.0
N809 N 0.20309 0.95221 0.51593 0.0
H810 H 0.17438 0.29943 0.88974 0.0
H811 H 0.29144 0.19898 0.81762 0.0
H812 H 0.13867 0.24504 0.8127 0.0
H813 H 0.24343 0.16144 0.89596 0.0
H814 H 0.26047 0.24362 0.81607 0.0
H815 H 0.2246 0.27516 0.89217 0.0
C816 C 0.17794 0.28329 0.87314 0.0
C817 C 0.15257 0.27391 0.85103 0.0
C818 C 0.25791 0.2265 0.83384 0.0
C819 C 0.20998 0.24749 0.85339 0.0
C820 C 0.27573 0.20143 0.83482 0.0
C821 C 0.26991 0.17689 0.857 0.0
C822 C 0.23524 0.22761 0.85545 0.0
C823 C 0.24853 0.18015 0.87859 0.0
C824 C 0.20631 0.26947 0.87457 0.0
C825 C 0.1577 0.25256 0.8301 0.0
N826 N 0.23181 0.20507 0.87729 0.0
N827 N 0.18599 0.24008 0.83173 0.0
H828 H 0.23435 0.20487 0.162 0.0
H829 H 0.32769 0.07253 0.22086 0.0
H830 H 0.31728 0.2467 0.22817 0.0
H831 H 0.25637 0.04268 0.14947 0.0
H832 H 0.33159 0.14002 0.22163 0.0
H833 H 0.24797 0.14856 0.15533 0.0
C834 C 0.25531 0.20202 0.17528 0.0
C835 C 0.27402 0.22993 0.19604 0.0
C836 C 0.31571 0.11894 0.20558 0.0
C837 C 0.29013 0.16531 0.18839 0.0
C838 C 0.31363 0.08049 0.20504 0.0
C839 C 0.291 0.05168 0.18532 0.0
C840 C 0.29496 0.12839 0.18627 0.0
C841 C 0.27349 0.06364 0.16531 0.0
C842 C 0.26343 0.17 0.17129 0.0
C843 C 0.30193 0.22548 0.2121 0.0
N844 N 0.2754 0.10084 0.1665 0.0
N845 N 0.30876 0.1933 0.20817 0.0
H846 H 0.24473 0.30711 0.52105 0.0
H847 H 0.00026 0.1772 0.52978 0.0
H848 H 0.17656 0.17356 0.51746 0.0
H849 H 0.07223 0.30875 0.54401 0.0
H850 H 0.06362 0.17446 0.52595 0.0
H851 H 0.18141 0.30733 0.52976 0.0
C852 C 0.21632 0.27765 0.52204 0.0
C853 C 0.21593 0.24017 0.51831 0.0
C854 C 0.06558 0.20386 0.53009 0.0
C855 C 0.1428 0.24038 0.52841 0.0
C856 C 0.02942 0.20556 0.53222 0.0
C857 C 0.03097 0.24345 0.53697 0.0
C858 C 0.10366 0.24032 0.53256 0.0
C859 C 0.06958 0.27895 0.54026 0.0
C860 C 0.18009 0.27789 0.52716 0.0
C861 C 0.17817 0.20312 0.5201 0.0
N862 N 0.10442 0.27657 0.53778 0.0
N863 N 0.14293 0.20416 0.52488 0.0
H864 H 0.72567 0.07705 0.88796 0.0
H865 H 0.94371 0.20567 0.81756 0.0
H866 H 0.76225 0.03749 0.81845 0.0
H867 H 0.909 0.24796 0.88679 0.0
H868 H 0.87253 0.14983 0.81309 0.0
H869 H 0.78734 0.14579 0.88342 0.0
C870 C 0.74623 0.08318 0.87147 0.0
C871 C 0.7396 0.0516 0.85388 0.0
C872 C 0.88035 0.17161 0.8291 0.0
C873 C 0.8098 0.12931 0.84863 0.0
C874 C 0.92104 0.20347 0.83165 0.0
C875 C 0.93246 0.23097 0.85286 0.0
C876 C 0.851 0.16699 0.84804 0.0
C877 C 0.90167 0.22704 0.87034 0.0
C878 C 0.78145 0.12223 0.86892 0.0
C879 C 0.76695 0.06086 0.83281 0.0
N880 N 0.86245 0.19522 0.86778 0.0
N881 N 0.80109 0.0987 0.83095 0.0
H882 H 0.67505 0.93278 0.14087 0.0
H883 H 0.73741 0.78335 0.21506 0.0
H884 H 0.76528 0.97021 0.20279 0.0
H885 H 0.67692 0.75316 0.13954 0.0
H886 H 0.73244 0.84591 0.21629 0.0
H887 H 0.66208 0.86151 0.145 0.0
C888 C 0.69188 0.92592 0.1554 0.0
C889 C 0.72172 0.9574 0.17123 0.0
C890 C 0.71985 0.82539 0.19956 0.0
C891 C 0.70664 0.87654 0.17634 0.0
C892 C 0.72256 0.78959 0.19887 0.0
C893 C 0.70833 0.76347 0.1769 0.0
C894 C 0.70292 0.83529 0.1781 0.0
C895 C 0.68871 0.77274 0.15673 0.0
C896 C 0.68448 0.88541 0.15774 0.0
C897 C 0.74258 0.94703 0.18984 0.0
N898 N 0.6871 0.80832 0.15761 0.0
N899 N 0.73468 0.90754 0.19184 0.0
H900 H 0.73706 0.66421 0.55238 0.0
H901 H 0.9449 0.71769 0.47838 0.0
H902 H 0.78468 0.74373 0.48441 0.0
H903 H 0.91415 0.66442 0.55597 0.0
H904 H 0.87655 0.70978 0.47458 0.0
H905 H 0.79224 0.64795 0.54822 0.0
C906 C 0.75881 0.67789 0.53636 0.0
C907 C 0.75676 0.70606 0.51898 0.0
C908 C 0.88442 0.69921 0.4923 0.0
C909 C 0.81975 0.68728 0.51412 0.0
C910 C 0.92337 0.70369 0.49447 0.0
C911 C 0.93524 0.69249 0.51775 0.0
C912 C 0.85726 0.68372 0.51367 0.0
C913 C 0.90607 0.67361 0.53777 0.0
C914 C 0.79027 0.66853 0.53404 0.0
C915 C 0.7855 0.72241 0.49848 0.0
N916 N 0.86847 0.67048 0.53548 0.0
N917 N 0.81608 0.71307 0.49677 0.0
H918 H 0.24417 0.92835 0.88398 0.0
H919 H 0.02975 0.78939 0.81059 0.0
H920 H 0.19649 0.97034 0.8214 0.0
H921 H 0.0652 0.74996 0.88071 0.0
H922 H 0.09838 0.85015 0.80855 0.0
H923 H 0.18578 0.85786 0.8779 0.0
C924 C 0.22167 0.92263 0.86883 0.0
C925 C 0.22459 0.95522 0.85352 0.0
C926 C 0.09135 0.82797 0.82423 0.0
C927 C 0.15844 0.87522 0.84629 0.0
C928 C 0.05217 0.79321 0.82535 0.0
C929 C 0.0415 0.76507 0.84616 0.0
C930 C 0.11996 0.83485 0.84417 0.0
C931 C 0.07201 0.77119 0.8645 0.0
C932 C 0.18844 0.88253 0.86536 0.0
C933 C 0.19488 0.94627 0.83405 0.0
N934 N 0.10974 0.80586 0.86334 0.0
N935 N 0.16297 0.90722 0.83111 0.0
loop_
_geom_bond_atom_site_label_1
_geom_bond_atom_site_label_2
_geom_bond_distance
_geom_bond_site_symmetry_2
_ccdc_geom_bond_type
Co0 N4 2.148 . S
Co0 N10 2.128 . S
Co0 N20 2.194 . S
Co0 O25 2.351 . S
Co0 O26 2.155 . S
Co0 O27 2.096 . S
C1 N4 1.301 . S
C1 N5 1.328 . S
C1 H6 0.930 . S
C2 C3 1.333 . S
C2 N4 1.317 . S
C2 H7 0.930 . S
C3 C2 1.333 . S
C3 N5 1.350 . S
C3 H29 0.931 . S
N4 Co0 2.148 . S
N4 C1 1.301 . S
N4 C2 1.317 . S
N5 C1 1.328 . S
N5 C3 1.350 . S
H6 C1 0.930 . S
H7 C2 0.930 . S
C8 O9 1.224 . S
C8 O27 1.247 . S
O9 C8 1.224 . S
N10 Co0 2.128 . S
N10 C11 1.355 . S
N10 C13 1.311 . S
C11 N10 1.355 . S
C11 C12 1.363 . S
C11 H23 0.929 . S
C12 C11 1.363 . S
C12 N14 1.375 . S
C12 H30 0.931 . S
C13 N10 1.311 . S
C13 N14 1.347 . S
C13 H24 0.929 . S
N14 C12 1.375 . S
N14 C13 1.347 . S
C15 C18 1.365 . S
C15 N20 1.328 . S
C15 H21 0.929 . S
C16 C17 1.362 . S
C16 C19 1.378 . S
C16 H31 0.929 . S
C17 C16 1.362 . S
C17 C18 1.366 . S
C18 C15 1.365 . S
C18 C17 1.366 . S
C18 H32 0.930 . S
C19 C16 1.378 . S
C19 N20 1.315 . S
C19 H22 0.930 . S
N20 Co0 2.194 . S
N20 C15 1.328 . S
N20 C19 1.315 . S
H21 C15 0.929 . S
H22 C19 0.930 . S
H23 C11 0.929 . S
H24 C13 0.929 . S
O25 Co0 2.351 . S
O25 C28 1.244 . S
O26 Co0 2.155 . S
O26 C28 1.240 . S
O27 Co0 2.096 . S
O27 C8 1.247 . S
C28 O25 1.244 . S
C28 O26 1.240 . S
H29 C3 0.931 . S
H30 C12 0.931 . S
H31 C16 0.929 . S
H32 C18 0.930 . S
Co33 N37 2.148 . S
Co33 N43 2.128 . S
Co33 N53 2.194 . S
Co33 O58 2.351 . S
Co33 O59 2.155 . S
Co33 O60 2.096 . S
C34 N37 1.301 . S
C34 N38 1.328 . S
C34 H39 0.930 . S
C35 C36 1.333 . S
C35 N37 1.317 . S
C35 H40 0.930 . S
C36 C35 1.333 . S
C36 N38 1.350 . S
C36 H62 0.931 . S
N37 Co33 2.148 . S
N37 C34 1.301 . S
N37 C35 1.317 . S
N38 C34 1.328 . S
N38 C36 1.350 . S
H39 C34 0.930 . S
H40 C35 0.930 . S
C41 O42 1.224 . S
C41 O60 1.247 1_455 S
O42 C41 1.224 . S
N43 Co33 2.128 . S
N43 C44 1.355 . S
N43 C46 1.311 . S
C44 N43 1.355 . S
C44 C45 1.363 . S
C44 H56 0.929 . S
C45 C44 1.363 . S
C45 N47 1.375 . S
C45 H63 0.931 . S
C46 N43 1.311 . S
C46 N47 1.347 . S
C46 H57 0.929 . S
N47 C45 1.375 . S
N47 C46 1.347 . S
C48 C51 1.365 . S
C48 N53 1.328 . S
C48 H54 0.929 . S
C49 C50 1.362 . S
C49 C52 1.378 . S
C49 H64 0.929 . S
C50 C49 1.362 . S
C50 C51 1.366 . S
C51 C48 1.365 . S
C51 C50 1.366 . S
C51 H65 0.930 . S
C52 C49 1.378 . S
C52 N53 1.315 . S
C52 H55 0.930 . S
N53 Co33 2.194 . S
N53 C48 1.328 . S
N53 C52 1.315 . S
H54 C48 0.929 . S
H55 C52 0.930 . S
H56 C44 0.929 . S
H57 C46 0.929 . S
O58 Co33 2.351 . S
O58 C61 1.244 . S
O59 Co33 2.155 . S
O59 C61 1.240 . S
O60 Co33 2.096 . S
O60 C41 1.247 1_655 S
C61 O58 1.244 . S
C61 O59 1.240 . S
H62 C36 0.931 . S
H63 C45 0.931 . S
H64 C49 0.929 . S
H65 C51 0.930 . S
Co66 N70 2.148 . S
Co66 N76 2.128 . S
Co66 N86 2.194 . S
Co66 O91 2.351 . S
Co66 O92 2.155 . S
Co66 O93 2.096 . S
C67 N70 1.301 . S
C67 N71 1.328 . S
C67 H72 0.930 . S
C68 C69 1.333 . S
C68 N70 1.317 . S
C68 H73 0.930 . S
C69 C68 1.333 . S
C69 N71 1.350 . S
C69 H95 0.931 . S
N70 Co66 2.148 . S
N70 C67 1.301 . S
N70 C68 1.317 . S
N71 C67 1.328 . S
N71 C69 1.350 . S
H72 C67 0.930 . S
H73 C68 0.930 . S
C74 O75 1.224 . S
C74 O93 1.247 1_545 S
O75 C74 1.224 . S
N76 Co66 2.128 . S
N76 C77 1.355 . S
N76 C79 1.311 . S
C77 N76 1.355 . S
C77 C78 1.363 . S
C77 H89 0.929 . S
C78 C77 1.363 . S
C78 N80 1.375 . S
C78 H96 0.931 . S
C79 N76 1.311 . S
C79 N80 1.347 . S
C79 H90 0.929 . S
N80 C78 1.375 . S
N80 C79 1.347 . S
C81 C84 1.365 . S
C81 N86 1.328 . S
C81 H87 0.929 . S
C82 C83 1.362 . S
C82 C85 1.378 . S
C82 H97 0.929 . S
C83 C82 1.362 . S
C83 C84 1.366 . S
C84 C81 1.365 . S
C84 C83 1.366 . S
C84 H98 0.930 . S
C85 C82 1.378 . S
C85 N86 1.315 . S
C85 H88 0.930 . S
N86 Co66 2.194 . S
N86 C81 1.328 . S
N86 C85 1.315 . S
H87 C81 0.929 . S
H88 C85 0.930 . S
H89 C77 0.929 . S
H90 C79 0.929 . S
O91 Co66 2.351 . S
O91 C94 1.244 . S
O92 Co66 2.155 . S
O92 C94 1.240 . S
O93 Co66 2.096 . S
O93 C74 1.247 1_565 S
C94 O91 1.244 . S
C94 O92 1.240 . S
H95 C69 0.931 . S
H96 C78 0.931 . S
H97 C82 0.929 . S
H98 C84 0.930 . S
Co99 N103 2.148 . S
Co99 N109 2.128 . S
Co99 N119 2.194 . S
Co99 O124 2.351 . S
Co99 O125 2.155 . S
Co99 O126 2.096 . S
C100 N103 1.301 . S
C100 N104 1.328 . S
C100 H105 0.930 . S
C101 C102 1.333 . S
C101 N103 1.317 . S
C101 H106 0.930 . S
C102 C101 1.333 . S
C102 N104 1.350 . S
C102 H128 0.931 . S
N103 Co99 2.148 . S
N103 C100 1.301 . S
N103 C101 1.317 . S
N104 C100 1.328 . S
N104 C102 1.350 . S
H105 C100 0.930 . S
H106 C101 0.930 . S
C107 O108 1.224 . S
C107 O126 1.247 . S
O108 C107 1.224 . S
N109 Co99 2.128 . S
N109 C110 1.355 . S
N109 C112 1.311 . S
C110 N109 1.355 . S
C110 C111 1.363 . S
C110 H122 0.929 . S
C111 C110 1.363 . S
C111 N113 1.375 . S
C111 H129 0.931 . S
C112 N109 1.311 . S
C112 N113 1.347 . S
C112 H123 0.929 . S
N113 C111 1.375 . S
N113 C112 1.347 . S
C114 C117 1.365 . S
C114 N119 1.328 . S
C114 H120 0.929 . S
C115 C116 1.362 . S
C115 C118 1.378 . S
C115 H130 0.929 . S
C116 C115 1.362 . S
C116 C117 1.366 . S
C117 C114 1.365 . S
C117 C116 1.366 . S
C117 H131 0.930 . S
C118 C115 1.378 . S
C118 N119 1.315 . S
C118 H121 0.930 . S
N119 Co99 2.194 . S
N119 C114 1.328 . S
N119 C118 1.315 . S
H120 C114 0.929 . S
H121 C118 0.930 . S
H122 C110 0.929 . S
H123 C112 0.929 . S
O124 Co99 2.351 . S
O124 C127 1.244 . S
O125 Co99 2.155 . S
O125 C127 1.240 . S
O126 Co99 2.096 . S
O126 C107 1.247 . S
C127 O124 1.244 . S
C127 O125 1.240 . S
H128 C102 0.931 . S
H129 C111 0.931 . S
H130 C115 0.929 . S
H131 C117 0.930 . S
Co132 N136 2.148 . S
Co132 N142 2.128 . S
Co132 N152 2.194 . S
Co132 O157 2.351 . S
Co132 O158 2.155 . S
Co132 O159 2.096 . S
C133 N136 1.301 . S
C133 N137 1.328 . S
C133 H138 0.930 . S
C134 C135 1.333 . S
C134 N136 1.317 . S
C134 H139 0.930 . S
C135 C134 1.333 . S
C135 N137 1.350 . S
C135 H161 0.931 . S
N136 Co132 2.148 . S
N136 C133 1.301 . S
N136 C134 1.317 . S
N137 C133 1.328 . S
N137 C135 1.350 . S
H138 C133 0.930 . S
H139 C134 0.930 . S
C140 O141 1.224 . S
C140 O159 1.247 1_655 S
O141 C140 1.224 . S
N142 Co132 2.128 . S
N142 C143 1.355 . S
N142 C145 1.311 . S
C143 N142 1.355 . S
C143 C144 1.363 . S
C143 H155 0.929 . S
C144 C143 1.363 . S
C144 N146 1.375 . S
C144 H162 0.931 . S
C145 N142 1.311 . S
C145 N146 1.347 . S
C145 H156 0.929 . S
N146 C144 1.375 . S
N146 C145 1.347 . S
C147 C150 1.365 . S
C147 N152 1.328 . S
C147 H153 0.929 . S
C148 C149 1.362 . S
C148 C151 1.378 . S
C148 H163 0.929 . S
C149 C148 1.362 . S
C149 C150 1.366 . S
C150 C147 1.365 . S
C150 C149 1.366 . S
C150 H164 0.930 . S
C151 C148 1.378 . S
C151 N152 1.315 . S
C151 H154 0.930 . S
N152 Co132 2.194 . S
N152 C147 1.328 . S
N152 C151 1.315 . S
H153 C147 0.929 . S
H154 C151 0.930 . S
H155 C143 0.929 . S
H156 C145 0.929 . S
O157 Co132 2.351 . S
O157 C160 1.244 . S
O158 Co132 2.155 . S
O158 C160 1.240 . S
O159 Co132 2.096 . S
O159 C140 1.247 1_455 S
C160 O157 1.244 . S
C160 O158 1.240 . S
H161 C135 0.931 . S
H162 C144 0.931 . S
H163 C148 0.929 . S
H164 C150 0.930 . S
Co165 N169 2.148 . S
Co165 N175 2.128 . S
Co165 N185 2.194 . S
Co165 O190 2.351 . S
Co165 O191 2.155 . S
Co165 O192 2.096 . S
C166 N169 1.301 . S
C166 N170 1.328 . S
C166 H171 0.930 . S
C167 C168 1.333 . S
C167 N169 1.317 . S
C167 H172 0.930 . S
C168 C167 1.333 . S
C168 N170 1.350 . S
C168 H194 0.931 . S
N169 Co165 2.148 . S
N169 C166 1.301 . S
N169 C167 1.317 . S
N170 C166 1.328 . S
N170 C168 1.350 . S
H171 C166 0.930 . S
H172 C167 0.930 . S
C173 O174 1.224 . S
C173 O192 1.247 1_565 S
O174 C173 1.224 . S
N175 Co165 2.128 . S
N175 C176 1.355 . S
N175 C178 1.311 . S
C176 N175 1.355 . S
C176 C177 1.363 . S
C176 H188 0.929 . S
C177 C176 1.363 . S
C177 N179 1.375 . S
C177 H195 0.931 . S
C178 N175 1.311 . S
C178 N179 1.347 . S
C178 H189 0.929 . S
N179 C177 1.375 . S
N179 C178 1.347 . S
C180 C183 1.365 . S
C180 N185 1.328 . S
C180 H186 0.929 . S
C181 C182 1.362 . S
C181 C184 1.378 . S
C181 H196 0.929 . S
C182 C181 1.362 . S
C182 C183 1.366 . S
C183 C180 1.365 . S
C183 C182 1.366 . S
C183 H197 0.930 . S
C184 C181 1.378 . S
C184 N185 1.315 . S
C184 H187 0.930 . S
N185 Co165 2.194 . S
N185 C180 1.328 . S
N185 C184 1.315 . S
H186 C180 0.929 . S
H187 C184 0.930 . S
H188 C176 0.929 . S
H189 C178 0.929 . S
O190 Co165 2.351 . S
O190 C193 1.244 . S
O191 Co165 2.155 . S
O191 C193 1.240 . S
O192 Co165 2.096 . S
O192 C173 1.247 1_545 S
C193 O190 1.244 . S
C193 O191 1.240 . S
H194 C168 0.931 . S
H195 C177 0.931 . S
H196 C181 0.929 . S
H197 C183 0.930 . S
Co198 N202 2.148 . S
Co198 N208 2.128 . S
Co198 N218 2.194 . S
Co198 O223 2.351 . S
Co198 O224 2.155 . S
Co198 O225 2.096 . S
C199 N202 1.301 . S
C199 N203 1.328 . S
C199 H204 0.930 . S
C200 C201 1.333 . S
C200 N202 1.317 . S
C200 H205 0.930 . S
C201 C200 1.333 . S
C201 N203 1.350 . S
C201 H227 0.931 . S
N202 Co198 2.148 . S
N202 C199 1.301 . S
N202 C200 1.317 . S
N203 C199 1.328 . S
N203 C201 1.350 . S
H204 C199 0.930 . S
H205 C200 0.930 . S
C206 O207 1.224 . S
C206 O225 1.247 . S
O207 C206 1.224 . S
N208 Co198 2.128 . S
N208 C209 1.355 . S
N208 C211 1.311 . S
C209 N208 1.355 . S
C209 C210 1.363 . S
C209 H221 0.929 . S
C210 C209 1.363 . S
C210 N212 1.375 . S
C210 H228 0.931 . S
C211 N208 1.311 . S
C211 N212 1.347 . S
C211 H222 0.929 . S
N212 C210 1.375 . S
N212 C211 1.347 . S
C213 C216 1.365 . S
C213 N218 1.328 . S
C213 H219 0.929 . S
C214 C215 1.362 . S
C214 C217 1.378 . S
C214 H229 0.929 . S
C215 C214 1.362 . S
C215 C216 1.366 . S
C216 C213 1.365 . S
C216 C215 1.366 . S
C216 H230 0.930 . S
C217 C214 1.378 . S
C217 N218 1.315 . S
C217 H220 0.930 . S
N218 Co198 2.194 . S
N218 C213 1.328 . S
N218 C217 1.315 . S
H219 C213 0.929 . S
H220 C217 0.930 . S
H221 C209 0.929 . S
H222 C211 0.929 . S
O223 Co198 2.351 . S
O223 C226 1.244 . S
O224 Co198 2.155 . S
O224 C226 1.240 . S
O225 Co198 2.096 . S
O225 C206 1.247 . S
C226 O223 1.244 . S
C226 O224 1.240 . S
H227 C201 0.931 . S
H228 C210 0.931 . S
H229 C214 0.929 . S
H230 C216 0.930 . S
Co231 N235 2.148 . S
Co231 N241 2.128 . S
Co231 N251 2.194 . S
Co231 O256 2.351 . S
Co231 O257 2.155 . S
Co231 O258 2.096 . S
C232 N235 1.301 . S
C232 N236 1.328 . S
C232 H237 0.930 . S
C233 C234 1.333 . S
C233 N235 1.317 . S
C233 H238 0.930 . S
C234 C233 1.333 . S
C234 N236 1.350 . S
C234 H260 0.931 . S
N235 Co231 2.148 . S
N235 C232 1.301 . S
N235 C233 1.317 . S
N236 C232 1.328 . S
N236 C234 1.350 . S
H237 C232 0.930 . S
H238 C233 0.930 . S
C239 O240 1.224 . S
C239 O258 1.247 1_455 S
O240 C239 1.224 . S
N241 Co231 2.128 . S
N241 C242 1.355 . S
N241 C244 1.311 . S
C242 N241 1.355 . S
C242 C243 1.363 . S
C242 H254 0.929 . S
C243 C242 1.363 . S
C243 N245 1.375 . S
C243 H261 0.931 . S
C244 N241 1.311 . S
C244 N245 1.347 . S
C244 H255 0.929 . S
N245 C243 1.375 . S
N245 C244 1.347 . S
C246 C249 1.365 . S
C246 N251 1.328 . S
C246 H252 0.929 . S
C247 C248 1.362 . S
C247 C250 1.378 . S
C247 H262 0.929 . S
C248 C247 1.362 . S
C248 C249 1.366 . S
C249 C246 1.365 . S
C249 C248 1.366 . S
C249 H263 0.930 . S
C250 C247 1.378 . S
C250 N251 1.315 . S
C250 H253 0.930 . S
N251 Co231 2.194 . S
N251 C246 1.328 . S
N251 C250 1.315 . S
H252 C246 0.929 . S
H253 C250 0.930 . S
H254 C242 0.929 . S
H255 C244 0.929 . S
O256 Co231 2.351 . S
O256 C259 1.244 . S
O257 Co231 2.155 . S
O257 C259 1.240 . S
O258 Co231 2.096 . S
O258 C239 1.247 1_655 S
C259 O256 1.244 . S
C259 O257 1.240 . S
H260 C234 0.931 . S
H261 C243 0.931 . S
H262 C247 0.929 . S
H263 C249 0.930 . S
Co264 N268 2.148 . S
Co264 N274 2.128 . S
Co264 N284 2.194 . S
Co264 O289 2.351 . S
Co264 O290 2.155 . S
Co264 O291 2.096 . S
C265 N268 1.301 . S
C265 N269 1.328 . S
C265 H270 0.930 . S
C266 C267 1.333 . S
C266 N268 1.317 . S
C266 H271 0.930 . S
C267 C266 1.333 . S
C267 N269 1.350 . S
C267 H293 0.931 . S
N268 Co264 2.148 . S
N268 C265 1.301 . S
N268 C266 1.317 . S
N269 C265 1.328 . S
N269 C267 1.350 . S
H270 C265 0.930 . S
H271 C266 0.930 . S
C272 O273 1.224 . S
C272 O291 1.247 1_545 S
O273 C272 1.224 . S
N274 Co264 2.128 . S
N274 C275 1.355 . S
N274 C277 1.311 . S
C275 N274 1.355 . S
C275 C276 1.363 . S
C275 H287 0.929 . S
C276 C275 1.363 . S
C276 N278 1.375 . S
C276 H294 0.931 . S
C277 N274 1.311 . S
C277 N278 1.347 . S
C277 H288 0.929 . S
N278 C276 1.375 . S
N278 C277 1.347 . S
C279 C282 1.365 . S
C279 N284 1.328 . S
C279 H285 0.929 . S
C280 C281 1.362 . S
C280 C283 1.378 . S
C280 H295 0.929 . S
C281 C280 1.362 . S
C281 C282 1.366 . S
C282 C279 1.365 . S
C282 C281 1.366 . S
C282 H296 0.930 . S
C283 C280 1.378 . S
C283 N284 1.315 . S
C283 H286 0.930 . S
N284 Co264 2.194 . S
N284 C279 1.328 . S
N284 C283 1.315 . S
H285 C279 0.929 . S
H286 C283 0.930 . S
H287 C275 0.929 . S
H288 C277 0.929 . S
O289 Co264 2.351 . S
O289 C292 1.244 . S
O290 Co264 2.155 . S
O290 C292 1.240 . S
O291 Co264 2.096 . S
O291 C272 1.247 1_565 S
C292 O289 1.244 . S
C292 O290 1.240 . S
H293 C267 0.931 . S
H294 C276 0.931 . S
H295 C280 0.929 . S
H296 C282 0.930 . S
Co297 N301 2.148 . S
Co297 N307 2.128 . S
Co297 N317 2.194 . S
Co297 O322 2.351 . S
Co297 O323 2.155 . S
Co297 O324 2.096 . S
C298 N301 1.301 . S
C298 N302 1.328 . S
C298 H303 0.930 . S
C299 C300 1.333 . S
C299 N301 1.317 . S
C299 H304 0.930 . S
C300 C299 1.333 . S
C300 N302 1.350 . S
C300 H326 0.931 . S
N301 Co297 2.148 . S
N301 C298 1.301 . S
N301 C299 1.317 . S
N302 C298 1.328 . S
N302 C300 1.350 . S
H303 C298 0.930 . S
H304 C299 0.930 . S
C305 O306 1.224 . S
C305 O324 1.247 . S
O306 C305 1.224 . S
N307 Co297 2.128 . S
N307 C308 1.355 . S
N307 C310 1.311 . S
C308 N307 1.355 . S
C308 C309 1.363 . S
C308 H320 0.929 . S
C309 C308 1.363 . S
C309 N311 1.375 . S
C309 H327 0.931 . S
C310 N307 1.311 . S
C310 N311 1.347 . S
C310 H321 0.929 . S
N311 C309 1.375 . S
N311 C310 1.347 . S
C312 C315 1.365 . S
C312 N317 1.328 . S
C312 H318 0.929 . S
C313 C314 1.362 . S
C313 C316 1.378 . S
C313 H328 0.929 . S
C314 C313 1.362 . S
C314 C315 1.366 . S
C315 C312 1.365 . S
C315 C314 1.366 . S
C315 H329 0.930 . S
C316 C313 1.378 . S
C316 N317 1.315 . S
C316 H319 0.930 . S
N317 Co297 2.194 . S
N317 C312 1.328 . S
N317 C316 1.315 . S
H318 C312 0.929 . S
H319 C316 0.930 . S
H320 C308 0.929 . S
H321 C310 0.929 . S
O322 Co297 2.351 . S
O322 C325 1.244 . S
O323 Co297 2.155 . S
O323 C325 1.240 . S
O324 Co297 2.096 . S
O324 C305 1.247 . S
C325 O322 1.244 . S
C325 O323 1.240 . S
H326 C300 0.931 . S
H327 C309 0.931 . S
H328 C313 0.929 . S
H329 C315 0.930 . S
Co330 N334 2.148 . S
Co330 N340 2.128 . S
Co330 N350 2.194 . S
Co330 O355 2.351 . S
Co330 O356 2.155 . S
Co330 O357 2.096 . S
C331 N334 1.301 . S
C331 N335 1.328 . S
C331 H336 0.930 . S
C332 C333 1.333 . S
C332 N334 1.317 . S
C332 H337 0.930 . S
C333 C332 1.333 . S
C333 N335 1.350 . S
C333 H359 0.931 . S
N334 Co330 2.148 . S
N334 C331 1.301 . S
N334 C332 1.317 . S
N335 C331 1.328 . S
N335 C333 1.350 . S
H336 C331 0.930 . S
H337 C332 0.930 . S
C338 O339 1.224 . S
C338 O357 1.247 1_655 S
O339 C338 1.224 . S
N340 Co330 2.128 . S
N340 C341 1.355 . S
N340 C343 1.311 . S
C341 N340 1.355 . S
C341 C342 1.363 . S
C341 H353 0.929 . S
C342 C341 1.363 . S
C342 N344 1.375 . S
C342 H360 0.931 . S
C343 N340 1.311 . S
C343 N344 1.347 . S
C343 H354 0.929 . S
N344 C342 1.375 . S
N344 C343 1.347 . S
C345 C348 1.365 . S
C345 N350 1.328 . S
C345 H351 0.929 . S
C346 C347 1.362 . S
C346 C349 1.378 . S
C346 H361 0.929 . S
C347 C346 1.362 . S
C347 C348 1.366 . S
C348 C345 1.365 . S
C348 C347 1.366 . S
C348 H362 0.930 . S
C349 C346 1.378 . S
C349 N350 1.315 . S
C349 H352 0.930 . S
N350 Co330 2.194 . S
N350 C345 1.328 . S
N350 C349 1.315 . S
H351 C345 0.929 . S
H352 C349 0.930 . S
H353 C341 0.929 . S
H354 C343 0.929 . S
O355 Co330 2.351 . S
O355 C358 1.244 . S
O356 Co330 2.155 . S
O356 C358 1.240 . S
O357 Co330 2.096 . S
O357 C338 1.247 1_455 S
C358 O355 1.244 . S
C358 O356 1.240 . S
H359 C333 0.931 . S
H360 C342 0.931 . S
H361 C346 0.929 . S
H362 C348 0.930 . S
Co363 N367 2.148 . S
Co363 N373 2.128 . S
Co363 N383 2.194 . S
Co363 O388 2.351 . S
Co363 O389 2.155 . S
Co363 O390 2.096 . S
C364 N367 1.301 . S
C364 N368 1.328 . S
C364 H369 0.930 . S
C365 C366 1.333 . S
C365 N367 1.317 . S
C365 H370 0.930 . S
C366 C365 1.333 . S
C366 N368 1.350 . S
C366 H392 0.931 . S
N367 Co363 2.148 . S
N367 C364 1.301 . S
N367 C365 1.317 . S
N368 C364 1.328 . S
N368 C366 1.350 . S
H369 C364 0.930 . S
H370 C365 0.930 . S
C371 O372 1.224 . S
C371 O390 1.247 1_565 S
O372 C371 1.224 . S
N373 Co363 2.128 . S
N373 C374 1.355 . S
N373 C376 1.311 . S
C374 N373 1.355 . S
C374 C375 1.363 . S
C374 H386 0.929 . S
C375 C374 1.363 . S
C375 N377 1.375 . S
C375 H393 0.931 . S
C376 N373 1.311 . S
C376 N377 1.347 . S
C376 H387 0.929 . S
N377 C375 1.375 . S
N377 C376 1.347 . S
C378 C381 1.365 . S
C378 N383 1.328 . S
C378 H384 0.929 . S
C379 C380 1.362 . S
C379 C382 1.378 . S
C379 H394 0.929 . S
C380 C379 1.362 . S
C380 C381 1.366 . S
C381 C378 1.365 . S
C381 C380 1.366 . S
C381 H395 0.930 . S
C382 C379 1.378 . S
C382 N383 1.315 . S
C382 H385 0.930 . S
N383 Co363 2.194 . S
N383 C378 1.328 . S
N383 C382 1.315 . S
H384 C378 0.929 . S
H385 C382 0.930 . S
H386 C374 0.929 . S
H387 C376 0.929 . S
O388 Co363 2.351 . S
O388 C391 1.244 . S
O389 Co363 2.155 . S
O389 C391 1.240 . S
O390 Co363 2.096 . S
O390 C371 1.247 1_545 S
C391 O388 1.244 . S
C391 O389 1.240 . S
H392 C366 0.931 . S
H393 C375 0.931 . S
H394 C379 0.929 . S
H395 C381 0.930 . S
H396 C402 0.930 . S
H397 C406 0.930 . S
H398 C411 0.929 . S
H399 C409 0.929 . S
H400 C404 0.929 . S
H401 C410 0.929 . S
C402 H396 0.930 . S
C402 C403 1.367 . S
C402 C410 1.378 . S
C403 C402 1.367 . S
C403 C411 1.433 . S
C404 H400 0.929 . S
C404 C406 1.378 . S
C404 C408 1.350 . S
C405 C408 1.463 . S
C405 C410 1.350 . S
C405 N413 1.427 . S
C406 H397 0.930 . S
C406 C404 1.378 . S
C406 C407 1.367 . S
C407 C406 1.367 . S
C407 C409 1.433 . S
C408 C404 1.350 . S
C408 C405 1.463 . S
C408 N412 1.427 . S
C409 H399 0.929 . S
C409 C407 1.433 . S
C409 N412 1.384 . S
C410 H401 0.929 . S
C410 C402 1.378 . S
C410 C405 1.350 . S
C411 H398 0.929 . S
C411 C403 1.433 . S
C411 N413 1.384 . S
N412 C408 1.427 . S
N412 C409 1.384 . S
N413 C405 1.427 . S
N413 C411 1.384 . S
H414 C420 0.930 . S
H415 C424 0.930 . S
H416 C429 0.929 . S
H417 C427 0.929 . S
H418 C422 0.929 . S
H419 C428 0.929 . S
C420 H414 0.930 . S
C420 C421 1.367 . S
C420 C428 1.378 . S
C421 C420 1.367 . S
C421 C429 1.433 . S
C422 H418 0.929 . S
C422 C424 1.378 . S
C422 C426 1.350 . S
C423 C426 1.463 1_655 S
C423 C428 1.350 . S
C423 N431 1.427 . S
C424 H415 0.930 . S
C424 C422 1.378 . S
C424 C425 1.367 . S
C425 C424 1.367 . S
C425 C427 1.433 . S
C426 C422 1.350 . S
C426 C423 1.463 1_455 S
C426 N430 1.427 . S
C427 H417 0.929 . S
C427 C425 1.433 . S
C427 N430 1.384 . S
C428 H419 0.929 . S
C428 C420 1.378 . S
C428 C423 1.350 . S
C429 H416 0.929 . S
C429 C421 1.433 . S
C429 N431 1.384 . S
N430 C426 1.427 . S
N430 C427 1.384 . S
N431 C423 1.427 . S
N431 C429 1.384 . S
H432 C438 0.930 . S
H433 C442 0.930 . S
H434 C447 0.929 . S
H435 C445 0.929 . S
H436 C440 0.929 . S
H437 C446 0.929 . S
C438 H432 0.930 . S
C438 C439 1.367 1_545 S
C438 C446 1.378 . S
C439 C438 1.367 1_565 S
C439 C447 1.433 . S
C440 H436 0.929 . S
C440 C442 1.378 . S
C440 C444 1.350 1_565 S
C441 C444 1.463 1_566 S
C441 C446 1.350 1_565 S
C441 N449 1.427 . S
C442 H433 0.930 . S
C442 C440 1.378 . S
C442 C443 1.367 1_565 S
C443 C442 1.367 1_545 S
C443 C445 1.433 . S
C444 C440 1.350 1_545 S
C444 C441 1.463 1_544 S
C444 N448 1.427 . S
C445 H435 0.929 . S
C445 C443 1.433 . S
C445 N448 1.384 . S
C446 H437 0.929 . S
C446 C438 1.378 . S
C446 C441 1.350 1_545 S
C447 H434 0.929 . S
C447 C439 1.433 . S
C447 N449 1.384 . S
N448 C444 1.427 . S
N448 C445 1.384 . S
N449 C441 1.427 . S
N449 C447 1.384 . S
H450 C456 0.930 . S
H451 C460 0.930 . S
H452 C465 0.929 . S
H453 C463 0.929 . S
H454 C458 0.929 . S
H455 C464 0.929 . S
C456 H450 0.930 . S
C456 C457 1.367 . S
C456 C464 1.378 . S
C457 C456 1.367 . S
C457 C465 1.433 . S
C458 H454 0.929 . S
C458 C460 1.378 . S
C458 C462 1.350 . S
C459 C462 1.463 . S
C459 C464 1.350 . S
C459 N467 1.427 . S
C460 H451 0.930 . S
C460 C458 1.378 . S
C460 C461 1.367 . S
C461 C460 1.367 . S
C461 C463 1.433 . S
C462 C458 1.350 . S
C462 C459 1.463 . S
C462 N466 1.427 . S
C463 H453 0.929 . S
C463 C461 1.433 . S
C463 N466 1.384 . S
C464 H455 0.929 . S
C464 C456 1.378 . S
C464 C459 1.350 . S
C465 H452 0.929 . S
C465 C457 1.433 . S
C465 N467 1.384 . S
N466 C462 1.427 . S
N466 C463 1.384 . S
N467 C459 1.427 . S
N467 C465 1.384 . S
H468 C474 0.930 . S
H469 C478 0.930 . S
H470 C483 0.929 . S
H471 C481 0.929 . S
H472 C476 0.929 . S
H473 C482 0.929 . S
C474 H468 0.930 . S
C474 C475 1.367 . S
C474 C482 1.378 . S
C475 C474 1.367 . S
C475 C483 1.433 1_455 S
C476 H472 0.929 . S
C476 C478 1.378 . S
C476 C480 1.350 . S
C477 C480 1.463 1_455 S
C477 C482 1.350 . S
C477 N485 1.427 1_455 S
C478 H469 0.930 . S
C478 C476 1.378 . S
C478 C479 1.367 . S
C479 C478 1.367 . S
C479 C481 1.433 1_655 S
C480 C476 1.350 . S
C480 C477 1.463 1_655 S
C480 N484 1.427 1_655 S
C481 H471 0.929 . S
C481 C479 1.433 1_455 S
C481 N484 1.384 . S
C482 H473 0.929 . S
C482 C474 1.378 . S
C482 C477 1.350 . S
C483 H470 0.929 . S
C483 C475 1.433 1_655 S
C483 N485 1.384 . S
N484 C480 1.427 1_455 S
N484 C481 1.384 . S
N485 C477 1.427 1_655 S
N485 C483 1.384 . S
H486 C492 0.930 . S
H487 C496 0.930 . S
H488 C501 0.929 . S
H489 C499 0.929 . S
H490 C494 0.929 . S
H491 C500 0.929 . S
C492 H486 0.930 . S
C492 C493 1.367 1_565 S
C492 C500 1.378 . S
C493 C492 1.367 1_545 S
C493 C501 1.433 . S
C494 H490 0.929 . S
C494 C496 1.378 . S
C494 C498 1.350 1_545 S
C495 C498 1.463 1_546 S
C495 C500 1.350 1_545 S
C495 N503 1.427 . S
C496 H487 0.930 . S
C496 C494 1.378 . S
C496 C497 1.367 1_545 S
C497 C496 1.367 1_565 S
C497 C499 1.433 . S
C498 C494 1.350 1_565 S
C498 C495 1.463 1_564 S
C498 N502 1.427 . S
C499 H489 0.929 . S
C499 C497 1.433 . S
C499 N502 1.384 . S
C500 H491 0.929 . S
C500 C492 1.378 . S
C500 C495 1.350 1_565 S
C501 H488 0.929 . S
C501 C493 1.433 . S
C501 N503 1.384 . S
N502 C498 1.427 . S
N502 C499 1.384 . S
N503 C495 1.427 . S
N503 C501 1.384 . S
H504 C510 0.930 . S
H505 C514 0.930 . S
H506 C519 0.929 . S
H507 C517 0.929 . S
H508 C512 0.929 . S
H509 C518 0.929 . S
C510 H504 0.930 . S
C510 C511 1.367 . S
C510 C518 1.378 . S
C511 C510 1.367 . S
C511 C519 1.433 . S
C512 H508 0.929 . S
C512 C514 1.378 . S
C512 C516 1.350 . S
C513 C516 1.463 1_556 S
C513 C518 1.350 . S
C513 N521 1.427 . S
C514 H505 0.930 . S
C514 C512 1.378 . S
C514 C515 1.367 . S
C515 C514 1.367 . S
C515 C517 1.433 . S
C516 C512 1.350 . S
C516 C513 1.463 1_554 S
C516 N520 1.427 . S
C517 H507 0.929 . S
C517 C515 1.433 . S
C517 N520 1.384 . S
C518 H509 0.929 . S
C518 C510 1.378 . S
C518 C513 1.350 . S
C519 H506 0.929 . S
C519 C511 1.433 . S
C519 N521 1.384 . S
N520 C516 1.427 . S
N520 C517 1.384 . S
N521 C513 1.427 . S
N521 C519 1.384 . S
H522 C528 0.930 . S
H523 C532 0.930 . S
H524 C537 0.929 . S
H525 C535 0.929 . S
H526 C530 0.929 . S
H527 C536 0.929 . S
C528 H522 0.930 . S
C528 C529 1.367 . S
C528 C536 1.378 . S
C529 C528 1.367 . S
C529 C537 1.433 . S
C530 H526 0.929 . S
C530 C532 1.378 . S
C530 C534 1.350 . S
C531 C534 1.463 . S
C531 C536 1.350 . S
C531 N539 1.427 . S
C532 H523 0.930 . S
C532 C530 1.378 . S
C532 C533 1.367 . S
C533 C532 1.367 . S
C533 C535 1.433 . S
C534 C530 1.350 . S
C534 C531 1.463 . S
C534 N538 1.427 . S
C535 H525 0.929 . S
C535 C533 1.433 . S
C535 N538 1.384 . S
C536 H527 0.929 . S
C536 C528 1.378 . S
C536 C531 1.350 . S
C537 H524 0.929 . S
C537 C529 1.433 . S
C537 N539 1.384 . S
N538 C534 1.427 . S
N538 C535 1.384 . S
N539 C531 1.427 . S
N539 C537 1.384 . S
H540 C546 0.930 . S
H541 C550 0.930 . S
H542 C555 0.929 . S
H543 C553 0.929 . S
H544 C548 0.929 . S
H545 C554 0.929 . S
C546 H540 0.930 . S
C546 C547 1.367 . S
C546 C554 1.378 . S
C547 C546 1.367 . S
C547 C555 1.433 . S
C548 H544 0.929 . S
C548 C550 1.378 . S
C548 C552 1.350 . S
C549 C552 1.463 . S
C549 C554 1.350 . S
C549 N557 1.427 . S
C550 H541 0.930 . S
C550 C548 1.378 . S
C550 C551 1.367 . S
C551 C550 1.367 . S
C551 C553 1.433 . S
C552 C548 1.350 . S
C552 C549 1.463 . S
C552 N556 1.427 . S
C553 H543 0.929 . S
C553 C551 1.433 . S
C553 N556 1.384 . S
C554 H545 0.929 . S
C554 C546 1.378 . S
C554 C549 1.350 . S
C555 H542 0.929 . S
C555 C547 1.433 . S
C555 N557 1.384 . S
N556 C552 1.427 . S
N556 C553 1.384 . S
N557 C549 1.427 . S
N557 C555 1.384 . S
H558 C564 0.930 . S
H559 C568 0.930 . S
H560 C573 0.929 . S
H561 C571 0.929 . S
H562 C566 0.929 . S
H563 C572 0.929 . S
C564 H558 0.930 . S
C564 C565 1.367 . S
C564 C572 1.378 . S
C565 C564 1.367 . S
C565 C573 1.433 . S
C566 H562 0.929 . S
C566 C568 1.378 . S
C566 C570 1.350 . S
C567 C570 1.463 1_556 S
C567 C572 1.350 . S
C567 N575 1.427 . S
C568 H559 0.930 . S
C568 C566 1.378 . S
C568 C569 1.367 . S
C569 C568 1.367 . S
C569 C571 1.433 . S
C570 C566 1.350 . S
C570 C567 1.463 1_554 S
C570 N574 1.427 . S
C571 H561 0.929 . S
C571 C569 1.433 . S
C571 N574 1.384 . S
C572 H563 0.929 . S
C572 C564 1.378 . S
C572 C567 1.350 . S
C573 H560 0.929 . S
C573 C565 1.433 . S
C573 N575 1.384 . S
N574 C570 1.427 . S
N574 C571 1.384 . S
N575 C567 1.427 . S
N575 C573 1.384 . S
H576 C582 0.930 . S
H577 C586 0.930 . S
H578 C591 0.929 . S
H579 C589 0.929 . S
H580 C584 0.929 . S
H581 C590 0.929 . S
C582 H576 0.930 . S
C582 C583 1.367 . S
C582 C590 1.378 . S
C583 C582 1.367 . S
C583 C591 1.433 . S
C584 H580 0.929 . S
C584 C586 1.378 . S
C584 C588 1.350 . S
C585 C588 1.463 . S
C585 C590 1.350 . S
C585 N593 1.427 . S
C586 H577 0.930 . S
C586 C584 1.378 . S
C586 C587 1.367 . S
C587 C586 1.367 . S
C587 C589 1.433 . S
C588 C584 1.350 . S
C588 C585 1.463 . S
C588 N592 1.427 . S
C589 H579 0.929 . S
C589 C587 1.433 . S
C589 N592 1.384 . S
C590 H581 0.929 . S
C590 C582 1.378 . S
C590 C585 1.350 . S
C591 H578 0.929 . S
C591 C583 1.433 . S
C591 N593 1.384 . S
N592 C588 1.427 . S
N592 C589 1.384 . S
N593 C585 1.427 . S
N593 C591 1.384 . S
H594 C600 0.930 . S
H595 C604 0.930 . S
H596 C609 0.929 . S
H597 C607 0.929 . S
H598 C602 0.929 . S
H599 C608 0.929 . S
C600 H594 0.930 . S
C600 C601 1.367 . S
C600 C608 1.378 . S
C601 C600 1.367 . S
C601 C609 1.433 . S
C602 H598 0.929 . S
C602 C604 1.378 . S
C602 C606 1.350 . S
C603 C606 1.463 . S
C603 C608 1.350 . S
C603 N611 1.427 . S
C604 H595 0.930 . S
C604 C602 1.378 . S
C604 C605 1.367 . S
C605 C604 1.367 . S
C605 C607 1.433 . S
C606 C602 1.350 . S
C606 C603 1.463 . S
C606 N610 1.427 . S
C607 H597 0.929 . S
C607 C605 1.433 . S
C607 N610 1.384 . S
C608 H599 0.929 . S
C608 C600 1.378 . S
C608 C603 1.350 . S
C609 H596 0.929 . S
C609 C601 1.433 . S
C609 N611 1.384 . S
N610 C606 1.427 . S
N610 C607 1.384 . S
N611 C603 1.427 . S
N611 C609 1.384 . S
H612 C618 0.930 . S
H613 C622 0.930 . S
H614 C627 0.929 . S
H615 C625 0.929 . S
H616 C620 0.929 . S
H617 C626 0.929 . S
C618 H612 0.930 . S
C618 C619 1.367 . S
C618 C626 1.378 . S
C619 C618 1.367 . S
C619 C627 1.433 . S
C620 H616 0.929 . S
C620 C622 1.378 . S
C620 C624 1.350 . S
C621 C624 1.463 . S
C621 C626 1.350 . S
C621 N629 1.427 . S
C622 H613 0.930 . S
C622 C620 1.378 . S
C622 C623 1.367 . S
C623 C622 1.367 . S
C623 C625 1.433 . S
C624 C620 1.350 . S
C624 C621 1.463 . S
C624 N628 1.427 . S
C625 H615 0.929 . S
C625 C623 1.433 . S
C625 N628 1.384 . S
C626 H617 0.929 . S
C626 C618 1.378 . S
C626 C621 1.350 . S
C627 H614 0.929 . S
C627 C619 1.433 . S
C627 N629 1.384 . S
N628 C624 1.427 . S
N628 C625 1.384 . S
N629 C621 1.427 . S
N629 C627 1.384 . S
H630 C636 0.930 . S
H631 C640 0.930 . S
H632 C645 0.929 . S
H633 C643 0.929 . S
H634 C638 0.929 . S
H635 C644 0.929 . S
C636 H630 0.930 . S
C636 C637 1.367 . S
C636 C644 1.378 . S
C637 C636 1.367 . S
C637 C645 1.433 . S
C638 H634 0.929 . S
C638 C640 1.378 . S
C638 C642 1.350 . S
C639 C642 1.463 1_655 S
C639 C644 1.350 . S
C639 N647 1.427 . S
C640 H631 0.930 . S
C640 C638 1.378 . S
C640 C641 1.367 . S
C641 C640 1.367 . S
C641 C643 1.433 . S
C642 C638 1.350 . S
C642 C639 1.463 1_455 S
C642 N646 1.427 . S
C643 H633 0.929 . S
C643 C641 1.433 . S
C643 N646 1.384 . S
C644 H635 0.929 . S
C644 C636 1.378 . S
C644 C639 1.350 . S
C645 H632 0.929 . S
C645 C637 1.433 . S
C645 N647 1.384 . S
N646 C642 1.427 . S
N646 C643 1.384 . S
N647 C639 1.427 . S
N647 C645 1.384 . S
H648 C654 0.930 . S
H649 C658 0.930 . S
H650 C663 0.929 . S
H651 C661 0.929 . S
H652 C656 0.929 1_545 S
H653 C662 0.929 1_565 S
C654 H648 0.930 . S
C654 C655 1.367 . S
C654 C662 1.378 . S
C655 C654 1.367 . S
C655 C663 1.433 . S
C656 H652 0.929 1_565 S
C656 C658 1.378 . S
C656 C660 1.350 . S
C657 C660 1.463 1_545 S
C657 C662 1.350 . S
C657 N665 1.427 . S
C658 H649 0.930 . S
C658 C656 1.378 . S
C658 C659 1.367 . S
C659 C658 1.367 . S
C659 C661 1.433 . S
C660 C656 1.350 . S
C660 C657 1.463 1_565 S
C660 N664 1.427 . S
C661 H651 0.929 . S
C661 C659 1.433 . S
C661 N664 1.384 . S
C662 H653 0.929 1_545 S
C662 C654 1.378 . S
C662 C657 1.350 . S
C663 H650 0.929 . S
C663 C655 1.433 . S
C663 N665 1.384 . S
N664 C660 1.427 . S
N664 C661 1.384 . S
N665 C657 1.427 . S
N665 C663 1.384 . S
H666 C672 0.930 . S
H667 C676 0.930 . S
H668 C681 0.929 . S
H669 C679 0.929 . S
H670 C674 0.929 . S
H671 C680 0.929 . S
C672 H666 0.930 . S
C672 C673 1.367 . S
C672 C680 1.378 . S
C673 C672 1.367 . S
C673 C681 1.433 . S
C674 H670 0.929 . S
C674 C676 1.378 . S
C674 C678 1.350 . S
C675 C678 1.463 . S
C675 C680 1.350 . S
C675 N683 1.427 . S
C676 H667 0.930 . S
C676 C674 1.378 . S
C676 C677 1.367 . S
C677 C676 1.367 . S
C677 C679 1.433 . S
C678 C674 1.350 . S
C678 C675 1.463 . S
C678 N682 1.427 . S
C679 H669 0.929 . S
C679 C677 1.433 . S
C679 N682 1.384 . S
C680 H671 0.929 . S
C680 C672 1.378 . S
C680 C675 1.350 . S
C681 H668 0.929 . S
C681 C673 1.433 . S
C681 N683 1.384 . S
N682 C678 1.427 . S
N682 C679 1.384 . S
N683 C675 1.427 . S
N683 C681 1.384 . S
H684 C690 0.930 . S
H685 C694 0.930 . S
H686 C699 0.929 . S
H687 C697 0.929 . S
H688 C692 0.929 . S
H689 C698 0.929 . S
C690 H684 0.930 . S
C690 C691 1.367 . S
C690 C698 1.378 . S
C691 C690 1.367 . S
C691 C699 1.433 . S
C692 H688 0.929 . S
C692 C694 1.378 . S
C692 C696 1.350 . S
C693 C696 1.463 1_655 S
C693 C698 1.350 . S
C693 N701 1.427 . S
C694 H685 0.930 . S
C694 C692 1.378 . S
C694 C695 1.367 . S
C695 C694 1.367 . S
C695 C697 1.433 . S
C696 C692 1.350 . S
C696 C693 1.463 1_455 S
C696 N700 1.427 . S
C697 H687 0.929 . S
C697 C695 1.433 . S
C697 N700 1.384 . S
C698 H689 0.929 . S
C698 C690 1.378 . S
C698 C693 1.350 . S
C699 H686 0.929 . S
C699 C691 1.433 . S
C699 N701 1.384 . S
N700 C696 1.427 . S
N700 C697 1.384 . S
N701 C693 1.427 . S
N701 C699 1.384 . S
H702 C708 0.930 . S
H703 C712 0.930 . S
H704 C717 0.929 . S
H705 C715 0.929 . S
H706 C710 0.929 . S
H707 C716 0.929 . S
C708 H702 0.930 . S
C708 C709 1.367 . S
C708 C716 1.378 1_545 S
C709 C708 1.367 . S
C709 C717 1.433 . S
C710 H706 0.929 . S
C710 C712 1.378 1_545 S
C710 C714 1.350 1_545 S
C711 C714 1.463 1_545 S
C711 C716 1.350 1_545 S
C711 N719 1.427 . S
C712 H703 0.930 . S
C712 C710 1.378 1_565 S
C712 C713 1.367 . S
C713 C712 1.367 . S
C713 C715 1.433 . S
C714 C710 1.350 1_565 S
C714 C711 1.463 1_565 S
C714 N718 1.427 . S
C715 H705 0.929 . S
C715 C713 1.433 . S
C715 N718 1.384 . S
C716 H707 0.929 . S
C716 C708 1.378 1_565 S
C716 C711 1.350 1_565 S
C717 H704 0.929 . S
C717 C709 1.433 . S
C717 N719 1.384 . S
N718 C714 1.427 . S
N718 C715 1.384 . S
N719 C711 1.427 . S
N719 C717 1.384 . S
H720 C726 0.930 . S
H721 C730 0.930 . S
H722 C735 0.929 . S
H723 C733 0.929 . S
H724 C728 0.929 . S
H725 C734 0.929 . S
C726 H720 0.930 . S
C726 C727 1.367 . S
C726 C734 1.378 . S
C727 C726 1.367 . S
C727 C735 1.433 . S
C728 H724 0.929 . S
C728 C730 1.378 . S
C728 C732 1.350 . S
C729 C732 1.463 1_455 S
C729 C734 1.350 . S
C729 N737 1.427 . S
C730 H721 0.930 . S
C730 C728 1.378 . S
C730 C731 1.367 . S
C731 C730 1.367 . S
C731 C733 1.433 . S
C732 C728 1.350 . S
C732 C729 1.463 1_655 S
C732 N736 1.427 . S
C733 H723 0.929 . S
C733 C731 1.433 . S
C733 N736 1.384 . S
C734 H725 0.929 . S
C734 C726 1.378 . S
C734 C729 1.350 . S
C735 H722 0.929 . S
C735 C727 1.433 . S
C735 N737 1.384 . S
N736 C732 1.427 . S
N736 C733 1.384 . S
N737 C729 1.427 . S
N737 C735 1.384 . S
H738 C744 0.930 . S
H739 C748 0.930 . S
H740 C753 0.929 . S
H741 C751 0.929 . S
H742 C746 0.929 . S
H743 C752 0.929 . S
C744 H738 0.930 . S
C744 C745 1.367 . S
C744 C752 1.378 . S
C745 C744 1.367 . S
C745 C753 1.433 . S
C746 H742 0.929 . S
C746 C748 1.378 . S
C746 C750 1.350 . S
C747 C750 1.463 1_565 S
C747 C752 1.350 . S
C747 N755 1.427 . S
C748 H739 0.930 . S
C748 C746 1.378 . S
C748 C749 1.367 . S
C749 C748 1.367 . S
C749 C751 1.433 . S
C750 C746 1.350 . S
C750 C747 1.463 1_545 S
C750 N754 1.427 . S
C751 H741 0.929 . S
C751 C749 1.433 . S
C751 N754 1.384 . S
C752 H743 0.929 . S
C752 C744 1.378 . S
C752 C747 1.350 . S
C753 H740 0.929 . S
C753 C745 1.433 . S
C753 N755 1.384 . S
N754 C750 1.427 . S
N754 C751 1.384 . S
N755 C747 1.427 . S
N755 C753 1.384 . S
H756 C762 0.930 . S
H757 C766 0.930 . S
H758 C771 0.929 . S
H759 C769 0.929 . S
H760 C764 0.929 . S
H761 C770 0.929 . S
C762 H756 0.930 . S
C762 C763 1.367 . S
C762 C770 1.378 . S
C763 C762 1.367 . S
C763 C771 1.433 . S
C764 H760 0.929 . S
C764 C766 1.378 . S
C764 C768 1.350 . S
C765 C768 1.463 . S
C765 C770 1.350 . S
C765 N773 1.427 . S
C766 H757 0.930 . S
C766 C764 1.378 . S
C766 C767 1.367 . S
C767 C766 1.367 . S
C767 C769 1.433 . S
C768 C764 1.350 . S
C768 C765 1.463 . S
C768 N772 1.427 . S
C769 H759 0.929 . S
C769 C767 1.433 . S
C769 N772 1.384 . S
C770 H761 0.929 . S
C770 C762 1.378 . S
C770 C765 1.350 . S
C771 H758 0.929 . S
C771 C763 1.433 . S
C771 N773 1.384 . S
N772 C768 1.427 . S
N772 C769 1.384 . S
N773 C765 1.427 . S
N773 C771 1.384 . S
H774 C780 0.930 . S
H775 C784 0.930 . S
H776 C789 0.929 . S
H777 C787 0.929 . S
H778 C782 0.929 . S
H779 C788 0.929 . S
C780 H774 0.930 . S
C780 C781 1.367 . S
C780 C788 1.378 . S
C781 C780 1.367 . S
C781 C789 1.433 . S
C782 H778 0.929 . S
C782 C784 1.378 . S
C782 C786 1.350 . S
C783 C786 1.463 1_655 S
C783 C788 1.350 . S
C783 N791 1.427 . S
C784 H775 0.930 . S
C784 C782 1.378 . S
C784 C785 1.367 . S
C785 C784 1.367 . S
C785 C787 1.433 . S
C786 C782 1.350 . S
C786 C783 1.463 1_455 S
C786 N790 1.427 . S
C787 H777 0.929 . S
C787 C785 1.433 . S
C787 N790 1.384 . S
C788 H779 0.929 . S
C788 C780 1.378 . S
C788 C783 1.350 . S
C789 H776 0.929 . S
C789 C781 1.433 . S
C789 N791 1.384 . S
N790 C786 1.427 . S
N790 C787 1.384 . S
N791 C783 1.427 . S
N791 C789 1.384 . S
H792 C798 0.930 . S
H793 C802 0.930 . S
H794 C807 0.929 . S
H795 C805 0.929 . S
H796 C800 0.929 . S
H797 C806 0.929 . S
C798 H792 0.930 . S
C798 C799 1.367 . S
C798 C806 1.378 . S
C799 C798 1.367 . S
C799 C807 1.433 . S
C800 H796 0.929 . S
C800 C802 1.378 . S
C800 C804 1.350 . S
C801 C804 1.463 1_565 S
C801 C806 1.350 . S
C801 N809 1.427 . S
C802 H793 0.930 . S
C802 C800 1.378 . S
C802 C803 1.367 . S
C803 C802 1.367 . S
C803 C805 1.433 . S
C804 C800 1.350 . S
C804 C801 1.463 1_545 S
C804 N808 1.427 . S
C805 H795 0.929 . S
C805 C803 1.433 . S
C805 N808 1.384 . S
C806 H797 0.929 . S
C806 C798 1.378 . S
C806 C801 1.350 . S
C807 H794 0.929 . S
C807 C799 1.433 . S
C807 N809 1.384 . S
N808 C804 1.427 . S
N808 C805 1.384 . S
N809 C801 1.427 . S
N809 C807 1.384 . S
H810 C816 0.930 . S
H811 C820 0.930 . S
H812 C825 0.929 . S
H813 C823 0.929 . S
H814 C818 0.929 . S
H815 C824 0.929 . S
C816 H810 0.930 . S
C816 C817 1.367 . S
C816 C824 1.378 . S
C817 C816 1.367 . S
C817 C825 1.433 . S
C818 H814 0.929 . S
C818 C820 1.378 . S
C818 C822 1.350 . S
C819 C822 1.463 . S
C819 C824 1.350 . S
C819 N827 1.427 . S
C820 H811 0.930 . S
C820 C818 1.378 . S
C820 C821 1.367 . S
C821 C820 1.367 . S
C821 C823 1.433 . S
C822 C818 1.350 . S
C822 C819 1.463 . S
C822 N826 1.427 . S
C823 H813 0.929 . S
C823 C821 1.433 . S
C823 N826 1.384 . S
C824 H815 0.929 . S
C824 C816 1.378 . S
C824 C819 1.350 . S
C825 H812 0.929 . S
C825 C817 1.433 . S
C825 N827 1.384 . S
N826 C822 1.427 . S
N826 C823 1.384 . S
N827 C819 1.427 . S
N827 C825 1.384 . S
H828 C834 0.930 . S
H829 C838 0.930 . S
H830 C843 0.929 . S
H831 C841 0.929 . S
H832 C836 0.929 . S
H833 C842 0.929 . S
C834 H828 0.930 . S
C834 C835 1.367 . S
C834 C842 1.378 . S
C835 C834 1.367 . S
C835 C843 1.433 . S
C836 H832 0.929 . S
C836 C838 1.378 . S
C836 C840 1.350 . S
C837 C840 1.463 . S
C837 C842 1.350 . S
C837 N845 1.427 . S
C838 H829 0.930 . S
C838 C836 1.378 . S
C838 C839 1.367 . S
C839 C838 1.367 . S
C839 C841 1.433 . S
C840 C836 1.350 . S
C840 C837 1.463 . S
C840 N844 1.427 . S
C841 H831 0.929 . S
C841 C839 1.433 . S
C841 N844 1.384 . S
C842 H833 0.929 . S
C842 C834 1.378 . S
C842 C837 1.350 . S
C843 H830 0.929 . S
C843 C835 1.433 . S
C843 N845 1.384 . S
N844 C840 1.427 . S
N844 C841 1.384 . S
N845 C837 1.427 . S
N845 C843 1.384 . S
H846 C852 0.930 . S
H847 C856 0.918 1_655 S
H848 C861 0.929 . S
H849 C859 0.929 . S
H850 C854 0.929 . S
H851 C860 0.929 . S
C852 H846 0.930 . S
C852 C853 1.367 . S
C852 C860 1.378 . S
C853 C852 1.367 . S
C853 C861 1.433 . S
C854 H850 0.929 . S
C854 C856 1.378 . S
C854 C858 1.350 . S
C855 C858 1.463 . S
C855 C860 1.350 . S
C855 N863 1.427 . S
C856 H847 0.918 1_455 S
C856 C854 1.378 . S
C856 C857 1.367 . S
C857 C856 1.367 . S
C857 C859 1.433 . S
C858 C854 1.350 . S
C858 C855 1.463 . S
C858 N862 1.427 . S
C859 H849 0.929 . S
C859 C857 1.433 . S
C859 N862 1.384 . S
C860 H851 0.929 . S
C860 C852 1.378 . S
C860 C855 1.350 . S
C861 H848 0.929 . S
C861 C853 1.433 . S
C861 N863 1.384 . S
N862 C858 1.427 . S
N862 C859 1.384 . S
N863 C855 1.427 . S
N863 C861 1.384 . S
H864 C870 0.930 . S
H865 C874 0.930 . S
H866 C879 0.929 . S
H867 C877 0.929 . S
H868 C872 0.929 . S
H869 C878 0.929 . S
C870 H864 0.930 . S
C870 C871 1.367 . S
C870 C878 1.378 . S
C871 C870 1.367 . S
C871 C879 1.433 . S
C872 H868 0.929 . S
C872 C874 1.378 . S
C872 C876 1.350 . S
C873 C876 1.463 . S
C873 C878 1.350 . S
C873 N881 1.427 . S
C874 H865 0.930 . S
C874 C872 1.378 . S
C874 C875 1.367 . S
C875 C874 1.367 . S
C875 C877 1.433 . S
C876 C872 1.350 . S
C876 C873 1.463 . S
C876 N880 1.427 . S
C877 H867 0.929 . S
C877 C875 1.433 . S
C877 N880 1.384 . S
C878 H869 0.929 . S
C878 C870 1.378 . S
C878 C873 1.350 . S
C879 H866 0.929 . S
C879 C871 1.433 . S
C879 N881 1.384 . S
N880 C876 1.427 . S
N880 C877 1.384 . S
N881 C873 1.427 . S
N881 C879 1.384 . S
H882 C888 0.930 . S
H883 C892 0.930 . S
H884 C897 0.929 . S
H885 C895 0.929 . S
H886 C890 0.929 . S
H887 C896 0.929 . S
C888 H882 0.930 . S
C888 C889 1.367 . S
C888 C896 1.378 . S
C889 C888 1.367 . S
C889 C897 1.433 . S
C890 H886 0.929 . S
C890 C892 1.378 . S
C890 C894 1.350 . S
C891 C894 1.463 . S
C891 C896 1.350 . S
C891 N899 1.427 . S
C892 H883 0.930 . S
C892 C890 1.378 . S
C892 C893 1.367 . S
C893 C892 1.367 . S
C893 C895 1.433 . S
C894 C890 1.350 . S
C894 C891 1.463 . S
C894 N898 1.427 . S
C895 H885 0.929 . S
C895 C893 1.433 . S
C895 N898 1.384 . S
C896 H887 0.929 . S
C896 C888 1.378 . S
C896 C891 1.350 . S
C897 H884 0.929 . S
C897 C889 1.433 . S
C897 N899 1.384 . S
N898 C894 1.427 . S
N898 C895 1.384 . S
N899 C891 1.427 . S
N899 C897 1.384 . S
H900 C906 0.930 . S
H901 C910 0.930 . S
H902 C915 0.929 . S
H903 C913 0.929 . S
H904 C908 0.929 . S
H905 C914 0.929 . S
C906 H900 0.930 . S
C906 C907 1.367 . S
C906 C914 1.378 . S
C907 C906 1.367 . S
C907 C915 1.433 . S
C908 H904 0.929 . S
C908 C910 1.378 . S
C908 C912 1.350 . S
C909 C912 1.463 . S
C909 C914 1.350 . S
C909 N917 1.427 . S
C910 H901 0.930 . S
C910 C908 1.378 . S
C910 C911 1.367 . S
C911 C910 1.367 . S
C911 C913 1.433 . S
C912 C908 1.350 . S
C912 C909 1.463 . S
C912 N916 1.427 . S
C913 H903 0.929 . S
C913 C911 1.433 . S
C913 N916 1.384 . S
C914 H905 0.929 . S
C914 C906 1.378 . S
C914 C909 1.350 . S
C915 H902 0.929 . S
C915 C907 1.433 . S
C915 N917 1.384 . S
N916 C912 1.427 . S
N916 C913 1.384 . S
N917 C909 1.427 . S
N917 C915 1.384 . S
H918 C924 0.930 . S
H919 C928 0.930 . S
H920 C933 0.929 . S
H921 C931 0.929 . S
H922 C926 0.929 . S
H923 C932 0.929 . S
C924 H918 0.930 . S
C924 C925 1.367 . S
C924 C932 1.378 . S
C925 C924 1.367 . S
C925 C933 1.433 . S
C926 H922 0.929 . S
C926 C928 1.378 . S
C926 C930 1.350 . S
C927 C930 1.463 . S
C927 C932 1.350 . S
C927 N935 1.427 . S
C928 H919 0.930 . S
C928 C926 1.378 . S
C928 C929 1.367 . S
C929 C928 1.367 . S
C929 C931 1.433 . S
C930 C926 1.350 . S
C930 C927 1.463 . S
C930 N934 1.427 . S
C931 H921 0.929 . S
C931 C929 1.433 . S
C931 N934 1.384 . S
C932 H923 0.929 . S
C932 C924 1.378 . S
C932 C927 1.350 . S
C933 H920 0.929 . S
C933 C925 1.433 . S
C933 N935 1.384 . S
N934 C930 1.427 . S
N934 C931 1.384 . S
N935 C927 1.427 . S
N935 C933 1.384 . S
C403 N311 1.537 . S
C407 N14 1.541 . S
C421 N47 1.541 . S
C425 N344 1.537 . S
C439 N80 1.540 . S
C443 N377 1.543 . S
C457 N113 1.543 . S
C461 N212 1.543 . S
C475 N146 1.535 . S
C479 N245 1.534 . S
C493 N179 1.544 . S
C497 N278 1.541 . S
C511 N335 1.390 . S
C515 N5 1.379 . S
C529 N368 1.380 . S
C533 N38 1.389 . S
C547 N71 1.380 . S
C551 N203 1.391 . S
C565 N236 1.381 . S
C569 N104 1.386 . S
C583 N137 1.384 . S
C587 N269 1.383 . S
C601 N170 1.391 . S
C605 N302 1.382 . S
C619 C116 1.703 . S
C623 C17 1.704 . S
C637 C50 1.709 . S
C641 C149 1.710 . S
C655 C182 1.703 . S
C659 C83 1.702 . S
C673 C314 1.712 . S
C677 C215 1.713 . S
C691 C248 1.704 . S
C695 C347 1.703 . S
C709 C380 1.699 . S
C713 C281 1.698 . S
C727 C28 1.243 . S
C731 C391 1.236 . S
C745 C226 1.243 . S
C749 C61 1.236 . S
C763 C94 1.247 . S
C767 C259 1.231 . S
C781 C127 1.234 . S
C785 C292 1.245 . S
C799 C160 1.231 . S
C803 C325 1.248 . S
C817 C358 1.235 . S
C821 C193 1.242 . S
C835 C8 0.716 . S
C839 C272 0.717 . S
C853 C305 0.718 . S
C857 C41 0.716 . S
C871 C74 0.716 . S
C875 C338 0.717 . S
C889 C371 0.716 . S
C893 C107 0.717 . S
C907 C206 0.718 . S
C911 C140 0.719 . S
C925 C173 0.716 . S
C929 C239 0.717 . S
