# Generated by pormake.
# Topology wix, (3)-cn, num edge types: 1
# Building blocks:
#     Node 0, Type 0, BuildingBlock: OLANEW_clean_sbu_2, # of connection points: 3
#     Node 1, Type 0, BuildingBlock: OLANEW_clean_sbu_2, # of connection points: 3
#     Node 2, Type 0, BuildingBlock: OLANEW_clean_sbu_2, # of connection points: 3
#     Node 3, Type 0, BuildingBlock: OLANEW_clean_sbu_2, # of connection points: 3
#     Node 4, Type 0, BuildingBlock: OLANEW_clean_sbu_2, # of connection points: 3
#     Node 5, Type 0, BuildingBlock: OLANEW_clean_sbu_2, # of connection points: 3
#     Node 6, Type 0, BuildingBlock: OLANEW_clean_sbu_2, # of connection points: 3
#     Node 7, Type 0, BuildingBlock: OLANEW_clean_sbu_2, # of connection points: 3
#     Node 8, Type 0, BuildingBlock: OLANEW_clean_sbu_2, # of connection points: 3
#     Node 9, Type 0, BuildingBlock: OLANEW_clean_sbu_2, # of connection points: 3
#     Node 10, Type 0, BuildingBlock: OLANEW_clean_sbu_2, # of connection points: 3
#     Node 11, Type 0, BuildingBlock: OLANEW_clean_sbu_2, # of connection points: 3
#     Edge 12, Type (0, 0), BuildingBlock: XIVTED_clean_linker_0, # of connection points: 2
#     Edge 13, Type (0, 0), BuildingBlock: XIVTED_clean_linker_0, # of connection points: 2
#     Edge 14, Type (0, 0), BuildingBlock: XIVTED_clean_linker_0, # of connection points: 2
#     Edge 15, Type (0, 0), BuildingBlock: XIVTED_clean_linker_0, # of connection points: 2
#     Edge 16, Type (0, 0), BuildingBlock: XIVTED_clean_linker_0, # of connection points: 2
#     Edge 17, Type (0, 0), BuildingBlock: XIVTED_clean_linker_0, # of connection points: 2
#     Edge 18, Type (0, 0), BuildingBlock: XIVTED_clean_linker_0, # of connection points: 2
#     Edge 19, Type (0, 0), BuildingBlock: XIVTED_clean_linker_0, # of connection points: 2
#     Edge 20, Type (0, 0), BuildingBlock: XIVTED_clean_linker_0, # of connection points: 2
#     Edge 21, Type (0, 0), BuildingBlock: XIVTED_clean_linker_0, # of connection points: 2
#     Edge 22, Type (0, 0), BuildingBlock: XIVTED_clean_linker_0, # of connection points: 2
#     Edge 23, Type (0, 0), BuildingBlock: XIVTED_clean_linker_0, # of connection points: 2
#     Edge 24, Type (0, 0), BuildingBlock: XIVTED_clean_linker_0, # of connection points: 2
#     Edge 25, Type (0, 0), BuildingBlock: XIVTED_clean_linker_0, # of connection points: 2
#     Edge 26, Type (0, 0), BuildingBlock: XIVTED_clean_linker_0, # of connection points: 2
#     Edge 27, Type (0, 0), BuildingBlock: XIVTED_clean_linker_0, # of connection points: 2
#     Edge 28, Type (0, 0), BuildingBlock: XIVTED_clean_linker_0, # of connection points: 2
#     Edge 29, Type (0, 0), BuildingBlock: XIVTED_clean_linker_0, # of connection points: 2
# Relax obj value: 0.008
# Max RMSD: 0.072
# Mean RMSD: 0.072
data_MOF--net-wix--node1-OLANEW_clean_sbu_2--edge1-XIVTED_clean_linker_0
_symmetry_space_group_name_H-M    P1
_symmetry_Int_Tables_number       1
_symmetry_cell_setting            triclinic
loop_
_symmetry_equiv_pos_as_xyz
'x, y, z'
_cell_length_a     64.030798
_cell_length_b     64.007047
_cell_length_c     33.374981
_cell_angle_alpha  90.075436
_cell_angle_beta   89.955367
_cell_angle_gamma 119.93909
loop_
_atom_site_label
_atom_site_type_symbol
_atom_site_fract_x
_atom_site_fract_y
_atom_site_fract_z
_atom_type_partial_charge
O0 O 0.34592 0.45956 0.1845 0.0
Cd1 Cd 0.34 0.49428 0.17992 0.0
O2 O 0.37443 0.47282 0.13913 0.0
Cd3 Cd 0.39944 0.47123 0.09623 0.0
O4 O 0.42432 0.48056 0.04587 0.0
C5 C 0.41593 0.47606 0.01044 0.0
O6 O 0.39245 0.46477 0.00534 0.0
C7 C 0.36078 0.45648 0.16366 0.0
C8 C 0.29874 0.48273 0.22407 0.0
O9 O 0.29736 0.47665 0.18716 0.0
O10 O 0.31971 0.49509 0.23974 0.0
O11 O 0.91082 0.29082 0.26434 0.0
Cd12 Cd 0.87426 0.26866 0.22457 0.0
O13 O 0.91865 0.32508 0.23744 0.0
Cd14 Cd 0.93571 0.36375 0.2254 0.0
O15 O 0.94516 0.39783 0.19619 0.0
C16 C 0.9501 0.39977 0.15901 0.0
O17 O 0.95019 0.38169 0.14047 0.0
C18 C 0.92422 0.31356 0.26222 0.0
C19 C 0.83516 0.24838 0.27675 0.0
O20 O 0.84691 0.23757 0.26842 0.0
O21 O 0.84152 0.2686 0.25959 0.0
O22 O 0.62927 0.93851 0.41962 0.0
Cd23 Cd 0.63026 0.90532 0.38542 0.0
O24 O 0.59335 0.92624 0.39502 0.0
Cd25 Cd 0.55911 0.92498 0.38361 0.0
O26 O 0.52752 0.92519 0.35972 0.0
C27 C 0.52374 0.92222 0.32222 0.0
O28 O 0.53879 0.91903 0.29978 0.0
C29 C 0.611 0.94122 0.41636 0.0
C30 C 0.61921 0.86776 0.43864 0.0
O31 O 0.64097 0.88489 0.43399 0.0
O32 O 0.60268 0.8683 0.41781 0.0
O33 O 0.68038 0.57248 0.56269 0.0
Cd34 Cd 0.7002 0.54942 0.54664 0.0
O35 O 0.64687 0.53883 0.55102 0.0
Cd36 Cd 0.60809 0.51643 0.54147 0.0
O37 O 0.57368 0.49155 0.5135 0.0
C38 C 0.573 0.49155 0.47545 0.0
O39 O 0.59249 0.50672 0.45567 0.0
C40 C 0.65751 0.56082 0.56178 0.0
C41 C 0.72875 0.55097 0.61059 0.0
O42 O 0.73816 0.56462 0.58003 0.0
O43 O 0.70595 0.53644 0.6107 0.0
O44 O 0.09817 0.70179 0.77354 0.0
Cd45 Cd 0.13925 0.72658 0.74886 0.0
O46 O 0.09381 0.67018 0.74088 0.0
Cd47 Cd 0.07514 0.6334 0.71706 0.0
O48 O 0.06435 0.59944 0.68605 0.0
C49 C 0.06682 0.59975 0.64823 0.0
O50 O 0.07507 0.62032 0.6291 0.0
C51 C 0.08526 0.67965 0.76449 0.0
C52 C 0.16597 0.76003 0.808 0.0
O53 O 0.1546 0.76479 0.78124 0.0
O54 O 0.16519 0.73965 0.80615 0.0
O55 O 0.46829 0.10833 0.07442 0.0
Cd56 Cd 0.50069 0.14967 0.06381 0.0
O57 O 0.4765 0.0949 0.01971 0.0
Cd58 Cd 0.47102 0.06971 0.97101 0.0
O59 O 0.47626 0.05412 0.91625 0.0
C60 C 0.46812 0.05675 0.88305 0.0
O61 O 0.45554 0.06786 0.8826 0.0
C62 C 0.46327 0.09105 0.05038 0.0
C63 C 0.48193 0.17915 0.08486 0.0
O64 O 0.48018 0.17136 0.04892 0.0
O65 O 0.49342 0.17378 0.11045 0.0
O66 O 0.58532 0.67132 0.65619 0.0
Cd67 Cd 0.56883 0.69527 0.68426 0.0
O68 O 0.55892 0.6402 0.6903 0.0
Cd69 Cd 0.53769 0.60385 0.71522 0.0
O70 O 0.5157 0.57378 0.7552 0.0
C71 C 0.52515 0.57116 0.78687 0.0
O72 O 0.54817 0.58597 0.79361 0.0
C73 C 0.57656 0.64933 0.66587 0.0
C74 C 0.57819 0.73327 0.63308 0.0
O75 O 0.59329 0.73557 0.66033 0.0
O76 O 0.55849 0.71307 0.63039 0.0
O77 O 0.90635 0.59404 0.88089 0.0
Cd78 Cd 0.86492 0.56893 0.90372 0.0
O79 O 0.91388 0.56785 0.90958 0.0
Cd80 Cd 0.93504 0.55196 0.93144 0.0
O81 O 0.94623 0.52966 0.96402 0.0
C82 C 0.94784 0.53143 0.00196 0.0
O83 O 0.94371 0.5473 0.01993 0.0
C84 C 0.92112 0.58681 0.8886 0.0
C85 C 0.83351 0.56288 0.84153 0.0
O86 O 0.83778 0.57832 0.86937 0.0
O87 O 0.84376 0.55009 0.84347 0.0
O88 O 0.29139 0.93413 0.10023 0.0
Cd89 Cd 0.25406 0.89691 0.11466 0.0
O90 O 0.31188 0.91654 0.11752 0.0
Cd91 Cd 0.34482 0.91629 0.13364 0.0
O92 O 0.37679 0.91701 0.15789 0.0
C93 C 0.38173 0.92212 0.19473 0.0
O94 O 0.36753 0.92685 0.21663 0.0
C95 C 0.31155 0.93512 0.10495 0.0
C96 C 0.23663 0.86849 0.04619 0.0
O97 O 0.23078 0.88446 0.05447 0.0
O98 O 0.25065 0.86586 0.07048 0.0
O99 O 0.33787 0.27982 0.19779 0.0
Cd100 Cd 0.33402 0.241 0.21461 0.0
O101 O 0.37178 0.29858 0.23126 0.0
Cd102 Cd 0.40168 0.32998 0.26002 0.0
O103 O 0.43115 0.36024 0.29146 0.0
C104 C 0.4297 0.3626 0.32901 0.0
O105 O 0.41028 0.34676 0.34818 0.0
C106 C 0.35569 0.2994 0.21011 0.0
C107 C 0.37069 0.23498 0.1819 0.0
O108 O 0.35144 0.22929 0.16206 0.0
O109 O 0.3727 0.24374 0.21717 0.0
O110 O 0.08233 0.37118 0.43253 0.0
Cd111 Cd 0.12089 0.38415 0.46532 0.0
O112 O 0.08531 0.4063 0.44368 0.0
Cd113 Cd 0.07233 0.43202 0.44653 0.0
O114 O 0.0656 0.46018 0.46904 0.0
C115 C 0.05799 0.45821 0.50479 0.0
O116 O 0.05366 0.43907 0.52566 0.0
C117 C 0.07373 0.38517 0.42902 0.0
C118 C 0.15853 0.40837 0.4112 0.0
O119 O 0.14707 0.38531 0.41335 0.0
O120 O 0.15235 0.4201 0.43495 0.0
O121 O 0.65028 0.11079 0.5203 0.0
Cd122 Cd 0.66436 0.15334 0.53249 0.0
O123 O 0.61353 0.09856 0.5414 0.0
Cd124 Cd 0.57735 0.07195 0.56136 0.0
O125 O 0.54785 0.05842 0.60463 0.0
C126 C 0.54862 0.04703 0.63522 0.0
O127 O 0.56623 0.04218 0.63831 0.0
C128 C 0.62904 0.09372 0.52712 0.0
C129 C 0.70257 0.17958 0.4803 0.0
O130 O 0.70597 0.17265 0.51446 0.0
O131 O 0.68117 0.17478 0.47129 0.0
H132 H 0.25309 0.44703 0.20612 0.0
H133 H 0.19432 0.45572 0.41195 0.0
H134 H 0.29445 0.49872 0.29816 0.0
H135 H 0.1677 0.38977 0.34423 0.0
H136 H 0.22771 0.4758 0.36416 0.0
H137 H 0.21784 0.43017 0.25012 0.0
C138 C 0.25468 0.45505 0.23537 0.0
C139 C 0.27677 0.47421 0.24864 0.0
C140 C 0.21447 0.45696 0.35981 0.0
C141 C 0.23654 0.45503 0.29894 0.0
C142 C 0.19543 0.44552 0.38692 0.0
C143 C 0.17834 0.42101 0.38214 0.0
C144 C 0.21613 0.44389 0.32736 0.0
C145 C 0.18061 0.40864 0.34922 0.0
C146 C 0.2346 0.44532 0.26051 0.0
C147 C 0.2778 0.48383 0.28689 0.0
N148 N 0.19912 0.42023 0.32299 0.0
N149 N 0.25794 0.47412 0.31077 0.0
H150 H 0.70423 0.20445 0.41247 0.0
H151 H 0.82491 0.21281 0.33129 0.0
H152 H 0.74616 0.1816 0.48175 0.0
H153 H 0.80054 0.2609 0.28982 0.0
H154 H 0.79299 0.19709 0.38176 0.0
H155 H 0.73667 0.22183 0.36262 0.0
C156 C 0.72029 0.2032 0.41728 0.0
C157 C 0.72253 0.19158 0.45128 0.0
C158 C 0.79466 0.2111 0.36162 0.0
C159 C 0.75937 0.211 0.39424 0.0
C160 C 0.81276 0.21997 0.33266 0.0
C161 C 0.81537 0.23819 0.30634 0.0
C162 C 0.77881 0.22022 0.36391 0.0
C163 C 0.79918 0.24689 0.30962 0.0
C164 C 0.73877 0.21314 0.38889 0.0
C165 C 0.74373 0.19048 0.45606 0.0
N166 N 0.78147 0.23772 0.33778 0.0
N167 N 0.76124 0.19986 0.42766 0.0
H168 H 0.54881 0.73523 0.57539 0.0
H169 H 0.64955 0.8635 0.49142 0.0
H170 H 0.61989 0.77667 0.62673 0.0
H171 H 0.57551 0.82724 0.45171 0.0
H172 H 0.63942 0.831 0.53932 0.0
H173 H 0.55858 0.76801 0.52815 0.0
C174 C 0.56646 0.75124 0.57679 0.0
C175 C 0.58357 0.75321 0.60505 0.0
C176 C 0.62537 0.83015 0.52017 0.0
C177 C 0.59491 0.79074 0.55095 0.0
C178 C 0.63116 0.84868 0.49273 0.0
C179 C 0.61335 0.84808 0.4675 0.0
C180 C 0.60162 0.81079 0.52229 0.0
C181 C 0.58981 0.82845 0.47059 0.0
C182 C 0.57202 0.76996 0.54983 0.0
C183 C 0.60614 0.77438 0.6055 0.0
N184 N 0.58464 0.81056 0.49744 0.0
N185 N 0.61117 0.79228 0.57877 0.0
H186 H 0.71504 0.54061 0.68878 0.0
H187 H 0.83505 0.54789 0.76568 0.0
H188 H 0.77637 0.56399 0.61048 0.0
H189 H 0.79617 0.5721 0.84024 0.0
H190 H 0.80934 0.54483 0.7089 0.0
H191 H 0.74047 0.54334 0.74585 0.0
C192 C 0.73381 0.54617 0.68362 0.0
C193 C 0.7437 0.55213 0.64499 0.0
C194 C 0.80648 0.55077 0.73776 0.0
C195 C 0.77252 0.55483 0.70964 0.0
C196 C 0.82099 0.55239 0.77013 0.0
C197 C 0.81769 0.56029 0.80757 0.0
C198 C 0.78819 0.55647 0.74326 0.0
C199 C 0.79933 0.56604 0.81174 0.0
C200 C 0.74826 0.54783 0.71612 0.0
C201 C 0.76813 0.55937 0.63987 0.0
N202 N 0.78507 0.5638 0.77999 0.0
N203 N 0.78171 0.5603 0.67184 0.0
H204 H 0.20943 0.87199 0.98624 0.0
H205 H 0.19309 0.75608 0.8678 0.0
H206 H 0.2428 0.83084 0.02299 0.0
H207 H 0.1675 0.80271 0.8239 0.0
H208 H 0.21161 0.78325 0.92471 0.0
H209 H 0.19383 0.84666 0.92666 0.0
C210 C 0.2135 0.85763 0.98177 0.0
C211 C 0.22738 0.85348 0.00971 0.0
C212 C 0.20206 0.78761 0.9025 0.0
C213 C 0.20954 0.82437 0.94152 0.0
C214 C 0.19149 0.7721 0.86998 0.0
C215 C 0.17865 0.77709 0.8411 0.0
C216 C 0.19966 0.80817 0.90632 0.0
C217 C 0.17719 0.79814 0.84546 0.0
C218 C 0.20463 0.8432 0.94767 0.0
C219 C 0.23214 0.83467 0.00226 0.0
N220 N 0.18744 0.81282 0.87757 0.0
N221 N 0.22316 0.82074 0.96896 0.0
H222 H 0.48335 0.19941 0.15789 0.0
H223 H 0.37336 0.22 0.10621 0.0
H224 H 0.45163 0.18839 0.04017 0.0
H225 H 0.41106 0.2401 0.21932 0.0
H226 H 0.40322 0.2103 0.08048 0.0
H227 H 0.4587 0.2166 0.17992 0.0
C228 C 0.4714 0.20085 0.13654 0.0
C229 C 0.46941 0.19227 0.09721 0.0
C230 C 0.40509 0.21701 0.11083 0.0
C231 C 0.44095 0.21169 0.12234 0.0
C232 C 0.388 0.22251 0.12558 0.0
C233 C 0.38961 0.23069 0.16509 0.0
C234 C 0.42383 0.21951 0.13587 0.0
C235 C 0.40906 0.23374 0.18873 0.0
C236 C 0.45731 0.21065 0.14915 0.0
C237 C 0.45369 0.19468 0.07081 0.0
N238 N 0.4253 0.22795 0.17386 0.0
N239 N 0.43988 0.20393 0.08397 0.0
H240 H 0.39888 0.44825 0.15463 0.0
H241 H 0.31798 0.30727 0.20249 0.0
H242 H 0.323 0.41267 0.18244 0.0
H243 H 0.39557 0.34377 0.19626 0.0
H244 H 0.31941 0.3454 0.18871 0.0
H245 H 0.39801 0.40977 0.16354 0.0
C246 C 0.38198 0.43229 0.16188 0.0
C247 C 0.36091 0.43356 0.16726 0.0
C248 C 0.33616 0.34515 0.19059 0.0
C249 C 0.35985 0.38972 0.17823 0.0
C250 C 0.33534 0.32337 0.19835 0.0
C251 C 0.35671 0.3225 0.20148 0.0
C252 C 0.35854 0.36623 0.18541 0.0
C253 C 0.37872 0.34384 0.19553 0.0
C254 C 0.38154 0.4104 0.16742 0.0
C255 C 0.33967 0.41249 0.17801 0.0
N256 N 0.37908 0.36489 0.18778 0.0
N257 N 0.33967 0.39147 0.18304 0.0
H258 H 0.93138 0.29624 0.33191 0.0
H259 H 0.05982 0.41076 0.38083 0.0
H260 H 0.96563 0.35806 0.25375 0.0
H261 H 0.03537 0.33971 0.42875 0.0
H262 H 0.02229 0.39466 0.34213 0.0
H263 H 0.96659 0.31486 0.37544 0.0
C264 C 0.94621 0.31385 0.32399 0.0
C265 C 0.94533 0.32572 0.28923 0.0
C266 C 0.0251 0.3827 0.36145 0.0
C267 C 0.98577 0.34719 0.33924 0.0
C268 C 0.04634 0.39191 0.38385 0.0
C269 C 0.05052 0.37655 0.40829 0.0
C270 C 0.00793 0.35806 0.36394 0.0
C271 C 0.03281 0.35214 0.41025 0.0
C272 C 0.9663 0.32446 0.34894 0.0
C273 C 0.9651 0.34854 0.2807 0.0
N274 N 0.01227 0.34366 0.38843 0.0
N275 N 0.98457 0.35855 0.30554 0.0
H276 H 0.63675 0.96495 0.48247 0.0
H277 H 0.58708 0.05712 0.49587 0.0
H278 H 0.58602 0.96476 0.39724 0.0
H279 H 0.65775 0.07412 0.5366 0.0
H280 H 0.58007 0.01761 0.47283 0.0
H281 H 0.6386 3e-05 0.51516 0.0
C282 C 0.62571 0.97203 0.47093 0.0
C283 C 0.6108 0.96149 0.43746 0.0
C284 C 0.59695 0.02992 0.48732 0.0
C285 C 0.61276 0.00154 0.47497 0.0
C286 C 0.60086 0.0523 0.5008 0.0
C287 C 0.62299 0.06878 0.51819 0.0
C288 C 0.61518 0.02399 0.49196 0.0
C289 C 0.64047 0.0619 0.52318 0.0
C290 C 0.62677 0.99201 0.48966 0.0
C291 C 0.59696 0.97152 0.42382 0.0
N292 N 0.63619 0.04002 0.51014 0.0
N293 N 0.59828 0.99101 0.44263 0.0
H294 H 0.60622 0.66116 0.6011 0.0
H295 H 0.61481 0.54111 0.60232 0.0
H296 H 0.57207 0.60608 0.69147 0.0
H297 H 0.66954 0.60765 0.54988 0.0
H298 H 0.59364 0.56185 0.62576 0.0
H299 H 0.62482 0.63907 0.57322 0.0
C300 C 0.60238 0.64431 0.61495 0.0
C301 C 0.58706 0.63528 0.64839 0.0
C302 C 0.61018 0.57183 0.60883 0.0
C303 C 0.60826 0.60986 0.61627 0.0
C304 C 0.62208 0.55996 0.59503 0.0
C305 C 0.64374 0.57265 0.57366 0.0
C306 C 0.61989 0.59649 0.60081 0.0
C307 C 0.65283 0.59725 0.56618 0.0
C308 C 0.61304 0.63175 0.59895 0.0
C309 C 0.58291 0.61339 0.66497 0.0
N310 N 0.6408 0.60837 0.57959 0.0
N311 N 0.59339 0.60138 0.64867 0.0
H312 H 0.9509 0.56918 0.86768 0.0
H313 H 0.05553 0.69649 0.78681 0.0
H314 H 0.94721 0.63463 0.87074 0.0
H315 H 0.05977 0.63134 0.78299 0.0
H316 H 0.01591 0.67402 0.81816 0.0
H317 H 0.99105 0.59156 0.83797 0.0
C318 C 0.95876 0.58837 0.86306 0.0
C319 C 0.94593 0.60018 0.87265 0.0
C320 C 0.02538 0.66455 0.81016 0.0
C321 C 0.99153 0.62576 0.83723 0.0
C322 C 0.048 0.67737 0.79223 0.0
C323 C 0.06074 0.66565 0.78144 0.0
C324 C 0.01546 0.63981 0.81778 0.0
C325 C 0.05023 0.64092 0.78946 0.0
C326 C 0.98156 0.60108 0.84549 0.0
C327 C 0.95655 0.62485 0.86406 0.0
N328 N 0.0282 0.62881 0.80721 0.0
N329 N 0.97872 0.63682 0.84689 0.0
H330 H 0.45461 0.04556 0.03034 0.0
H331 H 0.31967 0.98067 0.11559 0.0
H332 H 0.42233 0.08299 0.08779 0.0
H333 H 0.35425 0.94143 0.07491 0.0
H334 H 0.35672 0.01847 0.10186 0.0
H335 H 0.41757 0.00721 0.04283 0.0
C336 C 0.43963 0.04575 0.04499 0.0
C337 C 0.44138 0.06751 0.05741 0.0
C338 C 0.35632 0.00161 0.09622 0.0
C339 C 0.39924 0.02381 0.07253 0.0
C340 C 0.33515 0.98004 0.10398 0.0
C341 C 0.3341 0.95793 0.09724 0.0
C342 C 0.37653 0.00109 0.08106 0.0
C343 C 0.35459 0.9581 0.08185 0.0
C344 C 0.4186 0.02385 0.05254 0.0
C345 C 0.42174 0.06663 0.07765 0.0
N346 N 0.37499 0.97937 0.07421 0.0
N347 N 0.4015 0.04518 0.08441 0.0
H348 H 0.40385 0.47248 0.93103 0.0
H349 H 0.53896 0.56324 0.86033 0.0
H350 H 0.46534 0.50192 0.01026 0.0
H351 H 0.47672 0.5386 0.78369 0.0
H352 H 0.51292 0.53665 0.91323 0.0
H353 H 0.43092 0.49225 0.8746 0.0
C354 C 0.42306 0.48291 0.93655 0.0
C355 C 0.4323 0.48575 0.97554 0.0
C356 C 0.50498 0.53692 0.88474 0.0
C357 C 0.4634 0.50855 0.91101 0.0
C358 C 0.51985 0.55208 0.85446 0.0
C359 C 0.50998 0.55336 0.81762 0.0
C360 C 0.48004 0.52291 0.87819 0.0
C361 C 0.4851 0.53836 0.81171 0.0
C362 C 0.43851 0.49423 0.90428 0.0
C363 C 0.45738 0.49938 0.98078 0.0
N364 N 0.47097 0.52391 0.84178 0.0
N365 N 0.47203 0.51042 0.94894 0.0
H366 H 0.95021 0.52893 0.08359 0.0
H367 H 0.95874 0.40841 0.07872 0.0
H368 H 0.95518 0.49516 0.97471 0.0
H369 H 0.94956 0.43978 0.1872 0.0
H370 H 0.96154 0.44227 0.04072 0.0
H371 H 0.95404 0.49872 0.12246 0.0
C372 C 0.95228 0.51527 0.06782 0.0
C373 C 0.95217 0.51448 0.02579 0.0
C374 C 0.95906 0.44184 0.07287 0.0
C375 C 0.95649 0.47975 0.07018 0.0
C376 C 0.95748 0.4225 0.09463 0.0
C377 C 0.95372 0.42114 0.13621 0.0
C378 C 0.95684 0.45997 0.09278 0.0
C379 C 0.95232 0.44 0.15517 0.0
C380 C 0.95444 0.498 0.09007 0.0
C381 C 0.95503 0.49641 0.00704 0.0
N382 N 0.95374 0.45856 0.13328 0.0
N383 N 0.95692 0.47968 0.02937 0.0
H384 H 0.48982 0.92975 0.35931 0.0
H385 H 0.41519 0.91377 0.15797 0.0
H386 H 0.50993 0.9152 0.2435 0.0
H387 H 0.39666 0.93114 0.27285 0.0
H388 H 0.44986 0.91397 0.18887 0.0
H389 H 0.45541 0.93002 0.32829 0.0
C390 C 0.48701 0.9266 0.32736 0.0
C391 C 0.50279 0.92242 0.30398 0.0
C392 C 0.43822 0.91776 0.20732 0.0
C393 C 0.46341 0.92272 0.26827 0.0
C394 C 0.41841 0.91765 0.18969 0.0
C395 C 0.40296 0.92243 0.21286 0.0
C396 C 0.44264 0.92265 0.24846 0.0
C397 C 0.40806 0.92735 0.25382 0.0
C398 C 0.46735 0.92678 0.30966 0.0
C399 C 0.49825 0.91849 0.26272 0.0
N400 N 0.42743 0.9273 0.2703 0.0
N401 N 0.47897 0.91871 0.2462 0.0
H402 H 0.5664 0.48607 0.39437 0.0
H403 H 0.43338 0.37179 0.40969 0.0
H404 H 0.52979 0.45681 0.50655 0.0
H405 H 0.47209 0.39885 0.29845 0.0
H406 H 0.46749 0.40417 0.44552 0.0
H407 H 0.53095 0.4557 0.35863 0.0
C408 C 0.55087 0.47332 0.41153 0.0
C409 C 0.55113 0.47393 0.45356 0.0
C410 C 0.46849 0.40305 0.41327 0.0
C411 C 0.51042 0.439 0.41272 0.0
C412 C 0.44901 0.38457 0.39276 0.0
C413 C 0.4499 0.38253 0.35099 0.0
C414 C 0.48901 0.41965 0.39186 0.0
C415 C 0.47062 0.39965 0.33066 0.0
C416 C 0.53062 0.45594 0.39106 0.0
C417 C 0.53043 0.45697 0.47414 0.0
N418 N 0.48935 0.41744 0.3513 0.0
N419 N 0.51094 0.44015 0.45351 0.0
H420 H 0.05046 0.55438 0.6785 0.0
H421 H 0.06703 0.50109 0.4714 0.0
H422 H 0.07252 0.59482 0.56809 0.0
H423 H 0.04435 0.46053 0.58164 0.0
H424 H 0.06638 0.53467 0.50512 0.0
H425 H 0.04539 0.51891 0.64243 0.0
C426 C 0.0541 0.55578 0.64662 0.0
C427 C 0.06209 0.57768 0.62636 0.0
C428 C 0.0614 0.51837 0.52187 0.0
C429 C 0.05641 0.53712 0.58486 0.0
C430 C 0.06175 0.49917 0.50261 0.0
C431 C 0.0559 0.478 0.52379 0.0
C432 C 0.05522 0.51645 0.56265 0.0
C433 C 0.04912 0.47653 0.56416 0.0
C434 C 0.05121 0.53551 0.62603 0.0
C435 C 0.06644 0.57837 0.585 0.0
N436 N 0.04911 0.49554 0.58232 0.0
N437 N 0.06368 0.55844 0.56569 0.0
H438 H 0.5472 0.02568 0.70701 0.0
H439 H 0.45698 0.06311 0.80641 0.0
H440 H 0.51256 0.05817 0.64155 0.0
H441 H 0.49528 0.0349 0.87295 0.0
H442 H 0.4725 0.05589 0.74417 0.0
H443 H 0.52361 0.02327 0.76612 0.0
C444 C 0.53443 0.03205 0.70489 0.0
C445 C 0.53211 0.04244 0.66937 0.0
C446 C 0.47733 0.05107 0.77237 0.0
C447 C 0.50513 0.03988 0.73712 0.0
C448 C 0.46845 0.05516 0.80796 0.0
C449 C 0.47508 0.04989 0.84504 0.0
C450 C 0.49299 0.04166 0.77382 0.0
C451 C 0.48987 0.03947 0.8451 0.0
C452 C 0.52099 0.03071 0.73872 0.0
C453 C 0.51513 0.05023 0.66837 0.0
N454 N 0.4985 0.03591 0.81009 0.0
N455 N 0.50248 0.04902 0.70187 0.0
loop_
_geom_bond_atom_site_label_1
_geom_bond_atom_site_label_2
_geom_bond_distance
_geom_bond_site_symmetry_2
_ccdc_geom_bond_type
O0 Cd1 2.300 . S
O0 C7 1.275 . S
Cd1 O0 2.300 . S
Cd1 O9 2.381 . S
Cd1 O10 2.378 . S
O2 Cd3 2.385 . S
O2 C7 1.255 . S
Cd3 O2 2.385 . S
Cd3 O4 2.317 . S
O4 Cd3 2.317 . S
O4 C5 1.232 . S
C5 O4 1.232 . S
C5 O6 1.218 . S
O6 C5 1.218 . S
C7 O0 1.275 . S
C7 O2 1.255 . S
C8 O9 1.258 . S
C8 O10 1.256 . S
O9 Cd1 2.381 . S
O9 C8 1.258 . S
O10 Cd1 2.378 . S
O10 C8 1.256 . S
O11 Cd12 2.300 . S
O11 C18 1.275 . S
Cd12 O11 2.300 . S
Cd12 O20 2.381 . S
Cd12 O21 2.378 . S
O13 Cd14 2.385 . S
O13 C18 1.255 . S
Cd14 O13 2.385 . S
Cd14 O15 2.317 . S
O15 Cd14 2.317 . S
O15 C16 1.232 . S
C16 O15 1.232 . S
C16 O17 1.218 . S
O17 C16 1.218 . S
C18 O11 1.275 . S
C18 O13 1.255 . S
C19 O20 1.258 . S
C19 O21 1.256 . S
O20 Cd12 2.381 . S
O20 C19 1.258 . S
O21 Cd12 2.378 . S
O21 C19 1.256 . S
O22 Cd23 2.300 . S
O22 C29 1.275 . S
Cd23 O22 2.300 . S
Cd23 O31 2.381 . S
Cd23 O32 2.378 . S
O24 Cd25 2.385 . S
O24 C29 1.255 . S
Cd25 O24 2.385 . S
Cd25 O26 2.317 . S
O26 Cd25 2.317 . S
O26 C27 1.232 . S
C27 O26 1.232 . S
C27 O28 1.218 . S
O28 C27 1.218 . S
C29 O22 1.275 . S
C29 O24 1.255 . S
C30 O31 1.258 . S
C30 O32 1.256 . S
O31 Cd23 2.381 . S
O31 C30 1.258 . S
O32 Cd23 2.378 . S
O32 C30 1.256 . S
O33 Cd34 2.300 . S
O33 C40 1.275 . S
Cd34 O33 2.300 . S
Cd34 O42 2.381 . S
Cd34 O43 2.378 . S
O35 Cd36 2.385 . S
O35 C40 1.255 . S
Cd36 O35 2.385 . S
Cd36 O37 2.317 . S
O37 Cd36 2.317 . S
O37 C38 1.232 . S
C38 O37 1.232 . S
C38 O39 1.218 . S
O39 C38 1.218 . S
C40 O33 1.275 . S
C40 O35 1.255 . S
C41 O42 1.258 . S
C41 O43 1.256 . S
O42 Cd34 2.381 . S
O42 C41 1.258 . S
O43 Cd34 2.378 . S
O43 C41 1.256 . S
O44 Cd45 2.300 . S
O44 C51 1.275 . S
Cd45 O44 2.300 . S
Cd45 O53 2.381 . S
Cd45 O54 2.378 . S
O46 Cd47 2.385 . S
O46 C51 1.255 . S
Cd47 O46 2.385 . S
Cd47 O48 2.317 . S
O48 Cd47 2.317 . S
O48 C49 1.232 . S
C49 O48 1.232 . S
C49 O50 1.218 . S
O50 C49 1.218 . S
C51 O44 1.275 . S
C51 O46 1.255 . S
C52 O53 1.258 . S
C52 O54 1.256 . S
O53 Cd45 2.381 . S
O53 C52 1.258 . S
O54 Cd45 2.378 . S
O54 C52 1.256 . S
O55 Cd56 2.300 . S
O55 C62 1.275 . S
Cd56 O55 2.300 . S
Cd56 O64 2.381 . S
Cd56 O65 2.378 . S
O57 Cd58 2.385 . S
O57 C62 1.255 . S
Cd58 O57 2.385 . S
Cd58 O59 2.317 . S
O59 Cd58 2.317 . S
O59 C60 1.232 . S
C60 O59 1.232 . S
C60 O61 1.218 . S
O61 C60 1.218 . S
C62 O55 1.275 . S
C62 O57 1.255 . S
C63 O64 1.258 1_554 S
C63 O65 1.256 1_554 S
O64 Cd56 2.381 . S
O64 C63 1.258 1_556 S
O65 Cd56 2.378 . S
O65 C63 1.256 1_556 S
O66 Cd67 2.300 . S
O66 C73 1.275 . S
Cd67 O66 2.300 . S
Cd67 O75 2.381 . S
Cd67 O76 2.378 . S
O68 Cd69 2.385 . S
O68 C73 1.255 . S
Cd69 O68 2.385 . S
Cd69 O70 2.317 . S
O70 Cd69 2.317 . S
O70 C71 1.232 . S
C71 O70 1.232 . S
C71 O72 1.218 . S
O72 C71 1.218 . S
C73 O66 1.275 . S
C73 O68 1.255 . S
C74 O75 1.258 . S
C74 O76 1.256 . S
O75 Cd67 2.381 . S
O75 C74 1.258 . S
O76 Cd67 2.378 . S
O76 C74 1.256 . S
O77 Cd78 2.300 . S
O77 C84 1.275 . S
Cd78 O77 2.300 . S
Cd78 O86 2.381 . S
Cd78 O87 2.378 . S
O79 Cd80 2.385 . S
O79 C84 1.255 . S
Cd80 O79 2.385 . S
Cd80 O81 2.317 . S
O81 Cd80 2.317 . S
O81 C82 1.232 . S
C82 O81 1.232 . S
C82 O83 1.218 . S
O83 C82 1.218 . S
C84 O77 1.275 . S
C84 O79 1.255 . S
C85 O86 1.258 . S
C85 O87 1.256 . S
O86 Cd78 2.381 . S
O86 C85 1.258 . S
O87 Cd78 2.378 . S
O87 C85 1.256 . S
O88 Cd89 2.300 . S
O88 C95 1.275 . S
Cd89 O88 2.300 . S
Cd89 O97 2.381 . S
Cd89 O98 2.378 . S
O90 Cd91 2.385 . S
O90 C95 1.255 . S
Cd91 O90 2.385 . S
Cd91 O92 2.317 . S
O92 Cd91 2.317 . S
O92 C93 1.232 . S
C93 O92 1.232 . S
C93 O94 1.218 . S
O94 C93 1.218 . S
C95 O88 1.275 . S
C95 O90 1.255 . S
C96 O97 1.258 1_556 S
C96 O98 1.256 1_556 S
O97 Cd89 2.381 . S
O97 C96 1.258 1_554 S
O98 Cd89 2.378 . S
O98 C96 1.256 1_554 S
O99 Cd100 2.300 . S
O99 C106 1.275 . S
Cd100 O99 2.300 . S
Cd100 O108 2.381 . S
Cd100 O109 2.378 . S
O101 Cd102 2.385 . S
O101 C106 1.255 . S
Cd102 O101 2.385 . S
Cd102 O103 2.317 . S
O103 Cd102 2.317 . S
O103 C104 1.232 . S
C104 O103 1.232 . S
C104 O105 1.218 . S
O105 C104 1.218 . S
C106 O99 1.275 . S
C106 O101 1.255 . S
C107 O108 1.258 . S
C107 O109 1.256 . S
O108 Cd100 2.381 . S
O108 C107 1.258 . S
O109 Cd100 2.378 . S
O109 C107 1.256 . S
O110 Cd111 2.300 . S
O110 C117 1.275 . S
Cd111 O110 2.300 . S
Cd111 O119 2.381 . S
Cd111 O120 2.378 . S
O112 Cd113 2.385 . S
O112 C117 1.255 . S
Cd113 O112 2.385 . S
Cd113 O114 2.317 . S
O114 Cd113 2.317 . S
O114 C115 1.232 . S
C115 O114 1.232 . S
C115 O116 1.218 . S
O116 C115 1.218 . S
C117 O110 1.275 . S
C117 O112 1.255 . S
C118 O119 1.258 . S
C118 O120 1.256 . S
O119 Cd111 2.381 . S
O119 C118 1.258 . S
O120 Cd111 2.378 . S
O120 C118 1.256 . S
O121 Cd122 2.300 . S
O121 C128 1.275 . S
Cd122 O121 2.300 . S
Cd122 O130 2.381 . S
Cd122 O131 2.378 . S
O123 Cd124 2.385 . S
O123 C128 1.255 . S
Cd124 O123 2.385 . S
Cd124 O125 2.317 . S
O125 Cd124 2.317 . S
O125 C126 1.232 . S
C126 O125 1.232 . S
C126 O127 1.218 . S
O127 C126 1.218 . S
C128 O121 1.275 . S
C128 O123 1.255 . S
C129 O130 1.258 . S
C129 O131 1.256 . S
O130 Cd122 2.381 . S
O130 C129 1.258 . S
O131 Cd122 2.378 . S
O131 C129 1.256 . S
H132 C138 0.930 . S
H133 C142 0.930 . S
H134 C147 0.929 . S
H135 C145 0.929 . S
H136 C140 0.929 . S
H137 C146 0.929 . S
C138 H132 0.930 . S
C138 C139 1.367 . S
C138 C146 1.378 . S
C139 C138 1.367 . S
C139 C147 1.433 . S
C140 H136 0.929 . S
C140 C142 1.378 . S
C140 C144 1.350 . S
C141 C144 1.463 . S
C141 C146 1.350 . S
C141 N149 1.427 . S
C142 H133 0.930 . S
C142 C140 1.378 . S
C142 C143 1.367 . S
C143 C142 1.367 . S
C143 C145 1.433 . S
C144 C140 1.350 . S
C144 C141 1.463 . S
C144 N148 1.427 . S
C145 H135 0.929 . S
C145 C143 1.433 . S
C145 N148 1.384 . S
C146 H137 0.929 . S
C146 C138 1.378 . S
C146 C141 1.350 . S
C147 H134 0.929 . S
C147 C139 1.433 . S
C147 N149 1.384 . S
N148 C144 1.427 . S
N148 C145 1.384 . S
N149 C141 1.427 . S
N149 C147 1.384 . S
H150 C156 0.930 . S
H151 C160 0.930 . S
H152 C165 0.929 . S
H153 C163 0.929 . S
H154 C158 0.929 . S
H155 C164 0.929 . S
C156 H150 0.930 . S
C156 C157 1.367 . S
C156 C164 1.378 . S
C157 C156 1.367 . S
C157 C165 1.433 . S
C158 H154 0.929 . S
C158 C160 1.378 . S
C158 C162 1.350 . S
C159 C162 1.463 . S
C159 C164 1.350 . S
C159 N167 1.427 . S
C160 H151 0.930 . S
C160 C158 1.378 . S
C160 C161 1.367 . S
C161 C160 1.367 . S
C161 C163 1.433 . S
C162 C158 1.350 . S
C162 C159 1.463 . S
C162 N166 1.427 . S
C163 H153 0.929 . S
C163 C161 1.433 . S
C163 N166 1.384 . S
C164 H155 0.929 . S
C164 C156 1.378 . S
C164 C159 1.350 . S
C165 H152 0.929 . S
C165 C157 1.433 . S
C165 N167 1.384 . S
N166 C162 1.427 . S
N166 C163 1.384 . S
N167 C159 1.427 . S
N167 C165 1.384 . S
H168 C174 0.930 . S
H169 C178 0.930 . S
H170 C183 0.929 . S
H171 C181 0.929 . S
H172 C176 0.929 . S
H173 C182 0.929 . S
C174 H168 0.930 . S
C174 C175 1.367 . S
C174 C182 1.378 . S
C175 C174 1.367 . S
C175 C183 1.433 . S
C176 H172 0.929 . S
C176 C178 1.378 . S
C176 C180 1.350 . S
C177 C180 1.463 . S
C177 C182 1.350 . S
C177 N185 1.427 . S
C178 H169 0.930 . S
C178 C176 1.378 . S
C178 C179 1.367 . S
C179 C178 1.367 . S
C179 C181 1.433 . S
C180 C176 1.350 . S
C180 C177 1.463 . S
C180 N184 1.427 . S
C181 H171 0.929 . S
C181 C179 1.433 . S
C181 N184 1.384 . S
C182 H173 0.929 . S
C182 C174 1.378 . S
C182 C177 1.350 . S
C183 H170 0.929 . S
C183 C175 1.433 . S
C183 N185 1.384 . S
N184 C180 1.427 . S
N184 C181 1.384 . S
N185 C177 1.427 . S
N185 C183 1.384 . S
H186 C192 0.930 . S
H187 C196 0.930 . S
H188 C201 0.929 . S
H189 C199 0.929 . S
H190 C194 0.929 . S
H191 C200 0.929 . S
C192 H186 0.930 . S
C192 C193 1.367 . S
C192 C200 1.378 . S
C193 C192 1.367 . S
C193 C201 1.433 . S
C194 H190 0.929 . S
C194 C196 1.378 . S
C194 C198 1.350 . S
C195 C198 1.463 . S
C195 C200 1.350 . S
C195 N203 1.427 . S
C196 H187 0.930 . S
C196 C194 1.378 . S
C196 C197 1.367 . S
C197 C196 1.367 . S
C197 C199 1.433 . S
C198 C194 1.350 . S
C198 C195 1.463 . S
C198 N202 1.427 . S
C199 H189 0.929 . S
C199 C197 1.433 . S
C199 N202 1.384 . S
C200 H191 0.929 . S
C200 C192 1.378 . S
C200 C195 1.350 . S
C201 H188 0.929 . S
C201 C193 1.433 . S
C201 N203 1.384 . S
N202 C198 1.427 . S
N202 C199 1.384 . S
N203 C195 1.427 . S
N203 C201 1.384 . S
H204 C210 0.930 . S
H205 C214 0.930 . S
H206 C219 0.929 1_554 S
H207 C217 0.929 . S
H208 C212 0.929 . S
H209 C218 0.929 . S
C210 H204 0.930 . S
C210 C211 1.367 . S
C210 C218 1.378 . S
C211 C210 1.367 . S
C211 C219 1.433 . S
C212 H208 0.929 . S
C212 C214 1.378 . S
C212 C216 1.350 . S
C213 C216 1.463 . S
C213 C218 1.350 . S
C213 N221 1.427 . S
C214 H205 0.930 . S
C214 C212 1.378 . S
C214 C215 1.367 . S
C215 C214 1.367 . S
C215 C217 1.433 . S
C216 C212 1.350 . S
C216 C213 1.463 . S
C216 N220 1.427 . S
C217 H207 0.929 . S
C217 C215 1.433 . S
C217 N220 1.384 . S
C218 H209 0.929 . S
C218 C210 1.378 . S
C218 C213 1.350 . S
C219 H206 0.929 1_556 S
C219 C211 1.433 . S
C219 N221 1.384 . S
N220 C216 1.427 . S
N220 C217 1.384 . S
N221 C213 1.427 . S
N221 C219 1.384 . S
H222 C228 0.930 . S
H223 C232 0.930 . S
H224 C237 0.929 1_556 S
H225 C235 0.929 . S
H226 C230 0.929 . S
H227 C236 0.929 . S
C228 H222 0.930 . S
C228 C229 1.367 . S
C228 C236 1.378 . S
C229 C228 1.367 . S
C229 C237 1.433 . S
C230 H226 0.929 . S
C230 C232 1.378 . S
C230 C234 1.350 . S
C231 C234 1.463 . S
C231 C236 1.350 . S
C231 N239 1.427 . S
C232 H223 0.930 . S
C232 C230 1.378 . S
C232 C233 1.367 . S
C233 C232 1.367 . S
C233 C235 1.433 . S
C234 C230 1.350 . S
C234 C231 1.463 . S
C234 N238 1.427 . S
C235 H225 0.929 . S
C235 C233 1.433 . S
C235 N238 1.384 . S
C236 H227 0.929 . S
C236 C228 1.378 . S
C236 C231 1.350 . S
C237 H224 0.929 1_554 S
C237 C229 1.433 . S
C237 N239 1.384 . S
N238 C234 1.427 . S
N238 C235 1.384 . S
N239 C231 1.427 . S
N239 C237 1.384 . S
H240 C246 0.930 . S
H241 C250 0.930 . S
H242 C255 0.929 . S
H243 C253 0.929 . S
H244 C248 0.929 . S
H245 C254 0.929 . S
C246 H240 0.930 . S
C246 C247 1.367 . S
C246 C254 1.378 . S
C247 C246 1.367 . S
C247 C255 1.433 . S
C248 H244 0.929 . S
C248 C250 1.378 . S
C248 C252 1.350 . S
C249 C252 1.463 . S
C249 C254 1.350 . S
C249 N257 1.427 . S
C250 H241 0.930 . S
C250 C248 1.378 . S
C250 C251 1.367 . S
C251 C250 1.367 . S
C251 C253 1.433 . S
C252 C248 1.350 . S
C252 C249 1.463 . S
C252 N256 1.427 . S
C253 H243 0.929 . S
C253 C251 1.433 . S
C253 N256 1.384 . S
C254 H245 0.929 . S
C254 C246 1.378 . S
C254 C249 1.350 . S
C255 H242 0.929 . S
C255 C247 1.433 . S
C255 N257 1.384 . S
N256 C252 1.427 . S
N256 C253 1.384 . S
N257 C249 1.427 . S
N257 C255 1.384 . S
H258 C264 0.930 . S
H259 C268 0.930 . S
H260 C273 0.929 . S
H261 C271 0.929 . S
H262 C266 0.929 . S
H263 C272 0.929 . S
C264 H258 0.930 . S
C264 C265 1.367 . S
C264 C272 1.378 . S
C265 C264 1.367 . S
C265 C273 1.433 . S
C266 H262 0.929 . S
C266 C268 1.378 . S
C266 C270 1.350 . S
C267 C270 1.463 1_655 S
C267 C272 1.350 . S
C267 N275 1.427 . S
C268 H259 0.930 . S
C268 C266 1.378 . S
C268 C269 1.367 . S
C269 C268 1.367 . S
C269 C271 1.433 . S
C270 C266 1.350 . S
C270 C267 1.463 1_455 S
C270 N274 1.427 . S
C271 H261 0.929 . S
C271 C269 1.433 . S
C271 N274 1.384 . S
C272 H263 0.929 . S
C272 C264 1.378 . S
C272 C267 1.350 . S
C273 H260 0.929 . S
C273 C265 1.433 . S
C273 N275 1.384 . S
N274 C270 1.427 . S
N274 C271 1.384 . S
N275 C267 1.427 . S
N275 C273 1.384 . S
H276 C282 0.930 . S
H277 C286 0.930 . S
H278 C291 0.929 . S
H279 C289 0.929 . S
H280 C284 0.929 . S
H281 C290 0.929 . S
C282 H276 0.930 . S
C282 C283 1.367 . S
C282 C290 1.378 . S
C283 C282 1.367 . S
C283 C291 1.433 . S
C284 H280 0.929 . S
C284 C286 1.378 . S
C284 C288 1.350 . S
C285 C288 1.463 1_565 S
C285 C290 1.350 . S
C285 N293 1.427 . S
C286 H277 0.930 . S
C286 C284 1.378 . S
C286 C287 1.367 . S
C287 C286 1.367 . S
C287 C289 1.433 . S
C288 C284 1.350 . S
C288 C285 1.463 1_545 S
C288 N292 1.427 . S
C289 H279 0.929 . S
C289 C287 1.433 . S
C289 N292 1.384 . S
C290 H281 0.929 . S
C290 C282 1.378 . S
C290 C285 1.350 . S
C291 H278 0.929 . S
C291 C283 1.433 . S
C291 N293 1.384 . S
N292 C288 1.427 . S
N292 C289 1.384 . S
N293 C285 1.427 . S
N293 C291 1.384 . S
H294 C300 0.930 . S
H295 C304 0.930 . S
H296 C309 0.929 . S
H297 C307 0.929 . S
H298 C302 0.929 . S
H299 C308 0.929 . S
C300 H294 0.930 . S
C300 C301 1.367 . S
C300 C308 1.378 . S
C301 C300 1.367 . S
C301 C309 1.433 . S
C302 H298 0.929 . S
C302 C304 1.378 . S
C302 C306 1.350 . S
C303 C306 1.463 . S
C303 C308 1.350 . S
C303 N311 1.427 . S
C304 H295 0.930 . S
C304 C302 1.378 . S
C304 C305 1.367 . S
C305 C304 1.367 . S
C305 C307 1.433 . S
C306 C302 1.350 . S
C306 C303 1.463 . S
C306 N310 1.427 . S
C307 H297 0.929 . S
C307 C305 1.433 . S
C307 N310 1.384 . S
C308 H299 0.929 . S
C308 C300 1.378 . S
C308 C303 1.350 . S
C309 H296 0.929 . S
C309 C301 1.433 . S
C309 N311 1.384 . S
N310 C306 1.427 . S
N310 C307 1.384 . S
N311 C303 1.427 . S
N311 C309 1.384 . S
H312 C318 0.930 . S
H313 C322 0.930 . S
H314 C327 0.929 . S
H315 C325 0.929 . S
H316 C320 0.929 . S
H317 C326 0.929 . S
C318 H312 0.930 . S
C318 C319 1.367 . S
C318 C326 1.378 . S
C319 C318 1.367 . S
C319 C327 1.433 . S
C320 H316 0.929 . S
C320 C322 1.378 . S
C320 C324 1.350 . S
C321 C324 1.463 1_655 S
C321 C326 1.350 . S
C321 N329 1.427 . S
C322 H313 0.930 . S
C322 C320 1.378 . S
C322 C323 1.367 . S
C323 C322 1.367 . S
C323 C325 1.433 . S
C324 C320 1.350 . S
C324 C321 1.463 1_455 S
C324 N328 1.427 . S
C325 H315 0.929 . S
C325 C323 1.433 . S
C325 N328 1.384 . S
C326 H317 0.929 . S
C326 C318 1.378 . S
C326 C321 1.350 . S
C327 H314 0.929 . S
C327 C319 1.433 . S
C327 N329 1.384 . S
N328 C324 1.427 . S
N328 C325 1.384 . S
N329 C321 1.427 . S
N329 C327 1.384 . S
H330 C336 0.930 . S
H331 C340 0.930 . S
H332 C345 0.929 1_554 S
H333 C343 0.929 1_556 S
H334 C338 0.929 . S
H335 C344 0.929 . S
C336 H330 0.930 . S
C336 C337 1.367 . S
C336 C344 1.378 . S
C337 C336 1.367 . S
C337 C345 1.433 . S
C338 H334 0.929 . S
C338 C340 1.378 . S
C338 C342 1.350 . S
C339 C342 1.463 1_546 S
C339 C344 1.350 . S
C339 N347 1.427 1_556 S
C340 H331 0.930 . S
C340 C338 1.378 . S
C340 C341 1.367 . S
C341 C340 1.367 . S
C341 C343 1.433 . S
C342 C338 1.350 . S
C342 C339 1.463 1_564 S
C342 N346 1.427 1_554 S
C343 H333 0.929 1_554 S
C343 C341 1.433 . S
C343 N346 1.384 1_554 S
C344 H335 0.929 . S
C344 C336 1.378 . S
C344 C339 1.350 . S
C345 H332 0.929 1_556 S
C345 C337 1.433 . S
C345 N347 1.384 1_556 S
N346 C342 1.427 1_556 S
N346 C343 1.384 1_556 S
N347 C339 1.427 1_554 S
N347 C345 1.384 1_554 S
H348 C354 0.930 . S
H349 C358 0.930 . S
H350 C363 0.929 1_554 S
H351 C361 0.929 . S
H352 C356 0.929 . S
H353 C362 0.929 . S
C354 H348 0.930 . S
C354 C355 1.367 . S
C354 C362 1.378 . S
C355 C354 1.367 . S
C355 C363 1.433 . S
C356 H352 0.929 . S
C356 C358 1.378 . S
C356 C360 1.350 . S
C357 C360 1.463 . S
C357 C362 1.350 . S
C357 N365 1.427 . S
C358 H349 0.930 . S
C358 C356 1.378 . S
C358 C359 1.367 . S
C359 C358 1.367 . S
C359 C361 1.433 . S
C360 C356 1.350 . S
C360 C357 1.463 . S
C360 N364 1.427 . S
C361 H351 0.929 . S
C361 C359 1.433 . S
C361 N364 1.384 . S
C362 H353 0.929 . S
C362 C354 1.378 . S
C362 C357 1.350 . S
C363 H350 0.929 1_556 S
C363 C355 1.433 . S
C363 N365 1.384 . S
N364 C360 1.427 . S
N364 C361 1.384 . S
N365 C357 1.427 . S
N365 C363 1.384 . S
H366 C372 0.930 . S
H367 C376 0.930 . S
H368 C381 0.929 1_556 S
H369 C379 0.929 . S
H370 C374 0.929 . S
H371 C380 0.929 . S
C372 H366 0.930 . S
C372 C373 1.367 . S
C372 C380 1.378 . S
C373 C372 1.367 . S
C373 C381 1.433 . S
C374 H370 0.929 . S
C374 C376 1.378 . S
C374 C378 1.350 . S
C375 C378 1.463 . S
C375 C380 1.350 . S
C375 N383 1.427 . S
C376 H367 0.930 . S
C376 C374 1.378 . S
C376 C377 1.367 . S
C377 C376 1.367 . S
C377 C379 1.433 . S
C378 C374 1.350 . S
C378 C375 1.463 . S
C378 N382 1.427 . S
C379 H369 0.929 . S
C379 C377 1.433 . S
C379 N382 1.384 . S
C380 H371 0.929 . S
C380 C372 1.378 . S
C380 C375 1.350 . S
C381 H368 0.929 1_554 S
C381 C373 1.433 . S
C381 N383 1.384 . S
N382 C378 1.427 . S
N382 C379 1.384 . S
N383 C375 1.427 . S
N383 C381 1.384 . S
H384 C390 0.930 . S
H385 C394 0.930 . S
H386 C399 0.929 . S
H387 C397 0.929 . S
H388 C392 0.929 . S
H389 C398 0.929 . S
C390 H384 0.930 . S
C390 C391 1.367 . S
C390 C398 1.378 . S
C391 C390 1.367 . S
C391 C399 1.433 . S
C392 H388 0.929 . S
C392 C394 1.378 . S
C392 C396 1.350 . S
C393 C396 1.463 . S
C393 C398 1.350 . S
C393 N401 1.427 . S
C394 H385 0.930 . S
C394 C392 1.378 . S
C394 C395 1.367 . S
C395 C394 1.367 . S
C395 C397 1.433 . S
C396 C392 1.350 . S
C396 C393 1.463 . S
C396 N400 1.427 . S
C397 H387 0.929 . S
C397 C395 1.433 . S
C397 N400 1.384 . S
C398 H389 0.929 . S
C398 C390 1.378 . S
C398 C393 1.350 . S
C399 H386 0.929 . S
C399 C391 1.433 . S
C399 N401 1.384 . S
N400 C396 1.427 . S
N400 C397 1.384 . S
N401 C393 1.427 . S
N401 C399 1.384 . S
H402 C408 0.930 . S
H403 C412 0.930 . S
H404 C417 0.929 . S
H405 C415 0.929 . S
H406 C410 0.929 . S
H407 C416 0.929 . S
C408 H402 0.930 . S
C408 C409 1.367 . S
C408 C416 1.378 . S
C409 C408 1.367 . S
C409 C417 1.433 . S
C410 H406 0.929 . S
C410 C412 1.378 . S
C410 C414 1.350 . S
C411 C414 1.463 . S
C411 C416 1.350 . S
C411 N419 1.427 . S
C412 H403 0.930 . S
C412 C410 1.378 . S
C412 C413 1.367 . S
C413 C412 1.367 . S
C413 C415 1.433 . S
C414 C410 1.350 . S
C414 C411 1.463 . S
C414 N418 1.427 . S
C415 H405 0.929 . S
C415 C413 1.433 . S
C415 N418 1.384 . S
C416 H407 0.929 . S
C416 C408 1.378 . S
C416 C411 1.350 . S
C417 H404 0.929 . S
C417 C409 1.433 . S
C417 N419 1.384 . S
N418 C414 1.427 . S
N418 C415 1.384 . S
N419 C411 1.427 . S
N419 C417 1.384 . S
H420 C426 0.930 . S
H421 C430 0.930 . S
H422 C435 0.929 . S
H423 C433 0.929 . S
H424 C428 0.929 . S
H425 C434 0.929 . S
C426 H420 0.930 . S
C426 C427 1.367 . S
C426 C434 1.378 . S
C427 C426 1.367 . S
C427 C435 1.433 . S
C428 H424 0.929 . S
C428 C430 1.378 . S
C428 C432 1.350 . S
C429 C432 1.463 . S
C429 C434 1.350 . S
C429 N437 1.427 . S
C430 H421 0.930 . S
C430 C428 1.378 . S
C430 C431 1.367 . S
C431 C430 1.367 . S
C431 C433 1.433 . S
C432 C428 1.350 . S
C432 C429 1.463 . S
C432 N436 1.427 . S
C433 H423 0.929 . S
C433 C431 1.433 . S
C433 N436 1.384 . S
C434 H425 0.929 . S
C434 C426 1.378 . S
C434 C429 1.350 . S
C435 H422 0.929 . S
C435 C427 1.433 . S
C435 N437 1.384 . S
N436 C432 1.427 . S
N436 C433 1.384 . S
N437 C429 1.427 . S
N437 C435 1.384 . S
H438 C444 0.930 . S
H439 C448 0.930 . S
H440 C453 0.929 . S
H441 C451 0.929 . S
H442 C446 0.929 . S
H443 C452 0.929 . S
C444 H438 0.930 . S
C444 C445 1.367 . S
C444 C452 1.378 . S
C445 C444 1.367 . S
C445 C453 1.433 . S
C446 H442 0.929 . S
C446 C448 1.378 . S
C446 C450 1.350 . S
C447 C450 1.463 . S
C447 C452 1.350 . S
C447 N455 1.427 . S
C448 H439 0.930 . S
C448 C446 1.378 . S
C448 C449 1.367 . S
C449 C448 1.367 . S
C449 C451 1.433 . S
C450 C446 1.350 . S
C450 C447 1.463 . S
C450 N454 1.427 . S
C451 H441 0.929 . S
C451 C449 1.433 . S
C451 N454 1.384 . S
C452 H443 0.929 . S
C452 C444 1.378 . S
C452 C447 1.350 . S
C453 H440 0.929 . S
C453 C445 1.433 . S
C453 N455 1.384 . S
N454 C450 1.427 . S
N454 C451 1.384 . S
N455 C447 1.427 . S
N455 C453 1.384 . S
C139 C8 1.553 . S
C143 C118 1.551 . S
C157 C129 1.546 . S
C161 C19 1.550 . S
C175 C74 1.545 . S
C179 C30 1.548 . S
C193 C41 1.546 . S
C197 C85 1.546 . S
C211 C96 1.548 . S
C215 C52 1.545 . S
C229 C63 1.545 . S
C233 C107 1.548 . S
C247 C7 1.448 . S
C251 C106 1.449 . S
C265 C18 1.434 . S
C269 C117 1.432 . S
C283 C29 1.432 . S
C287 C128 1.432 . S
C301 C73 1.437 . S
C305 C40 1.434 . S
C319 C84 1.433 . S
C323 C51 1.435 . S
C337 C62 1.444 . S
C341 C95 1.447 . S
C355 C5 1.384 1_556 S
C359 C71 1.389 . S
C373 C82 1.393 1_554 S
C377 C16 1.390 . S
C391 C27 1.366 . S
C395 C93 1.365 . S
C409 C38 1.393 . S
C413 C104 1.393 . S
C427 C49 1.376 . S
C431 C115 1.371 . S
C445 C126 1.388 . S
C449 C60 1.392 . S
