# Generated by pormake.
# Topology unr, (4)-cn, num edge types: 1
# Building blocks:
#     Node 0, Type 0, BuildingBlock: QUQFOY_clean_sbu_1, # of connection points: 4
#     Node 1, Type 0, BuildingBlock: QUQFOY_clean_sbu_1, # of connection points: 4
#     Node 2, Type 0, BuildingBlock: QUQFOY_clean_sbu_1, # of connection points: 4
#     Node 3, Type 0, BuildingBlock: QUQFOY_clean_sbu_1, # of connection points: 4
#     Node 4, Type 0, BuildingBlock: QUQFOY_clean_sbu_1, # of connection points: 4
#     Node 5, Type 0, BuildingBlock: QUQFOY_clean_sbu_1, # of connection points: 4
#     Node 6, Type 0, BuildingBlock: QUQFOY_clean_sbu_1, # of connection points: 4
#     Node 7, Type 0, BuildingBlock: QUQFOY_clean_sbu_1, # of connection points: 4
#     Node 8, Type 0, BuildingBlock: QUQFOY_clean_sbu_1, # of connection points: 4
#     Node 9, Type 0, BuildingBlock: QUQFOY_clean_sbu_1, # of connection points: 4
#     Node 10, Type 0, BuildingBlock: QUQFOY_clean_sbu_1, # of connection points: 4
#     Node 11, Type 0, BuildingBlock: QUQFOY_clean_sbu_1, # of connection points: 4
#     Node 12, Type 0, BuildingBlock: QUQFOY_clean_sbu_1, # of connection points: 4
#     Node 13, Type 0, BuildingBlock: QUQFOY_clean_sbu_1, # of connection points: 4
#     Node 14, Type 0, BuildingBlock: QUQFOY_clean_sbu_1, # of connection points: 4
#     Node 15, Type 0, BuildingBlock: QUQFOY_clean_sbu_1, # of connection points: 4
#     Node 16, Type 0, BuildingBlock: QUQFOY_clean_sbu_1, # of connection points: 4
#     Node 17, Type 0, BuildingBlock: QUQFOY_clean_sbu_1, # of connection points: 4
#     Node 18, Type 0, BuildingBlock: QUQFOY_clean_sbu_1, # of connection points: 4
#     Node 19, Type 0, BuildingBlock: QUQFOY_clean_sbu_1, # of connection points: 4
#     Node 20, Type 0, BuildingBlock: QUQFOY_clean_sbu_1, # of connection points: 4
#     Node 21, Type 0, BuildingBlock: QUQFOY_clean_sbu_1, # of connection points: 4
#     Node 22, Type 0, BuildingBlock: QUQFOY_clean_sbu_1, # of connection points: 4
#     Node 23, Type 0, BuildingBlock: QUQFOY_clean_sbu_1, # of connection points: 4
#     Node 24, Type 0, BuildingBlock: QUQFOY_clean_sbu_1, # of connection points: 4
#     Node 25, Type 0, BuildingBlock: QUQFOY_clean_sbu_1, # of connection points: 4
#     Node 26, Type 0, BuildingBlock: QUQFOY_clean_sbu_1, # of connection points: 4
#     Node 27, Type 0, BuildingBlock: QUQFOY_clean_sbu_1, # of connection points: 4
#     Node 28, Type 0, BuildingBlock: QUQFOY_clean_sbu_1, # of connection points: 4
#     Node 29, Type 0, BuildingBlock: QUQFOY_clean_sbu_1, # of connection points: 4
#     Node 30, Type 0, BuildingBlock: QUQFOY_clean_sbu_1, # of connection points: 4
#     Node 31, Type 0, BuildingBlock: QUQFOY_clean_sbu_1, # of connection points: 4
#     Node 32, Type 0, BuildingBlock: QUQFOY_clean_sbu_1, # of connection points: 4
#     Node 33, Type 0, BuildingBlock: QUQFOY_clean_sbu_1, # of connection points: 4
#     Node 34, Type 0, BuildingBlock: QUQFOY_clean_sbu_1, # of connection points: 4
#     Node 35, Type 0, BuildingBlock: QUQFOY_clean_sbu_1, # of connection points: 4
#     Edge 36, Type (0, 0), BuildingBlock: AJUNOK_clean_linker_0, # of connection points: 2
#     Edge 37, Type (0, 0), BuildingBlock: AJUNOK_clean_linker_0, # of connection points: 2
#     Edge 38, Type (0, 0), BuildingBlock: AJUNOK_clean_linker_0, # of connection points: 2
#     Edge 39, Type (0, 0), BuildingBlock: AJUNOK_clean_linker_0, # of connection points: 2
#     Edge 40, Type (0, 0), BuildingBlock: AJUNOK_clean_linker_0, # of connection points: 2
#     Edge 41, Type (0, 0), BuildingBlock: AJUNOK_clean_linker_0, # of connection points: 2
#     Edge 42, Type (0, 0), BuildingBlock: AJUNOK_clean_linker_0, # of connection points: 2
#     Edge 43, Type (0, 0), BuildingBlock: AJUNOK_clean_linker_0, # of connection points: 2
#     Edge 44, Type (0, 0), BuildingBlock: AJUNOK_clean_linker_0, # of connection points: 2
#     Edge 45, Type (0, 0), BuildingBlock: AJUNOK_clean_linker_0, # of connection points: 2
#     Edge 46, Type (0, 0), BuildingBlock: AJUNOK_clean_linker_0, # of connection points: 2
#     Edge 47, Type (0, 0), BuildingBlock: AJUNOK_clean_linker_0, # of connection points: 2
#     Edge 48, Type (0, 0), BuildingBlock: AJUNOK_clean_linker_0, # of connection points: 2
#     Edge 49, Type (0, 0), BuildingBlock: AJUNOK_clean_linker_0, # of connection points: 2
#     Edge 50, Type (0, 0), BuildingBlock: AJUNOK_clean_linker_0, # of connection points: 2
#     Edge 51, Type (0, 0), BuildingBlock: AJUNOK_clean_linker_0, # of connection points: 2
#     Edge 52, Type (0, 0), BuildingBlock: AJUNOK_clean_linker_0, # of connection points: 2
#     Edge 53, Type (0, 0), BuildingBlock: AJUNOK_clean_linker_0, # of connection points: 2
#     Edge 54, Type (0, 0), BuildingBlock: AJUNOK_clean_linker_0, # of connection points: 2
#     Edge 55, Type (0, 0), BuildingBlock: AJUNOK_clean_linker_0, # of connection points: 2
#     Edge 56, Type (0, 0), BuildingBlock: AJUNOK_clean_linker_0, # of connection points: 2
#     Edge 57, Type (0, 0), BuildingBlock: AJUNOK_clean_linker_0, # of connection points: 2
#     Edge 58, Type (0, 0), BuildingBlock: AJUNOK_clean_linker_0, # of connection points: 2
#     Edge 59, Type (0, 0), BuildingBlock: AJUNOK_clean_linker_0, # of connection points: 2
#     Edge 60, Type (0, 0), BuildingBlock: AJUNOK_clean_linker_0, # of connection points: 2
#     Edge 61, Type (0, 0), BuildingBlock: AJUNOK_clean_linker_0, # of connection points: 2
#     Edge 62, Type (0, 0), BuildingBlock: AJUNOK_clean_linker_0, # of connection points: 2
#     Edge 63, Type (0, 0), BuildingBlock: AJUNOK_clean_linker_0, # of connection points: 2
#     Edge 64, Type (0, 0), BuildingBlock: AJUNOK_clean_linker_0, # of connection points: 2
#     Edge 65, Type (0, 0), BuildingBlock: AJUNOK_clean_linker_0, # of connection points: 2
#     Edge 66, Type (0, 0), BuildingBlock: AJUNOK_clean_linker_0, # of connection points: 2
#     Edge 67, Type (0, 0), BuildingBlock: AJUNOK_clean_linker_0, # of connection points: 2
#     Edge 68, Type (0, 0), BuildingBlock: AJUNOK_clean_linker_0, # of connection points: 2
#     Edge 69, Type (0, 0), BuildingBlock: AJUNOK_clean_linker_0, # of connection points: 2
#     Edge 70, Type (0, 0), BuildingBlock: AJUNOK_clean_linker_0, # of connection points: 2
#     Edge 71, Type (0, 0), BuildingBlock: AJUNOK_clean_linker_0, # of connection points: 2
#     Edge 72, Type (0, 0), BuildingBlock: AJUNOK_clean_linker_0, # of connection points: 2
#     Edge 73, Type (0, 0), BuildingBlock: AJUNOK_clean_linker_0, # of connection points: 2
#     Edge 74, Type (0, 0), BuildingBlock: AJUNOK_clean_linker_0, # of connection points: 2
#     Edge 75, Type (0, 0), BuildingBlock: AJUNOK_clean_linker_0, # of connection points: 2
#     Edge 76, Type (0, 0), BuildingBlock: AJUNOK_clean_linker_0, # of connection points: 2
#     Edge 77, Type (0, 0), BuildingBlock: AJUNOK_clean_linker_0, # of connection points: 2
#     Edge 78, Type (0, 0), BuildingBlock: AJUNOK_clean_linker_0, # of connection points: 2
#     Edge 79, Type (0, 0), BuildingBlock: AJUNOK_clean_linker_0, # of connection points: 2
#     Edge 80, Type (0, 0), BuildingBlock: AJUNOK_clean_linker_0, # of connection points: 2
#     Edge 81, Type (0, 0), BuildingBlock: AJUNOK_clean_linker_0, # of connection points: 2
#     Edge 82, Type (0, 0), BuildingBlock: AJUNOK_clean_linker_0, # of connection points: 2
#     Edge 83, Type (0, 0), BuildingBlock: AJUNOK_clean_linker_0, # of connection points: 2
#     Edge 84, Type (0, 0), BuildingBlock: AJUNOK_clean_linker_0, # of connection points: 2
#     Edge 85, Type (0, 0), BuildingBlock: AJUNOK_clean_linker_0, # of connection points: 2
#     Edge 86, Type (0, 0), BuildingBlock: AJUNOK_clean_linker_0, # of connection points: 2
#     Edge 87, Type (0, 0), BuildingBlock: AJUNOK_clean_linker_0, # of connection points: 2
#     Edge 88, Type (0, 0), BuildingBlock: AJUNOK_clean_linker_0, # of connection points: 2
#     Edge 89, Type (0, 0), BuildingBlock: AJUNOK_clean_linker_0, # of connection points: 2
#     Edge 90, Type (0, 0), BuildingBlock: AJUNOK_clean_linker_0, # of connection points: 2
#     Edge 91, Type (0, 0), BuildingBlock: AJUNOK_clean_linker_0, # of connection points: 2
#     Edge 92, Type (0, 0), BuildingBlock: AJUNOK_clean_linker_0, # of connection points: 2
#     Edge 93, Type (0, 0), BuildingBlock: AJUNOK_clean_linker_0, # of connection points: 2
#     Edge 94, Type (0, 0), BuildingBlock: AJUNOK_clean_linker_0, # of connection points: 2
#     Edge 95, Type (0, 0), BuildingBlock: AJUNOK_clean_linker_0, # of connection points: 2
#     Edge 96, Type (0, 0), BuildingBlock: AJUNOK_clean_linker_0, # of connection points: 2
#     Edge 97, Type (0, 0), BuildingBlock: AJUNOK_clean_linker_0, # of connection points: 2
#     Edge 98, Type (0, 0), BuildingBlock: AJUNOK_clean_linker_0, # of connection points: 2
#     Edge 99, Type (0, 0), BuildingBlock: AJUNOK_clean_linker_0, # of connection points: 2
#     Edge 100, Type (0, 0), BuildingBlock: AJUNOK_clean_linker_0, # of connection points: 2
#     Edge 101, Type (0, 0), BuildingBlock: AJUNOK_clean_linker_0, # of connection points: 2
#     Edge 102, Type (0, 0), BuildingBlock: AJUNOK_clean_linker_0, # of connection points: 2
#     Edge 103, Type (0, 0), BuildingBlock: AJUNOK_clean_linker_0, # of connection points: 2
#     Edge 104, Type (0, 0), BuildingBlock: AJUNOK_clean_linker_0, # of connection points: 2
#     Edge 105, Type (0, 0), BuildingBlock: AJUNOK_clean_linker_0, # of connection points: 2
#     Edge 106, Type (0, 0), BuildingBlock: AJUNOK_clean_linker_0, # of connection points: 2
#     Edge 107, Type (0, 0), BuildingBlock: AJUNOK_clean_linker_0, # of connection points: 2
# Relax obj value: 0.297
# Max RMSD: 0.115
# Mean RMSD: 0.115
data_MOF--net-unr--node1-QUQFOY_clean_sbu_1--edge1-AJUNOK_clean_linker_0
_symmetry_space_group_name_H-M    P1
_symmetry_Int_Tables_number       1
_symmetry_cell_setting            triclinic
loop_
_symmetry_equiv_pos_as_xyz
'x, y, z'
_cell_length_a     37.05691
_cell_length_b     37.02538
_cell_length_c     103.70343
_cell_angle_alpha  90.015292
_cell_angle_beta   89.960008
_cell_angle_gamma 120.02428
loop_
_atom_site_label
_atom_site_type_symbol
_atom_site_fract_x
_atom_site_fract_y
_atom_site_fract_z
_atom_type_partial_charge
O0 O 0.14385 0.0682 0.17565 0.0
Cd1 Cd 0.17622 0.13169 0.176 0.0
Cd2 Cd 0.15978 0.11813 0.20233 0.0
O3 O 0.15703 0.06331 0.19606 0.0
O4 O 0.22191 0.15004 0.16339 0.0
O5 O 0.23084 0.15496 0.18467 0.0
C6 C 0.24613 0.15771 0.17324 0.0
C7 C 0.15529 0.1253 0.22479 0.0
C8 C 0.14471 0.0466 0.185 0.0
C9 C 0.11656 0.15294 0.18443 0.0
O10 O 0.11968 0.13527 0.1945 0.0
O11 O 0.14124 0.16037 0.17503 0.0
O12 O 0.12649 0.0952 0.21833 0.0
O13 O 0.18895 0.15056 0.21869 0.0
O14 O 0.92436 0.07634 0.17535 0.0
Cd15 Cd 0.86106 0.04428 0.17467 0.0
Cd16 Cd 0.87252 0.0399 0.20192 0.0
O17 O 0.92803 0.09201 0.19599 0.0
O18 O 0.84586 0.06976 0.16055 0.0
O19 O 0.83482 0.0758 0.18132 0.0
C20 C 0.83491 0.08681 0.16945 0.0
C21 C 0.86424 0.0251 0.22425 0.0
C22 C 0.94522 0.09786 0.18494 0.0
C23 C 0.8375 0.96262 0.18331 0.0
O24 O 0.85348 0.98287 0.19359 0.0
O25 O 0.83316 0.98069 0.17354 0.0
O26 O 0.89411 0.02637 0.21765 0.0
O27 O 0.84046 0.03607 0.21843 0.0
O28 O 0.91161 0.8443 0.1765 0.0
Cd29 Cd 0.94425 0.81355 0.17719 0.0
Cd30 Cd 0.94833 0.83207 0.20308 0.0
O31 O 0.89615 0.83506 0.19717 0.0
O32 O 0.91835 0.76819 0.16443 0.0
O33 O 0.91372 0.75828 0.18566 0.0
C34 C 0.90196 0.74333 0.17416 0.0
C35 C 0.96036 0.83224 0.22542 0.0
C36 C 0.89024 0.84508 0.18594 0.0
C37 C 0.02538 0.87568 0.18503 0.0
O38 O 0.00519 0.87326 0.19518 0.0
O39 O 0.00778 0.84997 0.17588 0.0
O40 O 0.95872 0.86221 0.21977 0.0
O41 O 0.9517 0.7998 0.21858 0.0
O42 O 0.05368 0.14634 0.32522 0.0
Cd43 Cd 0.1171 0.1795 0.32526 0.0
Cd44 Cd 0.10529 0.16183 0.2988 0.0
O45 O 0.04877 0.15625 0.3045 0.0
O46 O 0.1336 0.2243 0.33809 0.0
O47 O 0.14057 0.23473 0.31689 0.0
C48 C 0.14209 0.2492 0.32837 0.0
C49 C 0.11557 0.15679 0.27655 0.0
C50 C 0.03196 0.14506 0.31559 0.0
C51 C 0.14122 0.12124 0.31741 0.0
O52 O 0.12416 0.12378 0.30713 0.0
O53 O 0.14675 0.14548 0.32678 0.0
O54 O 0.0853 0.12762 0.28287 0.0
O55 O 0.13845 0.1914 0.28257 0.0
O56 O 0.84023 0.90898 0.32572 0.0
Cd57 Cd 0.80684 0.93894 0.3256 0.0
Cd58 Cd 0.82452 0.9436 0.29875 0.0
O59 O 0.8307 0.89345 0.30503 0.0
O60 O 0.76427 0.91232 0.33918 0.0
O61 O 0.75022 0.90564 0.31819 0.0
C62 C 0.73775 0.89447 0.32994 0.0
C63 C 0.82921 0.95557 0.27628 0.0
C64 C 0.84168 0.88822 0.3162 0.0
C65 C 0.86339 0.02146 0.31696 0.0
O66 O 0.86094 0.00153 0.30674 0.0
O67 O 0.84043 0.00274 0.32658 0.0
O68 O 0.85899 0.95665 0.28286 0.0
O69 O 0.79472 0.94459 0.28226 0.0
O70 O 0.07477 0.92981 0.32645 0.0
Cd71 Cd 0.04543 0.86648 0.3267 0.0
Cd72 Cd 0.04082 0.8779 0.29998 0.0
O73 O 0.0908 0.9351 0.30582 0.0
O74 O 0.07276 0.85181 0.34037 0.0
O75 O 0.07893 0.84322 0.31942 0.0
C76 C 0.09059 0.8429 0.33118 0.0
C77 C 0.02771 0.86646 0.27765 0.0
C78 C 0.09557 0.95177 0.31692 0.0
C79 C 0.96316 0.84055 0.3182 0.0
O80 O 0.98316 0.85773 0.30797 0.0
O81 O 0.98169 0.83613 0.32782 0.0
O82 O 0.02717 0.89651 0.28363 0.0
O83 O 0.03949 0.84442 0.28411 0.0
O84 O 0.8411 0.92722 0.82605 0.0
Cd85 Cd 0.81009 0.86377 0.82524 0.0
Cd86 Cd 0.82381 0.87778 0.79924 0.0
O87 O 0.82701 0.93254 0.80577 0.0
O88 O 0.76454 0.84328 0.83797 0.0
O89 O 0.75519 0.84017 0.81672 0.0
C90 C 0.74001 0.836 0.82823 0.0
C91 C 0.82 0.86692 0.77682 0.0
C92 C 0.83952 0.94895 0.81685 0.0
C93 C 0.87014 0.84397 0.81572 0.0
O94 O 0.86651 0.86229 0.80589 0.0
O95 O 0.84618 0.83615 0.82534 0.0
O96 O 0.85057 0.89873 0.78217 0.0
O97 O 0.78937 0.84184 0.78408 0.0
O98 O 0.06122 0.91275 0.82467 0.0
Cd99 Cd 0.12459 0.94411 0.82533 0.0
Cd100 Cd 0.11566 0.95215 0.79899 0.0
O101 O 0.05859 0.90038 0.80382 0.0
O102 O 0.14033 0.91561 0.83831 0.0
O103 O 0.15004 0.91383 0.8172 0.0
C104 C 0.15043 0.90024 0.82868 0.0
C105 C 0.12953 0.96807 0.77685 0.0
C106 C 0.04059 0.89336 0.81475 0.0
C107 C 0.14722 0.02677 0.81818 0.0
O108 O 0.13178 0.00812 0.80762 0.0
O109 O 0.15252 0.00753 0.82744 0.0
O110 O 0.09827 0.96678 0.7826 0.0
O111 O 0.15176 0.95677 0.78342 0.0
O112 O 0.07104 0.14412 0.82744 0.0
Cd113 Cd 0.04028 0.17668 0.82695 0.0
Cd114 Cd 0.03597 0.15852 0.80039 0.0
O115 O 0.08706 0.15412 0.80679 0.0
O116 O 0.06783 0.22232 0.83955 0.0
O117 O 0.07194 0.23145 0.81828 0.0
C118 C 0.08443 0.24666 0.82972 0.0
C119 C 0.02384 0.153 0.77792 0.0
C120 C 0.09239 0.14336 0.818 0.0
C121 C 0.95825 0.11873 0.81867 0.0
O122 O 0.97829 0.1213 0.80847 0.0
O123 O 0.97666 0.14225 0.8282 0.0
O124 O 0.02344 0.12371 0.7846 0.0
O125 O 0.03433 0.18758 0.78379 0.0
O126 O 0.92474 0.84396 0.67744 0.0
Cd127 Cd 0.86143 0.81149 0.6765 0.0
Cd128 Cd 0.86987 0.82847 0.70326 0.0
O129 O 0.92761 0.83538 0.69838 0.0
O130 O 0.84643 0.76719 0.66358 0.0
O131 O 0.83602 0.75581 0.68468 0.0
C132 C 0.8361 0.74179 0.67324 0.0
C133 C 0.85611 0.83368 0.72516 0.0
C134 C 0.94549 0.84598 0.68741 0.0
C135 C 0.83607 0.86921 0.68376 0.0
O136 O 0.85119 0.86571 0.69433 0.0
O137 O 0.83287 0.8463 0.67424 0.0
O138 O 0.88699 0.86315 0.71912 0.0
O139 O 0.83502 0.79858 0.71921 0.0
O140 O 0.14336 0.07786 0.67602 0.0
Cd141 Cd 0.17533 0.04641 0.6762 0.0
Cd142 Cd 0.16273 0.04699 0.70249 0.0
O143 O 0.15876 0.09835 0.69618 0.0
O144 O 0.21728 0.07093 0.66237 0.0
O145 O 0.23235 0.07925 0.6833 0.0
C146 C 0.2443 0.08933 0.67145 0.0
C147 C 0.16454 0.03721 0.72488 0.0
C148 C 0.14527 0.10145 0.68517 0.0
C149 C 0.11631 0.96666 0.68587 0.0
O150 O 0.12042 0.98889 0.69567 0.0
O151 O 0.13982 0.98257 0.67614 0.0
O152 O 0.13443 0.03891 0.71939 0.0
O153 O 0.19631 0.04497 0.71783 0.0
O154 O 0.91036 0.0619 0.67591 0.0
Cd155 Cd 0.94121 0.12533 0.67643 0.0
Cd156 Cd 0.9461 0.11135 0.70289 0.0
O157 O 0.89495 0.05575 0.69661 0.0
O158 O 0.91405 0.14317 0.66362 0.0
O159 O 0.90923 0.1485 0.68485 0.0
C160 C 0.89712 0.15103 0.67334 0.0
C161 C 0.95849 0.11892 0.72535 0.0
C162 C 0.88927 0.03972 0.6854 0.0
C163 C 0.02337 0.14881 0.68452 0.0
O164 O 0.00356 0.13115 0.69474 0.0
O165 O 0.00486 0.15474 0.67518 0.0
O166 O 0.95863 0.08964 0.7188 0.0
O167 O 0.94797 0.14276 0.71935 0.0
O168 O 0.81017 0.39685 0.50887 0.0
Cd169 Cd 0.84184 0.46032 0.50935 0.0
Cd170 Cd 0.82661 0.44661 0.5356 0.0
O171 O 0.82373 0.39182 0.52923 0.0
O172 O 0.8846 0.47847 0.49575 0.0
O173 O 0.89848 0.48455 0.51676 0.0
C174 C 0.91113 0.48696 0.50497 0.0
C175 C 0.82829 0.45639 0.55811 0.0
C176 C 0.81149 0.37525 0.51816 0.0
C177 C 0.78167 0.48069 0.51842 0.0
O178 O 0.78481 0.46264 0.5284 0.0
O179 O 0.80635 0.48854 0.50899 0.0
O180 O 0.79794 0.42524 0.55243 0.0
O181 O 0.85974 0.48153 0.55112 0.0
O182 O 0.5904 0.40908 0.50967 0.0
Cd183 Cd 0.52696 0.37713 0.50974 0.0
Cd184 Cd 0.539 0.37561 0.53577 0.0
O185 O 0.59432 0.42793 0.52998 0.0
O186 O 0.50878 0.40332 0.49669 0.0
O187 O 0.50262 0.40836 0.51787 0.0
C188 C 0.50037 0.42022 0.50629 0.0
C189 C 0.52625 0.36392 0.55807 0.0
C190 C 0.61153 0.432 0.51902 0.0
C191 C 0.50778 0.29709 0.51849 0.0
O192 O 0.5252 0.31858 0.52847 0.0
O193 O 0.49935 0.3134 0.50905 0.0
O194 O 0.55858 0.36661 0.55262 0.0
O195 O 0.50222 0.37167 0.55105 0.0
O196 O 0.58157 0.17806 0.5093 0.0
Cd197 Cd 0.61266 0.14584 0.50867 0.0
Cd198 Cd 0.61873 0.16199 0.53539 0.0
O199 O 0.56738 0.16747 0.53005 0.0
O200 O 0.58549 0.10377 0.49499 0.0
O201 O 0.58106 0.08877 0.5159 0.0
C202 C 0.56882 0.07675 0.50418 0.0
C203 C 0.63325 0.1641 0.55764 0.0
C204 C 0.56119 0.17869 0.51903 0.0
C205 C 0.69496 0.20439 0.51664 0.0
O206 O 0.67553 0.20088 0.52706 0.0
O207 O 0.67618 0.18109 0.50709 0.0
O208 O 0.63276 0.1943 0.55175 0.0
O209 O 0.62186 0.13037 0.55115 0.0
O210 O 0.7301 0.47753 0.65877 0.0
Cd211 Cd 0.79344 0.50988 0.65943 0.0
Cd212 Cd 0.78259 0.49348 0.63246 0.0
O213 O 0.7259 0.48798 0.63804 0.0
O214 O 0.80817 0.55154 0.67324 0.0
O215 O 0.81884 0.56714 0.65237 0.0
C216 C 0.81862 0.57883 0.66413 0.0
C217 C 0.79406 0.48824 0.61033 0.0
C218 C 0.70882 0.47681 0.64911 0.0
C219 C 0.81775 0.45209 0.65125 0.0
O220 O 0.80158 0.45575 0.64092 0.0
O221 O 0.82211 0.47497 0.66089 0.0
O222 O 0.7635 0.45899 0.61654 0.0
O223 O 0.81618 0.52314 0.61629 0.0
O224 O 0.50856 0.24646 0.65829 0.0
Cd225 Cd 0.47663 0.27797 0.65821 0.0
Cd226 Cd 0.49144 0.28058 0.63216 0.0
O227 O 0.49552 0.22875 0.63784 0.0
O228 O 0.43199 0.25112 0.67117 0.0
O229 O 0.42121 0.24666 0.64998 0.0
C230 C 0.40687 0.23444 0.66152 0.0
C231 C 0.49154 0.29359 0.60991 0.0
C232 C 0.50797 0.22432 0.64887 0.0
C233 C 0.53717 0.35858 0.6498 0.0
O234 O 0.53351 0.33757 0.63973 0.0
O235 O 0.51239 0.34171 0.6592 0.0
O236 O 0.52126 0.29135 0.61546 0.0
O237 O 0.45898 0.28438 0.61675 0.0
O238 O 0.74283 0.26024 0.65892 0.0
Cd239 Cd 0.71067 0.19675 0.65883 0.0
Cd240 Cd 0.70878 0.20926 0.63247 0.0
O241 O 0.76052 0.26472 0.63848 0.0
O242 O 0.73521 0.17934 0.67266 0.0
O243 O 0.74263 0.17156 0.65173 0.0
C244 C 0.75295 0.16993 0.66356 0.0
C245 C 0.69873 0.19738 0.61007 0.0
C246 C 0.76522 0.28161 0.64952 0.0
C247 C 0.63008 0.17621 0.64984 0.0
O248 O 0.65116 0.19353 0.63977 0.0
O249 O 0.64698 0.16891 0.65935 0.0
O250 O 0.69991 0.22898 0.61557 0.0
O251 O 0.70665 0.17351 0.61713 0.0
O252 O 0.51145 0.25802 0.16139 0.0
Cd253 Cd 0.47668 0.1948 0.16058 0.0
Cd254 Cd 0.49586 0.21079 0.13372 0.0
O255 O 0.50215 0.26648 0.14087 0.0
O256 O 0.43352 0.17852 0.17397 0.0
O257 O 0.42074 0.17386 0.15291 0.0
C258 C 0.40777 0.17176 0.16464 0.0
C259 C 0.5018 0.20598 0.11117 0.0
C260 C 0.51305 0.28135 0.15221 0.0
C261 C 0.53146 0.1674 0.15152 0.0
O262 O 0.53001 0.18636 0.14153 0.0
O263 O 0.50861 0.16295 0.16119 0.0
O264 O 0.53156 0.2335 0.11808 0.0
O265 O 0.46673 0.18252 0.11688 0.0
O266 O 0.72114 0.23735 0.1569 0.0
Cd267 Cd 0.7846 0.27041 0.15575 0.0
Cd268 Cd 0.7676 0.26745 0.13009 0.0
O269 O 0.71392 0.21535 0.13685 0.0
O270 O 0.80609 0.24669 0.16857 0.0
O271 O 0.80828 0.23895 0.14735 0.0
C272 C 0.81319 0.22894 0.15892 0.0
C273 C 0.77861 0.27948 0.10785 0.0
C274 C 0.69859 0.21273 0.14804 0.0
C275 C 0.80152 0.34866 0.14603 0.0
O276 O 0.78137 0.32507 0.1367 0.0
O277 O 0.81204 0.33426 0.15549 0.0
O278 O 0.74567 0.27463 0.11348 0.0
O279 O 0.80338 0.27181 0.11453 0.0
O280 O 0.74287 0.47858 0.15662 0.0
Cd281 Cd 0.71294 0.51145 0.1593 0.0
Cd282 Cd 0.69853 0.49458 0.13219 0.0
O283 O 0.7492 0.48609 0.1355 0.0
O284 O 0.74312 0.55101 0.17341 0.0
O285 O 0.74353 0.56984 0.15303 0.0
C286 C 0.75784 0.57976 0.16467 0.0
C287 C 0.67605 0.48946 0.11062 0.0
C288 C 0.7585 0.47533 0.1461 0.0
C289 C 0.62845 0.45313 0.1532 0.0
O290 O 0.64466 0.45726 0.14214 0.0
O291 O 0.65001 0.47619 0.16246 0.0
O292 O 0.67733 0.45961 0.11643 0.0
O293 O 0.69152 0.52465 0.11659 0.0
O294 O 0.58822 0.18166 0.00844 0.0
Cd295 Cd 0.52508 0.14794 0.00992 0.0
Cd296 Cd 0.54275 0.17064 0.03593 0.0
O297 O 0.59811 0.17557 0.02908 0.0
O298 O 0.50669 0.10192 0.99745 0.0
O299 O 0.50426 0.09363 0.01873 0.0
C300 C 0.50071 0.07812 0.0073 0.0
C301 C 0.53577 0.17579 0.05842 0.0
C302 C 0.61219 0.1846 0.01759 0.0
C303 C 0.50138 0.20665 0.0177 0.0
O304 O 0.521 0.20658 0.02771 0.0
O305 O 0.49435 0.18089 0.00866 0.0
O306 O 0.56451 0.20546 0.05178 0.0
O307 O 0.51236 0.14111 0.0525 0.0
O308 O 0.80954 0.41314 0.0099 0.0
Cd309 Cd 0.84202 0.38268 0.00757 0.0
Cd310 Cd 0.8287 0.37275 0.03476 0.0
O311 O 0.82403 0.42522 0.03058 0.0
O312 O 0.88312 0.41213 0.99377 0.0
O313 O 0.89953 0.41299 0.01444 0.0
C314 C 0.91081 0.42704 0.00282 0.0
C315 C 0.82241 0.35593 0.05693 0.0
C316 C 0.81027 0.43209 0.02017 0.0
C317 C 0.78397 0.29947 0.01491 0.0
O318 O 0.78927 0.31751 0.02571 0.0
O319 O 0.80644 0.31934 0.00532 0.0
O320 O 0.79377 0.35761 0.05053 0.0
O321 O 0.8567 0.36609 0.05095 0.0
O322 O 0.57531 0.39722 0.00986 0.0
Cd323 Cd 0.60771 0.46064 0.01098 0.0
Cd324 Cd 0.60363 0.4447 0.03658 0.0
O325 O 0.55157 0.39125 0.02962 0.0
O326 O 0.58579 0.48116 0.99726 0.0
O327 O 0.57476 0.48448 0.01821 0.0
C328 C 0.5665 0.48865 0.00635 0.0
C329 C 0.60825 0.45655 0.05894 0.0
C330 C 0.54971 0.37528 0.01859 0.0
C331 C 0.68555 0.47756 0.02135 0.0
O332 O 0.66188 0.45746 0.0307 0.0
O333 O 0.67132 0.48816 0.01186 0.0
O334 O 0.60591 0.42368 0.054 0.0
O335 O 0.60513 0.48221 0.05124 0.0
O336 O 0.4755 0.72813 0.8427 0.0
Cd337 Cd 0.50784 0.79156 0.84257 0.0
Cd338 Cd 0.49259 0.7801 0.86919 0.0
O339 O 0.48702 0.72364 0.86331 0.0
O340 O 0.54968 0.80759 0.82875 0.0
O341 O 0.56494 0.81609 0.84966 0.0
C342 C 0.57678 0.81698 0.83785 0.0
C343 C 0.4935 0.79221 0.89156 0.0
C344 C 0.47536 0.70669 0.85225 0.0
C345 C 0.44984 0.81537 0.85135 0.0
O346 O 0.45305 0.79833 0.86156 0.0
O347 O 0.47308 0.82051 0.84173 0.0
O348 O 0.46266 0.76132 0.88595 0.0
O349 O 0.52608 0.81503 0.88465 0.0
O350 O 0.25904 0.74474 0.84315 0.0
Cd351 Cd 0.1956 0.71306 0.8429 0.0
Cd352 Cd 0.20684 0.71224 0.86944 0.0
O353 O 0.26294 0.76328 0.8635 0.0
O354 O 0.17878 0.73818 0.8291 0.0
O355 O 0.17062 0.74515 0.85004 0.0
C356 C 0.16931 0.75582 0.83822 0.0
C357 C 0.19515 0.70093 0.89179 0.0
C358 C 0.28022 0.76724 0.85256 0.0
C359 C 0.17351 0.63266 0.85236 0.0
O360 O 0.19043 0.65433 0.86235 0.0
O361 O 0.1674 0.64923 0.84252 0.0
O362 O 0.22661 0.70236 0.88613 0.0
O363 O 0.17165 0.70996 0.88497 0.0
O364 O 0.24362 0.5109 0.8444 0.0
Cd365 Cd 0.27444 0.47844 0.84328 0.0
Cd366 Cd 0.28228 0.49566 0.87041 0.0
O367 O 0.2313 0.50202 0.8653 0.0
O368 O 0.2466 0.43703 0.82945 0.0
O369 O 0.2429 0.42103 0.85025 0.0
C370 C 0.23028 0.40956 0.83853 0.0
C371 C 0.30123 0.50234 0.89236 0.0
C372 C 0.22442 0.51268 0.85429 0.0
C373 C 0.35727 0.53609 0.85096 0.0
O374 O 0.33824 0.53248 0.86146 0.0
O375 O 0.33795 0.51332 0.84137 0.0
O376 O 0.29962 0.53131 0.88609 0.0
O377 O 0.28743 0.46693 0.88662 0.0
O378 O 0.39771 0.81487 0.9926 0.0
Cd379 Cd 0.46105 0.84747 0.99332 0.0
Cd380 Cd 0.45136 0.83051 0.9663 0.0
O381 O 0.39425 0.82422 0.97175 0.0
O382 O 0.4755 0.88907 0.00715 0.0
O383 O 0.48625 0.90475 0.98629 0.0
C384 C 0.48593 0.91638 0.99805 0.0
C385 C 0.46271 0.82734 0.944 0.0
C386 C 0.37675 0.81348 0.98277 0.0
C387 C 0.48672 0.7901 0.98531 0.0
O388 O 0.47097 0.79325 0.97481 0.0
O389 O 0.49005 0.81291 0.99488 0.0
O390 O 0.43278 0.79711 0.95013 0.0
O391 O 0.48493 0.86152 0.95029 0.0
O392 O 0.17686 0.58313 0.99214 0.0
Cd393 Cd 0.14523 0.61493 0.99206 0.0
Cd394 Cd 0.16029 0.61825 0.96595 0.0
O395 O 0.16499 0.56674 0.97157 0.0
O396 O 0.09931 0.58754 0.00459 0.0
O397 O 0.09054 0.58466 0.98332 0.0
C398 C 0.07504 0.57183 0.99471 0.0
C399 C 0.16052 0.63114 0.94369 0.0
C400 C 0.17692 0.56169 0.98262 0.0
C401 C 0.20525 0.69605 0.98372 0.0
O402 O 0.20154 0.67541 0.97357 0.0
O403 O 0.18127 0.67863 0.99326 0.0
O404 O 0.19045 0.62942 0.9493 0.0
O405 O 0.12781 0.62163 0.95049 0.0
O406 O 0.41198 0.59842 0.99308 0.0
Cd407 Cd 0.38026 0.53498 0.99234 0.0
Cd408 Cd 0.37941 0.54896 0.9664 0.0
O409 O 0.43127 0.60372 0.97279 0.0
O410 O 0.40566 0.51559 0.00527 0.0
O411 O 0.41239 0.51184 0.98406 0.0
C412 C 0.42339 0.50837 0.99564 0.0
C413 C 0.37148 0.53787 0.94397 0.0
C414 C 0.43522 0.62016 0.98386 0.0
C415 C 0.30002 0.515 0.98329 0.0
O416 O 0.32153 0.53354 0.9734 0.0
O417 O 0.31653 0.50658 0.99267 0.0
O418 O 0.37276 0.56964 0.94938 0.0
O419 O 0.37746 0.51297 0.95118 0.0
O420 O 0.17653 0.59308 0.4935 0.0
Cd421 Cd 0.14362 0.52964 0.49285 0.0
Cd422 Cd 0.15988 0.54309 0.46666 0.0
O423 O 0.16561 0.59927 0.47295 0.0
O424 O 0.09804 0.51126 0.5055 0.0
O425 O 0.08898 0.50736 0.48423 0.0
C426 C 0.07382 0.50426 0.4957 0.0
C427 C 0.15901 0.532 0.44422 0.0
C428 C 0.17706 0.61535 0.48413 0.0
C429 C 0.20185 0.50633 0.48415 0.0
O430 O 0.19927 0.52437 0.47409 0.0
O431 O 0.17769 0.49991 0.49362 0.0
O432 O 0.18988 0.56255 0.44994 0.0
O433 O 0.12632 0.50902 0.45107 0.0
O434 O 0.39292 0.57616 0.49158 0.0
Cd435 Cd 0.45632 0.60756 0.49114 0.0
Cd436 Cd 0.44222 0.60718 0.46504 0.0
O437 O 0.38697 0.55578 0.47138 0.0
O438 O 0.47409 0.58342 0.50497 0.0
O439 O 0.48035 0.57453 0.48404 0.0
C440 C 0.48255 0.56482 0.4959 0.0
C441 C 0.45391 0.61712 0.44265 0.0
C442 C 0.37083 0.55266 0.48248 0.0
C443 C 0.47644 0.68734 0.48168 0.0
O444 O 0.45779 0.66518 0.47192 0.0
O445 O 0.48468 0.67138 0.49125 0.0
O446 O 0.42203 0.61529 0.44815 0.0
O447 O 0.47793 0.60936 0.44969 0.0
O448 O 0.40943 0.81106 0.49155 0.0
Cd449 Cd 0.37871 0.8436 0.49268 0.0
Cd450 Cd 0.36964 0.82823 0.46607 0.0
O451 O 0.42015 0.82048 0.47061 0.0
O452 O 0.40837 0.88816 0.5055 0.0
O453 O 0.40864 0.89913 0.4844 0.0
C454 C 0.42308 0.91339 0.49579 0.0
C455 C 0.35389 0.82711 0.44396 0.0
C456 C 0.4277 0.80929 0.48142 0.0
C457 C 0.2952 0.78602 0.48544 0.0
O458 O 0.31327 0.78985 0.47472 0.0
O459 O 0.31537 0.80865 0.49495 0.0
O460 O 0.35359 0.79627 0.44967 0.0
O461 O 0.36656 0.86086 0.45056 0.0
O462 O 0.25126 0.51238 0.34249 0.0
Cd463 Cd 0.1879 0.4817 0.34247 0.0
Cd464 Cd 0.20033 0.49782 0.36907 0.0
O465 O 0.2559 0.50146 0.36314 0.0
O466 O 0.17068 0.43955 0.32871 0.0
O467 O 0.16192 0.42453 0.34964 0.0
C468 C 0.16065 0.41241 0.33784 0.0
C469 C 0.18918 0.49891 0.39146 0.0
C470 C 0.27259 0.51222 0.35202 0.0
C471 C 0.1668 0.54184 0.35101 0.0
O472 O 0.18344 0.53816 0.36123 0.0
O473 O 0.16081 0.51813 0.34144 0.0
O474 O 0.22018 0.52892 0.38561 0.0
O475 O 0.16568 0.46591 0.38481 0.0
O476 O 0.47361 0.73994 0.34273 0.0
Cd477 Cd 0.50419 0.70716 0.34204 0.0
Cd478 Cd 0.49004 0.70194 0.3686 0.0
O479 O 0.48565 0.75404 0.36345 0.0
O480 O 0.54906 0.73463 0.32917 0.0
O481 O 0.55959 0.73642 0.35034 0.0
C482 C 0.57417 0.74974 0.33889 0.0
C483 C 0.48865 0.68707 0.39078 0.0
C484 C 0.47404 0.76058 0.35256 0.0
C485 C 0.44447 0.62553 0.35015 0.0
O486 O 0.44916 0.6454 0.36054 0.0
O487 O 0.46751 0.64367 0.34049 0.0
O488 O 0.45891 0.68904 0.38513 0.0
O489 O 0.5218 0.69745 0.3841 0.0
O490 O 0.24478 0.73401 0.34272 0.0
Cd491 Cd 0.27804 0.79746 0.343 0.0
Cd492 Cd 0.27933 0.78531 0.36915 0.0
O493 O 0.22704 0.73031 0.36313 0.0
O494 O 0.25245 0.81736 0.33029 0.0
O495 O 0.24809 0.8225 0.35155 0.0
C496 C 0.23621 0.82576 0.34008 0.0
C497 C 0.28894 0.79694 0.39155 0.0
C498 C 0.22209 0.71309 0.35214 0.0
C499 C 0.3581 0.81666 0.35197 0.0
O500 O 0.33677 0.79974 0.36203 0.0
O501 O 0.34159 0.82397 0.34236 0.0
O502 O 0.28708 0.76501 0.38606 0.0
O503 O 0.28205 0.82146 0.38445 0.0
C504 C 0.05828 0.15688 0.1946 0.0
C505 C 0.07839 0.15579 0.1832 0.0
C506 C 0.01535 0.14179 0.19485 0.0
C507 C 0.99103 0.12514 0.18369 0.0
H508 H 0.07504 0.16556 0.20367 0.0
H509 H 0.00084 0.1399 0.20409 0.0
S510 S 0.03109 0.1271 0.15068 0.0
N511 N 0.07267 0.14543 0.16 0.0
N512 N -0.00811 0.11766 0.16034 0.0
C513 C 0.01185 0.1298 0.17187 0.0
C514 C 0.0557 0.14517 0.17165 0.0
C515 C 0.84993 0.91168 0.17147 0.0
C516 C 0.83367 0.92115 0.18235 0.0
C517 C 0.86457 0.88344 0.17236 0.0
C518 C 0.86338 0.86387 0.18416 0.0
H519 H 0.85578 0.92953 0.16267 0.0
H520 H 0.88026 0.87994 0.16405 0.0
S521 S 0.81217 0.86938 0.21428 0.0
N522 N 0.80856 0.90224 0.20434 0.0
N523 N 0.83586 0.84902 0.20606 0.0
C524 C 0.84156 0.86859 0.19452 0.0
C525 C 0.82664 0.89726 0.19358 0.0
C526 C 0.11816 0.97613 0.19471 0.0
C527 C 0.12495 0.00066 0.18364 0.0
C528 C 0.08933 0.93341 0.19461 0.0
C529 C 0.06639 0.91364 0.18344 0.0
H530 H 0.13236 0.99044 0.20383 0.0
H531 H 0.08209 0.91657 0.20367 0.0
S532 S 0.08108 0.96134 0.15107 0.0
N533 N 0.11307 0.00021 0.1605 0.0
N534 N 0.05841 0.91973 0.16043 0.0
C535 C 0.07719 0.9364 0.17188 0.0
C536 C 0.10658 0.98009 0.17196 0.0
C537 C 0.14945 0.0651 0.30745 0.0
C538 C 0.14608 0.08422 0.31877 0.0
C539 C 0.13681 0.02266 0.30719 0.0
C540 C 0.12042 -0.00219 0.31827 0.0
H541 H 0.15808 0.08208 0.29841 0.0
H542 H 0.13663 0.00873 0.29799 0.0
S543 S 0.11682 0.03585 0.35116 0.0
N544 N 0.13373 0.07745 0.34188 0.0
N545 N 0.11058 -0.0024 0.34154 0.0
C546 C 0.12277 0.01796 0.33007 0.0
C547 C 0.13562 0.06132 0.33029 0.0
C548 C 0.92461 0.07418 0.32921 0.0
C549 C 0.89975 0.06373 0.31811 0.0
C550 C 0.96713 0.10404 0.32865 0.0
C551 C 0.98599 0.1243 0.31698 0.0
H552 H 0.91248 0.05604 0.33796 0.0
H553 H 0.98586 0.10837 0.33715 0.0
S554 S 0.93083 0.11636 0.28632 0.0
N555 N 0.89434 0.08215 0.296 0.0
N556 N 0.97414 0.13845 0.29491 0.0
C557 C 0.95996 0.11841 0.30637 0.0
C558 C 0.91675 0.08807 0.30697 0.0
C559 C 0.88233 0.86465 0.32953 0.0
C560 C 0.86202 0.8627 0.31783 0.0
C561 C 0.91152 0.85117 0.33028 0.0
C562 C 0.92123 0.83537 0.31933 0.0
H563 H 0.87856 0.88001 0.33789 0.0
H564 H 0.9298 0.8576 0.339 0.0
S565 S 0.86817 0.81225 0.28762 0.0
N566 N 0.84702 0.83493 0.29596 0.0
N567 N 0.90208 0.80992 0.2974 0.0
C568 C 0.89682 0.82763 0.3082 0.0
C569 C 0.86717 0.84132 0.30741 0.0
C570 C 0.93187 0.85297 0.82781 0.0
C571 C 0.9079 0.84038 0.8165 0.0
C572 C 0.97456 0.86643 0.8274 0.0
C573 C -0.00547 0.86768 0.81568 0.0
H574 H 0.91875 0.85666 0.83671 0.0
H575 H -0.00751 0.87918 0.83614 0.0
S576 S 0.9422 0.82639 0.78422 0.0
N577 N 0.90467 0.82146 0.79393 0.0
N578 N 0.98481 0.84644 0.79312 0.0
C579 C 0.9695 0.84962 0.80472 0.0
C580 C 0.92612 0.836 0.80515 0.0
C581 C 0.1388 0.11916 0.80871 0.0
C582 C 0.11904 0.12423 0.81958 0.0
C583 C 0.15391 0.09134 0.80892 0.0
C584 C 0.14973 0.0675 0.81998 0.0
H585 H 0.13957 0.13404 0.79964 0.0
H586 H 0.16515 0.0854 0.79997 0.0
S587 S 0.11148 0.07805 0.85198 0.0
N588 N 0.10475 0.11012 0.84255 0.0
N589 N 0.13265 0.05719 0.84279 0.0
C590 C 0.13575 0.07676 0.83141 0.0
C591 C 0.12035 0.10523 0.83124 0.0
C592 C 0.87894 0.01344 0.8302 0.0
C593 C 0.8585 0.99471 0.81854 0.0
C594 C 0.90753 0.05632 0.83089 0.0
C595 C 0.91655 0.08166 0.81993 0.0
H596 H 0.87581 0.99446 0.83854 0.0
H597 H 0.92603 0.06852 0.83957 0.0
S598 S 0.86278 0.0506 0.78835 0.0
N599 N 0.84246 0.00685 0.79673 0.0
N600 N 0.89654 0.08729 0.79806 0.0
C601 C 0.89189 0.06456 0.80887 0.0
C602 C 0.86278 0.02101 0.80815 0.0
C603 C 0.86501 0.97521 0.67211 0.0
C604 C 0.86265 0.99398 0.68368 0.0
C605 C 0.85006 0.93219 0.67141 0.0
C606 C 0.8323 0.90674 0.68228 0.0
H607 H 0.88182 0.99417 0.66386 0.0
H608 H 0.85684 0.91987 0.66285 0.0
S609 S 0.80765 0.9382 0.71352 0.0
N610 N 0.83266 0.98205 0.70524 0.0
N611 N 0.80474 0.90131 0.7039 0.0
C612 C 0.8242 0.92405 0.6932 0.0
C613 C 0.83946 0.96775 0.69395 0.0
C614 C 0.05406 0.91347 0.67404 0.0
C615 C 0.07836 0.92531 0.68528 0.0
C616 C 0.0113 0.88448 0.6746 0.0
C617 C 0.99155 0.86646 0.68642 0.0
H618 H 0.06702 0.92976 0.66505 0.0
H619 H -0.00682 0.8789 0.66588 0.0
S620 S 0.0446 0.87893 0.71782 0.0
N621 N 0.082 0.91075 0.70794 0.0
N622 N 0.00172 0.85615 0.70904 0.0
C623 C 0.01682 0.8739 0.69735 0.0
C624 C 0.06029 0.90337 0.69675 0.0
C625 C 0.08798 0.15756 0.69439 0.0
C626 C 0.06523 0.15376 0.6831 0.0
C627 C 0.1175 0.14459 0.69467 0.0
C628 C 0.12525 0.12729 0.68367 0.0
H629 H 0.07995 0.16668 0.70339 0.0
H630 H 0.13136 0.14464 0.70387 0.0
S631 S 0.08292 0.12245 0.65084 0.0
N632 N 0.0589 0.14025 0.66006 0.0
N633 N 0.11494 0.11632 0.66047 0.0
C634 C 0.10732 0.1293 0.67188 0.0
C635 C 0.07719 0.14259 0.67162 0.0
C636 C 0.68189 0.47319 0.52899 0.0
C637 C 0.65746 0.45791 0.51779 0.0
C638 C 0.72437 0.48612 0.52876 0.0
C639 C 0.74396 0.48442 0.51733 0.0
H640 H 0.66759 0.4717 0.53823 0.0
H641 H 0.74106 0.4938 0.53784 0.0
S642 S 0.69665 0.45856 0.48475 0.0
N643 N 0.65799 0.45078 0.49443 0.0
N644 N 0.73799 0.47479 0.49409 0.0
C645 C 0.72142 0.47511 0.50575 0.0
C646 C 0.678 0.4618 0.50597 0.0
C647 C 0.50544 0.2359 0.52895 0.0
C648 C 0.50566 0.25631 0.51746 0.0
C649 C 0.51982 0.20748 0.52918 0.0
C650 C 0.53494 0.19841 0.51793 0.0
H651 H 0.4977 0.2448 0.53804 0.0
H652 H 0.52223 0.19532 0.53844 0.0
S653 S 0.531 0.23474 0.48482 0.0
N654 N 0.51411 0.25924 0.49419 0.0
N655 N 0.5406 0.20517 0.49451 0.0
C656 C 0.52976 0.21413 0.5061 0.0
C657 C 0.51509 0.2432 0.50589 0.0
C658 C 0.74389 0.26744 0.50431 0.0
C659 C 0.73607 0.2422 0.51523 0.0
C660 C 0.77183 0.31049 0.50494 0.0
C661 C 0.79278 0.32951 0.51651 0.0
H662 H 0.72499 0.25491 0.49572 0.0
H663 H 0.77408 0.32927 0.49665 0.0
S664 S 0.79165 0.27429 0.54652 0.0
N665 N 0.75781 0.2372 0.53693 0.0
N666 N 0.81057 0.31799 0.53815 0.0
C667 C 0.78965 0.30348 0.52685 0.0
C668 C 0.76123 0.25974 0.52618 0.0
C669 C 0.80592 0.38945 0.66341 0.0
C670 C 0.82172 0.41457 0.65239 0.0
C671 C 0.79128 0.34649 0.66273 0.0
C672 C 0.79203 0.32743 0.65102 0.0
H673 H 0.8004 0.40193 0.67216 0.0
H674 H 0.77599 0.32776 0.67117 0.0
S675 S 0.84174 0.38249 0.62053 0.0
N676 N 0.84583 0.41952 0.63032 0.0
N677 N 0.81851 0.33891 0.62901 0.0
C678 C 0.81339 0.35342 0.6405 0.0
C679 C 0.82831 0.39707 0.64122 0.0
C680 C 0.59558 0.42057 0.63951 0.0
C681 C 0.57565 0.39947 0.65094 0.0
C682 C 0.63841 0.44887 0.63922 0.0
C683 C 0.66288 0.45714 0.65036 0.0
H684 H 0.57872 0.41224 0.63045 0.0
H685 H 0.65277 0.46156 0.62997 0.0
S686 S 0.62335 0.41879 0.68342 0.0
N687 N 0.58171 0.39503 0.67413 0.0
N688 N 0.66231 0.44889 0.67372 0.0
C689 C 0.64223 0.44076 0.6622 0.0
C690 C 0.59847 0.4118 0.66247 0.0
C691 C 0.56757 0.1708 0.63935 0.0
C692 C 0.58866 0.1726 0.65084 0.0
C693 C 0.53793 0.18359 0.63903 0.0
C694 C 0.5284 0.19879 0.65018 0.0
H695 H 0.57676 0.16307 0.63031 0.0
H696 H 0.52526 0.18496 0.62974 0.0
S697 S 0.56635 0.19845 0.68331 0.0
N698 N 0.5918 0.18235 0.67406 0.0
N699 N 0.53558 0.20604 0.67355 0.0
C700 C 0.54489 0.19506 0.66204 0.0
C701 C 0.57514 0.18193 0.66235 0.0
C702 C 0.63583 0.18881 0.16209 0.0
C703 C 0.65304 0.18634 0.15021 0.0
C704 C 0.59336 0.17587 0.16321 0.0
C705 C 0.56698 0.16019 0.15246 0.0
H706 H 0.65578 0.20443 0.17027 0.0
H707 H 0.58248 0.18297 0.17203 0.0
S708 S 0.59352 0.13516 0.12049 0.0
N709 N 0.63805 0.15755 0.12846 0.0
N710 N 0.55839 0.13376 0.13059 0.0
C711 C 0.58235 0.15149 0.14121 0.0
C712 C 0.62548 0.16453 0.14005 0.0
C713 C 0.79925 0.40588 0.15792 0.0
C714 C 0.80559 0.39034 0.14633 0.0
C715 C 0.78777 0.43665 0.15782 0.0
C716 C 0.78221 0.45278 0.14612 0.0
H717 H 0.79918 0.39151 0.16703 0.0
H718 H 0.78004 0.44534 0.16695 0.0
S719 S 0.80595 0.42961 0.11337 0.0
N720 N 0.8138 0.39885 0.12307 0.0
N721 N 0.79214 0.45653 0.12283 0.0
C722 C 0.79379 0.44122 0.13459 0.0
C723 C 0.80551 0.40999 0.13472 0.0
C724 C 0.53521 0.35285 0.144 0.0
C725 C 0.53248 0.327 0.15432 0.0
C726 C 0.56236 0.39594 0.14451 0.0
C727 C 0.58808 0.4147 0.15531 0.0
H728 H 0.5188 0.33955 0.13505 0.0
H729 H 0.56641 0.41401 0.13586 0.0
S730 S 0.58426 0.36261 0.1862 0.0
N731 N 0.55095 0.32459 0.17676 0.0
N732 N 0.60274 0.40566 0.17753 0.0
C733 C 0.58125 0.39022 0.16636 0.0
C734 C 0.55336 0.34621 0.16589 0.0
C735 C 0.50359 0.30405 0.02749 0.0
C736 C 0.52307 0.32961 0.01673 0.0
C737 C 0.49017 0.26142 0.02713 0.0
C738 C 0.49558 0.24292 0.016 0.0
H739 H 0.50233 0.31751 0.03664 0.0
H740 H 0.47968 0.24383 0.03604 0.0
S741 S 0.53277 0.29345 0.98417 0.0
N742 N 0.5378 0.33134 0.99375 0.0
N743 N 0.51286 0.25106 0.9932 0.0
C744 C 0.50875 0.26659 0.00464 0.0
C745 C 0.52259 0.31015 0.00498 0.0
C746 C 0.72718 0.23498 0.02459 0.0
C747 C 0.74518 0.259 0.01343 0.0
C748 C 0.68418 0.20792 0.02549 0.0
C749 C 0.65762 0.20361 0.01521 0.0
H750 H 0.74587 0.2403 0.03318 0.0
H751 H 0.67152 0.19287 0.03467 0.0
S752 S 0.69095 0.25054 0.98261 0.0
N753 N 0.73457 0.2703 0.99101 0.0
N754 N 0.65363 0.2187 0.99252 0.0
C755 C 0.676 0.22274 0.00335 0.0
C756 C 0.71994 0.25052 0.00248 0.0
C757 C 0.77191 0.46236 0.00886 0.0
C758 C 0.78859 0.45661 0.0204 0.0
C759 C 0.74157 0.47438 0.00907 0.0
C760 C 0.72686 0.48087 0.02082 0.0
H761 H 0.77988 0.45444 0.99965 0.0
H762 H 0.72682 0.47458 1.00007 0.0
S763 S 0.76777 0.48059 0.05343 0.0
N764 N 0.79384 0.4665 0.0437 0.0
N765 N 0.73667 0.48882 0.04403 0.0
C766 C 0.747 0.48047 0.03226 0.0
C767 C 0.77798 0.46841 0.03207 0.0
C768 C 0.34534 0.79182 0.8396 0.0
C769 C 0.32618 0.793 0.85124 0.0
C770 C 0.38799 0.80512 0.83909 0.0
C771 C 0.41271 0.81994 0.85022 0.0
H772 H 0.3268 0.77723 0.83108 0.0
H773 H 0.40043 0.79941 0.83036 0.0
S774 S 0.3807 0.84085 0.88194 0.0
N775 N 0.33749 0.81905 0.8733 0.0
N776 N 0.41753 0.84367 0.87231 0.0
C777 C 0.39532 0.82689 0.86133 0.0
C778 C 0.35199 0.81345 0.86187 0.0
C779 C 0.18334 0.57977 0.84062 0.0
C780 C 0.17013 0.59131 0.85178 0.0
C781 C 0.19735 0.551 0.8413 0.0
C782 C 0.19863 0.53291 0.85315 0.0
H783 H 0.18707 0.59618 0.83163 0.0
H784 H 0.21045 0.54568 0.83265 0.0
S785 S 0.15598 0.5444 0.8843 0.0
N786 N 0.15061 0.57617 0.87434 0.0
N787 N 0.17689 0.52207 0.87566 0.0
C788 C 0.18004 0.53996 0.86396 0.0
C789 C 0.16572 0.56917 0.86324 0.0
C790 C 0.40729 0.59863 0.8386 0.0
C791 C 0.39868 0.5736 0.84961 0.0
C792 C 0.43554 0.6416 0.83918 0.0
C793 C 0.45598 0.66081 0.85081 0.0
H794 H 0.38882 0.58603 0.82993 0.0
H795 H 0.43847 0.66023 0.83078 0.0
S796 S 0.45262 0.60613 0.88117 0.0
N797 N 0.4192 0.56894 0.87152 0.0
N798 N 0.4723 0.64964 0.87268 0.0
C799 C 0.45199 0.63496 0.86129 0.0
C800 C 0.42338 0.59127 0.86065 0.0
C801 C 0.45958 0.68474 0.9971 0.0
C802 C 0.46196 0.66591 0.98555 0.0
C803 C 0.47397 0.72764 0.99771 0.0
C804 C 0.4911 0.75292 0.98678 0.0
H805 H 0.44313 0.66584 0.0054 0.0
H806 H 0.46717 0.73993 0.00628 0.0
S807 S 0.51599 0.72154 0.95557 0.0
N808 N 0.49172 0.67782 0.96395 0.0
N809 N 0.51838 0.75835 0.96513 0.0
C810 C 0.49937 0.73569 0.97587 0.0
C811 C 0.48478 0.6921 0.97522 0.0
C812 C 0.26796 0.74596 0.99603 0.0
C813 C 0.24348 0.73697 0.98488 0.0
C814 C 0.31098 0.77399 0.99555 0.0
C815 C 0.3308 0.79385 0.98392 0.0
H816 H 0.25483 0.72805 0.00476 0.0
H817 H 0.32914 0.77731 0.00411 0.0
S818 S 0.27773 0.7891 0.9531 0.0
N819 N 0.24003 0.75622 0.96272 0.0
N820 N 0.32079 0.80905 0.96179 0.0
C821 C 0.30553 0.7893 0.97323 0.0
C822 C 0.26181 0.76084 0.97374 0.0
C823 C 0.20745 0.52176 0.9726 0.0
C824 C 0.19761 0.53639 0.98382 0.0
C825 C 0.23742 0.50938 0.97284 0.0
C826 C 0.25846 0.51099 0.98431 0.0
H827 H 0.19478 0.52328 0.96334 0.0
H828 H 0.24686 0.50214 0.96376 0.0
S829 S 0.23561 0.53545 0.01691 0.0
N830 N 0.20463 0.54296 0.00721 0.0
N831 N 0.2614 0.51998 0.00756 0.0
C832 C 0.24469 0.51972 0.99588 0.0
C833 C 0.21414 0.53247 0.99565 0.0
C834 C 0.2571 0.49763 0.47377 0.0
C835 C 0.23875 0.50123 0.48523 0.0
C836 C 0.29949 0.51025 0.47324 0.0
C837 C 0.32502 0.52701 0.48416 0.0
H838 H 0.23956 0.48891 0.46484 0.0
H839 H 0.31285 0.51038 0.46393 0.0
S840 S 0.28913 0.53114 0.51731 0.0
N841 N 0.24696 0.51397 0.50831 0.0
N842 N 0.32675 0.53726 0.50743 0.0
C843 C 0.30565 0.5248 0.49609 0.0
C844 C 0.26234 0.51186 0.49661 0.0
C845 C 0.46865 0.74072 0.49391 0.0
C846 C 0.47996 0.72872 0.48246 0.0
C847 C 0.45534 0.7701 0.49369 0.0
C848 C 0.45293 0.78836 0.48201 0.0
H849 H 0.46592 0.72435 0.50284 0.0
H850 H 0.44369 0.77584 0.50258 0.0
S851 S 0.4903 0.77534 0.45006 0.0
N852 N 0.49624 0.74319 0.45969 0.0
N853 N 0.47146 0.79854 0.45922 0.0
C854 C 0.46958 0.78065 0.47084 0.0
C855 C 0.48308 0.75077 0.47109 0.0
C856 C 0.24726 0.72281 0.49789 0.0
C857 C 0.2541 0.74833 0.4871 0.0
C858 C 0.21897 0.67983 0.49728 0.0
C859 C 0.19669 0.66114 0.48586 0.0
H860 H 0.26709 0.73505 0.5063 0.0
H861 H 0.21744 0.66083 0.50543 0.0
S862 S 0.19499 0.71716 0.4564 0.0
N863 N 0.2301 0.75393 0.4658 0.0
N864 N 0.17672 0.67327 0.46463 0.0
C865 C 0.199 0.68745 0.47572 0.0
C866 C 0.22773 0.73112 0.47637 0.0
C867 C 0.19528 0.64768 0.33915 0.0
C868 C 0.19471 0.66731 0.35076 0.0
C869 C 0.18009 0.60461 0.33866 0.0
C870 C 0.16396 0.57994 0.34975 0.0
H871 H 0.21081 0.66602 0.33068 0.0
H872 H 0.18536 0.59161 0.32997 0.0
S873 S 0.14418 0.61367 0.38134 0.0
N874 N 0.16794 0.65692 0.37273 0.0
N875 N 0.13984 0.57608 0.37176 0.0
C876 C 0.15769 0.59806 0.36081 0.0
C877 C 0.17304 0.64182 0.36134 0.0
C878 C 0.33747 0.55026 0.33876 0.0
C879 C 0.31823 0.53021 0.35043 0.0
C880 C 0.38065 0.57725 0.33803 0.0
C881 C 0.40585 0.58496 0.34894 0.0
H882 H 0.31887 0.54806 0.33043 0.0
H883 H 0.39346 0.59554 0.32934 0.0
S884 S 0.37288 0.53116 0.38052 0.0
N885 N 0.32921 0.51297 0.3722 0.0
N886 N 0.4103 0.56382 0.37078 0.0
C887 C 0.38791 0.56057 0.36002 0.0
C888 C 0.34401 0.53319 0.3608 0.0
C889 C 0.40825 0.80417 0.33966 0.0
C890 C 0.39867 0.81855 0.35095 0.0
C891 C 0.43606 0.78892 0.33999 0.0
C892 C 0.45514 0.78762 0.35162 0.0
H893 H 0.39099 0.8005 0.33085 0.0
H894 H 0.4398 0.77492 0.33129 0.0
S895 S 0.44885 0.83293 0.38291 0.0
N896 N 0.41664 0.8389 0.37333 0.0
N897 N 0.46913 0.81055 0.374 0.0
C898 C 0.4501 0.80734 0.36251 0.0
C899 C 0.42179 0.82279 0.36215 0.0
C900 C 0.15967 0.17993 0.2564 0.0
C901 C 0.12546 0.14878 0.26331 0.0
C902 C 0.17044 0.17182 0.24415 0.0
C903 C 0.14743 0.13224 0.23837 0.0
H904 H 0.17825 0.21085 0.26046 0.0
H905 H 0.19631 0.19702 0.23906 0.0
S906 S 0.05676 0.039 0.25271 0.0
N907 N 0.0697 0.0761 0.26354 0.0
N908 N 0.09019 0.06102 0.24078 0.0
C909 C 0.11381 0.10062 0.2453 0.0
C910 C 0.10273 0.10884 0.25768 0.0
C911 C 0.82046 0.00213 0.24445 0.0
C912 C 0.85588 0.00803 0.2376 0.0
C913 C 0.81095 0.98364 0.25676 0.0
C914 C 0.83653 0.9704 0.2627 0.0
H915 H 0.79981 0.01174 0.24026 0.0
H916 H 0.78389 0.98057 0.26177 0.0
S917 S 0.93188 0.9768 0.24868 0.0
N918 N 0.91597 -0.00217 0.23766 0.0
N919 N 0.89793 0.96306 0.26057 0.0
C920 C 0.87161 0.97549 0.25587 0.0
C921 C 0.88135 0.99434 0.24341 0.0
C922 C -0.00167 0.88174 0.2582 0.0
C923 C 0.01172 0.8564 0.26421 0.0
C924 C 0.98056 0.87257 0.24591 0.0
C925 C 0.9753 0.83762 0.23896 0.0
H926 H 0.00136 0.90909 0.26302 0.0
H927 H 0.97124 0.89355 0.24179 0.0
S928 S 0.00468 0.76069 0.25029 0.0
N929 N 0.01797 0.79425 0.26231 0.0
N930 N 0.98479 0.77717 0.23903 0.0
C931 C 0.98818 0.81163 0.24484 0.0
C932 C 0.00641 0.82104 0.25746 0.0
C933 C 0.8182 0.80889 0.74639 0.0
C934 C 0.84392 0.84177 0.73802 0.0
C935 C 0.80804 0.81694 0.75875 0.0
C936 C 0.82314 0.85811 0.76308 0.0
H937 H 0.80692 0.77684 0.74355 0.0
H938 H 0.78997 0.7909 0.76516 0.0
S939 S 0.88549 0.95481 0.7441 0.0
N940 N 0.87986 0.91691 0.73444 0.0
N941 N 0.86094 0.93167 0.75753 0.0
C942 C 0.84673 0.89099 0.75451 0.0
C943 C 0.85709 0.88292 0.74202 0.0
C944 C 0.1161 0.00033 0.75778 0.0
C945 C 0.14041 0.98533 0.76357 0.0
C946 C 0.12554 0.01857 0.74557 0.0
C947 C 0.1597 0.02267 0.73845 0.0
H948 H 0.08927 -0.0019 0.76271 0.0
H949 H 0.10523 0.02899 0.74161 0.0
S950 S 0.23406 0.98924 0.74919 0.0
N951 N 0.20098 0.97662 0.76132 0.0
N952 N 0.21851 0.01063 0.73814 0.0
C953 C 0.18484 0.00842 0.74412 0.0
C954 C 0.1752 0.98975 0.7567 0.0
C955 C 0.98127 0.16317 0.74545 0.0
C956 C 0.97358 0.12661 0.73893 0.0
C957 C -0.00128 0.1723 0.7579 0.0
C958 C 0.00909 0.14519 0.76432 0.0
H959 H 0.97418 0.18517 0.74087 0.0
H960 H 0.00355 0.20052 0.7626 0.0
S961 S -0.00426 0.04551 0.75142 0.0
N962 N 0.97795 0.06316 0.73991 0.0
N963 N 0.01087 0.08044 0.76306 0.0
C964 C 0.00171 0.10863 0.75786 0.0
C965 C 0.98389 0.09929 0.74526 0.0
C966 C 0.84189 0.50529 0.57667 0.0
C967 C 0.82438 0.4643 0.5719 0.0
C968 C 0.83229 0.51309 0.58914 0.0
C969 C 0.80477 0.48016 0.59723 0.0
H970 H 0.86175 0.53156 0.57055 0.0
H971 H 0.84573 0.54512 0.59234 0.0
S972 S 0.75573 0.36689 0.58986 0.0
N973 N 0.78178 0.39042 0.57666 0.0
N974 N 0.76385 0.40469 0.59995 0.0
C975 C 0.78881 0.43897 0.59273 0.0
C976 C 0.7986 0.43115 0.58012 0.0
C977 C 0.54538 0.34223 0.5784 0.0
C978 C 0.51616 0.34841 0.57155 0.0
C979 C 0.53632 0.32359 0.59054 0.0
C980 C 0.49764 0.31035 0.59656 0.0
H981 H 0.57566 0.3514 0.5743 0.0
H982 H 0.56033 0.31988 0.59527 0.0
S983 S 0.41009 0.31973 0.58292 0.0
N984 N 0.44665 0.33991 0.57171 0.0
N985 N 0.42977 0.30527 0.59481 0.0
C986 C 0.46805 0.31664 0.58995 0.0
C987 C 0.4773 0.33564 0.57741 0.0
C988 C 0.66432 0.20963 0.57684 0.0
C989 C 0.64961 0.17034 0.57104 0.0
C990 C 0.68159 0.21819 0.58919 0.0
C991 C 0.685 0.1879 0.59642 0.0
H992 H 0.66259 0.23438 0.57183 0.0
H993 H 0.69186 0.24891 0.59316 0.0
S994 S 0.65229 0.08019 0.58565 0.0
N995 N 0.64062 0.10092 0.57337 0.0
N996 N 0.67286 0.11696 0.59678 0.0
C997 C 0.67114 0.14857 0.59072 0.0
C998 C 0.65342 0.13979 0.57802 0.0
C999 C 0.4916 0.15407 0.07854 0.0
C1000 C 0.52809 0.18312 0.07202 0.0
C1001 C 0.48245 0.16216 0.09102 0.0
C1002 C 0.50951 0.19956 0.0975 0.0
H1003 H 0.46967 0.12499 0.07392 0.0
H1004 H 0.45432 0.1386 0.09571 0.0
S1005 S 0.60894 0.28627 0.08466 0.0
N1006 N 0.59134 0.25107 0.07307 0.0
N1007 N 0.57409 0.26622 0.09632 0.0
C1008 C 0.54597 0.22893 0.09105 0.0
C1009 C 0.55529 0.22072 0.0784 0.0
C1010 C 0.83483 0.32029 0.07568 0.0
C1011 C 0.81391 0.33966 0.07031 0.0
C1012 C 0.82301 0.3002 0.08775 0.0
C1013 C 0.78969 0.29857 0.0948 0.0
H1014 H 0.85977 0.31972 0.0704 0.0
H1015 H 0.83986 0.28562 0.09153 0.0
S1016 S 0.72789 0.34857 0.08547 0.0
N1017 N 0.76056 0.35876 0.0734 0.0
N1018 N 0.73806 0.32099 0.0958 0.0
C1019 C 0.76937 0.31889 0.08961 0.0
C1020 C 0.78157 0.33946 0.07746 0.0
C1021 C 0.66442 0.51482 0.08929 0.0
C1022 C 0.65515 0.48191 0.0979 0.0
C1023 C 0.6467 0.50688 0.07686 0.0
C1024 C 0.61908 0.46584 0.07273 0.0
H1025 H 0.6867 0.54664 0.09195 0.0
H1026 H 0.65646 0.53275 0.07024 0.0
S1027 S 0.57878 0.36971 0.09242 0.0
N1028 N 0.6121 0.40732 0.10195 0.0
N1029 N 0.57937 0.39274 0.07874 0.0
C1030 C 0.60747 0.43315 0.08156 0.0
C1031 C 0.62537 0.4411 0.09412 0.0
C1032 C 0.44582 0.78215 0.92458 0.0
C1033 C 0.4721 0.82077 0.93053 0.0
C1034 C 0.45409 0.77307 0.91223 0.0
C1035 C 0.48907 0.80214 0.90516 0.0
H1036 H 0.41837 0.75833 0.92949 0.0
H1037 H 0.43239 0.7429 0.90815 0.0
S1038 S 0.5684 0.90784 0.91631 0.0
N1039 N 0.53523 0.88835 0.92846 0.0
N1040 N 0.55065 0.87133 0.90507 0.0
C1041 C 0.51604 0.84086 0.91098 0.0
C1042 C 0.50753 0.85019 0.92367 0.0
C1043 C 0.20365 0.65728 0.92386 0.0
C1044 C 0.16638 0.64737 0.93029 0.0
C1045 C 0.21285 0.67581 0.91169 0.0
C1046 C 0.18517 0.68524 0.90525 0.0
H1047 H 0.22644 0.651 0.92827 0.0
H1048 H 0.24199 0.68235 0.90727 0.0
S1049 S 0.08315 0.66587 0.9178 0.0
N1050 N 0.10148 0.64877 0.92935 0.0
N1051 N 0.11858 0.68324 0.90623 0.0
C1052 C 0.14766 0.67564 0.91152 0.0
C1053 C 0.13827 0.65671 0.92405 0.0
C1054 C 0.31592 0.47883 0.91358 0.0
C1055 C 0.32143 0.51125 0.90525 0.0
C1056 C 0.33438 0.48749 0.9259 0.0
C1057 C 0.35904 0.52885 0.93026 0.0
H1058 H 0.29636 0.44659 0.91071 0.0
H1059 H 0.32776 0.46166 0.93225 0.0
S1060 S 0.38865 0.62494 0.91145 0.0
N1061 N 0.35746 0.58647 0.90179 0.0
N1062 N 0.39162 0.60235 0.9248 0.0
C1063 C 0.36662 0.56141 0.92176 0.0
C1064 C 0.34794 0.55273 0.9093 0.0
C1065 C 0.19987 0.55062 0.42384 0.0
C1066 C 0.16355 0.52255 0.43058 0.0
C1067 C 0.20793 0.54191 0.41142 0.0
C1068 C 0.18005 0.50468 0.40504 0.0
H1069 H 0.2228 0.57973 0.42822 0.0
H1070 H 0.23644 0.56495 0.40677 0.0
S1071 S 0.07993 0.42053 0.41828 0.0
N1072 N 0.09908 0.4557 0.42991 0.0
N1073 N 0.11409 0.43942 0.40637 0.0
C1074 C 0.14335 0.47621 0.41158 0.0
C1075 C 0.13509 0.48515 0.42435 0.0
C1076 C 0.44317 0.65563 0.40994 0.0
C1077 C 0.48221 0.66978 0.40405 0.0
C1078 C 0.43415 0.63712 0.42211 0.0
C1079 C 0.46375 0.63193 0.4291 0.0
H1080 H 0.41891 0.65868 0.40511 0.0
H1081 H 0.40365 0.62738 0.42614 0.0
S1082 S 0.57063 0.66265 0.41804 0.0
N1083 N 0.55068 0.67637 0.40604 0.0
N1084 N 0.53384 0.64192 0.42916 0.0
C1085 C 0.50287 0.64532 0.42333 0.0
C1086 C 0.51209 0.66422 0.41079 0.0
C1087 C 0.31974 0.78189 0.42494 0.0
C1088 C 0.33718 0.82165 0.43064 0.0
C1089 C 0.30266 0.7742 0.41258 0.0
C1090 C 0.30217 0.80585 0.40523 0.0
H1091 H 0.31925 0.75611 0.43003 0.0
H1092 H 0.29032 0.74306 0.40868 0.0
S1093 S 0.34254 0.91532 0.41571 0.0
N1094 N 0.35173 0.89304 0.4281 0.0
N1095 N 0.31981 0.87857 0.40465 0.0
C1096 C 0.31859 0.84567 0.41084 0.0
C1097 C 0.33612 0.85358 0.42356 0.0
C1098 C 0.30276 0.16314 0.1589 0.0
C1099 C 0.28863 0.16417 0.17143 0.0
C1100 C 0.34063 0.16428 0.15685 0.0
C1101 C 0.36608 0.16652 0.16723 0.0
H1102 H 0.28418 0.16085 0.15055 0.0
H1103 H 0.35011 0.16375 0.147 0.0
S1104 S 0.34368 0.17039 0.20199 0.0
N1105 N 0.30335 0.16787 0.19442 0.0
N1106 N 0.37454 0.17003 0.19058 0.0
C1107 C 0.35247 0.16775 0.17984 0.0
C1108 C 0.31386 0.16669 0.18193 0.0
C1109 C 0.82406 0.14515 0.17641 0.0
C1110 C 0.82754 0.12163 0.16635 0.0
C1111 C 0.82117 0.18072 0.1739 0.0
C1112 C 0.82146 0.19424 0.16119 0.0
H1113 H 0.82409 0.13643 0.18638 0.0
H1114 H 0.81807 0.19734 0.18203 0.0
S1115 S 0.82996 0.14369 0.1313 0.0
N1116 N 0.8312 0.11444 0.14311 0.0
N1117 N 0.82561 0.18126 0.13837 0.0
C1118 C 0.82505 0.17112 0.151 0.0
C1119 C 0.82802 0.13481 0.15357 0.0
C1120 C 0.85101 0.68755 0.15958 0.0
C1121 C 0.86687 0.70038 0.17211 0.0
C1122 C 0.81504 0.64914 0.15736 0.0
C1123 C 0.79343 0.62175 0.16756 0.0
H1124 H 0.86608 0.70757 0.15136 0.0
H1125 H 0.80446 0.64075 0.1475 0.0
S1126 S 0.82194 0.64019 0.20225 0.0
N1127 N 0.85814 0.68242 0.19492 0.0
N1128 N 0.79058 0.61006 0.19074 0.0
C1129 C 0.80898 0.63399 0.18017 0.0
C1130 C 0.84569 0.67326 0.18243 0.0
C1131 C 0.15063 0.34391 0.34527 0.0
C1132 C 0.15322 0.37 0.33503 0.0
C1133 C 0.14844 0.30562 0.343 0.0
C1134 C 0.14868 0.2917 0.33038 0.0
H1135 H 0.151 0.35334 0.35518 0.0
H1136 H 0.14625 0.2867 0.35125 0.0
S1137 S 0.154 0.34779 0.30011 0.0
N1138 N 0.15523 0.37888 0.31172 0.0
N1139 N 0.15106 0.30686 0.30745 0.0
C1140 C 0.15103 0.31734 0.32002 0.0
C1141 C 0.15319 0.3564 0.32234 0.0
C1142 C 0.63122 0.79975 0.32443 0.0
C1143 C 0.61706 0.78506 0.33699 0.0
C1144 C 0.66964 0.83584 0.32229 0.0
C1145 C 0.69559 0.85884 0.33262 0.0
H1146 H 0.61231 0.78355 0.31612 0.0
H1147 H 0.67915 0.84547 0.31242 0.0
S1148 S 0.67305 0.83391 0.36744 0.0
N1149 N 0.63211 0.79648 0.35995 0.0
N1150 N 0.70431 0.86432 0.35595 0.0
C1151 C 0.68189 0.84453 0.34525 0.0
C1152 C 0.64273 0.80763 0.34743 0.0
C1153 C 0.14897 0.83303 0.32355 0.0
C1154 C 0.12667 0.83714 0.33387 0.0
C1155 C 0.18532 0.83121 0.32564 0.0
C1156 C 0.20092 0.83333 0.33816 0.0
H1157 H 0.13856 0.83153 0.3137 0.0
H1158 H 0.20086 0.82741 0.31734 0.0
S1159 S 0.15458 0.84476 0.36858 0.0
N1160 N 0.12314 0.84377 0.35715 0.0
N1161 N 0.19142 0.84028 0.36108 0.0
C1162 C 0.17916 0.8378 0.3486 0.0
C1163 C 0.14202 0.8396 0.34646 0.0
C1164 C 0.68365 0.8294 0.84291 0.0
C1165 C 0.69719 0.8284 0.8303 0.0
C1166 C 0.64536 0.82714 0.8452 0.0
C1167 C 0.61887 0.82366 0.83498 0.0
H1168 H 0.70299 0.83256 0.85114 0.0
H1169 H 0.63636 0.82766 0.8551 0.0
S1170 S 0.63948 0.81944 0.80009 0.0
N1171 N 0.68087 0.8235 0.8074 0.0
N1172 N 0.60886 0.81917 0.81169 0.0
C1173 C 0.63191 0.8225 0.82229 0.0
C1174 C 0.67098 0.82477 0.81996 0.0
C1175 C 0.15873 0.81401 0.8456 0.0
C1176 C 0.16219 0.79098 0.83537 0.0
C1177 C 0.15641 0.85004 0.84333 0.0
C1178 C 0.15744 0.86462 0.83072 0.0
H1179 H 0.15836 0.80457 0.85551 0.0
H1180 H 0.15345 0.86635 0.85157 0.0
S1181 S 0.16553 0.81536 0.80048 0.0
N1182 N 0.1661 0.78514 0.81207 0.0
N1183 N 0.16171 0.85286 0.80781 0.0
C1184 C 0.16081 0.84188 0.82037 0.0
C1185 C 0.16307 0.80504 0.82268 0.0
C1186 C 0.17245 0.34096 0.84616 0.0
C1187 C 0.19457 0.36747 0.83583 0.0
C1188 C 0.13609 0.30276 0.84409 0.0
C1189 C 0.12029 0.28929 0.83158 0.0
H1190 H 0.18291 0.34993 0.856 0.0
H1191 H 0.12058 0.28346 0.8524 0.0
S1192 S 0.16655 0.34692 0.80114 0.0
N1193 N 0.19805 0.37749 0.81255 0.0
N1194 N 0.12971 0.30557 0.80866 0.0
C1195 C 0.14204 0.31545 0.82113 0.0
C1196 C 0.17919 0.35446 0.82324 0.0
C1197 C 0.82955 0.6476 0.6566 0.0
C1198 C 0.82522 0.62098 0.66689 0.0
C1199 C 0.83155 0.68585 0.65875 0.0
C1200 C 0.82935 0.69921 0.67129 0.0
H1201 H 0.83087 0.63868 0.64674 0.0
H1202 H 0.83524 0.70524 0.65047 0.0
S1203 S 0.81849 0.64139 0.70165 0.0
N1204 N 0.81911 0.61084 0.69017 0.0
N1205 N 0.82291 0.68279 0.6942 0.0
C1206 C 0.82504 0.67295 0.6817 0.0
C1207 C 0.82309 0.63393 0.67951 0.0
C1208 C 0.35111 0.18423 0.6763 0.0
C1209 C 0.36434 0.19872 0.66367 0.0
C1210 C 0.313 0.14803 0.67866 0.0
C1211 C 0.28638 0.12472 0.6685 0.0
H1212 H 0.37052 0.2007 0.6845 0.0
H1213 H 0.3042 0.13863 0.68859 0.0
S1214 S 0.30638 0.14898 0.63356 0.0
N1215 N 0.34773 0.18672 0.6408 0.0
N1216 N 0.27606 0.11868 0.64523 0.0
C1217 C 0.29919 0.13874 0.65579 0.0
C1218 C 0.33807 0.17575 0.65338 0.0
C1219 C 0.81141 0.15971 0.65628 0.0
C1220 C 0.78794 0.16265 0.66647 0.0
C1221 C 0.84738 0.15744 0.65862 0.0
C1222 C 0.86146 0.15792 0.67126 0.0
H1223 H 0.80236 0.15979 0.64635 0.0
H1224 H 0.86404 0.15491 0.6504 0.0
S1225 S 0.81097 0.16457 0.70142 0.0
N1226 N 0.78117 0.16552 0.68976 0.0
N1227 N 0.84879 0.16116 0.69415 0.0
C1228 C 0.83827 0.16072 0.68157 0.0
C1229 C 0.8015 0.16298 0.67918 0.0
C1230 C 0.01694 0.49713 0.51025 0.0
C1231 C 0.03136 0.4978 0.49764 0.0
C1232 C 0.97882 0.49527 0.51249 0.0
C1233 C 0.95339 0.49393 0.50222 0.0
H1234 H 0.03537 0.4984 0.51852 0.0
H1235 H 0.96901 0.49422 0.52239 0.0
S1236 S 0.977 0.49567 0.46732 0.0
N1237 N 0.01732 0.49747 0.4747 0.0
N1238 N 0.94561 0.49392 0.4789 0.0
C1239 C 0.96746 0.4948 0.48954 0.0
C1240 C 0.00635 0.49663 0.48725 0.0
C1241 C 0.49286 0.46886 0.49134 0.0
C1242 C 0.49346 0.45582 0.50405 0.0
C1243 C 0.49089 0.50496 0.48884 0.0
C1244 C 0.4894 0.52959 0.49892 0.0
H1245 H 0.49431 0.4513 0.4832 0.0
H1246 H 0.48994 0.5132 0.47887 0.0
S1247 S 0.49084 0.50962 0.53398 0.0
N1248 N 0.49283 0.47075 0.52689 0.0
N1249 N 0.4891 0.53859 0.52218 0.0
C1250 C 0.49013 0.51706 0.5117 0.0
C1251 C 0.49204 0.48016 0.51426 0.0
C1252 C 0.51242 0.00745 0.51193 0.0
C1253 C 0.53315 0.03453 0.50157 0.0
C1254 C 0.4761 0.96908 0.50999 0.0
C1255 C 0.45892 0.95607 0.4976 0.0
H1256 H 0.52398 0.01606 0.52169 0.0
H1257 H 0.46169 0.94932 0.51831 0.0
S1258 S 0.50112 0.01533 0.46715 0.0
N1259 N 0.53376 0.04558 0.47839 0.0
N1260 N 0.46551 0.97343 0.47476 0.0
C1261 C 0.47926 0.98281 0.48713 0.0
C1262 C 0.51639 0.02195 0.4891 0.0
C1263 C 0.49465 0.02162 0.99278 0.0
C1264 C 0.49486 0.03585 0.00538 0.0
C1265 C 0.49341 0.98376 0.99055 0.0
C1266 C 0.49215 0.95837 1.00082 0.0
H1267 H 0.49586 0.04001 0.9845 0.0
H1268 H 0.49271 0.9741 0.98065 0.0
S1269 S 0.49284 0.98152 0.03571 0.0
N1270 N 0.49424 0.02168 0.02833 0.0
N1271 N 0.49174 0.95039 0.02414 0.0
C1272 C 0.49251 0.97221 0.0135 0.0
C1273 C 0.4938 0.01089 0.01578 0.0
C1274 C 0.97989 0.48331 0.01068 0.0
C1275 C 0.95311 0.46266 1.00027 0.0
C1276 C 0.01847 0.51943 0.00881 0.0
C1277 C 0.03206 0.53643 0.99642 0.0
H1278 H 0.97089 0.47187 0.02044 0.0
H1279 H 0.03798 0.53374 0.01717 0.0
S1280 S 0.97374 0.49434 0.96584 0.0
N1281 N 0.9429 0.46195 0.97705 0.0
N1282 N 0.01552 0.52979 0.97352 0.0
C1283 C 0.0056 0.51619 0.98589 0.0
C1284 C 0.96618 0.47931 0.98781 0.0
C1285 C 0.47036 0.49856 0.01066 0.0
C1286 C 0.45884 0.50132 0.99793 0.0
C1287 C 0.50612 0.49616 0.01328 0.0
C1288 C 0.53191 0.49637 0.00329 0.0
H1289 H 0.45181 0.49856 0.01873 0.0
H1290 H 0.51312 0.49343 0.02325 0.0
S1291 S 0.51631 0.50414 0.96822 0.0
N1292 N 0.47659 0.50484 0.97517 0.0
N1293 N 0.5438 0.50027 0.9801 0.0
C1294 C 0.52098 0.4994 0.99049 0.0
C1295 C 0.48442 0.50176 0.98781 0.0
loop_
_geom_bond_atom_site_label_1
_geom_bond_atom_site_label_2
_geom_bond_distance
_geom_bond_site_symmetry_2
_ccdc_geom_bond_type
O0 Cd1 2.223 . S
O0 C8 1.315 . S
Cd1 O0 2.223 . S
Cd1 O4 2.297 . S
Cd1 O5 2.439 . S
Cd1 O11 2.240 . S
Cd2 O3 2.240 . S
Cd2 O10 2.223 . S
Cd2 O12 2.297 . S
Cd2 O13 2.439 . S
O3 Cd2 2.240 . S
O3 C8 1.279 . S
O4 Cd1 2.297 . S
O4 C6 1.247 . S
O5 Cd1 2.439 . S
O5 C6 1.208 . S
C6 O4 1.247 . S
C6 O5 1.208 . S
C7 O12 1.247 . S
C7 O13 1.208 . S
C8 O0 1.315 . S
C8 O3 1.279 . S
C9 O10 1.315 . S
C9 O11 1.279 . S
O10 Cd2 2.223 . S
O10 C9 1.315 . S
O11 Cd1 2.240 . S
O11 C9 1.279 . S
O12 Cd2 2.297 . S
O12 C7 1.247 . S
O13 Cd2 2.439 . S
O13 C7 1.208 . S
O14 Cd15 2.223 . S
O14 C22 1.315 . S
Cd15 O14 2.223 . S
Cd15 O18 2.297 . S
Cd15 O19 2.439 . S
Cd15 O25 2.240 1_545 S
Cd16 O17 2.240 . S
Cd16 O24 2.223 1_545 S
Cd16 O26 2.297 1_545 S
Cd16 O27 2.439 . S
O17 Cd16 2.240 . S
O17 C22 1.279 . S
O18 Cd15 2.297 . S
O18 C20 1.247 . S
O19 Cd15 2.439 . S
O19 C20 1.208 . S
C20 O18 1.247 . S
C20 O19 1.208 . S
C21 O26 1.247 . S
C21 O27 1.208 1_565 S
C22 O14 1.315 . S
C22 O17 1.279 . S
C23 O24 1.315 . S
C23 O25 1.279 . S
O24 Cd16 2.223 1_565 S
O24 C23 1.315 . S
O25 Cd15 2.240 1_565 S
O25 C23 1.279 . S
O26 Cd16 2.297 1_565 S
O26 C21 1.247 . S
O27 Cd16 2.439 . S
O27 C21 1.208 1_545 S
O28 Cd29 2.223 . S
O28 C36 1.315 . S
Cd29 O28 2.223 . S
Cd29 O32 2.297 . S
Cd29 O33 2.439 . S
Cd29 O39 2.240 1_655 S
Cd30 O31 2.240 . S
Cd30 O38 2.223 1_655 S
Cd30 O40 2.297 1_655 S
Cd30 O41 2.439 . S
O31 Cd30 2.240 . S
O31 C36 1.279 . S
O32 Cd29 2.297 . S
O32 C34 1.247 . S
O33 Cd29 2.439 . S
O33 C34 1.208 . S
C34 O32 1.247 . S
C34 O33 1.208 . S
C35 O40 1.247 . S
C35 O41 1.208 1_455 S
C36 O28 1.315 . S
C36 O31 1.279 . S
C37 O38 1.315 . S
C37 O39 1.279 . S
O38 Cd30 2.223 1_455 S
O38 C37 1.315 . S
O39 Cd29 2.240 1_455 S
O39 C37 1.279 . S
O40 Cd30 2.297 1_455 S
O40 C35 1.247 . S
O41 Cd30 2.439 . S
O41 C35 1.208 1_655 S
O42 Cd43 2.223 . S
O42 C50 1.315 . S
Cd43 O42 2.223 . S
Cd43 O46 2.297 . S
Cd43 O47 2.439 . S
Cd43 O53 2.240 . S
Cd44 O45 2.240 . S
Cd44 O52 2.223 . S
Cd44 O54 2.297 . S
Cd44 O55 2.439 . S
O45 Cd44 2.240 . S
O45 C50 1.279 . S
O46 Cd43 2.297 . S
O46 C48 1.247 . S
O47 Cd43 2.439 . S
O47 C48 1.208 . S
C48 O46 1.247 . S
C48 O47 1.208 . S
C49 O54 1.247 . S
C49 O55 1.208 . S
C50 O42 1.315 . S
C50 O45 1.279 . S
C51 O52 1.315 . S
C51 O53 1.279 . S
O52 Cd44 2.223 . S
O52 C51 1.315 . S
O53 Cd43 2.240 . S
O53 C51 1.279 . S
O54 Cd44 2.297 . S
O54 C49 1.247 . S
O55 Cd44 2.439 . S
O55 C49 1.208 . S
O56 Cd57 2.223 . S
O56 C64 1.315 . S
Cd57 O56 2.223 . S
Cd57 O60 2.297 . S
Cd57 O61 2.439 . S
Cd57 O67 2.240 1_565 S
Cd58 O59 2.240 . S
Cd58 O66 2.223 1_565 S
Cd58 O68 2.297 1_565 S
Cd58 O69 2.439 . S
O59 Cd58 2.240 . S
O59 C64 1.279 . S
O60 Cd57 2.297 . S
O60 C62 1.247 . S
O61 Cd57 2.439 . S
O61 C62 1.208 . S
C62 O60 1.247 . S
C62 O61 1.208 . S
C63 O68 1.247 . S
C63 O69 1.208 1_545 S
C64 O56 1.315 . S
C64 O59 1.279 . S
C65 O66 1.315 . S
C65 O67 1.279 . S
O66 Cd58 2.223 1_545 S
O66 C65 1.315 . S
O67 Cd57 2.240 1_545 S
O67 C65 1.279 . S
O68 Cd58 2.297 1_545 S
O68 C63 1.247 . S
O69 Cd58 2.439 . S
O69 C63 1.208 1_565 S
O70 Cd71 2.223 . S
O70 C78 1.315 . S
Cd71 O70 2.223 . S
Cd71 O74 2.297 . S
Cd71 O75 2.439 . S
Cd71 O81 2.240 1_455 S
Cd72 O73 2.240 . S
Cd72 O80 2.223 1_455 S
Cd72 O82 2.297 1_455 S
Cd72 O83 2.439 . S
O73 Cd72 2.240 . S
O73 C78 1.279 . S
O74 Cd71 2.297 . S
O74 C76 1.247 . S
O75 Cd71 2.439 . S
O75 C76 1.208 . S
C76 O74 1.247 . S
C76 O75 1.208 . S
C77 O82 1.247 . S
C77 O83 1.208 1_655 S
C78 O70 1.315 . S
C78 O73 1.279 . S
C79 O80 1.315 . S
C79 O81 1.279 . S
O80 Cd72 2.223 1_655 S
O80 C79 1.315 . S
O81 Cd71 2.240 1_655 S
O81 C79 1.279 . S
O82 Cd72 2.297 1_655 S
O82 C77 1.247 . S
O83 Cd72 2.439 . S
O83 C77 1.208 1_455 S
O84 Cd85 2.223 . S
O84 C92 1.315 . S
Cd85 O84 2.223 . S
Cd85 O88 2.297 . S
Cd85 O89 2.439 . S
Cd85 O95 2.240 . S
Cd86 O87 2.240 . S
Cd86 O94 2.223 . S
Cd86 O96 2.297 . S
Cd86 O97 2.439 . S
O87 Cd86 2.240 . S
O87 C92 1.279 . S
O88 Cd85 2.297 . S
O88 C90 1.247 . S
O89 Cd85 2.439 . S
O89 C90 1.208 . S
C90 O88 1.247 . S
C90 O89 1.208 . S
C91 O96 1.247 . S
C91 O97 1.208 . S
C92 O84 1.315 . S
C92 O87 1.279 . S
C93 O94 1.315 . S
C93 O95 1.279 . S
O94 Cd86 2.223 . S
O94 C93 1.315 . S
O95 Cd85 2.240 . S
O95 C93 1.279 . S
O96 Cd86 2.297 . S
O96 C91 1.247 . S
O97 Cd86 2.439 . S
O97 C91 1.208 . S
O98 Cd99 2.223 . S
O98 C106 1.315 . S
Cd99 O98 2.223 . S
Cd99 O102 2.297 . S
Cd99 O103 2.439 . S
Cd99 O109 2.240 1_565 S
Cd100 O101 2.240 . S
Cd100 O108 2.223 1_565 S
Cd100 O110 2.297 1_565 S
Cd100 O111 2.439 . S
O101 Cd100 2.240 . S
O101 C106 1.279 . S
O102 Cd99 2.297 . S
O102 C104 1.247 . S
O103 Cd99 2.439 . S
O103 C104 1.208 . S
C104 O102 1.247 . S
C104 O103 1.208 . S
C105 O110 1.247 . S
C105 O111 1.208 1_545 S
C106 O98 1.315 . S
C106 O101 1.279 . S
C107 O108 1.315 . S
C107 O109 1.279 . S
O108 Cd100 2.223 1_545 S
O108 C107 1.315 . S
O109 Cd99 2.240 1_545 S
O109 C107 1.279 . S
O110 Cd100 2.297 1_545 S
O110 C105 1.247 . S
O111 Cd100 2.439 . S
O111 C105 1.208 1_565 S
O112 Cd113 2.223 . S
O112 C120 1.315 . S
Cd113 O112 2.223 . S
Cd113 O116 2.297 . S
Cd113 O117 2.439 . S
Cd113 O123 2.240 1_455 S
Cd114 O115 2.240 . S
Cd114 O122 2.223 1_455 S
Cd114 O124 2.297 1_455 S
Cd114 O125 2.439 . S
O115 Cd114 2.240 . S
O115 C120 1.279 . S
O116 Cd113 2.297 . S
O116 C118 1.247 . S
O117 Cd113 2.439 . S
O117 C118 1.208 . S
C118 O116 1.247 . S
C118 O117 1.208 . S
C119 O124 1.247 . S
C119 O125 1.208 1_655 S
C120 O112 1.315 . S
C120 O115 1.279 . S
C121 O122 1.315 . S
C121 O123 1.279 . S
O122 Cd114 2.223 1_655 S
O122 C121 1.315 . S
O123 Cd113 2.240 1_655 S
O123 C121 1.279 . S
O124 Cd114 2.297 1_655 S
O124 C119 1.247 . S
O125 Cd114 2.439 . S
O125 C119 1.208 1_455 S
O126 Cd127 2.223 . S
O126 C134 1.315 . S
Cd127 O126 2.223 . S
Cd127 O130 2.297 . S
Cd127 O131 2.439 . S
Cd127 O137 2.240 . S
Cd128 O129 2.240 . S
Cd128 O136 2.223 . S
Cd128 O138 2.297 . S
Cd128 O139 2.439 . S
O129 Cd128 2.240 . S
O129 C134 1.279 . S
O130 Cd127 2.297 . S
O130 C132 1.247 . S
O131 Cd127 2.439 . S
O131 C132 1.208 . S
C132 O130 1.247 . S
C132 O131 1.208 . S
C133 O138 1.247 . S
C133 O139 1.208 . S
C134 O126 1.315 . S
C134 O129 1.279 . S
C135 O136 1.315 . S
C135 O137 1.279 . S
O136 Cd128 2.223 . S
O136 C135 1.315 . S
O137 Cd127 2.240 . S
O137 C135 1.279 . S
O138 Cd128 2.297 . S
O138 C133 1.247 . S
O139 Cd128 2.439 . S
O139 C133 1.208 . S
O140 Cd141 2.223 . S
O140 C148 1.315 . S
Cd141 O140 2.223 . S
Cd141 O144 2.297 . S
Cd141 O145 2.439 . S
Cd141 O151 2.240 1_545 S
Cd142 O143 2.240 . S
Cd142 O150 2.223 1_545 S
Cd142 O152 2.297 1_545 S
Cd142 O153 2.439 . S
O143 Cd142 2.240 . S
O143 C148 1.279 . S
O144 Cd141 2.297 . S
O144 C146 1.247 . S
O145 Cd141 2.439 . S
O145 C146 1.208 . S
C146 O144 1.247 . S
C146 O145 1.208 . S
C147 O152 1.247 . S
C147 O153 1.208 1_565 S
C148 O140 1.315 . S
C148 O143 1.279 . S
C149 O150 1.315 . S
C149 O151 1.279 . S
O150 Cd142 2.223 1_565 S
O150 C149 1.315 . S
O151 Cd141 2.240 1_565 S
O151 C149 1.279 . S
O152 Cd142 2.297 1_565 S
O152 C147 1.247 . S
O153 Cd142 2.439 . S
O153 C147 1.208 1_545 S
O154 Cd155 2.223 . S
O154 C162 1.315 . S
Cd155 O154 2.223 . S
Cd155 O158 2.297 . S
Cd155 O159 2.439 . S
Cd155 O165 2.240 1_655 S
Cd156 O157 2.240 . S
Cd156 O164 2.223 1_655 S
Cd156 O166 2.297 1_655 S
Cd156 O167 2.439 . S
O157 Cd156 2.240 . S
O157 C162 1.279 . S
O158 Cd155 2.297 . S
O158 C160 1.247 . S
O159 Cd155 2.439 . S
O159 C160 1.208 . S
C160 O158 1.247 . S
C160 O159 1.208 . S
C161 O166 1.247 . S
C161 O167 1.208 1_455 S
C162 O154 1.315 . S
C162 O157 1.279 . S
C163 O164 1.315 . S
C163 O165 1.279 . S
O164 Cd156 2.223 1_455 S
O164 C163 1.315 . S
O165 Cd155 2.240 1_455 S
O165 C163 1.279 . S
O166 Cd156 2.297 1_455 S
O166 C161 1.247 . S
O167 Cd156 2.439 . S
O167 C161 1.208 1_655 S
O168 Cd169 2.223 . S
O168 C176 1.315 . S
Cd169 O168 2.223 . S
Cd169 O172 2.297 . S
Cd169 O173 2.439 . S
Cd169 O179 2.240 . S
Cd170 O171 2.240 . S
Cd170 O178 2.223 . S
Cd170 O180 2.297 . S
Cd170 O181 2.439 . S
O171 Cd170 2.240 . S
O171 C176 1.279 . S
O172 Cd169 2.297 . S
O172 C174 1.247 . S
O173 Cd169 2.439 . S
O173 C174 1.208 . S
C174 O172 1.247 . S
C174 O173 1.208 . S
C175 O180 1.247 . S
C175 O181 1.208 . S
C176 O168 1.315 . S
C176 O171 1.279 . S
C177 O178 1.315 . S
C177 O179 1.279 . S
O178 Cd170 2.223 . S
O178 C177 1.315 . S
O179 Cd169 2.240 . S
O179 C177 1.279 . S
O180 Cd170 2.297 . S
O180 C175 1.247 . S
O181 Cd170 2.439 . S
O181 C175 1.208 . S
O182 Cd183 2.223 . S
O182 C190 1.315 . S
Cd183 O182 2.223 . S
Cd183 O186 2.297 . S
Cd183 O187 2.439 . S
Cd183 O193 2.240 . S
Cd184 O185 2.240 . S
Cd184 O192 2.223 . S
Cd184 O194 2.297 . S
Cd184 O195 2.439 . S
O185 Cd184 2.240 . S
O185 C190 1.279 . S
O186 Cd183 2.297 . S
O186 C188 1.247 . S
O187 Cd183 2.439 . S
O187 C188 1.208 . S
C188 O186 1.247 . S
C188 O187 1.208 . S
C189 O194 1.247 . S
C189 O195 1.208 . S
C190 O182 1.315 . S
C190 O185 1.279 . S
C191 O192 1.315 . S
C191 O193 1.279 . S
O192 Cd184 2.223 . S
O192 C191 1.315 . S
O193 Cd183 2.240 . S
O193 C191 1.279 . S
O194 Cd184 2.297 . S
O194 C189 1.247 . S
O195 Cd184 2.439 . S
O195 C189 1.208 . S
O196 Cd197 2.223 . S
O196 C204 1.315 . S
Cd197 O196 2.223 . S
Cd197 O200 2.297 . S
Cd197 O201 2.439 . S
Cd197 O207 2.240 . S
Cd198 O199 2.240 . S
Cd198 O206 2.223 . S
Cd198 O208 2.297 . S
Cd198 O209 2.439 . S
O199 Cd198 2.240 . S
O199 C204 1.279 . S
O200 Cd197 2.297 . S
O200 C202 1.247 . S
O201 Cd197 2.439 . S
O201 C202 1.208 . S
C202 O200 1.247 . S
C202 O201 1.208 . S
C203 O208 1.247 . S
C203 O209 1.208 . S
C204 O196 1.315 . S
C204 O199 1.279 . S
C205 O206 1.315 . S
C205 O207 1.279 . S
O206 Cd198 2.223 . S
O206 C205 1.315 . S
O207 Cd197 2.240 . S
O207 C205 1.279 . S
O208 Cd198 2.297 . S
O208 C203 1.247 . S
O209 Cd198 2.439 . S
O209 C203 1.208 . S
O210 Cd211 2.223 . S
O210 C218 1.315 . S
Cd211 O210 2.223 . S
Cd211 O214 2.297 . S
Cd211 O215 2.439 . S
Cd211 O221 2.240 . S
Cd212 O213 2.240 . S
Cd212 O220 2.223 . S
Cd212 O222 2.297 . S
Cd212 O223 2.439 . S
O213 Cd212 2.240 . S
O213 C218 1.279 . S
O214 Cd211 2.297 . S
O214 C216 1.247 . S
O215 Cd211 2.439 . S
O215 C216 1.208 . S
C216 O214 1.247 . S
C216 O215 1.208 . S
C217 O222 1.247 . S
C217 O223 1.208 . S
C218 O210 1.315 . S
C218 O213 1.279 . S
C219 O220 1.315 . S
C219 O221 1.279 . S
O220 Cd212 2.223 . S
O220 C219 1.315 . S
O221 Cd211 2.240 . S
O221 C219 1.279 . S
O222 Cd212 2.297 . S
O222 C217 1.247 . S
O223 Cd212 2.439 . S
O223 C217 1.208 . S
O224 Cd225 2.223 . S
O224 C232 1.315 . S
Cd225 O224 2.223 . S
Cd225 O228 2.297 . S
Cd225 O229 2.439 . S
Cd225 O235 2.240 . S
Cd226 O227 2.240 . S
Cd226 O234 2.223 . S
Cd226 O236 2.297 . S
Cd226 O237 2.439 . S
O227 Cd226 2.240 . S
O227 C232 1.279 . S
O228 Cd225 2.297 . S
O228 C230 1.247 . S
O229 Cd225 2.439 . S
O229 C230 1.208 . S
C230 O228 1.247 . S
C230 O229 1.208 . S
C231 O236 1.247 . S
C231 O237 1.208 . S
C232 O224 1.315 . S
C232 O227 1.279 . S
C233 O234 1.315 . S
C233 O235 1.279 . S
O234 Cd226 2.223 . S
O234 C233 1.315 . S
O235 Cd225 2.240 . S
O235 C233 1.279 . S
O236 Cd226 2.297 . S
O236 C231 1.247 . S
O237 Cd226 2.439 . S
O237 C231 1.208 . S
O238 Cd239 2.223 . S
O238 C246 1.315 . S
Cd239 O238 2.223 . S
Cd239 O242 2.297 . S
Cd239 O243 2.439 . S
Cd239 O249 2.240 . S
Cd240 O241 2.240 . S
Cd240 O248 2.223 . S
Cd240 O250 2.297 . S
Cd240 O251 2.439 . S
O241 Cd240 2.240 . S
O241 C246 1.279 . S
O242 Cd239 2.297 . S
O242 C244 1.247 . S
O243 Cd239 2.439 . S
O243 C244 1.208 . S
C244 O242 1.247 . S
C244 O243 1.208 . S
C245 O250 1.247 . S
C245 O251 1.208 . S
C246 O238 1.315 . S
C246 O241 1.279 . S
C247 O248 1.315 . S
C247 O249 1.279 . S
O248 Cd240 2.223 . S
O248 C247 1.315 . S
O249 Cd239 2.240 . S
O249 C247 1.279 . S
O250 Cd240 2.297 . S
O250 C245 1.247 . S
O251 Cd240 2.439 . S
O251 C245 1.208 . S
O252 Cd253 2.223 . S
O252 C260 1.315 . S
Cd253 O252 2.223 . S
Cd253 O256 2.297 . S
Cd253 O257 2.439 . S
Cd253 O263 2.240 . S
Cd254 O255 2.240 . S
Cd254 O262 2.223 . S
Cd254 O264 2.297 . S
Cd254 O265 2.439 . S
O255 Cd254 2.240 . S
O255 C260 1.279 . S
O256 Cd253 2.297 . S
O256 C258 1.247 . S
O257 Cd253 2.439 . S
O257 C258 1.208 . S
C258 O256 1.247 . S
C258 O257 1.208 . S
C259 O264 1.247 . S
C259 O265 1.208 . S
C260 O252 1.315 . S
C260 O255 1.279 . S
C261 O262 1.315 . S
C261 O263 1.279 . S
O262 Cd254 2.223 . S
O262 C261 1.315 . S
O263 Cd253 2.240 . S
O263 C261 1.279 . S
O264 Cd254 2.297 . S
O264 C259 1.247 . S
O265 Cd254 2.439 . S
O265 C259 1.208 . S
O266 Cd267 2.223 . S
O266 C274 1.315 . S
Cd267 O266 2.223 . S
Cd267 O270 2.297 . S
Cd267 O271 2.439 . S
Cd267 O277 2.240 . S
Cd268 O269 2.240 . S
Cd268 O276 2.223 . S
Cd268 O278 2.297 . S
Cd268 O279 2.439 . S
O269 Cd268 2.240 . S
O269 C274 1.279 . S
O270 Cd267 2.297 . S
O270 C272 1.247 . S
O271 Cd267 2.439 . S
O271 C272 1.208 . S
C272 O270 1.247 . S
C272 O271 1.208 . S
C273 O278 1.247 . S
C273 O279 1.208 . S
C274 O266 1.315 . S
C274 O269 1.279 . S
C275 O276 1.315 . S
C275 O277 1.279 . S
O276 Cd268 2.223 . S
O276 C275 1.315 . S
O277 Cd267 2.240 . S
O277 C275 1.279 . S
O278 Cd268 2.297 . S
O278 C273 1.247 . S
O279 Cd268 2.439 . S
O279 C273 1.208 . S
O280 Cd281 2.223 . S
O280 C288 1.315 . S
Cd281 O280 2.223 . S
Cd281 O284 2.297 . S
Cd281 O285 2.439 . S
Cd281 O291 2.240 . S
Cd282 O283 2.240 . S
Cd282 O290 2.223 . S
Cd282 O292 2.297 . S
Cd282 O293 2.439 . S
O283 Cd282 2.240 . S
O283 C288 1.279 . S
O284 Cd281 2.297 . S
O284 C286 1.247 . S
O285 Cd281 2.439 . S
O285 C286 1.208 . S
C286 O284 1.247 . S
C286 O285 1.208 . S
C287 O292 1.247 . S
C287 O293 1.208 . S
C288 O280 1.315 . S
C288 O283 1.279 . S
C289 O290 1.315 . S
C289 O291 1.279 . S
O290 Cd282 2.223 . S
O290 C289 1.315 . S
O291 Cd281 2.240 . S
O291 C289 1.279 . S
O292 Cd282 2.297 . S
O292 C287 1.247 . S
O293 Cd282 2.439 . S
O293 C287 1.208 . S
O294 Cd295 2.226 . S
O294 C302 1.330 . S
Cd295 O294 2.226 . S
Cd295 O298 2.297 1_554 S
Cd295 O299 2.439 . S
Cd295 O305 2.240 . S
Cd296 O297 2.240 . S
Cd296 O304 2.223 . S
Cd296 O306 2.297 . S
Cd296 O307 2.439 . S
O297 Cd296 2.240 . S
O297 C302 1.279 . S
O298 Cd295 2.297 1_556 S
O298 C300 1.247 1_556 S
O299 Cd295 2.439 . S
O299 C300 1.208 . S
C300 O298 1.247 1_554 S
C300 O299 1.208 . S
C301 O306 1.247 . S
C301 O307 1.208 . S
C302 O294 1.330 . S
C302 O297 1.279 . S
C303 O304 1.315 . S
C303 O305 1.279 . S
O304 Cd296 2.223 . S
O304 C303 1.315 . S
O305 Cd295 2.240 . S
O305 C303 1.279 . S
O306 Cd296 2.297 . S
O306 C301 1.247 . S
O307 Cd296 2.439 . S
O307 C301 1.208 . S
O308 Cd309 2.226 . S
O308 C316 1.329 . S
Cd309 O308 2.226 . S
Cd309 O312 2.297 1_554 S
Cd309 O313 2.439 . S
Cd309 O319 2.240 . S
Cd310 O311 2.240 . S
Cd310 O318 2.223 . S
Cd310 O320 2.297 . S
Cd310 O321 2.439 . S
O311 Cd310 2.240 . S
O311 C316 1.279 . S
O312 Cd309 2.297 1_556 S
O312 C314 1.247 1_556 S
O313 Cd309 2.439 . S
O313 C314 1.208 . S
C314 O312 1.247 1_554 S
C314 O313 1.208 . S
C315 O320 1.247 . S
C315 O321 1.208 . S
C316 O308 1.329 . S
C316 O311 1.279 . S
C317 O318 1.315 . S
C317 O319 1.279 . S
O318 Cd310 2.223 . S
O318 C317 1.315 . S
O319 Cd309 2.240 . S
O319 C317 1.279 . S
O320 Cd310 2.297 . S
O320 C315 1.247 . S
O321 Cd310 2.439 . S
O321 C315 1.208 . S
O322 Cd323 2.226 . S
O322 C330 1.329 . S
Cd323 O322 2.226 . S
Cd323 O326 2.297 1_554 S
Cd323 O327 2.439 . S
Cd323 O333 2.240 . S
Cd324 O325 2.240 . S
Cd324 O332 2.223 . S
Cd324 O334 2.297 . S
Cd324 O335 2.439 . S
O325 Cd324 2.240 . S
O325 C330 1.279 . S
O326 Cd323 2.297 1_556 S
O326 C328 1.247 1_556 S
O327 Cd323 2.439 . S
O327 C328 1.208 . S
C328 O326 1.247 1_554 S
C328 O327 1.208 . S
C329 O334 1.247 . S
C329 O335 1.208 . S
C330 O322 1.329 . S
C330 O325 1.279 . S
C331 O332 1.315 . S
C331 O333 1.279 . S
O332 Cd324 2.223 . S
O332 C331 1.315 . S
O333 Cd323 2.240 . S
O333 C331 1.279 . S
O334 Cd324 2.297 . S
O334 C329 1.247 . S
O335 Cd324 2.439 . S
O335 C329 1.208 . S
O336 Cd337 2.223 . S
O336 C344 1.315 . S
Cd337 O336 2.223 . S
Cd337 O340 2.297 . S
Cd337 O341 2.439 . S
Cd337 O347 2.240 . S
Cd338 O339 2.240 . S
Cd338 O346 2.223 . S
Cd338 O348 2.297 . S
Cd338 O349 2.439 . S
O339 Cd338 2.240 . S
O339 C344 1.279 . S
O340 Cd337 2.297 . S
O340 C342 1.247 . S
O341 Cd337 2.439 . S
O341 C342 1.208 . S
C342 O340 1.247 . S
C342 O341 1.208 . S
C343 O348 1.247 . S
C343 O349 1.208 . S
C344 O336 1.315 . S
C344 O339 1.279 . S
C345 O346 1.315 . S
C345 O347 1.279 . S
O346 Cd338 2.223 . S
O346 C345 1.315 . S
O347 Cd337 2.240 . S
O347 C345 1.279 . S
O348 Cd338 2.297 . S
O348 C343 1.247 . S
O349 Cd338 2.439 . S
O349 C343 1.208 . S
O350 Cd351 2.223 . S
O350 C358 1.315 . S
Cd351 O350 2.223 . S
Cd351 O354 2.297 . S
Cd351 O355 2.439 . S
Cd351 O361 2.240 . S
Cd352 O353 2.240 . S
Cd352 O360 2.223 . S
Cd352 O362 2.297 . S
Cd352 O363 2.439 . S
O353 Cd352 2.240 . S
O353 C358 1.279 . S
O354 Cd351 2.297 . S
O354 C356 1.247 . S
O355 Cd351 2.439 . S
O355 C356 1.208 . S
C356 O354 1.247 . S
C356 O355 1.208 . S
C357 O362 1.247 . S
C357 O363 1.208 . S
C358 O350 1.315 . S
C358 O353 1.279 . S
C359 O360 1.315 . S
C359 O361 1.279 . S
O360 Cd352 2.223 . S
O360 C359 1.315 . S
O361 Cd351 2.240 . S
O361 C359 1.279 . S
O362 Cd352 2.297 . S
O362 C357 1.247 . S
O363 Cd352 2.439 . S
O363 C357 1.208 . S
O364 Cd365 2.223 . S
O364 C372 1.315 . S
Cd365 O364 2.223 . S
Cd365 O368 2.297 . S
Cd365 O369 2.439 . S
Cd365 O375 2.240 . S
Cd366 O367 2.240 . S
Cd366 O374 2.223 . S
Cd366 O376 2.297 . S
Cd366 O377 2.439 . S
O367 Cd366 2.240 . S
O367 C372 1.279 . S
O368 Cd365 2.297 . S
O368 C370 1.247 . S
O369 Cd365 2.439 . S
O369 C370 1.208 . S
C370 O368 1.247 . S
C370 O369 1.208 . S
C371 O376 1.247 . S
C371 O377 1.208 . S
C372 O364 1.315 . S
C372 O367 1.279 . S
C373 O374 1.315 . S
C373 O375 1.279 . S
O374 Cd366 2.223 . S
O374 C373 1.315 . S
O375 Cd365 2.240 . S
O375 C373 1.279 . S
O376 Cd366 2.297 . S
O376 C371 1.247 . S
O377 Cd366 2.439 . S
O377 C371 1.208 . S
O378 Cd379 2.226 . S
O378 C386 1.330 . S
Cd379 O378 2.226 . S
Cd379 O382 2.297 1_556 S
Cd379 O383 2.439 . S
Cd379 O389 2.240 . S
Cd380 O381 2.240 . S
Cd380 O388 2.223 . S
Cd380 O390 2.297 . S
Cd380 O391 2.439 . S
O381 Cd380 2.240 . S
O381 C386 1.279 . S
O382 Cd379 2.297 1_554 S
O382 C384 1.247 1_554 S
O383 Cd379 2.439 . S
O383 C384 1.208 . S
C384 O382 1.247 1_556 S
C384 O383 1.208 . S
C385 O390 1.247 . S
C385 O391 1.208 . S
C386 O378 1.330 . S
C386 O381 1.279 . S
C387 O388 1.315 . S
C387 O389 1.279 . S
O388 Cd380 2.223 . S
O388 C387 1.315 . S
O389 Cd379 2.240 . S
O389 C387 1.279 . S
O390 Cd380 2.297 . S
O390 C385 1.247 . S
O391 Cd380 2.439 . S
O391 C385 1.208 . S
O392 Cd393 2.226 . S
O392 C400 1.329 . S
Cd393 O392 2.226 . S
Cd393 O396 2.297 1_556 S
Cd393 O397 2.439 . S
Cd393 O403 2.240 . S
Cd394 O395 2.240 . S
Cd394 O402 2.223 . S
Cd394 O404 2.297 . S
Cd394 O405 2.439 . S
O395 Cd394 2.240 . S
O395 C400 1.279 . S
O396 Cd393 2.297 1_554 S
O396 C398 1.247 1_554 S
O397 Cd393 2.439 . S
O397 C398 1.208 . S
C398 O396 1.247 1_556 S
C398 O397 1.208 . S
C399 O404 1.247 . S
C399 O405 1.208 . S
C400 O392 1.329 . S
C400 O395 1.279 . S
C401 O402 1.315 . S
C401 O403 1.279 . S
O402 Cd394 2.223 . S
O402 C401 1.315 . S
O403 Cd393 2.240 . S
O403 C401 1.279 . S
O404 Cd394 2.297 . S
O404 C399 1.247 . S
O405 Cd394 2.439 . S
O405 C399 1.208 . S
O406 Cd407 2.226 . S
O406 C414 1.329 . S
Cd407 O406 2.226 . S
Cd407 O410 2.297 1_556 S
Cd407 O411 2.439 . S
Cd407 O417 2.240 . S
Cd408 O409 2.240 . S
Cd408 O416 2.223 . S
Cd408 O418 2.297 . S
Cd408 O419 2.439 . S
O409 Cd408 2.240 . S
O409 C414 1.279 . S
O410 Cd407 2.297 1_554 S
O410 C412 1.247 1_554 S
O411 Cd407 2.439 . S
O411 C412 1.208 . S
C412 O410 1.247 1_556 S
C412 O411 1.208 . S
C413 O418 1.247 . S
C413 O419 1.208 . S
C414 O406 1.329 . S
C414 O409 1.279 . S
C415 O416 1.315 . S
C415 O417 1.279 . S
O416 Cd408 2.223 . S
O416 C415 1.315 . S
O417 Cd407 2.240 . S
O417 C415 1.279 . S
O418 Cd408 2.297 . S
O418 C413 1.247 . S
O419 Cd408 2.439 . S
O419 C413 1.208 . S
O420 Cd421 2.223 . S
O420 C428 1.315 . S
Cd421 O420 2.223 . S
Cd421 O424 2.297 . S
Cd421 O425 2.439 . S
Cd421 O431 2.240 . S
Cd422 O423 2.240 . S
Cd422 O430 2.223 . S
Cd422 O432 2.297 . S
Cd422 O433 2.439 . S
O423 Cd422 2.240 . S
O423 C428 1.279 . S
O424 Cd421 2.297 . S
O424 C426 1.247 . S
O425 Cd421 2.439 . S
O425 C426 1.208 . S
C426 O424 1.247 . S
C426 O425 1.208 . S
C427 O432 1.247 . S
C427 O433 1.208 . S
C428 O420 1.315 . S
C428 O423 1.279 . S
C429 O430 1.315 . S
C429 O431 1.279 . S
O430 Cd422 2.223 . S
O430 C429 1.315 . S
O431 Cd421 2.240 . S
O431 C429 1.279 . S
O432 Cd422 2.297 . S
O432 C427 1.247 . S
O433 Cd422 2.439 . S
O433 C427 1.208 . S
O434 Cd435 2.223 . S
O434 C442 1.315 . S
Cd435 O434 2.223 . S
Cd435 O438 2.297 . S
Cd435 O439 2.439 . S
Cd435 O445 2.240 . S
Cd436 O437 2.240 . S
Cd436 O444 2.223 . S
Cd436 O446 2.297 . S
Cd436 O447 2.439 . S
O437 Cd436 2.240 . S
O437 C442 1.279 . S
O438 Cd435 2.297 . S
O438 C440 1.247 . S
O439 Cd435 2.439 . S
O439 C440 1.208 . S
C440 O438 1.247 . S
C440 O439 1.208 . S
C441 O446 1.247 . S
C441 O447 1.208 . S
C442 O434 1.315 . S
C442 O437 1.279 . S
C443 O444 1.315 . S
C443 O445 1.279 . S
O444 Cd436 2.223 . S
O444 C443 1.315 . S
O445 Cd435 2.240 . S
O445 C443 1.279 . S
O446 Cd436 2.297 . S
O446 C441 1.247 . S
O447 Cd436 2.439 . S
O447 C441 1.208 . S
O448 Cd449 2.223 . S
O448 C456 1.315 . S
Cd449 O448 2.223 . S
Cd449 O452 2.297 . S
Cd449 O453 2.439 . S
Cd449 O459 2.240 . S
Cd450 O451 2.240 . S
Cd450 O458 2.223 . S
Cd450 O460 2.297 . S
Cd450 O461 2.439 . S
O451 Cd450 2.240 . S
O451 C456 1.279 . S
O452 Cd449 2.297 . S
O452 C454 1.247 . S
O453 Cd449 2.439 . S
O453 C454 1.208 . S
C454 O452 1.247 . S
C454 O453 1.208 . S
C455 O460 1.247 . S
C455 O461 1.208 . S
C456 O448 1.315 . S
C456 O451 1.279 . S
C457 O458 1.315 . S
C457 O459 1.279 . S
O458 Cd450 2.223 . S
O458 C457 1.315 . S
O459 Cd449 2.240 . S
O459 C457 1.279 . S
O460 Cd450 2.297 . S
O460 C455 1.247 . S
O461 Cd450 2.439 . S
O461 C455 1.208 . S
O462 Cd463 2.223 . S
O462 C470 1.315 . S
Cd463 O462 2.223 . S
Cd463 O466 2.297 . S
Cd463 O467 2.439 . S
Cd463 O473 2.240 . S
Cd464 O465 2.240 . S
Cd464 O472 2.223 . S
Cd464 O474 2.297 . S
Cd464 O475 2.439 . S
O465 Cd464 2.240 . S
O465 C470 1.279 . S
O466 Cd463 2.297 . S
O466 C468 1.247 . S
O467 Cd463 2.439 . S
O467 C468 1.208 . S
C468 O466 1.247 . S
C468 O467 1.208 . S
C469 O474 1.247 . S
C469 O475 1.208 . S
C470 O462 1.315 . S
C470 O465 1.279 . S
C471 O472 1.315 . S
C471 O473 1.279 . S
O472 Cd464 2.223 . S
O472 C471 1.315 . S
O473 Cd463 2.240 . S
O473 C471 1.279 . S
O474 Cd464 2.297 . S
O474 C469 1.247 . S
O475 Cd464 2.439 . S
O475 C469 1.208 . S
O476 Cd477 2.223 . S
O476 C484 1.315 . S
Cd477 O476 2.223 . S
Cd477 O480 2.297 . S
Cd477 O481 2.439 . S
Cd477 O487 2.240 . S
Cd478 O479 2.240 . S
Cd478 O486 2.223 . S
Cd478 O488 2.297 . S
Cd478 O489 2.439 . S
O479 Cd478 2.240 . S
O479 C484 1.279 . S
O480 Cd477 2.297 . S
O480 C482 1.247 . S
O481 Cd477 2.439 . S
O481 C482 1.208 . S
C482 O480 1.247 . S
C482 O481 1.208 . S
C483 O488 1.247 . S
C483 O489 1.208 . S
C484 O476 1.315 . S
C484 O479 1.279 . S
C485 O486 1.315 . S
C485 O487 1.279 . S
O486 Cd478 2.223 . S
O486 C485 1.315 . S
O487 Cd477 2.240 . S
O487 C485 1.279 . S
O488 Cd478 2.297 . S
O488 C483 1.247 . S
O489 Cd478 2.439 . S
O489 C483 1.208 . S
O490 Cd491 2.223 . S
O490 C498 1.315 . S
Cd491 O490 2.223 . S
Cd491 O494 2.297 . S
Cd491 O495 2.439 . S
Cd491 O501 2.240 . S
Cd492 O493 2.240 . S
Cd492 O500 2.223 . S
Cd492 O502 2.297 . S
Cd492 O503 2.439 . S
O493 Cd492 2.240 . S
O493 C498 1.279 . S
O494 Cd491 2.297 . S
O494 C496 1.247 . S
O495 Cd491 2.439 . S
O495 C496 1.208 . S
C496 O494 1.247 . S
C496 O495 1.208 . S
C497 O502 1.247 . S
C497 O503 1.208 . S
C498 O490 1.315 . S
C498 O493 1.279 . S
C499 O500 1.315 . S
C499 O501 1.279 . S
O500 Cd492 2.223 . S
O500 C499 1.315 . S
O501 Cd491 2.240 . S
O501 C499 1.279 . S
O502 Cd492 2.297 . S
O502 C497 1.247 . S
O503 Cd492 2.439 . S
O503 C497 1.208 . S
C504 C505 1.369 . S
C504 C506 1.419 1_455 S
C504 H508 0.930 . S
C505 C504 1.369 . S
C505 C514 1.429 . S
C506 C504 1.419 1_655 S
C506 C507 1.363 . S
C506 H509 0.929 . S
C507 C506 1.363 . S
C507 C513 1.428 . S
H508 C504 0.930 . S
H509 C506 0.929 . S
S510 N511 1.613 . S
S510 N512 1.610 1_455 S
N511 S510 1.613 . S
N511 C514 1.350 . S
N512 S510 1.610 1_655 S
N512 C513 1.351 . S
C513 C507 1.428 . S
C513 N512 1.351 . S
C513 C514 1.434 1_655 S
C514 C505 1.429 . S
C514 N511 1.350 . S
C514 C513 1.434 1_455 S
C515 C516 1.369 . S
C515 C517 1.419 . S
C515 H519 0.930 . S
C516 C515 1.369 . S
C516 C525 1.429 . S
C517 C515 1.419 . S
C517 C518 1.363 . S
C517 H520 0.929 . S
C518 C517 1.363 . S
C518 C524 1.428 . S
H519 C515 0.930 . S
H520 C517 0.929 . S
S521 N522 1.613 . S
S521 N523 1.610 . S
N522 S521 1.613 . S
N522 C525 1.350 . S
N523 S521 1.610 . S
N523 C524 1.351 . S
C524 C518 1.428 . S
C524 N523 1.351 . S
C524 C525 1.434 . S
C525 C516 1.429 . S
C525 N522 1.350 . S
C525 C524 1.434 . S
C526 C527 1.369 . S
C526 C528 1.419 1_545 S
C526 H530 0.930 . S
C527 C526 1.369 . S
C527 C536 1.429 . S
C528 C526 1.419 1_565 S
C528 C529 1.363 . S
C528 H531 0.929 . S
C529 C528 1.363 . S
C529 C535 1.428 . S
H530 C526 0.930 . S
H531 C528 0.929 . S
S532 N533 1.613 1_565 S
S532 N534 1.610 . S
N533 S532 1.613 1_545 S
N533 C536 1.350 . S
N534 S532 1.610 . S
N534 C535 1.351 . S
C535 C529 1.428 . S
C535 N534 1.351 . S
C535 C536 1.434 1_565 S
C536 C527 1.429 . S
C536 N533 1.350 . S
C536 C535 1.434 1_545 S
C537 C538 1.369 . S
C537 C539 1.419 1_545 S
C537 H541 0.930 . S
C538 C537 1.369 . S
C538 C547 1.429 . S
C539 C537 1.419 1_565 S
C539 C540 1.363 . S
C539 H542 0.929 . S
C540 C539 1.363 . S
C540 C546 1.428 . S
H541 C537 0.930 . S
H542 C539 0.929 . S
S543 N544 1.613 . S
S543 N545 1.610 1_545 S
N544 S543 1.613 . S
N544 C547 1.350 . S
N545 S543 1.610 1_565 S
N545 C546 1.351 . S
C546 C540 1.428 . S
C546 N545 1.351 . S
C546 C547 1.434 1_565 S
C547 C538 1.429 . S
C547 N544 1.350 . S
C547 C546 1.434 1_545 S
C548 C549 1.369 . S
C548 C550 1.419 1_655 S
C548 H552 0.930 . S
C549 C548 1.369 . S
C549 C558 1.429 . S
C550 C548 1.419 1_455 S
C550 C551 1.363 . S
C550 H553 0.929 . S
C551 C550 1.363 . S
C551 C557 1.428 . S
H552 C548 0.930 . S
H553 C550 0.929 . S
S554 N555 1.613 1_455 S
S554 N556 1.610 . S
N555 S554 1.613 1_655 S
N555 C558 1.350 . S
N556 S554 1.610 . S
N556 C557 1.351 . S
C557 C551 1.428 . S
C557 N556 1.351 . S
C557 C558 1.434 1_455 S
C558 C549 1.429 . S
C558 N555 1.350 . S
C558 C557 1.434 1_655 S
C559 C560 1.369 . S
C559 C561 1.419 . S
C559 H563 0.930 . S
C560 C559 1.369 . S
C560 C569 1.429 . S
C561 C559 1.419 . S
C561 C562 1.363 . S
C561 H564 0.929 . S
C562 C561 1.363 . S
C562 C568 1.428 . S
H563 C559 0.930 . S
H564 C561 0.929 . S
S565 N566 1.613 . S
S565 N567 1.610 . S
N566 S565 1.613 . S
N566 C569 1.350 . S
N567 S565 1.610 . S
N567 C568 1.351 . S
C568 C562 1.428 . S
C568 N567 1.351 . S
C568 C569 1.434 . S
C569 C560 1.429 . S
C569 N566 1.350 . S
C569 C568 1.434 . S
C570 C571 1.369 . S
C570 C572 1.419 1_655 S
C570 H574 0.930 . S
C571 C570 1.369 . S
C571 C580 1.429 . S
C572 C570 1.419 1_455 S
C572 C573 1.363 . S
C572 H575 0.929 . S
C573 C572 1.363 . S
C573 C579 1.428 . S
H574 C570 0.930 . S
H575 C572 0.929 . S
S576 N577 1.613 1_455 S
S576 N578 1.610 . S
N577 S576 1.613 1_655 S
N577 C580 1.350 . S
N578 S576 1.610 . S
N578 C579 1.351 . S
C579 C573 1.428 . S
C579 N578 1.351 . S
C579 C580 1.434 1_455 S
C580 C571 1.429 . S
C580 N577 1.350 . S
C580 C579 1.434 1_655 S
C581 C582 1.369 . S
C581 C583 1.419 . S
C581 H585 0.930 . S
C582 C581 1.369 . S
C582 C591 1.429 . S
C583 C581 1.419 . S
C583 C584 1.363 . S
C583 H586 0.929 . S
C584 C583 1.363 . S
C584 C590 1.428 . S
H585 C581 0.930 . S
H586 C583 0.929 . S
S587 N588 1.613 . S
S587 N589 1.610 . S
N588 S587 1.613 . S
N588 C591 1.350 . S
N589 S587 1.610 . S
N589 C590 1.351 . S
C590 C584 1.428 . S
C590 N589 1.351 . S
C590 C591 1.434 . S
C591 C582 1.429 . S
C591 N588 1.350 . S
C591 C590 1.434 . S
C592 C593 1.369 . S
C592 C594 1.419 1_565 S
C592 H596 0.930 . S
C593 C592 1.369 . S
C593 C602 1.429 . S
C594 C592 1.419 1_545 S
C594 C595 1.363 . S
C594 H597 0.929 . S
C595 C594 1.363 . S
C595 C601 1.428 . S
H596 C592 0.930 . S
H597 C594 0.929 . S
S598 N599 1.613 1_545 S
S598 N600 1.610 . S
N599 S598 1.613 1_565 S
N599 C602 1.350 . S
N600 S598 1.610 . S
N600 C601 1.351 . S
C601 C595 1.428 . S
C601 N600 1.351 . S
C601 C602 1.434 1_545 S
C602 C593 1.429 . S
C602 N599 1.350 . S
C602 C601 1.434 1_565 S
C603 C604 1.369 . S
C603 C605 1.419 1_545 S
C603 H607 0.930 . S
C604 C603 1.369 . S
C604 C613 1.429 . S
C605 C603 1.419 1_565 S
C605 C606 1.363 . S
C605 H608 0.929 . S
C606 C605 1.363 . S
C606 C612 1.428 . S
H607 C603 0.930 . S
H608 C605 0.929 . S
S609 N610 1.613 . S
S609 N611 1.610 1_545 S
N610 S609 1.613 . S
N610 C613 1.350 . S
N611 S609 1.610 1_565 S
N611 C612 1.351 . S
C612 C606 1.428 . S
C612 N611 1.351 . S
C612 C613 1.434 1_565 S
C613 C604 1.429 . S
C613 N610 1.350 . S
C613 C612 1.434 1_545 S
C614 C615 1.369 . S
C614 C616 1.419 1_455 S
C614 H618 0.930 . S
C615 C614 1.369 . S
C615 C624 1.429 . S
C616 C614 1.419 1_655 S
C616 C617 1.363 . S
C616 H619 0.929 . S
C617 C616 1.363 . S
C617 C623 1.428 . S
H618 C614 0.930 . S
H619 C616 0.929 . S
S620 N621 1.613 1_655 S
S620 N622 1.610 . S
N621 S620 1.613 1_455 S
N621 C624 1.350 . S
N622 S620 1.610 . S
N622 C623 1.351 . S
C623 C617 1.428 . S
C623 N622 1.351 . S
C623 C624 1.434 1_655 S
C624 C615 1.429 . S
C624 N621 1.350 . S
C624 C623 1.434 1_455 S
C625 C626 1.369 . S
C625 C627 1.419 . S
C625 H629 0.930 . S
C626 C625 1.369 . S
C626 C635 1.429 . S
C627 C625 1.419 . S
C627 C628 1.363 . S
C627 H630 0.929 . S
C628 C627 1.363 . S
C628 C634 1.428 . S
H629 C625 0.930 . S
H630 C627 0.929 . S
S631 N632 1.613 . S
S631 N633 1.610 . S
N632 S631 1.613 . S
N632 C635 1.350 . S
N633 S631 1.610 . S
N633 C634 1.351 . S
C634 C628 1.428 . S
C634 N633 1.351 . S
C634 C635 1.434 . S
C635 C626 1.429 . S
C635 N632 1.350 . S
C635 C634 1.434 . S
C636 C637 1.369 . S
C636 C638 1.419 . S
C636 H640 0.930 . S
C637 C636 1.369 . S
C637 C646 1.429 . S
C638 C636 1.419 . S
C638 C639 1.363 . S
C638 H641 0.929 . S
C639 C638 1.363 . S
C639 C645 1.428 . S
H640 C636 0.930 . S
H641 C638 0.929 . S
S642 N643 1.613 . S
S642 N644 1.610 . S
N643 S642 1.613 . S
N643 C646 1.350 . S
N644 S642 1.610 . S
N644 C645 1.351 . S
C645 C639 1.428 . S
C645 N644 1.351 . S
C645 C646 1.434 . S
C646 C637 1.429 . S
C646 N643 1.350 . S
C646 C645 1.434 . S
C647 C648 1.369 . S
C647 C649 1.419 . S
C647 H651 0.930 . S
C648 C647 1.369 . S
C648 C657 1.429 . S
C649 C647 1.419 . S
C649 C650 1.363 . S
C649 H652 0.929 . S
C650 C649 1.363 . S
C650 C656 1.428 . S
H651 C647 0.930 . S
H652 C649 0.929 . S
S653 N654 1.613 . S
S653 N655 1.610 . S
N654 S653 1.613 . S
N654 C657 1.350 . S
N655 S653 1.610 . S
N655 C656 1.351 . S
C656 C650 1.428 . S
C656 N655 1.351 . S
C656 C657 1.434 . S
C657 C648 1.429 . S
C657 N654 1.350 . S
C657 C656 1.434 . S
C658 C659 1.369 . S
C658 C660 1.419 . S
C658 H662 0.930 . S
C659 C658 1.369 . S
C659 C668 1.429 . S
C660 C658 1.419 . S
C660 C661 1.363 . S
C660 H663 0.929 . S
C661 C660 1.363 . S
C661 C667 1.428 . S
H662 C658 0.930 . S
H663 C660 0.929 . S
S664 N665 1.613 . S
S664 N666 1.610 . S
N665 S664 1.613 . S
N665 C668 1.350 . S
N666 S664 1.610 . S
N666 C667 1.351 . S
C667 C661 1.428 . S
C667 N666 1.351 . S
C667 C668 1.434 . S
C668 C659 1.429 . S
C668 N665 1.350 . S
C668 C667 1.434 . S
C669 C670 1.369 . S
C669 C671 1.419 . S
C669 H673 0.930 . S
C670 C669 1.369 . S
C670 C679 1.429 . S
C671 C669 1.419 . S
C671 C672 1.363 . S
C671 H674 0.929 . S
C672 C671 1.363 . S
C672 C678 1.428 . S
H673 C669 0.930 . S
H674 C671 0.929 . S
S675 N676 1.613 . S
S675 N677 1.610 . S
N676 S675 1.613 . S
N676 C679 1.350 . S
N677 S675 1.610 . S
N677 C678 1.351 . S
C678 C672 1.428 . S
C678 N677 1.351 . S
C678 C679 1.434 . S
C679 C670 1.429 . S
C679 N676 1.350 . S
C679 C678 1.434 . S
C680 C681 1.369 . S
C680 C682 1.419 . S
C680 H684 0.930 . S
C681 C680 1.369 . S
C681 C690 1.429 . S
C682 C680 1.419 . S
C682 C683 1.363 . S
C682 H685 0.929 . S
C683 C682 1.363 . S
C683 C689 1.428 . S
H684 C680 0.930 . S
H685 C682 0.929 . S
S686 N687 1.613 . S
S686 N688 1.610 . S
N687 S686 1.613 . S
N687 C690 1.350 . S
N688 S686 1.610 . S
N688 C689 1.351 . S
C689 C683 1.428 . S
C689 N688 1.351 . S
C689 C690 1.434 . S
C690 C681 1.429 . S
C690 N687 1.350 . S
C690 C689 1.434 . S
C691 C692 1.369 . S
C691 C693 1.419 . S
C691 H695 0.930 . S
C692 C691 1.369 . S
C692 C701 1.429 . S
C693 C691 1.419 . S
C693 C694 1.363 . S
C693 H696 0.929 . S
C694 C693 1.363 . S
C694 C700 1.428 . S
H695 C691 0.930 . S
H696 C693 0.929 . S
S697 N698 1.613 . S
S697 N699 1.610 . S
N698 S697 1.613 . S
N698 C701 1.350 . S
N699 S697 1.610 . S
N699 C700 1.351 . S
C700 C694 1.428 . S
C700 N699 1.351 . S
C700 C701 1.434 . S
C701 C692 1.429 . S
C701 N698 1.350 . S
C701 C700 1.434 . S
C702 C703 1.369 . S
C702 C704 1.419 . S
C702 H706 0.930 . S
C703 C702 1.369 . S
C703 C712 1.429 . S
C704 C702 1.419 . S
C704 C705 1.363 . S
C704 H707 0.929 . S
C705 C704 1.363 . S
C705 C711 1.428 . S
H706 C702 0.930 . S
H707 C704 0.929 . S
S708 N709 1.613 . S
S708 N710 1.610 . S
N709 S708 1.613 . S
N709 C712 1.350 . S
N710 S708 1.610 . S
N710 C711 1.351 . S
C711 C705 1.428 . S
C711 N710 1.351 . S
C711 C712 1.434 . S
C712 C703 1.429 . S
C712 N709 1.350 . S
C712 C711 1.434 . S
C713 C714 1.369 . S
C713 C715 1.419 . S
C713 H717 0.930 . S
C714 C713 1.369 . S
C714 C723 1.429 . S
C715 C713 1.419 . S
C715 C716 1.363 . S
C715 H718 0.929 . S
C716 C715 1.363 . S
C716 C722 1.428 . S
H717 C713 0.930 . S
H718 C715 0.929 . S
S719 N720 1.613 . S
S719 N721 1.610 . S
N720 S719 1.613 . S
N720 C723 1.350 . S
N721 S719 1.610 . S
N721 C722 1.351 . S
C722 C716 1.428 . S
C722 N721 1.351 . S
C722 C723 1.434 . S
C723 C714 1.429 . S
C723 N720 1.350 . S
C723 C722 1.434 . S
C724 C725 1.369 . S
C724 C726 1.419 . S
C724 H728 0.930 . S
C725 C724 1.369 . S
C725 C734 1.429 . S
C726 C724 1.419 . S
C726 C727 1.363 . S
C726 H729 0.929 . S
C727 C726 1.363 . S
C727 C733 1.428 . S
H728 C724 0.930 . S
H729 C726 0.929 . S
S730 N731 1.613 . S
S730 N732 1.610 . S
N731 S730 1.613 . S
N731 C734 1.350 . S
N732 S730 1.610 . S
N732 C733 1.351 . S
C733 C727 1.428 . S
C733 N732 1.351 . S
C733 C734 1.434 . S
C734 C725 1.429 . S
C734 N731 1.350 . S
C734 C733 1.434 . S
C735 C736 1.369 . S
C735 C737 1.419 . S
C735 H739 0.930 . S
C736 C735 1.369 . S
C736 C745 1.429 . S
C737 C735 1.419 . S
C737 C738 1.363 . S
C737 H740 0.929 . S
C738 C737 1.363 . S
C738 C744 1.428 . S
H739 C735 0.930 . S
H740 C737 0.929 . S
S741 N742 1.613 1_556 S
S741 N743 1.610 1_556 S
N742 S741 1.613 1_554 S
N742 C745 1.350 . S
N743 S741 1.610 1_554 S
N743 C744 1.351 . S
C744 C738 1.428 . S
C744 N743 1.351 . S
C744 C745 1.434 . S
C745 C736 1.429 . S
C745 N742 1.350 . S
C745 C744 1.434 . S
C746 C747 1.369 . S
C746 C748 1.419 . S
C746 H750 0.930 . S
C747 C746 1.369 . S
C747 C756 1.429 . S
C748 C746 1.419 . S
C748 C749 1.363 . S
C748 H751 0.929 . S
C749 C748 1.363 . S
C749 C755 1.428 . S
H750 C746 0.930 . S
H751 C748 0.929 . S
S752 N753 1.613 . S
S752 N754 1.610 . S
N753 S752 1.613 . S
N753 C756 1.350 1_556 S
N754 S752 1.610 . S
N754 C755 1.351 1_556 S
C755 C749 1.428 . S
C755 N754 1.351 1_554 S
C755 C756 1.434 . S
C756 C747 1.429 . S
C756 N753 1.350 1_554 S
C756 C755 1.434 . S
C757 C758 1.369 . S
C757 C759 1.419 . S
C757 H761 0.970 . S
C758 C757 1.369 . S
C758 C767 1.429 . S
C759 C757 1.419 . S
C759 C760 1.363 . S
C759 H762 0.929 . S
C760 C759 1.363 . S
C760 C766 1.428 . S
H761 C757 0.970 . S
H762 C759 0.929 . S
S763 N764 1.613 . S
S763 N765 1.610 . S
N764 S763 1.613 . S
N764 C767 1.350 . S
N765 S763 1.610 . S
N765 C766 1.351 . S
C766 C760 1.428 . S
C766 N765 1.351 . S
C766 C767 1.434 . S
C767 C758 1.429 . S
C767 N764 1.350 . S
C767 C766 1.434 . S
C768 C769 1.369 . S
C768 C770 1.419 . S
C768 H772 0.930 . S
C769 C768 1.369 . S
C769 C778 1.429 . S
C770 C768 1.419 . S
C770 C771 1.363 . S
C770 H773 0.929 . S
C771 C770 1.363 . S
C771 C777 1.428 . S
H772 C768 0.930 . S
H773 C770 0.929 . S
S774 N775 1.613 . S
S774 N776 1.610 . S
N775 S774 1.613 . S
N775 C778 1.350 . S
N776 S774 1.610 . S
N776 C777 1.351 . S
C777 C771 1.428 . S
C777 N776 1.351 . S
C777 C778 1.434 . S
C778 C769 1.429 . S
C778 N775 1.350 . S
C778 C777 1.434 . S
C779 C780 1.369 . S
C779 C781 1.419 . S
C779 H783 0.930 . S
C780 C779 1.369 . S
C780 C789 1.429 . S
C781 C779 1.419 . S
C781 C782 1.363 . S
C781 H784 0.929 . S
C782 C781 1.363 . S
C782 C788 1.428 . S
H783 C779 0.930 . S
H784 C781 0.929 . S
S785 N786 1.613 . S
S785 N787 1.610 . S
N786 S785 1.613 . S
N786 C789 1.350 . S
N787 S785 1.610 . S
N787 C788 1.351 . S
C788 C782 1.428 . S
C788 N787 1.351 . S
C788 C789 1.434 . S
C789 C780 1.429 . S
C789 N786 1.350 . S
C789 C788 1.434 . S
C790 C791 1.369 . S
C790 C792 1.419 . S
C790 H794 0.930 . S
C791 C790 1.369 . S
C791 C800 1.429 . S
C792 C790 1.419 . S
C792 C793 1.363 . S
C792 H795 0.929 . S
C793 C792 1.363 . S
C793 C799 1.428 . S
H794 C790 0.930 . S
H795 C792 0.929 . S
S796 N797 1.613 . S
S796 N798 1.610 . S
N797 S796 1.613 . S
N797 C800 1.350 . S
N798 S796 1.610 . S
N798 C799 1.351 . S
C799 C793 1.428 . S
C799 N798 1.351 . S
C799 C800 1.434 . S
C800 C791 1.429 . S
C800 N797 1.350 . S
C800 C799 1.434 . S
C801 C802 1.369 . S
C801 C803 1.419 . S
C801 H805 0.930 1_556 S
C802 C801 1.369 . S
C802 C811 1.429 . S
C803 C801 1.419 . S
C803 C804 1.363 . S
C803 H806 0.929 1_556 S
C804 C803 1.363 . S
C804 C810 1.428 . S
H805 C801 0.930 1_554 S
H806 C803 0.929 1_554 S
S807 N808 1.613 . S
S807 N809 1.610 . S
N808 S807 1.613 . S
N808 C811 1.350 . S
N809 S807 1.610 . S
N809 C810 1.351 . S
C810 C804 1.428 . S
C810 N809 1.351 . S
C810 C811 1.434 . S
C811 C802 1.429 . S
C811 N808 1.350 . S
C811 C810 1.434 . S
C812 C813 1.369 . S
C812 C814 1.419 . S
C812 H816 0.930 1_556 S
C813 C812 1.369 . S
C813 C822 1.429 . S
C814 C812 1.419 . S
C814 C815 1.363 . S
C814 H817 0.929 1_556 S
C815 C814 1.363 . S
C815 C821 1.428 . S
H816 C812 0.930 1_554 S
H817 C814 0.929 1_554 S
S818 N819 1.613 . S
S818 N820 1.610 . S
N819 S818 1.613 . S
N819 C822 1.350 . S
N820 S818 1.610 . S
N820 C821 1.351 . S
C821 C815 1.428 . S
C821 N820 1.351 . S
C821 C822 1.434 . S
C822 C813 1.429 . S
C822 N819 1.350 . S
C822 C821 1.434 . S
C823 C824 1.369 . S
C823 C825 1.419 . S
C823 H827 0.930 . S
C824 C823 1.369 . S
C824 C833 1.429 . S
C825 C823 1.419 . S
C825 C826 1.363 . S
C825 H828 0.929 . S
C826 C825 1.363 . S
C826 C832 1.428 . S
H827 C823 0.930 . S
H828 C825 0.929 . S
S829 N830 1.613 . S
S829 N831 1.610 . S
N830 S829 1.613 . S
N830 C833 1.350 1_554 S
N831 S829 1.610 . S
N831 C832 1.351 1_554 S
C832 C826 1.428 . S
C832 N831 1.351 1_556 S
C832 C833 1.434 . S
C833 C824 1.429 . S
C833 N830 1.350 1_556 S
C833 C832 1.434 . S
C834 C835 1.369 . S
C834 C836 1.419 . S
C834 H838 0.930 . S
C835 C834 1.369 . S
C835 C844 1.429 . S
C836 C834 1.419 . S
C836 C837 1.363 . S
C836 H839 0.929 . S
C837 C836 1.363 . S
C837 C843 1.428 . S
H838 C834 0.930 . S
H839 C836 0.929 . S
S840 N841 1.613 . S
S840 N842 1.610 . S
N841 S840 1.613 . S
N841 C844 1.350 . S
N842 S840 1.610 . S
N842 C843 1.351 . S
C843 C837 1.428 . S
C843 N842 1.351 . S
C843 C844 1.434 . S
C844 C835 1.429 . S
C844 N841 1.350 . S
C844 C843 1.434 . S
C845 C846 1.369 . S
C845 C847 1.419 . S
C845 H849 0.930 . S
C846 C845 1.369 . S
C846 C855 1.429 . S
C847 C845 1.419 . S
C847 C848 1.363 . S
C847 H850 0.929 . S
C848 C847 1.363 . S
C848 C854 1.428 . S
H849 C845 0.930 . S
H850 C847 0.929 . S
S851 N852 1.613 . S
S851 N853 1.610 . S
N852 S851 1.613 . S
N852 C855 1.350 . S
N853 S851 1.610 . S
N853 C854 1.351 . S
C854 C848 1.428 . S
C854 N853 1.351 . S
C854 C855 1.434 . S
C855 C846 1.429 . S
C855 N852 1.350 . S
C855 C854 1.434 . S
C856 C857 1.369 . S
C856 C858 1.419 . S
C856 H860 0.930 . S
C857 C856 1.369 . S
C857 C866 1.429 . S
C858 C856 1.419 . S
C858 C859 1.363 . S
C858 H861 0.929 . S
C859 C858 1.363 . S
C859 C865 1.428 . S
H860 C856 0.930 . S
H861 C858 0.929 . S
S862 N863 1.613 . S
S862 N864 1.610 . S
N863 S862 1.613 . S
N863 C866 1.350 . S
N864 S862 1.610 . S
N864 C865 1.351 . S
C865 C859 1.428 . S
C865 N864 1.351 . S
C865 C866 1.434 . S
C866 C857 1.429 . S
C866 N863 1.350 . S
C866 C865 1.434 . S
C867 C868 1.369 . S
C867 C869 1.419 . S
C867 H871 0.930 . S
C868 C867 1.369 . S
C868 C877 1.429 . S
C869 C867 1.419 . S
C869 C870 1.363 . S
C869 H872 0.929 . S
C870 C869 1.363 . S
C870 C876 1.428 . S
H871 C867 0.930 . S
H872 C869 0.929 . S
S873 N874 1.613 . S
S873 N875 1.610 . S
N874 S873 1.613 . S
N874 C877 1.350 . S
N875 S873 1.610 . S
N875 C876 1.351 . S
C876 C870 1.428 . S
C876 N875 1.351 . S
C876 C877 1.434 . S
C877 C868 1.429 . S
C877 N874 1.350 . S
C877 C876 1.434 . S
C878 C879 1.369 . S
C878 C880 1.419 . S
C878 H882 0.930 . S
C879 C878 1.369 . S
C879 C888 1.429 . S
C880 C878 1.419 . S
C880 C881 1.363 . S
C880 H883 0.929 . S
C881 C880 1.363 . S
C881 C887 1.428 . S
H882 C878 0.930 . S
H883 C880 0.929 . S
S884 N885 1.613 . S
S884 N886 1.610 . S
N885 S884 1.613 . S
N885 C888 1.350 . S
N886 S884 1.610 . S
N886 C887 1.351 . S
C887 C881 1.428 . S
C887 N886 1.351 . S
C887 C888 1.434 . S
C888 C879 1.429 . S
C888 N885 1.350 . S
C888 C887 1.434 . S
C889 C890 1.369 . S
C889 C891 1.419 . S
C889 H893 0.930 . S
C890 C889 1.369 . S
C890 C899 1.429 . S
C891 C889 1.419 . S
C891 C892 1.363 . S
C891 H894 0.929 . S
C892 C891 1.363 . S
C892 C898 1.428 . S
H893 C889 0.930 . S
H894 C891 0.929 . S
S895 N896 1.613 . S
S895 N897 1.610 . S
N896 S895 1.613 . S
N896 C899 1.350 . S
N897 S895 1.610 . S
N897 C898 1.351 . S
C898 C892 1.428 . S
C898 N897 1.351 . S
C898 C899 1.434 . S
C899 C890 1.429 . S
C899 N896 1.350 . S
C899 C898 1.434 . S
C900 C901 1.369 . S
C900 C902 1.419 . S
C900 H904 0.930 . S
C901 C900 1.369 . S
C901 C910 1.429 . S
C902 C900 1.419 . S
C902 C903 1.363 . S
C902 H905 0.929 . S
C903 C902 1.363 . S
C903 C909 1.428 . S
H904 C900 0.930 . S
H905 C902 0.929 . S
S906 N907 1.613 . S
S906 N908 1.610 . S
N907 S906 1.613 . S
N907 C910 1.350 . S
N908 S906 1.610 . S
N908 C909 1.351 . S
C909 C903 1.428 . S
C909 N908 1.351 . S
C909 C910 1.434 . S
C910 C901 1.429 . S
C910 N907 1.350 . S
C910 C909 1.434 . S
C911 C912 1.369 . S
C911 C913 1.419 1_565 S
C911 H915 0.930 . S
C912 C911 1.369 . S
C912 C921 1.429 . S
C913 C911 1.419 1_545 S
C913 C914 1.363 . S
C913 H916 0.929 . S
C914 C913 1.363 . S
C914 C920 1.428 . S
H915 C911 0.930 . S
H916 C913 0.929 . S
S917 N918 1.613 . S
S917 N919 1.610 1_565 S
N918 S917 1.613 . S
N918 C921 1.350 . S
N919 S917 1.610 1_545 S
N919 C920 1.351 . S
C920 C914 1.428 . S
C920 N919 1.351 . S
C920 C921 1.434 1_545 S
C921 C912 1.429 . S
C921 N918 1.350 . S
C921 C920 1.434 1_565 S
C922 C923 1.369 . S
C922 C924 1.419 . S
C922 H926 0.930 . S
C923 C922 1.369 . S
C923 C932 1.429 1_655 S
C924 C922 1.419 . S
C924 C925 1.363 1_655 S
C924 H927 0.929 . S
C925 C924 1.363 1_455 S
C925 C931 1.428 . S
H926 C922 0.930 . S
H927 C924 0.929 . S
S928 N929 1.613 . S
S928 N930 1.610 . S
N929 S928 1.613 . S
N929 C932 1.350 . S
N930 S928 1.610 . S
N930 C931 1.351 . S
C931 C925 1.428 . S
C931 N930 1.351 . S
C931 C932 1.434 . S
C932 C923 1.429 1_455 S
C932 N929 1.350 . S
C932 C931 1.434 . S
C933 C934 1.369 . S
C933 C935 1.419 . S
C933 H937 0.930 . S
C934 C933 1.369 . S
C934 C943 1.429 . S
C935 C933 1.419 . S
C935 C936 1.363 . S
C935 H938 0.929 . S
C936 C935 1.363 . S
C936 C942 1.428 . S
H937 C933 0.930 . S
H938 C935 0.929 . S
S939 N940 1.613 . S
S939 N941 1.610 . S
N940 S939 1.613 . S
N940 C943 1.350 . S
N941 S939 1.610 . S
N941 C942 1.351 . S
C942 C936 1.428 . S
C942 N941 1.351 . S
C942 C943 1.434 . S
C943 C934 1.429 . S
C943 N940 1.350 . S
C943 C942 1.434 . S
C944 C945 1.369 . S
C944 C946 1.419 . S
C944 H948 0.930 . S
C945 C944 1.369 . S
C945 C954 1.429 1_545 S
C946 C944 1.419 . S
C946 C947 1.363 1_545 S
C946 H949 0.929 . S
C947 C946 1.363 1_565 S
C947 C953 1.428 . S
H948 C944 0.930 . S
H949 C946 0.929 . S
S950 N951 1.613 . S
S950 N952 1.610 . S
N951 S950 1.613 . S
N951 C954 1.350 . S
N952 S950 1.610 . S
N952 C953 1.351 . S
C953 C947 1.428 . S
C953 N952 1.351 . S
C953 C954 1.434 . S
C954 C945 1.429 1_565 S
C954 N951 1.350 . S
C954 C953 1.434 . S
C955 C956 1.369 . S
C955 C957 1.419 1_455 S
C955 H959 0.930 . S
C956 C955 1.369 . S
C956 C965 1.429 . S
C957 C955 1.419 1_655 S
C957 C958 1.363 . S
C957 H960 0.929 . S
C958 C957 1.363 . S
C958 C964 1.428 . S
H959 C955 0.930 . S
H960 C957 0.929 . S
S961 N962 1.613 . S
S961 N963 1.610 1_455 S
N962 S961 1.613 . S
N962 C965 1.350 . S
N963 S961 1.610 1_655 S
N963 C964 1.351 . S
C964 C958 1.428 . S
C964 N963 1.351 . S
C964 C965 1.434 1_655 S
C965 C956 1.429 . S
C965 N962 1.350 . S
C965 C964 1.434 1_455 S
C966 C967 1.369 . S
C966 C968 1.419 . S
C966 H970 0.930 . S
C967 C966 1.369 . S
C967 C976 1.429 . S
C968 C966 1.419 . S
C968 C969 1.363 . S
C968 H971 0.929 . S
C969 C968 1.363 . S
C969 C975 1.428 . S
H970 C966 0.930 . S
H971 C968 0.929 . S
S972 N973 1.613 . S
S972 N974 1.610 . S
N973 S972 1.613 . S
N973 C976 1.350 . S
N974 S972 1.610 . S
N974 C975 1.351 . S
C975 C969 1.428 . S
C975 N974 1.351 . S
C975 C976 1.434 . S
C976 C967 1.429 . S
C976 N973 1.350 . S
C976 C975 1.434 . S
C977 C978 1.369 . S
C977 C979 1.419 . S
C977 H981 0.930 . S
C978 C977 1.369 . S
C978 C987 1.429 . S
C979 C977 1.419 . S
C979 C980 1.363 . S
C979 H982 0.929 . S
C980 C979 1.363 . S
C980 C986 1.428 . S
H981 C977 0.930 . S
H982 C979 0.929 . S
S983 N984 1.613 . S
S983 N985 1.610 . S
N984 S983 1.613 . S
N984 C987 1.350 . S
N985 S983 1.610 . S
N985 C986 1.351 . S
C986 C980 1.428 . S
C986 N985 1.351 . S
C986 C987 1.434 . S
C987 C978 1.429 . S
C987 N984 1.350 . S
C987 C986 1.434 . S
C988 C989 1.369 . S
C988 C990 1.419 . S
C988 H992 0.930 . S
C989 C988 1.369 . S
C989 C998 1.429 . S
C990 C988 1.419 . S
C990 C991 1.363 . S
C990 H993 0.929 . S
C991 C990 1.363 . S
C991 C997 1.428 . S
H992 C988 0.930 . S
H993 C990 0.929 . S
S994 N995 1.613 . S
S994 N996 1.610 . S
N995 S994 1.613 . S
N995 C998 1.350 . S
N996 S994 1.610 . S
N996 C997 1.351 . S
C997 C991 1.428 . S
C997 N996 1.351 . S
C997 C998 1.434 . S
C998 C989 1.429 . S
C998 N995 1.350 . S
C998 C997 1.434 . S
C999 C1000 1.369 . S
C999 C1001 1.419 . S
C999 H1003 0.930 . S
C1000 C999 1.369 . S
C1000 C1009 1.429 . S
C1001 C999 1.419 . S
C1001 C1002 1.363 . S
C1001 H1004 0.929 . S
C1002 C1001 1.363 . S
C1002 C1008 1.428 . S
H1003 C999 0.930 . S
H1004 C1001 0.929 . S
S1005 N1006 1.613 . S
S1005 N1007 1.610 . S
N1006 S1005 1.613 . S
N1006 C1009 1.350 . S
N1007 S1005 1.610 . S
N1007 C1008 1.351 . S
C1008 C1002 1.428 . S
C1008 N1007 1.351 . S
C1008 C1009 1.434 . S
C1009 C1000 1.429 . S
C1009 N1006 1.350 . S
C1009 C1008 1.434 . S
C1010 C1011 1.369 . S
C1010 C1012 1.419 . S
C1010 H1014 0.930 . S
C1011 C1010 1.369 . S
C1011 C1020 1.429 . S
C1012 C1010 1.419 . S
C1012 C1013 1.363 . S
C1012 H1015 0.929 . S
C1013 C1012 1.363 . S
C1013 C1019 1.428 . S
H1014 C1010 0.930 . S
H1015 C1012 0.929 . S
S1016 N1017 1.613 . S
S1016 N1018 1.610 . S
N1017 S1016 1.613 . S
N1017 C1020 1.350 . S
N1018 S1016 1.610 . S
N1018 C1019 1.351 . S
C1019 C1013 1.428 . S
C1019 N1018 1.351 . S
C1019 C1020 1.434 . S
C1020 C1011 1.429 . S
C1020 N1017 1.350 . S
C1020 C1019 1.434 . S
C1021 C1022 1.369 . S
C1021 C1023 1.419 . S
C1021 H1025 0.930 . S
C1022 C1021 1.369 . S
C1022 C1031 1.429 . S
C1023 C1021 1.419 . S
C1023 C1024 1.363 . S
C1023 H1026 0.929 . S
C1024 C1023 1.363 . S
C1024 C1030 1.428 . S
H1025 C1021 0.930 . S
H1026 C1023 0.929 . S
S1027 N1028 1.613 . S
S1027 N1029 1.610 . S
N1028 S1027 1.613 . S
N1028 C1031 1.350 . S
N1029 S1027 1.610 . S
N1029 C1030 1.351 . S
C1030 C1024 1.428 . S
C1030 N1029 1.351 . S
C1030 C1031 1.434 . S
C1031 C1022 1.429 . S
C1031 N1028 1.350 . S
C1031 C1030 1.434 . S
C1032 C1033 1.369 . S
C1032 C1034 1.419 . S
C1032 H1036 0.930 . S
C1033 C1032 1.369 . S
C1033 C1042 1.429 . S
C1034 C1032 1.419 . S
C1034 C1035 1.363 . S
C1034 H1037 0.929 . S
C1035 C1034 1.363 . S
C1035 C1041 1.428 . S
H1036 C1032 0.930 . S
H1037 C1034 0.929 . S
S1038 N1039 1.613 . S
S1038 N1040 1.610 . S
N1039 S1038 1.613 . S
N1039 C1042 1.350 . S
N1040 S1038 1.610 . S
N1040 C1041 1.351 . S
C1041 C1035 1.428 . S
C1041 N1040 1.351 . S
C1041 C1042 1.434 . S
C1042 C1033 1.429 . S
C1042 N1039 1.350 . S
C1042 C1041 1.434 . S
C1043 C1044 1.369 . S
C1043 C1045 1.419 . S
C1043 H1047 0.930 . S
C1044 C1043 1.369 . S
C1044 C1053 1.429 . S
C1045 C1043 1.419 . S
C1045 C1046 1.363 . S
C1045 H1048 0.929 . S
C1046 C1045 1.363 . S
C1046 C1052 1.428 . S
H1047 C1043 0.930 . S
H1048 C1045 0.929 . S
S1049 N1050 1.613 . S
S1049 N1051 1.610 . S
N1050 S1049 1.613 . S
N1050 C1053 1.350 . S
N1051 S1049 1.610 . S
N1051 C1052 1.351 . S
C1052 C1046 1.428 . S
C1052 N1051 1.351 . S
C1052 C1053 1.434 . S
C1053 C1044 1.429 . S
C1053 N1050 1.350 . S
C1053 C1052 1.434 . S
C1054 C1055 1.369 . S
C1054 C1056 1.419 . S
C1054 H1058 0.930 . S
C1055 C1054 1.369 . S
C1055 C1064 1.429 . S
C1056 C1054 1.419 . S
C1056 C1057 1.363 . S
C1056 H1059 0.929 . S
C1057 C1056 1.363 . S
C1057 C1063 1.428 . S
H1058 C1054 0.930 . S
H1059 C1056 0.929 . S
S1060 N1061 1.613 . S
S1060 N1062 1.610 . S
N1061 S1060 1.613 . S
N1061 C1064 1.350 . S
N1062 S1060 1.610 . S
N1062 C1063 1.351 . S
C1063 C1057 1.428 . S
C1063 N1062 1.351 . S
C1063 C1064 1.434 . S
C1064 C1055 1.429 . S
C1064 N1061 1.350 . S
C1064 C1063 1.434 . S
C1065 C1066 1.369 . S
C1065 C1067 1.419 . S
C1065 H1069 0.930 . S
C1066 C1065 1.369 . S
C1066 C1075 1.429 . S
C1067 C1065 1.419 . S
C1067 C1068 1.363 . S
C1067 H1070 0.929 . S
C1068 C1067 1.363 . S
C1068 C1074 1.428 . S
H1069 C1065 0.930 . S
H1070 C1067 0.929 . S
S1071 N1072 1.613 . S
S1071 N1073 1.610 . S
N1072 S1071 1.613 . S
N1072 C1075 1.350 . S
N1073 S1071 1.610 . S
N1073 C1074 1.351 . S
C1074 C1068 1.428 . S
C1074 N1073 1.351 . S
C1074 C1075 1.434 . S
C1075 C1066 1.429 . S
C1075 N1072 1.350 . S
C1075 C1074 1.434 . S
C1076 C1077 1.369 . S
C1076 C1078 1.419 . S
C1076 H1080 0.930 . S
C1077 C1076 1.369 . S
C1077 C1086 1.429 . S
C1078 C1076 1.419 . S
C1078 C1079 1.363 . S
C1078 H1081 0.929 . S
C1079 C1078 1.363 . S
C1079 C1085 1.428 . S
H1080 C1076 0.930 . S
H1081 C1078 0.929 . S
S1082 N1083 1.613 . S
S1082 N1084 1.610 . S
N1083 S1082 1.613 . S
N1083 C1086 1.350 . S
N1084 S1082 1.610 . S
N1084 C1085 1.351 . S
C1085 C1079 1.428 . S
C1085 N1084 1.351 . S
C1085 C1086 1.434 . S
C1086 C1077 1.429 . S
C1086 N1083 1.350 . S
C1086 C1085 1.434 . S
C1087 C1088 1.369 . S
C1087 C1089 1.419 . S
C1087 H1091 0.930 . S
C1088 C1087 1.369 . S
C1088 C1097 1.429 . S
C1089 C1087 1.419 . S
C1089 C1090 1.363 . S
C1089 H1092 0.929 . S
C1090 C1089 1.363 . S
C1090 C1096 1.428 . S
H1091 C1087 0.930 . S
H1092 C1089 0.929 . S
S1093 N1094 1.613 . S
S1093 N1095 1.610 . S
N1094 S1093 1.613 . S
N1094 C1097 1.350 . S
N1095 S1093 1.610 . S
N1095 C1096 1.351 . S
C1096 C1090 1.428 . S
C1096 N1095 1.351 . S
C1096 C1097 1.434 . S
C1097 C1088 1.429 . S
C1097 N1094 1.350 . S
C1097 C1096 1.434 . S
C1098 C1099 1.369 . S
C1098 C1100 1.419 . S
C1098 H1102 0.930 . S
C1099 C1098 1.369 . S
C1099 C1108 1.429 . S
C1100 C1098 1.419 . S
C1100 C1101 1.363 . S
C1100 H1103 0.929 . S
C1101 C1100 1.363 . S
C1101 C1107 1.428 . S
H1102 C1098 0.930 . S
H1103 C1100 0.929 . S
S1104 N1105 1.613 . S
S1104 N1106 1.610 . S
N1105 S1104 1.613 . S
N1105 C1108 1.350 . S
N1106 S1104 1.610 . S
N1106 C1107 1.351 . S
C1107 C1101 1.428 . S
C1107 N1106 1.351 . S
C1107 C1108 1.434 . S
C1108 C1099 1.429 . S
C1108 N1105 1.350 . S
C1108 C1107 1.434 . S
C1109 C1110 1.369 . S
C1109 C1111 1.419 . S
C1109 H1113 0.930 . S
C1110 C1109 1.369 . S
C1110 C1119 1.429 . S
C1111 C1109 1.419 . S
C1111 C1112 1.363 . S
C1111 H1114 0.929 . S
C1112 C1111 1.363 . S
C1112 C1118 1.428 . S
H1113 C1109 0.930 . S
H1114 C1111 0.929 . S
S1115 N1116 1.613 . S
S1115 N1117 1.610 . S
N1116 S1115 1.613 . S
N1116 C1119 1.350 . S
N1117 S1115 1.610 . S
N1117 C1118 1.351 . S
C1118 C1112 1.428 . S
C1118 N1117 1.351 . S
C1118 C1119 1.434 . S
C1119 C1110 1.429 . S
C1119 N1116 1.350 . S
C1119 C1118 1.434 . S
C1120 C1121 1.369 . S
C1120 C1122 1.419 . S
C1120 H1124 0.930 . S
C1121 C1120 1.369 . S
C1121 C1130 1.429 . S
C1122 C1120 1.419 . S
C1122 C1123 1.363 . S
C1122 H1125 0.929 . S
C1123 C1122 1.363 . S
C1123 C1129 1.428 . S
H1124 C1120 0.930 . S
H1125 C1122 0.929 . S
S1126 N1127 1.613 . S
S1126 N1128 1.610 . S
N1127 S1126 1.613 . S
N1127 C1130 1.350 . S
N1128 S1126 1.610 . S
N1128 C1129 1.351 . S
C1129 C1123 1.428 . S
C1129 N1128 1.351 . S
C1129 C1130 1.434 . S
C1130 C1121 1.429 . S
C1130 N1127 1.350 . S
C1130 C1129 1.434 . S
C1131 C1132 1.369 . S
C1131 C1133 1.419 . S
C1131 H1135 0.930 . S
C1132 C1131 1.369 . S
C1132 C1141 1.429 . S
C1133 C1131 1.419 . S
C1133 C1134 1.363 . S
C1133 H1136 0.929 . S
C1134 C1133 1.363 . S
C1134 C1140 1.428 . S
H1135 C1131 0.930 . S
H1136 C1133 0.929 . S
S1137 N1138 1.613 . S
S1137 N1139 1.610 . S
N1138 S1137 1.613 . S
N1138 C1141 1.350 . S
N1139 S1137 1.610 . S
N1139 C1140 1.351 . S
C1140 C1134 1.428 . S
C1140 N1139 1.351 . S
C1140 C1141 1.434 . S
C1141 C1132 1.429 . S
C1141 N1138 1.350 . S
C1141 C1140 1.434 . S
C1142 C1143 1.369 . S
C1142 C1144 1.419 . S
C1142 H1146 0.930 . S
C1143 C1142 1.369 . S
C1143 C1152 1.429 . S
C1144 C1142 1.419 . S
C1144 C1145 1.363 . S
C1144 H1147 0.929 . S
C1145 C1144 1.363 . S
C1145 C1151 1.428 . S
H1146 C1142 0.930 . S
H1147 C1144 0.929 . S
S1148 N1149 1.613 . S
S1148 N1150 1.610 . S
N1149 S1148 1.613 . S
N1149 C1152 1.350 . S
N1150 S1148 1.610 . S
N1150 C1151 1.351 . S
C1151 C1145 1.428 . S
C1151 N1150 1.351 . S
C1151 C1152 1.434 . S
C1152 C1143 1.429 . S
C1152 N1149 1.350 . S
C1152 C1151 1.434 . S
C1153 C1154 1.369 . S
C1153 C1155 1.419 . S
C1153 H1157 0.930 . S
C1154 C1153 1.369 . S
C1154 C1163 1.429 . S
C1155 C1153 1.419 . S
C1155 C1156 1.363 . S
C1155 H1158 0.929 . S
C1156 C1155 1.363 . S
C1156 C1162 1.428 . S
H1157 C1153 0.930 . S
H1158 C1155 0.929 . S
S1159 N1160 1.613 . S
S1159 N1161 1.610 . S
N1160 S1159 1.613 . S
N1160 C1163 1.350 . S
N1161 S1159 1.610 . S
N1161 C1162 1.351 . S
C1162 C1156 1.428 . S
C1162 N1161 1.351 . S
C1162 C1163 1.434 . S
C1163 C1154 1.429 . S
C1163 N1160 1.350 . S
C1163 C1162 1.434 . S
C1164 C1165 1.369 . S
C1164 C1166 1.419 . S
C1164 H1168 0.930 . S
C1165 C1164 1.369 . S
C1165 C1174 1.429 . S
C1166 C1164 1.419 . S
C1166 C1167 1.363 . S
C1166 H1169 0.929 . S
C1167 C1166 1.363 . S
C1167 C1173 1.428 . S
H1168 C1164 0.930 . S
H1169 C1166 0.929 . S
S1170 N1171 1.613 . S
S1170 N1172 1.610 . S
N1171 S1170 1.613 . S
N1171 C1174 1.350 . S
N1172 S1170 1.610 . S
N1172 C1173 1.351 . S
C1173 C1167 1.428 . S
C1173 N1172 1.351 . S
C1173 C1174 1.434 . S
C1174 C1165 1.429 . S
C1174 N1171 1.350 . S
C1174 C1173 1.434 . S
C1175 C1176 1.369 . S
C1175 C1177 1.419 . S
C1175 H1179 0.930 . S
C1176 C1175 1.369 . S
C1176 C1185 1.429 . S
C1177 C1175 1.419 . S
C1177 C1178 1.363 . S
C1177 H1180 0.929 . S
C1178 C1177 1.363 . S
C1178 C1184 1.428 . S
H1179 C1175 0.930 . S
H1180 C1177 0.929 . S
S1181 N1182 1.613 . S
S1181 N1183 1.610 . S
N1182 S1181 1.613 . S
N1182 C1185 1.350 . S
N1183 S1181 1.610 . S
N1183 C1184 1.351 . S
C1184 C1178 1.428 . S
C1184 N1183 1.351 . S
C1184 C1185 1.434 . S
C1185 C1176 1.429 . S
C1185 N1182 1.350 . S
C1185 C1184 1.434 . S
C1186 C1187 1.369 . S
C1186 C1188 1.419 . S
C1186 H1190 0.930 . S
C1187 C1186 1.369 . S
C1187 C1196 1.429 . S
C1188 C1186 1.419 . S
C1188 C1189 1.363 . S
C1188 H1191 0.929 . S
C1189 C1188 1.363 . S
C1189 C1195 1.428 . S
H1190 C1186 0.930 . S
H1191 C1188 0.929 . S
S1192 N1193 1.613 . S
S1192 N1194 1.610 . S
N1193 S1192 1.613 . S
N1193 C1196 1.350 . S
N1194 S1192 1.610 . S
N1194 C1195 1.351 . S
C1195 C1189 1.428 . S
C1195 N1194 1.351 . S
C1195 C1196 1.434 . S
C1196 C1187 1.429 . S
C1196 N1193 1.350 . S
C1196 C1195 1.434 . S
C1197 C1198 1.369 . S
C1197 C1199 1.419 . S
C1197 H1201 0.930 . S
C1198 C1197 1.369 . S
C1198 C1207 1.429 . S
C1199 C1197 1.419 . S
C1199 C1200 1.363 . S
C1199 H1202 0.929 . S
C1200 C1199 1.363 . S
C1200 C1206 1.428 . S
H1201 C1197 0.930 . S
H1202 C1199 0.929 . S
S1203 N1204 1.613 . S
S1203 N1205 1.610 . S
N1204 S1203 1.613 . S
N1204 C1207 1.350 . S
N1205 S1203 1.610 . S
N1205 C1206 1.351 . S
C1206 C1200 1.428 . S
C1206 N1205 1.351 . S
C1206 C1207 1.434 . S
C1207 C1198 1.429 . S
C1207 N1204 1.350 . S
C1207 C1206 1.434 . S
C1208 C1209 1.369 . S
C1208 C1210 1.419 . S
C1208 H1212 0.930 . S
C1209 C1208 1.369 . S
C1209 C1218 1.429 . S
C1210 C1208 1.419 . S
C1210 C1211 1.363 . S
C1210 H1213 0.929 . S
C1211 C1210 1.363 . S
C1211 C1217 1.428 . S
H1212 C1208 0.930 . S
H1213 C1210 0.929 . S
S1214 N1215 1.613 . S
S1214 N1216 1.610 . S
N1215 S1214 1.613 . S
N1215 C1218 1.350 . S
N1216 S1214 1.610 . S
N1216 C1217 1.351 . S
C1217 C1211 1.428 . S
C1217 N1216 1.351 . S
C1217 C1218 1.434 . S
C1218 C1209 1.429 . S
C1218 N1215 1.350 . S
C1218 C1217 1.434 . S
C1219 C1220 1.369 . S
C1219 C1221 1.419 . S
C1219 H1223 0.930 . S
C1220 C1219 1.369 . S
C1220 C1229 1.429 . S
C1221 C1219 1.419 . S
C1221 C1222 1.363 . S
C1221 H1224 0.929 . S
C1222 C1221 1.363 . S
C1222 C1228 1.428 . S
H1223 C1219 0.930 . S
H1224 C1221 0.929 . S
S1225 N1226 1.613 . S
S1225 N1227 1.610 . S
N1226 S1225 1.613 . S
N1226 C1229 1.350 . S
N1227 S1225 1.610 . S
N1227 C1228 1.351 . S
C1228 C1222 1.428 . S
C1228 N1227 1.351 . S
C1228 C1229 1.434 . S
C1229 C1220 1.429 . S
C1229 N1226 1.350 . S
C1229 C1228 1.434 . S
C1230 C1231 1.369 . S
C1230 C1232 1.439 . S
C1230 H1234 0.930 . S
C1231 C1230 1.369 . S
C1231 C1240 1.429 1_455 S
C1232 C1230 1.439 . S
C1232 C1233 1.347 1_455 S
C1232 H1235 0.924 . S
C1233 C1232 1.347 1_655 S
C1233 C1239 1.428 . S
H1234 C1230 0.930 . S
H1235 C1232 0.924 . S
S1236 N1237 1.613 . S
S1236 N1238 1.610 . S
N1237 S1236 1.613 . S
N1237 C1240 1.350 . S
N1238 S1236 1.610 . S
N1238 C1239 1.351 . S
C1239 C1233 1.428 . S
C1239 N1238 1.351 . S
C1239 C1240 1.434 . S
C1240 C1231 1.429 1_655 S
C1240 N1237 1.350 . S
C1240 C1239 1.434 . S
C1241 C1242 1.369 . S
C1241 C1243 1.419 . S
C1241 H1245 0.930 . S
C1242 C1241 1.369 . S
C1242 C1251 1.429 . S
C1243 C1241 1.419 . S
C1243 C1244 1.363 . S
C1243 H1246 0.929 . S
C1244 C1243 1.363 . S
C1244 C1250 1.428 . S
H1245 C1241 0.930 . S
H1246 C1243 0.929 . S
S1247 N1248 1.613 . S
S1247 N1249 1.610 . S
N1248 S1247 1.613 . S
N1248 C1251 1.350 . S
N1249 S1247 1.610 . S
N1249 C1250 1.351 . S
C1250 C1244 1.428 . S
C1250 N1249 1.351 . S
C1250 C1251 1.434 . S
C1251 C1242 1.429 . S
C1251 N1248 1.350 . S
C1251 C1250 1.434 . S
C1252 C1253 1.369 1_565 S
C1252 C1254 1.419 . S
C1252 H1256 0.930 . S
C1253 C1252 1.369 1_545 S
C1253 C1262 1.429 . S
C1254 C1252 1.419 . S
C1254 C1255 1.363 . S
C1254 H1257 0.929 . S
C1255 C1254 1.363 . S
C1255 C1261 1.428 1_565 S
H1256 C1252 0.930 . S
H1257 C1254 0.929 . S
S1258 N1259 1.613 . S
S1258 N1260 1.610 . S
N1259 S1258 1.613 . S
N1259 C1262 1.350 . S
N1260 S1258 1.610 . S
N1260 C1261 1.351 . S
C1261 C1255 1.428 1_545 S
C1261 N1260 1.351 . S
C1261 C1262 1.434 . S
C1262 C1253 1.429 . S
C1262 N1259 1.350 . S
C1262 C1261 1.434 . S
C1263 C1264 1.369 1_566 S
C1263 C1265 1.419 . S
C1263 H1267 0.930 . S
C1264 C1263 1.369 1_544 S
C1264 C1273 1.429 . S
C1265 C1263 1.419 . S
C1265 C1266 1.363 . S
C1265 H1268 0.929 . S
C1266 C1265 1.363 . S
C1266 C1272 1.428 1_566 S
H1267 C1263 0.930 . S
H1268 C1265 0.929 . S
S1269 N1270 1.613 . S
S1269 N1271 1.610 . S
N1270 S1269 1.613 . S
N1270 C1273 1.350 . S
N1271 S1269 1.610 . S
N1271 C1272 1.351 . S
C1272 C1266 1.428 1_544 S
C1272 N1271 1.351 . S
C1272 C1273 1.434 . S
C1273 C1264 1.429 . S
C1273 N1270 1.350 . S
C1273 C1272 1.434 . S
C1274 C1275 1.369 1_455 S
C1274 C1276 1.419 . S
C1274 H1278 0.930 . S
C1275 C1274 1.369 1_655 S
C1275 C1284 1.429 1_554 S
C1276 C1274 1.419 . S
C1276 C1277 1.363 1_554 S
C1276 H1279 0.929 . S
C1277 C1276 1.363 1_556 S
C1277 C1283 1.428 1_455 S
H1278 C1274 0.930 . S
H1279 C1276 0.929 . S
S1280 N1281 1.613 . S
S1280 N1282 1.610 . S
N1281 S1280 1.613 . S
N1281 C1284 1.350 . S
N1282 S1280 1.610 . S
N1282 C1283 1.351 . S
C1283 C1277 1.428 1_655 S
C1283 N1282 1.351 . S
C1283 C1284 1.434 . S
C1284 C1275 1.429 1_556 S
C1284 N1281 1.350 . S
C1284 C1283 1.434 . S
C1285 C1286 1.369 1_554 S
C1285 C1287 1.419 . S
C1285 H1289 0.930 . S
C1286 C1285 1.369 1_556 S
C1286 C1295 1.429 . S
C1287 C1285 1.419 . S
C1287 C1288 1.363 . S
C1287 H1290 0.929 . S
C1288 C1287 1.363 . S
C1288 C1294 1.428 1_554 S
H1289 C1285 0.930 . S
H1290 C1287 0.929 . S
S1291 N1292 1.613 . S
S1291 N1293 1.610 . S
N1292 S1291 1.613 . S
N1292 C1295 1.350 . S
N1293 S1291 1.610 . S
N1293 C1294 1.351 . S
C1294 C1288 1.428 1_556 S
C1294 N1293 1.351 . S
C1294 C1295 1.434 . S
C1295 C1286 1.429 . S
C1295 N1292 1.350 . S
C1295 C1294 1.434 . S
C505 C9 1.462 . S
C507 C22 1.596 . S
C516 C23 1.469 . S
C518 C36 1.593 . S
C527 C8 1.597 . S
C529 C37 1.465 . S
C538 C51 1.466 . S
C540 C78 1.596 . S
C549 C65 1.461 . S
C551 C50 1.593 . S
C560 C64 1.594 . S
C562 C79 1.470 . S
C571 C93 1.469 . S
C573 C106 1.593 . S
C582 C120 1.594 . S
C584 C107 1.470 . S
C593 C92 1.596 . S
C595 C121 1.459 . S
C604 C162 1.593 . S
C606 C135 1.462 . S
C615 C149 1.462 . S
C617 C134 1.594 . S
C626 C163 1.465 . S
C628 C148 1.596 . S
C637 C190 1.597 . S
C639 C177 1.462 . S
C648 C191 1.464 . S
C650 C204 1.596 . S
C659 C205 1.467 . S
C661 C176 1.593 . S
C670 C219 1.463 . S
C672 C246 1.593 . S
C681 C233 1.465 . S
C683 C218 1.596 . S
C692 C247 1.462 . S
C694 C232 1.596 . S
C703 C274 1.593 . S
C705 C261 1.464 . S
C714 C275 1.458 . S
C716 C288 1.595 . S
C725 C260 1.597 . S
C727 C289 1.462 . S
C736 C330 1.597 . S
C738 C303 1.463 . S
C747 C317 1.466 . S
C749 C302 1.596 . S
C758 C316 1.596 . S
C760 C331 1.459 . S
C769 C358 1.594 . S
C771 C345 1.470 . S
C780 C359 1.460 . S
C782 C372 1.594 . S
C791 C373 1.468 . S
C793 C344 1.593 . S
C802 C414 1.593 . S
C804 C387 1.463 . S
C813 C401 1.458 . S
C815 C386 1.594 . S
C824 C400 1.597 . S
C826 C415 1.463 . S
C835 C429 1.464 . S
C837 C442 1.596 . S
C846 C443 1.458 . S
C848 C456 1.595 . S
C857 C457 1.471 . S
C859 C428 1.594 . S
C868 C498 1.597 . S
C870 C471 1.460 . S
C879 C470 1.593 . S
C881 C485 1.469 . S
C890 C499 1.471 . S
C892 C484 1.593 . S
C901 C49 1.777 . S
C903 C7 1.774 . S
C912 C21 1.776 . S
C914 C63 1.774 . S
C923 C77 1.774 . S
C925 C35 1.780 . S
C934 C133 1.776 . S
C936 C91 1.774 . S
C945 C105 1.778 . S
C947 C147 1.783 . S
C956 C161 1.773 . S
C958 C119 1.776 . S
C967 C175 1.773 . S
C969 C217 1.779 . S
C978 C189 1.785 . S
C980 C231 1.779 . S
C989 C203 1.778 . S
C991 C245 1.783 . S
C1000 C301 1.773 . S
C1002 C259 1.776 . S
C1011 C315 1.774 . S
C1013 C273 1.779 . S
C1022 C287 1.777 . S
C1024 C329 1.774 . S
C1033 C385 1.781 . S
C1035 C343 1.783 . S
C1044 C399 1.784 . S
C1046 C357 1.782 . S
C1055 C371 1.780 . S
C1057 C413 1.775 . S
C1066 C427 1.785 . S
C1068 C469 1.780 . S
C1077 C483 1.784 . S
C1079 C441 1.779 . S
C1088 C455 1.781 . S
C1090 C497 1.783 . S
C1099 C6 1.712 . S
C1101 C258 1.707 . S
C1110 C20 1.712 . S
C1112 C272 1.707 . S
C1121 C34 1.707 . S
C1123 C286 1.712 . S
C1132 C468 1.711 . S
C1134 C48 1.708 . S
C1143 C482 1.708 . S
C1145 C62 1.711 . S
C1154 C76 1.705 . S
C1156 C496 1.713 . S
C1165 C90 1.713 . S
C1167 C342 1.706 . S
C1176 C356 1.707 . S
C1178 C104 1.711 . S
C1187 C370 1.705 . S
C1189 C118 1.713 . S
C1198 C216 1.710 . S
C1200 C132 1.708 . S
C1209 C230 1.714 . S
C1211 C146 1.706 . S
C1220 C244 1.705 . S
C1222 C160 1.713 . S
C1231 C426 1.709 . S
C1233 C174 1.709 . S
C1242 C188 1.708 . S
C1244 C440 1.711 . S
C1253 C202 1.705 . S
C1255 C454 1.713 . S
C1264 C300 1.705 . S
C1266 C384 1.712 . S
C1275 C314 1.706 . S
C1277 C398 1.712 . S
C1286 C412 1.707 . S
C1288 C328 1.712 . S
