# Generated by pormake.
# Topology whz, (6)-cn, num edge types: 1
# Building blocks:
#     Node 0, Type 0, BuildingBlock: JUFBIX_clean_sbu_0, # of connection points: 6
#     Node 1, Type 0, BuildingBlock: JUFBIX_clean_sbu_0, # of connection points: 6
#     Node 2, Type 0, BuildingBlock: JUFBIX_clean_sbu_0, # of connection points: 6
#     Node 3, Type 0, BuildingBlock: JUFBIX_clean_sbu_0, # of connection points: 6
#     Node 4, Type 0, BuildingBlock: JUFBIX_clean_sbu_0, # of connection points: 6
#     Node 5, Type 0, BuildingBlock: JUFBIX_clean_sbu_0, # of connection points: 6
#     Node 6, Type 0, BuildingBlock: JUFBIX_clean_sbu_0, # of connection points: 6
#     Node 7, Type 0, BuildingBlock: JUFBIX_clean_sbu_0, # of connection points: 6
#     Node 8, Type 0, BuildingBlock: JUFBIX_clean_sbu_0, # of connection points: 6
#     Node 9, Type 0, BuildingBlock: JUFBIX_clean_sbu_0, # of connection points: 6
#     Node 10, Type 0, BuildingBlock: JUFBIX_clean_sbu_0, # of connection points: 6
#     Node 11, Type 0, BuildingBlock: JUFBIX_clean_sbu_0, # of connection points: 6
#     Node 12, Type 0, BuildingBlock: JUFBIX_clean_sbu_0, # of connection points: 6
#     Node 13, Type 0, BuildingBlock: JUFBIX_clean_sbu_0, # of connection points: 6
#     Node 14, Type 0, BuildingBlock: JUFBIX_clean_sbu_0, # of connection points: 6
#     Node 15, Type 0, BuildingBlock: JUFBIX_clean_sbu_0, # of connection points: 6
#     Edge 16, Type (0, 0), None
#     Edge 17, Type (0, 0), None
#     Edge 18, Type (0, 0), None
#     Edge 19, Type (0, 0), None
#     Edge 20, Type (0, 0), None
#     Edge 21, Type (0, 0), None
#     Edge 22, Type (0, 0), None
#     Edge 23, Type (0, 0), None
#     Edge 24, Type (0, 0), None
#     Edge 25, Type (0, 0), None
#     Edge 26, Type (0, 0), None
#     Edge 27, Type (0, 0), None
#     Edge 28, Type (0, 0), None
#     Edge 29, Type (0, 0), None
#     Edge 30, Type (0, 0), None
#     Edge 31, Type (0, 0), None
#     Edge 32, Type (0, 0), None
#     Edge 33, Type (0, 0), None
#     Edge 34, Type (0, 0), None
#     Edge 35, Type (0, 0), None
#     Edge 36, Type (0, 0), None
#     Edge 37, Type (0, 0), None
#     Edge 38, Type (0, 0), None
#     Edge 39, Type (0, 0), None
#     Edge 40, Type (0, 0), None
#     Edge 41, Type (0, 0), None
#     Edge 42, Type (0, 0), None
#     Edge 43, Type (0, 0), None
#     Edge 44, Type (0, 0), None
#     Edge 45, Type (0, 0), None
#     Edge 46, Type (0, 0), None
#     Edge 47, Type (0, 0), None
#     Edge 48, Type (0, 0), None
#     Edge 49, Type (0, 0), None
#     Edge 50, Type (0, 0), None
#     Edge 51, Type (0, 0), None
#     Edge 52, Type (0, 0), None
#     Edge 53, Type (0, 0), None
#     Edge 54, Type (0, 0), None
#     Edge 55, Type (0, 0), None
#     Edge 56, Type (0, 0), None
#     Edge 57, Type (0, 0), None
#     Edge 58, Type (0, 0), None
#     Edge 59, Type (0, 0), None
#     Edge 60, Type (0, 0), None
#     Edge 61, Type (0, 0), None
#     Edge 62, Type (0, 0), None
#     Edge 63, Type (0, 0), None
# Relax obj value: 0.417
# Max RMSD: 0.281
# Mean RMSD: 0.281
data_MOF--net-whz--node1-JUFBIX_clean_sbu_0--edge1-none
_symmetry_space_group_name_H-M    P1
_symmetry_Int_Tables_number       1
_symmetry_cell_setting            triclinic
loop_
_symmetry_equiv_pos_as_xyz
'x, y, z'
_cell_length_a     21.148641
_cell_length_b     21.149892
_cell_length_c     18.634641
_cell_angle_alpha  89.996526
_cell_angle_beta   90.000782
_cell_angle_gamma 89.997898
loop_
_atom_site_label
_atom_site_type_symbol
_atom_site_fract_x
_atom_site_fract_y
_atom_site_fract_z
_atom_type_partial_charge
Co0 Co 0.244 0.1647 0.16817 0.0
C1 C 0.33643 0.08804 0.2189 0.0
Co2 Co 0.33556 0.19107 0.11903 0.0
C3 C 0.11068 0.14349 0.1768 0.0
C4 C 0.15983 0.11618 0.27229 0.0
N5 N 0.16776 0.14436 0.20764 0.0
N6 N 0.06878 0.11187 0.21756 0.0
C7 C 0.09924 0.09412 0.2774 0.0
H8 H 0.10237 0.15798 0.1218 0.0
H9 H 0.197 0.10775 0.31101 0.0
C10 C 0.24103 0.26521 0.07326 0.0
N11 N 0.42064 0.21422 0.08956 0.0
C12 C 0.45188 0.27091 0.09155 0.0
C13 C 0.46712 0.17208 0.07531 0.0
N14 N 0.51536 0.26494 0.07978 0.0
C15 C 0.52485 0.20273 0.06961 0.0
C16 C 0.26721 0.11103 0.03547 0.0
O17 O 0.21042 0.23471 0.12074 0.0
O18 O 0.29842 0.25141 0.05925 0.0
O19 O 0.32416 0.13137 0.04134 0.0
O20 O 0.22855 0.11689 0.08706 0.0
O21 O 0.37084 0.127 0.18378 0.0
H22 H 0.46005 0.12148 0.07248 0.0
H23 H 0.42907 0.31518 0.10495 0.0
O24 O 0.27754 0.09421 0.21526 0.0
O25 O 0.25563 0.21526 0.24653 0.0
O26 O 0.33872 0.25457 0.19233 0.0
C27 C 0.29446 0.25959 0.2384 0.0
H28 H 0.07997 0.0646 0.31958 0.0
H29 H 0.57025 0.18077 0.0598 0.0
Co30 Co 0.66345 0.49402 0.41818 0.0
C31 C 0.7401 0.58645 0.46891 0.0
Co32 Co 0.63707 0.58559 0.36904 0.0
C33 C 0.68463 0.3607 0.42681 0.0
C34 C 0.71197 0.40983 0.52228 0.0
N35 N 0.68379 0.41778 0.45763 0.0
N36 N 0.71623 0.31879 0.46757 0.0
C37 C 0.734 0.34923 0.5274 0.0
H38 H 0.67013 0.35239 0.3718 0.0
H39 H 0.72041 0.44699 0.561 0.0
C40 C 0.56293 0.49107 0.32326 0.0
N41 N 0.61392 0.67067 0.33958 0.0
C42 C 0.55723 0.70192 0.34156 0.0
C43 C 0.65608 0.71714 0.32533 0.0
N44 N 0.56322 0.76541 0.32979 0.0
C45 C 0.62544 0.77487 0.31964 0.0
C46 C 0.71713 0.51724 0.28548 0.0
O47 O 0.59344 0.46045 0.37073 0.0
O48 O 0.57673 0.54846 0.30925 0.0
O49 O 0.69678 0.57418 0.29135 0.0
O50 O 0.71127 0.47859 0.33707 0.0
O51 O 0.70114 0.62085 0.43379 0.0
H52 H 0.70667 0.71005 0.32251 0.0
H53 H 0.51296 0.67913 0.35494 0.0
O54 O 0.73394 0.52756 0.46528 0.0
O55 O 0.61288 0.50564 0.49653 0.0
O56 O 0.57355 0.58873 0.44234 0.0
C57 C 0.56853 0.54446 0.4884 0.0
H58 H 0.76352 0.32995 0.56958 0.0
H59 H 0.64741 0.82027 0.30983 0.0
Co60 Co 0.33412 0.91341 0.66818 0.0
C61 C 0.2417 0.99008 0.7189 0.0
Co62 Co 0.24256 0.88706 0.61904 0.0
C63 C 0.46745 0.93462 0.6768 0.0
C64 C 0.4183 0.96193 0.77229 0.0
N65 N 0.41036 0.93375 0.70764 0.0
N66 N 0.50934 0.96624 0.71756 0.0
C67 C 0.47889 0.98399 0.7774 0.0
H68 H 0.47576 0.92014 0.6218 0.0
H69 H 0.38113 0.97035 0.81101 0.0
C70 C 0.33708 0.81291 0.57327 0.0
N71 N 0.15748 0.86391 0.58957 0.0
C72 C 0.12624 0.80721 0.59155 0.0
C73 C 0.111 0.90606 0.57532 0.0
N74 N 0.06276 0.81319 0.57978 0.0
C75 C 0.05327 0.87541 0.56962 0.0
C76 C 0.31092 0.96709 0.53547 0.0
O77 O 0.3677 0.8434 0.62075 0.0
O78 O 0.27969 0.82672 0.55926 0.0
O79 O 0.25396 0.94676 0.54135 0.0
O80 O 0.34957 0.96122 0.58706 0.0
O81 O 0.20729 0.95112 0.68379 0.0
H82 H 0.11807 0.95665 0.5725 0.0
H83 H 0.14905 0.76295 0.60495 0.0
O84 O 0.30058 0.98391 0.71526 0.0
O85 O 0.32249 0.86286 0.74653 0.0
O86 O 0.2394 0.82355 0.69234 0.0
C87 C 0.28366 0.81852 0.73841 0.0
H88 H 0.49816 1.0135 0.81958 0.0
H89 H 1.00786 0.89737 0.55982 0.0
Co90 Co 0.91468 0.58409 0.91818 0.0
C91 C 0.83803 0.49167 0.96891 0.0
Co92 Co 0.94106 0.49253 0.86904 0.0
C93 C 0.89351 0.71741 0.92681 0.0
C94 C 0.86617 0.66826 0.02228 0.0
N95 N 0.89434 0.66032 0.95763 0.0
N96 N 0.86191 0.75932 0.96758 0.0
C97 C 0.84414 0.72887 0.02741 0.0
H98 H 0.908 0.72573 0.87181 0.0
H99 H 0.85773 0.6311 0.061 0.0
C100 C 1.0152 0.58705 0.82326 0.0
N101 N 0.96421 0.40745 0.83959 0.0
C102 C 1.0209 0.37619 0.84156 0.0
C103 C 0.92205 0.36098 0.82535 0.0
N104 N 1.01491 0.31271 0.8298 0.0
C105 C 0.95268 0.30325 0.81965 0.0
C106 C 0.861 0.56088 0.78548 0.0
O107 O 0.9847 0.61766 0.87074 0.0
O108 O 1.0014 0.52966 0.80925 0.0
O109 O 0.88135 0.50393 0.79135 0.0
O110 O 0.86687 0.59953 0.83707 0.0
O111 O 0.877 0.45727 0.9338 0.0
H112 H 0.87145 0.36807 0.82254 0.0
H113 H 0.06517 0.39899 0.85494 0.0
O114 O 0.84418 0.55055 0.96527 0.0
O115 O 0.96524 0.57246 0.99653 0.0
O116 O 1.00458 0.48938 0.94234 0.0
C117 C 1.0096 0.53365 0.9884 0.0
H118 H 0.81463 0.74814 0.06959 0.0
H119 H 0.93071 0.25785 0.80986 0.0
Co120 Co 0.7426 0.88701 0.89601 0.0
C121 C 0.83718 0.81294 0.94183 0.0
Co122 Co 0.83417 0.91341 0.84687 0.0
C123 C 0.62626 0.80717 0.92349 0.0
C124 C 0.61105 0.90601 0.93977 0.0
N125 N 0.65752 0.86385 0.92549 0.0
N126 N 0.56278 0.81316 0.93526 0.0
C127 C 0.55332 0.87538 0.94546 0.0
H128 H 0.64905 0.7629 0.91006 0.0
H129 H 0.61814 0.9566 0.94261 0.0
C130 C 0.7417 0.99003 0.79612 0.0
N131 N 0.9104 0.93378 0.8074 0.0
C132 C 0.96748 0.93463 0.83823 0.0
C133 C 0.91833 0.96195 0.74275 0.0
N134 N 1.00938 0.96624 0.79747 0.0
C135 C 0.97893 0.984 0.73764 0.0
C136 C 0.78373 0.81847 0.77668 0.0
O137 O 0.70731 0.95108 0.83126 0.0
O138 O 0.80059 0.98387 0.79974 0.0
O139 O 0.82257 0.86281 0.76855 0.0
O140 O 0.73945 0.8235 0.82272 0.0
O141 O 0.86779 0.84345 0.89436 0.0
H142 H 0.88116 0.97038 0.70403 0.0
H143 H 0.9758 0.92014 0.89324 0.0
O144 O 0.77976 0.82667 0.9558 0.0
O145 O 0.754 0.94672 0.9737 0.0
O146 O 0.84958 0.96127 0.92796 0.0
C147 C 0.81094 0.96711 0.97956 0.0
H148 H 0.50792 0.89735 0.95528 0.0
H149 H 0.99819 1.01352 0.69545 0.0
Co150 Co 0.44108 0.49254 0.646 0.0
C151 C 0.51523 0.58704 0.69178 0.0
Co152 Co 0.41473 0.58409 0.59685 0.0
C153 C 0.52091 0.37619 0.6735 0.0
C154 C 0.42205 0.36099 0.68971 0.0
N155 N 0.46422 0.40745 0.67547 0.0
N156 N 0.51491 0.31271 0.68526 0.0
C157 C 0.45269 0.30325 0.69541 0.0
H158 H 0.56518 0.39898 0.66011 0.0
H159 H 0.37146 0.36808 0.69253 0.0
C160 C 0.33805 0.49169 0.54612 0.0
N161 N 0.39439 0.66033 0.5574 0.0
C162 C 0.39345 0.71738 0.5883 0.0
C163 C 0.36624 0.66829 0.49273 0.0
N164 N 0.36174 0.75924 0.54758 0.0
C165 C 0.3441 0.72886 0.48766 0.0
C166 C 0.50963 0.53364 0.52664 0.0
O167 O 0.37701 0.45728 0.58125 0.0
O168 O 0.34422 0.55057 0.54974 0.0
O169 O 0.46529 0.57247 0.5185 0.0
O170 O 0.5046 0.48938 0.5727 0.0
O171 O 0.48473 0.61766 0.6443 0.0
H172 H 0.35789 0.63115 0.45397 0.0
H173 H 0.40791 0.72567 0.64331 0.0
O174 O 0.50143 0.52966 0.70579 0.0
O175 O 0.38137 0.50395 0.7237 0.0
O176 O 0.3669 0.59954 0.67796 0.0
C177 C 0.36103 0.5609 0.72955 0.0
H178 H 0.43071 0.25785 0.70521 0.0
H179 H 0.31462 0.74815 0.44546 0.0
Co180 Co 0.83553 0.19109 0.39601 0.0
C181 C 0.74096 0.26517 0.44182 0.0
Co182 Co 0.74397 0.1647 0.34687 0.0
C183 C 0.95188 0.27093 0.42348 0.0
C184 C 0.96708 0.17209 0.43976 0.0
N185 N 0.92061 0.21425 0.42548 0.0
N186 N 1.01536 0.26493 0.43526 0.0
C187 C 1.02482 0.20271 0.44545 0.0
H188 H 0.92909 0.3152 0.41007 0.0
H189 H 0.95999 0.1215 0.4426 0.0
C190 C 0.83643 0.08808 0.29612 0.0
N191 N 0.66774 0.14434 0.3074 0.0
C192 C 0.61065 0.14348 0.33823 0.0
C193 C 0.6598 0.11617 0.24275 0.0
N194 N 0.56875 0.11187 0.29747 0.0
C195 C 0.5992 0.09412 0.23764 0.0
C196 C 0.7944 0.25964 0.27667 0.0
O197 O 0.87082 0.12703 0.33126 0.0
O198 O 0.77754 0.09424 0.29974 0.0
O199 O 0.75557 0.2153 0.26855 0.0
O200 O 0.83868 0.2546 0.32271 0.0
O201 O 0.71035 0.23467 0.39435 0.0
H202 H 0.69696 0.10775 0.20403 0.0
H203 H 0.60234 0.15797 0.39324 0.0
O204 O 0.79838 0.25143 0.45579 0.0
O205 O 0.82413 0.13138 0.4737 0.0
O206 O 0.72855 0.11684 0.42796 0.0
C207 C 0.76719 0.111 0.47956 0.0
H208 H 0.07022 0.18074 0.45527 0.0
H209 H 0.57993 0.06461 0.19545 0.0
Co210 Co 0.13704 0.58557 0.146 0.0
C211 C 0.06289 0.49107 0.19177 0.0
Co212 Co 0.1634 0.49402 0.09685 0.0
C213 C 0.05722 0.70192 0.1735 0.0
C214 C 0.15608 0.71712 0.18969 0.0
N215 N 0.11391 0.67066 0.17546 0.0
N216 N 0.06322 0.7654 0.18525 0.0
C217 C 0.12545 0.77486 0.19539 0.0
H218 H 1.01294 0.67913 0.16012 0.0
H219 H 0.20667 0.71003 0.1925 0.0
C220 C 0.24008 0.58643 0.04612 0.0
N221 N 0.18373 0.41779 0.0574 0.0
C222 C 0.18467 0.36073 0.08829 0.0
C223 C 0.21187 0.40984 0.99273 0.0
N224 N 0.21637 0.31888 0.04757 0.0
C225 C 0.23401 0.34927 0.98766 0.0
C226 C 0.0685 0.54448 0.02664 0.0
O227 O 0.20112 0.62083 0.08124 0.0
O228 O 0.23391 0.52755 0.04975 0.0
O229 O 0.11285 0.50566 0.0185 0.0
O230 O 0.07352 0.58874 0.0727 0.0
O231 O 0.09339 0.46046 0.14429 0.0
H232 H 0.22023 0.44699 0.95397 0.0
H233 H 0.17021 0.35244 0.14331 0.0
O234 O 0.0767 0.54845 0.20579 0.0
O235 O 0.19676 0.57415 0.22369 0.0
O236 O 0.21122 0.47856 0.17796 0.0
C237 C 0.2171 0.5172 0.22955 0.0
H238 H 0.14742 0.82025 0.20519 0.0
H239 H 0.26349 0.32999 0.94545 0.0
Co240 Co 0.74405 0.6647 0.66819 0.0
C241 C 0.83646 0.58803 0.71889 0.0
Co242 Co 0.83563 0.69105 0.61904 0.0
C243 C 0.61076 0.64341 0.67673 0.0
C244 C 0.65986 0.61623 0.77231 0.0
N245 N 0.66781 0.64437 0.70763 0.0
N246 N 0.5689 0.61171 0.71745 0.0
C247 C 0.59929 0.59408 0.77738 0.0
H248 H 0.60246 0.65787 0.62171 0.0
H249 H 0.69701 0.60789 0.81108 0.0
C250 C 0.74111 0.7652 0.57326 0.0
N251 N 0.92071 0.7142 0.58957 0.0
C252 C 0.95195 0.77089 0.59156 0.0
C253 C 0.96719 0.67205 0.57532 0.0
N254 N 1.01543 0.76491 0.5798 0.0
C255 C 1.02491 0.70269 0.56962 0.0
C256 C 0.76727 0.611 0.5355 0.0
O257 O 0.71049 0.73471 0.62074 0.0
O258 O 0.7985 0.7514 0.55925 0.0
O259 O 0.82421 0.63135 0.54135 0.0
O260 O 0.72862 0.61688 0.58708 0.0
O261 O 0.87089 0.62697 0.68379 0.0
H262 H 0.96011 0.62146 0.57249 0.0
H263 H 0.92914 0.81515 0.60495 0.0
O264 O 0.77757 0.5942 0.7153 0.0
O265 O 0.75568 0.71526 0.74653 0.0
O266 O 0.83879 0.75456 0.69234 0.0
C267 C 0.79453 0.75958 0.73841 0.0
H268 H 0.58001 0.5646 0.81959 0.0
H269 H 0.07032 0.68074 0.55981 0.0
Co270 Co 0.16347 0.994 0.91818 0.0
C271 C 0.24007 0.08645 0.96889 0.0
Co272 Co 0.13705 0.08557 0.86902 0.0
C273 C 0.18469 0.86068 0.92681 0.0
C274 C 0.21202 0.90982 0.02229 0.0
N275 N 0.18384 0.91776 0.95764 0.0
N276 N 0.21631 0.81878 0.96757 0.0
C277 C 0.23407 0.84922 0.0274 0.0
H278 H 0.17019 0.85238 0.87181 0.0
H279 H 0.22045 0.94698 0.06101 0.0
C280 C 0.06299 0.99099 0.82322 0.0
N281 N 0.11388 0.17064 0.83954 0.0
C282 C 0.05719 0.2019 0.84158 0.0
C283 C 0.15603 0.2171 0.82523 0.0
N284 N 0.06318 0.26538 0.82979 0.0
C285 C 0.12539 0.27483 0.81955 0.0
C286 C 0.21716 1.01724 0.78549 0.0
O287 O 0.09351 0.96038 0.87069 0.0
O288 O 0.07671 0.04841 0.80925 0.0
O289 O 0.19676 0.07417 0.79133 0.0
O290 O 0.21134 0.9786 0.8371 0.0
O291 O 0.20112 0.12087 0.93376 0.0
H292 H 0.20662 0.21001 0.82235 0.0
H293 H 1.01293 0.17911 0.85502 0.0
O294 O 0.23392 1.02757 0.96532 0.0
O295 O 0.11286 1.00559 0.9965 0.0
O296 O 0.07356 0.08871 0.94233 0.0
C297 C 0.06852 0.04444 0.98838 0.0
H298 H 0.26359 0.82995 0.06958 0.0
H299 H 0.14735 0.32023 0.80969 0.0
Co300 Co 0.83407 0.41342 0.16819 0.0
C301 C 0.74167 0.49009 0.21889 0.0
Co302 Co 0.74249 0.38707 0.11904 0.0
C303 C 0.96737 0.43471 0.17673 0.0
C304 C 0.91827 0.46187 0.27231 0.0
N305 N 0.91031 0.43374 0.20764 0.0
N306 N 1.00922 0.4664 0.21745 0.0
C307 C 0.97884 0.48402 0.27738 0.0
H308 H 0.97566 0.42025 0.12171 0.0
H309 H 0.88112 0.47021 0.31108 0.0
C310 C 0.83701 0.31292 0.07327 0.0
N311 N 0.65741 0.36393 0.08958 0.0
C312 C 0.62617 0.30724 0.09156 0.0
C313 C 0.61093 0.40609 0.07533 0.0
N314 N 0.56268 0.31322 0.07981 0.0
C315 C 0.5532 0.37544 0.06963 0.0
C316 C 0.81086 0.46712 0.03549 0.0
O317 O 0.86763 0.34341 0.12075 0.0
O318 O 0.77962 0.32673 0.05926 0.0
O319 O 0.75391 0.44678 0.04135 0.0
O320 O 0.84951 0.46124 0.08708 0.0
O321 O 0.70723 0.45115 0.18379 0.0
H322 H 0.61801 0.45668 0.0725 0.0
H323 H 0.64898 0.26298 0.10495 0.0
O324 O 0.80055 0.48392 0.21529 0.0
O325 O 0.82244 0.36286 0.24654 0.0
O326 O 0.73933 0.32357 0.19235 0.0
C327 C 0.7836 0.31853 0.23842 0.0
H328 H 0.99812 0.5135 0.31958 0.0
H329 H 0.5078 0.3974 0.05982 0.0
Co330 Co 0.41466 0.08411 0.41818 0.0
C331 C 0.33806 0.99166 0.46888 0.0
Co332 Co 0.44108 0.99255 0.36903 0.0
C333 C 0.39344 0.21743 0.42681 0.0
C334 C 0.36612 0.16828 0.52229 0.0
N335 N 0.39429 0.16034 0.45764 0.0
N336 N 0.36184 0.25933 0.46758 0.0
C337 C 0.34407 0.22888 0.52741 0.0
H338 H 0.40794 0.22574 0.37181 0.0
H339 H 0.35769 0.13111 0.56101 0.0
C340 C 0.51514 0.08713 0.32323 0.0
N341 N 0.46425 0.90748 0.33955 0.0
C342 C 0.52093 0.87622 0.34158 0.0
C343 C 0.42209 0.86102 0.32525 0.0
N344 N 0.51495 0.81274 0.3298 0.0
C345 C 0.45273 0.80328 0.31957 0.0
C346 C 0.36097 0.06088 0.28549 0.0
O347 O 0.48463 0.11773 0.3707 0.0
O348 O 0.50141 1.02971 0.30925 0.0
O349 O 0.38137 1.00395 0.29134 0.0
O350 O 0.3668 0.09953 0.33709 0.0
O351 O 0.37701 0.95725 0.43377 0.0
H352 H 0.3715 0.86811 0.32238 0.0
H353 H 0.5652 0.89901 0.35501 0.0
O354 O 0.3442 0.05055 0.46531 0.0
O355 O 0.46527 0.07251 0.4965 0.0
O356 O 0.50458 0.9894 0.44233 0.0
C357 C 0.5096 1.03367 0.48838 0.0
H358 H 0.31456 0.24814 0.56959 0.0
H359 H 0.43077 0.75789 0.30972 0.0
Co360 Co 0.24254 0.38703 0.39601 0.0
C361 C 0.3371 0.31295 0.44183 0.0
Co362 Co 0.33411 0.41342 0.34685 0.0
C363 C 0.12619 0.3072 0.42348 0.0
C364 C 0.11099 0.40604 0.43976 0.0
N365 N 0.15745 0.36387 0.42548 0.0
N366 N 0.0627 0.31319 0.43524 0.0
C367 C 0.05325 0.37541 0.44545 0.0
H368 H 0.14898 0.26293 0.41006 0.0
H369 H 0.11808 0.45663 0.44261 0.0
C370 C 0.24167 0.49004 0.29613 0.0
N371 N 0.41035 0.43376 0.30741 0.0
C372 C 0.4674 0.43472 0.3383 0.0
C373 C 0.4183 0.4619 0.24273 0.0
N374 N 0.50926 0.46641 0.29758 0.0
C375 C 0.47887 0.48404 0.23766 0.0
C376 C 0.28367 0.31848 0.27667 0.0
O377 O 0.20725 0.4511 0.33126 0.0
O378 O 0.30056 0.48388 0.2997 0.0
O379 O 0.32251 0.36281 0.26854 0.0
O380 O 0.23939 0.32352 0.32271 0.0
O381 O 0.36771 0.34345 0.39436 0.0
H382 H 0.38115 0.47024 0.20396 0.0
H383 H 0.4757 0.42026 0.39332 0.0
O384 O 0.27969 0.32669 0.45579 0.0
O385 O 0.25395 0.44674 0.4737 0.0
O386 O 0.34952 0.46129 0.42793 0.0
C387 C 0.31088 0.46713 0.47953 0.0
H388 H 1.00785 0.39738 0.45528 0.0
H389 H 0.49816 0.51351 0.19545 0.0
Co390 Co 0.9411 0.99255 0.14602 0.0
C391 C 1.01517 0.08713 0.19181 0.0
Co392 Co 0.9147 0.08412 0.09685 0.0
C393 C 1.02094 0.87622 0.17348 0.0
C394 C 0.9221 0.86102 0.18982 0.0
N395 N 0.96426 0.90748 0.17551 0.0
N396 N 1.01495 0.81274 0.18526 0.0
C397 C 0.95274 0.80329 0.1955 0.0
H398 H 0.06521 0.899 0.16003 0.0
H399 H 0.87151 0.86812 0.19269 0.0
C400 C 0.83808 0.99168 0.04614 0.0
N401 N 0.89434 0.16035 0.05739 0.0
C402 C 0.89338 0.2174 0.08829 0.0
C403 C 0.86619 0.16831 0.99272 0.0
N404 N 0.86167 0.25925 0.04758 0.0
C405 C 0.84403 0.22887 0.98766 0.0
C406 C 1.00964 1.03367 0.02666 0.0
O407 O 0.87702 0.95726 0.08128 0.0
O408 O 0.84424 0.05056 0.0497 0.0
O409 O 0.96531 0.07252 0.01854 0.0
O410 O 1.0046 0.98939 0.07271 0.0
O411 O 0.98466 0.11773 0.14434 0.0
H412 H 0.85785 0.13116 0.95396 0.0
H413 H 0.90785 0.22569 0.14331 0.0
O414 O 1.00144 1.02971 0.20579 0.0
O415 O 0.88139 1.00397 0.22372 0.0
O416 O 0.86683 0.09954 0.17793 0.0
C417 C 0.86099 0.0609 0.22954 0.0
H418 H 0.93077 0.7579 0.20535 0.0
H419 H 0.81454 0.24815 0.94546 0.0
Co420 Co 0.3356 0.69107 0.896 0.0
C421 C 0.24104 0.76516 0.94182 0.0
Co422 Co 0.24402 0.66469 0.84685 0.0
C423 C 0.45195 0.7709 0.92347 0.0
C424 C 0.46715 0.67206 0.93975 0.0
N425 N 0.42068 0.71422 0.92547 0.0
N426 N 0.51543 0.7649 0.93524 0.0
C427 C 0.52489 0.70268 0.94544 0.0
H428 H 0.42916 0.81517 0.91007 0.0
H429 H 0.46006 0.62147 0.94259 0.0
C430 C 0.33646 0.58806 0.79613 0.0
N431 N 0.16778 0.64435 0.8074 0.0
C432 C 0.11073 0.6434 0.8383 0.0
C433 C 0.15983 0.61622 0.74273 0.0
N434 N 0.06887 0.61171 0.79758 0.0
C435 C 0.09926 0.59408 0.73766 0.0
C436 C 0.29446 0.75963 0.77666 0.0
O437 O 0.37088 0.627 0.83125 0.0
O438 O 0.27757 0.59423 0.7997 0.0
O439 O 0.25562 0.7153 0.76854 0.0
O440 O 0.33875 0.75459 0.8227 0.0
O441 O 0.21043 0.73466 0.89435 0.0
H442 H 0.19697 0.60789 0.70396 0.0
H443 H 0.10243 0.65785 0.89332 0.0
O444 O 0.29845 0.75142 0.95579 0.0
O445 O 0.32419 0.63136 0.9737 0.0
O446 O 0.22861 0.61683 0.92793 0.0
C447 C 0.26725 0.61097 0.97953 0.0
H448 H 0.57028 0.68071 0.95527 0.0
H449 H 0.07997 0.56461 0.69545 0.0
Co450 Co 0.63703 0.08556 0.64601 0.0
C451 C 0.56295 0.99098 0.69181 0.0
Co452 Co 0.66342 0.99399 0.59685 0.0
C453 C 0.55719 0.20189 0.67348 0.0
C454 C 0.65603 0.21709 0.68979 0.0
N455 N 0.61387 0.17063 0.6755 0.0
N456 N 0.56318 0.26537 0.68525 0.0
C457 C 0.6254 0.27482 0.69548 0.0
H458 H 0.51292 0.17911 0.66004 0.0
H459 H 0.70662 0.20999 0.69266 0.0
C460 C 0.74005 0.08643 0.54614 0.0
N461 N 0.68378 0.91777 0.55739 0.0
C462 C 0.68474 0.86072 0.58829 0.0
C463 C 0.71193 0.90982 0.49272 0.0
N464 N 0.71644 0.81887 0.54758 0.0
C465 C 0.73408 0.84926 0.48766 0.0
C466 C 0.56849 0.04445 0.52665 0.0
O467 O 0.7011 0.12085 0.58127 0.0
O468 O 0.73389 1.02755 0.54971 0.0
O469 O 0.61282 1.00561 0.51853 0.0
O470 O 0.57352 0.08872 0.57271 0.0
O471 O 0.59346 0.96039 0.64433 0.0
H472 H 0.72027 0.94697 0.45396 0.0
H473 H 0.67027 0.85242 0.64331 0.0
O474 O 0.57669 0.0484 0.70579 0.0
O475 O 0.69674 0.07413 0.72371 0.0
O476 O 0.71129 0.97857 0.67794 0.0
C477 C 0.71713 1.0172 0.72954 0.0
H478 H 0.64736 0.32021 0.70533 0.0
H479 H 0.76356 0.82998 0.44545 0.0
loop_
_geom_bond_atom_site_label_1
_geom_bond_atom_site_label_2
_geom_bond_distance
_geom_bond_site_symmetry_2
_ccdc_geom_bond_type
Co0 N5 2.057 . S
Co0 O17 2.021 . S
Co0 O20 2.062 . S
Co0 O24 2.117 . S
Co0 O25 2.020 . S
C1 O21 1.259 . S
C1 O24 1.258 . S
Co2 N11 2.057 . S
Co2 O18 2.117 . S
Co2 O19 2.020 . S
Co2 O21 2.021 . S
Co2 O26 2.062 . S
C3 N5 1.316 . S
C3 N6 1.347 . S
C3 H8 0.931 . S
C4 N5 1.375 . S
C4 C7 1.350 . S
C4 H9 0.930 . S
N5 Co0 2.057 . S
N5 C3 1.316 . S
N5 C4 1.375 . S
N6 C3 1.347 . S
N6 C7 1.373 . S
C7 C4 1.350 . S
C7 N6 1.373 . S
C7 H28 0.931 1_545 S
H8 C3 0.931 . S
H9 C4 0.930 . S
C10 O17 1.259 . S
C10 O18 1.258 . S
N11 Co2 2.057 . S
N11 C12 1.316 . S
N11 C13 1.375 . S
C12 N11 1.316 . S
C12 N14 1.347 . S
C12 H23 0.931 . S
C13 N11 1.375 . S
C13 C15 1.350 . S
C13 H22 0.930 . S
N14 C12 1.347 . S
N14 C15 1.373 . S
C15 C13 1.350 . S
C15 N14 1.373 . S
C15 H29 0.931 . S
C16 O19 1.256 . S
C16 O20 1.255 . S
O17 Co0 2.021 . S
O17 C10 1.259 . S
O18 Co2 2.117 . S
O18 C10 1.258 . S
O19 Co2 2.020 . S
O19 C16 1.256 . S
O20 Co0 2.062 . S
O20 C16 1.255 . S
O21 C1 1.259 . S
O21 Co2 2.021 . S
H22 C13 0.930 . S
H23 C12 0.931 . S
O24 Co0 2.117 . S
O24 C1 1.258 . S
O25 Co0 2.020 . S
O25 C27 1.256 . S
O26 Co2 2.062 . S
O26 C27 1.255 . S
C27 O25 1.256 . S
C27 O26 1.255 . S
H28 C7 0.931 1_565 S
H29 C15 0.931 . S
Co30 N35 2.057 . S
Co30 O47 2.021 . S
Co30 O50 2.062 . S
Co30 O54 2.117 . S
Co30 O55 2.020 . S
C31 O51 1.259 . S
C31 O54 1.258 . S
Co32 N41 2.057 . S
Co32 O48 2.117 . S
Co32 O49 2.020 . S
Co32 O51 2.021 . S
Co32 O56 2.062 . S
C33 N35 1.316 . S
C33 N36 1.347 . S
C33 H38 0.931 . S
C34 N35 1.375 . S
C34 C37 1.350 . S
C34 H39 0.930 . S
N35 Co30 2.057 . S
N35 C33 1.316 . S
N35 C34 1.375 . S
N36 C33 1.347 . S
N36 C37 1.373 . S
C37 C34 1.350 . S
C37 N36 1.373 . S
C37 H58 0.931 . S
H38 C33 0.931 . S
H39 C34 0.930 . S
C40 O47 1.259 . S
C40 O48 1.258 . S
N41 Co32 2.057 . S
N41 C42 1.316 . S
N41 C43 1.375 . S
C42 N41 1.316 . S
C42 N44 1.347 . S
C42 H53 0.931 . S
C43 N41 1.375 . S
C43 C45 1.350 . S
C43 H52 0.930 . S
N44 C42 1.347 . S
N44 C45 1.373 . S
C45 C43 1.350 . S
C45 N44 1.373 . S
C45 H59 0.931 . S
C46 O49 1.256 . S
C46 O50 1.255 . S
O47 Co30 2.021 . S
O47 C40 1.259 . S
O48 Co32 2.117 . S
O48 C40 1.258 . S
O49 Co32 2.020 . S
O49 C46 1.256 . S
O50 Co30 2.062 . S
O50 C46 1.255 . S
O51 C31 1.259 . S
O51 Co32 2.021 . S
H52 C43 0.930 . S
H53 C42 0.931 . S
O54 Co30 2.117 . S
O54 C31 1.258 . S
O55 Co30 2.020 . S
O55 C57 1.256 . S
O56 Co32 2.062 . S
O56 C57 1.255 . S
C57 O55 1.256 . S
C57 O56 1.255 . S
H58 C37 0.931 . S
H59 C45 0.931 . S
Co60 N65 2.057 . S
Co60 O77 2.021 . S
Co60 O80 2.062 . S
Co60 O84 2.117 . S
Co60 O85 2.020 . S
C61 O81 1.259 . S
C61 O84 1.258 . S
Co62 N71 2.057 . S
Co62 O78 2.117 . S
Co62 O79 2.020 . S
Co62 O81 2.021 . S
Co62 O86 2.062 . S
C63 N65 1.316 . S
C63 N66 1.347 . S
C63 H68 0.931 . S
C64 N65 1.375 . S
C64 C67 1.350 . S
C64 H69 0.930 . S
N65 Co60 2.057 . S
N65 C63 1.316 . S
N65 C64 1.375 . S
N66 C63 1.347 . S
N66 C67 1.373 . S
C67 C64 1.350 . S
C67 N66 1.373 . S
C67 H88 0.931 1_565 S
H68 C63 0.931 . S
H69 C64 0.930 . S
C70 O77 1.259 . S
C70 O78 1.258 . S
N71 Co62 2.057 . S
N71 C72 1.316 . S
N71 C73 1.375 . S
C72 N71 1.316 . S
C72 N74 1.347 . S
C72 H83 0.931 . S
C73 N71 1.375 . S
C73 C75 1.350 . S
C73 H82 0.930 . S
N74 C72 1.347 . S
N74 C75 1.373 . S
C75 C73 1.350 . S
C75 N74 1.373 . S
C75 H89 0.931 . S
C76 O79 1.256 . S
C76 O80 1.255 . S
O77 Co60 2.021 . S
O77 C70 1.259 . S
O78 Co62 2.117 . S
O78 C70 1.258 . S
O79 Co62 2.020 . S
O79 C76 1.256 . S
O80 Co60 2.062 . S
O80 C76 1.255 . S
O81 C61 1.259 . S
O81 Co62 2.021 . S
H82 C73 0.930 . S
H83 C72 0.931 . S
O84 Co60 2.117 . S
O84 C61 1.258 . S
O85 Co60 2.020 . S
O85 C87 1.256 . S
O86 Co62 2.062 . S
O86 C87 1.255 . S
C87 O85 1.256 . S
C87 O86 1.255 . S
H88 C67 0.931 1_545 S
H89 C75 0.931 . S
Co90 N95 2.057 . S
Co90 O107 2.021 . S
Co90 O110 2.062 . S
Co90 O114 2.117 . S
Co90 O115 2.032 . S
C91 O111 1.259 . S
C91 O114 1.258 . S
Co92 N101 2.057 . S
Co92 O108 2.117 . S
Co92 O109 2.020 . S
Co92 O111 2.021 . S
Co92 O116 2.062 . S
C93 N95 1.316 . S
C93 N96 1.347 . S
C93 H98 0.931 . S
C94 N95 1.375 . S
C94 C97 1.350 . S
C94 H99 0.930 1_556 S
N95 Co90 2.057 . S
N95 C93 1.316 . S
N95 C94 1.375 . S
N96 C93 1.347 . S
N96 C97 1.373 . S
C97 C94 1.350 . S
C97 N96 1.373 . S
C97 H118 0.931 1_556 S
H98 C93 0.931 . S
H99 C94 0.930 1_554 S
C100 O107 1.259 . S
C100 O108 1.258 . S
N101 Co92 2.057 . S
N101 C102 1.316 . S
N101 C103 1.375 1_655 S
C102 N101 1.316 . S
C102 N104 1.347 . S
C102 H113 0.931 . S
C103 N101 1.375 1_455 S
C103 C105 1.350 . S
C103 H112 0.930 . S
N104 C102 1.347 . S
N104 C105 1.373 1_655 S
C105 C103 1.350 . S
C105 N104 1.373 1_455 S
C105 H119 0.931 . S
C106 O109 1.256 . S
C106 O110 1.255 . S
O107 Co90 2.021 . S
O107 C100 1.259 . S
O108 Co92 2.117 . S
O108 C100 1.258 . S
O109 Co92 2.020 . S
O109 C106 1.256 . S
O110 Co90 2.062 . S
O110 C106 1.255 . S
O111 C91 1.259 . S
O111 Co92 2.021 . S
H112 C103 0.930 . S
H113 C102 0.931 . S
O114 Co90 2.117 . S
O114 C91 1.258 . S
O115 Co90 2.032 . S
O115 C117 1.253 1_556 S
O116 Co92 2.062 . S
O116 C117 1.255 1_556 S
C117 O115 1.253 1_554 S
C117 O116 1.255 1_554 S
H118 C97 0.931 1_554 S
H119 C105 0.931 . S
Co120 N125 2.057 . S
Co120 O137 2.021 . S
Co120 O140 2.062 . S
Co120 O144 2.117 . S
Co120 O145 2.020 . S
C121 O141 1.259 . S
C121 O144 1.258 . S
Co122 N131 2.057 . S
Co122 O138 2.117 . S
Co122 O139 2.020 . S
Co122 O141 2.021 . S
Co122 O146 2.062 . S
C123 N125 1.316 . S
C123 N126 1.347 . S
C123 H128 0.931 . S
C124 N125 1.375 . S
C124 C127 1.350 . S
C124 H129 0.930 . S
N125 Co120 2.057 . S
N125 C123 1.316 . S
N125 C124 1.375 . S
N126 C123 1.347 . S
N126 C127 1.373 . S
C127 C124 1.350 . S
C127 N126 1.373 . S
C127 H148 0.931 . S
H128 C123 0.931 . S
H129 C124 0.930 . S
C130 O137 1.259 . S
C130 O138 1.258 . S
N131 Co122 2.057 . S
N131 C132 1.316 . S
N131 C133 1.375 . S
C132 N131 1.316 . S
C132 N134 1.347 . S
C132 H143 0.931 . S
C133 N131 1.375 . S
C133 C135 1.350 . S
C133 H142 0.930 . S
N134 C132 1.347 . S
N134 C135 1.373 . S
C135 C133 1.350 . S
C135 N134 1.373 . S
C135 H149 0.931 1_565 S
C136 O139 1.256 . S
C136 O140 1.255 . S
O137 Co120 2.021 . S
O137 C130 1.259 . S
O138 Co122 2.117 . S
O138 C130 1.258 . S
O139 Co122 2.020 . S
O139 C136 1.256 . S
O140 Co120 2.062 . S
O140 C136 1.255 . S
O141 C121 1.259 . S
O141 Co122 2.021 . S
H142 C133 0.930 . S
H143 C132 0.931 . S
O144 Co120 2.117 . S
O144 C121 1.258 . S
O145 Co120 2.020 . S
O145 C147 1.256 . S
O146 Co122 2.062 . S
O146 C147 1.255 . S
C147 O145 1.256 . S
C147 O146 1.255 . S
H148 C127 0.931 . S
H149 C135 0.931 1_545 S
Co150 N155 2.057 . S
Co150 O167 2.021 . S
Co150 O170 2.062 . S
Co150 O174 2.117 . S
Co150 O175 2.020 . S
C151 O171 1.259 . S
C151 O174 1.258 . S
Co152 N161 2.057 . S
Co152 O168 2.117 . S
Co152 O169 2.020 . S
Co152 O171 2.021 . S
Co152 O176 2.062 . S
C153 N155 1.316 . S
C153 N156 1.347 . S
C153 H158 0.931 . S
C154 N155 1.375 . S
C154 C157 1.350 . S
C154 H159 0.930 . S
N155 Co150 2.057 . S
N155 C153 1.316 . S
N155 C154 1.375 . S
N156 C153 1.347 . S
N156 C157 1.373 . S
C157 C154 1.350 . S
C157 N156 1.373 . S
C157 H178 0.931 . S
H158 C153 0.931 . S
H159 C154 0.930 . S
C160 O167 1.259 . S
C160 O168 1.258 . S
N161 Co152 2.057 . S
N161 C162 1.316 . S
N161 C163 1.375 . S
C162 N161 1.316 . S
C162 N164 1.347 . S
C162 H173 0.931 . S
C163 N161 1.375 . S
C163 C165 1.350 . S
C163 H172 0.930 . S
N164 C162 1.347 . S
N164 C165 1.373 . S
C165 C163 1.350 . S
C165 N164 1.373 . S
C165 H179 0.931 . S
C166 O169 1.256 . S
C166 O170 1.255 . S
O167 Co150 2.021 . S
O167 C160 1.259 . S
O168 Co152 2.117 . S
O168 C160 1.258 . S
O169 Co152 2.020 . S
O169 C166 1.256 . S
O170 Co150 2.062 . S
O170 C166 1.255 . S
O171 C151 1.259 . S
O171 Co152 2.021 . S
H172 C163 0.930 . S
H173 C162 0.931 . S
O174 Co150 2.117 . S
O174 C151 1.258 . S
O175 Co150 2.020 . S
O175 C177 1.256 . S
O176 Co152 2.062 . S
O176 C177 1.255 . S
C177 O175 1.256 . S
C177 O176 1.255 . S
H178 C157 0.931 . S
H179 C165 0.931 . S
Co180 N185 2.057 . S
Co180 O197 2.021 . S
Co180 O200 2.062 . S
Co180 O204 2.117 . S
Co180 O205 2.020 . S
C181 O201 1.259 . S
C181 O204 1.258 . S
Co182 N191 2.057 . S
Co182 O198 2.117 . S
Co182 O199 2.020 . S
Co182 O201 2.021 . S
Co182 O206 2.062 . S
C183 N185 1.316 . S
C183 N186 1.347 . S
C183 H188 0.931 . S
C184 N185 1.375 . S
C184 C187 1.350 . S
C184 H189 0.930 . S
N185 Co180 2.057 . S
N185 C183 1.316 . S
N185 C184 1.375 . S
N186 C183 1.347 . S
N186 C187 1.373 . S
C187 C184 1.350 . S
C187 N186 1.373 . S
C187 H208 0.931 . S
H188 C183 0.931 . S
H189 C184 0.930 . S
C190 O197 1.259 . S
C190 O198 1.258 . S
N191 Co182 2.057 . S
N191 C192 1.316 . S
N191 C193 1.375 . S
C192 N191 1.316 . S
C192 N194 1.347 . S
C192 H203 0.931 . S
C193 N191 1.375 . S
C193 C195 1.350 . S
C193 H202 0.930 . S
N194 C192 1.347 . S
N194 C195 1.373 . S
C195 C193 1.350 . S
C195 N194 1.373 . S
C195 H209 0.931 1_545 S
C196 O199 1.256 . S
C196 O200 1.255 . S
O197 Co180 2.021 . S
O197 C190 1.259 . S
O198 Co182 2.117 . S
O198 C190 1.258 . S
O199 Co182 2.020 . S
O199 C196 1.256 . S
O200 Co180 2.062 . S
O200 C196 1.255 . S
O201 C181 1.259 . S
O201 Co182 2.021 . S
H202 C193 0.930 . S
H203 C192 0.931 . S
O204 Co180 2.117 . S
O204 C181 1.258 . S
O205 Co180 2.020 . S
O205 C207 1.256 . S
O206 Co182 2.062 . S
O206 C207 1.255 . S
C207 O205 1.256 . S
C207 O206 1.255 . S
H208 C187 0.931 . S
H209 C195 0.931 1_565 S
Co210 N215 2.057 . S
Co210 O227 2.021 . S
Co210 O230 2.062 . S
Co210 O234 2.117 . S
Co210 O235 2.020 . S
C211 O231 1.259 . S
C211 O234 1.258 . S
Co212 N221 2.057 . S
Co212 O228 2.117 . S
Co212 O229 2.032 . S
Co212 O231 2.021 . S
Co212 O236 2.062 . S
C213 N215 1.316 . S
C213 N216 1.347 . S
C213 H218 0.931 . S
C214 N215 1.375 1_655 S
C214 C217 1.350 . S
C214 H219 0.930 . S
N215 Co210 2.057 . S
N215 C213 1.316 . S
N215 C214 1.375 1_455 S
N216 C213 1.347 . S
N216 C217 1.373 1_455 S
C217 C214 1.350 . S
C217 N216 1.373 1_655 S
C217 H238 0.931 . S
H218 C213 0.931 . S
H219 C214 0.930 . S
C220 O227 1.259 . S
C220 O228 1.258 . S
N221 Co212 2.057 . S
N221 C222 1.316 . S
N221 C223 1.375 . S
C222 N221 1.316 . S
C222 N224 1.347 . S
C222 H233 0.931 . S
C223 N221 1.375 . S
C223 C225 1.350 . S
C223 H232 0.930 1_554 S
N224 C222 1.347 . S
N224 C225 1.373 . S
C225 C223 1.350 . S
C225 N224 1.373 . S
C225 H239 0.931 1_554 S
C226 O229 1.253 1_556 S
C226 O230 1.255 1_556 S
O227 Co210 2.021 . S
O227 C220 1.259 . S
O228 Co212 2.117 . S
O228 C220 1.258 . S
O229 Co212 2.032 . S
O229 C226 1.253 1_554 S
O230 Co210 2.062 . S
O230 C226 1.255 1_554 S
O231 C211 1.259 . S
O231 Co212 2.021 . S
H232 C223 0.930 1_556 S
H233 C222 0.931 . S
O234 Co210 2.117 . S
O234 C211 1.258 . S
O235 Co210 2.020 . S
O235 C237 1.256 . S
O236 Co212 2.062 . S
O236 C237 1.255 . S
C237 O235 1.256 . S
C237 O236 1.255 . S
H238 C217 0.931 . S
H239 C225 0.931 1_556 S
Co240 N245 2.057 . S
Co240 O257 2.021 . S
Co240 O260 2.062 . S
Co240 O264 2.117 . S
Co240 O265 2.020 . S
C241 O261 1.259 . S
C241 O264 1.258 . S
Co242 N251 2.057 . S
Co242 O258 2.117 . S
Co242 O259 2.020 . S
Co242 O261 2.021 . S
Co242 O266 2.062 . S
C243 N245 1.316 . S
C243 N246 1.347 . S
C243 H248 0.931 . S
C244 N245 1.375 . S
C244 C247 1.350 . S
C244 H249 0.930 . S
N245 Co240 2.057 . S
N245 C243 1.316 . S
N245 C244 1.375 . S
N246 C243 1.347 . S
N246 C247 1.373 . S
C247 C244 1.350 . S
C247 N246 1.373 . S
C247 H268 0.931 . S
H248 C243 0.931 . S
H249 C244 0.930 . S
C250 O257 1.259 . S
C250 O258 1.258 . S
N251 Co242 2.057 . S
N251 C252 1.316 . S
N251 C253 1.375 . S
C252 N251 1.316 . S
C252 N254 1.347 . S
C252 H263 0.931 . S
C253 N251 1.375 . S
C253 C255 1.350 . S
C253 H262 0.930 . S
N254 C252 1.347 . S
N254 C255 1.373 . S
C255 C253 1.350 . S
C255 N254 1.373 . S
C255 H269 0.931 . S
C256 O259 1.256 . S
C256 O260 1.255 . S
O257 Co240 2.021 . S
O257 C250 1.259 . S
O258 Co242 2.117 . S
O258 C250 1.258 . S
O259 Co242 2.020 . S
O259 C256 1.256 . S
O260 Co240 2.062 . S
O260 C256 1.255 . S
O261 C241 1.259 . S
O261 Co242 2.021 . S
H262 C253 0.930 . S
H263 C252 0.931 . S
O264 Co240 2.117 . S
O264 C241 1.258 . S
O265 Co240 2.020 . S
O265 C267 1.256 . S
O266 Co242 2.062 . S
O266 C267 1.255 . S
C267 O265 1.256 . S
C267 O266 1.255 . S
H268 C247 0.931 . S
H269 C255 0.931 . S
Co270 N275 2.057 . S
Co270 O287 2.021 . S
Co270 O290 2.062 . S
Co270 O294 2.117 1_565 S
Co270 O295 2.032 . S
C271 O291 1.259 . S
C271 O294 1.258 . S
Co272 N281 2.057 . S
Co272 O288 2.117 . S
Co272 O289 2.020 . S
Co272 O291 2.021 . S
Co272 O296 2.062 . S
C273 N275 1.316 . S
C273 N276 1.347 . S
C273 H278 0.931 . S
C274 N275 1.375 . S
C274 C277 1.350 . S
C274 H279 0.930 1_556 S
N275 Co270 2.057 . S
N275 C273 1.316 . S
N275 C274 1.375 . S
N276 C273 1.347 . S
N276 C277 1.373 . S
C277 C274 1.350 . S
C277 N276 1.373 . S
C277 H298 0.931 1_556 S
H278 C273 0.931 . S
H279 C274 0.930 1_554 S
C280 O287 1.259 . S
C280 O288 1.258 1_565 S
N281 Co272 2.057 . S
N281 C282 1.316 . S
N281 C283 1.375 1_455 S
C282 N281 1.316 . S
C282 N284 1.347 . S
C282 H293 0.931 . S
C283 N281 1.375 1_655 S
C283 C285 1.350 . S
C283 H292 0.930 . S
N284 C282 1.347 . S
N284 C285 1.373 1_455 S
C285 C283 1.350 . S
C285 N284 1.373 1_655 S
C285 H299 0.931 . S
C286 O289 1.256 1_565 S
C286 O290 1.255 . S
O287 Co270 2.021 . S
O287 C280 1.259 . S
O288 Co272 2.117 . S
O288 C280 1.258 1_545 S
O289 Co272 2.020 . S
O289 C286 1.256 1_545 S
O290 Co270 2.062 . S
O290 C286 1.255 . S
O291 C271 1.259 . S
O291 Co272 2.021 . S
H292 C283 0.930 . S
H293 C282 0.931 . S
O294 Co270 2.117 1_545 S
O294 C271 1.258 . S
O295 Co270 2.032 . S
O295 C297 1.253 1_566 S
O296 Co272 2.062 . S
O296 C297 1.255 1_556 S
C297 O295 1.253 1_544 S
C297 O296 1.255 1_554 S
H298 C277 0.931 1_554 S
H299 C285 0.931 . S
Co300 N305 2.057 . S
Co300 O317 2.021 . S
Co300 O320 2.062 . S
Co300 O324 2.117 . S
Co300 O325 2.020 . S
C301 O321 1.259 . S
C301 O324 1.258 . S
Co302 N311 2.057 . S
Co302 O318 2.117 . S
Co302 O319 2.020 . S
Co302 O321 2.021 . S
Co302 O326 2.062 . S
C303 N305 1.316 . S
C303 N306 1.347 . S
C303 H308 0.931 . S
C304 N305 1.375 . S
C304 C307 1.350 . S
C304 H309 0.930 . S
N305 Co300 2.057 . S
N305 C303 1.316 . S
N305 C304 1.375 . S
N306 C303 1.347 . S
N306 C307 1.373 . S
C307 C304 1.350 . S
C307 N306 1.373 . S
C307 H328 0.931 . S
H308 C303 0.931 . S
H309 C304 0.930 . S
C310 O317 1.259 . S
C310 O318 1.258 . S
N311 Co302 2.057 . S
N311 C312 1.316 . S
N311 C313 1.375 . S
C312 N311 1.316 . S
C312 N314 1.347 . S
C312 H323 0.931 . S
C313 N311 1.375 . S
C313 C315 1.350 . S
C313 H322 0.930 . S
N314 C312 1.347 . S
N314 C315 1.373 . S
C315 C313 1.350 . S
C315 N314 1.373 . S
C315 H329 0.931 . S
C316 O319 1.256 . S
C316 O320 1.255 . S
O317 Co300 2.021 . S
O317 C310 1.259 . S
O318 Co302 2.117 . S
O318 C310 1.258 . S
O319 Co302 2.020 . S
O319 C316 1.256 . S
O320 Co300 2.062 . S
O320 C316 1.255 . S
O321 C301 1.259 . S
O321 Co302 2.021 . S
H322 C313 0.930 . S
H323 C312 0.931 . S
O324 Co300 2.117 . S
O324 C301 1.258 . S
O325 Co300 2.020 . S
O325 C327 1.256 . S
O326 Co302 2.062 . S
O326 C327 1.255 . S
C327 O325 1.256 . S
C327 O326 1.255 . S
H328 C307 0.931 . S
H329 C315 0.931 . S
Co330 N335 2.057 . S
Co330 O347 2.021 . S
Co330 O350 2.062 . S
Co330 O354 2.117 1_545 S
Co330 O355 2.020 . S
C331 O351 1.259 . S
C331 O354 1.258 . S
Co332 N341 2.057 . S
Co332 O348 2.117 . S
Co332 O349 2.020 . S
Co332 O351 2.021 . S
Co332 O356 2.062 . S
C333 N335 1.316 . S
C333 N336 1.347 . S
C333 H338 0.931 . S
C334 N335 1.375 . S
C334 C337 1.350 . S
C334 H339 0.930 . S
N335 Co330 2.057 . S
N335 C333 1.316 . S
N335 C334 1.375 . S
N336 C333 1.347 . S
N336 C337 1.373 . S
C337 C334 1.350 . S
C337 N336 1.373 . S
C337 H358 0.931 . S
H338 C333 0.931 . S
H339 C334 0.930 . S
C340 O347 1.259 . S
C340 O348 1.258 1_545 S
N341 Co332 2.057 . S
N341 C342 1.316 . S
N341 C343 1.375 . S
C342 N341 1.316 . S
C342 N344 1.347 . S
C342 H353 0.931 . S
C343 N341 1.375 . S
C343 C345 1.350 . S
C343 H352 0.930 . S
N344 C342 1.347 . S
N344 C345 1.373 . S
C345 C343 1.350 . S
C345 N344 1.373 . S
C345 H359 0.931 . S
C346 O349 1.256 1_545 S
C346 O350 1.255 . S
O347 Co330 2.021 . S
O347 C340 1.259 . S
O348 Co332 2.117 . S
O348 C340 1.258 1_565 S
O349 Co332 2.020 . S
O349 C346 1.256 1_565 S
O350 Co330 2.062 . S
O350 C346 1.255 . S
O351 C331 1.259 . S
O351 Co332 2.021 . S
H352 C343 0.930 . S
H353 C342 0.931 . S
O354 Co330 2.117 1_565 S
O354 C331 1.258 . S
O355 Co330 2.020 . S
O355 C357 1.256 1_545 S
O356 Co332 2.062 . S
O356 C357 1.255 . S
C357 O355 1.256 1_565 S
C357 O356 1.255 . S
H358 C337 0.931 . S
H359 C345 0.931 . S
Co360 N365 2.057 . S
Co360 O377 2.021 . S
Co360 O380 2.062 . S
Co360 O384 2.117 . S
Co360 O385 2.020 . S
C361 O381 1.259 . S
C361 O384 1.258 . S
Co362 N371 2.057 . S
Co362 O378 2.117 . S
Co362 O379 2.020 . S
Co362 O381 2.021 . S
Co362 O386 2.062 . S
C363 N365 1.316 . S
C363 N366 1.347 . S
C363 H368 0.931 . S
C364 N365 1.375 . S
C364 C367 1.350 . S
C364 H369 0.930 . S
N365 Co360 2.057 . S
N365 C363 1.316 . S
N365 C364 1.375 . S
N366 C363 1.347 . S
N366 C367 1.373 . S
C367 C364 1.350 . S
C367 N366 1.373 . S
C367 H388 0.931 . S
H368 C363 0.931 . S
H369 C364 0.930 . S
C370 O377 1.259 . S
C370 O378 1.258 . S
N371 Co362 2.057 . S
N371 C372 1.316 . S
N371 C373 1.375 . S
C372 N371 1.316 . S
C372 N374 1.347 . S
C372 H383 0.931 . S
C373 N371 1.375 . S
C373 C375 1.350 . S
C373 H382 0.930 . S
N374 C372 1.347 . S
N374 C375 1.373 . S
C375 C373 1.350 . S
C375 N374 1.373 . S
C375 H389 0.931 . S
C376 O379 1.256 . S
C376 O380 1.255 . S
O377 Co360 2.021 . S
O377 C370 1.259 . S
O378 Co362 2.117 . S
O378 C370 1.258 . S
O379 Co362 2.020 . S
O379 C376 1.256 . S
O380 Co360 2.062 . S
O380 C376 1.255 . S
O381 C361 1.259 . S
O381 Co362 2.021 . S
H382 C373 0.930 . S
H383 C372 0.931 . S
O384 Co360 2.117 . S
O384 C361 1.258 . S
O385 Co360 2.020 . S
O385 C387 1.256 . S
O386 Co362 2.062 . S
O386 C387 1.255 . S
C387 O385 1.256 . S
C387 O386 1.255 . S
H388 C367 0.931 . S
H389 C375 0.931 . S
Co390 N395 2.057 . S
Co390 O407 2.021 . S
Co390 O410 2.062 . S
Co390 O414 2.117 . S
Co390 O415 2.020 . S
C391 O411 1.259 . S
C391 O414 1.258 1_545 S
Co392 N401 2.057 . S
Co392 O408 2.117 1_545 S
Co392 O409 2.032 . S
Co392 O411 2.021 . S
Co392 O416 2.062 . S
C393 N395 1.316 . S
C393 N396 1.347 . S
C393 H398 0.931 . S
C394 N395 1.375 1_455 S
C394 C397 1.350 . S
C394 H399 0.930 . S
N395 Co390 2.057 . S
N395 C393 1.316 . S
N395 C394 1.375 1_655 S
N396 C393 1.347 . S
N396 C397 1.373 1_655 S
C397 C394 1.350 . S
C397 N396 1.373 1_455 S
C397 H418 0.931 . S
H398 C393 0.931 . S
H399 C394 0.930 . S
C400 O407 1.259 . S
C400 O408 1.258 . S
N401 Co392 2.057 . S
N401 C402 1.316 . S
N401 C403 1.375 . S
C402 N401 1.316 . S
C402 N404 1.347 . S
C402 H413 0.931 . S
C403 N401 1.375 . S
C403 C405 1.350 . S
C403 H412 0.930 1_554 S
N404 C402 1.347 . S
N404 C405 1.373 . S
C405 C403 1.350 . S
C405 N404 1.373 . S
C405 H419 0.931 1_554 S
C406 O409 1.253 1_566 S
C406 O410 1.255 1_556 S
O407 Co390 2.021 . S
O407 C400 1.259 . S
O408 Co392 2.117 1_565 S
O408 C400 1.258 . S
O409 Co392 2.032 . S
O409 C406 1.253 1_544 S
O410 Co390 2.062 . S
O410 C406 1.255 1_554 S
O411 C391 1.259 . S
O411 Co392 2.021 . S
H412 C403 0.930 1_556 S
H413 C402 0.931 . S
O414 Co390 2.117 . S
O414 C391 1.258 1_565 S
O415 Co390 2.020 . S
O415 C417 1.256 1_565 S
O416 Co392 2.062 . S
O416 C417 1.255 . S
C417 O415 1.256 1_545 S
C417 O416 1.255 . S
H418 C397 0.931 . S
H419 C405 0.931 1_556 S
Co420 N425 2.057 . S
Co420 O437 2.021 . S
Co420 O440 2.062 . S
Co420 O444 2.117 . S
Co420 O445 2.020 . S
C421 O441 1.259 . S
C421 O444 1.258 . S
Co422 N431 2.057 . S
Co422 O438 2.117 . S
Co422 O439 2.020 . S
Co422 O441 2.021 . S
Co422 O446 2.062 . S
C423 N425 1.316 . S
C423 N426 1.347 . S
C423 H428 0.931 . S
C424 N425 1.375 . S
C424 C427 1.350 . S
C424 H429 0.930 . S
N425 Co420 2.057 . S
N425 C423 1.316 . S
N425 C424 1.375 . S
N426 C423 1.347 . S
N426 C427 1.373 . S
C427 C424 1.350 . S
C427 N426 1.373 . S
C427 H448 0.931 . S
H428 C423 0.931 . S
H429 C424 0.930 . S
C430 O437 1.259 . S
C430 O438 1.258 . S
N431 Co422 2.057 . S
N431 C432 1.316 . S
N431 C433 1.375 . S
C432 N431 1.316 . S
C432 N434 1.347 . S
C432 H443 0.931 . S
C433 N431 1.375 . S
C433 C435 1.350 . S
C433 H442 0.930 . S
N434 C432 1.347 . S
N434 C435 1.373 . S
C435 C433 1.350 . S
C435 N434 1.373 . S
C435 H449 0.931 . S
C436 O439 1.256 . S
C436 O440 1.255 . S
O437 Co420 2.021 . S
O437 C430 1.259 . S
O438 Co422 2.117 . S
O438 C430 1.258 . S
O439 Co422 2.020 . S
O439 C436 1.256 . S
O440 Co420 2.062 . S
O440 C436 1.255 . S
O441 C421 1.259 . S
O441 Co422 2.021 . S
H442 C433 0.930 . S
H443 C432 0.931 . S
O444 Co420 2.117 . S
O444 C421 1.258 . S
O445 Co420 2.020 . S
O445 C447 1.256 . S
O446 Co422 2.062 . S
O446 C447 1.255 . S
C447 O445 1.256 . S
C447 O446 1.255 . S
H448 C427 0.931 . S
H449 C435 0.931 . S
Co450 N455 2.057 . S
Co450 O467 2.021 . S
Co450 O470 2.062 . S
Co450 O474 2.117 . S
Co450 O475 2.020 . S
C451 O471 1.259 . S
C451 O474 1.258 1_565 S
Co452 N461 2.057 . S
Co452 O468 2.117 1_565 S
Co452 O469 2.020 . S
Co452 O471 2.021 . S
Co452 O476 2.062 . S
C453 N455 1.316 . S
C453 N456 1.347 . S
C453 H458 0.931 . S
C454 N455 1.375 . S
C454 C457 1.350 . S
C454 H459 0.930 . S
N455 Co450 2.057 . S
N455 C453 1.316 . S
N455 C454 1.375 . S
N456 C453 1.347 . S
N456 C457 1.373 . S
C457 C454 1.350 . S
C457 N456 1.373 . S
C457 H478 0.931 . S
H458 C453 0.931 . S
H459 C454 0.930 . S
C460 O467 1.259 . S
C460 O468 1.258 . S
N461 Co452 2.057 . S
N461 C462 1.316 . S
N461 C463 1.375 . S
C462 N461 1.316 . S
C462 N464 1.347 . S
C462 H473 0.931 . S
C463 N461 1.375 . S
C463 C465 1.350 . S
C463 H472 0.930 . S
N464 C462 1.347 . S
N464 C465 1.373 . S
C465 C463 1.350 . S
C465 N464 1.373 . S
C465 H479 0.931 . S
C466 O469 1.256 1_545 S
C466 O470 1.255 . S
O467 Co450 2.021 . S
O467 C460 1.259 . S
O468 Co452 2.117 1_545 S
O468 C460 1.258 . S
O469 Co452 2.020 . S
O469 C466 1.256 1_565 S
O470 Co450 2.062 . S
O470 C466 1.255 . S
O471 C451 1.259 . S
O471 Co452 2.021 . S
H472 C463 0.930 . S
H473 C462 0.931 . S
O474 Co450 2.117 . S
O474 C451 1.258 1_545 S
O475 Co450 2.020 . S
O475 C477 1.256 1_545 S
O476 Co452 2.062 . S
O476 C477 1.255 . S
C477 O475 1.256 1_565 S
C477 O476 1.255 . S
H478 C457 0.931 . S
H479 C465 0.931 . S
C27 C376 2.383 . S
C166 C57 2.383 . S
C87 C436 2.383 . S
C117 C226 2.383 1_654 S
C136 C267 2.383 . S
C327 C196 2.383 . S
C406 C297 2.383 1_666 S
C357 C466 2.383 1_565 S
C271 C16 1.885 1_556 S
C46 C301 1.885 . S
C76 C331 1.885 . S
C241 C106 1.885 . S
C400 C147 1.885 1_554 S
C430 C177 1.885 . S
C207 C460 1.885 . S
C370 C237 1.885 . S
C256 C31 1.885 . S
C286 C61 1.885 . S
C316 C91 1.885 1_554 S
C1 C346 1.885 . S
C160 C387 1.885 . S
C417 C190 1.885 . S
C220 C447 1.885 1_554 S
C477 C130 1.885 . S
N14 N314 1.052 . S
N44 N344 1.052 . S
N254 N74 1.052 1_655 S
N104 N284 1.052 1_655 S
N126 N426 1.052 . S
N156 N456 1.052 . S
N366 N186 1.052 1_455 S
N216 N396 1.052 1_455 S
C10 N224 1.412 . S
N374 C40 1.412 . S
C70 N164 1.412 . S
C100 N434 1.412 1_655 S
C121 N96 1.412 . S
N246 C151 1.412 . S
C181 N36 1.412 . S
N306 C211 1.412 1_655 S
C250 N464 1.412 . S
N134 C280 1.412 1_655 S
N404 C310 1.412 . S
C340 N194 1.412 . S
C361 N336 1.412 . S
C391 N6 1.412 1_655 S
N276 C421 1.412 . S
N66 C451 1.412 . S
