# Generated by pormake.
# Topology uos, (4)-cn, num edge types: 1
# Building blocks:
#     Node 0, Type 0, BuildingBlock: AZAVOO_clean_sbu_0, # of connection points: 4
#     Node 1, Type 0, BuildingBlock: AZAVOO_clean_sbu_0, # of connection points: 4
#     Node 2, Type 0, BuildingBlock: AZAVOO_clean_sbu_0, # of connection points: 4
#     Node 3, Type 0, BuildingBlock: AZAVOO_clean_sbu_0, # of connection points: 4
#     Node 4, Type 0, BuildingBlock: AZAVOO_clean_sbu_0, # of connection points: 4
#     Node 5, Type 0, BuildingBlock: AZAVOO_clean_sbu_0, # of connection points: 4
#     Node 6, Type 0, BuildingBlock: AZAVOO_clean_sbu_0, # of connection points: 4
#     Node 7, Type 0, BuildingBlock: AZAVOO_clean_sbu_0, # of connection points: 4
#     Node 8, Type 0, BuildingBlock: AZAVOO_clean_sbu_0, # of connection points: 4
#     Node 9, Type 0, BuildingBlock: AZAVOO_clean_sbu_0, # of connection points: 4
#     Node 10, Type 0, BuildingBlock: AZAVOO_clean_sbu_0, # of connection points: 4
#     Node 11, Type 0, BuildingBlock: AZAVOO_clean_sbu_0, # of connection points: 4
#     Node 12, Type 0, BuildingBlock: AZAVOO_clean_sbu_0, # of connection points: 4
#     Node 13, Type 0, BuildingBlock: AZAVOO_clean_sbu_0, # of connection points: 4
#     Node 14, Type 0, BuildingBlock: AZAVOO_clean_sbu_0, # of connection points: 4
#     Node 15, Type 0, BuildingBlock: AZAVOO_clean_sbu_0, # of connection points: 4
#     Node 16, Type 0, BuildingBlock: AZAVOO_clean_sbu_0, # of connection points: 4
#     Node 17, Type 0, BuildingBlock: AZAVOO_clean_sbu_0, # of connection points: 4
#     Node 18, Type 0, BuildingBlock: AZAVOO_clean_sbu_0, # of connection points: 4
#     Node 19, Type 0, BuildingBlock: AZAVOO_clean_sbu_0, # of connection points: 4
#     Node 20, Type 0, BuildingBlock: AZAVOO_clean_sbu_0, # of connection points: 4
#     Node 21, Type 0, BuildingBlock: AZAVOO_clean_sbu_0, # of connection points: 4
#     Node 22, Type 0, BuildingBlock: AZAVOO_clean_sbu_0, # of connection points: 4
#     Node 23, Type 0, BuildingBlock: AZAVOO_clean_sbu_0, # of connection points: 4
#     Node 24, Type 0, BuildingBlock: AZAVOO_clean_sbu_0, # of connection points: 4
#     Node 25, Type 0, BuildingBlock: AZAVOO_clean_sbu_0, # of connection points: 4
#     Node 26, Type 0, BuildingBlock: AZAVOO_clean_sbu_0, # of connection points: 4
#     Node 27, Type 0, BuildingBlock: AZAVOO_clean_sbu_0, # of connection points: 4
#     Node 28, Type 0, BuildingBlock: AZAVOO_clean_sbu_0, # of connection points: 4
#     Node 29, Type 0, BuildingBlock: AZAVOO_clean_sbu_0, # of connection points: 4
#     Node 30, Type 0, BuildingBlock: AZAVOO_clean_sbu_0, # of connection points: 4
#     Node 31, Type 0, BuildingBlock: AZAVOO_clean_sbu_0, # of connection points: 4
#     Edge 32, Type (0, 0), None
#     Edge 33, Type (0, 0), None
#     Edge 34, Type (0, 0), None
#     Edge 35, Type (0, 0), None
#     Edge 36, Type (0, 0), None
#     Edge 37, Type (0, 0), None
#     Edge 38, Type (0, 0), None
#     Edge 39, Type (0, 0), None
#     Edge 40, Type (0, 0), None
#     Edge 41, Type (0, 0), None
#     Edge 42, Type (0, 0), None
#     Edge 43, Type (0, 0), None
#     Edge 44, Type (0, 0), None
#     Edge 45, Type (0, 0), None
#     Edge 46, Type (0, 0), None
#     Edge 47, Type (0, 0), None
#     Edge 48, Type (0, 0), None
#     Edge 49, Type (0, 0), None
#     Edge 50, Type (0, 0), None
#     Edge 51, Type (0, 0), None
#     Edge 52, Type (0, 0), None
#     Edge 53, Type (0, 0), None
#     Edge 54, Type (0, 0), None
#     Edge 55, Type (0, 0), None
#     Edge 56, Type (0, 0), None
#     Edge 57, Type (0, 0), None
#     Edge 58, Type (0, 0), None
#     Edge 59, Type (0, 0), None
#     Edge 60, Type (0, 0), None
#     Edge 61, Type (0, 0), None
#     Edge 62, Type (0, 0), None
#     Edge 63, Type (0, 0), None
#     Edge 64, Type (0, 0), None
#     Edge 65, Type (0, 0), None
#     Edge 66, Type (0, 0), None
#     Edge 67, Type (0, 0), None
#     Edge 68, Type (0, 0), None
#     Edge 69, Type (0, 0), None
#     Edge 70, Type (0, 0), None
#     Edge 71, Type (0, 0), None
#     Edge 72, Type (0, 0), None
#     Edge 73, Type (0, 0), None
#     Edge 74, Type (0, 0), None
#     Edge 75, Type (0, 0), None
#     Edge 76, Type (0, 0), None
#     Edge 77, Type (0, 0), None
#     Edge 78, Type (0, 0), None
#     Edge 79, Type (0, 0), None
#     Edge 80, Type (0, 0), None
#     Edge 81, Type (0, 0), None
#     Edge 82, Type (0, 0), None
#     Edge 83, Type (0, 0), None
#     Edge 84, Type (0, 0), None
#     Edge 85, Type (0, 0), None
#     Edge 86, Type (0, 0), None
#     Edge 87, Type (0, 0), None
#     Edge 88, Type (0, 0), None
#     Edge 89, Type (0, 0), None
#     Edge 90, Type (0, 0), None
#     Edge 91, Type (0, 0), None
#     Edge 92, Type (0, 0), None
#     Edge 93, Type (0, 0), None
#     Edge 94, Type (0, 0), None
#     Edge 95, Type (0, 0), None
# Relax obj value: 0.077
# Max RMSD: 0.097
# Mean RMSD: 0.097
data_MOF--net-uos--node1-AZAVOO_clean_sbu_0--edge1-none
_symmetry_space_group_name_H-M    P1
_symmetry_Int_Tables_number       1
_symmetry_cell_setting            triclinic
loop_
_symmetry_equiv_pos_as_xyz
'x, y, z'
_cell_length_a     41.083836
_cell_length_b     41.083827
_cell_length_c     9.8195001
_cell_angle_alpha  90.008352
_cell_angle_beta   89.998504
_cell_angle_gamma 90.000015
loop_
_atom_site_label
_atom_site_type_symbol
_atom_site_fract_x
_atom_site_fract_y
_atom_site_fract_z
_atom_type_partial_charge
Mg0 Mg 0.1474 0.12981 0.14051 0.0
O1 O 0.1125 0.10046 0.27272 0.0
O2 O 0.12243 0.11014 0.49317 0.0
Mg3 Mg 0.16558 0.14396 0.5101 0.0
C4 C 0.10637 0.09623 0.39886 0.0
C5 C 0.09558 0.10459 0.88003 0.0
O6 O 0.08946 0.11011 0.75132 0.0
O7 O 0.12185 0.17981 0.18401 0.0
O8 O 0.13943 0.18401 0.39794 0.0
O9 O 0.18896 0.09177 0.15579 0.0
O10 O 0.17997 0.12971 0.30555 0.0
C11 C 0.12514 0.19615 0.29443 0.0
C12 C 0.19744 0.1058 0.26803 0.0
O13 O 0.11863 0.12065 0.93684 0.0
Mg14 Mg 0.04853 0.89739 0.39056 0.0
O15 O 0.07788 0.8625 0.52285 0.0
O16 O 0.06822 0.87246 0.7433 0.0
Mg17 Mg 0.0344 0.9156 0.76014 0.0
C18 C 0.08212 0.85639 0.64899 0.0
C19 C 0.07376 0.84555 0.13012 0.0
O20 O 0.06822 0.83939 1.00144 0.0
O21 O -0.00146 0.87184 0.4341 0.0
O22 O -0.00566 0.88944 0.64802 0.0
O23 O 0.08658 0.93894 0.40578 0.0
O24 O 0.04864 0.92997 0.55556 0.0
C25 C -0.0178 0.87514 0.54452 0.0
C26 C 0.07255 0.94744 0.51801 0.0
O27 O 0.05768 0.86859 0.18692 0.0
Mg28 Mg 0.28098 0.79855 0.64048 0.0
O29 O 0.31587 0.8279 0.77277 0.0
O30 O 0.30592 0.81824 0.99321 0.0
Mg31 Mg 0.26277 0.78443 1.01006 0.0
C32 C 0.322 0.83214 0.89892 0.0
C33 C 0.33282 0.82377 0.38005 0.0
O34 O 0.33896 0.81824 0.25136 0.0
O35 O 0.30652 0.74855 0.68401 0.0
O36 O 0.28893 0.74437 0.89793 0.0
O37 O 0.23943 0.83659 0.65572 0.0
O38 O 0.2484 0.79866 0.80548 0.0
C39 C 0.30323 0.73222 0.79444 0.0
C40 C 0.23094 0.82257 0.76794 0.0
O41 O 0.30977 0.8077 0.43684 0.0
Mg42 Mg 0.37984 0.03097 0.8905 0.0
O43 O 0.35048 0.06587 1.02279 0.0
O44 O 0.36015 0.05593 0.24323 0.0
Mg45 Mg 0.39398 0.01279 0.26007 0.0
C46 C 0.34625 0.07199 0.14894 0.0
C47 C 0.3546 0.08281 0.63009 0.0
O48 O 0.36013 0.08894 0.50139 0.0
O49 O 0.42983 0.05653 0.934 0.0
O50 O 0.43403 0.03894 0.14792 0.0
O51 O 0.34179 -0.01058 0.90576 0.0
O52 O 0.37973 -0.0016 0.0555 0.0
C53 C 0.44617 0.05324 0.04442 0.0
C54 C 0.35583 -0.01906 1.01798 0.0
O55 O 0.37068 0.05976 0.68688 0.0
Mg56 Mg 0.1474 0.79854 0.94594 0.0
O57 O 0.1125 0.82789 0.81368 0.0
O58 O 0.12246 0.81822 0.59323 0.0
Mg59 Mg 0.1656 0.78441 0.57637 0.0
C60 C 0.10638 0.83212 0.68753 0.0
C61 C 0.09556 0.82377 0.20637 0.0
O62 O 0.08942 0.81825 0.33507 0.0
O63 O 0.12185 0.74855 0.90241 0.0
O64 O 0.13944 0.74435 0.68848 0.0
O65 O 0.18894 0.8366 0.93075 0.0
O66 O 0.17998 0.79864 0.78095 0.0
C67 C 0.12514 0.73221 0.79198 0.0
C68 C 0.19743 0.82256 0.81856 0.0
O69 O 0.11861 0.8077 0.14957 0.0
Mg70 Mg 0.37985 0.8974 0.19595 0.0
O71 O 0.3505 0.86251 0.06363 0.0
O72 O 0.36016 0.87247 0.84319 0.0
Mg73 Mg 0.39399 0.91561 0.8264 0.0
C74 C 0.34627 0.85639 0.93748 0.0
C75 C 0.35461 0.84555 0.45632 0.0
O76 O 0.36014 0.83941 0.58501 0.0
O77 O 0.42985 0.87185 0.15242 0.0
O78 O 0.43404 0.88944 0.93852 0.0
O79 O 0.34179 0.93894 0.18077 0.0
O80 O 0.37976 0.92998 1.031 0.0
C81 C 0.44618 0.87514 1.042 0.0
C82 C 0.35584 0.94743 0.0686 0.0
O83 O 0.37069 0.8686 0.39955 0.0
Mg84 Mg 0.28098 0.12984 0.44599 0.0
O85 O 0.31587 0.1005 0.31366 0.0
O86 O 0.3059 0.11015 0.09322 0.0
Mg87 Mg 0.26276 0.14396 0.07644 0.0
C88 C 0.32199 0.09626 0.1875 0.0
C89 C 0.33283 0.10461 0.70636 0.0
O90 O 0.33899 0.11014 0.83505 0.0
O91 O 0.30652 0.17984 0.40244 0.0
O92 O 0.28892 0.18402 0.18853 0.0
O93 O 0.23944 0.09178 0.43083 0.0
O94 O 0.24839 0.12974 0.28104 0.0
C95 C 0.30323 0.19617 0.292 0.0
C96 C 0.23095 0.10582 0.31866 0.0
O97 O 0.30979 0.12069 0.64959 0.0
Mg98 Mg 0.04851 0.03099 0.69591 0.0
O99 O 0.07786 0.06587 0.56356 0.0
O100 O 0.06821 0.05589 0.34311 0.0
Mg101 Mg 0.03439 0.01274 0.32635 0.0
C102 C 0.0821 0.07198 0.43741 0.0
C103 C 0.07375 0.08285 0.95629 0.0
O104 O 0.06821 0.08902 0.08495 0.0
O105 O -0.00148 0.05653 0.65233 0.0
O106 O -0.00567 0.03892 0.43843 0.0
O107 O 0.08658 -0.01055 0.68078 0.0
O108 O 0.04862 -0.00161 0.53097 0.0
C109 C -0.01782 0.05322 0.5419 0.0
C110 C 0.07253 -0.01905 0.5686 0.0
O111 O 0.05766 0.05981 0.8995 0.0
Mg112 Mg 0.78096 0.79854 0.94589 0.0
O113 O 0.81586 0.8279 0.81367 0.0
O114 O 0.80593 0.81822 0.59322 0.0
Mg115 Mg 0.76279 0.78439 0.5763 0.0
C116 C 0.82199 0.83213 0.68752 0.0
C117 C 0.83279 0.82377 0.20637 0.0
O118 O 0.83892 0.81825 0.33508 0.0
O119 O 0.80652 0.74855 0.9024 0.0
O120 O 0.78894 0.74435 0.68847 0.0
O121 O 0.73941 0.83658 0.93062 0.0
O122 O 0.7484 0.79864 0.78086 0.0
C123 C 0.80323 0.7322 0.79198 0.0
C124 C 0.73093 0.82255 0.81838 0.0
O125 O 0.80974 0.8077 0.14956 0.0
Mg126 Mg 0.87982 0.03098 0.69585 0.0
O127 O 0.85047 0.06588 0.56358 0.0
O128 O 0.86014 0.05592 0.34312 0.0
Mg129 Mg 0.89395 0.01278 0.32627 0.0
C130 C 0.84624 0.072 0.43743 0.0
C131 C 0.85459 0.08283 0.9563 0.0
O132 O 0.86013 0.08898 0.08498 0.0
O133 O 0.92982 0.05652 0.6523 0.0
O134 O 0.93402 0.03896 0.43829 0.0
O135 O 0.84178 -0.01057 0.68062 0.0
O136 O 0.87972 -0.0016 0.53085 0.0
C137 C 0.94614 0.05325 0.54184 0.0
C138 C 0.85581 -0.01906 0.5684 0.0
O139 O 0.87067 0.05978 0.89949 0.0
Mg140 Mg 0.64739 0.12985 0.44593 0.0
O141 O 0.6125 0.10049 0.31362 0.0
O142 O 0.62246 0.11015 0.09318 0.0
Mg143 Mg 0.6656 0.14397 0.07635 0.0
C144 C 0.60638 0.09625 0.18747 0.0
C145 C 0.59555 0.10461 0.70635 0.0
O146 O 0.5894 0.11015 0.83504 0.0
O147 O 0.62184 0.17984 0.4024 0.0
O148 O 0.63944 0.18402 0.18848 0.0
O149 O 0.68894 0.0918 0.43069 0.0
O150 O 0.67997 0.12973 0.28093 0.0
C151 C 0.62514 0.19617 0.29197 0.0
C152 C 0.69743 0.10583 0.31847 0.0
O153 O 0.6186 0.1207 0.64956 0.0
Mg154 Mg 0.54855 0.8974 0.19591 0.0
O155 O 0.5779 0.8625 0.06364 0.0
O156 O 0.56823 0.87244 0.84319 0.0
Mg157 Mg 0.53441 0.91558 0.82633 0.0
C158 C 0.58214 0.85637 0.93749 0.0
C159 C 0.57378 0.84556 0.45633 0.0
O160 O 0.56825 0.83943 0.58503 0.0
O161 O 0.49855 0.87185 0.1524 0.0
O162 O 0.49435 0.8894 0.93839 0.0
O163 O 0.58659 0.93896 0.18064 0.0
O164 O 0.54865 0.92997 1.03091 0.0
C165 C 0.48223 0.87512 1.04194 0.0
C166 C 0.57255 0.94744 0.06843 0.0
O167 O 0.55771 0.86862 0.39954 0.0
Mg168 Mg 0.78097 0.12985 0.14047 0.0
O169 O 0.81586 0.1005 0.27275 0.0
O170 O 0.8059 0.11016 0.4932 0.0
Mg171 Mg 0.76276 0.14399 0.51004 0.0
C172 C 0.82198 0.09627 0.3989 0.0
C173 C 0.83281 0.10461 0.88005 0.0
O174 O 0.83895 0.11014 0.75135 0.0
O175 O 0.80652 0.17984 0.184 0.0
O176 O 0.78893 0.18404 0.39793 0.0
O177 O 0.73943 0.09179 0.15566 0.0
O178 O 0.74839 0.12975 0.30545 0.0
C179 C 0.80323 0.19618 0.29443 0.0
C180 C 0.73094 0.10584 0.26785 0.0
O181 O 0.80976 0.12069 0.93684 0.0
Mg182 Mg 0.54853 0.03098 0.89045 0.0
O183 O 0.57788 0.06587 1.02276 0.0
O184 O 0.56822 0.05592 0.24321 0.0
Mg185 Mg 0.5344 0.01278 0.26001 0.0
C186 C 0.58212 0.07199 0.14891 0.0
C187 C 0.57377 0.08282 0.63008 0.0
O188 O 0.56824 0.08896 0.50138 0.0
O189 O 0.49854 0.05652 0.93399 0.0
O190 O 0.49434 0.03896 0.148 0.0
O191 O 0.58659 -0.01056 0.90564 0.0
O192 O 0.54862 -0.00161 0.05541 0.0
C193 C 0.48221 0.05325 0.04446 0.0
C194 C 0.57254 -0.01905 1.01781 0.0
O195 O 0.55769 0.05977 0.68686 0.0
Mg196 Mg 0.64739 0.79851 0.64042 0.0
O197 O 0.6125 0.82786 0.77277 0.0
O198 O 0.62248 0.81821 0.99321 0.0
Mg199 Mg 0.66562 0.78439 1.00997 0.0
C200 C 0.60639 0.8321 0.89893 0.0
C201 C 0.59554 0.82375 0.38005 0.0
O202 O 0.58938 0.81822 0.25137 0.0
O203 O 0.62184 0.74851 0.68397 0.0
O204 O 0.63945 0.74434 0.89788 0.0
O205 O 0.68893 0.83657 0.65558 0.0
O206 O 0.67998 0.79861 0.80536 0.0
C207 C 0.62514 0.73218 0.79441 0.0
C208 C 0.69742 0.82253 0.76775 0.0
O209 O 0.61858 0.80766 0.43683 0.0
Mg210 Mg 0.87984 0.89738 0.3905 0.0
O211 O 0.8505 0.8625 0.52283 0.0
O212 O 0.86014 0.87247 0.74328 0.0
Mg213 Mg 0.89396 0.91562 0.76006 0.0
C214 C 0.84626 0.85639 0.64898 0.0
C215 C 0.85461 0.84552 0.13011 0.0
O216 O 0.86015 0.83936 1.00144 0.0
O217 O 0.92984 0.87185 0.43408 0.0
O218 O 0.93403 0.88943 0.64809 0.0
O219 O 0.84178 0.93892 0.40564 0.0
O220 O 0.87974 0.92998 0.55544 0.0
C221 C 0.94616 0.87513 0.54456 0.0
C222 C 0.85583 0.94742 0.51781 0.0
O223 O 0.8707 0.86857 0.1869 0.0
Mg224 Mg 0.6474 0.62981 0.64054 0.0
O225 O 0.6125 0.60046 0.77278 0.0
O226 O 0.62243 0.61014 0.99323 0.0
Mg227 Mg 0.66557 0.64397 1.01012 0.0
C228 C 0.60637 0.59623 0.89892 0.0
C229 C 0.59557 0.60459 0.38008 0.0
O230 O 0.58944 0.61011 0.25138 0.0
O231 O 0.62185 0.67981 0.68403 0.0
O232 O 0.6394 0.68402 0.89805 0.0
O233 O 0.68896 0.59177 0.65581 0.0
O234 O 0.67997 0.62972 0.80556 0.0
C235 C 0.62512 0.69614 0.79449 0.0
C236 C 0.69744 0.60581 0.76804 0.0
O237 O 0.61862 0.62065 0.43689 0.0
Mg238 Mg 0.54853 0.3974 0.89052 0.0
O239 O 0.57788 0.3625 1.02279 0.0
O240 O 0.56822 0.37246 0.24324 0.0
Mg241 Mg 0.5344 0.4156 0.2601 0.0
C242 C 0.58212 0.35638 0.14894 0.0
C243 C 0.57376 0.34556 0.63006 0.0
O244 O 0.56823 0.33941 0.50138 0.0
O245 O 0.49854 0.37185 0.93403 0.0
O246 O 0.49434 0.38944 0.14796 0.0
O247 O 0.58658 0.43895 0.90577 0.0
O248 O 0.54864 0.42997 0.05554 0.0
C249 C 0.4822 0.37514 0.04445 0.0
C250 C 0.57255 0.44744 1.018 0.0
O251 O 0.55768 0.36861 0.68687 0.0
Mg252 Mg 0.78098 0.29854 0.1405 0.0
O253 O 0.81588 0.32789 0.27282 0.0
O254 O 0.80592 0.31823 0.49327 0.0
Mg255 Mg 0.76278 0.28442 0.51007 0.0
C256 C 0.822 0.33213 0.39898 0.0
C257 C 0.83283 0.32378 0.88011 0.0
O258 O 0.83898 0.31824 0.75142 0.0
O259 O 0.80652 0.24855 0.18403 0.0
O260 O 0.78896 0.24435 0.39804 0.0
O261 O 0.73943 0.33659 0.15574 0.0
O262 O 0.7484 0.29865 0.30549 0.0
C263 C 0.80325 0.23223 0.29449 0.0
C264 C 0.73094 0.32256 0.26795 0.0
O265 O 0.80978 0.30769 0.93689 0.0
Mg266 Mg 0.87984 0.53097 0.39046 0.0
O267 O 0.85048 0.56587 0.52273 0.0
O268 O 0.86015 0.55593 0.74317 0.0
Mg269 Mg 0.89398 0.51279 0.76004 0.0
C270 C 0.84625 0.572 0.64888 0.0
C271 C 0.8546 0.5828 0.13003 0.0
O272 O 0.86013 0.58892 1.00133 0.0
O273 O 0.92983 0.55652 0.43394 0.0
O274 O 0.93403 0.53895 0.64786 0.0
O275 O 0.84179 0.48941 0.40575 0.0
O276 O 0.87973 0.4984 0.55548 0.0
C277 C 0.94617 0.55324 0.54435 0.0
C278 C 0.85582 0.48093 0.51797 0.0
O279 O 0.87067 0.55974 0.18682 0.0
Mg280 Mg 0.6474 0.29854 0.44592 0.0
O281 O 0.6125 0.32788 0.31363 0.0
O282 O 0.62246 0.31822 0.09317 0.0
Mg283 Mg 0.6656 0.2844 0.07635 0.0
C284 C 0.60638 0.33212 0.18748 0.0
C285 C 0.59555 0.32377 0.70632 0.0
O286 O 0.5894 0.31824 0.83501 0.0
O287 O 0.62185 0.24855 0.40238 0.0
O288 O 0.63941 0.24434 0.18837 0.0
O289 O 0.68893 0.3366 0.43073 0.0
O290 O 0.67998 0.29863 0.28095 0.0
C291 C 0.62512 0.23222 0.29192 0.0
C292 C 0.69743 0.32255 0.31856 0.0
O293 O 0.6186 0.3077 0.64953 0.0
Mg294 Mg 0.87985 0.3974 0.69599 0.0
O295 O 0.8505 0.36251 0.56369 0.0
O296 O 0.86017 0.37246 0.34325 0.0
Mg297 Mg 0.89399 0.4156 0.32644 0.0
C298 C 0.84627 0.35639 0.43754 0.0
C299 C 0.85461 0.34556 0.95638 0.0
O300 O 0.86014 0.33943 0.08508 0.0
O301 O 0.92985 0.37185 0.65249 0.0
O302 O 0.93404 0.38944 0.43858 0.0
O303 O 0.84179 0.43894 0.68079 0.0
O304 O 0.87976 0.42998 0.53102 0.0
C305 C 0.94618 0.37514 0.54207 0.0
C306 C 0.85584 0.44743 0.56861 0.0
O307 O 0.87069 0.36861 0.8996 0.0
Mg308 Mg 0.78099 0.62985 0.94597 0.0
O309 O 0.81587 0.6005 0.8136 0.0
O310 O 0.8059 0.61015 0.59316 0.0
Mg311 Mg 0.76276 0.64397 0.57642 0.0
C312 C 0.82199 0.59626 0.68745 0.0
C313 C 0.83284 0.60461 0.20631 0.0
O314 O 0.839 0.61015 0.33499 0.0
O315 O 0.80652 0.67984 0.90241 0.0
O316 O 0.78895 0.68403 0.68842 0.0
O317 O 0.73945 0.59178 0.93081 0.0
O318 O 0.74839 0.62975 0.78104 0.0
C319 C 0.80325 0.69616 0.79195 0.0
C320 C 0.73095 0.60583 0.81865 0.0
O321 O 0.8098 0.6207 0.14955 0.0
Mg322 Mg 0.54851 0.53098 0.19595 0.0
O323 O 0.57786 0.56587 0.06362 0.0
O324 O 0.56821 0.55589 0.84317 0.0
Mg325 Mg 0.53439 0.51275 0.82639 0.0
C326 C 0.5821 0.57198 0.93746 0.0
C327 C 0.57375 0.58284 0.45634 0.0
O328 O 0.56821 0.589 0.58502 0.0
O329 O 0.49852 0.55653 0.1524 0.0
O330 O 0.49433 0.53892 0.93849 0.0
O331 O 0.58658 0.48945 0.18079 0.0
O332 O 0.54862 0.49839 1.03099 0.0
C333 C 0.48218 0.55322 1.04197 0.0
C334 C 0.57253 0.48095 0.06861 0.0
O335 O 0.55766 0.55979 0.39956 0.0
Mg336 Mg 0.28097 0.29854 0.44587 0.0
O337 O 0.31586 0.32789 0.31361 0.0
O338 O 0.30593 0.31822 0.09316 0.0
Mg339 Mg 0.26279 0.28439 0.07629 0.0
C340 C 0.32199 0.33212 0.18747 0.0
C341 C 0.3328 0.32377 0.70632 0.0
O342 O 0.33894 0.31825 0.83501 0.0
O343 O 0.30652 0.24855 0.40238 0.0
O344 O 0.28897 0.24433 0.18836 0.0
O345 O 0.23941 0.33658 0.4306 0.0
O346 O 0.2484 0.29863 0.28085 0.0
C347 C 0.30325 0.23221 0.29192 0.0
C348 C 0.23093 0.32254 0.31837 0.0
O349 O 0.30975 0.3077 0.64952 0.0
Mg350 Mg 0.37982 0.53098 0.19589 0.0
O351 O 0.35047 0.56587 0.06363 0.0
O352 O 0.36014 0.55593 0.84318 0.0
Mg353 Mg 0.39395 0.51279 0.8263 0.0
C354 C 0.34623 0.572 0.93749 0.0
C355 C 0.35459 0.58282 0.45635 0.0
O356 O 0.36013 0.58896 0.58505 0.0
O357 O 0.42981 0.55652 0.15237 0.0
O358 O 0.43402 0.53896 0.93835 0.0
O359 O 0.34178 0.48942 0.18064 0.0
O360 O 0.37972 0.4984 1.03087 0.0
C361 C 0.44614 0.55325 1.04191 0.0
C362 C 0.35581 0.48094 0.06841 0.0
O363 O 0.37067 0.55977 0.39955 0.0
Mg364 Mg 0.14739 0.62985 0.9459 0.0
O365 O 0.1125 0.6005 0.81357 0.0
O366 O 0.12246 0.61015 0.59312 0.0
Mg367 Mg 0.1656 0.64398 0.57633 0.0
C368 C 0.10638 0.59625 0.68741 0.0
C369 C 0.09554 0.60461 0.2063 0.0
O370 O 0.08938 0.61015 0.33497 0.0
O371 O 0.12185 0.67984 0.90237 0.0
O372 O 0.13941 0.68404 0.68837 0.0
O373 O 0.18894 0.59181 0.93067 0.0
O374 O 0.17997 0.62975 0.78092 0.0
C375 C 0.12512 0.69617 0.79191 0.0
C376 C 0.19743 0.60584 0.81846 0.0
O377 O 0.11858 0.6207 0.14952 0.0
Mg378 Mg 0.04855 0.3974 0.69595 0.0
O379 O 0.0779 0.3625 0.56369 0.0
O380 O 0.06823 0.37243 0.34325 0.0
Mg381 Mg 0.03441 0.41557 0.32637 0.0
C382 C 0.08214 0.35637 0.43754 0.0
C383 C 0.07378 0.34557 0.95638 0.0
O384 O 0.06826 0.33945 0.0851 0.0
O385 O -0.00145 0.37186 0.65247 0.0
O386 O -0.00565 0.3894 0.43845 0.0
O387 O 0.08659 0.43896 0.68066 0.0
O388 O 0.04865 0.42997 0.53093 0.0
C389 C -0.01777 0.37512 0.54201 0.0
C390 C 0.07256 0.44744 0.56844 0.0
O391 O 0.05771 0.36863 0.89959 0.0
Mg392 Mg 0.28097 0.62985 0.6405 0.0
O393 O 0.31586 0.60051 0.7728 0.0
O394 O 0.3059 0.61017 0.99325 0.0
Mg395 Mg 0.26277 0.644 1.01006 0.0
C396 C 0.32198 0.59627 0.89895 0.0
C397 C 0.33282 0.60461 0.3801 0.0
O398 O 0.33897 0.61014 0.25142 0.0
O399 O 0.30652 0.67985 0.68403 0.0
O400 O 0.28895 0.68405 0.89804 0.0
O401 O 0.23944 0.5918 0.65568 0.0
O402 O 0.24839 0.62977 0.80546 0.0
C403 C 0.30325 0.69618 0.79449 0.0
C404 C 0.23094 0.60585 0.76785 0.0
O405 O 0.30977 0.62069 0.43689 0.0
Mg406 Mg 0.04853 0.53097 0.39041 0.0
O407 O 0.07788 0.56587 0.52271 0.0
O408 O 0.06822 0.55592 0.74315 0.0
Mg409 Mg 0.03439 0.51278 0.75998 0.0
C410 C 0.08212 0.57199 0.64886 0.0
C411 C 0.07377 0.58281 0.13002 0.0
O412 O 0.06825 0.58894 1.00132 0.0
O413 O -0.00146 0.55652 0.43392 0.0
O414 O -0.00566 0.53896 0.64794 0.0
O415 O 0.08659 0.48943 0.40563 0.0
O416 O 0.04862 0.49839 0.55538 0.0
C417 C -0.01779 0.55325 0.54439 0.0
C418 C 0.07254 0.48094 0.5178 0.0
O419 O 0.0577 0.55976 0.1868 0.0
Mg420 Mg 0.14738 0.29851 0.14044 0.0
O421 O 0.1125 0.32785 0.27283 0.0
O422 O 0.12248 0.31821 0.49327 0.0
Mg423 Mg 0.16561 0.28438 0.50999 0.0
C424 C 0.10639 0.3321 0.39898 0.0
C425 C 0.09553 0.32375 0.88011 0.0
O426 O 0.08936 0.31821 0.75144 0.0
O427 O 0.12185 0.24851 0.184 0.0
O428 O 0.13942 0.24432 0.39799 0.0
O429 O 0.18892 0.33657 0.1556 0.0
O430 O 0.17998 0.2986 0.30537 0.0
C431 C 0.12512 0.23219 0.29446 0.0
C432 C 0.19742 0.32252 0.26776 0.0
O433 O 0.11857 0.30766 0.93687 0.0
Mg434 Mg 0.37984 0.39739 0.89046 0.0
O435 O 0.3505 0.3625 1.02278 0.0
O436 O 0.36015 0.37247 0.24323 0.0
Mg437 Mg 0.39396 0.41561 0.26003 0.0
C438 C 0.34626 0.35638 0.14893 0.0
C439 C 0.35461 0.34554 0.63006 0.0
O440 O 0.36014 0.33938 0.50138 0.0
O441 O 0.42984 0.37185 0.93402 0.0
O442 O 0.43403 0.38943 0.14802 0.0
O443 O 0.34178 0.43893 0.90562 0.0
O444 O 0.37974 0.42998 0.05541 0.0
C445 C 0.44616 0.37513 0.04449 0.0
C446 C 0.35583 0.44742 1.0178 0.0
O447 O 0.37069 0.36858 0.68685 0.0
loop_
_geom_bond_atom_site_label_1
_geom_bond_atom_site_label_2
_geom_bond_distance
_geom_bond_site_symmetry_2
_ccdc_geom_bond_type
Mg0 O1 2.028 . S
Mg0 O7 1.986 . S
Mg0 O9 2.114 . S
Mg0 O10 2.251 . S
Mg0 O13 2.010 1_554 S
O1 Mg0 2.028 . S
O1 C4 1.250 . S
O2 Mg3 2.028 . S
O2 C4 1.248 . S
Mg3 O2 2.028 . S
Mg3 O8 2.032 . S
Mg3 O10 2.079 . S
C4 O1 1.250 . S
C4 O2 1.248 . S
C5 O6 1.264 . S
C5 O13 1.249 . S
O6 C5 1.264 . S
O7 Mg0 1.986 . S
O7 C11 1.246 . S
O8 Mg3 2.032 . S
O8 C11 1.259 . S
O9 Mg0 2.114 . S
O9 C12 1.252 . S
O10 Mg0 2.251 . S
O10 Mg3 2.079 . S
O10 C12 1.273 . S
C11 O7 1.246 . S
C11 O8 1.259 . S
C12 O9 1.252 . S
C12 O10 1.273 . S
O13 Mg0 2.010 1_556 S
O13 C5 1.249 . S
Mg14 O15 2.028 . S
Mg14 O21 1.986 . S
Mg14 O23 2.114 . S
Mg14 O24 2.251 . S
Mg14 O27 2.010 . S
O15 Mg14 2.028 . S
O15 C18 1.250 . S
O16 Mg17 2.028 . S
O16 C18 1.248 . S
Mg17 O16 2.028 . S
Mg17 O22 2.032 . S
Mg17 O24 2.079 . S
C18 O15 1.250 . S
C18 O16 1.248 . S
C19 O20 1.264 . S
C19 O27 1.249 . S
O20 C19 1.264 . S
O21 Mg14 1.986 . S
O21 C25 1.246 . S
O22 Mg17 2.032 . S
O22 C25 1.259 . S
O23 Mg14 2.114 . S
O23 C26 1.252 . S
O24 Mg14 2.251 . S
O24 Mg17 2.079 . S
O24 C26 1.273 . S
C25 O21 1.246 . S
C25 O22 1.259 . S
C26 O23 1.252 . S
C26 O24 1.273 . S
O27 Mg14 2.010 . S
O27 C19 1.249 . S
Mg28 O29 2.028 . S
Mg28 O35 1.986 . S
Mg28 O37 2.114 . S
Mg28 O38 2.251 . S
Mg28 O41 2.010 . S
O29 Mg28 2.028 . S
O29 C32 1.250 . S
O30 Mg31 2.028 . S
O30 C32 1.248 . S
Mg31 O30 2.028 . S
Mg31 O36 2.032 . S
Mg31 O38 2.079 . S
C32 O29 1.250 . S
C32 O30 1.248 . S
C33 O34 1.264 . S
C33 O41 1.249 . S
O34 C33 1.264 . S
O35 Mg28 1.986 . S
O35 C39 1.246 . S
O36 Mg31 2.032 . S
O36 C39 1.259 . S
O37 Mg28 2.114 . S
O37 C40 1.252 . S
O38 Mg28 2.251 . S
O38 Mg31 2.079 . S
O38 C40 1.273 . S
C39 O35 1.246 . S
C39 O36 1.259 . S
C40 O37 1.252 . S
C40 O38 1.273 . S
O41 Mg28 2.010 . S
O41 C33 1.249 . S
Mg42 O43 2.028 . S
Mg42 O49 1.986 . S
Mg42 O51 2.114 . S
Mg42 O52 2.251 1_556 S
Mg42 O55 2.010 . S
O43 Mg42 2.028 . S
O43 C46 1.250 1_556 S
O44 Mg45 2.028 . S
O44 C46 1.248 . S
Mg45 O44 2.028 . S
Mg45 O50 2.032 . S
Mg45 O52 2.079 . S
C46 O43 1.250 1_554 S
C46 O44 1.248 . S
C47 O48 1.264 . S
C47 O55 1.249 . S
O48 C47 1.264 . S
O49 Mg42 1.986 . S
O49 C53 1.246 . S
O50 Mg45 2.032 . S
O50 C53 1.259 1_554 S
O51 Mg42 2.114 . S
O51 C54 1.252 . S
O52 Mg42 2.251 1_554 S
O52 Mg45 2.079 . S
O52 C54 1.273 1_554 S
C53 O49 1.246 . S
C53 O50 1.259 1_556 S
C54 O51 1.252 . S
C54 O52 1.273 1_556 S
O55 Mg42 2.010 . S
O55 C47 1.249 . S
Mg56 O57 2.028 . S
Mg56 O63 1.986 . S
Mg56 O65 2.114 . S
Mg56 O66 2.251 . S
Mg56 O69 2.010 1_556 S
O57 Mg56 2.028 . S
O57 C60 1.250 . S
O58 Mg59 2.028 . S
O58 C60 1.248 . S
Mg59 O58 2.028 . S
Mg59 O64 2.032 . S
Mg59 O66 2.079 . S
C60 O57 1.250 . S
C60 O58 1.248 . S
C61 O62 1.264 . S
C61 O69 1.249 . S
O62 C61 1.264 . S
O63 Mg56 1.986 . S
O63 C67 1.246 . S
O64 Mg59 2.032 . S
O64 C67 1.259 . S
O65 Mg56 2.114 . S
O65 C68 1.252 . S
O66 Mg56 2.251 . S
O66 Mg59 2.079 . S
O66 C68 1.273 . S
C67 O63 1.246 . S
C67 O64 1.259 . S
C68 O65 1.252 . S
C68 O66 1.273 . S
O69 Mg56 2.010 1_554 S
O69 C61 1.249 . S
Mg70 O71 2.028 . S
Mg70 O77 1.986 . S
Mg70 O79 2.114 . S
Mg70 O80 2.251 1_554 S
Mg70 O83 2.010 . S
O71 Mg70 2.028 . S
O71 C74 1.250 1_554 S
O72 Mg73 2.028 . S
O72 C74 1.248 . S
Mg73 O72 2.028 . S
Mg73 O78 2.032 . S
Mg73 O80 2.079 . S
C74 O71 1.250 1_556 S
C74 O72 1.248 . S
C75 O76 1.264 . S
C75 O83 1.249 . S
O76 C75 1.264 . S
O77 Mg70 1.986 . S
O77 C81 1.246 . S
O78 Mg73 2.032 . S
O78 C81 1.259 1_556 S
O79 Mg70 2.114 . S
O79 C82 1.252 . S
O80 Mg70 2.251 1_556 S
O80 Mg73 2.079 . S
O80 C82 1.273 1_556 S
C81 O77 1.246 . S
C81 O78 1.259 1_554 S
C82 O79 1.252 . S
C82 O80 1.273 1_554 S
O83 Mg70 2.010 . S
O83 C75 1.249 . S
Mg84 O85 2.028 . S
Mg84 O91 1.986 . S
Mg84 O93 2.114 . S
Mg84 O94 2.251 . S
Mg84 O97 2.010 . S
O85 Mg84 2.028 . S
O85 C88 1.250 . S
O86 Mg87 2.028 . S
O86 C88 1.248 . S
Mg87 O86 2.028 . S
Mg87 O92 2.032 . S
Mg87 O94 2.079 . S
C88 O85 1.250 . S
C88 O86 1.248 . S
C89 O90 1.264 . S
C89 O97 1.249 . S
O90 C89 1.264 . S
O91 Mg84 1.986 . S
O91 C95 1.246 . S
O92 Mg87 2.032 . S
O92 C95 1.259 . S
O93 Mg84 2.114 . S
O93 C96 1.252 . S
O94 Mg84 2.251 . S
O94 Mg87 2.079 . S
O94 C96 1.273 . S
C95 O91 1.246 . S
C95 O92 1.259 . S
C96 O93 1.252 . S
C96 O94 1.273 . S
O97 Mg84 2.010 . S
O97 C89 1.249 . S
Mg98 O99 2.028 . S
Mg98 O105 1.986 . S
Mg98 O107 2.114 . S
Mg98 O108 2.251 . S
Mg98 O111 2.010 . S
O99 Mg98 2.028 . S
O99 C102 1.250 . S
O100 Mg101 2.028 . S
O100 C102 1.248 . S
Mg101 O100 2.028 . S
Mg101 O106 2.032 . S
Mg101 O108 2.079 . S
C102 O99 1.250 . S
C102 O100 1.248 . S
C103 O104 1.264 . S
C103 O111 1.249 . S
O104 C103 1.264 . S
O105 Mg98 1.986 . S
O105 C109 1.246 . S
O106 Mg101 2.032 . S
O106 C109 1.259 . S
O107 Mg98 2.114 . S
O107 C110 1.252 . S
O108 Mg98 2.251 . S
O108 Mg101 2.079 . S
O108 C110 1.273 . S
C109 O105 1.246 . S
C109 O106 1.259 . S
C110 O107 1.252 . S
C110 O108 1.273 . S
O111 Mg98 2.010 . S
O111 C103 1.249 . S
Mg112 O113 2.028 . S
Mg112 O119 1.986 . S
Mg112 O121 2.114 . S
Mg112 O122 2.251 . S
Mg112 O125 2.010 1_556 S
O113 Mg112 2.028 . S
O113 C116 1.250 . S
O114 Mg115 2.028 . S
O114 C116 1.248 . S
Mg115 O114 2.028 . S
Mg115 O120 2.032 . S
Mg115 O122 2.079 . S
C116 O113 1.250 . S
C116 O114 1.248 . S
C117 O118 1.264 . S
C117 O125 1.249 . S
O118 C117 1.264 . S
O119 Mg112 1.986 . S
O119 C123 1.246 . S
O120 Mg115 2.032 . S
O120 C123 1.259 . S
O121 Mg112 2.114 . S
O121 C124 1.252 . S
O122 Mg112 2.251 . S
O122 Mg115 2.079 . S
O122 C124 1.273 . S
C123 O119 1.246 . S
C123 O120 1.259 . S
C124 O121 1.252 . S
C124 O122 1.273 . S
O125 Mg112 2.010 1_554 S
O125 C117 1.249 . S
Mg126 O127 2.028 . S
Mg126 O133 1.986 . S
Mg126 O135 2.114 . S
Mg126 O136 2.251 . S
Mg126 O139 2.010 . S
O127 Mg126 2.028 . S
O127 C130 1.250 . S
O128 Mg129 2.028 . S
O128 C130 1.248 . S
Mg129 O128 2.028 . S
Mg129 O134 2.032 . S
Mg129 O136 2.079 . S
C130 O127 1.250 . S
C130 O128 1.248 . S
C131 O132 1.264 . S
C131 O139 1.249 . S
O132 C131 1.264 . S
O133 Mg126 1.986 . S
O133 C137 1.246 . S
O134 Mg129 2.032 . S
O134 C137 1.259 . S
O135 Mg126 2.114 . S
O135 C138 1.252 . S
O136 Mg126 2.251 . S
O136 Mg129 2.079 . S
O136 C138 1.273 . S
C137 O133 1.246 . S
C137 O134 1.259 . S
C138 O135 1.252 . S
C138 O136 1.273 . S
O139 Mg126 2.010 . S
O139 C131 1.249 . S
Mg140 O141 2.028 . S
Mg140 O147 1.986 . S
Mg140 O149 2.114 . S
Mg140 O150 2.251 . S
Mg140 O153 2.010 . S
O141 Mg140 2.028 . S
O141 C144 1.250 . S
O142 Mg143 2.028 . S
O142 C144 1.248 . S
Mg143 O142 2.028 . S
Mg143 O148 2.032 . S
Mg143 O150 2.079 . S
C144 O141 1.250 . S
C144 O142 1.248 . S
C145 O146 1.264 . S
C145 O153 1.249 . S
O146 C145 1.264 . S
O147 Mg140 1.986 . S
O147 C151 1.246 . S
O148 Mg143 2.032 . S
O148 C151 1.259 . S
O149 Mg140 2.114 . S
O149 C152 1.252 . S
O150 Mg140 2.251 . S
O150 Mg143 2.079 . S
O150 C152 1.273 . S
C151 O147 1.246 . S
C151 O148 1.259 . S
C152 O149 1.252 . S
C152 O150 1.273 . S
O153 Mg140 2.010 . S
O153 C145 1.249 . S
Mg154 O155 2.028 . S
Mg154 O161 1.986 . S
Mg154 O163 2.114 . S
Mg154 O164 2.251 1_554 S
Mg154 O167 2.010 . S
O155 Mg154 2.028 . S
O155 C158 1.250 1_554 S
O156 Mg157 2.028 . S
O156 C158 1.248 . S
Mg157 O156 2.028 . S
Mg157 O162 2.032 . S
Mg157 O164 2.079 . S
C158 O155 1.250 1_556 S
C158 O156 1.248 . S
C159 O160 1.264 . S
C159 O167 1.249 . S
O160 C159 1.264 . S
O161 Mg154 1.986 . S
O161 C165 1.246 . S
O162 Mg157 2.032 . S
O162 C165 1.259 1_556 S
O163 Mg154 2.114 . S
O163 C166 1.252 . S
O164 Mg154 2.251 1_556 S
O164 Mg157 2.079 . S
O164 C166 1.273 1_556 S
C165 O161 1.246 . S
C165 O162 1.259 1_554 S
C166 O163 1.252 . S
C166 O164 1.273 1_554 S
O167 Mg154 2.010 . S
O167 C159 1.249 . S
Mg168 O169 2.028 . S
Mg168 O175 1.986 . S
Mg168 O177 2.114 . S
Mg168 O178 2.251 . S
Mg168 O181 2.010 1_554 S
O169 Mg168 2.028 . S
O169 C172 1.250 . S
O170 Mg171 2.028 . S
O170 C172 1.248 . S
Mg171 O170 2.028 . S
Mg171 O176 2.032 . S
Mg171 O178 2.079 . S
C172 O169 1.250 . S
C172 O170 1.248 . S
C173 O174 1.264 . S
C173 O181 1.249 . S
O174 C173 1.264 . S
O175 Mg168 1.986 . S
O175 C179 1.246 . S
O176 Mg171 2.032 . S
O176 C179 1.259 . S
O177 Mg168 2.114 . S
O177 C180 1.252 . S
O178 Mg168 2.251 . S
O178 Mg171 2.079 . S
O178 C180 1.273 . S
C179 O175 1.246 . S
C179 O176 1.259 . S
C180 O177 1.252 . S
C180 O178 1.273 . S
O181 Mg168 2.010 1_556 S
O181 C173 1.249 . S
Mg182 O183 2.028 . S
Mg182 O189 1.986 . S
Mg182 O191 2.114 . S
Mg182 O192 2.251 1_556 S
Mg182 O195 2.010 . S
O183 Mg182 2.028 . S
O183 C186 1.250 1_556 S
O184 Mg185 2.028 . S
O184 C186 1.248 . S
Mg185 O184 2.028 . S
Mg185 O190 2.032 . S
Mg185 O192 2.079 . S
C186 O183 1.250 1_554 S
C186 O184 1.248 . S
C187 O188 1.264 . S
C187 O195 1.249 . S
O188 C187 1.264 . S
O189 Mg182 1.986 . S
O189 C193 1.246 . S
O190 Mg185 2.032 . S
O190 C193 1.259 1_554 S
O191 Mg182 2.114 . S
O191 C194 1.252 . S
O192 Mg182 2.251 1_554 S
O192 Mg185 2.079 . S
O192 C194 1.273 1_554 S
C193 O189 1.246 . S
C193 O190 1.259 1_556 S
C194 O191 1.252 . S
C194 O192 1.273 1_556 S
O195 Mg182 2.010 . S
O195 C187 1.249 . S
Mg196 O197 2.028 . S
Mg196 O203 1.986 . S
Mg196 O205 2.114 . S
Mg196 O206 2.251 . S
Mg196 O209 2.010 . S
O197 Mg196 2.028 . S
O197 C200 1.250 . S
O198 Mg199 2.028 . S
O198 C200 1.248 . S
Mg199 O198 2.028 . S
Mg199 O204 2.032 . S
Mg199 O206 2.079 . S
C200 O197 1.250 . S
C200 O198 1.248 . S
C201 O202 1.264 . S
C201 O209 1.249 . S
O202 C201 1.264 . S
O203 Mg196 1.986 . S
O203 C207 1.246 . S
O204 Mg199 2.032 . S
O204 C207 1.259 . S
O205 Mg196 2.114 . S
O205 C208 1.252 . S
O206 Mg196 2.251 . S
O206 Mg199 2.079 . S
O206 C208 1.273 . S
C207 O203 1.246 . S
C207 O204 1.259 . S
C208 O205 1.252 . S
C208 O206 1.273 . S
O209 Mg196 2.010 . S
O209 C201 1.249 . S
Mg210 O211 2.028 . S
Mg210 O217 1.986 . S
Mg210 O219 2.114 . S
Mg210 O220 2.251 . S
Mg210 O223 2.010 . S
O211 Mg210 2.028 . S
O211 C214 1.250 . S
O212 Mg213 2.028 . S
O212 C214 1.248 . S
Mg213 O212 2.028 . S
Mg213 O218 2.032 . S
Mg213 O220 2.079 . S
C214 O211 1.250 . S
C214 O212 1.248 . S
C215 O216 1.264 . S
C215 O223 1.249 . S
O216 C215 1.264 . S
O217 Mg210 1.986 . S
O217 C221 1.246 . S
O218 Mg213 2.032 . S
O218 C221 1.259 . S
O219 Mg210 2.114 . S
O219 C222 1.252 . S
O220 Mg210 2.251 . S
O220 Mg213 2.079 . S
O220 C222 1.273 . S
C221 O217 1.246 . S
C221 O218 1.259 . S
C222 O219 1.252 . S
C222 O220 1.273 . S
O223 Mg210 2.010 . S
O223 C215 1.249 . S
Mg224 O225 2.028 . S
Mg224 O231 1.986 . S
Mg224 O233 2.114 . S
Mg224 O234 2.251 . S
Mg224 O237 2.010 . S
O225 Mg224 2.028 . S
O225 C228 1.250 . S
O226 Mg227 2.028 . S
O226 C228 1.248 . S
Mg227 O226 2.028 . S
Mg227 O232 2.032 . S
Mg227 O234 2.079 . S
C228 O225 1.250 . S
C228 O226 1.248 . S
C229 O230 1.264 . S
C229 O237 1.249 . S
O230 C229 1.264 . S
O231 Mg224 1.986 . S
O231 C235 1.246 . S
O232 Mg227 2.032 . S
O232 C235 1.259 . S
O233 Mg224 2.114 . S
O233 C236 1.252 . S
O234 Mg224 2.251 . S
O234 Mg227 2.079 . S
O234 C236 1.273 . S
C235 O231 1.246 . S
C235 O232 1.259 . S
C236 O233 1.252 . S
C236 O234 1.273 . S
O237 Mg224 2.010 . S
O237 C229 1.249 . S
Mg238 O239 2.028 . S
Mg238 O245 1.986 . S
Mg238 O247 2.114 . S
Mg238 O248 2.251 1_556 S
Mg238 O251 2.010 . S
O239 Mg238 2.028 . S
O239 C242 1.250 1_556 S
O240 Mg241 2.028 . S
O240 C242 1.248 . S
Mg241 O240 2.028 . S
Mg241 O246 2.032 . S
Mg241 O248 2.079 . S
C242 O239 1.250 1_554 S
C242 O240 1.248 . S
C243 O244 1.264 . S
C243 O251 1.249 . S
O244 C243 1.264 . S
O245 Mg238 1.986 . S
O245 C249 1.246 . S
O246 Mg241 2.032 . S
O246 C249 1.259 1_554 S
O247 Mg238 2.114 . S
O247 C250 1.252 . S
O248 Mg238 2.251 1_554 S
O248 Mg241 2.079 . S
O248 C250 1.273 1_554 S
C249 O245 1.246 . S
C249 O246 1.259 1_556 S
C250 O247 1.252 . S
C250 O248 1.273 1_556 S
O251 Mg238 2.010 . S
O251 C243 1.249 . S
Mg252 O253 2.028 . S
Mg252 O259 1.986 . S
Mg252 O261 2.114 . S
Mg252 O262 2.251 . S
Mg252 O265 2.010 1_554 S
O253 Mg252 2.028 . S
O253 C256 1.250 . S
O254 Mg255 2.028 . S
O254 C256 1.248 . S
Mg255 O254 2.028 . S
Mg255 O260 2.032 . S
Mg255 O262 2.079 . S
C256 O253 1.250 . S
C256 O254 1.248 . S
C257 O258 1.264 . S
C257 O265 1.249 . S
O258 C257 1.264 . S
O259 Mg252 1.986 . S
O259 C263 1.246 . S
O260 Mg255 2.032 . S
O260 C263 1.259 . S
O261 Mg252 2.114 . S
O261 C264 1.252 . S
O262 Mg252 2.251 . S
O262 Mg255 2.079 . S
O262 C264 1.273 . S
C263 O259 1.246 . S
C263 O260 1.259 . S
C264 O261 1.252 . S
C264 O262 1.273 . S
O265 Mg252 2.010 1_556 S
O265 C257 1.249 . S
Mg266 O267 2.028 . S
Mg266 O273 1.986 . S
Mg266 O275 2.114 . S
Mg266 O276 2.251 . S
Mg266 O279 2.010 . S
O267 Mg266 2.028 . S
O267 C270 1.250 . S
O268 Mg269 2.028 . S
O268 C270 1.248 . S
Mg269 O268 2.028 . S
Mg269 O274 2.032 . S
Mg269 O276 2.079 . S
C270 O267 1.250 . S
C270 O268 1.248 . S
C271 O272 1.264 . S
C271 O279 1.249 . S
O272 C271 1.264 . S
O273 Mg266 1.986 . S
O273 C277 1.246 . S
O274 Mg269 2.032 . S
O274 C277 1.259 . S
O275 Mg266 2.114 . S
O275 C278 1.252 . S
O276 Mg266 2.251 . S
O276 Mg269 2.079 . S
O276 C278 1.273 . S
C277 O273 1.246 . S
C277 O274 1.259 . S
C278 O275 1.252 . S
C278 O276 1.273 . S
O279 Mg266 2.010 . S
O279 C271 1.249 . S
Mg280 O281 2.028 . S
Mg280 O287 1.986 . S
Mg280 O289 2.114 . S
Mg280 O290 2.251 . S
Mg280 O293 2.010 . S
O281 Mg280 2.028 . S
O281 C284 1.250 . S
O282 Mg283 2.028 . S
O282 C284 1.248 . S
Mg283 O282 2.028 . S
Mg283 O288 2.032 . S
Mg283 O290 2.079 . S
C284 O281 1.250 . S
C284 O282 1.248 . S
C285 O286 1.264 . S
C285 O293 1.249 . S
O286 C285 1.264 . S
O287 Mg280 1.986 . S
O287 C291 1.246 . S
O288 Mg283 2.032 . S
O288 C291 1.259 . S
O289 Mg280 2.114 . S
O289 C292 1.252 . S
O290 Mg280 2.251 . S
O290 Mg283 2.079 . S
O290 C292 1.273 . S
C291 O287 1.246 . S
C291 O288 1.259 . S
C292 O289 1.252 . S
C292 O290 1.273 . S
O293 Mg280 2.010 . S
O293 C285 1.249 . S
Mg294 O295 2.028 . S
Mg294 O301 1.986 . S
Mg294 O303 2.114 . S
Mg294 O304 2.251 . S
Mg294 O307 2.010 . S
O295 Mg294 2.028 . S
O295 C298 1.250 . S
O296 Mg297 2.028 . S
O296 C298 1.248 . S
Mg297 O296 2.028 . S
Mg297 O302 2.032 . S
Mg297 O304 2.079 . S
C298 O295 1.250 . S
C298 O296 1.248 . S
C299 O300 1.264 . S
C299 O307 1.249 . S
O300 C299 1.264 . S
O301 Mg294 1.986 . S
O301 C305 1.246 . S
O302 Mg297 2.032 . S
O302 C305 1.259 . S
O303 Mg294 2.114 . S
O303 C306 1.252 . S
O304 Mg294 2.251 . S
O304 Mg297 2.079 . S
O304 C306 1.273 . S
C305 O301 1.246 . S
C305 O302 1.259 . S
C306 O303 1.252 . S
C306 O304 1.273 . S
O307 Mg294 2.010 . S
O307 C299 1.249 . S
Mg308 O309 2.028 . S
Mg308 O315 1.986 . S
Mg308 O317 2.114 . S
Mg308 O318 2.251 . S
Mg308 O321 2.010 1_556 S
O309 Mg308 2.028 . S
O309 C312 1.250 . S
O310 Mg311 2.028 . S
O310 C312 1.248 . S
Mg311 O310 2.028 . S
Mg311 O316 2.032 . S
Mg311 O318 2.079 . S
C312 O309 1.250 . S
C312 O310 1.248 . S
C313 O314 1.264 . S
C313 O321 1.249 . S
O314 C313 1.264 . S
O315 Mg308 1.986 . S
O315 C319 1.246 . S
O316 Mg311 2.032 . S
O316 C319 1.259 . S
O317 Mg308 2.114 . S
O317 C320 1.252 . S
O318 Mg308 2.251 . S
O318 Mg311 2.079 . S
O318 C320 1.273 . S
C319 O315 1.246 . S
C319 O316 1.259 . S
C320 O317 1.252 . S
C320 O318 1.273 . S
O321 Mg308 2.010 1_554 S
O321 C313 1.249 . S
Mg322 O323 2.028 . S
Mg322 O329 1.986 . S
Mg322 O331 2.114 . S
Mg322 O332 2.251 1_554 S
Mg322 O335 2.010 . S
O323 Mg322 2.028 . S
O323 C326 1.250 1_554 S
O324 Mg325 2.028 . S
O324 C326 1.248 . S
Mg325 O324 2.028 . S
Mg325 O330 2.032 . S
Mg325 O332 2.079 . S
C326 O323 1.250 1_556 S
C326 O324 1.248 . S
C327 O328 1.264 . S
C327 O335 1.249 . S
O328 C327 1.264 . S
O329 Mg322 1.986 . S
O329 C333 1.246 . S
O330 Mg325 2.032 . S
O330 C333 1.259 1_556 S
O331 Mg322 2.114 . S
O331 C334 1.252 . S
O332 Mg322 2.251 1_556 S
O332 Mg325 2.079 . S
O332 C334 1.273 1_556 S
C333 O329 1.246 . S
C333 O330 1.259 1_554 S
C334 O331 1.252 . S
C334 O332 1.273 1_554 S
O335 Mg322 2.010 . S
O335 C327 1.249 . S
Mg336 O337 2.028 . S
Mg336 O343 1.986 . S
Mg336 O345 2.114 . S
Mg336 O346 2.251 . S
Mg336 O349 2.010 . S
O337 Mg336 2.028 . S
O337 C340 1.250 . S
O338 Mg339 2.028 . S
O338 C340 1.248 . S
Mg339 O338 2.028 . S
Mg339 O344 2.032 . S
Mg339 O346 2.079 . S
C340 O337 1.250 . S
C340 O338 1.248 . S
C341 O342 1.264 . S
C341 O349 1.249 . S
O342 C341 1.264 . S
O343 Mg336 1.986 . S
O343 C347 1.246 . S
O344 Mg339 2.032 . S
O344 C347 1.259 . S
O345 Mg336 2.114 . S
O345 C348 1.252 . S
O346 Mg336 2.251 . S
O346 Mg339 2.079 . S
O346 C348 1.273 . S
C347 O343 1.246 . S
C347 O344 1.259 . S
C348 O345 1.252 . S
C348 O346 1.273 . S
O349 Mg336 2.010 . S
O349 C341 1.249 . S
Mg350 O351 2.028 . S
Mg350 O357 1.986 . S
Mg350 O359 2.114 . S
Mg350 O360 2.251 1_554 S
Mg350 O363 2.010 . S
O351 Mg350 2.028 . S
O351 C354 1.250 1_554 S
O352 Mg353 2.028 . S
O352 C354 1.248 . S
Mg353 O352 2.028 . S
Mg353 O358 2.032 . S
Mg353 O360 2.079 . S
C354 O351 1.250 1_556 S
C354 O352 1.248 . S
C355 O356 1.264 . S
C355 O363 1.249 . S
O356 C355 1.264 . S
O357 Mg350 1.986 . S
O357 C361 1.246 . S
O358 Mg353 2.032 . S
O358 C361 1.259 1_556 S
O359 Mg350 2.114 . S
O359 C362 1.252 . S
O360 Mg350 2.251 1_556 S
O360 Mg353 2.079 . S
O360 C362 1.273 1_556 S
C361 O357 1.246 . S
C361 O358 1.259 1_554 S
C362 O359 1.252 . S
C362 O360 1.273 1_554 S
O363 Mg350 2.010 . S
O363 C355 1.249 . S
Mg364 O365 2.028 . S
Mg364 O371 1.986 . S
Mg364 O373 2.114 . S
Mg364 O374 2.251 . S
Mg364 O377 2.010 1_556 S
O365 Mg364 2.028 . S
O365 C368 1.250 . S
O366 Mg367 2.028 . S
O366 C368 1.248 . S
Mg367 O366 2.028 . S
Mg367 O372 2.032 . S
Mg367 O374 2.079 . S
C368 O365 1.250 . S
C368 O366 1.248 . S
C369 O370 1.264 . S
C369 O377 1.249 . S
O370 C369 1.264 . S
O371 Mg364 1.986 . S
O371 C375 1.246 . S
O372 Mg367 2.032 . S
O372 C375 1.259 . S
O373 Mg364 2.114 . S
O373 C376 1.252 . S
O374 Mg364 2.251 . S
O374 Mg367 2.079 . S
O374 C376 1.273 . S
C375 O371 1.246 . S
C375 O372 1.259 . S
C376 O373 1.252 . S
C376 O374 1.273 . S
O377 Mg364 2.010 1_554 S
O377 C369 1.249 . S
Mg378 O379 2.028 . S
Mg378 O385 1.986 . S
Mg378 O387 2.114 . S
Mg378 O388 2.251 . S
Mg378 O391 2.010 . S
O379 Mg378 2.028 . S
O379 C382 1.250 . S
O380 Mg381 2.028 . S
O380 C382 1.248 . S
Mg381 O380 2.028 . S
Mg381 O386 2.032 . S
Mg381 O388 2.079 . S
C382 O379 1.250 . S
C382 O380 1.248 . S
C383 O384 1.264 . S
C383 O391 1.249 . S
O384 C383 1.264 . S
O385 Mg378 1.986 . S
O385 C389 1.246 . S
O386 Mg381 2.032 . S
O386 C389 1.259 . S
O387 Mg378 2.114 . S
O387 C390 1.252 . S
O388 Mg378 2.251 . S
O388 Mg381 2.079 . S
O388 C390 1.273 . S
C389 O385 1.246 . S
C389 O386 1.259 . S
C390 O387 1.252 . S
C390 O388 1.273 . S
O391 Mg378 2.010 . S
O391 C383 1.249 . S
Mg392 O393 2.028 . S
Mg392 O399 1.986 . S
Mg392 O401 2.114 . S
Mg392 O402 2.251 . S
Mg392 O405 2.010 . S
O393 Mg392 2.028 . S
O393 C396 1.250 . S
O394 Mg395 2.028 . S
O394 C396 1.248 . S
Mg395 O394 2.028 . S
Mg395 O400 2.032 . S
Mg395 O402 2.079 . S
C396 O393 1.250 . S
C396 O394 1.248 . S
C397 O398 1.264 . S
C397 O405 1.249 . S
O398 C397 1.264 . S
O399 Mg392 1.986 . S
O399 C403 1.246 . S
O400 Mg395 2.032 . S
O400 C403 1.259 . S
O401 Mg392 2.114 . S
O401 C404 1.252 . S
O402 Mg392 2.251 . S
O402 Mg395 2.079 . S
O402 C404 1.273 . S
C403 O399 1.246 . S
C403 O400 1.259 . S
C404 O401 1.252 . S
C404 O402 1.273 . S
O405 Mg392 2.010 . S
O405 C397 1.249 . S
Mg406 O407 2.028 . S
Mg406 O413 1.986 . S
Mg406 O415 2.114 . S
Mg406 O416 2.251 . S
Mg406 O419 2.010 . S
O407 Mg406 2.028 . S
O407 C410 1.250 . S
O408 Mg409 2.028 . S
O408 C410 1.248 . S
Mg409 O408 2.028 . S
Mg409 O414 2.032 . S
Mg409 O416 2.079 . S
C410 O407 1.250 . S
C410 O408 1.248 . S
C411 O412 1.264 . S
C411 O419 1.249 . S
O412 C411 1.264 . S
O413 Mg406 1.986 . S
O413 C417 1.246 . S
O414 Mg409 2.032 . S
O414 C417 1.259 . S
O415 Mg406 2.114 . S
O415 C418 1.252 . S
O416 Mg406 2.251 . S
O416 Mg409 2.079 . S
O416 C418 1.273 . S
C417 O413 1.246 . S
C417 O414 1.259 . S
C418 O415 1.252 . S
C418 O416 1.273 . S
O419 Mg406 2.010 . S
O419 C411 1.249 . S
Mg420 O421 2.028 . S
Mg420 O427 1.986 . S
Mg420 O429 2.114 . S
Mg420 O430 2.251 . S
Mg420 O433 2.010 1_554 S
O421 Mg420 2.028 . S
O421 C424 1.250 . S
O422 Mg423 2.028 . S
O422 C424 1.248 . S
Mg423 O422 2.028 . S
Mg423 O428 2.032 . S
Mg423 O430 2.079 . S
C424 O421 1.250 . S
C424 O422 1.248 . S
C425 O426 1.264 . S
C425 O433 1.249 . S
O426 C425 1.264 . S
O427 Mg420 1.986 . S
O427 C431 1.246 . S
O428 Mg423 2.032 . S
O428 C431 1.259 . S
O429 Mg420 2.114 . S
O429 C432 1.252 . S
O430 Mg420 2.251 . S
O430 Mg423 2.079 . S
O430 C432 1.273 . S
C431 O427 1.246 . S
C431 O428 1.259 . S
C432 O429 1.252 . S
C432 O430 1.273 . S
O433 Mg420 2.010 1_556 S
O433 C425 1.249 . S
Mg434 O435 2.028 . S
Mg434 O441 1.986 . S
Mg434 O443 2.114 . S
Mg434 O444 2.251 1_556 S
Mg434 O447 2.010 . S
O435 Mg434 2.028 . S
O435 C438 1.250 1_556 S
O436 Mg437 2.028 . S
O436 C438 1.248 . S
Mg437 O436 2.028 . S
Mg437 O442 2.032 . S
Mg437 O444 2.079 . S
C438 O435 1.250 1_554 S
C438 O436 1.248 . S
C439 O440 1.264 . S
C439 O447 1.249 . S
O440 C439 1.264 . S
O441 Mg434 1.986 . S
O441 C445 1.246 . S
O442 Mg437 2.032 . S
O442 C445 1.259 1_554 S
O443 Mg434 2.114 . S
O443 C446 1.252 . S
O444 Mg434 2.251 1_554 S
O444 Mg437 2.079 . S
O444 C446 1.273 1_554 S
C445 O441 1.246 . S
C445 O442 1.259 1_556 S
C446 O443 1.252 . S
C446 O444 1.273 1_556 S
O447 Mg434 2.010 . S
O447 C439 1.249 . S
C96 C12 1.496 . S
C26 C110 1.496 1_565 S
C68 C40 1.496 . S
C54 C82 1.496 1_546 S
C124 C208 1.496 . S
C222 C138 1.496 1_565 S
C152 C180 1.496 . S
C194 C166 1.496 1_546 S
C236 C320 1.496 . S
C250 C334 1.496 1_556 S
C292 C264 1.496 . S
C306 C278 1.496 . S
C348 C432 1.496 . S
C362 C446 1.496 1_554 S
C404 C376 1.496 . S
C390 C418 1.496 . S
C5 C103 1.157 . S
C61 C19 1.157 . S
C75 C33 1.157 . S
C47 C89 1.157 . S
C117 C215 1.157 . S
C173 C131 1.157 . S
C187 C145 1.157 . S
C201 C159 1.157 . S
C229 C327 1.157 . S
C243 C285 1.157 . S
C299 C257 1.157 . S
C271 C313 1.157 . S
C341 C439 1.157 . S
C397 C355 1.157 . S
C369 C411 1.157 . S
C383 C425 1.157 . S
C431 C11 1.466 . S
C221 C25 1.466 1_655 S
C39 C403 1.466 . S
C53 C193 1.466 . S
C67 C375 1.466 . S
C81 C165 1.466 . S
C95 C347 1.466 . S
C137 C109 1.466 1_655 S
C319 C123 1.466 . S
C151 C291 1.466 . S
C263 C179 1.466 . S
C235 C207 1.466 . S
C249 C445 1.466 . S
C277 C417 1.466 1_655 S
C305 C389 1.466 1_655 S
C361 C333 1.466 . S
C4 C102 1.230 . S
C18 C60 1.230 . S
C74 C32 1.230 . S
C46 C88 1.230 . S
C214 C116 1.230 . S
C172 C130 1.230 . S
C144 C186 1.230 . S
C200 C158 1.230 . S
C326 C228 1.230 . S
C284 C242 1.230 . S
C298 C256 1.230 . S
C312 C270 1.230 . S
C340 C438 1.230 . S
C354 C396 1.230 . S
C368 C410 1.230 . S
C424 C382 1.230 . S
