# Generated by pormake.
# Topology teo, (8)-cn, num edge types: 1
# Building blocks:
#     Node 0, Type 0, BuildingBlock: LIZSOE_clean_sbu_0, # of connection points: 8
#     Node 1, Type 0, BuildingBlock: LIZSOE_clean_sbu_0, # of connection points: 8
#     Node 2, Type 0, BuildingBlock: LIZSOE_clean_sbu_0, # of connection points: 8
#     Node 3, Type 0, BuildingBlock: LIZSOE_clean_sbu_0, # of connection points: 8
#     Node 4, Type 0, BuildingBlock: LIZSOE_clean_sbu_0, # of connection points: 8
#     Node 5, Type 0, BuildingBlock: LIZSOE_clean_sbu_0, # of connection points: 8
#     Node 6, Type 0, BuildingBlock: LIZSOE_clean_sbu_0, # of connection points: 8
#     Node 7, Type 0, BuildingBlock: LIZSOE_clean_sbu_0, # of connection points: 8
#     Node 8, Type 0, BuildingBlock: LIZSOE_clean_sbu_0, # of connection points: 8
#     Node 9, Type 0, BuildingBlock: LIZSOE_clean_sbu_0, # of connection points: 8
#     Node 10, Type 0, BuildingBlock: LIZSOE_clean_sbu_0, # of connection points: 8
#     Node 11, Type 0, BuildingBlock: LIZSOE_clean_sbu_0, # of connection points: 8
#     Node 12, Type 0, BuildingBlock: LIZSOE_clean_sbu_0, # of connection points: 8
#     Node 13, Type 0, BuildingBlock: LIZSOE_clean_sbu_0, # of connection points: 8
#     Node 14, Type 0, BuildingBlock: LIZSOE_clean_sbu_0, # of connection points: 8
#     Node 15, Type 0, BuildingBlock: LIZSOE_clean_sbu_0, # of connection points: 8
#     Node 16, Type 0, BuildingBlock: LIZSOE_clean_sbu_0, # of connection points: 8
#     Node 17, Type 0, BuildingBlock: LIZSOE_clean_sbu_0, # of connection points: 8
#     Node 18, Type 0, BuildingBlock: LIZSOE_clean_sbu_0, # of connection points: 8
#     Node 19, Type 0, BuildingBlock: LIZSOE_clean_sbu_0, # of connection points: 8
#     Node 20, Type 0, BuildingBlock: LIZSOE_clean_sbu_0, # of connection points: 8
#     Node 21, Type 0, BuildingBlock: LIZSOE_clean_sbu_0, # of connection points: 8
#     Node 22, Type 0, BuildingBlock: LIZSOE_clean_sbu_0, # of connection points: 8
#     Node 23, Type 0, BuildingBlock: LIZSOE_clean_sbu_0, # of connection points: 8
#     Edge 24, Type (0, 0), BuildingBlock: EZIPEK_clean_linker_0, # of connection points: 2
#     Edge 25, Type (0, 0), BuildingBlock: EZIPEK_clean_linker_0, # of connection points: 2
#     Edge 26, Type (0, 0), BuildingBlock: EZIPEK_clean_linker_0, # of connection points: 2
#     Edge 27, Type (0, 0), BuildingBlock: EZIPEK_clean_linker_0, # of connection points: 2
#     Edge 28, Type (0, 0), BuildingBlock: EZIPEK_clean_linker_0, # of connection points: 2
#     Edge 29, Type (0, 0), BuildingBlock: EZIPEK_clean_linker_0, # of connection points: 2
#     Edge 30, Type (0, 0), BuildingBlock: EZIPEK_clean_linker_0, # of connection points: 2
#     Edge 31, Type (0, 0), BuildingBlock: EZIPEK_clean_linker_0, # of connection points: 2
#     Edge 32, Type (0, 0), BuildingBlock: EZIPEK_clean_linker_0, # of connection points: 2
#     Edge 33, Type (0, 0), BuildingBlock: EZIPEK_clean_linker_0, # of connection points: 2
#     Edge 34, Type (0, 0), BuildingBlock: EZIPEK_clean_linker_0, # of connection points: 2
#     Edge 35, Type (0, 0), BuildingBlock: EZIPEK_clean_linker_0, # of connection points: 2
#     Edge 36, Type (0, 0), BuildingBlock: EZIPEK_clean_linker_0, # of connection points: 2
#     Edge 37, Type (0, 0), BuildingBlock: EZIPEK_clean_linker_0, # of connection points: 2
#     Edge 38, Type (0, 0), BuildingBlock: EZIPEK_clean_linker_0, # of connection points: 2
#     Edge 39, Type (0, 0), BuildingBlock: EZIPEK_clean_linker_0, # of connection points: 2
#     Edge 40, Type (0, 0), BuildingBlock: EZIPEK_clean_linker_0, # of connection points: 2
#     Edge 41, Type (0, 0), BuildingBlock: EZIPEK_clean_linker_0, # of connection points: 2
#     Edge 42, Type (0, 0), BuildingBlock: EZIPEK_clean_linker_0, # of connection points: 2
#     Edge 43, Type (0, 0), BuildingBlock: EZIPEK_clean_linker_0, # of connection points: 2
#     Edge 44, Type (0, 0), BuildingBlock: EZIPEK_clean_linker_0, # of connection points: 2
#     Edge 45, Type (0, 0), BuildingBlock: EZIPEK_clean_linker_0, # of connection points: 2
#     Edge 46, Type (0, 0), BuildingBlock: EZIPEK_clean_linker_0, # of connection points: 2
#     Edge 47, Type (0, 0), BuildingBlock: EZIPEK_clean_linker_0, # of connection points: 2
#     Edge 48, Type (0, 0), BuildingBlock: EZIPEK_clean_linker_0, # of connection points: 2
#     Edge 49, Type (0, 0), BuildingBlock: EZIPEK_clean_linker_0, # of connection points: 2
#     Edge 50, Type (0, 0), BuildingBlock: EZIPEK_clean_linker_0, # of connection points: 2
#     Edge 51, Type (0, 0), BuildingBlock: EZIPEK_clean_linker_0, # of connection points: 2
#     Edge 52, Type (0, 0), BuildingBlock: EZIPEK_clean_linker_0, # of connection points: 2
#     Edge 53, Type (0, 0), BuildingBlock: EZIPEK_clean_linker_0, # of connection points: 2
#     Edge 54, Type (0, 0), BuildingBlock: EZIPEK_clean_linker_0, # of connection points: 2
#     Edge 55, Type (0, 0), BuildingBlock: EZIPEK_clean_linker_0, # of connection points: 2
#     Edge 56, Type (0, 0), BuildingBlock: EZIPEK_clean_linker_0, # of connection points: 2
#     Edge 57, Type (0, 0), BuildingBlock: EZIPEK_clean_linker_0, # of connection points: 2
#     Edge 58, Type (0, 0), BuildingBlock: EZIPEK_clean_linker_0, # of connection points: 2
#     Edge 59, Type (0, 0), BuildingBlock: EZIPEK_clean_linker_0, # of connection points: 2
#     Edge 60, Type (0, 0), BuildingBlock: EZIPEK_clean_linker_0, # of connection points: 2
#     Edge 61, Type (0, 0), BuildingBlock: EZIPEK_clean_linker_0, # of connection points: 2
#     Edge 62, Type (0, 0), BuildingBlock: EZIPEK_clean_linker_0, # of connection points: 2
#     Edge 63, Type (0, 0), BuildingBlock: EZIPEK_clean_linker_0, # of connection points: 2
#     Edge 64, Type (0, 0), BuildingBlock: EZIPEK_clean_linker_0, # of connection points: 2
#     Edge 65, Type (0, 0), BuildingBlock: EZIPEK_clean_linker_0, # of connection points: 2
#     Edge 66, Type (0, 0), BuildingBlock: EZIPEK_clean_linker_0, # of connection points: 2
#     Edge 67, Type (0, 0), BuildingBlock: EZIPEK_clean_linker_0, # of connection points: 2
#     Edge 68, Type (0, 0), BuildingBlock: EZIPEK_clean_linker_0, # of connection points: 2
#     Edge 69, Type (0, 0), BuildingBlock: EZIPEK_clean_linker_0, # of connection points: 2
#     Edge 70, Type (0, 0), BuildingBlock: EZIPEK_clean_linker_0, # of connection points: 2
#     Edge 71, Type (0, 0), BuildingBlock: EZIPEK_clean_linker_0, # of connection points: 2
#     Edge 72, Type (0, 0), BuildingBlock: EZIPEK_clean_linker_0, # of connection points: 2
#     Edge 73, Type (0, 0), BuildingBlock: EZIPEK_clean_linker_0, # of connection points: 2
#     Edge 74, Type (0, 0), BuildingBlock: EZIPEK_clean_linker_0, # of connection points: 2
#     Edge 75, Type (0, 0), BuildingBlock: EZIPEK_clean_linker_0, # of connection points: 2
#     Edge 76, Type (0, 0), BuildingBlock: EZIPEK_clean_linker_0, # of connection points: 2
#     Edge 77, Type (0, 0), BuildingBlock: EZIPEK_clean_linker_0, # of connection points: 2
#     Edge 78, Type (0, 0), BuildingBlock: EZIPEK_clean_linker_0, # of connection points: 2
#     Edge 79, Type (0, 0), BuildingBlock: EZIPEK_clean_linker_0, # of connection points: 2
#     Edge 80, Type (0, 0), BuildingBlock: EZIPEK_clean_linker_0, # of connection points: 2
#     Edge 81, Type (0, 0), BuildingBlock: EZIPEK_clean_linker_0, # of connection points: 2
#     Edge 82, Type (0, 0), BuildingBlock: EZIPEK_clean_linker_0, # of connection points: 2
#     Edge 83, Type (0, 0), BuildingBlock: EZIPEK_clean_linker_0, # of connection points: 2
#     Edge 84, Type (0, 0), BuildingBlock: EZIPEK_clean_linker_0, # of connection points: 2
#     Edge 85, Type (0, 0), BuildingBlock: EZIPEK_clean_linker_0, # of connection points: 2
#     Edge 86, Type (0, 0), BuildingBlock: EZIPEK_clean_linker_0, # of connection points: 2
#     Edge 87, Type (0, 0), BuildingBlock: EZIPEK_clean_linker_0, # of connection points: 2
#     Edge 88, Type (0, 0), BuildingBlock: EZIPEK_clean_linker_0, # of connection points: 2
#     Edge 89, Type (0, 0), BuildingBlock: EZIPEK_clean_linker_0, # of connection points: 2
#     Edge 90, Type (0, 0), BuildingBlock: EZIPEK_clean_linker_0, # of connection points: 2
#     Edge 91, Type (0, 0), BuildingBlock: EZIPEK_clean_linker_0, # of connection points: 2
#     Edge 92, Type (0, 0), BuildingBlock: EZIPEK_clean_linker_0, # of connection points: 2
#     Edge 93, Type (0, 0), BuildingBlock: EZIPEK_clean_linker_0, # of connection points: 2
#     Edge 94, Type (0, 0), BuildingBlock: EZIPEK_clean_linker_0, # of connection points: 2
#     Edge 95, Type (0, 0), BuildingBlock: EZIPEK_clean_linker_0, # of connection points: 2
#     Edge 96, Type (0, 0), BuildingBlock: EZIPEK_clean_linker_0, # of connection points: 2
#     Edge 97, Type (0, 0), BuildingBlock: EZIPEK_clean_linker_0, # of connection points: 2
#     Edge 98, Type (0, 0), BuildingBlock: EZIPEK_clean_linker_0, # of connection points: 2
#     Edge 99, Type (0, 0), BuildingBlock: EZIPEK_clean_linker_0, # of connection points: 2
#     Edge 100, Type (0, 0), BuildingBlock: EZIPEK_clean_linker_0, # of connection points: 2
#     Edge 101, Type (0, 0), BuildingBlock: EZIPEK_clean_linker_0, # of connection points: 2
#     Edge 102, Type (0, 0), BuildingBlock: EZIPEK_clean_linker_0, # of connection points: 2
#     Edge 103, Type (0, 0), BuildingBlock: EZIPEK_clean_linker_0, # of connection points: 2
#     Edge 104, Type (0, 0), BuildingBlock: EZIPEK_clean_linker_0, # of connection points: 2
#     Edge 105, Type (0, 0), BuildingBlock: EZIPEK_clean_linker_0, # of connection points: 2
#     Edge 106, Type (0, 0), BuildingBlock: EZIPEK_clean_linker_0, # of connection points: 2
#     Edge 107, Type (0, 0), BuildingBlock: EZIPEK_clean_linker_0, # of connection points: 2
#     Edge 108, Type (0, 0), BuildingBlock: EZIPEK_clean_linker_0, # of connection points: 2
#     Edge 109, Type (0, 0), BuildingBlock: EZIPEK_clean_linker_0, # of connection points: 2
#     Edge 110, Type (0, 0), BuildingBlock: EZIPEK_clean_linker_0, # of connection points: 2
#     Edge 111, Type (0, 0), BuildingBlock: EZIPEK_clean_linker_0, # of connection points: 2
#     Edge 112, Type (0, 0), BuildingBlock: EZIPEK_clean_linker_0, # of connection points: 2
#     Edge 113, Type (0, 0), BuildingBlock: EZIPEK_clean_linker_0, # of connection points: 2
#     Edge 114, Type (0, 0), BuildingBlock: EZIPEK_clean_linker_0, # of connection points: 2
#     Edge 115, Type (0, 0), BuildingBlock: EZIPEK_clean_linker_0, # of connection points: 2
#     Edge 116, Type (0, 0), BuildingBlock: EZIPEK_clean_linker_0, # of connection points: 2
#     Edge 117, Type (0, 0), BuildingBlock: EZIPEK_clean_linker_0, # of connection points: 2
#     Edge 118, Type (0, 0), BuildingBlock: EZIPEK_clean_linker_0, # of connection points: 2
#     Edge 119, Type (0, 0), BuildingBlock: EZIPEK_clean_linker_0, # of connection points: 2
# Relax obj value: 0.317
# Max RMSD: 0.243
# Mean RMSD: 0.243
data_MOF--net-teo--node1-LIZSOE_clean_sbu_0--edge1-EZIPEK_clean_linker_0
_symmetry_space_group_name_H-M    P1
_symmetry_Int_Tables_number       1
_symmetry_cell_setting            triclinic
loop_
_symmetry_equiv_pos_as_xyz
'x, y, z'
_cell_length_a     35.759247
_cell_length_b     35.821846
_cell_length_c     35.802851
_cell_angle_alpha  89.71517
_cell_angle_beta   89.942152
_cell_angle_gamma 90.031079
loop_
_atom_site_label
_atom_site_type_symbol
_atom_site_fract_x
_atom_site_fract_y
_atom_site_fract_z
_atom_type_partial_charge
Co0 Co 0.95923 0.3448 0.3583 0.0
N1 N 0.91052 0.36776 0.35302 0.0
C2 C 0.88075 0.35138 0.36981 0.0
N3 N 0.85614 0.39519 0.33441 0.0
C4 C 0.89432 0.39473 0.33123 0.0
C5 C 0.84809 0.36822 0.35918 0.0
Co6 Co 0.08151 0.20381 0.35685 0.0
N7 N 0.13085 0.18358 0.35413 0.0
N8 N 0.18474 0.15735 0.33401 0.0
C9 C 0.19345 0.18549 0.3569 0.0
C10 C 0.1608 0.20174 0.36856 0.0
C11 C 0.14671 0.15654 0.33274 0.0
Co12 Co 1.0202 0.27475 0.37038 0.0
C13 C 0.02827 0.18623 0.37381 0.0
H14 H 0.15952 0.22722 0.38434 0.0
O15 O 1.0051 0.32742 0.36878 0.0
O16 O 0.05974 0.27529 0.41699 0.0
O17 O 0.97466 0.27023 0.41042 0.0
O18 O 0.98646 0.26905 0.32477 0.0
O19 O 0.93597 0.30063 0.33847 0.0
O20 O 0.09395 0.22561 0.40078 0.0
O21 O 0.03423 0.22025 0.36156 0.0
O22 O 0.10007 0.24324 0.32788 0.0
O23 O 0.94892 0.32882 0.40585 0.0
O24 O 0.98699 0.38581 0.37204 0.0
O25 O 0.05993 0.28991 0.33325 0.0
O26 O 0.05807 0.1672 0.38291 0.0
C27 C 0.9525 0.2977 0.42294 0.0
C28 C 0.12485 0.13084 0.30832 0.0
H29 H 0.09918 0.12155 0.32309 0.0
H30 H 0.14163 0.10613 0.30029 0.0
H31 H 0.11696 0.146 0.28245 0.0
C32 C 0.08709 0.25097 0.42383 0.0
C33 C 0.95331 0.27946 0.31619 0.0
H34 H 0.88222 0.32697 0.3873 0.0
H35 H 0.90046 0.44562 0.29947 0.0
H36 H 0.94379 0.4261 0.31781 0.0
H37 H 0.9209 0.40519 0.27856 0.0
C38 C 0.91611 0.41958 0.30545 0.0
C39 C 1.01432 0.36232 0.36702 0.0
C40 C 0.08897 0.27542 0.31874 0.0
H41 H 0.82014 0.35968 0.3672 0.0
H42 H 0.22153 0.19526 0.36258 0.0
Co43 Co 0.94137 0.71716 0.59338 0.0
N44 N 0.91046 0.67703 0.57803 0.0
C45 C 0.88549 0.68777 0.55211 0.0
N46 N 0.88516 0.62667 0.54905 0.0
C47 C 0.90949 0.63896 0.57593 0.0
C48 C 0.87164 0.6579 0.53332 0.0
Co49 Co 0.08588 0.82911 0.61315 0.0
N50 N 0.09915 0.87992 0.59759 0.0
N51 N 0.12429 0.93554 0.57777 0.0
C52 C 0.08708 0.9367 0.57335 0.0
C53 C 0.07208 0.90368 0.58554 0.0
C54 C 0.1308 0.90004 0.59112 0.0
Co55 Co 1.01779 0.76714 0.61676 0.0
C56 C 0.10679 0.77408 0.60866 0.0
H57 H 0.04259 0.89736 0.58409 0.0
O58 O 0.96436 0.75776 0.60632 0.0
O59 O 1.01153 0.80584 0.6613 0.0
O60 O 1.0126 0.7226 0.65679 0.0
O61 O 0.02987 0.73222 0.57281 0.0
O62 O 0.97911 0.69745 0.56279 0.0
O63 O 0.04017 0.84883 0.62899 0.0
O64 O 0.07382 0.77931 0.62447 0.0
O65 O 0.07083 0.82441 0.56443 0.0
O66 O 0.96045 0.69204 0.63653 0.0
O67 O 0.90698 0.74146 0.62151 0.0
O68 O 1.01361 0.80726 0.57621 0.0
O69 O 0.1267 0.80383 0.59991 0.0
C70 C 0.987 0.69593 0.66029 0.0
C71 C 0.16752 0.88183 0.59147 0.0
H72 H 0.16843 0.86046 0.61372 0.0
H73 H 0.18945 0.90316 0.59414 0.0
H74 H 0.17073 0.86663 0.56479 0.0
C75 C 0.02766 0.83862 0.66016 0.0
C76 C 1.01227 0.70678 0.55443 0.0
H77 H 0.87724 0.7159 0.54743 0.0
H78 H 0.92276 0.61843 0.63046 0.0
H79 H 0.92843 0.58423 0.59387 0.0
H80 H 0.96154 0.62194 0.59961 0.0
C81 C 0.93175 0.61406 0.60114 0.0
C82 C 0.93098 0.76851 0.61593 0.0
C83 C 0.03761 0.82267 0.55441 0.0
H84 H 0.85113 0.65889 0.51109 0.0
H85 H 0.07158 0.96025 0.56231 0.0
Co86 Co 0.46758 0.85029 0.85333 0.0
N87 N 0.42487 0.88063 0.84287 0.0
C88 C 0.43093 0.91054 0.8207 0.0
N89 N 0.36973 0.90186 0.81897 0.0
C90 C 0.38679 0.87607 0.84152 0.0
C91 C 0.39791 0.92296 0.80569 0.0
Co92 Co 0.57365 0.69908 0.84649 0.0
N93 N 0.616 0.6764 0.8245 0.0
N94 N 0.67216 0.65389 0.80583 0.0
C95 C 0.65057 0.65939 0.77561 0.0
C96 C 0.61642 0.67166 0.78701 0.0
C97 C 0.65061 0.66552 0.8352 0.0
Co98 Co 0.5212 0.77424 0.86533 0.0
C99 C 0.51834 0.69596 0.83551 0.0
H100 H 0.5933 0.67774 0.76849 0.0
O101 O 0.51054 0.82784 0.86379 0.0
O102 O 0.56448 0.77144 0.90758 0.0
O103 O 0.47733 0.77273 0.90625 0.0
O104 O 0.48377 0.76825 0.82196 0.0
O105 O 0.44103 0.81187 0.82809 0.0
O106 O 0.60246 0.72657 0.88242 0.0
O107 O 0.52986 0.71887 0.86166 0.0
O108 O 0.58187 0.73443 0.80893 0.0
O109 O 0.45013 0.83049 0.89863 0.0
O110 O 0.49768 0.88635 0.87464 0.0
O111 O 0.56058 0.78795 0.8277 0.0
O112 O 0.54253 0.67556 0.81781 0.0
C113 C 0.45367 0.79954 0.91656 0.0
C114 C 0.66361 0.66978 0.87418 0.0
H115 H 0.67455 0.69841 0.87825 0.0
H116 H 0.686 0.64982 0.87917 0.0
H117 H 0.64004 0.66575 0.89388 0.0
C118 C 0.59493 0.74971 0.90879 0.0
C119 C 0.45232 0.78254 0.81241 0.0
H120 H 0.45813 0.92212 0.81463 0.0
H121 H 0.37983 0.83799 0.88753 0.0
H122 H 0.33666 0.85252 0.8657 0.0
H123 H 0.36714 0.81966 0.84298 0.0
C124 C 0.36632 0.84494 0.86073 0.0
C125 C 0.52341 0.86155 0.86771 0.0
C126 C 0.57958 0.76895 0.805 0.0
H127 H 0.3946 0.94671 0.78715 0.0
H128 H 0.65823 0.65238 0.74721 0.0
Co129 Co 0.58649 0.33277 0.10569 0.0
N130 N 0.60701 0.3816 0.10171 0.0
C131 C 0.60691 0.40697 0.12948 0.0
N132 N 0.62086 0.43904 0.07827 0.0
C133 C 0.61567 0.40211 0.07064 0.0
C134 C 0.61451 0.44182 0.11526 0.0
Co135 Co 0.45315 0.20635 0.10406 0.0
N136 N 0.43374 0.16042 0.08548 0.0
N137 N 0.41622 0.10253 0.06571 0.0
C138 C 0.42005 0.12535 0.03596 0.0
C139 C 0.43049 0.16004 0.04796 0.0
C140 C 0.4259 0.12439 0.09553 0.0
Co141 Co 0.51761 0.26968 0.12037 0.0
C142 C 0.4307 0.25787 0.11927 0.0
H143 H 0.4356 0.18388 0.0301 0.0
O144 O 0.57062 0.28652 0.11213 0.0
O145 O 0.52065 0.22381 0.16168 0.0
O146 O 0.5136 0.30982 0.1652 0.0
O147 O 0.50178 0.30777 0.08053 0.0
O148 O 0.54608 0.35096 0.07759 0.0
O149 O 0.46618 0.19011 0.15052 0.0
O150 O 0.46634 0.25132 0.12109 0.0
O151 O 0.49872 0.18643 0.08869 0.0
O152 O 0.56345 0.34525 0.14984 0.0
O153 O 0.62482 0.30954 0.13038 0.0
O154 O 0.53009 0.23693 0.07627 0.0
O155 O 0.40925 0.22839 0.1189 0.0
C156 C 0.53705 0.33777 0.17209 0.0
C157 C 0.43534 0.1094 0.1331 0.0
H158 H 0.41937 0.12443 0.15461 0.0
H159 H 0.46541 0.11469 0.13815 0.0
H160 H 0.43065 0.07907 0.13494 0.0
C161 C 0.49478 0.19756 0.1709 0.0
C162 C 0.51513 0.33803 0.06672 0.0
H163 H 0.60152 0.40087 0.15852 0.0
H164 H 0.59207 0.36756 0.02747 0.0
H165 H 0.61637 0.40839 1.01044 0.0
H166 H 0.64199 0.36885 0.02881 0.0
C167 C 0.61642 0.38605 0.03203 0.0
C168 C 0.60486 0.27983 0.12252 0.0
C169 C 0.52356 0.20286 0.07036 0.0
H170 H 0.61713 0.46717 0.1314 0.0
H171 H 0.41349 0.11791 1.00742 0.0
Co172 Co 0.07992 0.83515 0.17922 0.0
N173 N 0.12756 0.85567 0.19245 0.0
C174 C 0.15854 0.84751 0.17253 0.0
N175 N 0.17905 0.87973 0.22063 0.0
C176 C 0.14103 0.87634 0.22155 0.0
C177 C 0.18958 0.86142 0.1897 0.0
Co178 Co 0.96031 0.69464 0.18894 0.0
N179 N 0.91002 0.67506 0.19295 0.0
N180 N 0.85306 0.65129 0.20828 0.0
C181 C 0.84832 0.67678 0.18131 0.0
C182 C 0.8825 0.69139 0.17252 0.0
C183 C 0.89053 0.65076 0.21524 0.0
Co184 Co 0.02316 0.76346 0.17068 0.0
C185 C 1.01406 0.67413 0.17554 0.0
H186 H 0.88616 0.71459 0.15369 0.0
O187 O 0.03216 0.81964 0.1668 0.0
O188 O 0.97888 0.76384 0.12931 0.0
O189 O 0.06219 0.76051 0.1257 0.0
O190 O 0.06566 0.75536 0.2092 0.0
O191 O 0.08118 0.81176 0.2266 0.0
O192 O 0.95044 0.70859 0.13967 0.0
O193 O 1.00807 0.70967 0.18074 0.0
O194 O 0.94062 0.74035 0.20863 0.0
O195 O 0.10444 0.79458 0.15571 0.0
O196 O 0.05283 0.86857 0.19975 0.0
O197 O 0.99182 0.77307 0.21592 0.0
O198 O 0.98457 0.65253 0.17423 0.0
C199 C 0.09399 0.77925 0.12563 0.0
C200 C 0.90716 0.6292 0.24683 0.0
H201 H 0.93816 0.62985 0.24588 0.0
H202 H 0.89634 0.60029 0.24655 0.0
H203 H 0.8967 0.64092 0.27341 0.0
C204 C 0.95551 0.73703 0.11911 0.0
C205 C 0.08045 0.77736 0.23328 0.0
H206 H 0.15894 0.83286 0.14643 0.0
H207 H 0.1329 0.91127 0.27019 0.0
H208 H 0.09645 0.91353 0.23546 0.0
H209 H 0.09995 0.87325 0.26508 0.0
C210 C 0.11643 0.89475 0.24991 0.0
C211 C 0.02431 0.84991 0.18642 0.0
C212 C 0.96021 0.7626 0.22803 0.0
H213 H 0.21793 0.85982 0.17915 0.0
H214 H 0.82162 0.6854 0.16992 0.0
Co215 Co 0.58936 0.7142 0.43916 0.0
N216 N 0.60947 0.67034 0.46214 0.0
C217 C 0.61041 0.6737 0.4997 0.0
N218 N 0.62652 0.61531 0.48973 0.0
C219 C 0.61826 0.63363 0.45701 0.0
C220 C 0.6199 0.64069 0.51636 0.0
Co221 Co 0.45629 0.838 0.44416 0.0
N222 N 0.43612 0.88649 0.45307 0.0
N223 N 0.41717 0.93959 0.48252 0.0
C224 C 0.43699 0.94863 0.4517 0.0
C225 C 0.44813 0.91672 0.43394 0.0
C226 C 0.41729 0.90128 0.48278 0.0
Co227 Co 0.52306 0.77455 0.42372 0.0
C228 C 0.43503 0.78439 0.4338 0.0
H229 H 0.46572 0.91591 0.40945 0.0
O230 O 0.5751 0.75827 0.41932 0.0
O231 O 0.51971 0.81499 0.37844 0.0
O232 O 0.51992 0.72775 0.38374 0.0
O233 O 0.51623 0.74215 0.46941 0.0
O234 O 0.54462 0.69247 0.45323 0.0
O235 O 0.4666 0.84767 0.39427 0.0
O236 O 0.47083 0.79139 0.43396 0.0
O237 O 0.50258 0.86035 0.45579 0.0
O238 O 0.57645 0.69627 0.39288 0.0
O239 O 0.63282 0.73691 0.42456 0.0
O240 O 0.54002 0.81249 0.46208 0.0
O241 O 0.41266 0.81321 0.43421 0.0
C242 C 0.54635 0.7023 0.37379 0.0
C243 C 0.40187 0.87748 0.51359 0.0
H244 H 0.39203 0.85042 0.50229 0.0
H245 H 0.37908 0.89209 0.52864 0.0
H246 H 0.42456 0.87105 0.5337 0.0
C247 C 0.49259 0.83983 0.37102 0.0
C248 C 0.52452 0.70865 0.47628 0.0
H249 H 0.60342 0.69865 0.51472 0.0
H250 H 0.59765 0.63089 0.40091 0.0
H251 H 0.64462 0.61528 0.40874 0.0
H252 H 0.60634 0.58628 0.42238 0.0
C253 C 0.61623 0.61538 0.42005 0.0
C254 C 0.61062 0.76573 0.42253 0.0
C255 C 0.53141 0.846 0.46977 0.0
H256 H 0.62397 0.63622 0.54603 0.0
H257 H 0.44214 0.97684 0.44194 0.0
Co258 Co 0.57823 0.34008 0.69999 0.0
N259 N 0.62108 0.36549 0.7188 0.0
C260 C 0.61627 0.37289 0.75547 0.0
N261 N 0.67504 0.38722 0.74458 0.0
C262 C 0.65781 0.37461 0.71281 0.0
C263 C 0.64865 0.3855 0.77115 0.0
Co264 Co 0.45844 0.20124 0.69422 0.0
N265 N 0.40963 0.18136 0.70922 0.0
N266 N 0.34985 0.16505 0.72508 0.0
C267 C 0.36997 0.16794 0.75628 0.0
C268 C 0.40546 0.17748 0.74667 0.0
C269 C 0.37384 0.17487 0.69689 0.0
Co270 Co 0.52203 0.26793 0.67892 0.0
C271 C 0.51144 0.17906 0.68645 0.0
H272 H 0.42665 0.18167 0.76701 0.0
O273 O 0.53611 0.32119 0.6833 0.0
O274 O 0.47771 0.27154 0.63692 0.0
O275 O 0.5657 0.2696 0.63669 0.0
O276 O 0.55867 0.25262 0.71886 0.0
O277 O 0.59743 0.29933 0.72653 0.0
O278 O 0.44505 0.21646 0.6459 0.0
O279 O 0.50624 0.21481 0.68055 0.0
O280 O 0.43811 0.24608 0.71056 0.0
O281 O 0.59989 0.32127 0.65533 0.0
O282 O 0.55491 0.37939 0.67662 0.0
O283 O 0.48857 0.27724 0.7225 0.0
O284 O 0.48225 0.1579 0.68078 0.0
C285 C 0.5935 0.29462 0.63202 0.0
C286 C 0.35951 0.18877 0.66041 0.0
H287 H 0.3482 0.21722 0.66454 0.0
H288 H 0.33631 0.17127 0.65014 0.0
H289 H 0.38196 0.191 0.63985 0.0
C290 C 0.45208 0.24603 0.62647 0.0
C291 C 0.58657 0.2671 0.73511 0.0
H292 H 0.59074 0.36796 0.77066 0.0
H293 H 0.65736 0.37171 0.65286 0.0
H294 H 0.70081 0.38887 0.67303 0.0
H295 H 0.68904 0.34016 0.67585 0.0
C296 C 0.67736 0.36883 0.67637 0.0
C297 C 0.52673 0.35613 0.67883 0.0
C298 C 0.45597 0.26754 0.73139 0.0
H299 H 0.65249 0.39362 0.8 0.0
H300 H 0.36027 0.16071 0.78407 0.0
Co301 Co 0.95305 0.32364 0.93866 0.0
N302 N 0.92669 0.36792 0.95456 0.0
C303 C 0.91264 0.36513 0.98954 0.0
N304 N 0.90668 0.42467 0.97562 0.0
C305 C 0.92344 0.4054 0.94707 0.0
C306 C 0.90049 0.39894 1.00219 0.0
Co307 Co 0.08713 0.20234 0.93324 0.0
N308 N 0.10302 0.15513 0.95345 0.0
N309 N 0.12185 0.09692 0.96945 0.0
C310 C 0.12643 0.11915 0.99898 0.0
C311 C 0.11484 0.15407 0.98947 0.0
C312 C 0.10688 0.11889 0.94224 0.0
Co313 Co 0.02475 0.26767 0.91778 0.0
C314 C 0.10162 0.25366 0.9454 0.0
H315 H 0.11585 0.17731 1.00846 0.0
O316 O 0.97275 0.28226 0.92441 0.0
O317 O 1.01798 0.22226 0.87798 0.0
O318 O 0.02418 0.30917 0.87434 0.0
O319 O 0.04155 0.3068 0.95505 0.0
O320 O 0.99212 0.34152 0.96745 0.0
O321 O 0.06701 0.18263 0.8912 0.0
O322 O 0.07833 0.25124 0.91698 0.0
O323 O 0.04415 0.18802 0.95938 0.0
O324 O 0.97435 0.34465 0.89461 0.0
O325 O 0.9156 0.29909 0.91239 0.0
O326 O 1.01211 0.23832 0.96354 0.0
O327 O 0.10173 0.22799 0.97115 0.0
C328 C 1.00038 0.3378 0.87071 0.0
C329 C 0.09211 0.1037 0.90626 0.0
H330 H 0.06116 0.10493 0.90719 0.0
H331 H 0.10053 0.07421 0.90222 0.0
H332 H 0.10144 0.1205 0.8821 0.0
C333 C 0.03987 0.1928 0.87027 0.0
C334 C 0.02569 0.3328 0.97329 0.0
H335 H 0.91204 0.33995 1.00588 0.0
H336 H 0.93812 0.40772 0.88906 0.0
H337 H 0.93277 0.45307 0.91103 0.0
H338 H 0.97305 0.42446 0.92025 0.0
C339 C 0.94251 0.42396 0.91481 0.0
C340 C 0.93915 0.27145 0.91709 0.0
C341 C 1.01862 0.20583 0.97458 0.0
H342 H 0.88712 0.40422 0.02881 0.0
H343 H 0.13933 0.111 0.02515 0.0
Co344 Co 0.34882 0.9731 0.34949 0.0
N345 N 0.3352 0.93326 0.38234 0.0
C346 C 0.30383 0.94037 0.40213 0.0
N347 N 0.31237 0.88047 0.40935 0.0
C348 C 0.3397 0.89565 0.38715 0.0
C349 C 0.29005 0.90891 0.4184 0.0
Co350 Co 0.35013 0.0701 0.19119 0.0
N351 N 0.34212 0.11283 0.16122 0.0
N352 N 0.32106 0.16838 0.13896 0.0
C353 C 0.30645 0.14059 0.11854 0.0
C354 C 0.31971 0.10724 0.13165 0.0
C355 C 0.34256 0.15085 0.16517 0.0
Co356 Co 0.36244 1.02012 0.26986 0.0
C357 C 0.36962 1.01704 0.18159 0.0
H358 H 0.31241 0.08025 0.12075 0.0
O359 O 0.36038 1.01298 0.32383 0.0
O360 O 0.40583 0.06154 0.26908 0.0
O361 O 0.40289 0.97553 0.27134 0.0
O362 O 0.31946 0.98354 0.26497 0.0
O363 O 0.31955 0.94758 0.31508 0.0
O364 O 0.3925 0.09109 0.21463 0.0
O365 O 0.35733 0.02728 0.21443 0.0
O366 O 0.31741 0.09148 0.22545 0.0
O367 O 0.39195 0.95002 0.32941 0.0
O368 O 0.3761 1.00313 0.38155 0.0
O369 O 0.32195 0.05894 0.27753 0.0
O370 O 0.37955 0.04427 0.15931 0.0
C371 C 0.41101 0.95166 0.29897 0.0
C372 C 0.36234 0.17063 0.19615 0.0
H373 H 0.36053 0.20137 0.19313 0.0
H374 H 0.39215 0.16279 0.19612 0.0
H375 H 0.35021 0.16193 0.22337 0.0
C376 C 0.41323 0.0872 0.24335 0.0
C377 C 0.30574 0.95649 0.28408 0.0
H378 H 0.29058 0.9669 0.4039 0.0
H379 H 0.39692 0.88623 0.37253 0.0
H380 H 0.36921 0.84397 0.37709 0.0
H381 H 0.36373 0.87443 0.33703 0.0
C382 C 0.36911 0.87347 0.36753 0.0
C383 C 0.36747 0.02775 0.35603 0.0
C384 C 0.30536 0.08346 0.25751 0.0
H385 H 0.26499 0.90683 0.43532 0.0
H386 H 0.28796 0.14435 0.09488 0.0
Co387 Co 0.21798 0.09826 0.46122 0.0
N388 N 0.17387 0.08005 0.43842 0.0
C389 C 0.17211 0.04247 0.4361 0.0
N390 N 0.1173 0.06197 0.41587 0.0
C391 C 0.13958 0.09118 0.42629 0.0
C392 C 0.13806 0.03148 0.42282 0.0
Co393 Co 0.3387 0.12557 0.60061 0.0
N394 N 0.38924 0.11794 0.61901 0.0
N395 N 0.44625 0.09595 0.63709 0.0
C396 C 0.45125 0.12673 0.61639 0.0
C397 C 0.41712 0.13985 0.60597 0.0
C398 C 0.40836 0.0909 0.63836 0.0
Co399 Co 0.2743 0.12501 0.53191 0.0
C400 C 0.28426 0.11218 0.61793 0.0
H401 H 0.41321 0.16431 0.58957 0.0
O402 O 0.26144 0.11348 0.4784 0.0
O403 O 0.31262 0.17019 0.52287 0.0
O404 O 0.22797 0.16478 0.52871 0.0
O405 O 0.24019 0.08245 0.54934 0.0
O406 O 0.20167 0.07209 0.50263 0.0
O407 O 0.35858 0.14513 0.55598 0.0
O408 O 0.28887 0.13115 0.5865 0.0
O409 O 0.34409 0.07763 0.58049 0.0
O410 O 0.19533 0.14273 0.47877 0.0
O411 O 0.2385 0.12317 0.42181 0.0
O412 O 0.31524 0.08485 0.52639 0.0
O413 O 0.31363 0.10672 0.6392 0.0
C414 C 0.20024 0.16771 0.50369 0.0
C415 C 0.39048 0.05739 0.65599 0.0
H416 H 0.35981 0.05748 0.65257 0.0
H417 H 0.39665 0.05584 0.68606 0.0
H418 H 0.40342 0.03201 0.6442 0.0
C419 C 0.34548 0.17329 0.53923 0.0
C420 C 0.21255 0.06503 0.53514 0.0
H421 H 0.19413 0.02373 0.44466 0.0
H422 H 0.15273 0.14937 0.42348 0.0
H423 H 0.11059 0.13418 0.39997 0.0
H424 H 0.11131 0.13772 0.44987 0.0
C425 C 0.12805 0.13078 0.42479 0.0
C426 C 0.26822 0.12074 0.44308 0.0
C427 C 0.33763 0.06637 0.54784 0.0
H428 H 0.12957 1.00303 0.41715 0.0
H429 H 0.47801 0.13914 0.60944 0.0
Co430 Co 0.1921 0.96346 0.69646 0.0
N431 N 0.21148 0.92415 0.66699 0.0
C432 C 0.23814 0.93593 0.64313 0.0
N433 N 0.2418 0.87495 0.64086 0.0
C434 C 0.21432 0.88624 0.66519 0.0
C435 C 0.25793 0.90666 0.62915 0.0
Co436 Co 0.18373 0.07863 0.83322 0.0
N437 N 0.20346 0.12508 0.85182 0.0
N438 N 0.22817 0.18056 0.87169 0.0
C439 C 0.25589 0.15826 0.85984 0.0
C440 C 0.24104 0.1252 0.84819 0.0
C441 C 0.19624 0.16018 0.86519 0.0
Co442 Co 0.16673 1.01563 0.76909 0.0
C443 C 0.17179 0.0272 0.85721 0.0
H444 H 0.257 0.10238 0.83666 0.0
O445 O 0.17427 1.00306 0.71729 0.0
O446 O 0.12595 0.0613 0.76575 0.0
O447 O 0.12422 0.97271 0.76432 0.0
O448 O 0.20371 0.97679 0.7855 0.0
O449 O 0.21771 0.94108 0.73782 0.0
O450 O 0.13671 0.0947 0.82021 0.0
O451 O 0.16612 0.03175 0.82142 0.0
O452 O 0.19868 0.09888 0.78649 0.0
O453 O 0.14604 0.94062 0.71231 0.0
O454 O 0.17107 0.98992 0.65814 0.0
O455 O 0.21122 0.04756 0.7588 0.0
O456 O 0.16977 0.05743 0.87741 0.0
C457 C 0.12121 0.94582 0.73821 0.0
C458 C 0.15762 0.17521 0.86845 0.0
H459 H 0.14078 0.16656 0.84401 0.0
H460 H 0.15715 0.20596 0.87096 0.0
H461 H 0.14494 0.16289 0.89352 0.0
C462 C 0.11649 0.08724 0.79144 0.0
C463 C 0.22296 0.95076 0.77136 0.0
H464 H 0.24194 0.96434 0.63489 0.0
H465 H 0.15955 0.87069 0.68407 0.0
H466 H 0.19043 0.83155 0.67542 0.0
H467 H 0.19646 0.86035 0.71604 0.0
C468 C 0.18875 0.86045 0.68618 0.0
C469 C 0.17376 1.01586 0.68342 0.0
C470 C 0.21782 0.08158 0.76307 0.0
H471 H 0.28104 0.90859 0.60965 0.0
H472 H 0.28542 0.16496 0.86102 0.0
Co473 Co 0.33077 0.93503 0.94824 0.0
N474 N 0.37594 0.95382 0.92806 0.0
C475 C 0.376 0.99111 0.92301 0.0
N476 N 0.43345 0.97342 0.90899 0.0
C477 C 0.41194 0.94382 0.9207 0.0
C478 C 0.41056 1.00307 0.91198 0.0
Co479 Co 0.21726 0.93932 0.08571 0.0
N480 N 0.17627 0.95881 0.11253 0.0
N481 N 0.12423 0.98684 0.13524 0.0
C482 C 0.15201 1.01185 0.13469 0.0
C483 C 0.18315 0.99491 0.12086 0.0
C484 C 0.13936 0.95462 0.12157 0.0
Co485 Co 0.27039 0.91801 1.0135 0.0
C486 C 0.27073 0.92247 0.0992 0.0
H487 H 0.2094 1.00872 0.1164 0.0
O488 O 0.28458 0.91751 0.96099 0.0
O489 O 0.22799 0.87421 1.01816 0.0
O490 O 0.31595 0.8781 1.01655 0.0
O491 O 0.30336 0.96355 0.02279 0.0
O492 O 0.35429 0.94863 0.99501 0.0
O493 O 0.19652 0.89244 0.07181 0.0
O494 O 0.25789 0.92307 0.0655 0.0
O495 O 0.19316 0.96044 0.04485 0.0
O496 O 0.34636 0.88751 0.95996 0.0
O497 O 0.30685 0.92273 0.90408 0.0
O498 O 0.23148 0.95485 0.99759 0.0
O499 O 0.24494 0.92037 0.1249 0.0
C500 C 0.34052 0.86818 0.98988 0.0
C501 C 0.11765 0.91947 0.11577 0.0
H502 H 0.1001 0.91366 0.14069 0.0
H503 H 0.13651 0.89558 0.11051 0.0
H504 H 0.09873 0.92317 0.09149 0.0
C505 C 0.20192 0.86889 0.04507 0.0
C506 C 0.33836 0.96755 1.01964 0.0
H507 H 0.35182 1.00869 0.9261 0.0
H508 H 0.4072 0.88458 0.92218 0.0
H509 H 0.45476 0.90168 0.92099 0.0
H510 H 0.42763 0.90516 0.96262 0.0
C511 C 0.42655 0.90655 0.9317 0.0
C512 C 0.27742 0.92251 0.92545 0.0
C513 C 0.20182 0.96769 1.0117 0.0
H514 H 0.41783 0.03148 0.90443 0.0
H515 H 0.14989 0.04046 0.14411 0.0
Co516 Co 0.19855 0.34949 0.0748 0.0
N517 N 0.17668 0.32947 0.11968 0.0
C518 C 0.16976 0.29221 0.11968 0.0
N519 N 0.15839 0.30948 0.17727 0.0
C520 C 0.17026 0.33911 0.15592 0.0
C521 C 0.16005 0.28 0.15443 0.0
Co522 Co 0.35132 0.34978 0.96988 0.0
N523 N 0.38429 0.33476 0.93111 0.0
N524 N 0.40846 0.30319 0.88172 0.0
C525 C 0.43036 0.2974 0.91165 0.0
C526 C 0.41557 0.31638 0.94146 0.0
C527 C 0.38083 0.32646 0.89407 0.0
Co528 Co 0.27345 0.36568 1.01839 0.0
C529 C 0.35975 0.36577 0.02453 0.0
H530 H 0.42626 0.31545 0.96965 0.0
O531 O 0.21749 0.36227 0.02802 0.0
O532 O 0.27528 0.4073 0.97457 0.0
O533 O 0.27354 0.40714 0.06188 0.0
O534 O 0.28624 0.32658 0.05584 0.0
O535 O 0.23473 0.31279 0.08522 0.0
O536 O 0.33329 0.39545 0.94842 0.0
O537 O 0.32684 0.36336 1.00936 0.0
O538 O 0.31371 0.32474 0.94244 0.0
O539 O 0.22661 0.38605 0.1001 0.0
O540 O 0.17423 0.3196 0.04624 0.0
O541 O 0.26529 0.32418 0.97996 0.0
O542 O 0.38659 0.37181 1.00084 0.0
C543 C 0.25215 0.40996 0.09229 0.0
C544 C 0.34877 0.33938 0.87028 0.0
H545 H 0.33339 0.36255 0.88373 0.0
H546 H 0.3294 0.31562 0.86571 0.0
H547 H 0.35876 0.34892 0.84254 0.0
C548 C 0.30333 0.41549 0.95095 0.0
C549 C 0.26867 0.3069 0.07908 0.0
H550 H 0.17324 0.27399 0.09596 0.0
H551 H 0.17664 0.39858 0.15289 0.0
H552 H 0.1738 0.37932 0.20022 0.0
H553 H 0.21485 0.37383 0.17297 0.0
C554 C 0.18393 0.37506 0.17159 0.0
C555 C 0.19409 0.33483 1.01991 0.0
C556 C 0.28162 0.31279 0.95041 0.0
H557 H 0.1522 0.25172 0.16191 0.0
H558 H 0.45562 0.28076 0.91183 0.0
Co559 Co 0.69176 0.18683 0.97604 0.0
N560 N 0.65825 0.20061 0.93828 0.0
C561 C 0.63667 0.22989 0.94747 0.0
N562 N 0.63447 0.22725 0.88571 0.0
C563 C 0.65638 0.19927 0.90032 0.0
C564 C 0.62371 0.24701 0.91579 0.0
Co565 Co 0.85014 0.19493 0.07106 0.0
N566 N 0.88073 0.20841 0.11309 0.0
N567 N 0.90221 0.23682 0.16592 0.0
C568 C 0.92359 0.24724 0.1368 0.0
C569 C 0.91085 0.22973 0.10514 0.0
C570 C 0.87619 0.21322 0.15087 0.0
Co571 Co 0.77187 0.17507 0.02191 0.0
C572 C 0.86046 0.17288 1.01846 0.0
H573 H 0.92203 0.23377 0.07738 0.0
O574 O 0.71773 0.1732 1.01554 0.0
O575 O 0.77735 0.13172 0.06302 0.0
O576 O 0.77089 0.13573 0.97607 0.0
O577 O 0.7747 0.21905 0.98624 0.0
O578 O 0.72794 0.21268 0.94714 0.0
O579 O 0.83006 0.1511 0.09355 0.0
O580 O 0.82694 0.18326 0.02883 0.0
O581 O 0.81311 0.22455 0.09245 0.0
O582 O 0.71006 0.14148 0.95424 0.0
O583 O 0.6573 0.16622 1.00682 0.0
O584 O 0.76084 0.21225 0.06204 0.0
O585 O 0.88408 0.167 0.04562 0.0
C586 C 0.74236 0.12501 0.95414 0.0
C587 C 0.84498 0.19627 0.17313 0.0
H588 H 0.83331 0.21725 0.19264 0.0
H589 H 0.85625 0.17292 0.1902 0.0
H590 H 0.82248 0.18548 0.15492 0.0
C591 C 0.80347 0.12749 0.08915 0.0
C592 C 0.75694 0.22974 0.95717 0.0
H593 H 0.63382 0.24055 0.9755 0.0
H594 H 0.67236 0.14289 0.88863 0.0
H595 H 0.67148 0.17309 0.84797 0.0
H596 H 0.70847 0.17665 0.88187 0.0
C597 C 0.67814 0.17145 0.87803 0.0
C598 C 0.68421 0.17415 0.02989 0.0
C599 C 0.7788 0.22996 0.08676 0.0
H600 H 0.60757 0.27258 0.91489 0.0
H601 H 0.94729 0.26597 0.1385 0.0
Co602 Co 0.11146 0.44725 0.20744 0.0
N603 N 0.11018 0.42782 0.15816 0.0
C604 C 0.12324 0.45018 0.13053 0.0
N605 N 0.09191 0.40613 0.10151 0.0
C606 C 0.09148 0.40066 0.13956 0.0
C607 C 0.11102 0.43816 0.09687 0.0
Co608 Co 0.10407 0.59536 0.31502 0.0
N609 N 0.08129 0.62253 0.35591 0.0
N610 N 0.05731 0.64793 0.4092 0.0
C611 C 0.03067 0.64773 0.38288 0.0
C612 C 0.0453 0.63322 0.35082 0.0
C613 C 0.08792 0.63211 0.39232 0.0
Co614 Co 0.12126 0.51732 0.26711 0.0
C615 C 0.09946 0.59871 0.25748 0.0
H616 H 0.02952 0.62943 0.32543 0.0
O617 O 0.11774 0.46325 0.25461 0.0
O618 O 0.16121 0.51897 0.31147 0.0
O619 O 0.16558 0.51823 0.22482 0.0
O620 O 0.07688 0.5235 0.23282 0.0
O621 O 0.09252 0.49186 0.18468 0.0
O622 O 0.13669 0.56714 0.34632 0.0
O623 O 0.12114 0.57339 0.27312 0.0
O624 O 0.06467 0.56178 0.32394 0.0
O625 O 0.15968 0.46071 0.19959 0.0
O626 O 0.12427 0.40554 0.23395 0.0
O627 O 0.08096 0.50611 0.30575 0.0
O628 O 0.07838 0.61864 0.27944 0.0
C629 C 0.17822 0.49043 0.2035 0.0
C630 C 0.12381 0.62351 0.41195 0.0
H631 H 0.1478 0.6287 0.39295 0.0
H632 H 0.12412 0.59348 0.41964 0.0
H633 H 0.12664 0.64011 0.43784 0.0
C634 C 0.16136 0.54141 0.34116 0.0
C635 C 0.06841 0.51161 0.20082 0.0
H636 H 0.13753 0.47635 0.13462 0.0
H637 H 0.04421 0.38366 0.17179 0.0
H638 H 0.06291 0.34779 0.14161 0.0
H639 H 0.08684 0.36216 0.1843 0.0
C640 C 0.07011 0.37137 0.16005 0.0
C641 C 0.11817 0.42776 0.26222 0.0
C642 C 0.05834 0.52731 0.32286 0.0
H643 H 0.11504 0.45282 0.07065 0.0
H644 H 1.00238 0.65782 0.38662 0.0
Co645 Co 0.69273 0.85706 0.56998 0.0
N646 N 0.66151 0.84629 0.61098 0.0
C647 C 0.63017 0.82692 0.60332 0.0
N648 N 0.63754 0.82195 0.66435 0.0
C649 C 0.66527 0.84309 0.64884 0.0
C650 C 0.6158 0.81183 0.63549 0.0
Co651 Co 0.84015 0.84552 0.46359 0.0
N652 N 0.86734 0.82433 0.42285 0.0
N653 N 0.89703 0.79455 0.37442 0.0
C654 C 0.88833 0.76985 0.40152 0.0
C655 C 0.87199 0.78787 0.43047 0.0
C656 C 0.88012 0.82698 0.38682 0.0
Co657 Co 0.76848 0.86879 0.51763 0.0
C658 C 0.85426 0.86584 0.51648 0.0
H659 H 0.86138 0.7741 0.45485 0.0
O660 O 0.71593 0.86815 0.52923 0.0
O661 O 0.77145 0.90909 0.47186 0.0
O662 O 0.77023 0.91189 0.56002 0.0
O663 O 0.77835 0.82827 0.5571 0.0
O664 O 0.73015 0.82826 0.59548 0.0
O665 O 0.82563 0.89104 0.44092 0.0
O666 O 0.82038 0.86434 0.50439 0.0
O667 O 0.79864 0.82286 0.4408 0.0
O668 O 0.7138 0.90138 0.58949 0.0
O669 O 0.65774 0.88153 0.54027 0.0
O670 O 0.75424 0.82742 0.48253 0.0
O671 O 0.87949 0.86605 0.49004 0.0
C672 C 0.74383 0.92077 0.5852 0.0
C673 C 0.86817 0.85823 0.36148 0.0
H674 H 0.8691 0.84967 0.33175 0.0
H675 H 0.8865 0.88262 0.36537 0.0
H676 H 0.83931 0.86706 0.36865 0.0
C677 C 0.7982 0.91404 0.44565 0.0
C678 C 0.76193 0.81583 0.58633 0.0
H679 H 0.61921 0.82261 0.57558 0.0
H680 H 0.70625 0.88615 0.65848 0.0
H681 H 0.68951 0.86296 0.70028 0.0
H682 H 0.7215 0.83987 0.66917 0.0
C683 C 0.69729 0.85914 0.67053 0.0
C684 C 0.68302 0.87363 0.51534 0.0
C685 C 0.76691 0.81351 0.45263 0.0
H686 H 0.59084 0.79483 0.6377 0.0
H687 H 0.89096 0.73992 0.4005 0.0
Co688 Co 0.94683 0.9482 0.3267 0.0
N689 N 0.95235 0.9247 0.37384 0.0
C690 C 0.92879 0.92965 0.40292 0.0
N691 N 0.9785 0.90205 0.42696 0.0
C692 C 0.98318 0.9087 0.38971 0.0
C693 C 0.94456 0.91617 0.43491 0.0
Co694 Co 0.94578 0.09529 0.21801 0.0
N695 N 0.9639 0.12172 0.1762 0.0
N696 N 0.9832 0.14638 0.12086 0.0
C697 C 1.01277 0.14313 0.14382 0.0
C698 C 1.00101 0.12833 0.17712 0.0
C699 C 0.95388 0.13176 0.14084 0.0
Co700 Co 0.93043 0.02206 0.27058 0.0
C701 C 0.93147 0.10906 0.27187 0.0
H702 H 1.01882 0.12205 0.20064 0.0
O703 O 0.93946 0.96751 0.28165 0.0
O704 O 0.89126 0.02209 0.22388 0.0
O705 O 0.8849 0.02063 0.30981 0.0
O706 O 0.9681 0.03555 0.31056 0.0
O707 O 0.97292 0.98763 0.34882 0.0
O708 O 0.8996 0.08159 0.19901 0.0
O709 O 0.92874 0.07504 0.25976 0.0
O710 O 0.96439 0.05424 0.19188 0.0
O711 O 0.90091 0.96804 0.34073 0.0
O712 O 0.92379 0.91066 0.30024 0.0
O713 O 0.9753 1.01564 0.23726 0.0
O714 O 0.92933 0.13495 0.24618 0.0
C715 C 0.87804 0.99448 0.33521 0.0
C716 C 0.91576 0.12498 0.12574 0.0
H717 H 0.91328 0.09504 0.1185 0.0
H718 H 0.91118 0.14174 0.10046 0.0
H719 H 0.89427 0.13156 0.14701 0.0
C720 C 0.88131 0.0506 0.20114 0.0
C721 C 0.98158 0.02051 0.33981 0.0
H722 H 0.90166 0.94265 0.40171 0.0
H723 H 0.04055 0.92085 0.37626 0.0
H724 H 0.02857 0.87222 0.37485 0.0
H725 H 1.01404 0.90429 0.33783 0.0
C726 C 1.01844 0.9008 0.36832 0.0
C727 C 0.93007 0.93352 0.27233 0.0
C728 C 0.98376 0.02849 0.20541 0.0
H729 H 0.93138 0.91553 0.46215 0.0
H730 H 0.04111 0.15141 0.137 0.0
Co731 Co 0.20808 0.68516 0.46433 0.0
N732 N 0.19217 0.69378 0.41388 0.0
C733 C 0.21443 0.68249 0.38607 0.0
N734 N 0.17004 0.71627 0.35794 0.0
C735 C 0.16459 0.71342 0.39603 0.0
C736 C 0.20243 0.69738 0.35292 0.0
Co737 Co 0.34696 0.6918 0.56754 0.0
N738 N 0.37095 0.71565 0.61063 0.0
N739 N 0.38989 0.7394 0.66718 0.0
C740 C 0.38544 0.76741 0.64245 0.0
C741 C 0.37546 0.75315 0.6086 0.0
C742 C 0.38003 0.70806 0.64718 0.0
Co743 Co 0.27027 0.67171 0.51763 0.0
C744 C 0.34837 0.70042 0.51046 0.0
H745 H 0.36955 0.77006 0.58422 0.0
O746 O 0.21658 0.67646 0.51276 0.0
O747 O 0.27407 0.63215 0.56255 0.0
O748 O 0.26584 0.62746 0.4764 0.0
O749 O 0.27591 0.71179 0.47673 0.0
O750 O 0.21985 0.73698 0.46886 0.0
O751 O 0.3242 0.65434 0.59584 0.0
O752 O 0.3265 0.67372 0.523 0.0
O753 O 0.31119 0.72457 0.58087 0.0
O754 O 0.20491 0.63482 0.45852 0.0
O755 O 0.1617 0.68852 0.48944 0.0
O756 O 0.25991 0.71364 0.55263 0.0
O757 O 0.36308 0.72369 0.53452 0.0
C758 C 0.23523 0.61581 0.45821 0.0
C759 C 0.37923 0.66957 0.66289 0.0
H760 H 0.36159 0.66807 0.68819 0.0
H761 H 0.40804 0.66162 0.66961 0.0
H762 H 0.36888 0.64914 0.64263 0.0
C763 C 0.29834 0.6301 0.59068 0.0
C764 C 0.25558 0.73998 0.46767 0.0
H765 H 0.24017 0.66734 0.39021 0.0
H766 H 0.1098 0.73828 0.39787 0.0
H767 H 0.12071 0.70752 0.43602 0.0
H768 H 0.14159 0.75274 0.43436 0.0
C769 C 0.13209 0.72903 0.41694 0.0
C770 C 0.1815 0.68234 0.51921 0.0
C771 C 0.27778 0.73181 0.57644 0.0
H772 H 0.21827 0.69579 0.32726 0.0
H773 H 0.39022 0.79667 0.64827 0.0
Co774 Co 0.44333 0.60159 0.71887 0.0
N775 N 0.46887 0.61968 0.67519 0.0
C776 C 0.50273 0.63449 0.68288 0.0
N777 N 0.49708 0.63995 0.62184 0.0
C778 C 0.4664 0.62309 0.63711 0.0
C779 C 0.51996 0.64647 0.6508 0.0
Co780 Co 0.4367 0.45157 0.82408 0.0
N781 N 0.44012 0.42596 0.8713 0.0
N782 N 0.45627 0.40562 0.92981 0.0
C783 C 0.41903 0.40867 0.92695 0.0
C784 C 0.40922 0.41916 0.89171 0.0
C785 C 0.46875 0.41776 0.89568 0.0
Co786 Co 0.41998 0.52632 0.76986 0.0
C787 C 0.42014 0.43928 0.76905 0.0
H788 H 0.38081 0.4231 0.8823 0.0
O789 O 0.41881 0.5828 0.76318 0.0
O790 O 0.37822 0.52691 0.81283 0.0
O791 O 0.37994 0.52597 0.7277 0.0
O792 O 0.45692 0.51653 0.72929 0.0
O793 O 0.48583 0.56948 0.72531 0.0
O794 O 0.39412 0.4735 0.84034 0.0
O795 O 0.43031 0.47239 0.77924 0.0
O796 O 0.46657 0.48892 0.84544 0.0
O797 O 0.41123 0.56746 0.69017 0.0
O798 O 0.41916 0.58421 0.76289 0.0
O799 O 0.46226 0.53653 0.80578 0.0
O800 O 0.40934 0.41771 0.79672 0.0
C801 C 0.38224 0.5469 0.69731 0.0
C802 C 0.50902 0.42572 0.88747 0.0
H803 H 0.51579 0.4178 0.85848 0.0
H804 H 0.52782 0.41086 0.90714 0.0
H805 H 0.51411 0.45602 0.89077 0.0
C806 C 0.37204 0.50047 0.83762 0.0
C807 C 0.48536 0.5349 0.71997 0.0
H808 H 0.51413 0.63687 0.71074 0.0
H809 H 0.42503 0.63251 0.59476 0.0
H810 H 0.44289 0.58588 0.59703 0.0
H811 H 0.41017 0.6013 0.63172 0.0
C812 C 0.43398 0.60999 0.61419 0.0
C813 C 0.4101 0.6021 0.79201 0.0
C814 C 0.47738 0.52045 0.83369 0.0
H815 H 0.54647 0.66102 0.64906 0.0
H816 H 0.39991 0.40559 0.94939 0.0
Co817 Co 0.8595 0.46093 0.84663 0.0
N818 N 0.8516 0.41314 0.86827 0.0
C819 C 0.87234 0.38332 0.85828 0.0
N820 N 0.82238 0.3595 0.88562 0.0
C821 C 0.8208 0.39755 0.88466 0.0
C822 C 0.85484 0.35108 0.86872 0.0
Co823 Co 0.85917 0.58603 0.71173 0.0
N824 N 0.84421 0.63744 0.70056 0.0
N825 N 0.82315 0.69351 0.67773 0.0
C826 C 0.8258 0.69566 0.71501 0.0
C827 C 0.83831 0.66205 0.72864 0.0
C828 C 0.8344 0.65777 0.66975 0.0
Co829 Co 0.87196 0.52049 0.77638 0.0
C830 C 0.84909 0.53203 0.69075 0.0
H831 H 0.84148 0.6559 0.758 0.0
O832 O 0.86955 0.50591 0.82971 0.0
O833 O 0.91716 0.55871 0.77835 0.0
O834 O 0.91293 0.47597 0.77346 0.0
O835 O 0.8274 0.48665 0.76785 0.0
O836 O 0.84171 0.43877 0.80306 0.0
O837 O 0.88321 0.60375 0.75444 0.0
O838 O 0.87078 0.53569 0.72052 0.0
O839 O 0.81398 0.58282 0.73656 0.0
O840 O 0.90785 0.44984 0.83174 0.0
O841 O 0.87328 0.48686 0.88845 0.0
O842 O 0.83318 0.56004 0.79034 0.0
O843 O 0.83748 0.56275 0.67411 0.0
C844 C 0.92513 0.45341 0.80068 0.0
C845 C 0.83382 0.64155 0.63189 0.0
H846 H 0.80615 0.62834 0.62744 0.0
H847 H 0.8553 0.61948 0.62931 0.0
H848 H 0.83811 0.66403 0.61101 0.0
C849 C 0.9152 0.5918 0.76279 0.0
C850 C 0.81964 0.45416 0.78042 0.0
H851 H 0.89765 0.38428 0.84212 0.0
H852 H 0.76932 0.4243 0.87104 0.0
H853 H 0.77102 0.40526 0.91781 0.0
H854 H 0.79646 0.44765 0.90541 0.0
C855 C 0.7874 0.41985 0.89582 0.0
C856 C 0.86821 0.51452 0.86495 0.0
C857 C 0.80843 0.57652 0.77061 0.0
H858 H 0.86521 0.32308 0.86414 0.0
H859 H 0.81795 0.71966 0.73154 0.0
Co860 Co 0.71019 0.60555 0.94971 0.0
N861 N 0.66083 0.60416 0.93045 0.0
C862 C 0.63303 0.61444 0.95404 0.0
N863 N 0.60458 0.58497 0.90875 0.0
C864 C 0.64239 0.58578 0.90286 0.0
C865 C 0.59942 0.60225 0.94149 0.0
Co866 Co 0.83247 0.60271 0.08863 0.0
N867 N 0.88067 0.59474 0.10887 0.0
N868 N 0.93601 0.56899 0.12575 0.0
C869 C 0.94111 0.60536 0.1185 0.0
C870 C 0.90763 0.62109 0.10907 0.0
C871 C 0.89902 0.56296 0.11921 0.0
Co872 Co 0.77008 0.61706 0.02095 0.0
C873 C 0.78002 0.6126 0.11024 0.0
H874 H 0.90385 0.65009 0.10205 0.0
O875 O 0.75583 0.60916 0.96688 0.0
O876 O 0.81611 0.65681 1.01578 0.0
O877 O 0.73084 0.66388 0.02236 0.0
O878 O 0.72978 0.57917 0.03571 0.0
O879 O 0.69034 0.57841 0.98859 0.0
O880 O 0.84413 0.64993 0.07285 0.0
O881 O 0.78591 0.61492 0.07418 0.0
O882 O 0.85376 0.58298 0.04296 0.0
O883 O 0.69946 0.65021 0.97005 0.0
O884 O 0.73602 0.62883 0.91193 0.0
O885 O 0.80327 0.57269 1.01115 0.0
O886 O 0.8091 0.61766 0.13153 0.0
C887 C 0.70553 0.67234 0.99633 0.0
C888 C 0.88098 0.52535 0.12061 0.0
H889 H 0.88903 0.51056 0.14669 0.0
H890 H 0.89125 0.50856 0.09673 0.0
H891 H 0.85013 0.52785 0.11883 0.0
C892 C 0.83998 0.66793 0.04242 0.0
C893 C 0.69989 0.56721 1.0203 0.0
H894 H 0.637 0.62686 0.98112 0.0
H895 H 0.67209 0.53919 0.88055 0.0
H896 H 0.64284 0.56301 0.84745 0.0
H897 H 0.68697 0.58335 0.86291 0.0
C898 C 0.66205 0.56698 0.87129 0.0
C899 C 0.7643 0.61889 0.93286 0.0
C900 C 0.8376 0.56589 1.01666 0.0
H901 H 0.57291 0.60524 0.95582 0.0
H902 H 0.9675 0.61956 0.11939 0.0
Co903 Co 0.67241 0.45152 0.20671 0.0
N904 N 0.68753 0.40133 0.19592 0.0
C905 C 0.69356 0.37696 0.2244 0.0
N906 N 0.71412 0.34805 0.17445 0.0
C907 C 0.70078 0.38263 0.1655 0.0
C908 C 0.70965 0.34496 0.21153 0.0
Co909 Co 0.6845 0.57318 0.34255 0.0
N910 N 0.69924 0.61821 0.36687 0.0
N911 N 0.71915 0.67427 0.38903 0.0
C912 C 0.74304 0.64753 0.40017 0.0
C913 C 0.73117 0.61395 0.38641 0.0
C914 C 0.69272 0.65591 0.36854 0.0
Co915 Co 0.66242 0.5169 0.27091 0.0
C916 C 0.6595 0.52492 0.35938 0.0
H917 H 0.74585 0.58774 0.38938 0.0
O918 O 0.66089 0.50319 0.21443 0.0
O919 O 0.62289 0.56206 0.26976 0.0
O920 O 0.61634 0.47891 0.27584 0.0
O921 O 0.7009 0.4768 0.28404 0.0
O922 O 0.7173 0.45362 0.23136 0.0
O923 O 0.64472 0.5966 0.31781 0.0
O924 O 0.67198 0.52887 0.32516 0.0
O925 O 0.71836 0.58612 0.30594 0.0
O926 O 0.64597 0.43297 0.24803 0.0
O927 O 0.69602 0.47204 0.17265 0.0
O928 O 0.70568 0.55097 0.2569 0.0
O929 O 0.6508 0.55585 0.37589 0.0
C930 C 0.61553 0.44588 0.25994 0.0
C931 C 0.66109 0.675 0.34899 0.0
H932 H 0.66629 0.67466 0.31848 0.0
H933 H 0.65809 0.70437 0.35817 0.0
H934 H 0.63477 0.65971 0.3543 0.0
C935 C 0.62046 0.59107 0.29249 0.0
C936 C 0.72563 0.46129 0.26401 0.0
H937 H 0.68897 0.38268 0.25364 0.0
H938 H 0.73035 0.4128 0.12278 0.0
H939 H 0.69895 0.37738 0.10551 0.0
H940 H 0.68191 0.42109 0.12384 0.0
C941 C 0.70286 0.39916 0.1271 0.0
C942 C 0.68446 0.50406 0.18533 0.0
C943 C 0.72515 0.57609 0.27295 0.0
H944 H 0.71844 0.32139 0.22842 0.0
H945 H 0.76755 0.65209 0.4173 0.0
Co946 Co 0.82259 0.44202 0.44965 0.0
N947 N 0.86712 0.46324 0.42783 0.0
C948 C 0.86632 0.50081 0.4242 0.0
N949 N 0.92223 0.48506 0.40334 0.0
C950 C 0.9028 0.45473 0.41708 0.0
C951 C 0.89917 0.51393 0.40971 0.0
Co952 Co 0.70822 0.42904 0.59207 0.0
N953 N 0.65752 0.44083 0.60919 0.0
N954 N 0.6019 0.46021 0.63539 0.0
C955 C 0.59763 0.45409 0.59855 0.0
C956 C 0.62997 0.44157 0.58346 0.0
C957 C 0.64017 0.45557 0.63998 0.0
Co958 Co 0.7669 0.42119 0.52035 0.0
C959 C 0.76338 0.44278 0.60645 0.0
H960 H 0.63325 0.43688 0.5539 0.0
O961 O 0.77827 0.42401 0.46586 0.0
O962 O 0.73143 0.37321 0.52071 0.0
O963 O 0.81526 0.38426 0.51926 0.0
O964 O 0.79631 0.46925 0.52692 0.0
O965 O 0.84414 0.4557 0.49335 0.0
O966 O 0.68714 0.4021 0.55254 0.0
O967 O 0.75723 0.42089 0.57734 0.0
O968 O 0.70448 0.47343 0.56612 0.0
O969 O 0.84109 0.39421 0.46081 0.0
O970 O 0.79802 0.4292 0.40709 0.0
O971 O 0.72266 0.45648 0.51002 0.0
O972 O 0.73442 0.45286 0.62654 0.0
C973 C 0.83833 0.37483 0.49119 0.0
C974 C 0.66332 0.47536 0.6685 0.0
H975 H 0.64722 0.49433 0.68657 0.0
H976 H 0.68424 0.49308 0.65396 0.0
H977 H 0.67911 0.45433 0.6847 0.0
C978 C 0.69965 0.37209 0.53927 0.0
C979 C 0.82754 0.47894 0.51297 0.0
H980 H 0.84307 0.51835 0.43157 0.0
H981 H 0.89896 0.3956 0.42619 0.0
H982 H 0.94136 0.41243 0.40522 0.0
H983 H 0.93317 0.41938 0.45379 0.0
C984 C 0.91993 0.41811 0.42582 0.0
C985 C 0.76999 0.42886 0.43049 0.0
C986 C 0.70595 0.47947 0.53162 0.0
H987 H 0.90509 0.54276 0.40261 0.0
H988 H 0.57333 0.46095 0.58198 0.0
Co989 Co 0.61074 0.08457 0.84035 0.0
N990 N 0.60907 0.0989 0.89197 0.0
C991 C 0.61867 0.07297 0.91776 0.0
N992 N 0.58639 0.11486 0.94956 0.0
C993 C 0.58973 0.12433 0.91235 0.0
C994 C 0.60412 0.08176 0.9518 0.0
Co995 Co 0.60822 0.95621 0.7116 0.0
N996 N 0.58764 0.93742 0.66697 0.0
N997 N 0.56763 0.91658 0.61055 0.0
C998 C 0.53779 0.92379 0.63228 0.0
C999 C 0.54995 0.93608 0.66627 0.0
C1000 C 0.59768 0.92688 0.63191 0.0
Co1001 Co 0.62602 1.02001 0.77364 0.0
C1002 C 0.62324 0.9332 0.76238 0.0
H1003 H 0.53212 0.94378 0.68931 0.0
O1004 O 0.6154 0.0725 0.79248 0.0
O1005 O 0.6655 0.02424 0.72623 0.0
O1006 O 0.67249 1.01723 0.81216 0.0
O1007 O 0.58826 1.0011 0.81143 0.0
O1008 O 0.58682 0.04138 0.85721 0.0
O1009 O 0.65434 0.96906 0.69396 0.0
O1010 O 0.62747 0.96877 0.75569 0.0
O1011 O 0.593 1.00214 0.69152 0.0
O1012 O 0.65651 0.06596 0.84823 0.0
O1013 O 0.63048 0.12665 0.81739 0.0
O1014 O 0.58085 0.03177 0.74243 0.0
O1015 O 0.62255 0.91181 0.73303 0.0
C1016 C 0.67977 0.04136 0.83926 0.0
C1017 C 0.63643 0.93153 0.6179 0.0
H1018 H 0.6568 0.92425 0.63993 0.0
H1019 H 0.64055 0.96124 0.61017 0.0
H1020 H 0.64091 0.91455 0.5931 0.0
C1021 C 0.67436 0.99824 0.70011 0.0
C1022 C 0.57658 1.01097 0.84339 0.0
H1023 H 0.63174 0.04656 0.91154 0.0
H1024 H 0.54577 0.15423 0.88512 0.0
H1025 H 0.57542 0.181 0.91603 0.0
H1026 H 0.59159 0.16613 0.87007 0.0
C1027 C 0.57474 0.15871 0.89495 0.0
C1028 C 0.62192 0.10793 0.78706 0.0
C1029 C 0.57424 0.02616 0.70837 0.0
H1030 H 0.60456 0.0632 0.97567 0.0
H1031 H 0.50893 0.91884 0.62454 0.0
C1032 C 0.10668 0.40032 0.32702 0.0
C1033 C 0.09322 0.41289 0.29182 0.0
C1034 C 0.03324 0.38278 0.30385 0.0
C1035 C 0.04431 0.37468 0.34099 0.0
N1036 N 0.09113 0.376 0.389 0.0
N1037 N 0.04058 0.42264 0.25032 0.0
C1038 C 0.08107 0.38342 0.35298 0.0
C1039 C 0.05556 0.40621 0.28147 0.0
N1040 N 0.14371 0.40421 0.33528 0.0
N1041 N 1.0018 0.36692 0.28921 0.0
H1042 H 0.05558 0.43984 0.23228 0.0
H1043 H 1.01205 0.42217 0.24435 0.0
H1044 H 0.98527 0.34827 0.30406 0.0
H1045 H 0.99475 0.3686 0.26101 0.0
H1046 H 0.15618 0.39269 0.35893 0.0
H1047 H 0.16235 0.41756 0.31715 0.0
H1048 H 0.1163 0.38462 0.40072 0.0
H1049 H 0.07315 0.36246 0.40766 0.0
C1050 C 0.90113 0.78823 0.55735 0.0
C1051 C 0.91415 0.79898 0.59283 0.0
C1052 C 0.8815 0.85884 0.58261 0.0
C1053 C 0.8642 0.84353 0.55028 0.0
N1054 N 0.84575 0.78638 0.52026 0.0
N1055 N 0.91447 0.84545 0.64117 0.0
C1056 C 0.8693 0.80545 0.54303 0.0
C1057 C 0.90324 0.83459 0.60658 0.0
N1058 N 0.92145 0.76521 0.53503 0.0
N1059 N 0.87776 0.89593 0.58975 0.0
H1060 H 0.93165 0.82859 0.65771 0.0
H1061 H 0.90539 0.87005 0.65364 0.0
H1062 H 0.86099 0.91304 0.57302 0.0
H1063 H 0.89206 0.9094 0.61113 0.0
H1064 H 0.91299 0.75887 0.50788 0.0
H1065 H 0.94833 0.75663 0.54187 0.0
H1066 H 0.84892 0.75801 0.51504 0.0
H1067 H 0.82157 0.79809 0.50928 0.0
C1068 C 0.47194 0.68653 0.78593 0.0
C1069 C 0.47883 0.6903 0.82469 0.0
C1070 C 0.42416 0.6515 0.83835 0.0
C1071 C 0.42455 0.6401 0.80058 0.0
N1072 N 0.43078 0.66242 0.7384 0.0
N1073 N 0.45576 0.68565 0.8878 0.0
C1074 C 0.44314 0.66234 0.77406 0.0
C1075 C 0.4523 0.67672 0.85097 0.0
N1076 N 0.49423 0.70497 0.76084 0.0
N1077 N 0.39768 0.63706 0.86188 0.0
H1078 H 0.47626 0.70374 0.89742 0.0
H1079 H 0.4388 0.67523 0.909 0.0
H1080 H 0.37684 0.61901 0.85241 0.0
H1081 H 0.39477 0.64425 0.88982 0.0
H1082 H 0.4935 0.70083 0.73212 0.0
H1083 H 0.5141 0.72453 0.76929 0.0
H1084 H 0.44214 0.67921 0.71758 0.0
H1085 H 0.40636 0.64809 0.73151 0.0
C1086 C 0.66992 0.23893 0.05032 0.0
C1087 C 0.67354 0.20088 0.06057 0.0
C1088 C 0.63305 0.21387 0.11543 0.0
C1089 C 0.62584 0.25036 0.10125 0.0
N1090 N 0.629 0.29169 0.04768 0.0
N1091 N 0.66058 0.15211 0.10465 0.0
C1092 C 0.64186 0.26109 0.06661 0.0
C1093 C 0.6555 0.18828 0.09378 0.0
N1094 N 0.69359 0.2545 0.02492 0.0
N1095 N 0.61819 0.2038 0.14912 0.0
H1096 H 0.67877 0.13439 0.09036 0.0
H1097 H 0.64701 0.13966 0.12719 0.0
H1098 H 0.60106 0.22178 0.16433 0.0
H1099 H 0.6237 0.17861 0.16257 0.0
H1100 H 0.69435 0.28302 1.01896 0.0
H1101 H 0.71573 0.23974 1.0141 0.0
H1102 H 0.63717 0.2981 1.02042 0.0
H1103 H 0.60667 0.30772 0.05677 0.0
C1104 C 0.07341 0.66965 0.21288 0.0
C1105 C 0.05112 0.65672 0.18299 0.0
C1106 C 0.08984 0.59953 0.18606 0.0
C1107 C 0.10649 0.61433 0.2189 0.0
N1108 N 0.13583 0.66593 0.1928 0.0
N1109 N 0.046 0.6105 0.13435 0.0
C1110 C 0.10873 0.65308 0.21618 0.0
C1111 C 0.06175 0.62169 0.16698 0.0
N1112 N 0.05821 0.68732 0.24277 0.0
N1113 N 0.10759 0.57103 0.16882 0.0
H1114 H 0.02934 0.6286 0.11869 0.0
H1115 H 0.05055 0.58439 0.1226 0.0
H1116 H 0.13028 0.55825 0.18173 0.0
H1117 H 0.10101 0.56153 0.14219 0.0
H1118 H 0.0737 0.69134 0.2671 0.0
H1119 H 0.03009 0.69491 0.24416 0.0
H1120 H 0.13149 0.68925 0.17574 0.0
H1121 H 0.16052 0.65087 0.1886 0.0
C1122 C 0.65625 0.81235 0.50049 0.0
C1123 C 0.66938 0.84682 0.48656 0.0
C1124 C 0.6417 0.83018 0.42585 0.0
C1125 C 0.62375 0.7991 0.44313 0.0
N1126 N 0.60613 0.76879 0.50065 0.0
N1127 N 0.67314 0.89014 0.43524 0.0
C1128 C 0.62798 0.79353 0.48176 0.0
C1129 C 0.6616 0.85647 0.44883 0.0
N1130 N 0.6724 0.79598 0.53067 0.0
N1131 N 0.64009 0.83417 0.38803 0.0
H1132 H 0.68875 0.90859 0.45148 0.0
H1133 H 0.66583 0.9001 0.40886 0.0
H1134 H 0.62462 0.81589 0.37146 0.0
H1135 H 0.65524 0.85434 0.3734 0.0
H1136 H 0.66509 0.76944 0.54035 0.0
H1137 H 0.69689 0.80636 0.54162 0.0
H1138 H 0.60643 0.76646 0.52972 0.0
H1139 H 0.58537 0.75359 0.48751 0.0
C1140 C 0.48072 0.40645 0.75586 0.0
C1141 C 0.44638 0.42025 0.7418 0.0
C1142 C 0.46293 0.38987 0.68182 0.0
C1143 C 0.49359 0.37143 0.69949 0.0
N1144 N 0.52186 0.35443 0.75844 0.0
N1145 N 0.40399 0.42393 0.68985 0.0
C1146 C 0.49883 0.37689 0.73807 0.0
C1147 C 0.43708 0.41158 0.70411 0.0
N1148 N 0.49758 0.42211 0.78591 0.0
N1149 N 0.45869 0.38672 0.64416 0.0
H1150 H 0.38588 0.4407 0.70532 0.0
H1151 H 0.39401 0.41625 0.66368 0.0
H1152 H 0.47629 0.36983 0.62822 0.0
H1153 H 0.43913 0.40196 0.6289 0.0
H1154 H 0.52475 0.41516 0.79399 0.0
H1155 H 0.48697 0.44519 0.79911 0.0
H1156 H 0.52281 0.35527 0.78758 0.0
H1157 H 0.53747 0.33313 0.7469 0.0
C1158 C 0.89165 0.18093 0.95382 0.0
C1159 C 0.87895 0.19559 0.98862 0.0
C1160 C 0.91902 0.24937 0.9787 0.0
C1161 C 0.92461 0.24029 0.94112 0.0
N1162 N 0.91665 0.19594 0.8917 0.0
N1163 N 0.87172 0.25196 0.02534 0.0
C1164 C 0.91119 0.20536 0.92809 0.0
C1165 C 0.89033 0.23201 0.9988 0.0
N1166 N 0.88407 0.14475 0.94508 0.0
N1167 N 0.94043 0.27605 0.99464 0.0
H1168 H 0.84645 0.24359 0.0365 0.0
H1169 H 0.8778 0.27973 0.03149 0.0
H1170 H 0.9388 0.28223 0.02304 0.0
H1171 H 0.9388 0.28223 0.02304 0.0
H1172 H 0.89473 0.13171 0.92141 0.0
H1173 H 0.86861 0.12748 0.9629 0.0
H1174 H 0.90507 0.17221 0.87961 0.0
H1175 H 0.93173 0.21315 0.87349 0.0
C1176 C 0.30586 0.04634 0.38189 0.0
C1177 C 0.34177 0.05807 0.37033 0.0
C1178 C 0.33074 0.11586 0.40677 0.0
C1179 C 0.29874 0.09915 0.42383 0.0
N1180 N 0.26559 0.04147 0.43512 0.0
N1181 N 0.38947 0.10523 0.37311 0.0
C1182 C 0.28953 0.06217 0.41381 0.0
C1183 C 0.3546 0.09349 0.38301 0.0
N1184 N 0.28681 1.0201 0.36239 0.0
N1185 N 0.33845 0.15243 0.41354 0.0
H1186 H 0.40623 0.08981 0.35493 0.0
H1187 H 0.40192 0.12912 0.38398 0.0
H1188 H 0.32229 0.16824 0.43192 0.0
H1189 H 0.35956 0.1671 0.39978 0.0
H1190 H 0.2594 1.01248 0.36889 0.0
H1191 H 0.29663 1.00941 0.33746 0.0
H1192 H 0.25901 1.01382 0.42921 0.0
H1193 H 0.25653 0.04996 0.46128 0.0
C1194 C 0.18893 0.08285 0.66054 0.0
C1195 C 0.20023 0.04671 0.67293 0.0
C1196 C 0.25624 0.05269 0.6361 0.0
C1197 C 0.24981 0.09048 0.62839 0.0
N1198 N 0.20969 0.14373 0.63669 0.0
N1199 N 0.25408 1.00777 0.68493 0.0
C1200 C 0.21588 0.10656 0.64167 0.0
C1201 C 0.23713 0.03544 0.66524 0.0
N1202 N 0.15322 0.09433 0.66687 0.0
N1203 N 0.27893 0.0323 0.61387 0.0
H1204 H 0.24167 0.99565 0.70807 0.0
H1205 H 0.28193 1.00027 0.68032 0.0
H1206 H 0.2859 0.04216 0.58759 0.0
H1207 H 0.28479 1.00422 0.61861 0.0
H1208 H 0.14243 0.11916 0.65615 0.0
H1209 H 0.13425 0.07778 0.68174 0.0
H1210 H 0.18689 0.15762 0.64822 0.0
H1211 H 0.22863 0.16064 0.62221 0.0
C1212 C 0.18798 0.95795 0.87386 0.0
C1213 C 0.1965 0.99677 0.87279 0.0
C1214 C 0.25115 0.98522 0.91192 0.0
C1215 C 0.24516 0.94627 0.91172 0.0
N1216 N 0.21041 0.89457 0.88703 0.0
N1217 N 0.24244 0.04402 0.87982 0.0
C1218 C 0.2142 0.93219 0.89098 0.0
C1219 C 0.23006 1.00913 0.88889 0.0
N1220 N 0.15507 0.94594 0.859 0.0
N1221 N 0.27683 0.99999 0.93519 0.0
H1222 H 0.2688 0.05455 0.88644 0.0
H1223 H 0.2688 0.05455 0.88644 0.0
H1224 H 0.29167 0.98344 0.95369 0.0
H1225 H 0.2792 0.02858 0.93932 0.0
H1226 H 0.14557 0.91854 0.86118 0.0
H1227 H 0.13646 0.96432 0.84603 0.0
H1228 H 0.19076 0.88229 0.8695 0.0
H1229 H 0.22854 0.8758 0.90014 0.0
C1230 C 0.31212 1.00162 0.14561 0.0
C1231 C 0.34659 0.98899 0.16062 0.0
C1232 C 0.33672 0.93006 0.12621 0.0
C1233 C 0.30423 0.94551 0.10916 0.0
N1234 N 0.27337 1.00277 0.09128 0.0
N1235 N 0.39496 0.94225 0.1599 0.0
C1236 C 0.29694 0.98378 0.11435 0.0
C1237 C 0.36035 0.9536 0.14882 0.0
N1238 N 0.29118 0.02786 0.16342 0.0
N1239 N 0.34415 0.89308 0.12174 0.0
H1240 H 0.41155 0.95839 0.17757 0.0
H1241 H 0.40763 0.91805 0.15 0.0
H1242 H 0.32782 0.87636 0.10435 0.0
H1243 H 0.36535 0.87918 0.13608 0.0
H1244 H 0.26466 0.03574 0.15412 0.0
H1245 H 0.29738 0.03722 0.19001 0.0
H1246 H 0.26998 0.03166 0.09304 0.0
H1247 H 0.25953 0.99027 0.06914 0.0
C1248 C 0.38005 0.34859 0.09126 0.0
C1249 C 0.37101 0.33835 0.05406 0.0
C1250 C 0.41183 0.28433 0.05954 0.0
C1251 C 0.41651 0.29049 0.09798 0.0
N1252 N 0.4023 0.32714 0.15226 0.0
N1253 N 0.36809 0.28807 1.00988 0.0
C1254 C 0.39967 0.32228 0.11465 0.0
C1255 C 0.3837 0.30358 0.04059 0.0
N1256 N 0.37032 0.38305 0.10388 0.0
N1257 N 0.43371 0.25937 0.04094 0.0
H1258 H 0.34411 0.29919 0.99824 0.0
H1259 H 0.37509 0.26147 1.00048 0.0
H1260 H 0.45522 0.24474 0.05387 0.0
H1261 H 0.43312 0.25652 1.01197 0.0
H1262 H 0.37888 0.39343 0.12962 0.0
H1263 H 0.35489 0.40164 0.08746 0.0
H1264 H 0.38802 0.34803 0.16651 0.0
H1265 H 0.41766 0.30888 0.16911 0.0
C1266 C 0.9515 0.8597 0.19712 0.0
C1267 C 0.98761 0.87218 0.18613 0.0
C1268 C 0.98081 0.92683 0.223 0.0
C1269 C 0.94506 0.91618 0.23678 0.0
N1270 N 0.89307 0.87374 0.23064 0.0
N1271 N 1.02059 0.92624 0.16844 0.0
C1272 C 0.92877 0.8832 0.22109 0.0
C1273 C 0.99381 0.91029 0.18992 0.0
N1274 N 0.93867 0.82715 0.18313 0.0
N1275 N 1.00597 0.9442 0.24543 0.0
H1276 H 0.03003 0.91368 0.14387 0.0
H1277 H 0.0349 0.94926 0.17736 0.0
H1278 H 1.00076 0.94813 0.27361 0.0
H1279 H 0.03396 0.94747 0.23797 0.0
H1280 H 0.91283 0.81536 0.18944 0.0
H1281 H 0.95476 0.81295 0.16378 0.0
H1282 H 0.87938 0.85003 0.22111 0.0
H1283 H 0.87659 0.89101 0.24733 0.0
C1284 C 0.1638 0.73264 0.60872 0.0
C1285 C 0.12505 0.73661 0.60306 0.0
C1286 C 0.12597 0.682 0.56299 0.0
C1287 C 0.16422 0.68893 0.55705 0.0
N1288 N 0.21295 0.68679 0.60216 0.0
N1289 N 0.07756 0.69076 0.60972 0.0
C1290 C 0.18309 0.70493 0.5877 0.0
C1291 C 0.10672 0.7044 0.5898 0.0
N1292 N 0.18032 0.75188 0.6369 0.0
N1293 N 0.11056 0.65117 0.54733 0.0
H1294 H 0.07031 0.70356 0.63468 0.0
H1295 H 0.06459 0.66543 0.60418 0.0
H1296 H 0.12557 0.6343 0.5289 0.0
H1297 H 0.08498 0.64055 0.55561 0.0
H1298 H 0.20771 0.74747 0.64515 0.0
H1299 H 0.16522 0.77028 0.65368 0.0
H1300 H 0.2255 0.69402 0.62735 0.0
H1301 H 0.2218 0.66193 0.59018 0.0
C1302 C 0.56176 0.91757 0.78838 0.0
C1303 C 0.60056 0.91953 0.79471 0.0
C1304 C 0.59131 0.88092 0.8516 0.0
C1305 C 0.55325 0.87561 0.84158 0.0
N1306 N 0.50847 0.87809 0.79167 0.0
N1307 N 0.65376 0.89985 0.83077 0.0
C1308 C 0.54048 0.89081 0.80742 0.0
C1309 C 0.61598 0.90016 0.82596 0.0
N1310 N 0.54484 0.94079 0.76335 0.0
N1311 N 0.60365 0.86783 0.88519 0.0
H1312 H 0.67163 0.91484 0.81313 0.0
H1313 H 0.66714 0.88366 0.85096 0.0
H1314 H 0.5862 0.8528 0.9032 0.0
H1315 H 0.63023 0.87336 0.89564 0.0
H1316 H 0.51585 0.94261 0.76067 0.0
H1317 H 0.55939 0.96098 0.74843 0.0
H1318 H 0.49964 0.88599 0.76503 0.0
H1319 H 0.49422 0.85563 0.80298 0.0
C1320 C 0.93988 0.13508 0.33797 0.0
C1321 C 0.95495 0.11824 0.30533 0.0
C1322 C 1.01494 0.14777 0.31766 0.0
C1323 C 1.00163 0.16287 0.35174 0.0
N1324 N 0.95226 0.16664 0.39722 0.0
N1325 N 1.0104 0.10047 0.27147 0.0
C1326 C 0.96435 0.15476 0.36317 0.0
C1327 C 0.99388 0.12064 0.29893 0.0
N1328 N 0.9023 0.1332 0.34407 0.0
N1329 N 0.04438 0.16372 0.29916 0.0
H1330 H 0.99544 0.08313 0.254 0.0
H1331 H 0.03938 0.09939 0.26813 0.0
H1332 H 0.05854 0.18713 0.30826 0.0
H1333 H 0.05107 0.15735 0.27156 0.0
H1334 H 0.88872 0.14771 0.36524 0.0
H1335 H 0.88471 0.11778 0.32671 0.0
H1336 H 0.92635 0.15948 0.40845 0.0
H1337 H 0.96946 0.18189 0.41509 0.0
C1338 C 0.53168 0.14861 0.74738 0.0
C1339 C 0.5421 0.16361 0.71185 0.0
C1340 C 0.60665 0.14042 0.72405 0.0
C1341 C 0.59584 0.12796 0.7604 0.0
N1342 N 0.54864 0.12911 0.80901 0.0
N1343 N 0.59129 0.17698 0.66805 0.0
C1344 C 0.55875 0.13488 0.77259 0.0
C1345 C 0.5803 0.16065 0.70077 0.0
N1346 N 0.4951 0.1459 0.75738 0.0
N1347 N 0.64173 0.1322 0.71158 0.0
H1348 H 0.57247 0.1907 0.65048 0.0
H1349 H 0.61905 0.179 0.65953 0.0
H1350 H 0.66119 0.1182 0.72824 0.0
H1351 H 0.65078 0.13717 0.68437 0.0
H1352 H 0.48535 0.12952 0.77949 0.0
H1353 H 0.47411 0.15847 0.74253 0.0
H1354 H 0.52463 0.14064 0.82078 0.0
H1355 H 0.56469 0.11508 0.82851 0.0
C1356 C 0.19239 0.27735 0.98298 0.0
C1357 C 0.18959 0.31679 0.98302 0.0
C1358 C 0.14027 0.31345 0.93558 0.0
C1359 C 0.13771 0.27479 0.94331 0.0
N1360 N 0.17403 0.21942 0.95468 0.0
N1361 N 0.17496 0.37133 0.94716 0.0
C1362 C 0.16905 0.2568 0.95939 0.0
C1363 C 0.16825 0.33468 0.95484 0.0
N1364 N 0.21416 0.25955 1.00867 0.0
N1365 N 0.11686 0.32907 0.90997 0.0
H1366 H 0.19617 0.38582 0.96095 0.0
H1367 H 0.16164 0.38633 0.92609 0.0
H1368 H 0.09776 0.31303 0.89504 0.0
H1369 H 0.1176 0.35707 0.90221 0.0
H1370 H 0.21394 0.23088 1.01357 0.0
H1371 H 0.23072 0.27435 0.02698 0.0
H1372 H 0.1963 0.20422 0.96555 0.0
H1373 H 0.15664 0.20431 0.93725 0.0
C1374 C 0.38608 0.73474 0.42333 0.0
C1375 C 0.41891 0.7469 0.4424 0.0
C1376 C 0.40981 0.69552 0.48634 0.0
C1377 C 0.37217 0.69417 0.47677 0.0
N1378 N 0.3318 0.69299 0.42422 0.0
N1379 N 0.44841 0.7467 0.5032 0.0
C1380 C 0.36198 0.70819 0.44142 0.0
C1381 C 0.4288 0.72851 0.47637 0.0
N1382 N 0.37692 0.75049 0.3898 0.0
N1383 N 0.4218 0.67281 0.51444 0.0
H1384 H 0.45991 0.77284 0.4989 0.0
H1385 H 0.44868 0.73783 0.53098 0.0
H1386 H 0.40582 0.64997 0.52334 0.0
H1387 H 0.4463 0.67743 0.52893 0.0
H1388 H 0.35168 0.74583 0.37616 0.0
H1389 H 0.395 0.76878 0.37588 0.0
H1390 H 0.32466 0.69834 0.39656 0.0
H1391 H 0.31656 0.67172 0.43723 0.0
C1392 C 0.85661 0.57806 0.89485 0.0
C1393 C 0.84296 0.54506 0.87772 0.0
C1394 C 0.77939 0.56018 0.89833 0.0
C1395 C 0.79217 0.59471 0.91329 0.0
N1396 N 0.84221 0.63831 0.92312 0.0
N1397 N 0.79043 0.5063 0.86069 0.0
C1398 C 0.83067 0.60422 0.91075 0.0
C1399 C 0.80411 0.53716 0.87821 0.0
N1400 N 0.8943 0.58372 0.89681 0.0
N1401 N 0.74466 0.54666 0.90721 0.0
H1402 H 0.80684 0.48654 0.8476 0.0
H1403 H 0.76209 0.50098 0.857 0.0
H1404 H 0.72498 0.56079 0.92261 0.0
H1405 H 0.73658 0.51894 0.90414 0.0
H1406 H 0.90663 0.605 0.91219 0.0
H1407 H 0.91342 0.56563 0.88432 0.0
H1408 H 0.86916 0.64862 0.91932 0.0
H1409 H 0.82382 0.65739 0.9352 0.0
C1410 C 0.7468 0.55164 0.11517 0.0
C1411 C 0.74893 0.58928 0.12623 0.0
C1412 C 0.69892 0.57601 0.17333 0.0
C1413 C 0.69871 0.53784 0.16248 0.0
N1414 N 0.70784 0.50004 0.10734 0.0
N1415 N 0.72713 0.63829 0.16636 0.0
C1416 C 0.71794 0.52923 0.12879 0.0
C1417 C 0.72476 0.60191 0.15547 0.0
N1418 N 0.77266 0.53604 0.09183 0.0
N1419 N 0.67253 0.58794 0.19784 0.0
H1420 H 0.74503 0.65729 0.15322 0.0
H1421 H 0.71231 0.6496 0.18857 0.0
H1422 H 0.65111 0.57031 0.20667 0.0
H1423 H 0.67003 0.61531 0.20689 0.0
H1424 H 0.77152 0.50799 0.08406 0.0
H1425 H 0.79673 0.54961 0.08288 0.0
H1426 H 0.68274 0.48583 0.11108 0.0
H1427 H 0.68274 0.48583 0.11108 0.0
C1428 C 0.68131 0.45848 0.37707 0.0
C1429 C 0.68049 0.49755 0.38462 0.0
C1430 C 0.73686 0.48952 0.42284 0.0
C1431 C 0.73611 0.45041 0.41848 0.0
N1432 N 0.70528 0.39656 0.39364 0.0
N1433 N 0.70106 0.54462 0.43007 0.0
C1434 C 0.70744 0.43448 0.39631 0.0
C1435 C 0.70597 0.51136 0.41218 0.0
N1436 N 0.65729 0.44434 0.35135 0.0
N1437 N 0.76818 0.50688 0.43552 0.0
H1438 H 0.67669 0.56003 0.43022 0.0
H1439 H 0.71912 0.55397 0.45088 0.0
H1440 H 0.7904 0.49255 0.44722 0.0
H1441 H 0.77254 0.53556 0.43258 0.0
H1442 H 0.66016 0.41775 0.3402 0.0
H1443 H 0.63541 0.46017 0.34045 0.0
H1444 H 0.68341 0.38264 0.38052 0.0
H1445 H 0.72427 0.379 0.40718 0.0
C1446 C 0.80667 0.43956 0.66197 0.0
C1447 C 0.80107 0.44916 0.62423 0.0
C1448 C 0.84831 0.49722 0.6298 0.0
C1449 C 0.84364 0.49633 0.66889 0.0
N1450 N 0.85384 0.44514 0.71005 0.0
N1451 N 0.85067 0.45175 0.58102 0.0
C1452 C 0.83232 0.46138 0.68356 0.0
C1453 C 0.83063 0.46921 0.60782 0.0
N1454 N 0.79101 0.40757 0.67511 0.0
N1455 N 0.87342 0.52134 0.61467 0.0
H1456 H 0.84142 0.42653 0.56982 0.0
H1457 H 0.87764 0.46017 0.57374 0.0
H1458 H 0.88947 0.5395 0.6308 0.0
H1459 H 0.8793 0.52139 0.58654 0.0
H1460 H 0.7981 0.39617 0.70063 0.0
H1461 H 0.77348 0.39114 0.65862 0.0
H1462 H 0.85152 0.41709 0.71747 0.0
H1463 H 0.87702 0.45923 0.7204 0.0
C1464 C 0.13297 0.19557 0.50566 0.0
C1465 C 0.17199 0.20119 0.49832 0.0
C1466 C 0.15143 0.25489 0.45662 0.0
C1467 C 0.11261 0.24523 0.45912 0.0
N1468 N 0.06741 0.20472 0.48745 0.0
N1469 N 0.21737 0.23751 0.46484 0.0
C1470 C 0.10391 0.2156 0.48486 0.0
C1471 C 0.18071 0.23183 0.47379 0.0
N1472 N 0.12362 0.17015 0.53259 0.0
N1473 N 0.16039 0.28605 0.43647 0.0
H1474 H 0.2389 0.22257 0.47772 0.0
H1475 H 0.22637 0.25559 0.44385 0.0
H1476 H 0.1398 0.30239 0.42371 0.0
H1477 H 0.18718 0.2973 0.43501 0.0
H1478 H 0.09648 0.16588 0.54222 0.0
H1479 H 0.14397 0.1557 0.54773 0.0
H1480 H 0.05855 0.18055 0.50106 0.0
H1481 H 0.04598 0.21958 0.47431 0.0
C1482 C 0.0936 0.87939 0.73759 0.0
C1483 C 0.08755 0.91867 0.73316 0.0
C1484 C 0.03179 0.9019 0.69385 0.0
C1485 C 0.04132 0.86305 0.6935 0.0
N1486 N 0.08356 0.81565 0.71527 0.0
N1487 N 0.0503 0.96674 0.70503 0.0
C1488 C 0.07244 0.85207 0.71615 0.0
C1489 C 0.05594 0.92955 0.71127 0.0
N1490 N 0.12044 0.86818 0.76229 0.0
N1491 N 0.99926 0.91247 0.67692 0.0
H1492 H 0.0661 0.98721 0.71841 0.0
H1493 H 0.03141 0.97727 0.68556 0.0
H1494 H 0.98147 0.89316 0.6643 0.0
H1495 H 0.98825 0.93931 0.67832 0.0
H1496 H 0.12504 0.84047 0.76982 0.0
H1497 H 0.13595 0.88734 0.77782 0.0
H1498 H 0.10868 0.8061 0.72641 0.0
H1499 H 0.06814 0.79507 0.70171 0.0
C1500 C 0.38944 0.78663 0.94435 0.0
C1501 C 0.42707 0.79805 0.95022 0.0
C1502 C 0.40368 0.83869 1.00188 0.0
C1503 C 0.36606 0.83385 0.99011 0.0
N1504 N 0.32264 0.79901 0.95338 0.0
N1505 N 0.47041 0.8319 0.98809 0.0
C1506 C 0.35895 0.80552 0.9631 0.0
C1507 C 0.43419 0.82234 0.98093 0.0
N1508 N 0.38301 0.7589 0.91917 0.0
N1509 N 0.40998 0.86055 0.03229 0.0
H1510 H 0.49268 0.81934 0.97405 0.0
H1511 H 0.47841 0.85244 1.0069 0.0
H1512 H 0.38781 0.87222 0.04724 0.0
H1513 H 0.43613 0.86467 0.0443 0.0
H1514 H 0.35688 0.74733 0.91394 0.0
H1515 H 0.40499 0.74567 0.90533 0.0
H1516 H 0.3144 0.78204 0.9314 0.0
H1517 H 0.30052 0.81167 0.96757 0.0
C1518 C 0.50231 0.13436 0.20286 0.0
C1519 C 0.49256 0.17276 0.20634 0.0
C1520 C 0.44326 0.15196 0.25231 0.0
C1521 C 0.44768 0.11372 0.24227 0.0
N1522 N 0.48433 0.06858 0.20935 0.0
N1523 N 0.45533 0.21797 0.23819 0.0
C1524 C 0.47881 0.10505 0.2187 0.0
C1525 C 0.46422 0.18129 0.23325 0.0
N1526 N 0.53355 0.12609 0.1827 0.0
N1527 N 0.4177 0.16022 0.27935 0.0
H1528 H 0.47096 0.23928 0.22566 0.0
H1529 H 0.4324 0.22725 0.25344 0.0
H1530 H 0.40228 0.13934 0.29281 0.0
H1531 H 0.41386 0.18675 0.29038 0.0
H1532 H 0.54448 0.09933 0.17997 0.0
H1533 H 0.55026 0.14722 0.17135 0.0
H1534 H 0.50315 0.05978 0.18905 0.0
H1535 H 0.46874 0.04703 0.22147 0.0
C1536 C 0.15809 0.78047 0.09201 0.0
C1537 C 0.11911 0.78977 0.09131 0.0
C1538 C 0.13635 0.83893 0.04371 0.0
C1539 C 0.17559 0.83434 0.0499 0.0
N1540 N 0.22321 0.79923 0.08122 0.0
N1541 N 0.07209 0.83027 0.06572 0.0
C1542 C 0.18609 0.80406 0.07386 0.0
C1543 C 0.1086 0.81923 0.06627 0.0
N1544 N 0.16845 0.74912 0.11114 0.0
N1545 N 0.12563 0.86264 1.01586 0.0
H1546 H 0.05126 0.81593 0.08034 0.0
H1547 H 0.06285 0.85445 0.0524 0.0
H1548 H 0.14536 0.87567 0.99868 0.0
H1549 H 0.09802 0.86607 1.0073 0.0
H1550 H 0.19548 0.73837 0.11109 0.0
H1551 H 0.14878 0.73197 0.12429 0.0
H1552 H 0.23342 0.78134 0.1018 0.0
H1553 H 0.24382 0.81466 0.06739 0.0
C1554 C 0.45697 0.85574 0.31132 0.0
C1555 C 0.48756 0.86407 0.33563 0.0
C1556 C 0.47652 0.93174 0.32109 0.0
C1557 C 0.44389 0.92352 0.29955 0.0
N1558 N 0.40907 0.87699 0.26698 0.0
N1559 N 0.53167 0.90979 0.35564 0.0
C1560 C 0.43659 0.88516 0.29202 0.0
C1561 C 0.49925 0.90209 0.33715 0.0
N1562 N 0.44564 0.81943 0.30906 0.0
N1563 N 0.48435 0.96832 0.3282 0.0
H1564 H 0.5478 0.88858 0.36762 0.0
H1565 H 0.54398 0.93609 0.3566 0.0
H1566 H 0.46935 0.99001 0.31565 0.0
H1567 H 0.50461 0.97721 0.34699 0.0
H1568 H 0.4211 0.81083 0.2961 0.0
H1569 H 0.46083 0.79784 0.32157 0.0
H1570 H 0.40313 0.85017 0.25768 0.0
H1571 H 0.39413 0.89797 0.25318 0.0
C1572 C 0.38683 0.25376 0.59732 0.0
C1573 C 0.426 0.24779 0.59164 0.0
C1574 C 0.40729 0.21038 0.53518 0.0
C1575 C 0.3688 0.20941 0.54637 0.0
N1576 N 0.32204 0.23709 0.58561 0.0
N1577 N 0.47296 0.22299 0.55122 0.0
C1578 C 0.35877 0.23395 0.576 0.0
C1579 C 0.43585 0.22786 0.55853 0.0
N1580 N 0.37527 0.27661 0.62523 0.0
N1581 N 0.4166 0.19273 0.50282 0.0
H1582 H 0.49353 0.23619 0.56712 0.0
H1583 H 0.48336 0.2056 0.5305 0.0
H1584 H 0.39632 0.17981 0.48631 0.0
H1585 H 0.44316 0.19333 0.49097 0.0
H1586 H 0.39375 0.29167 0.642 0.0
H1587 H 0.39375 0.29167 0.642 0.0
H1588 H 0.31304 0.25367 0.60777 0.0
H1589 H 0.30094 0.22352 0.57081 0.0
C1590 C 0.08527 0.15066 0.78351 0.0
C1591 C 0.08108 0.112 0.79216 0.0
C1592 C 0.03016 0.13094 0.83666 0.0
C1593 C 0.04038 0.16936 0.83414 0.0
N1594 N 0.07602 0.21588 0.8017 0.0
N1595 N 0.04613 0.06542 0.82517 0.0
C1596 C 0.06667 0.17914 0.8056 0.0
C1597 C 0.05157 0.10234 0.8174 0.0
N1598 N 0.10841 0.15996 0.75465 0.0
N1599 N 1.00066 0.12188 0.85912 0.0
H1600 H 0.06046 0.04461 0.81067 0.0
H1601 H 0.02862 0.05548 0.84621 0.0
H1602 H 0.98565 0.1424 0.87339 0.0
H1603 H 0.98946 0.09516 0.86141 0.0
H1604 H 0.11202 0.18702 0.74459 0.0
H1605 H 0.12148 0.13941 0.73868 0.0
H1606 H 0.09792 0.22556 0.78512 0.0
H1607 H 0.06196 0.23677 0.81635 0.0
C1608 C 0.21164 0.49861 0.14045 0.0
C1609 C 0.21394 0.48789 0.17879 0.0
C1610 C 0.25949 0.43839 0.1578 0.0
C1611 C 0.2503 0.44385 0.11935 0.0
N1612 N 0.21668 0.48102 0.07468 0.0
N1613 N 0.24393 0.44835 0.2237 0.0
C1614 C 0.22674 0.47511 0.11096 0.0
C1615 C 0.24003 0.45865 0.18717 0.0
N1616 N 0.19435 0.53147 0.13225 0.0
N1617 N 0.28628 0.41259 0.16622 0.0
H1618 H 0.23142 0.46352 0.2452 0.0
H1619 H 0.25814 0.42459 0.23259 0.0
H1620 H 0.30004 0.39756 0.14541 0.0
H1621 H 0.2969 0.40825 0.19293 0.0
H1622 H 0.19312 0.54297 0.10551 0.0
H1623 H 0.18519 0.54904 0.1535 0.0
H1624 H 0.19597 0.49979 0.06656 0.0
H1625 H 0.22815 0.46563 0.0528 0.0
C1626 C 0.71143 0.03472 0.90212 0.0
C1627 C 0.71469 0.04622 0.86409 0.0
C1628 C 0.75369 0.09997 0.88745 0.0
C1629 C 0.74374 0.09254 0.9254 0.0
N1630 N 0.71341 0.0509 0.96847 0.0
N1631 N 0.74224 0.08917 0.8208 0.0
C1632 C 0.72338 0.0588 0.93248 0.0
C1633 C 0.73791 0.0781 0.85706 0.0
N1634 N 0.69508 1.00099 0.90903 0.0
N1635 N 0.77756 0.1289 0.88045 0.0
H1636 H 0.73213 0.07304 0.79876 0.0
H1637 H 0.7545 0.11424 0.81259 0.0
H1638 H 0.7888 0.14499 0.90195 0.0
H1639 H 0.78849 0.13511 0.85421 0.0
H1640 H 0.69342 0.98871 0.93539 0.0
H1641 H 0.68581 0.98404 0.88723 0.0
H1642 H 0.69479 0.02982 0.97597 0.0
H1643 H 0.723 0.06675 0.99091 0.0
C1644 C 0.82692 0.9778 0.4278 0.0
C1645 C 0.80211 0.94786 0.41858 0.0
C1646 C 0.8161 0.96169 0.35111 0.0
C1647 C 0.84297 0.9898 0.36037 0.0
N1648 N 0.86708 0.02989 0.4077 0.0
N1649 N 0.76676 0.91804 0.37066 0.0
C1650 C 0.84551 0.99979 0.39886 0.0
C1651 C 0.79449 0.9425 0.37985 0.0
N1652 N 0.83466 0.98357 0.46464 0.0
N1653 N 0.81315 0.95151 0.31455 0.0
H1654 H 0.75105 0.90428 0.39114 0.0
H1655 H 0.75722 0.91385 0.34357 0.0
H1656 H 0.8271 0.96599 0.29331 0.0
H1657 H 0.7982 0.92839 0.30537 0.0
H1658 H 0.85545 1.00141 0.47423 0.0
H1659 H 0.82053 0.96919 0.48583 0.0
H1660 H 0.86906 0.04106 0.43439 0.0
H1661 H 0.88071 0.04558 0.38711 0.0
C1662 C 0.83617 0.0659 0.10638 0.0
C1663 C 0.80829 0.09315 0.1151 0.0
C1664 C 0.81757 0.07668 0.18251 0.0
C1665 C 0.84781 0.05197 0.17403 0.0
N1666 N 0.879 1.01643 0.12722 0.0
N1667 N 0.76625 0.11685 0.16105 0.0
C1668 C 0.85423 0.0441 0.13559 0.0
C1669 C 0.79684 0.0956 0.15313 0.0
N1670 N 0.84726 0.06277 0.07004 0.0
N1671 N 0.8104 0.0839 0.21921 0.0
H1672 H 0.75091 0.12987 0.13988 0.0
H1673 H 0.75421 0.1189 0.18742 0.0
H1674 H 0.82389 0.06933 0.24066 0.0
H1675 H 0.79226 0.10459 0.22845 0.0
H1676 H 0.87027 0.04731 0.06135 0.0
H1677 H 0.83365 0.07699 0.04845 0.0
H1678 H 0.88416 1.0069 0.1003 0.0
H1679 H 0.89218 1.0009 0.14818 0.0
C1680 C 0.35001 0.54597 0.63322 0.0
C1681 C 0.34858 0.55549 0.6718 0.0
C1682 C 0.29786 0.60087 0.65566 0.0
C1683 C 0.30402 0.5962 0.61666 0.0
N1684 N 0.33593 0.56264 0.56839 0.0
N1685 N 0.32035 0.59316 0.71956 0.0
C1686 C 0.32947 0.56751 0.60563 0.0
C1687 C 0.32156 0.58266 0.68296 0.0
N1688 N 0.37168 0.51637 0.62299 0.0
N1689 N 0.26933 0.6236 0.66651 0.0
H1690 H 0.33578 0.5797 0.74032 0.0
H1691 H 0.30552 0.61619 0.72917 0.0
H1692 H 0.25192 0.6364 0.64696 0.0
H1693 H 0.26066 0.62671 0.69407 0.0
H1694 H 0.37257 0.50556 0.59609 0.0
H1695 H 0.38638 0.50052 0.64265 0.0
H1696 H 0.35725 0.54608 0.55769 0.0
H1697 H 0.32031 0.57654 0.54802 0.0
C1698 C 0.24521 0.58433 0.39449 0.0
C1699 C 0.23166 0.58183 0.43187 0.0
C1700 C 0.18464 0.53536 0.40841 0.0
C1701 C 0.19303 0.54406 0.37045 0.0
N1702 N 0.23302 0.57703 0.32769 0.0
N1703 N 0.18962 0.55161 0.47453 0.0
C1704 C 0.22448 0.56793 0.36375 0.0
C1705 C 0.20224 0.55554 0.43873 0.0
N1706 N 0.27785 0.60304 0.38836 0.0
N1707 N 0.15891 0.50803 0.41528 0.0
H1708 H 0.20315 0.56429 0.49699 0.0
H1709 H 0.16553 0.53703 0.4819 0.0
H1710 H 0.14637 0.49323 0.39358 0.0
H1711 H 0.15252 0.49782 0.44178 0.0
H1712 H 0.29137 0.60412 0.36262 0.0
H1713 H 0.29302 0.61457 0.41034 0.0
H1714 H 0.25203 0.5978 0.32027 0.0
H1715 H 0.21964 0.56452 0.30508 0.0
C1716 C 0.31099 0.46889 0.85744 0.0
C1717 C 0.33931 0.49596 0.86546 0.0
C1718 C 0.33138 0.47931 0.93313 0.0
C1719 C 0.30533 0.45013 0.92481 0.0
N1720 N 0.26442 0.42338 0.87952 0.0
N1721 N 0.36932 0.53261 0.91213 0.0
C1722 C 0.293 0.44742 0.88705 0.0
C1723 C 0.34655 0.50321 0.90388 0.0
N1724 N 0.30327 0.46194 0.8208 0.0
N1725 N 0.34347 0.48258 0.96913 0.0
H1726 H 0.38049 0.54967 0.89114 0.0
H1727 H 0.37458 0.54194 0.93908 0.0
H1728 H 0.33173 0.46701 0.99092 0.0
H1729 H 0.36559 0.49953 0.97732 0.0
H1730 H 0.28659 0.44006 0.81159 0.0
H1731 H 0.31482 0.47811 0.79933 0.0
H1732 H 0.25182 0.42079 0.85349 0.0
H1733 H 0.25125 0.40813 0.90069 0.0
C1734 C 0.61271 0.72091 0.97401 0.0
C1735 C 0.62228 0.74467 0.94301 0.0
C1736 C 0.68988 0.73288 0.96039 0.0
C1737 C 0.68041 0.70767 0.99024 0.0
N1738 N 0.63156 0.68581 0.03016 0.0
N1739 N 0.67124 0.77893 0.9128 0.0
C1740 C 0.64134 0.70497 0.99863 0.0
C1741 C 0.66133 0.75257 0.93863 0.0
N1742 N 0.57606 0.71129 0.97852 0.0
N1743 N 0.72675 0.73589 0.95099 0.0
H1744 H 0.65129 0.79317 0.8969 0.0
H1745 H 0.69834 0.78896 0.90939 0.0
H1746 H 0.74773 0.72351 0.96713 0.0
H1747 H 0.73644 0.74914 0.92693 0.0
H1748 H 0.56688 0.69056 0.99681 0.0
H1749 H 0.55482 0.72312 0.96239 0.0
H1750 H 0.60441 0.68441 0.04057 0.0
H1751 H 0.65178 0.6739 0.04758 0.0
C1752 C 0.58092 0.38236 0.2601 0.0
C1753 C 0.58079 0.42112 0.24978 0.0
C1754 C 0.53353 0.40322 0.20076 0.0
C1755 C 0.53925 0.36401 0.2066 0.0
N1756 N 0.56987 0.31709 0.24318 0.0
N1757 N 0.55563 0.46755 0.20837 0.0
C1758 C 0.56277 0.35407 0.23729 0.0
C1759 C 0.55591 0.43126 0.22011 0.0
N1760 N 0.59881 0.37253 0.29225 0.0
N1761 N 0.50711 0.41356 0.17529 0.0
H1762 H 0.57022 0.48844 0.22238 0.0
H1763 H 0.5425 0.47665 0.18405 0.0
H1764 H 0.49116 0.39376 0.16106 0.0
H1765 H 0.49872 0.44104 0.17082 0.0
H1766 H 0.59816 0.34578 0.30373 0.0
H1767 H 0.61094 0.39253 0.30944 0.0
H1768 H 0.59043 0.30719 0.26124 0.0
H1769 H 0.55591 0.29626 0.22838 0.0
C1770 C 0.88775 0.28816 0.45156 0.0
C1771 C 0.92606 0.29776 0.45696 0.0
C1772 C 0.90444 0.34797 0.50059 0.0
C1773 C 0.86614 0.34166 0.49135 0.0
N1774 N 0.82131 0.30014 0.46448 0.0
N1775 N 0.97021 0.32913 0.49562 0.0
C1776 C 0.85799 0.30944 0.46933 0.0
C1777 C 0.93383 0.32476 0.4851 0.0
N1778 N 0.88006 0.26027 0.42692 0.0
N1779 N 0.91288 0.37807 0.52223 0.0
H1780 H 0.99142 0.31273 0.48411 0.0
H1781 H 0.97889 0.34625 0.51734 0.0
H1782 H 0.89211 0.39425 0.53469 0.0
H1783 H 0.9399 0.38772 0.5269 0.0
H1784 H 0.85336 0.25298 0.4181 0.0
H1785 H 0.90144 0.24454 0.41482 0.0
H1786 H 0.81213 0.27667 0.45021 0.0
H1787 H 0.79984 0.31522 0.47723 0.0
C1788 C 0.94991 0.65392 0.7542 0.0
C1789 C 0.94759 0.61503 0.74546 0.0
C1790 C 0.98627 0.62958 0.68869 0.0
C1791 C 0.98318 0.66899 0.69425 0.0
N1792 N 0.96014 0.71822 0.7332 0.0
N1793 N 0.96326 0.56663 0.70194 0.0
C1794 C 0.96507 0.68085 0.72773 0.0
C1795 C 0.96644 0.60309 0.71238 0.0
N1796 N 0.937 0.6652 0.78822 0.0
N1797 N 1.00835 0.61737 0.66021 0.0
H1798 H 0.95079 0.54646 0.71894 0.0
H1799 H 0.97128 0.55675 0.67584 0.0
H1800 H 0.02252 0.63591 0.6427 0.0
H1801 H 1.01514 0.58945 0.65598 0.0
H1802 H 0.94027 0.69214 0.79846 0.0
H1803 H 0.92606 0.64633 0.80771 0.0
H1804 H 0.94302 0.72928 0.75389 0.0
H1805 H 0.97195 0.73832 0.71558 0.0
C1806 C 0.63661 0.33738 0.5416 0.0
C1807 C 0.67566 0.33754 0.55067 0.0
C1808 C 0.65953 0.29396 0.60353 0.0
C1809 C 0.62014 0.29794 0.59774 0.0
N1810 N 0.57168 0.32426 0.55977 0.0
N1811 N 0.72334 0.31114 0.59063 0.0
C1812 C 0.60904 0.31921 0.56568 0.0
C1813 C 0.68667 0.31395 0.58105 0.0
N1814 N 0.6259 0.35532 0.50963 0.0
N1815 N 0.67154 0.27214 0.63245 0.0
H1816 H 0.74488 0.32445 0.57604 0.0
H1817 H 0.74488 0.32445 0.57604 0.0
H1818 H 0.65299 0.25678 0.64904 0.0
H1819 H 0.69981 0.26878 0.6389 0.0
H1820 H 0.59889 0.35476 0.49891 0.0
H1821 H 0.64529 0.36834 0.49203 0.0
H1822 H 0.5606 0.34288 0.54035 0.0
H1823 H 0.55148 0.31031 0.57563 0.0
C1824 C 0.97009 0.35801 0.80897 0.0
C1825 C 0.99763 0.3648 0.83706 0.0
C1826 C 0.98914 0.43312 0.82459 0.0
C1827 C 0.95876 0.42643 0.79956 0.0
N1828 N 0.92771 0.38225 0.7607 0.0
N1829 N 0.03969 0.40876 0.86413 0.0
C1830 C 0.95237 0.38866 0.78897 0.0
C1831 C 1.00946 0.40247 0.84181 0.0
N1832 N 0.95892 0.32203 0.80344 0.0
N1833 N 0.99663 0.46924 0.83395 0.0
H1834 H 0.05431 0.38673 0.87654 0.0
H1835 H 0.05197 0.43478 0.86795 0.0
H1836 H 0.98324 0.49158 0.82069 0.0
H1837 H 1.01498 0.47712 0.85501 0.0
H1838 H 0.93617 0.31441 0.78707 0.0
H1839 H 0.9723 0.29959 0.8165 0.0
H1840 H 0.92245 0.35608 0.74939 0.0
H1841 H 0.91477 0.40425 0.74654 0.0
C1842 C 0.86219 0.73131 0.06641 0.0
C1843 C 0.86847 0.70052 0.04186 0.0
C1844 C 0.93689 0.70729 0.05639 0.0
C1845 C 0.93016 0.73561 0.08373 0.0
N1846 N 0.88702 0.7813 0.10594 0.0
N1847 N 0.91355 0.66691 1.00625 0.0
C1848 C 0.89298 0.75004 0.08527 0.0
C1849 C 0.90661 0.69176 0.03412 0.0
N1850 N 0.82601 0.74085 0.07381 0.0
N1851 N 0.97227 0.69331 0.05362 0.0
H1852 H 0.8918 0.65538 0.99061 0.0
H1853 H 0.94019 0.66022 0.99668 0.0
H1854 H 0.99468 0.70506 0.06811 0.0
H1855 H 0.97922 0.66971 0.03829 0.0
H1856 H 0.81805 0.75946 0.09456 0.0
H1857 H 0.80373 0.72869 0.05944 0.0
H1858 H 0.86163 0.79542 0.10711 0.0
H1859 H 0.90904 0.79494 0.11919 0.0
C1860 C 0.58865 0.65556 0.28713 0.0
C1861 C 0.5861 0.61721 0.29792 0.0
C1862 C 0.53841 0.63743 0.3456 0.0
C1863 C 0.54633 0.67603 0.33951 0.0
N1864 N 0.57806 0.72151 0.302 0.0
N1865 N 0.55616 0.5719 0.33735 0.0
C1866 C 0.57042 0.68476 0.30873 0.0
C1867 C 0.5594 0.60835 0.32651 0.0
N1868 N 0.60965 0.66403 0.25645 0.0
N1869 N 0.51138 0.62872 0.37112 0.0
H1870 H 0.56963 0.5504 0.32308 0.0
H1871 H 0.54138 0.56301 0.3608 0.0
H1872 H 0.49649 0.6495 0.38511 0.0
H1873 H 0.50163 0.6018 0.37615 0.0
H1874 H 0.61169 0.69058 0.24474 0.0
H1875 H 0.6226 0.64317 0.24088 0.0
H1876 H 0.5985 0.73094 0.28354 0.0
H1877 H 0.56415 0.74278 0.31624 0.0
C1878 C 0.71832 0.98509 0.60485 0.0
C1879 C 0.74365 0.95491 0.61196 0.0
C1880 C 0.73659 0.96937 0.6802 0.0
C1881 C 0.70842 0.99699 0.6733 0.0
N1882 N 0.68078 0.03754 0.62819 0.0
N1883 N 0.78414 0.92603 0.65642 0.0
C1884 C 0.70268 1.00717 0.63518 0.0
C1885 C 0.75536 0.95008 0.64974 0.0
N1886 N 0.7072 0.99096 0.56885 0.0
N1887 N 0.74335 0.95964 0.71646 0.0
H1888 H 0.79798 0.91272 0.63454 0.0
H1889 H 0.79634 0.92194 0.68249 0.0
H1890 H 0.73123 0.97416 0.73862 0.0
H1891 H 0.75969 0.93699 0.72457 0.0
H1892 H 0.68569 1.00894 0.56112 0.0
H1893 H 0.71918 0.97649 0.54659 0.0
H1894 H 0.67632 0.04878 0.60172 0.0
H1895 H 0.66965 0.05334 0.64999 0.0
C1896 C 0.10161 0.29592 0.21509 0.0
C1897 C 0.13967 0.30796 0.21342 0.0
C1898 C 0.14286 0.30353 0.28224 0.0
C1899 C 0.10502 0.29174 0.28368 0.0
N1900 N 0.04668 0.28095 0.25149 0.0
N1901 N 0.19764 0.31814 0.24684 0.0
C1902 C 0.0839 0.28962 0.25014 0.0
C1903 C 0.1603 0.31098 0.24722 0.0
N1904 N 0.08291 0.2878 0.18281 0.0
N1905 N 0.16282 0.30706 0.3145 0.0
H1906 H 0.21329 0.32156 0.22246 0.0
H1907 H 0.21329 0.32156 0.22246 0.0
H1908 H 0.15099 0.30254 0.34082 0.0
H1909 H 0.19076 0.31552 0.31474 0.0
H1910 H 0.05807 0.27265 0.18182 0.0
H1911 H 0.09277 0.29483 0.15636 0.0
H1912 H 0.0283 0.28538 0.22936 0.0
H1913 H 0.03343 0.27089 0.27526 0.0
C1914 C 0.97792 0.85156 0.47313 0.0
C1915 C 0.99869 0.8781 0.45285 0.0
C1916 C 0.05133 0.86205 0.49381 0.0
C1917 C 0.02624 0.84276 0.51899 0.0
N1918 N 0.96169 0.84672 0.53685 0.0
N1919 N 0.05418 0.91648 0.45313 0.0
C1920 C 0.98817 0.84415 0.50997 0.0
C1921 C 0.0355 0.8857 0.46546 0.0
N1922 N 0.94657 0.83606 0.45886 0.0
N1923 N 0.08924 0.85822 0.49572 0.0
H1924 H 0.04141 0.93635 0.43605 0.0
H1925 H 0.08015 0.92425 0.46386 0.0
H1926 H 0.10282 0.83862 0.51231 0.0
H1927 H 0.10697 0.87129 0.47655 0.0
H1928 H 0.9389 0.84085 0.43129 0.0
H1929 H 0.93132 0.81621 0.47393 0.0
H1930 H 0.93434 0.8526 0.52942 0.0
H1931 H 0.96812 0.85126 0.56485 0.0
C1932 C 0.38675 0.73576 0.73809 0.0
C1933 C 0.40605 0.74547 0.70459 0.0
C1934 C 0.44485 0.78722 0.74225 0.0
C1935 C 0.43307 0.77082 0.77618 0.0
N1936 N 0.38839 0.7308 0.80658 0.0
N1937 N 0.45997 0.77668 0.67816 0.0
C1938 C 0.40251 0.74528 0.77426 0.0
C1939 C 0.43766 0.76925 0.70804 0.0
N1940 N 0.3527 0.71944 0.73448 0.0
N1941 N 0.45695 0.82313 0.74169 0.0
H1942 H 0.45533 0.76459 0.65234 0.0
H1943 H 0.48447 0.79239 0.68042 0.0
H1944 H 0.45198 0.84026 0.76446 0.0
H1945 H 0.46417 0.83715 0.71709 0.0
H1946 H 0.33489 0.71337 0.75677 0.0
H1947 H 0.33489 0.71337 0.75677 0.0
H1948 H 0.36862 0.70948 0.80738 0.0
H1949 H 0.39844 0.73888 0.83269 0.0
C1950 C 0.56723 0.15237 0.04801 0.0
C1951 C 0.5422 0.18191 0.0395 0.0
C1952 C 0.53693 0.15722 0.97599 0.0
C1953 C 0.56892 0.1346 0.98114 0.0
N1954 N 0.61288 0.10813 0.02412 0.0
N1955 N 0.50658 0.21486 0.99243 0.0
C1956 C 0.58329 0.13121 1.0182 0.0
C1957 C 0.52841 0.18533 1.00247 0.0
N1958 N 0.57475 0.14386 0.08446 0.0
N1959 N 0.51209 0.14892 0.94848 0.0
H1960 H 0.50107 0.23679 1.01054 0.0
H1961 H 0.49774 0.21919 0.96498 0.0
H1962 H 0.51492 0.12475 0.93253 0.0
H1963 H 0.48674 0.16298 0.94529 0.0
H1964 H 0.58749 0.11911 0.09292 0.0
H1965 H 0.56561 0.1603 0.10661 0.0
H1966 H 0.62701 0.10515 0.0494 0.0
H1967 H 0.62701 0.10515 0.0494 0.0
C1968 C 0.10077 0.77811 0.30277 0.0
C1969 C 0.104 0.76325 0.26595 0.0
C1970 C 0.14929 0.71798 0.29069 0.0
C1971 C 0.14766 0.73321 0.32731 0.0
N1972 N 0.13603 0.79138 0.35899 0.0
N1973 N 0.14974 0.73405 0.22603 0.0
C1974 C 0.12721 0.76721 0.33112 0.0
C1975 C 0.13345 0.73762 0.26001 0.0
N1976 N 0.07305 0.80284 0.31096 0.0
N1977 N 0.16749 0.68523 0.28518 0.0
H1978 H 0.14217 0.75 0.20277 0.0
H1979 H 0.14217 0.75 0.20277 0.0
H1980 H 0.17105 0.67301 0.25904 0.0
H1981 H 0.17105 0.67301 0.25904 0.0
H1982 H 0.06825 0.81225 0.33808 0.0
H1983 H 0.05326 0.81132 0.29133 0.0
H1984 H 0.12394 0.81777 0.36117 0.0
H1985 H 0.15883 0.78674 0.37656 0.0
C1986 C 0.5285 0.85076 0.53957 0.0
C1987 C 0.545 0.86297 0.50563 0.0
C1988 C 0.57763 0.9121 0.54134 0.0
C1989 C 0.56492 0.89622 0.57535 0.0
N1990 N 0.53466 0.84423 0.6061 0.0
N1991 N 0.58745 0.90456 0.4741 0.0
C1992 C 0.54283 0.8633 0.57408 0.0
C1993 C 0.57055 0.89341 0.50645 0.0
N1994 N 0.49652 0.83001 0.53902 0.0
N1995 N 0.59438 0.94611 0.5432 0.0
H1996 H 0.58175 0.89188 0.44854 0.0
H1997 H 0.60889 0.92419 0.47304 0.0
H1998 H 0.60266 0.9618 0.52003 0.0
H1999 H 0.60266 0.9618 0.52003 0.0
H2000 H 0.48142 0.82296 0.56295 0.0
H2001 H 0.48219 0.82491 0.51439 0.0
H2002 H 0.52116 0.81844 0.60637 0.0
H2003 H 0.54478 0.85228 0.63196 0.0
C2004 C 0.42908 0.25539 0.83472 0.0
C2005 C 0.41775 0.29219 0.84373 0.0
C2006 C 0.42774 0.31039 0.77886 0.0
C2007 C 0.44213 0.27519 0.76996 0.0
N2008 N 0.47211 0.22061 0.79598 0.0
N2009 N 0.43619 0.35359 0.82841 0.0
C2010 C 0.44721 0.24905 0.79969 0.0
C2011 C 0.42416 0.31995 0.81681 0.0
N2012 N 0.42333 0.2269 0.85937 0.0
N2013 N 0.4181 0.33521 0.75179 0.0
H2014 H 0.43915 0.35919 0.85665 0.0
H2015 H 0.4515 0.37045 0.81053 0.0
H2016 H 0.42061 0.32929 0.72337 0.0
H2017 H 0.40391 0.35961 0.75859 0.0
H2018 H 0.42951 0.19923 0.85283 0.0
H2019 H 0.40929 0.23086 0.88461 0.0
H2020 H 0.47909 0.20278 0.81801 0.0
H2021 H 0.48782 0.21726 0.77168 0.0
C2022 C 0.98376 0.15875 1.01516 0.0
C2023 C 1.00449 0.19256 1.01181 0.0
C2024 C 1.00252 0.19939 0.08011 0.0
C2025 C 0.98543 0.16375 0.08394 0.0
N2026 N 0.96491 0.10737 0.05671 0.0
N2027 N 0.04108 0.24017 0.04255 0.0
C2028 C 0.97699 0.14303 0.05155 0.0
C2029 C 1.01558 0.21176 0.04465 0.0
N2030 N 0.97058 0.14195 0.98365 0.0
N2031 N 1.00639 0.2217 0.11064 0.0
H2032 H 0.05157 0.25076 1.01755 0.0
H2033 H 0.05413 0.25152 0.06589 0.0
H2034 H 0.99762 0.21363 0.13714 0.0
H2035 H 1.01473 0.24954 0.10902 0.0
H2036 H 0.95221 0.11942 0.984 0.0
H2037 H 0.97561 0.15266 0.95695 0.0
H2038 H 0.96042 0.08829 0.03529 0.0
H2039 H 0.96042 0.08829 0.03529 0.0
C2040 C 0.22127 0.10056 0.32023 0.0
C2041 C 0.21143 0.13752 0.31117 0.0
C2042 C 0.25429 0.13529 0.25746 0.0
C2043 C 0.26906 0.10071 0.27112 0.0
N2044 N 0.24564 0.04328 0.29835 0.0
N2045 N 0.21702 0.19053 0.27031 0.0
C2046 C 0.2469 0.08115 0.29766 0.0
C2047 C 0.22746 0.15499 0.27945 0.0
N2048 N 0.20577 0.08351 0.35047 0.0
N2049 N 0.26087 0.14661 0.22162 0.0
H2050 H 0.19548 0.20454 0.28403 0.0
H2051 H 0.23099 0.20667 0.25049 0.0
H2052 H 0.27463 0.1305 0.20197 0.0
H2053 H 0.24612 0.16833 0.2091 0.0
H2054 H 0.21235 0.05618 0.35819 0.0
H2055 H 0.18716 0.09743 0.36784 0.0
H2056 H 0.25934 0.02652 0.27892 0.0
H2057 H 0.25934 0.02652 0.27892 0.0
C2058 C 0.20565 0.99544 0.54234 0.0
C2059 C 0.19457 0.03177 0.55373 0.0
C2060 C 0.14013 1.0035 0.58555 0.0
C2061 C 0.14921 0.96754 0.57079 0.0
N2062 N 0.18352 0.93448 0.52359 0.0
N2063 N 0.1474 0.07092 0.58085 0.0
C2064 C 0.18033 0.96475 0.5463 0.0
C2065 C 0.16066 0.0359 0.57384 0.0
N2066 N 0.24004 0.99039 0.52658 0.0
N2067 N 0.1127 1.00662 0.61196 0.0
H2068 H 0.16273 0.09496 0.57464 0.0
H2069 H 0.12057 0.07614 0.59086 0.0
H2070 H 0.09973 0.98349 0.62411 0.0
H2071 H 0.10653 0.03143 0.62567 0.0
H2072 H 0.25077 0.96406 0.52046 0.0
H2073 H 0.2591 1.01223 0.52318 0.0
H2074 H 0.16265 0.91421 0.52208 0.0
H2075 H 0.20399 0.93216 0.50299 0.0
C2076 C 0.31709 0.94635 0.82415 0.0
C2077 C 0.33024 0.91078 0.8133 0.0
C2078 C 0.26785 0.89776 0.78711 0.0
C2079 C 0.25691 0.93568 0.79206 0.0
N2080 N 0.27435 0.99709 0.81583 0.0
N2081 N 0.31934 0.85402 0.77964 0.0
C2082 C 0.2821 0.96008 0.81125 0.0
C2083 C 0.30582 0.88662 0.79375 0.0
N2084 N 0.33828 0.96711 0.84782 0.0
N2085 N 0.24152 0.8721 0.7773 0.0
H2086 H 0.34722 0.84608 0.78276 0.0
H2087 H 0.30386 0.83671 0.76221 0.0
H2088 H 0.21327 0.87914 0.77537 0.0
H2089 H 0.24691 0.84357 0.7757 0.0
H2090 H 0.32897 0.99137 0.86074 0.0
H2091 H 0.36344 0.95718 0.8582 0.0
H2092 H 0.29468 1.01687 0.82226 0.0
H2093 H 0.24872 1.00962 0.81139 0.0
C2094 C 0.41284 0.03191 0.06696 0.0
C2095 C 0.39522 0.06748 0.06364 0.0
C2096 C 0.34441 0.03763 0.02964 0.0
C2097 C 0.35845 1.00129 0.03655 0.0
N2098 N 0.40578 0.96401 0.06653 0.0
N2099 N 0.33943 0.1015 0.04781 0.0
C2100 C 0.39257 0.99843 0.057 0.0
C2101 C 0.35883 0.06887 0.0484 0.0
N2102 N 0.44949 0.03027 0.0772 0.0
N2103 N 0.32278 0.04373 0.99936 0.0
H2104 H 0.35028 0.12583 0.05886 0.0
H2105 H 0.31153 0.10314 0.03943 0.0
H2106 H 0.32318 0.0238 0.97901 0.0
H2107 H 0.31414 0.07003 0.99022 0.0
H2108 H 0.4651 1.00574 0.07686 0.0
H2109 H 0.46487 0.05422 0.08332 0.0
H2110 H 0.42874 0.96001 0.08397 0.0
H2111 H 0.3917 0.93958 0.05934 0.0
C2112 C 0.21476 0.89666 0.27887 0.0
C2113 C 0.2046 0.90352 0.24123 0.0
C2114 C 0.26257 0.93749 0.23266 0.0
C2115 C 0.27095 0.93653 0.2708 0.0
N2116 N 0.24472 0.92447 0.33242 0.0
N2117 N 0.21251 0.94466 0.1892 0.0
C2118 C 0.24427 0.91851 0.29497 0.0
C2119 C 0.22623 0.92906 0.22074 0.0
N2120 N 0.19695 0.86964 0.29899 0.0
N2121 N 0.29001 0.94177 0.20699 0.0
H2122 H 0.18576 0.93811 0.1799 0.0
H2123 H 0.22683 0.9662 0.17559 0.0
H2124 H 0.31829 0.9413 0.21404 0.0
H2125 H 0.28401 0.93862 0.17896 0.0
H2126 H 0.20553 0.8618 0.32574 0.0
H2127 H 0.17552 0.85352 0.28762 0.0
H2128 H 0.22486 0.91304 0.35051 0.0
H2129 H 0.26077 0.94557 0.34399 0.0
C2130 C 0.37336 1.00249 0.55731 0.0
C2131 C 0.3579 0.03163 0.53386 0.0
C2132 C 0.3724 0.99171 0.4816 0.0
C2133 C 0.39455 0.96712 0.50259 0.0
N2134 N 0.42021 0.95456 0.5639 0.0
N2135 N 0.36223 0.05647 0.47117 0.0
C2136 C 0.39661 0.97401 0.5414 0.0
C2137 C 0.36283 0.02704 0.49527 0.0
N2138 N 0.36537 1.00033 0.59425 0.0
N2139 N 0.3585 0.98062 0.44878 0.0
H2140 H 0.36103 0.08419 0.47978 0.0
H2141 H 0.36956 0.0527 0.4433 0.0
H2142 H 0.3379 0.99651 0.43563 0.0
H2143 H 0.36472 0.9542 0.43872 0.0
H2144 H 0.3756 0.97881 0.61117 0.0
H2145 H 0.34638 1.01786 0.60693 0.0
H2146 H 0.43923 0.93495 0.55384 0.0
H2147 H 0.43923 0.93495 0.55384 0.0
C2148 C 0.2478 0.1386 0.73277 0.0
C2149 C 0.25088 0.10057 0.7444 0.0
C2150 C 0.31889 0.1041 0.73262 0.0
C2151 C 0.31601 0.14264 0.72403 0.0
N2152 N 0.2766 0.19684 0.71686 0.0
N2153 N 0.29036 0.04508 0.74613 0.0
C2154 C 0.28033 0.1597 0.72381 0.0
C2155 C 0.28655 0.08266 0.74125 0.0
N2156 N 0.21348 0.15499 0.72974 0.0
N2157 N 0.35359 0.08861 0.73578 0.0
H2158 H 0.26917 0.02733 0.754 0.0
H2159 H 0.31413 0.03014 0.73858 0.0
H2160 H 0.37745 0.10238 0.72673 0.0
H2161 H 0.35927 0.06347 0.74934 0.0
H2162 H 0.21008 0.18287 0.72182 0.0
H2163 H 0.18862 0.14006 0.7326 0.0
H2164 H 0.29912 0.21453 0.71124 0.0
H2165 H 0.29912 0.21453 0.71124 0.0
C2166 C 0.1799 0.06168 0.96651 0.0
C2167 C 0.1405 0.06139 0.96697 0.0
C2168 C 0.14161 0.99598 0.9875 0.0
C2169 C 0.18103 0.99818 0.99231 0.0
N2170 N 0.23508 0.03855 0.99671 0.0
N2171 N 0.08328 0.02708 0.97668 0.0
C2172 C 0.19975 0.03221 0.98386 0.0
C2173 C 0.12127 0.02822 0.97655 0.0
N2174 N 0.19829 0.09134 0.95108 0.0
N2175 N 0.12302 0.9636 0.99517 0.0
H2176 H 0.06659 0.0498 0.96914 0.0
H2177 H 0.06659 0.0498 0.96914 0.0
H2178 H 0.1368 0.93936 1.00349 0.0
H2179 H 0.09404 0.96117 0.99251 0.0
H2180 H 0.18409 0.11371 0.93883 0.0
H2181 H 0.22718 0.09155 0.94707 0.0
H2182 H 0.24734 0.06494 0.9962 0.0
H2183 H 0.25074 1.01869 1.01104 0.0
C2184 C 0.30581 0.24738 0.07439 0.0
C2185 C 0.28736 0.27409 0.09692 0.0
C2186 C 0.29736 0.23287 0.15146 0.0
C2187 C 0.31677 0.20745 0.1286 0.0
N2188 N 0.35105 0.198 0.07237 0.0
N2189 N 0.27327 0.29621 0.15893 0.0
C2190 C 0.32484 0.21754 0.09147 0.0
C2191 C 0.28552 0.26815 0.13632 0.0
N2192 N 0.30289 0.24814 0.03649 0.0
N2193 N 0.28941 0.22187 0.1869 0.0
H2194 H 0.26515 0.32224 0.14856 0.0
H2195 H 0.27457 0.29513 0.18795 0.0
H2196 H 0.27332 0.23728 0.20557 0.0
H2197 H 0.27332 0.23728 0.20557 0.0
H2198 H 0.31055 0.22538 1.0202 0.0
H2199 H 0.29072 0.26978 0.02154 0.0
H2200 H 0.36059 0.20555 0.04584 0.0
H2201 H 0.36624 0.17733 0.08594 0.0
C2202 C 0.82047 0.30918 0.93137 0.0
C2203 C 0.80086 0.33183 0.90626 0.0
C2204 C 0.74686 0.2905 0.91687 0.0
C2205 C 0.77021 0.26415 0.93612 0.0
N2206 N 0.83424 0.24531 0.93935 0.0
N2207 N 0.74388 0.33889 0.87008 0.0
C2208 C 0.80836 0.27264 0.93786 0.0
C2209 C 0.76367 0.32114 0.89718 0.0
N2210 N 0.85204 0.32225 0.94722 0.0
N2211 N 0.70907 0.28752 0.9178 0.0
H2212 H 0.75508 0.3601 0.85342 0.0
H2213 H 0.75508 0.3601 0.85342 0.0
H2214 H 0.69589 0.26941 0.93619 0.0
H2215 H 0.69167 0.30603 0.90339 0.0
H2216 H 0.8667 0.30666 0.96701 0.0
H2217 H 0.8667 0.30666 0.96701 0.0
H2218 H 0.82707 0.21716 0.93709 0.0
H2219 H 0.82707 0.21716 0.93709 0.0
C2220 C 0.96846 0.55021 0.18306 0.0
C2221 C 0.9638 0.5462 0.14449 0.0
C2222 C 0.02179 0.51015 0.14477 0.0
C2223 C 0.0317 0.52338 0.18134 0.0
N2224 N 1.01202 0.56826 0.22904 0.0
N2225 N 0.98925 0.52436 0.08672 0.0
C2226 C 1.00438 0.54667 0.19896 0.0
C2227 C 0.99184 0.52729 0.12452 0.0
N2228 N 0.93852 0.55735 0.20509 0.0
N2229 N 0.03712 0.47847 0.13116 0.0
H2230 H 0.96649 0.5352 0.07197 0.0
H2231 H 1.01068 0.51314 0.07048 0.0
H2232 H 0.04842 0.45919 0.14959 0.0
H2233 H 0.03073 0.46791 0.10485 0.0
H2234 H 0.94058 0.5563 0.23416 0.0
H2235 H 0.91166 0.55861 0.19421 0.0
H2236 H 0.99342 0.58887 0.23788 0.0
H2237 H 0.03736 0.56956 0.24237 0.0
C2238 C 0.73552 0.74176 0.37904 0.0
C2239 C 0.72147 0.71266 0.4021 0.0
C2240 C 0.73593 0.7499 0.45741 0.0
C2241 C 0.74777 0.78048 0.43489 0.0
N2242 N 0.75112 0.80773 0.3732 0.0
N2243 N 0.69764 0.69474 0.46184 0.0
C2244 C 0.74502 0.77715 0.39526 0.0
C2245 C 0.71779 0.71907 0.44069 0.0
N2246 N 0.74144 0.73499 0.34209 0.0
N2247 N 0.74578 0.74754 0.49412 0.0
H2248 H 0.68522 0.67117 0.45023 0.0
H2249 H 0.69021 0.70068 0.48937 0.0
H2250 H 0.76196 0.76736 0.50774 0.0
H2251 H 0.74201 0.7231 0.5096 0.0
H2252 H 0.75529 0.75353 0.32434 0.0
H2253 H 0.73442 0.70954 0.32995 0.0
H2254 H 0.74666 0.80787 0.34446 0.0
H2255 H 0.75723 0.83392 0.38426 0.0
C2256 C 0.08632 0.99948 0.19096 0.0
C2257 C 0.0882 0.99462 0.15192 0.0
C2258 C 0.02168 1.01232 0.14682 0.0
C2259 C 1.01998 1.01803 0.18639 0.0
N2260 N 0.05567 0.02727 0.24331 0.0
N2261 N 0.06085 1.0044 0.09155 0.0
C2262 C 0.05375 1.01481 0.20752 0.0
C2263 C 0.05684 1.00371 0.12946 0.0
N2264 N 0.11544 0.98782 0.21273 0.0
N2265 N 0.98951 1.01191 0.12626 0.0
H2266 H 0.08592 0.99722 0.07847 0.0
H2267 H 0.04046 1.01464 0.07347 0.0
H2268 H 0.96306 1.01549 0.13789 0.0
H2269 H 0.9886 1.00428 0.09825 0.0
H2270 H 0.11415 0.98642 0.24179 0.0
H2271 H 0.13959 0.97609 0.2016 0.0
H2272 H 0.08102 0.03252 0.25661 0.0
H2273 H 0.03264 0.03463 0.25907 0.0
C2274 C 0.26475 0.80963 0.64894 0.0
C2275 C 0.25012 0.83825 0.62564 0.0
C2276 C 0.24277 0.79303 0.57519 0.0
C2277 C 0.26221 0.76551 0.59587 0.0
N2278 N 0.29055 0.74697 0.65432 0.0
N2279 N 0.24177 0.85798 0.56064 0.0
C2280 C 0.27332 0.77384 0.6333 0.0
C2281 C 0.24422 0.83044 0.58704 0.0
N2282 N 0.27109 0.81701 0.68577 0.0
N2283 N 0.22195 0.7841 0.54462 0.0
H2284 H 0.24288 0.88634 0.56592 0.0
H2285 H 0.24161 0.85212 0.5321 0.0
H2286 H 0.21595 0.75685 0.53713 0.0
H2287 H 0.20571 0.80377 0.53043 0.0
H2288 H 0.27792 0.79676 0.70554 0.0
H2289 H 0.26823 0.84371 0.6969 0.0
H2290 H 0.30348 0.75213 0.67979 0.0
H2291 H 0.29219 0.71916 0.64597 0.0
C2292 C 0.98765 0.52641 0.33185 0.0
C2293 C 0.02343 0.5124 0.34218 0.0
C2294 C 0.99187 0.47805 0.39401 0.0
C2295 C 0.95627 0.48875 0.38045 0.0
N2296 N 0.92164 0.51489 0.32874 0.0
N2297 N 0.0588 0.47093 0.38211 0.0
C2298 C 0.95479 0.50998 0.34681 0.0
C2299 C 0.02527 0.48648 0.37271 0.0
N2300 N 0.98427 0.55705 0.30934 0.0
N2301 N 0.99308 0.46225 0.42856 0.0
H2302 H 0.0837 0.47788 0.36865 0.0
H2303 H 0.06151 0.44936 0.40149 0.0
H2304 H 1.01762 0.4558 0.44288 0.0
H2305 H 1.01762 0.4558 0.44288 0.0
H2306 H 0.95888 0.57062 0.30476 0.0
H2307 H 1.00682 0.57191 0.29899 0.0
H2308 H 0.91967 0.52649 0.30204 0.0
H2309 H 0.89684 0.50371 0.33854 0.0
C2310 C 0.54065 0.59046 0.88257 0.0
C2311 C 0.57408 0.56942 0.88715 0.0
C2312 C 0.54567 0.51904 0.85169 0.0
C2313 C 0.51068 0.53787 0.85153 0.0
N2314 N 0.47321 0.58744 0.87672 0.0
N2315 N 0.60064 0.50758 0.8888 0.0
C2316 C 0.50759 0.5725 0.86989 0.0
C2317 C 0.57459 0.53187 0.87532 0.0
N2318 N 0.54061 0.62772 0.89 0.0
N2319 N 0.55197 0.48977 0.82849 0.0
H2320 H 0.61921 0.51496 0.90995 0.0
H2321 H 0.60018 0.47915 0.88259 0.0
H2322 H 0.53306 0.48287 0.80768 0.0
H2323 H 0.57789 0.47656 0.82648 0.0
H2324 H 0.5167 0.644 0.88848 0.0
H2325 H 0.56514 0.64285 0.89437 0.0
H2326 H 0.4693 0.60966 0.89493 0.0
H2327 H 0.44847 0.57488 0.8678 0.0
C2328 C 0.63493 0.77762 0.76101 0.0
C2329 C 0.59754 0.78667 0.77154 0.0
C2330 C 0.59314 0.82702 0.71647 0.0
C2331 C 0.628 0.81432 0.7031 0.0
N2332 N 0.68116 0.77347 0.71277 0.0
N2333 N 0.53894 0.81455 0.75167 0.0
C2334 C 0.64878 0.7888 0.72534 0.0
C2335 C 0.57636 0.81013 0.74768 0.0
N2336 N 0.6574 0.75778 0.78463 0.0
N2337 N 0.57465 0.85438 0.6978 0.0
H2338 H 0.52287 0.80049 0.77145 0.0
H2339 H 0.52287 0.80049 0.77145 0.0
H2340 H 0.5871 0.86783 0.6753 0.0
H2341 H 0.54869 0.86466 0.70632 0.0
H2342 H 0.68465 0.75016 0.77745 0.0
H2343 H 0.6495 0.75092 0.81187 0.0
H2344 H 0.69233 0.77878 0.68634 0.0
H2345 H 0.69233 0.77878 0.68634 0.0
C2346 C 0.49665 0.35776 0.96217 0.0
C2347 C 0.47538 0.3913 0.96331 0.0
C2348 C 0.47693 0.38792 0.03277 0.0
C2349 C 0.49897 0.35498 0.03144 0.0
N2350 N 0.53237 0.31035 0.99285 0.0
N2351 N 0.45253 0.44244 0.99985 0.0
C2352 C 0.50971 0.34075 0.99584 0.0
C2353 C 0.46763 0.40747 0.99881 0.0
N2354 N 0.50401 0.341 0.92882 0.0
N2355 N 0.46395 0.39997 0.06651 0.0
H2356 H 0.44718 0.45781 0.9756 0.0
H2357 H 0.44881 0.4576 0.02429 0.0
H2358 H 0.47028 0.38629 0.09152 0.0
H2359 H 0.44451 0.42137 0.06949 0.0
H2360 H 0.4934 0.35064 0.9035 0.0
H2361 H 0.51963 0.31647 0.92674 0.0
H2362 H 0.54353 0.29577 1.01556 0.0
H2363 H 0.54353 0.29577 1.01556 0.0
C2364 C 0.91187 0.29151 0.25654 0.0
C2365 C 0.93606 0.26799 0.27837 0.0
C2366 C 0.93968 0.2268 0.22339 0.0
C2367 C 0.91068 0.24586 0.20485 0.0
N2368 N 0.86739 0.29675 0.20491 0.0
N2369 N 0.9653 0.2082 0.28206 0.0
C2370 C 0.89577 0.27806 0.22215 0.0
C2371 C 0.94778 0.23443 0.26139 0.0
N2372 N 0.90771 0.328 0.2658 0.0
N2373 N 0.96062 0.20177 0.2043 0.0
H2374 H 0.96535 0.20929 0.31098 0.0
H2375 H 0.97437 0.18354 0.27034 0.0
H2376 H 0.98646 0.19237 0.21393 0.0
H2377 H 0.95365 0.19385 0.17741 0.0
H2378 H 0.89414 0.34734 0.24875 0.0
H2379 H 0.92257 0.33988 0.28748 0.0
H2380 H 0.85329 0.31897 0.21717 0.0
H2381 H 0.85637 0.28803 0.17939 0.0
C2382 C 0.02983 0.65208 0.51174 0.0
C2383 C 0.02776 0.69136 0.51804 0.0
C2384 C 0.04374 0.7014 0.45136 0.0
C2385 C 0.05107 0.66266 0.4467 0.0
N2386 N 0.05068 0.60074 0.47245 0.0
N2387 N 0.03017 0.75343 0.49188 0.0
C2388 C 0.04407 0.63797 0.47703 0.0
C2389 C 0.03456 0.71593 0.48735 0.0
N2390 N 1.01809 0.62806 0.53907 0.0
N2391 N 0.04274 0.7241 0.42057 0.0
H2392 H 1.01603 0.7646 0.51454 0.0
H2393 H 0.0407 0.77329 0.47331 0.0
H2394 H 0.05057 0.71523 0.39403 0.0
H2395 H 0.03233 0.75123 0.42067 0.0
H2396 H 1.01369 0.59965 0.53494 0.0
H2397 H 1.01247 0.63683 0.56616 0.0
H2398 H 0.05047 0.58143 0.49426 0.0
H2399 H 0.0585 0.58937 0.44687 0.0
C2400 C 0.64924 0.24035 0.81788 0.0
C2401 C 0.62274 0.23568 0.8474 0.0
C2402 C 0.57325 0.25368 0.80296 0.0
C2403 C 0.59877 0.25227 0.77252 0.0
N2404 N 0.66248 0.24495 0.75185 0.0
N2405 N 0.55679 0.23657 0.86532 0.0
C2406 C 0.63703 0.24523 0.78026 0.0
C2407 C 0.58411 0.24172 0.83907 0.0
N2408 N 0.68649 0.24292 0.82493 0.0
N2409 N 0.53931 0.27049 0.7988 0.0
H2410 H 0.56113 0.23382 0.89371 0.0
H2411 H 0.52863 0.23368 0.85832 0.0
H2412 H 0.52907 0.27923 0.77339 0.0
H2413 H 0.52275 0.279 0.8212 0.0
H2414 H 0.69786 0.24313 0.85174 0.0
H2415 H 0.69786 0.24313 0.85174 0.0
H2416 H 0.69092 0.24018 0.75644 0.0
H2417 H 0.65475 0.24812 0.72391 0.0
C2418 C 0.03956 0.37029 0.07136 0.0
C2419 C 0.07614 0.38536 0.07024 0.0
C2420 C 0.07647 0.37273 1.00257 0.0
C2421 C 0.04455 0.34997 1.00636 0.0
N2422 N 1.00251 0.31924 0.04919 0.0
N2423 N 0.13249 0.39359 0.03347 0.0
C2424 C 0.02812 0.34634 0.04229 0.0
C2425 C 0.09564 0.38424 0.03537 0.0
N2426 N 1.01436 0.38124 0.09759 0.0
N2427 N 0.08715 0.38527 0.96826 0.0
H2428 H 0.14922 0.3959 0.05719 0.0
H2429 H 0.14711 0.39505 1.00845 0.0
H2430 H 0.07198 0.37894 0.94425 0.0
H2431 H 0.10774 0.40559 0.9647 0.0
H2432 H 0.98668 0.37197 0.09751 0.0
H2433 H 1.0198 0.40319 0.11571 0.0
H2434 H 0.99089 0.31474 0.07559 0.0
H2435 H 0.99832 0.29825 0.02978 0.0
C2436 C 0.93885 0.74136 0.29266 0.0
C2437 C 0.94945 0.77108 0.26827 0.0
C2438 C 0.93924 0.81432 0.32117 0.0
C2439 C 0.91918 0.78624 0.34043 0.0
N2440 N 0.94153 0.72518 0.35761 0.0
N2441 N 0.97935 0.83181 0.26934 0.0
C2442 C 0.92961 0.74929 0.3305 0.0
C2443 C 0.9553 0.8068 0.28517 0.0
N2444 N 0.94268 0.70517 0.28186 0.0
N2445 N 0.94938 0.84501 0.34062 0.0
H2446 H 0.99916 0.82443 0.24977 0.0
H2447 H 0.98241 0.85948 0.27717 0.0
H2448 H 0.94565 0.84669 0.36932 0.0
H2449 H 0.96519 0.86645 0.32974 0.0
H2450 H 0.93359 0.68319 0.29869 0.0
H2451 H 0.95577 0.69713 0.2572 0.0
H2452 H 0.9525 0.69883 0.3521 0.0
H2453 H 0.94812 0.73456 0.38436 0.0
C2454 C 0.51724 0.71198 0.54744 0.0
C2455 C 0.51717 0.69046 0.5139 0.0
C2456 C 0.50823 0.63397 0.55345 0.0
C2457 C 0.50204 0.65645 0.58495 0.0
N2458 N 0.49338 0.71764 0.61009 0.0
N2459 N 0.50596 0.62982 0.48585 0.0
C2460 C 0.50461 0.69558 0.58134 0.0
C2461 C 0.51164 0.65082 0.5171 0.0
N2462 N 0.53001 0.7479 0.54801 0.0
N2463 N 0.51134 0.59658 0.55933 0.0
H2464 H 0.50425 0.64119 0.45909 0.0
H2465 H 0.49814 0.60184 0.48677 0.0
H2466 H 0.51874 0.57748 0.53871 0.0
H2467 H 0.51874 0.57748 0.53871 0.0
H2468 H 0.53655 0.76158 0.57278 0.0
H2469 H 0.53728 0.76343 0.52472 0.0
H2470 H 0.49172 0.74653 0.60745 0.0
H2471 H 0.48188 0.70684 0.63466 0.0
C2472 C 0.77423 0.62355 0.81091 0.0
C2473 C 0.77321 0.59209 0.78678 0.0
C2474 C 0.70485 0.59713 0.78477 0.0
C2475 C 0.70605 0.63145 0.80438 0.0
N2476 N 0.74506 0.68022 0.83034 0.0
N2477 N 0.73693 0.55681 0.74187 0.0
C2478 C 0.7413 0.64524 0.81634 0.0
C2479 C 0.73835 0.58107 0.77122 0.0
N2480 N 0.8072 0.63515 0.82609 0.0
N2481 N 0.67139 0.57976 0.77884 0.0
H2482 H 0.7601 0.54244 0.73167 0.0
H2483 H 0.71266 0.5524 0.72638 0.0
H2484 H 0.6462 0.58983 0.78944 0.0
H2485 H 0.66918 0.5534 0.76695 0.0
H2486 H 0.80883 0.65842 0.84347 0.0
H2487 H 0.83236 0.62102 0.82223 0.0
H2488 H 0.72312 0.69932 0.832 0.0
H2489 H 0.72312 0.69932 0.832 0.0
C2490 C 0.69303 0.49724 0.02892 0.0
C2491 C 0.67868 0.53391 0.03489 0.0
C2492 C 0.61971 0.5054 0.0573 0.0
C2493 C 0.63612 0.46932 0.05544 0.0
N2494 N 0.68689 0.43044 0.03777 0.0
N2495 N 0.62769 0.57306 0.05426 0.0
C2496 C 0.67186 0.46527 0.03932 0.0
C2497 C 0.64151 0.53799 0.0485 0.0
N2498 N 0.72832 0.4918 1.01618 0.0
N2499 N 0.58288 0.50791 0.067 0.0
H2500 H 0.64318 0.59713 0.04856 0.0
H2501 H 0.60199 0.57861 0.06663 0.0
H2502 H 0.56671 0.48412 0.07207 0.0
H2503 H 0.56762 0.5326 0.06708 0.0
H2504 H 0.74698 0.51349 1.01104 0.0
H2505 H 0.74698 0.51349 1.01104 0.0
H2506 H 0.71366 0.42468 0.02765 0.0
H2507 H 0.71366 0.42468 0.02765 0.0
C2508 C 0.80961 0.39738 0.28298 0.0
C2509 C 0.82766 0.41495 0.31305 0.0
C2510 C 0.78033 0.4651 0.31065 0.0
C2511 C 0.76321 0.44813 0.27901 0.0
N2512 N 0.77901 0.4094 0.22497 0.0
N2513 N 0.83564 0.46986 0.34906 0.0
C2514 C 0.78265 0.4175 0.262 0.0
C2515 C 0.81449 0.45014 0.32488 0.0
N2516 N 0.81811 0.36144 0.27405 0.0
N2517 N 0.76521 0.49619 0.32656 0.0
H2518 H 0.83061 0.4976 0.35599 0.0
H2519 H 0.8607 0.45884 0.35848 0.0
H2520 H 0.74469 0.51233 0.31398 0.0
H2521 H 0.77331 0.5062 0.35257 0.0
H2522 H 0.80255 0.34632 0.25465 0.0
H2523 H 0.83825 0.34601 0.28836 0.0
H2524 H 0.7945 0.38828 0.21236 0.0
H2525 H 0.76726 0.42747 0.20546 0.0
C2526 C 0.83324 0.58157 0.53983 0.0
C2527 C 0.87209 0.58948 0.53931 0.0
C2528 C 0.88371 0.52513 0.51774 0.0
C2529 C 0.84419 0.51728 0.51934 0.0
N2530 N 0.78374 0.54659 0.51248 0.0
N2531 N 0.9322 0.57297 0.51457 0.0
C2532 C 0.81968 0.54779 0.52496 0.0
C2533 C 0.89671 0.56255 0.52402 0.0
N2534 N 0.80827 0.60626 0.55437 0.0
N2535 N 0.90933 0.49712 0.51368 0.0
H2536 H 0.94199 0.6001 0.51852 0.0
H2537 H 0.95036 0.55598 0.49951 0.0
H2538 H 0.90275 0.46899 0.51172 0.0
H2539 H 0.93801 0.50135 0.51641 0.0
H2540 H 0.78089 0.59867 0.56056 0.0
H2541 H 0.81465 0.63328 0.56215 0.0
H2542 H 0.76823 0.5709 0.50834 0.0
H2543 H 0.77076 0.52292 0.50227 0.0
C2544 C 0.77888 0.3959 0.76699 0.0
C2545 C 0.78266 0.43554 0.77122 0.0
C2546 C 0.71506 0.44172 0.75892 0.0
C2547 C 0.71194 0.40314 0.75121 0.0
N2548 N 0.74073 0.3423 0.75397 0.0
N2549 N 0.74912 0.49205 0.78639 0.0
C2550 C 0.74351 0.38002 0.75727 0.0
C2551 C 0.74939 0.45734 0.77099 0.0
N2552 N 0.8091 0.37279 0.77042 0.0
N2553 N 0.68462 0.46409 0.75476 0.0
H2554 H 0.77284 0.50701 0.79334 0.0
H2555 H 0.72469 0.50495 0.79561 0.0
H2556 H 0.65846 0.45348 0.74897 0.0
H2557 H 0.68601 0.49307 0.75382 0.0
H2558 H 0.80688 0.34384 0.76803 0.0
H2559 H 0.83642 0.38203 0.77388 0.0
H2560 H 0.71594 0.32849 0.74723 0.0
H2561 H 0.71594 0.32849 0.74723 0.0
C2562 C 0.89709 0.52872 0.99738 0.0
C2563 C 0.8572 0.53278 0.99715 0.0
C2564 C 0.85243 0.46733 0.97557 0.0
C2565 C 0.89153 0.46249 0.97764 0.0
N2566 N 0.95156 0.4874 0.99314 0.0
N2567 N 0.8016 0.50944 0.96629 0.0
C2568 C 0.91408 0.49313 0.9888 0.0
C2569 C 0.83621 0.50316 0.98062 0.0
N2570 N 0.91879 0.55958 1.00296 0.0
N2571 N 0.83001 0.43697 0.9703 0.0
H2572 H 0.78963 0.53555 0.96451 0.0
H2573 H 0.7863 0.48946 0.95187 0.0
H2574 H 0.80133 0.4375 0.97565 0.0
H2575 H 0.84025 0.41081 0.96281 0.0
H2576 H 0.94783 0.55967 1.00145 0.0
H2577 H 0.90756 0.58633 1.00473 0.0
H2578 H 0.96981 0.50672 1.00477 0.0
H2579 H 0.96416 0.46196 0.98669 0.0
C2580 C 0.79569 0.65161 0.24694 0.0
C2581 C 0.82262 0.63144 0.22633 0.0
C2582 C 0.78599 0.57413 0.2356 0.0
C2583 C 0.75719 0.59494 0.25342 0.0
N2584 N 0.73101 0.65565 0.26636 0.0
N2585 N 0.8389 0.57566 0.19363 0.0
C2586 C 0.76108 0.63437 0.25644 0.0
C2587 C 0.81648 0.59326 0.21866 0.0
N2588 N 0.80353 0.68721 0.25785 0.0
N2589 N 0.78532 0.5361 0.23596 0.0
H2590 H 0.86042 0.58974 0.18004 0.0
H2591 H 0.8336 0.54894 0.18361 0.0
H2592 H 0.76369 0.52096 0.24778 0.0
H2593 H 0.80774 0.51966 0.22739 0.0
H2594 H 0.78642 0.70231 0.27584 0.0
H2595 H 0.82902 0.70009 0.25179 0.0
H2596 H 0.73122 0.68471 0.2654 0.0
H2597 H 0.70451 0.64431 0.27087 0.0
C2598 C 0.63134 0.54498 0.48917 0.0
C2599 C 0.64687 0.58063 0.49697 0.0
C2600 C 0.69648 0.54919 0.53269 0.0
C2601 C 0.68628 0.51395 0.51775 0.0
N2602 N 0.6428 0.47867 0.48021 0.0
N2603 N 0.69922 0.61526 0.52133 0.0
C2604 C 0.65345 0.51195 0.49519 0.0
C2605 C 0.68086 0.58217 0.51734 0.0
N2606 N 0.59483 0.54245 0.47861 0.0
N2607 N 0.72048 0.55184 0.56223 0.0
H2608 H 0.69027 0.63968 0.50856 0.0
H2609 H 0.72528 0.61759 0.53404 0.0
H2610 H 0.73664 0.52985 0.57238 0.0
H2611 H 0.72278 0.57626 0.57782 0.0
H2612 H 0.5809 0.51709 0.47561 0.0
H2613 H 0.57768 0.56595 0.47666 0.0
H2614 H 0.62124 0.47643 0.46078 0.0
H2615 H 0.65727 0.45387 0.48511 0.0
C2616 C 0.76276 0.74726 0.60809 0.0
C2617 C 0.77882 0.78387 0.60921 0.0
C2618 C 0.82466 0.75963 0.65524 0.0
C2619 C 0.80846 0.72351 0.6538 0.0
N2620 N 0.75412 0.68736 0.63911 0.0
N2621 N 0.82009 0.82625 0.64057 0.0
C2622 C 0.77536 0.71848 0.63291 0.0
C2623 C 0.80864 0.79041 0.63466 0.0
N2624 N 0.7355 0.73955 0.58285 0.0
N2625 N 0.85563 0.76334 0.67695 0.0
H2626 H 0.80957 0.84873 0.6253 0.0
H2627 H 0.83778 0.83426 0.66211 0.0
H2628 H 0.8714 0.78766 0.67939 0.0
H2629 H 0.8714 0.78766 0.67939 0.0
H2630 H 0.72547 0.71277 0.57763 0.0
H2631 H 0.72556 0.75958 0.56462 0.0
H2632 H 0.72754 0.68354 0.62791 0.0
H2633 H 0.76118 0.66728 0.65906 0.0
C2634 C 0.3074 0.83456 0.4606 0.0
C2635 C 0.30502 0.84268 0.42195 0.0
C2636 C 0.27499 0.78171 0.41225 0.0
C2637 C 0.27455 0.77467 0.45142 0.0
N2638 N 0.30536 0.78832 0.50938 0.0
N2639 N 0.28116 0.82659 0.36151 0.0
C2640 C 0.29494 0.79951 0.47466 0.0
C2641 C 0.28757 0.8168 0.39784 0.0
N2642 N 0.31992 0.86143 0.4844 0.0
N2643 N 0.26744 0.75325 0.38858 0.0
H2644 H 0.29022 0.85189 0.35015 0.0
H2645 H 0.26448 0.81099 0.34356 0.0
H2646 H 0.26557 0.7263 0.39892 0.0
H2647 H 0.26977 0.75505 0.35963 0.0
H2648 H 0.33174 0.88641 0.47505 0.0
H2649 H 0.31661 0.85981 0.51328 0.0
H2650 H 0.32316 0.80336 0.52673 0.0
H2651 H 0.3004 0.76137 0.5182 0.0
C2652 C 0.50826 0.06453 0.63264 0.0
C2653 C 0.47666 0.07505 0.6542 0.0
C2654 C 0.50628 0.04675 0.70871 0.0
C2655 C 0.54083 0.04325 0.68942 0.0
N2656 N 0.57536 0.05562 0.63247 0.0
N2657 N 0.45235 0.08584 0.71585 0.0
C2658 C 0.54206 0.05395 0.65105 0.0
C2659 C 0.47747 0.06878 0.69311 0.0
N2660 N 0.50574 0.06383 0.59465 0.0
N2661 N 0.49948 0.02734 0.74069 0.0
H2662 H 0.43465 0.10661 0.7058 0.0
H2663 H 0.45243 0.08247 0.7448 0.0
H2664 H 0.51884 1.0095 0.75284 0.0
H2665 H 0.47272 0.02575 0.75216 0.0
H2666 H 0.52699 0.05349 0.57764 0.0
H2667 H 0.48077 0.06954 0.58067 0.0
H2668 H 0.57782 0.06618 0.60539 0.0
H2669 H 0.60092 0.05051 0.64542 0.0
C2670 C 0.28086 0.24345 0.93566 0.0
C2671 C 0.26649 0.27968 0.92846 0.0
C2672 C 0.226 0.25039 0.88031 0.0
C2673 C 0.23561 0.21428 0.89355 0.0
N2674 N 0.26624 0.17803 0.94127 0.0
N2675 N 0.22547 0.31789 0.8913 0.0
C2676 C 0.26077 0.21155 0.92394 0.0
C2677 C 0.23871 0.28328 0.90004 0.0
N2678 N 0.31598 0.23907 0.94949 0.0
N2679 N 0.20667 0.25231 0.84771 0.0
H2680 H 0.23603 0.34193 0.9038 0.0
H2681 H 0.20279 0.32254 0.87369 0.0
H2682 H 0.20014 0.27709 0.8338 0.0
H2683 H 0.20014 0.27709 0.8338 0.0
H2684 H 0.32854 0.21297 0.95276 0.0
H2685 H 0.33445 0.2613 0.95105 0.0
H2686 H 0.28272 0.17526 0.96517 0.0
H2687 H 0.25091 0.15434 0.93415 0.0
C2688 C 0.55071 0.50836 0.71504 0.0
C2689 C 0.51564 0.51602 0.69825 0.0
C2690 C 0.53307 0.47429 0.64693 0.0
C2691 C 0.57089 0.47311 0.65978 0.0
N2692 N 0.59696 0.46028 0.71955 0.0
N2693 N 0.47316 0.50433 0.64701 0.0
C2694 C 0.57555 0.48259 0.69775 0.0
C2695 C 0.50695 0.49868 0.66375 0.0
N2696 N 0.56034 0.52462 0.748 0.0
N2697 N 0.51908 0.448 0.62349 0.0
H2698 H 0.45342 0.52297 0.65727 0.0
H2699 H 0.4661 0.49185 0.62167 0.0
H2700 H 0.53357 0.42396 0.61577 0.0
H2701 H 0.53357 0.42396 0.61577 0.0
H2702 H 0.58692 0.52133 0.7596 0.0
H2703 H 0.54277 0.54302 0.76214 0.0
H2704 H 0.5961 0.46159 0.74867 0.0
H2705 H 0.61073 0.4374 0.70819 0.0
C2706 C 0.772 0.29774 0.10194 0.0
C2707 C 0.75998 0.26036 0.10758 0.0
C2708 C 0.71507 0.2822 0.15432 0.0
C2709 C 0.72952 0.31886 0.151 0.0
N2710 N 0.78066 0.35777 0.13091 0.0
N2711 N 0.7242 0.21579 0.14322 0.0
C2712 C 0.76042 0.32576 0.12725 0.0
C2713 C 0.73241 0.25213 0.13488 0.0
N2714 N 0.79381 0.30675 0.0719 0.0
N2715 N 0.68457 0.27737 0.17657 0.0
H2716 H 0.736 0.19348 0.12882 0.0
H2717 H 0.70778 0.20747 0.16577 0.0
H2718 H 0.67044 0.25221 0.18039 0.0
H2719 H 0.67044 0.25221 0.18039 0.0
H2720 H 0.8007 0.3342 0.06492 0.0
H2721 H 0.80134 0.28729 0.0517 0.0
H2722 H 0.80558 0.36264 0.11656 0.0
H2723 H 0.77483 0.37728 0.15155 0.0
C2724 C 0.5067 1.01007 0.84335 0.0
C2725 C 0.54046 0.99553 0.85813 0.0
C2726 C 0.5033 0.96532 0.90813 0.0
C2727 C 0.46965 0.97559 0.88996 0.0
N2728 N 0.44069 1.001 0.83457 0.0
N2729 N 0.57099 0.95638 0.90347 0.0
C2730 C 0.47198 0.9955 0.85562 0.0
C2731 C 0.53882 0.97193 0.89016 0.0
N2732 N 0.50731 0.04018 0.81981 0.0
N2733 N 0.50053 0.95178 0.94354 0.0
H2734 H 0.59695 0.96159 0.89111 0.0
H2735 H 0.57146 0.93611 0.9244 0.0
H2736 H 0.52336 0.94589 0.96067 0.0
H2737 H 0.52336 0.94589 0.96067 0.0
H2738 H 0.48328 0.05537 0.81327 0.0
H2739 H 0.53183 0.05193 0.80922 0.0
H2740 H 0.44134 1.01309 0.80806 0.0
H2741 H 0.41482 0.99 0.84193 0.0
C2742 C 0.05158 0.02592 0.34444 0.0
C2743 C 1.01586 0.03688 0.35777 0.0
C2744 C 0.04742 0.06881 0.41013 0.0
C2745 C 0.08289 0.06058 0.3941 0.0
N2746 N 0.11726 0.04013 0.34039 0.0
N2747 N 0.97973 0.07249 0.40165 0.0
C2748 C 0.08419 0.04249 0.35916 0.0
C2749 C 1.01377 0.06 0.3899 0.0
N2750 N 0.05491 0.99725 0.31983 0.0
N2751 N 0.04586 0.08255 0.44553 0.0
H2752 H 0.95497 0.06554 0.38791 0.0
H2753 H 0.97639 0.09172 0.4231 0.0
H2754 H 0.06989 0.08769 0.46114 0.0
H2755 H 1.02105 0.08609 0.46031 0.0
H2756 H 0.08045 0.98496 0.31304 0.0
H2757 H 0.03194 0.98373 0.3087 0.0
H2758 H 0.11948 0.02972 0.31334 0.0
H2759 H 0.14158 0.05226 0.35055 0.0
loop_
_geom_bond_atom_site_label_1
_geom_bond_atom_site_label_2
_geom_bond_distance
_geom_bond_site_symmetry_2
_ccdc_geom_bond_type
Co0 N1 2.034 . S
Co0 O15 2.262 . S
Co0 O19 1.958 . S
Co0 O23 1.950 . S
Co0 O24 2.057 . S
N1 Co0 2.034 . S
N1 C2 1.366 . S
N1 C4 1.332 . S
C2 N1 1.366 . S
C2 C5 1.377 . S
C2 H34 0.931 . S
N3 C4 1.346 . S
N3 C5 1.337 . S
C4 N1 1.332 . S
C4 N3 1.346 . S
C4 C38 1.361 . S
C5 C2 1.377 . S
C5 N3 1.337 . S
C5 H41 0.930 . S
Co6 N7 2.034 . S
Co6 O20 1.950 . S
Co6 O21 2.262 . S
Co6 O22 1.958 . S
Co6 O26 2.057 . S
N7 Co6 2.034 . S
N7 C10 1.366 . S
N7 C11 1.332 . S
N8 C9 1.337 . S
N8 C11 1.346 . S
C9 N8 1.337 . S
C9 C10 1.377 . S
C9 H42 0.930 . S
C10 N7 1.366 . S
C10 C9 1.377 . S
C10 H14 0.931 . S
C11 N7 1.332 . S
C11 N8 1.346 . S
C11 C28 1.361 . S
Co12 O15 2.096 1_455 S
Co12 O16 2.070 . S
Co12 O17 2.061 1_455 S
Co12 O18 2.037 1_455 S
Co12 O21 2.098 . S
Co12 O25 2.046 . S
C13 O21 1.253 . S
C13 O26 1.264 . S
H14 C10 0.931 . S
O15 Co0 2.262 . S
O15 Co12 2.096 1_655 S
O15 C39 1.251 1_655 S
O16 Co12 2.070 . S
O16 C32 1.221 . S
O17 Co12 2.061 1_655 S
O17 C27 1.221 . S
O18 Co12 2.037 1_655 S
O18 C33 1.237 . S
O19 Co0 1.958 . S
O19 C33 1.278 . S
O20 Co6 1.950 . S
O20 C32 1.277 . S
O21 Co6 2.262 . S
O21 Co12 2.098 . S
O21 C13 1.253 . S
O22 Co6 1.958 . S
O22 C40 1.278 . S
O23 Co0 1.950 . S
O23 C27 1.277 . S
O24 Co0 2.057 . S
O24 C39 1.254 1_655 S
O25 Co12 2.046 . S
O25 C40 1.237 . S
O26 Co6 2.057 . S
O26 C13 1.264 . S
C27 O17 1.221 . S
C27 O23 1.277 . S
C28 C11 1.361 . S
C28 H29 0.960 . S
C28 H30 0.961 . S
C28 H31 0.961 . S
H29 C28 0.960 . S
H30 C28 0.961 . S
H31 C28 0.961 . S
C32 O16 1.221 . S
C32 O20 1.277 . S
C33 O18 1.237 . S
C33 O19 1.278 . S
H34 C2 0.931 . S
H35 C38 0.961 . S
H36 C38 0.961 . S
H37 C38 0.960 . S
C38 C4 1.361 . S
C38 H35 0.961 . S
C38 H36 0.961 . S
C38 H37 0.960 . S
C39 O15 1.251 1_455 S
C39 O24 1.254 1_455 S
C40 O22 1.278 . S
C40 O25 1.237 . S
H41 C5 0.930 . S
H42 C9 0.930 . S
Co43 N44 2.034 . S
Co43 O58 2.262 . S
Co43 O62 1.958 . S
Co43 O66 1.950 . S
Co43 O67 2.057 . S
N44 Co43 2.034 . S
N44 C45 1.366 . S
N44 C47 1.332 . S
C45 N44 1.366 . S
C45 C48 1.377 . S
C45 H77 0.931 . S
N46 C47 1.346 . S
N46 C48 1.337 . S
C47 N44 1.332 . S
C47 N46 1.346 . S
C47 C81 1.361 . S
C48 C45 1.377 . S
C48 N46 1.337 . S
C48 H84 0.930 . S
Co49 N50 2.034 . S
Co49 O63 1.950 . S
Co49 O64 2.262 . S
Co49 O65 1.958 . S
Co49 O69 2.057 . S
N50 Co49 2.034 . S
N50 C53 1.366 . S
N50 C54 1.332 . S
N51 C52 1.337 . S
N51 C54 1.346 . S
C52 N51 1.337 . S
C52 C53 1.377 . S
C52 H85 0.930 . S
C53 N50 1.366 . S
C53 C52 1.377 . S
C53 H57 0.931 . S
C54 N50 1.332 . S
C54 N51 1.346 . S
C54 C71 1.361 . S
Co55 O58 2.091 1_455 S
Co55 O59 2.065 1_455 S
Co55 O60 2.066 . S
Co55 O61 2.042 . S
Co55 O64 2.103 . S
Co55 O68 2.041 1_455 S
C56 O64 1.253 . S
C56 O69 1.263 . S
H57 C53 0.931 . S
O58 Co43 2.262 . S
O58 Co55 2.091 1_655 S
O58 C82 1.253 . S
O59 Co55 2.065 1_655 S
O59 C75 1.221 1_655 S
O60 Co55 2.066 . S
O60 C70 1.221 1_455 S
O61 Co55 2.042 . S
O61 C76 1.237 1_455 S
O62 Co43 1.958 . S
O62 C76 1.278 . S
O63 Co49 1.950 . S
O63 C75 1.277 . S
O64 Co49 2.262 . S
O64 Co55 2.103 . S
O64 C56 1.253 . S
O65 Co49 1.958 . S
O65 C83 1.278 . S
O66 Co43 1.950 . S
O66 C70 1.277 . S
O67 Co43 2.057 . S
O67 C82 1.263 . S
O68 Co55 2.041 1_655 S
O68 C83 1.237 1_655 S
O69 Co49 2.057 . S
O69 C56 1.263 . S
C70 O60 1.221 1_655 S
C70 O66 1.277 . S
C71 C54 1.361 . S
C71 H72 0.960 . S
C71 H73 0.961 . S
C71 H74 0.961 . S
H72 C71 0.960 . S
H73 C71 0.961 . S
H74 C71 0.961 . S
C75 O59 1.221 1_455 S
C75 O63 1.277 . S
C76 O61 1.237 1_655 S
C76 O62 1.278 . S
H77 C45 0.931 . S
H78 C81 0.961 . S
H79 C81 0.961 . S
H80 C81 0.960 . S
C81 C47 1.361 . S
C81 H78 0.961 . S
C81 H79 0.961 . S
C81 H80 0.960 . S
C82 O58 1.253 . S
C82 O67 1.263 . S
C83 O65 1.278 . S
C83 O68 1.237 1_455 S
H84 C48 0.930 . S
H85 C52 0.930 . S
Co86 N87 2.034 . S
Co86 O101 2.262 . S
Co86 O105 1.958 . S
Co86 O109 1.950 . S
Co86 O110 2.057 . S
N87 Co86 2.034 . S
N87 C88 1.366 . S
N87 C90 1.332 . S
C88 N87 1.366 . S
C88 C91 1.377 . S
C88 H120 0.931 . S
N89 C90 1.346 . S
N89 C91 1.337 . S
C90 N87 1.332 . S
C90 N89 1.346 . S
C90 C124 1.361 . S
C91 C88 1.377 . S
C91 N89 1.337 . S
C91 H127 0.930 . S
Co92 N93 2.034 . S
Co92 O106 1.950 . S
Co92 O107 2.262 . S
Co92 O108 1.958 . S
Co92 O112 2.057 . S
N93 Co92 2.034 . S
N93 C96 1.366 . S
N93 C97 1.332 . S
N94 C95 1.337 . S
N94 C97 1.346 . S
C95 N94 1.337 . S
C95 C96 1.377 . S
C95 H128 0.930 . S
C96 N93 1.366 . S
C96 C95 1.377 . S
C96 H100 0.931 . S
C97 N93 1.332 . S
C97 N94 1.346 . S
C97 C114 1.361 . S
Co98 O101 2.097 . S
Co98 O102 2.065 . S
Co98 O103 2.065 . S
Co98 O104 2.042 . S
Co98 O107 2.097 . S
Co98 O111 2.042 . S
C99 O107 1.253 . S
C99 O112 1.263 . S
H100 C96 0.931 . S
O101 Co86 2.262 . S
O101 Co98 2.097 . S
O101 C125 1.253 . S
O102 Co98 2.065 . S
O102 C118 1.221 . S
O103 Co98 2.065 . S
O103 C113 1.221 . S
O104 Co98 2.042 . S
O104 C119 1.237 . S
O105 Co86 1.958 . S
O105 C119 1.278 . S
O106 Co92 1.950 . S
O106 C118 1.277 . S
O107 Co92 2.262 . S
O107 Co98 2.097 . S
O107 C99 1.253 . S
O108 Co92 1.958 . S
O108 C126 1.278 . S
O109 Co86 1.950 . S
O109 C113 1.277 . S
O110 Co86 2.057 . S
O110 C125 1.263 . S
O111 Co98 2.042 . S
O111 C126 1.237 . S
O112 Co92 2.057 . S
O112 C99 1.263 . S
C113 O103 1.221 . S
C113 O109 1.277 . S
C114 C97 1.361 . S
C114 H115 0.960 . S
C114 H116 0.961 . S
C114 H117 0.961 . S
H115 C114 0.960 . S
H116 C114 0.961 . S
H117 C114 0.961 . S
C118 O102 1.221 . S
C118 O106 1.277 . S
C119 O104 1.237 . S
C119 O105 1.278 . S
H120 C88 0.931 . S
H121 C124 0.961 . S
H122 C124 0.961 . S
H123 C124 0.960 . S
C124 C90 1.361 . S
C124 H121 0.961 . S
C124 H122 0.961 . S
C124 H123 0.960 . S
C125 O101 1.253 . S
C125 O110 1.263 . S
C126 O108 1.278 . S
C126 O111 1.237 . S
H127 C91 0.930 . S
H128 C95 0.930 . S
Co129 N130 2.034 . S
Co129 O144 2.262 . S
Co129 O148 1.958 . S
Co129 O152 1.950 . S
Co129 O153 2.057 . S
N130 Co129 2.034 . S
N130 C131 1.366 . S
N130 C133 1.332 . S
C131 N130 1.366 . S
C131 C134 1.377 . S
C131 H163 0.931 . S
N132 C133 1.346 . S
N132 C134 1.337 . S
C133 N130 1.332 . S
C133 N132 1.346 . S
C133 C167 1.361 . S
C134 C131 1.377 . S
C134 N132 1.337 . S
C134 H170 0.930 . S
Co135 N136 2.034 . S
Co135 O149 1.950 . S
Co135 O150 2.262 . S
Co135 O151 1.958 . S
Co135 O155 2.057 . S
N136 Co135 2.034 . S
N136 C139 1.366 . S
N136 C140 1.332 . S
N137 C138 1.337 . S
N137 C140 1.346 . S
C138 N137 1.337 . S
C138 C139 1.377 . S
C138 H171 0.930 . S
C139 N136 1.366 . S
C139 C138 1.377 . S
C139 H143 0.931 . S
C140 N136 1.332 . S
C140 N137 1.346 . S
C140 C157 1.361 . S
Co141 O144 2.097 . S
Co141 O145 2.065 . S
Co141 O146 2.065 . S
Co141 O147 2.042 . S
Co141 O150 2.097 . S
Co141 O154 2.042 . S
C142 O150 1.253 . S
C142 O155 1.263 . S
H143 C139 0.931 . S
O144 Co129 2.262 . S
O144 Co141 2.097 . S
O144 C168 1.253 . S
O145 Co141 2.065 . S
O145 C161 1.221 . S
O146 Co141 2.065 . S
O146 C156 1.221 . S
O147 Co141 2.042 . S
O147 C162 1.237 . S
O148 Co129 1.958 . S
O148 C162 1.278 . S
O149 Co135 1.950 . S
O149 C161 1.277 . S
O150 Co135 2.262 . S
O150 Co141 2.097 . S
O150 C142 1.253 . S
O151 Co135 1.958 . S
O151 C169 1.278 . S
O152 Co129 1.950 . S
O152 C156 1.277 . S
O153 Co129 2.057 . S
O153 C168 1.263 . S
O154 Co141 2.042 . S
O154 C169 1.237 . S
O155 Co135 2.057 . S
O155 C142 1.263 . S
C156 O146 1.221 . S
C156 O152 1.277 . S
C157 C140 1.361 . S
C157 H158 0.960 . S
C157 H159 0.961 . S
C157 H160 0.961 . S
H158 C157 0.960 . S
H159 C157 0.961 . S
H160 C157 0.961 . S
C161 O145 1.221 . S
C161 O149 1.277 . S
C162 O147 1.237 . S
C162 O148 1.278 . S
H163 C131 0.931 . S
H164 C167 0.961 . S
H165 C167 0.961 . S
H166 C167 0.960 . S
C167 C133 1.361 . S
C167 H164 0.961 . S
C167 H165 0.961 . S
C167 H166 0.960 . S
C168 O144 1.253 . S
C168 O153 1.263 . S
C169 O151 1.278 . S
C169 O154 1.237 . S
H170 C134 0.930 . S
H171 C138 0.930 . S
Co172 N173 2.034 . S
Co172 O187 2.262 . S
Co172 O191 1.958 . S
Co172 O195 1.950 . S
Co172 O196 2.057 . S
N173 Co172 2.034 . S
N173 C174 1.366 . S
N173 C176 1.332 . S
C174 N173 1.366 . S
C174 C177 1.377 . S
C174 H206 0.931 . S
N175 C176 1.346 . S
N175 C177 1.337 . S
C176 N173 1.332 . S
C176 N175 1.346 . S
C176 C210 1.361 . S
C177 C174 1.377 . S
C177 N175 1.337 . S
C177 H213 0.930 . S
Co178 N179 2.034 . S
Co178 O192 1.950 . S
Co178 O193 2.262 . S
Co178 O194 1.958 . S
Co178 O198 2.057 . S
N179 Co178 2.034 . S
N179 C182 1.366 . S
N179 C183 1.332 . S
N180 C181 1.337 . S
N180 C183 1.346 . S
C181 N180 1.337 . S
C181 C182 1.377 . S
C181 H214 0.930 . S
C182 N179 1.366 . S
C182 C181 1.377 . S
C182 H186 0.931 . S
C183 N179 1.332 . S
C183 N180 1.346 . S
C183 C200 1.361 . S
Co184 O187 2.098 . S
Co184 O188 2.061 1_455 S
Co184 O189 2.070 . S
Co184 O190 2.046 . S
Co184 O193 2.096 1_455 S
Co184 O197 2.037 1_455 S
C185 O193 1.251 1_455 S
C185 O198 1.254 1_455 S
H186 C182 0.931 . S
O187 Co172 2.262 . S
O187 Co184 2.098 . S
O187 C211 1.253 . S
O188 Co184 2.061 1_655 S
O188 C204 1.221 . S
O189 Co184 2.070 . S
O189 C199 1.221 . S
O190 Co184 2.046 . S
O190 C205 1.237 . S
O191 Co172 1.958 . S
O191 C205 1.278 . S
O192 Co178 1.950 . S
O192 C204 1.277 . S
O193 Co178 2.262 . S
O193 Co184 2.096 1_655 S
O193 C185 1.251 1_655 S
O194 Co178 1.958 . S
O194 C212 1.278 . S
O195 Co172 1.950 . S
O195 C199 1.277 . S
O196 Co172 2.057 . S
O196 C211 1.264 . S
O197 Co184 2.037 1_655 S
O197 C212 1.237 . S
O198 Co178 2.057 . S
O198 C185 1.254 1_655 S
C199 O189 1.221 . S
C199 O195 1.277 . S
C200 C183 1.361 . S
C200 H201 0.960 . S
C200 H202 0.961 . S
C200 H203 0.961 . S
H201 C200 0.960 . S
H202 C200 0.961 . S
H203 C200 0.961 . S
C204 O188 1.221 . S
C204 O192 1.277 . S
C205 O190 1.237 . S
C205 O191 1.278 . S
H206 C174 0.931 . S
H207 C210 0.961 . S
H208 C210 0.961 . S
H209 C210 0.960 . S
C210 C176 1.361 . S
C210 H207 0.961 . S
C210 H208 0.961 . S
C210 H209 0.960 . S
C211 O187 1.253 . S
C211 O196 1.264 . S
C212 O194 1.278 . S
C212 O197 1.237 . S
H213 C177 0.930 . S
H214 C181 0.930 . S
Co215 N216 2.034 . S
Co215 O230 2.262 . S
Co215 O234 1.958 . S
Co215 O238 1.950 . S
Co215 O239 2.057 . S
N216 Co215 2.034 . S
N216 C217 1.366 . S
N216 C219 1.332 . S
C217 N216 1.366 . S
C217 C220 1.377 . S
C217 H249 0.931 . S
N218 C219 1.346 . S
N218 C220 1.337 . S
C219 N216 1.332 . S
C219 N218 1.346 . S
C219 C253 1.361 . S
C220 C217 1.377 . S
C220 N218 1.337 . S
C220 H256 0.930 . S
Co221 N222 2.034 . S
Co221 O235 1.950 . S
Co221 O236 2.262 . S
Co221 O237 1.958 . S
Co221 O241 2.057 . S
N222 Co221 2.034 . S
N222 C225 1.366 . S
N222 C226 1.332 . S
N223 C224 1.337 . S
N223 C226 1.346 . S
C224 N223 1.337 . S
C224 C225 1.377 . S
C224 H257 0.930 . S
C225 N222 1.366 . S
C225 C224 1.377 . S
C225 H229 0.931 . S
C226 N222 1.332 . S
C226 N223 1.346 . S
C226 C243 1.361 . S
Co227 O230 2.097 . S
Co227 O231 2.065 . S
Co227 O232 2.065 . S
Co227 O233 2.042 . S
Co227 O236 2.097 . S
Co227 O240 2.042 . S
C228 O236 1.253 . S
C228 O241 1.263 . S
H229 C225 0.931 . S
O230 Co215 2.262 . S
O230 Co227 2.097 . S
O230 C254 1.253 . S
O231 Co227 2.065 . S
O231 C247 1.221 . S
O232 Co227 2.065 . S
O232 C242 1.221 . S
O233 Co227 2.042 . S
O233 C248 1.237 . S
O234 Co215 1.958 . S
O234 C248 1.278 . S
O235 Co221 1.950 . S
O235 C247 1.277 . S
O236 Co221 2.262 . S
O236 Co227 2.097 . S
O236 C228 1.253 . S
O237 Co221 1.958 . S
O237 C255 1.278 . S
O238 Co215 1.950 . S
O238 C242 1.277 . S
O239 Co215 2.057 . S
O239 C254 1.263 . S
O240 Co227 2.042 . S
O240 C255 1.237 . S
O241 Co221 2.057 . S
O241 C228 1.263 . S
C242 O232 1.221 . S
C242 O238 1.277 . S
C243 C226 1.361 . S
C243 H244 0.960 . S
C243 H245 0.961 . S
C243 H246 0.961 . S
H244 C243 0.960 . S
H245 C243 0.961 . S
H246 C243 0.961 . S
C247 O231 1.221 . S
C247 O235 1.277 . S
C248 O233 1.237 . S
C248 O234 1.278 . S
H249 C217 0.931 . S
H250 C253 0.961 . S
H251 C253 0.961 . S
H252 C253 0.960 . S
C253 C219 1.361 . S
C253 H250 0.961 . S
C253 H251 0.961 . S
C253 H252 0.960 . S
C254 O230 1.253 . S
C254 O239 1.263 . S
C255 O237 1.278 . S
C255 O240 1.237 . S
H256 C220 0.930 . S
H257 C224 0.930 . S
Co258 N259 2.034 . S
Co258 O273 2.262 . S
Co258 O277 1.958 . S
Co258 O281 1.950 . S
Co258 O282 2.057 . S
N259 Co258 2.034 . S
N259 C260 1.366 . S
N259 C262 1.332 . S
C260 N259 1.366 . S
C260 C263 1.377 . S
C260 H292 0.931 . S
N261 C262 1.346 . S
N261 C263 1.337 . S
C262 N259 1.332 . S
C262 N261 1.346 . S
C262 C296 1.361 . S
C263 C260 1.377 . S
C263 N261 1.337 . S
C263 H299 0.930 . S
Co264 N265 2.034 . S
Co264 O278 1.950 . S
Co264 O279 2.262 . S
Co264 O280 1.958 . S
Co264 O284 2.057 . S
N265 Co264 2.034 . S
N265 C268 1.366 . S
N265 C269 1.332 . S
N266 C267 1.337 . S
N266 C269 1.346 . S
C267 N266 1.337 . S
C267 C268 1.377 . S
C267 H300 0.930 . S
C268 N265 1.366 . S
C268 C267 1.377 . S
C268 H272 0.931 . S
C269 N265 1.332 . S
C269 N266 1.346 . S
C269 C286 1.361 . S
Co270 O273 2.097 . S
Co270 O274 2.065 . S
Co270 O275 2.065 . S
Co270 O276 2.042 . S
Co270 O279 2.097 . S
Co270 O283 2.042 . S
C271 O279 1.253 . S
C271 O284 1.263 . S
H272 C268 0.931 . S
O273 Co258 2.262 . S
O273 Co270 2.097 . S
O273 C297 1.253 . S
O274 Co270 2.065 . S
O274 C290 1.221 . S
O275 Co270 2.065 . S
O275 C285 1.221 . S
O276 Co270 2.042 . S
O276 C291 1.237 . S
O277 Co258 1.958 . S
O277 C291 1.278 . S
O278 Co264 1.950 . S
O278 C290 1.277 . S
O279 Co264 2.262 . S
O279 Co270 2.097 . S
O279 C271 1.253 . S
O280 Co264 1.958 . S
O280 C298 1.278 . S
O281 Co258 1.950 . S
O281 C285 1.277 . S
O282 Co258 2.057 . S
O282 C297 1.263 . S
O283 Co270 2.042 . S
O283 C298 1.237 . S
O284 Co264 2.057 . S
O284 C271 1.263 . S
C285 O275 1.221 . S
C285 O281 1.277 . S
C286 C269 1.361 . S
C286 H287 0.960 . S
C286 H288 0.961 . S
C286 H289 0.961 . S
H287 C286 0.960 . S
H288 C286 0.961 . S
H289 C286 0.961 . S
C290 O274 1.221 . S
C290 O278 1.277 . S
C291 O276 1.237 . S
C291 O277 1.278 . S
H292 C260 0.931 . S
H293 C296 0.961 . S
H294 C296 0.961 . S
H295 C296 0.960 . S
C296 C262 1.361 . S
C296 H293 0.961 . S
C296 H294 0.961 . S
C296 H295 0.960 . S
C297 O273 1.253 . S
C297 O282 1.263 . S
C298 O280 1.278 . S
C298 O283 1.237 . S
H299 C263 0.930 . S
H300 C267 0.930 . S
Co301 N302 2.034 . S
Co301 O316 2.262 . S
Co301 O320 1.958 . S
Co301 O324 1.950 . S
Co301 O325 2.057 . S
N302 Co301 2.034 . S
N302 C303 1.366 . S
N302 C305 1.332 . S
C303 N302 1.366 . S
C303 C306 1.377 . S
C303 H335 0.931 . S
N304 C305 1.346 . S
N304 C306 1.337 . S
C305 N302 1.332 . S
C305 N304 1.346 . S
C305 C339 1.361 . S
C306 C303 1.377 . S
C306 N304 1.337 . S
C306 H342 0.930 . S
Co307 N308 2.034 . S
Co307 O321 1.950 . S
Co307 O322 2.262 . S
Co307 O323 1.958 . S
Co307 O327 2.057 . S
N308 Co307 2.034 . S
N308 C311 1.366 . S
N308 C312 1.332 . S
N309 C310 1.337 . S
N309 C312 1.346 . S
C310 N309 1.337 . S
C310 C311 1.377 . S
C310 H343 0.930 . S
C311 N308 1.366 . S
C311 C310 1.377 . S
C311 H315 0.931 . S
C312 N308 1.332 . S
C312 N309 1.346 . S
C312 C329 1.361 . S
Co313 O316 2.091 1_455 S
Co313 O317 2.065 1_455 S
Co313 O318 2.066 . S
Co313 O319 2.042 . S
Co313 O322 2.103 . S
Co313 O326 2.041 1_455 S
C314 O322 1.253 . S
C314 O327 1.263 . S
H315 C311 0.931 . S
O316 Co301 2.262 . S
O316 Co313 2.091 1_655 S
O316 C340 1.253 . S
O317 Co313 2.065 1_655 S
O317 C333 1.221 1_655 S
O318 Co313 2.066 . S
O318 C328 1.221 1_455 S
O319 Co313 2.042 . S
O319 C334 1.237 1_455 S
O320 Co301 1.958 . S
O320 C334 1.278 . S
O321 Co307 1.950 . S
O321 C333 1.277 . S
O322 Co307 2.262 . S
O322 Co313 2.103 . S
O322 C314 1.253 . S
O323 Co307 1.958 . S
O323 C341 1.278 . S
O324 Co301 1.950 . S
O324 C328 1.277 . S
O325 Co301 2.057 . S
O325 C340 1.263 . S
O326 Co313 2.041 1_655 S
O326 C341 1.237 1_655 S
O327 Co307 2.057 . S
O327 C314 1.263 . S
C328 O318 1.221 1_655 S
C328 O324 1.277 . S
C329 C312 1.361 . S
C329 H330 0.960 . S
C329 H331 0.961 . S
C329 H332 0.961 . S
H330 C329 0.960 . S
H331 C329 0.961 . S
H332 C329 0.961 . S
C333 O317 1.221 1_455 S
C333 O321 1.277 . S
C334 O319 1.237 1_655 S
C334 O320 1.278 . S
H335 C303 0.931 . S
H336 C339 0.961 . S
H337 C339 0.961 . S
H338 C339 0.960 . S
C339 C305 1.361 . S
C339 H336 0.961 . S
C339 H337 0.961 . S
C339 H338 0.960 . S
C340 O316 1.253 . S
C340 O325 1.263 . S
C341 O323 1.278 . S
C341 O326 1.237 1_455 S
H342 C306 0.930 . S
H343 C310 0.930 . S
Co344 N345 2.034 . S
Co344 O359 2.262 . S
Co344 O363 1.958 . S
Co344 O367 1.950 . S
Co344 O368 2.057 . S
N345 Co344 2.034 . S
N345 C346 1.366 . S
N345 C348 1.332 . S
C346 N345 1.366 . S
C346 C349 1.377 . S
C346 H378 0.931 . S
N347 C348 1.346 . S
N347 C349 1.337 . S
C348 N345 1.332 . S
C348 N347 1.346 . S
C348 C382 1.361 . S
C349 C346 1.377 . S
C349 N347 1.337 . S
C349 H385 0.930 . S
Co350 N351 2.034 . S
Co350 O364 1.950 . S
Co350 O365 2.262 . S
Co350 O366 1.958 . S
Co350 O370 2.057 . S
N351 Co350 2.034 . S
N351 C354 1.366 . S
N351 C355 1.332 . S
N352 C353 1.337 . S
N352 C355 1.346 . S
C353 N352 1.337 . S
C353 C354 1.377 . S
C353 H386 0.930 . S
C354 N351 1.366 . S
C354 C353 1.377 . S
C354 H358 0.931 . S
C355 N351 1.332 . S
C355 N352 1.346 . S
C355 C372 1.361 . S
Co356 O359 2.096 1_545 S
Co356 O360 2.070 . S
Co356 O361 2.061 1_545 S
Co356 O362 2.037 1_545 S
Co356 O365 2.098 . S
Co356 O369 2.046 . S
C357 O365 1.253 . S
C357 O370 1.264 . S
H358 C354 0.931 . S
O359 Co344 2.262 . S
O359 Co356 2.096 1_565 S
O359 C383 1.251 1_565 S
O360 Co356 2.070 . S
O360 C376 1.221 . S
O361 Co356 2.061 1_565 S
O361 C371 1.221 . S
O362 Co356 2.037 1_565 S
O362 C377 1.237 . S
O363 Co344 1.958 . S
O363 C377 1.278 . S
O364 Co350 1.950 . S
O364 C376 1.277 . S
O365 Co350 2.262 . S
O365 Co356 2.098 . S
O365 C357 1.253 . S
O366 Co350 1.958 . S
O366 C384 1.278 . S
O367 Co344 1.950 . S
O367 C371 1.277 . S
O368 Co344 2.057 . S
O368 C383 1.254 1_565 S
O369 Co356 2.046 . S
O369 C384 1.237 . S
O370 Co350 2.057 . S
O370 C357 1.264 . S
C371 O361 1.221 . S
C371 O367 1.277 . S
C372 C355 1.361 . S
C372 H373 0.960 . S
C372 H374 0.961 . S
C372 H375 0.961 . S
H373 C372 0.960 . S
H374 C372 0.961 . S
H375 C372 0.961 . S
C376 O360 1.221 . S
C376 O364 1.277 . S
C377 O362 1.237 . S
C377 O363 1.278 . S
H378 C346 0.931 . S
H379 C382 0.961 . S
H380 C382 0.961 . S
H381 C382 0.960 . S
C382 C348 1.361 . S
C382 H379 0.961 . S
C382 H380 0.961 . S
C382 H381 0.960 . S
C383 O359 1.251 1_545 S
C383 O368 1.254 1_545 S
C384 O366 1.278 . S
C384 O369 1.237 . S
H385 C349 0.930 . S
H386 C353 0.930 . S
Co387 N388 2.034 . S
Co387 O402 2.262 . S
Co387 O406 1.958 . S
Co387 O410 1.950 . S
Co387 O411 2.057 . S
N388 Co387 2.034 . S
N388 C389 1.366 . S
N388 C391 1.332 . S
C389 N388 1.366 . S
C389 C392 1.377 . S
C389 H421 0.931 . S
N390 C391 1.346 . S
N390 C392 1.337 . S
C391 N388 1.332 . S
C391 N390 1.346 . S
C391 C425 1.361 . S
C392 C389 1.377 . S
C392 N390 1.337 . S
C392 H428 0.930 . S
Co393 N394 2.034 . S
Co393 O407 1.950 . S
Co393 O408 2.262 . S
Co393 O409 1.958 . S
Co393 O413 2.057 . S
N394 Co393 2.034 . S
N394 C397 1.366 . S
N394 C398 1.332 . S
N395 C396 1.337 . S
N395 C398 1.346 . S
C396 N395 1.337 . S
C396 C397 1.377 . S
C396 H429 0.930 . S
C397 N394 1.366 . S
C397 C396 1.377 . S
C397 H401 0.931 . S
C398 N394 1.332 . S
C398 N395 1.346 . S
C398 C415 1.361 . S
Co399 O402 2.097 . S
Co399 O403 2.065 . S
Co399 O404 2.065 . S
Co399 O405 2.042 . S
Co399 O408 2.097 . S
Co399 O412 2.042 . S
C400 O408 1.253 . S
C400 O413 1.263 . S
H401 C397 0.931 . S
O402 Co387 2.262 . S
O402 Co399 2.097 . S
O402 C426 1.253 . S
O403 Co399 2.065 . S
O403 C419 1.221 . S
O404 Co399 2.065 . S
O404 C414 1.221 . S
O405 Co399 2.042 . S
O405 C420 1.237 . S
O406 Co387 1.958 . S
O406 C420 1.278 . S
O407 Co393 1.950 . S
O407 C419 1.277 . S
O408 Co393 2.262 . S
O408 Co399 2.097 . S
O408 C400 1.253 . S
O409 Co393 1.958 . S
O409 C427 1.278 . S
O410 Co387 1.950 . S
O410 C414 1.277 . S
O411 Co387 2.057 . S
O411 C426 1.263 . S
O412 Co399 2.042 . S
O412 C427 1.237 . S
O413 Co393 2.057 . S
O413 C400 1.263 . S
C414 O404 1.221 . S
C414 O410 1.277 . S
C415 C398 1.361 . S
C415 H416 0.960 . S
C415 H417 0.961 . S
C415 H418 0.961 . S
H416 C415 0.960 . S
H417 C415 0.961 . S
H418 C415 0.961 . S
C419 O403 1.221 . S
C419 O407 1.277 . S
C420 O405 1.237 . S
C420 O406 1.278 . S
H421 C389 0.931 . S
H422 C425 0.961 . S
H423 C425 0.961 . S
H424 C425 0.960 . S
C425 C391 1.361 . S
C425 H422 0.961 . S
C425 H423 0.961 . S
C425 H424 0.960 . S
C426 O402 1.253 . S
C426 O411 1.263 . S
C427 O409 1.278 . S
C427 O412 1.237 . S
H428 C392 0.930 . S
H429 C396 0.930 . S
Co430 N431 2.034 . S
Co430 O445 2.262 . S
Co430 O449 1.958 . S
Co430 O453 1.950 . S
Co430 O454 2.057 . S
N431 Co430 2.034 . S
N431 C432 1.366 . S
N431 C434 1.332 . S
C432 N431 1.366 . S
C432 C435 1.377 . S
C432 H464 0.931 . S
N433 C434 1.346 . S
N433 C435 1.337 . S
C434 N431 1.332 . S
C434 N433 1.346 . S
C434 C468 1.361 . S
C435 C432 1.377 . S
C435 N433 1.337 . S
C435 H471 0.930 . S
Co436 N437 2.034 . S
Co436 O450 1.950 . S
Co436 O451 2.262 . S
Co436 O452 1.958 . S
Co436 O456 2.057 . S
N437 Co436 2.034 . S
N437 C440 1.366 . S
N437 C441 1.332 . S
N438 C439 1.337 . S
N438 C441 1.346 . S
C439 N438 1.337 . S
C439 C440 1.377 . S
C439 H472 0.930 . S
C440 N437 1.366 . S
C440 C439 1.377 . S
C440 H444 0.931 . S
C441 N437 1.332 . S
C441 N438 1.346 . S
C441 C458 1.361 . S
Co442 O445 2.096 1_545 S
Co442 O446 2.070 . S
Co442 O447 2.061 1_545 S
Co442 O448 2.037 1_545 S
Co442 O451 2.098 . S
Co442 O455 2.046 . S
C443 O451 1.253 . S
C443 O456 1.264 . S
H444 C440 0.931 . S
O445 Co430 2.262 . S
O445 Co442 2.096 1_565 S
O445 C469 1.251 1_565 S
O446 Co442 2.070 . S
O446 C462 1.221 . S
O447 Co442 2.061 1_565 S
O447 C457 1.221 . S
O448 Co442 2.037 1_565 S
O448 C463 1.237 . S
O449 Co430 1.958 . S
O449 C463 1.278 . S
O450 Co436 1.950 . S
O450 C462 1.277 . S
O451 Co436 2.262 . S
O451 Co442 2.098 . S
O451 C443 1.253 . S
O452 Co436 1.958 . S
O452 C470 1.278 . S
O453 Co430 1.950 . S
O453 C457 1.277 . S
O454 Co430 2.057 . S
O454 C469 1.254 1_565 S
O455 Co442 2.046 . S
O455 C470 1.237 . S
O456 Co436 2.057 . S
O456 C443 1.264 . S
C457 O447 1.221 . S
C457 O453 1.277 . S
C458 C441 1.361 . S
C458 H459 0.960 . S
C458 H460 0.961 . S
C458 H461 0.961 . S
H459 C458 0.960 . S
H460 C458 0.961 . S
H461 C458 0.961 . S
C462 O446 1.221 . S
C462 O450 1.277 . S
C463 O448 1.237 . S
C463 O449 1.278 . S
H464 C432 0.931 . S
H465 C468 0.961 . S
H466 C468 0.961 . S
H467 C468 0.960 . S
C468 C434 1.361 . S
C468 H465 0.961 . S
C468 H466 0.961 . S
C468 H467 0.960 . S
C469 O445 1.251 1_545 S
C469 O454 1.254 1_545 S
C470 O452 1.278 . S
C470 O455 1.237 . S
H471 C435 0.930 . S
H472 C439 0.930 . S
Co473 N474 2.034 . S
Co473 O488 2.262 . S
Co473 O492 1.958 . S
Co473 O496 1.950 . S
Co473 O497 2.057 . S
N474 Co473 2.034 . S
N474 C475 1.366 . S
N474 C477 1.332 . S
C475 N474 1.366 . S
C475 C478 1.377 . S
C475 H507 0.931 . S
N476 C477 1.346 . S
N476 C478 1.337 . S
C477 N474 1.332 . S
C477 N476 1.346 . S
C477 C511 1.361 . S
C478 C475 1.377 . S
C478 N476 1.337 . S
C478 H514 0.930 . S
Co479 N480 2.034 . S
Co479 O493 1.950 . S
Co479 O494 2.262 . S
Co479 O495 1.958 . S
Co479 O499 2.057 . S
N480 Co479 2.034 . S
N480 C483 1.366 . S
N480 C484 1.332 . S
N481 C482 1.337 . S
N481 C484 1.346 . S
C482 N481 1.337 . S
C482 C483 1.377 . S
C482 H515 0.930 . S
C483 N480 1.366 . S
C483 C482 1.377 . S
C483 H487 0.931 . S
C484 N480 1.332 . S
C484 N481 1.346 . S
C484 C501 1.361 . S
Co485 O488 2.091 1_554 S
Co485 O489 2.065 1_554 S
Co485 O490 2.066 . S
Co485 O491 2.042 . S
Co485 O494 2.103 . S
Co485 O498 2.041 1_554 S
C486 O494 1.253 . S
C486 O499 1.263 . S
H487 C483 0.931 . S
O488 Co473 2.262 . S
O488 Co485 2.091 1_556 S
O488 C512 1.253 . S
O489 Co485 2.065 1_556 S
O489 C505 1.221 1_556 S
O490 Co485 2.066 . S
O490 C500 1.221 1_554 S
O491 Co485 2.042 . S
O491 C506 1.237 1_554 S
O492 Co473 1.958 . S
O492 C506 1.278 . S
O493 Co479 1.950 . S
O493 C505 1.277 . S
O494 Co479 2.262 . S
O494 Co485 2.103 . S
O494 C486 1.253 . S
O495 Co479 1.958 . S
O495 C513 1.278 . S
O496 Co473 1.950 . S
O496 C500 1.277 . S
O497 Co473 2.057 . S
O497 C512 1.263 . S
O498 Co485 2.041 1_556 S
O498 C513 1.237 1_556 S
O499 Co479 2.057 . S
O499 C486 1.263 . S
C500 O490 1.221 1_556 S
C500 O496 1.277 . S
C501 C484 1.361 . S
C501 H502 0.960 . S
C501 H503 0.961 . S
C501 H504 0.961 . S
H502 C501 0.960 . S
H503 C501 0.961 . S
H504 C501 0.961 . S
C505 O489 1.221 1_554 S
C505 O493 1.277 . S
C506 O491 1.237 1_556 S
C506 O492 1.278 . S
H507 C475 0.931 . S
H508 C511 0.961 . S
H509 C511 0.961 . S
H510 C511 0.960 . S
C511 C477 1.361 . S
C511 H508 0.961 . S
C511 H509 0.961 . S
C511 H510 0.960 . S
C512 O488 1.253 . S
C512 O497 1.263 . S
C513 O495 1.278 . S
C513 O498 1.237 1_554 S
H514 C478 0.930 . S
H515 C482 0.930 . S
Co516 N517 2.034 . S
Co516 O531 2.262 . S
Co516 O535 1.958 . S
Co516 O539 1.950 . S
Co516 O540 2.057 . S
N517 Co516 2.034 . S
N517 C518 1.366 . S
N517 C520 1.332 . S
C518 N517 1.366 . S
C518 C521 1.377 . S
C518 H550 0.931 . S
N519 C520 1.346 . S
N519 C521 1.337 . S
C520 N517 1.332 . S
C520 N519 1.346 . S
C520 C554 1.361 . S
C521 C518 1.377 . S
C521 N519 1.337 . S
C521 H557 0.930 . S
Co522 N523 2.034 . S
Co522 O536 1.950 . S
Co522 O537 2.262 . S
Co522 O538 1.958 . S
Co522 O542 2.057 . S
N523 Co522 2.034 . S
N523 C526 1.366 . S
N523 C527 1.332 . S
N524 C525 1.337 . S
N524 C527 1.346 . S
C525 N524 1.337 . S
C525 C526 1.377 . S
C525 H558 0.930 . S
C526 N523 1.366 . S
C526 C525 1.377 . S
C526 H530 0.931 . S
C527 N523 1.332 . S
C527 N524 1.346 . S
C527 C544 1.361 . S
Co528 O531 2.098 . S
Co528 O532 2.061 1_554 S
Co528 O533 2.070 . S
Co528 O534 2.046 . S
Co528 O537 2.096 1_554 S
Co528 O541 2.037 1_554 S
C529 O537 1.251 1_554 S
C529 O542 1.254 1_554 S
H530 C526 0.931 . S
O531 Co516 2.262 . S
O531 Co528 2.098 . S
O531 C555 1.253 . S
O532 Co528 2.061 1_556 S
O532 C548 1.221 . S
O533 Co528 2.070 . S
O533 C543 1.221 . S
O534 Co528 2.046 . S
O534 C549 1.237 . S
O535 Co516 1.958 . S
O535 C549 1.278 . S
O536 Co522 1.950 . S
O536 C548 1.277 . S
O537 Co522 2.262 . S
O537 Co528 2.096 1_556 S
O537 C529 1.251 1_556 S
O538 Co522 1.958 . S
O538 C556 1.278 . S
O539 Co516 1.950 . S
O539 C543 1.277 . S
O540 Co516 2.057 . S
O540 C555 1.264 . S
O541 Co528 2.037 1_556 S
O541 C556 1.237 . S
O542 Co522 2.057 . S
O542 C529 1.254 1_556 S
C543 O533 1.221 . S
C543 O539 1.277 . S
C544 C527 1.361 . S
C544 H545 0.960 . S
C544 H546 0.961 . S
C544 H547 0.961 . S
H545 C544 0.960 . S
H546 C544 0.961 . S
H547 C544 0.961 . S
C548 O532 1.221 . S
C548 O536 1.277 . S
C549 O534 1.237 . S
C549 O535 1.278 . S
H550 C518 0.931 . S
H551 C554 0.961 . S
H552 C554 0.961 . S
H553 C554 0.960 . S
C554 C520 1.361 . S
C554 H551 0.961 . S
C554 H552 0.961 . S
C554 H553 0.960 . S
C555 O531 1.253 . S
C555 O540 1.264 . S
C556 O538 1.278 . S
C556 O541 1.237 . S
H557 C521 0.930 . S
H558 C525 0.930 . S
Co559 N560 2.034 . S
Co559 O574 2.262 . S
Co559 O578 1.958 . S
Co559 O582 1.950 . S
Co559 O583 2.057 . S
N560 Co559 2.034 . S
N560 C561 1.366 . S
N560 C563 1.332 . S
C561 N560 1.366 . S
C561 C564 1.377 . S
C561 H593 0.931 . S
N562 C563 1.346 . S
N562 C564 1.337 . S
C563 N560 1.332 . S
C563 N562 1.346 . S
C563 C597 1.361 . S
C564 C561 1.377 . S
C564 N562 1.337 . S
C564 H600 0.930 . S
Co565 N566 2.034 . S
Co565 O579 1.950 . S
Co565 O580 2.262 . S
Co565 O581 1.958 . S
Co565 O585 2.057 . S
N566 Co565 2.034 . S
N566 C569 1.366 . S
N566 C570 1.332 . S
N567 C568 1.337 . S
N567 C570 1.346 . S
C568 N567 1.337 . S
C568 C569 1.377 . S
C568 H601 0.930 . S
C569 N566 1.366 . S
C569 C568 1.377 . S
C569 H573 0.931 . S
C570 N566 1.332 . S
C570 N567 1.346 . S
C570 C587 1.361 . S
Co571 O574 2.096 1_554 S
Co571 O575 2.070 . S
Co571 O576 2.061 1_554 S
Co571 O577 2.037 1_554 S
Co571 O580 2.098 . S
Co571 O584 2.046 . S
C572 O580 1.253 . S
C572 O585 1.264 . S
H573 C569 0.931 . S
O574 Co559 2.262 . S
O574 Co571 2.096 1_556 S
O574 C598 1.251 1_556 S
O575 Co571 2.070 . S
O575 C591 1.221 . S
O576 Co571 2.061 1_556 S
O576 C586 1.221 . S
O577 Co571 2.037 1_556 S
O577 C592 1.237 . S
O578 Co559 1.958 . S
O578 C592 1.278 . S
O579 Co565 1.950 . S
O579 C591 1.277 . S
O580 Co565 2.262 . S
O580 Co571 2.098 . S
O580 C572 1.253 . S
O581 Co565 1.958 . S
O581 C599 1.278 . S
O582 Co559 1.950 . S
O582 C586 1.277 . S
O583 Co559 2.057 . S
O583 C598 1.254 1_556 S
O584 Co571 2.046 . S
O584 C599 1.237 . S
O585 Co565 2.057 . S
O585 C572 1.264 . S
C586 O576 1.221 . S
C586 O582 1.277 . S
C587 C570 1.361 . S
C587 H588 0.960 . S
C587 H589 0.961 . S
C587 H590 0.961 . S
H588 C587 0.960 . S
H589 C587 0.961 . S
H590 C587 0.961 . S
C591 O575 1.221 . S
C591 O579 1.277 . S
C592 O577 1.237 . S
C592 O578 1.278 . S
H593 C561 0.931 . S
H594 C597 0.961 . S
H595 C597 0.961 . S
H596 C597 0.960 . S
C597 C563 1.361 . S
C597 H594 0.961 . S
C597 H595 0.961 . S
C597 H596 0.960 . S
C598 O574 1.251 1_554 S
C598 O583 1.254 1_554 S
C599 O581 1.278 . S
C599 O584 1.237 . S
H600 C564 0.930 . S
H601 C568 0.930 . S
Co602 N603 2.034 . S
Co602 O617 2.262 . S
Co602 O621 1.958 . S
Co602 O625 1.950 . S
Co602 O626 2.057 . S
N603 Co602 2.034 . S
N603 C604 1.366 . S
N603 C606 1.332 . S
C604 N603 1.366 . S
C604 C607 1.377 . S
C604 H636 0.931 . S
N605 C606 1.346 . S
N605 C607 1.337 . S
C606 N603 1.332 . S
C606 N605 1.346 . S
C606 C640 1.361 . S
C607 C604 1.377 . S
C607 N605 1.337 . S
C607 H643 0.930 . S
Co608 N609 2.034 . S
Co608 O622 1.950 . S
Co608 O623 2.262 . S
Co608 O624 1.958 . S
Co608 O628 2.057 . S
N609 Co608 2.034 . S
N609 C612 1.366 . S
N609 C613 1.332 . S
N610 C611 1.337 . S
N610 C613 1.346 . S
C611 N610 1.337 . S
C611 C612 1.377 . S
C611 H644 0.930 . S
C612 N609 1.366 . S
C612 C611 1.377 . S
C612 H616 0.931 . S
C613 N609 1.332 . S
C613 N610 1.346 . S
C613 C630 1.361 . S
Co614 O617 2.097 . S
Co614 O618 2.065 . S
Co614 O619 2.065 . S
Co614 O620 2.042 . S
Co614 O623 2.097 . S
Co614 O627 2.042 . S
C615 O623 1.253 . S
C615 O628 1.263 . S
H616 C612 0.931 . S
O617 Co602 2.262 . S
O617 Co614 2.097 . S
O617 C641 1.253 . S
O618 Co614 2.065 . S
O618 C634 1.221 . S
O619 Co614 2.065 . S
O619 C629 1.221 . S
O620 Co614 2.042 . S
O620 C635 1.237 . S
O621 Co602 1.958 . S
O621 C635 1.278 . S
O622 Co608 1.950 . S
O622 C634 1.277 . S
O623 Co608 2.262 . S
O623 Co614 2.097 . S
O623 C615 1.253 . S
O624 Co608 1.958 . S
O624 C642 1.278 . S
O625 Co602 1.950 . S
O625 C629 1.277 . S
O626 Co602 2.057 . S
O626 C641 1.263 . S
O627 Co614 2.042 . S
O627 C642 1.237 . S
O628 Co608 2.057 . S
O628 C615 1.263 . S
C629 O619 1.221 . S
C629 O625 1.277 . S
C630 C613 1.361 . S
C630 H631 0.960 . S
C630 H632 0.961 . S
C630 H633 0.961 . S
H631 C630 0.960 . S
H632 C630 0.961 . S
H633 C630 0.961 . S
C634 O618 1.221 . S
C634 O622 1.277 . S
C635 O620 1.237 . S
C635 O621 1.278 . S
H636 C604 0.931 . S
H637 C640 0.961 . S
H638 C640 0.961 . S
H639 C640 0.960 . S
C640 C606 1.361 . S
C640 H637 0.961 . S
C640 H638 0.961 . S
C640 H639 0.960 . S
C641 O617 1.253 . S
C641 O626 1.263 . S
C642 O624 1.278 . S
C642 O627 1.237 . S
H643 C607 0.930 . S
H644 C611 0.930 . S
Co645 N646 2.034 . S
Co645 O660 2.262 . S
Co645 O664 1.958 . S
Co645 O668 1.950 . S
Co645 O669 2.057 . S
N646 Co645 2.034 . S
N646 C647 1.366 . S
N646 C649 1.332 . S
C647 N646 1.366 . S
C647 C650 1.377 . S
C647 H679 0.931 . S
N648 C649 1.346 . S
N648 C650 1.337 . S
C649 N646 1.332 . S
C649 N648 1.346 . S
C649 C683 1.361 . S
C650 C647 1.377 . S
C650 N648 1.337 . S
C650 H686 0.930 . S
Co651 N652 2.034 . S
Co651 O665 1.950 . S
Co651 O666 2.262 . S
Co651 O667 1.958 . S
Co651 O671 2.057 . S
N652 Co651 2.034 . S
N652 C655 1.366 . S
N652 C656 1.332 . S
N653 C654 1.337 . S
N653 C656 1.346 . S
C654 N653 1.337 . S
C654 C655 1.377 . S
C654 H687 0.930 . S
C655 N652 1.366 . S
C655 C654 1.377 . S
C655 H659 0.931 . S
C656 N652 1.332 . S
C656 N653 1.346 . S
C656 C673 1.361 . S
Co657 O660 2.097 . S
Co657 O661 2.065 . S
Co657 O662 2.065 . S
Co657 O663 2.042 . S
Co657 O666 2.097 . S
Co657 O670 2.042 . S
C658 O666 1.253 . S
C658 O671 1.263 . S
H659 C655 0.931 . S
O660 Co645 2.262 . S
O660 Co657 2.097 . S
O660 C684 1.253 . S
O661 Co657 2.065 . S
O661 C677 1.221 . S
O662 Co657 2.065 . S
O662 C672 1.221 . S
O663 Co657 2.042 . S
O663 C678 1.237 . S
O664 Co645 1.958 . S
O664 C678 1.278 . S
O665 Co651 1.950 . S
O665 C677 1.277 . S
O666 Co651 2.262 . S
O666 Co657 2.097 . S
O666 C658 1.253 . S
O667 Co651 1.958 . S
O667 C685 1.278 . S
O668 Co645 1.950 . S
O668 C672 1.277 . S
O669 Co645 2.057 . S
O669 C684 1.263 . S
O670 Co657 2.042 . S
O670 C685 1.237 . S
O671 Co651 2.057 . S
O671 C658 1.263 . S
C672 O662 1.221 . S
C672 O668 1.277 . S
C673 C656 1.361 . S
C673 H674 0.960 . S
C673 H675 0.961 . S
C673 H676 0.961 . S
H674 C673 0.960 . S
H675 C673 0.961 . S
H676 C673 0.961 . S
C677 O661 1.221 . S
C677 O665 1.277 . S
C678 O663 1.237 . S
C678 O664 1.278 . S
H679 C647 0.931 . S
H680 C683 0.961 . S
H681 C683 0.961 . S
H682 C683 0.960 . S
C683 C649 1.361 . S
C683 H680 0.961 . S
C683 H681 0.961 . S
C683 H682 0.960 . S
C684 O660 1.253 . S
C684 O669 1.263 . S
C685 O667 1.278 . S
C685 O670 1.237 . S
H686 C650 0.930 . S
H687 C654 0.930 . S
Co688 N689 2.034 . S
Co688 O703 2.262 . S
Co688 O707 1.958 . S
Co688 O711 1.950 . S
Co688 O712 2.057 . S
N689 Co688 2.034 . S
N689 C690 1.366 . S
N689 C692 1.332 . S
C690 N689 1.366 . S
C690 C693 1.377 . S
C690 H722 0.931 . S
N691 C692 1.346 . S
N691 C693 1.337 . S
C692 N689 1.332 . S
C692 N691 1.346 . S
C692 C726 1.361 . S
C693 C690 1.377 . S
C693 N691 1.337 . S
C693 H729 0.930 . S
Co694 N695 2.034 . S
Co694 O708 1.950 . S
Co694 O709 2.262 . S
Co694 O710 1.958 . S
Co694 O714 2.057 . S
N695 Co694 2.034 . S
N695 C698 1.366 . S
N695 C699 1.332 . S
N696 C697 1.337 . S
N696 C699 1.346 . S
C697 N696 1.337 . S
C697 C698 1.377 . S
C697 H730 0.930 . S
C698 N695 1.366 . S
C698 C697 1.377 . S
C698 H702 0.931 . S
C699 N695 1.332 . S
C699 N696 1.346 . S
C699 C716 1.361 . S
Co700 O703 2.091 1_545 S
Co700 O704 2.065 1_545 S
Co700 O705 2.066 . S
Co700 O706 2.042 . S
Co700 O709 2.103 . S
Co700 O713 2.041 1_545 S
C701 O709 1.253 . S
C701 O714 1.263 . S
H702 C698 0.931 . S
O703 Co688 2.262 . S
O703 Co700 2.091 1_565 S
O703 C727 1.253 . S
O704 Co700 2.065 1_565 S
O704 C720 1.221 1_565 S
O705 Co700 2.066 . S
O705 C715 1.221 1_545 S
O706 Co700 2.042 . S
O706 C721 1.237 1_545 S
O707 Co688 1.958 . S
O707 C721 1.278 . S
O708 Co694 1.950 . S
O708 C720 1.277 . S
O709 Co694 2.262 . S
O709 Co700 2.103 . S
O709 C701 1.253 . S
O710 Co694 1.958 . S
O710 C728 1.278 . S
O711 Co688 1.950 . S
O711 C715 1.277 . S
O712 Co688 2.057 . S
O712 C727 1.263 . S
O713 Co700 2.041 1_565 S
O713 C728 1.237 1_565 S
O714 Co694 2.057 . S
O714 C701 1.263 . S
C715 O705 1.221 1_565 S
C715 O711 1.277 . S
C716 C699 1.361 . S
C716 H717 0.960 . S
C716 H718 0.961 . S
C716 H719 0.961 . S
H717 C716 0.960 . S
H718 C716 0.961 . S
H719 C716 0.961 . S
C720 O704 1.221 1_545 S
C720 O708 1.277 . S
C721 O706 1.237 1_565 S
C721 O707 1.278 . S
H722 C690 0.931 . S
H723 C726 0.961 . S
H724 C726 0.961 . S
H725 C726 0.960 . S
C726 C692 1.361 . S
C726 H723 0.961 . S
C726 H724 0.961 . S
C726 H725 0.960 . S
C727 O703 1.253 . S
C727 O712 1.263 . S
C728 O710 1.278 . S
C728 O713 1.237 1_545 S
H729 C693 0.930 . S
H730 C697 0.930 . S
Co731 N732 2.034 . S
Co731 O746 2.262 . S
Co731 O750 1.958 . S
Co731 O754 1.950 . S
Co731 O755 2.057 . S
N732 Co731 2.034 . S
N732 C733 1.366 . S
N732 C735 1.332 . S
C733 N732 1.366 . S
C733 C736 1.377 . S
C733 H765 0.931 . S
N734 C735 1.346 . S
N734 C736 1.337 . S
C735 N732 1.332 . S
C735 N734 1.346 . S
C735 C769 1.361 . S
C736 C733 1.377 . S
C736 N734 1.337 . S
C736 H772 0.930 . S
Co737 N738 2.034 . S
Co737 O751 1.950 . S
Co737 O752 2.262 . S
Co737 O753 1.958 . S
Co737 O757 2.057 . S
N738 Co737 2.034 . S
N738 C741 1.366 . S
N738 C742 1.332 . S
N739 C740 1.337 . S
N739 C742 1.346 . S
C740 N739 1.337 . S
C740 C741 1.377 . S
C740 H773 0.930 . S
C741 N738 1.366 . S
C741 C740 1.377 . S
C741 H745 0.931 . S
C742 N738 1.332 . S
C742 N739 1.346 . S
C742 C759 1.361 . S
Co743 O746 2.097 . S
Co743 O747 2.065 . S
Co743 O748 2.065 . S
Co743 O749 2.042 . S
Co743 O752 2.097 . S
Co743 O756 2.042 . S
C744 O752 1.253 . S
C744 O757 1.263 . S
H745 C741 0.931 . S
O746 Co731 2.262 . S
O746 Co743 2.097 . S
O746 C770 1.253 . S
O747 Co743 2.065 . S
O747 C763 1.221 . S
O748 Co743 2.065 . S
O748 C758 1.221 . S
O749 Co743 2.042 . S
O749 C764 1.237 . S
O750 Co731 1.958 . S
O750 C764 1.278 . S
O751 Co737 1.950 . S
O751 C763 1.277 . S
O752 Co737 2.262 . S
O752 Co743 2.097 . S
O752 C744 1.253 . S
O753 Co737 1.958 . S
O753 C771 1.278 . S
O754 Co731 1.950 . S
O754 C758 1.277 . S
O755 Co731 2.057 . S
O755 C770 1.263 . S
O756 Co743 2.042 . S
O756 C771 1.237 . S
O757 Co737 2.057 . S
O757 C744 1.263 . S
C758 O748 1.221 . S
C758 O754 1.277 . S
C759 C742 1.361 . S
C759 H760 0.960 . S
C759 H761 0.961 . S
C759 H762 0.961 . S
H760 C759 0.960 . S
H761 C759 0.961 . S
H762 C759 0.961 . S
C763 O747 1.221 . S
C763 O751 1.277 . S
C764 O749 1.237 . S
C764 O750 1.278 . S
H765 C733 0.931 . S
H766 C769 0.961 . S
H767 C769 0.961 . S
H768 C769 0.960 . S
C769 C735 1.361 . S
C769 H766 0.961 . S
C769 H767 0.961 . S
C769 H768 0.960 . S
C770 O746 1.253 . S
C770 O755 1.263 . S
C771 O753 1.278 . S
C771 O756 1.237 . S
H772 C736 0.930 . S
H773 C740 0.930 . S
Co774 N775 2.034 . S
Co774 O789 2.262 . S
Co774 O793 1.958 . S
Co774 O797 1.950 . S
Co774 O798 2.057 . S
N775 Co774 2.034 . S
N775 C776 1.366 . S
N775 C778 1.332 . S
C776 N775 1.366 . S
C776 C779 1.377 . S
C776 H808 0.931 . S
N777 C778 1.346 . S
N777 C779 1.337 . S
C778 N775 1.332 . S
C778 N777 1.346 . S
C778 C812 1.361 . S
C779 C776 1.377 . S
C779 N777 1.337 . S
C779 H815 0.930 . S
Co780 N781 2.034 . S
Co780 O794 1.950 . S
Co780 O795 2.262 . S
Co780 O796 1.958 . S
Co780 O800 2.057 . S
N781 Co780 2.034 . S
N781 C784 1.366 . S
N781 C785 1.332 . S
N782 C783 1.337 . S
N782 C785 1.346 . S
C783 N782 1.337 . S
C783 C784 1.377 . S
C783 H816 0.930 . S
C784 N781 1.366 . S
C784 C783 1.377 . S
C784 H788 0.931 . S
C785 N781 1.332 . S
C785 N782 1.346 . S
C785 C802 1.361 . S
Co786 O789 2.097 . S
Co786 O790 2.065 . S
Co786 O791 2.065 . S
Co786 O792 2.042 . S
Co786 O795 2.097 . S
Co786 O799 2.042 . S
C787 O795 1.253 . S
C787 O800 1.263 . S
H788 C784 0.931 . S
O789 Co774 2.262 . S
O789 Co786 2.097 . S
O789 C813 1.253 . S
O790 Co786 2.065 . S
O790 C806 1.221 . S
O791 Co786 2.065 . S
O791 C801 1.221 . S
O792 Co786 2.042 . S
O792 C807 1.237 . S
O793 Co774 1.958 . S
O793 C807 1.278 . S
O794 Co780 1.950 . S
O794 C806 1.277 . S
O795 Co780 2.262 . S
O795 Co786 2.097 . S
O795 C787 1.253 . S
O796 Co780 1.958 . S
O796 C814 1.278 . S
O797 Co774 1.950 . S
O797 C801 1.277 . S
O798 Co774 2.057 . S
O798 C813 1.263 . S
O799 Co786 2.042 . S
O799 C814 1.237 . S
O800 Co780 2.057 . S
O800 C787 1.263 . S
C801 O791 1.221 . S
C801 O797 1.277 . S
C802 C785 1.361 . S
C802 H803 0.960 . S
C802 H804 0.961 . S
C802 H805 0.961 . S
H803 C802 0.960 . S
H804 C802 0.961 . S
H805 C802 0.961 . S
C806 O790 1.221 . S
C806 O794 1.277 . S
C807 O792 1.237 . S
C807 O793 1.278 . S
H808 C776 0.931 . S
H809 C812 0.961 . S
H810 C812 0.961 . S
H811 C812 0.960 . S
C812 C778 1.361 . S
C812 H809 0.961 . S
C812 H810 0.961 . S
C812 H811 0.960 . S
C813 O789 1.253 . S
C813 O798 1.263 . S
C814 O796 1.278 . S
C814 O799 1.237 . S
H815 C779 0.930 . S
H816 C783 0.930 . S
Co817 N818 2.034 . S
Co817 O832 2.262 . S
Co817 O836 1.958 . S
Co817 O840 1.950 . S
Co817 O841 2.057 . S
N818 Co817 2.034 . S
N818 C819 1.366 . S
N818 C821 1.332 . S
C819 N818 1.366 . S
C819 C822 1.377 . S
C819 H851 0.931 . S
N820 C821 1.346 . S
N820 C822 1.337 . S
C821 N818 1.332 . S
C821 N820 1.346 . S
C821 C855 1.361 . S
C822 C819 1.377 . S
C822 N820 1.337 . S
C822 H858 0.930 . S
Co823 N824 2.034 . S
Co823 O837 1.950 . S
Co823 O838 2.262 . S
Co823 O839 1.958 . S
Co823 O843 2.057 . S
N824 Co823 2.034 . S
N824 C827 1.366 . S
N824 C828 1.332 . S
N825 C826 1.337 . S
N825 C828 1.346 . S
C826 N825 1.337 . S
C826 C827 1.377 . S
C826 H859 0.930 . S
C827 N824 1.366 . S
C827 C826 1.377 . S
C827 H831 0.931 . S
C828 N824 1.332 . S
C828 N825 1.346 . S
C828 C845 1.361 . S
Co829 O832 2.097 . S
Co829 O833 2.065 . S
Co829 O834 2.065 . S
Co829 O835 2.042 . S
Co829 O838 2.097 . S
Co829 O842 2.042 . S
C830 O838 1.253 . S
C830 O843 1.263 . S
H831 C827 0.931 . S
O832 Co817 2.262 . S
O832 Co829 2.097 . S
O832 C856 1.253 . S
O833 Co829 2.065 . S
O833 C849 1.221 . S
O834 Co829 2.065 . S
O834 C844 1.221 . S
O835 Co829 2.042 . S
O835 C850 1.237 . S
O836 Co817 1.958 . S
O836 C850 1.278 . S
O837 Co823 1.950 . S
O837 C849 1.277 . S
O838 Co823 2.262 . S
O838 Co829 2.097 . S
O838 C830 1.253 . S
O839 Co823 1.958 . S
O839 C857 1.278 . S
O840 Co817 1.950 . S
O840 C844 1.277 . S
O841 Co817 2.057 . S
O841 C856 1.263 . S
O842 Co829 2.042 . S
O842 C857 1.237 . S
O843 Co823 2.057 . S
O843 C830 1.263 . S
C844 O834 1.221 . S
C844 O840 1.277 . S
C845 C828 1.361 . S
C845 H846 0.960 . S
C845 H847 0.961 . S
C845 H848 0.961 . S
H846 C845 0.960 . S
H847 C845 0.961 . S
H848 C845 0.961 . S
C849 O833 1.221 . S
C849 O837 1.277 . S
C850 O835 1.237 . S
C850 O836 1.278 . S
H851 C819 0.931 . S
H852 C855 0.961 . S
H853 C855 0.961 . S
H854 C855 0.960 . S
C855 C821 1.361 . S
C855 H852 0.961 . S
C855 H853 0.961 . S
C855 H854 0.960 . S
C856 O832 1.253 . S
C856 O841 1.263 . S
C857 O839 1.278 . S
C857 O842 1.237 . S
H858 C822 0.930 . S
H859 C826 0.930 . S
Co860 N861 2.034 . S
Co860 O875 2.262 . S
Co860 O879 1.958 . S
Co860 O883 1.950 . S
Co860 O884 2.057 . S
N861 Co860 2.034 . S
N861 C862 1.366 . S
N861 C864 1.332 . S
C862 N861 1.366 . S
C862 C865 1.377 . S
C862 H894 0.931 . S
N863 C864 1.346 . S
N863 C865 1.337 . S
C864 N861 1.332 . S
C864 N863 1.346 . S
C864 C898 1.361 . S
C865 C862 1.377 . S
C865 N863 1.337 . S
C865 H901 0.930 . S
Co866 N867 2.034 . S
Co866 O880 1.950 . S
Co866 O881 2.262 . S
Co866 O882 1.958 . S
Co866 O886 2.057 . S
N867 Co866 2.034 . S
N867 C870 1.366 . S
N867 C871 1.332 . S
N868 C869 1.337 . S
N868 C871 1.346 . S
C869 N868 1.337 . S
C869 C870 1.377 . S
C869 H902 0.930 . S
C870 N867 1.366 . S
C870 C869 1.377 . S
C870 H874 0.931 . S
C871 N867 1.332 . S
C871 N868 1.346 . S
C871 C888 1.361 . S
Co872 O875 2.091 1_554 S
Co872 O876 2.065 1_554 S
Co872 O877 2.066 . S
Co872 O878 2.042 . S
Co872 O881 2.103 . S
Co872 O885 2.041 1_554 S
C873 O881 1.253 . S
C873 O886 1.263 . S
H874 C870 0.931 . S
O875 Co860 2.262 . S
O875 Co872 2.091 1_556 S
O875 C899 1.253 . S
O876 Co872 2.065 1_556 S
O876 C892 1.221 1_556 S
O877 Co872 2.066 . S
O877 C887 1.221 1_554 S
O878 Co872 2.042 . S
O878 C893 1.237 1_554 S
O879 Co860 1.958 . S
O879 C893 1.278 . S
O880 Co866 1.950 . S
O880 C892 1.277 . S
O881 Co866 2.262 . S
O881 Co872 2.103 . S
O881 C873 1.253 . S
O882 Co866 1.958 . S
O882 C900 1.278 . S
O883 Co860 1.950 . S
O883 C887 1.277 . S
O884 Co860 2.057 . S
O884 C899 1.263 . S
O885 Co872 2.041 1_556 S
O885 C900 1.237 1_556 S
O886 Co866 2.057 . S
O886 C873 1.263 . S
C887 O877 1.221 1_556 S
C887 O883 1.277 . S
C888 C871 1.361 . S
C888 H889 0.960 . S
C888 H890 0.961 . S
C888 H891 0.961 . S
H889 C888 0.960 . S
H890 C888 0.961 . S
H891 C888 0.961 . S
C892 O876 1.221 1_554 S
C892 O880 1.277 . S
C893 O878 1.237 1_556 S
C893 O879 1.278 . S
H894 C862 0.931 . S
H895 C898 0.961 . S
H896 C898 0.961 . S
H897 C898 0.960 . S
C898 C864 1.361 . S
C898 H895 0.961 . S
C898 H896 0.961 . S
C898 H897 0.960 . S
C899 O875 1.253 . S
C899 O884 1.263 . S
C900 O882 1.278 . S
C900 O885 1.237 1_554 S
H901 C865 0.930 . S
H902 C869 0.930 . S
Co903 N904 2.034 . S
Co903 O918 2.262 . S
Co903 O922 1.958 . S
Co903 O926 1.950 . S
Co903 O927 2.057 . S
N904 Co903 2.034 . S
N904 C905 1.366 . S
N904 C907 1.332 . S
C905 N904 1.366 . S
C905 C908 1.377 . S
C905 H937 0.931 . S
N906 C907 1.346 . S
N906 C908 1.337 . S
C907 N904 1.332 . S
C907 N906 1.346 . S
C907 C941 1.361 . S
C908 C905 1.377 . S
C908 N906 1.337 . S
C908 H944 0.930 . S
Co909 N910 2.034 . S
Co909 O923 1.950 . S
Co909 O924 2.262 . S
Co909 O925 1.958 . S
Co909 O929 2.057 . S
N910 Co909 2.034 . S
N910 C913 1.366 . S
N910 C914 1.332 . S
N911 C912 1.337 . S
N911 C914 1.346 . S
C912 N911 1.337 . S
C912 C913 1.377 . S
C912 H945 0.930 . S
C913 N910 1.366 . S
C913 C912 1.377 . S
C913 H917 0.931 . S
C914 N910 1.332 . S
C914 N911 1.346 . S
C914 C931 1.361 . S
Co915 O918 2.097 . S
Co915 O919 2.065 . S
Co915 O920 2.065 . S
Co915 O921 2.042 . S
Co915 O924 2.097 . S
Co915 O928 2.042 . S
C916 O924 1.253 . S
C916 O929 1.263 . S
H917 C913 0.931 . S
O918 Co903 2.262 . S
O918 Co915 2.097 . S
O918 C942 1.253 . S
O919 Co915 2.065 . S
O919 C935 1.221 . S
O920 Co915 2.065 . S
O920 C930 1.221 . S
O921 Co915 2.042 . S
O921 C936 1.237 . S
O922 Co903 1.958 . S
O922 C936 1.278 . S
O923 Co909 1.950 . S
O923 C935 1.277 . S
O924 Co909 2.262 . S
O924 Co915 2.097 . S
O924 C916 1.253 . S
O925 Co909 1.958 . S
O925 C943 1.278 . S
O926 Co903 1.950 . S
O926 C930 1.277 . S
O927 Co903 2.057 . S
O927 C942 1.263 . S
O928 Co915 2.042 . S
O928 C943 1.237 . S
O929 Co909 2.057 . S
O929 C916 1.263 . S
C930 O920 1.221 . S
C930 O926 1.277 . S
C931 C914 1.361 . S
C931 H932 0.960 . S
C931 H933 0.961 . S
C931 H934 0.961 . S
H932 C931 0.960 . S
H933 C931 0.961 . S
H934 C931 0.961 . S
C935 O919 1.221 . S
C935 O923 1.277 . S
C936 O921 1.237 . S
C936 O922 1.278 . S
H937 C905 0.931 . S
H938 C941 0.961 . S
H939 C941 0.961 . S
H940 C941 0.960 . S
C941 C907 1.361 . S
C941 H938 0.961 . S
C941 H939 0.961 . S
C941 H940 0.960 . S
C942 O918 1.253 . S
C942 O927 1.263 . S
C943 O925 1.278 . S
C943 O928 1.237 . S
H944 C908 0.930 . S
H945 C912 0.930 . S
Co946 N947 2.034 . S
Co946 O961 2.262 . S
Co946 O965 1.958 . S
Co946 O969 1.950 . S
Co946 O970 2.057 . S
N947 Co946 2.034 . S
N947 C948 1.366 . S
N947 C950 1.332 . S
C948 N947 1.366 . S
C948 C951 1.377 . S
C948 H980 0.931 . S
N949 C950 1.346 . S
N949 C951 1.337 . S
C950 N947 1.332 . S
C950 N949 1.346 . S
C950 C984 1.361 . S
C951 C948 1.377 . S
C951 N949 1.337 . S
C951 H987 0.930 . S
Co952 N953 2.034 . S
Co952 O966 1.950 . S
Co952 O967 2.262 . S
Co952 O968 1.958 . S
Co952 O972 2.057 . S
N953 Co952 2.034 . S
N953 C956 1.366 . S
N953 C957 1.332 . S
N954 C955 1.337 . S
N954 C957 1.346 . S
C955 N954 1.337 . S
C955 C956 1.377 . S
C955 H988 0.930 . S
C956 N953 1.366 . S
C956 C955 1.377 . S
C956 H960 0.931 . S
C957 N953 1.332 . S
C957 N954 1.346 . S
C957 C974 1.361 . S
Co958 O961 2.097 . S
Co958 O962 2.065 . S
Co958 O963 2.065 . S
Co958 O964 2.042 . S
Co958 O967 2.097 . S
Co958 O971 2.042 . S
C959 O967 1.253 . S
C959 O972 1.263 . S
H960 C956 0.931 . S
O961 Co946 2.262 . S
O961 Co958 2.097 . S
O961 C985 1.253 . S
O962 Co958 2.065 . S
O962 C978 1.221 . S
O963 Co958 2.065 . S
O963 C973 1.221 . S
O964 Co958 2.042 . S
O964 C979 1.237 . S
O965 Co946 1.958 . S
O965 C979 1.278 . S
O966 Co952 1.950 . S
O966 C978 1.277 . S
O967 Co952 2.262 . S
O967 Co958 2.097 . S
O967 C959 1.253 . S
O968 Co952 1.958 . S
O968 C986 1.278 . S
O969 Co946 1.950 . S
O969 C973 1.277 . S
O970 Co946 2.057 . S
O970 C985 1.263 . S
O971 Co958 2.042 . S
O971 C986 1.237 . S
O972 Co952 2.057 . S
O972 C959 1.263 . S
C973 O963 1.221 . S
C973 O969 1.277 . S
C974 C957 1.361 . S
C974 H975 0.960 . S
C974 H976 0.961 . S
C974 H977 0.961 . S
H975 C974 0.960 . S
H976 C974 0.961 . S
H977 C974 0.961 . S
C978 O962 1.221 . S
C978 O966 1.277 . S
C979 O964 1.237 . S
C979 O965 1.278 . S
H980 C948 0.931 . S
H981 C984 0.961 . S
H982 C984 0.961 . S
H983 C984 0.960 . S
C984 C950 1.361 . S
C984 H981 0.961 . S
C984 H982 0.961 . S
C984 H983 0.960 . S
C985 O961 1.253 . S
C985 O970 1.263 . S
C986 O968 1.278 . S
C986 O971 1.237 . S
H987 C951 0.930 . S
H988 C955 0.930 . S
Co989 N990 2.034 . S
Co989 O1004 2.262 . S
Co989 O1008 1.958 . S
Co989 O1012 1.950 . S
Co989 O1013 2.057 . S
N990 Co989 2.034 . S
N990 C991 1.366 . S
N990 C993 1.332 . S
C991 N990 1.366 . S
C991 C994 1.377 . S
C991 H1023 0.931 . S
N992 C993 1.346 . S
N992 C994 1.337 . S
C993 N990 1.332 . S
C993 N992 1.346 . S
C993 C1027 1.361 . S
C994 C991 1.377 . S
C994 N992 1.337 . S
C994 H1030 0.930 . S
Co995 N996 2.034 . S
Co995 O1009 1.950 . S
Co995 O1010 2.262 . S
Co995 O1011 1.958 . S
Co995 O1015 2.057 . S
N996 Co995 2.034 . S
N996 C999 1.366 . S
N996 C1000 1.332 . S
N997 C998 1.337 . S
N997 C1000 1.346 . S
C998 N997 1.337 . S
C998 C999 1.377 . S
C998 H1031 0.930 . S
C999 N996 1.366 . S
C999 C998 1.377 . S
C999 H1003 0.931 . S
C1000 N996 1.332 . S
C1000 N997 1.346 . S
C1000 C1017 1.361 . S
Co1001 O1004 2.103 . S
Co1001 O1005 2.066 . S
Co1001 O1006 2.065 1_545 S
Co1001 O1007 2.041 1_545 S
Co1001 O1010 2.091 1_545 S
Co1001 O1014 2.042 . S
C1002 O1010 1.253 . S
C1002 O1015 1.263 . S
H1003 C999 0.931 . S
O1004 Co989 2.262 . S
O1004 Co1001 2.103 . S
O1004 C1028 1.253 . S
O1005 Co1001 2.066 . S
O1005 C1021 1.221 1_545 S
O1006 Co1001 2.065 1_565 S
O1006 C1016 1.221 1_565 S
O1007 Co1001 2.041 1_565 S
O1007 C1022 1.237 1_565 S
O1008 Co989 1.958 . S
O1008 C1022 1.278 . S
O1009 Co995 1.950 . S
O1009 C1021 1.277 . S
O1010 Co995 2.262 . S
O1010 Co1001 2.091 1_565 S
O1010 C1002 1.253 . S
O1011 Co995 1.958 . S
O1011 C1029 1.278 . S
O1012 Co989 1.950 . S
O1012 C1016 1.277 . S
O1013 Co989 2.057 . S
O1013 C1028 1.263 . S
O1014 Co1001 2.042 . S
O1014 C1029 1.237 1_545 S
O1015 Co995 2.057 . S
O1015 C1002 1.263 . S
C1016 O1006 1.221 1_545 S
C1016 O1012 1.277 . S
C1017 C1000 1.361 . S
C1017 H1018 0.960 . S
C1017 H1019 0.961 . S
C1017 H1020 0.961 . S
H1018 C1017 0.960 . S
H1019 C1017 0.961 . S
H1020 C1017 0.961 . S
C1021 O1005 1.221 1_565 S
C1021 O1009 1.277 . S
C1022 O1007 1.237 1_545 S
C1022 O1008 1.278 . S
H1023 C991 0.931 . S
H1024 C1027 0.961 . S
H1025 C1027 0.961 . S
H1026 C1027 0.960 . S
C1027 C993 1.361 . S
C1027 H1024 0.961 . S
C1027 H1025 0.961 . S
C1027 H1026 0.960 . S
C1028 O1004 1.253 . S
C1028 O1013 1.263 . S
C1029 O1011 1.278 . S
C1029 O1014 1.237 1_565 S
H1030 C994 0.930 . S
H1031 C998 0.930 . S
C1032 C1033 1.363 . S
C1032 C1038 1.379 . S
C1032 N1040 1.356 . S
C1033 C1032 1.363 . S
C1033 C1039 1.363 . S
C1034 C1035 1.363 . S
C1034 C1039 1.379 . S
C1034 N1041 1.356 1_455 S
C1035 C1034 1.363 . S
C1035 C1038 1.363 . S
N1036 C1038 1.356 . S
N1036 H1048 0.984 . S
N1036 H1049 0.985 . S
N1037 C1039 1.356 . S
N1037 H1042 0.984 . S
N1037 H1043 0.985 . S
C1038 C1032 1.379 . S
C1038 C1035 1.363 . S
C1038 N1036 1.356 . S
C1039 C1033 1.363 . S
C1039 C1034 1.379 . S
C1039 N1037 1.356 . S
N1040 C1032 1.356 . S
N1040 H1046 0.984 . S
N1040 H1047 0.984 . S
N1041 C1034 1.356 1_655 S
N1041 H1044 0.984 . S
N1041 H1045 0.985 . S
H1042 N1037 0.984 . S
H1043 N1037 0.985 . S
H1044 N1041 0.984 . S
H1045 N1041 0.985 . S
H1046 N1040 0.984 . S
H1047 N1040 0.984 . S
H1048 N1036 0.984 . S
H1049 N1036 0.985 . S
C1050 C1051 1.363 . S
C1050 C1056 1.379 . S
C1050 N1058 1.356 . S
C1051 C1050 1.363 . S
C1051 C1057 1.363 . S
C1052 C1053 1.363 . S
C1052 C1057 1.379 . S
C1052 N1059 1.356 . S
C1053 C1052 1.363 . S
C1053 C1056 1.363 . S
N1054 C1056 1.356 . S
N1054 H1066 0.984 . S
N1054 H1067 0.985 . S
N1055 C1057 1.356 . S
N1055 H1060 0.984 . S
N1055 H1061 0.985 . S
C1056 C1050 1.379 . S
C1056 C1053 1.363 . S
C1056 N1054 1.356 . S
C1057 C1051 1.363 . S
C1057 C1052 1.379 . S
C1057 N1055 1.356 . S
N1058 C1050 1.356 . S
N1058 H1064 0.984 . S
N1058 H1065 0.984 . S
N1059 C1052 1.356 . S
N1059 H1062 0.984 . S
N1059 H1063 0.985 . S
H1060 N1055 0.984 . S
H1061 N1055 0.985 . S
H1062 N1059 0.984 . S
H1063 N1059 0.985 . S
H1064 N1058 0.984 . S
H1065 N1058 0.984 . S
H1066 N1054 0.984 . S
H1067 N1054 0.985 . S
C1068 C1069 1.363 . S
C1068 C1074 1.379 . S
C1068 N1076 1.356 . S
C1069 C1068 1.363 . S
C1069 C1075 1.363 . S
C1070 C1071 1.363 . S
C1070 C1075 1.379 . S
C1070 N1077 1.356 . S
C1071 C1070 1.363 . S
C1071 C1074 1.363 . S
N1072 C1074 1.356 . S
N1072 H1084 0.984 . S
N1072 H1085 0.985 . S
N1073 C1075 1.356 . S
N1073 H1078 0.984 . S
N1073 H1079 0.985 . S
C1074 C1068 1.379 . S
C1074 C1071 1.363 . S
C1074 N1072 1.356 . S
C1075 C1069 1.363 . S
C1075 C1070 1.379 . S
C1075 N1073 1.356 . S
N1076 C1068 1.356 . S
N1076 H1082 0.984 . S
N1076 H1083 0.984 . S
N1077 C1070 1.356 . S
N1077 H1080 0.984 . S
N1077 H1081 0.985 . S
H1078 N1073 0.984 . S
H1079 N1073 0.985 . S
H1080 N1077 0.984 . S
H1081 N1077 0.985 . S
H1082 N1076 0.984 . S
H1083 N1076 0.984 . S
H1084 N1072 0.984 . S
H1085 N1072 0.985 . S
C1086 C1087 1.363 . S
C1086 C1092 1.379 . S
C1086 N1094 1.356 1_554 S
C1087 C1086 1.363 . S
C1087 C1093 1.363 . S
C1088 C1089 1.363 . S
C1088 C1093 1.379 . S
C1088 N1095 1.356 . S
C1089 C1088 1.363 . S
C1089 C1092 1.363 . S
N1090 C1092 1.356 . S
N1090 H1102 0.984 . S
N1090 H1103 0.985 . S
N1091 C1093 1.356 . S
N1091 H1096 0.984 . S
N1091 H1097 0.985 . S
C1092 C1086 1.379 . S
C1092 C1089 1.363 . S
C1092 N1090 1.356 . S
C1093 C1087 1.363 . S
C1093 C1088 1.379 . S
C1093 N1091 1.356 . S
N1094 C1086 1.356 1_556 S
N1094 H1100 0.984 . S
N1094 H1101 0.984 . S
N1095 C1088 1.356 . S
N1095 H1098 0.984 . S
N1095 H1099 0.985 . S
H1096 N1091 0.984 . S
H1097 N1091 0.985 . S
H1098 N1095 0.984 . S
H1099 N1095 0.985 . S
H1100 N1094 0.984 . S
H1101 N1094 0.984 . S
H1102 N1090 0.984 . S
H1103 N1090 0.985 . S
C1104 C1105 1.363 . S
C1104 C1110 1.379 . S
C1104 N1112 1.356 . S
C1105 C1104 1.363 . S
C1105 C1111 1.363 . S
C1106 C1107 1.363 . S
C1106 C1111 1.379 . S
C1106 N1113 1.356 . S
C1107 C1106 1.363 . S
C1107 C1110 1.363 . S
N1108 C1110 1.356 . S
N1108 H1120 0.984 . S
N1108 H1121 0.985 . S
N1109 C1111 1.356 . S
N1109 H1114 0.984 . S
N1109 H1115 0.985 . S
C1110 C1104 1.379 . S
C1110 C1107 1.363 . S
C1110 N1108 1.356 . S
C1111 C1105 1.363 . S
C1111 C1106 1.379 . S
C1111 N1109 1.356 . S
N1112 C1104 1.356 . S
N1112 H1118 0.984 . S
N1112 H1119 0.997 . S
N1113 C1106 1.356 . S
N1113 H1116 0.984 . S
N1113 H1117 0.985 . S
H1114 N1109 0.984 . S
H1115 N1109 0.985 . S
H1116 N1113 0.984 . S
H1117 N1113 0.985 . S
H1118 N1112 0.984 . S
H1119 N1112 0.997 . S
H1120 N1108 0.984 . S
H1121 N1108 0.985 . S
C1122 C1123 1.363 . S
C1122 C1128 1.379 . S
C1122 N1130 1.356 . S
C1123 C1122 1.363 . S
C1123 C1129 1.363 . S
C1124 C1125 1.363 . S
C1124 C1129 1.379 . S
C1124 N1131 1.356 . S
C1125 C1124 1.363 . S
C1125 C1128 1.363 . S
N1126 C1128 1.356 . S
N1126 H1138 0.984 . S
N1126 H1139 0.985 . S
N1127 C1129 1.356 . S
N1127 H1132 0.984 . S
N1127 H1133 0.985 . S
C1128 C1122 1.379 . S
C1128 C1125 1.363 . S
C1128 N1126 1.356 . S
C1129 C1123 1.363 . S
C1129 C1124 1.379 . S
C1129 N1127 1.356 . S
N1130 C1122 1.356 . S
N1130 H1136 0.984 . S
N1130 H1137 0.984 . S
N1131 C1124 1.356 . S
N1131 H1134 0.984 . S
N1131 H1135 0.985 . S
H1132 N1127 0.984 . S
H1133 N1127 0.985 . S
H1134 N1131 0.984 . S
H1135 N1131 0.985 . S
H1136 N1130 0.984 . S
H1137 N1130 0.984 . S
H1138 N1126 0.984 . S
H1139 N1126 0.985 . S
C1140 C1141 1.363 . S
C1140 C1146 1.379 . S
C1140 N1148 1.356 . S
C1141 C1140 1.363 . S
C1141 C1147 1.363 . S
C1142 C1143 1.363 . S
C1142 C1147 1.379 . S
C1142 N1149 1.356 . S
C1143 C1142 1.363 . S
C1143 C1146 1.363 . S
N1144 C1146 1.356 . S
N1144 H1156 0.984 . S
N1144 H1157 0.985 . S
N1145 C1147 1.356 . S
N1145 H1150 0.984 . S
N1145 H1151 0.985 . S
C1146 C1140 1.379 . S
C1146 C1143 1.363 . S
C1146 N1144 1.356 . S
C1147 C1141 1.363 . S
C1147 C1142 1.379 . S
C1147 N1145 1.356 . S
N1148 C1140 1.356 . S
N1148 H1154 0.984 . S
N1148 H1155 0.984 . S
N1149 C1142 1.356 . S
N1149 H1152 0.984 . S
N1149 H1153 0.985 . S
H1150 N1145 0.984 . S
H1151 N1145 0.985 . S
H1152 N1149 0.984 . S
H1153 N1149 0.985 . S
H1154 N1148 0.984 . S
H1155 N1148 0.984 . S
H1156 N1144 0.984 . S
H1157 N1144 0.985 . S
C1158 C1159 1.363 . S
C1158 C1164 1.379 . S
C1158 N1166 1.356 . S
C1159 C1158 1.363 . S
C1159 C1165 1.363 . S
C1160 C1161 1.363 . S
C1160 C1165 1.379 . S
C1160 N1167 1.356 . S
C1161 C1160 1.363 . S
C1161 C1164 1.363 . S
N1162 C1164 1.356 . S
N1162 H1174 0.984 . S
N1162 H1175 0.985 . S
N1163 C1165 1.356 1_554 S
N1163 H1168 0.984 . S
N1163 H1169 0.985 . S
C1164 C1158 1.379 . S
C1164 C1161 1.363 . S
C1164 N1162 1.356 . S
C1165 C1159 1.363 . S
C1165 C1160 1.379 . S
C1165 N1163 1.356 1_556 S
N1166 C1158 1.356 . S
N1166 H1172 0.984 . S
N1166 H1173 0.984 . S
N1167 C1160 1.356 . S
N1167 H1170 0.984 . S
N1167 H1171 0.985 . S
H1168 N1163 0.984 . S
H1169 N1163 0.985 . S
H1170 N1167 0.984 . S
H1171 N1167 0.985 . S
H1172 N1166 0.984 . S
H1173 N1166 0.984 . S
H1174 N1162 0.984 . S
H1175 N1162 0.985 . S
C1176 C1177 1.363 . S
C1176 C1182 1.379 . S
C1176 N1184 1.356 1_545 S
C1177 C1176 1.363 . S
C1177 C1183 1.363 . S
C1178 C1179 1.363 . S
C1178 C1183 1.379 . S
C1178 N1185 1.356 . S
C1179 C1178 1.363 . S
C1179 C1182 1.363 . S
N1180 C1182 1.356 . S
N1180 H1192 0.984 . S
N1180 H1193 0.985 . S
N1181 C1183 1.356 . S
N1181 H1186 0.984 . S
N1181 H1187 0.985 . S
C1182 C1176 1.379 . S
C1182 C1179 1.363 . S
C1182 N1180 1.356 . S
C1183 C1177 1.363 . S
C1183 C1178 1.379 . S
C1183 N1181 1.356 . S
N1184 C1176 1.356 1_565 S
N1184 H1190 0.984 . S
N1184 H1191 0.984 . S
N1185 C1178 1.356 . S
N1185 H1188 0.984 . S
N1185 H1189 0.985 . S
H1186 N1181 0.984 . S
H1187 N1181 0.985 . S
H1188 N1185 0.984 . S
H1189 N1185 0.985 . S
H1190 N1184 0.984 . S
H1191 N1184 0.984 . S
H1192 N1180 0.984 . S
H1193 N1180 0.985 . S
C1194 C1195 1.363 . S
C1194 C1200 1.379 . S
C1194 N1202 1.356 . S
C1195 C1194 1.363 . S
C1195 C1201 1.363 . S
C1196 C1197 1.363 . S
C1196 C1201 1.379 . S
C1196 N1203 1.356 . S
C1197 C1196 1.363 . S
C1197 C1200 1.363 . S
N1198 C1200 1.356 . S
N1198 H1210 0.984 . S
N1198 H1211 0.985 . S
N1199 C1201 1.356 1_565 S
N1199 H1204 0.984 . S
N1199 H1205 0.985 . S
C1200 C1194 1.379 . S
C1200 C1197 1.363 . S
C1200 N1198 1.356 . S
C1201 C1195 1.363 . S
C1201 C1196 1.379 . S
C1201 N1199 1.356 1_545 S
N1202 C1194 1.356 . S
N1202 H1208 0.984 . S
N1202 H1209 0.984 . S
N1203 C1196 1.356 . S
N1203 H1206 0.984 . S
N1203 H1207 0.985 1_545 S
H1204 N1199 0.984 . S
H1205 N1199 0.985 . S
H1206 N1203 0.984 . S
H1207 N1203 0.985 1_565 S
H1208 N1202 0.984 . S
H1209 N1202 0.984 . S
H1210 N1198 0.984 . S
H1211 N1198 0.985 . S
C1212 C1213 1.363 . S
C1212 C1218 1.379 . S
C1212 N1220 1.356 . S
C1213 C1212 1.363 . S
C1213 C1219 1.363 . S
C1214 C1215 1.363 . S
C1214 C1219 1.379 . S
C1214 N1221 1.356 . S
C1215 C1214 1.363 . S
C1215 C1218 1.363 . S
N1216 C1218 1.356 . S
N1216 H1228 0.984 . S
N1216 H1229 0.985 . S
N1217 C1219 1.356 1_545 S
N1217 H1222 0.984 . S
N1217 H1223 0.985 . S
C1218 C1212 1.379 . S
C1218 C1215 1.363 . S
C1218 N1216 1.356 . S
C1219 C1213 1.363 . S
C1219 C1214 1.379 . S
C1219 N1217 1.356 1_565 S
N1220 C1212 1.356 . S
N1220 H1226 0.984 . S
N1220 H1227 0.984 . S
N1221 C1214 1.356 . S
N1221 H1224 0.984 . S
N1221 H1225 0.985 1_565 S
H1222 N1217 0.984 . S
H1223 N1217 0.985 . S
H1224 N1221 0.984 . S
H1225 N1221 0.985 1_545 S
H1226 N1220 0.984 . S
H1227 N1220 0.984 . S
H1228 N1216 0.984 . S
H1229 N1216 0.985 . S
C1230 C1231 1.363 . S
C1230 C1236 1.379 . S
C1230 N1238 1.356 1_565 S
C1231 C1230 1.363 . S
C1231 C1237 1.363 . S
C1232 C1233 1.363 . S
C1232 C1237 1.379 . S
C1232 N1239 1.356 . S
C1233 C1232 1.363 . S
C1233 C1236 1.363 . S
N1234 C1236 1.356 . S
N1234 H1246 0.984 . S
N1234 H1247 0.985 . S
N1235 C1237 1.356 . S
N1235 H1240 0.984 . S
N1235 H1241 0.985 . S
C1236 C1230 1.379 . S
C1236 C1233 1.363 . S
C1236 N1234 1.356 . S
C1237 C1231 1.363 . S
C1237 C1232 1.379 . S
C1237 N1235 1.356 . S
N1238 C1230 1.356 1_545 S
N1238 H1244 0.984 . S
N1238 H1245 0.984 . S
N1239 C1232 1.356 . S
N1239 H1242 0.984 . S
N1239 H1243 0.985 . S
H1240 N1235 0.984 . S
H1241 N1235 0.985 . S
H1242 N1239 0.984 . S
H1243 N1239 0.985 . S
H1244 N1238 0.984 . S
H1245 N1238 0.984 . S
H1246 N1234 0.984 . S
H1247 N1234 0.985 . S
C1248 C1249 1.363 . S
C1248 C1254 1.379 . S
C1248 N1256 1.356 . S
C1249 C1248 1.363 . S
C1249 C1255 1.363 . S
C1250 C1251 1.363 . S
C1250 C1255 1.379 . S
C1250 N1257 1.356 . S
C1251 C1250 1.363 . S
C1251 C1254 1.363 . S
N1252 C1254 1.356 . S
N1252 H1264 0.984 . S
N1252 H1265 0.985 . S
N1253 C1255 1.356 1_556 S
N1253 H1258 0.984 . S
N1253 H1259 0.985 . S
C1254 C1248 1.379 . S
C1254 C1251 1.363 . S
C1254 N1252 1.356 . S
C1255 C1249 1.363 . S
C1255 C1250 1.379 . S
C1255 N1253 1.356 1_554 S
N1256 C1248 1.356 . S
N1256 H1262 0.984 . S
N1256 H1263 0.984 . S
N1257 C1250 1.356 . S
N1257 H1260 0.984 . S
N1257 H1261 0.985 . S
H1258 N1253 0.984 . S
H1259 N1253 0.985 . S
H1260 N1257 0.984 . S
H1261 N1257 0.985 . S
H1262 N1256 0.984 . S
H1263 N1256 0.984 . S
H1264 N1252 0.984 . S
H1265 N1252 0.985 . S
C1266 C1267 1.363 . S
C1266 C1272 1.379 . S
C1266 N1274 1.356 . S
C1267 C1266 1.363 . S
C1267 C1273 1.363 . S
C1268 C1269 1.363 . S
C1268 C1273 1.379 . S
C1268 N1275 1.356 . S
C1269 C1268 1.363 . S
C1269 C1272 1.363 . S
N1270 C1272 1.356 . S
N1270 H1282 0.984 . S
N1270 H1283 0.985 . S
N1271 C1273 1.356 1_455 S
N1271 H1276 0.984 . S
N1271 H1277 0.985 . S
C1272 C1266 1.379 . S
C1272 C1269 1.363 . S
C1272 N1270 1.356 . S
C1273 C1267 1.363 . S
C1273 C1268 1.379 . S
C1273 N1271 1.356 1_655 S
N1274 C1266 1.356 . S
N1274 H1280 0.984 . S
N1274 H1281 0.984 . S
N1275 C1268 1.356 . S
N1275 H1278 0.984 . S
N1275 H1279 0.985 . S
H1276 N1271 0.984 . S
H1277 N1271 0.985 . S
H1278 N1275 0.984 . S
H1279 N1275 0.985 . S
H1280 N1274 0.984 . S
H1281 N1274 0.984 . S
H1282 N1270 0.984 . S
H1283 N1270 0.985 . S
C1284 C1285 1.363 . S
C1284 C1290 1.379 . S
C1284 N1292 1.356 . S
C1285 C1284 1.363 . S
C1285 C1291 1.363 . S
C1286 C1287 1.363 . S
C1286 C1291 1.379 . S
C1286 N1293 1.356 . S
C1287 C1286 1.363 . S
C1287 C1290 1.363 . S
N1288 C1290 1.356 . S
N1288 H1300 0.984 . S
N1288 H1301 0.985 . S
N1289 C1291 1.356 . S
N1289 H1294 0.984 . S
N1289 H1295 0.985 . S
C1290 C1284 1.379 . S
C1290 C1287 1.363 . S
C1290 N1288 1.356 . S
C1291 C1285 1.363 . S
C1291 C1286 1.379 . S
C1291 N1289 1.356 . S
N1292 C1284 1.356 . S
N1292 H1298 0.984 . S
N1292 H1299 0.984 . S
N1293 C1286 1.356 . S
N1293 H1296 0.984 . S
N1293 H1297 0.985 . S
H1294 N1289 0.984 . S
H1295 N1289 0.985 . S
H1296 N1293 0.984 . S
H1297 N1293 0.985 . S
H1298 N1292 0.984 . S
H1299 N1292 0.984 . S
H1300 N1288 0.984 . S
H1301 N1288 0.985 . S
C1302 C1303 1.363 . S
C1302 C1308 1.379 . S
C1302 N1310 1.356 . S
C1303 C1302 1.363 . S
C1303 C1309 1.363 . S
C1304 C1305 1.363 . S
C1304 C1309 1.379 . S
C1304 N1311 1.356 . S
C1305 C1304 1.363 . S
C1305 C1308 1.363 . S
N1306 C1308 1.356 . S
N1306 H1318 0.984 . S
N1306 H1319 0.985 . S
N1307 C1309 1.356 . S
N1307 H1312 0.984 . S
N1307 H1313 0.985 . S
C1308 C1302 1.379 . S
C1308 C1305 1.363 . S
C1308 N1306 1.356 . S
C1309 C1303 1.363 . S
C1309 C1304 1.379 . S
C1309 N1307 1.356 . S
N1310 C1302 1.356 . S
N1310 H1316 0.984 . S
N1310 H1317 0.984 . S
N1311 C1304 1.356 . S
N1311 H1314 0.984 . S
N1311 H1315 0.985 . S
H1312 N1307 0.984 . S
H1313 N1307 0.985 . S
H1314 N1311 0.984 . S
H1315 N1311 0.985 . S
H1316 N1310 0.984 . S
H1317 N1310 0.984 . S
H1318 N1306 0.984 . S
H1319 N1306 0.985 . S
C1320 C1321 1.363 . S
C1320 C1326 1.379 . S
C1320 N1328 1.356 . S
C1321 C1320 1.363 . S
C1321 C1327 1.363 . S
C1322 C1323 1.363 . S
C1322 C1327 1.379 . S
C1322 N1329 1.356 1_655 S
C1323 C1322 1.363 . S
C1323 C1326 1.363 . S
N1324 C1326 1.356 . S
N1324 H1336 0.984 . S
N1324 H1337 0.985 . S
N1325 C1327 1.356 . S
N1325 H1330 0.984 . S
N1325 H1331 0.985 . S
C1326 C1320 1.379 . S
C1326 C1323 1.363 . S
C1326 N1324 1.356 . S
C1327 C1321 1.363 . S
C1327 C1322 1.379 . S
C1327 N1325 1.356 . S
N1328 C1320 1.356 . S
N1328 H1334 0.984 . S
N1328 H1335 0.984 . S
N1329 C1322 1.356 1_455 S
N1329 H1332 0.984 . S
N1329 H1333 0.985 . S
H1330 N1325 0.984 . S
H1331 N1325 0.985 . S
H1332 N1329 0.984 . S
H1333 N1329 0.985 . S
H1334 N1328 0.984 . S
H1335 N1328 0.984 . S
H1336 N1324 0.984 . S
H1337 N1324 0.985 . S
C1338 C1339 1.363 . S
C1338 C1344 1.379 . S
C1338 N1346 1.356 . S
C1339 C1338 1.363 . S
C1339 C1345 1.363 . S
C1340 C1341 1.363 . S
C1340 C1345 1.379 . S
C1340 N1347 1.356 . S
C1341 C1340 1.363 . S
C1341 C1344 1.363 . S
N1342 C1344 1.356 . S
N1342 H1354 0.984 . S
N1342 H1355 0.985 . S
N1343 C1345 1.356 . S
N1343 H1348 0.984 . S
N1343 H1349 0.985 . S
C1344 C1338 1.379 . S
C1344 C1341 1.363 . S
C1344 N1342 1.356 . S
C1345 C1339 1.363 . S
C1345 C1340 1.379 . S
C1345 N1343 1.356 . S
N1346 C1338 1.356 . S
N1346 H1352 0.984 . S
N1346 H1353 0.984 . S
N1347 C1340 1.356 . S
N1347 H1350 0.984 . S
N1347 H1351 0.985 . S
H1348 N1343 0.984 . S
H1349 N1343 0.985 . S
H1350 N1347 0.984 . S
H1351 N1347 0.985 . S
H1352 N1346 0.984 . S
H1353 N1346 0.984 . S
H1354 N1342 0.984 . S
H1355 N1342 0.985 . S
C1356 C1357 1.363 . S
C1356 C1362 1.379 . S
C1356 N1364 1.356 . S
C1357 C1356 1.363 . S
C1357 C1363 1.363 . S
C1358 C1359 1.363 . S
C1358 C1363 1.379 . S
C1358 N1365 1.356 . S
C1359 C1358 1.363 . S
C1359 C1362 1.363 . S
N1360 C1362 1.356 . S
N1360 H1372 0.984 . S
N1360 H1373 0.985 . S
N1361 C1363 1.356 . S
N1361 H1366 0.986 . S
N1361 H1367 0.985 . S
C1362 C1356 1.379 . S
C1362 C1359 1.363 . S
C1362 N1360 1.356 . S
C1363 C1357 1.363 . S
C1363 C1358 1.379 . S
C1363 N1361 1.356 . S
N1364 C1356 1.356 . S
N1364 H1370 0.984 . S
N1364 H1371 0.984 . S
N1365 C1358 1.356 . S
N1365 H1368 0.984 . S
N1365 H1369 0.985 . S
H1366 N1361 0.986 . S
H1367 N1361 0.985 . S
H1368 N1365 0.984 . S
H1369 N1365 0.985 . S
H1370 N1364 0.984 . S
H1371 N1364 0.984 . S
H1372 N1360 0.984 . S
H1373 N1360 0.985 . S
C1374 C1375 1.363 . S
C1374 C1380 1.379 . S
C1374 N1382 1.356 . S
C1375 C1374 1.363 . S
C1375 C1381 1.363 . S
C1376 C1377 1.363 . S
C1376 C1381 1.379 . S
C1376 N1383 1.356 . S
C1377 C1376 1.363 . S
C1377 C1380 1.363 . S
N1378 C1380 1.356 . S
N1378 H1390 0.984 . S
N1378 H1391 0.985 . S
N1379 C1381 1.356 . S
N1379 H1384 0.984 . S
N1379 H1385 0.985 . S
C1380 C1374 1.379 . S
C1380 C1377 1.363 . S
C1380 N1378 1.356 . S
C1381 C1375 1.363 . S
C1381 C1376 1.379 . S
C1381 N1379 1.356 . S
N1382 C1374 1.356 . S
N1382 H1388 0.984 . S
N1382 H1389 0.984 . S
N1383 C1376 1.356 . S
N1383 H1386 0.984 . S
N1383 H1387 0.985 . S
H1384 N1379 0.984 . S
H1385 N1379 0.985 . S
H1386 N1383 0.984 . S
H1387 N1383 0.985 . S
H1388 N1382 0.984 . S
H1389 N1382 0.984 . S
H1390 N1378 0.984 . S
H1391 N1378 0.985 . S
C1392 C1393 1.363 . S
C1392 C1398 1.379 . S
C1392 N1400 1.356 . S
C1393 C1392 1.363 . S
C1393 C1399 1.363 . S
C1394 C1395 1.363 . S
C1394 C1399 1.379 . S
C1394 N1401 1.356 . S
C1395 C1394 1.363 . S
C1395 C1398 1.363 . S
N1396 C1398 1.356 . S
N1396 H1408 0.984 . S
N1396 H1409 0.985 . S
N1397 C1399 1.356 . S
N1397 H1402 0.984 . S
N1397 H1403 0.985 . S
C1398 C1392 1.379 . S
C1398 C1395 1.363 . S
C1398 N1396 1.356 . S
C1399 C1393 1.363 . S
C1399 C1394 1.379 . S
C1399 N1397 1.356 . S
N1400 C1392 1.356 . S
N1400 H1406 0.984 . S
N1400 H1407 0.984 . S
N1401 C1394 1.356 . S
N1401 H1404 0.984 . S
N1401 H1405 0.985 . S
H1402 N1397 0.984 . S
H1403 N1397 0.985 . S
H1404 N1401 0.984 . S
H1405 N1401 0.985 . S
H1406 N1400 0.984 . S
H1407 N1400 0.984 . S
H1408 N1396 0.984 . S
H1409 N1396 0.985 . S
C1410 C1411 1.363 . S
C1410 C1416 1.379 . S
C1410 N1418 1.356 . S
C1411 C1410 1.363 . S
C1411 C1417 1.363 . S
C1412 C1413 1.363 . S
C1412 C1417 1.379 . S
C1412 N1419 1.356 . S
C1413 C1412 1.363 . S
C1413 C1416 1.363 . S
N1414 C1416 1.356 . S
N1414 H1426 0.984 . S
N1414 H1427 0.985 . S
N1415 C1417 1.356 . S
N1415 H1420 0.984 . S
N1415 H1421 0.985 . S
C1416 C1410 1.379 . S
C1416 C1413 1.363 . S
C1416 N1414 1.356 . S
C1417 C1411 1.363 . S
C1417 C1412 1.379 . S
C1417 N1415 1.356 . S
N1418 C1410 1.356 . S
N1418 H1424 0.984 . S
N1418 H1425 0.984 . S
N1419 C1412 1.356 . S
N1419 H1422 0.984 . S
N1419 H1423 0.985 . S
H1420 N1415 0.984 . S
H1421 N1415 0.985 . S
H1422 N1419 0.984 . S
H1423 N1419 0.985 . S
H1424 N1418 0.984 . S
H1425 N1418 0.984 . S
H1426 N1414 0.984 . S
H1427 N1414 0.985 . S
C1428 C1429 1.363 . S
C1428 C1434 1.379 . S
C1428 N1436 1.356 . S
C1429 C1428 1.363 . S
C1429 C1435 1.363 . S
C1430 C1431 1.363 . S
C1430 C1435 1.379 . S
C1430 N1437 1.356 . S
C1431 C1430 1.363 . S
C1431 C1434 1.363 . S
N1432 C1434 1.356 . S
N1432 H1444 0.984 . S
N1432 H1445 0.985 . S
N1433 C1435 1.356 . S
N1433 H1438 0.984 . S
N1433 H1439 0.985 . S
C1434 C1428 1.379 . S
C1434 C1431 1.363 . S
C1434 N1432 1.356 . S
C1435 C1429 1.363 . S
C1435 C1430 1.379 . S
C1435 N1433 1.356 . S
N1436 C1428 1.356 . S
N1436 H1442 0.984 . S
N1436 H1443 0.984 . S
N1437 C1430 1.356 . S
N1437 H1440 0.984 . S
N1437 H1441 0.985 . S
H1438 N1433 0.984 . S
H1439 N1433 0.985 . S
H1440 N1437 0.984 . S
H1441 N1437 0.985 . S
H1442 N1436 0.984 . S
H1443 N1436 0.984 . S
H1444 N1432 0.984 . S
H1445 N1432 0.985 . S
C1446 C1447 1.363 . S
C1446 C1452 1.379 . S
C1446 N1454 1.356 . S
C1447 C1446 1.363 . S
C1447 C1453 1.363 . S
C1448 C1449 1.363 . S
C1448 C1453 1.379 . S
C1448 N1455 1.356 . S
C1449 C1448 1.363 . S
C1449 C1452 1.363 . S
N1450 C1452 1.356 . S
N1450 H1462 0.984 . S
N1450 H1463 0.985 . S
N1451 C1453 1.356 . S
N1451 H1456 0.984 . S
N1451 H1457 0.985 . S
C1452 C1446 1.379 . S
C1452 C1449 1.363 . S
C1452 N1450 1.356 . S
C1453 C1447 1.363 . S
C1453 C1448 1.379 . S
C1453 N1451 1.356 . S
N1454 C1446 1.356 . S
N1454 H1460 0.984 . S
N1454 H1461 0.984 . S
N1455 C1448 1.356 . S
N1455 H1458 0.984 . S
N1455 H1459 0.985 . S
H1456 N1451 0.984 . S
H1457 N1451 0.985 . S
H1458 N1455 0.984 . S
H1459 N1455 0.985 . S
H1460 N1454 0.984 . S
H1461 N1454 0.984 . S
H1462 N1450 0.984 . S
H1463 N1450 0.985 . S
C1464 C1465 1.363 . S
C1464 C1470 1.379 . S
C1464 N1472 1.356 . S
C1465 C1464 1.363 . S
C1465 C1471 1.363 . S
C1466 C1467 1.363 . S
C1466 C1471 1.379 . S
C1466 N1473 1.356 . S
C1467 C1466 1.363 . S
C1467 C1470 1.363 . S
N1468 C1470 1.356 . S
N1468 H1480 0.984 . S
N1468 H1481 0.985 . S
N1469 C1471 1.356 . S
N1469 H1474 0.984 . S
N1469 H1475 0.985 . S
C1470 C1464 1.379 . S
C1470 C1467 1.363 . S
C1470 N1468 1.356 . S
C1471 C1465 1.363 . S
C1471 C1466 1.379 . S
C1471 N1469 1.356 . S
N1472 C1464 1.356 . S
N1472 H1478 0.984 . S
N1472 H1479 0.984 . S
N1473 C1466 1.356 . S
N1473 H1476 0.984 . S
N1473 H1477 0.985 . S
H1474 N1469 0.984 . S
H1475 N1469 0.985 . S
H1476 N1473 0.984 . S
H1477 N1473 0.985 . S
H1478 N1472 0.984 . S
H1479 N1472 0.984 . S
H1480 N1468 0.984 . S
H1481 N1468 0.985 . S
C1482 C1483 1.363 . S
C1482 C1488 1.379 . S
C1482 N1490 1.356 . S
C1483 C1482 1.363 . S
C1483 C1489 1.363 . S
C1484 C1485 1.363 . S
C1484 C1489 1.379 . S
C1484 N1491 1.356 . S
C1485 C1484 1.363 . S
C1485 C1488 1.363 . S
N1486 C1488 1.356 . S
N1486 H1498 0.984 . S
N1486 H1499 0.985 . S
N1487 C1489 1.356 . S
N1487 H1492 0.984 . S
N1487 H1493 0.985 . S
C1488 C1482 1.379 . S
C1488 C1485 1.363 . S
C1488 N1486 1.356 . S
C1489 C1483 1.363 . S
C1489 C1484 1.379 . S
C1489 N1487 1.356 . S
N1490 C1482 1.356 . S
N1490 H1496 0.984 . S
N1490 H1497 0.984 . S
N1491 C1484 1.356 . S
N1491 H1494 0.984 1_455 S
N1491 H1495 0.985 1_455 S
H1492 N1487 0.984 . S
H1493 N1487 0.985 . S
H1494 N1491 0.984 1_655 S
H1495 N1491 0.985 1_655 S
H1496 N1490 0.984 . S
H1497 N1490 0.984 . S
H1498 N1486 0.984 . S
H1499 N1486 0.985 . S
C1500 C1501 1.363 . S
C1500 C1506 1.379 . S
C1500 N1508 1.356 . S
C1501 C1500 1.363 . S
C1501 C1507 1.363 . S
C1502 C1503 1.363 . S
C1502 C1507 1.379 . S
C1502 N1509 1.339 1_556 S
C1503 C1502 1.363 . S
C1503 C1506 1.363 . S
N1504 C1506 1.356 . S
N1504 H1516 0.984 . S
N1504 H1517 0.985 . S
N1505 C1507 1.356 . S
N1505 H1510 0.984 . S
N1505 H1511 0.985 . S
C1506 C1500 1.379 . S
C1506 C1503 1.363 . S
C1506 N1504 1.356 . S
C1507 C1501 1.363 . S
C1507 C1502 1.379 . S
C1507 N1505 1.356 . S
N1508 C1500 1.356 . S
N1508 H1514 0.984 . S
N1508 H1515 0.984 . S
N1509 C1502 1.339 1_554 S
N1509 H1512 0.991 . S
N1509 H1513 0.995 . S
H1510 N1505 0.984 . S
H1511 N1505 0.985 . S
H1512 N1509 0.991 . S
H1513 N1509 0.995 . S
H1514 N1508 0.984 . S
H1515 N1508 0.984 . S
H1516 N1504 0.984 . S
H1517 N1504 0.985 . S
C1518 C1519 1.363 . S
C1518 C1524 1.379 . S
C1518 N1526 1.356 . S
C1519 C1518 1.363 . S
C1519 C1525 1.363 . S
C1520 C1521 1.363 . S
C1520 C1525 1.379 . S
C1520 N1527 1.356 . S
C1521 C1520 1.363 . S
C1521 C1524 1.363 . S
N1522 C1524 1.356 . S
N1522 H1534 0.984 . S
N1522 H1535 0.985 . S
N1523 C1525 1.356 . S
N1523 H1528 0.984 . S
N1523 H1529 0.985 . S
C1524 C1518 1.379 . S
C1524 C1521 1.363 . S
C1524 N1522 1.356 . S
C1525 C1519 1.363 . S
C1525 C1520 1.379 . S
C1525 N1523 1.356 . S
N1526 C1518 1.356 . S
N1526 H1532 0.984 . S
N1526 H1533 0.984 . S
N1527 C1520 1.356 . S
N1527 H1530 0.984 . S
N1527 H1531 0.985 . S
H1528 N1523 0.984 . S
H1529 N1523 0.985 . S
H1530 N1527 0.984 . S
H1531 N1527 0.985 . S
H1532 N1526 0.984 . S
H1533 N1526 0.984 . S
H1534 N1522 0.984 . S
H1535 N1522 0.985 . S
C1536 C1537 1.363 . S
C1536 C1542 1.379 . S
C1536 N1544 1.356 . S
C1537 C1536 1.363 . S
C1537 C1543 1.363 . S
C1538 C1539 1.363 . S
C1538 C1543 1.379 . S
C1538 N1545 1.356 . S
C1539 C1538 1.363 . S
C1539 C1542 1.363 . S
N1540 C1542 1.356 . S
N1540 H1552 0.984 . S
N1540 H1553 0.985 . S
N1541 C1543 1.356 . S
N1541 H1546 0.984 . S
N1541 H1547 0.985 . S
C1542 C1536 1.379 . S
C1542 C1539 1.363 . S
C1542 N1540 1.356 . S
C1543 C1537 1.363 . S
C1543 C1538 1.379 . S
C1543 N1541 1.356 . S
N1544 C1536 1.356 . S
N1544 H1550 0.984 . S
N1544 H1551 0.984 . S
N1545 C1538 1.356 . S
N1545 H1548 0.984 . S
N1545 H1549 0.985 . S
H1546 N1541 0.984 . S
H1547 N1541 0.985 . S
H1548 N1545 0.984 . S
H1549 N1545 0.985 . S
H1550 N1544 0.984 . S
H1551 N1544 0.984 . S
H1552 N1540 0.984 . S
H1553 N1540 0.985 . S
C1554 C1555 1.363 . S
C1554 C1560 1.379 . S
C1554 N1562 1.356 . S
C1555 C1554 1.363 . S
C1555 C1561 1.363 . S
C1556 C1557 1.363 . S
C1556 C1561 1.379 . S
C1556 N1563 1.356 . S
C1557 C1556 1.363 . S
C1557 C1560 1.363 . S
N1558 C1560 1.356 . S
N1558 H1570 0.984 . S
N1558 H1571 0.985 . S
N1559 C1561 1.356 . S
N1559 H1564 0.984 . S
N1559 H1565 0.985 . S
C1560 C1554 1.379 . S
C1560 C1557 1.363 . S
C1560 N1558 1.356 . S
C1561 C1555 1.363 . S
C1561 C1556 1.379 . S
C1561 N1559 1.356 . S
N1562 C1554 1.356 . S
N1562 H1568 0.984 . S
N1562 H1569 0.984 . S
N1563 C1556 1.356 . S
N1563 H1566 0.984 . S
N1563 H1567 0.985 . S
H1564 N1559 0.984 . S
H1565 N1559 0.985 . S
H1566 N1563 0.984 . S
H1567 N1563 0.985 . S
H1568 N1562 0.984 . S
H1569 N1562 0.984 . S
H1570 N1558 0.984 . S
H1571 N1558 0.985 . S
C1572 C1573 1.363 . S
C1572 C1578 1.379 . S
C1572 N1580 1.356 . S
C1573 C1572 1.363 . S
C1573 C1579 1.363 . S
C1574 C1575 1.363 . S
C1574 C1579 1.379 . S
C1574 N1581 1.356 . S
C1575 C1574 1.363 . S
C1575 C1578 1.363 . S
N1576 C1578 1.356 . S
N1576 H1588 0.984 . S
N1576 H1589 0.985 . S
N1577 C1579 1.356 . S
N1577 H1582 0.984 . S
N1577 H1583 0.985 . S
C1578 C1572 1.379 . S
C1578 C1575 1.363 . S
C1578 N1576 1.356 . S
C1579 C1573 1.363 . S
C1579 C1574 1.379 . S
C1579 N1577 1.356 . S
N1580 C1572 1.356 . S
N1580 H1586 0.984 . S
N1580 H1587 0.984 . S
N1581 C1574 1.356 . S
N1581 H1584 0.984 . S
N1581 H1585 0.985 . S
H1582 N1577 0.984 . S
H1583 N1577 0.985 . S
H1584 N1581 0.984 . S
H1585 N1581 0.985 . S
H1586 N1580 0.984 . S
H1587 N1580 0.984 . S
H1588 N1576 0.984 . S
H1589 N1576 0.985 . S
C1590 C1591 1.363 . S
C1590 C1596 1.379 . S
C1590 N1598 1.356 . S
C1591 C1590 1.363 . S
C1591 C1597 1.363 . S
C1592 C1593 1.363 . S
C1592 C1597 1.379 . S
C1592 N1599 1.376 . S
C1593 C1592 1.363 . S
C1593 C1596 1.363 . S
N1594 C1596 1.356 . S
N1594 H1606 0.984 . S
N1594 H1607 0.985 . S
N1595 C1597 1.356 . S
N1595 H1600 0.984 . S
N1595 H1601 0.985 . S
C1596 C1590 1.379 . S
C1596 C1593 1.363 . S
C1596 N1594 1.356 . S
C1597 C1591 1.363 . S
C1597 C1592 1.379 . S
C1597 N1595 1.356 . S
N1598 C1590 1.356 . S
N1598 H1604 0.984 . S
N1598 H1605 0.984 . S
N1599 C1592 1.376 . S
N1599 H1602 0.977 1_455 S
N1599 H1603 0.973 1_455 S
H1600 N1595 0.984 . S
H1601 N1595 0.985 . S
H1602 N1599 0.977 1_655 S
H1603 N1599 0.973 1_655 S
H1604 N1598 0.984 . S
H1605 N1598 0.984 . S
H1606 N1594 0.984 . S
H1607 N1594 0.985 . S
C1608 C1609 1.363 . S
C1608 C1614 1.379 . S
C1608 N1616 1.356 . S
C1609 C1608 1.363 . S
C1609 C1615 1.363 . S
C1610 C1611 1.363 . S
C1610 C1615 1.379 . S
C1610 N1617 1.356 . S
C1611 C1610 1.363 . S
C1611 C1614 1.363 . S
N1612 C1614 1.356 . S
N1612 H1624 0.984 . S
N1612 H1625 0.985 . S
N1613 C1615 1.356 . S
N1613 H1618 0.984 . S
N1613 H1619 0.985 . S
C1614 C1608 1.379 . S
C1614 C1611 1.363 . S
C1614 N1612 1.356 . S
C1615 C1609 1.363 . S
C1615 C1610 1.379 . S
C1615 N1613 1.356 . S
N1616 C1608 1.356 . S
N1616 H1622 0.984 . S
N1616 H1623 0.984 . S
N1617 C1610 1.356 . S
N1617 H1620 0.984 . S
N1617 H1621 0.985 . S
H1618 N1613 0.984 . S
H1619 N1613 0.985 . S
H1620 N1617 0.984 . S
H1621 N1617 0.985 . S
H1622 N1616 0.984 . S
H1623 N1616 0.984 . S
H1624 N1612 0.984 . S
H1625 N1612 0.985 . S
C1626 C1627 1.363 . S
C1626 C1632 1.379 . S
C1626 N1634 1.356 . S
C1627 C1626 1.363 . S
C1627 C1633 1.363 . S
C1628 C1629 1.363 . S
C1628 C1633 1.379 . S
C1628 N1635 1.356 . S
C1629 C1628 1.363 . S
C1629 C1632 1.363 . S
N1630 C1632 1.356 . S
N1630 H1642 0.984 . S
N1630 H1643 0.985 . S
N1631 C1633 1.356 . S
N1631 H1636 0.984 . S
N1631 H1637 0.985 . S
C1632 C1626 1.379 . S
C1632 C1629 1.363 . S
C1632 N1630 1.356 . S
C1633 C1627 1.363 . S
C1633 C1628 1.379 . S
C1633 N1631 1.356 . S
N1634 C1626 1.356 . S
N1634 H1640 0.984 . S
N1634 H1641 0.984 . S
N1635 C1628 1.356 . S
N1635 H1638 0.984 . S
N1635 H1639 0.985 . S
H1636 N1631 0.984 . S
H1637 N1631 0.985 . S
H1638 N1635 0.984 . S
H1639 N1635 0.985 . S
H1640 N1634 0.984 . S
H1641 N1634 0.984 . S
H1642 N1630 0.984 . S
H1643 N1630 0.985 . S
C1644 C1645 1.363 . S
C1644 C1650 1.379 . S
C1644 N1652 1.356 . S
C1645 C1644 1.363 . S
C1645 C1651 1.363 . S
C1646 C1647 1.363 . S
C1646 C1651 1.379 . S
C1646 N1653 1.356 . S
C1647 C1646 1.363 . S
C1647 C1650 1.363 . S
N1648 C1650 1.356 . S
N1648 H1660 0.984 . S
N1648 H1661 0.985 . S
N1649 C1651 1.356 . S
N1649 H1654 0.984 . S
N1649 H1655 0.985 . S
C1650 C1644 1.379 . S
C1650 C1647 1.363 . S
C1650 N1648 1.356 . S
C1651 C1645 1.363 . S
C1651 C1646 1.379 . S
C1651 N1649 1.356 . S
N1652 C1644 1.356 . S
N1652 H1658 0.984 . S
N1652 H1659 0.984 . S
N1653 C1646 1.356 . S
N1653 H1656 0.984 . S
N1653 H1657 0.985 . S
H1654 N1649 0.984 . S
H1655 N1649 0.985 . S
H1656 N1653 0.984 . S
H1657 N1653 0.985 . S
H1658 N1652 0.984 . S
H1659 N1652 0.984 . S
H1660 N1648 0.984 . S
H1661 N1648 0.985 . S
C1662 C1663 1.363 . S
C1662 C1668 1.379 . S
C1662 N1670 1.356 . S
C1663 C1662 1.363 . S
C1663 C1669 1.363 . S
C1664 C1665 1.363 . S
C1664 C1669 1.379 . S
C1664 N1671 1.356 . S
C1665 C1664 1.363 . S
C1665 C1668 1.363 . S
N1666 C1668 1.356 . S
N1666 H1678 0.984 1_545 S
N1666 H1679 0.985 1_545 S
N1667 C1669 1.356 . S
N1667 H1672 0.984 . S
N1667 H1673 0.985 . S
C1668 C1662 1.379 . S
C1668 C1665 1.363 . S
C1668 N1666 1.356 . S
C1669 C1663 1.363 . S
C1669 C1664 1.379 . S
C1669 N1667 1.356 . S
N1670 C1662 1.356 . S
N1670 H1676 0.984 . S
N1670 H1677 0.984 . S
N1671 C1664 1.356 . S
N1671 H1674 0.984 . S
N1671 H1675 0.985 . S
H1672 N1667 0.984 . S
H1673 N1667 0.985 . S
H1674 N1671 0.984 . S
H1675 N1671 0.985 . S
H1676 N1670 0.984 . S
H1677 N1670 0.984 . S
H1678 N1666 0.984 1_565 S
H1679 N1666 0.985 1_565 S
C1680 C1681 1.363 . S
C1680 C1686 1.379 . S
C1680 N1688 1.356 . S
C1681 C1680 1.363 . S
C1681 C1687 1.363 . S
C1682 C1683 1.363 . S
C1682 C1687 1.379 . S
C1682 N1689 1.356 . S
C1683 C1682 1.363 . S
C1683 C1686 1.363 . S
N1684 C1686 1.356 . S
N1684 H1696 0.984 . S
N1684 H1697 0.985 . S
N1685 C1687 1.356 . S
N1685 H1690 0.984 . S
N1685 H1691 0.985 . S
C1686 C1680 1.379 . S
C1686 C1683 1.363 . S
C1686 N1684 1.356 . S
C1687 C1681 1.363 . S
C1687 C1682 1.379 . S
C1687 N1685 1.356 . S
N1688 C1680 1.356 . S
N1688 H1694 0.984 . S
N1688 H1695 0.984 . S
N1689 C1682 1.356 . S
N1689 H1692 0.984 . S
N1689 H1693 0.985 . S
H1690 N1685 0.984 . S
H1691 N1685 0.985 . S
H1692 N1689 0.984 . S
H1693 N1689 0.985 . S
H1694 N1688 0.984 . S
H1695 N1688 0.984 . S
H1696 N1684 0.984 . S
H1697 N1684 0.985 . S
C1698 C1699 1.363 . S
C1698 C1704 1.379 . S
C1698 N1706 1.356 . S
C1699 C1698 1.363 . S
C1699 C1705 1.363 . S
C1700 C1701 1.363 . S
C1700 C1705 1.379 . S
C1700 N1707 1.356 . S
C1701 C1700 1.363 . S
C1701 C1704 1.363 . S
N1702 C1704 1.356 . S
N1702 H1714 0.984 . S
N1702 H1715 0.985 . S
N1703 C1705 1.356 . S
N1703 H1708 0.984 . S
N1703 H1709 0.985 . S
C1704 C1698 1.379 . S
C1704 C1701 1.363 . S
C1704 N1702 1.356 . S
C1705 C1699 1.363 . S
C1705 C1700 1.379 . S
C1705 N1703 1.356 . S
N1706 C1698 1.356 . S
N1706 H1712 0.984 . S
N1706 H1713 0.984 . S
N1707 C1700 1.356 . S
N1707 H1710 0.984 . S
N1707 H1711 0.985 . S
H1708 N1703 0.984 . S
H1709 N1703 0.985 . S
H1710 N1707 0.984 . S
H1711 N1707 0.985 . S
H1712 N1706 0.984 . S
H1713 N1706 0.984 . S
H1714 N1702 0.984 . S
H1715 N1702 0.985 . S
C1716 C1717 1.363 . S
C1716 C1722 1.379 . S
C1716 N1724 1.356 . S
C1717 C1716 1.363 . S
C1717 C1723 1.363 . S
C1718 C1719 1.363 . S
C1718 C1723 1.379 . S
C1718 N1725 1.356 . S
C1719 C1718 1.363 . S
C1719 C1722 1.363 . S
N1720 C1722 1.356 . S
N1720 H1732 0.984 . S
N1720 H1733 0.985 . S
N1721 C1723 1.356 . S
N1721 H1726 0.984 . S
N1721 H1727 0.985 . S
C1722 C1716 1.379 . S
C1722 C1719 1.363 . S
C1722 N1720 1.356 . S
C1723 C1717 1.363 . S
C1723 C1718 1.379 . S
C1723 N1721 1.356 . S
N1724 C1716 1.356 . S
N1724 H1730 0.984 . S
N1724 H1731 0.984 . S
N1725 C1718 1.356 . S
N1725 H1728 0.984 . S
N1725 H1729 0.985 . S
H1726 N1721 0.984 . S
H1727 N1721 0.985 . S
H1728 N1725 0.984 . S
H1729 N1725 0.985 . S
H1730 N1724 0.984 . S
H1731 N1724 0.984 . S
H1732 N1720 0.984 . S
H1733 N1720 0.985 . S
C1734 C1735 1.363 . S
C1734 C1740 1.379 . S
C1734 N1742 1.356 . S
C1735 C1734 1.363 . S
C1735 C1741 1.363 . S
C1736 C1737 1.363 . S
C1736 C1741 1.379 . S
C1736 N1743 1.356 . S
C1737 C1736 1.363 . S
C1737 C1740 1.363 . S
N1738 C1740 1.356 . S
N1738 H1750 0.984 . S
N1738 H1751 0.985 . S
N1739 C1741 1.356 . S
N1739 H1744 0.984 . S
N1739 H1745 0.985 . S
C1740 C1734 1.379 . S
C1740 C1737 1.363 . S
C1740 N1738 1.356 . S
C1741 C1735 1.363 . S
C1741 C1736 1.379 . S
C1741 N1739 1.356 . S
N1742 C1734 1.356 . S
N1742 H1748 0.984 . S
N1742 H1749 0.984 . S
N1743 C1736 1.356 . S
N1743 H1746 0.984 . S
N1743 H1747 0.985 . S
H1744 N1739 0.984 . S
H1745 N1739 0.985 . S
H1746 N1743 0.984 . S
H1747 N1743 0.985 . S
H1748 N1742 0.984 . S
H1749 N1742 0.984 . S
H1750 N1738 0.984 . S
H1751 N1738 0.985 . S
C1752 C1753 1.363 . S
C1752 C1758 1.379 . S
C1752 N1760 1.356 . S
C1753 C1752 1.363 . S
C1753 C1759 1.363 . S
C1754 C1755 1.363 . S
C1754 C1759 1.379 . S
C1754 N1761 1.356 . S
C1755 C1754 1.363 . S
C1755 C1758 1.363 . S
N1756 C1758 1.356 . S
N1756 H1768 0.984 . S
N1756 H1769 0.985 . S
N1757 C1759 1.356 . S
N1757 H1762 0.984 . S
N1757 H1763 0.985 . S
C1758 C1752 1.379 . S
C1758 C1755 1.363 . S
C1758 N1756 1.356 . S
C1759 C1753 1.363 . S
C1759 C1754 1.379 . S
C1759 N1757 1.356 . S
N1760 C1752 1.356 . S
N1760 H1766 0.984 . S
N1760 H1767 0.984 . S
N1761 C1754 1.356 . S
N1761 H1764 0.984 . S
N1761 H1765 0.985 . S
H1762 N1757 0.984 . S
H1763 N1757 0.985 . S
H1764 N1761 0.984 . S
H1765 N1761 0.985 . S
H1766 N1760 0.984 . S
H1767 N1760 0.984 . S
H1768 N1756 0.984 . S
H1769 N1756 0.985 . S
C1770 C1771 1.363 . S
C1770 C1776 1.379 . S
C1770 N1778 1.356 . S
C1771 C1770 1.363 . S
C1771 C1777 1.363 . S
C1772 C1773 1.363 . S
C1772 C1777 1.379 . S
C1772 N1779 1.356 . S
C1773 C1772 1.363 . S
C1773 C1776 1.363 . S
N1774 C1776 1.356 . S
N1774 H1786 0.984 . S
N1774 H1787 0.985 . S
N1775 C1777 1.356 . S
N1775 H1780 0.984 . S
N1775 H1781 0.985 . S
C1776 C1770 1.379 . S
C1776 C1773 1.363 . S
C1776 N1774 1.356 . S
C1777 C1771 1.363 . S
C1777 C1772 1.379 . S
C1777 N1775 1.356 . S
N1778 C1770 1.356 . S
N1778 H1784 0.984 . S
N1778 H1785 0.984 . S
N1779 C1772 1.356 . S
N1779 H1782 0.984 . S
N1779 H1783 0.985 . S
H1780 N1775 0.984 . S
H1781 N1775 0.985 . S
H1782 N1779 0.984 . S
H1783 N1779 0.985 . S
H1784 N1778 0.984 . S
H1785 N1778 0.984 . S
H1786 N1774 0.984 . S
H1787 N1774 0.985 . S
C1788 C1789 1.363 . S
C1788 C1794 1.379 . S
C1788 N1796 1.356 . S
C1789 C1788 1.363 . S
C1789 C1795 1.363 . S
C1790 C1791 1.363 . S
C1790 C1795 1.379 . S
C1790 N1797 1.356 . S
C1791 C1790 1.363 . S
C1791 C1794 1.363 . S
N1792 C1794 1.356 . S
N1792 H1804 0.984 . S
N1792 H1805 0.985 . S
N1793 C1795 1.356 . S
N1793 H1798 0.984 . S
N1793 H1799 0.985 . S
C1794 C1788 1.379 . S
C1794 C1791 1.363 . S
C1794 N1792 1.356 . S
C1795 C1789 1.363 . S
C1795 C1790 1.379 . S
C1795 N1793 1.356 . S
N1796 C1788 1.356 . S
N1796 H1802 0.984 . S
N1796 H1803 0.984 . S
N1797 C1790 1.356 . S
N1797 H1800 0.984 . S
N1797 H1801 0.985 . S
H1798 N1793 0.984 . S
H1799 N1793 0.985 . S
H1800 N1797 0.984 . S
H1801 N1797 0.985 . S
H1802 N1796 0.984 . S
H1803 N1796 0.984 . S
H1804 N1792 0.984 . S
H1805 N1792 0.985 . S
C1806 C1807 1.363 . S
C1806 C1812 1.379 . S
C1806 N1814 1.356 . S
C1807 C1806 1.363 . S
C1807 C1813 1.363 . S
C1808 C1809 1.363 . S
C1808 C1813 1.379 . S
C1808 N1815 1.356 . S
C1809 C1808 1.363 . S
C1809 C1812 1.363 . S
N1810 C1812 1.356 . S
N1810 H1822 0.984 . S
N1810 H1823 0.985 . S
N1811 C1813 1.356 . S
N1811 H1816 0.984 . S
N1811 H1817 0.985 . S
C1812 C1806 1.379 . S
C1812 C1809 1.363 . S
C1812 N1810 1.356 . S
C1813 C1807 1.363 . S
C1813 C1808 1.379 . S
C1813 N1811 1.356 . S
N1814 C1806 1.356 . S
N1814 H1820 0.984 . S
N1814 H1821 0.984 . S
N1815 C1808 1.356 . S
N1815 H1818 0.984 . S
N1815 H1819 0.985 . S
H1816 N1811 0.984 . S
H1817 N1811 0.985 . S
H1818 N1815 0.984 . S
H1819 N1815 0.985 . S
H1820 N1814 0.984 . S
H1821 N1814 0.984 . S
H1822 N1810 0.984 . S
H1823 N1810 0.985 . S
C1824 C1825 1.363 . S
C1824 C1830 1.379 . S
C1824 N1832 1.356 . S
C1825 C1824 1.363 . S
C1825 C1831 1.363 . S
C1826 C1827 1.363 . S
C1826 C1831 1.379 . S
C1826 N1833 1.356 . S
C1827 C1826 1.363 . S
C1827 C1830 1.363 . S
N1828 C1830 1.356 . S
N1828 H1840 0.984 . S
N1828 H1841 0.985 . S
N1829 C1831 1.356 1_455 S
N1829 H1834 0.984 . S
N1829 H1835 0.985 . S
C1830 C1824 1.379 . S
C1830 C1827 1.363 . S
C1830 N1828 1.356 . S
C1831 C1825 1.363 . S
C1831 C1826 1.379 . S
C1831 N1829 1.356 1_655 S
N1832 C1824 1.356 . S
N1832 H1838 0.984 . S
N1832 H1839 0.984 . S
N1833 C1826 1.356 . S
N1833 H1836 0.984 . S
N1833 H1837 0.985 . S
H1834 N1829 0.984 . S
H1835 N1829 0.985 . S
H1836 N1833 0.984 . S
H1837 N1833 0.985 . S
H1838 N1832 0.984 . S
H1839 N1832 0.984 . S
H1840 N1828 0.984 . S
H1841 N1828 0.985 . S
C1842 C1843 1.363 . S
C1842 C1848 1.379 . S
C1842 N1850 1.356 . S
C1843 C1842 1.363 . S
C1843 C1849 1.363 . S
C1844 C1845 1.363 . S
C1844 C1849 1.379 . S
C1844 N1851 1.356 . S
C1845 C1844 1.363 . S
C1845 C1848 1.363 . S
N1846 C1848 1.356 . S
N1846 H1858 0.984 . S
N1846 H1859 0.985 . S
N1847 C1849 1.356 1_556 S
N1847 H1852 0.984 . S
N1847 H1853 0.985 . S
C1848 C1842 1.379 . S
C1848 C1845 1.363 . S
C1848 N1846 1.356 . S
C1849 C1843 1.363 . S
C1849 C1844 1.379 . S
C1849 N1847 1.356 1_554 S
N1850 C1842 1.356 . S
N1850 H1856 0.984 . S
N1850 H1857 0.984 . S
N1851 C1844 1.356 . S
N1851 H1854 0.984 . S
N1851 H1855 0.985 . S
H1852 N1847 0.984 . S
H1853 N1847 0.985 . S
H1854 N1851 0.984 . S
H1855 N1851 0.985 . S
H1856 N1850 0.984 . S
H1857 N1850 0.984 . S
H1858 N1846 0.984 . S
H1859 N1846 0.985 . S
C1860 C1861 1.363 . S
C1860 C1866 1.379 . S
C1860 N1868 1.356 . S
C1861 C1860 1.363 . S
C1861 C1867 1.363 . S
C1862 C1863 1.363 . S
C1862 C1867 1.379 . S
C1862 N1869 1.356 . S
C1863 C1862 1.363 . S
C1863 C1866 1.363 . S
N1864 C1866 1.356 . S
N1864 H1876 0.984 . S
N1864 H1877 0.985 . S
N1865 C1867 1.356 . S
N1865 H1870 0.984 . S
N1865 H1871 0.985 . S
C1866 C1860 1.379 . S
C1866 C1863 1.363 . S
C1866 N1864 1.356 . S
C1867 C1861 1.363 . S
C1867 C1862 1.379 . S
C1867 N1865 1.356 . S
N1868 C1860 1.356 . S
N1868 H1874 0.984 . S
N1868 H1875 0.984 . S
N1869 C1862 1.356 . S
N1869 H1872 0.984 . S
N1869 H1873 0.985 . S
H1870 N1865 0.984 . S
H1871 N1865 0.985 . S
H1872 N1869 0.984 . S
H1873 N1869 0.985 . S
H1874 N1868 0.984 . S
H1875 N1868 0.984 . S
H1876 N1864 0.984 . S
H1877 N1864 0.985 . S
C1878 C1879 1.363 . S
C1878 C1884 1.379 . S
C1878 N1886 1.356 . S
C1879 C1878 1.363 . S
C1879 C1885 1.363 . S
C1880 C1881 1.363 . S
C1880 C1885 1.379 . S
C1880 N1887 1.356 . S
C1881 C1880 1.363 . S
C1881 C1884 1.363 . S
N1882 C1884 1.356 1_545 S
N1882 H1894 0.984 . S
N1882 H1895 0.985 . S
N1883 C1885 1.356 . S
N1883 H1888 0.984 . S
N1883 H1889 0.985 . S
C1884 C1878 1.379 . S
C1884 C1881 1.363 . S
C1884 N1882 1.356 1_565 S
C1885 C1879 1.363 . S
C1885 C1880 1.379 . S
C1885 N1883 1.356 . S
N1886 C1878 1.356 . S
N1886 H1892 0.984 . S
N1886 H1893 0.984 . S
N1887 C1880 1.356 . S
N1887 H1890 0.984 . S
N1887 H1891 0.985 . S
H1888 N1883 0.984 . S
H1889 N1883 0.985 . S
H1890 N1887 0.984 . S
H1891 N1887 0.985 . S
H1892 N1886 0.984 . S
H1893 N1886 0.984 . S
H1894 N1882 0.984 . S
H1895 N1882 0.985 . S
C1896 C1897 1.363 . S
C1896 C1902 1.379 . S
C1896 N1904 1.356 . S
C1897 C1896 1.363 . S
C1897 C1903 1.363 . S
C1898 C1899 1.363 . S
C1898 C1903 1.379 . S
C1898 N1905 1.356 . S
C1899 C1898 1.363 . S
C1899 C1902 1.363 . S
N1900 C1902 1.356 . S
N1900 H1912 0.984 1_455 S
N1900 H1913 0.985 . S
N1901 C1903 1.356 . S
N1901 H1906 0.984 . S
N1901 H1907 0.985 . S
C1902 C1896 1.379 . S
C1902 C1899 1.363 . S
C1902 N1900 1.356 . S
C1903 C1897 1.363 . S
C1903 C1898 1.379 . S
C1903 N1901 1.356 . S
N1904 C1896 1.356 . S
N1904 H1910 0.984 . S
N1904 H1911 0.984 . S
N1905 C1898 1.356 . S
N1905 H1908 0.984 . S
N1905 H1909 0.985 . S
H1906 N1901 0.984 . S
H1907 N1901 0.985 . S
H1908 N1905 0.984 . S
H1909 N1905 0.985 . S
H1910 N1904 0.984 . S
H1911 N1904 0.984 . S
H1912 N1900 0.984 1_655 S
H1913 N1900 0.985 . S
C1914 C1915 1.363 . S
C1914 C1920 1.379 . S
C1914 N1922 1.356 . S
C1915 C1914 1.363 . S
C1915 C1921 1.363 . S
C1916 C1917 1.363 . S
C1916 C1921 1.379 . S
C1916 N1923 1.356 1_655 S
C1917 C1916 1.363 . S
C1917 C1920 1.363 . S
N1918 C1920 1.356 . S
N1918 H1930 0.984 . S
N1918 H1931 0.985 . S
N1919 C1921 1.356 . S
N1919 H1924 0.984 . S
N1919 H1925 0.985 . S
C1920 C1914 1.379 . S
C1920 C1917 1.363 . S
C1920 N1918 1.356 . S
C1921 C1915 1.363 . S
C1921 C1916 1.379 . S
C1921 N1919 1.356 . S
N1922 C1914 1.356 . S
N1922 H1928 0.984 . S
N1922 H1929 0.984 . S
N1923 C1916 1.356 1_455 S
N1923 H1926 0.984 . S
N1923 H1927 0.985 . S
H1924 N1919 0.984 . S
H1925 N1919 0.985 . S
H1926 N1923 0.984 . S
H1927 N1923 0.985 . S
H1928 N1922 0.984 . S
H1929 N1922 0.984 . S
H1930 N1918 0.984 . S
H1931 N1918 0.985 . S
C1932 C1933 1.363 . S
C1932 C1938 1.379 . S
C1932 N1940 1.356 . S
C1933 C1932 1.363 . S
C1933 C1939 1.363 . S
C1934 C1935 1.363 . S
C1934 C1939 1.379 . S
C1934 N1941 1.356 . S
C1935 C1934 1.363 . S
C1935 C1938 1.363 . S
N1936 C1938 1.356 . S
N1936 H1948 0.984 . S
N1936 H1949 0.985 . S
N1937 C1939 1.356 . S
N1937 H1942 0.984 . S
N1937 H1943 0.985 . S
C1938 C1932 1.379 . S
C1938 C1935 1.363 . S
C1938 N1936 1.356 . S
C1939 C1933 1.363 . S
C1939 C1934 1.379 . S
C1939 N1937 1.356 . S
N1940 C1932 1.356 . S
N1940 H1946 0.984 . S
N1940 H1947 0.984 . S
N1941 C1934 1.356 . S
N1941 H1944 0.984 . S
N1941 H1945 0.985 . S
H1942 N1937 0.984 . S
H1943 N1937 0.985 . S
H1944 N1941 0.984 . S
H1945 N1941 0.985 . S
H1946 N1940 0.984 . S
H1947 N1940 0.984 . S
H1948 N1936 0.984 . S
H1949 N1936 0.985 . S
C1950 C1951 1.363 . S
C1950 C1956 1.379 . S
C1950 N1958 1.356 1_556 S
C1951 C1950 1.363 . S
C1951 C1957 1.363 . S
C1952 C1953 1.363 . S
C1952 C1957 1.379 . S
C1952 N1959 1.356 . S
C1953 C1952 1.363 . S
C1953 C1956 1.363 . S
N1954 C1956 1.356 . S
N1954 H1966 0.984 . S
N1954 H1967 0.985 . S
N1955 C1957 1.356 . S
N1955 H1960 0.984 . S
N1955 H1961 0.985 . S
C1956 C1950 1.379 . S
C1956 C1953 1.363 . S
C1956 N1954 1.356 . S
C1957 C1951 1.363 . S
C1957 C1952 1.379 . S
C1957 N1955 1.356 . S
N1958 C1950 1.356 1_554 S
N1958 H1964 0.984 . S
N1958 H1965 0.984 . S
N1959 C1952 1.356 . S
N1959 H1962 0.984 . S
N1959 H1963 0.985 . S
H1960 N1955 0.984 . S
H1961 N1955 0.985 . S
H1962 N1959 0.984 . S
H1963 N1959 0.985 . S
H1964 N1958 0.984 . S
H1965 N1958 0.984 . S
H1966 N1954 0.984 . S
H1967 N1954 0.985 . S
C1968 C1969 1.363 . S
C1968 C1974 1.379 . S
C1968 N1976 1.356 . S
C1969 C1968 1.363 . S
C1969 C1975 1.363 . S
C1970 C1971 1.363 . S
C1970 C1975 1.379 . S
C1970 N1977 1.356 . S
C1971 C1970 1.363 . S
C1971 C1974 1.363 . S
N1972 C1974 1.356 . S
N1972 H1984 0.984 . S
N1972 H1985 0.985 . S
N1973 C1975 1.356 . S
N1973 H1978 0.984 . S
N1973 H1979 0.985 . S
C1974 C1968 1.379 . S
C1974 C1971 1.363 . S
C1974 N1972 1.356 . S
C1975 C1969 1.363 . S
C1975 C1970 1.379 . S
C1975 N1973 1.356 . S
N1976 C1968 1.356 . S
N1976 H1982 0.984 . S
N1976 H1983 0.984 . S
N1977 C1970 1.356 . S
N1977 H1980 0.984 . S
N1977 H1981 0.985 . S
H1978 N1973 0.984 . S
H1979 N1973 0.985 . S
H1980 N1977 0.984 . S
H1981 N1977 0.985 . S
H1982 N1976 0.984 . S
H1983 N1976 0.984 . S
H1984 N1972 0.984 . S
H1985 N1972 0.985 . S
C1986 C1987 1.363 . S
C1986 C1992 1.379 . S
C1986 N1994 1.356 . S
C1987 C1986 1.363 . S
C1987 C1993 1.363 . S
C1988 C1989 1.363 . S
C1988 C1993 1.379 . S
C1988 N1995 1.356 . S
C1989 C1988 1.363 . S
C1989 C1992 1.363 . S
N1990 C1992 1.356 . S
N1990 H2002 0.984 . S
N1990 H2003 0.985 . S
N1991 C1993 1.356 . S
N1991 H1996 0.984 . S
N1991 H1997 0.985 . S
C1992 C1986 1.379 . S
C1992 C1989 1.363 . S
C1992 N1990 1.356 . S
C1993 C1987 1.363 . S
C1993 C1988 1.379 . S
C1993 N1991 1.356 . S
N1994 C1986 1.356 . S
N1994 H2000 0.984 . S
N1994 H2001 0.984 . S
N1995 C1988 1.356 . S
N1995 H1998 0.984 . S
N1995 H1999 0.985 . S
H1996 N1991 0.984 . S
H1997 N1991 0.985 . S
H1998 N1995 0.984 . S
H1999 N1995 0.985 . S
H2000 N1994 0.984 . S
H2001 N1994 0.984 . S
H2002 N1990 0.984 . S
H2003 N1990 0.985 . S
C2004 C2005 1.363 . S
C2004 C2010 1.379 . S
C2004 N2012 1.356 . S
C2005 C2004 1.363 . S
C2005 C2011 1.363 . S
C2006 C2007 1.363 . S
C2006 C2011 1.379 . S
C2006 N2013 1.356 . S
C2007 C2006 1.363 . S
C2007 C2010 1.363 . S
N2008 C2010 1.356 . S
N2008 H2020 0.984 . S
N2008 H2021 0.985 . S
N2009 C2011 1.356 . S
N2009 H2014 0.984 . S
N2009 H2015 0.985 . S
C2010 C2004 1.379 . S
C2010 C2007 1.363 . S
C2010 N2008 1.356 . S
C2011 C2005 1.363 . S
C2011 C2006 1.379 . S
C2011 N2009 1.356 . S
N2012 C2004 1.356 . S
N2012 H2018 0.984 . S
N2012 H2019 0.984 . S
N2013 C2006 1.356 . S
N2013 H2016 0.984 . S
N2013 H2017 0.985 . S
H2014 N2009 0.984 . S
H2015 N2009 0.985 . S
H2016 N2013 0.984 . S
H2017 N2013 0.985 . S
H2018 N2012 0.984 . S
H2019 N2012 0.984 . S
H2020 N2008 0.984 . S
H2021 N2008 0.985 . S
C2022 C2023 1.363 . S
C2022 C2028 1.379 . S
C2022 N2030 1.356 1_554 S
C2023 C2022 1.363 . S
C2023 C2029 1.363 . S
C2024 C2025 1.363 . S
C2024 C2029 1.379 . S
C2024 N2031 1.356 . S
C2025 C2024 1.363 . S
C2025 C2028 1.363 . S
N2026 C2028 1.356 . S
N2026 H2038 0.984 . S
N2026 H2039 0.985 . S
N2027 C2029 1.356 1_455 S
N2027 H2032 0.984 . S
N2027 H2033 0.985 . S
C2028 C2022 1.379 . S
C2028 C2025 1.363 . S
C2028 N2026 1.356 . S
C2029 C2023 1.363 . S
C2029 C2024 1.379 . S
C2029 N2027 1.356 1_655 S
N2030 C2022 1.356 1_556 S
N2030 H2036 0.984 . S
N2030 H2037 0.984 . S
N2031 C2024 1.356 . S
N2031 H2034 0.984 . S
N2031 H2035 0.985 . S
H2032 N2027 0.984 . S
H2033 N2027 0.985 . S
H2034 N2031 0.984 . S
H2035 N2031 0.985 . S
H2036 N2030 0.984 . S
H2037 N2030 0.984 . S
H2038 N2026 0.984 . S
H2039 N2026 0.985 . S
C2040 C2041 1.363 . S
C2040 C2046 1.379 . S
C2040 N2048 1.356 . S
C2041 C2040 1.363 . S
C2041 C2047 1.363 . S
C2042 C2043 1.363 . S
C2042 C2047 1.379 . S
C2042 N2049 1.356 . S
C2043 C2042 1.363 . S
C2043 C2046 1.363 . S
N2044 C2046 1.356 . S
N2044 H2056 0.984 . S
N2044 H2057 0.985 . S
N2045 C2047 1.356 . S
N2045 H2050 0.984 . S
N2045 H2051 0.985 . S
C2046 C2040 1.379 . S
C2046 C2043 1.363 . S
C2046 N2044 1.356 . S
C2047 C2041 1.363 . S
C2047 C2042 1.379 . S
C2047 N2045 1.356 . S
N2048 C2040 1.356 . S
N2048 H2054 0.984 . S
N2048 H2055 0.984 . S
N2049 C2042 1.356 . S
N2049 H2052 0.984 . S
N2049 H2053 0.985 . S
H2050 N2045 0.984 . S
H2051 N2045 0.985 . S
H2052 N2049 0.984 . S
H2053 N2049 0.985 . S
H2054 N2048 0.984 . S
H2055 N2048 0.984 . S
H2056 N2044 0.984 . S
H2057 N2044 0.985 . S
C2058 C2059 1.363 . S
C2058 C2064 1.379 . S
C2058 N2066 1.356 . S
C2059 C2058 1.363 . S
C2059 C2065 1.363 . S
C2060 C2061 1.363 . S
C2060 C2065 1.379 . S
C2060 N2067 1.356 . S
C2061 C2060 1.363 . S
C2061 C2064 1.363 . S
N2062 C2064 1.356 . S
N2062 H2074 0.984 . S
N2062 H2075 0.985 . S
N2063 C2065 1.356 1_545 S
N2063 H2068 0.984 . S
N2063 H2069 0.985 . S
C2064 C2058 1.379 . S
C2064 C2061 1.363 . S
C2064 N2062 1.356 . S
C2065 C2059 1.363 . S
C2065 C2060 1.379 . S
C2065 N2063 1.356 1_565 S
N2066 C2058 1.356 . S
N2066 H2072 0.984 . S
N2066 H2073 0.984 . S
N2067 C2060 1.356 . S
N2067 H2070 0.984 . S
N2067 H2071 0.985 . S
H2068 N2063 0.984 . S
H2069 N2063 0.985 . S
H2070 N2067 0.984 . S
H2071 N2067 0.985 . S
H2072 N2066 0.984 . S
H2073 N2066 0.984 . S
H2074 N2062 0.984 . S
H2075 N2062 0.985 . S
C2076 C2077 1.363 . S
C2076 C2082 1.379 . S
C2076 N2084 1.356 . S
C2077 C2076 1.363 . S
C2077 C2083 1.363 . S
C2078 C2079 1.363 . S
C2078 C2083 1.379 . S
C2078 N2085 1.356 . S
C2079 C2078 1.363 . S
C2079 C2082 1.363 . S
N2080 C2082 1.356 . S
N2080 H2092 0.984 . S
N2080 H2093 0.985 . S
N2081 C2083 1.356 . S
N2081 H2086 0.984 . S
N2081 H2087 0.985 . S
C2082 C2076 1.379 . S
C2082 C2079 1.363 . S
C2082 N2080 1.356 . S
C2083 C2077 1.363 . S
C2083 C2078 1.379 . S
C2083 N2081 1.356 . S
N2084 C2076 1.356 . S
N2084 H2090 0.984 . S
N2084 H2091 0.984 . S
N2085 C2078 1.356 . S
N2085 H2088 0.984 . S
N2085 H2089 0.985 . S
H2086 N2081 0.984 . S
H2087 N2081 0.985 . S
H2088 N2085 0.984 . S
H2089 N2085 0.985 . S
H2090 N2084 0.984 . S
H2091 N2084 0.984 . S
H2092 N2080 0.984 . S
H2093 N2080 0.985 . S
C2094 C2095 1.363 . S
C2094 C2100 1.379 . S
C2094 N2102 1.356 . S
C2095 C2094 1.363 . S
C2095 C2101 1.363 . S
C2096 C2097 1.363 . S
C2096 C2101 1.379 . S
C2096 N2103 1.356 1_554 S
C2097 C2096 1.363 . S
C2097 C2100 1.363 . S
N2098 C2100 1.356 1_565 S
N2098 H2110 0.984 . S
N2098 H2111 0.985 . S
N2099 C2101 1.356 . S
N2099 H2104 0.984 . S
N2099 H2105 0.985 . S
C2100 C2094 1.379 . S
C2100 C2097 1.363 . S
C2100 N2098 1.356 1_545 S
C2101 C2095 1.363 . S
C2101 C2096 1.379 . S
C2101 N2099 1.356 . S
N2102 C2094 1.356 . S
N2102 H2108 0.984 . S
N2102 H2109 0.984 . S
N2103 C2096 1.356 1_556 S
N2103 H2106 0.984 . S
N2103 H2107 0.985 . S
H2104 N2099 0.984 . S
H2105 N2099 0.985 . S
H2106 N2103 0.984 . S
H2107 N2103 0.985 . S
H2108 N2102 0.984 . S
H2109 N2102 0.984 . S
H2110 N2098 0.984 . S
H2111 N2098 0.985 . S
C2112 C2113 1.363 . S
C2112 C2118 1.379 . S
C2112 N2120 1.356 . S
C2113 C2112 1.363 . S
C2113 C2119 1.363 . S
C2114 C2115 1.363 . S
C2114 C2119 1.379 . S
C2114 N2121 1.356 . S
C2115 C2114 1.363 . S
C2115 C2118 1.363 . S
N2116 C2118 1.356 . S
N2116 H2128 0.984 . S
N2116 H2129 0.985 . S
N2117 C2119 1.356 . S
N2117 H2122 0.984 . S
N2117 H2123 0.985 . S
C2118 C2112 1.379 . S
C2118 C2115 1.363 . S
C2118 N2116 1.356 . S
C2119 C2113 1.363 . S
C2119 C2114 1.379 . S
C2119 N2117 1.356 . S
N2120 C2112 1.356 . S
N2120 H2126 0.984 . S
N2120 H2127 0.984 . S
N2121 C2114 1.356 . S
N2121 H2124 0.984 . S
N2121 H2125 0.985 . S
H2122 N2117 0.984 . S
H2123 N2117 0.985 . S
H2124 N2121 0.984 . S
H2125 N2121 0.985 . S
H2126 N2120 0.984 . S
H2127 N2120 0.984 . S
H2128 N2116 0.984 . S
H2129 N2116 0.985 . S
C2130 C2131 1.363 . S
C2130 C2136 1.379 . S
C2130 N2138 1.356 . S
C2131 C2130 1.363 . S
C2131 C2137 1.363 . S
C2132 C2133 1.363 . S
C2132 C2137 1.379 . S
C2132 N2139 1.356 . S
C2133 C2132 1.363 . S
C2133 C2136 1.363 . S
N2134 C2136 1.356 . S
N2134 H2146 0.984 . S
N2134 H2147 0.985 . S
N2135 C2137 1.356 1_545 S
N2135 H2140 0.984 . S
N2135 H2141 0.985 . S
C2136 C2130 1.379 . S
C2136 C2133 1.363 . S
C2136 N2134 1.356 . S
C2137 C2131 1.363 . S
C2137 C2132 1.379 . S
C2137 N2135 1.356 1_565 S
N2138 C2130 1.356 . S
N2138 H2144 0.984 . S
N2138 H2145 0.984 . S
N2139 C2132 1.356 . S
N2139 H2142 0.984 . S
N2139 H2143 0.985 . S
H2140 N2135 0.984 . S
H2141 N2135 0.985 . S
H2142 N2139 0.984 . S
H2143 N2139 0.985 . S
H2144 N2138 0.984 . S
H2145 N2138 0.984 . S
H2146 N2134 0.984 . S
H2147 N2134 0.985 . S
C2148 C2149 1.363 . S
C2148 C2154 1.379 . S
C2148 N2156 1.356 . S
C2149 C2148 1.363 . S
C2149 C2155 1.363 . S
C2150 C2151 1.363 . S
C2150 C2155 1.379 . S
C2150 N2157 1.356 . S
C2151 C2150 1.363 . S
C2151 C2154 1.363 . S
N2152 C2154 1.356 . S
N2152 H2164 0.984 . S
N2152 H2165 0.985 . S
N2153 C2155 1.356 . S
N2153 H2158 0.984 . S
N2153 H2159 0.985 . S
C2154 C2148 1.379 . S
C2154 C2151 1.363 . S
C2154 N2152 1.356 . S
C2155 C2149 1.363 . S
C2155 C2150 1.379 . S
C2155 N2153 1.356 . S
N2156 C2148 1.356 . S
N2156 H2162 0.984 . S
N2156 H2163 0.984 . S
N2157 C2150 1.356 . S
N2157 H2160 0.984 . S
N2157 H2161 0.985 . S
H2158 N2153 0.984 . S
H2159 N2153 0.985 . S
H2160 N2157 0.984 . S
H2161 N2157 0.985 . S
H2162 N2156 0.984 . S
H2163 N2156 0.984 . S
H2164 N2152 0.984 . S
H2165 N2152 0.985 . S
C2166 C2167 1.363 . S
C2166 C2172 1.379 . S
C2166 N2174 1.356 . S
C2167 C2166 1.363 . S
C2167 C2173 1.363 . S
C2168 C2169 1.363 . S
C2168 C2173 1.379 . S
C2168 N2175 1.356 1_556 S
C2169 C2168 1.363 . S
C2169 C2172 1.363 . S
N2170 C2172 1.356 . S
N2170 H2182 0.984 . S
N2170 H2183 0.971 1_556 S
N2171 C2173 1.356 . S
N2171 H2176 0.984 . S
N2171 H2177 0.985 . S
C2172 C2166 1.379 . S
C2172 C2169 1.363 . S
C2172 N2170 1.356 . S
C2173 C2167 1.363 . S
C2173 C2168 1.379 . S
C2173 N2171 1.356 . S
N2174 C2166 1.356 . S
N2174 H2180 0.984 . S
N2174 H2181 0.984 . S
N2175 C2168 1.356 1_554 S
N2175 H2178 0.984 . S
N2175 H2179 0.985 . S
H2176 N2171 0.984 . S
H2177 N2171 0.985 . S
H2178 N2175 0.984 . S
H2179 N2175 0.985 . S
H2180 N2174 0.984 . S
H2181 N2174 0.984 . S
H2182 N2170 0.984 . S
H2183 N2170 0.971 1_554 S
C2184 C2185 1.363 . S
C2184 C2190 1.379 . S
C2184 N2192 1.356 . S
C2185 C2184 1.363 . S
C2185 C2191 1.363 . S
C2186 C2187 1.363 . S
C2186 C2191 1.379 . S
C2186 N2193 1.356 . S
C2187 C2186 1.363 . S
C2187 C2190 1.363 . S
N2188 C2190 1.356 . S
N2188 H2200 0.984 . S
N2188 H2201 0.985 . S
N2189 C2191 1.356 . S
N2189 H2194 0.984 . S
N2189 H2195 0.985 . S
C2190 C2184 1.379 . S
C2190 C2187 1.363 . S
C2190 N2188 1.356 . S
C2191 C2185 1.363 . S
C2191 C2186 1.379 . S
C2191 N2189 1.356 . S
N2192 C2184 1.356 . S
N2192 H2198 0.984 . S
N2192 H2199 0.984 . S
N2193 C2186 1.356 . S
N2193 H2196 0.984 . S
N2193 H2197 0.985 . S
H2194 N2189 0.984 . S
H2195 N2189 0.985 . S
H2196 N2193 0.984 . S
H2197 N2193 0.985 . S
H2198 N2192 0.984 . S
H2199 N2192 0.984 . S
H2200 N2188 0.984 . S
H2201 N2188 0.985 . S
C2202 C2203 1.363 . S
C2202 C2208 1.379 . S
C2202 N2210 1.356 . S
C2203 C2202 1.363 . S
C2203 C2209 1.363 . S
C2204 C2205 1.363 . S
C2204 C2209 1.379 . S
C2204 N2211 1.356 . S
C2205 C2204 1.363 . S
C2205 C2208 1.363 . S
N2206 C2208 1.356 . S
N2206 H2218 0.984 . S
N2206 H2219 0.985 . S
N2207 C2209 1.356 . S
N2207 H2212 0.984 . S
N2207 H2213 0.985 . S
C2208 C2202 1.379 . S
C2208 C2205 1.363 . S
C2208 N2206 1.356 . S
C2209 C2203 1.363 . S
C2209 C2204 1.379 . S
C2209 N2207 1.356 . S
N2210 C2202 1.356 . S
N2210 H2216 0.984 . S
N2210 H2217 0.984 . S
N2211 C2204 1.356 . S
N2211 H2214 0.984 . S
N2211 H2215 0.985 . S
H2212 N2207 0.984 . S
H2213 N2207 0.985 . S
H2214 N2211 0.984 . S
H2215 N2211 0.985 . S
H2216 N2210 0.984 . S
H2217 N2210 0.984 . S
H2218 N2206 0.984 . S
H2219 N2206 0.985 . S
C2220 C2221 1.363 . S
C2220 C2226 1.379 . S
C2220 N2228 1.356 . S
C2221 C2220 1.363 . S
C2221 C2227 1.363 . S
C2222 C2223 1.363 . S
C2222 C2227 1.379 . S
C2222 N2229 1.356 . S
C2223 C2222 1.363 . S
C2223 C2226 1.363 . S
N2224 C2226 1.356 1_455 S
N2224 H2236 0.984 . S
N2224 H2237 0.985 . S
N2225 C2227 1.356 . S
N2225 H2230 0.984 . S
N2225 H2231 0.985 . S
C2226 C2220 1.379 . S
C2226 C2223 1.363 . S
C2226 N2224 1.356 1_655 S
C2227 C2221 1.363 . S
C2227 C2222 1.379 . S
C2227 N2225 1.356 . S
N2228 C2220 1.356 . S
N2228 H2234 0.984 . S
N2228 H2235 0.984 . S
N2229 C2222 1.356 . S
N2229 H2232 0.984 . S
N2229 H2233 0.985 . S
H2230 N2225 0.984 . S
H2231 N2225 0.985 . S
H2232 N2229 0.984 . S
H2233 N2229 0.985 . S
H2234 N2228 0.984 . S
H2235 N2228 0.984 . S
H2236 N2224 0.984 . S
H2237 N2224 0.985 . S
C2238 C2239 1.363 . S
C2238 C2244 1.379 . S
C2238 N2246 1.356 . S
C2239 C2238 1.363 . S
C2239 C2245 1.363 . S
C2240 C2241 1.363 . S
C2240 C2245 1.379 . S
C2240 N2247 1.356 . S
C2241 C2240 1.363 . S
C2241 C2244 1.363 . S
N2242 C2244 1.356 . S
N2242 H2254 0.984 . S
N2242 H2255 0.985 . S
N2243 C2245 1.356 . S
N2243 H2248 0.984 . S
N2243 H2249 0.985 . S
C2244 C2238 1.379 . S
C2244 C2241 1.363 . S
C2244 N2242 1.356 . S
C2245 C2239 1.363 . S
C2245 C2240 1.379 . S
C2245 N2243 1.356 . S
N2246 C2238 1.356 . S
N2246 H2252 0.984 . S
N2246 H2253 0.984 . S
N2247 C2240 1.356 . S
N2247 H2250 0.984 . S
N2247 H2251 0.985 . S
H2248 N2243 0.984 . S
H2249 N2243 0.985 . S
H2250 N2247 0.984 . S
H2251 N2247 0.985 . S
H2252 N2246 0.984 . S
H2253 N2246 0.984 . S
H2254 N2242 0.984 . S
H2255 N2242 0.985 . S
C2256 C2257 1.363 . S
C2256 C2262 1.379 . S
C2256 N2264 1.356 . S
C2257 C2256 1.363 . S
C2257 C2263 1.363 . S
C2258 C2259 1.363 . S
C2258 C2263 1.379 . S
C2258 N2265 1.356 1_455 S
C2259 C2258 1.363 . S
C2259 C2262 1.363 . S
N2260 C2262 1.356 1_545 S
N2260 H2272 0.984 . S
N2260 H2273 0.985 . S
N2261 C2263 1.356 . S
N2261 H2266 0.984 . S
N2261 H2267 0.985 . S
C2262 C2256 1.379 . S
C2262 C2259 1.363 . S
C2262 N2260 1.356 1_565 S
C2263 C2257 1.363 . S
C2263 C2258 1.379 . S
C2263 N2261 1.356 . S
N2264 C2256 1.356 . S
N2264 H2270 0.984 . S
N2264 H2271 0.984 . S
N2265 C2258 1.356 1_655 S
N2265 H2268 0.984 . S
N2265 H2269 0.985 . S
H2266 N2261 0.984 . S
H2267 N2261 0.985 . S
H2268 N2265 0.984 . S
H2269 N2265 0.985 . S
H2270 N2264 0.984 . S
H2271 N2264 0.984 . S
H2272 N2260 0.984 . S
H2273 N2260 0.985 . S
C2274 C2275 1.363 . S
C2274 C2280 1.379 . S
C2274 N2282 1.356 . S
C2275 C2274 1.363 . S
C2275 C2281 1.363 . S
C2276 C2277 1.363 . S
C2276 C2281 1.379 . S
C2276 N2283 1.356 . S
C2277 C2276 1.363 . S
C2277 C2280 1.363 . S
N2278 C2280 1.356 . S
N2278 H2290 0.984 . S
N2278 H2291 0.985 . S
N2279 C2281 1.356 . S
N2279 H2284 0.984 . S
N2279 H2285 0.985 . S
C2280 C2274 1.379 . S
C2280 C2277 1.363 . S
C2280 N2278 1.356 . S
C2281 C2275 1.363 . S
C2281 C2276 1.379 . S
C2281 N2279 1.356 . S
N2282 C2274 1.356 . S
N2282 H2288 0.984 . S
N2282 H2289 0.984 . S
N2283 C2276 1.356 . S
N2283 H2286 0.984 . S
N2283 H2287 0.985 . S
H2284 N2279 0.984 . S
H2285 N2279 0.985 . S
H2286 N2283 0.984 . S
H2287 N2283 0.985 . S
H2288 N2282 0.984 . S
H2289 N2282 0.984 . S
H2290 N2278 0.984 . S
H2291 N2278 0.985 . S
C2292 C2293 1.363 . S
C2292 C2298 1.379 . S
C2292 N2300 1.356 . S
C2293 C2292 1.363 . S
C2293 C2299 1.363 . S
C2294 C2295 1.363 . S
C2294 C2299 1.379 . S
C2294 N2301 1.356 . S
C2295 C2294 1.363 . S
C2295 C2298 1.363 . S
N2296 C2298 1.356 . S
N2296 H2308 0.984 . S
N2296 H2309 0.985 . S
N2297 C2299 1.356 1_455 S
N2297 H2302 0.984 . S
N2297 H2303 0.985 . S
C2298 C2292 1.379 . S
C2298 C2295 1.363 . S
C2298 N2296 1.356 . S
C2299 C2293 1.363 . S
C2299 C2294 1.379 . S
C2299 N2297 1.356 1_655 S
N2300 C2292 1.356 . S
N2300 H2306 0.984 . S
N2300 H2307 0.984 . S
N2301 C2294 1.356 . S
N2301 H2304 0.984 . S
N2301 H2305 0.985 . S
H2302 N2297 0.984 . S
H2303 N2297 0.985 . S
H2304 N2301 0.984 . S
H2305 N2301 0.985 . S
H2306 N2300 0.984 . S
H2307 N2300 0.984 . S
H2308 N2296 0.984 . S
H2309 N2296 0.985 . S
C2310 C2311 1.363 . S
C2310 C2316 1.379 . S
C2310 N2318 1.356 . S
C2311 C2310 1.363 . S
C2311 C2317 1.363 . S
C2312 C2313 1.363 . S
C2312 C2317 1.379 . S
C2312 N2319 1.356 . S
C2313 C2312 1.363 . S
C2313 C2316 1.363 . S
N2314 C2316 1.356 . S
N2314 H2326 0.984 . S
N2314 H2327 0.985 . S
N2315 C2317 1.356 . S
N2315 H2320 0.984 . S
N2315 H2321 0.985 . S
C2316 C2310 1.379 . S
C2316 C2313 1.363 . S
C2316 N2314 1.356 . S
C2317 C2311 1.363 . S
C2317 C2312 1.379 . S
C2317 N2315 1.356 . S
N2318 C2310 1.356 . S
N2318 H2324 0.984 . S
N2318 H2325 0.984 . S
N2319 C2312 1.356 . S
N2319 H2322 0.984 . S
N2319 H2323 0.985 . S
H2320 N2315 0.984 . S
H2321 N2315 0.985 . S
H2322 N2319 0.984 . S
H2323 N2319 0.985 . S
H2324 N2318 0.984 . S
H2325 N2318 0.984 . S
H2326 N2314 0.984 . S
H2327 N2314 0.985 . S
C2328 C2329 1.363 . S
C2328 C2334 1.379 . S
C2328 N2336 1.356 . S
C2329 C2328 1.363 . S
C2329 C2335 1.363 . S
C2330 C2331 1.363 . S
C2330 C2335 1.379 . S
C2330 N2337 1.356 . S
C2331 C2330 1.363 . S
C2331 C2334 1.363 . S
N2332 C2334 1.356 . S
N2332 H2344 0.984 . S
N2332 H2345 0.985 . S
N2333 C2335 1.356 . S
N2333 H2338 0.984 . S
N2333 H2339 0.985 . S
C2334 C2328 1.379 . S
C2334 C2331 1.363 . S
C2334 N2332 1.356 . S
C2335 C2329 1.363 . S
C2335 C2330 1.379 . S
C2335 N2333 1.356 . S
N2336 C2328 1.356 . S
N2336 H2342 0.984 . S
N2336 H2343 0.984 . S
N2337 C2330 1.356 . S
N2337 H2340 0.984 . S
N2337 H2341 0.985 . S
H2338 N2333 0.984 . S
H2339 N2333 0.985 . S
H2340 N2337 0.984 . S
H2341 N2337 0.985 . S
H2342 N2336 0.984 . S
H2343 N2336 0.984 . S
H2344 N2332 0.984 . S
H2345 N2332 0.985 . S
C2346 C2347 1.363 . S
C2346 C2352 1.379 . S
C2346 N2354 1.356 . S
C2347 C2346 1.363 . S
C2347 C2353 1.363 . S
C2348 C2349 1.363 . S
C2348 C2353 1.379 . S
C2348 N2355 1.356 . S
C2349 C2348 1.363 . S
C2349 C2352 1.363 . S
N2350 C2352 1.343 1_554 S
N2350 H2362 0.988 . S
N2350 H2363 0.995 . S
N2351 C2353 1.356 . S
N2351 H2356 0.984 . S
N2351 H2357 0.985 . S
C2352 C2346 1.379 . S
C2352 C2349 1.363 . S
C2352 N2350 1.343 1_556 S
C2353 C2347 1.363 . S
C2353 C2348 1.379 . S
C2353 N2351 1.356 . S
N2354 C2346 1.356 . S
N2354 H2360 0.984 . S
N2354 H2361 0.984 . S
N2355 C2348 1.356 . S
N2355 H2358 0.984 . S
N2355 H2359 0.985 . S
H2356 N2351 0.984 . S
H2357 N2351 0.985 . S
H2358 N2355 0.984 . S
H2359 N2355 0.985 . S
H2360 N2354 0.984 . S
H2361 N2354 0.984 . S
H2362 N2350 0.988 . S
H2363 N2350 0.995 . S
C2364 C2365 1.363 . S
C2364 C2370 1.379 . S
C2364 N2372 1.356 . S
C2365 C2364 1.363 . S
C2365 C2371 1.363 . S
C2366 C2367 1.363 . S
C2366 C2371 1.379 . S
C2366 N2373 1.356 . S
C2367 C2366 1.363 . S
C2367 C2370 1.363 . S
N2368 C2370 1.356 . S
N2368 H2380 0.984 . S
N2368 H2381 0.985 . S
N2369 C2371 1.356 . S
N2369 H2374 0.984 . S
N2369 H2375 0.985 . S
C2370 C2364 1.379 . S
C2370 C2367 1.363 . S
C2370 N2368 1.356 . S
C2371 C2365 1.363 . S
C2371 C2366 1.379 . S
C2371 N2369 1.356 . S
N2372 C2364 1.356 . S
N2372 H2378 0.984 . S
N2372 H2379 0.984 . S
N2373 C2366 1.356 . S
N2373 H2376 0.984 . S
N2373 H2377 0.985 . S
H2374 N2369 0.984 . S
H2375 N2369 0.985 . S
H2376 N2373 0.984 . S
H2377 N2373 0.985 . S
H2378 N2372 0.984 . S
H2379 N2372 0.984 . S
H2380 N2368 0.984 . S
H2381 N2368 0.985 . S
C2382 C2383 1.363 . S
C2382 C2388 1.379 . S
C2382 N2390 1.356 . S
C2383 C2382 1.363 . S
C2383 C2389 1.363 . S
C2384 C2385 1.363 . S
C2384 C2389 1.379 . S
C2384 N2391 1.356 . S
C2385 C2384 1.363 . S
C2385 C2388 1.363 . S
N2386 C2388 1.356 . S
N2386 H2398 0.984 . S
N2386 H2399 0.985 . S
N2387 C2389 1.356 1_655 S
N2387 H2392 0.984 . S
N2387 H2393 0.985 . S
C2388 C2382 1.379 . S
C2388 C2385 1.363 . S
C2388 N2386 1.356 . S
C2389 C2383 1.363 . S
C2389 C2384 1.379 . S
C2389 N2387 1.356 1_455 S
N2390 C2382 1.356 . S
N2390 H2396 0.984 . S
N2390 H2397 0.984 . S
N2391 C2384 1.356 . S
N2391 H2394 0.984 . S
N2391 H2395 0.985 . S
H2392 N2387 0.984 . S
H2393 N2387 0.985 . S
H2394 N2391 0.984 . S
H2395 N2391 0.985 . S
H2396 N2390 0.984 . S
H2397 N2390 0.984 . S
H2398 N2386 0.984 . S
H2399 N2386 0.985 . S
C2400 C2401 1.363 . S
C2400 C2406 1.379 . S
C2400 N2408 1.356 . S
C2401 C2400 1.363 . S
C2401 C2407 1.363 . S
C2402 C2403 1.363 . S
C2402 C2407 1.379 . S
C2402 N2409 1.356 . S
C2403 C2402 1.363 . S
C2403 C2406 1.363 . S
N2404 C2406 1.356 . S
N2404 H2416 0.984 . S
N2404 H2417 0.985 . S
N2405 C2407 1.356 . S
N2405 H2410 0.984 . S
N2405 H2411 0.985 . S
C2406 C2400 1.379 . S
C2406 C2403 1.363 . S
C2406 N2404 1.356 . S
C2407 C2401 1.363 . S
C2407 C2402 1.379 . S
C2407 N2405 1.356 . S
N2408 C2400 1.356 . S
N2408 H2414 0.984 . S
N2408 H2415 0.984 . S
N2409 C2402 1.356 . S
N2409 H2412 0.984 . S
N2409 H2413 0.985 . S
H2410 N2405 0.984 . S
H2411 N2405 0.985 . S
H2412 N2409 0.984 . S
H2413 N2409 0.985 . S
H2414 N2408 0.984 . S
H2415 N2408 0.984 . S
H2416 N2404 0.984 . S
H2417 N2404 0.985 . S
C2418 C2419 1.363 . S
C2418 C2424 1.379 . S
C2418 N2426 1.356 . S
C2419 C2418 1.363 . S
C2419 C2425 1.363 . S
C2420 C2421 1.363 . S
C2420 C2425 1.379 . S
C2420 N2427 1.356 1_554 S
C2421 C2420 1.363 . S
C2421 C2424 1.363 . S
N2422 C2424 1.356 1_655 S
N2422 H2434 0.984 . S
N2422 H2435 0.985 . S
N2423 C2425 1.356 . S
N2423 H2428 0.984 . S
N2423 H2429 0.985 . S
C2424 C2418 1.379 . S
C2424 C2421 1.363 . S
C2424 N2422 1.356 1_455 S
C2425 C2419 1.363 . S
C2425 C2420 1.379 . S
C2425 N2423 1.356 . S
N2426 C2418 1.356 . S
N2426 H2432 0.984 . S
N2426 H2433 0.984 . S
N2427 C2420 1.356 1_556 S
N2427 H2430 0.984 . S
N2427 H2431 0.985 . S
H2428 N2423 0.984 . S
H2429 N2423 0.985 . S
H2430 N2427 0.984 . S
H2431 N2427 0.985 . S
H2432 N2426 0.984 . S
H2433 N2426 0.984 . S
H2434 N2422 0.984 . S
H2435 N2422 0.985 . S
C2436 C2437 1.363 . S
C2436 C2442 1.379 . S
C2436 N2444 1.356 . S
C2437 C2436 1.363 . S
C2437 C2443 1.363 . S
C2438 C2439 1.363 . S
C2438 C2443 1.379 . S
C2438 N2445 1.356 . S
C2439 C2438 1.363 . S
C2439 C2442 1.363 . S
N2440 C2442 1.356 . S
N2440 H2452 0.984 . S
N2440 H2453 0.985 . S
N2441 C2443 1.356 . S
N2441 H2446 0.984 . S
N2441 H2447 0.985 . S
C2442 C2436 1.379 . S
C2442 C2439 1.363 . S
C2442 N2440 1.356 . S
C2443 C2437 1.363 . S
C2443 C2438 1.379 . S
C2443 N2441 1.356 . S
N2444 C2436 1.356 . S
N2444 H2450 0.984 . S
N2444 H2451 0.984 . S
N2445 C2438 1.356 . S
N2445 H2448 0.984 . S
N2445 H2449 0.985 . S
H2446 N2441 0.984 . S
H2447 N2441 0.985 . S
H2448 N2445 0.984 . S
H2449 N2445 0.985 . S
H2450 N2444 0.984 . S
H2451 N2444 0.984 . S
H2452 N2440 0.984 . S
H2453 N2440 0.985 . S
C2454 C2455 1.363 . S
C2454 C2460 1.379 . S
C2454 N2462 1.356 . S
C2455 C2454 1.363 . S
C2455 C2461 1.363 . S
C2456 C2457 1.363 . S
C2456 C2461 1.379 . S
C2456 N2463 1.356 . S
C2457 C2456 1.363 . S
C2457 C2460 1.363 . S
N2458 C2460 1.356 . S
N2458 H2470 0.984 . S
N2458 H2471 0.985 . S
N2459 C2461 1.356 . S
N2459 H2464 0.984 . S
N2459 H2465 0.985 . S
C2460 C2454 1.379 . S
C2460 C2457 1.363 . S
C2460 N2458 1.356 . S
C2461 C2455 1.363 . S
C2461 C2456 1.379 . S
C2461 N2459 1.356 . S
N2462 C2454 1.356 . S
N2462 H2468 0.984 . S
N2462 H2469 0.984 . S
N2463 C2456 1.356 . S
N2463 H2466 0.984 . S
N2463 H2467 0.985 . S
H2464 N2459 0.984 . S
H2465 N2459 0.985 . S
H2466 N2463 0.984 . S
H2467 N2463 0.985 . S
H2468 N2462 0.984 . S
H2469 N2462 0.984 . S
H2470 N2458 0.984 . S
H2471 N2458 0.985 . S
C2472 C2473 1.363 . S
C2472 C2478 1.379 . S
C2472 N2480 1.356 . S
C2473 C2472 1.363 . S
C2473 C2479 1.363 . S
C2474 C2475 1.363 . S
C2474 C2479 1.379 . S
C2474 N2481 1.356 . S
C2475 C2474 1.363 . S
C2475 C2478 1.363 . S
N2476 C2478 1.356 . S
N2476 H2488 0.984 . S
N2476 H2489 0.985 . S
N2477 C2479 1.356 . S
N2477 H2482 0.984 . S
N2477 H2483 0.985 . S
C2478 C2472 1.379 . S
C2478 C2475 1.363 . S
C2478 N2476 1.356 . S
C2479 C2473 1.363 . S
C2479 C2474 1.379 . S
C2479 N2477 1.356 . S
N2480 C2472 1.356 . S
N2480 H2486 0.984 . S
N2480 H2487 0.984 . S
N2481 C2474 1.356 . S
N2481 H2484 0.984 . S
N2481 H2485 0.985 . S
H2482 N2477 0.984 . S
H2483 N2477 0.985 . S
H2484 N2481 0.984 . S
H2485 N2481 0.985 . S
H2486 N2480 0.984 . S
H2487 N2480 0.984 . S
H2488 N2476 0.984 . S
H2489 N2476 0.985 . S
C2490 C2491 1.363 . S
C2490 C2496 1.379 . S
C2490 N2498 1.356 . S
C2491 C2490 1.363 . S
C2491 C2497 1.363 . S
C2492 C2493 1.363 . S
C2492 C2497 1.379 . S
C2492 N2499 1.356 . S
C2493 C2492 1.363 . S
C2493 C2496 1.363 . S
N2494 C2496 1.356 . S
N2494 H2506 0.984 . S
N2494 H2507 0.985 . S
N2495 C2497 1.356 1_556 S
N2495 H2500 0.984 . S
N2495 H2501 0.985 . S
C2496 C2490 1.379 . S
C2496 C2493 1.363 . S
C2496 N2494 1.356 . S
C2497 C2491 1.363 . S
C2497 C2492 1.379 . S
C2497 N2495 1.356 1_554 S
N2498 C2490 1.356 . S
N2498 H2504 0.984 . S
N2498 H2505 0.984 . S
N2499 C2492 1.356 . S
N2499 H2502 0.984 . S
N2499 H2503 0.985 . S
H2500 N2495 0.984 . S
H2501 N2495 0.985 . S
H2502 N2499 0.984 . S
H2503 N2499 0.985 . S
H2504 N2498 0.984 . S
H2505 N2498 0.984 . S
H2506 N2494 0.984 . S
H2507 N2494 0.985 . S
C2508 C2509 1.363 . S
C2508 C2514 1.379 . S
C2508 N2516 1.356 . S
C2509 C2508 1.363 . S
C2509 C2515 1.363 . S
C2510 C2511 1.363 . S
C2510 C2515 1.379 . S
C2510 N2517 1.356 . S
C2511 C2510 1.363 . S
C2511 C2514 1.363 . S
N2512 C2514 1.356 . S
N2512 H2524 0.984 . S
N2512 H2525 0.985 . S
N2513 C2515 1.356 . S
N2513 H2518 0.984 . S
N2513 H2519 0.985 . S
C2514 C2508 1.379 . S
C2514 C2511 1.363 . S
C2514 N2512 1.356 . S
C2515 C2509 1.363 . S
C2515 C2510 1.379 . S
C2515 N2513 1.356 . S
N2516 C2508 1.356 . S
N2516 H2522 0.984 . S
N2516 H2523 0.984 . S
N2517 C2510 1.356 . S
N2517 H2520 0.984 . S
N2517 H2521 0.985 . S
H2518 N2513 0.984 . S
H2519 N2513 0.985 . S
H2520 N2517 0.984 . S
H2521 N2517 0.985 . S
H2522 N2516 0.984 . S
H2523 N2516 0.984 . S
H2524 N2512 0.984 . S
H2525 N2512 0.985 . S
C2526 C2527 1.363 . S
C2526 C2532 1.379 . S
C2526 N2534 1.356 . S
C2527 C2526 1.363 . S
C2527 C2533 1.363 . S
C2528 C2529 1.363 . S
C2528 C2533 1.379 . S
C2528 N2535 1.356 . S
C2529 C2528 1.363 . S
C2529 C2532 1.363 . S
N2530 C2532 1.356 . S
N2530 H2542 0.984 . S
N2530 H2543 0.985 . S
N2531 C2533 1.356 . S
N2531 H2536 0.984 . S
N2531 H2537 0.985 . S
C2532 C2526 1.379 . S
C2532 C2529 1.363 . S
C2532 N2530 1.356 . S
C2533 C2527 1.363 . S
C2533 C2528 1.379 . S
C2533 N2531 1.356 . S
N2534 C2526 1.356 . S
N2534 H2540 0.984 . S
N2534 H2541 0.984 . S
N2535 C2528 1.356 . S
N2535 H2538 0.984 . S
N2535 H2539 0.985 . S
H2536 N2531 0.984 . S
H2537 N2531 0.985 . S
H2538 N2535 0.984 . S
H2539 N2535 0.985 . S
H2540 N2534 0.984 . S
H2541 N2534 0.984 . S
H2542 N2530 0.984 . S
H2543 N2530 0.985 . S
C2544 C2545 1.363 . S
C2544 C2550 1.379 . S
C2544 N2552 1.356 . S
C2545 C2544 1.363 . S
C2545 C2551 1.363 . S
C2546 C2547 1.363 . S
C2546 C2551 1.379 . S
C2546 N2553 1.356 . S
C2547 C2546 1.363 . S
C2547 C2550 1.363 . S
N2548 C2550 1.356 . S
N2548 H2560 0.984 . S
N2548 H2561 0.985 . S
N2549 C2551 1.356 . S
N2549 H2554 0.984 . S
N2549 H2555 0.985 . S
C2550 C2544 1.379 . S
C2550 C2547 1.363 . S
C2550 N2548 1.356 . S
C2551 C2545 1.363 . S
C2551 C2546 1.379 . S
C2551 N2549 1.356 . S
N2552 C2544 1.356 . S
N2552 H2558 0.984 . S
N2552 H2559 0.984 . S
N2553 C2546 1.356 . S
N2553 H2556 0.984 . S
N2553 H2557 0.985 . S
H2554 N2549 0.984 . S
H2555 N2549 0.985 . S
H2556 N2553 0.984 . S
H2557 N2553 0.985 . S
H2558 N2552 0.984 . S
H2559 N2552 0.984 . S
H2560 N2548 0.984 . S
H2561 N2548 0.985 . S
C2562 C2563 1.363 . S
C2562 C2568 1.379 . S
C2562 N2570 1.356 1_556 S
C2563 C2562 1.363 . S
C2563 C2569 1.363 . S
C2564 C2565 1.363 . S
C2564 C2569 1.379 . S
C2564 N2571 1.356 . S
C2565 C2564 1.363 . S
C2565 C2568 1.363 . S
N2566 C2568 1.356 . S
N2566 H2578 0.984 . S
N2566 H2579 0.985 . S
N2567 C2569 1.356 . S
N2567 H2572 0.984 . S
N2567 H2573 0.985 . S
C2568 C2562 1.379 . S
C2568 C2565 1.363 . S
C2568 N2566 1.356 . S
C2569 C2563 1.363 . S
C2569 C2564 1.379 . S
C2569 N2567 1.356 . S
N2570 C2562 1.356 1_554 S
N2570 H2576 0.984 . S
N2570 H2577 0.984 . S
N2571 C2564 1.356 . S
N2571 H2574 0.984 . S
N2571 H2575 0.985 . S
H2572 N2567 0.984 . S
H2573 N2567 0.985 . S
H2574 N2571 0.984 . S
H2575 N2571 0.985 . S
H2576 N2570 0.984 . S
H2577 N2570 0.984 . S
H2578 N2566 0.984 . S
H2579 N2566 0.985 . S
C2580 C2581 1.363 . S
C2580 C2586 1.379 . S
C2580 N2588 1.356 . S
C2581 C2580 1.363 . S
C2581 C2587 1.363 . S
C2582 C2583 1.363 . S
C2582 C2587 1.379 . S
C2582 N2589 1.356 . S
C2583 C2582 1.363 . S
C2583 C2586 1.363 . S
N2584 C2586 1.356 . S
N2584 H2596 0.984 . S
N2584 H2597 0.985 . S
N2585 C2587 1.356 . S
N2585 H2590 0.984 . S
N2585 H2591 0.985 . S
C2586 C2580 1.379 . S
C2586 C2583 1.363 . S
C2586 N2584 1.356 . S
C2587 C2581 1.363 . S
C2587 C2582 1.379 . S
C2587 N2585 1.356 . S
N2588 C2580 1.356 . S
N2588 H2594 0.984 . S
N2588 H2595 0.984 . S
N2589 C2582 1.356 . S
N2589 H2592 0.984 . S
N2589 H2593 0.985 . S
H2590 N2585 0.984 . S
H2591 N2585 0.985 . S
H2592 N2589 0.984 . S
H2593 N2589 0.985 . S
H2594 N2588 0.984 . S
H2595 N2588 0.984 . S
H2596 N2584 0.984 . S
H2597 N2584 0.985 . S
C2598 C2599 1.363 . S
C2598 C2604 1.379 . S
C2598 N2606 1.356 . S
C2599 C2598 1.363 . S
C2599 C2605 1.363 . S
C2600 C2601 1.363 . S
C2600 C2605 1.379 . S
C2600 N2607 1.356 . S
C2601 C2600 1.363 . S
C2601 C2604 1.363 . S
N2602 C2604 1.356 . S
N2602 H2614 0.984 . S
N2602 H2615 0.985 . S
N2603 C2605 1.356 . S
N2603 H2608 0.984 . S
N2603 H2609 0.985 . S
C2604 C2598 1.379 . S
C2604 C2601 1.363 . S
C2604 N2602 1.356 . S
C2605 C2599 1.363 . S
C2605 C2600 1.379 . S
C2605 N2603 1.356 . S
N2606 C2598 1.356 . S
N2606 H2612 0.984 . S
N2606 H2613 0.984 . S
N2607 C2600 1.356 . S
N2607 H2610 0.984 . S
N2607 H2611 0.985 . S
H2608 N2603 0.984 . S
H2609 N2603 0.985 . S
H2610 N2607 0.984 . S
H2611 N2607 0.985 . S
H2612 N2606 0.984 . S
H2613 N2606 0.984 . S
H2614 N2602 0.984 . S
H2615 N2602 0.985 . S
C2616 C2617 1.363 . S
C2616 C2622 1.379 . S
C2616 N2624 1.356 . S
C2617 C2616 1.363 . S
C2617 C2623 1.363 . S
C2618 C2619 1.363 . S
C2618 C2623 1.379 . S
C2618 N2625 1.356 . S
C2619 C2618 1.363 . S
C2619 C2622 1.363 . S
N2620 C2622 1.356 . S
N2620 H2632 0.984 . S
N2620 H2633 0.985 . S
N2621 C2623 1.356 . S
N2621 H2626 0.984 . S
N2621 H2627 0.985 . S
C2622 C2616 1.379 . S
C2622 C2619 1.363 . S
C2622 N2620 1.356 . S
C2623 C2617 1.363 . S
C2623 C2618 1.379 . S
C2623 N2621 1.356 . S
N2624 C2616 1.356 . S
N2624 H2630 0.984 . S
N2624 H2631 0.984 . S
N2625 C2618 1.356 . S
N2625 H2628 0.984 . S
N2625 H2629 0.985 . S
H2626 N2621 0.984 . S
H2627 N2621 0.985 . S
H2628 N2625 0.984 . S
H2629 N2625 0.985 . S
H2630 N2624 0.984 . S
H2631 N2624 0.984 . S
H2632 N2620 0.984 . S
H2633 N2620 0.985 . S
C2634 C2635 1.363 . S
C2634 C2640 1.379 . S
C2634 N2642 1.356 . S
C2635 C2634 1.363 . S
C2635 C2641 1.363 . S
C2636 C2637 1.363 . S
C2636 C2641 1.379 . S
C2636 N2643 1.356 . S
C2637 C2636 1.363 . S
C2637 C2640 1.363 . S
N2638 C2640 1.356 . S
N2638 H2650 0.984 . S
N2638 H2651 0.985 . S
N2639 C2641 1.356 . S
N2639 H2644 0.984 . S
N2639 H2645 0.985 . S
C2640 C2634 1.379 . S
C2640 C2637 1.363 . S
C2640 N2638 1.356 . S
C2641 C2635 1.363 . S
C2641 C2636 1.379 . S
C2641 N2639 1.356 . S
N2642 C2634 1.356 . S
N2642 H2648 0.984 . S
N2642 H2649 0.984 . S
N2643 C2636 1.356 . S
N2643 H2646 0.984 . S
N2643 H2647 0.985 . S
H2644 N2639 0.984 . S
H2645 N2639 0.985 . S
H2646 N2643 0.984 . S
H2647 N2643 0.985 . S
H2648 N2642 0.984 . S
H2649 N2642 0.984 . S
H2650 N2638 0.984 . S
H2651 N2638 0.985 . S
C2652 C2653 1.363 . S
C2652 C2658 1.379 . S
C2652 N2660 1.356 . S
C2653 C2652 1.363 . S
C2653 C2659 1.363 . S
C2654 C2655 1.363 . S
C2654 C2659 1.379 . S
C2654 N2661 1.356 . S
C2655 C2654 1.363 . S
C2655 C2658 1.363 . S
N2656 C2658 1.356 1_565 S
N2656 H2668 0.984 . S
N2656 H2669 0.985 . S
N2657 C2659 1.356 . S
N2657 H2662 0.984 . S
N2657 H2663 0.985 . S
C2658 C2652 1.379 . S
C2658 C2655 1.363 . S
C2658 N2656 1.356 1_545 S
C2659 C2653 1.363 . S
C2659 C2654 1.379 . S
C2659 N2657 1.356 . S
N2660 C2652 1.356 . S
N2660 H2666 0.984 . S
N2660 H2667 0.984 . S
N2661 C2654 1.356 . S
N2661 H2664 0.984 . S
N2661 H2665 0.985 . S
H2662 N2657 0.984 . S
H2663 N2657 0.985 . S
H2664 N2661 0.984 . S
H2665 N2661 0.985 . S
H2666 N2660 0.984 . S
H2667 N2660 0.984 . S
H2668 N2656 0.984 . S
H2669 N2656 0.985 . S
C2670 C2671 1.363 . S
C2670 C2676 1.379 . S
C2670 N2678 1.356 . S
C2671 C2670 1.363 . S
C2671 C2677 1.363 . S
C2672 C2673 1.363 . S
C2672 C2677 1.379 . S
C2672 N2679 1.356 . S
C2673 C2672 1.363 . S
C2673 C2676 1.363 . S
N2674 C2676 1.356 . S
N2674 H2686 0.984 . S
N2674 H2687 0.985 . S
N2675 C2677 1.356 . S
N2675 H2680 0.984 . S
N2675 H2681 0.985 . S
C2676 C2670 1.379 . S
C2676 C2673 1.363 . S
C2676 N2674 1.356 . S
C2677 C2671 1.363 . S
C2677 C2672 1.379 . S
C2677 N2675 1.356 . S
N2678 C2670 1.356 . S
N2678 H2684 0.984 . S
N2678 H2685 0.984 . S
N2679 C2672 1.356 . S
N2679 H2682 0.984 . S
N2679 H2683 0.985 . S
H2680 N2675 0.984 . S
H2681 N2675 0.985 . S
H2682 N2679 0.984 . S
H2683 N2679 0.985 . S
H2684 N2678 0.984 . S
H2685 N2678 0.984 . S
H2686 N2674 0.984 . S
H2687 N2674 0.985 . S
C2688 C2689 1.363 . S
C2688 C2694 1.379 . S
C2688 N2696 1.356 . S
C2689 C2688 1.363 . S
C2689 C2695 1.363 . S
C2690 C2691 1.363 . S
C2690 C2695 1.379 . S
C2690 N2697 1.356 . S
C2691 C2690 1.363 . S
C2691 C2694 1.363 . S
N2692 C2694 1.356 . S
N2692 H2704 0.984 . S
N2692 H2705 0.985 . S
N2693 C2695 1.356 . S
N2693 H2698 0.984 . S
N2693 H2699 0.985 . S
C2694 C2688 1.379 . S
C2694 C2691 1.363 . S
C2694 N2692 1.356 . S
C2695 C2689 1.363 . S
C2695 C2690 1.379 . S
C2695 N2693 1.356 . S
N2696 C2688 1.356 . S
N2696 H2702 0.984 . S
N2696 H2703 0.984 . S
N2697 C2690 1.356 . S
N2697 H2700 0.984 . S
N2697 H2701 0.985 . S
H2698 N2693 0.984 . S
H2699 N2693 0.985 . S
H2700 N2697 0.984 . S
H2701 N2697 0.985 . S
H2702 N2696 0.984 . S
H2703 N2696 0.984 . S
H2704 N2692 0.984 . S
H2705 N2692 0.985 . S
C2706 C2707 1.363 . S
C2706 C2712 1.379 . S
C2706 N2714 1.356 . S
C2707 C2706 1.363 . S
C2707 C2713 1.363 . S
C2708 C2709 1.363 . S
C2708 C2713 1.379 . S
C2708 N2715 1.356 . S
C2709 C2708 1.363 . S
C2709 C2712 1.363 . S
N2710 C2712 1.356 . S
N2710 H2722 0.984 . S
N2710 H2723 0.985 . S
N2711 C2713 1.356 . S
N2711 H2716 0.984 . S
N2711 H2717 0.985 . S
C2712 C2706 1.379 . S
C2712 C2709 1.363 . S
C2712 N2710 1.356 . S
C2713 C2707 1.363 . S
C2713 C2708 1.379 . S
C2713 N2711 1.356 . S
N2714 C2706 1.356 . S
N2714 H2720 0.984 . S
N2714 H2721 0.984 . S
N2715 C2708 1.356 . S
N2715 H2718 0.984 . S
N2715 H2719 0.985 . S
H2716 N2711 0.984 . S
H2717 N2711 0.985 . S
H2718 N2715 0.984 . S
H2719 N2715 0.985 . S
H2720 N2714 0.984 . S
H2721 N2714 0.984 . S
H2722 N2710 0.984 . S
H2723 N2710 0.985 . S
C2724 C2725 1.363 . S
C2724 C2730 1.379 . S
C2724 N2732 1.356 1_565 S
C2725 C2724 1.363 . S
C2725 C2731 1.363 . S
C2726 C2727 1.363 . S
C2726 C2731 1.379 . S
C2726 N2733 1.356 . S
C2727 C2726 1.363 . S
C2727 C2730 1.363 . S
N2728 C2730 1.356 . S
N2728 H2740 0.984 . S
N2728 H2741 0.985 . S
N2729 C2731 1.356 . S
N2729 H2734 0.984 . S
N2729 H2735 0.985 . S
C2730 C2724 1.379 . S
C2730 C2727 1.363 . S
C2730 N2728 1.356 . S
C2731 C2725 1.363 . S
C2731 C2726 1.379 . S
C2731 N2729 1.356 . S
N2732 C2724 1.356 1_545 S
N2732 H2738 0.984 . S
N2732 H2739 0.984 . S
N2733 C2726 1.356 . S
N2733 H2736 0.984 . S
N2733 H2737 0.985 . S
H2734 N2729 0.984 . S
H2735 N2729 0.985 . S
H2736 N2733 0.984 . S
H2737 N2733 0.985 . S
H2738 N2732 0.984 . S
H2739 N2732 0.984 . S
H2740 N2728 0.984 . S
H2741 N2728 0.985 . S
C2742 C2743 1.363 . S
C2742 C2748 1.379 . S
C2742 N2750 1.356 1_545 S
C2743 C2742 1.363 . S
C2743 C2749 1.363 . S
C2744 C2745 1.363 . S
C2744 C2749 1.379 . S
C2744 N2751 1.356 . S
C2745 C2744 1.363 . S
C2745 C2748 1.363 . S
N2746 C2748 1.356 . S
N2746 H2758 0.984 . S
N2746 H2759 0.985 . S
N2747 C2749 1.339 1_655 S
N2747 H2752 0.980 1_545 S
N2747 H2753 0.989 . S
C2748 C2742 1.379 . S
C2748 C2745 1.363 . S
C2748 N2746 1.356 . S
C2749 C2743 1.363 . S
C2749 C2744 1.379 . S
C2749 N2747 1.339 1_455 S
N2750 C2742 1.356 1_565 S
N2750 H2756 0.984 . S
N2750 H2757 0.984 . S
N2751 C2744 1.356 . S
N2751 H2754 0.984 . S
N2751 H2755 0.985 . S
H2752 N2747 0.980 1_565 S
H2753 N2747 0.989 . S
H2754 N2751 0.984 . S
H2755 N2751 0.985 . S
H2756 N2750 0.984 . S
H2757 N2750 0.984 . S
H2758 N2746 0.984 . S
H2759 N2746 0.985 . S
C1033 C641 0.974 . S
C1035 C39 0.984 . S
C1051 C82 0.974 . S
C1053 C658 0.974 . S
C1069 C99 0.974 . S
C1071 C813 0.974 . S
C1087 C598 0.984 . S
C1089 C168 0.974 . S
C1105 C185 0.984 . S
C1107 C615 0.974 . S
C1123 C684 0.974 . S
C1125 C254 0.974 . S
C1141 C787 0.974 . S
C1143 C297 0.974 . S
C1159 C572 0.973 1_556 S
C1161 C340 0.974 . S
C1177 C383 0.984 . S
C1179 C426 0.974 . S
C1195 C469 0.984 . S
C1197 C400 0.974 . S
C1213 C443 0.973 1_565 S
C1215 C512 0.974 . S
C1231 C357 0.973 1_565 S
C1233 C486 0.974 . S
C1249 C529 0.984 . S
C1251 C142 0.974 . S
C1267 C211 0.973 1_655 S
C1269 C727 0.974 . S
C1285 C56 0.974 . S
C1287 C770 0.974 . S
C1303 C1002 0.974 . S
C1305 C125 0.974 . S
C1321 C701 0.974 . S
C1323 C13 0.973 1_655 S
C1339 C271 0.974 . S
C1341 C1028 0.974 . S
C1357 C555 0.973 1_556 S
C1359 C314 0.974 . S
C1375 C228 0.974 . S
C1377 C744 0.974 . S
C1393 C856 0.974 . S
C1395 C899 0.974 . S
C1411 C873 0.974 . S
C1413 C942 0.974 . S
C1429 C916 0.974 . S
C1431 C985 0.974 . S
C1447 C959 0.974 . S
C1449 C830 0.974 . S
C1465 C414 2.546 . S
C1467 C32 2.546 . S
C1483 C457 2.546 . S
C1485 C75 2.546 . S
C1501 C113 2.546 . S
C1503 C500 2.546 . S
C1519 C161 2.546 . S
C1521 C376 2.546 . S
C1537 C199 2.546 . S
C1539 C505 2.546 . S
C1555 C247 2.546 . S
C1557 C371 2.546 . S
C1573 C290 2.546 . S
C1575 C419 2.546 . S
C1591 C462 2.546 . S
C1593 C333 2.546 . S
C1609 C629 2.546 . S
C1611 C543 2.546 . S
C1627 C1016 2.546 . S
C1629 C586 2.546 . S
C1645 C677 2.546 . S
C1647 C715 2.546 . S
C1663 C591 2.546 . S
C1665 C720 2.546 . S
C1681 C801 2.546 . S
C1683 C763 2.546 . S
C1699 C758 2.546 . S
C1701 C634 2.546 . S
C1717 C806 2.546 . S
C1719 C548 2.546 . S
C1735 C118 2.546 . S
C1737 C887 2.546 . S
C1753 C930 2.546 . S
C1755 C156 2.546 . S
C1771 C27 2.546 . S
C1773 C973 2.546 . S
C1789 C849 2.546 . S
C1791 C70 2.546 . S
C1807 C978 2.546 . S
C1809 C285 2.546 . S
C1825 C328 2.546 . S
C1827 C844 2.546 . S
C1843 C892 2.546 . S
C1845 C204 2.546 . S
C1861 C935 2.546 . S
C1863 C242 2.546 . S
C1879 C672 2.546 . S
C1881 C1021 2.546 . S
C1897 N519 1.295 . S
C1899 C40 1.640 . S
C1915 N691 1.295 . S
C1917 C83 1.640 1_655 S
C1933 N739 1.295 . S
C1935 C119 1.640 . S
C1951 C169 1.640 1_556 S
C1953 N992 1.295 . S
C1969 C205 1.640 . S
C1971 N734 1.295 . S
C1987 C255 1.640 . S
C1989 N997 1.295 . S
C2005 N524 1.295 . S
C2007 C298 1.640 . S
C2023 C341 1.640 1_654 S
C2025 N696 1.295 . S
C2041 N8 1.295 . S
C2043 C384 1.640 . S
C2059 C420 1.640 1_565 S
C2061 N51 1.295 . S
C2077 N89 1.295 . S
C2079 C463 1.640 . S
C2095 N137 1.295 . S
C2097 C506 1.640 1_544 S
C2113 N175 1.295 . S
C2115 C377 1.640 . S
C2131 C427 1.640 1_565 S
C2133 N223 1.295 . S
C2149 C470 1.640 . S
C2151 N266 1.295 . S
C2167 N309 1.295 . S
C2169 C513 1.640 1_546 S
C2185 C549 1.640 . S
C2187 N352 1.295 . S
C2203 N820 1.295 . S
C2205 C592 1.640 . S
C2221 N868 1.295 . S
C2223 C635 1.640 1_655 S
C2239 N911 1.295 . S
C2241 C685 1.640 . S
C2257 N481 1.295 . S
C2259 C728 1.640 1_465 S
C2275 N433 1.295 . S
C2277 C771 1.640 . S
C2293 C642 1.640 1_655 S
C2295 N949 1.295 . S
C2311 N863 1.295 . S
C2313 C814 1.640 . S
C2329 C126 1.640 . S
C2331 N648 1.295 . S
C2347 N782 1.295 . S
C2349 C162 1.640 1_556 S
C2365 C33 1.640 . S
C2367 N567 1.295 . S
C2383 C76 1.640 1_455 S
C2385 N610 1.295 . S
C2401 N562 1.295 . S
C2403 C291 1.640 . S
C2419 N605 1.295 . S
C2421 C334 1.640 1_454 S
C2437 C212 1.640 . S
C2439 N653 1.295 . S
C2455 C248 1.640 . S
C2457 N777 1.295 . S
C2473 C857 1.640 . S
C2475 N94 1.295 . S
C2491 C893 1.640 1_554 S
C2493 N132 1.295 . S
C2509 N3 1.295 . S
C2511 C936 1.640 . S
C2527 N46 1.295 . S
C2529 C979 1.640 . S
C2545 C850 1.640 . S
C2547 N261 1.295 . S
C2563 C900 1.640 1_556 S
C2565 N304 1.295 . S
C2581 N180 1.295 . S
C2583 C943 1.640 . S
C2599 N218 1.295 . S
C2601 C986 1.640 . S
C2617 C678 1.640 . S
C2619 N825 1.295 . S
C2635 N347 1.295 . S
C2637 C764 1.640 . S
C2653 N395 1.295 . S
C2655 C1029 1.640 1_545 S
C2671 C556 1.640 . S
C2673 N438 1.295 . S
C2689 C807 1.640 . S
C2691 N954 1.295 . S
C2707 C599 1.640 . S
C2709 N906 1.295 . S
C2725 C1022 1.640 1_565 S
C2727 N476 1.295 . S
C2743 C721 1.640 1_445 S
C2745 N390 1.295 . S
