# Generated by pormake.
# Topology vbh, (5)-cn, num edge types: 1
# Building blocks:
#     Node 0, Type 0, BuildingBlock: BEQFEK_clean_sbu_0, # of connection points: 5
#     Node 1, Type 0, BuildingBlock: BEQFEK_clean_sbu_0, # of connection points: 5
#     Node 2, Type 0, BuildingBlock: BEQFEK_clean_sbu_0, # of connection points: 5
#     Node 3, Type 0, BuildingBlock: BEQFEK_clean_sbu_0, # of connection points: 5
#     Node 4, Type 0, BuildingBlock: BEQFEK_clean_sbu_0, # of connection points: 5
#     Node 5, Type 0, BuildingBlock: BEQFEK_clean_sbu_0, # of connection points: 5
#     Node 6, Type 0, BuildingBlock: BEQFEK_clean_sbu_0, # of connection points: 5
#     Node 7, Type 0, BuildingBlock: BEQFEK_clean_sbu_0, # of connection points: 5
#     Node 8, Type 0, BuildingBlock: BEQFEK_clean_sbu_0, # of connection points: 5
#     Node 9, Type 0, BuildingBlock: BEQFEK_clean_sbu_0, # of connection points: 5
#     Node 10, Type 0, BuildingBlock: BEQFEK_clean_sbu_0, # of connection points: 5
#     Node 11, Type 0, BuildingBlock: BEQFEK_clean_sbu_0, # of connection points: 5
#     Node 12, Type 0, BuildingBlock: BEQFEK_clean_sbu_0, # of connection points: 5
#     Node 13, Type 0, BuildingBlock: BEQFEK_clean_sbu_0, # of connection points: 5
#     Node 14, Type 0, BuildingBlock: BEQFEK_clean_sbu_0, # of connection points: 5
#     Node 15, Type 0, BuildingBlock: BEQFEK_clean_sbu_0, # of connection points: 5
#     Node 16, Type 0, BuildingBlock: BEQFEK_clean_sbu_0, # of connection points: 5
#     Node 17, Type 0, BuildingBlock: BEQFEK_clean_sbu_0, # of connection points: 5
#     Node 18, Type 0, BuildingBlock: BEQFEK_clean_sbu_0, # of connection points: 5
#     Node 19, Type 0, BuildingBlock: BEQFEK_clean_sbu_0, # of connection points: 5
#     Node 20, Type 0, BuildingBlock: BEQFEK_clean_sbu_0, # of connection points: 5
#     Node 21, Type 0, BuildingBlock: BEQFEK_clean_sbu_0, # of connection points: 5
#     Node 22, Type 0, BuildingBlock: BEQFEK_clean_sbu_0, # of connection points: 5
#     Node 23, Type 0, BuildingBlock: BEQFEK_clean_sbu_0, # of connection points: 5
#     Node 24, Type 0, BuildingBlock: BEQFEK_clean_sbu_0, # of connection points: 5
#     Node 25, Type 0, BuildingBlock: BEQFEK_clean_sbu_0, # of connection points: 5
#     Node 26, Type 0, BuildingBlock: BEQFEK_clean_sbu_0, # of connection points: 5
#     Node 27, Type 0, BuildingBlock: BEQFEK_clean_sbu_0, # of connection points: 5
#     Node 28, Type 0, BuildingBlock: BEQFEK_clean_sbu_0, # of connection points: 5
#     Node 29, Type 0, BuildingBlock: BEQFEK_clean_sbu_0, # of connection points: 5
#     Node 30, Type 0, BuildingBlock: BEQFEK_clean_sbu_0, # of connection points: 5
#     Node 31, Type 0, BuildingBlock: BEQFEK_clean_sbu_0, # of connection points: 5
#     Edge 32, Type (0, 0), BuildingBlock: UVAHIK_clean_linker_0, # of connection points: 2
#     Edge 33, Type (0, 0), BuildingBlock: UVAHIK_clean_linker_0, # of connection points: 2
#     Edge 34, Type (0, 0), BuildingBlock: UVAHIK_clean_linker_0, # of connection points: 2
#     Edge 35, Type (0, 0), BuildingBlock: UVAHIK_clean_linker_0, # of connection points: 2
#     Edge 36, Type (0, 0), BuildingBlock: UVAHIK_clean_linker_0, # of connection points: 2
#     Edge 37, Type (0, 0), BuildingBlock: UVAHIK_clean_linker_0, # of connection points: 2
#     Edge 38, Type (0, 0), BuildingBlock: UVAHIK_clean_linker_0, # of connection points: 2
#     Edge 39, Type (0, 0), BuildingBlock: UVAHIK_clean_linker_0, # of connection points: 2
#     Edge 40, Type (0, 0), BuildingBlock: UVAHIK_clean_linker_0, # of connection points: 2
#     Edge 41, Type (0, 0), BuildingBlock: UVAHIK_clean_linker_0, # of connection points: 2
#     Edge 42, Type (0, 0), BuildingBlock: UVAHIK_clean_linker_0, # of connection points: 2
#     Edge 43, Type (0, 0), BuildingBlock: UVAHIK_clean_linker_0, # of connection points: 2
#     Edge 44, Type (0, 0), BuildingBlock: UVAHIK_clean_linker_0, # of connection points: 2
#     Edge 45, Type (0, 0), BuildingBlock: UVAHIK_clean_linker_0, # of connection points: 2
#     Edge 46, Type (0, 0), BuildingBlock: UVAHIK_clean_linker_0, # of connection points: 2
#     Edge 47, Type (0, 0), BuildingBlock: UVAHIK_clean_linker_0, # of connection points: 2
#     Edge 48, Type (0, 0), BuildingBlock: UVAHIK_clean_linker_0, # of connection points: 2
#     Edge 49, Type (0, 0), BuildingBlock: UVAHIK_clean_linker_0, # of connection points: 2
#     Edge 50, Type (0, 0), BuildingBlock: UVAHIK_clean_linker_0, # of connection points: 2
#     Edge 51, Type (0, 0), BuildingBlock: UVAHIK_clean_linker_0, # of connection points: 2
#     Edge 52, Type (0, 0), BuildingBlock: UVAHIK_clean_linker_0, # of connection points: 2
#     Edge 53, Type (0, 0), BuildingBlock: UVAHIK_clean_linker_0, # of connection points: 2
#     Edge 54, Type (0, 0), BuildingBlock: UVAHIK_clean_linker_0, # of connection points: 2
#     Edge 55, Type (0, 0), BuildingBlock: UVAHIK_clean_linker_0, # of connection points: 2
#     Edge 56, Type (0, 0), BuildingBlock: UVAHIK_clean_linker_0, # of connection points: 2
#     Edge 57, Type (0, 0), BuildingBlock: UVAHIK_clean_linker_0, # of connection points: 2
#     Edge 58, Type (0, 0), BuildingBlock: UVAHIK_clean_linker_0, # of connection points: 2
#     Edge 59, Type (0, 0), BuildingBlock: UVAHIK_clean_linker_0, # of connection points: 2
#     Edge 60, Type (0, 0), BuildingBlock: UVAHIK_clean_linker_0, # of connection points: 2
#     Edge 61, Type (0, 0), BuildingBlock: UVAHIK_clean_linker_0, # of connection points: 2
#     Edge 62, Type (0, 0), BuildingBlock: UVAHIK_clean_linker_0, # of connection points: 2
#     Edge 63, Type (0, 0), BuildingBlock: UVAHIK_clean_linker_0, # of connection points: 2
#     Edge 64, Type (0, 0), BuildingBlock: UVAHIK_clean_linker_0, # of connection points: 2
#     Edge 65, Type (0, 0), BuildingBlock: UVAHIK_clean_linker_0, # of connection points: 2
#     Edge 66, Type (0, 0), BuildingBlock: UVAHIK_clean_linker_0, # of connection points: 2
#     Edge 67, Type (0, 0), BuildingBlock: UVAHIK_clean_linker_0, # of connection points: 2
#     Edge 68, Type (0, 0), BuildingBlock: UVAHIK_clean_linker_0, # of connection points: 2
#     Edge 69, Type (0, 0), BuildingBlock: UVAHIK_clean_linker_0, # of connection points: 2
#     Edge 70, Type (0, 0), BuildingBlock: UVAHIK_clean_linker_0, # of connection points: 2
#     Edge 71, Type (0, 0), BuildingBlock: UVAHIK_clean_linker_0, # of connection points: 2
#     Edge 72, Type (0, 0), BuildingBlock: UVAHIK_clean_linker_0, # of connection points: 2
#     Edge 73, Type (0, 0), BuildingBlock: UVAHIK_clean_linker_0, # of connection points: 2
#     Edge 74, Type (0, 0), BuildingBlock: UVAHIK_clean_linker_0, # of connection points: 2
#     Edge 75, Type (0, 0), BuildingBlock: UVAHIK_clean_linker_0, # of connection points: 2
#     Edge 76, Type (0, 0), BuildingBlock: UVAHIK_clean_linker_0, # of connection points: 2
#     Edge 77, Type (0, 0), BuildingBlock: UVAHIK_clean_linker_0, # of connection points: 2
#     Edge 78, Type (0, 0), BuildingBlock: UVAHIK_clean_linker_0, # of connection points: 2
#     Edge 79, Type (0, 0), BuildingBlock: UVAHIK_clean_linker_0, # of connection points: 2
#     Edge 80, Type (0, 0), BuildingBlock: UVAHIK_clean_linker_0, # of connection points: 2
#     Edge 81, Type (0, 0), BuildingBlock: UVAHIK_clean_linker_0, # of connection points: 2
#     Edge 82, Type (0, 0), BuildingBlock: UVAHIK_clean_linker_0, # of connection points: 2
#     Edge 83, Type (0, 0), BuildingBlock: UVAHIK_clean_linker_0, # of connection points: 2
#     Edge 84, Type (0, 0), BuildingBlock: UVAHIK_clean_linker_0, # of connection points: 2
#     Edge 85, Type (0, 0), BuildingBlock: UVAHIK_clean_linker_0, # of connection points: 2
#     Edge 86, Type (0, 0), BuildingBlock: UVAHIK_clean_linker_0, # of connection points: 2
#     Edge 87, Type (0, 0), BuildingBlock: UVAHIK_clean_linker_0, # of connection points: 2
#     Edge 88, Type (0, 0), BuildingBlock: UVAHIK_clean_linker_0, # of connection points: 2
#     Edge 89, Type (0, 0), BuildingBlock: UVAHIK_clean_linker_0, # of connection points: 2
#     Edge 90, Type (0, 0), BuildingBlock: UVAHIK_clean_linker_0, # of connection points: 2
#     Edge 91, Type (0, 0), BuildingBlock: UVAHIK_clean_linker_0, # of connection points: 2
#     Edge 92, Type (0, 0), BuildingBlock: UVAHIK_clean_linker_0, # of connection points: 2
#     Edge 93, Type (0, 0), BuildingBlock: UVAHIK_clean_linker_0, # of connection points: 2
#     Edge 94, Type (0, 0), BuildingBlock: UVAHIK_clean_linker_0, # of connection points: 2
#     Edge 95, Type (0, 0), BuildingBlock: UVAHIK_clean_linker_0, # of connection points: 2
#     Edge 96, Type (0, 0), BuildingBlock: UVAHIK_clean_linker_0, # of connection points: 2
#     Edge 97, Type (0, 0), BuildingBlock: UVAHIK_clean_linker_0, # of connection points: 2
#     Edge 98, Type (0, 0), BuildingBlock: UVAHIK_clean_linker_0, # of connection points: 2
#     Edge 99, Type (0, 0), BuildingBlock: UVAHIK_clean_linker_0, # of connection points: 2
#     Edge 100, Type (0, 0), BuildingBlock: UVAHIK_clean_linker_0, # of connection points: 2
#     Edge 101, Type (0, 0), BuildingBlock: UVAHIK_clean_linker_0, # of connection points: 2
#     Edge 102, Type (0, 0), BuildingBlock: UVAHIK_clean_linker_0, # of connection points: 2
#     Edge 103, Type (0, 0), BuildingBlock: UVAHIK_clean_linker_0, # of connection points: 2
#     Edge 104, Type (0, 0), BuildingBlock: UVAHIK_clean_linker_0, # of connection points: 2
#     Edge 105, Type (0, 0), BuildingBlock: UVAHIK_clean_linker_0, # of connection points: 2
#     Edge 106, Type (0, 0), BuildingBlock: UVAHIK_clean_linker_0, # of connection points: 2
#     Edge 107, Type (0, 0), BuildingBlock: UVAHIK_clean_linker_0, # of connection points: 2
#     Edge 108, Type (0, 0), BuildingBlock: UVAHIK_clean_linker_0, # of connection points: 2
#     Edge 109, Type (0, 0), BuildingBlock: UVAHIK_clean_linker_0, # of connection points: 2
#     Edge 110, Type (0, 0), BuildingBlock: UVAHIK_clean_linker_0, # of connection points: 2
#     Edge 111, Type (0, 0), BuildingBlock: UVAHIK_clean_linker_0, # of connection points: 2
# Relax obj value: 0.675
# Max RMSD: 0.257
# Mean RMSD: 0.257
data_MOF--net-vbh--node1-BEQFEK_clean_sbu_0--edge1-UVAHIK_clean_linker_0
_symmetry_space_group_name_H-M    P1
_symmetry_Int_Tables_number       1
_symmetry_cell_setting            triclinic
loop_
_symmetry_equiv_pos_as_xyz
'x, y, z'
_cell_length_a     64.175547
_cell_length_b     105.5058
_cell_length_c     45.32446
_cell_angle_alpha  89.995682
_cell_angle_beta   89.980281
_cell_angle_gamma 89.976989
loop_
_atom_site_label
_atom_site_type_symbol
_atom_site_fract_x
_atom_site_fract_y
_atom_site_fract_z
_atom_type_partial_charge
Co0 Co 0.39948 0.03755 0.16972 0.0
Co1 Co 0.38482 0.02782 0.10756 0.0
C2 C 0.39467 0.05526 0.11899 0.0
O3 O 0.39989 0.0526 0.14523 0.0
O4 O 0.38792 0.04677 0.10134 0.0
C5 C 0.39928 0.05407 0.21951 0.0
O6 O 0.3906 0.06206 0.20099 0.0
C7 C 0.35662 0.02422 0.05587 0.0
C8 C 0.36806 0.00591 0.03867 0.0
C9 C 0.35311 0.01517 0.03398 0.0
N10 N 0.37269 0.02032 0.0728 0.0
N11 N 0.37948 0.00941 0.0622 0.0
C12 C 0.3456 0.03661 0.05989 0.0
H13 H 0.3556 0.04347 0.07169 0.0
H14 H 0.33133 0.03515 0.07325 0.0
H15 H 0.34098 0.04061 0.0382 0.0
C16 C 0.35958 0.0261 0.18779 0.0
N17 N 0.37366 0.02904 0.16686 0.0
N18 N 0.36737 0.0246 0.14121 0.0
C19 C 0.34905 0.0185 0.14526 0.0
C20 C 0.34352 0.01929 0.17489 0.0
C21 C 0.36101 0.03049 0.21915 0.0
H22 H 0.37541 0.02665 0.22934 0.0
H23 H 0.36198 0.04097 0.2195 0.0
H24 H 0.34733 0.02762 0.23247 0.0
O25 O 0.4223 0.02639 0.15837 0.0
O26 O 0.41294 0.01938 0.11398 0.0
H27 H 0.34884 0.00613 0.10772 0.0
H28 H 0.32636 0.00457 0.13145 0.0
C29 C 0.33764 0.01137 0.12176 0.0
H30 H 0.32897 0.01816 0.10774 0.0
H31 H 0.39178 0.00425 0.07127 0.0
O32 O 0.40439 0.04307 0.21061 0.0
C33 C 0.42578 0.01979 0.1355 0.0
Co34 Co 0.86177 0.20697 0.16718 0.0
Co35 Co 0.86677 0.21822 0.1035 0.0
C36 C 0.86598 0.19 0.11603 0.0
O37 O 0.86457 0.19194 0.14351 0.0
O38 O 0.86622 0.1991 0.09747 0.0
C39 C 0.86769 0.19108 0.2182 0.0
O40 O 0.87227 0.1821 0.19919 0.0
C41 C 0.89159 0.22233 0.05001 0.0
C42 C 0.87856 0.24013 0.03223 0.0
C43 C 0.89436 0.23135 0.02796 0.0
N44 N 0.87529 0.22581 0.06688 0.0
N45 N 0.86738 0.23637 0.05585 0.0
C46 C 0.90373 0.21037 0.05476 0.0
H47 H 0.89283 0.20228 0.05671 0.0
H48 H 0.91252 0.211 0.07578 0.0
H49 H 0.91457 0.2084 0.03628 0.0
C50 C 0.89964 0.22158 0.17778 0.0
N51 N 0.88424 0.21777 0.15979 0.0
N52 N 0.88678 0.22281 0.13345 0.0
C53 C 0.90396 0.23027 0.13426 0.0
C54 C 0.91262 0.22958 0.16229 0.0
C55 C 0.90196 0.21756 0.20929 0.0
H56 H 0.88773 0.22022 0.22173 0.0
H57 H 0.90372 0.20711 0.21026 0.0
H58 H 0.91567 0.22202 0.21997 0.0
O59 O 0.8354 0.21553 0.15927 0.0
O60 O 0.83817 0.22475 0.11533 0.0
H61 H 0.89855 0.24262 0.09746 0.0
H62 H 0.92253 0.24567 0.11724 0.0
C63 C 0.9118 0.23817 0.10923 0.0
H64 H 0.92046 0.23208 0.09355 0.0
H65 H 0.85484 0.24124 0.06507 0.0
O66 O 0.86218 0.20194 0.20891 0.0
C67 C 0.82782 0.22236 0.1388 0.0
Co68 Co 0.39009 0.20476 0.0777 0.0
Co69 Co 0.38224 0.21726 0.1396 0.0
C70 C 0.38407 0.18878 0.13019 0.0
O71 O 0.38681 0.19015 0.10273 0.0
O72 O 0.38256 0.19825 0.14757 0.0
C73 C 0.38619 0.18786 0.02839 0.0
O74 O 0.37814 0.18002 0.04782 0.0
C75 C 0.35415 0.22308 0.18916 0.0
C76 C 0.36968 0.23937 0.21039 0.0
C77 C 0.35193 0.2319 0.21177 0.0
N78 N 0.37212 0.22542 0.17478 0.0
N79 N 0.38142 0.23509 0.18781 0.0
C80 C 0.33985 0.21229 0.18194 0.0
H81 H 0.34866 0.20434 0.17205 0.0
H82 H 0.32807 0.2154 0.16563 0.0
H83 H 0.33162 0.20896 0.20204 0.0
C84 C 0.35303 0.21946 0.062 0.0
N85 N 0.36719 0.21563 0.08194 0.0
N86 N 0.3639 0.22141 0.10726 0.0
C87 C 0.34766 0.22948 0.10376 0.0
C88 C 0.34024 0.22841 0.07505 0.0
C89 C 0.35136 0.21416 0.03145 0.0
H90 H 0.35118 0.20367 0.03263 0.0
H91 H 0.33701 0.21734 0.02003 0.0
H92 H 0.36518 0.21708 0.01841 0.0
O93 O 0.41594 0.21374 0.08708 0.0
O94 O 0.41125 0.22364 0.12988 0.0
H95 H 0.33359 0.24737 0.1152 0.0
H96 H 0.32858 0.23469 0.14051 0.0
C97 C 0.34063 0.23899 0.12616 0.0
H98 H 0.35392 0.24211 0.13993 0.0
H99 H 0.39556 0.23896 0.18089 0.0
O100 O 0.39226 0.19877 0.03663 0.0
C101 C 0.42257 0.22096 0.10751 0.0
Co102 Co 0.85277 0.03678 0.07829 0.0
Co103 Co 0.86478 0.02951 0.14313 0.0
C104 C 0.85261 0.05603 0.12625 0.0
O105 O 0.84882 0.0524 0.10015 0.0
O106 O 0.85963 0.04839 0.14567 0.0
C107 C 0.84695 0.0517 0.02561 0.0
O108 O 0.84332 0.06118 0.04367 0.0
C109 C 0.89276 0.02852 0.19493 0.0
C110 C 0.8814 0.01139 0.21782 0.0
C111 C 0.89669 0.02065 0.21897 0.0
N112 N 0.8762 0.02393 0.18009 0.0
N113 N 0.86935 0.01379 0.19416 0.0
C114 C 0.90394 0.04047 0.18676 0.0
H115 H 0.91635 0.03835 0.17051 0.0
H116 H 0.91116 0.04489 0.20649 0.0
H117 H 0.89303 0.04727 0.17638 0.0
C118 C 0.89446 0.02701 0.06619 0.0
N119 N 0.87926 0.02993 0.08539 0.0
N120 N 0.88435 0.02593 0.11194 0.0
C121 C 0.903 0.01994 0.11008 0.0
C122 C 0.90992 0.02049 0.08103 0.0
C123 C 0.89427 0.03062 0.03424 0.0
H124 H 0.88245 0.02483 0.02254 0.0
H125 H 0.88994 0.04075 0.03205 0.0
H126 H 0.90967 0.02918 0.02367 0.0
O127 O 0.83168 0.02434 0.08853 0.0
O128 O 0.83781 0.01989 0.13576 0.0
H129 H 0.90119 0.00875 0.14967 0.0
H130 H 0.92285 0.0049 0.12574 0.0
C131 C 0.91312 0.01272 0.13462 0.0
H132 H 0.92346 0.01914 0.14723 0.0
H133 H 0.85679 0.00828 0.18713 0.0
O134 O 0.85024 0.04069 0.03599 0.0
C135 C 0.82713 0.01851 0.11218 0.0
Co136 Co 0.60323 0.96545 0.82874 0.0
Co137 Co 0.61713 0.97158 0.8936 0.0
C138 C 0.60894 0.94496 0.8737 0.0
O139 O 0.60369 0.94909 0.84849 0.0
O140 O 0.61513 0.95245 0.89402 0.0
C141 C 0.59314 0.95181 0.77569 0.0
O142 O 0.5882 0.94245 0.79346 0.0
C143 C 0.64367 0.97274 0.94759 0.0
C144 C 0.63368 0.99113 0.96613 0.0
C145 C 0.64748 0.98122 0.97053 0.0
N146 N 0.62857 0.97759 0.93024 0.0
N147 N 0.62257 0.98852 0.94171 0.0
C148 C 0.65341 0.95999 0.94304 0.0
H149 H 0.64165 0.95318 0.93484 0.0
H150 H 0.66593 0.96069 0.92627 0.0
H151 H 0.66015 0.9563 0.96389 0.0
C152 C 0.64317 0.9774 0.81499 0.0
N153 N 0.62859 0.97389 0.83463 0.0
N154 N 0.63475 0.97686 0.86146 0.0
C155 C 0.65358 0.98259 0.85949 0.0
C156 C 0.65955 0.98295 0.82999 0.0
C157 C 0.64127 0.97551 0.78235 0.0
H158 H 0.62642 0.97973 0.77459 0.0
H159 H 0.64089 0.96521 0.77744 0.0
H160 H 0.65433 0.97996 0.77012 0.0
O161 O 0.58011 0.97565 0.84276 0.0
O162 O 0.58841 0.97951 0.88959 0.0
H163 H 0.65592 0.99268 0.90035 0.0
H164 H 0.67935 0.9931 0.87813 0.0
C165 C 0.66603 0.98715 0.88527 0.0
H166 H 0.67218 0.97888 0.89752 0.0
H167 H 0.61116 0.99434 0.93248 0.0
O168 O 0.59924 0.9623 0.78638 0.0
C169 C 0.57602 0.98052 0.86767 0.0
Co170 Co 0.14472 0.79232 0.82795 0.0
Co171 Co 0.13522 0.78454 0.8934 0.0
C172 C 0.14767 0.81106 0.87699 0.0
O173 O 0.15 0.80757 0.85044 0.0
O174 O 0.14132 0.80335 0.89676 0.0
C175 C 0.1441 0.80804 0.77619 0.0
O176 O 0.14302 0.8175 0.79494 0.0
C177 C 0.10918 0.78301 0.94712 0.0
C178 C 0.11863 0.76443 0.96511 0.0
C179 C 0.10451 0.77424 0.9692 0.0
N180 N 0.12483 0.77836 0.93048 0.0
N181 N 0.13062 0.76736 0.94173 0.0
C182 C 0.09941 0.79572 0.94204 0.0
H183 H 0.08656 0.79482 0.92584 0.0
H184 H 0.09313 0.79966 0.96294 0.0
H185 H 0.111 0.80239 0.9328 0.0
C186 C 0.10271 0.78259 0.81862 0.0
N187 N 0.11847 0.7856 0.8368 0.0
N188 N 0.11432 0.78154 0.86363 0.0
C189 C 0.09567 0.77552 0.86303 0.0
C190 C 0.0878 0.77608 0.83449 0.0
C191 C 0.10219 0.78569 0.78638 0.0
H192 H 0.11485 0.78048 0.77495 0.0
H193 H 0.10483 0.79599 0.78338 0.0
H194 H 0.08704 0.78319 0.77613 0.0
O195 O 0.16592 0.77962 0.8358 0.0
O196 O 0.1615 0.77467 0.88319 0.0
H197 H 0.09892 0.76301 0.90005 0.0
H198 H 0.07457 0.76139 0.88031 0.0
C199 C 0.0865 0.76822 0.88817 0.0
H200 H 0.0789 0.77487 0.90372 0.0
H201 H 0.14218 0.76159 0.93267 0.0
O202 O 0.14571 0.79676 0.78581 0.0
C203 C 0.17123 0.7735 0.85873 0.0
Co204 Co 0.61572 0.79287 0.91504 0.0
Co205 Co 0.62144 0.78249 0.85076 0.0
C206 C 0.62405 0.81046 0.86618 0.0
O207 O 0.62169 0.80811 0.89336 0.0
O208 O 0.62337 0.80171 0.84674 0.0
C209 C 0.6189 0.80787 0.968 0.0
O210 O 0.62259 0.81743 0.95021 0.0
C211 C 0.64808 0.77764 0.79932 0.0
C212 C 0.6324 0.76145 0.77794 0.0
C213 C 0.65015 0.76892 0.77646 0.0
N214 N 0.63028 0.7752 0.81397 0.0
N215 N 0.6208 0.76564 0.80075 0.0
C216 C 0.66246 0.78834 0.80693 0.0
H217 H 0.67138 0.78596 0.82712 0.0
H218 H 0.67342 0.79041 0.78862 0.0
H219 H 0.65329 0.79699 0.8117 0.0
C220 C 0.65074 0.77597 0.92691 0.0
N221 N 0.6368 0.78101 0.90816 0.0
N222 N 0.63956 0.77629 0.88157 0.0
C223 C 0.65532 0.76775 0.88292 0.0
C224 C 0.66285 0.76734 0.91167 0.0
C225 C 0.65321 0.78004 0.95838 0.0
H226 H 0.63938 0.77695 0.9712 0.0
H227 H 0.65409 0.79053 0.95941 0.0
H228 H 0.66746 0.77607 0.96865 0.0
O229 O 0.58851 0.78596 0.90425 0.0
O230 O 0.59183 0.77709 0.85995 0.0
H231 H 0.64872 0.75664 0.84435 0.0
H232 H 0.67018 0.75083 0.8664 0.0
C233 C 0.66226 0.75946 0.858 0.0
H234 H 0.67348 0.76471 0.84402 0.0
H235 H 0.60685 0.76164 0.80801 0.0
O236 O 0.615 0.79699 0.95731 0.0
C237 C 0.58092 0.77975 0.88274 0.0
Co238 Co 0.14266 0.96663 0.9184 0.0
Co239 Co 0.13324 0.97323 0.85234 0.0
C240 C 0.13753 0.94631 0.87371 0.0
O241 O 0.14059 0.95024 0.89974 0.0
O242 O 0.13502 0.95398 0.85222 0.0
C243 C 0.15278 0.95351 0.97137 0.0
O244 O 0.15998 0.94479 0.95337 0.0
C245 C 0.10663 0.97456 0.79898 0.0
C246 C 0.11955 0.99136 0.77643 0.0
C247 C 0.10373 0.98245 0.77468 0.0
N248 N 0.12309 0.97881 0.81457 0.0
N249 N 0.13086 0.98876 0.80071 0.0
C250 C 0.09453 0.96288 0.80674 0.0
H251 H 0.10482 0.95578 0.81724 0.0
H252 H 0.08209 0.9653 0.82274 0.0
H253 H 0.08728 0.95865 0.78682 0.0
C254 C 0.104 0.9803 0.92852 0.0
N255 N 0.11867 0.97587 0.91013 0.0
N256 N 0.11425 0.97909 0.88277 0.0
C257 C 0.09647 0.98603 0.88321 0.0
C258 C 0.0895 0.98699 0.91222 0.0
C259 C 0.10335 0.9774 0.96088 0.0
H260 H 0.11622 0.98251 0.97209 0.0
H261 H 0.10572 0.96709 0.9643 0.0
H262 H 0.08831 0.98015 0.97108 0.0
O263 O 0.16705 0.97618 0.90614 0.0
O264 O 0.16181 0.98103 0.85895 0.0
H265 H 0.09916 0.99596 0.84206 0.0
H266 H 0.07649 1.00018 0.86368 0.0
C267 C 0.08686 0.99228 0.8569 0.0
H268 H 0.07738 0.98526 0.84467 0.0
H269 H 0.14355 0.99401 0.80828 0.0
O270 O 0.14512 0.96366 0.96091 0.0
C271 C 0.1729 0.98141 0.88234 0.0
Co272 Co 0.3993 0.53882 0.66851 0.0
Co273 Co 0.38799 0.52983 0.60431 0.0
C274 C 0.39495 0.55738 0.61994 0.0
O275 O 0.39876 0.55436 0.64642 0.0
O276 O 0.39021 0.54904 0.60065 0.0
C277 C 0.40067 0.5542 0.72088 0.0
O278 O 0.39915 0.56384 0.70268 0.0
C279 C 0.36008 0.52714 0.55253 0.0
C280 C 0.37252 0.50983 0.53155 0.0
C281 C 0.35671 0.51873 0.52932 0.0
N282 N 0.37683 0.5232 0.56799 0.0
N283 N 0.38428 0.51292 0.55509 0.0
C284 C 0.34816 0.53901 0.55925 0.0
H285 H 0.35841 0.54614 0.56967 0.0
H286 H 0.33538 0.53687 0.57491 0.0
H287 H 0.34131 0.54305 0.53883 0.0
C288 C 0.36022 0.52592 0.68243 0.0
N289 N 0.37468 0.52956 0.66272 0.0
N290 N 0.36968 0.52533 0.63634 0.0
C291 C 0.35182 0.51856 0.63877 0.0
C292 C 0.34533 0.51876 0.66805 0.0
C293 C 0.36012 0.52993 0.71414 0.0
H294 H 0.37351 0.5255 0.72567 0.0
H295 H 0.36187 0.54037 0.71542 0.0
H296 H 0.3455 0.52727 0.72557 0.0
O297 O 0.42347 0.52908 0.65665 0.0
O298 O 0.41662 0.52196 0.61143 0.0
H299 H 0.35377 0.50717 0.59961 0.0
H300 H 0.33165 0.50367 0.623 0.0
C301 C 0.34174 0.51134 0.61422 0.0
H302 H 0.33188 0.51785 0.60109 0.0
H303 H 0.39713 0.50783 0.56275 0.0
O304 O 0.40195 0.54302 0.71062 0.0
C305 C 0.42867 0.52286 0.63382 0.0
Co306 Co 0.86916 0.70818 0.67213 0.0
Co307 Co 0.87333 0.71704 0.60646 0.0
C308 C 0.87682 0.6895 0.62518 0.0
O309 O 0.87512 0.6925 0.65211 0.0
O310 O 0.87549 0.69777 0.60469 0.0
C311 C 0.86436 0.69394 0.72536 0.0
O312 O 0.8562 0.68528 0.70805 0.0
C313 C 0.89851 0.72095 0.55312 0.0
C314 C 0.88196 0.73658 0.53079 0.0
C315 C 0.89979 0.72918 0.5292 0.0
N316 N 0.88106 0.72359 0.56843 0.0
N317 N 0.87105 0.73281 0.55465 0.0
C318 C 0.91325 0.71048 0.56114 0.0
H319 H 0.92208 0.7131 0.58125 0.0
H320 H 0.92426 0.70838 0.54291 0.0
H321 H 0.90432 0.70178 0.56631 0.0
C322 C 0.90368 0.7257 0.68052 0.0
N323 N 0.88964 0.72008 0.66292 0.0
N324 N 0.89195 0.7241 0.63562 0.0
C325 C 0.9076 0.73274 0.63533 0.0
C326 C 0.91543 0.73396 0.66378 0.0
C327 C 0.90647 0.7226 0.71252 0.0
H328 H 0.89247 0.72574 0.72489 0.0
H329 H 0.90802 0.71219 0.71518 0.0
H330 H 0.92045 0.72721 0.72207 0.0
O331 O 0.84145 0.71455 0.66193 0.0
O332 O 0.84377 0.72233 0.61639 0.0
H333 H 0.9006 0.7428 0.59537 0.0
H334 H 0.92247 0.74906 0.61591 0.0
C335 C 0.91429 0.74027 0.60903 0.0
H336 H 0.92523 0.73457 0.59556 0.0
H337 H 0.85723 0.73687 0.5622 0.0
O338 O 0.87 0.7045 0.71453 0.0
C339 C 0.83333 0.72015 0.63989 0.0
Co340 Co 0.3946 0.71067 0.57825 0.0
Co341 Co 0.38505 0.71943 0.64276 0.0
C342 C 0.38402 0.69188 0.62377 0.0
O343 O 0.38776 0.69489 0.59725 0.0
O344 O 0.38356 0.70015 0.64435 0.0
C345 C 0.40323 0.69651 0.52594 0.0
O346 O 0.40681 0.68711 0.54426 0.0
C347 C 0.35787 0.72223 0.69483 0.0
C348 C 0.36972 0.73993 0.71466 0.0
C349 C 0.35403 0.73097 0.71722 0.0
N350 N 0.37464 0.72609 0.67938 0.0
N351 N 0.38185 0.73655 0.69171 0.0
C352 C 0.34633 0.71019 0.68857 0.0
H353 H 0.33733 0.7112 0.66781 0.0
H354 H 0.33573 0.70758 0.70691 0.0
H355 H 0.35759 0.70235 0.68545 0.0
C356 C 0.35853 0.72641 0.56485 0.0
N357 N 0.37263 0.72198 0.58416 0.0
N358 N 0.36791 0.72577 0.611 0.0
C359 C 0.35055 0.73304 0.60936 0.0
C360 C 0.34411 0.73366 0.58006 0.0
C361 C 0.35762 0.72236 0.53317 0.0
H362 H 0.37098 0.72657 0.5211 0.0
H363 H 0.35901 0.7119 0.53184 0.0
H364 H 0.3429 0.72523 0.52228 0.0
O365 O 0.42084 0.71757 0.59257 0.0
O366 O 0.41474 0.72553 0.63711 0.0
H367 H 0.35223 0.7436 0.64967 0.0
H368 H 0.32936 0.74687 0.62768 0.0
C369 C 0.34028 0.73935 0.63508 0.0
H370 H 0.33138 0.73222 0.64785 0.0
H371 H 0.39457 0.74168 0.68372 0.0
O372 O 0.39818 0.70731 0.53602 0.0
C373 C 0.42696 0.72346 0.6154 0.0
Co374 Co 0.85542 0.53694 0.58492 0.0
Co375 Co 0.86883 0.52821 0.64826 0.0
C376 C 0.8586 0.55531 0.63489 0.0
O377 O 0.85387 0.55215 0.60876 0.0
O378 O 0.86538 0.54718 0.65341 0.0
C379 C 0.85819 0.55308 0.53479 0.0
O380 O 0.86562 0.56127 0.55392 0.0
C381 C 0.89479 0.52523 0.70248 0.0
C382 C 0.88596 0.50586 0.71607 0.0
C383 C 0.89903 0.51584 0.72325 0.0
N384 N 0.8802 0.52085 0.68365 0.0
N385 N 0.87489 0.50932 0.69218 0.0
C386 C 0.90372 0.53834 0.70129 0.0
H387 H 0.89171 0.54518 0.69401 0.0
H388 H 0.91669 0.53863 0.68515 0.0
H389 H 0.90969 0.54129 0.72322 0.0
C390 C 0.89616 0.526 0.56951 0.0
N391 N 0.88139 0.52883 0.58952 0.0
N392 N 0.88736 0.5249 0.61577 0.0
C393 C 0.90627 0.51931 0.61305 0.0
C394 C 0.91251 0.52001 0.58369 0.0
C395 C 0.89424 0.52846 0.53708 0.0
H396 H 0.87856 0.52557 0.52933 0.0
H397 H 0.89624 0.53874 0.53287 0.0
H398 H 0.90612 0.52317 0.52424 0.0
O399 O 0.83286 0.5255 0.59502 0.0
O400 O 0.84099 0.51952 0.64072 0.0
H401 H 0.90826 0.50699 0.65044 0.0
H402 H 0.93243 0.50862 0.63019 0.0
C403 C 0.91832 0.51367 0.63805 0.0
H404 H 0.9232 0.52131 0.65328 0.0
H405 H 0.864 0.50367 0.68127 0.0
O406 O 0.85219 0.54226 0.5437 0.0
C407 C 0.8289 0.51929 0.61833 0.0
Co408 Co 0.6104 0.45809 0.32821 0.0
Co409 Co 0.62007 0.4678 0.39226 0.0
C410 C 0.61143 0.44035 0.37909 0.0
O411 O 0.60868 0.44283 0.35202 0.0
O412 O 0.61596 0.44895 0.39779 0.0
C413 C 0.61473 0.44225 0.27716 0.0
O414 O 0.62108 0.43361 0.29601 0.0
C415 C 0.64524 0.47065 0.44683 0.0
C416 C 0.6374 0.49024 0.45985 0.0
C417 C 0.6503 0.48015 0.467 0.0
N418 N 0.63056 0.47512 0.42825 0.0
N419 N 0.62572 0.48676 0.43655 0.0
C420 C 0.65375 0.45744 0.4455 0.0
H421 H 0.66631 0.45695 0.42873 0.0
H422 H 0.66001 0.45445 0.46722 0.0
H423 H 0.64137 0.45072 0.43891 0.0
C424 C 0.65139 0.46915 0.31618 0.0
N425 N 0.63584 0.46632 0.33492 0.0
N426 N 0.6402 0.47078 0.36134 0.0
C427 C 0.65886 0.47676 0.35995 0.0
C428 C 0.66658 0.47573 0.33138 0.0
C429 C 0.65106 0.46637 0.28376 0.0
H430 H 0.63594 0.46942 0.27429 0.0
H431 H 0.65281 0.45602 0.28034 0.0
H432 H 0.66374 0.47134 0.27182 0.0
O433 O 0.58769 0.46984 0.33598 0.0
O434 O 0.59281 0.47658 0.38194 0.0
H435 H 0.65794 0.48985 0.39601 0.0
H436 H 0.68304 0.48878 0.37802 0.0
C437 C 0.66917 0.48333 0.38527 0.0
H438 H 0.67422 0.4762 0.40169 0.0
H439 H 0.61503 0.49252 0.42557 0.0
O440 O 0.60879 0.45299 0.28663 0.0
C441 C 0.58232 0.47656 0.35797 0.0
Co442 Co 0.13298 0.29233 0.32654 0.0
Co443 Co 0.13173 0.28242 0.39156 0.0
C444 C 0.13268 0.31029 0.37682 0.0
O445 O 0.13302 0.30769 0.34957 0.0
O446 O 0.13247 0.30161 0.39645 0.0
C447 C 0.13667 0.30785 0.27518 0.0
O448 O 0.14769 0.3153 0.29238 0.0
C449 C 0.10959 0.27727 0.44716 0.0
C450 C 0.1278 0.26136 0.46545 0.0
C451 C 0.10993 0.26851 0.47023 0.0
N452 N 0.12618 0.27517 0.42961 0.0
N453 N 0.13722 0.26581 0.44102 0.0
C454 C 0.09293 0.28672 0.44002 0.0
H455 H 0.09438 0.29001 0.41685 0.0
H456 H 0.07725 0.28258 0.44364 0.0
H457 H 0.09465 0.29505 0.45477 0.0
C458 C 0.09415 0.27833 0.32198 0.0
N459 N 0.11052 0.28229 0.33786 0.0
N460 N 0.10987 0.27731 0.36448 0.0
C461 C 0.09308 0.26951 0.36576 0.0
C462 C 0.08254 0.27015 0.33904 0.0
C463 C 0.09008 0.28205 0.29062 0.0
H464 H 0.10304 0.27856 0.27658 0.0
H465 H 0.08959 0.29253 0.28892 0.0
H466 H 0.07521 0.27808 0.28226 0.0
O467 O 0.15884 0.28266 0.33024 0.0
O468 O 0.1595 0.27576 0.3766 0.0
H469 H 0.10204 0.2581 0.40297 0.0
H470 H 0.07957 0.25236 0.38289 0.0
C471 C 0.08776 0.26096 0.39095 0.0
H472 H 0.07709 0.26596 0.40623 0.0
H473 H 0.15063 0.26207 0.43139 0.0
O474 O 0.12962 0.29747 0.28527 0.0
C475 C 0.16766 0.27653 0.35092 0.0
Co476 Co 0.60205 0.28832 0.41933 0.0
Co477 Co 0.61403 0.27926 0.35574 0.0
C478 C 0.6018 0.3062 0.36857 0.0
O479 O 0.59798 0.30331 0.39516 0.0
O480 O 0.60891 0.29805 0.35037 0.0
C481 C 0.59939 0.30476 0.46961 0.0
O482 O 0.60272 0.31387 0.45043 0.0
C483 C 0.64236 0.27687 0.30452 0.0
C484 C 0.63121 0.25913 0.2841 0.0
C485 C 0.64654 0.26833 0.28182 0.0
N486 N 0.62565 0.27271 0.31973 0.0
N487 N 0.61893 0.26219 0.30711 0.0
C488 C 0.65347 0.28903 0.31108 0.0
H489 H 0.64247 0.2961 0.32021 0.0
H490 H 0.66572 0.28736 0.32786 0.0
H491 H 0.66088 0.2929 0.29087 0.0
C492 C 0.64382 0.27882 0.43295 0.0
N493 N 0.62857 0.28126 0.41344 0.0
N494 N 0.63354 0.27651 0.38751 0.0
C495 C 0.65213 0.27053 0.39012 0.0
C496 C 0.65923 0.27187 0.41896 0.0
C497 C 0.64369 0.28338 0.46424 0.0
H498 H 0.63168 0.2781 0.47687 0.0
H499 H 0.63958 0.29358 0.46472 0.0
H500 H 0.65906 0.28215 0.47503 0.0
O501 O 0.58094 0.27564 0.41076 0.0
O502 O 0.58693 0.26988 0.36429 0.0
H503 H 0.64983 0.25815 0.35257 0.0
H504 H 0.6716 0.2549 0.37668 0.0
C505 C 0.66194 0.2625 0.36669 0.0
H506 H 0.67228 0.26844 0.35285 0.0
H507 H 0.6063 0.25688 0.31476 0.0
O508 O 0.59853 0.29333 0.46084 0.0
C509 C 0.57625 0.2692 0.38806 0.0
Co510 Co 0.14594 0.4631 0.41817 0.0
Co511 Co 0.1362 0.47155 0.35353 0.0
C512 C 0.14738 0.4447 0.3682 0.0
O513 O 0.15043 0.44794 0.39477 0.0
O514 O 0.14092 0.45264 0.34902 0.0
C515 C 0.14103 0.44715 0.46843 0.0
O516 O 0.13447 0.4388 0.44904 0.0
C517 C 0.11152 0.47406 0.29833 0.0
C518 C 0.12141 0.493 0.28304 0.0
C519 C 0.10776 0.48319 0.27675 0.0
N520 N 0.12632 0.47846 0.31679 0.0
N521 N 0.13234 0.4897 0.30719 0.0
C522 C 0.10189 0.46117 0.30077 0.0
H523 H 0.11374 0.45419 0.30796 0.0
H524 H 0.08937 0.46129 0.3176 0.0
H525 H 0.09523 0.45809 0.27935 0.0
C526 C 0.10396 0.47314 0.42872 0.0
N527 N 0.11985 0.47046 0.41042 0.0
N528 N 0.11554 0.47463 0.38373 0.0
C529 C 0.09659 0.48031 0.3845 0.0
C530 C 0.08858 0.47932 0.41295 0.0
C531 C 0.10414 0.47069 0.46128 0.0
H532 H 0.11917 0.47387 0.47078 0.0
H533 H 0.10245 0.46037 0.46524 0.0
H534 H 0.09134 0.47573 0.47278 0.0
O535 O 0.16772 0.47545 0.41113 0.0
O536 O 0.16334 0.48063 0.36394 0.0
H537 H 0.09798 0.4925 0.34671 0.0
H538 H 0.07329 0.49282 0.36594 0.0
C539 C 0.0864 0.4867 0.35881 0.0
H540 H 0.08014 0.47943 0.34361 0.0
H541 H 0.14344 0.49533 0.31772 0.0
O542 O 0.14726 0.45794 0.45962 0.0
C543 C 0.17329 0.48154 0.38831 0.0
Co544 Co 0.89456 0.03957 0.66891 0.0
Co545 Co 0.88436 0.0321 0.60369 0.0
C546 C 0.89545 0.05873 0.62039 0.0
O547 O 0.89868 0.05507 0.64663 0.0
O548 O 0.88909 0.05104 0.60061 0.0
C549 C 0.89206 0.05511 0.72029 0.0
O550 O 0.88615 0.06389 0.70153 0.0
C551 C 0.85908 0.03066 0.54904 0.0
C552 C 0.869 0.01216 0.53106 0.0
C553 C 0.8552 0.02206 0.52639 0.0
N554 N 0.87413 0.02589 0.56654 0.0
N555 N 0.88017 0.01491 0.55538 0.0
C556 C 0.84942 0.04346 0.55337 0.0
H557 H 0.86169 0.05046 0.55881 0.0
H558 H 0.83843 0.04317 0.57222 0.0
H559 H 0.84106 0.04665 0.53329 0.0
C560 C 0.85258 0.02968 0.67917 0.0
N561 N 0.86843 0.03244 0.6609 0.0
N562 N 0.86395 0.02861 0.63399 0.0
C563 C 0.84495 0.023 0.63461 0.0
C564 C 0.83708 0.02373 0.66318 0.0
C565 C 0.85292 0.03196 0.71179 0.0
H566 H 0.86764 0.02824 0.72119 0.0
H567 H 0.85225 0.04231 0.71603 0.0
H568 H 0.83966 0.02731 0.72314 0.0
O569 O 0.91618 0.02727 0.66027 0.0
O570 O 0.91143 0.02275 0.61281 0.0
H571 H 0.84613 0.01152 0.59559 0.0
H572 H 0.82184 0.0105 0.61566 0.0
C573 C 0.83456 0.01694 0.60865 0.0
H574 H 0.82771 0.02437 0.59443 0.0
H575 H 0.89147 0.00909 0.56489 0.0
O576 O 0.89659 0.0441 0.71085 0.0
C577 C 0.92152 0.02146 0.63694 0.0
Co578 Co 0.35774 0.21003 0.6717 0.0
Co579 Co 0.36536 0.21975 0.60697 0.0
C580 C 0.3586 0.19206 0.62179 0.0
O581 O 0.35651 0.19468 0.64889 0.0
O582 O 0.3624 0.20062 0.60261 0.0
C583 C 0.35031 0.19484 0.72345 0.0
O584 O 0.34103 0.18691 0.70537 0.0
C585 C 0.39087 0.22246 0.5531 0.0
C586 C 0.37901 0.24039 0.53442 0.0
C587 C 0.39413 0.23116 0.53046 0.0
N588 N 0.37492 0.22656 0.56996 0.0
N589 N 0.36774 0.2372 0.55838 0.0
C590 C 0.40218 0.21023 0.55823 0.0
H591 H 0.41358 0.21142 0.57639 0.0
H592 H 0.41046 0.20706 0.53805 0.0
H593 H 0.39103 0.20277 0.56495 0.0
C594 C 0.39803 0.22211 0.6814 0.0
N595 N 0.3822 0.21902 0.66343 0.0
N596 N 0.38555 0.22374 0.63696 0.0
C597 C 0.40362 0.23038 0.63771 0.0
C598 C 0.41215 0.22933 0.66577 0.0
C599 C 0.39907 0.21865 0.7134 0.0
H600 H 0.38538 0.22275 0.72492 0.0
H601 H 0.39841 0.20819 0.71571 0.0
H602 H 0.41344 0.22224 0.72411 0.0
O603 O 0.33316 0.22009 0.66315 0.0
O604 O 0.33734 0.22765 0.61767 0.0
H605 H 0.39968 0.24252 0.60015 0.0
H606 H 0.42353 0.24512 0.62055 0.0
C607 C 0.4124 0.23784 0.61256 0.0
H608 H 0.42089 0.2314 0.59748 0.0
H609 H 0.35558 0.2425 0.5674 0.0
O610 O 0.35756 0.2052 0.71357 0.0
C611 C 0.32664 0.22655 0.64136 0.0
Co612 Co 0.89512 0.21292 0.57498 0.0
Co613 Co 0.8846 0.22156 0.63936 0.0
C614 C 0.88496 0.19395 0.62047 0.0
O615 O 0.88886 0.19704 0.59404 0.0
O616 O 0.88379 0.20222 0.64101 0.0
C617 C 0.90657 0.19896 0.52378 0.0
O618 O 0.91208 0.19024 0.54294 0.0
C619 C 0.85646 0.2247 0.6906 0.0
C620 C 0.86935 0.24186 0.71165 0.0
C621 C 0.85296 0.23334 0.71333 0.0
N622 N 0.87376 0.2282 0.67583 0.0
N623 N 0.88155 0.23834 0.68888 0.0
C624 C 0.84406 0.21307 0.68345 0.0
H625 H 0.83383 0.21496 0.66424 0.0
H626 H 0.83439 0.21006 0.7025 0.0
H627 H 0.85464 0.2052 0.67742 0.0
C628 C 0.85871 0.22834 0.56084 0.0
N629 N 0.87264 0.22393 0.58043 0.0
N630 N 0.86773 0.22781 0.60714 0.0
C631 C 0.85053 0.23521 0.60507 0.0
C632 C 0.84426 0.23573 0.57568 0.0
C633 C 0.85811 0.22428 0.52916 0.0
H634 H 0.87121 0.2288 0.51714 0.0
H635 H 0.86015 0.21386 0.52779 0.0
H636 H 0.84323 0.22683 0.51827 0.0
O637 O 0.92111 0.22016 0.58971 0.0
O638 O 0.91424 0.22782 0.63437 0.0
H639 H 0.85268 0.24575 0.64542 0.0
H640 H 0.83077 0.25 0.62243 0.0
C641 C 0.84057 0.24202 0.63035 0.0
H642 H 0.83049 0.23537 0.64273 0.0
H643 H 0.89478 0.24315 0.68157 0.0
O644 O 0.89922 0.20943 0.53291 0.0
C645 C 0.92674 0.226 0.61286 0.0
Co646 Co 0.36111 0.03993 0.5802 0.0
Co647 Co 0.36924 0.03011 0.64439 0.0
C648 C 0.36648 0.05782 0.63035 0.0
O649 O 0.36305 0.05527 0.6035 0.0
O650 O 0.3691 0.04914 0.64955 0.0
C651 C 0.36982 0.05519 0.53008 0.0
O652 O 0.38078 0.06178 0.54915 0.0
C653 C 0.39421 0.02565 0.69806 0.0
C654 C 0.37692 0.00999 0.71905 0.0
C655 C 0.39455 0.01749 0.7224 0.0
N656 N 0.37743 0.02288 0.68142 0.0
N657 N 0.36705 0.01362 0.6943 0.0
C658 C 0.4099 0.03545 0.68931 0.0
H659 H 0.4074 0.03846 0.66611 0.0
H660 H 0.42595 0.03168 0.69178 0.0
H661 H 0.40815 0.04388 0.70373 0.0
C662 C 0.39954 0.02583 0.56808 0.0
N663 N 0.38466 0.02973 0.58686 0.0
N664 N 0.38845 0.02522 0.61345 0.0
C665 C 0.40596 0.01804 0.61201 0.0
C666 C 0.41366 0.01845 0.58335 0.0
C667 C 0.39986 0.0287 0.53572 0.0
H668 H 0.38409 0.02737 0.52629 0.0
H669 H 0.40465 0.0387 0.53243 0.0
H670 H 0.41092 0.02247 0.52371 0.0
O671 O 0.33591 0.03025 0.58871 0.0
O672 O 0.34059 0.0233 0.63459 0.0
H673 H 0.40299 0.00764 0.65257 0.0
H674 H 0.42436 0.00264 0.62936 0.0
C675 C 0.41531 0.01093 0.63728 0.0
H676 H 0.4262 0.01724 0.64927 0.0
H677 H 0.35345 0.00959 0.68587 0.0
O678 O 0.35998 0.04543 0.53877 0.0
C679 C 0.32966 0.02412 0.61115 0.0
Co680 Co 0.10686 0.95989 0.32969 0.0
Co681 Co 0.11581 0.96931 0.39407 0.0
C682 C 0.11039 0.94157 0.37884 0.0
O683 O 0.10717 0.94439 0.35207 0.0
O684 O 0.11432 0.95007 0.39813 0.0
C685 C 0.1088 0.94463 0.27723 0.0
O686 O 0.11282 0.93519 0.29523 0.0
C687 C 0.14209 0.97277 0.44694 0.0
C688 C 0.13039 0.991 0.4642 0.0
C689 C 0.14584 0.98198 0.46835 0.0
N690 N 0.12567 0.97643 0.43051 0.0
N691 N 0.11853 0.98722 0.44134 0.0
C692 C 0.1535 0.96053 0.44237 0.0
H693 H 0.16498 0.96163 0.42426 0.0
H694 H 0.16169 0.95754 0.46277 0.0
H695 H 0.14245 0.95298 0.43588 0.0
C696 C 0.14601 0.97323 0.31773 0.0
N697 N 0.13103 0.96947 0.33656 0.0
N698 N 0.13498 0.9739 0.36311 0.0
C699 C 0.15267 0.98089 0.36172 0.0
C700 C 0.16018 0.98065 0.33292 0.0
C701 C 0.1473 0.96906 0.28618 0.0
H702 H 0.13408 0.97319 0.27367 0.0
H703 H 0.14604 0.95859 0.28513 0.0
H704 H 0.16215 0.9719 0.27561 0.0
O705 O 0.08203 0.96938 0.33984 0.0
O706 O 0.08716 0.97676 0.38521 0.0
H707 H 0.14893 0.99289 0.39954 0.0
H708 H 0.17246 0.99576 0.3787 0.0
C709 C 0.16161 0.98834 0.38678 0.0
H710 H 0.17037 0.9819 0.40157 0.0
H711 H 0.10611 0.99229 0.43231 0.0
O712 O 0.10522 0.95559 0.28767 0.0
C713 C 0.07586 0.97562 0.36214 0.0
Co714 Co 0.64561 0.78873 0.33024 0.0
Co715 Co 0.63492 0.78123 0.39532 0.0
C716 C 0.63824 0.80852 0.37511 0.0
O717 O 0.64179 0.80499 0.34889 0.0
O718 O 0.63603 0.80054 0.39609 0.0
C719 C 0.65547 0.80205 0.27708 0.0
O720 O 0.6609 0.8113 0.29488 0.0
C721 C 0.60734 0.77908 0.44754 0.0
C722 C 0.62142 0.76282 0.47086 0.0
C723 C 0.60477 0.77117 0.47187 0.0
N724 N 0.62446 0.77537 0.43264 0.0
N725 N 0.63293 0.76576 0.44698 0.0
C726 C 0.59431 0.79031 0.4392 0.0
H727 H 0.58288 0.78755 0.42207 0.0
H728 H 0.58577 0.79407 0.45863 0.0
H729 H 0.60426 0.79788 0.42982 0.0
C730 C 0.60746 0.77466 0.31793 0.0
N731 N 0.62186 0.77885 0.33705 0.0
N732 N 0.61692 0.77533 0.36403 0.0
C733 C 0.59924 0.76834 0.36258 0.0
C734 C 0.5927 0.76775 0.33334 0.0
C735 C 0.60698 0.77826 0.28596 0.0
H736 H 0.6197 0.77325 0.27419 0.0
H737 H 0.60967 0.7886 0.28375 0.0
H738 H 0.59188 0.77593 0.2754 0.0
O739 O 0.67085 0.78018 0.34395 0.0
O740 O 0.66355 0.77364 0.38944 0.0
H741 H 0.60133 0.75859 0.40413 0.0
H742 H 0.58045 0.75326 0.38042 0.0
C743 C 0.58933 0.76166 0.38809 0.0
H744 H 0.57825 0.76814 0.39919 0.0
H745 H 0.64626 0.76095 0.43999 0.0
O746 O 0.64898 0.79165 0.28778 0.0
C747 C 0.6759 0.77439 0.36743 0.0
Co748 Co 0.11276 0.79095 0.41754 0.0
Co749 Co 0.12027 0.77989 0.35437 0.0
C750 C 0.12361 0.8079 0.3682 0.0
O751 O 0.11999 0.80586 0.39526 0.0
O752 O 0.12345 0.79898 0.34913 0.0
C753 C 0.10843 0.80695 0.46859 0.0
O754 O 0.10766 0.81635 0.44963 0.0
C755 C 0.14627 0.77362 0.30254 0.0
C756 C 0.12865 0.75775 0.28296 0.0
C757 C 0.14688 0.7647 0.27983 0.0
N758 N 0.12868 0.77186 0.31826 0.0
N759 N 0.11809 0.76248 0.30613 0.0
C760 C 0.16277 0.78295 0.31101 0.0
H761 H 0.16049 0.78619 0.33409 0.0
H762 H 0.17849 0.7787 0.30855 0.0
H763 H 0.16174 0.79132 0.29626 0.0
C764 C 0.14753 0.77436 0.43237 0.0
N765 N 0.1337 0.77881 0.4127 0.0
N766 N 0.13745 0.77391 0.3865 0.0
C767 C 0.15381 0.76588 0.38907 0.0
C768 C 0.16068 0.76595 0.41818 0.0
C769 C 0.14934 0.77922 0.46334 0.0
H770 H 0.13563 0.77601 0.47627 0.0
H771 H 0.1493 0.78973 0.46309 0.0
H772 H 0.16377 0.77594 0.47438 0.0
O773 O 0.08565 0.78428 0.40588 0.0
O774 O 0.09023 0.775 0.3624 0.0
H775 H 0.15001 0.75489 0.34955 0.0
H776 H 0.17081 0.74958 0.3735 0.0
C777 C 0.16259 0.75802 0.3646 0.0
H778 H 0.17403 0.76373 0.35202 0.0
H779 H 0.104 0.75901 0.31429 0.0
O780 O 0.11039 0.79565 0.45932 0.0
C781 C 0.07863 0.77792 0.38427 0.0
Co782 Co 0.64813 0.96257 0.42103 0.0
Co783 Co 0.63728 0.97009 0.35587 0.0
C784 C 0.65003 0.94367 0.37185 0.0
O785 O 0.65305 0.94727 0.3982 0.0
O786 O 0.6432 0.9513 0.35223 0.0
C787 C 0.64522 0.94691 0.47227 0.0
O788 O 0.64057 0.93795 0.45326 0.0
C789 C 0.61249 0.97168 0.30034 0.0
C790 C 0.61828 0.99158 0.28777 0.0
C791 C 0.6066 0.98102 0.28016 0.0
N792 N 0.62641 0.9767 0.31934 0.0
N793 N 0.63005 0.98852 0.31126 0.0
C794 C 0.60555 0.95814 0.30129 0.0
H795 H 0.59222 0.95715 0.31669 0.0
H796 H 0.60075 0.95483 0.27906 0.0
H797 H 0.61833 0.95201 0.30938 0.0
C798 C 0.6055 0.97147 0.43148 0.0
N799 N 0.62157 0.96917 0.41321 0.0
N800 N 0.61671 0.9728 0.38628 0.0
C801 C 0.59718 0.97768 0.38684 0.0
C802 C 0.58946 0.97679 0.41541 0.0
C803 C 0.60596 0.96934 0.46415 0.0
H804 H 0.62056 0.97328 0.47345 0.0
H805 H 0.60555 0.95901 0.46864 0.0
H806 H 0.59255 0.97389 0.4754 0.0
O807 O 0.66906 0.97533 0.41281 0.0
O808 O 0.66383 0.97991 0.36544 0.0
H809 H 0.59613 0.99001 0.34939 0.0
H810 H 0.57121 0.98772 0.36723 0.0
C811 C 0.586 0.98304 0.36072 0.0
H812 H 0.58233 0.97531 0.34508 0.0
H813 H 0.6399 0.99469 0.3226 0.0
O814 O 0.64983 0.95791 0.4629 0.0
C815 C 0.67397 0.98132 0.38952 0.0
Co816 Co 0.8947 0.53786 0.17298 0.0
Co817 Co 0.88681 0.53206 0.1061 0.0
C818 C 0.89161 0.55868 0.12882 0.0
O819 O 0.89406 0.55444 0.15475 0.0
O820 O 0.88915 0.55127 0.10682 0.0
C821 C 0.90262 0.55048 0.22774 0.0
O822 O 0.91028 0.55959 0.21122 0.0
C823 C 0.86263 0.53152 0.05034 0.0
C824 C 0.87155 0.51278 0.0327 0.0
C825 C 0.85813 0.52288 0.02792 0.0
N826 N 0.87745 0.5265 0.0679 0.0
N827 N 0.88298 0.51542 0.05681 0.0
C828 C 0.85353 0.54445 0.05477 0.0
H829 H 0.84134 0.54408 0.07208 0.0
H830 H 0.8467 0.54816 0.03401 0.0
H831 H 0.86578 0.55109 0.06228 0.0
C832 C 0.85458 0.52545 0.18001 0.0
N833 N 0.87044 0.52926 0.16289 0.0
N834 N 0.86654 0.5265 0.13511 0.0
C835 C 0.84783 0.52055 0.13396 0.0
C836 C 0.83968 0.51987 0.16234 0.0
C837 C 0.85386 0.52712 0.21281 0.0
H838 H 0.86792 0.52275 0.22274 0.0
H839 H 0.85401 0.53738 0.21815 0.0
H840 H 0.83982 0.52269 0.2227 0.0
O841 O 0.91887 0.52782 0.162 0.0
O842 O 0.91488 0.52376 0.11418 0.0
H843 H 0.84897 0.51038 0.09313 0.0
H844 H 0.824 0.50974 0.11156 0.0
C845 C 0.83761 0.51585 0.10643 0.0
H846 H 0.83216 0.52403 0.09321 0.0
H847 H 0.89386 0.50937 0.06654 0.0
O848 O 0.89566 0.54047 0.21572 0.0
C849 C 0.92519 0.52277 0.1382 0.0
Co850 Co 0.36262 0.70997 0.1677 0.0
Co851 Co 0.37159 0.72001 0.10393 0.0
C852 C 0.37399 0.69221 0.12001 0.0
O853 O 0.36989 0.6947 0.14671 0.0
O854 O 0.37434 0.70084 0.10026 0.0
C855 C 0.36055 0.69449 0.21991 0.0
O856 O 0.3606 0.68483 0.20164 0.0
C857 C 0.39876 0.72448 0.05268 0.0
C858 C 0.384 0.74109 0.03168 0.0
C859 C 0.40111 0.73312 0.02971 0.0
N860 N 0.38132 0.7274 0.06775 0.0
N861 N 0.37243 0.73724 0.05482 0.0
C862 C 0.41215 0.71323 0.05964 0.0
H863 H 0.41846 0.7141 0.08232 0.0
H864 H 0.42502 0.71205 0.04357 0.0
H865 H 0.40241 0.70456 0.05913 0.0
C866 C 0.3977 0.72642 0.1823 0.0
N867 N 0.38403 0.72182 0.16258 0.0
N868 N 0.38842 0.7262 0.13611 0.0
C869 C 0.40508 0.73402 0.13846 0.0
C870 C 0.41143 0.73438 0.1678 0.0
C871 C 0.39888 0.72207 0.21374 0.0
H872 H 0.38485 0.72541 0.22574 0.0
H873 H 0.39905 0.71156 0.21439 0.0
H874 H 0.413 0.72558 0.22516 0.0
O875 O 0.33581 0.71674 0.15475 0.0
O876 O 0.34158 0.72532 0.11065 0.0
H877 H 0.40229 0.74487 0.09861 0.0
H878 H 0.424 0.74934 0.12181 0.0
C879 C 0.41462 0.74126 0.1135 0.0
H880 H 0.42506 0.73492 0.10079 0.0
H881 H 0.35881 0.74157 0.06233 0.0
O882 O 0.36039 0.70572 0.20976 0.0
C883 C 0.3295 0.72285 0.13232 0.0
Co884 Co 0.89979 0.71176 0.07804 0.0
Co885 Co 0.88525 0.72082 0.14084 0.0
C886 C 0.89888 0.69413 0.12989 0.0
O887 O 0.90315 0.69718 0.10353 0.0
O888 O 0.89101 0.70214 0.14783 0.0
C889 C 0.89986 0.69436 0.03023 0.0
O890 O 0.8923 0.68661 0.05022 0.0
C891 C 0.85773 0.7241 0.19359 0.0
C892 C 0.86571 0.74371 0.20616 0.0
C893 C 0.85256 0.73376 0.21344 0.0
N894 N 0.87282 0.72836 0.17537 0.0
N895 N 0.87762 0.74004 0.18332 0.0
C896 C 0.84905 0.71094 0.19225 0.0
H897 H 0.83434 0.71098 0.17944 0.0
H898 H 0.84579 0.70735 0.2148 0.0
H899 H 0.86007 0.70446 0.18109 0.0
C900 C 0.85843 0.7212 0.06143 0.0
N901 N 0.87302 0.71878 0.08195 0.0
N902 N 0.86665 0.72293 0.10783 0.0
C903 C 0.84764 0.72829 0.10433 0.0
C904 C 0.84187 0.72735 0.07482 0.0
C905 C 0.86014 0.7172 0.02981 0.0
H906 H 0.87415 0.72159 0.01977 0.0
H907 H 0.86201 0.70676 0.02885 0.0
H908 H 0.84618 0.71975 0.01674 0.0
O909 O 0.92074 0.72447 0.08721 0.0
O910 O 0.91213 0.73044 0.13277 0.0
H911 H 0.84648 0.74142 0.14032 0.0
H912 H 0.82275 0.74062 0.11904 0.0
C913 C 0.83586 0.735 0.12815 0.0
H914 H 0.82955 0.72793 0.14385 0.0
H915 H 0.88868 0.74564 0.17262 0.0
O916 O 0.90427 0.7057 0.03741 0.0
C917 C 0.92403 0.73104 0.1102 0.0
Co918 Co 0.35885 0.53801 0.07812 0.0
Co919 Co 0.37082 0.53024 0.14278 0.0
C920 C 0.36523 0.55759 0.12403 0.0
O921 O 0.36085 0.55408 0.09803 0.0
O922 O 0.36971 0.54957 0.14419 0.0
C923 C 0.34999 0.55191 0.02509 0.0
O924 O 0.3463 0.5615 0.04283 0.0
C925 C 0.3989 0.52778 0.19456 0.0
C926 C 0.38523 0.51121 0.21718 0.0
C927 C 0.40167 0.5197 0.21856 0.0
N928 N 0.38185 0.52404 0.17952 0.0
N929 N 0.37368 0.51421 0.1934 0.0
C930 C 0.41163 0.53919 0.18673 0.0
H931 H 0.40193 0.54633 0.17526 0.0
H932 H 0.42441 0.53642 0.17162 0.0
H933 H 0.41857 0.54348 0.20681 0.0
C934 C 0.39733 0.5244 0.06442 0.0
N935 N 0.38313 0.52845 0.08407 0.0
N936 N 0.38835 0.52467 0.11073 0.0
C937 C 0.40602 0.5177 0.10858 0.0
C938 C 0.41226 0.51736 0.07916 0.0
C939 C 0.39733 0.52816 0.03253 0.0
H940 H 0.38459 0.52308 0.02096 0.0
H941 H 0.39437 0.53848 0.03064 0.0
H942 H 0.41236 0.52599 0.02157 0.0
O943 O 0.33435 0.52911 0.09208 0.0
O944 O 0.34175 0.52285 0.13775 0.0
H945 H 0.40427 0.50735 0.14931 0.0
H946 H 0.42556 0.50274 0.12547 0.0
C947 C 0.41619 0.51086 0.13364 0.0
H948 H 0.42679 0.51742 0.14538 0.0
H949 H 0.36045 0.50936 0.18626 0.0
O950 O 0.35499 0.54121 0.0358 0.0
C951 C 0.32931 0.5235 0.1158 0.0
Co952 Co 0.11116 0.46579 0.82797 0.0
Co953 Co 0.1208 0.47148 0.8942 0.0
C954 C 0.11651 0.44487 0.87109 0.0
O955 O 0.11317 0.44912 0.84539 0.0
O956 O 0.11927 0.45228 0.893 0.0
C957 C 0.09939 0.45372 0.77454 0.0
O958 O 0.09112 0.44526 0.79227 0.0
C959 C 0.1479 0.472 0.94653 0.0
C960 C 0.13442 0.48777 0.97226 0.0
C961 C 0.15076 0.47918 0.97196 0.0
N962 N 0.13093 0.47634 0.93232 0.0
N963 N 0.12278 0.48564 0.94805 0.0
C964 C 0.16039 0.46082 0.93635 0.0
H965 H 0.16779 0.46296 0.91482 0.0
H966 H 0.17242 0.45805 0.95268 0.0
H967 H 0.14979 0.45267 0.93277 0.0
C968 C 0.15003 0.47932 0.81849 0.0
N969 N 0.13527 0.47484 0.83666 0.0
N970 N 0.13974 0.47778 0.86417 0.0
C971 C 0.15763 0.48462 0.86407 0.0
C972 C 0.16464 0.48578 0.83511 0.0
C973 C 0.15072 0.47661 0.78605 0.0
H974 H 0.13818 0.48204 0.77487 0.0
H975 H 0.14785 0.46638 0.78224 0.0
H976 H 0.16594 0.47913 0.7761 0.0
O977 O 0.08687 0.47529 0.84103 0.0
O978 O 0.09221 0.47933 0.88858 0.0
H979 H 0.15511 0.49363 0.90644 0.0
H980 H 0.17685 0.49895 0.88422 0.0
C981 C 0.16732 0.49062 0.89064 0.0
H982 H 0.17773 0.48369 0.9016 0.0
H983 H 0.10964 0.49081 0.9418 0.0
O984 O 0.1084 0.46338 0.78533 0.0
C985 C 0.08108 0.48014 0.8653 0.0
Co986 Co 0.63657 0.29133 0.82897 0.0
Co987 Co 0.63166 0.28267 0.89489 0.0
C988 C 0.6365 0.31011 0.87762 0.0
O989 O 0.63765 0.30703 0.85068 0.0
O990 O 0.63456 0.30182 0.89794 0.0
C991 C 0.63583 0.30668 0.7763 0.0
O992 O 0.63858 0.31634 0.79414 0.0
C993 C 0.60685 0.28022 0.94909 0.0
C994 C 0.61945 0.26268 0.96874 0.0
C995 C 0.6037 0.27159 0.97193 0.0
N996 N 0.62323 0.27635 0.93283 0.0
N997 N 0.63095 0.26599 0.94508 0.0
C998 C 0.59482 0.29209 0.94286 0.0
H999 H 0.58458 0.29064 0.92347 0.0
H1000 H 0.58528 0.29498 0.96214 0.0
H1001 H 0.60573 0.29987 0.93733 0.0
C1002 C 0.59603 0.27931 0.82301 0.0
N1003 N 0.61248 0.28263 0.83956 0.0
N1004 N 0.61027 0.27818 0.86653 0.0
C1005 C 0.59233 0.27139 0.86743 0.0
C1006 C 0.58269 0.27215 0.84005 0.0
C1007 C 0.5937 0.28246 0.79095 0.0
H1008 H 0.60689 0.27825 0.77854 0.0
H1009 H 0.59425 0.29289 0.78804 0.0
H1010 H 0.57892 0.27878 0.78161 0.0
O1011 O 0.66082 0.28057 0.8359 0.0
O1012 O 0.65907 0.2745 0.88291 0.0
H1013 H 0.59826 0.25981 0.9055 0.0
H1014 H 0.57457 0.25596 0.88586 0.0
C1015 C 0.58486 0.2638 0.89322 0.0
H1016 H 0.57569 0.26996 0.90813 0.0
H1017 H 0.64341 0.26084 0.93646 0.0
O1018 O 0.63537 0.2955 0.78669 0.0
C1019 C 0.66814 0.2745 0.8578 0.0
Co1020 Co 0.10483 0.2914 0.92253 0.0
Co1021 Co 0.11475 0.28281 0.85794 0.0
C1022 C 0.1034 0.30963 0.87233 0.0
O1023 O 0.10041 0.30638 0.89887 0.0
O1024 O 0.10982 0.30165 0.85325 0.0
C1025 C 0.10825 0.30819 0.9709 0.0
O1026 O 0.11619 0.31567 0.95065 0.0
C1027 C 0.14236 0.28077 0.80628 0.0
C1028 C 0.13039 0.26362 0.78413 0.0
C1029 C 0.14613 0.27261 0.78274 0.0
N1030 N 0.12552 0.2766 0.82114 0.0
N1031 N 0.11827 0.26645 0.80749 0.0
C1032 C 0.1541 0.29256 0.81417 0.0
H1033 H 0.14337 0.29975 0.82347 0.0
H1034 H 0.16591 0.29038 0.83125 0.0
H1035 H 0.16208 0.29656 0.79454 0.0
C1036 C 0.14627 0.28088 0.93376 0.0
N1037 N 0.13093 0.28408 0.91503 0.0
N1038 N 0.13497 0.27951 0.8886 0.0
C1039 C 0.15301 0.27287 0.89009 0.0
C1040 C 0.16075 0.2736 0.91872 0.0
C1041 C 0.14694 0.28485 0.96548 0.0
H1042 H 0.14519 0.29527 0.96683 0.0
H1043 H 0.16181 0.28224 0.97631 0.0
H1044 H 0.13375 0.28043 0.97753 0.0
O1045 O 0.08318 0.27893 0.91479 0.0
O1046 O 0.08769 0.27363 0.86762 0.0
H1047 H 0.17062 0.25666 0.87521 0.0
H1048 H 0.17187 0.27027 0.85164 0.0
C1049 C 0.16141 0.26463 0.86597 0.0
H1050 H 0.14851 0.26076 0.85246 0.0
H1051 H 0.10544 0.26121 0.81468 0.0
O1052 O 0.10258 0.29704 0.96383 0.0
C1053 C 0.07769 0.27277 0.89197 0.0
Co1054 Co 0.65288 0.46474 0.91984 0.0
Co1055 Co 0.6395 0.47152 0.85521 0.0
C1056 C 0.65163 0.445 0.87312 0.0
O1057 O 0.65564 0.4488 0.89903 0.0
O1058 O 0.64475 0.45258 0.85344 0.0
C1059 C 0.66338 0.45098 0.97264 0.0
O1060 O 0.66896 0.44183 0.95465 0.0
C1061 C 0.61067 0.472 0.80416 0.0
C1062 C 0.62218 0.48867 0.77961 0.0
C1063 C 0.60673 0.4795 0.77948 0.0
N1064 N 0.62743 0.47671 0.81834 0.0
N1065 N 0.63433 0.48658 0.80332 0.0
C1066 C 0.59936 0.46025 0.81344 0.0
H1067 H 0.58641 0.46276 0.82849 0.0
H1068 H 0.59277 0.45529 0.79396 0.0
H1069 H 0.60997 0.45379 0.8255 0.0
C1070 C 0.61141 0.47475 0.93325 0.0
N1071 N 0.62633 0.47176 0.91364 0.0
N1072 N 0.62066 0.47545 0.88707 0.0
C1073 C 0.60197 0.48134 0.88931 0.0
C1074 C 0.59552 0.48102 0.91863 0.0
C1075 C 0.61211 0.47112 0.96519 0.0
H1076 H 0.62358 0.47722 0.97676 0.0
H1077 H 0.61725 0.46113 0.9673 0.0
H1078 H 0.59668 0.47211 0.97595 0.0
O1079 O 0.67436 0.47663 0.90747 0.0
O1080 O 0.66648 0.48126 0.86086 0.0
H1081 H 0.60291 0.49194 0.84877 0.0
H1082 H 0.58198 0.49628 0.87348 0.0
C1083 C 0.59133 0.48826 0.86474 0.0
H1084 H 0.58055 0.48173 0.85322 0.0
H1085 H 0.64709 0.49208 0.80962 0.0
O1086 O 0.6568 0.46142 0.96218 0.0
C1087 C 0.67819 0.48239 0.88349 0.0
C1088 C 0.1935 0.99847 0.9052 0.0
C1089 C 0.19221 0.98889 0.88383 0.0
C1090 C 0.21273 0.00356 0.9132 0.0
C1091 C 0.26716 0.9936 0.91835 0.0
H1092 H 0.27427 0.02757 0.94946 0.0
C1093 C 0.34062 0.00817 0.98424 0.0
C1094 C 0.33666 0.01458 0.01089 0.0
C1095 C 0.32484 0.00653 0.96326 0.0
C1096 C 0.27254 0.01805 0.94087 0.0
H1097 H 0.20975 0.97744 0.85303 0.0
H1098 H 0.24372 0.98646 0.86679 0.0
H1099 H 0.24356 0.02255 0.91994 0.0
H1100 H 0.31258 0.0239 0.03657 0.0
H1101 H 0.28534 0.02134 -0.00014 0.0
H1102 H 0.29586 0.98903 0.93995 0.0
C1103 C 0.22978 0.99003 0.87741 0.0
C1104 C 0.25496 0.01517 0.9239 0.0
C1105 C 0.21038 0.98498 0.86922 0.0
C1106 C 0.31656 0.0194 0.01591 0.0
C1107 C 0.30082 0.01784 0.99486 0.0
C1108 C 0.28481 0.99651 0.93518 0.0
C1109 C 0.23123 0.99909 0.90023 0.0
C1110 C 0.2517 0.0028 0.9132 0.0
C1111 C 0.3047 0.01126 0.96842 0.0
C1112 C 0.2874 0.00867 0.94736 0.0
H1113 H 0.17969 0.00148 0.91705 0.0
H1114 H 0.21314 0.01036 0.93109 0.0
H1115 H 0.26508 0.98394 0.91086 0.0
H1116 H 0.35591 0.00428 0.9797 0.0
H1117 H 0.32838 0.00148 0.94307 0.0
C1118 C 0.05756 0.25708 0.92079 0.0
C1119 C 0.05942 0.26439 0.89506 0.0
C1120 C 0.03894 0.25094 0.92754 0.0
C1121 C 0.98323 0.25504 0.91817 0.0
H1122 H 0.98106 0.22293 0.95971 0.0
C1123 C 0.90857 0.23765 0.9785 0.0
C1124 C 0.91196 0.23278 0.00697 0.0
C1125 C 0.92536 0.23978 0.95933 0.0
C1126 C 0.98138 0.23192 0.94817 0.0
H1127 H 0.04361 0.27066 0.85552 0.0
H1128 H 0.01054 0.25999 0.86756 0.0
H1129 H 0.01294 0.22916 0.93424 0.0
H1130 H 0.93575 0.22711 0.03826 0.0
H1131 H 0.96484 0.2306 0.00492 0.0
H1132 H 0.95195 0.25805 0.93319 0.0
C1133 C 0.02367 0.25896 0.88238 0.0
C1134 C 0.99962 0.23546 0.93347 0.0
C1135 C 0.04258 0.26496 0.87534 0.0
C1136 C 0.93248 0.23027 0.01602 0.0
C1137 C 0.94921 0.23235 0.9969 0.0
C1138 C 0.96495 0.2515 0.93293 0.0
C1139 C 0.02155 0.25211 0.90892 0.0
C1140 C 1.001 0.24725 0.91913 0.0
C1141 C 0.9459 0.23717 0.96833 0.0
C1142 C 0.96405 0.24008 0.94894 0.0
H1143 H 0.07032 0.25654 0.93641 0.0
H1144 H 0.03782 0.2459 0.9483 0.0
H1145 H 0.98384 0.26424 0.90758 0.0
H1146 H 0.89293 0.23983 0.9711 0.0
H1147 H 0.92226 0.2435 0.9375 0.0
C1148 C 0.18981 0.26519 0.31453 0.0
C1149 C 0.18708 0.26961 0.34353 0.0
C1150 C 0.2082 0.25919 0.30609 0.0
C1151 C 0.26342 0.25836 0.31969 0.0
H1152 H 0.26129 0.22807 0.27128 0.0
C1153 C 0.33688 0.23831 0.26067 0.0
C1154 C 0.33384 0.23409 0.23157 0.0
C1155 C 0.31981 0.2411 0.27888 0.0
C1156 C 0.2622 0.23657 0.28461 0.0
H1157 H 0.20148 0.27107 0.3866 0.0
H1158 H 0.23433 0.26079 0.37141 0.0
H1159 H 0.2298 0.2356 0.29573 0.0
H1160 H 0.31045 0.23017 0.19832 0.0
H1161 H 0.28088 0.23496 0.22973 0.0
H1162 H 0.29557 0.25974 0.30732 0.0
C1163 C 0.22191 0.26191 0.35543 0.0
C1164 C 0.24417 0.24082 0.2988 0.0
C1165 C 0.20316 0.26773 0.36414 0.0
C1166 C 0.31339 0.23285 0.22097 0.0
C1167 C 0.29637 0.23567 0.23906 0.0
C1168 C 0.28149 0.25417 0.30523 0.0
C1169 C 0.22456 0.2576 0.32626 0.0
C1170 C 0.24445 0.25194 0.31583 0.0
C1171 C 0.2993 0.23985 0.26826 0.0
C1172 C 0.28095 0.24342 0.28679 0.0
H1173 H 0.17767 0.26642 0.29815 0.0
H1174 H 0.20984 0.2561 0.2834 0.0
H1175 H 0.26404 0.26702 0.33249 0.0
H1176 H 0.35248 0.23947 0.26936 0.0
H1177 H 0.3227 0.24423 0.30126 0.0
C1178 C 0.91241 0.01573 0.26821 0.0
C1179 C 0.91477 0.02046 0.2394 0.0
C1180 C 0.92981 0.01364 0.28621 0.0
C1181 C 0.9845 0.00518 0.27764 0.0
H1182 H 0.98757 0.00915 0.36268 0.0
C1183 C 0.03954 0.97502 0.34419 0.0
C1184 C 0.05509 0.98158 0.35976 0.0
C1185 C 0.02172 0.98126 0.33447 0.0
C1186 C 0.98694 0.00811 0.33893 0.0
H1187 H 0.93742 0.0268 0.20707 0.0
H1188 H 0.96759 0.02348 0.23855 0.0
H1189 H 0.95814 0.01842 0.33524 0.0
H1190 H 0.06345 0.99956 0.37948 0.0
H1191 H 0.03176 0.01062 0.3624 0.0
H1192 H 0.01278 0.99459 0.28122 0.0
C1193 C 0.95225 0.02141 0.24731 0.0
C1194 C 0.97011 0.01333 0.32326 0.0
C1195 C 0.93487 0.02351 0.22937 0.0
C1196 C 0.05161 0.99429 0.36769 0.0
C1197 C 0.03358 0.0006 0.35783 0.0
C1198 C 1.00106 0.99989 0.29324 0.0
C1199 C 0.94999 0.01612 0.27563 0.0
C1200 C 0.96861 0.01178 0.29244 0.0
C1201 C 0.01899 0.99423 0.34002 0.0
C1202 C 0.00229 0.00109 0.32404 0.0
H1203 H 0.89712 0.01321 0.27649 0.0
H1204 H 0.92752 0.00943 0.30776 0.0
H1205 H 0.98373 0.00364 0.25404 0.0
H1206 H 0.04174 0.96519 0.33799 0.0
H1207 H 0.01055 0.9761 0.32119 0.0
C1208 C 0.66018 0.98639 0.02127 0.0
C1209 C 0.66398 0.981 0.99343 0.0
C1210 C 0.67626 0.98763 0.0419 0.0
C1211 C 0.73074 0.97756 0.05856 0.0
H1212 H 0.73488 0.01074 0.09483 0.0
C1213 C 0.80786 0.00138 0.08709 0.0
C1214 C 0.8092 0.00983 0.11091 0.0
C1215 C 0.78921 0.99519 0.08076 0.0
C1216 C 0.73377 0.00131 0.08555 0.0
H1217 H 0.68782 0.97293 0.96523 0.0
H1218 H 0.71578 0.97499 0.00109 0.0
H1219 H 0.70352 0.00504 0.06776 0.0
H1220 H 0.79255 0.01801 0.14778 0.0
H1221 H 0.75952 0.00719 0.13657 0.0
H1222 H 0.76146 0.9741 0.07522 0.0
C1223 C 0.70024 0.97793 0.00743 0.0
C1224 C 0.71576 0.99803 0.06992 0.0
C1225 C 0.68415 0.97668 0.98683 0.0
C1226 C 0.79191 0.01141 0.1295 0.0
C1227 C 0.77302 0.00532 0.12289 0.0
C1228 C 0.74875 0.98084 0.07415 0.0
C1229 C 0.69659 0.98361 0.03505 0.0
C1230 C 0.7143 0.98627 0.05542 0.0
C1231 C 0.77133 0.99745 0.09786 0.0
C1232 C 0.75076 0.99292 0.087 0.0
H1233 H 0.64479 0.98986 0.02692 0.0
H1234 H 0.67284 0.99195 0.06304 0.0
H1235 H 0.72996 0.96832 0.04819 0.0
H1236 H 0.82098 1.0001 0.07233 0.0
H1237 H 0.78847 0.98934 0.06116 0.0
C1238 C 0.93968 0.75096 0.09217 0.0
C1239 C 0.94164 0.73991 0.10911 0.0
C1240 C 0.95738 0.75754 0.08283 0.0
C1241 C 0.01488 0.76046 0.0897 0.0
H1242 H 0.01201 0.76533 0.00502 0.0
C1243 C 0.08817 0.76658 0.01613 0.0
C1244 C 0.08662 0.77378 0.9901 0.0
C1245 C 0.07072 0.76456 0.03407 0.0
C1246 C 0.01308 0.76435 0.02875 0.0
H1247 H 0.96334 0.72728 0.13071 0.0
H1248 H 0.99448 0.73884 0.11461 0.0
H1249 H 0.98123 0.75863 0.03169 0.0
H1250 H 0.06507 0.78439 0.96262 0.0
H1251 H 0.03527 0.78164 0.99463 0.0
H1252 H 0.0469 0.76609 0.0866 0.0
C1253 C 0.97928 0.74256 0.1089 0.0
C1254 C 0.99534 0.76046 0.04409 0.0
C1255 C 0.9615 0.73597 0.11823 0.0
C1256 C 0.06727 0.77921 0.98294 0.0
C1257 C 0.04991 0.77735 0.00107 0.0
C1258 C 0.03267 0.76449 0.07434 0.0
C1259 C 0.97742 0.75309 0.08999 0.0
C1260 C 0.99604 0.75834 0.07468 0.0
C1261 C 0.05122 0.76972 0.02648 0.0
C1262 C 0.03206 0.76636 0.04356 0.0
H1263 H 0.9245 0.75402 0.08447 0.0
H1264 H 0.95543 0.76571 0.06862 0.0
H1265 H 0.01588 0.75894 0.11329 0.0
H1266 H 0.10279 0.76215 0.0222 0.0
H1267 H 0.07238 0.75848 0.05317 0.0
C1268 C 0.80544 0.73673 0.63352 0.0
C1269 C 0.81167 0.72469 0.64344 0.0
C1270 C 0.78657 0.74203 0.64338 0.0
C1271 C 0.75293 0.73975 0.70868 0.0
H1272 H 0.7135 0.76034 0.66509 0.0
C1273 C 0.68881 0.76705 0.7693 0.0
C1274 C 0.66858 0.76623 0.75765 0.0
C1275 C 0.70601 0.76318 0.75269 0.0
C1276 C 0.72437 0.75458 0.6775 0.0
H1277 H 0.80229 0.70829 0.66896 0.0
H1278 H 0.76941 0.7173 0.68534 0.0
H1279 H 0.74312 0.75061 0.63924 0.0
H1280 H 0.65054 0.76069 0.71939 0.0
H1281 H 0.68067 0.75377 0.69035 0.0
H1282 H 0.73434 0.74346 0.74675 0.0
C1283 C 0.77922 0.72286 0.67082 0.0
C1284 C 0.74138 0.74909 0.66274 0.0
C1285 C 0.79799 0.71765 0.66125 0.0
C1286 C 0.66598 0.76157 0.72882 0.0
C1287 C 0.68324 0.75768 0.71214 0.0
C1288 C 0.73612 0.74525 0.72335 0.0
C1289 C 0.77371 0.73532 0.66315 0.0
C1290 C 0.75573 0.7415 0.67817 0.0
C1291 C 0.70343 0.75821 0.72412 0.0
C1292 C 0.72158 0.75272 0.70803 0.0
H1293 H 0.81576 0.74238 0.61993 0.0
H1294 H 0.78272 0.75165 0.63704 0.0
H1295 H 0.76387 0.73415 0.72138 0.0
H1296 H 0.69139 0.77013 0.79177 0.0
H1297 H 0.72135 0.7638 0.76254 0.0
C1298 C 0.08992 0.98727 0.72419 0.0
C1299 C 0.0864 0.98276 0.75297 0.0
C1300 C 0.07334 0.98882 0.70442 0.0
C1301 C 0.0177 0.98036 0.6921 0.0
H1302 H 0.01495 0.01274 0.65177 0.0
C1303 C 0.94132 0.00516 0.66428 0.0
C1304 C 0.93964 0.01291 0.63924 0.0
C1305 C 0.95991 0.99892 0.67073 0.0
C1306 C 0.01564 0.00352 0.66223 0.0
H1307 H 0.06243 0.97679 0.78373 0.0
H1308 H 0.03374 0.97923 0.74931 0.0
H1309 H 0.04668 0.00673 0.67781 0.0
H1310 H 0.9557 0.01981 0.60047 0.0
H1311 H 0.98868 0.00893 0.61194 0.0
H1312 H 0.98633 0.97739 0.67755 0.0
C1313 C 0.04939 0.98123 0.74166 0.0
C1314 C 0.03384 1.00008 0.67726 0.0
C1315 C 0.06593 0.97974 0.76143 0.0
C1316 C 0.95659 0.01378 0.61976 0.0
C1317 C 0.97546 0.00765 0.62649 0.0
C1318 C 0.99952 0.98379 0.67706 0.0
C1319 C 0.05283 0.98593 0.71301 0.0
C1320 C 0.03483 0.98865 0.69322 0.0
C1321 C 0.97744 1.00042 0.6525 0.0
C1322 C 0.99801 0.99561 0.66282 0.0
H1323 H 0.1055 0.98978 0.71709 0.0
H1324 H 0.07656 0.9924 0.6825 0.0
H1325 H 0.01809 0.97137 0.70363 0.0
H1326 H 0.92847 0.00438 0.6797 0.0
H1327 H 0.96089 0.99359 0.69111 0.0
C1328 C 0.31885 0.52151 0.51636 0.0
C1329 C 0.33919 0.51818 0.50791 0.0
C1330 C 0.30216 0.51998 0.49683 0.0
C1331 C 0.28587 0.501 0.4327 0.0
H1332 H 0.23919 0.52435 0.43247 0.0
C1333 C 0.20888 0.48883 0.37255 0.0
C1334 C 0.19162 0.48986 0.39144 0.0
C1335 C 0.22789 0.49458 0.38019 0.0
C1336 C 0.25214 0.51776 0.43216 0.0
H1337 H 0.35791 0.51052 0.47233 0.0
H1338 H 0.32876 0.50788 0.43813 0.0
H1339 H 0.27098 0.52989 0.45901 0.0
H1340 H 0.18012 0.49829 0.43183 0.0
H1341 H 0.21281 0.50846 0.44477 0.0
H1342 H 0.26672 0.48867 0.40673 0.0
C1343 C 0.32572 0.51171 0.45988 0.0
C1344 C 0.27033 0.52091 0.44748 0.0
C1345 C 0.34243 0.51327 0.47943 0.0
C1346 C 0.1932 0.49741 0.41683 0.0
C1347 C 0.21195 0.50328 0.42418 0.0
C1348 C 0.26765 0.49785 0.41734 0.0
C1349 C 0.30533 0.51496 0.46842 0.0
C1350 C 0.28719 0.51241 0.44872 0.0
C1351 C 0.22974 0.5016 0.40653 0.0
C1352 C 0.25033 0.50602 0.41767 0.0
H1353 H 0.31556 0.52479 0.53847 0.0
H1354 H 0.28663 0.52227 0.50449 0.0
H1355 H 0.29846 0.49417 0.43334 0.0
H1356 H 0.20808 0.48293 0.35304 0.0
H1357 H 0.2413 0.49317 0.36606 0.0
C1358 C 0.0424 0.78054 0.40228 0.0
C1359 C 0.05705 0.77315 0.38696 0.0
C1360 C 0.02382 0.77522 0.4123 0.0
C1361 C 0.98826 0.7477 0.41 0.0
H1362 H 0.98101 0.75601 0.49277 0.0
C1363 C 0.91435 0.73551 0.47997 0.0
C1364 C 0.91771 0.73166 0.50929 0.0
C1365 C 0.93108 0.73932 0.46215 0.0
C1366 C 0.98286 0.75349 0.46975 0.0
H1367 H 0.06302 0.75466 0.36804 0.0
H1368 H 0.03029 0.74525 0.38582 0.0
H1369 H 0.00957 0.76539 0.46528 0.0
H1370 H 0.94129 0.72905 0.543 0.0
H1371 H 0.97037 0.73534 0.5119 0.0
H1372 H 0.96137 0.73573 0.41486 0.0
C1373 C 0.03324 0.7552 0.38991 0.0
C1374 C 0.9991 0.759 0.45385 0.0
C1375 C 0.05193 0.76058 0.37963 0.0
C1376 C 0.93817 0.73153 0.52027 0.0
C1377 C 0.95484 0.73535 0.50254 0.0
C1378 C 0.97178 0.74224 0.42597 0.0
C1379 C 0.01948 0.76234 0.40752 0.0
C1380 C 0.00197 0.75626 0.42377 0.0
C1381 C 0.95148 0.73953 0.47346 0.0
C1382 C 0.96896 0.74506 0.45609 0.0
H1383 H 0.04586 0.79028 0.40802 0.0
H1384 H 0.01331 0.78106 0.42515 0.0
H1385 H 0.9901 0.7454 0.38687 0.0
H1386 H 0.8987 0.73585 0.47104 0.0
H1387 H 0.92793 0.74261 0.43996 0.0
C1388 C 0.31558 0.72909 0.72637 0.0
C1389 C 0.33556 0.73218 0.73674 0.0
C1390 C 0.29798 0.73141 0.74368 0.0
C1391 C 0.27987 0.74011 0.81936 0.0
H1392 H 0.23236 0.75295 0.77586 0.0
C1393 C 0.20792 0.76687 0.8693 0.0
C1394 C 0.18874 0.76461 0.8554 0.0
C1395 C 0.22605 0.76084 0.85904 0.0
C1396 C 0.24535 0.7492 0.78838 0.0
H1397 H 0.35269 0.74033 0.77327 0.0
H1398 H 0.32185 0.74474 0.80327 0.0
H1399 H 0.26351 0.74674 0.74942 0.0
H1400 H 0.17294 0.75368 0.82183 0.0
H1401 H 0.20424 0.74288 0.8046 0.0
H1402 H 0.26154 0.74306 0.85852 0.0
C1403 C 0.31984 0.74012 0.78213 0.0
C1404 C 0.26327 0.7456 0.77316 0.0
C1405 C 0.33751 0.73767 0.76487 0.0
C1406 C 0.18759 0.75551 0.83294 0.0
C1407 C 0.20553 0.74945 0.8229 0.0
C1408 C 0.26186 0.74383 0.8347 0.0
C1409 C 0.2998 0.7372 0.77154 0.0
C1410 C 0.28075 0.74091 0.78834 0.0
C1411 C 0.22511 0.75252 0.83477 0.0
C1412 C 0.24434 0.74831 0.81928 0.0
H1413 H 0.31333 0.72538 0.70436 0.0
H1414 H 0.28286 0.72889 0.73486 0.0
H1415 H 0.293 0.73649 0.83177 0.0
H1416 H 0.20918 0.77403 0.88635 0.0
H1417 H 0.24092 0.76341 0.8686 0.0
C1418 C 0.93508 0.5207 0.74181 0.0
C1419 C 0.91529 0.51539 0.74651 0.0
C1420 C 0.95102 0.519 0.76249 0.0
C1421 C 0.96799 0.4966 0.81975 0.0
H1422 H 0.01009 0.52217 0.83446 0.0
C1423 C 0.04411 0.48402 0.88083 0.0
C1424 C 0.06176 0.48766 0.86468 0.0
C1425 C 0.02457 0.4893 0.87417 0.0
C1426 C 0.99841 0.51493 0.8307 0.0
H1427 H 0.89667 0.5042 0.7767 0.0
H1428 H 0.92447 0.50127 0.81291 0.0
H1429 H 0.97861 0.52779 0.8072 0.0
H1430 H 0.07334 0.50005 0.83036 0.0
H1431 H 0.03966 0.50938 0.8191 0.0
H1432 H 0.98815 0.48362 0.84215 0.0
C1433 C 0.92768 0.50675 0.79322 0.0
C1434 C 0.98041 0.51815 0.81499 0.0
C1435 C 0.91174 0.50847 0.77254 0.0
C1436 C 0.05992 0.4972 0.84331 0.0
C1437 C 0.0406 0.50257 0.83693 0.0
C1438 C 0.98601 0.49338 0.83545 0.0
C1439 C 0.94762 0.51184 0.78826 0.0
C1440 C 0.96527 0.50893 0.80854 0.0
C1441 C 0.02254 0.49838 0.8515 0.0
C1442 C 1.00174 0.50241 0.8403 0.0
H1443 H 0.93865 0.52564 0.72152 0.0
H1444 H 0.9663 0.52281 0.75759 0.0
H1445 H 0.95676 0.48922 0.81499 0.0
H1446 H 0.04516 0.47653 0.89712 0.0
H1447 H 0.01095 0.48593 0.88592 0.0
C1448 C 0.68644 0.47438 0.48437 0.0
C1449 C 0.66747 0.48073 0.48904 0.0
C1450 C 0.70316 0.47601 0.50378 0.0
C1451 C 0.71826 0.49009 0.57689 0.0
H1452 H 0.77267 0.49162 0.53993 0.0
C1453 C 0.79061 0.51667 0.62284 0.0
C1454 C 0.81024 0.51124 0.61775 0.0
C1455 C 0.77252 0.5106 0.6129 0.0
C1456 C 0.75765 0.49101 0.55076 0.0
H1457 H 0.65141 0.49396 0.51771 0.0
H1458 H 0.68079 0.49727 0.55076 0.0
H1459 H 0.74257 0.48581 0.51067 0.0
H1460 H 0.82653 0.4951 0.59954 0.0
H1461 H 0.79495 0.48439 0.58235 0.0
H1462 H 0.73357 0.49606 0.6167 0.0
C1463 C 0.68256 0.49059 0.5328 0.0
C1464 C 0.7403 0.48763 0.53395 0.0
C1465 C 0.66571 0.48878 0.51364 0.0
C1466 C 0.81149 0.4993 0.60427 0.0
C1467 C 0.79345 0.49328 0.59413 0.0
C1468 C 0.73566 0.49366 0.59365 0.0
C1469 C 0.70165 0.48436 0.52794 0.0
C1470 C 0.72028 0.4872 0.54665 0.0
C1471 C 0.77387 0.49912 0.59722 0.0
C1472 C 0.75553 0.49423 0.58069 0.0
H1473 H 0.68885 0.46855 0.46507 0.0
H1474 H 0.71746 0.4709 0.49937 0.0
H1475 H 0.70321 0.48969 0.58764 0.0
H1476 H 0.78938 0.52604 0.63249 0.0
H1477 H 0.75769 0.51538 0.61539 0.0
C1478 C 0.0795 0.27439 0.50336 0.0
C1479 C 0.09329 0.26525 0.49188 0.0
C1480 C 0.06295 0.27077 0.5218 0.0
C1481 C 0.03078 0.24263 0.53799 0.0
H1482 H 0.01096 0.26181 0.60539 0.0
C1483 C 0.96462 0.22273 0.6069 0.0
C1484 C 0.94814 0.23104 0.61309 0.0
C1485 C 0.98395 0.22741 0.59792 0.0
C1486 C 0.01627 0.25639 0.58655 0.0
H1487 H 0.10124 0.24526 0.49262 0.0
H1488 H 0.0729 0.23906 0.52496 0.0
H1489 H 0.04156 0.26921 0.57785 0.0
H1490 H 0.93907 0.25073 0.61631 0.0
H1491 H 0.97292 0.25901 0.60009 0.0
H1492 H 0.00555 0.22996 0.546 0.0
C1493 C 0.07441 0.24897 0.51907 0.0
C1494 C 0.03377 0.26064 0.57075 0.0
C1495 C 0.09082 0.25256 0.50068 0.0
C1496 C 0.95171 0.24416 0.61218 0.0
C1497 C 0.97107 0.24887 0.60274 0.0
C1498 C 0.01342 0.23842 0.55367 0.0
C1499 C 0.05994 0.25796 0.5293 0.0
C1500 C 0.04131 0.25374 0.54637 0.0
C1501 C 0.98709 0.24051 0.59419 0.0
C1502 C 0.00598 0.24515 0.57831 0.0
H1503 H 0.08135 0.28431 0.4981 0.0
H1504 H 0.05217 0.27796 0.52943 0.0
H1505 H 0.03575 0.23725 0.51889 0.0
H1506 H 0.96216 0.21257 0.60726 0.0
H1507 H 0.99609 0.22069 0.59231 0.0
C1508 C 0.68479 0.27105 0.27144 0.0
C1509 C 0.6648 0.26758 0.26173 0.0
C1510 C 0.70232 0.26856 0.25403 0.0
C1511 C 0.7205 0.25846 0.17943 0.0
H1512 H 0.76457 0.24232 0.22425 0.0
C1513 C 0.80126 0.23993 0.13319 0.0
C1514 C 0.80696 0.22795 0.14421 0.0
C1515 C 0.7832 0.24601 0.14373 0.0
C1516 C 0.75243 0.24684 0.2114 0.0
H1517 H 0.64753 0.25908 0.22575 0.0
H1518 H 0.67817 0.2546 0.19549 0.0
H1519 H 0.73497 0.25145 0.25 0.0
H1520 H 0.79727 0.21251 0.17272 0.0
H1521 H 0.7661 0.22299 0.19067 0.0
H1522 H 0.73806 0.25342 0.14067 0.0
C1523 C 0.68027 0.25946 0.21632 0.0
C1524 C 0.73555 0.25221 0.22619 0.0
C1525 C 0.66272 0.26195 0.23377 0.0
C1526 C 0.79353 0.22182 0.16414 0.0
C1527 C 0.77569 0.22784 0.17455 0.0
C1528 C 0.73761 0.25314 0.16455 0.0
C1529 C 0.70035 0.26243 0.22661 0.0
C1530 C 0.71918 0.25791 0.21045 0.0
C1531 C 0.77072 0.24017 0.16538 0.0
C1532 C 0.7535 0.24702 0.18043 0.0
H1533 H 0.68715 0.27503 0.29316 0.0
H1534 H 0.71755 0.27105 0.26255 0.0
H1535 H 0.7082 0.26286 0.16667 0.0
H1536 H 0.81133 0.24488 0.11788 0.0
H1537 H 0.77964 0.25551 0.1362 0.0
C1538 C 0.94579 0.50622 0.1634 0.0
C1539 C 0.94418 0.51495 0.14013 0.0
C1540 C 0.96474 0.5004 0.16986 0.0
C1541 C 0.02017 0.50707 0.16688 0.0
H1542 H 0.02455 0.47304 0.19869 0.0
C1543 C 0.09448 0.49025 0.22748 0.0
C1544 C 0.09103 0.48379 0.25417 0.0
C1545 C 0.07815 0.49227 0.20754 0.0
C1546 C 0.02361 0.48258 0.18994 0.0
H1547 H 0.96086 0.52412 0.10459 0.0
H1548 H 0.99448 0.51398 0.11614 0.0
H1549 H 0.99293 0.47947 0.17281 0.0
H1550 H 0.06748 0.47467 0.2811 0.0
H1551 H 0.03914 0.47805 0.24643 0.0
H1552 H 0.05043 0.51039 0.18513 0.0
C1553 C 0.98091 0.5116 0.12923 0.0
C1554 C 0.00552 0.48624 0.17498 0.0
C1555 C 0.9617 0.51731 0.12243 0.0
C1556 C 0.07093 0.47923 0.26028 0.0
C1557 C 0.05459 0.48125 0.24038 0.0
C1558 C 0.03826 0.50342 0.18191 0.0
C1559 C 0.9827 0.5033 0.15349 0.0
C1560 C 0.00332 0.49865 0.16405 0.0
C1561 C 0.0579 0.48797 0.21394 0.0
C1562 C 0.03996 0.49124 0.19441 0.0
H1563 H 0.9325 0.50431 0.17747 0.0
H1564 H 0.96555 0.49421 0.1889 0.0
H1565 H 0.01891 0.51674 0.15907 0.0
H1566 H 0.10979 0.49395 0.22225 0.0
H1567 H 0.08133 0.49737 0.18731 0.0
C1568 C 0.69316 0.998 0.41651 0.0
C1569 C 0.69176 0.99011 0.39167 0.0
C1570 C 0.71158 0.00443 0.42291 0.0
C1571 C 0.7673 1.00001 0.41543 0.0
H1572 H 0.7696 0.03281 0.45393 0.0
C1573 C 0.8415 0.01653 0.47633 0.0
C1574 C 0.83817 0.02193 0.50427 0.0
C1575 C 0.82493 0.01487 0.45663 0.0
C1576 C 0.76925 0.02362 0.4433 0.0
H1577 H 0.70814 0.98313 0.35324 0.0
H1578 H 0.74082 0.99432 0.36467 0.0
H1579 H 0.73785 0.0263 0.42846 0.0
H1580 H 0.81467 0.02957 0.53368 0.0
H1581 H 0.78585 0.02673 0.49952 0.0
H1582 H 0.79824 0.99701 0.43146 0.0
C1583 C 0.7275 0.99558 0.37905 0.0
C1584 C 0.75108 0.01993 0.42856 0.0
C1585 C 0.7088 0.98928 0.37235 0.0
C1586 C 0.81795 0.02582 0.51194 0.0
C1587 C 0.80136 0.02413 0.4923 0.0
C1588 C 0.78544 0.00368 0.43028 0.0
C1589 C 0.72922 0.00296 0.40487 0.0
C1590 C 0.74967 0.00792 0.41521 0.0
C1591 C 0.80455 0.01845 0.46455 0.0
C1592 C 0.78644 0.01537 0.44517 0.0
H1593 H 0.68024 0.99873 0.43182 0.0
H1594 H 0.71239 0.0099 0.44311 0.0
H1595 H 0.76665 0.99064 0.40571 0.0
H1596 H 0.85691 0.01336 0.46991 0.0
H1597 H 0.82804 0.01059 0.43537 0.0
C1598 C 0.40797 0.23704 0.48055 0.0
C1599 C 0.41141 0.23183 0.50869 0.0
C1600 C 0.42453 0.2387 0.46077 0.0
C1601 C 0.47971 0.22936 0.44688 0.0
H1602 H 0.48335 0.26193 0.4076 0.0
C1603 C 0.55683 0.25283 0.41565 0.0
C1604 C 0.55816 0.26068 0.39074 0.0
C1605 C 0.53814 0.2469 0.42306 0.0
C1606 C 0.4824 0.25266 0.4178 0.0
H1607 H 0.43519 0.22483 0.53851 0.0
H1608 H 0.46389 0.22754 0.5041 0.0
H1609 H 0.45179 0.25633 0.43456 0.0
H1610 H 0.5413 0.26813 0.35325 0.0
H1611 H 0.5082 0.25776 0.36631 0.0
H1612 H 0.51067 0.22591 0.4311 0.0
C1613 C 0.44831 0.22997 0.49685 0.0
C1614 C 0.46429 0.24946 0.43336 0.0
C1615 C 0.43178 0.22834 0.5166 0.0
C1616 C 0.5407 0.26196 0.37234 0.0
C1617 C 0.52176 0.25615 0.38002 0.0
C1618 C 0.4978 0.23256 0.43136 0.0
C1619 C 0.44496 0.23528 0.46876 0.0
C1620 C 0.46296 0.23792 0.44884 0.0
C1621 C 0.52015 0.24884 0.40597 0.0
C1622 C 0.49962 0.24441 0.41738 0.0
H1623 H 0.39246 0.23993 0.47393 0.0
H1624 H 0.42135 0.24276 0.43929 0.0
H1625 H 0.47905 0.22028 0.458 0.0
H1626 H 0.57006 0.2518 0.43034 0.0
H1627 H 0.53747 0.24149 0.44335 0.0
C1628 C 0.70564 0.26873 0.8668 0.0
C1629 C 0.68669 0.26663 0.85211 0.0
C1630 C 0.72416 0.26338 0.85579 0.0
C1631 C 0.74491 0.25344 0.78398 0.0
H1632 H 0.79146 0.23931 0.82738 0.0
C1633 C 0.81434 0.23214 0.72219 0.0
C1634 C 0.83444 0.23484 0.73272 0.0
C1635 C 0.7968 0.2348 0.73937 0.0
C1636 C 0.77864 0.24333 0.81499 0.0
H1637 H 0.67179 0.25665 0.81615 0.0
H1638 H 0.7037 0.24706 0.79764 0.0
H1639 H 0.75993 0.24594 0.85393 0.0
H1640 H 0.85182 0.24255 0.76955 0.0
H1641 H 0.82109 0.24747 0.79938 0.0
H1642 H 0.76341 0.25117 0.74524 0.0
C1643 C 0.70456 0.25303 0.81704 0.0
C1644 C 0.7606 0.24711 0.83021 0.0
C1645 C 0.68625 0.25842 0.82779 0.0
C1646 C 0.83654 0.24022 0.76096 0.0
C1647 C 0.81894 0.24296 0.77813 0.0
C1648 C 0.76284 0.24974 0.76889 0.0
C1649 C 0.72386 0.25589 0.83004 0.0
C1650 C 0.74342 0.25205 0.81476 0.0
C1651 C 0.7988 0.24049 0.76732 0.0
C1652 C 0.77988 0.2445 0.78406 0.0
H1653 H 0.70634 0.27516 0.8854 0.0
H1654 H 0.73881 0.26576 0.86629 0.0
H1655 H 0.73222 0.25755 0.77145 0.0
H1656 H 0.81198 0.22848 0.70016 0.0
H1657 H 0.78157 0.23263 0.7304 0.0
C1658 C 0.55397 0.99928 0.85778 0.0
C1659 C 0.55603 0.98718 0.87028 0.0
C1660 C 0.53427 0.00398 0.85029 0.0
C1661 C 0.48619 0.99082 0.82268 0.0
H1662 H 0.46531 0.02529 0.82508 0.0
C1663 C 0.41142 0.00378 0.76058 0.0
C1664 C 0.41078 0.01545 0.74556 0.0
C1665 C 0.42712 0.00115 0.78099 0.0
C1666 C 0.47101 0.01564 0.82395 0.0
H1667 H 0.53939 0.97074 0.88619 0.0
H1668 H 0.50487 0.97895 0.87338 0.0
H1669 H 0.49634 0.0196 0.85356 0.0
H1670 H 0.42533 0.03403 0.74333 0.0
H1671 H 0.45353 0.0291 0.7769 0.0
H1672 H 0.46195 0.98689 0.79194 0.0
C1673 C 0.5184 0.98486 0.86949 0.0
C1674 C 0.48869 0.01238 0.84048 0.0
C1675 C 0.53809 0.98022 0.87717 0.0
C1676 C 0.42576 0.02468 0.75288 0.0
C1677 C 0.44176 0.02195 0.77295 0.0
C1678 C 0.46879 0.9941 0.8059 0.0
C1679 C 0.51639 0.99652 0.85471 0.0
C1680 C 0.4965 0.99993 0.8399 0.0
C1681 C 0.44292 0.01003 0.78684 0.0
C1682 C 0.46095 0.00657 0.80611 0.0
H1683 H 0.56768 0.00466 0.85162 0.0
H1684 H 0.53325 0.01294 0.83872 0.0
H1685 H 0.49211 0.98123 0.82115 0.0
H1686 H 0.40001 0.99647 0.75617 0.0
H1687 H 0.42696 0.99202 0.79191 0.0
C1688 C 0.31135 0.00606 0.58861 0.0
C1689 C 0.31064 0.01655 0.60755 0.0
C1690 C 0.29299 0.00052 0.5784 0.0
C1691 C 0.23593 0.99831 0.58663 0.0
H1692 H 0.23738 0.99589 0.50128 0.0
C1693 C 0.16188 0.99045 0.51475 0.0
C1694 C 0.16399 0.98352 0.48842 0.0
C1695 C 0.17932 0.99328 0.53214 0.0
C1696 C 0.23672 0.99622 0.52514 0.0
H1697 H 0.29045 0.02924 0.63177 0.0
H1698 H 0.25799 0.01945 0.614 0.0
H1699 H 0.26833 0.00243 0.5278 0.0
H1700 H 0.18644 0.97444 0.45947 0.0
H1701 H 0.21634 0.97852 0.49048 0.0
H1702 H 0.20422 0.99201 0.58386 0.0
C1703 C 0.27279 0.01542 0.60735 0.0
C1704 C 0.25451 1.00004 0.54036 0.0
C1705 C 0.29129 0.02099 0.61759 0.0
C1706 C 0.18392 0.97931 0.48014 0.0
C1707 C 0.20127 0.98196 0.49767 0.0
C1708 C 0.21808 0.99433 0.57135 0.0
C1709 C 0.2735 0.00545 0.58672 0.0
C1710 C 0.25438 0.00111 0.57125 0.0
C1711 C 0.19933 0.98923 0.52357 0.0
C1712 C 0.21826 0.99321 0.54035 0.0
H1713 H 0.32614 0.00259 0.58037 0.0
H1714 H 0.29403 0.99275 0.56286 0.0
H1715 H 0.23541 0.99905 0.61045 0.0
H1716 H 0.14678 0.99398 0.52158 0.0
H1717 H 0.17718 0.99904 0.55167 0.0
C1718 C 0.46378 0.7217 0.5998 0.0
C1719 C 0.44828 0.72871 0.61435 0.0
C1720 C 0.48203 0.72754 0.5902 0.0
C1721 C 0.51607 0.75538 0.59239 0.0
H1722 H 0.52177 0.74831 0.50873 0.0
C1723 C 0.58993 0.76589 0.52146 0.0
C1724 C 0.58679 0.77001 0.49229 0.0
C1725 C 0.57295 0.76288 0.53958 0.0
C1726 C 0.52032 0.75052 0.53199 0.0
H1727 H 0.44044 0.74708 0.63258 0.0
H1728 H 0.47273 0.75739 0.61573 0.0
H1729 H 0.49356 0.73865 0.53649 0.0
H1730 H 0.56329 0.77421 0.45934 0.0
H1731 H 0.53377 0.7692 0.49098 0.0
H1732 H 0.54323 0.76715 0.58767 0.0
C1733 C 0.47064 0.74734 0.61187 0.0
C1734 C 0.50428 0.74485 0.54798 0.0
C1735 C 0.45225 0.74144 0.62164 0.0
C1736 C 0.5663 0.77144 0.48192 0.0
C1737 C 0.54936 0.76838 0.49995 0.0
C1738 C 0.5324 0.76097 0.57635 0.0
C1739 C 0.48517 0.74055 0.59477 0.0
C1740 C 0.50208 0.7471 0.57838 0.0
C1741 C 0.55249 0.76375 0.52872 0.0
C1742 C 0.5347 0.75855 0.54595 0.0
H1743 H 0.46115 0.71186 0.59404 0.0
H1744 H 0.49315 0.72202 0.5776 0.0
H1745 H 0.51467 0.75729 0.61579 0.0
H1746 H 0.60556 0.76461 0.52997 0.0
H1747 H 0.57589 0.75923 0.56152 0.0
C1748 C 0.17788 0.77065 0.24794 0.0
C1749 C 0.16415 0.76145 0.25924 0.0
C1750 C 0.19453 0.76711 0.22958 0.0
C1751 C 0.22724 0.73928 0.21293 0.0
H1752 H 0.24488 0.75809 0.14378 0.0
C1753 C 0.29195 0.71931 0.14133 0.0
C1754 C 0.30798 0.72769 0.13346 0.0
C1755 C 0.27284 0.72392 0.15135 0.0
C1756 C 0.2402 0.75278 0.16312 0.0
H1757 H 0.15662 0.7414 0.25877 0.0
H1758 H 0.18527 0.73532 0.22676 0.0
H1759 H 0.21482 0.76546 0.17256 0.0
H1760 H 0.31634 0.74742 0.12828 0.0
H1761 H 0.28289 0.75558 0.14641 0.0
H1762 H 0.25258 0.72676 0.2042 0.0
C1763 C 0.18353 0.74523 0.23255 0.0
C1764 C 0.22302 0.75701 0.17963 0.0
C1765 C 0.16698 0.74874 0.25077 0.0
C1766 C 0.30405 0.74078 0.13376 0.0
C1767 C 0.28493 0.74543 0.14429 0.0
C1768 C 0.24432 0.7351 0.19659 0.0
C1769 C 0.19775 0.75431 0.22212 0.0
C1770 C 0.21624 0.75022 0.2046 0.0
C1771 C 0.26946 0.73703 0.1545 0.0
C1772 C 0.25095 0.74169 0.17128 0.0
H1773 H 0.17579 0.78057 0.25309 0.0
H1774 H 0.20516 0.77436 0.22183 0.0
H1775 H 0.22282 0.734 0.23244 0.0
H1776 H 0.29466 0.70917 0.14139 0.0
H1777 H 0.26108 0.71716 0.15816 0.0
C1778 C 0.46428 0.01828 0.13313 0.0
C1779 C 0.44495 0.01216 0.13539 0.0
C1780 C 0.48257 0.01207 0.14173 0.0
C1781 C 0.49843 0.98959 0.19734 0.0
H1782 H 0.55287 0.99163 0.16063 0.0
C1783 C 0.57149 0.97375 0.26122 0.0
C1784 C 0.58959 0.98111 0.25777 0.0
C1785 C 0.55462 0.97514 0.2419 0.0
C1786 C 0.53784 0.99107 0.17138 0.0
H1787 H 0.42941 0.99474 0.14747 0.0
H1788 H 0.46141 0.98384 0.16275 0.0
H1789 H 0.52203 0.99839 0.13323 0.0
H1790 H 0.60398 0.99574 0.23107 0.0
H1791 H 0.57439 0.99861 0.19843 0.0
H1792 H 0.51399 0.98312 0.23607 0.0
C1793 C 0.46249 0.99336 0.15394 0.0
C1794 C 0.52015 0.99486 0.15551 0.0
C1795 C 0.44424 0.99952 0.14491 0.0
C1796 C 0.59039 0.98981 0.23427 0.0
C1797 C 0.5734 0.99137 0.21528 0.0
C1798 C 0.51609 0.98602 0.21336 0.0
C1799 C 0.48174 0.99973 0.1534 0.0
C1800 C 0.50029 0.9943 0.16847 0.0
C1801 C 0.55509 0.9842 0.21907 0.0
C1802 C 0.53613 0.98687 0.20082 0.0
H1803 H 0.46508 0.02814 0.12653 0.0
H1804 H 0.49712 0.01727 0.14135 0.0
H1805 H 0.48338 0.98927 0.20814 0.0
H1806 H 0.56975 0.96732 0.2796 0.0
H1807 H 0.54099 0.9693 0.24542 0.0
C1808 C 0.71589 0.48654 0.87534 0.0
C1809 C 0.69614 0.49101 0.88359 0.0
C1810 C 0.7339 0.4929 0.8847 0.0
C1811 C 0.74977 0.51082 0.94919 0.0
H1812 H 0.80232 0.5155 0.9085 0.0
C1813 C 0.82131 0.5283 0.01308 0.0
C1814 C 0.84063 0.52272 0.00637 0.0
C1815 C 0.80421 0.52672 0.99433 0.0
C1816 C 0.78781 0.51416 0.92028 0.0
H1817 H 0.67947 0.50585 0.90654 0.0
H1818 H 0.71081 0.51709 0.92244 0.0
H1819 H 0.7715 0.5088 0.88078 0.0
H1820 H 0.857 0.51106 0.97455 0.0
H1821 H 0.82701 0.50782 0.94254 0.0
H1822 H 0.76591 0.51543 0.98882 0.0
C1823 C 0.7125 0.5087 0.90885 0.0
C1824 C 0.77014 0.51039 0.90431 0.0
C1825 C 0.69457 0.50238 0.89947 0.0
C1826 C 0.84241 0.51561 0.98023 0.0
C1827 C 0.82519 0.51384 0.96171 0.0
C1828 C 0.76739 0.51441 0.96515 0.0
C1829 C 0.73235 0.50371 0.90277 0.0
C1830 C 0.75094 0.50865 0.91865 0.0
C1831 C 0.80571 0.51917 0.96878 0.0
C1832 C 0.78673 0.51609 0.95103 0.0
H1833 H 0.71743 0.47761 0.86374 0.0
H1834 H 0.74897 0.48877 0.87983 0.0
H1835 H 0.73534 0.50927 0.96106 0.0
H1836 H 0.81892 0.53337 0.0335 0.0
H1837 H 0.78961 0.53115 0.00041 0.0
C1838 C 0.43962 0.73464 0.02117 0.0
C1839 C 0.41923 0.73518 0.00999 0.0
C1840 C 0.45657 0.73809 0.00356 0.0
C1841 C 0.47388 0.7447 0.92686 0.0
H1842 H 0.51298 0.76702 0.96617 0.0
C1843 C 0.55398 0.76249 0.87893 0.0
C1844 C 0.5594 0.77499 0.88637 0.0
C1845 C 0.53542 0.75714 0.88977 0.0
C1846 C 0.50216 0.76085 0.95476 0.0
H1847 H 0.40061 0.73976 0.97161 0.0
H1848 H 0.4303 0.74586 0.94074 0.0
H1849 H 0.48421 0.758 0.99387 0.0
H1850 H 0.54885 0.79207 0.90831 0.0
H1851 H 0.51651 0.78293 0.92643 0.0
H1852 H 0.49201 0.74777 0.88755 0.0
C1853 C 0.4332 0.74252 0.96295 0.0
C1854 C 0.48579 0.75554 0.97077 0.0
C1855 C 0.4162 0.73909 0.98066 0.0
C1856 C 0.54516 0.78237 0.90249 0.0
C1857 C 0.52671 0.7771 0.91306 0.0
C1858 C 0.49048 0.74997 0.91078 0.0
C1859 C 0.45356 0.7423 0.97441 0.0
C1860 C 0.47138 0.74744 0.95707 0.0
C1861 C 0.52208 0.76427 0.90806 0.0
C1862 C 0.50464 0.75824 0.92454 0.0
H1863 H 0.44244 0.7321 0.04397 0.0
H1864 H 0.47206 0.73775 0.01303 0.0
H1865 H 0.46308 0.73844 0.91571 0.0
H1866 H 0.56477 0.75657 0.86673 0.0
H1867 H 0.53223 0.74723 0.88549 0.0
C1868 C 0.81765 0.72719 0.23506 0.0
C1869 C 0.83591 0.73455 0.2364 0.0
C1870 C 0.80147 0.72904 0.25538 0.0
C1871 C 0.78757 0.74653 0.32533 0.0
H1872 H 0.73153 0.74328 0.29439 0.0
C1873 C 0.7145 0.77424 0.36433 0.0
C1874 C 0.69578 0.76747 0.36698 0.0
C1875 C 0.7327 0.76812 0.35503 0.0
C1876 C 0.74708 0.74404 0.30353 0.0
H1877 H 0.85123 0.74965 0.26055 0.0
H1878 H 0.82283 0.75335 0.2946 0.0
H1879 H 0.76093 0.73669 0.26434 0.0
H1880 H 0.68132 0.74904 0.36278 0.0
H1881 H 0.71313 0.73835 0.34584 0.0
H1882 H 0.7734 0.75481 0.36373 0.0
C1883 C 0.82119 0.74576 0.27871 0.0
C1884 C 0.76404 0.7402 0.28633 0.0
C1885 C 0.8375 0.74373 0.25881 0.0
C1886 C 0.69573 0.75437 0.36159 0.0
C1887 C 0.71382 0.7483 0.35163 0.0
C1888 C 0.77059 0.75063 0.34226 0.0
C1889 C 0.80278 0.73855 0.27714 0.0
C1890 C 0.78461 0.74155 0.29674 0.0
C1891 C 0.73231 0.75522 0.34739 0.0
C1892 C 0.7502 0.74954 0.33137 0.0
H1893 H 0.81523 0.72035 0.21774 0.0
H1894 H 0.78775 0.72314 0.25355 0.0
H1895 H 0.80305 0.74747 0.33456 0.0
H1896 H 0.71473 0.7844 0.3677 0.0
H1897 H 0.74667 0.7737 0.35166 0.0
C1898 C 0.5628 0.49184 0.32726 0.0
C1899 C 0.56429 0.48505 0.3538 0.0
C1900 C 0.54466 0.4984 0.32008 0.0
C1901 C 0.48887 0.49641 0.33023 0.0
H1902 H 0.48933 0.52805 0.28661 0.0
C1903 C 0.41564 0.51457 0.26876 0.0
C1904 C 0.41919 0.51895 0.23988 0.0
C1905 C 0.43229 0.51258 0.28818 0.0
C1906 C 0.48891 0.51919 0.2987 0.0
H1907 H 0.54831 0.4801 0.39423 0.0
H1908 H 0.51601 0.49148 0.38133 0.0
H1909 H 0.52073 0.52107 0.31227 0.0
H1910 H 0.44321 0.52425 0.20858 0.0
H1911 H 0.47208 0.52093 0.24228 0.0
H1912 H 0.45739 0.4942 0.31551 0.0
C1913 C 0.52909 0.49179 0.36626 0.0
C1914 C 0.50687 0.51524 0.31353 0.0
C1915 C 0.54755 0.48536 0.37374 0.0
C1916 C 0.43976 0.52139 0.23096 0.0
C1917 C 0.4564 0.5194 0.25034 0.0
C1918 C 0.4709 0.50035 0.31529 0.0
C1919 C 0.52737 0.49819 0.33906 0.0
C1920 C 0.50726 0.50361 0.32867 0.0
C1921 C 0.45292 0.51482 0.2791 0.0
C1922 C 0.4709 0.5116 0.29855 0.0
H1923 H 0.57551 0.49173 0.3115 0.0
H1924 H 0.54382 0.50308 0.29883 0.0
H1925 H 0.48873 0.48734 0.34143 0.0
H1926 H 0.39996 0.51253 0.27623 0.0
H1927 H 0.42901 0.50914 0.31021 0.0
C1928 C 0.29158 0.52509 0.1067 0.0
C1929 C 0.30844 0.51773 0.11644 0.0
C1930 C 0.27323 0.51934 0.09725 0.0
C1931 C 0.24146 0.49067 0.09198 0.0
H1932 H 0.23225 0.5025 0.01193 0.0
C1933 C 0.16623 0.48231 0.02211 0.0
C1934 C 0.169 0.47973 0.99194 0.0
C1935 C 0.18341 0.48481 0.04026 0.0
C1936 C 0.23469 0.49899 0.03413 0.0
H1937 H 0.31889 0.49869 0.12621 0.0
H1938 H 0.2864 0.4885 0.10968 0.0
H1939 H 0.26064 0.51132 0.04086 0.0
H1940 H 0.19194 0.47778 0.95711 0.0
H1941 H 0.22186 0.48197 0.98874 0.0
H1942 H 0.21505 0.47846 0.08511 0.0
C1943 C 0.28745 0.49874 0.1096 0.0
C1944 C 0.25081 0.50415 0.05082 0.0
C1945 C 0.30595 0.50456 0.11922 0.0
C1946 C 0.18931 0.47935 0.98042 0.0
C1947 C 0.20644 0.48192 0.99848 0.0
C1948 C 0.22499 0.48561 0.07531 0.0
C1949 C 0.27139 0.50608 0.09711 0.0
C1950 C 0.2543 0.50014 0.07996 0.0
C1951 C 0.20365 0.48499 0.02842 0.0
C1952 C 0.22148 0.48974 0.04618 0.0
H1953 H 0.29319 0.53526 0.10425 0.0
H1954 H 0.26097 0.52522 0.08812 0.0
H1955 H 0.24388 0.48741 0.11437 0.0
H1956 H 0.15071 0.48281 0.03145 0.0
H1957 H 0.18076 0.48727 0.06315 0.0
C1958 C 0.45771 0.22062 0.08448 0.0
C1959 C 0.44343 0.22672 0.10323 0.0
C1960 C 0.4757 0.22678 0.07504 0.0
C1961 C 0.51224 0.25295 0.08615 0.0
H1962 H 0.51736 0.25075 0.001 0.0
C1963 C 0.58771 0.26445 0.01961 0.0
C1964 C 0.58538 0.27007 0.99166 0.0
C1965 C 0.57022 0.26117 0.0365 0.0
C1966 C 0.5161 0.25163 0.02474 0.0
H1967 H 0.43766 0.24378 0.12857 0.0
H1968 H 0.46954 0.25466 0.11194 0.0
H1969 H 0.48791 0.24088 0.0255 0.0
H1970 H 0.56264 0.27657 0.95961 0.0
H1971 H 0.53238 0.27126 0.98924 0.0
H1972 H 0.5408 0.2636 0.08518 0.0
C1973 C 0.46657 0.24506 0.10459 0.0
C1974 C 0.4993 0.24583 0.03883 0.0
C1975 C 0.44839 0.23884 0.11415 0.0
C1976 C 0.56516 0.27267 0.98138 0.0
C1977 C 0.54772 0.26941 0.99821 0.0
C1978 C 0.52928 0.25869 0.07199 0.0
C1979 C 0.47995 0.23924 0.08403 0.0
C1980 C 0.4973 0.24626 0.06968 0.0
C1981 C 0.55 0.26331 0.02562 0.0
C1982 C 0.53144 0.25801 0.04109 0.0
H1983 H 0.45455 0.21121 0.07601 0.0
H1984 H 0.48596 0.22194 0.05975 0.0
H1985 H 0.51107 0.25342 0.10997 0.0
H1986 H 0.60308 0.26221 0.02799 0.0
H1987 H 0.57254 0.25637 0.05736 0.0
C1988 C 0.18454 0.27474 0.77321 0.0
C1989 C 0.16445 0.27192 0.76279 0.0
C1990 C 0.20205 0.2724 0.7557 0.0
C1991 C 0.22052 0.26407 0.68022 0.0
H1992 H 0.26285 0.24554 0.72339 0.0
C1993 C 0.30208 0.24514 0.63621 0.0
C1994 C 0.30596 0.23255 0.64479 0.0
C1995 C 0.28401 0.2514 0.64615 0.0
C1996 C 0.25122 0.25077 0.71103 0.0
H1997 H 0.147 0.26468 0.72552 0.0
H1998 H 0.17767 0.26043 0.695 0.0
H1999 H 0.23343 0.25454 0.74981 0.0
H2000 H 0.29326 0.2163 0.66788 0.0
H2001 H 0.26203 0.22709 0.68478 0.0
H2002 H 0.23845 0.25988 0.64122 0.0
C2003 C 0.17983 0.2647 0.71651 0.0
C2004 C 0.23444 0.25603 0.72621 0.0
C2005 C 0.16227 0.26705 0.73408 0.0
C2006 C 0.2908 0.22606 0.66125 0.0
C2007 C 0.27294 0.23224 0.67102 0.0
C2008 C 0.23756 0.25887 0.66497 0.0
C2009 C 0.19996 0.26704 0.72744 0.0
C2010 C 0.21869 0.26258 0.71102 0.0
C2011 C 0.26977 0.2451 0.66468 0.0
C2012 C 0.2528 0.25192 0.68025 0.0
H2013 H 0.18694 0.2781 0.79549 0.0
H2014 H 0.21733 0.27437 0.76474 0.0
H2015 H 0.20868 0.26913 0.66793 0.0
H2016 H 0.31358 0.25036 0.62364 0.0
H2017 H 0.28183 0.26133 0.64092 0.0
C2018 C 0.59119 0.48345 0.72968 0.0
C2019 C 0.58868 0.47936 0.75899 0.0
C2020 C 0.57387 0.48525 0.71138 0.0
C2021 C 0.51949 0.49445 0.71852 0.0
H2022 H 0.5162 0.48817 0.63424 0.0
C2023 C 0.46588 0.52348 0.64727 0.0
C2024 C 0.44928 0.51668 0.63477 0.0
C2025 C 0.48367 0.51723 0.6571 0.0
C2026 C 0.5169 0.48986 0.65779 0.0
H2027 H 0.56588 0.47387 0.79192 0.0
H2028 H 0.5358 0.47677 0.75997 0.0
H2029 H 0.54538 0.47934 0.66301 0.0
H2030 H 0.43891 0.49814 0.62052 0.0
H2031 H 0.47056 0.48708 0.63769 0.0
H2032 H 0.49158 0.50529 0.71331 0.0
C2033 C 0.5512 0.47852 0.75105 0.0
C2034 C 0.53358 0.48489 0.67421 0.0
C2035 C 0.56851 0.47667 0.76928 0.0
C2036 C 0.45162 0.50361 0.62976 0.0
C2037 C 0.46961 0.49729 0.63971 0.0
C2038 C 0.5031 0.49951 0.70215 0.0
C2039 C 0.55362 0.48316 0.72215 0.0
C2040 C 0.53514 0.48725 0.70474 0.0
C2041 C 0.48529 0.50403 0.65469 0.0
C2042 C 0.50181 0.49745 0.67161 0.0
H2043 H 0.60654 0.48568 0.72118 0.0
H2044 H 0.57627 0.48897 0.68936 0.0
H2045 H 0.52034 0.49662 0.74185 0.0
H2046 H 0.46446 0.53357 0.65134 0.0
H2047 H 0.49565 0.52264 0.66831 0.0
C2048 C 0.41098 0.04892 0.27052 0.0
C2049 C 0.40014 0.05699 0.25127 0.0
C2050 C 0.40943 0.05055 0.30094 0.0
C2051 C 0.39157 0.07211 0.36024 0.0
H2052 H 0.3808 0.04042 0.40084 0.0
C2053 C 0.38593 0.06669 0.48752 0.0
C2054 C 0.37122 0.05796 0.49827 0.0
C2055 C 0.38904 0.06806 0.45718 0.0
C2056 C 0.38358 0.04936 0.3898 0.0
H2057 H 0.38022 0.07358 0.24863 0.0
H2058 H 0.37718 0.07626 0.30192 0.0
H2059 H 0.38871 0.04019 0.34854 0.0
H2060 H 0.34723 0.04451 0.48577 0.0
H2061 H 0.35242 0.04706 0.43295 0.0
H2062 H 0.3859 0.08125 0.40175 0.0
C2063 C 0.38704 0.06876 0.29347 0.0
C2064 C 0.38846 0.04922 0.35991 0.0
C2065 C 0.38872 0.06719 0.26296 0.0
C2066 C 0.35887 0.05119 0.47817 0.0
C2067 C 0.36191 0.0526 0.44792 0.0
C2068 C 0.38667 0.07225 0.39032 0.0
C2069 C 0.39686 0.06021 0.31273 0.0
C2070 C 0.39252 0.06057 0.34479 0.0
C2071 C 0.37744 0.06076 0.43714 0.0
C2072 C 0.3825 0.06087 0.4053 0.0
H2073 H 0.42014 0.04108 0.26214 0.0
H2074 H 0.41757 0.04399 0.31526 0.0
H2075 H 0.39468 0.081 0.34913 0.0
H2076 H 0.39566 0.07206 0.50251 0.0
H2077 H 0.40117 0.07439 0.44949 0.0
C2078 C 0.88035 0.17791 0.26067 0.0
C2079 C 0.87221 0.18939 0.24985 0.0
C2080 C 0.88697 0.17698 0.29 0.0
C2081 C 0.90718 0.19694 0.34871 0.0
H2082 H 0.88649 0.17195 0.40417 0.0
C2083 C 0.90348 0.20627 0.47179 0.0
C2084 C 0.90769 0.19646 0.49185 0.0
C2085 C 0.90312 0.20387 0.44162 0.0
C2086 C 0.89279 0.17881 0.38879 0.0
H2087 H 0.86368 0.20867 0.26165 0.0
H2088 H 0.87534 0.20703 0.31243 0.0
H2089 H 0.87738 0.17021 0.35182 0.0
H2090 H 0.91528 0.1765 0.49605 0.0
H2091 H 0.91454 0.1723 0.44293 0.0
H2092 H 0.92209 0.20577 0.38548 0.0
C2093 C 0.87683 0.19882 0.29819 0.0
C2094 C 0.88753 0.17782 0.35894 0.0
C2095 C 0.87003 0.19972 0.26916 0.0
C2096 C 0.912 0.18424 0.48108 0.0
C2097 C 0.9115 0.18182 0.45075 0.0
C2098 C 0.91252 0.19788 0.37837 0.0
C2099 C 0.88575 0.18756 0.30867 0.0
C2100 C 0.89405 0.18718 0.33896 0.0
C2101 C 0.90691 0.19161 0.4308 0.0
C2102 C 0.90471 0.18912 0.39887 0.0
H2103 H 0.88215 0.16977 0.24632 0.0
H2104 H 0.89371 0.16817 0.29777 0.0
H2105 H 0.91271 0.20412 0.33351 0.0
H2106 H 0.90009 0.21579 0.47937 0.0
H2107 H 0.89918 0.21157 0.42681 0.0
C2108 C 0.37596 0.17372 0.98642 0.0
C2109 C 0.38616 0.18465 0.99673 0.0
C2110 C 0.37419 0.17145 0.95614 0.0
C2111 C 0.39474 0.18147 0.88338 0.0
H2112 H 0.33836 0.1755 0.85581 0.0
C2113 C 0.36602 0.1994 0.77255 0.0
C2114 C 0.3542 0.19132 0.75448 0.0
C2115 C 0.37108 0.19585 0.80122 0.0
C2116 C 0.35425 0.17691 0.86316 0.0
H2117 H 0.40331 0.20144 0.98351 0.0
H2118 H 0.40011 0.19753 0.93097 0.0
H2119 H 0.34624 0.17371 0.90838 0.0
H2120 H 0.33795 0.1733 0.75261 0.0
H2121 H 0.34655 0.1672 0.80338 0.0
H2122 H 0.40251 0.18531 0.83837 0.0
C2123 C 0.39363 0.19065 0.94614 0.0
C2124 C 0.35879 0.17586 0.89321 0.0
C2125 C 0.39531 0.19295 0.97629 0.0
C2126 C 0.3471 0.17972 0.76601 0.0
C2127 C 0.35202 0.17622 0.79497 0.0
C2128 C 0.3902 0.18256 0.85344 0.0
C2129 C 0.38273 0.18001 0.93572 0.0
C2130 C 0.37891 0.1786 0.9037 0.0
C2131 C 0.36431 0.1842 0.81262 0.0
C2132 C 0.36976 0.18075 0.84324 0.0
H2133 H 0.3688 0.16712 0.00167 0.0
H2134 H 0.36583 0.16312 0.94869 0.0
H2135 H 0.41048 0.18338 0.89079 0.0
H2136 H 0.37161 0.20844 0.76452 0.0
H2137 H 0.38017 0.20231 0.81461 0.0
C2138 C 0.84917 0.06637 0.98219 0.0
C2139 C 0.8505 0.05405 0.99392 0.0
C2140 C 0.85497 0.0687 0.95295 0.0
C2141 C 0.88895 0.05603 0.89576 0.0
H2142 H 0.85263 0.07253 0.83922 0.0
C2143 C 0.89593 0.04768 0.77215 0.0
C2144 C 0.89131 0.0575 0.75231 0.0
C2145 C 0.89344 0.04946 0.80237 0.0
C2146 C 0.86317 0.06817 0.85487 0.0
H2147 H 0.85798 0.03444 0.9838 0.0
H2148 H 0.8682 0.03856 0.9331 0.0
H2149 H 0.84242 0.07153 0.89115 0.0
H2150 H 0.88126 0.07708 0.74861 0.0
H2151 H 0.87707 0.08023 0.8017 0.0
H2152 H 0.90956 0.05245 0.85969 0.0
C2153 C 0.86295 0.04641 0.9466 0.0
C2154 C 0.85727 0.06757 0.88451 0.0
C2155 C 0.85696 0.04406 0.97559 0.0
C2156 C 0.88485 0.06931 0.76338 0.0
C2157 C 0.88237 0.0711 0.79373 0.0
C2158 C 0.89493 0.05673 0.86627 0.0
C2159 C 0.86238 0.05877 0.93522 0.0
C2160 C 0.8698 0.06111 0.90493 0.0
C2161 C 0.88635 0.06112 0.81347 0.0
C2162 C 0.88177 0.06241 0.84534 0.0
H2163 H 0.84421 0.07425 0.99578 0.0
H2164 H 0.85433 0.07829 0.9445 0.0
H2165 H 0.89905 0.05122 0.9113 0.0
H2166 H 0.9009 0.03845 0.76435 0.0
H2167 H 0.8963 0.04151 0.81693 0.0
C2168 C 0.59093 0.93776 0.73123 0.0
C2169 C 0.59369 0.94988 0.74349 0.0
C2170 C 0.59354 0.93585 0.70093 0.0
C2171 C 0.59675 0.95303 0.62991 0.0
H2172 H 0.6337 0.92575 0.60612 0.0
C2173 C 0.64285 0.95542 0.52337 0.0
C2174 C 0.64106 0.94509 0.50399 0.0
C2175 C 0.63573 0.95446 0.55227 0.0
C2176 C 0.62314 0.93328 0.61245 0.0
H2177 H 0.60054 0.96957 0.73355 0.0
H2178 H 0.60521 0.96623 0.68107 0.0
H2179 H 0.62163 0.92697 0.65731 0.0
H2180 H 0.6317 0.92538 0.50026 0.0
H2181 H 0.61953 0.92369 0.55136 0.0
H2182 H 0.59898 0.95965 0.58546 0.0
C2183 C 0.60086 0.95821 0.69466 0.0
C2184 C 0.61616 0.93396 0.64163 0.0
C2185 C 0.59833 0.96011 0.72481 0.0
C2186 C 0.6332 0.93352 0.51467 0.0
C2187 C 0.62623 0.93254 0.54382 0.0
C2188 C 0.60384 0.9524 0.60093 0.0
C2189 C 0.59878 0.94604 0.68244 0.0
C2190 C 0.6034 0.94407 0.6508 0.0
C2191 C 0.62686 0.94314 0.56248 0.0
C2192 C 0.61756 0.94275 0.5922 0.0
H2193 H 0.58734 0.92969 0.7451 0.0
H2194 H 0.5917 0.92638 0.69203 0.0
H2195 H 0.58657 0.96076 0.6362 0.0
H2196 H 0.64897 0.96444 0.51595 0.0
H2197 H 0.63674 0.96269 0.56651 0.0
C2198 C 0.10734 0.79914 0.52037 0.0
C2199 C 0.108 0.80938 0.50061 0.0
C2200 C 0.10808 0.80123 0.55065 0.0
C2201 C 0.12753 0.82354 0.60514 0.0
H2202 H 0.09617 0.802 0.65843 0.0
C2203 C 0.13763 0.8225 0.73324 0.0
C2204 C 0.14021 0.81017 0.7445 0.0
C2205 C 0.13191 0.82433 0.70377 0.0
C2206 C 0.10495 0.80811 0.64379 0.0
H2207 H 0.10951 0.82988 0.49708 0.0
H2208 H 0.11087 0.83351 0.55041 0.0
H2209 H 0.08781 0.80203 0.60596 0.0
H2210 H 0.13949 0.79014 0.73349 0.0
H2211 H 0.12945 0.79336 0.68239 0.0
H2212 H 0.14503 0.82933 0.64313 0.0
C2213 C 0.10983 0.82388 0.54226 0.0
C2214 C 0.10019 0.80813 0.61384 0.0
C2215 C 0.10898 0.8218 0.5118 0.0
C2216 C 0.13754 0.79976 0.72559 0.0
C2217 C 0.13163 0.80158 0.69638 0.0
C2218 C 0.13223 0.82357 0.63525 0.0
C2219 C 0.10952 0.81359 0.56192 0.0
C2220 C 0.11194 0.81547 0.59407 0.0
C2221 C 0.12845 0.81385 0.68534 0.0
C2222 C 0.12146 0.81549 0.65457 0.0
H2223 H 0.1066 0.78946 0.51249 0.0
H2224 H 0.10819 0.79309 0.56523 0.0
H2225 H 0.1369 0.82925 0.59037 0.0
H2226 H 0.13962 0.83071 0.7473 0.0
H2227 H 0.12962 0.83388 0.69563 0.0
C2228 C 0.65966 0.81582 0.23242 0.0
C2229 C 0.65551 0.80388 0.24485 0.0
C2230 C 0.6583 0.8176 0.20192 0.0
C2231 C 0.65761 0.80002 0.13159 0.0
H2232 H 0.62431 0.82808 0.10252 0.0
C2233 C 0.61977 0.79855 0.01843 0.0
C2234 C 0.62219 0.80916 5e-05 0.0
C2235 C 0.62523 0.79919 0.04808 0.0
C2236 C 0.63389 0.82032 0.11033 0.0
H2237 H 0.64713 0.78438 0.23508 0.0
H2238 H 0.64468 0.7875 0.18219 0.0
H2239 H 0.63285 0.82681 0.15509 0.0
H2240 H 0.63128 0.82897 0.99866 0.0
H2241 H 0.64071 0.83009 0.05094 0.0
H2242 H 0.65811 0.7933 0.08714 0.0
C2243 C 0.64918 0.79547 0.19586 0.0
C2244 C 0.63882 0.81961 0.14032 0.0
C2245 C 0.65046 0.7937 0.22622 0.0
C2246 C 0.62929 0.82062 0.01228 0.0
C2247 C 0.63468 0.82128 0.04213 0.0
C2248 C 0.65262 0.80071 0.10176 0.0
C2249 C 0.65293 0.80744 0.18341 0.0
C2250 C 0.65025 0.80926 0.1513 0.0
C2251 C 0.63316 0.81046 0.06005 0.0
C2252 C 0.64025 0.81066 0.09102 0.0
H2253 H 0.66359 0.82384 0.24626 0.0
H2254 H 0.66136 0.82691 0.19283 0.0
H2255 H 0.6668 0.79208 0.13937 0.0
H2256 H 0.61417 0.7896 0.0098 0.0
H2257 H 0.62349 0.79079 0.06163 0.0
C2258 C 0.15684 0.93929 0.01523 0.0
C2259 C 0.15217 0.95128 0.00342 0.0
C2260 C 0.15475 0.93707 0.04548 0.0
C2261 C 0.15102 0.95362 0.11681 0.0
H2262 H 0.11784 0.92483 0.14192 0.0
C2263 C 0.10912 0.95374 0.22665 0.0
C2264 C 0.1121 0.94324 0.24522 0.0
C2265 C 0.11522 0.95323 0.19725 0.0
C2266 C 0.12738 0.93279 0.1352 0.0
H2267 H 0.14217 0.97041 0.01401 0.0
H2268 H 0.13852 0.96653 0.06651 0.0
H2269 H 0.12817 0.92678 0.09005 0.0
H2270 H 0.12255 0.92369 0.24709 0.0
H2271 H 0.13308 0.92279 0.19517 0.0
H2272 H 0.14965 0.95988 0.16158 0.0
C2273 C 0.14395 0.95887 0.05255 0.0
C2274 C 0.13334 0.93389 0.10565 0.0
C2275 C 0.14591 0.96107 0.02243 0.0
C2276 C 0.12014 0.93194 0.23331 0.0
C2277 C 0.12617 0.93142 0.20368 0.0
C2278 C 0.14502 0.95255 0.14618 0.0
C2279 C 0.14817 0.94683 0.06434 0.0
C2280 C 0.14468 0.94453 0.09609 0.0
C2281 C 0.12433 0.9422 0.18575 0.0
C2282 C 0.13262 0.94234 0.15543 0.0
H2283 H 0.16168 0.93156 0.00106 0.0
H2284 H 0.15818 0.92772 0.0541 0.0
H2285 H 0.16013 0.96178 0.11011 0.0
H2286 H 0.10276 0.96255 0.23504 0.0
H2287 H 0.11322 0.96158 0.18362 0.0
C2288 C 0.39169 0.56795 0.76413 0.0
C2289 C 0.39691 0.55597 0.75271 0.0
C2290 C 0.38498 0.56917 0.79335 0.0
C2291 C 0.35913 0.5505 0.85018 0.0
H2292 H 0.38127 0.5747 0.90639 0.0
C2293 C 0.35338 0.54325 0.97426 0.0
C2294 C 0.35042 0.55373 0.99287 0.0
C2295 C 0.35589 0.54494 0.94403 0.0
C2296 C 0.37461 0.56808 0.89076 0.0
H2297 H 0.4005 0.53602 0.76346 0.0
H2298 H 0.38884 0.53819 0.8142 0.0
H2299 H 0.39328 0.57518 0.85513 0.0
H2300 H 0.34701 0.57419 0.99431 0.0
H2301 H 0.3514 0.57713 0.94112 0.0
H2302 H 0.34077 0.54322 0.88565 0.0
C2303 C 0.38957 0.54658 0.80045 0.0
C2304 C 0.38155 0.56833 0.86154 0.0
C2305 C 0.39638 0.54537 0.77145 0.0
C2306 C 0.34929 0.56593 0.98049 0.0
C2307 C 0.35191 0.56763 0.95013 0.0
C2308 C 0.35213 0.5503 0.87924 0.0
C2309 C 0.38329 0.55841 0.8114 0.0
C2310 C 0.37433 0.55927 0.84131 0.0
C2311 C 0.35552 0.55715 0.93171 0.0
C2312 C 0.36029 0.55881 0.90003 0.0
H2313 H 0.39199 0.5763 0.75024 0.0
H2314 H 0.3803 0.57841 0.80143 0.0
H2315 H 0.35298 0.54361 0.83475 0.0
H2316 H 0.35431 0.53372 0.9831 0.0
H2317 H 0.35895 0.53669 0.93047 0.0
C2318 C 0.90918 0.69872 0.9778 0.0
C2319 C 0.90075 0.69048 -0.001 0.0
C2320 C 0.90809 0.69571 0.94792 0.0
C2321 C 0.87525 0.67851 0.89652 0.0
H2322 H 0.91809 0.68848 0.84082 0.0
C2323 C 0.86299 0.67952 0.76935 0.0
C2324 C 0.86894 0.69111 0.75657 0.0
C2325 C 0.86844 0.67672 0.79853 0.0
C2326 C 0.90604 0.68558 0.85614 0.0
H2327 H 0.88544 0.67236 0.00567 0.0
H2328 H 0.8835 0.66714 0.95322 0.0
H2329 H 0.92605 0.68796 0.89344 0.0
H2330 H 0.88498 0.70891 0.7645 0.0
H2331 H 0.89442 0.70403 0.81501 0.0
H2332 H 0.85502 0.67662 0.85919 0.0
C2333 C 0.89082 0.67595 0.95983 0.0
C2334 C 0.91058 0.68529 0.88619 0.0
C2335 C 0.892 0.67893 0.98981 0.0
C2336 C 0.88023 0.69987 0.77355 0.0
C2337 C 0.88582 0.69704 0.80245 0.0
C2338 C 0.87071 0.67877 0.86639 0.0
C2339 C 0.89852 0.68443 0.93859 0.0
C2340 C 0.89501 0.68223 0.90674 0.0
C2341 C 0.88012 0.68542 0.81516 0.0
C2342 C 0.88586 0.68279 0.8461 0.0
H2343 H 0.91607 0.70768 0.98418 0.0
H2344 H 0.91391 0.70253 0.93206 0.0
H2345 H 0.86288 0.6762 0.91188 0.0
H2346 H 0.85429 0.67258 0.7568 0.0
H2347 H 0.8638 0.66772 0.80794 0.0
C2348 C 0.36511 0.70307 0.27062 0.0
C2349 C 0.36411 0.69255 0.25172 0.0
C2350 C 0.37142 0.70162 0.29976 0.0
C2351 C 0.37649 0.67963 0.36082 0.0
H2352 H 0.41781 0.70394 0.38736 0.0
C2353 C 0.40466 0.68215 0.48198 0.0
C2354 C 0.40346 0.69444 0.49381 0.0
C2355 C 0.40303 0.68026 0.45154 0.0
C2356 C 0.40632 0.69707 0.38025 0.0
H2357 H 0.36774 0.67212 0.24901 0.0
H2358 H 0.37857 0.66959 0.30051 0.0
H2359 H 0.4074 0.70362 0.33567 0.0
H2360 H 0.40039 0.71441 0.48309 0.0
H2361 H 0.39752 0.71112 0.4303 0.0
H2362 H 0.37482 0.67343 0.40577 0.0
C2363 C 0.37464 0.67896 0.29243 0.0
C2364 C 0.40035 0.6969 0.35075 0.0
C2365 C 0.36843 0.68042 0.26305 0.0
C2366 C 0.40134 0.70482 0.47466 0.0
C2367 C 0.39986 0.70294 0.44437 0.0
C2368 C 0.38241 0.67983 0.39049 0.0
C2369 C 0.37673 0.68961 0.31071 0.0
C2370 C 0.3849 0.68847 0.341 0.0
C2371 C 0.40041 0.69065 0.43252 0.0
C2372 C 0.39689 0.68884 0.40059 0.0
H2373 H 0.36165 0.71253 0.2627 0.0
H2374 H 0.37244 0.70995 0.31368 0.0
H2375 H 0.36455 0.67304 0.35375 0.0
H2376 H 0.40629 0.67397 0.49624 0.0
H2377 H 0.4036 0.6707 0.44289 0.0
C2378 C 0.8704 0.56638 0.4924 0.0
C2379 C 0.8606 0.55533 0.50288 0.0
C2380 C 0.87576 0.56746 0.46261 0.0
C2381 C 0.89031 0.54707 0.40183 0.0
H2382 H 0.87787 0.57525 0.34979 0.0
C2383 C 0.89308 0.54203 0.27715 0.0
C2384 C 0.9009 0.55202 0.25995 0.0
C2385 C 0.89036 0.54352 0.30737 0.0
C2386 C 0.8818 0.56743 0.36425 0.0
H2387 H 0.84739 0.5372 0.49008 0.0
H2388 H 0.85677 0.53913 0.43833 0.0
H2389 H 0.86752 0.57628 0.40183 0.0
H2390 H 0.91229 0.57138 0.26098 0.0
H2391 H 0.90762 0.57396 0.31426 0.0
H2392 H 0.90442 0.53813 0.3646 0.0
C2393 C 0.86057 0.54683 0.45319 0.0
C2394 C 0.8758 0.56801 0.39388 0.0
C2395 C 0.85511 0.54578 0.48278 0.0
C2396 C 0.90625 0.56351 0.27371 0.0
C2397 C 0.90348 0.56502 0.30411 0.0
C2398 C 0.89641 0.54653 0.37243 0.0
C2399 C 0.8715 0.55749 0.44306 0.0
C2400 C 0.87949 0.55766 0.4126 0.0
C2401 C 0.89546 0.55503 0.32116 0.0
C2402 C 0.89167 0.55653 0.35313 0.0
H2403 H 0.87475 0.57393 0.50737 0.0
H2404 H 0.88412 0.57579 0.45517 0.0
H2405 H 0.89376 0.5391 0.4161 0.0
H2406 H 0.88875 0.53307 0.26725 0.0
H2407 H 0.8838 0.53573 0.31985 0.0
C2408 C 0.65658 0.45871 0.02364 0.0
C2409 C 0.66272 0.44884 0.00477 0.0
C2410 C 0.65415 0.45654 0.05372 0.0
C2411 C 0.64262 0.43134 0.1065 0.0
H2412 H 0.65635 0.45766 0.16297 0.0
C2413 C 0.62806 0.42961 0.23424 0.0
C2414 C 0.61839 0.44061 0.24525 0.0
C2415 C 0.63452 0.42905 0.20478 0.0
C2416 C 0.65247 0.45023 0.14741 0.0
H2417 H 0.67174 0.42903 0.00274 0.0
H2418 H 0.66761 0.42527 0.05567 0.0
H2419 H 0.66802 0.45967 0.11204 0.0
H2420 H 0.60667 0.45927 0.23358 0.0
H2421 H 0.61805 0.45827 0.18252 0.0
H2422 H 0.62685 0.422 0.14221 0.0
C2423 C 0.6645 0.43465 0.04698 0.0
C2424 C 0.65911 0.45137 0.11832 0.0
C2425 C 0.66697 0.43683 0.01676 0.0
C2426 C 0.61425 0.4507 0.22591 0.0
C2427 C 0.62085 0.45018 0.19672 0.0
C2428 C 0.6361 0.43014 0.13582 0.0
C2429 C 0.65786 0.44447 0.06569 0.0
C2430 C 0.65368 0.44216 0.09734 0.0
C2431 C 0.63155 0.43951 0.18616 0.0
C2432 C 0.64044 0.43979 0.15619 0.0
H2433 H 0.65315 0.46807 0.01512 0.0
H2434 H 0.64868 0.46426 0.06746 0.0
H2435 H 0.63811 0.42412 0.09077 0.0
H2436 H 0.6314 0.42166 0.2486 0.0
H2437 H 0.64267 0.42071 0.19696 0.0
C2438 C 0.14009 0.32271 0.23225 0.0
C2439 C 0.13164 0.31164 0.2447 0.0
C2440 C 0.13521 0.32612 0.20325 0.0
C2441 C 0.0973 0.31986 0.14353 0.0
H2442 H 0.14398 0.32564 0.09089 0.0
C2443 C 0.09747 0.30472 0.02311 0.0
C2444 C 0.10746 0.31229 0.00194 0.0
C2445 C 0.09787 0.30812 0.05279 0.0
C2446 C 0.1307 0.32435 0.10535 0.0
H2447 H 0.11122 0.29559 0.23669 0.0
H2448 H 0.1029 0.30147 0.1864 0.0
H2449 H 0.14968 0.32542 0.14408 0.0
H2450 H 0.1251 0.32959 0.99506 0.0
H2451 H 0.126 0.33545 0.04722 0.0
H2452 H 0.07854 0.31812 0.10474 0.0
C2453 C 0.11305 0.30762 0.19905 0.0
C2454 C 0.13397 0.32423 0.1358 0.0
C2455 C 0.11801 0.30418 0.22781 0.0
C2456 C 0.11732 0.32354 0.01091 0.0
C2457 C 0.11787 0.32689 0.04071 0.0
C2458 C 0.09405 0.31996 0.11314 0.0
C2459 C 0.12165 0.31858 0.18641 0.0
C2460 C 0.11745 0.32145 0.15506 0.0
C2461 C 0.10837 0.31912 0.06194 0.0
C2462 C 0.11088 0.3217 0.09377 0.0
H2463 H 0.15059 0.32867 0.24479 0.0
H2464 H 0.14204 0.33462 0.19398 0.0
H2465 H 0.08422 0.31795 0.15798 0.0
H2466 H 0.08968 0.29601 0.01686 0.0
H2467 H 0.09068 0.30184 0.06874 0.0
C2468 C 0.60176 0.31992 0.51202 0.0
C2469 C 0.59844 0.30756 0.50144 0.0
C2470 C 0.60246 0.32226 0.54235 0.0
C2471 C 0.58939 0.30807 0.61477 0.0
H2472 H 0.63792 0.32635 0.64291 0.0
C2473 C 0.62556 0.29843 0.72693 0.0
C2474 C 0.63101 0.30877 0.74487 0.0
C2475 C 0.61936 0.30035 0.69787 0.0
C2476 C 0.6241 0.32143 0.63538 0.0
H2477 H 0.59253 0.28806 0.51427 0.0
H2478 H 0.59394 0.29212 0.56688 0.0
H2479 H 0.62985 0.32622 0.59022 0.0
H2480 H 0.63481 0.3292 0.74613 0.0
H2481 H 0.62426 0.3325 0.69475 0.0
H2482 H 0.58423 0.30278 0.65973 0.0
C2483 C 0.59577 0.30004 0.55189 0.0
C2484 C 0.61943 0.32138 0.60528 0.0
C2485 C 0.59513 0.29769 0.52169 0.0
C2486 C 0.63068 0.32105 0.73284 0.0
C2487 C 0.62465 0.32296 0.70352 0.0
C2488 C 0.59411 0.30807 0.64476 0.0
C2489 C 0.59971 0.3123 0.56255 0.0
C2490 C 0.60244 0.31433 0.59461 0.0
C2491 C 0.61863 0.31262 0.686 0.0
C2492 C 0.61189 0.31439 0.65516 0.0
H2493 H 0.6043 0.32772 0.49693 0.0
H2494 H 0.6054 0.33182 0.55001 0.0
H2495 H 0.57594 0.30278 0.60723 0.0
H2496 H 0.62577 0.28883 0.7354 0.0
H2497 H 0.61522 0.29219 0.68458 0.0
C2498 C 0.09286 0.44021 0.73006 0.0
C2499 C 0.09943 0.45176 0.74238 0.0
C2500 C 0.09428 0.43819 0.69964 0.0
C2501 C 0.09983 0.45529 0.62919 0.0
H2502 H 0.12842 0.42511 0.6016 0.0
C2503 C 0.1426 0.4548 0.52025 0.0
C2504 C 0.13746 0.44514 0.5002 0.0
C2505 C 0.13628 0.454 0.54952 0.0
C2506 C 0.12014 0.43347 0.60902 0.0
H2507 H 0.11219 0.47035 0.73255 0.0
H2508 H 0.1147 0.46682 0.67981 0.0
H2509 H 0.11859 0.42691 0.65372 0.0
H2510 H 0.12294 0.42667 0.49555 0.0
H2511 H 0.1121 0.42524 0.54732 0.0
H2512 H 0.10214 0.46209 0.58491 0.0
C2513 C 0.10827 0.45936 0.69348 0.0
C2514 C 0.11446 0.4345 0.63871 0.0
C2515 C 0.10697 0.46134 0.72374 0.0
C2516 C 0.12704 0.43428 0.51049 0.0
C2517 C 0.12082 0.43345 0.54001 0.0
C2518 C 0.10559 0.4543 0.59971 0.0
C2519 C 0.1021 0.44774 0.68114 0.0
C2520 C 0.10487 0.44561 0.64918 0.0
C2521 C 0.12483 0.44351 0.55942 0.0
C2522 C 0.11637 0.44357 0.58962 0.0
H2523 H 0.08701 0.43264 0.74392 0.0
H2524 H 0.08936 0.42917 0.69061 0.0
H2525 H 0.09206 0.46384 0.63657 0.0
H2526 H 0.15078 0.46324 0.51313 0.0
H2527 H 0.13991 0.46176 0.56432 0.0
C2528 C 0.17783 0.99421 0.29542 0.0
C2529 C 0.17919 0.98658 0.3207 0.0
C2530 C 0.19587 0.99833 0.28107 0.0
C2531 C 0.25069 0.98923 0.27071 0.0
H2532 H 0.25535 0.02234 0.23418 0.0
C2533 C 0.32646 0.00685 0.2151 0.0
C2534 C 0.32463 0.01434 0.18966 0.0
C2535 C 0.30876 0.00329 0.23102 0.0
C2536 C 0.25418 0.01299 0.24391 0.0
H2537 H 0.20023 0.97776 0.3518 0.0
H2538 H 0.23196 0.9851 0.32694 0.0
H2539 H 0.22482 0.01731 0.26401 0.0
H2540 H 0.30298 0.02355 0.16002 0.0
H2541 H 0.27184 0.01712 0.18747 0.0
H2542 H 0.27995 0.98486 0.25045 0.0
C2543 C 0.21695 0.98774 0.3179 0.0
C2544 C 0.23671 0.01013 0.26113 0.0
C2545 C 0.19885 0.98365 0.33232 0.0
C2546 C 0.30474 0.01777 0.17963 0.0
C2547 C 0.28699 0.01421 0.19555 0.0
C2548 C 0.26814 0.99208 0.25346 0.0
C2549 C 0.21565 0.99489 0.29173 0.0
C2550 C 0.23472 0.9982 0.27468 0.0
C2551 C 0.28881 0.00711 0.22173 0.0
C2552 C 0.27009 0.00399 0.23976 0.0
H2553 H 0.16278 0.99661 0.28616 0.0
H2554 H 0.19427 0.00374 0.2609 0.0
H2555 H 0.24948 0.97987 0.28037 0.0
H2556 H 0.34168 0.00401 0.22308 0.0
H2557 H 0.31079 0.99789 0.25114 0.0
C2558 C 0.04464 0.27084 0.32937 0.0
C2559 C 0.06323 0.26387 0.32958 0.0
C2560 C 0.02768 0.26672 0.31261 0.0
C2561 C 0.00606 0.23972 0.27016 0.0
H2562 H 0.98194 0.26632 0.2219 0.0
C2563 C 0.95003 0.22797 0.17517 0.0
C2564 C 0.93184 0.2353 0.17384 0.0
C2565 C 0.96672 0.23179 0.19285 0.0
C2566 C 0.98837 0.2588 0.23536 0.0
H2567 H 0.07873 0.24703 0.31362 0.0
H2568 H 0.04897 0.23964 0.28453 0.0
H2569 H 0.00837 0.27161 0.25847 0.0
H2570 H 0.91669 0.25238 0.18904 0.0
H2571 H 0.94592 0.25922 0.21983 0.0
H2572 H 0.98605 0.2269 0.24706 0.0
C2573 C 0.04731 0.2482 0.29752 0.0
C2574 C 0.00346 0.26183 0.25644 0.0
C2575 C 0.0643 0.25235 0.31427 0.0
C2576 C 0.93085 0.24678 0.18927 0.0
C2577 C 0.94754 0.25063 0.20697 0.0
C2578 C 0.99094 0.23668 0.24911 0.0
C2579 C 0.02911 0.2556 0.29561 0.0
C2580 C 0.01247 0.25233 0.27411 0.0
C2581 C 0.96541 0.24297 0.20968 0.0
C2582 C 0.98194 0.24619 0.23141 0.0
H2583 H 0.04372 0.27988 0.34062 0.0
H2584 H 0.01377 0.27252 0.31197 0.0
H2585 H 0.01258 0.2322 0.28357 0.0
H2586 H 0.95086 0.21895 0.16382 0.0
H2587 H 0.98037 0.22578 0.19408 0.0
C2588 C 0.19921 0.26968 0.9196 0.0
C2589 C 0.17935 0.2674 0.9314 0.0
C2590 C 0.21701 0.26533 0.93436 0.0
C2591 C 0.23423 0.25703 0.00925 0.0
H2592 H 0.28218 0.24231 0.97015 0.0
C2593 C 0.30245 0.23398 0.07316 0.0
C2594 C 0.3225 0.23502 0.06114 0.0
C2595 C 0.28521 0.23862 0.05764 0.0
C2596 C 0.26905 0.24659 0.98139 0.0
H2597 H 0.16224 0.25801 0.96626 0.0
H2598 H 0.19323 0.2504 0.99204 0.0
H2599 H 0.25169 0.2483 0.94117 0.0
H2600 H 0.34065 0.24239 0.02477 0.0
H2601 H 0.31068 0.2508 0.99791 0.0
H2602 H 0.25155 0.25546 0.04941 0.0
C2603 C 0.19517 0.25578 0.97187 0.0
C2604 C 0.25155 0.24997 0.96475 0.0
C2605 C 0.17746 0.26006 0.95708 0.0
C2606 C 0.32524 0.24138 0.03424 0.0
C2607 C 0.30807 0.24608 0.0188 0.0
C2608 C 0.25175 0.25373 0.02586 0.0
C2609 C 0.21516 0.25865 0.96112 0.0
C2610 C 0.2339 0.25514 0.97854 0.0
C2611 C 0.28778 0.24448 0.02993 0.0
C2612 C 0.26936 0.24841 0.01217 0.0
H2613 H 0.20098 0.27531 0.89977 0.0
H2614 H 0.2322 0.26768 0.92553 0.0
H2615 H 0.221 0.26122 0.02045 0.0
H2616 H 0.30002 0.22905 0.09384 0.0
H2617 H 0.26982 0.23713 0.06681 0.0
C2618 C 0.92719 0.00691 0.04347 0.0
C2619 C 0.92894 0.0151 0.06771 0.0
C2620 C 0.94472 0.00374 0.02682 0.0
C2621 C 0.00247 0.00434 0.02581 0.0
H2622 H 0.9946 0.00544 0.94094 0.0
C2623 C 0.07229 0.00179 0.94722 0.0
C2624 C 0.07054 0.99307 0.924 0.0
C2625 C 0.05471 0.00541 0.96329 0.0
C2626 C 0.99702 0.00501 0.96456 0.0
H2627 H 0.95027 0.02587 0.09476 0.0
H2628 H 0.98115 0.02037 0.0656 0.0
H2629 H 0.96493 0.00888 0.97362 0.0
H2630 H 0.04916 0.98189 0.89793 0.0
H2631 H 0.0182 0.98825 0.92595 0.0
H2632 H 0.03456 0.00048 0.01674 0.0
C2633 C 0.96627 0.01633 0.05947 0.0
C2634 C 0.98001 0.00693 0.98333 0.0
C2635 C 0.94866 0.01946 0.07623 0.0
C2636 C 0.05078 0.98871 0.91564 0.0
C2637 C 0.03312 0.99232 0.93176 0.0
C2638 C 0.01947 0.00245 0.00704 0.0
C2639 C 0.96437 0.00874 0.03402 0.0
C2640 C 0.98251 0.00657 0.01419 0.0
C2641 C 0.03504 1.00036 0.95644 0.0
C2642 C 0.01696 0.00276 0.9762 0.0
H2643 H 0.91207 0.00339 0.03667 0.0
H2644 H 0.94279 0.99762 0.00783 0.0
H2645 H 0.0049 0.00385 0.04942 0.0
H2646 H 0.08744 0.00529 0.95392 0.0
H2647 H 0.05664 0.01183 0.98172 0.0
C2648 C 0.68522 0.99979 0.81634 0.0
C2649 C 0.67955 0.98697 0.81696 0.0
C2650 C 0.70252 0.00372 0.79987 0.0
C2651 C 0.73478 0.9934 0.73646 0.0
H2652 H 0.77163 0.02032 0.76206 0.0
C2653 C 0.81174 0.00661 0.67633 0.0
C2654 C 0.81677 0.01953 0.67491 0.0
C2655 C 0.79424 0.0026 0.69229 0.0
C2656 C 0.76132 0.01288 0.75443 0.0
H2657 H 0.68768 0.96811 0.80224 0.0
H2658 H 0.7182 0.97484 0.77412 0.0
H2659 H 0.74356 0.01331 0.79441 0.0
H2660 H 0.80735 0.03842 0.68773 0.0
H2661 H 0.77663 0.0315 0.7152 0.0
H2662 H 0.75267 0.99293 0.69655 0.0
C2663 C 0.70915 0.98195 0.78567 0.0
C2664 C 0.74524 0.00886 0.77301 0.0
C2665 C 0.69185 0.97806 0.802 0.0
C2666 C 0.80365 0.02841 0.68852 0.0
C2667 C 0.78624 0.02443 0.70446 0.0
C2668 C 0.75091 0.9974 0.71792 0.0
C2669 C 0.71443 0.99486 0.7838 0.0
C2670 C 0.73175 0.99907 0.76427 0.0
C2671 C 0.78162 0.01146 0.70717 0.0
C2672 C 0.76433 0.00721 0.72665 0.0
H2673 H 0.67574 0.00681 0.82749 0.0
H2674 H 0.70603 0.01374 0.79875 0.0
H2675 H 0.72445 0.98599 0.72876 0.0
H2676 H 0.82188 0.9996 0.66639 0.0
H2677 H 0.79118 0.99254 0.69411 0.0
C2678 C 0.07143 0.7608 0.79998 0.0
C2679 C 0.0691 0.77 0.82205 0.0
C2680 C 0.0543 0.75689 0.78339 0.0
C2681 C 0.00331 0.76868 0.7586 0.0
H2682 H 0.99657 0.73434 0.72973 0.0
C2683 C 0.93035 0.75037 0.69682 0.0
C2684 C 0.93335 0.74135 0.67449 0.0
C2685 C 0.94731 0.75495 0.7129 0.0
C2686 C 0.99844 0.74402 0.73725 0.0
H2687 H 0.04719 0.78189 0.84541 0.0
H2688 H 0.01688 0.77487 0.8167 0.0
H2689 H 0.02421 0.73907 0.76487 0.0
H2690 H 0.95617 0.73056 0.65001 0.0
H2691 H 0.98606 0.73867 0.67792 0.0
H2692 H 0.97734 0.77356 0.73111 0.0
C2693 C 0.032 0.77082 0.81187 0.0
C2694 C 0.01421 0.74672 0.75752 0.0
C2695 C 0.04922 0.77471 0.82855 0.0
C2696 C 0.95362 0.73762 0.66699 0.0
C2697 C 0.97061 0.74213 0.68322 0.0
C2698 C 0.98746 0.76596 0.73839 0.0
C2699 C 0.03448 0.76213 0.78854 0.0
C2700 C 0.01689 0.75909 0.76838 0.0
C2701 C 0.96753 0.75048 0.70704 0.0
C2702 C 0.98492 0.75361 0.72739 0.0
H2703 H 0.08674 0.75714 0.79454 0.0
H2704 H 0.05684 0.75027 0.76548 0.0
H2705 H 0.00518 0.77836 0.76608 0.0
H2706 H 0.91475 0.75322 0.70311 0.0
H2707 H 0.9444 0.76132 0.73117 0.0
C2708 C 0.80306 0.72796 0.06951 0.0
C2709 C 0.82279 0.73206 0.06023 0.0
C2710 C 0.78528 0.7312 0.0533 0.0
C2711 C 0.76963 0.74033 0.97807 0.0
H2712 H 0.71801 0.75087 0.01507 0.0
C2713 C 0.70081 0.76234 0.91329 0.0
C2714 C 0.68059 0.76012 0.92374 0.0
C2715 C 0.71802 0.7576 0.92874 0.0
C2716 C 0.73219 0.74772 0.00436 0.0
H2717 H 0.83947 0.74334 0.0281 0.0
H2718 H 0.80846 0.74903 -0.00025 0.0
H2719 H 0.74813 0.74586 0.04566 0.0
H2720 H 0.66215 0.75056 0.9569 0.0
H2721 H 0.69209 0.74191 0.98342 0.0
H2722 H 0.75373 0.74217 0.93677 0.0
C2723 C 0.8067 0.74311 0.01911 0.0
C2724 C 0.74947 0.7449 0.02194 0.0
C2725 C 0.8244 0.73993 0.03538 0.0
C2726 C 0.67769 0.7524 0.94859 0.0
C2727 C 0.69483 0.7476 0.96391 0.0
C2728 C 0.75231 0.74308 0.96049 0.0
C2729 C 0.78699 0.73857 0.02752 0.0
C2730 C 0.76843 0.74129 0.00898 0.0
C2731 C 0.71523 0.7505 0.95477 0.0
C2732 C 0.7334 0.74689 0.97339 0.0
H2733 H 0.80151 0.72185 0.08861 0.0
H2734 H 0.7703 0.72754 0.0603 0.0
H2735 H 0.78394 0.73735 0.96745 0.0
H2736 H 0.70334 0.76837 0.89428 0.0
H2737 H 0.73348 0.76009 0.92114 0.0
C2738 C 0.32831 0.50522 0.706 0.0
C2739 C 0.32644 0.51326 0.6815 0.0
C2740 C 0.31078 0.50198 0.72261 0.0
C2741 C 0.25292 0.50223 0.72292 0.0
H2742 H 0.26019 0.50359 0.80787 0.0
C2743 C 0.18251 0.50044 0.80043 0.0
C2744 C 0.18385 0.4917 0.82368 0.0
C2745 C 0.2003 0.50387 0.78464 0.0
C2746 C 0.25794 0.50309 0.78422 0.0
H2747 H 0.30493 0.52372 0.65403 0.0
H2748 H 0.27411 0.51811 0.68307 0.0
H2749 H 0.29009 0.50692 0.77555 0.0
H2750 H 0.20476 0.48036 0.85018 0.0
H2751 H 0.23611 0.48644 0.82269 0.0
H2752 H 0.22076 0.49847 0.73161 0.0
C2753 C 0.28906 0.51421 0.68944 0.0
C2754 C 0.27509 0.50494 0.76565 0.0
C2755 C 0.30664 0.51741 0.67274 0.0
C2756 C 0.20344 0.48719 0.83242 0.0
C2757 C 0.22132 0.49063 0.8166 0.0
C2758 C 0.23578 0.50043 0.74148 0.0
C2759 C 0.29102 0.50676 0.71509 0.0
C2760 C 0.2728 0.50452 0.73476 0.0
C2761 C 0.2198 0.49865 0.79184 0.0
C2762 C 0.23807 0.50086 0.77234 0.0
H2763 H 0.34349 0.50189 0.71302 0.0
H2764 H 0.31279 0.49597 0.74177 0.0
H2765 H 0.25064 0.50167 0.69928 0.0
H2766 H 0.1675 0.50407 0.79346 0.0
H2767 H 0.19868 0.5103 0.76614 0.0
C2768 C 0.19926 0.76323 0.41982 0.0
C2769 C 0.17953 0.7601 0.4309 0.0
C2770 C 0.21721 0.75991 0.43553 0.0
C2771 C 0.23742 0.73965 0.49584 0.0
H2772 H 0.27695 0.76705 0.50669 0.0
C2773 C 0.30528 0.7352 0.57829 0.0
C2774 C 0.32478 0.7391 0.5677 0.0
C2775 C 0.28711 0.73839 0.56293 0.0
C2776 C 0.26617 0.75926 0.5037 0.0
H2777 H 0.16287 0.75042 0.46574 0.0
H2778 H 0.19419 0.74449 0.49314 0.0
H2779 H 0.24683 0.77013 0.47473 0.0
H2780 H 0.34073 0.74997 0.53414 0.0
H2781 H 0.30914 0.7555 0.50712 0.0
H2782 H 0.25681 0.72874 0.52462 0.0
C2783 C 0.19592 0.7495 0.47244 0.0
C2784 C 0.24896 0.76101 0.48528 0.0
C2785 C 0.178 0.75289 0.45681 0.0
C2786 C 0.32579 0.74687 0.54265 0.0
C2787 C 0.30769 0.75005 0.52726 0.0
C2788 C 0.25469 0.73788 0.51418 0.0
C2789 C 0.21568 0.75333 0.46246 0.0
C2790 C 0.2344 0.75122 0.4811 0.0
C2791 C 0.28817 0.74555 0.53673 0.0
C2792 C 0.26929 0.74767 0.51834 0.0
H2793 H 0.20074 0.76886 0.39994 0.0
H2794 H 0.23225 0.76282 0.42705 0.0
H2795 H 0.22655 0.7319 0.4929 0.0
H2796 H 0.30417 0.72914 0.59753 0.0
H2797 H 0.27229 0.73498 0.57113 0.0
C2798 C 0.05516 0.47465 0.43838 0.0
C2799 C 0.0683 0.48355 0.42486 0.0
C2800 C 0.03785 0.47862 0.45461 0.0
C2801 C 0.00278 0.5057 0.4692 0.0
H2802 H 0.99572 0.48942 0.54532 0.0
C2803 C 0.94444 0.52486 0.5547 0.0
C2804 C 0.93227 0.51595 0.56989 0.0
C2805 C 0.9615 0.52098 0.53785 0.0
C2806 C 0.9973 0.49398 0.52402 0.0
H2807 H 0.07351 0.5035 0.41682 0.0
H2808 H 0.04298 0.51053 0.445 0.0
H2809 H 0.02354 0.48248 0.51246 0.0
H2810 H 0.92844 0.49607 0.58004 0.0
H2811 H 0.9583 0.48915 0.55042 0.0
H2812 H 0.97647 0.51715 0.48064 0.0
C2813 C 0.04596 0.50047 0.44289 0.0
C2814 C 0.01325 0.48999 0.50515 0.0
C2815 C 0.06335 0.49647 0.42666 0.0
C2816 C 0.93782 0.50311 0.56881 0.0
C2817 C 0.95489 0.49919 0.55181 0.0
C2818 C 0.98677 0.50966 0.48803 0.0
C2819 C 0.03333 0.49159 0.4577 0.0
C2820 C 0.01617 0.4958 0.4775 0.0
C2821 C 0.96668 0.50806 0.53563 0.0
C2822 C 0.98384 0.50387 0.51572 0.0
H2823 H 0.05878 0.46463 0.43734 0.0
H2824 H 0.02825 0.47153 0.46528 0.0
H2825 H 0.00447 0.51028 0.44794 0.0
H2826 H 0.94037 0.53483 0.55526 0.0
H2827 H 0.97046 0.5281 0.52623 0.0
C2828 C 0.68983 0.49351 0.31588 0.0
C2829 C 0.68628 0.48046 0.3188 0.0
C2830 C 0.7065 0.4979 0.29879 0.0
C2831 C 0.7398 0.4876 0.2368 0.0
H2832 H 0.77303 0.51692 0.25755 0.0
C2833 C 0.81509 0.50238 0.17483 0.0
C2834 C 0.81913 0.51539 0.17232 0.0
C2835 C 0.79767 0.49816 0.19063 0.0
C2836 C 0.76368 0.50882 0.25121 0.0
H2837 H 0.69755 0.46175 0.30759 0.0
H2838 H 0.72698 0.46936 0.27835 0.0
H2839 H 0.74617 0.50949 0.29141 0.0
H2840 H 0.808 0.53421 0.18267 0.0
H2841 H 0.77726 0.52691 0.2096 0.0
H2842 H 0.7574 0.4869 0.19666 0.0
C2843 C 0.71677 0.47623 0.28866 0.0
C2844 C 0.74833 0.50455 0.27069 0.0
C2845 C 0.70012 0.47187 0.30566 0.0
C2846 C 0.805 0.52413 0.18425 0.0
C2847 C 0.78761 0.51994 0.19995 0.0
C2848 C 0.75517 0.49187 0.21733 0.0
C2849 C 0.71983 0.48929 0.28434 0.0
C2850 C 0.73626 0.49386 0.26377 0.0
C2851 C 0.78411 0.50691 0.20418 0.0
C2852 C 0.76729 0.50253 0.22431 0.0
H2853 H 0.67909 0.50027 0.3255 0.0
H2854 H 0.70834 0.50802 0.29577 0.0
H2855 H 0.7305 0.47947 0.23052 0.0
H2856 H 0.82603 0.49552 0.16612 0.0
H2857 H 0.79549 0.48806 0.19361 0.0
C2858 C 0.80554 0.23839 0.5743 0.0
C2859 C 0.82523 0.24146 0.56295 0.0
C2860 C 0.78747 0.24214 0.55936 0.0
C2861 C 0.76753 0.26357 0.50062 0.0
H2862 H 0.72466 0.2379 0.49265 0.0
C2863 C 0.69805 0.26973 0.42075 0.0
C2864 C 0.67843 0.26677 0.43252 0.0
C2865 C 0.71622 0.26628 0.43587 0.0
C2866 C 0.7364 0.24521 0.49484 0.0
H2867 H 0.84166 0.25142 0.52832 0.0
H2868 H 0.81021 0.25789 0.50203 0.0
H2869 H 0.75541 0.23354 0.52249 0.0
H2870 H 0.66223 0.25732 0.46814 0.0
H2871 H 0.69383 0.25132 0.49463 0.0
H2872 H 0.7485 0.27522 0.47284 0.0
C2873 C 0.80857 0.25265 0.52244 0.0
C2874 C 0.754 0.24274 0.51207 0.0
C2875 C 0.82659 0.24891 0.53739 0.0
C2876 C 0.67723 0.25978 0.45879 0.0
C2877 C 0.69533 0.25629 0.47384 0.0
C2878 C 0.74993 0.26604 0.48333 0.0
C2879 C 0.78879 0.24904 0.53284 0.0
C2880 C 0.76977 0.25189 0.51524 0.0
C2881 C 0.71504 0.25973 0.46289 0.0
C2882 C 0.73414 0.2569 0.48027 0.0
H2883 H 0.80412 0.23261 0.59395 0.0
H2884 H 0.77247 0.2394 0.56827 0.0
H2885 H 0.77926 0.27089 0.50282 0.0
H2886 H 0.6993 0.27512 0.40048 0.0
H2887 H 0.73117 0.26889 0.42662 0.0
C2888 C 0.5613 0.25409 0.82183 0.0
C2889 C 0.56269 0.26686 0.83007 0.0
C2890 C 0.5443 0.24985 0.8052 0.0
C2891 C 0.50654 0.26237 0.75167 0.0
H2892 H 0.47989 0.22964 0.76033 0.0
C2893 C 0.43343 0.24719 0.68539 0.0
C2894 C 0.43187 0.2344 0.67742 0.0
C2895 C 0.45014 0.25134 0.70271 0.0
C2896 C 0.48739 0.23874 0.75735 0.0
H2897 H 0.54738 0.28511 0.82893 0.0
H2898 H 0.5174 0.27769 0.80052 0.0
H2899 H 0.50627 0.23622 0.79588 0.0
H2900 H 0.44657 0.21599 0.67984 0.0
H2901 H 0.47613 0.22325 0.70933 0.0
H2902 H 0.48776 0.26488 0.71306 0.0
C2903 C 0.52945 0.27096 0.80644 0.0
C2904 C 0.50244 0.24253 0.77782 0.0
C2905 C 0.54639 0.27518 0.82303 0.0
C2906 C 0.44769 0.22594 0.68559 0.0
C2907 C 0.46439 0.23007 0.70279 0.0
C2908 C 0.49153 0.25858 0.73116 0.0
C2909 C 0.52856 0.25836 0.79645 0.0
C2910 C 0.51215 0.2544 0.77526 0.0
C2911 C 0.46547 0.24273 0.71236 0.0
C2912 C 0.48179 0.24671 0.73372 0.0
H2913 H 0.57396 0.24762 0.8266 0.0
H2914 H 0.54414 0.2401 0.79771 0.0
H2915 H 0.51404 0.27148 0.74871 0.0
H2916 H 0.42113 0.25379 0.6797 0.0
H2917 H 0.45042 0.26113 0.70984 0.0
C2918 C 0.55625 0.97145 0.44062 0.0
C2919 C 0.56897 0.98058 0.42718 0.0
C2920 C 0.53865 0.97511 0.4566 0.0
C2921 C 0.50322 0.00222 0.47159 0.0
H2922 H 0.49469 0.98496 0.54625 0.0
C2923 C 0.44772 0.02208 0.55908 0.0
C2924 C 0.43344 0.01352 0.5714 0.0
C2925 C 0.46457 0.01769 0.54257 0.0
C2926 C 0.49677 0.98979 0.52537 0.0
H2927 H 0.57328 0.00059 0.41901 0.0
H2928 H 0.54253 0.00712 0.44714 0.0
H2929 H 0.52253 0.97801 0.51332 0.0
H2930 H 0.42573 0.99373 0.57716 0.0
H2931 H 0.45558 0.98593 0.54849 0.0
H2932 H 0.47766 0.01412 0.48392 0.0
C2933 C 0.54586 0.9971 0.44502 0.0
C2934 C 0.51266 0.98579 0.5064 0.0
C2935 C 0.56343 0.9934 0.42887 0.0
C2936 C 0.4368 0.00046 0.56823 0.0
C2937 C 0.45377 0.99604 0.55173 0.0
C2938 C 0.48743 0.00626 0.49063 0.0
C2939 C 0.53354 0.98801 0.45968 0.0
C2940 C 0.51613 0.99199 0.47931 0.0
C2941 C 0.46748 0.00464 0.53802 0.0
C2942 C 0.48412 1.00014 0.5178 0.0
H2943 H 0.56037 0.9615 0.43964 0.0
H2944 H 0.5293 0.96785 0.46706 0.0
H2945 H 0.50521 0.00708 0.45073 0.0
H2946 H 0.44534 0.0322 0.56124 0.0
H2947 H 0.47507 0.02453 0.53276 0.0
C2948 C 0.45006 0.73667 0.17095 0.0
C2949 C 0.43019 0.74025 0.18076 0.0
C2950 C 0.46775 0.74003 0.1872 0.0
C2951 C 0.48708 0.76099 0.24701 0.0
H2952 H 0.52618 0.73357 0.2607 0.0
C2953 C 0.55389 0.76603 0.33116 0.0
C2954 C 0.57351 0.76215 0.32095 0.0
C2955 C 0.53586 0.76269 0.31562 0.0
C2956 C 0.5155 0.74136 0.25695 0.0
H2957 H 0.41309 0.75075 0.21383 0.0
H2958 H 0.44392 0.75671 0.24221 0.0
H2959 H 0.49655 0.73026 0.22797 0.0
H2960 H 0.58979 0.75111 0.28801 0.0
H2961 H 0.55846 0.74528 0.26079 0.0
H2962 H 0.50608 0.77211 0.27589 0.0
C2963 C 0.44598 0.75133 0.22207 0.0
C2964 C 0.49857 0.73948 0.23806 0.0
C2965 C 0.42833 0.74794 0.20587 0.0
C2966 C 0.57477 0.75421 0.2962 0.0
C2967 C 0.55681 0.75086 0.2807 0.0
C2968 C 0.50404 0.76288 0.26587 0.0
C2969 C 0.46583 0.74708 0.21344 0.0
C2970 C 0.4842 0.74929 0.23277 0.0
C2971 C 0.53718 0.75537 0.2897 0.0
C2972 C 0.51849 0.75309 0.27101 0.0
H2973 H 0.4518 0.73068 0.15169 0.0
H2974 H 0.48287 0.7368 0.17969 0.0
H2975 H 0.47638 0.76877 0.24324 0.0
H2976 H 0.55259 0.7722 0.35018 0.0
H2977 H 0.52094 0.76613 0.32344 0.0
C2978 C 0.57766 0.49389 0.95725 0.0
C2979 C 0.57632 0.48625 0.932 0.0
C2980 C 0.55969 0.49742 0.97256 0.0
C2981 C 0.5057 0.48693 0.98524 0.0
H2982 H 0.49977 0.5199 0.02211 0.0
C2983 C 0.42956 0.50398 0.04094 0.0
C2984 C 0.43119 0.51166 0.06611 0.0
C2985 C 0.44739 0.50024 0.02555 0.0
C2986 C 0.50132 0.51058 0.01232 0.0
H2987 H 0.55527 0.47681 0.90192 0.0
H2988 H 0.52361 0.48316 0.92841 0.0
H2989 H 0.53001 0.51555 0.9912 0.0
H2990 H 0.45261 0.52091 0.09598 0.0
H2991 H 0.48397 0.51419 0.0694 0.0
H2992 H 0.47697 0.48198 0.00635 0.0
C2993 C 0.5386 0.48623 0.93673 0.0
C2994 C 0.51863 0.50811 0.99448 0.0
C2995 C 0.55664 0.48272 0.92137 0.0
C2996 C 0.451 0.51496 0.07664 0.0
C2997 C 0.46888 0.51125 0.0612 0.0
C2998 C 0.48838 0.48941 0.00308 0.0
C2999 C 0.53995 0.49341 0.96287 0.0
C3000 C 0.52106 0.49624 0.98076 0.0
C3001 C 0.46725 0.5041 0.03506 0.0
C3002 C 0.486 0.50126 0.01689 0.0
H3003 H 0.5927 0.49681 0.96571 0.0
H3004 H 0.56135 0.50288 0.99266 0.0
H3005 H 0.50727 0.47762 0.97546 0.0
H3006 H 0.41439 0.50128 0.03252 0.0
H3007 H 0.44553 0.4948 0.00546 0.0
C3008 C 0.39976 0.16923 0.15075 0.0
C3009 C 0.38206 0.17569 0.14066 0.0
C3010 C 0.40042 0.15597 0.14992 0.0
C3011 C 0.36882 0.12682 0.13684 0.0
H3012 H 0.42024 0.11437 0.10241 0.0
C3013 C 0.3774 0.07474 0.09923 0.0
C3014 C 0.39513 0.06877 0.11085 0.0
C3015 C 0.37574 0.088 0.09993 0.0
C3016 C 0.4058 0.11769 0.1121 0.0
H3017 H 0.35092 0.17357 0.1232 0.0
H3018 H 0.35184 0.15048 0.12215 0.0
H3019 H 0.41696 0.13674 0.11487 0.0
H3020 H 0.42552 0.07182 0.13031 0.0
H3021 H 0.42291 0.0948 0.13086 0.0
H3022 H 0.35771 0.1077 0.134 0.0
C3023 C 0.36513 0.15551 0.13104 0.0
C3024 C 0.40398 0.13049 0.11953 0.0
C3025 C 0.36451 0.16874 0.13184 0.0
C3026 C 0.41177 0.07623 0.12097 0.0
C3027 C 0.41024 0.0894 0.12132 0.0
C3028 C 0.37065 0.11399 0.12937 0.0
C3029 C 0.38345 0.14899 0.13876 0.0
C3030 C 0.38553 0.13521 0.1322 0.0
C3031 C 0.3919 0.09544 0.11189 0.0
C3032 C 0.38922 0.10926 0.11709 0.0
H3033 H 0.41364 0.17443 0.15693 0.0
H3034 H 0.41464 0.15121 0.1565 0.0
H3035 H 0.35442 0.13012 0.14665 0.0
H3036 H 0.36425 0.06917 0.09174 0.0
H3037 H 0.36151 0.09241 0.09218 0.0
C3038 C 0.83576 0.07676 0.1166 0.0
C3039 C 0.85084 0.06974 0.13202 0.0
C3040 C 0.83695 0.08993 0.11525 0.0
C3041 C 0.86322 0.11826 0.14628 0.0
H3042 H 0.85323 0.13195 0.068 0.0
C3043 C 0.884 0.16952 0.11994 0.0
C3044 C 0.86813 0.17673 0.10687 0.0
C3045 C 0.88294 0.15634 0.12008 0.0
C3046 C 0.85594 0.12828 0.08999 0.0
H3047 H 0.87826 0.07099 0.15965 0.0
H3048 H 0.88054 0.09412 0.15717 0.0
H3049 H 0.84805 0.10939 0.07719 0.0
H3050 H 0.83931 0.17597 0.08225 0.0
H3051 H 0.83741 0.15273 0.08221 0.0
H3052 H 0.87125 0.13715 0.15899 0.0
C3053 C 0.86764 0.08944 0.14631 0.0
C3054 C 0.85288 0.11537 0.09536 0.0
C3055 C 0.8663 0.07619 0.14791 0.0
C3056 C 0.85194 0.17056 0.09191 0.0
C3057 C 0.8508 0.15729 0.09214 0.0
C3058 C 0.86637 0.13116 0.14087 0.0
C3059 C 0.85342 0.09641 0.129 0.0
C3060 C 0.85642 0.1102 0.12361 0.0
C3061 C 0.86583 0.15009 0.10743 0.0
C3062 C 0.86281 0.13631 0.11265 0.0
H3063 H 0.82359 0.07199 0.10428 0.0
H3064 H 0.82538 0.09501 0.10249 0.0
H3065 H 0.86584 0.11465 0.16834 0.0
H3066 H 0.89653 0.17413 0.13186 0.0
H3067 H 0.89499 0.15105 0.13143 0.0
C3068 C 0.614 0.83028 0.83944 0.0
C3069 C 0.62763 0.82381 0.85834 0.0
C3070 C 0.61373 0.84358 0.8392 0.0
C3071 C 0.62594 0.86986 0.89005 0.0
H3072 H 0.61409 0.89121 0.82261 0.0
C3073 C 0.6243 0.92503 0.89503 0.0
C3074 C 0.60917 0.93106 0.87759 0.0
C3075 C 0.62691 0.91185 0.89343 0.0
C3076 C 0.6172 0.88535 0.84173 0.0
H3077 H 0.65275 0.82589 0.88983 0.0
H3078 H 0.65293 0.84896 0.88852 0.0
H3079 H 0.61944 0.86853 0.81543 0.0
H3080 H 0.58384 0.92797 0.84674 0.0
H3081 H 0.58808 0.90511 0.84448 0.0
H3082 H 0.62355 0.88666 0.91637 0.0
C3083 C 0.64199 0.84392 0.8746 0.0
C3084 C 0.62031 0.87236 0.83756 0.0
C3085 C 0.6421 0.83072 0.87505 0.0
C3086 C 0.59585 0.92361 0.86013 0.0
C3087 C 0.59839 0.91051 0.85862 0.0
C3088 C 0.62285 0.88285 0.8942 0.0
C3089 C 0.62717 0.85052 0.85777 0.0
C3090 C 0.62465 0.86444 0.86169 0.0
C3091 C 0.61438 0.90451 0.87445 0.0
C3092 C 0.61828 0.89074 0.87013 0.0
H3093 H 0.60249 0.82512 0.82675 0.0
H3094 H 0.60209 0.84838 0.826 0.0
H3095 H 0.62883 0.86401 0.90924 0.0
H3096 H 0.63487 0.93056 0.9085 0.0
H3097 H 0.63937 0.90749 0.90596 0.0
C3098 C 0.14666 0.926 0.84762 0.0
C3099 C 0.13588 0.93248 0.86992 0.0
C3100 C 0.14804 0.91272 0.8484 0.0
C3101 C 0.14385 0.8863 0.90246 0.0
H3102 H 0.14451 0.865 0.83288 0.0
C3103 C 0.13833 0.8311 0.904 0.0
C3104 C 0.15061 0.8247 0.88311 0.0
C3105 C 0.13776 0.8444 0.90425 0.0
C3106 C 0.14455 0.87085 0.85252 0.0
H3107 H 0.11682 0.93029 0.90906 0.0
H3108 H 0.1184 0.90732 0.90969 0.0
H3109 H 0.13985 0.88783 0.82748 0.0
H3110 H 0.17331 0.82712 0.84804 0.0
H3111 H 0.17246 0.85014 0.8488 0.0
H3112 H 0.14823 0.86924 0.92747 0.0
C3113 C 0.12654 0.91233 0.89231 0.0
C3114 C 0.14191 0.88394 0.8494 0.0
C3115 C 0.12542 0.9255 0.89176 0.0
C3116 C 0.16348 0.83179 0.86417 0.0
C3117 C 0.16289 0.84498 0.86441 0.0
C3118 C 0.14633 0.8732 0.90558 0.0
C3119 C 0.13846 0.90577 0.87132 0.0
C3120 C 0.14147 0.89183 0.87434 0.0
C3121 C 0.14944 0.85143 0.88363 0.0
C3122 C 0.14677 0.86535 0.88064 0.0
H3123 H 0.15499 0.9312 0.83073 0.0
H3124 H 0.15738 0.90796 0.83186 0.0
H3125 H 0.14405 0.8921 0.92216 0.0
H3126 H 0.12817 0.82588 0.9187 0.0
H3127 H 0.12728 0.84915 0.91939 0.0
C3128 C 0.3801 0.5767 0.59507 0.0
C3129 C 0.39525 0.57106 0.61316 0.0
C3130 C 0.37756 0.58993 0.59516 0.0
C3131 C 0.3858 0.6167 0.64552 0.0
H3132 H 0.37858 0.63814 0.57695 0.0
C3133 C 0.39151 0.67149 0.64993 0.0
C3134 C 0.37977 0.67841 0.62945 0.0
C3135 C 0.39106 0.6582 0.64943 0.0
C3136 C 0.38017 0.63227 0.59642 0.0
H3137 H 0.42077 0.57476 0.64332 0.0
H3138 H 0.41655 0.59763 0.64308 0.0
H3139 H 0.38302 0.61534 0.57047 0.0
H3140 H 0.35717 0.67714 0.59412 0.0
H3141 H 0.35558 0.65411 0.59414 0.0
H3142 H 0.38292 0.63354 0.67154 0.0
C3143 C 0.40627 0.59194 0.6295 0.0
C3144 C 0.3828 0.61921 0.59261 0.0
C3145 C 0.4088 0.57885 0.6294 0.0
C3146 C 0.36642 0.67196 0.61009 0.0
C3147 C 0.36573 0.65876 0.60984 0.0
C3148 C 0.38301 0.62973 0.64936 0.0
C3149 C 0.39013 0.59759 0.61335 0.0
C3150 C 0.38597 0.61133 0.61709 0.0
C3151 C 0.37869 0.65169 0.62861 0.0
C3152 C 0.38039 0.63771 0.62485 0.0
H3153 H 0.36936 0.57089 0.58255 0.0
H3154 H 0.36505 0.59408 0.58235 0.0
H3155 H 0.38784 0.6108 0.66487 0.0
H3156 H 0.40213 0.67629 0.66476 0.0
H3157 H 0.40132 0.65307 0.66415 0.0
C3158 C 0.87389 0.57479 0.65822 0.0
C3159 C 0.85809 0.56901 0.64155 0.0
C3160 C 0.87645 0.588 0.65736 0.0
C3161 C 0.86619 0.61444 0.60644 0.0
H3162 H 0.87986 0.63606 0.67267 0.0
C3163 C 0.86592 0.66941 0.60031 0.0
C3164 C 0.87972 0.67594 0.61884 0.0
C3165 C 0.86498 0.65613 0.60124 0.0
C3166 C 0.87642 0.63012 0.6538 0.0
H3167 H 0.83148 0.5725 0.61322 0.0
H3168 H 0.83565 0.59539 0.61228 0.0
H3169 H 0.87386 0.61351 0.68084 0.0
H3170 H 0.90447 0.67388 0.65094 0.0
H3171 H 0.90357 0.65082 0.65155 0.0
H3172 H 0.86883 0.63098 0.57934 0.0
C3173 C 0.84643 0.5898 0.62528 0.0
C3174 C 0.87288 0.61721 0.65859 0.0
C3175 C 0.84391 0.5767 0.6261 0.0
C3176 C 0.89367 0.66902 0.63644 0.0
C3177 C 0.89294 0.65582 0.63711 0.0
C3178 C 0.86984 0.62733 0.60162 0.0
C3179 C 0.86323 0.59556 0.63985 0.0
C3180 C 0.86752 0.60924 0.63501 0.0
C3181 C 0.87795 0.64922 0.62056 0.0
C3182 C 0.8749 0.63536 0.62525 0.0
H3183 H 0.88516 0.56908 0.67006 0.0
H3184 H 0.88951 0.5922 0.66892 0.0
H3185 H 0.86248 0.60848 0.58769 0.0
H3186 H 0.85479 0.67457 0.58693 0.0
H3187 H 0.8532 0.65137 0.58824 0.0
C3188 C 0.59417 0.42067 0.39701 0.0
C3189 C 0.61212 0.42689 0.38703 0.0
C3190 C 0.593 0.40741 0.39596 0.0
C3191 C 0.62447 0.3781 0.38257 0.0
H3192 H 0.57186 0.36491 0.35381 0.0
C3193 C 0.61606 0.32602 0.34609 0.0
C3194 C 0.59981 0.31969 0.36068 0.0
C3195 C 0.61691 0.3393 0.34633 0.0
C3196 C 0.58664 0.36846 0.36183 0.0
H3197 H 0.643 0.4244 0.36887 0.0
H3198 H 0.64109 0.40138 0.36693 0.0
H3199 H 0.57519 0.38746 0.36464 0.0
H3200 H 0.57099 0.32213 0.38491 0.0
H3201 H 0.57212 0.3452 0.38456 0.0
H3202 H 0.63593 0.35907 0.37937 0.0
C3203 C 0.62804 0.40653 0.37621 0.0
C3204 C 0.58851 0.38136 0.36839 0.0
C3205 C 0.62921 0.41973 0.37741 0.0
C3206 C 0.58361 0.32681 0.37333 0.0
C3207 C 0.58428 0.34002 0.37317 0.0
C3208 C 0.62265 0.36522 0.37576 0.0
C3209 C 0.60966 0.40021 0.38452 0.0
C3210 C 0.60743 0.38635 0.37896 0.0
C3211 C 0.60134 0.3464 0.36073 0.0
C3212 C 0.6037 0.36025 0.36542 0.0
H3213 H 0.58065 0.42607 0.40388 0.0
H3214 H 0.57873 0.40285 0.40303 0.0
H3215 H 0.6392 0.38155 0.39099 0.0
H3216 H 0.62887 0.32073 0.33654 0.0
H3217 H 0.63014 0.344 0.33631 0.0
C3218 C 0.14764 0.32983 0.39989 0.0
C3219 C 0.13153 0.32382 0.38438 0.0
C3220 C 0.14946 0.34309 0.3991 0.0
C3221 C 0.13542 0.36956 0.3497 0.0
H3222 H 0.15272 0.39102 0.41449 0.0
C3223 C 0.13437 0.42464 0.34505 0.0
C3224 C 0.14956 0.43108 0.36148 0.0
C3225 C 0.13335 0.41136 0.34592 0.0
C3226 C 0.14818 0.38513 0.396 0.0
H3227 H 0.10396 0.32677 0.35774 0.0
H3228 H 0.10666 0.34978 0.35723 0.0
H3229 H 0.14759 0.3684 0.42286 0.0
H3230 H 0.17666 0.42878 0.38948 0.0
H3231 H 0.17542 0.40574 0.39006 0.0
H3232 H 0.13603 0.38625 0.3228 0.0
C3233 C 0.1182 0.34439 0.36933 0.0
C3234 C 0.14518 0.37217 0.4009 0.0
C3235 C 0.11647 0.33123 0.36999 0.0
C3236 C 0.16471 0.42403 0.37672 0.0
C3237 C 0.16382 0.41084 0.37738 0.0
C3238 C 0.13847 0.38251 0.34478 0.0
C3239 C 0.13519 0.35045 0.38277 0.0
C3240 C 0.13862 0.36424 0.37785 0.0
C3241 C 0.14761 0.40434 0.36309 0.0
C3242 C 0.14486 0.39047 0.36788 0.0
H3243 H 0.15964 0.32428 0.41064 0.0
H3244 H 0.16274 0.34749 0.40969 0.0
H3245 H 0.13077 0.36367 0.33127 0.0
H3246 H 0.12235 0.42986 0.33346 0.0
H3247 H 0.12064 0.40666 0.33466 0.0
C3248 C 0.88437 0.07868 0.59422 0.0
C3249 C 0.89724 0.07251 0.61477 0.0
C3250 C 0.88292 0.09195 0.59418 0.0
C3251 C 0.88941 0.11875 0.64557 0.0
H3252 H 0.8865 0.13967 0.5755 0.0
C3253 C 0.8928 0.17388 0.64805 0.0
C3254 C 0.88167 0.18035 0.6261 0.0
C3255 C 0.89337 0.16057 0.64806 0.0
C3256 C 0.88695 0.13395 0.59533 0.0
H3257 H 0.91994 0.07539 0.64961 0.0
H3258 H 0.91765 0.09837 0.64914 0.0
H3259 H 0.89112 0.11684 0.57052 0.0
H3260 H 0.86113 0.17818 0.58854 0.0
H3261 H 0.86133 0.15514 0.58931 0.0
H3262 H 0.88513 0.13583 0.67042 0.0
C3263 C 0.90825 0.09303 0.63366 0.0
C3264 C 0.88967 0.12086 0.59241 0.0
C3265 C 0.90969 0.07986 0.63372 0.0
C3266 C 0.86992 0.17338 0.60562 0.0
C3267 C 0.87027 0.16018 0.60584 0.0
C3268 C 0.88658 0.13184 0.64851 0.0
C3269 C 0.89432 0.09922 0.61467 0.0
C3270 C 0.89106 0.11312 0.61749 0.0
C3271 C 0.88266 0.15359 0.62625 0.0
C3272 C 0.88532 0.13961 0.62342 0.0
H3273 H 0.87449 0.07326 0.57953 0.0
H3274 H 0.87207 0.09647 0.57921 0.0
H3275 H 0.89006 0.11301 0.66536 0.0
H3276 H 0.90218 0.17907 0.66381 0.0
H3277 H 0.90311 0.15581 0.6641 0.0
C3278 C 0.34124 0.17137 0.62742 0.0
C3279 C 0.35694 0.17858 0.61389 0.0
C3280 C 0.34242 0.1582 0.6279 0.0
C3281 C 0.36906 0.13006 0.59755 0.0
H3282 H 0.35773 0.11626 0.67537 0.0
C3283 C 0.38534 0.07787 0.62316 0.0
C3284 C 0.36935 0.07125 0.63757 0.0
C3285 C 0.38528 0.09108 0.62236 0.0
C3286 C 0.36079 0.11994 0.65348 0.0
H3287 H 0.38551 0.17775 0.58863 0.0
H3288 H 0.38766 0.1545 0.58936 0.0
H3289 H 0.35366 0.13891 0.66656 0.0
H3290 H 0.34117 0.07306 0.66334 0.0
H3291 H 0.34094 0.0963 0.6621 0.0
H3292 H 0.37606 0.11106 0.58443 0.0
C3293 C 0.37434 0.15908 0.59945 0.0
C3294 C 0.35841 0.13291 0.64836 0.0
C3295 C 0.37307 0.17236 0.59881 0.0
C3296 C 0.3539 0.07802 0.65269 0.0
C3297 C 0.35375 0.0913 0.65177 0.0
C3298 C 0.37142 0.11706 0.60266 0.0
C3299 C 0.35947 0.15192 0.61514 0.0
C3300 C 0.36234 0.13811 0.62028 0.0
C3301 C 0.36903 0.09795 0.63562 0.0
C3302 C 0.36725 0.11184 0.63067 0.0
H3303 H 0.32864 0.17598 0.63921 0.0
H3304 H 0.33041 0.15295 0.63943 0.0
H3305 H 0.37206 0.13375 0.57567 0.0
H3306 H 0.39727 0.07278 0.61105 0.0
H3307 H 0.39752 0.09589 0.61031 0.0
C3308 C 0.11362 0.82802 0.34318 0.0
C3309 C 0.12795 0.82111 0.36007 0.0
C3310 C 0.11386 0.84131 0.34387 0.0
C3311 C 0.12972 0.86683 0.395 0.0
H3312 H 0.11272 0.88886 0.33103 0.0
C3313 C 0.12692 0.92226 0.40102 0.0
C3314 C 0.11025 0.92795 0.38598 0.0
C3315 C 0.12967 0.90906 0.39972 0.0
C3316 C 0.11733 0.8828 0.3492 0.0
H3317 H 0.1546 0.82242 0.38911 0.0
H3318 H 0.15571 0.84552 0.38927 0.0
H3319 H 0.11824 0.86637 0.32152 0.0
H3320 H 0.08248 0.92442 0.36013 0.0
H3321 H 0.08689 0.90154 0.3586 0.0
H3322 H 0.12874 0.88333 0.42264 0.0
C3323 C 0.14391 0.84082 0.37616 0.0
C3324 C 0.12052 0.86992 0.34371 0.0
C3325 C 0.14352 0.8276 0.37568 0.0
C3326 C 0.0955 0.92024 0.37184 0.0
C3327 C 0.09818 0.90715 0.37063 0.0
C3328 C 0.12661 0.87975 0.40045 0.0
C3329 C 0.12849 0.84784 0.36143 0.0
C3330 C 0.12654 0.86173 0.36659 0.0
C3331 C 0.11577 0.90146 0.38338 0.0
C3332 C 0.12007 0.88784 0.37771 0.0
H3333 H 0.10119 0.8232 0.33155 0.0
H3334 H 0.10168 0.8464 0.33235 0.0
H3335 H 0.13399 0.86078 0.41332 0.0
H3336 H 0.13865 0.92804 0.41171 0.0
H3337 H 0.14334 0.90491 0.40987 0.0
C3338 C 0.6247 0.82928 0.35895 0.0
C3339 C 0.636 0.82226 0.37984 0.0
C3340 C 0.62568 0.84246 0.35862 0.0
C3341 C 0.64277 0.87078 0.40058 0.0
H3342 H 0.64731 0.88542 0.32222 0.0
C3343 C 0.66532 0.92275 0.38464 0.0
C3344 C 0.65244 0.92996 0.36595 0.0
C3345 C 0.66428 0.90957 0.38464 0.0
C3346 C 0.6459 0.88149 0.34421 0.0
H3347 H 0.65645 0.82344 0.41764 0.0
H3348 H 0.65854 0.84668 0.41692 0.0
H3349 H 0.64257 0.86262 0.32776 0.0
H3350 H 0.62943 0.92895 0.33109 0.0
H3351 H 0.62773 0.90572 0.33084 0.0
H3352 H 0.64638 0.88967 0.41695 0.0
C3353 C 0.64865 0.84197 0.401 0.0
C3354 C 0.6431 0.86842 0.34746 0.0
C3355 C 0.64742 0.82868 0.40155 0.0
C3356 C 0.63963 0.92365 0.34558 0.0
C3357 C 0.63859 0.91036 0.34558 0.0
C3358 C 0.6457 0.88384 0.39732 0.0
C3359 C 0.6383 0.84897 0.37887 0.0
C3360 C 0.64139 0.8629 0.37569 0.0
C3361 C 0.65035 0.90323 0.36593 0.0
C3362 C 0.64731 0.88934 0.3691 0.0
H3363 H 0.61567 0.82452 0.34206 0.0
H3364 H 0.61699 0.84753 0.34187 0.0
H3365 H 0.64126 0.8669 0.4226 0.0
H3366 H 0.67553 0.92734 0.4004 0.0
H3367 H 0.67393 0.90434 0.40001 0.0
C3368 C 0.91565 0.6733 0.12107 0.0
C3369 C 0.90144 0.68059 0.13754 0.0
C3370 C 0.91499 0.66012 0.1219 0.0
C3371 C 0.89657 0.6322 0.16166 0.0
H3372 H 0.89359 0.61719 0.08355 0.0
C3373 C 0.87918 0.57933 0.14754 0.0
C3374 C 0.89007 0.57256 0.12577 0.0
C3375 C 0.87974 0.59252 0.14829 0.0
C3376 C 0.89469 0.62117 0.10551 0.0
H3377 H 0.87645 0.67977 0.16961 0.0
H3378 H 0.87556 0.65647 0.17156 0.0
H3379 H 0.89732 0.64008 0.08876 0.0
H3380 H 0.90952 0.57422 0.087 0.0
H3381 H 0.91111 0.59746 0.08863 0.0
H3382 H 0.89453 0.61335 0.17855 0.0
C3383 C 0.88708 0.66109 0.15778 0.0
C3384 C 0.89675 0.6343 0.1085 0.0
C3385 C 0.88767 0.6744 0.15684 0.0
C3386 C 0.90089 0.57926 0.10387 0.0
C3387 C 0.90177 0.59255 0.1049 0.0
C3388 C 0.89477 0.61905 0.15869 0.0
C3389 C 0.90019 0.65387 0.13936 0.0
C3390 C 0.89773 0.63994 0.13659 0.0
C3391 C 0.89158 0.59933 0.1276 0.0
C3392 C 0.89372 0.61335 0.13056 0.0
H3393 H 0.92663 0.6778 0.10621 0.0
H3394 H 0.92561 0.6548 0.10802 0.0
H3395 H 0.89749 0.63629 0.18355 0.0
H3396 H 0.8705 0.57438 0.16451 0.0
H3397 H 0.87112 0.59735 0.16547 0.0
C3398 C 0.35218 0.5791 0.11247 0.0
C3399 C 0.36551 0.5714 0.12935 0.0
C3400 C 0.35479 0.59218 0.11178 0.0
C3401 C 0.37819 0.61958 0.14864 0.0
H3402 H 0.37634 0.63414 0.06998 0.0
C3403 C 0.39297 0.67251 0.13159 0.0
C3404 C 0.37887 0.67891 0.11321 0.0
C3405 C 0.39413 0.65933 0.13135 0.0
C3406 C 0.37676 0.63026 0.09209 0.0
H3407 H 0.39123 0.57144 0.16025 0.0
H3408 H 0.39574 0.5946 0.15931 0.0
H3409 H 0.37209 0.61134 0.07645 0.0
H3410 H 0.35561 0.67672 0.07911 0.0
H3411 H 0.35732 0.6535 0.07879 0.0
H3412 H 0.38233 0.63849 0.16443 0.0
C3413 C 0.38331 0.59038 0.1465 0.0
C3414 C 0.37434 0.61719 0.09582 0.0
C3415 C 0.38067 0.57716 0.14721 0.0
C3416 C 0.36684 0.67197 0.09312 0.0
C3417 C 0.3678 0.65868 0.09311 0.0
C3418 C 0.38051 0.63267 0.14494 0.0
C3419 C 0.37083 0.59795 0.12792 0.0
C3420 C 0.37475 0.61173 0.12416 0.0
C3421 C 0.38091 0.6522 0.11307 0.0
C3422 C 0.37965 0.63819 0.11662 0.0
H3423 H 0.34016 0.57493 0.09879 0.0
H3424 H 0.34454 0.59777 0.09795 0.0
H3425 H 0.37841 0.61567 0.17073 0.0
H3426 H 0.40239 0.67772 0.14732 0.0
H3427 H 0.4048 0.6547 0.1464 0.0
C3428 C 0.10862 0.42448 0.89758 0.0
C3429 C 0.118 0.43099 0.87412 0.0
C3430 C 0.10734 0.4112 0.89696 0.0
C3431 C 0.10937 0.38459 0.84293 0.0
H3432 H 0.11146 0.3637 0.91314 0.0
C3433 C 0.11369 0.3292 0.84409 0.0
C3434 C 0.10125 0.32327 0.86554 0.0
C3435 C 0.11497 0.34247 0.84305 0.0
C3436 C 0.11072 0.36945 0.89335 0.0
H3437 H 0.13476 0.42887 0.83288 0.0
H3438 H 0.13344 0.4059 0.83247 0.0
H3439 H 0.11655 0.38653 0.91739 0.0
H3440 H 0.07902 0.32654 0.90087 0.0
H3441 H 0.08122 0.34949 0.89889 0.0
H3442 H 0.10392 0.36738 0.81891 0.0
C3443 C 0.12622 0.41088 0.85069 0.0
C3444 C 0.11356 0.38253 0.8958 0.0
C3445 C 0.12717 0.42406 0.85108 0.0
C3446 C 0.08897 0.33082 0.88431 0.0
C3447 C 0.09032 0.34397 0.88336 0.0
C3448 C 0.10676 0.37147 0.84045 0.0
C3449 C 0.11569 0.40427 0.87306 0.0
C3450 C 0.11287 0.39029 0.87064 0.0
C3451 C 0.10388 0.34993 0.86351 0.0
C3452 C 0.10724 0.3638 0.86567 0.0
H3453 H 0.10132 0.42964 0.91547 0.0
H3454 H 0.09904 0.40643 0.91455 0.0
H3455 H 0.10829 0.39027 0.82309 0.0
H3456 H 0.12341 0.32362 0.82948 0.0
H3457 H 0.1255 0.34687 0.82742 0.0
C3458 C 0.65009 0.32972 0.90244 0.0
C3459 C 0.63561 0.32378 0.88387 0.0
C3460 C 0.65202 0.34298 0.90214 0.0
C3461 C 0.64209 0.36978 0.85143 0.0
H3462 H 0.65273 0.39082 0.91977 0.0
C3463 C 0.63939 0.42484 0.84929 0.0
C3464 C 0.65351 0.43125 0.86764 0.0
C3465 C 0.6384 0.41156 0.84978 0.0
C3466 C 0.65004 0.38505 0.90038 0.0
H3467 H 0.61085 0.32682 0.85221 0.0
H3468 H 0.61364 0.3498 0.85246 0.0
H3469 H 0.64775 0.36806 0.92614 0.0
H3470 H 0.67885 0.42884 0.89882 0.0
H3471 H 0.67745 0.40583 0.8991 0.0
H3472 H 0.64429 0.38675 0.82568 0.0
C3473 C 0.62397 0.34437 0.86653 0.0
C3474 C 0.64715 0.37201 0.90409 0.0
C3475 C 0.62219 0.33123 0.86666 0.0
C3476 C 0.66761 0.42416 0.88471 0.0
C3477 C 0.66669 0.41097 0.88509 0.0
C3478 C 0.64496 0.38281 0.84773 0.0
C3479 C 0.63944 0.35039 0.88333 0.0
C3480 C 0.64299 0.36423 0.87968 0.0
C3481 C 0.65159 0.40452 0.8685 0.0
C3482 C 0.64893 0.39061 0.87216 0.0
H3483 H 0.66077 0.32412 0.91559 0.0
H3484 H 0.66409 0.34735 0.91537 0.0
H3485 H 0.63935 0.36402 0.83204 0.0
H3486 H 0.62825 0.43008 0.83611 0.0
H3487 H 0.62658 0.40687 0.83672 0.0
loop_
_geom_bond_atom_site_label_1
_geom_bond_atom_site_label_2
_geom_bond_distance
_geom_bond_site_symmetry_2
_ccdc_geom_bond_type
Co0 O3 1.970 . S
Co0 N17 1.989 . S
Co0 O25 1.967 . S
Co0 O32 1.920 . S
Co1 O4 1.966 . S
Co1 N10 2.022 . S
Co1 N18 1.993 . S
Co1 O26 1.941 . S
C2 O3 1.258 . S
C2 O4 1.263 . S
O3 Co0 1.970 . S
O3 C2 1.258 . S
O4 Co1 1.966 . S
O4 C2 1.263 . S
C5 O6 1.235 . S
C5 O32 1.289 . S
O6 C5 1.235 . S
C7 C9 1.400 . S
C7 N10 1.351 . S
C7 C12 1.501 . S
C8 C9 1.387 . S
C8 N11 1.341 . S
C9 C7 1.400 . S
C9 C8 1.387 . S
N10 Co1 2.022 . S
N10 C7 1.351 . S
N10 N11 1.365 . S
N11 C8 1.341 . S
N11 N10 1.365 . S
N11 H31 0.862 . S
C12 C7 1.501 . S
C12 H13 0.961 . S
C12 H14 0.961 . S
C12 H15 0.960 . S
H13 C12 0.961 . S
H14 C12 0.961 . S
H15 C12 0.960 . S
C16 N17 1.342 . S
C16 C20 1.401 . S
C16 C21 1.499 . S
N17 Co0 1.989 . S
N17 C16 1.342 . S
N17 N18 1.388 . S
N18 Co1 1.993 . S
N18 N17 1.388 . S
N18 C19 1.346 . S
C19 N18 1.346 . S
C19 C20 1.396 . S
C19 C29 1.510 . S
C20 C16 1.401 . S
C20 C19 1.396 . S
C21 C16 1.499 . S
C21 H22 0.959 . S
C21 H23 0.960 . S
C21 H24 0.961 . S
H22 C21 0.959 . S
H23 C21 0.960 . S
H24 C21 0.961 . S
O25 Co0 1.967 . S
O25 C33 1.258 . S
O26 Co1 1.941 . S
O26 C33 1.266 . S
H27 C29 0.959 . S
H28 C29 0.961 . S
C29 C19 1.510 . S
C29 H27 0.959 . S
C29 H28 0.961 . S
C29 H30 0.960 . S
H30 C29 0.960 . S
H31 N11 0.862 . S
O32 Co0 1.920 . S
O32 C5 1.289 . S
C33 O25 1.258 . S
C33 O26 1.266 . S
Co34 O37 1.970 . S
Co34 N51 1.989 . S
Co34 O59 1.967 . S
Co34 O66 1.920 . S
Co35 O38 1.966 . S
Co35 N44 2.022 . S
Co35 N52 1.993 . S
Co35 O60 1.941 . S
C36 O37 1.258 . S
C36 O38 1.263 . S
O37 Co34 1.970 . S
O37 C36 1.258 . S
O38 Co35 1.966 . S
O38 C36 1.263 . S
C39 O40 1.235 . S
C39 O66 1.289 . S
O40 C39 1.235 . S
C41 C43 1.400 . S
C41 N44 1.351 . S
C41 C46 1.501 . S
C42 C43 1.387 . S
C42 N45 1.341 . S
C43 C41 1.400 . S
C43 C42 1.387 . S
N44 Co35 2.022 . S
N44 C41 1.351 . S
N44 N45 1.365 . S
N45 C42 1.341 . S
N45 N44 1.365 . S
N45 H65 0.862 . S
C46 C41 1.501 . S
C46 H47 0.961 . S
C46 H48 0.961 . S
C46 H49 0.960 . S
H47 C46 0.961 . S
H48 C46 0.961 . S
H49 C46 0.960 . S
C50 N51 1.342 . S
C50 C54 1.401 . S
C50 C55 1.499 . S
N51 Co34 1.989 . S
N51 C50 1.342 . S
N51 N52 1.388 . S
N52 Co35 1.993 . S
N52 N51 1.388 . S
N52 C53 1.346 . S
C53 N52 1.346 . S
C53 C54 1.396 . S
C53 C63 1.510 . S
C54 C50 1.401 . S
C54 C53 1.396 . S
C55 C50 1.499 . S
C55 H56 0.959 . S
C55 H57 0.960 . S
C55 H58 0.961 . S
H56 C55 0.959 . S
H57 C55 0.960 . S
H58 C55 0.961 . S
O59 Co34 1.967 . S
O59 C67 1.258 . S
O60 Co35 1.941 . S
O60 C67 1.266 . S
H61 C63 0.959 . S
H62 C63 0.961 . S
C63 C53 1.510 . S
C63 H61 0.959 . S
C63 H62 0.961 . S
C63 H64 0.960 . S
H64 C63 0.960 . S
H65 N45 0.862 . S
O66 Co34 1.920 . S
O66 C39 1.289 . S
C67 O59 1.258 . S
C67 O60 1.266 . S
Co68 O71 1.970 . S
Co68 N85 1.989 . S
Co68 O93 1.967 . S
Co68 O100 1.920 . S
Co69 O72 1.966 . S
Co69 N78 2.022 . S
Co69 N86 1.993 . S
Co69 O94 1.941 . S
C70 O71 1.258 . S
C70 O72 1.263 . S
O71 Co68 1.970 . S
O71 C70 1.258 . S
O72 Co69 1.966 . S
O72 C70 1.263 . S
C73 O74 1.235 . S
C73 O100 1.289 . S
O74 C73 1.235 . S
C75 C77 1.400 . S
C75 N78 1.351 . S
C75 C80 1.501 . S
C76 C77 1.387 . S
C76 N79 1.341 . S
C77 C75 1.400 . S
C77 C76 1.387 . S
N78 Co69 2.022 . S
N78 C75 1.351 . S
N78 N79 1.365 . S
N79 C76 1.341 . S
N79 N78 1.365 . S
N79 H99 0.862 . S
C80 C75 1.501 . S
C80 H81 0.961 . S
C80 H82 0.961 . S
C80 H83 0.960 . S
H81 C80 0.961 . S
H82 C80 0.961 . S
H83 C80 0.960 . S
C84 N85 1.342 . S
C84 C88 1.401 . S
C84 C89 1.499 . S
N85 Co68 1.989 . S
N85 C84 1.342 . S
N85 N86 1.388 . S
N86 Co69 1.993 . S
N86 N85 1.388 . S
N86 C87 1.346 . S
C87 N86 1.346 . S
C87 C88 1.396 . S
C87 C97 1.510 . S
C88 C84 1.401 . S
C88 C87 1.396 . S
C89 C84 1.499 . S
C89 H90 0.959 . S
C89 H91 0.960 . S
C89 H92 0.961 . S
H90 C89 0.959 . S
H91 C89 0.960 . S
H92 C89 0.961 . S
O93 Co68 1.967 . S
O93 C101 1.258 . S
O94 Co69 1.941 . S
O94 C101 1.266 . S
H95 C97 0.959 . S
H96 C97 0.961 . S
C97 C87 1.510 . S
C97 H95 0.959 . S
C97 H96 0.961 . S
C97 H98 0.960 . S
H98 C97 0.960 . S
H99 N79 0.862 . S
O100 Co68 1.920 . S
O100 C73 1.289 . S
C101 O93 1.258 . S
C101 O94 1.266 . S
Co102 O105 1.970 . S
Co102 N119 1.989 . S
Co102 O127 1.967 . S
Co102 O134 1.920 . S
Co103 O106 1.966 . S
Co103 N112 2.022 . S
Co103 N120 1.993 . S
Co103 O128 1.941 . S
C104 O105 1.258 . S
C104 O106 1.263 . S
O105 Co102 1.970 . S
O105 C104 1.258 . S
O106 Co103 1.966 . S
O106 C104 1.263 . S
C107 O108 1.235 . S
C107 O134 1.289 . S
O108 C107 1.235 . S
C109 C111 1.400 . S
C109 N112 1.351 . S
C109 C114 1.501 . S
C110 C111 1.387 . S
C110 N113 1.341 . S
C111 C109 1.400 . S
C111 C110 1.387 . S
N112 Co103 2.022 . S
N112 C109 1.351 . S
N112 N113 1.365 . S
N113 C110 1.341 . S
N113 N112 1.365 . S
N113 H133 0.862 . S
C114 C109 1.501 . S
C114 H115 0.961 . S
C114 H116 0.961 . S
C114 H117 0.960 . S
H115 C114 0.961 . S
H116 C114 0.961 . S
H117 C114 0.960 . S
C118 N119 1.342 . S
C118 C122 1.401 . S
C118 C123 1.499 . S
N119 Co102 1.989 . S
N119 C118 1.342 . S
N119 N120 1.388 . S
N120 Co103 1.993 . S
N120 N119 1.388 . S
N120 C121 1.346 . S
C121 N120 1.346 . S
C121 C122 1.396 . S
C121 C131 1.510 . S
C122 C118 1.401 . S
C122 C121 1.396 . S
C123 C118 1.499 . S
C123 H124 0.959 . S
C123 H125 0.960 . S
C123 H126 0.961 . S
H124 C123 0.959 . S
H125 C123 0.960 . S
H126 C123 0.961 . S
O127 Co102 1.967 . S
O127 C135 1.258 . S
O128 Co103 1.941 . S
O128 C135 1.266 . S
H129 C131 0.959 . S
H130 C131 0.961 . S
C131 C121 1.510 . S
C131 H129 0.959 . S
C131 H130 0.961 . S
C131 H132 0.960 . S
H132 C131 0.960 . S
H133 N113 0.862 . S
O134 Co102 1.920 . S
O134 C107 1.289 . S
C135 O127 1.258 . S
C135 O128 1.266 . S
Co136 O139 1.970 . S
Co136 N153 1.989 . S
Co136 O161 1.967 . S
Co136 O168 1.920 . S
Co137 O140 1.966 . S
Co137 N146 2.022 . S
Co137 N154 1.993 . S
Co137 O162 1.941 . S
C138 O139 1.258 . S
C138 O140 1.263 . S
O139 Co136 1.970 . S
O139 C138 1.258 . S
O140 Co137 1.966 . S
O140 C138 1.263 . S
C141 O142 1.235 . S
C141 O168 1.289 . S
O142 C141 1.235 . S
C143 C145 1.400 . S
C143 N146 1.351 . S
C143 C148 1.501 . S
C144 C145 1.387 . S
C144 N147 1.341 . S
C145 C143 1.400 . S
C145 C144 1.387 . S
N146 Co137 2.022 . S
N146 C143 1.351 . S
N146 N147 1.365 . S
N147 C144 1.341 . S
N147 N146 1.365 . S
N147 H167 0.862 . S
C148 C143 1.501 . S
C148 H149 0.961 . S
C148 H150 0.961 . S
C148 H151 0.960 . S
H149 C148 0.961 . S
H150 C148 0.961 . S
H151 C148 0.960 . S
C152 N153 1.342 . S
C152 C156 1.401 . S
C152 C157 1.499 . S
N153 Co136 1.989 . S
N153 C152 1.342 . S
N153 N154 1.388 . S
N154 Co137 1.993 . S
N154 N153 1.388 . S
N154 C155 1.346 . S
C155 N154 1.346 . S
C155 C156 1.396 . S
C155 C165 1.510 . S
C156 C152 1.401 . S
C156 C155 1.396 . S
C157 C152 1.499 . S
C157 H158 0.959 . S
C157 H159 0.960 . S
C157 H160 0.961 . S
H158 C157 0.959 . S
H159 C157 0.960 . S
H160 C157 0.961 . S
O161 Co136 1.967 . S
O161 C169 1.258 . S
O162 Co137 1.941 . S
O162 C169 1.266 . S
H163 C165 0.959 . S
H164 C165 0.961 . S
C165 C155 1.510 . S
C165 H163 0.959 . S
C165 H164 0.961 . S
C165 H166 0.960 . S
H166 C165 0.960 . S
H167 N147 0.862 . S
O168 Co136 1.920 . S
O168 C141 1.289 . S
C169 O161 1.258 . S
C169 O162 1.266 . S
Co170 O173 1.970 . S
Co170 N187 1.989 . S
Co170 O195 1.967 . S
Co170 O202 1.920 . S
Co171 O174 1.966 . S
Co171 N180 2.022 . S
Co171 N188 1.993 . S
Co171 O196 1.941 . S
C172 O173 1.258 . S
C172 O174 1.263 . S
O173 Co170 1.970 . S
O173 C172 1.258 . S
O174 Co171 1.966 . S
O174 C172 1.263 . S
C175 O176 1.235 . S
C175 O202 1.289 . S
O176 C175 1.235 . S
C177 C179 1.400 . S
C177 N180 1.351 . S
C177 C182 1.501 . S
C178 C179 1.387 . S
C178 N181 1.341 . S
C179 C177 1.400 . S
C179 C178 1.387 . S
N180 Co171 2.022 . S
N180 C177 1.351 . S
N180 N181 1.365 . S
N181 C178 1.341 . S
N181 N180 1.365 . S
N181 H201 0.862 . S
C182 C177 1.501 . S
C182 H183 0.961 . S
C182 H184 0.961 . S
C182 H185 0.960 . S
H183 C182 0.961 . S
H184 C182 0.961 . S
H185 C182 0.960 . S
C186 N187 1.342 . S
C186 C190 1.401 . S
C186 C191 1.499 . S
N187 Co170 1.989 . S
N187 C186 1.342 . S
N187 N188 1.388 . S
N188 Co171 1.993 . S
N188 N187 1.388 . S
N188 C189 1.346 . S
C189 N188 1.346 . S
C189 C190 1.396 . S
C189 C199 1.510 . S
C190 C186 1.401 . S
C190 C189 1.396 . S
C191 C186 1.499 . S
C191 H192 0.959 . S
C191 H193 0.960 . S
C191 H194 0.961 . S
H192 C191 0.959 . S
H193 C191 0.960 . S
H194 C191 0.961 . S
O195 Co170 1.967 . S
O195 C203 1.258 . S
O196 Co171 1.941 . S
O196 C203 1.266 . S
H197 C199 0.959 . S
H198 C199 0.961 . S
C199 C189 1.510 . S
C199 H197 0.959 . S
C199 H198 0.961 . S
C199 H200 0.960 . S
H200 C199 0.960 . S
H201 N181 0.862 . S
O202 Co170 1.920 . S
O202 C175 1.289 . S
C203 O195 1.258 . S
C203 O196 1.266 . S
Co204 O207 1.970 . S
Co204 N221 1.989 . S
Co204 O229 1.967 . S
Co204 O236 1.920 . S
Co205 O208 1.966 . S
Co205 N214 2.022 . S
Co205 N222 1.993 . S
Co205 O230 1.941 . S
C206 O207 1.258 . S
C206 O208 1.263 . S
O207 Co204 1.970 . S
O207 C206 1.258 . S
O208 Co205 1.966 . S
O208 C206 1.263 . S
C209 O210 1.235 . S
C209 O236 1.289 . S
O210 C209 1.235 . S
C211 C213 1.400 . S
C211 N214 1.351 . S
C211 C216 1.501 . S
C212 C213 1.387 . S
C212 N215 1.341 . S
C213 C211 1.400 . S
C213 C212 1.387 . S
N214 Co205 2.022 . S
N214 C211 1.351 . S
N214 N215 1.365 . S
N215 C212 1.341 . S
N215 N214 1.365 . S
N215 H235 0.862 . S
C216 C211 1.501 . S
C216 H217 0.961 . S
C216 H218 0.961 . S
C216 H219 0.960 . S
H217 C216 0.961 . S
H218 C216 0.961 . S
H219 C216 0.960 . S
C220 N221 1.342 . S
C220 C224 1.401 . S
C220 C225 1.499 . S
N221 Co204 1.989 . S
N221 C220 1.342 . S
N221 N222 1.388 . S
N222 Co205 1.993 . S
N222 N221 1.388 . S
N222 C223 1.346 . S
C223 N222 1.346 . S
C223 C224 1.396 . S
C223 C233 1.510 . S
C224 C220 1.401 . S
C224 C223 1.396 . S
C225 C220 1.499 . S
C225 H226 0.959 . S
C225 H227 0.960 . S
C225 H228 0.961 . S
H226 C225 0.959 . S
H227 C225 0.960 . S
H228 C225 0.961 . S
O229 Co204 1.967 . S
O229 C237 1.258 . S
O230 Co205 1.941 . S
O230 C237 1.266 . S
H231 C233 0.959 . S
H232 C233 0.961 . S
C233 C223 1.510 . S
C233 H231 0.959 . S
C233 H232 0.961 . S
C233 H234 0.960 . S
H234 C233 0.960 . S
H235 N215 0.862 . S
O236 Co204 1.920 . S
O236 C209 1.289 . S
C237 O229 1.258 . S
C237 O230 1.266 . S
Co238 O241 1.970 . S
Co238 N255 1.989 . S
Co238 O263 1.967 . S
Co238 O270 1.920 . S
Co239 O242 1.966 . S
Co239 N248 2.022 . S
Co239 N256 1.993 . S
Co239 O264 1.941 . S
C240 O241 1.258 . S
C240 O242 1.263 . S
O241 Co238 1.970 . S
O241 C240 1.258 . S
O242 Co239 1.966 . S
O242 C240 1.263 . S
C243 O244 1.235 . S
C243 O270 1.289 . S
O244 C243 1.235 . S
C245 C247 1.400 . S
C245 N248 1.351 . S
C245 C250 1.501 . S
C246 C247 1.387 . S
C246 N249 1.341 . S
C247 C245 1.400 . S
C247 C246 1.387 . S
N248 Co239 2.022 . S
N248 C245 1.351 . S
N248 N249 1.365 . S
N249 C246 1.341 . S
N249 N248 1.365 . S
N249 H269 0.862 . S
C250 C245 1.501 . S
C250 H251 0.961 . S
C250 H252 0.961 . S
C250 H253 0.960 . S
H251 C250 0.961 . S
H252 C250 0.961 . S
H253 C250 0.960 . S
C254 N255 1.342 . S
C254 C258 1.401 . S
C254 C259 1.499 . S
N255 Co238 1.989 . S
N255 C254 1.342 . S
N255 N256 1.388 . S
N256 Co239 1.993 . S
N256 N255 1.388 . S
N256 C257 1.346 . S
C257 N256 1.346 . S
C257 C258 1.396 . S
C257 C267 1.510 . S
C258 C254 1.401 . S
C258 C257 1.396 . S
C259 C254 1.499 . S
C259 H260 0.959 . S
C259 H261 0.960 . S
C259 H262 0.961 . S
H260 C259 0.959 . S
H261 C259 0.960 . S
H262 C259 0.961 . S
O263 Co238 1.967 . S
O263 C271 1.258 . S
O264 Co239 1.941 . S
O264 C271 1.266 . S
H265 C267 0.959 . S
H266 C267 0.961 . S
C267 C257 1.510 . S
C267 H265 0.959 . S
C267 H266 0.961 . S
C267 H268 0.960 . S
H268 C267 0.960 . S
H269 N249 0.862 . S
O270 Co238 1.920 . S
O270 C243 1.289 . S
C271 O263 1.258 . S
C271 O264 1.266 . S
Co272 O275 1.970 . S
Co272 N289 1.989 . S
Co272 O297 1.967 . S
Co272 O304 1.920 . S
Co273 O276 1.966 . S
Co273 N282 2.022 . S
Co273 N290 1.993 . S
Co273 O298 1.941 . S
C274 O275 1.258 . S
C274 O276 1.263 . S
O275 Co272 1.970 . S
O275 C274 1.258 . S
O276 Co273 1.966 . S
O276 C274 1.263 . S
C277 O278 1.235 . S
C277 O304 1.289 . S
O278 C277 1.235 . S
C279 C281 1.400 . S
C279 N282 1.351 . S
C279 C284 1.501 . S
C280 C281 1.387 . S
C280 N283 1.341 . S
C281 C279 1.400 . S
C281 C280 1.387 . S
N282 Co273 2.022 . S
N282 C279 1.351 . S
N282 N283 1.365 . S
N283 C280 1.341 . S
N283 N282 1.365 . S
N283 H303 0.862 . S
C284 C279 1.501 . S
C284 H285 0.961 . S
C284 H286 0.961 . S
C284 H287 0.960 . S
H285 C284 0.961 . S
H286 C284 0.961 . S
H287 C284 0.960 . S
C288 N289 1.342 . S
C288 C292 1.401 . S
C288 C293 1.499 . S
N289 Co272 1.989 . S
N289 C288 1.342 . S
N289 N290 1.388 . S
N290 Co273 1.993 . S
N290 N289 1.388 . S
N290 C291 1.346 . S
C291 N290 1.346 . S
C291 C292 1.396 . S
C291 C301 1.510 . S
C292 C288 1.401 . S
C292 C291 1.396 . S
C293 C288 1.499 . S
C293 H294 0.959 . S
C293 H295 0.960 . S
C293 H296 0.961 . S
H294 C293 0.959 . S
H295 C293 0.960 . S
H296 C293 0.961 . S
O297 Co272 1.967 . S
O297 C305 1.258 . S
O298 Co273 1.941 . S
O298 C305 1.266 . S
H299 C301 0.959 . S
H300 C301 0.961 . S
C301 C291 1.510 . S
C301 H299 0.959 . S
C301 H300 0.961 . S
C301 H302 0.960 . S
H302 C301 0.960 . S
H303 N283 0.862 . S
O304 Co272 1.920 . S
O304 C277 1.289 . S
C305 O297 1.258 . S
C305 O298 1.266 . S
Co306 O309 1.970 . S
Co306 N323 1.989 . S
Co306 O331 1.967 . S
Co306 O338 1.920 . S
Co307 O310 1.966 . S
Co307 N316 2.022 . S
Co307 N324 1.993 . S
Co307 O332 1.941 . S
C308 O309 1.258 . S
C308 O310 1.263 . S
O309 Co306 1.970 . S
O309 C308 1.258 . S
O310 Co307 1.966 . S
O310 C308 1.263 . S
C311 O312 1.235 . S
C311 O338 1.289 . S
O312 C311 1.235 . S
C313 C315 1.400 . S
C313 N316 1.351 . S
C313 C318 1.501 . S
C314 C315 1.387 . S
C314 N317 1.341 . S
C315 C313 1.400 . S
C315 C314 1.387 . S
N316 Co307 2.022 . S
N316 C313 1.351 . S
N316 N317 1.365 . S
N317 C314 1.341 . S
N317 N316 1.365 . S
N317 H337 0.862 . S
C318 C313 1.501 . S
C318 H319 0.961 . S
C318 H320 0.961 . S
C318 H321 0.960 . S
H319 C318 0.961 . S
H320 C318 0.961 . S
H321 C318 0.960 . S
C322 N323 1.342 . S
C322 C326 1.401 . S
C322 C327 1.499 . S
N323 Co306 1.989 . S
N323 C322 1.342 . S
N323 N324 1.388 . S
N324 Co307 1.993 . S
N324 N323 1.388 . S
N324 C325 1.346 . S
C325 N324 1.346 . S
C325 C326 1.396 . S
C325 C335 1.510 . S
C326 C322 1.401 . S
C326 C325 1.396 . S
C327 C322 1.499 . S
C327 H328 0.959 . S
C327 H329 0.960 . S
C327 H330 0.961 . S
H328 C327 0.959 . S
H329 C327 0.960 . S
H330 C327 0.961 . S
O331 Co306 1.967 . S
O331 C339 1.258 . S
O332 Co307 1.941 . S
O332 C339 1.266 . S
H333 C335 0.959 . S
H334 C335 0.961 . S
C335 C325 1.510 . S
C335 H333 0.959 . S
C335 H334 0.961 . S
C335 H336 0.960 . S
H336 C335 0.960 . S
H337 N317 0.862 . S
O338 Co306 1.920 . S
O338 C311 1.289 . S
C339 O331 1.258 . S
C339 O332 1.266 . S
Co340 O343 1.970 . S
Co340 N357 1.989 . S
Co340 O365 1.967 . S
Co340 O372 1.920 . S
Co341 O344 1.966 . S
Co341 N350 2.022 . S
Co341 N358 1.993 . S
Co341 O366 1.941 . S
C342 O343 1.258 . S
C342 O344 1.263 . S
O343 Co340 1.970 . S
O343 C342 1.258 . S
O344 Co341 1.966 . S
O344 C342 1.263 . S
C345 O346 1.235 . S
C345 O372 1.289 . S
O346 C345 1.235 . S
C347 C349 1.400 . S
C347 N350 1.351 . S
C347 C352 1.501 . S
C348 C349 1.387 . S
C348 N351 1.341 . S
C349 C347 1.400 . S
C349 C348 1.387 . S
N350 Co341 2.022 . S
N350 C347 1.351 . S
N350 N351 1.365 . S
N351 C348 1.341 . S
N351 N350 1.365 . S
N351 H371 0.862 . S
C352 C347 1.501 . S
C352 H353 0.961 . S
C352 H354 0.961 . S
C352 H355 0.960 . S
H353 C352 0.961 . S
H354 C352 0.961 . S
H355 C352 0.960 . S
C356 N357 1.342 . S
C356 C360 1.401 . S
C356 C361 1.499 . S
N357 Co340 1.989 . S
N357 C356 1.342 . S
N357 N358 1.388 . S
N358 Co341 1.993 . S
N358 N357 1.388 . S
N358 C359 1.346 . S
C359 N358 1.346 . S
C359 C360 1.396 . S
C359 C369 1.510 . S
C360 C356 1.401 . S
C360 C359 1.396 . S
C361 C356 1.499 . S
C361 H362 0.959 . S
C361 H363 0.960 . S
C361 H364 0.961 . S
H362 C361 0.959 . S
H363 C361 0.960 . S
H364 C361 0.961 . S
O365 Co340 1.967 . S
O365 C373 1.258 . S
O366 Co341 1.941 . S
O366 C373 1.266 . S
H367 C369 0.959 . S
H368 C369 0.961 . S
C369 C359 1.510 . S
C369 H367 0.959 . S
C369 H368 0.961 . S
C369 H370 0.960 . S
H370 C369 0.960 . S
H371 N351 0.862 . S
O372 Co340 1.920 . S
O372 C345 1.289 . S
C373 O365 1.258 . S
C373 O366 1.266 . S
Co374 O377 1.970 . S
Co374 N391 1.989 . S
Co374 O399 1.967 . S
Co374 O406 1.920 . S
Co375 O378 1.966 . S
Co375 N384 2.022 . S
Co375 N392 1.993 . S
Co375 O400 1.941 . S
C376 O377 1.258 . S
C376 O378 1.263 . S
O377 Co374 1.970 . S
O377 C376 1.258 . S
O378 Co375 1.966 . S
O378 C376 1.263 . S
C379 O380 1.235 . S
C379 O406 1.289 . S
O380 C379 1.235 . S
C381 C383 1.400 . S
C381 N384 1.351 . S
C381 C386 1.501 . S
C382 C383 1.387 . S
C382 N385 1.341 . S
C383 C381 1.400 . S
C383 C382 1.387 . S
N384 Co375 2.022 . S
N384 C381 1.351 . S
N384 N385 1.365 . S
N385 C382 1.341 . S
N385 N384 1.365 . S
N385 H405 0.862 . S
C386 C381 1.501 . S
C386 H387 0.961 . S
C386 H388 0.961 . S
C386 H389 0.960 . S
H387 C386 0.961 . S
H388 C386 0.961 . S
H389 C386 0.960 . S
C390 N391 1.342 . S
C390 C394 1.401 . S
C390 C395 1.499 . S
N391 Co374 1.989 . S
N391 C390 1.342 . S
N391 N392 1.388 . S
N392 Co375 1.993 . S
N392 N391 1.388 . S
N392 C393 1.346 . S
C393 N392 1.346 . S
C393 C394 1.396 . S
C393 C403 1.510 . S
C394 C390 1.401 . S
C394 C393 1.396 . S
C395 C390 1.499 . S
C395 H396 0.959 . S
C395 H397 0.960 . S
C395 H398 0.961 . S
H396 C395 0.959 . S
H397 C395 0.960 . S
H398 C395 0.961 . S
O399 Co374 1.967 . S
O399 C407 1.258 . S
O400 Co375 1.941 . S
O400 C407 1.266 . S
H401 C403 0.959 . S
H402 C403 0.961 . S
C403 C393 1.510 . S
C403 H401 0.959 . S
C403 H402 0.961 . S
C403 H404 0.960 . S
H404 C403 0.960 . S
H405 N385 0.862 . S
O406 Co374 1.920 . S
O406 C379 1.289 . S
C407 O399 1.258 . S
C407 O400 1.266 . S
Co408 O411 1.970 . S
Co408 N425 1.989 . S
Co408 O433 1.967 . S
Co408 O440 1.920 . S
Co409 O412 1.966 . S
Co409 N418 2.022 . S
Co409 N426 1.993 . S
Co409 O434 1.941 . S
C410 O411 1.258 . S
C410 O412 1.263 . S
O411 Co408 1.970 . S
O411 C410 1.258 . S
O412 Co409 1.966 . S
O412 C410 1.263 . S
C413 O414 1.235 . S
C413 O440 1.289 . S
O414 C413 1.235 . S
C415 C417 1.400 . S
C415 N418 1.351 . S
C415 C420 1.501 . S
C416 C417 1.387 . S
C416 N419 1.341 . S
C417 C415 1.400 . S
C417 C416 1.387 . S
N418 Co409 2.022 . S
N418 C415 1.351 . S
N418 N419 1.365 . S
N419 C416 1.341 . S
N419 N418 1.365 . S
N419 H439 0.862 . S
C420 C415 1.501 . S
C420 H421 0.961 . S
C420 H422 0.961 . S
C420 H423 0.960 . S
H421 C420 0.961 . S
H422 C420 0.961 . S
H423 C420 0.960 . S
C424 N425 1.342 . S
C424 C428 1.401 . S
C424 C429 1.499 . S
N425 Co408 1.989 . S
N425 C424 1.342 . S
N425 N426 1.388 . S
N426 Co409 1.993 . S
N426 N425 1.388 . S
N426 C427 1.346 . S
C427 N426 1.346 . S
C427 C428 1.396 . S
C427 C437 1.510 . S
C428 C424 1.401 . S
C428 C427 1.396 . S
C429 C424 1.499 . S
C429 H430 0.959 . S
C429 H431 0.960 . S
C429 H432 0.961 . S
H430 C429 0.959 . S
H431 C429 0.960 . S
H432 C429 0.961 . S
O433 Co408 1.967 . S
O433 C441 1.258 . S
O434 Co409 1.941 . S
O434 C441 1.266 . S
H435 C437 0.959 . S
H436 C437 0.961 . S
C437 C427 1.510 . S
C437 H435 0.959 . S
C437 H436 0.961 . S
C437 H438 0.960 . S
H438 C437 0.960 . S
H439 N419 0.862 . S
O440 Co408 1.920 . S
O440 C413 1.289 . S
C441 O433 1.258 . S
C441 O434 1.266 . S
Co442 O445 1.970 . S
Co442 N459 1.989 . S
Co442 O467 1.967 . S
Co442 O474 1.920 . S
Co443 O446 1.966 . S
Co443 N452 2.022 . S
Co443 N460 1.993 . S
Co443 O468 1.941 . S
C444 O445 1.258 . S
C444 O446 1.263 . S
O445 Co442 1.970 . S
O445 C444 1.258 . S
O446 Co443 1.966 . S
O446 C444 1.263 . S
C447 O448 1.235 . S
C447 O474 1.289 . S
O448 C447 1.235 . S
C449 C451 1.400 . S
C449 N452 1.351 . S
C449 C454 1.501 . S
C450 C451 1.387 . S
C450 N453 1.341 . S
C451 C449 1.400 . S
C451 C450 1.387 . S
N452 Co443 2.022 . S
N452 C449 1.351 . S
N452 N453 1.365 . S
N453 C450 1.341 . S
N453 N452 1.365 . S
N453 H473 0.862 . S
C454 C449 1.501 . S
C454 H455 0.961 . S
C454 H456 0.961 . S
C454 H457 0.960 . S
H455 C454 0.961 . S
H456 C454 0.961 . S
H457 C454 0.960 . S
C458 N459 1.342 . S
C458 C462 1.401 . S
C458 C463 1.499 . S
N459 Co442 1.989 . S
N459 C458 1.342 . S
N459 N460 1.388 . S
N460 Co443 1.993 . S
N460 N459 1.388 . S
N460 C461 1.346 . S
C461 N460 1.346 . S
C461 C462 1.396 . S
C461 C471 1.510 . S
C462 C458 1.401 . S
C462 C461 1.396 . S
C463 C458 1.499 . S
C463 H464 0.959 . S
C463 H465 0.960 . S
C463 H466 0.961 . S
H464 C463 0.959 . S
H465 C463 0.960 . S
H466 C463 0.961 . S
O467 Co442 1.967 . S
O467 C475 1.258 . S
O468 Co443 1.941 . S
O468 C475 1.266 . S
H469 C471 0.959 . S
H470 C471 0.961 . S
C471 C461 1.510 . S
C471 H469 0.959 . S
C471 H470 0.961 . S
C471 H472 0.960 . S
H472 C471 0.960 . S
H473 N453 0.862 . S
O474 Co442 1.920 . S
O474 C447 1.289 . S
C475 O467 1.258 . S
C475 O468 1.266 . S
Co476 O479 1.970 . S
Co476 N493 1.989 . S
Co476 O501 1.967 . S
Co476 O508 1.920 . S
Co477 O480 1.966 . S
Co477 N486 2.022 . S
Co477 N494 1.993 . S
Co477 O502 1.941 . S
C478 O479 1.258 . S
C478 O480 1.263 . S
O479 Co476 1.970 . S
O479 C478 1.258 . S
O480 Co477 1.966 . S
O480 C478 1.263 . S
C481 O482 1.235 . S
C481 O508 1.289 . S
O482 C481 1.235 . S
C483 C485 1.400 . S
C483 N486 1.351 . S
C483 C488 1.501 . S
C484 C485 1.387 . S
C484 N487 1.341 . S
C485 C483 1.400 . S
C485 C484 1.387 . S
N486 Co477 2.022 . S
N486 C483 1.351 . S
N486 N487 1.365 . S
N487 C484 1.341 . S
N487 N486 1.365 . S
N487 H507 0.862 . S
C488 C483 1.501 . S
C488 H489 0.961 . S
C488 H490 0.961 . S
C488 H491 0.960 . S
H489 C488 0.961 . S
H490 C488 0.961 . S
H491 C488 0.960 . S
C492 N493 1.342 . S
C492 C496 1.401 . S
C492 C497 1.499 . S
N493 Co476 1.989 . S
N493 C492 1.342 . S
N493 N494 1.388 . S
N494 Co477 1.993 . S
N494 N493 1.388 . S
N494 C495 1.346 . S
C495 N494 1.346 . S
C495 C496 1.396 . S
C495 C505 1.510 . S
C496 C492 1.401 . S
C496 C495 1.396 . S
C497 C492 1.499 . S
C497 H498 0.959 . S
C497 H499 0.960 . S
C497 H500 0.961 . S
H498 C497 0.959 . S
H499 C497 0.960 . S
H500 C497 0.961 . S
O501 Co476 1.967 . S
O501 C509 1.258 . S
O502 Co477 1.941 . S
O502 C509 1.266 . S
H503 C505 0.959 . S
H504 C505 0.961 . S
C505 C495 1.510 . S
C505 H503 0.959 . S
C505 H504 0.961 . S
C505 H506 0.960 . S
H506 C505 0.960 . S
H507 N487 0.862 . S
O508 Co476 1.920 . S
O508 C481 1.289 . S
C509 O501 1.258 . S
C509 O502 1.266 . S
Co510 O513 1.970 . S
Co510 N527 1.989 . S
Co510 O535 1.967 . S
Co510 O542 1.920 . S
Co511 O514 1.966 . S
Co511 N520 2.022 . S
Co511 N528 1.993 . S
Co511 O536 1.941 . S
C512 O513 1.258 . S
C512 O514 1.263 . S
O513 Co510 1.970 . S
O513 C512 1.258 . S
O514 Co511 1.966 . S
O514 C512 1.263 . S
C515 O516 1.235 . S
C515 O542 1.289 . S
O516 C515 1.235 . S
C517 C519 1.400 . S
C517 N520 1.351 . S
C517 C522 1.501 . S
C518 C519 1.387 . S
C518 N521 1.341 . S
C519 C517 1.400 . S
C519 C518 1.387 . S
N520 Co511 2.022 . S
N520 C517 1.351 . S
N520 N521 1.365 . S
N521 C518 1.341 . S
N521 N520 1.365 . S
N521 H541 0.862 . S
C522 C517 1.501 . S
C522 H523 0.961 . S
C522 H524 0.961 . S
C522 H525 0.960 . S
H523 C522 0.961 . S
H524 C522 0.961 . S
H525 C522 0.960 . S
C526 N527 1.342 . S
C526 C530 1.401 . S
C526 C531 1.499 . S
N527 Co510 1.989 . S
N527 C526 1.342 . S
N527 N528 1.388 . S
N528 Co511 1.993 . S
N528 N527 1.388 . S
N528 C529 1.346 . S
C529 N528 1.346 . S
C529 C530 1.396 . S
C529 C539 1.510 . S
C530 C526 1.401 . S
C530 C529 1.396 . S
C531 C526 1.499 . S
C531 H532 0.959 . S
C531 H533 0.960 . S
C531 H534 0.961 . S
H532 C531 0.959 . S
H533 C531 0.960 . S
H534 C531 0.961 . S
O535 Co510 1.967 . S
O535 C543 1.258 . S
O536 Co511 1.941 . S
O536 C543 1.266 . S
H537 C539 0.959 . S
H538 C539 0.961 . S
C539 C529 1.510 . S
C539 H537 0.959 . S
C539 H538 0.961 . S
C539 H540 0.960 . S
H540 C539 0.960 . S
H541 N521 0.862 . S
O542 Co510 1.920 . S
O542 C515 1.289 . S
C543 O535 1.258 . S
C543 O536 1.266 . S
Co544 O547 1.970 . S
Co544 N561 1.989 . S
Co544 O569 1.967 . S
Co544 O576 1.920 . S
Co545 O548 1.966 . S
Co545 N554 2.022 . S
Co545 N562 1.993 . S
Co545 O570 1.941 . S
C546 O547 1.258 . S
C546 O548 1.263 . S
O547 Co544 1.970 . S
O547 C546 1.258 . S
O548 Co545 1.966 . S
O548 C546 1.263 . S
C549 O550 1.235 . S
C549 O576 1.289 . S
O550 C549 1.235 . S
C551 C553 1.400 . S
C551 N554 1.351 . S
C551 C556 1.501 . S
C552 C553 1.387 . S
C552 N555 1.341 . S
C553 C551 1.400 . S
C553 C552 1.387 . S
N554 Co545 2.022 . S
N554 C551 1.351 . S
N554 N555 1.365 . S
N555 C552 1.341 . S
N555 N554 1.365 . S
N555 H575 0.862 . S
C556 C551 1.501 . S
C556 H557 0.961 . S
C556 H558 0.961 . S
C556 H559 0.960 . S
H557 C556 0.961 . S
H558 C556 0.961 . S
H559 C556 0.960 . S
C560 N561 1.342 . S
C560 C564 1.401 . S
C560 C565 1.499 . S
N561 Co544 1.989 . S
N561 C560 1.342 . S
N561 N562 1.388 . S
N562 Co545 1.993 . S
N562 N561 1.388 . S
N562 C563 1.346 . S
C563 N562 1.346 . S
C563 C564 1.396 . S
C563 C573 1.510 . S
C564 C560 1.401 . S
C564 C563 1.396 . S
C565 C560 1.499 . S
C565 H566 0.959 . S
C565 H567 0.960 . S
C565 H568 0.961 . S
H566 C565 0.959 . S
H567 C565 0.960 . S
H568 C565 0.961 . S
O569 Co544 1.967 . S
O569 C577 1.258 . S
O570 Co545 1.941 . S
O570 C577 1.266 . S
H571 C573 0.959 . S
H572 C573 0.961 . S
C573 C563 1.510 . S
C573 H571 0.959 . S
C573 H572 0.961 . S
C573 H574 0.960 . S
H574 C573 0.960 . S
H575 N555 0.862 . S
O576 Co544 1.920 . S
O576 C549 1.289 . S
C577 O569 1.258 . S
C577 O570 1.266 . S
Co578 O581 1.970 . S
Co578 N595 1.989 . S
Co578 O603 1.967 . S
Co578 O610 1.920 . S
Co579 O582 1.966 . S
Co579 N588 2.022 . S
Co579 N596 1.993 . S
Co579 O604 1.941 . S
C580 O581 1.258 . S
C580 O582 1.263 . S
O581 Co578 1.970 . S
O581 C580 1.258 . S
O582 Co579 1.966 . S
O582 C580 1.263 . S
C583 O584 1.235 . S
C583 O610 1.289 . S
O584 C583 1.235 . S
C585 C587 1.400 . S
C585 N588 1.351 . S
C585 C590 1.501 . S
C586 C587 1.387 . S
C586 N589 1.341 . S
C587 C585 1.400 . S
C587 C586 1.387 . S
N588 Co579 2.022 . S
N588 C585 1.351 . S
N588 N589 1.365 . S
N589 C586 1.341 . S
N589 N588 1.365 . S
N589 H609 0.862 . S
C590 C585 1.501 . S
C590 H591 0.961 . S
C590 H592 0.961 . S
C590 H593 0.960 . S
H591 C590 0.961 . S
H592 C590 0.961 . S
H593 C590 0.960 . S
C594 N595 1.342 . S
C594 C598 1.401 . S
C594 C599 1.499 . S
N595 Co578 1.989 . S
N595 C594 1.342 . S
N595 N596 1.388 . S
N596 Co579 1.993 . S
N596 N595 1.388 . S
N596 C597 1.346 . S
C597 N596 1.346 . S
C597 C598 1.396 . S
C597 C607 1.510 . S
C598 C594 1.401 . S
C598 C597 1.396 . S
C599 C594 1.499 . S
C599 H600 0.959 . S
C599 H601 0.960 . S
C599 H602 0.961 . S
H600 C599 0.959 . S
H601 C599 0.960 . S
H602 C599 0.961 . S
O603 Co578 1.967 . S
O603 C611 1.258 . S
O604 Co579 1.941 . S
O604 C611 1.266 . S
H605 C607 0.959 . S
H606 C607 0.961 . S
C607 C597 1.510 . S
C607 H605 0.959 . S
C607 H606 0.961 . S
C607 H608 0.960 . S
H608 C607 0.960 . S
H609 N589 0.862 . S
O610 Co578 1.920 . S
O610 C583 1.289 . S
C611 O603 1.258 . S
C611 O604 1.266 . S
Co612 O615 1.970 . S
Co612 N629 1.989 . S
Co612 O637 1.967 . S
Co612 O644 1.920 . S
Co613 O616 1.966 . S
Co613 N622 2.022 . S
Co613 N630 1.993 . S
Co613 O638 1.941 . S
C614 O615 1.258 . S
C614 O616 1.263 . S
O615 Co612 1.970 . S
O615 C614 1.258 . S
O616 Co613 1.966 . S
O616 C614 1.263 . S
C617 O618 1.235 . S
C617 O644 1.289 . S
O618 C617 1.235 . S
C619 C621 1.400 . S
C619 N622 1.351 . S
C619 C624 1.501 . S
C620 C621 1.387 . S
C620 N623 1.341 . S
C621 C619 1.400 . S
C621 C620 1.387 . S
N622 Co613 2.022 . S
N622 C619 1.351 . S
N622 N623 1.365 . S
N623 C620 1.341 . S
N623 N622 1.365 . S
N623 H643 0.862 . S
C624 C619 1.501 . S
C624 H625 0.961 . S
C624 H626 0.961 . S
C624 H627 0.960 . S
H625 C624 0.961 . S
H626 C624 0.961 . S
H627 C624 0.960 . S
C628 N629 1.342 . S
C628 C632 1.401 . S
C628 C633 1.499 . S
N629 Co612 1.989 . S
N629 C628 1.342 . S
N629 N630 1.388 . S
N630 Co613 1.993 . S
N630 N629 1.388 . S
N630 C631 1.346 . S
C631 N630 1.346 . S
C631 C632 1.396 . S
C631 C641 1.510 . S
C632 C628 1.401 . S
C632 C631 1.396 . S
C633 C628 1.499 . S
C633 H634 0.959 . S
C633 H635 0.960 . S
C633 H636 0.961 . S
H634 C633 0.959 . S
H635 C633 0.960 . S
H636 C633 0.961 . S
O637 Co612 1.967 . S
O637 C645 1.258 . S
O638 Co613 1.941 . S
O638 C645 1.266 . S
H639 C641 0.959 . S
H640 C641 0.961 . S
C641 C631 1.510 . S
C641 H639 0.959 . S
C641 H640 0.961 . S
C641 H642 0.960 . S
H642 C641 0.960 . S
H643 N623 0.862 . S
O644 Co612 1.920 . S
O644 C617 1.289 . S
C645 O637 1.258 . S
C645 O638 1.266 . S
Co646 O649 1.970 . S
Co646 N663 1.989 . S
Co646 O671 1.967 . S
Co646 O678 1.920 . S
Co647 O650 1.966 . S
Co647 N656 2.022 . S
Co647 N664 1.993 . S
Co647 O672 1.941 . S
C648 O649 1.258 . S
C648 O650 1.263 . S
O649 Co646 1.970 . S
O649 C648 1.258 . S
O650 Co647 1.966 . S
O650 C648 1.263 . S
C651 O652 1.235 . S
C651 O678 1.289 . S
O652 C651 1.235 . S
C653 C655 1.400 . S
C653 N656 1.351 . S
C653 C658 1.501 . S
C654 C655 1.387 . S
C654 N657 1.341 . S
C655 C653 1.400 . S
C655 C654 1.387 . S
N656 Co647 2.022 . S
N656 C653 1.351 . S
N656 N657 1.365 . S
N657 C654 1.341 . S
N657 N656 1.365 . S
N657 H677 0.862 . S
C658 C653 1.501 . S
C658 H659 0.961 . S
C658 H660 0.961 . S
C658 H661 0.960 . S
H659 C658 0.961 . S
H660 C658 0.961 . S
H661 C658 0.960 . S
C662 N663 1.342 . S
C662 C666 1.401 . S
C662 C667 1.499 . S
N663 Co646 1.989 . S
N663 C662 1.342 . S
N663 N664 1.388 . S
N664 Co647 1.993 . S
N664 N663 1.388 . S
N664 C665 1.346 . S
C665 N664 1.346 . S
C665 C666 1.396 . S
C665 C675 1.510 . S
C666 C662 1.401 . S
C666 C665 1.396 . S
C667 C662 1.499 . S
C667 H668 0.959 . S
C667 H669 0.960 . S
C667 H670 0.961 . S
H668 C667 0.959 . S
H669 C667 0.960 . S
H670 C667 0.961 . S
O671 Co646 1.967 . S
O671 C679 1.258 . S
O672 Co647 1.941 . S
O672 C679 1.266 . S
H673 C675 0.959 . S
H674 C675 0.961 . S
C675 C665 1.510 . S
C675 H673 0.959 . S
C675 H674 0.961 . S
C675 H676 0.960 . S
H676 C675 0.960 . S
H677 N657 0.862 . S
O678 Co646 1.920 . S
O678 C651 1.289 . S
C679 O671 1.258 . S
C679 O672 1.266 . S
Co680 O683 1.970 . S
Co680 N697 1.989 . S
Co680 O705 1.967 . S
Co680 O712 1.920 . S
Co681 O684 1.966 . S
Co681 N690 2.022 . S
Co681 N698 1.993 . S
Co681 O706 1.941 . S
C682 O683 1.258 . S
C682 O684 1.263 . S
O683 Co680 1.970 . S
O683 C682 1.258 . S
O684 Co681 1.966 . S
O684 C682 1.263 . S
C685 O686 1.235 . S
C685 O712 1.289 . S
O686 C685 1.235 . S
C687 C689 1.400 . S
C687 N690 1.351 . S
C687 C692 1.501 . S
C688 C689 1.387 . S
C688 N691 1.341 . S
C689 C687 1.400 . S
C689 C688 1.387 . S
N690 Co681 2.022 . S
N690 C687 1.351 . S
N690 N691 1.365 . S
N691 C688 1.341 . S
N691 N690 1.365 . S
N691 H711 0.862 . S
C692 C687 1.501 . S
C692 H693 0.961 . S
C692 H694 0.961 . S
C692 H695 0.960 . S
H693 C692 0.961 . S
H694 C692 0.961 . S
H695 C692 0.960 . S
C696 N697 1.342 . S
C696 C700 1.401 . S
C696 C701 1.499 . S
N697 Co680 1.989 . S
N697 C696 1.342 . S
N697 N698 1.388 . S
N698 Co681 1.993 . S
N698 N697 1.388 . S
N698 C699 1.346 . S
C699 N698 1.346 . S
C699 C700 1.396 . S
C699 C709 1.510 . S
C700 C696 1.401 . S
C700 C699 1.396 . S
C701 C696 1.499 . S
C701 H702 0.959 . S
C701 H703 0.960 . S
C701 H704 0.961 . S
H702 C701 0.959 . S
H703 C701 0.960 . S
H704 C701 0.961 . S
O705 Co680 1.967 . S
O705 C713 1.258 . S
O706 Co681 1.941 . S
O706 C713 1.266 . S
H707 C709 0.959 . S
H708 C709 0.961 . S
C709 C699 1.510 . S
C709 H707 0.959 . S
C709 H708 0.961 . S
C709 H710 0.960 . S
H710 C709 0.960 . S
H711 N691 0.862 . S
O712 Co680 1.920 . S
O712 C685 1.289 . S
C713 O705 1.258 . S
C713 O706 1.266 . S
Co714 O717 1.970 . S
Co714 N731 1.989 . S
Co714 O739 1.967 . S
Co714 O746 1.920 . S
Co715 O718 1.966 . S
Co715 N724 2.022 . S
Co715 N732 1.993 . S
Co715 O740 1.941 . S
C716 O717 1.258 . S
C716 O718 1.263 . S
O717 Co714 1.970 . S
O717 C716 1.258 . S
O718 Co715 1.966 . S
O718 C716 1.263 . S
C719 O720 1.235 . S
C719 O746 1.289 . S
O720 C719 1.235 . S
C721 C723 1.400 . S
C721 N724 1.351 . S
C721 C726 1.501 . S
C722 C723 1.387 . S
C722 N725 1.341 . S
C723 C721 1.400 . S
C723 C722 1.387 . S
N724 Co715 2.022 . S
N724 C721 1.351 . S
N724 N725 1.365 . S
N725 C722 1.341 . S
N725 N724 1.365 . S
N725 H745 0.862 . S
C726 C721 1.501 . S
C726 H727 0.961 . S
C726 H728 0.961 . S
C726 H729 0.960 . S
H727 C726 0.961 . S
H728 C726 0.961 . S
H729 C726 0.960 . S
C730 N731 1.342 . S
C730 C734 1.401 . S
C730 C735 1.499 . S
N731 Co714 1.989 . S
N731 C730 1.342 . S
N731 N732 1.388 . S
N732 Co715 1.993 . S
N732 N731 1.388 . S
N732 C733 1.346 . S
C733 N732 1.346 . S
C733 C734 1.396 . S
C733 C743 1.510 . S
C734 C730 1.401 . S
C734 C733 1.396 . S
C735 C730 1.499 . S
C735 H736 0.959 . S
C735 H737 0.960 . S
C735 H738 0.961 . S
H736 C735 0.959 . S
H737 C735 0.960 . S
H738 C735 0.961 . S
O739 Co714 1.967 . S
O739 C747 1.258 . S
O740 Co715 1.941 . S
O740 C747 1.266 . S
H741 C743 0.959 . S
H742 C743 0.961 . S
C743 C733 1.510 . S
C743 H741 0.959 . S
C743 H742 0.961 . S
C743 H744 0.960 . S
H744 C743 0.960 . S
H745 N725 0.862 . S
O746 Co714 1.920 . S
O746 C719 1.289 . S
C747 O739 1.258 . S
C747 O740 1.266 . S
Co748 O751 1.970 . S
Co748 N765 1.989 . S
Co748 O773 1.967 . S
Co748 O780 1.920 . S
Co749 O752 1.966 . S
Co749 N758 2.022 . S
Co749 N766 1.993 . S
Co749 O774 1.941 . S
C750 O751 1.258 . S
C750 O752 1.263 . S
O751 Co748 1.970 . S
O751 C750 1.258 . S
O752 Co749 1.966 . S
O752 C750 1.263 . S
C753 O754 1.235 . S
C753 O780 1.289 . S
O754 C753 1.235 . S
C755 C757 1.400 . S
C755 N758 1.351 . S
C755 C760 1.501 . S
C756 C757 1.387 . S
C756 N759 1.341 . S
C757 C755 1.400 . S
C757 C756 1.387 . S
N758 Co749 2.022 . S
N758 C755 1.351 . S
N758 N759 1.365 . S
N759 C756 1.341 . S
N759 N758 1.365 . S
N759 H779 0.862 . S
C760 C755 1.501 . S
C760 H761 0.961 . S
C760 H762 0.961 . S
C760 H763 0.960 . S
H761 C760 0.961 . S
H762 C760 0.961 . S
H763 C760 0.960 . S
C764 N765 1.342 . S
C764 C768 1.401 . S
C764 C769 1.499 . S
N765 Co748 1.989 . S
N765 C764 1.342 . S
N765 N766 1.388 . S
N766 Co749 1.993 . S
N766 N765 1.388 . S
N766 C767 1.346 . S
C767 N766 1.346 . S
C767 C768 1.396 . S
C767 C777 1.510 . S
C768 C764 1.401 . S
C768 C767 1.396 . S
C769 C764 1.499 . S
C769 H770 0.959 . S
C769 H771 0.960 . S
C769 H772 0.961 . S
H770 C769 0.959 . S
H771 C769 0.960 . S
H772 C769 0.961 . S
O773 Co748 1.967 . S
O773 C781 1.258 . S
O774 Co749 1.941 . S
O774 C781 1.266 . S
H775 C777 0.959 . S
H776 C777 0.961 . S
C777 C767 1.510 . S
C777 H775 0.959 . S
C777 H776 0.961 . S
C777 H778 0.960 . S
H778 C777 0.960 . S
H779 N759 0.862 . S
O780 Co748 1.920 . S
O780 C753 1.289 . S
C781 O773 1.258 . S
C781 O774 1.266 . S
Co782 O785 1.970 . S
Co782 N799 1.989 . S
Co782 O807 1.967 . S
Co782 O814 1.920 . S
Co783 O786 1.966 . S
Co783 N792 2.022 . S
Co783 N800 1.993 . S
Co783 O808 1.941 . S
C784 O785 1.258 . S
C784 O786 1.263 . S
O785 Co782 1.970 . S
O785 C784 1.258 . S
O786 Co783 1.966 . S
O786 C784 1.263 . S
C787 O788 1.235 . S
C787 O814 1.289 . S
O788 C787 1.235 . S
C789 C791 1.400 . S
C789 N792 1.351 . S
C789 C794 1.501 . S
C790 C791 1.387 . S
C790 N793 1.341 . S
C791 C789 1.400 . S
C791 C790 1.387 . S
N792 Co783 2.022 . S
N792 C789 1.351 . S
N792 N793 1.365 . S
N793 C790 1.341 . S
N793 N792 1.365 . S
N793 H813 0.862 . S
C794 C789 1.501 . S
C794 H795 0.961 . S
C794 H796 0.961 . S
C794 H797 0.960 . S
H795 C794 0.961 . S
H796 C794 0.961 . S
H797 C794 0.960 . S
C798 N799 1.342 . S
C798 C802 1.401 . S
C798 C803 1.499 . S
N799 Co782 1.989 . S
N799 C798 1.342 . S
N799 N800 1.388 . S
N800 Co783 1.993 . S
N800 N799 1.388 . S
N800 C801 1.346 . S
C801 N800 1.346 . S
C801 C802 1.396 . S
C801 C811 1.510 . S
C802 C798 1.401 . S
C802 C801 1.396 . S
C803 C798 1.499 . S
C803 H804 0.959 . S
C803 H805 0.960 . S
C803 H806 0.961 . S
H804 C803 0.959 . S
H805 C803 0.960 . S
H806 C803 0.961 . S
O807 Co782 1.967 . S
O807 C815 1.258 . S
O808 Co783 1.941 . S
O808 C815 1.266 . S
H809 C811 0.959 . S
H810 C811 0.961 . S
C811 C801 1.510 . S
C811 H809 0.959 . S
C811 H810 0.961 . S
C811 H812 0.960 . S
H812 C811 0.960 . S
H813 N793 0.862 . S
O814 Co782 1.920 . S
O814 C787 1.289 . S
C815 O807 1.258 . S
C815 O808 1.266 . S
Co816 O819 1.970 . S
Co816 N833 1.989 . S
Co816 O841 1.967 . S
Co816 O848 1.920 . S
Co817 O820 1.966 . S
Co817 N826 2.022 . S
Co817 N834 1.993 . S
Co817 O842 1.941 . S
C818 O819 1.258 . S
C818 O820 1.263 . S
O819 Co816 1.970 . S
O819 C818 1.258 . S
O820 Co817 1.966 . S
O820 C818 1.263 . S
C821 O822 1.235 . S
C821 O848 1.289 . S
O822 C821 1.235 . S
C823 C825 1.400 . S
C823 N826 1.351 . S
C823 C828 1.501 . S
C824 C825 1.387 . S
C824 N827 1.341 . S
C825 C823 1.400 . S
C825 C824 1.387 . S
N826 Co817 2.022 . S
N826 C823 1.351 . S
N826 N827 1.365 . S
N827 C824 1.341 . S
N827 N826 1.365 . S
N827 H847 0.862 . S
C828 C823 1.501 . S
C828 H829 0.961 . S
C828 H830 0.961 . S
C828 H831 0.960 . S
H829 C828 0.961 . S
H830 C828 0.961 . S
H831 C828 0.960 . S
C832 N833 1.342 . S
C832 C836 1.401 . S
C832 C837 1.499 . S
N833 Co816 1.989 . S
N833 C832 1.342 . S
N833 N834 1.388 . S
N834 Co817 1.993 . S
N834 N833 1.388 . S
N834 C835 1.346 . S
C835 N834 1.346 . S
C835 C836 1.396 . S
C835 C845 1.510 . S
C836 C832 1.401 . S
C836 C835 1.396 . S
C837 C832 1.499 . S
C837 H838 0.959 . S
C837 H839 0.960 . S
C837 H840 0.961 . S
H838 C837 0.959 . S
H839 C837 0.960 . S
H840 C837 0.961 . S
O841 Co816 1.967 . S
O841 C849 1.258 . S
O842 Co817 1.941 . S
O842 C849 1.266 . S
H843 C845 0.959 . S
H844 C845 0.961 . S
C845 C835 1.510 . S
C845 H843 0.959 . S
C845 H844 0.961 . S
C845 H846 0.960 . S
H846 C845 0.960 . S
H847 N827 0.862 . S
O848 Co816 1.920 . S
O848 C821 1.289 . S
C849 O841 1.258 . S
C849 O842 1.266 . S
Co850 O853 1.970 . S
Co850 N867 1.989 . S
Co850 O875 1.967 . S
Co850 O882 1.920 . S
Co851 O854 1.966 . S
Co851 N860 2.022 . S
Co851 N868 1.993 . S
Co851 O876 1.941 . S
C852 O853 1.258 . S
C852 O854 1.263 . S
O853 Co850 1.970 . S
O853 C852 1.258 . S
O854 Co851 1.966 . S
O854 C852 1.263 . S
C855 O856 1.235 . S
C855 O882 1.289 . S
O856 C855 1.235 . S
C857 C859 1.400 . S
C857 N860 1.351 . S
C857 C862 1.501 . S
C858 C859 1.387 . S
C858 N861 1.341 . S
C859 C857 1.400 . S
C859 C858 1.387 . S
N860 Co851 2.022 . S
N860 C857 1.351 . S
N860 N861 1.365 . S
N861 C858 1.341 . S
N861 N860 1.365 . S
N861 H881 0.862 . S
C862 C857 1.501 . S
C862 H863 0.961 . S
C862 H864 0.961 . S
C862 H865 0.960 . S
H863 C862 0.961 . S
H864 C862 0.961 . S
H865 C862 0.960 . S
C866 N867 1.342 . S
C866 C870 1.401 . S
C866 C871 1.499 . S
N867 Co850 1.989 . S
N867 C866 1.342 . S
N867 N868 1.388 . S
N868 Co851 1.993 . S
N868 N867 1.388 . S
N868 C869 1.346 . S
C869 N868 1.346 . S
C869 C870 1.396 . S
C869 C879 1.510 . S
C870 C866 1.401 . S
C870 C869 1.396 . S
C871 C866 1.499 . S
C871 H872 0.959 . S
C871 H873 0.960 . S
C871 H874 0.961 . S
H872 C871 0.959 . S
H873 C871 0.960 . S
H874 C871 0.961 . S
O875 Co850 1.967 . S
O875 C883 1.258 . S
O876 Co851 1.941 . S
O876 C883 1.266 . S
H877 C879 0.959 . S
H878 C879 0.961 . S
C879 C869 1.510 . S
C879 H877 0.959 . S
C879 H878 0.961 . S
C879 H880 0.960 . S
H880 C879 0.960 . S
H881 N861 0.862 . S
O882 Co850 1.920 . S
O882 C855 1.289 . S
C883 O875 1.258 . S
C883 O876 1.266 . S
Co884 O887 1.970 . S
Co884 N901 1.989 . S
Co884 O909 1.967 . S
Co884 O916 1.920 . S
Co885 O888 1.966 . S
Co885 N894 2.022 . S
Co885 N902 1.993 . S
Co885 O910 1.941 . S
C886 O887 1.258 . S
C886 O888 1.263 . S
O887 Co884 1.970 . S
O887 C886 1.258 . S
O888 Co885 1.966 . S
O888 C886 1.263 . S
C889 O890 1.235 . S
C889 O916 1.289 . S
O890 C889 1.235 . S
C891 C893 1.400 . S
C891 N894 1.351 . S
C891 C896 1.501 . S
C892 C893 1.387 . S
C892 N895 1.341 . S
C893 C891 1.400 . S
C893 C892 1.387 . S
N894 Co885 2.022 . S
N894 C891 1.351 . S
N894 N895 1.365 . S
N895 C892 1.341 . S
N895 N894 1.365 . S
N895 H915 0.862 . S
C896 C891 1.501 . S
C896 H897 0.961 . S
C896 H898 0.961 . S
C896 H899 0.960 . S
H897 C896 0.961 . S
H898 C896 0.961 . S
H899 C896 0.960 . S
C900 N901 1.342 . S
C900 C904 1.401 . S
C900 C905 1.499 . S
N901 Co884 1.989 . S
N901 C900 1.342 . S
N901 N902 1.388 . S
N902 Co885 1.993 . S
N902 N901 1.388 . S
N902 C903 1.346 . S
C903 N902 1.346 . S
C903 C904 1.396 . S
C903 C913 1.510 . S
C904 C900 1.401 . S
C904 C903 1.396 . S
C905 C900 1.499 . S
C905 H906 0.959 . S
C905 H907 0.960 . S
C905 H908 0.961 . S
H906 C905 0.959 . S
H907 C905 0.960 . S
H908 C905 0.961 . S
O909 Co884 1.967 . S
O909 C917 1.258 . S
O910 Co885 1.941 . S
O910 C917 1.266 . S
H911 C913 0.959 . S
H912 C913 0.961 . S
C913 C903 1.510 . S
C913 H911 0.959 . S
C913 H912 0.961 . S
C913 H914 0.960 . S
H914 C913 0.960 . S
H915 N895 0.862 . S
O916 Co884 1.920 . S
O916 C889 1.289 . S
C917 O909 1.258 . S
C917 O910 1.266 . S
Co918 O921 1.970 . S
Co918 N935 1.989 . S
Co918 O943 1.967 . S
Co918 O950 1.920 . S
Co919 O922 1.966 . S
Co919 N928 2.022 . S
Co919 N936 1.993 . S
Co919 O944 1.941 . S
C920 O921 1.258 . S
C920 O922 1.263 . S
O921 Co918 1.970 . S
O921 C920 1.258 . S
O922 Co919 1.966 . S
O922 C920 1.263 . S
C923 O924 1.235 . S
C923 O950 1.289 . S
O924 C923 1.235 . S
C925 C927 1.400 . S
C925 N928 1.351 . S
C925 C930 1.501 . S
C926 C927 1.387 . S
C926 N929 1.341 . S
C927 C925 1.400 . S
C927 C926 1.387 . S
N928 Co919 2.022 . S
N928 C925 1.351 . S
N928 N929 1.365 . S
N929 C926 1.341 . S
N929 N928 1.365 . S
N929 H949 0.862 . S
C930 C925 1.501 . S
C930 H931 0.961 . S
C930 H932 0.961 . S
C930 H933 0.960 . S
H931 C930 0.961 . S
H932 C930 0.961 . S
H933 C930 0.960 . S
C934 N935 1.342 . S
C934 C938 1.401 . S
C934 C939 1.499 . S
N935 Co918 1.989 . S
N935 C934 1.342 . S
N935 N936 1.388 . S
N936 Co919 1.993 . S
N936 N935 1.388 . S
N936 C937 1.346 . S
C937 N936 1.346 . S
C937 C938 1.396 . S
C937 C947 1.510 . S
C938 C934 1.401 . S
C938 C937 1.396 . S
C939 C934 1.499 . S
C939 H940 0.959 . S
C939 H941 0.960 . S
C939 H942 0.961 . S
H940 C939 0.959 . S
H941 C939 0.960 . S
H942 C939 0.961 . S
O943 Co918 1.967 . S
O943 C951 1.258 . S
O944 Co919 1.941 . S
O944 C951 1.266 . S
H945 C947 0.959 . S
H946 C947 0.961 . S
C947 C937 1.510 . S
C947 H945 0.959 . S
C947 H946 0.961 . S
C947 H948 0.960 . S
H948 C947 0.960 . S
H949 N929 0.862 . S
O950 Co918 1.920 . S
O950 C923 1.289 . S
C951 O943 1.258 . S
C951 O944 1.266 . S
Co952 O955 1.970 . S
Co952 N969 1.989 . S
Co952 O977 1.967 . S
Co952 O984 1.920 . S
Co953 O956 1.966 . S
Co953 N962 2.022 . S
Co953 N970 1.993 . S
Co953 O978 1.941 . S
C954 O955 1.258 . S
C954 O956 1.263 . S
O955 Co952 1.970 . S
O955 C954 1.258 . S
O956 Co953 1.966 . S
O956 C954 1.263 . S
C957 O958 1.235 . S
C957 O984 1.289 . S
O958 C957 1.235 . S
C959 C961 1.400 . S
C959 N962 1.351 . S
C959 C964 1.501 . S
C960 C961 1.387 . S
C960 N963 1.341 . S
C961 C959 1.400 . S
C961 C960 1.387 . S
N962 Co953 2.022 . S
N962 C959 1.351 . S
N962 N963 1.365 . S
N963 C960 1.341 . S
N963 N962 1.365 . S
N963 H983 0.862 . S
C964 C959 1.501 . S
C964 H965 0.961 . S
C964 H966 0.961 . S
C964 H967 0.960 . S
H965 C964 0.961 . S
H966 C964 0.961 . S
H967 C964 0.960 . S
C968 N969 1.342 . S
C968 C972 1.401 . S
C968 C973 1.499 . S
N969 Co952 1.989 . S
N969 C968 1.342 . S
N969 N970 1.388 . S
N970 Co953 1.993 . S
N970 N969 1.388 . S
N970 C971 1.346 . S
C971 N970 1.346 . S
C971 C972 1.396 . S
C971 C981 1.510 . S
C972 C968 1.401 . S
C972 C971 1.396 . S
C973 C968 1.499 . S
C973 H974 0.959 . S
C973 H975 0.960 . S
C973 H976 0.961 . S
H974 C973 0.959 . S
H975 C973 0.960 . S
H976 C973 0.961 . S
O977 Co952 1.967 . S
O977 C985 1.258 . S
O978 Co953 1.941 . S
O978 C985 1.266 . S
H979 C981 0.959 . S
H980 C981 0.961 . S
C981 C971 1.510 . S
C981 H979 0.959 . S
C981 H980 0.961 . S
C981 H982 0.960 . S
H982 C981 0.960 . S
H983 N963 0.862 . S
O984 Co952 1.920 . S
O984 C957 1.289 . S
C985 O977 1.258 . S
C985 O978 1.266 . S
Co986 O989 1.970 . S
Co986 N1003 1.989 . S
Co986 O1011 1.967 . S
Co986 O1018 1.920 . S
Co987 O990 1.966 . S
Co987 N996 2.022 . S
Co987 N1004 1.993 . S
Co987 O1012 1.941 . S
C988 O989 1.258 . S
C988 O990 1.263 . S
O989 Co986 1.970 . S
O989 C988 1.258 . S
O990 Co987 1.966 . S
O990 C988 1.263 . S
C991 O992 1.235 . S
C991 O1018 1.289 . S
O992 C991 1.235 . S
C993 C995 1.400 . S
C993 N996 1.351 . S
C993 C998 1.501 . S
C994 C995 1.387 . S
C994 N997 1.341 . S
C995 C993 1.400 . S
C995 C994 1.387 . S
N996 Co987 2.022 . S
N996 C993 1.351 . S
N996 N997 1.365 . S
N997 C994 1.341 . S
N997 N996 1.365 . S
N997 H1017 0.862 . S
C998 C993 1.501 . S
C998 H999 0.961 . S
C998 H1000 0.961 . S
C998 H1001 0.960 . S
H999 C998 0.961 . S
H1000 C998 0.961 . S
H1001 C998 0.960 . S
C1002 N1003 1.342 . S
C1002 C1006 1.401 . S
C1002 C1007 1.499 . S
N1003 Co986 1.989 . S
N1003 C1002 1.342 . S
N1003 N1004 1.388 . S
N1004 Co987 1.993 . S
N1004 N1003 1.388 . S
N1004 C1005 1.346 . S
C1005 N1004 1.346 . S
C1005 C1006 1.396 . S
C1005 C1015 1.510 . S
C1006 C1002 1.401 . S
C1006 C1005 1.396 . S
C1007 C1002 1.499 . S
C1007 H1008 0.959 . S
C1007 H1009 0.960 . S
C1007 H1010 0.961 . S
H1008 C1007 0.959 . S
H1009 C1007 0.960 . S
H1010 C1007 0.961 . S
O1011 Co986 1.967 . S
O1011 C1019 1.258 . S
O1012 Co987 1.941 . S
O1012 C1019 1.266 . S
H1013 C1015 0.959 . S
H1014 C1015 0.961 . S
C1015 C1005 1.510 . S
C1015 H1013 0.959 . S
C1015 H1014 0.961 . S
C1015 H1016 0.960 . S
H1016 C1015 0.960 . S
H1017 N997 0.862 . S
O1018 Co986 1.920 . S
O1018 C991 1.289 . S
C1019 O1011 1.258 . S
C1019 O1012 1.266 . S
Co1020 O1023 1.970 . S
Co1020 N1037 1.989 . S
Co1020 O1045 1.967 . S
Co1020 O1052 1.920 . S
Co1021 O1024 1.966 . S
Co1021 N1030 2.022 . S
Co1021 N1038 1.993 . S
Co1021 O1046 1.941 . S
C1022 O1023 1.258 . S
C1022 O1024 1.263 . S
O1023 Co1020 1.970 . S
O1023 C1022 1.258 . S
O1024 Co1021 1.966 . S
O1024 C1022 1.263 . S
C1025 O1026 1.235 . S
C1025 O1052 1.289 . S
O1026 C1025 1.235 . S
C1027 C1029 1.400 . S
C1027 N1030 1.351 . S
C1027 C1032 1.501 . S
C1028 C1029 1.387 . S
C1028 N1031 1.341 . S
C1029 C1027 1.400 . S
C1029 C1028 1.387 . S
N1030 Co1021 2.022 . S
N1030 C1027 1.351 . S
N1030 N1031 1.365 . S
N1031 C1028 1.341 . S
N1031 N1030 1.365 . S
N1031 H1051 0.862 . S
C1032 C1027 1.501 . S
C1032 H1033 0.961 . S
C1032 H1034 0.961 . S
C1032 H1035 0.960 . S
H1033 C1032 0.961 . S
H1034 C1032 0.961 . S
H1035 C1032 0.960 . S
C1036 N1037 1.342 . S
C1036 C1040 1.401 . S
C1036 C1041 1.499 . S
N1037 Co1020 1.989 . S
N1037 C1036 1.342 . S
N1037 N1038 1.388 . S
N1038 Co1021 1.993 . S
N1038 N1037 1.388 . S
N1038 C1039 1.346 . S
C1039 N1038 1.346 . S
C1039 C1040 1.396 . S
C1039 C1049 1.510 . S
C1040 C1036 1.401 . S
C1040 C1039 1.396 . S
C1041 C1036 1.499 . S
C1041 H1042 0.959 . S
C1041 H1043 0.960 . S
C1041 H1044 0.961 . S
H1042 C1041 0.959 . S
H1043 C1041 0.960 . S
H1044 C1041 0.961 . S
O1045 Co1020 1.967 . S
O1045 C1053 1.258 . S
O1046 Co1021 1.941 . S
O1046 C1053 1.266 . S
H1047 C1049 0.959 . S
H1048 C1049 0.961 . S
C1049 C1039 1.510 . S
C1049 H1047 0.959 . S
C1049 H1048 0.961 . S
C1049 H1050 0.960 . S
H1050 C1049 0.960 . S
H1051 N1031 0.862 . S
O1052 Co1020 1.920 . S
O1052 C1025 1.289 . S
C1053 O1045 1.258 . S
C1053 O1046 1.266 . S
Co1054 O1057 1.970 . S
Co1054 N1071 1.989 . S
Co1054 O1079 1.967 . S
Co1054 O1086 1.920 . S
Co1055 O1058 1.966 . S
Co1055 N1064 2.022 . S
Co1055 N1072 1.993 . S
Co1055 O1080 1.941 . S
C1056 O1057 1.258 . S
C1056 O1058 1.263 . S
O1057 Co1054 1.970 . S
O1057 C1056 1.258 . S
O1058 Co1055 1.966 . S
O1058 C1056 1.263 . S
C1059 O1060 1.235 . S
C1059 O1086 1.289 . S
O1060 C1059 1.235 . S
C1061 C1063 1.400 . S
C1061 N1064 1.351 . S
C1061 C1066 1.501 . S
C1062 C1063 1.387 . S
C1062 N1065 1.341 . S
C1063 C1061 1.400 . S
C1063 C1062 1.387 . S
N1064 Co1055 2.022 . S
N1064 C1061 1.351 . S
N1064 N1065 1.365 . S
N1065 C1062 1.341 . S
N1065 N1064 1.365 . S
N1065 H1085 0.862 . S
C1066 C1061 1.501 . S
C1066 H1067 0.961 . S
C1066 H1068 0.961 . S
C1066 H1069 0.960 . S
H1067 C1066 0.961 . S
H1068 C1066 0.961 . S
H1069 C1066 0.960 . S
C1070 N1071 1.342 . S
C1070 C1074 1.401 . S
C1070 C1075 1.499 . S
N1071 Co1054 1.989 . S
N1071 C1070 1.342 . S
N1071 N1072 1.388 . S
N1072 Co1055 1.993 . S
N1072 N1071 1.388 . S
N1072 C1073 1.346 . S
C1073 N1072 1.346 . S
C1073 C1074 1.396 . S
C1073 C1083 1.510 . S
C1074 C1070 1.401 . S
C1074 C1073 1.396 . S
C1075 C1070 1.499 . S
C1075 H1076 0.959 . S
C1075 H1077 0.960 . S
C1075 H1078 0.961 . S
H1076 C1075 0.959 . S
H1077 C1075 0.960 . S
H1078 C1075 0.961 . S
O1079 Co1054 1.967 . S
O1079 C1087 1.258 . S
O1080 Co1055 1.941 . S
O1080 C1087 1.266 . S
H1081 C1083 0.959 . S
H1082 C1083 0.961 . S
C1083 C1073 1.510 . S
C1083 H1081 0.959 . S
C1083 H1082 0.961 . S
C1083 H1084 0.960 . S
H1084 C1083 0.960 . S
H1085 N1065 0.862 . S
O1086 Co1054 1.920 . S
O1086 C1059 1.289 . S
C1087 O1079 1.258 . S
C1087 O1080 1.266 . S
C1088 C1089 1.349 . S
C1088 C1090 1.327 . S
C1088 H1113 0.950 . S
C1089 C1088 1.349 . S
C1089 C1105 1.349 . S
C1090 C1088 1.327 . S
C1090 C1109 1.429 . S
C1090 H1114 0.950 1_565 S
C1091 C1108 1.574 . S
C1091 C1110 1.368 . S
C1091 H1115 0.949 . S
H1092 C1096 0.949 . S
C1093 C1094 1.349 . S
C1093 C1095 1.327 1_554 S
C1093 H1116 0.950 . S
C1094 C1093 1.349 . S
C1094 C1106 1.349 . S
C1095 C1093 1.327 1_556 S
C1095 C1111 1.429 . S
C1095 H1117 0.950 1_545 S
C1096 H1092 0.949 . S
C1096 C1104 1.574 . S
C1096 C1112 1.368 . S
H1097 C1105 0.950 . S
H1098 C1103 0.950 . S
H1099 C1104 0.949 . S
H1100 C1106 0.950 . S
H1101 C1107 0.950 . S
H1102 C1108 0.949 . S
C1103 H1098 0.950 . S
C1103 C1105 1.327 . S
C1103 C1109 1.429 . S
C1104 C1096 1.574 . S
C1104 H1099 0.949 . S
C1104 C1110 1.368 1_545 S
C1105 C1089 1.349 . S
C1105 H1097 0.950 . S
C1105 C1103 1.327 . S
C1106 C1094 1.349 . S
C1106 H1100 0.950 . S
C1106 C1107 1.327 1_554 S
C1107 H1101 0.950 . S
C1107 C1106 1.327 1_556 S
C1107 C1111 1.429 . S
C1108 C1091 1.574 . S
C1108 H1102 0.949 . S
C1108 C1112 1.368 1_565 S
C1109 C1090 1.429 . S
C1109 C1103 1.429 . S
C1109 C1110 1.523 . S
C1110 C1091 1.368 . S
C1110 C1104 1.368 1_565 S
C1110 C1109 1.523 . S
C1111 C1095 1.429 . S
C1111 C1107 1.429 . S
C1111 C1112 1.523 . S
C1112 C1096 1.368 . S
C1112 C1108 1.368 1_545 S
C1112 C1111 1.523 . S
H1113 C1088 0.950 . S
H1114 C1090 0.950 1_545 S
H1115 C1091 0.949 . S
H1116 C1093 0.950 . S
H1117 C1095 0.950 1_565 S
C1118 C1119 1.349 . S
C1118 C1120 1.327 . S
C1118 H1143 0.950 . S
C1119 C1118 1.349 . S
C1119 C1135 1.349 . S
C1120 C1118 1.327 . S
C1120 C1139 1.429 . S
C1120 H1144 0.950 . S
C1121 C1138 1.574 1_455 S
C1121 C1140 1.368 . S
C1121 H1145 0.949 . S
H1122 C1126 0.954 . S
C1123 C1124 1.349 . S
C1123 C1125 1.327 1_554 S
C1123 H1146 0.950 . S
C1124 C1123 1.349 . S
C1124 C1136 1.349 . S
C1125 C1123 1.327 1_556 S
C1125 C1141 1.429 . S
C1125 H1147 0.950 . S
C1126 H1122 0.954 . S
C1126 C1134 1.574 . S
C1126 C1142 1.368 1_455 S
H1127 C1135 0.950 . S
H1128 C1133 0.950 . S
H1129 C1134 0.949 . S
H1130 C1136 0.950 . S
H1131 C1137 0.950 . S
H1132 C1138 0.949 . S
C1133 H1128 0.950 . S
C1133 C1135 1.327 . S
C1133 C1139 1.429 . S
C1134 C1126 1.574 . S
C1134 H1129 0.949 . S
C1134 C1140 1.368 . S
C1135 C1119 1.349 . S
C1135 H1127 0.950 . S
C1135 C1133 1.327 . S
C1136 C1124 1.349 . S
C1136 H1130 0.950 . S
C1136 C1137 1.327 1_554 S
C1137 H1131 0.950 . S
C1137 C1136 1.327 1_556 S
C1137 C1141 1.429 . S
C1138 C1121 1.574 1_655 S
C1138 H1132 0.949 . S
C1138 C1142 1.368 . S
C1139 C1120 1.429 . S
C1139 C1133 1.429 . S
C1139 C1140 1.523 . S
C1140 C1121 1.368 . S
C1140 C1134 1.368 . S
C1140 C1139 1.523 . S
C1141 C1125 1.429 . S
C1141 C1137 1.429 . S
C1141 C1142 1.523 . S
C1142 C1126 1.368 1_655 S
C1142 C1138 1.368 . S
C1142 C1141 1.523 . S
H1143 C1118 0.950 . S
H1144 C1120 0.950 . S
H1145 C1121 0.949 . S
H1146 C1123 0.950 . S
H1147 C1125 0.950 . S
C1148 C1149 1.349 . S
C1148 C1150 1.327 . S
C1148 H1173 0.950 . S
C1149 C1148 1.349 . S
C1149 C1165 1.349 . S
C1150 C1148 1.327 . S
C1150 C1169 1.429 . S
C1150 H1174 0.950 . S
C1151 C1168 1.574 . S
C1151 C1170 1.368 . S
C1151 H1175 0.949 . S
H1152 C1156 0.949 . S
C1153 C1154 1.349 . S
C1153 C1155 1.327 . S
C1153 H1176 0.950 . S
C1154 C1153 1.349 . S
C1154 C1166 1.349 . S
C1155 C1153 1.327 . S
C1155 C1171 1.429 . S
C1155 H1177 0.950 . S
C1156 H1152 0.949 . S
C1156 C1164 1.574 . S
C1156 C1172 1.368 . S
H1157 C1165 0.950 . S
H1158 C1163 0.950 . S
H1159 C1164 0.949 . S
H1160 C1166 0.950 . S
H1161 C1167 0.950 . S
H1162 C1168 0.949 . S
C1163 H1158 0.950 . S
C1163 C1165 1.327 . S
C1163 C1169 1.429 . S
C1164 C1156 1.574 . S
C1164 H1159 0.949 . S
C1164 C1170 1.368 . S
C1165 C1149 1.349 . S
C1165 H1157 0.950 . S
C1165 C1163 1.327 . S
C1166 C1154 1.349 . S
C1166 H1160 0.950 . S
C1166 C1167 1.327 . S
C1167 H1161 0.950 . S
C1167 C1166 1.327 . S
C1167 C1171 1.429 . S
C1168 C1151 1.574 . S
C1168 H1162 0.949 . S
C1168 C1172 1.368 . S
C1169 C1150 1.429 . S
C1169 C1163 1.429 . S
C1169 C1170 1.523 . S
C1170 C1151 1.368 . S
C1170 C1164 1.368 . S
C1170 C1169 1.523 . S
C1171 C1155 1.429 . S
C1171 C1167 1.429 . S
C1171 C1172 1.523 . S
C1172 C1156 1.368 . S
C1172 C1168 1.368 . S
C1172 C1171 1.523 . S
H1173 C1148 0.950 . S
H1174 C1150 0.950 . S
H1175 C1151 0.949 . S
H1176 C1153 0.950 . S
H1177 C1155 0.950 . S
C1178 C1179 1.349 . S
C1178 C1180 1.327 . S
C1178 H1203 0.950 . S
C1179 C1178 1.349 . S
C1179 C1195 1.349 . S
C1180 C1178 1.327 . S
C1180 C1199 1.429 . S
C1180 H1204 0.950 . S
C1181 C1198 1.574 1_655 S
C1181 C1200 1.368 1_565 S
C1181 H1205 0.949 . S
H1182 C1186 0.949 . S
C1183 C1184 1.349 . S
C1183 C1185 1.327 . S
C1183 H1206 0.950 . S
C1184 C1183 1.349 . S
C1184 C1196 1.349 . S
C1185 C1183 1.327 . S
C1185 C1201 1.429 . S
C1185 H1207 0.950 . S
C1186 H1182 0.949 . S
C1186 C1194 1.574 1_455 S
C1186 C1202 1.368 1_545 S
H1187 C1195 0.950 . S
H1188 C1193 0.950 1_565 S
H1189 C1194 0.949 . S
H1190 C1196 0.950 . S
H1191 C1197 0.950 1_545 S
H1192 C1198 0.949 . S
C1193 H1188 0.950 1_545 S
C1193 C1195 1.327 . S
C1193 C1199 1.429 . S
C1194 C1186 1.574 1_655 S
C1194 H1189 0.949 . S
C1194 C1200 1.368 . S
C1195 C1179 1.349 . S
C1195 H1187 0.950 . S
C1195 C1193 1.327 . S
C1196 C1184 1.349 . S
C1196 H1190 0.950 . S
C1196 C1197 1.327 . S
C1197 H1191 0.950 1_565 S
C1197 C1196 1.327 . S
C1197 C1201 1.429 . S
C1198 C1181 1.574 1_455 S
C1198 H1192 0.949 . S
C1198 C1202 1.368 . S
C1199 C1180 1.429 . S
C1199 C1193 1.429 . S
C1199 C1200 1.523 . S
C1200 C1181 1.368 1_545 S
C1200 C1194 1.368 . S
C1200 C1199 1.523 . S
C1201 C1185 1.429 . S
C1201 C1197 1.429 . S
C1201 C1202 1.523 . S
C1202 C1186 1.368 1_565 S
C1202 C1198 1.368 . S
C1202 C1201 1.523 . S
H1203 C1178 0.950 . S
H1204 C1180 0.950 . S
H1205 C1181 0.949 . S
H1206 C1183 0.950 . S
H1207 C1185 0.950 . S
C1208 C1209 1.349 . S
C1208 C1210 1.327 1_556 S
C1208 H1233 0.950 . S
C1209 C1208 1.349 . S
C1209 C1225 1.347 1_556 S
C1210 C1208 1.327 1_554 S
C1210 C1229 1.429 . S
C1210 H1234 0.950 1_565 S
C1211 C1228 1.574 . S
C1211 C1230 1.368 . S
C1211 H1235 0.949 . S
H1212 C1216 0.949 . S
C1213 C1214 1.349 . S
C1213 C1215 1.327 . S
C1213 H1236 1.004 . S
C1214 C1213 1.349 . S
C1214 C1226 1.349 . S
C1215 C1213 1.327 . S
C1215 C1231 1.429 . S
C1215 H1237 0.950 1_545 S
C1216 H1212 0.949 . S
C1216 C1224 1.574 . S
C1216 C1232 1.368 . S
H1217 C1225 0.949 1_556 S
H1218 C1223 0.950 . S
H1219 C1224 0.949 . S
H1220 C1226 0.950 . S
H1221 C1227 0.950 . S
H1222 C1228 0.949 . S
C1223 H1218 0.950 . S
C1223 C1225 1.330 . S
C1223 C1229 1.429 . S
C1224 C1216 1.574 . S
C1224 H1219 0.949 . S
C1224 C1230 1.368 1_545 S
C1225 C1209 1.347 1_554 S
C1225 H1217 0.949 1_554 S
C1225 C1223 1.330 . S
C1226 C1214 1.349 . S
C1226 H1220 0.950 . S
C1226 C1227 1.327 . S
C1227 H1221 0.950 . S
C1227 C1226 1.327 . S
C1227 C1231 1.429 . S
C1228 C1211 1.574 . S
C1228 H1222 0.949 . S
C1228 C1232 1.368 1_565 S
C1229 C1210 1.429 . S
C1229 C1223 1.429 . S
C1229 C1230 1.523 . S
C1230 C1211 1.368 . S
C1230 C1224 1.368 1_565 S
C1230 C1229 1.523 . S
C1231 C1215 1.429 . S
C1231 C1227 1.429 . S
C1231 C1232 1.523 . S
C1232 C1216 1.368 . S
C1232 C1228 1.368 1_545 S
C1232 C1231 1.523 . S
H1233 C1208 0.950 . S
H1234 C1210 0.950 1_545 S
H1235 C1211 0.949 . S
H1236 C1213 1.004 . S
H1237 C1215 0.950 1_565 S
C1238 C1239 1.349 . S
C1238 C1240 1.327 . S
C1238 H1263 0.950 . S
C1239 C1238 1.349 . S
C1239 C1255 1.349 . S
C1240 C1238 1.327 . S
C1240 C1259 1.429 . S
C1240 H1264 0.950 . S
C1241 C1258 1.574 1_655 S
C1241 C1260 1.368 . S
C1241 H1265 0.949 . S
H1242 C1246 0.949 1_556 S
C1243 C1244 1.349 1_554 S
C1243 C1245 1.327 . S
C1243 H1266 0.950 . S
C1244 C1243 1.349 1_556 S
C1244 C1256 1.349 . S
C1245 C1243 1.327 . S
C1245 C1261 1.429 . S
C1245 H1267 0.950 . S
C1246 H1242 0.949 1_554 S
C1246 C1254 1.574 . S
C1246 C1262 1.368 1_655 S
H1247 C1255 0.950 . S
H1248 C1253 0.950 . S
H1249 C1254 0.949 . S
H1250 C1256 0.950 . S
H1251 C1257 0.950 . S
H1252 C1258 0.949 . S
C1253 H1248 0.950 . S
C1253 C1255 1.327 . S
C1253 C1259 1.429 . S
C1254 C1246 1.574 . S
C1254 H1249 0.949 . S
C1254 C1260 1.368 . S
C1255 C1239 1.349 . S
C1255 H1247 0.950 . S
C1255 C1253 1.327 . S
C1256 C1244 1.349 . S
C1256 H1250 0.950 . S
C1256 C1257 1.327 . S
C1257 H1251 0.950 . S
C1257 C1256 1.327 . S
C1257 C1261 1.429 1_556 S
C1258 C1241 1.574 1_455 S
C1258 H1252 0.949 . S
C1258 C1262 1.368 . S
C1259 C1240 1.429 . S
C1259 C1253 1.429 . S
C1259 C1260 1.523 . S
C1260 C1241 1.368 . S
C1260 C1254 1.368 . S
C1260 C1259 1.523 . S
C1261 C1245 1.429 . S
C1261 C1257 1.429 1_554 S
C1261 C1262 1.523 . S
C1262 C1246 1.368 1_455 S
C1262 C1258 1.368 . S
C1262 C1261 1.523 . S
H1263 C1238 0.950 . S
H1264 C1240 0.950 . S
H1265 C1241 0.949 . S
H1266 C1243 0.950 . S
H1267 C1245 0.950 . S
C1268 C1269 1.349 . S
C1268 C1270 1.327 . S
C1268 H1293 0.950 . S
C1269 C1268 1.349 . S
C1269 C1285 1.349 . S
C1270 C1268 1.327 . S
C1270 C1289 1.429 . S
C1270 H1294 0.950 . S
C1271 C1288 1.574 . S
C1271 C1290 1.368 . S
C1271 H1295 0.949 . S
H1272 C1276 0.949 . S
C1273 C1274 1.349 . S
C1273 C1275 1.327 . S
C1273 H1296 0.950 . S
C1274 C1273 1.349 . S
C1274 C1286 1.349 . S
C1275 C1273 1.327 . S
C1275 C1291 1.429 . S
C1275 H1297 0.950 . S
C1276 H1272 0.949 . S
C1276 C1284 1.574 . S
C1276 C1292 1.368 . S
H1277 C1285 0.950 . S
H1278 C1283 0.950 . S
H1279 C1284 0.949 . S
H1280 C1286 0.950 . S
H1281 C1287 0.950 . S
H1282 C1288 0.949 . S
C1283 H1278 0.950 . S
C1283 C1285 1.327 . S
C1283 C1289 1.429 . S
C1284 C1276 1.574 . S
C1284 H1279 0.949 . S
C1284 C1290 1.368 . S
C1285 C1269 1.349 . S
C1285 H1277 0.950 . S
C1285 C1283 1.327 . S
C1286 C1274 1.349 . S
C1286 H1280 0.950 . S
C1286 C1287 1.327 . S
C1287 H1281 0.950 . S
C1287 C1286 1.327 . S
C1287 C1291 1.429 . S
C1288 C1271 1.574 . S
C1288 H1282 0.949 . S
C1288 C1292 1.368 . S
C1289 C1270 1.429 . S
C1289 C1283 1.429 . S
C1289 C1290 1.523 . S
C1290 C1271 1.368 . S
C1290 C1284 1.368 . S
C1290 C1289 1.523 . S
C1291 C1275 1.429 . S
C1291 C1287 1.429 . S
C1291 C1292 1.523 . S
C1292 C1276 1.368 . S
C1292 C1288 1.368 . S
C1292 C1291 1.523 . S
H1293 C1268 0.950 . S
H1294 C1270 0.950 . S
H1295 C1271 0.949 . S
H1296 C1273 0.950 . S
H1297 C1275 0.950 . S
C1298 C1299 1.349 . S
C1298 C1300 1.327 . S
C1298 H1323 0.950 . S
C1299 C1298 1.349 . S
C1299 C1315 1.349 . S
C1300 C1298 1.327 . S
C1300 C1319 1.429 . S
C1300 H1324 0.950 1_565 S
C1301 C1318 1.595 . S
C1301 C1320 1.350 1_655 S
C1301 H1325 0.947 1_655 S
H1302 C1306 0.949 . S
C1303 C1304 1.349 . S
C1303 C1305 1.327 . S
C1303 H1326 0.950 . S
C1304 C1303 1.349 . S
C1304 C1316 1.349 . S
C1305 C1303 1.327 . S
C1305 C1321 1.429 . S
C1305 H1327 0.950 1_545 S
C1306 H1302 0.949 . S
C1306 C1314 1.574 1_655 S
C1306 C1322 1.368 . S
H1307 C1315 0.950 . S
H1308 C1313 0.950 . S
H1309 C1314 0.949 . S
H1310 C1316 0.950 . S
H1311 C1317 0.950 . S
H1312 C1318 0.949 . S
C1313 H1308 0.950 . S
C1313 C1315 1.327 . S
C1313 C1319 1.429 . S
C1314 C1306 1.574 1_455 S
C1314 H1309 0.949 . S
C1314 C1320 1.368 1_545 S
C1315 C1299 1.349 . S
C1315 H1307 0.950 . S
C1315 C1313 1.327 . S
C1316 C1304 1.349 . S
C1316 H1310 0.950 . S
C1316 C1317 1.327 . S
C1317 H1311 0.950 . S
C1317 C1316 1.327 . S
C1317 C1321 1.429 . S
C1318 C1301 1.595 . S
C1318 H1312 0.949 . S
C1318 C1322 1.368 1_565 S
C1319 C1300 1.429 . S
C1319 C1313 1.429 . S
C1319 C1320 1.523 . S
C1320 C1301 1.350 1_455 S
C1320 C1314 1.368 1_565 S
C1320 C1319 1.523 . S
C1321 C1305 1.429 . S
C1321 C1317 1.429 . S
C1321 C1322 1.523 . S
C1322 C1306 1.368 . S
C1322 C1318 1.368 1_545 S
C1322 C1321 1.523 . S
H1323 C1298 0.950 . S
H1324 C1300 0.950 1_545 S
H1325 C1301 0.947 1_455 S
H1326 C1303 0.950 . S
H1327 C1305 0.950 1_565 S
C1328 C1329 1.349 . S
C1328 C1330 1.327 . S
C1328 H1353 0.950 . S
C1329 C1328 1.349 . S
C1329 C1345 1.349 . S
C1330 C1328 1.327 . S
C1330 C1349 1.429 . S
C1330 H1354 0.950 . S
C1331 C1348 1.574 . S
C1331 C1350 1.368 . S
C1331 H1355 0.949 . S
H1332 C1336 0.949 . S
C1333 C1334 1.349 . S
C1333 C1335 1.327 . S
C1333 H1356 0.950 . S
C1334 C1333 1.349 . S
C1334 C1346 1.349 . S
C1335 C1333 1.327 . S
C1335 C1351 1.429 . S
C1335 H1357 0.950 . S
C1336 H1332 0.949 . S
C1336 C1344 1.574 . S
C1336 C1352 1.368 . S
H1337 C1345 0.950 . S
H1338 C1343 0.950 . S
H1339 C1344 0.949 . S
H1340 C1346 0.950 . S
H1341 C1347 0.950 . S
H1342 C1348 0.949 . S
C1343 H1338 0.950 . S
C1343 C1345 1.327 . S
C1343 C1349 1.429 . S
C1344 C1336 1.574 . S
C1344 H1339 0.949 . S
C1344 C1350 1.368 . S
C1345 C1329 1.349 . S
C1345 H1337 0.950 . S
C1345 C1343 1.327 . S
C1346 C1334 1.349 . S
C1346 H1340 0.950 . S
C1346 C1347 1.327 . S
C1347 H1341 0.950 . S
C1347 C1346 1.327 . S
C1347 C1351 1.429 . S
C1348 C1331 1.574 . S
C1348 H1342 0.949 . S
C1348 C1352 1.368 . S
C1349 C1330 1.429 . S
C1349 C1343 1.429 . S
C1349 C1350 1.523 . S
C1350 C1331 1.368 . S
C1350 C1344 1.368 . S
C1350 C1349 1.523 . S
C1351 C1335 1.429 . S
C1351 C1347 1.429 . S
C1351 C1352 1.523 . S
C1352 C1336 1.368 . S
C1352 C1348 1.368 . S
C1352 C1351 1.523 . S
H1353 C1328 0.950 . S
H1354 C1330 0.950 . S
H1355 C1331 0.949 . S
H1356 C1333 0.950 . S
H1357 C1335 0.950 . S
C1358 C1359 1.349 . S
C1358 C1360 1.327 . S
C1358 H1383 0.950 . S
C1359 C1358 1.349 . S
C1359 C1375 1.349 . S
C1360 C1358 1.327 . S
C1360 C1379 1.429 . S
C1360 H1384 0.950 . S
C1361 C1378 1.574 1_455 S
C1361 C1380 1.368 . S
C1361 H1385 0.949 . S
H1362 C1366 0.949 . S
C1363 C1364 1.349 . S
C1363 C1365 1.327 . S
C1363 H1386 0.950 . S
C1364 C1363 1.349 . S
C1364 C1376 1.349 . S
C1365 C1363 1.327 . S
C1365 C1381 1.429 . S
C1365 H1387 0.950 . S
C1366 H1362 0.949 . S
C1366 C1374 1.574 1_655 S
C1366 C1382 1.368 . S
H1367 C1375 0.950 . S
H1368 C1373 0.950 . S
H1369 C1374 0.949 . S
H1370 C1376 0.950 . S
H1371 C1377 0.950 . S
H1372 C1378 0.949 . S
C1373 H1368 0.950 . S
C1373 C1375 1.327 . S
C1373 C1379 1.429 . S
C1374 C1366 1.574 1_455 S
C1374 H1369 0.949 . S
C1374 C1380 1.368 . S
C1375 C1359 1.349 . S
C1375 H1367 0.950 . S
C1375 C1373 1.327 . S
C1376 C1364 1.349 . S
C1376 H1370 0.950 . S
C1376 C1377 1.327 . S
C1377 H1371 0.950 . S
C1377 C1376 1.327 . S
C1377 C1381 1.429 . S
C1378 C1361 1.574 1_655 S
C1378 H1372 0.949 . S
C1378 C1382 1.368 . S
C1379 C1360 1.429 . S
C1379 C1373 1.429 . S
C1379 C1380 1.523 . S
C1380 C1361 1.368 . S
C1380 C1374 1.368 . S
C1380 C1379 1.523 . S
C1381 C1365 1.429 . S
C1381 C1377 1.429 . S
C1381 C1382 1.523 . S
C1382 C1366 1.368 . S
C1382 C1378 1.368 . S
C1382 C1381 1.523 . S
H1383 C1358 0.950 . S
H1384 C1360 0.950 . S
H1385 C1361 0.949 . S
H1386 C1363 0.950 . S
H1387 C1365 0.950 . S
C1388 C1389 1.349 . S
C1388 C1390 1.327 . S
C1388 H1413 0.950 . S
C1389 C1388 1.349 . S
C1389 C1405 1.349 . S
C1390 C1388 1.327 . S
C1390 C1409 1.429 . S
C1390 H1414 0.950 . S
C1391 C1408 1.574 . S
C1391 C1410 1.368 . S
C1391 H1415 0.949 . S
H1392 C1396 0.949 . S
C1393 C1394 1.349 . S
C1393 C1395 1.327 . S
C1393 H1416 0.950 . S
C1394 C1393 1.349 . S
C1394 C1406 1.349 . S
C1395 C1393 1.327 . S
C1395 C1411 1.429 . S
C1395 H1417 0.950 . S
C1396 H1392 0.949 . S
C1396 C1404 1.574 . S
C1396 C1412 1.368 . S
H1397 C1405 0.950 . S
H1398 C1403 0.950 . S
H1399 C1404 0.949 . S
H1400 C1406 0.950 . S
H1401 C1407 0.950 . S
H1402 C1408 0.949 . S
C1403 H1398 0.950 . S
C1403 C1405 1.327 . S
C1403 C1409 1.429 . S
C1404 C1396 1.574 . S
C1404 H1399 0.949 . S
C1404 C1410 1.368 . S
C1405 C1389 1.349 . S
C1405 H1397 0.950 . S
C1405 C1403 1.327 . S
C1406 C1394 1.349 . S
C1406 H1400 0.950 . S
C1406 C1407 1.327 . S
C1407 H1401 0.950 . S
C1407 C1406 1.327 . S
C1407 C1411 1.429 . S
C1408 C1391 1.574 . S
C1408 H1402 0.949 . S
C1408 C1412 1.368 . S
C1409 C1390 1.429 . S
C1409 C1403 1.429 . S
C1409 C1410 1.523 . S
C1410 C1391 1.368 . S
C1410 C1404 1.368 . S
C1410 C1409 1.523 . S
C1411 C1395 1.429 . S
C1411 C1407 1.429 . S
C1411 C1412 1.523 . S
C1412 C1396 1.368 . S
C1412 C1408 1.368 . S
C1412 C1411 1.523 . S
H1413 C1388 0.950 . S
H1414 C1390 0.950 . S
H1415 C1391 0.949 . S
H1416 C1393 0.950 . S
H1417 C1395 0.950 . S
C1418 C1419 1.349 . S
C1418 C1420 1.327 . S
C1418 H1443 0.950 . S
C1419 C1418 1.349 . S
C1419 C1435 1.349 . S
C1420 C1418 1.327 . S
C1420 C1439 1.429 . S
C1420 H1444 0.950 . S
C1421 C1438 1.539 1_655 S
C1421 C1440 1.368 . S
C1421 H1445 0.949 . S
H1422 C1426 0.949 . S
C1423 C1424 1.349 . S
C1423 C1425 1.327 . S
C1423 H1446 0.950 . S
C1424 C1423 1.349 . S
C1424 C1436 1.349 . S
C1425 C1423 1.327 . S
C1425 C1441 1.429 . S
C1425 H1447 0.950 . S
C1426 H1422 0.949 . S
C1426 C1434 1.574 . S
C1426 C1442 1.368 . S
H1427 C1435 0.950 . S
H1428 C1433 0.950 . S
H1429 C1434 0.949 . S
H1430 C1436 0.950 . S
H1431 C1437 0.950 . S
H1432 C1438 0.948 . S
C1433 H1428 0.950 . S
C1433 C1435 1.327 . S
C1433 C1439 1.429 . S
C1434 C1426 1.574 . S
C1434 H1429 0.949 . S
C1434 C1440 1.368 1_455 S
C1435 C1419 1.349 . S
C1435 H1427 0.950 . S
C1435 C1433 1.327 . S
C1436 C1424 1.349 . S
C1436 H1430 0.950 . S
C1436 C1437 1.327 . S
C1437 H1431 0.950 . S
C1437 C1436 1.327 . S
C1437 C1441 1.429 . S
C1438 C1421 1.539 1_455 S
C1438 H1432 0.948 . S
C1438 C1442 1.406 . S
C1439 C1420 1.429 . S
C1439 C1433 1.429 . S
C1439 C1440 1.523 . S
C1440 C1421 1.368 . S
C1440 C1434 1.368 1_655 S
C1440 C1439 1.523 . S
C1441 C1425 1.429 . S
C1441 C1437 1.429 . S
C1441 C1442 1.523 . S
C1442 C1426 1.368 . S
C1442 C1438 1.406 . S
C1442 C1441 1.523 . S
H1443 C1418 0.950 . S
H1444 C1420 0.950 . S
H1445 C1421 0.949 . S
H1446 C1423 0.950 . S
H1447 C1425 0.950 . S
C1448 C1449 1.349 . S
C1448 C1450 1.327 . S
C1448 H1473 0.950 . S
C1449 C1448 1.349 . S
C1449 C1465 1.349 . S
C1450 C1448 1.327 . S
C1450 C1469 1.429 . S
C1450 H1474 0.950 . S
C1451 C1468 1.574 . S
C1451 C1470 1.368 . S
C1451 H1475 0.949 . S
H1452 C1456 0.949 . S
C1453 C1454 1.349 . S
C1453 C1455 1.327 . S
C1453 H1476 0.950 . S
C1454 C1453 1.349 . S
C1454 C1466 1.349 . S
C1455 C1453 1.327 . S
C1455 C1471 1.429 . S
C1455 H1477 0.950 . S
C1456 H1452 0.949 . S
C1456 C1464 1.574 . S
C1456 C1472 1.368 . S
H1457 C1465 0.950 . S
H1458 C1463 0.950 . S
H1459 C1464 0.949 . S
H1460 C1466 0.950 . S
H1461 C1467 0.950 . S
H1462 C1468 0.949 . S
C1463 H1458 0.950 . S
C1463 C1465 1.327 . S
C1463 C1469 1.429 . S
C1464 C1456 1.574 . S
C1464 H1459 0.949 . S
C1464 C1470 1.368 . S
C1465 C1449 1.349 . S
C1465 H1457 0.950 . S
C1465 C1463 1.327 . S
C1466 C1454 1.349 . S
C1466 H1460 0.950 . S
C1466 C1467 1.327 . S
C1467 H1461 0.950 . S
C1467 C1466 1.327 . S
C1467 C1471 1.429 . S
C1468 C1451 1.574 . S
C1468 H1462 0.949 . S
C1468 C1472 1.368 . S
C1469 C1450 1.429 . S
C1469 C1463 1.429 . S
C1469 C1470 1.523 . S
C1470 C1451 1.368 . S
C1470 C1464 1.368 . S
C1470 C1469 1.523 . S
C1471 C1455 1.429 . S
C1471 C1467 1.429 . S
C1471 C1472 1.523 . S
C1472 C1456 1.368 . S
C1472 C1468 1.368 . S
C1472 C1471 1.523 . S
H1473 C1448 0.950 . S
H1474 C1450 0.950 . S
H1475 C1451 0.949 . S
H1476 C1453 0.950 . S
H1477 C1455 0.950 . S
C1478 C1479 1.349 . S
C1478 C1480 1.327 . S
C1478 H1503 0.950 . S
C1479 C1478 1.349 . S
C1479 C1495 1.349 . S
C1480 C1478 1.327 . S
C1480 C1499 1.429 . S
C1480 H1504 0.950 . S
C1481 C1498 1.574 1_455 S
C1481 C1500 1.368 . S
C1481 H1505 0.949 . S
H1482 C1486 0.949 . S
C1483 C1484 1.349 . S
C1483 C1485 1.327 . S
C1483 H1506 0.950 . S
C1484 C1483 1.349 . S
C1484 C1496 1.349 . S
C1485 C1483 1.327 . S
C1485 C1501 1.429 . S
C1485 H1507 0.950 . S
C1486 H1482 0.949 . S
C1486 C1494 1.574 1_655 S
C1486 C1502 1.368 . S
H1487 C1495 0.950 . S
H1488 C1493 0.950 . S
H1489 C1494 0.949 . S
H1490 C1496 0.950 . S
H1491 C1497 0.950 . S
H1492 C1498 0.949 . S
C1493 H1488 0.950 . S
C1493 C1495 1.327 . S
C1493 C1499 1.429 . S
C1494 C1486 1.574 1_455 S
C1494 H1489 0.949 . S
C1494 C1500 1.368 . S
C1495 C1479 1.349 . S
C1495 H1487 0.950 . S
C1495 C1493 1.327 . S
C1496 C1484 1.349 . S
C1496 H1490 0.950 . S
C1496 C1497 1.327 . S
C1497 H1491 0.950 . S
C1497 C1496 1.327 . S
C1497 C1501 1.429 . S
C1498 C1481 1.574 1_655 S
C1498 H1492 0.949 . S
C1498 C1502 1.368 . S
C1499 C1480 1.429 . S
C1499 C1493 1.429 . S
C1499 C1500 1.523 . S
C1500 C1481 1.368 . S
C1500 C1494 1.368 . S
C1500 C1499 1.523 . S
C1501 C1485 1.429 . S
C1501 C1497 1.429 . S
C1501 C1502 1.523 . S
C1502 C1486 1.368 . S
C1502 C1498 1.368 . S
C1502 C1501 1.523 . S
H1503 C1478 0.950 . S
H1504 C1480 0.950 . S
H1505 C1481 0.949 . S
H1506 C1483 0.950 . S
H1507 C1485 0.950 . S
C1508 C1509 1.349 . S
C1508 C1510 1.327 . S
C1508 H1533 0.950 . S
C1509 C1508 1.349 . S
C1509 C1525 1.349 . S
C1510 C1508 1.327 . S
C1510 C1529 1.429 . S
C1510 H1534 0.950 . S
C1511 C1528 1.574 . S
C1511 C1530 1.368 . S
C1511 H1535 0.949 . S
H1512 C1516 0.949 . S
C1513 C1514 1.349 . S
C1513 C1515 1.327 . S
C1513 H1536 0.950 . S
C1514 C1513 1.349 . S
C1514 C1526 1.349 . S
C1515 C1513 1.327 . S
C1515 C1531 1.429 . S
C1515 H1537 0.950 . S
C1516 H1512 0.949 . S
C1516 C1524 1.574 . S
C1516 C1532 1.368 . S
H1517 C1525 0.950 . S
H1518 C1523 0.950 . S
H1519 C1524 0.949 . S
H1520 C1526 0.950 . S
H1521 C1527 0.950 . S
H1522 C1528 0.949 . S
C1523 H1518 0.950 . S
C1523 C1525 1.327 . S
C1523 C1529 1.429 . S
C1524 C1516 1.574 . S
C1524 H1519 0.949 . S
C1524 C1530 1.368 . S
C1525 C1509 1.349 . S
C1525 H1517 0.950 . S
C1525 C1523 1.327 . S
C1526 C1514 1.349 . S
C1526 H1520 0.950 . S
C1526 C1527 1.327 . S
C1527 H1521 0.950 . S
C1527 C1526 1.327 . S
C1527 C1531 1.429 . S
C1528 C1511 1.574 . S
C1528 H1522 0.949 . S
C1528 C1532 1.368 . S
C1529 C1510 1.429 . S
C1529 C1523 1.429 . S
C1529 C1530 1.523 . S
C1530 C1511 1.368 . S
C1530 C1524 1.368 . S
C1530 C1529 1.523 . S
C1531 C1515 1.429 . S
C1531 C1527 1.429 . S
C1531 C1532 1.523 . S
C1532 C1516 1.368 . S
C1532 C1528 1.368 . S
C1532 C1531 1.523 . S
H1533 C1508 0.950 . S
H1534 C1510 0.950 . S
H1535 C1511 0.949 . S
H1536 C1513 0.950 . S
H1537 C1515 0.950 . S
C1538 C1539 1.349 . S
C1538 C1540 1.327 . S
C1538 H1563 0.950 . S
C1539 C1538 1.349 . S
C1539 C1555 1.349 . S
C1540 C1538 1.327 . S
C1540 C1559 1.429 . S
C1540 H1564 0.950 . S
C1541 C1558 1.554 1_655 S
C1541 C1560 1.389 . S
C1541 H1565 0.948 1_655 S
H1542 C1546 0.949 . S
C1543 C1544 1.349 . S
C1543 C1545 1.327 . S
C1543 H1566 0.950 . S
C1544 C1543 1.349 . S
C1544 C1556 1.349 . S
C1545 C1543 1.327 . S
C1545 C1561 1.429 . S
C1545 H1567 0.950 . S
C1546 H1542 0.949 . S
C1546 C1554 1.574 . S
C1546 C1562 1.368 1_655 S
H1547 C1555 0.950 . S
H1548 C1553 0.950 . S
H1549 C1554 0.949 . S
H1550 C1556 0.950 . S
H1551 C1557 0.950 . S
H1552 C1558 0.949 . S
C1553 H1548 0.950 . S
C1553 C1555 1.327 . S
C1553 C1559 1.429 . S
C1554 C1546 1.574 . S
C1554 H1549 0.949 . S
C1554 C1560 1.368 . S
C1555 C1539 1.349 . S
C1555 H1547 0.950 . S
C1555 C1553 1.327 . S
C1556 C1544 1.349 . S
C1556 H1550 0.950 . S
C1556 C1557 1.327 . S
C1557 H1551 0.950 . S
C1557 C1556 1.327 . S
C1557 C1561 1.429 . S
C1558 C1541 1.554 1_455 S
C1558 H1552 0.949 . S
C1558 C1562 1.368 . S
C1559 C1540 1.429 . S
C1559 C1553 1.429 . S
C1559 C1560 1.523 . S
C1560 C1541 1.389 . S
C1560 C1554 1.368 . S
C1560 C1559 1.523 . S
C1561 C1545 1.429 . S
C1561 C1557 1.429 . S
C1561 C1562 1.523 . S
C1562 C1546 1.368 1_455 S
C1562 C1558 1.368 . S
C1562 C1561 1.523 . S
H1563 C1538 0.950 . S
H1564 C1540 0.950 . S
H1565 C1541 0.948 1_455 S
H1566 C1543 0.950 . S
H1567 C1545 0.950 . S
C1568 C1569 1.349 . S
C1568 C1570 1.327 . S
C1568 H1593 0.950 . S
C1569 C1568 1.349 . S
C1569 C1585 1.349 . S
C1570 C1568 1.327 . S
C1570 C1589 1.429 . S
C1570 H1594 0.950 1_565 S
C1571 C1588 1.574 . S
C1571 C1590 1.368 . S
C1571 H1595 0.949 . S
H1572 C1576 0.949 . S
C1573 C1574 1.349 . S
C1573 C1575 1.327 . S
C1573 H1596 0.950 . S
C1574 C1573 1.349 . S
C1574 C1586 1.349 . S
C1575 C1573 1.327 . S
C1575 C1591 1.429 . S
C1575 H1597 0.950 1_545 S
C1576 H1572 0.949 . S
C1576 C1584 1.574 . S
C1576 C1592 1.368 . S
H1577 C1585 0.950 . S
H1578 C1583 0.950 . S
H1579 C1584 0.949 . S
H1580 C1586 0.950 . S
H1581 C1587 0.950 . S
H1582 C1588 0.949 . S
C1583 H1578 0.950 . S
C1583 C1585 1.327 . S
C1583 C1589 1.429 . S
C1584 C1576 1.574 . S
C1584 H1579 0.949 . S
C1584 C1590 1.368 1_545 S
C1585 C1569 1.349 . S
C1585 H1577 0.950 . S
C1585 C1583 1.327 . S
C1586 C1574 1.349 . S
C1586 H1580 0.950 . S
C1586 C1587 1.327 . S
C1587 H1581 0.950 . S
C1587 C1586 1.327 . S
C1587 C1591 1.429 . S
C1588 C1571 1.574 . S
C1588 H1582 0.949 . S
C1588 C1592 1.368 1_565 S
C1589 C1570 1.429 . S
C1589 C1583 1.429 . S
C1589 C1590 1.523 . S
C1590 C1571 1.368 . S
C1590 C1584 1.368 1_565 S
C1590 C1589 1.523 . S
C1591 C1575 1.429 . S
C1591 C1587 1.429 . S
C1591 C1592 1.523 . S
C1592 C1576 1.368 . S
C1592 C1588 1.368 1_545 S
C1592 C1591 1.523 . S
H1593 C1568 0.950 . S
H1594 C1570 0.950 1_545 S
H1595 C1571 0.949 . S
H1596 C1573 0.950 . S
H1597 C1575 0.950 1_565 S
C1598 C1599 1.349 . S
C1598 C1600 1.327 . S
C1598 H1623 0.950 . S
C1599 C1598 1.349 . S
C1599 C1615 1.349 . S
C1600 C1598 1.327 . S
C1600 C1619 1.429 . S
C1600 H1624 0.950 . S
C1601 C1618 1.574 . S
C1601 C1620 1.368 . S
C1601 H1625 0.949 . S
H1602 C1606 0.949 . S
C1603 C1604 1.349 . S
C1603 C1605 1.327 . S
C1603 H1626 0.950 . S
C1604 C1603 1.349 . S
C1604 C1616 1.349 . S
C1605 C1603 1.327 . S
C1605 C1621 1.429 . S
C1605 H1627 0.950 . S
C1606 H1602 0.949 . S
C1606 C1614 1.574 . S
C1606 C1622 1.368 . S
H1607 C1615 0.950 . S
H1608 C1613 0.950 . S
H1609 C1614 0.949 . S
H1610 C1616 0.950 . S
H1611 C1617 0.950 . S
H1612 C1618 0.949 . S
C1613 H1608 0.950 . S
C1613 C1615 1.327 . S
C1613 C1619 1.429 . S
C1614 C1606 1.574 . S
C1614 H1609 0.949 . S
C1614 C1620 1.368 . S
C1615 C1599 1.349 . S
C1615 H1607 0.950 . S
C1615 C1613 1.327 . S
C1616 C1604 1.349 . S
C1616 H1610 0.950 . S
C1616 C1617 1.327 . S
C1617 H1611 0.950 . S
C1617 C1616 1.327 . S
C1617 C1621 1.429 . S
C1618 C1601 1.574 . S
C1618 H1612 0.949 . S
C1618 C1622 1.368 . S
C1619 C1600 1.429 . S
C1619 C1613 1.429 . S
C1619 C1620 1.523 . S
C1620 C1601 1.368 . S
C1620 C1614 1.368 . S
C1620 C1619 1.523 . S
C1621 C1605 1.429 . S
C1621 C1617 1.429 . S
C1621 C1622 1.523 . S
C1622 C1606 1.368 . S
C1622 C1618 1.368 . S
C1622 C1621 1.523 . S
H1623 C1598 0.950 . S
H1624 C1600 0.950 . S
H1625 C1601 0.949 . S
H1626 C1603 0.950 . S
H1627 C1605 0.950 . S
C1628 C1629 1.349 . S
C1628 C1630 1.327 . S
C1628 H1653 0.950 . S
C1629 C1628 1.349 . S
C1629 C1645 1.349 . S
C1630 C1628 1.327 . S
C1630 C1649 1.429 . S
C1630 H1654 0.950 . S
C1631 C1648 1.574 . S
C1631 C1650 1.368 . S
C1631 H1655 0.949 . S
H1632 C1636 0.949 . S
C1633 C1634 1.349 . S
C1633 C1635 1.327 . S
C1633 H1656 0.950 . S
C1634 C1633 1.349 . S
C1634 C1646 1.349 . S
C1635 C1633 1.327 . S
C1635 C1651 1.429 . S
C1635 H1657 0.950 . S
C1636 H1632 0.949 . S
C1636 C1644 1.574 . S
C1636 C1652 1.368 . S
H1637 C1645 0.950 . S
H1638 C1643 0.950 . S
H1639 C1644 0.949 . S
H1640 C1646 0.950 . S
H1641 C1647 0.950 . S
H1642 C1648 0.949 . S
C1643 H1638 0.950 . S
C1643 C1645 1.327 . S
C1643 C1649 1.429 . S
C1644 C1636 1.574 . S
C1644 H1639 0.949 . S
C1644 C1650 1.368 . S
C1645 C1629 1.349 . S
C1645 H1637 0.950 . S
C1645 C1643 1.327 . S
C1646 C1634 1.349 . S
C1646 H1640 0.950 . S
C1646 C1647 1.327 . S
C1647 H1641 0.950 . S
C1647 C1646 1.327 . S
C1647 C1651 1.429 . S
C1648 C1631 1.574 . S
C1648 H1642 0.949 . S
C1648 C1652 1.368 . S
C1649 C1630 1.429 . S
C1649 C1643 1.429 . S
C1649 C1650 1.523 . S
C1650 C1631 1.368 . S
C1650 C1644 1.368 . S
C1650 C1649 1.523 . S
C1651 C1635 1.429 . S
C1651 C1647 1.429 . S
C1651 C1652 1.523 . S
C1652 C1636 1.368 . S
C1652 C1648 1.368 . S
C1652 C1651 1.523 . S
H1653 C1628 0.950 . S
H1654 C1630 0.950 . S
H1655 C1631 0.949 . S
H1656 C1633 0.950 . S
H1657 C1635 0.950 . S
C1658 C1659 1.349 . S
C1658 C1660 1.327 . S
C1658 H1683 0.950 . S
C1659 C1658 1.349 . S
C1659 C1675 1.349 . S
C1660 C1658 1.327 . S
C1660 C1679 1.429 . S
C1660 H1684 0.950 1_565 S
C1661 C1678 1.574 . S
C1661 C1680 1.368 . S
C1661 H1685 0.949 . S
H1662 C1666 0.949 . S
C1663 C1664 1.349 . S
C1663 C1665 1.327 . S
C1663 H1686 0.950 . S
C1664 C1663 1.349 . S
C1664 C1676 1.349 . S
C1665 C1663 1.327 . S
C1665 C1681 1.429 . S
C1665 H1687 0.950 1_545 S
C1666 H1662 0.949 . S
C1666 C1674 1.574 . S
C1666 C1682 1.368 . S
H1667 C1675 0.950 . S
H1668 C1673 0.950 . S
H1669 C1674 0.949 . S
H1670 C1676 0.950 . S
H1671 C1677 0.950 . S
H1672 C1678 0.949 . S
C1673 H1668 0.950 . S
C1673 C1675 1.327 . S
C1673 C1679 1.429 . S
C1674 C1666 1.574 . S
C1674 H1669 0.949 . S
C1674 C1680 1.368 1_545 S
C1675 C1659 1.349 . S
C1675 H1667 0.950 . S
C1675 C1673 1.327 . S
C1676 C1664 1.349 . S
C1676 H1670 0.950 . S
C1676 C1677 1.327 . S
C1677 H1671 0.950 . S
C1677 C1676 1.327 . S
C1677 C1681 1.429 . S
C1678 C1661 1.574 . S
C1678 H1672 0.949 . S
C1678 C1682 1.368 1_565 S
C1679 C1660 1.429 . S
C1679 C1673 1.429 . S
C1679 C1680 1.523 . S
C1680 C1661 1.368 . S
C1680 C1674 1.368 1_565 S
C1680 C1679 1.523 . S
C1681 C1665 1.429 . S
C1681 C1677 1.429 . S
C1681 C1682 1.523 . S
C1682 C1666 1.368 . S
C1682 C1678 1.368 1_545 S
C1682 C1681 1.523 . S
H1683 C1658 0.950 . S
H1684 C1660 0.950 1_545 S
H1685 C1661 0.949 . S
H1686 C1663 0.950 . S
H1687 C1665 0.950 1_565 S
C1688 C1689 1.349 . S
C1688 C1690 1.327 . S
C1688 H1713 0.950 . S
C1689 C1688 1.349 . S
C1689 C1705 1.349 . S
C1690 C1688 1.327 . S
C1690 C1709 1.429 . S
C1690 H1714 0.950 . S
C1691 C1708 1.574 . S
C1691 C1710 1.368 1_565 S
C1691 H1715 0.949 . S
H1692 C1696 0.949 . S
C1693 C1694 1.349 . S
C1693 C1695 1.327 . S
C1693 H1716 0.950 . S
C1694 C1693 1.349 . S
C1694 C1706 1.349 . S
C1695 C1693 1.327 . S
C1695 C1711 1.429 . S
C1695 H1717 0.950 . S
C1696 H1692 0.949 . S
C1696 C1704 1.574 1_565 S
C1696 C1712 1.368 . S
H1697 C1705 0.950 . S
H1698 C1703 0.950 . S
H1699 C1704 0.949 . S
H1700 C1706 0.950 . S
H1701 C1707 0.950 . S
H1702 C1708 0.949 . S
C1703 H1698 0.950 . S
C1703 C1705 1.327 . S
C1703 C1709 1.429 . S
C1704 C1696 1.574 1_545 S
C1704 H1699 0.949 . S
C1704 C1710 1.368 . S
C1705 C1689 1.349 . S
C1705 H1697 0.950 . S
C1705 C1703 1.327 . S
C1706 C1694 1.349 . S
C1706 H1700 0.950 . S
C1706 C1707 1.327 . S
C1707 H1701 0.950 . S
C1707 C1706 1.327 . S
C1707 C1711 1.429 . S
C1708 C1691 1.574 . S
C1708 H1702 0.949 . S
C1708 C1712 1.368 . S
C1709 C1690 1.429 . S
C1709 C1703 1.429 . S
C1709 C1710 1.523 . S
C1710 C1691 1.368 1_545 S
C1710 C1704 1.368 . S
C1710 C1709 1.523 . S
C1711 C1695 1.429 . S
C1711 C1707 1.429 . S
C1711 C1712 1.523 . S
C1712 C1696 1.368 . S
C1712 C1708 1.368 . S
C1712 C1711 1.523 . S
H1713 C1688 0.950 . S
H1714 C1690 0.950 . S
H1715 C1691 0.949 . S
H1716 C1693 0.950 . S
H1717 C1695 0.950 . S
C1718 C1719 1.349 . S
C1718 C1720 1.327 . S
C1718 H1743 0.950 . S
C1719 C1718 1.349 . S
C1719 C1735 1.349 . S
C1720 C1718 1.327 . S
C1720 C1739 1.429 . S
C1720 H1744 0.950 . S
C1721 C1738 1.574 . S
C1721 C1740 1.368 . S
C1721 H1745 0.949 . S
H1722 C1726 0.949 . S
C1723 C1724 1.349 . S
C1723 C1725 1.327 . S
C1723 H1746 0.950 . S
C1724 C1723 1.349 . S
C1724 C1736 1.349 . S
C1725 C1723 1.327 . S
C1725 C1741 1.429 . S
C1725 H1747 0.950 . S
C1726 H1722 0.949 . S
C1726 C1734 1.574 . S
C1726 C1742 1.368 . S
H1727 C1735 0.950 . S
H1728 C1733 0.950 . S
H1729 C1734 0.949 . S
H1730 C1736 0.950 . S
H1731 C1737 0.950 . S
H1732 C1738 0.949 . S
C1733 H1728 0.950 . S
C1733 C1735 1.327 . S
C1733 C1739 1.429 . S
C1734 C1726 1.574 . S
C1734 H1729 0.949 . S
C1734 C1740 1.368 . S
C1735 C1719 1.349 . S
C1735 H1727 0.950 . S
C1735 C1733 1.327 . S
C1736 C1724 1.349 . S
C1736 H1730 0.950 . S
C1736 C1737 1.327 . S
C1737 H1731 0.950 . S
C1737 C1736 1.327 . S
C1737 C1741 1.429 . S
C1738 C1721 1.574 . S
C1738 H1732 0.949 . S
C1738 C1742 1.368 . S
C1739 C1720 1.429 . S
C1739 C1733 1.429 . S
C1739 C1740 1.523 . S
C1740 C1721 1.368 . S
C1740 C1734 1.368 . S
C1740 C1739 1.523 . S
C1741 C1725 1.429 . S
C1741 C1737 1.429 . S
C1741 C1742 1.523 . S
C1742 C1726 1.368 . S
C1742 C1738 1.368 . S
C1742 C1741 1.523 . S
H1743 C1718 0.950 . S
H1744 C1720 0.950 . S
H1745 C1721 0.949 . S
H1746 C1723 0.950 . S
H1747 C1725 0.950 . S
C1748 C1749 1.349 . S
C1748 C1750 1.327 . S
C1748 H1773 0.950 . S
C1749 C1748 1.349 . S
C1749 C1765 1.349 . S
C1750 C1748 1.327 . S
C1750 C1769 1.429 . S
C1750 H1774 0.950 . S
C1751 C1768 1.574 . S
C1751 C1770 1.368 . S
C1751 H1775 0.949 . S
H1752 C1756 0.949 . S
C1753 C1754 1.349 . S
C1753 C1755 1.327 . S
C1753 H1776 0.950 . S
C1754 C1753 1.349 . S
C1754 C1766 1.349 . S
C1755 C1753 1.327 . S
C1755 C1771 1.429 . S
C1755 H1777 0.950 . S
C1756 H1752 0.949 . S
C1756 C1764 1.574 . S
C1756 C1772 1.368 . S
H1757 C1765 0.950 . S
H1758 C1763 0.950 . S
H1759 C1764 0.949 . S
H1760 C1766 0.950 . S
H1761 C1767 0.950 . S
H1762 C1768 0.949 . S
C1763 H1758 0.950 . S
C1763 C1765 1.327 . S
C1763 C1769 1.429 . S
C1764 C1756 1.574 . S
C1764 H1759 0.949 . S
C1764 C1770 1.368 . S
C1765 C1749 1.349 . S
C1765 H1757 0.950 . S
C1765 C1763 1.327 . S
C1766 C1754 1.349 . S
C1766 H1760 0.950 . S
C1766 C1767 1.327 . S
C1767 H1761 0.950 . S
C1767 C1766 1.327 . S
C1767 C1771 1.429 . S
C1768 C1751 1.574 . S
C1768 H1762 0.949 . S
C1768 C1772 1.368 . S
C1769 C1750 1.429 . S
C1769 C1763 1.429 . S
C1769 C1770 1.523 . S
C1770 C1751 1.368 . S
C1770 C1764 1.368 . S
C1770 C1769 1.523 . S
C1771 C1755 1.429 . S
C1771 C1767 1.429 . S
C1771 C1772 1.523 . S
C1772 C1756 1.368 . S
C1772 C1768 1.368 . S
C1772 C1771 1.523 . S
H1773 C1748 0.950 . S
H1774 C1750 0.950 . S
H1775 C1751 0.949 . S
H1776 C1753 0.950 . S
H1777 C1755 0.950 . S
C1778 C1779 1.349 . S
C1778 C1780 1.327 . S
C1778 H1803 0.950 . S
C1779 C1778 1.349 . S
C1779 C1795 1.349 . S
C1780 C1778 1.327 . S
C1780 C1799 1.429 . S
C1780 H1804 0.950 . S
C1781 C1798 1.574 . S
C1781 C1800 1.368 1_565 S
C1781 H1805 0.954 . S
H1782 C1786 0.949 . S
C1783 C1784 1.349 . S
C1783 C1785 1.327 . S
C1783 H1806 0.950 . S
C1784 C1783 1.349 . S
C1784 C1796 1.349 . S
C1785 C1783 1.327 . S
C1785 C1801 1.429 . S
C1785 H1807 0.950 . S
C1786 H1782 0.949 . S
C1786 C1794 1.574 1_565 S
C1786 C1802 1.368 . S
H1787 C1795 0.950 . S
H1788 C1793 0.950 . S
H1789 C1794 0.949 . S
H1790 C1796 0.950 . S
H1791 C1797 0.950 . S
H1792 C1798 0.949 . S
C1793 H1788 0.950 . S
C1793 C1795 1.327 . S
C1793 C1799 1.429 . S
C1794 C1786 1.574 1_545 S
C1794 H1789 0.949 . S
C1794 C1800 1.368 . S
C1795 C1779 1.349 . S
C1795 H1787 0.950 . S
C1795 C1793 1.327 . S
C1796 C1784 1.349 . S
C1796 H1790 0.950 . S
C1796 C1797 1.327 . S
C1797 H1791 0.950 . S
C1797 C1796 1.327 . S
C1797 C1801 1.429 . S
C1798 C1781 1.574 . S
C1798 H1792 0.949 . S
C1798 C1802 1.368 . S
C1799 C1780 1.429 . S
C1799 C1793 1.429 . S
C1799 C1800 1.523 . S
C1800 C1781 1.368 1_545 S
C1800 C1794 1.368 . S
C1800 C1799 1.523 . S
C1801 C1785 1.429 . S
C1801 C1797 1.429 . S
C1801 C1802 1.523 . S
C1802 C1786 1.368 . S
C1802 C1798 1.368 . S
C1802 C1801 1.523 . S
H1803 C1778 0.950 . S
H1804 C1780 0.950 . S
H1805 C1781 0.954 . S
H1806 C1783 0.950 . S
H1807 C1785 0.950 . S
C1808 C1809 1.349 . S
C1808 C1810 1.327 . S
C1808 H1833 0.950 . S
C1809 C1808 1.349 . S
C1809 C1825 1.349 . S
C1810 C1808 1.327 . S
C1810 C1829 1.429 . S
C1810 H1834 0.950 . S
C1811 C1828 1.574 . S
C1811 C1830 1.368 . S
C1811 H1835 0.949 . S
H1812 C1816 0.949 . S
C1813 C1814 1.349 . S
C1813 C1815 1.327 . S
C1813 H1836 0.950 . S
C1814 C1813 1.349 . S
C1814 C1826 1.349 1_554 S
C1815 C1813 1.327 . S
C1815 C1831 1.429 1_554 S
C1815 H1837 0.950 . S
C1816 H1812 0.949 . S
C1816 C1824 1.574 . S
C1816 C1832 1.368 . S
H1817 C1825 0.950 . S
H1818 C1823 0.950 . S
H1819 C1824 0.949 . S
H1820 C1826 0.950 . S
H1821 C1827 0.950 . S
H1822 C1828 0.949 1_554 S
C1823 H1818 0.950 . S
C1823 C1825 1.327 . S
C1823 C1829 1.429 . S
C1824 C1816 1.574 . S
C1824 H1819 0.949 . S
C1824 C1830 1.368 . S
C1825 C1809 1.349 . S
C1825 H1817 0.950 . S
C1825 C1823 1.327 . S
C1826 C1814 1.349 1_556 S
C1826 H1820 0.950 . S
C1826 C1827 1.327 . S
C1827 H1821 0.950 . S
C1827 C1826 1.327 . S
C1827 C1831 1.429 . S
C1828 C1811 1.574 . S
C1828 H1822 0.949 1_556 S
C1828 C1832 1.368 . S
C1829 C1810 1.429 . S
C1829 C1823 1.429 . S
C1829 C1830 1.523 . S
C1830 C1811 1.368 . S
C1830 C1824 1.368 . S
C1830 C1829 1.523 . S
C1831 C1815 1.429 1_556 S
C1831 C1827 1.429 . S
C1831 C1832 1.523 . S
C1832 C1816 1.368 . S
C1832 C1828 1.368 . S
C1832 C1831 1.523 . S
H1833 C1808 0.950 . S
H1834 C1810 0.950 . S
H1835 C1811 0.949 . S
H1836 C1813 0.950 . S
H1837 C1815 0.950 . S
C1838 C1839 1.349 . S
C1838 C1840 1.327 . S
C1838 H1863 0.950 . S
C1839 C1838 1.349 . S
C1839 C1855 1.349 1_554 S
C1840 C1838 1.327 . S
C1840 C1859 1.429 1_554 S
C1840 H1864 0.950 . S
C1841 C1858 1.574 . S
C1841 C1860 1.368 . S
C1841 H1865 0.949 . S
H1842 C1846 0.949 . S
C1843 C1844 1.349 . S
C1843 C1845 1.327 . S
C1843 H1866 0.950 . S
C1844 C1843 1.349 . S
C1844 C1856 1.349 . S
C1845 C1843 1.327 . S
C1845 C1861 1.429 . S
C1845 H1867 0.950 . S
C1846 H1842 0.949 . S
C1846 C1854 1.574 . S
C1846 C1862 1.368 . S
H1847 C1855 0.950 . S
H1848 C1853 0.950 . S
H1849 C1854 0.949 1_554 S
H1850 C1856 0.950 . S
H1851 C1857 0.950 . S
H1852 C1858 0.949 . S
C1853 H1848 0.950 . S
C1853 C1855 1.327 . S
C1853 C1859 1.429 . S
C1854 C1846 1.574 . S
C1854 H1849 0.949 1_556 S
C1854 C1860 1.368 . S
C1855 C1839 1.349 1_556 S
C1855 H1847 0.950 . S
C1855 C1853 1.327 . S
C1856 C1844 1.349 . S
C1856 H1850 0.950 . S
C1856 C1857 1.327 . S
C1857 H1851 0.950 . S
C1857 C1856 1.327 . S
C1857 C1861 1.429 . S
C1858 C1841 1.574 . S
C1858 H1852 0.949 . S
C1858 C1862 1.368 . S
C1859 C1840 1.429 1_556 S
C1859 C1853 1.429 . S
C1859 C1860 1.523 . S
C1860 C1841 1.368 . S
C1860 C1854 1.368 . S
C1860 C1859 1.523 . S
C1861 C1845 1.429 . S
C1861 C1857 1.429 . S
C1861 C1862 1.523 . S
C1862 C1846 1.368 . S
C1862 C1858 1.368 . S
C1862 C1861 1.523 . S
H1863 C1838 0.950 . S
H1864 C1840 0.950 . S
H1865 C1841 0.949 . S
H1866 C1843 0.950 . S
H1867 C1845 0.950 . S
C1868 C1869 1.349 . S
C1868 C1870 1.327 . S
C1868 H1893 0.950 . S
C1869 C1868 1.349 . S
C1869 C1885 1.349 . S
C1870 C1868 1.327 . S
C1870 C1889 1.429 . S
C1870 H1894 0.950 . S
C1871 C1888 1.574 . S
C1871 C1890 1.368 . S
C1871 H1895 0.949 . S
H1872 C1876 0.949 . S
C1873 C1874 1.349 . S
C1873 C1875 1.327 . S
C1873 H1896 0.950 . S
C1874 C1873 1.349 . S
C1874 C1886 1.349 . S
C1875 C1873 1.327 . S
C1875 C1891 1.429 . S
C1875 H1897 0.950 . S
C1876 H1872 0.949 . S
C1876 C1884 1.574 . S
C1876 C1892 1.368 . S
H1877 C1885 0.950 . S
H1878 C1883 0.950 . S
H1879 C1884 0.949 . S
H1880 C1886 0.950 . S
H1881 C1887 0.950 . S
H1882 C1888 0.949 . S
C1883 H1878 0.950 . S
C1883 C1885 1.327 . S
C1883 C1889 1.429 . S
C1884 C1876 1.574 . S
C1884 H1879 0.949 . S
C1884 C1890 1.368 . S
C1885 C1869 1.349 . S
C1885 H1877 0.950 . S
C1885 C1883 1.327 . S
C1886 C1874 1.349 . S
C1886 H1880 0.950 . S
C1886 C1887 1.327 . S
C1887 H1881 0.950 . S
C1887 C1886 1.327 . S
C1887 C1891 1.429 . S
C1888 C1871 1.574 . S
C1888 H1882 0.949 . S
C1888 C1892 1.368 . S
C1889 C1870 1.429 . S
C1889 C1883 1.429 . S
C1889 C1890 1.523 . S
C1890 C1871 1.368 . S
C1890 C1884 1.368 . S
C1890 C1889 1.523 . S
C1891 C1875 1.429 . S
C1891 C1887 1.429 . S
C1891 C1892 1.523 . S
C1892 C1876 1.368 . S
C1892 C1888 1.368 . S
C1892 C1891 1.523 . S
H1893 C1868 0.950 . S
H1894 C1870 0.950 . S
H1895 C1871 0.949 . S
H1896 C1873 0.950 . S
H1897 C1875 0.950 . S
C1898 C1899 1.349 . S
C1898 C1900 1.327 . S
C1898 H1923 0.950 . S
C1899 C1898 1.349 . S
C1899 C1915 1.349 . S
C1900 C1898 1.327 . S
C1900 C1919 1.429 . S
C1900 H1924 0.950 . S
C1901 C1918 1.574 . S
C1901 C1920 1.368 . S
C1901 H1925 0.949 . S
H1902 C1906 0.949 . S
C1903 C1904 1.349 . S
C1903 C1905 1.327 . S
C1903 H1926 0.950 . S
C1904 C1903 1.349 . S
C1904 C1916 1.349 . S
C1905 C1903 1.327 . S
C1905 C1921 1.429 . S
C1905 H1927 0.950 . S
C1906 H1902 0.949 . S
C1906 C1914 1.574 . S
C1906 C1922 1.368 . S
H1907 C1915 0.950 . S
H1908 C1913 0.950 . S
H1909 C1914 0.949 . S
H1910 C1916 0.950 . S
H1911 C1917 0.950 . S
H1912 C1918 0.949 . S
C1913 H1908 0.950 . S
C1913 C1915 1.327 . S
C1913 C1919 1.429 . S
C1914 C1906 1.574 . S
C1914 H1909 0.949 . S
C1914 C1920 1.368 . S
C1915 C1899 1.349 . S
C1915 H1907 0.950 . S
C1915 C1913 1.327 . S
C1916 C1904 1.349 . S
C1916 H1910 0.950 . S
C1916 C1917 1.327 . S
C1917 H1911 0.950 . S
C1917 C1916 1.327 . S
C1917 C1921 1.429 . S
C1918 C1901 1.574 . S
C1918 H1912 0.949 . S
C1918 C1922 1.368 . S
C1919 C1900 1.429 . S
C1919 C1913 1.429 . S
C1919 C1920 1.523 . S
C1920 C1901 1.368 . S
C1920 C1914 1.368 . S
C1920 C1919 1.523 . S
C1921 C1905 1.429 . S
C1921 C1917 1.429 . S
C1921 C1922 1.523 . S
C1922 C1906 1.368 . S
C1922 C1918 1.368 . S
C1922 C1921 1.523 . S
H1923 C1898 0.950 . S
H1924 C1900 0.950 . S
H1925 C1901 0.949 . S
H1926 C1903 0.950 . S
H1927 C1905 0.950 . S
C1928 C1929 1.349 . S
C1928 C1930 1.327 . S
C1928 H1953 0.950 . S
C1929 C1928 1.349 . S
C1929 C1945 1.349 . S
C1930 C1928 1.327 . S
C1930 C1949 1.429 . S
C1930 H1954 0.950 . S
C1931 C1948 1.574 . S
C1931 C1950 1.368 . S
C1931 H1955 0.949 . S
H1932 C1936 0.949 . S
C1933 C1934 1.349 1_554 S
C1933 C1935 1.327 . S
C1933 H1956 0.950 . S
C1934 C1933 1.349 1_556 S
C1934 C1946 1.349 . S
C1935 C1933 1.327 . S
C1935 C1951 1.429 . S
C1935 H1957 0.950 . S
C1936 H1932 0.949 . S
C1936 C1944 1.574 . S
C1936 C1952 1.368 . S
H1937 C1945 0.950 . S
H1938 C1943 0.950 . S
H1939 C1944 0.949 . S
H1940 C1946 0.950 . S
H1941 C1947 0.950 . S
H1942 C1948 0.949 . S
C1943 H1938 0.950 . S
C1943 C1945 1.327 . S
C1943 C1949 1.429 . S
C1944 C1936 1.574 . S
C1944 H1939 0.949 . S
C1944 C1950 1.368 . S
C1945 C1929 1.349 . S
C1945 H1937 0.950 . S
C1945 C1943 1.327 . S
C1946 C1934 1.349 . S
C1946 H1940 0.950 . S
C1946 C1947 1.327 . S
C1947 H1941 0.950 . S
C1947 C1946 1.327 . S
C1947 C1951 1.429 1_556 S
C1948 C1931 1.574 . S
C1948 H1942 0.949 . S
C1948 C1952 1.368 . S
C1949 C1930 1.429 . S
C1949 C1943 1.429 . S
C1949 C1950 1.523 . S
C1950 C1931 1.368 . S
C1950 C1944 1.368 . S
C1950 C1949 1.523 . S
C1951 C1935 1.429 . S
C1951 C1947 1.429 1_554 S
C1951 C1952 1.523 . S
C1952 C1936 1.368 . S
C1952 C1948 1.368 . S
C1952 C1951 1.523 . S
H1953 C1928 0.950 . S
H1954 C1930 0.950 . S
H1955 C1931 0.949 . S
H1956 C1933 0.950 . S
H1957 C1935 0.950 . S
C1958 C1959 1.349 . S
C1958 C1960 1.327 . S
C1958 H1983 0.950 . S
C1959 C1958 1.349 . S
C1959 C1975 1.349 . S
C1960 C1958 1.327 . S
C1960 C1979 1.429 . S
C1960 H1984 0.950 . S
C1961 C1978 1.574 . S
C1961 C1980 1.368 . S
C1961 H1985 0.949 . S
H1962 C1966 0.949 1_556 S
C1963 C1964 1.349 1_554 S
C1963 C1965 1.327 . S
C1963 H1986 0.950 . S
C1964 C1963 1.349 1_556 S
C1964 C1976 1.349 . S
C1965 C1963 1.327 . S
C1965 C1981 1.429 . S
C1965 H1987 0.950 . S
C1966 H1962 0.949 1_554 S
C1966 C1974 1.574 . S
C1966 C1982 1.368 . S
H1967 C1975 0.950 . S
H1968 C1973 0.950 . S
H1969 C1974 0.949 . S
H1970 C1976 0.950 . S
H1971 C1977 0.950 . S
H1972 C1978 0.949 . S
C1973 H1968 0.950 . S
C1973 C1975 1.327 . S
C1973 C1979 1.429 . S
C1974 C1966 1.574 . S
C1974 H1969 0.949 . S
C1974 C1980 1.368 . S
C1975 C1959 1.349 . S
C1975 H1967 0.950 . S
C1975 C1973 1.327 . S
C1976 C1964 1.349 . S
C1976 H1970 0.950 . S
C1976 C1977 1.327 . S
C1977 H1971 0.950 . S
C1977 C1976 1.327 . S
C1977 C1981 1.429 1_556 S
C1978 C1961 1.574 . S
C1978 H1972 0.949 . S
C1978 C1982 1.368 . S
C1979 C1960 1.429 . S
C1979 C1973 1.429 . S
C1979 C1980 1.523 . S
C1980 C1961 1.368 . S
C1980 C1974 1.368 . S
C1980 C1979 1.523 . S
C1981 C1965 1.429 . S
C1981 C1977 1.429 1_554 S
C1981 C1982 1.523 . S
C1982 C1966 1.368 . S
C1982 C1978 1.368 . S
C1982 C1981 1.523 . S
H1983 C1958 0.950 . S
H1984 C1960 0.950 . S
H1985 C1961 0.949 . S
H1986 C1963 0.950 . S
H1987 C1965 0.950 . S
C1988 C1989 1.349 . S
C1988 C1990 1.327 . S
C1988 H2013 0.950 . S
C1989 C1988 1.349 . S
C1989 C2005 1.349 . S
C1990 C1988 1.327 . S
C1990 C2009 1.429 . S
C1990 H2014 0.950 . S
C1991 C2008 1.574 . S
C1991 C2010 1.368 . S
C1991 H2015 0.949 . S
H1992 C1996 0.949 . S
C1993 C1994 1.349 . S
C1993 C1995 1.327 . S
C1993 H2016 0.950 . S
C1994 C1993 1.349 . S
C1994 C2006 1.349 . S
C1995 C1993 1.327 . S
C1995 C2011 1.429 . S
C1995 H2017 0.950 . S
C1996 H1992 0.949 . S
C1996 C2004 1.574 . S
C1996 C2012 1.368 . S
H1997 C2005 0.950 . S
H1998 C2003 0.950 . S
H1999 C2004 0.949 . S
H2000 C2006 0.950 . S
H2001 C2007 0.950 . S
H2002 C2008 0.949 . S
C2003 H1998 0.950 . S
C2003 C2005 1.327 . S
C2003 C2009 1.429 . S
C2004 C1996 1.574 . S
C2004 H1999 0.949 . S
C2004 C2010 1.368 . S
C2005 C1989 1.349 . S
C2005 H1997 0.950 . S
C2005 C2003 1.327 . S
C2006 C1994 1.349 . S
C2006 H2000 0.950 . S
C2006 C2007 1.327 . S
C2007 H2001 0.950 . S
C2007 C2006 1.327 . S
C2007 C2011 1.429 . S
C2008 C1991 1.574 . S
C2008 H2002 0.949 . S
C2008 C2012 1.368 . S
C2009 C1990 1.429 . S
C2009 C2003 1.429 . S
C2009 C2010 1.523 . S
C2010 C1991 1.368 . S
C2010 C2004 1.368 . S
C2010 C2009 1.523 . S
C2011 C1995 1.429 . S
C2011 C2007 1.429 . S
C2011 C2012 1.523 . S
C2012 C1996 1.368 . S
C2012 C2008 1.368 . S
C2012 C2011 1.523 . S
H2013 C1988 0.950 . S
H2014 C1990 0.950 . S
H2015 C1991 0.949 . S
H2016 C1993 0.950 . S
H2017 C1995 0.950 . S
C2018 C2019 1.349 . S
C2018 C2020 1.327 . S
C2018 H2043 0.950 . S
C2019 C2018 1.349 . S
C2019 C2035 1.349 . S
C2020 C2018 1.327 . S
C2020 C2039 1.429 . S
C2020 H2044 0.950 . S
C2021 C2038 1.574 . S
C2021 C2040 1.368 . S
C2021 H2045 0.949 . S
H2022 C2026 0.949 . S
C2023 C2024 1.349 . S
C2023 C2025 1.327 . S
C2023 H2046 0.950 . S
C2024 C2023 1.349 . S
C2024 C2036 1.349 . S
C2025 C2023 1.327 . S
C2025 C2041 1.429 . S
C2025 H2047 0.950 . S
C2026 H2022 0.949 . S
C2026 C2034 1.574 . S
C2026 C2042 1.368 . S
H2027 C2035 0.950 . S
H2028 C2033 0.950 . S
H2029 C2034 0.949 . S
H2030 C2036 0.950 . S
H2031 C2037 0.950 . S
H2032 C2038 0.949 . S
C2033 H2028 0.950 . S
C2033 C2035 1.327 . S
C2033 C2039 1.429 . S
C2034 C2026 1.574 . S
C2034 H2029 0.949 . S
C2034 C2040 1.368 . S
C2035 C2019 1.349 . S
C2035 H2027 0.950 . S
C2035 C2033 1.327 . S
C2036 C2024 1.349 . S
C2036 H2030 0.950 . S
C2036 C2037 1.327 . S
C2037 H2031 0.950 . S
C2037 C2036 1.327 . S
C2037 C2041 1.429 . S
C2038 C2021 1.574 . S
C2038 H2032 0.949 . S
C2038 C2042 1.368 . S
C2039 C2020 1.429 . S
C2039 C2033 1.429 . S
C2039 C2040 1.523 . S
C2040 C2021 1.368 . S
C2040 C2034 1.368 . S
C2040 C2039 1.523 . S
C2041 C2025 1.429 . S
C2041 C2037 1.429 . S
C2041 C2042 1.523 . S
C2042 C2026 1.368 . S
C2042 C2038 1.368 . S
C2042 C2041 1.523 . S
H2043 C2018 0.950 . S
H2044 C2020 0.950 . S
H2045 C2021 0.949 . S
H2046 C2023 0.950 . S
H2047 C2025 0.950 . S
C2048 C2049 1.349 . S
C2048 C2050 1.327 . S
C2048 H2073 0.950 . S
C2049 C2048 1.349 . S
C2049 C2065 1.349 . S
C2050 C2048 1.327 . S
C2050 C2069 1.429 . S
C2050 H2074 0.950 . S
C2051 C2068 1.574 . S
C2051 C2070 1.368 . S
C2051 H2075 0.949 . S
H2052 C2056 0.949 . S
C2053 C2054 1.349 . S
C2053 C2055 1.327 . S
C2053 H2076 0.950 . S
C2054 C2053 1.349 . S
C2054 C2066 1.349 . S
C2055 C2053 1.327 . S
C2055 C2071 1.429 . S
C2055 H2077 0.950 . S
C2056 H2052 0.949 . S
C2056 C2064 1.574 . S
C2056 C2072 1.368 . S
H2057 C2065 0.950 . S
H2058 C2063 0.950 . S
H2059 C2064 0.949 . S
H2060 C2066 0.950 . S
H2061 C2067 0.950 . S
H2062 C2068 0.949 . S
C2063 H2058 0.950 . S
C2063 C2065 1.327 . S
C2063 C2069 1.429 . S
C2064 C2056 1.574 . S
C2064 H2059 0.949 . S
C2064 C2070 1.368 . S
C2065 C2049 1.349 . S
C2065 H2057 0.950 . S
C2065 C2063 1.327 . S
C2066 C2054 1.349 . S
C2066 H2060 0.950 . S
C2066 C2067 1.327 . S
C2067 H2061 0.950 . S
C2067 C2066 1.327 . S
C2067 C2071 1.429 . S
C2068 C2051 1.574 . S
C2068 H2062 0.949 . S
C2068 C2072 1.368 . S
C2069 C2050 1.429 . S
C2069 C2063 1.429 . S
C2069 C2070 1.523 . S
C2070 C2051 1.368 . S
C2070 C2064 1.368 . S
C2070 C2069 1.523 . S
C2071 C2055 1.429 . S
C2071 C2067 1.429 . S
C2071 C2072 1.523 . S
C2072 C2056 1.368 . S
C2072 C2068 1.368 . S
C2072 C2071 1.523 . S
H2073 C2048 0.950 . S
H2074 C2050 0.950 . S
H2075 C2051 0.949 . S
H2076 C2053 0.950 . S
H2077 C2055 0.950 . S
C2078 C2079 1.349 . S
C2078 C2080 1.327 . S
C2078 H2103 0.950 . S
C2079 C2078 1.349 . S
C2079 C2095 1.349 . S
C2080 C2078 1.327 . S
C2080 C2099 1.429 . S
C2080 H2104 0.950 . S
C2081 C2098 1.574 . S
C2081 C2100 1.368 . S
C2081 H2105 0.949 . S
H2082 C2086 0.949 . S
C2083 C2084 1.349 . S
C2083 C2085 1.327 . S
C2083 H2106 0.950 . S
C2084 C2083 1.349 . S
C2084 C2096 1.349 . S
C2085 C2083 1.327 . S
C2085 C2101 1.429 . S
C2085 H2107 0.950 . S
C2086 H2082 0.949 . S
C2086 C2094 1.574 . S
C2086 C2102 1.368 . S
H2087 C2095 0.950 . S
H2088 C2093 0.950 . S
H2089 C2094 0.949 . S
H2090 C2096 0.950 . S
H2091 C2097 0.950 . S
H2092 C2098 0.949 . S
C2093 H2088 0.950 . S
C2093 C2095 1.327 . S
C2093 C2099 1.429 . S
C2094 C2086 1.574 . S
C2094 H2089 0.949 . S
C2094 C2100 1.368 . S
C2095 C2079 1.349 . S
C2095 H2087 0.950 . S
C2095 C2093 1.327 . S
C2096 C2084 1.349 . S
C2096 H2090 0.950 . S
C2096 C2097 1.327 . S
C2097 H2091 0.950 . S
C2097 C2096 1.327 . S
C2097 C2101 1.429 . S
C2098 C2081 1.574 . S
C2098 H2092 0.949 . S
C2098 C2102 1.368 . S
C2099 C2080 1.429 . S
C2099 C2093 1.429 . S
C2099 C2100 1.523 . S
C2100 C2081 1.368 . S
C2100 C2094 1.368 . S
C2100 C2099 1.523 . S
C2101 C2085 1.429 . S
C2101 C2097 1.429 . S
C2101 C2102 1.523 . S
C2102 C2086 1.368 . S
C2102 C2098 1.368 . S
C2102 C2101 1.523 . S
H2103 C2078 0.950 . S
H2104 C2080 0.950 . S
H2105 C2081 0.949 . S
H2106 C2083 0.950 . S
H2107 C2085 0.950 . S
C2108 C2109 1.369 . S
C2108 C2110 1.327 . S
C2108 H2133 0.950 . S
C2109 C2108 1.369 . S
C2109 C2125 1.370 . S
C2110 C2108 1.327 . S
C2110 C2129 1.429 . S
C2110 H2134 0.950 . S
C2111 C2128 1.574 . S
C2111 C2130 1.368 . S
C2111 H2135 0.949 . S
H2112 C2116 0.949 . S
C2113 C2114 1.349 . S
C2113 C2115 1.327 . S
C2113 H2136 0.950 . S
C2114 C2113 1.349 . S
C2114 C2126 1.349 . S
C2115 C2113 1.327 . S
C2115 C2131 1.429 . S
C2115 H2137 0.950 . S
C2116 H2112 0.949 . S
C2116 C2124 1.574 . S
C2116 C2132 1.368 . S
H2117 C2125 0.950 . S
H2118 C2123 0.950 . S
H2119 C2124 0.949 . S
H2120 C2126 0.950 . S
H2121 C2127 0.950 . S
H2122 C2128 0.949 . S
C2123 H2118 0.950 . S
C2123 C2125 1.327 . S
C2123 C2129 1.429 . S
C2124 C2116 1.574 . S
C2124 H2119 0.949 . S
C2124 C2130 1.368 . S
C2125 C2109 1.370 . S
C2125 H2117 0.950 . S
C2125 C2123 1.327 . S
C2126 C2114 1.349 . S
C2126 H2120 0.950 . S
C2126 C2127 1.327 . S
C2127 H2121 0.950 . S
C2127 C2126 1.327 . S
C2127 C2131 1.429 . S
C2128 C2111 1.574 . S
C2128 H2122 0.949 . S
C2128 C2132 1.368 . S
C2129 C2110 1.429 . S
C2129 C2123 1.429 . S
C2129 C2130 1.523 . S
C2130 C2111 1.368 . S
C2130 C2124 1.368 . S
C2130 C2129 1.523 . S
C2131 C2115 1.429 . S
C2131 C2127 1.429 . S
C2131 C2132 1.523 . S
C2132 C2116 1.368 . S
C2132 C2128 1.368 . S
C2132 C2131 1.523 . S
H2133 C2108 0.950 . S
H2134 C2110 0.950 . S
H2135 C2111 0.949 . S
H2136 C2113 0.950 . S
H2137 C2115 0.950 . S
C2138 C2139 1.369 . S
C2138 C2140 1.327 . S
C2138 H2163 0.950 . S
C2139 C2138 1.369 . S
C2139 C2155 1.370 . S
C2140 C2138 1.327 . S
C2140 C2159 1.429 . S
C2140 H2164 0.950 . S
C2141 C2158 1.574 . S
C2141 C2160 1.368 . S
C2141 H2165 0.949 . S
H2142 C2146 0.949 . S
C2143 C2144 1.349 . S
C2143 C2145 1.327 . S
C2143 H2166 0.950 . S
C2144 C2143 1.349 . S
C2144 C2156 1.349 . S
C2145 C2143 1.327 . S
C2145 C2161 1.429 . S
C2145 H2167 0.950 . S
C2146 H2142 0.949 . S
C2146 C2154 1.574 . S
C2146 C2162 1.368 . S
H2147 C2155 0.950 . S
H2148 C2153 0.950 . S
H2149 C2154 0.949 . S
H2150 C2156 0.950 . S
H2151 C2157 0.950 . S
H2152 C2158 0.949 . S
C2153 H2148 0.950 . S
C2153 C2155 1.327 . S
C2153 C2159 1.429 . S
C2154 C2146 1.574 . S
C2154 H2149 0.949 . S
C2154 C2160 1.368 . S
C2155 C2139 1.370 . S
C2155 H2147 0.950 . S
C2155 C2153 1.327 . S
C2156 C2144 1.349 . S
C2156 H2150 0.950 . S
C2156 C2157 1.327 . S
C2157 H2151 0.950 . S
C2157 C2156 1.327 . S
C2157 C2161 1.429 . S
C2158 C2141 1.574 . S
C2158 H2152 0.949 . S
C2158 C2162 1.368 . S
C2159 C2140 1.429 . S
C2159 C2153 1.429 . S
C2159 C2160 1.523 . S
C2160 C2141 1.368 . S
C2160 C2154 1.368 . S
C2160 C2159 1.523 . S
C2161 C2145 1.429 . S
C2161 C2157 1.429 . S
C2161 C2162 1.523 . S
C2162 C2146 1.368 . S
C2162 C2158 1.368 . S
C2162 C2161 1.523 . S
H2163 C2138 0.950 . S
H2164 C2140 0.950 . S
H2165 C2141 0.949 . S
H2166 C2143 0.950 . S
H2167 C2145 0.950 . S
C2168 C2169 1.349 . S
C2168 C2170 1.327 . S
C2168 H2193 0.950 . S
C2169 C2168 1.349 . S
C2169 C2185 1.349 . S
C2170 C2168 1.327 . S
C2170 C2189 1.429 . S
C2170 H2194 0.950 . S
C2171 C2188 1.574 . S
C2171 C2190 1.368 . S
C2171 H2195 0.949 . S
H2172 C2176 0.949 . S
C2173 C2174 1.349 . S
C2173 C2175 1.327 . S
C2173 H2196 0.950 . S
C2174 C2173 1.349 . S
C2174 C2186 1.349 . S
C2175 C2173 1.327 . S
C2175 C2191 1.429 . S
C2175 H2197 0.950 . S
C2176 H2172 0.949 . S
C2176 C2184 1.574 . S
C2176 C2192 1.368 . S
H2177 C2185 0.950 . S
H2178 C2183 0.950 . S
H2179 C2184 0.949 . S
H2180 C2186 0.950 . S
H2181 C2187 0.950 . S
H2182 C2188 0.949 . S
C2183 H2178 0.950 . S
C2183 C2185 1.327 . S
C2183 C2189 1.429 . S
C2184 C2176 1.574 . S
C2184 H2179 0.949 . S
C2184 C2190 1.368 . S
C2185 C2169 1.349 . S
C2185 H2177 0.950 . S
C2185 C2183 1.327 . S
C2186 C2174 1.349 . S
C2186 H2180 0.950 . S
C2186 C2187 1.327 . S
C2187 H2181 0.950 . S
C2187 C2186 1.327 . S
C2187 C2191 1.429 . S
C2188 C2171 1.574 . S
C2188 H2182 0.949 . S
C2188 C2192 1.368 . S
C2189 C2170 1.429 . S
C2189 C2183 1.429 . S
C2189 C2190 1.523 . S
C2190 C2171 1.368 . S
C2190 C2184 1.368 . S
C2190 C2189 1.523 . S
C2191 C2175 1.429 . S
C2191 C2187 1.429 . S
C2191 C2192 1.523 . S
C2192 C2176 1.368 . S
C2192 C2188 1.368 . S
C2192 C2191 1.523 . S
H2193 C2168 0.950 . S
H2194 C2170 0.950 . S
H2195 C2171 0.949 . S
H2196 C2173 0.950 . S
H2197 C2175 0.950 . S
C2198 C2199 1.349 . S
C2198 C2200 1.327 . S
C2198 H2223 0.950 . S
C2199 C2198 1.349 . S
C2199 C2215 1.349 . S
C2200 C2198 1.327 . S
C2200 C2219 1.429 . S
C2200 H2224 0.950 . S
C2201 C2218 1.574 . S
C2201 C2220 1.368 . S
C2201 H2225 0.949 . S
H2202 C2206 0.949 . S
C2203 C2204 1.349 . S
C2203 C2205 1.327 . S
C2203 H2226 0.950 . S
C2204 C2203 1.349 . S
C2204 C2216 1.349 . S
C2205 C2203 1.327 . S
C2205 C2221 1.429 . S
C2205 H2227 0.950 . S
C2206 H2202 0.949 . S
C2206 C2214 1.574 . S
C2206 C2222 1.368 . S
H2207 C2215 0.950 . S
H2208 C2213 0.950 . S
H2209 C2214 0.949 . S
H2210 C2216 0.950 . S
H2211 C2217 0.950 . S
H2212 C2218 0.949 . S
C2213 H2208 0.950 . S
C2213 C2215 1.327 . S
C2213 C2219 1.429 . S
C2214 C2206 1.574 . S
C2214 H2209 0.949 . S
C2214 C2220 1.368 . S
C2215 C2199 1.349 . S
C2215 H2207 0.950 . S
C2215 C2213 1.327 . S
C2216 C2204 1.349 . S
C2216 H2210 0.950 . S
C2216 C2217 1.327 . S
C2217 H2211 0.950 . S
C2217 C2216 1.327 . S
C2217 C2221 1.429 . S
C2218 C2201 1.574 . S
C2218 H2212 0.949 . S
C2218 C2222 1.368 . S
C2219 C2200 1.429 . S
C2219 C2213 1.429 . S
C2219 C2220 1.523 . S
C2220 C2201 1.368 . S
C2220 C2214 1.368 . S
C2220 C2219 1.523 . S
C2221 C2205 1.429 . S
C2221 C2217 1.429 . S
C2221 C2222 1.523 . S
C2222 C2206 1.368 . S
C2222 C2218 1.368 . S
C2222 C2221 1.523 . S
H2223 C2198 0.950 . S
H2224 C2200 0.950 . S
H2225 C2201 0.949 . S
H2226 C2203 0.950 . S
H2227 C2205 0.950 . S
C2228 C2229 1.349 . S
C2228 C2230 1.327 . S
C2228 H2253 0.950 . S
C2229 C2228 1.349 . S
C2229 C2245 1.349 . S
C2230 C2228 1.327 . S
C2230 C2249 1.429 . S
C2230 H2254 0.950 . S
C2231 C2248 1.574 . S
C2231 C2250 1.368 . S
C2231 H2255 0.949 . S
H2232 C2236 0.949 . S
C2233 C2234 1.370 . S
C2233 C2235 1.327 . S
C2233 H2256 0.950 . S
C2234 C2233 1.370 . S
C2234 C2246 1.369 . S
C2235 C2233 1.327 . S
C2235 C2251 1.429 . S
C2235 H2257 0.950 . S
C2236 H2232 0.949 . S
C2236 C2244 1.574 . S
C2236 C2252 1.368 . S
H2237 C2245 0.950 . S
H2238 C2243 0.950 . S
H2239 C2244 0.949 . S
H2240 C2246 0.950 . S
H2241 C2247 0.950 . S
H2242 C2248 0.949 . S
C2243 H2238 0.950 . S
C2243 C2245 1.327 . S
C2243 C2249 1.429 . S
C2244 C2236 1.574 . S
C2244 H2239 0.949 . S
C2244 C2250 1.368 . S
C2245 C2229 1.349 . S
C2245 H2237 0.950 . S
C2245 C2243 1.327 . S
C2246 C2234 1.369 . S
C2246 H2240 0.950 . S
C2246 C2247 1.327 . S
C2247 H2241 0.950 . S
C2247 C2246 1.327 . S
C2247 C2251 1.429 . S
C2248 C2231 1.574 . S
C2248 H2242 0.949 . S
C2248 C2252 1.368 . S
C2249 C2230 1.429 . S
C2249 C2243 1.429 . S
C2249 C2250 1.523 . S
C2250 C2231 1.368 . S
C2250 C2244 1.368 . S
C2250 C2249 1.523 . S
C2251 C2235 1.429 . S
C2251 C2247 1.429 . S
C2251 C2252 1.523 . S
C2252 C2236 1.368 . S
C2252 C2248 1.368 . S
C2252 C2251 1.523 . S
H2253 C2228 0.950 . S
H2254 C2230 0.950 . S
H2255 C2231 0.949 . S
H2256 C2233 0.950 . S
H2257 C2235 0.950 . S
C2258 C2259 1.370 . S
C2258 C2260 1.327 . S
C2258 H2283 0.950 . S
C2259 C2258 1.370 . S
C2259 C2275 1.369 . S
C2260 C2258 1.327 . S
C2260 C2279 1.429 . S
C2260 H2284 0.950 . S
C2261 C2278 1.574 . S
C2261 C2280 1.368 . S
C2261 H2285 0.949 . S
H2262 C2266 0.949 . S
C2263 C2264 1.349 . S
C2263 C2265 1.327 . S
C2263 H2286 0.950 . S
C2264 C2263 1.349 . S
C2264 C2276 1.349 . S
C2265 C2263 1.327 . S
C2265 C2281 1.429 . S
C2265 H2287 0.950 . S
C2266 H2262 0.949 . S
C2266 C2274 1.574 . S
C2266 C2282 1.368 . S
H2267 C2275 0.950 . S
H2268 C2273 0.950 . S
H2269 C2274 0.949 . S
H2270 C2276 0.950 . S
H2271 C2277 0.950 . S
H2272 C2278 0.949 . S
C2273 H2268 0.950 . S
C2273 C2275 1.327 . S
C2273 C2279 1.429 . S
C2274 C2266 1.574 . S
C2274 H2269 0.949 . S
C2274 C2280 1.368 . S
C2275 C2259 1.369 . S
C2275 H2267 0.950 . S
C2275 C2273 1.327 . S
C2276 C2264 1.349 . S
C2276 H2270 0.950 . S
C2276 C2277 1.327 . S
C2277 H2271 0.950 . S
C2277 C2276 1.327 . S
C2277 C2281 1.429 . S
C2278 C2261 1.574 . S
C2278 H2272 0.949 . S
C2278 C2282 1.368 . S
C2279 C2260 1.429 . S
C2279 C2273 1.429 . S
C2279 C2280 1.523 . S
C2280 C2261 1.368 . S
C2280 C2274 1.368 . S
C2280 C2279 1.523 . S
C2281 C2265 1.429 . S
C2281 C2277 1.429 . S
C2281 C2282 1.523 . S
C2282 C2266 1.368 . S
C2282 C2278 1.368 . S
C2282 C2281 1.523 . S
H2283 C2258 0.950 . S
H2284 C2260 0.950 . S
H2285 C2261 0.949 . S
H2286 C2263 0.950 . S
H2287 C2265 0.950 . S
C2288 C2289 1.349 . S
C2288 C2290 1.327 . S
C2288 H2313 0.950 . S
C2289 C2288 1.349 . S
C2289 C2305 1.349 . S
C2290 C2288 1.327 . S
C2290 C2309 1.429 . S
C2290 H2314 0.950 . S
C2291 C2308 1.574 . S
C2291 C2310 1.368 . S
C2291 H2315 0.949 . S
H2292 C2296 0.949 . S
C2293 C2294 1.369 . S
C2293 C2295 1.327 . S
C2293 H2316 0.950 . S
C2294 C2293 1.369 . S
C2294 C2306 1.370 . S
C2295 C2293 1.327 . S
C2295 C2311 1.429 . S
C2295 H2317 0.950 . S
C2296 H2292 0.949 . S
C2296 C2304 1.574 . S
C2296 C2312 1.368 . S
H2297 C2305 0.950 . S
H2298 C2303 0.950 . S
H2299 C2304 0.949 . S
H2300 C2306 0.950 . S
H2301 C2307 0.950 . S
H2302 C2308 0.949 . S
C2303 H2298 0.950 . S
C2303 C2305 1.327 . S
C2303 C2309 1.429 . S
C2304 C2296 1.574 . S
C2304 H2299 0.949 . S
C2304 C2310 1.368 . S
C2305 C2289 1.349 . S
C2305 H2297 0.950 . S
C2305 C2303 1.327 . S
C2306 C2294 1.370 . S
C2306 H2300 0.950 . S
C2306 C2307 1.327 . S
C2307 H2301 0.950 . S
C2307 C2306 1.327 . S
C2307 C2311 1.429 . S
C2308 C2291 1.574 . S
C2308 H2302 0.949 . S
C2308 C2312 1.368 . S
C2309 C2290 1.429 . S
C2309 C2303 1.429 . S
C2309 C2310 1.523 . S
C2310 C2291 1.368 . S
C2310 C2304 1.368 . S
C2310 C2309 1.523 . S
C2311 C2295 1.429 . S
C2311 C2307 1.429 . S
C2311 C2312 1.523 . S
C2312 C2296 1.368 . S
C2312 C2308 1.368 . S
C2312 C2311 1.523 . S
H2313 C2288 0.950 . S
H2314 C2290 0.950 . S
H2315 C2291 0.949 . S
H2316 C2293 0.950 . S
H2317 C2295 0.950 . S
C2318 C2319 1.370 . S
C2318 C2320 1.327 . S
C2318 H2343 0.950 . S
C2319 C2318 1.370 . S
C2319 C2335 1.369 . S
C2320 C2318 1.327 . S
C2320 C2339 1.429 . S
C2320 H2344 0.950 . S
C2321 C2338 1.574 . S
C2321 C2340 1.368 . S
C2321 H2345 0.949 . S
H2322 C2326 0.949 . S
C2323 C2324 1.349 . S
C2323 C2325 1.327 . S
C2323 H2346 0.950 . S
C2324 C2323 1.349 . S
C2324 C2336 1.349 . S
C2325 C2323 1.327 . S
C2325 C2341 1.429 . S
C2325 H2347 0.950 . S
C2326 H2322 0.949 . S
C2326 C2334 1.574 . S
C2326 C2342 1.368 . S
H2327 C2335 0.950 . S
H2328 C2333 0.950 . S
H2329 C2334 0.949 . S
H2330 C2336 0.950 . S
H2331 C2337 0.950 . S
H2332 C2338 0.949 . S
C2333 H2328 0.950 . S
C2333 C2335 1.327 . S
C2333 C2339 1.429 . S
C2334 C2326 1.574 . S
C2334 H2329 0.949 . S
C2334 C2340 1.368 . S
C2335 C2319 1.369 . S
C2335 H2327 0.950 . S
C2335 C2333 1.327 . S
C2336 C2324 1.349 . S
C2336 H2330 0.950 . S
C2336 C2337 1.327 . S
C2337 H2331 0.950 . S
C2337 C2336 1.327 . S
C2337 C2341 1.429 . S
C2338 C2321 1.574 . S
C2338 H2332 0.949 . S
C2338 C2342 1.368 . S
C2339 C2320 1.429 . S
C2339 C2333 1.429 . S
C2339 C2340 1.523 . S
C2340 C2321 1.368 . S
C2340 C2334 1.368 . S
C2340 C2339 1.523 . S
C2341 C2325 1.429 . S
C2341 C2337 1.429 . S
C2341 C2342 1.523 . S
C2342 C2326 1.368 . S
C2342 C2338 1.368 . S
C2342 C2341 1.523 . S
H2343 C2318 0.950 . S
H2344 C2320 0.950 . S
H2345 C2321 0.949 . S
H2346 C2323 0.950 . S
H2347 C2325 0.950 . S
C2348 C2349 1.349 . S
C2348 C2350 1.327 . S
C2348 H2373 0.950 . S
C2349 C2348 1.349 . S
C2349 C2365 1.349 . S
C2350 C2348 1.327 . S
C2350 C2369 1.429 . S
C2350 H2374 0.950 . S
C2351 C2368 1.574 . S
C2351 C2370 1.368 . S
C2351 H2375 0.949 . S
H2352 C2356 0.949 . S
C2353 C2354 1.349 . S
C2353 C2355 1.327 . S
C2353 H2376 0.950 . S
C2354 C2353 1.349 . S
C2354 C2366 1.349 . S
C2355 C2353 1.327 . S
C2355 C2371 1.429 . S
C2355 H2377 0.950 . S
C2356 H2352 0.949 . S
C2356 C2364 1.574 . S
C2356 C2372 1.368 . S
H2357 C2365 0.950 . S
H2358 C2363 0.950 . S
H2359 C2364 0.949 . S
H2360 C2366 0.950 . S
H2361 C2367 0.950 . S
H2362 C2368 0.949 . S
C2363 H2358 0.950 . S
C2363 C2365 1.327 . S
C2363 C2369 1.429 . S
C2364 C2356 1.574 . S
C2364 H2359 0.949 . S
C2364 C2370 1.368 . S
C2365 C2349 1.349 . S
C2365 H2357 0.950 . S
C2365 C2363 1.327 . S
C2366 C2354 1.349 . S
C2366 H2360 0.950 . S
C2366 C2367 1.327 . S
C2367 H2361 0.950 . S
C2367 C2366 1.327 . S
C2367 C2371 1.429 . S
C2368 C2351 1.574 . S
C2368 H2362 0.949 . S
C2368 C2372 1.368 . S
C2369 C2350 1.429 . S
C2369 C2363 1.429 . S
C2369 C2370 1.523 . S
C2370 C2351 1.368 . S
C2370 C2364 1.368 . S
C2370 C2369 1.523 . S
C2371 C2355 1.429 . S
C2371 C2367 1.429 . S
C2371 C2372 1.523 . S
C2372 C2356 1.368 . S
C2372 C2368 1.368 . S
C2372 C2371 1.523 . S
H2373 C2348 0.950 . S
H2374 C2350 0.950 . S
H2375 C2351 0.949 . S
H2376 C2353 0.950 . S
H2377 C2355 0.950 . S
C2378 C2379 1.349 . S
C2378 C2380 1.327 . S
C2378 H2403 0.950 . S
C2379 C2378 1.349 . S
C2379 C2395 1.349 . S
C2380 C2378 1.327 . S
C2380 C2399 1.429 . S
C2380 H2404 0.950 . S
C2381 C2398 1.574 . S
C2381 C2400 1.368 . S
C2381 H2405 0.949 . S
H2382 C2386 0.949 . S
C2383 C2384 1.349 . S
C2383 C2385 1.327 . S
C2383 H2406 0.950 . S
C2384 C2383 1.349 . S
C2384 C2396 1.349 . S
C2385 C2383 1.327 . S
C2385 C2401 1.429 . S
C2385 H2407 0.950 . S
C2386 H2382 0.949 . S
C2386 C2394 1.574 . S
C2386 C2402 1.368 . S
H2387 C2395 0.950 . S
H2388 C2393 0.950 . S
H2389 C2394 0.949 . S
H2390 C2396 0.950 . S
H2391 C2397 0.950 . S
H2392 C2398 0.949 . S
C2393 H2388 0.950 . S
C2393 C2395 1.327 . S
C2393 C2399 1.429 . S
C2394 C2386 1.574 . S
C2394 H2389 0.949 . S
C2394 C2400 1.368 . S
C2395 C2379 1.349 . S
C2395 H2387 0.950 . S
C2395 C2393 1.327 . S
C2396 C2384 1.349 . S
C2396 H2390 0.950 . S
C2396 C2397 1.327 . S
C2397 H2391 0.950 . S
C2397 C2396 1.327 . S
C2397 C2401 1.429 . S
C2398 C2381 1.574 . S
C2398 H2392 0.949 . S
C2398 C2402 1.368 . S
C2399 C2380 1.429 . S
C2399 C2393 1.429 . S
C2399 C2400 1.523 . S
C2400 C2381 1.368 . S
C2400 C2394 1.368 . S
C2400 C2399 1.523 . S
C2401 C2385 1.429 . S
C2401 C2397 1.429 . S
C2401 C2402 1.523 . S
C2402 C2386 1.368 . S
C2402 C2398 1.368 . S
C2402 C2401 1.523 . S
H2403 C2378 0.950 . S
H2404 C2380 0.950 . S
H2405 C2381 0.949 . S
H2406 C2383 0.950 . S
H2407 C2385 0.950 . S
C2408 C2409 1.369 . S
C2408 C2410 1.327 . S
C2408 H2433 0.950 . S
C2409 C2408 1.369 . S
C2409 C2425 1.370 . S
C2410 C2408 1.327 . S
C2410 C2429 1.429 . S
C2410 H2434 0.950 . S
C2411 C2428 1.574 . S
C2411 C2430 1.368 . S
C2411 H2435 0.949 . S
H2412 C2416 0.949 . S
C2413 C2414 1.349 . S
C2413 C2415 1.327 . S
C2413 H2436 0.950 . S
C2414 C2413 1.349 . S
C2414 C2426 1.349 . S
C2415 C2413 1.327 . S
C2415 C2431 1.429 . S
C2415 H2437 0.950 . S
C2416 H2412 0.949 . S
C2416 C2424 1.574 . S
C2416 C2432 1.368 . S
H2417 C2425 0.950 . S
H2418 C2423 0.950 . S
H2419 C2424 0.949 . S
H2420 C2426 0.950 . S
H2421 C2427 0.950 . S
H2422 C2428 0.949 . S
C2423 H2418 0.950 . S
C2423 C2425 1.327 . S
C2423 C2429 1.429 . S
C2424 C2416 1.574 . S
C2424 H2419 0.949 . S
C2424 C2430 1.368 . S
C2425 C2409 1.370 . S
C2425 H2417 0.950 . S
C2425 C2423 1.327 . S
C2426 C2414 1.349 . S
C2426 H2420 0.950 . S
C2426 C2427 1.327 . S
C2427 H2421 0.950 . S
C2427 C2426 1.327 . S
C2427 C2431 1.429 . S
C2428 C2411 1.574 . S
C2428 H2422 0.949 . S
C2428 C2432 1.368 . S
C2429 C2410 1.429 . S
C2429 C2423 1.429 . S
C2429 C2430 1.523 . S
C2430 C2411 1.368 . S
C2430 C2424 1.368 . S
C2430 C2429 1.523 . S
C2431 C2415 1.429 . S
C2431 C2427 1.429 . S
C2431 C2432 1.523 . S
C2432 C2416 1.368 . S
C2432 C2428 1.368 . S
C2432 C2431 1.523 . S
H2433 C2408 0.950 . S
H2434 C2410 0.950 . S
H2435 C2411 0.949 . S
H2436 C2413 0.950 . S
H2437 C2415 0.950 . S
C2438 C2439 1.349 . S
C2438 C2440 1.327 . S
C2438 H2463 0.950 . S
C2439 C2438 1.349 . S
C2439 C2455 1.349 . S
C2440 C2438 1.327 . S
C2440 C2459 1.429 . S
C2440 H2464 0.950 . S
C2441 C2458 1.574 . S
C2441 C2460 1.368 . S
C2441 H2465 0.949 . S
H2442 C2446 0.949 . S
C2443 C2444 1.370 . S
C2443 C2445 1.327 . S
C2443 H2466 0.950 . S
C2444 C2443 1.370 . S
C2444 C2456 1.369 . S
C2445 C2443 1.327 . S
C2445 C2461 1.429 . S
C2445 H2467 0.950 . S
C2446 H2442 0.949 . S
C2446 C2454 1.574 . S
C2446 C2462 1.368 . S
H2447 C2455 0.950 . S
H2448 C2453 0.950 . S
H2449 C2454 0.949 . S
H2450 C2456 0.950 . S
H2451 C2457 0.950 . S
H2452 C2458 0.949 . S
C2453 H2448 0.950 . S
C2453 C2455 1.327 . S
C2453 C2459 1.429 . S
C2454 C2446 1.574 . S
C2454 H2449 0.949 . S
C2454 C2460 1.368 . S
C2455 C2439 1.349 . S
C2455 H2447 0.950 . S
C2455 C2453 1.327 . S
C2456 C2444 1.369 . S
C2456 H2450 0.950 . S
C2456 C2457 1.327 . S
C2457 H2451 0.950 . S
C2457 C2456 1.327 . S
C2457 C2461 1.429 . S
C2458 C2441 1.574 . S
C2458 H2452 0.949 . S
C2458 C2462 1.368 . S
C2459 C2440 1.429 . S
C2459 C2453 1.429 . S
C2459 C2460 1.523 . S
C2460 C2441 1.368 . S
C2460 C2454 1.368 . S
C2460 C2459 1.523 . S
C2461 C2445 1.429 . S
C2461 C2457 1.429 . S
C2461 C2462 1.523 . S
C2462 C2446 1.368 . S
C2462 C2458 1.368 . S
C2462 C2461 1.523 . S
H2463 C2438 0.950 . S
H2464 C2440 0.950 . S
H2465 C2441 0.949 . S
H2466 C2443 0.950 . S
H2467 C2445 0.950 . S
C2468 C2469 1.349 . S
C2468 C2470 1.327 . S
C2468 H2493 0.950 . S
C2469 C2468 1.349 . S
C2469 C2485 1.349 . S
C2470 C2468 1.327 . S
C2470 C2489 1.429 . S
C2470 H2494 0.950 . S
C2471 C2488 1.574 . S
C2471 C2490 1.368 . S
C2471 H2495 0.949 . S
H2472 C2476 0.949 . S
C2473 C2474 1.349 . S
C2473 C2475 1.327 . S
C2473 H2496 0.950 . S
C2474 C2473 1.349 . S
C2474 C2486 1.349 . S
C2475 C2473 1.327 . S
C2475 C2491 1.429 . S
C2475 H2497 0.950 . S
C2476 H2472 0.949 . S
C2476 C2484 1.574 . S
C2476 C2492 1.368 . S
H2477 C2485 0.950 . S
H2478 C2483 0.950 . S
H2479 C2484 0.949 . S
H2480 C2486 0.950 . S
H2481 C2487 0.950 . S
H2482 C2488 0.949 . S
C2483 H2478 0.950 . S
C2483 C2485 1.327 . S
C2483 C2489 1.429 . S
C2484 C2476 1.574 . S
C2484 H2479 0.949 . S
C2484 C2490 1.368 . S
C2485 C2469 1.349 . S
C2485 H2477 0.950 . S
C2485 C2483 1.327 . S
C2486 C2474 1.349 . S
C2486 H2480 0.950 . S
C2486 C2487 1.327 . S
C2487 H2481 0.950 . S
C2487 C2486 1.327 . S
C2487 C2491 1.429 . S
C2488 C2471 1.574 . S
C2488 H2482 0.949 . S
C2488 C2492 1.368 . S
C2489 C2470 1.429 . S
C2489 C2483 1.429 . S
C2489 C2490 1.523 . S
C2490 C2471 1.368 . S
C2490 C2484 1.368 . S
C2490 C2489 1.523 . S
C2491 C2475 1.429 . S
C2491 C2487 1.429 . S
C2491 C2492 1.523 . S
C2492 C2476 1.368 . S
C2492 C2488 1.368 . S
C2492 C2491 1.523 . S
H2493 C2468 0.950 . S
H2494 C2470 0.950 . S
H2495 C2471 0.949 . S
H2496 C2473 0.950 . S
H2497 C2475 0.950 . S
C2498 C2499 1.349 . S
C2498 C2500 1.327 . S
C2498 H2523 0.950 . S
C2499 C2498 1.349 . S
C2499 C2515 1.349 . S
C2500 C2498 1.327 . S
C2500 C2519 1.429 . S
C2500 H2524 0.950 . S
C2501 C2518 1.574 . S
C2501 C2520 1.368 . S
C2501 H2525 0.949 . S
H2502 C2506 0.949 . S
C2503 C2504 1.349 . S
C2503 C2505 1.327 . S
C2503 H2526 0.950 . S
C2504 C2503 1.349 . S
C2504 C2516 1.349 . S
C2505 C2503 1.327 . S
C2505 C2521 1.429 . S
C2505 H2527 0.950 . S
C2506 H2502 0.949 . S
C2506 C2514 1.574 . S
C2506 C2522 1.368 . S
H2507 C2515 0.950 . S
H2508 C2513 0.950 . S
H2509 C2514 0.949 . S
H2510 C2516 0.950 . S
H2511 C2517 0.950 . S
H2512 C2518 0.949 . S
C2513 H2508 0.950 . S
C2513 C2515 1.327 . S
C2513 C2519 1.429 . S
C2514 C2506 1.574 . S
C2514 H2509 0.949 . S
C2514 C2520 1.368 . S
C2515 C2499 1.349 . S
C2515 H2507 0.950 . S
C2515 C2513 1.327 . S
C2516 C2504 1.349 . S
C2516 H2510 0.950 . S
C2516 C2517 1.327 . S
C2517 H2511 0.950 . S
C2517 C2516 1.327 . S
C2517 C2521 1.429 . S
C2518 C2501 1.574 . S
C2518 H2512 0.949 . S
C2518 C2522 1.368 . S
C2519 C2500 1.429 . S
C2519 C2513 1.429 . S
C2519 C2520 1.523 . S
C2520 C2501 1.368 . S
C2520 C2514 1.368 . S
C2520 C2519 1.523 . S
C2521 C2505 1.429 . S
C2521 C2517 1.429 . S
C2521 C2522 1.523 . S
C2522 C2506 1.368 . S
C2522 C2518 1.368 . S
C2522 C2521 1.523 . S
H2523 C2498 0.950 . S
H2524 C2500 0.950 . S
H2525 C2501 0.949 . S
H2526 C2503 0.950 . S
H2527 C2505 0.950 . S
C2528 C2529 1.350 . S
C2528 C2530 1.327 1_565 S
C2528 H2553 0.949 1_565 S
C2529 C2528 1.350 . S
C2529 C2545 1.349 . S
C2530 C2528 1.327 1_545 S
C2530 C2549 1.429 1_545 S
C2530 H2554 0.950 . S
C2531 C2548 1.574 . S
C2531 C2550 1.368 . S
C2531 H2555 0.949 . S
H2532 C2536 0.949 . S
C2533 C2534 1.350 . S
C2533 C2535 1.327 1_545 S
C2533 H2556 0.949 1_545 S
C2534 C2533 1.350 . S
C2534 C2546 1.349 . S
C2535 C2533 1.327 1_565 S
C2535 C2551 1.429 1_565 S
C2535 H2557 0.950 . S
C2536 H2532 0.949 . S
C2536 C2544 1.574 . S
C2536 C2552 1.368 . S
H2537 C2545 0.950 . S
H2538 C2543 0.950 . S
H2539 C2544 0.949 . S
H2540 C2546 0.950 . S
H2541 C2547 0.950 . S
H2542 C2548 0.949 . S
C2543 H2538 0.950 . S
C2543 C2545 1.327 . S
C2543 C2549 1.429 . S
C2544 C2536 1.574 . S
C2544 H2539 0.949 . S
C2544 C2550 1.368 1_545 S
C2545 C2529 1.349 . S
C2545 H2537 0.950 . S
C2545 C2543 1.327 . S
C2546 C2534 1.349 . S
C2546 H2540 0.950 . S
C2546 C2547 1.327 . S
C2547 H2541 0.950 . S
C2547 C2546 1.327 . S
C2547 C2551 1.429 . S
C2548 C2531 1.574 . S
C2548 H2542 0.949 . S
C2548 C2552 1.368 1_565 S
C2549 C2530 1.429 1_565 S
C2549 C2543 1.429 . S
C2549 C2550 1.523 . S
C2550 C2531 1.368 . S
C2550 C2544 1.368 1_565 S
C2550 C2549 1.523 . S
C2551 C2535 1.429 1_545 S
C2551 C2547 1.429 . S
C2551 C2552 1.523 . S
C2552 C2536 1.368 . S
C2552 C2548 1.368 1_545 S
C2552 C2551 1.523 . S
H2553 C2528 0.949 1_545 S
H2554 C2530 0.950 . S
H2555 C2531 0.949 . S
H2556 C2533 0.949 1_565 S
H2557 C2535 0.950 . S
C2558 C2559 1.349 . S
C2558 C2560 1.327 . S
C2558 H2583 0.950 . S
C2559 C2558 1.349 . S
C2559 C2575 1.349 . S
C2560 C2558 1.327 . S
C2560 C2579 1.429 . S
C2560 H2584 0.950 . S
C2561 C2578 1.557 1_455 S
C2561 C2580 1.384 . S
C2561 H2585 0.950 . S
H2562 C2566 0.950 . S
C2563 C2564 1.349 . S
C2563 C2565 1.327 . S
C2563 H2586 0.950 . S
C2564 C2563 1.349 . S
C2564 C2576 1.349 . S
C2565 C2563 1.327 . S
C2565 C2581 1.429 . S
C2565 H2587 0.950 . S
C2566 H2562 0.950 . S
C2566 C2574 1.557 1_655 S
C2566 C2582 1.384 . S
H2567 C2575 0.950 . S
H2568 C2573 0.950 . S
H2569 C2574 0.949 . S
H2570 C2576 0.950 . S
H2571 C2577 0.950 . S
H2572 C2578 0.949 . S
C2573 H2568 0.950 . S
C2573 C2575 1.327 . S
C2573 C2579 1.429 . S
C2574 C2566 1.557 1_455 S
C2574 H2569 0.949 . S
C2574 C2580 1.368 . S
C2575 C2559 1.349 . S
C2575 H2567 0.950 . S
C2575 C2573 1.327 . S
C2576 C2564 1.349 . S
C2576 H2570 0.950 . S
C2576 C2577 1.327 . S
C2577 H2571 0.950 . S
C2577 C2576 1.327 . S
C2577 C2581 1.429 . S
C2578 C2561 1.557 1_655 S
C2578 H2572 0.949 . S
C2578 C2582 1.368 . S
C2579 C2560 1.429 . S
C2579 C2573 1.429 . S
C2579 C2580 1.523 . S
C2580 C2561 1.384 . S
C2580 C2574 1.368 . S
C2580 C2579 1.523 . S
C2581 C2565 1.429 . S
C2581 C2577 1.429 . S
C2581 C2582 1.523 . S
C2582 C2566 1.384 . S
C2582 C2578 1.368 . S
C2582 C2581 1.523 . S
H2583 C2558 0.950 . S
H2584 C2560 0.950 . S
H2585 C2561 0.950 . S
H2586 C2563 0.950 . S
H2587 C2565 0.950 . S
C2588 C2589 1.349 . S
C2588 C2590 1.327 . S
C2588 H2613 0.950 . S
C2589 C2588 1.349 . S
C2589 C2605 1.349 . S
C2590 C2588 1.327 . S
C2590 C2609 1.429 . S
C2590 H2614 0.950 . S
C2591 C2608 1.574 . S
C2591 C2610 1.368 1_554 S
C2591 H2615 0.949 . S
H2592 C2596 0.949 . S
C2593 C2594 1.349 . S
C2593 C2595 1.327 . S
C2593 H2616 0.950 . S
C2594 C2593 1.349 . S
C2594 C2606 1.349 . S
C2595 C2593 1.327 . S
C2595 C2611 1.429 . S
C2595 H2617 0.950 . S
C2596 H2592 0.949 . S
C2596 C2604 1.574 . S
C2596 C2612 1.368 1_556 S
H2597 C2605 0.950 . S
H2598 C2603 0.950 . S
H2599 C2604 0.949 . S
H2600 C2606 0.950 . S
H2601 C2607 0.950 . S
H2602 C2608 0.949 . S
C2603 H2598 0.950 . S
C2603 C2605 1.327 . S
C2603 C2609 1.429 . S
C2604 C2596 1.574 . S
C2604 H2599 0.949 . S
C2604 C2610 1.368 . S
C2605 C2589 1.349 . S
C2605 H2597 0.950 . S
C2605 C2603 1.327 . S
C2606 C2594 1.349 . S
C2606 H2600 0.950 . S
C2606 C2607 1.327 . S
C2607 H2601 0.950 . S
C2607 C2606 1.327 . S
C2607 C2611 1.429 . S
C2608 C2591 1.574 . S
C2608 H2602 0.949 . S
C2608 C2612 1.368 . S
C2609 C2590 1.429 . S
C2609 C2603 1.429 . S
C2609 C2610 1.523 . S
C2610 C2591 1.368 1_556 S
C2610 C2604 1.368 . S
C2610 C2609 1.523 . S
C2611 C2595 1.429 . S
C2611 C2607 1.429 . S
C2611 C2612 1.523 . S
C2612 C2596 1.368 1_554 S
C2612 C2608 1.368 . S
C2612 C2611 1.523 . S
H2613 C2588 0.950 . S
H2614 C2590 0.950 . S
H2615 C2591 0.949 . S
H2616 C2593 0.950 . S
H2617 C2595 0.950 . S
C2618 C2619 1.349 . S
C2618 C2620 1.327 1_545 S
C2618 H2643 0.950 1_545 S
C2619 C2618 1.349 . S
C2619 C2635 1.349 . S
C2620 C2618 1.327 1_565 S
C2620 C2639 1.429 1_565 S
C2620 H2644 0.950 . S
C2621 C2638 1.584 1_554 S
C2621 C2640 1.358 1_455 S
C2621 H2645 0.949 . S
H2622 C2626 0.949 . S
C2623 C2624 1.349 . S
C2623 C2625 1.327 1_565 S
C2623 H2646 0.950 1_565 S
C2624 C2623 1.349 . S
C2624 C2636 1.349 . S
C2625 C2623 1.327 1_545 S
C2625 C2641 1.429 1_545 S
C2625 H2647 0.950 . S
C2626 H2622 0.949 . S
C2626 C2634 1.584 1_556 S
C2626 C2642 1.358 1_655 S
H2627 C2635 0.950 . S
H2628 C2633 0.950 . S
H2629 C2634 0.949 . S
H2630 C2636 0.950 . S
H2631 C2637 0.950 . S
H2632 C2638 0.949 . S
C2633 H2628 0.950 . S
C2633 C2635 1.327 . S
C2633 C2639 1.429 . S
C2634 C2626 1.584 1_554 S
C2634 H2629 0.949 . S
C2634 C2640 1.368 1_565 S
C2635 C2619 1.349 . S
C2635 H2627 0.950 . S
C2635 C2633 1.327 . S
C2636 C2624 1.349 . S
C2636 H2630 0.950 . S
C2636 C2637 1.327 . S
C2637 H2631 0.950 . S
C2637 C2636 1.327 . S
C2637 C2641 1.429 . S
C2638 C2621 1.584 1_556 S
C2638 H2632 0.949 . S
C2638 C2642 1.368 1_545 S
C2639 C2620 1.429 1_545 S
C2639 C2633 1.429 . S
C2639 C2640 1.523 . S
C2640 C2621 1.358 1_655 S
C2640 C2634 1.368 1_545 S
C2640 C2639 1.523 . S
C2641 C2625 1.429 1_565 S
C2641 C2637 1.429 . S
C2641 C2642 1.523 . S
C2642 C2626 1.358 1_455 S
C2642 C2638 1.368 1_565 S
C2642 C2641 1.523 . S
H2643 C2618 0.950 1_565 S
H2644 C2620 0.950 . S
H2645 C2621 0.949 . S
H2646 C2623 0.950 1_545 S
H2647 C2625 0.950 . S
C2648 C2649 1.349 . S
C2648 C2650 1.326 1_565 S
C2648 H2673 0.950 1_565 S
C2649 C2648 1.349 . S
C2649 C2665 1.349 . S
C2650 C2648 1.326 1_545 S
C2650 C2669 1.426 1_545 S
C2650 H2674 0.954 . S
C2651 C2668 1.574 . S
C2651 C2670 1.368 . S
C2651 H2675 0.949 . S
H2652 C2656 0.949 . S
C2653 C2654 1.349 . S
C2653 C2655 1.326 1_545 S
C2653 H2676 0.950 1_545 S
C2654 C2653 1.349 . S
C2654 C2666 1.349 . S
C2655 C2653 1.326 1_565 S
C2655 C2671 1.426 1_565 S
C2655 H2677 0.954 . S
C2656 H2652 0.949 . S
C2656 C2664 1.574 . S
C2656 C2672 1.368 . S
H2657 C2665 0.950 . S
H2658 C2663 0.950 . S
H2659 C2664 0.949 . S
H2660 C2666 0.950 . S
H2661 C2667 0.950 . S
H2662 C2668 0.949 . S
C2663 H2658 0.950 . S
C2663 C2665 1.327 . S
C2663 C2669 1.429 . S
C2664 C2656 1.574 . S
C2664 H2659 0.949 . S
C2664 C2670 1.368 1_545 S
C2665 C2649 1.349 . S
C2665 H2657 0.950 . S
C2665 C2663 1.327 . S
C2666 C2654 1.349 . S
C2666 H2660 0.950 . S
C2666 C2667 1.327 . S
C2667 H2661 0.950 . S
C2667 C2666 1.327 . S
C2667 C2671 1.429 . S
C2668 C2651 1.574 . S
C2668 H2662 0.949 . S
C2668 C2672 1.368 1_565 S
C2669 C2650 1.426 1_565 S
C2669 C2663 1.429 . S
C2669 C2670 1.523 . S
C2670 C2651 1.368 . S
C2670 C2664 1.368 1_565 S
C2670 C2669 1.523 . S
C2671 C2655 1.426 1_545 S
C2671 C2667 1.429 . S
C2671 C2672 1.523 . S
C2672 C2656 1.368 . S
C2672 C2668 1.368 1_545 S
C2672 C2671 1.523 . S
H2673 C2648 0.950 1_545 S
H2674 C2650 0.954 . S
H2675 C2651 0.949 . S
H2676 C2653 0.950 1_565 S
H2677 C2655 0.954 . S
C2678 C2679 1.349 . S
C2678 C2680 1.327 . S
C2678 H2703 0.950 . S
C2679 C2678 1.349 . S
C2679 C2695 1.349 . S
C2680 C2678 1.327 . S
C2680 C2699 1.429 . S
C2680 H2704 0.950 . S
C2681 C2698 1.574 1_455 S
C2681 C2700 1.368 . S
C2681 H2705 0.949 . S
H2682 C2686 0.949 . S
C2683 C2684 1.349 . S
C2683 C2685 1.327 . S
C2683 H2706 0.950 . S
C2684 C2683 1.349 . S
C2684 C2696 1.349 . S
C2685 C2683 1.327 . S
C2685 C2701 1.429 . S
C2685 H2707 0.950 . S
C2686 H2682 0.949 . S
C2686 C2694 1.574 1_655 S
C2686 C2702 1.368 . S
H2687 C2695 0.950 . S
H2688 C2693 0.950 . S
H2689 C2694 0.949 . S
H2690 C2696 0.950 . S
H2691 C2697 0.950 . S
H2692 C2698 0.949 . S
C2693 H2688 0.950 . S
C2693 C2695 1.327 . S
C2693 C2699 1.429 . S
C2694 C2686 1.574 1_455 S
C2694 H2689 0.949 . S
C2694 C2700 1.368 . S
C2695 C2679 1.349 . S
C2695 H2687 0.950 . S
C2695 C2693 1.327 . S
C2696 C2684 1.349 . S
C2696 H2690 0.950 . S
C2696 C2697 1.327 . S
C2697 H2691 0.950 . S
C2697 C2696 1.327 . S
C2697 C2701 1.429 . S
C2698 C2681 1.574 1_655 S
C2698 H2692 0.949 . S
C2698 C2702 1.368 . S
C2699 C2680 1.429 . S
C2699 C2693 1.429 . S
C2699 C2700 1.523 . S
C2700 C2681 1.368 . S
C2700 C2694 1.368 . S
C2700 C2699 1.523 . S
C2701 C2685 1.429 . S
C2701 C2697 1.429 . S
C2701 C2702 1.523 . S
C2702 C2686 1.368 . S
C2702 C2698 1.368 . S
C2702 C2701 1.523 . S
H2703 C2678 0.950 . S
H2704 C2680 0.950 . S
H2705 C2681 0.949 . S
H2706 C2683 0.950 . S
H2707 C2685 0.950 . S
C2708 C2709 1.349 . S
C2708 C2710 1.327 . S
C2708 H2733 0.950 . S
C2709 C2708 1.349 . S
C2709 C2725 1.349 . S
C2710 C2708 1.327 . S
C2710 C2729 1.429 . S
C2710 H2734 0.950 . S
C2711 C2728 1.574 . S
C2711 C2730 1.368 1_556 S
C2711 H2735 0.949 . S
H2712 C2716 0.949 . S
C2713 C2714 1.349 . S
C2713 C2715 1.327 . S
C2713 H2736 0.950 . S
C2714 C2713 1.349 . S
C2714 C2726 1.349 . S
C2715 C2713 1.327 . S
C2715 C2731 1.429 . S
C2715 H2737 0.950 . S
C2716 H2712 0.949 . S
C2716 C2724 1.574 . S
C2716 C2732 1.368 1_554 S
H2717 C2725 0.950 . S
H2718 C2723 0.950 . S
H2719 C2724 0.949 . S
H2720 C2726 0.950 . S
H2721 C2727 0.950 . S
H2722 C2728 0.949 . S
C2723 H2718 0.950 . S
C2723 C2725 1.327 . S
C2723 C2729 1.429 . S
C2724 C2716 1.574 . S
C2724 H2719 0.949 . S
C2724 C2730 1.368 . S
C2725 C2709 1.349 . S
C2725 H2717 0.950 . S
C2725 C2723 1.327 . S
C2726 C2714 1.349 . S
C2726 H2720 0.950 . S
C2726 C2727 1.327 . S
C2727 H2721 0.950 . S
C2727 C2726 1.327 . S
C2727 C2731 1.429 . S
C2728 C2711 1.574 . S
C2728 H2722 0.949 . S
C2728 C2732 1.368 . S
C2729 C2710 1.429 . S
C2729 C2723 1.429 . S
C2729 C2730 1.523 . S
C2730 C2711 1.368 1_554 S
C2730 C2724 1.368 . S
C2730 C2729 1.523 . S
C2731 C2715 1.429 . S
C2731 C2727 1.429 . S
C2731 C2732 1.523 . S
C2732 C2716 1.368 1_556 S
C2732 C2728 1.368 . S
C2732 C2731 1.523 . S
H2733 C2708 0.950 . S
H2734 C2710 0.950 . S
H2735 C2711 0.949 . S
H2736 C2713 0.950 . S
H2737 C2715 0.950 . S
C2738 C2739 1.349 . S
C2738 C2740 1.327 . S
C2738 H2763 0.950 . S
C2739 C2738 1.349 . S
C2739 C2755 1.349 . S
C2740 C2738 1.327 . S
C2740 C2759 1.429 . S
C2740 H2764 0.950 . S
C2741 C2758 1.574 . S
C2741 C2760 1.368 . S
C2741 H2765 0.949 . S
H2742 C2746 0.949 . S
C2743 C2744 1.349 . S
C2743 C2745 1.327 . S
C2743 H2766 0.950 . S
C2744 C2743 1.349 . S
C2744 C2756 1.349 . S
C2745 C2743 1.327 . S
C2745 C2761 1.429 . S
C2745 H2767 0.950 . S
C2746 H2742 0.949 . S
C2746 C2754 1.574 . S
C2746 C2762 1.368 . S
H2747 C2755 0.950 . S
H2748 C2753 0.950 . S
H2749 C2754 0.949 . S
H2750 C2756 0.950 . S
H2751 C2757 0.950 . S
H2752 C2758 0.949 . S
C2753 H2748 0.950 . S
C2753 C2755 1.327 . S
C2753 C2759 1.429 . S
C2754 C2746 1.574 . S
C2754 H2749 0.949 . S
C2754 C2760 1.368 . S
C2755 C2739 1.349 . S
C2755 H2747 0.950 . S
C2755 C2753 1.327 . S
C2756 C2744 1.349 . S
C2756 H2750 0.950 . S
C2756 C2757 1.327 . S
C2757 H2751 0.950 . S
C2757 C2756 1.327 . S
C2757 C2761 1.429 . S
C2758 C2741 1.574 . S
C2758 H2752 0.949 . S
C2758 C2762 1.368 . S
C2759 C2740 1.429 . S
C2759 C2753 1.429 . S
C2759 C2760 1.523 . S
C2760 C2741 1.368 . S
C2760 C2754 1.368 . S
C2760 C2759 1.523 . S
C2761 C2745 1.429 . S
C2761 C2757 1.429 . S
C2761 C2762 1.523 . S
C2762 C2746 1.368 . S
C2762 C2758 1.368 . S
C2762 C2761 1.523 . S
H2763 C2738 0.950 . S
H2764 C2740 0.950 . S
H2765 C2741 0.949 . S
H2766 C2743 0.950 . S
H2767 C2745 0.950 . S
C2768 C2769 1.349 . S
C2768 C2770 1.327 . S
C2768 H2793 0.950 . S
C2769 C2768 1.349 . S
C2769 C2785 1.349 . S
C2770 C2768 1.327 . S
C2770 C2789 1.429 . S
C2770 H2794 0.950 . S
C2771 C2788 1.574 . S
C2771 C2790 1.368 . S
C2771 H2795 0.949 . S
H2772 C2776 0.949 . S
C2773 C2774 1.349 . S
C2773 C2775 1.327 . S
C2773 H2796 0.950 . S
C2774 C2773 1.349 . S
C2774 C2786 1.349 . S
C2775 C2773 1.327 . S
C2775 C2791 1.429 . S
C2775 H2797 0.950 . S
C2776 H2772 0.949 . S
C2776 C2784 1.574 . S
C2776 C2792 1.368 . S
H2777 C2785 0.950 . S
H2778 C2783 0.950 . S
H2779 C2784 0.949 . S
H2780 C2786 0.950 . S
H2781 C2787 0.950 . S
H2782 C2788 0.949 . S
C2783 H2778 0.950 . S
C2783 C2785 1.327 . S
C2783 C2789 1.429 . S
C2784 C2776 1.574 . S
C2784 H2779 0.949 . S
C2784 C2790 1.368 . S
C2785 C2769 1.349 . S
C2785 H2777 0.950 . S
C2785 C2783 1.327 . S
C2786 C2774 1.349 . S
C2786 H2780 0.950 . S
C2786 C2787 1.327 . S
C2787 H2781 0.950 . S
C2787 C2786 1.327 . S
C2787 C2791 1.429 . S
C2788 C2771 1.574 . S
C2788 H2782 0.949 . S
C2788 C2792 1.368 . S
C2789 C2770 1.429 . S
C2789 C2783 1.429 . S
C2789 C2790 1.523 . S
C2790 C2771 1.368 . S
C2790 C2784 1.368 . S
C2790 C2789 1.523 . S
C2791 C2775 1.429 . S
C2791 C2787 1.429 . S
C2791 C2792 1.523 . S
C2792 C2776 1.368 . S
C2792 C2788 1.368 . S
C2792 C2791 1.523 . S
H2793 C2768 0.950 . S
H2794 C2770 0.950 . S
H2795 C2771 0.949 . S
H2796 C2773 0.950 . S
H2797 C2775 0.950 . S
C2798 C2799 1.349 . S
C2798 C2800 1.327 . S
C2798 H2823 0.950 . S
C2799 C2798 1.349 . S
C2799 C2815 1.349 . S
C2800 C2798 1.327 . S
C2800 C2819 1.429 . S
C2800 H2824 0.950 . S
C2801 C2818 1.574 1_455 S
C2801 C2820 1.368 . S
C2801 H2825 0.949 . S
H2802 C2806 0.949 . S
C2803 C2804 1.349 . S
C2803 C2805 1.327 . S
C2803 H2826 0.950 . S
C2804 C2803 1.349 . S
C2804 C2816 1.349 . S
C2805 C2803 1.327 . S
C2805 C2821 1.429 . S
C2805 H2827 0.950 . S
C2806 H2802 0.949 . S
C2806 C2814 1.574 1_655 S
C2806 C2822 1.368 . S
H2807 C2815 0.950 . S
H2808 C2813 0.950 . S
H2809 C2814 0.949 . S
H2810 C2816 0.950 . S
H2811 C2817 0.950 . S
H2812 C2818 0.949 . S
C2813 H2808 0.950 . S
C2813 C2815 1.327 . S
C2813 C2819 1.429 . S
C2814 C2806 1.574 1_455 S
C2814 H2809 0.949 . S
C2814 C2820 1.368 . S
C2815 C2799 1.349 . S
C2815 H2807 0.950 . S
C2815 C2813 1.327 . S
C2816 C2804 1.349 . S
C2816 H2810 0.950 . S
C2816 C2817 1.327 . S
C2817 H2811 0.950 . S
C2817 C2816 1.327 . S
C2817 C2821 1.429 . S
C2818 C2801 1.574 1_655 S
C2818 H2812 0.949 . S
C2818 C2822 1.368 . S
C2819 C2800 1.429 . S
C2819 C2813 1.429 . S
C2819 C2820 1.523 . S
C2820 C2801 1.368 . S
C2820 C2814 1.368 . S
C2820 C2819 1.523 . S
C2821 C2805 1.429 . S
C2821 C2817 1.429 . S
C2821 C2822 1.523 . S
C2822 C2806 1.368 . S
C2822 C2818 1.368 . S
C2822 C2821 1.523 . S
H2823 C2798 0.950 . S
H2824 C2800 0.950 . S
H2825 C2801 0.949 . S
H2826 C2803 0.950 . S
H2827 C2805 0.950 . S
C2828 C2829 1.349 . S
C2828 C2830 1.327 . S
C2828 H2853 0.950 . S
C2829 C2828 1.349 . S
C2829 C2845 1.349 . S
C2830 C2828 1.327 . S
C2830 C2849 1.429 . S
C2830 H2854 0.950 . S
C2831 C2848 1.574 . S
C2831 C2850 1.368 . S
C2831 H2855 0.949 . S
H2832 C2836 0.949 . S
C2833 C2834 1.349 . S
C2833 C2835 1.327 . S
C2833 H2856 0.950 . S
C2834 C2833 1.349 . S
C2834 C2846 1.349 . S
C2835 C2833 1.327 . S
C2835 C2851 1.429 . S
C2835 H2857 0.950 . S
C2836 H2832 0.949 . S
C2836 C2844 1.574 . S
C2836 C2852 1.368 . S
H2837 C2845 0.950 . S
H2838 C2843 0.950 . S
H2839 C2844 0.949 . S
H2840 C2846 0.950 . S
H2841 C2847 0.950 . S
H2842 C2848 0.949 . S
C2843 H2838 0.950 . S
C2843 C2845 1.327 . S
C2843 C2849 1.429 . S
C2844 C2836 1.574 . S
C2844 H2839 0.949 . S
C2844 C2850 1.368 . S
C2845 C2829 1.349 . S
C2845 H2837 0.950 . S
C2845 C2843 1.327 . S
C2846 C2834 1.349 . S
C2846 H2840 0.950 . S
C2846 C2847 1.327 . S
C2847 H2841 0.950 . S
C2847 C2846 1.327 . S
C2847 C2851 1.429 . S
C2848 C2831 1.574 . S
C2848 H2842 0.949 . S
C2848 C2852 1.368 . S
C2849 C2830 1.429 . S
C2849 C2843 1.429 . S
C2849 C2850 1.523 . S
C2850 C2831 1.368 . S
C2850 C2844 1.368 . S
C2850 C2849 1.523 . S
C2851 C2835 1.429 . S
C2851 C2847 1.429 . S
C2851 C2852 1.523 . S
C2852 C2836 1.368 . S
C2852 C2848 1.368 . S
C2852 C2851 1.523 . S
H2853 C2828 0.950 . S
H2854 C2830 0.950 . S
H2855 C2831 0.949 . S
H2856 C2833 0.950 . S
H2857 C2835 0.950 . S
C2858 C2859 1.349 . S
C2858 C2860 1.327 . S
C2858 H2883 0.950 . S
C2859 C2858 1.349 . S
C2859 C2875 1.349 . S
C2860 C2858 1.327 . S
C2860 C2879 1.429 . S
C2860 H2884 0.950 . S
C2861 C2878 1.574 . S
C2861 C2880 1.368 . S
C2861 H2885 0.949 . S
H2862 C2866 0.949 . S
C2863 C2864 1.349 . S
C2863 C2865 1.327 . S
C2863 H2886 0.950 . S
C2864 C2863 1.349 . S
C2864 C2876 1.349 . S
C2865 C2863 1.327 . S
C2865 C2881 1.429 . S
C2865 H2887 0.950 . S
C2866 H2862 0.949 . S
C2866 C2874 1.574 . S
C2866 C2882 1.368 . S
H2867 C2875 0.950 . S
H2868 C2873 0.950 . S
H2869 C2874 0.949 . S
H2870 C2876 0.950 . S
H2871 C2877 0.950 . S
H2872 C2878 0.949 . S
C2873 H2868 0.950 . S
C2873 C2875 1.327 . S
C2873 C2879 1.429 . S
C2874 C2866 1.574 . S
C2874 H2869 0.949 . S
C2874 C2880 1.368 . S
C2875 C2859 1.349 . S
C2875 H2867 0.950 . S
C2875 C2873 1.327 . S
C2876 C2864 1.349 . S
C2876 H2870 0.950 . S
C2876 C2877 1.327 . S
C2877 H2871 0.950 . S
C2877 C2876 1.327 . S
C2877 C2881 1.429 . S
C2878 C2861 1.574 . S
C2878 H2872 0.949 . S
C2878 C2882 1.368 . S
C2879 C2860 1.429 . S
C2879 C2873 1.429 . S
C2879 C2880 1.523 . S
C2880 C2861 1.368 . S
C2880 C2874 1.368 . S
C2880 C2879 1.523 . S
C2881 C2865 1.429 . S
C2881 C2877 1.429 . S
C2881 C2882 1.523 . S
C2882 C2866 1.368 . S
C2882 C2878 1.368 . S
C2882 C2881 1.523 . S
H2883 C2858 0.950 . S
H2884 C2860 0.950 . S
H2885 C2861 0.949 . S
H2886 C2863 0.950 . S
H2887 C2865 0.950 . S
C2888 C2889 1.349 . S
C2888 C2890 1.327 . S
C2888 H2913 0.950 . S
C2889 C2888 1.349 . S
C2889 C2905 1.349 . S
C2890 C2888 1.327 . S
C2890 C2909 1.429 . S
C2890 H2914 0.950 . S
C2891 C2908 1.574 . S
C2891 C2910 1.368 . S
C2891 H2915 0.949 . S
H2892 C2896 0.949 . S
C2893 C2894 1.349 . S
C2893 C2895 1.327 . S
C2893 H2916 0.950 . S
C2894 C2893 1.349 . S
C2894 C2906 1.349 . S
C2895 C2893 1.327 . S
C2895 C2911 1.429 . S
C2895 H2917 0.950 . S
C2896 H2892 0.949 . S
C2896 C2904 1.574 . S
C2896 C2912 1.368 . S
H2897 C2905 0.950 . S
H2898 C2903 0.950 . S
H2899 C2904 0.949 . S
H2900 C2906 0.950 . S
H2901 C2907 0.950 . S
H2902 C2908 0.949 . S
C2903 H2898 0.950 . S
C2903 C2905 1.327 . S
C2903 C2909 1.429 . S
C2904 C2896 1.574 . S
C2904 H2899 0.949 . S
C2904 C2910 1.368 . S
C2905 C2889 1.349 . S
C2905 H2897 0.950 . S
C2905 C2903 1.327 . S
C2906 C2894 1.349 . S
C2906 H2900 0.950 . S
C2906 C2907 1.327 . S
C2907 H2901 0.950 . S
C2907 C2906 1.327 . S
C2907 C2911 1.429 . S
C2908 C2891 1.574 . S
C2908 H2902 0.949 . S
C2908 C2912 1.368 . S
C2909 C2890 1.429 . S
C2909 C2903 1.429 . S
C2909 C2910 1.523 . S
C2910 C2891 1.368 . S
C2910 C2904 1.368 . S
C2910 C2909 1.523 . S
C2911 C2895 1.429 . S
C2911 C2907 1.429 . S
C2911 C2912 1.523 . S
C2912 C2896 1.368 . S
C2912 C2908 1.368 . S
C2912 C2911 1.523 . S
H2913 C2888 0.950 . S
H2914 C2890 0.950 . S
H2915 C2891 0.949 . S
H2916 C2893 0.950 . S
H2917 C2895 0.950 . S
C2918 C2919 1.349 . S
C2918 C2920 1.327 . S
C2918 H2943 0.950 . S
C2919 C2918 1.349 . S
C2919 C2935 1.349 . S
C2920 C2918 1.327 . S
C2920 C2939 1.429 . S
C2920 H2944 0.950 . S
C2921 C2938 1.574 . S
C2921 C2940 1.368 1_545 S
C2921 H2945 0.949 . S
H2922 C2926 0.949 . S
C2923 C2924 1.349 . S
C2923 C2925 1.327 . S
C2923 H2946 0.950 . S
C2924 C2923 1.349 . S
C2924 C2936 1.349 . S
C2925 C2923 1.327 . S
C2925 C2941 1.429 . S
C2925 H2947 0.950 . S
C2926 H2922 0.949 . S
C2926 C2934 1.574 . S
C2926 C2942 1.368 1_565 S
H2927 C2935 0.924 1_545 S
H2928 C2933 0.933 1_545 S
H2929 C2934 0.949 . S
H2930 C2936 0.924 1_565 S
H2931 C2937 0.933 1_565 S
H2932 C2938 0.949 . S
C2933 H2928 0.933 1_565 S
C2933 C2935 1.333 . S
C2933 C2939 1.439 . S
C2934 C2926 1.574 . S
C2934 H2929 0.949 . S
C2934 C2940 1.368 . S
C2935 C2919 1.349 . S
C2935 H2927 0.924 1_565 S
C2935 C2933 1.333 . S
C2936 C2924 1.349 . S
C2936 H2930 0.924 1_545 S
C2936 C2937 1.333 . S
C2937 H2931 0.933 1_545 S
C2937 C2936 1.333 . S
C2937 C2941 1.439 . S
C2938 C2921 1.574 . S
C2938 H2932 0.949 . S
C2938 C2942 1.368 . S
C2939 C2920 1.429 . S
C2939 C2933 1.439 . S
C2939 C2940 1.523 . S
C2940 C2921 1.368 1_565 S
C2940 C2934 1.368 . S
C2940 C2939 1.523 . S
C2941 C2925 1.429 . S
C2941 C2937 1.439 . S
C2941 C2942 1.523 . S
C2942 C2926 1.368 1_545 S
C2942 C2938 1.368 . S
C2942 C2941 1.523 . S
H2943 C2918 0.950 . S
H2944 C2920 0.950 . S
H2945 C2921 0.949 . S
H2946 C2923 0.950 . S
H2947 C2925 0.950 . S
C2948 C2949 1.349 . S
C2948 C2950 1.327 . S
C2948 H2973 0.950 . S
C2949 C2948 1.349 . S
C2949 C2965 1.349 . S
C2950 C2948 1.327 . S
C2950 C2969 1.429 . S
C2950 H2974 0.950 . S
C2951 C2968 1.574 . S
C2951 C2970 1.368 . S
C2951 H2975 0.949 . S
H2952 C2956 0.949 . S
C2953 C2954 1.349 . S
C2953 C2955 1.327 . S
C2953 H2976 0.950 . S
C2954 C2953 1.349 . S
C2954 C2966 1.349 . S
C2955 C2953 1.327 . S
C2955 C2971 1.429 . S
C2955 H2977 0.950 . S
C2956 H2952 0.949 . S
C2956 C2964 1.574 . S
C2956 C2972 1.368 . S
H2957 C2965 0.950 . S
H2958 C2963 0.950 . S
H2959 C2964 0.949 . S
H2960 C2966 0.950 . S
H2961 C2967 0.950 . S
H2962 C2968 0.949 . S
C2963 H2958 0.950 . S
C2963 C2965 1.327 . S
C2963 C2969 1.429 . S
C2964 C2956 1.574 . S
C2964 H2959 0.949 . S
C2964 C2970 1.368 . S
C2965 C2949 1.349 . S
C2965 H2957 0.950 . S
C2965 C2963 1.327 . S
C2966 C2954 1.349 . S
C2966 H2960 0.950 . S
C2966 C2967 1.327 . S
C2967 H2961 0.950 . S
C2967 C2966 1.327 . S
C2967 C2971 1.429 . S
C2968 C2951 1.574 . S
C2968 H2962 0.949 . S
C2968 C2972 1.368 . S
C2969 C2950 1.429 . S
C2969 C2963 1.429 . S
C2969 C2970 1.523 . S
C2970 C2951 1.368 . S
C2970 C2964 1.368 . S
C2970 C2969 1.523 . S
C2971 C2955 1.429 . S
C2971 C2967 1.429 . S
C2971 C2972 1.523 . S
C2972 C2956 1.368 . S
C2972 C2968 1.368 . S
C2972 C2971 1.523 . S
H2973 C2948 0.950 . S
H2974 C2950 0.950 . S
H2975 C2951 0.949 . S
H2976 C2953 0.950 . S
H2977 C2955 0.950 . S
C2978 C2979 1.349 . S
C2978 C2980 1.327 . S
C2978 H3003 0.950 . S
C2979 C2978 1.349 . S
C2979 C2995 1.349 . S
C2980 C2978 1.327 . S
C2980 C2999 1.429 . S
C2980 H3004 0.950 . S
C2981 C2998 1.574 . S
C2981 C3000 1.368 1_554 S
C2981 H3005 0.949 . S
H2982 C2986 0.949 . S
C2983 C2984 1.349 . S
C2983 C2985 1.327 . S
C2983 H3006 0.950 . S
C2984 C2983 1.349 . S
C2984 C2996 1.349 . S
C2985 C2983 1.327 . S
C2985 C3001 1.429 . S
C2985 H3007 0.950 . S
C2986 H2982 0.949 . S
C2986 C2994 1.574 . S
C2986 C3002 1.368 1_556 S
H2987 C2995 0.950 . S
H2988 C2993 0.950 . S
H2989 C2994 0.949 . S
H2990 C2996 0.950 . S
H2991 C2997 0.950 . S
H2992 C2998 0.949 . S
C2993 H2988 0.950 . S
C2993 C2995 1.327 . S
C2993 C2999 1.429 . S
C2994 C2986 1.574 . S
C2994 H2989 0.949 . S
C2994 C3000 1.368 . S
C2995 C2979 1.349 . S
C2995 H2987 0.950 . S
C2995 C2993 1.327 . S
C2996 C2984 1.349 . S
C2996 H2990 0.950 . S
C2996 C2997 1.327 . S
C2997 H2991 0.950 . S
C2997 C2996 1.327 . S
C2997 C3001 1.429 . S
C2998 C2981 1.574 . S
C2998 H2992 0.949 . S
C2998 C3002 1.368 . S
C2999 C2980 1.429 . S
C2999 C2993 1.429 . S
C2999 C3000 1.523 . S
C3000 C2981 1.368 1_556 S
C3000 C2994 1.368 . S
C3000 C2999 1.523 . S
C3001 C2985 1.429 . S
C3001 C2997 1.429 . S
C3001 C3002 1.523 . S
C3002 C2986 1.368 1_554 S
C3002 C2998 1.368 . S
C3002 C3001 1.523 . S
H3003 C2978 0.950 . S
H3004 C2980 0.950 . S
H3005 C2981 0.949 . S
H3006 C2983 0.950 . S
H3007 C2985 0.950 . S
C3008 C3009 1.349 . S
C3008 C3010 1.327 . S
C3008 H3033 0.950 . S
C3009 C3008 1.349 . S
C3009 C3025 1.349 . S
C3010 C3008 1.327 . S
C3010 C3029 1.429 . S
C3010 H3034 0.950 . S
C3011 C3028 1.574 . S
C3011 C3030 1.368 . S
C3011 H3035 0.949 . S
H3012 C3016 0.949 . S
C3013 C3014 1.349 . S
C3013 C3015 1.327 . S
C3013 H3036 0.950 . S
C3014 C3013 1.349 . S
C3014 C3026 1.349 . S
C3015 C3013 1.327 . S
C3015 C3031 1.429 . S
C3015 H3037 0.950 . S
C3016 H3012 0.949 . S
C3016 C3024 1.574 . S
C3016 C3032 1.368 . S
H3017 C3025 0.950 . S
H3018 C3023 0.950 . S
H3019 C3024 0.949 . S
H3020 C3026 0.950 . S
H3021 C3027 0.950 . S
H3022 C3028 0.949 . S
C3023 H3018 0.950 . S
C3023 C3025 1.327 . S
C3023 C3029 1.429 . S
C3024 C3016 1.574 . S
C3024 H3019 0.949 . S
C3024 C3030 1.368 . S
C3025 C3009 1.349 . S
C3025 H3017 0.950 . S
C3025 C3023 1.327 . S
C3026 C3014 1.349 . S
C3026 H3020 0.950 . S
C3026 C3027 1.327 . S
C3027 H3021 0.950 . S
C3027 C3026 1.327 . S
C3027 C3031 1.429 . S
C3028 C3011 1.574 . S
C3028 H3022 0.949 . S
C3028 C3032 1.368 . S
C3029 C3010 1.429 . S
C3029 C3023 1.429 . S
C3029 C3030 1.523 . S
C3030 C3011 1.368 . S
C3030 C3024 1.368 . S
C3030 C3029 1.523 . S
C3031 C3015 1.429 . S
C3031 C3027 1.429 . S
C3031 C3032 1.523 . S
C3032 C3016 1.368 . S
C3032 C3028 1.368 . S
C3032 C3031 1.523 . S
H3033 C3008 0.950 . S
H3034 C3010 0.950 . S
H3035 C3011 0.949 . S
H3036 C3013 0.950 . S
H3037 C3015 0.950 . S
C3038 C3039 1.349 . S
C3038 C3040 1.327 . S
C3038 H3063 0.950 . S
C3039 C3038 1.349 . S
C3039 C3055 1.349 . S
C3040 C3038 1.327 . S
C3040 C3059 1.429 . S
C3040 H3064 0.950 . S
C3041 C3058 1.574 . S
C3041 C3060 1.368 . S
C3041 H3065 0.949 . S
H3042 C3046 0.949 . S
C3043 C3044 1.349 . S
C3043 C3045 1.327 . S
C3043 H3066 0.950 . S
C3044 C3043 1.349 . S
C3044 C3056 1.349 . S
C3045 C3043 1.327 . S
C3045 C3061 1.429 . S
C3045 H3067 0.950 . S
C3046 H3042 0.949 . S
C3046 C3054 1.574 . S
C3046 C3062 1.368 . S
H3047 C3055 0.950 . S
H3048 C3053 0.950 . S
H3049 C3054 0.949 . S
H3050 C3056 0.950 . S
H3051 C3057 0.950 . S
H3052 C3058 0.949 . S
C3053 H3048 0.950 . S
C3053 C3055 1.327 . S
C3053 C3059 1.429 . S
C3054 C3046 1.574 . S
C3054 H3049 0.949 . S
C3054 C3060 1.368 . S
C3055 C3039 1.349 . S
C3055 H3047 0.950 . S
C3055 C3053 1.327 . S
C3056 C3044 1.349 . S
C3056 H3050 0.950 . S
C3056 C3057 1.327 . S
C3057 H3051 0.950 . S
C3057 C3056 1.327 . S
C3057 C3061 1.429 . S
C3058 C3041 1.574 . S
C3058 H3052 0.949 . S
C3058 C3062 1.368 . S
C3059 C3040 1.429 . S
C3059 C3053 1.429 . S
C3059 C3060 1.523 . S
C3060 C3041 1.368 . S
C3060 C3054 1.368 . S
C3060 C3059 1.523 . S
C3061 C3045 1.429 . S
C3061 C3057 1.429 . S
C3061 C3062 1.523 . S
C3062 C3046 1.368 . S
C3062 C3058 1.368 . S
C3062 C3061 1.523 . S
H3063 C3038 0.950 . S
H3064 C3040 0.950 . S
H3065 C3041 0.949 . S
H3066 C3043 0.950 . S
H3067 C3045 0.950 . S
C3068 C3069 1.349 . S
C3068 C3070 1.327 . S
C3068 H3093 0.950 . S
C3069 C3068 1.349 . S
C3069 C3085 1.349 . S
C3070 C3068 1.327 . S
C3070 C3089 1.429 . S
C3070 H3094 0.950 . S
C3071 C3088 1.574 . S
C3071 C3090 1.368 . S
C3071 H3095 0.949 . S
H3072 C3076 0.949 . S
C3073 C3074 1.349 . S
C3073 C3075 1.327 . S
C3073 H3096 0.950 . S
C3074 C3073 1.349 . S
C3074 C3086 1.349 . S
C3075 C3073 1.327 . S
C3075 C3091 1.429 . S
C3075 H3097 0.950 . S
C3076 H3072 0.949 . S
C3076 C3084 1.574 . S
C3076 C3092 1.368 . S
H3077 C3085 0.950 . S
H3078 C3083 0.950 . S
H3079 C3084 0.949 . S
H3080 C3086 0.950 . S
H3081 C3087 0.950 . S
H3082 C3088 0.949 . S
C3083 H3078 0.950 . S
C3083 C3085 1.327 . S
C3083 C3089 1.429 . S
C3084 C3076 1.574 . S
C3084 H3079 0.949 . S
C3084 C3090 1.368 . S
C3085 C3069 1.349 . S
C3085 H3077 0.950 . S
C3085 C3083 1.327 . S
C3086 C3074 1.349 . S
C3086 H3080 0.950 . S
C3086 C3087 1.327 . S
C3087 H3081 0.950 . S
C3087 C3086 1.327 . S
C3087 C3091 1.429 . S
C3088 C3071 1.574 . S
C3088 H3082 0.949 . S
C3088 C3092 1.368 . S
C3089 C3070 1.429 . S
C3089 C3083 1.429 . S
C3089 C3090 1.523 . S
C3090 C3071 1.368 . S
C3090 C3084 1.368 . S
C3090 C3089 1.523 . S
C3091 C3075 1.429 . S
C3091 C3087 1.429 . S
C3091 C3092 1.523 . S
C3092 C3076 1.368 . S
C3092 C3088 1.368 . S
C3092 C3091 1.523 . S
H3093 C3068 0.950 . S
H3094 C3070 0.950 . S
H3095 C3071 0.949 . S
H3096 C3073 0.950 . S
H3097 C3075 0.950 . S
C3098 C3099 1.349 . S
C3098 C3100 1.327 . S
C3098 H3123 0.950 . S
C3099 C3098 1.349 . S
C3099 C3115 1.349 . S
C3100 C3098 1.327 . S
C3100 C3119 1.429 . S
C3100 H3124 0.950 . S
C3101 C3118 1.574 . S
C3101 C3120 1.368 . S
C3101 H3125 0.949 . S
H3102 C3106 0.949 . S
C3103 C3104 1.349 . S
C3103 C3105 1.327 . S
C3103 H3126 0.950 . S
C3104 C3103 1.349 . S
C3104 C3116 1.349 . S
C3105 C3103 1.327 . S
C3105 C3121 1.429 . S
C3105 H3127 0.950 . S
C3106 H3102 0.949 . S
C3106 C3114 1.574 . S
C3106 C3122 1.368 . S
H3107 C3115 0.950 . S
H3108 C3113 0.950 . S
H3109 C3114 0.949 . S
H3110 C3116 0.950 . S
H3111 C3117 0.950 . S
H3112 C3118 0.949 . S
C3113 H3108 0.950 . S
C3113 C3115 1.327 . S
C3113 C3119 1.429 . S
C3114 C3106 1.574 . S
C3114 H3109 0.949 . S
C3114 C3120 1.368 . S
C3115 C3099 1.349 . S
C3115 H3107 0.950 . S
C3115 C3113 1.327 . S
C3116 C3104 1.349 . S
C3116 H3110 0.950 . S
C3116 C3117 1.327 . S
C3117 H3111 0.950 . S
C3117 C3116 1.327 . S
C3117 C3121 1.429 . S
C3118 C3101 1.574 . S
C3118 H3112 0.949 . S
C3118 C3122 1.368 . S
C3119 C3100 1.429 . S
C3119 C3113 1.429 . S
C3119 C3120 1.523 . S
C3120 C3101 1.368 . S
C3120 C3114 1.368 . S
C3120 C3119 1.523 . S
C3121 C3105 1.429 . S
C3121 C3117 1.429 . S
C3121 C3122 1.523 . S
C3122 C3106 1.368 . S
C3122 C3118 1.368 . S
C3122 C3121 1.523 . S
H3123 C3098 0.950 . S
H3124 C3100 0.950 . S
H3125 C3101 0.949 . S
H3126 C3103 0.950 . S
H3127 C3105 0.950 . S
C3128 C3129 1.349 . S
C3128 C3130 1.327 . S
C3128 H3153 0.950 . S
C3129 C3128 1.349 . S
C3129 C3145 1.349 . S
C3130 C3128 1.327 . S
C3130 C3149 1.429 . S
C3130 H3154 0.950 . S
C3131 C3148 1.574 . S
C3131 C3150 1.368 . S
C3131 H3155 0.949 . S
H3132 C3136 0.949 . S
C3133 C3134 1.349 . S
C3133 C3135 1.327 . S
C3133 H3156 0.950 . S
C3134 C3133 1.349 . S
C3134 C3146 1.349 . S
C3135 C3133 1.327 . S
C3135 C3151 1.429 . S
C3135 H3157 0.950 . S
C3136 H3132 0.949 . S
C3136 C3144 1.574 . S
C3136 C3152 1.368 . S
H3137 C3145 0.950 . S
H3138 C3143 0.950 . S
H3139 C3144 0.949 . S
H3140 C3146 0.950 . S
H3141 C3147 0.950 . S
H3142 C3148 0.949 . S
C3143 H3138 0.950 . S
C3143 C3145 1.327 . S
C3143 C3149 1.429 . S
C3144 C3136 1.574 . S
C3144 H3139 0.949 . S
C3144 C3150 1.368 . S
C3145 C3129 1.349 . S
C3145 H3137 0.950 . S
C3145 C3143 1.327 . S
C3146 C3134 1.349 . S
C3146 H3140 0.950 . S
C3146 C3147 1.327 . S
C3147 H3141 0.950 . S
C3147 C3146 1.327 . S
C3147 C3151 1.429 . S
C3148 C3131 1.574 . S
C3148 H3142 0.949 . S
C3148 C3152 1.368 . S
C3149 C3130 1.429 . S
C3149 C3143 1.429 . S
C3149 C3150 1.523 . S
C3150 C3131 1.368 . S
C3150 C3144 1.368 . S
C3150 C3149 1.523 . S
C3151 C3135 1.429 . S
C3151 C3147 1.429 . S
C3151 C3152 1.523 . S
C3152 C3136 1.368 . S
C3152 C3148 1.368 . S
C3152 C3151 1.523 . S
H3153 C3128 0.950 . S
H3154 C3130 0.950 . S
H3155 C3131 0.949 . S
H3156 C3133 0.950 . S
H3157 C3135 0.950 . S
C3158 C3159 1.349 . S
C3158 C3160 1.327 . S
C3158 H3183 0.950 . S
C3159 C3158 1.349 . S
C3159 C3175 1.349 . S
C3160 C3158 1.327 . S
C3160 C3179 1.429 . S
C3160 H3184 0.950 . S
C3161 C3178 1.574 . S
C3161 C3180 1.368 . S
C3161 H3185 0.949 . S
H3162 C3166 0.949 . S
C3163 C3164 1.349 . S
C3163 C3165 1.327 . S
C3163 H3186 0.950 . S
C3164 C3163 1.349 . S
C3164 C3176 1.349 . S
C3165 C3163 1.327 . S
C3165 C3181 1.429 . S
C3165 H3187 0.950 . S
C3166 H3162 0.949 . S
C3166 C3174 1.574 . S
C3166 C3182 1.368 . S
H3167 C3175 0.950 . S
H3168 C3173 0.950 . S
H3169 C3174 0.949 . S
H3170 C3176 0.950 . S
H3171 C3177 0.950 . S
H3172 C3178 0.949 . S
C3173 H3168 0.950 . S
C3173 C3175 1.327 . S
C3173 C3179 1.429 . S
C3174 C3166 1.574 . S
C3174 H3169 0.949 . S
C3174 C3180 1.368 . S
C3175 C3159 1.349 . S
C3175 H3167 0.950 . S
C3175 C3173 1.327 . S
C3176 C3164 1.349 . S
C3176 H3170 0.950 . S
C3176 C3177 1.327 . S
C3177 H3171 0.950 . S
C3177 C3176 1.327 . S
C3177 C3181 1.429 . S
C3178 C3161 1.574 . S
C3178 H3172 0.949 . S
C3178 C3182 1.368 . S
C3179 C3160 1.429 . S
C3179 C3173 1.429 . S
C3179 C3180 1.523 . S
C3180 C3161 1.368 . S
C3180 C3174 1.368 . S
C3180 C3179 1.523 . S
C3181 C3165 1.429 . S
C3181 C3177 1.429 . S
C3181 C3182 1.523 . S
C3182 C3166 1.368 . S
C3182 C3178 1.368 . S
C3182 C3181 1.523 . S
H3183 C3158 0.950 . S
H3184 C3160 0.950 . S
H3185 C3161 0.949 . S
H3186 C3163 0.950 . S
H3187 C3165 0.950 . S
C3188 C3189 1.349 . S
C3188 C3190 1.327 . S
C3188 H3213 0.950 . S
C3189 C3188 1.349 . S
C3189 C3205 1.349 . S
C3190 C3188 1.327 . S
C3190 C3209 1.429 . S
C3190 H3214 0.950 . S
C3191 C3208 1.574 . S
C3191 C3210 1.368 . S
C3191 H3215 0.949 . S
H3192 C3196 0.949 . S
C3193 C3194 1.349 . S
C3193 C3195 1.327 . S
C3193 H3216 0.950 . S
C3194 C3193 1.349 . S
C3194 C3206 1.349 . S
C3195 C3193 1.327 . S
C3195 C3211 1.429 . S
C3195 H3217 0.950 . S
C3196 H3192 0.949 . S
C3196 C3204 1.574 . S
C3196 C3212 1.368 . S
H3197 C3205 0.950 . S
H3198 C3203 0.950 . S
H3199 C3204 0.949 . S
H3200 C3206 0.950 . S
H3201 C3207 0.950 . S
H3202 C3208 0.949 . S
C3203 H3198 0.950 . S
C3203 C3205 1.327 . S
C3203 C3209 1.429 . S
C3204 C3196 1.574 . S
C3204 H3199 0.949 . S
C3204 C3210 1.368 . S
C3205 C3189 1.349 . S
C3205 H3197 0.950 . S
C3205 C3203 1.327 . S
C3206 C3194 1.349 . S
C3206 H3200 0.950 . S
C3206 C3207 1.327 . S
C3207 H3201 0.950 . S
C3207 C3206 1.327 . S
C3207 C3211 1.429 . S
C3208 C3191 1.574 . S
C3208 H3202 0.949 . S
C3208 C3212 1.368 . S
C3209 C3190 1.429 . S
C3209 C3203 1.429 . S
C3209 C3210 1.523 . S
C3210 C3191 1.368 . S
C3210 C3204 1.368 . S
C3210 C3209 1.523 . S
C3211 C3195 1.429 . S
C3211 C3207 1.429 . S
C3211 C3212 1.523 . S
C3212 C3196 1.368 . S
C3212 C3208 1.368 . S
C3212 C3211 1.523 . S
H3213 C3188 0.950 . S
H3214 C3190 0.950 . S
H3215 C3191 0.949 . S
H3216 C3193 0.950 . S
H3217 C3195 0.950 . S
C3218 C3219 1.349 . S
C3218 C3220 1.327 . S
C3218 H3243 0.950 . S
C3219 C3218 1.349 . S
C3219 C3235 1.349 . S
C3220 C3218 1.327 . S
C3220 C3239 1.429 . S
C3220 H3244 0.950 . S
C3221 C3238 1.574 . S
C3221 C3240 1.368 . S
C3221 H3245 0.949 . S
H3222 C3226 0.949 . S
C3223 C3224 1.349 . S
C3223 C3225 1.327 . S
C3223 H3246 0.950 . S
C3224 C3223 1.349 . S
C3224 C3236 1.349 . S
C3225 C3223 1.327 . S
C3225 C3241 1.429 . S
C3225 H3247 0.950 . S
C3226 H3222 0.949 . S
C3226 C3234 1.574 . S
C3226 C3242 1.368 . S
H3227 C3235 0.950 . S
H3228 C3233 0.950 . S
H3229 C3234 0.949 . S
H3230 C3236 0.950 . S
H3231 C3237 0.950 . S
H3232 C3238 0.949 . S
C3233 H3228 0.950 . S
C3233 C3235 1.327 . S
C3233 C3239 1.429 . S
C3234 C3226 1.574 . S
C3234 H3229 0.949 . S
C3234 C3240 1.368 . S
C3235 C3219 1.349 . S
C3235 H3227 0.950 . S
C3235 C3233 1.327 . S
C3236 C3224 1.349 . S
C3236 H3230 0.950 . S
C3236 C3237 1.327 . S
C3237 H3231 0.950 . S
C3237 C3236 1.327 . S
C3237 C3241 1.429 . S
C3238 C3221 1.574 . S
C3238 H3232 0.949 . S
C3238 C3242 1.368 . S
C3239 C3220 1.429 . S
C3239 C3233 1.429 . S
C3239 C3240 1.523 . S
C3240 C3221 1.368 . S
C3240 C3234 1.368 . S
C3240 C3239 1.523 . S
C3241 C3225 1.429 . S
C3241 C3237 1.429 . S
C3241 C3242 1.523 . S
C3242 C3226 1.368 . S
C3242 C3238 1.368 . S
C3242 C3241 1.523 . S
H3243 C3218 0.950 . S
H3244 C3220 0.950 . S
H3245 C3221 0.949 . S
H3246 C3223 0.950 . S
H3247 C3225 0.950 . S
C3248 C3249 1.349 . S
C3248 C3250 1.327 . S
C3248 H3273 0.950 . S
C3249 C3248 1.349 . S
C3249 C3265 1.349 . S
C3250 C3248 1.327 . S
C3250 C3269 1.429 . S
C3250 H3274 0.950 . S
C3251 C3268 1.574 . S
C3251 C3270 1.368 . S
C3251 H3275 0.949 . S
H3252 C3256 0.949 . S
C3253 C3254 1.349 . S
C3253 C3255 1.327 . S
C3253 H3276 0.950 . S
C3254 C3253 1.349 . S
C3254 C3266 1.349 . S
C3255 C3253 1.327 . S
C3255 C3271 1.429 . S
C3255 H3277 0.950 . S
C3256 H3252 0.949 . S
C3256 C3264 1.574 . S
C3256 C3272 1.368 . S
H3257 C3265 0.950 . S
H3258 C3263 0.950 . S
H3259 C3264 0.949 . S
H3260 C3266 0.950 . S
H3261 C3267 0.950 . S
H3262 C3268 0.949 . S
C3263 H3258 0.950 . S
C3263 C3265 1.327 . S
C3263 C3269 1.429 . S
C3264 C3256 1.574 . S
C3264 H3259 0.949 . S
C3264 C3270 1.368 . S
C3265 C3249 1.349 . S
C3265 H3257 0.950 . S
C3265 C3263 1.327 . S
C3266 C3254 1.349 . S
C3266 H3260 0.950 . S
C3266 C3267 1.327 . S
C3267 H3261 0.950 . S
C3267 C3266 1.327 . S
C3267 C3271 1.429 . S
C3268 C3251 1.574 . S
C3268 H3262 0.949 . S
C3268 C3272 1.368 . S
C3269 C3250 1.429 . S
C3269 C3263 1.429 . S
C3269 C3270 1.523 . S
C3270 C3251 1.368 . S
C3270 C3264 1.368 . S
C3270 C3269 1.523 . S
C3271 C3255 1.429 . S
C3271 C3267 1.429 . S
C3271 C3272 1.523 . S
C3272 C3256 1.368 . S
C3272 C3268 1.368 . S
C3272 C3271 1.523 . S
H3273 C3248 0.950 . S
H3274 C3250 0.950 . S
H3275 C3251 0.949 . S
H3276 C3253 0.950 . S
H3277 C3255 0.950 . S
C3278 C3279 1.349 . S
C3278 C3280 1.327 . S
C3278 H3303 0.950 . S
C3279 C3278 1.349 . S
C3279 C3295 1.349 . S
C3280 C3278 1.327 . S
C3280 C3299 1.429 . S
C3280 H3304 0.950 . S
C3281 C3298 1.574 . S
C3281 C3300 1.368 . S
C3281 H3305 0.949 . S
H3282 C3286 0.949 . S
C3283 C3284 1.349 . S
C3283 C3285 1.327 . S
C3283 H3306 0.950 . S
C3284 C3283 1.349 . S
C3284 C3296 1.349 . S
C3285 C3283 1.327 . S
C3285 C3301 1.429 . S
C3285 H3307 0.950 . S
C3286 H3282 0.949 . S
C3286 C3294 1.574 . S
C3286 C3302 1.368 . S
H3287 C3295 0.950 . S
H3288 C3293 0.950 . S
H3289 C3294 0.949 . S
H3290 C3296 0.950 . S
H3291 C3297 0.950 . S
H3292 C3298 0.949 . S
C3293 H3288 0.950 . S
C3293 C3295 1.327 . S
C3293 C3299 1.429 . S
C3294 C3286 1.574 . S
C3294 H3289 0.949 . S
C3294 C3300 1.368 . S
C3295 C3279 1.349 . S
C3295 H3287 0.950 . S
C3295 C3293 1.327 . S
C3296 C3284 1.349 . S
C3296 H3290 0.950 . S
C3296 C3297 1.327 . S
C3297 H3291 0.950 . S
C3297 C3296 1.327 . S
C3297 C3301 1.429 . S
C3298 C3281 1.574 . S
C3298 H3292 0.949 . S
C3298 C3302 1.368 . S
C3299 C3280 1.429 . S
C3299 C3293 1.429 . S
C3299 C3300 1.523 . S
C3300 C3281 1.368 . S
C3300 C3294 1.368 . S
C3300 C3299 1.523 . S
C3301 C3285 1.429 . S
C3301 C3297 1.429 . S
C3301 C3302 1.523 . S
C3302 C3286 1.368 . S
C3302 C3298 1.368 . S
C3302 C3301 1.523 . S
H3303 C3278 0.950 . S
H3304 C3280 0.950 . S
H3305 C3281 0.949 . S
H3306 C3283 0.950 . S
H3307 C3285 0.950 . S
C3308 C3309 1.349 . S
C3308 C3310 1.327 . S
C3308 H3333 0.950 . S
C3309 C3308 1.349 . S
C3309 C3325 1.349 . S
C3310 C3308 1.327 . S
C3310 C3329 1.429 . S
C3310 H3334 0.950 . S
C3311 C3328 1.574 . S
C3311 C3330 1.368 . S
C3311 H3335 0.949 . S
H3312 C3316 0.949 . S
C3313 C3314 1.349 . S
C3313 C3315 1.327 . S
C3313 H3336 0.950 . S
C3314 C3313 1.349 . S
C3314 C3326 1.349 . S
C3315 C3313 1.327 . S
C3315 C3331 1.429 . S
C3315 H3337 0.950 . S
C3316 H3312 0.949 . S
C3316 C3324 1.574 . S
C3316 C3332 1.368 . S
H3317 C3325 0.950 . S
H3318 C3323 0.950 . S
H3319 C3324 0.949 . S
H3320 C3326 0.950 . S
H3321 C3327 0.950 . S
H3322 C3328 0.949 . S
C3323 H3318 0.950 . S
C3323 C3325 1.327 . S
C3323 C3329 1.429 . S
C3324 C3316 1.574 . S
C3324 H3319 0.949 . S
C3324 C3330 1.368 . S
C3325 C3309 1.349 . S
C3325 H3317 0.950 . S
C3325 C3323 1.327 . S
C3326 C3314 1.349 . S
C3326 H3320 0.950 . S
C3326 C3327 1.327 . S
C3327 H3321 0.950 . S
C3327 C3326 1.327 . S
C3327 C3331 1.429 . S
C3328 C3311 1.574 . S
C3328 H3322 0.949 . S
C3328 C3332 1.368 . S
C3329 C3310 1.429 . S
C3329 C3323 1.429 . S
C3329 C3330 1.523 . S
C3330 C3311 1.368 . S
C3330 C3324 1.368 . S
C3330 C3329 1.523 . S
C3331 C3315 1.429 . S
C3331 C3327 1.429 . S
C3331 C3332 1.523 . S
C3332 C3316 1.368 . S
C3332 C3328 1.368 . S
C3332 C3331 1.523 . S
H3333 C3308 0.950 . S
H3334 C3310 0.950 . S
H3335 C3311 0.949 . S
H3336 C3313 0.950 . S
H3337 C3315 0.950 . S
C3338 C3339 1.349 . S
C3338 C3340 1.327 . S
C3338 H3363 0.950 . S
C3339 C3338 1.349 . S
C3339 C3355 1.349 . S
C3340 C3338 1.327 . S
C3340 C3359 1.429 . S
C3340 H3364 0.950 . S
C3341 C3358 1.574 . S
C3341 C3360 1.368 . S
C3341 H3365 0.949 . S
H3342 C3346 0.949 . S
C3343 C3344 1.349 . S
C3343 C3345 1.327 . S
C3343 H3366 0.950 . S
C3344 C3343 1.349 . S
C3344 C3356 1.349 . S
C3345 C3343 1.327 . S
C3345 C3361 1.429 . S
C3345 H3367 0.950 . S
C3346 H3342 0.949 . S
C3346 C3354 1.574 . S
C3346 C3362 1.368 . S
H3347 C3355 0.950 . S
H3348 C3353 0.950 . S
H3349 C3354 0.949 . S
H3350 C3356 0.950 . S
H3351 C3357 0.950 . S
H3352 C3358 0.949 . S
C3353 H3348 0.950 . S
C3353 C3355 1.327 . S
C3353 C3359 1.429 . S
C3354 C3346 1.574 . S
C3354 H3349 0.949 . S
C3354 C3360 1.368 . S
C3355 C3339 1.349 . S
C3355 H3347 0.950 . S
C3355 C3353 1.327 . S
C3356 C3344 1.349 . S
C3356 H3350 0.950 . S
C3356 C3357 1.327 . S
C3357 H3351 0.950 . S
C3357 C3356 1.327 . S
C3357 C3361 1.429 . S
C3358 C3341 1.574 . S
C3358 H3352 0.949 . S
C3358 C3362 1.368 . S
C3359 C3340 1.429 . S
C3359 C3353 1.429 . S
C3359 C3360 1.523 . S
C3360 C3341 1.368 . S
C3360 C3354 1.368 . S
C3360 C3359 1.523 . S
C3361 C3345 1.429 . S
C3361 C3357 1.429 . S
C3361 C3362 1.523 . S
C3362 C3346 1.368 . S
C3362 C3358 1.368 . S
C3362 C3361 1.523 . S
H3363 C3338 0.950 . S
H3364 C3340 0.950 . S
H3365 C3341 0.949 . S
H3366 C3343 0.950 . S
H3367 C3345 0.950 . S
C3368 C3369 1.349 . S
C3368 C3370 1.327 . S
C3368 H3393 0.950 . S
C3369 C3368 1.349 . S
C3369 C3385 1.349 . S
C3370 C3368 1.327 . S
C3370 C3389 1.429 . S
C3370 H3394 0.950 . S
C3371 C3388 1.574 . S
C3371 C3390 1.368 . S
C3371 H3395 0.949 . S
H3372 C3376 0.949 . S
C3373 C3374 1.349 . S
C3373 C3375 1.327 . S
C3373 H3396 0.950 . S
C3374 C3373 1.349 . S
C3374 C3386 1.349 . S
C3375 C3373 1.327 . S
C3375 C3391 1.429 . S
C3375 H3397 0.950 . S
C3376 H3372 0.949 . S
C3376 C3384 1.574 . S
C3376 C3392 1.368 . S
H3377 C3385 0.950 . S
H3378 C3383 0.950 . S
H3379 C3384 0.949 . S
H3380 C3386 0.950 . S
H3381 C3387 0.950 . S
H3382 C3388 0.949 . S
C3383 H3378 0.950 . S
C3383 C3385 1.327 . S
C3383 C3389 1.429 . S
C3384 C3376 1.574 . S
C3384 H3379 0.949 . S
C3384 C3390 1.368 . S
C3385 C3369 1.349 . S
C3385 H3377 0.950 . S
C3385 C3383 1.327 . S
C3386 C3374 1.349 . S
C3386 H3380 0.950 . S
C3386 C3387 1.327 . S
C3387 H3381 0.950 . S
C3387 C3386 1.327 . S
C3387 C3391 1.429 . S
C3388 C3371 1.574 . S
C3388 H3382 0.949 . S
C3388 C3392 1.368 . S
C3389 C3370 1.429 . S
C3389 C3383 1.429 . S
C3389 C3390 1.523 . S
C3390 C3371 1.368 . S
C3390 C3384 1.368 . S
C3390 C3389 1.523 . S
C3391 C3375 1.429 . S
C3391 C3387 1.429 . S
C3391 C3392 1.523 . S
C3392 C3376 1.368 . S
C3392 C3388 1.368 . S
C3392 C3391 1.523 . S
H3393 C3368 0.950 . S
H3394 C3370 0.950 . S
H3395 C3371 0.949 . S
H3396 C3373 0.950 . S
H3397 C3375 0.950 . S
C3398 C3399 1.349 . S
C3398 C3400 1.327 . S
C3398 H3423 0.950 . S
C3399 C3398 1.349 . S
C3399 C3415 1.349 . S
C3400 C3398 1.327 . S
C3400 C3419 1.429 . S
C3400 H3424 0.950 . S
C3401 C3418 1.574 . S
C3401 C3420 1.368 . S
C3401 H3425 0.949 . S
H3402 C3406 0.949 . S
C3403 C3404 1.349 . S
C3403 C3405 1.327 . S
C3403 H3426 0.950 . S
C3404 C3403 1.349 . S
C3404 C3416 1.349 . S
C3405 C3403 1.327 . S
C3405 C3421 1.429 . S
C3405 H3427 0.950 . S
C3406 H3402 0.949 . S
C3406 C3414 1.574 . S
C3406 C3422 1.368 . S
H3407 C3415 0.950 . S
H3408 C3413 0.950 . S
H3409 C3414 0.949 . S
H3410 C3416 0.950 . S
H3411 C3417 0.950 . S
H3412 C3418 0.949 . S
C3413 H3408 0.950 . S
C3413 C3415 1.327 . S
C3413 C3419 1.429 . S
C3414 C3406 1.574 . S
C3414 H3409 0.949 . S
C3414 C3420 1.368 . S
C3415 C3399 1.349 . S
C3415 H3407 0.950 . S
C3415 C3413 1.327 . S
C3416 C3404 1.349 . S
C3416 H3410 0.950 . S
C3416 C3417 1.327 . S
C3417 H3411 0.950 . S
C3417 C3416 1.327 . S
C3417 C3421 1.429 . S
C3418 C3401 1.574 . S
C3418 H3412 0.949 . S
C3418 C3422 1.368 . S
C3419 C3400 1.429 . S
C3419 C3413 1.429 . S
C3419 C3420 1.523 . S
C3420 C3401 1.368 . S
C3420 C3414 1.368 . S
C3420 C3419 1.523 . S
C3421 C3405 1.429 . S
C3421 C3417 1.429 . S
C3421 C3422 1.523 . S
C3422 C3406 1.368 . S
C3422 C3418 1.368 . S
C3422 C3421 1.523 . S
H3423 C3398 0.950 . S
H3424 C3400 0.950 . S
H3425 C3401 0.949 . S
H3426 C3403 0.950 . S
H3427 C3405 0.950 . S
C3428 C3429 1.349 . S
C3428 C3430 1.327 . S
C3428 H3453 0.950 . S
C3429 C3428 1.349 . S
C3429 C3445 1.349 . S
C3430 C3428 1.327 . S
C3430 C3449 1.429 . S
C3430 H3454 0.950 . S
C3431 C3448 1.574 . S
C3431 C3450 1.368 . S
C3431 H3455 0.949 . S
H3432 C3436 0.949 . S
C3433 C3434 1.349 . S
C3433 C3435 1.327 . S
C3433 H3456 0.950 . S
C3434 C3433 1.349 . S
C3434 C3446 1.349 . S
C3435 C3433 1.327 . S
C3435 C3451 1.429 . S
C3435 H3457 0.950 . S
C3436 H3432 0.949 . S
C3436 C3444 1.574 . S
C3436 C3452 1.368 . S
H3437 C3445 0.950 . S
H3438 C3443 0.950 . S
H3439 C3444 0.949 . S
H3440 C3446 0.950 . S
H3441 C3447 0.950 . S
H3442 C3448 0.949 . S
C3443 H3438 0.950 . S
C3443 C3445 1.327 . S
C3443 C3449 1.429 . S
C3444 C3436 1.574 . S
C3444 H3439 0.949 . S
C3444 C3450 1.368 . S
C3445 C3429 1.349 . S
C3445 H3437 0.950 . S
C3445 C3443 1.327 . S
C3446 C3434 1.349 . S
C3446 H3440 0.950 . S
C3446 C3447 1.327 . S
C3447 H3441 0.950 . S
C3447 C3446 1.327 . S
C3447 C3451 1.429 . S
C3448 C3431 1.574 . S
C3448 H3442 0.949 . S
C3448 C3452 1.368 . S
C3449 C3430 1.429 . S
C3449 C3443 1.429 . S
C3449 C3450 1.523 . S
C3450 C3431 1.368 . S
C3450 C3444 1.368 . S
C3450 C3449 1.523 . S
C3451 C3435 1.429 . S
C3451 C3447 1.429 . S
C3451 C3452 1.523 . S
C3452 C3436 1.368 . S
C3452 C3448 1.368 . S
C3452 C3451 1.523 . S
H3453 C3428 0.950 . S
H3454 C3430 0.950 . S
H3455 C3431 0.949 . S
H3456 C3433 0.950 . S
H3457 C3435 0.950 . S
C3458 C3459 1.349 . S
C3458 C3460 1.327 . S
C3458 H3483 0.950 . S
C3459 C3458 1.349 . S
C3459 C3475 1.349 . S
C3460 C3458 1.327 . S
C3460 C3479 1.429 . S
C3460 H3484 0.950 . S
C3461 C3478 1.574 . S
C3461 C3480 1.368 . S
C3461 H3485 0.949 . S
H3462 C3466 0.949 . S
C3463 C3464 1.349 . S
C3463 C3465 1.327 . S
C3463 H3486 0.950 . S
C3464 C3463 1.349 . S
C3464 C3476 1.349 . S
C3465 C3463 1.327 . S
C3465 C3481 1.429 . S
C3465 H3487 0.950 . S
C3466 H3462 0.949 . S
C3466 C3474 1.574 . S
C3466 C3482 1.368 . S
H3467 C3475 0.950 . S
H3468 C3473 0.950 . S
H3469 C3474 0.949 . S
H3470 C3476 0.950 . S
H3471 C3477 0.950 . S
H3472 C3478 0.949 . S
C3473 H3468 0.950 . S
C3473 C3475 1.327 . S
C3473 C3479 1.429 . S
C3474 C3466 1.574 . S
C3474 H3469 0.949 . S
C3474 C3480 1.368 . S
C3475 C3459 1.349 . S
C3475 H3467 0.950 . S
C3475 C3473 1.327 . S
C3476 C3464 1.349 . S
C3476 H3470 0.950 . S
C3476 C3477 1.327 . S
C3477 H3471 0.950 . S
C3477 C3476 1.327 . S
C3477 C3481 1.429 . S
C3478 C3461 1.574 . S
C3478 H3472 0.949 . S
C3478 C3482 1.368 . S
C3479 C3460 1.429 . S
C3479 C3473 1.429 . S
C3479 C3480 1.523 . S
C3480 C3461 1.368 . S
C3480 C3474 1.368 . S
C3480 C3479 1.523 . S
C3481 C3465 1.429 . S
C3481 C3477 1.429 . S
C3481 C3482 1.523 . S
C3482 C3466 1.368 . S
C3482 C3478 1.368 . S
C3482 C3481 1.523 . S
H3483 C3458 0.950 . S
H3484 C3460 0.950 . S
H3485 C3461 0.949 . S
H3486 C3463 0.950 . S
H3487 C3465 0.950 . S
C1089 C271 1.575 . S
C1094 C9 1.502 . S
C1119 C1053 1.575 . S
C1124 C43 1.502 . S
C1149 C475 1.575 . S
C1154 C77 1.502 . S
C1179 C111 1.502 . S
C1184 C713 1.575 . S
C1209 C145 1.502 . S
C1214 C135 1.575 . S
C1239 C917 1.575 . S
C1244 C179 1.502 . S
C1269 C339 1.575 . S
C1274 C213 1.502 . S
C1299 C247 1.502 . S
C1304 C577 1.575 . S
C1329 C281 1.502 . S
C1334 C543 1.575 . S
C1359 C781 1.575 . S
C1364 C315 1.502 . S
C1389 C349 1.502 . S
C1394 C203 1.575 . S
C1419 C383 1.502 . S
C1424 C985 1.575 . S
C1449 C417 1.502 . S
C1454 C407 1.575 . S
C1479 C451 1.502 . S
C1484 C645 1.575 . S
C1509 C485 1.502 . S
C1514 C67 1.575 . S
C1539 C849 1.575 . S
C1544 C519 1.502 . S
C1569 C815 1.575 . S
C1574 C553 1.502 . S
C1599 C587 1.502 . S
C1604 C509 1.575 . S
C1629 C1019 1.575 . S
C1634 C621 1.502 . S
C1659 C169 1.575 . S
C1664 C655 1.502 . S
C1689 C679 1.575 . S
C1694 C689 1.502 . S
C1719 C373 1.575 . S
C1724 C723 1.502 . S
C1749 C757 1.502 . S
C1754 C883 1.575 . S
C1779 C33 1.575 . S
C1784 C791 1.502 . S
C1809 C1087 1.575 . S
C1814 C825 1.502 . S
C1839 C859 1.502 . S
C1844 C237 1.575 . S
C1869 C893 1.502 . S
C1874 C747 1.575 . S
C1899 C441 1.575 . S
C1904 C927 1.502 . S
C1929 C951 1.575 . S
C1934 C961 1.502 . S
C1959 C101 1.575 . S
C1964 C995 1.502 . S
C1989 C1029 1.502 . S
C1994 C611 1.575 . S
C2019 C1063 1.502 . S
C2024 C305 1.575 . S
C2049 C5 0.871 . S
C2054 C651 0.871 . S
C2079 C39 0.871 . S
C2084 C617 0.871 . S
C2109 C73 0.833 1_556 S
C2114 C583 0.871 . S
C2139 C107 0.833 1_556 S
C2144 C549 0.871 . S
C2169 C141 0.871 . S
C2174 C787 0.871 . S
C2199 C753 0.871 . S
C2204 C175 0.871 . S
C2229 C719 0.871 . S
C2234 C209 0.833 1_554 S
C2259 C243 0.833 1_554 S
C2264 C685 0.871 . S
C2289 C277 0.871 . S
C2294 C923 0.833 1_556 S
C2319 C889 0.833 1_556 S
C2324 C311 0.871 . S
C2349 C855 0.871 . S
C2354 C345 0.871 . S
C2379 C379 0.871 . S
C2384 C821 0.871 . S
C2409 C1059 0.833 1_554 S
C2414 C413 0.871 . S
C2439 C447 0.871 . S
C2444 C1025 0.833 1_554 S
C2469 C481 0.871 . S
C2474 C991 0.871 . S
C2499 C957 0.871 . S
C2504 C515 0.871 . S
C2529 C700 0.693 . S
C2534 C20 0.693 . S
C2559 C462 0.693 . S
C2564 C54 0.693 . S
C2589 C1040 0.693 . S
C2594 C88 0.693 . S
C2619 C122 0.693 . S
C2624 C258 0.693 . S
C2649 C156 0.693 . S
C2654 C564 0.693 . S
C2679 C190 0.693 . S
C2684 C326 0.693 . S
C2709 C904 0.693 . S
C2714 C224 0.693 . S
C2739 C292 0.693 . S
C2744 C972 0.693 . S
C2769 C768 0.693 . S
C2774 C360 0.693 . S
C2799 C530 0.693 . S
C2804 C394 0.693 . S
C2829 C428 0.693 . S
C2834 C836 0.693 . S
C2859 C632 0.693 . S
C2864 C496 0.693 . S
C2889 C1006 0.693 . S
C2894 C598 0.693 . S
C2919 C802 0.693 . S
C2924 C666 0.693 . S
C2949 C870 0.693 . S
C2954 C734 0.693 . S
C2979 C1074 0.693 . S
C2984 C938 0.693 . S
C3009 C70 1.575 . S
C3014 C2 1.575 . S
C3039 C104 1.575 . S
C3044 C36 1.575 . S
C3069 C206 1.575 . S
C3074 C138 1.575 . S
C3099 C240 1.575 . S
C3104 C172 1.575 . S
C3129 C274 1.575 . S
C3134 C342 1.575 . S
C3159 C376 1.575 . S
C3164 C308 1.575 . S
C3189 C410 1.575 . S
C3194 C478 1.575 . S
C3219 C444 1.575 . S
C3224 C512 1.575 . S
C3249 C546 1.575 . S
C3254 C614 1.575 . S
C3279 C580 1.575 . S
C3284 C648 1.575 . S
C3309 C750 1.575 . S
C3314 C682 1.575 . S
C3339 C716 1.575 . S
C3344 C784 1.575 . S
C3369 C886 1.575 . S
C3374 C818 1.575 . S
C3399 C920 1.575 . S
C3404 C852 1.575 . S
C3429 C954 1.575 . S
C3434 C1022 1.575 . S
C3459 C988 1.575 . S
C3464 C1056 1.575 . S
