# Generated by pormake.
# Topology ech, (8)-cn, num edge types: 1
# Building blocks:
#     Node 0, Type 0, BuildingBlock: EBIMEJ_clean_sbu_0, # of connection points: 8
#     Node 1, Type 0, BuildingBlock: EBIMEJ_clean_sbu_0, # of connection points: 8
#     Node 2, Type 0, BuildingBlock: EBIMEJ_clean_sbu_0, # of connection points: 8
#     Node 3, Type 0, BuildingBlock: EBIMEJ_clean_sbu_0, # of connection points: 8
#     Node 4, Type 0, BuildingBlock: EBIMEJ_clean_sbu_0, # of connection points: 8
#     Node 5, Type 0, BuildingBlock: EBIMEJ_clean_sbu_0, # of connection points: 8
#     Node 6, Type 0, BuildingBlock: EBIMEJ_clean_sbu_0, # of connection points: 8
#     Node 7, Type 0, BuildingBlock: EBIMEJ_clean_sbu_0, # of connection points: 8
#     Node 8, Type 0, BuildingBlock: EBIMEJ_clean_sbu_0, # of connection points: 8
#     Node 9, Type 0, BuildingBlock: EBIMEJ_clean_sbu_0, # of connection points: 8
#     Node 10, Type 0, BuildingBlock: EBIMEJ_clean_sbu_0, # of connection points: 8
#     Node 11, Type 0, BuildingBlock: EBIMEJ_clean_sbu_0, # of connection points: 8
#     Node 12, Type 0, BuildingBlock: EBIMEJ_clean_sbu_0, # of connection points: 8
#     Node 13, Type 0, BuildingBlock: EBIMEJ_clean_sbu_0, # of connection points: 8
#     Node 14, Type 0, BuildingBlock: EBIMEJ_clean_sbu_0, # of connection points: 8
#     Node 15, Type 0, BuildingBlock: EBIMEJ_clean_sbu_0, # of connection points: 8
#     Node 16, Type 0, BuildingBlock: EBIMEJ_clean_sbu_0, # of connection points: 8
#     Node 17, Type 0, BuildingBlock: EBIMEJ_clean_sbu_0, # of connection points: 8
#     Node 18, Type 0, BuildingBlock: EBIMEJ_clean_sbu_0, # of connection points: 8
#     Node 19, Type 0, BuildingBlock: EBIMEJ_clean_sbu_0, # of connection points: 8
#     Node 20, Type 0, BuildingBlock: EBIMEJ_clean_sbu_0, # of connection points: 8
#     Node 21, Type 0, BuildingBlock: EBIMEJ_clean_sbu_0, # of connection points: 8
#     Node 22, Type 0, BuildingBlock: EBIMEJ_clean_sbu_0, # of connection points: 8
#     Node 23, Type 0, BuildingBlock: EBIMEJ_clean_sbu_0, # of connection points: 8
#     Edge 24, Type (0, 0), BuildingBlock: XIVTED_clean_linker_0, # of connection points: 2
#     Edge 25, Type (0, 0), BuildingBlock: XIVTED_clean_linker_0, # of connection points: 2
#     Edge 26, Type (0, 0), BuildingBlock: XIVTED_clean_linker_0, # of connection points: 2
#     Edge 27, Type (0, 0), BuildingBlock: XIVTED_clean_linker_0, # of connection points: 2
#     Edge 28, Type (0, 0), BuildingBlock: XIVTED_clean_linker_0, # of connection points: 2
#     Edge 29, Type (0, 0), BuildingBlock: XIVTED_clean_linker_0, # of connection points: 2
#     Edge 30, Type (0, 0), BuildingBlock: XIVTED_clean_linker_0, # of connection points: 2
#     Edge 31, Type (0, 0), BuildingBlock: XIVTED_clean_linker_0, # of connection points: 2
#     Edge 32, Type (0, 0), BuildingBlock: XIVTED_clean_linker_0, # of connection points: 2
#     Edge 33, Type (0, 0), BuildingBlock: XIVTED_clean_linker_0, # of connection points: 2
#     Edge 34, Type (0, 0), BuildingBlock: XIVTED_clean_linker_0, # of connection points: 2
#     Edge 35, Type (0, 0), BuildingBlock: XIVTED_clean_linker_0, # of connection points: 2
#     Edge 36, Type (0, 0), BuildingBlock: XIVTED_clean_linker_0, # of connection points: 2
#     Edge 37, Type (0, 0), BuildingBlock: XIVTED_clean_linker_0, # of connection points: 2
#     Edge 38, Type (0, 0), BuildingBlock: XIVTED_clean_linker_0, # of connection points: 2
#     Edge 39, Type (0, 0), BuildingBlock: XIVTED_clean_linker_0, # of connection points: 2
#     Edge 40, Type (0, 0), BuildingBlock: XIVTED_clean_linker_0, # of connection points: 2
#     Edge 41, Type (0, 0), BuildingBlock: XIVTED_clean_linker_0, # of connection points: 2
#     Edge 42, Type (0, 0), BuildingBlock: XIVTED_clean_linker_0, # of connection points: 2
#     Edge 43, Type (0, 0), BuildingBlock: XIVTED_clean_linker_0, # of connection points: 2
#     Edge 44, Type (0, 0), BuildingBlock: XIVTED_clean_linker_0, # of connection points: 2
#     Edge 45, Type (0, 0), BuildingBlock: XIVTED_clean_linker_0, # of connection points: 2
#     Edge 46, Type (0, 0), BuildingBlock: XIVTED_clean_linker_0, # of connection points: 2
#     Edge 47, Type (0, 0), BuildingBlock: XIVTED_clean_linker_0, # of connection points: 2
#     Edge 48, Type (0, 0), BuildingBlock: XIVTED_clean_linker_0, # of connection points: 2
#     Edge 49, Type (0, 0), BuildingBlock: XIVTED_clean_linker_0, # of connection points: 2
#     Edge 50, Type (0, 0), BuildingBlock: XIVTED_clean_linker_0, # of connection points: 2
#     Edge 51, Type (0, 0), BuildingBlock: XIVTED_clean_linker_0, # of connection points: 2
#     Edge 52, Type (0, 0), BuildingBlock: XIVTED_clean_linker_0, # of connection points: 2
#     Edge 53, Type (0, 0), BuildingBlock: XIVTED_clean_linker_0, # of connection points: 2
#     Edge 54, Type (0, 0), BuildingBlock: XIVTED_clean_linker_0, # of connection points: 2
#     Edge 55, Type (0, 0), BuildingBlock: XIVTED_clean_linker_0, # of connection points: 2
#     Edge 56, Type (0, 0), BuildingBlock: XIVTED_clean_linker_0, # of connection points: 2
#     Edge 57, Type (0, 0), BuildingBlock: XIVTED_clean_linker_0, # of connection points: 2
#     Edge 58, Type (0, 0), BuildingBlock: XIVTED_clean_linker_0, # of connection points: 2
#     Edge 59, Type (0, 0), BuildingBlock: XIVTED_clean_linker_0, # of connection points: 2
#     Edge 60, Type (0, 0), BuildingBlock: XIVTED_clean_linker_0, # of connection points: 2
#     Edge 61, Type (0, 0), BuildingBlock: XIVTED_clean_linker_0, # of connection points: 2
#     Edge 62, Type (0, 0), BuildingBlock: XIVTED_clean_linker_0, # of connection points: 2
#     Edge 63, Type (0, 0), BuildingBlock: XIVTED_clean_linker_0, # of connection points: 2
#     Edge 64, Type (0, 0), BuildingBlock: XIVTED_clean_linker_0, # of connection points: 2
#     Edge 65, Type (0, 0), BuildingBlock: XIVTED_clean_linker_0, # of connection points: 2
#     Edge 66, Type (0, 0), BuildingBlock: XIVTED_clean_linker_0, # of connection points: 2
#     Edge 67, Type (0, 0), BuildingBlock: XIVTED_clean_linker_0, # of connection points: 2
#     Edge 68, Type (0, 0), BuildingBlock: XIVTED_clean_linker_0, # of connection points: 2
#     Edge 69, Type (0, 0), BuildingBlock: XIVTED_clean_linker_0, # of connection points: 2
#     Edge 70, Type (0, 0), BuildingBlock: XIVTED_clean_linker_0, # of connection points: 2
#     Edge 71, Type (0, 0), BuildingBlock: XIVTED_clean_linker_0, # of connection points: 2
#     Edge 72, Type (0, 0), BuildingBlock: XIVTED_clean_linker_0, # of connection points: 2
#     Edge 73, Type (0, 0), BuildingBlock: XIVTED_clean_linker_0, # of connection points: 2
#     Edge 74, Type (0, 0), BuildingBlock: XIVTED_clean_linker_0, # of connection points: 2
#     Edge 75, Type (0, 0), BuildingBlock: XIVTED_clean_linker_0, # of connection points: 2
#     Edge 76, Type (0, 0), BuildingBlock: XIVTED_clean_linker_0, # of connection points: 2
#     Edge 77, Type (0, 0), BuildingBlock: XIVTED_clean_linker_0, # of connection points: 2
#     Edge 78, Type (0, 0), BuildingBlock: XIVTED_clean_linker_0, # of connection points: 2
#     Edge 79, Type (0, 0), BuildingBlock: XIVTED_clean_linker_0, # of connection points: 2
#     Edge 80, Type (0, 0), BuildingBlock: XIVTED_clean_linker_0, # of connection points: 2
#     Edge 81, Type (0, 0), BuildingBlock: XIVTED_clean_linker_0, # of connection points: 2
#     Edge 82, Type (0, 0), BuildingBlock: XIVTED_clean_linker_0, # of connection points: 2
#     Edge 83, Type (0, 0), BuildingBlock: XIVTED_clean_linker_0, # of connection points: 2
#     Edge 84, Type (0, 0), BuildingBlock: XIVTED_clean_linker_0, # of connection points: 2
#     Edge 85, Type (0, 0), BuildingBlock: XIVTED_clean_linker_0, # of connection points: 2
#     Edge 86, Type (0, 0), BuildingBlock: XIVTED_clean_linker_0, # of connection points: 2
#     Edge 87, Type (0, 0), BuildingBlock: XIVTED_clean_linker_0, # of connection points: 2
#     Edge 88, Type (0, 0), BuildingBlock: XIVTED_clean_linker_0, # of connection points: 2
#     Edge 89, Type (0, 0), BuildingBlock: XIVTED_clean_linker_0, # of connection points: 2
#     Edge 90, Type (0, 0), BuildingBlock: XIVTED_clean_linker_0, # of connection points: 2
#     Edge 91, Type (0, 0), BuildingBlock: XIVTED_clean_linker_0, # of connection points: 2
#     Edge 92, Type (0, 0), BuildingBlock: XIVTED_clean_linker_0, # of connection points: 2
#     Edge 93, Type (0, 0), BuildingBlock: XIVTED_clean_linker_0, # of connection points: 2
#     Edge 94, Type (0, 0), BuildingBlock: XIVTED_clean_linker_0, # of connection points: 2
#     Edge 95, Type (0, 0), BuildingBlock: XIVTED_clean_linker_0, # of connection points: 2
#     Edge 96, Type (0, 0), BuildingBlock: XIVTED_clean_linker_0, # of connection points: 2
#     Edge 97, Type (0, 0), BuildingBlock: XIVTED_clean_linker_0, # of connection points: 2
#     Edge 98, Type (0, 0), BuildingBlock: XIVTED_clean_linker_0, # of connection points: 2
#     Edge 99, Type (0, 0), BuildingBlock: XIVTED_clean_linker_0, # of connection points: 2
#     Edge 100, Type (0, 0), BuildingBlock: XIVTED_clean_linker_0, # of connection points: 2
#     Edge 101, Type (0, 0), BuildingBlock: XIVTED_clean_linker_0, # of connection points: 2
#     Edge 102, Type (0, 0), BuildingBlock: XIVTED_clean_linker_0, # of connection points: 2
#     Edge 103, Type (0, 0), BuildingBlock: XIVTED_clean_linker_0, # of connection points: 2
#     Edge 104, Type (0, 0), BuildingBlock: XIVTED_clean_linker_0, # of connection points: 2
#     Edge 105, Type (0, 0), BuildingBlock: XIVTED_clean_linker_0, # of connection points: 2
#     Edge 106, Type (0, 0), BuildingBlock: XIVTED_clean_linker_0, # of connection points: 2
#     Edge 107, Type (0, 0), BuildingBlock: XIVTED_clean_linker_0, # of connection points: 2
#     Edge 108, Type (0, 0), BuildingBlock: XIVTED_clean_linker_0, # of connection points: 2
#     Edge 109, Type (0, 0), BuildingBlock: XIVTED_clean_linker_0, # of connection points: 2
#     Edge 110, Type (0, 0), BuildingBlock: XIVTED_clean_linker_0, # of connection points: 2
#     Edge 111, Type (0, 0), BuildingBlock: XIVTED_clean_linker_0, # of connection points: 2
#     Edge 112, Type (0, 0), BuildingBlock: XIVTED_clean_linker_0, # of connection points: 2
#     Edge 113, Type (0, 0), BuildingBlock: XIVTED_clean_linker_0, # of connection points: 2
#     Edge 114, Type (0, 0), BuildingBlock: XIVTED_clean_linker_0, # of connection points: 2
#     Edge 115, Type (0, 0), BuildingBlock: XIVTED_clean_linker_0, # of connection points: 2
#     Edge 116, Type (0, 0), BuildingBlock: XIVTED_clean_linker_0, # of connection points: 2
#     Edge 117, Type (0, 0), BuildingBlock: XIVTED_clean_linker_0, # of connection points: 2
#     Edge 118, Type (0, 0), BuildingBlock: XIVTED_clean_linker_0, # of connection points: 2
#     Edge 119, Type (0, 0), BuildingBlock: XIVTED_clean_linker_0, # of connection points: 2
# Relax obj value: 0.216
# Max RMSD: 0.238
# Mean RMSD: 0.238
data_MOF--net-ech--node1-EBIMEJ_clean_sbu_0--edge1-XIVTED_clean_linker_0
_symmetry_space_group_name_H-M    P1
_symmetry_Int_Tables_number       1
_symmetry_cell_setting            triclinic
loop_
_symmetry_equiv_pos_as_xyz
'x, y, z'
_cell_length_a     49.544311
_cell_length_b     49.538846
_cell_length_c     49.546606
_cell_angle_alpha  89.963112
_cell_angle_beta   89.959507
_cell_angle_gamma 89.94834
loop_
_atom_site_label
_atom_site_type_symbol
_atom_site_fract_x
_atom_site_fract_y
_atom_site_fract_z
_atom_type_partial_charge
Co0 Co 0.17712 0.27335 0.42653 0.0
Co1 Co 0.14204 0.29584 0.48127 0.0
Co2 Co 0.13773 0.3247 0.42826 0.0
H3 H 0.15834 0.30093 0.4349 0.0
O4 O 0.16584 0.30375 0.45032 0.0
H5 H 0.1205 0.31729 0.47244 0.0
O6 O 0.11341 0.31339 0.45709 0.0
Co7 Co 0.10135 0.34487 0.47749 0.0
O8 O 0.10034 0.33266 0.51617 0.0
O9 O 0.11778 0.29081 0.51379 0.0
O10 O 0.10239 0.37452 0.44962 0.0
O11 O 0.11112 0.35049 0.41242 0.0
O12 O 0.20161 0.23992 0.41948 0.0
O13 O 0.21271 0.27781 0.40566 0.0
O14 O 0.13503 0.36435 0.48842 0.0
O15 O 0.15948 0.32811 0.49947 0.0
C16 C 0.17755 0.31975 0.38462 0.0
C17 C 0.18398 0.25436 0.48742 0.0
C18 C 0.05204 0.35258 0.47545 0.0
C19 C 0.12279 0.27055 0.40187 0.0
C20 C 0.10497 0.30953 0.52641 0.0
C21 C 0.10229 0.37175 0.42405 0.0
C22 C 0.21898 0.25333 0.40668 0.0
C23 C 0.15586 0.3537 0.49889 0.0
O24 O 0.18262 0.2951 0.39094 0.0
O25 O 0.16292 0.33487 0.39934 0.0
O26 O 0.16975 0.27305 0.49817 0.0
O27 O 0.1866 0.25146 0.46159 0.0
O28 O 0.06777 0.36516 0.49082 0.0
O29 O 0.06429 0.33547 0.46135 0.0
O30 O 0.14267 0.25728 0.41144 0.0
O31 O 0.12052 0.29602 0.40524 0.0
Co32 Co 0.3537 0.75654 0.92634 0.0
Co33 Co 0.38833 0.73406 0.98091 0.0
Co34 Co 0.3922 0.70447 0.92829 0.0
H35 H 0.3719 0.72859 0.93475 0.0
O36 O 0.36436 0.72596 0.95019 0.0
H37 H 0.40988 0.71258 0.97217 0.0
O38 O 0.41681 0.71622 0.95667 0.0
Co39 Co 0.42916 0.68513 0.97753 0.0
O40 O 0.43082 0.69806 0.01595 0.0
O41 O 0.41273 0.73959 1.0131 0.0
O42 O 0.42719 0.65483 0.95054 0.0
O43 O 0.41854 0.67804 0.9128 0.0
O44 O 0.31851 0.7787 0.93034 0.0
O45 O 0.33395 0.77023 0.89235 0.0
O46 O 0.3955 0.66565 0.98855 0.0
O47 O 0.37104 0.70189 0.99951 0.0
C48 C 0.35077 0.70883 0.88593 0.0
C49 C 0.34605 0.77518 0.98722 0.0
C50 C 0.47844 0.67706 0.97526 0.0
C51 C 0.40782 0.75809 0.90138 0.0
C52 C 0.42595 0.72127 0.02584 0.0
C53 C 0.42731 0.65698 0.92491 0.0
C54 C 0.3152 0.78129 0.90532 0.0
C55 C 0.37467 0.67631 0.99902 0.0
O56 O 0.34557 0.73342 0.89229 0.0
O57 O 0.36661 0.6941 0.89981 0.0
O58 O 0.36073 0.75686 0.99796 0.0
O59 O 0.34327 0.77791 0.96141 0.0
O60 O 0.46269 0.66477 0.99088 0.0
O61 O 0.46623 0.69413 0.96107 0.0
O62 O 0.38856 0.77179 0.91152 0.0
O63 O 0.40944 0.73254 0.90444 0.0
Co64 Co 0.67706 0.25675 0.60265 0.0
Co65 Co 0.64159 0.23415 0.54855 0.0
Co66 Co 0.63917 0.2045 0.60121 0.0
H67 H 0.65909 0.22873 0.59434 0.0
O68 O 0.66636 0.22623 0.57873 0.0
H69 H 0.6205 0.2126 0.55784 0.0
O70 O 0.61388 0.21618 0.57348 0.0
Co71 Co 0.60132 0.18511 0.55298 0.0
O72 O 0.5976 0.19829 0.51478 0.0
O73 O 0.61601 0.23971 0.51718 0.0
O74 O 0.6043 0.15454 0.57963 0.0
O75 O 0.61341 0.17783 0.61719 0.0
O76 O 0.69551 0.27265 0.6364 0.0
O77 O 0.7142 0.27556 0.59904 0.0
O78 O 0.63468 0.16563 0.5412 0.0
O79 O 0.65862 0.20197 0.52946 0.0
C80 C 0.68076 0.20925 0.64313 0.0
C81 C 0.6835 0.27539 0.54147 0.0
C82 C 0.552 0.17939 0.5577 0.0
C83 C 0.6232 0.25801 0.62814 0.0
C84 C 0.60197 0.22165 0.50496 0.0
C85 C 0.60464 0.15669 0.60527 0.0
C86 C 0.71601 0.28068 0.62383 0.0
C87 C 0.65517 0.17634 0.53016 0.0
O88 O 0.68523 0.23403 0.63701 0.0
O89 O 0.66543 0.19423 0.62907 0.0
O90 O 0.66859 0.25718 0.53091 0.0
O91 O 0.6868 0.27797 0.56724 0.0
O92 O 0.56595 0.16813 0.53974 0.0
O93 O 0.56603 0.19401 0.57283 0.0
O94 O 0.64209 0.27187 0.61753 0.0
O95 O 0.62205 0.23238 0.62544 0.0
Co96 Co 0.85281 0.77148 0.10357 0.0
Co97 Co 0.88723 0.79512 0.04903 0.0
Co98 Co 0.89029 0.82386 0.1021 0.0
H99 H 0.87049 0.79965 0.09522 0.0
O100 O 0.86297 0.80231 0.07978 0.0
H101 H 0.90831 0.81687 0.05819 0.0
O102 O 0.91527 0.81305 0.07362 0.0
Co103 Co 0.92697 0.84485 0.05348 0.0
O104 O 0.92919 0.83244 1.01487 0.0
O105 O 0.91196 0.79051 0.01691 0.0
O106 O 0.92534 0.8744 0.08148 0.0
O107 O 0.91593 0.85017 0.1184 0.0
O108 O 0.8336 0.75585 0.13702 0.0
O109 O 0.81637 0.75166 0.09909 0.0
O110 O 0.89268 0.86369 0.04359 0.0
O111 O 0.86946 0.82732 0.03073 0.0
C112 C 0.84919 0.8183 0.1446 0.0
C113 C 0.84568 0.75348 0.0424 0.0
C114 C 0.97561 0.8557 0.05561 0.0
C115 C 0.90687 0.77015 0.1284 0.0
C116 C 0.9249 0.8093 1.00456 0.0
C117 C 0.92468 0.87157 0.10703 0.0
C118 C 0.81382 0.74702 0.12391 0.0
C119 C 0.87236 0.85296 0.03232 0.0
O120 O 0.84474 0.79356 0.13835 0.0
O121 O 0.86437 0.83346 0.1305 0.0
O122 O 0.86013 0.77199 0.03166 0.0
O123 O 0.84296 0.75058 0.06819 0.0
O124 O 0.95774 0.87159 0.04717 0.0
O125 O 0.9659 0.83336 0.06258 0.0
O126 O 0.88776 0.75628 0.11829 0.0
O127 O 0.90803 0.79574 0.12552 0.0
Co128 Co 0.42754 0.17665 0.27172 0.0
Co129 Co 0.48249 0.14241 0.29464 0.0
Co130 Co 0.42975 0.13846 0.32403 0.0
H131 H 0.43603 0.15855 0.29967 0.0
O132 O 0.45142 0.1662 0.30226 0.0
H133 H 0.47373 0.12102 0.31613 0.0
O134 O 0.45833 0.11393 0.31249 0.0
Co135 Co 0.47894 0.10221 0.34382 0.0
O136 O 0.51705 0.09872 0.33056 0.0
O137 O 0.515 0.11812 0.28955 0.0
O138 O 0.45383 0.11112 0.37444 0.0
O139 O 0.41529 0.11271 0.35155 0.0
O140 O 0.39357 0.19555 0.25677 0.0
O141 O 0.43112 0.21348 0.25226 0.0
O142 O 0.49002 0.13566 0.36325 0.0
O143 O 0.50074 0.16009 0.32688 0.0
C144 C 0.38662 0.17898 0.31905 0.0
C145 C 0.48854 0.18407 0.25304 0.0
C146 C 0.47536 0.05309 0.35202 0.0
C147 C 0.40286 0.12217 0.27073 0.0
C148 C 0.52726 0.10406 0.3076 0.0
C149 C 0.42822 0.10904 0.37359 0.0
C150 C 0.40619 0.2157 0.24802 0.0
C151 C 0.50032 0.1565 0.3525 0.0
O152 O 0.39319 0.18439 0.29457 0.0
O153 O 0.40079 0.16368 0.33405 0.0
O154 O 0.49937 0.16993 0.27172 0.0
O155 O 0.4627 0.18658 0.25015 0.0
O156 O 0.49205 0.06824 0.36357 0.0
O157 O 0.46083 0.06579 0.33562 0.0
O158 O 0.41274 0.14154 0.25697 0.0
O159 O 0.40607 0.12054 0.29628 0.0
Co160 Co 0.10331 0.85329 0.77369 0.0
Co161 Co 0.04886 0.8888 0.79511 0.0
Co162 Co 0.10111 0.89223 0.82537 0.0
H163 H 0.09474 0.87185 0.80133 0.0
O164 O 0.07918 0.86451 0.80383 0.0
H165 H 0.05717 0.91001 0.81708 0.0
O166 O 0.07273 0.91692 0.81374 0.0
Co167 Co 0.05113 0.92923 0.84441 0.0
O168 O 1.01359 0.93305 0.82967 0.0
O169 O 0.01714 0.91387 0.78868 0.0
O170 O 0.07804 0.92567 0.87479 0.0
O171 O 0.11626 0.9185 0.85186 0.0
O172 O 0.1107 0.82908 0.74019 0.0
O173 O 0.12353 0.81729 0.77822 0.0
O174 O 0.03195 0.89862 0.8623 0.0
O175 O 0.02926 0.87123 0.82653 0.0
C176 C 0.14487 0.85262 0.82022 0.0
C177 C 0.0431 0.84712 0.75331 0.0
C178 C 0.05515 0.97815 0.8532 0.0
C179 C 0.12785 0.9077 0.77158 0.0
C180 C 1.00438 0.92816 0.80621 0.0
C181 C 0.1037 0.92649 0.87295 0.0
C182 C 0.12293 0.81134 0.75365 0.0
C183 C 0.02451 0.87675 0.85131 0.0
O184 O 0.13873 0.848 0.79548 0.0
O185 O 0.12991 0.86677 0.8356 0.0
O186 O 0.03221 0.86159 0.77169 0.0
O187 O 0.0689 0.84404 0.75094 0.0
O188 O 0.03912 0.96276 0.86541 0.0
O189 O 0.06901 0.96574 0.83599 0.0
O190 O 0.11804 0.8881 0.75814 0.0
O191 O 0.12468 0.90964 0.79711 0.0
Co192 Co 0.92642 0.35458 0.75807 0.0
Co193 Co 0.98074 0.38857 0.73544 0.0
Co194 Co 0.92854 0.39157 0.70531 0.0
H195 H 0.93491 0.37183 0.72974 0.0
O196 O 0.95036 0.36428 0.7273 0.0
H197 H 0.97184 0.41053 0.71436 0.0
O198 O 0.95604 0.41689 0.71782 0.0
Co199 Co 0.97756 0.43104 0.68783 0.0
O200 O 0.01519 0.43505 0.70187 0.0
O201 O 1.01299 0.41309 0.74151 0.0
O202 O 0.95167 0.42638 0.65677 0.0
O203 O 0.91321 0.41745 0.67858 0.0
O204 O 0.93007 0.31951 0.78049 0.0
O205 O 0.89221 0.33446 0.77075 0.0
O206 O 1.00006 0.40257 0.67011 0.0
O207 O 0.99921 0.37162 0.70299 0.0
C208 C 0.88683 0.35007 0.70952 0.0
C209 C 0.9872 0.34687 0.77672 0.0
C210 C 0.97176 0.47986 0.67931 0.0
C211 C 0.90229 0.40847 0.75831 0.0
C212 C 0.0252 0.42848 0.72455 0.0
C213 C 0.92597 0.42607 0.6579 0.0
C214 C 0.90503 0.31587 0.78226 0.0
C215 C 1.00608 0.37942 0.67932 0.0
O216 O 0.89252 0.34614 0.73455 0.0
O217 O 0.90116 0.36513 0.69438 0.0
O218 O 0.99792 0.36092 0.75792 0.0
O219 O 0.96137 0.34453 0.77982 0.0
O220 O 0.98939 0.46541 0.66822 0.0
O221 O 0.95725 0.46656 0.69529 0.0
O222 O 0.91488 0.39118 0.77258 0.0
O223 O 0.90297 0.40769 0.73256 0.0
Co224 Co 0.60292 0.6756 0.25795 0.0
Co225 Co 0.54768 0.6421 0.23554 0.0
Co226 Co 0.59986 0.63795 0.20533 0.0
H227 H 0.59404 0.65791 0.22988 0.0
O228 O 0.57868 0.6657 0.22746 0.0
H229 H 0.55596 0.62026 0.21415 0.0
O230 O 0.57155 0.61342 0.21753 0.0
Co231 Co 0.54988 0.6002 0.18741 0.0
O232 O 0.51229 0.59655 0.20169 0.0
O233 O 0.51492 0.61818 0.24149 0.0
O234 O 0.57545 0.60555 0.15616 0.0
O235 O 0.61427 0.61191 0.17811 0.0
O236 O 0.59927 0.71119 0.27961 0.0
O237 O 0.63711 0.69571 0.27068 0.0
O238 O 0.52752 0.6291 0.17028 0.0
O239 O 0.52951 0.65978 0.20334 0.0
C240 C 0.64305 0.67821 0.20997 0.0
C241 C 0.54217 0.68402 0.27687 0.0
C242 C 0.55667 0.55146 0.17936 0.0
C243 C 0.62733 0.62104 0.25818 0.0
C244 C 0.50246 0.60306 0.22448 0.0
C245 C 0.60114 0.60458 0.15715 0.0
C246 C 0.62432 0.71466 0.28162 0.0
C247 C 0.52219 0.6523 0.17973 0.0
O248 O 0.63716 0.68266 0.23481 0.0
O249 O 0.62848 0.66341 0.19483 0.0
O250 O 0.53117 0.66992 0.2583 0.0
O251 O 0.56804 0.68618 0.27971 0.0
O252 O 0.53893 0.56549 0.16791 0.0
O253 O 0.57068 0.56512 0.19542 0.0
O254 O 0.61757 0.64018 0.27235 0.0
O255 O 0.62403 0.61999 0.23263 0.0
Co256 Co 0.27251 0.42662 0.17537 0.0
Co257 Co 0.29417 0.48185 0.14077 0.0
Co258 Co 0.32567 0.43023 0.13865 0.0
H259 H 0.30061 0.43595 0.15796 0.0
O260 O 0.30236 0.45157 0.1654 0.0
H261 H 0.31674 0.47367 0.12023 0.0
O262 O 0.31394 0.458 0.11334 0.0
Co263 Co 0.34457 0.47997 0.10191 0.0
O264 O 0.32937 0.51704 0.09646 0.0
O265 O 0.28824 0.51354 0.11544 0.0
O266 O 0.37567 0.45568 0.11184 0.0
O267 O 0.35417 0.41633 0.11371 0.0
O268 O 0.25808 0.39226 0.194 0.0
O269 O 0.25169 0.42975 0.21147 0.0
O270 O 0.36137 0.50007 0.13249 0.0
O271 O 0.32501 0.50157 0.15927 0.0
C272 C 0.32082 0.38719 0.17927 0.0
C273 C 0.25221 0.48719 0.1825 0.0
C274 C 0.35353 0.47288 0.05331 0.0
C275 C 0.27352 0.40197 0.121 0.0
C276 C 0.30579 0.52614 0.10103 0.0
C277 C 0.37558 0.43008 0.10932 0.0
C278 C 0.24821 0.40472 0.21374 0.0
C279 C 0.34977 0.50705 0.15422 0.0
O280 O 0.29576 0.39255 0.18312 0.0
O281 O 0.33596 0.4021 0.16479 0.0
O282 O 0.26983 0.49836 0.16731 0.0
O283 O 0.25055 0.46134 0.18588 0.0
O284 O 0.36519 0.4903 0.06752 0.0
O285 O 0.33677 0.4594 0.06669 0.0
O286 O 0.259 0.41191 0.13978 0.0
O287 O 0.2991 0.4054 0.12028 0.0
Co288 Co 0.77364 0.10283 0.85326 0.0
Co289 Co 0.79601 0.04833 0.8882 0.0
Co290 Co 0.82605 0.10082 0.89075 0.0
H291 H 0.80175 0.0942 0.87093 0.0
O292 O 0.80408 0.07862 0.86355 0.0
H293 H 0.81794 0.05721 0.9091 0.0
O294 O 0.81453 0.07282 0.91589 0.0
Co295 Co 0.84566 0.05198 0.92794 0.0
O296 O 0.83197 1.01394 0.93163 0.0
O297 O 0.79039 0.01685 0.91365 0.0
O298 O 0.87607 0.07885 0.92545 0.0
O299 O 0.85278 0.11651 0.91655 0.0
O300 O 0.75814 0.13674 0.8347 0.0
O301 O 0.75467 0.09933 0.81624 0.0
O302 O 0.86447 0.04093 0.89397 0.0
O303 O 0.82776 0.02896 0.8708 0.0
C304 C 0.82067 0.14373 0.8502 0.0
C305 C 0.75459 0.04199 0.8462 0.0
C306 C 0.85325 0.05532 0.97715 0.0
C307 C 0.77265 0.12746 0.90735 0.0
C308 C 0.80849 1.00438 0.92746 0.0
C309 C 0.87386 0.10449 0.92536 0.0
C310 C 0.74987 0.12418 0.81432 0.0
C311 C 0.85343 0.02984 0.87371 0.0
O312 O 0.79586 0.13762 0.846 0.0
O313 O 0.83606 0.12916 0.86474 0.0
O314 O 0.77251 0.03109 0.86127 0.0
O315 O 0.75235 0.06779 0.84299 0.0
O316 O 0.86614 0.03976 0.96181 0.0
O317 O 0.83591 0.06883 0.96457 0.0
O318 O 0.75866 0.11709 0.88847 0.0
O319 O 0.79827 0.1248 0.90828 0.0
Co320 Co 0.75787 0.92636 0.35444 0.0
Co321 Co 0.73551 0.98036 0.38931 0.0
Co322 Co 0.70453 0.92844 0.39038 0.0
H323 H 0.72932 0.93503 0.37126 0.0
O324 O 0.7274 0.95071 0.36402 0.0
H325 H 0.7133 0.97143 0.40997 0.0
O326 O 0.71628 0.95556 0.41637 0.0
Co327 Co 0.68579 0.97729 0.42897 0.0
O328 O 0.69948 0.01523 0.43264 0.0
O329 O 0.74122 1.01158 0.41521 0.0
O330 O 0.65516 0.95065 0.42594 0.0
O331 O 0.67729 0.91264 0.41553 0.0
O332 O 0.77305 0.89199 0.33637 0.0
O333 O 0.77755 0.92921 0.31773 0.0
O334 O 0.66794 0.99604 0.398 0.0
O335 O 0.70432 1.00015 0.37156 0.0
C336 C 0.70994 0.88633 0.34951 0.0
C337 C 0.77718 0.98707 0.34746 0.0
C338 C 0.67838 0.97285 0.47808 0.0
C339 C 0.75723 0.9023 0.40817 0.0
C340 C 0.72311 0.02444 0.4287 0.0
C341 C 0.6567 0.92497 0.42502 0.0
C342 C 0.78188 0.90426 0.31603 0.0
C343 C 0.67929 1.00418 0.37653 0.0
O344 O 0.7351 0.89187 0.34646 0.0
O345 O 0.69426 0.90125 0.36339 0.0
O346 O 0.75944 0.99774 0.3629 0.0
O347 O 0.77933 0.9613 0.34386 0.0
O348 O 0.66647 0.98973 0.46336 0.0
O349 O 0.69448 0.95839 0.46489 0.0
O350 O 0.77179 0.91518 0.39135 0.0
O351 O 0.7315 0.90272 0.40678 0.0
Co352 Co 0.25709 0.60293 0.67587 0.0
Co353 Co 0.23491 0.54811 0.64127 0.0
Co354 Co 0.20487 0.60056 0.63753 0.0
H355 H 0.22917 0.59432 0.65772 0.0
O356 O 0.2267 0.57886 0.66529 0.0
H357 H 0.21269 0.55636 0.6203 0.0
O358 O 0.21607 0.57179 0.6131 0.0
Co359 Co 0.18495 0.55034 0.60173 0.0
O360 O 0.20006 0.5131 0.59687 0.0
O361 O 0.24092 0.51614 0.61642 0.0
O362 O 0.15466 0.57685 0.60802 0.0
O363 O 0.17791 0.61521 0.61144 0.0
O364 O 0.27154 0.63696 0.69496 0.0
O365 O 0.27705 0.59929 0.7124 0.0
O366 O 0.16767 0.53054 0.63229 0.0
O367 O 0.2036 0.52893 0.65956 0.0
C368 C 0.20976 0.64377 0.67815 0.0
C369 C 0.27672 0.54236 0.68302 0.0
C370 C 0.17441 0.55539 0.55324 0.0
C371 C 0.25831 0.62762 0.62136 0.0
C372 C 0.22346 0.50372 0.60181 0.0
C373 C 0.15636 0.60239 0.60542 0.0
C374 C 0.28081 0.62427 0.71484 0.0
C375 C 0.17889 0.52361 0.65422 0.0
O376 O 0.23413 0.63707 0.6838 0.0
O377 O 0.19492 0.62978 0.66255 0.0
O378 O 0.25854 0.53149 0.66835 0.0
O379 O 0.27907 0.56817 0.68605 0.0
O380 O 0.16196 0.53993 0.56901 0.0
O381 O 0.1929 0.56807 0.56501 0.0
O382 O 0.27198 0.61806 0.64094 0.0
O383 O 0.23283 0.62399 0.61947 0.0
Co384 Co 0.92796 0.68702 0.54991 0.0
Co385 Co 0.8923 0.70675 0.60085 0.0
Co386 Co 0.88504 0.7348 0.54772 0.0
H387 H 0.90767 0.71385 0.55569 0.0
O388 O 0.91517 0.71805 0.57075 0.0
H389 H 0.87161 0.73064 0.59486 0.0
O390 O 0.8631 0.72735 0.58007 0.0
Co391 Co 0.85412 0.75895 0.60324 0.0
O392 O 0.84562 0.73568 0.63704 0.0
O393 O 0.86857 0.69708 0.63125 0.0
O394 O 0.845 0.78144 0.56859 0.0
O395 O 0.85585 0.75667 0.53186 0.0
O396 O 0.95977 0.662 0.54162 0.0
O397 O 0.96546 0.6962 0.56533 0.0
O398 O 0.88908 0.77437 0.61769 0.0
O399 O 0.91071 0.73526 0.62302 0.0
C400 C 0.9235 0.72385 0.50197 0.0
C401 C 0.92678 0.65945 0.60314 0.0
C402 C 0.81549 0.78352 0.62418 0.0
C403 C 0.87542 0.6786 0.52307 0.0
C404 C 0.85209 0.71171 0.6445 0.0
C405 C 0.84426 0.7769 0.54293 0.0
C406 C 0.97638 0.67593 0.55472 0.0
C407 C 0.90895 0.76071 0.62663 0.0
O408 O 0.93115 0.70165 0.51235 0.0
O409 O 0.90752 0.74042 0.51396 0.0
O410 O 0.91949 0.68094 0.61534 0.0
O411 O 0.92523 0.65702 0.57757 0.0
O412 O 0.81846 0.78031 0.59919 0.0
O413 O 0.83467 0.77323 0.63715 0.0
O414 O 0.89909 0.66985 0.52754 0.0
O415 O 0.86738 0.70185 0.531 0.0
Co416 Co 0.60316 0.34559 0.05115 0.0
Co417 Co 0.63941 0.32487 0.10021 0.0
Co418 Co 0.64227 0.2954 0.04743 0.0
H419 H 0.62155 0.31757 0.0563 0.0
O420 O 0.61454 0.31403 0.07178 0.0
H421 H 0.65941 0.30062 0.09342 0.0
O422 O 0.66682 0.30316 0.07788 0.0
Co423 Co 0.67728 0.27247 0.10181 0.0
O424 O 0.6849 0.29452 0.1366 0.0
O425 O 0.66489 0.33435 0.12907 0.0
O426 O 0.68721 0.25114 0.06665 0.0
O427 O 0.66907 0.27181 0.03019 0.0
O428 O 0.57142 0.37086 0.04326 0.0
O429 O 0.56495 0.3342 0.06277 0.0
O430 O 0.64227 0.25736 0.11668 0.0
O431 O 0.62157 0.29675 0.12343 0.0
C432 C 0.60311 0.30819 1.00361 0.0
C433 C 0.60499 0.37267 0.10441 0.0
C434 C 0.71658 0.24863 0.12257 0.0
C435 C 0.65729 0.3527 0.02867 0.0
C436 C 0.67981 0.31901 0.14327 0.0
C437 C 0.68395 0.25364 0.04088 0.0
C438 C 0.55433 0.35543 0.0539 0.0
C439 C 0.62293 0.2712 0.12651 0.0
O440 O 0.5992 0.33174 1.01318 0.0
O441 O 0.61682 0.28997 0.01599 0.0
O442 O 0.61353 0.35133 0.11613 0.0
O443 O 0.60513 0.37538 0.07883 0.0
O444 O 0.69693 0.25799 0.13555 0.0
O445 O 0.71374 0.25238 0.09763 0.0
O446 O 0.63724 0.36404 0.03988 0.0
O447 O 0.65994 0.32698 0.02797 0.0
Co448 Co 0.42848 0.84501 0.4782 0.0
Co449 Co 0.39142 0.82608 0.42925 0.0
Co450 Co 0.38836 0.79571 0.48152 0.0
H451 H 0.4095 0.81746 0.47278 0.0
O452 O 0.41634 0.81409 0.45719 0.0
H453 H 0.3714 0.80176 0.43556 0.0
O454 O 0.36394 0.80404 0.45111 0.0
Co455 Co 0.35358 0.77379 0.42667 0.0
O456 O 0.34661 0.79668 0.39213 0.0
O457 O 0.36561 0.83666 0.40106 0.0
O458 O 0.34289 0.75255 0.46172 0.0
O459 O 0.36113 0.77239 0.49857 0.0
O460 O 0.46247 0.86433 0.49177 0.0
O461 O 0.46515 0.83548 0.46135 0.0
O462 O 0.38891 0.75886 0.41251 0.0
O463 O 0.40889 0.79846 0.40507 0.0
C464 C 0.42733 0.80784 0.52574 0.0
C465 C 0.42633 0.87377 0.42596 0.0
C466 C 0.315 0.74951 0.40511 0.0
C467 C 0.37404 0.85327 0.49948 0.0
C468 C 0.35103 0.82157 0.3863 0.0
C469 C 0.34597 0.75464 0.48756 0.0
C470 C 0.47781 0.85194 0.4758 0.0
C471 C 0.40793 0.77285 0.40232 0.0
O472 O 0.43158 0.83136 0.51629 0.0
O473 O 0.4136 0.78981 0.51313 0.0
O474 O 0.41742 0.85282 0.41383 0.0
O475 O 0.42657 0.87572 0.45161 0.0
O476 O 0.32156 0.74689 0.42948 0.0
O477 O 0.33053 0.76548 0.39311 0.0
O478 O 0.39437 0.86408 0.48827 0.0
O479 O 0.37109 0.82761 0.50078 0.0
Co480 Co 0.10149 0.18574 0.9784 0.0
Co481 Co 0.13758 0.20552 0.92877 0.0
Co482 Co 0.14264 0.23431 0.98174 0.0
H483 H 0.12086 0.2131 0.97314 0.0
O484 O 0.11365 0.21701 0.95785 0.0
H485 H 0.15809 0.22944 0.93515 0.0
O486 O 0.16595 0.22654 0.95038 0.0
Co487 Co 0.1762 0.25743 0.92677 0.0
O488 O 0.18389 0.2347 0.89242 0.0
O489 O 0.16227 0.19559 0.89932 0.0
O490 O 0.187 0.27853 0.96186 0.0
O491 O 0.17065 0.25677 0.99852 0.0
O492 O 0.06756 0.16627 0.99196 0.0
O493 O 0.06468 0.19552 0.96194 0.0
O494 O 0.14128 0.27299 0.91214 0.0
O495 O 0.11986 0.23392 0.90591 0.0
C496 C 0.10573 0.22104 0.02718 0.0
C497 C 0.10229 0.15826 0.92543 0.0
C498 C 0.21508 0.28142 0.90565 0.0
C499 C 0.15632 0.1762 0.99857 0.0
C500 C 0.17797 0.21047 0.88547 0.0
C501 C 0.18489 0.27537 0.98769 0.0
C502 C 0.05211 0.17884 0.97627 0.0
C503 C 0.12161 0.25941 0.90266 0.0
O504 O 0.10066 0.19798 0.01706 0.0
O505 O 0.1188 0.23949 1.01447 0.0
O506 O 0.11087 0.17948 0.91349 0.0
O507 O 0.10269 0.15574 0.95103 0.0
O508 O 0.19576 0.27135 0.89277 0.0
O509 O 0.21211 0.27833 0.93067 0.0
O510 O 0.13524 0.1659 0.98831 0.0
O511 O 0.16013 0.20174 0.99951 0.0
Co512 Co 0.55173 0.9286 0.68544 0.0
Co513 Co 0.60121 0.8922 0.70519 0.0
Co514 Co 0.54829 0.88793 0.73425 0.0
H515 H 0.55709 0.90946 0.7129 0.0
O516 O 0.57248 0.91655 0.71667 0.0
H517 H 0.59474 0.87185 0.72923 0.0
O518 O 0.57938 0.86417 0.72654 0.0
Co519 Co 0.60329 0.85375 0.75718 0.0
O520 O 0.63801 0.84689 0.73462 0.0
O521 O 0.63001 0.8669 0.6949 0.0
O522 O 0.56805 0.84304 0.77801 0.0
O523 O 0.5313 0.86025 0.75702 0.0
O524 O 0.53802 0.96275 0.6664 0.0
O525 O 0.56823 0.96531 0.69544 0.0
O526 O 0.61802 0.88853 0.77263 0.0
O527 O 0.62469 0.90966 0.73345 0.0
C528 C 0.50283 0.92459 0.72041 0.0
C529 C 0.60494 0.92794 0.65807 0.0
C530 C 0.62487 0.81507 0.78137 0.0
C531 C 0.53137 0.87388 0.67627 0.0
C532 C 0.64436 0.85185 0.70998 0.0
C533 C 0.54222 0.84559 0.77525 0.0
C534 C 0.55379 0.97807 0.679 0.0
C535 C 0.62793 0.90793 0.75898 0.0
O536 O 0.5128 0.92889 0.69711 0.0
O537 O 0.51585 0.91234 0.73924 0.0
O538 O 0.61677 0.91866 0.67904 0.0
O539 O 0.57934 0.92815 0.65559 0.0
O540 O 0.60034 0.82123 0.7835 0.0
O541 O 0.63701 0.83106 0.76595 0.0
O542 O 0.54189 0.89476 0.66579 0.0
O543 O 0.53027 0.87036 0.70186 0.0
Co544 Co 0.97921 0.09991 0.18638 0.0
Co545 Co 0.92959 0.13797 0.20471 0.0
Co546 Co 0.98171 0.14075 0.23531 0.0
H547 H 0.97321 0.11952 0.21345 0.0
O548 O 0.9575 0.11287 0.21664 0.0
H549 H 0.93579 0.15775 0.22923 0.0
O550 O 0.95134 0.16518 0.227 0.0
Co551 Co 0.92701 0.17545 0.25731 0.0
O552 O 0.89289 0.18343 0.23428 0.0
O553 O 0.90134 0.16398 0.19435 0.0
O554 O 0.96188 0.18583 0.27895 0.0
O555 O 0.99865 0.16786 0.25871 0.0
O556 O 0.9917 0.06453 0.169 0.0
O557 O 0.95781 0.06515 0.19389 0.0
O558 O 0.91234 0.14018 0.27182 0.0
O559 O 0.90521 0.12032 0.2321 0.0
C560 C 0.02636 0.10141 0.22378 0.0
C561 C 0.92721 0.10369 0.15681 0.0
C562 C 0.90603 0.2141 0.28186 0.0
C563 C 1.0068 0.15203 0.17938 0.0
C564 C 0.88695 0.17905 0.20944 0.0
C565 C 0.98771 0.18277 0.2767 0.0
C566 C 0.97306 0.05092 0.17949 0.0
C567 C 0.90217 0.12128 0.25769 0.0
O568 O 0.01697 0.09627 0.20046 0.0
O569 O 1.01361 0.11569 0.24133 0.0
O570 O 0.91453 0.11224 0.1776 0.0
O571 O 0.95292 0.10354 0.15543 0.0
O572 O 0.89307 0.19491 0.27161 0.0
O573 O 0.93102 0.21113 0.27858 0.0
O574 O 1.00028 0.12957 0.16896 0.0
O575 O 1.00082 0.15843 0.20368 0.0
Co576 Co 0.05026 0.6003 0.34299 0.0
Co577 Co 0.1009 0.6375 0.32504 0.0
Co578 Co 0.04844 0.6431 0.29542 0.0
H579 H 0.05649 0.62078 0.31652 0.0
O580 O 0.07193 0.61376 0.31284 0.0
H581 H 0.09486 0.65841 0.30133 0.0
O582 O 0.07958 0.66619 0.3042 0.0
Co583 Co 0.10343 0.6771 0.27378 0.0
O584 O 0.13851 0.68239 0.29606 0.0
O585 O 0.13033 0.66206 0.33563 0.0
O586 O 0.06907 0.68707 0.25119 0.0
O587 O 0.0322 0.67153 0.27308 0.0
O588 O 0.03806 0.5662 0.36289 0.0
O589 O 0.06915 0.56423 0.33465 0.0
O590 O 0.11817 0.64239 0.25787 0.0
O591 O 0.1241 0.62012 0.29656 0.0
C592 C 1.00304 0.6043 0.30559 0.0
C593 C 0.10284 0.60227 0.3719 0.0
C594 C 0.12301 0.71876 0.25326 0.0
C595 C 0.02275 0.6525 0.35134 0.0
C596 C 0.14499 0.67687 0.32055 0.0
C597 C 0.04323 0.68523 0.25421 0.0
C598 C 0.05478 0.55128 0.35104 0.0
C599 C 0.12755 0.62241 0.27111 0.0
O600 O 1.01269 0.59754 0.32839 0.0
O601 O 0.01567 0.61951 0.28878 0.0
O602 O 0.11554 0.61042 0.35097 0.0
O603 O 0.07715 0.60304 0.37355 0.0
O604 O 0.11055 0.70102 0.24006 0.0
O605 O 0.12391 0.71295 0.27787 0.0
O606 O 0.02815 0.62919 0.36056 0.0
O607 O 0.03009 0.66022 0.3278 0.0
Co608 Co 0.47759 0.4278 0.84404 0.0
Co609 Co 0.42849 0.39076 0.82459 0.0
Co610 Co 0.48108 0.38742 0.79481 0.0
H611 H 0.47228 0.40871 0.81648 0.0
O612 O 0.45674 0.41561 0.813 0.0
H613 H 0.43498 0.37091 0.8002 0.0
O614 O 0.45042 0.3633 0.80267 0.0
Co615 Co 0.4265 0.35333 0.77197 0.0
O616 O 0.39208 0.3455 0.79462 0.0
O617 O 0.40008 0.36495 0.8346 0.0
O618 O 0.46162 0.34266 0.7508 0.0
O619 O 0.49824 0.36009 0.77169 0.0
O620 O 0.49061 0.46113 0.86482 0.0
O621 O 0.46192 0.46504 0.8344 0.0
O622 O 0.41245 0.38877 0.75718 0.0
O623 O 0.40464 0.40846 0.79686 0.0
C624 C 0.52593 0.42487 0.80795 0.0
C625 C 0.42486 0.4259 0.87226 0.0
C626 C 0.40524 0.31492 0.74736 0.0
C627 C 0.49888 0.37323 0.8525 0.0
C628 C 0.38587 0.34993 0.81939 0.0
C629 C 0.48744 0.34538 0.75345 0.0
C630 C 0.47565 0.47706 0.85194 0.0
C631 C 0.40211 0.40767 0.77123 0.0
O632 O 0.51608 0.42932 0.83127 0.0
O633 O 0.51314 0.41201 0.78946 0.0
O634 O 0.41284 0.41665 0.85139 0.0
O635 O 0.45049 0.42647 0.8743 0.0
O636 O 0.39247 0.33452 0.75712 0.0
O637 O 0.4302 0.31735 0.75113 0.0
O638 O 0.48809 0.39385 0.86324 0.0
O639 O 0.49976 0.36991 0.82688 0.0
Co640 Co 0.68655 0.5501 0.92851 0.0
Co641 Co 0.70549 0.60054 0.89219 0.0
Co642 Co 0.73482 0.54791 0.88625 0.0
H643 H 0.71351 0.55593 0.90848 0.0
O644 O 0.71737 0.57122 0.91571 0.0
H645 H 0.72926 0.59453 0.87137 0.0
O646 O 0.72635 0.57937 0.86339 0.0
Co647 Co 0.75699 0.60323 0.85307 0.0
O648 O 0.7347 0.63832 0.84752 0.0
O649 O 0.69511 0.63019 0.86781 0.0
O650 O 0.78028 0.56904 0.84431 0.0
O651 O 0.75717 0.53188 0.85746 0.0
O652 O 0.6623 0.54186 0.96096 0.0
O653 O 0.6957 0.56694 0.96539 0.0
O654 O 0.77274 0.61823 0.8876 0.0
O655 O 0.73395 0.62352 0.90986 0.0
C656 C 0.72459 0.50294 0.92578 0.0
C657 C 0.65812 0.60272 0.92656 0.0
C658 C 0.77755 0.62282 0.81139 0.0
C659 C 0.67891 0.52256 0.87638 0.0
C660 C 0.7102 0.64483 0.85301 0.0
C661 C 0.77654 0.54324 0.84472 0.0
C662 C 0.67597 0.55599 0.97694 0.0
C663 C 0.75934 0.62736 0.90757 0.0
O664 O 0.70187 0.51285 0.93254 0.0
O665 O 0.74127 0.51507 0.90998 0.0
O666 O 0.67949 0.61516 0.91925 0.0
O667 O 0.65607 0.57711 0.92496 0.0
O668 O 0.79086 0.61124 0.82967 0.0
O669 O 0.7528 0.62281 0.81668 0.0
O670 O 0.66942 0.52788 0.89957 0.0
O671 O 0.70253 0.52981 0.8689 0.0
Co672 Co 0.18521 0.9781 0.10254 0.0
Co673 Co 0.20538 0.92913 0.13862 0.0
Co674 Co 0.23539 0.98162 0.14151 0.0
H675 H 0.21331 0.97289 0.12074 0.0
O676 O 0.21669 0.9574 0.11369 0.0
H677 H 0.23007 0.9354 0.15818 0.0
O678 O 0.22777 0.95089 0.16579 0.0
Co679 Co 0.25833 0.92671 0.1756 0.0
O680 O 0.23555 0.89262 0.18402 0.0
O681 O 0.19565 0.90034 0.16421 0.0
O682 O 0.27965 0.96174 0.18594 0.0
O683 O 0.25903 0.99857 0.16843 0.0
O684 O 0.16273 0.98951 0.06971 0.0
O685 O 0.19381 0.96154 0.06548 0.0
O686 O 0.27241 0.9117 0.14024 0.0
O687 O 0.23263 0.90516 0.12022 0.0
C688 C 0.22332 0.02512 0.10122 0.0
C689 C 0.15535 0.92775 0.11005 0.0
C690 C 0.28299 0.90546 0.21404 0.0
C691 C 0.17794 0.99988 0.1568 0.0
C692 C 0.21093 0.88618 0.17926 0.0
C693 C 0.2772 0.98758 0.18311 0.0
C694 C 0.1754 0.9744 0.05377 0.0
C695 C 0.25819 0.90184 0.12122 0.0
O696 O 0.20017 0.01519 0.09622 0.0
O697 O 0.24083 1.01342 0.11639 0.0
O698 O 0.17737 0.91471 0.11345 0.0
O699 O 0.15459 0.95335 0.11239 0.0
O700 O 0.27346 0.89273 0.19433 0.0
O701 O 0.27899 0.93042 0.21169 0.0
O702 O 0.1667 0.98894 0.13659 0.0
O703 O 0.20366 1.00075 0.15947 0.0
Co704 Co 0.34526 0.05221 0.60211 0.0
Co705 Co 0.32466 0.10107 0.63866 0.0
Co706 Co 0.2943 0.04874 0.64041 0.0
H707 H 0.31696 0.05749 0.62012 0.0
O708 O 0.31376 0.07311 0.61325 0.0
H709 H 0.30034 0.09427 0.65839 0.0
O710 O 0.30252 0.07855 0.66551 0.0
Co711 Co 0.27248 0.10308 0.67637 0.0
O712 O 0.29355 0.13898 0.68158 0.0
O713 O 0.33429 0.12932 0.66481 0.0
O714 O 0.25056 0.06828 0.68602 0.0
O715 O 0.26999 0.03165 0.66679 0.0
O716 O 0.37233 0.04643 0.57145 0.0
O717 O 0.33393 0.06136 0.56319 0.0
O718 O 0.25728 0.11812 0.64146 0.0
O719 O 0.29675 0.12475 0.62089 0.0
C720 C 0.30695 1.00523 0.60109 0.0
C721 C 0.37257 0.10559 0.60448 0.0
C722 C 0.25244 0.12265 0.71827 0.0
C723 C 0.35092 0.02837 0.65576 0.0
C724 C 0.31855 0.14473 0.67802 0.0
C725 C 0.25236 0.04253 0.68224 0.0
C726 C 0.3564 0.0547 0.55354 0.0
C727 C 0.2712 0.12795 0.62217 0.0
O728 O 0.3307 1.0145 0.59772 0.0
O729 O 0.2886 0.01779 0.61447 0.0
O730 O 0.35133 0.11726 0.61328 0.0
O731 O 0.3751 0.07998 0.60395 0.0
O732 O 0.23878 0.11182 0.69982 0.0
O733 O 0.27717 0.12186 0.71304 0.0
O734 O 0.36291 0.03988 0.63628 0.0
O735 O 0.32517 0.02815 0.65796 0.0
Co736 Co 0.84385 0.47898 0.42853 0.0
Co737 Co 0.82526 0.42862 0.39166 0.0
Co738 Co 0.79561 0.48107 0.38648 0.0
H739 H 0.81702 0.47298 0.4085 0.0
O740 O 0.81335 0.45756 0.41558 0.0
H741 H 0.80134 0.43469 0.37104 0.0
O742 O 0.80413 0.44997 0.36324 0.0
Co743 Co 0.77364 0.426 0.35271 0.0
O744 O 0.7957 0.39064 0.34774 0.0
O745 O 0.83567 0.39935 0.36689 0.0
O746 O 0.75103 0.46047 0.34281 0.0
O747 O 0.77296 0.49731 0.35835 0.0
O748 O 0.86719 0.48863 0.46114 0.0
O749 O 0.83513 0.46176 0.46532 0.0
O750 O 0.758 0.41102 0.38748 0.0
O751 O 0.79698 0.40541 0.4093 0.0
C752 C 0.80593 0.52611 0.42565 0.0
C753 C 0.87246 0.4263 0.42636 0.0
C754 C 0.75373 0.40588 0.31106 0.0
C755 C 0.85128 0.50706 0.37655 0.0
C756 C 0.8204 0.38442 0.35263 0.0
C757 C 0.75404 0.48632 0.34471 0.0
C758 C 0.85407 0.47386 0.47701 0.0
C759 C 0.77154 0.40174 0.40731 0.0
O760 O 0.82872 0.51632 0.43229 0.0
O761 O 0.78917 0.51378 0.41019 0.0
O762 O 0.85135 0.4138 0.41848 0.0
O763 O 0.87435 0.45195 0.42529 0.0
O764 O 0.7402 0.4184 0.32855 0.0
O765 O 0.77828 0.40529 0.31709 0.0
O766 O 0.86076 0.50161 0.39971 0.0
O767 O 0.82775 0.49956 0.369 0.0
H768 H 0.02433 0.52059 0.38471 0.0
H769 H 0.11955 0.39029 0.37466 0.0
H770 H 0.09321 0.5165 0.33152 0.0
H771 H 0.06083 0.4046 0.43738 0.0
H772 H 0.10503 0.43234 0.3524 0.0
H773 H 0.03233 0.47389 0.39795 0.0
C774 C 0.04105 0.50975 0.37567 0.0
C775 C 0.0583 0.52243 0.35723 0.0
C776 C 0.09514 0.42601 0.37085 0.0
C777 C 0.06774 0.46899 0.3724 0.0
C778 C 0.10329 0.40202 0.38341 0.0
C779 C 0.09155 0.39429 0.40799 0.0
C780 C 0.07494 0.44194 0.3829 0.0
C781 C 0.07067 0.41012 0.41865 0.0
C782 C 0.04563 0.48308 0.38323 0.0
C783 C 0.07955 0.50742 0.34596 0.0
N784 N 0.06314 0.43323 0.40612 0.0
N785 N 0.08385 0.48147 0.35391 0.0
H786 H 0.41246 0.63885 0.87448 0.0
H787 H 0.5027 0.50547 0.89025 0.0
H788 H 0.46681 0.62272 0.94058 0.0
H789 H 0.44126 0.51395 0.82916 0.0
H790 H 0.49446 0.55188 0.9043 0.0
H791 H 0.42741 0.59662 0.85289 0.0
C792 C 0.42782 0.62666 0.88417 0.0
C793 C 0.43819 0.634 0.90946 0.0
C794 C 0.48289 0.54374 0.88765 0.0
C795 C 0.45527 0.58607 0.88512 0.0
C796 C 0.48765 0.51724 0.8796 0.0
C797 C 0.47254 0.50587 0.85864 0.0
C798 C 0.46275 0.55901 0.87474 0.0
C799 C 0.45329 0.52202 0.8455 0.0
C800 C 0.43623 0.60256 0.87197 0.0
C801 C 0.45797 0.61755 0.92128 0.0
N802 N 0.44876 0.54778 0.85391 0.0
N803 N 0.46573 0.59435 0.90909 0.0
H804 H 0.52474 1.00838 0.64361 0.0
H805 H 0.62043 0.13817 0.65528 0.0
H806 H 0.59079 1.01327 0.70009 0.0
H807 H 0.56404 0.12338 0.59064 0.0
H808 H 0.60483 0.09651 0.67753 0.0
H809 H 0.53373 0.05473 0.62971 0.0
C810 C 0.54096 0.01935 0.65329 0.0
C811 C 0.55718 1.00697 0.67284 0.0
C812 C 0.59573 0.10262 0.65862 0.0
C813 C 0.56782 0.05997 0.65687 0.0
C814 C 0.60451 0.12639 0.64604 0.0
C815 C 0.59372 0.13391 0.62097 0.0
C816 C 0.57583 0.0867 0.6461 0.0
C817 C 0.57321 0.11801 0.60975 0.0
C818 C 0.54615 0.0458 0.64532 0.0
C819 C 0.57789 0.02212 0.68483 0.0
N820 N 0.56504 0.09515 0.62232 0.0
N821 N 0.58281 0.04782 0.67647 0.0
H822 H 0.90189 0.89332 0.15257 0.0
H823 H 1.006 0.0169 0.15186 0.0
H824 H 0.96938 0.90135 0.09824 0.0
H825 H 0.92989 0.01963 0.19416 0.0
H826 H 0.99681 0.97027 0.13916 0.0
H827 H 0.9157 0.93549 0.17498 0.0
C828 C 0.91992 0.90368 0.1458 0.0
C829 C 0.9345 0.89415 0.12349 0.0
C830 C 0.98215 0.98096 0.15137 0.0
C831 C 0.95034 0.94187 0.14877 0.0
C832 C 0.98741 1.00757 0.15862 0.0
C833 C 0.96856 0.02212 0.17383 0.0
C834 C 0.95776 0.96883 0.15923 0.0
C835 C 0.94489 1.00904 0.18229 0.0
C836 C 0.92767 0.92774 0.15841 0.0
C837 C 0.9575 0.90828 0.1152 0.0
N838 N 0.94001 0.98313 0.17465 0.0
N839 N 0.96466 0.93145 0.12777 0.0
H840 H 0.40634 0.04845 0.53229 0.0
H841 H 0.37462 0.09474 0.3821 0.0
H842 H 0.32535 0.07262 0.51112 0.0
H843 H 0.4502 0.10802 0.42353 0.0
H844 H 0.35459 0.08005 0.4254 0.0
H845 H 0.42155 0.06171 0.48754 0.0
C846 C 0.39167 0.05621 0.51804 0.0
C847 C 0.36462 0.05963 0.52541 0.0
C848 C 0.3755 0.08635 0.42474 0.0
C849 C 0.38191 0.07492 0.4741 0.0
C850 C 0.38691 0.09471 0.40017 0.0
C851 C 0.41425 0.10216 0.39906 0.0
C852 C 0.39177 0.08524 0.44795 0.0
C853 C 0.42922 0.10195 0.42312 0.0
C854 C 0.40039 0.06396 0.49257 0.0
C855 C 0.34645 0.06983 0.50614 0.0
N856 N 0.41786 0.09341 0.44639 0.0
N857 N 0.35544 0.07723 0.48122 0.0
H858 H 0.13582 1.00019 0.02585 0.0
H859 H 0.15453 0.91275 0.89106 0.0
H860 H 0.19873 0.94063 0.01664 0.0
H861 H 0.08646 0.96439 0.90821 0.0
H862 H 0.17544 0.92737 0.93371 0.0
H863 H 0.12181 0.99195 0.97946 0.0
C864 C 0.14682 0.98551 1.01394 0.0
C865 C 0.16831 0.97093 0.0251 0.0
C866 C 0.15605 0.93565 0.92791 0.0
C867 C 0.15232 0.96119 0.97194 0.0
C868 C 0.14423 0.92744 0.90358 0.0
C869 C 0.11862 0.93714 0.89637 0.0
C870 C 0.1422 0.95385 0.94477 0.0
C871 C 0.10604 0.95607 0.91324 0.0
C872 C 0.13881 0.98076 0.98744 0.0
C873 C 0.18194 0.95219 1.00876 0.0
N874 N 0.11788 0.96368 0.93665 0.0
N875 N 0.17359 0.94769 0.98299 0.0
H876 H 0.89458 0.49831 0.5044 0.0
H877 H 0.8756 0.41141 0.63939 0.0
H878 H 0.83047 0.44021 0.51416 0.0
H879 H 0.94307 0.46384 0.62246 0.0
H880 H 0.85479 0.42561 0.59654 0.0
H881 H 0.9088 0.48975 0.55057 0.0
C882 C 0.88337 0.48386 0.51639 0.0
C883 C 0.86144 0.46985 0.50549 0.0
C884 C 0.87403 0.43413 0.60242 0.0
C885 C 0.87769 0.45972 0.55843 0.0
C886 C 0.8858 0.42615 0.62685 0.0
C887 C 0.91121 0.43622 0.63419 0.0
C888 C 0.88776 0.45243 0.58559 0.0
C889 C 0.92366 0.45522 0.61732 0.0
C890 C 0.8915 0.47893 0.54278 0.0
C891 C 0.84758 0.45136 0.5219 0.0
N892 N 0.91188 0.46258 0.59382 0.0
N893 N 0.85606 0.44666 0.54759 0.0
H894 H 0.70115 0.58811 1.0144 0.0
H895 H 0.58176 0.56892 0.1208 0.0
H896 H 0.6331 0.53491 1.00369 0.0
H897 H 0.65242 0.61651 0.13874 0.0
H898 H 0.60226 0.55482 0.07869 0.0
H899 H 0.68566 0.59762 0.06057 0.0
C900 C 0.68311 0.57827 0.02187 0.0
C901 C 0.66829 0.56076 1.00526 0.0
C902 C 0.6135 0.5682 0.09179 0.0
C903 C 0.65053 0.57155 0.05771 0.0
C904 C 0.60174 0.57633 0.11588 0.0
C905 C 0.6153 0.59416 0.13313 0.0
C906 C 0.63901 0.57814 0.08455 0.0
C907 C 0.64131 0.60276 0.12592 0.0
C908 C 0.67431 0.58369 0.04816 0.0
C909 C 0.64509 0.54856 0.0158 0.0
N910 N 0.65226 0.59491 0.10191 0.0
N911 N 0.63688 0.5543 0.04125 0.0
H912 H 0.42218 0.45517 0.0955 0.0
H913 H 0.51413 0.3258 0.07808 0.0
H914 H 0.38735 0.37557 0.10332 0.0
H915 H 0.53052 0.40307 0.04133 0.0
H916 H 0.46888 0.34211 0.09069 0.0
H917 H 0.46392 0.43514 0.08037 0.0
C918 C 0.42321 0.43338 0.09401 0.0
C919 C 0.40102 0.41705 0.10061 0.0
C920 C 0.48233 0.35526 0.07956 0.0
C921 C 0.4493 0.39387 0.08292 0.0
C922 C 0.50807 0.34602 0.07237 0.0
C923 C 0.52606 0.36322 0.05877 0.0
C924 C 0.47494 0.38191 0.07339 0.0
C925 C 0.51732 0.38918 0.05185 0.0
C926 C 0.44715 0.42196 0.08516 0.0
C927 C 0.40391 0.38891 0.09833 0.0
N928 N 0.49253 0.3978 0.05948 0.0
N929 N 0.42776 0.37811 0.08972 0.0
H930 H 0.02223 0.14293 1.00511 0.0
H931 H 0.89179 0.15494 0.91032 0.0
H932 H 0.01661 0.2 0.93953 0.0
H933 H 0.90775 0.08931 0.96536 0.0
H934 H 0.93333 0.17724 0.92598 0.0
H935 H 0.97597 0.12877 0.99616 0.0
C936 C 1.01111 0.15268 0.98899 0.0
C937 C 0.02327 0.17247 0.97289 0.0
C938 C 0.9275 0.1581 0.93477 0.0
C939 C 0.97037 0.15623 0.96232 0.0
C940 C 0.90381 0.14547 0.92595 0.0
C941 C 0.89663 0.12012 0.93633 0.0
C942 C 0.94372 0.14534 0.9543 0.0
C943 C 0.91283 0.10864 0.9565 0.0
C944 C 0.98472 0.14457 0.98383 0.0
C945 C 1.00794 0.18455 0.95233 0.0
N946 N 0.93562 0.12126 0.96472 0.0
N947 N 0.98229 0.17606 0.94744 0.0
H948 H 0.63806 0.87496 0.40949 0.0
H949 H 0.508 0.88735 0.50487 0.0
H950 H 0.62299 0.94019 0.46522 0.0
H951 H 0.51306 0.8308 0.43887 0.0
H952 H 0.5544 0.90116 0.49592 0.0
H953 H 0.59636 0.85294 0.42517 0.0
C954 C 0.62618 0.88441 0.42525 0.0
C955 C 0.63366 0.90958 0.43581 0.0
C956 C 0.54548 0.88556 0.4835 0.0
C957 C 0.58641 0.88465 0.45383 0.0
C958 C 0.51901 0.87765 0.48866 0.0
C959 C 0.50667 0.85813 0.47242 0.0
C960 C 0.55969 0.87395 0.46186 0.0
C961 C 0.52188 0.84607 0.45176 0.0
C962 C 0.60241 0.87194 0.43409 0.0
C963 C 0.61766 0.92102 0.45618 0.0
N964 N 0.54758 0.85436 0.44687 0.0
N965 N 0.59479 0.90854 0.46441 0.0
H966 H 1.00142 0.63149 0.53496 0.0
H967 H 0.141 0.65556 0.61287 0.0
H968 H 0.01546 0.70184 0.58428 0.0
H969 H 0.11721 0.58139 0.5739 0.0
H970 H 0.09827 0.67626 0.59792 0.0
H971 H 0.04709 0.61621 0.5443 0.0
C972 C 1.01426 0.64385 0.54761 0.0
C973 C 1.00467 0.66788 0.55895 0.0
C974 C 0.10261 0.65552 0.59258 0.0
C975 C 0.0571 0.65043 0.56997 0.0
C976 C 0.12697 0.64378 0.60098 0.0
C977 C 0.13243 0.61665 0.59491 0.0
C978 C 0.084 0.63999 0.5778 0.0
C979 C 0.11365 0.60224 0.57943 0.0
C980 C 0.04035 0.6351 0.55301 0.0
C981 C 0.02215 0.68311 0.57522 0.0
N982 N 0.09034 0.61404 0.57154 0.0
N983 N 0.04758 0.67405 0.58041 0.0
H984 H 0.93201 0.51385 0.69763 0.0
H985 H 0.96696 0.62556 0.58838 0.0
H986 H 1.00198 0.51097 0.64582 0.0
H987 H 0.90992 0.64047 0.65245 0.0
H988 H 0.98073 0.58404 0.61065 0.0
H989 H 0.92375 0.5605 0.68293 0.0
C990 C 0.94578 0.52316 0.68341 0.0
C991 C 0.96758 0.50855 0.67271 0.0
C992 C 0.96539 0.59643 0.62009 0.0
C993 C 0.95827 0.56156 0.65585 0.0
C994 C 0.95751 0.62014 0.60733 0.0
C995 C 0.93719 0.63629 0.61855 0.0
C996 C 0.95244 0.5884 0.64399 0.0
C997 C 0.92572 0.62849 0.64324 0.0
C998 C 0.9411 0.54974 0.67509 0.0
C999 C 0.98482 0.52145 0.65439 0.0
N1000 N 0.9332 0.60477 0.65499 0.0
N1001 N 0.97966 0.54711 0.64638 0.0
H1002 H 0.59737 0.51874 0.1978 0.0
H1003 H 0.56139 0.40315 0.0927 0.0
H1004 H 0.5269 0.51916 0.14669 0.0
H1005 H 0.62443 0.3937 0.15187 0.0
H1006 H 0.54681 0.44431 0.11504 0.0
H1007 H 0.60655 0.47205 0.18391 0.0
C1008 C 0.58369 0.50888 0.1839 0.0
C1009 C 0.56146 0.5228 0.17317 0.0
C1010 C 0.56368 0.43322 0.12343 0.0
C1011 C 0.5718 0.46971 0.15725 0.0
C1012 C 0.57199 0.4097 0.11063 0.0
C1013 C 0.59422 0.39524 0.12039 0.0
C1014 C 0.57809 0.44278 0.14585 0.0
C1015 C 0.60714 0.40438 0.14383 0.0
C1016 C 0.58891 0.48228 0.17603 0.0
C1017 C 0.54437 0.50921 0.15527 0.0
N1018 N 0.59916 0.42792 0.15558 0.0
N1019 N 0.55001 0.48352 0.14774 0.0
H1020 H 0.50468 0.02309 0.38745 0.0
H1021 H 0.41069 0.89205 0.37585 0.0
H1022 H 0.43801 0.01774 0.33174 0.0
H1023 H 0.46621 0.90785 0.44101 0.0
H1024 H 0.42567 0.93401 0.35379 0.0
H1025 H 0.49612 0.9767 0.40153 0.0
C1026 C 0.48837 1.01203 0.37801 0.0
C1027 C 0.47186 0.02429 0.35862 0.0
C1028 C 0.43472 0.92806 0.37277 0.0
C1029 C 0.46179 0.97121 0.37472 0.0
C1030 C 0.42629 0.90413 0.38525 0.0
C1031 C 0.43701 0.89677 0.41041 0.0
C1032 C 0.45418 0.94435 0.38546 0.0
C1033 C 0.45711 0.91306 0.42182 0.0
C1034 C 0.48345 0.98555 0.38607 0.0
C1035 C 0.45109 1.009 0.3469 0.0
N1036 N 0.46494 0.93609 0.40934 0.0
N1037 N 0.44648 0.98326 0.3553 0.0
H1038 H 0.11827 0.13984 0.87552 0.0
H1039 H 0.02635 1.00764 0.88935 0.0
H1040 H 0.06187 0.12474 0.94016 0.0
H1041 H 0.09167 1.01394 0.83207 0.0
H1042 H 0.03419 0.05428 0.90281 0.0
H1043 H 0.1038 0.09753 0.85389 0.0
C1044 C 0.10253 0.12788 0.88485 0.0
C1045 C 0.09146 0.13549 0.90977 0.0
C1046 C 0.04674 0.04559 0.88715 0.0
C1047 C 0.07492 0.08748 0.88539 0.0
C1048 C 0.04224 0.01896 0.87947 0.0
C1049 C 0.05853 1.00693 0.85976 0.0
C1050 C 0.0678 0.06032 0.87515 0.0
C1051 C 0.07876 0.02252 0.84747 0.0
C1052 C 0.09441 0.10372 0.87263 0.0
C1053 C 0.07122 0.11933 0.92114 0.0
N1054 N 0.08299 0.04843 0.85553 0.0
N1055 N 0.06372 0.09606 0.90895 0.0
H1056 H 0.69883 0.93467 0.51251 0.0
H1057 H 0.59225 0.97086 0.62692 0.0
H1058 H 0.64449 1.0027 0.50924 0.0
H1059 H 0.65321 0.90961 0.63776 0.0
H1060 H 0.6143 0.98509 0.58542 0.0
H1061 H 0.68544 0.92692 0.55957 0.0
C1062 C 0.68432 0.94814 0.52182 0.0
C1063 C 0.67253 0.96921 0.50699 0.0
C1064 C 0.62314 0.96872 0.59691 0.0
C1065 C 0.65715 0.96048 0.56053 0.0
C1066 C 0.61052 0.9606 0.62061 0.0
C1067 C 0.62082 0.93888 0.63551 0.0
C1068 C 0.64598 0.95469 0.58768 0.0
C1069 C 0.64469 0.92645 0.62671 0.0
C1070 C 0.67673 0.94374 0.54864 0.0
C1071 C 0.6539 0.98609 0.51991 0.0
N1072 N 0.65628 0.93425 0.60303 0.0
N1073 N 0.64664 0.98122 0.54585 0.0
H1074 H 0.94312 0.06333 0.12373 0.0
H1075 H 0.83069 0.09138 1.01249 0.0
H1076 H 0.87774 0.1194 0.13679 0.0
H1077 H 0.89061 0.02837 1.00706 0.0
H1078 H 0.84509 0.10035 0.059 0.0
H1079 H 0.92172 0.04842 0.08224 0.0
C1080 C 0.9241 0.07241 0.11786 0.0
C1081 C 0.91232 0.09285 0.13348 0.0
C1082 C 0.85483 0.08435 0.04773 0.0
C1083 C 0.88771 0.07605 0.08567 0.0
C1084 C 0.84664 0.07922 0.02122 0.0
C1085 C 0.85964 0.05922 1.00593 0.0
C1086 C 0.87623 0.06942 0.05884 0.0
C1087 C 0.88016 0.04407 0.01811 0.0
C1088 C 0.91182 0.06383 0.09418 0.0
C1089 C 0.88746 0.10361 0.12521 0.0
N1090 N 0.88795 0.04963 0.04375 0.0
N1091 N 0.87612 0.09535 0.10157 0.0
H1092 H 0.1354 0.52913 0.52516 0.0
H1093 H 0.15323 0.61675 0.39032 0.0
H1094 H 0.19669 0.59035 0.51653 0.0
H1095 H 0.08589 0.56418 0.40716 0.0
H1096 H 0.17397 0.60274 0.43326 0.0
H1097 H 0.12141 0.53725 0.47873 0.0
C1098 C 0.14602 0.54419 0.51339 0.0
C1099 C 0.16709 0.5592 0.52468 0.0
C1100 C 0.15479 0.59412 0.42734 0.0
C1101 C 0.15111 0.56878 0.47149 0.0
C1102 C 0.14307 0.60197 0.40284 0.0
C1103 C 0.1177 0.59184 0.39546 0.0
C1104 C 0.14108 0.57582 0.4442 0.0
C1105 C 0.10528 0.57282 0.41234 0.0
C1106 C 0.13802 0.54886 0.48687 0.0
C1107 C 0.18025 0.57842 0.50852 0.0
N1108 N 0.11703 0.56555 0.43592 0.0
N1109 N 0.17192 0.58281 0.48271 0.0
H1110 H 0.3332 0.43369 0.01993 0.0
H1111 H 0.43722 0.46942 0.90253 0.0
H1112 H 0.38793 0.50136 0.02143 0.0
H1113 H 0.37768 0.40652 0.89431 0.0
H1114 H 0.41615 0.4835 0.94456 0.0
H1115 H 0.34627 0.42491 0.97293 0.0
C1116 C 0.34779 0.44682 1.01028 0.0
C1117 C 0.35969 0.46816 0.02458 0.0
C1118 C 0.4074 0.46678 0.93356 0.0
C1119 C 0.37465 0.4583 0.97105 0.0
C1120 C 0.41945 0.45875 0.90953 0.0
C1121 C 0.40928 0.43665 0.89516 0.0
C1122 C 0.38525 0.45229 0.94368 0.0
C1123 C 0.38607 0.42369 0.90489 0.0
C1124 C 0.35518 0.44183 0.98348 0.0
C1125 C 0.37841 0.48458 1.0112 0.0
N1126 N 0.37503 0.43144 0.92888 0.0
N1127 N 0.38541 0.4792 0.98529 0.0
H1128 H 0.64135 0.65427 0.91401 0.0
H1129 H 0.50728 0.63979 1.00347 0.0
H1130 H 0.62157 0.58519 0.96326 0.0
H1131 H 0.51488 0.6984 0.93947 0.0
H1132 H 0.55353 0.62515 0.99494 0.0
H1133 H 0.59918 0.67607 0.9289 0.0
C1134 C 0.62835 0.6439 0.92822 0.0
C1135 C 0.63473 0.6178 0.93721 0.0
C1136 C 0.54519 0.64136 0.98286 0.0
C1137 C 0.58694 0.64249 0.95434 0.0
C1138 C 0.51881 0.64976 0.98778 0.0
C1139 C 0.50722 0.67016 0.97201 0.0
C1140 C 0.56014 0.6534 0.96197 0.0
C1141 C 0.5231 0.68249 0.95201 0.0
C1142 C 0.60431 0.65625 0.93659 0.0
C1143 C 0.61724 0.60517 0.95554 0.0
N1144 N 0.54875 0.67377 0.94739 0.0
N1145 N 0.59417 0.61759 0.96342 0.0
H1146 H 0.99668 0.90564 0.0491 0.0
H1147 H 0.14667 0.87402 0.09656 0.0
H1148 H 0.01814 0.82483 0.07372 0.0
H1149 H 0.10559 0.95023 0.10764 0.0
H1150 H 0.10346 0.85402 0.08176 0.0
H1151 H 0.04135 0.92103 0.06223 0.0
C1152 C 1.01097 0.89104 0.05693 0.0
C1153 C 1.00371 0.86398 0.06049 0.0
C1154 C 0.10416 0.87507 0.0876 0.0
C1155 C 0.05493 0.8815 0.07568 0.0
C1156 C 0.12869 0.88646 0.09603 0.0
C1157 C 0.12987 0.91394 0.10297 0.0
C1158 C 0.08106 0.89147 0.0859 0.0
C1159 C 0.10593 0.92911 0.10206 0.0
C1160 C 0.03641 0.89987 0.06461 0.0
C1161 C 0.02303 0.84593 0.07081 0.0
N1162 N 0.0827 0.91774 0.0935 0.0
N1163 N 0.04791 0.85503 0.07815 0.0
H1164 H 0.40134 0.0966 0.55914 0.0
H1165 H 0.52019 0.19626 0.5996 0.0
H1166 H 0.3954 0.15081 0.62683 0.0
H1167 H 0.5183 0.14994 0.52592 0.0
H1168 H 0.47339 0.18296 0.60864 0.0
H1169 H 0.44258 0.11913 0.54488 0.0
C1170 C 0.40871 0.11347 0.57085 0.0
C1171 C 0.39521 0.12177 0.59423 0.0
C1172 C 0.4831 0.17603 0.59032 0.0
C1173 C 0.4428 0.1474 0.5785 0.0
C1174 C 0.50977 0.1836 0.58515 0.0
C1175 C 0.5231 0.17398 0.56207 0.0
C1176 C 0.46981 0.15867 0.57229 0.0
C1177 C 0.5088 0.15761 0.54405 0.0
C1178 C 0.43225 0.12637 0.56273 0.0
C1179 C 0.40533 0.1439 0.60862 0.0
N1180 N 0.48302 0.15031 0.54966 0.0
N1181 N 0.42887 0.15574 0.60077 0.0
H1182 H 0.88984 0.37519 0.41303 0.0
H1183 H 0.02293 0.38958 0.50372 0.0
H1184 H 0.90816 0.44333 0.46403 0.0
H1185 H 0.01581 0.33103 0.4397 0.0
H1186 H 0.97661 0.40395 0.49518 0.0
H1187 H 0.93191 0.35341 0.42815 0.0
C1188 C 0.9025 0.38534 0.42767 0.0
C1189 C 0.89576 0.41119 0.43708 0.0
C1190 C 0.98506 0.38781 0.4831 0.0
C1191 C 0.94345 0.38654 0.45445 0.0
C1192 C 1.01148 0.37957 0.48803 0.0
C1193 C 0.02322 0.35927 0.47225 0.0
C1194 C 0.97025 0.37574 0.46216 0.0
C1195 C 1.00747 0.34687 0.45224 0.0
C1196 C 0.92649 0.373 0.43617 0.0
C1197 C 0.91281 0.42356 0.45596 0.0
N1198 N 0.98179 0.35545 0.44759 0.0
N1199 N 0.93585 0.41117 0.46393 0.0
H1200 H 0.24579 0.35056 0.22485 0.0
H1201 H 0.17456 0.37232 0.36832 0.0
H1202 H 0.22466 0.42834 0.25774 0.0
H1203 H 0.20536 0.29483 0.34279 0.0
H1204 H 0.19088 0.3922 0.32668 0.0
H1205 H 0.22899 0.32903 0.26621 0.0
C1206 C 0.23745 0.36309 0.24071 0.0
C1207 C 0.2366 0.39131 0.23786 0.0
C1208 C 0.19419 0.37086 0.3301 0.0
C1209 C 0.21744 0.36681 0.28524 0.0
C1210 C 0.18483 0.35937 0.354 0.0
C1211 C 0.18855 0.33171 0.35928 0.0
C1212 C 0.20739 0.35473 0.31094 0.0
C1213 C 0.20208 0.31621 0.33971 0.0
C1214 C 0.22798 0.35079 0.26435 0.0
C1215 C 0.2257 0.40655 0.25906 0.0
N1216 N 0.21095 0.32792 0.31637 0.0
N1217 N 0.21657 0.39412 0.28179 0.0
H1218 H 0.35217 0.6559 0.87066 0.0
H1219 H 0.28325 0.6783 0.72622 0.0
H1220 H 0.32315 0.73373 0.84406 0.0
H1221 H 0.30335 0.60025 0.75919 0.0
H1222 H 0.29945 0.69955 0.76787 0.0
H1223 H 0.33574 0.63594 0.82908 0.0
C1224 C 0.34222 0.66889 0.85613 0.0
C1225 C 0.33908 0.69668 0.86105 0.0
C1226 C 0.30036 0.67779 0.76598 0.0
C1227 C 0.32019 0.67361 0.81282 0.0
C1228 C 0.29125 0.66564 0.74216 0.0
C1229 C 0.29201 0.63744 0.73923 0.0
C1230 C 0.31044 0.66163 0.787 0.0
C1231 C 0.30241 0.62204 0.76058 0.0
C1232 C 0.33281 0.65736 0.83228 0.0
C1233 C 0.32594 0.71224 0.84127 0.0
N1234 N 0.31121 0.63432 0.78349 0.0
N1235 N 0.31708 0.70051 0.81798 0.0
H1236 H 0.68134 0.15611 0.65748 0.0
H1237 H 0.74513 0.17836 0.80413 0.0
H1238 H 0.70673 0.23451 0.68582 0.0
H1239 H 0.7298 0.1003 0.76885 0.0
H1240 H 0.72934 0.19986 0.76238 0.0
H1241 H 0.69759 0.13608 0.69908 0.0
C1242 C 0.69047 0.16921 0.6724 0.0
C1243 C 0.69259 0.19717 0.66798 0.0
C1244 C 0.7294 0.17804 0.7638 0.0
C1245 C 0.71128 0.17403 0.71626 0.0
C1246 C 0.73828 0.16575 0.78765 0.0
C1247 C 0.73877 0.13747 0.78994 0.0
C1248 C 0.72078 0.16194 0.74213 0.0
C1249 C 0.72977 0.12214 0.76796 0.0
C1250 C 0.69977 0.15765 0.69627 0.0
C1251 C 0.70472 0.21288 0.68824 0.0
N1252 N 0.72115 0.13456 0.74504 0.0
N1253 N 0.71349 0.20111 0.71157 0.0
H1254 H 0.84774 0.87148 0.1584 0.0
H1255 H 0.78603 0.84992 0.3062 0.0
H1256 H 0.8243 0.79289 0.18799 0.0
H1257 H 0.8021 0.92763 0.27036 0.0
H1258 H 0.80127 0.82805 0.26441 0.0
H1259 H 0.83196 0.89157 0.20007 0.0
C1260 C 0.83915 0.85834 0.17363 0.0
C1261 C 0.83746 0.8303 0.16954 0.0
C1262 C 0.80151 0.84987 0.26573 0.0
C1263 C 0.81928 0.85356 0.21795 0.0
C1264 C 0.79294 0.86237 0.2896 0.0
C1265 C 0.79282 0.89066 0.29174 0.0
C1266 C 0.81013 0.86578 0.24389 0.0
C1267 C 0.80187 0.90578 0.26961 0.0
C1268 C 0.83011 0.86994 0.19756 0.0
C1269 C 0.82596 0.81456 0.19018 0.0
N1270 N 0.81013 0.89317 0.24668 0.0
N1271 N 0.81742 0.8264 0.21357 0.0
H1272 H 0.35911 0.15941 0.36248 0.0
H1273 H 0.2511 0.2783 0.36967 0.0
H1274 H 0.35542 0.22231 0.30222 0.0
H1275 H 0.24134 0.20275 0.41184 0.0
H1276 H 0.29082 0.25991 0.3467 0.0
H1277 H 0.31775 0.17668 0.38258 0.0
C1278 C 0.34967 0.17696 0.35346 0.0
C1279 C 0.36102 0.18956 0.33067 0.0
C1280 C 0.27996 0.24732 0.3609 0.0
C1281 C 0.3133 0.20953 0.3539 0.0
C1282 C 0.25737 0.25782 0.37414 0.0
C1283 C 0.24298 0.24204 0.39282 0.0
C1284 C 0.28855 0.22094 0.36664 0.0
C1285 C 0.25187 0.21561 0.39765 0.0
C1286 C 0.32589 0.18671 0.36494 0.0
C1287 C 0.34749 0.212 0.31979 0.0
N1288 N 0.27421 0.20596 0.3848 0.0
N1289 N 0.32446 0.22143 0.33166 0.0
H1290 H 0.18516 0.82329 0.7949 0.0
H1291 H 0.27344 0.80774 0.92994 0.0
H1292 H 0.16311 0.85728 0.8721 0.0
H1293 H 0.30172 0.78201 0.85173 0.0
H1294 H 0.23236 0.82519 0.90881 0.0
H1295 H 0.22731 0.80671 0.81505 0.0
C1296 C 0.18908 0.82722 0.81604 0.0
C1297 C 0.1704 0.84169 0.83176 0.0
C1298 C 0.24757 0.81582 0.8962 0.0
C1299 C 0.21865 0.82283 0.85493 0.0
C1300 C 0.27104 0.80589 0.90829 0.0
C1301 C 0.29101 0.79341 0.89258 0.0
C1302 C 0.24385 0.8131 0.86818 0.0
C1303 C 0.28683 0.79153 0.86459 0.0
C1304 C 0.2132 0.81782 0.82751 0.0
C1305 C 0.17673 0.84621 0.85907 0.0
N1306 N 0.26368 0.80114 0.85329 0.0
N1307 N 0.20018 0.83682 0.86971 0.0
H1308 H 0.72571 0.28635 0.67797 0.0
H1309 H 0.87379 0.34735 0.65609 0.0
H1310 H 0.76203 0.29981 0.6 0.0
H1311 H 0.84311 0.32586 0.7348 0.0
H1312 H 0.83233 0.33099 0.63582 0.0
H1313 H 0.76734 0.30218 0.69956 0.0
C1314 C 0.74239 0.29281 0.66539 0.0
C1315 C 0.7404 0.2918 0.63712 0.0
C1316 C 0.8346 0.32969 0.65752 0.0
C1317 C 0.78815 0.30979 0.66171 0.0
C1318 C 0.85839 0.33905 0.66921 0.0
C1319 C 0.86212 0.33805 0.69733 0.0
C1320 C 0.814 0.31926 0.67391 0.0
C1321 C 0.84126 0.32695 0.71307 0.0
C1322 C 0.76619 0.30172 0.67775 0.0
C1323 C 0.76266 0.30027 0.62184 0.0
N1324 N 0.81804 0.31811 0.70116 0.0
N1325 N 0.78555 0.30889 0.63431 0.0
H1326 H 0.68545 0.70375 0.2357 0.0
H1327 H 0.76963 0.72556 0.09882 0.0
H1328 H 0.6584 0.67813 0.15695 0.0
H1329 H 0.80208 0.74268 0.17772 0.0
H1330 H 0.72813 0.70925 0.12004 0.0
H1331 H 0.72753 0.71993 0.21514 0.0
C1332 C 0.68821 0.70169 0.21413 0.0
C1333 C 0.66822 0.68955 0.19811 0.0
C1334 C 0.74434 0.71647 0.13277 0.0
C1335 C 0.71642 0.70789 0.17445 0.0
C1336 C 0.76806 0.72573 0.12063 0.0
C1337 C 0.78932 0.73545 0.13653 0.0
C1338 C 0.74173 0.71708 0.16105 0.0
C1339 C 0.78618 0.73527 0.16472 0.0
C1340 C 0.71232 0.7108 0.20241 0.0
C1341 C 0.67313 0.68727 0.17023 0.0
N1342 N 0.76279 0.72636 0.17608 0.0
N1343 N 0.69661 0.69633 0.15937 0.0
H1344 H 0.35207 0.22643 0.24442 0.0
H1345 H 0.37412 0.37303 0.17979 0.0
H1346 H 0.43008 0.26083 0.22693 0.0
H1347 H 0.29577 0.34404 0.20468 0.0
H1348 H 0.3943 0.33137 0.19593 0.0
H1349 H 0.33061 0.26816 0.22852 0.0
C1350 C 0.36468 0.2427 0.23704 0.0
C1351 C 0.39293 0.24015 0.23694 0.0
C1352 C 0.3727 0.33406 0.198 0.0
C1353 C 0.36849 0.28801 0.21888 0.0
C1354 C 0.36106 0.35796 0.18877 0.0
C1355 C 0.33306 0.36223 0.19081 0.0
C1356 C 0.35638 0.31391 0.20936 0.0
C1357 C 0.31741 0.34176 0.20273 0.0
C1358 C 0.35241 0.26656 0.22811 0.0
C1359 C 0.40826 0.26191 0.22735 0.0
N1360 N 0.32926 0.31845 0.21145 0.0
N1361 N 0.39586 0.28487 0.21872 0.0
H1362 H 0.7952 0.18406 0.82093 0.0
H1363 H 0.92946 0.27425 0.80904 0.0
H1364 H 0.87258 0.16189 0.85443 0.0
H1365 H 0.85163 0.30151 0.78115 0.0
H1366 H 0.90854 0.23259 0.82524 0.0
H1367 H 0.81511 0.2266 0.80501 0.0
C1368 C 0.81633 0.188 0.82485 0.0
C1369 C 0.83215 0.1692 0.83906 0.0
C1370 C 0.89596 0.24768 0.81566 0.0
C1371 C 0.85503 0.21793 0.82101 0.0
C1372 C 0.90792 0.27151 0.80646 0.0
C1373 C 0.89228 0.29136 0.79375 0.0
C1374 C 0.8681 0.2435 0.81199 0.0
C1375 C 0.86444 0.28672 0.7909 0.0
C1376 C 0.82766 0.21235 0.81584 0.0
C1377 C 0.85946 0.17559 0.84357 0.0
N1378 N 0.85325 0.26324 0.79983 0.0
N1379 N 0.86993 0.19928 0.83462 0.0
H1380 H 0.6001 0.75686 0.30775 0.0
H1381 H 0.73543 0.84545 0.32089 0.0
H1382 H 0.67789 0.72851 0.2808 0.0
H1383 H 0.65768 0.86895 0.35262 0.0
H1384 H 0.71522 0.80308 0.30486 0.0
H1385 H 0.62134 0.79839 0.3238 0.0
C1386 C 0.62169 0.75934 0.30531 0.0
C1387 C 0.63722 0.7392 0.29291 0.0
C1388 C 0.70265 0.81759 0.31532 0.0
C1389 C 0.6618 0.78694 0.31099 0.0
C1390 C 0.71417 0.84185 0.32438 0.0
C1391 C 0.69833 0.86098 0.33813 0.0
C1392 C 0.67509 0.81243 0.32 0.0
C1393 C 0.67083 0.85501 0.34212 0.0
C1394 C 0.63385 0.7831 0.31443 0.0
C1395 C 0.66515 0.74352 0.29029 0.0
N1396 N 0.66021 0.83141 0.33316 0.0
N1397 N 0.67653 0.76694 0.29913 0.0
H1398 H 0.15849 0.77782 0.77899 0.0
H1399 H 0.16697 0.67209 0.65825 0.0
H1400 H 0.11869 0.7901 0.70257 0.0
H1401 H 0.22596 0.67391 0.72232 0.0
H1402 H 0.14696 0.71339 0.67589 0.0
H1403 H 0.18116 0.73802 0.76039 0.0
C1404 C 0.15448 0.7721 0.75828 0.0
C1405 C 0.13656 0.78723 0.74231 0.0
C1406 C 0.16431 0.70484 0.68609 0.0
C1407 C 0.16239 0.74156 0.72096 0.0
C1408 C 0.17571 0.68111 0.67613 0.0
C1409 C 0.19812 0.66927 0.68894 0.0
C1410 C 0.17502 0.71685 0.70935 0.0
C1411 C 0.20869 0.68223 0.71182 0.0
C1412 C 0.16755 0.74945 0.74766 0.0
C1413 C 0.13228 0.77899 0.71559 0.0
N1414 N 0.19689 0.7052 0.72144 0.0
N1415 N 0.14495 0.7566 0.70581 0.0
H1416 H 0.82973 0.62082 0.79276 0.0
H1417 H 0.80631 0.72696 0.67263 0.0
H1418 H 0.75192 0.65593 0.77557 0.0
H1419 H 0.87266 0.67047 0.67464 0.0
H1420 H 0.78834 0.70613 0.71401 0.0
H1421 H 0.8482 0.6438 0.75291 0.0
C1422 C 0.81656 0.63336 0.78061 0.0
C1423 C 0.78924 0.63634 0.78738 0.0
C1424 C 0.80684 0.69837 0.70531 0.0
C1425 C 0.81024 0.66295 0.742 0.0
C1426 C 0.81713 0.71029 0.68176 0.0
C1427 C 0.84089 0.7003 0.66993 0.0
C1428 C 0.82067 0.67664 0.71735 0.0
C1429 C 0.8541 0.67866 0.68276 0.0
C1430 C 0.82707 0.64646 0.75787 0.0
C1431 C 0.77308 0.65296 0.77098 0.0
N1432 N 0.84389 0.66766 0.70572 0.0
N1433 N 0.78382 0.6657 0.74913 0.0
H1434 H 0.65918 0.36106 0.17193 0.0
H1435 H 0.77923 0.36981 0.27826 0.0
H1436 H 0.72383 0.30263 0.17365 0.0
H1437 H 0.70279 0.41 0.2895 0.0
H1438 H 0.76091 0.34682 0.23858 0.0
H1439 H 0.67635 0.38088 0.21341 0.0
C1440 C 0.6771 0.3524 0.18098 0.0
C1441 C 0.69024 0.33025 0.16904 0.0
C1442 C 0.74811 0.36058 0.24976 0.0
C1443 C 0.71009 0.3531 0.21688 0.0
C1444 C 0.75857 0.37383 0.27234 0.0
C1445 C 0.74252 0.39197 0.28711 0.0
C1446 C 0.72149 0.36576 0.24161 0.0
C1447 C 0.71586 0.39624 0.27865 0.0
C1448 C 0.68679 0.36369 0.20483 0.0
C1449 C 0.71311 0.31971 0.18207 0.0
N1450 N 0.70625 0.38339 0.25635 0.0
N1451 N 0.72248 0.33141 0.20517 0.0
H1452 H 0.28594 0.85145 0.22543 0.0
H1453 H 0.35101 0.87471 0.37156 0.0
H1454 H 0.30564 0.92962 0.25818 0.0
H1455 H 0.32666 0.79613 0.34291 0.0
H1456 H 0.33554 0.89452 0.32949 0.0
H1457 H 0.30214 0.83034 0.26718 0.0
C1458 C 0.2939 0.86415 0.24133 0.0
C1459 C 0.29448 0.89235 0.23833 0.0
C1460 C 0.33341 0.87296 0.33235 0.0
C1461 C 0.31287 0.86833 0.28623 0.0
C1462 C 0.34224 0.86154 0.3565 0.0
C1463 C 0.34003 0.83359 0.36103 0.0
C1464 C 0.32226 0.85646 0.31225 0.0
C1465 C 0.32852 0.81775 0.34052 0.0
C1466 C 0.30302 0.85209 0.2652 0.0
C1467 C 0.30482 0.90783 0.25962 0.0
N1468 N 0.32012 0.82939 0.317 0.0
N1469 N 0.31356 0.89563 0.28263 0.0
H1470 H 0.15666 0.1692 0.85621 0.0
H1471 H 0.27863 0.1569 0.75233 0.0
H1472 H 0.22299 0.22562 0.85598 0.0
H1473 H 0.20084 0.12044 0.73852 0.0
H1474 H 0.26025 0.18009 0.79193 0.0
H1475 H 0.17405 0.1491 0.81489 0.0
C1476 C 0.17498 0.17736 0.84752 0.0
C1477 C 0.18852 0.19904 0.85982 0.0
C1478 C 0.24718 0.16709 0.78021 0.0
C1479 C 0.20864 0.17585 0.81221 0.0
C1480 C 0.25767 0.15371 0.7577 0.0
C1481 C 0.24124 0.13657 0.74223 0.0
C1482 C 0.22014 0.16301 0.7876 0.0
C1483 C 0.2142 0.1334 0.74994 0.0
C1484 C 0.1848 0.16591 0.82377 0.0
C1485 C 0.21194 0.20892 0.84727 0.0
N1486 N 0.20455 0.14633 0.77221 0.0
N1487 N 0.22142 0.19707 0.82428 0.0
H1488 H 0.77249 0.80768 0.59943 0.0
H1489 H 0.68718 0.82724 0.736 0.0
H1490 H 0.80282 0.78542 0.67793 0.0
H1491 H 0.65981 0.85185 0.65702 0.0
H1492 H 0.72942 0.81123 0.71561 0.0
H1493 H 0.73105 0.82414 0.62066 0.0
C1494 C 0.77047 0.80642 0.62117 0.0
C1495 C 0.79111 0.79521 0.63694 0.0
C1496 C 0.71409 0.82007 0.70279 0.0
C1497 C 0.74357 0.81375 0.66147 0.0
C1498 C 0.68987 0.82902 0.71441 0.0
C1499 C 0.66971 0.84075 0.69827 0.0
C1500 C 0.71818 0.82285 0.67481 0.0
C1501 C 0.67464 0.84296 0.67039 0.0
C1502 C 0.74678 0.81575 0.63332 0.0
C1503 C 0.78741 0.79402 0.66504 0.0
N1504 N 0.69826 0.83413 0.65963 0.0
N1505 N 0.76407 0.80307 0.6764 0.0
H1506 H 0.76033 0.22557 0.09791 0.0
H1507 H 0.84545 0.20677 0.23472 0.0
H1508 H 0.72894 0.2464 0.17639 0.0
H1509 H 0.871 0.17764 0.15663 0.0
H1510 H 0.80355 0.22337 0.21402 0.0
H1511 H 0.80175 0.20928 0.11934 0.0
C1512 C 0.76212 0.22659 0.11967 0.0
C1513 C 0.74115 0.23729 0.13537 0.0
C1514 C 0.8184 0.21337 0.20147 0.0
C1515 C 0.78869 0.21894 0.16015 0.0
C1516 C 0.8424 0.204 0.21327 0.0
C1517 C 0.86192 0.19074 0.19749 0.0
C1518 C 0.81393 0.2096 0.17367 0.0
C1519 C 0.85666 0.18766 0.16975 0.0
C1520 C 0.7858 0.21733 0.13194 0.0
C1521 C 0.7446 0.23819 0.16352 0.0
N1522 N 0.8333 0.19697 0.15882 0.0
N1523 N 0.76793 0.22925 0.17501 0.0
H1524 H 0.18194 0.71162 0.29732 0.0
H1525 H 0.28033 0.71186 0.42636 0.0
H1526 H 0.16688 0.66619 0.3702 0.0
H1527 H 0.29465 0.75945 0.35488 0.0
H1528 H 0.23949 0.69357 0.40527 0.0
H1529 H 0.22389 0.72849 0.31733 0.0
C1530 C 0.18736 0.70521 0.3175 0.0
C1531 C 0.17061 0.68757 0.33208 0.0
C1532 C 0.25157 0.70801 0.39417 0.0
C1533 C 0.21885 0.70663 0.35507 0.0
C1534 C 0.2749 0.71841 0.40621 0.0
C1535 C 0.2909 0.73721 0.39237 0.0
C1536 C 0.24405 0.7166 0.36814 0.0
C1537 C 0.28295 0.74494 0.36626 0.0
C1538 C 0.21138 0.71481 0.32891 0.0
C1539 C 0.17892 0.67987 0.35815 0.0
N1540 N 0.26008 0.73471 0.35505 0.0
N1541 N 0.20235 0.68942 0.36873 0.0
H1542 H 0.25814 0.3056 0.93013 0.0
H1543 H 0.34464 0.32212 0.79386 0.0
H1544 H 0.22791 0.28245 0.85189 0.0
H1545 H 0.36941 0.35177 0.87197 0.0
H1546 H 0.30249 0.30584 0.81433 0.0
H1547 H 0.29962 0.32167 0.90874 0.0
C1548 C 0.2602 0.30405 0.90841 0.0
C1549 C 0.23956 0.29275 0.89277 0.0
C1550 C 0.31723 0.31589 0.82692 0.0
C1551 C 0.28716 0.31082 0.86805 0.0
C1552 C 0.34136 0.32508 0.81526 0.0
C1553 C 0.36072 0.33839 0.83112 0.0
C1554 C 0.3125 0.31994 0.85464 0.0
C1555 C 0.3552 0.34171 0.85879 0.0
C1556 C 0.28391 0.31316 0.89617 0.0
C1557 C 0.24332 0.29115 0.86469 0.0
N1558 N 0.33172 0.3326 0.86956 0.0
N1559 N 0.2667 0.29999 0.85323 0.0
H1560 H 0.60353 0.77963 0.81825 0.0
H1561 H 0.73315 0.68176 0.81798 0.0
H1562 H 0.67543 0.79533 0.77176 0.0
H1563 H 0.66067 0.66673 0.86406 0.0
H1564 H 0.71295 0.7238 0.80132 0.0
H1565 H 0.62482 0.7387 0.83622 0.0
C1566 C 0.62381 0.77449 0.81188 0.0
C1567 C 0.63771 0.79089 0.79348 0.0
C1568 C 0.70151 0.71127 0.8151 0.0
C1569 C 0.66219 0.74395 0.8137 0.0
C1570 C 0.71304 0.68722 0.82459 0.0
C1571 C 0.69862 0.67047 0.84236 0.0
C1572 C 0.6754 0.71873 0.8235 0.0
C1573 C 0.6726 0.67877 0.85027 0.0
C1574 C 0.63598 0.75111 0.82209 0.0
C1575 C 0.664 0.78331 0.78595 0.0
N1576 N 0.6619 0.7022 0.84082 0.0
N1577 N 0.67533 0.76037 0.79598 0.0
H1578 H 0.22829 0.85614 0.22301 0.0
H1579 H 0.11892 0.73884 0.20174 0.0
H1580 H 0.16767 0.85794 0.16047 0.0
H1581 H 0.15777 0.75332 0.27825 0.0
H1582 H 0.14164 0.77887 0.18332 0.0
H1583 H 0.20769 0.81455 0.24075 0.0
C1584 C 0.21076 0.8478 0.21299 0.0
C1585 C 0.19955 0.86075 0.19039 0.0
C1586 C 0.14518 0.77324 0.20415 0.0
C1587 C 0.17618 0.81311 0.21029 0.0
C1588 C 0.13225 0.75041 0.21463 0.0
C1589 C 0.13637 0.74283 0.24157 0.0
C1590 C 0.16266 0.78837 0.22062 0.0
C1591 C 0.15394 0.75851 0.25738 0.0
C1592 C 0.19897 0.82414 0.22314 0.0
C1593 C 0.17683 0.84893 0.17815 0.0
N1594 N 0.1665 0.78046 0.24667 0.0
N1595 N 0.166 0.82582 0.18818 0.0
H1596 H 0.29271 0.18664 0.7047 0.0
H1597 H 0.42962 0.27127 0.72409 0.0
H1598 H 0.3711 0.16118 0.67614 0.0
H1599 H 0.35123 0.30331 0.74439 0.0
H1600 H 0.408 0.23021 0.70743 0.0
H1601 H 0.31321 0.22883 0.72091 0.0
C1602 C 0.31416 0.18982 0.70188 0.0
C1603 C 0.33012 0.17021 0.68898 0.0
C1604 C 0.39544 0.24623 0.71542 0.0
C1605 C 0.35366 0.21842 0.70742 0.0
C1606 C 0.40782 0.2697 0.72489 0.0
C1607 C 0.39222 0.29072 0.73561 0.0
C1608 C 0.36719 0.24357 0.71682 0.0
C1609 C 0.36402 0.28758 0.73622 0.0
C1610 C 0.32583 0.21394 0.71106 0.0
C1611 C 0.35784 0.17556 0.6859 0.0
N1612 N 0.3524 0.2644 0.72708 0.0
N1613 N 0.36863 0.19901 0.69502 0.0
H1614 H 0.79499 0.34363 0.32422 0.0
H1615 H 0.93079 0.25679 0.30648 0.0
H1616 H 0.87257 0.36677 0.35645 0.0
H1617 H 0.85226 0.22683 0.28396 0.0
H1618 H 0.90955 0.29792 0.32369 0.0
H1619 H 0.81532 0.30153 0.30768 0.0
C1620 C 0.81625 0.33996 0.32777 0.0
C1621 C 0.83203 0.35892 0.34176 0.0
C1622 C 0.8969 0.28233 0.31509 0.0
C1623 C 0.8554 0.31074 0.32292 0.0
C1624 C 0.90905 0.25883 0.30529 0.0
C1625 C 0.89328 0.23837 0.29381 0.0
C1626 C 0.86874 0.28557 0.31322 0.0
C1627 C 0.86517 0.24211 0.29273 0.0
C1628 C 0.82782 0.31587 0.3184 0.0
C1629 C 0.85949 0.35291 0.3458 0.0
N1630 N 0.8538 0.2653 0.30219 0.0
N1631 N 0.87022 0.32948 0.33643 0.0
H1632 H 0.18318 0.34514 0.54636 0.0
H1633 H 0.23801 0.49709 0.5499 0.0
H1634 H 0.17176 0.4039 0.48316 0.0
H1635 H 0.21872 0.45276 0.62209 0.0
H1636 H 0.22873 0.45669 0.52305 0.0
H1637 H 0.20953 0.37867 0.57191 0.0
C1638 C 0.18678 0.36485 0.53759 0.0
C1639 C 0.17521 0.37184 0.51268 0.0
C1640 C 0.22742 0.45548 0.54484 0.0
C1641 C 0.20545 0.40998 0.54153 0.0
C1642 C 0.2332 0.47838 0.56019 0.0
C1643 C 0.22969 0.47804 0.58826 0.0
C1644 C 0.21784 0.43207 0.55764 0.0
C1645 C 0.2223 0.4536 0.60055 0.0
C1646 C 0.20166 0.38397 0.55222 0.0
C1647 C 0.18018 0.39775 0.50238 0.0
N1648 N 0.21624 0.43163 0.58513 0.0
N1649 N 0.19486 0.41585 0.51683 0.0
H1650 H 0.29182 0.53287 0.04895 0.0
H1651 H 0.34698 0.68474 0.04637 0.0
H1652 H 0.31002 0.57703 0.12145 0.0
H1653 H 0.35882 0.62622 0.98309 0.0
H1654 H 0.32025 0.65119 0.07159 0.0
H1655 H 0.30146 0.57334 0.02229 0.0
C1656 C 0.29645 0.55155 0.05934 0.0
C1657 C 0.29955 0.55182 0.08745 0.0
C1658 C 0.3283 0.64595 0.05195 0.0
C1659 C 0.31185 0.59788 0.05705 0.0
C1660 C 0.34341 0.66508 0.03752 0.0
C1661 C 0.3552 0.65815 1.01268 0.0
C1662 C 0.32451 0.62 0.04113 0.0
C1663 C 0.35024 0.6323 1.00226 0.0
C1664 C 0.30245 0.5745 0.0441 0.0
C1665 C 0.30674 0.57624 0.09986 0.0
N1666 N 0.33535 0.6142 0.01652 0.0
N1667 N 0.31303 0.59825 0.08456 0.0
H1668 H 0.68166 0.18397 0.48189 0.0
H1669 H 0.73703 0.0319 0.48073 0.0
H1670 H 0.67182 0.12669 0.54667 0.0
H1671 H 0.71776 0.0751 0.40786 0.0
H1672 H 0.72755 0.0727 0.50695 0.0
H1673 H 0.70773 0.1499 0.4566 0.0
C1674 C 0.68554 0.16449 0.49104 0.0
C1675 C 0.67448 0.15806 0.51635 0.0
C1676 C 0.72626 0.07358 0.48515 0.0
C1677 C 0.7044 0.11929 0.48779 0.0
C1678 C 0.73215 0.05043 0.47015 0.0
C1679 C 0.7288 0.05036 0.44207 0.0
C1680 C 0.71667 0.09682 0.472 0.0
C1681 C 0.72125 0.07459 0.42943 0.0
C1682 C 0.70026 0.14505 0.47656 0.0
C1683 C 0.67983 0.13241 0.52715 0.0
N1684 N 0.7151 0.0968 0.4445 0.0
N1685 N 0.69432 0.11401 0.51283 0.0
H1686 H 0.8544 0.9015 0.05035 0.0
H1687 H 0.81278 0.95359 0.90668 0.0
H1688 H 0.84743 0.84679 0.98313 0.0
H1689 H 0.79535 0.99718 0.97975 0.0
H1690 H 0.82086 0.91265 0.93357 0.0
H1691 H 0.82907 0.93534 0.02504 0.0
C1692 C 0.84707 0.89647 0.03037 0.0
C1693 C 0.853 0.87133 0.01881 0.0
C1694 C 0.8143 0.9309 0.94367 0.0
C1695 C 0.82449 0.91034 0.98926 0.0
C1696 C 0.80934 0.95415 0.92827 0.0
C1697 C 0.80279 0.97856 0.94103 0.0
C1698 C 0.81336 0.93239 0.97202 0.0
C1699 C 0.79977 0.97858 0.96915 0.0
C1700 C 0.83256 0.9158 0.01589 0.0
C1701 C 0.84308 0.86589 0.99283 0.0
N1702 N 0.80551 0.95603 0.98372 0.0
N1703 N 0.82976 0.88544 0.97868 0.0
H1704 H 0.54962 0.23451 0.49829 0.0
H1705 H 0.5484 0.18318 0.34504 0.0
H1706 H 0.62242 0.21768 0.45392 0.0
H1707 H 0.4833 0.17305 0.40189 0.0
H1708 H 0.57363 0.20872 0.37947 0.0
H1709 H 0.52322 0.22632 0.45739 0.0
C1710 C 0.56011 0.23036 0.47954 0.0
C1711 C 0.58822 0.22733 0.47926 0.0
C1712 C 0.55359 0.20135 0.38414 0.0
C1713 C 0.55814 0.2167 0.43265 0.0
C1714 C 0.53915 0.18696 0.36449 0.0
C1715 C 0.5138 0.17595 0.37072 0.0
C1716 C 0.5423 0.20512 0.40992 0.0
C1717 C 0.50285 0.18107 0.39633 0.0
C1718 C 0.54503 0.22525 0.45631 0.0
C1719 C 0.60081 0.22084 0.45472 0.0
N1720 N 0.51717 0.19518 0.41496 0.0
N1721 N 0.58565 0.21538 0.43241 0.0
H1722 H 0.89998 0.82596 0.95919 0.0
H1723 H 0.03971 0.83088 0.87809 0.0
H1724 H 0.97298 0.78849 0.98776 0.0
H1725 H 0.97142 0.88236 0.86244 0.0
H1726 H 1.01253 0.80578 0.91137 0.0
H1727 H 0.92244 0.83629 0.9164 0.0
C1728 C 0.92039 0.81878 0.95589 0.0
C1729 C 0.93451 0.80583 0.97669 0.0
C1730 C 1.00334 0.82223 0.90027 0.0
C1731 C 0.96083 0.81869 0.92834 0.0
C1732 C 0.01878 0.83641 0.88125 0.0
C1733 C 1.0076 0.85849 0.86755 0.0
C1734 C 0.9766 0.8303 0.90551 0.0
C1735 C 0.98061 0.86527 0.87254 0.0
C1736 C 0.93337 0.82506 0.93165 0.0
C1737 C 0.96127 0.79793 0.9719 0.0
N1738 N 0.96608 0.85134 0.89121 0.0
N1739 N 0.97371 0.80478 0.94833 0.0
H1740 H 0.13035 0.3289 0.5702 0.0
H1741 H 0.99695 0.3275 0.66169 0.0
H1742 H 0.05855 0.28671 0.54565 0.0
H1743 H 0.05442 0.39261 0.65798 0.0
H1744 H 0.02441 0.30226 0.62848 0.0
H1745 H 0.10835 0.34074 0.61282 0.0
C1746 C 0.11041 0.32096 0.57443 0.0
C1747 C 0.09642 0.30635 0.55469 0.0
C1748 C 0.03115 0.32187 0.63536 0.0
C1749 C 0.07066 0.32075 0.6029 0.0
C1750 C 0.01561 0.33617 0.6543 0.0
C1751 C 0.02351 0.36212 0.66239 0.0
C1752 C 0.05497 0.33346 0.62512 0.0
C1753 C 0.04765 0.37268 0.6521 0.0
C1754 C 0.09769 0.32811 0.59853 0.0
C1755 C 0.07019 0.29747 0.56067 0.0
N1756 N 0.0625 0.35833 0.63406 0.0
N1757 N 0.05796 0.3051 0.58416 0.0
H1758 H 0.53376 0.70299 0.16032 0.0
H1759 H 0.39951 0.70503 0.07038 0.0
H1760 H 0.47237 0.64146 0.16071 0.0
H1761 H 0.47337 0.74244 0.04408 0.0
H1762 H 0.42082 0.69413 0.1136 0.0
H1763 H 0.50702 0.72862 0.12688 0.0
C1764 C 0.51437 0.69526 0.15383 0.0
C1765 C 0.50514 0.67016 0.1631 0.0
C1766 C 0.43211 0.70555 0.09876 0.0
C1767 C 0.47457 0.69924 0.12551 0.0
C1768 C 0.41981 0.71216 0.07429 0.0
C1769 C 0.43458 0.72511 0.05395 0.0
C1770 C 0.45947 0.71176 0.10283 0.0
C1771 C 0.46119 0.73296 0.05956 0.0
C1772 C 0.49925 0.70976 0.13475 0.0
C1773 C 0.48012 0.66075 0.15393 0.0
N1774 N 0.47297 0.72586 0.0834 0.0
N1775 N 0.46573 0.67525 0.13566 0.0
H1776 H 0.45621 0.62957 0.21305 0.0
H1777 H 0.37697 0.48949 0.19876 0.0
H1778 H 0.48672 0.55377 0.24258 0.0
H1779 H 0.35977 0.5608 0.15211 0.0
H1780 H 0.40995 0.51542 0.22534 0.0
H1781 H 0.41327 0.60759 0.20213 0.0
C1782 C 0.4533 0.6086 0.21857 0.0
C1783 C 0.47474 0.59357 0.22931 0.0
C1784 C 0.39856 0.52554 0.20967 0.0
C1785 C 0.4262 0.56794 0.21576 0.0
C1786 C 0.37969 0.5108 0.19465 0.0
C1787 C 0.36561 0.5232 0.17349 0.0
C1788 C 0.40333 0.55283 0.20338 0.0
C1789 C 0.37012 0.55067 0.1685 0.0
C1790 C 0.42899 0.59592 0.21187 0.0
C1791 C 0.47041 0.56616 0.23493 0.0
N1792 N 0.38869 0.56454 0.18321 0.0
N1793 N 0.44676 0.55413 0.22779 0.0
H1794 H 0.84536 0.98151 0.84764 0.0
H1795 H 0.99675 0.97977 0.79088 0.0
H1796 H 0.90269 0.04637 0.85604 0.0
H1797 H 0.95385 0.90719 0.81177 0.0
H1798 H 0.95589 1.00609 0.79989 0.0
H1799 H 0.87902 0.95604 0.82123 0.0
C1800 C 0.86476 0.99064 0.84336 0.0
C1801 C 0.87135 0.016 0.85414 0.0
C1802 C 0.95509 0.9843 0.80161 0.0
C1803 C 0.90963 0.98725 0.82385 0.0
C1804 C 0.97826 0.96925 0.79599 0.0
C1805 C 0.97844 0.94124 0.80001 0.0
C1806 C 0.93195 0.97129 0.81158 0.0
C1807 C 0.95428 0.92868 0.8078 0.0
C1808 C 0.88396 0.97607 0.82845 0.0
C1809 C 0.89687 0.02679 0.84827 0.0
N1810 N 0.93205 0.94383 0.81371 0.0
N1811 N 0.91505 1.01237 0.83362 0.0
H1812 H 0.57315 0.12926 0.32228 0.0
H1813 H 0.65288 0.98878 0.33062 0.0
H1814 H 0.54331 0.05537 0.28785 0.0
H1815 H 0.668 0.05734 0.38176 0.0
H1816 H 0.62003 0.01591 0.3049 0.0
H1817 H 0.61571 0.10653 0.33315 0.0
C1818 C 0.57615 0.10859 0.31577 0.0
C1819 C 0.55502 0.09431 0.30359 0.0
C1820 C 0.63091 0.02515 0.32143 0.0
C1821 C 0.60309 0.06774 0.31707 0.0
C1822 C 0.64968 1.00974 0.33597 0.0
C1823 C 0.66313 0.02103 0.35811 0.0
C1824 C 0.62568 0.05198 0.32917 0.0
C1825 C 0.65811 0.04808 0.36462 0.0
C1826 C 0.60023 0.09546 0.32241 0.0
C1827 C 0.55941 0.06721 0.29665 0.0
N1828 N 0.63969 0.0626 0.35033 0.0
N1829 N 0.58285 0.05468 0.30378 0.0
H1830 H 0.1526 0.54078 0.69955 0.0
H1831 H 0.0712 0.40174 0.71277 0.0
H1832 H 0.16738 0.47027 0.65097 0.0
H1833 H 0.04134 0.47774 0.74242 0.0
H1834 H 0.11429 0.42339 0.70173 0.0
H1835 H 0.11928 0.51501 0.72598 0.0
C1836 C 0.14927 0.51967 0.69496 0.0
C1837 C 0.16274 0.50746 0.6733 0.0
C1838 C 0.09868 0.43517 0.71153 0.0
C1839 C 0.12472 0.47802 0.70307 0.0
C1840 C 0.07428 0.42268 0.7183 0.0
C1841 C 0.05299 0.43786 0.72912 0.0
C1842 C 0.10172 0.4631 0.71546 0.0
C1843 C 0.05754 0.46523 0.73472 0.0
C1844 C 0.13021 0.50503 0.7099 0.0
C1845 C 0.15748 0.48024 0.66772 0.0
N1846 N 0.08129 0.47708 0.72754 0.0
N1847 N 0.13879 0.46646 0.68241 0.0
H1848 H 0.81934 0.57166 0.39925 0.0
H1849 H 0.82424 0.66013 0.53439 0.0
H1850 H 0.78584 0.54281 0.47405 0.0
H1851 H 0.8867 0.65809 0.47387 0.0
H1852 H 0.79821 0.62701 0.50767 0.0
H1853 H 0.83075 0.6144 0.42133 0.0
C1854 C 0.81303 0.57493 0.41994 0.0
C1855 C 0.80116 0.55396 0.43474 0.0
C1856 C 0.81738 0.63428 0.5001 0.0
C1857 C 0.81494 0.60233 0.46038 0.0
C1858 C 0.83213 0.65315 0.51523 0.0
C1859 C 0.8576 0.66166 0.50625 0.0
C1860 C 0.82796 0.62461 0.4756 0.0
C1861 C 0.86716 0.6519 0.48147 0.0
C1862 C 0.81997 0.59911 0.43266 0.0
C1863 C 0.79443 0.55877 0.46184 0.0
N1864 N 0.85235 0.63395 0.46701 0.0
N1865 N 0.80171 0.58238 0.47394 0.0
H1866 H 0.74183 0.49439 0.9766 0.0
H1867 H 0.68205 0.34423 0.9797 0.0
H1868 H 0.71719 0.45271 0.90454 0.0
H1869 H 0.67605 0.40173 0.04468 0.0
H1870 H 0.7082 0.37751 0.95347 0.0
H1871 H 0.73264 0.4536 1.00293 0.0
C1872 C 0.73586 0.47614 0.96613 0.0
C1873 C 0.73086 0.4767 0.93829 0.0
C1874 C 0.70158 0.38255 0.97368 0.0
C1875 C 0.71908 0.43028 0.96844 0.0
C1876 C 0.68683 0.36356 0.98869 0.0
C1877 C 0.67681 0.37031 1.01435 0.0
C1878 C 0.70682 0.40816 0.98471 0.0
C1879 C 0.68326 0.39577 0.02492 0.0
C1880 C 0.73013 0.45302 0.98123 0.0
C1881 C 0.72198 0.45284 0.92587 0.0
N1882 N 0.69777 0.41373 1.01009 0.0
N1883 N 0.716 0.43066 0.94107 0.0
H1884 H 0.29413 0.99851 0.54869 0.0
H1885 H 0.34743 0.84579 0.54767 0.0
H1886 H 0.31137 0.9543 0.62148 0.0
H1887 H 0.35713 0.90263 0.48247 0.0
H1888 H 0.32143 0.88001 0.57278 0.0
H1889 H 0.30299 0.9577 0.52227 0.0
C1890 C 0.29848 0.97979 0.55917 0.0
C1891 C 0.30142 0.97953 0.58729 0.0
C1892 C 0.32884 0.88473 0.55276 0.0
C1893 C 0.31284 0.93307 0.55719 0.0
C1894 C 0.34351 0.8652 0.53838 0.0
C1895 C 0.35455 0.87148 0.51304 0.0
C1896 C 0.32478 0.91045 0.54141 0.0
C1897 C 0.34915 0.89704 0.50205 0.0
C1898 C 0.30399 0.95663 0.54408 0.0
C1899 C 0.30824 0.95507 0.59986 0.0
N1900 N 0.33477 0.91555 0.5163 0.0
N1901 N 0.31406 0.93284 0.5847 0.0
H1902 H 0.22125 0.07607 0.12202 0.0
H1903 H 0.17201 0.12687 0.98059 0.0
H1904 H 0.23461 0.03182 0.04849 0.0
H1905 H 0.18405 0.18266 0.04619 0.0
H1906 H 0.19841 0.09311 1.00487 0.0
H1907 H 0.21231 0.11692 0.09523 0.0
C1908 C 0.22367 0.07535 0.1003 0.0
C1909 C 0.22919 0.05076 0.0874 0.0
C1910 C 0.19577 0.11286 1.01386 0.0
C1911 C 0.21764 0.09681 0.05663 0.0
C1912 C 0.18062 0.13212 0.99999 0.0
C1913 C 0.17583 0.15755 1.01142 0.0
C1914 C 0.20566 0.11869 0.0398 0.0
C1915 C 0.18745 0.16331 0.03663 0.0
C1916 C 0.2182 0.09854 0.08498 0.0
C1917 C 0.23093 0.05054 0.05917 0.0
N1918 N 0.20139 0.14383 0.05025 0.0
N1919 N 0.22471 0.07303 0.04474 0.0
H1920 H 0.54893 0.8577 0.62691 0.0
H1921 H 0.40654 0.81184 0.57657 0.0
H1922 H 0.48334 0.84691 0.68307 0.0
H1923 H 0.47964 0.79487 0.53278 0.0
H1924 H 0.4335 0.82056 0.61727 0.0
H1925 H 0.52402 0.83169 0.59334 0.0
C1926 C 0.52941 0.84943 0.63229 0.0
C1927 C 0.51817 0.85446 0.65778 0.0
C1928 C 0.44359 0.81393 0.59905 0.0
C1929 C 0.4891 0.82512 0.61913 0.0
C1930 C 0.42816 0.80859 0.57594 0.0
C1931 C 0.4409 0.80202 0.55152 0.0
C1932 C 0.47194 0.8134 0.59738 0.0
C1933 C 0.46906 0.79928 0.5514 0.0
C1934 C 0.51518 0.83451 0.61313 0.0
C1935 C 0.49278 0.84331 0.66369 0.0
N1936 N 0.48365 0.80546 0.57378 0.0
N1937 N 0.47883 0.82961 0.64431 0.0
H1938 H 0.99424 0.20139 0.15758 0.0
H1939 H 0.13135 0.20379 0.07186 0.0
H1940 H 0.05809 0.14266 0.16366 0.0
H1941 H 0.05854 0.24295 0.04511 0.0
H1942 H 0.10929 0.19288 0.11472 0.0
H1943 H 0.02168 0.22699 0.12476 0.0
C1944 C 1.01428 0.1943 0.15244 0.0
C1945 C 0.02408 0.17002 0.16319 0.0
C1946 C 0.09837 0.20464 0.09986 0.0
C1947 C 0.0554 0.19897 0.12612 0.0
C1948 C 0.11112 0.21126 0.07561 0.0
C1949 C 0.09688 0.22475 0.05525 0.0
C1950 C 0.07105 0.2113 0.10365 0.0
C1951 C 0.07034 0.23305 0.06062 0.0
C1952 C 0.02984 0.20878 0.13371 0.0
C1953 C 0.04994 0.16136 0.15574 0.0
N1954 N 0.0581 0.22588 0.08421 0.0
N1955 N 0.06467 0.17576 0.13764 0.0
H1956 H 0.03244 0.70448 0.36829 0.0
H1957 H 0.89737 0.708 0.4571 0.0
H1958 H 0.97409 0.64017 0.37262 0.0
H1959 H 0.97094 0.74522 0.48427 0.0
H1960 H 0.91976 0.69573 0.41473 0.0
H1961 H 1.00492 0.73071 0.40065 0.0
C1962 C 1.01359 0.69618 0.37564 0.0
C1963 C 1.00547 0.67017 0.36801 0.0
C1964 C 0.93072 0.70749 0.42953 0.0
C1965 C 0.97388 0.70002 0.40417 0.0
C1966 C 0.9178 0.71491 0.45348 0.0
C1967 C 0.9322 0.72809 0.47392 0.0
C1968 C 0.95823 0.71334 0.426 0.0
C1969 C 0.95902 0.7356 0.4687 0.0
C1970 C 0.998 0.71106 0.39407 0.0
C1971 C 0.98106 0.66013 0.37819 0.0
N1972 N 0.97134 0.72783 0.44535 0.0
N1973 N 0.96612 0.67506 0.39569 0.0
H1974 H 0.54708 0.3469 0.84454 0.0
H1975 H 0.55084 0.2947 0.99754 0.0
H1976 H 0.48267 0.35666 0.90227 0.0
H1977 H 0.62282 0.31287 0.95238 0.0
H1978 H 0.52379 0.30303 0.95705 0.0
H1979 H 0.57293 0.32146 0.87861 0.0
C1980 C 0.53811 0.34308 0.86412 0.0
C1981 C 0.51276 0.35396 0.87069 0.0
C1982 C 0.54557 0.30435 0.9557 0.0
C1983 C 0.542 0.32486 0.90948 0.0
C1984 C 0.56102 0.29916 0.97868 0.0
C1985 C 0.58909 0.30253 0.97807 0.0
C1986 C 0.55825 0.31328 0.93195 0.0
C1987 C 0.60126 0.30944 0.95343 0.0
C1988 C 0.55291 0.32874 0.88356 0.0
C1989 C 0.50221 0.34876 0.89645 0.0
N1990 N 0.58573 0.31493 0.93138 0.0
N1991 N 0.51688 0.33468 0.91488 0.0
H1992 H 0.57079 0.39894 0.82413 0.0
H1993 H 0.65791 0.535 0.82662 0.0
H1994 H 0.54354 0.47248 0.78667 0.0
H1995 H 0.66174 0.47188 0.88633 0.0
H1996 H 0.62475 0.50799 0.80106 0.0
H1997 H 0.6138 0.42074 0.83479 0.0
C1998 C 0.57445 0.41929 0.81696 0.0
C1999 C 0.55392 0.43382 0.80405 0.0
C2000 C 0.6333 0.4999 0.81949 0.0
C2001 C 0.6025 0.45928 0.81718 0.0
C2002 C 0.65221 0.5152 0.83395 0.0
C2003 C 0.66236 0.50553 0.85853 0.0
C2004 C 0.62506 0.47466 0.82955 0.0
C2005 C 0.65423 0.47997 0.86746 0.0
C2006 C 0.59879 0.43187 0.82343 0.0
C2007 C 0.55918 0.46049 0.79612 0.0
N2008 N 0.63604 0.46545 0.85302 0.0
N2009 N 0.58288 0.47255 0.80313 0.0
H2010 H 0.07619 0.12371 0.21777 0.0
H2011 H 0.13039 0.98116 0.17635 0.0
H2012 H 0.03558 0.04989 0.23881 0.0
H2013 H 0.18407 0.04936 0.18134 0.0
H2014 H 0.09693 1.00595 0.20268 0.0
H2015 H 0.1176 0.09784 0.20887 0.0
C2016 C 0.07646 0.10223 0.2219 0.0
C2017 C 0.05269 0.08895 0.22968 0.0
C2018 C 0.11618 0.01543 0.19854 0.0
C2019 C 0.09937 0.05905 0.2181 0.0
C2020 C 0.13529 1.00125 0.18346 0.0
C2021 C 0.16002 1.01323 0.17669 0.0
C2022 C 0.12141 0.04219 0.20635 0.0
C2023 C 0.1653 0.03935 0.18633 0.0
C2024 C 0.09996 0.0874 0.21644 0.0
C2025 C 0.05368 0.06093 0.23348 0.0
N2026 N 0.14592 0.0532 0.20022 0.0
N2027 N 0.07643 0.04688 0.2272 0.0
H2028 H 0.48943 0.97226 0.74374 0.0
H2029 H 0.34605 0.97502 0.66878 0.0
H2030 H 0.45543 0.90337 0.70332 0.0
H2031 H 0.39476 0.04533 0.68413 0.0
H2032 H 0.37932 0.94726 0.69314 0.0
H2033 H 0.4477 0.99752 0.73488 0.0
C2034 C 0.47263 0.96207 0.73417 0.0
C2035 C 0.47555 0.93556 0.72477 0.0
C2036 C 0.38237 0.96886 0.69174 0.0
C2037 C 0.42827 0.96455 0.71355 0.0
C2038 C 0.36333 0.98469 0.67804 0.0
C2039 C 0.3677 1.01246 0.67464 0.0
C2040 C 0.40567 0.98101 0.70246 0.0
C2041 C 0.39071 0.02397 0.68638 0.0
C2042 C 0.44901 0.9766 0.72869 0.0
C2043 C 0.45364 0.92359 0.71143 0.0
N2044 N 0.40885 1.00821 0.69972 0.0
N2045 N 0.43101 0.93824 0.70596 0.0
H2046 H 0.98635 0.55664 0.28408 0.0
H2047 H 0.87034 0.55651 0.38877 0.0
H2048 H 0.95752 0.63012 0.32035 0.0
H2049 H 0.87007 0.49729 0.32515 0.0
H2050 H 0.90198 0.58393 0.36266 0.0
H2051 H 0.94339 0.53469 0.29552 0.0
C2052 C 0.97037 0.56855 0.29312 0.0
C2053 C 0.97517 0.59539 0.30074 0.0
C2054 C 0.89467 0.56521 0.35408 0.0
C2055 C 0.92682 0.57007 0.31538 0.0
C2056 C 0.87671 0.54954 0.36903 0.0
C2057 C 0.86762 0.52474 0.35899 0.0
C2058 C 0.90436 0.55566 0.3292 0.0
C2059 C 0.87656 0.51644 0.33343 0.0
C2060 C 0.94602 0.55592 0.3 0.0
C2061 C 0.95432 0.60959 0.31357 0.0
N2062 N 0.89492 0.53163 0.31957 0.0
N2063 N 0.93132 0.59661 0.32105 0.0
H2064 H 0.29065 0.14191 0.57207 0.0
H2065 H 0.17201 0.24622 0.54064 0.0
H2066 H 0.2213 0.15258 0.6237 0.0
H2067 H 0.22516 0.21724 0.47791 0.0
H2068 H 0.1924 0.21456 0.5721 0.0
H2069 H 0.26944 0.17132 0.53835 0.0
C2070 C 0.27093 0.15035 0.57634 0.0
C2071 C 0.2578 0.14469 0.60092 0.0
C2072 C 0.19962 0.215 0.55147 0.0
C2073 C 0.23352 0.17875 0.5623 0.0
C2074 C 0.18807 0.23326 0.53338 0.0
C2075 C 0.19686 0.23465 0.50638 0.0
C2076 C 0.22053 0.19794 0.5429 0.0
C2077 C 0.21766 0.21698 0.49844 0.0
C2078 C 0.25882 0.1671 0.55698 0.0
C2079 C 0.23221 0.1562 0.60511 0.0
N2080 N 0.22891 0.19952 0.51665 0.0
N2081 N 0.22108 0.1728 0.58617 0.0
H2082 H 0.23829 0.88716 0.07145 0.0
H2083 H 0.3576 0.78342 0.04048 0.0
H2084 H 0.3081 0.87745 0.12258 0.0
H2085 H 0.3044 0.81174 0.97752 0.0
H2086 H 0.33681 0.81499 0.07174 0.0
H2087 H 0.25947 0.85749 0.03788 0.0
C2088 C 0.2581 0.87888 0.07564 0.0
C2089 C 0.27138 0.8849 0.10002 0.0
C2090 C 0.32966 0.81441 0.0511 0.0
C2091 C 0.29559 0.85056 0.06164 0.0
C2092 C 0.34144 0.7962 0.03313 0.0
C2093 C 0.33278 0.79468 1.00611 0.0
C2094 C 0.30866 0.83129 0.0424 0.0
C2095 C 0.31182 0.81211 0.99806 0.0
C2096 C 0.27018 0.86199 0.05638 0.0
C2097 C 0.29707 0.87357 0.10414 0.0
N2098 N 0.30036 0.82955 0.01615 0.0
N2099 N 0.30816 0.85684 0.08532 0.0
H2100 H 0.67164 0.28355 0.48819 0.0
H2101 H 0.79015 0.38833 0.45783 0.0
H2102 H 0.72492 0.31208 0.5509 0.0
H2103 H 0.72195 0.37662 0.40502 0.0
H2104 H 0.76877 0.35878 0.49125 0.0
H2105 H 0.69217 0.31518 0.45677 0.0
C2106 C 0.68775 0.2964 0.49546 0.0
C2107 C 0.69653 0.29492 0.52245 0.0
C2108 C 0.75842 0.3628 0.47243 0.0
C2109 C 0.72034 0.33158 0.486 0.0
C2110 C 0.77063 0.37965 0.45324 0.0
C2111 C 0.75789 0.38505 0.42841 0.0
C2112 C 0.7334 0.35082 0.46671 0.0
C2113 C 0.73254 0.37321 0.42381 0.0
C2114 C 0.69939 0.31464 0.47739 0.0
C2115 C 0.71742 0.31242 0.53039 0.0
N2116 N 0.7213 0.35653 0.44262 0.0
N2117 N 0.72871 0.32988 0.51223 0.0
H2118 H 0.8087 0.65253 0.90417 0.0
H2119 H 0.80487 0.71661 0.05293 0.0
H2120 H 0.74142 0.64102 0.95833 0.0
H2121 H 0.85641 0.74549 0.98882 0.0
H2122 H 0.78422 0.68481 0.02091 0.0
H2123 H 0.82964 0.68233 0.93751 0.0
C2124 C 0.79841 0.65604 0.92314 0.0
C2125 C 0.77318 0.64421 0.92832 0.0
C2126 C 0.80004 0.69817 1.01394 0.0
C2127 C 0.79717 0.67842 0.96677 0.0
C2128 C 0.81188 0.71631 0.03222 0.0
C2129 C 0.8324 0.73396 0.02366 0.0
C2130 C 0.80906 0.69733 0.987 0.0
C2131 C 0.84058 0.73252 0.99647 0.0
C2132 C 0.81033 0.67321 0.94214 0.0
C2133 C 0.76081 0.64975 0.95333 0.0
N2134 N 0.82902 0.71455 0.97927 0.0
N2135 N 0.77292 0.66637 0.9716 0.0
H2136 H 0.54172 0.17212 0.24482 0.0
H2137 H 0.57276 0.29054 0.1403 0.0
H2138 H 0.47888 0.22522 0.21594 0.0
H2139 H 0.62454 0.22128 0.15105 0.0
H2140 H 0.53909 0.26933 0.16973 0.0
H2141 H 0.57307 0.19245 0.21304 0.0
C2142 C 0.53441 0.18815 0.23186 0.0
C2143 C 0.50742 0.19695 0.2333 0.0
C2144 C 0.55774 0.25872 0.16551 0.0
C2145 C 0.5438 0.22053 0.19646 0.0
C2146 C 0.57706 0.27083 0.14875 0.0
C2147 C 0.60167 0.25773 0.14312 0.0
C2148 C 0.56312 0.23347 0.1772 0.0
C2149 C 0.60592 0.23215 0.15464 0.0
C2150 C 0.55244 0.19966 0.21353 0.0
C2151 C 0.4994 0.21771 0.21563 0.0
N2152 N 0.587 0.22103 0.17126 0.0
N2153 N 0.51755 0.22892 0.19809 0.0
H2154 H 0.95952 0.74174 0.63943 0.0
H2155 H 0.99001 0.85927 0.7449 0.0
H2156 H 0.90714 0.81032 0.65161 0.0
H2157 H 0.05293 0.80624 0.71602 0.0
H2158 H 0.95881 0.83919 0.71296 0.0
H2159 H 0.9932 0.76285 0.66884 0.0
C2160 C 0.9551 0.7613 0.64816 0.0
C2161 C 0.93031 0.77422 0.64298 0.0
C2162 C 0.97943 0.83193 0.71347 0.0
C2163 C 0.96886 0.79835 0.67701 0.0
C2164 C 0.99738 0.84331 0.73189 0.0
C2165 C 0.02434 0.83445 0.73339 0.0
C2166 C 0.98813 0.81116 0.69633 0.0
C2167 C 0.03242 0.81378 0.71566 0.0
C2168 C 0.97442 0.77334 0.66492 0.0
C2169 C 0.9259 0.79959 0.65486 0.0
N2170 N 1.01435 0.80272 0.698 0.0
N2171 N 0.94483 0.81065 0.67144 0.0
H2172 H 0.04071 0.3579 0.78382 0.0
H2173 H 0.07092 0.24092 0.89009 0.0
H2174 H 0.97737 0.30651 0.81457 0.0
H2175 H 0.12383 0.30889 0.87733 0.0
H2176 H 0.0373 0.26223 0.86073 0.0
H2177 H 0.07212 0.33756 0.8155 0.0
C2178 C 0.0333 0.34224 0.79718 0.0
C2179 C 1.00614 0.33393 0.79631 0.0
C2180 C 0.05618 0.27255 0.8645 0.0
C2181 C 0.04258 0.31037 0.83303 0.0
C2182 C 0.07548 0.26039 0.88122 0.0
C2183 C 0.10039 0.27309 0.88624 0.0
C2184 C 0.0619 0.29746 0.85226 0.0
C2185 C 0.10496 0.29835 0.87421 0.0
C2186 C 0.05137 0.33073 0.81545 0.0
C2187 C 0.99802 0.31364 0.81444 0.0
N2188 N 0.08606 0.30954 0.85764 0.0
N2189 N 0.01619 0.30243 0.83193 0.0
H2190 H 0.48895 0.67263 0.28515 0.0
H2191 H 0.45791 0.79235 0.38799 0.0
H2192 H 0.55212 0.72544 0.31357 0.0
H2193 H 0.4065 0.72276 0.37838 0.0
H2194 H 0.49167 0.77082 0.35881 0.0
H2195 H 0.45768 0.69357 0.31655 0.0
C2196 C 0.49635 0.68873 0.29794 0.0
C2197 C 0.52342 0.69726 0.29648 0.0
C2198 C 0.47307 0.76023 0.36323 0.0
C2199 C 0.48711 0.72156 0.33291 0.0
C2200 C 0.4537 0.77252 0.37983 0.0
C2201 C 0.42918 0.7594 0.3857 0.0
C2202 C 0.46779 0.73478 0.35196 0.0
C2203 C 0.42505 0.73366 0.37458 0.0
C2204 C 0.47837 0.7006 0.31606 0.0
C2205 C 0.53154 0.71813 0.31392 0.0
N2206 N 0.44398 0.72237 0.35812 0.0
N2207 N 0.51342 0.7297 0.33127 0.0
H2208 H 0.15138 0.62527 0.22099 0.0
H2209 H 0.21685 0.47674 0.22489 0.0
H2210 H 0.14179 0.57179 0.28911 0.0
H2211 H 0.2422 0.54012 0.17065 0.0
H2212 H 0.18524 0.50875 0.24615 0.0
H2213 H 0.18045 0.59161 0.19945 0.0
C2214 C 0.15517 0.60639 0.23136 0.0
C2215 C 0.14409 0.60151 0.25699 0.0
C2216 C 0.19778 0.51554 0.22957 0.0
C2217 C 0.17749 0.56264 0.2323 0.0
C2218 C 0.21579 0.49725 0.21739 0.0
C2219 C 0.23244 0.50563 0.19597 0.0
C2220 C 0.1961 0.54228 0.22002 0.0
C2221 C 0.23005 0.53259 0.18719 0.0
C2222 C 0.17191 0.58718 0.21908 0.0
C2223 C 0.14996 0.57658 0.26942 0.0
N2224 N 0.21229 0.54976 0.19913 0.0
N2225 N 0.16618 0.55812 0.25697 0.0
H2226 H 0.65201 0.905 0.8089 0.0
H2227 H 0.71884 0.05258 0.80434 0.0
H2228 H 0.6431 0.95809 0.74039 0.0
H2229 H 0.7453 0.98871 0.85746 0.0
H2230 H 0.68698 0.0208 0.78334 0.0
H2231 H 0.6819 0.93817 0.82995 0.0
C2232 C 0.65612 0.92371 0.79835 0.0
C2233 C 0.64497 0.92862 0.77275 0.0
C2234 C 0.69983 1.01383 0.79959 0.0
C2235 C 0.67932 0.96692 0.7969 0.0
C2236 C 0.718 0.03198 0.81163 0.0
C2237 C 0.73499 0.02343 0.8327 0.0
C2238 C 0.6983 0.98703 0.80894 0.0
C2239 C 0.73286 0.99637 0.84121 0.0
C2240 C 0.67334 0.94262 0.81034 0.0
C2241 C 0.65129 0.95329 0.76007 0.0
N2242 N 0.71489 0.97932 0.82944 0.0
N2243 N 0.66794 0.9715 0.77226 0.0
H2244 H 0.78613 0.04011 0.35954 0.0
H2245 H 0.88688 0.0717 0.2378 0.0
H2246 H 0.81249 0.97767 0.30472 0.0
H2247 H 0.87854 0.12262 0.30795 0.0
H2248 H 0.85755 0.03812 0.25939 0.0
H2249 H 0.81713 0.0715 0.33815 0.0
C2250 C 0.79839 0.03289 0.34293 0.0
C2251 C 0.7965 1.00598 0.33399 0.0
C2252 C 0.86226 0.05658 0.27008 0.0
C2253 C 0.83244 0.04242 0.30916 0.0
C2254 C 0.87895 0.07585 0.25775 0.0
C2255 C 0.88527 0.10016 0.27103 0.0
C2256 C 0.85136 0.06175 0.29574 0.0
C2257 C 0.87441 0.10422 0.29692 0.0
C2258 C 0.81627 0.05094 0.33078 0.0
C2259 C 0.81321 0.99811 0.3124 0.0
N2260 N 0.85789 0.08538 0.30826 0.0
N2261 N 0.83035 0.01628 0.30061 0.0
H2262 H 0.28593 0.48953 0.67046 0.0
H2263 H 0.38725 0.45731 0.79119 0.0
H2264 H 0.31266 0.5518 0.72519 0.0
H2265 H 0.37887 0.40678 0.72079 0.0
H2266 H 0.35812 0.49117 0.76977 0.0
H2267 H 0.31737 0.45815 0.69121 0.0
C2268 C 0.29836 0.49671 0.68693 0.0
C2269 C 0.29641 0.52355 0.69607 0.0
C2270 C 0.3628 0.47275 0.75897 0.0
C2271 C 0.33287 0.48713 0.72015 0.0
C2272 C 0.37937 0.45332 0.7712 0.0
C2273 C 0.38557 0.42901 0.75782 0.0
C2274 C 0.35189 0.46774 0.73332 0.0
C2275 C 0.3748 0.42515 0.73189 0.0
C2276 C 0.3165 0.47867 0.6987 0.0
C2277 C 0.3134 0.5314 0.71741 0.0
N2278 N 0.35836 0.44414 0.72065 0.0
N2279 N 0.33077 0.51323 0.72885 0.0
H2280 H 0.8387 0.83209 0.54818 0.0
H2281 H 0.74109 0.85194 0.42291 0.0
H2282 H 0.81785 0.76575 0.49589 0.0
H2283 H 0.80232 0.91138 0.43961 0.0
H2284 H 0.76173 0.82187 0.45641 0.0
H2285 H 0.81801 0.8635 0.51548 0.0
C2286 C 0.82953 0.82411 0.53003 0.0
C2287 C 0.83004 0.79623 0.52477 0.0
C2288 C 0.7706 0.84152 0.45279 0.0
C2289 C 0.80613 0.83193 0.48762 0.0
C2290 C 0.75882 0.85872 0.43376 0.0
C2291 C 0.77006 0.88418 0.42841 0.0
C2292 C 0.79335 0.85007 0.4673 0.0
C2293 C 0.79314 0.89185 0.44299 0.0
C2294 C 0.81796 0.84203 0.51132 0.0
C2295 C 0.81802 0.78706 0.50077 0.0
N2296 N 0.80388 0.87498 0.46202 0.0
N2297 N 0.80638 0.80477 0.48326 0.0
H2298 H 0.6718 0.24481 0.98784 0.0
H2299 H 0.79231 0.14253 0.95699 0.0
H2300 H 0.726 0.21766 0.05047 0.0
H2301 H 0.7224 0.15114 0.9058 0.0
H2302 H 0.77081 0.17207 0.9904 0.0
H2303 H 0.69271 0.21328 0.95659 0.0
C2304 C 0.68819 0.23228 0.99512 0.0
C2305 C 0.69712 0.2341 0.02202 0.0
C2306 C 0.76013 0.16736 0.97193 0.0
C2307 C 0.72136 0.19759 0.98581 0.0
C2308 C 0.77241 0.15054 0.95276 0.0
C2309 C 0.75919 0.14427 0.92842 0.0
C2310 C 0.73459 0.17843 0.96662 0.0
C2311 C 0.73337 0.15524 0.92423 0.0
C2312 C 0.70004 0.2141 0.97716 0.0
C2313 C 0.71836 0.21702 0.03001 0.0
N2314 N 0.72207 0.17191 0.94298 0.0
N2315 N 0.72988 0.19962 1.01195 0.0
H2316 H 0.30815 0.6518 0.62427 0.0
H2317 H 0.30399 0.71903 0.47681 0.0
H2318 H 0.23975 0.64286 0.57115 0.0
H2319 H 0.35693 0.74517 0.54084 0.0
H2320 H 0.28282 0.68711 0.50847 0.0
H2321 H 0.32921 0.68176 0.59115 0.0
C2322 C 0.29761 0.65592 0.60557 0.0
C2323 C 0.27205 0.64473 0.60064 0.0
C2324 C 0.29906 0.6999 0.51549 0.0
C2325 C 0.29622 0.6792 0.56237 0.0
C2326 C 0.31121 0.71811 0.49741 0.0
C2327 C 0.33229 0.73504 0.50604 0.0
C2328 C 0.30832 0.69826 0.54231 0.0
C2329 C 0.34069 0.73279 0.53311 0.0
C2330 C 0.30962 0.67319 0.58668 0.0
C2331 C 0.25941 0.65108 0.57596 0.0
N2332 N 0.32882 0.71478 0.5501 0.0
N2333 N 0.27162 0.66779 0.55777 0.0
H2334 H 0.2937 0.38674 0.07137 0.0
H2335 H 0.17416 0.28324 0.04118 0.0
H2336 H 0.22377 0.37757 0.1225 0.0
H2337 H 0.22641 0.31189 0.97755 0.0
H2338 H 0.19539 0.31461 0.0723 0.0
H2339 H 0.27248 0.35693 0.03793 0.0
C2340 C 0.27389 0.37854 0.07559 0.0
C2341 C 0.26055 0.38477 0.09992 0.0
C2342 C 0.20224 0.31414 0.05154 0.0
C2343 C 0.2363 0.3503 0.06173 0.0
C2344 C 0.1902 0.29605 0.03365 0.0
C2345 C 0.19845 0.29471 1.00649 0.0
C2346 C 0.2231 0.33106 0.0426 0.0
C2347 C 0.2193 0.31216 0.99821 0.0
C2348 C 0.26177 0.36158 0.05642 0.0
C2349 C 0.23484 0.37353 0.10409 0.0
N2350 N 0.23102 0.32947 0.01622 0.0
N2351 N 0.22374 0.35675 0.08538 0.0
H2352 H 0.55289 0.80398 0.81134 0.0
H2353 H 0.40498 0.80807 0.87738 0.0
H2354 H 0.48878 0.85632 0.78392 0.0
H2355 H 0.45796 0.73945 0.88629 0.0
H2356 H 0.43828 0.82917 0.8476 0.0
H2357 H 0.52101 0.78289 0.8431 0.0
C2358 C 0.53223 0.81108 0.81195 0.0
C2359 C 0.52362 0.83195 0.79472 0.0
C2360 C 0.44267 0.80952 0.85613 0.0
C2361 C 0.48713 0.80812 0.83129 0.0
C2362 C 0.42369 0.79751 0.87328 0.0
C2363 C 0.42854 0.77187 0.88438 0.0
C2364 C 0.46697 0.79606 0.8502 0.0
C2365 C 0.45321 0.75916 0.87811 0.0
C2366 C 0.51402 0.79898 0.83005 0.0
C2367 C 0.49647 0.84022 0.79654 0.0
N2368 N 0.47149 0.77138 0.86153 0.0
N2369 N 0.47936 0.82842 0.81448 0.0
H2370 H 0.97727 0.22449 0.31275 0.0
H2371 H 0.12593 0.22068 0.37753 0.0
H2372 H 0.041 0.17151 0.28565 0.0
H2373 H 0.07215 0.28848 0.38777 0.0
H2374 H 0.09245 0.19937 0.34812 0.0
H2375 H 1.00931 0.24549 0.34436 0.0
C2376 C 0.99788 0.21723 0.31341 0.0
C2377 C 1.00632 0.19622 0.29629 0.0
C2378 C 0.08792 0.21888 0.35688 0.0
C2379 C 0.04303 0.21996 0.33269 0.0
C2380 C 0.10702 0.23101 0.37382 0.0
C2381 C 0.102 0.25649 0.38518 0.0
C2382 C 0.06335 0.23208 0.35141 0.0
C2383 C 0.07705 0.2689 0.37939 0.0
C2384 C 0.01618 0.22926 0.33144 0.0
C2385 C 0.03341 0.18772 0.29819 0.0
N2386 N 0.0587 0.25659 0.36301 0.0
N2387 N 0.05062 0.19949 0.31601 0.0
H2388 H 0.05367 0.72587 0.21688 0.0
H2389 H 0.90493 0.72023 0.15267 0.0
H2390 H 0.98991 0.67407 0.24597 0.0
H2391 H 0.95704 0.78925 0.14254 0.0
H2392 H 0.9389 0.69961 0.18207 0.0
H2393 H 0.02138 0.74628 0.18494 0.0
C2394 C 0.03301 0.71875 0.21657 0.0
C2395 C 0.02459 0.69829 0.23436 0.0
C2396 C 0.94296 0.71924 0.17333 0.0
C2397 C 0.98769 0.72126 0.19763 0.0
C2398 C 0.92359 0.73097 0.15641 0.0
C2399 C 0.92799 0.7566 0.1451 0.0
C2400 C 0.9672 0.73296 0.17881 0.0
C2401 C 0.95263 0.76955 0.1509 0.0
C2402 C 1.01458 0.73044 0.19839 0.0
C2403 C 0.99746 0.68991 0.23293 0.0
N2404 N 0.97129 0.7576 0.16726 0.0
N2405 N 0.98016 0.70129 0.21493 0.0
H2406 H 0.47735 0.30329 0.71776 0.0
H2407 H 0.62533 0.3083 0.65159 0.0
H2408 H 0.54069 0.35677 0.74444 0.0
H2409 H 0.57342 0.23886 0.64379 0.0
H2410 H 0.59172 0.32935 0.68113 0.0
H2411 H 0.50959 0.28215 0.68633 0.0
C2412 C 0.49792 0.31063 0.71705 0.0
C2413 C 0.5062 0.33183 0.734 0.0
C2414 C 0.58763 0.30952 0.6729 0.0
C2415 C 0.54311 0.30794 0.69777 0.0
C2416 C 0.6068 0.29753 0.65589 0.0
C2417 C 0.60235 0.27168 0.64515 0.0
C2418 C 0.56352 0.29584 0.67905 0.0
C2419 C 0.57787 0.25873 0.65168 0.0
C2420 C 0.51633 0.29851 0.69913 0.0
C2421 C 0.53324 0.34041 0.73204 0.0
N2422 N 0.5594 0.27094 0.66809 0.0
N2423 N 0.55054 0.32859 0.71428 0.0
H2424 H 0.76422 0.5 0.81326 0.0
H2425 H 0.9091 0.43413 0.80734 0.0
H2426 H 0.83217 0.54472 0.8439 0.0
H2427 H 0.85527 0.42976 0.73913 0.0
H2428 H 0.87945 0.46874 0.82758 0.0
H2429 H 0.79548 0.46797 0.79199 0.0
C2430 C 0.78575 0.50314 0.81538 0.0
C2431 C 0.79562 0.52519 0.83015 0.0
C2432 C 0.87429 0.46018 0.80815 0.0
C2433 C 0.83148 0.48804 0.80665 0.0
C2434 C 0.89105 0.44035 0.79669 0.0
C2435 C 0.88471 0.42907 0.77146 0.0
C2436 C 0.85061 0.46813 0.79468 0.0
C2437 C 0.86107 0.43799 0.75852 0.0
C2438 C 0.80354 0.48486 0.80326 0.0
C2439 C 0.82375 0.52817 0.8324 0.0
N2440 N 0.84476 0.45667 0.77039 0.0
N2441 N 0.84073 0.50959 0.8211 0.0
H2442 H 0.31294 0.97698 0.225 0.0
H2443 H 0.37916 0.12478 0.22065 0.0
H2444 H 0.28644 0.04081 0.17185 0.0
H2445 H 0.38765 0.07208 0.28952 0.0
H2446 H 0.34962 0.0914 0.1995 0.0
H2447 H 0.34458 1.00887 0.24619 0.0
C2448 C 0.31374 0.99758 0.21774 0.0
C2449 C 0.29679 1.00611 0.19662 0.0
C2450 C 0.35801 0.08708 0.21921 0.0
C2451 C 0.33321 0.04262 0.22058 0.0
C2452 C 0.37503 0.10611 0.23127 0.0
C2453 C 0.38596 0.10137 0.25699 0.0
C2454 C 0.35201 0.06282 0.23271 0.0
C2455 C 0.37962 0.07674 0.26974 0.0
C2456 C 0.33177 0.01579 0.22989 0.0
C2457 C 0.29885 0.03318 0.18814 0.0
N2458 N 0.36316 0.0584 0.25748 0.0
N2459 N 0.3167 0.05029 0.20001 0.0
H2460 H 0.21738 0.05281 0.72482 0.0
H2461 H 0.15124 0.90483 0.72129 0.0
H2462 H 0.24244 0.98951 0.6704 0.0
H2463 H 0.143 0.95796 0.7898 0.0
H2464 H 0.18044 0.93824 0.6996 0.0
H2465 H 0.18601 0.02083 0.74633 0.0
C2466 C 0.2163 0.03231 0.71733 0.0
C2467 C 0.23279 0.02395 0.69577 0.0
C2468 C 0.17218 0.94264 0.71935 0.0
C2469 C 0.1967 0.98732 0.72015 0.0
C2470 C 0.15537 0.92359 0.73172 0.0
C2471 C 0.1446 0.92845 0.7575 0.0
C2472 C 0.17814 0.96703 0.7326 0.0
C2473 C 0.15091 0.95319 0.77 0.0
C2474 C 0.19843 1.01403 0.72967 0.0
C2475 C 0.23039 0.99701 0.68702 0.0
N2476 N 0.16717 0.97153 0.75744 0.0
N2477 N 0.21273 0.97982 0.69912 0.0
H2478 H 0.64134 0.57107 0.23831 0.0
H2479 H 0.74592 0.53952 0.35639 0.0
H2480 H 0.65199 0.62223 0.30794 0.0
H2481 H 0.71665 0.4765 0.30388 0.0
H2482 H 0.71422 0.57088 0.33603 0.0
H2483 H 0.67081 0.5372 0.2593 0.0
C2484 C 0.64978 0.5752 0.25804 0.0
C2485 C 0.64411 0.59969 0.27133 0.0
C2486 C 0.71459 0.55021 0.32894 0.0
C2487 C 0.67818 0.56094 0.29532 0.0
C2488 C 0.73288 0.53217 0.34048 0.0
C2489 C 0.73419 0.50512 0.33185 0.0
C2490 C 0.69742 0.54154 0.30821 0.0
C2491 C 0.71641 0.49706 0.31124 0.0
C2492 C 0.66655 0.55576 0.27002 0.0
C2493 C 0.65561 0.60372 0.29692 0.0
N2494 N 0.69891 0.51524 0.29998 0.0
N2495 N 0.67222 0.58472 0.3079 0.0
loop_
_geom_bond_atom_site_label_1
_geom_bond_atom_site_label_2
_geom_bond_distance
_geom_bond_site_symmetry_2
_ccdc_geom_bond_type
Co0 H3 2.400 . S
Co0 O4 2.009 . S
Co0 O12 2.115 . S
Co0 O13 2.315 . S
Co0 O24 2.053 . S
Co0 O27 2.094 . S
Co0 O30 2.122 . S
Co1 O4 2.126 . S
Co1 H5 2.388 . S
Co1 O6 2.053 . S
Co1 O9 2.047 . S
Co1 O15 2.113 . S
Co1 O26 2.063 . S
Co2 H3 2.388 . S
Co2 O4 2.053 . S
Co2 O6 2.126 . S
Co2 O11 2.063 . S
Co2 O25 2.047 . S
Co2 O31 2.113 . S
H3 Co0 2.400 . S
H3 Co2 2.388 . S
H3 O4 0.760 . S
O4 Co0 2.009 . S
O4 Co1 2.126 . S
O4 Co2 2.053 . S
O4 H3 0.760 . S
H5 Co1 2.388 . S
H5 O6 0.760 . S
H5 Co7 2.400 . S
O6 Co1 2.053 . S
O6 Co2 2.126 . S
O6 H5 0.760 . S
O6 Co7 2.009 . S
Co7 H5 2.400 . S
Co7 O6 2.009 . S
Co7 O8 2.053 . S
Co7 O10 2.094 . S
Co7 O14 2.122 . S
Co7 O28 2.115 . S
Co7 O29 2.315 . S
O8 Co7 2.053 . S
O8 C20 1.259 . S
O9 Co1 2.047 . S
O9 C20 1.257 . S
O10 Co7 2.094 . S
O10 C21 1.253 . S
O11 Co2 2.063 . S
O11 C21 1.268 . S
O12 Co0 2.115 . S
O12 C22 1.281 . S
O13 Co0 2.315 . S
O13 C22 1.252 . S
O14 Co7 2.122 . S
O14 C23 1.272 . S
O15 Co1 2.113 . S
O15 C23 1.245 . S
C16 O24 1.259 . S
C16 O25 1.257 . S
C17 O26 1.268 . S
C17 O27 1.253 . S
C18 O28 1.281 . S
C18 O29 1.252 . S
C19 O30 1.272 . S
C19 O31 1.245 . S
C20 O8 1.259 . S
C20 O9 1.257 . S
C21 O10 1.253 . S
C21 O11 1.268 . S
C22 O12 1.281 . S
C22 O13 1.252 . S
C23 O14 1.272 . S
C23 O15 1.245 . S
O24 Co0 2.053 . S
O24 C16 1.259 . S
O25 Co2 2.047 . S
O25 C16 1.257 . S
O26 Co1 2.063 . S
O26 C17 1.268 . S
O27 Co0 2.094 . S
O27 C17 1.253 . S
O28 Co7 2.115 . S
O28 C18 1.281 . S
O29 Co7 2.315 . S
O29 C18 1.252 . S
O30 Co0 2.122 . S
O30 C19 1.272 . S
O31 Co2 2.113 . S
O31 C19 1.245 . S
Co32 H35 2.400 . S
Co32 O36 2.009 . S
Co32 O44 2.115 . S
Co32 O45 2.315 . S
Co32 O56 2.053 . S
Co32 O59 2.094 . S
Co32 O62 2.122 . S
Co33 O36 2.126 . S
Co33 H37 2.388 . S
Co33 O38 2.053 . S
Co33 O41 2.047 . S
Co33 O47 2.113 . S
Co33 O58 2.063 . S
Co34 H35 2.388 . S
Co34 O36 2.053 . S
Co34 O38 2.126 . S
Co34 O43 2.063 . S
Co34 O57 2.047 . S
Co34 O63 2.113 . S
H35 Co32 2.400 . S
H35 Co34 2.388 . S
H35 O36 0.760 . S
O36 Co32 2.009 . S
O36 Co33 2.126 . S
O36 Co34 2.053 . S
O36 H35 0.760 . S
H37 Co33 2.388 . S
H37 O38 0.760 . S
H37 Co39 2.400 . S
O38 Co33 2.053 . S
O38 Co34 2.126 . S
O38 H37 0.760 . S
O38 Co39 2.009 . S
Co39 H37 2.400 . S
Co39 O38 2.009 . S
Co39 O40 2.053 . S
Co39 O42 2.094 . S
Co39 O46 2.122 . S
Co39 O60 2.115 . S
Co39 O61 2.315 . S
O40 Co39 2.053 . S
O40 C52 1.259 1_556 S
O41 Co33 2.047 . S
O41 C52 1.257 1_556 S
O42 Co39 2.094 . S
O42 C53 1.253 . S
O43 Co34 2.063 . S
O43 C53 1.268 . S
O44 Co32 2.115 . S
O44 C54 1.281 . S
O45 Co32 2.315 . S
O45 C54 1.252 . S
O46 Co39 2.122 . S
O46 C55 1.272 . S
O47 Co33 2.113 . S
O47 C55 1.245 . S
C48 O56 1.259 . S
C48 O57 1.257 . S
C49 O58 1.268 . S
C49 O59 1.253 . S
C50 O60 1.281 . S
C50 O61 1.252 . S
C51 O62 1.272 . S
C51 O63 1.245 . S
C52 O40 1.259 1_554 S
C52 O41 1.257 1_554 S
C53 O42 1.253 . S
C53 O43 1.268 . S
C54 O44 1.281 . S
C54 O45 1.252 . S
C55 O46 1.272 . S
C55 O47 1.245 . S
O56 Co32 2.053 . S
O56 C48 1.259 . S
O57 Co34 2.047 . S
O57 C48 1.257 . S
O58 Co33 2.063 . S
O58 C49 1.268 . S
O59 Co32 2.094 . S
O59 C49 1.253 . S
O60 Co39 2.115 . S
O60 C50 1.281 . S
O61 Co39 2.315 . S
O61 C50 1.252 . S
O62 Co32 2.122 . S
O62 C51 1.272 . S
O63 Co34 2.113 . S
O63 C51 1.245 . S
Co64 H67 2.400 . S
Co64 O68 2.009 . S
Co64 O76 2.115 . S
Co64 O77 2.315 . S
Co64 O88 2.053 . S
Co64 O91 2.094 . S
Co64 O94 2.122 . S
Co65 O68 2.126 . S
Co65 H69 2.388 . S
Co65 O70 2.053 . S
Co65 O73 2.047 . S
Co65 O79 2.113 . S
Co65 O90 2.063 . S
Co66 H67 2.388 . S
Co66 O68 2.053 . S
Co66 O70 2.126 . S
Co66 O75 2.063 . S
Co66 O89 2.047 . S
Co66 O95 2.113 . S
H67 Co64 2.400 . S
H67 Co66 2.388 . S
H67 O68 0.760 . S
O68 Co64 2.009 . S
O68 Co65 2.126 . S
O68 Co66 2.053 . S
O68 H67 0.760 . S
H69 Co65 2.388 . S
H69 O70 0.760 . S
H69 Co71 2.400 . S
O70 Co65 2.053 . S
O70 Co66 2.126 . S
O70 H69 0.760 . S
O70 Co71 2.009 . S
Co71 H69 2.400 . S
Co71 O70 2.009 . S
Co71 O72 2.053 . S
Co71 O74 2.094 . S
Co71 O78 2.122 . S
Co71 O92 2.115 . S
Co71 O93 2.315 . S
O72 Co71 2.053 . S
O72 C84 1.259 . S
O73 Co65 2.047 . S
O73 C84 1.257 . S
O74 Co71 2.094 . S
O74 C85 1.253 . S
O75 Co66 2.063 . S
O75 C85 1.268 . S
O76 Co64 2.115 . S
O76 C86 1.281 . S
O77 Co64 2.315 . S
O77 C86 1.252 . S
O78 Co71 2.122 . S
O78 C87 1.272 . S
O79 Co65 2.113 . S
O79 C87 1.245 . S
C80 O88 1.259 . S
C80 O89 1.257 . S
C81 O90 1.268 . S
C81 O91 1.253 . S
C82 O92 1.281 . S
C82 O93 1.252 . S
C83 O94 1.272 . S
C83 O95 1.245 . S
C84 O72 1.259 . S
C84 O73 1.257 . S
C85 O74 1.253 . S
C85 O75 1.268 . S
C86 O76 1.281 . S
C86 O77 1.252 . S
C87 O78 1.272 . S
C87 O79 1.245 . S
O88 Co64 2.053 . S
O88 C80 1.259 . S
O89 Co66 2.047 . S
O89 C80 1.257 . S
O90 Co65 2.063 . S
O90 C81 1.268 . S
O91 Co64 2.094 . S
O91 C81 1.253 . S
O92 Co71 2.115 . S
O92 C82 1.281 . S
O93 Co71 2.315 . S
O93 C82 1.252 . S
O94 Co64 2.122 . S
O94 C83 1.272 . S
O95 Co66 2.113 . S
O95 C83 1.245 . S
Co96 H99 2.400 . S
Co96 O100 2.009 . S
Co96 O108 2.115 . S
Co96 O109 2.315 . S
Co96 O120 2.053 . S
Co96 O123 2.094 . S
Co96 O126 2.122 . S
Co97 O100 2.126 . S
Co97 H101 2.388 . S
Co97 O102 2.053 . S
Co97 O105 2.047 . S
Co97 O111 2.113 . S
Co97 O122 2.063 . S
Co98 H99 2.388 . S
Co98 O100 2.053 . S
Co98 O102 2.126 . S
Co98 O107 2.063 . S
Co98 O121 2.047 . S
Co98 O127 2.113 . S
H99 Co96 2.400 . S
H99 Co98 2.388 . S
H99 O100 0.760 . S
O100 Co96 2.009 . S
O100 Co97 2.126 . S
O100 Co98 2.053 . S
O100 H99 0.760 . S
H101 Co97 2.388 . S
H101 O102 0.760 . S
H101 Co103 2.400 . S
O102 Co97 2.053 . S
O102 Co98 2.126 . S
O102 H101 0.760 . S
O102 Co103 2.009 . S
Co103 H101 2.400 . S
Co103 O102 2.009 . S
Co103 O104 2.053 . S
Co103 O106 2.094 . S
Co103 O110 2.122 . S
Co103 O124 2.115 . S
Co103 O125 2.315 . S
O104 Co103 2.053 . S
O104 C116 1.259 1_554 S
O105 Co97 2.047 . S
O105 C116 1.257 1_554 S
O106 Co103 2.094 . S
O106 C117 1.253 . S
O107 Co98 2.063 . S
O107 C117 1.268 . S
O108 Co96 2.115 . S
O108 C118 1.281 . S
O109 Co96 2.315 . S
O109 C118 1.252 . S
O110 Co103 2.122 . S
O110 C119 1.272 . S
O111 Co97 2.113 . S
O111 C119 1.245 . S
C112 O120 1.259 . S
C112 O121 1.257 . S
C113 O122 1.268 . S
C113 O123 1.253 . S
C114 O124 1.281 . S
C114 O125 1.252 . S
C115 O126 1.272 . S
C115 O127 1.245 . S
C116 O104 1.259 1_556 S
C116 O105 1.257 1_556 S
C117 O106 1.253 . S
C117 O107 1.268 . S
C118 O108 1.281 . S
C118 O109 1.252 . S
C119 O110 1.272 . S
C119 O111 1.245 . S
O120 Co96 2.053 . S
O120 C112 1.259 . S
O121 Co98 2.047 . S
O121 C112 1.257 . S
O122 Co97 2.063 . S
O122 C113 1.268 . S
O123 Co96 2.094 . S
O123 C113 1.253 . S
O124 Co103 2.115 . S
O124 C114 1.281 . S
O125 Co103 2.315 . S
O125 C114 1.252 . S
O126 Co96 2.122 . S
O126 C115 1.272 . S
O127 Co98 2.113 . S
O127 C115 1.245 . S
Co128 H131 2.400 . S
Co128 O132 2.009 . S
Co128 O140 2.115 . S
Co128 O141 2.315 . S
Co128 O152 2.053 . S
Co128 O155 2.094 . S
Co128 O158 2.122 . S
Co129 O132 2.126 . S
Co129 H133 2.388 . S
Co129 O134 2.053 . S
Co129 O137 2.047 . S
Co129 O143 2.113 . S
Co129 O154 2.063 . S
Co130 H131 2.388 . S
Co130 O132 2.053 . S
Co130 O134 2.126 . S
Co130 O139 2.063 . S
Co130 O153 2.047 . S
Co130 O159 2.113 . S
H131 Co128 2.400 . S
H131 Co130 2.388 . S
H131 O132 0.760 . S
O132 Co128 2.009 . S
O132 Co129 2.126 . S
O132 Co130 2.053 . S
O132 H131 0.760 . S
H133 Co129 2.388 . S
H133 O134 0.760 . S
H133 Co135 2.400 . S
O134 Co129 2.053 . S
O134 Co130 2.126 . S
O134 H133 0.760 . S
O134 Co135 2.009 . S
Co135 H133 2.400 . S
Co135 O134 2.009 . S
Co135 O136 2.053 . S
Co135 O138 2.094 . S
Co135 O142 2.122 . S
Co135 O156 2.115 . S
Co135 O157 2.315 . S
O136 Co135 2.053 . S
O136 C148 1.259 . S
O137 Co129 2.047 . S
O137 C148 1.257 . S
O138 Co135 2.094 . S
O138 C149 1.253 . S
O139 Co130 2.063 . S
O139 C149 1.268 . S
O140 Co128 2.115 . S
O140 C150 1.281 . S
O141 Co128 2.315 . S
O141 C150 1.252 . S
O142 Co135 2.122 . S
O142 C151 1.272 . S
O143 Co129 2.113 . S
O143 C151 1.245 . S
C144 O152 1.259 . S
C144 O153 1.257 . S
C145 O154 1.268 . S
C145 O155 1.253 . S
C146 O156 1.281 . S
C146 O157 1.252 . S
C147 O158 1.272 . S
C147 O159 1.245 . S
C148 O136 1.259 . S
C148 O137 1.257 . S
C149 O138 1.253 . S
C149 O139 1.268 . S
C150 O140 1.281 . S
C150 O141 1.252 . S
C151 O142 1.272 . S
C151 O143 1.245 . S
O152 Co128 2.053 . S
O152 C144 1.259 . S
O153 Co130 2.047 . S
O153 C144 1.257 . S
O154 Co129 2.063 . S
O154 C145 1.268 . S
O155 Co128 2.094 . S
O155 C145 1.253 . S
O156 Co135 2.115 . S
O156 C146 1.281 . S
O157 Co135 2.315 . S
O157 C146 1.252 . S
O158 Co128 2.122 . S
O158 C147 1.272 . S
O159 Co130 2.113 . S
O159 C147 1.245 . S
Co160 H163 2.400 . S
Co160 O164 2.009 . S
Co160 O172 2.115 . S
Co160 O173 2.315 . S
Co160 O184 2.053 . S
Co160 O187 2.094 . S
Co160 O190 2.122 . S
Co161 O164 2.126 . S
Co161 H165 2.388 . S
Co161 O166 2.053 . S
Co161 O169 2.047 . S
Co161 O175 2.113 . S
Co161 O186 2.063 . S
Co162 H163 2.388 . S
Co162 O164 2.053 . S
Co162 O166 2.126 . S
Co162 O171 2.063 . S
Co162 O185 2.047 . S
Co162 O191 2.113 . S
H163 Co160 2.400 . S
H163 Co162 2.388 . S
H163 O164 0.760 . S
O164 Co160 2.009 . S
O164 Co161 2.126 . S
O164 Co162 2.053 . S
O164 H163 0.760 . S
H165 Co161 2.388 . S
H165 O166 0.760 . S
H165 Co167 2.400 . S
O166 Co161 2.053 . S
O166 Co162 2.126 . S
O166 H165 0.760 . S
O166 Co167 2.009 . S
Co167 H165 2.400 . S
Co167 O166 2.009 . S
Co167 O168 2.053 . S
Co167 O170 2.094 . S
Co167 O174 2.122 . S
Co167 O188 2.115 . S
Co167 O189 2.315 . S
O168 Co167 2.053 . S
O168 C180 1.259 1_455 S
O169 Co161 2.047 . S
O169 C180 1.257 1_455 S
O170 Co167 2.094 . S
O170 C181 1.253 . S
O171 Co162 2.063 . S
O171 C181 1.268 . S
O172 Co160 2.115 . S
O172 C182 1.281 . S
O173 Co160 2.315 . S
O173 C182 1.252 . S
O174 Co167 2.122 . S
O174 C183 1.272 . S
O175 Co161 2.113 . S
O175 C183 1.245 . S
C176 O184 1.259 . S
C176 O185 1.257 . S
C177 O186 1.268 . S
C177 O187 1.253 . S
C178 O188 1.281 . S
C178 O189 1.252 . S
C179 O190 1.272 . S
C179 O191 1.245 . S
C180 O168 1.259 1_655 S
C180 O169 1.257 1_655 S
C181 O170 1.253 . S
C181 O171 1.268 . S
C182 O172 1.281 . S
C182 O173 1.252 . S
C183 O174 1.272 . S
C183 O175 1.245 . S
O184 Co160 2.053 . S
O184 C176 1.259 . S
O185 Co162 2.047 . S
O185 C176 1.257 . S
O186 Co161 2.063 . S
O186 C177 1.268 . S
O187 Co160 2.094 . S
O187 C177 1.253 . S
O188 Co167 2.115 . S
O188 C178 1.281 . S
O189 Co167 2.315 . S
O189 C178 1.252 . S
O190 Co160 2.122 . S
O190 C179 1.272 . S
O191 Co162 2.113 . S
O191 C179 1.245 . S
Co192 H195 2.400 . S
Co192 O196 2.009 . S
Co192 O204 2.115 . S
Co192 O205 2.315 . S
Co192 O216 2.053 . S
Co192 O219 2.094 . S
Co192 O222 2.122 . S
Co193 O196 2.126 . S
Co193 H197 2.388 . S
Co193 O198 2.053 . S
Co193 O201 2.047 . S
Co193 O207 2.113 . S
Co193 O218 2.063 . S
Co194 H195 2.388 . S
Co194 O196 2.053 . S
Co194 O198 2.126 . S
Co194 O203 2.063 . S
Co194 O217 2.047 . S
Co194 O223 2.113 . S
H195 Co192 2.400 . S
H195 Co194 2.388 . S
H195 O196 0.760 . S
O196 Co192 2.009 . S
O196 Co193 2.126 . S
O196 Co194 2.053 . S
O196 H195 0.760 . S
H197 Co193 2.388 . S
H197 O198 0.760 . S
H197 Co199 2.400 . S
O198 Co193 2.053 . S
O198 Co194 2.126 . S
O198 H197 0.760 . S
O198 Co199 2.009 . S
Co199 H197 2.400 . S
Co199 O198 2.009 . S
Co199 O200 2.053 . S
Co199 O202 2.094 . S
Co199 O206 2.122 . S
Co199 O220 2.115 . S
Co199 O221 2.315 . S
O200 Co199 2.053 . S
O200 C212 1.259 1_655 S
O201 Co193 2.047 . S
O201 C212 1.257 1_655 S
O202 Co199 2.094 . S
O202 C213 1.253 . S
O203 Co194 2.063 . S
O203 C213 1.268 . S
O204 Co192 2.115 . S
O204 C214 1.281 . S
O205 Co192 2.315 . S
O205 C214 1.252 . S
O206 Co199 2.122 . S
O206 C215 1.272 . S
O207 Co193 2.113 . S
O207 C215 1.245 . S
C208 O216 1.259 . S
C208 O217 1.257 . S
C209 O218 1.268 . S
C209 O219 1.253 . S
C210 O220 1.281 . S
C210 O221 1.252 . S
C211 O222 1.272 . S
C211 O223 1.245 . S
C212 O200 1.259 1_455 S
C212 O201 1.257 1_455 S
C213 O202 1.253 . S
C213 O203 1.268 . S
C214 O204 1.281 . S
C214 O205 1.252 . S
C215 O206 1.272 . S
C215 O207 1.245 . S
O216 Co192 2.053 . S
O216 C208 1.259 . S
O217 Co194 2.047 . S
O217 C208 1.257 . S
O218 Co193 2.063 . S
O218 C209 1.268 . S
O219 Co192 2.094 . S
O219 C209 1.253 . S
O220 Co199 2.115 . S
O220 C210 1.281 . S
O221 Co199 2.315 . S
O221 C210 1.252 . S
O222 Co192 2.122 . S
O222 C211 1.272 . S
O223 Co194 2.113 . S
O223 C211 1.245 . S
Co224 H227 2.400 . S
Co224 O228 2.009 . S
Co224 O236 2.115 . S
Co224 O237 2.315 . S
Co224 O248 2.053 . S
Co224 O251 2.094 . S
Co224 O254 2.122 . S
Co225 O228 2.126 . S
Co225 H229 2.388 . S
Co225 O230 2.053 . S
Co225 O233 2.047 . S
Co225 O239 2.113 . S
Co225 O250 2.063 . S
Co226 H227 2.388 . S
Co226 O228 2.053 . S
Co226 O230 2.126 . S
Co226 O235 2.063 . S
Co226 O249 2.047 . S
Co226 O255 2.113 . S
H227 Co224 2.400 . S
H227 Co226 2.388 . S
H227 O228 0.760 . S
O228 Co224 2.009 . S
O228 Co225 2.126 . S
O228 Co226 2.053 . S
O228 H227 0.760 . S
H229 Co225 2.388 . S
H229 O230 0.760 . S
H229 Co231 2.400 . S
O230 Co225 2.053 . S
O230 Co226 2.126 . S
O230 H229 0.760 . S
O230 Co231 2.009 . S
Co231 H229 2.400 . S
Co231 O230 2.009 . S
Co231 O232 2.053 . S
Co231 O234 2.094 . S
Co231 O238 2.122 . S
Co231 O252 2.115 . S
Co231 O253 2.315 . S
O232 Co231 2.053 . S
O232 C244 1.259 . S
O233 Co225 2.047 . S
O233 C244 1.257 . S
O234 Co231 2.094 . S
O234 C245 1.253 . S
O235 Co226 2.063 . S
O235 C245 1.268 . S
O236 Co224 2.115 . S
O236 C246 1.281 . S
O237 Co224 2.315 . S
O237 C246 1.252 . S
O238 Co231 2.122 . S
O238 C247 1.272 . S
O239 Co225 2.113 . S
O239 C247 1.245 . S
C240 O248 1.259 . S
C240 O249 1.257 . S
C241 O250 1.268 . S
C241 O251 1.253 . S
C242 O252 1.281 . S
C242 O253 1.252 . S
C243 O254 1.272 . S
C243 O255 1.245 . S
C244 O232 1.259 . S
C244 O233 1.257 . S
C245 O234 1.253 . S
C245 O235 1.268 . S
C246 O236 1.281 . S
C246 O237 1.252 . S
C247 O238 1.272 . S
C247 O239 1.245 . S
O248 Co224 2.053 . S
O248 C240 1.259 . S
O249 Co226 2.047 . S
O249 C240 1.257 . S
O250 Co225 2.063 . S
O250 C241 1.268 . S
O251 Co224 2.094 . S
O251 C241 1.253 . S
O252 Co231 2.115 . S
O252 C242 1.281 . S
O253 Co231 2.315 . S
O253 C242 1.252 . S
O254 Co224 2.122 . S
O254 C243 1.272 . S
O255 Co226 2.113 . S
O255 C243 1.245 . S
Co256 H259 2.400 . S
Co256 O260 2.009 . S
Co256 O268 2.115 . S
Co256 O269 2.315 . S
Co256 O280 2.053 . S
Co256 O283 2.094 . S
Co256 O286 2.122 . S
Co257 O260 2.126 . S
Co257 H261 2.388 . S
Co257 O262 2.053 . S
Co257 O265 2.047 . S
Co257 O271 2.113 . S
Co257 O282 2.063 . S
Co258 H259 2.388 . S
Co258 O260 2.053 . S
Co258 O262 2.126 . S
Co258 O267 2.063 . S
Co258 O281 2.047 . S
Co258 O287 2.113 . S
H259 Co256 2.400 . S
H259 Co258 2.388 . S
H259 O260 0.760 . S
O260 Co256 2.009 . S
O260 Co257 2.126 . S
O260 Co258 2.053 . S
O260 H259 0.760 . S
H261 Co257 2.388 . S
H261 O262 0.760 . S
H261 Co263 2.400 . S
O262 Co257 2.053 . S
O262 Co258 2.126 . S
O262 H261 0.760 . S
O262 Co263 2.009 . S
Co263 H261 2.400 . S
Co263 O262 2.009 . S
Co263 O264 2.053 . S
Co263 O266 2.094 . S
Co263 O270 2.122 . S
Co263 O284 2.115 . S
Co263 O285 2.315 . S
O264 Co263 2.053 . S
O264 C276 1.259 . S
O265 Co257 2.047 . S
O265 C276 1.257 . S
O266 Co263 2.094 . S
O266 C277 1.253 . S
O267 Co258 2.063 . S
O267 C277 1.268 . S
O268 Co256 2.115 . S
O268 C278 1.281 . S
O269 Co256 2.315 . S
O269 C278 1.252 . S
O270 Co263 2.122 . S
O270 C279 1.272 . S
O271 Co257 2.113 . S
O271 C279 1.245 . S
C272 O280 1.259 . S
C272 O281 1.257 . S
C273 O282 1.268 . S
C273 O283 1.253 . S
C274 O284 1.281 . S
C274 O285 1.252 . S
C275 O286 1.272 . S
C275 O287 1.245 . S
C276 O264 1.259 . S
C276 O265 1.257 . S
C277 O266 1.253 . S
C277 O267 1.268 . S
C278 O268 1.281 . S
C278 O269 1.252 . S
C279 O270 1.272 . S
C279 O271 1.245 . S
O280 Co256 2.053 . S
O280 C272 1.259 . S
O281 Co258 2.047 . S
O281 C272 1.257 . S
O282 Co257 2.063 . S
O282 C273 1.268 . S
O283 Co256 2.094 . S
O283 C273 1.253 . S
O284 Co263 2.115 . S
O284 C274 1.281 . S
O285 Co263 2.315 . S
O285 C274 1.252 . S
O286 Co256 2.122 . S
O286 C275 1.272 . S
O287 Co258 2.113 . S
O287 C275 1.245 . S
Co288 H291 2.400 . S
Co288 O292 2.009 . S
Co288 O300 2.115 . S
Co288 O301 2.315 . S
Co288 O312 2.053 . S
Co288 O315 2.094 . S
Co288 O318 2.122 . S
Co289 O292 2.126 . S
Co289 H293 2.388 . S
Co289 O294 2.053 . S
Co289 O297 2.047 . S
Co289 O303 2.113 . S
Co289 O314 2.063 . S
Co290 H291 2.388 . S
Co290 O292 2.053 . S
Co290 O294 2.126 . S
Co290 O299 2.063 . S
Co290 O313 2.047 . S
Co290 O319 2.113 . S
H291 Co288 2.400 . S
H291 Co290 2.388 . S
H291 O292 0.760 . S
O292 Co288 2.009 . S
O292 Co289 2.126 . S
O292 Co290 2.053 . S
O292 H291 0.760 . S
H293 Co289 2.388 . S
H293 O294 0.760 . S
H293 Co295 2.400 . S
O294 Co289 2.053 . S
O294 Co290 2.126 . S
O294 H293 0.760 . S
O294 Co295 2.009 . S
Co295 H293 2.400 . S
Co295 O294 2.009 . S
Co295 O296 2.053 . S
Co295 O298 2.094 . S
Co295 O302 2.122 . S
Co295 O316 2.115 . S
Co295 O317 2.315 . S
O296 Co295 2.053 . S
O296 C308 1.259 1_545 S
O297 Co289 2.047 . S
O297 C308 1.257 1_545 S
O298 Co295 2.094 . S
O298 C309 1.253 . S
O299 Co290 2.063 . S
O299 C309 1.268 . S
O300 Co288 2.115 . S
O300 C310 1.281 . S
O301 Co288 2.315 . S
O301 C310 1.252 . S
O302 Co295 2.122 . S
O302 C311 1.272 . S
O303 Co289 2.113 . S
O303 C311 1.245 . S
C304 O312 1.259 . S
C304 O313 1.257 . S
C305 O314 1.268 . S
C305 O315 1.253 . S
C306 O316 1.281 . S
C306 O317 1.252 . S
C307 O318 1.272 . S
C307 O319 1.245 . S
C308 O296 1.259 1_565 S
C308 O297 1.257 1_565 S
C309 O298 1.253 . S
C309 O299 1.268 . S
C310 O300 1.281 . S
C310 O301 1.252 . S
C311 O302 1.272 . S
C311 O303 1.245 . S
O312 Co288 2.053 . S
O312 C304 1.259 . S
O313 Co290 2.047 . S
O313 C304 1.257 . S
O314 Co289 2.063 . S
O314 C305 1.268 . S
O315 Co288 2.094 . S
O315 C305 1.253 . S
O316 Co295 2.115 . S
O316 C306 1.281 . S
O317 Co295 2.315 . S
O317 C306 1.252 . S
O318 Co288 2.122 . S
O318 C307 1.272 . S
O319 Co290 2.113 . S
O319 C307 1.245 . S
Co320 H323 2.400 . S
Co320 O324 2.009 . S
Co320 O332 2.115 . S
Co320 O333 2.315 . S
Co320 O344 2.053 . S
Co320 O347 2.094 . S
Co320 O350 2.122 . S
Co321 O324 2.126 . S
Co321 H325 2.388 . S
Co321 O326 2.053 . S
Co321 O329 2.047 . S
Co321 O335 2.113 . S
Co321 O346 2.063 . S
Co322 H323 2.388 . S
Co322 O324 2.053 . S
Co322 O326 2.126 . S
Co322 O331 2.063 . S
Co322 O345 2.047 . S
Co322 O351 2.113 . S
H323 Co320 2.400 . S
H323 Co322 2.388 . S
H323 O324 0.760 . S
O324 Co320 2.009 . S
O324 Co321 2.126 . S
O324 Co322 2.053 . S
O324 H323 0.760 . S
H325 Co321 2.388 . S
H325 O326 0.760 . S
H325 Co327 2.400 . S
O326 Co321 2.053 . S
O326 Co322 2.126 . S
O326 H325 0.760 . S
O326 Co327 2.009 . S
Co327 H325 2.400 . S
Co327 O326 2.009 . S
Co327 O328 2.053 . S
Co327 O330 2.094 . S
Co327 O334 2.122 . S
Co327 O348 2.115 . S
Co327 O349 2.315 . S
O328 Co327 2.053 . S
O328 C340 1.259 1_565 S
O329 Co321 2.047 . S
O329 C340 1.257 1_565 S
O330 Co327 2.094 . S
O330 C341 1.253 . S
O331 Co322 2.063 . S
O331 C341 1.268 . S
O332 Co320 2.115 . S
O332 C342 1.281 . S
O333 Co320 2.315 . S
O333 C342 1.252 . S
O334 Co327 2.122 . S
O334 C343 1.272 . S
O335 Co321 2.113 . S
O335 C343 1.245 . S
C336 O344 1.259 . S
C336 O345 1.257 . S
C337 O346 1.268 . S
C337 O347 1.253 . S
C338 O348 1.281 . S
C338 O349 1.252 . S
C339 O350 1.272 . S
C339 O351 1.245 . S
C340 O328 1.259 1_545 S
C340 O329 1.257 1_545 S
C341 O330 1.253 . S
C341 O331 1.268 . S
C342 O332 1.281 . S
C342 O333 1.252 . S
C343 O334 1.272 . S
C343 O335 1.245 . S
O344 Co320 2.053 . S
O344 C336 1.259 . S
O345 Co322 2.047 . S
O345 C336 1.257 . S
O346 Co321 2.063 . S
O346 C337 1.268 . S
O347 Co320 2.094 . S
O347 C337 1.253 . S
O348 Co327 2.115 . S
O348 C338 1.281 . S
O349 Co327 2.315 . S
O349 C338 1.252 . S
O350 Co320 2.122 . S
O350 C339 1.272 . S
O351 Co322 2.113 . S
O351 C339 1.245 . S
Co352 H355 2.400 . S
Co352 O356 2.009 . S
Co352 O364 2.115 . S
Co352 O365 2.315 . S
Co352 O376 2.053 . S
Co352 O379 2.094 . S
Co352 O382 2.122 . S
Co353 O356 2.126 . S
Co353 H357 2.388 . S
Co353 O358 2.053 . S
Co353 O361 2.047 . S
Co353 O367 2.113 . S
Co353 O378 2.063 . S
Co354 H355 2.388 . S
Co354 O356 2.053 . S
Co354 O358 2.126 . S
Co354 O363 2.063 . S
Co354 O377 2.047 . S
Co354 O383 2.113 . S
H355 Co352 2.400 . S
H355 Co354 2.388 . S
H355 O356 0.760 . S
O356 Co352 2.009 . S
O356 Co353 2.126 . S
O356 Co354 2.053 . S
O356 H355 0.760 . S
H357 Co353 2.388 . S
H357 O358 0.760 . S
H357 Co359 2.400 . S
O358 Co353 2.053 . S
O358 Co354 2.126 . S
O358 H357 0.760 . S
O358 Co359 2.009 . S
Co359 H357 2.400 . S
Co359 O358 2.009 . S
Co359 O360 2.053 . S
Co359 O362 2.094 . S
Co359 O366 2.122 . S
Co359 O380 2.115 . S
Co359 O381 2.315 . S
O360 Co359 2.053 . S
O360 C372 1.259 . S
O361 Co353 2.047 . S
O361 C372 1.257 . S
O362 Co359 2.094 . S
O362 C373 1.253 . S
O363 Co354 2.063 . S
O363 C373 1.268 . S
O364 Co352 2.115 . S
O364 C374 1.281 . S
O365 Co352 2.315 . S
O365 C374 1.252 . S
O366 Co359 2.122 . S
O366 C375 1.272 . S
O367 Co353 2.113 . S
O367 C375 1.245 . S
C368 O376 1.259 . S
C368 O377 1.257 . S
C369 O378 1.268 . S
C369 O379 1.253 . S
C370 O380 1.281 . S
C370 O381 1.252 . S
C371 O382 1.272 . S
C371 O383 1.245 . S
C372 O360 1.259 . S
C372 O361 1.257 . S
C373 O362 1.253 . S
C373 O363 1.268 . S
C374 O364 1.281 . S
C374 O365 1.252 . S
C375 O366 1.272 . S
C375 O367 1.245 . S
O376 Co352 2.053 . S
O376 C368 1.259 . S
O377 Co354 2.047 . S
O377 C368 1.257 . S
O378 Co353 2.063 . S
O378 C369 1.268 . S
O379 Co352 2.094 . S
O379 C369 1.253 . S
O380 Co359 2.115 . S
O380 C370 1.281 . S
O381 Co359 2.315 . S
O381 C370 1.252 . S
O382 Co352 2.122 . S
O382 C371 1.272 . S
O383 Co354 2.113 . S
O383 C371 1.245 . S
Co384 H387 2.400 . S
Co384 O388 2.009 . S
Co384 O396 2.115 . S
Co384 O397 2.315 . S
Co384 O408 2.053 . S
Co384 O411 2.094 . S
Co384 O414 2.122 . S
Co385 O388 2.126 . S
Co385 H389 2.388 . S
Co385 O390 2.053 . S
Co385 O393 2.047 . S
Co385 O399 2.113 . S
Co385 O410 2.063 . S
Co386 H387 2.388 . S
Co386 O388 2.053 . S
Co386 O390 2.126 . S
Co386 O395 2.063 . S
Co386 O409 2.047 . S
Co386 O415 2.113 . S
H387 Co384 2.400 . S
H387 Co386 2.388 . S
H387 O388 0.760 . S
O388 Co384 2.009 . S
O388 Co385 2.126 . S
O388 Co386 2.053 . S
O388 H387 0.760 . S
H389 Co385 2.388 . S
H389 O390 0.760 . S
H389 Co391 2.400 . S
O390 Co385 2.053 . S
O390 Co386 2.126 . S
O390 H389 0.760 . S
O390 Co391 2.009 . S
Co391 H389 2.400 . S
Co391 O390 2.009 . S
Co391 O392 2.053 . S
Co391 O394 2.094 . S
Co391 O398 2.122 . S
Co391 O412 2.115 . S
Co391 O413 2.315 . S
O392 Co391 2.053 . S
O392 C404 1.259 . S
O393 Co385 2.047 . S
O393 C404 1.257 . S
O394 Co391 2.094 . S
O394 C405 1.253 . S
O395 Co386 2.063 . S
O395 C405 1.268 . S
O396 Co384 2.115 . S
O396 C406 1.281 . S
O397 Co384 2.315 . S
O397 C406 1.252 . S
O398 Co391 2.122 . S
O398 C407 1.272 . S
O399 Co385 2.113 . S
O399 C407 1.245 . S
C400 O408 1.259 . S
C400 O409 1.257 . S
C401 O410 1.268 . S
C401 O411 1.253 . S
C402 O412 1.281 . S
C402 O413 1.252 . S
C403 O414 1.272 . S
C403 O415 1.245 . S
C404 O392 1.259 . S
C404 O393 1.257 . S
C405 O394 1.253 . S
C405 O395 1.268 . S
C406 O396 1.281 . S
C406 O397 1.252 . S
C407 O398 1.272 . S
C407 O399 1.245 . S
O408 Co384 2.053 . S
O408 C400 1.259 . S
O409 Co386 2.047 . S
O409 C400 1.257 . S
O410 Co385 2.063 . S
O410 C401 1.268 . S
O411 Co384 2.094 . S
O411 C401 1.253 . S
O412 Co391 2.115 . S
O412 C402 1.281 . S
O413 Co391 2.315 . S
O413 C402 1.252 . S
O414 Co384 2.122 . S
O414 C403 1.272 . S
O415 Co386 2.113 . S
O415 C403 1.245 . S
Co416 H419 2.400 . S
Co416 O420 2.009 . S
Co416 O428 2.115 . S
Co416 O429 2.315 . S
Co416 O440 2.053 . S
Co416 O443 2.094 . S
Co416 O446 2.122 . S
Co417 O420 2.126 . S
Co417 H421 2.388 . S
Co417 O422 2.053 . S
Co417 O425 2.047 . S
Co417 O431 2.113 . S
Co417 O442 2.063 . S
Co418 H419 2.388 . S
Co418 O420 2.053 . S
Co418 O422 2.126 . S
Co418 O427 2.063 . S
Co418 O441 2.047 . S
Co418 O447 2.113 . S
H419 Co416 2.400 . S
H419 Co418 2.388 . S
H419 O420 0.760 . S
O420 Co416 2.009 . S
O420 Co417 2.126 . S
O420 Co418 2.053 . S
O420 H419 0.760 . S
H421 Co417 2.388 . S
H421 O422 0.760 . S
H421 Co423 2.400 . S
O422 Co417 2.053 . S
O422 Co418 2.126 . S
O422 H421 0.760 . S
O422 Co423 2.009 . S
Co423 H421 2.400 . S
Co423 O422 2.009 . S
Co423 O424 2.053 . S
Co423 O426 2.094 . S
Co423 O430 2.122 . S
Co423 O444 2.115 . S
Co423 O445 2.315 . S
O424 Co423 2.053 . S
O424 C436 1.259 . S
O425 Co417 2.047 . S
O425 C436 1.257 . S
O426 Co423 2.094 . S
O426 C437 1.253 . S
O427 Co418 2.063 . S
O427 C437 1.268 . S
O428 Co416 2.115 . S
O428 C438 1.281 . S
O429 Co416 2.315 . S
O429 C438 1.252 . S
O430 Co423 2.122 . S
O430 C439 1.272 . S
O431 Co417 2.113 . S
O431 C439 1.245 . S
C432 O440 1.259 1_556 S
C432 O441 1.257 1_556 S
C433 O442 1.268 . S
C433 O443 1.253 . S
C434 O444 1.281 . S
C434 O445 1.252 . S
C435 O446 1.272 . S
C435 O447 1.245 . S
C436 O424 1.259 . S
C436 O425 1.257 . S
C437 O426 1.253 . S
C437 O427 1.268 . S
C438 O428 1.281 . S
C438 O429 1.252 . S
C439 O430 1.272 . S
C439 O431 1.245 . S
O440 Co416 2.053 . S
O440 C432 1.259 1_554 S
O441 Co418 2.047 . S
O441 C432 1.257 1_554 S
O442 Co417 2.063 . S
O442 C433 1.268 . S
O443 Co416 2.094 . S
O443 C433 1.253 . S
O444 Co423 2.115 . S
O444 C434 1.281 . S
O445 Co423 2.315 . S
O445 C434 1.252 . S
O446 Co416 2.122 . S
O446 C435 1.272 . S
O447 Co418 2.113 . S
O447 C435 1.245 . S
Co448 H451 2.400 . S
Co448 O452 2.009 . S
Co448 O460 2.115 . S
Co448 O461 2.315 . S
Co448 O472 2.053 . S
Co448 O475 2.094 . S
Co448 O478 2.122 . S
Co449 O452 2.126 . S
Co449 H453 2.388 . S
Co449 O454 2.053 . S
Co449 O457 2.047 . S
Co449 O463 2.113 . S
Co449 O474 2.063 . S
Co450 H451 2.388 . S
Co450 O452 2.053 . S
Co450 O454 2.126 . S
Co450 O459 2.063 . S
Co450 O473 2.047 . S
Co450 O479 2.113 . S
H451 Co448 2.400 . S
H451 Co450 2.388 . S
H451 O452 0.760 . S
O452 Co448 2.009 . S
O452 Co449 2.126 . S
O452 Co450 2.053 . S
O452 H451 0.760 . S
H453 Co449 2.388 . S
H453 O454 0.760 . S
H453 Co455 2.400 . S
O454 Co449 2.053 . S
O454 Co450 2.126 . S
O454 H453 0.760 . S
O454 Co455 2.009 . S
Co455 H453 2.400 . S
Co455 O454 2.009 . S
Co455 O456 2.053 . S
Co455 O458 2.094 . S
Co455 O462 2.122 . S
Co455 O476 2.115 . S
Co455 O477 2.315 . S
O456 Co455 2.053 . S
O456 C468 1.259 . S
O457 Co449 2.047 . S
O457 C468 1.257 . S
O458 Co455 2.094 . S
O458 C469 1.253 . S
O459 Co450 2.063 . S
O459 C469 1.268 . S
O460 Co448 2.115 . S
O460 C470 1.281 . S
O461 Co448 2.315 . S
O461 C470 1.252 . S
O462 Co455 2.122 . S
O462 C471 1.272 . S
O463 Co449 2.113 . S
O463 C471 1.245 . S
C464 O472 1.259 . S
C464 O473 1.257 . S
C465 O474 1.268 . S
C465 O475 1.253 . S
C466 O476 1.281 . S
C466 O477 1.252 . S
C467 O478 1.272 . S
C467 O479 1.245 . S
C468 O456 1.259 . S
C468 O457 1.257 . S
C469 O458 1.253 . S
C469 O459 1.268 . S
C470 O460 1.281 . S
C470 O461 1.252 . S
C471 O462 1.272 . S
C471 O463 1.245 . S
O472 Co448 2.053 . S
O472 C464 1.259 . S
O473 Co450 2.047 . S
O473 C464 1.257 . S
O474 Co449 2.063 . S
O474 C465 1.268 . S
O475 Co448 2.094 . S
O475 C465 1.253 . S
O476 Co455 2.115 . S
O476 C466 1.281 . S
O477 Co455 2.315 . S
O477 C466 1.252 . S
O478 Co448 2.122 . S
O478 C467 1.272 . S
O479 Co450 2.113 . S
O479 C467 1.245 . S
Co480 H483 2.400 . S
Co480 O484 2.009 . S
Co480 O492 2.115 . S
Co480 O493 2.315 . S
Co480 O504 2.053 . S
Co480 O507 2.094 . S
Co480 O510 2.122 . S
Co481 O484 2.126 . S
Co481 H485 2.388 . S
Co481 O486 2.053 . S
Co481 O489 2.047 . S
Co481 O495 2.113 . S
Co481 O506 2.063 . S
Co482 H483 2.388 . S
Co482 O484 2.053 . S
Co482 O486 2.126 . S
Co482 O491 2.063 . S
Co482 O505 2.047 . S
Co482 O511 2.113 . S
H483 Co480 2.400 . S
H483 Co482 2.388 . S
H483 O484 0.760 . S
O484 Co480 2.009 . S
O484 Co481 2.126 . S
O484 Co482 2.053 . S
O484 H483 0.760 . S
H485 Co481 2.388 . S
H485 O486 0.760 . S
H485 Co487 2.400 . S
O486 Co481 2.053 . S
O486 Co482 2.126 . S
O486 H485 0.760 . S
O486 Co487 2.009 . S
Co487 H485 2.400 . S
Co487 O486 2.009 . S
Co487 O488 2.053 . S
Co487 O490 2.094 . S
Co487 O494 2.122 . S
Co487 O508 2.115 . S
Co487 O509 2.315 . S
O488 Co487 2.053 . S
O488 C500 1.259 . S
O489 Co481 2.047 . S
O489 C500 1.257 . S
O490 Co487 2.094 . S
O490 C501 1.253 . S
O491 Co482 2.063 . S
O491 C501 1.268 . S
O492 Co480 2.115 . S
O492 C502 1.281 . S
O493 Co480 2.315 . S
O493 C502 1.252 . S
O494 Co487 2.122 . S
O494 C503 1.272 . S
O495 Co481 2.113 . S
O495 C503 1.245 . S
C496 O504 1.259 1_554 S
C496 O505 1.257 1_554 S
C497 O506 1.268 . S
C497 O507 1.253 . S
C498 O508 1.281 . S
C498 O509 1.252 . S
C499 O510 1.272 . S
C499 O511 1.245 . S
C500 O488 1.259 . S
C500 O489 1.257 . S
C501 O490 1.253 . S
C501 O491 1.268 . S
C502 O492 1.281 . S
C502 O493 1.252 . S
C503 O494 1.272 . S
C503 O495 1.245 . S
O504 Co480 2.053 . S
O504 C496 1.259 1_556 S
O505 Co482 2.047 . S
O505 C496 1.257 1_556 S
O506 Co481 2.063 . S
O506 C497 1.268 . S
O507 Co480 2.094 . S
O507 C497 1.253 . S
O508 Co487 2.115 . S
O508 C498 1.281 . S
O509 Co487 2.315 . S
O509 C498 1.252 . S
O510 Co480 2.122 . S
O510 C499 1.272 . S
O511 Co482 2.113 . S
O511 C499 1.245 . S
Co512 H515 2.400 . S
Co512 O516 2.009 . S
Co512 O524 2.115 . S
Co512 O525 2.315 . S
Co512 O536 2.053 . S
Co512 O539 2.094 . S
Co512 O542 2.122 . S
Co513 O516 2.126 . S
Co513 H517 2.388 . S
Co513 O518 2.053 . S
Co513 O521 2.047 . S
Co513 O527 2.113 . S
Co513 O538 2.063 . S
Co514 H515 2.388 . S
Co514 O516 2.053 . S
Co514 O518 2.126 . S
Co514 O523 2.063 . S
Co514 O537 2.047 . S
Co514 O543 2.113 . S
H515 Co512 2.400 . S
H515 Co514 2.388 . S
H515 O516 0.760 . S
O516 Co512 2.009 . S
O516 Co513 2.126 . S
O516 Co514 2.053 . S
O516 H515 0.760 . S
H517 Co513 2.388 . S
H517 O518 0.760 . S
H517 Co519 2.400 . S
O518 Co513 2.053 . S
O518 Co514 2.126 . S
O518 H517 0.760 . S
O518 Co519 2.009 . S
Co519 H517 2.400 . S
Co519 O518 2.009 . S
Co519 O520 2.053 . S
Co519 O522 2.094 . S
Co519 O526 2.122 . S
Co519 O540 2.115 . S
Co519 O541 2.315 . S
O520 Co519 2.053 . S
O520 C532 1.259 . S
O521 Co513 2.047 . S
O521 C532 1.257 . S
O522 Co519 2.094 . S
O522 C533 1.253 . S
O523 Co514 2.063 . S
O523 C533 1.268 . S
O524 Co512 2.115 . S
O524 C534 1.281 . S
O525 Co512 2.315 . S
O525 C534 1.252 . S
O526 Co519 2.122 . S
O526 C535 1.272 . S
O527 Co513 2.113 . S
O527 C535 1.245 . S
C528 O536 1.259 . S
C528 O537 1.257 . S
C529 O538 1.268 . S
C529 O539 1.253 . S
C530 O540 1.281 . S
C530 O541 1.252 . S
C531 O542 1.272 . S
C531 O543 1.245 . S
C532 O520 1.259 . S
C532 O521 1.257 . S
C533 O522 1.253 . S
C533 O523 1.268 . S
C534 O524 1.281 . S
C534 O525 1.252 . S
C535 O526 1.272 . S
C535 O527 1.245 . S
O536 Co512 2.053 . S
O536 C528 1.259 . S
O537 Co514 2.047 . S
O537 C528 1.257 . S
O538 Co513 2.063 . S
O538 C529 1.268 . S
O539 Co512 2.094 . S
O539 C529 1.253 . S
O540 Co519 2.115 . S
O540 C530 1.281 . S
O541 Co519 2.315 . S
O541 C530 1.252 . S
O542 Co512 2.122 . S
O542 C531 1.272 . S
O543 Co514 2.113 . S
O543 C531 1.245 . S
Co544 H547 2.400 . S
Co544 O548 2.009 . S
Co544 O556 2.115 . S
Co544 O557 2.315 . S
Co544 O568 2.053 . S
Co544 O571 2.094 . S
Co544 O574 2.122 . S
Co545 O548 2.126 . S
Co545 H549 2.388 . S
Co545 O550 2.053 . S
Co545 O553 2.047 . S
Co545 O559 2.113 . S
Co545 O570 2.063 . S
Co546 H547 2.388 . S
Co546 O548 2.053 . S
Co546 O550 2.126 . S
Co546 O555 2.063 . S
Co546 O569 2.047 . S
Co546 O575 2.113 . S
H547 Co544 2.400 . S
H547 Co546 2.388 . S
H547 O548 0.760 . S
O548 Co544 2.009 . S
O548 Co545 2.126 . S
O548 Co546 2.053 . S
O548 H547 0.760 . S
H549 Co545 2.388 . S
H549 O550 0.760 . S
H549 Co551 2.400 . S
O550 Co545 2.053 . S
O550 Co546 2.126 . S
O550 H549 0.760 . S
O550 Co551 2.009 . S
Co551 H549 2.400 . S
Co551 O550 2.009 . S
Co551 O552 2.053 . S
Co551 O554 2.094 . S
Co551 O558 2.122 . S
Co551 O572 2.115 . S
Co551 O573 2.315 . S
O552 Co551 2.053 . S
O552 C564 1.259 . S
O553 Co545 2.047 . S
O553 C564 1.257 . S
O554 Co551 2.094 . S
O554 C565 1.253 . S
O555 Co546 2.063 . S
O555 C565 1.268 . S
O556 Co544 2.115 . S
O556 C566 1.281 . S
O557 Co544 2.315 . S
O557 C566 1.252 . S
O558 Co551 2.122 . S
O558 C567 1.272 . S
O559 Co545 2.113 . S
O559 C567 1.245 . S
C560 O568 1.259 1_455 S
C560 O569 1.257 1_455 S
C561 O570 1.268 . S
C561 O571 1.253 . S
C562 O572 1.281 . S
C562 O573 1.252 . S
C563 O574 1.272 . S
C563 O575 1.245 . S
C564 O552 1.259 . S
C564 O553 1.257 . S
C565 O554 1.253 . S
C565 O555 1.268 . S
C566 O556 1.281 . S
C566 O557 1.252 . S
C567 O558 1.272 . S
C567 O559 1.245 . S
O568 Co544 2.053 . S
O568 C560 1.259 1_655 S
O569 Co546 2.047 . S
O569 C560 1.257 1_655 S
O570 Co545 2.063 . S
O570 C561 1.268 . S
O571 Co544 2.094 . S
O571 C561 1.253 . S
O572 Co551 2.115 . S
O572 C562 1.281 . S
O573 Co551 2.315 . S
O573 C562 1.252 . S
O574 Co544 2.122 . S
O574 C563 1.272 . S
O575 Co546 2.113 . S
O575 C563 1.245 . S
Co576 H579 2.400 . S
Co576 O580 2.009 . S
Co576 O588 2.115 . S
Co576 O589 2.315 . S
Co576 O600 2.053 . S
Co576 O603 2.094 . S
Co576 O606 2.122 . S
Co577 O580 2.126 . S
Co577 H581 2.388 . S
Co577 O582 2.053 . S
Co577 O585 2.047 . S
Co577 O591 2.113 . S
Co577 O602 2.063 . S
Co578 H579 2.388 . S
Co578 O580 2.053 . S
Co578 O582 2.126 . S
Co578 O587 2.063 . S
Co578 O601 2.047 . S
Co578 O607 2.113 . S
H579 Co576 2.400 . S
H579 Co578 2.388 . S
H579 O580 0.760 . S
O580 Co576 2.009 . S
O580 Co577 2.126 . S
O580 Co578 2.053 . S
O580 H579 0.760 . S
H581 Co577 2.388 . S
H581 O582 0.760 . S
H581 Co583 2.400 . S
O582 Co577 2.053 . S
O582 Co578 2.126 . S
O582 H581 0.760 . S
O582 Co583 2.009 . S
Co583 H581 2.400 . S
Co583 O582 2.009 . S
Co583 O584 2.053 . S
Co583 O586 2.094 . S
Co583 O590 2.122 . S
Co583 O604 2.115 . S
Co583 O605 2.315 . S
O584 Co583 2.053 . S
O584 C596 1.259 . S
O585 Co577 2.047 . S
O585 C596 1.257 . S
O586 Co583 2.094 . S
O586 C597 1.253 . S
O587 Co578 2.063 . S
O587 C597 1.268 . S
O588 Co576 2.115 . S
O588 C598 1.281 . S
O589 Co576 2.315 . S
O589 C598 1.252 . S
O590 Co583 2.122 . S
O590 C599 1.272 . S
O591 Co577 2.113 . S
O591 C599 1.245 . S
C592 O600 1.259 1_655 S
C592 O601 1.257 1_655 S
C593 O602 1.268 . S
C593 O603 1.253 . S
C594 O604 1.281 . S
C594 O605 1.252 . S
C595 O606 1.272 . S
C595 O607 1.245 . S
C596 O584 1.259 . S
C596 O585 1.257 . S
C597 O586 1.253 . S
C597 O587 1.268 . S
C598 O588 1.281 . S
C598 O589 1.252 . S
C599 O590 1.272 . S
C599 O591 1.245 . S
O600 Co576 2.053 . S
O600 C592 1.259 1_455 S
O601 Co578 2.047 . S
O601 C592 1.257 1_455 S
O602 Co577 2.063 . S
O602 C593 1.268 . S
O603 Co576 2.094 . S
O603 C593 1.253 . S
O604 Co583 2.115 . S
O604 C594 1.281 . S
O605 Co583 2.315 . S
O605 C594 1.252 . S
O606 Co576 2.122 . S
O606 C595 1.272 . S
O607 Co578 2.113 . S
O607 C595 1.245 . S
Co608 H611 2.400 . S
Co608 O612 2.009 . S
Co608 O620 2.115 . S
Co608 O621 2.315 . S
Co608 O632 2.053 . S
Co608 O635 2.094 . S
Co608 O638 2.122 . S
Co609 O612 2.126 . S
Co609 H613 2.388 . S
Co609 O614 2.053 . S
Co609 O617 2.047 . S
Co609 O623 2.113 . S
Co609 O634 2.063 . S
Co610 H611 2.388 . S
Co610 O612 2.053 . S
Co610 O614 2.126 . S
Co610 O619 2.063 . S
Co610 O633 2.047 . S
Co610 O639 2.113 . S
H611 Co608 2.400 . S
H611 Co610 2.388 . S
H611 O612 0.760 . S
O612 Co608 2.009 . S
O612 Co609 2.126 . S
O612 Co610 2.053 . S
O612 H611 0.760 . S
H613 Co609 2.388 . S
H613 O614 0.760 . S
H613 Co615 2.400 . S
O614 Co609 2.053 . S
O614 Co610 2.126 . S
O614 H613 0.760 . S
O614 Co615 2.009 . S
Co615 H613 2.400 . S
Co615 O614 2.009 . S
Co615 O616 2.053 . S
Co615 O618 2.094 . S
Co615 O622 2.122 . S
Co615 O636 2.115 . S
Co615 O637 2.315 . S
O616 Co615 2.053 . S
O616 C628 1.259 . S
O617 Co609 2.047 . S
O617 C628 1.257 . S
O618 Co615 2.094 . S
O618 C629 1.253 . S
O619 Co610 2.063 . S
O619 C629 1.268 . S
O620 Co608 2.115 . S
O620 C630 1.281 . S
O621 Co608 2.315 . S
O621 C630 1.252 . S
O622 Co615 2.122 . S
O622 C631 1.272 . S
O623 Co609 2.113 . S
O623 C631 1.245 . S
C624 O632 1.259 . S
C624 O633 1.257 . S
C625 O634 1.268 . S
C625 O635 1.253 . S
C626 O636 1.281 . S
C626 O637 1.252 . S
C627 O638 1.272 . S
C627 O639 1.245 . S
C628 O616 1.259 . S
C628 O617 1.257 . S
C629 O618 1.253 . S
C629 O619 1.268 . S
C630 O620 1.281 . S
C630 O621 1.252 . S
C631 O622 1.272 . S
C631 O623 1.245 . S
O632 Co608 2.053 . S
O632 C624 1.259 . S
O633 Co610 2.047 . S
O633 C624 1.257 . S
O634 Co609 2.063 . S
O634 C625 1.268 . S
O635 Co608 2.094 . S
O635 C625 1.253 . S
O636 Co615 2.115 . S
O636 C626 1.281 . S
O637 Co615 2.315 . S
O637 C626 1.252 . S
O638 Co608 2.122 . S
O638 C627 1.272 . S
O639 Co610 2.113 . S
O639 C627 1.245 . S
Co640 H643 2.400 . S
Co640 O644 2.009 . S
Co640 O652 2.115 . S
Co640 O653 2.315 . S
Co640 O664 2.053 . S
Co640 O667 2.094 . S
Co640 O670 2.122 . S
Co641 O644 2.126 . S
Co641 H645 2.388 . S
Co641 O646 2.053 . S
Co641 O649 2.047 . S
Co641 O655 2.113 . S
Co641 O666 2.063 . S
Co642 H643 2.388 . S
Co642 O644 2.053 . S
Co642 O646 2.126 . S
Co642 O651 2.063 . S
Co642 O665 2.047 . S
Co642 O671 2.113 . S
H643 Co640 2.400 . S
H643 Co642 2.388 . S
H643 O644 0.760 . S
O644 Co640 2.009 . S
O644 Co641 2.126 . S
O644 Co642 2.053 . S
O644 H643 0.760 . S
H645 Co641 2.388 . S
H645 O646 0.760 . S
H645 Co647 2.400 . S
O646 Co641 2.053 . S
O646 Co642 2.126 . S
O646 H645 0.760 . S
O646 Co647 2.009 . S
Co647 H645 2.400 . S
Co647 O646 2.009 . S
Co647 O648 2.053 . S
Co647 O650 2.094 . S
Co647 O654 2.122 . S
Co647 O668 2.115 . S
Co647 O669 2.315 . S
O648 Co647 2.053 . S
O648 C660 1.259 . S
O649 Co641 2.047 . S
O649 C660 1.257 . S
O650 Co647 2.094 . S
O650 C661 1.253 . S
O651 Co642 2.063 . S
O651 C661 1.268 . S
O652 Co640 2.115 . S
O652 C662 1.281 . S
O653 Co640 2.315 . S
O653 C662 1.252 . S
O654 Co647 2.122 . S
O654 C663 1.272 . S
O655 Co641 2.113 . S
O655 C663 1.245 . S
C656 O664 1.259 . S
C656 O665 1.257 . S
C657 O666 1.268 . S
C657 O667 1.253 . S
C658 O668 1.281 . S
C658 O669 1.252 . S
C659 O670 1.272 . S
C659 O671 1.245 . S
C660 O648 1.259 . S
C660 O649 1.257 . S
C661 O650 1.253 . S
C661 O651 1.268 . S
C662 O652 1.281 . S
C662 O653 1.252 . S
C663 O654 1.272 . S
C663 O655 1.245 . S
O664 Co640 2.053 . S
O664 C656 1.259 . S
O665 Co642 2.047 . S
O665 C656 1.257 . S
O666 Co641 2.063 . S
O666 C657 1.268 . S
O667 Co640 2.094 . S
O667 C657 1.253 . S
O668 Co647 2.115 . S
O668 C658 1.281 . S
O669 Co647 2.315 . S
O669 C658 1.252 . S
O670 Co640 2.122 . S
O670 C659 1.272 . S
O671 Co642 2.113 . S
O671 C659 1.245 . S
Co672 H675 2.400 . S
Co672 O676 2.009 . S
Co672 O684 2.115 . S
Co672 O685 2.315 . S
Co672 O696 2.053 . S
Co672 O699 2.094 . S
Co672 O702 2.122 . S
Co673 O676 2.126 . S
Co673 H677 2.388 . S
Co673 O678 2.053 . S
Co673 O681 2.047 . S
Co673 O687 2.113 . S
Co673 O698 2.063 . S
Co674 H675 2.388 . S
Co674 O676 2.053 . S
Co674 O678 2.126 . S
Co674 O683 2.063 . S
Co674 O697 2.047 . S
Co674 O703 2.113 . S
H675 Co672 2.400 . S
H675 Co674 2.388 . S
H675 O676 0.760 . S
O676 Co672 2.009 . S
O676 Co673 2.126 . S
O676 Co674 2.053 . S
O676 H675 0.760 . S
H677 Co673 2.388 . S
H677 O678 0.760 . S
H677 Co679 2.400 . S
O678 Co673 2.053 . S
O678 Co674 2.126 . S
O678 H677 0.760 . S
O678 Co679 2.009 . S
Co679 H677 2.400 . S
Co679 O678 2.009 . S
Co679 O680 2.053 . S
Co679 O682 2.094 . S
Co679 O686 2.122 . S
Co679 O700 2.115 . S
Co679 O701 2.315 . S
O680 Co679 2.053 . S
O680 C692 1.259 . S
O681 Co673 2.047 . S
O681 C692 1.257 . S
O682 Co679 2.094 . S
O682 C693 1.253 . S
O683 Co674 2.063 . S
O683 C693 1.268 . S
O684 Co672 2.115 . S
O684 C694 1.281 . S
O685 Co672 2.315 . S
O685 C694 1.252 . S
O686 Co679 2.122 . S
O686 C695 1.272 . S
O687 Co673 2.113 . S
O687 C695 1.245 . S
C688 O696 1.259 1_545 S
C688 O697 1.257 1_545 S
C689 O698 1.268 . S
C689 O699 1.253 . S
C690 O700 1.281 . S
C690 O701 1.252 . S
C691 O702 1.272 . S
C691 O703 1.245 . S
C692 O680 1.259 . S
C692 O681 1.257 . S
C693 O682 1.253 . S
C693 O683 1.268 . S
C694 O684 1.281 . S
C694 O685 1.252 . S
C695 O686 1.272 . S
C695 O687 1.245 . S
O696 Co672 2.053 . S
O696 C688 1.259 1_565 S
O697 Co674 2.047 . S
O697 C688 1.257 1_565 S
O698 Co673 2.063 . S
O698 C689 1.268 . S
O699 Co672 2.094 . S
O699 C689 1.253 . S
O700 Co679 2.115 . S
O700 C690 1.281 . S
O701 Co679 2.315 . S
O701 C690 1.252 . S
O702 Co672 2.122 . S
O702 C691 1.272 . S
O703 Co674 2.113 . S
O703 C691 1.245 . S
Co704 H707 2.400 . S
Co704 O708 2.009 . S
Co704 O716 2.115 . S
Co704 O717 2.315 . S
Co704 O728 2.053 . S
Co704 O731 2.094 . S
Co704 O734 2.122 . S
Co705 O708 2.126 . S
Co705 H709 2.388 . S
Co705 O710 2.053 . S
Co705 O713 2.047 . S
Co705 O719 2.113 . S
Co705 O730 2.063 . S
Co706 H707 2.388 . S
Co706 O708 2.053 . S
Co706 O710 2.126 . S
Co706 O715 2.063 . S
Co706 O729 2.047 . S
Co706 O735 2.113 . S
H707 Co704 2.400 . S
H707 Co706 2.388 . S
H707 O708 0.760 . S
O708 Co704 2.009 . S
O708 Co705 2.126 . S
O708 Co706 2.053 . S
O708 H707 0.760 . S
H709 Co705 2.388 . S
H709 O710 0.760 . S
H709 Co711 2.400 . S
O710 Co705 2.053 . S
O710 Co706 2.126 . S
O710 H709 0.760 . S
O710 Co711 2.009 . S
Co711 H709 2.400 . S
Co711 O710 2.009 . S
Co711 O712 2.053 . S
Co711 O714 2.094 . S
Co711 O718 2.122 . S
Co711 O732 2.115 . S
Co711 O733 2.315 . S
O712 Co711 2.053 . S
O712 C724 1.259 . S
O713 Co705 2.047 . S
O713 C724 1.257 . S
O714 Co711 2.094 . S
O714 C725 1.253 . S
O715 Co706 2.063 . S
O715 C725 1.268 . S
O716 Co704 2.115 . S
O716 C726 1.281 . S
O717 Co704 2.315 . S
O717 C726 1.252 . S
O718 Co711 2.122 . S
O718 C727 1.272 . S
O719 Co705 2.113 . S
O719 C727 1.245 . S
C720 O728 1.259 1_565 S
C720 O729 1.257 1_565 S
C721 O730 1.268 . S
C721 O731 1.253 . S
C722 O732 1.281 . S
C722 O733 1.252 . S
C723 O734 1.272 . S
C723 O735 1.245 . S
C724 O712 1.259 . S
C724 O713 1.257 . S
C725 O714 1.253 . S
C725 O715 1.268 . S
C726 O716 1.281 . S
C726 O717 1.252 . S
C727 O718 1.272 . S
C727 O719 1.245 . S
O728 Co704 2.053 . S
O728 C720 1.259 1_545 S
O729 Co706 2.047 . S
O729 C720 1.257 1_545 S
O730 Co705 2.063 . S
O730 C721 1.268 . S
O731 Co704 2.094 . S
O731 C721 1.253 . S
O732 Co711 2.115 . S
O732 C722 1.281 . S
O733 Co711 2.315 . S
O733 C722 1.252 . S
O734 Co704 2.122 . S
O734 C723 1.272 . S
O735 Co706 2.113 . S
O735 C723 1.245 . S
Co736 H739 2.400 . S
Co736 O740 2.009 . S
Co736 O748 2.115 . S
Co736 O749 2.315 . S
Co736 O760 2.053 . S
Co736 O763 2.094 . S
Co736 O766 2.122 . S
Co737 O740 2.126 . S
Co737 H741 2.388 . S
Co737 O742 2.053 . S
Co737 O745 2.047 . S
Co737 O751 2.113 . S
Co737 O762 2.063 . S
Co738 H739 2.388 . S
Co738 O740 2.053 . S
Co738 O742 2.126 . S
Co738 O747 2.063 . S
Co738 O761 2.047 . S
Co738 O767 2.113 . S
H739 Co736 2.400 . S
H739 Co738 2.388 . S
H739 O740 0.760 . S
O740 Co736 2.009 . S
O740 Co737 2.126 . S
O740 Co738 2.053 . S
O740 H739 0.760 . S
H741 Co737 2.388 . S
H741 O742 0.760 . S
H741 Co743 2.400 . S
O742 Co737 2.053 . S
O742 Co738 2.126 . S
O742 H741 0.760 . S
O742 Co743 2.009 . S
Co743 H741 2.400 . S
Co743 O742 2.009 . S
Co743 O744 2.053 . S
Co743 O746 2.094 . S
Co743 O750 2.122 . S
Co743 O764 2.115 . S
Co743 O765 2.315 . S
O744 Co743 2.053 . S
O744 C756 1.259 . S
O745 Co737 2.047 . S
O745 C756 1.257 . S
O746 Co743 2.094 . S
O746 C757 1.253 . S
O747 Co738 2.063 . S
O747 C757 1.268 . S
O748 Co736 2.115 . S
O748 C758 1.281 . S
O749 Co736 2.315 . S
O749 C758 1.252 . S
O750 Co743 2.122 . S
O750 C759 1.272 . S
O751 Co737 2.113 . S
O751 C759 1.245 . S
C752 O760 1.259 . S
C752 O761 1.257 . S
C753 O762 1.268 . S
C753 O763 1.253 . S
C754 O764 1.281 . S
C754 O765 1.252 . S
C755 O766 1.272 . S
C755 O767 1.245 . S
C756 O744 1.259 . S
C756 O745 1.257 . S
C757 O746 1.253 . S
C757 O747 1.268 . S
C758 O748 1.281 . S
C758 O749 1.252 . S
C759 O750 1.272 . S
C759 O751 1.245 . S
O760 Co736 2.053 . S
O760 C752 1.259 . S
O761 Co738 2.047 . S
O761 C752 1.257 . S
O762 Co737 2.063 . S
O762 C753 1.268 . S
O763 Co736 2.094 . S
O763 C753 1.253 . S
O764 Co743 2.115 . S
O764 C754 1.281 . S
O765 Co743 2.315 . S
O765 C754 1.252 . S
O766 Co736 2.122 . S
O766 C755 1.272 . S
O767 Co738 2.113 . S
O767 C755 1.245 . S
H768 C774 0.930 . S
H769 C778 0.930 . S
H770 C783 0.929 . S
H771 C781 0.929 . S
H772 C776 0.929 . S
H773 C782 0.929 . S
C774 H768 0.930 . S
C774 C775 1.367 . S
C774 C782 1.378 . S
C775 C774 1.367 . S
C775 C783 1.433 . S
C776 H772 0.929 . S
C776 C778 1.378 . S
C776 C780 1.350 . S
C777 C780 1.463 . S
C777 C782 1.350 . S
C777 N785 1.427 . S
C778 H769 0.930 . S
C778 C776 1.378 . S
C778 C779 1.367 . S
C779 C778 1.367 . S
C779 C781 1.433 . S
C780 C776 1.350 . S
C780 C777 1.463 . S
C780 N784 1.427 . S
C781 H771 0.929 . S
C781 C779 1.433 . S
C781 N784 1.384 . S
C782 H773 0.929 . S
C782 C774 1.378 . S
C782 C777 1.350 . S
C783 H770 0.929 . S
C783 C775 1.433 . S
C783 N785 1.384 . S
N784 C780 1.427 . S
N784 C781 1.384 . S
N785 C777 1.427 . S
N785 C783 1.384 . S
H786 C792 0.930 . S
H787 C796 0.930 . S
H788 C801 0.929 . S
H789 C799 0.929 . S
H790 C794 0.929 . S
H791 C800 0.929 . S
C792 H786 0.930 . S
C792 C793 1.367 . S
C792 C800 1.378 . S
C793 C792 1.367 . S
C793 C801 1.433 . S
C794 H790 0.929 . S
C794 C796 1.378 . S
C794 C798 1.350 . S
C795 C798 1.463 . S
C795 C800 1.350 . S
C795 N803 1.427 . S
C796 H787 0.930 . S
C796 C794 1.378 . S
C796 C797 1.367 . S
C797 C796 1.367 . S
C797 C799 1.433 . S
C798 C794 1.350 . S
C798 C795 1.463 . S
C798 N802 1.427 . S
C799 H789 0.929 . S
C799 C797 1.433 . S
C799 N802 1.384 . S
C800 H791 0.929 . S
C800 C792 1.378 . S
C800 C795 1.350 . S
C801 H788 0.929 . S
C801 C793 1.433 . S
C801 N803 1.384 . S
N802 C798 1.427 . S
N802 C799 1.384 . S
N803 C795 1.427 . S
N803 C801 1.384 . S
H804 C810 0.930 . S
H805 C814 0.930 . S
H806 C819 0.929 . S
H807 C817 0.929 . S
H808 C812 0.929 . S
H809 C818 0.929 . S
C810 H804 0.930 . S
C810 C811 1.367 . S
C810 C818 1.378 1_565 S
C811 C810 1.367 . S
C811 C819 1.433 . S
C812 H808 0.929 . S
C812 C814 1.378 . S
C812 C816 1.350 . S
C813 C816 1.463 . S
C813 C818 1.350 . S
C813 N821 1.427 . S
C814 H805 0.930 . S
C814 C812 1.378 . S
C814 C815 1.367 . S
C815 C814 1.367 . S
C815 C817 1.433 . S
C816 C812 1.350 . S
C816 C813 1.463 . S
C816 N820 1.427 . S
C817 H807 0.929 . S
C817 C815 1.433 . S
C817 N820 1.384 . S
C818 H809 0.929 . S
C818 C810 1.378 1_545 S
C818 C813 1.350 . S
C819 H806 0.929 . S
C819 C811 1.433 . S
C819 N821 1.384 1_565 S
N820 C816 1.427 . S
N820 C817 1.384 . S
N821 C813 1.427 . S
N821 C819 1.384 1_545 S
H822 C828 0.930 . S
H823 C832 0.930 1_545 S
H824 C837 0.929 . S
H825 C835 0.929 . S
H826 C830 0.929 . S
H827 C836 0.929 . S
C828 H822 0.930 . S
C828 C829 1.367 . S
C828 C836 1.378 . S
C829 C828 1.367 . S
C829 C837 1.433 . S
C830 H826 0.929 . S
C830 C832 1.378 . S
C830 C834 1.350 . S
C831 C834 1.463 . S
C831 C836 1.350 . S
C831 N839 1.427 . S
C832 H823 0.930 1_565 S
C832 C830 1.378 . S
C832 C833 1.367 1_565 S
C833 C832 1.367 1_545 S
C833 C835 1.433 . S
C834 C830 1.350 . S
C834 C831 1.463 . S
C834 N838 1.427 . S
C835 H825 0.929 . S
C835 C833 1.433 . S
C835 N838 1.384 1_545 S
C836 H827 0.929 . S
C836 C828 1.378 . S
C836 C831 1.350 . S
C837 H824 0.929 . S
C837 C829 1.433 . S
C837 N839 1.384 . S
N838 C834 1.427 . S
N838 C835 1.384 1_565 S
N839 C831 1.427 . S
N839 C837 1.384 . S
H840 C846 0.930 . S
H841 C850 0.930 . S
H842 C855 0.929 . S
H843 C853 0.929 . S
H844 C848 0.929 . S
H845 C854 0.929 . S
C846 H840 0.930 . S
C846 C847 1.367 . S
C846 C854 1.378 . S
C847 C846 1.367 . S
C847 C855 1.433 . S
C848 H844 0.929 . S
C848 C850 1.378 . S
C848 C852 1.350 . S
C849 C852 1.463 . S
C849 C854 1.350 . S
C849 N857 1.427 . S
C850 H841 0.930 . S
C850 C848 1.378 . S
C850 C851 1.367 . S
C851 C850 1.367 . S
C851 C853 1.433 . S
C852 C848 1.350 . S
C852 C849 1.463 . S
C852 N856 1.427 . S
C853 H843 0.929 . S
C853 C851 1.433 . S
C853 N856 1.384 . S
C854 H845 0.929 . S
C854 C846 1.378 . S
C854 C849 1.350 . S
C855 H842 0.929 . S
C855 C847 1.433 . S
C855 N857 1.384 . S
N856 C852 1.427 . S
N856 C853 1.384 . S
N857 C849 1.427 . S
N857 C855 1.384 . S
H858 C864 0.930 . S
H859 C868 0.930 . S
H860 C873 0.942 . S
H861 C871 0.929 . S
H862 C866 0.929 . S
H863 C872 0.929 . S
C864 H858 0.930 . S
C864 C865 1.367 . S
C864 C872 1.378 1_554 S
C865 C864 1.367 . S
C865 C873 1.452 . S
C866 H862 0.929 . S
C866 C868 1.378 . S
C866 C870 1.350 . S
C867 C870 1.463 . S
C867 C872 1.350 . S
C867 N875 1.427 . S
C868 H859 0.930 . S
C868 C866 1.378 . S
C868 C869 1.367 . S
C869 C868 1.367 . S
C869 C871 1.433 . S
C870 C866 1.350 . S
C870 C867 1.463 . S
C870 N874 1.427 . S
C871 H861 0.929 . S
C871 C869 1.433 . S
C871 N874 1.384 . S
C872 H863 0.929 . S
C872 C864 1.378 1_556 S
C872 C867 1.350 . S
C873 H860 0.942 . S
C873 C865 1.452 . S
C873 N875 1.351 1_554 S
N874 C870 1.427 . S
N874 C871 1.384 . S
N875 C867 1.427 . S
N875 C873 1.351 1_556 S
H876 C882 0.930 . S
H877 C886 0.930 . S
H878 C891 0.929 . S
H879 C889 0.929 . S
H880 C884 0.929 . S
H881 C890 0.929 . S
C882 H876 0.930 . S
C882 C883 1.367 . S
C882 C890 1.378 . S
C883 C882 1.367 . S
C883 C891 1.433 . S
C884 H880 0.929 . S
C884 C886 1.378 . S
C884 C888 1.350 . S
C885 C888 1.463 . S
C885 C890 1.350 . S
C885 N893 1.427 . S
C886 H877 0.930 . S
C886 C884 1.378 . S
C886 C887 1.367 . S
C887 C886 1.367 . S
C887 C889 1.433 . S
C888 C884 1.350 . S
C888 C885 1.463 . S
C888 N892 1.427 . S
C889 H879 0.929 . S
C889 C887 1.433 . S
C889 N892 1.384 . S
C890 H881 0.929 . S
C890 C882 1.378 . S
C890 C885 1.350 . S
C891 H878 0.929 . S
C891 C883 1.433 . S
C891 N893 1.384 . S
N892 C888 1.427 . S
N892 C889 1.384 . S
N893 C885 1.427 . S
N893 C891 1.384 . S
H894 C900 0.930 1_556 S
H895 C904 0.930 . S
H896 C909 0.929 . S
H897 C907 0.929 . S
H898 C902 0.929 . S
H899 C908 0.929 . S
C900 H894 0.930 1_554 S
C900 C901 1.367 1_554 S
C900 C908 1.378 . S
C901 C900 1.367 1_556 S
C901 C909 1.433 . S
C902 H898 0.929 . S
C902 C904 1.378 . S
C902 C906 1.350 . S
C903 C906 1.463 . S
C903 C908 1.350 . S
C903 N911 1.427 . S
C904 H895 0.930 . S
C904 C902 1.378 . S
C904 C905 1.367 . S
C905 C904 1.367 . S
C905 C907 1.433 . S
C906 C902 1.350 . S
C906 C903 1.463 . S
C906 N910 1.427 . S
C907 H897 0.929 . S
C907 C905 1.433 . S
C907 N910 1.384 . S
C908 H899 0.929 . S
C908 C900 1.378 . S
C908 C903 1.350 . S
C909 H896 0.929 . S
C909 C901 1.433 . S
C909 N911 1.384 1_556 S
N910 C906 1.427 . S
N910 C907 1.384 . S
N911 C903 1.427 . S
N911 C909 1.384 1_554 S
H912 C918 0.930 . S
H913 C922 0.930 . S
H914 C927 0.929 . S
H915 C925 0.929 . S
H916 C920 0.929 . S
H917 C926 0.929 . S
C918 H912 0.930 . S
C918 C919 1.367 . S
C918 C926 1.378 . S
C919 C918 1.367 . S
C919 C927 1.433 . S
C920 H916 0.929 . S
C920 C922 1.378 . S
C920 C924 1.350 . S
C921 C924 1.463 . S
C921 C926 1.350 . S
C921 N929 1.427 . S
C922 H913 0.930 . S
C922 C920 1.378 . S
C922 C923 1.367 . S
C923 C922 1.367 . S
C923 C925 1.433 . S
C924 C920 1.350 . S
C924 C921 1.463 . S
C924 N928 1.427 . S
C925 H915 0.929 . S
C925 C923 1.433 . S
C925 N928 1.384 . S
C926 H917 0.929 . S
C926 C918 1.378 . S
C926 C921 1.350 . S
C927 H914 0.929 . S
C927 C919 1.433 . S
C927 N929 1.384 . S
N928 C924 1.427 . S
N928 C925 1.384 . S
N929 C921 1.427 . S
N929 C927 1.384 . S
H930 C936 0.930 . S
H931 C940 0.930 . S
H932 C945 0.929 . S
H933 C943 0.929 . S
H934 C938 0.929 . S
H935 C944 0.929 . S
C936 H930 0.930 . S
C936 C937 1.367 . S
C936 C944 1.378 1_455 S
C937 C936 1.367 . S
C937 C945 1.433 . S
C938 H934 0.929 . S
C938 C940 1.378 . S
C938 C942 1.350 . S
C939 C942 1.463 . S
C939 C944 1.350 . S
C939 N947 1.427 . S
C940 H931 0.930 . S
C940 C938 1.378 . S
C940 C941 1.367 . S
C941 C940 1.367 . S
C941 C943 1.433 . S
C942 C938 1.350 . S
C942 C939 1.463 . S
C942 N946 1.427 . S
C943 H933 0.929 . S
C943 C941 1.433 . S
C943 N946 1.384 . S
C944 H935 0.929 . S
C944 C936 1.378 1_655 S
C944 C939 1.350 . S
C945 H932 0.929 . S
C945 C937 1.433 . S
C945 N947 1.384 1_455 S
N946 C942 1.427 . S
N946 C943 1.384 . S
N947 C939 1.427 . S
N947 C945 1.384 1_655 S
H948 C954 0.930 . S
H949 C958 0.930 . S
H950 C963 0.929 . S
H951 C961 0.929 . S
H952 C956 0.929 . S
H953 C962 0.929 . S
C954 H948 0.930 . S
C954 C955 1.367 . S
C954 C962 1.378 . S
C955 C954 1.367 . S
C955 C963 1.433 . S
C956 H952 0.929 . S
C956 C958 1.378 . S
C956 C960 1.350 . S
C957 C960 1.463 . S
C957 C962 1.350 . S
C957 N965 1.427 . S
C958 H949 0.930 . S
C958 C956 1.378 . S
C958 C959 1.367 . S
C959 C958 1.367 . S
C959 C961 1.433 . S
C960 C956 1.350 . S
C960 C957 1.463 . S
C960 N964 1.427 . S
C961 H951 0.929 . S
C961 C959 1.433 . S
C961 N964 1.384 . S
C962 H953 0.929 . S
C962 C954 1.378 . S
C962 C957 1.350 . S
C963 H950 0.929 . S
C963 C955 1.433 . S
C963 N965 1.384 . S
N964 C960 1.427 . S
N964 C961 1.384 . S
N965 C957 1.427 . S
N965 C963 1.384 . S
H966 C972 0.930 . S
H967 C976 0.930 . S
H968 C981 0.929 1_655 S
H969 C979 0.929 . S
H970 C974 0.929 . S
H971 C980 0.929 . S
C972 H966 0.930 . S
C972 C973 1.367 . S
C972 C980 1.378 1_655 S
C973 C972 1.367 . S
C973 C981 1.433 1_655 S
C974 H970 0.929 . S
C974 C976 1.378 . S
C974 C978 1.350 . S
C975 C978 1.463 . S
C975 C980 1.350 . S
C975 N983 1.427 . S
C976 H967 0.930 . S
C976 C974 1.378 . S
C976 C977 1.367 . S
C977 C976 1.367 . S
C977 C979 1.433 . S
C978 C974 1.350 . S
C978 C975 1.463 . S
C978 N982 1.427 . S
C979 H969 0.929 . S
C979 C977 1.433 . S
C979 N982 1.384 . S
C980 H971 0.929 . S
C980 C972 1.378 1_455 S
C980 C975 1.350 . S
C981 H968 0.929 1_455 S
C981 C973 1.433 1_455 S
C981 N983 1.384 . S
N982 C978 1.427 . S
N982 C979 1.384 . S
N983 C975 1.427 . S
N983 C981 1.384 . S
H984 C990 0.930 . S
H985 C994 0.930 . S
H986 C999 0.929 . S
H987 C997 0.929 . S
H988 C992 0.929 . S
H989 C998 0.929 . S
C990 H984 0.930 . S
C990 C991 1.367 . S
C990 C998 1.378 . S
C991 C990 1.367 . S
C991 C999 1.433 . S
C992 H988 0.929 . S
C992 C994 1.378 . S
C992 C996 1.350 . S
C993 C996 1.463 . S
C993 C998 1.350 . S
C993 N1001 1.427 . S
C994 H985 0.930 . S
C994 C992 1.378 . S
C994 C995 1.367 . S
C995 C994 1.367 . S
C995 C997 1.433 . S
C996 C992 1.350 . S
C996 C993 1.463 . S
C996 N1000 1.427 . S
C997 H987 0.929 . S
C997 C995 1.433 . S
C997 N1000 1.384 . S
C998 H989 0.929 . S
C998 C990 1.378 . S
C998 C993 1.350 . S
C999 H986 0.929 . S
C999 C991 1.433 . S
C999 N1001 1.384 . S
N1000 C996 1.427 . S
N1000 C997 1.384 . S
N1001 C993 1.427 . S
N1001 C999 1.384 . S
H1002 C1008 0.930 . S
H1003 C1012 0.930 . S
H1004 C1017 0.929 . S
H1005 C1015 0.929 . S
H1006 C1010 0.929 . S
H1007 C1016 0.929 . S
C1008 H1002 0.930 . S
C1008 C1009 1.367 . S
C1008 C1016 1.378 . S
C1009 C1008 1.367 . S
C1009 C1017 1.433 . S
C1010 H1006 0.929 . S
C1010 C1012 1.378 . S
C1010 C1014 1.350 . S
C1011 C1014 1.463 . S
C1011 C1016 1.350 . S
C1011 N1019 1.427 . S
C1012 H1003 0.930 . S
C1012 C1010 1.378 . S
C1012 C1013 1.367 . S
C1013 C1012 1.367 . S
C1013 C1015 1.433 . S
C1014 C1010 1.350 . S
C1014 C1011 1.463 . S
C1014 N1018 1.427 . S
C1015 H1005 0.929 . S
C1015 C1013 1.433 . S
C1015 N1018 1.384 . S
C1016 H1007 0.929 . S
C1016 C1008 1.378 . S
C1016 C1011 1.350 . S
C1017 H1004 0.929 . S
C1017 C1009 1.433 . S
C1017 N1019 1.384 . S
N1018 C1014 1.427 . S
N1018 C1015 1.384 . S
N1019 C1011 1.427 . S
N1019 C1017 1.384 . S
H1020 C1026 0.930 . S
H1021 C1030 0.930 . S
H1022 C1035 0.929 . S
H1023 C1033 0.929 . S
H1024 C1028 0.929 . S
H1025 C1034 0.929 . S
C1026 H1020 0.930 . S
C1026 C1027 1.367 . S
C1026 C1034 1.378 1_545 S
C1027 C1026 1.367 . S
C1027 C1035 1.433 . S
C1028 H1024 0.929 . S
C1028 C1030 1.378 . S
C1028 C1032 1.350 . S
C1029 C1032 1.463 . S
C1029 C1034 1.350 . S
C1029 N1037 1.427 . S
C1030 H1021 0.930 . S
C1030 C1028 1.378 . S
C1030 C1031 1.367 . S
C1031 C1030 1.367 . S
C1031 C1033 1.433 . S
C1032 C1028 1.350 . S
C1032 C1029 1.463 . S
C1032 N1036 1.427 . S
C1033 H1023 0.929 . S
C1033 C1031 1.433 . S
C1033 N1036 1.384 . S
C1034 H1025 0.929 . S
C1034 C1026 1.378 1_565 S
C1034 C1029 1.350 . S
C1035 H1022 0.929 . S
C1035 C1027 1.433 . S
C1035 N1037 1.384 1_545 S
N1036 C1032 1.427 . S
N1036 C1033 1.384 . S
N1037 C1029 1.427 . S
N1037 C1035 1.384 1_565 S
H1038 C1044 0.930 . S
H1039 C1048 0.930 . S
H1040 C1053 0.929 . S
H1041 C1051 0.929 . S
H1042 C1046 0.929 . S
H1043 C1052 0.929 . S
C1044 H1038 0.930 . S
C1044 C1045 1.367 . S
C1044 C1052 1.378 . S
C1045 C1044 1.367 . S
C1045 C1053 1.433 . S
C1046 H1042 0.929 . S
C1046 C1048 1.378 1_545 S
C1046 C1050 1.350 . S
C1047 C1050 1.463 . S
C1047 C1052 1.350 . S
C1047 N1055 1.427 . S
C1048 H1039 0.930 . S
C1048 C1046 1.378 1_565 S
C1048 C1049 1.367 . S
C1049 C1048 1.367 . S
C1049 C1051 1.433 . S
C1050 C1046 1.350 . S
C1050 C1047 1.463 . S
C1050 N1054 1.427 . S
C1051 H1041 0.929 . S
C1051 C1049 1.433 . S
C1051 N1054 1.384 1_565 S
C1052 H1043 0.929 . S
C1052 C1044 1.378 . S
C1052 C1047 1.350 . S
C1053 H1040 0.929 . S
C1053 C1045 1.433 . S
C1053 N1055 1.384 . S
N1054 C1050 1.427 . S
N1054 C1051 1.384 1_545 S
N1055 C1047 1.427 . S
N1055 C1053 1.384 . S
H1056 C1062 0.930 . S
H1057 C1066 0.930 . S
H1058 C1071 0.929 . S
H1059 C1069 0.929 . S
H1060 C1064 0.929 . S
H1061 C1070 0.929 . S
C1062 H1056 0.930 . S
C1062 C1063 1.367 . S
C1062 C1070 1.378 . S
C1063 C1062 1.367 . S
C1063 C1071 1.433 . S
C1064 H1060 0.929 . S
C1064 C1066 1.378 . S
C1064 C1068 1.350 . S
C1065 C1068 1.463 . S
C1065 C1070 1.350 . S
C1065 N1073 1.427 . S
C1066 H1057 0.930 . S
C1066 C1064 1.378 . S
C1066 C1067 1.367 . S
C1067 C1066 1.367 . S
C1067 C1069 1.433 . S
C1068 C1064 1.350 . S
C1068 C1065 1.463 . S
C1068 N1072 1.427 . S
C1069 H1059 0.929 . S
C1069 C1067 1.433 . S
C1069 N1072 1.384 . S
C1070 H1061 0.929 . S
C1070 C1062 1.378 . S
C1070 C1065 1.350 . S
C1071 H1058 0.929 . S
C1071 C1063 1.433 . S
C1071 N1073 1.384 . S
N1072 C1068 1.427 . S
N1072 C1069 1.384 . S
N1073 C1065 1.427 . S
N1073 C1071 1.384 . S
H1074 C1080 0.930 . S
H1075 C1084 0.930 . S
H1076 C1089 0.929 . S
H1077 C1087 0.929 . S
H1078 C1082 0.929 . S
H1079 C1088 0.929 . S
C1080 H1074 0.930 . S
C1080 C1081 1.367 . S
C1080 C1088 1.378 . S
C1081 C1080 1.367 . S
C1081 C1089 1.433 . S
C1082 H1078 0.929 . S
C1082 C1084 1.378 1_554 S
C1082 C1086 1.350 . S
C1083 C1086 1.463 . S
C1083 C1088 1.350 . S
C1083 N1091 1.427 . S
C1084 H1075 0.930 . S
C1084 C1082 1.378 1_556 S
C1084 C1085 1.367 . S
C1085 C1084 1.367 . S
C1085 C1087 1.433 . S
C1086 C1082 1.350 . S
C1086 C1083 1.463 . S
C1086 N1090 1.427 . S
C1087 H1077 0.929 . S
C1087 C1085 1.433 . S
C1087 N1090 1.384 1_556 S
C1088 H1079 0.929 . S
C1088 C1080 1.378 . S
C1088 C1083 1.350 . S
C1089 H1076 0.929 . S
C1089 C1081 1.433 . S
C1089 N1091 1.384 . S
N1090 C1086 1.427 . S
N1090 C1087 1.384 1_554 S
N1091 C1083 1.427 . S
N1091 C1089 1.384 . S
H1092 C1098 0.930 . S
H1093 C1102 0.930 . S
H1094 C1107 0.929 . S
H1095 C1105 0.929 . S
H1096 C1100 0.929 . S
H1097 C1106 0.929 . S
C1098 H1092 0.930 . S
C1098 C1099 1.367 . S
C1098 C1106 1.378 . S
C1099 C1098 1.367 . S
C1099 C1107 1.433 . S
C1100 H1096 0.929 . S
C1100 C1102 1.378 . S
C1100 C1104 1.350 . S
C1101 C1104 1.463 . S
C1101 C1106 1.350 . S
C1101 N1109 1.427 . S
C1102 H1093 0.930 . S
C1102 C1100 1.378 . S
C1102 C1103 1.367 . S
C1103 C1102 1.367 . S
C1103 C1105 1.433 . S
C1104 C1100 1.350 . S
C1104 C1101 1.463 . S
C1104 N1108 1.427 . S
C1105 H1095 0.929 . S
C1105 C1103 1.433 . S
C1105 N1108 1.384 . S
C1106 H1097 0.929 . S
C1106 C1098 1.378 . S
C1106 C1101 1.350 . S
C1107 H1094 0.929 . S
C1107 C1099 1.433 . S
C1107 N1109 1.384 . S
N1108 C1104 1.427 . S
N1108 C1105 1.384 . S
N1109 C1101 1.427 . S
N1109 C1107 1.384 . S
H1110 C1116 0.930 . S
H1111 C1120 0.930 . S
H1112 C1125 0.931 . S
H1113 C1123 0.929 . S
H1114 C1118 0.929 . S
H1115 C1124 0.929 . S
C1116 H1110 0.930 . S
C1116 C1117 1.367 . S
C1116 C1124 1.378 1_554 S
C1117 C1116 1.367 . S
C1117 C1125 1.437 . S
C1118 H1114 0.929 . S
C1118 C1120 1.378 . S
C1118 C1122 1.350 . S
C1119 C1122 1.463 . S
C1119 C1124 1.350 . S
C1119 N1127 1.427 . S
C1120 H1111 0.930 . S
C1120 C1118 1.378 . S
C1120 C1121 1.367 . S
C1121 C1120 1.367 . S
C1121 C1123 1.433 . S
C1122 C1118 1.350 . S
C1122 C1119 1.463 . S
C1122 N1126 1.427 . S
C1123 H1113 0.929 . S
C1123 C1121 1.433 . S
C1123 N1126 1.384 . S
C1124 H1115 0.929 . S
C1124 C1116 1.378 1_556 S
C1124 C1119 1.350 . S
C1125 H1112 0.931 . S
C1125 C1117 1.437 . S
C1125 N1127 1.378 1_554 S
N1126 C1122 1.427 . S
N1126 C1123 1.384 . S
N1127 C1119 1.427 . S
N1127 C1125 1.378 1_556 S
H1128 C1134 0.930 . S
H1129 C1138 0.930 . S
H1130 C1143 0.929 . S
H1131 C1141 0.929 . S
H1132 C1136 0.929 . S
H1133 C1142 0.929 . S
C1134 H1128 0.930 . S
C1134 C1135 1.367 . S
C1134 C1142 1.378 . S
C1135 C1134 1.367 . S
C1135 C1143 1.433 . S
C1136 H1132 0.929 . S
C1136 C1138 1.378 . S
C1136 C1140 1.350 . S
C1137 C1140 1.463 . S
C1137 C1142 1.350 . S
C1137 N1145 1.427 . S
C1138 H1129 0.930 . S
C1138 C1136 1.378 . S
C1138 C1139 1.367 . S
C1139 C1138 1.367 . S
C1139 C1141 1.433 . S
C1140 C1136 1.350 . S
C1140 C1137 1.463 . S
C1140 N1144 1.427 . S
C1141 H1131 0.929 . S
C1141 C1139 1.433 . S
C1141 N1144 1.384 . S
C1142 H1133 0.929 . S
C1142 C1134 1.378 . S
C1142 C1137 1.350 . S
C1143 H1130 0.929 . S
C1143 C1135 1.433 . S
C1143 N1145 1.384 . S
N1144 C1140 1.427 . S
N1144 C1141 1.384 . S
N1145 C1137 1.427 . S
N1145 C1143 1.384 . S
H1146 C1152 0.930 . S
H1147 C1156 0.930 . S
H1148 C1161 0.917 1_655 S
H1149 C1159 0.929 . S
H1150 C1154 0.929 . S
H1151 C1160 0.929 . S
C1152 H1146 0.930 . S
C1152 C1153 1.367 . S
C1152 C1160 1.378 1_655 S
C1153 C1152 1.367 . S
C1153 C1161 1.410 1_655 S
C1154 H1150 0.929 . S
C1154 C1156 1.378 . S
C1154 C1158 1.350 . S
C1155 C1158 1.463 . S
C1155 C1160 1.350 . S
C1155 N1163 1.427 . S
C1156 H1147 0.930 . S
C1156 C1154 1.378 . S
C1156 C1157 1.367 . S
C1157 C1156 1.367 . S
C1157 C1159 1.433 . S
C1158 C1154 1.350 . S
C1158 C1155 1.463 . S
C1158 N1162 1.427 . S
C1159 H1149 0.929 . S
C1159 C1157 1.433 . S
C1159 N1162 1.384 . S
C1160 H1151 0.929 . S
C1160 C1152 1.378 1_455 S
C1160 C1155 1.350 . S
C1161 H1148 0.917 1_455 S
C1161 C1153 1.410 1_455 S
C1161 N1163 1.420 . S
N1162 C1158 1.427 . S
N1162 C1159 1.384 . S
N1163 C1155 1.427 . S
N1163 C1161 1.420 . S
H1164 C1170 0.930 . S
H1165 C1174 0.930 . S
H1166 C1179 0.929 . S
H1167 C1177 0.929 . S
H1168 C1172 0.929 . S
H1169 C1178 0.929 . S
C1170 H1164 0.930 . S
C1170 C1171 1.367 . S
C1170 C1178 1.378 . S
C1171 C1170 1.367 . S
C1171 C1179 1.433 . S
C1172 H1168 0.929 . S
C1172 C1174 1.378 . S
C1172 C1176 1.350 . S
C1173 C1176 1.463 . S
C1173 C1178 1.350 . S
C1173 N1181 1.427 . S
C1174 H1165 0.930 . S
C1174 C1172 1.378 . S
C1174 C1175 1.367 . S
C1175 C1174 1.367 . S
C1175 C1177 1.433 . S
C1176 C1172 1.350 . S
C1176 C1173 1.463 . S
C1176 N1180 1.427 . S
C1177 H1167 0.929 . S
C1177 C1175 1.433 . S
C1177 N1180 1.384 . S
C1178 H1169 0.929 . S
C1178 C1170 1.378 . S
C1178 C1173 1.350 . S
C1179 H1166 0.929 . S
C1179 C1171 1.433 . S
C1179 N1181 1.384 . S
N1180 C1176 1.427 . S
N1180 C1177 1.384 . S
N1181 C1173 1.427 . S
N1181 C1179 1.384 . S
H1182 C1188 0.930 . S
H1183 C1192 0.930 1_455 S
H1184 C1197 0.929 . S
H1185 C1195 0.929 . S
H1186 C1190 0.929 . S
H1187 C1196 0.929 . S
C1188 H1182 0.930 . S
C1188 C1189 1.367 . S
C1188 C1196 1.378 . S
C1189 C1188 1.367 . S
C1189 C1197 1.433 . S
C1190 H1186 0.929 . S
C1190 C1192 1.378 . S
C1190 C1194 1.350 . S
C1191 C1194 1.463 . S
C1191 C1196 1.350 . S
C1191 N1199 1.427 . S
C1192 H1183 0.930 1_655 S
C1192 C1190 1.378 . S
C1192 C1193 1.367 1_655 S
C1193 C1192 1.367 1_455 S
C1193 C1195 1.433 . S
C1194 C1190 1.350 . S
C1194 C1191 1.463 . S
C1194 N1198 1.427 . S
C1195 H1185 0.929 . S
C1195 C1193 1.433 . S
C1195 N1198 1.384 1_455 S
C1196 H1187 0.929 . S
C1196 C1188 1.378 . S
C1196 C1191 1.350 . S
C1197 H1184 0.929 . S
C1197 C1189 1.433 . S
C1197 N1199 1.384 . S
N1198 C1194 1.427 . S
N1198 C1195 1.384 1_655 S
N1199 C1191 1.427 . S
N1199 C1197 1.384 . S
H1200 C1206 0.930 . S
H1201 C1210 0.930 . S
H1202 C1215 0.929 . S
H1203 C1213 0.929 . S
H1204 C1208 0.929 . S
H1205 C1214 0.929 . S
C1206 H1200 0.930 . S
C1206 C1207 1.367 . S
C1206 C1214 1.378 . S
C1207 C1206 1.367 . S
C1207 C1215 1.433 . S
C1208 H1204 0.929 . S
C1208 C1210 1.378 . S
C1208 C1212 1.350 . S
C1209 C1212 1.463 . S
C1209 C1214 1.350 . S
C1209 N1217 1.427 . S
C1210 H1201 0.930 . S
C1210 C1208 1.378 . S
C1210 C1211 1.367 . S
C1211 C1210 1.367 . S
C1211 C1213 1.433 . S
C1212 C1208 1.350 . S
C1212 C1209 1.463 . S
C1212 N1216 1.427 . S
C1213 H1203 0.929 . S
C1213 C1211 1.433 . S
C1213 N1216 1.384 . S
C1214 H1205 0.929 . S
C1214 C1206 1.378 . S
C1214 C1209 1.350 . S
C1215 H1202 0.929 . S
C1215 C1207 1.433 . S
C1215 N1217 1.384 . S
N1216 C1212 1.427 . S
N1216 C1213 1.384 . S
N1217 C1209 1.427 . S
N1217 C1215 1.384 . S
H1218 C1224 0.930 . S
H1219 C1228 0.930 . S
H1220 C1233 0.929 . S
H1221 C1231 0.929 . S
H1222 C1226 0.929 . S
H1223 C1232 0.929 . S
C1224 H1218 0.930 . S
C1224 C1225 1.367 . S
C1224 C1232 1.378 . S
C1225 C1224 1.367 . S
C1225 C1233 1.433 . S
C1226 H1222 0.929 . S
C1226 C1228 1.378 . S
C1226 C1230 1.350 . S
C1227 C1230 1.463 . S
C1227 C1232 1.350 . S
C1227 N1235 1.427 . S
C1228 H1219 0.930 . S
C1228 C1226 1.378 . S
C1228 C1229 1.367 . S
C1229 C1228 1.367 . S
C1229 C1231 1.433 . S
C1230 C1226 1.350 . S
C1230 C1227 1.463 . S
C1230 N1234 1.427 . S
C1231 H1221 0.929 . S
C1231 C1229 1.433 . S
C1231 N1234 1.384 . S
C1232 H1223 0.929 . S
C1232 C1224 1.378 . S
C1232 C1227 1.350 . S
C1233 H1220 0.929 . S
C1233 C1225 1.433 . S
C1233 N1235 1.384 . S
N1234 C1230 1.427 . S
N1234 C1231 1.384 . S
N1235 C1227 1.427 . S
N1235 C1233 1.384 . S
H1236 C1242 0.930 . S
H1237 C1246 0.930 . S
H1238 C1251 0.929 . S
H1239 C1249 0.929 . S
H1240 C1244 0.929 . S
H1241 C1250 0.929 . S
C1242 H1236 0.930 . S
C1242 C1243 1.367 . S
C1242 C1250 1.378 . S
C1243 C1242 1.367 . S
C1243 C1251 1.433 . S
C1244 H1240 0.929 . S
C1244 C1246 1.378 . S
C1244 C1248 1.350 . S
C1245 C1248 1.463 . S
C1245 C1250 1.350 . S
C1245 N1253 1.427 . S
C1246 H1237 0.930 . S
C1246 C1244 1.378 . S
C1246 C1247 1.367 . S
C1247 C1246 1.367 . S
C1247 C1249 1.433 . S
C1248 C1244 1.350 . S
C1248 C1245 1.463 . S
C1248 N1252 1.427 . S
C1249 H1239 0.929 . S
C1249 C1247 1.433 . S
C1249 N1252 1.384 . S
C1250 H1241 0.929 . S
C1250 C1242 1.378 . S
C1250 C1245 1.350 . S
C1251 H1238 0.929 . S
C1251 C1243 1.433 . S
C1251 N1253 1.384 . S
N1252 C1248 1.427 . S
N1252 C1249 1.384 . S
N1253 C1245 1.427 . S
N1253 C1251 1.384 . S
H1254 C1260 0.930 . S
H1255 C1264 0.930 . S
H1256 C1269 0.929 . S
H1257 C1267 0.929 . S
H1258 C1262 0.929 . S
H1259 C1268 0.929 . S
C1260 H1254 0.930 . S
C1260 C1261 1.367 . S
C1260 C1268 1.378 . S
C1261 C1260 1.367 . S
C1261 C1269 1.433 . S
C1262 H1258 0.929 . S
C1262 C1264 1.378 . S
C1262 C1266 1.350 . S
C1263 C1266 1.463 . S
C1263 C1268 1.350 . S
C1263 N1271 1.427 . S
C1264 H1255 0.930 . S
C1264 C1262 1.378 . S
C1264 C1265 1.367 . S
C1265 C1264 1.367 . S
C1265 C1267 1.433 . S
C1266 C1262 1.350 . S
C1266 C1263 1.463 . S
C1266 N1270 1.427 . S
C1267 H1257 0.929 . S
C1267 C1265 1.433 . S
C1267 N1270 1.384 . S
C1268 H1259 0.929 . S
C1268 C1260 1.378 . S
C1268 C1263 1.350 . S
C1269 H1256 0.929 . S
C1269 C1261 1.433 . S
C1269 N1271 1.384 . S
N1270 C1266 1.427 . S
N1270 C1267 1.384 . S
N1271 C1263 1.427 . S
N1271 C1269 1.384 . S
H1272 C1278 0.930 . S
H1273 C1282 0.930 . S
H1274 C1287 0.929 . S
H1275 C1285 0.929 . S
H1276 C1280 0.929 . S
H1277 C1286 0.929 . S
C1278 H1272 0.930 . S
C1278 C1279 1.367 . S
C1278 C1286 1.378 . S
C1279 C1278 1.367 . S
C1279 C1287 1.433 . S
C1280 H1276 0.929 . S
C1280 C1282 1.378 . S
C1280 C1284 1.350 . S
C1281 C1284 1.463 . S
C1281 C1286 1.350 . S
C1281 N1289 1.427 . S
C1282 H1273 0.930 . S
C1282 C1280 1.378 . S
C1282 C1283 1.367 . S
C1283 C1282 1.367 . S
C1283 C1285 1.433 . S
C1284 C1280 1.350 . S
C1284 C1281 1.463 . S
C1284 N1288 1.427 . S
C1285 H1275 0.929 . S
C1285 C1283 1.433 . S
C1285 N1288 1.384 . S
C1286 H1277 0.929 . S
C1286 C1278 1.378 . S
C1286 C1281 1.350 . S
C1287 H1274 0.929 . S
C1287 C1279 1.433 . S
C1287 N1289 1.384 . S
N1288 C1284 1.427 . S
N1288 C1285 1.384 . S
N1289 C1281 1.427 . S
N1289 C1287 1.384 . S
H1290 C1296 0.930 . S
H1291 C1300 0.930 . S
H1292 C1305 0.929 . S
H1293 C1303 0.929 . S
H1294 C1298 0.929 . S
H1295 C1304 0.929 . S
C1296 H1290 0.930 . S
C1296 C1297 1.367 . S
C1296 C1304 1.378 . S
C1297 C1296 1.367 . S
C1297 C1305 1.433 . S
C1298 H1294 0.929 . S
C1298 C1300 1.378 . S
C1298 C1302 1.350 . S
C1299 C1302 1.463 . S
C1299 C1304 1.350 . S
C1299 N1307 1.427 . S
C1300 H1291 0.930 . S
C1300 C1298 1.378 . S
C1300 C1301 1.367 . S
C1301 C1300 1.367 . S
C1301 C1303 1.433 . S
C1302 C1298 1.350 . S
C1302 C1299 1.463 . S
C1302 N1306 1.427 . S
C1303 H1293 0.929 . S
C1303 C1301 1.433 . S
C1303 N1306 1.384 . S
C1304 H1295 0.929 . S
C1304 C1296 1.378 . S
C1304 C1299 1.350 . S
C1305 H1292 0.929 . S
C1305 C1297 1.433 . S
C1305 N1307 1.384 . S
N1306 C1302 1.427 . S
N1306 C1303 1.384 . S
N1307 C1299 1.427 . S
N1307 C1305 1.384 . S
H1308 C1314 0.930 . S
H1309 C1318 0.930 . S
H1310 C1323 0.929 . S
H1311 C1321 0.929 . S
H1312 C1316 0.929 . S
H1313 C1322 0.929 . S
C1314 H1308 0.930 . S
C1314 C1315 1.367 . S
C1314 C1322 1.378 . S
C1315 C1314 1.367 . S
C1315 C1323 1.433 . S
C1316 H1312 0.929 . S
C1316 C1318 1.378 . S
C1316 C1320 1.350 . S
C1317 C1320 1.463 . S
C1317 C1322 1.350 . S
C1317 N1325 1.427 . S
C1318 H1309 0.930 . S
C1318 C1316 1.378 . S
C1318 C1319 1.367 . S
C1319 C1318 1.367 . S
C1319 C1321 1.433 . S
C1320 C1316 1.350 . S
C1320 C1317 1.463 . S
C1320 N1324 1.427 . S
C1321 H1311 0.929 . S
C1321 C1319 1.433 . S
C1321 N1324 1.384 . S
C1322 H1313 0.929 . S
C1322 C1314 1.378 . S
C1322 C1317 1.350 . S
C1323 H1310 0.929 . S
C1323 C1315 1.433 . S
C1323 N1325 1.384 . S
N1324 C1320 1.427 . S
N1324 C1321 1.384 . S
N1325 C1317 1.427 . S
N1325 C1323 1.384 . S
H1326 C1332 0.930 . S
H1327 C1336 0.930 . S
H1328 C1341 0.929 . S
H1329 C1339 0.929 . S
H1330 C1334 0.929 . S
H1331 C1340 0.929 . S
C1332 H1326 0.930 . S
C1332 C1333 1.367 . S
C1332 C1340 1.378 . S
C1333 C1332 1.367 . S
C1333 C1341 1.433 . S
C1334 H1330 0.929 . S
C1334 C1336 1.378 . S
C1334 C1338 1.350 . S
C1335 C1338 1.463 . S
C1335 C1340 1.350 . S
C1335 N1343 1.427 . S
C1336 H1327 0.930 . S
C1336 C1334 1.378 . S
C1336 C1337 1.367 . S
C1337 C1336 1.367 . S
C1337 C1339 1.433 . S
C1338 C1334 1.350 . S
C1338 C1335 1.463 . S
C1338 N1342 1.427 . S
C1339 H1329 0.929 . S
C1339 C1337 1.433 . S
C1339 N1342 1.384 . S
C1340 H1331 0.929 . S
C1340 C1332 1.378 . S
C1340 C1335 1.350 . S
C1341 H1328 0.929 . S
C1341 C1333 1.433 . S
C1341 N1343 1.384 . S
N1342 C1338 1.427 . S
N1342 C1339 1.384 . S
N1343 C1335 1.427 . S
N1343 C1341 1.384 . S
H1344 C1350 0.930 . S
H1345 C1354 0.930 . S
H1346 C1359 0.929 . S
H1347 C1357 0.929 . S
H1348 C1352 0.929 . S
H1349 C1358 0.929 . S
C1350 H1344 0.930 . S
C1350 C1351 1.367 . S
C1350 C1358 1.378 . S
C1351 C1350 1.367 . S
C1351 C1359 1.433 . S
C1352 H1348 0.929 . S
C1352 C1354 1.378 . S
C1352 C1356 1.350 . S
C1353 C1356 1.463 . S
C1353 C1358 1.350 . S
C1353 N1361 1.427 . S
C1354 H1345 0.930 . S
C1354 C1352 1.378 . S
C1354 C1355 1.367 . S
C1355 C1354 1.367 . S
C1355 C1357 1.433 . S
C1356 C1352 1.350 . S
C1356 C1353 1.463 . S
C1356 N1360 1.427 . S
C1357 H1347 0.929 . S
C1357 C1355 1.433 . S
C1357 N1360 1.384 . S
C1358 H1349 0.929 . S
C1358 C1350 1.378 . S
C1358 C1353 1.350 . S
C1359 H1346 0.929 . S
C1359 C1351 1.433 . S
C1359 N1361 1.384 . S
N1360 C1356 1.427 . S
N1360 C1357 1.384 . S
N1361 C1353 1.427 . S
N1361 C1359 1.384 . S
H1362 C1368 0.930 . S
H1363 C1372 0.930 . S
H1364 C1377 0.929 . S
H1365 C1375 0.929 . S
H1366 C1370 0.929 . S
H1367 C1376 0.929 . S
C1368 H1362 0.930 . S
C1368 C1369 1.367 . S
C1368 C1376 1.378 . S
C1369 C1368 1.367 . S
C1369 C1377 1.433 . S
C1370 H1366 0.929 . S
C1370 C1372 1.378 . S
C1370 C1374 1.350 . S
C1371 C1374 1.463 . S
C1371 C1376 1.350 . S
C1371 N1379 1.427 . S
C1372 H1363 0.930 . S
C1372 C1370 1.378 . S
C1372 C1373 1.367 . S
C1373 C1372 1.367 . S
C1373 C1375 1.433 . S
C1374 C1370 1.350 . S
C1374 C1371 1.463 . S
C1374 N1378 1.427 . S
C1375 H1365 0.929 . S
C1375 C1373 1.433 . S
C1375 N1378 1.384 . S
C1376 H1367 0.929 . S
C1376 C1368 1.378 . S
C1376 C1371 1.350 . S
C1377 H1364 0.929 . S
C1377 C1369 1.433 . S
C1377 N1379 1.384 . S
N1378 C1374 1.427 . S
N1378 C1375 1.384 . S
N1379 C1371 1.427 . S
N1379 C1377 1.384 . S
H1380 C1386 0.930 . S
H1381 C1390 0.930 . S
H1382 C1395 0.929 . S
H1383 C1393 0.929 . S
H1384 C1388 0.929 . S
H1385 C1394 0.929 . S
C1386 H1380 0.930 . S
C1386 C1387 1.367 . S
C1386 C1394 1.378 . S
C1387 C1386 1.367 . S
C1387 C1395 1.433 . S
C1388 H1384 0.929 . S
C1388 C1390 1.378 . S
C1388 C1392 1.350 . S
C1389 C1392 1.463 . S
C1389 C1394 1.350 . S
C1389 N1397 1.427 . S
C1390 H1381 0.930 . S
C1390 C1388 1.378 . S
C1390 C1391 1.367 . S
C1391 C1390 1.367 . S
C1391 C1393 1.433 . S
C1392 C1388 1.350 . S
C1392 C1389 1.463 . S
C1392 N1396 1.427 . S
C1393 H1383 0.929 . S
C1393 C1391 1.433 . S
C1393 N1396 1.384 . S
C1394 H1385 0.929 . S
C1394 C1386 1.378 . S
C1394 C1389 1.350 . S
C1395 H1382 0.929 . S
C1395 C1387 1.433 . S
C1395 N1397 1.384 . S
N1396 C1392 1.427 . S
N1396 C1393 1.384 . S
N1397 C1389 1.427 . S
N1397 C1395 1.384 . S
H1398 C1404 0.930 . S
H1399 C1408 0.930 . S
H1400 C1413 0.929 . S
H1401 C1411 0.929 . S
H1402 C1406 0.929 . S
H1403 C1412 0.929 . S
C1404 H1398 0.930 . S
C1404 C1405 1.367 . S
C1404 C1412 1.378 . S
C1405 C1404 1.367 . S
C1405 C1413 1.433 . S
C1406 H1402 0.929 . S
C1406 C1408 1.378 . S
C1406 C1410 1.350 . S
C1407 C1410 1.463 . S
C1407 C1412 1.350 . S
C1407 N1415 1.427 . S
C1408 H1399 0.930 . S
C1408 C1406 1.378 . S
C1408 C1409 1.367 . S
C1409 C1408 1.367 . S
C1409 C1411 1.433 . S
C1410 C1406 1.350 . S
C1410 C1407 1.463 . S
C1410 N1414 1.427 . S
C1411 H1401 0.929 . S
C1411 C1409 1.433 . S
C1411 N1414 1.384 . S
C1412 H1403 0.929 . S
C1412 C1404 1.378 . S
C1412 C1407 1.350 . S
C1413 H1400 0.929 . S
C1413 C1405 1.433 . S
C1413 N1415 1.384 . S
N1414 C1410 1.427 . S
N1414 C1411 1.384 . S
N1415 C1407 1.427 . S
N1415 C1413 1.384 . S
H1416 C1422 0.930 . S
H1417 C1426 0.930 . S
H1418 C1431 0.929 . S
H1419 C1429 0.929 . S
H1420 C1424 0.929 . S
H1421 C1430 0.929 . S
C1422 H1416 0.930 . S
C1422 C1423 1.367 . S
C1422 C1430 1.378 . S
C1423 C1422 1.367 . S
C1423 C1431 1.433 . S
C1424 H1420 0.929 . S
C1424 C1426 1.378 . S
C1424 C1428 1.350 . S
C1425 C1428 1.463 . S
C1425 C1430 1.350 . S
C1425 N1433 1.427 . S
C1426 H1417 0.930 . S
C1426 C1424 1.378 . S
C1426 C1427 1.367 . S
C1427 C1426 1.367 . S
C1427 C1429 1.433 . S
C1428 C1424 1.350 . S
C1428 C1425 1.463 . S
C1428 N1432 1.427 . S
C1429 H1419 0.929 . S
C1429 C1427 1.433 . S
C1429 N1432 1.384 . S
C1430 H1421 0.929 . S
C1430 C1422 1.378 . S
C1430 C1425 1.350 . S
C1431 H1418 0.929 . S
C1431 C1423 1.433 . S
C1431 N1433 1.384 . S
N1432 C1428 1.427 . S
N1432 C1429 1.384 . S
N1433 C1425 1.427 . S
N1433 C1431 1.384 . S
H1434 C1440 0.930 . S
H1435 C1444 0.930 . S
H1436 C1449 0.929 . S
H1437 C1447 0.929 . S
H1438 C1442 0.929 . S
H1439 C1448 0.929 . S
C1440 H1434 0.930 . S
C1440 C1441 1.367 . S
C1440 C1448 1.378 . S
C1441 C1440 1.367 . S
C1441 C1449 1.433 . S
C1442 H1438 0.929 . S
C1442 C1444 1.378 . S
C1442 C1446 1.350 . S
C1443 C1446 1.463 . S
C1443 C1448 1.350 . S
C1443 N1451 1.427 . S
C1444 H1435 0.930 . S
C1444 C1442 1.378 . S
C1444 C1445 1.367 . S
C1445 C1444 1.367 . S
C1445 C1447 1.433 . S
C1446 C1442 1.350 . S
C1446 C1443 1.463 . S
C1446 N1450 1.427 . S
C1447 H1437 0.929 . S
C1447 C1445 1.433 . S
C1447 N1450 1.384 . S
C1448 H1439 0.929 . S
C1448 C1440 1.378 . S
C1448 C1443 1.350 . S
C1449 H1436 0.929 . S
C1449 C1441 1.433 . S
C1449 N1451 1.384 . S
N1450 C1446 1.427 . S
N1450 C1447 1.384 . S
N1451 C1443 1.427 . S
N1451 C1449 1.384 . S
H1452 C1458 0.930 . S
H1453 C1462 0.930 . S
H1454 C1467 0.929 . S
H1455 C1465 0.929 . S
H1456 C1460 0.929 . S
H1457 C1466 0.929 . S
C1458 H1452 0.930 . S
C1458 C1459 1.367 . S
C1458 C1466 1.378 . S
C1459 C1458 1.367 . S
C1459 C1467 1.433 . S
C1460 H1456 0.929 . S
C1460 C1462 1.378 . S
C1460 C1464 1.350 . S
C1461 C1464 1.463 . S
C1461 C1466 1.350 . S
C1461 N1469 1.427 . S
C1462 H1453 0.930 . S
C1462 C1460 1.378 . S
C1462 C1463 1.367 . S
C1463 C1462 1.367 . S
C1463 C1465 1.433 . S
C1464 C1460 1.350 . S
C1464 C1461 1.463 . S
C1464 N1468 1.427 . S
C1465 H1455 0.929 . S
C1465 C1463 1.433 . S
C1465 N1468 1.384 . S
C1466 H1457 0.929 . S
C1466 C1458 1.378 . S
C1466 C1461 1.350 . S
C1467 H1454 0.929 . S
C1467 C1459 1.433 . S
C1467 N1469 1.384 . S
N1468 C1464 1.427 . S
N1468 C1465 1.384 . S
N1469 C1461 1.427 . S
N1469 C1467 1.384 . S
H1470 C1476 0.930 . S
H1471 C1480 0.930 . S
H1472 C1485 0.929 . S
H1473 C1483 0.929 . S
H1474 C1478 0.929 . S
H1475 C1484 0.929 . S
C1476 H1470 0.930 . S
C1476 C1477 1.367 . S
C1476 C1484 1.378 . S
C1477 C1476 1.367 . S
C1477 C1485 1.433 . S
C1478 H1474 0.929 . S
C1478 C1480 1.378 . S
C1478 C1482 1.350 . S
C1479 C1482 1.463 . S
C1479 C1484 1.350 . S
C1479 N1487 1.427 . S
C1480 H1471 0.930 . S
C1480 C1478 1.378 . S
C1480 C1481 1.367 . S
C1481 C1480 1.367 . S
C1481 C1483 1.433 . S
C1482 C1478 1.350 . S
C1482 C1479 1.463 . S
C1482 N1486 1.427 . S
C1483 H1473 0.929 . S
C1483 C1481 1.433 . S
C1483 N1486 1.384 . S
C1484 H1475 0.929 . S
C1484 C1476 1.378 . S
C1484 C1479 1.350 . S
C1485 H1472 0.929 . S
C1485 C1477 1.433 . S
C1485 N1487 1.384 . S
N1486 C1482 1.427 . S
N1486 C1483 1.384 . S
N1487 C1479 1.427 . S
N1487 C1485 1.384 . S
H1488 C1494 0.930 . S
H1489 C1498 0.930 . S
H1490 C1503 0.929 . S
H1491 C1501 0.929 . S
H1492 C1496 0.929 . S
H1493 C1502 0.929 . S
C1494 H1488 0.930 . S
C1494 C1495 1.367 . S
C1494 C1502 1.378 . S
C1495 C1494 1.367 . S
C1495 C1503 1.433 . S
C1496 H1492 0.929 . S
C1496 C1498 1.378 . S
C1496 C1500 1.350 . S
C1497 C1500 1.463 . S
C1497 C1502 1.350 . S
C1497 N1505 1.427 . S
C1498 H1489 0.930 . S
C1498 C1496 1.378 . S
C1498 C1499 1.367 . S
C1499 C1498 1.367 . S
C1499 C1501 1.433 . S
C1500 C1496 1.350 . S
C1500 C1497 1.463 . S
C1500 N1504 1.427 . S
C1501 H1491 0.929 . S
C1501 C1499 1.433 . S
C1501 N1504 1.384 . S
C1502 H1493 0.929 . S
C1502 C1494 1.378 . S
C1502 C1497 1.350 . S
C1503 H1490 0.929 . S
C1503 C1495 1.433 . S
C1503 N1505 1.384 . S
N1504 C1500 1.427 . S
N1504 C1501 1.384 . S
N1505 C1497 1.427 . S
N1505 C1503 1.384 . S
H1506 C1512 0.930 . S
H1507 C1516 0.930 . S
H1508 C1521 0.929 . S
H1509 C1519 0.929 . S
H1510 C1514 0.929 . S
H1511 C1520 0.929 . S
C1512 H1506 0.930 . S
C1512 C1513 1.367 . S
C1512 C1520 1.378 . S
C1513 C1512 1.367 . S
C1513 C1521 1.433 . S
C1514 H1510 0.929 . S
C1514 C1516 1.378 . S
C1514 C1518 1.350 . S
C1515 C1518 1.463 . S
C1515 C1520 1.350 . S
C1515 N1523 1.427 . S
C1516 H1507 0.930 . S
C1516 C1514 1.378 . S
C1516 C1517 1.367 . S
C1517 C1516 1.367 . S
C1517 C1519 1.433 . S
C1518 C1514 1.350 . S
C1518 C1515 1.463 . S
C1518 N1522 1.427 . S
C1519 H1509 0.929 . S
C1519 C1517 1.433 . S
C1519 N1522 1.384 . S
C1520 H1511 0.929 . S
C1520 C1512 1.378 . S
C1520 C1515 1.350 . S
C1521 H1508 0.929 . S
C1521 C1513 1.433 . S
C1521 N1523 1.384 . S
N1522 C1518 1.427 . S
N1522 C1519 1.384 . S
N1523 C1515 1.427 . S
N1523 C1521 1.384 . S
H1524 C1530 0.930 . S
H1525 C1534 0.930 . S
H1526 C1539 0.929 . S
H1527 C1537 0.929 . S
H1528 C1532 0.929 . S
H1529 C1538 0.929 . S
C1530 H1524 0.930 . S
C1530 C1531 1.367 . S
C1530 C1538 1.378 . S
C1531 C1530 1.367 . S
C1531 C1539 1.433 . S
C1532 H1528 0.929 . S
C1532 C1534 1.378 . S
C1532 C1536 1.350 . S
C1533 C1536 1.463 . S
C1533 C1538 1.350 . S
C1533 N1541 1.427 . S
C1534 H1525 0.930 . S
C1534 C1532 1.378 . S
C1534 C1535 1.367 . S
C1535 C1534 1.367 . S
C1535 C1537 1.433 . S
C1536 C1532 1.350 . S
C1536 C1533 1.463 . S
C1536 N1540 1.427 . S
C1537 H1527 0.929 . S
C1537 C1535 1.433 . S
C1537 N1540 1.384 . S
C1538 H1529 0.929 . S
C1538 C1530 1.378 . S
C1538 C1533 1.350 . S
C1539 H1526 0.929 . S
C1539 C1531 1.433 . S
C1539 N1541 1.384 . S
N1540 C1536 1.427 . S
N1540 C1537 1.384 . S
N1541 C1533 1.427 . S
N1541 C1539 1.384 . S
H1542 C1548 0.930 . S
H1543 C1552 0.930 . S
H1544 C1557 0.929 . S
H1545 C1555 0.929 . S
H1546 C1550 0.929 . S
H1547 C1556 0.929 . S
C1548 H1542 0.930 . S
C1548 C1549 1.367 . S
C1548 C1556 1.378 . S
C1549 C1548 1.367 . S
C1549 C1557 1.433 . S
C1550 H1546 0.929 . S
C1550 C1552 1.378 . S
C1550 C1554 1.350 . S
C1551 C1554 1.463 . S
C1551 C1556 1.350 . S
C1551 N1559 1.427 . S
C1552 H1543 0.930 . S
C1552 C1550 1.378 . S
C1552 C1553 1.367 . S
C1553 C1552 1.367 . S
C1553 C1555 1.433 . S
C1554 C1550 1.350 . S
C1554 C1551 1.463 . S
C1554 N1558 1.427 . S
C1555 H1545 0.929 . S
C1555 C1553 1.433 . S
C1555 N1558 1.384 . S
C1556 H1547 0.929 . S
C1556 C1548 1.378 . S
C1556 C1551 1.350 . S
C1557 H1544 0.929 . S
C1557 C1549 1.433 . S
C1557 N1559 1.384 . S
N1558 C1554 1.427 . S
N1558 C1555 1.384 . S
N1559 C1551 1.427 . S
N1559 C1557 1.384 . S
H1560 C1566 0.930 . S
H1561 C1570 0.930 . S
H1562 C1575 0.929 . S
H1563 C1573 0.929 . S
H1564 C1568 0.929 . S
H1565 C1574 0.929 . S
C1566 H1560 0.930 . S
C1566 C1567 1.367 . S
C1566 C1574 1.378 . S
C1567 C1566 1.367 . S
C1567 C1575 1.433 . S
C1568 H1564 0.929 . S
C1568 C1570 1.378 . S
C1568 C1572 1.350 . S
C1569 C1572 1.463 . S
C1569 C1574 1.350 . S
C1569 N1577 1.427 . S
C1570 H1561 0.930 . S
C1570 C1568 1.378 . S
C1570 C1571 1.367 . S
C1571 C1570 1.367 . S
C1571 C1573 1.433 . S
C1572 C1568 1.350 . S
C1572 C1569 1.463 . S
C1572 N1576 1.427 . S
C1573 H1563 0.929 . S
C1573 C1571 1.433 . S
C1573 N1576 1.384 . S
C1574 H1565 0.929 . S
C1574 C1566 1.378 . S
C1574 C1569 1.350 . S
C1575 H1562 0.929 . S
C1575 C1567 1.433 . S
C1575 N1577 1.384 . S
N1576 C1572 1.427 . S
N1576 C1573 1.384 . S
N1577 C1569 1.427 . S
N1577 C1575 1.384 . S
H1578 C1584 0.930 . S
H1579 C1588 0.930 . S
H1580 C1593 0.929 . S
H1581 C1591 0.929 . S
H1582 C1586 0.929 . S
H1583 C1592 0.929 . S
C1584 H1578 0.930 . S
C1584 C1585 1.367 . S
C1584 C1592 1.378 . S
C1585 C1584 1.367 . S
C1585 C1593 1.433 . S
C1586 H1582 0.929 . S
C1586 C1588 1.378 . S
C1586 C1590 1.350 . S
C1587 C1590 1.463 . S
C1587 C1592 1.350 . S
C1587 N1595 1.427 . S
C1588 H1579 0.930 . S
C1588 C1586 1.378 . S
C1588 C1589 1.367 . S
C1589 C1588 1.367 . S
C1589 C1591 1.433 . S
C1590 C1586 1.350 . S
C1590 C1587 1.463 . S
C1590 N1594 1.427 . S
C1591 H1581 0.929 . S
C1591 C1589 1.433 . S
C1591 N1594 1.384 . S
C1592 H1583 0.929 . S
C1592 C1584 1.378 . S
C1592 C1587 1.350 . S
C1593 H1580 0.929 . S
C1593 C1585 1.433 . S
C1593 N1595 1.384 . S
N1594 C1590 1.427 . S
N1594 C1591 1.384 . S
N1595 C1587 1.427 . S
N1595 C1593 1.384 . S
H1596 C1602 0.930 . S
H1597 C1606 0.930 . S
H1598 C1611 0.929 . S
H1599 C1609 0.929 . S
H1600 C1604 0.929 . S
H1601 C1610 0.929 . S
C1602 H1596 0.930 . S
C1602 C1603 1.367 . S
C1602 C1610 1.378 . S
C1603 C1602 1.367 . S
C1603 C1611 1.433 . S
C1604 H1600 0.929 . S
C1604 C1606 1.378 . S
C1604 C1608 1.350 . S
C1605 C1608 1.463 . S
C1605 C1610 1.350 . S
C1605 N1613 1.427 . S
C1606 H1597 0.930 . S
C1606 C1604 1.378 . S
C1606 C1607 1.367 . S
C1607 C1606 1.367 . S
C1607 C1609 1.433 . S
C1608 C1604 1.350 . S
C1608 C1605 1.463 . S
C1608 N1612 1.427 . S
C1609 H1599 0.929 . S
C1609 C1607 1.433 . S
C1609 N1612 1.384 . S
C1610 H1601 0.929 . S
C1610 C1602 1.378 . S
C1610 C1605 1.350 . S
C1611 H1598 0.929 . S
C1611 C1603 1.433 . S
C1611 N1613 1.384 . S
N1612 C1608 1.427 . S
N1612 C1609 1.384 . S
N1613 C1605 1.427 . S
N1613 C1611 1.384 . S
H1614 C1620 0.930 . S
H1615 C1624 0.930 . S
H1616 C1629 0.929 . S
H1617 C1627 0.929 . S
H1618 C1622 0.929 . S
H1619 C1628 0.929 . S
C1620 H1614 0.930 . S
C1620 C1621 1.367 . S
C1620 C1628 1.378 . S
C1621 C1620 1.367 . S
C1621 C1629 1.433 . S
C1622 H1618 0.929 . S
C1622 C1624 1.378 . S
C1622 C1626 1.350 . S
C1623 C1626 1.463 . S
C1623 C1628 1.350 . S
C1623 N1631 1.427 . S
C1624 H1615 0.930 . S
C1624 C1622 1.378 . S
C1624 C1625 1.367 . S
C1625 C1624 1.367 . S
C1625 C1627 1.433 . S
C1626 C1622 1.350 . S
C1626 C1623 1.463 . S
C1626 N1630 1.427 . S
C1627 H1617 0.929 . S
C1627 C1625 1.433 . S
C1627 N1630 1.384 . S
C1628 H1619 0.929 . S
C1628 C1620 1.378 . S
C1628 C1623 1.350 . S
C1629 H1616 0.929 . S
C1629 C1621 1.433 . S
C1629 N1631 1.384 . S
N1630 C1626 1.427 . S
N1630 C1627 1.384 . S
N1631 C1623 1.427 . S
N1631 C1629 1.384 . S
H1632 C1638 0.930 . S
H1633 C1642 0.930 . S
H1634 C1647 0.929 . S
H1635 C1645 0.929 . S
H1636 C1640 0.929 . S
H1637 C1646 0.929 . S
C1638 H1632 0.930 . S
C1638 C1639 1.367 . S
C1638 C1646 1.378 . S
C1639 C1638 1.367 . S
C1639 C1647 1.433 . S
C1640 H1636 0.929 . S
C1640 C1642 1.378 . S
C1640 C1644 1.350 . S
C1641 C1644 1.463 . S
C1641 C1646 1.350 . S
C1641 N1649 1.427 . S
C1642 H1633 0.930 . S
C1642 C1640 1.378 . S
C1642 C1643 1.367 . S
C1643 C1642 1.367 . S
C1643 C1645 1.433 . S
C1644 C1640 1.350 . S
C1644 C1641 1.463 . S
C1644 N1648 1.427 . S
C1645 H1635 0.929 . S
C1645 C1643 1.433 . S
C1645 N1648 1.384 . S
C1646 H1637 0.929 . S
C1646 C1638 1.378 . S
C1646 C1641 1.350 . S
C1647 H1634 0.929 . S
C1647 C1639 1.433 . S
C1647 N1649 1.384 . S
N1648 C1644 1.427 . S
N1648 C1645 1.384 . S
N1649 C1641 1.427 . S
N1649 C1647 1.384 . S
H1650 C1656 0.930 . S
H1651 C1660 0.930 . S
H1652 C1665 0.929 . S
H1653 C1663 0.929 . S
H1654 C1658 0.929 . S
H1655 C1664 0.929 . S
C1656 H1650 0.930 . S
C1656 C1657 1.367 . S
C1656 C1664 1.378 . S
C1657 C1656 1.367 . S
C1657 C1665 1.433 . S
C1658 H1654 0.929 . S
C1658 C1660 1.378 . S
C1658 C1662 1.350 . S
C1659 C1662 1.463 . S
C1659 C1664 1.350 . S
C1659 N1667 1.427 . S
C1660 H1651 0.930 . S
C1660 C1658 1.378 . S
C1660 C1661 1.367 . S
C1661 C1660 1.367 . S
C1661 C1663 1.433 1_554 S
C1662 C1658 1.350 . S
C1662 C1659 1.463 . S
C1662 N1666 1.427 . S
C1663 H1653 0.929 . S
C1663 C1661 1.433 1_556 S
C1663 N1666 1.384 1_556 S
C1664 H1655 0.929 . S
C1664 C1656 1.378 . S
C1664 C1659 1.350 . S
C1665 H1652 0.929 . S
C1665 C1657 1.433 . S
C1665 N1667 1.384 . S
N1666 C1662 1.427 . S
N1666 C1663 1.384 1_554 S
N1667 C1659 1.427 . S
N1667 C1665 1.384 . S
H1668 C1674 0.930 . S
H1669 C1678 0.930 . S
H1670 C1683 0.929 . S
H1671 C1681 0.929 . S
H1672 C1676 0.929 . S
H1673 C1682 0.929 . S
C1674 H1668 0.930 . S
C1674 C1675 1.367 . S
C1674 C1682 1.378 . S
C1675 C1674 1.367 . S
C1675 C1683 1.433 . S
C1676 H1672 0.929 . S
C1676 C1678 1.378 . S
C1676 C1680 1.350 . S
C1677 C1680 1.463 . S
C1677 C1682 1.350 . S
C1677 N1685 1.427 . S
C1678 H1669 0.930 . S
C1678 C1676 1.378 . S
C1678 C1679 1.367 . S
C1679 C1678 1.367 . S
C1679 C1681 1.433 . S
C1680 C1676 1.350 . S
C1680 C1677 1.463 . S
C1680 N1684 1.427 . S
C1681 H1671 0.929 . S
C1681 C1679 1.433 . S
C1681 N1684 1.384 . S
C1682 H1673 0.929 . S
C1682 C1674 1.378 . S
C1682 C1677 1.350 . S
C1683 H1670 0.929 . S
C1683 C1675 1.433 . S
C1683 N1685 1.384 . S
N1684 C1680 1.427 . S
N1684 C1681 1.384 . S
N1685 C1677 1.427 . S
N1685 C1683 1.384 . S
H1686 C1692 0.930 . S
H1687 C1696 0.930 . S
H1688 C1701 0.929 . S
H1689 C1699 0.929 . S
H1690 C1694 0.929 . S
H1691 C1700 0.929 1_554 S
C1692 H1686 0.930 . S
C1692 C1693 1.367 1_554 S
C1692 C1700 1.378 1_554 S
C1693 C1692 1.367 1_556 S
C1693 C1701 1.433 . S
C1694 H1690 0.929 . S
C1694 C1696 1.378 . S
C1694 C1698 1.350 . S
C1695 C1698 1.463 . S
C1695 C1700 1.350 . S
C1695 N1703 1.427 . S
C1696 H1687 0.930 . S
C1696 C1694 1.378 . S
C1696 C1697 1.367 . S
C1697 C1696 1.367 . S
C1697 C1699 1.433 . S
C1698 C1694 1.350 . S
C1698 C1695 1.463 . S
C1698 N1702 1.427 . S
C1699 H1689 0.929 . S
C1699 C1697 1.433 . S
C1699 N1702 1.384 . S
C1700 H1691 0.929 1_556 S
C1700 C1692 1.378 1_556 S
C1700 C1695 1.350 . S
C1701 H1688 0.929 . S
C1701 C1693 1.433 . S
C1701 N1703 1.384 . S
N1702 C1698 1.427 . S
N1702 C1699 1.384 . S
N1703 C1695 1.427 . S
N1703 C1701 1.384 . S
H1704 C1710 0.930 . S
H1705 C1714 0.930 . S
H1706 C1719 0.929 . S
H1707 C1717 0.929 . S
H1708 C1712 0.929 . S
H1709 C1718 0.929 . S
C1710 H1704 0.930 . S
C1710 C1711 1.367 . S
C1710 C1718 1.378 . S
C1711 C1710 1.367 . S
C1711 C1719 1.433 . S
C1712 H1708 0.929 . S
C1712 C1714 1.378 . S
C1712 C1716 1.350 . S
C1713 C1716 1.463 . S
C1713 C1718 1.350 . S
C1713 N1721 1.427 . S
C1714 H1705 0.930 . S
C1714 C1712 1.378 . S
C1714 C1715 1.367 . S
C1715 C1714 1.367 . S
C1715 C1717 1.433 . S
C1716 C1712 1.350 . S
C1716 C1713 1.463 . S
C1716 N1720 1.427 . S
C1717 H1707 0.929 . S
C1717 C1715 1.433 . S
C1717 N1720 1.384 . S
C1718 H1709 0.929 . S
C1718 C1710 1.378 . S
C1718 C1713 1.350 . S
C1719 H1706 0.929 . S
C1719 C1711 1.433 . S
C1719 N1721 1.384 . S
N1720 C1716 1.427 . S
N1720 C1717 1.384 . S
N1721 C1713 1.427 . S
N1721 C1719 1.384 . S
H1722 C1728 0.930 . S
H1723 C1732 0.939 . S
H1724 C1737 0.929 . S
H1725 C1735 0.929 . S
H1726 C1730 0.929 . S
H1727 C1736 0.929 . S
C1728 H1722 0.930 . S
C1728 C1729 1.367 . S
C1728 C1736 1.378 . S
C1729 C1728 1.367 . S
C1729 C1737 1.433 . S
C1730 H1726 0.929 . S
C1730 C1732 1.371 1_655 S
C1730 C1734 1.350 . S
C1731 C1734 1.463 . S
C1731 C1736 1.350 . S
C1731 N1739 1.427 . S
C1732 H1723 0.939 . S
C1732 C1730 1.371 1_455 S
C1732 C1733 1.365 1_455 S
C1733 C1732 1.365 1_655 S
C1733 C1735 1.433 . S
C1734 C1730 1.350 . S
C1734 C1731 1.463 . S
C1734 N1738 1.427 . S
C1735 H1725 0.929 . S
C1735 C1733 1.433 . S
C1735 N1738 1.384 . S
C1736 H1727 0.929 . S
C1736 C1728 1.378 . S
C1736 C1731 1.350 . S
C1737 H1724 0.929 . S
C1737 C1729 1.433 . S
C1737 N1739 1.384 . S
N1738 C1734 1.427 . S
N1738 C1735 1.384 . S
N1739 C1731 1.427 . S
N1739 C1737 1.384 . S
H1740 C1746 0.930 . S
H1741 C1750 0.930 . S
H1742 C1755 0.929 . S
H1743 C1753 0.929 . S
H1744 C1748 0.929 . S
H1745 C1754 0.929 . S
C1746 H1740 0.930 . S
C1746 C1747 1.367 . S
C1746 C1754 1.378 . S
C1747 C1746 1.367 . S
C1747 C1755 1.433 . S
C1748 H1744 0.929 . S
C1748 C1750 1.378 . S
C1748 C1752 1.350 . S
C1749 C1752 1.463 . S
C1749 C1754 1.350 . S
C1749 N1757 1.427 . S
C1750 H1741 0.930 . S
C1750 C1748 1.378 . S
C1750 C1751 1.367 . S
C1751 C1750 1.367 . S
C1751 C1753 1.433 . S
C1752 C1748 1.350 . S
C1752 C1749 1.463 . S
C1752 N1756 1.427 . S
C1753 H1743 0.929 . S
C1753 C1751 1.433 . S
C1753 N1756 1.384 . S
C1754 H1745 0.929 . S
C1754 C1746 1.378 . S
C1754 C1749 1.350 . S
C1755 H1742 0.929 . S
C1755 C1747 1.433 . S
C1755 N1757 1.384 . S
N1756 C1752 1.427 . S
N1756 C1753 1.384 . S
N1757 C1749 1.427 . S
N1757 C1755 1.384 . S
H1758 C1764 0.930 . S
H1759 C1768 0.930 . S
H1760 C1773 0.929 . S
H1761 C1771 0.929 . S
H1762 C1766 0.929 . S
H1763 C1772 0.929 . S
C1764 H1758 0.930 . S
C1764 C1765 1.367 . S
C1764 C1772 1.378 . S
C1765 C1764 1.367 . S
C1765 C1773 1.433 . S
C1766 H1762 0.929 . S
C1766 C1768 1.378 . S
C1766 C1770 1.350 . S
C1767 C1770 1.463 . S
C1767 C1772 1.350 . S
C1767 N1775 1.427 . S
C1768 H1759 0.930 . S
C1768 C1766 1.378 . S
C1768 C1769 1.367 . S
C1769 C1768 1.367 . S
C1769 C1771 1.433 . S
C1770 C1766 1.350 . S
C1770 C1767 1.463 . S
C1770 N1774 1.427 . S
C1771 H1761 0.929 . S
C1771 C1769 1.433 . S
C1771 N1774 1.384 . S
C1772 H1763 0.929 . S
C1772 C1764 1.378 . S
C1772 C1767 1.350 . S
C1773 H1760 0.929 . S
C1773 C1765 1.433 . S
C1773 N1775 1.384 . S
N1774 C1770 1.427 . S
N1774 C1771 1.384 . S
N1775 C1767 1.427 . S
N1775 C1773 1.384 . S
H1776 C1782 0.930 . S
H1777 C1786 0.930 . S
H1778 C1791 0.929 . S
H1779 C1789 0.929 . S
H1780 C1784 0.929 . S
H1781 C1790 0.929 . S
C1782 H1776 0.930 . S
C1782 C1783 1.367 . S
C1782 C1790 1.378 . S
C1783 C1782 1.367 . S
C1783 C1791 1.433 . S
C1784 H1780 0.929 . S
C1784 C1786 1.378 . S
C1784 C1788 1.350 . S
C1785 C1788 1.463 . S
C1785 C1790 1.350 . S
C1785 N1793 1.427 . S
C1786 H1777 0.930 . S
C1786 C1784 1.378 . S
C1786 C1787 1.367 . S
C1787 C1786 1.367 . S
C1787 C1789 1.433 . S
C1788 C1784 1.350 . S
C1788 C1785 1.463 . S
C1788 N1792 1.427 . S
C1789 H1779 0.929 . S
C1789 C1787 1.433 . S
C1789 N1792 1.384 . S
C1790 H1781 0.929 . S
C1790 C1782 1.378 . S
C1790 C1785 1.350 . S
C1791 H1778 0.929 . S
C1791 C1783 1.433 . S
C1791 N1793 1.384 . S
N1792 C1788 1.427 . S
N1792 C1789 1.384 . S
N1793 C1785 1.427 . S
N1793 C1791 1.384 . S
H1794 C1800 0.930 . S
H1795 C1804 0.930 . S
H1796 C1809 0.929 . S
H1797 C1807 0.929 . S
H1798 C1802 0.929 . S
H1799 C1808 0.929 . S
C1800 H1794 0.930 . S
C1800 C1801 1.367 . S
C1800 C1808 1.378 . S
C1801 C1800 1.367 . S
C1801 C1809 1.433 1_565 S
C1802 H1798 0.929 . S
C1802 C1804 1.378 . S
C1802 C1806 1.350 . S
C1803 C1806 1.463 . S
C1803 C1808 1.350 . S
C1803 N1811 1.463 . S
C1804 H1795 0.930 . S
C1804 C1802 1.378 . S
C1804 C1805 1.367 . S
C1805 C1804 1.367 . S
C1805 C1807 1.433 . S
C1806 C1802 1.350 . S
C1806 C1803 1.463 . S
C1806 N1810 1.427 . S
C1807 H1797 0.929 . S
C1807 C1805 1.433 . S
C1807 N1810 1.384 . S
C1808 H1799 0.929 . S
C1808 C1800 1.378 . S
C1808 C1803 1.350 . S
C1809 H1796 0.929 . S
C1809 C1801 1.433 1_545 S
C1809 N1811 1.367 1_545 S
N1810 C1806 1.427 . S
N1810 C1807 1.384 . S
N1811 C1803 1.463 . S
N1811 C1809 1.367 1_565 S
H1812 C1818 0.930 . S
H1813 C1822 0.930 . S
H1814 C1827 0.929 . S
H1815 C1825 0.929 . S
H1816 C1820 0.929 . S
H1817 C1826 0.929 . S
C1818 H1812 0.930 . S
C1818 C1819 1.367 . S
C1818 C1826 1.378 . S
C1819 C1818 1.367 . S
C1819 C1827 1.433 . S
C1820 H1816 0.929 . S
C1820 C1822 1.378 1_545 S
C1820 C1824 1.350 . S
C1821 C1824 1.463 . S
C1821 C1826 1.350 . S
C1821 N1829 1.427 . S
C1822 H1813 0.930 . S
C1822 C1820 1.378 1_565 S
C1822 C1823 1.367 1_565 S
C1823 C1822 1.367 1_545 S
C1823 C1825 1.433 . S
C1824 C1820 1.350 . S
C1824 C1821 1.463 . S
C1824 N1828 1.427 . S
C1825 H1815 0.929 . S
C1825 C1823 1.433 . S
C1825 N1828 1.384 . S
C1826 H1817 0.929 . S
C1826 C1818 1.378 . S
C1826 C1821 1.350 . S
C1827 H1814 0.929 . S
C1827 C1819 1.433 . S
C1827 N1829 1.384 . S
N1828 C1824 1.427 . S
N1828 C1825 1.384 . S
N1829 C1821 1.427 . S
N1829 C1827 1.384 . S
H1830 C1836 0.930 . S
H1831 C1840 0.930 . S
H1832 C1845 0.929 . S
H1833 C1843 0.929 . S
H1834 C1838 0.929 . S
H1835 C1844 0.929 . S
C1836 H1830 0.930 . S
C1836 C1837 1.367 . S
C1836 C1844 1.378 . S
C1837 C1836 1.367 . S
C1837 C1845 1.433 . S
C1838 H1834 0.929 . S
C1838 C1840 1.378 . S
C1838 C1842 1.350 . S
C1839 C1842 1.463 . S
C1839 C1844 1.350 . S
C1839 N1847 1.427 . S
C1840 H1831 0.930 . S
C1840 C1838 1.378 . S
C1840 C1841 1.367 . S
C1841 C1840 1.367 . S
C1841 C1843 1.433 . S
C1842 C1838 1.350 . S
C1842 C1839 1.463 . S
C1842 N1846 1.427 . S
C1843 H1833 0.929 . S
C1843 C1841 1.433 . S
C1843 N1846 1.384 . S
C1844 H1835 0.929 . S
C1844 C1836 1.378 . S
C1844 C1839 1.350 . S
C1845 H1832 0.929 . S
C1845 C1837 1.433 . S
C1845 N1847 1.384 . S
N1846 C1842 1.427 . S
N1846 C1843 1.384 . S
N1847 C1839 1.427 . S
N1847 C1845 1.384 . S
H1848 C1854 0.930 . S
H1849 C1858 0.930 . S
H1850 C1863 0.929 . S
H1851 C1861 0.929 . S
H1852 C1856 0.929 . S
H1853 C1862 0.929 . S
C1854 H1848 0.930 . S
C1854 C1855 1.367 . S
C1854 C1862 1.378 . S
C1855 C1854 1.367 . S
C1855 C1863 1.433 . S
C1856 H1852 0.929 . S
C1856 C1858 1.378 . S
C1856 C1860 1.350 . S
C1857 C1860 1.463 . S
C1857 C1862 1.350 . S
C1857 N1865 1.427 . S
C1858 H1849 0.930 . S
C1858 C1856 1.378 . S
C1858 C1859 1.367 . S
C1859 C1858 1.367 . S
C1859 C1861 1.433 . S
C1860 C1856 1.350 . S
C1860 C1857 1.463 . S
C1860 N1864 1.427 . S
C1861 H1851 0.929 . S
C1861 C1859 1.433 . S
C1861 N1864 1.384 . S
C1862 H1853 0.929 . S
C1862 C1854 1.378 . S
C1862 C1857 1.350 . S
C1863 H1850 0.929 . S
C1863 C1855 1.433 . S
C1863 N1865 1.384 . S
N1864 C1860 1.427 . S
N1864 C1861 1.384 . S
N1865 C1857 1.427 . S
N1865 C1863 1.384 . S
H1866 C1872 0.930 . S
H1867 C1876 0.930 . S
H1868 C1881 0.929 . S
H1869 C1879 0.929 . S
H1870 C1874 0.929 . S
H1871 C1880 0.929 . S
C1872 H1866 0.930 . S
C1872 C1873 1.367 . S
C1872 C1880 1.378 . S
C1873 C1872 1.367 . S
C1873 C1881 1.433 . S
C1874 H1870 0.929 . S
C1874 C1876 1.378 . S
C1874 C1878 1.350 . S
C1875 C1878 1.463 . S
C1875 C1880 1.350 . S
C1875 N1883 1.427 . S
C1876 H1867 0.930 . S
C1876 C1874 1.378 . S
C1876 C1877 1.367 . S
C1877 C1876 1.367 . S
C1877 C1879 1.433 1_556 S
C1878 C1874 1.350 . S
C1878 C1875 1.463 . S
C1878 N1882 1.427 . S
C1879 H1869 0.929 . S
C1879 C1877 1.433 1_554 S
C1879 N1882 1.384 1_554 S
C1880 H1871 0.929 . S
C1880 C1872 1.378 . S
C1880 C1875 1.350 . S
C1881 H1868 0.929 . S
C1881 C1873 1.433 . S
C1881 N1883 1.384 . S
N1882 C1878 1.427 . S
N1882 C1879 1.384 1_556 S
N1883 C1875 1.427 . S
N1883 C1881 1.384 . S
H1884 C1890 0.930 . S
H1885 C1894 0.930 . S
H1886 C1899 0.929 . S
H1887 C1897 0.929 . S
H1888 C1892 0.929 . S
H1889 C1898 0.929 . S
C1890 H1884 0.930 . S
C1890 C1891 1.367 . S
C1890 C1898 1.378 . S
C1891 C1890 1.367 . S
C1891 C1899 1.433 . S
C1892 H1888 0.929 . S
C1892 C1894 1.378 . S
C1892 C1896 1.350 . S
C1893 C1896 1.463 . S
C1893 C1898 1.350 . S
C1893 N1901 1.427 . S
C1894 H1885 0.930 . S
C1894 C1892 1.378 . S
C1894 C1895 1.367 . S
C1895 C1894 1.367 . S
C1895 C1897 1.433 . S
C1896 C1892 1.350 . S
C1896 C1893 1.463 . S
C1896 N1900 1.427 . S
C1897 H1887 0.929 . S
C1897 C1895 1.433 . S
C1897 N1900 1.384 . S
C1898 H1889 0.929 . S
C1898 C1890 1.378 . S
C1898 C1893 1.350 . S
C1899 H1886 0.929 . S
C1899 C1891 1.433 . S
C1899 N1901 1.384 . S
N1900 C1896 1.427 . S
N1900 C1897 1.384 . S
N1901 C1893 1.427 . S
N1901 C1899 1.384 . S
H1902 C1908 0.930 . S
H1903 C1912 0.930 . S
H1904 C1917 0.929 . S
H1905 C1915 0.929 . S
H1906 C1910 0.929 1_556 S
H1907 C1916 0.929 . S
C1908 H1902 0.930 . S
C1908 C1909 1.367 . S
C1908 C1916 1.378 . S
C1909 C1908 1.367 . S
C1909 C1917 1.433 . S
C1910 H1906 0.929 1_554 S
C1910 C1912 1.378 1_554 S
C1910 C1914 1.350 . S
C1911 C1914 1.463 . S
C1911 C1916 1.350 . S
C1911 N1919 1.427 . S
C1912 H1903 0.930 . S
C1912 C1910 1.378 1_556 S
C1912 C1913 1.367 1_556 S
C1913 C1912 1.367 1_554 S
C1913 C1915 1.433 . S
C1914 C1910 1.350 . S
C1914 C1911 1.463 . S
C1914 N1918 1.427 . S
C1915 H1905 0.929 . S
C1915 C1913 1.433 . S
C1915 N1918 1.384 . S
C1916 H1907 0.929 . S
C1916 C1908 1.378 . S
C1916 C1911 1.350 . S
C1917 H1904 0.929 . S
C1917 C1909 1.433 . S
C1917 N1919 1.384 . S
N1918 C1914 1.427 . S
N1918 C1915 1.384 . S
N1919 C1911 1.427 . S
N1919 C1917 1.384 . S
H1920 C1926 0.930 . S
H1921 C1930 0.930 . S
H1922 C1935 0.929 . S
H1923 C1933 0.929 . S
H1924 C1928 0.929 . S
H1925 C1934 0.929 . S
C1926 H1920 0.930 . S
C1926 C1927 1.367 . S
C1926 C1934 1.378 . S
C1927 C1926 1.367 . S
C1927 C1935 1.433 . S
C1928 H1924 0.929 . S
C1928 C1930 1.378 . S
C1928 C1932 1.350 . S
C1929 C1932 1.463 . S
C1929 C1934 1.350 . S
C1929 N1937 1.427 . S
C1930 H1921 0.930 . S
C1930 C1928 1.378 . S
C1930 C1931 1.367 . S
C1931 C1930 1.367 . S
C1931 C1933 1.433 . S
C1932 C1928 1.350 . S
C1932 C1929 1.463 . S
C1932 N1936 1.427 . S
C1933 H1923 0.929 . S
C1933 C1931 1.433 . S
C1933 N1936 1.384 . S
C1934 H1925 0.929 . S
C1934 C1926 1.378 . S
C1934 C1929 1.350 . S
C1935 H1922 0.929 . S
C1935 C1927 1.433 . S
C1935 N1937 1.384 . S
N1936 C1932 1.427 . S
N1936 C1933 1.384 . S
N1937 C1929 1.427 . S
N1937 C1935 1.384 . S
H1938 C1944 0.930 1_655 S
H1939 C1948 0.930 . S
H1940 C1953 0.929 . S
H1941 C1951 0.929 . S
H1942 C1946 0.929 . S
H1943 C1952 0.929 . S
C1944 H1938 0.930 1_455 S
C1944 C1945 1.367 . S
C1944 C1952 1.378 . S
C1945 C1944 1.367 . S
C1945 C1953 1.433 . S
C1946 H1942 0.929 . S
C1946 C1948 1.378 . S
C1946 C1950 1.350 . S
C1947 C1950 1.463 . S
C1947 C1952 1.350 . S
C1947 N1955 1.427 . S
C1948 H1939 0.930 . S
C1948 C1946 1.378 . S
C1948 C1949 1.367 . S
C1949 C1948 1.367 . S
C1949 C1951 1.433 . S
C1950 C1946 1.350 . S
C1950 C1947 1.463 . S
C1950 N1954 1.427 . S
C1951 H1941 0.929 . S
C1951 C1949 1.433 . S
C1951 N1954 1.384 . S
C1952 H1943 0.929 . S
C1952 C1944 1.378 . S
C1952 C1947 1.350 . S
C1953 H1940 0.929 . S
C1953 C1945 1.433 . S
C1953 N1955 1.384 . S
N1954 C1950 1.427 . S
N1954 C1951 1.384 . S
N1955 C1947 1.427 . S
N1955 C1953 1.384 . S
H1956 C1962 0.930 . S
H1957 C1966 0.930 . S
H1958 C1971 0.929 . S
H1959 C1969 0.929 . S
H1960 C1964 0.929 . S
H1961 C1970 0.929 . S
C1962 H1956 0.930 . S
C1962 C1963 1.367 . S
C1962 C1970 1.378 . S
C1963 C1962 1.367 . S
C1963 C1971 1.433 . S
C1964 H1960 0.929 . S
C1964 C1966 1.378 . S
C1964 C1968 1.350 . S
C1965 C1968 1.463 . S
C1965 C1970 1.350 . S
C1965 N1973 1.427 . S
C1966 H1957 0.930 . S
C1966 C1964 1.378 . S
C1966 C1967 1.367 . S
C1967 C1966 1.367 . S
C1967 C1969 1.433 . S
C1968 C1964 1.350 . S
C1968 C1965 1.463 . S
C1968 N1972 1.427 . S
C1969 H1959 0.929 . S
C1969 C1967 1.433 . S
C1969 N1972 1.384 . S
C1970 H1961 0.929 . S
C1970 C1962 1.378 . S
C1970 C1965 1.350 . S
C1971 H1958 0.929 . S
C1971 C1963 1.433 . S
C1971 N1973 1.384 . S
N1972 C1968 1.427 . S
N1972 C1969 1.384 . S
N1973 C1965 1.427 . S
N1973 C1971 1.384 . S
H1974 C1980 0.930 . S
H1975 C1984 0.930 . S
H1976 C1989 0.929 . S
H1977 C1987 0.929 . S
H1978 C1982 0.929 . S
H1979 C1988 0.929 . S
C1980 H1974 0.930 . S
C1980 C1981 1.367 . S
C1980 C1988 1.378 . S
C1981 C1980 1.367 . S
C1981 C1989 1.433 . S
C1982 H1978 0.929 . S
C1982 C1984 1.378 . S
C1982 C1986 1.350 . S
C1983 C1986 1.463 . S
C1983 C1988 1.350 . S
C1983 N1991 1.427 . S
C1984 H1975 0.930 . S
C1984 C1982 1.378 . S
C1984 C1985 1.367 . S
C1985 C1984 1.367 . S
C1985 C1987 1.433 . S
C1986 C1982 1.350 . S
C1986 C1983 1.463 . S
C1986 N1990 1.427 . S
C1987 H1977 0.929 . S
C1987 C1985 1.433 . S
C1987 N1990 1.384 . S
C1988 H1979 0.929 . S
C1988 C1980 1.378 . S
C1988 C1983 1.350 . S
C1989 H1976 0.929 . S
C1989 C1981 1.433 . S
C1989 N1991 1.384 . S
N1990 C1986 1.427 . S
N1990 C1987 1.384 . S
N1991 C1983 1.427 . S
N1991 C1989 1.384 . S
H1992 C1998 0.930 . S
H1993 C2002 0.930 . S
H1994 C2007 0.929 . S
H1995 C2005 0.929 . S
H1996 C2000 0.929 . S
H1997 C2006 0.929 . S
C1998 H1992 0.930 . S
C1998 C1999 1.367 . S
C1998 C2006 1.378 . S
C1999 C1998 1.367 . S
C1999 C2007 1.433 . S
C2000 H1996 0.929 . S
C2000 C2002 1.378 . S
C2000 C2004 1.350 . S
C2001 C2004 1.463 . S
C2001 C2006 1.350 . S
C2001 N2009 1.427 . S
C2002 H1993 0.930 . S
C2002 C2000 1.378 . S
C2002 C2003 1.367 . S
C2003 C2002 1.367 . S
C2003 C2005 1.433 . S
C2004 C2000 1.350 . S
C2004 C2001 1.463 . S
C2004 N2008 1.427 . S
C2005 H1995 0.929 . S
C2005 C2003 1.433 . S
C2005 N2008 1.384 . S
C2006 H1997 0.929 . S
C2006 C1998 1.378 . S
C2006 C2001 1.350 . S
C2007 H1994 0.929 . S
C2007 C1999 1.433 . S
C2007 N2009 1.384 . S
N2008 C2004 1.427 . S
N2008 C2005 1.384 . S
N2009 C2001 1.427 . S
N2009 C2007 1.384 . S
H2010 C2016 0.930 . S
H2011 C2020 0.930 . S
H2012 C2025 0.929 . S
H2013 C2023 0.929 . S
H2014 C2018 0.929 1_565 S
H2015 C2024 0.929 . S
C2016 H2010 0.930 . S
C2016 C2017 1.367 . S
C2016 C2024 1.378 . S
C2017 C2016 1.367 . S
C2017 C2025 1.433 . S
C2018 H2014 0.929 1_545 S
C2018 C2020 1.378 1_545 S
C2018 C2022 1.350 . S
C2019 C2022 1.463 . S
C2019 C2024 1.350 . S
C2019 N2027 1.427 . S
C2020 H2011 0.930 . S
C2020 C2018 1.378 1_565 S
C2020 C2021 1.367 1_565 S
C2021 C2020 1.367 1_545 S
C2021 C2023 1.433 . S
C2022 C2018 1.350 . S
C2022 C2019 1.463 . S
C2022 N2026 1.427 . S
C2023 H2013 0.929 . S
C2023 C2021 1.433 . S
C2023 N2026 1.384 . S
C2024 H2015 0.929 . S
C2024 C2016 1.378 . S
C2024 C2019 1.350 . S
C2025 H2012 0.929 . S
C2025 C2017 1.433 . S
C2025 N2027 1.384 . S
N2026 C2022 1.427 . S
N2026 C2023 1.384 . S
N2027 C2019 1.427 . S
N2027 C2025 1.384 . S
H2028 C2034 0.930 . S
H2029 C2038 0.930 . S
H2030 C2043 0.929 . S
H2031 C2041 0.929 . S
H2032 C2036 0.929 . S
H2033 C2042 0.929 . S
C2034 H2028 0.930 . S
C2034 C2035 1.367 . S
C2034 C2042 1.378 . S
C2035 C2034 1.367 . S
C2035 C2043 1.433 . S
C2036 H2032 0.929 . S
C2036 C2038 1.378 . S
C2036 C2040 1.350 . S
C2037 C2040 1.463 . S
C2037 C2042 1.350 . S
C2037 N2045 1.427 . S
C2038 H2029 0.930 . S
C2038 C2036 1.378 . S
C2038 C2039 1.367 . S
C2039 C2038 1.367 . S
C2039 C2041 1.433 1_565 S
C2040 C2036 1.350 . S
C2040 C2037 1.463 . S
C2040 N2044 1.427 . S
C2041 H2031 0.929 . S
C2041 C2039 1.433 1_545 S
C2041 N2044 1.384 1_545 S
C2042 H2033 0.929 . S
C2042 C2034 1.378 . S
C2042 C2037 1.350 . S
C2043 H2030 0.929 . S
C2043 C2035 1.433 . S
C2043 N2045 1.384 . S
N2044 C2040 1.427 . S
N2044 C2041 1.384 1_565 S
N2045 C2037 1.427 . S
N2045 C2043 1.384 . S
H2046 C2052 0.930 . S
H2047 C2056 0.930 . S
H2048 C2061 0.929 . S
H2049 C2059 0.929 . S
H2050 C2054 0.929 . S
H2051 C2060 0.929 . S
C2052 H2046 0.930 . S
C2052 C2053 1.367 . S
C2052 C2060 1.378 . S
C2053 C2052 1.367 . S
C2053 C2061 1.433 . S
C2054 H2050 0.929 . S
C2054 C2056 1.378 . S
C2054 C2058 1.350 . S
C2055 C2058 1.463 . S
C2055 C2060 1.350 . S
C2055 N2063 1.427 . S
C2056 H2047 0.930 . S
C2056 C2054 1.378 . S
C2056 C2057 1.367 . S
C2057 C2056 1.367 . S
C2057 C2059 1.433 . S
C2058 C2054 1.350 . S
C2058 C2055 1.463 . S
C2058 N2062 1.427 . S
C2059 H2049 0.929 . S
C2059 C2057 1.433 . S
C2059 N2062 1.384 . S
C2060 H2051 0.929 . S
C2060 C2052 1.378 . S
C2060 C2055 1.350 . S
C2061 H2048 0.929 . S
C2061 C2053 1.433 . S
C2061 N2063 1.384 . S
N2062 C2058 1.427 . S
N2062 C2059 1.384 . S
N2063 C2055 1.427 . S
N2063 C2061 1.384 . S
H2064 C2070 0.930 . S
H2065 C2074 0.930 . S
H2066 C2079 0.929 . S
H2067 C2077 0.929 . S
H2068 C2072 0.929 . S
H2069 C2078 0.929 . S
C2070 H2064 0.930 . S
C2070 C2071 1.367 . S
C2070 C2078 1.378 . S
C2071 C2070 1.367 . S
C2071 C2079 1.433 . S
C2072 H2068 0.929 . S
C2072 C2074 1.378 . S
C2072 C2076 1.350 . S
C2073 C2076 1.463 . S
C2073 C2078 1.350 . S
C2073 N2081 1.427 . S
C2074 H2065 0.930 . S
C2074 C2072 1.378 . S
C2074 C2075 1.367 . S
C2075 C2074 1.367 . S
C2075 C2077 1.433 . S
C2076 C2072 1.350 . S
C2076 C2073 1.463 . S
C2076 N2080 1.427 . S
C2077 H2067 0.929 . S
C2077 C2075 1.433 . S
C2077 N2080 1.384 . S
C2078 H2069 0.929 . S
C2078 C2070 1.378 . S
C2078 C2073 1.350 . S
C2079 H2066 0.929 . S
C2079 C2071 1.433 . S
C2079 N2081 1.384 . S
N2080 C2076 1.427 . S
N2080 C2077 1.384 . S
N2081 C2073 1.427 . S
N2081 C2079 1.384 . S
H2082 C2088 0.930 . S
H2083 C2092 0.930 . S
H2084 C2097 0.929 . S
H2085 C2095 0.929 . S
H2086 C2090 0.929 . S
H2087 C2096 0.929 . S
C2088 H2082 0.930 . S
C2088 C2089 1.367 . S
C2088 C2096 1.378 . S
C2089 C2088 1.367 . S
C2089 C2097 1.433 . S
C2090 H2086 0.929 . S
C2090 C2092 1.378 . S
C2090 C2094 1.350 . S
C2091 C2094 1.463 . S
C2091 C2096 1.350 . S
C2091 N2099 1.427 . S
C2092 H2083 0.930 . S
C2092 C2090 1.378 . S
C2092 C2093 1.367 . S
C2093 C2092 1.367 . S
C2093 C2095 1.433 1_554 S
C2094 C2090 1.350 . S
C2094 C2091 1.463 . S
C2094 N2098 1.427 . S
C2095 H2085 0.929 . S
C2095 C2093 1.433 1_556 S
C2095 N2098 1.384 1_556 S
C2096 H2087 0.929 . S
C2096 C2088 1.378 . S
C2096 C2091 1.350 . S
C2097 H2084 0.929 . S
C2097 C2089 1.433 . S
C2097 N2099 1.384 . S
N2098 C2094 1.427 . S
N2098 C2095 1.384 1_554 S
N2099 C2091 1.427 . S
N2099 C2097 1.384 . S
H2100 C2106 0.930 . S
H2101 C2110 0.930 . S
H2102 C2115 0.929 . S
H2103 C2113 0.929 . S
H2104 C2108 0.929 . S
H2105 C2114 0.929 . S
C2106 H2100 0.930 . S
C2106 C2107 1.367 . S
C2106 C2114 1.378 . S
C2107 C2106 1.367 . S
C2107 C2115 1.433 . S
C2108 H2104 0.929 . S
C2108 C2110 1.378 . S
C2108 C2112 1.350 . S
C2109 C2112 1.463 . S
C2109 C2114 1.350 . S
C2109 N2117 1.427 . S
C2110 H2101 0.930 . S
C2110 C2108 1.378 . S
C2110 C2111 1.367 . S
C2111 C2110 1.367 . S
C2111 C2113 1.433 . S
C2112 C2108 1.350 . S
C2112 C2109 1.463 . S
C2112 N2116 1.427 . S
C2113 H2103 0.929 . S
C2113 C2111 1.433 . S
C2113 N2116 1.384 . S
C2114 H2105 0.929 . S
C2114 C2106 1.378 . S
C2114 C2109 1.350 . S
C2115 H2102 0.929 . S
C2115 C2107 1.433 . S
C2115 N2117 1.384 . S
N2116 C2112 1.427 . S
N2116 C2113 1.384 . S
N2117 C2109 1.427 . S
N2117 C2115 1.384 . S
H2118 C2124 0.930 . S
H2119 C2128 0.930 . S
H2120 C2133 0.929 . S
H2121 C2131 0.929 . S
H2122 C2126 0.929 . S
H2123 C2132 0.929 . S
C2124 H2118 0.930 . S
C2124 C2125 1.367 . S
C2124 C2132 1.378 . S
C2125 C2124 1.367 . S
C2125 C2133 1.433 . S
C2126 H2122 0.929 . S
C2126 C2128 1.378 1_556 S
C2126 C2130 1.350 . S
C2127 C2130 1.463 . S
C2127 C2132 1.350 . S
C2127 N2135 1.427 . S
C2128 H2119 0.930 . S
C2128 C2126 1.378 1_554 S
C2128 C2129 1.367 1_554 S
C2129 C2128 1.367 1_556 S
C2129 C2131 1.433 . S
C2130 C2126 1.350 . S
C2130 C2127 1.463 . S
C2130 N2134 1.427 . S
C2131 H2121 0.929 . S
C2131 C2129 1.433 . S
C2131 N2134 1.384 . S
C2132 H2123 0.929 . S
C2132 C2124 1.378 . S
C2132 C2127 1.350 . S
C2133 H2120 0.929 . S
C2133 C2125 1.433 . S
C2133 N2135 1.384 . S
N2134 C2130 1.427 . S
N2134 C2131 1.384 . S
N2135 C2127 1.427 . S
N2135 C2133 1.384 . S
H2136 C2142 0.930 . S
H2137 C2146 0.930 . S
H2138 C2151 0.929 . S
H2139 C2149 0.929 . S
H2140 C2144 0.929 . S
H2141 C2150 0.929 . S
C2142 H2136 0.930 . S
C2142 C2143 1.367 . S
C2142 C2150 1.378 . S
C2143 C2142 1.367 . S
C2143 C2151 1.433 . S
C2144 H2140 0.929 . S
C2144 C2146 1.378 . S
C2144 C2148 1.350 . S
C2145 C2148 1.463 . S
C2145 C2150 1.350 . S
C2145 N2153 1.427 . S
C2146 H2137 0.930 . S
C2146 C2144 1.378 . S
C2146 C2147 1.367 . S
C2147 C2146 1.367 . S
C2147 C2149 1.433 . S
C2148 C2144 1.350 . S
C2148 C2145 1.463 . S
C2148 N2152 1.427 . S
C2149 H2139 0.929 . S
C2149 C2147 1.433 . S
C2149 N2152 1.384 . S
C2150 H2141 0.929 . S
C2150 C2142 1.378 . S
C2150 C2145 1.350 . S
C2151 H2138 0.929 . S
C2151 C2143 1.433 . S
C2151 N2153 1.384 . S
N2152 C2148 1.427 . S
N2152 C2149 1.384 . S
N2153 C2145 1.427 . S
N2153 C2151 1.384 . S
H2154 C2160 0.930 . S
H2155 C2164 0.930 . S
H2156 C2169 0.929 . S
H2157 C2167 0.929 . S
H2158 C2162 0.929 . S
H2159 C2168 0.929 . S
C2160 H2154 0.930 . S
C2160 C2161 1.367 . S
C2160 C2168 1.378 . S
C2161 C2160 1.367 . S
C2161 C2169 1.433 . S
C2162 H2158 0.929 . S
C2162 C2164 1.378 . S
C2162 C2166 1.350 . S
C2163 C2166 1.463 . S
C2163 C2168 1.350 . S
C2163 N2171 1.427 . S
C2164 H2155 0.930 . S
C2164 C2162 1.378 . S
C2164 C2165 1.367 . S
C2165 C2164 1.367 . S
C2165 C2167 1.433 1_655 S
C2166 C2162 1.350 . S
C2166 C2163 1.463 . S
C2166 N2170 1.427 . S
C2167 H2157 0.929 . S
C2167 C2165 1.433 1_455 S
C2167 N2170 1.384 1_455 S
C2168 H2159 0.929 . S
C2168 C2160 1.378 . S
C2168 C2163 1.350 . S
C2169 H2156 0.929 . S
C2169 C2161 1.433 . S
C2169 N2171 1.384 . S
N2170 C2166 1.427 . S
N2170 C2167 1.384 1_655 S
N2171 C2163 1.427 . S
N2171 C2169 1.384 . S
H2172 C2178 0.930 . S
H2173 C2182 0.930 . S
H2174 C2187 0.926 . S
H2175 C2185 0.929 . S
H2176 C2180 0.929 . S
H2177 C2186 0.929 . S
C2178 H2172 0.930 . S
C2178 C2179 1.367 . S
C2178 C2186 1.378 . S
C2179 C2178 1.367 . S
C2179 C2187 1.434 1_455 S
C2180 H2176 0.929 . S
C2180 C2182 1.378 . S
C2180 C2184 1.350 . S
C2181 C2184 1.463 . S
C2181 C2186 1.350 . S
C2181 N2189 1.427 . S
C2182 H2173 0.930 . S
C2182 C2180 1.378 . S
C2182 C2183 1.367 . S
C2183 C2182 1.367 . S
C2183 C2185 1.433 . S
C2184 C2180 1.350 . S
C2184 C2181 1.463 . S
C2184 N2188 1.427 . S
C2185 H2175 0.929 . S
C2185 C2183 1.433 . S
C2185 N2188 1.384 . S
C2186 H2177 0.929 . S
C2186 C2178 1.378 . S
C2186 C2181 1.350 . S
C2187 H2174 0.926 . S
C2187 C2179 1.434 1_655 S
C2187 N2189 1.386 1_655 S
N2188 C2184 1.427 . S
N2188 C2185 1.384 . S
N2189 C2181 1.427 . S
N2189 C2187 1.386 1_455 S
H2190 C2196 0.930 . S
H2191 C2200 0.930 . S
H2192 C2205 0.929 . S
H2193 C2203 0.929 . S
H2194 C2198 0.929 . S
H2195 C2204 0.929 . S
C2196 H2190 0.930 . S
C2196 C2197 1.367 . S
C2196 C2204 1.378 . S
C2197 C2196 1.367 . S
C2197 C2205 1.433 . S
C2198 H2194 0.929 . S
C2198 C2200 1.378 . S
C2198 C2202 1.350 . S
C2199 C2202 1.463 . S
C2199 C2204 1.350 . S
C2199 N2207 1.427 . S
C2200 H2191 0.930 . S
C2200 C2198 1.378 . S
C2200 C2201 1.367 . S
C2201 C2200 1.367 . S
C2201 C2203 1.433 . S
C2202 C2198 1.350 . S
C2202 C2199 1.463 . S
C2202 N2206 1.427 . S
C2203 H2193 0.929 . S
C2203 C2201 1.433 . S
C2203 N2206 1.384 . S
C2204 H2195 0.929 . S
C2204 C2196 1.378 . S
C2204 C2199 1.350 . S
C2205 H2192 0.929 . S
C2205 C2197 1.433 . S
C2205 N2207 1.384 . S
N2206 C2202 1.427 . S
N2206 C2203 1.384 . S
N2207 C2199 1.427 . S
N2207 C2205 1.384 . S
H2208 C2214 0.930 . S
H2209 C2218 0.930 . S
H2210 C2223 0.929 . S
H2211 C2221 0.929 . S
H2212 C2216 0.929 . S
H2213 C2222 0.929 . S
C2214 H2208 0.930 . S
C2214 C2215 1.367 . S
C2214 C2222 1.378 . S
C2215 C2214 1.367 . S
C2215 C2223 1.433 . S
C2216 H2212 0.929 . S
C2216 C2218 1.378 . S
C2216 C2220 1.350 . S
C2217 C2220 1.463 . S
C2217 C2222 1.350 . S
C2217 N2225 1.427 . S
C2218 H2209 0.930 . S
C2218 C2216 1.378 . S
C2218 C2219 1.367 . S
C2219 C2218 1.367 . S
C2219 C2221 1.433 . S
C2220 C2216 1.350 . S
C2220 C2217 1.463 . S
C2220 N2224 1.427 . S
C2221 H2211 0.929 . S
C2221 C2219 1.433 . S
C2221 N2224 1.384 . S
C2222 H2213 0.929 . S
C2222 C2214 1.378 . S
C2222 C2217 1.350 . S
C2223 H2210 0.929 . S
C2223 C2215 1.433 . S
C2223 N2225 1.384 . S
N2224 C2220 1.427 . S
N2224 C2221 1.384 . S
N2225 C2217 1.427 . S
N2225 C2223 1.384 . S
H2226 C2232 0.930 . S
H2227 C2236 0.930 . S
H2228 C2241 0.929 . S
H2229 C2239 0.929 . S
H2230 C2234 0.929 . S
H2231 C2240 0.929 . S
C2232 H2226 0.930 . S
C2232 C2233 1.367 . S
C2232 C2240 1.378 . S
C2233 C2232 1.367 . S
C2233 C2241 1.433 . S
C2234 H2230 0.929 . S
C2234 C2236 1.378 1_565 S
C2234 C2238 1.350 . S
C2235 C2238 1.463 . S
C2235 C2240 1.350 . S
C2235 N2243 1.427 . S
C2236 H2227 0.930 . S
C2236 C2234 1.378 1_545 S
C2236 C2237 1.367 1_545 S
C2237 C2236 1.367 1_565 S
C2237 C2239 1.433 . S
C2238 C2234 1.350 . S
C2238 C2235 1.463 . S
C2238 N2242 1.427 . S
C2239 H2229 0.929 . S
C2239 C2237 1.433 . S
C2239 N2242 1.384 . S
C2240 H2231 0.929 . S
C2240 C2232 1.378 . S
C2240 C2235 1.350 . S
C2241 H2228 0.929 . S
C2241 C2233 1.433 . S
C2241 N2243 1.384 . S
N2242 C2238 1.427 . S
N2242 C2239 1.384 . S
N2243 C2235 1.427 . S
N2243 C2241 1.384 . S
H2244 C2250 0.930 . S
H2245 C2254 0.930 . S
H2246 C2259 0.929 1_565 S
H2247 C2257 0.929 . S
H2248 C2252 0.929 . S
H2249 C2258 0.929 . S
C2250 H2244 0.930 . S
C2250 C2251 1.367 . S
C2250 C2258 1.378 . S
C2251 C2250 1.367 . S
C2251 C2259 1.433 . S
C2252 H2248 0.929 . S
C2252 C2254 1.378 . S
C2252 C2256 1.350 . S
C2253 C2256 1.463 . S
C2253 C2258 1.350 . S
C2253 N2261 1.427 . S
C2254 H2245 0.930 . S
C2254 C2252 1.378 . S
C2254 C2255 1.367 . S
C2255 C2254 1.367 . S
C2255 C2257 1.433 . S
C2256 C2252 1.350 . S
C2256 C2253 1.463 . S
C2256 N2260 1.427 . S
C2257 H2247 0.929 . S
C2257 C2255 1.433 . S
C2257 N2260 1.384 . S
C2258 H2249 0.929 . S
C2258 C2250 1.378 . S
C2258 C2253 1.350 . S
C2259 H2246 0.929 1_545 S
C2259 C2251 1.433 . S
C2259 N2261 1.384 . S
N2260 C2256 1.427 . S
N2260 C2257 1.384 . S
N2261 C2253 1.427 . S
N2261 C2259 1.384 . S
H2262 C2268 0.930 . S
H2263 C2272 0.930 . S
H2264 C2277 0.929 . S
H2265 C2275 0.929 . S
H2266 C2270 0.929 . S
H2267 C2276 0.929 . S
C2268 H2262 0.930 . S
C2268 C2269 1.367 . S
C2268 C2276 1.378 . S
C2269 C2268 1.367 . S
C2269 C2277 1.433 . S
C2270 H2266 0.929 . S
C2270 C2272 1.378 . S
C2270 C2274 1.350 . S
C2271 C2274 1.463 . S
C2271 C2276 1.350 . S
C2271 N2279 1.427 . S
C2272 H2263 0.930 . S
C2272 C2270 1.378 . S
C2272 C2273 1.367 . S
C2273 C2272 1.367 . S
C2273 C2275 1.433 . S
C2274 C2270 1.350 . S
C2274 C2271 1.463 . S
C2274 N2278 1.427 . S
C2275 H2265 0.929 . S
C2275 C2273 1.433 . S
C2275 N2278 1.384 . S
C2276 H2267 0.929 . S
C2276 C2268 1.378 . S
C2276 C2271 1.350 . S
C2277 H2264 0.929 . S
C2277 C2269 1.433 . S
C2277 N2279 1.384 . S
N2278 C2274 1.427 . S
N2278 C2275 1.384 . S
N2279 C2271 1.427 . S
N2279 C2277 1.384 . S
H2280 C2286 0.930 . S
H2281 C2290 0.930 . S
H2282 C2295 0.929 . S
H2283 C2293 0.929 . S
H2284 C2288 0.929 . S
H2285 C2294 0.929 . S
C2286 H2280 0.930 . S
C2286 C2287 1.367 . S
C2286 C2294 1.378 . S
C2287 C2286 1.367 . S
C2287 C2295 1.433 . S
C2288 H2284 0.929 . S
C2288 C2290 1.378 . S
C2288 C2292 1.350 . S
C2289 C2292 1.463 . S
C2289 C2294 1.350 . S
C2289 N2297 1.427 . S
C2290 H2281 0.930 . S
C2290 C2288 1.378 . S
C2290 C2291 1.367 . S
C2291 C2290 1.367 . S
C2291 C2293 1.433 . S
C2292 C2288 1.350 . S
C2292 C2289 1.463 . S
C2292 N2296 1.427 . S
C2293 H2283 0.929 . S
C2293 C2291 1.433 . S
C2293 N2296 1.384 . S
C2294 H2285 0.929 . S
C2294 C2286 1.378 . S
C2294 C2289 1.350 . S
C2295 H2282 0.929 . S
C2295 C2287 1.433 . S
C2295 N2297 1.384 . S
N2296 C2292 1.427 . S
N2296 C2293 1.384 . S
N2297 C2289 1.427 . S
N2297 C2295 1.384 . S
H2298 C2304 0.930 . S
H2299 C2308 0.930 . S
H2300 C2313 0.929 1_554 S
H2301 C2311 0.929 . S
H2302 C2306 0.929 . S
H2303 C2312 0.929 . S
C2304 H2298 0.930 . S
C2304 C2305 1.367 . S
C2304 C2312 1.378 . S
C2305 C2304 1.367 . S
C2305 C2313 1.433 . S
C2306 H2302 0.929 . S
C2306 C2308 1.378 . S
C2306 C2310 1.350 . S
C2307 C2310 1.463 . S
C2307 C2312 1.350 . S
C2307 N2315 1.427 . S
C2308 H2299 0.930 . S
C2308 C2306 1.378 . S
C2308 C2309 1.367 . S
C2309 C2308 1.367 . S
C2309 C2311 1.433 . S
C2310 C2306 1.350 . S
C2310 C2307 1.463 . S
C2310 N2314 1.427 . S
C2311 H2301 0.929 . S
C2311 C2309 1.433 . S
C2311 N2314 1.384 . S
C2312 H2303 0.929 . S
C2312 C2304 1.378 . S
C2312 C2307 1.350 . S
C2313 H2300 0.929 1_556 S
C2313 C2305 1.433 . S
C2313 N2315 1.384 . S
N2314 C2310 1.427 . S
N2314 C2311 1.384 . S
N2315 C2307 1.427 . S
N2315 C2313 1.384 . S
H2316 C2322 0.930 . S
H2317 C2326 0.930 . S
H2318 C2331 0.929 . S
H2319 C2329 0.929 . S
H2320 C2324 0.929 . S
H2321 C2330 0.929 . S
C2322 H2316 0.930 . S
C2322 C2323 1.367 . S
C2322 C2330 1.378 . S
C2323 C2322 1.367 . S
C2323 C2331 1.433 . S
C2324 H2320 0.929 . S
C2324 C2326 1.378 . S
C2324 C2328 1.350 . S
C2325 C2328 1.463 . S
C2325 C2330 1.350 . S
C2325 N2333 1.427 . S
C2326 H2317 0.930 . S
C2326 C2324 1.378 . S
C2326 C2327 1.367 . S
C2327 C2326 1.367 . S
C2327 C2329 1.433 . S
C2328 C2324 1.350 . S
C2328 C2325 1.463 . S
C2328 N2332 1.427 . S
C2329 H2319 0.929 . S
C2329 C2327 1.433 . S
C2329 N2332 1.384 . S
C2330 H2321 0.929 . S
C2330 C2322 1.378 . S
C2330 C2325 1.350 . S
C2331 H2318 0.929 . S
C2331 C2323 1.433 . S
C2331 N2333 1.384 . S
N2332 C2328 1.427 . S
N2332 C2329 1.384 . S
N2333 C2325 1.427 . S
N2333 C2331 1.384 . S
H2334 C2340 0.930 . S
H2335 C2344 0.930 . S
H2336 C2349 0.929 . S
H2337 C2347 0.929 1_556 S
H2338 C2342 0.929 . S
H2339 C2348 0.929 . S
C2340 H2334 0.930 . S
C2340 C2341 1.367 . S
C2340 C2348 1.378 . S
C2341 C2340 1.367 . S
C2341 C2349 1.433 . S
C2342 H2338 0.929 . S
C2342 C2344 1.378 . S
C2342 C2346 1.350 . S
C2343 C2346 1.463 . S
C2343 C2348 1.350 . S
C2343 N2351 1.427 . S
C2344 H2335 0.930 . S
C2344 C2342 1.378 . S
C2344 C2345 1.367 . S
C2345 C2344 1.367 . S
C2345 C2347 1.433 . S
C2346 C2342 1.350 . S
C2346 C2343 1.463 . S
C2346 N2350 1.427 . S
C2347 H2337 0.929 1_554 S
C2347 C2345 1.433 . S
C2347 N2350 1.384 . S
C2348 H2339 0.929 . S
C2348 C2340 1.378 . S
C2348 C2343 1.350 . S
C2349 H2336 0.929 . S
C2349 C2341 1.433 . S
C2349 N2351 1.384 . S
N2350 C2346 1.427 . S
N2350 C2347 1.384 . S
N2351 C2343 1.427 . S
N2351 C2349 1.384 . S
H2352 C2358 0.930 . S
H2353 C2362 0.930 . S
H2354 C2367 0.929 . S
H2355 C2365 0.929 . S
H2356 C2360 0.929 . S
H2357 C2366 0.929 . S
C2358 H2352 0.930 . S
C2358 C2359 1.367 . S
C2358 C2366 1.378 . S
C2359 C2358 1.367 . S
C2359 C2367 1.433 . S
C2360 H2356 0.929 . S
C2360 C2362 1.378 . S
C2360 C2364 1.350 . S
C2361 C2364 1.463 . S
C2361 C2366 1.350 . S
C2361 N2369 1.427 . S
C2362 H2353 0.930 . S
C2362 C2360 1.378 . S
C2362 C2363 1.367 . S
C2363 C2362 1.367 . S
C2363 C2365 1.433 . S
C2364 C2360 1.350 . S
C2364 C2361 1.463 . S
C2364 N2368 1.427 . S
C2365 H2355 0.929 . S
C2365 C2363 1.433 . S
C2365 N2368 1.384 . S
C2366 H2357 0.929 . S
C2366 C2358 1.378 . S
C2366 C2361 1.350 . S
C2367 H2354 0.929 . S
C2367 C2359 1.433 . S
C2367 N2369 1.384 . S
N2368 C2364 1.427 . S
N2368 C2365 1.384 . S
N2369 C2361 1.427 . S
N2369 C2367 1.384 . S
H2370 C2376 0.930 1_655 S
H2371 C2380 0.930 . S
H2372 C2385 0.929 . S
H2373 C2383 0.929 . S
H2374 C2378 0.929 . S
H2375 C2384 0.929 . S
C2376 H2370 0.930 1_455 S
C2376 C2377 1.367 . S
C2376 C2384 1.378 . S
C2377 C2376 1.367 . S
C2377 C2385 1.433 . S
C2378 H2374 0.929 . S
C2378 C2380 1.378 . S
C2378 C2382 1.350 . S
C2379 C2382 1.463 . S
C2379 C2384 1.350 . S
C2379 N2387 1.427 . S
C2380 H2371 0.930 . S
C2380 C2378 1.378 . S
C2380 C2381 1.367 . S
C2381 C2380 1.367 . S
C2381 C2383 1.433 . S
C2382 C2378 1.350 . S
C2382 C2379 1.463 . S
C2382 N2386 1.427 . S
C2383 H2373 0.929 . S
C2383 C2381 1.433 . S
C2383 N2386 1.384 . S
C2384 H2375 0.929 . S
C2384 C2376 1.378 . S
C2384 C2379 1.350 . S
C2385 H2372 0.929 . S
C2385 C2377 1.433 . S
C2385 N2387 1.384 . S
N2386 C2382 1.427 . S
N2386 C2383 1.384 . S
N2387 C2379 1.427 . S
N2387 C2385 1.384 . S
H2388 C2394 0.930 . S
H2389 C2398 0.930 . S
H2390 C2403 0.929 . S
H2391 C2401 0.929 . S
H2392 C2396 0.929 . S
H2393 C2402 0.929 . S
C2394 H2388 0.930 . S
C2394 C2395 1.367 1_455 S
C2394 C2402 1.378 1_455 S
C2395 C2394 1.367 1_655 S
C2395 C2403 1.433 . S
C2396 H2392 0.929 . S
C2396 C2398 1.378 . S
C2396 C2400 1.350 . S
C2397 C2400 1.463 . S
C2397 C2402 1.350 . S
C2397 N2405 1.427 . S
C2398 H2389 0.930 . S
C2398 C2396 1.378 . S
C2398 C2399 1.367 . S
C2399 C2398 1.367 . S
C2399 C2401 1.433 . S
C2400 C2396 1.350 . S
C2400 C2397 1.463 . S
C2400 N2404 1.427 . S
C2401 H2391 0.929 . S
C2401 C2399 1.433 . S
C2401 N2404 1.384 . S
C2402 H2393 0.929 . S
C2402 C2394 1.378 1_655 S
C2402 C2397 1.350 . S
C2403 H2390 0.929 . S
C2403 C2395 1.433 . S
C2403 N2405 1.384 . S
N2404 C2400 1.427 . S
N2404 C2401 1.384 . S
N2405 C2397 1.427 . S
N2405 C2403 1.384 . S
H2406 C2412 0.930 . S
H2407 C2416 0.930 . S
H2408 C2421 0.929 . S
H2409 C2419 0.929 . S
H2410 C2414 0.929 . S
H2411 C2420 0.929 . S
C2412 H2406 0.930 . S
C2412 C2413 1.367 . S
C2412 C2420 1.378 . S
C2413 C2412 1.367 . S
C2413 C2421 1.433 . S
C2414 H2410 0.929 . S
C2414 C2416 1.378 . S
C2414 C2418 1.350 . S
C2415 C2418 1.463 . S
C2415 C2420 1.350 . S
C2415 N2423 1.427 . S
C2416 H2407 0.930 . S
C2416 C2414 1.378 . S
C2416 C2417 1.367 . S
C2417 C2416 1.367 . S
C2417 C2419 1.433 . S
C2418 C2414 1.350 . S
C2418 C2415 1.463 . S
C2418 N2422 1.427 . S
C2419 H2409 0.929 . S
C2419 C2417 1.433 . S
C2419 N2422 1.384 . S
C2420 H2411 0.929 . S
C2420 C2412 1.378 . S
C2420 C2415 1.350 . S
C2421 H2408 0.929 . S
C2421 C2413 1.433 . S
C2421 N2423 1.384 . S
N2422 C2418 1.427 . S
N2422 C2419 1.384 . S
N2423 C2415 1.427 . S
N2423 C2421 1.384 . S
H2424 C2430 0.930 . S
H2425 C2434 0.930 . S
H2426 C2439 0.929 . S
H2427 C2437 0.929 . S
H2428 C2432 0.929 . S
H2429 C2438 0.929 . S
C2430 H2424 0.930 . S
C2430 C2431 1.367 . S
C2430 C2438 1.378 . S
C2431 C2430 1.367 . S
C2431 C2439 1.433 . S
C2432 H2428 0.929 . S
C2432 C2434 1.378 . S
C2432 C2436 1.350 . S
C2433 C2436 1.463 . S
C2433 C2438 1.350 . S
C2433 N2441 1.427 . S
C2434 H2425 0.930 . S
C2434 C2432 1.378 . S
C2434 C2435 1.367 . S
C2435 C2434 1.367 . S
C2435 C2437 1.433 . S
C2436 C2432 1.350 . S
C2436 C2433 1.463 . S
C2436 N2440 1.427 . S
C2437 H2427 0.929 . S
C2437 C2435 1.433 . S
C2437 N2440 1.384 . S
C2438 H2429 0.929 . S
C2438 C2430 1.378 . S
C2438 C2433 1.350 . S
C2439 H2426 0.929 . S
C2439 C2431 1.433 . S
C2439 N2441 1.384 . S
N2440 C2436 1.427 . S
N2440 C2437 1.384 . S
N2441 C2433 1.427 . S
N2441 C2439 1.384 . S
H2442 C2448 0.930 1_565 S
H2443 C2452 0.930 . S
H2444 C2457 0.929 . S
H2445 C2455 0.929 . S
H2446 C2450 0.929 . S
H2447 C2456 0.929 . S
C2448 H2442 0.930 1_545 S
C2448 C2449 1.367 . S
C2448 C2456 1.378 . S
C2449 C2448 1.367 . S
C2449 C2457 1.433 . S
C2450 H2446 0.929 . S
C2450 C2452 1.378 . S
C2450 C2454 1.350 . S
C2451 C2454 1.463 . S
C2451 C2456 1.350 . S
C2451 N2459 1.427 . S
C2452 H2443 0.930 . S
C2452 C2450 1.378 . S
C2452 C2453 1.367 . S
C2453 C2452 1.367 . S
C2453 C2455 1.433 . S
C2454 C2450 1.350 . S
C2454 C2451 1.463 . S
C2454 N2458 1.427 . S
C2455 H2445 0.929 . S
C2455 C2453 1.433 . S
C2455 N2458 1.384 . S
C2456 H2447 0.929 . S
C2456 C2448 1.378 . S
C2456 C2451 1.350 . S
C2457 H2444 0.929 . S
C2457 C2449 1.433 . S
C2457 N2459 1.384 . S
N2458 C2454 1.427 . S
N2458 C2455 1.384 . S
N2459 C2451 1.427 . S
N2459 C2457 1.384 . S
H2460 C2466 0.930 . S
H2461 C2470 0.930 . S
H2462 C2475 0.929 . S
H2463 C2473 0.929 . S
H2464 C2468 0.929 . S
H2465 C2474 0.929 . S
C2466 H2460 0.930 . S
C2466 C2467 1.367 1_545 S
C2466 C2474 1.378 1_545 S
C2467 C2466 1.367 1_565 S
C2467 C2475 1.433 . S
C2468 H2464 0.929 . S
C2468 C2470 1.378 . S
C2468 C2472 1.350 . S
C2469 C2472 1.463 . S
C2469 C2474 1.350 . S
C2469 N2477 1.427 . S
C2470 H2461 0.930 . S
C2470 C2468 1.378 . S
C2470 C2471 1.367 . S
C2471 C2470 1.367 . S
C2471 C2473 1.433 . S
C2472 C2468 1.350 . S
C2472 C2469 1.463 . S
C2472 N2476 1.427 . S
C2473 H2463 0.929 . S
C2473 C2471 1.433 . S
C2473 N2476 1.384 . S
C2474 H2465 0.929 . S
C2474 C2466 1.378 1_565 S
C2474 C2469 1.350 . S
C2475 H2462 0.929 . S
C2475 C2467 1.433 . S
C2475 N2477 1.384 . S
N2476 C2472 1.427 . S
N2476 C2473 1.384 . S
N2477 C2469 1.427 . S
N2477 C2475 1.384 . S
H2478 C2484 0.930 . S
H2479 C2488 0.930 . S
H2480 C2493 0.929 . S
H2481 C2491 0.929 . S
H2482 C2486 0.929 . S
H2483 C2492 0.929 . S
C2484 H2478 0.930 . S
C2484 C2485 1.367 . S
C2484 C2492 1.378 . S
C2485 C2484 1.367 . S
C2485 C2493 1.433 . S
C2486 H2482 0.929 . S
C2486 C2488 1.378 . S
C2486 C2490 1.350 . S
C2487 C2490 1.463 . S
C2487 C2492 1.350 . S
C2487 N2495 1.427 . S
C2488 H2479 0.930 . S
C2488 C2486 1.378 . S
C2488 C2489 1.367 . S
C2489 C2488 1.367 . S
C2489 C2491 1.433 . S
C2490 C2486 1.350 . S
C2490 C2487 1.463 . S
C2490 N2494 1.427 . S
C2491 H2481 0.929 . S
C2491 C2489 1.433 . S
C2491 N2494 1.384 . S
C2492 H2483 0.929 . S
C2492 C2484 1.378 . S
C2492 C2487 1.350 . S
C2493 H2480 0.929 . S
C2493 C2485 1.433 . S
C2493 N2495 1.384 . S
N2494 C2490 1.427 . S
N2494 C2491 1.384 . S
N2495 C2487 1.427 . S
N2495 C2493 1.384 . S
C775 C598 1.026 . S
C779 C21 1.008 . S
C793 C53 1.022 . S
C797 C630 1.030 . S
C811 C534 1.032 . S
C815 C85 1.019 . S
C829 C117 0.999 . S
C833 C566 1.018 . S
C847 C726 1.024 . S
C851 C149 1.018 . S
C865 C694 1.032 . S
C869 C181 1.021 . S
C883 C758 1.030 . S
C887 C213 1.022 . S
C901 C662 1.015 . S
C905 C245 0.998 . S
C919 C277 0.998 . S
C923 C438 1.013 . S
C937 C502 1.031 . S
C941 C309 1.017 . S
C955 C341 1.011 . S
C959 C470 1.029 . S
C973 C406 1.030 . S
C977 C373 1.022 . S
C991 C210 1.022 . S
C995 C401 1.016 . S
C1009 C242 1.021 . S
C1013 C433 1.016 . S
C1027 C146 1.032 . S
C1031 C465 1.019 . S
C1045 C497 1.018 . S
C1049 C178 1.032 . S
C1063 C338 1.015 . S
C1067 C529 1.007 . S
C1081 C561 0.998 . S
C1085 C306 1.012 . S
C1099 C370 1.030 . S
C1103 C593 1.013 . S
C1117 C274 1.015 . S
C1121 C625 1.007 . S
C1135 C657 1.010 . S
C1139 C50 1.028 . S
C1153 C114 1.031 . S
C1157 C689 1.022 . S
C1171 C721 1.017 . S
C1175 C82 1.023 . S
C1189 C753 1.007 . S
C1193 C18 1.025 . S
C1207 C278 2.078 . S
C1211 C16 2.171 . S
C1225 C48 2.171 . S
C1229 C374 2.079 . S
C1243 C80 2.171 . S
C1247 C310 2.077 . S
C1261 C112 2.172 . S
C1265 C342 2.079 . S
C1279 C144 2.173 . S
C1283 C22 2.078 . S
C1297 C176 2.177 . S
C1301 C54 2.088 . S
C1315 C86 2.081 . S
C1319 C208 2.172 . S
C1333 C240 2.178 . S
C1337 C118 2.088 . S
C1351 C150 2.080 . S
C1355 C272 2.172 . S
C1369 C304 2.177 . S
C1373 C214 2.088 . S
C1387 C246 2.088 . S
C1391 C336 2.176 . S
C1405 C182 2.081 . S
C1409 C368 2.175 . S
C1423 C658 2.084 . S
C1427 C404 2.174 . S
C1441 C436 2.174 . S
C1445 C754 2.079 . S
C1459 C690 2.076 . S
C1463 C468 2.171 . S
C1477 C500 2.176 . S
C1481 C722 2.083 . S
C1495 C402 2.090 . S
C1499 C532 2.178 . S
C1513 C434 2.088 . S
C1517 C564 2.178 . S
C1531 C596 2.174 . S
C1535 C466 2.084 . S
C1549 C498 2.090 . S
C1553 C628 2.178 . S
C1567 C530 2.089 . S
C1571 C660 2.177 . S
C1585 C692 2.175 . S
C1589 C594 2.085 . S
C1603 C724 2.178 . S
C1607 C626 2.089 . S
C1621 C756 2.178 . S
C1625 C562 2.090 . S
C1639 C23 1.044 . S
C1643 C372 1.039 . S
C1657 C276 1.040 . S
C1661 C55 1.044 1_554 S
C1675 C87 1.046 . S
C1679 C340 1.037 . S
C1693 C119 1.042 1_556 S
C1697 C308 1.032 . S
C1711 C84 1.029 . S
C1715 C151 1.051 . S
C1729 C116 1.025 . S
C1733 C183 1.049 1_655 S
C1747 C20 1.024 . S
C1751 C215 1.052 1_455 S
C1765 C247 1.050 . S
C1769 C52 1.024 . S
C1783 C244 1.025 . S
C1787 C279 1.048 . S
C1801 C311 1.048 1_565 S
C1805 C180 1.035 . S
C1819 C148 1.025 . S
C1823 C343 1.048 1_545 S
C1837 C375 1.049 . S
C1841 C212 1.025 . S
C1855 C752 1.025 . S
C1859 C403 1.048 . S
C1873 C656 1.027 . S
C1877 C435 1.053 1_556 S
C1891 C720 1.033 . S
C1895 C467 1.049 . S
C1909 C688 1.032 . S
C1913 C499 1.042 1_554 S
C1927 C531 1.034 . S
C1931 C464 1.044 . S
C1945 C563 1.051 1_455 S
C1949 C496 1.024 . S
C1963 C595 1.052 1_655 S
C1967 C400 1.024 . S
C1981 C627 1.053 . S
C1985 C432 1.026 . S
C1999 C624 1.024 . S
C2003 C659 1.050 . S
C2017 C560 1.030 . S
C2021 C691 1.043 1_545 S
C2035 C528 1.045 . S
C2039 C723 1.038 1_565 S
C2053 C592 1.046 . S
C2057 C755 1.036 . S
C2071 C727 2.383 . S
C2075 C17 2.382 . S
C2089 C695 2.382 . S
C2093 C49 2.381 1_554 S
C2107 C81 2.381 . S
C2111 C759 2.382 . S
C2125 C663 2.381 . S
C2129 C113 2.381 1_556 S
C2143 C145 2.382 . S
C2147 C439 2.382 . S
C2161 C407 2.383 . S
C2165 C177 2.381 1_655 S
C2179 C209 2.382 1_455 S
C2183 C503 2.383 . S
C2197 C241 2.381 . S
C2201 C471 2.383 . S
C2215 C599 2.381 . S
C2219 C273 2.381 . S
C2233 C535 2.381 . S
C2237 C305 2.380 1_565 S
C2251 C337 2.382 1_545 S
C2255 C567 2.383 . S
C2269 C369 2.382 . S
C2273 C631 2.383 . S
C2287 C405 2.382 . S
C2291 C339 2.382 . S
C2305 C437 2.382 1_556 S
C2309 C307 2.383 . S
C2323 C371 2.381 . S
C2327 C469 2.380 . S
C2341 C275 2.382 . S
C2345 C501 2.382 1_554 S
C2359 C533 2.380 . S
C2363 C51 2.381 . S
C2377 C565 2.380 1_455 S
C2381 C19 2.381 . S
C2395 C597 2.380 1_655 S
C2399 C115 2.381 . S
C2413 C629 2.380 . S
C2417 C83 2.382 . S
C2431 C661 2.380 . S
C2435 C211 2.382 . S
C2449 C693 2.380 1_545 S
C2453 C147 2.381 . S
C2467 C725 2.380 1_565 S
C2471 C179 2.381 . S
C2485 C243 2.383 . S
C2489 C757 2.382 . S
