# Generated by pormake.
# Topology vbe, (5)-cn, num edge types: 1
# Building blocks:
#     Node 0, Type 0, BuildingBlock: BEQFEK_clean_sbu_0, # of connection points: 5
#     Node 1, Type 0, BuildingBlock: BEQFEK_clean_sbu_0, # of connection points: 5
#     Node 2, Type 0, BuildingBlock: BEQFEK_clean_sbu_0, # of connection points: 5
#     Node 3, Type 0, BuildingBlock: BEQFEK_clean_sbu_0, # of connection points: 5
#     Node 4, Type 0, BuildingBlock: BEQFEK_clean_sbu_0, # of connection points: 5
#     Node 5, Type 0, BuildingBlock: BEQFEK_clean_sbu_0, # of connection points: 5
#     Node 6, Type 0, BuildingBlock: BEQFEK_clean_sbu_0, # of connection points: 5
#     Node 7, Type 0, BuildingBlock: BEQFEK_clean_sbu_0, # of connection points: 5
#     Node 8, Type 0, BuildingBlock: BEQFEK_clean_sbu_0, # of connection points: 5
#     Node 9, Type 0, BuildingBlock: BEQFEK_clean_sbu_0, # of connection points: 5
#     Node 10, Type 0, BuildingBlock: BEQFEK_clean_sbu_0, # of connection points: 5
#     Node 11, Type 0, BuildingBlock: BEQFEK_clean_sbu_0, # of connection points: 5
#     Node 12, Type 0, BuildingBlock: BEQFEK_clean_sbu_0, # of connection points: 5
#     Node 13, Type 0, BuildingBlock: BEQFEK_clean_sbu_0, # of connection points: 5
#     Node 14, Type 0, BuildingBlock: BEQFEK_clean_sbu_0, # of connection points: 5
#     Node 15, Type 0, BuildingBlock: BEQFEK_clean_sbu_0, # of connection points: 5
#     Edge 16, Type (0, 0), BuildingBlock: KIFKEQ_clean_linker_1, # of connection points: 2
#     Edge 17, Type (0, 0), BuildingBlock: KIFKEQ_clean_linker_1, # of connection points: 2
#     Edge 18, Type (0, 0), BuildingBlock: KIFKEQ_clean_linker_1, # of connection points: 2
#     Edge 19, Type (0, 0), BuildingBlock: KIFKEQ_clean_linker_1, # of connection points: 2
#     Edge 20, Type (0, 0), BuildingBlock: KIFKEQ_clean_linker_1, # of connection points: 2
#     Edge 21, Type (0, 0), BuildingBlock: KIFKEQ_clean_linker_1, # of connection points: 2
#     Edge 22, Type (0, 0), BuildingBlock: KIFKEQ_clean_linker_1, # of connection points: 2
#     Edge 23, Type (0, 0), BuildingBlock: KIFKEQ_clean_linker_1, # of connection points: 2
#     Edge 24, Type (0, 0), BuildingBlock: KIFKEQ_clean_linker_1, # of connection points: 2
#     Edge 25, Type (0, 0), BuildingBlock: KIFKEQ_clean_linker_1, # of connection points: 2
#     Edge 26, Type (0, 0), BuildingBlock: KIFKEQ_clean_linker_1, # of connection points: 2
#     Edge 27, Type (0, 0), BuildingBlock: KIFKEQ_clean_linker_1, # of connection points: 2
#     Edge 28, Type (0, 0), BuildingBlock: KIFKEQ_clean_linker_1, # of connection points: 2
#     Edge 29, Type (0, 0), BuildingBlock: KIFKEQ_clean_linker_1, # of connection points: 2
#     Edge 30, Type (0, 0), BuildingBlock: KIFKEQ_clean_linker_1, # of connection points: 2
#     Edge 31, Type (0, 0), BuildingBlock: KIFKEQ_clean_linker_1, # of connection points: 2
#     Edge 32, Type (0, 0), BuildingBlock: KIFKEQ_clean_linker_1, # of connection points: 2
#     Edge 33, Type (0, 0), BuildingBlock: KIFKEQ_clean_linker_1, # of connection points: 2
#     Edge 34, Type (0, 0), BuildingBlock: KIFKEQ_clean_linker_1, # of connection points: 2
#     Edge 35, Type (0, 0), BuildingBlock: KIFKEQ_clean_linker_1, # of connection points: 2
#     Edge 36, Type (0, 0), BuildingBlock: KIFKEQ_clean_linker_1, # of connection points: 2
#     Edge 37, Type (0, 0), BuildingBlock: KIFKEQ_clean_linker_1, # of connection points: 2
#     Edge 38, Type (0, 0), BuildingBlock: KIFKEQ_clean_linker_1, # of connection points: 2
#     Edge 39, Type (0, 0), BuildingBlock: KIFKEQ_clean_linker_1, # of connection points: 2
#     Edge 40, Type (0, 0), BuildingBlock: KIFKEQ_clean_linker_1, # of connection points: 2
#     Edge 41, Type (0, 0), BuildingBlock: KIFKEQ_clean_linker_1, # of connection points: 2
#     Edge 42, Type (0, 0), BuildingBlock: KIFKEQ_clean_linker_1, # of connection points: 2
#     Edge 43, Type (0, 0), BuildingBlock: KIFKEQ_clean_linker_1, # of connection points: 2
#     Edge 44, Type (0, 0), BuildingBlock: KIFKEQ_clean_linker_1, # of connection points: 2
#     Edge 45, Type (0, 0), BuildingBlock: KIFKEQ_clean_linker_1, # of connection points: 2
#     Edge 46, Type (0, 0), BuildingBlock: KIFKEQ_clean_linker_1, # of connection points: 2
#     Edge 47, Type (0, 0), BuildingBlock: KIFKEQ_clean_linker_1, # of connection points: 2
#     Edge 48, Type (0, 0), BuildingBlock: KIFKEQ_clean_linker_1, # of connection points: 2
#     Edge 49, Type (0, 0), BuildingBlock: KIFKEQ_clean_linker_1, # of connection points: 2
#     Edge 50, Type (0, 0), BuildingBlock: KIFKEQ_clean_linker_1, # of connection points: 2
#     Edge 51, Type (0, 0), BuildingBlock: KIFKEQ_clean_linker_1, # of connection points: 2
#     Edge 52, Type (0, 0), BuildingBlock: KIFKEQ_clean_linker_1, # of connection points: 2
#     Edge 53, Type (0, 0), BuildingBlock: KIFKEQ_clean_linker_1, # of connection points: 2
#     Edge 54, Type (0, 0), BuildingBlock: KIFKEQ_clean_linker_1, # of connection points: 2
#     Edge 55, Type (0, 0), BuildingBlock: KIFKEQ_clean_linker_1, # of connection points: 2
# Relax obj value: 0.316
# Max RMSD: 0.194
# Mean RMSD: 0.194
data_MOF--net-vbe--node1-BEQFEK_clean_sbu_0--edge1-KIFKEQ_clean_linker_1
_symmetry_space_group_name_H-M    P1
_symmetry_Int_Tables_number       1
_symmetry_cell_setting            triclinic
loop_
_symmetry_equiv_pos_as_xyz
'x, y, z'
_cell_length_a     45.997389
_cell_length_b     41.180657
_cell_length_c     58.287755
_cell_angle_alpha  90.045541
_cell_angle_beta   90.042038
_cell_angle_gamma 89.999388
loop_
_atom_site_label
_atom_site_type_symbol
_atom_site_fract_x
_atom_site_fract_y
_atom_site_fract_z
_atom_type_partial_charge
Co0 Co 0.0974 0.12417 0.33216 0.0
Co1 Co 0.06067 0.07975 0.36507 0.0
C2 C 0.05482 0.15168 0.3663 0.0
O3 O 0.07349 0.15488 0.35033 0.0
O4 O 0.04794 0.12383 0.37402 0.0
C5 C 0.12973 0.17936 0.316 0.0
O6 O 0.12074 0.19267 0.33521 0.0
C7 C 0.04003 0.05221 0.40828 0.0
C8 C 0.01836 0.00719 0.39661 0.0
C9 C 0.02418 0.02572 0.4159 0.0
N10 N 0.04355 0.04937 0.3855 0.0
N11 N 0.03073 0.02233 0.37864 0.0
C12 C 0.04932 0.08131 0.42181 0.0
H13 H 0.03044 0.09782 0.42389 0.0
H14 H 0.06687 0.09453 0.41268 0.0
H15 H 0.05696 0.07429 0.43913 0.0
C16 C 0.14538 0.08679 0.35264 0.0
N17 N 0.11714 0.09497 0.35143 0.0
N18 N 0.10191 0.07583 0.36493 0.0
C19 C 0.1201 0.05461 0.37511 0.0
C20 C 0.14821 0.06092 0.36772 0.0
C21 C 0.16835 0.10117 0.33757 0.0
H22 H 0.16135 0.09943 0.31939 0.0
H23 H 0.1708 0.12732 0.34175 0.0
H24 H 0.1896 0.08879 0.33962 0.0
O25 O 0.07181 0.09985 0.31102 0.0
O26 O 0.04418 0.07058 0.33447 0.0
H27 H 0.09447 0.01242 0.38218 0.0
H28 H 0.12912 0.01319 0.397 0.0
C29 C 0.11056 0.02815 0.39101 0.0
H30 H 0.09986 0.03911 0.40617 0.0
H31 H 0.02984 0.0146 0.3616 0.0
O32 O 0.12392 0.14967 0.31212 0.0
C33 C 0.05121 0.07982 0.31443 0.0
Co34 Co 0.38467 0.86853 0.33093 0.0
Co35 Co 0.41937 0.91443 0.36422 0.0
C36 C 0.42636 0.84206 0.36564 0.0
O37 O 0.40763 0.83789 0.34979 0.0
O38 O 0.43306 0.87036 0.37274 0.0
C39 C 0.34809 0.81628 0.31286 0.0
O40 O 0.34975 0.80317 0.33336 0.0
C41 C 0.44265 0.94089 0.40725 0.0
C42 C 0.44929 0.99251 0.39826 0.0
C43 C 0.45209 0.97039 0.416 0.0
N44 N 0.43473 0.94536 0.38529 0.0
N45 N 0.43894 0.97621 0.37997 0.0
C46 C 0.43895 0.90957 0.4199 0.0
H47 H 0.41982 0.8962 0.41313 0.0
H48 H 0.43615 0.91385 0.43857 0.0
H49 H 0.45855 0.89433 0.41722 0.0
C50 C 0.33508 0.90452 0.35054 0.0
N51 N 0.36358 0.89735 0.34962 0.0
N52 N 0.37796 0.91657 0.36368 0.0
C53 C 0.3589 0.9365 0.37415 0.0
C54 C 0.33117 0.92961 0.36614 0.0
C55 C 0.31279 0.88985 0.33494 0.0
H56 H 0.32099 0.8901 0.31704 0.0
H57 H 0.30927 0.86415 0.33991 0.0
H58 H 0.29179 0.90303 0.33567 0.0
O59 O 0.41104 0.89309 0.31083 0.0
O60 O 0.43599 0.92559 0.3339 0.0
H61 H 0.37896 0.98183 0.38239 0.0
H62 H 0.34767 0.97236 0.39988 0.0
C63 C 0.36709 0.96205 0.39125 0.0
H64 H 0.3816 0.95143 0.40444 0.0
H65 H 0.43438 0.9862 0.36392 0.0
O66 O 0.35988 0.84372 0.3093 0.0
C67 C 0.43026 0.91482 0.31395 0.0
Co68 Co 0.59979 0.86427 0.1583 0.0
Co69 Co 0.56532 0.91341 0.12734 0.0
C70 C 0.55597 0.84114 0.12445 0.0
O71 O 0.57521 0.83539 0.1396 0.0
O72 O 0.54999 0.87004 0.11829 0.0
C73 C 0.62804 0.80738 0.17671 0.0
O74 O 0.61599 0.79259 0.15914 0.0
C75 C 0.54854 0.94132 0.08344 0.0
C76 C 0.52568 0.98618 0.09375 0.0
C77 C 0.53324 0.96776 0.07472 0.0
N78 N 0.54955 0.94402 0.10638 0.0
N79 N 0.53594 0.9709 0.11248 0.0
C80 C 0.56329 0.9145 0.07061 0.0
H81 H 0.58113 0.90405 0.0811 0.0
H82 H 0.57213 0.9235 0.05408 0.0
H83 H 0.54735 0.89488 0.06712 0.0
C84 C 0.64951 0.89895 0.13836 0.0
N85 N 0.62087 0.89294 0.13955 0.0
N86 N 0.60669 0.91464 0.12733 0.0
C87 C 0.62595 0.93585 0.11844 0.0
C88 C 0.65379 0.92658 0.12512 0.0
C89 C 0.67207 0.87889 0.15026 0.0
H90 H 0.6666 0.85277 0.14852 0.0
H91 H 0.69403 0.88325 0.14302 0.0
H92 H 0.67215 0.88499 0.16881 0.0
O93 O 0.57483 0.88929 0.1796 0.0
O94 O 0.55029 0.92424 0.15807 0.0
H95 H 0.63505 0.98499 0.10711 0.0
H96 H 0.61212 0.96122 0.08841 0.0
C97 C 0.6174 0.96666 0.10658 0.0
H98 H 0.59781 0.97708 0.11483 0.0
H99 H 0.53336 0.97859 0.1294 0.0
O100 O 0.62527 0.83798 0.17866 0.0
C101 C 0.55638 0.91215 0.17757 0.0
Co102 Co 0.88274 0.12826 0.15702 0.0
Co103 Co 0.9201 0.08436 0.12421 0.0
C104 C 0.926 0.1563 0.12371 0.0
O105 O 0.90708 0.1593 0.13951 0.0
O106 O 0.93294 0.12855 0.11582 0.0
C107 C 0.85073 0.18332 0.17375 0.0
O108 O 0.86013 0.19702 0.15481 0.0
C109 C 0.94129 0.05806 0.08089 0.0
C110 C 0.96109 0.01165 0.09174 0.0
C111 C 0.95629 0.03109 0.07267 0.0
N112 N 0.93769 0.05459 0.1036 0.0
N113 N 0.94958 0.02686 0.11002 0.0
C114 C 0.92865 0.08577 0.06761 0.0
H115 H 0.91033 0.09685 0.07722 0.0
H116 H 0.9209 0.07748 0.05055 0.0
H117 H 0.94557 0.10467 0.06518 0.0
C118 C 0.83519 0.09089 0.13578 0.0
N119 N 0.86333 0.09949 0.13712 0.0
N120 N 0.87889 0.08039 0.1238 0.0
C121 C 0.86106 0.0587 0.11372 0.0
C122 C 0.8328 0.06473 0.12088 0.0
C123 C 0.81201 0.10468 0.15092 0.0
H124 H 0.81805 0.10063 0.16914 0.0
H125 H 0.81069 0.1313 0.14819 0.0
H126 H 0.79047 0.09356 0.14754 0.0
O127 O 0.90788 0.10337 0.17822 0.0
O128 O 0.93595 0.07449 0.15485 0.0
H129 H 0.88733 0.01648 0.1084 0.0
H130 H 0.85285 0.01551 0.09336 0.0
C131 C 0.87115 0.03123 0.09889 0.0
H132 H 0.88186 0.04116 0.0834 0.0
H133 H 0.94989 0.01838 0.12688 0.0
O134 O 0.856 0.1534 0.17716 0.0
C135 C 0.92851 0.08335 0.17489 0.0
Co136 Co 0.8851 0.87027 0.66105 0.0
Co137 Co 0.91934 0.91409 0.62588 0.0
C138 C 0.92747 0.84245 0.62674 0.0
O139 O 0.90946 0.83949 0.6432 0.0
O140 O 0.93321 0.87006 0.61805 0.0
C141 C 0.85432 0.81497 0.679 0.0
O142 O 0.86312 0.80093 0.65999 0.0
C143 C 0.94334 0.94092 0.58295 0.0
C144 C 0.94725 0.99295 0.59184 0.0
C145 C 0.95148 0.97096 0.57418 0.0
N146 N 0.93418 0.94521 0.60464 0.0
N147 N 0.93679 0.9763 0.60989 0.0
C148 C 0.94614 0.9083 0.5718 0.0
H149 H 0.95863 0.89197 0.58322 0.0
H150 H 0.92419 0.89763 0.56939 0.0
H151 H 0.95767 0.90945 0.55515 0.0
C152 C 0.83528 0.90436 0.64045 0.0
N153 N 0.86382 0.89747 0.64138 0.0
N154 N 0.8779 0.91575 0.62657 0.0
C155 C 0.85854 0.93467 0.6155 0.0
C156 C 0.83096 0.92821 0.62399 0.0
C157 C 0.81341 0.89083 0.65688 0.0
H158 H 0.82196 0.89269 0.67463 0.0
H159 H 0.81005 0.8647 0.65305 0.0
H160 H 0.79227 0.90369 0.65585 0.0
O161 O 0.91041 0.89678 0.68093 0.0
O162 O 0.93629 0.92564 0.65603 0.0
H163 H 0.87713 0.97998 0.60541 0.0
H164 H 0.84668 0.96737 0.58799 0.0
C165 C 0.86626 0.95883 0.59733 0.0
H166 H 0.88148 0.94765 0.58489 0.0
H167 H 0.93123 0.98618 0.62578 0.0
O168 O 0.85987 0.84489 0.68217 0.0
C169 C 0.9302 0.91739 0.67649 0.0
Co170 Co 0.59797 0.12396 0.65776 0.0
Co171 Co 0.56032 0.0775 0.62684 0.0
C172 C 0.55469 0.14996 0.62418 0.0
O173 O 0.57432 0.15429 0.63927 0.0
O174 O 0.5472 0.12156 0.61788 0.0
C175 C 0.62933 0.17946 0.67507 0.0
O176 O 0.61853 0.19404 0.65693 0.0
C177 C 0.53911 0.051 0.58364 0.0
C178 C 0.51871 0.00492 0.59443 0.0
C179 C 0.52378 0.02428 0.57536 0.0
N180 N 0.54262 0.0475 0.60637 0.0
N181 N 0.53038 0.01995 0.61276 0.0
C182 C 0.55208 0.07855 0.5704 0.0
H183 H 0.57053 0.08933 0.58004 0.0
H184 H 0.55975 0.07018 0.55334 0.0
H185 H 0.5354 0.09771 0.56798 0.0
C186 C 0.64539 0.08573 0.63715 0.0
N187 N 0.61716 0.0938 0.6388 0.0
N188 N 0.60154 0.07376 0.6262 0.0
C189 C 0.61943 0.05196 0.61632 0.0
C190 C 0.64778 0.05892 0.62284 0.0
C191 C 0.66885 0.1012 0.65122 0.0
H192 H 0.66334 0.09887 0.66968 0.0
H193 H 0.66984 0.1275 0.64719 0.0
H194 H 0.6904 0.08999 0.64809 0.0
O195 O 0.5722 0.10081 0.67937 0.0
O196 O 0.54526 0.06804 0.65786 0.0
H197 H 0.59321 0.00959 0.61138 0.0
H198 H 0.62767 0.0084 0.59634 0.0
C199 C 0.60938 0.02418 0.60175 0.0
H200 H 0.59862 0.0338 0.58617 0.0
H201 H 0.52988 0.01151 0.62962 0.0
O202 O 0.62496 0.1492 0.67769 0.0
C203 C 0.55234 0.07948 0.67736 0.0
Co204 Co 0.38531 0.12714 0.83642 0.0
Co205 Co 0.42218 0.0798 0.8673 0.0
C206 C 0.42946 0.15192 0.87005 0.0
O207 O 0.40983 0.15663 0.855 0.0
O208 O 0.43653 0.12339 0.87634 0.0
C209 C 0.35497 0.18359 0.81943 0.0
O210 O 0.36663 0.19805 0.8373 0.0
C211 C 0.44802 0.05187 0.90877 0.0
C212 C 0.45558 0.00096 0.89833 0.0
C213 C 0.45878 0.02238 0.91648 0.0
N214 N 0.43903 0.04811 0.88701 0.0
N215 N 0.44375 0.01768 0.88081 0.0
C216 C 0.44416 0.08249 0.92227 0.0
H217 H 0.42449 0.09562 0.91633 0.0
H218 H 0.44223 0.07726 0.94089 0.0
H219 H 0.46332 0.09839 0.91951 0.0
C220 C 0.33725 0.09 0.85699 0.0
N221 N 0.36561 0.0975 0.85538 0.0
N222 N 0.38085 0.07761 0.86836 0.0
C223 C 0.36251 0.05678 0.87873 0.0
C224 C 0.33433 0.06387 0.87184 0.0
C225 C 0.31419 0.1052 0.84239 0.0
H226 H 0.32062 0.10343 0.82408 0.0
H227 H 0.3125 0.13138 0.84672 0.0
H228 H 0.29271 0.09346 0.84474 0.0
O229 O 0.41023 0.10345 0.81455 0.0
O230 O 0.43655 0.07014 0.83606 0.0
H231 H 0.38359 0.0112 0.88412 0.0
H232 H 0.35296 0.01829 0.90287 0.0
C233 C 0.37183 0.02981 0.89427 0.0
H234 H 0.3868 0.03943 0.90753 0.0
H235 H 0.43864 0.00827 0.86467 0.0
O236 O 0.3586 0.1532 0.81685 0.0
C237 C 0.42963 0.08162 0.81655 0.0
Co238 Co 0.09984 0.87105 0.83148 0.0
Co239 Co 0.06422 0.91593 0.86488 0.0
C240 C 0.05666 0.84435 0.86572 0.0
O241 O 0.07517 0.84091 0.84963 0.0
O242 O 0.05031 0.87227 0.87365 0.0
C243 C 0.13118 0.81517 0.81496 0.0
O244 O 0.1215 0.80151 0.83382 0.0
C245 C 0.03927 0.94396 0.90673 0.0
C246 C 0.03399 0.99545 0.89683 0.0
C247 C 0.02994 0.97389 0.91476 0.0
N248 N 0.04835 0.94764 0.885 0.0
N249 N 0.04494 0.9784 0.87912 0.0
C250 C 0.04185 0.91294 0.91993 0.0
H251 H 0.06117 0.89911 0.91406 0.0
H252 H 0.04363 0.91768 0.93862 0.0
H253 H 0.02224 0.89791 0.91673 0.0
C254 C 0.14878 0.90655 0.85238 0.0
N255 N 0.12034 0.89932 0.85096 0.0
N256 N 0.1056 0.91812 0.86505 0.0
C257 C 0.12438 0.93781 0.87607 0.0
C258 C 0.15229 0.93125 0.86835 0.0
C259 C 0.17137 0.8924 0.83683 0.0
H260 H 0.1637 0.89376 0.8188 0.0
H261 H 0.17439 0.86637 0.84111 0.0
H262 H 0.19251 0.90518 0.83834 0.0
O263 O 0.07505 0.89639 0.81042 0.0
O264 O 0.04821 0.92599 0.83423 0.0
H265 H 0.10455 0.98316 0.88456 0.0
H266 H 0.13498 0.97259 0.90268 0.0
C267 C 0.11579 0.96288 0.89339 0.0
H268 H 0.10061 0.95205 0.90599 0.0
H269 H 0.05048 0.98784 0.8631 0.0
O270 O 0.12593 0.84505 0.81141 0.0
C271 C 0.05498 0.91699 0.81407 0.0
Co272 Co 0.59965 0.62616 0.33721 0.0
Co273 Co 0.56257 0.57918 0.36823 0.0
C274 C 0.55486 0.65157 0.36971 0.0
O275 O 0.57488 0.65619 0.355 0.0
O276 O 0.54787 0.62309 0.37616 0.0
C277 C 0.63039 0.68199 0.31984 0.0
O278 O 0.61913 0.69677 0.33773 0.0
C279 C 0.5384 0.55121 0.41061 0.0
C280 C 0.52983 0.50057 0.39993 0.0
C281 C 0.52842 0.52141 0.41856 0.0
N282 N 0.54594 0.54782 0.38845 0.0
N283 N 0.54053 0.51758 0.38214 0.0
C284 C 0.53925 0.58295 0.42317 0.0
H285 H 0.52821 0.60179 0.41281 0.0
H286 H 0.56221 0.59052 0.42555 0.0
H287 H 0.52812 0.58176 0.43998 0.0
C288 C 0.6476 0.5897 0.35842 0.0
N289 N 0.61924 0.59715 0.35669 0.0
N290 N 0.60396 0.57726 0.36961 0.0
C291 C 0.62229 0.55641 0.38001 0.0
C292 C 0.65049 0.56355 0.37324 0.0
C293 C 0.67068 0.60476 0.34379 0.0
H294 H 0.66476 0.60179 0.32545 0.0
H295 H 0.67167 0.6312 0.34741 0.0
H296 H 0.69235 0.59378 0.34681 0.0
O297 O 0.57501 0.60174 0.31553 0.0
O298 O 0.54867 0.56843 0.337 0.0
H299 H 0.60046 0.51118 0.38505 0.0
H300 H 0.63184 0.51685 0.40332 0.0
C301 C 0.61295 0.52913 0.39526 0.0
H302 H 0.59865 0.53869 0.40898 0.0
H303 H 0.54445 0.50848 0.36572 0.0
O304 O 0.62642 0.65163 0.31743 0.0
C305 C 0.55579 0.57971 0.31748 0.0
Co306 Co 0.88653 0.37336 0.33116 0.0
Co307 Co 0.92106 0.41726 0.36621 0.0
C308 C 0.92947 0.34568 0.36511 0.0
O309 O 0.91125 0.34263 0.34878 0.0
O310 O 0.93525 0.37331 0.37377 0.0
C311 C 0.85572 0.31787 0.31351 0.0
O312 O 0.86494 0.304 0.33245 0.0
C313 C 0.94501 0.4437 0.40926 0.0
C314 C 0.94914 0.49579 0.40067 0.0
C315 C 0.95316 0.47362 0.41824 0.0
N316 N 0.93602 0.44821 0.38755 0.0
N317 N 0.93877 0.47933 0.38247 0.0
C318 C 0.94762 0.41095 0.42024 0.0
H319 H 0.96038 0.39478 0.4089 0.0
H320 H 0.92564 0.40022 0.42225 0.0
H321 H 0.9588 0.41192 0.43705 0.0
C322 C 0.83684 0.40721 0.35223 0.0
N323 N 0.86539 0.40036 0.35109 0.0
N324 N 0.87962 0.41868 0.36584 0.0
C325 C 0.86039 0.43758 0.37703 0.0
C326 C 0.83272 0.43109 0.36871 0.0
C327 C 0.81477 0.39363 0.33596 0.0
H328 H 0.82286 0.396 0.31811 0.0
H329 H 0.81189 0.36736 0.33952 0.0
H330 H 0.79348 0.40608 0.33745 0.0
O331 O 0.91146 0.4002 0.31117 0.0
O332 O 0.93744 0.42917 0.33601 0.0
H333 H 0.87925 0.48289 0.3869 0.0
H334 H 0.8488 0.47069 0.40441 0.0
C335 C 0.86829 0.4619 0.39508 0.0
H336 H 0.88348 0.45075 0.40756 0.0
H337 H 0.93332 0.48938 0.36661 0.0
O338 O 0.86106 0.3478 0.31022 0.0
C339 C 0.93113 0.421 0.31556 0.0
Co340 Co 0.09787 0.37403 0.16152 0.0
Co341 Co 0.06402 0.41946 0.1273 0.0
C342 C 0.05383 0.34825 0.12764 0.0
O343 O 0.07227 0.3444 0.14374 0.0
O344 O 0.04845 0.3762 0.11937 0.0
C345 C 0.1279 0.31749 0.17822 0.0
O346 O 0.1185 0.30433 0.15907 0.0
C347 C 0.04036 0.44603 0.08461 0.0
C348 C 0.03657 0.49826 0.0929 0.0
C349 C 0.03199 0.47574 0.07562 0.0
N350 N 0.04936 0.45074 0.10628 0.0
N351 N 0.04686 0.48195 0.11119 0.0
C352 C 0.04212 0.41414 0.07236 0.0
H353 H 0.0222 0.39989 0.07607 0.0
H354 H 0.06117 0.40015 0.0786 0.0
H355 H 0.04389 0.41762 0.05354 0.0
C356 C 0.14811 0.40661 0.14033 0.0
N357 N 0.11942 0.40068 0.14169 0.0
N358 N 0.10545 0.41961 0.12721 0.0
C359 C 0.12499 0.43802 0.11595 0.0
C360 C 0.15261 0.43052 0.12394 0.0
C361 C 0.17004 0.3922 0.15635 0.0
H362 H 0.162 0.39409 0.17424 0.0
H363 H 0.17264 0.36602 0.15231 0.0
H364 H 0.19146 0.4044 0.15508 0.0
O365 O 0.07382 0.40116 0.18199 0.0
O366 O 0.04829 0.43145 0.15771 0.0
H367 H 0.1068 0.48388 0.10663 0.0
H368 H 0.13694 0.47138 0.08886 0.0
C369 C 0.11738 0.46284 0.0982 0.0
H370 H 0.10191 0.45225 0.08568 0.0
H371 H 0.05255 0.49218 0.12696 0.0
O372 O 0.12294 0.34739 0.18199 0.0
C373 C 0.05462 0.42265 0.17801 0.0
Co374 Co 0.3863 0.62317 0.15956 0.0
Co375 Co 0.42428 0.57852 0.1279 0.0
C376 C 0.42766 0.65143 0.1257 0.0
O377 O 0.40829 0.65505 0.14111 0.0
O378 O 0.43573 0.62329 0.11922 0.0
C379 C 0.34822 0.6742 0.17692 0.0
O380 O 0.35135 0.68792 0.15673 0.0
C381 C 0.44552 0.55322 0.08427 0.0
C382 C 0.46676 0.50744 0.09473 0.0
C383 C 0.46113 0.52685 0.07579 0.0
N384 N 0.44236 0.54946 0.10701 0.0
N385 N 0.45512 0.5221 0.11319 0.0
C386 C 0.43197 0.58062 0.07122 0.0
H387 H 0.41356 0.59107 0.08106 0.0
H388 H 0.42412 0.57219 0.05422 0.0
H389 H 0.44837 0.60004 0.06867 0.0
C390 C 0.33924 0.58429 0.13879 0.0
N391 N 0.36736 0.59279 0.14056 0.0
N392 N 0.38321 0.57339 0.12767 0.0
C393 C 0.36561 0.55157 0.11746 0.0
C394 C 0.33719 0.55791 0.12406 0.0
C395 C 0.31548 0.59917 0.15283 0.0
H396 H 0.32155 0.59823 0.17124 0.0
H397 H 0.31313 0.62511 0.14804 0.0
H398 H 0.2944 0.58659 0.15035 0.0
O399 O 0.41316 0.60047 0.18053 0.0
O400 O 0.44031 0.56869 0.15857 0.0
H401 H 0.39275 0.51024 0.11138 0.0
H402 H 0.35793 0.50846 0.09686 0.0
C403 C 0.37596 0.52464 0.10226 0.0
H404 H 0.38604 0.53514 0.0867 0.0
H405 H 0.45594 0.51351 0.13001 0.0
O406 O 0.35959 0.64656 0.18053 0.0
C407 C 0.43336 0.57965 0.17821 0.0
Co408 Co 0.38455 0.36724 0.6599 0.0
Co409 Co 0.42153 0.41358 0.62856 0.0
C410 C 0.42779 0.34125 0.6262 0.0
O411 O 0.40833 0.3369 0.64142 0.0
O412 O 0.43501 0.36964 0.61975 0.0
C413 C 0.35345 0.31166 0.67734 0.0
O414 O 0.3642 0.29697 0.65922 0.0
C415 C 0.44185 0.44129 0.58535 0.0
C416 C 0.46618 0.4845 0.59712 0.0
C417 C 0.45883 0.46686 0.57775 0.0
N418 N 0.4391 0.44377 0.60821 0.0
N419 N 0.45352 0.46976 0.61515 0.0
C420 C 0.43067 0.41331 0.57153 0.0
H421 H 0.44929 0.39835 0.56561 0.0
H422 H 0.41576 0.39809 0.58191 0.0
H423 H 0.419 0.4222 0.55612 0.0
C424 C 0.33666 0.40484 0.6393 0.0
N425 N 0.36497 0.39705 0.64088 0.0
N426 N 0.3803 0.41682 0.62791 0.0
C427 C 0.36215 0.43806 0.61773 0.0
C428 C 0.33391 0.43111 0.62455 0.0
C429 C 0.3135 0.38962 0.65377 0.0
H430 H 0.31988 0.39118 0.6721 0.0
H431 H 0.31169 0.3635 0.64931 0.0
H432 H 0.29208 0.40153 0.65143 0.0
O433 O 0.41018 0.39081 0.68144 0.0
O434 O 0.43652 0.42352 0.65954 0.0
H435 H 0.38825 0.48012 0.61127 0.0
H436 H 0.35345 0.48046 0.59665 0.0
C437 C 0.37183 0.465 0.60229 0.0
H438 H 0.38218 0.45445 0.58684 0.0
H439 H 0.4554 0.47693 0.63226 0.0
O440 O 0.35781 0.34193 0.67991 0.0
C441 C 0.42979 0.41236 0.67917 0.0
Co442 Co 0.10014 0.62477 0.65955 0.0
Co443 Co 0.0634 0.57858 0.62787 0.0
C444 C 0.05571 0.65067 0.62667 0.0
O445 O 0.0754 0.65492 0.64175 0.0
O446 O 0.04887 0.62237 0.61975 0.0
C447 C 0.13187 0.68051 0.67579 0.0
O448 O 0.12182 0.69421 0.65705 0.0
C449 C 0.0424 0.55119 0.58473 0.0
C450 C 0.02061 0.50625 0.59631 0.0
C451 C 0.02637 0.52486 0.57707 0.0
N452 N 0.04613 0.5482 0.60747 0.0
N453 N 0.03323 0.5212 0.61429 0.0
C454 C 0.05174 0.58024 0.5712 0.0
H455 H 0.03236 0.59515 0.56701 0.0
H456 H 0.06738 0.59514 0.58118 0.0
H457 H 0.06197 0.57272 0.55483 0.0
C458 C 0.14825 0.58826 0.63841 0.0
N459 N 0.1199 0.59581 0.64003 0.0
N460 N 0.10468 0.57622 0.62681 0.0
C461 C 0.12298 0.55543 0.61633 0.0
C462 C 0.15118 0.56238 0.6233 0.0
C463 C 0.17125 0.60306 0.65329 0.0
H464 H 0.16439 0.60161 0.67151 0.0
H465 H 0.17355 0.62914 0.64889 0.0
H466 H 0.19256 0.5908 0.65131 0.0
O467 O 0.07533 0.60027 0.68107 0.0
O468 O 0.04903 0.56783 0.65886 0.0
H469 H 0.09798 0.5126 0.60966 0.0
H470 H 0.13209 0.51427 0.59414 0.0
C471 C 0.11346 0.52873 0.60057 0.0
H472 H 0.10207 0.53944 0.58564 0.0
H473 H 0.03241 0.5134 0.6313 0.0
O474 O 0.12681 0.65058 0.67929 0.0
C475 C 0.05591 0.57855 0.6786 0.0
Co476 Co 0.88615 0.62559 0.83508 0.0
Co477 Co 0.92335 0.57928 0.86635 0.0
C478 C 0.9304 0.65149 0.86815 0.0
O479 O 0.9107 0.65568 0.8531 0.0
O480 O 0.93752 0.62318 0.87487 0.0
C481 C 0.85464 0.68151 0.81896 0.0
O482 O 0.8651 0.69522 0.83757 0.0
C483 C 0.94349 0.55042 0.90934 0.0
C484 C 0.96792 0.5076 0.89702 0.0
C485 C 0.96034 0.52456 0.91663 0.0
N486 N 0.94099 0.54873 0.88642 0.0
N487 N 0.95548 0.52298 0.87916 0.0
C488 C 0.93204 0.57779 0.9236 0.0
H489 H 0.95047 0.59084 0.93175 0.0
H490 H 0.91917 0.5949 0.91297 0.0
H491 H 0.91806 0.56818 0.93751 0.0
C492 C 0.8384 0.5882 0.85588 0.0
N493 N 0.86667 0.59617 0.85442 0.0
N494 N 0.88208 0.57632 0.8673 0.0
C495 C 0.864 0.55479 0.87723 0.0
C496 C 0.83575 0.56168 0.8704 0.0
C497 C 0.81523 0.60325 0.84131 0.0
H498 H 0.82145 0.60109 0.82298 0.0
H499 H 0.81369 0.62952 0.84539 0.0
H500 H 0.79374 0.59164 0.84392 0.0
O501 O 0.91108 0.60154 0.8133 0.0
O502 O 0.93766 0.56911 0.83528 0.0
H503 H 0.89041 0.5127 0.88285 0.0
H504 H 0.85549 0.51129 0.8972 0.0
C505 C 0.87379 0.52721 0.89207 0.0
H506 H 0.88389 0.53711 0.90785 0.0
H507 H 0.9575 0.51636 0.86195 0.0
O508 O 0.8593 0.65147 0.81552 0.0
C509 C 0.93065 0.57994 0.81562 0.0
Co510 Co 0.6009 0.36615 0.83451 0.0
Co511 Co 0.56576 0.41362 0.86655 0.0
C512 C 0.55772 0.34175 0.86912 0.0
O513 O 0.5767 0.33699 0.85357 0.0
O514 O 0.55118 0.37028 0.87578 0.0
C515 C 0.62996 0.3092 0.81692 0.0
O516 O 0.6188 0.29501 0.83506 0.0
C517 C 0.54173 0.44203 0.90855 0.0
C518 C 0.53547 0.49331 0.89851 0.0
C519 C 0.53218 0.47186 0.91661 0.0
N520 N 0.55017 0.44564 0.88665 0.0
N521 N 0.5462 0.47629 0.88069 0.0
C522 C 0.54512 0.41119 0.92185 0.0
H523 H 0.56436 0.39754 0.91561 0.0
H524 H 0.54755 0.41617 0.94046 0.0
H525 H 0.52555 0.39588 0.91919 0.0
C526 C 0.65016 0.40262 0.85408 0.0
N527 N 0.62167 0.39544 0.85307 0.0
N528 N 0.60716 0.41512 0.86671 0.0
C529 C 0.62612 0.43532 0.87705 0.0
C530 C 0.65394 0.42821 0.86931 0.0
C531 C 0.67246 0.38757 0.83869 0.0
H532 H 0.66455 0.38817 0.82071 0.0
H533 H 0.67536 0.36172 0.84354 0.0
H534 H 0.69369 0.40023 0.8397 0.0
O535 O 0.57548 0.39032 0.81332 0.0
O536 O 0.55026 0.42361 0.83566 0.0
H537 H 0.60631 0.48108 0.88437 0.0
H538 H 0.63705 0.47168 0.90251 0.0
C539 C 0.61776 0.46139 0.89368 0.0
H540 H 0.60281 0.45128 0.90675 0.0
H541 H 0.55116 0.48566 0.86454 0.0
O542 O 0.62655 0.33962 0.81433 0.0
C543 C 0.55634 0.4123 0.81592 0.0
H544 H 0.90964 0.06155 0.21635 0.0
H545 H 0.98703 0.08286 0.17754 0.0
H546 H 0.93916 0.05028 0.25015 0.0
H547 H 0.01653 0.07515 0.2115 0.0
H548 H 0.06888 0.0566 0.27303 0.0
H549 H 0.03877 0.04712 0.23927 0.0
H550 H 0.96282 0.07659 0.27809 0.0
H551 H -0.00724 0.08248 0.31202 0.0
C552 C 0.93307 0.06377 0.21518 0.0
C553 C 0.94619 0.07309 0.19454 0.0
C554 C 0.95007 0.05773 0.23458 0.0
C555 C 0.98046 0.06234 0.23399 0.0
C556 C -0.00656 0.07061 0.21287 0.0
C557 C 0.97651 0.07538 0.19331 0.0
C558 C 0.04559 0.06016 0.27426 0.0
C559 C 0.03299 0.07026 0.29492 0.0
C560 C 0.02827 0.05518 0.25487 0.0
C561 C -0.00184 0.0617 0.25551 0.0
C562 C 0.98564 0.07066 0.27667 0.0
C563 C 0.00283 0.07435 0.29622 0.0
H564 H 0.56936 0.89993 0.22242 0.0
H565 H 0.50665 0.94858 0.17913 0.0
H566 H 0.5389 0.91035 0.25574 0.0
H567 H 0.47618 0.95903 0.21264 0.0
H568 H 0.41635 0.90941 0.26873 0.0
H569 H 0.44815 0.91824 0.236 0.0
H570 H 0.51576 0.95264 0.28136 0.0
H571 H 0.48382 0.94381 0.31432 0.0
C572 C 0.54934 0.91337 0.22007 0.0
C573 C 0.5402 0.92299 0.19809 0.0
C574 C 0.53201 0.9196 0.23921 0.0
C575 C 0.50511 0.93534 0.23673 0.0
C576 C 0.49674 0.94663 0.21497 0.0
C577 C 0.51422 0.94069 0.19582 0.0
C578 C 0.43779 0.91946 0.27171 0.0
C579 C 0.44774 0.92551 0.29411 0.0
C580 C 0.45592 0.92478 0.25294 0.0
C581 C 0.48446 0.93596 0.25618 0.0
C582 C 0.49389 0.9438 0.27844 0.0
C583 C 0.47558 0.93885 0.29726 0.0
H584 H 0.98873 0.91604 0.67798 0.0
H585 H 0.91324 0.94292 0.71738 0.0
H586 H 0.0193 0.9235 0.7114 0.0
H587 H 0.94395 0.95399 0.75056 0.0
H588 H -0.00357 0.91865 0.81211 0.0
H589 H 0.96647 0.92654 0.77845 0.0
H590 H 0.04344 0.9501 0.73891 0.0
H591 H 0.07339 0.93864 0.77244 0.0
C592 C 0.97893 0.92481 0.69371 0.0
C593 C 0.94877 0.92864 0.69533 0.0
C594 C -0.00352 0.9294 0.71298 0.0
C595 C 0.9843 0.93896 0.73414 0.0
C596 C 0.9542 0.94544 0.73498 0.0
C597 C 0.93653 0.93957 0.71592 0.0
C598 C 0.00676 0.92592 0.79622 0.0
C599 C 0.03709 0.92774 0.79467 0.0
C600 C 0.98957 0.93079 0.77681 0.0
C601 C 0.00229 0.93867 0.75552 0.0
C602 C 0.03271 0.94295 0.75462 0.0
C603 C 0.04996 0.9368 0.77387 0.0
H604 H 0.49973 0.04855 0.67918 0.0
H605 H 0.56723 0.0892 0.72214 0.0
H606 H 0.46928 0.04037 0.71303 0.0
H607 H 0.53682 0.08101 0.75579 0.0
H608 H 0.48139 0.04894 0.81467 0.0
H609 H 0.51156 0.0397 0.7808 0.0
H610 H 0.44508 0.08249 0.7381 0.0
H611 H 0.41493 0.09173 0.77178 0.0
C612 C 0.5083 0.05514 0.69586 0.0
C613 C 0.53573 0.0699 0.69797 0.0
C614 C 0.49083 0.05054 0.71519 0.0
C615 C 0.50065 0.06021 0.73698 0.0
C616 C 0.52878 0.07307 0.73924 0.0
C617 C 0.5461 0.078 0.71992 0.0
C618 C 0.47297 0.05578 0.798 0.0
C619 C 0.44594 0.07145 0.79592 0.0
C620 C 0.49028 0.05057 0.77865 0.0
C621 C 0.4807 0.06054 0.75688 0.0
C622 C 0.45291 0.07431 0.75464 0.0
C623 C 0.43576 0.07983 0.77397 0.0
H624 H 0.57099 0.58962 0.27283 0.0
H625 H 0.50418 0.54675 0.31525 0.0
H626 H 0.54104 0.58076 0.23899 0.0
H627 H 0.47421 0.53781 0.28119 0.0
H628 H 0.48615 0.54896 0.1796 0.0
H629 H 0.51663 0.53982 0.21337 0.0
H630 H 0.44916 0.57942 0.25662 0.0
H631 H 0.41873 0.58848 0.22308 0.0
C632 C 0.55014 0.57773 0.27488 0.0
C633 C 0.53978 0.5693 0.29676 0.0
C634 C 0.53309 0.57242 0.25545 0.0
C635 C 0.50523 0.55879 0.2575 0.0
C636 C 0.49553 0.54861 0.27919 0.0
C637 C 0.51273 0.55363 0.29865 0.0
C638 C 0.47762 0.55514 0.19637 0.0
C639 C 0.45019 0.56983 0.19866 0.0
C640 C 0.4951 0.54998 0.21565 0.0
C641 C 0.48529 0.55904 0.23757 0.0
C642 C 0.45719 0.5719 0.23997 0.0
C643 C 0.43986 0.57736 0.22072 0.0
H644 H 0.98965 0.42078 0.31371 0.0
H645 H 0.91332 0.44666 0.27492 0.0
H646 H 0.01976 0.42954 0.28026 0.0
H647 H 0.94353 0.45907 0.24174 0.0
H648 H -0.00387 0.42501 0.17975 0.0
H649 H 0.96625 0.43285 0.21343 0.0
H650 H 0.04326 0.45686 0.25291 0.0
H651 H 0.07314 0.44538 0.21936 0.0
C652 C 0.97954 0.42959 0.2981 0.0
C653 C 0.9493 0.43274 0.29666 0.0
C654 C -0.00317 0.43496 0.27883 0.0
C655 C 0.9843 0.44467 0.25782 0.0
C656 C 0.95407 0.45045 0.25717 0.0
C657 C 0.93668 0.44379 0.27624 0.0
C658 C 0.00648 0.43246 0.19562 0.0
C659 C 0.0368 0.43428 0.19718 0.0
C660 C 0.98933 0.43727 0.21505 0.0
C661 C 0.00211 0.44507 0.23636 0.0
C662 C 0.03249 0.44967 0.2372 0.0
C663 C 0.04971 0.44356 0.21793 0.0
H664 H 0.50396 0.44383 0.81546 0.0
H665 H 0.56991 0.40387 0.7708 0.0
H666 H 0.47248 0.45295 0.78228 0.0
H667 H 0.5385 0.41299 0.73782 0.0
H668 H 0.48135 0.44548 0.68031 0.0
H669 H 0.51243 0.45468 0.71369 0.0
H670 H 0.44743 0.41117 0.75735 0.0
H671 H 0.41636 0.40197 0.72416 0.0
C672 C 0.51199 0.43764 0.79855 0.0
C673 C 0.53926 0.42273 0.79576 0.0
C674 C 0.49392 0.44276 0.7796 0.0
C675 C 0.50301 0.43351 0.75754 0.0
C676 C 0.53102 0.42062 0.7546 0.0
C677 C 0.54892 0.41515 0.77353 0.0
C678 C 0.47344 0.43846 0.69709 0.0
C679 C 0.44657 0.42256 0.69956 0.0
C680 C 0.49127 0.44368 0.71615 0.0
C681 C 0.48239 0.43347 0.73804 0.0
C682 C 0.45473 0.41954 0.74071 0.0
C683 C 0.43704 0.41402 0.72165 0.0
H684 H 0.91701 0.58995 0.77059 0.0
H685 H 0.9819 0.54628 0.81454 0.0
H686 H 0.94787 0.58011 0.73739 0.0
H687 H 0.01276 0.53646 0.78117 0.0
H688 H 0.07007 0.58696 0.72366 0.0
H689 H 0.03893 0.57797 0.7568 0.0
H690 H 0.97258 0.5377 0.71271 0.0
H691 H 0.00376 0.54666 0.6794 0.0
C692 C 0.93761 0.57772 0.77312 0.0
C693 C 0.94719 0.56933 0.79523 0.0
C694 C 0.95518 0.57183 0.75407 0.0
C695 C 0.98275 0.55769 0.75677 0.0
C696 C 0.99166 0.54762 0.77868 0.0
C697 C 0.97396 0.55319 0.79774 0.0
C698 C 0.04908 0.5756 0.72106 0.0
C699 C 0.0392 0.56795 0.69889 0.0
C700 C 0.03134 0.57022 0.74007 0.0
C701 C 0.00329 0.55734 0.73726 0.0
C702 C -0.00595 0.5479 0.71528 0.0
C703 C 0.01194 0.55294 0.69626 0.0
H704 H 0.15514 0.16006 0.27575 0.0
H705 H 0.12855 0.24546 0.31334 0.0
H706 H 0.16441 0.19344 0.242 0.0
H707 H 0.13639 0.2785 0.27953 0.0
H708 H 0.15494 0.33645 0.21789 0.0
H709 H 0.16526 0.303 0.25143 0.0
H710 H 0.13434 0.21836 0.21483 0.0
H711 H 0.12543 0.25146 0.18119 0.0
C712 C 0.15165 0.18603 0.2769 0.0
C713 C 0.14071 0.20004 0.29712 0.0
C714 C 0.15675 0.20517 0.25749 0.0
C715 C 0.15063 0.23867 0.25778 0.0
C716 C 0.14165 0.25291 0.27857 0.0
C717 C 0.13695 0.23386 0.29803 0.0
C718 C 0.15099 0.31056 0.2169 0.0
C719 C 0.139 0.29669 0.19699 0.0
C720 C 0.15671 0.29138 0.23619 0.0
C721 C 0.15018 0.25797 0.23611 0.0
C722 C 0.13998 0.24386 0.21561 0.0
C723 C 0.13465 0.26295 0.19626 0.0
H724 H 0.3223 0.73422 0.17647 0.0
H725 H 0.34891 0.65717 0.22215 0.0
H726 H 0.31224 0.76892 0.20947 0.0
H727 H 0.34033 0.69204 0.25487 0.0
H728 H 0.32143 0.75662 0.31314 0.0
H729 H 0.31128 0.72194 0.28012 0.0
H730 H 0.34196 0.79771 0.23486 0.0
H731 H 0.35066 0.83256 0.26756 0.0
C732 C 0.32564 0.72453 0.19354 0.0
C733 C 0.33689 0.69312 0.19663 0.0
C734 C 0.32008 0.7445 0.21249 0.0
C735 C 0.32601 0.73364 0.23493 0.0
C736 C 0.33523 0.70136 0.23798 0.0
C737 C 0.34041 0.68131 0.21909 0.0
C738 C 0.32537 0.76606 0.29609 0.0
C739 C 0.33728 0.79717 0.29304 0.0
C740 C 0.31974 0.7461 0.27713 0.0
C741 C 0.32623 0.75669 0.25472 0.0
C742 C 0.33634 0.78864 0.25171 0.0
C743 C 0.34161 0.80866 0.27059 0.0
H744 H 0.65731 0.6596 0.28104 0.0
H745 H 0.62863 0.74778 0.31425 0.0
H746 H 0.66665 0.68993 0.2459 0.0
H747 H 0.63687 0.77777 0.27906 0.0
H748 H 0.65632 0.82979 0.21495 0.0
H749 H 0.66696 0.79956 0.24992 0.0
H750 H 0.63505 0.71184 0.2178 0.0
H751 H 0.62549 0.74173 0.18277 0.0
C752 C 0.65344 0.68555 0.28096 0.0
C753 C 0.64176 0.70118 0.30033 0.0
C754 C 0.65861 0.70291 0.26076 0.0
C755 C 0.652 0.73622 0.25943 0.0
C756 C 0.64246 0.75224 0.27939 0.0
C757 C 0.63755 0.73495 0.29964 0.0
C758 C 0.65221 0.80389 0.21522 0.0
C759 C 0.63963 0.78826 0.19619 0.0
C760 C 0.65815 0.78659 0.23532 0.0
C761 C 0.65143 0.75332 0.2369 0.0
C762 C 0.64079 0.73733 0.21726 0.0
C763 C 0.6351 0.75456 0.19712 0.0
H764 H 0.82883 0.33838 0.27416 0.0
H765 H 0.8573 0.25191 0.30953 0.0
H766 H 0.81775 0.30599 0.24022 0.0
H767 H 0.84766 0.21986 0.27548 0.0
H768 H 0.85278 0.24932 0.17728 0.0
H769 H 0.84582 0.28163 0.21158 0.0
H770 H 0.81702 0.19616 0.24817 0.0
H771 H 0.82542 0.16347 0.2139 0.0
C772 C 0.8324 0.31239 0.27477 0.0
C773 C 0.84429 0.29779 0.29444 0.0
C774 C 0.82625 0.29382 0.25525 0.0
C775 C 0.83225 0.26028 0.25483 0.0
C776 C 0.8424 0.24547 0.27508 0.0
C777 C 0.84815 0.26396 0.29467 0.0
C778 C 0.84439 0.23748 0.19249 0.0
C779 C 0.84016 0.2037 0.19296 0.0
C780 C 0.8402 0.25612 0.21225 0.0
C781 C 0.83127 0.24153 0.23291 0.0
C782 C 0.82467 0.20813 0.23278 0.0
C783 C 0.82925 0.18939 0.21307 0.0
H784 H 0.85715 0.74746 0.81513 0.0
H785 H 0.82713 0.66162 0.77969 0.0
H786 H 0.84867 0.77956 0.78096 0.0
H787 H 0.81728 0.6941 0.7456 0.0
H788 H 0.85543 0.749 0.683 0.0
H789 H 0.84698 0.71726 0.71735 0.0
H790 H 0.8191 0.80388 0.75312 0.0
H791 H 0.82894 0.83593 0.71883 0.0
C792 C 0.84787 0.73559 0.80024 0.0
C793 C 0.84332 0.70186 0.80001 0.0
C794 C 0.8428 0.75411 0.78057 0.0
C795 C 0.83267 0.73944 0.76026 0.0
C796 C 0.82581 0.70612 0.7607 0.0
C797 C 0.83125 0.6875 0.7803 0.0
C798 C 0.84696 0.76122 0.69804 0.0
C799 C 0.84335 0.79508 0.6983 0.0
C800 C 0.84189 0.74292 0.71781 0.0
C801 C 0.83271 0.75798 0.73826 0.0
C802 C 0.82687 0.79154 0.7379 0.0
C803 C 0.83232 0.80991 0.71819 0.0
H804 H 0.65742 0.33009 0.77793 0.0
H805 H 0.62684 0.2434 0.8119 0.0
H806 H 0.66707 0.2986 0.74331 0.0
H807 H 0.63527 0.21227 0.77721 0.0
H808 H 0.65558 0.15765 0.71437 0.0
H809 H 0.66544 0.18883 0.7491 0.0
H810 H 0.63695 0.27623 0.7147 0.0
H811 H 0.62832 0.24537 0.67993 0.0
C812 C 0.65313 0.30423 0.77811 0.0
C813 C 0.64096 0.28935 0.79757 0.0
C814 C 0.65848 0.28618 0.75821 0.0
C815 C 0.65149 0.25292 0.75722 0.0
C816 C 0.64122 0.23771 0.77726 0.0
C817 C 0.63618 0.25567 0.79721 0.0
C818 C 0.65209 0.18366 0.7141 0.0
C819 C 0.64074 0.19894 0.69448 0.0
C820 C 0.65755 0.20153 0.73407 0.0
C821 C 0.65151 0.23502 0.73495 0.0
C822 C 0.64215 0.25059 0.71475 0.0
C823 C 0.637 0.23279 0.69474 0.0
H824 H 0.35472 0.2458 0.68246 0.0
H825 H 0.32708 0.33375 0.71649 0.0
H826 H 0.3463 0.2153 0.71738 0.0
H827 H 0.31744 0.30291 0.75137 0.0
H828 H 0.35726 0.2494 0.81422 0.0
H829 H 0.34805 0.28008 0.77949 0.0
H830 H 0.31641 0.1931 0.7462 0.0
H831 H 0.32683 0.16207 0.78086 0.0
C832 C 0.346 0.25849 0.69721 0.0
C833 C 0.3421 0.29232 0.6968 0.0
C834 C 0.34096 0.2409 0.7173 0.0
C835 C 0.33158 0.25665 0.73743 0.0
C836 C 0.32535 0.29008 0.7364 0.0
C837 C 0.33068 0.30775 0.71634 0.0
C838 C 0.34777 0.2369 0.79968 0.0
C839 C 0.3433 0.20316 0.80019 0.0
C840 C 0.34229 0.25459 0.77969 0.0
C841 C 0.33187 0.23905 0.7598 0.0
C842 C 0.32511 0.20575 0.76098 0.0
C843 C 0.33089 0.18798 0.78092 0.0
H844 H 0.13036 0.74653 0.67937 0.0
H845 H 0.1586 0.66044 0.71532 0.0
H846 H 0.1389 0.77876 0.71351 0.0
H847 H 0.16848 0.69301 0.7494 0.0
H848 H 0.12955 0.74915 0.81131 0.0
H849 H 0.1385 0.71692 0.77723 0.0
H850 H 0.16848 0.80269 0.74161 0.0
H851 H 0.15818 0.83526 0.7756 0.0
C852 C 0.13926 0.73462 0.69437 0.0
C853 C 0.14328 0.70082 0.69475 0.0
C854 C 0.14437 0.75321 0.71402 0.0
C855 C 0.15399 0.7385 0.73447 0.0
C856 C 0.16036 0.70506 0.73418 0.0
C857 C 0.15489 0.6864 0.71459 0.0
C858 C 0.13861 0.76107 0.79638 0.0
C859 C 0.14264 0.79487 0.79604 0.0
C860 C 0.14395 0.74248 0.77677 0.0
C861 C 0.15383 0.75719 0.75641 0.0
C862 C 0.16017 0.79063 0.75675 0.0
C863 C 0.15446 0.8093 0.77629 0.0
H864 H 0.05591 0.02123 0.45521 0.0
H865 H 0.96867 0.01381 0.4286 0.0
H866 H 0.03816 0.00837 0.49361 0.0
H867 H 0.95052 0.00187 0.46701 0.0
H868 H 0.93198 0.94761 0.533 0.0
H869 H 0.95029 0.96051 0.49494 0.0
H870 H 0.01047 0.02932 0.5248 0.0
H871 H -0.00663 0.01457 0.56301 0.0
C872 C 0.03282 0.01752 0.45776 0.0
C873 C 0.01351 0.019 0.43918 0.0
C874 C 0.02262 0.01012 0.47971 0.0
C875 C -0.00714 0.00418 0.48347 0.0
C876 C 0.97361 0.0058 0.46473 0.0
C877 C 0.9839 0.01284 0.44277 0.0
C878 C 0.94969 0.96478 0.53145 0.0
C879 C 0.96204 0.97918 0.55098 0.0
C880 C 0.95979 0.97273 0.50959 0.0
C881 C 0.98202 0.99584 0.50675 0.0
C882 C -0.00622 0.01091 0.52634 0.0
C883 C 0.98384 0.00268 0.54822 0.0
H884 H 0.49084 0.936 0.44175 0.0
H885 H 0.43731 0.02198 0.44241 0.0
H886 H 0.509 0.94932 0.47992 0.0
H887 H 0.45424 0.03477 0.48099 0.0
H888 H 0.50925 0.06671 0.54049 0.0
H889 H 0.49394 0.05346 0.5019 0.0
H890 H 0.49636 0.95128 0.51884 0.0
H891 H 0.5143 0.9646 0.55693 0.0
C892 C 0.4826 0.95746 0.4503 0.0
C893 C 0.46249 0.97781 0.43934 0.0
C894 C 0.49293 0.96512 0.4722 0.0
C895 C 0.48308 0.99313 0.48369 0.0
C896 C 0.46279 0.01336 0.47259 0.0
C897 C 0.45288 0.00595 0.45055 0.0
C898 C 0.50764 0.0414 0.53584 0.0
C899 C 0.51408 0.01672 0.55167 0.0
C900 C 0.49806 0.03375 0.51375 0.0
C901 C 0.49391 0.00124 0.50709 0.0
C902 C 0.49987 0.97657 0.5231 0.0
C903 C 0.50989 0.98423 0.54507 0.0
H904 H 0.49762 0.05742 0.94177 0.0
H905 H 0.44749 0.9689 0.94205 0.0
H906 H 0.51764 0.04378 0.97929 0.0
H907 H 0.46639 0.95567 0.97997 0.0
H908 H 0.52246 0.92541 0.03889 0.0
H909 H 0.50743 0.93867 0.00025 0.0
H910 H 0.50526 0.04049 0.01833 0.0
H911 H 0.5228 0.02732 0.05655 0.0
C912 C 0.49057 0.03528 0.95009 0.0
C913 C 0.47075 0.01439 0.93925 0.0
C914 C 0.50199 0.02743 0.9716 0.0
C915 C 0.49359 -0.00135 0.98281 0.0
C916 C 0.47381 0.97773 0.97176 0.0
C917 C 0.46277 0.98538 0.95011 0.0
C918 C 0.51997 0.95071 0.0345 0.0
C919 C 0.5248 0.97535 0.05075 0.0
C920 C 0.51056 0.95831 0.01236 0.0
C921 C 0.50504 0.99069 0.00604 0.0
C922 C 0.50978 0.01533 0.02235 0.0
C923 C 0.5196 0.00774 0.04438 0.0
H924 H 0.97149 0.07312 0.03777 0.0
H925 H 0.96468 0.97118 0.0544 0.0
H926 H 0.98692 0.05935 -0.00071 0.0
H927 H 0.98265 0.95732 0.01646 0.0
H928 H 0.98934 0.94123 0.93972 0.0
H929 H 0.97028 0.95562 0.97741 0.0
H930 H 0.02691 0.03952 0.97906 0.0
H931 H 0.04479 0.02568 0.94094 0.0
C932 C 0.97273 0.04776 0.03318 0.0
C933 C 0.96583 0.02327 0.04903 0.0
C934 C 0.98235 0.03981 0.01116 0.0
C935 C 0.98602 0.00718 0.00463 0.0
C936 C 0.97952 0.9827 0.02064 0.0
C937 C 0.96948 0.99067 0.04252 0.0
C938 C -0.00225 0.9626 0.94829 0.0
C939 C 0.01871 0.98218 0.93767 0.0
C940 C 0.98691 0.97086 0.96989 0.0
C941 C -0.0029 -0.0013 0.98141 0.0
C942 C 0.01813 0.01825 0.97061 0.0
C943 C 0.02857 0.01025 0.94885 0.0
H944 H 0.55215 0.5398 0.45962 0.0
H945 H 0.48427 0.48077 0.43 0.0
H946 H 0.53481 0.52666 0.49787 0.0
H947 H 0.46814 0.4654 0.46835 0.0
H948 H 0.42627 0.47444 0.53915 0.0
H949 H 0.44351 0.48667 0.50054 0.0
H950 H 0.53222 0.48545 0.52532 0.0
H951 H 0.51457 0.47451 0.56402 0.0
C952 C 0.53326 0.5243 0.46132 0.0
C953 C 0.51877 0.5124 0.44186 0.0
C954 C 0.52369 0.51613 0.48328 0.0
C955 C 0.49987 0.49513 0.48629 0.0
C956 C 0.48609 0.48225 0.46673 0.0
C957 C 0.49547 0.4908 0.44475 0.0
C958 C 0.44944 0.47642 0.53616 0.0
C959 C 0.46919 0.47321 0.55433 0.0
C960 C 0.45938 0.48339 0.51407 0.0
C961 C 0.48931 0.48698 0.50971 0.0
C962 C 0.50901 0.48343 0.52804 0.0
C963 C 0.49899 0.47697 0.55017 0.0
H964 H 0.9707 0.51343 0.56443 0.0
H965 H 0.05782 0.52077 0.53766 0.0
H966 H 0.95223 0.50259 0.5259 0.0
H967 H 0.03977 0.50896 0.49917 0.0
H968 H -0.00483 0.51686 0.42994 0.0
H969 H 0.01222 0.53083 0.46834 0.0
H970 H 0.95142 0.46212 0.49738 0.0
H971 H 0.93311 0.45006 0.45914 0.0
C972 C 0.98584 0.51263 0.55021 0.0
C973 C 0.01551 0.51848 0.55378 0.0
C974 C 0.97536 0.50624 0.52818 0.0
C975 C -0.00551 0.50495 0.50936 0.0
C976 C 0.02431 0.51051 0.51313 0.0
C977 C 0.0347 0.51729 0.53514 0.0
C978 C 0.98548 0.50485 0.4446 0.0
C979 C 0.96354 0.48156 0.44155 0.0
C980 C -0.00461 0.51262 0.46658 0.0
C981 C 0.98349 0.4973 0.48599 0.0
C982 C 0.96105 0.47451 0.48287 0.0
C983 C 0.95096 0.46703 0.46091 0.0
H984 H 0.99023 0.4432 0.0517 0.0
H985 H 0.04892 0.52478 0.04765 0.0
H986 H 0.97239 0.45526 0.013 0.0
H987 H 0.03132 0.53665 0.00885 0.0
H988 H 0.01593 0.5159 0.93055 0.0
H989 H 0.0332 0.50437 0.96951 0.0
H990 H 0.9446 0.50466 0.99392 0.0
H991 H 0.9274 0.51646 0.95498 0.0
C992 C -0.00056 0.46352 0.04241 0.0
C993 C 0.02115 0.48287 0.0524 0.0
C994 C 0.9891 0.47055 0.02044 0.0
C995 C 0.00063 0.49676 0.00803 0.0
C996 C 0.0223 0.51615 0.01806 0.0
C997 C 0.03224 0.50947 0.0402 0.0
C998 C 0.00025 0.51356 0.94431 0.0
C999 C 0.97046 0.51749 0.94002 0.0
C1000 C 0.01008 0.50713 0.96651 0.0
C1001 C 0.99018 0.50381 0.98461 0.0
C1002 C 0.96032 0.50715 0.9802 0.0
C1003 C 0.95053 0.51418 0.95806 0.0
H1004 H 0.54633 0.52435 0.94242 0.0
H1005 H 0.49286 0.43832 0.94226 0.0
H1006 H 0.52914 0.53781 0.98083 0.0
H1007 H 0.47454 0.45224 0.98024 0.0
H1008 H 0.47078 0.46734 0.05726 0.0
H1009 H 0.48813 0.45421 0.01902 0.0
H1010 H 0.48936 0.55638 0.002 0.0
H1011 H 0.47451 0.56951 0.04076 0.0
C1012 C 0.5307 0.50848 0.95062 0.0
C1013 C 0.52125 0.48007 0.93965 0.0
C1014 C 0.52066 0.51625 0.97255 0.0
C1015 C 0.50045 0.49609 0.98377 0.0
C1016 C 0.49059 0.46796 0.97243 0.0
C1017 C 0.50101 0.45996 0.95066 0.0
C1018 C 0.47478 0.48702 0.04535 0.0
C1019 C 0.47041 0.51946 0.05199 0.0
C1020 C 0.48446 0.47946 0.0233 0.0
C1021 C 0.48989 0.50418 0.00723 0.0
C1022 C 0.48559 0.53666 0.0139 0.0
C1023 C 0.47631 0.54422 0.03609 0.0
H1024 H 0.15489 -0.00271 0.35734 0.0
H1025 H 0.19994 0.07989 0.3857 0.0
H1026 H 0.19927 0.96502 0.35989 0.0
H1027 H 0.2444 0.04753 0.38898 0.0
H1028 H 0.32414 0.99413 0.35948 0.0
H1029 H 0.27947 0.02558 0.36292 0.0
H1030 H 0.23369 0.93931 0.38492 0.0
H1031 H 0.27856 0.9078 0.38083 0.0
C1032 C 0.17427 0.00822 0.36457 0.0
C1033 C 0.17427 0.04087 0.37136 0.0
C1034 C 0.19963 0.98979 0.36614 0.0
C1035 C 0.22543 0.00371 0.3746 0.0
C1036 C 0.22503 0.03622 0.38206 0.0
C1037 C 0.19966 0.05469 0.38034 0.0
C1038 C 0.30455 0.98211 0.36535 0.0
C1039 C 0.30455 0.94871 0.36992 0.0
C1040 C 0.27901 8e-05 0.36742 0.0
C1041 C 0.25298 0.98498 0.37422 0.0
C1042 C 0.25327 0.95158 0.37935 0.0
C1043 C 0.27886 0.93357 0.37713 0.0
H1044 H 0.82857 0.00296 0.13595 0.0
H1045 H 0.78068 0.07816 0.10098 0.0
H1046 H 0.7857 0.96778 0.13496 0.0
H1047 H 0.73757 0.04287 0.09983 0.0
H1048 H 0.67632 0.95355 0.08618 0.0
H1049 H 0.72065 0.98654 0.08289 0.0
H1050 H 0.73634 0.97445 0.15543 0.0
H1051 H 0.69184 0.94277 0.15884 0.0
C1052 C 0.80889 0.01166 0.12777 0.0
C1053 C 0.80764 0.043 0.11849 0.0
C1054 C 0.78444 0.99169 0.12728 0.0
C1055 C 0.75844 0.00273 0.11735 0.0
C1056 C 0.75749 0.03378 0.10739 0.0
C1057 C 0.78194 0.05392 0.10813 0.0
C1058 C 0.68932 0.95808 0.10135 0.0
C1059 C 0.68095 0.94537 0.1227 0.0
C1060 C 0.71455 0.97685 0.09948 0.0
C1061 C 0.73191 0.98269 0.11888 0.0
C1062 C 0.72357 0.96978 0.14015 0.0
C1063 C 0.69821 0.95153 0.14207 0.0
H1064 H 0.65547 0.99637 0.63564 0.0
H1065 H 0.69837 0.07665 0.60244 0.0
H1066 H 0.6998 0.96407 0.63274 0.0
H1067 H 0.74276 0.04421 0.59886 0.0
H1068 H 0.82423 0.99323 0.62802 0.0
H1069 H 0.77941 0.02439 0.62459 0.0
H1070 H 0.73274 0.93652 0.60729 0.0
H1071 H 0.77782 0.90535 0.61131 0.0
C1072 C 0.67435 0.00676 0.62731 0.0
C1073 C 0.67378 0.03878 0.61923 0.0
C1074 C 0.69967 0.98829 0.62553 0.0
C1075 C 0.72485 0.00156 0.61557 0.0
C1076 C 0.72386 0.03343 0.60689 0.0
C1077 C 0.69854 0.05194 0.60881 0.0
C1078 C 0.80442 0.98077 0.62314 0.0
C1079 C 0.80425 0.94704 0.61992 0.0
C1080 C 0.77877 -0.00143 0.62108 0.0
C1081 C 0.75246 0.98294 0.61567 0.0
C1082 C 0.75257 0.9492 0.61179 0.0
C1083 C 0.77827 0.93139 0.61397 0.0
H1084 H 0.32793 0.0003 0.86132 0.0
H1085 H 0.28233 0.08255 0.88962 0.0
H1086 H 0.28375 0.96777 0.86363 0.0
H1087 H 0.23801 0.04988 0.89264 0.0
H1088 H 0.15885 0.99593 0.86233 0.0
H1089 H 0.2032 0.02779 0.86642 0.0
H1090 H 0.24936 0.94167 0.8883 0.0
H1091 H 0.20482 0.90976 0.88352 0.0
C1092 C 0.30847 0.01111 0.86848 0.0
C1093 C 0.30826 0.04376 0.87527 0.0
C1094 C 0.28321 0.99251 0.86992 0.0
C1095 C 0.2573 0.00622 0.87829 0.0
C1096 C 0.25748 0.03873 0.88579 0.0
C1097 C 0.28276 0.05739 0.88419 0.0
C1098 C 0.17845 0.98403 0.86831 0.0
C1099 C 0.17867 0.95056 0.87261 0.0
C1100 C 0.20381 0.00224 0.87077 0.0
C1101 C 0.22986 0.98729 0.8777 0.0
C1102 C 0.22976 0.95383 0.88263 0.0
C1103 C 0.20436 0.93559 0.88 0.0
H1104 H 0.77984 0.4088 0.38248 0.0
H1105 H 0.82608 0.49595 0.36386 0.0
H1106 H 0.73516 0.44043 0.38737 0.0
H1107 H 0.78162 0.52754 0.36806 0.0
H1108 H 0.70231 0.58128 0.39183 0.0
H1109 H 0.74655 0.54839 0.39443 0.0
H1110 H 0.70101 0.46777 0.36317 0.0
H1111 H 0.65687 0.50048 0.36134 0.0
C1112 C 0.78032 0.43477 0.37954 0.0
C1113 C 0.80615 0.45011 0.37287 0.0
C1114 C 0.75484 0.45285 0.38222 0.0
C1115 C 0.7548 0.48654 0.37809 0.0
C1116 C 0.78095 0.5018 0.37181 0.0
C1117 C 0.80638 0.48375 0.36929 0.0
C1118 C 0.7019 0.55638 0.38584 0.0
C1119 C 0.67647 0.54322 0.37643 0.0
C1120 C 0.72714 0.53761 0.38718 0.0
C1121 C 0.72736 0.50547 0.37891 0.0
C1122 C 0.70152 0.4922 0.37004 0.0
C1123 C 0.67629 0.51091 0.36887 0.0
H1124 H 0.32921 0.49475 0.13521 0.0
H1125 H 0.28704 0.57677 0.10355 0.0
H1126 H 0.28457 0.46307 0.13163 0.0
H1127 H 0.24239 0.545 0.09925 0.0
H1128 H 0.1607 0.49519 0.12874 0.0
H1129 H 0.20599 0.52535 0.12513 0.0
H1130 H 0.25063 0.43689 0.10614 0.0
H1131 H 0.20503 0.40668 0.1103 0.0
C1132 C 0.31044 0.50564 0.12702 0.0
C1133 C 0.31126 0.538 0.11965 0.0
C1134 C 0.28495 0.48754 0.12485 0.0
C1135 C 0.25987 0.50154 0.11521 0.0
C1136 C 0.26119 0.53367 0.10706 0.0
C1137 C 0.28667 0.5518 0.10939 0.0
C1138 C 0.18014 0.48239 0.12343 0.0
C1139 C 0.1796 0.44876 0.11977 0.0
C1140 C 0.20606 0.49963 0.12126 0.0
C1141 C 0.23195 0.48354 0.11532 0.0
C1142 C 0.23113 0.44991 0.11101 0.0
C1143 C 0.20514 0.43265 0.11329 0.0
H1144 H 0.32643 0.49486 0.63431 0.0
H1145 H 0.28249 0.41115 0.60643 0.0
H1146 H 0.28196 0.52676 0.63055 0.0
H1147 H 0.23779 0.44305 0.60237 0.0
H1148 H 0.15811 0.49831 0.63219 0.0
H1149 H 0.20264 0.4664 0.62912 0.0
H1150 H 0.24797 0.55063 0.60309 0.0
H1151 H 0.20319 0.58254 0.60643 0.0
C1152 C 0.30729 0.48356 0.62696 0.0
C1153 C 0.30766 0.45075 0.62057 0.0
C1154 C 0.28189 0.50177 0.62473 0.0
C1155 C 0.25638 0.48741 0.61614 0.0
C1156 C 0.25704 0.45467 0.60926 0.0
C1157 C 0.28251 0.43647 0.61149 0.0
C1158 C 0.17752 0.50972 0.62541 0.0
C1159 C 0.17744 0.54269 0.61946 0.0
C1160 C 0.20296 0.49151 0.62359 0.0
C1161 C 0.22882 0.50602 0.61586 0.0
C1162 C 0.22845 0.53889 0.60933 0.0
C1163 C 0.20293 0.5571 0.61115 0.0
H1164 H 0.70697 0.40715 0.88375 0.0
H1165 H 0.6603 0.49278 0.86234 0.0
H1166 H 0.7516 0.43926 0.88735 0.0
H1167 H 0.70466 0.52486 0.86558 0.0
H1168 H 0.78421 0.57958 0.88923 0.0
H1169 H 0.73998 0.54672 0.89235 0.0
H1170 H 0.78494 0.46582 0.86104 0.0
H1171 H 0.829 0.49863 0.85838 0.0
C1172 C 0.70636 0.4329 0.87995 0.0
C1173 C 0.68043 0.44765 0.87283 0.0
C1174 C 0.73179 0.45123 0.88193 0.0
C1175 C 0.73164 0.4846 0.87675 0.0
C1176 C 0.70541 0.49936 0.87009 0.0
C1177 C 0.68005 0.48103 0.86815 0.0
C1178 C 0.7845 0.55465 0.8833 0.0
C1179 C 0.80976 0.5414 0.8737 0.0
C1180 C 0.75929 0.5359 0.88497 0.0
C1181 C 0.75897 0.50367 0.87693 0.0
C1182 C 0.78459 0.49035 0.86775 0.0
C1183 C 0.80975 0.50909 0.86613 0.0
H1184 H 0.00332 0.15337 0.38969 0.0
H1185 H 0.06914 0.21539 0.36002 0.0
H1186 H 0.97219 0.20066 0.3958 0.0
H1187 H 0.03807 0.26246 0.36626 0.0
H1188 H 0.9808 0.34449 0.38879 0.0
H1189 H 0.01191 0.29746 0.39579 0.0
H1190 H 0.94726 0.235 0.36512 0.0
H1191 H 0.91617 0.28185 0.35805 0.0
C1192 C 0.01145 0.17714 0.38498 0.0
C1193 C 0.03853 0.18061 0.37407 0.0
C1194 C -0.00643 0.20414 0.38841 0.0
C1195 C 0.00265 0.23511 0.38134 0.0
C1196 C 0.03059 0.23889 0.37202 0.0
C1197 C 0.04831 0.21188 0.36831 0.0
C1198 C 0.97292 0.32065 0.38401 0.0
C1199 C 0.94614 0.31691 0.37265 0.0
C1200 C 0.9908 0.29379 0.38795 0.0
C1201 C 0.98202 0.26268 0.38092 0.0
C1202 C 0.95446 0.25868 0.37091 0.0
C1203 C 0.93676 0.28555 0.3667 0.0
H1204 H 0.47607 0.84191 0.39151 0.0
H1205 H 0.4139 0.77788 0.35904 0.0
H1206 H 0.50738 0.79547 0.39974 0.0
H1207 H 0.44522 0.73169 0.36723 0.0
H1208 H 0.50179 0.65085 0.39094 0.0
H1209 H 0.46942 0.69705 0.39709 0.0
H1210 H 0.53586 0.76183 0.37176 0.0
H1211 H 0.56821 0.7159 0.36567 0.0
C1212 C 0.46877 0.8179 0.38657 0.0
C1213 C 0.44271 0.81364 0.37429 0.0
C1214 C 0.48676 0.79136 0.39123 0.0
C1215 C 0.47885 0.76005 0.38396 0.0
C1216 C 0.4518 0.7555 0.37321 0.0
C1217 C 0.43396 0.78203 0.36835 0.0
C1218 C 0.50975 0.67502 0.3872 0.0
C1219 C 0.53742 0.67967 0.37748 0.0
C1220 C 0.49116 0.70143 0.39065 0.0
C1221 C 0.50003 0.73297 0.38472 0.0
C1222 C 0.52847 0.73784 0.37665 0.0
C1223 C 0.54694 0.71146 0.37299 0.0
H1224 H 0.50259 0.84387 0.10372 0.0
H1225 H 0.56891 0.77662 0.12613 0.0
H1226 H 0.46963 0.79838 0.09656 0.0
H1227 H 0.53608 0.73144 0.119 0.0
H1228 H 0.47605 0.65298 0.09841 0.0
H1229 H 0.50685 0.69986 0.09046 0.0
H1230 H 0.44578 0.762 0.12564 0.0
H1231 H 0.4149 0.71535 0.13355 0.0
C1232 C 0.51039 0.81938 0.10657 0.0
C1233 C 0.5382 0.81383 0.11582 0.0
C1234 C 0.49147 0.7934 0.10256 0.0
C1235 C 0.50021 0.76143 0.10739 0.0
C1236 C 0.52878 0.75578 0.11494 0.0
C1237 C 0.54753 0.78171 0.1192 0.0
C1238 C 0.46884 0.67674 0.10402 0.0
C1239 C 0.44328 0.68033 0.11702 0.0
C1240 C 0.48653 0.70354 0.09948 0.0
C1241 C 0.47887 0.73448 0.10765 0.0
C1242 C 0.45218 0.73848 0.119 0.0
C1243 C 0.43458 0.71167 0.12369 0.0
H1244 H 0.97748 0.15805 0.10033 0.0
H1245 H 0.91229 0.22002 0.13097 0.0
H1246 H 0.00908 0.20508 0.09494 0.0
H1247 H 0.94385 0.26687 0.12544 0.0
H1248 H 0.06596 0.28405 0.13412 0.0
H1249 H 0.03417 0.23801 0.12642 0.0
H1250 H 0.97066 0.30237 0.0963 0.0
H1251 H 0.00256 0.34865 0.10386 0.0
C1252 C 0.96959 0.18177 0.1054 0.0
C1253 C 0.94255 0.18526 0.11639 0.0
C1254 C 0.98774 0.20863 0.10238 0.0
C1255 C 0.97898 0.23949 0.10994 0.0
C1256 C 0.95107 0.24337 0.11932 0.0
C1257 C 0.93308 0.21649 0.12262 0.0
C1258 C 0.04547 0.28836 0.12547 0.0
C1259 C 0.03663 0.32002 0.11984 0.0
C1260 C 0.02737 0.26195 0.1209 0.0
C1261 C -6e-05 0.26671 0.11085 0.0
C1262 C 0.99166 0.29813 0.10418 0.0
C1263 C 0.00996 0.32455 0.10845 0.0
H1264 H 0.9148 0.77865 0.63464 0.0
H1265 H 0.97819 0.84113 0.60229 0.0
H1266 H 0.94628 0.73202 0.62799 0.0
H1267 H 0.00963 0.79431 0.59565 0.0
H1268 H 0.00324 0.65036 0.60454 0.0
H1269 H 0.97113 0.69673 0.59811 0.0
H1270 H 0.03688 0.76104 0.62522 0.0
H1271 H 0.06893 0.71491 0.63173 0.0
C1272 C 0.93517 0.78234 0.6257 0.0
C1273 C 0.94412 0.81364 0.61922 0.0
C1274 C 0.9531 0.75558 0.62174 0.0
C1275 C 0.98045 0.75963 0.61142 0.0
C1276 C 0.98872 0.7906 0.60377 0.0
C1277 C 0.97063 0.81735 0.6075 0.0
C1278 C 0.0111 0.67447 0.60867 0.0
C1279 C 0.03848 0.67893 0.61895 0.0
C1280 C -0.00734 0.70095 0.60505 0.0
C1281 C 0.00146 0.73239 0.61131 0.0
C1282 C 0.0296 0.7371 0.62007 0.0
C1283 C 0.04789 0.71063 0.62395 0.0
H1284 H 0.47851 0.34134 0.60166 0.0
H1285 H 0.41467 0.27701 0.63159 0.0
H1286 H 0.50989 0.29487 0.5937 0.0
H1287 H 0.44604 0.23081 0.62364 0.0
H1288 H 0.50305 0.1501 0.60081 0.0
H1289 H 0.4714 0.19672 0.59397 0.0
H1290 H 0.53688 0.26043 0.6222 0.0
H1291 H 0.5685 0.21409 0.62901 0.0
C1292 C 0.47087 0.31727 0.6061 0.0
C1293 C 0.44429 0.31292 0.61762 0.0
C1294 C 0.48889 0.29071 0.60157 0.0
C1295 C 0.4805 0.2593 0.60821 0.0
C1296 C 0.453 0.2547 0.61816 0.0
C1297 C 0.43512 0.28124 0.62289 0.0
C1298 C 0.51098 0.17414 0.60506 0.0
C1299 C 0.53809 0.17835 0.61583 0.0
C1300 C 0.4928 0.20078 0.6012 0.0
C1301 C 0.50157 0.23211 0.60776 0.0
C1302 C 0.52959 0.23659 0.61682 0.0
C1303 C 0.54763 0.20998 0.62089 0.0
H1304 H 0.48097 0.15134 0.89364 0.0
H1305 H 0.41628 0.21622 0.86543 0.0
H1306 H 0.51282 0.19761 0.90108 0.0
H1307 H 0.44813 0.26219 0.87276 0.0
H1308 H 0.50675 0.34255 0.89336 0.0
H1309 H 0.47498 0.29637 0.90126 0.0
H1310 H 0.53888 0.23156 0.8721 0.0
H1311 H 0.57062 0.27742 0.86431 0.0
C1312 C 0.47325 0.17549 0.8895 0.0
C1313 C 0.4463 0.18006 0.87856 0.0
C1314 C 0.49155 0.20194 0.89371 0.0
C1315 C 0.48307 0.23343 0.8873 0.0
C1316 C 0.4552 0.23824 0.87805 0.0
C1317 C 0.43703 0.21183 0.87365 0.0
C1318 C 0.51431 0.31837 0.88913 0.0
C1319 C 0.541 0.31369 0.87784 0.0
C1320 C 0.49607 0.29197 0.8936 0.0
C1321 C 0.50435 0.26043 0.88712 0.0
C1322 C 0.53198 0.25554 0.87746 0.0
C1323 C 0.55007 0.28189 0.87281 0.0
H1324 H 0.98325 0.65175 0.88976 0.0
H1325 H 0.9162 0.71555 0.86387 0.0
H1326 H 0.01496 0.69855 0.89597 0.0
H1327 H 0.94785 0.76208 0.8701 0.0
H1328 H 0.00661 0.84309 0.89108 0.0
H1329 H 0.9757 0.79607 0.89868 0.0
H1330 H 0.03872 0.73373 0.86589 0.0
H1331 H 0.06958 0.78049 0.85827 0.0
C1332 C 0.97501 0.67578 0.8859 0.0
C1333 C 0.94737 0.67991 0.876 0.0
C1334 C -0.00678 0.70251 0.88939 0.0
C1335 C 0.98395 0.73387 0.88334 0.0
C1336 C 0.95552 0.73823 0.87507 0.0
C1337 C 0.93746 0.71151 0.87135 0.0
C1338 C 0.01416 0.81926 0.88592 0.0
C1339 C 0.04036 0.81557 0.87377 0.0
C1340 C -0.00359 0.7924 0.89023 0.0
C1341 C 0.00473 0.76133 0.88275 0.0
C1342 C 0.03184 0.75735 0.87203 0.0
C1343 C 0.04942 0.7842 0.8675 0.0
loop_
_geom_bond_atom_site_label_1
_geom_bond_atom_site_label_2
_geom_bond_distance
_geom_bond_site_symmetry_2
_ccdc_geom_bond_type
Co0 O3 1.970 . S
Co0 N17 1.989 . S
Co0 O25 1.967 . S
Co0 O32 1.920 . S
Co1 O4 1.966 . S
Co1 N10 2.022 . S
Co1 N18 1.993 . S
Co1 O26 1.941 . S
C2 O3 1.258 . S
C2 O4 1.263 . S
O3 Co0 1.970 . S
O3 C2 1.258 . S
O4 Co1 1.966 . S
O4 C2 1.263 . S
C5 O6 1.235 . S
C5 O32 1.289 . S
O6 C5 1.235 . S
C7 C9 1.400 . S
C7 N10 1.351 . S
C7 C12 1.501 . S
C8 C9 1.387 . S
C8 N11 1.341 . S
C9 C7 1.400 . S
C9 C8 1.387 . S
N10 Co1 2.022 . S
N10 C7 1.351 . S
N10 N11 1.365 . S
N11 C8 1.341 . S
N11 N10 1.365 . S
N11 H31 0.862 . S
C12 C7 1.501 . S
C12 H13 0.961 . S
C12 H14 0.961 . S
C12 H15 0.960 . S
H13 C12 0.961 . S
H14 C12 0.961 . S
H15 C12 0.960 . S
C16 N17 1.342 . S
C16 C20 1.401 . S
C16 C21 1.499 . S
N17 Co0 1.989 . S
N17 C16 1.342 . S
N17 N18 1.388 . S
N18 Co1 1.993 . S
N18 N17 1.388 . S
N18 C19 1.346 . S
C19 N18 1.346 . S
C19 C20 1.396 . S
C19 C29 1.510 . S
C20 C16 1.401 . S
C20 C19 1.396 . S
C21 C16 1.499 . S
C21 H22 0.959 . S
C21 H23 0.960 . S
C21 H24 0.961 . S
H22 C21 0.959 . S
H23 C21 0.960 . S
H24 C21 0.961 . S
O25 Co0 1.967 . S
O25 C33 1.258 . S
O26 Co1 1.941 . S
O26 C33 1.266 . S
H27 C29 0.959 . S
H28 C29 0.961 . S
C29 C19 1.510 . S
C29 H27 0.959 . S
C29 H28 0.961 . S
C29 H30 0.960 . S
H30 C29 0.960 . S
H31 N11 0.862 . S
O32 Co0 1.920 . S
O32 C5 1.289 . S
C33 O25 1.258 . S
C33 O26 1.266 . S
Co34 O37 1.970 . S
Co34 N51 1.989 . S
Co34 O59 1.967 . S
Co34 O66 1.920 . S
Co35 O38 1.966 . S
Co35 N44 2.022 . S
Co35 N52 1.993 . S
Co35 O60 1.941 . S
C36 O37 1.258 . S
C36 O38 1.263 . S
O37 Co34 1.970 . S
O37 C36 1.258 . S
O38 Co35 1.966 . S
O38 C36 1.263 . S
C39 O40 1.235 . S
C39 O66 1.289 . S
O40 C39 1.235 . S
C41 C43 1.400 . S
C41 N44 1.351 . S
C41 C46 1.501 . S
C42 C43 1.387 . S
C42 N45 1.341 . S
C43 C41 1.400 . S
C43 C42 1.387 . S
N44 Co35 2.022 . S
N44 C41 1.351 . S
N44 N45 1.365 . S
N45 C42 1.341 . S
N45 N44 1.365 . S
N45 H65 0.862 . S
C46 C41 1.501 . S
C46 H47 0.961 . S
C46 H48 0.961 . S
C46 H49 0.960 . S
H47 C46 0.961 . S
H48 C46 0.961 . S
H49 C46 0.960 . S
C50 N51 1.342 . S
C50 C54 1.401 . S
C50 C55 1.499 . S
N51 Co34 1.989 . S
N51 C50 1.342 . S
N51 N52 1.388 . S
N52 Co35 1.993 . S
N52 N51 1.388 . S
N52 C53 1.346 . S
C53 N52 1.346 . S
C53 C54 1.396 . S
C53 C63 1.510 . S
C54 C50 1.401 . S
C54 C53 1.396 . S
C55 C50 1.499 . S
C55 H56 0.959 . S
C55 H57 0.960 . S
C55 H58 0.961 . S
H56 C55 0.959 . S
H57 C55 0.960 . S
H58 C55 0.961 . S
O59 Co34 1.967 . S
O59 C67 1.258 . S
O60 Co35 1.941 . S
O60 C67 1.266 . S
H61 C63 0.959 . S
H62 C63 0.961 . S
C63 C53 1.510 . S
C63 H61 0.959 . S
C63 H62 0.961 . S
C63 H64 0.960 . S
H64 C63 0.960 . S
H65 N45 0.862 . S
O66 Co34 1.920 . S
O66 C39 1.289 . S
C67 O59 1.258 . S
C67 O60 1.266 . S
Co68 O71 1.970 . S
Co68 N85 1.989 . S
Co68 O93 1.967 . S
Co68 O100 1.920 . S
Co69 O72 1.966 . S
Co69 N78 2.022 . S
Co69 N86 1.993 . S
Co69 O94 1.941 . S
C70 O71 1.258 . S
C70 O72 1.263 . S
O71 Co68 1.970 . S
O71 C70 1.258 . S
O72 Co69 1.966 . S
O72 C70 1.263 . S
C73 O74 1.235 . S
C73 O100 1.289 . S
O74 C73 1.235 . S
C75 C77 1.400 . S
C75 N78 1.351 . S
C75 C80 1.501 . S
C76 C77 1.387 . S
C76 N79 1.341 . S
C77 C75 1.400 . S
C77 C76 1.387 . S
N78 Co69 2.022 . S
N78 C75 1.351 . S
N78 N79 1.365 . S
N79 C76 1.341 . S
N79 N78 1.365 . S
N79 H99 0.862 . S
C80 C75 1.501 . S
C80 H81 0.961 . S
C80 H82 0.961 . S
C80 H83 0.960 . S
H81 C80 0.961 . S
H82 C80 0.961 . S
H83 C80 0.960 . S
C84 N85 1.342 . S
C84 C88 1.401 . S
C84 C89 1.499 . S
N85 Co68 1.989 . S
N85 C84 1.342 . S
N85 N86 1.388 . S
N86 Co69 1.993 . S
N86 N85 1.388 . S
N86 C87 1.346 . S
C87 N86 1.346 . S
C87 C88 1.396 . S
C87 C97 1.510 . S
C88 C84 1.401 . S
C88 C87 1.396 . S
C89 C84 1.499 . S
C89 H90 0.959 . S
C89 H91 0.960 . S
C89 H92 0.961 . S
H90 C89 0.959 . S
H91 C89 0.960 . S
H92 C89 0.961 . S
O93 Co68 1.967 . S
O93 C101 1.258 . S
O94 Co69 1.941 . S
O94 C101 1.266 . S
H95 C97 0.959 . S
H96 C97 0.961 . S
C97 C87 1.510 . S
C97 H95 0.959 . S
C97 H96 0.961 . S
C97 H98 0.960 . S
H98 C97 0.960 . S
H99 N79 0.862 . S
O100 Co68 1.920 . S
O100 C73 1.289 . S
C101 O93 1.258 . S
C101 O94 1.266 . S
Co102 O105 1.970 . S
Co102 N119 1.989 . S
Co102 O127 1.967 . S
Co102 O134 1.920 . S
Co103 O106 1.966 . S
Co103 N112 2.022 . S
Co103 N120 1.993 . S
Co103 O128 1.941 . S
C104 O105 1.258 . S
C104 O106 1.263 . S
O105 Co102 1.970 . S
O105 C104 1.258 . S
O106 Co103 1.966 . S
O106 C104 1.263 . S
C107 O108 1.235 . S
C107 O134 1.289 . S
O108 C107 1.235 . S
C109 C111 1.400 . S
C109 N112 1.351 . S
C109 C114 1.501 . S
C110 C111 1.387 . S
C110 N113 1.341 . S
C111 C109 1.400 . S
C111 C110 1.387 . S
N112 Co103 2.022 . S
N112 C109 1.351 . S
N112 N113 1.365 . S
N113 C110 1.341 . S
N113 N112 1.365 . S
N113 H133 0.862 . S
C114 C109 1.501 . S
C114 H115 0.961 . S
C114 H116 0.961 . S
C114 H117 0.960 . S
H115 C114 0.961 . S
H116 C114 0.961 . S
H117 C114 0.960 . S
C118 N119 1.342 . S
C118 C122 1.401 . S
C118 C123 1.499 . S
N119 Co102 1.989 . S
N119 C118 1.342 . S
N119 N120 1.388 . S
N120 Co103 1.993 . S
N120 N119 1.388 . S
N120 C121 1.346 . S
C121 N120 1.346 . S
C121 C122 1.396 . S
C121 C131 1.510 . S
C122 C118 1.401 . S
C122 C121 1.396 . S
C123 C118 1.499 . S
C123 H124 0.959 . S
C123 H125 0.960 . S
C123 H126 0.961 . S
H124 C123 0.959 . S
H125 C123 0.960 . S
H126 C123 0.961 . S
O127 Co102 1.967 . S
O127 C135 1.258 . S
O128 Co103 1.941 . S
O128 C135 1.266 . S
H129 C131 0.959 . S
H130 C131 0.961 . S
C131 C121 1.510 . S
C131 H129 0.959 . S
C131 H130 0.961 . S
C131 H132 0.960 . S
H132 C131 0.960 . S
H133 N113 0.862 . S
O134 Co102 1.920 . S
O134 C107 1.289 . S
C135 O127 1.258 . S
C135 O128 1.266 . S
Co136 O139 1.970 . S
Co136 N153 1.989 . S
Co136 O161 1.967 . S
Co136 O168 1.920 . S
Co137 O140 1.966 . S
Co137 N146 2.022 . S
Co137 N154 1.993 . S
Co137 O162 1.941 . S
C138 O139 1.258 . S
C138 O140 1.263 . S
O139 Co136 1.970 . S
O139 C138 1.258 . S
O140 Co137 1.966 . S
O140 C138 1.263 . S
C141 O142 1.235 . S
C141 O168 1.289 . S
O142 C141 1.235 . S
C143 C145 1.400 . S
C143 N146 1.351 . S
C143 C148 1.501 . S
C144 C145 1.387 . S
C144 N147 1.341 . S
C145 C143 1.400 . S
C145 C144 1.387 . S
N146 Co137 2.022 . S
N146 C143 1.351 . S
N146 N147 1.365 . S
N147 C144 1.341 . S
N147 N146 1.365 . S
N147 H167 0.862 . S
C148 C143 1.501 . S
C148 H149 0.961 . S
C148 H150 0.961 . S
C148 H151 0.960 . S
H149 C148 0.961 . S
H150 C148 0.961 . S
H151 C148 0.960 . S
C152 N153 1.342 . S
C152 C156 1.401 . S
C152 C157 1.499 . S
N153 Co136 1.989 . S
N153 C152 1.342 . S
N153 N154 1.388 . S
N154 Co137 1.993 . S
N154 N153 1.388 . S
N154 C155 1.346 . S
C155 N154 1.346 . S
C155 C156 1.396 . S
C155 C165 1.510 . S
C156 C152 1.401 . S
C156 C155 1.396 . S
C157 C152 1.499 . S
C157 H158 0.959 . S
C157 H159 0.960 . S
C157 H160 0.961 . S
H158 C157 0.959 . S
H159 C157 0.960 . S
H160 C157 0.961 . S
O161 Co136 1.967 . S
O161 C169 1.258 . S
O162 Co137 1.941 . S
O162 C169 1.266 . S
H163 C165 0.959 . S
H164 C165 0.961 . S
C165 C155 1.510 . S
C165 H163 0.959 . S
C165 H164 0.961 . S
C165 H166 0.960 . S
H166 C165 0.960 . S
H167 N147 0.862 . S
O168 Co136 1.920 . S
O168 C141 1.289 . S
C169 O161 1.258 . S
C169 O162 1.266 . S
Co170 O173 1.970 . S
Co170 N187 1.989 . S
Co170 O195 1.967 . S
Co170 O202 1.920 . S
Co171 O174 1.966 . S
Co171 N180 2.022 . S
Co171 N188 1.993 . S
Co171 O196 1.941 . S
C172 O173 1.258 . S
C172 O174 1.263 . S
O173 Co170 1.970 . S
O173 C172 1.258 . S
O174 Co171 1.966 . S
O174 C172 1.263 . S
C175 O176 1.235 . S
C175 O202 1.289 . S
O176 C175 1.235 . S
C177 C179 1.400 . S
C177 N180 1.351 . S
C177 C182 1.501 . S
C178 C179 1.387 . S
C178 N181 1.341 . S
C179 C177 1.400 . S
C179 C178 1.387 . S
N180 Co171 2.022 . S
N180 C177 1.351 . S
N180 N181 1.365 . S
N181 C178 1.341 . S
N181 N180 1.365 . S
N181 H201 0.862 . S
C182 C177 1.501 . S
C182 H183 0.961 . S
C182 H184 0.961 . S
C182 H185 0.960 . S
H183 C182 0.961 . S
H184 C182 0.961 . S
H185 C182 0.960 . S
C186 N187 1.342 . S
C186 C190 1.401 . S
C186 C191 1.499 . S
N187 Co170 1.989 . S
N187 C186 1.342 . S
N187 N188 1.388 . S
N188 Co171 1.993 . S
N188 N187 1.388 . S
N188 C189 1.346 . S
C189 N188 1.346 . S
C189 C190 1.396 . S
C189 C199 1.510 . S
C190 C186 1.401 . S
C190 C189 1.396 . S
C191 C186 1.499 . S
C191 H192 0.959 . S
C191 H193 0.960 . S
C191 H194 0.961 . S
H192 C191 0.959 . S
H193 C191 0.960 . S
H194 C191 0.961 . S
O195 Co170 1.967 . S
O195 C203 1.258 . S
O196 Co171 1.941 . S
O196 C203 1.266 . S
H197 C199 0.959 . S
H198 C199 0.961 . S
C199 C189 1.510 . S
C199 H197 0.959 . S
C199 H198 0.961 . S
C199 H200 0.960 . S
H200 C199 0.960 . S
H201 N181 0.862 . S
O202 Co170 1.920 . S
O202 C175 1.289 . S
C203 O195 1.258 . S
C203 O196 1.266 . S
Co204 O207 1.970 . S
Co204 N221 1.989 . S
Co204 O229 1.967 . S
Co204 O236 1.920 . S
Co205 O208 1.966 . S
Co205 N214 2.022 . S
Co205 N222 1.993 . S
Co205 O230 1.941 . S
C206 O207 1.258 . S
C206 O208 1.263 . S
O207 Co204 1.970 . S
O207 C206 1.258 . S
O208 Co205 1.966 . S
O208 C206 1.263 . S
C209 O210 1.235 . S
C209 O236 1.289 . S
O210 C209 1.235 . S
C211 C213 1.400 . S
C211 N214 1.351 . S
C211 C216 1.501 . S
C212 C213 1.387 . S
C212 N215 1.341 . S
C213 C211 1.400 . S
C213 C212 1.387 . S
N214 Co205 2.022 . S
N214 C211 1.351 . S
N214 N215 1.365 . S
N215 C212 1.341 . S
N215 N214 1.365 . S
N215 H235 0.862 . S
C216 C211 1.501 . S
C216 H217 0.961 . S
C216 H218 0.961 . S
C216 H219 0.960 . S
H217 C216 0.961 . S
H218 C216 0.961 . S
H219 C216 0.960 . S
C220 N221 1.342 . S
C220 C224 1.401 . S
C220 C225 1.499 . S
N221 Co204 1.989 . S
N221 C220 1.342 . S
N221 N222 1.388 . S
N222 Co205 1.993 . S
N222 N221 1.388 . S
N222 C223 1.346 . S
C223 N222 1.346 . S
C223 C224 1.396 . S
C223 C233 1.510 . S
C224 C220 1.401 . S
C224 C223 1.396 . S
C225 C220 1.499 . S
C225 H226 0.959 . S
C225 H227 0.960 . S
C225 H228 0.961 . S
H226 C225 0.959 . S
H227 C225 0.960 . S
H228 C225 0.961 . S
O229 Co204 1.967 . S
O229 C237 1.258 . S
O230 Co205 1.941 . S
O230 C237 1.266 . S
H231 C233 0.959 . S
H232 C233 0.961 . S
C233 C223 1.510 . S
C233 H231 0.959 . S
C233 H232 0.961 . S
C233 H234 0.960 . S
H234 C233 0.960 . S
H235 N215 0.862 . S
O236 Co204 1.920 . S
O236 C209 1.289 . S
C237 O229 1.258 . S
C237 O230 1.266 . S
Co238 O241 1.970 . S
Co238 N255 1.989 . S
Co238 O263 1.967 . S
Co238 O270 1.920 . S
Co239 O242 1.966 . S
Co239 N248 2.022 . S
Co239 N256 1.993 . S
Co239 O264 1.941 . S
C240 O241 1.258 . S
C240 O242 1.263 . S
O241 Co238 1.970 . S
O241 C240 1.258 . S
O242 Co239 1.966 . S
O242 C240 1.263 . S
C243 O244 1.235 . S
C243 O270 1.289 . S
O244 C243 1.235 . S
C245 C247 1.400 . S
C245 N248 1.351 . S
C245 C250 1.501 . S
C246 C247 1.387 . S
C246 N249 1.341 . S
C247 C245 1.400 . S
C247 C246 1.387 . S
N248 Co239 2.022 . S
N248 C245 1.351 . S
N248 N249 1.365 . S
N249 C246 1.341 . S
N249 N248 1.365 . S
N249 H269 0.862 . S
C250 C245 1.501 . S
C250 H251 0.961 . S
C250 H252 0.961 . S
C250 H253 0.960 . S
H251 C250 0.961 . S
H252 C250 0.961 . S
H253 C250 0.960 . S
C254 N255 1.342 . S
C254 C258 1.401 . S
C254 C259 1.499 . S
N255 Co238 1.989 . S
N255 C254 1.342 . S
N255 N256 1.388 . S
N256 Co239 1.993 . S
N256 N255 1.388 . S
N256 C257 1.346 . S
C257 N256 1.346 . S
C257 C258 1.396 . S
C257 C267 1.510 . S
C258 C254 1.401 . S
C258 C257 1.396 . S
C259 C254 1.499 . S
C259 H260 0.959 . S
C259 H261 0.960 . S
C259 H262 0.961 . S
H260 C259 0.959 . S
H261 C259 0.960 . S
H262 C259 0.961 . S
O263 Co238 1.967 . S
O263 C271 1.258 . S
O264 Co239 1.941 . S
O264 C271 1.266 . S
H265 C267 0.959 . S
H266 C267 0.961 . S
C267 C257 1.510 . S
C267 H265 0.959 . S
C267 H266 0.961 . S
C267 H268 0.960 . S
H268 C267 0.960 . S
H269 N249 0.862 . S
O270 Co238 1.920 . S
O270 C243 1.289 . S
C271 O263 1.258 . S
C271 O264 1.266 . S
Co272 O275 1.970 . S
Co272 N289 1.989 . S
Co272 O297 1.967 . S
Co272 O304 1.920 . S
Co273 O276 1.966 . S
Co273 N282 2.022 . S
Co273 N290 1.993 . S
Co273 O298 1.941 . S
C274 O275 1.258 . S
C274 O276 1.263 . S
O275 Co272 1.970 . S
O275 C274 1.258 . S
O276 Co273 1.966 . S
O276 C274 1.263 . S
C277 O278 1.235 . S
C277 O304 1.289 . S
O278 C277 1.235 . S
C279 C281 1.400 . S
C279 N282 1.351 . S
C279 C284 1.501 . S
C280 C281 1.387 . S
C280 N283 1.341 . S
C281 C279 1.400 . S
C281 C280 1.387 . S
N282 Co273 2.022 . S
N282 C279 1.351 . S
N282 N283 1.365 . S
N283 C280 1.341 . S
N283 N282 1.365 . S
N283 H303 0.862 . S
C284 C279 1.501 . S
C284 H285 0.961 . S
C284 H286 0.961 . S
C284 H287 0.960 . S
H285 C284 0.961 . S
H286 C284 0.961 . S
H287 C284 0.960 . S
C288 N289 1.342 . S
C288 C292 1.401 . S
C288 C293 1.499 . S
N289 Co272 1.989 . S
N289 C288 1.342 . S
N289 N290 1.388 . S
N290 Co273 1.993 . S
N290 N289 1.388 . S
N290 C291 1.346 . S
C291 N290 1.346 . S
C291 C292 1.396 . S
C291 C301 1.510 . S
C292 C288 1.401 . S
C292 C291 1.396 . S
C293 C288 1.499 . S
C293 H294 0.959 . S
C293 H295 0.960 . S
C293 H296 0.961 . S
H294 C293 0.959 . S
H295 C293 0.960 . S
H296 C293 0.961 . S
O297 Co272 1.967 . S
O297 C305 1.258 . S
O298 Co273 1.941 . S
O298 C305 1.266 . S
H299 C301 0.959 . S
H300 C301 0.961 . S
C301 C291 1.510 . S
C301 H299 0.959 . S
C301 H300 0.961 . S
C301 H302 0.960 . S
H302 C301 0.960 . S
H303 N283 0.862 . S
O304 Co272 1.920 . S
O304 C277 1.289 . S
C305 O297 1.258 . S
C305 O298 1.266 . S
Co306 O309 1.970 . S
Co306 N323 1.989 . S
Co306 O331 1.967 . S
Co306 O338 1.920 . S
Co307 O310 1.966 . S
Co307 N316 2.022 . S
Co307 N324 1.993 . S
Co307 O332 1.941 . S
C308 O309 1.258 . S
C308 O310 1.263 . S
O309 Co306 1.970 . S
O309 C308 1.258 . S
O310 Co307 1.966 . S
O310 C308 1.263 . S
C311 O312 1.235 . S
C311 O338 1.289 . S
O312 C311 1.235 . S
C313 C315 1.400 . S
C313 N316 1.351 . S
C313 C318 1.501 . S
C314 C315 1.387 . S
C314 N317 1.341 . S
C315 C313 1.400 . S
C315 C314 1.387 . S
N316 Co307 2.022 . S
N316 C313 1.351 . S
N316 N317 1.365 . S
N317 C314 1.341 . S
N317 N316 1.365 . S
N317 H337 0.862 . S
C318 C313 1.501 . S
C318 H319 0.961 . S
C318 H320 0.961 . S
C318 H321 0.960 . S
H319 C318 0.961 . S
H320 C318 0.961 . S
H321 C318 0.960 . S
C322 N323 1.342 . S
C322 C326 1.401 . S
C322 C327 1.499 . S
N323 Co306 1.989 . S
N323 C322 1.342 . S
N323 N324 1.388 . S
N324 Co307 1.993 . S
N324 N323 1.388 . S
N324 C325 1.346 . S
C325 N324 1.346 . S
C325 C326 1.396 . S
C325 C335 1.510 . S
C326 C322 1.401 . S
C326 C325 1.396 . S
C327 C322 1.499 . S
C327 H328 0.959 . S
C327 H329 0.960 . S
C327 H330 0.961 . S
H328 C327 0.959 . S
H329 C327 0.960 . S
H330 C327 0.961 . S
O331 Co306 1.967 . S
O331 C339 1.258 . S
O332 Co307 1.941 . S
O332 C339 1.266 . S
H333 C335 0.959 . S
H334 C335 0.961 . S
C335 C325 1.510 . S
C335 H333 0.959 . S
C335 H334 0.961 . S
C335 H336 0.960 . S
H336 C335 0.960 . S
H337 N317 0.862 . S
O338 Co306 1.920 . S
O338 C311 1.289 . S
C339 O331 1.258 . S
C339 O332 1.266 . S
Co340 O343 1.970 . S
Co340 N357 1.989 . S
Co340 O365 1.967 . S
Co340 O372 1.920 . S
Co341 O344 1.966 . S
Co341 N350 2.022 . S
Co341 N358 1.993 . S
Co341 O366 1.941 . S
C342 O343 1.258 . S
C342 O344 1.263 . S
O343 Co340 1.970 . S
O343 C342 1.258 . S
O344 Co341 1.966 . S
O344 C342 1.263 . S
C345 O346 1.235 . S
C345 O372 1.289 . S
O346 C345 1.235 . S
C347 C349 1.400 . S
C347 N350 1.351 . S
C347 C352 1.501 . S
C348 C349 1.387 . S
C348 N351 1.341 . S
C349 C347 1.400 . S
C349 C348 1.387 . S
N350 Co341 2.022 . S
N350 C347 1.351 . S
N350 N351 1.365 . S
N351 C348 1.341 . S
N351 N350 1.365 . S
N351 H371 0.862 . S
C352 C347 1.501 . S
C352 H353 0.961 . S
C352 H354 0.961 . S
C352 H355 0.960 . S
H353 C352 0.961 . S
H354 C352 0.961 . S
H355 C352 0.960 . S
C356 N357 1.342 . S
C356 C360 1.401 . S
C356 C361 1.499 . S
N357 Co340 1.989 . S
N357 C356 1.342 . S
N357 N358 1.388 . S
N358 Co341 1.993 . S
N358 N357 1.388 . S
N358 C359 1.346 . S
C359 N358 1.346 . S
C359 C360 1.396 . S
C359 C369 1.510 . S
C360 C356 1.401 . S
C360 C359 1.396 . S
C361 C356 1.499 . S
C361 H362 0.959 . S
C361 H363 0.960 . S
C361 H364 0.961 . S
H362 C361 0.959 . S
H363 C361 0.960 . S
H364 C361 0.961 . S
O365 Co340 1.967 . S
O365 C373 1.258 . S
O366 Co341 1.941 . S
O366 C373 1.266 . S
H367 C369 0.959 . S
H368 C369 0.961 . S
C369 C359 1.510 . S
C369 H367 0.959 . S
C369 H368 0.961 . S
C369 H370 0.960 . S
H370 C369 0.960 . S
H371 N351 0.862 . S
O372 Co340 1.920 . S
O372 C345 1.289 . S
C373 O365 1.258 . S
C373 O366 1.266 . S
Co374 O377 1.970 . S
Co374 N391 1.989 . S
Co374 O399 1.967 . S
Co374 O406 1.920 . S
Co375 O378 1.966 . S
Co375 N384 2.022 . S
Co375 N392 1.993 . S
Co375 O400 1.941 . S
C376 O377 1.258 . S
C376 O378 1.263 . S
O377 Co374 1.970 . S
O377 C376 1.258 . S
O378 Co375 1.966 . S
O378 C376 1.263 . S
C379 O380 1.235 . S
C379 O406 1.289 . S
O380 C379 1.235 . S
C381 C383 1.400 . S
C381 N384 1.351 . S
C381 C386 1.501 . S
C382 C383 1.387 . S
C382 N385 1.341 . S
C383 C381 1.400 . S
C383 C382 1.387 . S
N384 Co375 2.022 . S
N384 C381 1.351 . S
N384 N385 1.365 . S
N385 C382 1.341 . S
N385 N384 1.365 . S
N385 H405 0.862 . S
C386 C381 1.501 . S
C386 H387 0.961 . S
C386 H388 0.961 . S
C386 H389 0.960 . S
H387 C386 0.961 . S
H388 C386 0.961 . S
H389 C386 0.960 . S
C390 N391 1.342 . S
C390 C394 1.401 . S
C390 C395 1.499 . S
N391 Co374 1.989 . S
N391 C390 1.342 . S
N391 N392 1.388 . S
N392 Co375 1.993 . S
N392 N391 1.388 . S
N392 C393 1.346 . S
C393 N392 1.346 . S
C393 C394 1.396 . S
C393 C403 1.510 . S
C394 C390 1.401 . S
C394 C393 1.396 . S
C395 C390 1.499 . S
C395 H396 0.959 . S
C395 H397 0.960 . S
C395 H398 0.961 . S
H396 C395 0.959 . S
H397 C395 0.960 . S
H398 C395 0.961 . S
O399 Co374 1.967 . S
O399 C407 1.258 . S
O400 Co375 1.941 . S
O400 C407 1.266 . S
H401 C403 0.959 . S
H402 C403 0.961 . S
C403 C393 1.510 . S
C403 H401 0.959 . S
C403 H402 0.961 . S
C403 H404 0.960 . S
H404 C403 0.960 . S
H405 N385 0.862 . S
O406 Co374 1.920 . S
O406 C379 1.289 . S
C407 O399 1.258 . S
C407 O400 1.266 . S
Co408 O411 1.970 . S
Co408 N425 1.989 . S
Co408 O433 1.967 . S
Co408 O440 1.920 . S
Co409 O412 1.966 . S
Co409 N418 2.022 . S
Co409 N426 1.993 . S
Co409 O434 1.941 . S
C410 O411 1.258 . S
C410 O412 1.263 . S
O411 Co408 1.970 . S
O411 C410 1.258 . S
O412 Co409 1.966 . S
O412 C410 1.263 . S
C413 O414 1.235 . S
C413 O440 1.289 . S
O414 C413 1.235 . S
C415 C417 1.400 . S
C415 N418 1.351 . S
C415 C420 1.501 . S
C416 C417 1.387 . S
C416 N419 1.341 . S
C417 C415 1.400 . S
C417 C416 1.387 . S
N418 Co409 2.022 . S
N418 C415 1.351 . S
N418 N419 1.365 . S
N419 C416 1.341 . S
N419 N418 1.365 . S
N419 H439 0.862 . S
C420 C415 1.501 . S
C420 H421 0.961 . S
C420 H422 0.961 . S
C420 H423 0.960 . S
H421 C420 0.961 . S
H422 C420 0.961 . S
H423 C420 0.960 . S
C424 N425 1.342 . S
C424 C428 1.401 . S
C424 C429 1.499 . S
N425 Co408 1.989 . S
N425 C424 1.342 . S
N425 N426 1.388 . S
N426 Co409 1.993 . S
N426 N425 1.388 . S
N426 C427 1.346 . S
C427 N426 1.346 . S
C427 C428 1.396 . S
C427 C437 1.510 . S
C428 C424 1.401 . S
C428 C427 1.396 . S
C429 C424 1.499 . S
C429 H430 0.959 . S
C429 H431 0.960 . S
C429 H432 0.961 . S
H430 C429 0.959 . S
H431 C429 0.960 . S
H432 C429 0.961 . S
O433 Co408 1.967 . S
O433 C441 1.258 . S
O434 Co409 1.941 . S
O434 C441 1.266 . S
H435 C437 0.959 . S
H436 C437 0.961 . S
C437 C427 1.510 . S
C437 H435 0.959 . S
C437 H436 0.961 . S
C437 H438 0.960 . S
H438 C437 0.960 . S
H439 N419 0.862 . S
O440 Co408 1.920 . S
O440 C413 1.289 . S
C441 O433 1.258 . S
C441 O434 1.266 . S
Co442 O445 1.970 . S
Co442 N459 1.989 . S
Co442 O467 1.967 . S
Co442 O474 1.920 . S
Co443 O446 1.966 . S
Co443 N452 2.022 . S
Co443 N460 1.993 . S
Co443 O468 1.941 . S
C444 O445 1.258 . S
C444 O446 1.263 . S
O445 Co442 1.970 . S
O445 C444 1.258 . S
O446 Co443 1.966 . S
O446 C444 1.263 . S
C447 O448 1.235 . S
C447 O474 1.289 . S
O448 C447 1.235 . S
C449 C451 1.400 . S
C449 N452 1.351 . S
C449 C454 1.501 . S
C450 C451 1.387 . S
C450 N453 1.341 . S
C451 C449 1.400 . S
C451 C450 1.387 . S
N452 Co443 2.022 . S
N452 C449 1.351 . S
N452 N453 1.365 . S
N453 C450 1.341 . S
N453 N452 1.365 . S
N453 H473 0.862 . S
C454 C449 1.501 . S
C454 H455 0.961 . S
C454 H456 0.961 . S
C454 H457 0.960 . S
H455 C454 0.961 . S
H456 C454 0.961 . S
H457 C454 0.960 . S
C458 N459 1.342 . S
C458 C462 1.401 . S
C458 C463 1.499 . S
N459 Co442 1.989 . S
N459 C458 1.342 . S
N459 N460 1.388 . S
N460 Co443 1.993 . S
N460 N459 1.388 . S
N460 C461 1.346 . S
C461 N460 1.346 . S
C461 C462 1.396 . S
C461 C471 1.510 . S
C462 C458 1.401 . S
C462 C461 1.396 . S
C463 C458 1.499 . S
C463 H464 0.959 . S
C463 H465 0.960 . S
C463 H466 0.961 . S
H464 C463 0.959 . S
H465 C463 0.960 . S
H466 C463 0.961 . S
O467 Co442 1.967 . S
O467 C475 1.258 . S
O468 Co443 1.941 . S
O468 C475 1.266 . S
H469 C471 0.959 . S
H470 C471 0.961 . S
C471 C461 1.510 . S
C471 H469 0.959 . S
C471 H470 0.961 . S
C471 H472 0.960 . S
H472 C471 0.960 . S
H473 N453 0.862 . S
O474 Co442 1.920 . S
O474 C447 1.289 . S
C475 O467 1.258 . S
C475 O468 1.266 . S
Co476 O479 1.970 . S
Co476 N493 1.989 . S
Co476 O501 1.967 . S
Co476 O508 1.920 . S
Co477 O480 1.966 . S
Co477 N486 2.022 . S
Co477 N494 1.993 . S
Co477 O502 1.941 . S
C478 O479 1.258 . S
C478 O480 1.263 . S
O479 Co476 1.970 . S
O479 C478 1.258 . S
O480 Co477 1.966 . S
O480 C478 1.263 . S
C481 O482 1.235 . S
C481 O508 1.289 . S
O482 C481 1.235 . S
C483 C485 1.400 . S
C483 N486 1.351 . S
C483 C488 1.501 . S
C484 C485 1.387 . S
C484 N487 1.341 . S
C485 C483 1.400 . S
C485 C484 1.387 . S
N486 Co477 2.022 . S
N486 C483 1.351 . S
N486 N487 1.365 . S
N487 C484 1.341 . S
N487 N486 1.365 . S
N487 H507 0.862 . S
C488 C483 1.501 . S
C488 H489 0.961 . S
C488 H490 0.961 . S
C488 H491 0.960 . S
H489 C488 0.961 . S
H490 C488 0.961 . S
H491 C488 0.960 . S
C492 N493 1.342 . S
C492 C496 1.401 . S
C492 C497 1.499 . S
N493 Co476 1.989 . S
N493 C492 1.342 . S
N493 N494 1.388 . S
N494 Co477 1.993 . S
N494 N493 1.388 . S
N494 C495 1.346 . S
C495 N494 1.346 . S
C495 C496 1.396 . S
C495 C505 1.510 . S
C496 C492 1.401 . S
C496 C495 1.396 . S
C497 C492 1.499 . S
C497 H498 0.959 . S
C497 H499 0.960 . S
C497 H500 0.961 . S
H498 C497 0.959 . S
H499 C497 0.960 . S
H500 C497 0.961 . S
O501 Co476 1.967 . S
O501 C509 1.258 . S
O502 Co477 1.941 . S
O502 C509 1.266 . S
H503 C505 0.959 . S
H504 C505 0.961 . S
C505 C495 1.510 . S
C505 H503 0.959 . S
C505 H504 0.961 . S
C505 H506 0.960 . S
H506 C505 0.960 . S
H507 N487 0.862 . S
O508 Co476 1.920 . S
O508 C481 1.289 . S
C509 O501 1.258 . S
C509 O502 1.266 . S
Co510 O513 1.970 . S
Co510 N527 1.989 . S
Co510 O535 1.967 . S
Co510 O542 1.920 . S
Co511 O514 1.966 . S
Co511 N520 2.022 . S
Co511 N528 1.993 . S
Co511 O536 1.941 . S
C512 O513 1.258 . S
C512 O514 1.263 . S
O513 Co510 1.970 . S
O513 C512 1.258 . S
O514 Co511 1.966 . S
O514 C512 1.263 . S
C515 O516 1.235 . S
C515 O542 1.289 . S
O516 C515 1.235 . S
C517 C519 1.400 . S
C517 N520 1.351 . S
C517 C522 1.501 . S
C518 C519 1.387 . S
C518 N521 1.341 . S
C519 C517 1.400 . S
C519 C518 1.387 . S
N520 Co511 2.022 . S
N520 C517 1.351 . S
N520 N521 1.365 . S
N521 C518 1.341 . S
N521 N520 1.365 . S
N521 H541 0.862 . S
C522 C517 1.501 . S
C522 H523 0.961 . S
C522 H524 0.961 . S
C522 H525 0.960 . S
H523 C522 0.961 . S
H524 C522 0.961 . S
H525 C522 0.960 . S
C526 N527 1.342 . S
C526 C530 1.401 . S
C526 C531 1.499 . S
N527 Co510 1.989 . S
N527 C526 1.342 . S
N527 N528 1.388 . S
N528 Co511 1.993 . S
N528 N527 1.388 . S
N528 C529 1.346 . S
C529 N528 1.346 . S
C529 C530 1.396 . S
C529 C539 1.510 . S
C530 C526 1.401 . S
C530 C529 1.396 . S
C531 C526 1.499 . S
C531 H532 0.959 . S
C531 H533 0.960 . S
C531 H534 0.961 . S
H532 C531 0.959 . S
H533 C531 0.960 . S
H534 C531 0.961 . S
O535 Co510 1.967 . S
O535 C543 1.258 . S
O536 Co511 1.941 . S
O536 C543 1.266 . S
H537 C539 0.959 . S
H538 C539 0.961 . S
C539 C529 1.510 . S
C539 H537 0.959 . S
C539 H538 0.961 . S
C539 H540 0.960 . S
H540 C539 0.960 . S
H541 N521 0.862 . S
O542 Co510 1.920 . S
O542 C515 1.289 . S
C543 O535 1.258 . S
C543 O536 1.266 . S
H544 C552 0.950 . S
H545 C557 0.950 . S
H546 C554 0.950 . S
H547 C556 0.950 . S
H548 C558 0.950 . S
H549 C560 0.950 . S
H550 C562 0.950 . S
H551 C563 0.950 . S
C552 H544 0.950 . S
C552 C553 1.386 . S
C552 C554 1.391 . S
C553 C552 1.386 . S
C553 C557 1.393 . S
C554 H546 0.950 . S
C554 C552 1.391 . S
C554 C555 1.400 . S
C555 C554 1.400 . S
C555 C556 1.398 1_655 S
C555 C561 1.491 1_655 S
C556 H547 0.950 . S
C556 C555 1.398 1_455 S
C556 C557 1.391 1_455 S
C557 H545 0.950 . S
C557 C553 1.393 . S
C557 C556 1.391 1_655 S
C558 H548 0.950 . S
C558 C559 1.386 . S
C558 C560 1.391 . S
C559 C558 1.386 . S
C559 C563 1.393 . S
C560 H549 0.950 . S
C560 C558 1.391 . S
C560 C561 1.400 . S
C561 C555 1.491 1_455 S
C561 C560 1.400 . S
C561 C562 1.398 1_455 S
C562 H550 0.950 . S
C562 C561 1.398 1_655 S
C562 C563 1.391 1_655 S
C563 H551 0.950 . S
C563 C559 1.393 . S
C563 C562 1.391 1_455 S
H564 C572 0.950 . S
H565 C577 0.950 . S
H566 C574 0.950 . S
H567 C576 0.950 . S
H568 C578 0.950 . S
H569 C580 0.950 . S
H570 C582 0.950 . S
H571 C583 0.950 . S
C572 H564 0.950 . S
C572 C573 1.386 . S
C572 C574 1.391 . S
C573 C572 1.386 . S
C573 C577 1.393 . S
C574 H566 0.950 . S
C574 C572 1.391 . S
C574 C575 1.400 . S
C575 C574 1.400 . S
C575 C576 1.398 . S
C575 C581 1.491 . S
C576 H567 0.950 . S
C576 C575 1.398 . S
C576 C577 1.391 . S
C577 H565 0.950 . S
C577 C573 1.393 . S
C577 C576 1.391 . S
C578 H568 0.950 . S
C578 C579 1.386 . S
C578 C580 1.391 . S
C579 C578 1.386 . S
C579 C583 1.393 . S
C580 H569 0.950 . S
C580 C578 1.391 . S
C580 C581 1.400 . S
C581 C575 1.491 . S
C581 C580 1.400 . S
C581 C582 1.398 . S
C582 H570 0.950 . S
C582 C581 1.398 . S
C582 C583 1.391 . S
C583 H571 0.950 . S
C583 C579 1.393 . S
C583 C582 1.391 . S
H584 C592 0.950 . S
H585 C597 0.950 . S
H586 C594 0.939 1_455 S
H587 C596 0.950 . S
H588 C598 0.950 . S
H589 C600 0.939 1_655 S
H590 C602 0.950 . S
H591 C603 0.950 . S
C592 H584 0.950 . S
C592 C593 1.386 . S
C592 C594 1.398 . S
C593 C592 1.386 . S
C593 C597 1.393 . S
C594 H586 0.939 1_655 S
C594 C592 1.398 . S
C594 C595 1.404 . S
C595 C594 1.404 . S
C595 C596 1.398 . S
C595 C601 1.491 1_655 S
C596 H587 0.950 . S
C596 C595 1.398 . S
C596 C597 1.391 . S
C597 H585 0.950 . S
C597 C593 1.393 . S
C597 C596 1.391 . S
C598 H588 0.950 . S
C598 C599 1.386 . S
C598 C600 1.398 . S
C599 C598 1.386 . S
C599 C603 1.393 . S
C600 H589 0.939 1_455 S
C600 C598 1.398 . S
C600 C601 1.404 . S
C601 C595 1.491 1_455 S
C601 C600 1.404 . S
C601 C602 1.398 . S
C602 H590 0.950 . S
C602 C601 1.398 . S
C602 C603 1.391 . S
C603 H591 0.950 . S
C603 C599 1.393 . S
C603 C602 1.391 . S
H604 C612 0.950 . S
H605 C617 0.950 . S
H606 C614 0.950 . S
H607 C616 0.950 . S
H608 C618 0.950 . S
H609 C620 0.950 . S
H610 C622 0.950 . S
H611 C623 0.950 . S
C612 H604 0.950 . S
C612 C613 1.386 . S
C612 C614 1.391 . S
C613 C612 1.386 . S
C613 C617 1.393 . S
C614 H606 0.950 . S
C614 C612 1.391 . S
C614 C615 1.400 . S
C615 C614 1.400 . S
C615 C616 1.398 . S
C615 C621 1.491 . S
C616 H607 0.950 . S
C616 C615 1.398 . S
C616 C617 1.391 . S
C617 H605 0.950 . S
C617 C613 1.393 . S
C617 C616 1.391 . S
C618 H608 0.950 . S
C618 C619 1.386 . S
C618 C620 1.391 . S
C619 C618 1.386 . S
C619 C623 1.393 . S
C620 H609 0.950 . S
C620 C618 1.391 . S
C620 C621 1.400 . S
C621 C615 1.491 . S
C621 C620 1.400 . S
C621 C622 1.398 . S
C622 H610 0.950 . S
C622 C621 1.398 . S
C622 C623 1.391 . S
C623 H611 0.950 . S
C623 C619 1.393 . S
C623 C622 1.391 . S
H624 C632 0.950 . S
H625 C637 0.950 . S
H626 C634 0.950 . S
H627 C636 0.950 . S
H628 C638 0.950 . S
H629 C640 0.950 . S
H630 C642 0.950 . S
H631 C643 0.950 . S
C632 H624 0.950 . S
C632 C633 1.386 . S
C632 C634 1.391 . S
C633 C632 1.386 . S
C633 C637 1.393 . S
C634 H626 0.950 . S
C634 C632 1.391 . S
C634 C635 1.400 . S
C635 C634 1.400 . S
C635 C636 1.398 . S
C635 C641 1.491 . S
C636 H627 0.950 . S
C636 C635 1.398 . S
C636 C637 1.391 . S
C637 H625 0.950 . S
C637 C633 1.393 . S
C637 C636 1.391 . S
C638 H628 0.950 . S
C638 C639 1.386 . S
C638 C640 1.391 . S
C639 C638 1.386 . S
C639 C643 1.393 . S
C640 H629 0.950 . S
C640 C638 1.391 . S
C640 C641 1.400 . S
C641 C635 1.491 . S
C641 C640 1.400 . S
C641 C642 1.398 . S
C642 H630 0.950 . S
C642 C641 1.398 . S
C642 C643 1.391 . S
C643 H631 0.950 . S
C643 C639 1.393 . S
C643 C642 1.391 . S
H644 C652 0.950 . S
H645 C657 0.950 . S
H646 C654 0.950 . S
H647 C656 0.950 . S
H648 C658 0.950 . S
H649 C660 0.950 . S
H650 C662 0.950 . S
H651 C663 0.950 . S
C652 H644 0.950 . S
C652 C653 1.386 . S
C652 C654 1.391 1_655 S
C653 C652 1.386 . S
C653 C657 1.393 . S
C654 H646 0.950 . S
C654 C652 1.391 1_455 S
C654 C655 1.400 1_455 S
C655 C654 1.400 1_655 S
C655 C656 1.398 . S
C655 C661 1.491 1_655 S
C656 H647 0.950 . S
C656 C655 1.398 . S
C656 C657 1.391 . S
C657 H645 0.950 . S
C657 C653 1.393 . S
C657 C656 1.391 . S
C658 H648 0.950 . S
C658 C659 1.386 . S
C658 C660 1.391 1_455 S
C659 C658 1.386 . S
C659 C663 1.393 . S
C660 H649 0.950 . S
C660 C658 1.391 1_655 S
C660 C661 1.400 1_655 S
C661 C655 1.491 1_455 S
C661 C660 1.400 1_455 S
C661 C662 1.398 . S
C662 H650 0.950 . S
C662 C661 1.398 . S
C662 C663 1.391 . S
C663 H651 0.950 . S
C663 C659 1.393 . S
C663 C662 1.391 . S
H664 C672 0.950 . S
H665 C677 0.950 . S
H666 C674 0.950 . S
H667 C676 0.950 . S
H668 C678 0.950 . S
H669 C680 0.950 . S
H670 C682 0.950 . S
H671 C683 0.950 . S
C672 H664 0.950 . S
C672 C673 1.386 . S
C672 C674 1.391 . S
C673 C672 1.386 . S
C673 C677 1.393 . S
C674 H666 0.950 . S
C674 C672 1.391 . S
C674 C675 1.400 . S
C675 C674 1.400 . S
C675 C676 1.398 . S
C675 C681 1.491 . S
C676 H667 0.950 . S
C676 C675 1.398 . S
C676 C677 1.391 . S
C677 H665 0.950 . S
C677 C673 1.393 . S
C677 C676 1.391 . S
C678 H668 0.950 . S
C678 C679 1.386 . S
C678 C680 1.391 . S
C679 C678 1.386 . S
C679 C683 1.393 . S
C680 H669 0.950 . S
C680 C678 1.391 . S
C680 C681 1.400 . S
C681 C675 1.491 . S
C681 C680 1.400 . S
C681 C682 1.398 . S
C682 H670 0.950 . S
C682 C681 1.398 . S
C682 C683 1.391 . S
C683 H671 0.950 . S
C683 C679 1.393 . S
C683 C682 1.391 . S
H684 C692 0.950 . S
H685 C697 0.950 . S
H686 C694 0.950 . S
H687 C696 0.950 1_455 S
H688 C698 0.950 . S
H689 C700 0.950 . S
H690 C702 0.950 1_655 S
H691 C703 0.950 . S
C692 H684 0.950 . S
C692 C693 1.386 . S
C692 C694 1.391 . S
C693 C692 1.386 . S
C693 C697 1.393 . S
C694 H686 0.950 . S
C694 C692 1.391 . S
C694 C695 1.400 . S
C695 C694 1.400 . S
C695 C696 1.398 . S
C695 C701 1.491 1_655 S
C696 H687 0.950 1_655 S
C696 C695 1.398 . S
C696 C697 1.391 . S
C697 H685 0.950 . S
C697 C693 1.393 . S
C697 C696 1.391 . S
C698 H688 0.950 . S
C698 C699 1.386 . S
C698 C700 1.391 . S
C699 C698 1.386 . S
C699 C703 1.393 . S
C700 H689 0.950 . S
C700 C698 1.391 . S
C700 C701 1.400 . S
C701 C695 1.491 1_455 S
C701 C700 1.400 . S
C701 C702 1.398 . S
C702 H690 0.950 1_455 S
C702 C701 1.398 . S
C702 C703 1.391 . S
C703 H691 0.950 . S
C703 C699 1.393 . S
C703 C702 1.391 . S
H704 C712 0.950 . S
H705 C717 0.950 . S
H706 C714 0.950 . S
H707 C716 0.950 . S
H708 C718 0.950 . S
H709 C720 0.950 . S
H710 C722 0.950 . S
H711 C723 0.950 . S
C712 H704 0.950 . S
C712 C713 1.386 . S
C712 C714 1.391 . S
C713 C712 1.386 . S
C713 C717 1.393 . S
C714 H706 0.950 . S
C714 C712 1.391 . S
C714 C715 1.400 . S
C715 C714 1.400 . S
C715 C716 1.398 . S
C715 C721 1.491 . S
C716 H707 0.950 . S
C716 C715 1.398 . S
C716 C717 1.391 . S
C717 H705 0.950 . S
C717 C713 1.393 . S
C717 C716 1.391 . S
C718 H708 0.950 . S
C718 C719 1.386 . S
C718 C720 1.391 . S
C719 C718 1.386 . S
C719 C723 1.393 . S
C720 H709 0.950 . S
C720 C718 1.391 . S
C720 C721 1.400 . S
C721 C715 1.491 . S
C721 C720 1.400 . S
C721 C722 1.398 . S
C722 H710 0.950 . S
C722 C721 1.398 . S
C722 C723 1.391 . S
C723 H711 0.950 . S
C723 C719 1.393 . S
C723 C722 1.391 . S
H724 C732 0.950 . S
H725 C737 0.950 . S
H726 C734 0.950 . S
H727 C736 0.950 . S
H728 C738 0.950 . S
H729 C740 0.950 . S
H730 C742 0.950 . S
H731 C743 0.950 . S
C732 H724 0.950 . S
C732 C733 1.386 . S
C732 C734 1.391 . S
C733 C732 1.386 . S
C733 C737 1.393 . S
C734 H726 0.950 . S
C734 C732 1.391 . S
C734 C735 1.400 . S
C735 C734 1.400 . S
C735 C736 1.398 . S
C735 C741 1.491 . S
C736 H727 0.950 . S
C736 C735 1.398 . S
C736 C737 1.391 . S
C737 H725 0.950 . S
C737 C733 1.393 . S
C737 C736 1.391 . S
C738 H728 0.950 . S
C738 C739 1.386 . S
C738 C740 1.391 . S
C739 C738 1.386 . S
C739 C743 1.393 . S
C740 H729 0.950 . S
C740 C738 1.391 . S
C740 C741 1.400 . S
C741 C735 1.491 . S
C741 C740 1.400 . S
C741 C742 1.398 . S
C742 H730 0.950 . S
C742 C741 1.398 . S
C742 C743 1.391 . S
C743 H731 0.950 . S
C743 C739 1.393 . S
C743 C742 1.391 . S
H744 C752 0.950 . S
H745 C757 0.950 . S
H746 C754 0.950 . S
H747 C756 0.950 . S
H748 C758 0.950 . S
H749 C760 0.950 . S
H750 C762 0.950 . S
H751 C763 0.950 . S
C752 H744 0.950 . S
C752 C753 1.386 . S
C752 C754 1.391 . S
C753 C752 1.386 . S
C753 C757 1.393 . S
C754 H746 0.950 . S
C754 C752 1.391 . S
C754 C755 1.400 . S
C755 C754 1.400 . S
C755 C756 1.398 . S
C755 C761 1.491 . S
C756 H747 0.950 . S
C756 C755 1.398 . S
C756 C757 1.391 . S
C757 H745 0.950 . S
C757 C753 1.393 . S
C757 C756 1.391 . S
C758 H748 0.950 . S
C758 C759 1.386 . S
C758 C760 1.391 . S
C759 C758 1.386 . S
C759 C763 1.393 . S
C760 H749 0.950 . S
C760 C758 1.391 . S
C760 C761 1.400 . S
C761 C755 1.491 . S
C761 C760 1.400 . S
C761 C762 1.398 . S
C762 H750 0.950 . S
C762 C761 1.398 . S
C762 C763 1.391 . S
C763 H751 0.950 . S
C763 C759 1.393 . S
C763 C762 1.391 . S
H764 C772 0.950 . S
H765 C777 0.950 . S
H766 C774 0.950 . S
H767 C776 0.950 . S
H768 C778 0.950 . S
H769 C780 0.950 . S
H770 C782 0.950 . S
H771 C783 0.950 . S
C772 H764 0.950 . S
C772 C773 1.386 . S
C772 C774 1.391 . S
C773 C772 1.386 . S
C773 C777 1.393 . S
C774 H766 0.950 . S
C774 C772 1.391 . S
C774 C775 1.400 . S
C775 C774 1.400 . S
C775 C776 1.398 . S
C775 C781 1.491 . S
C776 H767 0.950 . S
C776 C775 1.398 . S
C776 C777 1.391 . S
C777 H765 0.950 . S
C777 C773 1.393 . S
C777 C776 1.391 . S
C778 H768 0.950 . S
C778 C779 1.386 . S
C778 C780 1.391 . S
C779 C778 1.386 . S
C779 C783 1.393 . S
C780 H769 0.950 . S
C780 C778 1.391 . S
C780 C781 1.400 . S
C781 C775 1.491 . S
C781 C780 1.400 . S
C781 C782 1.398 . S
C782 H770 0.950 . S
C782 C781 1.398 . S
C782 C783 1.391 . S
C783 H771 0.950 . S
C783 C779 1.393 . S
C783 C782 1.391 . S
H784 C792 0.950 . S
H785 C797 0.950 . S
H786 C794 0.950 . S
H787 C796 0.950 . S
H788 C798 0.950 . S
H789 C800 0.950 . S
H790 C802 0.950 . S
H791 C803 0.950 . S
C792 H784 0.950 . S
C792 C793 1.386 . S
C792 C794 1.391 . S
C793 C792 1.386 . S
C793 C797 1.393 . S
C794 H786 0.950 . S
C794 C792 1.391 . S
C794 C795 1.400 . S
C795 C794 1.400 . S
C795 C796 1.398 . S
C795 C801 1.491 . S
C796 H787 0.950 . S
C796 C795 1.398 . S
C796 C797 1.391 . S
C797 H785 0.950 . S
C797 C793 1.393 . S
C797 C796 1.391 . S
C798 H788 0.950 . S
C798 C799 1.386 . S
C798 C800 1.391 . S
C799 C798 1.386 . S
C799 C803 1.393 . S
C800 H789 0.950 . S
C800 C798 1.391 . S
C800 C801 1.400 . S
C801 C795 1.491 . S
C801 C800 1.400 . S
C801 C802 1.398 . S
C802 H790 0.950 . S
C802 C801 1.398 . S
C802 C803 1.391 . S
C803 H791 0.950 . S
C803 C799 1.393 . S
C803 C802 1.391 . S
H804 C812 0.950 . S
H805 C817 0.950 . S
H806 C814 0.950 . S
H807 C816 0.950 . S
H808 C818 0.950 . S
H809 C820 0.950 . S
H810 C822 0.950 . S
H811 C823 0.950 . S
C812 H804 0.950 . S
C812 C813 1.386 . S
C812 C814 1.391 . S
C813 C812 1.386 . S
C813 C817 1.393 . S
C814 H806 0.950 . S
C814 C812 1.391 . S
C814 C815 1.400 . S
C815 C814 1.400 . S
C815 C816 1.398 . S
C815 C821 1.491 . S
C816 H807 0.950 . S
C816 C815 1.398 . S
C816 C817 1.391 . S
C817 H805 0.950 . S
C817 C813 1.393 . S
C817 C816 1.391 . S
C818 H808 0.950 . S
C818 C819 1.386 . S
C818 C820 1.391 . S
C819 C818 1.386 . S
C819 C823 1.393 . S
C820 H809 0.950 . S
C820 C818 1.391 . S
C820 C821 1.400 . S
C821 C815 1.491 . S
C821 C820 1.400 . S
C821 C822 1.398 . S
C822 H810 0.950 . S
C822 C821 1.398 . S
C822 C823 1.391 . S
C823 H811 0.950 . S
C823 C819 1.393 . S
C823 C822 1.391 . S
H824 C832 0.950 . S
H825 C837 0.950 . S
H826 C834 0.950 . S
H827 C836 0.950 . S
H828 C838 0.950 . S
H829 C840 0.950 . S
H830 C842 0.950 . S
H831 C843 0.950 . S
C832 H824 0.950 . S
C832 C833 1.386 . S
C832 C834 1.391 . S
C833 C832 1.386 . S
C833 C837 1.393 . S
C834 H826 0.950 . S
C834 C832 1.391 . S
C834 C835 1.400 . S
C835 C834 1.400 . S
C835 C836 1.398 . S
C835 C841 1.491 . S
C836 H827 0.950 . S
C836 C835 1.398 . S
C836 C837 1.391 . S
C837 H825 0.950 . S
C837 C833 1.393 . S
C837 C836 1.391 . S
C838 H828 0.950 . S
C838 C839 1.386 . S
C838 C840 1.391 . S
C839 C838 1.386 . S
C839 C843 1.393 . S
C840 H829 0.950 . S
C840 C838 1.391 . S
C840 C841 1.400 . S
C841 C835 1.491 . S
C841 C840 1.400 . S
C841 C842 1.398 . S
C842 H830 0.950 . S
C842 C841 1.398 . S
C842 C843 1.391 . S
C843 H831 0.950 . S
C843 C839 1.393 . S
C843 C842 1.391 . S
H844 C852 0.950 . S
H845 C857 0.950 . S
H846 C854 0.950 . S
H847 C856 0.950 . S
H848 C858 0.950 . S
H849 C860 0.950 . S
H850 C862 0.950 . S
H851 C863 0.950 . S
C852 H844 0.950 . S
C852 C853 1.386 . S
C852 C854 1.391 . S
C853 C852 1.386 . S
C853 C857 1.393 . S
C854 H846 0.950 . S
C854 C852 1.391 . S
C854 C855 1.400 . S
C855 C854 1.400 . S
C855 C856 1.398 . S
C855 C861 1.491 . S
C856 H847 0.950 . S
C856 C855 1.398 . S
C856 C857 1.391 . S
C857 H845 0.950 . S
C857 C853 1.393 . S
C857 C856 1.391 . S
C858 H848 0.950 . S
C858 C859 1.386 . S
C858 C860 1.391 . S
C859 C858 1.386 . S
C859 C863 1.393 . S
C860 H849 0.950 . S
C860 C858 1.391 . S
C860 C861 1.400 . S
C861 C855 1.491 . S
C861 C860 1.400 . S
C861 C862 1.398 . S
C862 H850 0.950 . S
C862 C861 1.398 . S
C862 C863 1.391 . S
C863 H851 0.950 . S
C863 C859 1.393 . S
C863 C862 1.391 . S
H864 C872 0.950 . S
H865 C877 0.950 . S
H866 C874 0.950 . S
H867 C876 0.950 . S
H868 C878 0.950 . S
H869 C880 0.950 . S
H870 C882 0.950 . S
H871 C883 0.950 . S
C872 H864 0.950 . S
C872 C873 1.386 . S
C872 C874 1.391 . S
C873 C872 1.386 . S
C873 C877 1.393 1_545 S
C874 H866 0.950 . S
C874 C872 1.391 . S
C874 C875 1.400 . S
C875 C874 1.400 . S
C875 C876 1.398 1_545 S
C875 C881 1.491 1_445 S
C876 H867 0.950 . S
C876 C875 1.398 1_565 S
C876 C877 1.391 . S
C877 H865 0.950 . S
C877 C873 1.393 1_565 S
C877 C876 1.391 . S
C878 H868 0.950 . S
C878 C879 1.386 . S
C878 C880 1.391 . S
C879 C878 1.386 . S
C879 C883 1.393 1_565 S
C880 H869 0.950 . S
C880 C878 1.391 . S
C880 C881 1.400 . S
C881 C875 1.491 1_665 S
C881 C880 1.400 . S
C881 C882 1.398 1_565 S
C882 H870 0.950 . S
C882 C881 1.398 1_545 S
C882 C883 1.391 . S
C883 H871 0.950 . S
C883 C879 1.393 1_545 S
C883 C882 1.391 . S
H884 C892 0.950 . S
H885 C897 0.950 . S
H886 C894 0.950 . S
H887 C896 0.950 . S
H888 C898 0.950 . S
H889 C900 0.950 . S
H890 C902 0.950 . S
H891 C903 0.950 . S
C892 H884 0.950 . S
C892 C893 1.386 . S
C892 C894 1.391 . S
C893 C892 1.386 . S
C893 C897 1.393 1_565 S
C894 H886 0.950 . S
C894 C892 1.391 . S
C894 C895 1.400 . S
C895 C894 1.400 . S
C895 C896 1.398 1_565 S
C895 C901 1.491 1_565 S
C896 H887 0.950 . S
C896 C895 1.398 1_545 S
C896 C897 1.391 . S
C897 H885 0.950 . S
C897 C893 1.393 1_545 S
C897 C896 1.391 . S
C898 H888 0.950 . S
C898 C899 1.386 . S
C898 C900 1.391 . S
C899 C898 1.386 . S
C899 C903 1.393 1_545 S
C900 H889 0.950 . S
C900 C898 1.391 . S
C900 C901 1.400 . S
C901 C895 1.491 1_545 S
C901 C900 1.400 . S
C901 C902 1.398 1_545 S
C902 H890 0.950 . S
C902 C901 1.398 1_565 S
C902 C903 1.391 . S
C903 H891 0.950 . S
C903 C899 1.393 1_565 S
C903 C902 1.391 . S
H904 C912 0.950 . S
H905 C917 0.933 1_565 S
H906 C914 0.950 . S
H907 C916 0.950 . S
H908 C918 0.950 . S
H909 C920 0.950 . S
H910 C922 0.950 . S
H911 C923 0.933 1_545 S
C912 H904 0.950 . S
C912 C913 1.386 . S
C912 C914 1.391 . S
C913 C912 1.386 . S
C913 C917 1.421 . S
C914 H906 0.950 . S
C914 C912 1.391 . S
C914 C915 1.400 . S
C915 C914 1.400 . S
C915 C916 1.398 1_545 S
C915 C921 1.491 1_546 S
C916 H907 0.950 . S
C916 C915 1.398 1_565 S
C916 C917 1.380 1_565 S
C917 H905 0.933 1_545 S
C917 C913 1.421 . S
C917 C916 1.380 1_545 S
C918 H908 0.950 . S
C918 C919 1.386 . S
C918 C920 1.391 . S
C919 C918 1.386 . S
C919 C923 1.421 . S
C920 H909 0.950 . S
C920 C918 1.391 . S
C920 C921 1.400 . S
C921 C915 1.491 1_564 S
C921 C920 1.400 . S
C921 C922 1.398 1_565 S
C922 H910 0.950 . S
C922 C921 1.398 1_545 S
C922 C923 1.380 1_545 S
C923 H911 0.933 1_565 S
C923 C919 1.421 . S
C923 C922 1.380 1_565 S
H924 C932 0.950 . S
H925 C937 0.950 . S
H926 C934 0.950 . S
H927 C936 0.950 . S
H928 C938 0.950 . S
H929 C940 0.950 . S
H930 C942 0.950 . S
H931 C943 0.950 . S
C932 H924 0.950 . S
C932 C933 1.386 . S
C932 C934 1.391 1_655 S
C933 C932 1.386 . S
C933 C937 1.393 . S
C934 H926 0.950 . S
C934 C932 1.391 1_455 S
C934 C935 1.400 1_455 S
C935 C934 1.400 1_655 S
C935 C936 1.398 1_545 S
C935 C941 1.491 1_644 S
C936 H927 0.950 . S
C936 C935 1.398 1_565 S
C936 C937 1.391 1_565 S
C937 H925 0.950 . S
C937 C933 1.393 . S
C937 C936 1.391 1_545 S
C938 H928 0.950 . S
C938 C939 1.386 . S
C938 C940 1.391 1_455 S
C939 C938 1.386 . S
C939 C943 1.393 . S
C940 H929 0.950 . S
C940 C938 1.391 1_655 S
C940 C941 1.400 1_655 S
C941 C935 1.491 1_466 S
C941 C940 1.400 1_455 S
C941 C942 1.398 1_565 S
C942 H930 0.950 . S
C942 C941 1.398 1_545 S
C942 C943 1.391 1_545 S
C943 H931 0.950 . S
C943 C939 1.393 . S
C943 C942 1.391 1_565 S
H944 C952 0.950 . S
H945 C957 0.950 . S
H946 C954 0.950 . S
H947 C956 0.950 . S
H948 C958 0.950 . S
H949 C960 0.950 . S
H950 C962 0.950 . S
H951 C963 0.950 . S
C952 H944 0.950 . S
C952 C953 1.386 . S
C952 C954 1.391 . S
C953 C952 1.386 . S
C953 C957 1.393 . S
C954 H946 0.950 . S
C954 C952 1.391 . S
C954 C955 1.400 . S
C955 C954 1.400 . S
C955 C956 1.398 . S
C955 C961 1.491 . S
C956 H947 0.950 . S
C956 C955 1.398 . S
C956 C957 1.391 . S
C957 H945 0.950 . S
C957 C953 1.393 . S
C957 C956 1.391 . S
C958 H948 0.950 . S
C958 C959 1.386 . S
C958 C960 1.391 . S
C959 C958 1.386 . S
C959 C963 1.393 . S
C960 H949 0.950 . S
C960 C958 1.391 . S
C960 C961 1.400 . S
C961 C955 1.491 . S
C961 C960 1.400 . S
C961 C962 1.398 . S
C962 H950 0.950 . S
C962 C961 1.398 . S
C962 C963 1.391 . S
C963 H951 0.950 . S
C963 C959 1.393 . S
C963 C962 1.391 . S
H964 C972 0.950 . S
H965 C977 0.950 . S
H966 C974 0.950 . S
H967 C976 0.950 . S
H968 C978 0.950 . S
H969 C980 0.950 . S
H970 C982 0.950 . S
H971 C983 0.950 . S
C972 H964 0.950 . S
C972 C973 1.386 . S
C972 C974 1.391 . S
C973 C972 1.386 . S
C973 C977 1.393 . S
C974 H966 0.950 . S
C974 C972 1.391 . S
C974 C975 1.400 . S
C975 C974 1.400 . S
C975 C976 1.398 . S
C975 C981 1.491 1_455 S
C976 H967 0.950 . S
C976 C975 1.398 . S
C976 C977 1.391 . S
C977 H965 0.950 . S
C977 C973 1.393 . S
C977 C976 1.391 . S
C978 H968 0.950 . S
C978 C979 1.386 . S
C978 C980 1.391 . S
C979 C978 1.386 . S
C979 C983 1.393 . S
C980 H969 0.950 . S
C980 C978 1.391 . S
C980 C981 1.400 . S
C981 C975 1.491 1_655 S
C981 C980 1.400 . S
C981 C982 1.398 . S
C982 H970 0.950 . S
C982 C981 1.398 . S
C982 C983 1.391 . S
C983 H971 0.950 . S
C983 C979 1.393 . S
C983 C982 1.391 . S
H984 C992 0.950 . S
H985 C997 0.950 . S
H986 C994 0.950 . S
H987 C996 0.950 1_556 S
H988 C998 0.950 . S
H989 C1000 0.950 . S
H990 C1002 0.950 1_554 S
H991 C1003 0.950 . S
C992 H984 0.950 . S
C992 C993 1.386 . S
C992 C994 1.391 1_455 S
C993 C992 1.386 . S
C993 C997 1.393 . S
C994 H986 0.950 . S
C994 C992 1.391 1_655 S
C994 C995 1.400 1_655 S
C995 C994 1.400 1_455 S
C995 C996 1.398 . S
C995 C1001 1.491 1_454 S
C996 H987 0.950 1_554 S
C996 C995 1.398 . S
C996 C997 1.391 . S
C997 H985 0.950 . S
C997 C993 1.393 . S
C997 C996 1.391 . S
C998 H988 0.950 . S
C998 C999 1.386 . S
C998 C1000 1.391 1_655 S
C999 C998 1.386 . S
C999 C1003 1.393 . S
C1000 H989 0.950 . S
C1000 C998 1.391 1_455 S
C1000 C1001 1.400 1_455 S
C1001 C995 1.491 1_656 S
C1001 C1000 1.400 1_655 S
C1001 C1002 1.398 . S
C1002 H990 0.950 1_556 S
C1002 C1001 1.398 . S
C1002 C1003 1.391 . S
C1003 H991 0.950 . S
C1003 C999 1.393 . S
C1003 C1002 1.391 . S
H1004 C1012 0.950 . S
H1005 C1017 0.950 . S
H1006 C1014 0.950 . S
H1007 C1016 0.950 . S
H1008 C1018 0.950 . S
H1009 C1020 0.950 . S
H1010 C1022 0.950 . S
H1011 C1023 0.950 . S
C1012 H1004 0.950 . S
C1012 C1013 1.386 . S
C1012 C1014 1.391 . S
C1013 C1012 1.386 . S
C1013 C1017 1.393 . S
C1014 H1006 0.950 . S
C1014 C1012 1.391 . S
C1014 C1015 1.400 . S
C1015 C1014 1.400 . S
C1015 C1016 1.398 . S
C1015 C1021 1.491 1_556 S
C1016 H1007 0.950 . S
C1016 C1015 1.398 . S
C1016 C1017 1.391 . S
C1017 H1005 0.950 . S
C1017 C1013 1.393 . S
C1017 C1016 1.391 . S
C1018 H1008 0.950 . S
C1018 C1019 1.386 . S
C1018 C1020 1.391 . S
C1019 C1018 1.386 . S
C1019 C1023 1.393 . S
C1020 H1009 0.950 . S
C1020 C1018 1.391 . S
C1020 C1021 1.400 . S
C1021 C1015 1.491 1_554 S
C1021 C1020 1.400 . S
C1021 C1022 1.398 . S
C1022 H1010 0.950 . S
C1022 C1021 1.398 . S
C1022 C1023 1.391 . S
C1023 H1011 0.950 . S
C1023 C1019 1.393 . S
C1023 C1022 1.391 . S
H1024 C1032 0.950 . S
H1025 C1037 0.950 . S
H1026 C1034 0.949 1_565 S
H1027 C1036 0.950 . S
H1028 C1038 0.950 . S
H1029 C1040 0.949 1_545 S
H1030 C1042 0.950 . S
H1031 C1043 0.950 . S
C1032 H1024 0.950 . S
C1032 C1033 1.386 . S
C1032 C1034 1.392 . S
C1033 C1032 1.386 . S
C1033 C1037 1.393 . S
C1034 H1026 0.949 1_545 S
C1034 C1032 1.392 . S
C1034 C1035 1.400 . S
C1035 C1034 1.400 . S
C1035 C1036 1.398 . S
C1035 C1041 1.491 1_545 S
C1036 H1027 0.950 . S
C1036 C1035 1.398 . S
C1036 C1037 1.391 . S
C1037 H1025 0.950 . S
C1037 C1033 1.393 . S
C1037 C1036 1.391 . S
C1038 H1028 0.950 . S
C1038 C1039 1.386 . S
C1038 C1040 1.392 . S
C1039 C1038 1.386 . S
C1039 C1043 1.393 . S
C1040 H1029 0.949 1_565 S
C1040 C1038 1.392 . S
C1040 C1041 1.400 . S
C1041 C1035 1.491 1_565 S
C1041 C1040 1.400 . S
C1041 C1042 1.398 . S
C1042 H1030 0.950 . S
C1042 C1041 1.398 . S
C1042 C1043 1.391 . S
C1043 H1031 0.950 . S
C1043 C1039 1.393 . S
C1043 C1042 1.391 . S
H1044 C1052 0.950 . S
H1045 C1057 0.950 . S
H1046 C1054 0.954 . S
H1047 C1056 0.950 . S
H1048 C1058 0.950 . S
H1049 C1060 0.954 . S
H1050 C1062 0.950 . S
H1051 C1063 0.950 . S
C1052 H1044 0.950 . S
C1052 C1053 1.386 . S
C1052 C1054 1.391 . S
C1053 C1052 1.386 . S
C1053 C1057 1.393 . S
C1054 H1046 0.954 . S
C1054 C1052 1.391 . S
C1054 C1055 1.400 . S
C1055 C1054 1.400 . S
C1055 C1056 1.398 . S
C1055 C1061 1.491 1_545 S
C1056 H1047 0.950 . S
C1056 C1055 1.398 . S
C1056 C1057 1.391 . S
C1057 H1045 0.950 . S
C1057 C1053 1.393 . S
C1057 C1056 1.391 . S
C1058 H1048 0.950 . S
C1058 C1059 1.386 . S
C1058 C1060 1.391 . S
C1059 C1058 1.386 . S
C1059 C1063 1.393 . S
C1060 H1049 0.954 . S
C1060 C1058 1.391 . S
C1060 C1061 1.400 . S
C1061 C1055 1.491 1_565 S
C1061 C1060 1.400 . S
C1061 C1062 1.398 . S
C1062 H1050 0.950 . S
C1062 C1061 1.398 . S
C1062 C1063 1.391 . S
C1063 H1051 0.950 . S
C1063 C1059 1.393 . S
C1063 C1062 1.391 . S
H1064 C1072 0.950 . S
H1065 C1077 0.950 . S
H1066 C1074 0.950 1_565 S
H1067 C1076 0.950 . S
H1068 C1078 0.950 . S
H1069 C1080 0.950 1_545 S
H1070 C1082 0.950 . S
H1071 C1083 0.950 . S
C1072 H1064 0.950 . S
C1072 C1073 1.386 . S
C1072 C1074 1.391 . S
C1073 C1072 1.386 . S
C1073 C1077 1.393 . S
C1074 H1066 0.950 1_545 S
C1074 C1072 1.391 . S
C1074 C1075 1.400 . S
C1075 C1074 1.400 . S
C1075 C1076 1.398 . S
C1075 C1081 1.491 1_545 S
C1076 H1067 0.950 . S
C1076 C1075 1.398 . S
C1076 C1077 1.391 . S
C1077 H1065 0.950 . S
C1077 C1073 1.393 . S
C1077 C1076 1.391 . S
C1078 H1068 0.950 . S
C1078 C1079 1.386 . S
C1078 C1080 1.391 . S
C1079 C1078 1.386 . S
C1079 C1083 1.393 . S
C1080 H1069 0.950 1_565 S
C1080 C1078 1.391 . S
C1080 C1081 1.400 . S
C1081 C1075 1.491 1_565 S
C1081 C1080 1.400 . S
C1081 C1082 1.398 . S
C1082 H1070 0.950 . S
C1082 C1081 1.398 . S
C1082 C1083 1.391 . S
C1083 H1071 0.950 . S
C1083 C1079 1.393 . S
C1083 C1082 1.391 . S
H1084 C1092 0.950 . S
H1085 C1097 0.950 . S
H1086 C1094 0.950 1_565 S
H1087 C1096 0.950 . S
H1088 C1098 0.950 . S
H1089 C1100 0.950 1_545 S
H1090 C1102 0.950 . S
H1091 C1103 0.950 . S
C1092 H1084 0.950 . S
C1092 C1093 1.386 . S
C1092 C1094 1.391 . S
C1093 C1092 1.386 . S
C1093 C1097 1.393 . S
C1094 H1086 0.950 1_545 S
C1094 C1092 1.391 . S
C1094 C1095 1.400 . S
C1095 C1094 1.400 . S
C1095 C1096 1.398 . S
C1095 C1101 1.491 1_545 S
C1096 H1087 0.950 . S
C1096 C1095 1.398 . S
C1096 C1097 1.391 . S
C1097 H1085 0.950 . S
C1097 C1093 1.393 . S
C1097 C1096 1.391 . S
C1098 H1088 0.950 . S
C1098 C1099 1.386 . S
C1098 C1100 1.391 . S
C1099 C1098 1.386 . S
C1099 C1103 1.393 . S
C1100 H1089 0.950 1_565 S
C1100 C1098 1.391 . S
C1100 C1101 1.400 . S
C1101 C1095 1.491 1_565 S
C1101 C1100 1.400 . S
C1101 C1102 1.398 . S
C1102 H1090 0.950 . S
C1102 C1101 1.398 . S
C1102 C1103 1.391 . S
C1103 H1091 0.950 . S
C1103 C1099 1.393 . S
C1103 C1102 1.391 . S
H1104 C1112 0.950 . S
H1105 C1117 0.950 . S
H1106 C1114 0.950 . S
H1107 C1116 0.950 . S
H1108 C1118 0.950 . S
H1109 C1120 0.950 . S
H1110 C1122 0.950 . S
H1111 C1123 0.950 . S
C1112 H1104 0.950 . S
C1112 C1113 1.386 . S
C1112 C1114 1.391 . S
C1113 C1112 1.386 . S
C1113 C1117 1.393 . S
C1114 H1106 0.950 . S
C1114 C1112 1.391 . S
C1114 C1115 1.400 . S
C1115 C1114 1.400 . S
C1115 C1116 1.398 . S
C1115 C1121 1.491 . S
C1116 H1107 0.950 . S
C1116 C1115 1.398 . S
C1116 C1117 1.391 . S
C1117 H1105 0.950 . S
C1117 C1113 1.393 . S
C1117 C1116 1.391 . S
C1118 H1108 0.950 . S
C1118 C1119 1.386 . S
C1118 C1120 1.391 . S
C1119 C1118 1.386 . S
C1119 C1123 1.393 . S
C1120 H1109 0.950 . S
C1120 C1118 1.391 . S
C1120 C1121 1.400 . S
C1121 C1115 1.491 . S
C1121 C1120 1.400 . S
C1121 C1122 1.398 . S
C1122 H1110 0.950 . S
C1122 C1121 1.398 . S
C1122 C1123 1.391 . S
C1123 H1111 0.950 . S
C1123 C1119 1.393 . S
C1123 C1122 1.391 . S
H1124 C1132 0.950 . S
H1125 C1137 0.950 . S
H1126 C1134 0.950 . S
H1127 C1136 0.950 . S
H1128 C1138 0.950 . S
H1129 C1140 0.950 . S
H1130 C1142 0.950 . S
H1131 C1143 0.950 . S
C1132 H1124 0.950 . S
C1132 C1133 1.386 . S
C1132 C1134 1.391 . S
C1133 C1132 1.386 . S
C1133 C1137 1.393 . S
C1134 H1126 0.950 . S
C1134 C1132 1.391 . S
C1134 C1135 1.400 . S
C1135 C1134 1.400 . S
C1135 C1136 1.398 . S
C1135 C1141 1.491 . S
C1136 H1127 0.950 . S
C1136 C1135 1.398 . S
C1136 C1137 1.391 . S
C1137 H1125 0.950 . S
C1137 C1133 1.393 . S
C1137 C1136 1.391 . S
C1138 H1128 0.950 . S
C1138 C1139 1.386 . S
C1138 C1140 1.391 . S
C1139 C1138 1.386 . S
C1139 C1143 1.393 . S
C1140 H1129 0.950 . S
C1140 C1138 1.391 . S
C1140 C1141 1.400 . S
C1141 C1135 1.491 . S
C1141 C1140 1.400 . S
C1141 C1142 1.398 . S
C1142 H1130 0.950 . S
C1142 C1141 1.398 . S
C1142 C1143 1.391 . S
C1143 H1131 0.950 . S
C1143 C1139 1.393 . S
C1143 C1142 1.391 . S
H1144 C1152 0.950 . S
H1145 C1157 0.950 . S
H1146 C1154 0.950 . S
H1147 C1156 0.950 . S
H1148 C1158 0.950 . S
H1149 C1160 0.950 . S
H1150 C1162 0.950 . S
H1151 C1163 0.950 . S
C1152 H1144 0.950 . S
C1152 C1153 1.386 . S
C1152 C1154 1.391 . S
C1153 C1152 1.386 . S
C1153 C1157 1.393 . S
C1154 H1146 0.950 . S
C1154 C1152 1.391 . S
C1154 C1155 1.400 . S
C1155 C1154 1.400 . S
C1155 C1156 1.398 . S
C1155 C1161 1.491 . S
C1156 H1147 0.950 . S
C1156 C1155 1.398 . S
C1156 C1157 1.391 . S
C1157 H1145 0.950 . S
C1157 C1153 1.393 . S
C1157 C1156 1.391 . S
C1158 H1148 0.950 . S
C1158 C1159 1.386 . S
C1158 C1160 1.391 . S
C1159 C1158 1.386 . S
C1159 C1163 1.393 . S
C1160 H1149 0.950 . S
C1160 C1158 1.391 . S
C1160 C1161 1.400 . S
C1161 C1155 1.491 . S
C1161 C1160 1.400 . S
C1161 C1162 1.398 . S
C1162 H1150 0.950 . S
C1162 C1161 1.398 . S
C1162 C1163 1.391 . S
C1163 H1151 0.950 . S
C1163 C1159 1.393 . S
C1163 C1162 1.391 . S
H1164 C1172 0.950 . S
H1165 C1177 0.950 . S
H1166 C1174 0.950 . S
H1167 C1176 0.950 . S
H1168 C1178 0.950 . S
H1169 C1180 0.950 . S
H1170 C1182 0.950 . S
H1171 C1183 0.950 . S
C1172 H1164 0.950 . S
C1172 C1173 1.386 . S
C1172 C1174 1.391 . S
C1173 C1172 1.386 . S
C1173 C1177 1.393 . S
C1174 H1166 0.950 . S
C1174 C1172 1.391 . S
C1174 C1175 1.400 . S
C1175 C1174 1.400 . S
C1175 C1176 1.398 . S
C1175 C1181 1.491 . S
C1176 H1167 0.950 . S
C1176 C1175 1.398 . S
C1176 C1177 1.391 . S
C1177 H1165 0.950 . S
C1177 C1173 1.393 . S
C1177 C1176 1.391 . S
C1178 H1168 0.950 . S
C1178 C1179 1.386 . S
C1178 C1180 1.391 . S
C1179 C1178 1.386 . S
C1179 C1183 1.393 . S
C1180 H1169 0.950 . S
C1180 C1178 1.391 . S
C1180 C1181 1.400 . S
C1181 C1175 1.491 . S
C1181 C1180 1.400 . S
C1181 C1182 1.398 . S
C1182 H1170 0.950 . S
C1182 C1181 1.398 . S
C1182 C1183 1.391 . S
C1183 H1171 0.950 . S
C1183 C1179 1.393 . S
C1183 C1182 1.391 . S
H1184 C1192 0.950 . S
H1185 C1197 0.950 . S
H1186 C1194 0.950 1_655 S
H1187 C1196 0.950 . S
H1188 C1198 0.950 . S
H1189 C1200 0.950 1_455 S
H1190 C1202 0.950 . S
H1191 C1203 0.950 . S
C1192 H1184 0.950 . S
C1192 C1193 1.386 . S
C1192 C1194 1.391 . S
C1193 C1192 1.386 . S
C1193 C1197 1.393 . S
C1194 H1186 0.950 1_455 S
C1194 C1192 1.391 . S
C1194 C1195 1.400 . S
C1195 C1194 1.400 . S
C1195 C1196 1.398 . S
C1195 C1201 1.491 1_455 S
C1196 H1187 0.950 . S
C1196 C1195 1.398 . S
C1196 C1197 1.391 . S
C1197 H1185 0.950 . S
C1197 C1193 1.393 . S
C1197 C1196 1.391 . S
C1198 H1188 0.950 . S
C1198 C1199 1.386 . S
C1198 C1200 1.391 . S
C1199 C1198 1.386 . S
C1199 C1203 1.393 . S
C1200 H1189 0.950 1_655 S
C1200 C1198 1.391 . S
C1200 C1201 1.400 . S
C1201 C1195 1.491 1_655 S
C1201 C1200 1.400 . S
C1201 C1202 1.398 . S
C1202 H1190 0.950 . S
C1202 C1201 1.398 . S
C1202 C1203 1.391 . S
C1203 H1191 0.950 . S
C1203 C1199 1.393 . S
C1203 C1202 1.391 . S
H1204 C1212 0.950 . S
H1205 C1217 0.950 . S
H1206 C1214 0.950 . S
H1207 C1216 0.950 . S
H1208 C1218 0.950 . S
H1209 C1220 0.950 . S
H1210 C1222 0.950 . S
H1211 C1223 0.950 . S
C1212 H1204 0.950 . S
C1212 C1213 1.386 . S
C1212 C1214 1.391 . S
C1213 C1212 1.386 . S
C1213 C1217 1.393 . S
C1214 H1206 0.950 . S
C1214 C1212 1.391 . S
C1214 C1215 1.400 . S
C1215 C1214 1.400 . S
C1215 C1216 1.398 . S
C1215 C1221 1.491 . S
C1216 H1207 0.950 . S
C1216 C1215 1.398 . S
C1216 C1217 1.391 . S
C1217 H1205 0.950 . S
C1217 C1213 1.393 . S
C1217 C1216 1.391 . S
C1218 H1208 0.950 . S
C1218 C1219 1.386 . S
C1218 C1220 1.391 . S
C1219 C1218 1.386 . S
C1219 C1223 1.393 . S
C1220 H1209 0.950 . S
C1220 C1218 1.391 . S
C1220 C1221 1.400 . S
C1221 C1215 1.491 . S
C1221 C1220 1.400 . S
C1221 C1222 1.398 . S
C1222 H1210 0.950 . S
C1222 C1221 1.398 . S
C1222 C1223 1.391 . S
C1223 H1211 0.950 . S
C1223 C1219 1.393 . S
C1223 C1222 1.391 . S
H1224 C1232 0.950 . S
H1225 C1237 0.950 . S
H1226 C1234 0.950 . S
H1227 C1236 0.950 . S
H1228 C1238 0.950 . S
H1229 C1240 0.950 . S
H1230 C1242 0.950 . S
H1231 C1243 0.950 . S
C1232 H1224 0.950 . S
C1232 C1233 1.386 . S
C1232 C1234 1.391 . S
C1233 C1232 1.386 . S
C1233 C1237 1.393 . S
C1234 H1226 0.950 . S
C1234 C1232 1.391 . S
C1234 C1235 1.400 . S
C1235 C1234 1.400 . S
C1235 C1236 1.398 . S
C1235 C1241 1.491 . S
C1236 H1227 0.950 . S
C1236 C1235 1.398 . S
C1236 C1237 1.391 . S
C1237 H1225 0.950 . S
C1237 C1233 1.393 . S
C1237 C1236 1.391 . S
C1238 H1228 0.950 . S
C1238 C1239 1.386 . S
C1238 C1240 1.391 . S
C1239 C1238 1.386 . S
C1239 C1243 1.393 . S
C1240 H1229 0.950 . S
C1240 C1238 1.391 . S
C1240 C1241 1.400 . S
C1241 C1235 1.491 . S
C1241 C1240 1.400 . S
C1241 C1242 1.398 . S
C1242 H1230 0.950 . S
C1242 C1241 1.398 . S
C1242 C1243 1.391 . S
C1243 H1231 0.950 . S
C1243 C1239 1.393 . S
C1243 C1242 1.391 . S
H1244 C1252 0.950 . S
H1245 C1257 0.950 . S
H1246 C1254 0.950 1_455 S
H1247 C1256 0.950 . S
H1248 C1258 0.950 . S
H1249 C1260 0.950 1_655 S
H1250 C1262 0.950 . S
H1251 C1263 0.950 . S
C1252 H1244 0.950 . S
C1252 C1253 1.386 . S
C1252 C1254 1.391 . S
C1253 C1252 1.386 . S
C1253 C1257 1.393 . S
C1254 H1246 0.950 1_655 S
C1254 C1252 1.391 . S
C1254 C1255 1.400 . S
C1255 C1254 1.400 . S
C1255 C1256 1.398 . S
C1255 C1261 1.491 1_655 S
C1256 H1247 0.950 . S
C1256 C1255 1.398 . S
C1256 C1257 1.391 . S
C1257 H1245 0.950 . S
C1257 C1253 1.393 . S
C1257 C1256 1.391 . S
C1258 H1248 0.950 . S
C1258 C1259 1.386 . S
C1258 C1260 1.391 . S
C1259 C1258 1.386 . S
C1259 C1263 1.393 . S
C1260 H1249 0.950 1_455 S
C1260 C1258 1.391 . S
C1260 C1261 1.400 . S
C1261 C1255 1.491 1_455 S
C1261 C1260 1.400 . S
C1261 C1262 1.398 . S
C1262 H1250 0.950 . S
C1262 C1261 1.398 . S
C1262 C1263 1.391 . S
C1263 H1251 0.950 . S
C1263 C1259 1.393 . S
C1263 C1262 1.391 . S
H1264 C1272 0.950 . S
H1265 C1277 0.950 . S
H1266 C1274 0.950 1_455 S
H1267 C1276 0.950 . S
H1268 C1278 0.950 . S
H1269 C1280 0.950 1_655 S
H1270 C1282 0.950 . S
H1271 C1283 0.950 . S
C1272 H1264 0.950 . S
C1272 C1273 1.386 . S
C1272 C1274 1.391 . S
C1273 C1272 1.386 . S
C1273 C1277 1.393 . S
C1274 H1266 0.950 1_655 S
C1274 C1272 1.391 . S
C1274 C1275 1.400 . S
C1275 C1274 1.400 . S
C1275 C1276 1.398 . S
C1275 C1281 1.491 1_655 S
C1276 H1267 0.950 . S
C1276 C1275 1.398 . S
C1276 C1277 1.391 . S
C1277 H1265 0.950 . S
C1277 C1273 1.393 . S
C1277 C1276 1.391 . S
C1278 H1268 0.950 . S
C1278 C1279 1.386 . S
C1278 C1280 1.391 . S
C1279 C1278 1.386 . S
C1279 C1283 1.393 . S
C1280 H1269 0.950 1_455 S
C1280 C1278 1.391 . S
C1280 C1281 1.400 . S
C1281 C1275 1.491 1_455 S
C1281 C1280 1.400 . S
C1281 C1282 1.398 . S
C1282 H1270 0.950 . S
C1282 C1281 1.398 . S
C1282 C1283 1.391 . S
C1283 H1271 0.950 . S
C1283 C1279 1.393 . S
C1283 C1282 1.391 . S
H1284 C1292 0.950 . S
H1285 C1297 0.950 . S
H1286 C1294 0.950 . S
H1287 C1296 0.950 . S
H1288 C1298 0.950 . S
H1289 C1300 0.950 . S
H1290 C1302 0.950 . S
H1291 C1303 0.950 . S
C1292 H1284 0.950 . S
C1292 C1293 1.386 . S
C1292 C1294 1.391 . S
C1293 C1292 1.386 . S
C1293 C1297 1.393 . S
C1294 H1286 0.950 . S
C1294 C1292 1.391 . S
C1294 C1295 1.400 . S
C1295 C1294 1.400 . S
C1295 C1296 1.398 . S
C1295 C1301 1.491 . S
C1296 H1287 0.950 . S
C1296 C1295 1.398 . S
C1296 C1297 1.391 . S
C1297 H1285 0.950 . S
C1297 C1293 1.393 . S
C1297 C1296 1.391 . S
C1298 H1288 0.950 . S
C1298 C1299 1.386 . S
C1298 C1300 1.391 . S
C1299 C1298 1.386 . S
C1299 C1303 1.393 . S
C1300 H1289 0.950 . S
C1300 C1298 1.391 . S
C1300 C1301 1.400 . S
C1301 C1295 1.491 . S
C1301 C1300 1.400 . S
C1301 C1302 1.398 . S
C1302 H1290 0.950 . S
C1302 C1301 1.398 . S
C1302 C1303 1.391 . S
C1303 H1291 0.950 . S
C1303 C1299 1.393 . S
C1303 C1302 1.391 . S
H1304 C1312 0.950 . S
H1305 C1317 0.950 . S
H1306 C1314 0.950 . S
H1307 C1316 0.950 . S
H1308 C1318 0.950 . S
H1309 C1320 0.950 . S
H1310 C1322 0.950 . S
H1311 C1323 0.950 . S
C1312 H1304 0.950 . S
C1312 C1313 1.386 . S
C1312 C1314 1.391 . S
C1313 C1312 1.386 . S
C1313 C1317 1.393 . S
C1314 H1306 0.950 . S
C1314 C1312 1.391 . S
C1314 C1315 1.400 . S
C1315 C1314 1.400 . S
C1315 C1316 1.398 . S
C1315 C1321 1.491 . S
C1316 H1307 0.950 . S
C1316 C1315 1.398 . S
C1316 C1317 1.391 . S
C1317 H1305 0.950 . S
C1317 C1313 1.393 . S
C1317 C1316 1.391 . S
C1318 H1308 0.950 . S
C1318 C1319 1.386 . S
C1318 C1320 1.391 . S
C1319 C1318 1.386 . S
C1319 C1323 1.393 . S
C1320 H1309 0.950 . S
C1320 C1318 1.391 . S
C1320 C1321 1.400 . S
C1321 C1315 1.491 . S
C1321 C1320 1.400 . S
C1321 C1322 1.398 . S
C1322 H1310 0.950 . S
C1322 C1321 1.398 . S
C1322 C1323 1.391 . S
C1323 H1311 0.950 . S
C1323 C1319 1.393 . S
C1323 C1322 1.391 . S
H1324 C1332 0.950 . S
H1325 C1337 0.950 . S
H1326 C1334 0.950 1_455 S
H1327 C1336 0.950 . S
H1328 C1338 0.950 . S
H1329 C1340 0.950 1_655 S
H1330 C1342 0.950 . S
H1331 C1343 0.950 . S
C1332 H1324 0.950 . S
C1332 C1333 1.386 . S
C1332 C1334 1.391 . S
C1333 C1332 1.386 . S
C1333 C1337 1.393 . S
C1334 H1326 0.950 1_655 S
C1334 C1332 1.391 . S
C1334 C1335 1.400 . S
C1335 C1334 1.400 . S
C1335 C1336 1.398 . S
C1335 C1341 1.491 1_655 S
C1336 H1327 0.950 . S
C1336 C1335 1.398 . S
C1336 C1337 1.391 . S
C1337 H1325 0.950 . S
C1337 C1333 1.393 . S
C1337 C1336 1.391 . S
C1338 H1328 0.950 . S
C1338 C1339 1.386 . S
C1338 C1340 1.391 . S
C1339 C1338 1.386 . S
C1339 C1343 1.393 . S
C1340 H1329 0.950 1_455 S
C1340 C1338 1.391 . S
C1340 C1341 1.400 . S
C1341 C1335 1.491 1_455 S
C1341 C1340 1.400 . S
C1341 C1342 1.398 . S
C1342 H1330 0.950 . S
C1342 C1341 1.398 . S
C1342 C1343 1.391 . S
C1343 H1331 0.950 . S
C1343 C1339 1.393 . S
C1343 C1342 1.391 . S
C553 C135 1.161 . S
C559 C33 1.146 . S
C573 C101 1.156 . S
C579 C67 1.154 . S
C593 C169 1.155 . S
C599 C271 1.143 . S
C613 C203 1.159 . S
C619 C237 1.150 . S
C633 C305 1.143 . S
C639 C407 1.155 . S
C653 C339 1.143 . S
C659 C373 1.161 . S
C673 C543 1.161 . S
C679 C441 1.147 . S
C693 C509 1.150 . S
C699 C475 1.159 . S
C713 C5 0.764 . S
C719 C345 0.794 . S
C733 C379 0.789 . S
C739 C39 0.765 . S
C753 C277 0.764 . S
C759 C73 0.795 . S
C773 C311 0.789 . S
C779 C107 0.789 . S
C793 C481 0.764 . S
C799 C141 0.796 . S
C813 C515 0.794 . S
C819 C175 0.764 . S
C833 C413 0.772 . S
C839 C209 0.799 . S
C853 C447 0.764 . S
C859 C243 0.792 . S
C873 C9 1.655 . S
C879 C145 1.655 . S
C893 C43 1.654 . S
C899 C179 1.654 . S
C913 C213 1.678 . S
C919 C77 1.678 . S
C933 C111 1.655 . S
C939 C247 1.655 . S
C953 C281 1.670 . S
C959 C417 1.670 . S
C973 C451 1.660 . S
C979 C315 1.660 . S
C993 C349 1.658 . S
C999 C485 1.658 . S
C1013 C519 1.653 . S
C1019 C383 1.653 . S
C1033 C20 1.373 . S
C1039 C54 1.378 . S
C1053 C122 1.377 . S
C1059 C88 1.379 . S
C1073 C190 1.376 . S
C1079 C156 1.372 . S
C1093 C224 1.376 . S
C1099 C258 1.372 . S
C1113 C326 1.378 . S
C1119 C292 1.374 . S
C1133 C394 1.376 . S
C1139 C360 1.379 . S
C1153 C428 1.378 . S
C1159 C462 1.373 . S
C1173 C530 1.372 . S
C1179 C496 1.376 . S
C1193 C2 1.042 . S
C1199 C308 1.019 . S
C1213 C36 1.042 . S
C1219 C274 1.016 . S
C1233 C70 1.042 . S
C1239 C376 1.018 . S
C1253 C104 1.041 . S
C1259 C342 1.020 . S
C1273 C138 1.024 . S
C1279 C444 1.039 . S
C1293 C410 1.018 . S
C1299 C172 1.043 . S
C1313 C206 1.016 . S
C1319 C512 1.043 . S
C1333 C478 1.019 . S
C1339 C240 1.042 . S
