# Generated by pormake.
# Topology afi, (4)-cn, num edge types: 1
# Building blocks:
#     Node 0, Type 0, BuildingBlock: AZAVOO_clean_sbu_0, # of connection points: 4
#     Node 1, Type 0, BuildingBlock: AZAVOO_clean_sbu_0, # of connection points: 4
#     Node 2, Type 0, BuildingBlock: AZAVOO_clean_sbu_0, # of connection points: 4
#     Node 3, Type 0, BuildingBlock: AZAVOO_clean_sbu_0, # of connection points: 4
#     Node 4, Type 0, BuildingBlock: AZAVOO_clean_sbu_0, # of connection points: 4
#     Node 5, Type 0, BuildingBlock: AZAVOO_clean_sbu_0, # of connection points: 4
#     Node 6, Type 0, BuildingBlock: AZAVOO_clean_sbu_0, # of connection points: 4
#     Node 7, Type 0, BuildingBlock: AZAVOO_clean_sbu_0, # of connection points: 4
#     Node 8, Type 0, BuildingBlock: AZAVOO_clean_sbu_0, # of connection points: 4
#     Node 9, Type 0, BuildingBlock: AZAVOO_clean_sbu_0, # of connection points: 4
#     Node 10, Type 0, BuildingBlock: AZAVOO_clean_sbu_0, # of connection points: 4
#     Node 11, Type 0, BuildingBlock: AZAVOO_clean_sbu_0, # of connection points: 4
#     Node 12, Type 0, BuildingBlock: AZAVOO_clean_sbu_0, # of connection points: 4
#     Node 13, Type 0, BuildingBlock: AZAVOO_clean_sbu_0, # of connection points: 4
#     Node 14, Type 0, BuildingBlock: AZAVOO_clean_sbu_0, # of connection points: 4
#     Node 15, Type 0, BuildingBlock: AZAVOO_clean_sbu_0, # of connection points: 4
#     Node 16, Type 0, BuildingBlock: AZAVOO_clean_sbu_0, # of connection points: 4
#     Node 17, Type 0, BuildingBlock: AZAVOO_clean_sbu_0, # of connection points: 4
#     Node 18, Type 0, BuildingBlock: AZAVOO_clean_sbu_0, # of connection points: 4
#     Node 19, Type 0, BuildingBlock: AZAVOO_clean_sbu_0, # of connection points: 4
#     Node 20, Type 0, BuildingBlock: AZAVOO_clean_sbu_0, # of connection points: 4
#     Node 21, Type 0, BuildingBlock: AZAVOO_clean_sbu_0, # of connection points: 4
#     Node 22, Type 0, BuildingBlock: AZAVOO_clean_sbu_0, # of connection points: 4
#     Node 23, Type 0, BuildingBlock: AZAVOO_clean_sbu_0, # of connection points: 4
#     Edge 24, Type (0, 0), None
#     Edge 25, Type (0, 0), None
#     Edge 26, Type (0, 0), None
#     Edge 27, Type (0, 0), None
#     Edge 28, Type (0, 0), None
#     Edge 29, Type (0, 0), None
#     Edge 30, Type (0, 0), None
#     Edge 31, Type (0, 0), None
#     Edge 32, Type (0, 0), None
#     Edge 33, Type (0, 0), None
#     Edge 34, Type (0, 0), None
#     Edge 35, Type (0, 0), None
#     Edge 36, Type (0, 0), None
#     Edge 37, Type (0, 0), None
#     Edge 38, Type (0, 0), None
#     Edge 39, Type (0, 0), None
#     Edge 40, Type (0, 0), None
#     Edge 41, Type (0, 0), None
#     Edge 42, Type (0, 0), None
#     Edge 43, Type (0, 0), None
#     Edge 44, Type (0, 0), None
#     Edge 45, Type (0, 0), None
#     Edge 46, Type (0, 0), None
#     Edge 47, Type (0, 0), None
#     Edge 48, Type (0, 0), None
#     Edge 49, Type (0, 0), None
#     Edge 50, Type (0, 0), None
#     Edge 51, Type (0, 0), None
#     Edge 52, Type (0, 0), None
#     Edge 53, Type (0, 0), None
#     Edge 54, Type (0, 0), None
#     Edge 55, Type (0, 0), None
#     Edge 56, Type (0, 0), None
#     Edge 57, Type (0, 0), None
#     Edge 58, Type (0, 0), None
#     Edge 59, Type (0, 0), None
#     Edge 60, Type (0, 0), None
#     Edge 61, Type (0, 0), None
#     Edge 62, Type (0, 0), None
#     Edge 63, Type (0, 0), None
#     Edge 64, Type (0, 0), None
#     Edge 65, Type (0, 0), None
#     Edge 66, Type (0, 0), None
#     Edge 67, Type (0, 0), None
#     Edge 68, Type (0, 0), None
#     Edge 69, Type (0, 0), None
#     Edge 70, Type (0, 0), None
#     Edge 71, Type (0, 0), None
# Relax obj value: 0.105
# Max RMSD: 0.141
# Mean RMSD: 0.136
data_MOF--net-afi--node1-AZAVOO_clean_sbu_0--edge1-none
_symmetry_space_group_name_H-M    P1
_symmetry_Int_Tables_number       1
_symmetry_cell_setting            triclinic
loop_
_symmetry_equiv_pos_as_xyz
'x, y, z'
_cell_length_a     29.505024
_cell_length_b     29.505877
_cell_length_c     19.33145
_cell_angle_alpha  90.00046
_cell_angle_beta   89.999662
_cell_angle_gamma 120.00339
loop_
_atom_site_label
_atom_site_type_symbol
_atom_site_fract_x
_atom_site_fract_y
_atom_site_fract_z
_atom_type_partial_charge
Mg0 Mg 0.41178 0.08772 0.17883 0.0
O1 O 0.48506 0.10411 0.24215 0.0
O2 O 0.49596 0.04029 0.19924 0.0
Mg3 Mg 0.43847 0.98511 0.11983 0.0
C4 C 0.50989 0.07914 0.23917 0.0
C5 C 0.44 0.2104 0.23655 0.0
O6 O 0.41208 0.23125 0.25667 0.0
O7 O 0.46162 0.12152 0.08019 0.0
O8 O 0.46734 0.05243 0.04302 0.0
O9 O 0.36107 0.03091 0.26026 0.0
O10 O 0.38582 0.00772 0.16541 0.0
C11 C 0.47563 0.0989 0.0352 0.0
C12 C 0.36248 0.99481 0.22406 0.0
O13 O 0.41563 0.16311 0.21627 0.0
Mg14 Mg 0.32577 0.41095 0.17879 0.0
O15 O 0.38266 0.48423 0.24211 0.0
O16 O 0.45739 0.49513 0.19919 0.0
Mg17 Mg 0.45507 0.43763 0.11979 0.0
C18 C 0.43247 0.50906 0.23912 0.0
C19 C 0.23131 0.43917 0.23651 0.0
O20 O 0.18253 0.41125 0.25663 0.0
O21 O 0.34181 0.46078 0.08015 0.0
O22 O 0.41662 0.46649 0.04297 0.0
O23 O 0.33186 0.36024 0.26022 0.0
O24 O 0.3798 0.38498 0.16537 0.0
C25 C 0.37844 0.47478 0.03515 0.0
C26 C 0.36937 0.36165 0.22402 0.0
O27 O 0.25423 0.4148 0.21622 0.0
Mg28 Mg 0.91651 0.32493 0.1788 0.0
O29 O 0.90014 0.38183 0.24213 0.0
O30 O 0.96396 0.45655 0.1992 0.0
Mg31 Mg 0.01915 0.45423 0.1198 0.0
C32 C 0.92511 0.43163 0.23914 0.0
C33 C 0.79383 0.23048 0.23656 0.0
O34 O 0.77299 0.18171 0.25669 0.0
O35 O 0.88271 0.34097 0.08017 0.0
O36 O 0.95182 0.41577 0.04299 0.0
O37 O 0.97332 0.33102 0.26023 0.0
O38 O 0.99652 0.37896 0.16537 0.0
C39 C 0.90535 0.3776 0.03518 0.0
C40 C 0.00943 0.36853 0.22402 0.0
O41 O 0.84113 0.25341 0.21626 0.0
Mg42 Mg 0.59333 0.9157 0.17883 0.0
O43 O 0.52005 0.89931 0.24215 0.0
O44 O 0.50914 0.96312 0.19922 0.0
Mg45 Mg 0.56664 0.0183 0.11981 0.0
C46 C 0.49522 0.92427 0.23916 0.0
C47 C 0.56511 0.79302 0.23657 0.0
O48 O 0.59303 0.77217 0.2567 0.0
O49 O 0.5435 0.88189 0.0802 0.0
O50 O 0.53778 0.95097 0.04301 0.0
O51 O 0.64404 0.97251 0.26026 0.0
O52 O 0.61929 0.99569 0.1654 0.0
C53 C 0.5295 0.90451 0.0352 0.0
C54 C 0.64263 0.00861 0.22405 0.0
O55 O 0.58949 0.84032 0.21628 0.0
Mg56 Mg 0.67934 0.59247 0.17879 0.0
O57 O 0.62245 0.51919 0.24213 0.0
O58 O 0.54772 0.50828 0.1992 0.0
Mg59 Mg 0.55004 0.56577 0.11979 0.0
C60 C 0.57265 0.49436 0.23914 0.0
C61 C 0.7738 0.56425 0.23653 0.0
O62 O 0.82258 0.59218 0.25665 0.0
O63 O 0.6633 0.54262 0.08016 0.0
O64 O 0.5885 0.53691 0.04298 0.0
O65 O 0.67325 0.64319 0.26021 0.0
O66 O 0.62531 0.61843 0.16536 0.0
C67 C 0.62667 0.52862 0.03517 0.0
C68 C 0.63574 0.64178 0.22401 0.0
O69 O 0.75088 0.58862 0.21624 0.0
Mg70 Mg 0.0886 0.67849 0.1788 0.0
O71 O 0.10498 0.6216 0.24214 0.0
O72 O 0.04115 0.54687 0.19922 0.0
Mg73 Mg 0.98597 0.54919 0.11981 0.0
C74 C 0.08 0.5718 0.23915 0.0
C75 C 0.21128 0.77294 0.23655 0.0
O76 O 0.23213 0.82171 0.25668 0.0
O77 O 0.1224 0.66244 0.08017 0.0
O78 O 0.0533 0.58763 0.043 0.0
O79 O 0.03179 0.67241 0.26021 0.0
O80 O 0.0086 0.62446 0.16537 0.0
C81 C 0.09977 0.6258 0.03519 0.0
C82 C 0.99569 0.6349 0.22401 0.0
O83 O 0.16399 0.75002 0.21625 0.0
Mg84 Mg 0.85654 0.53419 0.30434 0.0
O85 O 0.87502 0.46964 0.27406 0.0
O86 O 0.95291 0.49634 0.32285 0.0
Mg87 Mg 0.98296 0.57138 0.38555 0.0
C88 C 0.91432 0.46388 0.28617 0.0
C89 C 0.74721 0.5069 0.24117 0.0
O90 O 0.69873 0.47827 0.21968 0.0
O91 O 0.83519 0.50362 0.41528 0.0
O92 O 0.91478 0.53505 0.46209 0.0
O93 O 0.90281 0.57911 0.21142 0.0
O94 O 0.9363 0.59056 0.31645 0.0
C95 C 0.86503 0.5116 0.46735 0.0
C96 C 0.94309 0.60171 0.25176 0.0
O97 O 0.77145 0.48469 0.26552 0.0
Mg98 Mg 0.32407 0.85567 0.30438 0.0
O99 O 0.40711 0.87417 0.27408 0.0
O100 O 0.4583 0.95205 0.32288 0.0
Mg101 Mg 0.4133 0.98209 0.38559 0.0
C102 C 0.45218 0.91348 0.2862 0.0
C103 C 0.24204 0.74635 0.24119 0.0
O104 O 0.22219 0.69788 0.21971 0.0
O105 O 0.33331 0.83432 0.41531 0.0
O106 O 0.38146 0.91392 0.46213 0.0
O107 O 0.32541 0.90195 0.21147 0.0
O108 O 0.34745 0.93543 0.31649 0.0
C109 C 0.35516 0.86416 0.46738 0.0
C110 C 0.34309 0.94222 0.2518 0.0
O111 O 0.28849 0.77059 0.26555 0.0
Mg112 Mg 0.47008 0.32321 0.30434 0.0
O113 O 0.53463 0.40625 0.27406 0.0
O114 O 0.50795 0.45744 0.32286 0.0
Mg115 Mg 0.43291 0.41244 0.38557 0.0
C116 C 0.5404 0.45131 0.28618 0.0
C117 C 0.49736 0.24117 0.24117 0.0
O118 O 0.52598 0.22132 0.21968 0.0
O119 O 0.50066 0.33243 0.41527 0.0
O120 O 0.46923 0.38058 0.4621 0.0
O121 O 0.42515 0.32456 0.21143 0.0
O122 O 0.41371 0.3466 0.31645 0.0
C123 C 0.49268 0.35428 0.46735 0.0
C124 C 0.40256 0.34225 0.25176 0.0
O125 O 0.51957 0.28762 0.2655 0.0
Mg126 Mg 0.14858 0.46923 0.30434 0.0
O127 O 0.1301 0.53378 0.27407 0.0
O128 O 0.05221 0.50709 0.32287 0.0
Mg129 Mg 0.02217 0.43205 0.38557 0.0
C130 C 0.0908 0.53955 0.28619 0.0
C131 C 0.2579 0.49653 0.24115 0.0
O132 O 0.30638 0.52515 0.21967 0.0
O133 O 0.16994 0.49981 0.41528 0.0
O134 O 0.09035 0.46838 0.4621 0.0
O135 O 0.1023 0.42432 0.21143 0.0
O136 O 0.06882 0.41286 0.31645 0.0
C137 C 0.1401 0.49182 0.46735 0.0
C138 C 0.06202 0.40172 0.25176 0.0
O139 O 0.23367 0.51873 0.26551 0.0
Mg140 Mg 0.68104 0.14775 0.30438 0.0
O141 O 0.598 0.12925 0.27409 0.0
O142 O 0.54682 0.05136 0.32288 0.0
Mg143 Mg 0.59182 0.02133 0.38559 0.0
C144 C 0.55294 0.08994 0.28621 0.0
C145 C 0.76307 0.25707 0.24119 0.0
O146 O 0.78292 0.30554 0.21971 0.0
O147 O 0.67181 0.1691 0.41531 0.0
O148 O 0.62366 0.0895 0.46213 0.0
O149 O 0.67969 0.10147 0.21146 0.0
O150 O 0.65766 0.06799 0.31648 0.0
C151 C 0.64996 0.13926 0.46738 0.0
C152 C 0.66202 0.0612 0.2518 0.0
O153 O 0.71662 0.23283 0.26555 0.0
Mg154 Mg 0.53504 0.68021 0.30433 0.0
O155 O 0.47048 0.59717 0.27404 0.0
O156 O 0.49717 0.54598 0.32283 0.0
Mg157 Mg 0.57221 0.59098 0.38554 0.0
C158 C 0.46472 0.55211 0.28615 0.0
C159 C 0.50776 0.76225 0.24117 0.0
O160 O 0.47914 0.7821 0.21968 0.0
O161 O 0.50445 0.67098 0.41526 0.0
O162 O 0.53589 0.62283 0.46208 0.0
O163 O 0.57996 0.67886 0.21142 0.0
O164 O 0.59141 0.65682 0.31644 0.0
C165 C 0.51244 0.64913 0.46733 0.0
C166 C 0.60255 0.66118 0.25175 0.0
O167 O 0.48554 0.7158 0.2655 0.0
Mg168 Mg 0.53976 0.90258 0.80239 0.0
O169 O 0.45326 0.86159 0.77531 0.0
O170 O 0.41408 0.77986 0.81548 0.0
Mg171 Mg 0.47679 0.76956 0.87516 0.0
C172 C 0.41288 0.81669 0.78235 0.0
C173 C 0.58431 0.01977 0.74248 0.0
O174 O 0.57993 0.05956 0.72108 0.0
O175 O 0.52474 0.91259 0.91503 0.0
O176 O 0.49732 0.83247 0.959 0.0
O177 O 0.55443 0.86654 0.70888 0.0
O178 O 0.53957 0.83202 0.81363 0.0
C179 C 0.51321 0.8812 0.96629 0.0
C180 C 0.54886 0.82929 0.74973 0.0
O181 O 0.54425 0.97963 0.76702 0.0
Mg182 Mg 0.63887 0.53888 0.80236 0.0
O183 O 0.59336 0.45239 0.77527 0.0
O184 O 0.63591 0.41321 0.81545 0.0
Mg185 Mg 0.70892 0.47592 0.87513 0.0
C186 C 0.59788 0.41201 0.7823 0.0
C187 C 0.56623 0.58343 0.74243 0.0
O188 O 0.52206 0.57905 0.72102 0.0
O189 O 0.61383 0.52386 0.915 0.0
O190 O 0.66653 0.49644 0.95897 0.0
O191 O 0.68959 0.55357 0.70887 0.0
O192 O 0.70924 0.5387 0.81361 0.0
C193 C 0.63369 0.51233 0.96626 0.0
C194 C 0.72127 0.548 0.74971 0.0
O195 O 0.56631 0.54337 0.76698 0.0
Mg196 Mg 0.10169 0.63798 0.80239 0.0
O197 O 0.14268 0.59247 0.77529 0.0
O198 O 0.22441 0.63502 0.81546 0.0
Mg199 Mg 0.23472 0.70803 0.87514 0.0
C200 C 0.18758 0.59699 0.78232 0.0
C201 C 0.9845 0.56535 0.74246 0.0
O202 O 0.9447 0.52119 0.72104 0.0
O203 O 0.09169 0.61294 0.91502 0.0
O204 O 0.17181 0.66565 0.95899 0.0
O205 O 0.13773 0.68869 0.70888 0.0
O206 O 0.17226 0.70835 0.81363 0.0
C207 C 0.12308 0.63281 0.96628 0.0
C208 C 0.17498 0.72038 0.74973 0.0
O209 O 0.02463 0.56542 0.767 0.0
Mg210 Mg 0.46539 0.10082 0.8024 0.0
O211 O 0.55189 0.14181 0.77532 0.0
O212 O 0.59107 0.22354 0.81549 0.0
Mg213 Mg 0.52836 0.23385 0.87516 0.0
C214 C 0.59227 0.18671 0.78236 0.0
C215 C 0.42084 0.98363 0.74249 0.0
O216 O 0.42522 0.94384 0.72109 0.0
O217 O 0.4804 0.09081 0.91504 0.0
O218 O 0.50782 0.17094 0.959 0.0
O219 O 0.45072 0.13686 0.70888 0.0
O220 O 0.46558 0.17138 0.81363 0.0
C221 C 0.49192 0.12221 0.9663 0.0
C222 C 0.45629 0.17411 0.74972 0.0
O223 O 0.4609 0.02377 0.76703 0.0
Mg224 Mg 0.36626 0.46451 0.80235 0.0
O225 O 0.41177 0.55101 0.77526 0.0
O226 O 0.36921 0.59018 0.81543 0.0
Mg227 Mg 0.2962 0.52747 0.8751 0.0
C228 C 0.40725 0.59138 0.78229 0.0
C229 C 0.4389 0.41996 0.74244 0.0
O230 O 0.48307 0.42433 0.72102 0.0
O231 O 0.39129 0.47954 0.91499 0.0
O232 O 0.33858 0.50695 0.95895 0.0
O233 O 0.31554 0.44982 0.70884 0.0
O234 O 0.29589 0.46469 0.81359 0.0
C235 C 0.37142 0.49106 0.96624 0.0
C236 C 0.28386 0.45539 0.74969 0.0
O237 O 0.43882 0.46002 0.76697 0.0
Mg238 Mg 0.90345 0.36542 0.80238 0.0
O239 O 0.86246 0.41092 0.77528 0.0
O240 O 0.78072 0.36836 0.81544 0.0
Mg241 Mg 0.77041 0.29535 0.87512 0.0
C242 C 0.81755 0.40639 0.7823 0.0
C243 C 0.02064 0.43804 0.74245 0.0
O244 O 0.06044 0.4822 0.72104 0.0
O245 O 0.91344 0.39045 0.91502 0.0
O246 O 0.83331 0.33774 0.95897 0.0
O247 O 0.86742 0.3147 0.70888 0.0
O248 O 0.83289 0.29504 0.81361 0.0
C249 C 0.88205 0.37058 0.96627 0.0
C250 C 0.83017 0.28301 0.74972 0.0
O251 O 0.98051 0.43797 0.767 0.0
Mg252 Mg 0.14927 0.43836 0.68277 0.0
O253 O 0.16251 0.5121 0.74111 0.0
O254 O 0.23936 0.57874 0.70642 0.0
Mg255 Mg 0.2764 0.54774 0.6278 0.0
C256 C 0.19808 0.56026 0.7435 0.0
C257 C 0.02162 0.38906 0.73588 0.0
O258 O 0.97938 0.34475 0.75143 0.0
O259 O 0.13147 0.46752 0.58398 0.0
O260 O 0.21166 0.52566 0.54506 0.0
O261 O 0.19202 0.42113 0.76296 0.0
O262 O 0.22982 0.4684 0.66954 0.0
C263 C 0.16204 0.49806 0.53705 0.0
C264 C 0.23379 0.44805 0.7262 0.0
O265 O 0.06229 0.38779 0.71646 0.0
Mg266 Mg 0.71261 0.14843 0.6828 0.0
O267 O 0.65209 0.16165 0.74114 0.0
O268 O 0.66231 0.2385 0.70646 0.0
Mg269 Mg 0.73035 0.27555 0.62784 0.0
C270 C 0.63951 0.19722 0.74354 0.0
C271 C 0.63427 0.02077 0.7359 0.0
O272 O 0.63636 0.97854 0.75143 0.0
O273 O 0.66564 0.13062 0.58401 0.0
O274 O 0.68768 0.21081 0.54509 0.0
O275 O 0.77259 0.19118 0.76299 0.0
O276 O 0.76311 0.22898 0.66958 0.0
C277 C 0.66566 0.16119 0.53708 0.0
C278 C 0.78742 0.23294 0.72623 0.0
O279 O 0.67621 0.06145 0.71647 0.0
Mg280 Mg 0.56589 0.71175 0.68277 0.0
O281 O 0.49214 0.65121 0.74109 0.0
O282 O 0.4255 0.66143 0.7064 0.0
Mg283 Mg 0.45651 0.72948 0.6278 0.0
C284 C 0.44398 0.63862 0.74348 0.0
C285 C 0.61521 0.6334 0.73586 0.0
O286 O 0.65952 0.63549 0.75139 0.0
O287 O 0.53674 0.6648 0.58397 0.0
O288 O 0.47859 0.68684 0.54505 0.0
O289 O 0.58311 0.7717 0.76299 0.0
O290 O 0.53585 0.76225 0.66957 0.0
C291 C 0.5062 0.66482 0.53704 0.0
C292 C 0.55619 0.78655 0.72623 0.0
O293 O 0.61647 0.67534 0.71644 0.0
Mg294 Mg 0.85586 0.56503 0.68279 0.0
O295 O 0.84263 0.49128 0.7411 0.0
O296 O 0.76577 0.42465 0.70641 0.0
Mg297 Mg 0.72873 0.45566 0.6278 0.0
C298 C 0.80706 0.44313 0.74349 0.0
C299 C 0.98352 0.61433 0.7359 0.0
O300 O 0.02575 0.65864 0.75145 0.0
O301 O 0.87366 0.53589 0.58399 0.0
O302 O 0.79347 0.47775 0.54506 0.0
O303 O 0.81311 0.58225 0.76299 0.0
O304 O 0.77531 0.53499 0.66957 0.0
C305 C 0.84309 0.50535 0.53705 0.0
C306 C 0.77134 0.55533 0.72623 0.0
O307 O 0.94285 0.6156 0.71648 0.0
Mg308 Mg 0.29253 0.85497 0.68282 0.0
O309 O 0.35306 0.84175 0.74114 0.0
O310 O 0.34285 0.7649 0.70644 0.0
Mg311 Mg 0.2748 0.72786 0.62782 0.0
C312 C 0.36565 0.80618 0.74353 0.0
C313 C 0.37087 0.98263 0.73593 0.0
O314 O 0.36878 0.02485 0.75148 0.0
O315 O 0.33949 0.87279 0.58402 0.0
O316 O 0.31745 0.7926 0.54509 0.0
O317 O 0.23256 0.81221 0.76301 0.0
O318 O 0.24203 0.77442 0.66959 0.0
C319 C 0.33948 0.84223 0.53709 0.0
C320 C 0.21772 0.77045 0.72625 0.0
O321 O 0.32893 0.94195 0.71651 0.0
Mg322 Mg 0.43924 0.29164 0.68279 0.0
O323 O 0.51299 0.35218 0.7411 0.0
O324 O 0.57963 0.34197 0.70641 0.0
Mg325 Mg 0.54862 0.27392 0.62779 0.0
C326 C 0.56115 0.36477 0.74349 0.0
C327 C 0.38992 0.36998 0.73589 0.0
O328 O 0.34561 0.36789 0.75144 0.0
O329 O 0.46838 0.3386 0.58399 0.0
O330 O 0.52653 0.31657 0.54505 0.0
O331 O 0.42203 0.23169 0.76299 0.0
O332 O 0.46929 0.24115 0.66957 0.0
C333 C 0.49892 0.33859 0.53705 0.0
C334 C 0.44896 0.21685 0.72623 0.0
O335 O 0.38865 0.32804 0.71647 0.0
loop_
_geom_bond_atom_site_label_1
_geom_bond_atom_site_label_2
_geom_bond_distance
_geom_bond_site_symmetry_2
_ccdc_geom_bond_type
Mg0 O1 2.028 . S
Mg0 O7 1.986 . S
Mg0 O9 2.114 . S
Mg0 O10 2.251 . S
Mg0 O13 2.010 . S
O1 Mg0 2.028 . S
O1 C4 1.250 . S
O2 Mg3 2.028 . S
O2 C4 1.248 . S
Mg3 O2 2.028 . S
Mg3 O8 2.032 . S
Mg3 O10 2.079 . S
C4 O1 1.250 . S
C4 O2 1.248 . S
C5 O6 1.264 . S
C5 O13 1.249 . S
O6 C5 1.264 . S
O7 Mg0 1.986 . S
O7 C11 1.246 . S
O8 Mg3 2.032 . S
O8 C11 1.259 . S
O9 Mg0 2.114 . S
O9 C12 1.252 . S
O10 Mg0 2.251 . S
O10 Mg3 2.079 . S
O10 C12 1.273 . S
C11 O7 1.246 . S
C11 O8 1.259 . S
C12 O9 1.252 . S
C12 O10 1.273 . S
O13 Mg0 2.010 . S
O13 C5 1.249 . S
Mg14 O15 2.028 . S
Mg14 O21 1.986 . S
Mg14 O23 2.114 . S
Mg14 O24 2.251 . S
Mg14 O27 2.010 . S
O15 Mg14 2.028 . S
O15 C18 1.250 . S
O16 Mg17 2.028 . S
O16 C18 1.248 . S
Mg17 O16 2.028 . S
Mg17 O22 2.032 . S
Mg17 O24 2.079 . S
C18 O15 1.250 . S
C18 O16 1.248 . S
C19 O20 1.264 . S
C19 O27 1.249 . S
O20 C19 1.264 . S
O21 Mg14 1.986 . S
O21 C25 1.246 . S
O22 Mg17 2.032 . S
O22 C25 1.259 . S
O23 Mg14 2.114 . S
O23 C26 1.252 . S
O24 Mg14 2.251 . S
O24 Mg17 2.079 . S
O24 C26 1.273 . S
C25 O21 1.246 . S
C25 O22 1.259 . S
C26 O23 1.252 . S
C26 O24 1.273 . S
O27 Mg14 2.010 . S
O27 C19 1.249 . S
Mg28 O29 2.028 . S
Mg28 O35 1.986 . S
Mg28 O37 2.114 . S
Mg28 O38 2.251 . S
Mg28 O41 2.010 . S
O29 Mg28 2.028 . S
O29 C32 1.250 . S
O30 Mg31 2.028 . S
O30 C32 1.248 . S
Mg31 O30 2.028 . S
Mg31 O36 2.032 . S
Mg31 O38 2.079 . S
C32 O29 1.250 . S
C32 O30 1.248 . S
C33 O34 1.264 . S
C33 O41 1.249 . S
O34 C33 1.264 . S
O35 Mg28 1.986 . S
O35 C39 1.246 . S
O36 Mg31 2.032 . S
O36 C39 1.259 . S
O37 Mg28 2.114 . S
O37 C40 1.252 . S
O38 Mg28 2.251 . S
O38 Mg31 2.079 . S
O38 C40 1.273 . S
C39 O35 1.246 . S
C39 O36 1.259 . S
C40 O37 1.252 . S
C40 O38 1.273 . S
O41 Mg28 2.010 . S
O41 C33 1.249 . S
Mg42 O43 2.028 . S
Mg42 O49 1.986 . S
Mg42 O51 2.114 . S
Mg42 O52 2.251 . S
Mg42 O55 2.010 . S
O43 Mg42 2.028 . S
O43 C46 1.250 . S
O44 Mg45 2.028 . S
O44 C46 1.248 . S
Mg45 O44 2.028 . S
Mg45 O50 2.032 . S
Mg45 O52 2.079 . S
C46 O43 1.250 . S
C46 O44 1.248 . S
C47 O48 1.264 . S
C47 O55 1.249 . S
O48 C47 1.264 . S
O49 Mg42 1.986 . S
O49 C53 1.246 . S
O50 Mg45 2.032 . S
O50 C53 1.259 . S
O51 Mg42 2.114 . S
O51 C54 1.252 . S
O52 Mg42 2.251 . S
O52 Mg45 2.079 . S
O52 C54 1.273 . S
C53 O49 1.246 . S
C53 O50 1.259 . S
C54 O51 1.252 . S
C54 O52 1.273 . S
O55 Mg42 2.010 . S
O55 C47 1.249 . S
Mg56 O57 2.028 . S
Mg56 O63 1.986 . S
Mg56 O65 2.114 . S
Mg56 O66 2.251 . S
Mg56 O69 2.010 . S
O57 Mg56 2.028 . S
O57 C60 1.250 . S
O58 Mg59 2.028 . S
O58 C60 1.248 . S
Mg59 O58 2.028 . S
Mg59 O64 2.032 . S
Mg59 O66 2.079 . S
C60 O57 1.250 . S
C60 O58 1.248 . S
C61 O62 1.264 . S
C61 O69 1.249 . S
O62 C61 1.264 . S
O63 Mg56 1.986 . S
O63 C67 1.246 . S
O64 Mg59 2.032 . S
O64 C67 1.259 . S
O65 Mg56 2.114 . S
O65 C68 1.252 . S
O66 Mg56 2.251 . S
O66 Mg59 2.079 . S
O66 C68 1.273 . S
C67 O63 1.246 . S
C67 O64 1.259 . S
C68 O65 1.252 . S
C68 O66 1.273 . S
O69 Mg56 2.010 . S
O69 C61 1.249 . S
Mg70 O71 2.028 . S
Mg70 O77 1.986 . S
Mg70 O79 2.114 . S
Mg70 O80 2.251 . S
Mg70 O83 2.010 . S
O71 Mg70 2.028 . S
O71 C74 1.250 . S
O72 Mg73 2.028 . S
O72 C74 1.248 . S
Mg73 O72 2.028 . S
Mg73 O78 2.032 . S
Mg73 O80 2.079 . S
C74 O71 1.250 . S
C74 O72 1.248 . S
C75 O76 1.264 . S
C75 O83 1.249 . S
O76 C75 1.264 . S
O77 Mg70 1.986 . S
O77 C81 1.246 . S
O78 Mg73 2.032 . S
O78 C81 1.259 . S
O79 Mg70 2.114 . S
O79 C82 1.252 . S
O80 Mg70 2.251 . S
O80 Mg73 2.079 . S
O80 C82 1.273 . S
C81 O77 1.246 . S
C81 O78 1.259 . S
C82 O79 1.252 . S
C82 O80 1.273 . S
O83 Mg70 2.010 . S
O83 C75 1.249 . S
Mg84 O85 2.028 . S
Mg84 O91 1.986 . S
Mg84 O93 2.114 . S
Mg84 O94 2.251 . S
Mg84 O97 2.010 . S
O85 Mg84 2.028 . S
O85 C88 1.250 . S
O86 Mg87 2.028 . S
O86 C88 1.248 . S
Mg87 O86 2.028 . S
Mg87 O92 2.032 . S
Mg87 O94 2.079 . S
C88 O85 1.250 . S
C88 O86 1.248 . S
C89 O90 1.264 . S
C89 O97 1.249 . S
O90 C89 1.264 . S
O91 Mg84 1.986 . S
O91 C95 1.246 . S
O92 Mg87 2.032 . S
O92 C95 1.259 . S
O93 Mg84 2.114 . S
O93 C96 1.252 . S
O94 Mg84 2.251 . S
O94 Mg87 2.079 . S
O94 C96 1.273 . S
C95 O91 1.246 . S
C95 O92 1.259 . S
C96 O93 1.252 . S
C96 O94 1.273 . S
O97 Mg84 2.010 . S
O97 C89 1.249 . S
Mg98 O99 2.028 . S
Mg98 O105 1.986 . S
Mg98 O107 2.114 . S
Mg98 O108 2.251 . S
Mg98 O111 2.010 . S
O99 Mg98 2.028 . S
O99 C102 1.250 . S
O100 Mg101 2.028 . S
O100 C102 1.248 . S
Mg101 O100 2.028 . S
Mg101 O106 2.032 . S
Mg101 O108 2.079 . S
C102 O99 1.250 . S
C102 O100 1.248 . S
C103 O104 1.264 . S
C103 O111 1.249 . S
O104 C103 1.264 . S
O105 Mg98 1.986 . S
O105 C109 1.246 . S
O106 Mg101 2.032 . S
O106 C109 1.259 . S
O107 Mg98 2.114 . S
O107 C110 1.252 . S
O108 Mg98 2.251 . S
O108 Mg101 2.079 . S
O108 C110 1.273 . S
C109 O105 1.246 . S
C109 O106 1.259 . S
C110 O107 1.252 . S
C110 O108 1.273 . S
O111 Mg98 2.010 . S
O111 C103 1.249 . S
Mg112 O113 2.028 . S
Mg112 O119 1.986 . S
Mg112 O121 2.114 . S
Mg112 O122 2.251 . S
Mg112 O125 2.010 . S
O113 Mg112 2.028 . S
O113 C116 1.250 . S
O114 Mg115 2.028 . S
O114 C116 1.248 . S
Mg115 O114 2.028 . S
Mg115 O120 2.032 . S
Mg115 O122 2.079 . S
C116 O113 1.250 . S
C116 O114 1.248 . S
C117 O118 1.264 . S
C117 O125 1.249 . S
O118 C117 1.264 . S
O119 Mg112 1.986 . S
O119 C123 1.246 . S
O120 Mg115 2.032 . S
O120 C123 1.259 . S
O121 Mg112 2.114 . S
O121 C124 1.252 . S
O122 Mg112 2.251 . S
O122 Mg115 2.079 . S
O122 C124 1.273 . S
C123 O119 1.246 . S
C123 O120 1.259 . S
C124 O121 1.252 . S
C124 O122 1.273 . S
O125 Mg112 2.010 . S
O125 C117 1.249 . S
Mg126 O127 2.028 . S
Mg126 O133 1.986 . S
Mg126 O135 2.114 . S
Mg126 O136 2.251 . S
Mg126 O139 2.010 . S
O127 Mg126 2.028 . S
O127 C130 1.250 . S
O128 Mg129 2.028 . S
O128 C130 1.248 . S
Mg129 O128 2.028 . S
Mg129 O134 2.032 . S
Mg129 O136 2.079 . S
C130 O127 1.250 . S
C130 O128 1.248 . S
C131 O132 1.264 . S
C131 O139 1.249 . S
O132 C131 1.264 . S
O133 Mg126 1.986 . S
O133 C137 1.246 . S
O134 Mg129 2.032 . S
O134 C137 1.259 . S
O135 Mg126 2.114 . S
O135 C138 1.252 . S
O136 Mg126 2.251 . S
O136 Mg129 2.079 . S
O136 C138 1.273 . S
C137 O133 1.246 . S
C137 O134 1.259 . S
C138 O135 1.252 . S
C138 O136 1.273 . S
O139 Mg126 2.010 . S
O139 C131 1.249 . S
Mg140 O141 2.028 . S
Mg140 O147 1.986 . S
Mg140 O149 2.114 . S
Mg140 O150 2.251 . S
Mg140 O153 2.010 . S
O141 Mg140 2.028 . S
O141 C144 1.250 . S
O142 Mg143 2.028 . S
O142 C144 1.248 . S
Mg143 O142 2.028 . S
Mg143 O148 2.032 . S
Mg143 O150 2.079 . S
C144 O141 1.250 . S
C144 O142 1.248 . S
C145 O146 1.264 . S
C145 O153 1.249 . S
O146 C145 1.264 . S
O147 Mg140 1.986 . S
O147 C151 1.246 . S
O148 Mg143 2.032 . S
O148 C151 1.259 . S
O149 Mg140 2.114 . S
O149 C152 1.252 . S
O150 Mg140 2.251 . S
O150 Mg143 2.079 . S
O150 C152 1.273 . S
C151 O147 1.246 . S
C151 O148 1.259 . S
C152 O149 1.252 . S
C152 O150 1.273 . S
O153 Mg140 2.010 . S
O153 C145 1.249 . S
Mg154 O155 2.028 . S
Mg154 O161 1.986 . S
Mg154 O163 2.114 . S
Mg154 O164 2.251 . S
Mg154 O167 2.010 . S
O155 Mg154 2.028 . S
O155 C158 1.250 . S
O156 Mg157 2.028 . S
O156 C158 1.248 . S
Mg157 O156 2.028 . S
Mg157 O162 2.032 . S
Mg157 O164 2.079 . S
C158 O155 1.250 . S
C158 O156 1.248 . S
C159 O160 1.264 . S
C159 O167 1.249 . S
O160 C159 1.264 . S
O161 Mg154 1.986 . S
O161 C165 1.246 . S
O162 Mg157 2.032 . S
O162 C165 1.259 . S
O163 Mg154 2.114 . S
O163 C166 1.252 . S
O164 Mg154 2.251 . S
O164 Mg157 2.079 . S
O164 C166 1.273 . S
C165 O161 1.246 . S
C165 O162 1.259 . S
C166 O163 1.252 . S
C166 O164 1.273 . S
O167 Mg154 2.010 . S
O167 C159 1.249 . S
Mg168 O169 2.028 . S
Mg168 O175 1.986 . S
Mg168 O177 2.114 . S
Mg168 O178 2.251 . S
Mg168 O181 2.010 . S
O169 Mg168 2.028 . S
O169 C172 1.250 . S
O170 Mg171 2.028 . S
O170 C172 1.248 . S
Mg171 O170 2.028 . S
Mg171 O176 2.032 . S
Mg171 O178 2.079 . S
C172 O169 1.250 . S
C172 O170 1.248 . S
C173 O174 1.264 1_565 S
C173 O181 1.249 . S
O174 C173 1.264 1_545 S
O175 Mg168 1.986 . S
O175 C179 1.246 . S
O176 Mg171 2.032 . S
O176 C179 1.259 . S
O177 Mg168 2.114 . S
O177 C180 1.252 . S
O178 Mg168 2.251 . S
O178 Mg171 2.079 . S
O178 C180 1.273 . S
C179 O175 1.246 . S
C179 O176 1.259 . S
C180 O177 1.252 . S
C180 O178 1.273 . S
O181 Mg168 2.010 . S
O181 C173 1.249 . S
Mg182 O183 2.028 . S
Mg182 O189 1.986 . S
Mg182 O191 2.114 . S
Mg182 O192 2.251 . S
Mg182 O195 2.010 . S
O183 Mg182 2.028 . S
O183 C186 1.250 . S
O184 Mg185 2.028 . S
O184 C186 1.248 . S
Mg185 O184 2.028 . S
Mg185 O190 2.032 . S
Mg185 O192 2.079 . S
C186 O183 1.250 . S
C186 O184 1.248 . S
C187 O188 1.264 . S
C187 O195 1.249 . S
O188 C187 1.264 . S
O189 Mg182 1.986 . S
O189 C193 1.246 . S
O190 Mg185 2.032 . S
O190 C193 1.259 . S
O191 Mg182 2.114 . S
O191 C194 1.252 . S
O192 Mg182 2.251 . S
O192 Mg185 2.079 . S
O192 C194 1.273 . S
C193 O189 1.246 . S
C193 O190 1.259 . S
C194 O191 1.252 . S
C194 O192 1.273 . S
O195 Mg182 2.010 . S
O195 C187 1.249 . S
Mg196 O197 2.028 . S
Mg196 O203 1.986 . S
Mg196 O205 2.114 . S
Mg196 O206 2.251 . S
Mg196 O209 2.010 . S
O197 Mg196 2.028 . S
O197 C200 1.250 . S
O198 Mg199 2.028 . S
O198 C200 1.248 . S
Mg199 O198 2.028 . S
Mg199 O204 2.032 . S
Mg199 O206 2.079 . S
C200 O197 1.250 . S
C200 O198 1.248 . S
C201 O202 1.264 1_455 S
C201 O209 1.249 . S
O202 C201 1.264 1_655 S
O203 Mg196 1.986 . S
O203 C207 1.246 . S
O204 Mg199 2.032 . S
O204 C207 1.259 . S
O205 Mg196 2.114 . S
O205 C208 1.252 . S
O206 Mg196 2.251 . S
O206 Mg199 2.079 . S
O206 C208 1.273 . S
C207 O203 1.246 . S
C207 O204 1.259 . S
C208 O205 1.252 . S
C208 O206 1.273 . S
O209 Mg196 2.010 . S
O209 C201 1.249 . S
Mg210 O211 2.028 . S
Mg210 O217 1.986 . S
Mg210 O219 2.114 . S
Mg210 O220 2.251 . S
Mg210 O223 2.010 . S
O211 Mg210 2.028 . S
O211 C214 1.250 . S
O212 Mg213 2.028 . S
O212 C214 1.248 . S
Mg213 O212 2.028 . S
Mg213 O218 2.032 . S
Mg213 O220 2.079 . S
C214 O211 1.250 . S
C214 O212 1.248 . S
C215 O216 1.264 1_545 S
C215 O223 1.249 . S
O216 C215 1.264 1_565 S
O217 Mg210 1.986 . S
O217 C221 1.246 . S
O218 Mg213 2.032 . S
O218 C221 1.259 . S
O219 Mg210 2.114 . S
O219 C222 1.252 . S
O220 Mg210 2.251 . S
O220 Mg213 2.079 . S
O220 C222 1.273 . S
C221 O217 1.246 . S
C221 O218 1.259 . S
C222 O219 1.252 . S
C222 O220 1.273 . S
O223 Mg210 2.010 . S
O223 C215 1.249 . S
Mg224 O225 2.028 . S
Mg224 O231 1.986 . S
Mg224 O233 2.114 . S
Mg224 O234 2.251 . S
Mg224 O237 2.010 . S
O225 Mg224 2.028 . S
O225 C228 1.250 . S
O226 Mg227 2.028 . S
O226 C228 1.248 . S
Mg227 O226 2.028 . S
Mg227 O232 2.032 . S
Mg227 O234 2.079 . S
C228 O225 1.250 . S
C228 O226 1.248 . S
C229 O230 1.264 . S
C229 O237 1.249 . S
O230 C229 1.264 . S
O231 Mg224 1.986 . S
O231 C235 1.246 . S
O232 Mg227 2.032 . S
O232 C235 1.259 . S
O233 Mg224 2.114 . S
O233 C236 1.252 . S
O234 Mg224 2.251 . S
O234 Mg227 2.079 . S
O234 C236 1.273 . S
C235 O231 1.246 . S
C235 O232 1.259 . S
C236 O233 1.252 . S
C236 O234 1.273 . S
O237 Mg224 2.010 . S
O237 C229 1.249 . S
Mg238 O239 2.028 . S
Mg238 O245 1.986 . S
Mg238 O247 2.114 . S
Mg238 O248 2.251 . S
Mg238 O251 2.010 . S
O239 Mg238 2.028 . S
O239 C242 1.250 . S
O240 Mg241 2.028 . S
O240 C242 1.248 . S
Mg241 O240 2.028 . S
Mg241 O246 2.032 . S
Mg241 O248 2.079 . S
C242 O239 1.250 . S
C242 O240 1.248 . S
C243 O244 1.264 1_655 S
C243 O251 1.249 . S
O244 C243 1.264 1_455 S
O245 Mg238 1.986 . S
O245 C249 1.246 . S
O246 Mg241 2.032 . S
O246 C249 1.259 . S
O247 Mg238 2.114 . S
O247 C250 1.252 . S
O248 Mg238 2.251 . S
O248 Mg241 2.079 . S
O248 C250 1.273 . S
C249 O245 1.246 . S
C249 O246 1.259 . S
C250 O247 1.252 . S
C250 O248 1.273 . S
O251 Mg238 2.010 . S
O251 C243 1.249 . S
Mg252 O253 2.028 . S
Mg252 O259 1.986 . S
Mg252 O261 2.114 . S
Mg252 O262 2.251 . S
Mg252 O265 2.010 . S
O253 Mg252 2.028 . S
O253 C256 1.250 . S
O254 Mg255 2.028 . S
O254 C256 1.248 . S
Mg255 O254 2.028 . S
Mg255 O260 2.032 . S
Mg255 O262 2.079 . S
C256 O253 1.250 . S
C256 O254 1.248 . S
C257 O258 1.264 1_455 S
C257 O265 1.249 . S
O258 C257 1.264 1_655 S
O259 Mg252 1.986 . S
O259 C263 1.246 . S
O260 Mg255 2.032 . S
O260 C263 1.259 . S
O261 Mg252 2.114 . S
O261 C264 1.252 . S
O262 Mg252 2.251 . S
O262 Mg255 2.079 . S
O262 C264 1.273 . S
C263 O259 1.246 . S
C263 O260 1.259 . S
C264 O261 1.252 . S
C264 O262 1.273 . S
O265 Mg252 2.010 . S
O265 C257 1.249 . S
Mg266 O267 2.028 . S
Mg266 O273 1.986 . S
Mg266 O275 2.114 . S
Mg266 O276 2.251 . S
Mg266 O279 2.010 . S
O267 Mg266 2.028 . S
O267 C270 1.250 . S
O268 Mg269 2.028 . S
O268 C270 1.248 . S
Mg269 O268 2.028 . S
Mg269 O274 2.032 . S
Mg269 O276 2.079 . S
C270 O267 1.250 . S
C270 O268 1.248 . S
C271 O272 1.264 1_545 S
C271 O279 1.249 . S
O272 C271 1.264 1_565 S
O273 Mg266 1.986 . S
O273 C277 1.246 . S
O274 Mg269 2.032 . S
O274 C277 1.259 . S
O275 Mg266 2.114 . S
O275 C278 1.252 . S
O276 Mg266 2.251 . S
O276 Mg269 2.079 . S
O276 C278 1.273 . S
C277 O273 1.246 . S
C277 O274 1.259 . S
C278 O275 1.252 . S
C278 O276 1.273 . S
O279 Mg266 2.010 . S
O279 C271 1.249 . S
Mg280 O281 2.028 . S
Mg280 O287 1.986 . S
Mg280 O289 2.114 . S
Mg280 O290 2.251 . S
Mg280 O293 2.010 . S
O281 Mg280 2.028 . S
O281 C284 1.250 . S
O282 Mg283 2.028 . S
O282 C284 1.248 . S
Mg283 O282 2.028 . S
Mg283 O288 2.032 . S
Mg283 O290 2.079 . S
C284 O281 1.250 . S
C284 O282 1.248 . S
C285 O286 1.264 . S
C285 O293 1.249 . S
O286 C285 1.264 . S
O287 Mg280 1.986 . S
O287 C291 1.246 . S
O288 Mg283 2.032 . S
O288 C291 1.259 . S
O289 Mg280 2.114 . S
O289 C292 1.252 . S
O290 Mg280 2.251 . S
O290 Mg283 2.079 . S
O290 C292 1.273 . S
C291 O287 1.246 . S
C291 O288 1.259 . S
C292 O289 1.252 . S
C292 O290 1.273 . S
O293 Mg280 2.010 . S
O293 C285 1.249 . S
Mg294 O295 2.028 . S
Mg294 O301 1.986 . S
Mg294 O303 2.114 . S
Mg294 O304 2.251 . S
Mg294 O307 2.010 . S
O295 Mg294 2.028 . S
O295 C298 1.250 . S
O296 Mg297 2.028 . S
O296 C298 1.248 . S
Mg297 O296 2.028 . S
Mg297 O302 2.032 . S
Mg297 O304 2.079 . S
C298 O295 1.250 . S
C298 O296 1.248 . S
C299 O300 1.264 1_655 S
C299 O307 1.249 . S
O300 C299 1.264 1_455 S
O301 Mg294 1.986 . S
O301 C305 1.246 . S
O302 Mg297 2.032 . S
O302 C305 1.259 . S
O303 Mg294 2.114 . S
O303 C306 1.252 . S
O304 Mg294 2.251 . S
O304 Mg297 2.079 . S
O304 C306 1.273 . S
C305 O301 1.246 . S
C305 O302 1.259 . S
C306 O303 1.252 . S
C306 O304 1.273 . S
O307 Mg294 2.010 . S
O307 C299 1.249 . S
Mg308 O309 2.028 . S
Mg308 O315 1.986 . S
Mg308 O317 2.114 . S
Mg308 O318 2.251 . S
Mg308 O321 2.010 . S
O309 Mg308 2.028 . S
O309 C312 1.250 . S
O310 Mg311 2.028 . S
O310 C312 1.248 . S
Mg311 O310 2.028 . S
Mg311 O316 2.032 . S
Mg311 O318 2.079 . S
C312 O309 1.250 . S
C312 O310 1.248 . S
C313 O314 1.264 1_565 S
C313 O321 1.249 . S
O314 C313 1.264 1_545 S
O315 Mg308 1.986 . S
O315 C319 1.246 . S
O316 Mg311 2.032 . S
O316 C319 1.259 . S
O317 Mg308 2.114 . S
O317 C320 1.252 . S
O318 Mg308 2.251 . S
O318 Mg311 2.079 . S
O318 C320 1.273 . S
C319 O315 1.246 . S
C319 O316 1.259 . S
C320 O317 1.252 . S
C320 O318 1.273 . S
O321 Mg308 2.010 . S
O321 C313 1.249 . S
Mg322 O323 2.028 . S
Mg322 O329 1.986 . S
Mg322 O331 2.114 . S
Mg322 O332 2.251 . S
Mg322 O335 2.010 . S
O323 Mg322 2.028 . S
O323 C326 1.250 . S
O324 Mg325 2.028 . S
O324 C326 1.248 . S
Mg325 O324 2.028 . S
Mg325 O330 2.032 . S
Mg325 O332 2.079 . S
C326 O323 1.250 . S
C326 O324 1.248 . S
C327 O328 1.264 . S
C327 O335 1.249 . S
O328 C327 1.264 . S
O329 Mg322 1.986 . S
O329 C333 1.246 . S
O330 Mg325 2.032 . S
O330 C333 1.259 . S
O331 Mg322 2.114 . S
O331 C334 1.252 . S
O332 Mg322 2.251 . S
O332 Mg325 2.079 . S
O332 C334 1.273 . S
C333 O329 1.246 . S
C333 O330 1.259 . S
C334 O331 1.252 . S
C334 O332 1.273 . S
O335 Mg322 2.010 . S
O335 C327 1.249 . S
C12 C110 1.538 1_545 S
C124 C26 1.537 . S
C40 C138 1.538 1_655 S
C54 C152 1.538 1_565 S
C166 C68 1.538 . S
C82 C96 1.538 1_455 S
C173 C271 0.735 1_565 S
C187 C285 0.736 . S
C299 C201 0.735 1_655 S
C215 C313 0.735 1_545 S
C229 C327 0.735 . S
C257 C243 0.735 1_455 S
C5 C117 0.343 . S
C131 C19 0.343 . S
C145 C33 0.342 . S
C47 C159 0.342 . S
C61 C89 0.342 . S
C75 C103 0.342 . S
C292 C180 1.401 . S
C194 C306 1.401 . S
C320 C208 1.402 . S
C334 C222 1.402 . S
C264 C236 1.402 . S
C250 C278 1.402 . S
C11 C221 1.670 1_554 S
C235 C25 1.670 1_556 S
C249 C39 1.670 1_556 S
C53 C179 1.670 1_554 S
C67 C193 1.670 1_554 S
C207 C81 1.670 1_556 S
C305 C95 1.670 . S
C319 C109 1.670 . S
C333 C123 1.670 . S
C263 C137 1.670 . S
C151 C277 1.670 . S
C165 C291 1.670 . S
C4 C144 1.549 . S
C158 C18 1.549 . S
C88 C32 1.549 . S
C46 C102 1.549 . S
C60 C116 1.549 . S
C74 C130 1.549 . S
C172 C312 1.693 . S
C186 C326 1.693 . S
C200 C256 1.693 . S
C270 C214 1.693 . S
C228 C284 1.693 . S
C242 C298 1.693 . S
