# Generated by pormake.
# Topology uka, (4)-cn, num edge types: 1
# Building blocks:
#     Node 0, Type 0, BuildingBlock: AZAVOO_clean_sbu_0, # of connection points: 4
#     Node 1, Type 0, BuildingBlock: AZAVOO_clean_sbu_0, # of connection points: 4
#     Node 2, Type 0, BuildingBlock: AZAVOO_clean_sbu_0, # of connection points: 4
#     Node 3, Type 0, BuildingBlock: AZAVOO_clean_sbu_0, # of connection points: 4
#     Node 4, Type 0, BuildingBlock: AZAVOO_clean_sbu_0, # of connection points: 4
#     Node 5, Type 0, BuildingBlock: AZAVOO_clean_sbu_0, # of connection points: 4
#     Node 6, Type 0, BuildingBlock: AZAVOO_clean_sbu_0, # of connection points: 4
#     Node 7, Type 0, BuildingBlock: AZAVOO_clean_sbu_0, # of connection points: 4
#     Node 8, Type 0, BuildingBlock: AZAVOO_clean_sbu_0, # of connection points: 4
#     Node 9, Type 0, BuildingBlock: AZAVOO_clean_sbu_0, # of connection points: 4
#     Node 10, Type 0, BuildingBlock: AZAVOO_clean_sbu_0, # of connection points: 4
#     Node 11, Type 0, BuildingBlock: AZAVOO_clean_sbu_0, # of connection points: 4
#     Node 12, Type 0, BuildingBlock: AZAVOO_clean_sbu_0, # of connection points: 4
#     Node 13, Type 0, BuildingBlock: AZAVOO_clean_sbu_0, # of connection points: 4
#     Node 14, Type 0, BuildingBlock: AZAVOO_clean_sbu_0, # of connection points: 4
#     Node 15, Type 0, BuildingBlock: AZAVOO_clean_sbu_0, # of connection points: 4
#     Node 16, Type 0, BuildingBlock: AZAVOO_clean_sbu_0, # of connection points: 4
#     Node 17, Type 0, BuildingBlock: AZAVOO_clean_sbu_0, # of connection points: 4
#     Node 18, Type 0, BuildingBlock: AZAVOO_clean_sbu_0, # of connection points: 4
#     Node 19, Type 0, BuildingBlock: AZAVOO_clean_sbu_0, # of connection points: 4
#     Node 20, Type 0, BuildingBlock: AZAVOO_clean_sbu_0, # of connection points: 4
#     Node 21, Type 0, BuildingBlock: AZAVOO_clean_sbu_0, # of connection points: 4
#     Node 22, Type 0, BuildingBlock: AZAVOO_clean_sbu_0, # of connection points: 4
#     Node 23, Type 0, BuildingBlock: AZAVOO_clean_sbu_0, # of connection points: 4
#     Node 24, Type 0, BuildingBlock: AZAVOO_clean_sbu_0, # of connection points: 4
#     Node 25, Type 0, BuildingBlock: AZAVOO_clean_sbu_0, # of connection points: 4
#     Node 26, Type 0, BuildingBlock: AZAVOO_clean_sbu_0, # of connection points: 4
#     Node 27, Type 0, BuildingBlock: AZAVOO_clean_sbu_0, # of connection points: 4
#     Node 28, Type 0, BuildingBlock: AZAVOO_clean_sbu_0, # of connection points: 4
#     Node 29, Type 0, BuildingBlock: AZAVOO_clean_sbu_0, # of connection points: 4
#     Node 30, Type 0, BuildingBlock: AZAVOO_clean_sbu_0, # of connection points: 4
#     Node 31, Type 0, BuildingBlock: AZAVOO_clean_sbu_0, # of connection points: 4
#     Edge 32, Type (0, 0), BuildingBlock: AJUNOK_clean_linker_0, # of connection points: 2
#     Edge 33, Type (0, 0), BuildingBlock: AJUNOK_clean_linker_0, # of connection points: 2
#     Edge 34, Type (0, 0), BuildingBlock: AJUNOK_clean_linker_0, # of connection points: 2
#     Edge 35, Type (0, 0), BuildingBlock: AJUNOK_clean_linker_0, # of connection points: 2
#     Edge 36, Type (0, 0), BuildingBlock: AJUNOK_clean_linker_0, # of connection points: 2
#     Edge 37, Type (0, 0), BuildingBlock: AJUNOK_clean_linker_0, # of connection points: 2
#     Edge 38, Type (0, 0), BuildingBlock: AJUNOK_clean_linker_0, # of connection points: 2
#     Edge 39, Type (0, 0), BuildingBlock: AJUNOK_clean_linker_0, # of connection points: 2
#     Edge 40, Type (0, 0), BuildingBlock: AJUNOK_clean_linker_0, # of connection points: 2
#     Edge 41, Type (0, 0), BuildingBlock: AJUNOK_clean_linker_0, # of connection points: 2
#     Edge 42, Type (0, 0), BuildingBlock: AJUNOK_clean_linker_0, # of connection points: 2
#     Edge 43, Type (0, 0), BuildingBlock: AJUNOK_clean_linker_0, # of connection points: 2
#     Edge 44, Type (0, 0), BuildingBlock: AJUNOK_clean_linker_0, # of connection points: 2
#     Edge 45, Type (0, 0), BuildingBlock: AJUNOK_clean_linker_0, # of connection points: 2
#     Edge 46, Type (0, 0), BuildingBlock: AJUNOK_clean_linker_0, # of connection points: 2
#     Edge 47, Type (0, 0), BuildingBlock: AJUNOK_clean_linker_0, # of connection points: 2
#     Edge 48, Type (0, 0), BuildingBlock: AJUNOK_clean_linker_0, # of connection points: 2
#     Edge 49, Type (0, 0), BuildingBlock: AJUNOK_clean_linker_0, # of connection points: 2
#     Edge 50, Type (0, 0), BuildingBlock: AJUNOK_clean_linker_0, # of connection points: 2
#     Edge 51, Type (0, 0), BuildingBlock: AJUNOK_clean_linker_0, # of connection points: 2
#     Edge 52, Type (0, 0), BuildingBlock: AJUNOK_clean_linker_0, # of connection points: 2
#     Edge 53, Type (0, 0), BuildingBlock: AJUNOK_clean_linker_0, # of connection points: 2
#     Edge 54, Type (0, 0), BuildingBlock: AJUNOK_clean_linker_0, # of connection points: 2
#     Edge 55, Type (0, 0), BuildingBlock: AJUNOK_clean_linker_0, # of connection points: 2
#     Edge 56, Type (0, 0), BuildingBlock: AJUNOK_clean_linker_0, # of connection points: 2
#     Edge 57, Type (0, 0), BuildingBlock: AJUNOK_clean_linker_0, # of connection points: 2
#     Edge 58, Type (0, 0), BuildingBlock: AJUNOK_clean_linker_0, # of connection points: 2
#     Edge 59, Type (0, 0), BuildingBlock: AJUNOK_clean_linker_0, # of connection points: 2
#     Edge 60, Type (0, 0), BuildingBlock: AJUNOK_clean_linker_0, # of connection points: 2
#     Edge 61, Type (0, 0), BuildingBlock: AJUNOK_clean_linker_0, # of connection points: 2
#     Edge 62, Type (0, 0), BuildingBlock: AJUNOK_clean_linker_0, # of connection points: 2
#     Edge 63, Type (0, 0), BuildingBlock: AJUNOK_clean_linker_0, # of connection points: 2
#     Edge 64, Type (0, 0), BuildingBlock: AJUNOK_clean_linker_0, # of connection points: 2
#     Edge 65, Type (0, 0), BuildingBlock: AJUNOK_clean_linker_0, # of connection points: 2
#     Edge 66, Type (0, 0), BuildingBlock: AJUNOK_clean_linker_0, # of connection points: 2
#     Edge 67, Type (0, 0), BuildingBlock: AJUNOK_clean_linker_0, # of connection points: 2
#     Edge 68, Type (0, 0), BuildingBlock: AJUNOK_clean_linker_0, # of connection points: 2
#     Edge 69, Type (0, 0), BuildingBlock: AJUNOK_clean_linker_0, # of connection points: 2
#     Edge 70, Type (0, 0), BuildingBlock: AJUNOK_clean_linker_0, # of connection points: 2
#     Edge 71, Type (0, 0), BuildingBlock: AJUNOK_clean_linker_0, # of connection points: 2
#     Edge 72, Type (0, 0), BuildingBlock: AJUNOK_clean_linker_0, # of connection points: 2
#     Edge 73, Type (0, 0), BuildingBlock: AJUNOK_clean_linker_0, # of connection points: 2
#     Edge 74, Type (0, 0), BuildingBlock: AJUNOK_clean_linker_0, # of connection points: 2
#     Edge 75, Type (0, 0), BuildingBlock: AJUNOK_clean_linker_0, # of connection points: 2
#     Edge 76, Type (0, 0), BuildingBlock: AJUNOK_clean_linker_0, # of connection points: 2
#     Edge 77, Type (0, 0), BuildingBlock: AJUNOK_clean_linker_0, # of connection points: 2
#     Edge 78, Type (0, 0), BuildingBlock: AJUNOK_clean_linker_0, # of connection points: 2
#     Edge 79, Type (0, 0), BuildingBlock: AJUNOK_clean_linker_0, # of connection points: 2
#     Edge 80, Type (0, 0), BuildingBlock: AJUNOK_clean_linker_0, # of connection points: 2
#     Edge 81, Type (0, 0), BuildingBlock: AJUNOK_clean_linker_0, # of connection points: 2
#     Edge 82, Type (0, 0), BuildingBlock: AJUNOK_clean_linker_0, # of connection points: 2
#     Edge 83, Type (0, 0), BuildingBlock: AJUNOK_clean_linker_0, # of connection points: 2
#     Edge 84, Type (0, 0), BuildingBlock: AJUNOK_clean_linker_0, # of connection points: 2
#     Edge 85, Type (0, 0), BuildingBlock: AJUNOK_clean_linker_0, # of connection points: 2
#     Edge 86, Type (0, 0), BuildingBlock: AJUNOK_clean_linker_0, # of connection points: 2
#     Edge 87, Type (0, 0), BuildingBlock: AJUNOK_clean_linker_0, # of connection points: 2
#     Edge 88, Type (0, 0), BuildingBlock: AJUNOK_clean_linker_0, # of connection points: 2
#     Edge 89, Type (0, 0), BuildingBlock: AJUNOK_clean_linker_0, # of connection points: 2
#     Edge 90, Type (0, 0), BuildingBlock: AJUNOK_clean_linker_0, # of connection points: 2
#     Edge 91, Type (0, 0), BuildingBlock: AJUNOK_clean_linker_0, # of connection points: 2
#     Edge 92, Type (0, 0), BuildingBlock: AJUNOK_clean_linker_0, # of connection points: 2
#     Edge 93, Type (0, 0), BuildingBlock: AJUNOK_clean_linker_0, # of connection points: 2
#     Edge 94, Type (0, 0), BuildingBlock: AJUNOK_clean_linker_0, # of connection points: 2
#     Edge 95, Type (0, 0), BuildingBlock: AJUNOK_clean_linker_0, # of connection points: 2
# Relax obj value: 0.265
# Max RMSD: 0.265
# Mean RMSD: 0.247
data_MOF--net-uka--node1-AZAVOO_clean_sbu_0--edge1-AJUNOK_clean_linker_0
_symmetry_space_group_name_H-M    P1
_symmetry_Int_Tables_number       1
_symmetry_cell_setting            triclinic
loop_
_symmetry_equiv_pos_as_xyz
'x, y, z'
_cell_length_a     46.305157
_cell_length_b     44.265374
_cell_length_c     32.260936
_cell_angle_alpha  90.569
_cell_angle_beta   89.790077
_cell_angle_gamma 89.964093
loop_
_atom_site_label
_atom_site_type_symbol
_atom_site_fract_x
_atom_site_fract_y
_atom_site_fract_z
_atom_type_partial_charge
Mg0 Mg 0.10497 0.25121 0.24159 0.0
O1 O 0.09009 0.20359 0.26334 0.0
O2 O 0.04232 0.2078 0.27345 0.0
Mg3 Mg 0.02724 0.25634 0.26446 0.0
C4 C 0.06559 0.19235 0.27333 0.0
C5 C 0.16694 0.22449 0.24565 0.0
O6 O 0.15805 0.22088 0.28399 0.0
O7 O 0.08342 0.24777 0.17681 0.0
O8 O 0.03731 0.25489 0.19529 0.0
O9 O 0.11328 0.26411 0.30803 0.0
O10 O 0.0717 0.27039 0.27573 0.0
C11 C 0.05678 0.25162 0.16752 0.0
C12 C 0.08639 0.27191 0.30931 0.0
O13 O 0.14894 0.23395 0.21899 0.0
Mg14 Mg -0.00718 0.82878 0.50729 0.0
O15 O 0.96201 0.82598 0.56293 0.0
O16 O -0.01727 0.84976 0.6167 0.0
Mg17 Mg 0.02851 0.86388 0.59742 0.0
C18 C 0.96165 0.83541 0.60046 0.0
C19 C 0.94763 0.78774 0.46219 0.0
O20 O 0.95857 0.76884 0.48905 0.0
O21 O -0.01422 0.87963 0.49969 0.0
O22 O 0.01187 0.8991 0.55168 0.0
O23 O 0.01197 0.7848 0.52411 0.0
O24 O 0.02757 0.82872 0.54856 0.0
C25 C -0.00309 0.90223 0.51883 0.0
C26 C 0.02886 0.79965 0.54876 0.0
O27 O 0.95631 0.8151 0.46249 0.0
Mg28 Mg 0.35841 0.69462 0.7486 0.0
O29 O 0.38051 0.74073 0.76437 0.0
O30 O 0.42615 0.72852 0.78032 0.0
Mg31 Mg 0.43302 0.67764 0.78052 0.0
C32 C 0.40616 0.74802 0.77555 0.0
C33 C 0.2992 0.72715 0.74398 0.0
O34 O 0.30666 0.73256 0.78259 0.0
O35 O 0.3826 0.68708 0.68565 0.0
O36 O 0.42488 0.67196 0.71154 0.0
O37 O 0.34574 0.69098 0.81585 0.0
O38 O 0.38663 0.67398 0.78891 0.0
C39 C 0.40786 0.67562 0.68103 0.0
C40 C 0.37092 0.67909 0.82096 0.0
O41 O 0.31788 0.71541 0.71957 0.0
Mg42 Mg 0.46271 0.11788 -0.00447 0.0
O43 O 0.49133 0.11838 0.05341 0.0
O44 O 0.4653 0.10258 0.10732 0.0
Mg45 Mg 0.42022 0.09003 0.08357 0.0
C46 C 0.48883 0.11262 0.09197 0.0
C47 C 0.51503 0.15317 0.95824 0.0
O48 O 0.50781 0.171 -0.01062 0.0
O49 O 0.46615 0.06626 -0.01058 0.0
O50 O 0.4382 0.05176 0.04223 0.0
O51 O 0.44799 0.16387 0.01267 0.0
O52 O 0.42588 0.12204 0.03272 0.0
C53 C 0.45387 0.04554 0.0106 0.0
C54 C 0.42831 0.15094 0.03479 0.0
O55 O 0.50198 0.12793 0.95409 0.0
Mg56 Mg 0.10317 0.69168 0.21356 0.0
O57 O 0.08948 0.73931 0.19006 0.0
O58 O 0.04218 0.73516 0.17628 0.0
Mg59 Mg 0.02587 0.68746 0.18792 0.0
C60 C 0.06552 0.75044 0.17759 0.0
C61 C 0.16539 0.71776 0.21181 0.0
O62 O 0.15732 0.72183 0.17326 0.0
O63 O 0.0803 0.69667 0.27709 0.0
O64 O 0.03428 0.69098 0.25752 0.0
O65 O 0.11285 0.67789 0.14785 0.0
O66 O 0.0704 0.67279 0.17867 0.0
C67 C 0.05339 0.69412 0.28564 0.0
C68 C 0.08581 0.67085 0.14561 0.0
O69 O 0.14677 0.7083 0.23772 0.0
Mg70 Mg 0.46178 0.82932 0.45629 0.0
O71 O 0.49403 0.83201 0.40124 0.0
O72 O 0.4681 0.84824 0.34764 0.0
Mg73 Mg 0.42117 0.85641 0.36629 0.0
C74 C 0.49197 0.83939 0.36306 0.0
C75 C 0.49256 0.79633 0.52448 0.0
O76 O 0.46804 0.78239 0.51734 0.0
O77 O 0.46159 0.88111 0.46427 0.0
O78 O 0.43458 0.89491 0.41036 0.0
O79 O 0.45067 0.78266 0.43716 0.0
O80 O 0.42733 0.82256 0.41459 0.0
C81 C 0.44875 0.90144 0.44311 0.0
C82 C 0.43104 0.7937 0.41338 0.0
O83 O 0.49798 0.82019 0.50392 0.0
Mg84 Mg 0.35012 0.25117 0.73788 0.0
O85 O 0.36799 0.20601 0.70732 0.0
O86 O 0.41347 0.21613 0.68655 0.0
Mg87 Mg 0.42836 0.25324 0.73028 0.0
C88 C 0.39072 0.19979 0.6858 0.0
C89 C 0.28838 0.22694 0.71783 0.0
O90 O 0.29871 0.22966 0.68007 0.0
O91 O 0.36495 0.24407 0.80595 0.0
O92 O 0.40313 0.22608 0.77642 0.0
O93 O 0.34941 0.26961 0.67352 0.0
O94 O 0.38642 0.27474 0.7161 0.0
C95 C 0.39168 0.23788 0.80835 0.0
C96 C 0.3756 0.27866 0.67991 0.0
O97 O 0.30526 0.23137 0.7483 0.0
Mg98 Mg -0.00909 0.11515 0.95282 0.0
O99 O 0.96464 0.11644 0.89199 0.0
O100 O -0.00597 0.09913 0.84199 0.0
Mg101 Mg 0.03809 0.08702 0.8687 0.0
C102 C 0.96975 0.10987 0.8539 0.0
C103 C 0.93943 0.15168 -0.00748 0.0
O104 O 0.94834 0.1706 0.96412 0.0
O105 O -0.01257 0.06335 0.9562 0.0
O106 O 0.01892 0.04867 0.90724 0.0
O107 O 0.00724 0.16123 0.94123 0.0
O108 O 0.02905 0.11992 0.91834 0.0
C109 C 0.00133 0.0426 0.93654 0.0
C110 C 0.02762 0.14898 0.91936 0.0
O111 O 0.95074 0.12533 -0.00658 0.0
Mg112 Mg 0.85134 0.74771 0.75562 0.0
O113 O 0.86276 0.71945 0.69752 0.0
O114 O 0.85073 0.74664 0.64219 0.0
Mg115 Mg 0.82852 0.78967 0.6638 0.0
C116 C 0.86188 0.72315 0.65827 0.0
C117 C 0.87997 0.71459 0.82504 0.0
O118 O 0.88691 0.74323 0.82926 0.0
O119 O 0.80356 0.73527 0.74909 0.0
O120 O 0.79188 0.76163 0.69293 0.0
O121 O 0.89443 0.76837 0.74935 0.0
O122 O 0.85552 0.78717 0.71949 0.0
C123 C 0.78518 0.74347 0.72196 0.0
C124 C 0.88331 0.78644 0.72256 0.0
O125 O 0.8618 0.70727 0.79723 0.0
Mg126 Mg -0.01367 0.09622 0.46293 0.0
O127 O 0.01897 0.10532 0.4096 0.0
O128 O 0.00314 0.07978 0.35423 0.0
Mg129 Mg 0.95922 0.05823 0.3694 0.0
C130 C 0.02132 0.09756 0.37135 0.0
C131 C 0.00459 0.12671 0.5424 0.0
O132 O 0.97625 0.12538 0.54279 0.0
O133 O -8e-05 0.04637 0.47084 0.0
O134 O 0.97845 0.02588 0.41563 0.0
O135 O 0.96223 0.13803 0.44507 0.0
O136 O 0.95366 0.09276 0.41846 0.0
C137 C -0.0076 0.02324 0.44932 0.0
C138 C 0.9487 0.12142 0.4183 0.0
O139 O 0.01783 0.1141 0.51223 0.0
Mg140 Mg 0.60279 0.20446 0.24299 0.0
O141 O 0.59153 0.23538 0.18794 0.0
O142 O 0.6089 0.21158 0.13122 0.0
Mg143 Mg 0.63253 0.16864 0.14921 0.0
C144 C 0.59526 0.23334 0.14865 0.0
C145 C 0.57947 0.22842 0.32438 0.0
O146 O 0.57812 0.19879 0.32549 0.0
O147 O 0.6502 0.22007 0.24176 0.0
O148 O 0.66617 0.19616 0.18513 0.0
O149 O 0.56118 0.18066 0.2335 0.0
O150 O 0.60108 0.1673 0.20071 0.0
C151 C 0.67053 0.21338 0.21642 0.0
C152 C 0.57339 0.1645 0.20482 0.0
O153 O 0.5901 0.24044 0.29202 0.0
Mg154 Mg 0.47584 0.8488 0.97609 0.0
O155 O 0.45133 0.8368 0.91552 0.0
O156 O 0.47579 0.85703 0.86294 0.0
Mg157 Mg 0.51452 0.88313 0.889 0.0
C158 C 0.45485 0.84122 0.87668 0.0
C159 C 0.44928 0.81176 0.04204 0.0
O160 O 0.47747 0.81047 0.04606 0.0
O161 O 0.45975 0.89783 0.97695 0.0
O162 O 0.48687 0.91693 0.92612 0.0
O163 O 0.50315 0.80798 0.96577 0.0
O164 O 0.51443 0.85335 0.94303 0.0
C165 C 0.46871 0.92029 0.95573 0.0
C166 C 0.52021 0.82497 0.94441 0.0
O167 O 0.43884 0.82965 0.01533 0.0
Mg168 Mg 0.85584 0.19639 0.70279 0.0
O169 O 0.86539 0.22469 0.76137 0.0
O170 O 0.85055 0.19764 0.81561 0.0
Mg171 Mg 0.83087 0.15356 0.79271 0.0
C172 C 0.86231 0.22119 0.80045 0.0
C173 C 0.88023 0.22958 0.62953 0.0
O174 O 0.88657 0.2009 0.62366 0.0
O175 O 0.80807 0.20816 0.70767 0.0
O176 O 0.79446 0.18034 0.76153 0.0
O177 O 0.89902 0.17557 0.70852 0.0
O178 O 0.86014 0.15734 0.73917 0.0
C179 C 0.78865 0.19885 0.73259 0.0
C180 C 0.8879 0.157 0.73482 0.0
O181 O 0.86512 0.23682 0.66106 0.0
Mg182 Mg 0.46573 0.09817 0.48818 0.0
O183 O 0.43296 0.1117 0.53936 0.0
O184 O 0.44394 0.08622 0.59647 0.0
Mg185 Mg 0.48703 0.0616 0.58498 0.0
C186 C 0.42821 0.10518 0.57734 0.0
C187 C 0.45004 0.13658 0.41534 0.0
O188 O 0.47823 0.13797 0.41943 0.0
O189 O 0.44877 0.04912 0.4813 0.0
O190 O 0.46737 0.02889 0.53838 0.0
O191 O 0.4925 0.13826 0.50632 0.0
O192 O 0.49694 0.09318 0.5344 0.0
C193 C 0.45437 0.02614 0.50378 0.0
C194 C 0.50412 0.12129 0.534 0.0
O195 O 0.43622 0.11831 0.43829 0.0
Mg196 Mg 0.60743 0.75354 0.21478 0.0
O197 O 0.59429 0.72474 0.27064 0.0
O198 O 0.61056 0.74703 0.32838 0.0
Mg199 Mg 0.63451 0.78976 0.30996 0.0
C200 C 0.59688 0.72579 0.31002 0.0
C201 C 0.56833 0.70562 0.17684 0.0
O202 O 0.55331 0.71802 0.20713 0.0
O203 O 0.65386 0.73657 0.21962 0.0
O204 O 0.66924 0.76103 0.27615 0.0
O205 O 0.56682 0.7794 0.22097 0.0
O206 O 0.60653 0.79159 0.25492 0.0
C207 C 0.67379 0.74315 0.24543 0.0
C208 C 0.57916 0.79553 0.24939 0.0
O209 O 0.59395 0.71502 0.17057 0.0
Mg210 Mg -0.01173 0.84607 -0.01183 0.0
O211 O 0.02062 0.83767 0.04148 0.0
O212 O 0.00632 0.86451 0.09664 0.0
Mg213 Mg 0.96261 0.88654 0.08149 0.0
C214 C 0.02378 0.84594 0.07932 0.0
C215 C 0.02792 0.79846 0.94893 0.0
O216 O 0.01893 0.78701 -0.01593 0.0
O217 O 0.00267 0.89574 0.97799 0.0
O218 O -0.01807 0.91728 0.03331 0.0
O219 O 0.96289 0.80556 0.00859 0.0
O220 O 0.95569 0.85159 0.03333 0.0
C221 C -0.00455 0.9193 -0.00099 0.0
C222 C 0.94998 0.82315 0.03491 0.0
O223 O 0.02027 0.82536 0.94042 0.0
Mg224 Mg 0.60263 0.75542 0.74428 0.0
O225 O 0.57855 0.7124 0.76773 0.0
O226 O 0.53334 0.72778 0.78174 0.0
Mg227 Mg 0.52851 0.77833 0.77063 0.0
C228 C 0.5527 0.70726 0.78015 0.0
C229 C 0.66262 0.7257 0.74706 0.0
O230 O 0.64306 0.7278 0.71801 0.0
O231 O 0.57926 0.75567 0.68095 0.0
O232 O 0.53553 0.77222 0.70091 0.0
O233 O 0.61471 0.76535 0.81002 0.0
O234 O 0.5751 0.78195 0.77928 0.0
C235 C 0.55351 0.76428 0.67279 0.0
C236 C 0.59017 0.77924 0.81235 0.0
O237 O 0.64289 0.72831 0.71979 0.0
Mg238 Mg 0.49317 0.33777 -0.00542 0.0
O239 O 0.46317 0.33726 0.05253 0.0
O240 O 0.48959 0.35622 0.10433 0.0
Mg241 Mg 0.53441 0.36945 0.0819 0.0
C242 C 0.46616 0.34475 0.09075 0.0
C243 C 0.46592 0.30508 0.92402 0.0
O244 O 0.49382 0.29979 0.92443 0.0
O245 O 0.48767 0.38935 -0.01298 0.0
O246 O 0.51562 0.40517 0.03905 0.0
O247 O 0.50986 0.29261 0.01205 0.0
O248 O 0.5299 0.33509 0.03315 0.0
C249 C 0.4998 0.41068 0.00772 0.0
C250 C 0.52891 0.30606 0.03484 0.0
O251 O 0.456 0.32396 0.95058 0.0
Mg252 Mg 0.85416 0.20214 0.2314 0.0
O253 O 0.87643 0.24695 0.25206 0.0
O254 O 0.92376 0.23642 0.2523 0.0
Mg255 Mg 0.93225 0.18672 0.23718 0.0
C256 C 0.90276 0.2547 0.25806 0.0
C257 C 0.79274 0.22945 0.24809 0.0
O258 O 0.80185 0.226 0.28625 0.0
O259 O 0.86959 0.20354 0.16241 0.0
O260 O 0.9154 0.18875 0.17135 0.0
O261 O 0.8522 0.18832 0.29907 0.0
O262 O 0.8878 0.17802 0.25591 0.0
C263 C 0.89414 0.19494 0.14795 0.0
C264 C 0.87727 0.17626 0.29248 0.0
O265 O 0.8104 0.22452 0.21839 0.0
Mg266 Mg 0.967 0.6203 0.50227 0.0
O267 O -0.00151 0.61836 0.55805 0.0
O268 O 0.97372 0.59604 0.60883 0.0
Mg269 Mg 0.9278 0.58451 0.58814 0.0
C270 C -0.00337 0.60867 0.59528 0.0
C271 C -0.0039 0.65798 0.43643 0.0
O272 O 0.97107 0.6707 0.44469 0.0
O273 O 0.97158 0.56925 0.48916 0.0
O274 O 0.94446 0.55028 0.54001 0.0
O275 O 0.95064 0.6649 0.52469 0.0
O276 O 0.93205 0.62128 0.54383 0.0
C277 C 0.95957 0.54681 0.50711 0.0
C278 C 0.93255 0.65025 0.54745 0.0
O279 O 0.00282 0.63417 0.45615 0.0
Mg280 Mg 0.60308 0.19497 0.7237 0.0
O281 O 0.58899 0.24237 0.70155 0.0
O282 O 0.54066 0.24145 0.7015 0.0
Mg283 Mg 0.52395 0.19448 0.71774 0.0
C284 C 0.56457 0.25503 0.69542 0.0
C285 C 0.66594 0.21797 0.70795 0.0
O286 O 0.65572 0.21969 0.67011 0.0
O287 O 0.58851 0.20108 0.79202 0.0
O288 O 0.54097 0.1946 0.78378 0.0
O289 O 0.60341 0.17933 0.65682 0.0
O290 O 0.5661 0.17649 0.69911 0.0
C291 C 0.56309 0.19745 0.80687 0.0
C292 C 0.57667 0.17202 0.66284 0.0
O293 O 0.64889 0.21067 0.73714 0.0
Mg294 Mg 0.95504 0.32616 0.96677 0.0
O295 O -0.01082 0.32324 0.9146 0.0
O296 O 0.97094 0.34752 0.85988 0.0
Mg297 Mg 0.92447 0.36198 0.87429 0.0
C298 C -0.00877 0.33302 0.8775 0.0
C299 C 0.01265 0.30162 0.01559 0.0
O300 O 0.02773 0.30579 -0.0184 0.0
O301 O 0.96303 0.37702 0.97733 0.0
O302 O 0.94017 0.39613 0.92269 0.0
O303 O 0.93698 0.28232 0.9461 0.0
O304 O 0.92316 0.32624 0.92086 0.0
C305 C 0.95355 0.3996 0.95692 0.0
C306 C 0.92188 0.29717 0.91955 0.0
O307 O -0.01367 0.31001 0.01737 0.0
Mg308 Mg 0.85724 0.74595 0.22684 0.0
O309 O 0.87852 0.70084 0.20423 0.0
O310 O 0.92596 0.71093 0.20233 0.0
Mg311 Mg 0.93535 0.75997 0.21885 0.0
C312 C 0.90474 0.69289 0.19731 0.0
C313 C 0.79518 0.7203 0.21299 0.0
O314 O 0.80382 0.72319 0.17441 0.0
O315 O 0.87366 0.74252 0.29443 0.0
O316 O 0.92027 0.7545 0.28553 0.0
O317 O 0.8542 0.76048 0.15995 0.0
O318 O 0.89082 0.76975 0.20154 0.0
C319 C 0.89885 0.74822 0.3088 0.0
C320 C 0.87965 0.77186 0.16543 0.0
O321 O 0.81341 0.72464 0.24187 0.0
Mg322 Mg 0.4934 0.6148 0.45373 0.0
O323 O 0.46287 0.61623 0.39762 0.0
O324 O 0.48677 0.59549 0.34392 0.0
Mg325 Mg 0.53248 0.58265 0.36429 0.0
C326 C 0.46425 0.60772 0.35969 0.0
C327 C 0.46152 0.62064 0.53671 0.0
O328 O 0.48534 0.60599 0.54575 0.0
O329 O 0.48845 0.56338 0.46041 0.0
O330 O 0.51572 0.54612 0.40805 0.0
O331 O 0.50982 0.66016 0.43788 0.0
O332 O 0.52858 0.6177 0.41293 0.0
C333 C 0.5003 0.54157 0.44024 0.0
C334 C 0.52791 0.64684 0.41312 0.0
O335 O 0.45658 0.6267 0.49902 0.0
Mg336 Mg 0.35562 0.25511 0.24446 0.0
O337 O 0.36869 0.22557 0.18889 0.0
O338 O 0.35111 0.24684 0.13141 0.0
Mg339 Mg 0.32828 0.29056 0.14955 0.0
C340 C 0.36514 0.22606 0.14966 0.0
C341 C 0.38919 0.22462 0.31369 0.0
O342 O 0.39755 0.25296 0.31447 0.0
O343 O 0.30868 0.23874 0.23995 0.0
O344 O 0.29368 0.26314 0.18383 0.0
O345 O 0.39665 0.28012 0.23671 0.0
O346 O 0.35661 0.29256 0.20413 0.0
C347 C 0.28882 0.24561 0.21428 0.0
C348 C 0.3841 0.29609 0.20872 0.0
O349 O 0.36901 0.21709 0.28896 0.0
Mg350 Mg 0.48052 0.60767 -0.01837 0.0
O351 O 0.50512 0.62027 0.92121 0.0
O352 O 0.47904 0.60165 0.8689 0.0
Mg353 Mg 0.43933 0.57701 0.89454 0.0
C354 C 0.50071 0.61661 0.88229 0.0
C355 C 0.50751 0.6287 0.0587 0.0
O356 O 0.47988 0.62357 0.0649 0.0
O357 O 0.49417 0.55808 0.9781 0.0
O358 O 0.46562 0.54033 0.92783 0.0
O359 O 0.45556 0.65023 0.97599 0.0
O360 O 0.44175 0.6061 0.94996 0.0
C361 C 0.48414 0.53611 0.95648 0.0
C362 C 0.43754 0.63473 0.95379 0.0
O363 O 0.5179 0.62243 0.02309 0.0
Mg364 Mg 0.11158 0.69562 0.74643 0.0
O365 O 0.09774 0.72592 0.69256 0.0
O366 O 0.11282 0.70302 0.63427 0.0
Mg367 Mg 0.13637 0.65957 0.64952 0.0
C368 C 0.0998 0.72463 0.65303 0.0
C369 C 0.08664 0.72182 0.82585 0.0
O370 O 0.08294 0.69243 0.82729 0.0
O371 O 0.15859 0.71158 0.73963 0.0
O372 O 0.17202 0.68729 0.68178 0.0
O373 O 0.07 0.67124 0.74067 0.0
O374 O 0.10896 0.6583 0.70515 0.0
C375 C 0.17768 0.7049 0.71227 0.0
C376 C 0.08155 0.65516 0.71134 0.0
O377 O 0.09989 0.73254 0.79462 0.0
Mg378 Mg 0.97237 0.35132 0.46672 0.0
O379 O 0.94793 0.34007 0.4056 0.0
O380 O 0.97494 0.35804 0.354 0.0
Mg381 Mg 0.01496 0.38153 0.38056 0.0
C382 C 0.95272 0.34378 0.36686 0.0
C383 C 0.94383 0.31789 0.5337 0.0
O384 O 0.97195 0.31505 0.53722 0.0
O385 O 0.95971 0.40148 0.46582 0.0
O386 O -0.01086 0.41794 0.4159 0.0
O387 O -0.00354 0.30829 0.45839 0.0
O388 O 0.01165 0.3521 0.4346 0.0
C389 C 0.97059 0.42298 0.44454 0.0
C390 C 0.01486 0.32327 0.43653 0.0
O391 O 0.93401 0.33552 0.50618 0.0
Mg392 Mg 0.35363 0.69355 0.20525 0.0
O393 O 0.36577 0.72093 0.26403 0.0
O394 O 0.35382 0.69191 0.31802 0.0
Mg395 Mg 0.33074 0.64986 0.29553 0.0
C396 C 0.36525 0.71564 0.30296 0.0
C397 C 0.37943 0.72553 0.13354 0.0
O398 O 0.3832 0.6964 0.12746 0.0
O399 O 0.30621 0.70632 0.21308 0.0
O400 O 0.29403 0.6787 0.26789 0.0
O401 O 0.39655 0.67272 0.20909 0.0
O402 O 0.35811 0.65362 0.24018 0.0
C403 C 0.28759 0.69759 0.23968 0.0
C404 C 0.38591 0.65481 0.23658 0.0
O405 O 0.36396 0.73406 0.16413 0.0
Mg406 Mg 0.97256 0.59559 -0.01191 0.0
O407 O 0.94941 0.6077 0.05027 0.0
O408 O 0.97721 0.58931 0.10038 0.0
Mg409 Mg 0.01638 0.56507 0.07231 0.0
C410 C 0.95494 0.60391 0.08876 0.0
C411 C 0.94483 0.62538 0.91834 0.0
O412 O 0.97268 0.62257 0.91135 0.0
O413 O 0.95877 0.54583 -0.0092 0.0
O414 O -0.01127 0.52915 0.03972 0.0
O415 O -0.00222 0.6381 -0.00547 0.0
O416 O 0.01239 0.5939 0.01787 0.0
C417 C 0.96938 0.52436 0.01234 0.0
C418 C 0.01633 0.62257 0.01529 0.0
O419 O 0.93419 0.61225 0.94982 0.0
Mg420 Mg 0.09827 0.24836 0.71284 0.0
O421 O 0.09139 0.22133 0.77291 0.0
O422 O 0.10506 0.25114 0.82581 0.0
Mg423 Mg 0.12504 0.29376 0.80072 0.0
C424 C 0.09401 0.22673 0.8118 0.0
C425 C 0.0651 0.21163 0.64969 0.0
O426 O 0.054 0.23892 0.64926 0.0
O427 O 0.14653 0.23719 0.71398 0.0
O428 O 0.16 0.26467 0.76905 0.0
O429 O 0.05502 0.2676 0.72437 0.0
O430 O 0.09482 0.28847 0.74909 0.0
C431 C 0.16571 0.24594 0.73979 0.0
C432 C 0.06701 0.28635 0.74989 0.0
O433 O 0.08694 0.20669 0.67251 0.0
Mg434 Mg 0.48585 0.34706 0.50038 0.0
O435 O 0.51886 0.33828 0.55286 0.0
O436 O 0.50568 0.36646 0.60745 0.0
Mg437 Mg 0.46175 0.3883 0.59377 0.0
C438 C 0.52263 0.34727 0.5903 0.0
C439 C 0.52425 0.29957 0.45674 0.0
O440 O 0.51563 0.28651 0.491 0.0
O441 O 0.50048 0.39634 0.48973 0.0
O442 O 0.48043 0.4192 0.54466 0.0
O443 O 0.46035 0.30691 0.52175 0.0
O444 O 0.45415 0.35322 0.54621 0.0
C445 C 0.49366 0.42036 0.50999 0.0
C446 C 0.44803 0.32492 0.54818 0.0
O447 O 0.51675 0.32688 0.4509 0.0
C448 C 0.05869 0.13809 0.36102 0.0
C449 C 0.04102 0.11528 0.34381 0.0
C450 C 0.06999 0.16134 0.33642 0.0
C451 C 0.06398 0.16275 0.2938 0.0
H452 H 0.06189 0.1395 0.39422 0.0
H453 H 0.08118 0.17986 0.3516 0.0
S454 S 0.02426 0.10591 0.2316 0.0
N455 N 0.02269 0.09308 0.27945 0.0
N456 N 0.04287 0.13767 0.23428 0.0
C457 C 0.04898 0.13872 0.27544 0.0
C458 C 0.03791 0.11467 0.30015 0.0
C459 C 0.06589 0.76041 0.55892 0.0
C460 C 0.0486 0.78333 0.57604 0.0
C461 C 0.08349 0.74271 0.58398 0.0
C462 C 0.08402 0.74682 0.62738 0.0
H463 H 0.06558 0.75589 0.52584 0.0
H464 H 0.09602 0.72499 0.56908 0.0
S465 S 0.04201 0.80417 0.68713 0.0
N466 N 0.03283 0.80969 0.63839 0.0
N467 N 0.0657 0.77627 0.68614 0.0
C468 C 0.06711 0.77026 0.64479 0.0
C469 C 0.0494 0.78854 0.61895 0.0
C470 C 0.44925 0.81624 0.80705 0.0
C471 C 0.43737 0.82335 0.84633 0.0
C472 C 0.43709 0.79376 0.78154 0.0
C473 C 0.41205 0.77821 0.79358 0.0
H474 H 0.46946 0.82626 0.79726 0.0
H475 H 0.44851 0.78702 0.75356 0.0
S476 S 0.37019 0.79084 0.89036 0.0
N477 N 0.39739 0.81485 0.89393 0.0
N478 N 0.37425 0.77323 0.84534 0.0
C479 C 0.39844 0.78697 0.83082 0.0
C480 C 0.41116 0.80938 0.85735 0.0
C481 C 0.36679 0.19033 0.0897 0.0
C482 C 0.38071 0.20406 0.12364 0.0
C483 C 0.38225 0.17219 0.06154 0.0
C484 C 0.41213 0.16824 0.06586 0.0
H485 H 0.34394 0.19397 0.08466 0.0
H486 H 0.37099 0.16203 0.03552 0.0
S487 S 0.45859 0.19917 0.14919 0.0
N488 N 0.42588 0.21183 0.16053 0.0
N489 N 0.45508 0.17872 0.1064 0.0
C490 C 0.42624 0.18153 0.09975 0.0
C491 C 0.41044 0.19924 0.12904 0.0
C492 C 0.06994 0.7802 0.11346 0.0
C493 C 0.06489 0.77979 0.15643 0.0
C494 C 0.05943 0.80378 0.08888 0.0
C495 C 0.0433 0.8278 0.10638 0.0
H496 H 0.07974 0.7608 0.0982 0.0
H497 H 0.06185 0.8017 0.05556 0.0
S498 S 0.02951 0.83972 0.21911 0.0
N499 N 0.04646 0.80693 0.21637 0.0
N500 N 0.02751 0.85193 0.17099 0.0
C501 C 0.04118 0.82922 0.15014 0.0
C502 C 0.05159 0.80493 0.17495 0.0
C503 C 0.38222 0.76691 0.32567 0.0
C504 C 0.38152 0.73552 0.33141 0.0
C505 C 0.39802 0.78573 0.35252 0.0
C506 C 0.41428 0.7737 0.38531 0.0
H507 H 0.37021 0.77701 0.30059 0.0
H508 H 0.39761 0.80978 0.34719 0.0
S509 S 0.42071 0.69243 0.41184 0.0
N510 N 0.39896 0.69301 0.37147 0.0
N511 N 0.42904 0.72807 0.42123 0.0
C512 C 0.41405 0.74218 0.39083 0.0
C513 C 0.39758 0.72318 0.36405 0.0
C514 C 0.39462 0.17828 0.61478 0.0
C515 C 0.39122 0.17341 0.65748 0.0
C516 C 0.40323 0.15485 0.58786 0.0
C517 C 0.40957 0.12576 0.60283 0.0
H518 H 0.39242 0.20087 0.60252 0.0
H519 H 0.40742 0.16043 0.55578 0.0
S520 S 0.39991 0.10073 0.71167 0.0
N521 N 0.39139 0.13697 0.71299 0.0
N522 N 0.40797 0.09275 0.66284 0.0
C523 C 0.40371 0.12009 0.64507 0.0
C524 C 0.39457 0.144 0.67234 0.0
C525 C 0.07347 0.17622 0.82962 0.0
C526 C 0.08017 0.20602 0.84161 0.0
C527 C 0.05727 0.15743 0.85551 0.0
C528 C 0.04687 0.1679 0.89404 0.0
H529 H 0.08022 0.16753 0.7996 0.0
H530 H 0.0519 0.13509 0.84431 0.0
S531 S 0.05879 0.24375 0.9406 0.0
N532 N 0.07559 0.24485 0.89546 0.0
N533 N 0.04503 0.20948 0.94366 0.0
C534 C 0.05389 0.19737 0.90685 0.0
C535 C 0.07065 0.21641 0.88083 0.0
C536 C 0.91939 0.84158 0.6489 0.0
C537 C 0.93975 0.82299 0.62862 0.0
C538 C 0.90031 0.82957 0.67861 0.0
C539 C 0.90202 0.799 0.68988 0.0
H540 H 0.91836 0.86545 0.64196 0.0
H541 H 0.88484 0.8444 0.69375 0.0
S542 S 0.95161 0.74124 0.64522 0.0
N543 N 0.95991 0.77265 0.62071 0.0
N544 N 0.92539 0.75045 0.67779 0.0
C545 C 0.92229 0.78034 0.66956 0.0
C546 C 0.94088 0.79228 0.63861 0.0
C547 C 0.90919 0.15677 0.39741 0.0
C548 C 0.93034 0.13525 0.38639 0.0
C549 C 0.89125 0.16964 0.36719 0.0
C550 C 0.89433 0.16158 0.32512 0.0
H551 H 0.90636 0.16348 0.42955 0.0
H552 H 0.87536 0.18632 0.37666 0.0
S553 S 0.94734 0.10734 0.2803 0.0
N554 N 0.95416 0.10803 0.33037 0.0
N555 N 0.91988 0.13052 0.27425 0.0
C556 C 0.91537 0.14007 0.31399 0.0
C557 C 0.93357 0.12735 0.34448 0.0
C558 C 0.50735 0.1238 0.16345 0.0
C559 C 0.51269 0.1213 0.12055 0.0
C560 C 0.52786 0.13638 0.19041 0.0
C561 C 0.55479 0.1467 0.17593 0.0
H562 H 0.48663 0.11732 0.17626 0.0
H563 H 0.52213 0.13891 0.22286 0.0
S564 S 0.58045 0.14302 0.0667 0.0
N565 N 0.54772 0.1284 0.06515 0.0
N566 N 0.5861 0.1518 0.1158 0.0
C567 C 0.56101 0.1428 0.13346 0.0
C568 C 0.54001 0.1302 0.10582 0.0
C569 C 0.53924 0.7817 0.90263 0.0
C570 C 0.54224 0.81173 0.91664 0.0
C571 C 0.55662 0.77038 0.87049 0.0
C572 C 0.57771 0.78859 0.85199 0.0
H573 H 0.52223 0.76744 0.91469 0.0
H574 H 0.55254 0.74781 0.85865 0.0
S575 S 0.59707 0.86695 0.88116 0.0
N576 N 0.57021 0.85821 0.91266 0.0
N577 N 0.60267 0.83668 0.85186 0.0
C578 C 0.58238 0.81776 0.86753 0.0
C579 C 0.56468 0.8294 0.90011 0.0
C580 C 0.89932 0.13554 0.80474 0.0
C581 C 0.90721 0.14028 0.76315 0.0
C582 C 0.91933 0.12465 0.83362 0.0
C583 C 0.94793 0.11769 0.82193 0.0
H584 H 0.8781 0.14173 0.81581 0.0
H585 H 0.91251 0.12251 0.86561 0.0
S586 S 0.97856 0.12356 0.71549 0.0
N587 N 0.94489 0.13527 0.711 0.0
N588 N -0.01757 0.11463 0.7647 0.0
C589 C 0.95559 0.12085 0.7798 0.0
C590 C 0.93528 0.1322 0.75062 0.0
C591 C 0.56509 0.16314 0.58767 0.0
C592 C 0.5583 0.1592 0.62982 0.0
C593 C 0.54721 0.1511 0.5565 0.0
C594 C 0.52237 0.13446 0.5667 0.0
H595 H 0.58412 0.17575 0.57872 0.0
H596 H 0.55305 0.15439 0.52434 0.0
S597 S 0.49455 0.11874 0.67214 0.0
N598 N 0.52479 0.13756 0.67981 0.0
N599 N 0.4912 0.11619 0.62139 0.0
C600 C 0.5153 0.13076 0.60854 0.0
C601 C 0.53329 0.14282 0.64011 0.0
C602 C 0.56429 0.81085 0.32144 0.0
C603 C 0.5608 0.81322 0.27833 0.0
C604 C 0.54268 0.821 0.349 0.0
C605 C 0.51694 0.8342 0.33442 0.0
H606 H 0.5828 0.79925 0.33396 0.0
H607 H 0.5456 0.81704 0.3818 0.0
S608 S 0.50019 0.85032 0.22404 0.0
N609 N 0.53165 0.83281 0.22242 0.0
N610 N 0.49146 0.85271 0.2736 0.0
C611 C 0.51456 0.83904 0.29134 0.0
C612 C 0.53636 0.82832 0.26349 0.0
C613 C 0.89206 0.77775 0.08999 0.0
C614 C 0.89642 0.78584 0.13178 0.0
C615 C 0.90966 0.78979 0.05857 0.0
C616 C 0.93172 0.81056 0.06807 0.0
H617 H 0.87544 0.76161 0.08163 0.0
H618 H 0.9059 0.78296 0.02671 0.0
S619 S 0.95204 0.83839 0.17279 0.0
N620 N 0.9241 0.81617 0.18076 0.0
N621 N 0.95759 0.83728 0.12233 0.0
C622 C 0.93614 0.81861 0.10968 0.0
C623 C 0.91833 0.80665 0.14141 0.0
C624 C 0.54243 0.65115 0.8658 0.0
C625 C 0.51851 0.63412 0.85197 0.0
C626 C 0.55564 0.6728 0.84035 0.0
C627 C 0.54538 0.67838 0.80019 0.0
H628 H 0.55002 0.64905 0.89736 0.0
H629 H 0.57252 0.6869 0.85337 0.0
S630 S 0.48665 0.63742 0.74628 0.0
N631 N 0.48776 0.62209 0.7927 0.0
N632 N 0.51214 0.66347 0.74604 0.0
C633 C 0.52303 0.66022 0.78481 0.0
C634 C 0.5098 0.63784 0.81032 0.0
C635 C 0.55635 0.24029 0.09777 0.0
C636 C 0.57863 0.2531 0.12146 0.0
C637 C 0.54052 0.2577 0.06998 0.0
C638 C 0.54663 0.28856 0.0644 0.0
H639 H 0.55106 0.21655 0.10085 0.0
H640 H 0.52336 0.24675 0.05277 0.0
S641 S 0.60499 0.33181 0.11706 0.0
N642 N 0.60702 0.29768 0.13709 0.0
N643 N 0.57822 0.33051 0.08336 0.0
C644 C 0.56946 0.30144 0.08746 0.0
C645 C 0.58522 0.28367 0.11643 0.0
C646 C 0.93478 0.29924 0.26913 0.0
C647 C 0.90968 0.28335 0.28009 0.0
C648 C 0.94703 0.32074 0.29603 0.0
C649 C 0.93516 0.32671 0.33566 0.0
H650 H 0.94604 0.29368 0.24055 0.0
H651 H 0.96722 0.33104 0.28671 0.0
S652 S 0.86757 0.29338 0.37729 0.0
N653 N 0.87167 0.27708 0.33136 0.0
N654 N 0.89497 0.31698 0.38246 0.0
C655 C 0.90887 0.31248 0.34575 0.0
C656 C 0.89607 0.29096 0.31785 0.0
C657 C 0.88016 0.70864 0.58792 0.0
C658 C 0.87755 0.70179 0.63038 0.0
C659 C 0.89786 0.69157 0.56148 0.0
C660 C 0.91323 0.6666 0.57613 0.0
H661 H 0.86917 0.72797 0.57498 0.0
H662 H 0.89967 0.69808 0.52927 0.0
S663 S 0.9146 0.63886 0.68409 0.0
N664 N 0.89227 0.66796 0.68564 0.0
N665 N 0.92534 0.63581 0.63538 0.0
C666 C 0.91053 0.65892 0.61804 0.0
C667 C 0.89271 0.67651 0.64529 0.0
C668 C 0.53708 0.33071 0.66136 0.0
C669 C 0.54185 0.32942 0.61805 0.0
C670 C 0.54695 0.3078 0.68754 0.0
C671 C 0.56308 0.28341 0.67184 0.0
H672 H 0.52332 0.348 0.67489 0.0
H673 H 0.54024 0.3081 0.71976 0.0
S674 S 0.58623 0.2718 0.56272 0.0
N675 N 0.56711 0.3033 0.5619 0.0
N676 N 0.58648 0.26095 0.61156 0.0
C677 C 0.57084 0.28351 0.62966 0.0
C678 C 0.56015 0.30642 0.60268 0.0
C679 C 0.88741 0.25662 0.90144 0.0
C680 C 0.90472 0.28072 0.88846 0.0
C681 C 0.87267 0.23855 0.87278 0.0
C682 C 0.87511 0.24349 0.82978 0.0
H683 H 0.88551 0.25143 0.93409 0.0
H684 H 0.85999 0.21995 0.8846 0.0
S685 S 0.91854 0.30383 0.78012 0.0
N686 N 0.92372 0.30888 0.83031 0.0
N687 N 0.89627 0.27487 0.7759 0.0
C688 C 0.89202 0.26807 0.81647 0.0
C689 C 0.90681 0.28667 0.84594 0.0
C690 C 0.91263 0.63688 0.10941 0.0
C691 C 0.93762 0.62072 0.1208 0.0
C692 C 0.89968 0.65801 0.13661 0.0
C693 C 0.91139 0.66396 0.17601 0.0
H694 H 0.90398 0.63458 0.07839 0.0
H695 H 0.88196 0.67161 0.12532 0.0
S696 S 0.9736 0.62508 0.22374 0.0
N697 N 0.97106 0.60972 0.17705 0.0
N698 N 0.94714 0.65 0.22695 0.0
C699 C 0.93477 0.64637 0.18907 0.0
C700 C 0.94774 0.62457 0.16183 0.0
C701 C 0.57741 0.70933 0.37845 0.0
C702 C 0.58119 0.7035 0.33574 0.0
C703 C 0.56034 0.69057 0.40306 0.0
C704 C 0.54677 0.66495 0.38623 0.0
H705 H 0.58701 0.72905 0.39297 0.0
H706 H 0.55763 0.69627 0.43559 0.0
S707 S 0.54941 0.63928 0.27658 0.0
N708 N 0.56986 0.66981 0.27783 0.0
N709 N 0.53771 0.63472 0.32449 0.0
C710 C 0.55062 0.65841 0.34392 0.0
C711 C 0.56784 0.67766 0.31858 0.0
C712 C 0.41683 0.3241 0.10806 0.0
C713 C 0.44308 0.33703 0.12135 0.0
C714 C 0.39663 0.31273 0.13661 0.0
C715 C 0.40207 0.31358 0.17947 0.0
H716 H 0.41225 0.32165 0.0753 0.0
H717 H 0.37754 0.30167 0.12475 0.0
S718 S 0.46556 0.34791 0.23122 0.0
N719 N 0.47179 0.35245 0.18128 0.0
N720 N 0.43413 0.33054 0.23417 0.0
C721 C 0.42735 0.32783 0.19332 0.0
C722 C 0.44774 0.33972 0.16451 0.0
C723 C 0.4236 0.67717 0.90832 0.0
C724 C 0.41637 0.64973 0.92726 0.0
C725 C 0.40704 0.68823 0.87562 0.0
C726 C 0.38248 0.67256 0.86186 0.0
H727 H 0.44334 0.68888 0.91652 0.0
H728 H 0.41441 0.70815 0.85946 0.0
S729 S 0.3522 0.60231 0.90518 0.0
N730 N 0.38151 0.6089 0.93289 0.0
N731 N 0.35001 0.63029 0.87182 0.0
C732 C 0.37364 0.64665 0.88282 0.0
C733 C 0.39074 0.63504 0.91555 0.0
C734 C 0.06775 0.63797 0.63952 0.0
C735 C 0.06256 0.6381 0.68252 0.0
C736 C 0.04692 0.62713 0.61144 0.0
C737 C 0.02024 0.6156 0.62533 0.0
H738 H 0.08723 0.64789 0.62716 0.0
H739 H 0.05138 0.62883 0.57857 0.0
S740 S -0.00225 0.60785 0.73564 0.0
N741 N 0.02999 0.6236 0.73792 0.0
N742 N -0.00889 0.60276 0.68585 0.0
C743 C 0.01569 0.61387 0.66858 0.0
C744 C 0.03674 0.62526 0.69694 0.0
C745 C 0.05921 0.32418 0.39268 0.0
C746 C 0.03603 0.30773 0.40954 0.0
C747 C 0.07718 0.31141 0.36224 0.0
C748 C 0.07238 0.28194 0.34768 0.0
H749 H 0.06285 0.34746 0.40192 0.0
H750 H 0.09382 0.32526 0.34832 0.0
S751 S 0.0168 0.22824 0.38421 0.0
N752 N 0.01091 0.25938 0.4116 0.0
N753 N 0.04474 0.23573 0.35409 0.0
C754 C 0.05046 0.26466 0.36576 0.0
C755 C 0.03228 0.27746 0.39696 0.0
C756 C 0.41889 0.60296 0.31742 0.0
C757 C 0.4429 0.61983 0.33069 0.0
C758 C 0.39999 0.61447 0.28725 0.0
C759 C 0.40515 0.64273 0.26897 0.0
H760 H 0.4149 0.58077 0.33008 0.0
H761 H 0.38171 0.60094 0.27749 0.0
S762 S 0.46417 0.69616 0.29613 0.0
N763 N 0.46997 0.66648 0.32552 0.0
N764 N 0.43509 0.68799 0.26877 0.0
C765 C 0.42888 0.65987 0.28291 0.0
C766 C 0.44765 0.6484 0.31378 0.0
C767 C 0.03072 0.6655 0.0608 0.0
C768 C 0.03762 0.6376 0.04211 0.0
C769 C 0.04763 0.67722 0.09297 0.0
C770 C 0.0723 0.66179 0.10654 0.0
H771 H 0.01112 0.67735 0.05252 0.0
H772 H 0.04075 0.69785 0.10839 0.0
S773 S 0.10167 0.59014 0.06406 0.0
N774 N 0.07211 0.59626 0.03684 0.0
N775 N 0.10437 0.61895 0.09677 0.0
C776 C 0.0807 0.6352 0.086 0.0
C777 C 0.06318 0.62289 0.05385 0.0
C778 C 0.05149 0.32855 0.79771 0.0
C779 C 0.04996 0.29805 0.78532 0.0
C780 C 0.03324 0.33995 0.82922 0.0
C781 C 0.01409 0.32079 0.8504 0.0
H782 H 0.06583 0.34389 0.78171 0.0
H783 H 0.03362 0.3639 0.83643 0.0
S784 S 0.00327 0.23893 0.83142 0.0
N785 N 0.02815 0.24889 0.7974 0.0
N786 N -0.00459 0.26995 0.85797 0.0
C787 C 0.01351 0.29005 0.83966 0.0
C788 C 0.03111 0.27874 0.80677 0.0
C789 C 0.40556 0.29515 0.57265 0.0
C790 C 0.42983 0.31304 0.58179 0.0
C791 C 0.38757 0.28445 0.60447 0.0
C792 C 0.39373 0.29088 0.64634 0.0
H793 H 0.40026 0.28977 0.54074 0.0
H794 H 0.36905 0.27074 0.59626 0.0
S795 S 0.45589 0.33515 0.68627 0.0
N796 N 0.45972 0.33533 0.63545 0.0
N797 N 0.42617 0.31572 0.69505 0.0
C798 C 0.41821 0.30836 0.65567 0.0
C799 C 0.43622 0.31933 0.6234 0.0
C800 C 0.23755 0.24093 0.1905 0.0
C801 C 0.25859 0.23503 0.22088 0.0
C802 C 0.20818 0.23554 0.19776 0.0
C803 C 0.19839 0.22409 0.23583 0.0
H804 H 0.24361 0.25089 0.1612 0.0
H805 H 0.19295 0.24183 0.17394 0.0
S806 S 0.24482 0.2003 0.32341 0.0
N807 N 0.26771 0.21372 0.28886 0.0
N808 N 0.21249 0.20356 0.30252 0.0
C809 C 0.21931 0.21597 0.26538 0.0
C810 C 0.24936 0.22143 0.25793 0.0
C811 C 0.00075 0.95865 0.52523 0.0
C812 C -0.00477 0.93285 0.5005 0.0
C813 C 0.00114 -0.01227 0.50825 0.0
C814 C -0.00378 -0.00779 0.46575 0.0
H815 H 0.00456 0.95643 0.55817 0.0
H816 H 0.00457 0.00685 0.52885 0.0
S817 S -0.01637 0.93189 0.38669 0.0
N818 N -0.01346 0.91362 0.4308 0.0
N819 N -0.01236 0.96794 0.39874 0.0
C820 C -0.00841 0.96646 0.44043 0.0
C821 C -0.00908 0.93693 0.45781 0.0
C822 C 0.24696 0.73166 0.76391 0.0
C823 C 0.26801 0.72733 0.73268 0.0
C824 C 0.2176 0.72597 0.75649 0.0
C825 C 0.20797 0.71571 0.7175 0.0
H826 H 0.25327 0.73798 0.7951 0.0
H827 H 0.2026 0.72818 0.78219 0.0
S828 S 0.25346 0.70646 0.623 0.0
N829 N 0.2765 0.71622 0.65968 0.0
N830 N 0.22144 0.70568 0.6456 0.0
C831 C 0.22846 0.71366 0.68509 0.0
C832 C 0.25839 0.71946 0.69268 0.0
C833 C 0.46823 0.00617 0.95793 0.0
C834 C 0.45645 0.01334 -0.00296 0.0
C835 C 0.47063 -0.02385 0.94413 0.0
C836 C 0.46148 0.9518 0.96882 0.0
H837 H 0.47581 0.02387 0.93766 0.0
H838 H 0.48039 0.97207 0.91402 0.0
S839 S 0.42827 0.95817 0.07352 0.0
N840 N 0.43476 -0.0066 0.06008 0.0
N841 N 0.43938 0.9371 0.03411 0.0
C842 C 0.44896 0.95863 0.00763 0.0
C843 C 0.44651 -0.01072 0.02176 0.0
C844 C 0.21727 0.72321 0.19092 0.0
C845 C 0.19668 0.71795 0.22231 0.0
C846 C 0.2468 0.71814 0.1975 0.0
C847 C 0.25701 0.70749 0.2357 0.0
H848 H 0.21051 0.72998 0.16028 0.0
H849 H 0.2615 0.72119 0.17168 0.0
S850 S 0.21277 0.69535 0.33038 0.0
N851 N 0.18916 0.7053 0.29481 0.0
N852 N 0.24456 0.69572 0.3071 0.0
C853 C 0.23694 0.7043 0.26831 0.0
C854 C 0.20684 0.70958 0.26166 0.0
C855 C 0.45605 0.9403 0.49907 0.0
C856 C 0.44904 0.93349 0.45771 0.0
C857 C 0.45611 0.97014 0.51392 0.0
C858 C 0.44947 -0.00526 0.48805 0.0
H859 H 0.46153 0.92244 0.52037 0.0
H860 H 0.46212 -0.02614 0.54598 0.0
S861 S 0.42893 -0.01082 0.37712 0.0
N862 N 0.43447 0.95387 0.39105 0.0
N863 N 0.43495 0.00995 0.41897 0.0
C864 C 0.44178 -0.01176 0.44677 0.0
C865 C 0.44155 0.9577 0.43162 0.0
C866 C 0.20798 0.23079 0.6955 0.0
C867 C 0.19597 0.23554 0.73509 0.0
C868 C 0.23777 0.22602 0.69033 0.0
C869 C 0.2566 0.22557 0.7246 0.0
H870 H 0.19458 0.23249 0.66815 0.0
H871 H 0.24619 0.22416 0.65905 0.0
S872 S 0.23469 0.23088 0.83535 0.0
N873 N 0.20435 0.23532 0.80942 0.0
N874 N 0.26012 0.22598 0.79993 0.0
C875 C 0.24436 0.22768 0.76456 0.0
C876 C 0.21412 0.23282 0.76973 0.0
C877 C -0.00923 0.00478 -0.00851 0.0
C878 C -0.0005 0.01077 0.9507 0.0
C879 C -0.00914 -0.02463 0.00694 0.0
C880 C -0.00067 0.95033 -0.01776 0.0
H881 H -0.0158 0.02303 0.01209 0.0
H882 H -0.01623 0.97236 0.03866 0.0
S883 S 0.02384 0.9537 0.87272 0.0
N884 N 0.01698 -0.0108 0.88551 0.0
N885 N 0.01668 0.93376 0.9145 0.0
C886 C 0.00826 0.95596 0.94131 0.0
C887 C 0.00838 -0.01387 0.92557 0.0
C888 C 0.74298 0.72655 0.76478 0.0
C889 C 0.75454 0.73378 0.72574 0.0
C890 C 0.7132 0.72215 0.77025 0.0
C891 C 0.69386 0.72443 0.73695 0.0
H892 H 0.75676 0.72591 0.79182 0.0
H893 H 0.70507 0.71833 0.80131 0.0
S894 S 0.71375 0.73809 0.62702 0.0
N895 N 0.7447 0.73955 0.65219 0.0
N896 N 0.68886 0.73112 0.66241 0.0
C897 C 0.70534 0.72948 0.69709 0.0
C898 C 0.73566 0.73419 0.69157 0.0
C899 C 0.72128 0.22151 0.19205 0.0
C900 C 0.70072 0.22353 0.22429 0.0
C901 C 0.75081 0.2257 0.19949 0.0
C902 C 0.7612 0.23187 0.23962 0.0
H903 H 0.71469 0.21543 0.16088 0.0
H904 H 0.76567 0.2224 0.17383 0.0
S905 S 0.71608 0.24417 0.33381 0.0
N906 N 0.69261 0.23569 0.2971 0.0
N907 N 0.74813 0.2435 0.3112 0.0
C908 C 0.74072 0.23627 0.27161 0.0
C909 C 0.71051 0.23214 0.26393 0.0
C910 C 0.7084 0.20767 0.75324 0.0
C911 C 0.69759 0.21831 0.71537 0.0
C912 C 0.73794 0.20266 0.75893 0.0
C913 C 0.75809 0.20831 0.72715 0.0
H914 H 0.69385 0.20179 0.77827 0.0
H915 H 0.74488 0.19342 0.78822 0.0
S916 S 0.74148 0.24053 0.62404 0.0
N917 N 0.70971 0.2374 0.64699 0.0
N918 N 0.76536 0.22814 0.65775 0.0
C919 C 0.74784 0.22095 0.69008 0.0
C920 C 0.7176 0.2259 0.68418 0.0
C921 C 0.75397 0.72954 0.26202 0.0
C922 C 0.76373 0.71983 0.22272 0.0
C923 C 0.72468 0.73555 0.26957 0.0
C924 C 0.70377 0.73184 0.23829 0.0
H925 H 0.76921 0.73423 0.28665 0.0
H926 H 0.7186 0.74427 0.29985 0.0
S927 S 0.71748 0.70209 0.13191 0.0
N928 N 0.74971 0.70328 0.15356 0.0
N929 N 0.69465 0.71434 0.16774 0.0
C930 C 0.71293 0.71983 0.1998 0.0
C931 C 0.74287 0.71391 0.19203 0.0
C932 C 0.48279 0.44997 0.95734 0.0
C933 C 0.4967 0.4428 -0.00532 0.0
C934 C 0.47998 0.48003 0.94442 0.0
C935 C 0.49095 0.50436 0.96821 0.0
H936 H 0.47384 0.43225 0.9379 0.0
H937 H 0.46858 0.48419 0.91577 0.0
S938 S 0.5299 0.498 0.06824 0.0
N939 N 0.52211 0.46285 0.05511 0.0
N940 N 0.51691 0.51897 0.03069 0.0
C941 C 0.50547 0.49748 0.0052 0.0
C942 C 0.50825 0.4669 0.01847 0.0
C943 C 0.95259 0.46136 0.49613 0.0
C944 C 0.9651 0.45496 0.45724 0.0
C945 C 0.95107 0.49098 0.51173 0.0
C946 C 0.96194 0.5157 0.4892 0.0
H947 H 0.94469 0.44327 0.51548 0.0
H948 H 0.9416 0.49435 0.54217 0.0
S949 S -0.00555 0.51167 0.38389 0.0
N950 N -0.01313 0.47625 0.39514 0.0
N951 N -0.01598 0.53183 0.42458 0.0
C952 C 0.97366 0.5098 0.44963 0.0
C953 C 0.97517 0.47955 0.43363 0.0
C954 C 0.94795 0.45554 0.94868 0.0
C955 C 0.95695 0.43103 0.97318 0.0
C956 C 0.95058 0.48548 0.96252 0.0
C957 C 0.96246 0.49243 0.00147 0.0
H958 H 0.93908 0.45173 0.91805 0.0
H959 H 0.94417 0.50333 0.94174 0.0
S960 S -0.01306 0.43678 0.07955 0.0
N961 N 0.97651 0.41587 0.0397 0.0
N962 N -0.01849 0.47214 0.06579 0.0
C963 C 0.97064 0.46818 0.02703 0.0
C964 C 0.96794 0.43757 0.01287 0.0
C965 C 0.49036 0.47675 0.51525 0.0
C966 C 0.4978 0.45086 0.4916 0.0
C967 C 0.49056 0.50569 0.49813 0.0
C968 C 0.49846 0.51027 0.45658 0.0
H969 H 0.48387 0.47477 0.54739 0.0
H970 H 0.48478 0.52467 0.51795 0.0
S971 S 0.51994 0.45036 0.38086 0.0
N972 N 0.51336 0.43191 0.42409 0.0
N973 N 0.51403 0.48633 0.39191 0.0
C974 C 0.50629 0.4847 0.43251 0.0
C975 C 0.50596 0.45508 0.44999 0.0
C976 C 0.05455 0.28816 0.06163 0.0
C977 C 0.02523 0.28494 0.05098 0.0
C978 C 0.06569 0.27492 0.0978 0.0
C979 C 0.04792 0.25773 0.12416 0.0
H980 H 0.06857 0.30229 0.04316 0.0
H981 H 0.08776 0.27986 0.10654 0.0
S982 S 0.97147 0.23697 0.10492 0.0
N983 N -0.02003 0.25944 0.06621 0.0
N984 N 0.00088 0.2344 0.1334 0.0
C985 C 0.01933 0.25216 0.11162 0.0
C986 C 0.00798 0.26583 0.07529 0.0
C987 C 0.9204 0.73553 0.37695 0.0
C988 C 0.90298 0.75466 0.35323 0.0
C989 C 0.93296 0.74583 0.41407 0.0
C990 C 0.92948 0.77597 0.42779 0.0
H991 H 0.9258 0.71315 0.36543 0.0
H992 H 0.94719 0.73068 0.43046 0.0
S993 S 0.88381 0.83408 0.37825 0.0
N994 N 0.88081 0.80412 0.34762 0.0
N995 N 0.90521 0.82386 0.4165 0.0
C996 C 0.91076 0.79472 0.40548 0.0
C997 C 0.89736 0.78395 0.36837 0.0
C998 C 0.41664 0.67499 0.60334 0.0
C999 C 0.4165 0.66029 0.6418 0.0
C1000 C 0.42968 0.66127 0.56821 0.0
C1001 C 0.44299 0.63261 0.57074 0.0
H1002 H 0.40812 0.69769 0.60094 0.0
H1003 H 0.43086 0.67391 0.53967 0.0
S1004 S 0.44357 0.58292 0.66253 0.0
N1005 N 0.42717 0.614 0.6787 0.0
N1006 N 0.45177 0.58875 0.61343 0.0
C1007 C 0.44104 0.61706 0.60829 0.0
C1008 C 0.42776 0.63078 0.6436 0.0
C1009 C 0.55416 0.15587 0.85511 0.0
C1010 C 0.55927 0.18688 0.8497 0.0
C1011 C 0.54175 0.14489 0.89161 0.0
C1012 C 0.53386 0.16454 0.92424 0.0
H1013 H 0.55795 0.14014 0.82969 0.0
H1014 H 0.53683 0.121 0.89319 0.0
S1015 S 0.54704 0.24745 0.92761 0.0
N1016 N 0.55854 0.23679 0.88116 0.0
N1017 N 0.53565 0.21642 0.95054 0.0
C1018 C 0.54121 0.19543 0.92055 0.0
C1019 C 0.55373 0.20657 0.88301 0.0
C1020 C 0.00231 0.69267 0.37649 0.0
C1021 C 0.01409 0.67013 0.40199 0.0
C1022 C 0.01652 0.70225 0.34061 0.0
C1023 C 0.04342 0.69017 0.32891 0.0
H1024 H -0.01883 0.70205 0.38295 0.0
H1025 H 0.00564 0.71818 0.32069 0.0
S1026 S 0.08544 0.63328 0.38702 0.0
N1027 N 0.05563 0.63789 0.4147 0.0
N1028 N 0.08254 0.65628 0.34722 0.0
C1029 C 0.05653 0.66925 0.3555 0.0
C1030 C 0.04181 0.6591 0.39198 0.0
C1031 C 0.55046 0.79454 0.60833 0.0
C1032 C 0.54386 0.76782 0.62964 0.0
C1033 C 0.53483 0.80301 0.57292 0.0
C1034 C 0.51191 0.78511 0.55788 0.0
H1035 H 0.5665 0.80996 0.62067 0.0
H1036 H 0.53974 0.82445 0.55866 0.0
S1037 S 0.48882 0.71103 0.60052 0.0
N1038 N 0.51484 0.72244 0.63179 0.0
N1039 N 0.48582 0.73749 0.56507 0.0
C1040 C 0.50657 0.75725 0.5776 0.0
C1041 C 0.5224 0.74887 0.6136 0.0
C1042 C 0.39885 0.27552 0.86722 0.0
C1043 C 0.41035 0.25388 0.83928 0.0
C1044 C 0.41678 0.29213 0.8944 0.0
C1045 C 0.44695 0.28783 0.89473 0.0
H1046 H 0.37586 0.28001 0.86781 0.0
H1047 H 0.40689 0.30853 0.91517 0.0
S1048 S 0.48777 0.23292 0.82888 0.0
N1049 N 0.45383 0.22833 0.81501 0.0
N1050 N 0.48728 0.25954 0.86496 0.0
C1051 C 0.45859 0.26594 0.86726 0.0
C1052 C 0.4404 0.24899 0.83994 0.0
C1053 C 0.90247 0.1536 0.09757 0.0
C1054 C 0.89725 0.18457 0.1045 0.0
C1055 C 0.91406 0.14289 0.06004 0.0
C1056 C 0.92118 0.16276 0.02783 0.0
H1057 H 0.89932 0.13768 0.1225 0.0
H1058 H 0.91905 0.11903 0.05734 0.0
S1059 S 0.90768 0.2457 0.02865 0.0
N1060 N 0.89704 0.23464 0.07501 0.0
N1061 N 0.91869 0.21488 0.00392 0.0
C1062 C 0.91377 0.19362 0.03319 0.0
C1063 C 0.90189 0.20445 0.07169 0.0
C1064 C 0.89861 0.64337 0.88531 0.0
C1065 C 0.92806 0.64773 0.89434 0.0
C1066 C 0.88306 0.66473 0.8621 0.0
C1067 C 0.89627 0.69152 0.84842 0.0
H1068 H 0.88767 0.62319 0.89574 0.0
H1069 H 0.86049 0.66054 0.8555 0.0
S1070 S 0.97277 0.71381 0.86465 0.0
N1071 N 0.96969 0.6809 0.88778 0.0
N1072 N 0.94055 0.72098 0.84538 0.0
C1073 C 0.92562 0.69613 0.85761 0.0
C1074 C 0.94148 0.67426 0.88028 0.0
C1075 C 0.06542 0.1671 0.60052 0.0
C1076 C 0.05022 0.18717 0.62664 0.0
C1077 C 0.05061 0.14686 0.57415 0.0
C1078 C 0.02013 0.14569 0.57358 0.0
H1079 H 0.08878 0.16801 0.59904 0.0
H1080 H 0.06312 0.1326 0.55334 0.0
S1081 S 0.9708 0.19145 0.6405 0.0
N1082 N 0.00347 0.20315 0.65302 0.0
N1083 N 0.97562 0.16503 0.6047 0.0
C1084 C 0.00492 0.16461 0.60155 0.0
C1085 C 0.01997 0.18538 0.62772 0.0
C1086 C 0.54884 0.29512 0.38682 0.0
C1087 C 0.54021 0.28176 0.42439 0.0
C1088 C 0.5622 0.27805 0.35501 0.0
C1089 C 0.56733 0.24685 0.35934 0.0
H1090 H 0.54485 0.31889 0.38159 0.0
H1091 H 0.56793 0.28928 0.32647 0.0
S1092 S 0.55016 0.20109 0.45228 0.0
N1093 N 0.53893 0.23542 0.46443 0.0
N1094 N 0.56368 0.20361 0.4051 0.0
C1095 C 0.55941 0.23339 0.39713 0.0
C1096 C 0.54598 0.25073 0.42948 0.0
C1097 C 0.40321 0.7975 0.07884 0.0
C1098 C 0.43099 0.78977 0.06438 0.0
C1099 C 0.38649 0.77675 0.10149 0.0
C1100 C 0.39669 0.74736 0.10922 0.0
H1101 H 0.39464 0.81988 0.07342 0.0
H1102 H 0.3654 0.78366 0.11273 0.0
S1103 S 0.46772 0.71576 0.07675 0.0
N1104 N 0.46771 0.75057 0.05891 0.0
N1105 N 0.43631 0.71168 0.10032 0.0
C1106 C 0.42423 0.7393 0.09418 0.0
C1107 C 0.44137 0.76048 0.07204 0.0
C1108 C 0.93404 0.26588 0.557 0.0
C1109 C 0.92517 0.29619 0.5556 0.0
C1110 C 0.91861 0.24454 0.5797 0.0
C1111 C 0.89402 0.25271 0.60298 0.0
H1112 H 0.95328 0.25855 0.54052 0.0
H1113 H 0.92667 0.22157 0.57988 0.0
S1114 S 0.86122 0.32923 0.60839 0.0
N1115 N 0.88958 0.33334 0.57767 0.0
N1116 N 0.86084 0.29331 0.62193 0.0
C1117 C 0.88452 0.28295 0.60127 0.0
C1118 C 0.9 0.30465 0.57714 0.0
C1119 C 0.3915 0.17475 0.3509 0.0
C1120 C 0.40483 0.2019 0.33885 0.0
C1121 C 0.40615 0.15358 0.37553 0.0
C1122 C 0.43489 0.15848 0.38819 0.0
H1123 H 0.36943 0.17007 0.34187 0.0
H1124 H 0.3949 0.13324 0.38461 0.0
S1125 S 0.47994 0.22552 0.36341 0.0
N1126 N 0.44872 0.2321 0.34073 0.0
N1127 N 0.47618 0.19252 0.38609 0.0
C1128 C 0.44858 0.18532 0.3756 0.0
C1129 C 0.43358 0.20696 0.35121 0.0
C1130 C 0.55185 0.65727 0.08138 0.0
C1131 C 0.5246 0.64494 0.09089 0.0
C1132 C 0.56651 0.67593 0.1099 0.0
C1133 C 0.55441 0.68306 0.14891 0.0
H1134 H 0.56151 0.65338 0.05117 0.0
H1135 H 0.58696 0.68569 0.10065 0.0
S1136 S 0.48513 0.65369 0.1909 0.0
N1137 N 0.48742 0.63905 0.1438 0.0
N1138 N 0.5146 0.67418 0.19676 0.0
C1139 C 0.52783 0.66968 0.1595 0.0
C1140 C 0.51305 0.65061 0.13069 0.0
C1141 C 0.07003 0.77289 0.8524 0.0
C1142 C 0.07368 0.74165 0.85868 0.0
C1143 C 0.05566 0.79128 0.88185 0.0
C1144 C 0.04458 0.77923 0.91894 0.0
H1145 H 0.07767 0.78313 0.82405 0.0
H1146 H 0.05292 0.81504 0.87521 0.0
S1147 S 0.04971 0.69892 0.95133 0.0
N1148 N 0.06586 0.69976 0.90572 0.0
N1149 N 0.03922 0.73395 0.96065 0.0
C1150 C 0.04879 0.74812 0.92599 0.0
C1151 C 0.06321 0.72947 0.89602 0.0
loop_
_geom_bond_atom_site_label_1
_geom_bond_atom_site_label_2
_geom_bond_distance
_geom_bond_site_symmetry_2
_ccdc_geom_bond_type
Mg0 O1 2.028 . S
Mg0 O7 1.986 . S
Mg0 O9 2.114 . S
Mg0 O10 2.251 . S
Mg0 O13 2.010 . S
O1 Mg0 2.028 . S
O1 C4 1.250 . S
O2 Mg3 2.028 . S
O2 C4 1.248 . S
Mg3 O2 2.028 . S
Mg3 O8 2.032 . S
Mg3 O10 2.079 . S
C4 O1 1.250 . S
C4 O2 1.248 . S
C5 O6 1.264 . S
C5 O13 1.249 . S
O6 C5 1.264 . S
O7 Mg0 1.986 . S
O7 C11 1.246 . S
O8 Mg3 2.032 . S
O8 C11 1.259 . S
O9 Mg0 2.114 . S
O9 C12 1.252 . S
O10 Mg0 2.251 . S
O10 Mg3 2.079 . S
O10 C12 1.273 . S
C11 O7 1.246 . S
C11 O8 1.259 . S
C12 O9 1.252 . S
C12 O10 1.273 . S
O13 Mg0 2.010 . S
O13 C5 1.249 . S
Mg14 O15 2.028 1_455 S
Mg14 O21 1.986 1_455 S
Mg14 O23 2.114 . S
Mg14 O24 2.251 . S
Mg14 O27 2.010 1_455 S
O15 Mg14 2.028 1_655 S
O15 C18 1.250 . S
O16 Mg17 2.028 1_655 S
O16 C18 1.248 . S
Mg17 O16 2.028 1_455 S
Mg17 O22 2.032 . S
Mg17 O24 2.079 . S
C18 O15 1.250 . S
C18 O16 1.248 . S
C19 O20 1.273 . S
C19 O27 1.249 . S
O20 C19 1.273 . S
O21 Mg14 1.986 1_655 S
O21 C25 1.246 1_655 S
O22 Mg17 2.032 . S
O22 C25 1.259 . S
O23 Mg14 2.114 . S
O23 C26 1.252 . S
O24 Mg14 2.251 . S
O24 Mg17 2.079 . S
O24 C26 1.273 . S
C25 O21 1.246 1_455 S
C25 O22 1.259 . S
C26 O23 1.252 . S
C26 O24 1.273 . S
O27 Mg14 2.010 1_655 S
O27 C19 1.249 . S
Mg28 O29 2.028 . S
Mg28 O35 1.986 . S
Mg28 O37 2.114 . S
Mg28 O38 2.251 . S
Mg28 O41 2.010 . S
O29 Mg28 2.028 . S
O29 C32 1.250 . S
O30 Mg31 2.028 . S
O30 C32 1.248 . S
Mg31 O30 2.028 . S
Mg31 O36 2.032 . S
Mg31 O38 2.079 . S
C32 O29 1.250 . S
C32 O30 1.248 . S
C33 O34 1.264 . S
C33 O41 1.249 . S
O34 C33 1.264 . S
O35 Mg28 1.986 . S
O35 C39 1.246 . S
O36 Mg31 2.032 . S
O36 C39 1.259 . S
O37 Mg28 2.114 . S
O37 C40 1.252 . S
O38 Mg28 2.251 . S
O38 Mg31 2.079 . S
O38 C40 1.273 . S
C39 O35 1.246 . S
C39 O36 1.259 . S
C40 O37 1.252 . S
C40 O38 1.273 . S
O41 Mg28 2.010 . S
O41 C33 1.249 . S
Mg42 O43 2.028 . S
Mg42 O49 1.986 . S
Mg42 O51 2.114 . S
Mg42 O52 2.251 . S
Mg42 O55 2.010 1_554 S
O43 Mg42 2.028 . S
O43 C46 1.250 . S
O44 Mg45 2.028 . S
O44 C46 1.248 . S
Mg45 O44 2.028 . S
Mg45 O50 2.032 . S
Mg45 O52 2.079 . S
C46 O43 1.250 . S
C46 O44 1.248 . S
C47 O48 1.264 . S
C47 O55 1.249 . S
O48 C47 1.264 . S
O49 Mg42 1.986 . S
O49 C53 1.246 . S
O50 Mg45 2.032 . S
O50 C53 1.259 . S
O51 Mg42 2.114 . S
O51 C54 1.252 . S
O52 Mg42 2.251 . S
O52 Mg45 2.079 . S
O52 C54 1.273 . S
C53 O49 1.246 . S
C53 O50 1.259 . S
C54 O51 1.252 . S
C54 O52 1.273 . S
O55 Mg42 2.010 1_556 S
O55 C47 1.249 . S
Mg56 O57 2.028 . S
Mg56 O63 1.986 . S
Mg56 O65 2.114 . S
Mg56 O66 2.251 . S
Mg56 O69 2.010 . S
O57 Mg56 2.028 . S
O57 C60 1.250 . S
O58 Mg59 2.028 . S
O58 C60 1.248 . S
Mg59 O58 2.028 . S
Mg59 O64 2.032 . S
Mg59 O66 2.079 . S
C60 O57 1.250 . S
C60 O58 1.248 . S
C61 O62 1.264 . S
C61 O69 1.249 . S
O62 C61 1.264 . S
O63 Mg56 1.986 . S
O63 C67 1.246 . S
O64 Mg59 2.032 . S
O64 C67 1.259 . S
O65 Mg56 2.114 . S
O65 C68 1.252 . S
O66 Mg56 2.251 . S
O66 Mg59 2.079 . S
O66 C68 1.273 . S
C67 O63 1.246 . S
C67 O64 1.259 . S
C68 O65 1.252 . S
C68 O66 1.273 . S
O69 Mg56 2.010 . S
O69 C61 1.249 . S
Mg70 O71 2.028 . S
Mg70 O77 1.986 . S
Mg70 O79 2.114 . S
Mg70 O80 2.251 . S
Mg70 O83 2.010 . S
O71 Mg70 2.028 . S
O71 C74 1.250 . S
O72 Mg73 2.028 . S
O72 C74 1.248 . S
Mg73 O72 2.028 . S
Mg73 O78 2.032 . S
Mg73 O80 2.079 . S
C74 O71 1.250 . S
C74 O72 1.248 . S
C75 O76 1.264 . S
C75 O83 1.249 . S
O76 C75 1.264 . S
O77 Mg70 1.986 . S
O77 C81 1.246 . S
O78 Mg73 2.032 . S
O78 C81 1.259 . S
O79 Mg70 2.114 . S
O79 C82 1.252 . S
O80 Mg70 2.251 . S
O80 Mg73 2.079 . S
O80 C82 1.273 . S
C81 O77 1.246 . S
C81 O78 1.259 . S
C82 O79 1.252 . S
C82 O80 1.273 . S
O83 Mg70 2.010 . S
O83 C75 1.249 . S
Mg84 O85 2.028 . S
Mg84 O91 1.986 . S
Mg84 O93 2.114 . S
Mg84 O94 2.251 . S
Mg84 O97 2.010 . S
O85 Mg84 2.028 . S
O85 C88 1.250 . S
O86 Mg87 2.028 . S
O86 C88 1.248 . S
Mg87 O86 2.028 . S
Mg87 O92 2.032 . S
Mg87 O94 2.079 . S
C88 O85 1.250 . S
C88 O86 1.248 . S
C89 O90 1.264 . S
C89 O97 1.249 . S
O90 C89 1.264 . S
O91 Mg84 1.986 . S
O91 C95 1.246 . S
O92 Mg87 2.032 . S
O92 C95 1.259 . S
O93 Mg84 2.114 . S
O93 C96 1.252 . S
O94 Mg84 2.251 . S
O94 Mg87 2.079 . S
O94 C96 1.273 . S
C95 O91 1.246 . S
C95 O92 1.259 . S
C96 O93 1.252 . S
C96 O94 1.273 . S
O97 Mg84 2.010 . S
O97 C89 1.249 . S
Mg98 O99 2.028 1_455 S
Mg98 O105 1.986 1_455 S
Mg98 O107 2.114 . S
Mg98 O108 2.251 . S
Mg98 O111 2.010 1_456 S
O99 Mg98 2.028 1_655 S
O99 C102 1.250 . S
O100 Mg101 2.028 1_655 S
O100 C102 1.248 . S
Mg101 O100 2.028 1_455 S
Mg101 O106 2.032 . S
Mg101 O108 2.079 . S
C102 O99 1.250 . S
C102 O100 1.248 . S
C103 O104 1.273 . S
C103 O111 1.249 . S
O104 C103 1.273 . S
O105 Mg98 1.986 1_655 S
O105 C109 1.246 1_655 S
O106 Mg101 2.032 . S
O106 C109 1.259 . S
O107 Mg98 2.114 . S
O107 C110 1.252 . S
O108 Mg98 2.251 . S
O108 Mg101 2.079 . S
O108 C110 1.273 . S
C109 O105 1.246 1_455 S
C109 O106 1.259 . S
C110 O107 1.252 . S
C110 O108 1.273 . S
O111 Mg98 2.010 1_654 S
O111 C103 1.249 . S
Mg112 O113 2.028 . S
Mg112 O119 1.986 . S
Mg112 O121 2.114 . S
Mg112 O122 2.251 . S
Mg112 O125 2.010 . S
O113 Mg112 2.028 . S
O113 C116 1.250 . S
O114 Mg115 2.028 . S
O114 C116 1.248 . S
Mg115 O114 2.028 . S
Mg115 O120 2.032 . S
Mg115 O122 2.079 . S
C116 O113 1.250 . S
C116 O114 1.248 . S
C117 O118 1.264 . S
C117 O125 1.249 . S
O118 C117 1.264 . S
O119 Mg112 1.986 . S
O119 C123 1.246 . S
O120 Mg115 2.032 . S
O120 C123 1.259 . S
O121 Mg112 2.114 . S
O121 C124 1.252 . S
O122 Mg112 2.251 . S
O122 Mg115 2.079 . S
O122 C124 1.273 . S
C123 O119 1.246 . S
C123 O120 1.259 . S
C124 O121 1.252 . S
C124 O122 1.273 . S
O125 Mg112 2.010 . S
O125 C117 1.249 . S
Mg126 O127 2.028 . S
Mg126 O133 1.986 . S
Mg126 O135 2.114 1_455 S
Mg126 O136 2.251 1_455 S
Mg126 O139 2.010 . S
O127 Mg126 2.028 . S
O127 C130 1.250 . S
O128 Mg129 2.028 . S
O128 C130 1.248 . S
Mg129 O128 2.028 . S
Mg129 O134 2.032 . S
Mg129 O136 2.079 1_455 S
C130 O127 1.250 . S
C130 O128 1.248 . S
C131 O132 1.264 . S
C131 O139 1.249 . S
O132 C131 1.264 . S
O133 Mg126 1.986 . S
O133 C137 1.246 . S
O134 Mg129 2.032 . S
O134 C137 1.259 . S
O135 Mg126 2.114 1_655 S
O135 C138 1.252 . S
O136 Mg126 2.251 1_655 S
O136 Mg129 2.079 1_655 S
O136 C138 1.273 . S
C137 O133 1.246 . S
C137 O134 1.259 . S
C138 O135 1.252 . S
C138 O136 1.273 . S
O139 Mg126 2.010 . S
O139 C131 1.249 . S
Mg140 O141 2.028 . S
Mg140 O147 1.986 . S
Mg140 O149 2.114 . S
Mg140 O150 2.251 . S
Mg140 O153 2.010 . S
O141 Mg140 2.028 . S
O141 C144 1.250 . S
O142 Mg143 2.028 . S
O142 C144 1.248 . S
Mg143 O142 2.028 . S
Mg143 O148 2.032 . S
Mg143 O150 2.079 . S
C144 O141 1.250 . S
C144 O142 1.248 . S
C145 O146 1.264 . S
C145 O153 1.249 . S
O146 C145 1.264 . S
O147 Mg140 1.986 . S
O147 C151 1.246 . S
O148 Mg143 2.032 . S
O148 C151 1.259 . S
O149 Mg140 2.114 . S
O149 C152 1.252 . S
O150 Mg140 2.251 . S
O150 Mg143 2.079 . S
O150 C152 1.273 . S
C151 O147 1.246 . S
C151 O148 1.259 . S
C152 O149 1.252 . S
C152 O150 1.273 . S
O153 Mg140 2.010 . S
O153 C145 1.249 . S
Mg154 O155 2.028 . S
Mg154 O161 1.986 . S
Mg154 O163 2.114 . S
Mg154 O164 2.251 . S
Mg154 O167 2.010 1_556 S
O155 Mg154 2.028 . S
O155 C158 1.250 . S
O156 Mg157 2.028 . S
O156 C158 1.248 . S
Mg157 O156 2.028 . S
Mg157 O162 2.032 . S
Mg157 O164 2.079 . S
C158 O155 1.250 . S
C158 O156 1.248 . S
C159 O160 1.264 . S
C159 O167 1.249 . S
O160 C159 1.264 . S
O161 Mg154 1.986 . S
O161 C165 1.246 . S
O162 Mg157 2.032 . S
O162 C165 1.259 . S
O163 Mg154 2.114 . S
O163 C166 1.252 . S
O164 Mg154 2.251 . S
O164 Mg157 2.079 . S
O164 C166 1.273 . S
C165 O161 1.246 . S
C165 O162 1.259 . S
C166 O163 1.252 . S
C166 O164 1.273 . S
O167 Mg154 2.010 1_554 S
O167 C159 1.249 . S
Mg168 O169 2.028 . S
Mg168 O175 1.986 . S
Mg168 O177 2.114 . S
Mg168 O178 2.251 . S
Mg168 O181 2.010 . S
O169 Mg168 2.028 . S
O169 C172 1.250 . S
O170 Mg171 2.028 . S
O170 C172 1.248 . S
Mg171 O170 2.028 . S
Mg171 O176 2.032 . S
Mg171 O178 2.079 . S
C172 O169 1.250 . S
C172 O170 1.248 . S
C173 O174 1.264 . S
C173 O181 1.249 . S
O174 C173 1.264 . S
O175 Mg168 1.986 . S
O175 C179 1.246 . S
O176 Mg171 2.032 . S
O176 C179 1.259 . S
O177 Mg168 2.114 . S
O177 C180 1.252 . S
O178 Mg168 2.251 . S
O178 Mg171 2.079 . S
O178 C180 1.273 . S
C179 O175 1.246 . S
C179 O176 1.259 . S
C180 O177 1.252 . S
C180 O178 1.273 . S
O181 Mg168 2.010 . S
O181 C173 1.249 . S
Mg182 O183 2.028 . S
Mg182 O189 1.986 . S
Mg182 O191 2.114 . S
Mg182 O192 2.251 . S
Mg182 O195 2.010 . S
O183 Mg182 2.028 . S
O183 C186 1.250 . S
O184 Mg185 2.028 . S
O184 C186 1.248 . S
Mg185 O184 2.028 . S
Mg185 O190 2.032 . S
Mg185 O192 2.079 . S
C186 O183 1.250 . S
C186 O184 1.248 . S
C187 O188 1.264 . S
C187 O195 1.249 . S
O188 C187 1.264 . S
O189 Mg182 1.986 . S
O189 C193 1.246 . S
O190 Mg185 2.032 . S
O190 C193 1.259 . S
O191 Mg182 2.114 . S
O191 C194 1.252 . S
O192 Mg182 2.251 . S
O192 Mg185 2.079 . S
O192 C194 1.273 . S
C193 O189 1.246 . S
C193 O190 1.259 . S
C194 O191 1.252 . S
C194 O192 1.273 . S
O195 Mg182 2.010 . S
O195 C187 1.249 . S
Mg196 O197 2.028 . S
Mg196 O203 1.986 . S
Mg196 O205 2.114 . S
Mg196 O206 2.251 . S
Mg196 O209 2.010 . S
O197 Mg196 2.028 . S
O197 C200 1.250 . S
O198 Mg199 2.028 . S
O198 C200 1.248 . S
Mg199 O198 2.028 . S
Mg199 O204 2.032 . S
Mg199 O206 2.079 . S
C200 O197 1.250 . S
C200 O198 1.248 . S
C201 O202 1.264 . S
C201 O209 1.249 . S
O202 C201 1.264 . S
O203 Mg196 1.986 . S
O203 C207 1.246 . S
O204 Mg199 2.032 . S
O204 C207 1.259 . S
O205 Mg196 2.114 . S
O205 C208 1.252 . S
O206 Mg196 2.251 . S
O206 Mg199 2.079 . S
O206 C208 1.273 . S
C207 O203 1.246 . S
C207 O204 1.259 . S
C208 O205 1.252 . S
C208 O206 1.273 . S
O209 Mg196 2.010 . S
O209 C201 1.249 . S
Mg210 O211 2.028 . S
Mg210 O217 1.986 . S
Mg210 O219 2.114 1_455 S
Mg210 O220 2.251 1_455 S
Mg210 O223 2.010 1_554 S
O211 Mg210 2.028 . S
O211 C214 1.250 . S
O212 Mg213 2.028 . S
O212 C214 1.248 . S
Mg213 O212 2.028 . S
Mg213 O218 2.032 . S
Mg213 O220 2.079 1_455 S
C214 O211 1.250 . S
C214 O212 1.248 . S
C215 O216 1.264 . S
C215 O223 1.249 . S
O216 C215 1.264 . S
O217 Mg210 1.986 . S
O217 C221 1.246 . S
O218 Mg213 2.032 . S
O218 C221 1.259 . S
O219 Mg210 2.114 1_655 S
O219 C222 1.252 . S
O220 Mg210 2.251 1_655 S
O220 Mg213 2.079 1_655 S
O220 C222 1.273 . S
C221 O217 1.246 . S
C221 O218 1.259 . S
C222 O219 1.252 . S
C222 O220 1.273 . S
O223 Mg210 2.010 1_556 S
O223 C215 1.249 . S
Mg224 O225 2.028 . S
Mg224 O231 1.986 . S
Mg224 O233 2.114 . S
Mg224 O234 2.251 . S
Mg224 O237 2.010 . S
O225 Mg224 2.028 . S
O225 C228 1.250 . S
O226 Mg227 2.028 . S
O226 C228 1.248 . S
Mg227 O226 2.028 . S
Mg227 O232 2.032 . S
Mg227 O234 2.079 . S
C228 O225 1.250 . S
C228 O226 1.248 . S
C229 O230 1.264 . S
C229 O237 1.249 . S
O230 C229 1.264 . S
O231 Mg224 1.986 . S
O231 C235 1.246 . S
O232 Mg227 2.032 . S
O232 C235 1.259 . S
O233 Mg224 2.114 . S
O233 C236 1.252 . S
O234 Mg224 2.251 . S
O234 Mg227 2.079 . S
O234 C236 1.273 . S
C235 O231 1.246 . S
C235 O232 1.259 . S
C236 O233 1.252 . S
C236 O234 1.273 . S
O237 Mg224 2.010 . S
O237 C229 1.249 . S
Mg238 O239 2.028 . S
Mg238 O245 1.986 . S
Mg238 O247 2.114 . S
Mg238 O248 2.251 . S
Mg238 O251 2.010 1_554 S
O239 Mg238 2.028 . S
O239 C242 1.250 . S
O240 Mg241 2.028 . S
O240 C242 1.248 . S
Mg241 O240 2.028 . S
Mg241 O246 2.032 . S
Mg241 O248 2.079 . S
C242 O239 1.250 . S
C242 O240 1.248 . S
C243 O244 1.264 . S
C243 O251 1.249 . S
O244 C243 1.264 . S
O245 Mg238 1.986 . S
O245 C249 1.246 . S
O246 Mg241 2.032 . S
O246 C249 1.259 . S
O247 Mg238 2.114 . S
O247 C250 1.252 . S
O248 Mg238 2.251 . S
O248 Mg241 2.079 . S
O248 C250 1.273 . S
C249 O245 1.246 . S
C249 O246 1.259 . S
C250 O247 1.252 . S
C250 O248 1.273 . S
O251 Mg238 2.010 1_556 S
O251 C243 1.249 . S
Mg252 O253 2.028 . S
Mg252 O259 1.986 . S
Mg252 O261 2.114 . S
Mg252 O262 2.251 . S
Mg252 O265 2.010 . S
O253 Mg252 2.028 . S
O253 C256 1.250 . S
O254 Mg255 2.028 . S
O254 C256 1.248 . S
Mg255 O254 2.028 . S
Mg255 O260 2.032 . S
Mg255 O262 2.079 . S
C256 O253 1.250 . S
C256 O254 1.248 . S
C257 O258 1.264 . S
C257 O265 1.249 . S
O258 C257 1.264 . S
O259 Mg252 1.986 . S
O259 C263 1.246 . S
O260 Mg255 2.032 . S
O260 C263 1.259 . S
O261 Mg252 2.114 . S
O261 C264 1.252 . S
O262 Mg252 2.251 . S
O262 Mg255 2.079 . S
O262 C264 1.273 . S
C263 O259 1.246 . S
C263 O260 1.259 . S
C264 O261 1.252 . S
C264 O262 1.273 . S
O265 Mg252 2.010 . S
O265 C257 1.249 . S
Mg266 O267 2.028 1_655 S
Mg266 O273 1.986 1_655 S
Mg266 O275 2.114 . S
Mg266 O276 2.251 . S
Mg266 O279 2.010 1_655 S
O267 Mg266 2.028 1_455 S
O267 C270 1.250 . S
O268 Mg269 2.028 1_455 S
O268 C270 1.248 . S
Mg269 O268 2.028 1_655 S
Mg269 O274 2.032 . S
Mg269 O276 2.079 . S
C270 O267 1.250 . S
C270 O268 1.248 . S
C271 O272 1.273 . S
C271 O279 1.249 . S
O272 C271 1.273 . S
O273 Mg266 1.986 1_455 S
O273 C277 1.246 1_455 S
O274 Mg269 2.032 . S
O274 C277 1.259 . S
O275 Mg266 2.114 . S
O275 C278 1.252 . S
O276 Mg266 2.251 . S
O276 Mg269 2.079 . S
O276 C278 1.273 . S
C277 O273 1.246 1_655 S
C277 O274 1.259 . S
C278 O275 1.252 . S
C278 O276 1.273 . S
O279 Mg266 2.010 1_455 S
O279 C271 1.249 . S
Mg280 O281 2.028 . S
Mg280 O287 1.986 . S
Mg280 O289 2.114 . S
Mg280 O290 2.251 . S
Mg280 O293 2.010 . S
O281 Mg280 2.028 . S
O281 C284 1.250 . S
O282 Mg283 2.028 . S
O282 C284 1.248 . S
Mg283 O282 2.028 . S
Mg283 O288 2.032 . S
Mg283 O290 2.079 . S
C284 O281 1.250 . S
C284 O282 1.248 . S
C285 O286 1.264 . S
C285 O293 1.249 . S
O286 C285 1.264 . S
O287 Mg280 1.986 . S
O287 C291 1.246 . S
O288 Mg283 2.032 . S
O288 C291 1.259 . S
O289 Mg280 2.114 . S
O289 C292 1.252 . S
O290 Mg280 2.251 . S
O290 Mg283 2.079 . S
O290 C292 1.273 . S
C291 O287 1.246 . S
C291 O288 1.259 . S
C292 O289 1.252 . S
C292 O290 1.273 . S
O293 Mg280 2.010 . S
O293 C285 1.249 . S
Mg294 O295 2.028 1_655 S
Mg294 O301 1.986 1_655 S
Mg294 O303 2.114 . S
Mg294 O304 2.251 . S
Mg294 O307 2.010 1_656 S
O295 Mg294 2.028 1_455 S
O295 C298 1.250 . S
O296 Mg297 2.028 1_455 S
O296 C298 1.248 . S
Mg297 O296 2.028 1_655 S
Mg297 O302 2.032 . S
Mg297 O304 2.079 . S
C298 O295 1.250 . S
C298 O296 1.248 . S
C299 O300 1.273 . S
C299 O307 1.249 . S
O300 C299 1.273 . S
O301 Mg294 1.986 1_455 S
O301 C305 1.246 1_455 S
O302 Mg297 2.032 . S
O302 C305 1.259 . S
O303 Mg294 2.114 . S
O303 C306 1.252 . S
O304 Mg294 2.251 . S
O304 Mg297 2.079 . S
O304 C306 1.273 . S
C305 O301 1.246 1_655 S
C305 O302 1.259 . S
C306 O303 1.252 . S
C306 O304 1.273 . S
O307 Mg294 2.010 1_454 S
O307 C299 1.249 . S
Mg308 O309 2.028 . S
Mg308 O315 1.986 . S
Mg308 O317 2.114 . S
Mg308 O318 2.251 . S
Mg308 O321 2.010 . S
O309 Mg308 2.028 . S
O309 C312 1.250 . S
O310 Mg311 2.028 . S
O310 C312 1.248 . S
Mg311 O310 2.028 . S
Mg311 O316 2.032 . S
Mg311 O318 2.079 . S
C312 O309 1.250 . S
C312 O310 1.248 . S
C313 O314 1.264 . S
C313 O321 1.249 . S
O314 C313 1.264 . S
O315 Mg308 1.986 . S
O315 C319 1.246 . S
O316 Mg311 2.032 . S
O316 C319 1.259 . S
O317 Mg308 2.114 . S
O317 C320 1.252 . S
O318 Mg308 2.251 . S
O318 Mg311 2.079 . S
O318 C320 1.273 . S
C319 O315 1.246 . S
C319 O316 1.259 . S
C320 O317 1.252 . S
C320 O318 1.273 . S
O321 Mg308 2.010 . S
O321 C313 1.249 . S
Mg322 O323 2.028 . S
Mg322 O329 1.986 . S
Mg322 O331 2.114 . S
Mg322 O332 2.251 . S
Mg322 O335 2.010 . S
O323 Mg322 2.028 . S
O323 C326 1.250 . S
O324 Mg325 2.028 . S
O324 C326 1.248 . S
Mg325 O324 2.028 . S
Mg325 O330 2.032 . S
Mg325 O332 2.079 . S
C326 O323 1.250 . S
C326 O324 1.248 . S
C327 O328 1.264 . S
C327 O335 1.249 . S
O328 C327 1.264 . S
O329 Mg322 1.986 . S
O329 C333 1.246 . S
O330 Mg325 2.032 . S
O330 C333 1.259 . S
O331 Mg322 2.114 . S
O331 C334 1.252 . S
O332 Mg322 2.251 . S
O332 Mg325 2.079 . S
O332 C334 1.273 . S
C333 O329 1.246 . S
C333 O330 1.259 . S
C334 O331 1.252 . S
C334 O332 1.273 . S
O335 Mg322 2.010 . S
O335 C327 1.249 . S
Mg336 O337 2.028 . S
Mg336 O343 1.986 . S
Mg336 O345 2.114 . S
Mg336 O346 2.251 . S
Mg336 O349 2.010 . S
O337 Mg336 2.028 . S
O337 C340 1.250 . S
O338 Mg339 2.028 . S
O338 C340 1.248 . S
Mg339 O338 2.028 . S
Mg339 O344 2.032 . S
Mg339 O346 2.079 . S
C340 O337 1.250 . S
C340 O338 1.248 . S
C341 O342 1.264 . S
C341 O349 1.249 . S
O342 C341 1.264 . S
O343 Mg336 1.986 . S
O343 C347 1.246 . S
O344 Mg339 2.032 . S
O344 C347 1.259 . S
O345 Mg336 2.114 . S
O345 C348 1.252 . S
O346 Mg336 2.251 . S
O346 Mg339 2.079 . S
O346 C348 1.273 . S
C347 O343 1.246 . S
C347 O344 1.259 . S
C348 O345 1.252 . S
C348 O346 1.273 . S
O349 Mg336 2.010 . S
O349 C341 1.249 . S
Mg350 O351 2.028 . S
Mg350 O357 1.986 . S
Mg350 O359 2.114 . S
Mg350 O360 2.251 . S
Mg350 O363 2.010 1_556 S
O351 Mg350 2.028 . S
O351 C354 1.250 . S
O352 Mg353 2.028 . S
O352 C354 1.248 . S
Mg353 O352 2.028 . S
Mg353 O358 2.032 . S
Mg353 O360 2.079 . S
C354 O351 1.250 . S
C354 O352 1.248 . S
C355 O356 1.264 . S
C355 O363 1.249 . S
O356 C355 1.264 . S
O357 Mg350 1.986 . S
O357 C361 1.246 . S
O358 Mg353 2.032 . S
O358 C361 1.259 . S
O359 Mg350 2.114 . S
O359 C362 1.252 . S
O360 Mg350 2.251 . S
O360 Mg353 2.079 . S
O360 C362 1.273 . S
C361 O357 1.246 . S
C361 O358 1.259 . S
C362 O359 1.252 . S
C362 O360 1.273 . S
O363 Mg350 2.010 1_554 S
O363 C355 1.249 . S
Mg364 O365 2.028 . S
Mg364 O371 1.986 . S
Mg364 O373 2.114 . S
Mg364 O374 2.251 . S
Mg364 O377 2.010 . S
O365 Mg364 2.028 . S
O365 C368 1.250 . S
O366 Mg367 2.028 . S
O366 C368 1.248 . S
Mg367 O366 2.028 . S
Mg367 O372 2.032 . S
Mg367 O374 2.079 . S
C368 O365 1.250 . S
C368 O366 1.248 . S
C369 O370 1.264 . S
C369 O377 1.249 . S
O370 C369 1.264 . S
O371 Mg364 1.986 . S
O371 C375 1.246 . S
O372 Mg367 2.032 . S
O372 C375 1.259 . S
O373 Mg364 2.114 . S
O373 C376 1.252 . S
O374 Mg364 2.251 . S
O374 Mg367 2.079 . S
O374 C376 1.273 . S
C375 O371 1.246 . S
C375 O372 1.259 . S
C376 O373 1.252 . S
C376 O374 1.273 . S
O377 Mg364 2.010 . S
O377 C369 1.249 . S
Mg378 O379 2.028 . S
Mg378 O385 1.986 . S
Mg378 O387 2.114 1_655 S
Mg378 O388 2.251 1_655 S
Mg378 O391 2.010 . S
O379 Mg378 2.028 . S
O379 C382 1.250 . S
O380 Mg381 2.028 . S
O380 C382 1.248 . S
Mg381 O380 2.028 . S
Mg381 O386 2.032 . S
Mg381 O388 2.079 1_655 S
C382 O379 1.250 . S
C382 O380 1.248 . S
C383 O384 1.264 . S
C383 O391 1.249 . S
O384 C383 1.264 . S
O385 Mg378 1.986 . S
O385 C389 1.246 . S
O386 Mg381 2.032 . S
O386 C389 1.259 . S
O387 Mg378 2.114 1_455 S
O387 C390 1.252 . S
O388 Mg378 2.251 1_455 S
O388 Mg381 2.079 1_455 S
O388 C390 1.273 . S
C389 O385 1.246 . S
C389 O386 1.259 . S
C390 O387 1.252 . S
C390 O388 1.273 . S
O391 Mg378 2.010 . S
O391 C383 1.249 . S
Mg392 O393 2.028 . S
Mg392 O399 1.986 . S
Mg392 O401 2.114 . S
Mg392 O402 2.251 . S
Mg392 O405 2.010 . S
O393 Mg392 2.028 . S
O393 C396 1.250 . S
O394 Mg395 2.028 . S
O394 C396 1.248 . S
Mg395 O394 2.028 . S
Mg395 O400 2.032 . S
Mg395 O402 2.079 . S
C396 O393 1.250 . S
C396 O394 1.248 . S
C397 O398 1.264 . S
C397 O405 1.249 . S
O398 C397 1.264 . S
O399 Mg392 1.986 . S
O399 C403 1.246 . S
O400 Mg395 2.032 . S
O400 C403 1.259 . S
O401 Mg392 2.114 . S
O401 C404 1.252 . S
O402 Mg392 2.251 . S
O402 Mg395 2.079 . S
O402 C404 1.273 . S
C403 O399 1.246 . S
C403 O400 1.259 . S
C404 O401 1.252 . S
C404 O402 1.273 . S
O405 Mg392 2.010 . S
O405 C397 1.249 . S
Mg406 O407 2.028 . S
Mg406 O413 1.986 . S
Mg406 O415 2.114 1_655 S
Mg406 O416 2.251 1_655 S
Mg406 O419 2.010 1_554 S
O407 Mg406 2.028 . S
O407 C410 1.250 . S
O408 Mg409 2.028 . S
O408 C410 1.248 . S
Mg409 O408 2.028 . S
Mg409 O414 2.032 . S
Mg409 O416 2.079 1_655 S
C410 O407 1.250 . S
C410 O408 1.248 . S
C411 O412 1.264 . S
C411 O419 1.249 . S
O412 C411 1.264 . S
O413 Mg406 1.986 . S
O413 C417 1.246 . S
O414 Mg409 2.032 . S
O414 C417 1.259 . S
O415 Mg406 2.114 1_455 S
O415 C418 1.252 . S
O416 Mg406 2.251 1_455 S
O416 Mg409 2.079 1_455 S
O416 C418 1.273 . S
C417 O413 1.246 . S
C417 O414 1.259 . S
C418 O415 1.252 . S
C418 O416 1.273 . S
O419 Mg406 2.010 1_556 S
O419 C411 1.249 . S
Mg420 O421 2.028 . S
Mg420 O427 1.986 . S
Mg420 O429 2.114 . S
Mg420 O430 2.251 . S
Mg420 O433 2.010 . S
O421 Mg420 2.028 . S
O421 C424 1.250 . S
O422 Mg423 2.028 . S
O422 C424 1.248 . S
Mg423 O422 2.028 . S
Mg423 O428 2.032 . S
Mg423 O430 2.079 . S
C424 O421 1.250 . S
C424 O422 1.248 . S
C425 O426 1.264 . S
C425 O433 1.249 . S
O426 C425 1.264 . S
O427 Mg420 1.986 . S
O427 C431 1.246 . S
O428 Mg423 2.032 . S
O428 C431 1.259 . S
O429 Mg420 2.114 . S
O429 C432 1.252 . S
O430 Mg420 2.251 . S
O430 Mg423 2.079 . S
O430 C432 1.273 . S
C431 O427 1.246 . S
C431 O428 1.259 . S
C432 O429 1.252 . S
C432 O430 1.273 . S
O433 Mg420 2.010 . S
O433 C425 1.249 . S
Mg434 O435 2.028 . S
Mg434 O441 1.986 . S
Mg434 O443 2.114 . S
Mg434 O444 2.251 . S
Mg434 O447 2.010 . S
O435 Mg434 2.028 . S
O435 C438 1.250 . S
O436 Mg437 2.028 . S
O436 C438 1.248 . S
Mg437 O436 2.028 . S
Mg437 O442 2.032 . S
Mg437 O444 2.079 . S
C438 O435 1.250 . S
C438 O436 1.248 . S
C439 O440 1.264 . S
C439 O447 1.249 . S
O440 C439 1.264 . S
O441 Mg434 1.986 . S
O441 C445 1.246 . S
O442 Mg437 2.032 . S
O442 C445 1.259 . S
O443 Mg434 2.114 . S
O443 C446 1.252 . S
O444 Mg434 2.251 . S
O444 Mg437 2.079 . S
O444 C446 1.273 . S
C445 O441 1.246 . S
C445 O442 1.259 . S
C446 O443 1.252 . S
C446 O444 1.273 . S
O447 Mg434 2.010 . S
O447 C439 1.249 . S
C448 C449 1.369 . S
C448 C450 1.419 . S
C448 H452 0.930 . S
C449 C448 1.369 . S
C449 C458 1.429 . S
C450 C448 1.419 . S
C450 C451 1.363 . S
C450 H453 0.929 . S
C451 C450 1.363 . S
C451 C457 1.428 . S
H452 C448 0.930 . S
H453 C450 0.929 . S
S454 N455 1.613 . S
S454 N456 1.610 . S
N455 S454 1.613 . S
N455 C458 1.350 . S
N456 S454 1.610 . S
N456 C457 1.351 . S
C457 C451 1.428 . S
C457 N456 1.351 . S
C457 C458 1.434 . S
C458 C449 1.429 . S
C458 N455 1.350 . S
C458 C457 1.434 . S
C459 C460 1.369 . S
C459 C461 1.419 . S
C459 H463 0.930 . S
C460 C459 1.369 . S
C460 C469 1.429 . S
C461 C459 1.419 . S
C461 C462 1.363 . S
C461 H464 0.929 . S
C462 C461 1.363 . S
C462 C468 1.428 . S
H463 C459 0.930 . S
H464 C461 0.929 . S
S465 N466 1.613 . S
S465 N467 1.610 . S
N466 S465 1.613 . S
N466 C469 1.350 . S
N467 S465 1.610 . S
N467 C468 1.351 . S
C468 C462 1.428 . S
C468 N467 1.351 . S
C468 C469 1.434 . S
C469 C460 1.429 . S
C469 N466 1.350 . S
C469 C468 1.434 . S
C470 C471 1.369 . S
C470 C472 1.419 . S
C470 H474 0.930 . S
C471 C470 1.369 . S
C471 C480 1.429 . S
C472 C470 1.419 . S
C472 C473 1.363 . S
C472 H475 0.929 . S
C473 C472 1.363 . S
C473 C479 1.428 . S
H474 C470 0.930 . S
H475 C472 0.929 . S
S476 N477 1.613 . S
S476 N478 1.610 . S
N477 S476 1.613 . S
N477 C480 1.350 . S
N478 S476 1.610 . S
N478 C479 1.351 . S
C479 C473 1.428 . S
C479 N478 1.351 . S
C479 C480 1.434 . S
C480 C471 1.429 . S
C480 N477 1.350 . S
C480 C479 1.434 . S
C481 C482 1.369 . S
C481 C483 1.419 . S
C481 H485 0.930 . S
C482 C481 1.369 . S
C482 C491 1.429 . S
C483 C481 1.419 . S
C483 C484 1.363 . S
C483 H486 0.929 . S
C484 C483 1.363 . S
C484 C490 1.428 . S
H485 C481 0.930 . S
H486 C483 0.929 . S
S487 N488 1.613 . S
S487 N489 1.610 . S
N488 S487 1.613 . S
N488 C491 1.350 . S
N489 S487 1.610 . S
N489 C490 1.351 . S
C490 C484 1.428 . S
C490 N489 1.351 . S
C490 C491 1.434 . S
C491 C482 1.429 . S
C491 N488 1.350 . S
C491 C490 1.434 . S
C492 C493 1.369 . S
C492 C494 1.419 . S
C492 H496 0.930 . S
C493 C492 1.369 . S
C493 C502 1.429 . S
C494 C492 1.419 . S
C494 C495 1.363 . S
C494 H497 0.929 . S
C495 C494 1.363 . S
C495 C501 1.428 . S
H496 C492 0.930 . S
H497 C494 0.929 . S
S498 N499 1.613 . S
S498 N500 1.610 . S
N499 S498 1.613 . S
N499 C502 1.350 . S
N500 S498 1.610 . S
N500 C501 1.351 . S
C501 C495 1.428 . S
C501 N500 1.351 . S
C501 C502 1.434 . S
C502 C493 1.429 . S
C502 N499 1.350 . S
C502 C501 1.434 . S
C503 C504 1.369 . S
C503 C505 1.419 . S
C503 H507 0.930 . S
C504 C503 1.369 . S
C504 C513 1.429 . S
C505 C503 1.419 . S
C505 C506 1.363 . S
C505 H508 0.929 . S
C506 C505 1.363 . S
C506 C512 1.428 . S
H507 C503 0.930 . S
H508 C505 0.929 . S
S509 N510 1.613 . S
S509 N511 1.610 . S
N510 S509 1.613 . S
N510 C513 1.350 . S
N511 S509 1.610 . S
N511 C512 1.351 . S
C512 C506 1.428 . S
C512 N511 1.351 . S
C512 C513 1.434 . S
C513 C504 1.429 . S
C513 N510 1.350 . S
C513 C512 1.434 . S
C514 C515 1.369 . S
C514 C516 1.419 . S
C514 H518 0.930 . S
C515 C514 1.369 . S
C515 C524 1.429 . S
C516 C514 1.419 . S
C516 C517 1.363 . S
C516 H519 0.929 . S
C517 C516 1.363 . S
C517 C523 1.428 . S
H518 C514 0.930 . S
H519 C516 0.929 . S
S520 N521 1.613 . S
S520 N522 1.610 . S
N521 S520 1.613 . S
N521 C524 1.350 . S
N522 S520 1.610 . S
N522 C523 1.351 . S
C523 C517 1.428 . S
C523 N522 1.351 . S
C523 C524 1.434 . S
C524 C515 1.429 . S
C524 N521 1.350 . S
C524 C523 1.434 . S
C525 C526 1.369 . S
C525 C527 1.419 . S
C525 H529 0.930 . S
C526 C525 1.369 . S
C526 C535 1.429 . S
C527 C525 1.419 . S
C527 C528 1.363 . S
C527 H530 0.929 . S
C528 C527 1.363 . S
C528 C534 1.428 . S
H529 C525 0.930 . S
H530 C527 0.929 . S
S531 N532 1.613 . S
S531 N533 1.610 . S
N532 S531 1.613 . S
N532 C535 1.350 . S
N533 S531 1.610 . S
N533 C534 1.351 . S
C534 C528 1.428 . S
C534 N533 1.351 . S
C534 C535 1.434 . S
C535 C526 1.429 . S
C535 N532 1.350 . S
C535 C534 1.434 . S
C536 C537 1.369 . S
C536 C538 1.419 . S
C536 H540 0.930 . S
C537 C536 1.369 . S
C537 C546 1.429 . S
C538 C536 1.419 . S
C538 C539 1.363 . S
C538 H541 0.929 . S
C539 C538 1.363 . S
C539 C545 1.428 . S
H540 C536 0.930 . S
H541 C538 0.929 . S
S542 N543 1.613 . S
S542 N544 1.610 . S
N543 S542 1.613 . S
N543 C546 1.350 . S
N544 S542 1.610 . S
N544 C545 1.351 . S
C545 C539 1.428 . S
C545 N544 1.351 . S
C545 C546 1.434 . S
C546 C537 1.429 . S
C546 N543 1.350 . S
C546 C545 1.434 . S
C547 C548 1.369 . S
C547 C549 1.419 . S
C547 H551 0.930 . S
C548 C547 1.369 . S
C548 C557 1.429 . S
C549 C547 1.419 . S
C549 C550 1.363 . S
C549 H552 0.929 . S
C550 C549 1.363 . S
C550 C556 1.428 . S
H551 C547 0.930 . S
H552 C549 0.929 . S
S553 N554 1.613 . S
S553 N555 1.610 . S
N554 S553 1.613 . S
N554 C557 1.350 . S
N555 S553 1.610 . S
N555 C556 1.351 . S
C556 C550 1.428 . S
C556 N555 1.351 . S
C556 C557 1.434 . S
C557 C548 1.429 . S
C557 N554 1.350 . S
C557 C556 1.434 . S
C558 C559 1.369 . S
C558 C560 1.419 . S
C558 H562 0.930 . S
C559 C558 1.369 . S
C559 C568 1.429 . S
C560 C558 1.419 . S
C560 C561 1.363 . S
C560 H563 0.929 . S
C561 C560 1.363 . S
C561 C567 1.428 . S
H562 C558 0.930 . S
H563 C560 0.929 . S
S564 N565 1.613 . S
S564 N566 1.610 . S
N565 S564 1.613 . S
N565 C568 1.350 . S
N566 S564 1.610 . S
N566 C567 1.351 . S
C567 C561 1.428 . S
C567 N566 1.351 . S
C567 C568 1.434 . S
C568 C559 1.429 . S
C568 N565 1.350 . S
C568 C567 1.434 . S
C569 C570 1.369 . S
C569 C571 1.419 . S
C569 H573 0.930 . S
C570 C569 1.369 . S
C570 C579 1.429 . S
C571 C569 1.419 . S
C571 C572 1.363 . S
C571 H574 0.929 . S
C572 C571 1.363 . S
C572 C578 1.428 . S
H573 C569 0.930 . S
H574 C571 0.929 . S
S575 N576 1.613 . S
S575 N577 1.610 . S
N576 S575 1.613 . S
N576 C579 1.350 . S
N577 S575 1.610 . S
N577 C578 1.351 . S
C578 C572 1.428 . S
C578 N577 1.351 . S
C578 C579 1.434 . S
C579 C570 1.429 . S
C579 N576 1.350 . S
C579 C578 1.434 . S
C580 C581 1.369 . S
C580 C582 1.419 . S
C580 H584 0.930 . S
C581 C580 1.369 . S
C581 C590 1.429 . S
C582 C580 1.419 . S
C582 C583 1.363 . S
C582 H585 0.929 . S
C583 C582 1.363 . S
C583 C589 1.428 . S
H584 C580 0.930 . S
H585 C582 0.929 . S
S586 N587 1.613 . S
S586 N588 1.610 . S
N587 S586 1.613 . S
N587 C590 1.350 . S
N588 S586 1.610 . S
N588 C589 1.351 . S
C589 C583 1.428 . S
C589 N588 1.351 . S
C589 C590 1.434 . S
C590 C581 1.429 . S
C590 N587 1.350 . S
C590 C589 1.434 . S
C591 C592 1.369 . S
C591 C593 1.419 . S
C591 H595 0.930 . S
C592 C591 1.369 . S
C592 C601 1.429 . S
C593 C591 1.419 . S
C593 C594 1.363 . S
C593 H596 0.929 . S
C594 C593 1.363 . S
C594 C600 1.428 . S
H595 C591 0.930 . S
H596 C593 0.929 . S
S597 N598 1.613 . S
S597 N599 1.610 . S
N598 S597 1.613 . S
N598 C601 1.350 . S
N599 S597 1.610 . S
N599 C600 1.351 . S
C600 C594 1.428 . S
C600 N599 1.351 . S
C600 C601 1.434 . S
C601 C592 1.429 . S
C601 N598 1.350 . S
C601 C600 1.434 . S
C602 C603 1.369 . S
C602 C604 1.419 . S
C602 H606 0.930 . S
C603 C602 1.369 . S
C603 C612 1.429 . S
C604 C602 1.419 . S
C604 C605 1.363 . S
C604 H607 0.929 . S
C605 C604 1.363 . S
C605 C611 1.428 . S
H606 C602 0.930 . S
H607 C604 0.929 . S
S608 N609 1.613 . S
S608 N610 1.610 . S
N609 S608 1.613 . S
N609 C612 1.350 . S
N610 S608 1.610 . S
N610 C611 1.351 . S
C611 C605 1.428 . S
C611 N610 1.351 . S
C611 C612 1.434 . S
C612 C603 1.429 . S
C612 N609 1.350 . S
C612 C611 1.434 . S
C613 C614 1.369 . S
C613 C615 1.419 . S
C613 H617 0.930 . S
C614 C613 1.369 . S
C614 C623 1.429 . S
C615 C613 1.419 . S
C615 C616 1.363 . S
C615 H618 0.929 . S
C616 C615 1.363 . S
C616 C622 1.428 . S
H617 C613 0.930 . S
H618 C615 0.929 . S
S619 N620 1.613 . S
S619 N621 1.610 . S
N620 S619 1.613 . S
N620 C623 1.350 . S
N621 S619 1.610 . S
N621 C622 1.351 . S
C622 C616 1.428 . S
C622 N621 1.351 . S
C622 C623 1.434 . S
C623 C614 1.429 . S
C623 N620 1.350 . S
C623 C622 1.434 . S
C624 C625 1.369 . S
C624 C626 1.419 . S
C624 H628 0.930 . S
C625 C624 1.369 . S
C625 C634 1.429 . S
C626 C624 1.419 . S
C626 C627 1.363 . S
C626 H629 0.929 . S
C627 C626 1.363 . S
C627 C633 1.428 . S
H628 C624 0.930 . S
H629 C626 0.929 . S
S630 N631 1.613 . S
S630 N632 1.610 . S
N631 S630 1.613 . S
N631 C634 1.350 . S
N632 S630 1.610 . S
N632 C633 1.351 . S
C633 C627 1.428 . S
C633 N632 1.351 . S
C633 C634 1.434 . S
C634 C625 1.429 . S
C634 N631 1.350 . S
C634 C633 1.434 . S
C635 C636 1.369 . S
C635 C637 1.419 . S
C635 H639 0.930 . S
C636 C635 1.369 . S
C636 C645 1.429 . S
C637 C635 1.419 . S
C637 C638 1.363 . S
C637 H640 0.929 . S
C638 C637 1.363 . S
C638 C644 1.428 . S
H639 C635 0.930 . S
H640 C637 0.929 . S
S641 N642 1.613 . S
S641 N643 1.610 . S
N642 S641 1.613 . S
N642 C645 1.350 . S
N643 S641 1.610 . S
N643 C644 1.351 . S
C644 C638 1.428 . S
C644 N643 1.351 . S
C644 C645 1.434 . S
C645 C636 1.429 . S
C645 N642 1.350 . S
C645 C644 1.434 . S
C646 C647 1.369 . S
C646 C648 1.419 . S
C646 H650 0.930 . S
C647 C646 1.369 . S
C647 C656 1.429 . S
C648 C646 1.419 . S
C648 C649 1.363 . S
C648 H651 0.929 . S
C649 C648 1.363 . S
C649 C655 1.428 . S
H650 C646 0.930 . S
H651 C648 0.929 . S
S652 N653 1.613 . S
S652 N654 1.610 . S
N653 S652 1.613 . S
N653 C656 1.350 . S
N654 S652 1.610 . S
N654 C655 1.351 . S
C655 C649 1.428 . S
C655 N654 1.351 . S
C655 C656 1.434 . S
C656 C647 1.429 . S
C656 N653 1.350 . S
C656 C655 1.434 . S
C657 C658 1.369 . S
C657 C659 1.419 . S
C657 H661 0.930 . S
C658 C657 1.369 . S
C658 C667 1.429 . S
C659 C657 1.419 . S
C659 C660 1.363 . S
C659 H662 0.929 . S
C660 C659 1.363 . S
C660 C666 1.428 . S
H661 C657 0.930 . S
H662 C659 0.929 . S
S663 N664 1.613 . S
S663 N665 1.610 . S
N664 S663 1.613 . S
N664 C667 1.350 . S
N665 S663 1.610 . S
N665 C666 1.351 . S
C666 C660 1.428 . S
C666 N665 1.351 . S
C666 C667 1.434 . S
C667 C658 1.429 . S
C667 N664 1.350 . S
C667 C666 1.434 . S
C668 C669 1.369 . S
C668 C670 1.419 . S
C668 H672 0.930 . S
C669 C668 1.369 . S
C669 C678 1.429 . S
C670 C668 1.419 . S
C670 C671 1.363 . S
C670 H673 0.929 . S
C671 C670 1.363 . S
C671 C677 1.428 . S
H672 C668 0.930 . S
H673 C670 0.929 . S
S674 N675 1.613 . S
S674 N676 1.610 . S
N675 S674 1.613 . S
N675 C678 1.350 . S
N676 S674 1.610 . S
N676 C677 1.351 . S
C677 C671 1.428 . S
C677 N676 1.351 . S
C677 C678 1.434 . S
C678 C669 1.429 . S
C678 N675 1.350 . S
C678 C677 1.434 . S
C679 C680 1.369 . S
C679 C681 1.419 . S
C679 H683 0.930 . S
C680 C679 1.369 . S
C680 C689 1.429 . S
C681 C679 1.419 . S
C681 C682 1.363 . S
C681 H684 0.929 . S
C682 C681 1.363 . S
C682 C688 1.428 . S
H683 C679 0.930 . S
H684 C681 0.929 . S
S685 N686 1.613 . S
S685 N687 1.610 . S
N686 S685 1.613 . S
N686 C689 1.350 . S
N687 S685 1.610 . S
N687 C688 1.351 . S
C688 C682 1.428 . S
C688 N687 1.351 . S
C688 C689 1.434 . S
C689 C680 1.429 . S
C689 N686 1.350 . S
C689 C688 1.434 . S
C690 C691 1.369 . S
C690 C692 1.419 . S
C690 H694 0.930 . S
C691 C690 1.369 . S
C691 C700 1.429 . S
C692 C690 1.419 . S
C692 C693 1.363 . S
C692 H695 0.929 . S
C693 C692 1.363 . S
C693 C699 1.428 . S
H694 C690 0.930 . S
H695 C692 0.929 . S
S696 N697 1.613 . S
S696 N698 1.610 . S
N697 S696 1.613 . S
N697 C700 1.350 . S
N698 S696 1.610 . S
N698 C699 1.351 . S
C699 C693 1.428 . S
C699 N698 1.351 . S
C699 C700 1.434 . S
C700 C691 1.429 . S
C700 N697 1.350 . S
C700 C699 1.434 . S
C701 C702 1.369 . S
C701 C703 1.419 . S
C701 H705 0.930 . S
C702 C701 1.369 . S
C702 C711 1.429 . S
C703 C701 1.419 . S
C703 C704 1.363 . S
C703 H706 0.929 . S
C704 C703 1.363 . S
C704 C710 1.428 . S
H705 C701 0.930 . S
H706 C703 0.929 . S
S707 N708 1.613 . S
S707 N709 1.610 . S
N708 S707 1.613 . S
N708 C711 1.350 . S
N709 S707 1.610 . S
N709 C710 1.351 . S
C710 C704 1.428 . S
C710 N709 1.351 . S
C710 C711 1.434 . S
C711 C702 1.429 . S
C711 N708 1.350 . S
C711 C710 1.434 . S
C712 C713 1.369 . S
C712 C714 1.419 . S
C712 H716 0.930 . S
C713 C712 1.369 . S
C713 C722 1.429 . S
C714 C712 1.419 . S
C714 C715 1.363 . S
C714 H717 0.929 . S
C715 C714 1.363 . S
C715 C721 1.428 . S
H716 C712 0.930 . S
H717 C714 0.929 . S
S718 N719 1.613 . S
S718 N720 1.610 . S
N719 S718 1.613 . S
N719 C722 1.350 . S
N720 S718 1.610 . S
N720 C721 1.351 . S
C721 C715 1.428 . S
C721 N720 1.351 . S
C721 C722 1.434 . S
C722 C713 1.429 . S
C722 N719 1.350 . S
C722 C721 1.434 . S
C723 C724 1.369 . S
C723 C725 1.419 . S
C723 H727 0.930 . S
C724 C723 1.369 . S
C724 C733 1.429 . S
C725 C723 1.419 . S
C725 C726 1.363 . S
C725 H728 0.929 . S
C726 C725 1.363 . S
C726 C732 1.428 . S
H727 C723 0.930 . S
H728 C725 0.929 . S
S729 N730 1.613 . S
S729 N731 1.610 . S
N730 S729 1.613 . S
N730 C733 1.350 . S
N731 S729 1.610 . S
N731 C732 1.351 . S
C732 C726 1.428 . S
C732 N731 1.351 . S
C732 C733 1.434 . S
C733 C724 1.429 . S
C733 N730 1.350 . S
C733 C732 1.434 . S
C734 C735 1.369 . S
C734 C736 1.419 . S
C734 H738 0.930 . S
C735 C734 1.369 . S
C735 C744 1.429 . S
C736 C734 1.419 . S
C736 C737 1.363 . S
C736 H739 0.929 . S
C737 C736 1.363 . S
C737 C743 1.428 . S
H738 C734 0.930 . S
H739 C736 0.929 . S
S740 N741 1.613 . S
S740 N742 1.610 . S
N741 S740 1.613 . S
N741 C744 1.350 . S
N742 S740 1.610 . S
N742 C743 1.351 . S
C743 C737 1.428 . S
C743 N742 1.351 . S
C743 C744 1.434 . S
C744 C735 1.429 . S
C744 N741 1.350 . S
C744 C743 1.434 . S
C745 C746 1.369 . S
C745 C747 1.419 . S
C745 H749 0.930 . S
C746 C745 1.369 . S
C746 C755 1.429 . S
C747 C745 1.419 . S
C747 C748 1.363 . S
C747 H750 0.929 . S
C748 C747 1.363 . S
C748 C754 1.428 . S
H749 C745 0.930 . S
H750 C747 0.929 . S
S751 N752 1.613 . S
S751 N753 1.610 . S
N752 S751 1.613 . S
N752 C755 1.350 . S
N753 S751 1.610 . S
N753 C754 1.351 . S
C754 C748 1.428 . S
C754 N753 1.351 . S
C754 C755 1.434 . S
C755 C746 1.429 . S
C755 N752 1.350 . S
C755 C754 1.434 . S
C756 C757 1.369 . S
C756 C758 1.419 . S
C756 H760 0.930 . S
C757 C756 1.369 . S
C757 C766 1.429 . S
C758 C756 1.419 . S
C758 C759 1.363 . S
C758 H761 0.929 . S
C759 C758 1.363 . S
C759 C765 1.428 . S
H760 C756 0.930 . S
H761 C758 0.929 . S
S762 N763 1.613 . S
S762 N764 1.610 . S
N763 S762 1.613 . S
N763 C766 1.350 . S
N764 S762 1.610 . S
N764 C765 1.351 . S
C765 C759 1.428 . S
C765 N764 1.351 . S
C765 C766 1.434 . S
C766 C757 1.429 . S
C766 N763 1.350 . S
C766 C765 1.434 . S
C767 C768 1.369 . S
C767 C769 1.419 . S
C767 H771 0.930 . S
C768 C767 1.369 . S
C768 C777 1.429 . S
C769 C767 1.419 . S
C769 C770 1.363 . S
C769 H772 0.929 . S
C770 C769 1.363 . S
C770 C776 1.428 . S
H771 C767 0.930 . S
H772 C769 0.929 . S
S773 N774 1.613 . S
S773 N775 1.610 . S
N774 S773 1.613 . S
N774 C777 1.350 . S
N775 S773 1.610 . S
N775 C776 1.351 . S
C776 C770 1.428 . S
C776 N775 1.351 . S
C776 C777 1.434 . S
C777 C768 1.429 . S
C777 N774 1.350 . S
C777 C776 1.434 . S
C778 C779 1.369 . S
C778 C780 1.419 . S
C778 H782 0.930 . S
C779 C778 1.369 . S
C779 C788 1.429 . S
C780 C778 1.419 . S
C780 C781 1.363 . S
C780 H783 0.929 . S
C781 C780 1.363 . S
C781 C787 1.428 . S
H782 C778 0.930 . S
H783 C780 0.929 . S
S784 N785 1.613 . S
S784 N786 1.610 . S
N785 S784 1.613 . S
N785 C788 1.350 . S
N786 S784 1.610 . S
N786 C787 1.351 . S
C787 C781 1.428 . S
C787 N786 1.351 . S
C787 C788 1.434 . S
C788 C779 1.429 . S
C788 N785 1.350 . S
C788 C787 1.434 . S
C789 C790 1.369 . S
C789 C791 1.419 . S
C789 H793 0.930 . S
C790 C789 1.369 . S
C790 C799 1.429 . S
C791 C789 1.419 . S
C791 C792 1.363 . S
C791 H794 0.929 . S
C792 C791 1.363 . S
C792 C798 1.428 . S
H793 C789 0.930 . S
H794 C791 0.929 . S
S795 N796 1.613 . S
S795 N797 1.610 . S
N796 S795 1.613 . S
N796 C799 1.350 . S
N797 S795 1.610 . S
N797 C798 1.351 . S
C798 C792 1.428 . S
C798 N797 1.351 . S
C798 C799 1.434 . S
C799 C790 1.429 . S
C799 N796 1.350 . S
C799 C798 1.434 . S
C800 C801 1.369 . S
C800 C802 1.419 . S
C800 H804 0.930 . S
C801 C800 1.369 . S
C801 C810 1.429 . S
C802 C800 1.419 . S
C802 C803 1.363 . S
C802 H805 0.929 . S
C803 C802 1.363 . S
C803 C809 1.428 . S
H804 C800 0.930 . S
H805 C802 0.929 . S
S806 N807 1.613 . S
S806 N808 1.610 . S
N807 S806 1.613 . S
N807 C810 1.350 . S
N808 S806 1.610 . S
N808 C809 1.351 . S
C809 C803 1.428 . S
C809 N808 1.351 . S
C809 C810 1.434 . S
C810 C801 1.429 . S
C810 N807 1.350 . S
C810 C809 1.434 . S
C811 C812 1.369 1_655 S
C811 C813 1.419 1_565 S
C811 H815 0.930 . S
C812 C811 1.369 1_455 S
C812 C821 1.429 . S
C813 C811 1.419 1_545 S
C813 C814 1.363 1_655 S
C813 H816 0.929 . S
C814 C813 1.363 1_455 S
C814 C820 1.428 . S
H815 C811 0.930 . S
H816 C813 0.929 . S
S817 N818 1.613 . S
S817 N819 1.610 1_565 S
N818 S817 1.613 . S
N818 C821 1.350 . S
N819 S817 1.610 1_545 S
N819 C820 1.351 . S
C820 C814 1.428 . S
C820 N819 1.351 . S
C820 C821 1.434 1_545 S
C821 C812 1.429 . S
C821 N818 1.350 . S
C821 C820 1.434 1_565 S
C822 C823 1.369 . S
C822 C824 1.419 . S
C822 H826 0.930 . S
C823 C822 1.369 . S
C823 C832 1.429 . S
C824 C822 1.419 . S
C824 C825 1.363 . S
C824 H827 0.929 . S
C825 C824 1.363 . S
C825 C831 1.428 . S
H826 C822 0.930 . S
H827 C824 0.929 . S
S828 N829 1.613 . S
S828 N830 1.610 . S
N829 S828 1.613 . S
N829 C832 1.350 . S
N830 S828 1.610 . S
N830 C831 1.351 . S
C831 C825 1.428 . S
C831 N830 1.351 . S
C831 C832 1.434 . S
C832 C823 1.429 . S
C832 N829 1.350 . S
C832 C831 1.434 . S
C833 C834 1.369 1_556 S
C833 C835 1.419 1_545 S
C833 H837 0.930 . S
C834 C833 1.369 1_554 S
C834 C843 1.429 . S
C835 C833 1.419 1_565 S
C835 C836 1.363 . S
C835 H838 0.929 . S
C836 C835 1.363 . S
C836 C842 1.428 1_556 S
H837 C833 0.930 . S
H838 C835 0.929 . S
S839 N840 1.613 1_565 S
S839 N841 1.610 . S
N840 S839 1.613 1_545 S
N840 C843 1.350 . S
N841 S839 1.610 . S
N841 C842 1.351 . S
C842 C836 1.428 1_554 S
C842 N841 1.351 . S
C842 C843 1.434 1_565 S
C843 C834 1.429 . S
C843 N840 1.350 . S
C843 C842 1.434 1_545 S
C844 C845 1.369 . S
C844 C846 1.419 . S
C844 H848 0.930 . S
C845 C844 1.369 . S
C845 C854 1.429 . S
C846 C844 1.419 . S
C846 C847 1.363 . S
C846 H849 0.929 . S
C847 C846 1.363 . S
C847 C853 1.428 . S
H848 C844 0.930 . S
H849 C846 0.929 . S
S850 N851 1.613 . S
S850 N852 1.610 . S
N851 S850 1.613 . S
N851 C854 1.350 . S
N852 S850 1.610 . S
N852 C853 1.351 . S
C853 C847 1.428 . S
C853 N852 1.351 . S
C853 C854 1.434 . S
C854 C845 1.429 . S
C854 N851 1.350 . S
C854 C853 1.434 . S
C855 C856 1.369 . S
C855 C857 1.419 1_565 S
C855 H859 0.930 . S
C856 C855 1.369 . S
C856 C865 1.429 . S
C857 C855 1.419 1_545 S
C857 C858 1.363 . S
C857 H860 0.929 . S
C858 C857 1.363 . S
C858 C864 1.428 . S
H859 C855 0.930 . S
H860 C857 0.929 . S
S861 N862 1.613 1_545 S
S861 N863 1.610 . S
N862 S861 1.613 1_565 S
N862 C865 1.350 . S
N863 S861 1.610 . S
N863 C864 1.351 . S
C864 C858 1.428 . S
C864 N863 1.351 . S
C864 C865 1.434 1_545 S
C865 C856 1.429 . S
C865 N862 1.350 . S
C865 C864 1.434 1_565 S
C866 C867 1.369 . S
C866 C868 1.419 . S
C866 H870 0.930 . S
C867 C866 1.369 . S
C867 C876 1.429 . S
C868 C866 1.419 . S
C868 C869 1.363 . S
C868 H871 0.929 . S
C869 C868 1.363 . S
C869 C875 1.428 . S
H870 C866 0.930 . S
H871 C868 0.929 . S
S872 N873 1.613 . S
S872 N874 1.610 . S
N873 S872 1.613 . S
N873 C876 1.350 . S
N874 S872 1.610 . S
N874 C875 1.351 . S
C875 C869 1.428 . S
C875 N874 1.351 . S
C875 C876 1.434 . S
C876 C867 1.429 . S
C876 N873 1.350 . S
C876 C875 1.434 . S
C877 C878 1.369 1_654 S
C877 C879 1.419 1_545 S
C877 H881 0.930 . S
C878 C877 1.369 1_456 S
C878 C887 1.429 . S
C879 C877 1.419 1_565 S
C879 C880 1.360 1_655 S
C879 H882 0.931 . S
C880 C879 1.360 1_455 S
C880 C886 1.428 1_554 S
H881 C877 0.930 . S
H882 C879 0.931 . S
S883 N884 1.613 1_565 S
S883 N885 1.610 . S
N884 S883 1.613 1_545 S
N884 C887 1.350 . S
N885 S883 1.610 . S
N885 C886 1.351 . S
C886 C880 1.428 1_556 S
C886 N885 1.351 . S
C886 C887 1.434 1_565 S
C887 C878 1.429 . S
C887 N884 1.350 . S
C887 C886 1.434 1_545 S
C888 C889 1.369 . S
C888 C890 1.419 . S
C888 H892 0.930 . S
C889 C888 1.369 . S
C889 C898 1.429 . S
C890 C888 1.419 . S
C890 C891 1.363 . S
C890 H893 0.929 . S
C891 C890 1.363 . S
C891 C897 1.428 . S
H892 C888 0.930 . S
H893 C890 0.929 . S
S894 N895 1.613 . S
S894 N896 1.610 . S
N895 S894 1.613 . S
N895 C898 1.350 . S
N896 S894 1.610 . S
N896 C897 1.351 . S
C897 C891 1.428 . S
C897 N896 1.351 . S
C897 C898 1.434 . S
C898 C889 1.429 . S
C898 N895 1.350 . S
C898 C897 1.434 . S
C899 C900 1.369 . S
C899 C901 1.419 . S
C899 H903 0.930 . S
C900 C899 1.369 . S
C900 C909 1.429 . S
C901 C899 1.419 . S
C901 C902 1.363 . S
C901 H904 0.929 . S
C902 C901 1.363 . S
C902 C908 1.428 . S
H903 C899 0.930 . S
H904 C901 0.929 . S
S905 N906 1.613 . S
S905 N907 1.610 . S
N906 S905 1.613 . S
N906 C909 1.350 . S
N907 S905 1.610 . S
N907 C908 1.351 . S
C908 C902 1.428 . S
C908 N907 1.351 . S
C908 C909 1.434 . S
C909 C900 1.429 . S
C909 N906 1.350 . S
C909 C908 1.434 . S
C910 C911 1.369 . S
C910 C912 1.419 . S
C910 H914 0.930 . S
C911 C910 1.369 . S
C911 C920 1.429 . S
C912 C910 1.419 . S
C912 C913 1.363 . S
C912 H915 0.929 . S
C913 C912 1.363 . S
C913 C919 1.428 . S
H914 C910 0.930 . S
H915 C912 0.929 . S
S916 N917 1.613 . S
S916 N918 1.610 . S
N917 S916 1.613 . S
N917 C920 1.350 . S
N918 S916 1.610 . S
N918 C919 1.351 . S
C919 C913 1.428 . S
C919 N918 1.351 . S
C919 C920 1.434 . S
C920 C911 1.429 . S
C920 N917 1.350 . S
C920 C919 1.434 . S
C921 C922 1.369 . S
C921 C923 1.419 . S
C921 H925 0.930 . S
C922 C921 1.369 . S
C922 C931 1.429 . S
C923 C921 1.419 . S
C923 C924 1.363 . S
C923 H926 0.929 . S
C924 C923 1.363 . S
C924 C930 1.428 . S
H925 C921 0.930 . S
H926 C923 0.929 . S
S927 N928 1.613 . S
S927 N929 1.610 . S
N928 S927 1.613 . S
N928 C931 1.350 . S
N929 S927 1.610 . S
N929 C930 1.351 . S
C930 C924 1.428 . S
C930 N929 1.351 . S
C930 C931 1.434 . S
C931 C922 1.429 . S
C931 N928 1.350 . S
C931 C930 1.434 . S
C932 C933 1.369 1_556 S
C932 C934 1.419 . S
C932 H936 0.930 . S
C933 C932 1.369 1_554 S
C933 C942 1.429 . S
C934 C932 1.419 . S
C934 C935 1.363 . S
C934 H937 0.929 . S
C935 C934 1.363 . S
C935 C941 1.428 1_556 S
H936 C932 0.930 . S
H937 C934 0.929 . S
S938 N939 1.613 . S
S938 N940 1.610 . S
N939 S938 1.613 . S
N939 C942 1.350 . S
N940 S938 1.610 . S
N940 C941 1.351 . S
C941 C935 1.428 1_554 S
C941 N940 1.351 . S
C941 C942 1.434 . S
C942 C933 1.429 . S
C942 N939 1.350 . S
C942 C941 1.434 . S
C943 C944 1.369 1_455 S
C943 C945 1.419 . S
C943 H947 0.930 . S
C944 C943 1.369 1_655 S
C944 C953 1.429 . S
C945 C943 1.419 . S
C945 C946 1.363 1_455 S
C945 H948 0.929 . S
C946 C945 1.363 1_655 S
C946 C952 1.428 . S
H947 C943 0.930 . S
H948 C945 0.929 . S
S949 N950 1.613 . S
S949 N951 1.610 . S
N950 S949 1.613 . S
N950 C953 1.350 . S
N951 S949 1.610 . S
N951 C952 1.351 . S
C952 C946 1.428 . S
C952 N951 1.351 . S
C952 C953 1.434 . S
C953 C944 1.429 . S
C953 N950 1.350 . S
C953 C952 1.434 . S
C954 C955 1.369 . S
C954 C956 1.419 . S
C954 H958 0.930 . S
C955 C954 1.369 . S
C955 C964 1.429 1_656 S
C956 C954 1.419 . S
C956 C957 1.363 1_556 S
C956 H959 0.929 . S
C957 C956 1.363 1_554 S
C957 C963 1.436 . S
H958 C954 0.930 . S
H959 C956 0.929 . S
S960 N961 1.613 . S
S960 N962 1.610 . S
N961 S960 1.613 . S
N961 C964 1.350 . S
N962 S960 1.610 . S
N962 C963 1.346 1_455 S
C963 C957 1.436 . S
C963 N962 1.346 1_655 S
C963 C964 1.432 1_655 S
C964 C955 1.429 1_454 S
C964 N961 1.350 . S
C964 C963 1.432 1_455 S
C965 C966 1.369 . S
C965 C967 1.419 . S
C965 H969 0.930 . S
C966 C965 1.369 . S
C966 C975 1.429 . S
C967 C965 1.419 . S
C967 C968 1.363 . S
C967 H970 0.929 . S
C968 C967 1.363 . S
C968 C974 1.428 . S
H969 C965 0.930 . S
H970 C967 0.929 . S
S971 N972 1.613 . S
S971 N973 1.610 . S
N972 S971 1.613 . S
N972 C975 1.350 . S
N973 S971 1.610 . S
N973 C974 1.351 . S
C974 C968 1.428 . S
C974 N973 1.351 . S
C974 C975 1.434 . S
C975 C966 1.429 . S
C975 N972 1.350 . S
C975 C974 1.434 . S
C976 C977 1.369 . S
C976 C978 1.419 . S
C976 H980 0.930 . S
C977 C976 1.369 . S
C977 C986 1.429 . S
C978 C976 1.419 . S
C978 C979 1.363 . S
C978 H981 0.929 . S
C979 C978 1.363 . S
C979 C985 1.428 . S
H980 C976 0.930 . S
H981 C978 0.929 . S
S982 N983 1.613 . S
S982 N984 1.610 . S
N983 S982 1.613 . S
N983 C986 1.350 . S
N984 S982 1.610 . S
N984 C985 1.351 . S
C985 C979 1.428 . S
C985 N984 1.351 . S
C985 C986 1.434 . S
C986 C977 1.429 . S
C986 N983 1.350 . S
C986 C985 1.434 . S
C987 C988 1.369 . S
C987 C989 1.419 . S
C987 H991 0.930 . S
C988 C987 1.369 . S
C988 C997 1.429 . S
C989 C987 1.419 . S
C989 C990 1.363 . S
C989 H992 0.929 . S
C990 C989 1.363 . S
C990 C996 1.428 . S
H991 C987 0.930 . S
H992 C989 0.929 . S
S993 N994 1.613 . S
S993 N995 1.610 . S
N994 S993 1.613 . S
N994 C997 1.350 . S
N995 S993 1.610 . S
N995 C996 1.351 . S
C996 C990 1.428 . S
C996 N995 1.351 . S
C996 C997 1.434 . S
C997 C988 1.429 . S
C997 N994 1.350 . S
C997 C996 1.434 . S
C998 C999 1.369 . S
C998 C1000 1.419 . S
C998 H1002 0.930 . S
C999 C998 1.369 . S
C999 C1008 1.429 . S
C1000 C998 1.419 . S
C1000 C1001 1.363 . S
C1000 H1003 0.929 . S
C1001 C1000 1.363 . S
C1001 C1007 1.428 . S
H1002 C998 0.930 . S
H1003 C1000 0.929 . S
S1004 N1005 1.613 . S
S1004 N1006 1.610 . S
N1005 S1004 1.613 . S
N1005 C1008 1.350 . S
N1006 S1004 1.610 . S
N1006 C1007 1.351 . S
C1007 C1001 1.428 . S
C1007 N1006 1.351 . S
C1007 C1008 1.434 . S
C1008 C999 1.429 . S
C1008 N1005 1.350 . S
C1008 C1007 1.434 . S
C1009 C1010 1.369 . S
C1009 C1011 1.419 . S
C1009 H1013 0.930 . S
C1010 C1009 1.369 . S
C1010 C1019 1.429 . S
C1011 C1009 1.419 . S
C1011 C1012 1.363 . S
C1011 H1014 0.929 . S
C1012 C1011 1.363 . S
C1012 C1018 1.428 . S
H1013 C1009 0.930 . S
H1014 C1011 0.929 . S
S1015 N1016 1.613 . S
S1015 N1017 1.610 . S
N1016 S1015 1.613 . S
N1016 C1019 1.350 . S
N1017 S1015 1.610 . S
N1017 C1018 1.351 . S
C1018 C1012 1.428 . S
C1018 N1017 1.351 . S
C1018 C1019 1.434 . S
C1019 C1010 1.429 . S
C1019 N1016 1.350 . S
C1019 C1018 1.434 . S
C1020 C1021 1.369 . S
C1020 C1022 1.419 . S
C1020 H1024 0.930 . S
C1021 C1020 1.369 . S
C1021 C1030 1.429 . S
C1022 C1020 1.419 . S
C1022 C1023 1.363 . S
C1022 H1025 0.929 . S
C1023 C1022 1.363 . S
C1023 C1029 1.428 . S
H1024 C1020 0.930 . S
H1025 C1022 0.929 . S
S1026 N1027 1.613 . S
S1026 N1028 1.610 . S
N1027 S1026 1.613 . S
N1027 C1030 1.350 . S
N1028 S1026 1.610 . S
N1028 C1029 1.351 . S
C1029 C1023 1.428 . S
C1029 N1028 1.351 . S
C1029 C1030 1.434 . S
C1030 C1021 1.429 . S
C1030 N1027 1.350 . S
C1030 C1029 1.434 . S
C1031 C1032 1.369 . S
C1031 C1033 1.419 . S
C1031 H1035 0.930 . S
C1032 C1031 1.369 . S
C1032 C1041 1.429 . S
C1033 C1031 1.419 . S
C1033 C1034 1.363 . S
C1033 H1036 0.929 . S
C1034 C1033 1.363 . S
C1034 C1040 1.428 . S
H1035 C1031 0.930 . S
H1036 C1033 0.929 . S
S1037 N1038 1.613 . S
S1037 N1039 1.610 . S
N1038 S1037 1.613 . S
N1038 C1041 1.350 . S
N1039 S1037 1.610 . S
N1039 C1040 1.351 . S
C1040 C1034 1.428 . S
C1040 N1039 1.351 . S
C1040 C1041 1.434 . S
C1041 C1032 1.429 . S
C1041 N1038 1.350 . S
C1041 C1040 1.434 . S
C1042 C1043 1.369 . S
C1042 C1044 1.419 . S
C1042 H1046 0.930 . S
C1043 C1042 1.369 . S
C1043 C1052 1.429 . S
C1044 C1042 1.419 . S
C1044 C1045 1.363 . S
C1044 H1047 0.929 . S
C1045 C1044 1.363 . S
C1045 C1051 1.428 . S
H1046 C1042 0.930 . S
H1047 C1044 0.929 . S
S1048 N1049 1.613 . S
S1048 N1050 1.610 . S
N1049 S1048 1.613 . S
N1049 C1052 1.350 . S
N1050 S1048 1.610 . S
N1050 C1051 1.351 . S
C1051 C1045 1.428 . S
C1051 N1050 1.351 . S
C1051 C1052 1.434 . S
C1052 C1043 1.429 . S
C1052 N1049 1.350 . S
C1052 C1051 1.434 . S
C1053 C1054 1.369 . S
C1053 C1055 1.419 . S
C1053 H1057 0.930 . S
C1054 C1053 1.369 . S
C1054 C1063 1.429 . S
C1055 C1053 1.419 . S
C1055 C1056 1.363 . S
C1055 H1058 0.929 . S
C1056 C1055 1.363 . S
C1056 C1062 1.428 . S
H1057 C1053 0.930 . S
H1058 C1055 0.929 . S
S1059 N1060 1.613 . S
S1059 N1061 1.610 . S
N1060 S1059 1.613 . S
N1060 C1063 1.350 . S
N1061 S1059 1.610 . S
N1061 C1062 1.351 . S
C1062 C1056 1.428 . S
C1062 N1061 1.351 . S
C1062 C1063 1.434 . S
C1063 C1054 1.429 . S
C1063 N1060 1.350 . S
C1063 C1062 1.434 . S
C1064 C1065 1.369 . S
C1064 C1066 1.419 . S
C1064 H1068 0.930 . S
C1065 C1064 1.369 . S
C1065 C1074 1.429 . S
C1066 C1064 1.419 . S
C1066 C1067 1.363 . S
C1066 H1069 0.929 . S
C1067 C1066 1.363 . S
C1067 C1073 1.428 . S
H1068 C1064 0.930 . S
H1069 C1066 0.929 . S
S1070 N1071 1.613 . S
S1070 N1072 1.610 . S
N1071 S1070 1.613 . S
N1071 C1074 1.350 . S
N1072 S1070 1.610 . S
N1072 C1073 1.351 . S
C1073 C1067 1.428 . S
C1073 N1072 1.351 . S
C1073 C1074 1.434 . S
C1074 C1065 1.429 . S
C1074 N1071 1.350 . S
C1074 C1073 1.434 . S
C1075 C1076 1.369 . S
C1075 C1077 1.419 . S
C1075 H1079 0.930 . S
C1076 C1075 1.369 . S
C1076 C1085 1.429 . S
C1077 C1075 1.419 . S
C1077 C1078 1.363 . S
C1077 H1080 0.929 . S
C1078 C1077 1.363 . S
C1078 C1084 1.428 . S
H1079 C1075 0.930 . S
H1080 C1077 0.929 . S
S1081 N1082 1.634 . S
S1081 N1083 1.615 . S
N1082 S1081 1.634 . S
N1082 C1085 1.350 . S
N1083 S1081 1.615 . S
N1083 C1084 1.351 . S
C1084 C1078 1.428 . S
C1084 N1083 1.351 . S
C1084 C1085 1.434 . S
C1085 C1076 1.429 . S
C1085 N1082 1.350 . S
C1085 C1084 1.434 . S
C1086 C1087 1.369 . S
C1086 C1088 1.419 . S
C1086 H1090 0.930 . S
C1087 C1086 1.369 . S
C1087 C1096 1.429 . S
C1088 C1086 1.419 . S
C1088 C1089 1.363 . S
C1088 H1091 0.929 . S
C1089 C1088 1.363 . S
C1089 C1095 1.428 . S
H1090 C1086 0.930 . S
H1091 C1088 0.929 . S
S1092 N1093 1.613 . S
S1092 N1094 1.610 . S
N1093 S1092 1.613 . S
N1093 C1096 1.350 . S
N1094 S1092 1.610 . S
N1094 C1095 1.351 . S
C1095 C1089 1.428 . S
C1095 N1094 1.351 . S
C1095 C1096 1.434 . S
C1096 C1087 1.429 . S
C1096 N1093 1.350 . S
C1096 C1095 1.434 . S
C1097 C1098 1.369 . S
C1097 C1099 1.419 . S
C1097 H1101 0.930 . S
C1098 C1097 1.369 . S
C1098 C1107 1.429 . S
C1099 C1097 1.419 . S
C1099 C1100 1.363 . S
C1099 H1102 0.929 . S
C1100 C1099 1.363 . S
C1100 C1106 1.428 . S
H1101 C1097 0.930 . S
H1102 C1099 0.929 . S
S1103 N1104 1.613 . S
S1103 N1105 1.610 . S
N1104 S1103 1.613 . S
N1104 C1107 1.350 . S
N1105 S1103 1.610 . S
N1105 C1106 1.351 . S
C1106 C1100 1.428 . S
C1106 N1105 1.351 . S
C1106 C1107 1.434 . S
C1107 C1098 1.429 . S
C1107 N1104 1.350 . S
C1107 C1106 1.434 . S
C1108 C1109 1.369 . S
C1108 C1110 1.419 . S
C1108 H1112 0.930 . S
C1109 C1108 1.369 . S
C1109 C1118 1.429 . S
C1110 C1108 1.419 . S
C1110 C1111 1.363 . S
C1110 H1113 0.929 . S
C1111 C1110 1.363 . S
C1111 C1117 1.428 . S
H1112 C1108 0.930 . S
H1113 C1110 0.929 . S
S1114 N1115 1.613 . S
S1114 N1116 1.610 . S
N1115 S1114 1.613 . S
N1115 C1118 1.350 . S
N1116 S1114 1.610 . S
N1116 C1117 1.351 . S
C1117 C1111 1.428 . S
C1117 N1116 1.351 . S
C1117 C1118 1.434 . S
C1118 C1109 1.429 . S
C1118 N1115 1.350 . S
C1118 C1117 1.434 . S
C1119 C1120 1.369 . S
C1119 C1121 1.419 . S
C1119 H1123 0.930 . S
C1120 C1119 1.369 . S
C1120 C1129 1.429 . S
C1121 C1119 1.419 . S
C1121 C1122 1.363 . S
C1121 H1124 0.929 . S
C1122 C1121 1.363 . S
C1122 C1128 1.428 . S
H1123 C1119 0.930 . S
H1124 C1121 0.929 . S
S1125 N1126 1.613 . S
S1125 N1127 1.610 . S
N1126 S1125 1.613 . S
N1126 C1129 1.350 . S
N1127 S1125 1.610 . S
N1127 C1128 1.351 . S
C1128 C1122 1.428 . S
C1128 N1127 1.351 . S
C1128 C1129 1.434 . S
C1129 C1120 1.429 . S
C1129 N1126 1.350 . S
C1129 C1128 1.434 . S
C1130 C1131 1.369 . S
C1130 C1132 1.419 . S
C1130 H1134 0.930 . S
C1131 C1130 1.369 . S
C1131 C1140 1.429 . S
C1132 C1130 1.419 . S
C1132 C1133 1.363 . S
C1132 H1135 0.929 . S
C1133 C1132 1.363 . S
C1133 C1139 1.428 . S
H1134 C1130 0.930 . S
H1135 C1132 0.929 . S
S1136 N1137 1.613 . S
S1136 N1138 1.610 . S
N1137 S1136 1.613 . S
N1137 C1140 1.350 . S
N1138 S1136 1.610 . S
N1138 C1139 1.351 . S
C1139 C1133 1.428 . S
C1139 N1138 1.351 . S
C1139 C1140 1.434 . S
C1140 C1131 1.429 . S
C1140 N1137 1.350 . S
C1140 C1139 1.434 . S
C1141 C1142 1.369 . S
C1141 C1143 1.419 . S
C1141 H1145 0.930 . S
C1142 C1141 1.369 . S
C1142 C1151 1.429 . S
C1143 C1141 1.419 . S
C1143 C1144 1.363 . S
C1143 H1146 0.929 . S
C1144 C1143 1.363 . S
C1144 C1150 1.428 . S
H1145 C1141 0.930 . S
H1146 C1143 0.929 . S
S1147 N1148 1.613 . S
S1147 N1149 1.610 . S
N1148 S1147 1.613 . S
N1148 C1151 1.350 . S
N1149 S1147 1.610 . S
N1149 C1150 1.351 . S
C1150 C1144 1.428 . S
C1150 N1149 1.351 . S
C1150 C1151 1.434 . S
C1151 C1142 1.429 . S
C1151 N1148 1.350 . S
C1151 C1150 1.434 . S
C449 C130 1.206 . S
C451 C4 1.173 . S
C460 C26 1.265 . S
C462 C368 1.236 . S
C471 C158 1.202 . S
C473 C32 1.162 . S
C482 C340 1.229 . S
C484 C54 1.266 . S
C493 C60 1.176 . S
C495 C214 1.209 . S
C504 C396 1.224 . S
C506 C82 1.271 . S
C515 C88 1.175 . S
C517 C186 1.207 . S
C526 C424 1.226 . S
C528 C110 1.273 . S
C537 C18 1.143 . S
C539 C124 1.127 . S
C548 C138 1.159 . S
C550 C264 1.175 . S
C559 C46 1.148 . S
C561 C152 1.129 . S
C570 C166 1.159 . S
C572 C236 1.176 . S
C581 C180 1.135 . S
C583 C102 1.136 . S
C592 C292 1.175 . S
C594 C194 1.159 . S
C603 C208 1.140 . S
C605 C74 1.139 . S
C614 C320 1.175 . S
C616 C222 1.159 . S
C625 C354 1.201 . S
C627 C228 1.166 . S
C636 C144 1.238 . S
C638 C250 1.267 . S
C647 C256 1.159 . S
C649 C382 1.210 . S
C658 C116 1.238 . S
C660 C278 1.267 . S
C669 C438 1.215 . S
C671 C284 1.165 . S
C680 C306 1.264 . S
C682 C172 1.233 . S
C691 C410 1.216 . S
C693 C312 1.172 . S
C702 C200 1.233 . S
C704 C334 1.266 . S
C713 C242 1.137 . S
C715 C348 1.130 . S
C724 C362 1.163 . S
C726 C40 1.176 . S
C735 C376 1.140 . S
C737 C270 1.139 . S
C746 C390 1.160 . S
C748 C12 1.172 . S
C757 C326 1.145 . S
C759 C404 1.127 . S
C768 C418 1.159 . S
C770 C68 1.176 . S
C779 C432 1.127 . S
C781 C298 1.140 . S
C790 C446 1.158 . S
C792 C96 1.174 . S
C801 C347 1.362 . S
C803 C5 1.060 . S
C812 C25 1.397 . S
C814 C137 1.398 . S
C823 C33 1.064 . S
C825 C375 1.361 . S
C834 C53 1.400 . S
C836 C165 1.396 . S
C845 C61 1.070 . S
C847 C403 1.361 . S
C856 C81 1.400 . S
C858 C193 1.396 . S
C867 C431 1.361 . S
C869 C89 1.049 . S
C878 C109 1.399 . S
C880 C221 1.397 . S
C889 C123 1.362 . S
C891 C229 1.050 . S
C900 C151 1.362 . S
C902 C257 1.060 . S
C911 C285 1.059 . S
C913 C179 1.362 . S
C922 C313 1.061 . S
C924 C207 1.361 . S
C933 C249 1.399 . S
C935 C361 1.396 . S
C944 C389 1.398 . S
C946 C277 1.398 . S
C955 C305 1.399 . S
C957 C417 1.397 . S
C966 C445 1.396 . S
C968 C333 1.399 . S
C977 C299 1.461 . S
C979 C11 1.453 . S
C988 C319 1.453 . S
C990 C19 1.466 . S
C999 C39 1.446 . S
C1001 C327 1.457 . S
C1010 C291 1.457 . S
C1012 C47 1.464 . S
C1021 C271 1.467 . S
C1023 C67 1.456 . S
C1032 C235 1.450 . S
C1034 C75 1.459 . S
C1043 C95 1.446 . S
C1045 C243 1.457 . S
C1054 C263 1.456 . S
C1056 C103 1.463 . S
C1065 C411 1.323 . S
C1067 C117 1.358 . S
C1076 C425 1.363 . S
C1078 C131 1.320 . S
C1087 C439 1.324 . S
C1089 C145 1.358 . S
C1098 C159 1.327 . S
C1100 C397 1.356 . S
C1109 C383 1.327 . S
C1111 C173 1.363 . S
C1120 C341 1.362 . S
C1122 C187 1.321 . S
C1131 C355 1.319 . S
C1133 C201 1.362 . S
C1142 C369 1.355 . S
C1144 C215 1.326 . S
