# Generated by pormake.
# Topology gme, (4)-cn, num edge types: 1
# Building blocks:
#     Node 0, Type 0, BuildingBlock: TATPOV_clean_sbu_0, # of connection points: 4
#     Node 1, Type 0, BuildingBlock: TATPOV_clean_sbu_0, # of connection points: 4
#     Node 2, Type 0, BuildingBlock: TATPOV_clean_sbu_0, # of connection points: 4
#     Node 3, Type 0, BuildingBlock: TATPOV_clean_sbu_0, # of connection points: 4
#     Node 4, Type 0, BuildingBlock: TATPOV_clean_sbu_0, # of connection points: 4
#     Node 5, Type 0, BuildingBlock: TATPOV_clean_sbu_0, # of connection points: 4
#     Node 6, Type 0, BuildingBlock: TATPOV_clean_sbu_0, # of connection points: 4
#     Node 7, Type 0, BuildingBlock: TATPOV_clean_sbu_0, # of connection points: 4
#     Node 8, Type 0, BuildingBlock: TATPOV_clean_sbu_0, # of connection points: 4
#     Node 9, Type 0, BuildingBlock: TATPOV_clean_sbu_0, # of connection points: 4
#     Node 10, Type 0, BuildingBlock: TATPOV_clean_sbu_0, # of connection points: 4
#     Node 11, Type 0, BuildingBlock: TATPOV_clean_sbu_0, # of connection points: 4
#     Node 12, Type 0, BuildingBlock: TATPOV_clean_sbu_0, # of connection points: 4
#     Node 13, Type 0, BuildingBlock: TATPOV_clean_sbu_0, # of connection points: 4
#     Node 14, Type 0, BuildingBlock: TATPOV_clean_sbu_0, # of connection points: 4
#     Node 15, Type 0, BuildingBlock: TATPOV_clean_sbu_0, # of connection points: 4
#     Node 16, Type 0, BuildingBlock: TATPOV_clean_sbu_0, # of connection points: 4
#     Node 17, Type 0, BuildingBlock: TATPOV_clean_sbu_0, # of connection points: 4
#     Node 18, Type 0, BuildingBlock: TATPOV_clean_sbu_0, # of connection points: 4
#     Node 19, Type 0, BuildingBlock: TATPOV_clean_sbu_0, # of connection points: 4
#     Node 20, Type 0, BuildingBlock: TATPOV_clean_sbu_0, # of connection points: 4
#     Node 21, Type 0, BuildingBlock: TATPOV_clean_sbu_0, # of connection points: 4
#     Node 22, Type 0, BuildingBlock: TATPOV_clean_sbu_0, # of connection points: 4
#     Node 23, Type 0, BuildingBlock: TATPOV_clean_sbu_0, # of connection points: 4
#     Edge 24, Type (0, 0), BuildingBlock: CIFDUS_clean_linker_0, # of connection points: 2
#     Edge 25, Type (0, 0), BuildingBlock: CIFDUS_clean_linker_0, # of connection points: 2
#     Edge 26, Type (0, 0), BuildingBlock: CIFDUS_clean_linker_0, # of connection points: 2
#     Edge 27, Type (0, 0), BuildingBlock: CIFDUS_clean_linker_0, # of connection points: 2
#     Edge 28, Type (0, 0), BuildingBlock: CIFDUS_clean_linker_0, # of connection points: 2
#     Edge 29, Type (0, 0), BuildingBlock: CIFDUS_clean_linker_0, # of connection points: 2
#     Edge 30, Type (0, 0), BuildingBlock: CIFDUS_clean_linker_0, # of connection points: 2
#     Edge 31, Type (0, 0), BuildingBlock: CIFDUS_clean_linker_0, # of connection points: 2
#     Edge 32, Type (0, 0), BuildingBlock: CIFDUS_clean_linker_0, # of connection points: 2
#     Edge 33, Type (0, 0), BuildingBlock: CIFDUS_clean_linker_0, # of connection points: 2
#     Edge 34, Type (0, 0), BuildingBlock: CIFDUS_clean_linker_0, # of connection points: 2
#     Edge 35, Type (0, 0), BuildingBlock: CIFDUS_clean_linker_0, # of connection points: 2
#     Edge 36, Type (0, 0), BuildingBlock: CIFDUS_clean_linker_0, # of connection points: 2
#     Edge 37, Type (0, 0), BuildingBlock: CIFDUS_clean_linker_0, # of connection points: 2
#     Edge 38, Type (0, 0), BuildingBlock: CIFDUS_clean_linker_0, # of connection points: 2
#     Edge 39, Type (0, 0), BuildingBlock: CIFDUS_clean_linker_0, # of connection points: 2
#     Edge 40, Type (0, 0), BuildingBlock: CIFDUS_clean_linker_0, # of connection points: 2
#     Edge 41, Type (0, 0), BuildingBlock: CIFDUS_clean_linker_0, # of connection points: 2
#     Edge 42, Type (0, 0), BuildingBlock: CIFDUS_clean_linker_0, # of connection points: 2
#     Edge 43, Type (0, 0), BuildingBlock: CIFDUS_clean_linker_0, # of connection points: 2
#     Edge 44, Type (0, 0), BuildingBlock: CIFDUS_clean_linker_0, # of connection points: 2
#     Edge 45, Type (0, 0), BuildingBlock: CIFDUS_clean_linker_0, # of connection points: 2
#     Edge 46, Type (0, 0), BuildingBlock: CIFDUS_clean_linker_0, # of connection points: 2
#     Edge 47, Type (0, 0), BuildingBlock: CIFDUS_clean_linker_0, # of connection points: 2
#     Edge 48, Type (0, 0), BuildingBlock: CIFDUS_clean_linker_0, # of connection points: 2
#     Edge 49, Type (0, 0), BuildingBlock: CIFDUS_clean_linker_0, # of connection points: 2
#     Edge 50, Type (0, 0), BuildingBlock: CIFDUS_clean_linker_0, # of connection points: 2
#     Edge 51, Type (0, 0), BuildingBlock: CIFDUS_clean_linker_0, # of connection points: 2
#     Edge 52, Type (0, 0), BuildingBlock: CIFDUS_clean_linker_0, # of connection points: 2
#     Edge 53, Type (0, 0), BuildingBlock: CIFDUS_clean_linker_0, # of connection points: 2
#     Edge 54, Type (0, 0), BuildingBlock: CIFDUS_clean_linker_0, # of connection points: 2
#     Edge 55, Type (0, 0), BuildingBlock: CIFDUS_clean_linker_0, # of connection points: 2
#     Edge 56, Type (0, 0), BuildingBlock: CIFDUS_clean_linker_0, # of connection points: 2
#     Edge 57, Type (0, 0), BuildingBlock: CIFDUS_clean_linker_0, # of connection points: 2
#     Edge 58, Type (0, 0), BuildingBlock: CIFDUS_clean_linker_0, # of connection points: 2
#     Edge 59, Type (0, 0), BuildingBlock: CIFDUS_clean_linker_0, # of connection points: 2
#     Edge 60, Type (0, 0), BuildingBlock: CIFDUS_clean_linker_0, # of connection points: 2
#     Edge 61, Type (0, 0), BuildingBlock: CIFDUS_clean_linker_0, # of connection points: 2
#     Edge 62, Type (0, 0), BuildingBlock: CIFDUS_clean_linker_0, # of connection points: 2
#     Edge 63, Type (0, 0), BuildingBlock: CIFDUS_clean_linker_0, # of connection points: 2
#     Edge 64, Type (0, 0), BuildingBlock: CIFDUS_clean_linker_0, # of connection points: 2
#     Edge 65, Type (0, 0), BuildingBlock: CIFDUS_clean_linker_0, # of connection points: 2
#     Edge 66, Type (0, 0), BuildingBlock: CIFDUS_clean_linker_0, # of connection points: 2
#     Edge 67, Type (0, 0), BuildingBlock: CIFDUS_clean_linker_0, # of connection points: 2
#     Edge 68, Type (0, 0), BuildingBlock: CIFDUS_clean_linker_0, # of connection points: 2
#     Edge 69, Type (0, 0), BuildingBlock: CIFDUS_clean_linker_0, # of connection points: 2
#     Edge 70, Type (0, 0), BuildingBlock: CIFDUS_clean_linker_0, # of connection points: 2
#     Edge 71, Type (0, 0), BuildingBlock: CIFDUS_clean_linker_0, # of connection points: 2
# Relax obj value: 0.147
# Max RMSD: 0.132
# Mean RMSD: 0.132
data_MOF--net-gme--node1-TATPOV_clean_sbu_0--edge1-CIFDUS_clean_linker_0
_symmetry_space_group_name_H-M    P1
_symmetry_Int_Tables_number       1
_symmetry_cell_setting            triclinic
loop_
_symmetry_equiv_pos_as_xyz
'x, y, z'
_cell_length_a     55.443471
_cell_length_b     55.45907
_cell_length_c     43.202597
_cell_angle_alpha  89.896443
_cell_angle_beta   89.927417
_cell_angle_gamma 119.99708
loop_
_atom_site_label
_atom_site_type_symbol
_atom_site_fract_x
_atom_site_fract_y
_atom_site_fract_z
_atom_type_partial_charge
Zn0 Zn 0.41994 0.04865 0.10588 0.0
Zn1 Zn 0.4316 0.09984 0.09988 0.0
O2 O 0.40258 0.07893 0.06503 0.0
O3 O 0.38909 0.03518 0.07544 0.0
O4 O 0.43687 0.13815 0.09725 0.0
O5 O 0.4102 0.047 0.15054 0.0
O6 O 0.41811 0.08979 0.14536 0.0
C7 C 0.3867 0.05305 0.05962 0.0
C8 C 0.47723 0.08595 0.08797 0.0
O9 O 0.47055 0.10469 0.09156 0.0
O10 O 0.45912 0.06052 0.09169 0.0
C11 C 0.44648 0.15446 0.07415 0.0
O12 O 0.45499 0.14679 0.04963 0.0
C13 C 0.41052 0.06814 0.16194 0.0
Zn14 Zn 0.37604 0.42357 0.59796 0.0
Zn15 Zn 0.33401 0.42862 0.58348 0.0
O16 O 0.33027 0.39542 0.55666 0.0
O17 O 0.36236 0.38762 0.57599 0.0
O18 O 0.29875 0.42882 0.57263 0.0
O19 O 0.36847 0.42249 0.64323 0.0
O20 O 0.33013 0.42291 0.63148 0.0
C21 C 0.34221 0.38081 0.55773 0.0
C22 C 0.39234 0.47562 0.5678 0.0
O23 O 0.36648 0.46749 0.57055 0.0
O24 O 0.40152 0.45983 0.57619 0.0
C25 C 0.29612 0.4486 0.5614 0.0
O26 O 0.31841 0.47263 0.55525 0.0
C27 C 0.34613 0.42145 0.65171 0.0
Zn28 Zn 0.961 0.3723 0.0941 0.0
Zn29 Zn 0.91244 0.3347 0.08962 0.0
O30 O 0.93575 0.32314 0.06125 0.0
O31 O 0.97789 0.35023 0.07892 0.0
O32 O 0.87351 0.30182 0.08816 0.0
O33 O 0.95954 0.37776 0.13927 0.0
O34 O 0.91961 0.3387 0.13739 0.0
C35 C 0.96157 0.33045 0.06161 0.0
C36 C 0.92911 0.39069 0.06111 0.0
O37 O 0.90939 0.36772 0.07159 0.0
O38 O 0.95411 0.3965 0.06472 0.0
C39 C 0.85825 0.29171 0.06438 0.0
O40 O 0.8678 0.30316 0.03715 0.0
C41 C 0.93882 0.35836 0.15313 0.0
Zn42 Zn 0.57025 0.94046 0.60583 0.0
Zn43 Zn 0.57315 0.89937 0.58728 0.0
O44 O 0.60822 0.93418 0.57007 0.0
O45 O 0.6104 0.96833 0.5977 0.0
O46 O 0.57857 0.86785 0.57358 0.0
O47 O 0.55702 0.92347 0.64792 0.0
O48 O 0.57072 0.89392 0.63482 0.0
C49 C 0.62117 0.9598 0.57785 0.0
C50 C 0.52788 0.90946 0.56256 0.0
O51 O 0.53581 0.8919 0.568 0.0
O52 O 0.54169 0.93386 0.57334 0.0
C53 C 0.56487 0.84928 0.55347 0.0
O54 O 0.54471 0.8499 0.5382 0.0
C55 C 0.56153 0.90397 0.65509 0.0
Zn56 Zn 0.6298 0.58596 0.10451 0.0
Zn57 Zn 0.66563 0.56975 0.09058 0.0
O58 O 0.67596 0.60247 0.05981 0.0
O59 O 0.64797 0.61769 0.07454 0.0
O60 O 0.69465 0.55877 0.08347 0.0
O61 O 0.64137 0.59242 0.14895 0.0
O62 O 0.67112 0.57848 0.13773 0.0
C63 C 0.66725 0.61977 0.05707 0.0
C64 C 0.60361 0.5295 0.08107 0.0
O65 O 0.62865 0.53441 0.07995 0.0
O66 O 0.59862 0.54823 0.09043 0.0
C67 C 0.70821 0.56123 0.0588 0.0
O68 O 0.70308 0.5713 0.0337 0.0
C69 C 0.66014 0.58724 0.15742 0.0
Zn70 Zn 0.05784 0.63495 0.61238 0.0
Zn71 Zn 0.10615 0.66615 0.58448 0.0
O72 O 0.07672 0.67199 0.56068 0.0
O73 O 0.03668 0.64626 0.58427 0.0
O74 O 0.14231 0.69364 0.56362 0.0
O75 O 0.0729 0.65597 0.65181 0.0
O76 O 0.1143 0.67987 0.63015 0.0
C77 C 0.05067 0.66329 0.56305 0.0
C78 C 0.08291 0.60347 0.58793 0.0
O79 O 0.10233 0.62725 0.57885 0.0
O80 O 0.06212 0.6016 0.60239 0.0
C81 C 0.14448 0.70502 0.53735 0.0
O82 O 0.12213 0.69704 0.52038 0.0
C83 C 0.09843 0.6741 0.65366 0.0
Zn84 Zn 0.9492 0.5902 0.3861 0.0
Zn85 Zn 0.89872 0.57105 0.40323 0.0
O86 O 0.92299 0.60493 0.432 0.0
O87 O 0.9646 0.62481 0.411 0.0
O88 O 0.85957 0.56023 0.41516 0.0
O89 O 0.94126 0.59147 0.34144 0.0
O90 O 0.89792 0.57651 0.35534 0.0
C91 C 0.94837 0.62453 0.43172 0.0
C92 C 0.92501 0.53594 0.41558 0.0
O93 O 0.90274 0.53729 0.41508 0.0
O94 O 0.94757 0.55608 0.40537 0.0
C95 C 0.85133 0.56098 0.44243 0.0
O96 O 0.86899 0.56837 0.46554 0.0
C97 C 0.91653 0.58451 0.33427 0.0
Zn98 Zn 0.3674 0.94991 0.87553 0.0
Zn99 Zn 0.33075 0.90093 0.89906 0.0
O100 O 0.32701 0.93094 0.92394 0.0
O101 O 0.35548 0.9713 0.90239 0.0
O102 O 0.29889 0.86588 0.91664 0.0
O103 O 0.35024 0.93803 0.83351 0.0
O104 O 0.32087 0.89656 0.85244 0.0
C105 C 0.33729 0.95729 0.92263 0.0
C106 C 0.39185 0.91876 0.90351 0.0
O107 O 0.36668 0.8998 0.90824 0.0
O108 O 0.39713 0.94148 0.89065 0.0
C109 C 0.29728 0.84237 0.9202 0.0
O110 O 0.3188 0.83956 0.91313 0.0
C111 C 0.33035 0.91347 0.82972 0.0
Zn112 Zn 0.42888 0.37545 0.38097 0.0
Zn113 Zn 0.43283 0.33458 0.39276 0.0
O114 O 0.39683 0.32957 0.41478 0.0
O115 O 0.38834 0.35888 0.38977 0.0
O116 O 0.43499 0.30024 0.40426 0.0
O117 O 0.44243 0.37749 0.33791 0.0
O118 O 0.43369 0.33456 0.34444 0.0
C119 C 0.38085 0.33953 0.40942 0.0
C120 C 0.47483 0.39147 0.41844 0.0
O121 O 0.46971 0.36734 0.40996 0.0
O122 O 0.45722 0.39905 0.41283 0.0
C123 C 0.41538 0.27856 0.417 0.0
O124 O 0.39191 0.27782 0.42376 0.0
C125 C 0.44071 0.3556 0.32693 0.0
Zn126 Zn 0.04988 0.42737 0.87453 0.0
Zn127 Zn 0.09448 0.43301 0.89974 0.0
O128 O 0.06285 0.39704 0.92007 0.0
O129 O 0.02658 0.38875 0.89184 0.0
O130 O 0.12991 0.43596 0.91516 0.0
O131 O 0.06626 0.43375 0.83173 0.0
O132 O 0.10073 0.43084 0.85304 0.0
C133 C 0.03721 0.38139 0.91314 0.0
C134 C 0.07742 0.47657 0.91141 0.0
O135 O 0.09638 0.46995 0.91262 0.0
O136 O 0.05439 0.46036 0.89855 0.0
C137 C 0.14136 0.4403 0.94157 0.0
O138 O 0.12907 0.44363 0.96588 0.0
C139 C 0.0886 0.43305 0.82915 0.0
Zn140 Zn 0.63326 0.0438 0.38614 0.0
Zn141 Zn 0.6672 0.09366 0.40532 0.0
O142 O 0.67475 0.06701 0.43241 0.0
O143 O 0.65064 0.02601 0.41059 0.0
O144 O 0.69929 0.13048 0.4179 0.0
O145 O 0.64447 0.05311 0.34194 0.0
O146 O 0.6742 0.09544 0.35771 0.0
C147 C 0.66774 0.04134 0.43097 0.0
C148 C 0.60629 0.07146 0.4167 0.0
O149 O 0.63066 0.09278 0.41747 0.0
O150 O 0.60261 0.04875 0.40548 0.0
C151 C 0.70079 0.1531 0.42637 0.0
O152 O 0.67796 0.15458 0.42896 0.0
C153 C 0.66356 0.07766 0.33598 0.0
Zn154 Zn 0.57382 0.62687 0.893 0.0
Zn155 Zn 0.56263 0.66421 0.90315 0.0
O156 O 0.59952 0.6754 0.92704 0.0
O157 O 0.61365 0.64871 0.90592 0.0
O158 O 0.55538 0.69587 0.91088 0.0
O159 O 0.56303 0.6238 0.8485 0.0
O160 O 0.56317 0.66315 0.85486 0.0
C161 C 0.618 0.66819 0.92426 0.0
C162 C 0.52574 0.60639 0.92999 0.0
O163 O 0.52806 0.62951 0.92155 0.0
O164 O 0.54496 0.60119 0.9236 0.0
C165 C 0.56092 0.71038 0.93537 0.0
O166 O 0.57215 0.70477 0.95907 0.0
C167 C 0.56105 0.64378 0.83722 0.0
Zn168 Zn 0.59216 0.94928 0.8756 0.0
Zn169 Zn 0.5739 0.90079 0.90231 0.0
O170 O 0.61047 0.92843 0.92529 0.0
O171 O 0.62785 0.9676 0.89906 0.0
O172 O 0.56354 0.86327 0.92038 0.0
O173 O 0.59043 0.93372 0.8335 0.0
O174 O 0.57641 0.89308 0.8558 0.0
C175 C 0.62975 0.95364 0.92112 0.0
C176 C 0.53885 0.92868 0.90679 0.0
O177 O 0.54069 0.90696 0.91172 0.0
O178 O 0.55842 0.94949 0.89303 0.0
C179 C 0.57071 0.85809 0.94641 0.0
O180 O 0.58502 0.87858 0.9658 0.0
C181 C 0.58305 0.90822 0.8316 0.0
Zn182 Zn 0.63689 0.59415 0.39945 0.0
Zn183 Zn 0.66908 0.57361 0.40291 0.0
O184 O 0.68448 0.60514 0.43608 0.0
O185 O 0.66094 0.62641 0.42626 0.0
O186 O 0.69657 0.56008 0.40476 0.0
O187 O 0.64099 0.5996 0.35387 0.0
O188 O 0.67124 0.58504 0.35625 0.0
C189 C 0.67977 0.62505 0.44128 0.0
C190 C 0.60851 0.53786 0.42238 0.0
O191 O 0.63168 0.53935 0.41595 0.0
O192 O 0.60569 0.55895 0.41843 0.0
C193 C 0.70702 0.55778 0.43 0.0
O194 O 0.69887 0.56333 0.45627 0.0
C195 C 0.6584 0.59469 0.34059 0.0
Zn196 Zn 0.04845 0.64677 0.87584 0.0
Zn197 Zn 0.09841 0.67682 0.8982 0.0
O198 O 0.07271 0.68549 0.92554 0.0
O199 O 0.03187 0.6636 0.90286 0.0
O200 O 0.13654 0.70346 0.91482 0.0
O201 O 0.06044 0.66223 0.83345 0.0
O202 O 0.10292 0.68824 0.85149 0.0
C203 C 0.04723 0.6793 0.92419 0.0
C204 C 0.07035 0.61395 0.90351 0.0
O205 O 0.09233 0.63751 0.90703 0.0
O206 O 0.04901 0.61254 0.89103 0.0
C207 C 0.15627 0.6983 0.91855 0.0
O208 O 0.15203 0.6733 0.91232 0.0
C209 C 0.08563 0.68052 0.82917 0.0
Zn210 Zn 0.41652 0.04807 0.39346 0.0
Zn211 Zn 0.42368 0.09462 0.4117 0.0
O212 O 0.38988 0.06502 0.43821 0.0
O213 O 0.38127 0.02585 0.41614 0.0
O214 O 0.42692 0.13108 0.42438 0.0
O215 O 0.41359 0.0556 0.3493 0.0
O216 O 0.41679 0.09497 0.36427 0.0
C217 C 0.37475 0.0386 0.43557 0.0
C218 C 0.4697 0.08015 0.42157 0.0
O219 O 0.4623 0.09855 0.42207 0.0
O220 O 0.45296 0.05591 0.41182 0.0
C221 C 0.44777 0.15387 0.41553 0.0
O222 O 0.46787 0.15315 0.40016 0.0
C223 C 0.41342 0.07774 0.34289 0.0
Zn224 Zn 0.36559 0.41753 0.89648 0.0
Zn225 Zn 0.3257 0.42715 0.89743 0.0
O226 O 0.31405 0.39493 0.92948 0.0
O227 O 0.34451 0.38175 0.91915 0.0
O228 O 0.29277 0.43291 0.89808 0.0
O229 O 0.36654 0.41583 0.85062 0.0
O230 O 0.32832 0.41851 0.85068 0.0
C231 C 0.32292 0.37789 0.93327 0.0
C232 C 0.38258 0.4712 0.92117 0.0
O233 O 0.35833 0.46501 0.91191 0.0
O234 O 0.39039 0.45335 0.91922 0.0
C235 C 0.28287 0.43685 0.92289 0.0
O236 O 0.29491 0.43791 0.94943 0.0
C237 C 0.34659 0.4154 0.83599 0.0
Zn238 Zn 0.94643 0.36898 0.39383 0.0
Zn239 Zn 0.8971 0.33061 0.40296 0.0
O240 O 0.92173 0.32009 0.43004 0.0
O241 O 0.964 0.34933 0.4137 0.0
O242 O 0.85832 0.29923 0.41245 0.0
O243 O 0.94117 0.36646 0.34823 0.0
O244 O 0.90063 0.32859 0.35499 0.0
C245 C 0.94782 0.32866 0.43022 0.0
C246 C 0.91608 0.39075 0.42235 0.0
O247 O 0.89649 0.36619 0.41638 0.0
O248 O 0.94107 0.3971 0.41742 0.0
C249 C 0.83905 0.30142 0.42589 0.0
O250 O 0.84355 0.32603 0.4345 0.0
C251 C 0.91963 0.34603 0.33693 0.0
Zn252 Zn 0.05003 0.39554 0.61477 0.0
Zn253 Zn 0.09863 0.41984 0.58821 0.0
O254 O 0.07248 0.38585 0.56066 0.0
O255 O 0.032 0.36474 0.58436 0.0
O256 O 0.13628 0.43108 0.57036 0.0
O257 O 0.06388 0.38874 0.65456 0.0
O258 O 0.1055 0.41477 0.63436 0.0
C259 C 0.0472 0.36607 0.56187 0.0
C260 C 0.07029 0.45345 0.59355 0.0
O261 O 0.0915 0.45266 0.58341 0.0
O262 O 0.05092 0.43236 0.60729 0.0
C263 C 0.1557 0.45443 0.56064 0.0
O264 O 0.15199 0.47604 0.56011 0.0
C265 C 0.09005 0.40125 0.65719 0.0
Zn266 Zn 0.64096 0.04787 0.09932 0.0
Zn267 Zn 0.67539 0.09911 0.08975 0.0
O268 O 0.68568 0.07748 0.05733 0.0
O269 O 0.65974 0.03391 0.07185 0.0
O270 O 0.70548 0.13885 0.0824 0.0
O271 O 0.64889 0.04963 0.14415 0.0
O272 O 0.68065 0.09354 0.13681 0.0
C273 C 0.67838 0.0518 0.05436 0.0
C274 C 0.61395 0.07716 0.07712 0.0
O275 O 0.63824 0.09832 0.08006 0.0
O276 O 0.60994 0.05302 0.08278 0.0
C277 C 0.7125 0.1499 0.05568 0.0
O278 O 0.69875 0.13541 0.03132 0.0
C279 C 0.66812 0.07242 0.15465 0.0
Zn280 Zn 0.58255 0.63043 0.60485 0.0
Zn281 Zn 0.5745 0.66934 0.58652 0.0
O282 O 0.61213 0.67726 0.56726 0.0
O283 O 0.62252 0.64895 0.59167 0.0
O284 O 0.57149 0.70197 0.57117 0.0
O285 O 0.57224 0.63434 0.64829 0.0
O286 O 0.57369 0.67318 0.6343 0.0
C287 C 0.62918 0.66861 0.5726 0.0
C288 C 0.53553 0.60991 0.56523 0.0
O289 O 0.53945 0.63439 0.56928 0.0
O290 O 0.55283 0.60351 0.57595 0.0
C291 C 0.55722 0.70263 0.54849 0.0
O292 O 0.54181 0.67992 0.53243 0.0
C293 C 0.57106 0.65586 0.65531 0.0
Zn294 Zn 0.9476 0.57607 0.09653 0.0
Zn295 Zn 0.89712 0.56562 0.08676 0.0
O296 O 0.92179 0.5992 0.05779 0.0
O297 O 0.96441 0.6103 0.07076 0.0
O298 O 0.85868 0.55886 0.07745 0.0
O299 O 0.94392 0.58083 0.14173 0.0
O300 O 0.90198 0.57478 0.13399 0.0
C301 C 0.94806 0.61526 0.05529 0.0
C302 C 0.91352 0.52173 0.07144 0.0
O303 O 0.89458 0.52813 0.07509 0.0
O304 O 0.93858 0.53925 0.07779 0.0
C305 C 0.851 0.56021 0.05006 0.0
O306 O 0.86836 0.56548 0.02692 0.0
C307 C 0.92228 0.58027 0.15206 0.0
Zn308 Zn 0.36997 0.93601 0.60914 0.0
Zn309 Zn 0.33273 0.89178 0.58339 0.0
O310 O 0.32526 0.92232 0.56534 0.0
O311 O 0.35176 0.95748 0.5957 0.0
O312 O 0.30298 0.85487 0.56716 0.0
O313 O 0.36228 0.91975 0.65168 0.0
O314 O 0.32542 0.88457 0.63061 0.0
C315 C 0.33391 0.9473 0.5743 0.0
C316 C 0.39374 0.91476 0.56656 0.0
O317 O 0.36891 0.89424 0.56647 0.0
O318 O 0.39959 0.93637 0.58197 0.0
C319 C 0.286 0.84828 0.54477 0.0
O320 O 0.28646 0.86786 0.52718 0.0
C321 C 0.33975 0.89693 0.65444 0.0
Zn322 Zn 0.42906 0.39967 0.10591 0.0
Zn323 Zn 0.4288 0.33431 0.07553 0.0
O324 O 0.39094 0.32626 0.05759 0.0
O325 O 0.40116 0.36531 0.08005 0.0
O326 O 0.43254 0.3003 0.07104 0.0
O327 O 0.43541 0.38237 0.144 0.0
O328 O 0.43148 0.34319 0.12327 0.0
C329 C 0.38409 0.34436 0.06425 0.0
C330 C 0.45995 0.38748 0.05913 0.0
O331 O 0.46248 0.36661 0.05308 0.0
O332 O 0.43672 0.38197 0.07026 0.0
C333 C 0.44574 0.29668 0.04912 0.0
O334 O 0.4569 0.31549 0.02709 0.0
C335 C 0.4342 0.35879 0.14657 0.0
H336 H 0.38167 0.03928 0.30148 0.0
H337 H 0.43682 0.1276 0.31136 0.0
H338 H 0.43776 0.13335 0.25482 0.0
H339 H 0.42846 0.11161 0.20259 0.0
H340 H 0.37501 0.02261 0.19479 0.0
H341 H 0.36754 0.01877 0.25048 0.0
C342 C 0.39356 0.05988 0.29126 0.0
C343 C 0.4096 0.0829 0.31027 0.0
C344 C 0.3945 0.06279 0.2591 0.0
C345 C 0.42443 0.10956 0.29701 0.0
C346 C 0.42512 0.11278 0.26473 0.0
C347 C 0.41478 0.09152 0.21312 0.0
C348 C 0.40275 0.06734 0.19475 0.0
C349 C 0.41112 0.08933 0.24549 0.0
C350 C 0.38494 0.04142 0.20855 0.0
C351 C 0.38062 0.0392 0.24038 0.0
H352 H 0.36642 0.40211 0.69557 0.0
H353 H 0.3105 0.4342 0.68309 0.0
H354 H 0.30376 0.43334 0.73942 0.0
H355 H 0.31701 0.42671 0.79266 0.0
H356 H 0.3736 0.39493 0.80273 0.0
H357 H 0.37663 0.39232 0.74699 0.0
C358 C 0.35264 0.40886 0.70507 0.0
C359 C 0.33932 0.4186 0.6852 0.0
C360 C 0.34907 0.40846 0.73717 0.0
C361 C 0.32111 0.42671 0.69792 0.0
C362 C 0.31735 0.42631 0.73013 0.0
C363 C 0.32973 0.41895 0.78258 0.0
C364 C 0.34538 0.41145 0.80196 0.0
C365 C 0.33168 0.41771 0.75007 0.0
C366 C 0.36167 0.40129 0.7885 0.0
C367 C 0.36342 0.39972 0.75654 0.0
H368 H 0.90175 0.31812 0.19338 0.0
H369 H 0.97235 0.40175 0.18987 0.0
H370 H 0.97151 0.40515 0.24566 0.0
H371 H 0.95216 0.38479 0.29531 0.0
H372 H 0.8821 0.30129 0.30163 0.0
H373 H 0.88122 0.29755 0.24488 0.0
C374 C 0.91688 0.33704 0.20489 0.0
C375 C 0.93721 0.35953 0.18731 0.0
C376 C 0.91645 0.33895 0.23745 0.0
C377 C 0.95662 0.38397 0.20263 0.0
C378 C 0.95617 0.38603 0.23464 0.0
C379 C 0.93662 0.36565 0.28445 0.0
C380 C 0.91738 0.34326 0.30276 0.0
C381 C 0.93639 0.36365 0.25222 0.0
C382 C 0.89721 0.31884 0.28809 0.0
C383 C 0.89676 0.31669 0.25566 0.0
H384 H 0.59611 0.89451 0.69108 0.0
H385 H 0.51749 0.89272 0.6913 0.0
H386 H 0.51432 0.887 0.74747 0.0
H387 H 0.53825 0.89209 0.79656 0.0
H388 H 0.61926 0.89947 0.79735 0.0
H389 H 0.61723 0.89295 0.741 0.0
C390 C 0.57798 0.89203 0.70348 0.0
C391 C 0.55718 0.89428 0.68739 0.0
C392 C 0.57698 0.89011 0.73599 0.0
C393 C 0.53384 0.89132 0.70346 0.0
C394 C 0.53206 0.88812 0.73552 0.0
C395 C 0.55494 0.89122 0.78438 0.0
C396 C 0.57874 0.896 0.80067 0.0
C397 C 0.55413 0.88889 0.75208 0.0
C398 C 0.60062 0.89545 0.78502 0.0
C399 C 0.59954 0.89203 0.75284 0.0
H400 H 0.67916 0.57229 0.29864 0.0
H401 H 0.64784 0.62936 0.30672 0.0
H402 H 0.64879 0.63442 0.25083 0.0
H403 H 0.65339 0.61899 0.19971 0.0
H404 H 0.6836 0.56131 0.18972 0.0
H405 H 0.68863 0.56048 0.24608 0.0
C406 C 0.67296 0.58611 0.28811 0.0
C407 C 0.66295 0.60001 0.30686 0.0
C408 C 0.67312 0.58867 0.25559 0.0
C409 C 0.65512 0.61799 0.29288 0.0
C410 C 0.65569 0.62097 0.26086 0.0
C411 C 0.66136 0.60643 0.2098 0.0
C412 C 0.66766 0.58989 0.19063 0.0
C413 C 0.66379 0.60577 0.24201 0.0
C414 C 0.67848 0.57416 0.20401 0.0
C415 C 0.6812 0.57356 0.23626 0.0
H416 H 0.07745 0.69821 0.68971 0.0
H417 H 0.14228 0.67713 0.68592 0.0
H418 H 0.14867 0.68334 0.74217 0.0
H419 H 0.12782 0.68417 0.79302 0.0
H420 H 0.0608 0.70234 0.79518 0.0
H421 H 0.06367 0.70871 0.73921 0.0
C422 C 0.09366 0.69599 0.70115 0.0
C423 C 0.10913 0.68692 0.68407 0.0
C424 C 0.0965 0.69873 0.73334 0.0
C425 C 0.13018 0.68417 0.69879 0.0
C426 C 0.13358 0.6874 0.73098 0.0
C427 C 0.11466 0.69056 0.78122 0.0
C428 C 0.0939 0.69249 0.79791 0.0
C429 C 0.11572 0.69311 0.74869 0.0
C430 C 0.07674 0.70055 0.78258 0.0
C431 C 0.07828 0.70403 0.7506 0.0
H432 H 0.87952 0.55722 0.19465 0.0
H433 H 0.96553 0.62082 0.1826 0.0
H434 H 0.96988 0.63043 0.23781 0.0
H435 H 0.95157 0.61695 0.28982 0.0
H436 H 0.8666 0.55208 0.30434 0.0
H437 H 0.85928 0.54704 0.24806 0.0
C438 C 0.89896 0.57347 0.20419 0.0
C439 C 0.92231 0.58802 0.18473 0.0
C440 C 0.9016 0.57846 0.23641 0.0
C441 C 0.94744 0.60905 0.19725 0.0
C442 C 0.94996 0.6146 0.2288 0.0
C443 C 0.9313 0.60191 0.28072 0.0
C444 C 0.90982 0.5846 0.30113 0.0
C445 C 0.92753 0.59878 0.24866 0.0
C446 C 0.88352 0.56561 0.28903 0.0
C447 C 0.87941 0.5626 0.25687 0.0
H448 H 0.33084 0.87277 0.79574 0.0
H449 H 0.30772 0.93623 0.79321 0.0
H450 H 0.3025 0.93178 0.73702 0.0
H451 H 0.31414 0.91713 0.68864 0.0
H452 H 0.34241 0.85766 0.69011 0.0
H453 H 0.33571 0.8527 0.7465 0.0
C454 C 0.32368 0.88479 0.78285 0.0
C455 C 0.3196 0.90475 0.79826 0.0
C456 C 0.32218 0.88312 0.75034 0.0
C457 C 0.31085 0.92071 0.78157 0.0
C458 C 0.30808 0.9183 0.74951 0.0
C459 C 0.31786 0.90239 0.70132 0.0
C460 C 0.32859 0.88769 0.68568 0.0
C461 C 0.31511 0.90067 0.73359 0.0
C462 C 0.33386 0.86893 0.70196 0.0
C463 C 0.33027 0.86633 0.73414 0.0
H464 H 0.41315 0.31496 0.28341 0.0
H465 H 0.48362 0.39722 0.29689 0.0
H466 H 0.49033 0.40381 0.24119 0.0
H467 H 0.47171 0.38954 0.18929 0.0
H468 H 0.40073 0.30824 0.17399 0.0
H469 H 0.39865 0.29767 0.22955 0.0
C470 C 0.43037 0.33392 0.27401 0.0
C471 C 0.44765 0.35576 0.29402 0.0
C472 C 0.43369 0.33791 0.2417 0.0
C473 C 0.46987 0.38032 0.28176 0.0
C474 C 0.47369 0.38415 0.24996 0.0
C475 C 0.45619 0.36928 0.19812 0.0
C476 C 0.43626 0.34978 0.17798 0.0
C477 C 0.45501 0.36363 0.2298 0.0
C478 C 0.41633 0.3235 0.18931 0.0
C479 C 0.41504 0.31758 0.22104 0.0
H480 H 0.11391 0.44899 0.68813 0.0
H481 H 0.0888 0.36223 0.6965 0.0
H482 H 0.0923 0.36647 0.75302 0.0
H483 H 0.09234 0.39235 0.79944 0.0
H484 H 0.10905 0.47662 0.78973 0.0
H485 H 0.11919 0.4763 0.73462 0.0
C486 C 0.11039 0.43139 0.70241 0.0
C487 C 0.10147 0.40546 0.68853 0.0
C488 C 0.11022 0.43351 0.73473 0.0
C489 C 0.09607 0.38245 0.70696 0.0
C490 C 0.09771 0.38482 0.7392 0.0
C491 C 0.09901 0.4108 0.78527 0.0
C492 C 0.10006 0.43448 0.7982 0.0
C493 C 0.1032 0.40984 0.75333 0.0
C494 C 0.10819 0.45824 0.77992 0.0
C495 C 0.11389 0.458 0.74851 0.0
H496 H 0.66801 0.04456 0.29424 0.0
H497 H 0.67998 0.127 0.30525 0.0
H498 H 0.68686 0.13482 0.24908 0.0
H499 H 0.68242 0.11497 0.19615 0.0
H500 H 0.66912 0.0317 0.18724 0.0
H501 H 0.67041 0.02763 0.24318 0.0
C502 C 0.67253 0.06441 0.28438 0.0
C503 C 0.67294 0.08496 0.30358 0.0
C504 C 0.67612 0.06852 0.25237 0.0
C505 C 0.67941 0.11081 0.29076 0.0
C506 C 0.68318 0.11519 0.25866 0.0
C507 C 0.68053 0.09629 0.20656 0.0
C508 C 0.67523 0.07348 0.18771 0.0
C509 C 0.68058 0.09377 0.23908 0.0
C510 C 0.67279 0.04934 0.20136 0.0
C511 C 0.67346 0.04696 0.23334 0.0
H512 H 0.53966 0.61639 0.69636 0.0
H513 H 0.59338 0.70509 0.68769 0.0
H514 H 0.59252 0.71008 0.74419 0.0
H515 H 0.58099 0.68783 0.79652 0.0
H516 H 0.52852 0.59861 0.80306 0.0
H517 H 0.52393 0.59522 0.74703 0.0
C518 C 0.55089 0.63688 0.70683 0.0
C519 C 0.56691 0.66026 0.68813 0.0
C520 C 0.5506 0.63942 0.739 0.0
C521 C 0.58095 0.68677 0.70176 0.0
C522 C 0.58059 0.68957 0.73404 0.0
C523 C 0.5682 0.6678 0.78557 0.0
C524 C 0.5555 0.64344 0.80377 0.0
C525 C 0.56618 0.66588 0.753 0.0
C526 C 0.5389 0.61757 0.78944 0.0
C527 C 0.53624 0.61559 0.75742 0.0
H528 H 0.46653 0.19546 0.03012 0.0
H529 H 0.42496 0.17269 0.11892 0.0
H530 H 0.42131 0.21456 0.11883 0.0
H531 H 0.42865 0.25687 0.09337 0.0
H532 H 0.47051 0.28074 0.0049 0.0
H533 H 0.47534 0.23923 0.00514 0.0
C534 C 0.45678 0.19973 0.04949 0.0
C535 C 0.44594 0.18085 0.07439 0.0
C536 C 0.45469 0.22398 0.04935 0.0
C537 C 0.43349 0.18679 0.0994 0.0
C538 C 0.43131 0.21074 0.09938 0.0
C539 C 0.43882 0.25305 0.07407 0.0
C540 C 0.44898 0.27177 0.04905 0.0
C541 C 0.44161 0.22932 0.07441 0.0
C542 C 0.46234 0.26657 0.0244 0.0
C543 C 0.46513 0.24285 0.02453 0.0
H544 H 0.1697 0.41427 0.56378 0.0
H545 H 0.204 0.50154 0.54291 0.0
H546 H 0.25059 0.50709 0.53864 0.0
H547 H 0.28198 0.48781 0.54567 0.0
H548 H 0.24661 0.40068 0.56852 0.0
H549 H 0.20005 0.39455 0.56722 0.0
C550 C 0.18726 0.43452 0.55801 0.0
C551 C 0.18337 0.45753 0.55407 0.0
C552 C 0.21389 0.43766 0.55627 0.0
C553 C 0.20641 0.48351 0.54631 0.0
C554 C 0.23307 0.48671 0.54397 0.0
C555 C 0.26406 0.46743 0.55006 0.0
C556 C 0.26789 0.44483 0.55754 0.0
C557 C 0.23715 0.46405 0.54968 0.0
C558 C 0.24439 0.41853 0.563 0.0
C559 C 0.21769 0.41496 0.56225 0.0
H560 H 0.82108 0.26206 0.0186 0.0
H561 H 0.83257 0.26482 0.11768 0.0
H562 H 0.78791 0.22231 0.12366 0.0
H563 H 0.7467 0.1832 0.10098 0.0
H564 H 0.73485 0.17925 0.002 0.0
H565 H 0.77834 0.22347 -0.00411 0.0
C566 C 0.81374 0.25345 0.04151 0.0
C567 C 0.83033 0.26659 0.0676 0.0
C568 C 0.78796 0.22874 0.04486 0.0
C569 C 0.8204 0.25513 0.09713 0.0
C570 C 0.79481 0.23078 0.10063 0.0
C571 C 0.75346 0.19205 0.07804 0.0
C572 C 0.73757 0.17779 0.05199 0.0
C573 C 0.77859 0.21724 0.07466 0.0
C574 C 0.74669 0.1897 0.02248 0.0
C575 C 0.77162 0.21498 0.01895 0.0
H576 H 0.59362 0.75408 0.56929 0.0
H577 H 0.52064 0.70975 0.51212 0.0
H578 H 0.518 0.7523 0.50592 0.0
H579 H 0.53403 0.80098 0.52111 0.0
H580 H 0.60691 0.84422 0.57892 0.0
H581 H 0.61203 0.8032 0.58023 0.0
C582 C 0.57719 0.75369 0.55531 0.0
C583 C 0.55707 0.72869 0.54167 0.0
C584 C 0.5757 0.77803 0.55207 0.0
C585 C 0.53627 0.72871 0.5231 0.0
C586 C 0.53471 0.753 0.51962 0.0
C587 C 0.55123 0.80153 0.53364 0.0
C588 C 0.56977 0.82552 0.55031 0.0
C589 C 0.55395 0.77764 0.53464 0.0
C590 C 0.59209 0.82594 0.56622 0.0
C591 C 0.59507 0.80247 0.56703 0.0
H592 H 0.74614 0.57005 0.01326 0.0
H593 H 0.72279 0.53936 0.10681 0.0
H594 H 0.76391 0.53461 0.11142 0.0
H595 H 0.80825 0.54255 0.09073 0.0
H596 H 0.8324 0.57333 -0.00254 0.0
H597 H 0.78913 0.57439 0.99087 0.0
C598 C 0.74989 0.56204 0.03452 0.0
C599 C 0.73155 0.55545 0.05977 0.0
C600 C 0.77382 0.55953 0.03719 0.0
C601 C 0.73666 0.54489 0.08708 0.0
C602 C 0.76022 0.54217 0.08981 0.0
C603 C 0.804 0.54932 0.06887 0.0
C604 C 0.82368 0.55819 0.04481 0.0
C605 C 0.77924 0.55001 0.0653 0.0
C606 C 0.81765 0.56652 0.01646 0.0
C607 C 0.79294 0.5672 0.01269 0.0
H608 H 0.24062 0.82625 0.50633 0.0
H609 H 0.28205 0.80369 0.57557 0.0
H610 H 0.24314 0.75628 0.57641 0.0
H611 H 0.1953 0.72274 0.56238 0.0
H612 H 0.15288 0.74446 0.49375 0.0
H613 H 0.19435 0.79033 0.48736 0.0
C614 C 0.2413 0.81086 0.52124 0.0
C615 C 0.26402 0.81875 0.5413 0.0
C616 C 0.2186 0.78344 0.52189 0.0
C617 C 0.26467 0.79841 0.56024 0.0
C618 C 0.2424 0.7712 0.56077 0.0
C619 C 0.19523 0.73734 0.54568 0.0
C620 C 0.1709 0.73037 0.529 0.0
C621 C 0.21892 0.76374 0.54246 0.0
C622 C 0.17131 0.74936 0.50706 0.0
C623 C 0.19497 0.77568 0.50352 0.0
H624 H 0.81015 0.54378 0.39994 0.0
H625 H 0.82888 0.56872 0.49552 0.0
H626 H 0.78425 0.56724 0.50102 0.0
H627 H 0.74205 0.56322 0.47713 0.0
H628 H 0.72471 0.53987 0.38095 0.0
H629 H 0.7666 0.53618 0.37739 0.0
C630 C 0.80441 0.54865 0.4221 0.0
C631 C 0.82301 0.5567 0.44715 0.0
C632 C 0.77902 0.5482 0.42495 0.0
C633 C 0.81504 0.56261 0.47578 0.0
C634 C 0.78955 0.56186 0.47893 0.0
C635 C 0.74723 0.55695 0.45552 0.0
C636 C 0.73043 0.55215 0.42925 0.0
C637 C 0.77169 0.55534 0.45344 0.0
C638 C 0.73742 0.54398 0.40144 0.0
C639 C 0.76139 0.54187 0.39935 0.0
H640 H 0.17127 0.75155 0.93281 0.0
H641 H 0.20508 0.69705 0.91996 0.0
H642 H 0.25233 0.73687 0.92314 0.0
H643 H 0.28377 0.78776 0.92289 0.0
H644 H 0.24912 0.84176 0.93451 0.0
H645 H 0.20258 0.8015 0.93865 0.0
C646 C 0.18893 0.74827 0.93106 0.0
C647 C 0.18462 0.72142 0.9255 0.0
C648 C 0.21597 0.77124 0.93235 0.0
C649 C 0.20778 0.71754 0.92386 0.0
C650 C 0.23484 0.74033 0.92557 0.0
C651 C 0.26609 0.79071 0.9268 0.0
C652 C 0.26995 0.81779 0.92778 0.0
C653 C 0.23916 0.76739 0.92876 0.0
C654 C 0.2468 0.8212 0.93323 0.0
C655 C 0.2201 0.79817 0.93557 0.0
H656 H 0.40574 0.16134 0.43709 0.0
H657 H 0.48949 0.20613 0.40065 0.0
H658 H 0.48746 0.24906 0.39974 0.0
H659 H 0.46072 0.27311 0.40546 0.0
H660 H 0.37657 0.22812 0.44076 0.0
H661 H 0.38006 0.18615 0.44601 0.0
C662 C 0.42369 0.18055 0.42929 0.0
C663 C 0.44764 0.18041 0.41869 0.0
C664 C 0.42224 0.20512 0.42834 0.0
C665 C 0.47071 0.20555 0.40874 0.0
C666 C 0.46956 0.23013 0.40813 0.0
C667 C 0.44318 0.25419 0.4145 0.0
C668 C 0.41833 0.25375 0.42238 0.0
C669 C 0.44522 0.23003 0.41723 0.0
C670 C 0.39591 0.22906 0.4343 0.0
C671 C 0.39786 0.205 0.43731 0.0
H672 H 0.25464 0.44327 0.97125 0.0
H673 H 0.25323 0.43451 0.87178 0.0
H674 H 0.20987 0.43533 0.86923 0.0
H675 H 0.17196 0.4373 0.89474 0.0
H676 H 0.172 0.44595 0.99403 0.0
H677 H 0.21645 0.44652 -0.00292 0.0
C678 C 0.24489 0.44167 0.94902 0.0
C679 C 0.25718 0.43873 0.92176 0.0
C680 C 0.21974 0.44206 0.94765 0.0
C681 C 0.24428 0.43673 0.89315 0.0
C682 C 0.21943 0.43717 0.89162 0.0
C683 C 0.18159 0.43933 0.91715 0.0
C684 C 0.16855 0.44142 0.94414 0.0
C685 C 0.20691 0.4396 0.9187 0.0
C686 C 0.18154 0.44423 0.97289 0.0
C687 C 0.20694 0.44454 0.97463 0.0
H688 H 0.71357 0.2063 0.44087 0.0
H689 H 0.75093 0.15612 0.41919 0.0
H690 H 0.79682 0.19737 0.41859 0.0
H691 H 0.82619 0.24775 0.42058 0.0
H692 H 0.79008 0.29881 0.44272 0.0
H693 H 0.74401 0.25717 0.44706 0.0
C694 C 0.73178 0.20439 0.43631 0.0
C695 C 0.72866 0.17814 0.42966 0.0
C696 C 0.75837 0.22835 0.43589 0.0
C697 C 0.75256 0.17603 0.42411 0.0
C698 C 0.77891 0.19964 0.4237 0.0
C699 C 0.80828 0.24982 0.42644 0.0
C700 C 0.8115 0.27635 0.43082 0.0
C701 C 0.78199 0.22592 0.42891 0.0
C702 C 0.78814 0.27861 0.43898 0.0
C703 C 0.76178 0.25481 0.44143 0.0
H704 H 0.57702 0.75057 0.97993 0.0
H705 H 0.53528 0.72502 0.89168 0.0
H706 H 0.53215 0.76718 0.88914 0.0
H707 H 0.54462 0.81285 0.90941 0.0
H708 H 0.58772 0.83998 -0.00334 0.0
H709 H 0.58644 0.79545 0.00238 0.0
C710 C 0.56697 0.75409 0.96032 0.0
C711 C 0.55671 0.73475 0.93586 0.0
C712 C 0.56552 0.77869 0.95875 0.0
C713 C 0.54363 0.73962 0.9107 0.0
C714 C 0.5418 0.76375 0.90919 0.0
C715 C 0.5535 0.809 0.92989 0.0
C716 C 0.56656 0.82991 0.95236 0.0
C717 C 0.55321 0.78368 0.93271 0.0
C718 C 0.57769 0.82435 0.97887 0.0
C719 C 0.57707 0.79891 0.9821 0.0
H720 H 0.35608 0.01285 0.92649 0.0
H721 H 0.30655 0.93532 0.97547 0.0
H722 H 0.31123 0.96082 0.02307 0.0
H723 H 0.34005 0.00339 0.0525 0.0
H724 H 0.39357 0.08027 0.00449 0.0
H725 H 0.37594 0.05706 0.95477 0.0
C726 C 0.34566 0.00152 0.94738 0.0
C727 C 0.33199 0.97219 0.94776 0.0
C728 C 0.3495 0.01627 0.97498 0.0
C729 C 0.31782 0.95786 0.97471 0.0
C730 C 0.3206 0.97245 0.00202 0.0
C731 C 0.34715 0.01526 0.03114 0.0
C732 C 0.36875 0.04316 0.03197 0.0
C733 C 0.33808 0.00144 0.00279 0.0
C734 C 0.37724 0.05863 0.00437 0.0
C735 C 0.3674 0.04525 0.97593 0.0
H736 H 0.36975 0.31428 0.46588 0.0
H737 H 0.3409 0.35416 0.40196 0.0
H738 H 0.31866 0.36487 0.44421 0.0
H739 H 0.32021 0.37507 0.49993 0.0
H740 H 0.35177 0.33754 0.56363 0.0
H741 H 0.3594 0.31329 0.52116 0.0
C742 C 0.35765 0.32431 0.46099 0.0
C743 C 0.35807 0.33454 0.4311 0.0
C744 C 0.34594 0.33151 0.48562 0.0
C745 C 0.34166 0.34685 0.42501 0.0
C746 C 0.32908 0.35319 0.44923 0.0
C747 C 0.32768 0.36071 0.50463 0.0
C748 C 0.33639 0.35889 0.53465 0.0
C749 C 0.33306 0.34761 0.47986 0.0
C750 C 0.34566 0.33989 0.54051 0.0
C751 C 0.35015 0.32607 0.5162 0.0
H752 H 0.05066 0.36245 0.96509 0.0
H753 H 0.98126 0.34625 0.90632 0.0
H754 H 0.94877 0.31921 0.94733 0.0
H755 H 0.94156 0.31316 0.00355 0.0
H756 H 0.01107 0.33123 0.0628 0.0
H757 H 0.04162 0.34317 0.01789 0.0
C758 C 0.02843 0.35225 0.96088 0.0
C759 C 0.01849 0.35754 0.93324 0.0
C760 C 0.00974 0.33722 0.9849 0.0
C761 C 0.98958 0.34338 0.9278 0.0
C762 C 0.97088 0.32788 0.95131 0.0
C763 C 0.96305 0.31834 0.00654 0.0
C764 C 0.97436 0.32255 0.03645 0.0
C765 C 0.98084 0.32654 0.98066 0.0
C766 C 0.00208 0.32865 0.03994 0.0
C767 C 0.01968 0.33584 0.01426 0.0
H768 H 0.68142 0.05907 0.49035 0.0
H769 H 0.66833 0.99261 0.42858 0.0
H770 H 0.66011 0.96183 0.47255 0.0
H771 H 0.64306 0.95052 0.52586 0.0
H772 H 0.65236 0.01606 0.58704 0.0
H773 H 0.67645 0.05048 0.54647 0.0
C774 C 0.67792 0.03823 0.48658 0.0
C775 C 0.67444 0.02776 0.45632 0.0
C776 C 0.67184 0.02019 0.51195 0.0
C777 C 0.67036 0.00087 0.45174 0.0
C778 C 0.66547 0.98319 0.47688 0.0
C779 C 0.65122 0.97244 0.53071 0.0
C780 C 0.64476 0.98055 0.5589 0.0
C781 C 0.66396 0.992 0.50682 0.0
C782 C 0.65624 0.00912 0.56513 0.0
C783 C 0.66991 0.02886 0.54185 0.0
H784 H 0.66246 0.66582 0.05196 0.0
H785 H 0.68947 0.61641 0.00159 0.0
H786 H 0.68448 0.6358 0.95281 0.0
H787 H 0.65914 0.65506 0.92544 0.0
H788 H 0.62676 0.69962 0.97647 0.0
H789 H 0.64815 0.69495 0.02368 0.0
C790 C 0.66813 0.65999 0.03035 0.0
C791 C 0.67525 0.63891 0.03024 0.0
C792 C 0.66376 0.67008 0.00238 0.0
C793 C 0.68343 0.6322 0.00227 0.0
C794 C 0.6803 0.6431 0.97431 0.0
C795 C 0.65752 0.66458 0.94667 0.0
C796 C 0.64024 0.6765 0.94775 0.0
C797 C 0.66838 0.66028 0.9741 0.0
C798 C 0.63927 0.68966 0.97512 0.0
C799 C 0.65129 0.68673 0.00226 0.0
H800 H 0.99598 0.64865 0.56234 0.0
H801 H 0.07197 0.69294 0.50931 0.0
H802 H 0.04536 0.69218 0.46407 0.0
H803 H 1.00068 0.66858 0.43709 0.0
H804 H 0.92479 0.61978 0.48899 0.0
H805 H 0.95104 0.6339 0.53726 0.0
C806 C 0.00683 0.65871 0.54109 0.0
C807 C 0.03586 0.66984 0.53886 0.0
C808 C 0.99129 0.65726 0.51484 0.0
C809 C 0.04961 0.68356 0.51147 0.0
C810 C 0.03437 0.6831 0.48553 0.0
C811 C 0.98973 0.66171 0.45901 0.0
C812 C 0.961 0.64217 0.45937 0.0
C813 C 0.00516 0.66841 0.48648 0.0
C814 C 0.94698 0.63431 0.48796 0.0
C815 C 0.96206 0.6421 0.51561 0.0
H816 H 0.66849 0.00873 0.92277 0.0
H817 H 0.63878 0.93218 0.97426 0.0
H818 H 0.66091 0.95869 0.02095 0.0
H819 H 0.67589 0.00214 0.04897 0.0
H820 H 0.69907 0.07788 -0.00145 0.0
H821 H 0.6934 0.05349 0.94966 0.0
C822 C 0.6675 0.99777 0.94397 0.0
C823 C 0.65098 0.9685 0.94534 0.0
C824 C 0.67882 0.01315 0.97112 0.0
C825 C 0.6507 0.95468 0.97275 0.0
C826 C 0.66324 0.96986 -0.00047 0.0
C827 C 0.68057 0.01353 0.02728 0.0
C828 C 0.68678 0.04145 0.02725 0.0
C829 C 0.67539 0.99895 -0.00062 0.0
C830 C 0.69374 0.05624 -0.00083 0.0
C831 C 0.69015 0.04218 0.97118 0.0
H832 H 0.686 0.67601 0.44997 0.0
H833 H 0.6969 0.61298 0.49567 0.0
H834 H 0.69009 0.62881 0.5459 0.0
H835 H 0.66522 0.64875 0.57299 0.0
H836 H 0.64767 0.7067 0.52524 0.0
H837 H 0.67346 0.70538 0.48018 0.0
C838 C 0.68806 0.66654 0.47106 0.0
C839 C 0.69061 0.6426 0.46917 0.0
C840 C 0.68199 0.67436 0.49954 0.0
C841 C 0.6943 0.63107 0.4965 0.0
C842 C 0.68995 0.63987 0.52525 0.0
C843 C 0.66781 0.66183 0.55313 0.0
C844 C 0.65337 0.67672 0.55186 0.0
C845 C 0.68121 0.65964 0.52661 0.0
C846 C 0.6578 0.69434 0.52645 0.0
C847 C 0.67245 0.69347 0.50056 0.0
H848 H 0.99985 0.65996 0.05463 0.0
H849 H 0.92361 0.6197 0.0021 0.0
H850 H 0.94881 0.64528 0.95575 0.0
H851 H 0.99355 0.66747 0.92845 0.0
H852 H 0.07012 0.70216 0.98044 0.0
H853 H 0.04386 0.69154 0.02871 0.0
C854 C 0.98862 0.65741 0.03322 0.0
C855 C 0.96019 0.63722 0.03137 0.0
C856 C 0.00348 0.67099 0.00644 0.0
C857 C 0.94562 0.63474 0.00391 0.0
C858 C 0.96009 0.64921 0.97735 0.0
C859 C 0.0046 0.67352 0.95031 0.0
C860 C 0.03364 0.68436 0.95093 0.0
C861 C 0.98927 0.66565 0.97794 0.0
C862 C 0.04772 0.69308 0.97932 0.0
C863 C 0.03267 0.68675 0.00698 0.0
H864 H 0.30816 0.938 0.51823 0.0
H865 H 0.34848 0.00086 0.58845 0.0
H866 H 0.35909 0.0373 0.55051 0.0
H867 H 0.36937 0.05067 0.49553 0.0
H868 H 0.32994 0.98762 0.42543 0.0
H869 H 0.30588 0.95224 0.46503 0.0
C870 C 0.31824 0.95958 0.52552 0.0
C871 C 0.32881 0.96676 0.55568 0.0
C872 C 0.32504 0.98059 0.50335 0.0
C873 C 0.34104 0.99478 0.565 0.0
C874 C 0.34729 0.01575 0.54325 0.0
C875 C 0.35454 0.02944 0.48894 0.0
C876 C 0.35231 0.02149 0.45778 0.0
C877 C 0.3414 0.00892 0.51194 0.0
C878 C 0.33264 0.99402 0.44945 0.0
C879 C 0.31897 0.9737 0.47209 0.0
H880 H 0.3496 0.31054 0.01875 0.0
H881 H 0.36405 0.37869 0.07861 0.0
H882 H 0.33526 0.38966 0.04578 0.0
H883 H 0.31878 0.38858 0.99296 0.0
H884 H 0.30823 0.32337 0.931 0.0
H885 H 0.32081 0.30151 0.97216 0.0
C886 C 0.34563 0.32715 0.02515 0.0
C887 C 0.35986 0.34448 0.05026 0.0
C888 C 0.32964 0.33393 0.00559 0.0
C889 C 0.35404 0.36555 0.05875 0.0
C890 C 0.33752 0.37188 0.03999 0.0
C891 C 0.31764 0.3687 0.98909 0.0
C892 C 0.31337 0.3579 0.95901 0.0
C893 C 0.32698 0.35751 0.01219 0.0
C894 C 0.31184 0.33214 0.95406 0.0
C895 C 0.31957 0.31996 0.97744 0.0
H896 H 0.99376 0.3238 0.55689 0.0
H897 H 0.07044 0.36827 0.50507 0.0
H898 H 0.04463 0.35189 0.45673 0.0
H899 H 1.00033 0.33723 0.43057 0.0
H900 H 0.92372 0.29839 0.48298 0.0
H901 H 0.94927 0.29934 0.52941 0.0
C902 C 0.00496 0.32928 0.53506 0.0
C903 C 0.03384 0.34826 0.53452 0.0
C904 C 0.98983 0.32114 0.50736 0.0
C905 C 0.04813 0.35432 0.50613 0.0
C906 C 0.03334 0.34509 0.47843 0.0
C907 C 0.98909 0.3282 0.45196 0.0
C908 C 0.96038 0.31887 0.45372 0.0
C909 C 0.00411 0.33041 0.47888 0.0
C910 C 0.94592 0.30629 0.48119 0.0
C911 C 0.96059 0.30709 0.50784 0.0
H912 H 0.49357 0.05537 0.05546 0.0
H913 H 0.52577 0.13259 0.10531 0.0
H914 H 0.57295 0.13924 0.10231 0.0
H915 H 0.60347 0.11907 0.09216 0.0
H916 H 0.56951 0.04086 0.04371 0.0
H917 H 0.52481 0.03889 0.03891 0.0
C918 C 0.511 0.07389 0.06524 0.0
C919 C 0.50621 0.09319 0.08107 0.0
C920 C 0.53777 0.07729 0.06379 0.0
C921 C 0.52898 0.11737 0.09312 0.0
C922 C 0.55591 0.12107 0.09156 0.0
C923 C 0.58645 0.10203 0.0799 0.0
C924 C 0.5896 0.07991 0.06874 0.0
C925 C 0.56038 0.10062 0.07793 0.0
C926 C 0.56742 0.0579 0.05291 0.0
C927 C 0.54183 0.05671 0.0502 0.0
H928 H 0.48286 0.60105 0.5726 0.0
H929 H 0.53 0.56794 0.52872 0.0
H930 H 0.48738 0.52384 0.51966 0.0
H931 H 0.43902 0.49205 0.53446 0.0
H932 H 0.39161 0.52354 0.5808 0.0
H933 H 0.4317 0.57091 0.5783 0.0
C934 C 0.48358 0.58449 0.56009 0.0
C935 C 0.50949 0.58749 0.55176 0.0
C936 C 0.459 0.5587 0.55604 0.0
C937 C 0.51027 0.5659 0.53568 0.0
C938 C 0.48594 0.54064 0.53064 0.0
C939 C 0.43726 0.50944 0.54321 0.0
C940 C 0.41271 0.50437 0.5583 0.0
C941 C 0.4605 0.53633 0.54234 0.0
C942 C 0.4104 0.52699 0.56916 0.0
C943 C 0.43341 0.55403 0.56798 0.0
H944 H 0.88466 0.39765 0.07346 0.0
H945 H 0.9626 0.43401 0.0236 0.0
H946 H 0.96207 0.47744 0.01778 0.0
H947 H 0.94455 0.5076 0.03612 0.0
H948 H 0.86737 0.47236 0.08701 0.0
H949 H 0.86225 0.42594 0.08287 0.0
C950 C 0.90103 0.41477 0.06045 0.0
C951 C 0.92397 0.41286 0.04962 0.0
C952 C 0.90102 0.44008 0.05797 0.0
C953 C 0.94497 0.43516 0.03265 0.0
C954 C 0.94476 0.46007 0.02944 0.0
C955 C 0.92628 0.48961 0.04566 0.0
C956 C 0.90667 0.49334 0.06239 0.0
C957 C 0.92373 0.46322 0.04352 0.0
C958 C 0.88282 0.46994 0.07417 0.0
C959 C 0.88 0.44345 0.07198 0.0
H960 H 0.40282 0.87087 0.56431 0.0
H961 H 0.43624 0.95598 0.5346 0.0
H962 H 0.48057 0.9591 0.52184 0.0
H963 H 0.51241 0.94162 0.53149 0.0
H964 H 0.48085 0.85819 0.56602 0.0
H965 H 0.43322 0.84996 0.56353 0.0
C966 C 0.41954 0.8897 0.55403 0.0
C967 C 0.41662 0.91335 0.55092 0.0
C968 C 0.44547 0.89174 0.54807 0.0
C969 C 0.43832 0.9377 0.53763 0.0
C970 C 0.46366 0.93951 0.53041 0.0
C971 C 0.49499 0.92131 0.53744 0.0
C972 C 0.50008 0.90081 0.54969 0.0
C973 C 0.46796 0.91727 0.5374 0.0
C974 C 0.47743 0.8744 0.55675 0.0
C975 C 0.4502 0.86982 0.55572 0.0
H976 H 0.54874 0.51356 0.07992 0.0
H977 H 0.6054 0.48283 0.06339 0.0
H978 H 0.56597 0.43631 0.05336 0.0
H979 H 0.51514 0.40376 0.05234 0.0
H980 H 0.45925 0.43542 0.06897 0.0
H981 H 0.49868 0.48212 0.07595 0.0
C982 C 0.55258 0.49678 0.07399 0.0
C983 C 0.58004 0.5017 0.07274 0.0
C984 C 0.5299 0.47013 0.0685 0.0
C985 C 0.5845 0.47965 0.06471 0.0
C986 C 0.56195 0.45301 0.05901 0.0
C987 C 0.51163 0.42093 0.0573 0.0
C988 C 0.48426 0.41598 0.06076 0.0
C989 C 0.53452 0.44791 0.06132 0.0
C990 C 0.48006 0.4385 0.06687 0.0
C991 C 0.50262 0.46528 0.07074 0.0
H992 H 0.1094 0.50529 0.57173 0.0
H993 H 0.02606 0.45918 0.60938 0.0
H994 H 0.02244 0.50097 0.60916 0.0
H995 H 0.04315 0.55066 0.6011 0.0
H996 H 0.12645 0.59839 0.56422 0.0
H997 H 0.12963 0.55589 0.56095 0.0
C998 C 0.09038 0.50438 0.57962 0.0
C999 C 0.06813 0.47902 0.59077 0.0
C1000 C 0.08838 0.52878 0.57966 0.0
C1001 C 0.04363 0.47829 0.60086 0.0
C1002 C 0.04147 0.50224 0.60076 0.0
C1003 C 0.06205 0.55191 0.59218 0.0
C1004 C 0.08462 0.57781 0.5832 0.0
C1005 C 0.0638 0.52761 0.59067 0.0
C1006 C 0.10876 0.57878 0.57142 0.0
C1007 C 0.11061 0.55447 0.56963 0.0
H1008 H 0.88173 0.48228 0.41622 0.0
H1009 H 0.96852 0.53327 0.44004 0.0
H1010 H 0.97176 0.4918 0.45032 0.0
H1011 H 0.95227 0.44184 0.44441 0.0
H1012 H 0.86646 0.39022 0.41728 0.0
H1013 H 0.86027 0.43093 0.41729 0.0
C1014 C 0.90114 0.48422 0.42427 0.0
C1015 C 0.92499 0.51075 0.42675 0.0
C1016 C 0.9031 0.46018 0.42931 0.0
C1017 C 0.95002 0.51305 0.43734 0.0
C1018 C 0.95189 0.48935 0.44328 0.0
C1019 C 0.93203 0.43936 0.43906 0.0
C1020 C 0.91006 0.41318 0.43017 0.0
C1021 C 0.92892 0.46289 0.43806 0.0
C1022 C 0.88382 0.41021 0.42395 0.0
C1023 C 0.88032 0.43354 0.4237 0.0
H1024 H 0.48502 0.88546 0.91152 0.0
H1025 H 0.53585 0.97471 0.91987 0.0
H1026 H 0.49434 0.97897 0.92337 0.0
H1027 H 0.44425 0.95837 0.91707 0.0
H1028 H 0.3923 0.86949 0.90748 0.0
H1029 H 0.43342 0.86396 0.91184 0.0
C1030 C 0.48691 0.90572 0.91481 0.0
C1031 C 0.51348 0.92978 0.91495 0.0
C1032 C 0.46278 0.90813 0.91614 0.0
C1033 C 0.51565 0.95592 0.91921 0.0
C1034 C 0.49192 0.9584 0.92117 0.0
C1035 C 0.44186 0.93773 0.91631 0.0
C1036 C 0.4154 0.91444 0.91139 0.0
C1037 C 0.46548 0.93481 0.91847 0.0
C1038 C 0.41251 0.88778 0.9111 0.0
C1039 C 0.43604 0.88464 0.91342 0.0
H1040 H 0.48877 0.43914 0.44893 0.0
H1041 H 0.52422 0.39229 0.40975 0.0
H1042 H 0.57068 0.43354 0.41181 0.0
H1043 H 0.59945 0.48486 0.41557 0.0
H1044 H 0.56252 0.5314 0.45217 0.0
H1045 H 0.51864 0.48844 0.46048 0.0
C1046 C 0.50676 0.43776 0.44157 0.0
C1047 C 0.50299 0.41287 0.42863 0.0
C1048 C 0.53316 0.46173 0.44178 0.0
C1049 C 0.52652 0.41124 0.41969 0.0
C1050 C 0.55309 0.43494 0.42053 0.0
C1051 C 0.58196 0.48551 0.42596 0.0
C1052 C 0.58406 0.51135 0.43252 0.0
C1053 C 0.55642 0.46064 0.43006 0.0
C1054 C 0.56129 0.51184 0.44624 0.0
C1055 C 0.53616 0.48727 0.45107 0.0
H1056 H 0.0394 0.49069 0.92814 0.0
H1057 H 0.12761 0.52537 0.91395 0.0
H1058 H 0.13413 0.57249 0.91431 0.0
H1059 H 0.11319 0.60291 0.90972 0.0
H1060 H 0.02427 0.56638 0.92076 0.0
H1061 H 0.01963 0.52108 0.9307 0.0
C1062 C 0.06017 0.5086 0.92579 0.0
C1063 C 0.0829 0.50458 0.92045 0.0
C1064 C 0.06354 0.53534 0.92487 0.0
C1065 C 0.10974 0.52794 0.91801 0.0
C1066 C 0.11342 0.55487 0.91786 0.0
C1067 C 0.09292 0.58509 0.91481 0.0
C1068 C 0.06903 0.58786 0.91378 0.0
C1069 C 0.09025 0.55872 0.91982 0.0
C1070 C 0.0429 0.56467 0.92068 0.0
C1071 C 0.04021 0.53874 0.92649 0.0
H1072 H 0.59604 0.11507 0.41453 0.0
H1073 H 0.56088 0.02958 0.44396 0.0
H1074 H 0.51618 0.02654 0.4535 0.0
H1075 H 0.48532 0.04532 0.44541 0.0
H1076 H 0.51847 0.1298 0.41375 0.0
H1077 H 0.56568 0.13636 0.41377 0.0
C1078 C 0.57873 0.09606 0.42372 0.0
C1079 C 0.58158 0.07242 0.428 0.0
C1080 C 0.55263 0.09417 0.42841 0.0
C1081 C 0.55904 0.04789 0.43995 0.0
C1082 C 0.53345 0.04611 0.44543 0.0
C1083 C 0.50297 0.06538 0.43915 0.0
C1084 C 0.49843 0.08689 0.42913 0.0
C1085 C 0.52971 0.06868 0.43846 0.0
C1086 C 0.52146 0.1129 0.42153 0.0
C1087 C 0.54842 0.11655 0.42126 0.0
H1088 H 0.47335 0.59701 0.91936 0.0
H1089 H 0.51877 0.56374 0.96693 0.0
H1090 H 0.47601 0.51919 0.97356 0.0
H1091 H 0.4284 0.48744 0.95641 0.0
H1092 H 0.38312 0.51951 0.90641 0.0
H1093 H 0.42286 0.56678 0.91062 0.0
C1094 C 0.47367 0.5803 0.93211 0.0
C1095 C 0.49921 0.58345 0.94215 0.0
C1096 C 0.44911 0.55432 0.93482 0.0
C1097 C 0.49938 0.56165 0.95862 0.0
C1098 C 0.47497 0.53611 0.96226 0.0
C1099 C 0.427 0.50486 0.94703 0.0
C1100 C 0.40316 0.49995 0.93048 0.0
C1101 C 0.4501 0.53179 0.94891 0.0
C1102 C 0.40137 0.52273 0.91902 0.0
C1103 C 0.42417 0.54976 0.92125 0.0
loop_
_geom_bond_atom_site_label_1
_geom_bond_atom_site_label_2
_geom_bond_distance
_geom_bond_site_symmetry_2
_ccdc_geom_bond_type
Zn0 O3 2.031 . S
Zn0 O5 2.049 . S
Zn0 O10 2.067 . S
Zn1 O2 1.962 . S
Zn1 O4 1.986 . S
Zn1 O6 1.996 . S
Zn1 O9 1.943 . S
O2 Zn1 1.962 . S
O2 C7 1.254 . S
O3 Zn0 2.031 . S
O3 C7 1.269 . S
O4 Zn1 1.986 . S
O4 C11 1.262 . S
O5 Zn0 2.049 . S
O5 C13 1.260 . S
O6 Zn1 1.996 . S
O6 C13 1.257 . S
C7 O2 1.254 . S
C7 O3 1.269 . S
C8 O9 1.249 . S
C8 O10 1.270 . S
O9 Zn1 1.943 . S
O9 C8 1.249 . S
O10 Zn0 2.067 . S
O10 C8 1.270 . S
C11 O4 1.262 . S
C11 O12 1.232 . S
O12 C11 1.232 . S
C13 O5 1.260 . S
C13 O6 1.257 . S
Zn14 O17 2.031 . S
Zn14 O19 2.049 . S
Zn14 O24 2.067 . S
Zn15 O16 1.962 . S
Zn15 O18 1.986 . S
Zn15 O20 1.996 . S
Zn15 O23 1.943 . S
O16 Zn15 1.962 . S
O16 C21 1.254 . S
O17 Zn14 2.031 . S
O17 C21 1.269 . S
O18 Zn15 1.986 . S
O18 C25 1.262 . S
O19 Zn14 2.049 . S
O19 C27 1.260 . S
O20 Zn15 1.996 . S
O20 C27 1.257 . S
C21 O16 1.254 . S
C21 O17 1.269 . S
C22 O23 1.249 . S
C22 O24 1.270 . S
O23 Zn15 1.943 . S
O23 C22 1.249 . S
O24 Zn14 2.067 . S
O24 C22 1.270 . S
C25 O18 1.262 . S
C25 O26 1.232 . S
O26 C25 1.232 . S
C27 O19 1.260 . S
C27 O20 1.257 . S
Zn28 O31 2.031 . S
Zn28 O33 2.049 . S
Zn28 O38 2.067 . S
Zn29 O30 1.962 . S
Zn29 O32 1.986 . S
Zn29 O34 1.996 . S
Zn29 O37 1.943 . S
O30 Zn29 1.962 . S
O30 C35 1.254 . S
O31 Zn28 2.031 . S
O31 C35 1.269 . S
O32 Zn29 1.986 . S
O32 C39 1.262 . S
O33 Zn28 2.049 . S
O33 C41 1.260 . S
O34 Zn29 1.996 . S
O34 C41 1.257 . S
C35 O30 1.254 . S
C35 O31 1.269 . S
C36 O37 1.249 . S
C36 O38 1.270 . S
O37 Zn29 1.943 . S
O37 C36 1.249 . S
O38 Zn28 2.067 . S
O38 C36 1.270 . S
C39 O32 1.262 . S
C39 O40 1.232 . S
O40 C39 1.232 . S
C41 O33 1.260 . S
C41 O34 1.257 . S
Zn42 O45 2.031 . S
Zn42 O47 2.049 . S
Zn42 O52 2.067 . S
Zn43 O44 1.962 . S
Zn43 O46 1.986 . S
Zn43 O48 1.996 . S
Zn43 O51 1.943 . S
O44 Zn43 1.962 . S
O44 C49 1.254 . S
O45 Zn42 2.031 . S
O45 C49 1.269 . S
O46 Zn43 1.986 . S
O46 C53 1.262 . S
O47 Zn42 2.049 . S
O47 C55 1.260 . S
O48 Zn43 1.996 . S
O48 C55 1.257 . S
C49 O44 1.254 . S
C49 O45 1.269 . S
C50 O51 1.249 . S
C50 O52 1.270 . S
O51 Zn43 1.943 . S
O51 C50 1.249 . S
O52 Zn42 2.067 . S
O52 C50 1.270 . S
C53 O46 1.262 . S
C53 O54 1.232 . S
O54 C53 1.232 . S
C55 O47 1.260 . S
C55 O48 1.257 . S
Zn56 O59 2.031 . S
Zn56 O61 2.049 . S
Zn56 O66 2.067 . S
Zn57 O58 1.962 . S
Zn57 O60 1.986 . S
Zn57 O62 1.996 . S
Zn57 O65 1.943 . S
O58 Zn57 1.962 . S
O58 C63 1.254 . S
O59 Zn56 2.031 . S
O59 C63 1.269 . S
O60 Zn57 1.986 . S
O60 C67 1.262 . S
O61 Zn56 2.049 . S
O61 C69 1.260 . S
O62 Zn57 1.996 . S
O62 C69 1.257 . S
C63 O58 1.254 . S
C63 O59 1.269 . S
C64 O65 1.249 . S
C64 O66 1.270 . S
O65 Zn57 1.943 . S
O65 C64 1.249 . S
O66 Zn56 2.067 . S
O66 C64 1.270 . S
C67 O60 1.262 . S
C67 O68 1.232 . S
O68 C67 1.232 . S
C69 O61 1.260 . S
C69 O62 1.257 . S
Zn70 O73 2.031 . S
Zn70 O75 2.049 . S
Zn70 O80 2.067 . S
Zn71 O72 1.962 . S
Zn71 O74 1.986 . S
Zn71 O76 1.996 . S
Zn71 O79 1.943 . S
O72 Zn71 1.962 . S
O72 C77 1.254 . S
O73 Zn70 2.031 . S
O73 C77 1.269 . S
O74 Zn71 1.986 . S
O74 C81 1.262 . S
O75 Zn70 2.049 . S
O75 C83 1.260 . S
O76 Zn71 1.996 . S
O76 C83 1.257 . S
C77 O72 1.254 . S
C77 O73 1.269 . S
C78 O79 1.249 . S
C78 O80 1.270 . S
O79 Zn71 1.943 . S
O79 C78 1.249 . S
O80 Zn70 2.067 . S
O80 C78 1.270 . S
C81 O74 1.262 . S
C81 O82 1.232 . S
O82 C81 1.232 . S
C83 O75 1.260 . S
C83 O76 1.257 . S
Zn84 O87 2.031 . S
Zn84 O89 2.049 . S
Zn84 O94 2.067 . S
Zn85 O86 1.962 . S
Zn85 O88 1.986 . S
Zn85 O90 1.996 . S
Zn85 O93 1.943 . S
O86 Zn85 1.962 . S
O86 C91 1.254 . S
O87 Zn84 2.031 . S
O87 C91 1.269 . S
O88 Zn85 1.986 . S
O88 C95 1.262 . S
O89 Zn84 2.049 . S
O89 C97 1.260 . S
O90 Zn85 1.996 . S
O90 C97 1.257 . S
C91 O86 1.254 . S
C91 O87 1.269 . S
C92 O93 1.249 . S
C92 O94 1.270 . S
O93 Zn85 1.943 . S
O93 C92 1.249 . S
O94 Zn84 2.067 . S
O94 C92 1.270 . S
C95 O88 1.262 . S
C95 O96 1.232 . S
O96 C95 1.232 . S
C97 O89 1.260 . S
C97 O90 1.257 . S
Zn98 O101 2.031 . S
Zn98 O103 2.049 . S
Zn98 O108 2.067 . S
Zn99 O100 1.962 . S
Zn99 O102 1.986 . S
Zn99 O104 1.996 . S
Zn99 O107 1.943 . S
O100 Zn99 1.962 . S
O100 C105 1.254 . S
O101 Zn98 2.031 . S
O101 C105 1.269 . S
O102 Zn99 1.986 . S
O102 C109 1.262 . S
O103 Zn98 2.049 . S
O103 C111 1.260 . S
O104 Zn99 1.996 . S
O104 C111 1.257 . S
C105 O100 1.254 . S
C105 O101 1.269 . S
C106 O107 1.249 . S
C106 O108 1.270 . S
O107 Zn99 1.943 . S
O107 C106 1.249 . S
O108 Zn98 2.067 . S
O108 C106 1.270 . S
C109 O102 1.262 . S
C109 O110 1.232 . S
O110 C109 1.232 . S
C111 O103 1.260 . S
C111 O104 1.257 . S
Zn112 O115 2.031 . S
Zn112 O117 2.049 . S
Zn112 O122 2.067 . S
Zn113 O114 1.962 . S
Zn113 O116 1.986 . S
Zn113 O118 1.996 . S
Zn113 O121 1.943 . S
O114 Zn113 1.962 . S
O114 C119 1.254 . S
O115 Zn112 2.031 . S
O115 C119 1.269 . S
O116 Zn113 1.986 . S
O116 C123 1.262 . S
O117 Zn112 2.049 . S
O117 C125 1.260 . S
O118 Zn113 1.996 . S
O118 C125 1.257 . S
C119 O114 1.254 . S
C119 O115 1.269 . S
C120 O121 1.249 . S
C120 O122 1.270 . S
O121 Zn113 1.943 . S
O121 C120 1.249 . S
O122 Zn112 2.067 . S
O122 C120 1.270 . S
C123 O116 1.262 . S
C123 O124 1.232 . S
O124 C123 1.232 . S
C125 O117 1.260 . S
C125 O118 1.257 . S
Zn126 O129 2.031 . S
Zn126 O131 2.049 . S
Zn126 O136 2.067 . S
Zn127 O128 1.962 . S
Zn127 O130 1.986 . S
Zn127 O132 1.996 . S
Zn127 O135 1.943 . S
O128 Zn127 1.962 . S
O128 C133 1.254 . S
O129 Zn126 2.031 . S
O129 C133 1.269 . S
O130 Zn127 1.986 . S
O130 C137 1.262 . S
O131 Zn126 2.049 . S
O131 C139 1.260 . S
O132 Zn127 1.996 . S
O132 C139 1.257 . S
C133 O128 1.254 . S
C133 O129 1.269 . S
C134 O135 1.249 . S
C134 O136 1.270 . S
O135 Zn127 1.943 . S
O135 C134 1.249 . S
O136 Zn126 2.067 . S
O136 C134 1.270 . S
C137 O130 1.262 . S
C137 O138 1.232 . S
O138 C137 1.232 . S
C139 O131 1.260 . S
C139 O132 1.257 . S
Zn140 O143 2.031 . S
Zn140 O145 2.049 . S
Zn140 O150 2.067 . S
Zn141 O142 1.962 . S
Zn141 O144 1.986 . S
Zn141 O146 1.996 . S
Zn141 O149 1.943 . S
O142 Zn141 1.962 . S
O142 C147 1.254 . S
O143 Zn140 2.031 . S
O143 C147 1.269 . S
O144 Zn141 1.986 . S
O144 C151 1.262 . S
O145 Zn140 2.049 . S
O145 C153 1.260 . S
O146 Zn141 1.996 . S
O146 C153 1.257 . S
C147 O142 1.254 . S
C147 O143 1.269 . S
C148 O149 1.249 . S
C148 O150 1.270 . S
O149 Zn141 1.943 . S
O149 C148 1.249 . S
O150 Zn140 2.067 . S
O150 C148 1.270 . S
C151 O144 1.262 . S
C151 O152 1.232 . S
O152 C151 1.232 . S
C153 O145 1.260 . S
C153 O146 1.257 . S
Zn154 O157 2.031 . S
Zn154 O159 2.049 . S
Zn154 O164 2.067 . S
Zn155 O156 1.962 . S
Zn155 O158 1.986 . S
Zn155 O160 1.996 . S
Zn155 O163 1.943 . S
O156 Zn155 1.962 . S
O156 C161 1.254 . S
O157 Zn154 2.031 . S
O157 C161 1.269 . S
O158 Zn155 1.986 . S
O158 C165 1.262 . S
O159 Zn154 2.049 . S
O159 C167 1.260 . S
O160 Zn155 1.996 . S
O160 C167 1.257 . S
C161 O156 1.254 . S
C161 O157 1.269 . S
C162 O163 1.249 . S
C162 O164 1.270 . S
O163 Zn155 1.943 . S
O163 C162 1.249 . S
O164 Zn154 2.067 . S
O164 C162 1.270 . S
C165 O158 1.262 . S
C165 O166 1.232 . S
O166 C165 1.232 . S
C167 O159 1.260 . S
C167 O160 1.257 . S
Zn168 O171 2.031 . S
Zn168 O173 2.049 . S
Zn168 O178 2.067 . S
Zn169 O170 1.962 . S
Zn169 O172 1.986 . S
Zn169 O174 1.996 . S
Zn169 O177 1.943 . S
O170 Zn169 1.962 . S
O170 C175 1.254 . S
O171 Zn168 2.031 . S
O171 C175 1.269 . S
O172 Zn169 1.986 . S
O172 C179 1.262 . S
O173 Zn168 2.049 . S
O173 C181 1.260 . S
O174 Zn169 1.996 . S
O174 C181 1.257 . S
C175 O170 1.254 . S
C175 O171 1.269 . S
C176 O177 1.249 . S
C176 O178 1.270 . S
O177 Zn169 1.943 . S
O177 C176 1.249 . S
O178 Zn168 2.067 . S
O178 C176 1.270 . S
C179 O172 1.262 . S
C179 O180 1.232 . S
O180 C179 1.232 . S
C181 O173 1.260 . S
C181 O174 1.257 . S
Zn182 O185 2.031 . S
Zn182 O187 2.049 . S
Zn182 O192 2.067 . S
Zn183 O184 1.962 . S
Zn183 O186 1.986 . S
Zn183 O188 1.996 . S
Zn183 O191 1.943 . S
O184 Zn183 1.962 . S
O184 C189 1.254 . S
O185 Zn182 2.031 . S
O185 C189 1.269 . S
O186 Zn183 1.986 . S
O186 C193 1.262 . S
O187 Zn182 2.049 . S
O187 C195 1.260 . S
O188 Zn183 1.996 . S
O188 C195 1.257 . S
C189 O184 1.254 . S
C189 O185 1.269 . S
C190 O191 1.249 . S
C190 O192 1.270 . S
O191 Zn183 1.943 . S
O191 C190 1.249 . S
O192 Zn182 2.067 . S
O192 C190 1.270 . S
C193 O186 1.262 . S
C193 O194 1.232 . S
O194 C193 1.232 . S
C195 O187 1.260 . S
C195 O188 1.257 . S
Zn196 O199 2.031 . S
Zn196 O201 2.049 . S
Zn196 O206 2.067 . S
Zn197 O198 1.962 . S
Zn197 O200 1.986 . S
Zn197 O202 1.996 . S
Zn197 O205 1.943 . S
O198 Zn197 1.962 . S
O198 C203 1.254 . S
O199 Zn196 2.031 . S
O199 C203 1.269 . S
O200 Zn197 1.986 . S
O200 C207 1.262 . S
O201 Zn196 2.049 . S
O201 C209 1.260 . S
O202 Zn197 1.996 . S
O202 C209 1.257 . S
C203 O198 1.254 . S
C203 O199 1.269 . S
C204 O205 1.249 . S
C204 O206 1.270 . S
O205 Zn197 1.943 . S
O205 C204 1.249 . S
O206 Zn196 2.067 . S
O206 C204 1.270 . S
C207 O200 1.262 . S
C207 O208 1.232 . S
O208 C207 1.232 . S
C209 O201 1.260 . S
C209 O202 1.257 . S
Zn210 O213 2.031 . S
Zn210 O215 2.049 . S
Zn210 O220 2.067 . S
Zn211 O212 1.962 . S
Zn211 O214 1.986 . S
Zn211 O216 1.996 . S
Zn211 O219 1.943 . S
O212 Zn211 1.962 . S
O212 C217 1.254 . S
O213 Zn210 2.031 . S
O213 C217 1.269 . S
O214 Zn211 1.986 . S
O214 C221 1.262 . S
O215 Zn210 2.049 . S
O215 C223 1.260 . S
O216 Zn211 1.996 . S
O216 C223 1.257 . S
C217 O212 1.254 . S
C217 O213 1.269 . S
C218 O219 1.249 . S
C218 O220 1.270 . S
O219 Zn211 1.943 . S
O219 C218 1.249 . S
O220 Zn210 2.067 . S
O220 C218 1.270 . S
C221 O214 1.262 . S
C221 O222 1.232 . S
O222 C221 1.232 . S
C223 O215 1.260 . S
C223 O216 1.257 . S
Zn224 O227 2.031 . S
Zn224 O229 2.049 . S
Zn224 O234 2.067 . S
Zn225 O226 1.962 . S
Zn225 O228 1.986 . S
Zn225 O230 1.996 . S
Zn225 O233 1.943 . S
O226 Zn225 1.962 . S
O226 C231 1.254 . S
O227 Zn224 2.031 . S
O227 C231 1.269 . S
O228 Zn225 1.986 . S
O228 C235 1.262 . S
O229 Zn224 2.049 . S
O229 C237 1.260 . S
O230 Zn225 1.996 . S
O230 C237 1.257 . S
C231 O226 1.254 . S
C231 O227 1.269 . S
C232 O233 1.249 . S
C232 O234 1.270 . S
O233 Zn225 1.943 . S
O233 C232 1.249 . S
O234 Zn224 2.067 . S
O234 C232 1.270 . S
C235 O228 1.262 . S
C235 O236 1.232 . S
O236 C235 1.232 . S
C237 O229 1.260 . S
C237 O230 1.257 . S
Zn238 O241 2.031 . S
Zn238 O243 2.049 . S
Zn238 O248 2.067 . S
Zn239 O240 1.962 . S
Zn239 O242 1.986 . S
Zn239 O244 1.996 . S
Zn239 O247 1.943 . S
O240 Zn239 1.962 . S
O240 C245 1.254 . S
O241 Zn238 2.031 . S
O241 C245 1.269 . S
O242 Zn239 1.986 . S
O242 C249 1.262 . S
O243 Zn238 2.049 . S
O243 C251 1.260 . S
O244 Zn239 1.996 . S
O244 C251 1.257 . S
C245 O240 1.254 . S
C245 O241 1.269 . S
C246 O247 1.249 . S
C246 O248 1.270 . S
O247 Zn239 1.943 . S
O247 C246 1.249 . S
O248 Zn238 2.067 . S
O248 C246 1.270 . S
C249 O242 1.262 . S
C249 O250 1.232 . S
O250 C249 1.232 . S
C251 O243 1.260 . S
C251 O244 1.257 . S
Zn252 O255 2.031 . S
Zn252 O257 2.049 . S
Zn252 O262 2.067 . S
Zn253 O254 1.962 . S
Zn253 O256 1.986 . S
Zn253 O258 1.996 . S
Zn253 O261 1.943 . S
O254 Zn253 1.962 . S
O254 C259 1.254 . S
O255 Zn252 2.031 . S
O255 C259 1.269 . S
O256 Zn253 1.986 . S
O256 C263 1.262 . S
O257 Zn252 2.049 . S
O257 C265 1.260 . S
O258 Zn253 1.996 . S
O258 C265 1.257 . S
C259 O254 1.254 . S
C259 O255 1.269 . S
C260 O261 1.249 . S
C260 O262 1.270 . S
O261 Zn253 1.943 . S
O261 C260 1.249 . S
O262 Zn252 2.067 . S
O262 C260 1.270 . S
C263 O256 1.262 . S
C263 O264 1.232 . S
O264 C263 1.232 . S
C265 O257 1.260 . S
C265 O258 1.257 . S
Zn266 O269 2.031 . S
Zn266 O271 2.049 . S
Zn266 O276 2.067 . S
Zn267 O268 1.962 . S
Zn267 O270 1.986 . S
Zn267 O272 1.996 . S
Zn267 O275 1.943 . S
O268 Zn267 1.962 . S
O268 C273 1.254 . S
O269 Zn266 2.031 . S
O269 C273 1.269 . S
O270 Zn267 1.986 . S
O270 C277 1.262 . S
O271 Zn266 2.049 . S
O271 C279 1.260 . S
O272 Zn267 1.996 . S
O272 C279 1.257 . S
C273 O268 1.254 . S
C273 O269 1.269 . S
C274 O275 1.249 . S
C274 O276 1.270 . S
O275 Zn267 1.943 . S
O275 C274 1.249 . S
O276 Zn266 2.067 . S
O276 C274 1.270 . S
C277 O270 1.262 . S
C277 O278 1.232 . S
O278 C277 1.232 . S
C279 O271 1.260 . S
C279 O272 1.257 . S
Zn280 O283 2.031 . S
Zn280 O285 2.049 . S
Zn280 O290 2.067 . S
Zn281 O282 1.962 . S
Zn281 O284 1.986 . S
Zn281 O286 1.996 . S
Zn281 O289 1.943 . S
O282 Zn281 1.962 . S
O282 C287 1.254 . S
O283 Zn280 2.031 . S
O283 C287 1.269 . S
O284 Zn281 1.986 . S
O284 C291 1.262 . S
O285 Zn280 2.049 . S
O285 C293 1.260 . S
O286 Zn281 1.996 . S
O286 C293 1.257 . S
C287 O282 1.254 . S
C287 O283 1.269 . S
C288 O289 1.249 . S
C288 O290 1.270 . S
O289 Zn281 1.943 . S
O289 C288 1.249 . S
O290 Zn280 2.067 . S
O290 C288 1.270 . S
C291 O284 1.262 . S
C291 O292 1.232 . S
O292 C291 1.232 . S
C293 O285 1.260 . S
C293 O286 1.257 . S
Zn294 O297 2.031 . S
Zn294 O299 2.049 . S
Zn294 O304 2.067 . S
Zn295 O296 1.962 . S
Zn295 O298 1.986 . S
Zn295 O300 1.996 . S
Zn295 O303 1.943 . S
O296 Zn295 1.962 . S
O296 C301 1.254 . S
O297 Zn294 2.031 . S
O297 C301 1.269 . S
O298 Zn295 1.986 . S
O298 C305 1.262 . S
O299 Zn294 2.049 . S
O299 C307 1.260 . S
O300 Zn295 1.996 . S
O300 C307 1.257 . S
C301 O296 1.254 . S
C301 O297 1.269 . S
C302 O303 1.249 . S
C302 O304 1.270 . S
O303 Zn295 1.943 . S
O303 C302 1.249 . S
O304 Zn294 2.067 . S
O304 C302 1.270 . S
C305 O298 1.262 . S
C305 O306 1.232 . S
O306 C305 1.232 . S
C307 O299 1.260 . S
C307 O300 1.257 . S
Zn308 O311 2.031 . S
Zn308 O313 2.049 . S
Zn308 O318 2.067 . S
Zn309 O310 1.962 . S
Zn309 O312 1.986 . S
Zn309 O314 1.996 . S
Zn309 O317 1.943 . S
O310 Zn309 1.962 . S
O310 C315 1.254 . S
O311 Zn308 2.031 . S
O311 C315 1.269 . S
O312 Zn309 1.986 . S
O312 C319 1.262 . S
O313 Zn308 2.049 . S
O313 C321 1.260 . S
O314 Zn309 1.996 . S
O314 C321 1.257 . S
C315 O310 1.254 . S
C315 O311 1.269 . S
C316 O317 1.249 . S
C316 O318 1.270 . S
O317 Zn309 1.943 . S
O317 C316 1.249 . S
O318 Zn308 2.067 . S
O318 C316 1.270 . S
C319 O312 1.262 . S
C319 O320 1.232 . S
O320 C319 1.232 . S
C321 O313 1.260 . S
C321 O314 1.257 . S
Zn322 O325 2.031 . S
Zn322 O327 2.049 . S
Zn322 O332 2.067 . S
Zn323 O324 1.962 . S
Zn323 O326 1.986 . S
Zn323 O328 1.996 . S
Zn323 O331 1.943 . S
O324 Zn323 1.962 . S
O324 C329 1.254 . S
O325 Zn322 2.031 . S
O325 C329 1.269 . S
O326 Zn323 1.986 . S
O326 C333 1.262 . S
O327 Zn322 2.049 . S
O327 C335 1.260 . S
O328 Zn323 1.996 . S
O328 C335 1.257 . S
C329 O324 1.254 . S
C329 O325 1.269 . S
C330 O331 1.249 . S
C330 O332 1.270 . S
O331 Zn323 1.943 . S
O331 C330 1.249 . S
O332 Zn322 2.067 . S
O332 C330 1.270 . S
C333 O326 1.262 . S
C333 O334 1.232 . S
O334 C333 1.232 . S
C335 O327 1.260 . S
C335 O328 1.257 . S
H336 C342 0.930 . S
H337 C345 0.930 . S
H338 C346 0.930 . S
H339 C347 0.930 . S
H340 C350 0.930 . S
H341 C351 0.930 . S
C342 H336 0.930 . S
C342 C343 1.355 . S
C342 C344 1.415 . S
C343 C342 1.355 . S
C343 C345 1.419 . S
C344 C342 1.415 . S
C344 C349 1.425 . S
C344 C351 1.409 . S
C345 H337 0.930 . S
C345 C343 1.419 . S
C345 C346 1.362 . S
C346 H338 0.930 . S
C346 C345 1.362 . S
C346 C349 1.409 . S
C347 H339 0.930 . S
C347 C348 1.355 . S
C347 C349 1.415 . S
C348 C347 1.355 . S
C348 C350 1.419 . S
C349 C344 1.425 . S
C349 C346 1.409 . S
C349 C347 1.415 . S
C350 H340 0.930 . S
C350 C348 1.419 . S
C350 C351 1.362 . S
C351 H341 0.930 . S
C351 C344 1.409 . S
C351 C350 1.362 . S
H352 C358 0.930 . S
H353 C361 0.930 . S
H354 C362 0.930 . S
H355 C363 0.930 . S
H356 C366 0.930 . S
H357 C367 0.930 . S
C358 H352 0.930 . S
C358 C359 1.355 . S
C358 C360 1.415 . S
C359 C358 1.355 . S
C359 C361 1.419 . S
C360 C358 1.415 . S
C360 C365 1.425 . S
C360 C367 1.409 . S
C361 H353 0.930 . S
C361 C359 1.419 . S
C361 C362 1.362 . S
C362 H354 0.930 . S
C362 C361 1.362 . S
C362 C365 1.409 . S
C363 H355 0.930 . S
C363 C364 1.355 . S
C363 C365 1.415 . S
C364 C363 1.355 . S
C364 C366 1.419 . S
C365 C360 1.425 . S
C365 C362 1.409 . S
C365 C363 1.415 . S
C366 H356 0.930 . S
C366 C364 1.419 . S
C366 C367 1.362 . S
C367 H357 0.930 . S
C367 C360 1.409 . S
C367 C366 1.362 . S
H368 C374 0.930 . S
H369 C377 0.930 . S
H370 C378 0.930 . S
H371 C379 0.930 . S
H372 C382 0.930 . S
H373 C383 0.930 . S
C374 H368 0.930 . S
C374 C375 1.355 . S
C374 C376 1.415 . S
C375 C374 1.355 . S
C375 C377 1.419 . S
C376 C374 1.415 . S
C376 C381 1.425 . S
C376 C383 1.409 . S
C377 H369 0.930 . S
C377 C375 1.419 . S
C377 C378 1.362 . S
C378 H370 0.930 . S
C378 C377 1.362 . S
C378 C381 1.409 . S
C379 H371 0.930 . S
C379 C380 1.355 . S
C379 C381 1.415 . S
C380 C379 1.355 . S
C380 C382 1.419 . S
C381 C376 1.425 . S
C381 C378 1.409 . S
C381 C379 1.415 . S
C382 H372 0.930 . S
C382 C380 1.419 . S
C382 C383 1.362 . S
C383 H373 0.930 . S
C383 C376 1.409 . S
C383 C382 1.362 . S
H384 C390 0.930 . S
H385 C393 0.930 . S
H386 C394 0.930 . S
H387 C395 0.930 . S
H388 C398 0.930 . S
H389 C399 0.930 . S
C390 H384 0.930 . S
C390 C391 1.355 . S
C390 C392 1.415 . S
C391 C390 1.355 . S
C391 C393 1.419 . S
C392 C390 1.415 . S
C392 C397 1.425 . S
C392 C399 1.409 . S
C393 H385 0.930 . S
C393 C391 1.419 . S
C393 C394 1.362 . S
C394 H386 0.930 . S
C394 C393 1.362 . S
C394 C397 1.409 . S
C395 H387 0.930 . S
C395 C396 1.355 . S
C395 C397 1.415 . S
C396 C395 1.355 . S
C396 C398 1.419 . S
C397 C392 1.425 . S
C397 C394 1.409 . S
C397 C395 1.415 . S
C398 H388 0.930 . S
C398 C396 1.419 . S
C398 C399 1.362 . S
C399 H389 0.930 . S
C399 C392 1.409 . S
C399 C398 1.362 . S
H400 C406 0.930 . S
H401 C409 0.930 . S
H402 C410 0.930 . S
H403 C411 0.930 . S
H404 C414 0.930 . S
H405 C415 0.930 . S
C406 H400 0.930 . S
C406 C407 1.355 . S
C406 C408 1.415 . S
C407 C406 1.355 . S
C407 C409 1.419 . S
C408 C406 1.415 . S
C408 C413 1.425 . S
C408 C415 1.409 . S
C409 H401 0.930 . S
C409 C407 1.419 . S
C409 C410 1.362 . S
C410 H402 0.930 . S
C410 C409 1.362 . S
C410 C413 1.409 . S
C411 H403 0.930 . S
C411 C412 1.355 . S
C411 C413 1.415 . S
C412 C411 1.355 . S
C412 C414 1.419 . S
C413 C408 1.425 . S
C413 C410 1.409 . S
C413 C411 1.415 . S
C414 H404 0.930 . S
C414 C412 1.419 . S
C414 C415 1.362 . S
C415 H405 0.930 . S
C415 C408 1.409 . S
C415 C414 1.362 . S
H416 C422 0.930 . S
H417 C425 0.930 . S
H418 C426 0.930 . S
H419 C427 0.930 . S
H420 C430 0.930 . S
H421 C431 0.930 . S
C422 H416 0.930 . S
C422 C423 1.355 . S
C422 C424 1.415 . S
C423 C422 1.355 . S
C423 C425 1.419 . S
C424 C422 1.415 . S
C424 C429 1.425 . S
C424 C431 1.409 . S
C425 H417 0.930 . S
C425 C423 1.419 . S
C425 C426 1.362 . S
C426 H418 0.930 . S
C426 C425 1.362 . S
C426 C429 1.409 . S
C427 H419 0.930 . S
C427 C428 1.355 . S
C427 C429 1.415 . S
C428 C427 1.355 . S
C428 C430 1.419 . S
C429 C424 1.425 . S
C429 C426 1.409 . S
C429 C427 1.415 . S
C430 H420 0.930 . S
C430 C428 1.419 . S
C430 C431 1.362 . S
C431 H421 0.930 . S
C431 C424 1.409 . S
C431 C430 1.362 . S
H432 C438 0.930 . S
H433 C441 0.930 . S
H434 C442 0.930 . S
H435 C443 0.930 . S
H436 C446 0.930 . S
H437 C447 0.930 . S
C438 H432 0.930 . S
C438 C439 1.355 . S
C438 C440 1.415 . S
C439 C438 1.355 . S
C439 C441 1.419 . S
C440 C438 1.415 . S
C440 C445 1.425 . S
C440 C447 1.409 . S
C441 H433 0.930 . S
C441 C439 1.419 . S
C441 C442 1.362 . S
C442 H434 0.930 . S
C442 C441 1.362 . S
C442 C445 1.409 . S
C443 H435 0.930 . S
C443 C444 1.355 . S
C443 C445 1.415 . S
C444 C443 1.355 . S
C444 C446 1.419 . S
C445 C440 1.425 . S
C445 C442 1.409 . S
C445 C443 1.415 . S
C446 H436 0.930 . S
C446 C444 1.419 . S
C446 C447 1.362 . S
C447 H437 0.930 . S
C447 C440 1.409 . S
C447 C446 1.362 . S
H448 C454 0.930 . S
H449 C457 0.930 . S
H450 C458 0.930 . S
H451 C459 0.930 . S
H452 C462 0.930 . S
H453 C463 0.930 . S
C454 H448 0.930 . S
C454 C455 1.355 . S
C454 C456 1.415 . S
C455 C454 1.355 . S
C455 C457 1.419 . S
C456 C454 1.415 . S
C456 C461 1.425 . S
C456 C463 1.409 . S
C457 H449 0.930 . S
C457 C455 1.419 . S
C457 C458 1.362 . S
C458 H450 0.930 . S
C458 C457 1.362 . S
C458 C461 1.409 . S
C459 H451 0.930 . S
C459 C460 1.355 . S
C459 C461 1.415 . S
C460 C459 1.355 . S
C460 C462 1.419 . S
C461 C456 1.425 . S
C461 C458 1.409 . S
C461 C459 1.415 . S
C462 H452 0.930 . S
C462 C460 1.419 . S
C462 C463 1.362 . S
C463 H453 0.930 . S
C463 C456 1.409 . S
C463 C462 1.362 . S
H464 C470 0.930 . S
H465 C473 0.930 . S
H466 C474 0.930 . S
H467 C475 0.930 . S
H468 C478 0.930 . S
H469 C479 0.930 . S
C470 H464 0.930 . S
C470 C471 1.355 . S
C470 C472 1.415 . S
C471 C470 1.355 . S
C471 C473 1.419 . S
C472 C470 1.415 . S
C472 C477 1.425 . S
C472 C479 1.409 . S
C473 H465 0.930 . S
C473 C471 1.419 . S
C473 C474 1.362 . S
C474 H466 0.930 . S
C474 C473 1.362 . S
C474 C477 1.409 . S
C475 H467 0.930 . S
C475 C476 1.355 . S
C475 C477 1.415 . S
C476 C475 1.355 . S
C476 C478 1.419 . S
C477 C472 1.425 . S
C477 C474 1.409 . S
C477 C475 1.415 . S
C478 H468 0.930 . S
C478 C476 1.419 . S
C478 C479 1.362 . S
C479 H469 0.930 . S
C479 C472 1.409 . S
C479 C478 1.362 . S
H480 C486 0.930 . S
H481 C489 0.930 . S
H482 C490 0.930 . S
H483 C491 0.930 . S
H484 C494 0.930 . S
H485 C495 0.930 . S
C486 H480 0.930 . S
C486 C487 1.355 . S
C486 C488 1.415 . S
C487 C486 1.355 . S
C487 C489 1.419 . S
C488 C486 1.415 . S
C488 C493 1.425 . S
C488 C495 1.409 . S
C489 H481 0.930 . S
C489 C487 1.419 . S
C489 C490 1.362 . S
C490 H482 0.930 . S
C490 C489 1.362 . S
C490 C493 1.409 . S
C491 H483 0.930 . S
C491 C492 1.355 . S
C491 C493 1.415 . S
C492 C491 1.355 . S
C492 C494 1.419 . S
C493 C488 1.425 . S
C493 C490 1.409 . S
C493 C491 1.415 . S
C494 H484 0.930 . S
C494 C492 1.419 . S
C494 C495 1.362 . S
C495 H485 0.930 . S
C495 C488 1.409 . S
C495 C494 1.362 . S
H496 C502 0.930 . S
H497 C505 0.930 . S
H498 C506 0.930 . S
H499 C507 0.930 . S
H500 C510 0.930 . S
H501 C511 0.930 . S
C502 H496 0.930 . S
C502 C503 1.355 . S
C502 C504 1.415 . S
C503 C502 1.355 . S
C503 C505 1.419 . S
C504 C502 1.415 . S
C504 C509 1.425 . S
C504 C511 1.409 . S
C505 H497 0.930 . S
C505 C503 1.419 . S
C505 C506 1.362 . S
C506 H498 0.930 . S
C506 C505 1.362 . S
C506 C509 1.409 . S
C507 H499 0.930 . S
C507 C508 1.355 . S
C507 C509 1.415 . S
C508 C507 1.355 . S
C508 C510 1.419 . S
C509 C504 1.425 . S
C509 C506 1.409 . S
C509 C507 1.415 . S
C510 H500 0.930 . S
C510 C508 1.419 . S
C510 C511 1.362 . S
C511 H501 0.930 . S
C511 C504 1.409 . S
C511 C510 1.362 . S
H512 C518 0.930 . S
H513 C521 0.930 . S
H514 C522 0.930 . S
H515 C523 0.930 . S
H516 C526 0.930 . S
H517 C527 0.930 . S
C518 H512 0.930 . S
C518 C519 1.355 . S
C518 C520 1.415 . S
C519 C518 1.355 . S
C519 C521 1.419 . S
C520 C518 1.415 . S
C520 C525 1.425 . S
C520 C527 1.409 . S
C521 H513 0.930 . S
C521 C519 1.419 . S
C521 C522 1.362 . S
C522 H514 0.930 . S
C522 C521 1.362 . S
C522 C525 1.409 . S
C523 H515 0.930 . S
C523 C524 1.355 . S
C523 C525 1.415 . S
C524 C523 1.355 . S
C524 C526 1.419 . S
C525 C520 1.425 . S
C525 C522 1.409 . S
C525 C523 1.415 . S
C526 H516 0.930 . S
C526 C524 1.419 . S
C526 C527 1.362 . S
C527 H517 0.930 . S
C527 C520 1.409 . S
C527 C526 1.362 . S
H528 C534 0.930 . S
H529 C537 0.930 . S
H530 C538 0.930 . S
H531 C539 0.930 . S
H532 C542 0.930 . S
H533 C543 0.930 . S
C534 H528 0.930 . S
C534 C535 1.355 . S
C534 C536 1.415 . S
C535 C534 1.355 . S
C535 C537 1.419 . S
C536 C534 1.415 . S
C536 C541 1.425 . S
C536 C543 1.409 . S
C537 H529 0.930 . S
C537 C535 1.419 . S
C537 C538 1.362 . S
C538 H530 0.930 . S
C538 C537 1.362 . S
C538 C541 1.409 . S
C539 H531 0.930 . S
C539 C540 1.355 . S
C539 C541 1.415 . S
C540 C539 1.355 . S
C540 C542 1.419 . S
C541 C536 1.425 . S
C541 C538 1.409 . S
C541 C539 1.415 . S
C542 H532 0.930 . S
C542 C540 1.419 . S
C542 C543 1.362 . S
C543 H533 0.930 . S
C543 C536 1.409 . S
C543 C542 1.362 . S
H544 C550 0.930 . S
H545 C553 0.930 . S
H546 C554 0.930 . S
H547 C555 0.930 . S
H548 C558 0.930 . S
H549 C559 0.930 . S
C550 H544 0.930 . S
C550 C551 1.355 . S
C550 C552 1.415 . S
C551 C550 1.355 . S
C551 C553 1.419 . S
C552 C550 1.415 . S
C552 C557 1.425 . S
C552 C559 1.409 . S
C553 H545 0.930 . S
C553 C551 1.419 . S
C553 C554 1.362 . S
C554 H546 0.930 . S
C554 C553 1.362 . S
C554 C557 1.409 . S
C555 H547 0.930 . S
C555 C556 1.355 . S
C555 C557 1.415 . S
C556 C555 1.355 . S
C556 C558 1.419 . S
C557 C552 1.425 . S
C557 C554 1.409 . S
C557 C555 1.415 . S
C558 H548 0.930 . S
C558 C556 1.419 . S
C558 C559 1.362 . S
C559 H549 0.930 . S
C559 C552 1.409 . S
C559 C558 1.362 . S
H560 C566 0.930 . S
H561 C569 0.930 . S
H562 C570 0.930 . S
H563 C571 0.930 . S
H564 C574 0.930 . S
H565 C575 0.930 . S
C566 H560 0.930 . S
C566 C567 1.355 . S
C566 C568 1.415 . S
C567 C566 1.355 . S
C567 C569 1.419 . S
C568 C566 1.415 . S
C568 C573 1.425 . S
C568 C575 1.409 . S
C569 H561 0.930 . S
C569 C567 1.419 . S
C569 C570 1.362 . S
C570 H562 0.930 . S
C570 C569 1.362 . S
C570 C573 1.409 . S
C571 H563 0.930 . S
C571 C572 1.355 . S
C571 C573 1.415 . S
C572 C571 1.355 . S
C572 C574 1.419 . S
C573 C568 1.425 . S
C573 C570 1.409 . S
C573 C571 1.415 . S
C574 H564 0.930 . S
C574 C572 1.419 . S
C574 C575 1.362 . S
C575 H565 0.930 . S
C575 C568 1.409 . S
C575 C574 1.362 . S
H576 C582 0.930 . S
H577 C585 0.930 . S
H578 C586 0.930 . S
H579 C587 0.930 . S
H580 C590 0.930 . S
H581 C591 0.930 . S
C582 H576 0.930 . S
C582 C583 1.355 . S
C582 C584 1.415 . S
C583 C582 1.355 . S
C583 C585 1.419 . S
C584 C582 1.415 . S
C584 C589 1.425 . S
C584 C591 1.409 . S
C585 H577 0.930 . S
C585 C583 1.419 . S
C585 C586 1.362 . S
C586 H578 0.930 . S
C586 C585 1.362 . S
C586 C589 1.409 . S
C587 H579 0.930 . S
C587 C588 1.355 . S
C587 C589 1.415 . S
C588 C587 1.355 . S
C588 C590 1.419 . S
C589 C584 1.425 . S
C589 C586 1.409 . S
C589 C587 1.415 . S
C590 H580 0.930 . S
C590 C588 1.419 . S
C590 C591 1.362 . S
C591 H581 0.930 . S
C591 C584 1.409 . S
C591 C590 1.362 . S
H592 C598 0.930 . S
H593 C601 0.930 . S
H594 C602 0.930 . S
H595 C603 0.930 . S
H596 C606 0.930 . S
H597 C607 0.930 . S
C598 H592 0.930 . S
C598 C599 1.355 . S
C598 C600 1.415 . S
C599 C598 1.355 . S
C599 C601 1.419 . S
C600 C598 1.415 . S
C600 C605 1.425 . S
C600 C607 1.409 . S
C601 H593 0.930 . S
C601 C599 1.419 . S
C601 C602 1.362 . S
C602 H594 0.930 . S
C602 C601 1.362 . S
C602 C605 1.409 . S
C603 H595 0.930 . S
C603 C604 1.355 . S
C603 C605 1.415 . S
C604 C603 1.355 . S
C604 C606 1.419 . S
C605 C600 1.425 . S
C605 C602 1.409 . S
C605 C603 1.415 . S
C606 H596 0.930 . S
C606 C604 1.419 . S
C606 C607 1.362 . S
C607 H597 0.930 . S
C607 C600 1.409 . S
C607 C606 1.362 . S
H608 C614 0.930 . S
H609 C617 0.930 . S
H610 C618 0.930 . S
H611 C619 0.930 . S
H612 C622 0.930 . S
H613 C623 0.930 . S
C614 H608 0.930 . S
C614 C615 1.355 . S
C614 C616 1.415 . S
C615 C614 1.355 . S
C615 C617 1.419 . S
C616 C614 1.415 . S
C616 C621 1.425 . S
C616 C623 1.409 . S
C617 H609 0.930 . S
C617 C615 1.419 . S
C617 C618 1.362 . S
C618 H610 0.930 . S
C618 C617 1.362 . S
C618 C621 1.409 . S
C619 H611 0.930 . S
C619 C620 1.355 . S
C619 C621 1.415 . S
C620 C619 1.355 . S
C620 C622 1.419 . S
C621 C616 1.425 . S
C621 C618 1.409 . S
C621 C619 1.415 . S
C622 H612 0.930 . S
C622 C620 1.419 . S
C622 C623 1.362 . S
C623 H613 0.930 . S
C623 C616 1.409 . S
C623 C622 1.362 . S
H624 C630 0.930 . S
H625 C633 0.930 . S
H626 C634 0.930 . S
H627 C635 0.930 . S
H628 C638 0.930 . S
H629 C639 0.930 . S
C630 H624 0.930 . S
C630 C631 1.355 . S
C630 C632 1.415 . S
C631 C630 1.355 . S
C631 C633 1.419 . S
C632 C630 1.415 . S
C632 C637 1.425 . S
C632 C639 1.409 . S
C633 H625 0.930 . S
C633 C631 1.419 . S
C633 C634 1.362 . S
C634 H626 0.930 . S
C634 C633 1.362 . S
C634 C637 1.409 . S
C635 H627 0.930 . S
C635 C636 1.355 . S
C635 C637 1.415 . S
C636 C635 1.355 . S
C636 C638 1.419 . S
C637 C632 1.425 . S
C637 C634 1.409 . S
C637 C635 1.415 . S
C638 H628 0.930 . S
C638 C636 1.419 . S
C638 C639 1.362 . S
C639 H629 0.930 . S
C639 C632 1.409 . S
C639 C638 1.362 . S
H640 C646 0.930 . S
H641 C649 0.930 . S
H642 C650 0.930 . S
H643 C651 0.930 . S
H644 C654 0.930 . S
H645 C655 0.930 . S
C646 H640 0.930 . S
C646 C647 1.355 . S
C646 C648 1.415 . S
C647 C646 1.355 . S
C647 C649 1.419 . S
C648 C646 1.415 . S
C648 C653 1.425 . S
C648 C655 1.409 . S
C649 H641 0.930 . S
C649 C647 1.419 . S
C649 C650 1.362 . S
C650 H642 0.930 . S
C650 C649 1.362 . S
C650 C653 1.409 . S
C651 H643 0.930 . S
C651 C652 1.355 . S
C651 C653 1.415 . S
C652 C651 1.355 . S
C652 C654 1.419 . S
C653 C648 1.425 . S
C653 C650 1.409 . S
C653 C651 1.415 . S
C654 H644 0.930 . S
C654 C652 1.419 . S
C654 C655 1.362 . S
C655 H645 0.930 . S
C655 C648 1.409 . S
C655 C654 1.362 . S
H656 C662 0.930 . S
H657 C665 0.930 . S
H658 C666 0.930 . S
H659 C667 0.930 . S
H660 C670 0.930 . S
H661 C671 0.930 . S
C662 H656 0.930 . S
C662 C663 1.355 . S
C662 C664 1.415 . S
C663 C662 1.355 . S
C663 C665 1.419 . S
C664 C662 1.415 . S
C664 C669 1.425 . S
C664 C671 1.409 . S
C665 H657 0.930 . S
C665 C663 1.419 . S
C665 C666 1.362 . S
C666 H658 0.930 . S
C666 C665 1.362 . S
C666 C669 1.409 . S
C667 H659 0.930 . S
C667 C668 1.355 . S
C667 C669 1.415 . S
C668 C667 1.355 . S
C668 C670 1.419 . S
C669 C664 1.425 . S
C669 C666 1.409 . S
C669 C667 1.415 . S
C670 H660 0.930 . S
C670 C668 1.419 . S
C670 C671 1.362 . S
C671 H661 0.930 . S
C671 C664 1.409 . S
C671 C670 1.362 . S
H672 C678 0.930 . S
H673 C681 0.930 . S
H674 C682 0.930 . S
H675 C683 0.930 . S
H676 C686 0.930 . S
H677 C687 0.930 . S
C678 H672 0.930 . S
C678 C679 1.355 . S
C678 C680 1.415 . S
C679 C678 1.355 . S
C679 C681 1.419 . S
C680 C678 1.415 . S
C680 C685 1.425 . S
C680 C687 1.409 . S
C681 H673 0.930 . S
C681 C679 1.419 . S
C681 C682 1.362 . S
C682 H674 0.930 . S
C682 C681 1.362 . S
C682 C685 1.409 . S
C683 H675 0.930 . S
C683 C684 1.355 . S
C683 C685 1.415 . S
C684 C683 1.355 . S
C684 C686 1.419 . S
C685 C680 1.425 . S
C685 C682 1.409 . S
C685 C683 1.415 . S
C686 H676 0.930 . S
C686 C684 1.419 . S
C686 C687 1.362 . S
C687 H677 0.930 . S
C687 C680 1.409 . S
C687 C686 1.362 . S
H688 C694 0.930 . S
H689 C697 0.930 . S
H690 C698 0.930 . S
H691 C699 0.930 . S
H692 C702 0.930 . S
H693 C703 0.930 . S
C694 H688 0.930 . S
C694 C695 1.355 . S
C694 C696 1.415 . S
C695 C694 1.355 . S
C695 C697 1.419 . S
C696 C694 1.415 . S
C696 C701 1.425 . S
C696 C703 1.409 . S
C697 H689 0.930 . S
C697 C695 1.419 . S
C697 C698 1.362 . S
C698 H690 0.930 . S
C698 C697 1.362 . S
C698 C701 1.409 . S
C699 H691 0.930 . S
C699 C700 1.355 . S
C699 C701 1.415 . S
C700 C699 1.355 . S
C700 C702 1.419 . S
C701 C696 1.425 . S
C701 C698 1.409 . S
C701 C699 1.415 . S
C702 H692 0.930 . S
C702 C700 1.419 . S
C702 C703 1.362 . S
C703 H693 0.930 . S
C703 C696 1.409 . S
C703 C702 1.362 . S
H704 C710 0.930 . S
H705 C713 0.930 . S
H706 C714 0.930 . S
H707 C715 0.930 . S
H708 C718 0.930 . S
H709 C719 0.930 . S
C710 H704 0.930 . S
C710 C711 1.355 . S
C710 C712 1.415 . S
C711 C710 1.355 . S
C711 C713 1.419 . S
C712 C710 1.415 . S
C712 C717 1.425 . S
C712 C719 1.409 . S
C713 H705 0.930 . S
C713 C711 1.419 . S
C713 C714 1.362 . S
C714 H706 0.930 . S
C714 C713 1.362 . S
C714 C717 1.409 . S
C715 H707 0.930 . S
C715 C716 1.355 . S
C715 C717 1.415 . S
C716 C715 1.355 . S
C716 C718 1.419 . S
C717 C712 1.425 . S
C717 C714 1.409 . S
C717 C715 1.415 . S
C718 H708 0.930 . S
C718 C716 1.419 . S
C718 C719 1.362 . S
C719 H709 0.930 . S
C719 C712 1.409 . S
C719 C718 1.362 . S
H720 C726 0.930 . S
H721 C729 0.930 . S
H722 C730 0.930 1_554 S
H723 C731 0.930 . S
H724 C734 0.930 . S
H725 C735 0.930 1_556 S
C726 H720 0.930 . S
C726 C727 1.355 . S
C726 C728 1.415 . S
C727 C726 1.355 . S
C727 C729 1.419 . S
C728 C726 1.415 . S
C728 C733 1.425 1_566 S
C728 C735 1.409 1_566 S
C729 H721 0.930 . S
C729 C727 1.419 . S
C729 C730 1.362 . S
C730 H722 0.930 1_556 S
C730 C729 1.362 . S
C730 C733 1.409 1_566 S
C731 H723 0.930 . S
C731 C732 1.355 . S
C731 C733 1.415 . S
C732 C731 1.355 . S
C732 C734 1.419 . S
C733 C728 1.425 1_544 S
C733 C730 1.409 1_544 S
C733 C731 1.415 . S
C734 H724 0.930 . S
C734 C732 1.419 . S
C734 C735 1.362 . S
C735 H725 0.930 1_554 S
C735 C728 1.409 1_544 S
C735 C734 1.362 . S
H736 C742 0.930 . S
H737 C745 0.930 . S
H738 C746 0.930 . S
H739 C747 0.930 . S
H740 C750 0.930 . S
H741 C751 0.930 . S
C742 H736 0.930 . S
C742 C743 1.355 . S
C742 C744 1.415 . S
C743 C742 1.355 . S
C743 C745 1.419 . S
C744 C742 1.415 . S
C744 C749 1.425 . S
C744 C751 1.409 . S
C745 H737 0.930 . S
C745 C743 1.419 . S
C745 C746 1.362 . S
C746 H738 0.930 . S
C746 C745 1.362 . S
C746 C749 1.409 . S
C747 H739 0.930 . S
C747 C748 1.355 . S
C747 C749 1.415 . S
C748 C747 1.355 . S
C748 C750 1.419 . S
C749 C744 1.425 . S
C749 C746 1.409 . S
C749 C747 1.415 . S
C750 H740 0.930 . S
C750 C748 1.419 . S
C750 C751 1.362 . S
C751 H741 0.930 . S
C751 C744 1.409 . S
C751 C750 1.362 . S
H752 C758 0.930 . S
H753 C761 0.930 . S
H754 C762 0.930 . S
H755 C763 0.930 . S
H756 C766 0.930 . S
H757 C767 0.930 . S
C758 H752 0.930 . S
C758 C759 1.355 . S
C758 C760 1.415 1_556 S
C759 C758 1.355 . S
C759 C761 1.419 . S
C760 C758 1.415 1_554 S
C760 C765 1.425 1_454 S
C760 C767 1.409 . S
C761 H753 0.930 . S
C761 C759 1.419 . S
C761 C762 1.362 1_455 S
C762 H754 0.930 . S
C762 C761 1.362 1_655 S
C762 C765 1.409 . S
C763 H755 0.930 . S
C763 C764 1.355 . S
C763 C765 1.415 1_554 S
C764 C763 1.355 . S
C764 C766 1.419 . S
C765 C760 1.425 1_656 S
C765 C762 1.409 . S
C765 C763 1.415 1_556 S
C766 H756 0.930 . S
C766 C764 1.419 . S
C766 C767 1.362 1_655 S
C767 H757 0.930 . S
C767 C760 1.409 . S
C767 C766 1.362 1_455 S
H768 C774 0.930 . S
H769 C777 0.930 . S
H770 C778 0.930 . S
H771 C779 0.930 . S
H772 C782 0.930 . S
H773 C783 0.930 . S
C774 H768 0.930 . S
C774 C775 1.355 . S
C774 C776 1.415 . S
C775 C774 1.355 . S
C775 C777 1.419 . S
C776 C774 1.415 . S
C776 C781 1.425 1_545 S
C776 C783 1.409 . S
C777 H769 0.930 . S
C777 C775 1.419 . S
C777 C778 1.362 1_545 S
C778 H770 0.930 . S
C778 C777 1.362 1_565 S
C778 C781 1.409 . S
C779 H771 0.930 . S
C779 C780 1.355 . S
C779 C781 1.415 . S
C780 C779 1.355 . S
C780 C782 1.419 . S
C781 C776 1.425 1_565 S
C781 C778 1.409 . S
C781 C779 1.415 . S
C782 H772 0.930 . S
C782 C780 1.419 . S
C782 C783 1.362 1_565 S
C783 H773 0.930 . S
C783 C776 1.409 . S
C783 C782 1.362 1_545 S
H784 C790 0.930 . S
H785 C793 0.930 . S
H786 C794 0.930 . S
H787 C795 0.930 . S
H788 C798 0.930 . S
H789 C799 0.930 . S
C790 H784 0.930 . S
C790 C791 1.355 . S
C790 C792 1.415 . S
C791 C790 1.355 . S
C791 C793 1.419 . S
C792 C790 1.415 . S
C792 C797 1.425 1_554 S
C792 C799 1.409 . S
C793 H785 0.930 . S
C793 C791 1.419 . S
C793 C794 1.362 1_554 S
C794 H786 0.930 . S
C794 C793 1.362 1_556 S
C794 C797 1.409 . S
C795 H787 0.930 . S
C795 C796 1.355 . S
C795 C797 1.415 . S
C796 C795 1.355 . S
C796 C798 1.419 . S
C797 C792 1.425 1_556 S
C797 C794 1.409 . S
C797 C795 1.415 . S
C798 H788 0.930 . S
C798 C796 1.419 . S
C798 C799 1.362 1_556 S
C799 H789 0.930 . S
C799 C792 1.409 . S
C799 C798 1.362 1_554 S
H800 C806 0.930 . S
H801 C809 0.930 . S
H802 C810 0.930 . S
H803 C811 0.930 . S
H804 C814 0.930 . S
H805 C815 0.930 . S
C806 H800 0.930 . S
C806 C807 1.355 . S
C806 C808 1.415 1_455 S
C807 C806 1.355 . S
C807 C809 1.419 . S
C808 C806 1.415 1_655 S
C808 C813 1.425 1_655 S
C808 C815 1.409 . S
C809 H801 0.930 . S
C809 C807 1.419 . S
C809 C810 1.362 . S
C810 H802 0.930 . S
C810 C809 1.362 . S
C810 C813 1.409 . S
C811 H803 0.930 . S
C811 C812 1.355 . S
C811 C813 1.415 1_655 S
C812 C811 1.355 . S
C812 C814 1.419 . S
C813 C808 1.425 1_455 S
C813 C810 1.409 . S
C813 C811 1.415 1_455 S
C814 H804 0.930 . S
C814 C812 1.419 . S
C814 C815 1.362 . S
C815 H805 0.930 . S
C815 C808 1.409 . S
C815 C814 1.362 . S
H816 C822 0.930 . S
H817 C825 0.930 . S
H818 C826 0.930 . S
H819 C827 0.930 . S
H820 C830 0.930 . S
H821 C831 0.930 . S
C822 H816 0.930 . S
C822 C823 1.355 . S
C822 C824 1.415 1_565 S
C823 C822 1.355 . S
C823 C825 1.419 . S
C824 C822 1.415 1_545 S
C824 C829 1.425 1_546 S
C824 C831 1.409 . S
C825 H817 0.930 . S
C825 C823 1.419 . S
C825 C826 1.362 1_556 S
C826 H818 0.930 . S
C826 C825 1.362 1_554 S
C826 C829 1.409 . S
C827 H819 0.930 . S
C827 C828 1.355 . S
C827 C829 1.415 1_545 S
C828 C827 1.355 . S
C828 C830 1.419 . S
C829 C824 1.425 1_564 S
C829 C826 1.409 . S
C829 C827 1.415 1_565 S
C830 H820 0.930 . S
C830 C828 1.419 . S
C830 C831 1.362 1_554 S
C831 H821 0.930 . S
C831 C824 1.409 . S
C831 C830 1.362 1_556 S
H832 C838 0.930 . S
H833 C841 0.930 . S
H834 C842 0.930 . S
H835 C843 0.930 . S
H836 C846 0.930 . S
H837 C847 0.930 . S
C838 H832 0.930 . S
C838 C839 1.355 . S
C838 C840 1.415 . S
C839 C838 1.355 . S
C839 C841 1.419 . S
C840 C838 1.415 . S
C840 C845 1.425 . S
C840 C847 1.409 . S
C841 H833 0.930 . S
C841 C839 1.419 . S
C841 C842 1.362 . S
C842 H834 0.930 . S
C842 C841 1.362 . S
C842 C845 1.409 . S
C843 H835 0.930 . S
C843 C844 1.355 . S
C843 C845 1.415 . S
C844 C843 1.355 . S
C844 C846 1.419 . S
C845 C840 1.425 . S
C845 C842 1.409 . S
C845 C843 1.415 . S
C846 H836 0.930 . S
C846 C844 1.419 . S
C846 C847 1.362 . S
C847 H837 0.930 . S
C847 C840 1.409 . S
C847 C846 1.362 . S
H848 C854 0.930 . S
H849 C857 0.930 . S
H850 C858 0.930 . S
H851 C859 0.930 . S
H852 C862 0.930 . S
H853 C863 0.930 . S
C854 H848 0.930 . S
C854 C855 1.355 . S
C854 C856 1.415 1_655 S
C855 C854 1.355 . S
C855 C857 1.419 . S
C856 C854 1.415 1_455 S
C856 C861 1.425 1_454 S
C856 C863 1.409 . S
C857 H849 0.930 . S
C857 C855 1.419 . S
C857 C858 1.362 1_554 S
C858 H850 0.930 . S
C858 C857 1.362 1_556 S
C858 C861 1.409 . S
C859 H851 0.930 . S
C859 C860 1.355 . S
C859 C861 1.415 1_455 S
C860 C859 1.355 . S
C860 C862 1.419 . S
C861 C856 1.425 1_656 S
C861 C858 1.409 . S
C861 C859 1.415 1_655 S
C862 H852 0.930 . S
C862 C860 1.419 . S
C862 C863 1.362 1_556 S
C863 H853 0.930 . S
C863 C856 1.409 . S
C863 C862 1.362 1_554 S
H864 C870 0.930 . S
H865 C873 0.930 . S
H866 C874 0.930 1_545 S
H867 C875 0.930 . S
H868 C878 0.930 . S
H869 C879 0.930 1_565 S
C870 H864 0.930 . S
C870 C871 1.355 . S
C870 C872 1.415 . S
C871 C870 1.355 . S
C871 C873 1.419 . S
C872 C870 1.415 . S
C872 C877 1.425 1_565 S
C872 C879 1.409 1_565 S
C873 H865 0.930 . S
C873 C871 1.419 . S
C873 C874 1.362 . S
C874 H866 0.930 1_565 S
C874 C873 1.362 . S
C874 C877 1.409 1_565 S
C875 H867 0.930 . S
C875 C876 1.355 . S
C875 C877 1.415 . S
C876 C875 1.355 . S
C876 C878 1.419 . S
C877 C872 1.425 1_545 S
C877 C874 1.409 1_545 S
C877 C875 1.415 . S
C878 H868 0.930 . S
C878 C876 1.419 . S
C878 C879 1.362 . S
C879 H869 0.930 1_545 S
C879 C872 1.409 1_545 S
C879 C878 1.362 . S
H880 C886 0.930 . S
H881 C889 0.930 . S
H882 C890 0.930 . S
H883 C891 0.930 . S
H884 C894 0.930 . S
H885 C895 0.930 . S
C886 H880 0.930 . S
C886 C887 1.355 . S
C886 C888 1.415 . S
C887 C886 1.355 . S
C887 C889 1.419 . S
C888 C886 1.415 . S
C888 C893 1.425 1_554 S
C888 C895 1.409 1_554 S
C889 H881 0.930 . S
C889 C887 1.419 . S
C889 C890 1.362 . S
C890 H882 0.930 . S
C890 C889 1.362 . S
C890 C893 1.409 1_554 S
C891 H883 0.930 . S
C891 C892 1.355 . S
C891 C893 1.415 . S
C892 C891 1.355 . S
C892 C894 1.419 . S
C893 C888 1.425 1_556 S
C893 C890 1.409 1_556 S
C893 C891 1.415 . S
C894 H884 0.930 . S
C894 C892 1.419 . S
C894 C895 1.362 . S
C895 H885 0.930 . S
C895 C888 1.409 1_556 S
C895 C894 1.362 . S
H896 C902 0.930 . S
H897 C905 0.930 . S
H898 C906 0.930 . S
H899 C907 0.930 . S
H900 C910 0.930 . S
H901 C911 0.930 . S
C902 H896 0.930 . S
C902 C903 1.355 . S
C902 C904 1.414 1_455 S
C903 C902 1.355 . S
C903 C905 1.419 . S
C904 C902 1.414 1_655 S
C904 C909 1.424 1_655 S
C904 C911 1.410 . S
C905 H897 0.930 . S
C905 C903 1.419 . S
C905 C906 1.362 . S
C906 H898 0.930 . S
C906 C905 1.362 . S
C906 C909 1.410 . S
C907 H899 0.930 . S
C907 C908 1.355 . S
C907 C909 1.414 1_655 S
C908 C907 1.355 . S
C908 C910 1.419 . S
C909 C904 1.424 1_455 S
C909 C906 1.410 . S
C909 C907 1.414 1_455 S
C910 H900 0.930 . S
C910 C908 1.419 . S
C910 C911 1.362 . S
C911 H901 0.930 . S
C911 C904 1.410 . S
C911 C910 1.362 . S
H912 C918 0.930 . S
H913 C921 0.930 . S
H914 C922 0.930 . S
H915 C923 0.930 . S
H916 C926 0.930 . S
H917 C927 0.930 . S
C918 H912 0.930 . S
C918 C919 1.355 . S
C918 C920 1.415 . S
C919 C918 1.355 . S
C919 C921 1.419 . S
C920 C918 1.415 . S
C920 C925 1.425 . S
C920 C927 1.409 . S
C921 H913 0.930 . S
C921 C919 1.419 . S
C921 C922 1.362 . S
C922 H914 0.930 . S
C922 C921 1.362 . S
C922 C925 1.409 . S
C923 H915 0.930 . S
C923 C924 1.355 . S
C923 C925 1.415 . S
C924 C923 1.355 . S
C924 C926 1.419 . S
C925 C920 1.425 . S
C925 C922 1.409 . S
C925 C923 1.415 . S
C926 H916 0.930 . S
C926 C924 1.419 . S
C926 C927 1.362 . S
C927 H917 0.930 . S
C927 C920 1.409 . S
C927 C926 1.362 . S
H928 C934 0.930 . S
H929 C937 0.930 . S
H930 C938 0.930 . S
H931 C939 0.930 . S
H932 C942 0.930 . S
H933 C943 0.930 . S
C934 H928 0.930 . S
C934 C935 1.355 . S
C934 C936 1.415 . S
C935 C934 1.355 . S
C935 C937 1.419 . S
C936 C934 1.415 . S
C936 C941 1.425 . S
C936 C943 1.409 . S
C937 H929 0.930 . S
C937 C935 1.419 . S
C937 C938 1.362 . S
C938 H930 0.930 . S
C938 C937 1.362 . S
C938 C941 1.409 . S
C939 H931 0.930 . S
C939 C940 1.355 . S
C939 C941 1.415 . S
C940 C939 1.355 . S
C940 C942 1.419 . S
C941 C936 1.425 . S
C941 C938 1.409 . S
C941 C939 1.415 . S
C942 H932 0.930 . S
C942 C940 1.419 . S
C942 C943 1.362 . S
C943 H933 0.930 . S
C943 C936 1.409 . S
C943 C942 1.362 . S
H944 C950 0.930 . S
H945 C953 0.930 . S
H946 C954 0.930 . S
H947 C955 0.930 . S
H948 C958 0.930 . S
H949 C959 0.930 . S
C950 H944 0.930 . S
C950 C951 1.355 . S
C950 C952 1.415 . S
C951 C950 1.355 . S
C951 C953 1.419 . S
C952 C950 1.415 . S
C952 C957 1.425 . S
C952 C959 1.409 . S
C953 H945 0.930 . S
C953 C951 1.419 . S
C953 C954 1.362 . S
C954 H946 0.930 . S
C954 C953 1.362 . S
C954 C957 1.409 . S
C955 H947 0.930 . S
C955 C956 1.355 . S
C955 C957 1.415 . S
C956 C955 1.355 . S
C956 C958 1.419 . S
C957 C952 1.425 . S
C957 C954 1.409 . S
C957 C955 1.415 . S
C958 H948 0.930 . S
C958 C956 1.419 . S
C958 C959 1.362 . S
C959 H949 0.930 . S
C959 C952 1.409 . S
C959 C958 1.362 . S
H960 C966 0.930 . S
H961 C969 0.930 . S
H962 C970 0.930 . S
H963 C971 0.930 . S
H964 C974 0.930 . S
H965 C975 0.930 . S
C966 H960 0.930 . S
C966 C967 1.355 . S
C966 C968 1.415 . S
C967 C966 1.355 . S
C967 C969 1.419 . S
C968 C966 1.415 . S
C968 C973 1.425 . S
C968 C975 1.409 . S
C969 H961 0.930 . S
C969 C967 1.419 . S
C969 C970 1.362 . S
C970 H962 0.930 . S
C970 C969 1.362 . S
C970 C973 1.409 . S
C971 H963 0.930 . S
C971 C972 1.355 . S
C971 C973 1.415 . S
C972 C971 1.355 . S
C972 C974 1.419 . S
C973 C968 1.425 . S
C973 C970 1.409 . S
C973 C971 1.415 . S
C974 H964 0.930 . S
C974 C972 1.419 . S
C974 C975 1.362 . S
C975 H965 0.930 . S
C975 C968 1.409 . S
C975 C974 1.362 . S
H976 C982 0.930 . S
H977 C985 0.930 . S
H978 C986 0.930 . S
H979 C987 0.930 . S
H980 C990 0.930 . S
H981 C991 0.930 . S
C982 H976 0.930 . S
C982 C983 1.355 . S
C982 C984 1.415 . S
C983 C982 1.355 . S
C983 C985 1.419 . S
C984 C982 1.415 . S
C984 C989 1.425 . S
C984 C991 1.409 . S
C985 H977 0.930 . S
C985 C983 1.419 . S
C985 C986 1.362 . S
C986 H978 0.930 . S
C986 C985 1.362 . S
C986 C989 1.409 . S
C987 H979 0.930 . S
C987 C988 1.355 . S
C987 C989 1.415 . S
C988 C987 1.355 . S
C988 C990 1.419 . S
C989 C984 1.425 . S
C989 C986 1.409 . S
C989 C987 1.415 . S
C990 H980 0.930 . S
C990 C988 1.419 . S
C990 C991 1.362 . S
C991 H981 0.930 . S
C991 C984 1.409 . S
C991 C990 1.362 . S
H992 C998 0.930 . S
H993 C1001 0.930 . S
H994 C1002 0.930 . S
H995 C1003 0.930 . S
H996 C1006 0.930 . S
H997 C1007 0.930 . S
C998 H992 0.930 . S
C998 C999 1.355 . S
C998 C1000 1.415 . S
C999 C998 1.355 . S
C999 C1001 1.419 . S
C1000 C998 1.415 . S
C1000 C1005 1.425 . S
C1000 C1007 1.409 . S
C1001 H993 0.930 . S
C1001 C999 1.419 . S
C1001 C1002 1.362 . S
C1002 H994 0.930 . S
C1002 C1001 1.362 . S
C1002 C1005 1.409 . S
C1003 H995 0.930 . S
C1003 C1004 1.355 . S
C1003 C1005 1.415 . S
C1004 C1003 1.355 . S
C1004 C1006 1.419 . S
C1005 C1000 1.425 . S
C1005 C1002 1.409 . S
C1005 C1003 1.415 . S
C1006 H996 0.930 . S
C1006 C1004 1.419 . S
C1006 C1007 1.362 . S
C1007 H997 0.930 . S
C1007 C1000 1.409 . S
C1007 C1006 1.362 . S
H1008 C1014 0.930 . S
H1009 C1017 0.930 . S
H1010 C1018 0.930 . S
H1011 C1019 0.930 . S
H1012 C1022 0.930 . S
H1013 C1023 0.930 . S
C1014 H1008 0.930 . S
C1014 C1015 1.355 . S
C1014 C1016 1.415 . S
C1015 C1014 1.355 . S
C1015 C1017 1.419 . S
C1016 C1014 1.415 . S
C1016 C1021 1.425 . S
C1016 C1023 1.409 . S
C1017 H1009 0.930 . S
C1017 C1015 1.419 . S
C1017 C1018 1.362 . S
C1018 H1010 0.930 . S
C1018 C1017 1.362 . S
C1018 C1021 1.409 . S
C1019 H1011 0.930 . S
C1019 C1020 1.355 . S
C1019 C1021 1.415 . S
C1020 C1019 1.355 . S
C1020 C1022 1.419 . S
C1021 C1016 1.425 . S
C1021 C1018 1.409 . S
C1021 C1019 1.415 . S
C1022 H1012 0.930 . S
C1022 C1020 1.419 . S
C1022 C1023 1.362 . S
C1023 H1013 0.930 . S
C1023 C1016 1.409 . S
C1023 C1022 1.362 . S
H1024 C1030 0.930 . S
H1025 C1033 0.930 . S
H1026 C1034 0.930 . S
H1027 C1035 0.930 . S
H1028 C1038 0.930 . S
H1029 C1039 0.930 . S
C1030 H1024 0.930 . S
C1030 C1031 1.355 . S
C1030 C1032 1.415 . S
C1031 C1030 1.355 . S
C1031 C1033 1.419 . S
C1032 C1030 1.415 . S
C1032 C1037 1.425 . S
C1032 C1039 1.409 . S
C1033 H1025 0.930 . S
C1033 C1031 1.419 . S
C1033 C1034 1.362 . S
C1034 H1026 0.930 . S
C1034 C1033 1.362 . S
C1034 C1037 1.409 . S
C1035 H1027 0.930 . S
C1035 C1036 1.355 . S
C1035 C1037 1.415 . S
C1036 C1035 1.355 . S
C1036 C1038 1.419 . S
C1037 C1032 1.425 . S
C1037 C1034 1.409 . S
C1037 C1035 1.415 . S
C1038 H1028 0.930 . S
C1038 C1036 1.419 . S
C1038 C1039 1.362 . S
C1039 H1029 0.930 . S
C1039 C1032 1.409 . S
C1039 C1038 1.362 . S
H1040 C1046 0.930 . S
H1041 C1049 0.930 . S
H1042 C1050 0.930 . S
H1043 C1051 0.930 . S
H1044 C1054 0.930 . S
H1045 C1055 0.930 . S
C1046 H1040 0.930 . S
C1046 C1047 1.355 . S
C1046 C1048 1.415 . S
C1047 C1046 1.355 . S
C1047 C1049 1.419 . S
C1048 C1046 1.415 . S
C1048 C1053 1.425 . S
C1048 C1055 1.409 . S
C1049 H1041 0.930 . S
C1049 C1047 1.419 . S
C1049 C1050 1.362 . S
C1050 H1042 0.930 . S
C1050 C1049 1.362 . S
C1050 C1053 1.409 . S
C1051 H1043 0.930 . S
C1051 C1052 1.355 . S
C1051 C1053 1.415 . S
C1052 C1051 1.355 . S
C1052 C1054 1.419 . S
C1053 C1048 1.425 . S
C1053 C1050 1.409 . S
C1053 C1051 1.415 . S
C1054 H1044 0.930 . S
C1054 C1052 1.419 . S
C1054 C1055 1.362 . S
C1055 H1045 0.930 . S
C1055 C1048 1.409 . S
C1055 C1054 1.362 . S
H1056 C1062 0.930 . S
H1057 C1065 0.930 . S
H1058 C1066 0.930 . S
H1059 C1067 0.930 . S
H1060 C1070 0.930 . S
H1061 C1071 0.930 . S
C1062 H1056 0.930 . S
C1062 C1063 1.355 . S
C1062 C1064 1.415 . S
C1063 C1062 1.355 . S
C1063 C1065 1.419 . S
C1064 C1062 1.415 . S
C1064 C1069 1.425 . S
C1064 C1071 1.409 . S
C1065 H1057 0.930 . S
C1065 C1063 1.419 . S
C1065 C1066 1.362 . S
C1066 H1058 0.930 . S
C1066 C1065 1.362 . S
C1066 C1069 1.409 . S
C1067 H1059 0.930 . S
C1067 C1068 1.355 . S
C1067 C1069 1.415 . S
C1068 C1067 1.355 . S
C1068 C1070 1.419 . S
C1069 C1064 1.425 . S
C1069 C1066 1.409 . S
C1069 C1067 1.415 . S
C1070 H1060 0.930 . S
C1070 C1068 1.419 . S
C1070 C1071 1.362 . S
C1071 H1061 0.930 . S
C1071 C1064 1.409 . S
C1071 C1070 1.362 . S
H1072 C1078 0.930 . S
H1073 C1081 0.930 . S
H1074 C1082 0.930 . S
H1075 C1083 0.930 . S
H1076 C1086 0.930 . S
H1077 C1087 0.930 . S
C1078 H1072 0.930 . S
C1078 C1079 1.355 . S
C1078 C1080 1.415 . S
C1079 C1078 1.355 . S
C1079 C1081 1.419 . S
C1080 C1078 1.415 . S
C1080 C1085 1.425 . S
C1080 C1087 1.409 . S
C1081 H1073 0.930 . S
C1081 C1079 1.419 . S
C1081 C1082 1.362 . S
C1082 H1074 0.930 . S
C1082 C1081 1.362 . S
C1082 C1085 1.409 . S
C1083 H1075 0.930 . S
C1083 C1084 1.355 . S
C1083 C1085 1.415 . S
C1084 C1083 1.355 . S
C1084 C1086 1.419 . S
C1085 C1080 1.425 . S
C1085 C1082 1.409 . S
C1085 C1083 1.415 . S
C1086 H1076 0.930 . S
C1086 C1084 1.419 . S
C1086 C1087 1.362 . S
C1087 H1077 0.930 . S
C1087 C1080 1.409 . S
C1087 C1086 1.362 . S
H1088 C1094 0.930 . S
H1089 C1097 0.930 . S
H1090 C1098 0.930 . S
H1091 C1099 0.930 . S
H1092 C1102 0.930 . S
H1093 C1103 0.930 . S
C1094 H1088 0.930 . S
C1094 C1095 1.355 . S
C1094 C1096 1.415 . S
C1095 C1094 1.355 . S
C1095 C1097 1.419 . S
C1096 C1094 1.415 . S
C1096 C1101 1.425 . S
C1096 C1103 1.409 . S
C1097 H1089 0.930 . S
C1097 C1095 1.419 . S
C1097 C1098 1.362 . S
C1098 H1090 0.930 . S
C1098 C1097 1.362 . S
C1098 C1101 1.409 . S
C1099 H1091 0.930 . S
C1099 C1100 1.355 . S
C1099 C1101 1.415 . S
C1100 C1099 1.355 . S
C1100 C1102 1.419 . S
C1101 C1096 1.425 . S
C1101 C1098 1.409 . S
C1101 C1099 1.415 . S
C1102 H1092 0.930 . S
C1102 C1100 1.419 . S
C1102 C1103 1.362 . S
C1103 H1093 0.930 . S
C1103 C1096 1.409 . S
C1103 C1102 1.362 . S
C343 C223 1.380 . S
C348 C13 1.333 . S
C359 C27 1.399 . S
C364 C237 1.314 . S
C375 C41 1.338 . S
C380 C251 1.375 . S
C391 C55 1.343 . S
C396 C181 1.371 . S
C407 C195 1.323 . S
C412 C69 1.390 . S
C423 C83 1.358 . S
C428 C209 1.356 . S
C439 C307 1.388 . S
C444 C97 1.326 . S
C455 C111 1.341 . S
C460 C321 1.372 . S
C471 C125 1.332 . S
C476 C335 1.382 . S
C487 C265 1.397 . S
C492 C139 1.315 . S
C503 C153 1.400 . S
C508 C279 1.312 . S
C519 C293 1.381 . S
C524 C167 1.333 . S
C535 C11 1.346 . S
C540 C333 1.357 . S
C551 C263 1.358 . S
C556 C25 1.346 . S
C567 C39 1.347 . S
C572 C277 1.356 . S
C583 C291 1.359 . S
C588 C53 1.345 . S
C599 C67 1.349 . S
C604 C305 1.354 . S
C615 C319 1.351 . S
C620 C81 1.352 . S
C631 C95 1.351 . S
C636 C193 1.353 . S
C647 C207 1.355 . S
C652 C109 1.348 . S
C663 C221 1.353 . S
C668 C123 1.351 . S
C679 C235 1.345 . S
C684 C137 1.359 . S
C695 C151 1.346 . S
C700 C249 1.357 . S
C711 C165 1.347 . S
C716 C179 1.357 . S
C727 C105 1.120 . S
C732 C7 1.082 . S
C743 C119 1.084 . S
C748 C21 1.073 . S
C759 C133 1.084 . S
C764 C35 1.073 . S
C775 C147 1.113 . S
C780 C49 1.067 . S
C791 C63 1.095 . S
C796 C161 1.116 . S
C807 C77 1.077 . S
C812 C91 1.120 . S
C823 C175 1.119 . S
C828 C273 1.074 . S
C839 C189 1.081 . S
C844 C287 1.120 . S
C855 C301 1.101 . S
C860 C203 1.112 . S
C871 C315 1.068 . S
C876 C217 1.115 . S
C887 C329 1.071 . S
C892 C231 1.118 . S
C903 C259 1.117 . S
C908 C245 1.070 . S
C919 C8 1.435 . S
C924 C274 1.414 . S
C935 C288 1.456 . S
C940 C22 1.392 . S
C951 C36 1.448 . S
C956 C302 1.400 . S
C967 C316 1.446 . S
C972 C50 1.403 . S
C983 C64 1.456 . S
C988 C330 1.392 . S
C999 C260 1.384 . S
C1004 C78 1.464 . S
C1015 C92 1.461 . S
C1020 C246 1.387 . S
C1031 C176 1.388 . S
C1036 C106 1.460 . S
C1047 C120 1.439 . S
C1052 C190 1.410 . S
C1063 C134 1.429 . S
C1068 C204 1.420 . S
C1079 C148 1.414 . S
C1084 C218 1.435 . S
C1095 C162 1.432 . S
C1100 C232 1.417 . S
