# Generated by pormake.
# Topology snk, (6)-cn, num edge types: 1
# Building blocks:
#     Node 0, Type 0, BuildingBlock: BETDEL_clean_sbu_0, # of connection points: 6
#     Node 1, Type 0, BuildingBlock: BETDEL_clean_sbu_0, # of connection points: 6
#     Node 2, Type 0, BuildingBlock: BETDEL_clean_sbu_0, # of connection points: 6
#     Node 3, Type 0, BuildingBlock: BETDEL_clean_sbu_0, # of connection points: 6
#     Node 4, Type 0, BuildingBlock: BETDEL_clean_sbu_0, # of connection points: 6
#     Node 5, Type 0, BuildingBlock: BETDEL_clean_sbu_0, # of connection points: 6
#     Node 6, Type 0, BuildingBlock: BETDEL_clean_sbu_0, # of connection points: 6
#     Node 7, Type 0, BuildingBlock: BETDEL_clean_sbu_0, # of connection points: 6
#     Edge 8, Type (0, 0), BuildingBlock: OJICUG_clean_linker_0, # of connection points: 2
#     Edge 9, Type (0, 0), BuildingBlock: OJICUG_clean_linker_0, # of connection points: 2
#     Edge 10, Type (0, 0), BuildingBlock: OJICUG_clean_linker_0, # of connection points: 2
#     Edge 11, Type (0, 0), BuildingBlock: OJICUG_clean_linker_0, # of connection points: 2
#     Edge 12, Type (0, 0), BuildingBlock: OJICUG_clean_linker_0, # of connection points: 2
#     Edge 13, Type (0, 0), BuildingBlock: OJICUG_clean_linker_0, # of connection points: 2
#     Edge 14, Type (0, 0), BuildingBlock: OJICUG_clean_linker_0, # of connection points: 2
#     Edge 15, Type (0, 0), BuildingBlock: OJICUG_clean_linker_0, # of connection points: 2
#     Edge 16, Type (0, 0), BuildingBlock: OJICUG_clean_linker_0, # of connection points: 2
#     Edge 17, Type (0, 0), BuildingBlock: OJICUG_clean_linker_0, # of connection points: 2
#     Edge 18, Type (0, 0), BuildingBlock: OJICUG_clean_linker_0, # of connection points: 2
#     Edge 19, Type (0, 0), BuildingBlock: OJICUG_clean_linker_0, # of connection points: 2
#     Edge 20, Type (0, 0), BuildingBlock: OJICUG_clean_linker_0, # of connection points: 2
#     Edge 21, Type (0, 0), BuildingBlock: OJICUG_clean_linker_0, # of connection points: 2
#     Edge 22, Type (0, 0), BuildingBlock: OJICUG_clean_linker_0, # of connection points: 2
#     Edge 23, Type (0, 0), BuildingBlock: OJICUG_clean_linker_0, # of connection points: 2
#     Edge 24, Type (0, 0), BuildingBlock: OJICUG_clean_linker_0, # of connection points: 2
#     Edge 25, Type (0, 0), BuildingBlock: OJICUG_clean_linker_0, # of connection points: 2
#     Edge 26, Type (0, 0), BuildingBlock: OJICUG_clean_linker_0, # of connection points: 2
#     Edge 27, Type (0, 0), BuildingBlock: OJICUG_clean_linker_0, # of connection points: 2
#     Edge 28, Type (0, 0), BuildingBlock: OJICUG_clean_linker_0, # of connection points: 2
#     Edge 29, Type (0, 0), BuildingBlock: OJICUG_clean_linker_0, # of connection points: 2
#     Edge 30, Type (0, 0), BuildingBlock: OJICUG_clean_linker_0, # of connection points: 2
#     Edge 31, Type (0, 0), BuildingBlock: OJICUG_clean_linker_0, # of connection points: 2
# Relax obj value: 0.062
# Max RMSD: 0.110
# Mean RMSD: 0.096
data_MOF--net-snk--node1-BETDEL_clean_sbu_0--edge1-OJICUG_clean_linker_0
_symmetry_space_group_name_H-M    P1
_symmetry_Int_Tables_number       1
_symmetry_cell_setting            triclinic
loop_
_symmetry_equiv_pos_as_xyz
'x, y, z'
_cell_length_a     28.937758
_cell_length_b     28.869358
_cell_length_c     13.825217
_cell_angle_alpha  84.579182
_cell_angle_beta   95.445698
_cell_angle_gamma 90.621027
loop_
_atom_site_label
_atom_site_type_symbol
_atom_site_fract_x
_atom_site_fract_y
_atom_site_fract_z
_atom_type_partial_charge
Dy0 Dy 0.99415 0.98744 0.41776 0.0
C1 C 0.01352 0.01774 0.81283 0.0
C2 C 0.99128 0.98488 0.22129 0.0
Dy3 Dy 0.01067 0.01517 0.61637 0.0
O4 O 0.02415 0.96814 0.28425 0.0
O5 O 0.95846 1.00167 0.26574 0.0
O6 O 0.02065 0.91628 0.46854 0.0
O7 O 0.052 0.9741 0.53191 0.0
C8 C 0.05168 0.9302 0.53348 0.0
C9 C 0.95323 0.07245 0.50033 0.0
O10 O 0.06956 0.05592 0.55783 0.0
O11 O 0.03547 0.05347 0.40047 0.0
O12 O 0.98065 0.03446 0.74986 0.0
O13 O 0.04636 1.00098 0.76839 0.0
O14 O 0.98428 0.08634 0.56526 0.0
O15 O 0.95277 0.02853 0.50233 0.0
O16 O 0.93523 0.94673 0.47624 0.0
O17 O 0.96937 0.94913 0.63358 0.0
C18 C 0.06665 0.07054 0.46389 0.0
C19 C 0.93815 0.93211 0.57017 0.0
Dy20 Dy 0.23896 0.7433 0.86611 0.0
C21 C 0.26952 0.76299 0.47089 0.0
C22 C 0.23648 0.74022 0.06262 0.0
Dy23 Dy 0.26684 0.76002 0.66735 0.0
O24 O 0.21928 0.77296 0.99974 0.0
O25 O 0.25366 0.7076 1.01805 0.0
O26 O 0.16794 0.76965 0.81517 0.0
O27 O 0.22558 0.80118 0.75182 0.0
C28 C 0.18176 0.8007 0.75009 0.0
C29 C 0.32393 0.7026 0.78385 0.0
O30 O 0.30727 0.81913 0.72623 0.0
O31 O 0.3046 0.78503 0.88361 0.0
O32 O 0.28655 0.73021 0.53387 0.0
O33 O 0.2524 0.79569 0.51533 0.0
O34 O 0.33787 0.73368 0.71895 0.0
O35 O 0.28011 0.70209 0.78146 0.0
O36 O 0.19854 0.6842 0.80732 0.0
O37 O 0.20114 0.71834 0.64995 0.0
C38 C 0.32168 0.81627 0.82028 0.0
C39 C 0.18407 0.68709 0.71331 0.0
Dy40 Dy 0.51397 0.98118 0.12623 0.0
C41 C 0.48303 0.02349 0.71102 0.0
C42 C 0.52143 0.98051 0.32562 0.0
Dy43 Dy 0.49041 0.02265 0.91044 0.0
O44 O 0.49735 0.95114 0.27562 0.0
O45 O 0.54439 0.0078 0.267 0.0
O46 O 0.48793 0.9115 0.0872 0.0
O47 O 0.45854 0.97255 1.0111 0.0
C48 C 0.45953 0.92873 1.01416 0.0
C49 C 0.54478 0.07502 0.02297 0.0
O50 O 0.42922 0.05176 0.97103 0.0
O51 O 0.4614 0.03658 0.13165 0.0
O52 O 0.50724 0.0527 0.7612 0.0
O53 O 0.45991 0.99628 0.76948 0.0
O54 O 0.51639 0.09234 0.94998 0.0
O55 O 0.54575 0.03123 0.02545 0.0
O56 O 0.57517 0.9521 0.06568 0.0
O57 O 0.54291 0.96715 0.90509 0.0
C58 C 0.42942 0.05596 0.06608 0.0
C59 C 0.57493 0.94781 0.97066 0.0
Dy60 Dy 0.2317 0.26375 0.16075 0.0
C61 C 0.27404 0.23298 0.5759 0.0
C62 C 0.23061 0.2709 0.96128 0.0
Dy63 Dy 0.27287 0.24011 0.37643 0.0
O64 O 0.20222 0.24586 1.01191 0.0
O65 O 0.25709 0.29494 0.01932 0.0
O66 O 0.1621 0.23781 0.19948 0.0
O67 O 0.2229 0.20814 0.27569 0.0
C68 C 0.17917 0.20923 0.27242 0.0
C69 C 0.32536 0.29458 0.26442 0.0
O70 O 0.30205 0.17886 0.31577 0.0
O71 O 0.28742 0.21154 0.15541 0.0
O72 O 0.30238 0.25805 0.52522 0.0
O73 O 0.24757 0.2089 0.51792 0.0
O74 O 0.34248 0.26599 0.33732 0.0
O75 O 0.28165 0.29564 0.26162 0.0
O76 O 0.20249 0.32498 0.2213 0.0
O77 O 0.21713 0.29233 0.38169 0.0
C78 C 0.30652 0.17929 0.2208 0.0
C79 C 0.19801 0.32456 0.31626 0.0
Dy80 Dy 0.73786 0.24333 0.36971 0.0
C81 C 0.76809 0.26299 0.97458 0.0
C82 C 0.73531 0.2403 0.56623 0.0
Dy83 Dy 0.76552 0.26005 0.17106 0.0
O84 O 0.7182 0.27306 0.5033 0.0
O85 O 0.75247 0.20765 0.52171 0.0
O86 O 0.66684 0.26985 0.31893 0.0
O87 O 0.72452 0.30134 0.25571 0.0
C88 C 0.68071 0.30098 0.25409 0.0
C89 C 0.82278 0.20259 0.28705 0.0
O90 O 0.80604 0.31914 0.22975 0.0
O91 O 0.80357 0.28497 0.3871 0.0
O92 O 0.7851 0.2302 0.03755 0.0
O93 O 0.75103 0.29573 0.01904 0.0
O94 O 0.83657 0.23376 0.22218 0.0
O95 O 0.77896 0.20201 0.28502 0.0
O96 O 0.69729 0.18429 0.31099 0.0
O97 O 0.69972 0.21855 0.15371 0.0
C98 C 0.82059 0.31624 0.32373 0.0
C99 C 0.68272 0.18725 0.21703 0.0
Dy100 Dy 0.73173 0.76374 0.66097 0.0
C101 C 0.77436 0.73318 0.07619 0.0
C102 C 0.73067 0.7709 0.46152 0.0
Dy103 Dy 0.77315 0.74025 0.87672 0.0
O104 O 0.70234 0.74577 0.51213 0.0
O105 O 0.75707 0.79501 0.51956 0.0
O106 O 0.66217 0.73785 0.70011 0.0
O107 O 0.72303 0.7083 0.77625 0.0
C108 C 0.67931 0.70938 0.77319 0.0
C109 C 0.82555 0.79443 0.76405 0.0
O110 O 0.80221 0.67892 0.81612 0.0
O111 O 0.7873 0.71138 0.65563 0.0
O112 O 0.80256 0.75839 0.02542 0.0
O113 O 0.74802 0.70893 1.01829 0.0
O114 O 0.84274 0.76596 0.83709 0.0
O115 O 0.78186 0.79558 0.76152 0.0
O116 O 0.70259 0.82502 0.72147 0.0
O117 O 0.71748 0.79256 0.88196 0.0
C118 C 0.8065 0.67921 0.7211 0.0
C119 C 0.69825 0.8247 0.81647 0.0
Dy120 Dy 0.4941 0.48828 0.92069 0.0
C121 C 0.51406 0.51897 0.31608 0.0
C122 C 0.49091 0.48576 0.72414 0.0
Dy123 Dy 0.51083 0.5163 0.11955 0.0
O124 O 0.52334 0.46805 0.78705 0.0
O125 O 0.45865 0.50347 0.76871 0.0
O126 O 0.52045 0.41714 0.97185 0.0
O127 O 0.55189 0.47501 0.03497 0.0
C128 C 0.55144 0.43109 0.03683 0.0
C129 C 0.4534 0.57335 1.003 0.0
O130 O 0.5698 0.55681 0.06065 0.0
O131 O 0.53581 0.55405 0.90322 0.0
O132 O 0.48163 0.53665 0.25316 0.0
O133 O 0.54629 0.5012 0.27154 0.0
O134 O 0.48441 0.58743 0.0678 0.0
O135 O 0.45298 0.52943 1.0055 0.0
O136 O 0.43508 0.44787 0.97939 0.0
O137 O 0.46903 0.45056 0.13687 0.0
C138 C 0.56695 0.57121 0.96659 0.0
C139 C 0.43788 0.43344 0.07343 0.0
Dy140 Dy 0.01407 0.4813 0.62628 0.0
C141 C 0.98268 0.52313 0.21112 0.0
C142 C 0.02165 0.48076 0.82567 0.0
Dy143 Dy 0.99024 0.52246 0.41053 0.0
O144 O 0.99809 0.45095 0.77591 0.0
O145 O 0.04407 0.50846 0.76679 0.0
O146 O 0.98785 0.41159 0.58788 0.0
O147 O 0.95839 0.47258 0.51166 0.0
C148 C 0.95932 0.42874 0.51501 0.0
C149 C 0.04496 0.57492 0.52221 0.0
O150 O 0.92909 0.5516 0.47127 0.0
O151 O 0.96152 0.53671 0.63175 0.0
O152 O 0.00633 0.55283 0.261 0.0
O153 O 0.96017 0.49546 0.2699 0.0
O154 O 0.01644 0.59216 0.44941 0.0
O155 O 0.04584 0.53112 0.52501 0.0
O156 O 0.07521 0.45216 0.56562 0.0
O157 O 0.04276 0.46699 0.40513 0.0
C158 C 0.92943 0.55597 0.56628 0.0
C159 C 0.07485 0.44774 0.47062 0.0
C160 C 0.14373 0.11021 0.45144 0.0
C161 C 0.09562 0.10916 0.42663 0.0
H162 H 0.20856 0.1421 0.41905 0.0
C163 C 0.07518 0.14299 0.35641 0.0
H164 H 0.16022 0.08407 0.50459 0.0
C165 C 0.10238 0.17654 0.30945 0.0
C166 C 0.15075 0.17637 0.33018 0.0
H167 H 0.03806 0.14289 0.33621 0.0
H168 H 0.08557 0.20165 0.25445 0.0
C169 C 0.17126 0.14331 0.40249 0.0
C170 C 0.13136 0.91247 0.61694 0.0
C171 C 0.08559 0.8984 0.59078 0.0
H172 H 0.19881 0.89166 0.68554 0.0
C173 C 0.07235 0.85226 0.61569 0.0
H174 H 0.14237 0.94784 0.59764 0.0
C175 C 0.10396 0.8208 0.66735 0.0
C176 C 0.14988 0.8344 0.69236 0.0
H177 H 0.03729 0.84059 0.59604 0.0
H178 H 0.09256 0.78558 0.68706 0.0
C179 C 0.16361 0.88037 0.66615 0.0
C180 C 0.39397 0.82467 0.92779 0.0
C181 C 0.36017 0.84529 0.85785 0.0
H182 H 0.45239 0.83489 0.0302 0.0
C183 C 0.36101 0.89358 0.83398 0.0
H184 H 0.39398 0.78742 0.94734 0.0
C185 C 0.39389 0.92109 0.88361 0.0
C186 C 0.42692 0.90038 0.95566 0.0
H187 H 0.33487 0.9102 0.78111 0.0
H188 H 0.39252 0.95851 0.86782 0.0
C189 C 0.42729 0.85185 0.97542 0.0
C190 C 0.36418 0.11326 0.04184 0.0
C191 C 0.39432 0.0841 0.10438 0.0
H192 H 0.31247 0.16585 0.02974 0.0
C193 C 0.39272 0.08367 0.2063 0.0
H194 H 0.36439 0.1142 0.96337 0.0
C195 C 0.36316 0.11341 0.24489 0.0
C196 C 0.3346 0.14414 0.18239 0.0
H197 H 0.41514 0.06108 0.25697 0.0
H198 H 0.36374 0.11326 0.32338 0.0
C199 C 0.33459 0.14298 0.08043 0.0
C200 C 0.92957 0.85951 0.67702 0.0
C201 C 0.90907 0.89361 0.60752 0.0
H202 H 0.9192 0.8009 0.77912 0.0
C203 C 0.86085 0.89311 0.58405 0.0
H204 H 0.96676 0.85923 0.69623 0.0
C205 C 0.8333 0.86027 0.63369 0.0
C206 C 0.85388 0.82696 0.70536 0.0
H207 H 0.84433 0.9195 0.53153 0.0
H208 H 0.79595 0.86192 0.61827 0.0
C209 C 0.90233 0.82623 0.72465 0.0
C210 C 0.87334 0.09036 0.4179 0.0
C211 C 0.9192 0.10432 0.4436 0.0
H212 H 0.80573 0.11142 0.35053 0.0
C213 C 0.93241 0.15049 0.41913 0.0
H214 H 0.86234 0.05495 0.4369 0.0
C215 C 0.90069 0.18213 0.3685 0.0
C216 C 0.85469 0.16865 0.34395 0.0
H217 H 0.96754 0.16208 0.43844 0.0
H218 H 0.91209 0.2174 0.3492 0.0
C219 C 0.84099 0.12262 0.36961 0.0
C220 C 0.64352 0.10992 0.20287 0.0
C221 C 0.64419 0.15826 0.17959 0.0
H222 H 0.61211 0.04502 0.16847 0.0
C223 C 0.61019 0.17897 0.11024 0.0
H224 H 0.66982 0.09324 0.25528 0.0
C225 C 0.57684 0.15183 0.06256 0.0
C226 C 0.57739 0.10327 0.08167 0.0
H227 H 0.61004 0.21626 0.09118 0.0
H228 H 0.55159 0.16886 1.00822 0.0
C229 C 0.61061 0.08247 0.15319 0.0
C230 C 0.64123 0.89023 0.79207 0.0
C231 C 0.67006 0.85982 0.85471 0.0
H232 H 0.58891 0.94224 0.77976 0.0
C233 C 0.67019 0.86121 0.95663 0.0
H234 H 0.64054 0.8902 0.7136 0.0
C235 C 0.64047 0.89085 0.99507 0.0
C236 C 0.61007 0.9197 0.93243 0.0
H237 H 0.69252 0.83857 1.00739 0.0
H238 H 0.64038 0.89009 0.07354 0.0
C239 C 0.61153 0.9199 0.83052 0.0
C240 C 0.64409 0.61066 0.95318 0.0
C241 C 0.59593 0.60977 0.92904 0.0
H242 H 0.7089 0.64227 0.91972 0.0
C243 C 0.57541 0.64361 0.85895 0.0
H244 H 0.66064 0.58449 1.00618 0.0
C245 C 0.60256 0.67702 0.81149 0.0
C246 C 0.65097 0.67669 0.83153 0.0
H247 H 0.53825 0.6436 0.83921 0.0
H248 H 0.58568 0.70215 0.7566 0.0
C249 C 0.67157 0.64362 0.90371 0.0
C250 C 0.6029 0.32162 0.17198 0.0
C251 C 0.64895 0.3349 0.19668 0.0
H252 H 0.53634 0.34179 0.10063 0.0
C253 C 0.66299 0.38073 0.17015 0.0
H254 H 0.59126 0.28651 0.19193 0.0
C255 C 0.63095 0.413 0.12076 0.0
C256 C 0.58508 0.39921 0.09475 0.0
H257 H 0.6983 0.39179 0.18928 0.0
H258 H 0.64222 0.44825 0.10108 0.0
C259 C 0.5715 0.35323 0.12016 0.0
C260 C 0.92644 0.35186 0.47817 0.0
C261 C 0.9264 0.40034 0.45737 0.0
H262 H 0.89268 0.28747 0.4515 0.0
C263 C 0.89344 0.42096 0.38508 0.0
H264 H 0.95147 0.33497 0.53316 0.0
C265 C 0.86031 0.39343 0.33619 0.0
C266 C 0.85916 0.34522 0.36104 0.0
H267 H 0.89235 0.45835 0.36846 0.0
H268 H 0.83427 0.41 0.28302 0.0
C269 C 0.89287 0.32467 0.43127 0.0
C270 C 0.86339 0.61357 0.74523 0.0
C271 C 0.83455 0.64403 0.68272 0.0
H272 H 0.91562 0.56149 0.75727 0.0
C273 C 0.8343 0.64264 0.58078 0.0
H274 H 0.86417 0.61361 0.82371 0.0
C275 C 0.86392 0.61296 0.54216 0.0
C276 C 0.89433 0.58408 0.60466 0.0
H277 H 0.81196 0.66531 0.53012 0.0
H278 H 0.86393 0.61372 0.46367 0.0
C279 C 0.89298 0.58386 0.70661 0.0
C280 C 0.33322 0.36065 0.13462 0.0
C281 C 0.35373 0.32755 0.20684 0.0
H282 H 0.34428 0.41995 0.03267 0.0
C283 C 0.40209 0.32743 0.22771 0.0
H284 H 0.29592 0.36183 0.11799 0.0
C285 C 0.42929 0.36104 0.18096 0.0
C286 C 0.40886 0.39487 0.11075 0.0
H287 H 0.4189 0.3023 0.28266 0.0
H288 H 0.4664 0.36117 0.20127 0.0
C289 C 0.36075 0.39381 0.08583 0.0
C290 C 0.43307 0.65108 0.91942 0.0
C291 C 0.41967 0.60505 0.9449 0.0
H292 H 0.41312 0.71762 0.84704 0.0
C293 C 0.37391 0.59101 0.91856 0.0
H294 H 0.46813 0.66271 0.93921 0.0
C295 C 0.34181 0.62306 0.86867 0.0
C296 C 0.35569 0.66893 0.84198 0.0
H297 H 0.36279 0.55571 0.93829 0.0
H298 H 0.3066 0.61181 0.84922 0.0
C299 C 0.40161 0.68248 0.86711 0.0
C300 C 0.11171 0.6788 0.60595 0.0
C301 C 0.14546 0.65817 0.67598 0.0
H302 H 0.05297 0.66866 0.50434 0.0
C303 C 0.14426 0.60994 0.70067 0.0
H304 H 0.11195 0.71601 0.58581 0.0
C305 C 0.11103 0.5825 0.65184 0.0
C306 C 0.07801 0.60321 0.57981 0.0
H307 H 0.17033 0.59331 0.75368 0.0
H308 H 0.11208 0.54509 0.66831 0.0
C309 C 0.07804 0.6517 0.55915 0.0
C310 C 0.14107 0.39016 0.29194 0.0
C311 C 0.16986 0.35968 0.35454 0.0
H312 H 0.08882 0.44224 0.27971 0.0
C313 C 0.16999 0.36104 0.45646 0.0
H314 H 0.14038 0.39015 0.21346 0.0
C315 C 0.14033 0.39071 0.49496 0.0
C316 C 0.10997 0.41962 0.43235 0.0
H317 H 0.19229 0.33836 0.50719 0.0
H318 H 0.14023 0.38993 0.57343 0.0
C319 C 0.11142 0.41985 0.33044 0.0
C320 C 0.04221 0.98515 0.98061 0.0
C321 C 0.00911 0.01101 0.91798 0.0
H322 H 0.0618 0.95579 0.12635 0.0
C323 C 0.96926 0.02709 0.95503 0.0
H324 H 0.07291 0.97197 0.95339 0.0
C325 C 0.96258 0.01743 0.05349 0.0
C326 C 0.99569 0.99158 0.11612 0.0
H327 H 0.94299 0.04679 0.90774 0.0
H328 H 0.93188 0.03062 0.08071 0.0
C329 C 0.03553 0.9755 0.07907 0.0
C330 C 0.27947 0.71885 0.32858 0.0
C331 C 0.2628 0.75849 0.36575 0.0
H332 H 0.28341 0.68148 0.20286 0.0
C333 C 0.23632 0.79121 0.3033 0.0
H334 H 0.29967 0.69288 0.37572 0.0
C335 C 0.22662 0.78435 0.20493 0.0
C336 C 0.24327 0.74471 0.16776 0.0
H337 H 0.22268 0.82173 0.33062 0.0
H338 H 0.20641 0.81033 0.1578 0.0
C339 C 0.26977 0.712 0.23019 0.0
C340 C 0.52395 0.03997 0.55942 0.0
C341 C 0.49088 0.01414 0.61018 0.0
H342 H 0.56029 0.04897 0.43059 0.0
C343 C 0.46932 0.97602 0.56813 0.0
H344 H 0.54165 0.06914 0.59053 0.0
C345 C 0.48051 0.96405 0.47721 0.0
C346 C 0.51357 0.98988 0.42644 0.0
H347 H 0.44416 0.95506 0.60602 0.0
H348 H 0.46281 0.93489 0.44611 0.0
C349 C 0.53513 0.02801 0.46849 0.0
C350 C 0.21531 0.229 0.81059 0.0
C351 C 0.24005 0.26313 0.86046 0.0
H352 H 0.20731 0.19196 0.68248 0.0
C353 C 0.27723 0.28592 0.81753 0.0
H354 H 0.1869 0.21035 0.84239 0.0
C355 C 0.28935 0.27489 0.7266 0.0
C356 C 0.26461 0.24076 0.67673 0.0
H357 H 0.29734 0.31193 0.85472 0.0
H358 H 0.31775 0.29354 0.69479 0.0
C359 C 0.22743 0.21797 0.71967 0.0
C360 C 0.73497 0.29125 0.80694 0.0
C361 C 0.76137 0.2585 0.86944 0.0
H362 H 0.70519 0.31042 0.66134 0.0
C363 C 0.77802 0.21884 0.83231 0.0
H364 H 0.72133 0.32178 0.83423 0.0
C365 C 0.7684 0.21201 0.73389 0.0
C366 C 0.742 0.24477 0.67139 0.0
H367 H 0.79817 0.19284 0.8795 0.0
H368 H 0.78204 0.18148 0.7066 0.0
C369 C 0.72534 0.28442 0.70853 0.0
C370 C 0.77732 0.78607 0.31783 0.0
C371 C 0.74017 0.76317 0.36071 0.0
H372 H 0.81786 0.79384 0.19514 0.0
C373 C 0.71555 0.72898 0.3108 0.0
H374 H 0.79734 0.81213 0.35505 0.0
C375 C 0.72774 0.71801 0.21989 0.0
C376 C 0.76488 0.74091 0.177 0.0
H377 H 0.68718 0.71024 0.34256 0.0
H378 H 0.70771 0.69195 0.18267 0.0
C379 C 0.7895 0.7751 0.22691 0.0
C380 C 0.46331 0.51979 0.55676 0.0
C381 C 0.49548 0.49259 0.61903 0.0
H382 H 0.44472 0.5503 0.41144 0.0
C383 C 0.53472 0.47527 0.58179 0.0
H384 H 0.43312 0.53397 0.58415 0.0
C385 C 0.54169 0.48501 0.48349 0.0
C386 C 0.50951 0.5122 0.42121 0.0
H387 H 0.56028 0.4545 0.62881 0.0
H388 H 0.57188 0.47083 0.45611 0.0
C389 C 0.47029 0.52954 0.45846 0.0
C390 C 0.98111 0.46359 0.97757 0.0
C391 C 0.01368 0.49001 0.9265 0.0
H392 H 0.945 0.45398 0.10665 0.0
C393 C 0.03456 0.52854 0.96825 0.0
H394 H 0.96392 0.43411 0.94671 0.0
C395 C 0.02321 0.54032 0.0592 0.0
C396 C 0.99065 0.5139 0.11027 0.0
H397 H 0.05932 0.54994 0.93011 0.0
H398 H 0.0404 0.5698 0.09007 0.0
C399 C 0.96976 0.47538 0.06851 0.0
loop_
_geom_bond_atom_site_label_1
_geom_bond_atom_site_label_2
_geom_bond_distance
_geom_bond_site_symmetry_2
_ccdc_geom_bond_type
Dy0 O4 2.398 1_655 S
Dy0 O5 2.491 1_565 S
Dy0 O6 2.403 1_655 S
Dy0 O7 2.664 1_655 S
Dy0 O11 2.326 1_665 S
Dy0 O15 2.310 1_565 S
Dy0 O16 2.351 . S
C1 O12 1.185 . S
C1 O13 1.355 1_645 S
C2 O4 1.185 . S
C2 O5 1.355 1_465 S
Dy3 O7 2.310 1_545 S
Dy3 O10 2.351 . S
Dy3 O12 2.398 1_455 S
Dy3 O13 2.491 1_545 S
Dy3 O14 2.403 1_455 S
Dy3 O15 2.664 1_455 S
Dy3 O17 2.326 1_445 S
O4 Dy0 2.398 1_455 S
O4 C2 1.185 . S
O5 Dy0 2.491 1_545 S
O5 C2 1.355 1_645 S
O6 Dy0 2.403 1_455 S
O6 C8 1.254 . S
O7 Dy0 2.664 1_455 S
O7 Dy3 2.310 1_565 S
O7 C8 1.268 . S
C8 O6 1.254 . S
C8 O7 1.268 . S
C9 O14 1.254 . S
C9 O15 1.268 . S
O10 Dy3 2.351 . S
O10 C18 1.249 . S
O11 Dy0 2.326 1_445 S
O11 C18 1.267 . S
O12 C1 1.185 . S
O12 Dy3 2.398 1_655 S
O13 C1 1.355 1_465 S
O13 Dy3 2.491 1_565 S
O14 Dy3 2.403 1_655 S
O14 C9 1.254 . S
O15 Dy0 2.310 1_545 S
O15 Dy3 2.664 1_655 S
O15 C9 1.268 . S
O16 Dy0 2.351 . S
O16 C19 1.249 . S
O17 Dy3 2.326 1_665 S
O17 C19 1.267 . S
C18 O10 1.249 . S
C18 O11 1.267 . S
C19 O16 1.249 . S
C19 O17 1.267 . S
Dy20 O24 2.398 1_556 S
Dy20 O25 2.491 1_556 S
Dy20 O26 2.403 . S
Dy20 O27 2.664 . S
Dy20 O31 2.326 . S
Dy20 O35 2.310 . S
Dy20 O36 2.351 . S
C21 O32 1.185 . S
C21 O33 1.355 . S
C22 O24 1.185 . S
C22 O25 1.355 . S
Dy23 O27 2.310 . S
Dy23 O30 2.351 . S
Dy23 O32 2.398 . S
Dy23 O33 2.491 . S
Dy23 O34 2.403 . S
Dy23 O35 2.664 . S
Dy23 O37 2.326 . S
O24 Dy20 2.398 1_554 S
O24 C22 1.185 . S
O25 Dy20 2.491 1_554 S
O25 C22 1.355 . S
O26 Dy20 2.403 . S
O26 C28 1.254 . S
O27 Dy20 2.664 . S
O27 Dy23 2.310 . S
O27 C28 1.268 . S
C28 O26 1.254 . S
C28 O27 1.268 . S
C29 O34 1.254 . S
C29 O35 1.268 . S
O30 Dy23 2.351 . S
O30 C38 1.249 . S
O31 Dy20 2.326 . S
O31 C38 1.267 . S
O32 C21 1.185 . S
O32 Dy23 2.398 . S
O33 C21 1.355 . S
O33 Dy23 2.491 . S
O34 Dy23 2.403 . S
O34 C29 1.254 . S
O35 Dy20 2.310 . S
O35 Dy23 2.664 . S
O35 C29 1.268 . S
O36 Dy20 2.351 . S
O36 C39 1.249 . S
O37 Dy23 2.326 . S
O37 C39 1.267 . S
C38 O30 1.249 . S
C38 O31 1.267 . S
C39 O36 1.249 . S
C39 O37 1.267 . S
Dy40 O44 2.398 . S
Dy40 O45 2.491 1_565 S
Dy40 O46 2.403 . S
Dy40 O47 2.664 1_554 S
Dy40 O51 2.326 1_565 S
Dy40 O55 2.310 1_565 S
Dy40 O56 2.351 . S
C41 O52 1.185 . S
C41 O53 1.355 1_545 S
C42 O44 1.185 . S
C42 O45 1.355 1_565 S
Dy43 O47 2.310 1_545 S
Dy43 O50 2.351 . S
Dy43 O52 2.398 . S
Dy43 O53 2.491 1_545 S
Dy43 O54 2.403 . S
Dy43 O55 2.664 1_556 S
Dy43 O57 2.326 1_545 S
O44 Dy40 2.398 . S
O44 C42 1.185 . S
O45 Dy40 2.491 1_545 S
O45 C42 1.355 1_545 S
O46 Dy40 2.403 . S
O46 C48 1.254 1_554 S
O47 Dy40 2.664 1_556 S
O47 Dy43 2.310 1_565 S
O47 C48 1.268 . S
C48 O46 1.254 1_556 S
C48 O47 1.268 . S
C49 O54 1.254 1_554 S
C49 O55 1.268 . S
O50 Dy43 2.351 . S
O50 C58 1.249 1_556 S
O51 Dy40 2.326 1_545 S
O51 C58 1.267 . S
O52 C41 1.185 . S
O52 Dy43 2.398 . S
O53 C41 1.355 1_565 S
O53 Dy43 2.491 1_565 S
O54 Dy43 2.403 . S
O54 C49 1.254 1_556 S
O55 Dy40 2.310 1_545 S
O55 Dy43 2.664 1_554 S
O55 C49 1.268 . S
O56 Dy40 2.351 . S
O56 C59 1.249 1_554 S
O57 Dy43 2.326 1_565 S
O57 C59 1.267 . S
C58 O50 1.249 1_554 S
C58 O51 1.267 . S
C59 O56 1.249 1_556 S
C59 O57 1.267 . S
Dy60 O64 2.398 1_554 S
Dy60 O65 2.491 1_554 S
Dy60 O66 2.403 . S
Dy60 O67 2.664 . S
Dy60 O71 2.326 . S
Dy60 O75 2.310 . S
Dy60 O76 2.351 . S
C61 O72 1.185 . S
C61 O73 1.355 . S
C62 O64 1.185 . S
C62 O65 1.355 . S
Dy63 O67 2.310 . S
Dy63 O70 2.351 . S
Dy63 O72 2.398 . S
Dy63 O73 2.491 . S
Dy63 O74 2.403 . S
Dy63 O75 2.664 . S
Dy63 O77 2.326 . S
O64 Dy60 2.398 1_556 S
O64 C62 1.185 . S
O65 Dy60 2.491 1_556 S
O65 C62 1.355 . S
O66 Dy60 2.403 . S
O66 C68 1.254 . S
O67 Dy60 2.664 . S
O67 Dy63 2.310 . S
O67 C68 1.268 . S
C68 O66 1.254 . S
C68 O67 1.268 . S
C69 O74 1.254 . S
C69 O75 1.268 . S
O70 Dy63 2.351 . S
O70 C78 1.249 . S
O71 Dy60 2.326 . S
O71 C78 1.267 . S
O72 C61 1.185 . S
O72 Dy63 2.398 . S
O73 C61 1.355 . S
O73 Dy63 2.491 . S
O74 Dy63 2.403 . S
O74 C69 1.254 . S
O75 Dy60 2.310 . S
O75 Dy63 2.664 . S
O75 C69 1.268 . S
O76 Dy60 2.351 . S
O76 C79 1.249 . S
O77 Dy63 2.326 . S
O77 C79 1.267 . S
C78 O70 1.249 . S
C78 O71 1.267 . S
C79 O76 1.249 . S
C79 O77 1.267 . S
Dy80 O84 2.398 . S
Dy80 O85 2.491 . S
Dy80 O86 2.403 . S
Dy80 O87 2.664 . S
Dy80 O91 2.326 . S
Dy80 O95 2.310 . S
Dy80 O96 2.351 . S
C81 O92 1.185 . S
C81 O93 1.355 . S
C82 O84 1.185 . S
C82 O85 1.355 . S
Dy83 O87 2.310 . S
Dy83 O90 2.351 . S
Dy83 O92 2.398 1_554 S
Dy83 O93 2.491 1_554 S
Dy83 O94 2.403 . S
Dy83 O95 2.664 . S
Dy83 O97 2.326 . S
O84 Dy80 2.398 . S
O84 C82 1.185 . S
O85 Dy80 2.491 . S
O85 C82 1.355 . S
O86 Dy80 2.403 . S
O86 C88 1.254 . S
O87 Dy80 2.664 . S
O87 Dy83 2.310 . S
O87 C88 1.268 . S
C88 O86 1.254 . S
C88 O87 1.268 . S
C89 O94 1.254 . S
C89 O95 1.268 . S
O90 Dy83 2.351 . S
O90 C98 1.249 . S
O91 Dy80 2.326 . S
O91 C98 1.267 . S
O92 C81 1.185 . S
O92 Dy83 2.398 1_556 S
O93 C81 1.355 . S
O93 Dy83 2.491 1_556 S
O94 Dy83 2.403 . S
O94 C89 1.254 . S
O95 Dy80 2.310 . S
O95 Dy83 2.664 . S
O95 C89 1.268 . S
O96 Dy80 2.351 . S
O96 C99 1.249 . S
O97 Dy83 2.326 . S
O97 C99 1.267 . S
C98 O90 1.249 . S
C98 O91 1.267 . S
C99 O96 1.249 . S
C99 O97 1.267 . S
Dy100 O104 2.398 . S
Dy100 O105 2.491 . S
Dy100 O106 2.403 . S
Dy100 O107 2.664 . S
Dy100 O111 2.326 . S
Dy100 O115 2.310 . S
Dy100 O116 2.351 . S
C101 O112 1.185 . S
C101 O113 1.355 . S
C102 O104 1.185 . S
C102 O105 1.355 . S
Dy103 O107 2.310 . S
Dy103 O110 2.351 . S
Dy103 O112 2.398 1_556 S
Dy103 O113 2.491 1_556 S
Dy103 O114 2.403 . S
Dy103 O115 2.664 . S
Dy103 O117 2.326 . S
O104 Dy100 2.398 . S
O104 C102 1.185 . S
O105 Dy100 2.491 . S
O105 C102 1.355 . S
O106 Dy100 2.403 . S
O106 C108 1.254 . S
O107 Dy100 2.664 . S
O107 Dy103 2.310 . S
O107 C108 1.268 . S
C108 O106 1.254 . S
C108 O107 1.268 . S
C109 O114 1.254 . S
C109 O115 1.268 . S
O110 Dy103 2.351 . S
O110 C118 1.249 . S
O111 Dy100 2.326 . S
O111 C118 1.267 . S
O112 C101 1.185 . S
O112 Dy103 2.398 1_554 S
O113 C101 1.355 . S
O113 Dy103 2.491 1_554 S
O114 Dy103 2.403 . S
O114 C109 1.254 . S
O115 Dy100 2.310 . S
O115 Dy103 2.664 . S
O115 C109 1.268 . S
O116 Dy100 2.351 . S
O116 C119 1.249 . S
O117 Dy103 2.326 . S
O117 C119 1.267 . S
C118 O110 1.249 . S
C118 O111 1.267 . S
C119 O116 1.249 . S
C119 O117 1.267 . S
Dy120 O124 2.398 . S
Dy120 O125 2.491 . S
Dy120 O126 2.403 . S
Dy120 O127 2.664 1_556 S
Dy120 O131 2.326 . S
Dy120 O135 2.310 . S
Dy120 O136 2.351 . S
C121 O132 1.185 . S
C121 O133 1.355 . S
C122 O124 1.185 . S
C122 O125 1.355 . S
Dy123 O127 2.310 . S
Dy123 O130 2.351 . S
Dy123 O132 2.398 . S
Dy123 O133 2.491 . S
Dy123 O134 2.403 . S
Dy123 O135 2.664 1_554 S
Dy123 O137 2.326 . S
O124 Dy120 2.398 . S
O124 C122 1.185 . S
O125 Dy120 2.491 . S
O125 C122 1.355 . S
O126 Dy120 2.403 . S
O126 C128 1.254 1_556 S
O127 Dy120 2.664 1_554 S
O127 Dy123 2.310 . S
O127 C128 1.268 . S
C128 O126 1.254 1_554 S
C128 O127 1.268 . S
C129 O134 1.254 1_556 S
C129 O135 1.268 . S
O130 Dy123 2.351 . S
O130 C138 1.249 1_554 S
O131 Dy120 2.326 . S
O131 C138 1.267 . S
O132 C121 1.185 . S
O132 Dy123 2.398 . S
O133 C121 1.355 . S
O133 Dy123 2.491 . S
O134 Dy123 2.403 . S
O134 C129 1.254 1_554 S
O135 Dy120 2.310 . S
O135 Dy123 2.664 1_556 S
O135 C129 1.268 . S
O136 Dy120 2.351 . S
O136 C139 1.249 1_556 S
O137 Dy123 2.326 . S
O137 C139 1.267 . S
C138 O130 1.249 1_556 S
C138 O131 1.267 . S
C139 O136 1.249 1_554 S
C139 O137 1.267 . S
Dy140 O144 2.398 1_455 S
Dy140 O145 2.491 . S
Dy140 O146 2.403 1_455 S
Dy140 O147 2.664 1_455 S
Dy140 O151 2.326 1_455 S
Dy140 O155 2.310 . S
Dy140 O156 2.351 . S
C141 O152 1.185 . S
C141 O153 1.355 1_455 S
C142 O144 1.185 . S
C142 O145 1.355 1_655 S
Dy143 O147 2.310 . S
Dy143 O150 2.351 . S
Dy143 O152 2.398 1_655 S
Dy143 O153 2.491 . S
Dy143 O154 2.403 1_655 S
Dy143 O155 2.664 1_655 S
Dy143 O157 2.326 1_655 S
O144 Dy140 2.398 1_655 S
O144 C142 1.185 . S
O145 Dy140 2.491 . S
O145 C142 1.355 1_455 S
O146 Dy140 2.403 1_655 S
O146 C148 1.254 . S
O147 Dy140 2.664 1_655 S
O147 Dy143 2.310 . S
O147 C148 1.268 . S
C148 O146 1.254 . S
C148 O147 1.268 . S
C149 O154 1.254 . S
C149 O155 1.268 . S
O150 Dy143 2.351 . S
O150 C158 1.249 . S
O151 Dy140 2.326 1_655 S
O151 C158 1.267 . S
O152 C141 1.185 . S
O152 Dy143 2.398 1_455 S
O153 C141 1.355 1_655 S
O153 Dy143 2.491 . S
O154 Dy143 2.403 1_455 S
O154 C149 1.254 . S
O155 Dy140 2.310 . S
O155 Dy143 2.664 1_455 S
O155 C149 1.268 . S
O156 Dy140 2.351 . S
O156 C159 1.249 . S
O157 Dy143 2.326 1_455 S
O157 C159 1.267 . S
C158 O150 1.249 . S
C158 O151 1.267 . S
C159 O156 1.249 . S
C159 O157 1.267 . S
C160 C161 1.387 . S
C160 H164 0.950 . S
C160 C169 1.390 . S
C161 C160 1.387 . S
C161 C163 1.387 . S
H162 C169 0.950 . S
C163 C161 1.387 . S
C163 C165 1.390 . S
C163 H167 0.950 . S
H164 C160 0.950 . S
C165 C163 1.390 . S
C165 C166 1.387 . S
C165 H168 0.950 . S
C166 C165 1.387 . S
C166 C169 1.387 . S
H167 C163 0.950 . S
H168 C165 0.950 . S
C169 C160 1.390 . S
C169 H162 0.950 . S
C169 C166 1.387 . S
C170 C171 1.387 . S
C170 H174 0.950 . S
C170 C179 1.390 . S
C171 C170 1.387 . S
C171 C173 1.387 . S
H172 C179 0.950 . S
C173 C171 1.387 . S
C173 C175 1.390 . S
C173 H177 0.950 . S
H174 C170 0.950 . S
C175 C173 1.390 . S
C175 C176 1.387 . S
C175 H178 0.950 . S
C176 C175 1.387 . S
C176 C179 1.387 . S
H177 C173 0.950 . S
H178 C175 0.950 . S
C179 C170 1.390 . S
C179 H172 0.950 . S
C179 C176 1.387 . S
C180 C181 1.387 . S
C180 H184 0.950 . S
C180 C189 1.390 . S
C181 C180 1.387 . S
C181 C183 1.387 . S
H182 C189 0.950 1_554 S
C183 C181 1.387 . S
C183 C185 1.390 . S
C183 H187 0.950 . S
H184 C180 0.950 . S
C185 C183 1.390 . S
C185 C186 1.387 . S
C185 H188 0.950 . S
C186 C185 1.387 . S
C186 C189 1.387 . S
H187 C183 0.950 . S
H188 C185 0.950 . S
C189 C180 1.390 . S
C189 H182 0.950 1_556 S
C189 C186 1.387 . S
C190 C191 1.387 . S
C190 H194 0.950 1_554 S
C190 C199 1.390 . S
C191 C190 1.387 . S
C191 C193 1.387 . S
H192 C199 0.950 . S
C193 C191 1.387 . S
C193 C195 1.390 . S
C193 H197 0.950 . S
H194 C190 0.950 1_556 S
C195 C193 1.390 . S
C195 C196 1.387 . S
C195 H198 0.950 . S
C196 C195 1.387 . S
C196 C199 1.387 . S
H197 C193 0.950 . S
H198 C195 0.950 . S
C199 C190 1.390 . S
C199 H192 0.950 . S
C199 C196 1.387 . S
C200 C201 1.387 . S
C200 H204 0.950 . S
C200 C209 1.390 . S
C201 C200 1.387 . S
C201 C203 1.387 . S
H202 C209 0.950 . S
C203 C201 1.387 . S
C203 C205 1.390 . S
C203 H207 0.950 . S
H204 C200 0.950 . S
C205 C203 1.390 . S
C205 C206 1.387 . S
C205 H208 0.950 . S
C206 C205 1.387 . S
C206 C209 1.387 . S
H207 C203 0.950 . S
H208 C205 0.950 . S
C209 C200 1.390 . S
C209 H202 0.950 . S
C209 C206 1.387 . S
C210 C211 1.387 . S
C210 H214 0.950 . S
C210 C219 1.390 . S
C211 C210 1.387 . S
C211 C213 1.387 . S
H212 C219 0.950 . S
C213 C211 1.387 . S
C213 C215 1.390 . S
C213 H217 0.950 . S
H214 C210 0.950 . S
C215 C213 1.390 . S
C215 C216 1.387 . S
C215 H218 0.950 . S
C216 C215 1.387 . S
C216 C219 1.387 . S
H217 C213 0.950 . S
H218 C215 0.950 . S
C219 C210 1.390 . S
C219 H212 0.950 . S
C219 C216 1.387 . S
C220 C221 1.387 . S
C220 H224 0.950 . S
C220 C229 1.390 . S
C221 C220 1.387 . S
C221 C223 1.387 . S
H222 C229 0.950 . S
C223 C221 1.387 . S
C223 C225 1.390 . S
C223 H227 0.950 1_554 S
H224 C220 0.950 . S
C225 C223 1.390 . S
C225 C226 1.387 . S
C225 H228 0.950 1_554 S
C226 C225 1.387 . S
C226 C229 1.387 . S
H227 C223 0.950 1_556 S
H228 C225 0.950 1_556 S
C229 C220 1.390 . S
C229 H222 0.950 . S
C229 C226 1.387 . S
C230 C231 1.387 . S
C230 H234 0.950 . S
C230 C239 1.390 . S
C231 C230 1.387 . S
C231 C233 1.387 . S
H232 C239 0.950 . S
C233 C231 1.387 . S
C233 C235 1.390 . S
C233 H237 0.950 . S
H234 C230 0.950 . S
C235 C233 1.390 . S
C235 C236 1.387 . S
C235 H238 0.950 1_556 S
C236 C235 1.387 . S
C236 C239 1.387 . S
H237 C233 0.950 . S
H238 C235 0.950 1_554 S
C239 C230 1.390 . S
C239 H232 0.950 . S
C239 C236 1.387 . S
C240 C241 1.387 . S
C240 H244 0.950 . S
C240 C249 1.390 . S
C241 C240 1.387 . S
C241 C243 1.387 . S
H242 C249 0.950 . S
C243 C241 1.387 . S
C243 C245 1.390 . S
C243 H247 0.950 . S
H244 C240 0.950 . S
C245 C243 1.390 . S
C245 C246 1.387 . S
C245 H248 0.950 . S
C246 C245 1.387 . S
C246 C249 1.387 . S
H247 C243 0.950 . S
H248 C245 0.950 . S
C249 C240 1.390 . S
C249 H242 0.950 . S
C249 C246 1.387 . S
C250 C251 1.387 . S
C250 H254 0.950 . S
C250 C259 1.390 . S
C251 C250 1.387 . S
C251 C253 1.387 . S
H252 C259 0.950 . S
C253 C251 1.387 . S
C253 C255 1.390 . S
C253 H257 0.950 . S
H254 C250 0.950 . S
C255 C253 1.390 . S
C255 C256 1.387 . S
C255 H258 0.950 1_554 S
C256 C255 1.387 . S
C256 C259 1.387 . S
H257 C253 0.950 . S
H258 C255 0.950 1_556 S
C259 C250 1.390 . S
C259 H252 0.950 . S
C259 C256 1.387 . S
C260 C261 1.387 . S
C260 H264 0.950 . S
C260 C269 1.390 . S
C261 C260 1.387 . S
C261 C263 1.387 . S
H262 C269 0.950 . S
C263 C261 1.387 . S
C263 C265 1.390 . S
C263 H267 0.950 . S
H264 C260 0.950 . S
C265 C263 1.390 . S
C265 C266 1.387 . S
C265 H268 0.950 . S
C266 C265 1.387 . S
C266 C269 1.387 . S
H267 C263 0.950 . S
H268 C265 0.950 . S
C269 C260 1.390 . S
C269 H262 0.950 . S
C269 C266 1.387 . S
C270 C271 1.387 . S
C270 H274 0.950 . S
C270 C279 1.390 . S
C271 C270 1.387 . S
C271 C273 1.387 . S
H272 C279 0.950 . S
C273 C271 1.387 . S
C273 C275 1.390 . S
C273 H277 0.950 . S
H274 C270 0.950 . S
C275 C273 1.390 . S
C275 C276 1.387 . S
C275 H278 0.950 . S
C276 C275 1.387 . S
C276 C279 1.387 . S
H277 C273 0.950 . S
H278 C275 0.950 . S
C279 C270 1.390 . S
C279 H272 0.950 . S
C279 C276 1.387 . S
C280 C281 1.387 . S
C280 H284 0.950 . S
C280 C289 1.390 . S
C281 C280 1.387 . S
C281 C283 1.387 . S
H282 C289 0.950 . S
C283 C281 1.387 . S
C283 C285 1.390 . S
C283 H287 0.950 . S
H284 C280 0.950 . S
C285 C283 1.390 . S
C285 C286 1.387 . S
C285 H288 0.950 . S
C286 C285 1.387 . S
C286 C289 1.387 . S
H287 C283 0.950 . S
H288 C285 0.950 . S
C289 C280 1.390 . S
C289 H282 0.950 . S
C289 C286 1.387 . S
C290 C291 1.387 . S
C290 H294 0.950 . S
C290 C299 1.390 . S
C291 C290 1.387 . S
C291 C293 1.387 . S
H292 C299 0.950 . S
C293 C291 1.387 . S
C293 C295 1.390 . S
C293 H297 0.950 . S
H294 C290 0.950 . S
C295 C293 1.390 . S
C295 C296 1.387 . S
C295 H298 0.950 . S
C296 C295 1.387 . S
C296 C299 1.387 . S
H297 C293 0.950 . S
H298 C295 0.950 . S
C299 C290 1.390 . S
C299 H292 0.950 . S
C299 C296 1.387 . S
C300 C301 1.387 . S
C300 H304 0.950 . S
C300 C309 1.390 . S
C301 C300 1.387 . S
C301 C303 1.387 . S
H302 C309 0.950 . S
C303 C301 1.387 . S
C303 C305 1.390 . S
C303 H307 0.950 . S
H304 C300 0.950 . S
C305 C303 1.390 . S
C305 C306 1.387 . S
C305 H308 0.950 . S
C306 C305 1.387 . S
C306 C309 1.387 . S
H307 C303 0.950 . S
H308 C305 0.950 . S
C309 C300 1.390 . S
C309 H302 0.950 . S
C309 C306 1.387 . S
C310 C311 1.387 . S
C310 H314 0.950 . S
C310 C319 1.390 . S
C311 C310 1.387 . S
C311 C313 1.387 . S
H312 C319 0.950 . S
C313 C311 1.387 . S
C313 C315 1.390 . S
C313 H317 0.950 . S
H314 C310 0.950 . S
C315 C313 1.390 . S
C315 C316 1.387 . S
C315 H318 0.950 . S
C316 C315 1.387 . S
C316 C319 1.387 . S
H317 C313 0.950 . S
H318 C315 0.950 . S
C319 C310 1.390 . S
C319 H312 0.950 . S
C319 C316 1.387 . S
C320 C321 1.387 1_455 S
C320 H324 0.950 . S
C320 C329 1.390 1_556 S
C321 C320 1.387 1_655 S
C321 C323 1.387 1_565 S
H322 C329 0.950 . S
C323 C321 1.387 1_545 S
C323 C325 1.390 1_556 S
C323 H327 0.950 . S
H324 C320 0.950 . S
C325 C323 1.390 1_554 S
C325 C326 1.387 1_655 S
C325 H328 0.950 . S
C326 C325 1.387 1_455 S
C326 C329 1.387 1_545 S
H327 C323 0.950 . S
H328 C325 0.950 . S
C329 C320 1.390 1_554 S
C329 H322 0.950 . S
C329 C326 1.387 1_565 S
C330 C331 1.387 . S
C330 H334 0.950 . S
C330 C339 1.390 . S
C331 C330 1.387 . S
C331 C333 1.387 . S
H332 C339 0.950 . S
C333 C331 1.387 . S
C333 C335 1.390 . S
C333 H337 0.950 . S
H334 C330 0.950 . S
C335 C333 1.390 . S
C335 C336 1.387 . S
C335 H338 0.950 . S
C336 C335 1.387 . S
C336 C339 1.387 . S
H337 C333 0.950 . S
H338 C335 0.950 . S
C339 C330 1.390 . S
C339 H332 0.950 . S
C339 C336 1.387 . S
C340 C341 1.387 . S
C340 H344 0.950 . S
C340 C349 1.390 . S
C341 C340 1.387 . S
C341 C343 1.387 1_545 S
H342 C349 0.950 . S
C343 C341 1.387 1_565 S
C343 C345 1.390 . S
C343 H347 0.950 . S
H344 C340 0.950 . S
C345 C343 1.390 . S
C345 C346 1.387 . S
C345 H348 0.950 . S
C346 C345 1.387 . S
C346 C349 1.387 1_565 S
H347 C343 0.950 . S
H348 C345 0.950 . S
C349 C340 1.390 . S
C349 H342 0.950 . S
C349 C346 1.387 1_545 S
C350 C351 1.387 . S
C350 H354 0.950 . S
C350 C359 1.390 . S
C351 C350 1.387 . S
C351 C353 1.387 . S
H352 C359 0.950 . S
C353 C351 1.387 . S
C353 C355 1.390 . S
C353 H357 0.950 . S
H354 C350 0.950 . S
C355 C353 1.390 . S
C355 C356 1.387 . S
C355 H358 0.950 . S
C356 C355 1.387 . S
C356 C359 1.387 . S
H357 C353 0.950 . S
H358 C355 0.950 . S
C359 C350 1.390 . S
C359 H352 0.950 . S
C359 C356 1.387 . S
C360 C361 1.387 . S
C360 H364 0.950 . S
C360 C369 1.390 . S
C361 C360 1.387 . S
C361 C363 1.387 . S
H362 C369 0.950 . S
C363 C361 1.387 . S
C363 C365 1.390 . S
C363 H367 0.950 . S
H364 C360 0.950 . S
C365 C363 1.390 . S
C365 C366 1.387 . S
C365 H368 0.950 . S
C366 C365 1.387 . S
C366 C369 1.387 . S
H367 C363 0.950 . S
H368 C365 0.950 . S
C369 C360 1.390 . S
C369 H362 0.950 . S
C369 C366 1.387 . S
C370 C371 1.387 . S
C370 H374 0.950 . S
C370 C379 1.390 . S
C371 C370 1.387 . S
C371 C373 1.387 . S
H372 C379 0.950 . S
C373 C371 1.387 . S
C373 C375 1.390 . S
C373 H377 0.950 . S
H374 C370 0.950 . S
C375 C373 1.390 . S
C375 C376 1.387 . S
C375 H378 0.950 . S
C376 C375 1.387 . S
C376 C379 1.387 . S
H377 C373 0.950 . S
H378 C375 0.950 . S
C379 C370 1.390 . S
C379 H372 0.950 . S
C379 C376 1.387 . S
C380 C381 1.387 . S
C380 H384 0.950 . S
C380 C389 1.390 . S
C381 C380 1.387 . S
C381 C383 1.387 . S
H382 C389 0.950 . S
C383 C381 1.387 . S
C383 C385 1.390 . S
C383 H387 0.950 . S
H384 C380 0.950 . S
C385 C383 1.390 . S
C385 C386 1.387 . S
C385 H388 0.950 . S
C386 C385 1.387 . S
C386 C389 1.387 . S
H387 C383 0.950 . S
H388 C385 0.950 . S
C389 C380 1.390 . S
C389 H382 0.950 . S
C389 C386 1.387 . S
C390 C391 1.387 1_455 S
C390 H394 0.950 . S
C390 C399 1.390 1_556 S
C391 C390 1.387 1_655 S
C391 C393 1.387 . S
H392 C399 0.950 . S
C393 C391 1.387 . S
C393 C395 1.390 1_556 S
C393 H397 0.950 . S
H394 C390 0.950 . S
C395 C393 1.390 1_554 S
C395 C396 1.387 1_655 S
C395 H398 0.950 . S
C396 C395 1.387 1_455 S
C396 C399 1.387 . S
H397 C393 0.950 . S
H398 C395 0.950 . S
C399 C390 1.390 1_554 S
C399 H392 0.950 . S
C399 C396 1.387 . S
C161 C18 1.511 . S
C166 C68 1.496 . S
C171 C8 1.242 . S
C176 C28 1.242 . S
C181 C38 1.510 . S
C186 C48 1.498 . S
C191 C58 1.717 . S
C196 C78 1.714 . S
C201 C19 1.511 . S
C206 C109 1.500 . S
C211 C9 1.241 . S
C216 C89 1.242 . S
C221 C99 1.510 . S
C226 C49 1.494 . S
C231 C119 1.716 . S
C236 C59 1.719 . S
C241 C138 1.510 . S
C246 C108 1.497 . S
C251 C88 1.241 . S
C256 C128 1.242 . S
C261 C148 1.497 . S
C266 C98 1.511 . S
C271 C118 1.717 . S
C276 C158 1.717 . S
C281 C69 1.496 . S
C286 C139 1.509 . S
C291 C129 1.241 . S
C296 C29 1.241 . S
C301 C39 1.511 . S
C306 C149 1.496 . S
C311 C79 1.717 . S
C316 C159 1.717 . S
C321 C1 1.441 1_565 S
C326 C2 1.441 1_545 S
C331 C21 1.438 . S
C336 C22 1.438 . S
C341 C41 1.516 . S
C346 C42 1.516 . S
C351 C62 1.517 . S
C356 C61 1.517 . S
C361 C81 1.441 . S
C366 C82 1.441 . S
C371 C102 1.517 . S
C376 C101 1.517 . S
C381 C122 1.438 . S
C386 C121 1.438 . S
C391 C142 1.518 . S
C396 C141 1.518 . S
