# Generated by pormake.
# Topology irl, (4)-cn, num edge types: 1
# Building blocks:
#     Node 0, Type 0, BuildingBlock: CEKHIL_clean_sbu_0, # of connection points: 4
#     Node 1, Type 0, BuildingBlock: CEKHIL_clean_sbu_0, # of connection points: 4
#     Node 2, Type 0, BuildingBlock: CEKHIL_clean_sbu_0, # of connection points: 4
#     Node 3, Type 0, BuildingBlock: CEKHIL_clean_sbu_0, # of connection points: 4
#     Node 4, Type 0, BuildingBlock: CEKHIL_clean_sbu_0, # of connection points: 4
#     Node 5, Type 0, BuildingBlock: CEKHIL_clean_sbu_0, # of connection points: 4
#     Node 6, Type 0, BuildingBlock: CEKHIL_clean_sbu_0, # of connection points: 4
#     Node 7, Type 0, BuildingBlock: CEKHIL_clean_sbu_0, # of connection points: 4
#     Edge 8, Type (0, 0), BuildingBlock: FUNLAD_clean_linker_0, # of connection points: 2
#     Edge 9, Type (0, 0), BuildingBlock: FUNLAD_clean_linker_0, # of connection points: 2
#     Edge 10, Type (0, 0), BuildingBlock: FUNLAD_clean_linker_0, # of connection points: 2
#     Edge 11, Type (0, 0), BuildingBlock: FUNLAD_clean_linker_0, # of connection points: 2
#     Edge 12, Type (0, 0), BuildingBlock: FUNLAD_clean_linker_0, # of connection points: 2
#     Edge 13, Type (0, 0), BuildingBlock: FUNLAD_clean_linker_0, # of connection points: 2
#     Edge 14, Type (0, 0), BuildingBlock: FUNLAD_clean_linker_0, # of connection points: 2
#     Edge 15, Type (0, 0), BuildingBlock: FUNLAD_clean_linker_0, # of connection points: 2
#     Edge 16, Type (0, 0), BuildingBlock: FUNLAD_clean_linker_0, # of connection points: 2
#     Edge 17, Type (0, 0), BuildingBlock: FUNLAD_clean_linker_0, # of connection points: 2
#     Edge 18, Type (0, 0), BuildingBlock: FUNLAD_clean_linker_0, # of connection points: 2
#     Edge 19, Type (0, 0), BuildingBlock: FUNLAD_clean_linker_0, # of connection points: 2
#     Edge 20, Type (0, 0), BuildingBlock: FUNLAD_clean_linker_0, # of connection points: 2
#     Edge 21, Type (0, 0), BuildingBlock: FUNLAD_clean_linker_0, # of connection points: 2
#     Edge 22, Type (0, 0), BuildingBlock: FUNLAD_clean_linker_0, # of connection points: 2
#     Edge 23, Type (0, 0), BuildingBlock: FUNLAD_clean_linker_0, # of connection points: 2
# Relax obj value: 0.066
# Max RMSD: 0.130
# Mean RMSD: 0.130
data_MOF--net-irl--node1-CEKHIL_clean_sbu_0--edge1-FUNLAD_clean_linker_0
_symmetry_space_group_name_H-M    P1
_symmetry_Int_Tables_number       1
_symmetry_cell_setting            triclinic
loop_
_symmetry_equiv_pos_as_xyz
'x, y, z'
_cell_length_a     38.003796
_cell_length_b     52.949134
_cell_length_c     32.472062
_cell_angle_alpha  89.949061
_cell_angle_beta   90.108679
_cell_angle_gamma 89.902723
loop_
_atom_site_label
_atom_site_type_symbol
_atom_site_fract_x
_atom_site_fract_y
_atom_site_fract_z
_atom_type_partial_charge
Co0 Co 0.06561 0.17181 0.98672 0.0
O1 O 0.08909 0.20357 0.98119 0.0
O2 O 0.11177 0.17034 0.01294 0.0
C3 C 0.0474 0.16903 0.92105 0.0
O4 O 0.04806 0.13563 -0.0036 0.0
Co5 Co 0.98473 0.1716 0.9754 0.0
O6 O 0.99156 0.13449 0.97536 0.0
C7 C 0.01434 0.19145 0.052 0.0
C8 C 0.11505 0.19387 0.00167 0.0
C9 C 0.01943 0.12348 0.98803 0.0
O10 O 0.04461 0.18361 0.04003 0.0
O11 O 0.98673 0.1901 0.02947 0.0
O12 O 0.07911 0.16223 0.93122 0.0
O13 O 0.02935 0.17989 0.94981 0.0
Co14 Co 0.93099 0.84239 0.987 0.0
O15 O 0.9091 0.81042 0.97773 0.0
O16 O 0.8832 0.84249 0.009 0.0
C17 C 0.95303 0.84673 0.92341 0.0
O18 O 0.94677 0.87862 -0.00016 0.0
Co19 Co 0.01212 0.84359 0.98322 0.0
O20 O 0.0048 0.88059 0.98597 0.0
C21 C 0.9785 0.82292 0.05667 0.0
C22 C 0.88157 0.81915 -0.00374 0.0
C23 C 0.97581 0.89108 -0.00412 0.0
O24 O 0.94883 0.82999 0.04164 0.0
O25 O 0.00748 0.825 0.03696 0.0
O26 O 0.9207 0.85309 0.93111 0.0
O27 O 0.9696 0.83529 0.9529 0.0
Co28 Co 0.06058 0.83662 0.49538 0.0
O29 O 0.08507 0.80506 0.49726 0.0
O30 O 0.10676 0.8399 0.46961 0.0
C31 C 0.04289 0.83627 0.56124 0.0
O32 O 0.04132 0.87281 0.48986 0.0
Co33 Co 0.97998 0.83445 0.50689 0.0
O34 O 0.98568 0.87142 0.51358 0.0
C35 C 0.00996 0.81833 0.42832 0.0
C36 C 0.11065 0.81596 0.47804 0.0
C37 C 0.01254 0.88376 0.50149 0.0
O38 O 0.03981 0.8266 0.44094 0.0
O39 O 0.98247 0.81808 0.45103 0.0
O40 O 0.07409 0.84426 0.55162 0.0
O41 O 0.02507 0.82611 0.53156 0.0
Co42 Co 0.93822 0.16505 0.49211 0.0
O43 O 0.91563 0.1969 0.501 0.0
O44 O 0.89013 0.16432 0.47082 0.0
C45 C 0.96131 0.16153 0.55565 0.0
O46 O 0.95475 0.12886 0.47972 0.0
Co47 Co 0.01959 0.16489 0.49474 0.0
O48 O 0.01349 0.12787 0.49007 0.0
C49 C 0.9842 0.18514 0.42189 0.0
C50 C 0.88805 0.18773 0.48311 0.0
C51 C 0.98446 0.11696 0.4817 0.0
O52 O 0.95505 0.17723 0.43698 0.0
O53 O 0.0134 0.18383 0.44149 0.0
O54 O 0.92898 0.1549 0.5485 0.0
O55 O 0.97717 0.17266 0.52544 0.0
Co56 Co 0.56582 0.66752 0.0015 0.0
O57 O 0.58952 0.69933 -0.00011 0.0
O58 O 0.61256 0.66439 0.02604 0.0
C59 C 0.54675 0.66846 0.93608 0.0
O60 O 0.54765 0.63111 0.00669 0.0
Co61 Co 0.48495 0.66871 0.99162 0.0
O62 O 0.4914 0.6318 0.98467 0.0
C63 C 0.51608 0.68488 0.06975 0.0
C64 C 0.61572 0.68845 0.01818 0.0
C65 C 0.51893 0.6198 -0.00409 0.0
O66 O 0.54589 0.67683 0.05663 0.0
O67 O 0.48829 0.68508 0.04741 0.0
O68 O 0.57829 0.66058 0.94469 0.0
O69 O 0.52932 0.67803 0.96652 0.0
Co70 Co 0.43514 0.33813 0.9932 0.0
O71 O 0.41423 0.30525 -0.00595 0.0
O72 O 0.39036 0.33917 0.02229 0.0
C73 C 0.44895 0.33779 0.92593 0.0
O74 O 0.44982 0.3754 -0.00361 0.0
Co75 Co 0.51469 0.34204 0.97457 0.0
O76 O 0.50245 0.37797 0.96473 0.0
C77 C 0.49213 0.32507 0.05643 0.0
C78 C 0.38836 0.31507 0.01437 0.0
C79 C 0.47518 0.38824 0.98023 0.0
O80 O 0.46027 0.33015 0.04606 0.0
O81 O 0.51808 0.32711 0.03155 0.0
O82 O 0.41754 0.34402 0.93789 0.0
O83 O 0.46982 0.32954 0.95454 0.0
Co84 Co 0.56862 0.33684 0.49758 0.0
O85 O 0.59075 0.30435 0.4979 0.0
O86 O 0.61396 0.33841 0.46947 0.0
C87 C 0.55365 0.3369 0.56455 0.0
O88 O 0.55203 0.37374 0.49326 0.0
Co89 Co 0.48844 0.33792 0.51395 0.0
O90 O 0.49663 0.37477 0.51781 0.0
C91 C 0.5136 0.32224 0.43269 0.0
C92 C 0.61654 0.31436 0.47779 0.0
C93 C 0.52412 0.3859 0.50461 0.0
O94 O 0.54485 0.32821 0.44412 0.0
O95 O 0.48712 0.32303 0.45696 0.0
O96 O 0.58502 0.34353 0.55312 0.0
O97 O 0.53382 0.32774 0.53576 0.0
Co98 Co 0.43085 0.66705 0.51018 0.0
O99 O 0.40826 0.69909 0.51653 0.0
O100 O 0.38368 0.66622 0.48612 0.0
C101 C 0.45104 0.66417 0.57489 0.0
O102 O 0.44772 0.63065 0.50018 0.0
Co103 Co 0.51194 0.66648 0.51802 0.0
O104 O 0.50448 0.62948 0.52026 0.0
C105 C 0.48029 0.68517 0.44172 0.0
C106 C 0.38139 0.68983 0.49734 0.0
C107 C 0.4764 0.61844 0.50851 0.0
O108 O 0.45022 0.67839 0.45577 0.0
O109 O 0.50869 0.68358 0.46281 0.0
O110 O 0.419 0.65752 0.5662 0.0
O111 O 0.46826 0.67507 0.5455 0.0
C112 C 0.009 0.93084 0.01026 0.0
C113 C 0.97662 0.91883 0.00265 0.0
C114 C 0.0112 0.95708 0.01342 0.0
C115 C 0.98103 0.97222 0.0085 0.0
C116 C 0.94838 0.96016 0.00252 0.0
C117 C 0.94614 0.93376 -0.00032 0.0
C118 C 0.98243 1.00046 0.00897 0.0
C119 C 0.01229 0.01413 0.00448 0.0
C120 C 0.0132 0.04228 0.00188 0.0
C121 C 0.04496 0.05505 0.0099 0.0
C122 C 0.04722 0.0814 0.00589 0.0
C123 C 0.01778 0.09556 0.99334 0.0
H124 H 0.95918 0.04754 0.98135 0.0
C125 C 0.98608 0.08269 0.98522 0.0
C126 C 0.98382 0.05649 0.98928 0.0
H127 H 0.96279 0.09281 0.97519 0.0
H128 H 0.03298 0.91992 0.01358 0.0
H129 H 0.03672 0.96516 0.01971 0.0
H130 H 0.92456 0.97124 -0.00092 0.0
H131 H 0.92079 0.92513 -0.00609 0.0
H132 H 0.95746 0.01022 0.01203 0.0
H133 H 0.03745 0.00462 0.00193 0.0
H134 H 0.06817 0.0446 0.01924 0.0
H135 H 0.07207 0.09059 0.01228 0.0
C136 C 0.03178 0.92716 0.47735 0.0
C137 C 0.00904 0.91178 0.50047 0.0
C138 C 0.02612 0.95339 0.47499 0.0
C139 C 0.99761 0.96474 0.49591 0.0
C140 C 0.97572 0.94934 0.51984 0.0
C141 C 0.9812 0.92333 0.52198 0.0
C142 C 0.98989 0.99242 0.49499 0.0
C143 C 0.00259 0.00871 0.46681 0.0
C144 C 0.99547 0.0364 0.46824 0.0
C145 C 0.02144 0.05291 0.45376 0.0
C146 C 0.01709 0.07902 0.45703 0.0
C147 C 0.98626 0.08937 0.47406 0.0
H148 H 0.9428 0.03453 0.49412 0.0
C149 C 0.95926 0.07298 0.48646 0.0
C150 C 0.96389 0.04669 0.48382 0.0
H151 H 0.93522 0.08042 0.49962 0.0
H152 H 0.05354 0.91891 0.46056 0.0
H153 H 0.04431 0.96456 0.45709 0.0
H154 H 0.95386 0.95743 0.53672 0.0
H155 H 0.9633 0.91224 0.54055 0.0
H156 H 0.97267 0.99965 0.51893 0.0
H157 H 0.02033 1.00201 0.44307 0.0
H158 H 0.04577 0.04559 0.44112 0.0
H159 H 0.03826 0.09116 0.44677 0.0
C160 C 0.48819 0.57973 0.977 0.0
C161 C 0.51637 0.59176 -0.00279 0.0
C162 C 0.48366 0.55364 0.97957 0.0
C163 C 0.50727 0.53866 0.00233 0.0
C164 C 0.53548 0.55056 0.02262 0.0
C165 C 0.54022 0.57684 0.01981 0.0
C166 C 0.50217 0.51081 0.00617 0.0
C167 C 0.48701 0.49692 0.97617 0.0
C168 C 0.48226 0.4691 0.97842 0.0
C169 C 0.48527 0.455 0.94203 0.0
C170 C 0.48173 0.42877 0.94268 0.0
C171 C 0.47389 0.41609 0.9795 0.0
H172 H 0.47051 0.46695 0.0437 0.0
C173 C 0.46928 0.43016 0.01574 0.0
C174 C 0.47378 0.4565 0.01532 0.0
H175 H 0.46361 0.42072 0.04458 0.0
H176 H 0.46918 0.59051 0.95935 0.0
H177 H 0.46103 0.5454 0.96444 0.0
H178 H 0.55395 0.5395 0.04063 0.0
H179 H 0.56202 0.58548 0.03601 0.0
H180 H 0.51256 0.50142 0.03337 0.0
H181 H 0.48 0.50595 0.94724 0.0
H182 H 0.49139 0.46425 0.91314 0.0
H183 H 0.48558 0.41829 0.91438 0.0
C184 C 0.49204 0.42679 0.515 0.0
C185 C 0.52247 0.41397 0.50158 0.0
C186 C 0.48926 0.45301 0.51192 0.0
C187 C 0.51678 0.46733 0.49502 0.0
C188 C 0.54743 0.45466 0.48205 0.0
C189 C 0.55023 0.42826 0.48512 0.0
C190 C 0.51519 0.49549 0.49304 0.0
C191 C 0.48489 0.50898 0.49399 0.0
C192 C 0.48343 0.53714 0.49636 0.0
C193 C 0.45221 0.54991 0.48547 0.0
C194 C 0.44956 0.57628 0.48919 0.0
C195 C 0.47808 0.59045 0.50418 0.0
H196 H 0.53581 0.5424 0.52196 0.0
C197 C 0.50914 0.57754 0.51537 0.0
C198 C 0.51175 0.55136 0.5117 0.0
H199 H 0.53165 0.58762 0.52751 0.0
H200 H 0.47011 0.41661 0.52826 0.0
H201 H 0.46572 0.46189 0.52376 0.0
H202 H 0.56931 0.46521 0.46944 0.0
H203 H 0.57407 0.41911 0.47457 0.0
H204 H 0.54012 0.50531 0.49033 0.0
H205 H 0.45987 0.49917 0.49267 0.0
H206 H 0.42975 0.53944 0.47408 0.0
H207 H 0.42522 0.5855 0.4804 0.0
C208 C 0.9786 0.20464 0.11348 0.0
C209 C 0.01152 0.20112 0.09468 0.0
C210 C 0.97646 0.2109 0.15527 0.0
C211 C 0.00727 0.21369 0.17905 0.0
C212 C 0.04003 0.21185 0.15952 0.0
C213 C 0.04219 0.20553 0.11792 0.0
C214 C 0.0067 0.21691 0.22451 0.0
C215 C 0.98039 0.20817 0.24828 0.0
C216 C 0.98242 0.20613 0.29387 0.0
C217 C 0.95102 0.20298 0.31586 0.0
C218 C 0.95166 0.19734 0.35782 0.0
C219 C 0.98384 0.19449 0.37885 0.0
H220 H 0.03956 0.20606 0.2994 0.0
C221 C 0.01532 0.19874 0.35732 0.0
C222 C 0.01467 0.20441 0.31523 0.0
H223 H 0.04055 0.19662 0.37251 0.0
H224 H 0.95447 0.20177 0.09633 0.0
H225 H 0.95066 0.21315 0.16878 0.0
H226 H 0.06417 0.21422 0.17691 0.0
H227 H 0.06803 0.20342 0.10432 0.0
H228 H 0.03021 0.22451 0.23886 0.0
H229 H 0.95686 0.2006 0.23392 0.0
H230 H 0.92584 0.20412 0.30025 0.0
H231 H 0.92682 0.19441 0.37342 0.0
C232 C 0.97495 0.80536 0.36599 0.0
C233 C 0.00763 0.80967 0.38503 0.0
C234 C 0.97317 0.7994 0.32404 0.0
C235 C 0.00411 0.79771 0.30033 0.0
C236 C 0.03673 0.80059 0.31997 0.0
C237 C 0.03851 0.8066 0.36171 0.0
C238 C 0.00378 0.7943 0.25489 0.0
C239 C 0.97675 0.80169 0.23087 0.0
C240 C 0.97856 0.80326 0.18521 0.0
C241 C 0.94693 0.80484 0.16306 0.0
C242 C 0.94707 0.80996 0.12091 0.0
C243 C 0.97894 0.81385 0.09986 0.0
H244 H 0.0356 0.80555 0.17976 0.0
C245 C 0.01074 0.81112 0.12157 0.0
C246 C 0.01059 0.80599 0.16385 0.0
H247 H 0.03574 0.8141 0.10638 0.0
H248 H 0.95068 0.80721 0.38318 0.0
H249 H 0.94753 0.79639 0.31043 0.0
H250 H 0.06099 0.7991 0.30264 0.0
H251 H 0.06422 0.80936 0.37545 0.0
H252 H 0.02788 0.78755 0.24076 0.0
H253 H 0.9526 0.80836 0.24498 0.0
H254 H 0.9219 0.80289 0.17866 0.0
H255 H 0.92202 0.81172 0.10518 0.0
C256 C 0.04645 0.85375 0.63217 0.0
C257 C 0.03006 0.83747 0.60394 0.0
C258 C 0.03642 0.8538 0.67346 0.0
C259 C 0.01 0.83736 0.68739 0.0
C260 C 0.99346 0.8212 0.65912 0.0
C261 C 0.00308 0.82147 0.61757 0.0
C262 C 0.00062 0.83589 0.73154 0.0
C263 C 0.00086 0.8562 0.75635 0.0
C264 C 0.99077 0.85441 0.80014 0.0
C265 C 0.96814 0.87262 0.81682 0.0
C266 C 0.95644 0.87037 0.85738 0.0
C267 C 0.9682 0.85035 0.88225 0.0
H268 H 0.02135 0.82073 0.81324 0.0
C269 C 0.99238 0.83288 0.86629 0.0
C270 C 0.00329 0.83472 0.82531 0.0
H271 H 0.00174 0.81727 0.88494 0.0
H272 H 0.06739 0.86625 0.62246 0.0
H273 H 0.0502 0.86611 0.69463 0.0
H274 H 0.97315 0.80828 0.66926 0.0
H275 H 0.99021 0.80862 0.59643 0.0
H276 H 0.99176 0.81781 0.74354 0.0
H277 H 0.00594 0.87484 0.74369 0.0
H278 H 0.95849 0.88807 0.798 0.0
H279 H 0.93791 0.88414 0.86919 0.0
C280 C 0.05536 0.15441 0.84869 0.0
C281 C 0.03384 0.16545 0.87887 0.0
C282 C 0.04345 0.15189 0.80823 0.0
C283 C 0.00974 0.16052 0.79704 0.0
C284 C 0.98785 0.17086 0.82753 0.0
C285 C -0.00018 0.17342 0.86805 0.0
C286 C 0.99635 0.15862 0.75418 0.0
C287 C 0.01748 0.15812 0.72086 0.0
C288 C 0.00364 0.1574 0.6781 0.0
C289 C 0.02362 0.16803 0.64612 0.0
C290 C 0.0104 0.16884 0.60589 0.0
C291 C 0.97708 0.15881 0.59696 0.0
H292 H 0.95547 0.13707 0.69211 0.0
C293 C 0.95785 0.14713 0.62856 0.0
C294 C 0.971 0.14634 0.66866 0.0
H295 H 0.93228 0.13889 0.62249 0.0
H296 H 0.08159 0.1478 0.85623 0.0
H297 H 0.06064 0.14298 0.78603 0.0
H298 H 0.9616 0.17737 0.81984 0.0
H299 H 0.98258 0.18185 0.89075 0.0
H300 H 0.968 0.15928 0.75001 0.0
H301 H 0.04573 0.16006 0.72467 0.0
H302 H 0.04909 0.17634 0.65248 0.0
H303 H 0.0259 0.1778 0.58206 0.0
C304 C 0.48166 0.69906 0.13168 0.0
C305 C 0.51412 0.69341 0.11314 0.0
C306 C 0.48002 0.70523 0.17352 0.0
C307 C 0.51085 0.70574 0.19769 0.0
C308 C 0.54335 0.70141 0.1786 0.0
C309 C 0.545 0.69522 0.13692 0.0
C310 C 0.51038 0.70953 0.24303 0.0
C311 C 0.48259 0.70343 0.26666 0.0
C312 C 0.48354 0.7025 0.3124 0.0
C313 C 0.45146 0.70194 0.33361 0.0
C314 C 0.4506 0.69755 0.37594 0.0
C315 C 0.4819 0.6934 0.39815 0.0
H316 H 0.54037 0.69916 0.31977 0.0
C317 C 0.5142 0.69511 0.37736 0.0
C318 C 0.51506 0.69949 0.33488 0.0
H319 H 0.53878 0.6919 0.39349 0.0
H320 H 0.45743 0.69822 0.11413 0.0
H321 H 0.45454 0.70939 0.18668 0.0
H322 H 0.56754 0.70196 0.1963 0.0
H323 H 0.57057 0.69139 0.12359 0.0
H324 H 0.53475 0.71553 0.25742 0.0
H325 H 0.45825 0.69742 0.25218 0.0
H326 H 0.4268 0.70415 0.31716 0.0
H327 H 0.4252 0.69659 0.39096 0.0
C328 C 0.53711 0.31426 0.36189 0.0
C329 C 0.50813 0.31581 0.38869 0.0
C330 C 0.53221 0.311 0.31962 0.0
C331 C 0.49809 0.30898 0.30301 0.0
C332 C 0.46921 0.30961 0.32999 0.0
C333 C 0.47412 0.3129 0.37235 0.0
C334 C 0.49124 0.30849 0.25785 0.0
C335 C 0.51592 0.30363 0.22903 0.0
C336 C 0.50949 0.30684 0.18412 0.0
C337 C 0.53811 0.31221 0.1582 0.0
C338 C 0.53279 0.31745 0.1164 0.0
C339 C 0.49867 0.31736 0.09966 0.0
H340 H 0.45301 0.30021 0.18516 0.0
C341 C 0.47027 0.31073 0.12518 0.0
C342 C 0.4756 0.30538 0.16681 0.0
H343 H 0.44369 0.3099 0.11313 0.0
H344 H 0.56374 0.31637 0.37332 0.0
H345 H 0.55531 0.31117 0.3003 0.0
H346 H 0.44261 0.30819 0.31815 0.0
H347 H 0.45119 0.31398 0.39203 0.0
H348 H 0.46483 0.31362 0.24821 0.0
H349 H 0.54247 0.29867 0.23825 0.0
H350 H 0.56457 0.31315 0.17059 0.0
H351 H 0.55528 0.32231 0.09757 0.0
C352 C 0.49233 0.33069 0.86908 0.0
C353 C 0.45909 0.33898 0.88214 0.0
C354 C 0.50095 0.33078 0.82721 0.0
C355 C 0.47648 0.33938 0.79765 0.0
C356 C 0.44334 0.3477 0.81091 0.0
C357 C 0.43477 0.34761 0.85267 0.0
C358 C 0.48391 0.3391 0.75274 0.0
C359 C 0.51664 0.33983 0.73706 0.0
C360 C 0.5243 0.33977 0.6922 0.0
C361 C 0.55696 0.34898 0.67901 0.0
C362 C 0.56603 0.34848 0.63744 0.0
C363 C 0.54272 0.33854 0.60804 0.0
H364 H 0.47571 0.322 0.67165 0.0
C365 C 0.50988 0.32943 0.62096 0.0
C366 C 0.50076 0.32993 0.6627 0.0
H367 H 0.49152 0.32149 0.59897 0.0
H368 H 0.51148 0.32372 0.89111 0.0
H369 H 0.52641 0.32349 0.81824 0.0
H370 H 0.42393 0.35428 0.78887 0.0
H371 H 0.40887 0.35407 0.86176 0.0
H372 H 0.46142 0.33957 0.73208 0.0
H373 H 0.53895 0.34173 0.75775 0.0
H374 H 0.57567 0.35654 0.701 0.0
H375 H 0.59159 0.35562 0.62846 0.0
C376 C 0.54893 0.65227 0.86423 0.0
C377 C 0.53315 0.66806 0.89362 0.0
C378 C 0.53807 0.65305 0.82319 0.0
C379 C 0.51147 0.66987 0.81071 0.0
C380 C 0.49557 0.68556 0.84013 0.0
C381 C 0.50598 0.68444 0.88141 0.0
C382 C 0.50119 0.67221 0.76691 0.0
C383 C 0.50028 0.65229 0.74132 0.0
C384 C 0.48934 0.65491 0.69789 0.0
C385 C 0.46586 0.63735 0.68105 0.0
C386 C 0.45372 0.64024 0.64072 0.0
C387 C 0.46586 0.66027 0.61623 0.0
H388 H 0.52071 0.68821 0.68536 0.0
C389 C 0.49067 0.67717 0.63239 0.0
C390 C 0.50203 0.6747 0.67316 0.0
H391 H 0.50036 0.69275 0.614 0.0
H392 H 0.57001 0.63951 0.87286 0.0
H393 H 0.55133 0.64107 0.80108 0.0
H394 H 0.47513 0.69876 0.83111 0.0
H395 H 0.49359 0.69693 0.90346 0.0
H396 H 0.4926 0.69062 0.75589 0.0
H397 H 0.50511 0.63338 0.75313 0.0
H398 H 0.45604 0.62184 0.69953 0.0
H399 H 0.43475 0.62688 0.62873 0.0
C400 C 0.32613 0.30965 0.03963 0.0
C401 C 0.35809 0.29913 0.02639 0.0
C402 C 0.29682 0.29413 0.04658 0.0
C403 C 0.29907 0.26779 0.04037 0.0
C404 C 0.33165 0.25731 0.0295 0.0
C405 C 0.36069 0.27275 0.02236 0.0
C406 C 0.2681 0.25061 0.04283 0.0
C407 C 0.2349 0.25839 0.03559 0.0
C408 C 0.20445 0.24105 0.02943 0.0
C409 C 0.17479 0.25066 0.00898 0.0
C410 C 0.1461 0.23522 0.00022 0.0
C411 C 0.14602 0.20966 0.01193 0.0
H412 H 0.22609 0.20744 0.0589 0.0
C413 C 0.17523 0.19997 0.03335 0.0
C414 C 0.20422 0.21552 0.04211 0.0
H415 H 0.17574 0.18043 0.04321 0.0
H416 H 0.32346 0.32988 0.04345 0.0
H417 H 0.27251 0.30289 0.05637 0.0
H418 H 0.33437 0.23713 0.02495 0.0
H419 H 0.38509 0.26395 0.01275 0.0
H420 H 0.27354 0.23057 0.04581 0.0
H421 H 0.23015 0.27828 0.02962 0.0
H422 H 0.17398 0.27019 -0.00101 0.0
H423 H 0.12395 0.24345 0.98398 0.0
C424 C 0.68081 0.69328 0.03068 0.0
C425 C 0.64681 0.70362 0.02962 0.0
C426 C 0.71011 0.70906 0.0361 0.0
C427 C 0.70566 0.73536 0.04107 0.0
C428 C 0.67149 0.74524 0.04272 0.0
C429 C 0.64245 0.72964 0.03659 0.0
C430 C 0.73574 0.75329 0.04288 0.0
C431 C 0.76539 0.74969 0.02102 0.0
C432 C 0.79451 0.76842 0.01669 0.0
C433 C 0.82416 0.761 -0.00592 0.0
C434 C 0.85191 0.77765 0.98743 0.0
C435 C 0.85096 0.80236 0.00318 0.0
H436 H 0.77107 0.80007 0.0499 0.0
C437 C 0.82142 0.81005 0.02588 0.0
C438 C 0.79339 0.79326 0.0326 0.0
H439 H 0.81999 0.82895 0.0385 0.0
H440 H 0.68483 0.67326 0.02561 0.0
H441 H 0.73612 0.70071 0.0359 0.0
H442 H 0.66726 0.76532 0.04697 0.0
H443 H 0.61646 0.73809 0.0365 0.0
H444 H 0.7316 0.77079 0.05945 0.0
H445 H 0.76799 0.73231 0.00349 0.0
H446 H 0.82592 0.74216 0.98124 0.0
H447 H 0.87424 0.77098 0.96981 0.0
C448 C 0.1753 0.81176 0.46189 0.0
C449 C 0.14186 0.8009 0.4663 0.0
C450 C 0.20494 0.79631 0.45582 0.0
C451 C 0.20139 0.7698 0.45362 0.0
C452 C 0.16763 0.7593 0.45542 0.0
C453 C 0.1383 0.7746 0.4621 0.0
C454 C 0.23203 0.75229 0.45117 0.0
C455 C 0.2631 0.75736 0.46935 0.0
C456 C 0.29301 0.73917 0.47357 0.0
C457 C 0.32399 0.74808 0.49196 0.0
C458 C 0.35232 0.73196 0.49927 0.0
C459 C 0.35068 0.70629 0.48839 0.0
H460 H 0.26807 0.7055 0.44809 0.0
C461 C 0.32001 0.69719 0.46937 0.0
C462 C 0.29136 0.71344 0.46207 0.0
H463 H 0.318 0.67753 0.46056 0.0
H464 H 0.17872 0.83199 0.4647 0.0
H465 H 0.2305 0.80514 0.45327 0.0
H466 H 0.16402 0.73904 0.45335 0.0
H467 H 0.11276 0.76569 0.46475 0.0
H468 H 0.22742 0.73394 0.43746 0.0
H469 H 0.26641 0.77563 0.48407 0.0
H470 H 0.32627 0.76767 0.50124 0.0
H471 H 0.37557 0.73977 0.51377 0.0
C472 C 0.67983 0.30888 0.45596 0.0
C473 C 0.64696 0.29847 0.46587 0.0
C474 C 0.70898 0.29306 0.44919 0.0
C475 C 0.70558 0.26655 0.45206 0.0
C476 C 0.67223 0.25634 0.45964 0.0
C477 C 0.6434 0.27204 0.46676 0.0
C478 C 0.73598 0.24881 0.44899 0.0
C479 C 0.76905 0.25527 0.45953 0.0
C480 C 0.79886 0.23702 0.46389 0.0
C481 C 0.82862 0.24501 0.48584 0.0
C482 C 0.85705 0.22881 0.49216 0.0
C483 C 0.85677 0.20405 0.47652 0.0
H484 H 0.77656 0.20538 0.42982 0.0
C485 C 0.82725 0.19591 0.45412 0.0
C486 C 0.79855 0.21225 0.44772 0.0
H487 H 0.82644 0.17705 0.44128 0.0
H488 H 0.68327 0.32916 0.45471 0.0
H489 H 0.73404 0.30167 0.44208 0.0
H490 H 0.66863 0.23607 0.46157 0.0
H491 H 0.6183 0.26337 0.47373 0.0
H492 H 0.72996 0.22922 0.4423 0.0
H493 H 0.77413 0.27458 0.46905 0.0
H494 H 0.82983 0.26389 0.49862 0.0
H495 H 0.87938 0.23585 0.50944 0.0
loop_
_geom_bond_atom_site_label_1
_geom_bond_atom_site_label_2
_geom_bond_distance
_geom_bond_site_symmetry_2
_ccdc_geom_bond_type
Co0 O1 2.216 . S
Co0 O2 2.091 1_556 S
Co0 O4 2.004 . S
Co0 O10 2.021 1_556 S
Co0 O12 2.137 . S
Co0 O13 2.244 . S
O1 Co0 2.216 . S
O1 C8 1.247 1_556 S
O2 Co0 2.091 1_554 S
O2 C8 1.261 . S
C3 O12 1.247 . S
C3 O13 1.272 . S
O4 Co0 2.004 . S
O4 C9 1.263 . S
Co5 O6 2.064 . S
Co5 O11 2.058 . S
Co5 O13 2.131 1_654 S
O6 Co5 2.064 . S
O6 C9 1.229 1_654 S
C7 O10 1.238 . S
C7 O11 1.241 1_455 S
C8 O1 1.247 1_554 S
C8 O2 1.261 . S
C9 O4 1.263 . S
C9 O6 1.229 1_456 S
O10 Co0 2.021 1_554 S
O10 C7 1.238 . S
O11 Co5 2.058 . S
O11 C7 1.241 1_655 S
O12 Co0 2.137 . S
O12 C3 1.247 . S
O13 Co0 2.244 . S
O13 C3 1.272 . S
O13 Co5 2.131 1_456 S
Co14 O15 2.216 . S
Co14 O16 2.091 1_556 S
Co14 O18 2.004 . S
Co14 O24 2.021 1_556 S
Co14 O26 2.137 . S
Co14 O27 2.244 . S
O15 Co14 2.216 . S
O15 C22 1.247 1_556 S
O16 Co14 2.091 1_554 S
O16 C22 1.261 . S
C17 O26 1.247 . S
C17 O27 1.272 . S
O18 Co14 2.004 . S
O18 C23 1.263 . S
Co19 O20 2.064 . S
Co19 O25 2.058 . S
Co19 O27 2.131 1_454 S
O20 Co19 2.064 . S
O20 C23 1.229 1_454 S
C21 O24 1.238 . S
C21 O25 1.241 1_655 S
C22 O15 1.247 1_554 S
C22 O16 1.261 . S
C23 O18 1.263 . S
C23 O20 1.229 1_656 S
O24 Co14 2.021 1_554 S
O24 C21 1.238 . S
O25 Co19 2.058 . S
O25 C21 1.241 1_455 S
O26 Co14 2.137 . S
O26 C17 1.247 . S
O27 Co14 2.244 . S
O27 C17 1.272 . S
O27 Co19 2.131 1_656 S
Co28 O29 2.216 . S
Co28 O30 2.091 . S
Co28 O32 2.004 . S
Co28 O38 2.021 . S
Co28 O40 2.137 . S
Co28 O41 2.244 . S
O29 Co28 2.216 . S
O29 C36 1.247 . S
O30 Co28 2.091 . S
O30 C36 1.261 . S
C31 O40 1.247 . S
C31 O41 1.272 . S
O32 Co28 2.004 . S
O32 C37 1.259 . S
Co33 O34 2.064 . S
Co33 O39 2.052 . S
Co33 O41 2.135 1_655 S
O34 Co33 2.064 . S
O34 C37 1.231 1_655 S
C35 O38 1.238 . S
C35 O39 1.241 1_455 S
C36 O29 1.247 . S
C36 O30 1.261 . S
C37 O32 1.259 . S
C37 O34 1.231 1_455 S
O38 Co28 2.021 . S
O38 C35 1.238 . S
O39 Co33 2.052 . S
O39 C35 1.241 1_655 S
O40 Co28 2.137 . S
O40 C31 1.247 . S
O41 Co28 2.244 . S
O41 C31 1.272 . S
O41 Co33 2.135 1_455 S
Co42 O43 2.216 . S
Co42 O44 2.091 . S
Co42 O46 2.004 . S
Co42 O52 2.021 . S
Co42 O54 2.137 . S
Co42 O55 2.244 . S
O43 Co42 2.216 . S
O43 C50 1.247 . S
O44 Co42 2.091 . S
O44 C50 1.261 . S
C45 O54 1.247 . S
C45 O55 1.272 . S
O46 Co42 2.004 . S
O46 C51 1.259 . S
Co47 O48 2.064 . S
Co47 O53 2.052 . S
Co47 O55 2.135 1_455 S
O48 Co47 2.064 . S
O48 C51 1.231 1_455 S
C49 O52 1.238 . S
C49 O53 1.241 1_655 S
C50 O43 1.247 . S
C50 O44 1.261 . S
C51 O46 1.259 . S
C51 O48 1.231 1_655 S
O52 Co42 2.021 . S
O52 C49 1.238 . S
O53 Co47 2.052 . S
O53 C49 1.241 1_455 S
O54 Co42 2.137 . S
O54 C45 1.247 . S
O55 Co42 2.244 . S
O55 C45 1.272 . S
O55 Co47 2.135 1_655 S
Co56 O57 2.216 . S
Co56 O58 2.091 1_556 S
Co56 O60 2.004 . S
Co56 O66 2.021 1_556 S
Co56 O68 2.137 . S
Co56 O69 2.244 . S
O57 Co56 2.216 . S
O57 C64 1.247 1_556 S
O58 Co56 2.091 1_554 S
O58 C64 1.261 . S
C59 O68 1.247 . S
C59 O69 1.272 . S
O60 Co56 2.004 . S
O60 C65 1.263 . S
Co61 O62 2.062 . S
Co61 O67 2.058 . S
Co61 O69 2.131 1_554 S
O62 Co61 2.062 . S
O62 C65 1.233 1_554 S
C63 O66 1.238 . S
C63 O67 1.241 . S
C64 O57 1.247 1_554 S
C64 O58 1.261 . S
C65 O60 1.263 . S
C65 O62 1.233 1_556 S
O66 Co56 2.021 1_554 S
O66 C63 1.238 . S
O67 Co61 2.058 . S
O67 C63 1.241 . S
O68 Co56 2.137 . S
O68 C59 1.247 . S
O69 Co56 2.244 . S
O69 C59 1.272 . S
O69 Co61 2.131 1_556 S
Co70 O71 2.216 . S
Co70 O72 2.091 1_556 S
Co70 O74 2.004 . S
Co70 O80 2.021 1_556 S
Co70 O82 2.137 . S
Co70 O83 2.244 . S
O71 Co70 2.216 . S
O71 C78 1.247 1_556 S
O72 Co70 2.091 1_554 S
O72 C78 1.261 . S
C73 O82 1.247 . S
C73 O83 1.272 . S
O74 Co70 2.004 . S
O74 C79 1.263 . S
Co75 O76 2.062 . S
Co75 O81 2.058 . S
Co75 O83 2.131 1_554 S
O76 Co75 2.062 . S
O76 C79 1.233 1_554 S
C77 O80 1.238 . S
C77 O81 1.241 . S
C78 O71 1.247 1_554 S
C78 O72 1.261 . S
C79 O74 1.263 . S
C79 O76 1.233 1_556 S
O80 Co70 2.021 1_554 S
O80 C77 1.238 . S
O81 Co75 2.058 . S
O81 C77 1.241 . S
O82 Co70 2.137 . S
O82 C73 1.247 . S
O83 Co70 2.244 . S
O83 C73 1.272 . S
O83 Co75 2.131 1_556 S
Co84 O85 2.216 . S
Co84 O86 2.091 . S
Co84 O88 2.004 . S
Co84 O94 2.021 . S
Co84 O96 2.137 . S
Co84 O97 2.244 . S
O85 Co84 2.216 . S
O85 C92 1.247 . S
O86 Co84 2.091 . S
O86 C92 1.261 . S
C87 O96 1.247 . S
C87 O97 1.272 . S
O88 Co84 2.004 . S
O88 C93 1.259 . S
Co89 O90 2.061 . S
Co89 O95 2.052 . S
Co89 O97 2.135 . S
O90 Co89 2.061 . S
O90 C93 1.235 . S
C91 O94 1.238 . S
C91 O95 1.241 . S
C92 O85 1.247 . S
C92 O86 1.261 . S
C93 O88 1.259 . S
C93 O90 1.235 . S
O94 Co84 2.021 . S
O94 C91 1.238 . S
O95 Co89 2.052 . S
O95 C91 1.241 . S
O96 Co84 2.137 . S
O96 C87 1.247 . S
O97 Co84 2.244 . S
O97 C87 1.272 . S
O97 Co89 2.135 . S
Co98 O99 2.216 . S
Co98 O100 2.091 . S
Co98 O102 2.004 . S
Co98 O108 2.021 . S
Co98 O110 2.137 . S
Co98 O111 2.244 . S
O99 Co98 2.216 . S
O99 C106 1.247 . S
O100 Co98 2.091 . S
O100 C106 1.261 . S
C101 O110 1.247 . S
C101 O111 1.272 . S
O102 Co98 2.004 . S
O102 C107 1.259 . S
Co103 O104 2.061 . S
Co103 O109 2.052 . S
Co103 O111 2.135 . S
O104 Co103 2.061 . S
O104 C107 1.235 . S
C105 O108 1.238 . S
C105 O109 1.241 . S
C106 O99 1.247 . S
C106 O100 1.261 . S
C107 O102 1.259 . S
C107 O104 1.235 . S
O108 Co98 2.021 . S
O108 C105 1.238 . S
O109 Co103 2.052 . S
O109 C105 1.241 . S
O110 Co98 2.137 . S
O110 C101 1.247 . S
O111 Co98 2.244 . S
O111 C101 1.272 . S
O111 Co103 2.135 . S
C112 C113 1.386 1_554 S
C112 C114 1.383 . S
C112 H128 0.951 . S
C113 C112 1.386 1_556 S
C113 C117 1.383 . S
C114 C112 1.383 . S
C114 C115 1.402 1_554 S
C114 H129 0.951 . S
C115 C114 1.402 1_556 S
C115 C116 1.375 . S
C115 C118 1.481 1_655 S
C116 C115 1.375 . S
C116 C117 1.367 . S
C116 H130 0.951 . S
C117 C113 1.383 . S
C117 C116 1.367 . S
C117 H131 0.950 . S
C118 C115 1.481 1_455 S
C118 C119 1.297 1_566 S
C118 H132 0.950 . S
C119 C118 1.297 1_544 S
C119 C120 1.479 . S
C119 H133 0.935 1_545 S
C120 C119 1.479 . S
C120 C121 1.375 . S
C120 C126 1.404 1_554 S
C121 C120 1.375 . S
C121 C122 1.369 . S
C121 H134 0.950 . S
C122 C121 1.369 . S
C122 C123 1.392 . S
C122 H135 0.951 . S
C123 C122 1.392 . S
C123 C125 1.384 1_554 S
H124 C126 0.949 . S
C125 C123 1.384 1_556 S
C125 C126 1.385 . S
C125 H127 0.950 . S
C126 C120 1.404 1_556 S
C126 H124 0.949 . S
C126 C125 1.385 . S
H127 C125 0.950 . S
H128 C112 0.951 . S
H129 C114 0.951 . S
H130 C116 0.951 . S
H131 C117 0.950 . S
H132 C118 0.950 . S
H133 C119 0.935 1_565 S
H134 C121 0.950 . S
H135 C122 0.951 . S
C136 C137 1.386 . S
C136 C138 1.383 . S
C136 H152 0.951 . S
C137 C136 1.386 . S
C137 C141 1.383 1_455 S
C138 C136 1.383 . S
C138 C139 1.402 1_455 S
C138 H153 0.951 . S
C139 C138 1.402 1_655 S
C139 C140 1.375 . S
C139 C142 1.481 . S
C140 C139 1.375 . S
C140 C141 1.367 . S
C140 H154 0.951 . S
C141 C137 1.383 1_655 S
C141 C140 1.367 . S
C141 H155 0.950 . S
C142 C139 1.481 . S
C142 C143 1.297 1_565 S
C142 H156 0.950 . S
C143 C142 1.297 1_545 S
C143 C144 1.479 . S
C143 H157 0.950 1_655 S
C144 C143 1.479 . S
C144 C145 1.375 1_655 S
C144 C150 1.404 . S
C145 C144 1.375 1_455 S
C145 C146 1.369 1_455 S
C145 H158 0.950 . S
C146 C145 1.369 1_655 S
C146 C147 1.392 . S
C146 H159 0.951 1_655 S
C147 C146 1.392 . S
C147 C149 1.384 . S
H148 C150 0.949 . S
C149 C147 1.384 . S
C149 C150 1.385 . S
C149 H151 0.950 . S
C150 C144 1.404 . S
C150 H148 0.949 . S
C150 C149 1.385 . S
H151 C149 0.950 . S
H152 C136 0.951 . S
H153 C138 0.951 . S
H154 C140 0.951 . S
H155 C141 0.950 . S
H156 C142 0.950 . S
H157 C143 0.950 1_455 S
H158 C145 0.950 . S
H159 C146 0.951 1_455 S
C160 C161 1.386 1_556 S
C160 C162 1.383 . S
C160 H176 0.951 . S
C161 C160 1.386 1_554 S
C161 C165 1.383 . S
C162 C160 1.383 . S
C162 C163 1.402 1_556 S
C162 H177 0.951 . S
C163 C162 1.402 1_554 S
C163 C164 1.375 . S
C163 C166 1.481 . S
C164 C163 1.375 . S
C164 C165 1.367 . S
C164 H178 0.951 . S
C165 C161 1.383 . S
C165 C164 1.367 . S
C165 H179 0.950 . S
C166 C163 1.481 . S
C166 C167 1.297 1_554 S
C166 H180 0.950 . S
C167 C166 1.297 1_556 S
C167 C168 1.479 . S
C167 H181 0.950 . S
C168 C167 1.479 . S
C168 C169 1.375 . S
C168 C174 1.404 1_556 S
C169 C168 1.375 . S
C169 C170 1.369 . S
C169 H182 0.950 . S
C170 C169 1.369 . S
C170 C171 1.392 . S
C170 H183 0.951 . S
C171 C170 1.392 . S
C171 C173 1.384 1_556 S
H172 C174 0.949 . S
C173 C171 1.384 1_554 S
C173 C174 1.385 . S
C173 H175 0.950 . S
C174 C168 1.404 1_554 S
C174 H172 0.949 . S
C174 C173 1.385 . S
H175 C173 0.950 . S
H176 C160 0.951 . S
H177 C162 0.951 . S
H178 C164 0.951 . S
H179 C165 0.950 . S
H180 C166 0.950 . S
H181 C167 0.950 . S
H182 C169 0.950 . S
H183 C170 0.951 . S
C184 C185 1.386 . S
C184 C186 1.383 . S
C184 H200 0.951 . S
C185 C184 1.386 . S
C185 C189 1.383 . S
C186 C184 1.383 . S
C186 C187 1.402 . S
C186 H201 0.951 . S
C187 C186 1.402 . S
C187 C188 1.375 . S
C187 C190 1.481 . S
C188 C187 1.375 . S
C188 C189 1.367 . S
C188 H202 0.951 . S
C189 C185 1.383 . S
C189 C188 1.367 . S
C189 H203 0.950 . S
C190 C187 1.481 . S
C190 C191 1.297 . S
C190 H204 0.950 . S
C191 C190 1.297 . S
C191 C192 1.479 . S
C191 H205 0.950 . S
C192 C191 1.479 . S
C192 C193 1.375 . S
C192 C198 1.404 . S
C193 C192 1.375 . S
C193 C194 1.369 . S
C193 H206 0.950 . S
C194 C193 1.369 . S
C194 C195 1.392 . S
C194 H207 0.951 . S
C195 C194 1.392 . S
C195 C197 1.384 . S
H196 C198 0.949 . S
C197 C195 1.384 . S
C197 C198 1.385 . S
C197 H199 0.950 . S
C198 C192 1.404 . S
C198 H196 0.949 . S
C198 C197 1.385 . S
H199 C197 0.950 . S
H200 C184 0.951 . S
H201 C186 0.951 . S
H202 C188 0.951 . S
H203 C189 0.950 . S
H204 C190 0.950 . S
H205 C191 0.950 . S
H206 C193 0.950 . S
H207 C194 0.951 . S
C208 C209 1.386 . S
C208 C210 1.383 . S
C208 H224 0.951 . S
C209 C208 1.386 . S
C209 C213 1.383 . S
C210 C208 1.383 . S
C210 C211 1.402 . S
C210 H225 0.951 . S
C211 C210 1.402 . S
C211 C212 1.375 . S
C211 C214 1.481 . S
C212 C211 1.375 . S
C212 C213 1.367 . S
C212 H226 0.951 . S
C213 C209 1.383 . S
C213 C212 1.367 . S
C213 H227 0.950 . S
C214 C211 1.481 . S
C214 C215 1.297 . S
C214 H228 0.950 . S
C215 C214 1.297 . S
C215 C216 1.479 . S
C215 H229 0.950 . S
C216 C215 1.479 . S
C216 C217 1.375 1_455 S
C216 C222 1.404 . S
C217 C216 1.375 1_655 S
C217 C218 1.369 . S
C217 H230 0.950 . S
C218 C217 1.369 . S
C218 C219 1.392 . S
C218 H231 0.951 . S
C219 C218 1.392 . S
C219 C221 1.384 1_655 S
H220 C222 0.949 . S
C221 C219 1.384 1_455 S
C221 C222 1.385 . S
C221 H223 0.950 . S
C222 C216 1.404 . S
C222 H220 0.949 . S
C222 C221 1.385 . S
H223 C221 0.950 . S
H224 C208 0.951 . S
H225 C210 0.951 . S
H226 C212 0.951 . S
H227 C213 0.950 . S
H228 C214 0.950 . S
H229 C215 0.950 . S
H230 C217 0.950 . S
H231 C218 0.951 . S
C232 C233 1.386 . S
C232 C234 1.383 1_455 S
C232 H248 0.951 1_455 S
C233 C232 1.386 . S
C233 C237 1.383 . S
C234 C232 1.383 1_655 S
C234 C235 1.402 1_655 S
C234 H249 0.951 . S
C235 C234 1.402 1_455 S
C235 C236 1.375 . S
C235 C238 1.481 1_455 S
C236 C235 1.375 . S
C236 C237 1.367 . S
C236 H250 0.951 . S
C237 C233 1.383 . S
C237 C236 1.367 . S
C237 H251 0.950 . S
C238 C235 1.481 1_655 S
C238 C239 1.297 . S
C238 H252 0.950 1_655 S
C239 C238 1.297 . S
C239 C240 1.479 . S
C239 H253 0.950 . S
C240 C239 1.479 . S
C240 C241 1.375 . S
C240 C246 1.404 . S
C241 C240 1.375 . S
C241 C242 1.369 . S
C241 H254 0.950 . S
C242 C241 1.369 . S
C242 C243 1.392 . S
C242 H255 0.951 . S
C243 C242 1.392 . S
C243 C245 1.384 . S
H244 C246 0.949 . S
C245 C243 1.384 . S
C245 C246 1.385 . S
C245 H247 0.950 . S
C246 C240 1.404 . S
C246 H244 0.949 . S
C246 C245 1.385 . S
H247 C245 0.950 . S
H248 C232 0.951 1_655 S
H249 C234 0.951 . S
H250 C236 0.951 . S
H251 C237 0.950 . S
H252 C238 0.950 1_455 S
H253 C239 0.950 . S
H254 C241 0.950 . S
H255 C242 0.951 . S
C256 C257 1.386 . S
C256 C258 1.383 . S
C256 H272 0.951 . S
C257 C256 1.386 . S
C257 C261 1.383 . S
C258 C256 1.383 . S
C258 C259 1.402 1_455 S
C258 H273 0.949 1_455 S
C259 C258 1.402 1_655 S
C259 C260 1.372 1_655 S
C259 C262 1.481 . S
C260 C259 1.372 1_455 S
C260 C261 1.373 . S
C260 H274 0.949 1_455 S
C261 C257 1.383 . S
C261 C260 1.373 . S
C261 H275 0.950 . S
C262 C259 1.481 . S
C262 C263 1.297 . S
C262 H276 0.950 . S
C263 C262 1.297 . S
C263 C264 1.479 . S
C263 H277 0.950 . S
C264 C263 1.479 . S
C264 C265 1.375 . S
C264 C270 1.404 . S
C265 C264 1.375 . S
C265 C266 1.369 . S
C265 H278 0.950 . S
C266 C265 1.369 . S
C266 C267 1.392 . S
C266 H279 0.951 . S
C267 C266 1.392 . S
C267 C269 1.384 . S
H268 C270 0.949 . S
C269 C267 1.384 . S
C269 C270 1.385 . S
C269 H271 0.950 . S
C270 C264 1.404 . S
C270 H268 0.949 . S
C270 C269 1.385 . S
H271 C269 0.950 . S
H272 C256 0.951 . S
H273 C258 0.949 1_655 S
H274 C260 0.949 1_655 S
H275 C261 0.950 . S
H276 C262 0.950 . S
H277 C263 0.950 . S
H278 C265 0.950 . S
H279 C266 0.951 . S
C280 C281 1.386 . S
C280 C282 1.383 . S
C280 H296 0.951 . S
C281 C280 1.386 . S
C281 C285 1.383 1_455 S
C282 C280 1.383 . S
C282 C283 1.402 . S
C282 H297 0.951 . S
C283 C282 1.402 . S
C283 C284 1.375 1_455 S
C283 C286 1.486 . S
C284 C283 1.375 1_655 S
C284 C285 1.367 . S
C284 H298 0.951 . S
C285 C281 1.383 1_655 S
C285 C284 1.367 . S
C285 H299 0.950 . S
C286 C283 1.486 . S
C286 C287 1.312 . S
C286 H300 0.929 1_455 S
C287 C286 1.312 . S
C287 C288 1.479 . S
C287 H301 0.950 . S
C288 C287 1.479 . S
C288 C289 1.375 . S
C288 C294 1.404 1_455 S
C289 C288 1.375 . S
C289 C290 1.369 . S
C289 H302 0.950 . S
C290 C289 1.369 . S
C290 C291 1.392 1_455 S
C290 H303 0.951 . S
C291 C290 1.392 1_655 S
C291 C293 1.384 . S
H292 C294 0.949 . S
C293 C291 1.384 . S
C293 C294 1.385 . S
C293 H295 0.950 . S
C294 C288 1.404 1_655 S
C294 H292 0.949 . S
C294 C293 1.385 . S
H295 C293 0.950 . S
H296 C280 0.951 . S
H297 C282 0.951 . S
H298 C284 0.951 . S
H299 C285 0.950 . S
H300 C286 0.929 1_655 S
H301 C287 0.950 . S
H302 C289 0.950 . S
H303 C290 0.951 . S
C304 C305 1.386 . S
C304 C306 1.383 . S
C304 H320 0.951 . S
C305 C304 1.386 . S
C305 C309 1.383 . S
C306 C304 1.383 . S
C306 C307 1.402 . S
C306 H321 0.951 . S
C307 C306 1.402 . S
C307 C308 1.375 . S
C307 C310 1.481 . S
C308 C307 1.375 . S
C308 C309 1.367 . S
C308 H322 0.951 . S
C309 C305 1.383 . S
C309 C308 1.367 . S
C309 H323 0.950 . S
C310 C307 1.481 . S
C310 C311 1.297 . S
C310 H324 0.950 . S
C311 C310 1.297 . S
C311 C312 1.479 . S
C311 H325 0.950 . S
C312 C311 1.479 . S
C312 C313 1.375 . S
C312 C318 1.404 . S
C313 C312 1.375 . S
C313 C314 1.369 . S
C313 H326 0.950 . S
C314 C313 1.369 . S
C314 C315 1.392 . S
C314 H327 0.951 . S
C315 C314 1.392 . S
C315 C317 1.384 . S
H316 C318 0.949 . S
C317 C315 1.384 . S
C317 C318 1.385 . S
C317 H319 0.950 . S
C318 C312 1.404 . S
C318 H316 0.949 . S
C318 C317 1.385 . S
H319 C317 0.950 . S
H320 C304 0.951 . S
H321 C306 0.951 . S
H322 C308 0.951 . S
H323 C309 0.950 . S
H324 C310 0.950 . S
H325 C311 0.950 . S
H326 C313 0.950 . S
H327 C314 0.951 . S
C328 C329 1.386 . S
C328 C330 1.383 . S
C328 H344 0.951 . S
C329 C328 1.386 . S
C329 C333 1.383 . S
C330 C328 1.383 . S
C330 C331 1.402 . S
C330 H345 0.951 . S
C331 C330 1.402 . S
C331 C332 1.375 . S
C331 C334 1.481 . S
C332 C331 1.375 . S
C332 C333 1.367 . S
C332 H346 0.951 . S
C333 C329 1.383 . S
C333 C332 1.367 . S
C333 H347 0.950 . S
C334 C331 1.481 . S
C334 C335 1.297 . S
C334 H348 0.950 . S
C335 C334 1.297 . S
C335 C336 1.479 . S
C335 H349 0.950 . S
C336 C335 1.479 . S
C336 C337 1.375 . S
C336 C342 1.404 . S
C337 C336 1.375 . S
C337 C338 1.369 . S
C337 H350 0.950 . S
C338 C337 1.369 . S
C338 C339 1.392 . S
C338 H351 0.951 . S
C339 C338 1.392 . S
C339 C341 1.384 . S
H340 C342 0.949 . S
C341 C339 1.384 . S
C341 C342 1.385 . S
C341 H343 0.950 . S
C342 C336 1.404 . S
C342 H340 0.949 . S
C342 C341 1.385 . S
H343 C341 0.950 . S
H344 C328 0.951 . S
H345 C330 0.951 . S
H346 C332 0.951 . S
H347 C333 0.950 . S
H348 C334 0.950 . S
H349 C335 0.950 . S
H350 C337 0.950 . S
H351 C338 0.951 . S
C352 C353 1.386 . S
C352 C354 1.383 . S
C352 H368 0.951 . S
C353 C352 1.386 . S
C353 C357 1.383 . S
C354 C352 1.383 . S
C354 C355 1.402 . S
C354 H369 0.951 . S
C355 C354 1.402 . S
C355 C356 1.375 . S
C355 C358 1.481 . S
C356 C355 1.375 . S
C356 C357 1.367 . S
C356 H370 0.951 . S
C357 C353 1.383 . S
C357 C356 1.367 . S
C357 H371 0.950 . S
C358 C355 1.481 . S
C358 C359 1.297 . S
C358 H372 0.950 . S
C359 C358 1.297 . S
C359 C360 1.479 . S
C359 H373 0.950 . S
C360 C359 1.479 . S
C360 C361 1.375 . S
C360 C366 1.404 . S
C361 C360 1.375 . S
C361 C362 1.369 . S
C361 H374 0.950 . S
C362 C361 1.369 . S
C362 C363 1.392 . S
C362 H375 0.951 . S
C363 C362 1.392 . S
C363 C365 1.384 . S
H364 C366 0.949 . S
C365 C363 1.384 . S
C365 C366 1.385 . S
C365 H367 0.950 . S
C366 C360 1.404 . S
C366 H364 0.949 . S
C366 C365 1.385 . S
H367 C365 0.950 . S
H368 C352 0.951 . S
H369 C354 0.951 . S
H370 C356 0.951 . S
H371 C357 0.950 . S
H372 C358 0.950 . S
H373 C359 0.950 . S
H374 C361 0.950 . S
H375 C362 0.951 . S
C376 C377 1.386 . S
C376 C378 1.383 . S
C376 H392 0.951 . S
C377 C376 1.386 . S
C377 C381 1.383 . S
C378 C376 1.383 . S
C378 C379 1.402 . S
C378 H393 0.951 . S
C379 C378 1.402 . S
C379 C380 1.375 . S
C379 C382 1.481 . S
C380 C379 1.375 . S
C380 C381 1.367 . S
C380 H394 0.951 . S
C381 C377 1.383 . S
C381 C380 1.367 . S
C381 H395 0.950 . S
C382 C379 1.481 . S
C382 C383 1.297 . S
C382 H396 0.950 . S
C383 C382 1.297 . S
C383 C384 1.479 . S
C383 H397 0.950 . S
C384 C383 1.479 . S
C384 C385 1.375 . S
C384 C390 1.404 . S
C385 C384 1.375 . S
C385 C386 1.369 . S
C385 H398 0.950 . S
C386 C385 1.369 . S
C386 C387 1.392 . S
C386 H399 0.951 . S
C387 C386 1.392 . S
C387 C389 1.384 . S
H388 C390 0.949 . S
C389 C387 1.384 . S
C389 C390 1.385 . S
C389 H391 0.950 . S
C390 C384 1.404 . S
C390 H388 0.949 . S
C390 C389 1.385 . S
H391 C389 0.950 . S
H392 C376 0.951 . S
H393 C378 0.951 . S
H394 C380 0.951 . S
H395 C381 0.950 . S
H396 C382 0.950 . S
H397 C383 0.950 . S
H398 C385 0.950 . S
H399 C386 0.951 . S
C400 C401 1.386 1_556 S
C400 C402 1.383 . S
C400 H416 0.951 . S
C401 C400 1.386 1_554 S
C401 C405 1.383 . S
C402 C400 1.383 . S
C402 C403 1.402 . S
C402 H417 0.951 . S
C403 C402 1.402 . S
C403 C404 1.375 1_556 S
C403 C406 1.481 . S
C404 C403 1.375 1_554 S
C404 C405 1.367 . S
C404 H418 0.951 . S
C405 C401 1.383 . S
C405 C404 1.367 . S
C405 H419 0.950 . S
C406 C403 1.481 . S
C406 C407 1.297 . S
C406 H420 0.950 1_556 S
C407 C406 1.297 . S
C407 C408 1.479 . S
C407 H421 0.950 . S
C408 C407 1.479 . S
C408 C409 1.375 . S
C408 C414 1.404 . S
C409 C408 1.375 . S
C409 C410 1.369 . S
C409 H422 0.950 . S
C410 C409 1.369 . S
C410 C411 1.392 . S
C410 H423 0.951 . S
C411 C410 1.392 . S
C411 C413 1.384 1_556 S
H412 C414 0.948 1_554 S
C413 C411 1.384 1_554 S
C413 C414 1.385 1_554 S
C413 H415 0.950 . S
C414 C408 1.404 . S
C414 H412 0.948 1_556 S
C414 C413 1.385 1_556 S
H415 C413 0.950 . S
H416 C400 0.951 . S
H417 C402 0.951 . S
H418 C404 0.951 . S
H419 C405 0.950 . S
H420 C406 0.950 1_554 S
H421 C407 0.950 . S
H422 C409 0.950 . S
H423 C410 0.951 . S
C424 C425 1.386 1_556 S
C424 C426 1.383 . S
C424 H440 0.951 . S
C425 C424 1.386 1_554 S
C425 C429 1.383 . S
C426 C424 1.383 . S
C426 C427 1.402 1_556 S
C426 H441 0.951 . S
C427 C426 1.402 1_554 S
C427 C428 1.375 . S
C427 C430 1.481 . S
C428 C427 1.375 . S
C428 C429 1.367 . S
C428 H442 0.951 . S
C429 C425 1.383 . S
C429 C428 1.367 . S
C429 H443 0.950 . S
C430 C427 1.481 . S
C430 C431 1.297 1_554 S
C430 H444 0.950 . S
C431 C430 1.297 1_556 S
C431 C432 1.479 . S
C431 H445 0.950 . S
C432 C431 1.479 . S
C432 C433 1.375 . S
C432 C438 1.404 1_556 S
C433 C432 1.375 . S
C433 C434 1.369 . S
C433 H446 0.950 . S
C434 C433 1.369 . S
C434 C435 1.391 . S
C434 H447 0.951 . S
C435 C434 1.391 . S
C435 C437 1.385 1_556 S
H436 C438 0.949 . S
C437 C435 1.385 1_554 S
C437 C438 1.385 . S
C437 H439 0.950 . S
C438 C432 1.404 1_554 S
C438 H436 0.949 . S
C438 C437 1.385 . S
H439 C437 0.950 . S
H440 C424 0.951 . S
H441 C426 0.951 . S
H442 C428 0.951 . S
H443 C429 0.950 . S
H444 C430 0.950 . S
H445 C431 0.950 . S
H446 C433 0.950 . S
H447 C434 0.951 . S
C448 C449 1.386 . S
C448 C450 1.383 . S
C448 H464 0.951 . S
C449 C448 1.386 . S
C449 C453 1.383 . S
C450 C448 1.383 . S
C450 C451 1.402 . S
C450 H465 0.951 . S
C451 C450 1.402 . S
C451 C452 1.375 . S
C451 C454 1.481 . S
C452 C451 1.375 . S
C452 C453 1.367 . S
C452 H466 0.951 . S
C453 C449 1.383 . S
C453 C452 1.367 . S
C453 H467 0.950 . S
C454 C451 1.481 . S
C454 C455 1.297 . S
C454 H468 0.950 . S
C455 C454 1.297 . S
C455 C456 1.479 . S
C455 H469 0.950 . S
C456 C455 1.479 . S
C456 C457 1.375 . S
C456 C462 1.404 . S
C457 C456 1.375 . S
C457 C458 1.369 . S
C457 H470 0.950 . S
C458 C457 1.369 . S
C458 C459 1.392 . S
C458 H471 0.951 . S
C459 C458 1.392 . S
C459 C461 1.384 . S
H460 C462 0.949 . S
C461 C459 1.384 . S
C461 C462 1.385 . S
C461 H463 0.950 . S
C462 C456 1.404 . S
C462 H460 0.949 . S
C462 C461 1.385 . S
H463 C461 0.950 . S
H464 C448 0.951 . S
H465 C450 0.951 . S
H466 C452 0.951 . S
H467 C453 0.950 . S
H468 C454 0.950 . S
H469 C455 0.950 . S
H470 C457 0.950 . S
H471 C458 0.951 . S
C472 C473 1.386 . S
C472 C474 1.383 . S
C472 H488 0.951 . S
C473 C472 1.386 . S
C473 C477 1.383 . S
C474 C472 1.383 . S
C474 C475 1.402 . S
C474 H489 0.951 . S
C475 C474 1.402 . S
C475 C476 1.375 . S
C475 C478 1.481 . S
C476 C475 1.375 . S
C476 C477 1.367 . S
C476 H490 0.951 . S
C477 C473 1.383 . S
C477 C476 1.367 . S
C477 H491 0.950 . S
C478 C475 1.481 . S
C478 C479 1.297 . S
C478 H492 0.950 . S
C479 C478 1.297 . S
C479 C480 1.479 . S
C479 H493 0.950 . S
C480 C479 1.479 . S
C480 C481 1.375 . S
C480 C486 1.404 . S
C481 C480 1.375 . S
C481 C482 1.369 . S
C481 H494 0.950 . S
C482 C481 1.369 . S
C482 C483 1.392 . S
C482 H495 0.951 . S
C483 C482 1.392 . S
C483 C485 1.384 . S
H484 C486 0.949 . S
C485 C483 1.384 . S
C485 C486 1.385 . S
C485 H487 0.950 . S
C486 C480 1.404 . S
C486 H484 0.949 . S
C486 C485 1.385 . S
H487 C485 0.950 . S
H488 C472 0.951 . S
H489 C474 0.951 . S
H490 C476 0.951 . S
H491 C477 0.950 . S
H492 C478 0.950 . S
H493 C479 0.950 . S
H494 C481 0.950 . S
H495 C482 0.951 . S
C113 C23 1.467 . S
C123 C9 1.503 1_554 S
C137 C37 1.462 . S
C147 C51 1.494 . S
C161 C65 1.494 1_554 S
C171 C79 1.442 . S
C185 C93 1.480 . S
C195 C107 1.495 . S
C209 C7 1.227 . S
C219 C49 1.173 . S
C233 C35 1.181 . S
C243 C21 1.207 . S
C257 C31 1.228 . S
C267 C17 1.146 . S
C281 C3 1.181 . S
C291 C45 1.218 . S
C305 C63 1.185 . S
C315 C105 1.181 . S
C329 C91 1.232 . S
C339 C77 1.208 . S
C353 C73 1.199 . S
C363 C87 1.202 . S
C377 C59 1.223 . S
C387 C101 1.159 . S
C401 C78 1.508 . S
C411 C8 1.487 1_556 S
C425 C64 1.511 . S
C435 C22 1.483 1_556 S
C449 C36 1.501 . S
C459 C106 1.498 . S
C473 C92 1.501 . S
C483 C50 1.499 . S
