# Generated by pormake.
# Topology twf-e, (6)-cn, num edge types: 1
# Building blocks:
#     Node 0, Type 0, BuildingBlock: BETDEL_clean_sbu_0, # of connection points: 6
#     Node 1, Type 0, BuildingBlock: BETDEL_clean_sbu_0, # of connection points: 6
#     Node 2, Type 0, BuildingBlock: BETDEL_clean_sbu_0, # of connection points: 6
#     Node 3, Type 0, BuildingBlock: BETDEL_clean_sbu_0, # of connection points: 6
#     Node 4, Type 0, BuildingBlock: BETDEL_clean_sbu_0, # of connection points: 6
#     Node 5, Type 0, BuildingBlock: BETDEL_clean_sbu_0, # of connection points: 6
#     Node 6, Type 0, BuildingBlock: BETDEL_clean_sbu_0, # of connection points: 6
#     Node 7, Type 0, BuildingBlock: BETDEL_clean_sbu_0, # of connection points: 6
#     Node 8, Type 0, BuildingBlock: BETDEL_clean_sbu_0, # of connection points: 6
#     Node 9, Type 0, BuildingBlock: BETDEL_clean_sbu_0, # of connection points: 6
#     Node 10, Type 0, BuildingBlock: BETDEL_clean_sbu_0, # of connection points: 6
#     Node 11, Type 0, BuildingBlock: BETDEL_clean_sbu_0, # of connection points: 6
#     Node 12, Type 0, BuildingBlock: BETDEL_clean_sbu_0, # of connection points: 6
#     Node 13, Type 0, BuildingBlock: BETDEL_clean_sbu_0, # of connection points: 6
#     Node 14, Type 0, BuildingBlock: BETDEL_clean_sbu_0, # of connection points: 6
#     Node 15, Type 0, BuildingBlock: BETDEL_clean_sbu_0, # of connection points: 6
#     Node 16, Type 0, BuildingBlock: BETDEL_clean_sbu_0, # of connection points: 6
#     Node 17, Type 0, BuildingBlock: BETDEL_clean_sbu_0, # of connection points: 6
#     Node 18, Type 0, BuildingBlock: BETDEL_clean_sbu_0, # of connection points: 6
#     Node 19, Type 0, BuildingBlock: BETDEL_clean_sbu_0, # of connection points: 6
#     Node 20, Type 0, BuildingBlock: BETDEL_clean_sbu_0, # of connection points: 6
#     Node 21, Type 0, BuildingBlock: BETDEL_clean_sbu_0, # of connection points: 6
#     Node 22, Type 0, BuildingBlock: BETDEL_clean_sbu_0, # of connection points: 6
#     Node 23, Type 0, BuildingBlock: BETDEL_clean_sbu_0, # of connection points: 6
#     Node 24, Type 0, BuildingBlock: BETDEL_clean_sbu_0, # of connection points: 6
#     Node 25, Type 0, BuildingBlock: BETDEL_clean_sbu_0, # of connection points: 6
#     Node 26, Type 0, BuildingBlock: BETDEL_clean_sbu_0, # of connection points: 6
#     Node 27, Type 0, BuildingBlock: BETDEL_clean_sbu_0, # of connection points: 6
#     Node 28, Type 0, BuildingBlock: BETDEL_clean_sbu_0, # of connection points: 6
#     Node 29, Type 0, BuildingBlock: BETDEL_clean_sbu_0, # of connection points: 6
#     Node 30, Type 0, BuildingBlock: BETDEL_clean_sbu_0, # of connection points: 6
#     Node 31, Type 0, BuildingBlock: BETDEL_clean_sbu_0, # of connection points: 6
#     Node 32, Type 0, BuildingBlock: BETDEL_clean_sbu_0, # of connection points: 6
#     Node 33, Type 0, BuildingBlock: BETDEL_clean_sbu_0, # of connection points: 6
#     Node 34, Type 0, BuildingBlock: BETDEL_clean_sbu_0, # of connection points: 6
#     Node 35, Type 0, BuildingBlock: BETDEL_clean_sbu_0, # of connection points: 6
#     Node 36, Type 0, BuildingBlock: BETDEL_clean_sbu_0, # of connection points: 6
#     Node 37, Type 0, BuildingBlock: BETDEL_clean_sbu_0, # of connection points: 6
#     Node 38, Type 0, BuildingBlock: BETDEL_clean_sbu_0, # of connection points: 6
#     Node 39, Type 0, BuildingBlock: BETDEL_clean_sbu_0, # of connection points: 6
#     Node 40, Type 0, BuildingBlock: BETDEL_clean_sbu_0, # of connection points: 6
#     Node 41, Type 0, BuildingBlock: BETDEL_clean_sbu_0, # of connection points: 6
#     Node 42, Type 0, BuildingBlock: BETDEL_clean_sbu_0, # of connection points: 6
#     Node 43, Type 0, BuildingBlock: BETDEL_clean_sbu_0, # of connection points: 6
#     Node 44, Type 0, BuildingBlock: BETDEL_clean_sbu_0, # of connection points: 6
#     Node 45, Type 0, BuildingBlock: BETDEL_clean_sbu_0, # of connection points: 6
#     Node 46, Type 0, BuildingBlock: BETDEL_clean_sbu_0, # of connection points: 6
#     Node 47, Type 0, BuildingBlock: BETDEL_clean_sbu_0, # of connection points: 6
#     Edge 48, Type (0, 0), BuildingBlock: OJICUG_clean_linker_0, # of connection points: 2
#     Edge 49, Type (0, 0), BuildingBlock: OJICUG_clean_linker_0, # of connection points: 2
#     Edge 50, Type (0, 0), BuildingBlock: OJICUG_clean_linker_0, # of connection points: 2
#     Edge 51, Type (0, 0), BuildingBlock: OJICUG_clean_linker_0, # of connection points: 2
#     Edge 52, Type (0, 0), BuildingBlock: OJICUG_clean_linker_0, # of connection points: 2
#     Edge 53, Type (0, 0), BuildingBlock: OJICUG_clean_linker_0, # of connection points: 2
#     Edge 54, Type (0, 0), BuildingBlock: OJICUG_clean_linker_0, # of connection points: 2
#     Edge 55, Type (0, 0), BuildingBlock: OJICUG_clean_linker_0, # of connection points: 2
#     Edge 56, Type (0, 0), BuildingBlock: OJICUG_clean_linker_0, # of connection points: 2
#     Edge 57, Type (0, 0), BuildingBlock: OJICUG_clean_linker_0, # of connection points: 2
#     Edge 58, Type (0, 0), BuildingBlock: OJICUG_clean_linker_0, # of connection points: 2
#     Edge 59, Type (0, 0), BuildingBlock: OJICUG_clean_linker_0, # of connection points: 2
#     Edge 60, Type (0, 0), BuildingBlock: OJICUG_clean_linker_0, # of connection points: 2
#     Edge 61, Type (0, 0), BuildingBlock: OJICUG_clean_linker_0, # of connection points: 2
#     Edge 62, Type (0, 0), BuildingBlock: OJICUG_clean_linker_0, # of connection points: 2
#     Edge 63, Type (0, 0), BuildingBlock: OJICUG_clean_linker_0, # of connection points: 2
#     Edge 64, Type (0, 0), BuildingBlock: OJICUG_clean_linker_0, # of connection points: 2
#     Edge 65, Type (0, 0), BuildingBlock: OJICUG_clean_linker_0, # of connection points: 2
#     Edge 66, Type (0, 0), BuildingBlock: OJICUG_clean_linker_0, # of connection points: 2
#     Edge 67, Type (0, 0), BuildingBlock: OJICUG_clean_linker_0, # of connection points: 2
#     Edge 68, Type (0, 0), BuildingBlock: OJICUG_clean_linker_0, # of connection points: 2
#     Edge 69, Type (0, 0), BuildingBlock: OJICUG_clean_linker_0, # of connection points: 2
#     Edge 70, Type (0, 0), BuildingBlock: OJICUG_clean_linker_0, # of connection points: 2
#     Edge 71, Type (0, 0), BuildingBlock: OJICUG_clean_linker_0, # of connection points: 2
#     Edge 72, Type (0, 0), BuildingBlock: OJICUG_clean_linker_0, # of connection points: 2
#     Edge 73, Type (0, 0), BuildingBlock: OJICUG_clean_linker_0, # of connection points: 2
#     Edge 74, Type (0, 0), BuildingBlock: OJICUG_clean_linker_0, # of connection points: 2
#     Edge 75, Type (0, 0), BuildingBlock: OJICUG_clean_linker_0, # of connection points: 2
#     Edge 76, Type (0, 0), BuildingBlock: OJICUG_clean_linker_0, # of connection points: 2
#     Edge 77, Type (0, 0), BuildingBlock: OJICUG_clean_linker_0, # of connection points: 2
#     Edge 78, Type (0, 0), BuildingBlock: OJICUG_clean_linker_0, # of connection points: 2
#     Edge 79, Type (0, 0), BuildingBlock: OJICUG_clean_linker_0, # of connection points: 2
#     Edge 80, Type (0, 0), BuildingBlock: OJICUG_clean_linker_0, # of connection points: 2
#     Edge 81, Type (0, 0), BuildingBlock: OJICUG_clean_linker_0, # of connection points: 2
#     Edge 82, Type (0, 0), BuildingBlock: OJICUG_clean_linker_0, # of connection points: 2
#     Edge 83, Type (0, 0), BuildingBlock: OJICUG_clean_linker_0, # of connection points: 2
#     Edge 84, Type (0, 0), BuildingBlock: OJICUG_clean_linker_0, # of connection points: 2
#     Edge 85, Type (0, 0), BuildingBlock: OJICUG_clean_linker_0, # of connection points: 2
#     Edge 86, Type (0, 0), BuildingBlock: OJICUG_clean_linker_0, # of connection points: 2
#     Edge 87, Type (0, 0), BuildingBlock: OJICUG_clean_linker_0, # of connection points: 2
#     Edge 88, Type (0, 0), BuildingBlock: OJICUG_clean_linker_0, # of connection points: 2
#     Edge 89, Type (0, 0), BuildingBlock: OJICUG_clean_linker_0, # of connection points: 2
#     Edge 90, Type (0, 0), BuildingBlock: OJICUG_clean_linker_0, # of connection points: 2
#     Edge 91, Type (0, 0), BuildingBlock: OJICUG_clean_linker_0, # of connection points: 2
#     Edge 92, Type (0, 0), BuildingBlock: OJICUG_clean_linker_0, # of connection points: 2
#     Edge 93, Type (0, 0), BuildingBlock: OJICUG_clean_linker_0, # of connection points: 2
#     Edge 94, Type (0, 0), BuildingBlock: OJICUG_clean_linker_0, # of connection points: 2
#     Edge 95, Type (0, 0), BuildingBlock: OJICUG_clean_linker_0, # of connection points: 2
#     Edge 96, Type (0, 0), BuildingBlock: OJICUG_clean_linker_0, # of connection points: 2
#     Edge 97, Type (0, 0), BuildingBlock: OJICUG_clean_linker_0, # of connection points: 2
#     Edge 98, Type (0, 0), BuildingBlock: OJICUG_clean_linker_0, # of connection points: 2
#     Edge 99, Type (0, 0), BuildingBlock: OJICUG_clean_linker_0, # of connection points: 2
#     Edge 100, Type (0, 0), BuildingBlock: OJICUG_clean_linker_0, # of connection points: 2
#     Edge 101, Type (0, 0), BuildingBlock: OJICUG_clean_linker_0, # of connection points: 2
#     Edge 102, Type (0, 0), BuildingBlock: OJICUG_clean_linker_0, # of connection points: 2
#     Edge 103, Type (0, 0), BuildingBlock: OJICUG_clean_linker_0, # of connection points: 2
#     Edge 104, Type (0, 0), BuildingBlock: OJICUG_clean_linker_0, # of connection points: 2
#     Edge 105, Type (0, 0), BuildingBlock: OJICUG_clean_linker_0, # of connection points: 2
#     Edge 106, Type (0, 0), BuildingBlock: OJICUG_clean_linker_0, # of connection points: 2
#     Edge 107, Type (0, 0), BuildingBlock: OJICUG_clean_linker_0, # of connection points: 2
#     Edge 108, Type (0, 0), BuildingBlock: OJICUG_clean_linker_0, # of connection points: 2
#     Edge 109, Type (0, 0), BuildingBlock: OJICUG_clean_linker_0, # of connection points: 2
#     Edge 110, Type (0, 0), BuildingBlock: OJICUG_clean_linker_0, # of connection points: 2
#     Edge 111, Type (0, 0), BuildingBlock: OJICUG_clean_linker_0, # of connection points: 2
#     Edge 112, Type (0, 0), BuildingBlock: OJICUG_clean_linker_0, # of connection points: 2
#     Edge 113, Type (0, 0), BuildingBlock: OJICUG_clean_linker_0, # of connection points: 2
#     Edge 114, Type (0, 0), BuildingBlock: OJICUG_clean_linker_0, # of connection points: 2
#     Edge 115, Type (0, 0), BuildingBlock: OJICUG_clean_linker_0, # of connection points: 2
#     Edge 116, Type (0, 0), BuildingBlock: OJICUG_clean_linker_0, # of connection points: 2
#     Edge 117, Type (0, 0), BuildingBlock: OJICUG_clean_linker_0, # of connection points: 2
#     Edge 118, Type (0, 0), BuildingBlock: OJICUG_clean_linker_0, # of connection points: 2
#     Edge 119, Type (0, 0), BuildingBlock: OJICUG_clean_linker_0, # of connection points: 2
#     Edge 120, Type (0, 0), BuildingBlock: OJICUG_clean_linker_0, # of connection points: 2
#     Edge 121, Type (0, 0), BuildingBlock: OJICUG_clean_linker_0, # of connection points: 2
#     Edge 122, Type (0, 0), BuildingBlock: OJICUG_clean_linker_0, # of connection points: 2
#     Edge 123, Type (0, 0), BuildingBlock: OJICUG_clean_linker_0, # of connection points: 2
#     Edge 124, Type (0, 0), BuildingBlock: OJICUG_clean_linker_0, # of connection points: 2
#     Edge 125, Type (0, 0), BuildingBlock: OJICUG_clean_linker_0, # of connection points: 2
#     Edge 126, Type (0, 0), BuildingBlock: OJICUG_clean_linker_0, # of connection points: 2
#     Edge 127, Type (0, 0), BuildingBlock: OJICUG_clean_linker_0, # of connection points: 2
#     Edge 128, Type (0, 0), BuildingBlock: OJICUG_clean_linker_0, # of connection points: 2
#     Edge 129, Type (0, 0), BuildingBlock: OJICUG_clean_linker_0, # of connection points: 2
#     Edge 130, Type (0, 0), BuildingBlock: OJICUG_clean_linker_0, # of connection points: 2
#     Edge 131, Type (0, 0), BuildingBlock: OJICUG_clean_linker_0, # of connection points: 2
#     Edge 132, Type (0, 0), BuildingBlock: OJICUG_clean_linker_0, # of connection points: 2
#     Edge 133, Type (0, 0), BuildingBlock: OJICUG_clean_linker_0, # of connection points: 2
#     Edge 134, Type (0, 0), BuildingBlock: OJICUG_clean_linker_0, # of connection points: 2
#     Edge 135, Type (0, 0), BuildingBlock: OJICUG_clean_linker_0, # of connection points: 2
#     Edge 136, Type (0, 0), BuildingBlock: OJICUG_clean_linker_0, # of connection points: 2
#     Edge 137, Type (0, 0), BuildingBlock: OJICUG_clean_linker_0, # of connection points: 2
#     Edge 138, Type (0, 0), BuildingBlock: OJICUG_clean_linker_0, # of connection points: 2
#     Edge 139, Type (0, 0), BuildingBlock: OJICUG_clean_linker_0, # of connection points: 2
#     Edge 140, Type (0, 0), BuildingBlock: OJICUG_clean_linker_0, # of connection points: 2
#     Edge 141, Type (0, 0), BuildingBlock: OJICUG_clean_linker_0, # of connection points: 2
#     Edge 142, Type (0, 0), BuildingBlock: OJICUG_clean_linker_0, # of connection points: 2
#     Edge 143, Type (0, 0), BuildingBlock: OJICUG_clean_linker_0, # of connection points: 2
#     Edge 144, Type (0, 0), BuildingBlock: OJICUG_clean_linker_0, # of connection points: 2
#     Edge 145, Type (0, 0), BuildingBlock: OJICUG_clean_linker_0, # of connection points: 2
#     Edge 146, Type (0, 0), BuildingBlock: OJICUG_clean_linker_0, # of connection points: 2
#     Edge 147, Type (0, 0), BuildingBlock: OJICUG_clean_linker_0, # of connection points: 2
#     Edge 148, Type (0, 0), BuildingBlock: OJICUG_clean_linker_0, # of connection points: 2
#     Edge 149, Type (0, 0), BuildingBlock: OJICUG_clean_linker_0, # of connection points: 2
#     Edge 150, Type (0, 0), BuildingBlock: OJICUG_clean_linker_0, # of connection points: 2
#     Edge 151, Type (0, 0), BuildingBlock: OJICUG_clean_linker_0, # of connection points: 2
#     Edge 152, Type (0, 0), BuildingBlock: OJICUG_clean_linker_0, # of connection points: 2
#     Edge 153, Type (0, 0), BuildingBlock: OJICUG_clean_linker_0, # of connection points: 2
#     Edge 154, Type (0, 0), BuildingBlock: OJICUG_clean_linker_0, # of connection points: 2
#     Edge 155, Type (0, 0), BuildingBlock: OJICUG_clean_linker_0, # of connection points: 2
#     Edge 156, Type (0, 0), BuildingBlock: OJICUG_clean_linker_0, # of connection points: 2
#     Edge 157, Type (0, 0), BuildingBlock: OJICUG_clean_linker_0, # of connection points: 2
#     Edge 158, Type (0, 0), BuildingBlock: OJICUG_clean_linker_0, # of connection points: 2
#     Edge 159, Type (0, 0), BuildingBlock: OJICUG_clean_linker_0, # of connection points: 2
#     Edge 160, Type (0, 0), BuildingBlock: OJICUG_clean_linker_0, # of connection points: 2
#     Edge 161, Type (0, 0), BuildingBlock: OJICUG_clean_linker_0, # of connection points: 2
#     Edge 162, Type (0, 0), BuildingBlock: OJICUG_clean_linker_0, # of connection points: 2
#     Edge 163, Type (0, 0), BuildingBlock: OJICUG_clean_linker_0, # of connection points: 2
#     Edge 164, Type (0, 0), BuildingBlock: OJICUG_clean_linker_0, # of connection points: 2
#     Edge 165, Type (0, 0), BuildingBlock: OJICUG_clean_linker_0, # of connection points: 2
#     Edge 166, Type (0, 0), BuildingBlock: OJICUG_clean_linker_0, # of connection points: 2
#     Edge 167, Type (0, 0), BuildingBlock: OJICUG_clean_linker_0, # of connection points: 2
#     Edge 168, Type (0, 0), BuildingBlock: OJICUG_clean_linker_0, # of connection points: 2
#     Edge 169, Type (0, 0), BuildingBlock: OJICUG_clean_linker_0, # of connection points: 2
#     Edge 170, Type (0, 0), BuildingBlock: OJICUG_clean_linker_0, # of connection points: 2
#     Edge 171, Type (0, 0), BuildingBlock: OJICUG_clean_linker_0, # of connection points: 2
#     Edge 172, Type (0, 0), BuildingBlock: OJICUG_clean_linker_0, # of connection points: 2
#     Edge 173, Type (0, 0), BuildingBlock: OJICUG_clean_linker_0, # of connection points: 2
#     Edge 174, Type (0, 0), BuildingBlock: OJICUG_clean_linker_0, # of connection points: 2
#     Edge 175, Type (0, 0), BuildingBlock: OJICUG_clean_linker_0, # of connection points: 2
#     Edge 176, Type (0, 0), BuildingBlock: OJICUG_clean_linker_0, # of connection points: 2
#     Edge 177, Type (0, 0), BuildingBlock: OJICUG_clean_linker_0, # of connection points: 2
#     Edge 178, Type (0, 0), BuildingBlock: OJICUG_clean_linker_0, # of connection points: 2
#     Edge 179, Type (0, 0), BuildingBlock: OJICUG_clean_linker_0, # of connection points: 2
#     Edge 180, Type (0, 0), BuildingBlock: OJICUG_clean_linker_0, # of connection points: 2
#     Edge 181, Type (0, 0), BuildingBlock: OJICUG_clean_linker_0, # of connection points: 2
#     Edge 182, Type (0, 0), BuildingBlock: OJICUG_clean_linker_0, # of connection points: 2
#     Edge 183, Type (0, 0), BuildingBlock: OJICUG_clean_linker_0, # of connection points: 2
#     Edge 184, Type (0, 0), BuildingBlock: OJICUG_clean_linker_0, # of connection points: 2
#     Edge 185, Type (0, 0), BuildingBlock: OJICUG_clean_linker_0, # of connection points: 2
#     Edge 186, Type (0, 0), BuildingBlock: OJICUG_clean_linker_0, # of connection points: 2
#     Edge 187, Type (0, 0), BuildingBlock: OJICUG_clean_linker_0, # of connection points: 2
#     Edge 188, Type (0, 0), BuildingBlock: OJICUG_clean_linker_0, # of connection points: 2
#     Edge 189, Type (0, 0), BuildingBlock: OJICUG_clean_linker_0, # of connection points: 2
#     Edge 190, Type (0, 0), BuildingBlock: OJICUG_clean_linker_0, # of connection points: 2
#     Edge 191, Type (0, 0), BuildingBlock: OJICUG_clean_linker_0, # of connection points: 2
# Relax obj value: 0.678
# Max RMSD: 0.229
# Mean RMSD: 0.214
data_MOF--net-twf-e--node1-BETDEL_clean_sbu_0--edge1-OJICUG_clean_linker_0
_symmetry_space_group_name_H-M    P1
_symmetry_Int_Tables_number       1
_symmetry_cell_setting            triclinic
loop_
_symmetry_equiv_pos_as_xyz
'x, y, z'
_cell_length_a     44.841303
_cell_length_b     44.860077
_cell_length_c     44.818326
_cell_angle_alpha  88.987456
_cell_angle_beta   89.899755
_cell_angle_gamma 90.685643
loop_
_atom_site_label
_atom_site_type_symbol
_atom_site_fract_x
_atom_site_fract_y
_atom_site_fract_z
_atom_type_partial_charge
Dy0 Dy 0.01508 0.21371 0.40382 0.0
C1 C 0.11074 0.26807 0.3815 0.0
C2 C 0.96849 0.17405 0.39468 0.0
Dy3 Dy 0.0573 0.24393 0.39822 0.0
O4 O 0.96797 0.19665 0.41225 0.0
O5 O 0.99434 0.17331 0.38179 0.0
O6 O 1.00212 0.21863 0.45188 0.0
O7 O 0.04806 0.21863 0.44254 0.0
C8 C 0.02834 0.22075 0.46369 0.0
C9 C 0.03138 0.24881 0.34233 0.0
O10 O 0.08236 0.20444 0.41289 0.0
O11 O 0.04815 0.17882 0.38864 0.0
O12 O 0.10164 0.24139 0.37607 0.0
O13 O 0.09097 0.28138 0.39808 0.0
O14 O 0.05771 0.23913 0.34777 0.0
O15 O 0.01775 0.24865 0.36728 0.0
O16 O 0.99715 0.2595 0.3974 0.0
O17 O 0.03472 0.27907 0.42315 0.0
C18 C 0.07494 0.17976 0.40019 0.0
C19 C 1.00654 0.27996 0.41591 0.0
Dy20 Dy 0.85323 0.0179 0.40368 0.0
C21 C 0.77284 0.0945 0.40023 0.0
C22 C 0.89603 0.974 0.39794 0.0
Dy23 Dy 0.81358 0.0513 0.40455 0.0
O24 O 0.8677 0.96983 0.40105 0.0
O25 O 0.90134 1.00257 0.3974 0.0
O26 O 0.84706 1.00306 0.45268 0.0
O27 O 0.84303 0.04786 0.44423 0.0
C28 C 0.84249 0.02827 0.46518 0.0
C29 C 0.80144 0.02819 0.35079 0.0
O30 O 0.84975 0.08662 0.40131 0.0
O31 O 0.8852 0.05362 0.38952 0.0
O32 O 0.7978 0.09466 0.38599 0.0
O33 O 0.7713 0.07248 0.41945 0.0
O34 O 0.78253 0.03227 0.37181 0.0
O35 O 0.82843 0.03354 0.36058 0.0
O36 O 0.81902 0.98521 0.39194 0.0
O37 O 0.79364 1.00993 0.42582 0.0
C38 C 0.87736 0.0813 0.39327 0.0
C39 C 0.79739 0.98526 0.41097 0.0
Dy40 Dy 0.04521 0.85333 0.40195 0.0
C41 C 0.97855 0.76575 0.39476 0.0
C42 C 0.08388 0.90104 0.40063 0.0
Dy43 Dy 1.01372 0.81579 0.39871 0.0
O44 O 0.08475 0.87856 0.41881 0.0
O45 O 0.0609 0.89835 0.38334 0.0
O46 O 0.06089 0.84243 0.4494 0.0
O47 O 0.01531 0.83986 0.44243 0.0
C48 C 0.03561 0.83806 0.46283 0.0
C49 C 0.02787 0.81735 0.33985 0.0
O50 O 0.97855 0.85142 0.40578 0.0
O51 O 1.0106 0.88511 0.38752 0.0
O52 O 0.97569 0.79024 0.37983 0.0
O53 O 1.00037 0.76927 0.41359 0.0
O54 O 1.00116 0.81935 0.35014 0.0
O55 O 0.04584 0.82266 0.36135 0.0
O56 O 0.07973 0.82505 0.3835 0.0
O57 O 0.05658 0.79248 0.4129 0.0
C58 C 0.9835 0.87879 0.39581 0.0
C59 C 0.08146 0.80071 0.39922 0.0
Dy60 Dy 0.20955 0.04651 0.40065 0.0
C61 C 0.27505 0.98272 0.44697 0.0
C62 C 0.1655 0.08872 0.39579 0.0
Dy63 Dy 0.24336 0.01378 0.40711 0.0
O64 O 0.19296 0.09366 0.40337 0.0
O65 O 0.16202 0.0606 0.39045 0.0
O66 O 0.22508 0.06404 0.44694 0.0
O67 O 0.21186 0.02073 0.44445 0.0
C68 C 0.21869 0.04059 0.46318 0.0
C69 C 0.25863 0.01355 0.35001 0.0
O70 O 0.20688 0.97953 0.40271 0.0
O71 O 0.17478 0.01421 0.38746 0.0
O72 O 0.26272 0.97145 0.42351 0.0
O73 O 0.27638 1.01151 0.44369 0.0
O74 O 0.26905 0.99568 0.3704 0.0
O75 O 0.23748 0.03066 0.35989 0.0
O76 O 0.23969 0.07304 0.37237 0.0
O77 O 0.2706 0.05678 0.40684 0.0
C78 C 0.18028 0.98635 0.39304 0.0
C79 C 0.26517 0.07622 0.3853 0.0
Dy80 Dy 0.01666 0.85253 0.66098 0.0
C81 C 0.07632 0.76253 0.67179 0.0
C82 C 0.98087 0.90139 0.6633 0.0
Dy83 Dy 0.04531 0.81468 0.66541 0.0
O84 O 0.97797 0.87936 0.64554 0.0
O85 O 1.00448 0.8977 0.67951 0.0
O86 O 1.00105 0.84479 0.61318 0.0
O87 O 0.04603 0.83859 0.62071 0.0
C88 C 0.02586 0.83864 0.60013 0.0
C89 C 0.03097 0.81695 0.72386 0.0
O90 O 0.08307 0.84792 0.65637 0.0
O91 O 0.0537 0.88193 0.67567 0.0
O92 O 0.08285 0.78788 0.68329 0.0
O93 O 0.05216 0.76631 0.65615 0.0
O94 O 0.05769 0.82018 0.71368 0.0
O95 O 1.0132 0.82142 0.70201 0.0
O96 O 0.97974 0.82465 0.67761 0.0
O97 O 1.00259 0.79299 0.64884 0.0
C98 C 0.08025 0.87488 0.66686 0.0
C99 C 0.97771 0.80092 0.66182 0.0
Dy100 Dy 0.21572 1.01185 0.65995 0.0
C101 C 0.2897 0.0959 0.64205 0.0
C102 C 0.17309 0.96677 0.66493 0.0
Dy103 Dy 0.25214 0.05109 0.65893 0.0
O104 O 0.19899 0.96465 0.65245 0.0
O105 O 0.17041 0.99361 0.67492 0.0
O106 O 0.2246 0.99917 0.61127 0.0
O107 O 0.22231 0.0438 0.61994 0.0
C108 C 0.22557 0.02538 0.59876 0.0
C109 C 0.25244 0.04364 0.71855 0.0
O110 O 0.21222 0.0804 0.65471 0.0
O111 O 0.18214 0.04495 0.67445 0.0
O112 O 0.27558 0.09401 0.66701 0.0
O113 O 0.28762 0.07019 0.62931 0.0
O114 O 0.25167 0.06902 0.70461 0.0
O115 O 0.24665 0.02239 0.7001 0.0
O116 O 0.2518 0.98391 0.67792 0.0
O117 O 0.28538 0.01394 0.65508 0.0
C118 C 0.18626 0.07275 0.66609 0.0
C119 C 0.27923 0.98864 0.66911 0.0
Dy120 Dy 0.04863 0.20292 0.66163 0.0
C121 C 0.95962 0.26063 0.67256 0.0
C122 C 0.09213 0.16008 0.66701 0.0
Dy123 Dy 1.01344 0.23652 0.66308 0.0
O124 O 0.09661 0.1883 0.66258 0.0
O125 O 0.06366 0.15501 0.66878 0.0
O126 O 0.06483 0.21168 0.6137 0.0
O127 O 0.01929 0.21312 0.61985 0.0
C128 C 0.03988 0.21555 0.59997 0.0
C129 C 0.03572 0.25399 0.71486 0.0
O130 O 0.98185 0.19788 0.66794 0.0
O131 O 0.01824 0.16522 0.67483 0.0
O132 O 0.97067 0.23878 0.68764 0.0
O133 O 0.97772 0.26899 0.65094 0.0
O134 O 0.02633 0.27161 0.69386 0.0
O135 O 0.03596 0.2261 0.70622 0.0
O136 O 0.07975 0.23787 0.6745 0.0
O137 O 0.05089 0.26387 0.64357 0.0
C138 C 0.98988 0.17075 0.67433 0.0
C139 C 0.07663 0.261 0.65728 0.0
Dy140 Dy 0.82748 0.07637 0.66042 0.0
C141 C 0.88857 0.98785 0.67349 0.0
C142 C 0.8193 0.13003 0.63262 0.0
Dy143 Dy 0.85095 0.03407 0.66148 0.0
O144 O 0.84449 0.11976 0.6418 0.0
O145 O 0.79834 0.11294 0.64385 0.0
O146 O 0.79321 0.08131 0.69535 0.0
O147 O 0.82813 0.0495 0.70399 0.0
C148 C 0.80357 0.06119 0.71365 0.0
C149 C 0.84202 0.03856 0.60044 0.0
O150 O 0.80719 0.01557 0.67476 0.0
O151 O 0.79121 0.04871 0.64186 0.0
O152 O 0.86385 0.98597 0.65882 0.0
O153 O 0.89239 0.01484 0.68243 0.0
O154 O 0.83844 0.01477 0.6168 0.0
O155 O 0.84932 0.06003 0.61784 0.0
O156 O 0.86528 0.09701 0.68474 0.0
O157 O 0.89269 0.06214 0.66429 0.0
C158 C 0.78617 0.02373 0.65651 0.0
C159 C 0.89166 0.08732 0.6783 0.0
Dy160 Dy 0.40139 1.00554 0.20707 0.0
C161 C 0.42314 0.0684 0.2914 0.0
C162 C 0.39906 0.96982 0.15801 0.0
Dy163 Dy 0.40394 0.03363 0.24767 0.0
O164 O 0.41313 0.96438 0.18249 0.0
O165 O 0.38626 0.99554 0.15972 0.0
O166 O 0.44947 0.98987 0.21699 0.0
O167 O 0.44251 0.03478 0.21662 0.0
C168 C 0.46307 0.01542 0.21837 0.0
C169 C 0.34434 0.02888 0.24944 0.0
O170 O 0.40617 0.07145 0.21335 0.0
O171 O 0.3851 0.0427 0.17901 0.0
O172 O 0.39544 0.0633 0.28599 0.0
O173 O 0.43687 0.04467 0.28322 0.0
O174 O 0.35898 0.05377 0.25129 0.0
O175 O 0.36199 1.00833 0.24054 0.0
O176 O 0.3802 0.96913 0.23221 0.0
O177 O 0.41085 0.98681 0.26651 0.0
C178 C 0.39386 0.06908 0.18689 0.0
C179 C 0.39437 0.96448 0.25683 0.0
Dy180 Dy 0.03635 0.40627 0.20718 0.0
C181 C 0.93773 0.40361 0.22532 0.0
C182 C 0.07947 0.39452 0.16528 0.0
Dy183 Dy 0.99826 0.40028 0.22682 0.0
O184 O 0.08392 0.4093 0.18955 0.0
O185 O 0.05199 0.386 0.16419 0.0
O186 O 0.05494 0.45206 0.21847 0.0
O187 O 1.00843 0.44834 0.21435 0.0
C188 C 0.03016 0.46678 0.21859 0.0
C189 C 1.01206 0.34965 0.2545 0.0
O190 O 0.98749 0.37354 0.18584 0.0
O191 O 1.00977 0.41129 0.16508 0.0
O192 O 0.95545 0.41166 0.20398 0.0
O193 O 0.95325 0.39677 0.24881 0.0
O194 O 0.99154 0.36785 0.26303 0.0
O195 O 0.0259 0.3595 0.23021 0.0
O196 O 0.05947 0.39274 0.2477 0.0
O197 O 0.02183 0.41659 0.26791 0.0
C198 C 0.99158 0.38911 0.16148 0.0
C199 C 0.04779 0.40383 0.27142 0.0
Dy200 Dy 0.65897 0.04978 0.21167 0.0
C201 C 0.65048 0.95829 0.27918 0.0
C202 C 0.66367 0.09743 0.17241 0.0
Dy203 Dy 0.65992 1.0086 0.24593 0.0
O204 O 0.64534 0.09505 0.19455 0.0
O205 O 0.67952 0.07345 0.17124 0.0
O206 O 0.61033 0.06101 0.2212 0.0
O207 O 0.62001 0.01643 0.21684 0.0
C208 C 0.59849 0.03458 0.22116 0.0
C209 C 0.71867 0.02449 0.24829 0.0
O210 O 0.65549 0.98141 0.20467 0.0
O211 O 0.67283 0.01872 0.17559 0.0
O212 O 0.67462 0.96514 0.26514 0.0
O213 O 0.63571 0.98287 0.28175 0.0
O214 O 0.70856 0.99802 0.24351 0.0
O215 O 0.69686 0.04268 0.2456 0.0
O216 O 0.6723 0.07573 0.2506 0.0
O217 O 0.64378 0.04391 0.27691 0.0
C218 C 0.66533 0.99058 0.17859 0.0
C219 C 0.65565 0.07072 0.27399 0.0
Dy220 Dy 0.02235 0.66528 0.2045 0.0
C221 C 0.11537 0.64425 0.22982 0.0
C222 C 0.97771 0.67701 0.16383 0.0
Dy223 Dy 0.05917 0.66472 0.23095 0.0
O224 O 0.97513 0.66109 0.18794 0.0
O225 O 1.00499 0.68657 0.1615 0.0
O226 O 1.00173 0.61883 0.21461 0.0
O227 O 0.04746 0.62121 0.21027 0.0
C228 C 0.02572 0.60307 0.215 0.0
C229 C 0.04725 0.71557 0.25701 0.0
O230 O 0.0808 0.6952 0.19697 0.0
O231 O 0.05289 0.67137 0.16506 0.0
O232 O 0.09765 0.64541 0.20731 0.0
O233 O 0.10188 0.65319 0.25394 0.0
O234 O 0.0645 0.69495 0.26825 0.0
O235 O 0.03576 0.70824 0.23102 0.0
O236 O 0.99731 0.68102 0.24276 0.0
O237 O 0.0251 0.64645 0.26365 0.0
C238 C 0.07601 0.6885 0.16933 0.0
C239 C 1.00072 0.66238 0.26474 0.0
Dy240 Dy 0.40265 0.0656 0.8538 0.0
C241 C 0.40862 0.99964 0.75944 0.0
C242 C 0.39615 0.10437 0.90116 0.0
Dy243 Dy 0.40537 0.03193 0.81074 0.0
O244 O 0.40598 0.11093 0.87481 0.0
O245 O 0.38955 0.07607 0.90205 0.0
O246 O 0.45114 0.08128 0.84651 0.0
O247 O 0.44318 0.03656 0.84233 0.0
C248 C 0.46392 0.05627 0.84134 0.0
C249 C 0.34583 0.03713 0.81489 0.0
O250 O 0.40611 0.99609 0.8463 0.0
O251 O 0.38615 0.02672 0.88028 0.0
O252 O 0.39104 0.02145 0.76416 0.0
O253 O 0.42749 0.999 0.78133 0.0
O254 O 0.35984 1.01217 0.81623 0.0
O255 O 0.36484 0.05848 0.8194 0.0
O256 O 0.38533 0.09765 0.82113 0.0
O257 O 0.41934 0.0768 0.79225 0.0
C258 C 0.39412 0.99996 0.87274 0.0
C259 C 0.40303 0.10012 0.79835 0.0
Dy260 Dy 0.01793 0.39653 0.85095 0.0
C261 C 0.08287 0.39789 0.76245 0.0
C262 C 0.97598 0.39542 0.89571 0.0
Dy263 Dy 0.05075 0.39549 0.81454 0.0
O264 O 0.97412 0.40943 0.87051 0.0
O265 O 1.00139 0.38185 0.89713 0.0
O266 O 1.00127 0.44341 0.83984 0.0
O267 O 0.04691 0.43841 0.83956 0.0
C268 C 0.02617 0.45796 0.83718 0.0
C269 C 0.04149 0.33585 0.81677 0.0
O270 O 0.08532 0.40435 0.85007 0.0
O271 O 0.05379 0.38321 0.88276 0.0
O272 O 0.0909 0.38548 0.7873 0.0
O273 O 0.05718 0.41008 0.76689 0.0
O274 O 0.06718 0.3487 0.81909 0.0
O275 O 0.02137 0.35554 0.82088 0.0
O276 O 0.98507 0.37723 0.8205 0.0
O277 O 1.00896 0.40785 0.78956 0.0
C278 C 0.08074 0.39298 0.87689 0.0
C279 C 0.98447 0.39279 0.79594 0.0
Dy280 Dy 0.6579 0.01604 0.82159 0.0
C281 C 0.66552 0.08818 0.89963 0.0
C282 C 0.62597 0.978 0.78907 0.0
Dy283 Dy 0.66088 0.04803 0.85469 0.0
O284 O 0.64888 0.97068 0.80505 0.0
O285 O 0.62415 1.00681 0.78706 0.0
O286 O 0.69457 1.00803 0.79075 0.0
O287 O 0.70387 0.03568 0.82895 0.0
C288 C 0.71398 0.0247 0.80409 0.0
C289 C 0.59938 0.04625 0.84173 0.0
O290 O 0.68595 0.07873 0.82543 0.0
O291 O 0.65524 0.05773 0.79318 0.0
O292 O 0.65589 0.09371 0.873 0.0
O293 O 0.67305 0.06045 0.902 0.0
O294 O 0.61675 0.06941 0.83978 0.0
O295 O 0.61641 0.02435 0.8476 0.0
O296 O 0.66574 0.98002 0.85609 0.0
O297 O 0.66779 0.0143 0.89124 0.0
C298 C 0.67442 0.07916 0.79904 0.0
C299 C 0.66825 0.98624 0.88431 0.0
Dy300 Dy 0.03239 0.65703 0.85505 0.0
C301 C 0.94641 0.64366 0.79813 0.0
C302 C 0.06908 0.66499 0.90291 0.0
Dy303 Dy 1.00051 0.65594 0.82155 0.0
O304 O 0.07638 0.66985 0.87533 0.0
O305 O 0.04191 0.65513 0.90453 0.0
O306 O 0.05325 0.61116 0.84553 0.0
O307 O 1.00756 0.6127 0.84547 0.0
C308 C 0.02945 0.59489 0.8427 0.0
C309 C 0.01685 0.70954 0.80195 0.0
O310 O 0.96795 0.66872 0.85825 0.0
O311 O 1.00346 0.67006 0.89223 0.0
O312 O 0.95444 0.66869 0.80926 0.0
O313 O 0.97035 0.62813 0.79377 0.0
O314 O 1.00871 0.68782 0.78487 0.0
O315 O 0.01815 0.70112 0.83013 0.0
O316 O 0.06526 0.67782 0.82585 0.0
O317 O 0.04357 0.64465 0.79728 0.0
C318 C 0.97566 0.67315 0.88595 0.0
C319 C 0.06718 0.66159 0.80265 0.0
Dy320 Dy 0.20647 0.40616 0.01973 0.0
C321 C 0.2298 0.41704 0.12213 0.0
C322 C 0.17 0.39466 0.97111 0.0
Dy323 Dy 0.22944 0.4049 0.06297 0.0
O324 O 0.19456 0.41009 0.9705 0.0
O325 O 0.16584 0.3847 0.99814 0.0
O326 O 0.2143 0.45313 1.00166 0.0
O327 O 0.2082 0.4484 0.04776 0.0
C328 C 0.21289 0.46757 0.02635 0.0
C329 C 0.25707 0.35543 0.04663 0.0
O330 O 0.1932 0.37436 0.07825 0.0
O331 O 0.16554 0.40224 0.04911 0.0
O332 O 0.20736 0.42033 0.10452 0.0
O333 O 0.25277 0.40841 0.10698 0.0
O334 O 0.26745 0.37494 0.06515 0.0
O335 O 0.23111 0.36322 0.03544 0.0
O336 O 0.25209 0.39942 1.00296 0.0
O337 O 0.26495 0.42971 0.03908 0.0
C338 C 0.1668 0.38382 0.07187 0.0
C339 C 0.27082 0.4194 1.01266 0.0
Dy340 Dy 0.20537 0.66429 0.03457 0.0
C341 C 0.20687 0.67119 0.93127 0.0
C342 C 0.16965 0.68065 0.08162 0.0
Dy343 Dy 0.21805 0.67111 0.99151 0.0
O344 O 0.19249 0.66314 0.08393 0.0
O345 O 0.16716 0.68949 0.05427 0.0
O346 O 0.21526 0.6186 0.05282 0.0
O347 O 0.20666 0.6227 1.00616 0.0
C348 C 0.21236 0.60414 0.02804 0.0
C349 C 0.24916 0.7199 1.00674 0.0
O350 O 0.17723 0.69875 0.98986 0.0
O351 O 0.16166 0.65807 1.01057 0.0
O352 O 0.19098 0.65758 0.95146 0.0
O353 O 0.23023 0.68243 0.944 0.0
O354 O 0.2556 0.70254 0.98484 0.0
O355 O 0.22601 0.71005 0.02176 0.0
O356 O 0.25362 0.66941 0.04354 0.0
O357 O 0.25942 0.64651 1.00061 0.0
C358 C 0.15455 0.68148 0.99493 0.0
C359 C 0.27127 0.65518 0.02555 0.0
Dy360 Dy 0.39973 0.21334 0.06002 0.0
C361 C 0.42072 0.29633 0.99094 0.0
C362 C 0.39707 0.16553 0.09938 0.0
Dy363 Dy 0.40178 0.25336 0.02884 0.0
O364 O 0.41072 0.19055 0.10362 0.0
O365 O 0.38501 0.16611 0.07305 0.0
O366 O 0.44722 0.22511 0.07671 0.0
O367 O 0.4413 0.22386 0.03155 0.0
C368 C 0.46142 0.22675 0.05154 0.0
C369 C 0.34221 0.25495 0.03322 0.0
O370 O 0.40384 0.21814 0.99293 0.0
O371 O 0.38583 0.18289 0.024 0.0
O372 O 0.39314 0.28974 0.99558 0.0
O373 O 0.43409 0.28956 0.0157 0.0
O374 O 0.35678 0.25695 1.00836 0.0
O375 O 0.35978 0.24569 0.05419 0.0
O376 O 0.37739 0.23977 0.09358 0.0
O377 O 0.4078 0.27439 0.07442 0.0
C378 C 0.39342 0.19082 0.99695 0.0
C379 C 0.39118 0.26491 0.09705 0.0
Dy380 Dy 0.8355 0.4106 0.07364 0.0
C381 C 0.8846 0.40277 0.98562 0.0
C382 C 0.84301 0.41681 0.13396 0.0
Dy383 Dy 0.84947 0.41728 0.0334 0.0
O384 O 0.86147 0.42618 0.11357 0.0
O385 O 0.82039 0.40439 0.12094 0.0
O386 O 0.7996 0.37697 0.081 0.0
O387 O 0.82683 0.37224 0.04191 0.0
C388 C 0.80495 0.36111 0.0577 0.0
C389 C 0.84148 0.47729 0.03622 0.0
O390 O 0.80104 0.41254 0.02348 0.0
O391 O 0.79376 0.43434 0.06658 0.0
O392 O 0.8625 0.42117 0.98462 0.0
O393 O 0.88688 0.39185 1.01233 0.0
O394 O 0.84046 0.46164 1.01214 0.0
O395 O 0.84612 0.45981 0.0593 0.0
O396 O 0.87431 0.38066 0.07997 0.0
O397 O 0.89346 0.41956 0.05857 0.0
C398 C 0.78266 0.42607 0.04137 0.0
C399 C 0.89838 0.39569 0.07461 0.0
Dy400 Dy 0.65033 0.86437 0.03762 0.0
C401 C 0.66287 0.79844 0.95117 0.0
C402 C 0.65876 0.90677 0.08121 0.0
Dy403 Dy 0.65042 0.82703 1.00192 0.0
O404 O 0.65893 0.87817 0.08514 0.0
O405 O 0.65411 0.91253 0.05314 0.0
O406 O 0.60183 0.85772 0.05299 0.0
O407 O 0.60912 0.85349 1.00792 0.0
C408 C 0.58878 0.85205 0.02806 0.0
C409 C 0.70283 0.81346 0.02732 0.0
O410 O 0.65119 0.86613 0.96938 0.0
O411 O 0.66514 0.89863 1.0042 0.0
O412 O 0.67611 0.82224 0.96005 0.0
O413 O 0.64081 0.79102 0.96907 0.0
O414 O 0.68155 0.79474 0.02197 0.0
O415 O 0.6935 0.84065 0.02231 0.0
O416 O 0.65912 0.82807 0.06915 0.0
O417 O 0.62803 0.80239 0.04013 0.0
C418 C 0.66047 0.89302 0.97614 0.0
C419 C 0.64058 0.80596 0.06641 0.0
Dy420 Dy 0.82387 0.67683 0.98886 0.0
C421 C 0.88391 0.6864 0.07659 0.0
C422 C 0.8224 0.66397 0.92964 0.0
Dy423 Dy 0.8455 0.67441 0.0303 0.0
O424 O 0.84476 0.65995 0.94718 0.0
O425 O 0.80011 0.674 0.9449 0.0
O426 O 0.78776 0.70963 0.98531 0.0
O427 O 0.82267 0.71839 0.01725 0.0
C428 C 0.79771 0.72768 1.00543 0.0
C429 C 0.83644 0.61355 0.02777 0.0
O430 O 0.80014 0.68297 0.0472 0.0
O431 O 0.78583 0.65394 1.01059 0.0
O432 O 0.8592 0.67133 0.07871 0.0
O433 O 0.88723 0.69578 0.0493 0.0
O434 O 0.83542 0.6295 0.05153 0.0
O435 O 0.84114 0.63115 1.00491 0.0
O436 O 0.86228 0.70406 0.97194 0.0
O437 O 0.88663 0.67346 1.00092 0.0
C438 C 0.77963 0.66539 0.03638 0.0
C439 C 0.88762 0.69203 0.97825 0.0
Dy440 Dy 0.3934 0.85895 1.00193 0.0
C441 C 0.3816 0.77132 0.0731 0.0
C442 C 0.39174 0.9053 0.9613 0.0
Dy443 Dy 0.38888 0.82049 0.03711 0.0
O444 O 0.40642 0.88099 0.95847 0.0
O445 O 0.378 0.90481 0.9868 0.0
O446 O 0.44102 0.84903 0.98802 0.0
O447 O 0.43222 0.84659 0.03341 0.0
C448 C 0.45319 0.84486 1.01383 0.0
C449 C 0.3309 0.82454 0.02187 0.0
O450 O 0.40017 0.85561 0.06999 0.0
O451 O 0.38003 0.88899 0.03866 0.0
O452 O 0.36937 0.79683 0.07664 0.0
O453 O 0.40004 0.77349 0.0507 0.0
O454 O 0.34082 0.82804 0.04853 0.0
O455 O 0.35292 0.82783 1.00394 0.0
O456 O 0.37706 0.82623 0.96983 0.0
O457 O 0.40334 0.79469 0.99768 0.0
C458 C 0.38989 0.88248 0.06535 0.0
C459 C 0.39129 0.80126 0.97179 0.0
Dy460 Dy 0.65951 0.22378 0.02807 0.0
C461 C 0.65973 0.30934 0.09147 0.0
C462 C 0.66154 0.17641 0.99061 0.0
Dy463 Dy 0.6609 0.25858 0.05831 0.0
O464 O 0.64758 0.20095 0.98602 0.0
O465 O 0.67461 0.17711 0.01638 0.0
O466 O 0.61113 0.23039 1.01286 0.0
O467 O 0.61822 0.23246 0.05819 0.0
C468 C 0.59773 0.2329 0.03822 0.0
C469 C 0.72009 0.25887 0.04865 0.0
O470 O 0.65217 0.22207 0.09279 0.0
O471 O 0.67757 0.19331 0.06267 0.0
O472 O 0.67289 0.28479 0.09831 0.0
O473 O 0.64753 0.30572 0.06551 0.0
O474 O 0.70778 0.2528 0.07404 0.0
O475 O 0.69999 0.25608 0.0286 0.0
O476 O 0.67583 0.25263 0.99178 0.0
O477 O 0.6455 0.2819 0.01591 0.0
C478 C 0.66624 0.197 0.08896 0.0
C479 C 0.65922 0.27589 0.99086 0.0
Dy480 Dy 0.51602 0.7121 0.90019 0.0
C481 C 0.59943 0.76519 0.87836 0.0
C482 C 0.47369 0.66772 0.89507 0.0
Dy483 Dy 0.54646 0.74392 0.89781 0.0
O484 O 0.46874 0.6959 0.89664 0.0
O485 O 0.50221 0.66332 0.89605 0.0
O486 O 0.4979 0.71456 0.94791 0.0
O487 O 0.54294 0.72425 0.94369 0.0
C488 C 0.5216 0.72125 0.96273 0.0
C489 C 0.52476 0.76486 0.84648 0.0
O490 O 0.57882 0.70674 0.90661 0.0
O491 O 0.54684 0.67689 0.88493 0.0
O492 O 0.58665 0.74115 0.86894 0.0
O493 O 0.58405 0.77681 0.90022 0.0
O494 O 0.53483 0.7812 0.86795 0.0
O495 O 0.52362 0.73644 0.85441 0.0
O496 O 0.48313 0.74466 0.88653 0.0
O497 O 0.50964 0.7699 0.91892 0.0
C498 C 0.57355 0.68077 0.89515 0.0
C499 C 0.48442 0.76678 0.90437 0.0
Dy500 Dy 0.34615 0.51838 0.90673 0.0
C501 C 0.26916 0.60102 0.89382 0.0
C502 C 0.38512 0.47141 0.89923 0.0
Dy503 Dy 0.31281 0.5609 0.90294 0.0
O504 O 0.36227 0.47148 0.91688 0.0
O505 O 0.38664 0.49704 0.88536 0.0
O506 O 0.3406 0.50605 0.95519 0.0
O507 O 0.34015 0.55173 0.94496 0.0
C508 C 0.33799 0.53218 0.96652 0.0
C509 C 0.3125 0.54082 0.84599 0.0
O510 O 0.35221 0.58972 0.90995 0.0
O511 O 0.38051 0.55285 0.89237 0.0
O512 O 0.29733 0.60721 0.89274 0.0
O513 O 0.26482 0.57413 0.9038 0.0
O514 O 0.3212 0.56698 0.85378 0.0
O515 O 0.31224 0.52432 0.86958 0.0
O516 O 0.30213 0.49689 0.89967 0.0
O517 O 0.28259 0.53129 0.92829 0.0
C518 C 0.37787 0.58088 0.8998 0.0
C519 C 0.28254 0.50355 0.92004 0.0
Dy520 Dy 0.53769 0.35573 0.90328 0.0
C521 C 0.47395 0.26488 0.90324 0.0
C522 C 0.57649 0.40361 0.89986 0.0
Dy523 Dy 0.5067 0.31685 0.90107 0.0
O524 O 0.57718 0.38185 0.91888 0.0
O525 O 0.55347 0.4002 0.8827 0.0
O526 O 0.55222 0.34818 0.9517 0.0
O527 O 0.50721 0.34257 0.94365 0.0
C528 C 0.52697 0.34229 0.96455 0.0
C529 C 0.52143 0.31802 0.8423 0.0
O530 O 0.47063 0.35125 0.90788 0.0
O531 O 0.50124 0.38514 0.88741 0.0
O532 O 0.46689 0.28928 0.8895 0.0
O533 O 0.4997 0.26935 0.91569 0.0
O534 O 0.4946 0.31928 0.85243 0.0
O535 O 0.53926 0.32337 0.86399 0.0
O536 O 0.57349 0.32631 0.88933 0.0
O537 O 0.54857 0.29518 0.91899 0.0
C538 C 0.4744 0.37815 0.89637 0.0
C539 C 0.57406 0.30274 0.90635 0.0
Dy540 Dy 0.70662 0.54646 0.90077 0.0
C541 C 0.77354 0.48101 0.94298 0.0
C542 C 0.66379 0.5897 0.89574 0.0
Dy543 Dy 0.73897 0.51198 0.90567 0.0
O544 O 0.69042 0.59346 0.90614 0.0
O545 O 0.66046 0.56224 0.88774 0.0
O546 O 0.71948 0.56169 0.94846 0.0
O547 O 0.70764 0.51818 0.94336 0.0
C548 C 0.71354 0.53723 0.96325 0.0
C549 C 0.7522 0.51259 0.84792 0.0
O550 O 0.70113 0.47925 0.90239 0.0
O551 O 0.671 0.5152 0.88612 0.0
O552 O 0.75978 0.46978 0.92029 0.0
O553 O 0.77308 0.50984 0.94103 0.0
O554 O 0.75874 0.49133 0.86667 0.0
O555 O 0.73513 0.53269 0.85971 0.0
O556 O 0.73915 0.57579 0.87796 0.0
O557 O 0.77075 0.55127 0.90698 0.0
C558 C 0.67504 0.48708 0.89213 0.0
C559 C 0.76581 0.5738 0.88876 0.0
Dy560 Dy 0.50941 0.34773 0.16421 0.0
C561 C 0.57295 0.26881 0.14104 0.0
C562 C 0.47299 0.39595 0.16537 0.0
Dy563 Dy 0.53725 0.31063 0.16221 0.0
O564 O 0.46677 0.37054 0.15379 0.0
O565 O 0.49973 0.39557 0.17634 0.0
O566 O 0.49145 0.33684 0.11693 0.0
O567 O 0.53652 0.3404 0.12165 0.0
C568 C 0.51614 0.33765 0.10186 0.0
C569 C 0.53527 0.3051 0.22185 0.0
O570 O 0.57474 0.34568 0.16165 0.0
O571 O 0.54397 0.37912 0.1798 0.0
O572 O 0.56856 0.27283 0.16899 0.0
O573 O 0.54811 0.27635 0.12845 0.0
O574 O 0.5591 0.30225 0.20592 0.0
O575 O 0.51409 0.31619 0.2057 0.0
O576 O 0.47378 0.32373 0.18779 0.0
O577 O 0.49095 0.28955 0.15772 0.0
C578 C 0.57099 0.37234 0.17262 0.0
C579 C 0.46905 0.29877 0.17477 0.0
Dy580 Dy 0.70469 0.51034 0.16124 0.0
C581 C 0.77451 0.59177 0.13315 0.0
C582 C 0.66293 0.46489 0.16974 0.0
Dy583 Dy 0.73757 0.55073 0.15795 0.0
O584 O 0.68892 0.4623 0.15758 0.0
O585 O 0.65973 0.49237 0.17752 0.0
O586 O 0.71439 0.49591 0.11304 0.0
O587 O 0.70799 0.54045 0.11957 0.0
C588 C 0.7127 0.52143 0.09927 0.0
C589 C 0.74187 0.54501 0.21782 0.0
O590 O 0.69748 0.57877 0.1529 0.0
O591 O 0.66993 0.54329 0.17556 0.0
O592 O 0.75654 0.59654 0.15506 0.0
O593 O 0.77556 0.56338 0.12863 0.0
O594 O 0.7407 0.56994 0.20301 0.0
O595 O 0.73563 0.52302 0.20045 0.0
O596 O 0.74375 0.48462 0.17767 0.0
O597 O 0.77286 0.51686 0.15207 0.0
C598 C 0.67237 0.57085 0.1656 0.0
C599 C 0.77011 0.49175 0.16707 0.0
Dy600 Dy 0.53796 0.70484 0.16116 0.0
C601 C 0.45776 0.78045 0.14693 0.0
C602 C 0.57924 0.65965 0.1665 0.0
Dy603 Dy 0.50198 0.74193 0.16004 0.0
O604 O 0.58226 0.68422 0.15141 0.0
O605 O 0.55322 0.65938 0.17923 0.0
O606 O 0.55369 0.71452 0.11331 0.0
O607 O 0.50836 0.71316 0.12002 0.0
C608 C 0.52848 0.71672 0.0997 0.0
C609 C 0.51373 0.74344 0.21954 0.0
O610 O 0.46894 0.70455 0.15605 0.0
O611 O 0.50141 0.67314 0.17666 0.0
O612 O 0.46173 0.76746 0.17231 0.0
O613 O 0.48281 0.77893 0.13254 0.0
O614 O 0.4876 0.74125 0.20779 0.0
O615 O 0.53331 0.73869 0.19908 0.0
O616 O 0.57 0.73996 0.17351 0.0
O617 O 0.54109 0.7702 0.14635 0.0
C618 C 0.47401 0.67852 0.16828 0.0
C619 C 0.56733 0.76452 0.15786 0.0
Dy620 Dy 0.31204 0.56645 0.16123 0.0
C621 C 0.38605 0.48839 0.16946 0.0
C622 C 0.28099 0.60272 0.1254 0.0
Dy623 Dy 0.34386 0.53151 0.16414 0.0
O624 O 0.29748 0.61167 0.14734 0.0
O625 O 0.27691 0.57413 0.12767 0.0
O626 O 0.28532 0.57832 0.20056 0.0
O627 O 0.31593 0.54182 0.20582 0.0
C628 C 0.29454 0.55689 0.21792 0.0
C629 C 0.33491 0.53793 0.10237 0.0
O630 O 0.30972 0.50214 0.18458 0.0
O631 O 0.28021 0.52811 0.15459 0.0
O632 O 0.35984 0.48502 0.15809 0.0
O633 O 0.38944 0.51547 0.17848 0.0
O634 O 0.33108 0.51381 0.11817 0.0
O635 O 0.34051 0.55846 0.12103 0.0
O636 O 0.34866 0.60003 0.16938 0.0
O637 O 0.38114 0.56316 0.17498 0.0
C638 C 0.28383 0.50477 0.17206 0.0
C639 C 0.37613 0.59174 0.17416 0.0
Dy640 Dy 0.89933 0.51231 0.71059 0.0
C641 C 0.88222 0.56868 0.80538 0.0
C642 C 0.899 0.47784 0.66003 0.0
Dy643 Dy 0.8943 0.54238 0.75211 0.0
O644 O 0.9162 0.47486 0.6829 0.0
O645 O 0.88171 0.50038 0.66429 0.0
O646 O 0.94797 0.50071 0.71933 0.0
O647 O 0.93698 0.54475 0.72593 0.0
C648 C 0.95892 0.52647 0.72619 0.0
C649 C 0.83681 0.52643 0.74504 0.0
O650 O 0.9027 0.58022 0.71894 0.0
O651 O 0.88308 0.55082 0.68409 0.0
O652 O 0.87021 0.57482 0.78002 0.0
O653 O 0.90395 0.5503 0.80086 0.0
O654 O 0.84677 0.55329 0.74152 0.0
O655 O 0.85917 0.50911 0.74245 0.0
O656 O 0.88482 0.4749 0.73912 0.0
O657 O 0.91141 0.49935 0.77261 0.0
C658 C 0.89163 0.57741 0.69194 0.0
C659 C 0.9 0.4739 0.76364 0.0
Dy660 Dy 0.53081 0.90839 0.70897 0.0
C661 C 0.42486 0.89746 0.74703 0.0
C662 C 0.57882 0.89775 0.67163 0.0
Dy663 Dy 0.48396 0.90352 0.73356 0.0
O664 O 0.55276 0.88515 0.67023 0.0
O665 O 0.57906 0.91554 0.69419 0.0
O666 O 0.54579 0.95499 0.71894 0.0
O667 O 0.49979 0.94819 0.71224 0.0
C668 C 0.52016 0.968 0.71858 0.0
C669 C 0.50732 0.84673 0.74161 0.0
O670 O 0.46648 0.92176 0.691 0.0
O671 O 0.50192 0.89673 0.66896 0.0
O672 O 0.43808 0.88643 0.72415 0.0
O673 O 0.44496 0.91047 0.76368 0.0
O674 O 0.48091 0.85285 0.73212 0.0
O675 O 0.52216 0.87106 0.74132 0.0
O676 O 0.5426 0.90033 0.75726 0.0
O677 O 0.50111 0.92224 0.77468 0.0
C678 C 0.47653 0.91046 0.6667 0.0
C679 C 0.52839 0.91358 0.77929 0.0
Dy680 Dy 0.1557 0.5611 0.7178 0.0
C681 C 0.13627 0.48203 0.79346 0.0
C682 C 0.16002 0.60406 0.6733 0.0
Dy683 Dy 0.1536 0.52525 0.75508 0.0
O684 O 0.14569 0.60628 0.6981 0.0
O685 O 0.17188 0.57785 0.67223 0.0
O686 O 0.10722 0.57445 0.72874 0.0
O687 O 0.11514 0.52997 0.72414 0.0
C688 C 0.09418 0.54857 0.72807 0.0
C689 C 0.21323 0.53228 0.75647 0.0
O690 O 0.15104 0.49357 0.71661 0.0
O691 O 0.17159 0.52757 0.68568 0.0
O692 O 0.16362 0.48838 0.78726 0.0
O693 O 0.12183 0.50657 0.78918 0.0
O694 O 0.19938 0.50693 0.75526 0.0
O695 O 0.19471 0.55348 0.75083 0.0
O696 O 0.17445 0.59217 0.75002 0.0
O697 O 0.14414 0.56692 0.78066 0.0
C698 C 0.16304 0.50006 0.69057 0.0
C699 C 0.15914 0.59167 0.77453 0.0
Dy700 Dy 0.5196 0.16677 0.70503 0.0
C701 C 0.60789 0.15398 0.74826 0.0
C702 C 0.47767 0.17589 0.66134 0.0
Dy703 Dy 0.55148 0.16676 0.73394 0.0
O704 O 0.47325 0.16258 0.68677 0.0
O705 O 0.50545 0.18408 0.65924 0.0
O706 O 0.4963 0.12151 0.71515 0.0
O707 O 0.54234 0.12173 0.71563 0.0
C708 C 0.51939 0.10463 0.71794 0.0
C709 C 0.54061 0.21895 0.75722 0.0
O710 O 0.57868 0.19175 0.69903 0.0
O711 O 0.55083 0.16933 0.6662 0.0
O712 O 0.59703 0.15297 0.72177 0.0
O713 O 0.58719 0.15894 0.7679 0.0
O714 O 0.55431 0.19738 0.771 0.0
O715 O 0.53182 0.21155 0.73019 0.0
O716 O 0.49012 0.18895 0.73582 0.0
O717 O 0.51178 0.15424 0.76283 0.0
C718 C 0.57511 0.18418 0.67141 0.0
C719 C 0.48941 0.17276 0.75976 0.0
Dy720 Dy 0.89071 0.55246 0.3588 0.0
C721 C 0.88148 0.47992 0.27472 0.0
C722 C 0.88105 0.59144 0.40498 0.0
Dy723 Dy 0.89204 0.52186 0.31555 0.0
O724 O 0.87603 0.59664 0.37697 0.0
O725 O 0.89043 0.56428 0.40811 0.0
O726 O 0.93949 0.56676 0.35868 0.0
O727 O 0.93145 0.52355 0.34572 0.0
C728 C 0.95214 0.54314 0.34908 0.0
C729 C 0.83965 0.54955 0.30632 0.0
O730 O 0.89197 0.48449 0.34987 0.0
O731 O 0.87473 0.51389 0.38612 0.0
O732 O 0.86862 0.48091 0.30035 0.0
O733 O 0.90263 0.49996 0.27243 0.0
O734 O 0.86166 0.54948 0.28793 0.0
O735 O 0.8488 0.53906 0.3319 0.0
O736 O 0.89058 0.58924 0.32592 0.0
O737 O 0.9192 0.5601 0.29791 0.0
C738 C 0.8813 0.48726 0.377 0.0
C739 C 0.90995 0.58681 0.3046 0.0
Dy740 Dy 0.50327 0.8951 0.35075 0.0
C741 C 0.5719 0.88875 0.26587 0.0
C742 C 0.46071 0.89558 0.39476 0.0
Dy743 Dy 0.53628 0.89299 0.31493 0.0
O744 O 0.45844 0.90745 0.3685 0.0
O745 O 0.48673 0.8834 0.39753 0.0
O746 O 0.48735 0.94206 0.3381 0.0
O747 O 0.53288 0.9365 0.33922 0.0
C748 C 0.5125 0.95639 0.33636 0.0
C749 C 0.52723 0.83339 0.31746 0.0
O750 O 0.56952 0.90254 0.35162 0.0
O751 O 0.53758 0.88152 0.38386 0.0
O752 O 0.5755 0.87544 0.29118 0.0
O753 O 0.54989 0.90727 0.26823 0.0
O754 O 0.55288 0.84629 0.31998 0.0
O755 O 0.50711 0.85292 0.32226 0.0
O756 O 0.47151 0.87281 0.32131 0.0
O757 O 0.49431 0.90221 0.28837 0.0
C758 C 0.56449 0.89142 0.37848 0.0
C759 C 0.47051 0.88629 0.29562 0.0
Dy760 Dy 0.15125 0.50506 0.3333 0.0
C761 C 0.15665 0.58709 0.39628 0.0
C762 C 0.13168 0.44777 0.33597 0.0
Dy763 Dy 0.14809 0.54248 0.35622 0.0
O764 O 0.13171 0.46595 0.35783 0.0
O765 O 0.14208 0.46114 0.31192 0.0
O766 O 0.18641 0.49821 0.29996 0.0
O767 O 0.19328 0.53277 0.33296 0.0
C768 C 0.204 0.51945 0.30944 0.0
C769 C 0.0875 0.53784 0.34341 0.0
O770 O 0.16478 0.56646 0.31691 0.0
O771 O 0.13807 0.53248 0.29311 0.0
O772 O 0.14233 0.58955 0.37136 0.0
O773 O 0.16658 0.56029 0.39936 0.0
O774 O 0.10343 0.56208 0.34299 0.0
O775 O 0.10497 0.51614 0.34929 0.0
O776 O 0.1799 0.48747 0.37043 0.0
O777 O 0.15068 0.51412 0.39792 0.0
C778 C 0.15316 0.55772 0.29203 0.0
C779 C 0.16999 0.49284 0.397 0.0
Dy780 Dy 0.53055 0.15428 0.36067 0.0
C781 C 0.47242 0.15858 0.26805 0.0
C782 C 0.56219 0.16008 0.41274 0.0
Dy783 Dy 0.50112 0.15768 0.32208 0.0
O784 O 0.5622 0.13705 0.39583 0.0
O785 O 0.54478 0.18005 0.40139 0.0
O786 O 0.54578 0.10641 0.35391 0.0
O787 O 0.50083 0.11374 0.34678 0.0
C788 C 0.521 0.09333 0.34682 0.0
C789 C 0.51659 0.21593 0.32186 0.0
O790 O 0.46259 0.15408 0.35524 0.0
O791 O 0.49411 0.16946 0.38994 0.0
O792 O 0.46233 0.16844 0.29291 0.0
O793 O 0.49829 0.14716 0.27352 0.0
O794 O 0.48968 0.20601 0.32473 0.0
O795 O 0.5342 0.19411 0.32722 0.0
O796 O 0.57024 0.16542 0.33496 0.0
O797 O 0.54384 0.14017 0.30182 0.0
C798 C 0.46675 0.16383 0.38239 0.0
C799 C 0.56994 0.15047 0.31064 0.0
Dy800 Dy 0.69747 0.89945 0.51582 0.0
C801 C 0.77607 0.92549 0.58669 0.0
C802 C 0.65354 0.89469 0.47264 0.0
Dy803 Dy 0.73389 0.90207 0.55113 0.0
O804 O 0.67843 0.9092 0.47016 0.0
O805 O 0.65224 0.88252 0.49915 0.0
O806 O 0.7084 0.947 0.49848 0.0
O807 O 0.70478 0.94132 0.54378 0.0
C808 C 0.70897 0.96119 0.52331 0.0
C809 C 0.74082 0.84303 0.54465 0.0
O810 O 0.69678 0.90609 0.58427 0.0
O811 O 0.66494 0.88578 0.55207 0.0
O812 O 0.75777 0.9043 0.59428 0.0
O813 O 0.77436 0.92991 0.55813 0.0
O814 O 0.74219 0.8569 0.56958 0.0
O815 O 0.73034 0.86043 0.52384 0.0
O816 O 0.73122 0.88293 0.4848 0.0
O817 O 0.76101 0.91297 0.51043 0.0
C818 C 0.67037 0.89472 0.5792 0.0
C819 C 0.75591 0.89827 0.48592 0.0
Dy820 Dy 0.70681 0.15734 0.53897 0.0
C821 C 0.70794 0.16516 0.43621 0.0
C822 C 0.67031 0.17343 0.58551 0.0
Dy823 Dy 0.71866 0.16532 0.49659 0.0
O824 O 0.69251 0.15508 0.5879 0.0
O825 O 0.66885 0.18318 0.55834 0.0
O826 O 0.71741 0.11115 0.55592 0.0
O827 O 0.70909 0.11645 0.50936 0.0
C828 C 0.71458 0.09735 0.5307 0.0
C829 C 0.75043 0.21394 0.51118 0.0
O830 O 0.67539 0.18997 0.4942 0.0
O831 O 0.6632 0.14855 0.51589 0.0
O832 O 0.6921 0.15155 0.4564 0.0
O833 O 0.731 0.17685 0.44909 0.0
O834 O 0.75517 0.19745 0.48822 0.0
O835 O 0.72788 0.20369 0.52713 0.0
O836 O 0.75401 0.16387 0.55027 0.0
O837 O 0.76196 0.1433 0.50624 0.0
C838 C 0.65406 0.17114 0.50022 0.0
C839 C 0.77283 0.15281 0.53138 0.0
Dy840 Dy 0.89552 0.71286 0.55543 0.0
C841 C 0.90925 0.78622 0.47119 0.0
C842 C 0.89256 0.66969 0.59994 0.0
Dy843 Dy 0.89506 0.74938 0.51761 0.0
O844 O 0.9073 0.69453 0.6011 0.0
O845 O 0.87949 0.6681 0.57419 0.0
O846 O 0.94331 0.7251 0.56956 0.0
O847 O 0.93575 0.72165 0.52455 0.0
C848 C 0.95643 0.7264 0.54381 0.0
C849 C 0.83572 0.7509 0.52818 0.0
O850 O 0.89613 0.71028 0.48679 0.0
O851 O 0.88157 0.67831 0.52289 0.0
O852 O 0.88303 0.77593 0.47705 0.0
O853 O 0.92412 0.78436 0.49597 0.0
O854 O 0.84797 0.75072 0.50215 0.0
O855 O 0.85548 0.74442 0.54816 0.0
O856 O 0.87625 0.74674 0.58397 0.0
O857 O 0.90542 0.77763 0.55752 0.0
C858 C 0.88698 0.68347 0.49467 0.0
C859 C 0.89122 0.77164 0.58269 0.0
Dy860 Dy 0.32334 0.91727 0.57329 0.0
C861 C 0.37051 0.90601 0.48529 0.0
C862 C 0.32449 0.90545 0.63319 0.0
Dy863 Dy 0.33696 0.92198 0.53337 0.0
O864 O 0.34537 0.89913 0.61458 0.0
O865 O 0.30243 0.91763 0.61853 0.0
O866 O 0.3239 0.86607 0.57424 0.0
O867 O 0.30419 0.88553 0.53764 0.0
C868 C 0.30733 0.86083 0.55125 0.0
C869 C 0.33416 0.9832 0.53622 0.0
O870 O 0.28709 0.91658 0.52827 0.0
O871 O 0.27941 0.93753 0.572 0.0
O872 O 0.34766 0.92358 0.48394 0.0
O873 O 0.37427 0.89684 0.51249 0.0
O874 O 0.33462 0.96759 0.51217 0.0
O875 O 0.33581 0.96551 0.55941 0.0
O876 O 0.36676 0.94023 0.58315 0.0
O877 O 0.37824 0.90342 0.55692 0.0
C878 C 0.26859 0.9304 0.54626 0.0
C879 C 0.38793 0.92287 0.57564 0.0
Dy880 Dy 0.15279 0.37197 0.55164 0.0
C881 C 0.14904 0.29408 0.46865 0.0
C882 C 0.15899 0.41399 0.59561 0.0
Dy883 Dy 0.15296 0.33548 0.5117 0.0
O884 O 0.14469 0.38893 0.59798 0.0
O885 O 0.16998 0.41651 0.56887 0.0
O886 O 0.10522 0.36013 0.56663 0.0
O887 O 0.11277 0.36273 0.52123 0.0
C888 C 0.09247 0.35762 0.54094 0.0
C889 C 0.21201 0.33861 0.52278 0.0
O890 O 0.15512 0.37457 0.48019 0.0
O891 O 0.166 0.40629 0.51723 0.0
O892 O 0.16916 0.29463 0.48898 0.0
O893 O 0.12905 0.31365 0.47456 0.0
O894 O 0.2001 0.3438 0.497 0.0
O895 O 0.19135 0.33993 0.54264 0.0
O896 O 0.1699 0.33479 0.57856 0.0
O897 O 0.1392 0.30702 0.55104 0.0
C898 C 0.16299 0.40129 0.48873 0.0
C899 C 0.15389 0.31062 0.57609 0.0
Dy900 Dy 0.30724 0.18029 0.49571 0.0
C901 C 0.38402 0.18864 0.57438 0.0
C902 C 0.28207 0.17369 0.44122 0.0
Dy903 Dy 0.34057 0.18092 0.5319 0.0
O904 O 0.30177 0.19354 0.44803 0.0
O905 O 0.27448 0.15877 0.46534 0.0
O906 O 0.27351 0.21468 0.50313 0.0
O907 O 0.31877 0.22492 0.51545 0.0
C908 C 0.29137 0.23471 0.5136 0.0
C909 C 0.32769 0.11952 0.52991 0.0
O910 O 0.30401 0.19771 0.55916 0.0
O911 O 0.27818 0.16472 0.5335 0.0
O912 O 0.35735 0.17845 0.57912 0.0
O913 O 0.38698 0.19542 0.54631 0.0
O914 O 0.32959 0.13561 0.55347 0.0
O915 O 0.33091 0.1374 0.5073 0.0
O916 O 0.34517 0.18325 0.46296 0.0
O917 O 0.37877 0.18227 0.49936 0.0
C918 C 0.2806 0.1805 0.55786 0.0
C919 C 0.37307 0.18239 0.4708 0.0
Dy920 Dy 0.89755 0.35243 0.51112 0.0
C921 C 0.88063 0.29061 0.60429 0.0
C922 C 0.88611 0.39167 0.46476 0.0
Dy923 Dy 0.89364 0.32094 0.55314 0.0
O924 O 0.90613 0.37113 0.46468 0.0
O925 O 0.87209 0.39063 0.49008 0.0
O926 O 0.94607 0.3502 0.49872 0.0
O927 O 0.93609 0.34867 0.54456 0.0
C928 C 0.95752 0.34793 0.52513 0.0
C929 C 0.83785 0.31515 0.52813 0.0
O930 O 0.90586 0.36077 0.57888 0.0
O931 O 0.88249 0.38723 0.54411 0.0
O932 O 0.87382 0.31787 0.59846 0.0
O933 O 0.8968 0.28019 0.58267 0.0
O934 O 0.84324 0.32508 0.55435 0.0
O935 O 0.86261 0.31591 0.51414 0.0
O936 O 0.89416 0.30738 0.49164 0.0
O937 O 0.92095 0.28875 0.5289 0.0
C938 C 0.8939 0.38591 0.57097 0.0
C939 C 0.91456 0.28853 0.50049 0.0
Dy940 Dy 0.15564 0.72472 0.52294 0.0
C941 C 0.13209 0.80076 0.59318 0.0
C942 C 0.15805 0.67819 0.48449 0.0
Dy943 Dy 0.1521 0.76178 0.55373 0.0
O944 O 0.14297 0.7022 0.48088 0.0
O945 O 0.17203 0.67897 0.50979 0.0
O946 O 0.1077 0.73438 0.5063 0.0
O947 O 0.11353 0.72998 0.55131 0.0
C948 C 0.09329 0.73278 0.53135 0.0
C949 C 0.212 0.76608 0.54984 0.0
O950 O 0.15085 0.72426 0.58842 0.0
O951 O 0.17277 0.69353 0.55713 0.0
O952 O 0.15986 0.79605 0.58844 0.0
O953 O 0.11925 0.79592 0.56782 0.0
O954 O 0.1972 0.76498 0.57459 0.0
O955 O 0.19441 0.75911 0.52829 0.0
O956 O 0.17692 0.75279 0.48892 0.0
O957 O 0.14454 0.7839 0.5081 0.0
C958 C 0.16383 0.69865 0.58402 0.0
C959 C 0.16126 0.77648 0.48519 0.0
C960 C 0.06234 0.21736 0.54574 0.0
C961 C 0.03688 0.21676 0.565 0.0
H962 H 0.08057 0.21902 0.5006 0.0
C963 C 1.00917 0.21758 0.5499 0.0
H964 H 0.08436 0.21698 0.55558 0.0
C965 C 1.00705 0.21872 0.51791 0.0
C966 C 0.0324 0.2192 0.49856 0.0
H967 H 0.98877 0.21734 0.56287 0.0
H968 H 0.98496 0.21928 0.50822 0.0
C969 C 0.06021 0.21856 0.51362 0.0
C970 C 0.83458 1.01094 0.55082 0.0
C971 C 0.84272 0.03757 0.56556 0.0
H972 H 0.82824 0.98726 0.5097 0.0
C973 C 0.85131 0.06167 0.54622 0.0
H974 H 0.82819 0.99143 0.56396 0.0
C975 C 0.85064 0.05943 0.51415 0.0
C976 C 0.8424 0.03259 0.49966 0.0
H977 H 0.85876 0.08242 0.55581 0.0
H978 H 0.85723 0.0787 0.50072 0.0
C979 C 0.83464 1.00848 0.51911 0.0
C980 C 1.00335 0.83748 0.54598 0.0
C981 C 0.02899 0.83774 0.56496 0.0
H982 H 0.98442 0.83718 0.50122 0.0
C983 C 0.05649 0.83759 0.54922 0.0
H984 H 0.98143 0.83747 0.55615 0.0
C985 C 0.05817 0.83747 0.51704 0.0
C986 C 0.03253 0.83748 0.49805 0.0
H987 H 0.07704 0.83797 0.56182 0.0
H988 H 0.0801 0.83751 0.50688 0.0
C989 C 1.00501 0.83729 0.5138 0.0
C990 C 0.23766 0.05402 0.54822 0.0
C991 C 0.22169 0.03137 0.56435 0.0
H992 H 0.24942 0.07477 0.50558 0.0
C993 C 0.20357 1.01268 0.54628 0.0
H994 H 0.2526 0.06864 0.56013 0.0
C995 C 0.20219 0.01583 0.5143 0.0
C996 C 0.21874 0.03802 0.49815 0.0
H997 H 0.1909 0.99472 0.55688 0.0
H998 H 0.18846 1.00024 0.50209 0.0
C999 C 0.23605 0.05737 0.51627 0.0
C1000 C 0.54987 1.00037 0.22316 0.0
C1001 C 0.56387 0.02879 0.21957 0.0
H1002 H 0.50903 0.97397 0.22611 0.0
C1003 C 0.54366 0.05271 0.21508 0.0
H1004 H 0.56345 0.98097 0.2267 0.0
C1005 C 0.51186 0.04857 0.2141 0.0
C1006 C 0.49782 0.02031 0.21848 0.0
H1007 H 0.5525 0.07512 0.21195 0.0
H1008 H 0.49823 0.0678 0.20952 0.0
C1009 C 0.51798 0.99631 0.22281 0.0
C1010 C 0.05383 0.55205 0.21722 0.0
C1011 C 0.02676 0.56809 0.2159 0.0
H1012 H 0.07631 0.50955 0.21928 0.0
C1013 C 1.00054 0.54983 0.21594 0.0
H1014 H 0.07467 0.56432 0.21764 0.0
C1015 C 1.0014 0.51775 0.2168 0.0
C1016 C 0.02856 0.50174 0.21798 0.0
H1017 H 0.97898 0.56041 0.21517 0.0
H1018 H 0.9805 0.50542 0.21658 0.0
C1019 C 0.05471 0.52004 0.21829 0.0
C1020 C 0.54963 0.07478 0.83663 0.0
C1021 C 0.5645 0.04738 0.84157 0.0
H1022 H 0.50833 0.09892 0.83284 0.0
C1023 C 0.54526 0.02226 0.8463 0.0
H1024 H 0.56273 0.09493 0.83286 0.0
C1025 C 0.5132 0.02451 0.84573 0.0
C1026 C 0.49851 0.05215 0.84109 0.0
H1027 H 0.555 1.00065 0.85057 0.0
H1028 H 0.4999 1.00448 0.84942 0.0
C1029 C 0.51786 0.0771 0.8366 0.0
C1030 C 1.00196 0.54264 0.84007 0.0
C1031 C 0.02876 0.55976 0.84115 0.0
H1032 H 0.98017 0.49937 0.83794 0.0
C1033 C 0.05525 0.54237 0.84041 0.0
H1034 H 0.98083 0.55406 0.84032 0.0
C1035 C 0.05494 0.5102 0.83904 0.0
C1036 C 0.02804 0.49311 0.83823 0.0
H1037 H 0.07667 0.55374 0.84093 0.0
H1038 H 0.07602 0.4987 0.83867 0.0
C1039 C 1.00165 0.5106 0.83865 0.0
C1040 C 0.21042 0.55251 1.00062 0.0
C1041 C 0.21184 0.56909 0.02725 0.0
H1042 H 0.20961 0.50946 0.97937 0.0
C1043 C 0.21318 0.55124 0.05391 0.0
H1044 H 0.2095 0.56436 0.97939 0.0
C1045 C 0.21308 0.51914 0.05398 0.0
C1046 C 0.21181 0.50257 0.02733 0.0
H1047 H 0.21438 0.56221 0.0752 0.0
H1048 H 0.21436 0.50727 0.07518 0.0
C1049 C 0.21049 0.52042 1.00069 0.0
C1050 C 0.54345 0.22639 0.01751 0.0
C1051 C 0.56286 0.23087 0.04221 0.0
H1052 H 0.49868 0.21982 1.0006 0.0
C1053 C 0.54795 0.23322 0.07 0.0
H1054 H 0.55306 0.22393 0.99552 0.0
C1055 C 0.5159 0.23212 0.07276 0.0
C1056 C 0.49644 0.2279 0.04797 0.0
H1057 H 0.56123 0.23585 0.08987 0.0
H1058 H 0.50627 0.23448 0.09475 0.0
C1059 C 0.51152 0.22449 0.02035 0.0
C1060 C 0.83975 0.56012 1.00425 0.0
C1061 C 0.83808 0.57858 0.02952 0.0
H1062 H 0.84205 0.51566 0.9864 0.0
C1063 C 0.8378 0.56276 0.05748 0.0
H1064 H 0.83994 0.57036 0.9822 0.0
C1065 C 0.83916 0.53077 0.06005 0.0
C1066 C 0.84079 0.51231 0.03475 0.0
H1067 H 0.83648 0.57526 0.07787 0.0
H1068 H 0.83868 0.5205 0.08209 0.0
C1069 C 0.84101 0.52816 1.00682 0.0
C1070 C 0.53964 0.84785 0.99618 0.0
C1071 C 0.55402 0.85006 0.02421 0.0
H1072 H 0.49851 0.84453 0.9711 0.0
C1073 C 0.53423 0.84998 0.04921 0.0
H1074 H 0.5531 0.84759 0.97611 0.0
C1075 C 0.50228 0.84807 0.04638 0.0
C1076 C 0.48791 0.84617 0.01827 0.0
H1077 H 0.54354 0.85138 0.07142 0.0
H1078 H 0.48879 0.84825 0.06643 0.0
C1079 C 0.50775 0.84604 0.99334 0.0
C1080 C 0.4976 0.71606 0.01628 0.0
C1081 C 0.52342 0.72039 0.99789 0.0
H1082 H 0.47807 0.71149 0.06069 0.0
C1083 C 0.5504 0.72372 0.01406 0.0
H1084 H 0.47608 0.71343 1.00566 0.0
C1085 C 0.5515 0.72252 0.04617 0.0
C1086 C 0.52576 0.71804 0.06461 0.0
H1087 H 0.57104 0.72719 1.00185 0.0
H1088 H 0.57305 0.72521 0.05672 0.0
C1089 C 0.49868 0.71498 0.04847 0.0
C1090 C 0.33625 0.51035 0.02001 0.0
C1091 C 0.33866 0.53609 1.00123 0.0
H1092 H 0.33207 0.49071 0.06406 0.0
C1093 C 0.34176 0.56336 0.01677 0.0
H1094 H 0.33526 0.48857 1.01009 0.0
C1095 C 0.34176 0.56441 0.04905 0.0
C1096 C 0.33726 0.5385 0.06749 0.0
H1097 H 0.34437 0.58398 1.00408 0.0
H1098 H 0.34478 0.58577 0.05957 0.0
C1099 C 0.33485 0.51153 0.05172 0.0
C1100 C 0.49597 0.33488 0.01508 0.0
C1101 C 0.52309 0.34136 0.99967 0.0
H1102 H 0.47244 0.3283 0.05727 0.0
C1103 C 0.5478 0.34678 0.01895 0.0
H1104 H 0.4761 0.33068 1.00213 0.0
C1105 C 0.54566 0.34595 0.05102 0.0
C1106 C 0.51876 0.33896 0.06657 0.0
H1107 H 0.56934 0.35205 1.00912 0.0
H1108 H 0.5654 0.35128 0.06367 0.0
C1109 C 0.49392 0.3336 0.04732 0.0
C1110 C 0.70557 0.50557 1.01277 0.0
C1111 C 0.71151 0.53338 0.99816 0.0
H1112 H 0.70205 0.47981 0.05414 0.0
C1113 C 0.71563 0.55765 0.01785 0.0
H1114 H 0.70172 0.48606 0.99937 0.0
C1115 C 0.71469 0.55418 0.04985 0.0
C1116 C 0.71082 0.52606 0.06445 0.0
H1117 H 0.71954 0.57976 1.00846 0.0
H1118 H 0.71734 0.57377 0.06331 0.0
C1119 C 0.70572 0.50196 0.04477 0.0
C1120 C 0.01434 0.51064 0.7195 0.0
C1121 C 0.99346 0.53315 0.72665 0.0
H1122 H 0.06019 0.49733 0.7131 0.0
C1123 C 1.0067 0.56093 0.73426 0.0
H1124 H 1.00608 0.48881 0.71336 0.0
C1125 C 0.0386 0.56566 0.73474 0.0
C1126 C 0.05943 0.54304 0.72754 0.0
H1127 H 0.99239 0.5792 0.74012 0.0
H1128 H 0.047 0.58741 0.74095 0.0
C1129 C 0.04607 0.51545 0.71967 0.0
C1130 C 0.54493 0.02061 0.72112 0.0
C1131 C 0.51841 1.00302 0.71824 0.0
H1132 H 0.5664 0.0641 0.72317 0.0
C1133 C 0.49187 0.0199 0.71562 0.0
H1134 H 0.56612 1.00951 0.7235 0.0
C1135 C 0.49212 0.05212 0.7157 0.0
C1136 C 0.51886 0.06956 0.71821 0.0
H1137 H 0.47072 1.00824 0.71357 0.0
H1138 H 0.47103 0.06346 0.71364 0.0
C1139 C 0.54518 0.05258 0.72098 0.0
C1140 C 1.0022 0.51277 0.34368 0.0
C1141 C 0.98673 0.53997 0.34734 0.0
H1142 H 0.04474 0.49025 0.3398 0.0
C1143 C 1.00527 0.5657 0.34934 0.0
H1144 H 0.98952 0.4922 0.34185 0.0
C1145 C 0.037 0.56462 0.34777 0.0
C1146 C 0.05269 0.53763 0.3446 0.0
H1147 H 0.99516 0.58727 0.35205 0.0
H1148 H 0.0494 0.58539 0.34937 0.0
C1149 C 0.03432 0.51163 0.34258 0.0
C1150 C 0.49078 0.04231 0.33991 0.0
C1151 C 0.51804 0.05827 0.34377 0.0
H1152 H 0.46765 0.99989 0.33464 0.0
C1153 C 0.54371 0.03963 0.34456 0.0
H1154 H 0.4702 0.05463 0.33902 0.0
C1155 C 0.54233 1.00759 0.34196 0.0
C1156 C 0.51508 0.99159 0.3384 0.0
H1157 H 0.56547 0.04995 0.34724 0.0
H1158 H 0.56295 0.99531 0.34294 0.0
C1159 C 0.48939 1.01023 0.33737 0.0
C1160 C 0.71018 1.01147 0.55309 0.0
C1161 C 0.71005 0.9961 0.52568 0.0
H1162 H 0.71215 0.05349 0.57629 0.0
C1163 C 0.71142 0.01503 0.4998 0.0
H1164 H 0.70907 0.99868 0.57378 0.0
C1165 C 0.71265 0.04704 0.50118 0.0
C1166 C 0.71307 0.06242 0.52859 0.0
H1167 H 0.71149 1.005 0.47801 0.0
H1168 H 0.71354 0.0598 0.48045 0.0
C1169 C 0.71193 0.04348 0.55449 0.0
C1170 C 0.04307 0.72359 0.56173 0.0
C1171 C 0.05817 0.73066 0.53458 0.0
H1172 H 1.00153 0.71732 0.58602 0.0
C1173 C 0.03865 0.73548 0.50989 0.0
H1174 H 0.05601 0.71843 0.58134 0.0
C1175 C 1.00656 0.73369 0.51228 0.0
C1176 C 0.99148 0.7273 0.53968 0.0
H1177 H 0.04826 0.74083 0.48824 0.0
H1178 H 0.99368 0.73784 0.49238 0.0
C1179 C 1.01105 0.72246 0.56429 0.0
C1180 C 0.32904 0.03615 0.56068 0.0
C1181 C 0.33352 0.01828 0.53529 0.0
H1182 H 0.32377 0.08021 0.57903 0.0
C1183 C 0.33593 0.03474 0.5078 0.0
H1184 H 0.32668 0.02539 0.58238 0.0
C1185 C 0.33382 0.06668 0.50573 0.0
C1186 C 0.32942 0.08455 0.53112 0.0
H1187 H 0.33913 0.02271 0.48733 0.0
H1188 H 0.33575 0.07741 0.48397 0.0
C1189 C 0.32715 0.06814 0.55863 0.0
C1190 C 0.04377 0.35534 0.5085 0.0
C1191 C 0.05785 0.35538 0.53675 0.0
H1192 H 1.00297 0.35316 0.48293 0.0
C1193 C 0.03795 0.35288 0.56159 0.0
H1194 H 0.05737 0.357 0.48854 0.0
C1195 C 1.00607 0.35065 0.5584 0.0
C1196 C 0.99202 0.35073 0.53009 0.0
H1197 H 0.04709 0.35258 0.58393 0.0
H1198 H 0.99244 0.34875 0.57832 0.0
C1199 C 1.01199 0.3531 0.50532 0.0
C1200 C 0.04751 0.27988 0.29499 0.0
C1201 C 0.02567 0.27194 0.31699 0.0
H1202 H 0.06115 0.30948 0.25826 0.0
C1203 C 0.99924 0.28861 0.31603 0.0
H1204 H 0.06846 0.26814 0.29474 0.0
C1205 C 0.99509 0.31227 0.29499 0.0
C1206 C 0.01702 0.32093 0.27346 0.0
H1207 H 0.9818 0.28393 0.33225 0.0
H1208 H 0.97443 0.32444 0.29621 0.0
C1209 C 0.04332 0.3038 0.27372 0.0
C1210 C 0.78505 1.00487 0.30125 0.0
C1211 C 0.78878 0.03038 0.31897 0.0
H1212 H 0.76141 0.98323 0.26552 0.0
C1213 C 0.77086 0.05516 0.3108 0.0
H1214 H 0.79691 0.98473 0.30717 0.0
C1215 C 0.74977 0.05423 0.28697 0.0
C1216 C 0.74517 0.02828 0.27006 0.0
H1217 H 0.77165 0.07491 0.32435 0.0
H1218 H 0.73582 0.07342 0.28298 0.0
C1219 C 0.76404 1.00394 0.27734 0.0
C1220 C 1.01248 0.7861 0.29378 0.0
C1221 C 0.03442 0.79478 0.31496 0.0
H1222 H 0.99889 0.75582 0.25881 0.0
C1223 C 0.06113 0.7784 0.31449 0.0
H1224 H 0.99131 0.79745 0.2933 0.0
C1225 C 0.06523 0.75408 0.29494 0.0
C1226 C 0.04317 0.74488 0.27421 0.0
H1227 H 0.07863 0.78347 0.3303 0.0
H1228 H 0.08583 0.74182 0.29667 0.0
C1229 C 0.01683 0.76197 0.27371 0.0
C1230 C 0.3126 0.99565 0.28514 0.0
C1231 C 0.31772 0.02345 0.27066 0.0
H1232 H 0.29041 0.97086 0.32054 0.0
C1233 C 0.30004 0.04743 0.28062 0.0
H1234 H 0.32575 0.97661 0.27899 0.0
C1235 C 0.27911 0.04403 0.30453 0.0
C1236 C 0.27521 0.01655 0.32001 0.0
H1237 H 0.3033 0.06941 0.27068 0.0
H1238 H 0.26737 0.06347 0.31205 0.0
C1239 C 0.29212 0.99239 0.30931 0.0
C1240 C 0.99551 0.75031 0.76824 0.0
C1241 C 0.01819 0.74118 0.78832 0.0
H1242 H 0.98089 0.7808 0.73359 0.0
C1243 C 0.04398 0.75956 0.78902 0.0
H1244 H 0.97553 0.73669 0.76618 0.0
C1245 C 0.0473 0.78504 0.76961 0.0
C1246 C 0.02491 0.79353 0.74879 0.0
H1247 H 0.06248 0.75318 0.80315 0.0
H1248 H 0.0682 0.79737 0.76996 0.0
C1249 C 0.9986 0.7759 0.74925 0.0
C1250 C 0.30654 1.01291 0.78026 0.0
C1251 C 0.31888 0.03908 0.79329 0.0
H1252 H 0.27699 0.99318 0.74757 0.0
C1253 C 0.30703 0.06628 0.78265 0.0
H1254 H 0.3148 0.99126 0.78709 0.0
C1255 C 0.28468 0.06724 0.75997 0.0
C1256 C 0.27306 0.04115 0.74623 0.0
H1257 H 0.31562 0.08707 0.79129 0.0
H1258 H 0.27717 0.08894 0.7524 0.0
C1259 C 0.28445 0.01389 0.7573 0.0
C1260 C 1.01136 0.30267 0.78047 0.0
C1261 C 0.03823 0.30924 0.79551 0.0
H1262 H 0.98943 0.27972 0.74456 0.0
C1263 C 0.06352 0.2928 0.78635 0.0
H1264 H 0.99138 0.31477 0.78594 0.0
C1265 C 0.06236 0.27219 0.7624 0.0
C1266 C 0.03575 0.26666 0.7465 0.0
H1267 H 0.08492 0.29712 0.79667 0.0
H1268 H 0.08288 0.26217 0.75501 0.0
C1269 C 1.01024 0.28212 0.75658 0.0
C1270 C 0.77991 0.02135 0.74852 0.0
C1271 C 0.78618 0.05164 0.74176 0.0
H1272 H 0.75261 0.98927 0.77295 0.0
C1273 C 0.77114 0.07279 0.75924 0.0
H1274 H 0.79018 1.0042 0.73541 0.0
C1275 C 0.75033 0.06412 0.78191 0.0
C1276 C 0.74257 0.03387 0.78733 0.0
H1277 H 0.77472 0.09634 0.75465 0.0
H1278 H 0.73875 0.08138 0.79366 0.0
C1279 C 0.75819 1.01273 0.77032 0.0
C1280 C 0.29827 0.28687 1.01354 0.0
C1281 C 0.3159 0.27637 0.03788 0.0
H1282 H 0.26576 0.31853 0.99669 0.0
C1283 C 0.31101 0.29048 0.06534 0.0
H1284 H 0.30133 0.27731 0.99175 0.0
C1285 C 0.29083 0.31458 0.06797 0.0
C1286 C 0.27381 0.32572 0.04354 0.0
H1287 H 0.32405 0.28402 0.08465 0.0
H1288 H 0.28928 0.32531 0.08937 0.0
C1289 C 0.27754 0.31074 0.01633 0.0
C1290 C 0.28682 0.79103 0.04018 0.0
C1291 C 0.30623 0.80104 0.01684 0.0
H1292 H 0.25366 0.75866 0.05584 0.0
C1293 C 0.30459 0.78508 0.99006 0.0
H1294 H 0.28737 0.80214 0.06142 0.0
C1295 C 0.2855 0.75987 0.98708 0.0
C1296 C 0.26669 0.74925 1.01054 0.0
H1297 H 0.31905 0.79131 0.97155 0.0
H1298 H 0.28605 0.74816 0.96616 0.0
C1299 C 0.26733 0.76582 0.03705 0.0
C1300 C 0.77387 0.32476 0.02497 0.0
C1301 C 0.78759 0.33205 0.05243 0.0
H1302 H 0.74204 0.29661 1.00172 0.0
C1303 C 0.78077 0.31309 0.07699 0.0
H1304 H 0.77779 0.33898 1.00555 0.0
C1305 C 0.7609 0.28851 0.07468 0.0
C1306 C 0.74588 0.28182 0.04782 0.0
H1307 H 0.79033 0.31777 0.09862 0.0
H1308 H 0.7562 0.27544 0.09472 0.0
C1309 C 0.75319 0.30028 0.02276 0.0
C1310 C 0.77065 0.76284 0.04186 0.0
C1311 C 0.78019 0.75605 1.01265 0.0
H1312 H 0.73947 0.78642 0.06962 0.0
C1313 C 0.76719 0.77317 0.98931 0.0
H1314 H 0.77891 0.74978 0.06057 0.0
C1315 C 0.74516 0.79509 0.99463 0.0
C1316 C 0.73429 0.80084 0.0236 0.0
H1317 H 0.77294 0.76847 0.9664 0.0
H1318 H 0.73469 0.80574 0.97555 0.0
C1319 C 0.74792 0.7843 0.04711 0.0
C1320 C 0.49538 0.7793 0.798 0.0
C1321 C 0.52171 0.77983 0.8154 0.0
H1322 H 0.47008 0.79911 0.76161 0.0
C1323 C 0.54374 0.80103 0.80621 0.0
H1324 H 0.47727 0.76434 0.80444 0.0
C1325 C 0.53965 0.8211 0.78171 0.0
C1326 C 0.51302 0.82157 0.76494 0.0
H1327 H 0.56414 0.80303 0.81899 0.0
H1328 H 0.55715 0.83729 0.77673 0.0
C1329 C 0.49116 0.79969 0.77334 0.0
C1330 C 0.25255 0.50908 0.79149 0.0
C1331 C 0.24092 0.5348 0.77679 0.0
H1332 H 0.28298 0.49034 0.8241 0.0
C1333 C 0.25458 0.56221 0.78423 0.0
H1334 H 0.24294 0.48736 0.78704 0.0
C1335 C 0.27831 0.56376 0.80538 0.0
C1336 C 0.28931 0.53808 0.8207 0.0
H1337 H 0.24656 0.58268 0.7741 0.0
H1338 H 0.28743 0.58553 0.81046 0.0
C1339 C 0.27584 0.51069 0.81304 0.0
C1340 C 0.55944 0.25757 0.79429 0.0
C1341 C 0.53714 0.24869 0.77365 0.0
H1342 H 0.57288 0.28577 0.83064 0.0
C1343 C 0.51054 0.26529 0.77415 0.0
H1344 H 0.58014 0.24542 0.7954 0.0
C1345 C 0.50618 0.28861 0.79513 0.0
C1346 C 0.52828 0.29679 0.81638 0.0
H1347 H 0.49233 0.25912 0.75959 0.0
H1348 H 0.48479 0.29954 0.79545 0.0
C1349 C 0.55528 0.28104 0.81483 0.0
C1350 C 0.77248 0.54211 0.80139 0.0
C1351 C 0.76982 0.51538 0.81836 0.0
H1352 H 0.79457 0.56633 0.76541 0.0
C1353 C 0.78771 0.49139 0.80872 0.0
H1354 H 0.75984 0.56139 0.80783 0.0
C1355 C 0.80791 0.49418 0.78424 0.0
C1356 C 0.81138 0.52117 0.76788 0.0
H1357 H 0.78692 0.47034 0.82091 0.0
H1358 H 0.82175 0.47538 0.77892 0.0
C1359 C 0.79271 0.5449 0.7768 0.0
C1360 C 0.49908 0.25968 0.28823 0.0
C1361 C 0.52278 0.24188 0.29943 0.0
H1362 H 0.48379 0.29284 0.25616 0.0
C1363 C 0.55092 0.2472 0.286 0.0
H1364 H 0.47686 0.25652 0.29732 0.0
C1365 C 0.55491 0.26853 0.26225 0.0
C1366 C 0.531 0.2856 0.25038 0.0
H1367 H 0.56984 0.23413 0.29317 0.0
H1368 H 0.57689 0.27087 0.2524 0.0
C1369 C 0.50303 0.28085 0.26433 0.0
C1370 C 0.77758 0.51783 0.25525 0.0
C1371 C 0.76199 0.54362 0.24587 0.0
H1372 H 0.81303 0.49906 0.2821 0.0
C1373 C 0.76951 0.57016 0.26113 0.0
H1374 H 0.77347 0.49698 0.24408 0.0
C1375 C 0.79233 0.57134 0.28319 0.0
C1376 C 0.80873 0.54594 0.29186 0.0
H1377 H 0.75877 0.5908 0.25478 0.0
H1378 H 0.79846 0.59282 0.29216 0.0
C1379 C 0.8004 0.51903 0.27755 0.0
C1380 C 0.49291 0.77547 0.26218 0.0
C1381 C 0.51801 0.76371 0.24702 0.0
H1382 H 0.47551 0.80557 0.29511 0.0
C1383 C 0.54611 0.77398 0.25712 0.0
H1384 H 0.47067 0.7688 0.25547 0.0
C1385 C 0.54884 0.79508 0.28061 0.0
C1386 C 0.52367 0.80746 0.29517 0.0
H1387 H 0.56616 0.76625 0.24639 0.0
H1388 H 0.57103 0.80249 0.2867 0.0
C1389 C 0.49563 0.79683 0.28535 0.0
C1390 C 0.26045 0.56824 0.26288 0.0
C1391 C 0.27615 0.5472 0.24569 0.0
H1392 H 0.22747 0.57661 0.29703 0.0
C1393 C 0.2697 0.51688 0.25247 0.0
H1394 H 0.264 0.59181 0.2584 0.0
C1395 C 0.2476 0.50817 0.27398 0.0
C1396 C 0.23155 0.52919 0.2908 0.0
H1397 H 0.28042 0.49968 0.23983 0.0
H1398 H 0.24244 0.48465 0.27682 0.0
C1399 C 0.2392 0.55946 0.28527 0.0
C1400 C 0.77022 0.80587 0.5117 0.0
C1401 C 0.7618 0.81625 0.54006 0.0
H1402 H 0.79873 0.7776 0.48589 0.0
C1403 C 0.77673 0.80275 0.56477 0.0
H1404 H 0.76007 0.81544 0.49189 0.0
C1405 C 0.79941 0.78096 0.56137 0.0
C1406 C 0.80841 0.77116 0.533 0.0
H1407 H 0.77156 0.80982 0.58715 0.0
H1408 H 0.81057 0.77248 0.58111 0.0
C1409 C 0.79278 0.7839 0.50831 0.0
C1410 C 0.79131 0.28377 0.54518 0.0
C1411 C 0.81313 0.29142 0.52309 0.0
H1412 H 0.7548 0.25444 0.55954 0.0
C1413 C 0.81257 0.27398 0.49723 0.0
H1414 H 0.79079 0.29609 0.56572 0.0
C1415 C 0.79186 0.25005 0.49376 0.0
C1416 C 0.77034 0.24189 0.51588 0.0
H1417 H 0.82874 0.27839 0.47967 0.0
H1418 H 0.79321 0.23742 0.47345 0.0
C1419 C 0.77041 0.25961 0.54168 0.0
C1420 C 0.25913 0.79042 0.57176 0.0
C1421 C 0.23937 0.78716 0.54735 0.0
H1422 H 0.29561 0.8146 0.59196 0.0
C1423 C 0.24375 0.80758 0.52321 0.0
H1424 H 0.25659 0.7758 0.59111 0.0
C1425 C 0.26607 0.83063 0.524 0.0
C1426 C 0.28547 0.83412 0.54873 0.0
H1427 H 0.22894 0.80672 0.50418 0.0
H1428 H 0.26761 0.84629 0.50539 0.0
C1429 C 0.28173 0.813 0.5723 0.0
C1430 C 0.24041 0.29438 0.54744 0.0
C1431 C 0.23779 0.316 0.52421 0.0
H1432 H 0.25949 0.25274 0.56272 0.0
C1433 C 0.25723 0.31242 0.49951 0.0
H1434 H 0.22573 0.29532 0.56659 0.0
C1435 C 0.27712 0.28792 0.49747 0.0
C1436 C 0.27891 0.26569 0.52014 0.0
H1437 H 0.25594 0.32784 0.48071 0.0
H1438 H 0.28973 0.28535 0.47707 0.0
C1439 C 0.2602 0.26976 0.54528 0.0
C1440 C 0.12698 0.16206 0.40635 0.0
C1441 C 0.09735 0.15573 0.398 0.0
H1442 H 0.17138 0.14616 0.4118 0.0
C1443 C 0.09023 0.12698 0.38799 0.0
H1444 H 0.13345 0.18396 0.41403 0.0
C1445 C 0.11234 0.10496 0.38692 0.0
C1446 C 0.14187 0.11153 0.39554 0.0
H1447 H 0.06765 0.12145 0.38137 0.0
H1448 H 0.10634 0.08283 0.37954 0.0
C1449 C 0.14889 0.14036 0.40501 0.0
C1450 C 0.91608 0.15616 0.40422 0.0
C1451 C 0.94445 0.15126 0.39202 0.0
H1452 H 0.87251 0.13817 0.4137 0.0
C1453 C 0.95006 0.12378 0.37864 0.0
H1454 H 0.91111 0.17713 0.41466 0.0
C1455 C 0.92809 0.10126 0.37844 0.0
C1456 C 0.89985 0.10591 0.39117 0.0
H1457 H 0.97174 0.11935 0.36911 0.0
H1458 H 0.93337 0.08004 0.36867 0.0
C1459 C 0.89395 0.13384 0.40359 0.0
C1460 C 0.96921 0.93265 0.38975 0.0
C1461 C 0.9606 0.90275 0.39577 0.0
H1462 H 0.95588 0.97844 0.38593 0.0
C1463 C 0.93044 0.89661 0.40217 0.0
H1464 H 0.99225 0.93837 0.38483 0.0
C1465 C 0.90952 0.91974 0.40249 0.0
C1466 C 0.91829 0.94961 0.39676 0.0
H1467 H 0.92299 0.87396 0.40694 0.0
H1468 H 0.88645 0.91425 0.40756 0.0
C1469 C 0.94839 0.95576 0.39041 0.0
C1470 C 0.12881 0.96986 0.37844 0.0
C1471 C 0.15612 0.96387 0.39264 0.0
H1472 H 0.08418 0.95433 0.3696 0.0
C1473 C 0.15935 0.93714 0.4089 0.0
H1474 H 0.12574 0.99044 0.36586 0.0
C1475 C 0.13554 0.91711 0.41163 0.0
C1476 C 0.10819 0.92311 0.39769 0.0
H1477 H 0.17999 0.93204 0.42034 0.0
H1478 H 0.13864 0.89682 0.42467 0.0
C1479 C 0.10504 0.9494 0.38068 0.0
C1480 C 0.15535 0.91442 0.65434 0.0
C1481 C 0.14999 0.94268 0.66638 0.0
H1482 H 0.13774 0.87067 0.64509 0.0
C1483 C 0.12206 0.94792 0.67927 0.0
H1484 H 0.1767 0.90968 0.64423 0.0
C1485 C 0.09985 0.92568 0.67974 0.0
C1486 C 0.10492 0.8975 0.66737 0.0
H1487 H 0.11721 0.96939 0.68874 0.0
H1488 H 0.07848 0.93078 0.68961 0.0
C1489 C 0.13307 0.89204 0.65485 0.0
C1490 C 0.10959 0.10734 0.67445 0.0
C1491 C 0.11596 0.13754 0.6681 0.0
H1492 H 0.12689 0.06305 0.67912 0.0
C1493 C 0.14556 0.14626 0.66198 0.0
H1494 H 0.08695 0.10003 0.67924 0.0
C1495 C 0.16828 0.12522 0.66168 0.0
C1496 C 0.16202 0.09492 0.66775 0.0
H1497 H 0.15115 0.16937 0.65698 0.0
H1498 H 0.19078 0.13274 0.6565 0.0
C1499 C 0.13246 0.08622 0.67442 0.0
C1500 C 0.93856 0.15636 0.69009 0.0
C1501 C 0.96665 0.14764 0.67973 0.0
H1502 H 0.89319 0.14402 0.69845 0.0
C1503 C 0.97096 0.11773 0.67222 0.0
H1504 H 0.93469 0.1792 0.69641 0.0
C1505 C 0.94688 0.09741 0.6731 0.0
C1506 C 0.91834 0.10669 0.68195 0.0
H1507 H 0.99242 0.11047 0.66416 0.0
H1508 H 0.95032 0.07484 0.66576 0.0
C1509 C 0.91477 0.13611 0.69139 0.0
C1510 C 0.96204 0.94886 0.68488 0.0
C1511 C 0.95764 0.92373 0.66718 0.0
H1512 H 0.94309 0.98933 0.70092 0.0
C1513 C 0.92989 0.91898 0.65351 0.0
H1514 H 0.98321 0.95275 0.69584 0.0
C1515 C 0.907 0.93922 0.65694 0.0
C1516 C 0.91154 0.96487 0.67377 0.0
H1517 H 0.92576 0.89953 0.64005 0.0
H1518 H 0.88603 0.93519 0.64565 0.0
C1519 C 0.93911 0.96953 0.68797 0.0
C1520 C 0.40577 0.12211 0.172 0.0
C1521 C 0.39289 0.09441 0.16517 0.0
H1522 H 0.41736 0.16616 0.15644 0.0
C1523 C 0.38055 0.09052 0.13657 0.0
H1524 H 0.41536 0.12587 0.19373 0.0
C1525 C 0.38159 0.11365 0.11515 0.0
C1526 C 0.39513 0.14105 0.12185 0.0
H1527 H 0.37043 0.06944 0.13054 0.0
H1528 H 0.37216 0.10995 0.09327 0.0
C1529 C 0.40697 0.14514 0.15056 0.0
C1530 C 0.94908 0.3651 0.13459 0.0
C1531 C 0.97159 0.38704 0.13534 0.0
H1532 H 0.90853 0.35036 0.11428 0.0
C1533 C 0.97221 0.40949 0.11299 0.0
H1534 H 0.94805 0.34751 0.15145 0.0
C1535 C 0.94938 0.41131 0.09175 0.0
C1536 C 0.92568 0.3906 0.09242 0.0
H1537 H 0.98935 0.42671 0.11295 0.0
H1538 H 0.94945 0.42983 0.0759 0.0
C1539 C 0.92641 0.3668 0.11328 0.0
C1540 C 0.66719 0.97974 0.12329 0.0
C1541 C 0.66563 0.96959 0.15318 0.0
H1542 H 0.66584 0.96791 0.0769 0.0
C1543 C 0.66263 0.93875 0.15886 0.0
H1544 H 0.66931 1.00335 0.11813 0.0
C1545 C 0.66097 0.91862 0.13542 0.0
C1546 C 0.66182 0.9287 0.10557 0.0
H1547 H 0.66133 0.93007 0.18154 0.0
H1548 H 0.65845 0.89507 0.14074 0.0
C1549 C 0.66507 0.95949 0.09969 0.0
C1550 C 0.09372 0.6915 0.11636 0.0
C1551 C 0.10026 0.69109 0.14692 0.0
H1552 H 0.11089 0.68934 0.07183 0.0
C1553 C 0.13027 0.68889 0.15599 0.0
H1554 H 0.07084 0.69285 0.10878 0.0
C1555 C 0.1531 0.68555 0.13492 0.0
C1556 C 0.14643 0.68555 0.1044 0.0
H1557 H 0.13599 0.68819 0.17945 0.0
H1558 H 0.17585 0.68276 0.14247 0.0
C1559 C 0.11665 0.68935 0.0953 0.0
C1560 C 0.40457 0.9475 0.8888 0.0
C1561 C 0.39157 0.97508 0.89466 0.0
H1562 H 0.41492 0.9039 0.90553 0.0
C1563 C 0.37759 0.97924 0.92242 0.0
H1564 H 0.41552 0.9436 0.86768 0.0
C1565 C 0.37716 0.95642 0.9441 0.0
C1566 C 0.39089 0.9292 0.93842 0.0
H1567 H 0.36733 1.00027 0.9276 0.0
H1568 H 0.36657 0.96025 0.96541 0.0
C1569 C 0.40433 0.92482 0.91052 0.0
C1570 C 0.15423 0.40571 0.91809 0.0
C1571 C 0.14823 0.39234 0.94616 0.0
H1572 H 0.13782 0.41635 0.87416 0.0
C1573 C 0.12037 0.37834 0.95078 0.0
H1574 H 0.17545 0.41679 0.91386 0.0
C1575 C 0.09878 0.37826 0.92816 0.0
C1576 C 0.10447 0.39208 0.90023 0.0
H1577 H 0.11498 0.36795 0.97214 0.0
H1578 H 0.07742 0.36761 0.93276 0.0
C1579 C 0.13263 0.40551 0.89535 0.0
C1580 C 0.65144 0.15904 0.93984 0.0
C1581 C 0.66326 0.15302 0.96824 0.0
H1582 H 0.64334 0.14333 0.89604 0.0
C1583 C 0.67645 0.12533 0.97421 0.0
H1584 H 0.64123 0.18025 0.93456 0.0
C1585 C 0.67745 0.10381 0.9519 0.0
C1586 C 0.66557 0.11011 0.9235 0.0
H1587 H 0.68573 0.12031 0.996 0.0
H1588 H 0.68743 0.08241 0.95678 0.0
C1589 C 0.65273 0.1379 0.91771 0.0
C1590 C 0.92582 0.69199 0.90261 0.0
C1591 C 0.95384 0.68026 0.9097 0.0
H1592 H 0.88345 0.70611 0.91885 0.0
C1593 C 0.96086 0.67484 0.93994 0.0
H1594 H 0.9198 0.69652 0.87959 0.0
C1595 C 0.93985 0.6798 0.96248 0.0
C1596 C 0.91163 0.69106 0.95537 0.0
H1597 H 0.98231 0.66578 0.94615 0.0
H1598 H 0.94545 0.6742 0.98539 0.0
C1599 C 0.90512 0.69772 0.92522 0.0
C1600 C 0.15164 0.37921 0.12535 0.0
C1601 C 0.14333 0.38265 0.09515 0.0
H1602 H 0.13816 0.3816 0.17123 0.0
C1603 C 0.11347 0.38873 0.08831 0.0
H1604 H 0.1745 0.37463 0.13148 0.0
C1605 C 0.09247 0.39164 0.11126 0.0
C1606 C 0.10131 0.38979 0.14134 0.0
H1607 H 0.10651 0.39171 0.06533 0.0
H1608 H 0.06955 0.39647 0.10552 0.0
C1609 C 0.13098 0.38341 0.1482 0.0
C1610 C 0.10535 0.66093 0.97863 0.0
C1611 C 0.12885 0.68161 0.97467 0.0
H1612 H 0.06734 0.63965 0.95866 0.0
C1613 C 0.13052 0.69876 0.94817 0.0
H1614 H 0.10369 0.64741 0.99885 0.0
C1615 C 0.11067 0.69349 0.92502 0.0
C1616 C 0.0882 0.67176 0.92835 0.0
H1617 H 0.14843 0.71482 0.94443 0.0
H1618 H 0.11331 0.70597 0.90424 0.0
C1619 C 0.08481 0.65633 0.95566 0.0
C1620 C 0.40063 0.17738 0.94302 0.0
C1621 C 0.39249 0.16881 0.97223 0.0
H1622 H 0.40818 0.16392 0.89801 0.0
C1623 C 0.38453 0.13867 0.97777 0.0
H1624 H 0.40661 0.2003 0.9378 0.0
C1625 C 0.38525 0.11764 0.9548 0.0
C1626 C 0.39399 0.12626 0.92576 0.0
H1627 H 0.37813 0.13116 1.0 0.0
H1628 H 0.37935 0.09462 0.95987 0.0
C1629 C 0.40145 0.15643 0.92016 0.0
C1630 C 0.92609 0.41172 0.91271 0.0
C1631 C 0.95221 0.39556 0.91848 0.0
H1632 H 0.88406 0.42646 0.92939 0.0
C1633 C 0.95513 0.38023 0.94582 0.0
H1634 H 0.92317 0.42364 0.89169 0.0
C1635 C 0.93253 0.38171 0.96734 0.0
C1636 C 0.90678 0.39858 0.9618 0.0
H1637 H 0.97498 0.36754 0.95072 0.0
H1638 H 0.93554 0.37027 0.98859 0.0
C1639 C 0.90361 0.41326 0.93418 0.0
C1640 C 0.66363 0.93225 0.90008 0.0
C1641 C 0.66877 0.96218 0.90769 0.0
H1642 H 0.65679 0.8872 0.91551 0.0
C1643 C 0.6723 0.96898 0.93803 0.0
H1644 H 0.66063 0.92616 0.87699 0.0
C1645 C 0.67022 0.94651 0.96019 0.0
C1646 C 0.6643 0.9167 0.9526 0.0
H1647 H 0.67619 0.99177 0.94474 0.0
H1648 H 0.67266 0.95264 0.98333 0.0
C1649 C 0.66131 0.90986 0.92223 0.0
C1650 C 0.95844 0.69714 0.11497 0.0
C1651 C 0.95333 0.68209 0.14228 0.0
H1652 H 0.94015 0.71059 0.07262 0.0
C1653 C 0.92464 0.67076 0.14867 0.0
H1654 H 0.98035 0.70614 0.10955 0.0
C1655 C 0.90173 0.67343 0.12775 0.0
C1656 C 0.90704 0.68746 0.09999 0.0
H1657 H 0.92002 0.65919 0.16963 0.0
H1658 H 0.88009 0.66367 0.13299 0.0
C1659 C 0.93544 0.69977 0.09394 0.0
C1660 C 0.4088 0.91982 0.13779 0.0
C1661 C 0.39653 0.94826 0.13369 0.0
H1662 H 0.416 0.87681 0.11969 0.0
C1663 C 0.38162 0.95505 0.10697 0.0
H1664 H 0.42032 0.91389 0.15825 0.0
C1665 C 0.37923 0.93365 0.08462 0.0
C1666 C 0.39149 0.90513 0.08887 0.0
H1667 H 0.3719 0.97681 0.10336 0.0
H1668 H 0.3678 0.93941 0.06409 0.0
C1669 C 0.40621 0.89848 0.11573 0.0
C1670 C 0.68448 0.14727 0.10649 0.0
C1671 C 0.66712 0.17264 0.11163 0.0
H1672 H 0.6971 0.10362 0.12176 0.0
C1673 C 0.64953 0.17348 0.13751 0.0
H1674 H 0.69833 0.14595 0.08674 0.0
C1675 C 0.64869 0.14906 0.15742 0.0
C1676 C 0.6656 0.1235 0.1519 0.0
H1677 H 0.63588 0.19265 0.14203 0.0
H1678 H 0.63455 0.15007 0.17699 0.0
C1679 C 0.6838 0.12298 0.12648 0.0
C1680 C 0.62464 0.66269 0.90741 0.0
C1681 C 0.59651 0.65731 0.8947 0.0
H1682 H 0.66794 0.64565 0.91736 0.0
C1683 C 0.59065 0.62939 0.88201 0.0
H1684 H 0.62975 0.68377 0.91774 0.0
C1685 C 0.61254 0.60732 0.88212 0.0
C1686 C 0.64067 0.61288 0.89477 0.0
H1687 H 0.56913 0.62456 0.87214 0.0
H1688 H 0.60745 0.58592 0.8724 0.0
C1689 C 0.64652 0.6408 0.90729 0.0
C1690 C 0.43254 0.59324 0.89331 0.0
C1691 C 0.4029 0.60248 0.897 0.0
H1692 H 0.47867 0.60684 0.89003 0.0
C1693 C 0.39702 0.63305 0.89888 0.0
H1694 H 0.43769 0.56979 0.89182 0.0
C1695 C 0.42016 0.65396 0.89759 0.0
C1696 C 0.44982 0.64487 0.89464 0.0
H1697 H 0.37445 0.64096 0.90151 0.0
H1698 H 0.41477 0.67734 0.89942 0.0
C1699 C 0.45593 0.61435 0.89232 0.0
C1700 C 0.40204 0.41929 0.91208 0.0
C1701 C 0.40695 0.44673 0.89696 0.0
H1702 H 0.41914 0.37595 0.92351 0.0
C1703 C 0.43346 0.45072 0.88058 0.0
H1704 H 0.3818 0.4155 0.92489 0.0
C1705 C 0.4549 0.4282 0.87997 0.0
C1706 C 0.45033 0.40091 0.8955 0.0
H1707 H 0.43795 0.47153 0.86871 0.0
H1708 H 0.47532 0.43237 0.86756 0.0
C1709 C 0.4234 0.39659 0.91123 0.0
C1710 C 0.5984 0.45208 0.87994 0.0
C1711 C 0.60124 0.42527 0.89622 0.0
H1712 H 0.61978 0.49319 0.86596 0.0
C1713 C 0.62875 0.41842 0.90945 0.0
H1714 H 0.57743 0.45773 0.86943 0.0
C1715 C 0.6529 0.43804 0.90689 0.0
C1716 C 0.65004 0.46534 0.89152 0.0
H1717 H 0.63172 0.39773 0.92188 0.0
H1718 H 0.67359 0.43209 0.91779 0.0
C1719 C 0.62261 0.47221 0.87789 0.0
C1720 C 0.58894 0.42453 0.18292 0.0
C1721 C 0.59533 0.39527 0.17409 0.0
H1722 H 0.60519 0.4693 0.1886 0.0
C1723 C 0.62463 0.38893 0.16535 0.0
H1724 H 0.56664 0.43035 0.18988 0.0
C1725 C 0.6467 0.4114 0.16436 0.0
C1726 C 0.64004 0.44074 0.17246 0.0
H1727 H 0.63042 0.36671 0.15895 0.0
H1728 H 0.66892 0.40584 0.15694 0.0
C1729 C 0.61102 0.44694 0.18218 0.0
C1730 C 0.63023 0.64271 0.15471 0.0
C1731 C 0.60242 0.63634 0.16787 0.0
H1732 H 0.67359 0.62748 0.14388 0.0
C1733 C 0.59751 0.608 0.1811 0.0
H1734 H 0.63482 0.66431 0.14437 0.0
C1735 C 0.62009 0.58636 0.1807 0.0
C1736 C 0.64789 0.5929 0.16721 0.0
H1737 H 0.57622 0.60248 0.19136 0.0
H1738 H 0.61578 0.5646 0.19075 0.0
C1739 C 0.65257 0.62144 0.15445 0.0
C1740 C 0.39589 0.64425 0.16833 0.0
C1741 C 0.4011 0.61409 0.17538 0.0
H1742 H 0.41452 0.68783 0.16039 0.0
C1743 C 0.43066 0.60538 0.18127 0.0
H1744 H 0.37354 0.65184 0.16347 0.0
C1745 C 0.45438 0.62624 0.17967 0.0
C1746 C 0.44914 0.65623 0.17177 0.0
H1747 H 0.43556 0.58233 0.18665 0.0
H1748 H 0.47686 0.61873 0.18395 0.0
C1749 C 0.41952 0.66494 0.16641 0.0
C1750 C 0.43753 0.47024 0.18088 0.0
C1751 C 0.40872 0.46515 0.16965 0.0
H1752 H 0.48106 0.45191 0.18833 0.0
C1753 C 0.40152 0.43754 0.15726 0.0
H1754 H 0.44351 0.4915 0.19043 0.0
C1755 C 0.42273 0.41536 0.15585 0.0
C1756 C 0.45156 0.42026 0.16692 0.0
H1757 H 0.37948 0.43307 0.14839 0.0
H1758 H 0.41642 0.39429 0.14607 0.0
C1759 C 0.45892 0.44778 0.17958 0.0
C1760 C 0.90512 0.62961 0.67423 0.0
C1761 C 0.89043 0.60225 0.66965 0.0
H1762 H 0.91746 0.67244 0.65554 0.0
C1763 C 0.87561 0.59782 0.64234 0.0
H1764 H 0.91679 0.63367 0.69493 0.0
C1765 C 0.87599 0.61987 0.61992 0.0
C1766 C 0.89126 0.64686 0.62417 0.0
H1767 H 0.86396 0.57706 0.63803 0.0
H1768 H 0.86466 0.61557 0.59907 0.0
C1769 C 0.9056 0.6517 0.65164 0.0
C1770 C 0.42254 0.94467 0.6126 0.0
C1771 C 0.41551 0.92089 0.59383 0.0
H1772 H 0.44744 0.95979 0.65005 0.0
C1773 C 0.43238 0.89465 0.59614 0.0
H1774 H 0.41017 0.96526 0.61127 0.0
C1775 C 0.45437 0.89163 0.61846 0.0
C1776 C 0.45942 0.91475 0.63873 0.0
H1777 H 0.42735 0.87591 0.58203 0.0
H1778 H 0.46581 0.87064 0.62116 0.0
C1779 C 0.44397 0.94155 0.63485 0.0
C1780 C 0.17355 0.4646 0.61466 0.0
C1781 C 0.16176 0.43584 0.6199 0.0
H1782 H 0.18319 0.5076 0.63289 0.0
C1783 C 0.1519 0.42796 0.64879 0.0
H1784 H 0.18138 0.47124 0.59263 0.0
C1785 C 0.15325 0.44853 0.67185 0.0
C1786 C 0.16414 0.47764 0.66656 0.0
H1787 H 0.14291 0.40586 0.65359 0.0
H1788 H 0.14537 0.44169 0.69375 0.0
C1789 C 0.17462 0.48536 0.63775 0.0
C1790 C 0.59422 0.18676 0.61895 0.0
C1791 C 0.60003 0.1855 0.64966 0.0
H1792 H 0.61221 0.18474 0.57474 0.0
C1793 C 0.62966 0.18162 0.65934 0.0
H1794 H 0.57163 0.18944 0.61088 0.0
C1795 C 0.65277 0.17764 0.63867 0.0
C1796 C 0.64681 0.17864 0.60798 0.0
H1797 H 0.63481 0.18026 0.68292 0.0
H1798 H 0.67519 0.17368 0.64665 0.0
C1799 C 0.61746 0.18396 0.59833 0.0
C1800 C 0.8656 0.4403 0.4466 0.0
C1801 C 0.88224 0.41466 0.44109 0.0
H1802 H 0.8523 0.48344 0.43066 0.0
C1803 C 0.8967 0.41207 0.41344 0.0
H1804 H 0.85425 0.44288 0.46774 0.0
C1805 C 0.89527 0.43512 0.39201 0.0
C1806 C 0.87974 0.46139 0.39803 0.0
H1807 H 0.90965 0.39249 0.40861 0.0
H1808 H 0.90728 0.43278 0.37121 0.0
C1809 C 0.86454 0.46354 0.42537 0.0
C1810 C 0.58158 0.87831 0.43061 0.0
C1811 C 0.58759 0.89141 0.40236 0.0
H1812 H 0.59766 0.86887 0.47496 0.0
C1813 C 0.61559 0.90503 0.39749 0.0
H1814 H 0.56024 0.8676 0.43516 0.0
C1815 C 0.63687 0.90587 0.42036 0.0
C1816 C 0.63079 0.89296 0.44862 0.0
H1817 H 0.62099 0.91535 0.3761 0.0
H1818 H 0.65814 0.91676 0.41589 0.0
C1819 C 0.60298 0.879 0.45346 0.0
C1820 C 0.17339 0.60555 0.44598 0.0
C1821 C 0.15881 0.6105 0.41862 0.0
H1822 H 0.18472 0.62345 0.48876 0.0
C1823 C 0.14491 0.63781 0.41303 0.0
H1824 H 0.18422 0.58454 0.45072 0.0
C1825 C 0.14501 0.65967 0.43461 0.0
C1826 C 0.15915 0.65472 0.46215 0.0
H1827 H 0.13352 0.64216 0.39213 0.0
H1828 H 0.13379 0.68044 0.42971 0.0
C1829 C 0.17364 0.62765 0.46767 0.0
C1830 C 0.44947 0.17388 0.43462 0.0
C1831 C 0.44228 0.16855 0.40451 0.0
H1832 H 0.4337 0.18238 0.47888 0.0
C1833 C 0.41207 0.16868 0.39627 0.0
H1834 H 0.47248 0.17398 0.44192 0.0
C1835 C 0.38973 0.17403 0.4176 0.0
C1836 C 0.39699 0.17898 0.4478 0.0
H1837 H 0.40569 0.16488 0.37334 0.0
H1838 H 0.36669 0.17391 0.41042 0.0
C1839 C 0.4272 0.17883 0.45594 0.0
C1840 C 0.59757 0.88021 0.62193 0.0
C1841 C 0.60288 0.89515 0.64884 0.0
H1842 H 0.61441 0.86847 0.57877 0.0
C1843 C 0.63078 0.909 0.65292 0.0
H1844 H 0.57623 0.86943 0.61801 0.0
C1845 C 0.65271 0.90825 0.63056 0.0
C1846 C 0.64725 0.89392 0.60331 0.0
H1847 H 0.63557 0.92076 0.6733 0.0
H1848 H 0.67383 0.91947 0.63447 0.0
C1849 C 0.61942 0.87974 0.59937 0.0
C1850 C 0.59337 0.19225 0.44562 0.0
C1851 C 0.58186 0.16397 0.43863 0.0
H1852 H 0.62591 0.21678 0.47075 0.0
C1853 C 0.59159 0.13887 0.45471 0.0
H1854 H 0.58623 0.21191 0.43334 0.0
C1855 C 0.61344 0.14175 0.47663 0.0
C1856 C 0.62663 0.16969 0.48216 0.0
H1857 H 0.58296 0.11686 0.4497 0.0
H1858 H 0.62133 0.12177 0.48784 0.0
C1859 C 0.61599 0.19504 0.46696 0.0
C1860 C 0.88219 0.60688 0.45893 0.0
C1861 C 0.88064 0.61452 0.42841 0.0
H1862 H 0.88481 0.62264 0.50391 0.0
C1863 C 0.88036 0.64488 0.42006 0.0
H1864 H 0.88257 0.58369 0.46603 0.0
C1865 C 0.88232 0.66711 0.44157 0.0
C1866 C 0.88395 0.6596 0.47211 0.0
H1867 H 0.87942 0.65154 0.39673 0.0
H1868 H 0.88263 0.69025 0.43422 0.0
C1869 C 0.88346 0.6292 0.48058 0.0
C1870 C 0.38825 0.91411 0.43288 0.0
C1871 C 0.39214 0.90099 0.46118 0.0
H1872 H 0.4071 0.92253 0.38961 0.0
C1873 C 0.41829 0.88492 0.4672 0.0
H1874 H 0.36837 0.92669 0.42774 0.0
C1875 C 0.44059 0.88276 0.44553 0.0
C1876 C 0.43701 0.89652 0.4175 0.0
H1877 H 0.42187 0.87466 0.48894 0.0
H1878 H 0.46076 0.87073 0.45086 0.0
C1879 C 0.41048 0.91182 0.41118 0.0
C1880 C 0.17934 0.44086 0.41513 0.0
C1881 C 0.17283 0.47064 0.42166 0.0
H1882 H 0.18069 0.39559 0.43108 0.0
C1883 C 0.1651 0.47778 0.45106 0.0
H1884 H 0.18505 0.43454 0.39262 0.0
C1885 C 0.16313 0.45543 0.47329 0.0
C1886 C 0.168 0.42544 0.46627 0.0
H1887 H 0.15977 0.50051 0.45666 0.0
H1888 H 0.15651 0.46142 0.49563 0.0
C1889 C 0.17657 0.41847 0.43708 0.0
C1890 C 0.40168 0.17716 0.62569 0.0
C1891 C 0.40803 0.18807 0.59682 0.0
H1892 H 0.41882 0.16467 0.66849 0.0
C1893 C 0.43755 0.19613 0.58938 0.0
H1894 H 0.37914 0.17071 0.63203 0.0
C1895 C 0.46045 0.1927 0.61044 0.0
C1896 C 0.45405 0.18099 0.63904 0.0
H1897 H 0.44301 0.20448 0.56718 0.0
H1898 H 0.48313 0.19864 0.60419 0.0
C1899 C 0.42443 0.17358 0.64653 0.0
C1900 C 0.91614 0.40995 0.61522 0.0
C1901 C 0.89554 0.41139 0.59166 0.0
H1902 H 0.93346 0.42974 0.65451 0.0
C1903 C 0.87673 0.43625 0.58948 0.0
H1904 H 0.93124 0.39137 0.61751 0.0
C1905 C 0.87791 0.45859 0.61128 0.0
C1906 C 0.89816 0.45643 0.63519 0.0
H1907 H 0.86064 0.43798 0.57156 0.0
H1908 H 0.86272 0.47714 0.60973 0.0
C1909 C 0.91751 0.43211 0.63651 0.0
C1910 C 0.17457 0.62327 0.62229 0.0
C1911 C 0.16264 0.6283 0.65068 0.0
H1912 H 0.18431 0.64164 0.57884 0.0
C1913 C 0.15277 0.657 0.65754 0.0
H1914 H 0.18246 0.60138 0.61649 0.0
C1915 C 0.15422 0.6801 0.63624 0.0
C1916 C 0.16513 0.67497 0.60748 0.0
H1917 H 0.14378 0.66163 0.67941 0.0
H1918 H 0.14646 0.70187 0.64222 0.0
C1919 C 0.17569 0.64637 0.60082 0.0
C1920 C 0.15883 0.2547 0.39768 0.0
C1921 C 0.14246 0.27593 0.38127 0.0
H1922 H 0.16864 0.2424 0.44329 0.0
C1923 C 0.14782 0.30586 0.38752 0.0
H1924 H 0.1592 0.23171 0.39069 0.0
C1925 C 0.15344 0.31258 0.41714 0.0
C1926 C 0.15707 0.28899 0.43793 0.0
H1927 H 0.13924 0.32322 0.37291 0.0
H1928 H 0.15086 0.33536 0.42432 0.0
C1929 C 0.16365 0.2605 0.42783 0.0
C1930 C 0.73343 0.16588 0.38917 0.0
C1931 C 0.7076 0.15692 0.40474 0.0
H1932 H 0.77782 0.1516 0.37934 0.0
C1933 C 0.69744 0.12757 0.40086 0.0
H1934 H 0.74002 0.18919 0.38821 0.0
C1935 C 0.71913 0.10581 0.3981 0.0
C1936 C 0.74885 0.11485 0.3935 0.0
H1937 H 0.67553 0.1207 0.40881 0.0
H1938 H 0.71327 0.0826 0.40227 0.0
C1939 C 0.75532 0.1445 0.38509 0.0
C1940 C 0.95451 0.73208 0.42807 0.0
C1941 C 0.95275 0.74607 0.40022 0.0
H1942 H 0.94703 0.73996 0.47397 0.0
C1943 C 0.92572 0.76043 0.39357 0.0
H1944 H 0.97211 0.71636 0.43288 0.0
C1945 C 0.91184 0.77558 0.41676 0.0
C1946 C 0.92236 0.77111 0.44593 0.0
H1947 H 0.92054 0.7669 0.37077 0.0
H1948 H 0.8943 0.79133 0.41193 0.0
C1949 C 0.94147 0.74686 0.45161 0.0
C1950 C 0.26945 0.9885 0.50134 0.0
C1951 C 0.26515 0.97113 0.47602 0.0
H1952 H 0.26648 0.99002 0.5486 0.0
C1953 C 0.24583 0.94617 0.47803 0.0
H1954 H 0.28116 1.00964 0.49994 0.0
C1955 C 0.23507 0.93654 0.50583 0.0
C1956 C 0.24729 0.94935 0.53142 0.0
H1957 H 0.23964 0.9337 0.45847 0.0
H1958 H 0.22352 0.91521 0.50742 0.0
C1959 C 0.25916 0.97826 0.52894 0.0
C1960 C 0.09463 0.73551 0.63235 0.0
C1961 C 0.10057 0.74328 0.66167 0.0
H1962 H 0.08869 0.75765 0.59029 0.0
C1963 C 0.12864 0.75693 0.66594 0.0
H1964 H 0.07728 0.71921 0.62794 0.0
C1965 C 0.13783 0.77827 0.64439 0.0
C1966 C 0.12162 0.78079 0.61745 0.0
H1967 H 0.13854 0.75737 0.68795 0.0
H1968 H 0.15668 0.79283 0.64884 0.0
C1969 C 0.10065 0.75792 0.61107 0.0
C1970 C 0.25881 0.11893 0.60357 0.0
C1971 C 0.2822 0.12177 0.6242 0.0
H1972 H 0.23688 0.13862 0.56619 0.0
C1973 C 0.29407 0.14985 0.63026 0.0
H1974 H 0.24681 0.09806 0.60117 0.0
C1975 C 0.28665 0.17375 0.61163 0.0
C1976 C 0.26913 0.16854 0.58605 0.0
H1977 H 0.31012 0.15288 0.64802 0.0
H1978 H 0.29872 0.1946 0.6143 0.0
C1979 C 0.25191 0.14251 0.58467 0.0
C1980 C 0.91586 0.29262 0.67308 0.0
C1981 C 0.92786 0.26424 0.67082 0.0
H1982 H 0.88472 0.32282 0.65432 0.0
C1983 C 0.91175 0.24135 0.657 0.0
H1984 H 0.92786 0.3102 0.68441 0.0
C1985 C 0.88821 0.24889 0.63843 0.0
C1986 C 0.88148 0.27902 0.63463 0.0
H1987 H 0.92064 0.21904 0.65585 0.0
H1988 H 0.87996 0.23253 0.62286 0.0
C1989 C 0.89104 0.2996 0.65598 0.0
C1990 C 0.77177 0.97127 0.65494 0.0
C1991 C 0.76998 0.99994 0.64201 0.0
H1992 H 0.77835 0.92494 0.64686 0.0
C1993 C 0.76602 1.00326 0.61119 0.0
H1994 H 0.77403 0.96822 0.67888 0.0
C1995 C 0.77053 0.97914 0.59311 0.0
C1996 C 0.77676 0.95107 0.60579 0.0
H1997 H 0.76366 0.02506 0.60068 0.0
H1998 H 0.76914 0.98264 0.56917 0.0
C1999 C 0.77566 0.94688 0.63678 0.0
C2000 C 0.41424 0.12073 0.2741 0.0
C2001 C 0.43294 0.0956 0.27538 0.0
H2002 H 0.41021 0.16578 0.25812 0.0
C2003 C 0.45654 0.09422 0.25447 0.0
H2004 H 0.3938 0.12144 0.28697 0.0
C2005 C 0.46314 0.11892 0.23617 0.0
C2006 C 0.45214 0.1461 0.24573 0.0
H2007 H 0.46989 0.07451 0.25247 0.0
H2008 H 0.48296 0.11843 0.22234 0.0
C2009 C 0.42265 0.14535 0.25624 0.0
C2010 C 0.89906 0.43721 0.20956 0.0
C2011 C 0.90647 0.41152 0.22602 0.0
H2012 H 0.88571 0.48241 0.21449 0.0
C2013 C 0.8905 0.40415 0.25202 0.0
H2014 H 0.90977 0.44236 0.18835 0.0
C2015 C 0.87555 0.4267 0.26645 0.0
C2016 C 0.87736 0.45567 0.25433 0.0
H2017 H 0.89484 0.38357 0.26419 0.0
H2018 H 0.86819 0.42274 0.28925 0.0
C2019 C 0.88546 0.46022 0.22448 0.0
C2020 C 0.64197 0.90415 0.26968 0.0
C2021 C 0.63449 0.93408 0.26504 0.0
H2022 H 0.62672 0.85931 0.26391 0.0
C2023 C 0.61385 0.94136 0.24242 0.0
H2024 H 0.66014 0.89787 0.2843 0.0
C2025 C 0.59643 0.91916 0.22984 0.0
C2026 C 0.59648 0.89162 0.24449 0.0
H2027 H 0.61006 0.96417 0.23576 0.0
H2028 H 0.57782 0.92562 0.21585 0.0
C2029 C 0.62382 0.8823 0.25679 0.0
C2030 C 0.13384 0.59498 0.22091 0.0
C2031 C 0.14013 0.62402 0.23053 0.0
H2032 H 0.13134 0.54928 0.23555 0.0
C2033 C 0.16191 0.62877 0.252 0.0
H2034 H 0.11821 0.5912 0.20293 0.0
C2035 C 0.17076 0.6048 0.26949 0.0
C2036 C 0.15672 0.57685 0.26577 0.0
H2037 H 0.16781 0.65115 0.25877 0.0
H2038 H 0.18445 0.60945 0.28878 0.0
C2039 C 0.14112 0.57105 0.23955 0.0
C2040 C 0.39723 0.96076 0.72195 0.0
C2041 C 0.39514 0.97143 0.75094 0.0
H2042 H 0.40089 0.9216 0.69616 0.0
C2043 C 0.3845 0.95241 0.77402 0.0
H2044 H 0.40386 0.97533 0.70352 0.0
C2045 C 0.3836 0.92179 0.76974 0.0
C2046 C 0.39567 0.91114 0.74332 0.0
H2047 H 0.38115 0.96062 0.79635 0.0
H2048 H 0.3813 0.90718 0.78914 0.0
C2049 C 0.39481 0.93002 0.71783 0.0
C2050 C 0.13401 0.40875 0.75371 0.0
C2051 C 0.10512 0.41099 0.74188 0.0
H2052 H 0.16283 0.42799 0.78684 0.0
C2053 C 0.09646 0.43967 0.73346 0.0
H2054 H 0.14491 0.38735 0.7549 0.0
C2055 C 0.10376 0.46215 0.75334 0.0
C2056 C 0.12599 0.45718 0.77521 0.0
H2057 H 0.07755 0.44283 0.71876 0.0
H2058 H 0.09201 0.48295 0.75172 0.0
C2059 C 0.14317 0.43115 0.77319 0.0
C2060 C 0.67025 0.13256 0.79562 0.0
C2061 C 0.67617 0.10596 0.78091 0.0
H2062 H 0.64059 0.16943 0.79639 0.0
C2063 C 0.67028 0.1035 0.75047 0.0
H2064 H 0.67582 0.13519 0.81896 0.0
C2065 C 0.6511 0.12373 0.73721 0.0
C2066 C 0.63792 0.14525 0.75511 0.0
H2067 H 0.6758 0.08339 0.7387 0.0
H2068 H 0.64273 0.11916 0.71506 0.0
C2069 C 0.64991 0.15198 0.78293 0.0
C2070 C 0.89214 0.63654 0.80925 0.0
C2071 C 0.92205 0.62901 0.81404 0.0
H2072 H 0.84727 0.62028 0.81404 0.0
C2073 C 0.92879 0.60773 0.83659 0.0
H2074 H 0.88609 0.65517 0.7949 0.0
C2075 C 0.90614 0.58895 0.84737 0.0
C2076 C 0.87992 0.58895 0.83074 0.0
H2077 H 0.95141 0.604 0.84389 0.0
H2078 H 0.9121 0.56969 0.8609 0.0
C2079 C 0.87015 0.61724 0.8211 0.0
C2080 C 0.21791 0.46015 0.15169 0.0
C2081 C 0.23245 0.43269 0.15004 0.0
H2082 H 0.22455 0.50664 0.15942 0.0
C2083 C 0.25774 0.42741 0.16742 0.0
H2084 H 0.19763 0.46426 0.13923 0.0
C2085 C 0.27268 0.4515 0.17973 0.0
C2086 C 0.26226 0.4804 0.17388 0.0
H2087 H 0.26865 0.40599 0.16709 0.0
H2088 H 0.29453 0.44784 0.18932 0.0
C2089 C 0.23339 0.48447 0.16292 0.0
C2090 C 0.23143 0.67322 0.88382 0.0
C2091 C 0.20568 0.66421 0.89946 0.0
H2092 H 0.27551 0.65847 0.87365 0.0
C2093 C 0.19464 0.6354 0.89428 0.0
H2094 H 0.23857 0.69638 0.8838 0.0
C2095 C 0.21561 0.61324 0.88966 0.0
C2096 C 0.24565 0.62171 0.88587 0.0
H2097 H 0.17272 0.62872 0.90235 0.0
H2098 H 0.2091 0.59006 0.89282 0.0
C2099 C 0.25283 0.65157 0.87888 0.0
C2100 C 0.41424 0.27899 0.93876 0.0
C2101 C 0.43148 0.28 0.96503 0.0
H2102 H 0.41153 0.262 0.8945 0.0
C2103 C 0.45365 0.25822 0.96922 0.0
H2104 H 0.39484 0.29291 0.93593 0.0
C2105 C 0.45994 0.23832 0.94661 0.0
C2106 C 0.45075 0.24664 0.91798 0.0
H2107 H 0.46591 0.25646 0.98981 0.0
H2108 H 0.47863 0.22348 0.94954 0.0
C2109 C 0.42257 0.2599 0.9159 0.0
C2110 C 0.76575 0.47249 0.02558 0.0
C2111 C 0.75853 0.44213 0.02774 0.0
H2112 H 0.7814 0.50719 0.99628 0.0
C2113 C 0.7466 0.428 1.0028 0.0
H2114 H 0.77224 0.48482 0.04517 0.0
C2115 C 0.75339 0.43981 0.9747 0.0
C2116 C 0.76853 0.46739 0.97218 0.0
H2117 H 0.7387 0.4051 1.00456 0.0
H2118 H 0.74757 0.42706 0.95521 0.0
C2119 C 0.77261 0.48463 0.99772 0.0
C2120 C 0.65701 0.81022 0.89867 0.0
C2121 C 0.66491 0.78911 0.92062 0.0
H2122 H 0.62766 0.8175 0.86199 0.0
C2123 C 0.66388 0.75874 0.9143 0.0
H2124 H 0.65872 0.83388 0.9029 0.0
C2125 C 0.64858 0.7497 0.889 0.0
C2126 C 0.63104 0.77091 0.87416 0.0
H2127 H 0.67089 0.74221 0.93067 0.0
H2128 H 0.6438 0.72614 0.88668 0.0
C2129 C 0.6397 0.80089 0.87485 0.0
C2130 C 0.76409 0.6172 0.05471 0.0
C2131 C 0.76265 0.64806 0.05809 0.0
H2132 H 0.77422 0.57584 0.07558 0.0
C2133 C 0.7603 0.65991 0.08677 0.0
H2134 H 0.76495 0.60733 0.03283 0.0
C2135 C 0.76597 0.64181 0.11152 0.0
C2136 C 0.77295 0.61178 0.10757 0.0
H2137 H 0.75846 0.68375 0.08976 0.0
H2138 H 0.76562 0.65135 0.13357 0.0
C2139 C 0.77085 0.59939 0.07913 0.0
C2140 C 0.41128 0.73434 0.09584 0.0
C2141 C 0.38489 0.75018 0.09802 0.0
H2142 H 0.45768 0.73797 0.10509 0.0
C2143 C 0.3787 0.76315 0.12567 0.0
H2144 H 0.41512 0.71995 0.07708 0.0
C2145 C 0.40282 0.77478 0.1416 0.0
C2146 C 0.43175 0.76869 0.13175 0.0
H2147 H 0.35659 0.77133 0.13044 0.0
H2148 H 0.39902 0.78939 0.16019 0.0
C2149 C 0.43577 0.74594 0.11077 0.0
C2150 C 0.64619 0.3108 0.14263 0.0
C2151 C 0.64431 0.32566 0.11483 0.0
H2152 H 0.62704 0.27461 0.16864 0.0
C2153 C 0.61559 0.33238 0.10523 0.0
H2154 H 0.66722 0.30999 0.15445 0.0
C2155 C 0.5943 0.30973 0.10921 0.0
C2156 C 0.59862 0.28719 0.13119 0.0
H2157 H 0.61255 0.34842 0.08718 0.0
H2158 H 0.5746 0.31004 0.09546 0.0
C2159 C 0.62418 0.28932 0.14946 0.0
C2160 C 0.935 0.76781 0.65083 0.0
C2161 C 0.94929 0.79536 0.64806 0.0
H2162 H 0.90099 0.7398 0.63351 0.0
C2163 C 0.93724 0.81805 0.62994 0.0
H2164 H 0.94353 0.75054 0.66559 0.0
C2165 C 0.91428 0.8117 0.61057 0.0
C2166 C 0.9026 0.78294 0.61037 0.0
H2167 H 0.94719 0.83989 0.62849 0.0
H2168 H 0.90795 0.82815 0.5938 0.0
C2169 C 0.91068 0.76198 0.63267 0.0
C2170 C 0.33087 0.96875 0.666 0.0
C2171 C 0.3014 0.96597 0.67613 0.0
H2172 H 0.368 0.94475 0.64971 0.0
C2173 C 0.29158 0.9385 0.68865 0.0
H2174 H 0.33987 0.98998 0.6581 0.0
C2175 C 0.3076 0.91286 0.68289 0.0
C2176 C 0.33159 0.9154 0.66313 0.0
H2177 H 0.26975 0.93599 0.69885 0.0
H2178 H 0.29698 0.89138 0.68711 0.0
C2179 C 0.34716 0.9428 0.66187 0.0
C2180 C 0.1208 0.25437 0.62694 0.0
C2181 C 0.10307 0.27334 0.64394 0.0
H2182 H 0.15118 0.25199 0.59023 0.0
C2183 C 0.10766 0.30399 0.64322 0.0
H2184 H 0.11755 0.23046 0.62774 0.0
C2185 C 0.12822 0.31595 0.62325 0.0
C2186 C 0.14262 0.29726 0.6031 0.0
H2187 H 0.09403 0.31859 0.65643 0.0
H2188 H 0.13017 0.33992 0.62134 0.0
C2189 C 0.14008 0.26644 0.60576 0.0
C2190 C 0.82263 0.1648 0.58855 0.0
C2191 C 0.81758 0.1364 0.60086 0.0
H2192 H 0.81475 0.19268 0.55029 0.0
C2193 C 0.81073 0.11243 0.58222 0.0
H2194 H 0.82925 0.18324 0.60245 0.0
C2195 C 0.80493 0.11741 0.55225 0.0
C2196 C 0.80246 0.1467 0.54203 0.0
H2197 H 0.80751 0.09012 0.59126 0.0
H2198 H 0.79569 0.09918 0.53948 0.0
C2199 C 0.81562 0.16985 0.55853 0.0
C2200 C 0.95469 0.29017 0.42798 0.0
C2201 C 0.98446 0.28936 0.43737 0.0
H2202 H 0.90896 0.28758 0.44076 0.0
C2203 C 0.99105 0.28682 0.46788 0.0
H2204 H 0.94917 0.29152 0.40445 0.0
C2205 C 0.96809 0.28329 0.48856 0.0
C2206 C 0.93827 0.28328 0.47904 0.0
H2207 H 0.01388 0.28553 0.47563 0.0
H2208 H 0.97374 0.28162 0.51202 0.0
C2209 C 0.9318 0.28675 0.44859 0.0
C2210 C 0.8089 0.94124 0.44116 0.0
C2211 C 0.78831 0.95691 0.42358 0.0
H2212 H 0.81427 0.90813 0.47543 0.0
C2213 C 0.75927 0.94624 0.42012 0.0
H2214 H 0.83175 0.94887 0.44324 0.0
C2215 C 0.74987 0.9217 0.43711 0.0
C2216 C 0.76919 0.90927 0.45853 0.0
H2217 H 0.74354 0.9579 0.40593 0.0
H2218 H 0.72652 0.91534 0.43642 0.0
C2219 C 0.79924 0.91756 0.45897 0.0
C2220 C 0.1194 0.76534 0.41685 0.0
C2221 C 0.11021 0.79443 0.412 0.0
H2222 H 0.14844 0.73755 0.44157 0.0
C2223 C 0.12623 0.81836 0.4244 0.0
H2224 H 0.10807 0.74676 0.40645 0.0
C2225 C 0.14616 0.81304 0.44728 0.0
C2226 C 0.15228 0.78374 0.45513 0.0
H2227 H 0.1209 0.84111 0.41916 0.0
H2228 H 0.15471 0.83143 0.46024 0.0
C2229 C 0.142 0.76024 0.43727 0.0
C2230 C 0.30937 0.13607 0.41513 0.0
C2231 C 0.28657 0.15729 0.41429 0.0
H2232 H 0.32049 0.09133 0.40485 0.0
C2233 C 0.26415 0.15569 0.39297 0.0
H2234 H 0.32712 0.1374 0.43143 0.0
C2235 C 0.26145 0.12991 0.37643 0.0
C2236 C 0.27963 0.10536 0.38364 0.0
H2237 H 0.24677 0.17225 0.39187 0.0
H2238 H 0.24172 0.12735 0.36274 0.0
C2239 C 0.30577 0.10973 0.39984 0.0
C2240 C 0.57138 0.97501 0.79306 0.0
C2241 C 0.59887 0.96039 0.79245 0.0
H2242 H 0.52436 0.97022 0.79645 0.0
C2243 C 0.60041 0.93033 0.80138 0.0
H2244 H 0.5697 0.99869 0.78827 0.0
C2245 C 0.57425 0.91422 0.80671 0.0
C2246 C 0.54683 0.92793 0.80118 0.0
H2247 H 0.62162 0.9191 0.80307 0.0
H2248 H 0.57548 0.8902 0.80942 0.0
C2249 C 0.54548 0.959 0.79928 0.0
C2250 C 0.10986 0.65421 0.76861 0.0
C2251 C 0.09677 0.65101 0.79663 0.0
H2252 H 0.14518 0.64021 0.74073 0.0
C2253 C 0.11201 0.63648 0.82002 0.0
H2254 H 0.09903 0.66666 0.75083 0.0
C2255 C 0.1372 0.62024 0.81406 0.0
C2256 C 0.14762 0.61951 0.7849 0.0
H2257 H 0.10309 0.63518 0.84237 0.0
H2258 H 0.14608 0.60548 0.83119 0.0
C2259 C 0.13629 0.63938 0.76313 0.0
C2260 C 0.41465 0.14037 0.76269 0.0
C2261 C 0.41531 0.12924 0.7918 0.0
H2262 H 0.43774 0.16658 0.73013 0.0
C2263 C 0.43528 0.14114 0.81269 0.0
H2264 H 0.39909 0.13153 0.74652 0.0
C2265 C 0.4588 0.15898 0.80299 0.0
C2266 C 0.46073 0.16642 0.77287 0.0
H2267 H 0.43558 0.13338 0.83551 0.0
H2268 H 0.47682 0.16426 0.81818 0.0
C2269 C 0.43693 0.16008 0.75345 0.0
C2270 C 0.95374 0.41297 0.75568 0.0
C2271 C 0.95608 0.40337 0.78525 0.0
H2272 H 0.93232 0.44263 0.7256 0.0
C2273 C 0.93482 0.41198 0.80651 0.0
H2274 H 0.96992 0.40641 0.73911 0.0
C2275 C 0.91478 0.43435 0.7994 0.0
C2276 C 0.91477 0.44628 0.77054 0.0
H2277 H 0.93595 0.40419 0.82944 0.0
H2278 H 0.90074 0.44345 0.81662 0.0
C2279 C 0.93255 0.43394 0.7482 0.0
C2280 C 0.63156 0.11888 0.26656 0.0
C2281 C 0.64076 0.09608 0.2864 0.0
H2282 H 0.59992 0.15348 0.25835 0.0
C2283 C 0.63031 0.09502 0.31566 0.0
H2284 H 0.6398 0.12037 0.24391 0.0
C2285 C 0.609 0.11529 0.32429 0.0
C2286 C 0.59685 0.13516 0.30309 0.0
H2287 H 0.63738 0.07772 0.33118 0.0
H2288 H 0.60056 0.11393 0.3469 0.0
C2289 C 0.60885 0.1378 0.27458 0.0
C2290 C 0.95033 0.64249 0.25816 0.0
C2291 C 0.97374 0.64987 0.27767 0.0
H2292 H 0.91181 0.61489 0.25136 0.0
C2293 C 0.97239 0.64125 0.30761 0.0
H2294 H 0.95056 0.64958 0.23507 0.0
C2295 C 0.94866 0.62344 0.31737 0.0
C2296 C 0.92793 0.61247 0.29664 0.0
H2297 H 0.99003 0.64725 0.32294 0.0
H2298 H 0.94787 0.61668 0.34057 0.0
C2299 C 0.928 0.62293 0.26735 0.0
C2300 C 0.40054 0.92464 0.29403 0.0
C2301 C 0.40169 0.93427 0.26441 0.0
H2302 H 0.42091 0.89722 0.32691 0.0
C2303 C 0.41808 0.91856 0.24323 0.0
H2304 H 0.38745 0.93633 0.31036 0.0
C2305 C 0.43909 0.89831 0.25288 0.0
C2306 C 0.44167 0.89261 0.28333 0.0
H2307 H 0.41835 0.92523 0.22001 0.0
H2308 H 0.45549 0.89022 0.23728 0.0
C2309 C 0.41981 0.90249 0.3033 0.0
C2310 C 0.09288 0.3892 0.2984 0.0
C2311 C 0.06492 0.40317 0.29892 0.0
H2312 H 0.13852 0.39366 0.31122 0.0
C2313 C 0.05765 0.42169 0.32247 0.0
H2314 H 0.09843 0.37336 0.28134 0.0
C2315 C 0.08036 0.43137 0.34119 0.0
C2316 C 0.10996 0.42381 0.33461 0.0
H2317 H 0.03586 0.43174 0.32393 0.0
H2318 H 0.07556 0.449 0.35663 0.0
C2319 C 0.11581 0.40022 0.31583 0.0
C2320 C 0.79215 0.6515 0.88644 0.0
C2321 C 0.81858 0.64733 0.90235 0.0
H2322 H 0.75379 0.62969 0.86891 0.0
C2323 C 0.83315 0.61983 0.90107 0.0
H2324 H 0.78121 0.67292 0.88622 0.0
C2325 C 0.81685 0.59475 0.89283 0.0
C2326 C 0.78716 0.5981 0.88403 0.0
H2327 H 0.85442 0.61654 0.91203 0.0
H2328 H 0.82605 0.57284 0.89697 0.0
C2329 C 0.77631 0.62662 0.87704 0.0
C2330 C 0.81429 0.42304 0.17903 0.0
C2331 C 0.8393 0.43204 0.1622 0.0
H2332 H 0.77027 0.43567 0.19162 0.0
C2333 C 0.84697 0.46245 0.16104 0.0
H2334 H 0.80899 0.39954 0.18207 0.0
C2335 C 0.82459 0.48316 0.16526 0.0
C2336 C 0.7959 0.47308 0.17325 0.0
H2337 H 0.86745 0.46999 0.1503 0.0
H2338 H 0.82884 0.50627 0.15905 0.0
C2339 C 0.79181 0.44362 0.18364 0.0
C2340 C 0.61207 0.81615 0.1114 0.0
C2341 C 0.6264 0.79531 0.09346 0.0
H2342 H 0.58123 0.82229 0.14714 0.0
C2343 C 0.62681 0.76528 0.10168 0.0
H2344 H 0.61259 0.83971 0.10581 0.0
C2345 C 0.61083 0.75579 0.12673 0.0
C2346 C 0.59325 0.77614 0.14232 0.0
H2347 H 0.63853 0.74925 0.08835 0.0
H2348 H 0.60977 0.73215 0.13186 0.0
C2349 C 0.59486 0.80649 0.13541 0.0
C2350 C 0.30807 0.65381 0.0637 0.0
C2351 C 0.29552 0.63917 0.03927 0.0
H2352 H 0.3082 0.65579 0.1114 0.0
C2353 C 0.28816 0.60896 0.04237 0.0
H2354 H 0.31617 0.67658 0.06123 0.0
C2355 C 0.28145 0.59772 0.07067 0.0
C2356 C 0.2863 0.61549 0.09577 0.0
H2357 H 0.28112 0.59619 0.02325 0.0
H2358 H 0.2721 0.57541 0.07271 0.0
C2359 C 0.30186 0.64271 0.09229 0.0
C2360 C 0.40067 0.3038 0.13361 0.0
C2361 C 0.39756 0.27373 0.12714 0.0
H2362 H 0.42464 0.33543 0.15893 0.0
C2363 C 0.40956 0.25188 0.14637 0.0
H2364 H 0.39081 0.32081 0.11941 0.0
C2365 C 0.43137 0.26007 0.16655 0.0
C2366 C 0.43858 0.29014 0.16903 0.0
H2367 H 0.40612 0.22841 0.14248 0.0
H2368 H 0.44488 0.24306 0.17716 0.0
C2369 C 0.42027 0.31196 0.15595 0.0
C2370 C 0.28484 0.43055 0.96072 0.0
C2371 C 0.28233 0.44011 0.99024 0.0
H2372 H 0.2847 0.44342 0.91458 0.0
C2373 C 0.27935 0.47048 0.99602 0.0
H2374 H 0.2867 0.40707 0.95581 0.0
C2375 C 0.27554 0.49057 0.97282 0.0
C2376 C 0.27729 0.48114 0.94323 0.0
H2377 H 0.27725 0.4786 0.01855 0.0
H2378 H 0.27262 0.51377 0.97832 0.0
C2379 C 0.28235 0.45102 0.93727 0.0
C2380 C 0.63533 0.26167 0.94398 0.0
C2381 C 0.64603 0.28437 0.96263 0.0
H2382 H 0.60195 0.24941 0.91202 0.0
C2383 C 0.63744 0.31369 0.95785 0.0
H2384 H 0.64239 0.23891 0.94683 0.0
C2385 C 0.61604 0.3198 0.93651 0.0
C2386 C 0.60187 0.29646 0.92131 0.0
H2387 H 0.64562 0.33138 0.97195 0.0
H2388 H 0.60878 0.34244 0.93411 0.0
C2389 C 0.61236 0.26751 0.92404 0.0
C2390 C 0.41884 0.81106 0.92616 0.0
C2391 C 0.40476 0.79006 0.94537 0.0
H2392 H 0.45774 0.82052 0.89949 0.0
C2393 C 0.41371 0.76055 0.94623 0.0
H2394 H 0.41168 0.834 0.92496 0.0
C2395 C 0.43961 0.75314 0.93181 0.0
C2396 C 0.45651 0.77529 0.91681 0.0
H2397 H 0.40284 0.74423 0.96085 0.0
H2398 H 0.44722 0.73052 0.93412 0.0
C2399 C 0.44541 0.8038 0.91236 0.0
loop_
_geom_bond_atom_site_label_1
_geom_bond_atom_site_label_2
_geom_bond_distance
_geom_bond_site_symmetry_2
_ccdc_geom_bond_type
Dy0 O4 2.398 . S
Dy0 O5 2.491 . S
Dy0 O6 2.403 . S
Dy0 O7 2.664 1_655 S
Dy0 O11 2.326 1_655 S
Dy0 O15 2.310 . S
Dy0 O16 2.351 . S
C1 O12 1.185 . S
C1 O13 1.355 . S
C2 O4 1.185 . S
C2 O5 1.355 . S
Dy3 O7 2.310 . S
Dy3 O10 2.351 . S
Dy3 O12 2.398 . S
Dy3 O13 2.491 . S
Dy3 O14 2.403 . S
Dy3 O15 2.664 1_455 S
Dy3 O17 2.326 1_455 S
O4 Dy0 2.398 . S
O4 C2 1.185 . S
O5 Dy0 2.491 . S
O5 C2 1.355 . S
O6 Dy0 2.403 . S
O6 C8 1.254 . S
O7 Dy0 2.664 1_455 S
O7 Dy3 2.310 . S
O7 C8 1.268 1_455 S
C8 O6 1.254 . S
C8 O7 1.268 1_655 S
C9 O14 1.254 . S
C9 O15 1.268 1_455 S
O10 Dy3 2.351 . S
O10 C18 1.249 . S
O11 Dy0 2.326 1_455 S
O11 C18 1.267 . S
O12 C1 1.185 . S
O12 Dy3 2.398 . S
O13 C1 1.355 . S
O13 Dy3 2.491 . S
O14 Dy3 2.403 . S
O14 C9 1.254 . S
O15 Dy0 2.310 . S
O15 Dy3 2.664 1_655 S
O15 C9 1.268 1_655 S
O16 Dy0 2.351 . S
O16 C19 1.249 . S
O17 Dy3 2.326 1_655 S
O17 C19 1.267 . S
C18 O10 1.249 . S
C18 O11 1.267 . S
C19 O16 1.249 . S
C19 O17 1.267 . S
Dy20 O24 2.398 . S
Dy20 O25 2.491 . S
Dy20 O26 2.403 . S
Dy20 O27 2.664 1_565 S
Dy20 O31 2.326 1_565 S
Dy20 O35 2.310 1_565 S
Dy20 O36 2.351 . S
C21 O32 1.185 . S
C21 O33 1.355 . S
C22 O24 1.185 . S
C22 O25 1.355 . S
Dy23 O27 2.310 . S
Dy23 O30 2.351 . S
Dy23 O32 2.398 . S
Dy23 O33 2.491 . S
Dy23 O34 2.403 . S
Dy23 O35 2.664 . S
Dy23 O37 2.326 . S
O24 Dy20 2.398 . S
O24 C22 1.185 . S
O25 Dy20 2.491 . S
O25 C22 1.355 . S
O26 Dy20 2.403 . S
O26 C28 1.254 1_565 S
O27 Dy20 2.664 1_545 S
O27 Dy23 2.310 . S
O27 C28 1.268 . S
C28 O26 1.254 1_545 S
C28 O27 1.268 . S
C29 O34 1.254 . S
C29 O35 1.268 . S
O30 Dy23 2.351 . S
O30 C38 1.249 . S
O31 Dy20 2.326 1_545 S
O31 C38 1.267 . S
O32 C21 1.185 . S
O32 Dy23 2.398 . S
O33 C21 1.355 . S
O33 Dy23 2.491 . S
O34 Dy23 2.403 . S
O34 C29 1.254 . S
O35 Dy20 2.310 1_545 S
O35 Dy23 2.664 . S
O35 C29 1.268 . S
O36 Dy20 2.351 . S
O36 C39 1.249 . S
O37 Dy23 2.326 . S
O37 C39 1.267 1_545 S
C38 O30 1.249 . S
C38 O31 1.267 . S
C39 O36 1.249 . S
C39 O37 1.267 1_565 S
Dy40 O44 2.398 . S
Dy40 O45 2.491 . S
Dy40 O46 2.403 . S
Dy40 O47 2.664 . S
Dy40 O51 2.326 . S
Dy40 O55 2.310 . S
Dy40 O56 2.351 . S
C41 O52 1.185 . S
C41 O53 1.355 . S
C42 O44 1.185 . S
C42 O45 1.355 . S
Dy43 O47 2.310 1_655 S
Dy43 O50 2.351 . S
Dy43 O52 2.398 . S
Dy43 O53 2.491 . S
Dy43 O54 2.403 . S
Dy43 O55 2.664 1_655 S
Dy43 O57 2.326 1_655 S
O44 Dy40 2.398 . S
O44 C42 1.185 . S
O45 Dy40 2.491 . S
O45 C42 1.355 . S
O46 Dy40 2.403 . S
O46 C48 1.254 . S
O47 Dy40 2.664 . S
O47 Dy43 2.310 1_455 S
O47 C48 1.268 . S
C48 O46 1.254 . S
C48 O47 1.268 . S
C49 O54 1.254 1_455 S
C49 O55 1.268 . S
O50 Dy43 2.351 . S
O50 C58 1.249 . S
O51 Dy40 2.326 . S
O51 C58 1.267 1_455 S
O52 C41 1.185 . S
O52 Dy43 2.398 . S
O53 C41 1.355 . S
O53 Dy43 2.491 . S
O54 Dy43 2.403 . S
O54 C49 1.254 1_655 S
O55 Dy40 2.310 . S
O55 Dy43 2.664 1_455 S
O55 C49 1.268 . S
O56 Dy40 2.351 . S
O56 C59 1.249 . S
O57 Dy43 2.326 1_455 S
O57 C59 1.267 . S
C58 O50 1.249 . S
C58 O51 1.267 1_655 S
C59 O56 1.249 . S
C59 O57 1.267 . S
Dy60 O64 2.398 . S
Dy60 O65 2.491 . S
Dy60 O66 2.403 . S
Dy60 O67 2.664 . S
Dy60 O71 2.326 . S
Dy60 O75 2.310 . S
Dy60 O76 2.351 . S
C61 O72 1.185 . S
C61 O73 1.355 . S
C62 O64 1.185 . S
C62 O65 1.355 . S
Dy63 O67 2.310 1_565 S
Dy63 O70 2.351 . S
Dy63 O72 2.398 . S
Dy63 O73 2.491 . S
Dy63 O74 2.403 . S
Dy63 O75 2.664 1_565 S
Dy63 O77 2.326 1_565 S
O64 Dy60 2.398 . S
O64 C62 1.185 . S
O65 Dy60 2.491 . S
O65 C62 1.355 . S
O66 Dy60 2.403 . S
O66 C68 1.254 . S
O67 Dy60 2.664 . S
O67 Dy63 2.310 1_545 S
O67 C68 1.268 . S
C68 O66 1.254 . S
C68 O67 1.268 . S
C69 O74 1.254 1_545 S
C69 O75 1.268 . S
O70 Dy63 2.351 . S
O70 C78 1.249 . S
O71 Dy60 2.326 . S
O71 C78 1.267 1_545 S
O72 C61 1.185 . S
O72 Dy63 2.398 . S
O73 C61 1.355 . S
O73 Dy63 2.491 . S
O74 Dy63 2.403 . S
O74 C69 1.254 1_565 S
O75 Dy60 2.310 . S
O75 Dy63 2.664 1_545 S
O75 C69 1.268 . S
O76 Dy60 2.351 . S
O76 C79 1.249 . S
O77 Dy63 2.326 1_545 S
O77 C79 1.267 . S
C78 O70 1.249 . S
C78 O71 1.267 1_565 S
C79 O76 1.249 . S
C79 O77 1.267 . S
Dy80 O84 2.398 . S
Dy80 O85 2.491 . S
Dy80 O86 2.403 . S
Dy80 O87 2.664 1_655 S
Dy80 O91 2.326 1_655 S
Dy80 O95 2.310 1_655 S
Dy80 O96 2.351 . S
C81 O92 1.185 . S
C81 O93 1.355 . S
C82 O84 1.185 . S
C82 O85 1.355 . S
Dy83 O87 2.310 . S
Dy83 O90 2.351 . S
Dy83 O92 2.398 . S
Dy83 O93 2.491 . S
Dy83 O94 2.403 . S
Dy83 O95 2.664 . S
Dy83 O97 2.326 . S
O84 Dy80 2.398 . S
O84 C82 1.185 . S
O85 Dy80 2.491 . S
O85 C82 1.355 . S
O86 Dy80 2.403 . S
O86 C88 1.254 1_655 S
O87 Dy80 2.664 1_455 S
O87 Dy83 2.310 . S
O87 C88 1.268 . S
C88 O86 1.254 1_455 S
C88 O87 1.268 . S
C89 O94 1.254 . S
C89 O95 1.268 . S
O90 Dy83 2.351 . S
O90 C98 1.249 . S
O91 Dy80 2.326 1_455 S
O91 C98 1.267 . S
O92 C81 1.185 . S
O92 Dy83 2.398 . S
O93 C81 1.355 . S
O93 Dy83 2.491 . S
O94 Dy83 2.403 . S
O94 C89 1.254 . S
O95 Dy80 2.310 1_455 S
O95 Dy83 2.664 . S
O95 C89 1.268 . S
O96 Dy80 2.351 . S
O96 C99 1.249 . S
O97 Dy83 2.326 . S
O97 C99 1.267 1_455 S
C98 O90 1.249 . S
C98 O91 1.267 . S
C99 O96 1.249 . S
C99 O97 1.267 1_655 S
Dy100 O104 2.398 . S
Dy100 O105 2.491 . S
Dy100 O106 2.403 . S
Dy100 O107 2.664 1_565 S
Dy100 O111 2.326 1_565 S
Dy100 O115 2.310 1_565 S
Dy100 O116 2.351 . S
C101 O112 1.185 . S
C101 O113 1.355 . S
C102 O104 1.185 . S
C102 O105 1.355 . S
Dy103 O107 2.310 . S
Dy103 O110 2.351 . S
Dy103 O112 2.398 . S
Dy103 O113 2.491 . S
Dy103 O114 2.403 . S
Dy103 O115 2.664 . S
Dy103 O117 2.326 . S
O104 Dy100 2.398 . S
O104 C102 1.185 . S
O105 Dy100 2.491 . S
O105 C102 1.355 . S
O106 Dy100 2.403 . S
O106 C108 1.257 1_565 S
O107 Dy100 2.664 1_545 S
O107 Dy103 2.310 . S
O107 C108 1.268 . S
C108 O106 1.257 1_545 S
C108 O107 1.268 . S
C109 O114 1.254 . S
C109 O115 1.268 . S
O110 Dy103 2.351 . S
O110 C118 1.249 . S
O111 Dy100 2.326 1_545 S
O111 C118 1.267 . S
O112 C101 1.185 . S
O112 Dy103 2.398 . S
O113 C101 1.355 . S
O113 Dy103 2.491 . S
O114 Dy103 2.403 . S
O114 C109 1.254 . S
O115 Dy100 2.310 1_545 S
O115 Dy103 2.664 . S
O115 C109 1.268 . S
O116 Dy100 2.351 . S
O116 C119 1.249 . S
O117 Dy103 2.326 . S
O117 C119 1.267 1_545 S
C118 O110 1.249 . S
C118 O111 1.267 . S
C119 O116 1.249 . S
C119 O117 1.267 1_565 S
Dy120 O124 2.398 . S
Dy120 O125 2.491 . S
Dy120 O126 2.403 . S
Dy120 O127 2.664 . S
Dy120 O131 2.326 . S
Dy120 O135 2.310 . S
Dy120 O136 2.351 . S
C121 O132 1.185 . S
C121 O133 1.355 . S
C122 O124 1.185 . S
C122 O125 1.355 . S
Dy123 O127 2.310 1_655 S
Dy123 O130 2.351 . S
Dy123 O132 2.398 . S
Dy123 O133 2.491 . S
Dy123 O134 2.403 . S
Dy123 O135 2.664 1_655 S
Dy123 O137 2.326 1_655 S
O124 Dy120 2.398 . S
O124 C122 1.185 . S
O125 Dy120 2.491 . S
O125 C122 1.355 . S
O126 Dy120 2.403 . S
O126 C128 1.254 . S
O127 Dy120 2.664 . S
O127 Dy123 2.310 1_455 S
O127 C128 1.268 . S
C128 O126 1.254 . S
C128 O127 1.268 . S
C129 O134 1.254 1_455 S
C129 O135 1.268 . S
O130 Dy123 2.351 . S
O130 C138 1.249 . S
O131 Dy120 2.326 . S
O131 C138 1.267 1_455 S
O132 C121 1.185 . S
O132 Dy123 2.398 . S
O133 C121 1.355 . S
O133 Dy123 2.491 . S
O134 Dy123 2.403 . S
O134 C129 1.254 1_655 S
O135 Dy120 2.310 . S
O135 Dy123 2.664 1_455 S
O135 C129 1.268 . S
O136 Dy120 2.351 . S
O136 C139 1.249 . S
O137 Dy123 2.326 1_455 S
O137 C139 1.267 . S
C138 O130 1.249 . S
C138 O131 1.267 1_655 S
C139 O136 1.249 . S
C139 O137 1.267 . S
Dy140 O144 2.398 . S
Dy140 O145 2.491 . S
Dy140 O146 2.403 . S
Dy140 O147 2.664 . S
Dy140 O151 2.326 . S
Dy140 O155 2.310 . S
Dy140 O156 2.351 . S
C141 O152 1.185 . S
C141 O153 1.351 1_565 S
C142 O144 1.185 . S
C142 O145 1.355 . S
Dy143 O147 2.310 . S
Dy143 O150 2.351 1_545 S
Dy143 O152 2.398 1_545 S
Dy143 O153 2.492 . S
Dy143 O154 2.403 . S
Dy143 O155 2.664 . S
Dy143 O157 2.326 . S
O144 Dy140 2.398 . S
O144 C142 1.185 . S
O145 Dy140 2.491 . S
O145 C142 1.355 . S
O146 Dy140 2.403 . S
O146 C148 1.254 . S
O147 Dy140 2.664 . S
O147 Dy143 2.310 . S
O147 C148 1.268 . S
C148 O146 1.254 . S
C148 O147 1.268 . S
C149 O154 1.254 . S
C149 O155 1.268 . S
O150 Dy143 2.351 1_565 S
O150 C158 1.249 1_565 S
O151 Dy140 2.326 . S
O151 C158 1.267 . S
O152 C141 1.185 . S
O152 Dy143 2.398 1_565 S
O153 C141 1.351 1_545 S
O153 Dy143 2.492 . S
O154 Dy143 2.403 . S
O154 C149 1.254 . S
O155 Dy140 2.310 . S
O155 Dy143 2.664 . S
O155 C149 1.268 . S
O156 Dy140 2.351 . S
O156 C159 1.249 . S
O157 Dy143 2.326 . S
O157 C159 1.267 . S
C158 O150 1.249 1_545 S
C158 O151 1.267 . S
C159 O156 1.249 . S
C159 O157 1.267 . S
Dy160 O164 2.398 . S
Dy160 O165 2.491 . S
Dy160 O166 2.403 . S
Dy160 O167 2.664 1_565 S
Dy160 O171 2.326 1_565 S
Dy160 O175 2.310 1_565 S
Dy160 O176 2.351 . S
C161 O172 1.185 . S
C161 O173 1.355 . S
C162 O164 1.185 . S
C162 O165 1.355 . S
Dy163 O167 2.310 . S
Dy163 O170 2.351 . S
Dy163 O172 2.398 . S
Dy163 O173 2.491 . S
Dy163 O174 2.403 . S
Dy163 O175 2.664 . S
Dy163 O177 2.326 . S
O164 Dy160 2.398 . S
O164 C162 1.185 . S
O165 Dy160 2.491 . S
O165 C162 1.355 . S
O166 Dy160 2.403 . S
O166 C168 1.254 1_565 S
O167 Dy160 2.664 1_545 S
O167 Dy163 2.310 . S
O167 C168 1.268 . S
C168 O166 1.254 1_545 S
C168 O167 1.268 . S
C169 O174 1.254 . S
C169 O175 1.268 . S
O170 Dy163 2.351 . S
O170 C178 1.249 . S
O171 Dy160 2.326 1_545 S
O171 C178 1.267 . S
O172 C161 1.185 . S
O172 Dy163 2.398 . S
O173 C161 1.355 . S
O173 Dy163 2.491 . S
O174 Dy163 2.403 . S
O174 C169 1.254 . S
O175 Dy160 2.310 1_545 S
O175 Dy163 2.664 . S
O175 C169 1.268 . S
O176 Dy160 2.351 . S
O176 C179 1.249 . S
O177 Dy163 2.326 . S
O177 C179 1.267 1_545 S
C178 O170 1.249 . S
C178 O171 1.267 . S
C179 O176 1.249 . S
C179 O177 1.267 1_565 S
Dy180 O184 2.398 . S
Dy180 O185 2.491 . S
Dy180 O186 2.403 . S
Dy180 O187 2.664 . S
Dy180 O191 2.326 . S
Dy180 O195 2.310 . S
Dy180 O196 2.351 . S
C181 O192 1.185 . S
C181 O193 1.355 . S
C182 O184 1.185 . S
C182 O185 1.355 . S
Dy183 O187 2.310 1_655 S
Dy183 O190 2.351 . S
Dy183 O192 2.398 . S
Dy183 O193 2.491 . S
Dy183 O194 2.403 . S
Dy183 O195 2.664 1_655 S
Dy183 O197 2.326 1_655 S
O184 Dy180 2.398 . S
O184 C182 1.185 . S
O185 Dy180 2.491 . S
O185 C182 1.355 . S
O186 Dy180 2.403 . S
O186 C188 1.254 . S
O187 Dy180 2.664 . S
O187 Dy183 2.310 1_455 S
O187 C188 1.268 . S
C188 O186 1.254 . S
C188 O187 1.268 . S
C189 O194 1.241 1_455 S
C189 O195 1.275 . S
O190 Dy183 2.351 . S
O190 C198 1.249 . S
O191 Dy180 2.326 . S
O191 C198 1.267 1_455 S
O192 C181 1.185 . S
O192 Dy183 2.398 . S
O193 C181 1.355 . S
O193 Dy183 2.491 . S
O194 Dy183 2.403 . S
O194 C189 1.241 1_655 S
O195 Dy180 2.310 . S
O195 Dy183 2.664 1_455 S
O195 C189 1.275 . S
O196 Dy180 2.351 . S
O196 C199 1.249 . S
O197 Dy183 2.326 1_455 S
O197 C199 1.267 . S
C198 O190 1.249 . S
C198 O191 1.267 1_655 S
C199 O196 1.249 . S
C199 O197 1.267 . S
Dy200 O204 2.398 . S
Dy200 O205 2.491 . S
Dy200 O206 2.403 . S
Dy200 O207 2.664 . S
Dy200 O211 2.326 . S
Dy200 O215 2.310 . S
Dy200 O216 2.351 . S
C201 O212 1.185 . S
C201 O213 1.355 . S
C202 O204 1.185 . S
C202 O205 1.355 . S
Dy203 O207 2.310 1_565 S
Dy203 O210 2.351 . S
Dy203 O212 2.398 . S
Dy203 O213 2.491 . S
Dy203 O214 2.403 1_565 S
Dy203 O215 2.664 1_565 S
Dy203 O217 2.326 1_565 S
O204 Dy200 2.398 . S
O204 C202 1.185 . S
O205 Dy200 2.491 . S
O205 C202 1.355 . S
O206 Dy200 2.403 . S
O206 C208 1.254 . S
O207 Dy200 2.664 . S
O207 Dy203 2.310 1_545 S
O207 C208 1.268 . S
C208 O206 1.254 . S
C208 O207 1.268 . S
C209 O214 1.254 . S
C209 O215 1.268 . S
O210 Dy203 2.351 . S
O210 C218 1.241 1_565 S
O211 Dy200 2.326 . S
O211 C218 1.281 . S
O212 C201 1.185 . S
O212 Dy203 2.398 . S
O213 C201 1.355 . S
O213 Dy203 2.491 . S
O214 Dy203 2.403 1_545 S
O214 C209 1.254 . S
O215 Dy200 2.310 . S
O215 Dy203 2.664 1_545 S
O215 C209 1.268 . S
O216 Dy200 2.351 . S
O216 C219 1.249 . S
O217 Dy203 2.326 1_545 S
O217 C219 1.267 . S
C218 O210 1.241 1_545 S
C218 O211 1.281 . S
C219 O216 1.249 . S
C219 O217 1.267 . S
Dy220 O224 2.398 . S
Dy220 O225 2.491 . S
Dy220 O226 2.403 . S
Dy220 O227 2.664 1_655 S
Dy220 O231 2.326 1_655 S
Dy220 O235 2.310 1_655 S
Dy220 O236 2.351 . S
C221 O232 1.185 . S
C221 O233 1.355 . S
C222 O224 1.185 . S
C222 O225 1.355 . S
Dy223 O227 2.310 . S
Dy223 O230 2.351 . S
Dy223 O232 2.398 . S
Dy223 O233 2.491 . S
Dy223 O234 2.403 . S
Dy223 O235 2.664 . S
Dy223 O237 2.326 . S
O224 Dy220 2.398 . S
O224 C222 1.185 . S
O225 Dy220 2.491 . S
O225 C222 1.355 . S
O226 Dy220 2.403 . S
O226 C228 1.254 1_655 S
O227 Dy220 2.664 1_455 S
O227 Dy223 2.310 . S
O227 C228 1.268 . S
C228 O226 1.254 1_455 S
C228 O227 1.268 . S
C229 O234 1.254 . S
C229 O235 1.268 . S
O230 Dy223 2.351 . S
O230 C238 1.249 . S
O231 Dy220 2.326 1_455 S
O231 C238 1.267 . S
O232 C221 1.185 . S
O232 Dy223 2.398 . S
O233 C221 1.355 . S
O233 Dy223 2.491 . S
O234 Dy223 2.403 . S
O234 C229 1.254 . S
O235 Dy220 2.310 1_455 S
O235 Dy223 2.664 . S
O235 C229 1.268 . S
O236 Dy220 2.351 . S
O236 C239 1.249 . S
O237 Dy223 2.326 . S
O237 C239 1.267 1_455 S
C238 O230 1.249 . S
C238 O231 1.267 . S
C239 O236 1.249 . S
C239 O237 1.267 1_655 S
Dy240 O244 2.398 . S
Dy240 O245 2.491 . S
Dy240 O246 2.403 . S
Dy240 O247 2.664 . S
Dy240 O251 2.326 . S
Dy240 O255 2.310 . S
Dy240 O256 2.351 . S
C241 O252 1.185 . S
C241 O253 1.355 . S
C242 O244 1.185 . S
C242 O245 1.355 . S
Dy243 O247 2.310 1_565 S
Dy243 O250 2.351 . S
Dy243 O252 2.398 . S
Dy243 O253 2.491 . S
Dy243 O254 2.403 1_565 S
Dy243 O255 2.664 1_565 S
Dy243 O257 2.326 1_565 S
O244 Dy240 2.398 . S
O244 C242 1.185 . S
O245 Dy240 2.491 . S
O245 C242 1.355 . S
O246 Dy240 2.403 . S
O246 C248 1.254 . S
O247 Dy240 2.664 . S
O247 Dy243 2.310 1_545 S
O247 C248 1.268 . S
C248 O246 1.254 . S
C248 O247 1.268 . S
C249 O254 1.254 . S
C249 O255 1.268 . S
O250 Dy243 2.351 . S
O250 C258 1.249 . S
O251 Dy240 2.326 . S
O251 C258 1.267 1_545 S
O252 C241 1.185 . S
O252 Dy243 2.398 . S
O253 C241 1.355 . S
O253 Dy243 2.491 . S
O254 Dy243 2.403 1_545 S
O254 C249 1.254 . S
O255 Dy240 2.310 . S
O255 Dy243 2.664 1_545 S
O255 C249 1.268 . S
O256 Dy240 2.351 . S
O256 C259 1.249 . S
O257 Dy243 2.326 1_545 S
O257 C259 1.267 . S
C258 O250 1.249 . S
C258 O251 1.267 1_565 S
C259 O256 1.249 . S
C259 O257 1.267 . S
Dy260 O264 2.398 . S
Dy260 O265 2.491 . S
Dy260 O266 2.403 . S
Dy260 O267 2.664 1_655 S
Dy260 O271 2.326 1_655 S
Dy260 O275 2.310 1_655 S
Dy260 O276 2.351 . S
C261 O272 1.185 . S
C261 O273 1.355 . S
C262 O264 1.185 . S
C262 O265 1.355 . S
Dy263 O267 2.310 . S
Dy263 O270 2.351 . S
Dy263 O272 2.398 . S
Dy263 O273 2.491 . S
Dy263 O274 2.403 . S
Dy263 O275 2.664 . S
Dy263 O277 2.326 . S
O264 Dy260 2.398 . S
O264 C262 1.185 . S
O265 Dy260 2.491 . S
O265 C262 1.355 . S
O266 Dy260 2.403 . S
O266 C268 1.254 1_655 S
O267 Dy260 2.664 1_455 S
O267 Dy263 2.310 . S
O267 C268 1.268 . S
C268 O266 1.254 1_455 S
C268 O267 1.268 . S
C269 O274 1.254 . S
C269 O275 1.268 . S
O270 Dy263 2.351 . S
O270 C278 1.249 . S
O271 Dy260 2.326 1_455 S
O271 C278 1.267 . S
O272 C261 1.185 . S
O272 Dy263 2.398 . S
O273 C261 1.355 . S
O273 Dy263 2.491 . S
O274 Dy263 2.403 . S
O274 C269 1.254 . S
O275 Dy260 2.310 1_455 S
O275 Dy263 2.664 . S
O275 C269 1.268 . S
O276 Dy260 2.351 . S
O276 C279 1.249 . S
O277 Dy263 2.326 . S
O277 C279 1.267 1_455 S
C278 O270 1.249 . S
C278 O271 1.267 . S
C279 O276 1.249 . S
C279 O277 1.267 1_655 S
Dy280 O284 2.398 . S
Dy280 O285 2.491 . S
Dy280 O286 2.403 . S
Dy280 O287 2.664 1_565 S
Dy280 O291 2.326 1_565 S
Dy280 O295 2.310 . S
Dy280 O296 2.351 . S
C281 O292 1.185 . S
C281 O293 1.355 . S
C282 O284 1.185 . S
C282 O285 1.355 . S
Dy283 O287 2.310 . S
Dy283 O290 2.351 . S
Dy283 O292 2.398 . S
Dy283 O293 2.491 . S
Dy283 O294 2.403 . S
Dy283 O295 2.664 1_545 S
Dy283 O297 2.326 1_545 S
O284 Dy280 2.398 . S
O284 C282 1.185 . S
O285 Dy280 2.491 . S
O285 C282 1.355 . S
O286 Dy280 2.403 . S
O286 C288 1.254 . S
O287 Dy280 2.664 1_545 S
O287 Dy283 2.310 . S
O287 C288 1.268 1_545 S
C288 O286 1.254 . S
C288 O287 1.268 1_565 S
C289 O294 1.254 . S
C289 O295 1.268 1_545 S
O290 Dy283 2.351 . S
O290 C298 1.249 . S
O291 Dy280 2.326 1_545 S
O291 C298 1.267 . S
O292 C281 1.185 . S
O292 Dy283 2.398 . S
O293 C281 1.355 . S
O293 Dy283 2.491 . S
O294 Dy283 2.403 . S
O294 C289 1.254 . S
O295 Dy280 2.310 . S
O295 Dy283 2.664 1_565 S
O295 C289 1.268 1_565 S
O296 Dy280 2.351 . S
O296 C299 1.249 . S
O297 Dy283 2.326 1_565 S
O297 C299 1.267 . S
C298 O290 1.249 . S
C298 O291 1.267 . S
C299 O296 1.249 . S
C299 O297 1.267 . S
Dy300 O304 2.398 . S
Dy300 O305 2.491 . S
Dy300 O306 2.403 . S
Dy300 O307 2.664 . S
Dy300 O311 2.326 . S
Dy300 O315 2.310 . S
Dy300 O316 2.351 . S
C301 O312 1.185 . S
C301 O313 1.355 . S
C302 O304 1.185 . S
C302 O305 1.355 . S
Dy303 O307 2.310 1_655 S
Dy303 O310 2.351 . S
Dy303 O312 2.398 . S
Dy303 O313 2.491 . S
Dy303 O314 2.403 . S
Dy303 O315 2.664 1_655 S
Dy303 O317 2.326 1_655 S
O304 Dy300 2.398 . S
O304 C302 1.185 . S
O305 Dy300 2.491 . S
O305 C302 1.355 . S
O306 Dy300 2.403 . S
O306 C308 1.254 . S
O307 Dy300 2.664 . S
O307 Dy303 2.310 1_455 S
O307 C308 1.268 . S
C308 O306 1.254 . S
C308 O307 1.268 . S
C309 O314 1.254 1_455 S
C309 O315 1.268 . S
O310 Dy303 2.351 . S
O310 C318 1.249 . S
O311 Dy300 2.326 . S
O311 C318 1.267 1_455 S
O312 C301 1.185 . S
O312 Dy303 2.398 . S
O313 C301 1.355 . S
O313 Dy303 2.491 . S
O314 Dy303 2.403 . S
O314 C309 1.254 1_655 S
O315 Dy300 2.310 . S
O315 Dy303 2.664 1_455 S
O315 C309 1.268 . S
O316 Dy300 2.351 . S
O316 C319 1.249 . S
O317 Dy303 2.326 1_455 S
O317 C319 1.267 . S
C318 O310 1.249 . S
C318 O311 1.267 1_655 S
C319 O316 1.249 . S
C319 O317 1.267 . S
Dy320 O324 2.398 . S
Dy320 O325 2.491 . S
Dy320 O326 2.403 . S
Dy320 O327 2.664 1_556 S
Dy320 O331 2.326 1_556 S
Dy320 O335 2.310 1_556 S
Dy320 O336 2.351 . S
C321 O332 1.185 . S
C321 O333 1.355 . S
C322 O324 1.185 . S
C322 O325 1.355 . S
Dy323 O327 2.310 . S
Dy323 O330 2.351 . S
Dy323 O332 2.398 . S
Dy323 O333 2.491 . S
Dy323 O334 2.403 . S
Dy323 O335 2.664 . S
Dy323 O337 2.326 . S
O324 Dy320 2.398 . S
O324 C322 1.185 . S
O325 Dy320 2.491 . S
O325 C322 1.355 . S
O326 Dy320 2.403 . S
O326 C328 1.254 1_556 S
O327 Dy320 2.664 1_554 S
O327 Dy323 2.310 . S
O327 C328 1.268 . S
C328 O326 1.254 1_554 S
C328 O327 1.268 . S
C329 O334 1.254 . S
C329 O335 1.268 . S
O330 Dy323 2.351 . S
O330 C338 1.249 . S
O331 Dy320 2.326 1_554 S
O331 C338 1.267 . S
O332 C321 1.185 . S
O332 Dy323 2.398 . S
O333 C321 1.355 . S
O333 Dy323 2.491 . S
O334 Dy323 2.403 . S
O334 C329 1.254 . S
O335 Dy320 2.310 1_554 S
O335 Dy323 2.664 . S
O335 C329 1.268 . S
O336 Dy320 2.351 . S
O336 C339 1.249 . S
O337 Dy323 2.326 . S
O337 C339 1.267 1_554 S
C338 O330 1.249 . S
C338 O331 1.267 . S
C339 O336 1.249 . S
C339 O337 1.267 1_556 S
Dy340 O344 2.398 . S
Dy340 O345 2.491 . S
Dy340 O346 2.403 . S
Dy340 O347 2.664 . S
Dy340 O351 2.326 . S
Dy340 O355 2.310 . S
Dy340 O356 2.351 . S
C341 O352 1.185 . S
C341 O353 1.355 . S
C342 O344 1.185 . S
C342 O345 1.355 . S
Dy343 O347 2.310 1_556 S
Dy343 O350 2.351 . S
Dy343 O352 2.398 . S
Dy343 O353 2.491 . S
Dy343 O354 2.403 . S
Dy343 O355 2.664 1_556 S
Dy343 O357 2.326 1_556 S
O344 Dy340 2.398 . S
O344 C342 1.185 . S
O345 Dy340 2.491 . S
O345 C342 1.355 . S
O346 Dy340 2.403 . S
O346 C348 1.254 . S
O347 Dy340 2.664 . S
O347 Dy343 2.310 1_554 S
O347 C348 1.268 . S
C348 O346 1.254 . S
C348 O347 1.268 . S
C349 O354 1.254 1_554 S
C349 O355 1.268 . S
O350 Dy343 2.351 . S
O350 C358 1.249 . S
O351 Dy340 2.326 . S
O351 C358 1.267 1_554 S
O352 C341 1.185 . S
O352 Dy343 2.398 . S
O353 C341 1.355 . S
O353 Dy343 2.491 . S
O354 Dy343 2.403 . S
O354 C349 1.254 1_556 S
O355 Dy340 2.310 . S
O355 Dy343 2.664 1_554 S
O355 C349 1.268 . S
O356 Dy340 2.351 . S
O356 C359 1.249 . S
O357 Dy343 2.326 1_554 S
O357 C359 1.267 . S
C358 O350 1.249 . S
C358 O351 1.267 1_556 S
C359 O356 1.249 . S
C359 O357 1.267 . S
Dy360 O364 2.398 . S
Dy360 O365 2.491 . S
Dy360 O366 2.403 . S
Dy360 O367 2.664 . S
Dy360 O371 2.326 . S
Dy360 O375 2.310 . S
Dy360 O376 2.351 . S
C361 O372 1.185 . S
C361 O373 1.355 . S
C362 O364 1.185 . S
C362 O365 1.355 . S
Dy363 O367 2.310 1_556 S
Dy363 O370 2.351 . S
Dy363 O372 2.398 . S
Dy363 O373 2.491 . S
Dy363 O374 2.403 1_556 S
Dy363 O375 2.664 1_556 S
Dy363 O377 2.326 1_556 S
O364 Dy360 2.398 . S
O364 C362 1.185 . S
O365 Dy360 2.491 . S
O365 C362 1.355 . S
O366 Dy360 2.403 . S
O366 C368 1.254 . S
O367 Dy360 2.664 . S
O367 Dy363 2.310 1_554 S
O367 C368 1.268 . S
C368 O366 1.254 . S
C368 O367 1.268 . S
C369 O374 1.254 . S
C369 O375 1.268 . S
O370 Dy363 2.351 . S
O370 C378 1.249 1_556 S
O371 Dy360 2.326 . S
O371 C378 1.267 . S
O372 C361 1.185 . S
O372 Dy363 2.398 . S
O373 C361 1.355 . S
O373 Dy363 2.491 . S
O374 Dy363 2.403 1_554 S
O374 C369 1.254 . S
O375 Dy360 2.310 . S
O375 Dy363 2.664 1_554 S
O375 C369 1.268 . S
O376 Dy360 2.351 . S
O376 C379 1.249 . S
O377 Dy363 2.326 1_554 S
O377 C379 1.267 . S
C378 O370 1.249 1_554 S
C378 O371 1.267 . S
C379 O376 1.249 . S
C379 O377 1.267 . S
Dy380 O384 2.398 . S
Dy380 O385 2.491 . S
Dy380 O386 2.403 . S
Dy380 O387 2.664 . S
Dy380 O391 2.326 . S
Dy380 O395 2.310 . S
Dy380 O396 2.351 . S
C381 O392 1.185 . S
C381 O393 1.355 . S
C382 O384 1.185 . S
C382 O385 1.355 . S
Dy383 O387 2.310 1_556 S
Dy383 O390 2.351 . S
Dy383 O392 2.398 . S
Dy383 O393 2.491 . S
Dy383 O394 2.403 1_556 S
Dy383 O395 2.664 1_556 S
Dy383 O397 2.326 1_556 S
O384 Dy380 2.398 . S
O384 C382 1.185 . S
O385 Dy380 2.491 . S
O385 C382 1.355 . S
O386 Dy380 2.403 . S
O386 C388 1.254 . S
O387 Dy380 2.664 . S
O387 Dy383 2.310 1_554 S
O387 C388 1.268 . S
C388 O386 1.254 . S
C388 O387 1.268 . S
C389 O394 1.254 . S
C389 O395 1.268 . S
O390 Dy383 2.351 . S
O390 C398 1.244 1_556 S
O391 Dy380 2.326 . S
O391 C398 1.275 . S
O392 C381 1.185 . S
O392 Dy383 2.398 . S
O393 C381 1.355 . S
O393 Dy383 2.491 . S
O394 Dy383 2.403 1_554 S
O394 C389 1.254 . S
O395 Dy380 2.310 . S
O395 Dy383 2.664 1_554 S
O395 C389 1.268 . S
O396 Dy380 2.351 . S
O396 C399 1.249 . S
O397 Dy383 2.326 1_554 S
O397 C399 1.267 . S
C398 O390 1.244 1_554 S
C398 O391 1.275 . S
C399 O396 1.249 . S
C399 O397 1.267 . S
Dy400 O404 2.398 . S
Dy400 O405 2.491 . S
Dy400 O406 2.403 . S
Dy400 O407 2.664 . S
Dy400 O411 2.326 . S
Dy400 O415 2.310 . S
Dy400 O416 2.351 . S
C401 O412 1.185 . S
C401 O413 1.355 . S
C402 O404 1.185 . S
C402 O405 1.355 . S
Dy403 O407 2.310 1_556 S
Dy403 O410 2.351 . S
Dy403 O412 2.398 . S
Dy403 O413 2.491 . S
Dy403 O414 2.403 . S
Dy403 O415 2.664 1_556 S
Dy403 O417 2.326 1_556 S
O404 Dy400 2.398 . S
O404 C402 1.185 . S
O405 Dy400 2.491 . S
O405 C402 1.355 . S
O406 Dy400 2.403 . S
O406 C408 1.254 . S
O407 Dy400 2.664 . S
O407 Dy403 2.310 1_554 S
O407 C408 1.268 . S
C408 O406 1.254 . S
C408 O407 1.268 . S
C409 O414 1.254 1_554 S
C409 O415 1.268 . S
O410 Dy403 2.351 . S
O410 C418 1.249 . S
O411 Dy400 2.326 . S
O411 C418 1.267 1_554 S
O412 C401 1.185 . S
O412 Dy403 2.398 . S
O413 C401 1.355 . S
O413 Dy403 2.491 . S
O414 Dy403 2.403 . S
O414 C409 1.254 1_556 S
O415 Dy400 2.310 . S
O415 Dy403 2.664 1_554 S
O415 C409 1.268 . S
O416 Dy400 2.351 . S
O416 C419 1.249 . S
O417 Dy403 2.326 1_554 S
O417 C419 1.267 . S
C418 O410 1.249 . S
C418 O411 1.267 1_556 S
C419 O416 1.249 . S
C419 O417 1.267 . S
Dy420 O424 2.398 . S
Dy420 O425 2.491 . S
Dy420 O426 2.403 . S
Dy420 O427 2.664 1_556 S
Dy420 O431 2.326 1_556 S
Dy420 O435 2.289 1_556 S
Dy420 O436 2.351 . S
C421 O432 1.185 . S
C421 O433 1.355 . S
C422 O424 1.185 . S
C422 O425 1.355 . S
Dy423 O427 2.310 . S
Dy423 O430 2.351 . S
Dy423 O432 2.398 . S
Dy423 O433 2.491 . S
Dy423 O434 2.403 . S
Dy423 O435 2.687 . S
Dy423 O437 2.339 . S
O424 Dy420 2.398 . S
O424 C422 1.185 . S
O425 Dy420 2.491 . S
O425 C422 1.355 . S
O426 Dy420 2.403 . S
O426 C428 1.254 . S
O427 Dy420 2.664 1_554 S
O427 Dy423 2.310 . S
O427 C428 1.268 1_554 S
C428 O426 1.254 . S
C428 O427 1.268 1_556 S
C429 O434 1.254 . S
C429 O435 1.281 . S
O430 Dy423 2.351 . S
O430 C438 1.249 . S
O431 Dy420 2.326 1_554 S
O431 C438 1.267 . S
O432 C421 1.185 . S
O432 Dy423 2.398 . S
O433 C421 1.355 . S
O433 Dy423 2.491 . S
O434 Dy423 2.403 . S
O434 C429 1.254 . S
O435 Dy420 2.289 1_554 S
O435 Dy423 2.687 . S
O435 C429 1.281 . S
O436 Dy420 2.351 . S
O436 C439 1.249 . S
O437 Dy423 2.339 . S
O437 C439 1.252 1_554 S
C438 O430 1.249 . S
C438 O431 1.267 . S
C439 O436 1.249 . S
C439 O437 1.252 1_556 S
Dy440 O444 2.398 . S
Dy440 O445 2.491 . S
Dy440 O446 2.403 . S
Dy440 O447 2.664 1_556 S
Dy440 O451 2.326 1_556 S
Dy440 O455 2.310 . S
Dy440 O456 2.351 . S
C441 O452 1.185 . S
C441 O453 1.355 . S
C442 O444 1.185 . S
C442 O445 1.355 . S
Dy443 O447 2.310 . S
Dy443 O450 2.351 . S
Dy443 O452 2.398 . S
Dy443 O453 2.491 . S
Dy443 O454 2.403 . S
Dy443 O455 2.664 1_554 S
Dy443 O457 2.326 1_554 S
O444 Dy440 2.398 . S
O444 C442 1.185 . S
O445 Dy440 2.491 . S
O445 C442 1.355 . S
O446 Dy440 2.403 . S
O446 C448 1.254 . S
O447 Dy440 2.664 1_554 S
O447 Dy443 2.310 . S
O447 C448 1.268 1_554 S
C448 O446 1.254 . S
C448 O447 1.268 1_556 S
C449 O454 1.254 . S
C449 O455 1.268 1_554 S
O450 Dy443 2.351 . S
O450 C458 1.249 . S
O451 Dy440 2.326 1_554 S
O451 C458 1.267 . S
O452 C441 1.185 . S
O452 Dy443 2.398 . S
O453 C441 1.355 . S
O453 Dy443 2.491 . S
O454 Dy443 2.403 . S
O454 C449 1.254 . S
O455 Dy440 2.310 . S
O455 Dy443 2.664 1_556 S
O455 C449 1.268 1_556 S
O456 Dy440 2.351 . S
O456 C459 1.249 . S
O457 Dy443 2.326 1_556 S
O457 C459 1.267 . S
C458 O450 1.249 . S
C458 O451 1.267 . S
C459 O456 1.249 . S
C459 O457 1.267 . S
Dy460 O464 2.398 . S
Dy460 O465 2.491 . S
Dy460 O466 2.403 . S
Dy460 O467 2.664 1_556 S
Dy460 O471 2.326 1_556 S
Dy460 O475 2.310 1_556 S
Dy460 O476 2.351 . S
C461 O472 1.185 . S
C461 O473 1.355 . S
C462 O464 1.185 . S
C462 O465 1.355 . S
Dy463 O467 2.310 . S
Dy463 O470 2.351 . S
Dy463 O472 2.398 . S
Dy463 O473 2.491 . S
Dy463 O474 2.403 . S
Dy463 O475 2.664 . S
Dy463 O477 2.326 . S
O464 Dy460 2.398 . S
O464 C462 1.185 . S
O465 Dy460 2.491 . S
O465 C462 1.355 . S
O466 Dy460 2.403 . S
O466 C468 1.254 1_556 S
O467 Dy460 2.664 1_554 S
O467 Dy463 2.310 . S
O467 C468 1.268 . S
C468 O466 1.254 1_554 S
C468 O467 1.268 . S
C469 O474 1.254 . S
C469 O475 1.268 . S
O470 Dy463 2.351 . S
O470 C478 1.249 . S
O471 Dy460 2.326 1_554 S
O471 C478 1.267 . S
O472 C461 1.185 . S
O472 Dy463 2.398 . S
O473 C461 1.355 . S
O473 Dy463 2.491 . S
O474 Dy463 2.403 . S
O474 C469 1.254 . S
O475 Dy460 2.310 1_554 S
O475 Dy463 2.664 . S
O475 C469 1.268 . S
O476 Dy460 2.351 . S
O476 C479 1.249 . S
O477 Dy463 2.326 . S
O477 C479 1.267 1_554 S
C478 O470 1.249 . S
C478 O471 1.267 . S
C479 O476 1.249 . S
C479 O477 1.267 1_556 S
Dy480 O484 2.398 . S
Dy480 O485 2.491 . S
Dy480 O486 2.403 . S
Dy480 O487 2.664 . S
Dy480 O491 2.326 . S
Dy480 O495 2.310 . S
Dy480 O496 2.351 . S
C481 O492 1.185 . S
C481 O493 1.355 . S
C482 O484 1.185 . S
C482 O485 1.355 . S
Dy483 O487 2.310 . S
Dy483 O490 2.351 . S
Dy483 O492 2.398 . S
Dy483 O493 2.491 . S
Dy483 O494 2.403 . S
Dy483 O495 2.664 . S
Dy483 O497 2.326 . S
O484 Dy480 2.398 . S
O484 C482 1.185 . S
O485 Dy480 2.491 . S
O485 C482 1.355 . S
O486 Dy480 2.403 . S
O486 C488 1.254 . S
O487 Dy480 2.664 . S
O487 Dy483 2.310 . S
O487 C488 1.268 . S
C488 O486 1.254 . S
C488 O487 1.268 . S
C489 O494 1.254 . S
C489 O495 1.268 . S
O490 Dy483 2.351 . S
O490 C498 1.249 . S
O491 Dy480 2.326 . S
O491 C498 1.267 . S
O492 C481 1.185 . S
O492 Dy483 2.398 . S
O493 C481 1.355 . S
O493 Dy483 2.491 . S
O494 Dy483 2.403 . S
O494 C489 1.254 . S
O495 Dy480 2.310 . S
O495 Dy483 2.664 . S
O495 C489 1.268 . S
O496 Dy480 2.351 . S
O496 C499 1.249 . S
O497 Dy483 2.326 . S
O497 C499 1.267 . S
C498 O490 1.249 . S
C498 O491 1.267 . S
C499 O496 1.249 . S
C499 O497 1.267 . S
Dy500 O504 2.398 . S
Dy500 O505 2.491 . S
Dy500 O506 2.403 . S
Dy500 O507 2.664 . S
Dy500 O511 2.326 . S
Dy500 O515 2.310 . S
Dy500 O516 2.351 . S
C501 O512 1.185 . S
C501 O513 1.355 . S
C502 O504 1.185 . S
C502 O505 1.355 . S
Dy503 O507 2.310 . S
Dy503 O510 2.351 . S
Dy503 O512 2.398 . S
Dy503 O513 2.491 . S
Dy503 O514 2.403 . S
Dy503 O515 2.664 . S
Dy503 O517 2.326 . S
O504 Dy500 2.398 . S
O504 C502 1.185 . S
O505 Dy500 2.491 . S
O505 C502 1.355 . S
O506 Dy500 2.403 . S
O506 C508 1.254 . S
O507 Dy500 2.664 . S
O507 Dy503 2.310 . S
O507 C508 1.268 . S
C508 O506 1.254 . S
C508 O507 1.268 . S
C509 O514 1.254 . S
C509 O515 1.268 . S
O510 Dy503 2.351 . S
O510 C518 1.249 . S
O511 Dy500 2.326 . S
O511 C518 1.267 . S
O512 C501 1.185 . S
O512 Dy503 2.398 . S
O513 C501 1.355 . S
O513 Dy503 2.491 . S
O514 Dy503 2.403 . S
O514 C509 1.254 . S
O515 Dy500 2.310 . S
O515 Dy503 2.664 . S
O515 C509 1.268 . S
O516 Dy500 2.351 . S
O516 C519 1.249 . S
O517 Dy503 2.326 . S
O517 C519 1.267 . S
C518 O510 1.249 . S
C518 O511 1.267 . S
C519 O516 1.249 . S
C519 O517 1.267 . S
Dy520 O524 2.398 . S
Dy520 O525 2.491 . S
Dy520 O526 2.403 . S
Dy520 O527 2.664 . S
Dy520 O531 2.326 . S
Dy520 O535 2.310 . S
Dy520 O536 2.351 . S
C521 O532 1.185 . S
C521 O533 1.355 . S
C522 O524 1.185 . S
C522 O525 1.355 . S
Dy523 O527 2.310 . S
Dy523 O530 2.351 . S
Dy523 O532 2.398 . S
Dy523 O533 2.491 . S
Dy523 O534 2.403 . S
Dy523 O535 2.664 . S
Dy523 O537 2.326 . S
O524 Dy520 2.398 . S
O524 C522 1.185 . S
O525 Dy520 2.491 . S
O525 C522 1.355 . S
O526 Dy520 2.403 . S
O526 C528 1.254 . S
O527 Dy520 2.664 . S
O527 Dy523 2.310 . S
O527 C528 1.268 . S
C528 O526 1.254 . S
C528 O527 1.268 . S
C529 O534 1.254 . S
C529 O535 1.268 . S
O530 Dy523 2.351 . S
O530 C538 1.249 . S
O531 Dy520 2.326 . S
O531 C538 1.267 . S
O532 C521 1.185 . S
O532 Dy523 2.398 . S
O533 C521 1.355 . S
O533 Dy523 2.491 . S
O534 Dy523 2.403 . S
O534 C529 1.254 . S
O535 Dy520 2.310 . S
O535 Dy523 2.664 . S
O535 C529 1.268 . S
O536 Dy520 2.351 . S
O536 C539 1.249 . S
O537 Dy523 2.326 . S
O537 C539 1.267 . S
C538 O530 1.249 . S
C538 O531 1.267 . S
C539 O536 1.249 . S
C539 O537 1.267 . S
Dy540 O544 2.398 . S
Dy540 O545 2.491 . S
Dy540 O546 2.403 . S
Dy540 O547 2.664 . S
Dy540 O551 2.326 . S
Dy540 O555 2.310 . S
Dy540 O556 2.351 . S
C541 O552 1.185 . S
C541 O553 1.355 . S
C542 O544 1.185 . S
C542 O545 1.355 . S
Dy543 O547 2.310 . S
Dy543 O550 2.351 . S
Dy543 O552 2.398 . S
Dy543 O553 2.491 . S
Dy543 O554 2.403 . S
Dy543 O555 2.664 . S
Dy543 O557 2.326 . S
O544 Dy540 2.398 . S
O544 C542 1.185 . S
O545 Dy540 2.491 . S
O545 C542 1.355 . S
O546 Dy540 2.403 . S
O546 C548 1.254 . S
O547 Dy540 2.664 . S
O547 Dy543 2.310 . S
O547 C548 1.268 . S
C548 O546 1.254 . S
C548 O547 1.268 . S
C549 O554 1.254 . S
C549 O555 1.268 . S
O550 Dy543 2.351 . S
O550 C558 1.249 . S
O551 Dy540 2.326 . S
O551 C558 1.267 . S
O552 C541 1.185 . S
O552 Dy543 2.398 . S
O553 C541 1.355 . S
O553 Dy543 2.491 . S
O554 Dy543 2.403 . S
O554 C549 1.254 . S
O555 Dy540 2.310 . S
O555 Dy543 2.664 . S
O555 C549 1.268 . S
O556 Dy540 2.351 . S
O556 C559 1.249 . S
O557 Dy543 2.326 . S
O557 C559 1.267 . S
C558 O550 1.249 . S
C558 O551 1.267 . S
C559 O556 1.249 . S
C559 O557 1.267 . S
Dy560 O564 2.398 . S
Dy560 O565 2.491 . S
Dy560 O566 2.403 . S
Dy560 O567 2.664 . S
Dy560 O571 2.326 . S
Dy560 O575 2.310 . S
Dy560 O576 2.351 . S
C561 O572 1.185 . S
C561 O573 1.355 . S
C562 O564 1.185 . S
C562 O565 1.355 . S
Dy563 O567 2.310 . S
Dy563 O570 2.351 . S
Dy563 O572 2.398 . S
Dy563 O573 2.491 . S
Dy563 O574 2.403 . S
Dy563 O575 2.664 . S
Dy563 O577 2.326 . S
O564 Dy560 2.398 . S
O564 C562 1.185 . S
O565 Dy560 2.491 . S
O565 C562 1.355 . S
O566 Dy560 2.403 . S
O566 C568 1.254 . S
O567 Dy560 2.664 . S
O567 Dy563 2.310 . S
O567 C568 1.268 . S
C568 O566 1.254 . S
C568 O567 1.268 . S
C569 O574 1.254 . S
C569 O575 1.268 . S
O570 Dy563 2.351 . S
O570 C578 1.249 . S
O571 Dy560 2.326 . S
O571 C578 1.267 . S
O572 C561 1.185 . S
O572 Dy563 2.398 . S
O573 C561 1.355 . S
O573 Dy563 2.491 . S
O574 Dy563 2.403 . S
O574 C569 1.254 . S
O575 Dy560 2.310 . S
O575 Dy563 2.664 . S
O575 C569 1.268 . S
O576 Dy560 2.351 . S
O576 C579 1.249 . S
O577 Dy563 2.326 . S
O577 C579 1.267 . S
C578 O570 1.249 . S
C578 O571 1.267 . S
C579 O576 1.249 . S
C579 O577 1.267 . S
Dy580 O584 2.398 . S
Dy580 O585 2.491 . S
Dy580 O586 2.403 . S
Dy580 O587 2.664 . S
Dy580 O591 2.326 . S
Dy580 O595 2.310 . S
Dy580 O596 2.351 . S
C581 O592 1.185 . S
C581 O593 1.355 . S
C582 O584 1.185 . S
C582 O585 1.355 . S
Dy583 O587 2.310 . S
Dy583 O590 2.351 . S
Dy583 O592 2.398 . S
Dy583 O593 2.491 . S
Dy583 O594 2.403 . S
Dy583 O595 2.664 . S
Dy583 O597 2.326 . S
O584 Dy580 2.398 . S
O584 C582 1.185 . S
O585 Dy580 2.491 . S
O585 C582 1.355 . S
O586 Dy580 2.403 . S
O586 C588 1.254 . S
O587 Dy580 2.664 . S
O587 Dy583 2.310 . S
O587 C588 1.268 . S
C588 O586 1.254 . S
C588 O587 1.268 . S
C589 O594 1.254 . S
C589 O595 1.268 . S
O590 Dy583 2.351 . S
O590 C598 1.249 . S
O591 Dy580 2.326 . S
O591 C598 1.267 . S
O592 C581 1.185 . S
O592 Dy583 2.398 . S
O593 C581 1.355 . S
O593 Dy583 2.491 . S
O594 Dy583 2.403 . S
O594 C589 1.254 . S
O595 Dy580 2.310 . S
O595 Dy583 2.664 . S
O595 C589 1.268 . S
O596 Dy580 2.351 . S
O596 C599 1.249 . S
O597 Dy583 2.326 . S
O597 C599 1.267 . S
C598 O590 1.249 . S
C598 O591 1.267 . S
C599 O596 1.249 . S
C599 O597 1.267 . S
Dy600 O604 2.398 . S
Dy600 O605 2.491 . S
Dy600 O606 2.403 . S
Dy600 O607 2.664 . S
Dy600 O611 2.326 . S
Dy600 O615 2.310 . S
Dy600 O616 2.351 . S
C601 O612 1.185 . S
C601 O613 1.355 . S
C602 O604 1.185 . S
C602 O605 1.355 . S
Dy603 O607 2.310 . S
Dy603 O610 2.351 . S
Dy603 O612 2.398 . S
Dy603 O613 2.491 . S
Dy603 O614 2.403 . S
Dy603 O615 2.664 . S
Dy603 O617 2.326 . S
O604 Dy600 2.398 . S
O604 C602 1.185 . S
O605 Dy600 2.491 . S
O605 C602 1.355 . S
O606 Dy600 2.403 . S
O606 C608 1.254 . S
O607 Dy600 2.664 . S
O607 Dy603 2.310 . S
O607 C608 1.268 . S
C608 O606 1.254 . S
C608 O607 1.268 . S
C609 O614 1.254 . S
C609 O615 1.268 . S
O610 Dy603 2.351 . S
O610 C618 1.249 . S
O611 Dy600 2.326 . S
O611 C618 1.267 . S
O612 C601 1.185 . S
O612 Dy603 2.398 . S
O613 C601 1.355 . S
O613 Dy603 2.491 . S
O614 Dy603 2.403 . S
O614 C609 1.254 . S
O615 Dy600 2.310 . S
O615 Dy603 2.664 . S
O615 C609 1.268 . S
O616 Dy600 2.351 . S
O616 C619 1.249 . S
O617 Dy603 2.326 . S
O617 C619 1.267 . S
C618 O610 1.249 . S
C618 O611 1.267 . S
C619 O616 1.249 . S
C619 O617 1.267 . S
Dy620 O624 2.398 . S
Dy620 O625 2.491 . S
Dy620 O626 2.403 . S
Dy620 O627 2.664 . S
Dy620 O631 2.326 . S
Dy620 O635 2.310 . S
Dy620 O636 2.351 . S
C621 O632 1.185 . S
C621 O633 1.355 . S
C622 O624 1.185 . S
C622 O625 1.355 . S
Dy623 O627 2.310 . S
Dy623 O630 2.351 . S
Dy623 O632 2.398 . S
Dy623 O633 2.491 . S
Dy623 O634 2.403 . S
Dy623 O635 2.664 . S
Dy623 O637 2.326 . S
O624 Dy620 2.398 . S
O624 C622 1.185 . S
O625 Dy620 2.491 . S
O625 C622 1.355 . S
O626 Dy620 2.403 . S
O626 C628 1.254 . S
O627 Dy620 2.664 . S
O627 Dy623 2.310 . S
O627 C628 1.268 . S
C628 O626 1.254 . S
C628 O627 1.268 . S
C629 O634 1.254 . S
C629 O635 1.268 . S
O630 Dy623 2.351 . S
O630 C638 1.249 . S
O631 Dy620 2.326 . S
O631 C638 1.267 . S
O632 C621 1.185 . S
O632 Dy623 2.398 . S
O633 C621 1.355 . S
O633 Dy623 2.491 . S
O634 Dy623 2.403 . S
O634 C629 1.254 . S
O635 Dy620 2.310 . S
O635 Dy623 2.664 . S
O635 C629 1.268 . S
O636 Dy620 2.351 . S
O636 C639 1.249 . S
O637 Dy623 2.326 . S
O637 C639 1.267 . S
C638 O630 1.249 . S
C638 O631 1.267 . S
C639 O636 1.249 . S
C639 O637 1.267 . S
Dy640 O644 2.398 . S
Dy640 O645 2.491 . S
Dy640 O646 2.403 . S
Dy640 O647 2.664 . S
Dy640 O651 2.326 . S
Dy640 O655 2.310 . S
Dy640 O656 2.351 . S
C641 O652 1.185 . S
C641 O653 1.355 . S
C642 O644 1.185 . S
C642 O645 1.355 . S
Dy643 O647 2.310 . S
Dy643 O650 2.351 . S
Dy643 O652 2.398 . S
Dy643 O653 2.491 . S
Dy643 O654 2.403 . S
Dy643 O655 2.664 . S
Dy643 O657 2.326 . S
O644 Dy640 2.398 . S
O644 C642 1.185 . S
O645 Dy640 2.491 . S
O645 C642 1.355 . S
O646 Dy640 2.403 . S
O646 C648 1.254 . S
O647 Dy640 2.664 . S
O647 Dy643 2.310 . S
O647 C648 1.268 . S
C648 O646 1.254 . S
C648 O647 1.268 . S
C649 O654 1.254 . S
C649 O655 1.268 . S
O650 Dy643 2.351 . S
O650 C658 1.249 . S
O651 Dy640 2.326 . S
O651 C658 1.267 . S
O652 C641 1.185 . S
O652 Dy643 2.398 . S
O653 C641 1.355 . S
O653 Dy643 2.491 . S
O654 Dy643 2.403 . S
O654 C649 1.254 . S
O655 Dy640 2.310 . S
O655 Dy643 2.664 . S
O655 C649 1.268 . S
O656 Dy640 2.351 . S
O656 C659 1.249 . S
O657 Dy643 2.326 . S
O657 C659 1.267 . S
C658 O650 1.249 . S
C658 O651 1.267 . S
C659 O656 1.249 . S
C659 O657 1.267 . S
Dy660 O664 2.398 . S
Dy660 O665 2.491 . S
Dy660 O666 2.403 . S
Dy660 O667 2.664 . S
Dy660 O671 2.326 . S
Dy660 O675 2.310 . S
Dy660 O676 2.351 . S
C661 O672 1.185 . S
C661 O673 1.355 . S
C662 O664 1.185 . S
C662 O665 1.355 . S
Dy663 O667 2.310 . S
Dy663 O670 2.351 . S
Dy663 O672 2.398 . S
Dy663 O673 2.491 . S
Dy663 O674 2.403 . S
Dy663 O675 2.664 . S
Dy663 O677 2.326 . S
O664 Dy660 2.398 . S
O664 C662 1.185 . S
O665 Dy660 2.491 . S
O665 C662 1.355 . S
O666 Dy660 2.403 . S
O666 C668 1.254 . S
O667 Dy660 2.664 . S
O667 Dy663 2.310 . S
O667 C668 1.268 . S
C668 O666 1.254 . S
C668 O667 1.268 . S
C669 O674 1.254 . S
C669 O675 1.268 . S
O670 Dy663 2.351 . S
O670 C678 1.249 . S
O671 Dy660 2.326 . S
O671 C678 1.267 . S
O672 C661 1.185 . S
O672 Dy663 2.398 . S
O673 C661 1.355 . S
O673 Dy663 2.491 . S
O674 Dy663 2.403 . S
O674 C669 1.254 . S
O675 Dy660 2.310 . S
O675 Dy663 2.664 . S
O675 C669 1.268 . S
O676 Dy660 2.351 . S
O676 C679 1.249 . S
O677 Dy663 2.326 . S
O677 C679 1.267 . S
C678 O670 1.249 . S
C678 O671 1.267 . S
C679 O676 1.249 . S
C679 O677 1.267 . S
Dy680 O684 2.398 . S
Dy680 O685 2.491 . S
Dy680 O686 2.403 . S
Dy680 O687 2.664 . S
Dy680 O691 2.326 . S
Dy680 O695 2.310 . S
Dy680 O696 2.351 . S
C681 O692 1.185 . S
C681 O693 1.355 . S
C682 O684 1.185 . S
C682 O685 1.355 . S
Dy683 O687 2.310 . S
Dy683 O690 2.351 . S
Dy683 O692 2.398 . S
Dy683 O693 2.491 . S
Dy683 O694 2.403 . S
Dy683 O695 2.664 . S
Dy683 O697 2.326 . S
O684 Dy680 2.398 . S
O684 C682 1.185 . S
O685 Dy680 2.491 . S
O685 C682 1.355 . S
O686 Dy680 2.403 . S
O686 C688 1.254 . S
O687 Dy680 2.664 . S
O687 Dy683 2.310 . S
O687 C688 1.268 . S
C688 O686 1.254 . S
C688 O687 1.268 . S
C689 O694 1.254 . S
C689 O695 1.268 . S
O690 Dy683 2.351 . S
O690 C698 1.249 . S
O691 Dy680 2.326 . S
O691 C698 1.267 . S
O692 C681 1.185 . S
O692 Dy683 2.398 . S
O693 C681 1.355 . S
O693 Dy683 2.491 . S
O694 Dy683 2.403 . S
O694 C689 1.254 . S
O695 Dy680 2.310 . S
O695 Dy683 2.664 . S
O695 C689 1.268 . S
O696 Dy680 2.351 . S
O696 C699 1.249 . S
O697 Dy683 2.326 . S
O697 C699 1.267 . S
C698 O690 1.249 . S
C698 O691 1.267 . S
C699 O696 1.249 . S
C699 O697 1.267 . S
Dy700 O704 2.398 . S
Dy700 O705 2.491 . S
Dy700 O706 2.403 . S
Dy700 O707 2.664 . S
Dy700 O711 2.326 . S
Dy700 O715 2.310 . S
Dy700 O716 2.351 . S
C701 O712 1.185 . S
C701 O713 1.355 . S
C702 O704 1.185 . S
C702 O705 1.355 . S
Dy703 O707 2.310 . S
Dy703 O710 2.351 . S
Dy703 O712 2.398 . S
Dy703 O713 2.491 . S
Dy703 O714 2.403 . S
Dy703 O715 2.664 . S
Dy703 O717 2.326 . S
O704 Dy700 2.398 . S
O704 C702 1.185 . S
O705 Dy700 2.491 . S
O705 C702 1.355 . S
O706 Dy700 2.403 . S
O706 C708 1.254 . S
O707 Dy700 2.664 . S
O707 Dy703 2.310 . S
O707 C708 1.268 . S
C708 O706 1.254 . S
C708 O707 1.268 . S
C709 O714 1.254 . S
C709 O715 1.268 . S
O710 Dy703 2.351 . S
O710 C718 1.249 . S
O711 Dy700 2.326 . S
O711 C718 1.267 . S
O712 C701 1.185 . S
O712 Dy703 2.398 . S
O713 C701 1.355 . S
O713 Dy703 2.491 . S
O714 Dy703 2.403 . S
O714 C709 1.254 . S
O715 Dy700 2.310 . S
O715 Dy703 2.664 . S
O715 C709 1.268 . S
O716 Dy700 2.351 . S
O716 C719 1.249 . S
O717 Dy703 2.326 . S
O717 C719 1.267 . S
C718 O710 1.249 . S
C718 O711 1.267 . S
C719 O716 1.249 . S
C719 O717 1.267 . S
Dy720 O724 2.398 . S
Dy720 O725 2.491 . S
Dy720 O726 2.403 . S
Dy720 O727 2.664 . S
Dy720 O731 2.326 . S
Dy720 O735 2.310 . S
Dy720 O736 2.351 . S
C721 O732 1.185 . S
C721 O733 1.355 . S
C722 O724 1.185 . S
C722 O725 1.355 . S
Dy723 O727 2.310 . S
Dy723 O730 2.351 . S
Dy723 O732 2.398 . S
Dy723 O733 2.491 . S
Dy723 O734 2.403 . S
Dy723 O735 2.664 . S
Dy723 O737 2.326 . S
O724 Dy720 2.398 . S
O724 C722 1.185 . S
O725 Dy720 2.491 . S
O725 C722 1.355 . S
O726 Dy720 2.403 . S
O726 C728 1.254 . S
O727 Dy720 2.664 . S
O727 Dy723 2.310 . S
O727 C728 1.268 . S
C728 O726 1.254 . S
C728 O727 1.268 . S
C729 O734 1.254 . S
C729 O735 1.268 . S
O730 Dy723 2.351 . S
O730 C738 1.249 . S
O731 Dy720 2.326 . S
O731 C738 1.267 . S
O732 C721 1.185 . S
O732 Dy723 2.398 . S
O733 C721 1.355 . S
O733 Dy723 2.491 . S
O734 Dy723 2.403 . S
O734 C729 1.254 . S
O735 Dy720 2.310 . S
O735 Dy723 2.664 . S
O735 C729 1.268 . S
O736 Dy720 2.351 . S
O736 C739 1.249 . S
O737 Dy723 2.326 . S
O737 C739 1.267 . S
C738 O730 1.249 . S
C738 O731 1.267 . S
C739 O736 1.249 . S
C739 O737 1.267 . S
Dy740 O744 2.398 . S
Dy740 O745 2.491 . S
Dy740 O746 2.403 . S
Dy740 O747 2.664 . S
Dy740 O751 2.326 . S
Dy740 O755 2.310 . S
Dy740 O756 2.351 . S
C741 O752 1.185 . S
C741 O753 1.355 . S
C742 O744 1.185 . S
C742 O745 1.355 . S
Dy743 O747 2.310 . S
Dy743 O750 2.351 . S
Dy743 O752 2.398 . S
Dy743 O753 2.491 . S
Dy743 O754 2.403 . S
Dy743 O755 2.664 . S
Dy743 O757 2.326 . S
O744 Dy740 2.398 . S
O744 C742 1.185 . S
O745 Dy740 2.491 . S
O745 C742 1.355 . S
O746 Dy740 2.403 . S
O746 C748 1.254 . S
O747 Dy740 2.664 . S
O747 Dy743 2.310 . S
O747 C748 1.268 . S
C748 O746 1.254 . S
C748 O747 1.268 . S
C749 O754 1.254 . S
C749 O755 1.268 . S
O750 Dy743 2.351 . S
O750 C758 1.249 . S
O751 Dy740 2.326 . S
O751 C758 1.267 . S
O752 C741 1.185 . S
O752 Dy743 2.398 . S
O753 C741 1.355 . S
O753 Dy743 2.491 . S
O754 Dy743 2.403 . S
O754 C749 1.254 . S
O755 Dy740 2.310 . S
O755 Dy743 2.664 . S
O755 C749 1.268 . S
O756 Dy740 2.351 . S
O756 C759 1.249 . S
O757 Dy743 2.326 . S
O757 C759 1.267 . S
C758 O750 1.249 . S
C758 O751 1.267 . S
C759 O756 1.249 . S
C759 O757 1.267 . S
Dy760 O764 2.398 . S
Dy760 O765 2.491 . S
Dy760 O766 2.403 . S
Dy760 O767 2.664 . S
Dy760 O771 2.326 . S
Dy760 O775 2.310 . S
Dy760 O776 2.351 . S
C761 O772 1.185 . S
C761 O773 1.355 . S
C762 O764 1.185 . S
C762 O765 1.355 . S
Dy763 O767 2.310 . S
Dy763 O770 2.351 . S
Dy763 O772 2.398 . S
Dy763 O773 2.491 . S
Dy763 O774 2.403 . S
Dy763 O775 2.664 . S
Dy763 O777 2.326 . S
O764 Dy760 2.398 . S
O764 C762 1.185 . S
O765 Dy760 2.491 . S
O765 C762 1.355 . S
O766 Dy760 2.403 . S
O766 C768 1.254 . S
O767 Dy760 2.664 . S
O767 Dy763 2.310 . S
O767 C768 1.268 . S
C768 O766 1.254 . S
C768 O767 1.268 . S
C769 O774 1.254 . S
C769 O775 1.268 . S
O770 Dy763 2.351 . S
O770 C778 1.249 . S
O771 Dy760 2.326 . S
O771 C778 1.267 . S
O772 C761 1.185 . S
O772 Dy763 2.398 . S
O773 C761 1.355 . S
O773 Dy763 2.491 . S
O774 Dy763 2.403 . S
O774 C769 1.254 . S
O775 Dy760 2.310 . S
O775 Dy763 2.664 . S
O775 C769 1.268 . S
O776 Dy760 2.351 . S
O776 C779 1.249 . S
O777 Dy763 2.326 . S
O777 C779 1.267 . S
C778 O770 1.249 . S
C778 O771 1.267 . S
C779 O776 1.249 . S
C779 O777 1.267 . S
Dy780 O784 2.398 . S
Dy780 O785 2.491 . S
Dy780 O786 2.403 . S
Dy780 O787 2.664 . S
Dy780 O791 2.326 . S
Dy780 O795 2.310 . S
Dy780 O796 2.351 . S
C781 O792 1.185 . S
C781 O793 1.355 . S
C782 O784 1.185 . S
C782 O785 1.355 . S
Dy783 O787 2.310 . S
Dy783 O790 2.351 . S
Dy783 O792 2.398 . S
Dy783 O793 2.491 . S
Dy783 O794 2.403 . S
Dy783 O795 2.664 . S
Dy783 O797 2.326 . S
O784 Dy780 2.398 . S
O784 C782 1.185 . S
O785 Dy780 2.491 . S
O785 C782 1.355 . S
O786 Dy780 2.403 . S
O786 C788 1.254 . S
O787 Dy780 2.664 . S
O787 Dy783 2.310 . S
O787 C788 1.268 . S
C788 O786 1.254 . S
C788 O787 1.268 . S
C789 O794 1.254 . S
C789 O795 1.268 . S
O790 Dy783 2.351 . S
O790 C798 1.249 . S
O791 Dy780 2.326 . S
O791 C798 1.267 . S
O792 C781 1.185 . S
O792 Dy783 2.398 . S
O793 C781 1.355 . S
O793 Dy783 2.491 . S
O794 Dy783 2.403 . S
O794 C789 1.254 . S
O795 Dy780 2.310 . S
O795 Dy783 2.664 . S
O795 C789 1.268 . S
O796 Dy780 2.351 . S
O796 C799 1.249 . S
O797 Dy783 2.326 . S
O797 C799 1.267 . S
C798 O790 1.249 . S
C798 O791 1.267 . S
C799 O796 1.249 . S
C799 O797 1.267 . S
Dy800 O804 2.398 . S
Dy800 O805 2.491 . S
Dy800 O806 2.403 . S
Dy800 O807 2.664 . S
Dy800 O811 2.326 . S
Dy800 O815 2.310 . S
Dy800 O816 2.351 . S
C801 O812 1.185 . S
C801 O813 1.355 . S
C802 O804 1.185 . S
C802 O805 1.355 . S
Dy803 O807 2.310 . S
Dy803 O810 2.351 . S
Dy803 O812 2.398 . S
Dy803 O813 2.491 . S
Dy803 O814 2.403 . S
Dy803 O815 2.664 . S
Dy803 O817 2.326 . S
O804 Dy800 2.398 . S
O804 C802 1.185 . S
O805 Dy800 2.491 . S
O805 C802 1.355 . S
O806 Dy800 2.403 . S
O806 C808 1.254 . S
O807 Dy800 2.664 . S
O807 Dy803 2.310 . S
O807 C808 1.268 . S
C808 O806 1.254 . S
C808 O807 1.268 . S
C809 O814 1.254 . S
C809 O815 1.268 . S
O810 Dy803 2.351 . S
O810 C818 1.249 . S
O811 Dy800 2.326 . S
O811 C818 1.267 . S
O812 C801 1.185 . S
O812 Dy803 2.398 . S
O813 C801 1.355 . S
O813 Dy803 2.491 . S
O814 Dy803 2.403 . S
O814 C809 1.254 . S
O815 Dy800 2.310 . S
O815 Dy803 2.664 . S
O815 C809 1.268 . S
O816 Dy800 2.351 . S
O816 C819 1.249 . S
O817 Dy803 2.326 . S
O817 C819 1.267 . S
C818 O810 1.249 . S
C818 O811 1.267 . S
C819 O816 1.249 . S
C819 O817 1.267 . S
Dy820 O824 2.398 . S
Dy820 O825 2.491 . S
Dy820 O826 2.403 . S
Dy820 O827 2.664 . S
Dy820 O831 2.326 . S
Dy820 O835 2.310 . S
Dy820 O836 2.351 . S
C821 O832 1.185 . S
C821 O833 1.355 . S
C822 O824 1.185 . S
C822 O825 1.355 . S
Dy823 O827 2.310 . S
Dy823 O830 2.351 . S
Dy823 O832 2.398 . S
Dy823 O833 2.491 . S
Dy823 O834 2.403 . S
Dy823 O835 2.664 . S
Dy823 O837 2.326 . S
O824 Dy820 2.398 . S
O824 C822 1.185 . S
O825 Dy820 2.491 . S
O825 C822 1.355 . S
O826 Dy820 2.403 . S
O826 C828 1.254 . S
O827 Dy820 2.664 . S
O827 Dy823 2.310 . S
O827 C828 1.268 . S
C828 O826 1.254 . S
C828 O827 1.268 . S
C829 O834 1.254 . S
C829 O835 1.268 . S
O830 Dy823 2.351 . S
O830 C838 1.249 . S
O831 Dy820 2.326 . S
O831 C838 1.267 . S
O832 C821 1.185 . S
O832 Dy823 2.398 . S
O833 C821 1.355 . S
O833 Dy823 2.491 . S
O834 Dy823 2.403 . S
O834 C829 1.254 . S
O835 Dy820 2.310 . S
O835 Dy823 2.664 . S
O835 C829 1.268 . S
O836 Dy820 2.351 . S
O836 C839 1.249 . S
O837 Dy823 2.326 . S
O837 C839 1.267 . S
C838 O830 1.249 . S
C838 O831 1.267 . S
C839 O836 1.249 . S
C839 O837 1.267 . S
Dy840 O844 2.398 . S
Dy840 O845 2.491 . S
Dy840 O846 2.403 . S
Dy840 O847 2.664 . S
Dy840 O851 2.326 . S
Dy840 O855 2.310 . S
Dy840 O856 2.351 . S
C841 O852 1.185 . S
C841 O853 1.355 . S
C842 O844 1.185 . S
C842 O845 1.355 . S
Dy843 O847 2.310 . S
Dy843 O850 2.351 . S
Dy843 O852 2.398 . S
Dy843 O853 2.491 . S
Dy843 O854 2.403 . S
Dy843 O855 2.664 . S
Dy843 O857 2.326 . S
O844 Dy840 2.398 . S
O844 C842 1.185 . S
O845 Dy840 2.491 . S
O845 C842 1.355 . S
O846 Dy840 2.403 . S
O846 C848 1.254 . S
O847 Dy840 2.664 . S
O847 Dy843 2.310 . S
O847 C848 1.268 . S
C848 O846 1.254 . S
C848 O847 1.268 . S
C849 O854 1.254 . S
C849 O855 1.268 . S
O850 Dy843 2.351 . S
O850 C858 1.249 . S
O851 Dy840 2.326 . S
O851 C858 1.267 . S
O852 C841 1.185 . S
O852 Dy843 2.398 . S
O853 C841 1.355 . S
O853 Dy843 2.491 . S
O854 Dy843 2.403 . S
O854 C849 1.254 . S
O855 Dy840 2.310 . S
O855 Dy843 2.664 . S
O855 C849 1.268 . S
O856 Dy840 2.351 . S
O856 C859 1.249 . S
O857 Dy843 2.326 . S
O857 C859 1.267 . S
C858 O850 1.249 . S
C858 O851 1.267 . S
C859 O856 1.249 . S
C859 O857 1.267 . S
Dy860 O864 2.398 . S
Dy860 O865 2.491 . S
Dy860 O866 2.403 . S
Dy860 O867 2.664 . S
Dy860 O871 2.326 . S
Dy860 O875 2.310 . S
Dy860 O876 2.351 . S
C861 O872 1.185 . S
C861 O873 1.355 . S
C862 O864 1.185 . S
C862 O865 1.355 . S
Dy863 O867 2.310 . S
Dy863 O870 2.351 . S
Dy863 O872 2.398 . S
Dy863 O873 2.491 . S
Dy863 O874 2.403 . S
Dy863 O875 2.664 . S
Dy863 O877 2.326 . S
O864 Dy860 2.398 . S
O864 C862 1.185 . S
O865 Dy860 2.491 . S
O865 C862 1.355 . S
O866 Dy860 2.403 . S
O866 C868 1.254 . S
O867 Dy860 2.664 . S
O867 Dy863 2.310 . S
O867 C868 1.268 . S
C868 O866 1.254 . S
C868 O867 1.268 . S
C869 O874 1.254 . S
C869 O875 1.268 . S
O870 Dy863 2.351 . S
O870 C878 1.249 . S
O871 Dy860 2.326 . S
O871 C878 1.267 . S
O872 C861 1.185 . S
O872 Dy863 2.398 . S
O873 C861 1.355 . S
O873 Dy863 2.491 . S
O874 Dy863 2.403 . S
O874 C869 1.254 . S
O875 Dy860 2.310 . S
O875 Dy863 2.664 . S
O875 C869 1.268 . S
O876 Dy860 2.351 . S
O876 C879 1.249 . S
O877 Dy863 2.326 . S
O877 C879 1.267 . S
C878 O870 1.249 . S
C878 O871 1.267 . S
C879 O876 1.249 . S
C879 O877 1.267 . S
Dy880 O884 2.398 . S
Dy880 O885 2.491 . S
Dy880 O886 2.403 . S
Dy880 O887 2.664 . S
Dy880 O891 2.326 . S
Dy880 O895 2.310 . S
Dy880 O896 2.351 . S
C881 O892 1.185 . S
C881 O893 1.355 . S
C882 O884 1.185 . S
C882 O885 1.355 . S
Dy883 O887 2.310 . S
Dy883 O890 2.351 . S
Dy883 O892 2.398 . S
Dy883 O893 2.491 . S
Dy883 O894 2.403 . S
Dy883 O895 2.664 . S
Dy883 O897 2.326 . S
O884 Dy880 2.398 . S
O884 C882 1.185 . S
O885 Dy880 2.491 . S
O885 C882 1.355 . S
O886 Dy880 2.403 . S
O886 C888 1.254 . S
O887 Dy880 2.664 . S
O887 Dy883 2.310 . S
O887 C888 1.268 . S
C888 O886 1.254 . S
C888 O887 1.268 . S
C889 O894 1.254 . S
C889 O895 1.268 . S
O890 Dy883 2.351 . S
O890 C898 1.249 . S
O891 Dy880 2.326 . S
O891 C898 1.267 . S
O892 C881 1.185 . S
O892 Dy883 2.398 . S
O893 C881 1.355 . S
O893 Dy883 2.491 . S
O894 Dy883 2.403 . S
O894 C889 1.254 . S
O895 Dy880 2.310 . S
O895 Dy883 2.664 . S
O895 C889 1.268 . S
O896 Dy880 2.351 . S
O896 C899 1.249 . S
O897 Dy883 2.326 . S
O897 C899 1.267 . S
C898 O890 1.249 . S
C898 O891 1.267 . S
C899 O896 1.249 . S
C899 O897 1.267 . S
Dy900 O904 2.398 . S
Dy900 O905 2.491 . S
Dy900 O906 2.403 . S
Dy900 O907 2.664 . S
Dy900 O911 2.326 . S
Dy900 O915 2.310 . S
Dy900 O916 2.351 . S
C901 O912 1.185 . S
C901 O913 1.355 . S
C902 O904 1.185 . S
C902 O905 1.355 . S
Dy903 O907 2.310 . S
Dy903 O910 2.351 . S
Dy903 O912 2.398 . S
Dy903 O913 2.491 . S
Dy903 O914 2.403 . S
Dy903 O915 2.664 . S
Dy903 O917 2.326 . S
O904 Dy900 2.398 . S
O904 C902 1.185 . S
O905 Dy900 2.491 . S
O905 C902 1.355 . S
O906 Dy900 2.403 . S
O906 C908 1.254 . S
O907 Dy900 2.664 . S
O907 Dy903 2.310 . S
O907 C908 1.268 . S
C908 O906 1.254 . S
C908 O907 1.268 . S
C909 O914 1.254 . S
C909 O915 1.268 . S
O910 Dy903 2.351 . S
O910 C918 1.249 . S
O911 Dy900 2.326 . S
O911 C918 1.267 . S
O912 C901 1.185 . S
O912 Dy903 2.398 . S
O913 C901 1.355 . S
O913 Dy903 2.491 . S
O914 Dy903 2.403 . S
O914 C909 1.254 . S
O915 Dy900 2.310 . S
O915 Dy903 2.664 . S
O915 C909 1.268 . S
O916 Dy900 2.351 . S
O916 C919 1.249 . S
O917 Dy903 2.326 . S
O917 C919 1.267 . S
C918 O910 1.249 . S
C918 O911 1.267 . S
C919 O916 1.249 . S
C919 O917 1.267 . S
Dy920 O924 2.398 . S
Dy920 O925 2.491 . S
Dy920 O926 2.403 . S
Dy920 O927 2.664 . S
Dy920 O931 2.326 . S
Dy920 O935 2.310 . S
Dy920 O936 2.351 . S
C921 O932 1.185 . S
C921 O933 1.355 . S
C922 O924 1.185 . S
C922 O925 1.355 . S
Dy923 O927 2.310 . S
Dy923 O930 2.351 . S
Dy923 O932 2.398 . S
Dy923 O933 2.491 . S
Dy923 O934 2.403 . S
Dy923 O935 2.664 . S
Dy923 O937 2.326 . S
O924 Dy920 2.398 . S
O924 C922 1.185 . S
O925 Dy920 2.491 . S
O925 C922 1.355 . S
O926 Dy920 2.403 . S
O926 C928 1.254 . S
O927 Dy920 2.664 . S
O927 Dy923 2.310 . S
O927 C928 1.268 . S
C928 O926 1.254 . S
C928 O927 1.268 . S
C929 O934 1.254 . S
C929 O935 1.268 . S
O930 Dy923 2.351 . S
O930 C938 1.249 . S
O931 Dy920 2.326 . S
O931 C938 1.267 . S
O932 C921 1.185 . S
O932 Dy923 2.398 . S
O933 C921 1.355 . S
O933 Dy923 2.491 . S
O934 Dy923 2.403 . S
O934 C929 1.254 . S
O935 Dy920 2.310 . S
O935 Dy923 2.664 . S
O935 C929 1.268 . S
O936 Dy920 2.351 . S
O936 C939 1.249 . S
O937 Dy923 2.326 . S
O937 C939 1.267 . S
C938 O930 1.249 . S
C938 O931 1.267 . S
C939 O936 1.249 . S
C939 O937 1.267 . S
Dy940 O944 2.398 . S
Dy940 O945 2.491 . S
Dy940 O946 2.403 . S
Dy940 O947 2.664 . S
Dy940 O951 2.326 . S
Dy940 O955 2.310 . S
Dy940 O956 2.351 . S
C941 O952 1.185 . S
C941 O953 1.355 . S
C942 O944 1.185 . S
C942 O945 1.355 . S
Dy943 O947 2.310 . S
Dy943 O950 2.351 . S
Dy943 O952 2.398 . S
Dy943 O953 2.491 . S
Dy943 O954 2.403 . S
Dy943 O955 2.664 . S
Dy943 O957 2.326 . S
O944 Dy940 2.398 . S
O944 C942 1.185 . S
O945 Dy940 2.491 . S
O945 C942 1.355 . S
O946 Dy940 2.403 . S
O946 C948 1.254 . S
O947 Dy940 2.664 . S
O947 Dy943 2.310 . S
O947 C948 1.268 . S
C948 O946 1.254 . S
C948 O947 1.268 . S
C949 O954 1.254 . S
C949 O955 1.268 . S
O950 Dy943 2.351 . S
O950 C958 1.249 . S
O951 Dy940 2.326 . S
O951 C958 1.267 . S
O952 C941 1.185 . S
O952 Dy943 2.398 . S
O953 C941 1.355 . S
O953 Dy943 2.491 . S
O954 Dy943 2.403 . S
O954 C949 1.254 . S
O955 Dy940 2.310 . S
O955 Dy943 2.664 . S
O955 C949 1.268 . S
O956 Dy940 2.351 . S
O956 C959 1.249 . S
O957 Dy943 2.326 . S
O957 C959 1.267 . S
C958 O950 1.249 . S
C958 O951 1.267 . S
C959 O956 1.249 . S
C959 O957 1.267 . S
C960 C961 1.387 . S
C960 H964 0.950 . S
C960 C969 1.390 . S
C961 C960 1.387 . S
C961 C963 1.387 . S
H962 C969 0.950 . S
C963 C961 1.387 . S
C963 C965 1.390 . S
C963 H967 0.950 . S
H964 C960 0.950 . S
C965 C963 1.390 . S
C965 C966 1.387 . S
C965 H968 0.950 . S
C966 C965 1.387 . S
C966 C969 1.387 . S
H967 C963 0.950 . S
H968 C965 0.950 . S
C969 C960 1.390 . S
C969 H962 0.950 . S
C969 C966 1.387 . S
C970 C971 1.387 . S
C970 H974 0.950 . S
C970 C979 1.390 . S
C971 C970 1.387 . S
C971 C973 1.387 . S
H972 C979 0.950 . S
C973 C971 1.387 . S
C973 C975 1.390 . S
C973 H977 0.950 . S
H974 C970 0.950 . S
C975 C973 1.390 . S
C975 C976 1.387 . S
C975 H978 0.950 . S
C976 C975 1.387 . S
C976 C979 1.387 . S
H977 C973 0.950 . S
H978 C975 0.950 . S
C979 C970 1.390 . S
C979 H972 0.950 . S
C979 C976 1.387 . S
C980 C981 1.387 . S
C980 H984 0.950 . S
C980 C989 1.390 . S
C981 C980 1.387 . S
C981 C983 1.387 . S
H982 C989 0.950 . S
C983 C981 1.387 . S
C983 C985 1.390 . S
C983 H987 0.950 . S
H984 C980 0.950 . S
C985 C983 1.390 . S
C985 C986 1.387 . S
C985 H988 0.950 . S
C986 C985 1.387 . S
C986 C989 1.387 . S
H987 C983 0.950 . S
H988 C985 0.950 . S
C989 C980 1.390 . S
C989 H982 0.950 . S
C989 C986 1.387 . S
C990 C991 1.387 . S
C990 H994 0.950 . S
C990 C999 1.390 . S
C991 C990 1.387 . S
C991 C993 1.387 . S
H992 C999 0.950 . S
C993 C991 1.387 . S
C993 C995 1.390 . S
C993 H997 0.950 . S
H994 C990 0.950 . S
C995 C993 1.390 . S
C995 C996 1.387 . S
C995 H998 0.950 . S
C996 C995 1.387 . S
C996 C999 1.387 . S
H997 C993 0.950 . S
H998 C995 0.950 . S
C999 C990 1.390 . S
C999 H992 0.950 . S
C999 C996 1.387 . S
C1000 C1001 1.387 . S
C1000 H1004 0.950 . S
C1000 C1009 1.390 . S
C1001 C1000 1.387 . S
C1001 C1003 1.387 . S
H1002 C1009 0.950 . S
C1003 C1001 1.387 . S
C1003 C1005 1.390 . S
C1003 H1007 0.950 . S
H1004 C1000 0.950 . S
C1005 C1003 1.390 . S
C1005 C1006 1.387 . S
C1005 H1008 0.950 . S
C1006 C1005 1.387 . S
C1006 C1009 1.387 . S
H1007 C1003 0.950 . S
H1008 C1005 0.950 . S
C1009 C1000 1.390 . S
C1009 H1002 0.950 . S
C1009 C1006 1.387 . S
C1010 C1011 1.387 . S
C1010 H1014 0.950 . S
C1010 C1019 1.390 . S
C1011 C1010 1.387 . S
C1011 C1013 1.387 1_455 S
H1012 C1019 0.950 . S
C1013 C1011 1.387 1_655 S
C1013 C1015 1.390 . S
C1013 H1017 0.950 . S
H1014 C1010 0.950 . S
C1015 C1013 1.390 . S
C1015 C1016 1.387 1_655 S
C1015 H1018 0.950 . S
C1016 C1015 1.387 1_455 S
C1016 C1019 1.387 . S
H1017 C1013 0.950 . S
H1018 C1015 0.950 . S
C1019 C1010 1.390 . S
C1019 H1012 0.950 . S
C1019 C1016 1.387 . S
C1020 C1021 1.387 . S
C1020 H1024 0.950 . S
C1020 C1029 1.390 . S
C1021 C1020 1.387 . S
C1021 C1023 1.387 1_545 S
H1022 C1029 0.950 . S
C1023 C1021 1.387 1_565 S
C1023 C1025 1.390 1_565 S
C1023 H1027 0.950 . S
H1024 C1020 0.950 . S
C1025 C1023 1.390 1_545 S
C1025 C1026 1.387 . S
C1025 H1028 0.950 1_545 S
C1026 C1025 1.387 . S
C1026 C1029 1.387 . S
H1027 C1023 0.950 . S
H1028 C1025 0.950 1_565 S
C1029 C1020 1.390 . S
C1029 H1022 0.950 . S
C1029 C1026 1.387 . S
C1030 C1031 1.387 1_655 S
C1030 H1034 0.950 . S
C1030 C1039 1.390 . S
C1031 C1030 1.387 1_455 S
C1031 C1033 1.387 . S
H1032 C1039 0.950 . S
C1033 C1031 1.387 . S
C1033 C1035 1.390 . S
C1033 H1037 0.950 . S
H1034 C1030 0.950 . S
C1035 C1033 1.390 . S
C1035 C1036 1.387 . S
C1035 H1038 0.950 . S
C1036 C1035 1.387 . S
C1036 C1039 1.387 1_455 S
H1037 C1033 0.950 . S
H1038 C1035 0.950 . S
C1039 C1030 1.390 . S
C1039 H1032 0.950 . S
C1039 C1036 1.387 1_655 S
C1040 C1041 1.387 1_556 S
C1040 H1044 0.950 . S
C1040 C1049 1.390 . S
C1041 C1040 1.387 1_554 S
C1041 C1043 1.387 . S
H1042 C1049 0.950 . S
C1043 C1041 1.387 . S
C1043 C1045 1.390 . S
C1043 H1047 0.950 . S
H1044 C1040 0.950 . S
C1045 C1043 1.390 . S
C1045 C1046 1.387 . S
C1045 H1048 0.950 . S
C1046 C1045 1.387 . S
C1046 C1049 1.387 1_554 S
H1047 C1043 0.950 . S
H1048 C1045 0.950 . S
C1049 C1040 1.390 . S
C1049 H1042 0.950 . S
C1049 C1046 1.387 1_556 S
C1050 C1051 1.387 . S
C1050 H1054 0.950 . S
C1050 C1059 1.390 . S
C1051 C1050 1.387 . S
C1051 C1053 1.387 . S
H1052 C1059 0.950 . S
C1053 C1051 1.387 . S
C1053 C1055 1.390 . S
C1053 H1057 0.950 . S
H1054 C1050 0.950 . S
C1055 C1053 1.390 . S
C1055 C1056 1.387 . S
C1055 H1058 0.950 . S
C1056 C1055 1.387 . S
C1056 C1059 1.387 . S
H1057 C1053 0.950 . S
H1058 C1055 0.950 . S
C1059 C1050 1.390 . S
C1059 H1052 0.950 . S
C1059 C1056 1.387 . S
C1060 C1061 1.387 . S
C1060 H1064 0.950 . S
C1060 C1069 1.390 . S
C1061 C1060 1.387 . S
C1061 C1063 1.387 . S
H1062 C1069 0.950 . S
C1063 C1061 1.387 . S
C1063 C1065 1.390 . S
C1063 H1067 0.950 . S
H1064 C1060 0.950 . S
C1065 C1063 1.390 . S
C1065 C1066 1.387 . S
C1065 H1068 0.950 . S
C1066 C1065 1.387 . S
C1066 C1069 1.387 . S
H1067 C1063 0.950 . S
H1068 C1065 0.950 . S
C1069 C1060 1.390 . S
C1069 H1062 0.950 . S
C1069 C1066 1.387 . S
C1070 C1071 1.387 . S
C1070 H1074 0.950 1_554 S
C1070 C1079 1.390 1_554 S
C1071 C1070 1.387 . S
C1071 C1073 1.387 . S
H1072 C1079 0.950 . S
C1073 C1071 1.387 . S
C1073 C1075 1.390 . S
C1073 H1077 0.950 . S
H1074 C1070 0.950 1_556 S
C1075 C1073 1.390 . S
C1075 C1076 1.387 . S
C1075 H1078 0.950 . S
C1076 C1075 1.387 . S
C1076 C1079 1.387 1_554 S
H1077 C1073 0.950 . S
H1078 C1075 0.950 . S
C1079 C1070 1.390 1_556 S
C1079 H1072 0.950 . S
C1079 C1076 1.387 1_556 S
C1080 C1081 1.387 . S
C1080 H1084 0.950 . S
C1080 C1089 1.390 1_556 S
C1081 C1080 1.387 . S
C1081 C1083 1.387 . S
H1082 C1089 0.950 . S
C1083 C1081 1.387 . S
C1083 C1085 1.390 1_556 S
C1083 H1087 0.950 . S
H1084 C1080 0.950 . S
C1085 C1083 1.390 1_554 S
C1085 C1086 1.387 . S
C1085 H1088 0.950 . S
C1086 C1085 1.387 . S
C1086 C1089 1.387 . S
H1087 C1083 0.950 . S
H1088 C1085 0.950 . S
C1089 C1080 1.390 1_554 S
C1089 H1082 0.950 . S
C1089 C1086 1.387 . S
C1090 C1091 1.387 1_554 S
C1090 H1094 0.950 1_554 S
C1090 C1099 1.390 . S
C1091 C1090 1.387 1_556 S
C1091 C1093 1.387 . S
H1092 C1099 0.950 . S
C1093 C1091 1.387 . S
C1093 C1095 1.390 1_556 S
C1093 H1097 0.950 . S
H1094 C1090 0.950 1_556 S
C1095 C1093 1.390 1_554 S
C1095 C1096 1.387 . S
C1095 H1098 0.950 . S
C1096 C1095 1.387 . S
C1096 C1099 1.387 . S
H1097 C1093 0.950 . S
H1098 C1095 0.950 . S
C1099 C1090 1.390 . S
C1099 H1092 0.950 . S
C1099 C1096 1.387 . S
C1100 C1101 1.387 1_554 S
C1100 H1104 0.950 1_554 S
C1100 C1109 1.390 . S
C1101 C1100 1.387 1_556 S
C1101 C1103 1.387 1_556 S
H1102 C1109 0.950 . S
C1103 C1101 1.387 1_554 S
C1103 C1105 1.390 . S
C1103 H1107 0.963 . S
H1104 C1100 0.950 1_556 S
C1105 C1103 1.390 . S
C1105 C1106 1.387 . S
C1105 H1108 0.950 . S
C1106 C1105 1.387 . S
C1106 C1109 1.387 . S
H1107 C1103 0.963 . S
H1108 C1105 0.950 . S
C1109 C1100 1.390 . S
C1109 H1102 0.950 . S
C1109 C1106 1.387 . S
C1110 C1111 1.387 1_554 S
C1110 H1114 0.950 1_554 S
C1110 C1119 1.390 . S
C1111 C1110 1.387 1_556 S
C1111 C1113 1.387 1_556 S
H1112 C1119 0.950 . S
C1113 C1111 1.387 1_554 S
C1113 C1115 1.390 . S
C1113 H1117 0.950 1_554 S
H1114 C1110 0.950 1_556 S
C1115 C1113 1.390 . S
C1115 C1116 1.387 . S
C1115 H1118 0.950 . S
C1116 C1115 1.387 . S
C1116 C1119 1.387 . S
H1117 C1113 0.950 1_556 S
H1118 C1115 0.950 . S
C1119 C1110 1.390 . S
C1119 H1112 0.950 . S
C1119 C1116 1.387 . S
C1120 C1121 1.387 . S
C1120 H1124 0.950 . S
C1120 C1129 1.390 1_655 S
C1121 C1120 1.387 . S
C1121 C1123 1.387 . S
H1122 C1129 0.950 . S
C1123 C1121 1.387 . S
C1123 C1125 1.390 1_655 S
C1123 H1127 0.950 . S
H1124 C1120 0.950 . S
C1125 C1123 1.390 1_455 S
C1125 C1126 1.387 . S
C1125 H1128 0.950 . S
C1126 C1125 1.387 . S
C1126 C1129 1.387 . S
H1127 C1123 0.950 . S
H1128 C1125 0.950 . S
C1129 C1120 1.390 1_455 S
C1129 H1122 0.950 . S
C1129 C1126 1.387 . S
C1130 C1131 1.387 . S
C1130 H1134 0.950 . S
C1130 C1139 1.390 1_565 S
C1131 C1130 1.387 . S
C1131 C1133 1.387 1_565 S
H1132 C1139 0.950 . S
C1133 C1131 1.387 1_545 S
C1133 C1135 1.390 . S
C1133 H1137 0.950 1_545 S
H1134 C1130 0.950 . S
C1135 C1133 1.390 . S
C1135 C1136 1.387 . S
C1135 H1138 0.950 . S
C1136 C1135 1.387 . S
C1136 C1139 1.387 . S
H1137 C1133 0.950 1_565 S
H1138 C1135 0.950 . S
C1139 C1130 1.390 1_545 S
C1139 H1132 0.950 . S
C1139 C1136 1.387 . S
C1140 C1141 1.387 . S
C1140 H1144 0.950 . S
C1140 C1149 1.390 1_655 S
C1141 C1140 1.387 . S
C1141 C1143 1.387 . S
H1142 C1149 0.950 . S
C1143 C1141 1.387 . S
C1143 C1145 1.390 1_655 S
C1143 H1147 0.950 . S
H1144 C1140 0.950 . S
C1145 C1143 1.390 1_455 S
C1145 C1146 1.387 . S
C1145 H1148 0.950 . S
C1146 C1145 1.387 . S
C1146 C1149 1.387 . S
H1147 C1143 0.950 . S
H1148 C1145 0.950 . S
C1149 C1140 1.390 1_455 S
C1149 H1142 0.950 . S
C1149 C1146 1.387 . S
C1150 C1151 1.387 . S
C1150 H1154 0.950 . S
C1150 C1159 1.429 . S
C1151 C1150 1.387 . S
C1151 C1153 1.387 . S
H1152 C1159 0.931 1_565 S
C1153 C1151 1.387 . S
C1153 C1155 1.390 . S
C1153 H1157 0.950 . S
H1154 C1150 0.950 . S
C1155 C1153 1.390 . S
C1155 C1156 1.387 1_545 S
C1155 H1158 0.950 1_545 S
C1156 C1155 1.387 1_565 S
C1156 C1159 1.368 1_565 S
H1157 C1153 0.950 . S
H1158 C1155 0.950 1_565 S
C1159 C1150 1.429 . S
C1159 H1152 0.931 1_545 S
C1159 C1156 1.368 1_545 S
C1160 C1161 1.387 . S
C1160 H1164 0.950 . S
C1160 C1169 1.390 . S
C1161 C1160 1.387 . S
C1161 C1163 1.387 . S
H1162 C1169 0.950 . S
C1163 C1161 1.387 . S
C1163 C1165 1.390 . S
C1163 H1167 0.950 . S
H1164 C1160 0.950 . S
C1165 C1163 1.390 . S
C1165 C1166 1.387 . S
C1165 H1168 0.950 . S
C1166 C1165 1.387 . S
C1166 C1169 1.387 . S
H1167 C1163 0.950 . S
H1168 C1165 0.950 . S
C1169 C1160 1.390 . S
C1169 H1162 0.950 . S
C1169 C1166 1.387 . S
C1170 C1171 1.387 . S
C1170 H1174 0.950 . S
C1170 C1179 1.390 . S
C1171 C1170 1.387 . S
C1171 C1173 1.387 . S
H1172 C1179 0.950 1_655 S
C1173 C1171 1.387 . S
C1173 C1175 1.425 . S
C1173 H1177 0.950 . S
H1174 C1170 0.950 . S
C1175 C1173 1.425 . S
C1175 C1176 1.370 1_455 S
C1175 H1178 0.933 1_455 S
C1176 C1175 1.370 1_655 S
C1176 C1179 1.387 1_655 S
H1177 C1173 0.950 . S
H1178 C1175 0.933 1_655 S
C1179 C1170 1.390 . S
C1179 H1172 0.950 1_455 S
C1179 C1176 1.387 1_455 S
C1180 C1181 1.387 1_545 S
C1180 H1184 0.950 . S
C1180 C1189 1.390 . S
C1181 C1180 1.387 1_565 S
C1181 C1183 1.387 1_565 S
H1182 C1189 0.950 . S
C1183 C1181 1.387 1_545 S
C1183 C1185 1.390 . S
C1183 H1187 0.950 1_545 S
H1184 C1180 0.950 . S
C1185 C1183 1.390 . S
C1185 C1186 1.387 . S
C1185 H1188 0.950 . S
C1186 C1185 1.387 . S
C1186 C1189 1.387 . S
H1187 C1183 0.950 1_565 S
H1188 C1185 0.950 . S
C1189 C1180 1.390 . S
C1189 H1182 0.950 . S
C1189 C1186 1.387 . S
C1190 C1191 1.387 . S
C1190 H1194 0.950 . S
C1190 C1199 1.390 1_455 S
C1191 C1190 1.387 . S
C1191 C1193 1.387 . S
H1192 C1199 0.950 . S
C1193 C1191 1.387 . S
C1193 C1195 1.390 1_455 S
C1193 H1197 0.950 . S
H1194 C1190 0.950 . S
C1195 C1193 1.390 1_655 S
C1195 C1196 1.387 . S
C1195 H1198 0.950 . S
C1196 C1195 1.387 . S
C1196 C1199 1.387 . S
H1197 C1193 0.950 . S
H1198 C1195 0.950 . S
C1199 C1190 1.390 1_655 S
C1199 H1192 0.950 . S
C1199 C1196 1.387 . S
C1200 C1201 1.387 . S
C1200 H1204 0.950 . S
C1200 C1209 1.390 . S
C1201 C1200 1.387 . S
C1201 C1203 1.387 1_455 S
H1202 C1209 0.950 . S
C1203 C1201 1.387 1_655 S
C1203 C1205 1.390 . S
C1203 H1207 0.950 . S
H1204 C1200 0.950 . S
C1205 C1203 1.390 . S
C1205 C1206 1.387 1_655 S
C1205 H1208 0.950 . S
C1206 C1205 1.387 1_455 S
C1206 C1209 1.387 . S
H1207 C1203 0.950 . S
H1208 C1205 0.950 . S
C1209 C1200 1.390 . S
C1209 H1202 0.950 . S
C1209 C1206 1.387 . S
C1210 C1211 1.387 1_565 S
C1210 H1214 0.950 . S
C1210 C1219 1.390 . S
C1211 C1210 1.387 1_545 S
C1211 C1213 1.387 . S
H1212 C1219 0.950 . S
C1213 C1211 1.387 . S
C1213 C1215 1.390 . S
C1213 H1217 0.950 . S
H1214 C1210 0.950 . S
C1215 C1213 1.390 . S
C1215 C1216 1.387 . S
C1215 H1218 0.950 . S
C1216 C1215 1.387 . S
C1216 C1219 1.387 1_545 S
H1217 C1213 0.950 . S
H1218 C1215 0.950 . S
C1219 C1210 1.390 . S
C1219 H1212 0.950 . S
C1219 C1216 1.387 1_565 S
C1220 C1221 1.387 1_655 S
C1220 H1224 0.950 . S
C1220 C1229 1.390 . S
C1221 C1220 1.387 1_455 S
C1221 C1223 1.387 . S
H1222 C1229 0.950 . S
C1223 C1221 1.387 . S
C1223 C1225 1.390 . S
C1223 H1227 0.950 . S
H1224 C1220 0.950 . S
C1225 C1223 1.390 . S
C1225 C1226 1.387 . S
C1225 H1228 0.950 . S
C1226 C1225 1.387 . S
C1226 C1229 1.387 1_455 S
H1227 C1223 0.950 . S
H1228 C1225 0.950 . S
C1229 C1220 1.390 . S
C1229 H1222 0.950 . S
C1229 C1226 1.387 1_655 S
C1230 C1231 1.387 1_565 S
C1230 H1234 0.950 . S
C1230 C1239 1.390 . S
C1231 C1230 1.387 1_545 S
C1231 C1233 1.387 . S
H1232 C1239 0.950 . S
C1233 C1231 1.387 . S
C1233 C1235 1.390 . S
C1233 H1237 0.950 . S
H1234 C1230 0.950 . S
C1235 C1233 1.390 . S
C1235 C1236 1.387 . S
C1235 H1238 0.950 . S
C1236 C1235 1.387 . S
C1236 C1239 1.387 1_545 S
H1237 C1233 0.950 . S
H1238 C1235 0.950 . S
C1239 C1230 1.390 . S
C1239 H1232 0.950 . S
C1239 C1236 1.387 1_565 S
C1240 C1241 1.387 1_655 S
C1240 H1244 0.950 . S
C1240 C1249 1.390 . S
C1241 C1240 1.387 1_455 S
C1241 C1243 1.387 . S
H1242 C1249 0.950 . S
C1243 C1241 1.387 . S
C1243 C1245 1.390 . S
C1243 H1247 0.950 . S
H1244 C1240 0.950 . S
C1245 C1243 1.390 . S
C1245 C1246 1.387 . S
C1245 H1248 0.950 . S
C1246 C1245 1.387 . S
C1246 C1249 1.387 1_455 S
H1247 C1243 0.950 . S
H1248 C1245 0.950 . S
C1249 C1240 1.390 . S
C1249 H1242 0.950 . S
C1249 C1246 1.387 1_655 S
C1250 C1251 1.387 . S
C1250 H1254 0.950 1_545 S
C1250 C1259 1.390 . S
C1251 C1250 1.387 . S
C1251 C1253 1.387 . S
H1252 C1259 0.950 1_565 S
C1253 C1251 1.387 . S
C1253 C1255 1.390 . S
C1253 H1257 0.950 . S
H1254 C1250 0.950 1_565 S
C1255 C1253 1.390 . S
C1255 C1256 1.387 . S
C1255 H1258 0.950 . S
C1256 C1255 1.387 . S
C1256 C1259 1.387 . S
H1257 C1253 0.950 . S
H1258 C1255 0.950 . S
C1259 C1250 1.390 . S
C1259 H1252 0.950 1_545 S
C1259 C1256 1.387 . S
C1260 C1261 1.387 1_655 S
C1260 H1264 0.950 . S
C1260 C1269 1.390 . S
C1261 C1260 1.387 1_455 S
C1261 C1263 1.387 . S
H1262 C1269 0.950 . S
C1263 C1261 1.387 . S
C1263 C1265 1.390 . S
C1263 H1267 0.950 . S
H1264 C1260 0.950 . S
C1265 C1263 1.390 . S
C1265 C1266 1.387 . S
C1265 H1268 0.950 . S
C1266 C1265 1.387 . S
C1266 C1269 1.387 1_455 S
H1267 C1263 0.950 . S
H1268 C1265 0.950 . S
C1269 C1260 1.390 . S
C1269 H1262 0.950 . S
C1269 C1266 1.387 1_655 S
C1270 C1271 1.364 1_565 S
C1270 H1274 0.968 . S
C1270 C1279 1.395 . S
C1271 C1270 1.364 1_545 S
C1271 C1273 1.387 . S
H1272 C1279 0.950 . S
C1273 C1271 1.387 . S
C1273 C1275 1.390 . S
C1273 H1277 0.950 . S
H1274 C1270 0.968 . S
C1275 C1273 1.390 . S
C1275 C1276 1.387 . S
C1275 H1278 0.950 . S
C1276 C1275 1.387 . S
C1276 C1279 1.387 1_545 S
H1277 C1273 0.950 . S
H1278 C1275 0.950 . S
C1279 C1270 1.395 . S
C1279 H1272 0.950 . S
C1279 C1276 1.387 1_565 S
C1280 C1281 1.406 . S
C1280 H1284 0.933 1_554 S
C1280 C1289 1.389 1_554 S
C1281 C1280 1.406 . S
C1281 C1283 1.387 . S
H1282 C1289 0.950 . S
C1283 C1281 1.387 . S
C1283 C1285 1.390 . S
C1283 H1287 0.950 . S
H1284 C1280 0.933 1_556 S
C1285 C1283 1.390 . S
C1285 C1286 1.387 . S
C1285 H1288 0.950 . S
C1286 C1285 1.387 . S
C1286 C1289 1.387 1_554 S
H1287 C1283 0.950 . S
H1288 C1285 0.950 . S
C1289 C1280 1.389 1_556 S
C1289 H1282 0.950 . S
C1289 C1286 1.387 1_556 S
C1290 C1291 1.387 . S
C1290 H1294 0.950 . S
C1290 C1299 1.390 . S
C1291 C1290 1.387 . S
C1291 C1293 1.387 1_554 S
H1292 C1299 0.950 . S
C1293 C1291 1.387 1_556 S
C1293 C1295 1.390 . S
C1293 H1297 0.950 . S
H1294 C1290 0.950 . S
C1295 C1293 1.390 . S
C1295 C1296 1.387 1_556 S
C1295 H1298 0.950 . S
C1296 C1295 1.387 1_554 S
C1296 C1299 1.387 . S
H1297 C1293 0.950 . S
H1298 C1295 0.950 . S
C1299 C1290 1.390 . S
C1299 H1292 0.950 . S
C1299 C1296 1.387 . S
C1300 C1301 1.387 . S
C1300 H1304 0.950 1_554 S
C1300 C1309 1.390 1_554 S
C1301 C1300 1.387 . S
C1301 C1303 1.387 . S
H1302 C1309 0.953 . S
C1303 C1301 1.387 . S
C1303 C1305 1.390 . S
C1303 H1307 0.950 . S
H1304 C1300 0.950 1_556 S
C1305 C1303 1.390 . S
C1305 C1306 1.387 . S
C1305 H1308 0.950 . S
C1306 C1305 1.387 . S
C1306 C1309 1.384 1_554 S
H1307 C1303 0.950 . S
H1308 C1305 0.950 . S
C1309 C1300 1.390 1_556 S
C1309 H1302 0.953 . S
C1309 C1306 1.384 1_556 S
C1310 C1311 1.387 . S
C1310 H1314 0.950 . S
C1310 C1319 1.390 . S
C1311 C1310 1.387 . S
C1311 C1313 1.387 1_554 S
H1312 C1319 0.950 . S
C1313 C1311 1.387 1_556 S
C1313 C1315 1.390 . S
C1313 H1317 0.950 . S
H1314 C1310 0.950 . S
C1315 C1313 1.390 . S
C1315 C1316 1.387 1_556 S
C1315 H1318 0.950 . S
C1316 C1315 1.387 1_554 S
C1316 C1319 1.387 . S
H1317 C1313 0.950 . S
H1318 C1315 0.950 . S
C1319 C1310 1.390 . S
C1319 H1312 0.950 . S
C1319 C1316 1.387 . S
C1320 C1321 1.387 . S
C1320 H1324 0.950 . S
C1320 C1329 1.390 . S
C1321 C1320 1.387 . S
C1321 C1323 1.387 . S
H1322 C1329 0.950 . S
C1323 C1321 1.387 . S
C1323 C1325 1.390 . S
C1323 H1327 0.950 . S
H1324 C1320 0.950 . S
C1325 C1323 1.390 . S
C1325 C1326 1.387 . S
C1325 H1328 0.950 . S
C1326 C1325 1.387 . S
C1326 C1329 1.387 . S
H1327 C1323 0.950 . S
H1328 C1325 0.950 . S
C1329 C1320 1.390 . S
C1329 H1322 0.950 . S
C1329 C1326 1.387 . S
C1330 C1331 1.387 . S
C1330 H1334 0.950 . S
C1330 C1339 1.390 . S
C1331 C1330 1.387 . S
C1331 C1333 1.387 . S
H1332 C1339 0.950 . S
C1333 C1331 1.387 . S
C1333 C1335 1.390 . S
C1333 H1337 0.950 . S
H1334 C1330 0.950 . S
C1335 C1333 1.390 . S
C1335 C1336 1.387 . S
C1335 H1338 0.950 . S
C1336 C1335 1.387 . S
C1336 C1339 1.387 . S
H1337 C1333 0.950 . S
H1338 C1335 0.950 . S
C1339 C1330 1.390 . S
C1339 H1332 0.950 . S
C1339 C1336 1.387 . S
C1340 C1341 1.387 . S
C1340 H1344 0.950 . S
C1340 C1349 1.390 . S
C1341 C1340 1.387 . S
C1341 C1343 1.387 . S
H1342 C1349 0.950 . S
C1343 C1341 1.387 . S
C1343 C1345 1.390 . S
C1343 H1347 0.950 . S
H1344 C1340 0.950 . S
C1345 C1343 1.390 . S
C1345 C1346 1.387 . S
C1345 H1348 0.950 . S
C1346 C1345 1.387 . S
C1346 C1349 1.387 . S
H1347 C1343 0.950 . S
H1348 C1345 0.950 . S
C1349 C1340 1.390 . S
C1349 H1342 0.950 . S
C1349 C1346 1.387 . S
C1350 C1351 1.387 . S
C1350 H1354 0.950 . S
C1350 C1359 1.390 . S
C1351 C1350 1.387 . S
C1351 C1353 1.387 . S
H1352 C1359 0.950 . S
C1353 C1351 1.387 . S
C1353 C1355 1.390 . S
C1353 H1357 0.950 . S
H1354 C1350 0.950 . S
C1355 C1353 1.390 . S
C1355 C1356 1.387 . S
C1355 H1358 0.950 . S
C1356 C1355 1.387 . S
C1356 C1359 1.387 . S
H1357 C1353 0.950 . S
H1358 C1355 0.950 . S
C1359 C1350 1.390 . S
C1359 H1352 0.950 . S
C1359 C1356 1.387 . S
C1360 C1361 1.387 . S
C1360 H1364 0.950 . S
C1360 C1369 1.390 . S
C1361 C1360 1.387 . S
C1361 C1363 1.387 . S
H1362 C1369 0.950 . S
C1363 C1361 1.387 . S
C1363 C1365 1.390 . S
C1363 H1367 0.950 . S
H1364 C1360 0.950 . S
C1365 C1363 1.390 . S
C1365 C1366 1.387 . S
C1365 H1368 0.950 . S
C1366 C1365 1.387 . S
C1366 C1369 1.387 . S
H1367 C1363 0.950 . S
H1368 C1365 0.950 . S
C1369 C1360 1.390 . S
C1369 H1362 0.950 . S
C1369 C1366 1.387 . S
C1370 C1371 1.387 . S
C1370 H1374 0.950 . S
C1370 C1379 1.390 . S
C1371 C1370 1.387 . S
C1371 C1373 1.387 . S
H1372 C1379 0.950 . S
C1373 C1371 1.387 . S
C1373 C1375 1.390 . S
C1373 H1377 0.950 . S
H1374 C1370 0.950 . S
C1375 C1373 1.390 . S
C1375 C1376 1.387 . S
C1375 H1378 0.950 . S
C1376 C1375 1.387 . S
C1376 C1379 1.387 . S
H1377 C1373 0.950 . S
H1378 C1375 0.950 . S
C1379 C1370 1.390 . S
C1379 H1372 0.950 . S
C1379 C1376 1.387 . S
C1380 C1381 1.387 . S
C1380 H1384 0.950 . S
C1380 C1389 1.390 . S
C1381 C1380 1.387 . S
C1381 C1383 1.387 . S
H1382 C1389 0.950 . S
C1383 C1381 1.387 . S
C1383 C1385 1.390 . S
C1383 H1387 0.950 . S
H1384 C1380 0.950 . S
C1385 C1383 1.390 . S
C1385 C1386 1.387 . S
C1385 H1388 0.950 . S
C1386 C1385 1.387 . S
C1386 C1389 1.387 . S
H1387 C1383 0.950 . S
H1388 C1385 0.950 . S
C1389 C1380 1.390 . S
C1389 H1382 0.950 . S
C1389 C1386 1.387 . S
C1390 C1391 1.387 . S
C1390 H1394 0.950 . S
C1390 C1399 1.390 . S
C1391 C1390 1.387 . S
C1391 C1393 1.387 . S
H1392 C1399 0.950 . S
C1393 C1391 1.387 . S
C1393 C1395 1.390 . S
C1393 H1397 0.950 . S
H1394 C1390 0.950 . S
C1395 C1393 1.390 . S
C1395 C1396 1.387 . S
C1395 H1398 0.950 . S
C1396 C1395 1.387 . S
C1396 C1399 1.387 . S
H1397 C1393 0.950 . S
H1398 C1395 0.950 . S
C1399 C1390 1.390 . S
C1399 H1392 0.950 . S
C1399 C1396 1.387 . S
C1400 C1401 1.387 . S
C1400 H1404 0.950 . S
C1400 C1409 1.390 . S
C1401 C1400 1.387 . S
C1401 C1403 1.387 . S
H1402 C1409 0.950 . S
C1403 C1401 1.387 . S
C1403 C1405 1.390 . S
C1403 H1407 0.950 . S
H1404 C1400 0.950 . S
C1405 C1403 1.390 . S
C1405 C1406 1.387 . S
C1405 H1408 0.950 . S
C1406 C1405 1.387 . S
C1406 C1409 1.387 . S
H1407 C1403 0.950 . S
H1408 C1405 0.950 . S
C1409 C1400 1.390 . S
C1409 H1402 0.950 . S
C1409 C1406 1.387 . S
C1410 C1411 1.387 . S
C1410 H1414 0.950 . S
C1410 C1419 1.390 . S
C1411 C1410 1.387 . S
C1411 C1413 1.387 . S
H1412 C1419 0.950 . S
C1413 C1411 1.387 . S
C1413 C1415 1.390 . S
C1413 H1417 0.950 . S
H1414 C1410 0.950 . S
C1415 C1413 1.390 . S
C1415 C1416 1.387 . S
C1415 H1418 0.950 . S
C1416 C1415 1.387 . S
C1416 C1419 1.387 . S
H1417 C1413 0.950 . S
H1418 C1415 0.950 . S
C1419 C1410 1.390 . S
C1419 H1412 0.950 . S
C1419 C1416 1.387 . S
C1420 C1421 1.387 . S
C1420 H1424 0.950 . S
C1420 C1429 1.390 . S
C1421 C1420 1.387 . S
C1421 C1423 1.387 . S
H1422 C1429 0.950 . S
C1423 C1421 1.387 . S
C1423 C1425 1.390 . S
C1423 H1427 0.950 . S
H1424 C1420 0.950 . S
C1425 C1423 1.390 . S
C1425 C1426 1.387 . S
C1425 H1428 0.950 . S
C1426 C1425 1.387 . S
C1426 C1429 1.387 . S
H1427 C1423 0.950 . S
H1428 C1425 0.950 . S
C1429 C1420 1.390 . S
C1429 H1422 0.950 . S
C1429 C1426 1.387 . S
C1430 C1431 1.387 . S
C1430 H1434 0.950 . S
C1430 C1439 1.390 . S
C1431 C1430 1.387 . S
C1431 C1433 1.387 . S
H1432 C1439 0.950 . S
C1433 C1431 1.387 . S
C1433 C1435 1.390 . S
C1433 H1437 0.950 . S
H1434 C1430 0.950 . S
C1435 C1433 1.390 . S
C1435 C1436 1.387 . S
C1435 H1438 0.950 . S
C1436 C1435 1.387 . S
C1436 C1439 1.387 . S
H1437 C1433 0.950 . S
H1438 C1435 0.950 . S
C1439 C1430 1.390 . S
C1439 H1432 0.950 . S
C1439 C1436 1.387 . S
C1440 C1441 1.387 . S
C1440 H1444 0.950 . S
C1440 C1449 1.390 . S
C1441 C1440 1.387 . S
C1441 C1443 1.387 . S
H1442 C1449 0.950 . S
C1443 C1441 1.387 . S
C1443 C1445 1.390 . S
C1443 H1447 0.950 . S
H1444 C1440 0.950 . S
C1445 C1443 1.390 . S
C1445 C1446 1.387 . S
C1445 H1448 0.950 . S
C1446 C1445 1.387 . S
C1446 C1449 1.387 . S
H1447 C1443 0.950 . S
H1448 C1445 0.950 . S
C1449 C1440 1.390 . S
C1449 H1442 0.950 . S
C1449 C1446 1.387 . S
C1450 C1451 1.387 . S
C1450 H1454 0.950 . S
C1450 C1459 1.390 . S
C1451 C1450 1.387 . S
C1451 C1453 1.387 . S
H1452 C1459 0.950 . S
C1453 C1451 1.387 . S
C1453 C1455 1.390 . S
C1453 H1457 0.950 . S
H1454 C1450 0.950 . S
C1455 C1453 1.390 . S
C1455 C1456 1.387 . S
C1455 H1458 0.950 . S
C1456 C1455 1.387 . S
C1456 C1459 1.387 . S
H1457 C1453 0.950 . S
H1458 C1455 0.950 . S
C1459 C1450 1.390 . S
C1459 H1452 0.950 . S
C1459 C1456 1.387 . S
C1460 C1461 1.387 . S
C1460 H1464 0.950 . S
C1460 C1469 1.390 . S
C1461 C1460 1.387 . S
C1461 C1463 1.387 . S
H1462 C1469 0.950 . S
C1463 C1461 1.387 . S
C1463 C1465 1.390 . S
C1463 H1467 0.950 . S
H1464 C1460 0.950 . S
C1465 C1463 1.390 . S
C1465 C1466 1.387 . S
C1465 H1468 0.950 . S
C1466 C1465 1.387 . S
C1466 C1469 1.387 . S
H1467 C1463 0.950 . S
H1468 C1465 0.950 . S
C1469 C1460 1.390 . S
C1469 H1462 0.950 . S
C1469 C1466 1.387 . S
C1470 C1471 1.387 . S
C1470 H1474 0.950 . S
C1470 C1479 1.390 . S
C1471 C1470 1.387 . S
C1471 C1473 1.387 . S
H1472 C1479 0.950 . S
C1473 C1471 1.387 . S
C1473 C1475 1.390 . S
C1473 H1477 0.950 . S
H1474 C1470 0.950 . S
C1475 C1473 1.390 . S
C1475 C1476 1.387 . S
C1475 H1478 0.950 . S
C1476 C1475 1.387 . S
C1476 C1479 1.387 . S
H1477 C1473 0.950 . S
H1478 C1475 0.950 . S
C1479 C1470 1.390 . S
C1479 H1472 0.950 . S
C1479 C1476 1.387 . S
C1480 C1481 1.387 . S
C1480 H1484 0.950 . S
C1480 C1489 1.390 . S
C1481 C1480 1.387 . S
C1481 C1483 1.387 . S
H1482 C1489 0.950 . S
C1483 C1481 1.387 . S
C1483 C1485 1.390 . S
C1483 H1487 0.950 . S
H1484 C1480 0.950 . S
C1485 C1483 1.390 . S
C1485 C1486 1.387 . S
C1485 H1488 0.950 . S
C1486 C1485 1.387 . S
C1486 C1489 1.387 . S
H1487 C1483 0.950 . S
H1488 C1485 0.950 . S
C1489 C1480 1.390 . S
C1489 H1482 0.950 . S
C1489 C1486 1.387 . S
C1490 C1491 1.387 . S
C1490 H1494 0.950 . S
C1490 C1499 1.390 . S
C1491 C1490 1.387 . S
C1491 C1493 1.387 . S
H1492 C1499 0.950 . S
C1493 C1491 1.387 . S
C1493 C1495 1.390 . S
C1493 H1497 0.950 . S
H1494 C1490 0.950 . S
C1495 C1493 1.390 . S
C1495 C1496 1.387 . S
C1495 H1498 0.950 . S
C1496 C1495 1.387 . S
C1496 C1499 1.387 . S
H1497 C1493 0.950 . S
H1498 C1495 0.950 . S
C1499 C1490 1.390 . S
C1499 H1492 0.950 . S
C1499 C1496 1.387 . S
C1500 C1501 1.387 . S
C1500 H1504 0.950 . S
C1500 C1509 1.390 . S
C1501 C1500 1.387 . S
C1501 C1503 1.387 . S
H1502 C1509 0.950 . S
C1503 C1501 1.387 . S
C1503 C1505 1.390 . S
C1503 H1507 0.950 . S
H1504 C1500 0.950 . S
C1505 C1503 1.390 . S
C1505 C1506 1.387 . S
C1505 H1508 0.950 . S
C1506 C1505 1.387 . S
C1506 C1509 1.387 . S
H1507 C1503 0.950 . S
H1508 C1505 0.950 . S
C1509 C1500 1.390 . S
C1509 H1502 0.950 . S
C1509 C1506 1.387 . S
C1510 C1511 1.387 . S
C1510 H1514 0.950 . S
C1510 C1519 1.390 . S
C1511 C1510 1.387 . S
C1511 C1513 1.387 . S
H1512 C1519 0.950 . S
C1513 C1511 1.387 . S
C1513 C1515 1.390 . S
C1513 H1517 0.950 . S
H1514 C1510 0.950 . S
C1515 C1513 1.390 . S
C1515 C1516 1.387 . S
C1515 H1518 0.950 . S
C1516 C1515 1.387 . S
C1516 C1519 1.387 . S
H1517 C1513 0.950 . S
H1518 C1515 0.950 . S
C1519 C1510 1.390 . S
C1519 H1512 0.950 . S
C1519 C1516 1.387 . S
C1520 C1521 1.387 . S
C1520 H1524 0.950 . S
C1520 C1529 1.390 . S
C1521 C1520 1.387 . S
C1521 C1523 1.387 . S
H1522 C1529 0.950 . S
C1523 C1521 1.387 . S
C1523 C1525 1.390 . S
C1523 H1527 0.950 . S
H1524 C1520 0.950 . S
C1525 C1523 1.390 . S
C1525 C1526 1.387 . S
C1525 H1528 0.950 . S
C1526 C1525 1.387 . S
C1526 C1529 1.387 . S
H1527 C1523 0.950 . S
H1528 C1525 0.950 . S
C1529 C1520 1.390 . S
C1529 H1522 0.950 . S
C1529 C1526 1.387 . S
C1530 C1531 1.387 . S
C1530 H1534 0.950 . S
C1530 C1539 1.390 . S
C1531 C1530 1.387 . S
C1531 C1533 1.387 . S
H1532 C1539 0.950 . S
C1533 C1531 1.387 . S
C1533 C1535 1.390 . S
C1533 H1537 0.950 . S
H1534 C1530 0.950 . S
C1535 C1533 1.390 . S
C1535 C1536 1.387 . S
C1535 H1538 0.950 . S
C1536 C1535 1.387 . S
C1536 C1539 1.387 . S
H1537 C1533 0.950 . S
H1538 C1535 0.950 . S
C1539 C1530 1.390 . S
C1539 H1532 0.950 . S
C1539 C1536 1.387 . S
C1540 C1541 1.387 . S
C1540 H1544 0.950 1_565 S
C1540 C1549 1.390 . S
C1541 C1540 1.387 . S
C1541 C1543 1.387 . S
H1542 C1549 0.950 . S
C1543 C1541 1.387 . S
C1543 C1545 1.390 . S
C1543 H1547 0.950 . S
H1544 C1540 0.950 1_545 S
C1545 C1543 1.390 . S
C1545 C1546 1.387 . S
C1545 H1548 0.950 . S
C1546 C1545 1.387 . S
C1546 C1549 1.387 . S
H1547 C1543 0.950 . S
H1548 C1545 0.950 . S
C1549 C1540 1.390 . S
C1549 H1542 0.950 . S
C1549 C1546 1.387 . S
C1550 C1551 1.387 . S
C1550 H1554 0.950 . S
C1550 C1559 1.390 . S
C1551 C1550 1.387 . S
C1551 C1553 1.387 . S
H1552 C1559 0.950 . S
C1553 C1551 1.387 . S
C1553 C1555 1.390 . S
C1553 H1557 0.950 . S
H1554 C1550 0.950 . S
C1555 C1553 1.390 . S
C1555 C1556 1.387 . S
C1555 H1558 0.950 . S
C1556 C1555 1.387 . S
C1556 C1559 1.387 . S
H1557 C1553 0.950 . S
H1558 C1555 0.950 . S
C1559 C1550 1.390 . S
C1559 H1552 0.950 . S
C1559 C1556 1.387 . S
C1560 C1561 1.387 . S
C1560 H1564 0.950 . S
C1560 C1569 1.390 . S
C1561 C1560 1.387 . S
C1561 C1563 1.387 . S
H1562 C1569 0.950 . S
C1563 C1561 1.387 . S
C1563 C1565 1.390 . S
C1563 H1567 0.950 . S
H1564 C1560 0.950 . S
C1565 C1563 1.390 . S
C1565 C1566 1.387 . S
C1565 H1568 0.950 . S
C1566 C1565 1.387 . S
C1566 C1569 1.387 . S
H1567 C1563 0.950 . S
H1568 C1565 0.950 . S
C1569 C1560 1.390 . S
C1569 H1562 0.950 . S
C1569 C1566 1.387 . S
C1570 C1571 1.387 . S
C1570 H1574 0.950 . S
C1570 C1579 1.390 . S
C1571 C1570 1.387 . S
C1571 C1573 1.387 . S
H1572 C1579 0.950 . S
C1573 C1571 1.387 . S
C1573 C1575 1.390 . S
C1573 H1577 0.950 . S
H1574 C1570 0.950 . S
C1575 C1573 1.390 . S
C1575 C1576 1.387 . S
C1575 H1578 0.950 . S
C1576 C1575 1.387 . S
C1576 C1579 1.387 . S
H1577 C1573 0.950 . S
H1578 C1575 0.950 . S
C1579 C1570 1.390 . S
C1579 H1572 0.950 . S
C1579 C1576 1.387 . S
C1580 C1581 1.387 . S
C1580 H1584 0.950 . S
C1580 C1589 1.390 . S
C1581 C1580 1.387 . S
C1581 C1583 1.387 . S
H1582 C1589 0.950 . S
C1583 C1581 1.387 . S
C1583 C1585 1.390 . S
C1583 H1587 0.946 1_556 S
H1584 C1580 0.950 . S
C1585 C1583 1.390 . S
C1585 C1586 1.387 . S
C1585 H1588 0.950 . S
C1586 C1585 1.387 . S
C1586 C1589 1.387 . S
H1587 C1583 0.946 1_554 S
H1588 C1585 0.950 . S
C1589 C1580 1.390 . S
C1589 H1582 0.950 . S
C1589 C1586 1.387 . S
C1590 C1591 1.387 . S
C1590 H1594 0.950 . S
C1590 C1599 1.390 . S
C1591 C1590 1.387 . S
C1591 C1593 1.387 . S
H1592 C1599 0.950 . S
C1593 C1591 1.387 . S
C1593 C1595 1.390 . S
C1593 H1597 0.950 . S
H1594 C1590 0.950 . S
C1595 C1593 1.390 . S
C1595 C1596 1.387 . S
C1595 H1598 0.950 . S
C1596 C1595 1.387 . S
C1596 C1599 1.387 . S
H1597 C1593 0.950 . S
H1598 C1595 0.950 . S
C1599 C1590 1.390 . S
C1599 H1592 0.950 . S
C1599 C1596 1.387 . S
C1600 C1601 1.387 . S
C1600 H1604 0.950 . S
C1600 C1609 1.390 . S
C1601 C1600 1.387 . S
C1601 C1603 1.387 . S
H1602 C1609 0.950 . S
C1603 C1601 1.387 . S
C1603 C1605 1.390 . S
C1603 H1607 0.950 . S
H1604 C1600 0.950 . S
C1605 C1603 1.390 . S
C1605 C1606 1.387 . S
C1605 H1608 0.950 . S
C1606 C1605 1.387 . S
C1606 C1609 1.387 . S
H1607 C1603 0.950 . S
H1608 C1605 0.950 . S
C1609 C1600 1.390 . S
C1609 H1602 0.950 . S
C1609 C1606 1.387 . S
C1610 C1611 1.387 . S
C1610 H1614 0.950 . S
C1610 C1619 1.390 . S
C1611 C1610 1.387 . S
C1611 C1613 1.387 . S
H1612 C1619 0.950 . S
C1613 C1611 1.387 . S
C1613 C1615 1.390 . S
C1613 H1617 0.950 . S
H1614 C1610 0.950 . S
C1615 C1613 1.390 . S
C1615 C1616 1.387 . S
C1615 H1618 0.950 . S
C1616 C1615 1.387 . S
C1616 C1619 1.387 . S
H1617 C1613 0.950 . S
H1618 C1615 0.950 . S
C1619 C1610 1.390 . S
C1619 H1612 0.950 . S
C1619 C1616 1.387 . S
C1620 C1621 1.387 . S
C1620 H1624 0.950 . S
C1620 C1629 1.390 . S
C1621 C1620 1.387 . S
C1621 C1623 1.387 . S
H1622 C1629 0.950 . S
C1623 C1621 1.387 . S
C1623 C1625 1.390 . S
C1623 H1627 0.950 . S
H1624 C1620 0.950 . S
C1625 C1623 1.390 . S
C1625 C1626 1.387 . S
C1625 H1628 0.950 . S
C1626 C1625 1.387 . S
C1626 C1629 1.387 . S
H1627 C1623 0.950 . S
H1628 C1625 0.950 . S
C1629 C1620 1.390 . S
C1629 H1622 0.950 . S
C1629 C1626 1.387 . S
C1630 C1631 1.387 . S
C1630 H1634 0.950 . S
C1630 C1639 1.390 . S
C1631 C1630 1.387 . S
C1631 C1633 1.387 . S
H1632 C1639 0.950 . S
C1633 C1631 1.387 . S
C1633 C1635 1.390 . S
C1633 H1637 0.950 . S
H1634 C1630 0.950 . S
C1635 C1633 1.390 . S
C1635 C1636 1.387 . S
C1635 H1638 0.950 . S
C1636 C1635 1.387 . S
C1636 C1639 1.387 . S
H1637 C1633 0.950 . S
H1638 C1635 0.950 . S
C1639 C1630 1.390 . S
C1639 H1632 0.950 . S
C1639 C1636 1.387 . S
C1640 C1641 1.387 . S
C1640 H1644 0.950 . S
C1640 C1649 1.390 . S
C1641 C1640 1.387 . S
C1641 C1643 1.387 . S
H1642 C1649 0.950 . S
C1643 C1641 1.387 . S
C1643 C1645 1.390 . S
C1643 H1647 0.950 . S
H1644 C1640 0.950 . S
C1645 C1643 1.390 . S
C1645 C1646 1.387 . S
C1645 H1648 0.950 . S
C1646 C1645 1.387 . S
C1646 C1649 1.387 . S
H1647 C1643 0.950 . S
H1648 C1645 0.950 . S
C1649 C1640 1.390 . S
C1649 H1642 0.950 . S
C1649 C1646 1.387 . S
C1650 C1651 1.387 . S
C1650 H1654 0.950 . S
C1650 C1659 1.390 . S
C1651 C1650 1.387 . S
C1651 C1653 1.387 . S
H1652 C1659 0.950 . S
C1653 C1651 1.387 . S
C1653 C1655 1.390 . S
C1653 H1657 0.950 . S
H1654 C1650 0.950 . S
C1655 C1653 1.390 . S
C1655 C1656 1.387 . S
C1655 H1658 0.950 . S
C1656 C1655 1.387 . S
C1656 C1659 1.387 . S
H1657 C1653 0.950 . S
H1658 C1655 0.950 . S
C1659 C1650 1.390 . S
C1659 H1652 0.950 . S
C1659 C1656 1.387 . S
C1660 C1661 1.387 . S
C1660 H1664 0.950 . S
C1660 C1669 1.390 . S
C1661 C1660 1.387 . S
C1661 C1663 1.387 . S
H1662 C1669 0.950 . S
C1663 C1661 1.387 . S
C1663 C1665 1.390 . S
C1663 H1667 0.950 . S
H1664 C1660 0.950 . S
C1665 C1663 1.390 . S
C1665 C1666 1.387 . S
C1665 H1668 0.950 . S
C1666 C1665 1.387 . S
C1666 C1669 1.387 . S
H1667 C1663 0.950 . S
H1668 C1665 0.950 . S
C1669 C1660 1.390 . S
C1669 H1662 0.950 . S
C1669 C1666 1.387 . S
C1670 C1671 1.387 . S
C1670 H1674 0.950 . S
C1670 C1679 1.390 . S
C1671 C1670 1.387 . S
C1671 C1673 1.387 . S
H1672 C1679 0.950 . S
C1673 C1671 1.387 . S
C1673 C1675 1.390 . S
C1673 H1677 0.950 . S
H1674 C1670 0.950 . S
C1675 C1673 1.390 . S
C1675 C1676 1.387 . S
C1675 H1678 0.950 . S
C1676 C1675 1.387 . S
C1676 C1679 1.387 . S
H1677 C1673 0.950 . S
H1678 C1675 0.950 . S
C1679 C1670 1.390 . S
C1679 H1672 0.950 . S
C1679 C1676 1.387 . S
C1680 C1681 1.387 . S
C1680 H1684 0.950 . S
C1680 C1689 1.390 . S
C1681 C1680 1.387 . S
C1681 C1683 1.387 . S
H1682 C1689 0.950 . S
C1683 C1681 1.387 . S
C1683 C1685 1.390 . S
C1683 H1687 0.950 . S
H1684 C1680 0.950 . S
C1685 C1683 1.390 . S
C1685 C1686 1.387 . S
C1685 H1688 0.950 . S
C1686 C1685 1.387 . S
C1686 C1689 1.387 . S
H1687 C1683 0.950 . S
H1688 C1685 0.950 . S
C1689 C1680 1.390 . S
C1689 H1682 0.950 . S
C1689 C1686 1.387 . S
C1690 C1691 1.387 . S
C1690 H1694 0.950 . S
C1690 C1699 1.390 . S
C1691 C1690 1.387 . S
C1691 C1693 1.387 . S
H1692 C1699 0.950 . S
C1693 C1691 1.387 . S
C1693 C1695 1.390 . S
C1693 H1697 0.950 . S
H1694 C1690 0.950 . S
C1695 C1693 1.390 . S
C1695 C1696 1.387 . S
C1695 H1698 0.950 . S
C1696 C1695 1.387 . S
C1696 C1699 1.387 . S
H1697 C1693 0.950 . S
H1698 C1695 0.950 . S
C1699 C1690 1.390 . S
C1699 H1692 0.950 . S
C1699 C1696 1.387 . S
C1700 C1701 1.387 . S
C1700 H1704 0.950 . S
C1700 C1709 1.390 . S
C1701 C1700 1.387 . S
C1701 C1703 1.387 . S
H1702 C1709 0.950 . S
C1703 C1701 1.387 . S
C1703 C1705 1.390 . S
C1703 H1707 0.950 . S
H1704 C1700 0.950 . S
C1705 C1703 1.390 . S
C1705 C1706 1.387 . S
C1705 H1708 0.950 . S
C1706 C1705 1.387 . S
C1706 C1709 1.387 . S
H1707 C1703 0.950 . S
H1708 C1705 0.950 . S
C1709 C1700 1.390 . S
C1709 H1702 0.950 . S
C1709 C1706 1.387 . S
C1710 C1711 1.387 . S
C1710 H1714 0.950 . S
C1710 C1719 1.390 . S
C1711 C1710 1.387 . S
C1711 C1713 1.387 . S
H1712 C1719 0.950 . S
C1713 C1711 1.387 . S
C1713 C1715 1.390 . S
C1713 H1717 0.950 . S
H1714 C1710 0.950 . S
C1715 C1713 1.390 . S
C1715 C1716 1.387 . S
C1715 H1718 0.950 . S
C1716 C1715 1.387 . S
C1716 C1719 1.387 . S
H1717 C1713 0.950 . S
H1718 C1715 0.950 . S
C1719 C1710 1.390 . S
C1719 H1712 0.950 . S
C1719 C1716 1.387 . S
C1720 C1721 1.387 . S
C1720 H1724 0.950 . S
C1720 C1729 1.390 . S
C1721 C1720 1.387 . S
C1721 C1723 1.387 . S
H1722 C1729 0.950 . S
C1723 C1721 1.387 . S
C1723 C1725 1.390 . S
C1723 H1727 0.950 . S
H1724 C1720 0.950 . S
C1725 C1723 1.390 . S
C1725 C1726 1.387 . S
C1725 H1728 0.950 . S
C1726 C1725 1.387 . S
C1726 C1729 1.387 . S
H1727 C1723 0.950 . S
H1728 C1725 0.950 . S
C1729 C1720 1.390 . S
C1729 H1722 0.950 . S
C1729 C1726 1.387 . S
C1730 C1731 1.387 . S
C1730 H1734 0.950 . S
C1730 C1739 1.390 . S
C1731 C1730 1.387 . S
C1731 C1733 1.387 . S
H1732 C1739 0.950 . S
C1733 C1731 1.387 . S
C1733 C1735 1.390 . S
C1733 H1737 0.950 . S
H1734 C1730 0.950 . S
C1735 C1733 1.390 . S
C1735 C1736 1.387 . S
C1735 H1738 0.950 . S
C1736 C1735 1.387 . S
C1736 C1739 1.387 . S
H1737 C1733 0.950 . S
H1738 C1735 0.950 . S
C1739 C1730 1.390 . S
C1739 H1732 0.950 . S
C1739 C1736 1.387 . S
C1740 C1741 1.387 . S
C1740 H1744 0.950 . S
C1740 C1749 1.390 . S
C1741 C1740 1.387 . S
C1741 C1743 1.387 . S
H1742 C1749 0.950 . S
C1743 C1741 1.387 . S
C1743 C1745 1.390 . S
C1743 H1747 0.950 . S
H1744 C1740 0.950 . S
C1745 C1743 1.390 . S
C1745 C1746 1.387 . S
C1745 H1748 0.950 . S
C1746 C1745 1.387 . S
C1746 C1749 1.387 . S
H1747 C1743 0.950 . S
H1748 C1745 0.950 . S
C1749 C1740 1.390 . S
C1749 H1742 0.950 . S
C1749 C1746 1.387 . S
C1750 C1751 1.387 . S
C1750 H1754 0.950 . S
C1750 C1759 1.390 . S
C1751 C1750 1.387 . S
C1751 C1753 1.387 . S
H1752 C1759 0.950 . S
C1753 C1751 1.387 . S
C1753 C1755 1.390 . S
C1753 H1757 0.950 . S
H1754 C1750 0.950 . S
C1755 C1753 1.390 . S
C1755 C1756 1.387 . S
C1755 H1758 0.950 . S
C1756 C1755 1.387 . S
C1756 C1759 1.387 . S
H1757 C1753 0.950 . S
H1758 C1755 0.950 . S
C1759 C1750 1.390 . S
C1759 H1752 0.950 . S
C1759 C1756 1.387 . S
C1760 C1761 1.387 . S
C1760 H1764 0.950 . S
C1760 C1769 1.390 . S
C1761 C1760 1.387 . S
C1761 C1763 1.387 . S
H1762 C1769 0.950 . S
C1763 C1761 1.387 . S
C1763 C1765 1.390 . S
C1763 H1767 0.950 . S
H1764 C1760 0.950 . S
C1765 C1763 1.390 . S
C1765 C1766 1.387 . S
C1765 H1768 0.950 . S
C1766 C1765 1.387 . S
C1766 C1769 1.387 . S
H1767 C1763 0.950 . S
H1768 C1765 0.950 . S
C1769 C1760 1.390 . S
C1769 H1762 0.950 . S
C1769 C1766 1.387 . S
C1770 C1771 1.387 . S
C1770 H1774 0.950 . S
C1770 C1779 1.390 . S
C1771 C1770 1.387 . S
C1771 C1773 1.387 . S
H1772 C1779 0.950 . S
C1773 C1771 1.387 . S
C1773 C1775 1.390 . S
C1773 H1777 0.950 . S
H1774 C1770 0.950 . S
C1775 C1773 1.390 . S
C1775 C1776 1.387 . S
C1775 H1778 0.950 . S
C1776 C1775 1.387 . S
C1776 C1779 1.387 . S
H1777 C1773 0.950 . S
H1778 C1775 0.950 . S
C1779 C1770 1.390 . S
C1779 H1772 0.950 . S
C1779 C1776 1.387 . S
C1780 C1781 1.387 . S
C1780 H1784 0.950 . S
C1780 C1789 1.390 . S
C1781 C1780 1.387 . S
C1781 C1783 1.387 . S
H1782 C1789 0.950 . S
C1783 C1781 1.387 . S
C1783 C1785 1.390 . S
C1783 H1787 0.950 . S
H1784 C1780 0.950 . S
C1785 C1783 1.390 . S
C1785 C1786 1.387 . S
C1785 H1788 0.950 . S
C1786 C1785 1.387 . S
C1786 C1789 1.387 . S
H1787 C1783 0.950 . S
H1788 C1785 0.950 . S
C1789 C1780 1.390 . S
C1789 H1782 0.950 . S
C1789 C1786 1.387 . S
C1790 C1791 1.387 . S
C1790 H1794 0.950 . S
C1790 C1799 1.390 . S
C1791 C1790 1.387 . S
C1791 C1793 1.387 . S
H1792 C1799 0.950 . S
C1793 C1791 1.387 . S
C1793 C1795 1.390 . S
C1793 H1797 0.950 . S
H1794 C1790 0.950 . S
C1795 C1793 1.390 . S
C1795 C1796 1.387 . S
C1795 H1798 0.950 . S
C1796 C1795 1.387 . S
C1796 C1799 1.387 . S
H1797 C1793 0.950 . S
H1798 C1795 0.950 . S
C1799 C1790 1.390 . S
C1799 H1792 0.950 . S
C1799 C1796 1.387 . S
C1800 C1801 1.387 . S
C1800 H1804 0.950 . S
C1800 C1809 1.390 . S
C1801 C1800 1.387 . S
C1801 C1803 1.387 . S
H1802 C1809 0.950 . S
C1803 C1801 1.387 . S
C1803 C1805 1.390 . S
C1803 H1807 0.950 . S
H1804 C1800 0.950 . S
C1805 C1803 1.390 . S
C1805 C1806 1.387 . S
C1805 H1808 0.950 . S
C1806 C1805 1.387 . S
C1806 C1809 1.387 . S
H1807 C1803 0.950 . S
H1808 C1805 0.950 . S
C1809 C1800 1.390 . S
C1809 H1802 0.950 . S
C1809 C1806 1.387 . S
C1810 C1811 1.387 . S
C1810 H1814 0.950 . S
C1810 C1819 1.390 . S
C1811 C1810 1.387 . S
C1811 C1813 1.387 . S
H1812 C1819 0.950 . S
C1813 C1811 1.387 . S
C1813 C1815 1.390 . S
C1813 H1817 0.950 . S
H1814 C1810 0.950 . S
C1815 C1813 1.390 . S
C1815 C1816 1.387 . S
C1815 H1818 0.950 . S
C1816 C1815 1.387 . S
C1816 C1819 1.387 . S
H1817 C1813 0.950 . S
H1818 C1815 0.950 . S
C1819 C1810 1.390 . S
C1819 H1812 0.950 . S
C1819 C1816 1.387 . S
C1820 C1821 1.387 . S
C1820 H1824 0.950 . S
C1820 C1829 1.390 . S
C1821 C1820 1.387 . S
C1821 C1823 1.387 . S
H1822 C1829 0.950 . S
C1823 C1821 1.387 . S
C1823 C1825 1.390 . S
C1823 H1827 0.950 . S
H1824 C1820 0.950 . S
C1825 C1823 1.390 . S
C1825 C1826 1.387 . S
C1825 H1828 0.950 . S
C1826 C1825 1.387 . S
C1826 C1829 1.387 . S
H1827 C1823 0.950 . S
H1828 C1825 0.950 . S
C1829 C1820 1.390 . S
C1829 H1822 0.950 . S
C1829 C1826 1.387 . S
C1830 C1831 1.387 . S
C1830 H1834 0.950 . S
C1830 C1839 1.390 . S
C1831 C1830 1.387 . S
C1831 C1833 1.387 . S
H1832 C1839 0.950 . S
C1833 C1831 1.387 . S
C1833 C1835 1.390 . S
C1833 H1837 0.950 . S
H1834 C1830 0.950 . S
C1835 C1833 1.390 . S
C1835 C1836 1.387 . S
C1835 H1838 0.950 . S
C1836 C1835 1.387 . S
C1836 C1839 1.387 . S
H1837 C1833 0.950 . S
H1838 C1835 0.950 . S
C1839 C1830 1.390 . S
C1839 H1832 0.950 . S
C1839 C1836 1.387 . S
C1840 C1841 1.387 . S
C1840 H1844 0.950 . S
C1840 C1849 1.390 . S
C1841 C1840 1.387 . S
C1841 C1843 1.387 . S
H1842 C1849 0.950 . S
C1843 C1841 1.387 . S
C1843 C1845 1.390 . S
C1843 H1847 0.950 . S
H1844 C1840 0.950 . S
C1845 C1843 1.390 . S
C1845 C1846 1.387 . S
C1845 H1848 0.950 . S
C1846 C1845 1.387 . S
C1846 C1849 1.387 . S
H1847 C1843 0.950 . S
H1848 C1845 0.950 . S
C1849 C1840 1.390 . S
C1849 H1842 0.950 . S
C1849 C1846 1.387 . S
C1850 C1851 1.387 . S
C1850 H1854 0.950 . S
C1850 C1859 1.390 . S
C1851 C1850 1.387 . S
C1851 C1853 1.387 . S
H1852 C1859 0.950 . S
C1853 C1851 1.387 . S
C1853 C1855 1.390 . S
C1853 H1857 0.950 . S
H1854 C1850 0.950 . S
C1855 C1853 1.390 . S
C1855 C1856 1.387 . S
C1855 H1858 0.950 . S
C1856 C1855 1.387 . S
C1856 C1859 1.387 . S
H1857 C1853 0.950 . S
H1858 C1855 0.950 . S
C1859 C1850 1.390 . S
C1859 H1852 0.950 . S
C1859 C1856 1.387 . S
C1860 C1861 1.387 . S
C1860 H1864 0.950 . S
C1860 C1869 1.390 . S
C1861 C1860 1.387 . S
C1861 C1863 1.387 . S
H1862 C1869 0.950 . S
C1863 C1861 1.387 . S
C1863 C1865 1.390 . S
C1863 H1867 0.950 . S
H1864 C1860 0.950 . S
C1865 C1863 1.390 . S
C1865 C1866 1.387 . S
C1865 H1868 0.950 . S
C1866 C1865 1.387 . S
C1866 C1869 1.387 . S
H1867 C1863 0.950 . S
H1868 C1865 0.950 . S
C1869 C1860 1.390 . S
C1869 H1862 0.950 . S
C1869 C1866 1.387 . S
C1870 C1871 1.387 . S
C1870 H1874 0.950 . S
C1870 C1879 1.390 . S
C1871 C1870 1.387 . S
C1871 C1873 1.387 . S
H1872 C1879 0.950 . S
C1873 C1871 1.387 . S
C1873 C1875 1.390 . S
C1873 H1877 0.950 . S
H1874 C1870 0.950 . S
C1875 C1873 1.390 . S
C1875 C1876 1.387 . S
C1875 H1878 0.950 . S
C1876 C1875 1.387 . S
C1876 C1879 1.387 . S
H1877 C1873 0.950 . S
H1878 C1875 0.950 . S
C1879 C1870 1.390 . S
C1879 H1872 0.950 . S
C1879 C1876 1.387 . S
C1880 C1881 1.387 . S
C1880 H1884 0.950 . S
C1880 C1889 1.390 . S
C1881 C1880 1.387 . S
C1881 C1883 1.387 . S
H1882 C1889 0.950 . S
C1883 C1881 1.387 . S
C1883 C1885 1.390 . S
C1883 H1887 0.950 . S
H1884 C1880 0.950 . S
C1885 C1883 1.390 . S
C1885 C1886 1.387 . S
C1885 H1888 0.950 . S
C1886 C1885 1.387 . S
C1886 C1889 1.387 . S
H1887 C1883 0.950 . S
H1888 C1885 0.950 . S
C1889 C1880 1.390 . S
C1889 H1882 0.950 . S
C1889 C1886 1.387 . S
C1890 C1891 1.387 . S
C1890 H1894 0.950 . S
C1890 C1899 1.390 . S
C1891 C1890 1.387 . S
C1891 C1893 1.387 . S
H1892 C1899 0.950 . S
C1893 C1891 1.387 . S
C1893 C1895 1.390 . S
C1893 H1897 0.950 . S
H1894 C1890 0.950 . S
C1895 C1893 1.390 . S
C1895 C1896 1.387 . S
C1895 H1898 0.950 . S
C1896 C1895 1.387 . S
C1896 C1899 1.387 . S
H1897 C1893 0.950 . S
H1898 C1895 0.950 . S
C1899 C1890 1.390 . S
C1899 H1892 0.950 . S
C1899 C1896 1.387 . S
C1900 C1901 1.387 . S
C1900 H1904 0.950 . S
C1900 C1909 1.390 . S
C1901 C1900 1.387 . S
C1901 C1903 1.387 . S
H1902 C1909 0.950 . S
C1903 C1901 1.387 . S
C1903 C1905 1.390 . S
C1903 H1907 0.950 . S
H1904 C1900 0.950 . S
C1905 C1903 1.390 . S
C1905 C1906 1.387 . S
C1905 H1908 0.950 . S
C1906 C1905 1.387 . S
C1906 C1909 1.387 . S
H1907 C1903 0.950 . S
H1908 C1905 0.950 . S
C1909 C1900 1.390 . S
C1909 H1902 0.950 . S
C1909 C1906 1.387 . S
C1910 C1911 1.387 . S
C1910 H1914 0.950 . S
C1910 C1919 1.390 . S
C1911 C1910 1.387 . S
C1911 C1913 1.387 . S
H1912 C1919 0.950 . S
C1913 C1911 1.387 . S
C1913 C1915 1.390 . S
C1913 H1917 0.950 . S
H1914 C1910 0.950 . S
C1915 C1913 1.390 . S
C1915 C1916 1.387 . S
C1915 H1918 0.950 . S
C1916 C1915 1.387 . S
C1916 C1919 1.387 . S
H1917 C1913 0.950 . S
H1918 C1915 0.950 . S
C1919 C1910 1.390 . S
C1919 H1912 0.950 . S
C1919 C1916 1.387 . S
C1920 C1921 1.387 . S
C1920 H1924 0.950 . S
C1920 C1929 1.390 . S
C1921 C1920 1.387 . S
C1921 C1923 1.387 . S
H1922 C1929 0.950 . S
C1923 C1921 1.387 . S
C1923 C1925 1.390 . S
C1923 H1927 0.950 . S
H1924 C1920 0.950 . S
C1925 C1923 1.390 . S
C1925 C1926 1.387 . S
C1925 H1928 0.950 . S
C1926 C1925 1.387 . S
C1926 C1929 1.387 . S
H1927 C1923 0.950 . S
H1928 C1925 0.950 . S
C1929 C1920 1.390 . S
C1929 H1922 0.950 . S
C1929 C1926 1.387 . S
C1930 C1931 1.387 . S
C1930 H1934 0.950 . S
C1930 C1939 1.390 . S
C1931 C1930 1.387 . S
C1931 C1933 1.387 . S
H1932 C1939 0.950 . S
C1933 C1931 1.387 . S
C1933 C1935 1.390 . S
C1933 H1937 0.950 . S
H1934 C1930 0.950 . S
C1935 C1933 1.390 . S
C1935 C1936 1.387 . S
C1935 H1938 0.950 . S
C1936 C1935 1.387 . S
C1936 C1939 1.387 . S
H1937 C1933 0.950 . S
H1938 C1935 0.950 . S
C1939 C1930 1.390 . S
C1939 H1932 0.950 . S
C1939 C1936 1.387 . S
C1940 C1941 1.387 . S
C1940 H1944 0.950 . S
C1940 C1949 1.390 . S
C1941 C1940 1.387 . S
C1941 C1943 1.387 . S
H1942 C1949 0.950 . S
C1943 C1941 1.387 . S
C1943 C1945 1.390 . S
C1943 H1947 0.950 . S
H1944 C1940 0.950 . S
C1945 C1943 1.390 . S
C1945 C1946 1.387 . S
C1945 H1948 0.950 . S
C1946 C1945 1.387 . S
C1946 C1949 1.387 . S
H1947 C1943 0.950 . S
H1948 C1945 0.950 . S
C1949 C1940 1.390 . S
C1949 H1942 0.950 . S
C1949 C1946 1.387 . S
C1950 C1951 1.387 . S
C1950 H1954 0.950 . S
C1950 C1959 1.390 . S
C1951 C1950 1.387 . S
C1951 C1953 1.387 . S
H1952 C1959 0.950 . S
C1953 C1951 1.387 . S
C1953 C1955 1.390 . S
C1953 H1957 0.950 . S
H1954 C1950 0.950 . S
C1955 C1953 1.390 . S
C1955 C1956 1.387 . S
C1955 H1958 0.950 . S
C1956 C1955 1.387 . S
C1956 C1959 1.387 . S
H1957 C1953 0.950 . S
H1958 C1955 0.950 . S
C1959 C1950 1.390 . S
C1959 H1952 0.950 . S
C1959 C1956 1.387 . S
C1960 C1961 1.387 . S
C1960 H1964 0.950 . S
C1960 C1969 1.390 . S
C1961 C1960 1.387 . S
C1961 C1963 1.387 . S
H1962 C1969 0.950 . S
C1963 C1961 1.387 . S
C1963 C1965 1.390 . S
C1963 H1967 0.950 . S
H1964 C1960 0.950 . S
C1965 C1963 1.390 . S
C1965 C1966 1.387 . S
C1965 H1968 0.950 . S
C1966 C1965 1.387 . S
C1966 C1969 1.387 . S
H1967 C1963 0.950 . S
H1968 C1965 0.950 . S
C1969 C1960 1.390 . S
C1969 H1962 0.950 . S
C1969 C1966 1.387 . S
C1970 C1971 1.387 . S
C1970 H1974 0.950 . S
C1970 C1979 1.390 . S
C1971 C1970 1.387 . S
C1971 C1973 1.387 . S
H1972 C1979 0.950 . S
C1973 C1971 1.387 . S
C1973 C1975 1.390 . S
C1973 H1977 0.950 . S
H1974 C1970 0.950 . S
C1975 C1973 1.390 . S
C1975 C1976 1.387 . S
C1975 H1978 0.950 . S
C1976 C1975 1.387 . S
C1976 C1979 1.387 . S
H1977 C1973 0.950 . S
H1978 C1975 0.950 . S
C1979 C1970 1.390 . S
C1979 H1972 0.950 . S
C1979 C1976 1.387 . S
C1980 C1981 1.387 . S
C1980 H1984 0.950 . S
C1980 C1989 1.390 . S
C1981 C1980 1.387 . S
C1981 C1983 1.387 . S
H1982 C1989 0.950 . S
C1983 C1981 1.387 . S
C1983 C1985 1.390 . S
C1983 H1987 0.950 . S
H1984 C1980 0.950 . S
C1985 C1983 1.390 . S
C1985 C1986 1.387 . S
C1985 H1988 0.950 . S
C1986 C1985 1.387 . S
C1986 C1989 1.387 . S
H1987 C1983 0.950 . S
H1988 C1985 0.950 . S
C1989 C1980 1.390 . S
C1989 H1982 0.950 . S
C1989 C1986 1.387 . S
C1990 C1991 1.387 . S
C1990 H1994 0.950 . S
C1990 C1999 1.390 . S
C1991 C1990 1.387 . S
C1991 C1993 1.387 . S
H1992 C1999 0.950 . S
C1993 C1991 1.387 . S
C1993 C1995 1.390 . S
C1993 H1997 0.950 1_565 S
H1994 C1990 0.950 . S
C1995 C1993 1.390 . S
C1995 C1996 1.387 . S
C1995 H1998 0.950 . S
C1996 C1995 1.387 . S
C1996 C1999 1.387 . S
H1997 C1993 0.950 1_545 S
H1998 C1995 0.950 . S
C1999 C1990 1.390 . S
C1999 H1992 0.950 . S
C1999 C1996 1.387 . S
C2000 C2001 1.387 . S
C2000 H2004 0.950 . S
C2000 C2009 1.390 . S
C2001 C2000 1.387 . S
C2001 C2003 1.387 . S
H2002 C2009 0.950 . S
C2003 C2001 1.387 . S
C2003 C2005 1.390 . S
C2003 H2007 0.950 . S
H2004 C2000 0.950 . S
C2005 C2003 1.390 . S
C2005 C2006 1.387 . S
C2005 H2008 0.950 . S
C2006 C2005 1.387 . S
C2006 C2009 1.387 . S
H2007 C2003 0.950 . S
H2008 C2005 0.950 . S
C2009 C2000 1.390 . S
C2009 H2002 0.950 . S
C2009 C2006 1.387 . S
C2010 C2011 1.387 . S
C2010 H2014 0.950 . S
C2010 C2019 1.390 . S
C2011 C2010 1.387 . S
C2011 C2013 1.387 . S
H2012 C2019 0.950 . S
C2013 C2011 1.387 . S
C2013 C2015 1.390 . S
C2013 H2017 0.950 . S
H2014 C2010 0.950 . S
C2015 C2013 1.390 . S
C2015 C2016 1.387 . S
C2015 H2018 0.950 . S
C2016 C2015 1.387 . S
C2016 C2019 1.387 . S
H2017 C2013 0.950 . S
H2018 C2015 0.950 . S
C2019 C2010 1.390 . S
C2019 H2012 0.950 . S
C2019 C2016 1.387 . S
C2020 C2021 1.387 . S
C2020 H2024 0.950 . S
C2020 C2029 1.390 . S
C2021 C2020 1.387 . S
C2021 C2023 1.387 . S
H2022 C2029 0.950 . S
C2023 C2021 1.387 . S
C2023 C2025 1.390 . S
C2023 H2027 0.950 . S
H2024 C2020 0.950 . S
C2025 C2023 1.390 . S
C2025 C2026 1.387 . S
C2025 H2028 0.950 . S
C2026 C2025 1.387 . S
C2026 C2029 1.387 . S
H2027 C2023 0.950 . S
H2028 C2025 0.950 . S
C2029 C2020 1.390 . S
C2029 H2022 0.950 . S
C2029 C2026 1.387 . S
C2030 C2031 1.387 . S
C2030 H2034 0.950 . S
C2030 C2039 1.390 . S
C2031 C2030 1.387 . S
C2031 C2033 1.387 . S
H2032 C2039 0.950 . S
C2033 C2031 1.387 . S
C2033 C2035 1.390 . S
C2033 H2037 0.950 . S
H2034 C2030 0.950 . S
C2035 C2033 1.390 . S
C2035 C2036 1.387 . S
C2035 H2038 0.950 . S
C2036 C2035 1.387 . S
C2036 C2039 1.387 . S
H2037 C2033 0.950 . S
H2038 C2035 0.950 . S
C2039 C2030 1.390 . S
C2039 H2032 0.950 . S
C2039 C2036 1.387 . S
C2040 C2041 1.387 . S
C2040 H2044 0.950 . S
C2040 C2049 1.390 . S
C2041 C2040 1.387 . S
C2041 C2043 1.387 . S
H2042 C2049 0.950 . S
C2043 C2041 1.387 . S
C2043 C2045 1.390 . S
C2043 H2047 0.950 . S
H2044 C2040 0.950 . S
C2045 C2043 1.390 . S
C2045 C2046 1.387 . S
C2045 H2048 0.950 . S
C2046 C2045 1.387 . S
C2046 C2049 1.387 . S
H2047 C2043 0.950 . S
H2048 C2045 0.950 . S
C2049 C2040 1.390 . S
C2049 H2042 0.950 . S
C2049 C2046 1.387 . S
C2050 C2051 1.387 . S
C2050 H2054 0.950 . S
C2050 C2059 1.390 . S
C2051 C2050 1.387 . S
C2051 C2053 1.387 . S
H2052 C2059 0.950 . S
C2053 C2051 1.387 . S
C2053 C2055 1.390 . S
C2053 H2057 0.950 . S
H2054 C2050 0.950 . S
C2055 C2053 1.390 . S
C2055 C2056 1.387 . S
C2055 H2058 0.950 . S
C2056 C2055 1.387 . S
C2056 C2059 1.387 . S
H2057 C2053 0.950 . S
H2058 C2055 0.950 . S
C2059 C2050 1.390 . S
C2059 H2052 0.950 . S
C2059 C2056 1.387 . S
C2060 C2061 1.387 . S
C2060 H2064 0.950 . S
C2060 C2069 1.390 . S
C2061 C2060 1.387 . S
C2061 C2063 1.387 . S
H2062 C2069 0.950 . S
C2063 C2061 1.387 . S
C2063 C2065 1.390 . S
C2063 H2067 0.950 . S
H2064 C2060 0.950 . S
C2065 C2063 1.390 . S
C2065 C2066 1.387 . S
C2065 H2068 0.950 . S
C2066 C2065 1.387 . S
C2066 C2069 1.387 . S
H2067 C2063 0.950 . S
H2068 C2065 0.950 . S
C2069 C2060 1.390 . S
C2069 H2062 0.950 . S
C2069 C2066 1.387 . S
C2070 C2071 1.387 . S
C2070 H2074 0.950 . S
C2070 C2079 1.390 . S
C2071 C2070 1.387 . S
C2071 C2073 1.387 . S
H2072 C2079 0.950 . S
C2073 C2071 1.387 . S
C2073 C2075 1.390 . S
C2073 H2077 0.950 . S
H2074 C2070 0.950 . S
C2075 C2073 1.390 . S
C2075 C2076 1.387 . S
C2075 H2078 0.950 . S
C2076 C2075 1.387 . S
C2076 C2079 1.387 . S
H2077 C2073 0.950 . S
H2078 C2075 0.950 . S
C2079 C2070 1.390 . S
C2079 H2072 0.950 . S
C2079 C2076 1.387 . S
C2080 C2081 1.387 . S
C2080 H2084 0.950 . S
C2080 C2089 1.390 . S
C2081 C2080 1.387 . S
C2081 C2083 1.387 . S
H2082 C2089 0.950 . S
C2083 C2081 1.387 . S
C2083 C2085 1.390 . S
C2083 H2087 0.950 . S
H2084 C2080 0.950 . S
C2085 C2083 1.390 . S
C2085 C2086 1.387 . S
C2085 H2088 0.950 . S
C2086 C2085 1.387 . S
C2086 C2089 1.387 . S
H2087 C2083 0.950 . S
H2088 C2085 0.950 . S
C2089 C2080 1.390 . S
C2089 H2082 0.950 . S
C2089 C2086 1.387 . S
C2090 C2091 1.387 . S
C2090 H2094 0.950 . S
C2090 C2099 1.390 . S
C2091 C2090 1.387 . S
C2091 C2093 1.387 . S
H2092 C2099 0.950 . S
C2093 C2091 1.387 . S
C2093 C2095 1.390 . S
C2093 H2097 0.950 . S
H2094 C2090 0.950 . S
C2095 C2093 1.390 . S
C2095 C2096 1.387 . S
C2095 H2098 0.950 . S
C2096 C2095 1.387 . S
C2096 C2099 1.387 . S
H2097 C2093 0.950 . S
H2098 C2095 0.950 . S
C2099 C2090 1.390 . S
C2099 H2092 0.950 . S
C2099 C2096 1.387 . S
C2100 C2101 1.387 . S
C2100 H2104 0.950 . S
C2100 C2109 1.390 . S
C2101 C2100 1.387 . S
C2101 C2103 1.387 . S
H2102 C2109 0.950 . S
C2103 C2101 1.387 . S
C2103 C2105 1.390 . S
C2103 H2107 0.950 . S
H2104 C2100 0.950 . S
C2105 C2103 1.390 . S
C2105 C2106 1.387 . S
C2105 H2108 0.950 . S
C2106 C2105 1.387 . S
C2106 C2109 1.387 . S
H2107 C2103 0.950 . S
H2108 C2105 0.950 . S
C2109 C2100 1.390 . S
C2109 H2102 0.950 . S
C2109 C2106 1.387 . S
C2110 C2111 1.387 . S
C2110 H2114 0.950 1_556 S
C2110 C2119 1.390 . S
C2111 C2110 1.387 . S
C2111 C2113 1.387 . S
H2112 C2119 0.950 . S
C2113 C2111 1.387 . S
C2113 C2115 1.390 . S
C2113 H2117 0.950 . S
H2114 C2110 0.950 1_554 S
C2115 C2113 1.390 . S
C2115 C2116 1.387 . S
C2115 H2118 0.950 . S
C2116 C2115 1.387 . S
C2116 C2119 1.387 . S
H2117 C2113 0.950 . S
H2118 C2115 0.950 . S
C2119 C2110 1.390 . S
C2119 H2112 0.950 . S
C2119 C2116 1.387 . S
C2120 C2121 1.387 . S
C2120 H2124 0.950 . S
C2120 C2129 1.390 . S
C2121 C2120 1.387 . S
C2121 C2123 1.387 . S
H2122 C2129 0.950 . S
C2123 C2121 1.387 . S
C2123 C2125 1.390 . S
C2123 H2127 0.950 . S
H2124 C2120 0.950 . S
C2125 C2123 1.390 . S
C2125 C2126 1.387 . S
C2125 H2128 0.950 . S
C2126 C2125 1.387 . S
C2126 C2129 1.387 . S
H2127 C2123 0.950 . S
H2128 C2125 0.950 . S
C2129 C2120 1.390 . S
C2129 H2122 0.950 . S
C2129 C2126 1.387 . S
C2130 C2131 1.387 . S
C2130 H2134 0.950 . S
C2130 C2139 1.390 . S
C2131 C2130 1.387 . S
C2131 C2133 1.387 . S
H2132 C2139 0.950 . S
C2133 C2131 1.387 . S
C2133 C2135 1.390 . S
C2133 H2137 0.950 . S
H2134 C2130 0.950 . S
C2135 C2133 1.390 . S
C2135 C2136 1.387 . S
C2135 H2138 0.950 . S
C2136 C2135 1.387 . S
C2136 C2139 1.387 . S
H2137 C2133 0.950 . S
H2138 C2135 0.950 . S
C2139 C2130 1.390 . S
C2139 H2132 0.950 . S
C2139 C2136 1.387 . S
C2140 C2141 1.387 . S
C2140 H2144 0.950 . S
C2140 C2149 1.390 . S
C2141 C2140 1.387 . S
C2141 C2143 1.387 . S
H2142 C2149 0.950 . S
C2143 C2141 1.387 . S
C2143 C2145 1.390 . S
C2143 H2147 0.950 . S
H2144 C2140 0.950 . S
C2145 C2143 1.390 . S
C2145 C2146 1.387 . S
C2145 H2148 0.950 . S
C2146 C2145 1.387 . S
C2146 C2149 1.387 . S
H2147 C2143 0.950 . S
H2148 C2145 0.950 . S
C2149 C2140 1.390 . S
C2149 H2142 0.950 . S
C2149 C2146 1.387 . S
C2150 C2151 1.387 . S
C2150 H2154 0.950 . S
C2150 C2159 1.390 . S
C2151 C2150 1.387 . S
C2151 C2153 1.387 . S
H2152 C2159 0.950 . S
C2153 C2151 1.387 . S
C2153 C2155 1.390 . S
C2153 H2157 0.950 . S
H2154 C2150 0.950 . S
C2155 C2153 1.390 . S
C2155 C2156 1.387 . S
C2155 H2158 0.950 . S
C2156 C2155 1.387 . S
C2156 C2159 1.387 . S
H2157 C2153 0.950 . S
H2158 C2155 0.950 . S
C2159 C2150 1.390 . S
C2159 H2152 0.950 . S
C2159 C2156 1.387 . S
C2160 C2161 1.387 . S
C2160 H2164 0.950 . S
C2160 C2169 1.390 . S
C2161 C2160 1.387 . S
C2161 C2163 1.387 . S
H2162 C2169 0.950 . S
C2163 C2161 1.387 . S
C2163 C2165 1.390 . S
C2163 H2167 0.950 . S
H2164 C2160 0.950 . S
C2165 C2163 1.390 . S
C2165 C2166 1.387 . S
C2165 H2168 0.950 . S
C2166 C2165 1.387 . S
C2166 C2169 1.387 . S
H2167 C2163 0.950 . S
H2168 C2165 0.950 . S
C2169 C2160 1.390 . S
C2169 H2162 0.950 . S
C2169 C2166 1.387 . S
C2170 C2171 1.387 . S
C2170 H2174 0.950 . S
C2170 C2179 1.390 . S
C2171 C2170 1.387 . S
C2171 C2173 1.387 . S
H2172 C2179 0.950 . S
C2173 C2171 1.387 . S
C2173 C2175 1.390 . S
C2173 H2177 0.950 . S
H2174 C2170 0.950 . S
C2175 C2173 1.390 . S
C2175 C2176 1.387 . S
C2175 H2178 0.950 . S
C2176 C2175 1.387 . S
C2176 C2179 1.387 . S
H2177 C2173 0.950 . S
H2178 C2175 0.950 . S
C2179 C2170 1.390 . S
C2179 H2172 0.950 . S
C2179 C2176 1.387 . S
C2180 C2181 1.387 . S
C2180 H2184 0.950 . S
C2180 C2189 1.390 . S
C2181 C2180 1.387 . S
C2181 C2183 1.387 . S
H2182 C2189 0.950 . S
C2183 C2181 1.387 . S
C2183 C2185 1.390 . S
C2183 H2187 0.950 . S
H2184 C2180 0.950 . S
C2185 C2183 1.390 . S
C2185 C2186 1.387 . S
C2185 H2188 0.950 . S
C2186 C2185 1.387 . S
C2186 C2189 1.387 . S
H2187 C2183 0.950 . S
H2188 C2185 0.950 . S
C2189 C2180 1.390 . S
C2189 H2182 0.950 . S
C2189 C2186 1.387 . S
C2190 C2191 1.387 . S
C2190 H2194 0.950 . S
C2190 C2199 1.390 . S
C2191 C2190 1.387 . S
C2191 C2193 1.387 . S
H2192 C2199 0.950 . S
C2193 C2191 1.387 . S
C2193 C2195 1.390 . S
C2193 H2197 0.950 . S
H2194 C2190 0.950 . S
C2195 C2193 1.390 . S
C2195 C2196 1.387 . S
C2195 H2198 0.950 . S
C2196 C2195 1.387 . S
C2196 C2199 1.387 . S
H2197 C2193 0.950 . S
H2198 C2195 0.950 . S
C2199 C2190 1.390 . S
C2199 H2192 0.950 . S
C2199 C2196 1.387 . S
C2200 C2201 1.387 . S
C2200 H2204 0.950 . S
C2200 C2209 1.390 . S
C2201 C2200 1.387 . S
C2201 C2203 1.387 . S
H2202 C2209 0.950 . S
C2203 C2201 1.387 . S
C2203 C2205 1.390 . S
C2203 H2207 0.950 . S
H2204 C2200 0.950 . S
C2205 C2203 1.390 . S
C2205 C2206 1.387 . S
C2205 H2208 0.950 . S
C2206 C2205 1.387 . S
C2206 C2209 1.387 . S
H2207 C2203 0.950 . S
H2208 C2205 0.950 . S
C2209 C2200 1.390 . S
C2209 H2202 0.950 . S
C2209 C2206 1.387 . S
C2210 C2211 1.387 . S
C2210 H2214 0.950 . S
C2210 C2219 1.390 . S
C2211 C2210 1.387 . S
C2211 C2213 1.387 . S
H2212 C2219 0.950 . S
C2213 C2211 1.387 . S
C2213 C2215 1.390 . S
C2213 H2217 0.950 1_565 S
H2214 C2210 0.950 . S
C2215 C2213 1.390 . S
C2215 C2216 1.387 . S
C2215 H2218 0.950 . S
C2216 C2215 1.387 . S
C2216 C2219 1.387 . S
H2217 C2213 0.950 1_545 S
H2218 C2215 0.950 . S
C2219 C2210 1.390 . S
C2219 H2212 0.950 . S
C2219 C2216 1.387 . S
C2220 C2221 1.387 . S
C2220 H2224 0.950 . S
C2220 C2229 1.390 . S
C2221 C2220 1.387 . S
C2221 C2223 1.387 . S
H2222 C2229 0.950 . S
C2223 C2221 1.387 . S
C2223 C2225 1.390 . S
C2223 H2227 0.950 . S
H2224 C2220 0.950 . S
C2225 C2223 1.390 . S
C2225 C2226 1.387 . S
C2225 H2228 0.950 . S
C2226 C2225 1.387 . S
C2226 C2229 1.387 . S
H2227 C2223 0.950 . S
H2228 C2225 0.950 . S
C2229 C2220 1.390 . S
C2229 H2222 0.950 . S
C2229 C2226 1.387 . S
C2230 C2231 1.387 . S
C2230 H2234 0.950 . S
C2230 C2239 1.390 . S
C2231 C2230 1.387 . S
C2231 C2233 1.387 . S
H2232 C2239 0.950 . S
C2233 C2231 1.387 . S
C2233 C2235 1.390 . S
C2233 H2237 0.950 . S
H2234 C2230 0.950 . S
C2235 C2233 1.390 . S
C2235 C2236 1.387 . S
C2235 H2238 0.950 . S
C2236 C2235 1.387 . S
C2236 C2239 1.387 . S
H2237 C2233 0.950 . S
H2238 C2235 0.950 . S
C2239 C2230 1.390 . S
C2239 H2232 0.950 . S
C2239 C2236 1.387 . S
C2240 C2241 1.387 . S
C2240 H2244 0.950 . S
C2240 C2249 1.390 . S
C2241 C2240 1.387 . S
C2241 C2243 1.387 . S
H2242 C2249 0.950 . S
C2243 C2241 1.387 . S
C2243 C2245 1.390 . S
C2243 H2247 0.950 . S
H2244 C2240 0.950 . S
C2245 C2243 1.390 . S
C2245 C2246 1.387 . S
C2245 H2248 0.950 . S
C2246 C2245 1.387 . S
C2246 C2249 1.387 . S
H2247 C2243 0.950 . S
H2248 C2245 0.950 . S
C2249 C2240 1.390 . S
C2249 H2242 0.950 . S
C2249 C2246 1.387 . S
C2250 C2251 1.387 . S
C2250 H2254 0.950 . S
C2250 C2259 1.390 . S
C2251 C2250 1.387 . S
C2251 C2253 1.387 . S
H2252 C2259 0.950 . S
C2253 C2251 1.387 . S
C2253 C2255 1.390 . S
C2253 H2257 0.950 . S
H2254 C2250 0.950 . S
C2255 C2253 1.390 . S
C2255 C2256 1.387 . S
C2255 H2258 0.950 . S
C2256 C2255 1.387 . S
C2256 C2259 1.387 . S
H2257 C2253 0.950 . S
H2258 C2255 0.950 . S
C2259 C2250 1.390 . S
C2259 H2252 0.950 . S
C2259 C2256 1.387 . S
C2260 C2261 1.387 . S
C2260 H2264 0.950 . S
C2260 C2269 1.390 . S
C2261 C2260 1.387 . S
C2261 C2263 1.387 . S
H2262 C2269 0.950 . S
C2263 C2261 1.387 . S
C2263 C2265 1.390 . S
C2263 H2267 0.950 . S
H2264 C2260 0.950 . S
C2265 C2263 1.390 . S
C2265 C2266 1.387 . S
C2265 H2268 0.950 . S
C2266 C2265 1.387 . S
C2266 C2269 1.387 . S
H2267 C2263 0.950 . S
H2268 C2265 0.950 . S
C2269 C2260 1.390 . S
C2269 H2262 0.950 . S
C2269 C2266 1.387 . S
C2270 C2271 1.387 . S
C2270 H2274 0.950 . S
C2270 C2279 1.390 . S
C2271 C2270 1.387 . S
C2271 C2273 1.387 . S
H2272 C2279 0.950 . S
C2273 C2271 1.387 . S
C2273 C2275 1.390 . S
C2273 H2277 0.950 . S
H2274 C2270 0.950 . S
C2275 C2273 1.390 . S
C2275 C2276 1.387 . S
C2275 H2278 0.950 . S
C2276 C2275 1.387 . S
C2276 C2279 1.387 . S
H2277 C2273 0.950 . S
H2278 C2275 0.950 . S
C2279 C2270 1.390 . S
C2279 H2272 0.950 . S
C2279 C2276 1.387 . S
C2280 C2281 1.387 . S
C2280 H2284 0.950 . S
C2280 C2289 1.390 . S
C2281 C2280 1.387 . S
C2281 C2283 1.387 . S
H2282 C2289 0.950 . S
C2283 C2281 1.387 . S
C2283 C2285 1.390 . S
C2283 H2287 0.950 . S
H2284 C2280 0.950 . S
C2285 C2283 1.390 . S
C2285 C2286 1.387 . S
C2285 H2288 0.950 . S
C2286 C2285 1.387 . S
C2286 C2289 1.387 . S
H2287 C2283 0.950 . S
H2288 C2285 0.950 . S
C2289 C2280 1.390 . S
C2289 H2282 0.950 . S
C2289 C2286 1.387 . S
C2290 C2291 1.387 . S
C2290 H2294 0.950 . S
C2290 C2299 1.390 . S
C2291 C2290 1.387 . S
C2291 C2293 1.387 . S
H2292 C2299 0.950 . S
C2293 C2291 1.387 . S
C2293 C2295 1.390 . S
C2293 H2297 0.950 . S
H2294 C2290 0.950 . S
C2295 C2293 1.390 . S
C2295 C2296 1.387 . S
C2295 H2298 0.950 . S
C2296 C2295 1.387 . S
C2296 C2299 1.387 . S
H2297 C2293 0.950 . S
H2298 C2295 0.950 . S
C2299 C2290 1.390 . S
C2299 H2292 0.950 . S
C2299 C2296 1.387 . S
C2300 C2301 1.387 . S
C2300 H2304 0.950 . S
C2300 C2309 1.390 . S
C2301 C2300 1.387 . S
C2301 C2303 1.387 . S
H2302 C2309 0.950 . S
C2303 C2301 1.387 . S
C2303 C2305 1.390 . S
C2303 H2307 0.950 . S
H2304 C2300 0.950 . S
C2305 C2303 1.390 . S
C2305 C2306 1.387 . S
C2305 H2308 0.950 . S
C2306 C2305 1.387 . S
C2306 C2309 1.387 . S
H2307 C2303 0.950 . S
H2308 C2305 0.950 . S
C2309 C2300 1.390 . S
C2309 H2302 0.950 . S
C2309 C2306 1.387 . S
C2310 C2311 1.387 . S
C2310 H2314 0.950 . S
C2310 C2319 1.390 . S
C2311 C2310 1.387 . S
C2311 C2313 1.387 . S
H2312 C2319 0.950 . S
C2313 C2311 1.387 . S
C2313 C2315 1.390 . S
C2313 H2317 0.950 . S
H2314 C2310 0.950 . S
C2315 C2313 1.390 . S
C2315 C2316 1.387 . S
C2315 H2318 0.950 . S
C2316 C2315 1.387 . S
C2316 C2319 1.387 . S
H2317 C2313 0.950 . S
H2318 C2315 0.950 . S
C2319 C2310 1.390 . S
C2319 H2312 0.950 . S
C2319 C2316 1.387 . S
C2320 C2321 1.387 . S
C2320 H2324 0.950 . S
C2320 C2329 1.390 . S
C2321 C2320 1.387 . S
C2321 C2323 1.387 . S
H2322 C2329 0.950 . S
C2323 C2321 1.387 . S
C2323 C2325 1.390 . S
C2323 H2327 0.950 . S
H2324 C2320 0.950 . S
C2325 C2323 1.390 . S
C2325 C2326 1.387 . S
C2325 H2328 0.950 . S
C2326 C2325 1.387 . S
C2326 C2329 1.387 . S
H2327 C2323 0.950 . S
H2328 C2325 0.950 . S
C2329 C2320 1.390 . S
C2329 H2322 0.950 . S
C2329 C2326 1.387 . S
C2330 C2331 1.387 . S
C2330 H2334 0.950 . S
C2330 C2339 1.390 . S
C2331 C2330 1.387 . S
C2331 C2333 1.387 . S
H2332 C2339 0.950 . S
C2333 C2331 1.387 . S
C2333 C2335 1.390 . S
C2333 H2337 0.950 . S
H2334 C2330 0.950 . S
C2335 C2333 1.390 . S
C2335 C2336 1.387 . S
C2335 H2338 0.950 . S
C2336 C2335 1.387 . S
C2336 C2339 1.387 . S
H2337 C2333 0.950 . S
H2338 C2335 0.950 . S
C2339 C2330 1.390 . S
C2339 H2332 0.950 . S
C2339 C2336 1.387 . S
C2340 C2341 1.387 . S
C2340 H2344 0.950 . S
C2340 C2349 1.390 . S
C2341 C2340 1.387 . S
C2341 C2343 1.387 . S
H2342 C2349 0.950 . S
C2343 C2341 1.387 . S
C2343 C2345 1.390 . S
C2343 H2347 0.950 . S
H2344 C2340 0.950 . S
C2345 C2343 1.390 . S
C2345 C2346 1.387 . S
C2345 H2348 0.950 . S
C2346 C2345 1.387 . S
C2346 C2349 1.387 . S
H2347 C2343 0.950 . S
H2348 C2345 0.950 . S
C2349 C2340 1.390 . S
C2349 H2342 0.950 . S
C2349 C2346 1.387 . S
C2350 C2351 1.387 . S
C2350 H2354 0.950 . S
C2350 C2359 1.390 . S
C2351 C2350 1.387 . S
C2351 C2353 1.387 . S
H2352 C2359 0.950 . S
C2353 C2351 1.387 . S
C2353 C2355 1.390 . S
C2353 H2357 0.950 . S
H2354 C2350 0.950 . S
C2355 C2353 1.390 . S
C2355 C2356 1.387 . S
C2355 H2358 0.950 . S
C2356 C2355 1.387 . S
C2356 C2359 1.387 . S
H2357 C2353 0.950 . S
H2358 C2355 0.950 . S
C2359 C2350 1.390 . S
C2359 H2352 0.950 . S
C2359 C2356 1.387 . S
C2360 C2361 1.387 . S
C2360 H2364 0.950 . S
C2360 C2369 1.390 . S
C2361 C2360 1.387 . S
C2361 C2363 1.387 . S
H2362 C2369 0.950 . S
C2363 C2361 1.387 . S
C2363 C2365 1.390 . S
C2363 H2367 0.950 . S
H2364 C2360 0.950 . S
C2365 C2363 1.390 . S
C2365 C2366 1.387 . S
C2365 H2368 0.950 . S
C2366 C2365 1.387 . S
C2366 C2369 1.387 . S
H2367 C2363 0.950 . S
H2368 C2365 0.950 . S
C2369 C2360 1.390 . S
C2369 H2362 0.950 . S
C2369 C2366 1.387 . S
C2370 C2371 1.387 . S
C2370 H2374 0.950 . S
C2370 C2379 1.390 . S
C2371 C2370 1.387 . S
C2371 C2373 1.387 . S
H2372 C2379 0.950 . S
C2373 C2371 1.387 . S
C2373 C2375 1.390 . S
C2373 H2377 0.950 . S
H2374 C2370 0.950 . S
C2375 C2373 1.390 . S
C2375 C2376 1.387 . S
C2375 H2378 0.950 . S
C2376 C2375 1.387 . S
C2376 C2379 1.387 . S
H2377 C2373 0.950 . S
H2378 C2375 0.950 . S
C2379 C2370 1.390 . S
C2379 H2372 0.950 . S
C2379 C2376 1.387 . S
C2380 C2381 1.387 . S
C2380 H2384 0.950 . S
C2380 C2389 1.390 . S
C2381 C2380 1.387 . S
C2381 C2383 1.387 . S
H2382 C2389 0.950 . S
C2383 C2381 1.387 . S
C2383 C2385 1.390 . S
C2383 H2387 0.950 . S
H2384 C2380 0.950 . S
C2385 C2383 1.390 . S
C2385 C2386 1.387 . S
C2385 H2388 0.950 . S
C2386 C2385 1.387 . S
C2386 C2389 1.387 . S
H2387 C2383 0.950 . S
H2388 C2385 0.950 . S
C2389 C2380 1.390 . S
C2389 H2382 0.950 . S
C2389 C2386 1.387 . S
C2390 C2391 1.387 . S
C2390 H2394 0.950 . S
C2390 C2399 1.390 . S
C2391 C2390 1.387 . S
C2391 C2393 1.387 . S
H2392 C2399 0.950 . S
C2393 C2391 1.387 . S
C2393 C2395 1.390 . S
C2393 H2397 0.950 . S
H2394 C2390 0.950 . S
C2395 C2393 1.390 . S
C2395 C2396 1.387 . S
C2395 H2398 0.950 . S
C2396 C2395 1.387 . S
C2396 C2399 1.387 . S
H2397 C2393 0.950 . S
H2398 C2395 0.950 . S
C2399 C2390 1.390 . S
C2399 H2392 0.950 . S
C2399 C2396 1.387 . S
C961 C128 2.477 . S
C966 C8 2.482 1_455 S
C971 C149 2.437 . S
C976 C28 2.520 . S
C981 C88 2.493 . S
C986 C48 2.493 . S
C991 C108 2.446 . S
C996 C68 2.452 . S
C1001 C208 2.500 . S
C1006 C168 2.504 . S
C1011 C228 2.472 . S
C1016 C188 2.455 . S
C1021 C289 2.443 . S
C1026 C248 2.522 . S
C1031 C308 2.469 . S
C1036 C268 2.480 . S
C1041 C348 2.482 . S
C1046 C328 2.489 . S
C1051 C468 2.498 . S
C1056 C368 2.498 . S
C1061 C429 2.429 . S
C1066 C389 2.427 . S
C1071 C408 2.484 . S
C1076 C448 2.491 1_554 S
C1081 C488 2.483 . S
C1086 C608 2.477 . S
C1091 C508 2.520 . S
C1096 C629 2.437 . S
C1101 C528 2.493 . S
C1106 C568 2.492 . S
C1111 C548 2.452 . S
C1116 C588 2.446 . S
C1121 C648 2.505 . S
C1126 C688 2.502 . S
C1131 C668 2.456 . S
C1136 C708 2.473 . S
C1141 C728 2.522 . S
C1146 C769 2.442 . S
C1151 C788 2.469 . S
C1156 C748 2.481 . S
C1161 C808 2.490 1_545 S
C1166 C828 2.481 . S
C1171 C948 2.500 . S
C1176 C848 2.499 . S
C1181 C869 2.427 . S
C1186 C909 2.429 . S
C1191 C888 2.484 . S
C1196 C928 2.491 . S
C1201 C9 2.743 . S
C1206 C189 2.709 . S
C1211 C29 2.722 . S
C1216 C209 2.728 . S
C1221 C49 2.732 . S
C1226 C229 2.787 . S
C1231 C169 2.741 . S
C1236 C69 2.756 . S
C1241 C309 2.666 . S
C1246 C89 2.635 . S
C1251 C249 2.740 . S
C1256 C109 2.768 . S
C1261 C269 2.776 . S
C1266 C129 2.796 . S
C1271 C148 2.854 . S
C1276 C288 2.849 1_545 S
C1281 C369 2.836 . S
C1286 C329 2.888 . S
C1291 C449 2.652 . S
C1296 C349 2.611 . S
C1301 C388 2.602 . S
C1306 C469 2.523 . S
C1311 C428 2.915 1_554 S
C1316 C409 2.892 . S
C1321 C489 2.744 . S
C1326 C669 2.705 . S
C1331 C689 2.728 . S
C1336 C509 2.722 . S
C1341 C709 2.785 . S
C1346 C529 2.734 . S
C1351 C549 2.758 . S
C1356 C649 2.739 . S
C1361 C789 2.667 . S
C1366 C569 2.635 . S
C1371 C589 2.768 . S
C1376 C729 2.741 . S
C1381 C609 2.796 . S
C1386 C749 2.776 . S
C1391 C628 2.855 . S
C1396 C768 2.847 . S
C1401 C809 2.888 . S
C1406 C849 2.836 . S
C1411 C929 2.652 . S
C1416 C829 2.611 . S
C1421 C949 2.521 . S
C1426 C868 2.604 . S
C1431 C889 2.891 . S
C1436 C908 2.915 . S
C1441 C18 1.178 . S
C1446 C62 1.084 . S
C1451 C2 0.760 . S
C1456 C38 0.776 . S
C1461 C58 1.182 . S
C1466 C22 1.107 . S
C1471 C78 0.758 . S
C1476 C42 0.754 . S
C1481 C102 0.994 . S
C1486 C98 1.089 . S
C1491 C122 0.832 . S
C1496 C118 0.888 . S
C1501 C138 1.293 . S
C1506 C159 1.306 . S
C1511 C82 0.657 . S
C1516 C141 0.681 . S
C1521 C178 0.909 . S
C1526 C362 0.873 . S
C1531 C198 1.246 . S
C1536 C399 1.295 . S
C1541 C218 1.075 1_565 S
C1546 C402 1.016 . S
C1551 C238 1.149 . S
C1556 C342 0.976 . S
C1561 C258 0.765 . S
C1566 C442 0.763 . S
C1571 C322 1.028 . S
C1576 C278 1.061 . S
C1581 C462 0.745 . S
C1586 C281 0.750 . S
C1591 C318 1.431 . S
C1596 C439 1.400 . S
C1601 C338 1.150 . S
C1606 C182 0.975 . S
C1611 C358 0.781 . S
C1616 C302 0.779 . S
C1621 C378 1.167 1_556 S
C1626 C242 1.099 . S
C1631 C262 0.632 . S
C1636 C381 0.604 . S
C1641 C299 1.207 . S
C1646 C418 1.191 . S
C1651 C222 0.729 . S
C1656 C421 0.741 . S
C1661 C162 0.965 . S
C1666 C458 1.014 . S
C1671 C478 0.798 . S
C1676 C202 0.786 . S
C1681 C498 1.178 . S
C1686 C542 1.088 . S
C1691 C518 0.771 . S
C1696 C482 0.761 . S
C1701 C502 1.101 . S
C1706 C538 1.185 . S
C1711 C522 0.753 . S
C1716 C558 0.759 . S
C1721 C578 1.087 . S
C1726 C582 1.000 . S
C1731 C602 0.836 . S
C1736 C598 0.889 . S
C1741 C639 1.305 . S
C1746 C618 1.293 . S
C1751 C621 0.680 . S
C1756 C562 0.659 . S
C1761 C658 0.909 . S
C1766 C842 0.873 . S
C1771 C879 1.295 . S
C1776 C678 1.243 . S
C1781 C882 1.015 . S
C1786 C698 1.082 . S
C1791 C718 1.149 . S
C1796 C822 0.977 . S
C1801 C922 0.765 . S
C1806 C738 0.764 . S
C1811 C758 1.063 . S
C1816 C802 1.023 . S
C1821 C761 0.751 . S
C1826 C942 0.747 . S
C1831 C798 1.431 . S
C1836 C919 1.401 . S
C1841 C662 0.978 . S
C1846 C818 1.149 . S
C1851 C782 0.773 . S
C1856 C838 0.783 . S
C1861 C722 1.098 . S
C1866 C858 1.167 . S
C1871 C861 0.605 . S
C1876 C742 0.631 . S
C1881 C779 1.206 . S
C1886 C898 1.193 . S
C1891 C901 0.742 . S
C1896 C702 0.728 . S
C1901 C938 1.014 . S
C1906 C642 0.964 . S
C1911 C682 0.788 . S
C1916 C958 0.798 . S
C1921 C1 0.780 . S
C1926 C881 0.778 . S
C1931 C821 0.856 . S
C1936 C21 0.851 . S
C1941 C41 0.794 . S
C1946 C841 0.791 . S
C1951 C61 1.154 . S
C1956 C878 1.201 . S
C1961 C81 0.784 . S
C1966 C941 0.784 . S
C1971 C101 1.155 . S
C1976 C918 1.189 . S
C1981 C121 0.772 . S
C1986 C921 0.771 . S
C1991 C158 1.202 1_565 S
C1996 C801 1.158 . S
C2001 C161 0.762 . S
C2006 C781 0.766 . S
C2011 C181 0.832 . S
C2016 C721 0.824 . S
C2021 C201 0.762 . S
C2026 C741 0.763 . S
C2031 C221 1.055 . S
C2036 C778 1.098 . S
C2041 C241 0.824 . S
C2046 C661 0.832 . S
C2051 C261 0.761 . S
C2056 C681 0.761 . S
C2061 C298 1.099 . S
C2066 C701 1.054 . S
C2071 C301 0.765 . S
C2076 C641 0.760 . S
C2081 C321 1.160 . S
C2086 C638 1.202 . S
C2091 C341 0.854 . S
C2096 C501 0.849 . S
C2101 C361 0.783 . S
C2106 C521 0.788 . S
C2111 C398 1.200 1_556 S
C2116 C541 1.158 . S
C2121 C401 0.785 . S
C2126 C481 0.782 . S
C2131 C438 1.193 . S
C2136 C581 1.159 . S
C2141 C441 0.767 . S
C2146 C601 0.772 . S
C2151 C461 0.776 . S
C2156 C561 0.778 . S
C2161 C99 1.669 . S
C2166 C859 1.677 . S
C2171 C119 0.995 . S
C2176 C862 0.973 . S
C2181 C139 1.800 . S
C2186 C899 1.802 . S
C2191 C142 0.951 . S
C2196 C839 0.971 . S
C2201 C19 1.770 . S
C2206 C939 1.774 . S
C2211 C39 1.493 . S
C2216 C819 1.487 . S
C2221 C59 1.589 . S
C2226 C959 1.583 . S
C2231 C902 0.995 . S
C2236 C79 1.028 . S
C2241 C282 1.072 . S
C2246 C679 1.097 . S
C2251 C319 1.820 . S
C2256 C699 1.817 . S
C2261 C259 1.499 . S
C2266 C719 1.489 . S
C2271 C279 1.686 . S
C2276 C659 1.693 . S
C2281 C219 1.816 . S
C2286 C799 1.819 . S
C2291 C239 1.488 . S
C2296 C739 1.499 . S
C2301 C179 1.694 . S
C2306 C759 1.686 . S
C2311 C199 1.098 . S
C2316 C762 1.074 . S
C2321 C422 0.995 . S
C2326 C559 1.026 . S
C2331 C382 0.974 . S
C2336 C599 0.995 . S
C2341 C419 1.803 . S
C2346 C619 1.802 . S
C2351 C359 0.971 . S
C2356 C622 0.951 . S
C2361 C379 1.677 . S
C2366 C579 1.668 . S
C2371 C339 1.487 . S
C2376 C519 1.493 . S
C2381 C479 1.584 . S
C2386 C539 1.590 . S
C2391 C459 1.771 . S
C2396 C499 1.769 . S
