# Generated by pormake.
# Topology sme, (6)-cn, num edge types: 1
# Building blocks:
#     Node 0, Type 0, BuildingBlock: OJICUG_clean_sbu_0, # of connection points: 6
#     Node 1, Type 0, BuildingBlock: OJICUG_clean_sbu_0, # of connection points: 6
#     Node 2, Type 0, BuildingBlock: OJICUG_clean_sbu_0, # of connection points: 6
#     Node 3, Type 0, BuildingBlock: OJICUG_clean_sbu_0, # of connection points: 6
#     Node 4, Type 0, BuildingBlock: OJICUG_clean_sbu_0, # of connection points: 6
#     Node 5, Type 0, BuildingBlock: OJICUG_clean_sbu_0, # of connection points: 6
#     Node 6, Type 0, BuildingBlock: OJICUG_clean_sbu_0, # of connection points: 6
#     Node 7, Type 0, BuildingBlock: OJICUG_clean_sbu_0, # of connection points: 6
#     Node 8, Type 0, BuildingBlock: OJICUG_clean_sbu_0, # of connection points: 6
#     Node 9, Type 0, BuildingBlock: OJICUG_clean_sbu_0, # of connection points: 6
#     Node 10, Type 0, BuildingBlock: OJICUG_clean_sbu_0, # of connection points: 6
#     Node 11, Type 0, BuildingBlock: OJICUG_clean_sbu_0, # of connection points: 6
#     Node 12, Type 0, BuildingBlock: OJICUG_clean_sbu_0, # of connection points: 6
#     Node 13, Type 0, BuildingBlock: OJICUG_clean_sbu_0, # of connection points: 6
#     Node 14, Type 0, BuildingBlock: OJICUG_clean_sbu_0, # of connection points: 6
#     Node 15, Type 0, BuildingBlock: OJICUG_clean_sbu_0, # of connection points: 6
#     Node 16, Type 0, BuildingBlock: OJICUG_clean_sbu_0, # of connection points: 6
#     Node 17, Type 0, BuildingBlock: OJICUG_clean_sbu_0, # of connection points: 6
#     Edge 18, Type (0, 0), BuildingBlock: ZUJKAS_clean_linker_0, # of connection points: 2
#     Edge 19, Type (0, 0), BuildingBlock: ZUJKAS_clean_linker_0, # of connection points: 2
#     Edge 20, Type (0, 0), BuildingBlock: ZUJKAS_clean_linker_0, # of connection points: 2
#     Edge 21, Type (0, 0), BuildingBlock: ZUJKAS_clean_linker_0, # of connection points: 2
#     Edge 22, Type (0, 0), BuildingBlock: ZUJKAS_clean_linker_0, # of connection points: 2
#     Edge 23, Type (0, 0), BuildingBlock: ZUJKAS_clean_linker_0, # of connection points: 2
#     Edge 24, Type (0, 0), BuildingBlock: ZUJKAS_clean_linker_0, # of connection points: 2
#     Edge 25, Type (0, 0), BuildingBlock: ZUJKAS_clean_linker_0, # of connection points: 2
#     Edge 26, Type (0, 0), BuildingBlock: ZUJKAS_clean_linker_0, # of connection points: 2
#     Edge 27, Type (0, 0), BuildingBlock: ZUJKAS_clean_linker_0, # of connection points: 2
#     Edge 28, Type (0, 0), BuildingBlock: ZUJKAS_clean_linker_0, # of connection points: 2
#     Edge 29, Type (0, 0), BuildingBlock: ZUJKAS_clean_linker_0, # of connection points: 2
#     Edge 30, Type (0, 0), BuildingBlock: ZUJKAS_clean_linker_0, # of connection points: 2
#     Edge 31, Type (0, 0), BuildingBlock: ZUJKAS_clean_linker_0, # of connection points: 2
#     Edge 32, Type (0, 0), BuildingBlock: ZUJKAS_clean_linker_0, # of connection points: 2
#     Edge 33, Type (0, 0), BuildingBlock: ZUJKAS_clean_linker_0, # of connection points: 2
#     Edge 34, Type (0, 0), BuildingBlock: ZUJKAS_clean_linker_0, # of connection points: 2
#     Edge 35, Type (0, 0), BuildingBlock: ZUJKAS_clean_linker_0, # of connection points: 2
#     Edge 36, Type (0, 0), BuildingBlock: ZUJKAS_clean_linker_0, # of connection points: 2
#     Edge 37, Type (0, 0), BuildingBlock: ZUJKAS_clean_linker_0, # of connection points: 2
#     Edge 38, Type (0, 0), BuildingBlock: ZUJKAS_clean_linker_0, # of connection points: 2
#     Edge 39, Type (0, 0), BuildingBlock: ZUJKAS_clean_linker_0, # of connection points: 2
#     Edge 40, Type (0, 0), BuildingBlock: ZUJKAS_clean_linker_0, # of connection points: 2
#     Edge 41, Type (0, 0), BuildingBlock: ZUJKAS_clean_linker_0, # of connection points: 2
#     Edge 42, Type (0, 0), BuildingBlock: ZUJKAS_clean_linker_0, # of connection points: 2
#     Edge 43, Type (0, 0), BuildingBlock: ZUJKAS_clean_linker_0, # of connection points: 2
#     Edge 44, Type (0, 0), BuildingBlock: ZUJKAS_clean_linker_0, # of connection points: 2
#     Edge 45, Type (0, 0), BuildingBlock: ZUJKAS_clean_linker_0, # of connection points: 2
#     Edge 46, Type (0, 0), BuildingBlock: ZUJKAS_clean_linker_0, # of connection points: 2
#     Edge 47, Type (0, 0), BuildingBlock: ZUJKAS_clean_linker_0, # of connection points: 2
#     Edge 48, Type (0, 0), BuildingBlock: ZUJKAS_clean_linker_0, # of connection points: 2
#     Edge 49, Type (0, 0), BuildingBlock: ZUJKAS_clean_linker_0, # of connection points: 2
#     Edge 50, Type (0, 0), BuildingBlock: ZUJKAS_clean_linker_0, # of connection points: 2
#     Edge 51, Type (0, 0), BuildingBlock: ZUJKAS_clean_linker_0, # of connection points: 2
#     Edge 52, Type (0, 0), BuildingBlock: ZUJKAS_clean_linker_0, # of connection points: 2
#     Edge 53, Type (0, 0), BuildingBlock: ZUJKAS_clean_linker_0, # of connection points: 2
#     Edge 54, Type (0, 0), BuildingBlock: ZUJKAS_clean_linker_0, # of connection points: 2
#     Edge 55, Type (0, 0), BuildingBlock: ZUJKAS_clean_linker_0, # of connection points: 2
#     Edge 56, Type (0, 0), BuildingBlock: ZUJKAS_clean_linker_0, # of connection points: 2
#     Edge 57, Type (0, 0), BuildingBlock: ZUJKAS_clean_linker_0, # of connection points: 2
#     Edge 58, Type (0, 0), BuildingBlock: ZUJKAS_clean_linker_0, # of connection points: 2
#     Edge 59, Type (0, 0), BuildingBlock: ZUJKAS_clean_linker_0, # of connection points: 2
#     Edge 60, Type (0, 0), BuildingBlock: ZUJKAS_clean_linker_0, # of connection points: 2
#     Edge 61, Type (0, 0), BuildingBlock: ZUJKAS_clean_linker_0, # of connection points: 2
#     Edge 62, Type (0, 0), BuildingBlock: ZUJKAS_clean_linker_0, # of connection points: 2
#     Edge 63, Type (0, 0), BuildingBlock: ZUJKAS_clean_linker_0, # of connection points: 2
#     Edge 64, Type (0, 0), BuildingBlock: ZUJKAS_clean_linker_0, # of connection points: 2
#     Edge 65, Type (0, 0), BuildingBlock: ZUJKAS_clean_linker_0, # of connection points: 2
#     Edge 66, Type (0, 0), BuildingBlock: ZUJKAS_clean_linker_0, # of connection points: 2
#     Edge 67, Type (0, 0), BuildingBlock: ZUJKAS_clean_linker_0, # of connection points: 2
#     Edge 68, Type (0, 0), BuildingBlock: ZUJKAS_clean_linker_0, # of connection points: 2
#     Edge 69, Type (0, 0), BuildingBlock: ZUJKAS_clean_linker_0, # of connection points: 2
#     Edge 70, Type (0, 0), BuildingBlock: ZUJKAS_clean_linker_0, # of connection points: 2
#     Edge 71, Type (0, 0), BuildingBlock: ZUJKAS_clean_linker_0, # of connection points: 2
# Relax obj value: 0.180
# Max RMSD: 0.201
# Mean RMSD: 0.201
data_MOF--net-sme--node1-OJICUG_clean_sbu_0--edge1-ZUJKAS_clean_linker_0
_symmetry_space_group_name_H-M    P1
_symmetry_Int_Tables_number       1
_symmetry_cell_setting            triclinic
loop_
_symmetry_equiv_pos_as_xyz
'x, y, z'
_cell_length_a     58.84437
_cell_length_b     58.776793
_cell_length_c     50.087005
_cell_angle_alpha  89.971947
_cell_angle_beta   90.000533
_cell_angle_gamma 120.04573
loop_
_atom_site_label
_atom_site_type_symbol
_atom_site_fract_x
_atom_site_fract_y
_atom_site_fract_z
_atom_type_partial_charge
Sc0 Sc 0.06606 0.30865 0.7126 0.0
Sc1 Sc 0.06126 0.25693 0.67274 0.0
Sc2 Sc 0.06343 0.25344 0.74283 0.0
O3 O 0.06375 0.27308 0.70935 0.0
C4 C 0.10842 0.31306 0.75427 0.0
C5 C 0.09707 0.31748 0.65739 0.0
C6 C 0.1001 0.24292 0.7028 0.0
C7 C 0.02001 0.2773 0.67093 0.0
C8 C 0.03159 0.27999 0.76479 0.0
C9 C 0.02243 0.20587 0.7073 0.0
O10 O 0.10076 0.32375 0.73704 0.0
O11 O 0.0893 0.29332 0.65351 0.0
O12 O 0.09068 0.2432 0.7256 0.0
O13 O 0.03124 0.29475 0.68893 0.0
O14 O 0.03622 0.26108 0.76466 0.0
O15 O 0.03243 0.21791 0.68555 0.0
O16 O 0.0417 0.29847 0.74779 0.0
O17 O 0.02904 0.26295 0.66237 0.0
O18 O 0.03053 0.21657 0.73001 0.0
O19 O 0.09029 0.32546 0.67777 0.0
O20 O 0.09638 0.28841 0.75881 0.0
O21 O 0.09263 0.24886 0.6813 0.0
Sc22 Sc 0.84997 0.8718 0.67322 0.0
Sc23 Sc 0.85459 0.87916 0.74318 0.0
Sc24 Sc 0.79819 0.8271 0.71447 0.0
O25 O 0.83423 0.8595 0.71021 0.0
C26 C 0.78971 0.84827 0.65835 0.0
C27 C 0.86539 0.92578 0.70226 0.0
C28 C 0.79553 0.86649 0.755 0.0
C29 C 0.90119 0.88375 0.70706 0.0
C30 C 0.82774 0.80958 0.67369 0.0
C31 C 0.827 0.82162 0.76667 0.0
O32 O 0.81384 0.86468 0.65445 0.0
O33 O 0.86447 0.91633 0.72538 0.0
O34 O 0.78435 0.84869 0.7373 0.0
O35 O 0.88863 0.88059 0.68546 0.0
O36 O 0.81112 0.80451 0.69233 0.0
O37 O 0.84723 0.84429 0.76489 0.0
O38 O 0.842 0.83252 0.66384 0.0
O39 O 0.89124 0.88289 0.72983 0.0
O40 O 0.80765 0.81391 0.75087 0.0
O41 O 0.85993 0.9121 0.68096 0.0
O42 O 0.78175 0.83358 0.67881 0.0
O43 O 0.82005 0.87771 0.76001 0.0
Sc44 Sc 0.2811 0.04294 0.71126 0.0
Sc45 Sc 0.2328 0.04567 0.67192 0.0
Sc46 Sc 0.22666 0.04164 0.74199 0.0
O47 O 0.24678 0.04324 0.70838 0.0
C48 C 0.24409 -0.00135 0.75231 0.0
C49 C 0.25949 0.01178 0.65602 0.0
C50 C 0.18017 0.00495 0.70118 0.0
C51 C 0.29386 0.08902 0.67014 0.0
C52 C 0.28501 0.0756 0.76421 0.0
C53 C 0.21897 0.08261 0.70766 0.0
O54 O 0.26311 0.00813 0.73575 0.0
O55 O 0.24265 0.01895 0.6522 0.0
O56 O 0.18954 0.01419 0.72413 0.0
O57 O 0.30078 0.07797 0.68765 0.0
O58 O 0.26082 0.06868 0.76485 0.0
O59 O 0.22127 0.07313 0.68569 0.0
O60 O 0.29459 0.0676 0.74628 0.0
O61 O 0.27032 0.07928 0.66183 0.0
O62 O 0.22179 0.07434 0.73021 0.0
O63 O 0.27427 0.01882 0.67642 0.0
O64 O 0.22978 0.00887 0.75668 0.0
O65 O 0.19382 0.01301 0.67988 0.0
Sc66 Sc 0.03178 0.80991 0.3021 0.0
Sc67 Sc 0.03801 0.86197 0.3423 0.0
Sc68 Sc 0.03436 0.8654 0.27235 0.0
O69 O 0.03456 0.84568 0.30561 0.0
C70 C 0.06596 0.83872 0.24978 0.0
C71 C 0.07867 0.84093 0.3431 0.0
C72 C 0.07631 0.91284 0.30732 0.0
C73 C 0.00155 0.80142 0.35768 0.0
C74 C 0.98903 0.80594 0.26107 0.0
C75 C -0.00137 0.87607 0.31357 0.0
O76 O 0.05627 0.82036 0.26696 0.0
O77 O 0.07041 0.85595 0.3516 0.0
O78 O 0.06779 0.90219 0.28467 0.0
O79 O 0.00723 0.79308 0.33679 0.0
O80 O 0.00088 0.83062 0.25674 0.0
O81 O 0.00642 0.86998 0.33475 0.0
O82 O -0.00289 0.79522 0.2778 0.0
O83 O 0.01052 0.82574 0.36193 0.0
O84 O 0.0077 0.87594 0.29052 0.0
O85 O 0.06658 0.8231 0.32565 0.0
O86 O 0.06091 0.85736 0.24982 0.0
O87 O 0.06656 0.90084 0.32912 0.0
Sc88 Sc 0.24659 0.24463 0.34324 0.0
Sc89 Sc 0.24431 0.23911 0.2732 0.0
Sc90 Sc 0.29861 0.2922 0.30409 0.0
O91 O 0.26327 0.25856 0.30687 0.0
C92 C 0.26587 0.30602 0.34506 0.0
C93 C 0.19593 0.23148 0.30778 0.0
C94 C 0.27021 0.29774 0.25162 0.0
C95 C 0.23409 0.19209 0.31351 0.0
C96 C 0.30703 0.27003 0.35945 0.0
C97 C 0.30425 0.25485 0.2624 0.0
O98 O 0.25132 0.28245 0.35313 0.0
O99 O 0.2071 0.23472 0.28526 0.0
O100 O 0.28829 0.30645 0.26906 0.0
O101 O 0.23984 0.20555 0.33497 0.0
O102 O 0.31536 0.28445 0.33881 0.0
O103 O 0.27966 0.24159 0.25786 0.0
O104 O 0.28278 0.25408 0.36331 0.0
O105 O 0.23421 0.20169 0.29067 0.0
O106 O 0.31447 0.27339 0.27948 0.0
O107 O 0.2076 0.23332 0.32968 0.0
O108 O 0.28409 0.31261 0.32786 0.0
O109 O 0.2519 0.2739 0.25125 0.0
Sc110 Sc 0.86281 0.07049 0.34266 0.0
Sc111 Sc 0.8697 0.07295 0.27269 0.0
Sc112 Sc 0.81735 0.07669 0.30178 0.0
O113 O 0.85005 0.07354 0.30575 0.0
C114 C 0.80095 0.03005 0.34334 0.0
C115 C 0.87492 0.03138 0.30866 0.0
C116 C 0.81165 0.04186 0.24991 0.0
C117 C 0.9163 0.10927 0.31346 0.0
C118 C 0.83902 0.10727 0.35727 0.0
C119 C 0.85634 0.11865 0.26034 0.0
O120 O 0.82415 0.03848 0.35219 0.0
O121 O 0.87293 0.03968 0.28583 0.0
O122 O 0.80333 0.05229 0.26657 0.0
O123 O 0.90264 0.10171 0.33481 0.0
O124 O 0.82495 0.10128 0.33639 0.0
O125 O 0.86859 0.10622 0.25618 0.0
O126 O 0.85448 0.09851 0.36171 0.0
O127 O 0.90689 0.09993 0.29055 0.0
O128 O 0.83785 0.11132 0.27734 0.0
O129 O 0.87268 0.04143 0.33024 0.0
O130 O 0.79541 0.04189 0.32539 0.0
O131 O 0.83501 0.04605 0.25051 0.0
Sc132 Sc 0.73117 0.64179 0.04771 0.0
Sc133 Sc 0.72526 0.59013 1.00706 0.0
Sc134 Sc 0.72709 0.58567 0.07709 0.0
O135 O 0.72799 0.60589 0.04389 0.0
C136 C 0.77297 0.64495 0.08899 0.0
C137 C 0.76168 0.65057 0.99217 0.0
C138 C 0.76361 0.57514 0.03689 0.0
C139 C 0.68477 0.61158 1.00624 0.0
C140 C 0.6964 0.61292 0.09968 0.0
C141 C 0.68601 0.53874 0.04084 0.0
O142 O 0.76615 0.65601 0.07135 0.0
O143 O 0.75394 0.62644 0.98826 0.0
O144 O 0.75444 0.57559 0.0598 0.0
O145 O 0.69609 0.62852 0.02468 0.0
O146 O 0.6995 0.59306 0.09852 0.0
O147 O 0.69589 0.55116 0.01926 0.0
O148 O 0.70769 0.63205 0.08353 0.0
O149 O 0.69359 0.59723 0.99704 0.0
O150 O 0.69431 0.54898 0.06368 0.0
O151 O 0.75482 0.65849 0.01253 0.0
O152 O 0.76002 0.62034 0.09383 0.0
O153 O 0.75605 0.5811 0.01546 0.0
Sc154 Sc 0.46448 0.16064 0.04503 0.0
Sc155 Sc 0.51789 0.20454 1.00473 0.0
Sc156 Sc 0.52106 0.21195 0.07453 0.0
O157 O 0.50107 0.19248 0.04135 0.0
C158 C 0.46235 0.20049 0.08554 0.0
C159 C 0.45783 0.18202 0.98837 0.0
C160 C 0.53275 0.25853 0.03306 0.0
C161 C 0.49464 0.14231 1.00548 0.0
C162 C 0.49226 0.1541 0.09759 0.0
C163 C 0.56829 0.21648 0.03994 0.0
O164 O 0.45097 0.18244 0.06812 0.0
O165 O 0.4823 0.19665 0.98445 0.0
O166 O 0.53196 0.24919 0.05623 0.0
O167 O 0.47681 0.13751 0.02269 0.0
O168 O 0.51243 0.17687 0.09647 0.0
O169 O 0.55651 0.2141 0.018 0.0
O170 O 0.47328 0.14653 0.08128 0.0
O171 O 0.51036 0.1653 0.99652 0.0
O172 O 0.55753 0.21475 0.0624 0.0
O173 O 0.44875 0.16844 0.00946 0.0
O174 O 0.48684 0.21153 0.09049 0.0
O175 O 0.52711 0.24473 0.01182 0.0
Sc176 Sc 0.94782 0.37699 0.04507 0.0
Sc177 Sc 0.90016 0.381 1.00579 0.0
Sc178 Sc 0.89457 0.37778 0.07591 0.0
O179 O 0.9141 0.37842 0.04223 0.0
C180 C 0.91055 0.33366 0.08648 0.0
C181 C 0.92596 0.34634 0.98963 0.0
C182 C 0.84776 0.34065 0.03559 0.0
C183 C 0.9614 0.42356 1.00419 0.0
C184 C 0.953 0.41063 0.09777 0.0
C185 C 0.88681 0.41848 0.04119 0.0
O186 O 0.92901 0.34206 0.06932 0.0
O187 O 0.90966 0.35419 0.9858 0.0
O188 O 0.85733 0.3501 0.05843 0.0
O189 O 0.96806 0.41218 0.02161 0.0
O190 O 0.92922 0.40522 0.09795 0.0
O191 O 0.88892 0.40876 0.01932 0.0
O192 O 0.96174 0.40124 0.08036 0.0
O193 O 0.93791 0.4142 0.99584 0.0
O194 O 0.8898 0.41043 0.06377 0.0
O195 O 0.94049 0.35281 0.01019 0.0
O196 O 0.89736 0.34503 0.09125 0.0
O197 O 0.8611 0.3486 0.01408 0.0
Sc198 Sc 0.70592 0.19624 0.67483 0.0
Sc199 Sc 0.70095 0.19882 0.60496 0.0
Sc200 Sc 0.69822 0.14339 0.63489 0.0
O201 O 0.70154 0.17941 0.63827 0.0
C202 C 0.7461 0.17458 0.67479 0.0
C203 C 0.74371 0.2466 0.63902 0.0
C204 C 0.7316 0.17142 0.5819 0.0
C205 C 0.66608 0.21012 0.64669 0.0
C206 C 0.66936 0.13598 0.69117 0.0
C207 C 0.655 0.13938 0.59462 0.0
O208 O 0.7382 0.18984 0.68349 0.0
O209 O 0.73459 0.23567 0.61662 0.0
O210 O 0.72177 0.15306 0.59908 0.0
O211 O 0.67443 0.20451 0.66779 0.0
O212 O 0.67451 0.12724 0.67024 0.0
O213 O 0.66718 0.16399 0.58986 0.0
O214 O 0.67857 0.16038 0.6951 0.0
O215 O 0.67458 0.20953 0.62347 0.0
O216 O 0.66298 0.12867 0.61145 0.0
O217 O 0.73448 0.23491 0.66107 0.0
O218 O 0.73355 0.15663 0.65757 0.0
O219 O 0.72715 0.19046 0.58223 0.0
Sc220 Sc 0.91264 0.57833 0.67553 0.0
Sc221 Sc 0.90934 0.57266 0.60542 0.0
Sc222 Sc 0.96395 0.62585 0.63573 0.0
O223 O 0.92872 0.59218 0.63893 0.0
C224 C 0.93176 0.63973 0.67725 0.0
C225 C 0.86129 0.56467 0.64105 0.0
C226 C 0.93466 0.63108 0.58374 0.0
C227 C 0.9003 0.52589 0.64547 0.0
C228 C 0.97324 0.60404 0.69094 0.0
C229 C 0.96931 0.58878 0.59365 0.0
O230 O 0.91754 0.61622 0.68565 0.0
O231 O 0.87192 0.56744 0.61827 0.0
O232 O 0.95319 0.63971 0.60069 0.0
O233 O 0.90566 0.53915 0.66704 0.0
O234 O 0.98117 0.61855 0.67033 0.0
O235 O 0.94469 0.57576 0.58913 0.0
O236 O 0.94911 0.58777 0.69497 0.0
O237 O 0.90033 0.53551 0.62267 0.0
O238 O 0.97964 0.60697 0.61108 0.0
O239 O 0.87355 0.56713 0.66269 0.0
O240 O 0.94955 0.64627 0.65957 0.0
O241 O 0.91607 0.60735 0.58382 0.0
Sc242 Sc 0.52824 0.40215 0.67837 0.0
Sc243 Sc 0.53515 0.40546 0.60838 0.0
Sc244 Sc 0.48303 0.4093 0.63807 0.0
O245 O 0.51556 0.40578 0.64164 0.0
C246 C 0.46627 0.36225 0.67921 0.0
C247 C 0.54033 0.36346 0.64366 0.0
C248 C 0.47689 0.37454 0.58598 0.0
C249 C 0.58184 0.44115 0.64933 0.0
C250 C 0.50501 0.43931 0.6937 0.0
C251 C 0.52199 0.4514 0.59667 0.0
O252 O 0.48948 0.37007 0.68769 0.0
O253 O 0.53837 0.37201 0.62096 0.0
O254 O 0.46867 0.38486 0.6029 0.0
O255 O 0.56811 0.43339 0.67064 0.0
O256 O 0.4911 0.4339 0.67276 0.0
O257 O 0.5342 0.43897 0.59229 0.0
O258 O 0.52005 0.43001 0.69797 0.0
O259 O 0.57243 0.43214 0.62633 0.0
O260 O 0.50353 0.44394 0.61371 0.0
O261 O 0.53802 0.37322 0.66539 0.0
O262 O 0.4609 0.37458 0.6617 0.0
O263 O 0.5003 0.37884 0.58623 0.0
Sc264 Sc 0.39867 0.97448 0.37938 0.0
Sc265 Sc 0.39362 0.9231 0.33891 0.0
Sc266 Sc 0.39521 0.91873 0.40899 0.0
O267 O 0.396 0.93881 0.3757 0.0
C268 C 0.44054 0.9783 0.42088 0.0
C269 C 0.42926 0.98356 0.32382 0.0
C270 C 0.43241 0.90889 0.36907 0.0
C271 C 0.35244 0.94368 0.33791 0.0
C272 C 0.36395 0.94545 0.43134 0.0
C273 C 0.35456 0.87158 0.37264 0.0
O274 O 0.43369 0.98916 0.40305 0.0
O275 O 0.42202 0.95951 0.32006 0.0
O276 O 0.42306 0.90919 0.39192 0.0
O277 O 0.3635 0.96064 0.35638 0.0
O278 O 0.3672 0.92567 0.43021 0.0
O279 O 0.36446 0.88409 0.35112 0.0
O280 O 0.37521 0.9646 0.41521 0.0
O281 O 0.36166 0.92968 0.32869 0.0
O282 O 0.36276 0.88177 0.39553 0.0
O283 O 0.42215 0.99131 0.34412 0.0
O284 O 0.42777 0.9537 0.4258 0.0
O285 O 0.42473 0.9146 0.34756 0.0
Sc286 Sc 0.18408 0.53761 0.33903 0.0
Sc287 Sc 0.18858 0.54548 0.40887 0.0
Sc288 Sc 0.13181 0.49356 0.38026 0.0
O289 O 0.1681 0.52566 0.37599 0.0
C290 C 0.12374 0.51456 0.3239 0.0
C291 C 0.19954 0.59182 0.36739 0.0
C292 C 0.1298 0.53341 0.42086 0.0
C293 C 0.23522 0.54991 0.37321 0.0
C294 C 0.16134 0.47543 0.33979 0.0
C295 C 0.1606 0.48774 0.43235 0.0
O296 O 0.14805 0.52981 0.31965 0.0
O297 O 0.19903 0.58266 0.39058 0.0
O298 O 0.11836 0.51527 0.40354 0.0
O299 O 0.22285 0.54702 0.35155 0.0
O300 O 0.14411 0.47056 0.35772 0.0
O301 O 0.18064 0.5106 0.43092 0.0
O302 O 0.17643 0.49839 0.3304 0.0
O303 O 0.22504 0.54864 0.39593 0.0
O304 O 0.14139 0.47994 0.41632 0.0
O305 O 0.19351 0.57781 0.34627 0.0
O306 O 0.11534 0.50071 0.34491 0.0
O307 O 0.15438 0.54473 0.42548 0.0
Sc308 Sc 0.56801 0.71418 0.34095 0.0
Sc309 Sc 0.561 0.71093 0.41095 0.0
Sc310 Sc 0.61369 0.70823 0.38149 0.0
O311 O 0.58076 0.71095 0.37774 0.0
C312 C 0.59253 0.6785 0.32541 0.0
C313 C 0.51448 0.67468 0.37015 0.0
C314 C 0.57512 0.66539 0.42199 0.0
C315 C 0.55531 0.75262 0.37538 0.0
C316 C 0.62983 0.75538 0.34102 0.0
C317 C 0.61869 0.74191 0.43406 0.0
O318 O 0.57572 0.68573 0.32184 0.0
O319 O 0.52385 0.68323 0.39329 0.0
O320 O 0.59297 0.67258 0.40426 0.0
O321 O 0.55854 0.74346 0.35365 0.0
O322 O 0.63542 0.74404 0.35946 0.0
O323 O 0.59574 0.73876 0.43266 0.0
O324 O 0.6068 0.74615 0.33132 0.0
O325 O 0.55648 0.74354 0.39806 0.0
O326 O 0.62674 0.73083 0.4179 0.0
O327 O 0.52815 0.68314 0.34888 0.0
O328 O 0.60745 0.68551 0.34568 0.0
O329 O 0.56335 0.67812 0.42721 0.0
Sc330 Sc 0.3651 0.47711 0.97104 0.0
Sc331 Sc 0.37005 0.52936 0.01017 0.0
Sc332 Sc 0.36799 0.53219 0.94026 0.0
O333 O 0.3675 0.51272 0.97385 0.0
C334 C 0.39977 0.50522 0.91888 0.0
C335 C 0.41166 0.50966 0.01227 0.0
C336 C 0.40835 0.57998 0.97506 0.0
C337 C 0.33453 0.46867 0.02618 0.0
C338 C 0.32279 0.47281 0.92898 0.0
C339 C 0.33086 0.54233 0.98034 0.0
O340 O 0.39043 0.48737 0.9366 0.0
O341 O 0.40342 0.52505 0.01966 0.0
O342 O 0.40191 0.56849 0.95258 0.0
O343 O 0.3397 0.46019 1.00509 0.0
O344 O 0.33435 0.49752 0.92489 0.0
O345 O 0.33736 0.53533 1.00179 0.0
O346 O 0.331 0.46212 0.94563 0.0
O347 O 0.34385 0.49304 0.03047 0.0
O348 O 0.34146 0.54338 0.95783 0.0
O349 O 0.39943 0.49092 0.9957 0.0
O350 O 0.39424 0.52349 0.91812 0.0
O351 O 0.39704 0.56878 0.99671 0.0
Sc352 Sc 0.58005 0.91146 0.0093 0.0
Sc353 Sc 0.57593 0.90803 0.93969 0.0
Sc354 Sc 0.63127 0.96003 0.97032 0.0
O355 O 0.59601 0.92653 0.97309 0.0
C356 C 0.59846 0.97249 0.01277 0.0
C357 C 0.52903 0.89993 0.97534 0.0
C358 C 0.6033 0.96715 0.9186 0.0
C359 C 0.56537 0.85989 0.9787 0.0
C360 C 0.64089 0.93742 0.02452 0.0
C361 C 0.63496 0.92185 0.92763 0.0
O362 O 0.58337 0.94859 0.01965 0.0
O363 O 0.54059 0.90711 0.95292 0.0
O364 O 0.62065 0.97582 0.93676 0.0
O365 O 0.57531 0.87343 0.99977 0.0
O366 O 0.64895 0.95117 1.00344 0.0
O367 O 0.61017 0.90809 0.92423 0.0
O368 O 0.61665 0.92223 0.02917 0.0
O369 O 0.5628 0.86975 0.95703 0.0
O370 O 0.64577 0.94128 0.94374 0.0
O371 O 0.54031 0.89811 0.99622 0.0
O372 O 0.61735 0.97972 0.99621 0.0
O373 O 0.58558 0.94314 0.91735 0.0
Sc374 Sc 0.19475 0.73605 0.00994 0.0
Sc375 Sc 0.20219 0.73856 0.94036 0.0
Sc376 Sc 0.1512 0.74513 0.96894 0.0
O377 O 0.18274 0.74009 0.9731 0.0
C378 C 0.13263 0.69756 0.00998 0.0
C379 C 0.20481 0.69567 0.97545 0.0
C380 C 0.14413 0.71051 0.91669 0.0
C381 C 0.24891 0.77217 0.98213 0.0
C382 C 0.17271 0.77445 0.02481 0.0
C383 C 0.19285 0.78685 0.9285 0.0
O384 O 0.15568 0.7042 0.01818 0.0
O385 O 0.20118 0.70302 0.95277 0.0
O386 O 0.13591 0.72033 0.93414 0.0
O387 O 0.23466 0.76735 1.00287 0.0
O388 O 0.16002 0.77042 1.00318 0.0
O389 O 0.20488 0.77408 0.92512 0.0
O390 O 0.18633 0.76367 0.0297 0.0
O391 O 0.23977 0.76186 0.95945 0.0
O392 O 0.17322 0.77928 0.9441 0.0
O393 O 0.20486 0.70711 0.99701 0.0
O394 O 0.12792 0.71088 0.99303 0.0
O395 O 0.16751 0.71476 0.91673 0.0
H396 H 0.20721 0.10542 0.74941 0.0
H397 H 0.19192 0.13724 0.74668 0.0
H398 H 0.19917 0.13892 0.66098 0.0
H399 H 0.21426 0.10717 0.66335 0.0
H400 H 0.21573 0.18929 0.72216 0.0
H401 H 0.12132 0.11701 0.67477 0.0
H402 H 0.14227 0.10732 0.69161 0.0
H403 H 0.15038 0.12105 0.6586 0.0
C404 C 0.20574 0.11267 0.72998 0.0
C405 C 0.21169 0.10343 0.70659 0.0
C406 C 0.19703 0.13088 0.72848 0.0
C407 C 0.19404 0.14008 0.7036 0.0
C408 C 0.20091 0.1317 0.68034 0.0
H409 H 0.11883 0.23023 0.65823 0.0
H410 H 0.14516 0.20856 0.65703 0.0
C411 C 0.2096 0.11356 0.68179 0.0
C412 C 0.18286 0.15771 0.70181 0.0
H413 H 0.12953 0.1604 0.67921 0.0
C414 C 0.1969 0.18304 0.71276 0.0
C415 C 0.15836 0.1495 0.68941 0.0
C416 C 0.14203 0.12218 0.67809 0.0
C417 C 0.1871 0.20046 0.71154 0.0
C418 C 0.16238 0.19209 0.6995 0.0
C419 C 0.14855 0.16687 0.68825 0.0
C420 C 0.14953 0.20832 0.69992 0.0
C421 C 0.20342 0.22773 0.72292 0.0
C422 C 0.14353 0.21568 0.72437 0.0
C423 C 0.12858 0.22809 0.72513 0.0
C424 C 0.11903 0.23321 0.70143 0.0
C425 C 0.12588 0.22668 0.67686 0.0
C426 C 0.14088 0.21423 0.67613 0.0
H427 H 0.2246 0.23384 0.72333 0.0
H428 H 0.20092 0.24238 0.71122 0.0
H429 H 0.19712 0.2279 0.74377 0.0
H430 H 0.14946 0.21084 0.74301 0.0
H431 H 0.12376 0.23281 0.74445 0.0
H432 H 0.00114 0.1756 0.66262 0.0
H433 H 0.96997 0.12855 0.66045 0.0
H434 H 0.96484 0.12515 0.74637 0.0
H435 H -0.00356 0.17223 0.74885 0.0
H436 H 0.97526 0.08841 0.72505 0.0
H437 H 0.89109 0.08544 0.67196 0.0
H438 H 0.92192 0.10427 0.65505 0.0
H439 H 0.91693 0.11507 0.68698 0.0
C440 C 0.99317 0.165 0.68111 0.0
C441 C 0.00146 0.17781 0.70595 0.0
C442 C 0.97514 0.13806 0.67978 0.0
C443 C 0.96479 0.12337 0.70321 0.0
C444 C 0.97249 0.13615 0.72801 0.0
H445 H 0.87014 0.95894 0.74274 0.0
H446 H 0.89246 0.00679 0.74165 0.0
C447 C 0.99056 0.1631 0.72939 0.0
C448 C 0.94779 0.09435 0.70198 0.0
H449 H 0.8903 0.04464 0.6766 0.0
C450 C 0.9566 0.07887 0.71462 0.0
C451 C 0.92356 0.08191 0.68812 0.0
C452 C 0.91265 0.0975 0.67495 0.0
C453 C 0.94201 0.05135 0.71361 0.0
C454 C 0.91775 0.03891 0.6999 0.0
C455 C 0.90893 0.05429 0.68706 0.0
C456 C 0.90116 0.00989 0.69944 0.0
C457 C 0.95286 0.03574 0.72694 0.0
C458 C 0.89763 0.99573 0.67576 0.0
C459 C 0.88475 0.96818 0.67623 0.0
C460 C 0.87525 0.95445 0.70045 0.0
C461 C 0.87751 0.96881 0.72378 0.0
C462 C 0.89028 0.9962 0.72325 0.0
H463 H 0.97418 0.04804 0.73123 0.0
H464 H 0.94249 0.02778 0.74616 0.0
H465 H 0.94971 0.01891 0.71426 0.0
H466 H 0.90582 0.006 0.65715 0.0
H467 H 0.88333 0.95777 0.65791 0.0
H468 H 0.92949 0.88814 0.66198 0.0
H469 H 0.9761 0.90235 0.65868 0.0
H470 H 0.98293 0.90851 0.7444 0.0
H471 H 0.93619 0.89414 0.74802 0.0
H472 H 0.01638 0.95089 0.67692 0.0
H473 H 0.02171 0.86871 0.72514 0.0
H474 H 0.99127 0.86553 0.71322 0.0
H475 H 0.00492 0.8815 0.74452 0.0
C476 C 0.94074 0.89216 0.68023 0.0
C477 C 0.92898 0.89006 0.7053 0.0
C478 C 0.96743 0.90028 0.67826 0.0
C479 C 0.98295 0.90624 0.70128 0.0
C480 C 0.97123 0.90354 0.72638 0.0
H481 H 0.14544 0.98218 0.74235 0.0
H482 H 0.09779 0.956 0.73987 0.0
C483 C 0.9445 0.89547 0.7284 0.0
C484 C 0.01175 0.91735 0.69888 0.0
H485 H 0.0624 0.90821 0.71774 0.0
C486 C 0.02645 0.94142 0.68555 0.0
C487 C 0.02479 0.90497 0.71021 0.0
C488 C 0.00988 0.87863 0.72388 0.0
C489 C 0.05394 0.95399 0.68412 0.0
C490 C 0.06709 0.94183 0.69581 0.0
C491 C 0.05231 0.91745 0.70867 0.0
C492 C 0.09621 0.95514 0.69673 0.0
C493 C 0.06872 0.98075 0.67118 0.0
C494 C 0.11133 0.96259 0.67325 0.0
C495 C 0.13877 0.97781 0.67455 0.0
C496 C 0.15158 0.98569 0.69939 0.0
C497 C 0.13635 0.97676 0.72283 0.0
C498 C 0.10902 0.96168 0.72149 0.0
H499 H 0.05621 0.98982 0.66865 0.0
H500 H 0.08621 0.99426 0.68317 0.0
H501 H 0.07552 0.97879 0.65111 0.0
H502 H 0.10187 0.95724 0.6539 0.0
H503 H 0.14982 0.98413 0.6561 0.0
H504 H 0.97578 0.88824 0.2727 0.0
H505 H 0.94922 0.90925 0.27556 0.0
H506 H 0.95102 0.90633 0.3615 0.0
H507 H 0.97825 0.88568 0.35893 0.0
H508 H 0.90115 0.89562 0.29858 0.0
H509 H 0.98249 0.98471 0.34627 0.0
H510 H 0.98731 0.95946 0.33149 0.0
H511 H 0.97225 0.95444 0.36381 0.0
C512 C 0.97044 0.89184 0.29229 0.0
C513 C 0.97957 0.88559 0.31561 0.0
C514 C 0.95513 0.9038 0.29385 0.0
C515 C 0.94857 0.90983 0.31871 0.0
C516 C 0.95635 0.90235 0.34208 0.0
H517 H 0.88029 0.00825 0.35385 0.0
H518 H 0.89492 0.97617 0.35721 0.0
C519 C 0.97178 0.89039 0.34057 0.0
C520 C 0.93485 0.92522 0.31983 0.0
H521 H 0.94321 0.98487 0.33828 0.0
C522 C 0.91025 0.91507 0.30741 0.0
C523 C 0.94683 0.95065 0.33124 0.0
C524 C 0.97376 0.96314 0.34377 0.0
C525 C 0.89737 0.92973 0.30599 0.0
C526 C 0.90959 0.95531 0.31698 0.0
C527 C 0.93388 0.96521 0.32991 0.0
C528 C 0.89809 0.97265 0.31459 0.0
C529 C 0.87079 0.91773 0.29281 0.0
C530 C 0.89482 0.9812 0.28944 0.0
C531 C 0.88648 -0.00035 0.28738 0.0
C532 C 0.88142 0.01003 0.31048 0.0
C533 C 0.88406 0.00082 0.3356 0.0
C534 C 0.89242 0.98243 0.33761 0.0
H535 H 0.86113 0.89595 0.29192 0.0
H536 H 0.8577 0.92316 0.3036 0.0
H537 H 0.87319 0.92521 0.27206 0.0
H538 H 0.89955 0.97427 0.27141 0.0
H539 H 0.88473 0.00631 0.26773 0.0
H540 H 0.1006 0.94747 0.2659 0.0
H541 H 0.13293 0.99438 0.26903 0.0
H542 H 0.13261 0.98836 0.35482 0.0
H543 H 0.1003 0.94167 0.35203 0.0
H544 H 0.1239 0.02818 0.33598 0.0
H545 H 0.21164 0.03372 0.28824 0.0
H546 H 0.18197 0.01662 0.26903 0.0
H547 H 0.18449 0.00327 0.30045 0.0
C548 C 0.10766 0.95601 0.28543 0.0
C549 C 0.09768 0.94073 0.3087 0.0
C550 C 0.12627 0.98282 0.28716 0.0
C551 C 0.13535 0.99479 0.31216 0.0
C552 C 0.12593 0.97949 0.33534 0.0
H553 H 0.22426 0.16123 0.35826 0.0
H554 H 0.20311 0.11321 0.35991 0.0
C555 C 0.1074 0.95275 0.33366 0.0
C556 C 0.15295 0.02362 0.31433 0.0
H557 H 0.21296 0.07437 0.29595 0.0
C558 C 0.14349 0.03829 0.3275 0.0
C559 C 0.17844 0.03669 0.30317 0.0
C560 C 0.1899 0.0218 0.28961 0.0
C561 C 0.15847 0.06579 0.32904 0.0
C562 C 0.18389 0.07895 0.31764 0.0
C563 C 0.19354 0.06423 0.30483 0.0
C564 C 0.19983 0.10808 0.31702 0.0
C565 C 0.14645 0.08055 0.34186 0.0
C566 C 0.20625 0.12116 0.2924 0.0
C567 C 0.21853 0.14852 0.29137 0.0
C568 C 0.22469 0.16348 0.31498 0.0
C569 C 0.21963 0.15038 0.33969 0.0
C570 C 0.20737 0.12292 0.34068 0.0
H571 H 0.12483 0.06805 0.34414 0.0
H572 H 0.15502 0.08722 0.36203 0.0
H573 H 0.15064 0.09815 0.32991 0.0
H574 H 0.20078 0.11013 0.2739 0.0
H575 H 0.22234 0.15785 0.27195 0.0
H576 H 0.16462 0.22012 0.35195 0.0
H577 H 0.11751 0.20388 0.35341 0.0
H578 H 0.11613 0.20992 0.2677 0.0
H579 H 0.16327 0.22574 0.26589 0.0
H580 H 0.08629 0.22424 0.33629 0.0
H581 H 0.06259 0.13283 0.28156 0.0
H582 H 0.09483 0.15468 0.29486 0.0
H583 H 0.08458 0.16246 0.26402 0.0
C584 C 0.15441 0.21816 0.33335 0.0
C585 C 0.16777 0.22394 0.30874 0.0
C586 C 0.12744 0.20892 0.33427 0.0
C587 C 0.11323 0.20523 0.31065 0.0
C588 C 0.12664 0.21209 0.28614 0.0
H589 H 0.94917 0.1364 0.27235 0.0
H590 H -0.00308 0.16229 0.27312 0.0
C591 C 0.15363 0.22124 0.28516 0.0
C592 C 0.08426 0.19323 0.31167 0.0
H593 H 0.02724 0.14 0.29062 0.0
C594 C 0.07334 0.20581 0.32634 0.0
C595 C 0.06742 0.16904 0.29891 0.0
C596 C 0.07788 0.15379 0.28416 0.0
C597 C 0.04599 0.19509 0.32807 0.0
C598 C 0.02924 0.1711 0.315 0.0
C599 C 0.04017 0.15849 0.30049 0.0
C600 C 0.00025 0.15861 0.31569 0.0
C601 C 0.0352 0.20967 0.3434 0.0
C602 C 0.98619 0.14841 0.33954 0.0
C603 C 0.9587 0.13347 0.33922 0.0
C604 C 0.94489 0.12834 0.31497 0.0
C605 C 0.95911 0.13971 0.29137 0.0
C606 C 0.98645 0.15458 0.29174 0.0
H607 H 0.05055 0.23032 0.34755 0.0
H608 H 0.01892 0.2097 0.33221 0.0
H609 H 0.02724 0.19964 0.36276 0.0
H610 H -0.00349 0.15098 0.3582 0.0
H611 H 0.9484 0.12493 0.35772 0.0
H612 H 0.88004 0.44146 0.99666 0.0
H613 H 0.8647 0.47301 0.99432 0.0
H614 H 0.86096 0.474 0.08023 0.0
H615 H 0.87653 0.44247 0.0829 0.0
H616 H 0.81653 0.46402 0.01407 0.0
H617 H 0.89913 0.55253 0.06056 0.0
H618 H 0.90244 0.52543 0.04831 0.0
H619 H 0.88705 0.523 0.07999 0.0
C620 C 0.87627 0.44854 0.01515 0.0
C621 C 0.87947 0.43927 0.04001 0.0
C622 C 0.8675 0.46663 0.01372 0.0
C623 C 0.86193 0.47605 0.03707 0.0
C624 C 0.86561 0.46735 0.06196 0.0
H625 H 0.7859 0.56296 0.07833 0.0
H626 H 0.81165 0.54102 0.07624 0.0
C627 C 0.87438 0.44919 0.06343 0.0
C628 C 0.85039 0.4934 0.03524 0.0
H629 H 0.85949 0.55336 0.05362 0.0
C630 C 0.82604 0.48367 0.02246 0.0
C631 C 0.86281 0.51897 0.04627 0.0
C632 C 0.88942 0.53076 0.05936 0.0
C633 C 0.81333 0.49847 0.02116 0.0
C634 C 0.82562 0.52397 0.03242 0.0
C635 C 0.85018 0.53387 0.04487 0.0
C636 C 0.81238 0.53983 0.03311 0.0
C637 C 0.78639 0.48621 0.00869 0.0
C638 C 0.80495 0.54731 0.0095 0.0
C639 C 0.79001 0.55982 0.01057 0.0
C640 C 0.78236 0.56519 0.03532 0.0
C641 C 0.79116 0.55895 0.05888 0.0
C642 C 0.80599 0.54644 0.05777 0.0
H643 H 0.77733 0.46457 1.00654 0.0
H644 H 0.77308 0.49037 0.02081 0.0
H645 H 0.78799 0.49466 0.9885 0.0
H646 H 0.81017 0.5429 0.99023 0.0
H647 H 0.78377 0.56448 0.99203 0.0
H648 H 0.53837 0.29178 0.07372 0.0
H649 H 0.55972 0.33951 0.07239 0.0
H650 H 0.57078 0.33847 0.98742 0.0
H651 H 0.54927 0.29032 0.98846 0.0
H652 H 0.61278 0.37048 0.05389 0.0
H653 H 0.54348 0.39142 0.99812 0.0
H654 H 0.53309 0.36025 0.01432 0.0
H655 H 0.55099 0.36797 0.98351 0.0
C656 C 0.54497 0.30155 0.05461 0.0
C657 C 0.5423 0.28714 0.0312 0.0
C658 C 0.55713 0.32888 0.05392 0.0
C659 C 0.56676 0.34251 0.02984 0.0
C660 C 0.56316 0.32827 1.00618 0.0
H661 H 0.66595 0.50877 0.99576 0.0
H662 H 0.63584 0.46146 0.99308 0.0
C663 C 0.55092 0.30076 1.00682 0.0
C664 C 0.5828 0.37158 0.03026 0.0
H665 H 0.58446 0.42793 0.01014 0.0
C666 C 0.60657 0.38306 0.04438 0.0
C667 C 0.57471 0.38786 0.01765 0.0
C668 C 0.5491 0.37638 1.00265 0.0
C669 C 0.6226 0.41042 0.04617 0.0
C670 C 0.6143 0.4268 0.03407 0.0
C671 C 0.59065 0.41533 0.01962 0.0
C672 C 0.63035 0.45587 0.03576 0.0
C673 C 0.64857 0.42152 0.06053 0.0
C674 C 0.63659 0.4686 0.06063 0.0
C675 C 0.65397 0.49568 0.06231 0.0
C676 C 0.66528 0.51061 0.03909 0.0
C677 C 0.65781 0.49795 0.01411 0.0
C678 C 0.64053 0.47086 0.01249 0.0
H679 H 0.65504 0.40678 0.06238 0.0
H680 H 0.66411 0.43905 0.04998 0.0
H681 H 0.64652 0.42754 0.08097 0.0
H682 H 0.62847 0.45746 0.07883 0.0
H683 H 0.65902 0.50476 0.08185 0.0
H684 H 0.60051 0.22175 0.08204 0.0
H685 H 0.64758 0.23728 0.08063 0.0
H686 H 0.64673 0.24272 0.99483 0.0
H687 H 0.59963 0.22672 0.99591 0.0
H688 H 0.6784 0.22301 0.01278 0.0
H689 H 0.70051 0.31448 0.06646 0.0
H690 H 0.67861 0.28488 0.0841 0.0
H691 H 0.66848 0.29224 0.05295 0.0
C692 C 0.61023 0.226 0.06283 0.0
C693 C 0.59625 0.22329 0.03912 0.0
C694 C 0.63719 0.23499 0.06207 0.0
C695 C 0.65076 0.2417 0.03766 0.0
C696 C 0.63668 0.23782 0.0139 0.0
H697 H 0.81562 0.32347 0.9914 0.0
H698 H 0.7676 0.29655 0.99098 0.0
C699 C 0.60972 0.22871 0.0146 0.0
C700 C 0.67978 0.25398 0.03694 0.0
H701 H 0.73626 0.30779 0.05813 0.0
C702 C 0.69109 0.24155 0.02267 0.0
C703 C 0.69629 0.27832 0.04963 0.0
C704 C 0.68543 0.29343 0.06394 0.0
C705 C 0.7185 0.25257 0.02125 0.0
C706 C 0.73492 0.27672 0.03422 0.0
C707 C 0.72359 0.28916 0.04836 0.0
C708 C 0.76398 0.28969 0.03362 0.0
C709 C 0.7297 0.23814 1.00633 0.0
C710 C 0.77785 0.29449 0.05765 0.0
C711 C 0.80517 0.3099 0.05799 0.0
C712 C 0.81928 0.32104 0.03428 0.0
C713 C 0.80542 0.31515 0.01 0.0
C714 C 0.77796 0.29969 0.0097 0.0
H715 H 0.71463 0.21731 1.00253 0.0
H716 H 0.73743 0.24788 0.98679 0.0
H717 H 0.74621 0.23868 0.01762 0.0
H718 H 0.76743 0.28698 0.07633 0.0
H719 H 0.81513 0.3138 0.07705 0.0
H720 H 0.648 0.22223 0.69218 0.0
H721 H 0.62007 0.24211 0.69476 0.0
H722 H 0.61358 0.23973 0.60893 0.0
H723 H 0.64083 0.21953 0.60612 0.0
H724 H 0.63251 0.28961 0.67322 0.0
H725 H 0.53825 0.21294 0.63065 0.0
H726 H 0.5634 0.20606 0.64178 0.0
H727 H 0.56555 0.2202 0.60932 0.0
C728 C 0.64019 0.22543 0.67389 0.0
C729 C 0.64679 0.21932 0.64895 0.0
C730 C 0.62426 0.23684 0.6754 0.0
C731 C 0.61444 0.2421 0.65206 0.0
C732 C 0.62038 0.23531 0.62725 0.0
H733 H 0.55228 0.34027 0.60247 0.0
H734 H 0.56811 0.30895 0.60598 0.0
C735 C 0.63623 0.22395 0.6257 0.0
C736 C 0.60025 0.25703 0.65321 0.0
H737 H 0.54518 0.25692 0.6313 0.0
C738 C 0.61323 0.28229 0.66445 0.0
C739 C 0.57516 0.24753 0.6416 0.0
C740 C 0.55967 0.22009 0.6304 0.0
C741 C 0.60226 0.29868 0.6635 0.0
C742 C 0.57749 0.28943 0.65128 0.0
C743 C 0.56422 0.26398 0.64054 0.0
C744 C 0.56547 0.30627 0.64905 0.0
C745 C 0.6177 0.32615 0.67471 0.0
C746 C 0.55801 0.31448 0.67204 0.0
C747 C 0.54899 0.33234 0.67015 0.0
C748 C 0.54718 0.34234 0.64517 0.0
C749 C 0.55353 0.3331 0.62203 0.0
C750 C 0.56256 0.31518 0.62398 0.0
H751 H 0.63857 0.33207 0.67837 0.0
H752 H 0.61703 0.34061 0.66092 0.0
H753 H 0.6089 0.32705 0.69399 0.0
H754 H 0.55972 0.30748 0.69154 0.0
H755 H 0.54404 0.33875 0.6884 0.0
H756 H 0.76836 0.27974 0.59672 0.0
H757 H 0.80075 0.32667 0.59842 0.0
H758 H 0.79919 0.32386 0.68446 0.0
H759 H 0.76729 0.27701 0.68305 0.0
H760 H 0.79213 0.36401 0.62069 0.0
H761 H 0.87744 0.36599 0.66998 0.0
H762 H 0.85073 0.3364 0.65583 0.0
H763 H 0.84735 0.34759 0.68822 0.0
C764 C 0.77519 0.28898 0.61602 0.0
C765 C 0.76508 0.27451 0.63973 0.0
C766 C 0.79373 0.31582 0.61695 0.0
C767 C 0.80265 0.32872 0.64156 0.0
C768 C 0.79308 0.31424 0.66523 0.0
H769 H 0.88341 0.49301 0.68915 0.0
H770 H 0.86186 0.44484 0.68876 0.0
C771 C 0.77462 0.28742 0.66435 0.0
C772 C 0.82002 0.3577 0.64253 0.0
H773 H 0.87817 0.40699 0.66717 0.0
C774 C 0.81105 0.37337 0.63063 0.0
C775 C 0.84461 0.36991 0.65573 0.0
C776 C 0.85575 0.35412 0.66795 0.0
C777 C 0.82575 0.40087 0.63191 0.0
C778 C 0.85026 0.41308 0.64516 0.0
C779 C 0.85933 0.39751 0.65709 0.0
C780 C 0.86669 0.44208 0.6463 0.0
C781 C 0.81473 0.41671 0.61947 0.0
C782 C 0.87739 0.45637 0.62276 0.0
C783 C 0.88962 0.48373 0.62288 0.0
C784 C 0.89148 0.49742 0.6466 0.0
C785 C 0.88228 0.48311 0.67055 0.0
C786 C 0.86995 0.4556 0.67037 0.0
H787 H 0.79341 0.40445 0.61515 0.0
H788 H 0.8178 0.43313 0.63278 0.0
H789 H 0.82506 0.4253 0.60038 0.0
H790 H 0.87538 0.44627 0.60406 0.0
H791 H 0.89678 0.49409 0.60412 0.0
H792 H 0.61322 0.45837 0.69409 0.0
H793 H 0.66123 0.48538 0.69545 0.0
H794 H 0.66316 0.49293 0.60972 0.0
H795 H 0.61555 0.46662 0.60816 0.0
H796 H 0.69473 0.47191 0.67177 0.0
H797 H 0.71395 0.56771 0.63176 0.0
H798 H 0.68196 0.54298 0.64349 0.0
H799 H 0.6928 0.54083 0.61046 0.0
C800 C 0.62382 0.46628 0.6756 0.0
C801 C 0.61045 0.4602 0.65103 0.0
C802 C 0.65127 0.48165 0.6764 0.0
C803 C 0.66579 0.49146 0.65271 0.0
C804 C 0.65241 0.48613 0.62831 0.0
H805 H 0.82586 0.55294 0.60012 0.0
H806 H 0.77866 0.53678 0.60402 0.0
C807 C 0.6251 0.47081 0.62747 0.0
C808 C 0.69493 0.50497 0.65299 0.0
H809 H 0.75023 0.55974 0.63084 0.0
C810 C 0.70689 0.49128 0.6632 0.0
C811 C 0.71077 0.53017 0.64159 0.0
C812 C 0.69923 0.54638 0.63144 0.0
C813 C 0.73414 0.5017 0.66152 0.0
C814 C 0.7499 0.52663 0.64962 0.0
C815 C 0.73806 0.54056 0.63981 0.0
C816 C 0.77873 0.53838 0.64716 0.0
C817 C 0.74578 0.48557 0.6717 0.0
C818 C 0.79444 0.54526 0.67008 0.0
C819 C 0.82132 0.55447 0.66797 0.0
C820 C 0.83314 0.55706 0.64283 0.0
C821 C 0.81746 0.5511 0.61979 0.0
C822 C 0.79048 0.54189 0.62196 0.0
H823 H 0.73055 0.46468 0.67496 0.0
H824 H 0.76063 0.48631 0.65749 0.0
H825 H 0.75574 0.49376 0.69104 0.0
H826 H 0.7858 0.54309 0.68969 0.0
H827 H 0.83274 0.55909 0.68617 0.0
H828 H 0.54207 0.77488 0.41641 0.0
H829 H 0.52672 0.80657 0.41285 0.0
H830 H 0.53782 0.81004 0.32758 0.0
H831 H 0.55302 0.77838 0.33078 0.0
H832 H 0.55081 0.85907 0.38928 0.0
H833 H 0.45902 0.78647 0.33783 0.0
H834 H 0.47965 0.77697 0.35565 0.0
H835 H 0.48908 0.79159 0.3231 0.0
C836 C 0.54149 0.78254 0.39691 0.0
C837 C 0.54849 0.77376 0.37386 0.0
C838 C 0.53273 0.80067 0.39493 0.0
C839 C 0.53074 0.81029 0.36991 0.0
C840 C 0.53879 0.8025 0.34703 0.0
H841 H 0.4524 0.89774 0.32442 0.0
H842 H 0.47984 0.87728 0.32301 0.0
C843 C 0.54754 0.78441 0.34895 0.0
C844 C 0.51915 0.82753 0.36758 0.0
H845 H 0.46563 0.82909 0.3436 0.0
C846 C 0.53223 0.8526 0.37924 0.0
C847 C 0.49498 0.81905 0.35434 0.0
C848 C 0.47968 0.79199 0.34216 0.0
C849 C 0.52172 0.86943 0.37803 0.0
C850 C 0.49724 0.86071 0.36529 0.0
C851 C 0.48445 0.83582 0.35322 0.0
C852 C 0.48349 0.87611 0.36592 0.0
C853 C 0.53705 0.89645 0.39023 0.0
C854 C 0.47664 0.88249 0.39046 0.0
C855 C 0.46107 0.89421 0.39134 0.0
C856 C 0.45169 0.8996 0.36767 0.0
C857 C 0.45928 0.89395 0.34303 0.0
C858 C 0.47493 0.8822 0.34219 0.0
H859 H 0.55838 0.90324 0.39098 0.0
H860 H 0.53418 0.91105 0.3789 0.0
H861 H 0.53023 0.89576 0.41103 0.0
H862 H 0.48245 0.87744 0.40904 0.0
H863 H 0.45568 0.89823 0.41071 0.0
H864 H 0.33233 0.84297 0.32729 0.0
H865 H 0.30072 0.7961 0.32375 0.0
H866 H 0.29778 0.7894 0.40955 0.0
H867 H 0.32936 0.83642 0.41342 0.0
H868 H 0.3094 0.75643 0.34329 0.0
H869 H 0.21978 0.74938 0.38786 0.0
H870 H 0.24706 0.78007 0.37633 0.0
H871 H 0.24874 0.7667 0.40805 0.0
C872 C 0.32477 0.83169 0.3455 0.0
C873 C 0.33354 0.84357 0.37069 0.0
C874 C 0.30667 0.80485 0.34338 0.0
C875 C 0.29672 0.78931 0.36636 0.0
C876 C 0.30486 0.80113 0.39155 0.0
H877 H 0.21115 0.62694 0.40805 0.0
H878 H 0.23253 0.67459 0.4051 0.0
C879 C 0.32305 0.82801 0.39372 0.0
C880 C 0.2795 0.76043 0.3639 0.0
H881 H 0.21956 0.70906 0.38143 0.0
C882 C 0.28962 0.74606 0.35132 0.0
C883 C 0.25376 0.74701 0.37444 0.0
C884 C 0.24153 0.76156 0.38723 0.0
C885 C 0.27511 0.71852 0.34993 0.0
C886 C 0.2495 0.705 0.36088 0.0
C887 C 0.23914 0.71944 0.37294 0.0
C888 C 0.23409 0.67585 0.36196 0.0
C889 C 0.28781 0.70409 0.33783 0.0
C890 C 0.22705 0.66058 0.3386 0.0
C891 C 0.21486 0.63313 0.34017 0.0
C892 C 0.20939 0.62049 0.36517 0.0
C893 C 0.21525 0.63589 0.38843 0.0
C894 C 0.22744 0.66322 0.38682 0.0
H895 H 0.3094 0.71695 0.33573 0.0
H896 H 0.28388 0.68679 0.35016 0.0
H897 H 0.27951 0.69697 0.31765 0.0
H898 H 0.2315 0.66991 0.31917 0.0
H899 H 0.21048 0.62192 0.32185 0.0
H900 H 0.27035 0.56171 0.41433 0.0
H901 H 0.31741 0.57735 0.41087 0.0
H902 H 0.31054 0.5691 0.3253 0.0
H903 H 0.26362 0.55362 0.3284 0.0
H904 H 0.34624 0.55446 0.3863 0.0
H905 H 0.36542 0.64765 0.33788 0.0
H906 H 0.33511 0.62626 0.3551 0.0
H907 H 0.34082 0.61793 0.32225 0.0
C908 C 0.27875 0.56296 0.39477 0.0
C909 C 0.26316 0.55668 0.37163 0.0
C910 C 0.30566 0.57188 0.39285 0.0
C911 C 0.3175 0.57478 0.3678 0.0
C912 C 0.30185 0.56742 0.34479 0.0
H913 H 0.48409 0.65596 0.32488 0.0
H914 H 0.43624 0.62825 0.32252 0.0
C915 C 0.27498 0.5585 0.34665 0.0
C916 C 0.34638 0.58665 0.36566 0.0
H917 H 0.40158 0.64135 0.3435 0.0
C918 C 0.35837 0.57341 0.37687 0.0
C919 C 0.36211 0.61132 0.35322 0.0
C920 C 0.35034 0.6268 0.34158 0.0
C921 C 0.38576 0.58424 0.37603 0.0
C922 C 0.40156 0.60921 0.36415 0.0
C923 C 0.38946 0.62216 0.35247 0.0
C924 C 0.4307 0.62323 0.36528 0.0
C925 C 0.39748 0.56875 0.38773 0.0
C926 C 0.44351 0.62943 0.39005 0.0
C927 C 0.47078 0.64516 0.39148 0.0
C928 C 0.48593 0.65535 0.36814 0.0
C929 C 0.47312 0.64845 0.34325 0.0
C930 C 0.44575 0.63265 0.34186 0.0
H931 H 0.38307 0.54733 0.38779 0.0
H932 H 0.41519 0.57219 0.37648 0.0
H933 H 0.40327 0.57494 0.40873 0.0
H934 H 0.43234 0.62294 0.40842 0.0
H935 H 0.47987 0.65001 0.41102 0.0
H936 H 0.21661 0.67614 0.01977 0.0
H937 H 0.23263 0.64502 0.02115 0.0
H938 H 0.22351 0.63526 0.93582 0.0
H939 H 0.20779 0.66664 0.93406 0.0
H940 H 0.21193 0.59201 1.00358 0.0
H941 H 0.30214 0.66228 0.94851 0.0
H942 H 0.28004 0.67179 0.96297 0.0
H943 H 0.27196 0.65417 0.93189 0.0
C944 C 0.21772 0.66721 1.00127 0.0
C945 C 0.21125 0.67426 0.97673 0.0
C946 C 0.22684 0.64935 1.00215 0.0
C947 C 0.2297 0.63822 0.97855 0.0
C948 C 0.22189 0.64403 0.95421 0.0
H949 H 0.30546 0.54954 0.93848 0.0
H950 H 0.27813 0.56985 0.93917 0.0
C951 C 0.21282 0.66193 0.95328 0.0
C952 C 0.2424 0.6219 0.9792 0.0
H953 H 0.29661 0.62041 0.95751 0.0
C954 C 0.23044 0.59816 0.99353 0.0
C955 C 0.26667 0.63013 0.96626 0.0
C956 C 0.28114 0.65609 0.95173 0.0
C957 C 0.24187 0.58211 0.99473 0.0
C958 C 0.26603 0.59029 0.98159 0.0
C959 C 0.278 0.6141 0.96743 0.0
C960 C 0.27951 0.57467 0.98204 0.0
C961 C 0.22781 0.55636 0.00959 0.0
C962 C 0.28897 0.57013 1.00604 0.0
C963 C 0.30466 0.5584 1.00575 0.0
C964 C 0.31136 0.5513 0.98142 0.0
C965 C 0.30091 0.55495 0.95758 0.0
C966 C 0.28522 0.56653 0.95791 0.0
H967 H 0.20677 0.54996 0.01286 0.0
H968 H 0.22916 0.54069 0.99858 0.0
H969 H 0.23716 0.55869 0.0294 0.0
H970 H 0.2852 0.57669 0.02486 0.0
H971 H 0.31247 0.55601 0.02445 0.0
H972 H 0.52096 0.82399 0.95427 0.0
H973 H 0.50035 0.77639 0.95536 0.0
H974 H 0.56342 0.78268 1.00473 0.0
H975 H 0.58334 0.8308 1.00506 0.0
H976 H 0.51452 0.74508 0.93724 0.0
H977 H 0.5034 0.72986 0.04694 0.0
H978 H 0.51393 0.76143 0.03187 0.0
H979 H 0.53678 0.74979 0.0362 0.0
C980 C 0.53043 0.81525 0.96547 0.0
C981 C 0.55374 0.83105 0.97961 0.0
C982 C 0.51863 0.78797 0.96605 0.0
C983 C 0.53008 0.77572 0.98034 0.0
C984 C 0.55374 0.79151 0.99415 0.0
H985 H 0.45405 0.60519 0.94642 0.0
H986 H 0.4876 0.65191 0.94849 0.0
C987 C 0.56524 0.81899 0.99418 0.0
C988 C 0.51692 0.74647 0.98017 0.0
H989 H 0.48917 0.69218 0.0203 0.0
C990 C 0.509 0.73351 0.95544 0.0
C991 C 0.50966 0.7313 1.00388 0.0
C992 C 0.51615 0.74376 0.03123 0.0
C993 C 0.49287 0.70612 0.95373 0.0
C994 C 0.48562 0.69091 0.97744 0.0
C995 C 0.4947 0.70376 1.00211 0.0
C996 C 0.46672 0.66206 0.97743 0.0
C997 C 0.48254 0.69415 0.92662 0.0
C998 C 0.4445 0.65178 0.99405 0.0
C999 C 0.42594 0.62501 0.99363 0.0
C1000 C 0.42885 0.60798 0.97615 0.0
C1001 C 0.45118 0.61804 0.95976 0.0
C1002 C 0.47024 0.64477 0.9608 0.0
H1003 H 0.48382 0.70902 0.91205 0.0
H1004 H 0.4945 0.68589 0.91869 0.0
H1005 H 0.46175 0.67816 0.92778 0.0
H1006 H 0.44121 0.66457 1.00707 0.0
H1007 H 0.40886 0.61776 1.00644 0.0
H1008 H 0.28486 0.76275 0.95952 0.0
H1009 H 0.33246 0.78983 0.96084 0.0
H1010 H 0.3258 0.84708 0.00911 0.0
H1011 H 0.27772 0.81885 0.00916 0.0
H1012 H 0.36265 0.83545 0.94148 0.0
H1013 H 0.38008 0.84171 0.05084 0.0
H1014 H 0.3484 0.81986 0.03647 0.0
H1015 H 0.35933 0.85428 0.04033 0.0
C1016 C 0.29356 0.78101 0.97065 0.0
C1017 C 0.27769 0.78874 0.98427 0.0
C1018 C 0.3208 0.79654 0.97134 0.0
C1019 C 0.33292 0.82051 0.98521 0.0
C1020 C 0.31706 0.8284 0.99882 0.0
H1021 H 0.50208 0.91935 0.94784 0.0
H1022 H 0.4551 0.90463 0.95102 0.0
C1023 C 0.28961 0.81238 0.99873 0.0
C1024 C 0.36208 0.83709 0.98442 0.0
H1025 H 0.4171 0.8657 0.02335 0.0
C1026 C 0.37455 0.84208 0.95942 0.0
C1027 C 0.37767 0.84577 0.0078 0.0
C1028 C 0.36574 0.83995 0.03538 0.0
C1029 C 0.40195 0.85419 0.95713 0.0
C1030 C 0.41759 0.86295 0.98049 0.0
C1031 C 0.40517 0.85908 1.00543 0.0
C1032 C 0.44653 0.87381 0.97982 0.0
C1033 C 0.41355 0.85594 0.92979 0.0
C1034 C 0.45772 0.86242 0.99593 0.0
C1035 C 0.48459 0.8714 0.9948 0.0
C1036 C 0.50087 0.89167 0.97717 0.0
C1037 C 0.48988 0.90342 0.96131 0.0
C1038 C 0.46301 0.89489 0.963 0.0
H1039 H 0.39865 0.84195 0.91551 0.0
H1040 H 0.42116 0.87605 0.92171 0.0
H1041 H 0.42996 0.85176 0.93067 0.0
H1042 H 0.44555 0.84615 0.00906 0.0
H1043 H 0.49251 0.86191 1.0072 0.0
H1044 H 0.1227 0.31173 0.6141 0.0
H1045 H 0.14181 0.34162 0.57603 0.0
H1046 H 0.12161 0.39554 0.6127 0.0
H1047 H 0.10385 0.36664 0.6511 0.0
H1048 H 0.1192 0.35489 0.54111 0.0
H1049 H 0.19248 0.44734 0.58828 0.0
H1050 H 0.1771 0.41663 0.60627 0.0
H1051 H 0.16135 0.43619 0.60399 0.0
C1052 C 0.12296 0.33028 0.61435 0.0
C1053 C 0.11187 0.33679 0.63584 0.0
C1054 C 0.13381 0.34735 0.59248 0.0
C1055 C 0.13364 0.3712 0.59149 0.0
C1056 C 0.12294 0.37784 0.61318 0.0
H1057 H 0.11634 0.4456 0.45218 0.0
H1058 H 0.11251 0.41732 0.48946 0.0
C1059 C 0.11255 0.36107 0.63518 0.0
C1060 C 0.14222 0.38794 0.56694 0.0
H1061 H 0.17512 0.45184 0.5458 0.0
C1062 C 0.13182 0.37605 0.54215 0.0
C1063 C 0.1592 0.41556 0.56784 0.0
C1064 C 0.17338 0.42956 0.59302 0.0
C1065 C 0.13675 0.39101 0.51872 0.0
C1066 C 0.15161 0.41881 0.52015 0.0
C1067 C 0.16323 0.43061 0.54462 0.0
C1068 C 0.15431 0.43599 0.49694 0.0
C1069 C 0.12599 0.37667 0.49269 0.0
C1070 C 0.17901 0.45681 0.48915 0.0
C1071 C 0.18121 0.47358 0.46811 0.0
C1072 C 0.15876 0.46975 0.45424 0.0
C1073 C 0.13411 0.44889 0.46206 0.0
C1074 C 0.13189 0.43249 0.48333 0.0
H1075 H 0.1244 0.35702 0.49307 0.0
H1076 H 0.10594 0.3735 0.48955 0.0
H1077 H 0.1385 0.38792 0.4755 0.0
H1078 H 0.19663 0.46014 0.4994 0.0
H1079 H 0.20049 0.48948 0.46266 0.0
H1080 H 0.61653 0.77964 0.46486 0.0
H1081 H 0.64589 0.80513 0.5016 0.0
H1082 H 0.68924 0.76449 0.49084 0.0
H1083 H 0.66098 0.74007 0.45361 0.0
H1084 H 0.6548 0.79202 0.54785 0.0
H1085 H 0.74906 0.83699 0.4942 0.0
H1086 H 0.71807 0.82 0.4769 0.0
H1087 H 0.73286 0.80203 0.49054 0.0
C1088 C 0.63255 0.77642 0.47014 0.0
C1089 C 0.63655 0.75801 0.45603 0.0
C1090 C 0.64933 0.79099 0.49118 0.0
C1091 C 0.67032 0.78732 0.4987 0.0
C1092 C 0.67394 0.76857 0.4849 0.0
H1093 H 0.74071 0.8057 0.65206 0.0
H1094 H 0.71161 0.79469 0.6139 0.0
C1095 C 0.65755 0.75439 0.46365 0.0
C1096 C 0.68761 0.80185 0.52181 0.0
H1097 H 0.75164 0.83356 0.54217 0.0
C1098 C 0.676 0.80147 0.54646 0.0
C1099 C 0.71539 0.81497 0.52011 0.0
C1100 C 0.72952 0.81879 0.49391 0.0
C1101 C 0.69121 0.81243 0.56959 0.0
C1102 C 0.71881 0.82319 0.56839 0.0
C1103 C 0.7305 0.82492 0.54344 0.0
C1104 C 0.73573 0.83124 0.5928 0.0
C1105 C 0.67739 0.8124 0.59497 0.0
C1106 C 0.75955 0.85531 0.59374 0.0
C1107 C 0.77675 0.86144 0.61545 0.0
C1108 C 0.77039 0.84373 0.63685 0.0
C1109 C 0.74616 0.82007 0.63622 0.0
C1110 C 0.72928 0.81377 0.61436 0.0
H1111 H 0.65958 0.81371 0.59053 0.0
H1112 H 0.67089 0.79365 0.60578 0.0
H1113 H 0.69038 0.82899 0.60826 0.0
H1114 H 0.76515 0.86915 0.57737 0.0
H1115 H 0.79525 0.87979 0.61519 0.0
H1116 H 0.22729 0.98408 0.61397 0.0
H1117 H 0.23777 0.96442 0.57622 0.0
H1118 H 0.31387 0.989 0.61051 0.0
H1119 H 0.30306 0.00732 0.64866 0.0
H1120 H 0.272 0.98631 0.53971 0.0
H1121 H 0.29643 0.91773 0.58921 0.0
H1122 H 0.28087 0.93298 0.60692 0.0
H1123 H 0.31612 0.9498 0.60323 0.0
C1124 C 0.24601 0.98472 0.61375 0.0
C1125 C 0.26421 -0.00289 0.63454 0.0
C1126 C 0.25204 0.97354 0.59208 0.0
C1127 C 0.27649 0.97471 0.59055 0.0
C1128 C 0.29452 0.98686 0.61147 0.0
H1129 H 0.36437 0.98943 0.44938 0.0
H1130 H 0.34022 0.9935 0.48668 0.0
C1131 C 0.28833 -0.00244 0.63331 0.0
C1132 C 0.28421 0.96549 0.56617 0.0
H1133 H 0.31627 0.93355 0.5456 0.0
C1134 C 0.28125 0.97437 0.54104 0.0
C1135 C 0.29576 0.94935 0.56748 0.0
C1136 C 0.29717 0.93669 0.59317 0.0
C1137 C 0.29072 0.96882 0.5176 0.0
C1138 C 0.30458 0.9549 0.51931 0.0
C1139 C 0.30621 0.94473 0.54418 0.0
C1140 C 0.31868 0.95192 0.49594 0.0
C1141 C 0.28561 0.97793 0.49127 0.0
C1142 C 0.31557 0.9273 0.48907 0.0
C1143 C 0.32998 0.92498 0.46795 0.0
C1144 C 0.34768 0.94723 0.45312 0.0
C1145 C 0.35062 0.97178 0.46 0.0
C1146 C 0.3366 0.97413 0.4813 0.0
H1147 H 0.2671 0.97865 0.49198 0.0
H1148 H 0.30182 -0.00186 0.48702 0.0
H1149 H 0.28425 0.96486 0.4746 0.0
H1150 H 0.30207 0.90986 0.50013 0.0
H1151 H 0.32727 0.90579 0.46327 0.0
H1152 H 0.46986 0.19829 0.93634 0.0
H1153 H 0.43978 0.18505 0.89837 0.0
H1154 H 0.37394 0.14285 0.95128 0.0
H1155 H 0.40384 0.15573 0.9895 0.0
H1156 H 0.40181 0.12615 0.88929 0.0
H1157 H 0.35453 0.18761 0.89688 0.0
H1158 H 0.38702 0.19839 0.90992 0.0
H1159 H 0.35878 0.17332 0.92698 0.0
C1160 C 0.44897 0.18669 0.9401 0.0
C1161 C 0.43937 0.17801 0.9661 0.0
C1162 C 0.4318 0.17909 0.91829 0.0
C1163 C 0.40465 0.16304 0.92202 0.0
C1164 C 0.39482 0.15544 0.948 0.0
H1165 H 0.27113 0.0835 0.81424 0.0
H1166 H 0.30027 0.10576 0.85209 0.0
C1167 C 0.41199 0.1628 0.96983 0.0
C1168 C 0.38698 0.15203 0.89856 0.0
H1169 H 0.33889 0.1551 0.86322 0.0
C1170 C 0.38812 0.13254 0.88347 0.0
C1171 C 0.36892 0.16015 0.89132 0.0
C1172 C 0.36713 0.18111 0.90695 0.0
C1173 C 0.3715 0.12071 0.86147 0.0
C1174 C 0.35379 0.12923 0.8537 0.0
C1175 C 0.35256 0.14868 0.86896 0.0
C1176 C 0.33619 0.11783 0.83007 0.0
C1177 C 0.37257 0.09857 0.84735 0.0
C1178 C 0.3466 0.11799 0.80477 0.0
C1179 C 0.32999 0.105 0.7832 0.0
C1180 C 0.30254 0.09202 0.78624 0.0
C1181 C 0.29216 0.09327 0.81117 0.0
C1182 C 0.30882 0.10598 0.83286 0.0
H1183 H 0.38095 0.08929 0.86036 0.0
H1184 H 0.35274 0.08314 0.84075 0.0
H1185 H 0.38535 0.10646 0.82949 0.0
H1186 H 0.36764 0.12771 0.80182 0.0
H1187 H 0.3387 0.10478 0.76421 0.0
H1188 H 0.01785 0.31777 0.77199 0.0
H1189 H -0.00439 0.32365 0.81024 0.0
H1190 H 0.98632 0.25272 0.84581 0.0
H1191 H 0.00861 0.24653 0.8075 0.0
H1192 H 0.94025 0.26051 0.84951 0.0
H1193 H 0.03368 0.34612 0.88423 0.0
H1194 H 0.02536 0.34757 0.84998 0.0
H1195 H 0.03272 0.32269 0.8603 0.0
C1196 C 0.0109 0.3032 0.78775 0.0
C1197 C 0.01535 0.28178 0.78667 0.0
C1198 C -0.00179 0.30666 0.80967 0.0
C1199 C 0.98964 0.28884 0.83104 0.0
C1200 C 0.99287 0.26677 0.82956 0.0
H1201 H 0.95931 0.32642 0.99015 0.0
H1202 H 0.97229 0.30912 0.95248 0.0
C1203 C 0.00566 0.26329 0.80763 0.0
C1204 C 0.97866 0.29414 0.85546 0.0
H1205 H -0.00504 0.33785 0.90678 0.0
C1206 C 0.95218 0.27734 0.86213 0.0
C1207 C 0.99435 0.31593 0.87207 0.0
C1208 C 0.02317 0.33404 0.86652 0.0
C1209 C 0.94085 0.28216 0.88465 0.0
C1210 C 0.95639 0.30443 0.90079 0.0
C1211 C 0.98299 0.32085 0.89438 0.0
C1212 C 0.94566 0.31144 0.92434 0.0
C1213 C 0.91245 0.26326 0.89115 0.0
C1214 C 0.92591 0.31803 0.92127 0.0
C1215 C 0.91836 0.32796 0.94286 0.0
C1216 C 0.93054 0.33168 0.96797 0.0
C1217 C 0.94948 0.32392 0.97119 0.0
C1218 C 0.957 0.31403 0.94962 0.0
H1219 H 0.90531 0.24393 0.88128 0.0
H1220 H 0.90951 0.26014 0.91304 0.0
H1221 H 0.90027 0.27157 0.88398 0.0
H1222 H 0.91717 0.31664 0.90188 0.0
H1223 H 0.90382 0.33381 0.93951 0.0
H1224 H 0.76791 0.69949 0.98567 0.0
H1225 H 0.78525 0.72818 0.94698 0.0
H1226 H 0.80699 0.67506 0.91117 0.0
H1227 H 0.78828 0.64536 0.94945 0.0
H1228 H 0.82983 0.7555 0.92304 0.0
H1229 H 0.76276 0.67765 0.85289 0.0
H1230 H 0.76029 0.67299 0.88852 0.0
H1231 H 0.78479 0.66986 0.86994 0.0
C1232 C 0.77661 0.69393 0.96974 0.0
C1233 C 0.77637 0.66987 0.97061 0.0
C1234 C 0.78655 0.71045 0.94752 0.0
C1235 C 0.79683 0.70356 0.92567 0.0
C1236 C 0.79833 0.68044 0.92727 0.0
H1237 H 0.8668 0.82201 0.79602 0.0
H1238 H 0.86251 0.79309 0.83335 0.0
C1239 C 0.78787 0.66358 0.94933 0.0
C1240 C 0.80477 0.72018 0.90106 0.0
H1241 H 0.79217 0.7188 0.83426 0.0
C1242 C 0.82166 0.74745 0.9036 0.0
C1243 C 0.79392 0.70979 0.87564 0.0
C1244 C 0.77425 0.68103 0.87154 0.0
C1245 C 0.82732 0.76463 0.88183 0.0
C1246 C 0.81665 0.7542 0.85638 0.0
C1247 C 0.80049 0.72685 0.85366 0.0
C1248 C 0.81997 0.77124 0.83283 0.0
C1249 C 0.84355 0.79383 0.88676 0.0
C1250 C 0.79767 0.76795 0.81918 0.0
C1251 C 0.80012 0.78391 0.79742 0.0
C1252 C 0.82496 0.80388 0.78887 0.0
C1253 C 0.84737 0.80701 0.80227 0.0
C1254 C 0.84491 0.7906 0.82379 0.0
H1255 H 0.84406 0.79867 0.90828 0.0
H1256 H 0.86404 0.80095 0.88024 0.0
H1257 H 0.83576 0.80469 0.87542 0.0
H1258 H 0.77818 0.75322 0.82562 0.0
H1259 H 0.7824 0.78099 0.7877 0.0
H1260 H 0.97112 0.68316 0.57722 0.0
H1261 H 0.97662 0.7113 0.5391 0.0
H1262 H 0.9077 0.64817 0.50217 0.0
H1263 H 0.90185 0.61973 0.5404 0.0
H1264 H 0.98478 0.70005 0.48686 0.0
H1265 H 0.8972 0.71227 0.49281 0.0
H1266 H 0.90866 0.70139 0.52084 0.0
H1267 H 0.89062 0.67894 0.49437 0.0
C1268 C 0.95683 0.67526 0.56124 0.0
C1269 C 0.93607 0.64903 0.56195 0.0
C1270 C 0.96005 0.69144 0.53941 0.0
C1271 C 0.94251 0.68194 0.51783 0.0
C1272 C 0.92126 0.65608 0.51877 0.0
H1273 H 0.98148 0.748 0.3576 0.0
H1274 H 0.96438 0.71809 0.39568 0.0
C1275 C 0.91801 0.6398 0.54064 0.0
C1276 C 0.94789 0.69846 0.49354 0.0
H1277 H 0.92383 0.72913 0.45409 0.0
C1278 C 0.97143 0.70638 0.47971 0.0
C1279 C 0.93054 0.70686 0.48431 0.0
C1280 C 0.90541 0.69966 0.49891 0.0
C1281 C 0.97807 0.72233 0.45687 0.0
C1282 C 0.96056 0.73038 0.44735 0.0
C1283 C 0.93708 0.72269 0.46127 0.0
C1284 C 0.96698 0.74749 0.42341 0.0
C1285 C 0.00406 0.73086 0.44338 0.0
C1286 C 0.97297 0.77368 0.42604 0.0
C1287 C 0.98275 0.79093 0.40425 0.0
C1288 C 0.98666 0.78226 0.37934 0.0
C1289 C 0.97894 0.75551 0.37643 0.0
C1290 C 0.96923 0.73834 0.39823 0.0
H1291 H 0.01751 0.72753 0.45624 0.0
H1292 H 0.00064 0.71942 0.42472 0.0
H1293 H 0.01389 0.75202 0.43798 0.0
H1294 H 0.97127 0.78112 0.44528 0.0
H1295 H 0.98835 0.81132 0.4073 0.0
H1296 H 0.29685 0.24713 0.40922 0.0
H1297 H 0.32669 0.26062 0.44747 0.0
H1298 H 0.3899 0.31683 0.39805 0.0
H1299 H 0.36033 0.30369 0.35972 0.0
H1300 H 0.37784 0.26511 0.4574 0.0
H1301 H 0.3808 0.36113 0.45755 0.0
H1302 H 0.35654 0.33307 0.43908 0.0
H1303 H 0.38938 0.35224 0.42639 0.0
C1304 C 0.31721 0.26202 0.40628 0.0
C1305 C 0.32601 0.27452 0.38134 0.0
C1306 C 0.33425 0.2697 0.42823 0.0
C1307 C 0.36039 0.29006 0.42572 0.0
C1308 C 0.36969 0.30137 0.40053 0.0
H1309 H 0.48735 0.35178 0.54318 0.0
H1310 H 0.45876 0.32922 0.50509 0.0
C1311 C 0.35272 0.29371 0.37858 0.0
C1312 C 0.3773 0.30087 0.44977 0.0
H1313 H 0.40818 0.35603 0.48845 0.0
C1314 C 0.38453 0.28499 0.46421 0.0
C1315 C 0.38568 0.32669 0.45884 0.0
C1316 C 0.37758 0.34427 0.44486 0.0
C1317 C 0.40025 0.29442 0.48729 0.0
C1318 C 0.40906 0.32043 0.49601 0.0
C1319 C 0.40156 0.33615 0.48168 0.0
C1320 C 0.42568 0.33181 0.52019 0.0
C1321 C 0.40688 0.27633 0.50246 0.0
C1322 C 0.41665 0.34079 0.54138 0.0
C1323 C 0.43294 0.35378 0.56313 0.0
C1324 C 0.4588 0.3583 0.56415 0.0
C1325 C 0.46757 0.34862 0.54319 0.0
C1326 C 0.45119 0.33557 0.52141 0.0
H1327 H 0.39376 0.25542 0.49691 0.0
H1328 H 0.42737 0.28156 0.49782 0.0
H1329 H 0.40544 0.27848 0.52433 0.0
H1330 H 0.39707 0.33817 0.54086 0.0
H1331 H 0.4254 0.36084 0.57883 0.0
H1332 H 0.75572 0.20589 0.54021 0.0
H1333 H 0.77813 0.2002 0.50171 0.0
H1334 H 0.7659 0.12717 0.53463 0.0
H1335 H 0.74351 0.13253 0.57307 0.0
H1336 H 0.82332 0.1912 0.49826 0.0
H1337 H 0.73 0.10841 0.45944 0.0
H1338 H 0.73085 0.13115 0.48419 0.0
H1339 H 0.73712 0.10533 0.49371 0.0
C1340 C 0.75799 0.18872 0.53943 0.0
C1341 C 0.74751 0.16955 0.55974 0.0
C1342 C 0.77085 0.18554 0.5174 0.0
C1343 C 0.77336 0.16309 0.51514 0.0
C1344 C 0.76387 0.14447 0.5358 0.0
H1345 H 0.86009 0.11885 0.40783 0.0
H1346 H 0.84635 0.1359 0.4452 0.0
C1347 C 0.75111 0.14764 0.55784 0.0
C1348 C 0.78475 0.15839 0.49069 0.0
H1349 H 0.76911 0.11647 0.43782 0.0
C1350 C 0.81149 0.17496 0.48494 0.0
C1351 C 0.7692 0.1374 0.47315 0.0
C1352 C 0.74014 0.11963 0.4777 0.0
C1353 C 0.82323 0.17062 0.46247 0.0
C1354 C 0.80784 0.14906 0.44544 0.0
C1355 C 0.78096 0.13294 0.4509 0.0
C1356 C 0.81903 0.14235 0.42207 0.0
C1357 C 0.85193 0.18925 0.45701 0.0
C1358 C 0.80851 0.14055 0.39648 0.0
C1359 C 0.81625 0.13071 0.37504 0.0
C1360 C 0.83458 0.12221 0.37872 0.0
C1361 C 0.84604 0.12527 0.40413 0.0
C1362 C 0.83826 0.13513 0.42558 0.0
H1363 H 0.85905 0.20837 0.46731 0.0
H1364 H 0.86355 0.18042 0.46447 0.0
H1365 H 0.85566 0.19289 0.43527 0.0
H1366 H 0.79363 0.14597 0.39327 0.0
H1367 H 0.80699 0.12874 0.35583 0.0
H1368 H 0.82213 0.01797 0.20816 0.0
H1369 H 0.79427 0.99602 0.16937 0.0
H1370 H 0.73323 0.00759 0.20249 0.0
H1371 H 0.76074 0.02953 0.24121 0.0
H1372 H 0.74025 0.95094 0.16483 0.0
H1373 H 0.75109 0.0451 0.1282 0.0
H1374 H 0.77266 0.04374 0.15299 0.0
H1375 H 0.74045 0.03719 0.16228 0.0
C1376 C 0.80267 0.0156 0.20739 0.0
C1377 C 0.79387 0.02583 0.2278 0.0
C1378 C 0.78677 0.00302 0.18518 0.0
C1379 C 0.76185 0.00053 0.18287 0.0
C1380 C 0.75255 0.00964 0.2037 0.0
H1381 H 0.63147 0.91562 0.07474 0.0
H1382 H 0.66225 0.92884 0.11204 0.0
C1383 C 0.76834 0.02213 0.22589 0.0
C1384 C 0.746 0.98966 0.15819 0.0
H1385 H 0.72004 0.00637 0.10588 0.0
C1386 C 0.73591 0.96304 0.15183 0.0
C1387 C 0.74068 0.00557 0.14107 0.0
C1388 C 0.75194 0.03455 0.14625 0.0
C1389 C 0.71998 0.95175 0.12916 0.0
C1390 C 0.71388 0.96749 0.11258 0.0
C1391 C 0.7246 0.99426 0.11863 0.0
C1392 C 0.696 0.95672 0.08916 0.0
C1393 C 0.70998 0.92317 0.12305 0.0
C1394 C 0.70469 0.96776 0.06373 0.0
C1395 C 0.6871 0.96031 0.04232 0.0
C1396 C 0.6603 0.94178 0.04589 0.0
C1397 C 0.65192 0.92986 0.07113 0.0
C1398 C 0.66956 0.93733 0.09254 0.0
H1399 H 0.72204 0.91592 0.13298 0.0
H1400 H 0.68954 0.9113 0.13048 0.0
H1401 H 0.7099 0.91989 0.10121 0.0
H1402 H 0.72498 0.98279 0.06064 0.0
H1403 H 0.69436 0.96994 0.02325 0.0
H1404 H 0.1949 0.78645 0.0749 0.0
H1405 H 0.18139 0.80308 0.11293 0.0
H1406 H 0.12695 0.81196 0.06263 0.0
H1407 H 0.14025 0.79547 0.02445 0.0
H1408 H 0.17624 0.85213 0.1208 0.0
H1409 H 0.083 0.75606 0.12336 0.0
H1410 H 0.11201 0.76041 0.10643 0.0
H1411 H 0.09241 0.77259 0.09161 0.0
C1412 C 0.18046 0.79246 0.0717 0.0
C1413 C 0.1685 0.78929 0.04654 0.0
C1414 C 0.17278 0.80198 0.09352 0.0
C1415 C 0.15295 0.80843 0.09065 0.0
C1416 C 0.14215 0.80689 0.06529 0.0
H1417 H 0.08653 0.8709 0.20583 0.0
H1418 H 0.10966 0.86538 0.16798 0.0
C1419 C 0.14988 0.7975 0.04345 0.0
C1420 C 0.14182 0.81436 0.11451 0.0
H1421 H 0.08717 0.78827 0.15403 0.0
C1422 C 0.15677 0.83824 0.1281 0.0
C1423 C 0.11654 0.79604 0.12416 0.0
C1424 C 0.10001 0.76972 0.11084 0.0
C1425 C 0.14691 0.84439 0.15094 0.0
C1426 C 0.12142 0.82622 0.1603 0.0
C1427 C 0.10665 0.80225 0.14681 0.0
C1428 C 0.10962 0.83126 0.18428 0.0
C1429 C 0.164 0.87003 0.16517 0.0
C1430 C 0.10183 0.81393 0.20607 0.0
C1431 C 0.08851 0.81693 0.22768 0.0
C1432 C 0.08245 0.83728 0.22798 0.0
C1433 C 0.09091 0.85507 0.20641 0.0
C1434 C 0.10428 0.85202 0.18475 0.0
H1435 H 0.18497 0.87882 0.1594 0.0
H1436 H 0.15747 0.88419 0.15985 0.0
H1437 H 0.16231 0.86725 0.18716 0.0
H1438 H 0.10568 0.79773 0.20614 0.0
H1439 H 0.08243 0.80287 0.24388 0.0
H1440 H 0.32246 0.47883 0.07624 0.0
H1441 H 0.30602 0.44873 0.11435 0.0
H1442 H 0.29763 0.38541 0.06425 0.0
H1443 H 0.31406 0.41521 0.02603 0.0
H1444 H 0.25838 0.39659 0.12366 0.0
H1445 H 0.3521 0.39502 0.12365 0.0
H1446 H 0.34822 0.41959 0.10589 0.0
H1447 H 0.33475 0.38706 0.0924 0.0
C1448 C 0.31665 0.4584 0.07312 0.0
C1449 C 0.31995 0.44961 0.04801 0.0
C1450 C 0.30724 0.44121 0.09498 0.0
C1451 C 0.30102 0.41496 0.09222 0.0
C1452 C 0.30265 0.4057 0.06688 0.0
H1453 H 0.23733 0.2867 0.2084 0.0
H1454 H 0.24297 0.31543 0.17052 0.0
C1455 C 0.31199 0.42281 0.04501 0.0
C1456 C 0.29501 0.39789 0.11613 0.0
H1457 H 0.31984 0.36745 0.15465 0.0
C1458 C 0.27175 0.39015 0.13046 0.0
C1459 C 0.31268 0.38983 0.12515 0.0
C1460 C 0.33846 0.39841 0.11117 0.0
C1461 C 0.26554 0.37423 0.1534 0.0
C1462 C 0.28302 0.3658 0.1621 0.0
C1463 C 0.30639 0.37381 0.14789 0.0
C1464 C 0.27791 0.34905 0.18617 0.0
C1465 C 0.24062 0.36695 0.16844 0.0
C1466 C 0.29562 0.35837 0.20761 0.0
C1467 C 0.29252 0.34202 0.22926 0.0
C1468 C 0.27171 0.31581 0.22991 0.0
C1469 C 0.25354 0.30674 0.20869 0.0
C1470 C 0.25666 0.32319 0.18702 0.0
H1471 H 0.23235 0.37962 0.16277 0.0
H1472 H 0.22574 0.34627 0.16386 0.0
H1473 H 0.24415 0.36852 0.19032 0.0
H1474 H 0.3122 0.37822 0.20736 0.0
H1475 H 0.3069 0.34979 0.24516 0.0
H1476 H 0.07036 0.48122 0.32398 0.0
H1477 H 0.04052 0.46814 0.28587 0.0
H1478 H 0.10357 0.52384 0.23597 0.0
H1479 H 0.13371 0.53722 0.27398 0.0
H1480 H 0.05168 0.5195 0.22708 0.0
H1481 H 0.04944 0.4238 0.22561 0.0
H1482 H 0.04155 0.43287 0.25707 0.0
H1483 H 0.07408 0.45199 0.24364 0.0
C1484 C 0.0779 0.49111 0.30507 0.0
C1485 C 0.10464 0.51012 0.30211 0.0
C1486 C 0.06076 0.48349 0.28325 0.0
C1487 C 0.06991 0.4947 0.25798 0.0
C1488 C 0.09611 0.51485 0.25527 0.0
H1489 H 0.00494 0.42586 0.10433 0.0
H1490 H 0.03312 0.44831 0.14245 0.0
C1491 C 0.11333 0.52247 0.27709 0.0
C1492 C 0.05275 0.48392 0.23407 0.0
H1493 H 0.02199 0.42904 0.19496 0.0
C1494 C 0.04512 0.49972 0.22005 0.0
C1495 C 0.0445 0.45822 0.22473 0.0
C1496 C 0.05292 0.44072 0.23834 0.0
C1497 C 0.02917 0.49032 0.19711 0.0
C1498 C 0.02059 0.46445 0.18806 0.0
C1499 C 0.02845 0.44881 0.20198 0.0
C1500 C 0.00394 0.45321 0.16384 0.0
C1501 C 0.02204 0.50827 0.18241 0.0
C1502 C 0.97815 0.44871 0.16297 0.0
C1503 C 0.96182 0.43575 0.1411 0.0
C1504 C 0.97095 0.42693 0.11969 0.0
C1505 C -0.0029 0.43225 0.12037 0.0
C1506 C 0.01332 0.44511 0.14221 0.0
H1507 H 0.03469 0.52914 0.1884 0.0
H1508 H 0.02373 0.50665 0.16049 0.0
H1509 H 0.00136 0.50241 0.18696 0.0
H1510 H 0.97033 0.45441 0.1796 0.0
H1511 H 0.94182 0.43196 0.14138 0.0
H1512 H 0.56036 0.65154 0.28306 0.0
H1513 H 0.57071 0.63211 0.24501 0.0
H1514 H 0.64638 0.65525 0.27958 0.0
H1515 H 0.6357 0.67336 0.31799 0.0
H1516 H 0.60536 0.65431 0.20882 0.0
H1517 H 0.62808 0.58399 0.25717 0.0
H1518 H 0.61272 0.59932 0.27512 0.0
H1519 H 0.64799 0.61577 0.27173 0.0
C1520 C 0.57895 0.6519 0.28284 0.0
C1521 C 0.59708 0.66386 0.30376 0.0
C1522 C 0.5849 0.64085 0.261 0.0
C1523 C 0.60921 0.64171 0.25945 0.0
C1524 C 0.62714 0.65338 0.28053 0.0
H1525 H 0.69753 0.65709 0.11828 0.0
H1526 H 0.67349 0.66117 0.15571 0.0
C1527 C 0.62103 0.66396 0.30253 0.0
C1528 C 0.61691 0.63269 0.23492 0.0
H1529 H 0.64835 0.6003 0.21383 0.0
C1530 C 0.61433 0.6421 0.20995 0.0
C1531 C 0.62809 0.61621 0.23596 0.0
C1532 C 0.62907 0.60302 0.26144 0.0
C1533 C 0.62383 0.63674 0.18642 0.0
C1534 C 0.63732 0.62244 0.18789 0.0
C1535 C 0.63857 0.61176 0.2126 0.0
C1536 C 0.65138 0.6195 0.16446 0.0
C1537 C 0.61913 0.64644 0.16025 0.0
C1538 C 0.64791 0.59481 0.15727 0.0
C1539 C 0.66225 0.59248 0.1361 0.0
C1540 C 0.68023 0.61478 0.12152 0.0
C1541 C 0.68354 0.6394 0.1287 0.0
C1542 C 0.66959 0.64176 0.15008 0.0
H1543 H 0.6008 0.64749 0.16098 0.0
H1544 H 0.63558 0.6666 0.15632 0.0
H1545 H 0.61767 0.63354 0.14337 0.0
H1546 H 0.63417 0.57732 0.16812 0.0
H1547 H 0.65926 0.57323 0.13117 0.0
H1548 H 0.44742 0.11316 0.11807 0.0
H1549 H 0.44295 0.08528 0.15606 0.0
H1550 H 0.52722 0.12524 0.1644 0.0
H1551 H 0.53174 0.15422 0.1271 0.0
H1552 H 0.45687 0.05091 0.16544 0.0
H1553 H 0.50844 0.13125 0.23897 0.0
H1554 H 0.50026 0.13704 0.20596 0.0
H1555 H 0.52867 0.13358 0.21115 0.0
C1556 C 0.46505 0.11605 0.12795 0.0
C1557 C 0.48995 0.13609 0.11963 0.0
C1558 C 0.46247 0.10004 0.14974 0.0
C1559 C 0.4847 0.10338 0.16362 0.0
C1560 C 0.50968 0.12274 0.1547 0.0
H1561 H 0.45548 0.97856 0.2806 0.0
H1562 H 0.47315 0.00804 0.24203 0.0
C1563 C 0.51227 0.13918 0.13319 0.0
C1564 C 0.48134 0.08649 0.18731 0.0
H1565 H 0.49511 0.08827 0.25387 0.0
C1566 C 0.46528 0.05911 0.18477 0.0
C1567 C 0.4921 0.0971 0.21269 0.0
C1568 C 0.50811 0.12635 0.21749 0.0
C1569 C 0.45906 0.04219 0.20683 0.0
C1570 C 0.47013 0.05275 0.23213 0.0
C1571 C 0.48679 0.08007 0.23451 0.0
C1572 C 0.46272 0.03625 0.25681 0.0
C1573 C 0.43956 0.01335 0.20294 0.0
C1574 C 0.45265 0.04307 0.27889 0.0
C1575 C 0.4433 0.02669 0.30126 0.0
C1576 C 0.44347 0.00283 0.30208 0.0
C1577 C 0.45478 0.99663 0.28055 0.0
C1578 C 0.46463 0.01335 0.25832 0.0
H1579 H 0.42779 0.00978 0.18446 0.0
H1580 H 0.45028 0.00237 0.20111 0.0
H1581 H 0.42586 0.00525 0.22012 0.0
H1582 H 0.45105 0.06064 0.27844 0.0
H1583 H 0.43473 0.03219 0.31737 0.0
H1584 H 0.64902 0.08255 0.69184 0.0
H1585 H 0.63194 0.0531 0.73024 0.0
H1586 H 0.6404 0.11714 0.77927 0.0
H1587 H 0.65737 0.1468 0.74095 0.0
H1588 H 0.66146 0.06064 0.77617 0.0
H1589 H 0.56756 0.0566 0.80088 0.0
H1590 H 0.58344 0.06758 0.76881 0.0
H1591 H 0.59513 0.08923 0.79712 0.0
C1592 C 0.64675 0.09035 0.7106 0.0
C1593 C 0.65475 0.1172 0.7132 0.0
C1594 C 0.637 0.07343 0.73259 0.0
C1595 C 0.63477 0.08284 0.75764 0.0
C1596 C 0.64155 0.1093 0.76007 0.0
H1597 H 0.64076 0.019 0.91188 0.0
H1598 H 0.64687 0.04714 0.87345 0.0
C1599 C 0.65136 0.12629 0.73808 0.0
C1600 C 0.62794 0.06567 0.78162 0.0
H1601 H 0.58421 0.03883 0.83317 0.0
C1602 C 0.64449 0.05579 0.78854 0.0
C1603 C 0.60574 0.05923 0.79771 0.0
C1604 C 0.58677 0.06849 0.7907 0.0
C1605 C 0.63972 0.04004 0.81128 0.0
C1606 C 0.61794 0.03417 0.82777 0.0
C1607 C 0.60105 0.04359 0.82064 0.0
C1608 C 0.61249 0.01804 0.85233 0.0
C1609 C 0.65793 0.02958 0.81739 0.0
C1610 C 0.59059 0.99262 0.85364 0.0
C1611 C 0.587 0.97638 0.87563 0.0
C1612 C 0.60518 0.98532 0.89683 0.0
C1613 C 0.6264 0.01132 0.89595 0.0
C1614 C 0.63001 0.02746 0.87393 0.0
H1615 H 0.67029 0.03119 0.79992 0.0
H1616 H 0.67114 0.04106 0.83405 0.0
H1617 H 0.64663 0.00867 0.82369 0.0
H1618 H 0.57679 0.98501 0.83721 0.0
H1619 H 0.57037 0.95656 0.8756 0.0
H1620 H 0.15408 0.68678 0.87447 0.0
H1621 H 0.12578 0.6648 0.83601 0.0
H1622 H 0.06528 0.67675 0.86997 0.0
H1623 H 0.0933 0.69879 0.9084 0.0
H1624 H 0.07267 0.61994 0.83204 0.0
H1625 H 0.08085 0.71302 0.79559 0.0
H1626 H 0.10286 0.71232 0.82027 0.0
H1627 H 0.07043 0.705 0.82972 0.0
C1628 C 0.13468 0.68456 0.87393 0.0
C1629 C 0.12616 0.69487 0.89452 0.0
C1630 C 0.11851 0.67194 0.85191 0.0
C1631 C 0.09359 0.66949 0.84994 0.0
C1632 C 0.08461 0.67878 0.87089 0.0
H1633 H 0.96373 0.58196 0.74105 0.0
H1634 H 0.9941 0.59581 0.77878 0.0
C1635 C 0.10068 0.69133 0.89292 0.0
C1636 C 0.07738 0.65826 0.82551 0.0
H1637 H 0.0504 0.67399 0.77336 0.0
C1638 C 0.06785 0.63173 0.81913 0.0
C1639 C 0.07142 0.67378 0.80848 0.0
C1640 C 0.08208 0.70267 0.81363 0.0
C1641 C 0.05197 0.62017 0.79649 0.0
C1642 C 0.04533 0.63551 0.77994 0.0
C1643 C 0.05537 0.66217 0.78608 0.0
C1644 C 0.02775 0.62448 0.75633 0.0
C1645 C 0.04268 0.59173 0.79031 0.0
C1646 C 0.03653 0.63574 0.731 0.0
C1647 C 0.01919 0.62793 0.70936 0.0
C1648 C 0.99253 0.60879 0.71257 0.0
C1649 C 0.98409 0.59665 0.73771 0.0
C1650 C 0.00149 0.6045 0.75937 0.0
H1651 H 0.05501 0.58487 0.80036 0.0
H1652 H 0.02222 0.57943 0.79754 0.0
H1653 H 0.04288 0.58859 0.76847 0.0
H1654 H 0.05669 0.6512 0.72816 0.0
H1655 H 0.0265 0.63774 0.69037 0.0
H1656 H 0.52746 0.45152 0.74366 0.0
H1657 H 0.51407 0.46815 0.78176 0.0
H1658 H 0.45929 0.47678 0.73173 0.0
H1659 H 0.47238 0.46014 0.69353 0.0
H1660 H 0.51006 0.51581 0.79125 0.0
H1661 H 0.41412 0.42256 0.79106 0.0
H1662 H 0.44239 0.42624 0.77316 0.0
H1663 H 0.42358 0.44004 0.75986 0.0
C1664 C 0.51293 0.45743 0.74055 0.0
C1665 C 0.50079 0.45411 0.71547 0.0
C1666 C 0.50531 0.46695 0.76241 0.0
C1667 C 0.48537 0.47327 0.75967 0.0
C1668 C 0.47446 0.47166 0.73436 0.0
H1669 H 0.42213 0.53806 0.8757 0.0
H1670 H 0.44503 0.53207 0.83793 0.0
C1671 C 0.48208 0.46221 0.71249 0.0
C1672 C 0.47444 0.47938 0.7836 0.0
H1673 H 0.41916 0.45495 0.82206 0.0
C1674 C 0.49019 0.50257 0.798 0.0
C1675 C 0.44863 0.46187 0.79259 0.0
C1676 C 0.43118 0.43616 0.77856 0.0
C1677 C 0.48061 0.50887 0.82096 0.0
C1678 C 0.45461 0.49157 0.82961 0.0
C1679 C 0.43904 0.46827 0.81534 0.0
C1680 C 0.44308 0.49684 0.85364 0.0
C1681 C 0.49849 0.5337 0.83607 0.0
C1682 C 0.43438 0.47908 0.87508 0.0
C1683 C 0.42124 0.48239 0.89668 0.0
C1684 C 0.41624 0.50345 0.89726 0.0
C1685 C 0.42564 0.52165 0.87604 0.0
C1686 C 0.43887 0.51834 0.85444 0.0
H1687 H 0.51941 0.54174 0.83047 0.0
H1688 H 0.49301 0.5488 0.83145 0.0
H1689 H 0.4964 0.53012 0.85794 0.0
H1690 H 0.43734 0.46231 0.87487 0.0
H1691 H 0.41438 0.46797 0.91258 0.0
H1692 H 0.13271 0.29741 0.79032 0.0
H1693 H 0.16907 0.32503 0.81993 0.0
H1694 H 0.17373 0.39442 0.78528 0.0
H1695 H 0.13703 0.36696 0.75562 0.0
H1696 H 0.22069 0.36558 0.8072 0.0
H1697 H 0.16512 0.40168 0.86637 0.0
H1698 H 0.14921 0.37355 0.84452 0.0
H1699 H 0.16518 0.4062 0.83087 0.0
C1700 C 0.14143 0.31855 0.78887 0.0
C1701 C 0.13175 0.32996 0.77073 0.0
C1702 C 0.16224 0.33427 0.8058 0.0
C1703 C 0.17369 0.36165 0.80502 0.0
C1704 C 0.16474 0.37324 0.78644 0.0
H1705 H 0.29804 0.48831 0.89334 0.0
H1706 H 0.26157 0.4606 0.8639 0.0
C1707 C 0.14389 0.35752 0.76942 0.0
C1708 C 0.19491 0.37796 0.82388 0.0
H1709 H 0.21024 0.42005 0.87642 0.0
C1710 C 0.21846 0.37747 0.82239 0.0
C1711 C 0.19173 0.39329 0.84365 0.0
C1712 C 0.16639 0.39364 0.84671 0.0
C1713 C 0.23922 0.39236 0.83996 0.0
C1714 C 0.23603 0.40768 0.85975 0.0
C1715 C 0.21248 0.40816 0.86124 0.0
C1716 C 0.25728 0.42404 0.87857 0.0
C1717 C 0.26456 0.39203 0.83685 0.0
C1718 C 0.26646 0.41252 0.89698 0.0
C1719 C 0.28739 0.42829 0.91389 0.0
C1720 C 0.29937 0.45584 0.91266 0.0
C1721 C 0.28944 0.46719 0.89473 0.0
C1722 C 0.26856 0.45141 0.87789 0.0
H1723 H 0.26586 0.38409 0.81714 0.0
H1724 H 0.28175 0.4121 0.83914 0.0
H1725 H 0.26574 0.37937 0.8526 0.0
H1726 H 0.25759 0.39135 0.89808 0.0
H1727 H 0.29443 0.4189 0.92754 0.0
H1728 H 0.74194 0.84397 0.7549 0.0
H1729 H 0.7152 0.85456 0.78404 0.0
H1730 H 0.78524 0.91568 0.82148 0.0
H1731 H 0.81222 0.90552 0.79239 0.0
H1732 H 0.71572 0.85286 0.84109 0.0
H1733 H 0.74265 0.952 0.80272 0.0
H1734 H 0.74825 0.92907 0.78386 0.0
H1735 H 0.76988 0.94746 0.81075 0.0
C1736 C 0.75172 0.85987 0.7691 0.0
C1737 C 0.77925 0.87387 0.7713 0.0
C1738 C 0.73639 0.86584 0.78575 0.0
C1739 C 0.74832 0.88603 0.80466 0.0
C1740 C 0.77573 0.9003 0.80668 0.0
H1741 H 0.68877 0.94677 0.92728 0.0
H1742 H 0.71661 0.93728 0.89856 0.0
C1743 C 0.79109 0.89434 0.79011 0.0
C1744 C 0.73205 0.89125 0.82329 0.0
H1745 H 0.71742 0.93811 0.84247 0.0
C1746 C 0.71596 0.87144 0.84136 0.0
C1747 C 0.73268 0.91559 0.82362 0.0
C1748 C 0.74911 0.93722 0.80408 0.0
C1749 C 0.70057 0.87543 0.86005 0.0
C1750 C 0.70102 0.89969 0.86024 0.0
C1751 C 0.71723 0.91956 0.84225 0.0
C1752 C 0.6842 0.9046 0.87841 0.0
C1753 C 0.68435 0.85383 0.87971 0.0
C1754 C 0.65681 0.88936 0.87647 0.0
C1755 C 0.64085 0.89464 0.89284 0.0
C1756 C 0.65199 0.91544 0.91134 0.0
C1757 C 0.67951 0.93058 0.91332 0.0
C1758 C 0.69546 0.92524 0.89691 0.0
H1759 H 0.69162 0.83974 0.88177 0.0
H1760 H 0.68442 0.86203 0.89969 0.0
H1761 H 0.66375 0.84274 0.87256 0.0
H1762 H 0.64778 0.87367 0.86193 0.0
H1763 H 0.61976 0.88264 0.89065 0.0
H1764 H 0.23435 0.80999 0.89391 0.0
H1765 H 0.24621 0.8475 0.86467 0.0
H1766 H 0.1825 0.8554 0.89675 0.0
H1767 H 0.17053 0.81805 0.92634 0.0
H1768 H 0.21315 0.84971 0.8259 0.0
H1769 H 0.2451 0.93066 0.89941 0.0
H1770 H 0.24226 0.89943 0.90766 0.0
H1771 H 0.21349 0.9027 0.90651 0.0
C1772 C 0.223 0.81985 0.89504 0.0
C1773 C 0.2014 0.81092 0.91246 0.0
C1774 C 0.22984 0.84128 0.87829 0.0
C1775 C 0.21537 0.85428 0.87878 0.0
C1776 C 0.19418 0.84586 0.89647 0.0
H1777 H 0.20469 0.9719 0.78841 0.0
H1778 H 0.19867 0.93622 0.81777 0.0
C1779 C 0.1873 0.82442 0.91327 0.0
C1780 C 0.2213 0.87553 0.85952 0.0
H1781 H 0.23729 0.93972 0.85498 0.0
C1782 C 0.2187 0.86949 0.83218 0.0
C1783 C 0.22854 0.90122 0.8679 0.0
C1784 C 0.23277 0.90903 0.89696 0.0
C1785 C 0.2223 0.88833 0.81295 0.0
C1786 C 0.22894 0.91384 0.82139 0.0
C1787 C 0.23205 0.92003 0.84868 0.0
C1788 C 0.23197 0.93427 0.80232 0.0
C1789 C 0.21814 0.88063 0.78386 0.0
C1790 C 0.25258 0.94474 0.78378 0.0
C1791 C 0.25612 0.96517 0.76687 0.0
C1792 C 0.23916 0.97552 0.76841 0.0
C1793 C 0.21819 0.96449 0.7867 0.0
C1794 C 0.2147 0.94413 0.80354 0.0
H1795 H 0.20806 0.85897 0.78117 0.0
H1796 H 0.20638 0.88819 0.77391 0.0
H1797 H 0.23746 0.8894 0.77369 0.0
H1798 H 0.26629 0.93754 0.78284 0.0
H1799 H 0.27252 0.97324 0.75311 0.0
H1800 H 0.41371 0.3398 0.66916 0.0
H1801 H 0.38171 0.29289 0.66952 0.0
H1802 H 0.43932 0.277 0.70447 0.0
H1803 H 0.47139 0.3238 0.70452 0.0
H1804 H 0.39225 0.25988 0.63908 0.0
H1805 H 0.37241 0.22614 0.74431 0.0
H1806 H 0.38631 0.26026 0.73504 0.0
H1807 H 0.40676 0.2456 0.73671 0.0
C1808 C 0.41936 0.32644 0.67773 0.0
C1809 C 0.44524 0.33553 0.68644 0.0
C1810 C 0.40104 0.29964 0.67786 0.0
C1811 C 0.40823 0.28156 0.68691 0.0
C1812 C 0.43331 0.2907 0.69773 0.0
H1813 H 0.34677 0.11524 0.67903 0.0
H1814 H 0.37562 0.16282 0.67917 0.0
C1815 C 0.45164 0.31752 0.69769 0.0
C1816 C 0.39103 0.25328 0.68154 0.0
H1817 H 0.36066 0.19297 0.71105 0.0
C1818 C 0.38506 0.24522 0.65481 0.0
C1819 C 0.38195 0.23433 0.70211 0.0
C1820 C 0.38696 0.24199 0.73118 0.0
C1821 C 0.37073 0.21853 0.64804 0.0
C1822 C 0.36203 0.19959 0.66859 0.0
C1823 C 0.36768 0.20765 0.69534 0.0
C1824 C 0.34647 0.17118 0.66309 0.0
C1825 C 0.3656 0.21078 0.61901 0.0
C1826 C 0.32098 0.16025 0.6528 0.0
C1827 C 0.30443 0.13303 0.65254 0.0
C1828 C 0.3131 0.11643 0.66293 0.0
C1829 C 0.33941 0.12746 0.6711 0.0
C1830 C 0.35591 0.15464 0.67128 0.0
H1831 H 0.37881 0.22721 0.60561 0.0
H1832 H 0.36814 0.19363 0.61489 0.0
H1833 H 0.34504 0.20512 0.61408 0.0
H1834 H 0.31329 0.17276 0.64666 0.0
H1835 H 0.28427 0.12522 0.64619 0.0
H1836 H 0.78367 0.21741 0.70186 0.0
H1837 H 0.83078 0.23366 0.70111 0.0
H1838 H 0.81724 0.16293 0.66131 0.0
H1839 H 0.77005 0.14644 0.6617 0.0
H1840 H 0.8645 0.21336 0.71731 0.0
H1841 H 0.85994 0.22371 0.60725 0.0
H1842 H 0.8333 0.21814 0.62921 0.0
H1843 H 0.83852 0.19146 0.62054 0.0
C1844 C 0.79056 0.20492 0.69361 0.0
C1845 C 0.77311 0.18087 0.68129 0.0
C1846 C 0.81751 0.21431 0.69313 0.0
C1847 C 0.82732 0.19976 0.68046 0.0
C1848 C 0.8099 0.17463 0.67061 0.0
H1849 H 0.98404 0.23387 0.64336 0.0
H1850 H 0.93667 0.21627 0.64283 0.0
C1851 C 0.78296 0.16521 0.67101 0.0
C1852 C 0.85568 0.2119 0.67545 0.0
H1853 H 0.90139 0.23543 0.62558 0.0
C1854 C 0.87262 0.2182 0.6973 0.0
C1855 C 0.86602 0.21825 0.64925 0.0
C1856 C 0.84859 0.21277 0.62517 0.0
C1857 C 0.89982 0.23046 0.69362 0.0
C1858 C 0.91016 0.23695 0.66744 0.0
C1859 C 0.89323 0.2305 0.64557 0.0
C1860 C 0.9386 0.24989 0.66261 0.0
C1861 C 0.91727 0.23602 0.71769 0.0
C1862 C 0.95522 0.27529 0.67232 0.0
C1863 C 0.98229 0.28547 0.67265 0.0
C1864 C 0.99305 0.27031 0.66327 0.0
C1865 C 0.97643 0.246 0.65093 0.0
C1866 C 0.94933 0.23584 0.65068 0.0
H1867 H 0.90597 0.22489 0.73556 0.0
H1868 H 0.93276 0.23097 0.71359 0.0
H1869 H 0.92707 0.2573 0.72246 0.0
H1870 H 0.94715 0.28657 0.6811 0.0
H1871 H -0.00544 0.30442 0.68193 0.0
H1872 H 0.86999 0.81491 0.64557 0.0
H1873 H 0.88596 0.78386 0.645 0.0
H1874 H 0.81587 0.72642 0.68563 0.0
H1875 H 0.79974 0.7574 0.68659 0.0
H1876 H 0.86214 0.73965 0.71272 0.0
H1877 H 0.86834 0.71554 0.60686 0.0
H1878 H 0.88293 0.75013 0.61317 0.0
H1879 H 0.84816 0.72897 0.6176 0.0
C1880 C 0.85749 0.79537 0.65356 0.0
C1881 C 0.83375 0.78878 0.66649 0.0
C1882 C 0.86668 0.77762 0.65318 0.0
C1883 C 0.8521 0.75294 0.66535 0.0
C1884 C 0.8274 0.74547 0.67622 0.0
H1885 H 0.88799 0.63156 0.70456 0.0
H1886 H 0.86983 0.6608 0.7052 0.0
C1887 C 0.81822 0.7632 0.67669 0.0
C1888 C 0.86417 0.73653 0.67 0.0
H1889 H 0.89221 0.70534 0.63853 0.0
C1890 C 0.86851 0.7319 0.69653 0.0
C1891 C 0.8726 0.72674 0.6488 0.0
C1892 C 0.86758 0.73037 0.62 0.0
C1893 C 0.88158 0.7181 0.70244 0.0
C1894 C 0.89025 0.70855 0.68124 0.0
C1895 C 0.88573 0.71299 0.65472 0.0
C1896 C 0.90334 0.69311 0.68587 0.0
C1897 C 0.88653 0.71434 0.73122 0.0
C1898 C 0.92857 0.70201 0.67563 0.0
C1899 C 0.93904 0.68536 0.67516 0.0
C1900 C 0.92427 0.65942 0.6847 0.0
C1901 C 0.89992 0.65139 0.69705 0.0
C1902 C 0.88946 0.66809 0.69745 0.0
H1903 H 0.88453 0.72827 0.74466 0.0
H1904 H 0.872 0.69406 0.73755 0.0
H1905 H 0.90646 0.71697 0.73375 0.0
H1906 H 0.93956 0.72136 0.6667 0.0
H1907 H 0.95793 0.69227 0.66571 0.0
H1908 H 0.96537 0.82123 0.22384 0.0
H1909 H 0.9281 0.79315 0.19536 0.0
H1910 H 0.92209 0.72429 0.23287 0.0
H1911 H 0.95928 0.75214 0.26172 0.0
H1912 H 0.92629 0.75474 0.15955 0.0
H1913 H 0.8464 0.71172 0.23516 0.0
H1914 H 0.87753 0.74104 0.2414 0.0
H1915 H 0.87495 0.7093 0.24287 0.0
C1916 C 0.95603 0.80012 0.22628 0.0
C1917 C 0.96538 0.78895 0.24508 0.0
C1918 C 0.93476 0.78414 0.20995 0.0
C1919 C 0.92233 0.75675 0.21222 0.0
C1920 C 0.93125 0.74545 0.23116 0.0
H1921 H 0.79515 0.62861 0.12686 0.0
H1922 H 0.83242 0.65589 0.15568 0.0
C1923 C 0.95256 0.76141 0.24754 0.0
C1924 C 0.90084 0.74004 0.19382 0.0
H1925 H 0.8357 0.69427 0.1914 0.0
C1926 C 0.90644 0.74156 0.16644 0.0
C1927 C 0.8751 0.72288 0.20303 0.0
C1928 C 0.86796 0.7212 0.23219 0.0
C1929 C 0.88693 0.72605 0.14792 0.0
C1930 C 0.86114 0.709 0.15711 0.0
C1931 C 0.85556 0.70741 0.18451 0.0
C1932 C 0.83954 0.6927 0.13863 0.0
C1933 C 0.89414 0.72768 0.11879 0.0
C1934 C 0.83132 0.70447 0.1195 0.0
C1935 C 0.81003 0.68897 0.10291 0.0
C1936 C 0.7965 0.66142 0.10536 0.0
C1937 C 0.80506 0.64975 0.12442 0.0
C1938 C 0.82634 0.66527 0.14094 0.0
H1939 H 0.91566 0.73648 0.11597 0.0
H1940 H 0.88404 0.70792 0.1094 0.0
H1941 H 0.88791 0.74023 0.10819 0.0
H1942 H 0.84103 0.72567 0.11778 0.0
H1943 H 0.8039 0.69861 0.08855 0.0
H1944 H 0.28977 0.21526 0.22612 0.0
H1945 H 0.31816 0.2076 0.19658 0.0
H1946 H 0.38636 0.27366 0.23119 0.0
H1947 H 0.35815 0.2815 0.26114 0.0
H1948 H 0.35383 0.2446 0.15909 0.0
H1949 H 0.40345 0.21342 0.23304 0.0
H1950 H 0.37346 0.21349 0.24051 0.0
H1951 H 0.40427 0.24378 0.24028 0.0
C1952 C 0.31082 0.22808 0.22771 0.0
C1953 C 0.32167 0.24906 0.24602 0.0
C1954 C 0.32698 0.22365 0.21076 0.0
C1955 C 0.35427 0.23997 0.21186 0.0
C1956 C 0.3653 0.26064 0.23035 0.0
H1957 H 0.47999 0.24107 0.12111 0.0
H1958 H 0.45386 0.25215 0.15038 0.0
C1959 C 0.34914 0.26511 0.24739 0.0
C1960 C 0.37099 0.23591 0.19276 0.0
H1961 H 0.41815 0.21859 0.18837 0.0
C1962 C 0.36791 0.2389 0.16543 0.0
C1963 C 0.38932 0.22859 0.20124 0.0
C1964 C 0.39278 0.2244 0.23034 0.0
C1965 C 0.38283 0.23484 0.14623 0.0
C1966 C 0.40092 0.22717 0.15468 0.0
C1967 C 0.40421 0.22447 0.18203 0.0
C1968 C 0.41647 0.22149 0.13549 0.0
C1969 C 0.37939 0.23913 0.11715 0.0
C1970 C 0.404 0.20066 0.11732 0.0
C1971 C 0.41886 0.19424 0.10045 0.0
C1972 C 0.44645 0.20844 0.10171 0.0
C1973 C 0.4588 0.22963 0.11965 0.0
C1974 C 0.44393 0.23603 0.13642 0.0
H1975 H 0.37015 0.25149 0.11461 0.0
H1976 H 0.39854 0.24865 0.10655 0.0
H1977 H 0.36646 0.21985 0.10756 0.0
H1978 H 0.38279 0.18892 0.11666 0.0
H1979 H 0.40872 0.17775 0.08698 0.0
H1980 H 0.83199 0.14804 0.25843 0.0
H1981 H 0.84186 0.18461 0.22831 0.0
H1982 H 0.90587 0.17848 0.19422 0.0
H1983 H 0.89648 0.14218 0.22432 0.0
H1984 H 0.91772 0.23062 0.20611 0.0
H1985 H 0.82587 0.17508 0.14726 0.0
H1986 H 0.82128 0.17537 0.1827 0.0
H1987 H 0.83785 0.15919 0.16942 0.0
C1988 C 0.84828 0.15455 0.24467 0.0
C1989 C 0.86328 0.142 0.24365 0.0
C1990 C 0.85376 0.17532 0.22738 0.0
C1991 C 0.87426 0.18381 0.20881 0.0
C1992 C 0.88983 0.172 0.20833 0.0
H1993 H 0.93648 0.30572 0.08645 0.0
H1994 H 0.92794 0.26859 0.1152 0.0
C1995 C 0.88438 0.15123 0.22554 0.0
C1996 C 0.87941 0.20491 0.18966 0.0
H1997 H 0.85238 0.22047 0.13756 0.0
C1998 C 0.90354 0.22843 0.19102 0.0
C1999 C 0.86083 0.20177 0.17 0.0
C2000 C 0.83508 0.17643 0.16699 0.0
C2001 C 0.90934 0.24929 0.17357 0.0
C2002 C 0.89065 0.24624 0.15407 0.0
C2003 C 0.86662 0.22263 0.15256 0.0
C2004 C 0.8952 0.26776 0.13576 0.0
C2005 C 0.93507 0.27466 0.17659 0.0
C2006 C 0.87905 0.27889 0.1373 0.0
C2007 C 0.88373 0.29994 0.12088 0.0
C2008 C 0.90464 0.31019 0.1025 0.0
C2009 C 0.92031 0.29841 0.10046 0.0
C2010 C 0.91559 0.27732 0.11696 0.0
H2011 H 0.94468 0.27571 0.19601 0.0
H2012 H 0.94861 0.27613 0.16039 0.0
H2013 H 0.93212 0.29185 0.17495 0.0
H2014 H 0.86311 0.27161 0.15161 0.0
H2015 H 0.87113 0.30837 0.1229 0.0
H2016 H 0.80623 0.9943 0.37392 0.0
H2017 H 0.77608 0.94692 0.37481 0.0
H2018 H 0.71951 0.957 0.32937 0.0
H2019 H 0.74923 0.0044 0.32856 0.0
H2020 H 0.69785 0.91648 0.36988 0.0
H2021 H 0.76893 0.90933 0.30206 0.0
H2022 H 0.78214 0.92575 0.33328 0.0
H2023 H 0.77037 0.94011 0.30926 0.0
C2024 C 0.78708 0.9866 0.36477 0.0
C2025 C 0.7804 0.00312 0.35061 0.0
C2026 C 0.76999 0.9595 0.36516 0.0
C2027 C 0.74604 0.94861 0.35147 0.0
C2028 C 0.73813 0.96515 0.33974 0.0
H2029 H 0.62351 0.79093 0.31122 0.0
H2030 H 0.65302 0.83845 0.31053 0.0
C2031 C 0.75517 0.99225 0.33934 0.0
C2032 C 0.73042 0.92005 0.34702 0.0
H2033 H 0.73157 0.86943 0.31491 0.0
C2034 C 0.70513 0.90613 0.35786 0.0
C2035 C 0.74008 0.90686 0.3311 0.0
C2036 C 0.76677 0.92124 0.31803 0.0
C2037 C 0.68932 0.87904 0.35368 0.0
C2038 C 0.69899 0.86583 0.33779 0.0
C2039 C 0.72427 0.87977 0.32691 0.0
C2040 C 0.68352 0.83724 0.3335 0.0
C2041 C 0.66265 0.86465 0.36679 0.0
C2042 C 0.69187 0.82094 0.34496 0.0
C2043 C 0.67522 0.79379 0.34522 0.0
C2044 C 0.64993 0.78258 0.33404 0.0
C2045 C 0.64274 0.79888 0.32022 0.0
C2046 C 0.65945 0.82606 0.31999 0.0
H2047 H 0.66049 0.87657 0.38274 0.0
H2048 H 0.64726 0.86008 0.35156 0.0
H2049 H 0.65911 0.8458 0.37561 0.0
H2050 H 0.71059 0.82931 0.35518 0.0
H2051 H 0.68152 0.7818 0.35574 0.0
H2052 H 0.116 0.8845 0.3694 0.0
H2053 H 0.16319 0.9011 0.36872 0.0
H2054 H 0.1501 0.8295 0.33128 0.0
H2055 H 0.10284 0.81265 0.33162 0.0
H2056 H 0.19756 0.88188 0.38585 0.0
H2057 H 0.19177 0.88881 0.27548 0.0
H2058 H 0.16526 0.88359 0.29745 0.0
H2059 H 0.17072 0.85689 0.28965 0.0
C2060 C 0.12301 0.8719 0.36173 0.0
C2061 C 0.10567 0.84748 0.35 0.0
C2062 C 0.15001 0.88149 0.36128 0.0
C2063 C 0.15995 0.86678 0.34923 0.0
C2064 C 0.14265 0.84132 0.34009 0.0
H2065 H 0.31599 0.89985 0.31128 0.0
H2066 H 0.26866 0.88255 0.31123 0.0
C2067 C 0.11567 0.8317 0.34045 0.0
C2068 C 0.18829 0.87903 0.34401 0.0
H2069 H 0.23345 0.90113 0.29363 0.0
C2070 C 0.20547 0.88612 0.36574 0.0
C2071 C 0.19835 0.88461 0.31767 0.0
C2072 C 0.18065 0.87831 0.29368 0.0
C2073 C 0.23264 0.89835 0.3618 0.0
C2074 C 0.2427 0.904 0.33547 0.0
C2075 C 0.22552 0.89684 0.31373 0.0
C2076 C 0.27108 0.91668 0.33033 0.0
C2077 C 0.25034 0.9047 0.3858 0.0
C2078 C 0.28796 0.94225 0.33948 0.0
C2079 C 0.315 0.95225 0.33954 0.0
C2080 C 0.32547 0.93676 0.33042 0.0
C2081 C 0.30859 0.91225 0.3186 0.0
C2082 C 0.28152 0.90225 0.31864 0.0
H2083 H 0.23925 0.89406 0.40395 0.0
H2084 H 0.26587 0.89962 0.38198 0.0
H2085 H 0.26009 0.9261 0.38992 0.0
H2086 H 0.28013 0.95384 0.34803 0.0
H2087 H 0.3275 0.97137 0.34841 0.0
H2088 H 0.20276 0.47961 0.31095 0.0
H2089 H 0.21845 0.44836 0.31084 0.0
H2090 H 0.14926 0.39239 0.35375 0.0
H2091 H 0.13342 0.42361 0.35431 0.0
H2092 H 0.19598 0.40587 0.37982 0.0
H2093 H 0.19967 0.37908 0.27439 0.0
H2094 H 0.21465 0.41386 0.27972 0.0
H2095 H 0.17997 0.39307 0.28513 0.0
C2096 C 0.19039 0.46036 0.3196 0.0
C2097 C 0.16702 0.4543 0.33302 0.0
C2098 C 0.1994 0.44247 0.31945 0.0
C2099 C 0.18502 0.41815 0.33236 0.0
C2100 C 0.16064 0.41115 0.34377 0.0
H2101 H 0.22256 0.29814 0.37309 0.0
H2102 H 0.20406 0.32709 0.37348 0.0
C2103 C 0.15162 0.42902 0.34399 0.0
C2104 C 0.19708 0.40175 0.33713 0.0
H2105 H 0.22462 0.37 0.30582 0.0
C2106 C 0.20202 0.39777 0.36367 0.0
C2107 C 0.20507 0.39148 0.316 0.0
C2108 C 0.19937 0.39435 0.28721 0.0
C2109 C 0.21532 0.38421 0.36964 0.0
C2110 C 0.22362 0.37425 0.34848 0.0
C2111 C 0.21844 0.37798 0.32197 0.0
C2112 C 0.23702 0.35911 0.35319 0.0
C2113 C 0.22094 0.38116 0.3984 0.0
C2114 C 0.26206 0.36796 0.34247 0.0
C2115 C 0.27273 0.35148 0.34214 0.0
C2116 C 0.25833 0.32573 0.35227 0.0
C2117 C 0.23419 0.3178 0.36507 0.0
C2118 C 0.22355 0.33433 0.36536 0.0
H2119 H 0.21906 0.39529 0.41164 0.0
H2120 H 0.20669 0.36098 0.40525 0.0
H2121 H 0.241 0.38404 0.40061 0.0
H2122 H 0.27274 0.38712 0.33309 0.0
H2123 H 0.29145 0.35832 0.33232 0.0
H2124 H 0.01361 0.45082 0.01692 0.0
H2125 H 0.04165 0.49852 0.01699 0.0
H2126 H 0.98124 0.50655 0.97685 0.0
H2127 H 0.95295 0.45885 0.97649 0.0
H2128 H 0.03585 0.54333 0.96081 0.0
H2129 H 0.01802 0.53808 0.07027 0.0
H2130 H 0.03028 0.51753 0.05799 0.0
H2131 H -0.00171 0.51113 0.04801 0.0
C2132 C 0.00648 0.46261 1.00744 0.0
C2133 C 0.98079 0.45101 0.99722 0.0
C2134 C 0.02249 0.48986 0.00765 0.0
C2135 C 0.01308 0.50584 0.99763 0.0
C2136 C 0.9886 0.49438 0.98497 0.0
H2137 H 0.08073 0.67546 0.99646 0.0
H2138 H 0.04848 0.62859 0.99624 0.0
C2139 C 0.97253 0.4671 0.9847 0.0
C2140 C 0.02775 0.53434 1.00255 0.0
H2141 H 0.0487 0.5798 0.05257 0.0
C2142 C 0.03857 0.5514 0.98079 0.0
C2143 C 0.03092 0.54457 0.0287 0.0
C2144 C 0.0186 0.52695 0.05262 0.0
C2145 C 0.05343 0.57864 0.98462 0.0
C2146 C 0.05698 0.58885 0.01084 0.0
C2147 C 0.04576 0.57178 0.03254 0.0
C2148 C 0.07385 0.61715 0.01609 0.0
C2149 C 0.06595 0.59619 0.9607 0.0
C2150 C 0.09792 0.62614 0.02912 0.0
C2151 C 0.11637 0.6529 0.02948 0.0
C2152 C 0.11096 0.67099 0.01668 0.0
C2153 C 0.0857 0.66205 1.00613 0.0
C2154 C 0.06727 0.63527 1.00584 0.0
H2155 H 0.06549 0.58488 0.94275 0.0
H2156 H 0.05516 0.60668 0.95596 0.0
H2157 H 0.08667 0.61116 0.96501 0.0
H2158 H 0.10313 0.61232 0.0374 0.0
H2159 H 0.13551 0.65909 0.03801 0.0
H2160 H 0.4366 0.48201 1.00135 0.0
H2161 H 0.4839 0.49934 1.00166 0.0
H2162 H 0.49569 0.57084 0.03828 0.0
H2163 H 0.44848 0.55372 0.03835 0.0
H2164 H 0.51561 0.54536 0.9721 0.0
H2165 H 0.54803 0.55602 0.07777 0.0
H2166 H 0.5144 0.53449 0.06773 0.0
H2167 H 0.52704 0.56926 0.07053 0.0
C2168 C 0.44913 0.50109 0.01026 0.0
C2169 C 0.43875 0.51664 0.01944 0.0
C2170 C 0.47616 0.51096 0.01034 0.0
C2171 C 0.49317 0.53636 0.01984 0.0
C2172 C 0.48281 0.55105 0.03112 0.0
H2173 H 0.66063 0.63996 0.0171 0.0
H2174 H 0.61348 0.6235 0.0161 0.0
C2175 C 0.45577 0.5412 0.0311 0.0
C2176 C 0.52157 0.54879 0.01471 0.0
H2177 H 0.58133 0.57784 0.0451 0.0
C2178 C 0.53003 0.55232 0.98803 0.0
C2179 C 0.54017 0.55807 0.03557 0.0
C2180 C 0.53202 0.55411 0.06453 0.0
C2181 C 0.55679 0.56519 0.98162 0.0
C2182 C 0.57539 0.5744 1.00248 0.0
C2183 C 0.56692 0.57091 0.02916 0.0
C2184 C 0.60379 0.58657 0.9974 0.0
C2185 C 0.56494 0.56918 0.95265 0.0
C2186 C 0.6139 0.57169 0.98602 0.0
C2187 C 0.64086 0.58106 0.98643 0.0
C2188 C 0.65801 0.60529 0.9986 0.0
C2189 C 0.64794 0.6211 0.00783 0.0
C2190 C 0.62101 0.61174 1.00733 0.0
H2191 H 0.54903 0.56763 0.93948 0.0
H2192 H 0.58276 0.58866 0.9495 0.0
H2193 H 0.56954 0.55379 0.94652 0.0
H2194 H 0.60085 0.55207 0.97856 0.0
H2195 H 0.64792 0.56836 0.97917 0.0
H2196 H 0.53622 0.14591 0.97741 0.0
H2197 H 0.55149 0.11434 0.97806 0.0
H2198 H 0.48164 0.05904 0.0205 0.0
H2199 H 0.46621 0.09059 0.02031 0.0
H2200 H 0.52777 0.07181 0.04713 0.0
H2201 H 0.53247 0.04495 0.94202 0.0
H2202 H 0.54782 0.07977 0.94719 0.0
H2203 H 0.51303 0.05936 0.95229 0.0
C2204 C 0.52363 0.12674 0.98613 0.0
C2205 C 0.50016 0.12097 0.99918 0.0
C2206 C 0.5324 0.10867 0.98641 0.0
C2207 C 0.5177 0.08443 0.99939 0.0
C2208 C 0.49327 0.07772 0.01047 0.0
H2209 H 0.55461 0.96389 0.04027 0.0
H2210 H 0.53591 0.99268 0.04076 0.0
C2211 C 0.48448 0.09579 0.01026 0.0
C2212 C 0.52945 0.0678 1.00449 0.0
H2213 H 0.55729 0.03601 0.97384 0.0
C2214 C 0.53398 0.0637 0.03114 0.0
C2215 C 0.53763 0.05748 0.98356 0.0
C2216 C 0.53228 0.06038 0.95467 0.0
C2217 C 0.54715 0.05006 0.0374 0.0
C2218 C 0.55576 0.04019 0.01645 0.0
C2219 C 0.5509 0.04396 0.98983 0.0
C2220 C 0.56924 0.02518 0.02144 0.0
C2221 C 0.55234 0.04685 0.06626 0.0
C2222 C 0.59456 0.03439 0.01133 0.0
C2223 C 0.60535 0.01801 0.01096 0.0
C2224 C 0.59079 0.99202 0.02041 0.0
C2225 C 0.56637 0.98374 0.03274 0.0
C2226 C 0.55561 0.00017 0.03308 0.0
H2227 H 0.54985 0.06061 0.07951 0.0
H2228 H 0.5383 0.02649 0.07279 0.0
H2229 H 0.57252 0.05015 0.06883 0.0
H2230 H 0.60537 0.05373 1.00236 0.0
H2231 H 0.6243 0.02514 1.00153 0.0
H2232 H 0.63091 0.15494 0.55819 0.0
H2233 H 0.59359 0.12709 0.52969 0.0
H2234 H 0.58788 0.05794 0.56615 0.0
H2235 H 0.62515 0.08557 0.59502 0.0
H2236 H 0.59236 0.08959 0.4933 0.0
H2237 H 0.51192 0.04448 0.56815 0.0
H2238 H 0.54286 0.07384 0.57493 0.0
H2239 H 0.54056 0.04221 0.57582 0.0
C2240 C 0.62162 0.13381 0.56042 0.0
C2241 C 0.63111 0.12249 0.57888 0.0
C2242 C 0.6003 0.11796 0.54409 0.0
C2243 C 0.58797 0.09056 0.54601 0.0
C2244 C 0.59696 0.07911 0.56471 0.0
H2245 H 0.46313 0.96238 0.4587 0.0
H2246 H 0.49983 0.98998 0.48803 0.0
C2247 C 0.61832 0.09495 0.5811 0.0
C2248 C 0.56667 0.07401 0.52732 0.0
H2249 H 0.50181 0.02751 0.52413 0.0
C2250 C 0.57251 0.07607 0.49997 0.0
C2251 C 0.54093 0.05642 0.53624 0.0
C2252 C 0.53352 0.05417 0.56536 0.0
C2253 C 0.55326 0.06064 0.48119 0.0
C2254 C 0.52749 0.0431 0.49009 0.0
C2255 C 0.52166 0.04102 0.51746 0.0
C2256 C 0.5062 0.02666 0.47134 0.0
C2257 C 0.56076 0.06286 0.4521 0.0
C2258 C 0.49776 0.03825 0.45223 0.0
C2259 C 0.47681 0.02257 0.43534 0.0
C2260 C 0.46382 0.99501 0.43748 0.0
C2261 C 0.47261 0.98353 0.45651 0.0
C2262 C 0.49357 -0.00077 0.47332 0.0
H2263 H 0.58234 0.07213 0.44943 0.0
H2264 H 0.55112 0.04323 0.44242 0.0
H2265 H 0.55421 0.07523 0.44166 0.0
H2266 H 0.50703 0.05944 0.45075 0.0
H2267 H 0.47047 0.03207 0.42103 0.0
H2268 H 0.02315 0.61362 0.5942 0.0
H2269 H 0.05143 0.60573 0.56437 0.0
H2270 H 0.98315 0.54336 0.52572 0.0
H2271 H 0.95471 0.55106 0.55514 0.0
H2272 H 0.05267 0.55813 0.55595 0.0
H2273 H 0.02661 0.59274 0.46392 0.0
H2274 H 0.01992 0.60015 0.49699 0.0
H2275 H -0.00101 0.56838 0.4825 0.0
C2276 C 0.01412 0.59816 0.57942 0.0
C2277 C 0.98663 0.58313 0.57694 0.0
C2278 C 0.03031 0.59373 0.5624 0.0
C2279 C 0.0193 0.57433 0.5426 0.0
C2280 C 0.99196 0.5588 0.54055 0.0
H2281 H 0.07623 0.5114 0.42119 0.0
H2282 H 0.05003 0.52234 0.4508 0.0
C2283 C 0.97576 0.56317 0.55751 0.0
C2284 C 0.03632 0.57005 0.52412 0.0
H2285 H 0.05131 0.57116 0.45815 0.0
C2286 C 0.05257 0.56115 0.53459 0.0
C2287 C 0.036 0.57402 0.49631 0.0
C2288 C 0.01963 0.58457 0.48421 0.0
C2289 C 0.0681 0.55541 0.51781 0.0
C2290 C 0.0676 0.55915 0.48996 0.0
C2291 C 0.05153 0.56829 0.47953 0.0
C2292 C 0.08353 0.55347 0.47132 0.0
C2293 C 0.08438 0.54475 0.52992 0.0
C2294 C 0.11098 0.56785 0.4727 0.0
C2295 C 0.126 0.56169 0.45589 0.0
C2296 C 0.11381 0.54108 0.43726 0.0
C2297 C 0.08626 0.52731 0.43534 0.0
C2298 C 0.07125 0.5335 0.45223 0.0
H2299 H 0.07787 0.53726 0.55051 0.0
H2300 H 0.08338 0.52862 0.51751 0.0
H2301 H 0.10519 0.56069 0.53089 0.0
H2302 H 0.12077 0.5837 0.48697 0.0
H2303 H 0.14717 0.5729 0.45776 0.0
H2304 H 0.5986 0.63517 0.42126 0.0
H2305 H 0.58903 0.59794 0.45027 0.0
H2306 H 0.52742 0.60532 0.4886 0.0
H2307 H 0.53651 0.64226 0.45965 0.0
H2308 H 0.59143 0.59992 0.5069 0.0
H2309 H 0.49217 0.52662 0.4703 0.0
H2310 H 0.51436 0.55542 0.45129 0.0
H2311 H 0.49594 0.55807 0.47853 0.0
C2312 C 0.5828 0.6287 0.43562 0.0
C2313 C 0.56835 0.64175 0.43812 0.0
C2314 C 0.57741 0.60747 0.45219 0.0
C2315 C 0.55738 0.59881 0.47131 0.0
C2316 C 0.54267 0.61148 0.47362 0.0
H2317 H 0.49861 0.4817 0.59657 0.0
H2318 H 0.50844 0.5187 0.56711 0.0
C2319 C 0.54803 0.6327 0.45713 0.0
C2320 C 0.55275 0.57747 0.48992 0.0
H2321 H 0.5063 0.51634 0.51067 0.0
C2322 C 0.5729 0.58155 0.50765 0.0
C2323 C 0.52849 0.55369 0.49085 0.0
C2324 C 0.50655 0.548 0.47159 0.0
C2325 C 0.56925 0.56256 0.52672 0.0
C2326 C 0.54496 0.5388 0.52768 0.0
C2327 C 0.52484 0.53469 0.5099 0.0
C2328 C 0.54019 0.51759 0.54655 0.0
C2329 C 0.59119 0.56827 0.546 0.0
C2330 C 0.55489 0.50488 0.54468 0.0
C2331 C 0.5494 0.48381 0.56145 0.0
C2332 C 0.52895 0.47493 0.58029 0.0
C2333 C 0.51451 0.48803 0.58234 0.0
C2334 C 0.52004 0.50913 0.56551 0.0
H2335 H 0.60562 0.58964 0.54719 0.0
H2336 H 0.58338 0.56096 0.56632 0.0
H2337 H 0.60173 0.55811 0.53914 0.0
H2338 H 0.57022 0.51088 0.52982 0.0
H2339 H 0.5609 0.47419 0.55925 0.0
loop_
_geom_bond_atom_site_label_1
_geom_bond_atom_site_label_2
_geom_bond_distance
_geom_bond_site_symmetry_2
_ccdc_geom_bond_type
Sc0 O3 2.025 . S
Sc0 O10 2.105 . S
Sc0 O13 2.105 . S
Sc0 O16 2.105 . S
Sc0 O19 2.105 . S
Sc1 O3 2.025 . S
Sc1 O11 2.105 . S
Sc1 O15 2.105 . S
Sc1 O17 2.105 . S
Sc1 O21 2.105 . S
Sc2 O3 2.025 . S
Sc2 O12 2.105 . S
Sc2 O14 2.105 . S
Sc2 O18 2.105 . S
Sc2 O20 2.105 . S
O3 Sc0 2.025 . S
O3 Sc1 2.025 . S
O3 Sc2 2.025 . S
C4 O10 1.268 . S
C4 O20 1.268 . S
C5 O11 1.268 . S
C5 O19 1.268 . S
C6 O12 1.268 . S
C6 O21 1.268 . S
C7 O13 1.268 . S
C7 O17 1.268 . S
C8 O14 1.268 . S
C8 O16 1.268 . S
C9 O15 1.268 . S
C9 O18 1.268 . S
O10 Sc0 2.105 . S
O10 C4 1.268 . S
O11 Sc1 2.105 . S
O11 C5 1.268 . S
O12 Sc2 2.105 . S
O12 C6 1.268 . S
O13 Sc0 2.105 . S
O13 C7 1.268 . S
O14 Sc2 2.105 . S
O14 C8 1.268 . S
O15 Sc1 2.105 . S
O15 C9 1.268 . S
O16 Sc0 2.105 . S
O16 C8 1.268 . S
O17 Sc1 2.105 . S
O17 C7 1.268 . S
O18 Sc2 2.105 . S
O18 C9 1.268 . S
O19 Sc0 2.105 . S
O19 C5 1.268 . S
O20 Sc2 2.105 . S
O20 C4 1.268 . S
O21 Sc1 2.105 . S
O21 C6 1.268 . S
Sc22 O25 2.025 . S
Sc22 O32 2.105 . S
Sc22 O35 2.105 . S
Sc22 O38 2.105 . S
Sc22 O41 2.105 . S
Sc23 O25 2.025 . S
Sc23 O33 2.105 . S
Sc23 O37 2.105 . S
Sc23 O39 2.105 . S
Sc23 O43 2.105 . S
Sc24 O25 2.025 . S
Sc24 O34 2.105 . S
Sc24 O36 2.105 . S
Sc24 O40 2.105 . S
Sc24 O42 2.105 . S
O25 Sc22 2.025 . S
O25 Sc23 2.025 . S
O25 Sc24 2.025 . S
C26 O32 1.268 . S
C26 O42 1.268 . S
C27 O33 1.268 . S
C27 O41 1.268 . S
C28 O34 1.268 . S
C28 O43 1.268 . S
C29 O35 1.268 . S
C29 O39 1.268 . S
C30 O36 1.268 . S
C30 O38 1.268 . S
C31 O37 1.268 . S
C31 O40 1.268 . S
O32 Sc22 2.105 . S
O32 C26 1.268 . S
O33 Sc23 2.105 . S
O33 C27 1.268 . S
O34 Sc24 2.105 . S
O34 C28 1.268 . S
O35 Sc22 2.105 . S
O35 C29 1.268 . S
O36 Sc24 2.105 . S
O36 C30 1.268 . S
O37 Sc23 2.105 . S
O37 C31 1.268 . S
O38 Sc22 2.105 . S
O38 C30 1.268 . S
O39 Sc23 2.105 . S
O39 C29 1.268 . S
O40 Sc24 2.105 . S
O40 C31 1.268 . S
O41 Sc22 2.105 . S
O41 C27 1.268 . S
O42 Sc24 2.105 . S
O42 C26 1.268 . S
O43 Sc23 2.105 . S
O43 C28 1.268 . S
Sc44 O47 2.025 . S
Sc44 O54 2.105 . S
Sc44 O57 2.105 . S
Sc44 O60 2.105 . S
Sc44 O63 2.105 . S
Sc45 O47 2.025 . S
Sc45 O55 2.105 . S
Sc45 O59 2.105 . S
Sc45 O61 2.105 . S
Sc45 O65 2.105 . S
Sc46 O47 2.025 . S
Sc46 O56 2.105 . S
Sc46 O58 2.105 . S
Sc46 O62 2.105 . S
Sc46 O64 2.105 . S
O47 Sc44 2.025 . S
O47 Sc45 2.025 . S
O47 Sc46 2.025 . S
C48 O54 1.268 . S
C48 O64 1.268 . S
C49 O55 1.268 . S
C49 O63 1.268 . S
C50 O56 1.268 . S
C50 O65 1.268 . S
C51 O57 1.268 . S
C51 O61 1.268 . S
C52 O58 1.268 . S
C52 O60 1.268 . S
C53 O59 1.268 . S
C53 O62 1.268 . S
O54 Sc44 2.105 . S
O54 C48 1.268 . S
O55 Sc45 2.105 . S
O55 C49 1.268 . S
O56 Sc46 2.105 . S
O56 C50 1.268 . S
O57 Sc44 2.105 . S
O57 C51 1.268 . S
O58 Sc46 2.105 . S
O58 C52 1.268 . S
O59 Sc45 2.105 . S
O59 C53 1.268 . S
O60 Sc44 2.105 . S
O60 C52 1.268 . S
O61 Sc45 2.105 . S
O61 C51 1.268 . S
O62 Sc46 2.105 . S
O62 C53 1.268 . S
O63 Sc44 2.105 . S
O63 C49 1.268 . S
O64 Sc46 2.105 . S
O64 C48 1.268 . S
O65 Sc45 2.105 . S
O65 C50 1.268 . S
Sc66 O69 2.025 . S
Sc66 O76 2.105 . S
Sc66 O79 2.105 . S
Sc66 O82 2.105 . S
Sc66 O85 2.105 . S
Sc67 O69 2.025 . S
Sc67 O77 2.105 . S
Sc67 O81 2.105 . S
Sc67 O83 2.105 . S
Sc67 O87 2.105 . S
Sc68 O69 2.025 . S
Sc68 O78 2.105 . S
Sc68 O80 2.105 . S
Sc68 O84 2.105 . S
Sc68 O86 2.105 . S
O69 Sc66 2.025 . S
O69 Sc67 2.025 . S
O69 Sc68 2.025 . S
C70 O76 1.268 . S
C70 O86 1.268 . S
C71 O77 1.268 . S
C71 O85 1.268 . S
C72 O78 1.268 . S
C72 O87 1.268 . S
C73 O79 1.268 . S
C73 O83 1.268 . S
C74 O80 1.268 . S
C74 O82 1.268 . S
C75 O81 1.268 . S
C75 O84 1.268 . S
O76 Sc66 2.105 . S
O76 C70 1.268 . S
O77 Sc67 2.105 . S
O77 C71 1.268 . S
O78 Sc68 2.105 . S
O78 C72 1.268 . S
O79 Sc66 2.105 . S
O79 C73 1.268 . S
O80 Sc68 2.105 . S
O80 C74 1.268 . S
O81 Sc67 2.105 . S
O81 C75 1.268 . S
O82 Sc66 2.105 . S
O82 C74 1.268 . S
O83 Sc67 2.105 . S
O83 C73 1.268 . S
O84 Sc68 2.105 . S
O84 C75 1.268 . S
O85 Sc66 2.105 . S
O85 C71 1.268 . S
O86 Sc68 2.105 . S
O86 C70 1.268 . S
O87 Sc67 2.105 . S
O87 C72 1.268 . S
Sc88 O91 2.025 . S
Sc88 O98 2.105 . S
Sc88 O101 2.105 . S
Sc88 O104 2.105 . S
Sc88 O107 2.105 . S
Sc89 O91 2.025 . S
Sc89 O99 2.105 . S
Sc89 O103 2.105 . S
Sc89 O105 2.105 . S
Sc89 O109 2.105 . S
Sc90 O91 2.025 . S
Sc90 O100 2.105 . S
Sc90 O102 2.105 . S
Sc90 O106 2.105 . S
Sc90 O108 2.105 . S
O91 Sc88 2.025 . S
O91 Sc89 2.025 . S
O91 Sc90 2.025 . S
C92 O98 1.268 . S
C92 O108 1.268 . S
C93 O99 1.268 . S
C93 O107 1.268 . S
C94 O100 1.268 . S
C94 O109 1.268 . S
C95 O101 1.268 . S
C95 O105 1.268 . S
C96 O102 1.268 . S
C96 O104 1.268 . S
C97 O103 1.268 . S
C97 O106 1.268 . S
O98 Sc88 2.105 . S
O98 C92 1.268 . S
O99 Sc89 2.105 . S
O99 C93 1.268 . S
O100 Sc90 2.105 . S
O100 C94 1.268 . S
O101 Sc88 2.105 . S
O101 C95 1.268 . S
O102 Sc90 2.105 . S
O102 C96 1.268 . S
O103 Sc89 2.105 . S
O103 C97 1.268 . S
O104 Sc88 2.105 . S
O104 C96 1.268 . S
O105 Sc89 2.105 . S
O105 C95 1.268 . S
O106 Sc90 2.105 . S
O106 C97 1.268 . S
O107 Sc88 2.105 . S
O107 C93 1.268 . S
O108 Sc90 2.105 . S
O108 C92 1.268 . S
O109 Sc89 2.105 . S
O109 C94 1.268 . S
Sc110 O113 2.025 . S
Sc110 O120 2.105 . S
Sc110 O123 2.105 . S
Sc110 O126 2.105 . S
Sc110 O129 2.105 . S
Sc111 O113 2.025 . S
Sc111 O121 2.105 . S
Sc111 O125 2.105 . S
Sc111 O127 2.105 . S
Sc111 O131 2.105 . S
Sc112 O113 2.025 . S
Sc112 O122 2.105 . S
Sc112 O124 2.105 . S
Sc112 O128 2.105 . S
Sc112 O130 2.105 . S
O113 Sc110 2.025 . S
O113 Sc111 2.025 . S
O113 Sc112 2.025 . S
C114 O120 1.268 . S
C114 O130 1.268 . S
C115 O121 1.268 . S
C115 O129 1.268 . S
C116 O122 1.268 . S
C116 O131 1.268 . S
C117 O123 1.268 . S
C117 O127 1.268 . S
C118 O124 1.268 . S
C118 O126 1.268 . S
C119 O125 1.268 . S
C119 O128 1.268 . S
O120 Sc110 2.105 . S
O120 C114 1.268 . S
O121 Sc111 2.105 . S
O121 C115 1.268 . S
O122 Sc112 2.105 . S
O122 C116 1.268 . S
O123 Sc110 2.105 . S
O123 C117 1.268 . S
O124 Sc112 2.105 . S
O124 C118 1.268 . S
O125 Sc111 2.105 . S
O125 C119 1.268 . S
O126 Sc110 2.105 . S
O126 C118 1.268 . S
O127 Sc111 2.105 . S
O127 C117 1.268 . S
O128 Sc112 2.105 . S
O128 C119 1.268 . S
O129 Sc110 2.105 . S
O129 C115 1.268 . S
O130 Sc112 2.105 . S
O130 C114 1.268 . S
O131 Sc111 2.105 . S
O131 C116 1.268 . S
Sc132 O135 2.025 . S
Sc132 O142 2.105 . S
Sc132 O145 2.105 . S
Sc132 O148 2.105 . S
Sc132 O151 2.105 . S
Sc133 O135 2.025 . S
Sc133 O143 2.105 . S
Sc133 O147 2.105 . S
Sc133 O149 2.105 . S
Sc133 O153 2.105 . S
Sc134 O135 2.025 . S
Sc134 O144 2.105 . S
Sc134 O146 2.105 . S
Sc134 O150 2.105 . S
Sc134 O152 2.105 . S
O135 Sc132 2.025 . S
O135 Sc133 2.025 . S
O135 Sc134 2.025 . S
C136 O142 1.268 . S
C136 O152 1.268 . S
C137 O143 1.268 . S
C137 O151 1.268 . S
C138 O144 1.268 . S
C138 O153 1.268 . S
C139 O145 1.268 . S
C139 O149 1.268 . S
C140 O146 1.268 . S
C140 O148 1.268 . S
C141 O147 1.268 . S
C141 O150 1.268 . S
O142 Sc132 2.105 . S
O142 C136 1.268 . S
O143 Sc133 2.105 . S
O143 C137 1.268 . S
O144 Sc134 2.105 . S
O144 C138 1.268 . S
O145 Sc132 2.105 . S
O145 C139 1.268 . S
O146 Sc134 2.105 . S
O146 C140 1.268 . S
O147 Sc133 2.105 . S
O147 C141 1.268 . S
O148 Sc132 2.105 . S
O148 C140 1.268 . S
O149 Sc133 2.105 . S
O149 C139 1.268 . S
O150 Sc134 2.105 . S
O150 C141 1.268 . S
O151 Sc132 2.105 . S
O151 C137 1.268 . S
O152 Sc134 2.105 . S
O152 C136 1.268 . S
O153 Sc133 2.105 . S
O153 C138 1.268 . S
Sc154 O157 2.025 . S
Sc154 O164 2.105 . S
Sc154 O167 2.105 . S
Sc154 O170 2.105 . S
Sc154 O173 2.105 . S
Sc155 O157 2.025 . S
Sc155 O165 2.105 . S
Sc155 O169 2.105 . S
Sc155 O171 2.105 . S
Sc155 O175 2.105 . S
Sc156 O157 2.025 . S
Sc156 O166 2.105 . S
Sc156 O168 2.105 . S
Sc156 O172 2.105 . S
Sc156 O174 2.105 . S
O157 Sc154 2.025 . S
O157 Sc155 2.025 . S
O157 Sc156 2.025 . S
C158 O164 1.268 . S
C158 O174 1.268 . S
C159 O165 1.268 . S
C159 O173 1.268 . S
C160 O166 1.268 . S
C160 O175 1.268 . S
C161 O167 1.268 . S
C161 O171 1.268 . S
C162 O168 1.268 . S
C162 O170 1.268 . S
C163 O169 1.268 . S
C163 O172 1.268 . S
O164 Sc154 2.105 . S
O164 C158 1.268 . S
O165 Sc155 2.105 . S
O165 C159 1.268 . S
O166 Sc156 2.105 . S
O166 C160 1.268 . S
O167 Sc154 2.105 . S
O167 C161 1.268 . S
O168 Sc156 2.105 . S
O168 C162 1.268 . S
O169 Sc155 2.105 . S
O169 C163 1.268 . S
O170 Sc154 2.105 . S
O170 C162 1.268 . S
O171 Sc155 2.105 . S
O171 C161 1.268 . S
O172 Sc156 2.105 . S
O172 C163 1.268 . S
O173 Sc154 2.105 . S
O173 C159 1.268 . S
O174 Sc156 2.105 . S
O174 C158 1.268 . S
O175 Sc155 2.105 . S
O175 C160 1.268 . S
Sc176 O179 2.025 . S
Sc176 O186 2.105 . S
Sc176 O189 2.105 . S
Sc176 O192 2.105 . S
Sc176 O195 2.105 . S
Sc177 O179 2.025 . S
Sc177 O187 2.105 . S
Sc177 O191 2.105 . S
Sc177 O193 2.105 . S
Sc177 O197 2.105 . S
Sc178 O179 2.025 . S
Sc178 O188 2.105 . S
Sc178 O190 2.105 . S
Sc178 O194 2.105 . S
Sc178 O196 2.105 . S
O179 Sc176 2.025 . S
O179 Sc177 2.025 . S
O179 Sc178 2.025 . S
C180 O186 1.268 . S
C180 O196 1.268 . S
C181 O187 1.268 . S
C181 O195 1.268 . S
C182 O188 1.268 . S
C182 O197 1.268 . S
C183 O189 1.268 . S
C183 O193 1.268 . S
C184 O190 1.268 . S
C184 O192 1.268 . S
C185 O191 1.268 . S
C185 O194 1.268 . S
O186 Sc176 2.105 . S
O186 C180 1.268 . S
O187 Sc177 2.105 . S
O187 C181 1.268 . S
O188 Sc178 2.105 . S
O188 C182 1.268 . S
O189 Sc176 2.105 . S
O189 C183 1.268 . S
O190 Sc178 2.105 . S
O190 C184 1.268 . S
O191 Sc177 2.105 . S
O191 C185 1.268 . S
O192 Sc176 2.105 . S
O192 C184 1.268 . S
O193 Sc177 2.105 . S
O193 C183 1.268 . S
O194 Sc178 2.105 . S
O194 C185 1.268 . S
O195 Sc176 2.105 . S
O195 C181 1.268 . S
O196 Sc178 2.105 . S
O196 C180 1.268 . S
O197 Sc177 2.105 . S
O197 C182 1.268 . S
Sc198 O201 2.025 . S
Sc198 O208 2.105 . S
Sc198 O211 2.105 . S
Sc198 O214 2.105 . S
Sc198 O217 2.105 . S
Sc199 O201 2.025 . S
Sc199 O209 2.105 . S
Sc199 O213 2.105 . S
Sc199 O215 2.105 . S
Sc199 O219 2.105 . S
Sc200 O201 2.025 . S
Sc200 O210 2.105 . S
Sc200 O212 2.105 . S
Sc200 O216 2.105 . S
Sc200 O218 2.105 . S
O201 Sc198 2.025 . S
O201 Sc199 2.025 . S
O201 Sc200 2.025 . S
C202 O208 1.268 . S
C202 O218 1.268 . S
C203 O209 1.268 . S
C203 O217 1.268 . S
C204 O210 1.268 . S
C204 O219 1.268 . S
C205 O211 1.268 . S
C205 O215 1.268 . S
C206 O212 1.268 . S
C206 O214 1.268 . S
C207 O213 1.268 . S
C207 O216 1.268 . S
O208 Sc198 2.105 . S
O208 C202 1.268 . S
O209 Sc199 2.105 . S
O209 C203 1.268 . S
O210 Sc200 2.105 . S
O210 C204 1.268 . S
O211 Sc198 2.105 . S
O211 C205 1.268 . S
O212 Sc200 2.105 . S
O212 C206 1.268 . S
O213 Sc199 2.105 . S
O213 C207 1.268 . S
O214 Sc198 2.105 . S
O214 C206 1.268 . S
O215 Sc199 2.105 . S
O215 C205 1.268 . S
O216 Sc200 2.105 . S
O216 C207 1.268 . S
O217 Sc198 2.105 . S
O217 C203 1.268 . S
O218 Sc200 2.105 . S
O218 C202 1.268 . S
O219 Sc199 2.105 . S
O219 C204 1.268 . S
Sc220 O223 2.025 . S
Sc220 O230 2.105 . S
Sc220 O233 2.105 . S
Sc220 O236 2.105 . S
Sc220 O239 2.105 . S
Sc221 O223 2.025 . S
Sc221 O231 2.105 . S
Sc221 O235 2.105 . S
Sc221 O237 2.105 . S
Sc221 O241 2.105 . S
Sc222 O223 2.025 . S
Sc222 O232 2.105 . S
Sc222 O234 2.105 . S
Sc222 O238 2.105 . S
Sc222 O240 2.105 . S
O223 Sc220 2.025 . S
O223 Sc221 2.025 . S
O223 Sc222 2.025 . S
C224 O230 1.268 . S
C224 O240 1.268 . S
C225 O231 1.268 . S
C225 O239 1.268 . S
C226 O232 1.268 . S
C226 O241 1.268 . S
C227 O233 1.268 . S
C227 O237 1.268 . S
C228 O234 1.268 . S
C228 O236 1.268 . S
C229 O235 1.268 . S
C229 O238 1.268 . S
O230 Sc220 2.105 . S
O230 C224 1.268 . S
O231 Sc221 2.105 . S
O231 C225 1.268 . S
O232 Sc222 2.105 . S
O232 C226 1.268 . S
O233 Sc220 2.105 . S
O233 C227 1.268 . S
O234 Sc222 2.105 . S
O234 C228 1.268 . S
O235 Sc221 2.105 . S
O235 C229 1.268 . S
O236 Sc220 2.105 . S
O236 C228 1.268 . S
O237 Sc221 2.105 . S
O237 C227 1.268 . S
O238 Sc222 2.105 . S
O238 C229 1.268 . S
O239 Sc220 2.105 . S
O239 C225 1.268 . S
O240 Sc222 2.105 . S
O240 C224 1.268 . S
O241 Sc221 2.105 . S
O241 C226 1.268 . S
Sc242 O245 2.025 . S
Sc242 O252 2.105 . S
Sc242 O255 2.105 . S
Sc242 O258 2.105 . S
Sc242 O261 2.105 . S
Sc243 O245 2.025 . S
Sc243 O253 2.105 . S
Sc243 O257 2.105 . S
Sc243 O259 2.105 . S
Sc243 O263 2.105 . S
Sc244 O245 2.025 . S
Sc244 O254 2.105 . S
Sc244 O256 2.105 . S
Sc244 O260 2.105 . S
Sc244 O262 2.105 . S
O245 Sc242 2.025 . S
O245 Sc243 2.025 . S
O245 Sc244 2.025 . S
C246 O252 1.268 . S
C246 O262 1.268 . S
C247 O253 1.268 . S
C247 O261 1.268 . S
C248 O254 1.268 . S
C248 O263 1.268 . S
C249 O255 1.268 . S
C249 O259 1.268 . S
C250 O256 1.268 . S
C250 O258 1.268 . S
C251 O257 1.268 . S
C251 O260 1.268 . S
O252 Sc242 2.105 . S
O252 C246 1.268 . S
O253 Sc243 2.105 . S
O253 C247 1.268 . S
O254 Sc244 2.105 . S
O254 C248 1.268 . S
O255 Sc242 2.105 . S
O255 C249 1.268 . S
O256 Sc244 2.105 . S
O256 C250 1.268 . S
O257 Sc243 2.105 . S
O257 C251 1.268 . S
O258 Sc242 2.105 . S
O258 C250 1.268 . S
O259 Sc243 2.105 . S
O259 C249 1.268 . S
O260 Sc244 2.105 . S
O260 C251 1.268 . S
O261 Sc242 2.105 . S
O261 C247 1.268 . S
O262 Sc244 2.105 . S
O262 C246 1.268 . S
O263 Sc243 2.105 . S
O263 C248 1.268 . S
Sc264 O267 2.025 . S
Sc264 O274 2.105 . S
Sc264 O277 2.105 . S
Sc264 O280 2.105 . S
Sc264 O283 2.105 . S
Sc265 O267 2.025 . S
Sc265 O275 2.105 . S
Sc265 O279 2.105 . S
Sc265 O281 2.105 . S
Sc265 O285 2.105 . S
Sc266 O267 2.025 . S
Sc266 O276 2.105 . S
Sc266 O278 2.105 . S
Sc266 O282 2.105 . S
Sc266 O284 2.105 . S
O267 Sc264 2.025 . S
O267 Sc265 2.025 . S
O267 Sc266 2.025 . S
C268 O274 1.268 . S
C268 O284 1.268 . S
C269 O275 1.268 . S
C269 O283 1.268 . S
C270 O276 1.268 . S
C270 O285 1.268 . S
C271 O277 1.268 . S
C271 O281 1.268 . S
C272 O278 1.268 . S
C272 O280 1.268 . S
C273 O279 1.268 . S
C273 O282 1.268 . S
O274 Sc264 2.105 . S
O274 C268 1.268 . S
O275 Sc265 2.105 . S
O275 C269 1.268 . S
O276 Sc266 2.105 . S
O276 C270 1.268 . S
O277 Sc264 2.105 . S
O277 C271 1.268 . S
O278 Sc266 2.105 . S
O278 C272 1.268 . S
O279 Sc265 2.105 . S
O279 C273 1.268 . S
O280 Sc264 2.105 . S
O280 C272 1.268 . S
O281 Sc265 2.105 . S
O281 C271 1.268 . S
O282 Sc266 2.105 . S
O282 C273 1.268 . S
O283 Sc264 2.105 . S
O283 C269 1.268 . S
O284 Sc266 2.105 . S
O284 C268 1.268 . S
O285 Sc265 2.105 . S
O285 C270 1.268 . S
Sc286 O289 2.025 . S
Sc286 O296 2.105 . S
Sc286 O299 2.105 . S
Sc286 O302 2.105 . S
Sc286 O305 2.105 . S
Sc287 O289 2.025 . S
Sc287 O297 2.105 . S
Sc287 O301 2.105 . S
Sc287 O303 2.105 . S
Sc287 O307 2.105 . S
Sc288 O289 2.025 . S
Sc288 O298 2.105 . S
Sc288 O300 2.105 . S
Sc288 O304 2.105 . S
Sc288 O306 2.105 . S
O289 Sc286 2.025 . S
O289 Sc287 2.025 . S
O289 Sc288 2.025 . S
C290 O296 1.268 . S
C290 O306 1.268 . S
C291 O297 1.268 . S
C291 O305 1.268 . S
C292 O298 1.268 . S
C292 O307 1.268 . S
C293 O299 1.268 . S
C293 O303 1.268 . S
C294 O300 1.268 . S
C294 O302 1.268 . S
C295 O301 1.268 . S
C295 O304 1.268 . S
O296 Sc286 2.105 . S
O296 C290 1.268 . S
O297 Sc287 2.105 . S
O297 C291 1.268 . S
O298 Sc288 2.105 . S
O298 C292 1.268 . S
O299 Sc286 2.105 . S
O299 C293 1.268 . S
O300 Sc288 2.105 . S
O300 C294 1.268 . S
O301 Sc287 2.105 . S
O301 C295 1.268 . S
O302 Sc286 2.105 . S
O302 C294 1.268 . S
O303 Sc287 2.105 . S
O303 C293 1.268 . S
O304 Sc288 2.105 . S
O304 C295 1.268 . S
O305 Sc286 2.105 . S
O305 C291 1.268 . S
O306 Sc288 2.105 . S
O306 C290 1.268 . S
O307 Sc287 2.105 . S
O307 C292 1.268 . S
Sc308 O311 2.025 . S
Sc308 O318 2.105 . S
Sc308 O321 2.105 . S
Sc308 O324 2.105 . S
Sc308 O327 2.105 . S
Sc309 O311 2.025 . S
Sc309 O319 2.105 . S
Sc309 O323 2.105 . S
Sc309 O325 2.105 . S
Sc309 O329 2.105 . S
Sc310 O311 2.025 . S
Sc310 O320 2.105 . S
Sc310 O322 2.105 . S
Sc310 O326 2.105 . S
Sc310 O328 2.105 . S
O311 Sc308 2.025 . S
O311 Sc309 2.025 . S
O311 Sc310 2.025 . S
C312 O318 1.268 . S
C312 O328 1.268 . S
C313 O319 1.268 . S
C313 O327 1.268 . S
C314 O320 1.268 . S
C314 O329 1.268 . S
C315 O321 1.268 . S
C315 O325 1.268 . S
C316 O322 1.268 . S
C316 O324 1.268 . S
C317 O323 1.268 . S
C317 O326 1.268 . S
O318 Sc308 2.105 . S
O318 C312 1.268 . S
O319 Sc309 2.105 . S
O319 C313 1.268 . S
O320 Sc310 2.105 . S
O320 C314 1.268 . S
O321 Sc308 2.105 . S
O321 C315 1.268 . S
O322 Sc310 2.105 . S
O322 C316 1.268 . S
O323 Sc309 2.105 . S
O323 C317 1.268 . S
O324 Sc308 2.105 . S
O324 C316 1.268 . S
O325 Sc309 2.105 . S
O325 C315 1.268 . S
O326 Sc310 2.105 . S
O326 C317 1.268 . S
O327 Sc308 2.105 . S
O327 C313 1.268 . S
O328 Sc310 2.105 . S
O328 C312 1.268 . S
O329 Sc309 2.105 . S
O329 C314 1.268 . S
Sc330 O333 2.025 . S
Sc330 O340 2.105 . S
Sc330 O343 2.105 . S
Sc330 O346 2.105 . S
Sc330 O349 2.105 . S
Sc331 O333 2.025 . S
Sc331 O341 2.105 . S
Sc331 O345 2.105 . S
Sc331 O347 2.105 . S
Sc331 O351 2.105 . S
Sc332 O333 2.025 . S
Sc332 O342 2.105 . S
Sc332 O344 2.105 . S
Sc332 O348 2.105 . S
Sc332 O350 2.105 . S
O333 Sc330 2.025 . S
O333 Sc331 2.025 . S
O333 Sc332 2.025 . S
C334 O340 1.268 . S
C334 O350 1.268 . S
C335 O341 1.268 . S
C335 O349 1.268 . S
C336 O342 1.268 . S
C336 O351 1.268 . S
C337 O343 1.268 . S
C337 O347 1.268 . S
C338 O344 1.268 . S
C338 O346 1.268 . S
C339 O345 1.268 . S
C339 O348 1.268 . S
O340 Sc330 2.105 . S
O340 C334 1.268 . S
O341 Sc331 2.105 . S
O341 C335 1.268 . S
O342 Sc332 2.105 . S
O342 C336 1.268 . S
O343 Sc330 2.105 . S
O343 C337 1.268 . S
O344 Sc332 2.105 . S
O344 C338 1.268 . S
O345 Sc331 2.105 . S
O345 C339 1.268 . S
O346 Sc330 2.105 . S
O346 C338 1.268 . S
O347 Sc331 2.105 . S
O347 C337 1.268 . S
O348 Sc332 2.105 . S
O348 C339 1.268 . S
O349 Sc330 2.105 . S
O349 C335 1.268 . S
O350 Sc332 2.105 . S
O350 C334 1.268 . S
O351 Sc331 2.105 . S
O351 C336 1.268 . S
Sc352 O355 2.025 . S
Sc352 O362 2.105 . S
Sc352 O365 2.105 . S
Sc352 O368 2.105 . S
Sc352 O371 2.105 . S
Sc353 O355 2.025 . S
Sc353 O363 2.105 . S
Sc353 O367 2.105 . S
Sc353 O369 2.105 . S
Sc353 O373 2.105 . S
Sc354 O355 2.025 . S
Sc354 O364 2.105 . S
Sc354 O366 2.105 . S
Sc354 O370 2.105 . S
Sc354 O372 2.105 . S
O355 Sc352 2.025 . S
O355 Sc353 2.025 . S
O355 Sc354 2.025 . S
C356 O362 1.268 . S
C356 O372 1.268 . S
C357 O363 1.268 . S
C357 O371 1.268 . S
C358 O364 1.268 . S
C358 O373 1.268 . S
C359 O365 1.268 . S
C359 O369 1.268 . S
C360 O366 1.268 . S
C360 O368 1.268 . S
C361 O367 1.268 . S
C361 O370 1.268 . S
O362 Sc352 2.105 . S
O362 C356 1.268 . S
O363 Sc353 2.105 . S
O363 C357 1.268 . S
O364 Sc354 2.105 . S
O364 C358 1.268 . S
O365 Sc352 2.105 . S
O365 C359 1.268 . S
O366 Sc354 2.105 . S
O366 C360 1.268 . S
O367 Sc353 2.105 . S
O367 C361 1.268 . S
O368 Sc352 2.105 . S
O368 C360 1.268 . S
O369 Sc353 2.105 . S
O369 C359 1.268 . S
O370 Sc354 2.105 . S
O370 C361 1.268 . S
O371 Sc352 2.105 . S
O371 C357 1.268 . S
O372 Sc354 2.105 . S
O372 C356 1.268 . S
O373 Sc353 2.105 . S
O373 C358 1.268 . S
Sc374 O377 2.025 . S
Sc374 O384 2.105 . S
Sc374 O387 2.105 . S
Sc374 O390 2.105 . S
Sc374 O393 2.105 . S
Sc375 O377 2.025 . S
Sc375 O385 2.105 . S
Sc375 O389 2.105 . S
Sc375 O391 2.105 . S
Sc375 O395 2.105 . S
Sc376 O377 2.025 . S
Sc376 O386 2.105 . S
Sc376 O388 2.105 . S
Sc376 O392 2.105 . S
Sc376 O394 2.105 . S
O377 Sc374 2.025 . S
O377 Sc375 2.025 . S
O377 Sc376 2.025 . S
C378 O384 1.268 . S
C378 O394 1.268 . S
C379 O385 1.268 . S
C379 O393 1.268 . S
C380 O386 1.268 . S
C380 O395 1.268 . S
C381 O387 1.268 . S
C381 O391 1.268 . S
C382 O388 1.268 . S
C382 O390 1.268 . S
C383 O389 1.268 . S
C383 O392 1.268 . S
O384 Sc374 2.105 . S
O384 C378 1.268 . S
O385 Sc375 2.105 . S
O385 C379 1.268 . S
O386 Sc376 2.105 . S
O386 C380 1.268 . S
O387 Sc374 2.105 . S
O387 C381 1.268 . S
O388 Sc376 2.105 . S
O388 C382 1.268 . S
O389 Sc375 2.105 . S
O389 C383 1.268 . S
O390 Sc374 2.105 . S
O390 C382 1.268 . S
O391 Sc375 2.105 . S
O391 C381 1.268 . S
O392 Sc376 2.105 . S
O392 C383 1.268 . S
O393 Sc374 2.105 . S
O393 C379 1.268 . S
O394 Sc376 2.105 . S
O394 C378 1.268 . S
O395 Sc375 2.105 . S
O395 C380 1.268 . S
H396 C404 0.929 . S
H397 C406 0.930 . S
H398 C408 0.930 . S
H399 C411 0.929 . S
H400 C414 0.930 . S
H401 C416 0.960 . S
H402 C416 0.960 . S
H403 C416 0.960 . S
C404 H396 0.929 . S
C404 C405 1.377 . S
C404 C406 1.384 . S
C405 C404 1.377 . S
C405 C411 1.390 . S
C406 H397 0.930 . S
C406 C404 1.384 . S
C406 C407 1.372 . S
C407 C406 1.372 . S
C407 C408 1.400 . S
C407 C412 1.490 . S
C408 H398 0.930 . S
C408 C407 1.400 . S
C408 C411 1.386 . S
H409 C425 0.930 . S
H410 C426 0.931 . S
C411 H399 0.929 . S
C411 C405 1.390 . S
C411 C408 1.386 . S
C412 C407 1.490 . S
C412 C414 1.395 . S
C412 C415 1.403 . S
H413 C419 0.930 . S
C414 H400 0.930 . S
C414 C412 1.395 . S
C414 C417 1.403 . S
C415 C412 1.403 . S
C415 C416 1.524 . S
C415 C419 1.400 . S
C416 H401 0.960 . S
C416 H402 0.960 . S
C416 H403 0.960 . S
C416 C415 1.524 . S
C417 C414 1.403 . S
C417 C418 1.392 . S
C417 C421 1.495 . S
C418 C417 1.392 . S
C418 C419 1.385 . S
C418 C420 1.478 . S
C419 H413 0.930 . S
C419 C415 1.400 . S
C419 C418 1.385 . S
C420 C418 1.478 . S
C420 C422 1.381 . S
C420 C426 1.383 . S
C421 C417 1.495 . S
C421 H427 0.959 . S
C421 H428 0.961 . S
C421 H429 0.960 . S
C422 C420 1.381 . S
C422 C423 1.394 . S
C422 H430 0.930 . S
C423 C422 1.394 . S
C423 C424 1.383 . S
C423 H431 0.929 . S
C424 C423 1.383 . S
C424 C425 1.377 . S
C425 H409 0.930 . S
C425 C424 1.377 . S
C425 C426 1.379 . S
C426 H410 0.931 . S
C426 C420 1.383 . S
C426 C425 1.379 . S
H427 C421 0.959 . S
H428 C421 0.961 . S
H429 C421 0.960 . S
H430 C422 0.930 . S
H431 C423 0.929 . S
H432 C440 0.929 . S
H433 C442 0.930 1_455 S
H434 C444 0.930 . S
H435 C447 0.929 . S
H436 C450 0.930 . S
H437 C452 0.960 . S
H438 C452 0.960 . S
H439 C452 0.960 . S
C440 H432 0.929 . S
C440 C441 1.377 1_455 S
C440 C442 1.384 1_455 S
C441 C440 1.377 1_655 S
C441 C447 1.390 . S
C442 H433 0.930 1_655 S
C442 C440 1.384 1_655 S
C442 C443 1.372 . S
C443 C442 1.372 . S
C443 C444 1.400 . S
C443 C448 1.490 . S
C444 H434 0.930 . S
C444 C443 1.400 . S
C444 C447 1.386 . S
H445 C461 0.930 . S
H446 C462 0.931 . S
C447 H435 0.929 . S
C447 C441 1.390 . S
C447 C444 1.386 . S
C448 C443 1.490 . S
C448 C450 1.395 . S
C448 C451 1.403 . S
H449 C455 0.930 . S
C450 H436 0.930 . S
C450 C448 1.395 . S
C450 C453 1.403 . S
C451 C448 1.403 . S
C451 C452 1.524 . S
C451 C455 1.400 . S
C452 H437 0.960 . S
C452 H438 0.960 . S
C452 H439 0.960 . S
C452 C451 1.524 . S
C453 C450 1.403 . S
C453 C454 1.392 . S
C453 C457 1.495 . S
C454 C453 1.392 . S
C454 C455 1.385 . S
C454 C456 1.478 . S
C455 H449 0.930 . S
C455 C451 1.400 . S
C455 C454 1.385 . S
C456 C454 1.478 . S
C456 C458 1.381 1_545 S
C456 C462 1.383 1_545 S
C457 C453 1.495 . S
C457 H463 0.959 . S
C457 H464 0.961 . S
C457 H465 0.960 . S
C458 C456 1.381 1_565 S
C458 C459 1.394 . S
C458 H466 0.930 1_565 S
C459 C458 1.394 . S
C459 C460 1.383 . S
C459 H467 0.929 . S
C460 C459 1.383 . S
C460 C461 1.377 . S
C461 H445 0.930 . S
C461 C460 1.377 . S
C461 C462 1.379 . S
C462 H446 0.931 . S
C462 C456 1.383 1_565 S
C462 C461 1.379 . S
H463 C457 0.959 . S
H464 C457 0.961 . S
H465 C457 0.960 . S
H466 C458 0.930 1_545 S
H467 C459 0.929 . S
H468 C476 0.929 . S
H469 C478 0.930 . S
H470 C480 0.930 . S
H471 C483 0.929 . S
H472 C486 0.930 . S
H473 C488 0.960 . S
H474 C488 0.960 . S
H475 C488 0.960 . S
C476 H468 0.929 . S
C476 C477 1.377 . S
C476 C478 1.384 . S
C477 C476 1.377 . S
C477 C483 1.390 . S
C478 H469 0.930 . S
C478 C476 1.384 . S
C478 C479 1.372 . S
C479 C478 1.372 . S
C479 C480 1.400 . S
C479 C484 1.490 1_655 S
C480 H470 0.930 . S
C480 C479 1.400 . S
C480 C483 1.386 . S
H481 C497 0.930 . S
H482 C498 0.940 . S
C483 H471 0.929 . S
C483 C477 1.390 . S
C483 C480 1.386 . S
C484 C479 1.490 1_455 S
C484 C486 1.395 . S
C484 C487 1.403 . S
H485 C491 0.930 . S
C486 H472 0.930 . S
C486 C484 1.395 . S
C486 C489 1.403 . S
C487 C484 1.403 . S
C487 C488 1.524 . S
C487 C491 1.400 . S
C488 H473 0.960 . S
C488 H474 0.960 . S
C488 H475 0.960 . S
C488 C487 1.524 . S
C489 C486 1.403 . S
C489 C490 1.392 . S
C489 C493 1.495 . S
C490 C489 1.392 . S
C490 C491 1.385 . S
C490 C492 1.478 . S
C491 H485 0.930 . S
C491 C487 1.400 . S
C491 C490 1.385 . S
C492 C490 1.478 . S
C492 C494 1.381 . S
C492 C498 1.374 1_565 S
C493 C489 1.495 . S
C493 H499 0.959 . S
C493 H500 0.975 . S
C493 H501 0.960 . S
C494 C492 1.381 . S
C494 C495 1.394 . S
C494 H502 0.930 . S
C495 C494 1.394 . S
C495 C496 1.383 1_565 S
C495 H503 0.929 . S
C496 C495 1.383 1_545 S
C496 C497 1.377 . S
C497 H481 0.930 . S
C497 C496 1.377 . S
C497 C498 1.379 . S
C498 H482 0.940 . S
C498 C492 1.374 1_545 S
C498 C497 1.379 . S
H499 C493 0.959 . S
H500 C493 0.975 . S
H501 C493 0.960 . S
H502 C494 0.930 . S
H503 C495 0.929 . S
H504 C512 0.929 . S
H505 C514 0.930 . S
H506 C516 0.930 . S
H507 C519 0.929 . S
H508 C522 0.930 . S
H509 C524 0.960 . S
H510 C524 0.960 . S
H511 C524 0.960 . S
C512 H504 0.929 . S
C512 C513 1.377 1_455 S
C512 C514 1.384 1_455 S
C513 C512 1.377 1_655 S
C513 C519 1.390 . S
C514 H505 0.930 . S
C514 C512 1.384 1_655 S
C514 C515 1.372 . S
C515 C514 1.372 . S
C515 C516 1.400 . S
C515 C520 1.490 . S
C516 H506 0.930 . S
C516 C515 1.400 . S
C516 C519 1.386 . S
H517 C533 0.930 . S
H518 C534 0.931 . S
C519 H507 0.929 . S
C519 C513 1.390 . S
C519 C516 1.386 . S
C520 C515 1.490 . S
C520 C522 1.395 . S
C520 C523 1.403 . S
H521 C527 0.930 . S
C522 H508 0.930 . S
C522 C520 1.395 . S
C522 C525 1.403 . S
C523 C520 1.403 . S
C523 C524 1.524 . S
C523 C527 1.400 . S
C524 H509 0.960 . S
C524 H510 0.960 . S
C524 H511 0.960 . S
C524 C523 1.524 . S
C525 C522 1.403 . S
C525 C526 1.392 . S
C525 C529 1.495 . S
C526 C525 1.392 . S
C526 C527 1.385 . S
C526 C528 1.478 . S
C527 H521 0.930 . S
C527 C523 1.400 . S
C527 C526 1.385 . S
C528 C526 1.478 . S
C528 C530 1.381 . S
C528 C534 1.383 . S
C529 C525 1.495 . S
C529 H535 0.959 . S
C529 H536 0.961 . S
C529 H537 0.960 . S
C530 C528 1.381 . S
C530 C531 1.394 1_565 S
C530 H538 0.921 . S
C531 C530 1.394 1_545 S
C531 C532 1.383 . S
C531 H539 0.929 . S
C532 C531 1.383 . S
C532 C533 1.377 1_545 S
C533 H517 0.930 . S
C533 C532 1.377 1_565 S
C533 C534 1.379 . S
C534 H518 0.931 . S
C534 C528 1.383 . S
C534 C533 1.379 . S
H535 C529 0.959 . S
H536 C529 0.961 . S
H537 C529 0.960 . S
H538 C530 0.921 . S
H539 C531 0.929 . S
H540 C548 0.929 . S
H541 C550 0.930 1_545 S
H542 C552 0.932 . S
H543 C555 0.929 . S
H544 C558 0.930 . S
H545 C560 0.960 . S
H546 C560 0.960 . S
H547 C560 0.960 . S
C548 H540 0.929 . S
C548 C549 1.377 . S
C548 C550 1.384 . S
C549 C548 1.377 . S
C549 C555 1.390 . S
C550 H541 0.930 1_565 S
C550 C548 1.384 . S
C550 C551 1.372 1_565 S
C551 C550 1.372 1_545 S
C551 C552 1.400 1_545 S
C551 C556 1.490 . S
C552 H542 0.932 . S
C552 C551 1.400 1_565 S
C552 C555 1.386 . S
H553 C569 0.930 . S
H554 C570 0.931 . S
C555 H543 0.929 . S
C555 C549 1.390 . S
C555 C552 1.386 . S
C556 C551 1.490 . S
C556 C558 1.395 . S
C556 C559 1.403 . S
H557 C563 0.930 . S
C558 H544 0.930 . S
C558 C556 1.395 . S
C558 C561 1.403 . S
C559 C556 1.403 . S
C559 C560 1.524 . S
C559 C563 1.400 . S
C560 H545 0.960 . S
C560 H546 0.960 . S
C560 H547 0.960 . S
C560 C559 1.524 . S
C561 C558 1.403 . S
C561 C562 1.392 . S
C561 C565 1.495 . S
C562 C561 1.392 . S
C562 C563 1.385 . S
C562 C564 1.478 . S
C563 H557 0.930 . S
C563 C559 1.400 . S
C563 C562 1.385 . S
C564 C562 1.478 . S
C564 C566 1.381 . S
C564 C570 1.383 . S
C565 C561 1.495 . S
C565 H571 0.959 . S
C565 H572 0.961 . S
C565 H573 0.960 . S
C566 C564 1.381 . S
C566 C567 1.394 . S
C566 H574 0.930 . S
C567 C566 1.394 . S
C567 C568 1.383 . S
C567 H575 0.929 . S
C568 C567 1.383 . S
C568 C569 1.377 . S
C569 H553 0.930 . S
C569 C568 1.377 . S
C569 C570 1.379 . S
C570 H554 0.931 . S
C570 C564 1.383 . S
C570 C569 1.379 . S
H571 C565 0.959 . S
H572 C565 0.961 . S
H573 C565 0.960 . S
H574 C566 0.930 . S
H575 C567 0.929 . S
H576 C584 0.929 . S
H577 C586 0.930 . S
H578 C588 0.930 . S
H579 C591 0.929 . S
H580 C594 0.930 . S
H581 C596 0.960 . S
H582 C596 0.960 . S
H583 C596 0.960 . S
C584 H576 0.929 . S
C584 C585 1.377 . S
C584 C586 1.384 . S
C585 C584 1.377 . S
C585 C591 1.390 . S
C586 H577 0.930 . S
C586 C584 1.384 . S
C586 C587 1.372 . S
C587 C586 1.372 . S
C587 C588 1.400 . S
C587 C592 1.490 . S
C588 H578 0.930 . S
C588 C587 1.400 . S
C588 C591 1.386 . S
H589 C605 0.930 . S
H590 C606 0.931 . S
C591 H579 0.929 . S
C591 C585 1.390 . S
C591 C588 1.386 . S
C592 C587 1.490 . S
C592 C594 1.395 . S
C592 C595 1.403 . S
H593 C599 0.930 . S
C594 H580 0.930 . S
C594 C592 1.395 . S
C594 C597 1.403 . S
C595 C592 1.403 . S
C595 C596 1.524 . S
C595 C599 1.400 . S
C596 H581 0.960 . S
C596 H582 0.960 . S
C596 H583 0.960 . S
C596 C595 1.524 . S
C597 C594 1.403 . S
C597 C598 1.392 . S
C597 C601 1.495 . S
C598 C597 1.392 . S
C598 C599 1.385 . S
C598 C600 1.478 1_455 S
C599 H593 0.930 . S
C599 C595 1.400 . S
C599 C598 1.385 . S
C600 C598 1.478 1_655 S
C600 C602 1.381 . S
C600 C606 1.383 . S
C601 C597 1.495 . S
C601 H607 0.959 . S
C601 H608 0.961 . S
C601 H609 0.960 . S
C602 C600 1.381 . S
C602 C603 1.394 . S
C602 H610 0.930 . S
C603 C602 1.394 . S
C603 C604 1.383 . S
C603 H611 0.929 . S
C604 C603 1.383 . S
C604 C605 1.377 . S
C605 H589 0.930 . S
C605 C604 1.377 . S
C605 C606 1.379 . S
C606 H590 0.931 . S
C606 C600 1.383 . S
C606 C605 1.379 . S
H607 C601 0.959 . S
H608 C601 0.961 . S
H609 C601 0.960 . S
H610 C602 0.930 . S
H611 C603 0.929 . S
H612 C620 0.929 . S
H613 C622 0.930 . S
H614 C624 0.930 . S
H615 C627 0.929 . S
H616 C630 0.930 . S
H617 C632 0.960 . S
H618 C632 0.960 . S
H619 C632 0.960 . S
C620 H612 0.929 . S
C620 C621 1.377 . S
C620 C622 1.384 . S
C621 C620 1.377 . S
C621 C627 1.390 . S
C622 H613 0.930 . S
C622 C620 1.384 . S
C622 C623 1.372 . S
C623 C622 1.372 . S
C623 C624 1.400 . S
C623 C628 1.490 . S
C624 H614 0.930 . S
C624 C623 1.400 . S
C624 C627 1.386 . S
H625 C641 0.930 . S
H626 C642 0.931 . S
C627 H615 0.929 . S
C627 C621 1.390 . S
C627 C624 1.386 . S
C628 C623 1.490 . S
C628 C630 1.395 . S
C628 C631 1.403 . S
H629 C635 0.930 . S
C630 H616 0.930 . S
C630 C628 1.395 . S
C630 C633 1.403 . S
C631 C628 1.403 . S
C631 C632 1.524 . S
C631 C635 1.400 . S
C632 H617 0.960 . S
C632 H618 0.960 . S
C632 H619 0.960 . S
C632 C631 1.524 . S
C633 C630 1.403 . S
C633 C634 1.392 . S
C633 C637 1.495 . S
C634 C633 1.392 . S
C634 C635 1.385 . S
C634 C636 1.478 . S
C635 H629 0.930 . S
C635 C631 1.400 . S
C635 C634 1.385 . S
C636 C634 1.478 . S
C636 C638 1.381 . S
C636 C642 1.383 . S
C637 C633 1.495 . S
C637 H643 0.959 . S
C637 H644 0.961 . S
C637 H645 0.960 . S
C638 C636 1.381 . S
C638 C639 1.394 . S
C638 H646 0.930 . S
C639 C638 1.394 . S
C639 C640 1.383 . S
C639 H647 0.929 . S
C640 C639 1.383 . S
C640 C641 1.377 . S
C641 H625 0.930 . S
C641 C640 1.377 . S
C641 C642 1.379 . S
C642 H626 0.931 . S
C642 C636 1.383 . S
C642 C641 1.379 . S
H643 C637 0.959 . S
H644 C637 0.961 . S
H645 C637 0.960 . S
H646 C638 0.930 . S
H647 C639 0.929 . S
H648 C656 0.929 . S
H649 C658 0.930 . S
H650 C660 0.930 . S
H651 C663 0.929 . S
H652 C666 0.930 . S
H653 C668 0.960 . S
H654 C668 0.960 . S
H655 C668 0.960 . S
C656 H648 0.929 . S
C656 C657 1.377 . S
C656 C658 1.384 . S
C657 C656 1.377 . S
C657 C663 1.390 . S
C658 H649 0.930 . S
C658 C656 1.384 . S
C658 C659 1.372 . S
C659 C658 1.372 . S
C659 C660 1.400 . S
C659 C664 1.490 . S
C660 H650 0.930 . S
C660 C659 1.400 . S
C660 C663 1.386 . S
H661 C677 0.930 . S
H662 C678 0.931 . S
C663 H651 0.929 . S
C663 C657 1.390 . S
C663 C660 1.386 . S
C664 C659 1.490 . S
C664 C666 1.395 . S
C664 C667 1.403 . S
H665 C671 0.930 . S
C666 H652 0.930 . S
C666 C664 1.395 . S
C666 C669 1.403 . S
C667 C664 1.403 . S
C667 C668 1.524 . S
C667 C671 1.400 . S
C668 H653 0.960 . S
C668 H654 0.960 . S
C668 H655 0.960 . S
C668 C667 1.524 . S
C669 C666 1.403 . S
C669 C670 1.392 . S
C669 C673 1.495 . S
C670 C669 1.392 . S
C670 C671 1.385 . S
C670 C672 1.478 . S
C671 H665 0.930 . S
C671 C667 1.400 . S
C671 C670 1.385 . S
C672 C670 1.478 . S
C672 C674 1.381 . S
C672 C678 1.383 . S
C673 C669 1.495 . S
C673 H679 0.959 . S
C673 H680 0.961 . S
C673 H681 0.960 . S
C674 C672 1.381 . S
C674 C675 1.394 . S
C674 H682 0.930 . S
C675 C674 1.394 . S
C675 C676 1.383 . S
C675 H683 0.929 . S
C676 C675 1.383 . S
C676 C677 1.377 . S
C677 H661 0.930 . S
C677 C676 1.377 . S
C677 C678 1.379 . S
C678 H662 0.931 . S
C678 C672 1.383 . S
C678 C677 1.379 . S
H679 C673 0.959 . S
H680 C673 0.961 . S
H681 C673 0.960 . S
H682 C674 0.930 . S
H683 C675 0.929 . S
H684 C692 0.929 . S
H685 C694 0.930 . S
H686 C696 0.930 . S
H687 C699 0.929 . S
H688 C702 0.930 . S
H689 C704 0.960 . S
H690 C704 0.960 . S
H691 C704 0.960 . S
C692 H684 0.929 . S
C692 C693 1.377 . S
C692 C694 1.384 . S
C693 C692 1.377 . S
C693 C699 1.390 . S
C694 H685 0.930 . S
C694 C692 1.384 . S
C694 C695 1.372 . S
C695 C694 1.372 . S
C695 C696 1.400 . S
C695 C700 1.490 . S
C696 H686 0.930 . S
C696 C695 1.400 . S
C696 C699 1.386 . S
H697 C713 0.930 . S
H698 C714 0.931 . S
C699 H687 0.929 . S
C699 C693 1.390 . S
C699 C696 1.386 . S
C700 C695 1.490 . S
C700 C702 1.395 . S
C700 C703 1.403 . S
H701 C707 0.930 . S
C702 H688 0.930 . S
C702 C700 1.395 . S
C702 C705 1.403 . S
C703 C700 1.403 . S
C703 C704 1.524 . S
C703 C707 1.400 . S
C704 H689 0.960 . S
C704 H690 0.960 . S
C704 H691 0.960 . S
C704 C703 1.524 . S
C705 C702 1.403 . S
C705 C706 1.392 . S
C705 C709 1.495 . S
C706 C705 1.392 . S
C706 C707 1.385 . S
C706 C708 1.478 . S
C707 H701 0.930 . S
C707 C703 1.400 . S
C707 C706 1.385 . S
C708 C706 1.478 . S
C708 C710 1.381 . S
C708 C714 1.383 . S
C709 C705 1.495 . S
C709 H715 0.959 . S
C709 H716 0.961 . S
C709 H717 0.960 . S
C710 C708 1.381 . S
C710 C711 1.394 . S
C710 H718 0.930 . S
C711 C710 1.394 . S
C711 C712 1.383 . S
C711 H719 0.929 . S
C712 C711 1.383 . S
C712 C713 1.377 . S
C713 H697 0.930 . S
C713 C712 1.377 . S
C713 C714 1.379 . S
C714 H698 0.931 . S
C714 C708 1.383 . S
C714 C713 1.379 . S
H715 C709 0.959 . S
H716 C709 0.961 . S
H717 C709 0.960 . S
H718 C710 0.930 . S
H719 C711 0.929 . S
H720 C728 0.929 . S
H721 C730 0.930 . S
H722 C732 0.930 . S
H723 C735 0.929 . S
H724 C738 0.930 . S
H725 C740 0.960 . S
H726 C740 0.960 . S
H727 C740 0.960 . S
C728 H720 0.929 . S
C728 C729 1.377 . S
C728 C730 1.384 . S
C729 C728 1.377 . S
C729 C735 1.390 . S
C730 H721 0.930 . S
C730 C728 1.384 . S
C730 C731 1.372 . S
C731 C730 1.372 . S
C731 C732 1.400 . S
C731 C736 1.490 . S
C732 H722 0.930 . S
C732 C731 1.400 . S
C732 C735 1.386 . S
H733 C749 0.930 . S
H734 C750 0.931 . S
C735 H723 0.929 . S
C735 C729 1.390 . S
C735 C732 1.386 . S
C736 C731 1.490 . S
C736 C738 1.395 . S
C736 C739 1.403 . S
H737 C743 0.930 . S
C738 H724 0.930 . S
C738 C736 1.395 . S
C738 C741 1.403 . S
C739 C736 1.403 . S
C739 C740 1.524 . S
C739 C743 1.400 . S
C740 H725 0.960 . S
C740 H726 0.960 . S
C740 H727 0.960 . S
C740 C739 1.524 . S
C741 C738 1.403 . S
C741 C742 1.392 . S
C741 C745 1.495 . S
C742 C741 1.392 . S
C742 C743 1.385 . S
C742 C744 1.478 . S
C743 H737 0.930 . S
C743 C739 1.400 . S
C743 C742 1.385 . S
C744 C742 1.478 . S
C744 C746 1.381 . S
C744 C750 1.383 . S
C745 C741 1.495 . S
C745 H751 0.959 . S
C745 H752 0.961 . S
C745 H753 0.960 . S
C746 C744 1.381 . S
C746 C747 1.394 . S
C746 H754 0.930 . S
C747 C746 1.394 . S
C747 C748 1.383 . S
C747 H755 0.929 . S
C748 C747 1.383 . S
C748 C749 1.377 . S
C749 H733 0.930 . S
C749 C748 1.377 . S
C749 C750 1.379 . S
C750 H734 0.931 . S
C750 C744 1.383 . S
C750 C749 1.379 . S
H751 C745 0.959 . S
H752 C745 0.961 . S
H753 C745 0.960 . S
H754 C746 0.930 . S
H755 C747 0.929 . S
H756 C764 0.929 . S
H757 C766 0.930 . S
H758 C768 0.930 . S
H759 C771 0.929 . S
H760 C774 0.930 . S
H761 C776 0.960 . S
H762 C776 0.960 . S
H763 C776 0.960 . S
C764 H756 0.929 . S
C764 C765 1.377 . S
C764 C766 1.384 . S
C765 C764 1.377 . S
C765 C771 1.390 . S
C766 H757 0.930 . S
C766 C764 1.384 . S
C766 C767 1.372 . S
C767 C766 1.372 . S
C767 C768 1.400 . S
C767 C772 1.490 . S
C768 H758 0.930 . S
C768 C767 1.400 . S
C768 C771 1.386 . S
H769 C785 0.930 . S
H770 C786 0.931 . S
C771 H759 0.929 . S
C771 C765 1.390 . S
C771 C768 1.386 . S
C772 C767 1.490 . S
C772 C774 1.395 . S
C772 C775 1.403 . S
H773 C779 0.930 . S
C774 H760 0.930 . S
C774 C772 1.395 . S
C774 C777 1.403 . S
C775 C772 1.403 . S
C775 C776 1.524 . S
C775 C779 1.400 . S
C776 H761 0.960 . S
C776 H762 0.960 . S
C776 H763 0.960 . S
C776 C775 1.524 . S
C777 C774 1.403 . S
C777 C778 1.392 . S
C777 C781 1.495 . S
C778 C777 1.392 . S
C778 C779 1.385 . S
C778 C780 1.478 . S
C779 H773 0.930 . S
C779 C775 1.400 . S
C779 C778 1.385 . S
C780 C778 1.478 . S
C780 C782 1.381 . S
C780 C786 1.383 . S
C781 C777 1.495 . S
C781 H787 0.959 . S
C781 H788 0.961 . S
C781 H789 0.960 . S
C782 C780 1.381 . S
C782 C783 1.394 . S
C782 H790 0.930 . S
C783 C782 1.394 . S
C783 C784 1.383 . S
C783 H791 0.929 . S
C784 C783 1.383 . S
C784 C785 1.377 . S
C785 H769 0.930 . S
C785 C784 1.377 . S
C785 C786 1.379 . S
C786 H770 0.931 . S
C786 C780 1.383 . S
C786 C785 1.379 . S
H787 C781 0.959 . S
H788 C781 0.961 . S
H789 C781 0.960 . S
H790 C782 0.930 . S
H791 C783 0.929 . S
H792 C800 0.929 . S
H793 C802 0.930 . S
H794 C804 0.930 . S
H795 C807 0.929 . S
H796 C810 0.930 . S
H797 C812 0.960 . S
H798 C812 0.960 . S
H799 C812 0.960 . S
C800 H792 0.929 . S
C800 C801 1.377 . S
C800 C802 1.384 . S
C801 C800 1.377 . S
C801 C807 1.390 . S
C802 H793 0.930 . S
C802 C800 1.384 . S
C802 C803 1.372 . S
C803 C802 1.372 . S
C803 C804 1.400 . S
C803 C808 1.490 . S
C804 H794 0.930 . S
C804 C803 1.400 . S
C804 C807 1.386 . S
H805 C821 0.930 . S
H806 C822 0.931 . S
C807 H795 0.929 . S
C807 C801 1.390 . S
C807 C804 1.386 . S
C808 C803 1.490 . S
C808 C810 1.395 . S
C808 C811 1.403 . S
H809 C815 0.930 . S
C810 H796 0.930 . S
C810 C808 1.395 . S
C810 C813 1.403 . S
C811 C808 1.403 . S
C811 C812 1.524 . S
C811 C815 1.400 . S
C812 H797 0.960 . S
C812 H798 0.960 . S
C812 H799 0.960 . S
C812 C811 1.524 . S
C813 C810 1.403 . S
C813 C814 1.392 . S
C813 C817 1.495 . S
C814 C813 1.392 . S
C814 C815 1.385 . S
C814 C816 1.478 . S
C815 H809 0.930 . S
C815 C811 1.400 . S
C815 C814 1.385 . S
C816 C814 1.478 . S
C816 C818 1.381 . S
C816 C822 1.383 . S
C817 C813 1.495 . S
C817 H823 0.959 . S
C817 H824 0.961 . S
C817 H825 0.960 . S
C818 C816 1.381 . S
C818 C819 1.394 . S
C818 H826 0.930 . S
C819 C818 1.394 . S
C819 C820 1.383 . S
C819 H827 0.929 . S
C820 C819 1.383 . S
C820 C821 1.377 . S
C821 H805 0.930 . S
C821 C820 1.377 . S
C821 C822 1.379 . S
C822 H806 0.931 . S
C822 C816 1.383 . S
C822 C821 1.379 . S
H823 C817 0.959 . S
H824 C817 0.961 . S
H825 C817 0.960 . S
H826 C818 0.930 . S
H827 C819 0.929 . S
H828 C836 0.929 . S
H829 C838 0.930 . S
H830 C840 0.930 . S
H831 C843 0.929 . S
H832 C846 0.930 . S
H833 C848 0.960 . S
H834 C848 0.960 . S
H835 C848 0.960 . S
C836 H828 0.929 . S
C836 C837 1.377 . S
C836 C838 1.384 . S
C837 C836 1.377 . S
C837 C843 1.390 . S
C838 H829 0.930 . S
C838 C836 1.384 . S
C838 C839 1.372 . S
C839 C838 1.372 . S
C839 C840 1.400 . S
C839 C844 1.490 . S
C840 H830 0.930 . S
C840 C839 1.400 . S
C840 C843 1.386 . S
H841 C857 0.930 . S
H842 C858 0.931 . S
C843 H831 0.929 . S
C843 C837 1.390 . S
C843 C840 1.386 . S
C844 C839 1.490 . S
C844 C846 1.395 . S
C844 C847 1.403 . S
H845 C851 0.930 . S
C846 H832 0.930 . S
C846 C844 1.395 . S
C846 C849 1.403 . S
C847 C844 1.403 . S
C847 C848 1.524 . S
C847 C851 1.400 . S
C848 H833 0.960 . S
C848 H834 0.960 . S
C848 H835 0.960 . S
C848 C847 1.524 . S
C849 C846 1.403 . S
C849 C850 1.392 . S
C849 C853 1.495 . S
C850 C849 1.392 . S
C850 C851 1.385 . S
C850 C852 1.478 . S
C851 H845 0.930 . S
C851 C847 1.400 . S
C851 C850 1.385 . S
C852 C850 1.478 . S
C852 C854 1.381 . S
C852 C858 1.383 . S
C853 C849 1.495 . S
C853 H859 0.959 . S
C853 H860 0.961 . S
C853 H861 0.960 . S
C854 C852 1.381 . S
C854 C855 1.394 . S
C854 H862 0.930 . S
C855 C854 1.394 . S
C855 C856 1.383 . S
C855 H863 0.929 . S
C856 C855 1.383 . S
C856 C857 1.377 . S
C857 H841 0.930 . S
C857 C856 1.377 . S
C857 C858 1.379 . S
C858 H842 0.931 . S
C858 C852 1.383 . S
C858 C857 1.379 . S
H859 C853 0.959 . S
H860 C853 0.961 . S
H861 C853 0.960 . S
H862 C854 0.930 . S
H863 C855 0.929 . S
H864 C872 0.929 . S
H865 C874 0.930 . S
H866 C876 0.930 . S
H867 C879 0.929 . S
H868 C882 0.930 . S
H869 C884 0.960 . S
H870 C884 0.960 . S
H871 C884 0.960 . S
C872 H864 0.929 . S
C872 C873 1.377 . S
C872 C874 1.384 . S
C873 C872 1.377 . S
C873 C879 1.390 . S
C874 H865 0.930 . S
C874 C872 1.384 . S
C874 C875 1.372 . S
C875 C874 1.372 . S
C875 C876 1.400 . S
C875 C880 1.490 . S
C876 H866 0.930 . S
C876 C875 1.400 . S
C876 C879 1.386 . S
H877 C893 0.930 . S
H878 C894 0.931 . S
C879 H867 0.929 . S
C879 C873 1.390 . S
C879 C876 1.386 . S
C880 C875 1.490 . S
C880 C882 1.395 . S
C880 C883 1.403 . S
H881 C887 0.930 . S
C882 H868 0.930 . S
C882 C880 1.395 . S
C882 C885 1.403 . S
C883 C880 1.403 . S
C883 C884 1.524 . S
C883 C887 1.400 . S
C884 H869 0.960 . S
C884 H870 0.960 . S
C884 H871 0.960 . S
C884 C883 1.524 . S
C885 C882 1.403 . S
C885 C886 1.392 . S
C885 C889 1.495 . S
C886 C885 1.392 . S
C886 C887 1.385 . S
C886 C888 1.478 . S
C887 H881 0.930 . S
C887 C883 1.400 . S
C887 C886 1.385 . S
C888 C886 1.478 . S
C888 C890 1.381 . S
C888 C894 1.383 . S
C889 C885 1.495 . S
C889 H895 0.959 . S
C889 H896 0.961 . S
C889 H897 0.960 . S
C890 C888 1.381 . S
C890 C891 1.394 . S
C890 H898 0.930 . S
C891 C890 1.394 . S
C891 C892 1.383 . S
C891 H899 0.929 . S
C892 C891 1.383 . S
C892 C893 1.377 . S
C893 H877 0.930 . S
C893 C892 1.377 . S
C893 C894 1.379 . S
C894 H878 0.931 . S
C894 C888 1.383 . S
C894 C893 1.379 . S
H895 C889 0.959 . S
H896 C889 0.961 . S
H897 C889 0.960 . S
H898 C890 0.930 . S
H899 C891 0.929 . S
H900 C908 0.929 . S
H901 C910 0.930 . S
H902 C912 0.930 . S
H903 C915 0.929 . S
H904 C918 0.930 . S
H905 C920 0.960 . S
H906 C920 0.960 . S
H907 C920 0.960 . S
C908 H900 0.929 . S
C908 C909 1.377 . S
C908 C910 1.384 . S
C909 C908 1.377 . S
C909 C915 1.390 . S
C910 H901 0.930 . S
C910 C908 1.384 . S
C910 C911 1.372 . S
C911 C910 1.372 . S
C911 C912 1.400 . S
C911 C916 1.490 . S
C912 H902 0.930 . S
C912 C911 1.400 . S
C912 C915 1.386 . S
H913 C929 0.930 . S
H914 C930 0.931 . S
C915 H903 0.929 . S
C915 C909 1.390 . S
C915 C912 1.386 . S
C916 C911 1.490 . S
C916 C918 1.395 . S
C916 C919 1.403 . S
H917 C923 0.930 . S
C918 H904 0.930 . S
C918 C916 1.395 . S
C918 C921 1.403 . S
C919 C916 1.403 . S
C919 C920 1.524 . S
C919 C923 1.400 . S
C920 H905 0.960 . S
C920 H906 0.960 . S
C920 H907 0.960 . S
C920 C919 1.524 . S
C921 C918 1.403 . S
C921 C922 1.392 . S
C921 C925 1.495 . S
C922 C921 1.392 . S
C922 C923 1.385 . S
C922 C924 1.478 . S
C923 H917 0.930 . S
C923 C919 1.400 . S
C923 C922 1.385 . S
C924 C922 1.478 . S
C924 C926 1.381 . S
C924 C930 1.383 . S
C925 C921 1.495 . S
C925 H931 0.959 . S
C925 H932 0.961 . S
C925 H933 0.960 . S
C926 C924 1.381 . S
C926 C927 1.394 . S
C926 H934 0.930 . S
C927 C926 1.394 . S
C927 C928 1.383 . S
C927 H935 0.929 . S
C928 C927 1.383 . S
C928 C929 1.377 . S
C929 H913 0.930 . S
C929 C928 1.377 . S
C929 C930 1.379 . S
C930 H914 0.931 . S
C930 C924 1.383 . S
C930 C929 1.379 . S
H931 C925 0.959 . S
H932 C925 0.961 . S
H933 C925 0.960 . S
H934 C926 0.930 . S
H935 C927 0.929 . S
H936 C944 0.929 . S
H937 C946 0.930 . S
H938 C948 0.930 . S
H939 C951 0.929 . S
H940 C954 0.930 . S
H941 C956 0.960 . S
H942 C956 0.960 . S
H943 C956 0.960 . S
C944 H936 0.929 . S
C944 C945 1.377 . S
C944 C946 1.384 . S
C945 C944 1.377 . S
C945 C951 1.390 . S
C946 H937 0.930 . S
C946 C944 1.384 . S
C946 C947 1.372 . S
C947 C946 1.372 . S
C947 C948 1.400 . S
C947 C952 1.490 . S
C948 H938 0.930 . S
C948 C947 1.400 . S
C948 C951 1.386 . S
H949 C965 0.930 . S
H950 C966 0.931 . S
C951 H939 0.929 . S
C951 C945 1.390 . S
C951 C948 1.386 . S
C952 C947 1.490 . S
C952 C954 1.395 . S
C952 C955 1.403 . S
H953 C959 0.930 . S
C954 H940 0.930 . S
C954 C952 1.395 . S
C954 C957 1.403 . S
C955 C952 1.403 . S
C955 C956 1.524 . S
C955 C959 1.400 . S
C956 H941 0.960 . S
C956 H942 0.960 . S
C956 H943 0.960 . S
C956 C955 1.524 . S
C957 C954 1.403 . S
C957 C958 1.392 . S
C957 C961 1.495 . S
C958 C957 1.392 . S
C958 C959 1.385 . S
C958 C960 1.478 . S
C959 H953 0.930 . S
C959 C955 1.400 . S
C959 C958 1.385 . S
C960 C958 1.478 . S
C960 C962 1.381 . S
C960 C966 1.383 . S
C961 C957 1.495 . S
C961 H967 0.959 . S
C961 H968 0.961 . S
C961 H969 0.960 . S
C962 C960 1.381 . S
C962 C963 1.394 . S
C962 H970 0.930 . S
C963 C962 1.394 . S
C963 C964 1.383 . S
C963 H971 0.929 . S
C964 C963 1.383 . S
C964 C965 1.377 . S
C965 H949 0.930 . S
C965 C964 1.377 . S
C965 C966 1.379 . S
C966 H950 0.931 . S
C966 C960 1.383 . S
C966 C965 1.379 . S
H967 C961 0.959 . S
H968 C961 0.961 . S
H969 C961 0.960 . S
H970 C962 0.930 . S
H971 C963 0.929 . S
H972 C980 0.929 . S
H973 C982 0.930 . S
H974 C984 0.930 . S
H975 C987 0.929 . S
H976 C990 0.930 . S
H977 C992 0.960 . S
H978 C992 0.960 . S
H979 C992 0.960 . S
C980 H972 0.929 . S
C980 C981 1.377 . S
C980 C982 1.384 . S
C981 C980 1.377 . S
C981 C987 1.390 . S
C982 H973 0.930 . S
C982 C980 1.384 . S
C982 C983 1.372 . S
C983 C982 1.372 . S
C983 C984 1.400 . S
C983 C988 1.490 . S
C984 H974 0.930 . S
C984 C983 1.400 . S
C984 C987 1.386 . S
H985 C1001 0.930 . S
H986 C1002 0.931 . S
C987 H975 0.929 . S
C987 C981 1.390 . S
C987 C984 1.386 . S
C988 C983 1.490 . S
C988 C990 1.395 . S
C988 C991 1.403 . S
H989 C995 0.930 . S
C990 H976 0.930 . S
C990 C988 1.395 . S
C990 C993 1.403 . S
C991 C988 1.403 . S
C991 C992 1.524 . S
C991 C995 1.400 . S
C992 H977 0.960 . S
C992 H978 0.960 . S
C992 H979 0.960 . S
C992 C991 1.524 . S
C993 C990 1.403 . S
C993 C994 1.392 . S
C993 C997 1.495 . S
C994 C993 1.392 . S
C994 C995 1.385 . S
C994 C996 1.478 . S
C995 H989 0.930 . S
C995 C991 1.400 . S
C995 C994 1.385 . S
C996 C994 1.478 . S
C996 C998 1.381 . S
C996 C1002 1.383 . S
C997 C993 1.495 . S
C997 H1003 0.959 . S
C997 H1004 0.961 . S
C997 H1005 0.960 . S
C998 C996 1.381 . S
C998 C999 1.394 . S
C998 H1006 0.930 . S
C999 C998 1.394 . S
C999 C1000 1.383 . S
C999 H1007 0.929 . S
C1000 C999 1.383 . S
C1000 C1001 1.377 . S
C1001 H985 0.930 . S
C1001 C1000 1.377 . S
C1001 C1002 1.379 . S
C1002 H986 0.931 . S
C1002 C996 1.383 . S
C1002 C1001 1.379 . S
H1003 C997 0.959 . S
H1004 C997 0.961 . S
H1005 C997 0.960 . S
H1006 C998 0.930 . S
H1007 C999 0.929 . S
H1008 C1016 0.929 . S
H1009 C1018 0.930 . S
H1010 C1020 0.930 . S
H1011 C1023 0.929 . S
H1012 C1026 0.930 . S
H1013 C1028 0.960 . S
H1014 C1028 0.960 . S
H1015 C1028 0.960 . S
C1016 H1008 0.929 . S
C1016 C1017 1.377 . S
C1016 C1018 1.384 . S
C1017 C1016 1.377 . S
C1017 C1023 1.390 . S
C1018 H1009 0.930 . S
C1018 C1016 1.384 . S
C1018 C1019 1.372 . S
C1019 C1018 1.372 . S
C1019 C1020 1.400 . S
C1019 C1024 1.490 . S
C1020 H1010 0.930 . S
C1020 C1019 1.400 . S
C1020 C1023 1.386 . S
H1021 C1037 0.930 . S
H1022 C1038 0.931 . S
C1023 H1011 0.929 . S
C1023 C1017 1.390 . S
C1023 C1020 1.386 . S
C1024 C1019 1.490 . S
C1024 C1026 1.395 . S
C1024 C1027 1.403 . S
H1025 C1031 0.930 . S
C1026 H1012 0.930 . S
C1026 C1024 1.395 . S
C1026 C1029 1.403 . S
C1027 C1024 1.403 . S
C1027 C1028 1.524 . S
C1027 C1031 1.400 . S
C1028 H1013 0.960 . S
C1028 H1014 0.960 . S
C1028 H1015 0.960 . S
C1028 C1027 1.524 . S
C1029 C1026 1.403 . S
C1029 C1030 1.392 . S
C1029 C1033 1.495 . S
C1030 C1029 1.392 . S
C1030 C1031 1.385 . S
C1030 C1032 1.478 . S
C1031 H1025 0.930 . S
C1031 C1027 1.400 . S
C1031 C1030 1.385 . S
C1032 C1030 1.478 . S
C1032 C1034 1.381 . S
C1032 C1038 1.383 . S
C1033 C1029 1.495 . S
C1033 H1039 0.959 . S
C1033 H1040 0.961 . S
C1033 H1041 0.960 . S
C1034 C1032 1.381 . S
C1034 C1035 1.394 . S
C1034 H1042 0.930 . S
C1035 C1034 1.394 . S
C1035 C1036 1.383 . S
C1035 H1043 0.929 . S
C1036 C1035 1.383 . S
C1036 C1037 1.377 . S
C1037 H1021 0.930 . S
C1037 C1036 1.377 . S
C1037 C1038 1.379 . S
C1038 H1022 0.931 . S
C1038 C1032 1.383 . S
C1038 C1037 1.379 . S
H1039 C1033 0.959 . S
H1040 C1033 0.961 . S
H1041 C1033 0.960 . S
H1042 C1034 0.930 . S
H1043 C1035 0.929 . S
H1044 C1052 0.929 . S
H1045 C1054 0.930 . S
H1046 C1056 0.930 . S
H1047 C1059 0.929 . S
H1048 C1062 0.930 . S
H1049 C1064 0.960 . S
H1050 C1064 0.960 . S
H1051 C1064 0.960 . S
C1052 H1044 0.929 . S
C1052 C1053 1.377 . S
C1052 C1054 1.384 . S
C1053 C1052 1.377 . S
C1053 C1059 1.390 . S
C1054 H1045 0.930 . S
C1054 C1052 1.384 . S
C1054 C1055 1.372 . S
C1055 C1054 1.372 . S
C1055 C1056 1.400 . S
C1055 C1060 1.490 . S
C1056 H1046 0.930 . S
C1056 C1055 1.400 . S
C1056 C1059 1.386 . S
H1057 C1073 0.930 . S
H1058 C1074 0.931 . S
C1059 H1047 0.929 . S
C1059 C1053 1.390 . S
C1059 C1056 1.386 . S
C1060 C1055 1.490 . S
C1060 C1062 1.395 . S
C1060 C1063 1.403 . S
H1061 C1067 0.930 . S
C1062 H1048 0.930 . S
C1062 C1060 1.395 . S
C1062 C1065 1.403 . S
C1063 C1060 1.403 . S
C1063 C1064 1.524 . S
C1063 C1067 1.400 . S
C1064 H1049 0.960 . S
C1064 H1050 0.960 . S
C1064 H1051 0.960 . S
C1064 C1063 1.524 . S
C1065 C1062 1.403 . S
C1065 C1066 1.392 . S
C1065 C1069 1.495 . S
C1066 C1065 1.392 . S
C1066 C1067 1.385 . S
C1066 C1068 1.478 . S
C1067 H1061 0.930 . S
C1067 C1063 1.400 . S
C1067 C1066 1.385 . S
C1068 C1066 1.478 . S
C1068 C1070 1.381 . S
C1068 C1074 1.383 . S
C1069 C1065 1.495 . S
C1069 H1075 0.959 . S
C1069 H1076 0.961 . S
C1069 H1077 0.960 . S
C1070 C1068 1.381 . S
C1070 C1071 1.394 . S
C1070 H1078 0.930 . S
C1071 C1070 1.394 . S
C1071 C1072 1.383 . S
C1071 H1079 0.929 . S
C1072 C1071 1.383 . S
C1072 C1073 1.377 . S
C1073 H1057 0.930 . S
C1073 C1072 1.377 . S
C1073 C1074 1.379 . S
C1074 H1058 0.931 . S
C1074 C1068 1.383 . S
C1074 C1073 1.379 . S
H1075 C1069 0.959 . S
H1076 C1069 0.961 . S
H1077 C1069 0.960 . S
H1078 C1070 0.930 . S
H1079 C1071 0.929 . S
H1080 C1088 0.929 . S
H1081 C1090 0.930 . S
H1082 C1092 0.930 . S
H1083 C1095 0.929 . S
H1084 C1098 0.930 . S
H1085 C1100 0.960 . S
H1086 C1100 0.960 . S
H1087 C1100 0.960 . S
C1088 H1080 0.929 . S
C1088 C1089 1.377 . S
C1088 C1090 1.384 . S
C1089 C1088 1.377 . S
C1089 C1095 1.390 . S
C1090 H1081 0.930 . S
C1090 C1088 1.384 . S
C1090 C1091 1.372 . S
C1091 C1090 1.372 . S
C1091 C1092 1.400 . S
C1091 C1096 1.490 . S
C1092 H1082 0.930 . S
C1092 C1091 1.400 . S
C1092 C1095 1.386 . S
H1093 C1109 0.930 . S
H1094 C1110 0.931 . S
C1095 H1083 0.929 . S
C1095 C1089 1.390 . S
C1095 C1092 1.386 . S
C1096 C1091 1.490 . S
C1096 C1098 1.395 . S
C1096 C1099 1.403 . S
H1097 C1103 0.930 . S
C1098 H1084 0.930 . S
C1098 C1096 1.395 . S
C1098 C1101 1.403 . S
C1099 C1096 1.403 . S
C1099 C1100 1.524 . S
C1099 C1103 1.400 . S
C1100 H1085 0.960 . S
C1100 H1086 0.960 . S
C1100 H1087 0.960 . S
C1100 C1099 1.524 . S
C1101 C1098 1.403 . S
C1101 C1102 1.392 . S
C1101 C1105 1.495 . S
C1102 C1101 1.392 . S
C1102 C1103 1.385 . S
C1102 C1104 1.478 . S
C1103 H1097 0.930 . S
C1103 C1099 1.400 . S
C1103 C1102 1.385 . S
C1104 C1102 1.478 . S
C1104 C1106 1.381 . S
C1104 C1110 1.383 . S
C1105 C1101 1.495 . S
C1105 H1111 0.959 . S
C1105 H1112 0.961 . S
C1105 H1113 0.960 . S
C1106 C1104 1.381 . S
C1106 C1107 1.394 . S
C1106 H1114 0.930 . S
C1107 C1106 1.394 . S
C1107 C1108 1.383 . S
C1107 H1115 0.929 . S
C1108 C1107 1.383 . S
C1108 C1109 1.377 . S
C1109 H1093 0.930 . S
C1109 C1108 1.377 . S
C1109 C1110 1.379 . S
C1110 H1094 0.931 . S
C1110 C1104 1.383 . S
C1110 C1109 1.379 . S
H1111 C1105 0.959 . S
H1112 C1105 0.961 . S
H1113 C1105 0.960 . S
H1114 C1106 0.930 . S
H1115 C1107 0.929 . S
H1116 C1124 0.929 . S
H1117 C1126 0.930 . S
H1118 C1128 0.930 . S
H1119 C1131 0.929 . S
H1120 C1134 0.930 . S
H1121 C1136 0.960 . S
H1122 C1136 0.960 . S
H1123 C1136 0.960 1_545 S
C1124 H1116 0.929 . S
C1124 C1125 1.377 1_565 S
C1124 C1126 1.384 . S
C1125 C1124 1.377 1_545 S
C1125 C1131 1.390 . S
C1126 H1117 0.930 . S
C1126 C1124 1.384 . S
C1126 C1127 1.372 . S
C1127 C1126 1.372 . S
C1127 C1128 1.398 1_565 S
C1127 C1132 1.492 . S
C1128 H1118 0.930 . S
C1128 C1127 1.398 1_545 S
C1128 C1131 1.386 . S
H1129 C1145 0.930 . S
H1130 C1146 0.931 . S
C1131 H1119 0.929 . S
C1131 C1125 1.390 . S
C1131 C1128 1.386 . S
C1132 C1127 1.492 . S
C1132 C1134 1.395 . S
C1132 C1135 1.403 . S
H1133 C1139 0.930 . S
C1134 H1120 0.930 . S
C1134 C1132 1.395 . S
C1134 C1137 1.403 . S
C1135 C1132 1.403 . S
C1135 C1136 1.524 . S
C1135 C1139 1.400 . S
C1136 H1121 0.960 . S
C1136 H1122 0.960 . S
C1136 H1123 0.960 1_565 S
C1136 C1135 1.524 . S
C1137 C1134 1.403 . S
C1137 C1138 1.392 . S
C1137 C1141 1.495 . S
C1138 C1137 1.392 . S
C1138 C1139 1.385 . S
C1138 C1140 1.478 . S
C1139 H1133 0.930 . S
C1139 C1135 1.400 . S
C1139 C1138 1.385 . S
C1140 C1138 1.478 . S
C1140 C1142 1.381 . S
C1140 C1146 1.383 . S
C1141 C1137 1.495 . S
C1141 H1147 0.959 . S
C1141 H1148 0.961 . S
C1141 H1149 0.960 . S
C1142 C1140 1.381 . S
C1142 C1143 1.394 . S
C1142 H1150 0.930 . S
C1143 C1142 1.394 . S
C1143 C1144 1.383 . S
C1143 H1151 0.929 . S
C1144 C1143 1.383 . S
C1144 C1145 1.377 . S
C1145 H1129 0.930 . S
C1145 C1144 1.377 . S
C1145 C1146 1.379 . S
C1146 H1130 0.931 . S
C1146 C1140 1.383 . S
C1146 C1145 1.379 . S
H1147 C1141 0.959 . S
H1148 C1141 0.961 . S
H1149 C1141 0.960 . S
H1150 C1142 0.930 . S
H1151 C1143 0.929 . S
H1152 C1160 0.929 . S
H1153 C1162 0.930 . S
H1154 C1164 0.930 . S
H1155 C1167 0.929 . S
H1156 C1170 0.930 . S
H1157 C1172 0.960 . S
H1158 C1172 0.960 . S
H1159 C1172 0.960 . S
C1160 H1152 0.929 . S
C1160 C1161 1.377 1_556 S
C1160 C1162 1.384 . S
C1161 C1160 1.377 1_554 S
C1161 C1167 1.390 . S
C1162 H1153 0.930 . S
C1162 C1160 1.384 . S
C1162 C1163 1.372 . S
C1163 C1162 1.372 . S
C1163 C1164 1.400 . S
C1163 C1168 1.490 . S
C1164 H1154 0.930 . S
C1164 C1163 1.400 . S
C1164 C1167 1.386 1_556 S
H1165 C1181 0.930 . S
H1166 C1182 0.931 . S
C1167 H1155 0.929 . S
C1167 C1161 1.390 . S
C1167 C1164 1.386 1_554 S
C1168 C1163 1.490 . S
C1168 C1170 1.395 . S
C1168 C1171 1.403 . S
H1169 C1175 0.930 . S
C1170 H1156 0.930 . S
C1170 C1168 1.395 . S
C1170 C1173 1.403 . S
C1171 C1168 1.403 . S
C1171 C1172 1.524 . S
C1171 C1175 1.400 . S
C1172 H1157 0.960 . S
C1172 H1158 0.960 . S
C1172 H1159 0.960 . S
C1172 C1171 1.524 . S
C1173 C1170 1.403 . S
C1173 C1174 1.392 . S
C1173 C1177 1.495 . S
C1174 C1173 1.392 . S
C1174 C1175 1.385 . S
C1174 C1176 1.478 . S
C1175 H1169 0.930 . S
C1175 C1171 1.400 . S
C1175 C1174 1.385 . S
C1176 C1174 1.478 . S
C1176 C1178 1.381 . S
C1176 C1182 1.383 . S
C1177 C1173 1.495 . S
C1177 H1183 0.959 . S
C1177 H1184 0.961 . S
C1177 H1185 0.960 . S
C1178 C1176 1.381 . S
C1178 C1179 1.394 . S
C1178 H1186 0.930 . S
C1179 C1178 1.394 . S
C1179 C1180 1.383 . S
C1179 H1187 0.929 . S
C1180 C1179 1.383 . S
C1180 C1181 1.377 . S
C1181 H1165 0.930 . S
C1181 C1180 1.377 . S
C1181 C1182 1.379 . S
C1182 H1166 0.931 . S
C1182 C1176 1.383 . S
C1182 C1181 1.379 . S
H1183 C1177 0.959 . S
H1184 C1177 0.961 . S
H1185 C1177 0.960 . S
H1186 C1178 0.930 . S
H1187 C1179 0.929 . S
H1188 C1196 0.929 . S
H1189 C1198 0.930 . S
H1190 C1200 0.930 . S
H1191 C1203 0.929 . S
H1192 C1206 0.930 . S
H1193 C1208 0.960 . S
H1194 C1208 0.960 . S
H1195 C1208 0.960 . S
C1196 H1188 0.929 . S
C1196 C1197 1.377 1_655 S
C1196 C1198 1.384 . S
C1197 C1196 1.377 1_455 S
C1197 C1203 1.390 . S
C1198 H1189 0.930 . S
C1198 C1196 1.384 . S
C1198 C1199 1.372 . S
C1199 C1198 1.372 . S
C1199 C1200 1.400 1_655 S
C1199 C1204 1.490 . S
C1200 H1190 0.930 . S
C1200 C1199 1.400 1_455 S
C1200 C1203 1.386 . S
H1201 C1217 0.930 . S
H1202 C1218 0.931 . S
C1203 H1191 0.929 . S
C1203 C1197 1.390 . S
C1203 C1200 1.386 . S
C1204 C1199 1.490 . S
C1204 C1206 1.395 . S
C1204 C1207 1.403 . S
H1205 C1211 0.930 . S
C1206 H1192 0.930 . S
C1206 C1204 1.395 . S
C1206 C1209 1.403 . S
C1207 C1204 1.403 . S
C1207 C1208 1.524 1_655 S
C1207 C1211 1.400 . S
C1208 H1193 0.960 . S
C1208 H1194 0.960 . S
C1208 H1195 0.960 . S
C1208 C1207 1.524 1_455 S
C1209 C1206 1.403 . S
C1209 C1210 1.392 . S
C1209 C1213 1.495 . S
C1210 C1209 1.392 . S
C1210 C1211 1.385 . S
C1210 C1212 1.478 . S
C1211 H1205 0.930 . S
C1211 C1207 1.400 . S
C1211 C1210 1.385 . S
C1212 C1210 1.478 . S
C1212 C1214 1.381 . S
C1212 C1218 1.383 . S
C1213 C1209 1.495 . S
C1213 H1219 0.959 . S
C1213 H1220 0.961 . S
C1213 H1221 0.960 . S
C1214 C1212 1.381 . S
C1214 C1215 1.394 . S
C1214 H1222 0.930 . S
C1215 C1214 1.394 . S
C1215 C1216 1.383 1_556 S
C1215 H1223 0.929 . S
C1216 C1215 1.383 1_554 S
C1216 C1217 1.377 . S
C1217 H1201 0.930 . S
C1217 C1216 1.377 . S
C1217 C1218 1.379 1_554 S
C1218 H1202 0.931 . S
C1218 C1212 1.383 . S
C1218 C1217 1.379 1_556 S
H1219 C1213 0.959 . S
H1220 C1213 0.961 . S
H1221 C1213 0.960 . S
H1222 C1214 0.930 . S
H1223 C1215 0.929 . S
H1224 C1232 0.929 1_554 S
H1225 C1234 0.930 . S
H1226 C1236 0.930 . S
H1227 C1239 0.929 . S
H1228 C1242 0.930 . S
H1229 C1244 0.960 . S
H1230 C1244 0.960 . S
H1231 C1244 0.960 . S
C1232 H1224 0.929 1_556 S
C1232 C1233 1.377 1_556 S
C1232 C1234 1.384 . S
C1233 C1232 1.377 1_554 S
C1233 C1239 1.390 1_554 S
C1234 H1225 0.930 . S
C1234 C1232 1.384 . S
C1234 C1235 1.372 . S
C1235 C1234 1.372 . S
C1235 C1236 1.400 . S
C1235 C1240 1.490 . S
C1236 H1226 0.930 . S
C1236 C1235 1.400 . S
C1236 C1239 1.386 . S
H1237 C1253 0.930 . S
H1238 C1254 0.931 . S
C1239 H1227 0.929 . S
C1239 C1233 1.390 1_556 S
C1239 C1236 1.386 . S
C1240 C1235 1.490 . S
C1240 C1242 1.395 . S
C1240 C1243 1.403 . S
H1241 C1247 0.930 . S
C1242 H1228 0.930 . S
C1242 C1240 1.395 . S
C1242 C1245 1.403 . S
C1243 C1240 1.403 . S
C1243 C1244 1.524 . S
C1243 C1247 1.400 . S
C1244 H1229 0.960 . S
C1244 H1230 0.960 . S
C1244 H1231 0.960 . S
C1244 C1243 1.524 . S
C1245 C1242 1.403 . S
C1245 C1246 1.392 . S
C1245 C1249 1.495 . S
C1246 C1245 1.392 . S
C1246 C1247 1.385 . S
C1246 C1248 1.478 . S
C1247 H1241 0.930 . S
C1247 C1243 1.400 . S
C1247 C1246 1.385 . S
C1248 C1246 1.478 . S
C1248 C1250 1.381 . S
C1248 C1254 1.383 . S
C1249 C1245 1.495 . S
C1249 H1255 0.959 . S
C1249 H1256 0.961 . S
C1249 H1257 0.960 . S
C1250 C1248 1.381 . S
C1250 C1251 1.394 . S
C1250 H1258 0.930 . S
C1251 C1250 1.394 . S
C1251 C1252 1.383 . S
C1251 H1259 0.929 . S
C1252 C1251 1.383 . S
C1252 C1253 1.377 . S
C1253 H1237 0.930 . S
C1253 C1252 1.377 . S
C1253 C1254 1.379 . S
C1254 H1238 0.931 . S
C1254 C1248 1.383 . S
C1254 C1253 1.379 . S
H1255 C1249 0.959 . S
H1256 C1249 0.961 . S
H1257 C1249 0.960 . S
H1258 C1250 0.930 . S
H1259 C1251 0.929 . S
H1260 C1268 0.929 . S
H1261 C1270 0.930 . S
H1262 C1272 0.930 . S
H1263 C1275 0.929 . S
H1264 C1278 0.930 . S
H1265 C1280 0.960 . S
H1266 C1280 0.960 . S
H1267 C1280 0.960 . S
C1268 H1260 0.929 . S
C1268 C1269 1.377 . S
C1268 C1270 1.384 . S
C1269 C1268 1.377 . S
C1269 C1275 1.390 . S
C1270 H1261 0.930 . S
C1270 C1268 1.384 . S
C1270 C1271 1.372 . S
C1271 C1270 1.372 . S
C1271 C1272 1.400 . S
C1271 C1276 1.490 . S
C1272 H1262 0.930 . S
C1272 C1271 1.400 . S
C1272 C1275 1.386 . S
H1273 C1289 0.930 . S
H1274 C1290 0.931 . S
C1275 H1263 0.929 . S
C1275 C1269 1.390 . S
C1275 C1272 1.386 . S
C1276 C1271 1.490 . S
C1276 C1278 1.395 . S
C1276 C1279 1.403 . S
H1277 C1283 0.930 . S
C1278 H1264 0.930 . S
C1278 C1276 1.395 . S
C1278 C1281 1.403 . S
C1279 C1276 1.403 . S
C1279 C1280 1.524 . S
C1279 C1283 1.400 . S
C1280 H1265 0.960 . S
C1280 H1266 0.960 . S
C1280 H1267 0.960 . S
C1280 C1279 1.524 . S
C1281 C1278 1.403 . S
C1281 C1282 1.392 . S
C1281 C1285 1.495 1_655 S
C1282 C1281 1.392 . S
C1282 C1283 1.385 . S
C1282 C1284 1.478 . S
C1283 H1277 0.930 . S
C1283 C1279 1.400 . S
C1283 C1282 1.385 . S
C1284 C1282 1.478 . S
C1284 C1286 1.381 1_655 S
C1284 C1290 1.383 . S
C1285 C1281 1.495 1_455 S
C1285 H1291 0.959 . S
C1285 H1292 0.961 1_455 S
C1285 H1293 0.960 . S
C1286 C1284 1.381 1_455 S
C1286 C1287 1.394 . S
C1286 H1294 0.930 . S
C1287 C1286 1.394 . S
C1287 C1288 1.383 . S
C1287 H1295 0.929 . S
C1288 C1287 1.383 . S
C1288 C1289 1.377 1_455 S
C1289 H1273 0.930 . S
C1289 C1288 1.377 1_655 S
C1289 C1290 1.379 . S
C1290 H1274 0.931 . S
C1290 C1284 1.383 . S
C1290 C1289 1.379 . S
H1291 C1285 0.959 . S
H1292 C1285 0.961 1_655 S
H1293 C1285 0.960 . S
H1294 C1286 0.930 . S
H1295 C1287 0.929 . S
H1296 C1304 0.929 . S
H1297 C1306 0.930 . S
H1298 C1308 0.930 . S
H1299 C1311 0.929 . S
H1300 C1314 0.930 . S
H1301 C1316 0.960 . S
H1302 C1316 0.960 . S
H1303 C1316 0.960 . S
C1304 H1296 0.929 . S
C1304 C1305 1.377 . S
C1304 C1306 1.384 . S
C1305 C1304 1.377 . S
C1305 C1311 1.390 . S
C1306 H1297 0.930 . S
C1306 C1304 1.384 . S
C1306 C1307 1.372 . S
C1307 C1306 1.372 . S
C1307 C1308 1.400 . S
C1307 C1312 1.490 . S
C1308 H1298 0.930 . S
C1308 C1307 1.400 . S
C1308 C1311 1.386 . S
H1309 C1325 0.930 . S
H1310 C1326 0.931 . S
C1311 H1299 0.929 . S
C1311 C1305 1.390 . S
C1311 C1308 1.386 . S
C1312 C1307 1.490 . S
C1312 C1314 1.395 . S
C1312 C1315 1.403 . S
H1313 C1319 0.930 . S
C1314 H1300 0.930 . S
C1314 C1312 1.395 . S
C1314 C1317 1.403 . S
C1315 C1312 1.403 . S
C1315 C1316 1.524 . S
C1315 C1319 1.400 . S
C1316 H1301 0.960 . S
C1316 H1302 0.960 . S
C1316 H1303 0.960 . S
C1316 C1315 1.524 . S
C1317 C1314 1.403 . S
C1317 C1318 1.392 . S
C1317 C1321 1.495 . S
C1318 C1317 1.392 . S
C1318 C1319 1.385 . S
C1318 C1320 1.478 . S
C1319 H1313 0.930 . S
C1319 C1315 1.400 . S
C1319 C1318 1.385 . S
C1320 C1318 1.478 . S
C1320 C1322 1.381 . S
C1320 C1326 1.383 . S
C1321 C1317 1.495 . S
C1321 H1327 0.959 . S
C1321 H1328 0.961 . S
C1321 H1329 0.960 . S
C1322 C1320 1.381 . S
C1322 C1323 1.394 . S
C1322 H1330 0.930 . S
C1323 C1322 1.394 . S
C1323 C1324 1.383 . S
C1323 H1331 0.929 . S
C1324 C1323 1.383 . S
C1324 C1325 1.377 . S
C1325 H1309 0.930 . S
C1325 C1324 1.377 . S
C1325 C1326 1.379 . S
C1326 H1310 0.931 . S
C1326 C1320 1.383 . S
C1326 C1325 1.379 . S
H1327 C1321 0.959 . S
H1328 C1321 0.961 . S
H1329 C1321 0.960 . S
H1330 C1322 0.930 . S
H1331 C1323 0.929 . S
H1332 C1340 0.929 . S
H1333 C1342 0.930 . S
H1334 C1344 0.930 . S
H1335 C1347 0.929 . S
H1336 C1350 0.930 . S
H1337 C1352 0.960 . S
H1338 C1352 0.960 . S
H1339 C1352 0.960 . S
C1340 H1332 0.929 . S
C1340 C1341 1.377 . S
C1340 C1342 1.384 . S
C1341 C1340 1.377 . S
C1341 C1347 1.390 . S
C1342 H1333 0.930 . S
C1342 C1340 1.384 . S
C1342 C1343 1.372 . S
C1343 C1342 1.372 . S
C1343 C1344 1.400 . S
C1343 C1348 1.490 . S
C1344 H1334 0.930 . S
C1344 C1343 1.400 . S
C1344 C1347 1.386 . S
H1345 C1361 0.930 . S
H1346 C1362 0.931 . S
C1347 H1335 0.929 . S
C1347 C1341 1.390 . S
C1347 C1344 1.386 . S
C1348 C1343 1.490 . S
C1348 C1350 1.395 . S
C1348 C1351 1.403 . S
H1349 C1355 0.930 . S
C1350 H1336 0.930 . S
C1350 C1348 1.395 . S
C1350 C1353 1.403 . S
C1351 C1348 1.403 . S
C1351 C1352 1.524 . S
C1351 C1355 1.400 . S
C1352 H1337 0.960 . S
C1352 H1338 0.960 . S
C1352 H1339 0.960 . S
C1352 C1351 1.524 . S
C1353 C1350 1.403 . S
C1353 C1354 1.392 . S
C1353 C1357 1.495 . S
C1354 C1353 1.392 . S
C1354 C1355 1.385 . S
C1354 C1356 1.478 . S
C1355 H1349 0.930 . S
C1355 C1351 1.400 . S
C1355 C1354 1.385 . S
C1356 C1354 1.478 . S
C1356 C1358 1.381 . S
C1356 C1362 1.383 . S
C1357 C1353 1.495 . S
C1357 H1363 0.959 . S
C1357 H1364 0.961 . S
C1357 H1365 0.960 . S
C1358 C1356 1.381 . S
C1358 C1359 1.394 . S
C1358 H1366 0.930 . S
C1359 C1358 1.394 . S
C1359 C1360 1.383 . S
C1359 H1367 0.929 . S
C1360 C1359 1.383 . S
C1360 C1361 1.377 . S
C1361 H1345 0.930 . S
C1361 C1360 1.377 . S
C1361 C1362 1.379 . S
C1362 H1346 0.931 . S
C1362 C1356 1.383 . S
C1362 C1361 1.379 . S
H1363 C1357 0.959 . S
H1364 C1357 0.961 . S
H1365 C1357 0.960 . S
H1366 C1358 0.930 . S
H1367 C1359 0.929 . S
H1368 C1376 0.929 . S
H1369 C1378 0.930 . S
H1370 C1380 0.930 . S
H1371 C1383 0.929 . S
H1372 C1386 0.930 . S
H1373 C1388 0.960 . S
H1374 C1388 0.960 1_545 S
H1375 C1388 0.960 . S
C1376 H1368 0.929 . S
C1376 C1377 1.377 . S
C1376 C1378 1.384 . S
C1377 C1376 1.377 . S
C1377 C1383 1.390 1_545 S
C1378 H1369 0.930 . S
C1378 C1376 1.384 . S
C1378 C1379 1.372 . S
C1379 C1378 1.372 . S
C1379 C1380 1.400 1_545 S
C1379 C1384 1.490 1_545 S
C1380 H1370 0.930 . S
C1380 C1379 1.400 1_565 S
C1380 C1383 1.386 . S
H1381 C1397 0.930 . S
H1382 C1398 0.931 . S
C1383 H1371 0.929 . S
C1383 C1377 1.390 1_565 S
C1383 C1380 1.386 . S
C1384 C1379 1.490 1_565 S
C1384 C1386 1.395 . S
C1384 C1387 1.403 . S
H1385 C1391 0.930 . S
C1386 H1372 0.930 . S
C1386 C1384 1.395 . S
C1386 C1389 1.403 . S
C1387 C1384 1.403 . S
C1387 C1388 1.524 . S
C1387 C1391 1.400 . S
C1388 H1373 0.960 . S
C1388 H1374 0.960 1_565 S
C1388 H1375 0.960 . S
C1388 C1387 1.524 . S
C1389 C1386 1.403 . S
C1389 C1390 1.392 . S
C1389 C1393 1.495 . S
C1390 C1389 1.392 . S
C1390 C1391 1.385 . S
C1390 C1392 1.478 . S
C1391 H1385 0.930 . S
C1391 C1387 1.400 . S
C1391 C1390 1.385 . S
C1392 C1390 1.478 . S
C1392 C1394 1.381 . S
C1392 C1398 1.383 . S
C1393 C1389 1.495 . S
C1393 H1399 0.959 . S
C1393 H1400 0.961 . S
C1393 H1401 0.960 . S
C1394 C1392 1.381 . S
C1394 C1395 1.394 1_554 S
C1394 H1402 0.930 . S
C1395 C1394 1.394 1_556 S
C1395 C1396 1.383 . S
C1395 H1403 0.929 . S
C1396 C1395 1.383 . S
C1396 C1397 1.377 1_556 S
C1397 H1381 0.930 . S
C1397 C1396 1.377 1_554 S
C1397 C1398 1.379 . S
C1398 H1382 0.931 . S
C1398 C1392 1.383 . S
C1398 C1397 1.379 . S
H1399 C1393 0.959 . S
H1400 C1393 0.961 . S
H1401 C1393 0.960 . S
H1402 C1394 0.930 . S
H1403 C1395 0.929 . S
H1404 C1412 0.929 . S
H1405 C1414 0.930 . S
H1406 C1416 0.930 . S
H1407 C1419 0.950 . S
H1408 C1422 0.930 . S
H1409 C1424 0.960 . S
H1410 C1424 0.960 . S
H1411 C1424 0.960 . S
C1412 H1404 0.929 . S
C1412 C1413 1.372 1_554 S
C1412 C1414 1.384 . S
C1413 C1412 1.372 1_556 S
C1413 C1419 1.390 . S
C1414 H1405 0.930 . S
C1414 C1412 1.384 . S
C1414 C1415 1.372 . S
C1415 C1414 1.372 . S
C1415 C1416 1.400 . S
C1415 C1420 1.490 . S
C1416 H1406 0.930 . S
C1416 C1415 1.400 . S
C1416 C1419 1.365 1_554 S
H1417 C1433 0.930 . S
H1418 C1434 0.931 . S
C1419 H1407 0.950 . S
C1419 C1413 1.390 . S
C1419 C1416 1.365 1_556 S
C1420 C1415 1.490 . S
C1420 C1422 1.395 . S
C1420 C1423 1.403 . S
H1421 C1427 0.930 . S
C1422 H1408 0.930 . S
C1422 C1420 1.395 . S
C1422 C1425 1.403 . S
C1423 C1420 1.403 . S
C1423 C1424 1.524 . S
C1423 C1427 1.400 . S
C1424 H1409 0.960 . S
C1424 H1410 0.960 . S
C1424 H1411 0.960 . S
C1424 C1423 1.524 . S
C1425 C1422 1.403 . S
C1425 C1426 1.392 . S
C1425 C1429 1.495 . S
C1426 C1425 1.392 . S
C1426 C1427 1.385 . S
C1426 C1428 1.478 . S
C1427 H1421 0.930 . S
C1427 C1423 1.400 . S
C1427 C1426 1.385 . S
C1428 C1426 1.478 . S
C1428 C1430 1.381 . S
C1428 C1434 1.383 . S
C1429 C1425 1.495 . S
C1429 H1435 0.959 . S
C1429 H1436 0.961 . S
C1429 H1437 0.960 . S
C1430 C1428 1.381 . S
C1430 C1431 1.394 . S
C1430 H1438 0.930 . S
C1431 C1430 1.394 . S
C1431 C1432 1.383 . S
C1431 H1439 0.929 . S
C1432 C1431 1.383 . S
C1432 C1433 1.377 . S
C1433 H1417 0.930 . S
C1433 C1432 1.377 . S
C1433 C1434 1.379 . S
C1434 H1418 0.931 . S
C1434 C1428 1.383 . S
C1434 C1433 1.379 . S
H1435 C1429 0.959 . S
H1436 C1429 0.961 . S
H1437 C1429 0.960 . S
H1438 C1430 0.930 . S
H1439 C1431 0.929 . S
H1440 C1448 0.929 . S
H1441 C1450 0.930 . S
H1442 C1452 0.930 . S
H1443 C1455 0.905 1_556 S
H1444 C1458 0.930 . S
H1445 C1460 0.960 . S
H1446 C1460 0.960 . S
H1447 C1460 0.960 . S
C1448 H1440 0.929 . S
C1448 C1449 1.373 1_554 S
C1448 C1450 1.384 . S
C1449 C1448 1.373 1_556 S
C1449 C1455 1.389 1_556 S
C1450 H1441 0.930 . S
C1450 C1448 1.384 . S
C1450 C1451 1.372 . S
C1451 C1450 1.372 . S
C1451 C1452 1.400 . S
C1451 C1456 1.490 . S
C1452 H1442 0.930 . S
C1452 C1451 1.400 . S
C1452 C1455 1.412 . S
H1453 C1469 0.930 . S
H1454 C1470 0.931 . S
C1455 H1443 0.905 1_554 S
C1455 C1449 1.389 1_554 S
C1455 C1452 1.412 . S
C1456 C1451 1.490 . S
C1456 C1458 1.395 . S
C1456 C1459 1.403 . S
H1457 C1463 0.930 . S
C1458 H1444 0.930 . S
C1458 C1456 1.395 . S
C1458 C1461 1.403 . S
C1459 C1456 1.403 . S
C1459 C1460 1.524 . S
C1459 C1463 1.400 . S
C1460 H1445 0.960 . S
C1460 H1446 0.960 . S
C1460 H1447 0.960 . S
C1460 C1459 1.524 . S
C1461 C1458 1.403 . S
C1461 C1462 1.392 . S
C1461 C1465 1.495 . S
C1462 C1461 1.392 . S
C1462 C1463 1.385 . S
C1462 C1464 1.478 . S
C1463 H1457 0.930 . S
C1463 C1459 1.400 . S
C1463 C1462 1.385 . S
C1464 C1462 1.478 . S
C1464 C1466 1.381 . S
C1464 C1470 1.383 . S
C1465 C1461 1.495 . S
C1465 H1471 0.959 . S
C1465 H1472 0.961 . S
C1465 H1473 0.960 . S
C1466 C1464 1.381 . S
C1466 C1467 1.394 . S
C1466 H1474 0.930 . S
C1467 C1466 1.394 . S
C1467 C1468 1.383 . S
C1467 H1475 0.929 . S
C1468 C1467 1.383 . S
C1468 C1469 1.377 . S
C1469 H1453 0.930 . S
C1469 C1468 1.377 . S
C1469 C1470 1.379 . S
C1470 H1454 0.931 . S
C1470 C1464 1.383 . S
C1470 C1469 1.379 . S
H1471 C1465 0.959 . S
H1472 C1465 0.961 . S
H1473 C1465 0.960 . S
H1474 C1466 0.930 . S
H1475 C1467 0.929 . S
H1476 C1484 0.929 . S
H1477 C1486 0.930 . S
H1478 C1488 0.930 . S
H1479 C1491 0.929 . S
H1480 C1494 0.930 . S
H1481 C1496 0.960 . S
H1482 C1496 0.960 . S
H1483 C1496 0.960 . S
C1484 H1476 0.929 . S
C1484 C1485 1.377 . S
C1484 C1486 1.384 . S
C1485 C1484 1.377 . S
C1485 C1491 1.390 . S
C1486 H1477 0.930 . S
C1486 C1484 1.384 . S
C1486 C1487 1.372 . S
C1487 C1486 1.372 . S
C1487 C1488 1.400 . S
C1487 C1492 1.490 . S
C1488 H1478 0.930 . S
C1488 C1487 1.400 . S
C1488 C1491 1.386 . S
H1489 C1505 0.930 . S
H1490 C1506 0.931 . S
C1491 H1479 0.929 . S
C1491 C1485 1.390 . S
C1491 C1488 1.386 . S
C1492 C1487 1.490 . S
C1492 C1494 1.395 . S
C1492 C1495 1.403 . S
H1493 C1499 0.930 . S
C1494 H1480 0.930 . S
C1494 C1492 1.395 . S
C1494 C1497 1.403 . S
C1495 C1492 1.403 . S
C1495 C1496 1.524 . S
C1495 C1499 1.400 . S
C1496 H1481 0.960 . S
C1496 H1482 0.960 . S
C1496 H1483 0.960 . S
C1496 C1495 1.524 . S
C1497 C1494 1.403 . S
C1497 C1498 1.392 . S
C1497 C1501 1.495 . S
C1498 C1497 1.392 . S
C1498 C1499 1.385 . S
C1498 C1500 1.478 . S
C1499 H1493 0.930 . S
C1499 C1495 1.400 . S
C1499 C1498 1.385 . S
C1500 C1498 1.478 . S
C1500 C1502 1.381 1_455 S
C1500 C1506 1.383 . S
C1501 C1497 1.495 . S
C1501 H1507 0.959 . S
C1501 H1508 0.961 . S
C1501 H1509 0.960 . S
C1502 C1500 1.381 1_655 S
C1502 C1503 1.394 . S
C1502 H1510 0.930 . S
C1503 C1502 1.394 . S
C1503 C1504 1.383 . S
C1503 H1511 0.929 . S
C1504 C1503 1.383 . S
C1504 C1505 1.377 1_655 S
C1505 H1489 0.930 . S
C1505 C1504 1.377 1_455 S
C1505 C1506 1.379 . S
C1506 H1490 0.931 . S
C1506 C1500 1.383 . S
C1506 C1505 1.379 . S
H1507 C1501 0.959 . S
H1508 C1501 0.961 . S
H1509 C1501 0.960 . S
H1510 C1502 0.930 . S
H1511 C1503 0.929 . S
H1512 C1520 0.929 . S
H1513 C1522 0.930 . S
H1514 C1524 0.930 . S
H1515 C1527 0.929 . S
H1516 C1530 0.930 . S
H1517 C1532 0.960 . S
H1518 C1532 0.960 . S
H1519 C1532 0.960 . S
C1520 H1512 0.929 . S
C1520 C1521 1.377 . S
C1520 C1522 1.384 . S
C1521 C1520 1.377 . S
C1521 C1527 1.390 . S
C1522 H1513 0.930 . S
C1522 C1520 1.384 . S
C1522 C1523 1.372 . S
C1523 C1522 1.372 . S
C1523 C1524 1.400 . S
C1523 C1528 1.490 . S
C1524 H1514 0.930 . S
C1524 C1523 1.400 . S
C1524 C1527 1.386 . S
H1525 C1541 0.930 . S
H1526 C1542 0.931 . S
C1527 H1515 0.929 . S
C1527 C1521 1.390 . S
C1527 C1524 1.386 . S
C1528 C1523 1.490 . S
C1528 C1530 1.395 . S
C1528 C1531 1.403 . S
H1529 C1535 0.930 . S
C1530 H1516 0.930 . S
C1530 C1528 1.395 . S
C1530 C1533 1.403 . S
C1531 C1528 1.403 . S
C1531 C1532 1.524 . S
C1531 C1535 1.400 . S
C1532 H1517 0.960 . S
C1532 H1518 0.960 . S
C1532 H1519 0.960 . S
C1532 C1531 1.524 . S
C1533 C1530 1.403 . S
C1533 C1534 1.392 . S
C1533 C1537 1.495 . S
C1534 C1533 1.392 . S
C1534 C1535 1.385 . S
C1534 C1536 1.478 . S
C1535 H1529 0.930 . S
C1535 C1531 1.400 . S
C1535 C1534 1.385 . S
C1536 C1534 1.478 . S
C1536 C1538 1.381 . S
C1536 C1542 1.383 . S
C1537 C1533 1.495 . S
C1537 H1543 0.959 . S
C1537 H1544 0.961 . S
C1537 H1545 0.960 . S
C1538 C1536 1.381 . S
C1538 C1539 1.394 . S
C1538 H1546 0.930 . S
C1539 C1538 1.394 . S
C1539 C1540 1.383 . S
C1539 H1547 0.929 . S
C1540 C1539 1.383 . S
C1540 C1541 1.377 . S
C1541 H1525 0.930 . S
C1541 C1540 1.377 . S
C1541 C1542 1.379 . S
C1542 H1526 0.931 . S
C1542 C1536 1.383 . S
C1542 C1541 1.379 . S
H1543 C1537 0.959 . S
H1544 C1537 0.961 . S
H1545 C1537 0.960 . S
H1546 C1538 0.930 . S
H1547 C1539 0.929 . S
H1548 C1556 0.929 . S
H1549 C1558 0.930 . S
H1550 C1560 0.930 . S
H1551 C1563 0.929 . S
H1552 C1566 0.930 . S
H1553 C1568 0.960 . S
H1554 C1568 0.960 . S
H1555 C1568 0.960 . S
C1556 H1548 0.929 . S
C1556 C1557 1.377 . S
C1556 C1558 1.384 . S
C1557 C1556 1.377 . S
C1557 C1563 1.390 . S
C1558 H1549 0.930 . S
C1558 C1556 1.384 . S
C1558 C1559 1.372 . S
C1559 C1558 1.372 . S
C1559 C1560 1.400 . S
C1559 C1564 1.490 . S
C1560 H1550 0.930 . S
C1560 C1559 1.400 . S
C1560 C1563 1.386 . S
H1561 C1577 0.930 . S
H1562 C1578 0.931 . S
C1563 H1551 0.929 . S
C1563 C1557 1.390 . S
C1563 C1560 1.386 . S
C1564 C1559 1.490 . S
C1564 C1566 1.395 . S
C1564 C1567 1.403 . S
H1565 C1571 0.930 . S
C1566 H1552 0.930 . S
C1566 C1564 1.395 . S
C1566 C1569 1.403 . S
C1567 C1564 1.403 . S
C1567 C1568 1.524 . S
C1567 C1571 1.400 . S
C1568 H1553 0.960 . S
C1568 H1554 0.960 . S
C1568 H1555 0.960 . S
C1568 C1567 1.524 . S
C1569 C1566 1.403 . S
C1569 C1570 1.392 . S
C1569 C1573 1.495 . S
C1570 C1569 1.392 . S
C1570 C1571 1.385 . S
C1570 C1572 1.478 . S
C1571 H1565 0.930 . S
C1571 C1567 1.400 . S
C1571 C1570 1.385 . S
C1572 C1570 1.478 . S
C1572 C1574 1.381 . S
C1572 C1578 1.383 . S
C1573 C1569 1.495 . S
C1573 H1579 0.959 . S
C1573 H1580 0.961 1_545 S
C1573 H1581 0.960 1_545 S
C1574 C1572 1.381 . S
C1574 C1575 1.394 1_545 S
C1574 H1582 0.930 . S
C1575 C1574 1.394 1_565 S
C1575 C1576 1.383 . S
C1575 H1583 0.929 . S
C1576 C1575 1.383 . S
C1576 C1577 1.377 . S
C1577 H1561 0.930 . S
C1577 C1576 1.377 . S
C1577 C1578 1.379 1_565 S
C1578 H1562 0.931 . S
C1578 C1572 1.383 . S
C1578 C1577 1.379 1_545 S
H1579 C1573 0.959 . S
H1580 C1573 0.961 1_565 S
H1581 C1573 0.960 1_565 S
H1582 C1574 0.930 . S
H1583 C1575 0.929 . S
H1584 C1592 0.929 . S
H1585 C1594 0.930 . S
H1586 C1596 0.930 . S
H1587 C1599 0.929 . S
H1588 C1602 0.930 . S
H1589 C1604 0.960 . S
H1590 C1604 0.960 . S
H1591 C1604 0.960 . S
C1592 H1584 0.929 . S
C1592 C1593 1.377 . S
C1592 C1594 1.384 . S
C1593 C1592 1.377 . S
C1593 C1599 1.390 . S
C1594 H1585 0.930 . S
C1594 C1592 1.384 . S
C1594 C1595 1.372 . S
C1595 C1594 1.372 . S
C1595 C1596 1.400 . S
C1595 C1600 1.490 . S
C1596 H1586 0.930 . S
C1596 C1595 1.400 . S
C1596 C1599 1.386 . S
H1597 C1613 0.930 . S
H1598 C1614 0.931 . S
C1599 H1587 0.929 . S
C1599 C1593 1.390 . S
C1599 C1596 1.386 . S
C1600 C1595 1.490 . S
C1600 C1602 1.395 . S
C1600 C1603 1.403 . S
H1601 C1607 0.930 . S
C1602 H1588 0.930 . S
C1602 C1600 1.395 . S
C1602 C1605 1.403 . S
C1603 C1600 1.403 . S
C1603 C1604 1.524 . S
C1603 C1607 1.400 . S
C1604 H1589 0.960 . S
C1604 H1590 0.960 . S
C1604 H1591 0.960 . S
C1604 C1603 1.524 . S
C1605 C1602 1.403 . S
C1605 C1606 1.392 . S
C1605 C1609 1.495 . S
C1606 C1605 1.392 . S
C1606 C1607 1.385 . S
C1606 C1608 1.478 . S
C1607 H1601 0.930 . S
C1607 C1603 1.400 . S
C1607 C1606 1.385 . S
C1608 C1606 1.478 . S
C1608 C1610 1.376 . S
C1608 C1614 1.383 . S
C1609 C1605 1.495 . S
C1609 H1615 0.959 . S
C1609 H1616 0.961 . S
C1609 H1617 0.960 . S
C1610 C1608 1.376 . S
C1610 C1611 1.397 1_545 S
C1610 H1618 0.932 1_545 S
C1611 C1610 1.397 1_565 S
C1611 C1612 1.383 . S
C1611 H1619 0.929 . S
C1612 C1611 1.383 . S
C1612 C1613 1.377 1_565 S
C1613 H1597 0.930 . S
C1613 C1612 1.377 1_545 S
C1613 C1614 1.379 . S
C1614 H1598 0.931 . S
C1614 C1608 1.383 . S
C1614 C1613 1.379 . S
H1615 C1609 0.959 . S
H1616 C1609 0.961 . S
H1617 C1609 0.960 . S
H1618 C1610 0.932 1_565 S
H1619 C1611 0.929 . S
H1620 C1628 0.929 . S
H1621 C1630 0.930 . S
H1622 C1632 0.930 . S
H1623 C1635 0.929 . S
H1624 C1638 0.930 . S
H1625 C1640 0.960 . S
H1626 C1640 0.960 . S
H1627 C1640 0.960 . S
C1628 H1620 0.929 . S
C1628 C1629 1.377 . S
C1628 C1630 1.384 . S
C1629 C1628 1.377 . S
C1629 C1635 1.390 . S
C1630 H1621 0.930 . S
C1630 C1628 1.384 . S
C1630 C1631 1.372 . S
C1631 C1630 1.372 . S
C1631 C1632 1.400 . S
C1631 C1636 1.490 . S
C1632 H1622 0.930 . S
C1632 C1631 1.400 . S
C1632 C1635 1.386 . S
H1633 C1649 0.930 . S
H1634 C1650 0.931 . S
C1635 H1623 0.929 . S
C1635 C1629 1.390 . S
C1635 C1632 1.386 . S
C1636 C1631 1.490 . S
C1636 C1638 1.395 . S
C1636 C1639 1.403 . S
H1637 C1643 0.930 . S
C1638 H1624 0.930 . S
C1638 C1636 1.395 . S
C1638 C1641 1.403 . S
C1639 C1636 1.403 . S
C1639 C1640 1.524 . S
C1639 C1643 1.400 . S
C1640 H1625 0.960 . S
C1640 H1626 0.960 . S
C1640 H1627 0.960 . S
C1640 C1639 1.524 . S
C1641 C1638 1.403 . S
C1641 C1642 1.392 . S
C1641 C1645 1.495 . S
C1642 C1641 1.392 . S
C1642 C1643 1.385 . S
C1642 C1644 1.478 . S
C1643 H1637 0.930 . S
C1643 C1639 1.400 . S
C1643 C1642 1.385 . S
C1644 C1642 1.478 . S
C1644 C1646 1.381 . S
C1644 C1650 1.383 1_455 S
C1645 C1641 1.495 . S
C1645 H1651 0.959 . S
C1645 H1652 0.961 . S
C1645 H1653 0.960 . S
C1646 C1644 1.381 . S
C1646 C1647 1.394 . S
C1646 H1654 0.930 . S
C1647 C1646 1.394 . S
C1647 C1648 1.383 1_455 S
C1647 H1655 0.929 . S
C1648 C1647 1.383 1_655 S
C1648 C1649 1.377 . S
C1649 H1633 0.930 . S
C1649 C1648 1.377 . S
C1649 C1650 1.379 . S
C1650 H1634 0.931 . S
C1650 C1644 1.383 1_655 S
C1650 C1649 1.379 . S
H1651 C1645 0.959 . S
H1652 C1645 0.961 . S
H1653 C1645 0.960 . S
H1654 C1646 0.930 . S
H1655 C1647 0.929 . S
H1656 C1664 0.929 . S
H1657 C1666 0.930 . S
H1658 C1668 0.930 . S
H1659 C1671 0.929 . S
H1660 C1674 0.930 . S
H1661 C1676 0.960 . S
H1662 C1676 0.960 . S
H1663 C1676 0.960 . S
C1664 H1656 0.929 . S
C1664 C1665 1.377 . S
C1664 C1666 1.384 . S
C1665 C1664 1.377 . S
C1665 C1671 1.390 . S
C1666 H1657 0.930 . S
C1666 C1664 1.384 . S
C1666 C1667 1.372 . S
C1667 C1666 1.372 . S
C1667 C1668 1.400 . S
C1667 C1672 1.490 . S
C1668 H1658 0.930 . S
C1668 C1667 1.400 . S
C1668 C1671 1.386 . S
H1669 C1685 0.930 . S
H1670 C1686 0.931 . S
C1671 H1659 0.929 . S
C1671 C1665 1.390 . S
C1671 C1668 1.386 . S
C1672 C1667 1.490 . S
C1672 C1674 1.395 . S
C1672 C1675 1.403 . S
H1673 C1679 0.930 . S
C1674 H1660 0.930 . S
C1674 C1672 1.395 . S
C1674 C1677 1.403 . S
C1675 C1672 1.403 . S
C1675 C1676 1.524 . S
C1675 C1679 1.400 . S
C1676 H1661 0.960 . S
C1676 H1662 0.960 . S
C1676 H1663 0.960 . S
C1676 C1675 1.524 . S
C1677 C1674 1.403 . S
C1677 C1678 1.392 . S
C1677 C1681 1.495 . S
C1678 C1677 1.392 . S
C1678 C1679 1.385 . S
C1678 C1680 1.478 . S
C1679 H1673 0.930 . S
C1679 C1675 1.400 . S
C1679 C1678 1.385 . S
C1680 C1678 1.478 . S
C1680 C1682 1.381 . S
C1680 C1686 1.383 . S
C1681 C1677 1.495 . S
C1681 H1687 0.959 . S
C1681 H1688 0.961 . S
C1681 H1689 0.960 . S
C1682 C1680 1.381 . S
C1682 C1683 1.394 . S
C1682 H1690 0.930 . S
C1683 C1682 1.394 . S
C1683 C1684 1.383 . S
C1683 H1691 0.929 . S
C1684 C1683 1.383 . S
C1684 C1685 1.377 . S
C1685 H1669 0.930 . S
C1685 C1684 1.377 . S
C1685 C1686 1.379 . S
C1686 H1670 0.931 . S
C1686 C1680 1.383 . S
C1686 C1685 1.379 . S
H1687 C1681 0.959 . S
H1688 C1681 0.961 . S
H1689 C1681 0.960 . S
H1690 C1682 0.930 . S
H1691 C1683 0.929 . S
H1692 C1700 0.929 . S
H1693 C1702 0.930 . S
H1694 C1704 0.930 . S
H1695 C1707 0.929 . S
H1696 C1710 0.930 . S
H1697 C1712 0.960 . S
H1698 C1712 0.960 . S
H1699 C1712 0.960 . S
C1700 H1692 0.929 . S
C1700 C1701 1.377 . S
C1700 C1702 1.384 . S
C1701 C1700 1.377 . S
C1701 C1707 1.390 . S
C1702 H1693 0.930 . S
C1702 C1700 1.384 . S
C1702 C1703 1.372 . S
C1703 C1702 1.372 . S
C1703 C1704 1.400 . S
C1703 C1708 1.490 . S
C1704 H1694 0.930 . S
C1704 C1703 1.400 . S
C1704 C1707 1.386 . S
H1705 C1721 0.930 . S
H1706 C1722 0.931 . S
C1707 H1695 0.929 . S
C1707 C1701 1.390 . S
C1707 C1704 1.386 . S
C1708 C1703 1.490 . S
C1708 C1710 1.395 . S
C1708 C1711 1.403 . S
H1709 C1715 0.930 . S
C1710 H1696 0.930 . S
C1710 C1708 1.395 . S
C1710 C1713 1.403 . S
C1711 C1708 1.403 . S
C1711 C1712 1.524 . S
C1711 C1715 1.400 . S
C1712 H1697 0.960 . S
C1712 H1698 0.960 . S
C1712 H1699 0.960 . S
C1712 C1711 1.524 . S
C1713 C1710 1.403 . S
C1713 C1714 1.392 . S
C1713 C1717 1.495 . S
C1714 C1713 1.392 . S
C1714 C1715 1.385 . S
C1714 C1716 1.478 . S
C1715 H1709 0.930 . S
C1715 C1711 1.400 . S
C1715 C1714 1.385 . S
C1716 C1714 1.478 . S
C1716 C1718 1.381 . S
C1716 C1722 1.383 . S
C1717 C1713 1.495 . S
C1717 H1723 0.959 . S
C1717 H1724 0.961 . S
C1717 H1725 0.960 . S
C1718 C1716 1.381 . S
C1718 C1719 1.394 . S
C1718 H1726 0.930 . S
C1719 C1718 1.394 . S
C1719 C1720 1.383 . S
C1719 H1727 0.929 . S
C1720 C1719 1.383 . S
C1720 C1721 1.377 . S
C1721 H1705 0.930 . S
C1721 C1720 1.377 . S
C1721 C1722 1.379 . S
C1722 H1706 0.931 . S
C1722 C1716 1.383 . S
C1722 C1721 1.379 . S
H1723 C1717 0.959 . S
H1724 C1717 0.961 . S
H1725 C1717 0.960 . S
H1726 C1718 0.930 . S
H1727 C1719 0.929 . S
H1728 C1736 0.929 . S
H1729 C1738 0.930 . S
H1730 C1740 0.930 . S
H1731 C1743 0.929 . S
H1732 C1746 0.930 . S
H1733 C1748 0.960 . S
H1734 C1748 0.960 . S
H1735 C1748 0.960 . S
C1736 H1728 0.929 . S
C1736 C1737 1.377 . S
C1736 C1738 1.384 . S
C1737 C1736 1.377 . S
C1737 C1743 1.390 . S
C1738 H1729 0.930 . S
C1738 C1736 1.384 . S
C1738 C1739 1.372 . S
C1739 C1738 1.372 . S
C1739 C1740 1.400 . S
C1739 C1744 1.490 . S
C1740 H1730 0.930 . S
C1740 C1739 1.400 . S
C1740 C1743 1.386 . S
H1741 C1757 0.930 . S
H1742 C1758 0.931 . S
C1743 H1731 0.929 . S
C1743 C1737 1.390 . S
C1743 C1740 1.386 . S
C1744 C1739 1.490 . S
C1744 C1746 1.395 . S
C1744 C1747 1.403 . S
H1745 C1751 0.930 . S
C1746 H1732 0.930 . S
C1746 C1744 1.395 . S
C1746 C1749 1.403 . S
C1747 C1744 1.403 . S
C1747 C1748 1.524 . S
C1747 C1751 1.400 . S
C1748 H1733 0.960 . S
C1748 H1734 0.960 . S
C1748 H1735 0.960 . S
C1748 C1747 1.524 . S
C1749 C1746 1.403 . S
C1749 C1750 1.392 . S
C1749 C1753 1.495 . S
C1750 C1749 1.392 . S
C1750 C1751 1.385 . S
C1750 C1752 1.478 . S
C1751 H1745 0.930 . S
C1751 C1747 1.400 . S
C1751 C1750 1.385 . S
C1752 C1750 1.478 . S
C1752 C1754 1.381 . S
C1752 C1758 1.383 . S
C1753 C1749 1.495 . S
C1753 H1759 0.959 . S
C1753 H1760 0.961 . S
C1753 H1761 0.960 . S
C1754 C1752 1.381 . S
C1754 C1755 1.394 . S
C1754 H1762 0.930 . S
C1755 C1754 1.394 . S
C1755 C1756 1.383 . S
C1755 H1763 0.929 . S
C1756 C1755 1.383 . S
C1756 C1757 1.377 . S
C1757 H1741 0.930 . S
C1757 C1756 1.377 . S
C1757 C1758 1.379 . S
C1758 H1742 0.931 . S
C1758 C1752 1.383 . S
C1758 C1757 1.379 . S
H1759 C1753 0.959 . S
H1760 C1753 0.961 . S
H1761 C1753 0.960 . S
H1762 C1754 0.930 . S
H1763 C1755 0.929 . S
H1764 C1772 0.929 . S
H1765 C1774 0.930 . S
H1766 C1776 0.930 . S
H1767 C1779 0.929 . S
H1768 C1782 0.930 . S
H1769 C1784 0.960 . S
H1770 C1784 0.960 . S
H1771 C1784 0.960 . S
C1772 H1764 0.929 . S
C1772 C1773 1.377 . S
C1772 C1774 1.384 . S
C1773 C1772 1.377 . S
C1773 C1779 1.390 . S
C1774 H1765 0.930 . S
C1774 C1772 1.384 . S
C1774 C1775 1.372 . S
C1775 C1774 1.372 . S
C1775 C1776 1.400 . S
C1775 C1780 1.490 . S
C1776 H1766 0.930 . S
C1776 C1775 1.400 . S
C1776 C1779 1.386 . S
H1777 C1793 0.930 . S
H1778 C1794 0.931 . S
C1779 H1767 0.929 . S
C1779 C1773 1.390 . S
C1779 C1776 1.386 . S
C1780 C1775 1.490 . S
C1780 C1782 1.395 . S
C1780 C1783 1.403 . S
H1781 C1787 0.930 . S
C1782 H1768 0.930 . S
C1782 C1780 1.395 . S
C1782 C1785 1.403 . S
C1783 C1780 1.403 . S
C1783 C1784 1.524 . S
C1783 C1787 1.400 . S
C1784 H1769 0.960 . S
C1784 H1770 0.960 . S
C1784 H1771 0.960 . S
C1784 C1783 1.524 . S
C1785 C1782 1.403 . S
C1785 C1786 1.392 . S
C1785 C1789 1.495 . S
C1786 C1785 1.392 . S
C1786 C1787 1.385 . S
C1786 C1788 1.478 . S
C1787 H1781 0.930 . S
C1787 C1783 1.400 . S
C1787 C1786 1.385 . S
C1788 C1786 1.478 . S
C1788 C1790 1.381 . S
C1788 C1794 1.383 . S
C1789 C1785 1.495 . S
C1789 H1795 0.959 . S
C1789 H1796 0.961 . S
C1789 H1797 0.960 . S
C1790 C1788 1.381 . S
C1790 C1791 1.394 . S
C1790 H1798 0.930 . S
C1791 C1790 1.394 . S
C1791 C1792 1.383 . S
C1791 H1799 0.929 . S
C1792 C1791 1.383 . S
C1792 C1793 1.377 . S
C1793 H1777 0.930 . S
C1793 C1792 1.377 . S
C1793 C1794 1.379 . S
C1794 H1778 0.931 . S
C1794 C1788 1.383 . S
C1794 C1793 1.379 . S
H1795 C1789 0.959 . S
H1796 C1789 0.961 . S
H1797 C1789 0.960 . S
H1798 C1790 0.930 . S
H1799 C1791 0.929 . S
H1800 C1808 0.929 . S
H1801 C1810 0.930 . S
H1802 C1812 0.930 . S
H1803 C1815 0.929 . S
H1804 C1818 0.930 . S
H1805 C1820 0.960 . S
H1806 C1820 0.960 . S
H1807 C1820 0.960 . S
C1808 H1800 0.929 . S
C1808 C1809 1.377 . S
C1808 C1810 1.384 . S
C1809 C1808 1.377 . S
C1809 C1815 1.390 . S
C1810 H1801 0.930 . S
C1810 C1808 1.384 . S
C1810 C1811 1.372 . S
C1811 C1810 1.372 . S
C1811 C1812 1.400 . S
C1811 C1816 1.490 . S
C1812 H1802 0.930 . S
C1812 C1811 1.400 . S
C1812 C1815 1.386 . S
H1813 C1829 0.930 . S
H1814 C1830 0.931 . S
C1815 H1803 0.929 . S
C1815 C1809 1.390 . S
C1815 C1812 1.386 . S
C1816 C1811 1.490 . S
C1816 C1818 1.395 . S
C1816 C1819 1.403 . S
H1817 C1823 0.930 . S
C1818 H1804 0.930 . S
C1818 C1816 1.395 . S
C1818 C1821 1.403 . S
C1819 C1816 1.403 . S
C1819 C1820 1.524 . S
C1819 C1823 1.400 . S
C1820 H1805 0.960 . S
C1820 H1806 0.960 . S
C1820 H1807 0.960 . S
C1820 C1819 1.524 . S
C1821 C1818 1.403 . S
C1821 C1822 1.392 . S
C1821 C1825 1.495 . S
C1822 C1821 1.392 . S
C1822 C1823 1.385 . S
C1822 C1824 1.478 . S
C1823 H1817 0.930 . S
C1823 C1819 1.400 . S
C1823 C1822 1.385 . S
C1824 C1822 1.478 . S
C1824 C1826 1.381 . S
C1824 C1830 1.383 . S
C1825 C1821 1.495 . S
C1825 H1831 0.959 . S
C1825 H1832 0.961 . S
C1825 H1833 0.960 . S
C1826 C1824 1.381 . S
C1826 C1827 1.394 . S
C1826 H1834 0.930 . S
C1827 C1826 1.394 . S
C1827 C1828 1.383 . S
C1827 H1835 0.929 . S
C1828 C1827 1.383 . S
C1828 C1829 1.377 . S
C1829 H1813 0.930 . S
C1829 C1828 1.377 . S
C1829 C1830 1.379 . S
C1830 H1814 0.931 . S
C1830 C1824 1.383 . S
C1830 C1829 1.379 . S
H1831 C1825 0.959 . S
H1832 C1825 0.961 . S
H1833 C1825 0.960 . S
H1834 C1826 0.930 . S
H1835 C1827 0.929 . S
H1836 C1844 0.929 . S
H1837 C1846 0.930 . S
H1838 C1848 0.930 . S
H1839 C1851 0.929 . S
H1840 C1854 0.930 . S
H1841 C1856 0.960 . S
H1842 C1856 0.960 . S
H1843 C1856 0.960 . S
C1844 H1836 0.929 . S
C1844 C1845 1.377 . S
C1844 C1846 1.384 . S
C1845 C1844 1.377 . S
C1845 C1851 1.390 . S
C1846 H1837 0.930 . S
C1846 C1844 1.384 . S
C1846 C1847 1.372 . S
C1847 C1846 1.372 . S
C1847 C1848 1.400 . S
C1847 C1852 1.490 . S
C1848 H1838 0.930 . S
C1848 C1847 1.400 . S
C1848 C1851 1.386 . S
H1849 C1865 0.930 . S
H1850 C1866 0.931 . S
C1851 H1839 0.929 . S
C1851 C1845 1.390 . S
C1851 C1848 1.386 . S
C1852 C1847 1.490 . S
C1852 C1854 1.395 . S
C1852 C1855 1.403 . S
H1853 C1859 0.930 . S
C1854 H1840 0.930 . S
C1854 C1852 1.395 . S
C1854 C1857 1.403 . S
C1855 C1852 1.403 . S
C1855 C1856 1.524 . S
C1855 C1859 1.400 . S
C1856 H1841 0.960 . S
C1856 H1842 0.960 . S
C1856 H1843 0.960 . S
C1856 C1855 1.524 . S
C1857 C1854 1.403 . S
C1857 C1858 1.392 . S
C1857 C1861 1.495 . S
C1858 C1857 1.392 . S
C1858 C1859 1.385 . S
C1858 C1860 1.478 . S
C1859 H1853 0.930 . S
C1859 C1855 1.400 . S
C1859 C1858 1.385 . S
C1860 C1858 1.478 . S
C1860 C1862 1.381 . S
C1860 C1866 1.383 . S
C1861 C1857 1.495 . S
C1861 H1867 0.959 . S
C1861 H1868 0.961 . S
C1861 H1869 0.960 . S
C1862 C1860 1.381 . S
C1862 C1863 1.394 . S
C1862 H1870 0.930 . S
C1863 C1862 1.394 . S
C1863 C1864 1.383 . S
C1863 H1871 0.929 . S
C1864 C1863 1.383 . S
C1864 C1865 1.377 . S
C1865 H1849 0.930 . S
C1865 C1864 1.377 . S
C1865 C1866 1.379 . S
C1866 H1850 0.931 . S
C1866 C1860 1.383 . S
C1866 C1865 1.379 . S
H1867 C1861 0.959 . S
H1868 C1861 0.961 . S
H1869 C1861 0.960 . S
H1870 C1862 0.930 . S
H1871 C1863 0.929 . S
H1872 C1880 0.929 . S
H1873 C1882 0.930 . S
H1874 C1884 0.930 . S
H1875 C1887 0.929 . S
H1876 C1890 0.930 . S
H1877 C1892 0.960 . S
H1878 C1892 0.960 . S
H1879 C1892 0.960 . S
C1880 H1872 0.929 . S
C1880 C1881 1.377 . S
C1880 C1882 1.384 . S
C1881 C1880 1.377 . S
C1881 C1887 1.390 . S
C1882 H1873 0.930 . S
C1882 C1880 1.384 . S
C1882 C1883 1.372 . S
C1883 C1882 1.372 . S
C1883 C1884 1.400 . S
C1883 C1888 1.490 . S
C1884 H1874 0.930 . S
C1884 C1883 1.400 . S
C1884 C1887 1.386 . S
H1885 C1901 0.930 . S
H1886 C1902 0.931 . S
C1887 H1875 0.929 . S
C1887 C1881 1.390 . S
C1887 C1884 1.386 . S
C1888 C1883 1.490 . S
C1888 C1890 1.395 . S
C1888 C1891 1.403 . S
H1889 C1895 0.930 . S
C1890 H1876 0.930 . S
C1890 C1888 1.395 . S
C1890 C1893 1.403 . S
C1891 C1888 1.403 . S
C1891 C1892 1.524 . S
C1891 C1895 1.400 . S
C1892 H1877 0.960 . S
C1892 H1878 0.960 . S
C1892 H1879 0.960 . S
C1892 C1891 1.524 . S
C1893 C1890 1.403 . S
C1893 C1894 1.392 . S
C1893 C1897 1.495 . S
C1894 C1893 1.392 . S
C1894 C1895 1.385 . S
C1894 C1896 1.478 . S
C1895 H1889 0.930 . S
C1895 C1891 1.400 . S
C1895 C1894 1.385 . S
C1896 C1894 1.478 . S
C1896 C1898 1.381 . S
C1896 C1902 1.383 . S
C1897 C1893 1.495 . S
C1897 H1903 0.959 . S
C1897 H1904 0.961 . S
C1897 H1905 0.960 . S
C1898 C1896 1.381 . S
C1898 C1899 1.394 . S
C1898 H1906 0.930 . S
C1899 C1898 1.394 . S
C1899 C1900 1.383 . S
C1899 H1907 0.929 . S
C1900 C1899 1.383 . S
C1900 C1901 1.377 . S
C1901 H1885 0.930 . S
C1901 C1900 1.377 . S
C1901 C1902 1.379 . S
C1902 H1886 0.931 . S
C1902 C1896 1.383 . S
C1902 C1901 1.379 . S
H1903 C1897 0.959 . S
H1904 C1897 0.961 . S
H1905 C1897 0.960 . S
H1906 C1898 0.930 . S
H1907 C1899 0.929 . S
H1908 C1916 0.929 . S
H1909 C1918 0.930 . S
H1910 C1920 0.930 . S
H1911 C1923 0.929 . S
H1912 C1926 0.930 . S
H1913 C1928 0.960 . S
H1914 C1928 0.960 . S
H1915 C1928 0.960 . S
C1916 H1908 0.929 . S
C1916 C1917 1.377 . S
C1916 C1918 1.384 . S
C1917 C1916 1.377 . S
C1917 C1923 1.390 . S
C1918 H1909 0.930 . S
C1918 C1916 1.384 . S
C1918 C1919 1.372 . S
C1919 C1918 1.372 . S
C1919 C1920 1.400 . S
C1919 C1924 1.490 . S
C1920 H1910 0.930 . S
C1920 C1919 1.400 . S
C1920 C1923 1.386 . S
H1921 C1937 0.930 . S
H1922 C1938 0.931 . S
C1923 H1911 0.929 . S
C1923 C1917 1.390 . S
C1923 C1920 1.386 . S
C1924 C1919 1.490 . S
C1924 C1926 1.395 . S
C1924 C1927 1.403 . S
H1925 C1931 0.930 . S
C1926 H1912 0.930 . S
C1926 C1924 1.395 . S
C1926 C1929 1.403 . S
C1927 C1924 1.403 . S
C1927 C1928 1.524 . S
C1927 C1931 1.400 . S
C1928 H1913 0.960 . S
C1928 H1914 0.960 . S
C1928 H1915 0.960 . S
C1928 C1927 1.524 . S
C1929 C1926 1.403 . S
C1929 C1930 1.392 . S
C1929 C1933 1.495 . S
C1930 C1929 1.392 . S
C1930 C1931 1.385 . S
C1930 C1932 1.478 . S
C1931 H1925 0.930 . S
C1931 C1927 1.400 . S
C1931 C1930 1.385 . S
C1932 C1930 1.478 . S
C1932 C1934 1.381 . S
C1932 C1938 1.383 . S
C1933 C1929 1.495 . S
C1933 H1939 0.959 . S
C1933 H1940 0.961 . S
C1933 H1941 0.960 . S
C1934 C1932 1.381 . S
C1934 C1935 1.394 . S
C1934 H1942 0.930 . S
C1935 C1934 1.394 . S
C1935 C1936 1.383 . S
C1935 H1943 0.929 . S
C1936 C1935 1.383 . S
C1936 C1937 1.377 . S
C1937 H1921 0.930 . S
C1937 C1936 1.377 . S
C1937 C1938 1.379 . S
C1938 H1922 0.931 . S
C1938 C1932 1.383 . S
C1938 C1937 1.379 . S
H1939 C1933 0.959 . S
H1940 C1933 0.961 . S
H1941 C1933 0.960 . S
H1942 C1934 0.930 . S
H1943 C1935 0.929 . S
H1944 C1952 0.929 . S
H1945 C1954 0.930 . S
H1946 C1956 0.930 . S
H1947 C1959 0.929 . S
H1948 C1962 0.930 . S
H1949 C1964 0.960 . S
H1950 C1964 0.960 . S
H1951 C1964 0.960 . S
C1952 H1944 0.929 . S
C1952 C1953 1.377 . S
C1952 C1954 1.384 . S
C1953 C1952 1.377 . S
C1953 C1959 1.390 . S
C1954 H1945 0.930 . S
C1954 C1952 1.384 . S
C1954 C1955 1.372 . S
C1955 C1954 1.372 . S
C1955 C1956 1.400 . S
C1955 C1960 1.490 . S
C1956 H1946 0.930 . S
C1956 C1955 1.400 . S
C1956 C1959 1.386 . S
H1957 C1973 0.930 . S
H1958 C1974 0.931 . S
C1959 H1947 0.929 . S
C1959 C1953 1.390 . S
C1959 C1956 1.386 . S
C1960 C1955 1.490 . S
C1960 C1962 1.395 . S
C1960 C1963 1.403 . S
H1961 C1967 0.930 . S
C1962 H1948 0.930 . S
C1962 C1960 1.395 . S
C1962 C1965 1.403 . S
C1963 C1960 1.403 . S
C1963 C1964 1.524 . S
C1963 C1967 1.400 . S
C1964 H1949 0.960 . S
C1964 H1950 0.960 . S
C1964 H1951 0.960 . S
C1964 C1963 1.524 . S
C1965 C1962 1.403 . S
C1965 C1966 1.392 . S
C1965 C1969 1.495 . S
C1966 C1965 1.392 . S
C1966 C1967 1.385 . S
C1966 C1968 1.478 . S
C1967 H1961 0.930 . S
C1967 C1963 1.400 . S
C1967 C1966 1.385 . S
C1968 C1966 1.478 . S
C1968 C1970 1.381 . S
C1968 C1974 1.383 . S
C1969 C1965 1.495 . S
C1969 H1975 0.959 . S
C1969 H1976 0.961 . S
C1969 H1977 0.960 . S
C1970 C1968 1.381 . S
C1970 C1971 1.394 . S
C1970 H1978 0.930 . S
C1971 C1970 1.394 . S
C1971 C1972 1.383 . S
C1971 H1979 0.929 . S
C1972 C1971 1.383 . S
C1972 C1973 1.377 . S
C1973 H1957 0.930 . S
C1973 C1972 1.377 . S
C1973 C1974 1.379 . S
C1974 H1958 0.931 . S
C1974 C1968 1.383 . S
C1974 C1973 1.379 . S
H1975 C1969 0.959 . S
H1976 C1969 0.961 . S
H1977 C1969 0.960 . S
H1978 C1970 0.930 . S
H1979 C1971 0.929 . S
H1980 C1988 0.929 . S
H1981 C1990 0.930 . S
H1982 C1992 0.930 . S
H1983 C1995 0.929 . S
H1984 C1998 0.930 . S
H1985 C2000 0.960 . S
H1986 C2000 0.960 . S
H1987 C2000 0.960 . S
C1988 H1980 0.929 . S
C1988 C1989 1.377 . S
C1988 C1990 1.384 . S
C1989 C1988 1.377 . S
C1989 C1995 1.390 . S
C1990 H1981 0.930 . S
C1990 C1988 1.384 . S
C1990 C1991 1.372 . S
C1991 C1990 1.372 . S
C1991 C1992 1.400 . S
C1991 C1996 1.490 . S
C1992 H1982 0.930 . S
C1992 C1991 1.400 . S
C1992 C1995 1.386 . S
H1993 C2009 0.930 . S
H1994 C2010 0.931 . S
C1995 H1983 0.929 . S
C1995 C1989 1.390 . S
C1995 C1992 1.386 . S
C1996 C1991 1.490 . S
C1996 C1998 1.395 . S
C1996 C1999 1.403 . S
H1997 C2003 0.930 . S
C1998 H1984 0.930 . S
C1998 C1996 1.395 . S
C1998 C2001 1.403 . S
C1999 C1996 1.403 . S
C1999 C2000 1.524 . S
C1999 C2003 1.400 . S
C2000 H1985 0.960 . S
C2000 H1986 0.960 . S
C2000 H1987 0.960 . S
C2000 C1999 1.524 . S
C2001 C1998 1.403 . S
C2001 C2002 1.392 . S
C2001 C2005 1.495 . S
C2002 C2001 1.392 . S
C2002 C2003 1.385 . S
C2002 C2004 1.478 . S
C2003 H1997 0.930 . S
C2003 C1999 1.400 . S
C2003 C2002 1.385 . S
C2004 C2002 1.478 . S
C2004 C2006 1.381 . S
C2004 C2010 1.383 . S
C2005 C2001 1.495 . S
C2005 H2011 0.959 . S
C2005 H2012 0.961 . S
C2005 H2013 0.960 . S
C2006 C2004 1.381 . S
C2006 C2007 1.394 . S
C2006 H2014 0.930 . S
C2007 C2006 1.394 . S
C2007 C2008 1.383 . S
C2007 H2015 0.929 . S
C2008 C2007 1.383 . S
C2008 C2009 1.377 . S
C2009 H1993 0.930 . S
C2009 C2008 1.377 . S
C2009 C2010 1.379 . S
C2010 H1994 0.931 . S
C2010 C2004 1.383 . S
C2010 C2009 1.379 . S
H2011 C2005 0.959 . S
H2012 C2005 0.961 . S
H2013 C2005 0.960 . S
H2014 C2006 0.930 . S
H2015 C2007 0.929 . S
H2016 C2024 0.929 1_545 S
H2017 C2026 0.930 . S
H2018 C2028 0.930 . S
H2019 C2031 0.929 . S
H2020 C2034 0.930 . S
H2021 C2036 0.960 . S
H2022 C2036 0.960 . S
H2023 C2036 0.960 . S
C2024 H2016 0.929 1_565 S
C2024 C2025 1.377 . S
C2024 C2026 1.384 . S
C2025 C2024 1.377 . S
C2025 C2031 1.390 . S
C2026 H2017 0.930 . S
C2026 C2024 1.384 . S
C2026 C2027 1.372 . S
C2027 C2026 1.372 . S
C2027 C2028 1.400 . S
C2027 C2032 1.490 . S
C2028 H2018 0.930 . S
C2028 C2027 1.400 . S
C2028 C2031 1.386 . S
H2029 C2045 0.930 . S
H2030 C2046 0.931 . S
C2031 H2019 0.929 . S
C2031 C2025 1.390 . S
C2031 C2028 1.386 . S
C2032 C2027 1.490 . S
C2032 C2034 1.395 . S
C2032 C2035 1.403 . S
H2033 C2039 0.930 . S
C2034 H2020 0.930 . S
C2034 C2032 1.395 . S
C2034 C2037 1.403 . S
C2035 C2032 1.403 . S
C2035 C2036 1.524 . S
C2035 C2039 1.400 . S
C2036 H2021 0.960 . S
C2036 H2022 0.960 . S
C2036 H2023 0.960 . S
C2036 C2035 1.524 . S
C2037 C2034 1.403 . S
C2037 C2038 1.392 . S
C2037 C2041 1.495 . S
C2038 C2037 1.392 . S
C2038 C2039 1.385 . S
C2038 C2040 1.478 . S
C2039 H2033 0.930 . S
C2039 C2035 1.400 . S
C2039 C2038 1.385 . S
C2040 C2038 1.478 . S
C2040 C2042 1.381 . S
C2040 C2046 1.383 . S
C2041 C2037 1.495 . S
C2041 H2047 0.959 . S
C2041 H2048 0.961 . S
C2041 H2049 0.960 . S
C2042 C2040 1.381 . S
C2042 C2043 1.394 . S
C2042 H2050 0.930 . S
C2043 C2042 1.394 . S
C2043 C2044 1.383 . S
C2043 H2051 0.929 . S
C2044 C2043 1.383 . S
C2044 C2045 1.377 . S
C2045 H2029 0.930 . S
C2045 C2044 1.377 . S
C2045 C2046 1.379 . S
C2046 H2030 0.931 . S
C2046 C2040 1.383 . S
C2046 C2045 1.379 . S
H2047 C2041 0.959 . S
H2048 C2041 0.961 . S
H2049 C2041 0.960 . S
H2050 C2042 0.930 . S
H2051 C2043 0.929 . S
H2052 C2060 0.929 . S
H2053 C2062 0.930 . S
H2054 C2064 0.930 . S
H2055 C2067 0.929 . S
H2056 C2070 0.930 . S
H2057 C2072 0.960 . S
H2058 C2072 0.960 . S
H2059 C2072 0.960 . S
C2060 H2052 0.929 . S
C2060 C2061 1.377 . S
C2060 C2062 1.384 . S
C2061 C2060 1.377 . S
C2061 C2067 1.390 . S
C2062 H2053 0.930 . S
C2062 C2060 1.384 . S
C2062 C2063 1.372 . S
C2063 C2062 1.372 . S
C2063 C2064 1.400 . S
C2063 C2068 1.490 . S
C2064 H2054 0.930 . S
C2064 C2063 1.400 . S
C2064 C2067 1.386 . S
H2065 C2081 0.930 . S
H2066 C2082 0.931 . S
C2067 H2055 0.929 . S
C2067 C2061 1.390 . S
C2067 C2064 1.386 . S
C2068 C2063 1.490 . S
C2068 C2070 1.395 . S
C2068 C2071 1.403 . S
H2069 C2075 0.930 . S
C2070 H2056 0.930 . S
C2070 C2068 1.395 . S
C2070 C2073 1.403 . S
C2071 C2068 1.403 . S
C2071 C2072 1.524 . S
C2071 C2075 1.400 . S
C2072 H2057 0.960 . S
C2072 H2058 0.960 . S
C2072 H2059 0.960 . S
C2072 C2071 1.524 . S
C2073 C2070 1.403 . S
C2073 C2074 1.392 . S
C2073 C2077 1.495 . S
C2074 C2073 1.392 . S
C2074 C2075 1.385 . S
C2074 C2076 1.478 . S
C2075 H2069 0.930 . S
C2075 C2071 1.400 . S
C2075 C2074 1.385 . S
C2076 C2074 1.478 . S
C2076 C2078 1.381 . S
C2076 C2082 1.383 . S
C2077 C2073 1.495 . S
C2077 H2083 0.959 . S
C2077 H2084 0.961 . S
C2077 H2085 0.960 . S
C2078 C2076 1.381 . S
C2078 C2079 1.394 . S
C2078 H2086 0.930 . S
C2079 C2078 1.394 . S
C2079 C2080 1.383 . S
C2079 H2087 0.929 . S
C2080 C2079 1.383 . S
C2080 C2081 1.377 . S
C2081 H2065 0.930 . S
C2081 C2080 1.377 . S
C2081 C2082 1.379 . S
C2082 H2066 0.931 . S
C2082 C2076 1.383 . S
C2082 C2081 1.379 . S
H2083 C2077 0.959 . S
H2084 C2077 0.961 . S
H2085 C2077 0.960 . S
H2086 C2078 0.930 . S
H2087 C2079 0.929 . S
H2088 C2096 0.929 . S
H2089 C2098 0.930 . S
H2090 C2100 0.930 . S
H2091 C2103 0.929 . S
H2092 C2106 0.930 . S
H2093 C2108 0.960 . S
H2094 C2108 0.960 . S
H2095 C2108 0.960 . S
C2096 H2088 0.929 . S
C2096 C2097 1.377 . S
C2096 C2098 1.384 . S
C2097 C2096 1.377 . S
C2097 C2103 1.390 . S
C2098 H2089 0.930 . S
C2098 C2096 1.384 . S
C2098 C2099 1.372 . S
C2099 C2098 1.372 . S
C2099 C2100 1.400 . S
C2099 C2104 1.490 . S
C2100 H2090 0.930 . S
C2100 C2099 1.400 . S
C2100 C2103 1.386 . S
H2101 C2117 0.930 . S
H2102 C2118 0.931 . S
C2103 H2091 0.929 . S
C2103 C2097 1.390 . S
C2103 C2100 1.386 . S
C2104 C2099 1.490 . S
C2104 C2106 1.395 . S
C2104 C2107 1.403 . S
H2105 C2111 0.930 . S
C2106 H2092 0.930 . S
C2106 C2104 1.395 . S
C2106 C2109 1.403 . S
C2107 C2104 1.403 . S
C2107 C2108 1.524 . S
C2107 C2111 1.400 . S
C2108 H2093 0.960 . S
C2108 H2094 0.960 . S
C2108 H2095 0.960 . S
C2108 C2107 1.524 . S
C2109 C2106 1.403 . S
C2109 C2110 1.392 . S
C2109 C2113 1.495 . S
C2110 C2109 1.392 . S
C2110 C2111 1.385 . S
C2110 C2112 1.478 . S
C2111 H2105 0.930 . S
C2111 C2107 1.400 . S
C2111 C2110 1.385 . S
C2112 C2110 1.478 . S
C2112 C2114 1.381 . S
C2112 C2118 1.383 . S
C2113 C2109 1.495 . S
C2113 H2119 0.959 . S
C2113 H2120 0.961 . S
C2113 H2121 0.960 . S
C2114 C2112 1.381 . S
C2114 C2115 1.394 . S
C2114 H2122 0.930 . S
C2115 C2114 1.394 . S
C2115 C2116 1.383 . S
C2115 H2123 0.929 . S
C2116 C2115 1.383 . S
C2116 C2117 1.377 . S
C2117 H2101 0.930 . S
C2117 C2116 1.377 . S
C2117 C2118 1.379 . S
C2118 H2102 0.931 . S
C2118 C2112 1.383 . S
C2118 C2117 1.379 . S
H2119 C2113 0.959 . S
H2120 C2113 0.961 . S
H2121 C2113 0.960 . S
H2122 C2114 0.930 . S
H2123 C2115 0.929 . S
H2124 C2132 0.929 . S
H2125 C2134 0.930 . S
H2126 C2136 0.930 . S
H2127 C2139 0.929 . S
H2128 C2142 0.930 . S
H2129 C2144 0.960 . S
H2130 C2144 0.960 . S
H2131 C2144 0.960 . S
C2132 H2124 0.929 . S
C2132 C2133 1.377 1_455 S
C2132 C2134 1.384 . S
C2133 C2132 1.377 1_655 S
C2133 C2139 1.390 . S
C2134 H2125 0.930 . S
C2134 C2132 1.384 . S
C2134 C2135 1.372 . S
C2135 C2134 1.372 . S
C2135 C2136 1.400 1_455 S
C2135 C2140 1.490 . S
C2136 H2126 0.930 . S
C2136 C2135 1.400 1_655 S
C2136 C2139 1.386 . S
H2137 C2153 0.930 . S
H2138 C2154 0.931 . S
C2139 H2127 0.929 . S
C2139 C2133 1.390 . S
C2139 C2136 1.386 . S
C2140 C2135 1.490 . S
C2140 C2142 1.395 1_554 S
C2140 C2143 1.403 . S
H2141 C2147 0.930 . S
C2142 H2128 0.930 . S
C2142 C2140 1.395 1_556 S
C2142 C2145 1.403 . S
C2143 C2140 1.403 . S
C2143 C2144 1.524 . S
C2143 C2147 1.400 . S
C2144 H2129 0.960 . S
C2144 H2130 0.960 . S
C2144 H2131 0.960 . S
C2144 C2143 1.524 . S
C2145 C2142 1.403 . S
C2145 C2146 1.392 . S
C2145 C2149 1.495 . S
C2146 C2145 1.392 . S
C2146 C2147 1.385 1_556 S
C2146 C2148 1.478 . S
C2147 H2141 0.930 . S
C2147 C2143 1.400 . S
C2147 C2146 1.385 1_554 S
C2148 C2146 1.478 . S
C2148 C2150 1.381 . S
C2148 C2154 1.383 . S
C2149 C2145 1.495 . S
C2149 H2155 0.959 . S
C2149 H2156 0.961 . S
C2149 H2157 0.960 . S
C2150 C2148 1.381 . S
C2150 C2151 1.394 . S
C2150 H2158 0.930 . S
C2151 C2150 1.394 . S
C2151 C2152 1.383 . S
C2151 H2159 0.929 . S
C2152 C2151 1.383 . S
C2152 C2153 1.377 . S
C2153 H2137 0.930 . S
C2153 C2152 1.377 . S
C2153 C2154 1.379 . S
C2154 H2138 0.931 . S
C2154 C2148 1.383 . S
C2154 C2153 1.379 . S
H2155 C2149 0.959 . S
H2156 C2149 0.961 . S
H2157 C2149 0.960 . S
H2158 C2150 0.930 . S
H2159 C2151 0.929 . S
H2160 C2168 0.929 . S
H2161 C2170 0.930 . S
H2162 C2172 0.930 . S
H2163 C2175 0.929 . S
H2164 C2178 0.930 . S
H2165 C2180 0.960 . S
H2166 C2180 0.960 . S
H2167 C2180 0.960 . S
C2168 H2160 0.929 . S
C2168 C2169 1.377 . S
C2168 C2170 1.384 . S
C2169 C2168 1.377 . S
C2169 C2175 1.390 . S
C2170 H2161 0.930 . S
C2170 C2168 1.384 . S
C2170 C2171 1.372 . S
C2171 C2170 1.372 . S
C2171 C2172 1.400 . S
C2171 C2176 1.490 . S
C2172 H2162 0.930 . S
C2172 C2171 1.400 . S
C2172 C2175 1.386 . S
H2173 C2189 0.930 . S
H2174 C2190 0.931 . S
C2175 H2163 0.929 . S
C2175 C2169 1.390 . S
C2175 C2172 1.386 . S
C2176 C2171 1.490 . S
C2176 C2178 1.395 . S
C2176 C2179 1.403 1_556 S
H2177 C2183 0.930 . S
C2178 H2164 0.930 . S
C2178 C2176 1.395 . S
C2178 C2181 1.403 . S
C2179 C2176 1.403 1_554 S
C2179 C2180 1.524 . S
C2179 C2183 1.400 . S
C2180 H2165 0.960 . S
C2180 H2166 0.960 . S
C2180 H2167 0.960 . S
C2180 C2179 1.524 . S
C2181 C2178 1.403 . S
C2181 C2182 1.392 1_556 S
C2181 C2185 1.495 . S
C2182 C2181 1.392 1_554 S
C2182 C2183 1.385 . S
C2182 C2184 1.478 . S
C2183 H2177 0.930 . S
C2183 C2179 1.400 . S
C2183 C2182 1.385 . S
C2184 C2182 1.478 . S
C2184 C2186 1.381 . S
C2184 C2190 1.383 . S
C2185 C2181 1.495 . S
C2185 H2191 0.959 . S
C2185 H2192 0.961 . S
C2185 H2193 0.960 . S
C2186 C2184 1.381 . S
C2186 C2187 1.394 . S
C2186 H2194 0.930 . S
C2187 C2186 1.394 . S
C2187 C2188 1.383 . S
C2187 H2195 0.929 . S
C2188 C2187 1.383 . S
C2188 C2189 1.377 . S
C2189 H2173 0.930 . S
C2189 C2188 1.377 . S
C2189 C2190 1.379 . S
C2190 H2174 0.931 . S
C2190 C2184 1.383 . S
C2190 C2189 1.379 . S
H2191 C2185 0.959 . S
H2192 C2185 0.961 . S
H2193 C2185 0.960 . S
H2194 C2186 0.930 . S
H2195 C2187 0.929 . S
H2196 C2204 0.929 . S
H2197 C2206 0.930 . S
H2198 C2208 0.926 . S
H2199 C2211 0.929 . S
H2200 C2214 0.930 . S
H2201 C2216 0.960 . S
H2202 C2216 0.960 . S
H2203 C2216 0.960 . S
C2204 H2196 0.929 . S
C2204 C2205 1.377 . S
C2204 C2206 1.384 . S
C2205 C2204 1.377 . S
C2205 C2211 1.390 . S
C2206 H2197 0.930 . S
C2206 C2204 1.384 . S
C2206 C2207 1.372 . S
C2207 C2206 1.372 . S
C2207 C2208 1.400 . S
C2207 C2212 1.490 . S
C2208 H2198 0.926 . S
C2208 C2207 1.400 . S
C2208 C2211 1.386 . S
H2209 C2225 0.930 . S
H2210 C2226 0.931 . S
C2211 H2199 0.929 . S
C2211 C2205 1.390 . S
C2211 C2208 1.386 . S
C2212 C2207 1.490 . S
C2212 C2214 1.395 . S
C2212 C2215 1.403 1_554 S
H2213 C2219 0.930 . S
C2214 H2200 0.930 . S
C2214 C2212 1.395 . S
C2214 C2217 1.403 . S
C2215 C2212 1.403 1_556 S
C2215 C2216 1.524 . S
C2215 C2219 1.400 . S
C2216 H2201 0.960 . S
C2216 H2202 0.960 . S
C2216 H2203 0.960 . S
C2216 C2215 1.524 . S
C2217 C2214 1.403 . S
C2217 C2218 1.392 1_554 S
C2217 C2221 1.495 . S
C2218 C2217 1.392 1_556 S
C2218 C2219 1.385 . S
C2218 C2220 1.478 . S
C2219 H2213 0.930 . S
C2219 C2215 1.400 . S
C2219 C2218 1.385 . S
C2220 C2218 1.478 . S
C2220 C2222 1.381 . S
C2220 C2226 1.383 . S
C2221 C2217 1.495 . S
C2221 H2227 0.959 . S
C2221 H2228 0.988 . S
C2221 H2229 0.960 . S
C2222 C2220 1.381 . S
C2222 C2223 1.394 . S
C2222 H2230 0.930 1_556 S
C2223 C2222 1.394 . S
C2223 C2224 1.383 1_545 S
C2223 H2231 0.929 . S
C2224 C2223 1.383 1_565 S
C2224 C2225 1.377 . S
C2225 H2209 0.930 . S
C2225 C2224 1.377 . S
C2225 C2226 1.379 1_565 S
C2226 H2210 0.931 . S
C2226 C2220 1.383 . S
C2226 C2225 1.379 1_545 S
H2227 C2221 0.959 . S
H2228 C2221 0.988 . S
H2229 C2221 0.960 . S
H2230 C2222 0.930 1_554 S
H2231 C2223 0.929 . S
H2232 C2240 0.929 . S
H2233 C2242 0.930 . S
H2234 C2244 0.930 . S
H2235 C2247 0.929 . S
H2236 C2250 0.930 . S
H2237 C2252 0.960 . S
H2238 C2252 0.960 . S
H2239 C2252 0.960 . S
C2240 H2232 0.929 . S
C2240 C2241 1.377 . S
C2240 C2242 1.384 . S
C2241 C2240 1.377 . S
C2241 C2247 1.390 . S
C2242 H2233 0.930 . S
C2242 C2240 1.384 . S
C2242 C2243 1.372 . S
C2243 C2242 1.372 . S
C2243 C2244 1.400 . S
C2243 C2248 1.490 . S
C2244 H2234 0.930 . S
C2244 C2243 1.400 . S
C2244 C2247 1.386 . S
H2245 C2261 0.930 . S
H2246 C2262 0.922 1_565 S
C2247 H2235 0.929 . S
C2247 C2241 1.390 . S
C2247 C2244 1.386 . S
C2248 C2243 1.490 . S
C2248 C2250 1.395 . S
C2248 C2251 1.403 . S
H2249 C2255 0.930 . S
C2250 H2236 0.930 . S
C2250 C2248 1.395 . S
C2250 C2253 1.403 . S
C2251 C2248 1.403 . S
C2251 C2252 1.524 . S
C2251 C2255 1.400 . S
C2252 H2237 0.960 . S
C2252 H2238 0.960 . S
C2252 H2239 0.960 . S
C2252 C2251 1.524 . S
C2253 C2250 1.403 . S
C2253 C2254 1.392 . S
C2253 C2257 1.495 . S
C2254 C2253 1.392 . S
C2254 C2255 1.385 . S
C2254 C2256 1.478 . S
C2255 H2249 0.930 . S
C2255 C2251 1.400 . S
C2255 C2254 1.385 . S
C2256 C2254 1.478 . S
C2256 C2258 1.381 . S
C2256 C2262 1.383 . S
C2257 C2253 1.495 . S
C2257 H2263 0.959 . S
C2257 H2264 0.961 . S
C2257 H2265 0.960 . S
C2258 C2256 1.381 . S
C2258 C2259 1.394 . S
C2258 H2266 0.930 . S
C2259 C2258 1.394 . S
C2259 C2260 1.383 1_545 S
C2259 H2267 0.929 . S
C2260 C2259 1.383 1_565 S
C2260 C2261 1.377 . S
C2261 H2245 0.930 . S
C2261 C2260 1.377 . S
C2261 C2262 1.379 1_565 S
C2262 H2246 0.922 1_545 S
C2262 C2256 1.383 . S
C2262 C2261 1.379 1_545 S
H2263 C2257 0.959 . S
H2264 C2257 0.961 . S
H2265 C2257 0.960 . S
H2266 C2258 0.930 . S
H2267 C2259 0.929 . S
H2268 C2276 0.929 . S
H2269 C2278 0.930 . S
H2270 C2280 0.930 . S
H2271 C2283 0.929 . S
H2272 C2286 0.930 . S
H2273 C2288 0.960 . S
H2274 C2288 0.960 . S
H2275 C2288 0.944 1_655 S
C2276 H2268 0.929 . S
C2276 C2277 1.377 1_455 S
C2276 C2278 1.384 . S
C2277 C2276 1.377 1_655 S
C2277 C2283 1.390 . S
C2278 H2269 0.930 . S
C2278 C2276 1.384 . S
C2278 C2279 1.372 . S
C2279 C2278 1.372 . S
C2279 C2280 1.400 1_455 S
C2279 C2284 1.490 . S
C2280 H2270 0.930 . S
C2280 C2279 1.400 1_655 S
C2280 C2283 1.386 . S
H2281 C2297 0.930 . S
H2282 C2298 0.931 . S
C2283 H2271 0.929 . S
C2283 C2277 1.390 . S
C2283 C2280 1.386 . S
C2284 C2279 1.490 . S
C2284 C2286 1.395 . S
C2284 C2287 1.403 . S
H2285 C2291 0.930 . S
C2286 H2272 0.930 . S
C2286 C2284 1.395 . S
C2286 C2289 1.403 . S
C2287 C2284 1.403 . S
C2287 C2288 1.524 . S
C2287 C2291 1.400 . S
C2288 H2273 0.960 . S
C2288 H2274 0.960 . S
C2288 H2275 0.944 1_455 S
C2288 C2287 1.524 . S
C2289 C2286 1.403 . S
C2289 C2290 1.392 . S
C2289 C2293 1.495 . S
C2290 C2289 1.392 . S
C2290 C2291 1.385 . S
C2290 C2292 1.478 . S
C2291 H2285 0.930 . S
C2291 C2287 1.400 . S
C2291 C2290 1.385 . S
C2292 C2290 1.478 . S
C2292 C2294 1.381 . S
C2292 C2298 1.383 . S
C2293 C2289 1.495 . S
C2293 H2299 0.959 . S
C2293 H2300 0.961 . S
C2293 H2301 0.960 . S
C2294 C2292 1.381 . S
C2294 C2295 1.394 . S
C2294 H2302 0.930 . S
C2295 C2294 1.394 . S
C2295 C2296 1.383 . S
C2295 H2303 0.929 . S
C2296 C2295 1.383 . S
C2296 C2297 1.377 . S
C2297 H2281 0.930 . S
C2297 C2296 1.377 . S
C2297 C2298 1.379 . S
C2298 H2282 0.931 . S
C2298 C2292 1.383 . S
C2298 C2297 1.379 . S
H2299 C2293 0.959 . S
H2300 C2293 0.961 . S
H2301 C2293 0.960 . S
H2302 C2294 0.930 . S
H2303 C2295 0.929 . S
H2304 C2312 0.929 . S
H2305 C2314 0.930 . S
H2306 C2316 0.930 . S
H2307 C2319 0.929 . S
H2308 C2322 0.930 . S
H2309 C2324 0.960 . S
H2310 C2324 0.960 . S
H2311 C2324 0.960 . S
C2312 H2304 0.929 . S
C2312 C2313 1.377 . S
C2312 C2314 1.384 . S
C2313 C2312 1.377 . S
C2313 C2319 1.390 . S
C2314 H2305 0.930 . S
C2314 C2312 1.384 . S
C2314 C2315 1.372 . S
C2315 C2314 1.372 . S
C2315 C2316 1.400 . S
C2315 C2320 1.490 . S
C2316 H2306 0.930 . S
C2316 C2315 1.400 . S
C2316 C2319 1.386 . S
H2317 C2333 0.930 . S
H2318 C2334 0.931 . S
C2319 H2307 0.929 . S
C2319 C2313 1.390 . S
C2319 C2316 1.386 . S
C2320 C2315 1.490 . S
C2320 C2322 1.395 . S
C2320 C2323 1.403 . S
H2321 C2327 0.930 . S
C2322 H2308 0.930 . S
C2322 C2320 1.395 . S
C2322 C2325 1.403 . S
C2323 C2320 1.403 . S
C2323 C2324 1.524 . S
C2323 C2327 1.400 . S
C2324 H2309 0.960 . S
C2324 H2310 0.960 . S
C2324 H2311 0.960 . S
C2324 C2323 1.524 . S
C2325 C2322 1.403 . S
C2325 C2326 1.392 . S
C2325 C2329 1.495 . S
C2326 C2325 1.392 . S
C2326 C2327 1.385 . S
C2326 C2328 1.478 . S
C2327 H2321 0.930 . S
C2327 C2323 1.400 . S
C2327 C2326 1.385 . S
C2328 C2326 1.478 . S
C2328 C2330 1.381 . S
C2328 C2334 1.383 . S
C2329 C2325 1.495 . S
C2329 H2335 0.959 . S
C2329 H2336 0.961 . S
C2329 H2337 0.960 . S
C2330 C2328 1.381 . S
C2330 C2331 1.394 . S
C2330 H2338 0.930 . S
C2331 C2330 1.394 . S
C2331 C2332 1.383 . S
C2331 H2339 0.929 . S
C2332 C2331 1.383 . S
C2332 C2333 1.377 . S
C2333 H2317 0.930 . S
C2333 C2332 1.377 . S
C2333 C2334 1.379 . S
C2334 H2318 0.931 . S
C2334 C2328 1.383 . S
C2334 C2333 1.379 . S
H2335 C2329 0.959 . S
H2336 C2329 0.961 . S
H2337 C2329 0.960 . S
H2338 C2330 0.930 . S
H2339 C2331 0.929 . S
C405 C53 1.326 . S
C424 C6 1.338 . S
C441 C9 1.325 1_655 S
C460 C27 1.293 . S
C477 C29 1.334 . S
C496 C50 1.329 . S
C513 C75 1.323 1_655 S
C532 C115 1.357 . S
C549 C72 1.333 . S
C568 C95 1.316 . S
C585 C93 1.322 . S
C604 C117 1.359 . S
C621 C185 1.328 . S
C640 C138 1.301 . S
C657 C160 1.335 . S
C676 C141 1.336 . S
C693 C163 1.330 . S
C712 C182 1.354 . S
C729 C205 1.335 . S
C748 C247 1.297 . S
C765 C203 1.335 . S
C784 C227 1.293 . S
C801 C249 1.335 . S
C820 C225 1.298 . S
C837 C315 1.329 . S
C856 C270 1.351 . S
C873 C273 1.335 . S
C892 C291 1.340 . S
C909 C293 1.328 . S
C928 C313 1.346 . S
C945 C379 1.322 . S
C964 C339 1.360 . S
C981 C359 1.328 . S
C1000 C336 1.340 . S
C1017 C381 1.328 . S
C1036 C357 1.337 . S
C1053 C5 1.900 . S
C1072 C295 1.903 . S
C1089 C317 1.900 . S
C1108 C26 1.902 . S
C1125 C49 1.901 . S
C1144 C272 1.899 . S
C1161 C159 1.901 . S
C1180 C52 1.876 . S
C1197 C8 1.898 . S
C1216 C181 1.912 . S
C1233 C137 1.895 . S
C1252 C31 1.891 . S
C1269 C226 1.897 . S
C1288 C73 1.880 . S
C1305 C96 1.898 . S
C1324 C248 1.911 . S
C1341 C204 1.896 . S
C1360 C118 1.913 . S
C1377 C116 1.894 . S
C1396 C360 1.904 . S
C1413 C382 1.902 . S
C1432 C70 1.912 . S
C1449 C337 1.902 . S
C1468 C94 1.912 . S
C1485 C290 1.896 . S
C1504 C184 1.913 . S
C1521 C312 1.900 . S
C1540 C140 1.900 . S
C1557 C162 1.895 . S
C1576 C269 1.891 . S
C1593 C206 1.899 . S
C1612 C358 1.875 . S
C1629 C380 1.895 . S
C1648 C228 1.912 . S
C1665 C250 1.894 . S
C1684 C334 1.902 . S
C1701 C4 0.932 . S
C1720 C338 0.930 . S
C1737 C28 0.940 . S
C1756 C361 0.956 . S
C1773 C383 0.936 . S
C1792 C48 0.955 1_565 S
C1809 C246 0.932 . S
C1828 C51 0.919 . S
C1845 C202 0.941 . S
C1864 C7 0.952 1_655 S
C1881 C30 0.933 . S
C1900 C224 0.913 . S
C1917 C74 0.939 1_655 S
C1936 C136 0.958 . S
C1953 C97 0.940 . S
C1972 C158 0.958 . S
C1989 C119 0.941 . S
C2008 C180 0.945 . S
C2025 C114 0.933 1_565 S
C2044 C316 0.937 . S
C2061 C71 0.941 . S
C2080 C271 0.951 . S
C2097 C294 0.936 . S
C2116 C92 0.914 . S
C2133 C183 0.939 . S
C2152 C378 0.958 . S
C2169 C335 0.933 . S
C2188 C139 0.912 . S
C2205 C161 0.936 . S
C2224 C356 0.914 . S
C2241 C207 0.940 . S
C2260 C268 0.956 . S
C2277 C229 0.933 . S
C2296 C292 0.912 . S
C2313 C314 0.941 . S
C2332 C251 0.937 . S
