# Generated by pormake.
# Topology qdl, (4)-cn, num edge types: 1
# Building blocks:
#     Node 0, Type 0, BuildingBlock: MUDLON_clean_sbu_0, # of connection points: 4
#     Node 1, Type 0, BuildingBlock: MUDLON_clean_sbu_0, # of connection points: 4
#     Node 2, Type 0, BuildingBlock: MUDLON_clean_sbu_0, # of connection points: 4
#     Node 3, Type 0, BuildingBlock: MUDLON_clean_sbu_0, # of connection points: 4
#     Node 4, Type 0, BuildingBlock: MUDLON_clean_sbu_0, # of connection points: 4
#     Node 5, Type 0, BuildingBlock: MUDLON_clean_sbu_0, # of connection points: 4
#     Edge 6, Type (0, 0), BuildingBlock: KIFKEQ_clean_linker_1, # of connection points: 2
#     Edge 7, Type (0, 0), BuildingBlock: KIFKEQ_clean_linker_1, # of connection points: 2
#     Edge 8, Type (0, 0), BuildingBlock: KIFKEQ_clean_linker_1, # of connection points: 2
#     Edge 9, Type (0, 0), BuildingBlock: KIFKEQ_clean_linker_1, # of connection points: 2
#     Edge 10, Type (0, 0), BuildingBlock: KIFKEQ_clean_linker_1, # of connection points: 2
#     Edge 11, Type (0, 0), BuildingBlock: KIFKEQ_clean_linker_1, # of connection points: 2
#     Edge 12, Type (0, 0), BuildingBlock: KIFKEQ_clean_linker_1, # of connection points: 2
#     Edge 13, Type (0, 0), BuildingBlock: KIFKEQ_clean_linker_1, # of connection points: 2
#     Edge 14, Type (0, 0), BuildingBlock: KIFKEQ_clean_linker_1, # of connection points: 2
#     Edge 15, Type (0, 0), BuildingBlock: KIFKEQ_clean_linker_1, # of connection points: 2
#     Edge 16, Type (0, 0), BuildingBlock: KIFKEQ_clean_linker_1, # of connection points: 2
#     Edge 17, Type (0, 0), BuildingBlock: KIFKEQ_clean_linker_1, # of connection points: 2
# Relax obj value: 0.001
# Max RMSD: 0.015
# Mean RMSD: 0.013
data_MOF--net-qdl--node1-MUDLON_clean_sbu_0--edge1-KIFKEQ_clean_linker_1
_symmetry_space_group_name_H-M    P1
_symmetry_Int_Tables_number       1
_symmetry_cell_setting            triclinic
loop_
_symmetry_equiv_pos_as_xyz
'x, y, z'
_cell_length_a     15.449318
_cell_length_b     15.376049
_cell_length_c     90.90649
_cell_angle_alpha  90.315552
_cell_angle_beta   90.499304
_cell_angle_gamma 119.99053
loop_
_atom_site_label
_atom_site_type_symbol
_atom_site_fract_x
_atom_site_fract_y
_atom_site_fract_z
_atom_type_partial_charge
Mg0 Mg 0.26873 0.10149 0.11097 0.0
C1 C 0.30526 0.93514 0.11881 0.0
O2 O 0.22091 0.91241 0.12526 0.0
C3 C 0.37922 0.32359 0.12086 0.0
O4 O 0.37386 0.28373 0.13381 0.0
C5 C 0.14714 0.11334 0.13756 0.0
O6 O 0.14149 0.1825 0.12988 0.0
O7 O 0.1878 0.06686 0.13189 0.0
O8 O 0.35002 1.01704 0.11167 0.0
O9 O 0.18253 0.05421 0.09025 0.0
C10 C 0.23804 0.07186 0.07907 0.0
O11 O 0.33464 0.11086 0.08132 0.0
O12 O 0.35102 0.26651 0.10952 0.0
Mg13 Mg 0.14146 0.21302 0.4416 0.0
C14 C 0.97685 0.25037 0.4501 0.0
O15 O 0.95156 0.16247 0.45572 0.0
C16 C 0.36323 0.31866 0.45181 0.0
O17 O 0.32395 0.31542 0.4647 0.0
C18 C 0.14935 0.08374 0.46742 0.0
O19 O 0.22579 0.089 0.46041 0.0
O20 O 0.10001 0.12076 0.46154 0.0
O21 O 0.06021 0.29764 0.44345 0.0
O22 O 0.08969 0.13775 0.42013 0.0
C23 C 0.12345 0.08848 0.41334 0.0
O24 O 0.18733 0.06897 0.42007 0.0
O25 O 0.30635 0.2905 0.44044 0.0
Mg26 Mg 1.01705 0.10223 0.77293 0.0
C27 C 0.80167 0.96268 0.78188 0.0
O28 O 0.84876 0.96198 0.79394 0.0
C29 C 0.16065 0.31694 0.76382 0.0
O30 O 0.16454 0.26751 0.75226 0.0
C31 C 0.1302 0.11779 0.80148 0.0
O32 O 0.19412 0.20447 0.79573 0.0
O33 O 0.05474 0.05603 0.79379 0.0
O34 O 0.85225 0.02184 0.77157 0.0
O35 O 0.06118 0.06098 0.75229 0.0
C36 C 1.00959 0.9747 0.7463 0.0
O37 O 0.93487 0.90362 0.75359 0.0
O38 O 0.09825 0.26807 0.77388 0.0
Mg39 Mg 0.9871 0.81943 0.6049 0.0
C40 C 0.16135 0.80267 0.60795 0.0
O41 O 0.18645 0.89728 0.60984 0.0
C42 C 0.78523 0.77764 0.61103 0.0
O43 O 0.84481 0.86615 0.61699 0.0
C44 C 1.02718 0.85139 0.57339 0.0
O45 O 1.00056 0.75706 0.57573 0.0
O46 O 0.03101 0.90531 0.58437 0.0
O47 O 0.07018 0.73923 0.60511 0.0
O48 O 1.02666 0.89547 0.62665 0.0
C49 C 0.98522 0.83244 0.63697 0.0
O50 O 0.9288 0.73711 0.63338 0.0
O51 O 0.82351 0.73226 0.60435 0.0
Mg52 Mg 1.01668 0.10414 0.94224 0.0
C53 C 0.17713 0.31313 0.95119 0.0
O54 O 0.20108 0.25776 0.95931 0.0
C55 C 0.80109 0.96002 0.93282 0.0
O56 O 0.84727 0.95195 0.92128 0.0
C57 C 0.0756 0.13329 0.91094 0.0
O58 O 0.06608 0.21109 0.9144 0.0
O59 O 0.06057 0.06921 0.9209 0.0
O60 O 0.09727 0.26967 0.94339 0.0
O61 O 0.05697 0.05604 0.96269 0.0
C62 C 1.01507 0.06785 0.97396 0.0
O63 O 0.95306 0.10199 0.97196 0.0
O64 O 0.85241 0.02459 0.94278 0.0
Mg65 Mg 0.8874 0.9476 0.27433 0.0
C66 C 0.79161 0.07215 0.2828 0.0
O67 O 0.82564 0.06535 0.29578 0.0
C68 C 0.83936 0.73747 0.26636 0.0
O69 O 0.91022 0.79154 0.25702 0.0
C70 C 0.98933 0.06453 0.24645 0.0
O71 O 0.9572 0.12355 0.25144 0.0
O72 O 0.97874 0.99171 0.25435 0.0
O73 O 0.79727 0.0214 0.27209 0.0
O74 O 0.96375 0.99938 0.29576 0.0
C75 C 1.00319 0.95788 0.3032 0.0
O76 O 1.01152 0.88447 0.29723 0.0
O77 O 0.80838 0.78203 0.27489 0.0
H78 H 0.26168 0.79363 0.13948 0.0
H79 H 0.42759 0.90834 0.09946 0.0
H80 H 0.30008 0.65876 0.13958 0.0
H81 H 0.4668 0.77159 0.09956 0.0
H82 H 0.3682 0.42351 0.09648 0.0
H83 H 0.37072 0.5838 0.096 0.0
H84 H 0.43536 0.62168 0.14264 0.0
H85 H 0.43175 0.46158 0.14318 0.0
C86 C 0.30775 0.79086 0.13078 0.0
C87 C 0.34145 0.86188 0.11945 0.0
C88 C 0.33037 0.71357 0.13089 0.0
C89 C 0.38678 0.70405 0.1196 0.0
C90 C 0.42278 0.77645 0.10839 0.0
C91 C 0.40108 0.85521 0.10839 0.0
C92 C 0.38494 0.46694 0.10658 0.0
C93 C 0.39857 0.42867 0.11991 0.0
C94 C 0.38673 0.55919 0.10629 0.0
C95 C 0.40187 0.61519 0.11932 0.0
C96 C 0.42167 0.57976 0.13244 0.0
C97 C 0.42009 0.48794 0.13273 0.0
H98 H 0.46327 0.30694 0.42756 0.0
H99 H 0.49971 0.36969 0.47427 0.0
H100 H 0.62358 0.31079 0.42723 0.0
H101 H 0.65954 0.37433 0.47389 0.0
H102 H 0.83628 0.20503 0.4708 0.0
H103 H 0.69996 0.2407 0.47085 0.0
H104 H 0.81092 0.41037 0.43095 0.0
H105 H 0.94923 0.37413 0.43093 0.0
C106 C 0.50621 0.32361 0.4377 0.0
C107 C 0.46762 0.337 0.45097 0.0
C108 C 0.59849 0.32617 0.4375 0.0
C109 C 0.65422 0.3417 0.45057 0.0
C110 C 0.61803 0.36051 0.46365 0.0
C111 C 0.52629 0.35831 0.46385 0.0
C112 C 0.83291 0.25142 0.46214 0.0
C113 C 0.90393 0.2868 0.45088 0.0
C114 C 0.75468 0.27233 0.4622 0.0
C115 C 0.74403 0.32853 0.45091 0.0
C116 C 0.81654 0.36641 0.43978 0.0
C117 C 0.8963 0.34654 0.43984 0.0
H118 H 0.67819 0.82299 0.80154 0.0
H119 H 0.68353 0.92195 0.75703 0.0
H120 H 0.51414 0.67812 0.79699 0.0
H121 H 0.5168 0.77792 0.75257 0.0
H122 H 0.19723 0.43918 0.78814 0.0
H123 H 0.34026 0.60717 0.79249 0.0
H124 H 0.44727 0.60286 0.74888 0.0
H125 H 0.30358 0.43771 0.74442 0.0
C126 C 0.64349 0.81508 0.79084 0.0
C127 C 0.69495 0.88399 0.77961 0.0
C128 C 0.54852 0.73188 0.78825 0.0
C129 C 0.5017 0.71509 0.77436 0.0
C130 C 0.55099 0.78703 0.76334 0.0
C131 C 0.64644 0.87031 0.76592 0.0
C132 C 0.25027 0.47505 0.77939 0.0
C133 C 0.23893 0.4243 0.76596 0.0
C134 C 0.33296 0.57119 0.78192 0.0
C135 C 0.40653 0.61895 0.7711 0.0
C136 C 0.39219 0.56978 0.75745 0.0
C137 C 0.30965 0.47415 0.75491 0.0
H138 H 0.15881 0.63113 0.5979 0.0
H139 H 0.34139 0.9112 0.62127 0.0
H140 H 0.29686 0.5945 0.59951 0.0
H141 H 0.47662 0.87538 0.62281 0.0
H142 H 0.68341 0.77828 0.63479 0.0
H143 H 0.51625 0.75674 0.63513 0.0
H144 H 0.47658 0.6727 0.58911 0.0
H145 H 0.6442 0.69128 0.58896 0.0
C146 C 0.22764 0.68406 0.60349 0.0
C147 C 0.23932 0.77406 0.60944 0.0
C148 C 0.30653 0.66336 0.60436 0.0
C149 C 0.39713 0.73149 0.61144 0.0
C150 C 0.40727 0.82026 0.61754 0.0
C151 C 0.32976 0.84126 0.61654 0.0
C152 C 0.63762 0.75186 0.62488 0.0
C153 C 0.67659 0.73736 0.61182 0.0
C154 C 0.54216 0.73996 0.62504 0.0
C155 C 0.4843 0.71541 0.61206 0.0
C156 C 0.51947 0.6916 0.59929 0.0
C157 C 0.61522 0.70218 0.59919 0.0
H158 H 0.19148 0.44008 0.92891 0.0
H159 H 0.33193 0.43103 0.96969 0.0
H160 H 0.33031 0.61 0.92457 0.0
H161 H 0.47015 0.59922 0.96534 0.0
H162 H 0.66937 0.82087 0.91313 0.0
H163 H 0.50618 0.67648 0.9181 0.0
H164 H 0.52801 0.77811 0.96307 0.0
H165 H 0.69245 0.92246 0.95814 0.0
C166 C 0.25075 0.47506 0.9371 0.0
C167 C 0.25085 0.4217 0.9496 0.0
C168 C 0.33074 0.57212 0.93456 0.0
C169 C 0.41194 0.61829 0.94456 0.0
C170 C 0.40873 0.56681 0.95746 0.0
C171 C 0.32953 0.46983 0.95992 0.0
C172 C 0.63875 0.81362 0.92402 0.0
C173 C 0.69474 0.88294 0.93526 0.0
C174 C 0.54461 0.73089 0.92685 0.0
C175 C 0.50404 0.71491 0.94103 0.0
C176 C 0.55757 0.78732 0.95207 0.0
C177 C 0.65164 0.87053 0.94922 0.0
H178 H 0.74496 0.12892 0.25662 0.0
H179 H 0.78416 0.20003 0.3031 0.0
H180 H 0.73272 0.27875 0.25208 0.0
H181 H 0.77504 0.35083 0.29853 0.0
H182 H 0.88451 0.62387 0.24841 0.0
H183 H 0.85074 0.45383 0.25207 0.0
H184 H 0.68373 0.43211 0.29111 0.0
H185 H 0.72022 0.60501 0.2876 0.0
C186 C 0.74939 0.17551 0.2659 0.0
C187 C 0.76656 0.15266 0.28021 0.0
C188 C 0.74325 0.26209 0.26329 0.0
C189 C 0.75439 0.32821 0.2749 0.0
C190 C 0.76535 0.3018 0.2893 0.0
C191 C 0.7712 0.21521 0.29192 0.0
C192 C 0.8395 0.58276 0.2577 0.0
C193 C 0.80583 0.62877 0.26778 0.0
C194 C 0.81929 0.48436 0.25974 0.0
C195 C 0.76456 0.42857 0.27192 0.0
C196 C 0.7272 0.47309 0.2817 0.0
C197 C 0.74747 0.57202 0.27964 0.0
H198 H 0.04476 0.22336 0.22806 0.0
H199 H 1.00702 0.9258 0.22955 0.0
H200 H 0.0831 0.233 0.20201 0.0
H201 H 0.04108 0.93328 0.20333 0.0
H202 H 0.19027 1.01156 0.15834 0.0
H203 H 0.15923 1.0023 0.18464 0.0
H204 H 1.00772 0.17228 0.17894 0.0
H205 H 0.04285 0.18511 0.15272 0.0
C206 C 0.04491 0.15996 0.22283 0.0
C207 C 1.02287 0.07388 0.23094 0.0
C208 C 0.0658 0.16495 0.20779 0.0
C209 C 0.06402 0.08342 0.20035 0.0
C210 C 0.04435 0.99818 0.2086 0.0
C211 C 1.02459 0.99371 0.22369 0.0
C212 C 0.1497 0.04641 0.16267 0.0
C213 C 0.11925 0.09929 0.15337 0.0
C214 C 0.13153 0.04083 0.17782 0.0
C215 C 0.08144 0.08711 0.18409 0.0
C216 C 0.04862 0.13764 0.17467 0.0
C217 C 0.06779 0.14415 0.15955 0.0
H218 H 0.05171 0.75981 0.54943 0.0
H219 H 0.05155 0.03004 0.56261 0.0
H220 H 0.07994 0.81574 0.52411 0.0
H221 H 0.08085 0.08686 0.53701 0.0
H222 H 1.01836 0.0919 0.48685 0.0
H223 H 0.99247 0.04074 0.51258 0.0
H224 H 0.20985 0.94381 0.50878 0.0
H225 H 0.23536 0.99423 0.48307 0.0
C226 C 0.0582 0.83165 0.54695 0.0
C227 C 0.04927 0.89039 0.55811 0.0
C228 C 0.075 0.86397 0.53238 0.0
C229 C 0.08284 0.95586 0.52847 0.0
C230 C 0.07432 1.0152 0.53962 0.0
C231 C 0.05826 0.98307 0.55431 0.0
C232 C 0.06017 0.059 0.49146 0.0
C233 C 0.12861 0.0467 0.48282 0.0
C234 C 0.04602 0.03065 0.50628 0.0
C235 C 0.09925 0.98843 0.51279 0.0
C236 C 0.1669 0.97525 0.5041 0.0
C237 C 0.18161 1.00427 0.48933 0.0
H238 H 0.98971 0.96836 0.81884 0.0
H239 H 0.28361 0.23203 0.82061 0.0
H240 H 0.98802 0.96262 0.84573 0.0
H241 H 0.28242 0.22523 0.84736 0.0
H242 H 0.16478 0.27998 0.89082 0.0
H243 H 0.18772 0.26389 0.86482 0.0
H244 H 0.06091 0.94374 0.86953 0.0
H245 H 0.03724 0.96017 0.89595 0.0
C246 C 0.05497 0.02363 0.82492 0.0
C247 C 0.13621 0.1016 0.81752 0.0
C248 C 0.05409 1.02011 0.84037 0.0
C249 C 0.13439 0.09444 0.84874 0.0
C250 C 0.2184 0.16797 0.84128 0.0
C251 C 0.21926 0.17158 0.8259 0.0
C252 C 0.14273 0.20606 0.88641 0.0
C253 C 0.09896 0.12133 0.89549 0.0
C254 C 0.15663 0.19692 0.87146 0.0
C255 C 0.12654 0.10255 0.86502 0.0
C256 C 0.08457 1.01752 0.87413 0.0
C257 C 0.07169 0.02694 0.88926 0.0
H258 H 0.04296 0.99552 0.06949 0.0
H259 H 0.34346 0.11168 0.05372 0.0
H260 H 0.98242 0.97855 0.04408 0.0
H261 H 0.28414 0.09797 0.02858 0.0
H262 H 0.1467 1.0064 0.98314 0.0
H263 H 0.19253 0.99161 1.00846 0.0
H264 H 0.98691 0.08241 1.02456 0.0
H265 H 0.93926 0.0938 0.99949 0.0
C266 C 0.09603 1.01715 0.06063 0.0
C267 C 0.19813 0.05541 0.06371 0.0
C268 C 0.06152 1.008 0.04604 0.0
C269 C 0.12831 0.03722 0.03417 0.0
C270 C 0.22995 0.07315 0.03731 0.0
C271 C 0.26422 0.08187 0.05183 0.0
C272 C 0.11061 0.02205 0.9921 0.0
C273 C 0.03969 0.05178 0.98922 0.0
C274 C 0.13726 1.01423 1.00665 0.0
C275 C 0.0939 0.03627 1.01867 0.0
C276 C 1.02107 0.06333 1.0157 0.0
C277 C 0.99428 0.07074 1.00123 0.0
H278 H 0.92282 0.03797 0.32172 0.0
H279 H 0.13257 0.93044 0.32079 0.0
H280 H 0.94651 0.0636 0.34811 0.0
H281 H 0.16269 0.96289 0.34716 0.0
H282 H 0.13435 0.94437 0.39684 0.0
H283 H 0.10516 0.91272 0.37045 0.0
H284 H 0.04333 0.15725 0.36722 0.0
H285 H 0.06539 0.18304 0.39362 0.0
C286 C 0.97595 0.02195 0.32713 0.0
C287 C 1.02605 0.98246 0.31911 0.0
C288 C 0.99017 0.03717 0.34236 0.0
C289 C 0.05699 1.01581 0.35004 0.0
C290 C 0.10888 0.97837 0.34187 0.0
C291 C 0.09265 0.96077 0.32666 0.0
C292 C 0.11328 0.99035 0.39046 0.0
C293 C 0.10129 0.06553 0.39738 0.0
C294 C 0.09762 0.97314 0.37524 0.0
C295 C 0.07192 0.03238 0.36642 0.0
C296 C 0.06047 0.10793 0.37346 0.0
C297 C 0.07369 0.12333 0.3887 0.0
H298 H 0.13834 0.99868 0.65114 0.0
H299 H 0.8531 0.73341 0.65847 0.0
H300 H 0.15605 0.03566 0.67766 0.0
H301 H 0.86771 0.77184 0.68452 0.0
H302 H 0.94568 0.79634 0.73192 0.0
H303 H 0.9494 0.76745 0.70568 0.0
H304 H 0.10146 0.08768 0.69845 0.0
H305 H 0.10216 0.11626 0.72491 0.0
C306 C 0.07896 0.94914 0.65838 0.0
C307 C 0.9949 0.86258 0.65272 0.0
C308 C 0.08885 0.97023 0.6736 0.0
C309 C 1.01421 0.9058 0.68343 0.0
C310 C 0.92868 0.82156 0.67753 0.0
C311 C 0.9197 0.79988 0.66248 0.0
C312 C 0.98116 0.86064 0.72475 0.0
C313 C 1.02307 0.95848 0.73053 0.0
C314 C 0.98241 0.84419 0.70962 0.0
C315 C 1.02364 0.92505 0.69974 0.0
C316 C 0.06936 0.02332 0.70562 0.0
C317 C 0.06959 0.03981 0.72084 0.0
loop_
_geom_bond_atom_site_label_1
_geom_bond_atom_site_label_2
_geom_bond_distance
_geom_bond_site_symmetry_2
_ccdc_geom_bond_type
Mg0 O7 2.141 . S
Mg0 O8 2.048 1_545 S
Mg0 O9 2.048 . S
Mg0 O12 2.141 . S
C1 O2 1.313 . S
C1 O8 1.195 1_455 S
O2 C1 1.313 . S
C3 O4 1.245 . S
C3 O12 1.289 1_455 S
O4 C3 1.245 . S
C5 O6 1.245 . S
C5 O7 1.289 1_455 S
O6 C5 1.245 . S
O7 Mg0 2.141 . S
O7 C5 1.289 1_655 S
O8 Mg0 2.048 1_565 S
O8 C1 1.195 1_655 S
O9 Mg0 2.048 . S
O9 C10 1.195 1_655 S
C10 O9 1.195 1_455 S
C10 O11 1.313 . S
O11 C10 1.313 . S
O12 Mg0 2.141 . S
O12 C3 1.289 1_655 S
Mg13 O20 2.141 . S
Mg13 O21 2.048 1_455 S
Mg13 O22 2.048 . S
Mg13 O25 2.141 . S
C14 O15 1.313 1_545 S
C14 O21 1.195 . S
O15 C14 1.313 1_565 S
C16 O17 1.245 1_545 S
C16 O25 1.289 . S
O17 C16 1.245 1_565 S
C18 O19 1.245 1_445 S
C18 O20 1.289 . S
O19 C18 1.245 1_665 S
O20 Mg13 2.141 . S
O20 C18 1.289 . S
O21 Mg13 2.048 1_655 S
O21 C14 1.195 . S
O22 Mg13 2.048 . S
O22 C23 1.195 . S
C23 O22 1.195 . S
C23 O24 1.313 1_445 S
O24 C23 1.313 1_665 S
O25 Mg13 2.141 . S
O25 C16 1.289 . S
Mg26 O33 2.141 . S
Mg26 O34 2.048 1_445 S
Mg26 O35 2.048 . S
Mg26 O38 2.141 . S
C27 O28 1.313 . S
C27 O34 1.195 . S
O28 C27 1.313 . S
C29 O30 1.245 . S
C29 O38 1.289 . S
O30 C29 1.245 . S
C31 O32 1.245 1_545 S
C31 O33 1.289 . S
O32 C31 1.245 1_565 S
O33 Mg26 2.141 . S
O33 C31 1.289 . S
O34 Mg26 2.048 1_665 S
O34 C27 1.195 . S
O35 Mg26 2.048 . S
O35 C36 1.195 . S
C36 O35 1.195 . S
C36 O37 1.313 1_545 S
O37 C36 1.313 1_565 S
O38 Mg26 2.141 . S
O38 C29 1.289 . S
Mg39 O46 2.141 . S
Mg39 O47 2.048 . S
Mg39 O48 2.048 . S
Mg39 O51 2.141 1_455 S
C40 O41 1.313 1_545 S
C40 O47 1.195 . S
O41 C40 1.313 1_565 S
C42 O43 1.245 1_545 S
C42 O51 1.289 . S
O43 C42 1.245 1_565 S
C44 O45 1.245 1_445 S
C44 O46 1.289 . S
O45 C44 1.245 1_665 S
O46 Mg39 2.141 . S
O46 C44 1.289 . S
O47 Mg39 2.048 . S
O47 C40 1.195 . S
O48 Mg39 2.048 . S
O48 C49 1.195 . S
C49 O48 1.195 . S
C49 O50 1.313 1_445 S
O50 C49 1.313 1_665 S
O51 Mg39 2.141 1_655 S
O51 C42 1.289 . S
Mg52 O59 2.141 . S
Mg52 O60 2.048 1_655 S
Mg52 O61 2.048 . S
Mg52 O64 2.141 1_545 S
C53 O54 1.313 . S
C53 O60 1.195 . S
O54 C53 1.313 . S
C55 O56 1.245 . S
C55 O64 1.289 . S
O56 C55 1.245 . S
C57 O58 1.245 1_545 S
C57 O59 1.289 1_455 S
O58 C57 1.245 1_565 S
O59 Mg52 2.141 . S
O59 C57 1.289 1_655 S
O60 Mg52 2.048 1_455 S
O60 C53 1.195 . S
O61 Mg52 2.048 . S
O61 C62 1.195 1_655 S
C62 O61 1.195 1_455 S
C62 O63 1.313 . S
O63 C62 1.313 . S
O64 Mg52 2.141 1_565 S
O64 C55 1.289 . S
Mg65 O72 2.141 . S
Mg65 O73 2.048 1_565 S
Mg65 O74 2.048 . S
Mg65 O77 2.141 . S
C66 O67 1.313 . S
C66 O73 1.195 1_455 S
O67 C66 1.313 . S
C68 O69 1.245 . S
C68 O77 1.289 1_455 S
O69 C68 1.245 . S
C70 O71 1.245 . S
C70 O72 1.289 1_445 S
O71 C70 1.245 . S
O72 Mg65 2.141 . S
O72 C70 1.289 1_665 S
O73 Mg65 2.048 1_545 S
O73 C66 1.195 1_655 S
O74 Mg65 2.048 . S
O74 C75 1.195 1_665 S
C75 O74 1.195 1_445 S
C75 O76 1.313 . S
O76 C75 1.313 . S
O77 Mg65 2.141 . S
O77 C68 1.289 1_655 S
H78 C86 0.950 . S
H79 C91 0.950 . S
H80 C88 0.950 . S
H81 C90 0.950 . S
H82 C92 0.950 . S
H83 C94 0.950 . S
H84 C96 0.950 . S
H85 C97 0.950 . S
C86 H78 0.950 . S
C86 C87 1.386 . S
C86 C88 1.391 . S
C87 C86 1.386 . S
C87 C91 1.393 1_455 S
C88 H80 0.950 . S
C88 C86 1.391 . S
C88 C89 1.400 . S
C89 C88 1.400 . S
C89 C90 1.398 1_455 S
C89 C95 1.491 . S
C90 H81 0.950 . S
C90 C89 1.398 1_655 S
C90 C91 1.391 . S
C91 H79 0.950 . S
C91 C87 1.393 1_655 S
C91 C90 1.391 . S
C92 H82 0.950 . S
C92 C93 1.386 1_655 S
C92 C94 1.391 . S
C93 C92 1.386 1_455 S
C93 C97 1.393 . S
C94 H83 0.950 . S
C94 C92 1.391 . S
C94 C95 1.400 1_655 S
C95 C89 1.491 . S
C95 C94 1.400 1_455 S
C95 C96 1.398 . S
C96 H84 0.950 . S
C96 C95 1.398 . S
C96 C97 1.391 . S
C97 H85 0.950 . S
C97 C93 1.393 . S
C97 C96 1.391 . S
H98 C106 0.950 . S
H99 C111 0.950 . S
H100 C108 0.950 . S
H101 C110 0.950 . S
H102 C112 0.950 . S
H103 C114 0.950 . S
H104 C116 0.950 . S
H105 C117 0.950 . S
C106 H98 0.950 . S
C106 C107 1.386 . S
C106 C108 1.391 . S
C107 C106 1.386 . S
C107 C111 1.393 1_545 S
C108 H100 0.950 . S
C108 C106 1.391 . S
C108 C109 1.400 . S
C109 C108 1.400 . S
C109 C110 1.398 1_545 S
C109 C115 1.491 . S
C110 H101 0.950 . S
C110 C109 1.398 1_565 S
C110 C111 1.391 . S
C111 H99 0.950 . S
C111 C107 1.393 1_565 S
C111 C110 1.391 . S
C112 H102 0.950 . S
C112 C113 1.386 1_565 S
C112 C114 1.391 . S
C113 C112 1.386 1_545 S
C113 C117 1.393 . S
C114 H103 0.950 . S
C114 C112 1.391 . S
C114 C115 1.400 1_565 S
C115 C109 1.491 . S
C115 C114 1.400 1_545 S
C115 C116 1.398 . S
C116 H104 0.950 . S
C116 C115 1.398 . S
C116 C117 1.391 . S
C117 H105 0.950 . S
C117 C113 1.393 . S
C117 C116 1.391 . S
H118 C126 0.950 . S
H119 C131 0.950 . S
H120 C128 0.950 . S
H121 C130 0.950 . S
H122 C132 0.950 . S
H123 C134 0.950 . S
H124 C136 0.950 . S
H125 C137 0.950 . S
C126 H118 0.950 . S
C126 C127 1.386 . S
C126 C128 1.391 . S
C127 C126 1.386 . S
C127 C131 1.393 . S
C128 H120 0.950 . S
C128 C126 1.391 . S
C128 C129 1.400 . S
C129 C128 1.400 . S
C129 C130 1.398 . S
C129 C135 1.491 . S
C130 H121 0.950 . S
C130 C129 1.398 . S
C130 C131 1.391 . S
C131 H119 0.950 . S
C131 C127 1.393 . S
C131 C130 1.391 . S
C132 H122 0.950 . S
C132 C133 1.386 . S
C132 C134 1.391 . S
C133 C132 1.386 . S
C133 C137 1.393 . S
C134 H123 0.950 . S
C134 C132 1.391 . S
C134 C135 1.400 . S
C135 C129 1.491 . S
C135 C134 1.400 . S
C135 C136 1.398 . S
C136 H124 0.950 . S
C136 C135 1.398 . S
C136 C137 1.391 . S
C137 H125 0.950 . S
C137 C133 1.393 . S
C137 C136 1.391 . S
H138 C146 0.950 . S
H139 C151 0.950 . S
H140 C148 0.950 . S
H141 C150 0.950 . S
H142 C152 0.950 . S
H143 C154 0.950 . S
H144 C156 0.950 . S
H145 C157 0.950 . S
C146 H138 0.950 . S
C146 C147 1.386 . S
C146 C148 1.391 . S
C147 C146 1.386 . S
C147 C151 1.393 1_545 S
C148 H140 0.950 . S
C148 C146 1.391 . S
C148 C149 1.400 . S
C149 C148 1.400 . S
C149 C150 1.398 1_545 S
C149 C155 1.491 . S
C150 H141 0.950 . S
C150 C149 1.398 1_565 S
C150 C151 1.391 . S
C151 H139 0.950 . S
C151 C147 1.393 1_565 S
C151 C150 1.391 . S
C152 H142 0.950 . S
C152 C153 1.386 1_565 S
C152 C154 1.391 . S
C153 C152 1.386 1_545 S
C153 C157 1.393 . S
C154 H143 0.950 . S
C154 C152 1.391 . S
C154 C155 1.400 1_565 S
C155 C149 1.491 . S
C155 C154 1.400 1_545 S
C155 C156 1.398 . S
C156 H144 0.950 . S
C156 C155 1.398 . S
C156 C157 1.391 . S
C157 H145 0.950 . S
C157 C153 1.393 . S
C157 C156 1.391 . S
H158 C166 0.950 . S
H159 C171 0.950 . S
H160 C168 0.950 . S
H161 C170 0.950 . S
H162 C172 0.950 . S
H163 C174 0.950 . S
H164 C176 0.950 . S
H165 C177 0.950 . S
C166 H158 0.950 . S
C166 C167 1.386 . S
C166 C168 1.391 . S
C167 C166 1.386 . S
C167 C171 1.393 . S
C168 H160 0.950 . S
C168 C166 1.391 . S
C168 C169 1.400 . S
C169 C168 1.400 . S
C169 C170 1.398 . S
C169 C175 1.491 . S
C170 H161 0.950 . S
C170 C169 1.398 . S
C170 C171 1.391 . S
C171 H159 0.950 . S
C171 C167 1.393 . S
C171 C170 1.391 . S
C172 H162 0.950 . S
C172 C173 1.386 . S
C172 C174 1.391 . S
C173 C172 1.386 . S
C173 C177 1.393 . S
C174 H163 0.950 . S
C174 C172 1.391 . S
C174 C175 1.400 . S
C175 C169 1.491 . S
C175 C174 1.400 . S
C175 C176 1.398 . S
C176 H164 0.950 . S
C176 C175 1.398 . S
C176 C177 1.391 . S
C177 H165 0.950 . S
C177 C173 1.393 . S
C177 C176 1.391 . S
H178 C186 0.950 . S
H179 C191 0.950 . S
H180 C188 0.950 . S
H181 C190 0.950 . S
H182 C192 0.950 . S
H183 C194 0.950 . S
H184 C196 0.950 . S
H185 C197 0.950 . S
C186 H178 0.950 . S
C186 C187 1.386 1_655 S
C186 C188 1.391 . S
C187 C186 1.386 1_455 S
C187 C191 1.393 . S
C188 H180 0.950 . S
C188 C186 1.391 . S
C188 C189 1.400 1_655 S
C189 C188 1.400 1_455 S
C189 C190 1.398 . S
C189 C195 1.491 . S
C190 H181 0.950 . S
C190 C189 1.398 . S
C190 C191 1.391 . S
C191 H179 0.950 . S
C191 C187 1.393 . S
C191 C190 1.391 . S
C192 H182 0.950 . S
C192 C193 1.386 . S
C192 C194 1.391 . S
C193 C192 1.386 . S
C193 C197 1.393 1_455 S
C194 H183 0.950 . S
C194 C192 1.391 . S
C194 C195 1.400 . S
C195 C189 1.491 . S
C195 C194 1.400 . S
C195 C196 1.398 1_455 S
C196 H184 0.950 . S
C196 C195 1.398 1_655 S
C196 C197 1.391 . S
C197 H185 0.950 . S
C197 C193 1.393 1_655 S
C197 C196 1.391 . S
H198 C206 0.950 . S
H199 C211 0.950 . S
H200 C208 0.950 . S
H201 C210 0.950 . S
H202 C212 0.950 . S
H203 C214 0.950 . S
H204 C216 0.950 . S
H205 C217 0.950 . S
C206 H198 0.950 . S
C206 C207 1.386 . S
C206 C208 1.391 . S
C207 C206 1.386 . S
C207 C211 1.393 1_445 S
C208 H200 0.950 . S
C208 C206 1.391 . S
C208 C209 1.400 . S
C209 C208 1.400 . S
C209 C210 1.398 1_445 S
C209 C215 1.491 . S
C210 H201 0.950 . S
C210 C209 1.398 1_665 S
C210 C211 1.391 . S
C211 H199 0.950 . S
C211 C207 1.393 1_665 S
C211 C210 1.391 . S
C212 H202 0.950 . S
C212 C213 1.386 1_665 S
C212 C214 1.391 . S
C213 C212 1.386 1_445 S
C213 C217 1.393 . S
C214 H203 0.950 . S
C214 C212 1.391 . S
C214 C215 1.400 1_665 S
C215 C209 1.491 . S
C215 C214 1.400 1_445 S
C215 C216 1.398 . S
C216 H204 0.950 . S
C216 C215 1.398 . S
C216 C217 1.391 . S
C217 H205 0.950 . S
C217 C213 1.393 . S
C217 C216 1.391 . S
H218 C226 0.950 . S
H219 C231 0.950 . S
H220 C228 0.950 . S
H221 C230 0.950 . S
H222 C232 0.950 . S
H223 C234 0.950 . S
H224 C236 0.950 . S
H225 C237 0.950 . S
C226 H218 0.950 . S
C226 C227 1.386 1_665 S
C226 C228 1.391 . S
C227 C226 1.386 1_445 S
C227 C231 1.393 . S
C228 H220 0.950 . S
C228 C226 1.391 . S
C228 C229 1.400 1_665 S
C229 C228 1.400 1_445 S
C229 C230 1.398 . S
C229 C235 1.491 . S
C230 H221 0.950 . S
C230 C229 1.398 . S
C230 C231 1.391 . S
C231 H219 0.950 . S
C231 C227 1.393 . S
C231 C230 1.391 . S
C232 H222 0.950 . S
C232 C233 1.386 . S
C232 C234 1.391 . S
C233 C232 1.386 . S
C233 C237 1.392 1_445 S
C234 H223 0.950 . S
C234 C232 1.391 . S
C234 C235 1.400 . S
C235 C229 1.491 . S
C235 C234 1.400 . S
C235 C236 1.398 1_445 S
C236 H224 0.950 . S
C236 C235 1.398 1_665 S
C236 C237 1.391 . S
C237 H225 0.950 . S
C237 C233 1.392 1_665 S
C237 C236 1.391 . S
H238 C246 0.950 . S
H239 C251 0.950 . S
H240 C248 0.950 . S
H241 C250 0.950 . S
H242 C252 0.950 . S
H243 C254 0.950 . S
H244 C256 0.950 . S
H245 C257 0.950 . S
C246 H238 0.950 . S
C246 C247 1.386 1_655 S
C246 C248 1.391 . S
C247 C246 1.386 1_455 S
C247 C251 1.393 1_545 S
C248 H240 0.950 . S
C248 C246 1.391 . S
C248 C249 1.400 1_655 S
C249 C248 1.400 1_455 S
C249 C250 1.398 1_545 S
C249 C255 1.491 . S
C250 H241 0.950 . S
C250 C249 1.398 1_565 S
C250 C251 1.391 . S
C251 H239 0.950 . S
C251 C247 1.393 1_565 S
C251 C250 1.391 . S
C252 H242 0.950 . S
C252 C253 1.386 1_565 S
C252 C254 1.391 . S
C253 C252 1.386 1_545 S
C253 C257 1.393 1_455 S
C254 H243 0.950 . S
C254 C252 1.391 . S
C254 C255 1.400 1_565 S
C255 C249 1.491 . S
C255 C254 1.400 1_545 S
C255 C256 1.398 1_455 S
C256 H244 0.950 . S
C256 C255 1.398 1_655 S
C256 C257 1.391 . S
C257 H245 0.950 . S
C257 C253 1.393 1_655 S
C257 C256 1.391 . S
H258 C266 0.950 1_565 S
H259 C271 0.950 . S
H260 C268 0.950 1_565 S
H261 C270 0.950 . S
H262 C272 0.950 . S
H263 C274 0.950 . S
H264 C276 0.950 . S
H265 C277 0.950 . S
C266 H258 0.950 1_545 S
C266 C267 1.386 1_655 S
C266 C268 1.391 . S
C267 C266 1.386 1_455 S
C267 C271 1.393 . S
C268 H260 0.950 1_545 S
C268 C266 1.391 . S
C268 C269 1.400 1_655 S
C269 C268 1.400 1_455 S
C269 C270 1.398 . S
C269 C275 1.491 1_554 S
C270 H261 0.950 . S
C270 C269 1.398 . S
C270 C271 1.391 . S
C271 H259 0.950 . S
C271 C267 1.393 . S
C271 C270 1.391 . S
C272 H262 0.950 . S
C272 C273 1.386 . S
C272 C274 1.391 . S
C273 C272 1.386 . S
C273 C277 1.393 1_445 S
C274 H263 0.950 . S
C274 C272 1.391 . S
C274 C275 1.400 . S
C275 C269 1.491 1_556 S
C275 C274 1.400 . S
C275 C276 1.398 1_445 S
C276 H264 0.950 . S
C276 C275 1.398 1_665 S
C276 C277 1.391 . S
C277 H265 0.950 . S
C277 C273 1.393 1_665 S
C277 C276 1.391 . S
H278 C286 0.950 . S
H279 C291 0.950 . S
H280 C288 0.950 . S
H281 C290 0.950 . S
H282 C292 0.950 1_565 S
H283 C294 0.950 1_565 S
H284 C296 0.950 . S
H285 C297 0.950 . S
C286 H278 0.950 . S
C286 C287 1.386 1_655 S
C286 C288 1.391 . S
C287 C286 1.386 1_455 S
C287 C291 1.393 1_545 S
C288 H280 0.950 . S
C288 C286 1.391 . S
C288 C289 1.400 1_655 S
C289 C288 1.400 1_455 S
C289 C290 1.398 1_545 S
C289 C295 1.491 . S
C290 H281 0.950 . S
C290 C289 1.398 1_565 S
C290 C291 1.391 . S
C291 H279 0.950 . S
C291 C287 1.393 1_565 S
C291 C290 1.391 . S
C292 H282 0.950 1_545 S
C292 C293 1.386 . S
C292 C294 1.391 . S
C293 C292 1.386 . S
C293 C297 1.393 1_455 S
C294 H283 0.950 1_545 S
C294 C292 1.391 . S
C294 C295 1.400 . S
C295 C289 1.491 . S
C295 C294 1.400 . S
C295 C296 1.398 1_455 S
C296 H284 0.950 . S
C296 C295 1.398 1_655 S
C296 C297 1.391 . S
C297 H285 0.950 . S
C297 C293 1.393 1_655 S
C297 C296 1.391 . S
H298 C306 0.950 . S
H299 C311 0.950 . S
H300 C308 0.950 . S
H301 C310 0.950 . S
H302 C312 0.950 . S
H303 C314 0.950 . S
H304 C316 0.950 . S
H305 C317 0.950 . S
C306 H298 0.950 . S
C306 C307 1.386 . S
C306 C308 1.391 . S
C307 C306 1.386 . S
C307 C311 1.393 1_445 S
C308 H300 0.950 . S
C308 C306 1.391 . S
C308 C309 1.400 . S
C309 C308 1.400 . S
C309 C310 1.398 1_445 S
C309 C315 1.491 . S
C310 H301 0.950 . S
C310 C309 1.398 1_665 S
C310 C311 1.391 . S
C311 H299 0.950 . S
C311 C307 1.393 1_665 S
C311 C310 1.391 . S
C312 H302 0.950 . S
C312 C313 1.386 1_665 S
C312 C314 1.391 . S
C313 C312 1.386 1_445 S
C313 C317 1.393 . S
C314 H303 0.950 . S
C314 C312 1.391 . S
C314 C315 1.400 1_665 S
C315 C309 1.491 . S
C315 C314 1.400 1_445 S
C315 C316 1.398 . S
C316 H304 0.950 . S
C316 C315 1.398 . S
C316 C317 1.391 . S
C317 H305 0.950 . S
C317 C313 1.393 . S
C317 C316 1.391 . S
C87 C1 1.497 . S
C93 C3 1.484 . S
C107 C16 1.491 . S
C113 C14 1.488 . S
C127 C27 1.497 . S
C133 C29 1.484 . S
C147 C40 1.494 . S
C153 C42 1.484 . S
C167 C53 1.489 . S
C173 C55 1.491 . S
C187 C66 1.490 . S
C193 C68 1.489 . S
C207 C70 1.484 . S
C213 C5 1.492 . S
C227 C44 1.491 . S
C233 C18 1.486 . S
C247 C31 1.494 . S
C253 C57 1.488 . S
C267 C10 1.495 . S
C273 C62 1.489 . S
C287 C75 1.496 . S
C293 C23 1.496 . S
C307 C49 1.497 . S
C313 C36 1.491 . S
