# Generated by pormake.
# Topology snz, (6)-cn, num edge types: 1
# Building blocks:
#     Node 0, Type 0, BuildingBlock: CUWYAW_clean_sbu_0, # of connection points: 6
#     Node 1, Type 0, BuildingBlock: CUWYAW_clean_sbu_0, # of connection points: 6
#     Node 2, Type 0, BuildingBlock: CUWYAW_clean_sbu_0, # of connection points: 6
#     Node 3, Type 0, BuildingBlock: CUWYAW_clean_sbu_0, # of connection points: 6
#     Node 4, Type 0, BuildingBlock: CUWYAW_clean_sbu_0, # of connection points: 6
#     Node 5, Type 0, BuildingBlock: CUWYAW_clean_sbu_0, # of connection points: 6
#     Node 6, Type 0, BuildingBlock: CUWYAW_clean_sbu_0, # of connection points: 6
#     Node 7, Type 0, BuildingBlock: CUWYAW_clean_sbu_0, # of connection points: 6
#     Node 8, Type 0, BuildingBlock: CUWYAW_clean_sbu_0, # of connection points: 6
#     Edge 9, Type (0, 0), BuildingBlock: ZUJKAS_clean_linker_0, # of connection points: 2
#     Edge 10, Type (0, 0), BuildingBlock: ZUJKAS_clean_linker_0, # of connection points: 2
#     Edge 11, Type (0, 0), BuildingBlock: ZUJKAS_clean_linker_0, # of connection points: 2
#     Edge 12, Type (0, 0), BuildingBlock: ZUJKAS_clean_linker_0, # of connection points: 2
#     Edge 13, Type (0, 0), BuildingBlock: ZUJKAS_clean_linker_0, # of connection points: 2
#     Edge 14, Type (0, 0), BuildingBlock: ZUJKAS_clean_linker_0, # of connection points: 2
#     Edge 15, Type (0, 0), BuildingBlock: ZUJKAS_clean_linker_0, # of connection points: 2
#     Edge 16, Type (0, 0), BuildingBlock: ZUJKAS_clean_linker_0, # of connection points: 2
#     Edge 17, Type (0, 0), BuildingBlock: ZUJKAS_clean_linker_0, # of connection points: 2
#     Edge 18, Type (0, 0), BuildingBlock: ZUJKAS_clean_linker_0, # of connection points: 2
#     Edge 19, Type (0, 0), BuildingBlock: ZUJKAS_clean_linker_0, # of connection points: 2
#     Edge 20, Type (0, 0), BuildingBlock: ZUJKAS_clean_linker_0, # of connection points: 2
#     Edge 21, Type (0, 0), BuildingBlock: ZUJKAS_clean_linker_0, # of connection points: 2
#     Edge 22, Type (0, 0), BuildingBlock: ZUJKAS_clean_linker_0, # of connection points: 2
#     Edge 23, Type (0, 0), BuildingBlock: ZUJKAS_clean_linker_0, # of connection points: 2
#     Edge 24, Type (0, 0), BuildingBlock: ZUJKAS_clean_linker_0, # of connection points: 2
#     Edge 25, Type (0, 0), BuildingBlock: ZUJKAS_clean_linker_0, # of connection points: 2
#     Edge 26, Type (0, 0), BuildingBlock: ZUJKAS_clean_linker_0, # of connection points: 2
#     Edge 27, Type (0, 0), BuildingBlock: ZUJKAS_clean_linker_0, # of connection points: 2
#     Edge 28, Type (0, 0), BuildingBlock: ZUJKAS_clean_linker_0, # of connection points: 2
#     Edge 29, Type (0, 0), BuildingBlock: ZUJKAS_clean_linker_0, # of connection points: 2
#     Edge 30, Type (0, 0), BuildingBlock: ZUJKAS_clean_linker_0, # of connection points: 2
#     Edge 31, Type (0, 0), BuildingBlock: ZUJKAS_clean_linker_0, # of connection points: 2
#     Edge 32, Type (0, 0), BuildingBlock: ZUJKAS_clean_linker_0, # of connection points: 2
#     Edge 33, Type (0, 0), BuildingBlock: ZUJKAS_clean_linker_0, # of connection points: 2
#     Edge 34, Type (0, 0), BuildingBlock: ZUJKAS_clean_linker_0, # of connection points: 2
#     Edge 35, Type (0, 0), BuildingBlock: ZUJKAS_clean_linker_0, # of connection points: 2
# Relax obj value: 0.128
# Max RMSD: 0.204
# Mean RMSD: 0.180
data_MOF--net-snz--node1-CUWYAW_clean_sbu_0--edge1-ZUJKAS_clean_linker_0
_symmetry_space_group_name_H-M    P1
_symmetry_Int_Tables_number       1
_symmetry_cell_setting            triclinic
loop_
_symmetry_equiv_pos_as_xyz
'x, y, z'
_cell_length_a     82.261859
_cell_length_b     82.321603
_cell_length_c     18.934003
_cell_angle_alpha  90.073998
_cell_angle_beta   90.014541
_cell_angle_gamma 119.99701
loop_
_atom_site_label
_atom_site_type_symbol
_atom_site_fract_x
_atom_site_fract_y
_atom_site_fract_z
_atom_type_partial_charge
C0 C 0.12018 0.43447 0.96432 0.0
Eu1 Eu 0.14671 0.42918 0.01415 0.0
C2 C 0.11414 0.44862 0.96447 0.0
C3 C 0.09539 0.44297 0.98004 0.0
C4 C 0.08889 0.4557 0.97565 0.0
C5 C 0.101 0.4744 0.95512 0.0
C6 C 0.11995 0.48018 0.94144 0.0
C7 C 0.12646 0.46742 0.94609 0.0
C8 C 0.15197 0.4239 0.15242 0.0
C9 C 0.1834 0.46911 0.05196 0.0
C10 C 0.21049 0.42666 0.10425 0.0
Eu11 Eu 0.18326 0.42972 0.04661 0.0
C12 C 0.22269 0.41834 0.11436 0.0
C13 C 0.23091 0.41408 0.05744 0.0
C14 C 0.24459 0.40891 0.06965 0.0
C15 C 0.2505 0.40818 0.1389 0.0
C16 C 0.24174 0.41185 0.19555 0.0
C17 C 0.228 0.41682 0.18338 0.0
C18 C 0.17837 0.43509 0.90806 0.0
C19 C 0.14528 0.38981 0.00175 0.0
O20 O 0.13549 0.43852 0.92945 0.0
O21 O 0.11871 0.42579 0.02385 0.0
O22 O 0.13576 0.41546 0.12115 0.0
O23 O 0.16426 0.43529 0.11066 0.0
O24 O 0.16747 0.46038 0.01652 0.0
O25 O 0.19114 0.45963 0.07837 0.0
O26 O 0.19334 0.41817 0.12931 0.0
O27 O 0.21242 0.43637 0.04702 0.0
O28 O 0.19462 0.44297 0.93915 0.0
O29 O 0.16599 0.42388 0.94992 0.0
O30 O 0.16188 0.39781 0.03455 0.0
O31 O 0.13776 0.39987 0.98065 0.0
H32 H 0.08566 0.42856 0.99452 0.0
H33 H 0.07431 0.45084 0.98785 0.0
H34 H 0.12964 0.4944 0.92487 0.0
H35 H 0.14102 0.47218 0.9338 0.0
H36 H 0.2272 0.41528 0.0036 0.0
H37 H 0.25109 0.40623 0.0248 0.0
H38 H 0.2457 0.41114 0.24953 0.0
H39 H 0.22199 0.42016 0.22816 0.0
C40 C 0.74377 0.53614 0.97129 0.0
Eu41 Eu 0.75013 0.56836 0.02165 0.0
C42 C 0.72856 0.51635 0.96656 0.0
C43 C 0.73256 0.50207 0.98235 0.0
C44 C 0.71874 0.4832 0.97519 0.0
C45 C 0.70058 0.47816 0.9518 0.0
C46 C 0.69651 0.49252 0.93695 0.0
C47 C 0.71035 0.51142 0.94435 0.0
C48 C 0.75528 0.57876 0.15996 0.0
C49 C 0.71067 0.56638 0.05683 0.0
C50 C 0.75403 0.63549 0.11083 0.0
Eu51 Eu 0.75054 0.60493 0.05398 0.0
C52 C 0.76227 0.65602 0.12102 0.0
C53 C 0.76684 0.66851 0.06403 0.0
C54 C 0.77188 0.68734 0.07592 0.0
C55 C 0.77217 0.69397 0.14489 0.0
C56 C 0.76818 0.68153 0.20168 0.0
C57 C 0.76335 0.66284 0.18985 0.0
C58 C 0.74557 0.59485 0.91533 0.0
C59 C 0.7903 0.60553 0.01655 0.0
O60 O 0.7419 0.54854 0.93427 0.0
O61 O 0.75095 0.54237 0.03386 0.0
O62 O 0.76336 0.57057 0.12916 0.0
O63 O 0.74418 0.58009 0.11776 0.0
O64 O 0.71917 0.55899 0.02111 0.0
O65 O 0.72043 0.5834 0.08466 0.0
O66 O 0.76245 0.6268 0.13617 0.0
O67 O 0.74424 0.62766 0.05371 0.0
O68 O 0.73783 0.60342 0.94585 0.0
O69 O 0.75647 0.59331 0.95788 0.0
O70 O 0.78225 0.61473 0.04399 0.0
O71 O 0.78026 0.58789 -0.00404 0.0
H72 H 0.74652 0.50553 -0.00077 0.0
H73 H 0.72246 0.47256 0.98619 0.0
H74 H 0.68262 0.48914 0.91961 0.0
H75 H 0.70685 0.52215 0.93194 0.0
H76 H 0.76597 0.66361 0.01031 0.0
H77 H 0.7748 0.69651 0.03094 0.0
H78 H 0.76854 0.68617 0.2555 0.0
H79 H 0.75977 0.65349 0.23467 0.0
C80 C 0.64287 0.05823 0.97254 0.0
Eu81 Eu 0.61034 0.03149 0.01589 0.0
C82 C 0.663 0.06393 0.97376 0.0
C83 C 0.6758 0.08083 0.00679 0.0
C84 C 0.69507 0.08743 0.00361 0.0
C85 C 0.70204 0.07735 0.96666 0.0
C86 C 0.68915 0.06012 0.93533 0.0
C87 C 0.66984 0.05346 0.93886 0.0
C88 C 0.59795 0.0253 0.1514 0.0
C89 C 0.61295 0.99408 0.05181 0.0
C90 C 0.5419 0.96767 0.08179 0.0
Eu91 Eu 0.5743 0.99475 0.0397 0.0
C92 C 0.52324 0.95206 0.10352 0.0
C93 C 0.5102 0.94048 0.05226 0.0
C94 C 0.49233 0.92611 0.07196 0.0
C95 C 0.48712 0.92278 0.14353 0.0
C96 C 0.50029 0.93419 0.19494 0.0
C97 C 0.51811 0.94877 0.17511 0.0
C98 C 0.58687 1.0009 0.90462 0.0
C99 C 0.57299 0.03347 0.00112 0.0
O100 O 0.63161 0.04371 0.93377 0.0
O101 O 0.6353 0.05885 0.03249 0.0
O102 O 0.60594 0.04165 0.12153 0.0
O103 O 0.59772 1.01324 0.10983 0.0
O104 O 0.6207 1.01065 0.02069 0.0
O105 O 0.5952 0.98562 0.07306 0.0
O106 O 0.55218 0.98249 0.12093 0.0
O107 O 0.54937 0.96752 0.02099 0.0
O108 O 0.57915 0.98457 0.93482 0.0
O109 O 0.58685 1.01288 0.94597 0.0
O110 O 0.56403 1.01621 0.02793 0.0
O111 O 0.59087 0.04161 0.98385 0.0
H112 H 0.6709 0.08917 0.03401 0.0
H113 H 0.70454 0.10057 0.0295 0.0
H114 H 0.694 0.05207 0.90587 0.0
H115 H 0.66033 0.04036 0.9128 0.0
H116 H 0.51372 0.9427 -0.00335 0.0
H117 H 0.4826 0.91749 0.03109 0.0
H118 H 0.49668 0.93209 0.25047 0.0
H119 H 0.52786 0.95747 0.21578 0.0
C120 C 0.79531 0.92792 0.25971 0.0
Eu121 Eu 0.82277 0.92486 0.3156 0.0
C122 C 0.78318 0.93654 0.25481 0.0
C123 C 0.77111 0.93514 0.31009 0.0
C124 C 0.75752 0.94049 0.2998 0.0
C125 C 0.75558 0.94732 0.23392 0.0
C126 C 0.76813 0.94927 0.17955 0.0
C127 C 0.78169 0.94393 0.18988 0.0
C128 C 0.82819 0.92023 0.45394 0.0
C129 C 0.86136 0.96523 0.35348 0.0
C130 C 0.88627 0.92065 0.39645 0.0
Eu131 Eu 0.85958 0.92571 0.34665 0.0
C132 C 0.89176 0.90612 0.39952 0.0
C133 C 0.91026 0.91103 0.38275 0.0
C134 C 0.91617 0.89786 0.38822 0.0
C135 C 0.90373 0.87945 0.41099 0.0
C136 C 0.88505 0.87445 0.42651 0.0
C137 C 0.87912 0.88765 0.42084 0.0
C138 C 0.85382 0.93068 0.20878 0.0
C139 C 0.82289 0.88556 0.31096 0.0
O140 O 0.81256 0.937 0.23574 0.0
O141 O 0.79334 0.91723 0.31392 0.0
O142 O 0.81183 0.91222 0.42373 0.0
O143 O 0.84052 0.93126 0.41141 0.0
O144 O 0.84402 0.95679 0.32659 0.0
O145 O 0.8694 0.95557 0.37333 0.0
O146 O 0.87159 0.91779 0.43326 0.0
O147 O 0.88708 0.92807 0.33458 0.0
O148 O 0.87015 0.93916 0.23915 0.0
O149 O 0.8417 0.9193 0.25107 0.0
O150 O 0.83898 0.89451 0.34527 0.0
O151 O 0.81486 0.89483 0.28512 0.0
H152 H 0.77176 0.92937 0.36071 0.0
H153 H 0.74836 0.93905 0.34334 0.0
H154 H 0.767 0.9542 0.1278 0.0
H155 H 0.79054 0.94487 0.14588 0.0
H156 H 0.92022 0.92517 0.36599 0.0
H157 H 0.93054 0.90212 0.37457 0.0
H158 H 0.87513 0.86047 0.4448 0.0
H159 H 0.86476 0.88348 0.43415 0.0
C160 C 0.25165 0.71762 0.27578 0.0
Eu161 Eu 0.25576 0.74851 0.33217 0.0
C162 C 0.24266 0.69685 0.269 0.0
C163 C 0.2454 0.68603 0.32008 0.0
C164 C 0.23985 0.66716 0.30681 0.0
C165 C 0.23154 0.65863 0.24193 0.0
C166 C 0.22815 0.6693 0.19216 0.0
C167 C 0.23367 0.68813 0.20546 0.0
C168 C 0.26094 0.75898 0.4701 0.0
C169 C 0.21599 0.74789 0.37112 0.0
C170 C 0.26285 0.81773 0.41116 0.0
Eu171 Eu 0.25603 0.78522 0.36241 0.0
C172 C 0.27831 0.83756 0.41513 0.0
C173 C 0.27846 0.85105 0.36926 0.0
C174 C 0.29214 0.87 0.3758 0.0
C175 C 0.30596 0.87603 0.42884 0.0
C176 C 0.30597 0.86246 0.47407 0.0
C177 C 0.29231 0.84349 0.4674 0.0
C178 C 0.25061 0.77412 0.22494 0.0
C179 C 0.2956 0.78708 0.32783 0.0
O180 O 0.24309 0.72631 0.25172 0.0
O181 O 0.26232 0.72596 0.33061 0.0
O182 O 0.26841 0.75007 0.44022 0.0
O183 O 0.25006 0.76056 0.42752 0.0
O184 O 0.22411 0.73855 0.3456 0.0
O185 O 0.22586 0.7658 0.3885 0.0
O186 O 0.26443 0.8053 0.4491 0.0
O187 O 0.25542 0.81124 0.34905 0.0
O188 O 0.24256 0.78245 0.25498 0.0
O189 O 0.26184 0.77311 0.26737 0.0
O190 O 0.28703 0.79476 0.36119 0.0
O191 O 0.28598 0.76978 0.30236 0.0
H192 H 0.25251 0.69231 0.36927 0.0
H193 H 0.24286 0.65951 0.34629 0.0
H194 H 0.2215 0.6632 0.14212 0.0
H195 H 0.23156 0.69611 0.16465 0.0
H196 H 0.2678 0.84699 0.32879 0.0
H197 H 0.29182 0.87995 0.3393 0.0
H198 H 0.3162 0.86656 0.51617 0.0
H199 H 0.29254 0.83354 0.50421 0.0
C200 C 0.46137 0.3866 0.25789 0.0
Eu201 Eu 0.4312 0.35901 0.31451 0.0
C202 C 0.48213 0.39835 0.2529 0.0
C203 C 0.49312 0.40942 0.30973 0.0
C204 C 0.51219 0.42264 0.30006 0.0
C205 C 0.52072 0.42518 0.23331 0.0
C206 C 0.50977 0.41362 0.17724 0.0
C207 C 0.49075 0.40042 0.18696 0.0
C208 C 0.42106 0.35347 0.45269 0.0
C209 C 0.43449 0.32136 0.35298 0.0
C210 C 0.36472 0.2948 0.39818 0.0
Eu211 Eu 0.39588 0.32164 0.34547 0.0
C212 C 0.34469 0.28911 0.405 0.0
C213 C 0.33362 0.2876 0.34606 0.0
C214 C 0.31442 0.28115 0.35404 0.0
C215 C 0.30593 0.27616 0.42109 0.0
C216 C 0.31721 0.27817 0.48005 0.0
C217 C 0.33634 0.2845 0.47198 0.0
C218 C 0.40656 0.32745 0.20763 0.0
C219 C 0.39126 0.3577 0.30915 0.0
O220 O 0.45305 0.36944 0.23291 0.0
O221 O 0.4529 0.38846 0.31327 0.0
O222 O 0.42896 0.3698 0.42243 0.0
O223 O 0.42022 0.34129 0.41022 0.0
O224 O 0.44299 0.33881 0.32762 0.0
O225 O 0.41659 0.31251 0.37051 0.0
O226 O 0.37664 0.30956 0.43437 0.0
O227 O 0.37094 0.29407 0.33529 0.0
O228 O 0.39902 0.31115 0.23802 0.0
O229 O 0.40696 0.33945 0.24989 0.0
O230 O 0.38434 0.34149 0.34235 0.0
O231 O 0.40869 0.36629 0.28452 0.0
H232 H 0.48689 0.40826 0.3612 0.0
H233 H 0.52019 0.43105 0.3448 0.0
H234 H 0.51566 0.41526 0.12485 0.0
H235 H 0.48257 0.39232 0.14192 0.0
H236 H 0.33971 0.29112 0.29371 0.0
H237 H 0.30615 0.27965 0.3074 0.0
H238 H 0.31127 0.27485 0.53265 0.0
H239 H 0.34462 0.28564 0.51822 0.0
C240 C 0.4541 0.12774 0.67367 0.0
Eu241 Eu 0.48427 0.16087 0.67868 0.0
C242 C 0.44482 0.10934 0.63793 0.0
C243 C 0.42518 0.09874 0.63883 0.0
C244 C 0.4158 0.08059 0.61094 0.0
C245 C 0.42585 0.07257 0.58124 0.0
C246 C 0.44561 0.08341 0.57915 0.0
C247 C 0.45502 0.10165 0.60725 0.0
C248 C 0.48612 0.19395 0.64535 0.0
C249 C 0.51159 0.17028 0.54358 0.0
C250 C 0.55387 0.22782 0.6879 0.0
Eu251 Eu 0.52353 0.19482 0.68318 0.0
C252 C 0.5635 0.24609 0.72433 0.0
C253 C 0.58282 0.25765 0.71375 0.0
C254 C 0.59236 0.27564 0.74298 0.0
C255 C 0.5828 0.28251 0.78384 0.0
C256 C 0.56339 0.27071 0.79534 0.0
C257 C 0.55381 0.25263 0.76582 0.0
C258 C 0.52155 0.16162 0.71563 0.0
C259 C 0.49609 0.18552 0.81808 0.0
O260 O 0.4687 0.13178 0.7131 0.0
O261 O 0.45589 0.14222 0.63856 0.0
O262 O 0.4726 0.18068 0.68148 0.0
O263 O 0.49761 0.18889 0.62629 0.0
O264 O 0.49751 0.15702 0.57996 0.0
O265 O 0.52262 0.18711 0.56994 0.0
O266 O 0.53905 0.22405 0.65031 0.0
O267 O 0.55211 0.21318 0.72169 0.0
O268 O 0.53501 0.17484 0.67912 0.0
O269 O 0.51021 0.16682 0.73539 0.0
O270 O 0.51037 0.19867 0.78212 0.0
O271 O 0.48494 0.16874 0.79157 0.0
H272 H 0.41706 0.10436 0.66279 0.0
H273 H 0.40064 0.07264 0.61475 0.0
H274 H 0.45381 0.07779 0.55602 0.0
H275 H 0.47022 0.10961 0.60601 0.0
H276 H 0.59051 0.2529 0.6814 0.0
H277 H 0.60718 0.28435 0.7317 0.0
H278 H 0.5556 0.27545 0.82704 0.0
H279 H 0.53886 0.24389 0.77457 0.0
C280 C 0.05927 0.19312 0.68082 0.0
Eu281 Eu 1.02311 0.17962 0.67458 0.0
C282 C 0.07614 0.19707 0.63939 0.0
C283 C 0.0821 0.1838 0.63484 0.0
C284 C 0.09936 0.18854 0.6039 0.0
C285 C 0.11112 0.2067 0.57724 0.0
C286 C 0.10488 0.21977 0.57997 0.0
C287 C 0.08764 0.21504 0.61086 0.0
C288 C 0.99492 0.14648 0.61939 0.0
C289 C 1.00513 0.1895 0.54376 0.0
C290 C 0.94786 0.16869 0.68741 0.0
Eu291 Eu 0.98238 0.17578 0.69502 0.0
C292 C 0.93163 0.16545 0.73064 0.0
C293 C 0.91942 0.17128 0.70465 0.0
C294 C 0.90246 0.16602 0.73886 0.0
C295 C 0.89732 0.15472 0.7997 0.0
C296 C 0.90998 0.14957 0.8274 0.0
C297 C 0.92701 0.15493 0.79326 0.0
C298 C 1.01191 0.20513 0.76135 0.0
C299 C 0.99784 0.16069 0.8149 0.0
O300 O 0.05147 0.20331 0.66735 0.0
O301 O 0.04697 0.17562 0.69572 0.0
O302 O 1.01262 0.15143 0.61618 0.0
O303 O 0.99392 0.1593 0.65148 0.0
O304 O 1.02057 0.19072 0.57036 0.0
O305 O 0.98937 0.18353 0.58005 0.0
O306 O 0.95264 0.15572 0.69014 0.0
O307 O 0.9623 0.18577 0.68459 0.0
O308 O 0.99493 0.19647 0.78653 0.0
O309 O 1.01207 0.19863 0.70113 0.0
O310 O 0.98244 0.15729 0.78091 0.0
O311 O 1.01486 0.17124 0.78813 0.0
H312 H 0.07368 0.1699 0.65696 0.0
H313 H 0.10365 0.17807 0.60194 0.0
H314 H 0.11367 0.23396 0.56101 0.0
H315 H 0.08365 0.22571 0.61459 0.0
H316 H 0.92267 0.17929 0.65616 0.0
H317 H 0.89297 0.17006 0.71565 0.0
H318 H 0.90654 0.14108 0.87466 0.0
H319 H 0.93626 0.15031 0.81446 0.0
C320 C 0.99258 0.72284 0.6882 0.0
Eu321 Eu 1.00258 0.69738 0.68755 0.0
C322 C 0.98838 0.73524 0.64551 0.0
C323 C 0.993 0.75282 0.67317 0.0
C324 C 0.98725 0.76412 0.63901 0.0
C325 C 0.97672 0.75807 0.5762 0.0
C326 C 0.97261 0.74064 0.54726 0.0
C327 C 0.97839 0.72931 0.58163 0.0
C328 C 0.03506 0.69924 0.64454 0.0
C329 C 0.98672 0.66895 0.55263 0.0
C330 C 1.0163 0.63565 0.67647 0.0
Eu331 Eu 1.0037 0.65882 0.68991 0.0
C332 C 1.01984 0.62212 0.7146 0.0
C333 C 1.01603 0.60548 0.68031 0.0
C334 C 1.02102 0.59322 0.71143 0.0
C335 C 0.02998 0.59734 0.77766 0.0
C336 C 0.03333 0.6138 0.81294 0.0
C337 C 1.02827 0.62608 0.78175 0.0
C338 C 0.9726 0.65508 0.75891 0.0
C339 C 1.01618 0.68559 0.82676 0.0
O340 O 0.98069 0.70479 0.68496 0.0
O341 O 1.01009 0.72689 0.69308 0.0
O342 O 0.03436 0.71294 0.67587 0.0
O343 O 1.01864 0.68596 0.63293 0.0
O344 O 0.98906 0.68447 0.58327 0.0
O345 O 0.99198 0.6577 0.58184 0.0
O346 O 1.02697 0.65347 0.69232 0.0
O347 O 0.99876 0.63084 0.66392 0.0
O348 O 0.97612 0.6414 0.75177 0.0
O349 O 0.98572 0.66921 0.72951 0.0
O350 O 1.01919 0.67382 0.7889 0.0
O351 O 1.00743 0.69412 0.80147 0.0
H352 H 1.00054 0.75756 0.72274 0.0
H353 H 0.99044 0.77728 0.66353 0.0
H354 H 0.96472 0.73566 0.49854 0.0
H355 H 0.97466 0.71576 0.55928 0.0
H356 H 1.00968 0.60224 0.62827 0.0
H357 H 1.01846 0.58083 0.68228 0.0
H358 H 0.04001 0.61728 0.86434 0.0
H359 H 0.03132 0.63883 0.8094 0.0
H360 H 0.1458 0.41493 0.83396 0.0
H361 H 0.14162 0.41296 0.70553 0.0
H362 H 0.2005 0.45281 0.67864 0.0
H363 H 0.2048 0.45466 0.80718 0.0
H364 H 0.14836 0.44053 0.60627 0.0
H365 H 0.19316 0.40907 0.55399 0.0
H366 H 0.1851 0.41029 0.64145 0.0
H367 H 0.2046 0.43066 0.60286 0.0
C368 C 0.15785 0.42331 0.80068 0.0
C369 C 0.17567 0.43486 0.83061 0.0
C370 C 0.15544 0.42216 0.72728 0.0
C371 C 0.17081 0.43246 0.68228 0.0
C372 C 0.18852 0.4444 0.71217 0.0
H373 H 0.1846 0.44399 0.2262 0.0
H374 H 0.18889 0.44579 0.3546 0.0
C375 C 0.19094 0.44556 0.78563 0.0
C376 C 0.16822 0.43075 0.60422 0.0
H377 H 0.18223 0.41812 0.45396 0.0
C378 C 0.1557 0.43555 0.57299 0.0
C379 C 0.17781 0.42426 0.56075 0.0
C380 C 0.1908 0.4181 0.59135 0.0
C381 C 0.15278 0.43438 0.49951 0.0
C382 C 0.16236 0.42788 0.45604 0.0
C383 C 0.17488 0.42308 0.48725 0.0
C384 C 0.15975 0.42617 0.37801 0.0
C385 C 0.1398 0.44055 0.4689 0.0
C386 C 0.14203 0.4142 0.34823 0.0
C387 C 0.13954 0.41314 0.2748 0.0
C388 C 0.15475 0.42398 0.22977 0.0
C389 C 0.17259 0.43553 0.25956 0.0
C390 C 0.17506 0.43657 0.33293 0.0
H391 H 0.13741 0.44955 0.5063 0.0
H392 H 0.14552 0.44839 0.41888 0.0
H393 H 0.12601 0.42799 0.45722 0.0
H394 H 0.13009 0.40572 0.38182 0.0
H395 H 0.12567 0.40403 0.25336 0.0
H396 H 0.76548 0.58208 0.84149 0.0
H397 H 0.76729 0.57971 0.71294 0.0
H398 H 0.7279 0.59932 0.68603 0.0
H399 H 0.72619 0.60191 0.81446 0.0
H400 H 0.73928 0.55899 0.61372 0.0
H401 H 0.7719 0.63531 0.56152 0.0
H402 H 0.77068 0.62601 0.64889 0.0
H403 H 0.75041 0.62554 0.61086 0.0
C404 C 0.75717 0.58584 0.80814 0.0
C405 C 0.74579 0.59231 0.83797 0.0
C406 C 0.75823 0.58449 0.73472 0.0
C407 C 0.74801 0.58968 0.68974 0.0
C408 C 0.73624 0.59565 0.71957 0.0
H409 H 0.73565 0.59183 0.2339 0.0
H410 H 0.73411 0.59447 0.36242 0.0
C411 C 0.73518 0.597 0.79298 0.0
C412 C 0.74958 0.58871 0.61172 0.0
H413 H 0.7622 0.61525 0.46145 0.0
C414 C 0.74437 0.5713 0.58044 0.0
C415 C 0.75622 0.60478 0.56829 0.0
C416 C 0.76279 0.62401 0.59898 0.0
C417 C 0.74527 0.56946 0.5069 0.0
C418 C 0.75191 0.58553 0.46347 0.0
C419 C 0.75712 0.60294 0.49474 0.0
C420 C 0.75342 0.58453 0.38543 0.0
C421 C 0.73868 0.55023 0.47622 0.0
C422 C 0.76514 0.57851 0.35549 0.0
C423 C 0.76604 0.57699 0.28209 0.0
C424 C 0.7553 0.58155 0.23724 0.0
C425 C 0.74402 0.58812 0.26716 0.0
C426 C 0.74313 0.58964 0.34056 0.0
H427 H 0.72959 0.53893 0.51373 0.0
H428 H 0.73076 0.54821 0.42639 0.0
H429 H 0.75105 0.5487 0.46419 0.0
H430 H 0.77354 0.5749 0.38894 0.0
H431 H 0.77496 0.57201 0.26053 0.0
H432 H 0.59805 0.03319 0.83073 0.0
H433 H 0.59975 0.03707 0.70215 0.0
H434 H 0.58357 0.97885 0.67613 0.0
H435 H 0.58167 0.97483 0.80466 0.0
H436 H 0.62111 0.03064 0.60054 0.0
H437 H 0.54453 0.98422 0.55768 0.0
H438 H 0.55448 0.99318 0.64371 0.0
H439 H 0.55568 0.97373 0.60631 0.0
C440 C 0.59496 0.02125 0.79756 0.0
C441 C 0.58957 1.00366 0.82756 0.0
C442 C 0.59592 0.02348 0.7242 0.0
C443 C 0.59142 1.00816 0.67965 0.0
C444 C 0.5867 0.99075 0.70957 0.0
H445 H 0.58638 0.99286 0.22481 0.0
H446 H 0.58461 0.98885 0.35334 0.0
C447 C 0.58575 0.98851 0.78294 0.0
C448 C 0.59158 1.01039 0.60189 0.0
H449 H 0.56357 0.99526 0.45537 0.0
C450 C 0.60853 0.02297 0.56876 0.0
C451 C 0.57513 1.00035 0.56066 0.0
C452 C 0.55637 0.98722 0.59377 0.0
C453 C 0.60956 0.02554 0.49524 0.0
C454 C 0.5931 1.01552 0.454 0.0
C455 C 0.57615 1.00293 0.48714 0.0
C456 C 0.59325 1.01781 0.37627 0.0
C457 C 0.62833 0.03863 0.46216 0.0
C458 C 0.59816 0.0353 0.34659 0.0
C459 C 0.59917 0.03762 0.27326 0.0
C460 C 0.59521 0.02247 0.22842 0.0
C461 C 0.5896 1.0048 0.25815 0.0
C462 C 0.58859 1.00249 0.33149 0.0
H463 H 0.64015 0.04149 0.4981 0.0
H464 H 0.63016 0.03274 0.41196 0.0
H465 H 0.62913 0.0522 0.45017 0.0
H466 H 0.6014 0.0472 0.38019 0.0
H467 H 0.6034 0.05135 0.25175 0.0
H468 H 0.80194 0.90078 0.55515 0.0
H469 H 0.80635 0.90294 0.68361 0.0
H470 H 0.86527 0.94246 0.65555 0.0
H471 H 0.8609 0.94054 0.52718 0.0
H472 H 0.82959 0.89549 0.76887 0.0
H473 H 0.84859 0.9702 0.79057 0.0
H474 H 0.83813 0.95642 0.71201 0.0
H475 H 0.86273 0.96595 0.72941 0.0
C476 C 0.81583 0.90989 0.57642 0.0
C477 C 0.83105 0.92059 0.53122 0.0
C478 C 0.81833 0.91112 0.64977 0.0
C479 C 0.83606 0.92313 0.67927 0.0
C480 C 0.85138 0.93343 0.63407 0.0
H481 H 0.87989 0.95044 0.10736 0.0
H482 H 0.87527 0.94852 0.97902 0.0
C483 C 0.84889 0.93221 0.56073 0.0
C484 C 0.83852 0.92478 0.75725 0.0
H485 H 0.85192 0.95597 0.89425 0.0
C486 C 0.83439 0.90869 0.79635 0.0
C487 C 0.84479 0.94202 0.79304 0.0
C488 C 0.84866 0.95961 0.75432 0.0
C489 C 0.83671 0.90944 0.87007 0.0
C490 C 0.843 0.92669 0.90587 0.0
C491 C 0.84711 0.94277 0.86677 0.0
C492 C 0.84555 0.92833 0.98381 0.0
C493 C 0.83285 0.89185 0.90877 0.0
C494 C 0.8303 0.91799 0.02923 0.0
C495 C 0.83292 0.91906 0.1025 0.0
C496 C 0.85082 0.93058 0.13169 0.0
C497 C 0.86595 0.94139 0.08632 0.0
C498 C 0.86333 0.9403 0.01303 0.0
H499 H 0.83288 0.88125 0.87248 0.0
H500 H 0.84341 0.89504 0.95094 0.0
H501 H 0.8188 0.88553 0.93385 0.0
H502 H 0.81637 0.90901 0.00799 0.0
H503 H 0.82096 0.91069 0.13622 0.0
H504 H 0.27988 0.75155 0.57156 0.0
H505 H 0.27774 0.75384 0.69997 0.0
H506 H 0.23948 0.77479 0.67136 0.0
H507 H 0.24137 0.77228 0.54301 0.0
H508 H 0.28594 0.78465 0.78579 0.0
H509 H 0.21059 0.73043 0.80514 0.0
H510 H 0.22435 0.73347 0.72688 0.0
H511 H 0.21546 0.74907 0.74446 0.0
C512 C 0.27105 0.75668 0.59269 0.0
C513 C 0.26069 0.7616 0.54733 0.0
C514 C 0.26984 0.75799 0.66602 0.0
C515 C 0.25817 0.76414 0.69534 0.0
C516 C 0.24824 0.7696 0.65001 0.0
H517 H 0.23133 0.78108 0.1234 0.0
H518 H 0.23323 0.77841 0.99506 0.0
C519 C 0.24944 0.76829 0.57668 0.0
C520 C 0.25648 0.76492 0.7733 0.0
H521 H 0.22506 0.7476 0.90948 0.0
C522 C 0.27265 0.77649 0.81291 0.0
C523 C 0.23912 0.75427 0.8086 0.0
C524 C 0.2214 0.74097 0.7693 0.0
C525 C 0.27189 0.77798 0.88666 0.0
C526 C 0.25453 0.76733 0.92198 0.0
C527 C 0.23835 0.75575 0.88237 0.0
C528 C 0.25285 0.76817 -7e-05 0.0
C529 C 0.2896 0.79131 0.9259 0.0
C530 C 0.26286 0.76285 0.0454 0.0
C531 C 0.26181 0.76439 0.11869 0.0
C532 C 0.25063 0.77117 0.14785 0.0
C533 C 0.24012 0.77589 0.1024 0.0
C534 C 0.24119 0.77437 0.0291 0.0
H535 H 0.3004 0.80185 0.89001 0.0
H536 H 0.28664 0.79882 0.96826 0.0
H537 H 0.29556 0.78324 0.95079 0.0
H538 H 0.2716 0.75762 0.02418 0.0
H539 H 0.26995 0.76051 0.15246 0.0
H540 H 0.40997 0.32107 0.52619 0.0
H541 H 0.40729 0.31672 0.65456 0.0
H542 H 0.42424 0.37509 0.68219 0.0
H543 H 0.42668 0.37945 0.55386 0.0
H544 H 0.4354 0.33463 0.75534 0.0
H545 H 0.37721 0.34891 0.8043 0.0
H546 H 0.38282 0.34423 0.71716 0.0
H547 H 0.39656 0.36708 0.75623 0.0
C548 C 0.41292 0.33293 0.55962 0.0
C549 C 0.41847 0.35059 0.52999 0.0
C550 C 0.41144 0.33044 0.63297 0.0
C551 C 0.41535 0.34552 0.6781 0.0
C552 C 0.4208 0.36316 0.64849 0.0
H553 H 0.41812 0.35998 0.13454 0.0
H554 H 0.42114 0.36446 0.00624 0.0
C555 C 0.42227 0.36565 0.57514 0.0
C556 C 0.41442 0.34296 0.75611 0.0
H557 H 0.39305 0.34661 0.90528 0.0
C558 C 0.42607 0.33715 0.7881 0.0
C559 C 0.40229 0.34632 0.79891 0.0
C560 C 0.38887 0.35182 0.76749 0.0
C561 C 0.42616 0.33492 0.86172 0.0
C562 C 0.41404 0.33827 0.90451 0.0
C563 C 0.40239 0.34409 0.87252 0.0
C564 C 0.41304 0.33567 0.9825 0.0
C565 C 0.43956 0.3294 0.89316 0.0
C566 C 0.4075 0.31799 0.01197 0.0
C567 C 0.40581 0.31541 0.08527 0.0
C568 C 0.40949 0.33042 0.13049 0.0
C569 C 0.41521 0.34815 0.10102 0.0
C570 C 0.4169 0.35072 0.02773 0.0
H571 H 0.45123 0.33231 0.85639 0.0
H572 H 0.4456 0.33696 0.94353 0.0
H573 H 0.43186 0.31412 0.90435 0.0
H574 H 0.4041 0.30608 0.97818 0.0
H575 H 0.40129 0.30158 0.10643 0.0
H576 H 0.48519 0.14286 0.4592 0.0
H577 H 0.48314 0.14485 0.33133 0.0
H578 H 0.53841 0.19384 0.32783 0.0
H579 H 0.54057 0.19211 0.45577 0.0
H580 H 0.50897 0.19959 0.28086 0.0
H581 H 0.507 0.13813 0.15014 0.0
H582 H 0.49191 0.13264 0.22564 0.0
H583 H 0.51691 0.14615 0.23703 0.0
C584 C 0.49723 0.15361 0.43101 0.0
C585 C 0.51288 0.16759 0.46749 0.0
C586 C 0.49603 0.15471 0.3579 0.0
C587 C 0.51057 0.16959 0.32072 0.0
C588 C 0.52703 0.18233 0.35608 0.0
H589 H 0.52232 0.21291 0.90307 0.0
H590 H 0.52396 0.21098 0.03115 0.0
C591 C 0.52823 0.18129 0.42907 0.0
C592 C 0.50733 0.17369 0.24825 0.0
H593 H 0.49782 0.15625 0.08101 0.0
C594 C 0.50666 0.19021 0.23688 0.0
C595 C 0.50411 0.16126 0.19182 0.0
C596 C 0.50515 0.14361 0.20135 0.0
C597 C 0.50268 0.19458 0.17005 0.0
C598 C 0.49948 0.18216 0.11359 0.0
C599 C 0.50012 0.16563 0.125 0.0
C600 C 0.49643 0.18634 0.04099 0.0
C601 C 0.50165 0.21223 0.16048 0.0
C602 C 0.48005 0.17365 0.0051 0.0
C603 C 0.47909 0.17465 0.932 0.0
C604 C 0.4946 0.18827 0.894 0.0
C605 C 0.51017 0.20222 0.93092 0.0
C606 C 0.51113 0.20117 0.00415 0.0
H607 H 0.49973 0.21768 0.21166 0.0
H608 H 0.51492 0.22321 0.13643 0.0
H609 H 0.48993 0.20972 0.12459 0.0
H610 H 0.46855 0.16218 0.03307 0.0
H611 H 0.4668 0.16387 0.90496 0.0
H612 H 0.97459 0.18235 0.4638 0.0
H613 H 0.97174 0.17749 0.33627 0.0
H614 H 0.03088 0.19641 0.32231 0.0
H615 H 0.03403 0.20148 0.44963 0.0
H616 H 1.01429 0.20711 0.20582 0.0
H617 H 0.97654 0.13096 0.27239 0.0
H618 H 0.96753 0.1449 0.3106 0.0
H619 H 0.99023 0.14892 0.33656 0.0
C620 C 0.98713 0.18602 0.43353 0.0
C621 C 1.00446 0.19183 0.467 0.0
C622 C 0.98542 0.18315 0.36079 0.0
C623 C 1.00101 0.18613 0.32099 0.0
C624 C 1.01869 0.19385 0.35287 0.0
H625 H 1.02592 0.16553 0.90437 0.0
H626 H 1.02555 0.16866 0.03238 0.0
C627 C 1.02043 0.19672 0.42558 0.0
C628 C 0.9986 0.17921 0.24822 0.0
H629 H 0.98118 0.1389 0.15155 0.0
C630 C 1.007 0.19223 0.19369 0.0
C631 C 0.98915 0.15975 0.23349 0.0
C632 C 0.98043 0.14525 0.29122 0.0
C633 C 1.00614 0.18626 0.12396 0.0
C634 C 0.99697 0.1668 0.10941 0.0
C635 C 0.98831 0.15377 0.1637 0.0
C636 C 0.99605 0.15998 0.0372 0.0
C637 C 1.01493 0.20076 0.06626 0.0
C638 C 0.97922 0.15265 -0.00064 0.0
C639 C 0.97932 0.15077 0.92629 0.0
C640 C 0.99633 0.15637 0.89073 0.0
C641 C 1.01267 0.16145 0.93016 0.0
C642 C 1.01252 0.16328 0.00318 0.0
H643 H 1.01811 0.2149 0.08431 0.0
H644 H 1.02827 0.20168 0.04922 0.0
H645 H 1.00552 0.19673 0.01956 0.0
H646 H 0.96636 0.14988 0.02545 0.0
H647 H 0.96644 0.14656 0.8975 0.0
H648 H 0.98241 0.64016 0.46805 0.0
H649 H 0.98542 0.64158 0.33996 0.0
H650 H 0.98277 0.69257 0.33776 0.0
H651 H 0.97994 0.6915 0.4661 0.0
H652 H 0.96722 0.64825 0.21491 0.0
H653 H 0.03853 0.70627 0.2865 0.0
H654 H 1.02276 0.68958 0.35039 0.0
H655 H 1.01914 0.70821 0.32028 0.0
C656 C 0.98183 0.65137 0.44036 0.0
C657 C 0.98168 0.66613 0.4773 0.0
C658 C 0.9835 0.65209 0.36715 0.0
C659 C 0.98485 0.66746 0.33052 0.0
C660 C 0.98206 0.6808 0.36602 0.0
H661 H 1.01723 0.71151 0.91845 0.0
H662 H 1.01247 0.70744 0.04576 0.0
C663 C 0.98043 0.68013 0.43928 0.0
C664 C 0.99239 0.67121 0.2586 0.0
H665 H 0.03179 0.7002 0.16488 0.0
C666 C 0.98131 0.65955 0.20367 0.0
C667 C 1.01092 0.68581 0.24526 0.0
C668 C 1.02365 0.69813 0.30367 0.0
C669 C 0.98816 0.66254 0.13448 0.0
C670 C 1.00659 0.67733 0.12105 0.0
C671 C 1.01773 0.68883 0.17613 0.0
C672 C 1.01385 0.6819 0.04888 0.0
C673 C 0.97552 0.65023 0.07592 0.0
C674 C 1.01742 0.6695 0.01028 0.0
C675 C 1.02021 0.6718 0.93759 0.0
C676 C 1.01928 0.68644 0.90326 0.0
C677 C 1.01773 0.69995 0.94353 0.0
C678 C 1.01502 0.69767 0.01611 0.0
H679 H 0.96078 0.64133 0.09376 0.0
H680 H 0.97574 0.65891 0.03067 0.0
H681 H 0.9807 0.64088 0.05674 0.0
H682 H 1.01679 0.6574 0.03557 0.0
H683 H 1.02149 0.66124 0.90791 0.0
H684 H 0.39889 0.39042 0.24072 0.0
H685 H 0.37668 0.40118 0.21162 0.0
H686 H 0.33196 0.35172 0.3094 0.0
H687 H 0.35389 0.3412 0.34008 0.0
H688 H 0.34541 0.38568 0.12991 0.0
H689 H 0.32512 0.39165 0.40275 0.0
H690 H 0.34499 0.38873 0.38362 0.0
H691 H 0.32162 0.36871 0.38534 0.0
C692 C 0.38437 0.38197 0.2568 0.0
C693 C 0.37831 0.36503 0.29349 0.0
C694 C 0.37165 0.3881 0.23986 0.0
C695 C 0.35263 0.37747 0.25941 0.0
C696 C 0.34659 0.3605 0.29538 0.0
H697 H 0.25662 0.38119 0.07897 0.0
H698 H 0.2819 0.37454 0.10543 0.0
C699 C 0.35924 0.35444 0.31262 0.0
C700 C 0.33889 0.38366 0.24079 0.0
H701 H 0.30476 0.39096 0.31107 0.0
C702 C 0.33664 0.387 0.16963 0.0
C703 C 0.32757 0.3857 0.29246 0.0
C704 C 0.33007 0.38371 0.37035 0.0
C705 C 0.32309 0.39176 0.14864 0.0
C706 C 0.31107 0.39278 0.19997 0.0
C707 C 0.31371 0.38995 0.27131 0.0
C708 C 0.29588 0.39704 0.18154 0.0
C709 C 0.32206 0.39595 0.07177 0.0
C710 C 0.29487 0.41159 0.21651 0.0
C711 C 0.28025 0.41519 0.20229 0.0
C712 C 0.26622 0.40438 0.15251 0.0
C713 C 0.2673 0.38992 0.11697 0.0
C714 C 0.28184 0.38618 0.13183 0.0
H715 H 0.33556 0.40034 0.04427 0.0
H716 H 0.31107 0.38308 0.04529 0.0
H717 H 0.31844 0.40718 0.06549 0.0
H718 H 0.30544 0.42021 0.25506 0.0
H719 H 0.28003 0.42659 0.23003 0.0
H720 H 0.75321 0.70506 0.23347 0.0
H721 H 0.75935 0.7368 0.25743 0.0
H722 H 0.80585 0.75901 0.11183 0.0
H723 H 0.79943 0.72713 0.08635 0.0
H724 H 0.78795 0.76542 0.31526 0.0
H725 H 0.78059 0.78689 0.04602 0.0
H726 H 0.77369 0.76295 0.06752 0.0
H727 H 0.79792 0.77978 0.04975 0.0
C728 C 0.76474 0.71669 0.20637 0.0
C729 C 0.77584 0.71348 0.15798 0.0
C730 C 0.76821 0.73489 0.21997 0.0
C731 C 0.78291 0.75046 0.18579 0.0
C732 C 0.79408 0.74731 0.13754 0.0
H733 H 0.83833 0.86401 0.34588 0.0
H734 H 0.8275 0.83152 0.31562 0.0
C735 C 0.79047 0.72904 0.12325 0.0
C736 C 0.78702 0.76993 0.20363 0.0
H737 H 0.79486 0.81144 0.13206 0.0
C738 C 0.7893 0.77539 0.27501 0.0
C739 C 0.78847 0.783 0.15169 0.0
C740 C 0.78484 0.77781 0.07456 0.0
C741 C 0.79346 0.79351 0.29564 0.0
C742 C 0.79599 0.80692 0.24347 0.0
C743 C 0.79316 0.80133 0.17221 0.0
C744 C 0.80235 0.82694 0.26176 0.0
C745 C 0.79485 0.79797 0.37351 0.0
C746 C 0.7922 0.83566 0.2399 0.0
C747 C 0.79854 0.85458 0.25663 0.0
C748 C 0.81521 0.86519 0.29541 0.0
C749 C 0.82531 0.85636 0.31681 0.0
C750 C 0.81906 0.83761 0.29979 0.0
H751 H 0.78645 0.78509 0.40537 0.0
H752 H 0.80969 0.80428 0.39058 0.0
H753 H 0.78994 0.80803 0.38534 0.0
H754 H 0.77933 0.82782 0.21 0.0
H755 H 0.79047 0.86091 0.23872 0.0
H756 H 0.45345 0.91483 0.08542 0.0
H757 H 0.42195 0.89029 0.11964 0.0
H758 H 0.44583 0.87138 0.28036 0.0
H759 H 0.47735 0.89633 0.24768 0.0
H760 H 0.40485 0.85344 0.11847 0.0
H761 H 0.40807 0.8763 0.39595 0.0
H762 H 0.42578 0.89037 0.33201 0.0
H763 H 0.42623 0.87109 0.375 0.0
C764 C 0.45199 0.90545 0.1281 0.0
C765 C 0.46793 0.90764 0.16414 0.0
C766 C 0.43394 0.89139 0.14769 0.0
C767 C 0.43135 0.87908 0.20355 0.0
C768 C 0.4473 0.88098 0.23856 0.0
H769 H 0.3201 0.77731 0.2671 0.0
H770 H 0.35337 0.79817 0.23862 0.0
C771 C 0.46536 0.89522 0.21963 0.0
C772 C 0.41196 0.86429 0.22441 0.0
H773 H 0.38154 0.84739 0.36385 0.0
C774 C 0.39976 0.85213 0.17218 0.0
C775 C 0.40515 0.86261 0.29435 0.0
C776 C 0.41691 0.8759 0.35239 0.0
C777 C 0.38103 0.83858 0.18755 0.0
C778 C 0.37435 0.83665 0.25779 0.0
C779 C 0.38662 0.84866 0.31015 0.0
C780 C 0.35434 0.82342 0.27734 0.0
C781 C 0.36841 0.82703 0.12766 0.0
C782 C 0.34389 0.83038 0.31123 0.0
C783 C 0.32507 0.81846 0.32882 0.0
C784 C 0.31603 0.79917 0.3127 0.0
C785 C 0.32654 0.79207 0.2799 0.0
C786 C 0.34555 0.80405 0.26297 0.0
H787 H 0.37413 0.83356 0.0755 0.0
H788 H 0.36717 0.81297 0.12787 0.0
H789 H 0.35414 0.82515 0.13338 0.0
H790 H 0.35022 0.8452 0.32315 0.0
H791 H 0.31752 0.82455 0.35394 0.0
H792 H 0.58833 0.0712 0.99381 0.0
H793 H 0.57385 0.0891 0.95362 0.0
H794 H 0.52088 0.03795 0.92908 0.0
H795 H 0.53545 0.01972 0.96997 0.0
H796 H 0.53296 0.06255 0.80758 0.0
H797 H 0.5363 0.10109 0.05195 0.0
H798 H 0.55811 0.10215 0.03126 0.0
H799 H 0.53785 0.07995 0.05252 0.0
C800 C 0.57352 0.06369 0.98091 0.0
C801 C 0.56305 0.04399 0.98522 0.0
C802 C 0.56522 0.074 0.95822 0.0
C803 C 0.54623 0.06495 0.93889 0.0
C804 C 0.53555 0.04527 0.9442 0.0
H805 H 0.49916 0.13682 0.81767 0.0
H806 H 0.50223 0.11127 0.87107 0.0
C807 C 0.54384 0.03487 0.96793 0.0
C808 C 0.53822 0.07621 0.90882 0.0
H809 H 0.53334 0.11436 0.94309 0.0
C810 C 0.53272 0.07367 0.83755 0.0
C811 C 0.53775 0.09066 0.94785 0.0
C812 C 0.54264 0.09355 0.02534 0.0
C813 C 0.52776 0.08578 0.80347 0.0
C814 C 0.52848 0.10098 0.84136 0.0
C815 C 0.53296 0.10287 0.91364 0.0
C816 C 0.52575 0.11569 0.80621 0.0
C817 C 0.52202 0.08233 0.72681 0.0
C818 C 0.53794 0.12675 0.75209 0.0
C819 C 0.53625 0.14135 0.72177 0.0
C820 C 0.52235 0.14529 0.74494 0.0
C821 C 0.50996 0.13408 0.79844 0.0
C822 C 0.51173 0.1195 0.8291 0.0
H823 H 0.51672 0.06747 0.71178 0.0
H824 H 0.51099 0.08596 0.71516 0.0
H825 H 0.53441 0.09123 0.69337 0.0
H826 H 0.54912 0.12439 0.7344 0.0
H827 H 0.54607 0.14977 0.68089 0.0
H828 H 0.0445 0.23164 0.6987 0.0
H829 H 0.06952 0.26063 0.75096 0.0
H830 H 0.04054 0.2457 0.95091 0.0
H831 H 1.01526 0.21692 0.89805 0.0
H832 H 0.05048 0.28023 0.92089 0.0
H833 H 0.11296 0.27302 0.8779 0.0
H834 H 0.10071 0.27054 0.79673 0.0
H835 H 0.0894 0.25364 0.86629 0.0
C836 C 0.04366 0.23436 0.75414 0.0
C837 C 1.02793 0.22193 0.79429 0.0
C838 C 0.05806 0.25095 0.78424 0.0
C839 C 0.05724 0.25537 0.85554 0.0
C840 C 0.04166 0.2427 0.89597 0.0
H841 H 0.14686 0.35972 0.06193 0.0
H842 H 0.12642 0.3261 0.03334 0.0
C843 C 1.02718 0.22622 0.8657 0.0
C844 C 0.07163 0.2739 0.88604 0.0
H845 H 0.11895 0.30444 0.90115 0.0
C846 C 0.06543 0.28532 0.91738 0.0
C847 C 0.09124 0.28066 0.88283 0.0
C848 C 0.09896 0.26873 0.85481 0.0
C849 C 0.07811 0.30345 0.94225 0.0
C850 C 0.09768 0.3107 0.93456 0.0
C851 C 0.10398 0.29902 0.90646 0.0
C852 C 0.11142 0.33088 0.94941 0.0
C853 C 0.07039 0.31484 0.97573 0.0
C854 C 0.11029 0.34472 0.91037 0.0
C855 C 0.12176 0.36368 0.92657 0.0
C856 C 0.13493 0.36951 0.98211 0.0
C857 C 0.13685 0.35573 0.01909 0.0
C858 C 0.12515 0.33653 0.00284 0.0
H859 H 0.05606 0.3057 -0.00284 0.0
H860 H 0.07963 0.3238 0.0191 0.0
H861 H 0.06949 0.32408 0.93519 0.0
H862 H 0.10018 0.34082 0.86787 0.0
H863 H 0.12007 0.37381 0.89573 0.0
H864 H 0.94198 0.62345 0.80651 0.0
H865 H 0.91343 0.62028 0.85972 0.0
H866 H 0.93611 0.68 0.84275 0.0
H867 H 0.96489 0.68322 0.79012 0.0
H868 H 0.90934 0.63733 0.98413 0.0
H869 H 0.88408 0.6578 0.7461 0.0
H870 H 0.9019 0.65115 0.74121 0.0
H871 H 0.90765 0.67379 0.77491 0.0
C872 C 0.94091 0.63593 0.814 0.0
C873 C 0.95557 0.65357 0.79273 0.0
C874 C 0.92456 0.63409 0.8445 0.0
C875 C 0.9224 0.64984 0.85425 0.0
C876 C 0.93721 0.66757 0.83437 0.0
H877 H 0.81635 0.64342 0.00085 0.0
H878 H 0.84979 0.65725 0.96876 0.0
C879 C 0.95365 0.66941 0.80406 0.0
C880 C 0.90468 0.64745 0.88579 0.0
H881 H 0.86474 0.64884 0.84665 0.0
C882 C 0.89969 0.64004 0.95426 0.0
C883 C 0.89211 0.65115 0.84729 0.0
C884 C 0.89654 0.6588 0.77311 0.0
C885 C 0.88234 0.63573 0.98434 0.0
C886 C 0.86934 0.6385 0.94452 0.0
C887 C 0.87466 0.64672 0.87731 0.0
C888 C 0.84948 0.6308 0.96811 0.0
C889 C 0.87798 0.62796 0.05837 0.0
C890 C 0.83818 0.61142 0.97833 0.0
C891 C 0.81927 0.60358 -0.00375 0.0
C892 C 0.81096 0.61485 0.00441 0.0
C893 C 0.82232 0.63437 -0.0044 0.0
C894 C 0.84139 0.64225 0.9769 0.0
H895 H 0.89103 0.63256 0.08948 0.0
H896 H 0.86898 0.63237 0.08656 0.0
H897 H 0.87041 0.6124 0.05586 0.0
H898 H 0.84388 0.60219 0.97066 0.0
H899 H 0.81105 0.5885 0.00267 0.0
H900 H 0.0634 0.60765 0.8442 0.0
H901 H 0.07546 0.58725 0.88249 0.0
H902 H 1.02393 0.53869 0.81588 0.0
H903 H 1.01166 0.55891 0.77822 0.0
H904 H 0.06063 0.55573 0.97904 0.0
H905 H 0.06558 0.53572 0.70296 0.0
H906 H 0.06278 0.55558 0.7242 0.0
H907 H 0.04294 0.53221 0.72742 0.0
C908 C 0.05449 0.59261 0.83884 0.0
C909 C 0.03661 0.58493 0.80749 0.0
C910 C 0.06145 0.58099 0.86044 0.0
C911 C 0.05072 0.56151 0.85083 0.0
C912 C 0.03259 0.55373 0.82243 0.0
H913 H 0.06738 0.46669 0.89732 0.0
H914 H 0.05552 0.48818 0.87769 0.0
C915 C 1.02561 0.56532 0.80086 0.0
C916 C 0.05868 0.54932 0.86808 0.0
H917 H 0.07115 0.51934 0.79362 0.0
C918 C 0.06303 0.54782 0.9386 0.0
C919 C 0.06186 0.5391 0.81508 0.0
C920 C 0.05822 0.5408 0.73805 0.0
C921 C 0.06995 0.5359 0.95783 0.0
C922 C 0.07291 0.52551 0.90483 0.0
C923 C 0.06879 0.52724 0.83423 0.0
C924 C 0.07992 0.51243 0.92112 0.0
C925 C 0.07349 0.53411 0.03484 0.0
C926 C 0.09763 0.51891 0.95206 0.0
C927 C 0.10441 0.50657 0.96412 0.0
C928 C 0.09365 0.48753 0.94499 0.0
C929 C 0.07591 0.48114 0.91402 0.0
C930 C 0.06915 0.49346 0.90221 0.0
H931 H 0.06608 0.53914 0.06983 0.0
H932 H 0.06893 0.51933 0.04854 0.0
H933 H 0.08875 0.54272 0.04574 0.0
H934 H 0.10636 0.53357 0.96581 0.0
H935 H 0.11807 0.51195 0.98842 0.0
H936 H 0.67582 0.4626 0.84172 0.0
H937 H 0.65354 0.42938 0.82003 0.0
H938 H 0.67099 0.41483 0.01307 0.0
H939 H 0.69302 0.44805 0.03599 0.0
H940 H 0.66295 0.40118 0.80382 0.0
H941 H 0.61326 0.38503 0.02636 0.0
H942 H 0.62937 0.40873 -0.00184 0.0
H943 H 0.63755 0.39626 0.05174 0.0
C944 C 0.67467 0.45238 0.88031 0.0
C945 C 0.68621 0.45803 0.94069 0.0
C946 C 0.662 0.43338 0.86759 0.0
C947 C 0.66043 0.41962 0.91527 0.0
C948 C 0.67172 0.4252 0.97609 0.0
H949 H 0.61845 0.30157 0.83877 0.0
H950 H 0.63652 0.33467 0.87192 0.0
C951 C 0.68446 0.4442 0.98872 0.0
C952 C 0.64787 0.39939 0.89909 0.0
H953 H 0.61028 0.35898 0.96054 0.0
C954 C 0.65138 0.39198 0.83792 0.0
C955 C 0.63269 0.38741 0.94337 0.0
C956 C 0.62783 0.39474 0.00829 0.0
C957 C 0.6404 0.37289 0.82062 0.0
C958 C 0.62557 0.36081 0.86588 0.0
C959 C 0.62176 0.36825 0.92626 0.0
C960 C 0.61403 0.34041 0.85103 0.0
C961 C 0.64468 0.36573 0.7538 0.0
C962 C 0.5952 0.33251 0.83019 0.0
C963 C 0.58483 0.31357 0.81046 0.0
C964 C 0.59309 0.30214 0.81161 0.0
C965 C 0.61174 0.31 0.83563 0.0
C966 C 0.62209 0.32891 0.85495 0.0
H967 H 0.65395 0.37735 0.71773 0.0
H968 H 0.65188 0.35781 0.76756 0.0
H969 H 0.63153 0.35605 0.72529 0.0
H970 H 0.58872 0.34115 0.82694 0.0
H971 H 0.57059 0.30809 0.79177 0.0
H972 H 0.878 0.17343 0.82167 0.0
H973 H 0.84542 0.16021 0.86031 0.0
H974 H 0.84085 0.106 0.88455 0.0
H975 H 0.87337 0.11908 0.84586 0.0
H976 H 0.81478 0.13159 0.79091 0.0
H977 H 0.81767 0.11118 0.06797 0.0
H978 H 0.83844 0.12718 0.01915 0.0
H979 H 0.82753 0.10233 0.00438 0.0
C980 C 0.87012 0.15873 0.83587 0.0
C981 C 0.8783 0.14731 0.8307 0.0
C982 C 0.85153 0.15122 0.85816 0.0
C983 C 0.84077 0.13217 0.87604 0.0
C984 C 0.84901 0.12083 0.87259 0.0
H985 H 0.72207 0.05879 0.96968 0.0
H986 H 0.75571 0.07189 0.94797 0.0
C987 C 0.86762 0.12834 0.85044 0.0
C988 C 0.82053 0.12389 0.89261 0.0
H989 H 0.78732 0.10029 0.01904 0.0
C990 C 0.80879 0.12485 0.84097 0.0
C991 C 0.81272 0.11493 0.95764 0.0
C992 C 0.82474 0.11394 0.01579 0.0
C993 C 0.78945 0.11695 0.85225 0.0
C994 C 0.78165 0.10817 0.91757 0.0
C995 C 0.79334 0.10706 0.96908 0.0
C996 C 0.76144 0.10034 0.93346 0.0
C997 C 0.77746 0.11776 0.79348 0.0
C998 C 0.75359 0.11204 0.93381 0.0
C999 C 0.7344 0.1046 0.94541 0.0
C1000 C 0.72263 0.08528 0.95774 0.0
C1001 C 0.73065 0.07366 0.95931 0.0
C1002 C 0.74989 0.08114 0.94745 0.0
H1003 H 0.78449 0.12017 0.74134 0.0
H1004 H 0.76369 0.10459 0.79073 0.0
H1005 H 0.77485 0.12954 0.80353 0.0
H1006 H 0.76231 0.12695 0.92435 0.0
H1007 H 0.72873 0.11396 0.94301 0.0
H1008 H 0.64866 1.00672 0.00512 0.0
H1009 H 0.67068 0.99669 0.04104 0.0
H1010 H 0.62839 0.95421 0.17448 0.0
H1011 H 0.60599 0.96418 0.1383 0.0
H1012 H 0.68311 0.9973 0.17883 0.0
H1013 H 0.64951 0.92523 0.06667 0.0
H1014 H 0.64316 0.9423 0.03871 0.0
H1015 H 0.63488 0.93045 0.12167 0.0
C1016 C 0.64384 0.99508 0.04153 0.0
C1017 C 0.62544 0.98627 0.06875 0.0
C1018 C 0.65655 0.98938 0.06215 0.0
C1019 C 0.65126 0.97463 0.11025 0.0
C1020 C 0.63277 0.96545 0.13646 0.0
H1021 H 0.71911 0.92841 0.28228 0.0
H1022 H 0.69377 0.93503 0.25781 0.0
C1023 C 0.61996 0.97117 0.11579 0.0
C1024 C 0.66557 0.96977 0.13498 0.0
H1025 H 0.67731 0.93532 0.13246 0.0
C1026 C 0.6818 0.98372 0.16881 0.0
C1027 C 0.66387 0.95202 0.12248 0.0
C1028 C 0.647 0.93663 0.08495 0.0
C1029 C 0.69635 0.98049 0.18998 0.0
C1030 C 0.69494 0.96294 0.17557 0.0
C1031 C 0.6785 0.94881 0.14329 0.0
C1032 C 0.71056 0.95917 0.19187 0.0
C1033 C 0.71302 0.99592 0.2284 0.0
C1034 C 0.72852 0.97043 0.16282 0.0
C1035 C 0.74313 0.96681 0.17733 0.0
C1036 C 0.74016 0.95169 0.22084 0.0
C1037 C 0.72211 0.94038 0.24964 0.0
C1038 C 0.7075 0.94404 0.23513 0.0
H1039 H 0.70941 1.00581 0.25441 0.0
H1040 H 0.71844 0.99012 0.26908 0.0
H1041 H 0.7244 1.00403 0.18989 0.0
H1042 H 0.73123 0.98196 0.12812 0.0
H1043 H 0.7568 0.97593 0.15446 0.0
H1044 H 0.21731 0.62774 0.32948 0.0
H1045 H 0.21118 0.59609 0.30138 0.0
H1046 H 0.22944 0.61326 0.08735 0.0
H1047 H 0.23613 0.64498 0.11538 0.0
H1048 H 0.18699 0.57057 0.20431 0.0
H1049 H 0.25989 0.58858 0.1419 0.0
H1050 H 0.2544 0.60467 0.18627 0.0
H1051 H 0.25208 0.60191 0.0919 0.0
C1052 C 0.22023 0.62487 0.27659 0.0
C1053 C 0.22726 0.63906 0.22484 0.0
C1054 C 0.21662 0.6067 0.26049 0.0
C1055 C 0.22013 0.60227 0.19249 0.0
C1056 C 0.22696 0.61633 0.14059 0.0
H1057 H 0.17252 0.49284 -0.00327 0.0
H1058 H 0.18209 0.5248 0.03286 0.0
C1059 C 0.23053 0.63447 0.15654 0.0
C1060 C 0.21606 0.58284 0.17513 0.0
H1061 H 0.23573 0.55784 0.1091 0.0
C1062 C 0.1977 0.5678 0.18392 0.0
C1063 C 0.23004 0.57907 0.14942 0.0
C1064 C 0.25025 0.59437 0.14242 0.0
C1065 C 0.19281 0.54931 0.16578 0.0
C1066 C 0.20659 0.54566 0.13701 0.0
C1067 C 0.2251 0.56059 0.13034 0.0
C1068 C 0.20184 0.52653 0.1121 0.0
C1069 C 0.1729 0.53379 0.17808 0.0
C1070 C 0.21034 0.51699 0.1422 0.0
C1071 C 0.20495 0.49857 0.12117 0.0
C1072 C 0.191 0.48935 0.0693 0.0
C1073 C 0.18315 0.49931 0.03733 0.0
C1074 C 0.18853 0.51763 0.05826 0.0
H1075 H 0.16569 0.53784 0.21809 0.0
H1076 H 0.1649 0.53071 0.12793 0.0
H1077 H 0.17251 0.52075 0.1959 0.0
H1078 H 0.22077 0.5236 0.18343 0.0
H1079 H 0.21129 0.49137 0.14703 0.0
H1080 H 0.68673 0.53188 0.00125 0.0
H1081 H 0.6546 0.50986 0.03632 0.0
H1082 H 0.65607 0.5502 0.18538 0.0
H1083 H 0.68852 0.57254 0.15035 0.0
H1084 H 0.64327 0.49551 0.17396 0.0
H1085 H 0.60574 0.53191 0.08013 0.0
H1086 H 0.62882 0.53796 0.04865 0.0
H1087 H 0.62606 0.54547 0.13461 0.0
C1088 C 0.68025 0.53627 0.04096 0.0
C1089 C 0.69033 0.55407 0.07298 0.0
C1090 C 0.66181 0.52358 0.06103 0.0
C1091 C 0.65282 0.52833 0.11328 0.0
C1092 C 0.6626 0.54627 0.14421 0.0
H1093 H 0.53935 0.46092 0.28863 0.0
H1094 H 0.57153 0.48586 0.2651 0.0
C1095 C 0.68117 0.55904 0.12415 0.0
C1096 C 0.63365 0.51401 0.13738 0.0
H1097 H 0.5878 0.5034 0.14126 0.0
C1098 C 0.63115 0.49726 0.16694 0.0
C1099 C 0.61784 0.51632 0.12875 0.0
C1100 C 0.6196 0.5338 0.09587 0.0
C1101 C 0.61333 0.48277 0.18776 0.0
C1102 C 0.5974 0.48482 0.17726 0.0
C1103 C 0.59996 0.50175 0.14913 0.0
C1104 C 0.57795 0.46938 0.19331 0.0
C1105 C 0.61184 0.4655 0.2217 0.0
C1106 C 0.5707 0.45175 0.16074 0.0
C1107 C 0.55235 0.43736 0.17472 0.0
C1108 C 0.54066 0.44026 0.22115 0.0
C1109 C 0.54797 0.45798 0.25361 0.0
C1110 C 0.56636 0.47236 0.23967 0.0
H1111 H 0.62537 0.46848 0.24586 0.0
H1112 H 0.60081 0.45981 0.26309 0.0
H1113 H 0.60813 0.45453 0.18076 0.0
H1114 H 0.57916 0.44915 0.12364 0.0
H1115 H 0.54734 0.42392 0.14903 0.0
H1116 H 0.94192 0.74583 0.51811 0.0
H1117 H 0.92877 0.76487 0.47523 0.0
H1118 H 0.98093 0.81521 0.52264 0.0
H1119 H 0.99443 0.79633 0.56259 0.0
H1120 H 0.92332 0.78942 0.55235 0.0
H1121 H 0.9701 0.82704 0.32779 0.0
H1122 H 0.96931 0.80677 0.3679 0.0
H1123 H 0.98297 0.82962 0.40746 0.0
C1124 C 0.95078 0.76094 0.51762 0.0
C1125 C 0.96926 0.76953 0.54381 0.0
C1126 C 0.94318 0.77182 0.49362 0.0
C1127 C 0.95391 0.79148 0.49489 0.0
C1128 C 0.97247 0.80008 0.51968 0.0
H1129 H 0.93746 0.88605 0.46419 0.0
H1130 H 0.94849 0.8637 0.47969 0.0
C1131 C 0.98011 0.78924 0.54341 0.0
C1132 C 0.94536 0.80305 0.47541 0.0
H1133 H 0.9519 0.84011 0.37374 0.0
C1134 C 0.9294 0.80032 0.51255 0.0
C1135 C 0.95329 0.81728 0.42346 0.0
C1136 C 0.96975 0.82024 0.37887 0.0
C1137 C 0.92163 0.81191 0.50119 0.0
C1138 C 0.92994 0.8265 0.45089 0.0
C1139 C 0.94561 0.82895 0.41252 0.0
C1140 C 0.92312 0.8399 0.43967 0.0
C1141 C 0.90504 0.80894 0.54496 0.0
C1142 C 0.90524 0.83395 0.41132 0.0
C1143 C 0.89891 0.84674 0.40178 0.0
C1144 C 0.91039 0.86575 0.42026 0.0
C1145 C 0.92835 0.87161 0.44827 0.0
C1146 C 0.93466 0.85884 0.45756 0.0
H1147 H 0.90248 0.79939 0.59029 0.0
H1148 H 0.9072 0.82253 0.56545 0.0
H1149 H 0.89227 0.80265 0.51137 0.0
H1150 H 0.89623 0.81943 0.3962 0.0
H1151 H 0.88513 0.84179 0.37913 0.0
H1152 H 0.43591 0.0455 0.59532 0.0
H1153 H 0.41796 1.01249 0.56008 0.0
H1154 H 0.37422 0.02142 0.47724 0.0
H1155 H 0.39239 0.05452 0.50927 0.0
H1156 H 0.38382 0.98627 0.60703 0.0
H1157 H 0.38021 0.99265 0.31734 0.0
H1158 H 0.39617 1.01209 0.37221 0.0
H1159 H 0.37196 1.00605 0.36432 0.0
C1160 C 0.42269 0.04057 0.56803 0.0
C1161 C 0.41564 0.05276 0.5552 0.0
C1162 C 0.41236 0.02163 0.54841 0.0
C1163 C 0.39481 1.01446 0.51513 0.0
C1164 C 0.38788 0.02664 0.50141 0.0
H1165 H 0.30014 0.90596 0.41594 0.0
H1166 H 0.32264 0.93919 0.43475 0.0
C1167 C 0.3982 0.04556 0.52073 0.0
C1168 C 0.3832 0.99405 0.49893 0.0
H1169 H 0.35846 0.96281 0.36744 0.0
C1170 C 0.37848 0.98114 0.55444 0.0
C1171 C 0.37618 0.98729 0.4303 0.0
C1172 C 0.38154 1.00023 0.36752 0.0
C1173 C 0.36647 0.9618 0.54375 0.0
C1174 C 0.35911 0.95512 0.47554 0.0
C1175 C 0.36405 0.96796 0.41976 0.0
C1176 C 0.34578 0.93492 0.46161 0.0
C1177 C 0.36123 0.9487 0.60603 0.0
C1178 C 0.35139 0.92147 0.46927 0.0
C1179 C 0.33859 0.90242 0.45791 0.0
C1180 C 0.31988 0.8964 0.4385 0.0
C1181 C 0.31445 0.91002 0.42981 0.0
C1182 C 0.32728 0.92905 0.44095 0.0
H1183 H 0.36497 0.95639 0.65712 0.0
H1184 H 0.34595 0.93842 0.60586 0.0
H1185 H 0.36884 0.94077 0.60243 0.0
H1186 H 0.3657 0.92572 0.48398 0.0
H1187 H 0.34339 0.89242 0.4639 0.0
H1188 H 0.1364 0.19772 0.63243 0.0
H1189 H 0.1687 0.20897 0.59461 0.0
H1190 H 0.1619 0.24024 0.42604 0.0
H1191 H 0.12943 0.22884 0.46286 0.0
H1192 H 0.18331 0.20606 0.46012 0.0
H1193 H 0.20806 0.28 0.53806 0.0
H1194 H 0.186 0.26071 0.56807 0.0
H1195 H 0.18816 0.26942 0.47966 0.0
C1196 C 0.14163 0.20673 0.58655 0.0
C1197 C 0.1303 0.21243 0.55086 0.0
C1198 C 0.16014 0.21324 0.5653 0.0
C1199 C 0.16776 0.22566 0.50825 0.0
C1200 C 0.15639 0.23095 0.47109 0.0
H1201 H 0.28339 0.28713 0.35352 0.0
H1202 H 0.24956 0.27426 0.36805 0.0
C1203 C 0.13784 0.22442 0.49224 0.0
C1204 C 0.18774 0.23329 0.48876 0.0
H1205 H 0.23028 0.27365 0.48582 0.0
C1206 C 0.19359 0.22084 0.46549 0.0
C1207 C 0.20107 0.25259 0.49555 0.0
C1208 C 0.19563 0.2665 0.52218 0.0
C1209 C 0.21247 0.22718 0.44885 0.0
C1210 C 0.22591 0.24642 0.45738 0.0
C1211 C 0.21997 0.25891 0.47935 0.0
C1212 C 0.2463 0.25377 0.44658 0.0
C1213 C 0.21777 0.21322 0.4216 0.0
C1214 C 0.25575 0.24666 0.48634 0.0
C1215 C 0.27501 0.25383 0.47763 0.0
C1216 C 0.28535 0.26848 0.42961 0.0
C1217 C 0.27586 0.27568 0.3902 0.0
C1218 C 0.25653 0.26842 0.39876 0.0
H1219 H 0.20555 0.20085 0.39721 0.0
H1220 H 0.2292 0.21969 0.38195 0.0
H1221 H 0.22272 0.20812 0.46633 0.0
H1222 H 0.24826 0.23566 0.52475 0.0
H1223 H 0.28177 0.24777 0.50831 0.0
H1224 H 0.46024 0.20458 0.67294 0.0
H1225 H 0.45709 0.22965 0.61691 0.0
H1226 H 0.50674 0.24514 0.49327 0.0
H1227 H 0.50979 0.21982 0.5486 0.0
H1228 H 0.48087 0.26828 0.61055 0.0
H1229 H 0.46776 0.2367 0.34209 0.0
H1230 H 0.46713 0.2239 0.4203 0.0
H1231 H 0.48924 0.24106 0.38341 0.0
C1232 C 0.47054 0.21336 0.63403 0.0
C1233 C 0.48518 0.21011 0.61488 0.0
C1234 C 0.46875 0.22774 0.60207 0.0
C1235 C 0.4815 0.23917 0.54996 0.0
C1236 C 0.4965 0.23632 0.53228 0.0
H1237 H 0.47183 0.33596 0.39053 0.0
H1238 H 0.48664 0.31812 0.43347 0.0
C1239 C 0.49831 0.22192 0.56432 0.0
C1240 C 0.47865 0.25367 0.51356 0.0
H1241 H 0.46736 0.26494 0.35402 0.0
C1242 C 0.47815 0.2677 0.55428 0.0
C1243 C 0.47497 0.25286 0.44013 0.0
C1244 C 0.47463 0.23776 0.39377 0.0
C1245 C 0.47361 0.28058 0.52414 0.0
C1246 C 0.46963 0.27958 0.45096 0.0
C1247 C 0.47063 0.26587 0.40989 0.0
C1248 C 0.46193 0.29084 0.4182 0.0
C1249 C 0.47214 0.29454 0.57152 0.0
C1250 C 0.44345 0.28151 0.3927 0.0
C1251 C 0.43507 0.29159 0.36831 0.0
C1252 C 0.44497 0.31134 0.368 0.0
C1253 C 0.46386 0.32077 0.38981 0.0
C1254 C 0.47225 0.31059 0.41502 0.0
H1255 H 0.47286 0.29163 0.62837 0.0
H1256 H 0.48386 0.30885 0.55979 0.0
H1257 H 0.45877 0.29442 0.56167 0.0
H1258 H 0.4352 0.26633 0.39421 0.0
H1259 H 0.42055 0.28385 0.35145 0.0
H1260 H 0.84903 0.99053 0.38095 0.0
H1261 H 0.86867 0.02379 0.41576 0.0
H1262 H 0.91835 1.01925 0.39093 0.0
H1263 H 0.89915 0.98666 0.35603 0.0
H1264 H 0.89353 0.03798 0.53214 0.0
H1265 H 0.93301 0.06742 0.28509 0.0
H1266 H 0.91158 0.04501 0.28793 0.0
H1267 H 0.93364 0.04685 0.31169 0.0
C1268 C 0.86415 0.99681 0.38147 0.0
C1269 C 0.87248 0.9859 0.36557 0.0
C1270 C 0.87538 1.01577 0.40182 0.0
C1271 C 0.89509 0.02419 0.40518 0.0
C1272 C 0.90328 1.01334 0.3875 0.0
H1273 H 0.99622 0.11659 0.56437 0.0
H1274 H 0.97066 0.08808 0.51117 0.0
C1275 C 0.89219 0.99456 0.36792 0.0
C1276 C 0.90737 0.04382 0.4313 0.0
H1277 H 0.94784 0.08453 0.39188 0.0
C1278 C 0.90516 0.04832 0.50098 0.0
C1279 C 0.92263 0.05739 0.3909 0.0
C1280 C 0.92526 0.054 0.31451 0.0
C1281 C 0.91837 0.06548 0.53246 0.0
C1282 C 0.93416 0.07861 0.49309 0.0
C1283 C 0.93588 0.07444 0.42247 0.0
C1284 C 0.94959 0.0962 0.52522 0.0
C1285 C 0.91588 0.06902 0.6088 0.0
C1286 C 0.94644 0.1105 0.55002 0.0
C1287 C 0.96112 0.12689 0.58032 0.0
C1288 C 0.97923 0.12931 0.58678 0.0
C1289 C 0.98241 0.11513 0.56077 0.0
C1290 C 0.96779 0.09881 0.53026 0.0
H1291 H 0.9049 0.05617 0.63542 0.0
H1292 H 0.92928 0.07433 0.6382 0.0
H1293 H 0.91167 0.07988 0.6117 0.0
H1294 H 0.93267 0.10909 0.54529 0.0
H1295 H 0.95837 0.13777 0.59763 0.0
H1296 H 0.07111 0.72716 0.66611 0.0
H1297 H 0.09987 0.73038 0.61445 0.0
H1298 H 0.0674 0.67757 0.50637 0.0
H1299 H 0.03848 0.67435 0.55763 0.0
H1300 H 0.11571 0.70679 0.62267 0.0
H1301 H 0.0976 0.71425 0.34604 0.0
H1302 H 0.0853 0.71648 0.42103 0.0
H1303 H 0.08059 0.69372 0.39262 0.0
C1304 C 0.07008 0.71619 0.63151 0.0
C1305 C 0.0525 0.70054 0.61578 0.0
C1306 C 0.08655 0.71804 0.60208 0.0
C1307 C 0.08585 0.70435 0.55574 0.0
C1308 C 0.06832 0.68848 0.54104 0.0
H1309 H 0.19193 0.71092 0.40875 0.0
H1310 H 0.15923 0.69734 0.45006 0.0
C1311 C 0.0518 0.68659 0.57072 0.0
C1312 C 0.10351 0.70703 0.52243 0.0
H1313 H 0.12673 0.716 0.36458 0.0
C1314 C 0.11803 0.70855 0.56613 0.0
C1315 C 0.10663 0.70948 0.44863 0.0
C1316 C 0.09181 0.70855 0.39911 0.0
C1317 C 0.13561 0.71279 0.53833 0.0
C1318 C 0.13882 0.71554 0.46474 0.0
C1319 C 0.1242 0.71366 0.42084 0.0
C1320 C 0.15791 0.72268 0.43384 0.0
C1321 C 0.15097 0.71517 0.58815 0.0
C1322 C 0.16782 0.74118 0.40911 0.0
C1323 C 0.18637 0.74892 0.38606 0.0
C1324 C 0.19549 0.7383 0.38616 0.0
C1325 C 0.18528 0.71943 0.40761 0.0
C1326 C 0.16666 0.71171 0.43172 0.0
H1327 H 0.14689 0.71459 0.64443 0.0
H1328 H 0.15431 0.70386 0.57855 0.0
H1329 H 0.16394 0.72879 0.57841 0.0
H1330 H 0.1614 0.74991 0.40998 0.0
H1331 H 0.19375 0.76346 0.36955 0.0
loop_
_geom_bond_atom_site_label_1
_geom_bond_atom_site_label_2
_geom_bond_distance
_geom_bond_site_symmetry_2
_ccdc_geom_bond_type
C0 Eu1 2.835 . S
C0 C2 1.500 . S
C0 O20 1.257 . S
C0 O21 1.260 . S
Eu1 C0 2.835 . S
Eu1 O20 2.473 . S
Eu1 O21 2.480 . S
Eu1 O22 2.430 . S
Eu1 O23 2.670 . S
Eu1 O24 2.394 . S
Eu1 O29 2.355 . S
Eu1 O31 2.374 . S
C2 C0 1.500 . S
C2 C3 1.377 . S
C2 C7 1.377 . S
C3 C2 1.377 . S
C3 C4 1.395 . S
C3 H32 0.931 . S
C4 C3 1.395 . S
C4 C5 1.383 . S
C4 H33 0.931 . S
C5 C4 1.383 . S
C5 C6 1.394 . S
C6 C5 1.394 . S
C6 C7 1.378 . S
C6 H34 0.931 1_554 S
C7 C2 1.377 . S
C7 C6 1.378 . S
C7 H35 0.931 1_554 S
C8 O22 1.259 . S
C8 O23 1.270 . S
C9 O24 1.251 . S
C9 O25 1.251 . S
C10 Eu11 2.835 . S
C10 C12 1.500 . S
C10 O26 1.257 . S
C10 O27 1.260 . S
Eu11 C10 2.835 . S
Eu11 O23 2.355 . S
Eu11 O25 2.374 . S
Eu11 O26 2.473 . S
Eu11 O27 2.480 . S
Eu11 O28 2.430 1_554 S
Eu11 O29 2.670 . S
Eu11 O30 2.394 . S
C12 C10 1.500 . S
C12 C13 1.377 . S
C12 C17 1.377 . S
C13 C12 1.377 . S
C13 C14 1.395 . S
C13 H36 0.931 . S
C14 C13 1.395 . S
C14 C15 1.383 . S
C14 H37 0.931 . S
C15 C14 1.383 . S
C15 C16 1.394 . S
C16 C15 1.394 . S
C16 C17 1.378 . S
C16 H38 0.931 . S
C17 C12 1.377 . S
C17 C16 1.378 . S
C17 H39 0.931 . S
C18 O28 1.259 . S
C18 O29 1.270 1_556 S
C19 O30 1.251 . S
C19 O31 1.251 . S
O20 C0 1.257 . S
O20 Eu1 2.473 . S
O21 C0 1.260 . S
O21 Eu1 2.480 . S
O22 Eu1 2.430 . S
O22 C8 1.259 . S
O23 Eu1 2.670 . S
O23 C8 1.270 . S
O23 Eu11 2.355 . S
O24 Eu1 2.394 . S
O24 C9 1.251 . S
O25 C9 1.251 . S
O25 Eu11 2.374 . S
O26 C10 1.257 . S
O26 Eu11 2.473 . S
O27 C10 1.260 . S
O27 Eu11 2.480 . S
O28 Eu11 2.430 1_556 S
O28 C18 1.259 . S
O29 Eu1 2.355 . S
O29 Eu11 2.670 . S
O29 C18 1.270 1_554 S
O30 Eu11 2.394 . S
O30 C19 1.251 . S
O31 Eu1 2.374 . S
O31 C19 1.251 . S
H32 C3 0.931 . S
H33 C4 0.931 . S
H34 C6 0.931 1_556 S
H35 C7 0.931 1_556 S
H36 C13 0.931 . S
H37 C14 0.931 . S
H38 C16 0.931 . S
H39 C17 0.931 . S
C40 Eu41 2.835 . S
C40 C42 1.500 . S
C40 O60 1.257 . S
C40 O61 1.260 . S
Eu41 C40 2.835 . S
Eu41 O60 2.473 . S
Eu41 O61 2.480 . S
Eu41 O62 2.430 . S
Eu41 O63 2.670 . S
Eu41 O64 2.394 . S
Eu41 O69 2.355 . S
Eu41 O71 2.374 . S
C42 C40 1.500 . S
C42 C43 1.377 . S
C42 C47 1.377 . S
C43 C42 1.377 . S
C43 C44 1.395 . S
C43 H72 0.931 . S
C44 C43 1.395 . S
C44 C45 1.383 . S
C44 H73 0.931 . S
C45 C44 1.383 . S
C45 C46 1.394 . S
C46 C45 1.394 . S
C46 C47 1.378 . S
C46 H74 0.931 1_554 S
C47 C42 1.377 . S
C47 C46 1.378 . S
C47 H75 0.931 1_554 S
C48 O62 1.259 . S
C48 O63 1.270 . S
C49 O64 1.251 . S
C49 O65 1.251 . S
C50 Eu51 2.835 . S
C50 C52 1.500 . S
C50 O66 1.257 . S
C50 O67 1.260 . S
Eu51 C50 2.835 . S
Eu51 O63 2.355 . S
Eu51 O65 2.374 . S
Eu51 O66 2.473 . S
Eu51 O67 2.480 . S
Eu51 O68 2.430 1_554 S
Eu51 O69 2.670 . S
Eu51 O70 2.394 . S
C52 C50 1.500 . S
C52 C53 1.377 . S
C52 C57 1.377 . S
C53 C52 1.377 . S
C53 C54 1.395 . S
C53 H76 0.931 . S
C54 C53 1.395 . S
C54 C55 1.383 . S
C54 H77 0.931 . S
C55 C54 1.383 . S
C55 C56 1.394 . S
C56 C55 1.394 . S
C56 C57 1.378 . S
C56 H78 0.931 . S
C57 C52 1.377 . S
C57 C56 1.378 . S
C57 H79 0.931 . S
C58 O68 1.259 . S
C58 O69 1.270 1_556 S
C59 O70 1.251 . S
C59 O71 1.251 . S
O60 C40 1.257 . S
O60 Eu41 2.473 . S
O61 C40 1.260 . S
O61 Eu41 2.480 . S
O62 Eu41 2.430 . S
O62 C48 1.259 . S
O63 Eu41 2.670 . S
O63 C48 1.270 . S
O63 Eu51 2.355 . S
O64 Eu41 2.394 . S
O64 C49 1.251 . S
O65 C49 1.251 . S
O65 Eu51 2.374 . S
O66 C50 1.257 . S
O66 Eu51 2.473 . S
O67 C50 1.260 . S
O67 Eu51 2.480 . S
O68 Eu51 2.430 1_556 S
O68 C58 1.259 . S
O69 Eu41 2.355 . S
O69 Eu51 2.670 . S
O69 C58 1.270 1_554 S
O70 Eu51 2.394 . S
O70 C59 1.251 . S
O71 Eu41 2.374 . S
O71 C59 1.251 . S
H72 C43 0.931 . S
H73 C44 0.931 . S
H74 C46 0.931 1_556 S
H75 C47 0.931 1_556 S
H76 C53 0.931 . S
H77 C54 0.931 . S
H78 C56 0.931 . S
H79 C57 0.931 . S
C80 Eu81 2.835 . S
C80 C82 1.500 . S
C80 O100 1.257 . S
C80 O101 1.260 . S
Eu81 C80 2.835 . S
Eu81 O100 2.473 . S
Eu81 O101 2.480 . S
Eu81 O102 2.430 . S
Eu81 O103 2.670 . S
Eu81 O104 2.394 . S
Eu81 O109 2.355 . S
Eu81 O111 2.374 . S
C82 C80 1.500 . S
C82 C83 1.377 . S
C82 C87 1.377 . S
C83 C82 1.377 . S
C83 C84 1.395 . S
C83 H112 0.931 . S
C84 C83 1.395 . S
C84 C85 1.383 . S
C84 H113 0.931 . S
C85 C84 1.383 . S
C85 C86 1.394 . S
C86 C85 1.394 . S
C86 C87 1.378 . S
C86 H114 0.931 1_554 S
C87 C82 1.377 . S
C87 C86 1.378 . S
C87 H115 0.931 1_554 S
C88 O102 1.259 . S
C88 O103 1.270 . S
C89 O104 1.245 . S
C89 O105 1.252 1_545 S
C90 Eu91 2.835 . S
C90 C92 1.500 . S
C90 O106 1.257 . S
C90 O107 1.260 . S
Eu91 C90 2.835 . S
Eu91 O103 2.355 1_565 S
Eu91 O105 2.374 . S
Eu91 O106 2.473 . S
Eu91 O107 2.480 . S
Eu91 O108 2.430 1_554 S
Eu91 O109 2.670 1_565 S
Eu91 O110 2.394 1_565 S
C92 C90 1.500 . S
C92 C93 1.377 . S
C92 C97 1.377 . S
C93 C92 1.377 . S
C93 C94 1.395 . S
C93 H116 0.931 . S
C94 C93 1.395 . S
C94 C95 1.383 . S
C94 H117 0.931 . S
C95 C94 1.383 . S
C95 C96 1.394 . S
C96 C95 1.394 . S
C96 C97 1.378 . S
C96 H118 0.931 . S
C97 C92 1.377 . S
C97 C96 1.378 . S
C97 H119 0.931 . S
C98 O108 1.259 1_545 S
C98 O109 1.270 1_556 S
C99 O110 1.251 . S
C99 O111 1.251 . S
O100 C80 1.257 . S
O100 Eu81 2.473 . S
O101 C80 1.260 . S
O101 Eu81 2.480 . S
O102 Eu81 2.430 . S
O102 C88 1.259 . S
O103 Eu81 2.670 . S
O103 C88 1.270 . S
O103 Eu91 2.355 1_545 S
O104 Eu81 2.394 . S
O104 C89 1.245 . S
O105 C89 1.252 1_565 S
O105 Eu91 2.374 . S
O106 C90 1.257 . S
O106 Eu91 2.473 . S
O107 C90 1.260 . S
O107 Eu91 2.480 . S
O108 Eu91 2.430 1_556 S
O108 C98 1.259 1_565 S
O109 Eu81 2.355 . S
O109 Eu91 2.670 1_545 S
O109 C98 1.270 1_554 S
O110 Eu91 2.394 1_545 S
O110 C99 1.251 . S
O111 Eu81 2.374 . S
O111 C99 1.251 . S
H112 C83 0.931 . S
H113 C84 0.931 . S
H114 C86 0.931 1_556 S
H115 C87 0.931 1_556 S
H116 C93 0.931 . S
H117 C94 0.931 . S
H118 C96 0.931 . S
H119 C97 0.931 . S
C120 Eu121 2.835 . S
C120 C122 1.500 . S
C120 O140 1.257 . S
C120 O141 1.260 . S
Eu121 C120 2.835 . S
Eu121 O140 2.473 . S
Eu121 O141 2.480 . S
Eu121 O142 2.430 . S
Eu121 O143 2.670 . S
Eu121 O144 2.394 . S
Eu121 O149 2.355 . S
Eu121 O151 2.374 . S
C122 C120 1.500 . S
C122 C123 1.377 . S
C122 C127 1.377 . S
C123 C122 1.377 . S
C123 C124 1.395 . S
C123 H152 0.931 . S
C124 C123 1.395 . S
C124 C125 1.383 . S
C124 H153 0.931 . S
C125 C124 1.383 . S
C125 C126 1.394 . S
C126 C125 1.394 . S
C126 C127 1.378 . S
C126 H154 0.931 . S
C127 C122 1.377 . S
C127 C126 1.378 . S
C127 H155 0.931 . S
C128 O142 1.259 . S
C128 O143 1.270 . S
C129 O144 1.251 . S
C129 O145 1.251 . S
C130 Eu131 2.835 . S
C130 C132 1.500 . S
C130 O146 1.257 . S
C130 O147 1.260 . S
Eu131 C130 2.835 . S
Eu131 O143 2.355 . S
Eu131 O145 2.374 . S
Eu131 O146 2.473 . S
Eu131 O147 2.480 . S
Eu131 O148 2.430 . S
Eu131 O149 2.670 . S
Eu131 O150 2.394 . S
C132 C130 1.500 . S
C132 C133 1.377 . S
C132 C137 1.377 . S
C133 C132 1.377 . S
C133 C134 1.395 . S
C133 H156 0.931 . S
C134 C133 1.395 . S
C134 C135 1.383 . S
C134 H157 0.931 . S
C135 C134 1.383 . S
C135 C136 1.394 . S
C136 C135 1.394 . S
C136 C137 1.378 . S
C136 H158 0.931 . S
C137 C132 1.377 . S
C137 C136 1.378 . S
C137 H159 0.931 . S
C138 O148 1.259 . S
C138 O149 1.270 . S
C139 O150 1.251 . S
C139 O151 1.251 . S
O140 C120 1.257 . S
O140 Eu121 2.473 . S
O141 C120 1.260 . S
O141 Eu121 2.480 . S
O142 Eu121 2.430 . S
O142 C128 1.259 . S
O143 Eu121 2.670 . S
O143 C128 1.270 . S
O143 Eu131 2.355 . S
O144 Eu121 2.394 . S
O144 C129 1.251 . S
O145 C129 1.251 . S
O145 Eu131 2.374 . S
O146 C130 1.257 . S
O146 Eu131 2.473 . S
O147 C130 1.260 . S
O147 Eu131 2.480 . S
O148 Eu131 2.430 . S
O148 C138 1.259 . S
O149 Eu121 2.355 . S
O149 Eu131 2.670 . S
O149 C138 1.270 . S
O150 Eu131 2.394 . S
O150 C139 1.251 . S
O151 Eu121 2.374 . S
O151 C139 1.251 . S
H152 C123 0.931 . S
H153 C124 0.931 . S
H154 C126 0.931 . S
H155 C127 0.931 . S
H156 C133 0.931 . S
H157 C134 0.931 . S
H158 C136 0.931 . S
H159 C137 0.931 . S
C160 Eu161 2.835 . S
C160 C162 1.500 . S
C160 O180 1.257 . S
C160 O181 1.260 . S
Eu161 C160 2.835 . S
Eu161 O180 2.473 . S
Eu161 O181 2.480 . S
Eu161 O182 2.430 . S
Eu161 O183 2.670 . S
Eu161 O184 2.394 . S
Eu161 O189 2.355 . S
Eu161 O191 2.374 . S
C162 C160 1.500 . S
C162 C163 1.377 . S
C162 C167 1.377 . S
C163 C162 1.377 . S
C163 C164 1.395 . S
C163 H192 0.931 . S
C164 C163 1.395 . S
C164 C165 1.383 . S
C164 H193 0.931 . S
C165 C164 1.383 . S
C165 C166 1.394 . S
C166 C165 1.394 . S
C166 C167 1.378 . S
C166 H194 0.931 . S
C167 C162 1.377 . S
C167 C166 1.378 . S
C167 H195 0.931 . S
C168 O182 1.259 . S
C168 O183 1.270 . S
C169 O184 1.251 . S
C169 O185 1.251 . S
C170 Eu171 2.835 . S
C170 C172 1.500 . S
C170 O186 1.257 . S
C170 O187 1.260 . S
Eu171 C170 2.835 . S
Eu171 O183 2.355 . S
Eu171 O185 2.374 . S
Eu171 O186 2.473 . S
Eu171 O187 2.480 . S
Eu171 O188 2.430 . S
Eu171 O189 2.670 . S
Eu171 O190 2.394 . S
C172 C170 1.500 . S
C172 C173 1.377 . S
C172 C177 1.377 . S
C173 C172 1.377 . S
C173 C174 1.395 . S
C173 H196 0.931 . S
C174 C173 1.395 . S
C174 C175 1.383 . S
C174 H197 0.931 . S
C175 C174 1.383 . S
C175 C176 1.394 . S
C176 C175 1.394 . S
C176 C177 1.378 . S
C176 H198 0.931 . S
C177 C172 1.377 . S
C177 C176 1.378 . S
C177 H199 0.931 . S
C178 O188 1.259 . S
C178 O189 1.270 . S
C179 O190 1.251 . S
C179 O191 1.251 . S
O180 C160 1.257 . S
O180 Eu161 2.473 . S
O181 C160 1.260 . S
O181 Eu161 2.480 . S
O182 Eu161 2.430 . S
O182 C168 1.259 . S
O183 Eu161 2.670 . S
O183 C168 1.270 . S
O183 Eu171 2.355 . S
O184 Eu161 2.394 . S
O184 C169 1.251 . S
O185 C169 1.251 . S
O185 Eu171 2.374 . S
O186 C170 1.257 . S
O186 Eu171 2.473 . S
O187 C170 1.260 . S
O187 Eu171 2.480 . S
O188 Eu171 2.430 . S
O188 C178 1.259 . S
O189 Eu161 2.355 . S
O189 Eu171 2.670 . S
O189 C178 1.270 . S
O190 Eu171 2.394 . S
O190 C179 1.251 . S
O191 Eu161 2.374 . S
O191 C179 1.251 . S
H192 C163 0.931 . S
H193 C164 0.931 . S
H194 C166 0.931 . S
H195 C167 0.931 . S
H196 C173 0.931 . S
H197 C174 0.931 . S
H198 C176 0.931 . S
H199 C177 0.931 . S
C200 Eu201 2.835 . S
C200 C202 1.500 . S
C200 O220 1.257 . S
C200 O221 1.260 . S
Eu201 C200 2.835 . S
Eu201 O220 2.473 . S
Eu201 O221 2.480 . S
Eu201 O222 2.430 . S
Eu201 O223 2.670 . S
Eu201 O224 2.394 . S
Eu201 O229 2.355 . S
Eu201 O231 2.374 . S
C202 C200 1.500 . S
C202 C203 1.377 . S
C202 C207 1.377 . S
C203 C202 1.377 . S
C203 C204 1.395 . S
C203 H232 0.931 . S
C204 C203 1.395 . S
C204 C205 1.383 . S
C204 H233 0.931 . S
C205 C204 1.383 . S
C205 C206 1.394 . S
C206 C205 1.394 . S
C206 C207 1.378 . S
C206 H234 0.931 . S
C207 C202 1.377 . S
C207 C206 1.378 . S
C207 H235 0.931 . S
C208 O222 1.259 . S
C208 O223 1.270 . S
C209 O224 1.251 . S
C209 O225 1.251 . S
C210 Eu211 2.835 . S
C210 C212 1.500 . S
C210 O226 1.257 . S
C210 O227 1.260 . S
Eu211 C210 2.835 . S
Eu211 O223 2.355 . S
Eu211 O225 2.374 . S
Eu211 O226 2.473 . S
Eu211 O227 2.480 . S
Eu211 O228 2.430 . S
Eu211 O229 2.670 . S
Eu211 O230 2.394 . S
C212 C210 1.500 . S
C212 C213 1.377 . S
C212 C217 1.377 . S
C213 C212 1.377 . S
C213 C214 1.395 . S
C213 H236 0.931 . S
C214 C213 1.395 . S
C214 C215 1.383 . S
C214 H237 0.931 . S
C215 C214 1.383 . S
C215 C216 1.394 . S
C216 C215 1.394 . S
C216 C217 1.378 . S
C216 H238 0.931 . S
C217 C212 1.377 . S
C217 C216 1.378 . S
C217 H239 0.931 . S
C218 O228 1.259 . S
C218 O229 1.270 . S
C219 O230 1.251 . S
C219 O231 1.251 . S
O220 C200 1.257 . S
O220 Eu201 2.473 . S
O221 C200 1.260 . S
O221 Eu201 2.480 . S
O222 Eu201 2.430 . S
O222 C208 1.259 . S
O223 Eu201 2.670 . S
O223 C208 1.270 . S
O223 Eu211 2.355 . S
O224 Eu201 2.394 . S
O224 C209 1.251 . S
O225 C209 1.251 . S
O225 Eu211 2.374 . S
O226 C210 1.257 . S
O226 Eu211 2.473 . S
O227 C210 1.260 . S
O227 Eu211 2.480 . S
O228 Eu211 2.430 . S
O228 C218 1.259 . S
O229 Eu201 2.355 . S
O229 Eu211 2.670 . S
O229 C218 1.270 . S
O230 Eu211 2.394 . S
O230 C219 1.251 . S
O231 Eu201 2.374 . S
O231 C219 1.251 . S
H232 C203 0.931 . S
H233 C204 0.931 . S
H234 C206 0.931 . S
H235 C207 0.931 . S
H236 C213 0.931 . S
H237 C214 0.931 . S
H238 C216 0.931 . S
H239 C217 0.931 . S
C240 Eu241 2.835 . S
C240 C242 1.500 . S
C240 O260 1.257 . S
C240 O261 1.260 . S
Eu241 C240 2.835 . S
Eu241 O260 2.473 . S
Eu241 O261 2.480 . S
Eu241 O262 2.430 . S
Eu241 O263 2.670 . S
Eu241 O264 2.394 . S
Eu241 O269 2.355 . S
Eu241 O271 2.374 . S
C242 C240 1.500 . S
C242 C243 1.377 . S
C242 C247 1.377 . S
C243 C242 1.377 . S
C243 C244 1.395 . S
C243 H272 0.931 . S
C244 C243 1.395 . S
C244 C245 1.383 . S
C244 H273 0.931 . S
C245 C244 1.383 . S
C245 C246 1.394 . S
C246 C245 1.394 . S
C246 C247 1.378 . S
C246 H274 0.931 . S
C247 C242 1.377 . S
C247 C246 1.378 . S
C247 H275 0.931 . S
C248 O262 1.259 . S
C248 O263 1.270 . S
C249 O264 1.251 . S
C249 O265 1.251 . S
C250 Eu251 2.835 . S
C250 C252 1.500 . S
C250 O266 1.257 . S
C250 O267 1.260 . S
Eu251 C250 2.835 . S
Eu251 O263 2.355 . S
Eu251 O265 2.374 . S
Eu251 O266 2.473 . S
Eu251 O267 2.480 . S
Eu251 O268 2.430 . S
Eu251 O269 2.670 . S
Eu251 O270 2.394 . S
C252 C250 1.500 . S
C252 C253 1.377 . S
C252 C257 1.377 . S
C253 C252 1.377 . S
C253 C254 1.395 . S
C253 H276 0.931 . S
C254 C253 1.395 . S
C254 C255 1.383 . S
C254 H277 0.931 . S
C255 C254 1.383 . S
C255 C256 1.394 . S
C256 C255 1.394 . S
C256 C257 1.378 . S
C256 H278 0.931 . S
C257 C252 1.377 . S
C257 C256 1.378 . S
C257 H279 0.931 . S
C258 O268 1.259 . S
C258 O269 1.270 . S
C259 O270 1.251 . S
C259 O271 1.251 . S
O260 C240 1.257 . S
O260 Eu241 2.473 . S
O261 C240 1.260 . S
O261 Eu241 2.480 . S
O262 Eu241 2.430 . S
O262 C248 1.259 . S
O263 Eu241 2.670 . S
O263 C248 1.270 . S
O263 Eu251 2.355 . S
O264 Eu241 2.394 . S
O264 C249 1.251 . S
O265 C249 1.251 . S
O265 Eu251 2.374 . S
O266 C250 1.257 . S
O266 Eu251 2.473 . S
O267 C250 1.260 . S
O267 Eu251 2.480 . S
O268 Eu251 2.430 . S
O268 C258 1.259 . S
O269 Eu241 2.355 . S
O269 Eu251 2.670 . S
O269 C258 1.270 . S
O270 Eu251 2.394 . S
O270 C259 1.251 . S
O271 Eu241 2.374 . S
O271 C259 1.251 . S
H272 C243 0.931 . S
H273 C244 0.931 . S
H274 C246 0.931 . S
H275 C247 0.931 . S
H276 C253 0.931 . S
H277 C254 0.931 . S
H278 C256 0.931 . S
H279 C257 0.931 . S
C280 Eu281 2.835 1_455 S
C280 C282 1.500 . S
C280 O300 1.257 . S
C280 O301 1.260 . S
Eu281 C280 2.835 1_655 S
Eu281 O300 2.473 1_655 S
Eu281 O301 2.480 1_655 S
Eu281 O302 2.430 . S
Eu281 O303 2.670 . S
Eu281 O304 2.394 . S
Eu281 O309 2.355 . S
Eu281 O311 2.374 . S
C282 C280 1.500 . S
C282 C283 1.377 . S
C282 C287 1.377 . S
C283 C282 1.377 . S
C283 C284 1.395 . S
C283 H312 0.931 . S
C284 C283 1.395 . S
C284 C285 1.383 . S
C284 H313 0.931 . S
C285 C284 1.383 . S
C285 C286 1.394 . S
C286 C285 1.394 . S
C286 C287 1.378 . S
C286 H314 0.931 . S
C287 C282 1.377 . S
C287 C286 1.378 . S
C287 H315 0.931 . S
C288 O302 1.259 . S
C288 O303 1.270 . S
C289 O304 1.251 . S
C289 O305 1.251 . S
C290 Eu291 2.835 . S
C290 C292 1.500 . S
C290 O306 1.257 . S
C290 O307 1.260 . S
Eu291 C290 2.835 . S
Eu291 O303 2.355 . S
Eu291 O305 2.374 . S
Eu291 O306 2.473 . S
Eu291 O307 2.480 . S
Eu291 O308 2.430 . S
Eu291 O309 2.670 . S
Eu291 O310 2.394 . S
C292 C290 1.500 . S
C292 C293 1.377 . S
C292 C297 1.377 . S
C293 C292 1.377 . S
C293 C294 1.395 . S
C293 H316 0.931 . S
C294 C293 1.395 . S
C294 C295 1.383 . S
C294 H317 0.931 . S
C295 C294 1.383 . S
C295 C296 1.394 . S
C296 C295 1.394 . S
C296 C297 1.378 . S
C296 H318 0.931 . S
C297 C292 1.377 . S
C297 C296 1.378 . S
C297 H319 0.931 . S
C298 O308 1.259 . S
C298 O309 1.270 . S
C299 O310 1.251 . S
C299 O311 1.251 . S
O300 C280 1.257 . S
O300 Eu281 2.473 1_455 S
O301 C280 1.260 . S
O301 Eu281 2.480 1_455 S
O302 Eu281 2.430 . S
O302 C288 1.259 . S
O303 Eu281 2.670 . S
O303 C288 1.270 . S
O303 Eu291 2.355 . S
O304 Eu281 2.394 . S
O304 C289 1.251 . S
O305 C289 1.251 . S
O305 Eu291 2.374 . S
O306 C290 1.257 . S
O306 Eu291 2.473 . S
O307 C290 1.260 . S
O307 Eu291 2.480 . S
O308 Eu291 2.430 . S
O308 C298 1.259 . S
O309 Eu281 2.355 . S
O309 Eu291 2.670 . S
O309 C298 1.270 . S
O310 Eu291 2.394 . S
O310 C299 1.251 . S
O311 Eu281 2.374 . S
O311 C299 1.251 . S
H312 C283 0.931 . S
H313 C284 0.931 . S
H314 C286 0.931 . S
H315 C287 0.931 . S
H316 C293 0.931 . S
H317 C294 0.931 . S
H318 C296 0.931 . S
H319 C297 0.931 . S
C320 Eu321 2.835 . S
C320 C322 1.500 . S
C320 O340 1.257 . S
C320 O341 1.260 . S
Eu321 C320 2.835 . S
Eu321 O340 2.473 . S
Eu321 O341 2.480 . S
Eu321 O342 2.430 1_655 S
Eu321 O343 2.670 . S
Eu321 O344 2.394 . S
Eu321 O349 2.355 . S
Eu321 O351 2.374 . S
C322 C320 1.500 . S
C322 C323 1.377 . S
C322 C327 1.377 . S
C323 C322 1.377 . S
C323 C324 1.395 . S
C323 H352 0.931 . S
C324 C323 1.395 . S
C324 C325 1.383 . S
C324 H353 0.931 . S
C325 C324 1.383 . S
C325 C326 1.394 . S
C326 C325 1.394 . S
C326 C327 1.378 . S
C326 H354 0.931 . S
C327 C322 1.377 . S
C327 C326 1.378 . S
C327 H355 0.931 . S
C328 O342 1.259 . S
C328 O343 1.270 1_455 S
C329 O344 1.251 . S
C329 O345 1.251 . S
C330 Eu331 2.835 . S
C330 C332 1.500 . S
C330 O346 1.257 . S
C330 O347 1.260 . S
Eu331 C330 2.835 . S
Eu331 O343 2.355 . S
Eu331 O345 2.374 . S
Eu331 O346 2.473 . S
Eu331 O347 2.480 . S
Eu331 O348 2.430 . S
Eu331 O349 2.670 . S
Eu331 O350 2.394 . S
C332 C330 1.500 . S
C332 C333 1.377 . S
C332 C337 1.377 1_655 S
C333 C332 1.377 . S
C333 C334 1.395 . S
C333 H356 0.931 . S
C334 C333 1.395 . S
C334 C335 1.383 1_655 S
C334 H357 0.931 . S
C335 C334 1.383 1_455 S
C335 C336 1.394 . S
C336 C335 1.394 . S
C336 C337 1.378 . S
C336 H358 0.931 . S
C337 C332 1.377 1_455 S
C337 C336 1.378 . S
C337 H359 0.931 . S
C338 O348 1.259 . S
C338 O349 1.270 . S
C339 O350 1.251 . S
C339 O351 1.251 . S
O340 C320 1.257 . S
O340 Eu321 2.473 . S
O341 C320 1.260 . S
O341 Eu321 2.480 . S
O342 Eu321 2.430 1_455 S
O342 C328 1.259 . S
O343 Eu321 2.670 . S
O343 C328 1.270 1_655 S
O343 Eu331 2.355 . S
O344 Eu321 2.394 . S
O344 C329 1.251 . S
O345 C329 1.251 . S
O345 Eu331 2.374 . S
O346 C330 1.257 . S
O346 Eu331 2.473 . S
O347 C330 1.260 . S
O347 Eu331 2.480 . S
O348 Eu331 2.430 . S
O348 C338 1.259 . S
O349 Eu321 2.355 . S
O349 Eu331 2.670 . S
O349 C338 1.270 . S
O350 Eu331 2.394 . S
O350 C339 1.251 . S
O351 Eu321 2.374 . S
O351 C339 1.251 . S
H352 C323 0.931 . S
H353 C324 0.931 . S
H354 C326 0.931 . S
H355 C327 0.931 . S
H356 C333 0.931 . S
H357 C334 0.931 . S
H358 C336 0.931 . S
H359 C337 0.931 . S
H360 C368 0.929 . S
H361 C370 0.930 . S
H362 C372 0.930 . S
H363 C375 0.929 . S
H364 C378 0.930 . S
H365 C380 0.960 . S
H366 C380 0.960 . S
H367 C380 0.960 . S
C368 H360 0.929 . S
C368 C369 1.377 . S
C368 C370 1.384 . S
C369 C368 1.377 . S
C369 C375 1.390 . S
C370 H361 0.930 . S
C370 C368 1.384 . S
C370 C371 1.372 . S
C371 C370 1.372 . S
C371 C372 1.400 . S
C371 C376 1.490 . S
C372 H362 0.930 . S
C372 C371 1.400 . S
C372 C375 1.386 . S
H373 C389 0.930 . S
H374 C390 0.931 . S
C375 H363 0.929 . S
C375 C369 1.390 . S
C375 C372 1.386 . S
C376 C371 1.490 . S
C376 C378 1.395 . S
C376 C379 1.403 . S
H377 C383 0.930 . S
C378 H364 0.930 . S
C378 C376 1.395 . S
C378 C381 1.403 . S
C379 C376 1.403 . S
C379 C380 1.524 . S
C379 C383 1.400 . S
C380 H365 0.960 . S
C380 H366 0.960 . S
C380 H367 0.960 . S
C380 C379 1.524 . S
C381 C378 1.403 . S
C381 C382 1.392 . S
C381 C385 1.495 . S
C382 C381 1.392 . S
C382 C383 1.385 . S
C382 C384 1.478 . S
C383 H377 0.930 . S
C383 C379 1.400 . S
C383 C382 1.385 . S
C384 C382 1.478 . S
C384 C386 1.381 . S
C384 C390 1.383 . S
C385 C381 1.495 . S
C385 H391 0.959 . S
C385 H392 0.961 . S
C385 H393 0.960 . S
C386 C384 1.381 . S
C386 C387 1.394 . S
C386 H394 0.930 . S
C387 C386 1.394 . S
C387 C388 1.383 . S
C387 H395 0.929 . S
C388 C387 1.383 . S
C388 C389 1.377 . S
C389 H373 0.930 . S
C389 C388 1.377 . S
C389 C390 1.379 . S
C390 H374 0.931 . S
C390 C384 1.383 . S
C390 C389 1.379 . S
H391 C385 0.959 . S
H392 C385 0.961 . S
H393 C385 0.960 . S
H394 C386 0.930 . S
H395 C387 0.929 . S
H396 C404 0.929 . S
H397 C406 0.930 . S
H398 C408 0.930 . S
H399 C411 0.929 . S
H400 C414 0.930 . S
H401 C416 0.960 . S
H402 C416 0.960 . S
H403 C416 0.960 . S
C404 H396 0.929 . S
C404 C405 1.377 . S
C404 C406 1.384 . S
C405 C404 1.377 . S
C405 C411 1.390 . S
C406 H397 0.930 . S
C406 C404 1.384 . S
C406 C407 1.372 . S
C407 C406 1.372 . S
C407 C408 1.400 . S
C407 C412 1.490 . S
C408 H398 0.930 . S
C408 C407 1.400 . S
C408 C411 1.386 . S
H409 C425 0.930 . S
H410 C426 0.931 . S
C411 H399 0.929 . S
C411 C405 1.390 . S
C411 C408 1.386 . S
C412 C407 1.490 . S
C412 C414 1.395 . S
C412 C415 1.403 . S
H413 C419 0.930 . S
C414 H400 0.930 . S
C414 C412 1.395 . S
C414 C417 1.403 . S
C415 C412 1.403 . S
C415 C416 1.524 . S
C415 C419 1.400 . S
C416 H401 0.960 . S
C416 H402 0.960 . S
C416 H403 0.960 . S
C416 C415 1.524 . S
C417 C414 1.403 . S
C417 C418 1.392 . S
C417 C421 1.495 . S
C418 C417 1.392 . S
C418 C419 1.385 . S
C418 C420 1.478 . S
C419 H413 0.930 . S
C419 C415 1.400 . S
C419 C418 1.385 . S
C420 C418 1.478 . S
C420 C422 1.381 . S
C420 C426 1.383 . S
C421 C417 1.495 . S
C421 H427 0.959 . S
C421 H428 0.961 . S
C421 H429 0.960 . S
C422 C420 1.381 . S
C422 C423 1.394 . S
C422 H430 0.930 . S
C423 C422 1.394 . S
C423 C424 1.383 . S
C423 H431 0.929 . S
C424 C423 1.383 . S
C424 C425 1.377 . S
C425 H409 0.930 . S
C425 C424 1.377 . S
C425 C426 1.379 . S
C426 H410 0.931 . S
C426 C420 1.383 . S
C426 C425 1.379 . S
H427 C421 0.959 . S
H428 C421 0.961 . S
H429 C421 0.960 . S
H430 C422 0.930 . S
H431 C423 0.929 . S
H432 C440 0.929 . S
H433 C442 0.930 . S
H434 C444 0.930 . S
H435 C447 0.929 . S
H436 C450 0.930 . S
H437 C452 0.960 . S
H438 C452 0.960 . S
H439 C452 0.960 . S
C440 H432 0.929 . S
C440 C441 1.377 . S
C440 C442 1.384 . S
C441 C440 1.377 . S
C441 C447 1.390 . S
C442 H433 0.930 . S
C442 C440 1.384 . S
C442 C443 1.372 . S
C443 C442 1.372 . S
C443 C444 1.400 . S
C443 C448 1.490 . S
C444 H434 0.930 . S
C444 C443 1.400 . S
C444 C447 1.386 . S
H445 C461 0.930 . S
H446 C462 0.931 . S
C447 H435 0.929 . S
C447 C441 1.390 . S
C447 C444 1.386 . S
C448 C443 1.490 . S
C448 C450 1.395 . S
C448 C451 1.403 . S
H449 C455 0.930 1_565 S
C450 H436 0.930 . S
C450 C448 1.395 . S
C450 C453 1.403 . S
C451 C448 1.403 . S
C451 C452 1.524 1_545 S
C451 C455 1.400 . S
C452 H437 0.960 . S
C452 H438 0.960 . S
C452 H439 0.960 . S
C452 C451 1.524 1_565 S
C453 C450 1.403 . S
C453 C454 1.392 . S
C453 C457 1.495 . S
C454 C453 1.392 . S
C454 C455 1.385 . S
C454 C456 1.478 . S
C455 H449 0.930 1_545 S
C455 C451 1.400 . S
C455 C454 1.385 . S
C456 C454 1.478 . S
C456 C458 1.381 . S
C456 C462 1.383 . S
C457 C453 1.495 . S
C457 H463 0.959 . S
C457 H464 0.961 . S
C457 H465 0.960 . S
C458 C456 1.381 . S
C458 C459 1.394 . S
C458 H466 0.930 . S
C459 C458 1.394 . S
C459 C460 1.383 . S
C459 H467 0.929 . S
C460 C459 1.383 . S
C460 C461 1.377 . S
C461 H445 0.930 . S
C461 C460 1.377 . S
C461 C462 1.379 . S
C462 H446 0.931 . S
C462 C456 1.383 . S
C462 C461 1.379 . S
H463 C457 0.959 . S
H464 C457 0.961 . S
H465 C457 0.960 . S
H466 C458 0.930 . S
H467 C459 0.929 . S
H468 C476 0.929 . S
H469 C478 0.930 . S
H470 C480 0.930 . S
H471 C483 0.929 . S
H472 C486 0.930 . S
H473 C488 0.960 . S
H474 C488 0.960 . S
H475 C488 0.960 . S
C476 H468 0.929 . S
C476 C477 1.377 . S
C476 C478 1.384 . S
C477 C476 1.377 . S
C477 C483 1.390 . S
C478 H469 0.930 . S
C478 C476 1.384 . S
C478 C479 1.372 . S
C479 C478 1.372 . S
C479 C480 1.400 . S
C479 C484 1.490 . S
C480 H470 0.930 . S
C480 C479 1.400 . S
C480 C483 1.386 . S
H481 C497 0.930 . S
H482 C498 0.931 . S
C483 H471 0.929 . S
C483 C477 1.390 . S
C483 C480 1.386 . S
C484 C479 1.490 . S
C484 C486 1.395 . S
C484 C487 1.403 . S
H485 C491 0.930 . S
C486 H472 0.930 . S
C486 C484 1.395 . S
C486 C489 1.403 . S
C487 C484 1.403 . S
C487 C488 1.524 . S
C487 C491 1.400 . S
C488 H473 0.960 . S
C488 H474 0.960 . S
C488 H475 0.960 . S
C488 C487 1.524 . S
C489 C486 1.403 . S
C489 C490 1.392 . S
C489 C493 1.495 . S
C490 C489 1.392 . S
C490 C491 1.385 . S
C490 C492 1.478 . S
C491 H485 0.930 . S
C491 C487 1.400 . S
C491 C490 1.385 . S
C492 C490 1.478 . S
C492 C494 1.381 . S
C492 C498 1.383 . S
C493 C489 1.495 . S
C493 H499 0.959 . S
C493 H500 0.961 . S
C493 H501 0.960 . S
C494 C492 1.381 . S
C494 C495 1.394 1_556 S
C494 H502 0.930 . S
C495 C494 1.394 1_554 S
C495 C496 1.383 . S
C495 H503 0.929 . S
C496 C495 1.383 . S
C496 C497 1.377 . S
C497 H481 0.930 . S
C497 C496 1.377 . S
C497 C498 1.379 1_554 S
C498 H482 0.931 . S
C498 C492 1.383 . S
C498 C497 1.379 1_556 S
H499 C493 0.959 . S
H500 C493 0.961 . S
H501 C493 0.960 . S
H502 C494 0.930 . S
H503 C495 0.929 . S
H504 C512 0.929 . S
H505 C514 0.930 . S
H506 C516 0.930 . S
H507 C519 0.929 . S
H508 C522 0.930 . S
H509 C524 0.960 . S
H510 C524 0.960 . S
H511 C524 0.960 . S
C512 H504 0.929 . S
C512 C513 1.377 . S
C512 C514 1.384 . S
C513 C512 1.377 . S
C513 C519 1.390 . S
C514 H505 0.930 . S
C514 C512 1.384 . S
C514 C515 1.372 . S
C515 C514 1.372 . S
C515 C516 1.400 . S
C515 C520 1.490 . S
C516 H506 0.930 . S
C516 C515 1.400 . S
C516 C519 1.386 . S
H517 C533 0.930 . S
H518 C534 0.931 . S
C519 H507 0.929 . S
C519 C513 1.390 . S
C519 C516 1.386 . S
C520 C515 1.490 . S
C520 C522 1.395 . S
C520 C523 1.403 . S
H521 C527 0.930 . S
C522 H508 0.930 . S
C522 C520 1.395 . S
C522 C525 1.403 . S
C523 C520 1.403 . S
C523 C524 1.524 . S
C523 C527 1.400 . S
C524 H509 0.960 . S
C524 H510 0.960 . S
C524 H511 0.960 . S
C524 C523 1.524 . S
C525 C522 1.403 . S
C525 C526 1.392 . S
C525 C529 1.495 . S
C526 C525 1.392 . S
C526 C527 1.385 . S
C526 C528 1.478 . S
C527 H521 0.930 . S
C527 C523 1.400 . S
C527 C526 1.385 . S
C528 C526 1.478 . S
C528 C530 1.381 . S
C528 C534 1.383 . S
C529 C525 1.495 . S
C529 H535 0.959 . S
C529 H536 0.961 . S
C529 H537 0.960 . S
C530 C528 1.381 . S
C530 C531 1.394 1_556 S
C530 H538 0.930 . S
C531 C530 1.394 1_554 S
C531 C532 1.383 . S
C531 H539 0.929 . S
C532 C531 1.383 . S
C532 C533 1.377 . S
C533 H517 0.930 . S
C533 C532 1.377 . S
C533 C534 1.379 1_554 S
C534 H518 0.931 . S
C534 C528 1.383 . S
C534 C533 1.379 1_556 S
H535 C529 0.959 . S
H536 C529 0.961 . S
H537 C529 0.960 . S
H538 C530 0.930 . S
H539 C531 0.929 . S
H540 C548 0.929 . S
H541 C550 0.930 . S
H542 C552 0.930 . S
H543 C555 0.929 . S
H544 C558 0.930 . S
H545 C560 0.960 . S
H546 C560 0.960 . S
H547 C560 0.960 . S
C548 H540 0.929 . S
C548 C549 1.377 . S
C548 C550 1.384 . S
C549 C548 1.377 . S
C549 C555 1.390 . S
C550 H541 0.930 . S
C550 C548 1.384 . S
C550 C551 1.372 . S
C551 C550 1.372 . S
C551 C552 1.400 . S
C551 C556 1.490 . S
C552 H542 0.930 . S
C552 C551 1.400 . S
C552 C555 1.386 . S
H553 C569 0.930 . S
H554 C570 0.931 . S
C555 H543 0.929 . S
C555 C549 1.390 . S
C555 C552 1.386 . S
C556 C551 1.490 . S
C556 C558 1.395 . S
C556 C559 1.403 . S
H557 C563 0.930 . S
C558 H544 0.930 . S
C558 C556 1.395 . S
C558 C561 1.403 . S
C559 C556 1.403 . S
C559 C560 1.524 . S
C559 C563 1.400 . S
C560 H545 0.960 . S
C560 H546 0.960 . S
C560 H547 0.960 . S
C560 C559 1.524 . S
C561 C558 1.403 . S
C561 C562 1.392 . S
C561 C565 1.495 . S
C562 C561 1.392 . S
C562 C563 1.385 . S
C562 C564 1.478 . S
C563 H557 0.930 . S
C563 C559 1.400 . S
C563 C562 1.385 . S
C564 C562 1.478 . S
C564 C566 1.381 . S
C564 C570 1.383 . S
C565 C561 1.495 . S
C565 H571 0.959 . S
C565 H572 0.961 . S
C565 H573 0.960 . S
C566 C564 1.381 . S
C566 C567 1.394 1_556 S
C566 H574 0.930 . S
C567 C566 1.394 1_554 S
C567 C568 1.383 . S
C567 H575 0.929 . S
C568 C567 1.383 . S
C568 C569 1.377 . S
C569 H553 0.930 . S
C569 C568 1.377 . S
C569 C570 1.379 1_554 S
C570 H554 0.931 . S
C570 C564 1.383 . S
C570 C569 1.379 1_556 S
H571 C565 0.959 . S
H572 C565 0.961 . S
H573 C565 0.960 . S
H574 C566 0.930 . S
H575 C567 0.929 . S
H576 C584 0.929 . S
H577 C586 0.930 . S
H578 C588 0.930 . S
H579 C591 0.929 . S
H580 C594 0.930 . S
H581 C596 0.960 . S
H582 C596 0.960 . S
H583 C596 0.960 . S
C584 H576 0.929 . S
C584 C585 1.377 . S
C584 C586 1.384 . S
C585 C584 1.377 . S
C585 C591 1.390 . S
C586 H577 0.930 . S
C586 C584 1.384 . S
C586 C587 1.372 . S
C587 C586 1.372 . S
C587 C588 1.400 . S
C587 C592 1.490 . S
C588 H578 0.930 . S
C588 C587 1.400 . S
C588 C591 1.386 . S
H589 C605 0.930 . S
H590 C606 0.931 . S
C591 H579 0.929 . S
C591 C585 1.390 . S
C591 C588 1.386 . S
C592 C587 1.490 . S
C592 C594 1.395 . S
C592 C595 1.403 . S
H593 C599 0.930 . S
C594 H580 0.930 . S
C594 C592 1.395 . S
C594 C597 1.403 . S
C595 C592 1.403 . S
C595 C596 1.524 . S
C595 C599 1.400 . S
C596 H581 0.960 . S
C596 H582 0.960 . S
C596 H583 0.960 . S
C596 C595 1.524 . S
C597 C594 1.403 . S
C597 C598 1.392 . S
C597 C601 1.495 . S
C598 C597 1.392 . S
C598 C599 1.385 . S
C598 C600 1.478 . S
C599 H593 0.930 . S
C599 C595 1.400 . S
C599 C598 1.385 . S
C600 C598 1.478 . S
C600 C602 1.381 1_554 S
C600 C606 1.383 . S
C601 C597 1.495 . S
C601 H607 0.959 . S
C601 H608 0.961 . S
C601 H609 0.960 . S
C602 C600 1.381 1_556 S
C602 C603 1.394 . S
C602 H610 0.930 1_556 S
C603 C602 1.394 . S
C603 C604 1.383 . S
C603 H611 0.929 . S
C604 C603 1.383 . S
C604 C605 1.377 . S
C605 H589 0.930 . S
C605 C604 1.377 . S
C605 C606 1.379 1_556 S
C606 H590 0.931 . S
C606 C600 1.383 . S
C606 C605 1.379 1_554 S
H607 C601 0.959 . S
H608 C601 0.961 . S
H609 C601 0.960 . S
H610 C602 0.930 1_554 S
H611 C603 0.929 . S
H612 C620 0.929 . S
H613 C622 0.930 . S
H614 C624 0.901 1_455 S
H615 C627 0.929 1_455 S
H616 C630 0.930 . S
H617 C632 0.960 . S
H618 C632 0.960 . S
H619 C632 0.960 . S
C620 H612 0.929 . S
C620 C621 1.377 . S
C620 C622 1.384 . S
C621 C620 1.377 . S
C621 C627 1.390 . S
C622 H613 0.930 . S
C622 C620 1.384 . S
C622 C623 1.372 . S
C623 C622 1.372 . S
C623 C624 1.400 . S
C623 C628 1.490 . S
C624 H614 0.901 1_655 S
C624 C623 1.400 . S
C624 C627 1.386 . S
H625 C641 0.930 . S
H626 C642 0.931 1_554 S
C627 H615 0.929 1_655 S
C627 C621 1.390 . S
C627 C624 1.386 . S
C628 C623 1.490 . S
C628 C630 1.395 . S
C628 C631 1.403 . S
H629 C635 0.930 . S
C630 H616 0.930 . S
C630 C628 1.395 . S
C630 C633 1.403 . S
C631 C628 1.403 . S
C631 C632 1.524 . S
C631 C635 1.400 . S
C632 H617 0.960 . S
C632 H618 0.960 . S
C632 H619 0.960 . S
C632 C631 1.524 . S
C633 C630 1.403 . S
C633 C634 1.392 . S
C633 C637 1.495 . S
C634 C633 1.392 . S
C634 C635 1.385 . S
C634 C636 1.478 . S
C635 H629 0.930 . S
C635 C631 1.400 . S
C635 C634 1.385 . S
C636 C634 1.478 . S
C636 C638 1.381 . S
C636 C642 1.383 1_554 S
C637 C633 1.495 . S
C637 H643 0.959 . S
C637 H644 0.961 . S
C637 H645 0.960 . S
C638 C636 1.381 . S
C638 C639 1.394 1_554 S
C638 H646 0.930 . S
C639 C638 1.394 1_556 S
C639 C640 1.383 . S
C639 H647 0.929 . S
C640 C639 1.383 . S
C640 C641 1.377 . S
C641 H625 0.930 . S
C641 C640 1.377 . S
C641 C642 1.379 . S
C642 H626 0.931 1_556 S
C642 C636 1.383 1_556 S
C642 C641 1.379 . S
H643 C637 0.959 . S
H644 C637 0.961 . S
H645 C637 0.960 . S
H646 C638 0.930 . S
H647 C639 0.929 . S
H648 C656 0.929 . S
H649 C658 0.930 . S
H650 C660 0.930 . S
H651 C663 0.929 . S
H652 C666 0.930 . S
H653 C668 0.960 . S
H654 C668 0.960 . S
H655 C668 0.960 . S
C656 H648 0.929 . S
C656 C657 1.377 . S
C656 C658 1.384 . S
C657 C656 1.377 . S
C657 C663 1.390 . S
C658 H649 0.930 . S
C658 C656 1.384 . S
C658 C659 1.372 . S
C659 C658 1.372 . S
C659 C660 1.400 . S
C659 C664 1.490 . S
C660 H650 0.930 . S
C660 C659 1.400 . S
C660 C663 1.386 . S
H661 C677 0.930 . S
H662 C678 0.931 1_554 S
C663 H651 0.929 . S
C663 C657 1.390 . S
C663 C660 1.386 . S
C664 C659 1.490 . S
C664 C666 1.395 . S
C664 C667 1.403 . S
H665 C671 0.930 . S
C666 H652 0.930 . S
C666 C664 1.395 . S
C666 C669 1.403 . S
C667 C664 1.403 . S
C667 C668 1.524 . S
C667 C671 1.400 . S
C668 H653 0.960 . S
C668 H654 0.960 . S
C668 H655 0.960 . S
C668 C667 1.524 . S
C669 C666 1.403 . S
C669 C670 1.392 . S
C669 C673 1.495 . S
C670 C669 1.392 . S
C670 C671 1.385 . S
C670 C672 1.478 . S
C671 H665 0.930 . S
C671 C667 1.400 . S
C671 C670 1.385 . S
C672 C670 1.478 . S
C672 C674 1.381 . S
C672 C678 1.383 1_554 S
C673 C669 1.495 . S
C673 H679 0.959 . S
C673 H680 0.961 . S
C673 H681 0.960 . S
C674 C672 1.381 . S
C674 C675 1.394 1_554 S
C674 H682 0.930 . S
C675 C674 1.394 1_556 S
C675 C676 1.383 . S
C675 H683 0.929 . S
C676 C675 1.383 . S
C676 C677 1.377 . S
C677 H661 0.930 . S
C677 C676 1.377 . S
C677 C678 1.379 . S
C678 H662 0.931 1_556 S
C678 C672 1.383 1_556 S
C678 C677 1.379 . S
H679 C673 0.959 . S
H680 C673 0.961 . S
H681 C673 0.960 . S
H682 C674 0.930 . S
H683 C675 0.929 . S
H684 C692 0.929 . S
H685 C694 0.930 . S
H686 C696 0.930 . S
H687 C699 0.929 . S
H688 C702 0.930 . S
H689 C704 0.960 . S
H690 C704 0.960 . S
H691 C704 0.960 . S
C692 H684 0.929 . S
C692 C693 1.377 . S
C692 C694 1.384 . S
C693 C692 1.377 . S
C693 C699 1.390 . S
C694 H685 0.930 . S
C694 C692 1.384 . S
C694 C695 1.372 . S
C695 C694 1.372 . S
C695 C696 1.400 . S
C695 C700 1.490 . S
C696 H686 0.930 . S
C696 C695 1.400 . S
C696 C699 1.386 . S
H697 C713 0.930 . S
H698 C714 0.931 . S
C699 H687 0.929 . S
C699 C693 1.390 . S
C699 C696 1.386 . S
C700 C695 1.490 . S
C700 C702 1.395 . S
C700 C703 1.403 . S
H701 C707 0.930 . S
C702 H688 0.930 . S
C702 C700 1.395 . S
C702 C705 1.403 . S
C703 C700 1.403 . S
C703 C704 1.524 . S
C703 C707 1.400 . S
C704 H689 0.960 . S
C704 H690 0.960 . S
C704 H691 0.960 . S
C704 C703 1.524 . S
C705 C702 1.403 . S
C705 C706 1.392 . S
C705 C709 1.495 . S
C706 C705 1.392 . S
C706 C707 1.385 . S
C706 C708 1.478 . S
C707 H701 0.930 . S
C707 C703 1.400 . S
C707 C706 1.385 . S
C708 C706 1.478 . S
C708 C710 1.381 . S
C708 C714 1.383 . S
C709 C705 1.495 . S
C709 H715 0.959 . S
C709 H716 0.961 . S
C709 H717 0.960 . S
C710 C708 1.381 . S
C710 C711 1.394 . S
C710 H718 0.930 . S
C711 C710 1.394 . S
C711 C712 1.383 . S
C711 H719 0.929 . S
C712 C711 1.383 . S
C712 C713 1.377 . S
C713 H697 0.930 . S
C713 C712 1.377 . S
C713 C714 1.379 . S
C714 H698 0.931 . S
C714 C708 1.383 . S
C714 C713 1.379 . S
H715 C709 0.959 . S
H716 C709 0.961 . S
H717 C709 0.960 . S
H718 C710 0.930 . S
H719 C711 0.929 . S
H720 C728 0.929 . S
H721 C730 0.930 . S
H722 C732 0.930 . S
H723 C735 0.929 . S
H724 C738 0.930 . S
H725 C740 0.960 . S
H726 C740 0.960 . S
H727 C740 0.960 . S
C728 H720 0.929 . S
C728 C729 1.377 . S
C728 C730 1.384 . S
C729 C728 1.377 . S
C729 C735 1.390 . S
C730 H721 0.930 . S
C730 C728 1.384 . S
C730 C731 1.372 . S
C731 C730 1.372 . S
C731 C732 1.400 . S
C731 C736 1.490 . S
C732 H722 0.930 . S
C732 C731 1.400 . S
C732 C735 1.386 . S
H733 C749 0.930 . S
H734 C750 0.931 . S
C735 H723 0.929 . S
C735 C729 1.390 . S
C735 C732 1.386 . S
C736 C731 1.490 . S
C736 C738 1.395 . S
C736 C739 1.403 . S
H737 C743 0.930 . S
C738 H724 0.930 . S
C738 C736 1.395 . S
C738 C741 1.403 . S
C739 C736 1.403 . S
C739 C740 1.524 . S
C739 C743 1.400 . S
C740 H725 0.960 . S
C740 H726 0.960 . S
C740 H727 0.960 . S
C740 C739 1.524 . S
C741 C738 1.403 . S
C741 C742 1.392 . S
C741 C745 1.495 . S
C742 C741 1.392 . S
C742 C743 1.385 . S
C742 C744 1.478 . S
C743 H737 0.930 . S
C743 C739 1.400 . S
C743 C742 1.385 . S
C744 C742 1.478 . S
C744 C746 1.381 . S
C744 C750 1.383 . S
C745 C741 1.495 . S
C745 H751 0.959 . S
C745 H752 0.961 . S
C745 H753 0.960 . S
C746 C744 1.381 . S
C746 C747 1.394 . S
C746 H754 0.930 . S
C747 C746 1.394 . S
C747 C748 1.383 . S
C747 H755 0.929 . S
C748 C747 1.383 . S
C748 C749 1.377 . S
C749 H733 0.930 . S
C749 C748 1.377 . S
C749 C750 1.379 . S
C750 H734 0.931 . S
C750 C744 1.383 . S
C750 C749 1.379 . S
H751 C745 0.959 . S
H752 C745 0.961 . S
H753 C745 0.960 . S
H754 C746 0.930 . S
H755 C747 0.929 . S
H756 C764 0.929 . S
H757 C766 0.930 . S
H758 C768 0.930 . S
H759 C771 0.929 . S
H760 C774 0.930 . S
H761 C776 0.960 . S
H762 C776 0.960 . S
H763 C776 0.960 . S
C764 H756 0.929 . S
C764 C765 1.377 . S
C764 C766 1.384 . S
C765 C764 1.377 . S
C765 C771 1.390 . S
C766 H757 0.930 . S
C766 C764 1.384 . S
C766 C767 1.372 . S
C767 C766 1.372 . S
C767 C768 1.400 . S
C767 C772 1.490 . S
C768 H758 0.930 . S
C768 C767 1.400 . S
C768 C771 1.386 . S
H769 C785 0.930 . S
H770 C786 0.931 . S
C771 H759 0.929 . S
C771 C765 1.390 . S
C771 C768 1.386 . S
C772 C767 1.490 . S
C772 C774 1.395 . S
C772 C775 1.403 . S
H773 C779 0.930 . S
C774 H760 0.930 . S
C774 C772 1.395 . S
C774 C777 1.403 . S
C775 C772 1.403 . S
C775 C776 1.524 . S
C775 C779 1.400 . S
C776 H761 0.960 . S
C776 H762 0.960 . S
C776 H763 0.960 . S
C776 C775 1.524 . S
C777 C774 1.403 . S
C777 C778 1.392 . S
C777 C781 1.495 . S
C778 C777 1.392 . S
C778 C779 1.385 . S
C778 C780 1.478 . S
C779 H773 0.930 . S
C779 C775 1.400 . S
C779 C778 1.385 . S
C780 C778 1.478 . S
C780 C782 1.381 . S
C780 C786 1.383 . S
C781 C777 1.495 . S
C781 H787 0.959 . S
C781 H788 0.961 . S
C781 H789 0.960 . S
C782 C780 1.381 . S
C782 C783 1.394 . S
C782 H790 0.930 . S
C783 C782 1.394 . S
C783 C784 1.383 . S
C783 H791 0.929 . S
C784 C783 1.383 . S
C784 C785 1.377 . S
C785 H769 0.930 . S
C785 C784 1.377 . S
C785 C786 1.379 . S
C786 H770 0.931 . S
C786 C780 1.383 . S
C786 C785 1.379 . S
H787 C781 0.959 . S
H788 C781 0.961 . S
H789 C781 0.960 . S
H790 C782 0.930 . S
H791 C783 0.929 . S
H792 C800 0.929 . S
H793 C802 0.930 . S
H794 C804 0.930 . S
H795 C807 0.929 . S
H796 C810 0.930 . S
H797 C812 0.960 . S
H798 C812 0.960 . S
H799 C812 0.960 . S
C800 H792 0.929 . S
C800 C801 1.377 1_556 S
C800 C802 1.384 . S
C801 C800 1.377 1_554 S
C801 C807 1.390 . S
C802 H793 0.930 . S
C802 C800 1.384 . S
C802 C803 1.372 . S
C803 C802 1.372 . S
C803 C804 1.400 1_556 S
C803 C808 1.490 . S
C804 H794 0.930 . S
C804 C803 1.400 1_554 S
C804 C807 1.386 . S
H805 C821 0.930 . S
H806 C822 0.931 . S
C807 H795 0.929 . S
C807 C801 1.390 . S
C807 C804 1.386 . S
C808 C803 1.490 . S
C808 C810 1.395 . S
C808 C811 1.403 . S
H809 C815 0.930 . S
C810 H796 0.930 . S
C810 C808 1.395 . S
C810 C813 1.403 . S
C811 C808 1.403 . S
C811 C812 1.524 1_556 S
C811 C815 1.400 . S
C812 H797 0.960 . S
C812 H798 0.960 . S
C812 H799 0.960 . S
C812 C811 1.524 1_554 S
C813 C810 1.403 . S
C813 C814 1.392 . S
C813 C817 1.495 . S
C814 C813 1.392 . S
C814 C815 1.385 . S
C814 C816 1.478 . S
C815 H809 0.930 . S
C815 C811 1.400 . S
C815 C814 1.385 . S
C816 C814 1.478 . S
C816 C818 1.381 . S
C816 C822 1.383 . S
C817 C813 1.495 . S
C817 H823 0.959 . S
C817 H824 0.961 . S
C817 H825 0.960 . S
C818 C816 1.381 . S
C818 C819 1.394 . S
C818 H826 0.930 . S
C819 C818 1.394 . S
C819 C820 1.383 . S
C819 H827 0.929 . S
C820 C819 1.383 . S
C820 C821 1.377 . S
C821 H805 0.930 . S
C821 C820 1.377 . S
C821 C822 1.379 . S
C822 H806 0.931 . S
C822 C816 1.383 . S
C822 C821 1.379 . S
H823 C817 0.959 . S
H824 C817 0.961 . S
H825 C817 0.960 . S
H826 C818 0.930 . S
H827 C819 0.929 . S
H828 C836 0.929 . S
H829 C838 0.930 . S
H830 C840 0.930 . S
H831 C843 0.929 1_655 S
H832 C846 0.930 . S
H833 C848 0.960 . S
H834 C848 0.960 . S
H835 C848 0.960 . S
C836 H828 0.929 . S
C836 C837 1.377 . S
C836 C838 1.384 . S
C837 C836 1.377 . S
C837 C843 1.390 . S
C838 H829 0.930 . S
C838 C836 1.384 . S
C838 C839 1.372 . S
C839 C838 1.372 . S
C839 C840 1.400 . S
C839 C844 1.490 . S
C840 H830 0.930 . S
C840 C839 1.400 . S
C840 C843 1.386 . S
H841 C857 0.930 . S
H842 C858 0.931 . S
C843 H831 0.929 1_455 S
C843 C837 1.390 . S
C843 C840 1.386 . S
C844 C839 1.490 . S
C844 C846 1.395 . S
C844 C847 1.403 . S
H845 C851 0.930 . S
C846 H832 0.930 . S
C846 C844 1.395 . S
C846 C849 1.403 . S
C847 C844 1.403 . S
C847 C848 1.524 . S
C847 C851 1.400 . S
C848 H833 0.960 . S
C848 H834 0.960 . S
C848 H835 0.960 . S
C848 C847 1.524 . S
C849 C846 1.403 . S
C849 C850 1.392 . S
C849 C853 1.495 . S
C850 C849 1.392 . S
C850 C851 1.385 . S
C850 C852 1.478 . S
C851 H845 0.930 . S
C851 C847 1.400 . S
C851 C850 1.385 . S
C852 C850 1.478 . S
C852 C854 1.381 . S
C852 C858 1.383 1_556 S
C853 C849 1.495 . S
C853 H859 0.959 . S
C853 H860 0.961 . S
C853 H861 0.960 . S
C854 C852 1.381 . S
C854 C855 1.394 . S
C854 H862 0.930 . S
C855 C854 1.394 . S
C855 C856 1.383 1_556 S
C855 H863 0.929 . S
C856 C855 1.383 1_554 S
C856 C857 1.377 . S
C857 H841 0.930 . S
C857 C856 1.377 . S
C857 C858 1.379 . S
C858 H842 0.931 . S
C858 C852 1.383 1_554 S
C858 C857 1.379 . S
H859 C853 0.959 . S
H860 C853 0.961 . S
H861 C853 0.960 . S
H862 C854 0.930 . S
H863 C855 0.929 . S
H864 C872 0.929 . S
H865 C874 0.930 . S
H866 C876 0.930 . S
H867 C879 0.929 . S
H868 C882 0.930 . S
H869 C884 0.960 . S
H870 C884 0.960 . S
H871 C884 0.960 . S
C872 H864 0.929 . S
C872 C873 1.377 . S
C872 C874 1.384 . S
C873 C872 1.377 . S
C873 C879 1.390 . S
C874 H865 0.930 . S
C874 C872 1.384 . S
C874 C875 1.372 . S
C875 C874 1.372 . S
C875 C876 1.400 . S
C875 C880 1.490 . S
C876 H866 0.930 . S
C876 C875 1.400 . S
C876 C879 1.386 . S
H877 C893 0.930 . S
H878 C894 0.931 . S
C879 H867 0.929 . S
C879 C873 1.390 . S
C879 C876 1.386 . S
C880 C875 1.490 . S
C880 C882 1.395 . S
C880 C883 1.403 . S
H881 C887 0.930 . S
C882 H868 0.930 . S
C882 C880 1.395 . S
C882 C885 1.403 . S
C883 C880 1.403 . S
C883 C884 1.524 . S
C883 C887 1.400 . S
C884 H869 0.960 . S
C884 H870 0.960 . S
C884 H871 0.960 . S
C884 C883 1.524 . S
C885 C882 1.403 . S
C885 C886 1.392 . S
C885 C889 1.495 1_556 S
C886 C885 1.392 . S
C886 C887 1.385 . S
C886 C888 1.478 1_556 S
C887 H881 0.930 . S
C887 C883 1.400 . S
C887 C886 1.385 . S
C888 C886 1.478 1_554 S
C888 C890 1.381 . S
C888 C894 1.383 . S
C889 C885 1.495 1_554 S
C889 H895 0.959 . S
C889 H896 0.961 . S
C889 H897 0.960 . S
C890 C888 1.381 . S
C890 C891 1.394 . S
C890 H898 0.930 . S
C891 C890 1.394 . S
C891 C892 1.383 . S
C891 H899 0.929 . S
C892 C891 1.383 . S
C892 C893 1.377 . S
C893 H877 0.930 . S
C893 C892 1.377 . S
C893 C894 1.379 . S
C894 H878 0.931 . S
C894 C888 1.383 . S
C894 C893 1.379 . S
H895 C889 0.959 . S
H896 C889 0.961 . S
H897 C889 0.960 . S
H898 C890 0.930 . S
H899 C891 0.929 . S
H900 C908 0.929 . S
H901 C910 0.930 . S
H902 C912 0.923 1_655 S
H903 C915 0.929 . S
H904 C918 0.930 . S
H905 C920 0.960 . S
H906 C920 0.960 . S
H907 C920 0.960 1_655 S
C908 H900 0.929 . S
C908 C909 1.377 . S
C908 C910 1.384 . S
C909 C908 1.377 . S
C909 C915 1.390 1_455 S
C910 H901 0.930 . S
C910 C908 1.384 . S
C910 C911 1.372 . S
C911 C910 1.372 . S
C911 C912 1.427 . S
C911 C916 1.490 . S
C912 H902 0.923 1_455 S
C912 C911 1.427 . S
C912 C915 1.365 1_455 S
H913 C929 0.930 . S
H914 C930 0.931 . S
C915 H903 0.929 . S
C915 C909 1.390 1_655 S
C915 C912 1.365 1_655 S
C916 C911 1.490 . S
C916 C918 1.395 1_556 S
C916 C919 1.403 . S
H917 C923 0.930 . S
C918 H904 0.930 . S
C918 C916 1.395 1_554 S
C918 C921 1.403 . S
C919 C916 1.403 . S
C919 C920 1.524 . S
C919 C923 1.400 . S
C920 H905 0.960 . S
C920 H906 0.960 . S
C920 H907 0.960 1_455 S
C920 C919 1.524 . S
C921 C918 1.403 . S
C921 C922 1.392 . S
C921 C925 1.495 . S
C922 C921 1.392 . S
C922 C923 1.385 1_554 S
C922 C924 1.478 . S
C923 H917 0.930 . S
C923 C919 1.400 . S
C923 C922 1.385 1_556 S
C924 C922 1.478 . S
C924 C926 1.381 . S
C924 C930 1.383 . S
C925 C921 1.495 . S
C925 H931 0.959 . S
C925 H932 0.961 . S
C925 H933 0.960 . S
C926 C924 1.381 . S
C926 C927 1.394 . S
C926 H934 0.930 1_554 S
C927 C926 1.394 . S
C927 C928 1.383 . S
C927 H935 0.929 . S
C928 C927 1.383 . S
C928 C929 1.377 . S
C929 H913 0.930 . S
C929 C928 1.377 . S
C929 C930 1.379 . S
C930 H914 0.931 . S
C930 C924 1.383 . S
C930 C929 1.379 . S
H931 C925 0.959 . S
H932 C925 0.961 . S
H933 C925 0.960 . S
H934 C926 0.930 1_556 S
H935 C927 0.929 . S
H936 C944 0.929 . S
H937 C946 0.930 . S
H938 C948 0.930 . S
H939 C951 0.929 . S
H940 C954 0.930 . S
H941 C956 0.960 . S
H942 C956 0.960 . S
H943 C956 0.960 . S
C944 H936 0.929 . S
C944 C945 1.377 1_556 S
C944 C946 1.384 . S
C945 C944 1.377 1_554 S
C945 C951 1.390 . S
C946 H937 0.930 . S
C946 C944 1.384 . S
C946 C947 1.372 1_556 S
C947 C946 1.372 1_554 S
C947 C948 1.400 . S
C947 C952 1.490 1_554 S
C948 H938 0.930 . S
C948 C947 1.400 . S
C948 C951 1.386 . S
H949 C965 0.930 . S
H950 C966 0.931 1_554 S
C951 H939 0.929 . S
C951 C945 1.390 . S
C951 C948 1.386 . S
C952 C947 1.490 1_556 S
C952 C954 1.395 . S
C952 C955 1.403 1_556 S
H953 C959 0.930 1_554 S
C954 H940 0.930 . S
C954 C952 1.395 . S
C954 C957 1.403 . S
C955 C952 1.403 1_554 S
C955 C956 1.524 . S
C955 C959 1.400 1_554 S
C956 H941 0.960 . S
C956 H942 0.960 . S
C956 H943 0.960 . S
C956 C955 1.524 . S
C957 C954 1.403 . S
C957 C958 1.392 . S
C957 C961 1.495 . S
C958 C957 1.392 . S
C958 C959 1.385 . S
C958 C960 1.478 . S
C959 H953 0.930 1_556 S
C959 C955 1.400 1_556 S
C959 C958 1.385 . S
C960 C958 1.478 . S
C960 C962 1.381 . S
C960 C966 1.383 . S
C961 C957 1.495 . S
C961 H967 0.959 . S
C961 H968 0.961 . S
C961 H969 0.960 . S
C962 C960 1.381 . S
C962 C963 1.394 . S
C962 H970 0.930 . S
C963 C962 1.394 . S
C963 C964 1.383 . S
C963 H971 0.929 . S
C964 C963 1.383 . S
C964 C965 1.377 . S
C965 H949 0.930 . S
C965 C964 1.377 . S
C965 C966 1.379 . S
C966 H950 0.931 1_556 S
C966 C960 1.383 . S
C966 C965 1.379 . S
H967 C961 0.959 . S
H968 C961 0.961 . S
H969 C961 0.960 . S
H970 C962 0.930 . S
H971 C963 0.929 . S
H972 C980 0.929 . S
H973 C982 0.930 1_554 S
H974 C984 0.930 . S
H975 C987 0.929 . S
H976 C990 0.930 . S
H977 C992 0.960 . S
H978 C992 0.960 1_554 S
H979 C992 0.960 . S
C980 H972 0.929 . S
C980 C981 1.377 . S
C980 C982 1.384 . S
C981 C980 1.377 . S
C981 C987 1.390 . S
C982 H973 0.930 1_556 S
C982 C980 1.384 . S
C982 C983 1.372 . S
C983 C982 1.372 . S
C983 C984 1.400 . S
C983 C988 1.490 . S
C984 H974 0.930 . S
C984 C983 1.400 . S
C984 C987 1.386 . S
H985 C1001 0.930 . S
H986 C1002 0.931 . S
C987 H975 0.929 . S
C987 C981 1.390 . S
C987 C984 1.386 . S
C988 C983 1.490 . S
C988 C990 1.395 . S
C988 C991 1.403 . S
H989 C995 0.930 1_554 S
C990 H976 0.930 . S
C990 C988 1.395 . S
C990 C993 1.403 . S
C991 C988 1.403 . S
C991 C992 1.524 . S
C991 C995 1.400 . S
C992 H977 0.960 . S
C992 H978 0.960 1_556 S
C992 H979 0.960 . S
C992 C991 1.524 . S
C993 C990 1.403 . S
C993 C994 1.392 . S
C993 C997 1.495 . S
C994 C993 1.392 . S
C994 C995 1.385 . S
C994 C996 1.478 1_556 S
C995 H989 0.930 1_556 S
C995 C991 1.400 . S
C995 C994 1.385 . S
C996 C994 1.478 1_554 S
C996 C998 1.381 . S
C996 C1002 1.383 1_554 S
C997 C993 1.495 . S
C997 H1003 0.959 . S
C997 H1004 0.961 . S
C997 H1005 0.960 1_556 S
C998 C996 1.381 . S
C998 C999 1.394 . S
C998 H1006 0.930 . S
C999 C998 1.394 . S
C999 C1000 1.383 . S
C999 H1007 0.929 . S
C1000 C999 1.383 . S
C1000 C1001 1.377 1_554 S
C1001 H985 0.930 . S
C1001 C1000 1.377 1_556 S
C1001 C1002 1.379 . S
C1002 H986 0.931 . S
C1002 C996 1.383 1_556 S
C1002 C1001 1.379 . S
H1003 C997 0.959 . S
H1004 C997 0.961 . S
H1005 C997 0.960 1_554 S
H1006 C998 0.930 . S
H1007 C999 0.929 . S
H1008 C1016 0.929 . S
H1009 C1018 0.924 1_545 S
H1010 C1020 0.930 . S
H1011 C1023 0.929 . S
H1012 C1026 0.899 1_545 S
H1013 C1028 0.960 . S
H1014 C1028 0.960 . S
H1015 C1028 0.960 . S
C1016 H1008 0.929 . S
C1016 C1017 1.377 1_545 S
C1016 C1018 1.353 1_545 S
C1017 C1016 1.377 1_565 S
C1017 C1023 1.390 . S
C1018 H1009 0.924 1_565 S
C1018 C1016 1.353 1_565 S
C1018 C1019 1.410 . S
C1019 C1018 1.410 . S
C1019 C1020 1.400 . S
C1019 C1024 1.490 . S
C1020 H1010 0.930 . S
C1020 C1019 1.400 . S
C1020 C1023 1.386 . S
H1021 C1037 0.930 . S
H1022 C1038 0.931 . S
C1023 H1011 0.929 . S
C1023 C1017 1.390 . S
C1023 C1020 1.386 . S
C1024 C1019 1.490 . S
C1024 C1026 1.407 . S
C1024 C1027 1.403 . S
H1025 C1031 0.930 . S
C1026 H1012 0.899 1_565 S
C1026 C1024 1.407 . S
C1026 C1029 1.422 . S
C1027 C1024 1.403 . S
C1027 C1028 1.524 . S
C1027 C1031 1.400 . S
C1028 H1013 0.960 . S
C1028 H1014 0.960 . S
C1028 H1015 0.960 . S
C1028 C1027 1.524 . S
C1029 C1026 1.422 . S
C1029 C1030 1.392 . S
C1029 C1033 1.495 1_565 S
C1030 C1029 1.392 . S
C1030 C1031 1.385 . S
C1030 C1032 1.478 . S
C1031 H1025 0.930 . S
C1031 C1027 1.400 . S
C1031 C1030 1.385 . S
C1032 C1030 1.478 . S
C1032 C1034 1.381 . S
C1032 C1038 1.383 . S
C1033 C1029 1.495 1_545 S
C1033 H1039 0.959 . S
C1033 H1040 0.961 . S
C1033 H1041 0.960 . S
C1034 C1032 1.381 . S
C1034 C1035 1.394 . S
C1034 H1042 0.930 . S
C1035 C1034 1.394 . S
C1035 C1036 1.383 . S
C1035 H1043 0.929 . S
C1036 C1035 1.383 . S
C1036 C1037 1.377 . S
C1037 H1021 0.930 . S
C1037 C1036 1.377 . S
C1037 C1038 1.379 . S
C1038 H1022 0.931 . S
C1038 C1032 1.383 . S
C1038 C1037 1.379 . S
H1039 C1033 0.959 . S
H1040 C1033 0.961 . S
H1041 C1033 0.960 . S
H1042 C1034 0.930 . S
H1043 C1035 0.929 . S
H1044 C1052 0.929 . S
H1045 C1054 0.930 . S
H1046 C1056 0.930 . S
H1047 C1059 0.929 . S
H1048 C1062 0.930 . S
H1049 C1064 0.960 . S
H1050 C1064 0.960 . S
H1051 C1064 0.960 . S
C1052 H1044 0.929 . S
C1052 C1053 1.377 . S
C1052 C1054 1.384 . S
C1053 C1052 1.377 . S
C1053 C1059 1.390 . S
C1054 H1045 0.930 . S
C1054 C1052 1.384 . S
C1054 C1055 1.372 . S
C1055 C1054 1.372 . S
C1055 C1056 1.400 . S
C1055 C1060 1.490 . S
C1056 H1046 0.930 . S
C1056 C1055 1.400 . S
C1056 C1059 1.386 . S
H1057 C1073 0.930 . S
H1058 C1074 0.931 . S
C1059 H1047 0.929 . S
C1059 C1053 1.390 . S
C1059 C1056 1.386 . S
C1060 C1055 1.490 . S
C1060 C1062 1.395 . S
C1060 C1063 1.403 . S
H1061 C1067 0.930 . S
C1062 H1048 0.930 . S
C1062 C1060 1.395 . S
C1062 C1065 1.403 . S
C1063 C1060 1.403 . S
C1063 C1064 1.524 . S
C1063 C1067 1.400 . S
C1064 H1049 0.960 . S
C1064 H1050 0.960 . S
C1064 H1051 0.960 . S
C1064 C1063 1.524 . S
C1065 C1062 1.403 . S
C1065 C1066 1.392 . S
C1065 C1069 1.495 . S
C1066 C1065 1.392 . S
C1066 C1067 1.385 . S
C1066 C1068 1.478 . S
C1067 H1061 0.930 . S
C1067 C1063 1.400 . S
C1067 C1066 1.385 . S
C1068 C1066 1.478 . S
C1068 C1070 1.381 . S
C1068 C1074 1.383 . S
C1069 C1065 1.495 . S
C1069 H1075 0.959 . S
C1069 H1076 0.961 . S
C1069 H1077 0.960 . S
C1070 C1068 1.381 . S
C1070 C1071 1.394 . S
C1070 H1078 0.930 . S
C1071 C1070 1.394 . S
C1071 C1072 1.383 . S
C1071 H1079 0.929 . S
C1072 C1071 1.383 . S
C1072 C1073 1.377 . S
C1073 H1057 0.930 . S
C1073 C1072 1.377 . S
C1073 C1074 1.379 . S
C1074 H1058 0.931 . S
C1074 C1068 1.383 . S
C1074 C1073 1.379 . S
H1075 C1069 0.959 . S
H1076 C1069 0.961 . S
H1077 C1069 0.960 . S
H1078 C1070 0.930 . S
H1079 C1071 0.929 . S
H1080 C1088 0.929 . S
H1081 C1090 0.930 . S
H1082 C1092 0.930 . S
H1083 C1095 0.929 . S
H1084 C1098 0.930 . S
H1085 C1100 0.960 . S
H1086 C1100 0.960 . S
H1087 C1100 0.960 . S
C1088 H1080 0.929 . S
C1088 C1089 1.377 . S
C1088 C1090 1.384 . S
C1089 C1088 1.377 . S
C1089 C1095 1.390 . S
C1090 H1081 0.930 . S
C1090 C1088 1.384 . S
C1090 C1091 1.372 . S
C1091 C1090 1.372 . S
C1091 C1092 1.400 . S
C1091 C1096 1.490 . S
C1092 H1082 0.930 . S
C1092 C1091 1.400 . S
C1092 C1095 1.386 . S
H1093 C1109 0.930 . S
H1094 C1110 0.931 . S
C1095 H1083 0.929 . S
C1095 C1089 1.390 . S
C1095 C1092 1.386 . S
C1096 C1091 1.490 . S
C1096 C1098 1.395 . S
C1096 C1099 1.403 . S
H1097 C1103 0.930 . S
C1098 H1084 0.930 . S
C1098 C1096 1.395 . S
C1098 C1101 1.403 . S
C1099 C1096 1.403 . S
C1099 C1100 1.524 . S
C1099 C1103 1.400 . S
C1100 H1085 0.960 . S
C1100 H1086 0.960 . S
C1100 H1087 0.960 . S
C1100 C1099 1.524 . S
C1101 C1098 1.403 . S
C1101 C1102 1.392 . S
C1101 C1105 1.495 . S
C1102 C1101 1.392 . S
C1102 C1103 1.385 . S
C1102 C1104 1.478 . S
C1103 H1097 0.930 . S
C1103 C1099 1.400 . S
C1103 C1102 1.385 . S
C1104 C1102 1.478 . S
C1104 C1106 1.381 . S
C1104 C1110 1.383 . S
C1105 C1101 1.495 . S
C1105 H1111 0.959 . S
C1105 H1112 0.961 . S
C1105 H1113 0.960 . S
C1106 C1104 1.381 . S
C1106 C1107 1.394 . S
C1106 H1114 0.930 . S
C1107 C1106 1.394 . S
C1107 C1108 1.383 . S
C1107 H1115 0.929 . S
C1108 C1107 1.383 . S
C1108 C1109 1.377 . S
C1109 H1093 0.930 . S
C1109 C1108 1.377 . S
C1109 C1110 1.379 . S
C1110 H1094 0.931 . S
C1110 C1104 1.383 . S
C1110 C1109 1.379 . S
H1111 C1105 0.959 . S
H1112 C1105 0.961 . S
H1113 C1105 0.960 . S
H1114 C1106 0.930 . S
H1115 C1107 0.929 . S
H1116 C1124 0.929 . S
H1117 C1126 0.930 . S
H1118 C1128 0.930 . S
H1119 C1131 0.929 . S
H1120 C1134 0.930 . S
H1121 C1136 0.960 . S
H1122 C1136 0.960 . S
H1123 C1136 0.960 . S
C1124 H1116 0.929 . S
C1124 C1125 1.377 . S
C1124 C1126 1.384 . S
C1125 C1124 1.377 . S
C1125 C1131 1.390 . S
C1126 H1117 0.930 . S
C1126 C1124 1.384 . S
C1126 C1127 1.372 . S
C1127 C1126 1.372 . S
C1127 C1128 1.400 . S
C1127 C1132 1.490 . S
C1128 H1118 0.930 . S
C1128 C1127 1.400 . S
C1128 C1131 1.386 . S
H1129 C1145 0.930 . S
H1130 C1146 0.931 . S
C1131 H1119 0.929 . S
C1131 C1125 1.390 . S
C1131 C1128 1.386 . S
C1132 C1127 1.490 . S
C1132 C1134 1.395 . S
C1132 C1135 1.403 . S
H1133 C1139 0.930 . S
C1134 H1120 0.930 . S
C1134 C1132 1.395 . S
C1134 C1137 1.403 . S
C1135 C1132 1.403 . S
C1135 C1136 1.524 . S
C1135 C1139 1.400 . S
C1136 H1121 0.960 . S
C1136 H1122 0.960 . S
C1136 H1123 0.960 . S
C1136 C1135 1.524 . S
C1137 C1134 1.403 . S
C1137 C1138 1.392 . S
C1137 C1141 1.495 . S
C1138 C1137 1.392 . S
C1138 C1139 1.385 . S
C1138 C1140 1.478 . S
C1139 H1133 0.930 . S
C1139 C1135 1.400 . S
C1139 C1138 1.385 . S
C1140 C1138 1.478 . S
C1140 C1142 1.381 . S
C1140 C1146 1.383 . S
C1141 C1137 1.495 . S
C1141 H1147 0.959 . S
C1141 H1148 0.961 . S
C1141 H1149 0.960 . S
C1142 C1140 1.381 . S
C1142 C1143 1.394 . S
C1142 H1150 0.930 . S
C1143 C1142 1.394 . S
C1143 C1144 1.383 . S
C1143 H1151 0.929 . S
C1144 C1143 1.383 . S
C1144 C1145 1.377 . S
C1145 H1129 0.930 . S
C1145 C1144 1.377 . S
C1145 C1146 1.379 . S
C1146 H1130 0.931 . S
C1146 C1140 1.383 . S
C1146 C1145 1.379 . S
H1147 C1141 0.959 . S
H1148 C1141 0.961 . S
H1149 C1141 0.960 . S
H1150 C1142 0.930 . S
H1151 C1143 0.929 . S
H1152 C1160 0.929 . S
H1153 C1162 0.930 . S
H1154 C1164 0.930 . S
H1155 C1167 0.929 . S
H1156 C1170 0.930 . S
H1157 C1172 0.960 . S
H1158 C1172 0.960 . S
H1159 C1172 0.964 1_545 S
C1160 H1152 0.929 . S
C1160 C1161 1.377 . S
C1160 C1162 1.384 . S
C1161 C1160 1.377 . S
C1161 C1167 1.390 . S
C1162 H1153 0.930 . S
C1162 C1160 1.384 . S
C1162 C1163 1.372 . S
C1163 C1162 1.372 . S
C1163 C1164 1.400 . S
C1163 C1168 1.490 1_545 S
C1164 H1154 0.930 . S
C1164 C1163 1.400 . S
C1164 C1167 1.386 . S
H1165 C1181 0.930 . S
H1166 C1182 0.931 . S
C1167 H1155 0.929 . S
C1167 C1161 1.390 . S
C1167 C1164 1.386 . S
C1168 C1163 1.490 1_565 S
C1168 C1170 1.395 . S
C1168 C1171 1.403 . S
H1169 C1175 0.930 . S
C1170 H1156 0.930 . S
C1170 C1168 1.395 . S
C1170 C1173 1.403 . S
C1171 C1168 1.403 . S
C1171 C1172 1.524 . S
C1171 C1175 1.400 . S
C1172 H1157 0.960 . S
C1172 H1158 0.960 . S
C1172 H1159 0.964 1_565 S
C1172 C1171 1.524 . S
C1173 C1170 1.403 . S
C1173 C1174 1.392 . S
C1173 C1177 1.495 . S
C1174 C1173 1.392 . S
C1174 C1175 1.385 . S
C1174 C1176 1.478 . S
C1175 H1169 0.930 . S
C1175 C1171 1.400 . S
C1175 C1174 1.385 . S
C1176 C1174 1.478 . S
C1176 C1178 1.381 . S
C1176 C1182 1.383 . S
C1177 C1173 1.495 . S
C1177 H1183 0.959 . S
C1177 H1184 0.961 . S
C1177 H1185 0.960 . S
C1178 C1176 1.381 . S
C1178 C1179 1.394 . S
C1178 H1186 0.930 . S
C1179 C1178 1.394 . S
C1179 C1180 1.383 . S
C1179 H1187 0.929 . S
C1180 C1179 1.383 . S
C1180 C1181 1.377 . S
C1181 H1165 0.930 . S
C1181 C1180 1.377 . S
C1181 C1182 1.379 . S
C1182 H1166 0.931 . S
C1182 C1176 1.383 . S
C1182 C1181 1.379 . S
H1183 C1177 0.959 . S
H1184 C1177 0.961 . S
H1185 C1177 0.960 . S
H1186 C1178 0.930 . S
H1187 C1179 0.929 . S
H1188 C1196 0.929 . S
H1189 C1198 0.930 . S
H1190 C1200 0.930 . S
H1191 C1203 0.929 . S
H1192 C1206 0.930 . S
H1193 C1208 0.960 . S
H1194 C1208 0.960 . S
H1195 C1208 0.960 . S
C1196 H1188 0.929 . S
C1196 C1197 1.377 . S
C1196 C1198 1.384 . S
C1197 C1196 1.377 . S
C1197 C1203 1.390 . S
C1198 H1189 0.930 . S
C1198 C1196 1.384 . S
C1198 C1199 1.372 . S
C1199 C1198 1.372 . S
C1199 C1200 1.400 . S
C1199 C1204 1.490 . S
C1200 H1190 0.930 . S
C1200 C1199 1.400 . S
C1200 C1203 1.386 . S
H1201 C1217 0.930 . S
H1202 C1218 0.931 . S
C1203 H1191 0.929 . S
C1203 C1197 1.390 . S
C1203 C1200 1.386 . S
C1204 C1199 1.490 . S
C1204 C1206 1.395 . S
C1204 C1207 1.403 . S
H1205 C1211 0.930 . S
C1206 H1192 0.930 . S
C1206 C1204 1.395 . S
C1206 C1209 1.403 . S
C1207 C1204 1.403 . S
C1207 C1208 1.524 . S
C1207 C1211 1.400 . S
C1208 H1193 0.960 . S
C1208 H1194 0.960 . S
C1208 H1195 0.960 . S
C1208 C1207 1.524 . S
C1209 C1206 1.403 . S
C1209 C1210 1.392 . S
C1209 C1213 1.495 . S
C1210 C1209 1.392 . S
C1210 C1211 1.385 . S
C1210 C1212 1.478 . S
C1211 H1205 0.930 . S
C1211 C1207 1.400 . S
C1211 C1210 1.385 . S
C1212 C1210 1.478 . S
C1212 C1214 1.381 . S
C1212 C1218 1.383 . S
C1213 C1209 1.495 . S
C1213 H1219 0.959 . S
C1213 H1220 0.961 . S
C1213 H1221 0.960 . S
C1214 C1212 1.381 . S
C1214 C1215 1.394 . S
C1214 H1222 0.930 . S
C1215 C1214 1.394 . S
C1215 C1216 1.383 . S
C1215 H1223 0.929 . S
C1216 C1215 1.383 . S
C1216 C1217 1.377 . S
C1217 H1201 0.930 . S
C1217 C1216 1.377 . S
C1217 C1218 1.379 . S
C1218 H1202 0.931 . S
C1218 C1212 1.383 . S
C1218 C1217 1.379 . S
H1219 C1213 0.959 . S
H1220 C1213 0.961 . S
H1221 C1213 0.960 . S
H1222 C1214 0.930 . S
H1223 C1215 0.929 . S
H1224 C1232 0.929 . S
H1225 C1234 0.930 . S
H1226 C1236 0.930 . S
H1227 C1239 0.929 . S
H1228 C1242 0.930 . S
H1229 C1244 0.960 . S
H1230 C1244 0.960 . S
H1231 C1244 0.960 . S
C1232 H1224 0.929 . S
C1232 C1233 1.377 . S
C1232 C1234 1.384 . S
C1233 C1232 1.377 . S
C1233 C1239 1.390 . S
C1234 H1225 0.930 . S
C1234 C1232 1.384 . S
C1234 C1235 1.372 . S
C1235 C1234 1.372 . S
C1235 C1236 1.400 . S
C1235 C1240 1.490 . S
C1236 H1226 0.930 . S
C1236 C1235 1.400 . S
C1236 C1239 1.386 . S
H1237 C1253 0.930 . S
H1238 C1254 0.931 . S
C1239 H1227 0.929 . S
C1239 C1233 1.390 . S
C1239 C1236 1.386 . S
C1240 C1235 1.490 . S
C1240 C1242 1.395 . S
C1240 C1243 1.403 . S
H1241 C1247 0.930 . S
C1242 H1228 0.930 . S
C1242 C1240 1.395 . S
C1242 C1245 1.403 . S
C1243 C1240 1.403 . S
C1243 C1244 1.524 . S
C1243 C1247 1.400 . S
C1244 H1229 0.960 . S
C1244 H1230 0.960 . S
C1244 H1231 0.960 . S
C1244 C1243 1.524 . S
C1245 C1242 1.403 . S
C1245 C1246 1.392 . S
C1245 C1249 1.495 . S
C1246 C1245 1.392 . S
C1246 C1247 1.385 . S
C1246 C1248 1.478 . S
C1247 H1241 0.930 . S
C1247 C1243 1.400 . S
C1247 C1246 1.385 . S
C1248 C1246 1.478 . S
C1248 C1250 1.381 . S
C1248 C1254 1.383 . S
C1249 C1245 1.495 . S
C1249 H1255 0.959 . S
C1249 H1256 0.961 . S
C1249 H1257 0.960 . S
C1250 C1248 1.381 . S
C1250 C1251 1.394 . S
C1250 H1258 0.930 . S
C1251 C1250 1.394 . S
C1251 C1252 1.383 . S
C1251 H1259 0.929 . S
C1252 C1251 1.383 . S
C1252 C1253 1.377 . S
C1253 H1237 0.930 . S
C1253 C1252 1.377 . S
C1253 C1254 1.379 . S
C1254 H1238 0.931 . S
C1254 C1248 1.383 . S
C1254 C1253 1.379 . S
H1255 C1249 0.959 . S
H1256 C1249 0.961 . S
H1257 C1249 0.960 . S
H1258 C1250 0.930 . S
H1259 C1251 0.929 . S
H1260 C1268 0.929 . S
H1261 C1270 0.930 . S
H1262 C1272 0.930 1_545 S
H1263 C1275 0.929 . S
H1264 C1278 0.930 . S
H1265 C1280 0.960 . S
H1266 C1280 0.960 . S
H1267 C1280 0.960 . S
C1268 H1260 0.929 . S
C1268 C1269 1.377 . S
C1268 C1270 1.384 . S
C1269 C1268 1.377 . S
C1269 C1275 1.390 . S
C1270 H1261 0.930 . S
C1270 C1268 1.384 . S
C1270 C1271 1.372 . S
C1271 C1270 1.372 . S
C1271 C1272 1.400 . S
C1271 C1276 1.490 1_565 S
C1272 H1262 0.930 1_565 S
C1272 C1271 1.400 . S
C1272 C1275 1.386 . S
H1273 C1289 0.930 . S
H1274 C1290 0.931 . S
C1275 H1263 0.929 . S
C1275 C1269 1.390 . S
C1275 C1272 1.386 . S
C1276 C1271 1.490 1_545 S
C1276 C1278 1.395 . S
C1276 C1279 1.403 . S
H1277 C1283 0.930 . S
C1278 H1264 0.930 . S
C1278 C1276 1.395 . S
C1278 C1281 1.403 . S
C1279 C1276 1.403 . S
C1279 C1280 1.524 . S
C1279 C1283 1.400 . S
C1280 H1265 0.960 . S
C1280 H1266 0.960 . S
C1280 H1267 0.960 . S
C1280 C1279 1.524 . S
C1281 C1278 1.403 . S
C1281 C1282 1.392 . S
C1281 C1285 1.495 . S
C1282 C1281 1.392 . S
C1282 C1283 1.385 . S
C1282 C1284 1.478 . S
C1283 H1277 0.930 . S
C1283 C1279 1.400 . S
C1283 C1282 1.385 . S
C1284 C1282 1.478 . S
C1284 C1286 1.381 . S
C1284 C1290 1.383 . S
C1285 C1281 1.495 . S
C1285 H1291 0.959 . S
C1285 H1292 0.961 . S
C1285 H1293 0.960 . S
C1286 C1284 1.381 . S
C1286 C1287 1.394 . S
C1286 H1294 0.930 . S
C1287 C1286 1.394 . S
C1287 C1288 1.383 . S
C1287 H1295 0.929 . S
C1288 C1287 1.383 . S
C1288 C1289 1.377 . S
C1289 H1273 0.930 . S
C1289 C1288 1.377 . S
C1289 C1290 1.379 . S
C1290 H1274 0.931 . S
C1290 C1284 1.383 . S
C1290 C1289 1.379 . S
H1291 C1285 0.959 . S
H1292 C1285 0.961 . S
H1293 C1285 0.960 . S
H1294 C1286 0.930 . S
H1295 C1287 0.929 . S
H1296 C1304 0.929 . S
H1297 C1306 0.930 . S
H1298 C1308 0.930 . S
H1299 C1311 0.929 . S
H1300 C1314 0.930 . S
H1301 C1316 0.960 . S
H1302 C1316 0.960 . S
H1303 C1316 0.960 . S
C1304 H1296 0.929 . S
C1304 C1305 1.377 . S
C1304 C1306 1.384 . S
C1305 C1304 1.377 . S
C1305 C1311 1.390 . S
C1306 H1297 0.930 . S
C1306 C1304 1.384 . S
C1306 C1307 1.372 . S
C1307 C1306 1.372 . S
C1307 C1308 1.400 . S
C1307 C1312 1.490 . S
C1308 H1298 0.930 . S
C1308 C1307 1.400 . S
C1308 C1311 1.386 . S
H1309 C1325 0.930 . S
H1310 C1326 0.931 . S
C1311 H1299 0.929 . S
C1311 C1305 1.390 . S
C1311 C1308 1.386 . S
C1312 C1307 1.490 . S
C1312 C1314 1.395 . S
C1312 C1315 1.403 . S
H1313 C1319 0.930 . S
C1314 H1300 0.930 . S
C1314 C1312 1.395 . S
C1314 C1317 1.403 . S
C1315 C1312 1.403 . S
C1315 C1316 1.524 . S
C1315 C1319 1.400 . S
C1316 H1301 0.960 . S
C1316 H1302 0.960 . S
C1316 H1303 0.960 . S
C1316 C1315 1.524 . S
C1317 C1314 1.403 . S
C1317 C1318 1.392 . S
C1317 C1321 1.495 . S
C1318 C1317 1.392 . S
C1318 C1319 1.385 . S
C1318 C1320 1.478 . S
C1319 H1313 0.930 . S
C1319 C1315 1.400 . S
C1319 C1318 1.385 . S
C1320 C1318 1.478 . S
C1320 C1322 1.381 . S
C1320 C1326 1.383 . S
C1321 C1317 1.495 . S
C1321 H1327 0.959 . S
C1321 H1328 0.961 . S
C1321 H1329 0.960 . S
C1322 C1320 1.381 . S
C1322 C1323 1.394 . S
C1322 H1330 0.930 . S
C1323 C1322 1.394 . S
C1323 C1324 1.383 . S
C1323 H1331 0.929 . S
C1324 C1323 1.383 . S
C1324 C1325 1.377 . S
C1325 H1309 0.930 . S
C1325 C1324 1.377 . S
C1325 C1326 1.379 . S
C1326 H1310 0.931 . S
C1326 C1320 1.383 . S
C1326 C1325 1.379 . S
H1327 C1321 0.959 . S
H1328 C1321 0.961 . S
H1329 C1321 0.960 . S
H1330 C1322 0.930 . S
H1331 C1323 0.929 . S
C369 C18 1.254 . S
C388 C8 1.229 . S
C405 C58 1.252 . S
C424 C48 1.235 . S
C441 C98 1.252 . S
C460 C88 1.237 . S
C477 C128 1.254 . S
C496 C138 1.266 . S
C513 C168 1.255 . S
C532 C178 1.271 . S
C549 C208 1.258 . S
C568 C218 1.236 . S
C585 C249 1.128 . S
C604 C259 1.152 . S
C621 C289 1.112 . S
C640 C299 1.090 . S
C657 C329 1.112 . S
C676 C339 1.113 . S
C693 C219 2.451 . S
C712 C15 2.417 . S
C729 C55 2.430 . S
C748 C139 2.448 . S
C765 C95 2.435 . S
C784 C179 2.440 . S
C801 C99 2.081 . S
C820 C258 2.182 . S
C837 C298 2.177 1_455 S
C856 C19 2.061 . S
C873 C338 2.174 . S
C892 C59 2.098 . S
C909 C335 0.940 . S
C928 C5 0.933 . S
C945 C45 0.936 . S
C964 C255 0.930 . S
C981 C295 0.944 . S
C1000 C85 0.954 . S
C1017 C89 2.455 1_565 S
C1036 C125 2.437 . S
C1053 C165 2.431 . S
C1072 C9 2.440 . S
C1089 C49 2.452 . S
C1108 C205 2.436 . S
C1125 C325 0.944 . S
C1144 C135 0.928 . S
C1161 C245 0.942 . S
C1180 C175 0.943 . S
C1197 C285 0.940 . S
C1216 C215 0.956 . S
C1233 C248 2.172 . S
C1252 C209 2.071 . S
C1269 C129 2.086 . S
C1288 C288 2.166 . S
C1305 C328 2.175 . S
C1324 C169 2.066 . S
