# Generated by pormake.
# Topology gsi, (4)-cn, num edge types: 1
# Building blocks:
#     Node 0, Type 0, BuildingBlock: UXUYUI_clean_sbu_0, # of connection points: 4
#     Node 1, Type 0, BuildingBlock: UXUYUI_clean_sbu_0, # of connection points: 4
#     Node 2, Type 0, BuildingBlock: UXUYUI_clean_sbu_0, # of connection points: 4
#     Node 3, Type 0, BuildingBlock: UXUYUI_clean_sbu_0, # of connection points: 4
#     Node 4, Type 0, BuildingBlock: UXUYUI_clean_sbu_0, # of connection points: 4
#     Node 5, Type 0, BuildingBlock: UXUYUI_clean_sbu_0, # of connection points: 4
#     Node 6, Type 0, BuildingBlock: UXUYUI_clean_sbu_0, # of connection points: 4
#     Node 7, Type 0, BuildingBlock: UXUYUI_clean_sbu_0, # of connection points: 4
#     Node 8, Type 0, BuildingBlock: UXUYUI_clean_sbu_0, # of connection points: 4
#     Node 9, Type 0, BuildingBlock: UXUYUI_clean_sbu_0, # of connection points: 4
#     Node 10, Type 0, BuildingBlock: UXUYUI_clean_sbu_0, # of connection points: 4
#     Node 11, Type 0, BuildingBlock: UXUYUI_clean_sbu_0, # of connection points: 4
#     Node 12, Type 0, BuildingBlock: UXUYUI_clean_sbu_0, # of connection points: 4
#     Node 13, Type 0, BuildingBlock: UXUYUI_clean_sbu_0, # of connection points: 4
#     Node 14, Type 0, BuildingBlock: UXUYUI_clean_sbu_0, # of connection points: 4
#     Node 15, Type 0, BuildingBlock: UXUYUI_clean_sbu_0, # of connection points: 4
#     Edge 16, Type (0, 0), BuildingBlock: XUDNAN_clean_linker_2, # of connection points: 2
#     Edge 17, Type (0, 0), BuildingBlock: XUDNAN_clean_linker_2, # of connection points: 2
#     Edge 18, Type (0, 0), BuildingBlock: XUDNAN_clean_linker_2, # of connection points: 2
#     Edge 19, Type (0, 0), BuildingBlock: XUDNAN_clean_linker_2, # of connection points: 2
#     Edge 20, Type (0, 0), BuildingBlock: XUDNAN_clean_linker_2, # of connection points: 2
#     Edge 21, Type (0, 0), BuildingBlock: XUDNAN_clean_linker_2, # of connection points: 2
#     Edge 22, Type (0, 0), BuildingBlock: XUDNAN_clean_linker_2, # of connection points: 2
#     Edge 23, Type (0, 0), BuildingBlock: XUDNAN_clean_linker_2, # of connection points: 2
#     Edge 24, Type (0, 0), BuildingBlock: XUDNAN_clean_linker_2, # of connection points: 2
#     Edge 25, Type (0, 0), BuildingBlock: XUDNAN_clean_linker_2, # of connection points: 2
#     Edge 26, Type (0, 0), BuildingBlock: XUDNAN_clean_linker_2, # of connection points: 2
#     Edge 27, Type (0, 0), BuildingBlock: XUDNAN_clean_linker_2, # of connection points: 2
#     Edge 28, Type (0, 0), BuildingBlock: XUDNAN_clean_linker_2, # of connection points: 2
#     Edge 29, Type (0, 0), BuildingBlock: XUDNAN_clean_linker_2, # of connection points: 2
#     Edge 30, Type (0, 0), BuildingBlock: XUDNAN_clean_linker_2, # of connection points: 2
#     Edge 31, Type (0, 0), BuildingBlock: XUDNAN_clean_linker_2, # of connection points: 2
#     Edge 32, Type (0, 0), BuildingBlock: XUDNAN_clean_linker_2, # of connection points: 2
#     Edge 33, Type (0, 0), BuildingBlock: XUDNAN_clean_linker_2, # of connection points: 2
#     Edge 34, Type (0, 0), BuildingBlock: XUDNAN_clean_linker_2, # of connection points: 2
#     Edge 35, Type (0, 0), BuildingBlock: XUDNAN_clean_linker_2, # of connection points: 2
#     Edge 36, Type (0, 0), BuildingBlock: XUDNAN_clean_linker_2, # of connection points: 2
#     Edge 37, Type (0, 0), BuildingBlock: XUDNAN_clean_linker_2, # of connection points: 2
#     Edge 38, Type (0, 0), BuildingBlock: XUDNAN_clean_linker_2, # of connection points: 2
#     Edge 39, Type (0, 0), BuildingBlock: XUDNAN_clean_linker_2, # of connection points: 2
#     Edge 40, Type (0, 0), BuildingBlock: XUDNAN_clean_linker_2, # of connection points: 2
#     Edge 41, Type (0, 0), BuildingBlock: XUDNAN_clean_linker_2, # of connection points: 2
#     Edge 42, Type (0, 0), BuildingBlock: XUDNAN_clean_linker_2, # of connection points: 2
#     Edge 43, Type (0, 0), BuildingBlock: XUDNAN_clean_linker_2, # of connection points: 2
#     Edge 44, Type (0, 0), BuildingBlock: XUDNAN_clean_linker_2, # of connection points: 2
#     Edge 45, Type (0, 0), BuildingBlock: XUDNAN_clean_linker_2, # of connection points: 2
#     Edge 46, Type (0, 0), BuildingBlock: XUDNAN_clean_linker_2, # of connection points: 2
#     Edge 47, Type (0, 0), BuildingBlock: XUDNAN_clean_linker_2, # of connection points: 2
# Relax obj value: 0.073
# Max RMSD: 0.058
# Mean RMSD: 0.058
data_MOF--net-gsi--node1-UXUYUI_clean_sbu_0--edge1-XUDNAN_clean_linker_2
_symmetry_space_group_name_H-M    P1
_symmetry_Int_Tables_number       1
_symmetry_cell_setting            triclinic
loop_
_symmetry_equiv_pos_as_xyz
'x, y, z'
_cell_length_a     61.659698
_cell_length_b     61.763509
_cell_length_c     61.762645
_cell_angle_alpha  90.036741
_cell_angle_beta   89.947659
_cell_angle_gamma 90.118469
loop_
_atom_site_label
_atom_site_type_symbol
_atom_site_fract_x
_atom_site_fract_y
_atom_site_fract_z
_atom_type_partial_charge
Li0 Li 0.1396 0.17117 0.15454 0.0
Li1 Li 0.1768 0.16975 0.17012 0.0
Li2 Li 0.16862 0.15262 0.13424 0.0
Li3 Li 0.1552 0.13568 0.1689 0.0
C4 C 0.16334 0.20153 0.13093 0.0
N5 N 0.15522 0.23834 0.10692 0.0
C6 C 0.16779 0.22197 0.13959 0.0
C7 C 0.1551 0.19979 0.10994 0.0
C8 C 0.16346 0.2404 0.12724 0.0
C9 C 0.15103 0.2186 0.09808 0.0
C10 C 0.14476 0.16643 0.2057 0.0
C11 C 0.15601 0.16549 0.24307 0.0
N12 N 0.136 0.17245 0.24916 0.0
C13 C 0.12433 0.17363 0.21231 0.0
C14 C 0.16077 0.16235 0.22117 0.0
C15 C 0.12021 0.17655 0.23436 0.0
C16 C 0.09505 0.18453 0.14658 0.0
N17 N 0.115 0.19007 0.1542 0.0
C18 C 0.10204 0.22497 0.16477 0.0
C19 C 0.11865 0.20977 0.16328 0.0
C20 C 0.08107 0.21977 0.15742 0.0
C21 C 0.07775 0.19921 0.14805 0.0
H22 H 0.09244 0.16861 0.13975 0.0
H23 H 0.13452 0.21357 0.16968 0.0
C24 C 0.21879 0.18231 0.18433 0.0
N25 N 0.19722 0.18647 0.18583 0.0
C26 C 0.23374 0.19557 0.1949 0.0
C27 C 0.20402 0.21734 0.20818 0.0
C28 C 0.18963 0.20355 0.19746 0.0
C29 C 0.22645 0.21353 0.20684 0.0
H30 H 0.22448 0.16897 0.17461 0.0
H31 H 0.17239 0.2067 0.19801 0.0
C32 C 0.12977 0.13222 0.1233 0.0
N33 N 0.11262 0.1134 0.0865 0.0
C34 C 0.12929 0.10969 0.1212 0.0
C35 C 0.12121 0.14517 0.10686 0.0
C36 C 0.12063 0.10049 0.10242 0.0
C37 C 0.11271 0.13535 0.08833 0.0
C38 C 0.2033 0.13072 0.16663 0.0
C39 C 0.22109 0.12743 0.15299 0.0
C40 C 0.20424 0.12387 0.18816 0.0
C41 C 0.23967 0.1175 0.16122 0.0
C42 C 0.22311 0.11398 0.19577 0.0
N43 N 0.24029 0.11105 0.18226 0.0
C44 C 0.19845 0.16248 0.10188 0.0
C45 C 0.17936 0.13008 0.09428 0.0
C46 C 0.21152 0.15965 0.0836 0.0
N47 N 0.18281 0.14777 0.10694 0.0
C48 C 0.19198 0.12667 0.07573 0.0
C49 C 0.20858 0.1414 0.0703 0.0
H50 H 0.20126 0.17614 0.11248 0.0
H51 H 0.16726 0.11828 0.0988 0.0
C52 C 0.14047 0.10847 0.20379 0.0
N53 N 0.15046 0.10894 0.18413 0.0
C54 C 0.13857 0.08901 0.21525 0.0
C55 C 0.15678 0.07074 0.18583 0.0
C56 C 0.15864 0.0906 0.17511 0.0
C57 C 0.14673 0.0698 0.20623 0.0
H58 H 0.13406 0.12319 0.21069 0.0
H59 H 0.16685 0.09145 0.15964 0.0
O60 O 0.16734 0.18333 0.14286 0.0
O61 O 0.149 0.16347 0.18417 0.0
O62 O 0.13821 0.1415 0.14154 0.0
O63 O 0.18509 0.14057 0.15884 0.0
H64 H 0.17436 0.22358 0.15576 0.0
H65 H 0.15204 0.18409 0.10281 0.0
H66 H 0.16666 0.25633 0.1338 0.0
H67 H 0.14459 0.21749 0.08183 0.0
H68 H 0.16825 0.16242 0.25522 0.0
H69 H 0.11176 0.17684 0.20052 0.0
H70 H 0.17672 0.15699 0.21634 0.0
H71 H 0.10445 0.18207 0.23971 0.0
H72 H 0.10569 0.24065 0.17171 0.0
H73 H 0.06188 0.19426 0.14242 0.0
H74 H 0.25084 0.19184 0.19362 0.0
H75 H 0.19767 0.23117 0.21688 0.0
H76 H 0.13565 0.09944 0.13387 0.0
H77 H 0.12101 0.1626 0.10846 0.0
H78 H 0.12029 0.08308 0.1005 0.0
H79 H 0.10612 0.14518 0.07543 0.0
H80 H 0.22058 0.13261 0.13625 0.0
H81 H 0.19054 0.12606 0.19886 0.0
H82 H 0.2536 0.11493 0.15088 0.0
H83 H 0.22408 0.10861 0.21241 0.0
H84 H 0.22432 0.17125 0.08043 0.0
H85 H 0.18891 0.11246 0.06591 0.0
H86 H 0.13054 0.08893 0.23085 0.0
H87 H 0.16346 0.05633 0.17841 0.0
Li88 Li 0.85063 0.34832 0.17236 0.0
Li89 Li 0.88603 0.35133 0.1524 0.0
Li90 Li 0.86657 0.38467 0.16859 0.0
Li91 Li 0.85143 0.36488 0.1362 0.0
C92 C 0.88632 0.35828 0.20371 0.0
N93 N 0.9011 0.35684 0.24589 0.0
C94 C 0.90434 0.34566 0.20899 0.0
C95 C 0.87586 0.37022 0.21984 0.0
C96 C 0.91155 0.34512 0.23042 0.0
C97 C 0.88358 0.36927 0.24107 0.0
C98 C 0.85996 0.31818 0.1307 0.0
C99 C 0.86963 0.30328 0.09594 0.0
N100 N 0.86096 0.28393 0.10197 0.0
C101 C 0.85112 0.29818 0.13657 0.0
C102 C 0.86929 0.3208 0.11025 0.0
C103 C 0.8518 0.28104 0.12181 0.0
C104 C 0.81431 0.3233 0.18504 0.0
N105 N 0.83508 0.32858 0.19029 0.0
C106 C 0.83493 0.30285 0.21917 0.0
C107 C 0.84553 0.31859 0.20688 0.0
C108 C 0.81338 0.29743 0.21434 0.0
C109 C 0.80296 0.30795 0.19715 0.0
H110 H 0.80669 0.33066 0.17114 0.0
H111 H 0.86226 0.32237 0.21028 0.0
C112 C 0.93195 0.34888 0.15236 0.0
N113 N 0.91353 0.33713 0.14929 0.0
C114 C 0.95209 0.33853 0.15357 0.0
C115 C 0.93409 0.3043 0.14748 0.0
C116 C 0.91428 0.31525 0.14675 0.0
C117 C 0.95328 0.31589 0.15141 0.0
H118 H 0.93088 0.3662 0.15477 0.0
H119 H 0.89948 0.30607 0.14511 0.0
C120 C 0.81569 0.3755 0.17076 0.0
N121 N 0.7742 0.37427 0.18767 0.0
C122 C 0.79782 0.37339 0.157 0.0
C123 C 0.81244 0.37721 0.19309 0.0
C124 C 0.77698 0.37275 0.16587 0.0
C125 C 0.79135 0.37648 0.20133 0.0
C126 C 0.88478 0.39272 0.12151 0.0
C127 C 0.87929 0.41466 0.12145 0.0
C128 C 0.89499 0.38363 0.10347 0.0
C129 C 0.88376 0.42709 0.10308 0.0
C130 C 0.89915 0.39659 0.08541 0.0
N131 N 0.89348 0.41787 0.08558 0.0
C132 C 0.89156 0.41864 0.18702 0.0
C133 C 0.85356 0.42283 0.19085 0.0
C134 C 0.89523 0.43768 0.19878 0.0
N135 N 0.87098 0.41163 0.18331 0.0
C136 C 0.85649 0.44183 0.20285 0.0
C137 C 0.87755 0.44951 0.20697 0.0
H138 H 0.90512 0.40929 0.18104 0.0
H139 H 0.83736 0.41693 0.18767 0.0
C140 C 0.82237 0.34843 0.10557 0.0
N141 N 0.83466 0.36627 0.10976 0.0
C142 C 0.81011 0.34702 0.08665 0.0
C143 C 0.82183 0.38312 0.07722 0.0
C144 C 0.83425 0.38368 0.09624 0.0
C145 C 0.8099 0.36442 0.07209 0.0
H146 H 0.82201 0.3352 0.11698 0.0
H147 H 0.8435 0.398 0.1001 0.0
O148 O 0.87902 0.35886 0.18282 0.0
O149 O 0.85935 0.33511 0.14496 0.0
O150 O 0.83622 0.37601 0.16234 0.0
O151 O 0.88066 0.38034 0.13936 0.0
H152 H 0.9126 0.33628 0.1967 0.0
H153 H 0.86199 0.38015 0.21602 0.0
H154 H 0.92544 0.33538 0.23477 0.0
H155 H 0.87564 0.37843 0.25372 0.0
H156 H 0.87676 0.30507 0.08003 0.0
H157 H 0.84382 0.29593 0.15237 0.0
H158 H 0.87607 0.33622 0.10546 0.0
H159 H 0.84503 0.26546 0.12613 0.0
H160 H 0.8435 0.29495 0.23227 0.0
H161 H 0.78646 0.30383 0.19272 0.0
H162 H 0.96653 0.34806 0.15662 0.0
H163 H 0.93423 0.28681 0.14613 0.0
H164 H 0.8 0.37224 0.13967 0.0
H165 H 0.82606 0.37887 0.20397 0.0
H166 H 0.763 0.37105 0.15542 0.0
H167 H 0.78861 0.37763 0.2186 0.0
H168 H 0.87154 0.42195 0.13539 0.0
H169 H 0.89974 0.36678 0.10346 0.0
H170 H 0.87949 0.44407 0.10273 0.0
H171 H 0.90695 0.38976 0.07128 0.0
H172 H 0.91174 0.44288 0.20175 0.0
H173 H 0.8424 0.45055 0.20863 0.0
H174 H 0.80079 0.33248 0.08347 0.0
H175 H 0.82195 0.39692 0.0664 0.0
Li176 Li 0.15454 0.8843 0.35053 0.0
Li177 Li 0.16815 0.86917 0.38532 0.0
Li178 Li 0.17543 0.85106 0.35054 0.0
Li179 Li 0.13872 0.85071 0.36636 0.0
C180 C 0.20588 0.88084 0.35363 0.0
N181 N 0.24862 0.88007 0.34018 0.0
C182 C 0.22251 0.87788 0.3687 0.0
C183 C 0.211 0.8836 0.33175 0.0
C184 C 0.24401 0.8775 0.36157 0.0
C185 C 0.2327 0.8831 0.32526 0.0
C186 C 0.13453 0.89398 0.39555 0.0
C187 C 0.12592 0.89934 0.43324 0.0
N188 N 0.12833 0.92108 0.43058 0.0
C189 C 0.13681 0.91636 0.39312 0.0
C190 C 0.12891 0.88537 0.4157 0.0
C191 C 0.13363 0.9298 0.41105 0.0
C192 C 0.1295 0.91347 0.32457 0.0
N193 N 0.14926 0.91006 0.33373 0.0
C194 C 0.1638 0.94112 0.31552 0.0
C195 C 0.16612 0.9238 0.32993 0.0
C196 C 0.144 0.94415 0.30475 0.0
C197 C 0.12658 0.93031 0.30973 0.0
H198 H 0.1162 0.90262 0.32817 0.0
H199 H 0.1816 0.92095 0.33759 0.0
C200 C 0.19135 0.8581 0.42303 0.0
N201 N 0.18224 0.87513 0.41248 0.0
C202 C 0.2049 0.86151 0.44086 0.0
C203 C 0.19892 0.89994 0.43721 0.0
C204 C 0.18571 0.8958 0.41925 0.0
C205 C 0.2092 0.88271 0.44803 0.0
H206 H 0.18898 0.84185 0.41697 0.0
H207 H 0.17893 0.90914 0.41024 0.0
C208 C 0.13783 0.86111 0.31696 0.0
N209 N 0.11753 0.87226 0.27871 0.0
C210 C 0.11541 0.85849 0.31479 0.0
C211 C 0.14994 0.86926 0.29963 0.0
C212 C 0.10545 0.86423 0.29531 0.0
C213 C 0.13937 0.87487 0.28045 0.0
C214 C 0.15995 0.81882 0.38641 0.0
C215 C 0.16456 0.79982 0.37501 0.0
C216 C 0.14849 0.81771 0.40591 0.0
C217 C 0.15738 0.77999 0.38322 0.0
C218 C 0.14156 0.79757 0.41356 0.0
N219 N 0.14609 0.77929 0.40214 0.0
C220 C 0.21347 0.82667 0.3471 0.0
C221 C 0.19212 0.82696 0.3152 0.0
C222 C 0.22828 0.81256 0.33754 0.0
N223 N 0.19588 0.83356 0.33585 0.0
C224 C 0.20644 0.81273 0.30504 0.0
C225 C 0.22472 0.80518 0.3163 0.0
H226 H 0.21577 0.83184 0.36367 0.0
H227 H 0.1777 0.83226 0.30684 0.0
C228 C 0.09646 0.8369 0.38187 0.0
N229 N 0.11372 0.83226 0.36893 0.0
C230 C 0.07944 0.82194 0.38408 0.0
C231 C 0.09836 0.79789 0.35967 0.0
C232 C 0.11467 0.81344 0.35753 0.0
C233 C 0.08056 0.802 0.37318 0.0
H234 H 0.09607 0.852 0.39073 0.0
H235 H 0.12844 0.8103 0.34715 0.0
O236 O 0.1847 0.88086 0.36022 0.0
O237 O 0.13775 0.88056 0.37826 0.0
O238 O 0.14784 0.85571 0.33595 0.0
O239 O 0.16639 0.83844 0.3784 0.0
H240 H 0.21886 0.87571 0.38569 0.0
H241 H 0.19833 0.88594 0.31989 0.0
H242 H 0.25704 0.87511 0.37304 0.0
H243 H 0.23688 0.88508 0.30837 0.0
H244 H 0.12169 0.89291 0.44898 0.0
H245 H 0.14113 0.92326 0.3776 0.0
H246 H 0.12701 0.86808 0.41779 0.0
H247 H 0.13544 0.94715 0.40945 0.0
H248 H 0.17762 0.95142 0.31211 0.0
H249 H 0.11098 0.93228 0.30195 0.0
H250 H 0.2127 0.84768 0.44824 0.0
H251 H 0.20141 0.91656 0.4422 0.0
H252 H 0.10579 0.85223 0.32804 0.0
H253 H 0.16729 0.87141 0.30104 0.0
H254 H 0.08811 0.86235 0.29342 0.0
H255 H 0.14852 0.88133 0.26696 0.0
H256 H 0.17336 0.80041 0.35985 0.0
H257 H 0.14484 0.83228 0.41493 0.0
H258 H 0.1607 0.76517 0.37451 0.0
H259 H 0.13254 0.79648 0.42855 0.0
H260 H 0.24225 0.80735 0.34676 0.0
H261 H 0.20282 0.80716 0.28881 0.0
H262 H 0.06593 0.82557 0.39469 0.0
H263 H 0.09968 0.78272 0.35095 0.0
Li264 Li 0.8525 0.65402 0.38455 0.0
Li265 Li 0.86752 0.63582 0.35102 0.0
Li266 Li 0.88652 0.66832 0.36834 0.0
Li267 Li 0.85241 0.67148 0.35058 0.0
C268 C 0.88194 0.61939 0.3919 0.0
N269 N 0.88318 0.58056 0.414 0.0
C270 C 0.86646 0.60338 0.38767 0.0
C271 C 0.89803 0.61569 0.40735 0.0
C272 C 0.86739 0.58383 0.399 0.0
C273 C 0.89837 0.59594 0.41838 0.0
C274 C 0.81828 0.64685 0.34716 0.0
C275 C 0.79713 0.64406 0.31442 0.0
N276 N 0.78021 0.65381 0.32464 0.0
C277 C 0.80064 0.65673 0.35735 0.0
C278 C 0.8165 0.64039 0.32553 0.0
C279 C 0.78156 0.66016 0.34568 0.0
C280 C 0.82252 0.66905 0.41421 0.0
N281 N 0.83577 0.65175 0.41103 0.0
C282 C 0.8242 0.63636 0.4448 0.0
C283 C 0.83675 0.63544 0.42584 0.0
C284 C 0.81092 0.65441 0.44864 0.0
C285 C 0.81008 0.6708 0.43298 0.0
H286 H 0.82184 0.68177 0.40221 0.0
H287 H 0.84742 0.62187 0.42326 0.0
C288 C 0.8924 0.60606 0.32678 0.0
N289 N 0.87215 0.60977 0.33461 0.0
C290 C 0.8962 0.58876 0.31265 0.0
C291 C 0.85833 0.5791 0.31522 0.0
C292 C 0.85533 0.59642 0.32954 0.0
C293 C 0.87894 0.57525 0.30618 0.0
H294 H 0.90551 0.6169 0.33109 0.0
H295 H 0.83938 0.59959 0.3361 0.0
C296 C 0.86632 0.69416 0.39783 0.0
N297 N 0.87729 0.71341 0.43677 0.0
C298 C 0.86012 0.71549 0.40219 0.0
C299 C 0.87816 0.68265 0.41333 0.0
C300 C 0.86581 0.72492 0.42195 0.0
C301 C 0.88352 0.69266 0.43289 0.0
C302 C 0.88332 0.67337 0.31924 0.0
C303 C 0.88715 0.69566 0.32023 0.0
C304 C 0.88267 0.66294 0.29917 0.0
C305 C 0.89002 0.70723 0.30101 0.0
C306 C 0.88565 0.67508 0.28032 0.0
N307 N 0.88921 0.69679 0.28163 0.0
C308 C 0.93285 0.67087 0.37153 0.0
C309 C 0.91449 0.70427 0.3752 0.0
C310 C 0.95295 0.68137 0.37326 0.0
N311 N 0.91413 0.6824 0.37253 0.0
C312 C 0.93414 0.71534 0.37742 0.0
C313 C 0.95387 0.70399 0.37631 0.0
H314 H 0.93218 0.65354 0.36898 0.0
H315 H 0.8995 0.71327 0.37533 0.0
C316 C 0.8275 0.70851 0.34409 0.0
N317 N 0.83583 0.6912 0.3334 0.0
C318 C 0.81585 0.72427 0.33295 0.0
C319 C 0.82077 0.70369 0.30001 0.0
C320 C 0.83252 0.68841 0.31179 0.0
C321 C 0.81253 0.72203 0.31059 0.0
H322 H 0.82994 0.71011 0.36132 0.0
H323 H 0.83902 0.67437 0.30365 0.0
O324 O 0.88154 0.63856 0.38087 0.0
O325 O 0.83723 0.64368 0.35823 0.0
O326 O 0.86068 0.68476 0.3785 0.0
O327 O 0.88025 0.66178 0.33783 0.0
H328 H 0.8537 0.6061 0.37601 0.0
H329 H 0.91013 0.62795 0.41077 0.0
H330 H 0.85549 0.57131 0.39593 0.0
H331 H 0.91073 0.59285 0.4304 0.0
H332 H 0.7956 0.63931 0.29763 0.0
H333 H 0.80168 0.66179 0.37406 0.0
H334 H 0.83011 0.63313 0.31722 0.0
H335 H 0.76782 0.66789 0.35335 0.0
H336 H 0.82538 0.62346 0.45661 0.0
H337 H 0.79992 0.68491 0.43527 0.0
H338 H 0.9125 0.58624 0.30665 0.0
H339 H 0.84443 0.56937 0.31071 0.0
H340 H 0.85104 0.72473 0.39042 0.0
H341 H 0.88316 0.66618 0.41041 0.0
H342 H 0.86111 0.74141 0.42551 0.0
H343 H 0.89265 0.68391 0.44501 0.0
H344 H 0.88757 0.70396 0.33565 0.0
H345 H 0.87971 0.64568 0.29818 0.0
H346 H 0.89283 0.72451 0.3015 0.0
H347 H 0.88509 0.66726 0.26466 0.0
H348 H 0.96757 0.67183 0.37179 0.0
H349 H 0.93374 0.73266 0.38005 0.0
H350 H 0.80942 0.73801 0.34174 0.0
H351 H 0.81857 0.70142 0.28276 0.0
Li352 Li 0.34946 0.85091 0.66948 0.0
Li353 Li 0.384 0.8534 0.65057 0.0
Li354 Li 0.3672 0.88645 0.66669 0.0
Li355 Li 0.3527 0.86896 0.63419 0.0
C356 C 0.37737 0.86199 0.70335 0.0
N357 N 0.37644 0.86651 0.74784 0.0
C358 C 0.395 0.85523 0.71579 0.0
C359 C 0.35923 0.87098 0.71351 0.0
C360 C 0.39423 0.85766 0.73827 0.0
C361 C 0.35909 0.87315 0.73602 0.0
C362 C 0.36547 0.82019 0.63122 0.0
C363 C 0.3864 0.80402 0.60244 0.0
N364 N 0.38378 0.78426 0.61181 0.0
C365 C 0.36277 0.79969 0.64042 0.0
C366 C 0.37717 0.82235 0.61194 0.0
C367 C 0.37222 0.78174 0.6304 0.0
C368 C 0.31355 0.83778 0.69655 0.0
N369 N 0.33372 0.83296 0.68903 0.0
C370 C 0.3354 0.80167 0.71166 0.0
C371 C 0.34478 0.81547 0.69645 0.0
C372 C 0.31445 0.80601 0.71943 0.0
C373 C 0.30346 0.82431 0.71167 0.0
H374 H 0.30541 0.85229 0.69128 0.0
H375 H 0.36108 0.81245 0.69072 0.0
C376 C 0.42545 0.84355 0.63174 0.0
N377 N 0.41042 0.83747 0.64666 0.0
C378 C 0.44375 0.8307 0.62804 0.0
C379 C 0.43096 0.80578 0.65537 0.0
C380 C 0.413 0.81918 0.65864 0.0
C381 C 0.44659 0.8113 0.6397 0.0
H382 H 0.42304 0.85819 0.62247 0.0
H383 H 0.40074 0.8147 0.67036 0.0
C384 C 0.31479 0.87822 0.6563 0.0
N385 N 0.271 0.8764 0.64692 0.0
C386 C 0.3058 0.85951 0.64718 0.0
C387 C 0.30153 0.89607 0.66044 0.0
C388 C 0.28363 0.8589 0.64261 0.0
C389 C 0.27942 0.89481 0.65566 0.0
C390 C 0.38203 0.89712 0.62099 0.0
C391 C 0.37617 0.91874 0.62414 0.0
C392 C 0.38768 0.88994 0.60028 0.0
C393 C 0.37581 0.93279 0.60642 0.0
C394 C 0.38707 0.90447 0.58297 0.0
N395 N 0.38119 0.92541 0.58637 0.0
C396 C 0.39292 0.9197 0.6857 0.0
C397 C 0.35532 0.92219 0.69309 0.0
C398 C 0.39715 0.93733 0.69932 0.0
N399 N 0.37229 0.91241 0.68301 0.0
C400 C 0.3588 0.93979 0.70693 0.0
C401 C 0.38 0.94747 0.71045 0.0
H402 H 0.40614 0.91154 0.67759 0.0
H403 H 0.33912 0.91584 0.69099 0.0
C404 C 0.33208 0.85758 0.59425 0.0
N405 N 0.33685 0.8743 0.6078 0.0
C406 C 0.31926 0.86095 0.57588 0.0
C407 C 0.31631 0.89866 0.58576 0.0
C408 C 0.32903 0.89452 0.60402 0.0
C409 C 0.31122 0.88174 0.57139 0.0
H410 H 0.33787 0.84151 0.59787 0.0
H411 H 0.33231 0.90739 0.61544 0.0
O412 O 0.37787 0.8596 0.68134 0.0
O413 O 0.35683 0.83807 0.64108 0.0
O414 O 0.33659 0.87943 0.66036 0.0
O415 O 0.38216 0.88306 0.63808 0.0
H416 H 0.40912 0.84816 0.70814 0.0
H417 H 0.34537 0.87615 0.70414 0.0
H418 H 0.40777 0.85251 0.74812 0.0
H419 H 0.34516 0.88009 0.7441 0.0
H420 H 0.39568 0.80551 0.58764 0.0
H421 H 0.35345 0.79762 0.65509 0.0
H422 H 0.37931 0.83806 0.60456 0.0
H423 H 0.37036 0.7658 0.63742 0.0
H424 H 0.34441 0.78771 0.71723 0.0
H425 H 0.28748 0.82847 0.71764 0.0
H426 H 0.4555 0.83589 0.61608 0.0
H427 H 0.4322 0.79092 0.66457 0.0
H428 H 0.31577 0.84557 0.64369 0.0
H429 H 0.30824 0.91081 0.66716 0.0
H430 H 0.27647 0.84451 0.6356 0.0
H431 H 0.26896 0.90849 0.65884 0.0
H432 H 0.37171 0.92457 0.64004 0.0
H433 H 0.39242 0.87332 0.59756 0.0
H434 H 0.37118 0.94953 0.6086 0.0
H435 H 0.39128 0.89911 0.56683 0.0
H436 H 0.41372 0.94283 0.70122 0.0
H437 H 0.34509 0.94677 0.71535 0.0
H438 H 0.31578 0.84744 0.56524 0.0
H439 H 0.31012 0.91485 0.58319 0.0
Li440 Li 0.85471 0.86676 0.88355 0.0
Li441 Li 0.8717 0.88395 0.85136 0.0
Li442 Li 0.85243 0.84928 0.84837 0.0
Li443 Li 0.88792 0.85176 0.86674 0.0
C444 C 0.82163 0.87925 0.84594 0.0
N445 N 0.78369 0.8807 0.82221 0.0
C446 C 0.82067 0.89134 0.82684 0.0
C447 C 0.80324 0.86804 0.85305 0.0
C448 C 0.80135 0.89184 0.81505 0.0
C449 C 0.78424 0.86893 0.8408 0.0
C450 C 0.89101 0.90103 0.88436 0.0
C451 C 0.91611 0.93007 0.87694 0.0
N452 N 0.90381 0.94363 0.88921 0.0
C453 C 0.87862 0.91521 0.89692 0.0
C454 C 0.90993 0.90845 0.87433 0.0
C455 C 0.88538 0.9367 0.89917 0.0
C456 C 0.84781 0.86089 0.9285 0.0
N457 N 0.83931 0.87014 0.91043 0.0
C458 C 0.8065 0.87849 0.92946 0.0
C459 C 0.81933 0.87948 0.91076 0.0
C460 C 0.81426 0.86753 0.94776 0.0
C461 C 0.83537 0.85908 0.94733 0.0
H462 H 0.86385 0.85388 0.92793 0.0
H463 H 0.813 0.88692 0.89626 0.0
C464 C 0.88628 0.90694 0.8153 0.0
N465 N 0.8763 0.90992 0.8347 0.0
C466 C 0.88671 0.92345 0.79995 0.0
C467 C 0.86745 0.94646 0.82503 0.0
C468 C 0.86728 0.92934 0.83998 0.0
C469 C 0.87665 0.94331 0.80443 0.0
H470 H 0.8929 0.89133 0.81119 0.0
H471 H 0.85891 0.93117 0.85527 0.0
C472 C 0.8536 0.82322 0.89188 0.0
N473 N 0.83785 0.79834 0.9256 0.0
C474 C 0.86794 0.81327 0.90626 0.0
C475 C 0.83126 0.8204 0.89456 0.0
C476 C 0.85965 0.80075 0.9232 0.0
C477 C 0.82361 0.80782 0.91175 0.0
C478 C 0.89682 0.8466 0.8256 0.0
C479 C 0.8926 0.82631 0.81647 0.0
C480 C 0.91781 0.85518 0.82472 0.0
C481 C 0.9095 0.81489 0.80667 0.0
C482 C 0.93428 0.84323 0.81481 0.0
N483 N 0.92982 0.8235 0.80607 0.0
C484 C 0.83323 0.8408 0.80864 0.0
C485 C 0.82721 0.81294 0.83435 0.0
C486 C 0.82195 0.82923 0.79288 0.0
N487 N 0.83552 0.8326 0.8289 0.0
C488 C 0.81592 0.8007 0.819 0.0
C489 C 0.8133 0.80877 0.79788 0.0
H490 H 0.84048 0.85624 0.80465 0.0
H491 H 0.82977 0.80654 0.8504 0.0
C492 C 0.93205 0.84598 0.87988 0.0
N493 N 0.91417 0.83597 0.87175 0.0
C494 C 0.95125 0.83435 0.88297 0.0
C495 C 0.93333 0.8024 0.8691 0.0
C496 C 0.91445 0.81459 0.86646 0.0
C497 C 0.95207 0.81225 0.87752 0.0
H498 H 0.93142 0.86301 0.8839 0.0
H499 H 0.89995 0.80702 0.86012 0.0
O500 O 0.8405 0.8783 0.85756 0.0
O501 O 0.88446 0.88006 0.88164 0.0
O502 O 0.86141 0.83575 0.87535 0.0
O503 O 0.8806 0.85787 0.83568 0.0
H504 H 0.83473 0.90003 0.821 0.0
H505 H 0.80366 0.85868 0.86782 0.0
H506 H 0.80041 0.90102 0.80018 0.0
H507 H 0.76992 0.86026 0.84607 0.0
H508 H 0.93066 0.93609 0.86918 0.0
H509 H 0.86389 0.90971 0.90472 0.0
H510 H 0.9196 0.89769 0.86443 0.0
H511 H 0.87593 0.94789 0.90879 0.0
H512 H 0.79026 0.88514 0.92922 0.0
H513 H 0.84191 0.8506 0.96121 0.0
H514 H 0.89411 0.9204 0.78433 0.0
H515 H 0.85934 0.96148 0.82903 0.0
H516 H 0.88528 0.81534 0.90448 0.0
H517 H 0.81994 0.82799 0.8836 0.0
H518 H 0.87056 0.793 0.9345 0.0
H519 H 0.80636 0.80564 0.9141 0.0
H520 H 0.87652 0.81934 0.81713 0.0
H521 H 0.92139 0.87078 0.83188 0.0
H522 H 0.90649 0.79914 0.79961 0.0
H523 H 0.95061 0.84961 0.81415 0.0
H524 H 0.82012 0.83625 0.77693 0.0
H525 H 0.80987 0.78484 0.82346 0.0
H526 H 0.96537 0.84263 0.88933 0.0
H527 H 0.93314 0.78537 0.86495 0.0
Li528 Li 0.1389 0.6696 0.86587 0.0
Li529 Li 0.17516 0.66932 0.84974 0.0
Li530 Li 0.15521 0.63523 0.85345 0.0
Li531 Li 0.17145 0.65299 0.88517 0.0
C532 C 0.12919 0.65686 0.82381 0.0
N533 N 0.09293 0.64734 0.79933 0.0
C534 C 0.12866 0.66215 0.80183 0.0
C535 C 0.11129 0.64671 0.83335 0.0
C536 C 0.11017 0.65722 0.78973 0.0
C537 C 0.09311 0.64203 0.8207 0.0
C538 C 0.17586 0.70313 0.8758 0.0
C539 C 0.20838 0.72475 0.87817 0.0
N540 N 0.1968 0.74256 0.8724 0.0
C541 C 0.16424 0.72166 0.87007 0.0
C542 C 0.19806 0.70468 0.88007 0.0
C543 C 0.17514 0.74144 0.86839 0.0
C544 C 0.10326 0.68666 0.88918 0.0
N545 N 0.11328 0.68662 0.86957 0.0
C546 C 0.08856 0.71328 0.85619 0.0
C547 C 0.10626 0.69947 0.85314 0.0
C548 C 0.07816 0.71406 0.87643 0.0
C549 C 0.08559 0.70031 0.89298 0.0
H550 H 0.10929 0.67639 0.902 0.0
H551 H 0.11476 0.69943 0.83782 0.0
C552 C 0.21491 0.67805 0.82923 0.0
N553 N 0.19437 0.68548 0.83188 0.0
C554 C 0.23024 0.69049 0.81824 0.0
C555 C 0.20269 0.71754 0.81187 0.0
C556 C 0.18785 0.70452 0.823 0.0
C557 C 0.22432 0.71072 0.80978 0.0
H558 H 0.2195 0.6626 0.83588 0.0
H559 H 0.1713 0.70988 0.82511 0.0
C560 C 0.13305 0.62341 0.89173 0.0
N561 N 0.11667 0.58637 0.91074 0.0
C562 C 0.14695 0.60654 0.89743 0.0
C563 C 0.11082 0.6215 0.89571 0.0
C564 C 0.13836 0.58792 0.90702 0.0
C565 C 0.10284 0.60263 0.90534 0.0
C566 C 0.20316 0.62863 0.8664 0.0
C567 C 0.20168 0.60604 0.86611 0.0
C568 C 0.22209 0.63854 0.87401 0.0
C569 C 0.21912 0.59374 0.87359 0.0
C570 C 0.23917 0.62567 0.88136 0.0
N571 N 0.23734 0.60372 0.88101 0.0
C572 C 0.16241 0.60596 0.82022 0.0
C573 C 0.13325 0.59479 0.84257 0.0
C574 C 0.15914 0.58832 0.80642 0.0
N575 N 0.14955 0.6089 0.83786 0.0
C576 C 0.12949 0.57681 0.82928 0.0
C577 C 0.1424 0.57344 0.81076 0.0
H578 H 0.17501 0.61764 0.81664 0.0
H579 H 0.12286 0.59763 0.85634 0.0
C580 C 0.18573 0.66998 0.92452 0.0
N581 N 0.18584 0.65121 0.91301 0.0
C582 C 0.19873 0.67232 0.94286 0.0
C583 C 0.21071 0.63543 0.93831 0.0
C584 C 0.19731 0.63375 0.92006 0.0
C585 C 0.21211 0.65519 0.94955 0.0
H586 H 0.17615 0.68351 0.919 0.0
H587 H 0.19701 0.61881 0.911 0.0
O588 O 0.14728 0.66143 0.83578 0.0
O589 O 0.16558 0.68352 0.87706 0.0
O590 O 0.14106 0.64165 0.88208 0.0
O591 O 0.1863 0.64094 0.85898 0.0
H592 H 0.14242 0.66998 0.79422 0.0
H593 H 0.11142 0.64246 0.85032 0.0
H594 H 0.10953 0.66123 0.77269 0.0
H595 H 0.07916 0.63417 0.82786 0.0
H596 H 0.22559 0.72616 0.88124 0.0
H597 H 0.14704 0.72074 0.86676 0.0
H598 H 0.20726 0.6905 0.88458 0.0
H599 H 0.16638 0.7559 0.86384 0.0
H600 H 0.08358 0.72379 0.84308 0.0
H601 H 0.07793 0.70021 0.90876 0.0
H602 H 0.2466 0.68437 0.8165 0.0
H603 H 0.19746 0.73304 0.8056 0.0
H604 H 0.16413 0.60771 0.89424 0.0
H605 H 0.09983 0.63442 0.89132 0.0
H606 H 0.14893 0.57469 0.91144 0.0
H607 H 0.08567 0.60089 0.90848 0.0
H608 H 0.18719 0.59806 0.86029 0.0
H609 H 0.22351 0.65599 0.87448 0.0
H610 H 0.21816 0.57625 0.87353 0.0
H611 H 0.25385 0.63313 0.88741 0.0
H612 H 0.16926 0.58674 0.79218 0.0
H613 H 0.11653 0.56573 0.83346 0.0
H614 H 0.19872 0.68766 0.95136 0.0
H615 H 0.22067 0.62176 0.94285 0.0
Li616 Li 0.84884 0.17101 0.67412 0.0
Li617 Li 0.86479 0.13383 0.66771 0.0
Li618 Li 0.88433 0.16892 0.65572 0.0
Li619 Li 0.85165 0.15622 0.63768 0.0
C620 C 0.87999 0.16668 0.70553 0.0
N621 N 0.88614 0.18344 0.74655 0.0
C622 C 0.87789 0.15333 0.72368 0.0
C623 C 0.88537 0.1885 0.70823 0.0
C624 C 0.88103 0.16212 0.74429 0.0
C625 C 0.88838 0.19668 0.72911 0.0
C626 C 0.81514 0.14052 0.65366 0.0
C627 C 0.79226 0.11954 0.62989 0.0
N628 N 0.77579 0.13373 0.63337 0.0
C629 C 0.79796 0.15486 0.65707 0.0
C630 C 0.81227 0.12266 0.64004 0.0
C631 C 0.77819 0.15115 0.64665 0.0
C632 C 0.82414 0.20706 0.68738 0.0
N633 N 0.83211 0.18761 0.69382 0.0
C634 C 0.81798 0.19272 0.72945 0.0
C635 C 0.82866 0.17997 0.71417 0.0
C636 C 0.81025 0.2132 0.72346 0.0
C637 C 0.813 0.2202 0.70203 0.0
H638 H 0.82661 0.21248 0.67092 0.0
H639 H 0.83446 0.1641 0.71861 0.0
C640 C 0.88553 0.10122 0.69315 0.0
N641 N 0.86768 0.10607 0.68116 0.0
C642 C 0.88654 0.08174 0.70473 0.0
C643 C 0.85101 0.0725 0.69103 0.0
C644 C 0.85058 0.0922 0.67998 0.0
C645 C 0.8691 0.06707 0.70372 0.0
H646 H 0.89878 0.11269 0.69409 0.0
H647 H 0.83637 0.09662 0.67082 0.0
C648 C 0.86383 0.20529 0.63897 0.0
N649 N 0.87533 0.24481 0.62136 0.0
C650 C 0.86478 0.20789 0.61649 0.0
C651 C 0.86861 0.22283 0.65247 0.0
C652 C 0.87063 0.228 0.60791 0.0
C653 C 0.87445 0.24266 0.64326 0.0
C654 C 0.88564 0.13386 0.61974 0.0
C655 C 0.89196 0.14883 0.60399 0.0
C656 C 0.88494 0.11181 0.61469 0.0
C657 C 0.89725 0.14148 0.58326 0.0
C658 C 0.89041 0.10511 0.59378 0.0
N659 N 0.89637 0.11996 0.57863 0.0
C660 C 0.92585 0.17952 0.6715 0.0
C661 C 0.91756 0.19781 0.63893 0.0
C662 C 0.94473 0.19181 0.67403 0.0
N663 N 0.91226 0.18322 0.65459 0.0
C664 C 0.93618 0.21066 0.64093 0.0
C665 C 0.94976 0.20822 0.65905 0.0
H666 H 0.92166 0.16747 0.6835 0.0
H667 H 0.90703 0.20009 0.62522 0.0
C668 C 0.82094 0.17326 0.60998 0.0
N669 N 0.83528 0.1566 0.61087 0.0
C670 C 0.80735 0.17584 0.59215 0.0
C671 C 0.8231 0.14382 0.57626 0.0
C672 C 0.83634 0.14174 0.5946 0.0
C673 C 0.80845 0.1612 0.57476 0.0
H674 H 0.81993 0.18455 0.62334 0.0
H675 H 0.84721 0.12816 0.59583 0.0
O676 O 0.87663 0.15845 0.68522 0.0
O677 O 0.83478 0.14422 0.66327 0.0
O678 O 0.85803 0.18575 0.64768 0.0
O679 O 0.88041 0.1407 0.6401 0.0
H680 H 0.87359 0.13643 0.72189 0.0
H681 H 0.88718 0.199 0.69436 0.0
H682 H 0.87933 0.15201 0.75849 0.0
H683 H 0.89248 0.21356 0.73143 0.0
H684 H 0.78988 0.10591 0.61913 0.0
H685 H 0.79991 0.1688 0.66749 0.0
H686 H 0.82551 0.11162 0.6369 0.0
H687 H 0.76479 0.16217 0.64906 0.0
H688 H 0.81579 0.18666 0.74577 0.0
H689 H 0.80716 0.23589 0.69685 0.0
H690 H 0.90082 0.07812 0.71425 0.0
H691 H 0.83708 0.06184 0.69006 0.0
H692 H 0.86136 0.19448 0.60576 0.0
H693 H 0.86781 0.22118 0.66987 0.0
H694 H 0.87153 0.23022 0.59056 0.0
H695 H 0.87825 0.25634 0.65353 0.0
H696 H 0.89262 0.16593 0.60772 0.0
H697 H 0.88012 0.10005 0.62678 0.0
H698 H 0.90206 0.15288 0.57085 0.0
H699 H 0.88988 0.08811 0.58958 0.0
H700 H 0.95501 0.18875 0.68789 0.0
H701 H 0.9393 0.223 0.62888 0.0
H702 H 0.79592 0.18912 0.59216 0.0
H703 H 0.82454 0.13208 0.56331 0.0
Li704 Li 0.15449 0.38804 0.66731 0.0
Li705 Li 0.1727 0.3519 0.67411 0.0
Li706 Li 0.16969 0.36646 0.63775 0.0
Li707 Li 0.13747 0.35187 0.65496 0.0
C708 C 0.20232 0.38901 0.65359 0.0
N709 N 0.23707 0.4075 0.63226 0.0
C710 C 0.22229 0.37838 0.65303 0.0
C711 C 0.20002 0.4091 0.64347 0.0
C712 C 0.23967 0.38799 0.64211 0.0
C713 C 0.21779 0.41817 0.63273 0.0
C714 C 0.1393 0.35389 0.70429 0.0
C715 C 0.1307 0.32298 0.72655 0.0
N716 N 0.13005 0.33607 0.74426 0.0
C717 C 0.13842 0.36706 0.72267 0.0
C718 C 0.13531 0.33169 0.70619 0.0
C719 C 0.13377 0.35773 0.74275 0.0
C720 C 0.13249 0.42792 0.67723 0.0
N721 N 0.14977 0.41499 0.68152 0.0
C722 C 0.16069 0.43798 0.71075 0.0
C723 C 0.16391 0.41979 0.6977 0.0
C724 C 0.14273 0.45149 0.70712 0.0
C725 C 0.1287 0.44639 0.68984 0.0
H726 H 0.1214 0.42362 0.66435 0.0
H727 H 0.17733 0.40901 0.70092 0.0
C728 C 0.20197 0.31958 0.68762 0.0
N729 N 0.19063 0.33728 0.69408 0.0
C730 C 0.21587 0.30912 0.70203 0.0
C731 C 0.20624 0.33545 0.72938 0.0
C732 C 0.19266 0.34546 0.7144 0.0
C733 C 0.21817 0.31707 0.72324 0.0
H734 H 0.20049 0.31381 0.67116 0.0
H735 H 0.1839 0.35991 0.7189 0.0
C736 C 0.13476 0.38572 0.61856 0.0
N737 N 0.12415 0.39669 0.57657 0.0
C738 C 0.12969 0.36956 0.60355 0.0
C739 C 0.13424 0.40746 0.61234 0.0
C740 C 0.12445 0.37544 0.58236 0.0
C741 C 0.12886 0.41267 0.591 0.0
C742 C 0.16152 0.31644 0.63912 0.0
C743 C 0.16085 0.3135 0.61668 0.0
C744 C 0.15904 0.29859 0.65281 0.0
C745 C 0.15755 0.29273 0.60831 0.0
C746 C 0.15572 0.2781 0.64382 0.0
N747 N 0.15505 0.27561 0.62194 0.0
C748 C 0.20192 0.35089 0.61111 0.0
C749 C 0.18561 0.3816 0.59511 0.0
C750 C 0.21573 0.34844 0.59342 0.0
N751 N 0.18693 0.36698 0.61155 0.0
C752 C 0.1991 0.37967 0.5769 0.0
C753 C 0.21421 0.36266 0.57574 0.0
H754 H 0.20316 0.33986 0.62465 0.0
H755 H 0.17417 0.39475 0.59601 0.0
C756 C 0.09537 0.3417 0.66891 0.0
N757 N 0.1103 0.33629 0.65364 0.0
C758 C 0.07649 0.3294 0.67146 0.0
C759 C 0.088 0.30675 0.64178 0.0
C760 C 0.10657 0.31965 0.63966 0.0
C761 C 0.07287 0.31119 0.65824 0.0
H762 H 0.09844 0.35522 0.67961 0.0
H763 H 0.11822 0.31589 0.62723 0.0
O764 O 0.18494 0.37957 0.66356 0.0
O765 O 0.14407 0.3627 0.68455 0.0
O766 O 0.13995 0.38032 0.63934 0.0
O767 O 0.16492 0.33662 0.64763 0.0
H768 H 0.22424 0.36276 0.66074 0.0
H769 H 0.18459 0.41744 0.6437 0.0
H770 H 0.25519 0.3799 0.64141 0.0
H771 H 0.21624 0.43364 0.62469 0.0
H772 H 0.12762 0.30582 0.72826 0.0
H773 H 0.1414 0.38429 0.72145 0.0
H774 H 0.13574 0.32133 0.69209 0.0
H775 H 0.13312 0.36771 0.75714 0.0
H776 H 0.17175 0.44093 0.72404 0.0
H777 H 0.11481 0.45644 0.6862 0.0
H778 H 0.22508 0.29528 0.69646 0.0
H779 H 0.20734 0.34205 0.74559 0.0
H780 H 0.12991 0.35269 0.60822 0.0
H781 H 0.13809 0.42014 0.62384 0.0
H782 H 0.12061 0.36311 0.57051 0.0
H783 H 0.12848 0.42942 0.58589 0.0
H784 H 0.16262 0.32711 0.60581 0.0
H785 H 0.15973 0.30052 0.6702 0.0
H786 H 0.1569 0.29023 0.59099 0.0
H787 H 0.15372 0.26416 0.65423 0.0
H788 H 0.22754 0.33549 0.59365 0.0
H789 H 0.1974 0.3911 0.56373 0.0
H790 H 0.06506 0.33395 0.68397 0.0
H791 H 0.08602 0.29294 0.63115 0.0
Li792 Li 0.63544 0.16796 0.36622 0.0
Li793 Li 0.67107 0.16975 0.34992 0.0
Li794 Li 0.65321 0.13485 0.35282 0.0
Li795 Li 0.66826 0.15404 0.38597 0.0
C796 C 0.63633 0.17467 0.32095 0.0
N797 N 0.62127 0.20381 0.29061 0.0
C798 C 0.63835 0.19691 0.32459 0.0
C799 C 0.62672 0.16723 0.30187 0.0
C800 C 0.63063 0.21139 0.30906 0.0
C801 C 0.61918 0.18223 0.28672 0.0
C802 C 0.66874 0.2032 0.3838 0.0
C803 C 0.69662 0.22481 0.40076 0.0
N804 N 0.68429 0.2428 0.39786 0.0
C805 C 0.6563 0.22191 0.38111 0.0
C806 C 0.68904 0.20465 0.39378 0.0
C807 C 0.66447 0.24178 0.38827 0.0
C808 C 0.60645 0.19353 0.38996 0.0
N809 N 0.6087 0.18315 0.37069 0.0
C810 C 0.57451 0.19695 0.35862 0.0
C811 C 0.59306 0.18436 0.3552 0.0
C812 C 0.57192 0.20819 0.37825 0.0
C813 C 0.58815 0.20619 0.3941 0.0
H814 H 0.61913 0.19229 0.40199 0.0
H815 H 0.59502 0.17573 0.34011 0.0
C816 C 0.69526 0.17521 0.31221 0.0
N817 N 0.68957 0.18567 0.33074 0.0
C818 C 0.70997 0.18461 0.29783 0.0
C819 C 0.71147 0.21611 0.32102 0.0
C820 C 0.69704 0.20594 0.33514 0.0
C821 C 0.71838 0.20524 0.30232 0.0
H822 H 0.68863 0.15935 0.30882 0.0
H823 H 0.69206 0.21425 0.34961 0.0
C824 C 0.61927 0.12918 0.38276 0.0
N825 N 0.57965 0.10828 0.38417 0.0
C826 C 0.61216 0.11955 0.40196 0.0
C827 C 0.60624 0.12822 0.36427 0.0
C828 C 0.59207 0.10904 0.40235 0.0
C829 C 0.58626 0.11757 0.36532 0.0
C830 C 0.7041 0.14135 0.35228 0.0
C831 C 0.70909 0.1273 0.33525 0.0
C832 C 0.72014 0.15508 0.36052 0.0
C833 C 0.72998 0.12751 0.32646 0.0
C834 C 0.74083 0.15484 0.35127 0.0
N835 N 0.74527 0.14119 0.33456 0.0
C836 C 0.65294 0.10762 0.31648 0.0
C837 C 0.64511 0.08919 0.3492 0.0
C838 C 0.65225 0.08819 0.30486 0.0
N839 N 0.64966 0.10774 0.33825 0.0
C840 C 0.64409 0.06941 0.33819 0.0
C841 C 0.64806 0.06863 0.31572 0.0
H842 H 0.65674 0.1226 0.30822 0.0
H843 H 0.6426 0.08971 0.36652 0.0
C844 C 0.67613 0.16548 0.4294 0.0
N845 N 0.68277 0.15208 0.41325 0.0
C846 C 0.68865 0.16788 0.4481 0.0
C847 C 0.71386 0.14154 0.43389 0.0
C848 C 0.70096 0.13983 0.41531 0.0
C849 C 0.70808 0.15622 0.45028 0.0
H850 H 0.66171 0.1752 0.42723 0.0
H851 H 0.70601 0.12948 0.40211 0.0
O852 O 0.6438 0.16015 0.33588 0.0
O853 O 0.66094 0.18359 0.37694 0.0
O854 O 0.63887 0.13958 0.38218 0.0
O855 O 0.6836 0.14171 0.36077 0.0
H856 H 0.64586 0.20291 0.33919 0.0
H857 H 0.62504 0.15004 0.29882 0.0
H858 H 0.63209 0.22865 0.31167 0.0
H859 H 0.61166 0.17671 0.27189 0.0
H860 H 0.71231 0.22614 0.40847 0.0
H861 H 0.64052 0.22116 0.37351 0.0
H862 H 0.6989 0.19042 0.39612 0.0
H863 H 0.65503 0.25638 0.38622 0.0
H864 H 0.56226 0.19774 0.34609 0.0
H865 H 0.58698 0.21471 0.40938 0.0
H866 H 0.71473 0.17587 0.28338 0.0
H867 H 0.71763 0.23207 0.32497 0.0
H868 H 0.62207 0.1202 0.41641 0.0
H869 H 0.61146 0.13557 0.34926 0.0
H870 H 0.58636 0.10151 0.4171 0.0
H871 H 0.57601 0.11669 0.35114 0.0
H872 H 0.69693 0.11645 0.32878 0.0
H873 H 0.71661 0.16594 0.37375 0.0
H874 H 0.73402 0.11683 0.31318 0.0
H875 H 0.75334 0.16552 0.35737 0.0
H876 H 0.65575 0.08847 0.28768 0.0
H877 H 0.64043 0.05485 0.34725 0.0
H878 H 0.68353 0.17925 0.46043 0.0
H879 H 0.7288 0.13239 0.43488 0.0
Li880 Li 0.63483 0.67065 0.64905 0.0
Li881 Li 0.67056 0.67329 0.66922 0.0
Li882 Li 0.66789 0.65367 0.63605 0.0
Li883 Li 0.65197 0.63772 0.66798 0.0
C884 C 0.67119 0.69387 0.62256 0.0
N885 N 0.6901 0.70989 0.58526 0.0
C886 C 0.69127 0.70437 0.62352 0.0
C887 C 0.66064 0.69169 0.60265 0.0
C888 C 0.70059 0.71229 0.60448 0.0
C889 C 0.67047 0.69989 0.58397 0.0
C890 C 0.63298 0.67781 0.69696 0.0
C891 C 0.62267 0.68241 0.73436 0.0
N892 N 0.61585 0.70285 0.72987 0.0
C893 C 0.6259 0.69888 0.69272 0.0
C894 C 0.63134 0.66948 0.71794 0.0
C895 C 0.61727 0.71127 0.70957 0.0
C896 C 0.58928 0.68049 0.65252 0.0
N897 N 0.60846 0.6863 0.64322 0.0
C898 C 0.59194 0.71748 0.62729 0.0
C899 C 0.61007 0.70452 0.63097 0.0
C900 C 0.57192 0.71197 0.63663 0.0
C901 C 0.57071 0.69324 0.64951 0.0
H902 H 0.58851 0.66619 0.6626 0.0
H903 H 0.62557 0.70935 0.62445 0.0
C904 C 0.71091 0.6896 0.6798 0.0
N905 N 0.68972 0.69125 0.68565 0.0
C906 C 0.72666 0.70224 0.68993 0.0
C907 C 0.69861 0.71801 0.71222 0.0
C908 C 0.68338 0.70496 0.70168 0.0
C909 C 0.72057 0.71688 0.70623 0.0
H910 H 0.71555 0.67857 0.66702 0.0
H911 H 0.66658 0.70607 0.70622 0.0
C912 C 0.63704 0.62547 0.62226 0.0
N913 N 0.6347 0.59569 0.58901 0.0
C914 C 0.65008 0.60701 0.62266 0.0
C915 C 0.62269 0.62876 0.60508 0.0
C916 C 0.64871 0.59216 0.60564 0.0
C917 C 0.62177 0.6135 0.5884 0.0
C918 C 0.69525 0.63725 0.67953 0.0
C919 C 0.71465 0.62625 0.67563 0.0
C920 C 0.68856 0.64098 0.70084 0.0
C921 C 0.72701 0.61907 0.69314 0.0
C922 C 0.70137 0.63353 0.71792 0.0
N923 N 0.72016 0.62282 0.71375 0.0
C924 C 0.70732 0.65256 0.61519 0.0
C925 C 0.67923 0.6443 0.59037 0.0
C926 C 0.72246 0.6536 0.59844 0.0
N927 N 0.68606 0.64852 0.61093 0.0
C928 C 0.69398 0.64486 0.57307 0.0
C929 C 0.71577 0.65021 0.57701 0.0
H930 H 0.71233 0.65621 0.63156 0.0
H931 H 0.66223 0.64179 0.58711 0.0
C932 C 0.62796 0.61221 0.69753 0.0
N933 N 0.64609 0.61234 0.68502 0.0
C934 C 0.62452 0.59564 0.71257 0.0
C935 C 0.65809 0.57916 0.70107 0.0
C936 C 0.66075 0.59593 0.68607 0.0
C937 C 0.64 0.57907 0.71499 0.0
H938 H 0.61648 0.62536 0.6963 0.0
H939 H 0.67499 0.59628 0.67586 0.0
O940 O 0.66207 0.68545 0.64095 0.0
O941 O 0.64111 0.66525 0.68062 0.0
O942 O 0.63814 0.64019 0.63873 0.0
O943 O 0.68309 0.64445 0.66248 0.0
H944 H 0.69962 0.70629 0.63878 0.0
H945 H 0.64522 0.68334 0.60156 0.0
H946 H 0.71619 0.72032 0.60497 0.0
H947 H 0.66258 0.69813 0.56844 0.0
H948 H 0.62133 0.67617 0.75067 0.0
H949 H 0.62741 0.70576 0.6767 0.0
H950 H 0.63673 0.65321 0.72152 0.0
H951 H 0.6118 0.72762 0.70654 0.0
H952 H 0.59371 0.73201 0.61762 0.0
H953 H 0.55557 0.68845 0.65703 0.0
H954 H 0.74343 0.70053 0.68502 0.0
H955 H 0.69314 0.72921 0.72456 0.0
H956 H 0.66127 0.6043 0.63588 0.0
H957 H 0.61248 0.64299 0.60462 0.0
H958 H 0.65878 0.57784 0.60565 0.0
H959 H 0.6108 0.61583 0.57494 0.0
H960 H 0.72007 0.62329 0.65922 0.0
H961 H 0.67368 0.64954 0.70418 0.0
H962 H 0.74204 0.61051 0.69036 0.0
H963 H 0.69637 0.63628 0.73448 0.0
H964 H 0.73914 0.65771 0.60215 0.0
H965 H 0.68818 0.64243 0.5567 0.0
H966 H 0.61003 0.59606 0.72247 0.0
H967 H 0.67057 0.56693 0.70232 0.0
Li968 Li 0.65281 0.38839 0.85241 0.0
Li969 Li 0.66829 0.37152 0.88382 0.0
Li970 Li 0.67217 0.3548 0.84843 0.0
Li971 Li 0.63616 0.35362 0.86782 0.0
C972 C 0.69335 0.40157 0.85252 0.0
N973 N 0.71181 0.44056 0.84056 0.0
C974 C 0.6976 0.41742 0.86813 0.0
C975 C 0.69863 0.40549 0.83086 0.0
C976 C 0.70693 0.43704 0.86175 0.0
C977 C 0.70789 0.42533 0.82512 0.0
C978 C 0.63328 0.39027 0.90163 0.0
C979 C 0.61443 0.38575 0.93556 0.0
N980 N 0.62338 0.40453 0.94287 0.0
C981 C 0.64228 0.40953 0.90945 0.0
C982 C 0.61924 0.37826 0.91476 0.0
C983 C 0.63709 0.41646 0.93036 0.0
C984 C 0.64123 0.41487 0.81637 0.0
N985 N 0.64684 0.41531 0.83767 0.0
C986 C 0.64731 0.45408 0.83724 0.0
C987 C 0.64963 0.43444 0.84823 0.0
C988 C 0.64183 0.45416 0.81513 0.0
C989 C 0.63865 0.43414 0.80475 0.0
H990 H 0.6389 0.39954 0.8083 0.0
H991 H 0.65419 0.43448 0.86509 0.0
C992 C 0.70726 0.37424 0.9059 0.0
N993 N 0.68557 0.37438 0.90995 0.0
C994 C 0.72214 0.37259 0.92281 0.0
C995 C 0.69231 0.3722 0.94815 0.0
C996 C 0.6779 0.37345 0.93064 0.0
C997 C 0.71471 0.37126 0.94422 0.0
H998 H 0.71304 0.3743 0.88938 0.0
H999 H 0.6607 0.3725 0.93363 0.0
C1000 C 0.64234 0.35092 0.81764 0.0
N1001 N 0.64241 0.32828 0.77904 0.0
C1002 C 0.62866 0.33305 0.8149 0.0
C1003 C 0.65592 0.35739 0.80068 0.0
C1004 C 0.62896 0.3218 0.79527 0.0
C1005 C 0.65576 0.34569 0.78132 0.0
C1006 C 0.67318 0.32975 0.89252 0.0
C1007 C 0.69495 0.32361 0.89147 0.0
C1008 C 0.66115 0.32555 0.91124 0.0
C1009 C 0.70443 0.31353 0.90935 0.0
C1010 C 0.67121 0.3154 0.92876 0.0
N1011 N 0.69247 0.30969 0.92747 0.0
C1012 C 0.71219 0.34497 0.82935 0.0
C1013 C 0.68522 0.31801 0.82423 0.0
C1014 C 0.7276 0.33212 0.81898 0.0
N1015 N 0.6915 0.33774 0.83177 0.0
C1016 C 0.69999 0.30481 0.81335 0.0
C1017 C 0.72153 0.31177 0.81091 0.0
H1018 H 0.71687 0.36048 0.83602 0.0
H1019 H 0.66886 0.31235 0.82706 0.0
C1020 C 0.5906 0.34233 0.87224 0.0
N1021 N 0.61147 0.33518 0.87219 0.0
C1022 C 0.57343 0.32768 0.87522 0.0
C1023 C 0.59958 0.29872 0.87773 0.0
C1024 C 0.61613 0.31383 0.87462 0.0
C1025 C 0.57786 0.30553 0.87823 0.0
H1026 H 0.58731 0.35939 0.87005 0.0
H1027 H 0.6328 0.30847 0.87402 0.0
O1028 O 0.68394 0.38239 0.85839 0.0
O1029 O 0.63785 0.38338 0.88109 0.0
O1030 O 0.64241 0.36202 0.83682 0.0
O1031 O 0.66383 0.34035 0.87551 0.0
H1032 H 0.69349 0.41471 0.88494 0.0
H1033 H 0.69546 0.39338 0.81859 0.0
H1034 H 0.71021 0.44949 0.87363 0.0
H1035 H 0.71194 0.42864 0.8084 0.0
H1036 H 0.60361 0.37662 0.94591 0.0
H1037 H 0.65333 0.4189 0.8996 0.0
H1038 H 0.61218 0.3633 0.90899 0.0
H1039 H 0.64401 0.43128 0.93666 0.0
H1040 H 0.65025 0.46903 0.84592 0.0
H1041 H 0.63405 0.43333 0.78786 0.0
H1042 H 0.73931 0.37173 0.91916 0.0
H1043 H 0.686 0.37077 0.96446 0.0
H1044 H 0.61797 0.32789 0.82779 0.0
H1045 H 0.66667 0.37112 0.80255 0.0
H1046 H 0.61852 0.3079 0.79295 0.0
H1047 H 0.66631 0.35041 0.76812 0.0
H1048 H 0.70449 0.32686 0.87711 0.0
H1049 H 0.64432 0.33038 0.91234 0.0
H1050 H 0.72132 0.30885 0.90886 0.0
H1051 H 0.66216 0.31218 0.94342 0.0
H1052 H 0.74411 0.33793 0.81741 0.0
H1053 H 0.69488 0.28903 0.80761 0.0
H1054 H 0.55693 0.33364 0.87555 0.0
H1055 H 0.60377 0.28179 0.87949 0.0
Li1056 Li 0.35299 0.15333 0.884 0.0
Li1057 Li 0.36791 0.13663 0.84979 0.0
Li1058 Li 0.38584 0.16933 0.86758 0.0
Li1059 Li 0.35137 0.17173 0.85041 0.0
C1060 C 0.38405 0.11926 0.88882 0.0
N1061 N 0.38771 0.07896 0.90782 0.0
C1062 C 0.36761 0.10386 0.88615 0.0
C1063 C 0.40234 0.11418 0.90112 0.0
C1064 C 0.36978 0.08357 0.89588 0.0
C1065 C 0.40388 0.09372 0.91063 0.0
C1066 C 0.31923 0.14481 0.84511 0.0
C1067 C 0.3013 0.14139 0.81056 0.0
N1068 N 0.28254 0.14849 0.81969 0.0
C1069 C 0.29974 0.15196 0.85417 0.0
C1070 C 0.32002 0.13942 0.82313 0.0
C1071 C 0.28139 0.15377 0.84104 0.0
C1072 C 0.31914 0.16095 0.9133 0.0
N1073 N 0.33725 0.14866 0.9107 0.0
C1074 C 0.33041 0.13089 0.94448 0.0
C1075 C 0.34335 0.13423 0.92616 0.0
C1076 C 0.31106 0.14264 0.94711 0.0
C1077 C 0.30572 0.15814 0.93136 0.0
H1078 H 0.315 0.17285 0.90117 0.0
H1079 H 0.3582 0.12521 0.9244 0.0
C1080 C 0.39317 0.10681 0.82559 0.0
N1081 N 0.37302 0.11047 0.83372 0.0
C1082 C 0.39731 0.08827 0.81323 0.0
C1083 C 0.35987 0.07761 0.81779 0.0
C1084 C 0.35652 0.09621 0.83027 0.0
C1085 C 0.38049 0.07344 0.80906 0.0
H1086 H 0.406 0.11841 0.82856 0.0
H1087 H 0.3407 0.0993 0.83714 0.0
C1088 C 0.36509 0.19366 0.89805 0.0
N1089 N 0.37628 0.21271 0.93702 0.0
C1090 C 0.35871 0.21488 0.90264 0.0
C1091 C 0.37726 0.18217 0.9133 0.0
C1092 C 0.36451 0.22422 0.92242 0.0
C1093 C 0.38271 0.19207 0.9329 0.0
C1094 C 0.38117 0.1738 0.81753 0.0
C1095 C 0.38459 0.19616 0.81695 0.0
C1096 C 0.37971 0.16213 0.79819 0.0
C1097 C 0.38621 0.20656 0.79693 0.0
C1098 C 0.38145 0.17313 0.7785 0.0
N1099 N 0.38461 0.19493 0.77829 0.0
C1100 C 0.43146 0.17336 0.87557 0.0
C1101 C 0.4123 0.20635 0.87181 0.0
C1102 C 0.45095 0.18466 0.87852 0.0
N1103 N 0.41266 0.18433 0.87232 0.0
C1104 C 0.43137 0.21827 0.87466 0.0
C1105 C 0.45111 0.20746 0.87808 0.0
H1106 H 0.43133 0.15585 0.87573 0.0
H1107 H 0.39713 0.2147 0.86918 0.0
C1108 C 0.32434 0.20752 0.84616 0.0
N1109 N 0.33362 0.19145 0.83434 0.0
C1110 C 0.31207 0.22351 0.83604 0.0
C1111 C 0.31829 0.20566 0.80177 0.0
C1112 C 0.33052 0.19005 0.81257 0.0
C1113 C 0.30916 0.22284 0.81352 0.0
H1114 H 0.32658 0.20799 0.86349 0.0
H1115 H 0.33766 0.17695 0.80348 0.0
O1116 O 0.38242 0.13917 0.87932 0.0
O1117 O 0.33749 0.14325 0.85761 0.0
O1118 O 0.35959 0.18446 0.87861 0.0
O1119 O 0.3795 0.16328 0.83692 0.0
H1120 H 0.35324 0.1076 0.87689 0.0
H1121 H 0.41519 0.12594 0.90333 0.0
H1122 H 0.35717 0.07151 0.89399 0.0
H1123 H 0.41793 0.08956 0.92023 0.0
H1124 H 0.30174 0.13743 0.7935 0.0
H1125 H 0.29874 0.15609 0.87112 0.0
H1126 H 0.33505 0.13425 0.81573 0.0
H1127 H 0.26622 0.15936 0.84784 0.0
H1128 H 0.33554 0.1192 0.95648 0.0
H1129 H 0.29102 0.16763 0.93262 0.0
H1130 H 0.41342 0.08574 0.8067 0.0
H1131 H 0.34654 0.06646 0.81524 0.0
H1132 H 0.34947 0.22413 0.891 0.0
H1133 H 0.38249 0.1658 0.91014 0.0
H1134 H 0.35968 0.24063 0.92615 0.0
H1135 H 0.39208 0.18333 0.94483 0.0
H1136 H 0.38567 0.20541 0.83178 0.0
H1137 H 0.37709 0.14479 0.79839 0.0
H1138 H 0.38868 0.22389 0.79622 0.0
H1139 H 0.38025 0.16433 0.7634 0.0
H1140 H 0.46579 0.1756 0.88083 0.0
H1141 H 0.43059 0.23578 0.87448 0.0
H1142 H 0.30492 0.23624 0.84575 0.0
H1143 H 0.31647 0.20457 0.78437 0.0
Li1144 Li 0.36934 0.38577 0.35349 0.0
Li1145 Li 0.35327 0.36709 0.38561 0.0
Li1146 Li 0.38625 0.35244 0.36673 0.0
Li1147 Li 0.35146 0.35194 0.34959 0.0
C1148 C 0.3843 0.39905 0.39489 0.0
N1149 N 0.38672 0.43656 0.41915 0.0
C1150 C 0.36663 0.41318 0.39573 0.0
C1151 C 0.40318 0.40399 0.40637 0.0
C1152 C 0.36818 0.43206 0.4081 0.0
C1153 C 0.4041 0.42304 0.41854 0.0
C1154 C 0.31738 0.37598 0.35392 0.0
C1155 C 0.28316 0.35763 0.3588 0.0
N1156 N 0.2754 0.36751 0.34073 0.0
C1157 C 0.30905 0.38602 0.33545 0.0
C1158 C 0.30433 0.3617 0.36573 0.0
C1159 C 0.28779 0.38149 0.32903 0.0
C1160 C 0.36487 0.41394 0.31871 0.0
N1161 N 0.37455 0.41249 0.33843 0.0
C1162 C 0.39182 0.44683 0.3331 0.0
C1163 C 0.38797 0.4284 0.34573 0.0
C1164 C 0.3819 0.44883 0.31268 0.0
C1165 C 0.36821 0.43207 0.3056 0.0
H1166 H 0.35492 0.40071 0.31295 0.0
H1167 H 0.39602 0.42671 0.36115 0.0
C1168 C 0.3446 0.35469 0.42842 0.0
N1169 N 0.33858 0.369 0.41286 0.0
C1170 C 0.33232 0.35255 0.44732 0.0
C1171 C 0.30855 0.3808 0.43445 0.0
C1172 C 0.32127 0.38233 0.41571 0.0
C1173 C 0.31367 0.36528 0.45027 0.0
H1174 H 0.35842 0.34427 0.42571 0.0
H1175 H 0.31671 0.39345 0.40298 0.0
C1176 C 0.39809 0.36579 0.32594 0.0
N1177 N 0.43595 0.37661 0.30452 0.0
C1178 C 0.40109 0.35968 0.30436 0.0
C1179 C 0.41436 0.37741 0.33664 0.0
C1180 C 0.42035 0.36529 0.29381 0.0
C1181 C 0.43338 0.38272 0.32553 0.0
C1182 C 0.35662 0.31546 0.37594 0.0
C1183 C 0.36609 0.30314 0.35949 0.0
C1184 C 0.34338 0.30539 0.39133 0.0
C1185 C 0.36226 0.28085 0.35879 0.0
C1186 C 0.33995 0.28306 0.39007 0.0
N1187 N 0.34939 0.27135 0.37397 0.0
C1188 C 0.42239 0.33659 0.39052 0.0
C1189 C 0.4199 0.32338 0.35461 0.0
C1190 C 0.44037 0.32337 0.39448 0.0
N1191 N 0.41241 0.33617 0.37092 0.0
C1192 C 0.43769 0.3098 0.3579 0.0
C1193 C 0.44806 0.3094 0.37816 0.0
H1194 H 0.41612 0.34691 0.40322 0.0
H1195 H 0.4117 0.32326 0.33915 0.0
C1196 C 0.33675 0.34105 0.3086 0.0
N1197 N 0.3341 0.33579 0.32978 0.0
C1198 C 0.32605 0.32932 0.29254 0.0
C1199 C 0.30958 0.30729 0.32042 0.0
C1200 C 0.32041 0.31965 0.33597 0.0
C1201 C 0.31262 0.31183 0.29831 0.0
H1202 H 0.34741 0.35426 0.30419 0.0
H1203 H 0.31813 0.31609 0.35293 0.0
O1204 O 0.38329 0.3805 0.38285 0.0
O1205 O 0.33833 0.37973 0.36019 0.0
O1206 O 0.37921 0.36045 0.33634 0.0
O1207 O 0.3598 0.33736 0.37672 0.0
H1208 H 0.35196 0.40973 0.38681 0.0
H1209 H 0.41701 0.39321 0.40583 0.0
H1210 H 0.35465 0.44315 0.40888 0.0
H1211 H 0.41863 0.42709 0.42748 0.0
H1212 H 0.27294 0.34649 0.36771 0.0
H1213 H 0.31886 0.39716 0.32615 0.0
H1214 H 0.31063 0.35348 0.37985 0.0
H1215 H 0.28115 0.3891 0.31473 0.0
H1216 H 0.40246 0.45936 0.33925 0.0
H1217 H 0.36061 0.43264 0.2898 0.0
H1218 H 0.33704 0.34059 0.45923 0.0
H1219 H 0.29424 0.39082 0.43599 0.0
H1220 H 0.38866 0.35067 0.29585 0.0
H1221 H 0.41241 0.38229 0.35332 0.0
H1222 H 0.42288 0.36066 0.27711 0.0
H1223 H 0.44609 0.39172 0.3336 0.0
H1224 H 0.37583 0.31078 0.34711 0.0
H1225 H 0.3357 0.31474 0.404 0.0
H1226 H 0.3694 0.27112 0.34608 0.0
H1227 H 0.32972 0.27505 0.40185 0.0
H1228 H 0.44801 0.32398 0.41024 0.0
H1229 H 0.44275 0.29919 0.34488 0.0
H1230 H 0.32844 0.33384 0.27577 0.0
H1231 H 0.29949 0.29394 0.3257 0.0
Li1232 Li 0.35176 0.66987 0.17333 0.0
Li1233 Li 0.36941 0.63519 0.17058 0.0
Li1234 Li 0.38578 0.66973 0.1539 0.0
Li1235 Li 0.35292 0.6528 0.13898 0.0
C1236 C 0.38121 0.67311 0.20358 0.0
N1237 N 0.38 0.69662 0.24161 0.0
C1238 C 0.37364 0.6635 0.22263 0.0
C1239 C 0.38835 0.6946 0.20389 0.0
C1240 C 0.3731 0.67569 0.24169 0.0
C1241 C 0.38758 0.70623 0.22328 0.0
C1242 C 0.32657 0.62347 0.16274 0.0
C1243 C 0.32317 0.58731 0.14839 0.0
N1244 N 0.30275 0.58604 0.15664 0.0
C1245 C 0.30558 0.6218 0.17113 0.0
C1246 C 0.33547 0.6061 0.15132 0.0
C1247 C 0.29378 0.60274 0.16784 0.0
C1248 C 0.33636 0.70842 0.19324 0.0
N1249 N 0.33498 0.68645 0.19295 0.0
C1250 C 0.31096 0.68664 0.22324 0.0
C1251 C 0.3225 0.67547 0.20737 0.0
C1252 C 0.31229 0.70933 0.2242 0.0
C1253 C 0.32502 0.72027 0.2088 0.0
H1254 H 0.34667 0.71667 0.1817 0.0
H1255 H 0.32191 0.65798 0.20681 0.0
C1256 C 0.39284 0.59685 0.18265 0.0
N1257 N 0.375 0.60919 0.18638 0.0
C1258 C 0.39693 0.57862 0.19549 0.0
C1259 C 0.36401 0.58598 0.2154 0.0
C1260 C 0.36063 0.60407 0.2023 0.0
C1261 C 0.38247 0.57306 0.21225 0.0
H1262 H 0.40404 0.60133 0.16991 0.0
H1263 H 0.34669 0.61431 0.20507 0.0
C1264 C 0.34071 0.69576 0.13865 0.0
N1265 N 0.30528 0.71927 0.12458 0.0
C1266 C 0.31965 0.68804 0.14222 0.0
C1267 C 0.34367 0.71552 0.128 0.0
C1268 C 0.30198 0.70013 0.13496 0.0
C1269 C 0.32557 0.72714 0.121 0.0
C1270 C 0.39008 0.63291 0.12151 0.0
C1271 C 0.39844 0.64779 0.10664 0.0
C1272 C 0.38987 0.61087 0.11633 0.0
C1273 C 0.40587 0.64046 0.08657 0.0
C1274 C 0.39748 0.60417 0.0961 0.0
N1275 N 0.40522 0.61898 0.08174 0.0
C1276 C 0.43067 0.68196 0.15844 0.0
C1277 C 0.40953 0.70322 0.1346 0.0
C1278 C 0.44877 0.6953 0.15488 0.0
N1279 N 0.41156 0.68616 0.14829 0.0
C1280 C 0.42705 0.71699 0.13069 0.0
C1281 C 0.44711 0.71317 0.14082 0.0
H1282 H 0.4318 0.66839 0.16945 0.0
H1283 H 0.39417 0.70622 0.12681 0.0
C1284 C 0.31727 0.6405 0.11037 0.0
N1285 N 0.33723 0.64989 0.11184 0.0
C1286 C 0.3052 0.64195 0.09124 0.0
C1287 C 0.33444 0.66241 0.07524 0.0
C1288 C 0.34585 0.66072 0.09469 0.0
C1289 C 0.31358 0.65335 0.07341 0.0
H1290 H 0.31004 0.63283 0.12426 0.0
H1291 H 0.36118 0.669 0.09642 0.0
O1292 O 0.38115 0.66172 0.1846 0.0
O1293 O 0.33835 0.64196 0.16602 0.0
O1294 O 0.35836 0.68411 0.1454 0.0
O1295 O 0.38288 0.63979 0.14133 0.0
H1296 H 0.36799 0.64691 0.22263 0.0
H1297 H 0.39413 0.7023 0.18923 0.0
H1298 H 0.36712 0.66853 0.25652 0.0
H1299 H 0.3929 0.72292 0.22374 0.0
H1300 H 0.32987 0.57375 0.13956 0.0
H1301 H 0.29847 0.63512 0.18003 0.0
H1302 H 0.35165 0.60716 0.1448 0.0
H1303 H 0.2775 0.60123 0.17421 0.0
H1304 H 0.30114 0.67761 0.23465 0.0
H1305 H 0.32667 0.73772 0.20915 0.0
H1306 H 0.41126 0.56901 0.19235 0.0
H1307 H 0.35259 0.58254 0.2283 0.0
H1308 H 0.31688 0.67288 0.15046 0.0
H1309 H 0.35976 0.72188 0.12515 0.0
H1310 H 0.28564 0.69429 0.13758 0.0
H1311 H 0.32767 0.74243 0.11272 0.0
H1312 H 0.39895 0.66486 0.11044 0.0
H1313 H 0.38411 0.59899 0.12785 0.0
H1314 H 0.41217 0.65185 0.07483 0.0
H1315 H 0.39732 0.58718 0.09185 0.0
H1316 H 0.46389 0.69155 0.16293 0.0
H1317 H 0.42471 0.73074 0.12009 0.0
H1318 H 0.28902 0.6351 0.09085 0.0
H1319 H 0.34174 0.67124 0.06195 0.0
Li1320 Li 0.65657 0.88594 0.16715 0.0
Li1321 Li 0.6728 0.84884 0.1719 0.0
Li1322 Li 0.67115 0.86533 0.13607 0.0
Li1323 Li 0.63852 0.8511 0.15242 0.0
C1324 C 0.70506 0.88434 0.15391 0.0
N1325 N 0.74238 0.90039 0.13506 0.0
C1326 C 0.72397 0.87192 0.15377 0.0
C1327 C 0.70513 0.90496 0.14464 0.0
C1328 C 0.74268 0.88031 0.14411 0.0
C1329 C 0.72416 0.91278 0.13515 0.0
C1330 C 0.64247 0.8524 0.20349 0.0
C1331 C 0.63745 0.82276 0.2284 0.0
N1332 N 0.63941 0.83677 0.24528 0.0
C1333 C 0.64426 0.86654 0.22108 0.0
C1334 C 0.63887 0.83036 0.20715 0.0
C1335 C 0.64273 0.85831 0.24209 0.0
C1336 C 0.63602 0.92426 0.18573 0.0
N1337 N 0.65441 0.91233 0.18329 0.0
C1338 C 0.67253 0.93336 0.2103 0.0
C1339 C 0.67256 0.91686 0.19492 0.0
C1340 C 0.6536 0.94541 0.21394 0.0
C1341 C 0.63532 0.94114 0.20098 0.0
H1342 H 0.62167 0.9201 0.17655 0.0
H1343 H 0.68685 0.90694 0.19299 0.0
C1344 C 0.69933 0.81389 0.18573 0.0
N1345 N 0.69056 0.83326 0.19134 0.0
C1346 C 0.71377 0.80352 0.19971 0.0
C1347 C 0.70959 0.83316 0.22495 0.0
C1348 C 0.69552 0.84306 0.21039 0.0
C1349 C 0.7192 0.81324 0.2196 0.0
H1350 H 0.6956 0.80679 0.17017 0.0
H1351 H 0.68883 0.85879 0.21411 0.0
C1352 C 0.63989 0.89245 0.12011 0.0
N1353 N 0.63465 0.91695 0.08311 0.0
C1354 C 0.63311 0.88264 0.10088 0.0
C1355 C 0.64387 0.91473 0.12061 0.0
C1356 C 0.63061 0.8953 0.08231 0.0
C1357 C 0.64115 0.92684 0.1017 0.0
C1358 C 0.6592 0.81596 0.13533 0.0
C1359 C 0.65858 0.81374 0.1128 0.0
C1360 C 0.65362 0.79838 0.14845 0.0
C1361 C 0.65212 0.79401 0.10379 0.0
C1362 C 0.64722 0.77892 0.13881 0.0
N1363 N 0.6466 0.77716 0.11687 0.0
C1364 C 0.70292 0.84966 0.10893 0.0
C1365 C 0.68852 0.88197 0.09436 0.0
C1366 C 0.71686 0.8474 0.0913 0.0
N1367 N 0.6888 0.86648 0.11005 0.0
C1368 C 0.70201 0.88014 0.07614 0.0
C1369 C 0.71627 0.86246 0.07424 0.0
H1370 H 0.70338 0.83789 0.12188 0.0
H1371 H 0.67793 0.89574 0.09582 0.0
C1372 C 0.59752 0.83263 0.1644 0.0
N1373 N 0.61148 0.83611 0.14768 0.0
C1374 C 0.57861 0.82039 0.16132 0.0
C1375 C 0.58873 0.81562 0.12387 0.0
C1376 C 0.60717 0.82823 0.12759 0.0
C1377 C 0.57404 0.81147 0.14083 0.0
H1378 H 0.60107 0.83928 0.1802 0.0
H1379 H 0.61826 0.8314 0.11445 0.0
O1380 O 0.68643 0.87615 0.16267 0.0
O1381 O 0.6442 0.86011 0.1828 0.0
O1382 O 0.64207 0.88045 0.13854 0.0
O1383 O 0.66547 0.83516 0.14446 0.0
H1384 H 0.72411 0.85588 0.16083 0.0
H1385 H 0.69056 0.91471 0.14459 0.0
H1386 H 0.75741 0.87085 0.14375 0.0
H1387 H 0.72444 0.92867 0.12779 0.0
H1388 H 0.63477 0.80572 0.23146 0.0
H1389 H 0.64692 0.88367 0.21856 0.0
H1390 H 0.63723 0.81925 0.19372 0.0
H1391 H 0.6442 0.86905 0.25586 0.0
H1392 H 0.68705 0.93625 0.21975 0.0
H1393 H 0.62036 0.94999 0.20339 0.0
H1394 H 0.72108 0.78841 0.19468 0.0
H1395 H 0.71301 0.84117 0.24017 0.0
H1396 H 0.62999 0.86542 0.10024 0.0
H1397 H 0.649 0.92257 0.13543 0.0
H1398 H 0.62549 0.88792 0.06727 0.0
H1399 H 0.64421 0.94409 0.10181 0.0
H1400 H 0.6627 0.82721 0.10238 0.0
H1401 H 0.65424 0.79972 0.16588 0.0
H1402 H 0.65142 0.79211 0.08639 0.0
H1403 H 0.64278 0.76522 0.14878 0.0
H1404 H 0.72806 0.83392 0.09116 0.0
H1405 H 0.70094 0.89227 0.06354 0.0
H1406 H 0.56766 0.8181 0.17484 0.0
H1407 H 0.58633 0.8089 0.10786 0.0
H1408 H 0.2229 0.23396 0.24636 0.0
H1409 H 0.26557 0.22728 0.19075 0.0
H1410 H 0.29199 0.25173 0.20804 0.0
H1411 H 0.23348 0.29103 0.25522 0.0
H1412 H 0.23228 0.28879 0.28429 0.0
H1413 H 0.21673 0.27054 0.26763 0.0
H1414 H 0.23489 0.23779 0.2865 0.0
H1415 H 0.25055 0.25594 0.30316 0.0
H1416 H 0.26406 0.23584 0.28687 0.0
H1417 H 0.31414 0.27607 0.23156 0.0
H1418 H 0.33036 0.29942 0.25951 0.0
H1419 H 0.27228 0.29232 0.29884 0.0
C1420 C 0.23769 0.23779 0.2377 0.0
C1421 C 0.2422 0.22851 0.21724 0.0
C1422 C 0.2619 0.23378 0.20661 0.0
C1423 C 0.27696 0.2478 0.21622 0.0
C1424 C 0.27203 0.25656 0.23639 0.0
C1425 C 0.25285 0.25187 0.24698 0.0
C1426 C 0.25153 0.26352 0.26853 0.0
C1427 C 0.23237 0.27941 0.26893 0.0
C1428 C 0.25018 0.2473 0.28738 0.0
C1429 C 0.27305 0.27539 0.26842 0.0
C1430 C 0.28461 0.27111 0.24975 0.0
C1431 C 0.30515 0.27976 0.24616 0.0
C1432 C 0.31414 0.29317 0.26209 0.0
C1433 C 0.30256 0.29797 0.28136 0.0
C1434 C 0.28168 0.28892 0.28442 0.0
H1435 H 0.77354 0.29984 0.23359 0.0
H1436 H 0.82791 0.25668 0.22295 0.0
H1437 H 0.80895 0.22786 0.24342 0.0
H1438 H 0.7629 0.28299 0.28814 0.0
H1439 H 0.73387 0.28541 0.28572 0.0
H1440 H 0.75137 0.30227 0.26953 0.0
H1441 H 0.73241 0.28849 0.23469 0.0
H1442 H 0.71487 0.27155 0.25078 0.0
H1443 H 0.731 0.2598 0.22947 0.0
H1444 H 0.78388 0.20373 0.26451 0.0
H1445 H 0.75549 0.18669 0.28719 0.0
H1446 H 0.7182 0.24612 0.28531 0.0
C1447 C 0.78134 0.28425 0.23549 0.0
C1448 C 0.80208 0.28034 0.22669 0.0
C1449 C 0.81202 0.25993 0.2297 0.0
C1450 C 0.80136 0.24348 0.24118 0.0
C1451 C 0.78089 0.24784 0.24967 0.0
C1452 C 0.77105 0.26778 0.24715 0.0
C1453 C 0.74936 0.26855 0.25861 0.0
C1454 C 0.74939 0.28583 0.27657 0.0
C1455 C 0.73082 0.27231 0.24242 0.0
C1456 C 0.74853 0.24593 0.26796 0.0
C1457 C 0.76675 0.23416 0.26242 0.0
C1458 C 0.76955 0.21277 0.26899 0.0
C1459 C 0.75334 0.20321 0.28174 0.0
C1460 C 0.73477 0.21514 0.28794 0.0
C1461 C 0.73235 0.23673 0.28089 0.0
H1462 H 0.28917 0.74707 0.22026 0.0
H1463 H 0.30953 0.69888 0.26713 0.0
H1464 H 0.28987 0.71852 0.29587 0.0
H1465 H 0.29369 0.79348 0.25596 0.0
H1466 H 0.27009 0.80669 0.24499 0.0
H1467 H 0.28604 0.78899 0.22815 0.0
H1468 H 0.25172 0.76625 0.21958 0.0
H1469 H 0.23569 0.78384 0.23643 0.0
H1470 H 0.23598 0.75511 0.24153 0.0
H1471 H 0.26749 0.74284 0.31927 0.0
H1472 H 0.24367 0.77021 0.33588 0.0
H1473 H 0.2388 0.80328 0.27403 0.0
C1474 C 0.28967 0.74078 0.23662 0.0
C1475 C 0.3008 0.72141 0.24147 0.0
C1476 C 0.30084 0.71353 0.26301 0.0
C1477 C 0.28985 0.72463 0.27946 0.0
C1478 C 0.27895 0.7436 0.2741 0.0
C1479 C 0.27878 0.75165 0.25323 0.0
C1480 C 0.26549 0.77218 0.25175 0.0
C1481 C 0.27968 0.79148 0.24481 0.0
C1482 C 0.24607 0.76916 0.23642 0.0
C1483 C 0.25817 0.77438 0.27505 0.0
C1484 C 0.26615 0.75775 0.28767 0.0
C1485 C 0.26129 0.75606 0.30961 0.0
C1486 C 0.24786 0.77179 0.31893 0.0
C1487 C 0.23946 0.78902 0.30632 0.0
C1488 C 0.24482 0.79026 0.28409 0.0
H1489 H 0.7802 0.71664 0.28056 0.0
H1490 H 0.81866 0.76568 0.31317 0.0
H1491 H 0.79923 0.79426 0.29313 0.0
H1492 H 0.77769 0.74323 0.22846 0.0
H1493 H 0.75009 0.73511 0.22328 0.0
H1494 H 0.76729 0.71844 0.23989 0.0
H1495 H 0.73911 0.72022 0.27099 0.0
H1496 H 0.72182 0.73688 0.25448 0.0
H1497 H 0.73024 0.74624 0.28082 0.0
H1498 H 0.7762 0.81732 0.26934 0.0
H1499 H 0.75001 0.83376 0.24425 0.0
H1500 H 0.72519 0.76982 0.2282 0.0
C1501 C 0.78461 0.73339 0.28332 0.0
C1502 C 0.80091 0.73901 0.29838 0.0
C1503 C 0.80608 0.76109 0.30183 0.0
C1504 C 0.79522 0.7774 0.29046 0.0
C1505 C 0.7792 0.77134 0.27578 0.0
C1506 C 0.77381 0.7499 0.27223 0.0
C1507 C 0.75559 0.74785 0.25592 0.0
C1508 C 0.76312 0.73542 0.23569 0.0
C1509 C 0.7355 0.73717 0.26617 0.0
C1510 C 0.75158 0.7715 0.25088 0.0
C1511 C 0.76548 0.78473 0.26242 0.0
C1512 C 0.76509 0.80715 0.26035 0.0
C1513 C 0.74999 0.81634 0.24616 0.0
C1514 C 0.73529 0.80315 0.23437 0.0
C1515 C 0.73625 0.7804 0.2368 0.0
H1516 H 0.27273 0.79059 0.72013 0.0
H1517 H 0.33336 0.78925 0.75574 0.0
H1518 H 0.3167 0.76506 0.78293 0.0
H1519 H 0.23715 0.79087 0.76667 0.0
H1520 H 0.21717 0.77356 0.75421 0.0
H1521 H 0.23378 0.79098 0.73768 0.0
H1522 H 0.24646 0.75783 0.71528 0.0
H1523 H 0.22989 0.74031 0.73173 0.0
H1524 H 0.2585 0.73506 0.72896 0.0
H1525 H 0.29365 0.74106 0.80604 0.0
H1526 H 0.26576 0.71831 0.8235 0.0
H1527 H 0.22016 0.73493 0.77266 0.0
C1528 C 0.28242 0.78535 0.73376 0.0
C1529 C 0.30433 0.79175 0.73585 0.0
C1530 C 0.31661 0.78433 0.75373 0.0
C1531 C 0.30727 0.7707 0.7693 0.0
C1532 C 0.28566 0.76464 0.76671 0.0
C1533 C 0.27338 0.77168 0.7494 0.0
C1534 C 0.25063 0.76243 0.75022 0.0
C1535 C 0.23369 0.78054 0.75233 0.0
C1536 C 0.24611 0.74805 0.73037 0.0
C1537 C 0.25204 0.74912 0.77074 0.0
C1538 C 0.27238 0.75065 0.77999 0.0
C1539 C 0.27768 0.73967 0.79893 0.0
C1540 C 0.26177 0.72669 0.80864 0.0
C1541 C 0.24083 0.72475 0.79938 0.0
C1542 C 0.23595 0.73624 0.78022 0.0
H1543 H 0.7236 0.72883 0.7491 0.0
H1544 H 0.75452 0.73765 0.68648 0.0
H1545 H 0.78192 0.76136 0.70331 0.0
H1546 H 0.73081 0.78373 0.76731 0.0
H1547 H 0.73582 0.77621 0.79505 0.0
H1548 H 0.71896 0.75934 0.7782 0.0
H1549 H 0.74363 0.72644 0.78642 0.0
H1550 H 0.76061 0.74322 0.80323 0.0
H1551 H 0.77231 0.72829 0.78104 0.0
H1552 H 0.80589 0.78404 0.72671 0.0
H1553 H 0.82458 0.80492 0.75512 0.0
H1554 H 0.77706 0.78295 0.80226 0.0
C1555 C 0.73604 0.73585 0.73888 0.0
C1556 C 0.73698 0.73122 0.71647 0.0
C1557 C 0.75369 0.74059 0.70375 0.0
C1558 C 0.76926 0.7542 0.71313 0.0
C1559 C 0.76787 0.75837 0.73523 0.0
C1560 C 0.75168 0.74956 0.74795 0.0
C1561 C 0.75373 0.75691 0.77127 0.0
C1562 C 0.73364 0.76982 0.77836 0.0
C1563 C 0.75782 0.73756 0.78638 0.0
C1564 C 0.77357 0.7713 0.76961 0.0
C1565 C 0.7815 0.77183 0.74869 0.0
C1566 C 0.79976 0.78388 0.74313 0.0
C1567 C 0.81017 0.79582 0.75938 0.0
C1568 C 0.80221 0.79577 0.78093 0.0
C1569 C 0.78368 0.78322 0.78602 0.0
H1570 H 0.71921 0.29144 0.77161 0.0
H1571 H 0.76044 0.29985 0.82784 0.0
H1572 H 0.78755 0.27513 0.81172 0.0
H1573 H 0.73047 0.23522 0.76216 0.0
H1574 H 0.73067 0.23771 0.73308 0.0
H1575 H 0.71441 0.25582 0.74917 0.0
H1576 H 0.73358 0.28877 0.73153 0.0
H1577 H 0.74987 0.27076 0.71536 0.0
H1578 H 0.76275 0.29068 0.73242 0.0
H1579 H 0.8094 0.24864 0.79013 0.0
H1580 H 0.82601 0.22411 0.76315 0.0
H1581 H 0.7714 0.23432 0.72018 0.0
C1582 C 0.73395 0.28799 0.78048 0.0
C1583 C 0.73784 0.29741 0.80093 0.0
C1584 C 0.75733 0.29282 0.81207 0.0
C1585 C 0.77272 0.27876 0.8031 0.0
C1586 C 0.76842 0.26968 0.7829 0.0
C1587 C 0.74963 0.27427 0.77161 0.0
C1588 C 0.74926 0.26283 0.74992 0.0
C1589 C 0.73006 0.24695 0.74851 0.0
C1590 C 0.74885 0.27924 0.7312 0.0
C1591 C 0.77069 0.25096 0.75087 0.0
C1592 C 0.78139 0.25499 0.77011 0.0
C1593 C 0.80125 0.24544 0.77495 0.0
C1594 C 0.81049 0.23149 0.75963 0.0
C1595 C 0.79996 0.22745 0.73967 0.0
C1596 C 0.77983 0.23734 0.73527 0.0
H1597 H 0.22576 0.27353 0.7288 0.0
H1598 H 0.24497 0.33692 0.75262 0.0
H1599 H 0.26982 0.31964 0.7786 0.0
H1600 H 0.22728 0.24581 0.7797 0.0
H1601 H 0.23827 0.22119 0.76854 0.0
H1602 H 0.22165 0.23849 0.752 0.0
H1603 H 0.25238 0.24081 0.72343 0.0
H1604 H 0.26908 0.22349 0.73987 0.0
H1605 H 0.27902 0.24968 0.7316 0.0
H1606 H 0.29256 0.29565 0.80191 0.0
H1607 H 0.31233 0.26641 0.82059 0.0
H1608 H 0.27895 0.21868 0.7811 0.0
C1609 C 0.23531 0.28381 0.73934 0.0
C1610 C 0.23328 0.30661 0.73874 0.0
C1611 C 0.24591 0.31942 0.75303 0.0
C1612 C 0.26019 0.30977 0.76775 0.0
C1613 C 0.26174 0.2873 0.76793 0.0
C1614 C 0.24972 0.27447 0.75407 0.0
C1615 C 0.25461 0.25068 0.75744 0.0
C1616 C 0.23424 0.23832 0.76487 0.0
C1617 C 0.26436 0.24058 0.73686 0.0
C1618 C 0.27125 0.25218 0.77539 0.0
C1619 C 0.27507 0.27344 0.78123 0.0
C1620 C 0.28969 0.27893 0.79751 0.0
C1621 C 0.30073 0.26221 0.8081 0.0
C1622 C 0.29713 0.24029 0.80233 0.0
C1623 C 0.28218 0.23529 0.78573 0.0
H1624 H 0.15548 0.98731 0.30621 0.0
H1625 H 0.12821 0.93815 0.26402 0.0
H1626 H 0.12598 0.96487 0.23433 0.0
H1627 H 0.1221 0.03145 0.28636 0.0
H1628 H 0.14338 0.05137 0.28862 0.0
H1629 H 0.14298 0.02837 0.30654 0.0
H1630 H 0.18197 0.01838 0.29456 0.0
H1631 H 0.18248 0.04132 0.27659 0.0
H1632 H 0.18775 0.01456 0.2662 0.0
H1633 H 0.12816 0.99641 0.20878 0.0
H1634 H 0.13213 0.03141 0.18978 0.0
H1635 H 0.15642 0.06079 0.24881 0.0
C1636 C 0.14902 0.98224 0.29071 0.0
C1637 C 0.14196 0.96068 0.28739 0.0
C1638 C 0.13347 0.95464 0.26695 0.0
C1639 C 0.13226 0.96967 0.24997 0.0
C1640 C 0.13938 0.99077 0.25373 0.0
C1641 C 0.14738 0.99715 0.27365 0.0
C1642 C 0.15353 0.02096 0.27347 0.0
C1643 C 0.13967 0.03379 0.28971 0.0
C1644 C 0.17788 0.02397 0.27797 0.0
C1645 C 0.14793 0.02689 0.2503 0.0
C1646 C 0.13995 1.00917 0.23917 0.0
C1647 C 0.13424 1.01043 0.21738 0.0
C1648 C 0.13664 0.03034 0.20669 0.0
C1649 C 0.14448 0.04881 0.21783 0.0
C1650 C 0.15013 0.047 0.23996 0.0
H1651 H 0.85707 0.46268 0.24446 0.0
H1652 H 0.90595 0.48237 0.19781 0.0
H1653 H 0.91184 0.51624 0.21827 0.0
H1654 H 0.83415 0.51557 0.25331 0.0
H1655 H 0.82975 0.51145 0.28187 0.0
H1656 H 0.82939 0.48868 0.26364 0.0
H1657 H 0.85915 0.46988 0.28642 0.0
H1658 H 0.85959 0.49259 0.30473 0.0
H1659 H 0.88426 0.48392 0.29169 0.0
H1660 H 0.91162 0.54845 0.24305 0.0
H1661 H 0.90626 0.57634 0.27096 0.0
H1662 H 0.85867 0.53517 0.30276 0.0
C1663 C 0.86893 0.47418 0.23849 0.0
C1664 C 0.88107 0.46985 0.2195 0.0
C1665 C 0.89663 0.4852 0.21241 0.0
C1666 C 0.90001 0.50454 0.22387 0.0
C1667 C 0.8878 0.50829 0.2425 0.0
C1668 C 0.87265 0.49352 0.24985 0.0
C1669 C 0.86185 0.50145 0.27047 0.0
C1670 C 0.83733 0.50447 0.26711 0.0
C1671 C 0.8665 0.48604 0.28945 0.0
C1672 C 0.87324 0.52305 0.27349 0.0
C1673 C 0.88808 0.52668 0.25712 0.0
C1674 C 0.90023 0.54567 0.25611 0.0
C1675 C 0.89719 0.56137 0.27223 0.0
C1676 C 0.88223 0.55803 0.28941 0.0
C1677 C 0.87015 0.53847 0.28991 0.0
H1678 H 0.28734 0.17197 0.97132 0.0
H1679 H 0.30094 0.10329 0.96499 0.0
H1680 H 0.27623 0.09563 0.99545 0.0
H1681 H 0.28388 0.17307 0.02945 0.0
H1682 H 0.26193 0.19229 0.03013 0.0
H1683 H 0.28087 0.19251 1.00791 0.0
H1684 H 0.24912 0.18838 0.98077 0.0
H1685 H 0.23008 0.18816 1.00291 0.0
H1686 H 0.23039 0.16612 0.98377 0.0
H1687 H 0.25009 0.09528 0.02659 0.0
H1688 H 0.2247 0.1023 0.05658 0.0
H1689 H 0.22673 0.17106 0.04194 0.0
C1690 C 0.28504 0.1553 0.97623 0.0
C1691 C 0.29627 0.13825 0.96575 0.0
C1692 C 0.2929 0.11669 0.97294 0.0
C1693 C 0.27875 0.11214 0.99014 0.0
C1694 C 0.26797 0.12929 1.00006 0.0
C1695 C 0.27093 0.15044 0.9934 0.0
C1696 C 0.25736 0.16587 1.00689 0.0
C1697 C 0.27188 0.18188 0.01933 0.0
C1698 C 0.24075 0.17783 0.99274 0.0
C1699 C 0.24631 0.15006 0.02215 0.0
C1700 C 0.25267 0.12906 0.0179 0.0
C1701 C 0.24487 0.11166 0.02997 0.0
C1702 C 0.23027 0.11581 0.0469 0.0
C1703 C 0.22346 0.13723 0.05165 0.0
C1704 C 0.23165 0.15452 0.03894 0.0
H1705 H 0.77901 0.39198 0.05541 0.0
H1706 H 0.81344 0.33223 0.04236 0.0
H1707 H 0.79294 0.32774 1.0083 0.0
H1708 H 0.72721 0.37335 0.03579 0.0
H1709 H 0.71959 0.39901 0.02422 0.0
H1710 H 0.73758 0.39818 0.04717 0.0
H1711 H 0.76621 0.42032 0.02584 0.0
H1712 H 0.74827 0.42129 1.00285 0.0
H1713 H 0.77532 0.4107 0.99982 0.0
H1714 H 0.76934 0.32985 0.9756 0.0
H1715 H 0.74274 0.33764 0.94673 0.0
H1716 H 0.72173 0.39493 0.98145 0.0
C1717 C 0.7823 0.37809 0.04522 0.0
C1718 C 0.79786 0.36247 0.05139 0.0
C1719 C 0.80156 0.34432 0.0379 0.0
C1720 C 0.79003 0.34166 0.01853 0.0
C1721 C 0.77468 0.3572 0.01296 0.0
C1722 C 0.77065 0.375 0.02593 0.0
C1723 C 0.7527 0.38886 0.01643 0.0
C1724 C 0.73311 0.3899 0.03183 0.0
C1725 C 0.76114 0.41164 0.01091 0.0
C1726 C 0.74737 0.3761 0.9961 0.0
C1727 C 0.7604 0.358 0.99438 0.0
C1728 C 0.75899 0.34393 0.9768 0.0
C1729 C 0.7439 0.34849 0.96048 0.0
C1730 C 0.73025 0.36683 0.96195 0.0
C1731 C 0.7319 0.38072 0.98007 0.0
H1732 H 0.27784 0.85663 0.55533 0.0
H1733 H 0.31369 0.91599 0.54338 0.0
H1734 H 0.29109 0.92301 0.51115 0.0
H1735 H 0.27154 0.84104 0.49946 0.0
H1736 H 0.2445 0.8305 0.50307 0.0
H1737 H 0.26338 0.83019 0.52531 0.0
H1738 H 0.236 0.85147 0.54894 0.0
H1739 H 0.21704 0.85186 0.52677 0.0
H1740 H 0.22545 0.87689 0.53927 0.0
H1741 H 0.26536 0.92308 0.47966 0.0
H1742 H 0.238 0.91663 0.45141 0.0
H1743 H 0.21767 0.85789 0.48448 0.0
C1744 C 0.28103 0.87104 0.54585 0.0
C1745 C 0.29757 0.88578 0.55192 0.0
C1746 C 0.30099 0.90459 0.53922 0.0
C1747 C 0.2883 0.90866 0.52082 0.0
C1748 C 0.27214 0.89384 0.51534 0.0
C1749 C 0.26841 0.87544 0.52749 0.0
C1750 C 0.24991 0.86219 0.51809 0.0
C1751 C 0.25781 0.83965 0.51106 0.0
C1752 C 0.23098 0.86051 0.53423 0.0
C1753 C 0.24391 0.87598 0.49869 0.0
C1754 C 0.25697 0.89413 0.4974 0.0
C1755 C 0.25487 0.90904 0.48064 0.0
C1756 C 0.23907 0.90531 0.46473 0.0
C1757 C 0.22533 0.88686 0.46566 0.0
C1758 C 0.22788 0.87209 0.48305 0.0
H1759 H 0.72543 0.62382 0.54215 0.0
H1760 H 0.74067 0.686 0.57114 0.0
H1761 H 0.76678 0.69345 0.54175 0.0
H1762 H 0.78019 0.61152 0.52512 0.0
H1763 H 0.7721 0.59875 0.50013 0.0
H1764 H 0.75415 0.59832 0.52316 0.0
H1765 H 0.72382 0.61583 0.50011 0.0
H1766 H 0.74165 0.61624 0.47699 0.0
H1767 H 0.72914 0.64095 0.48621 0.0
H1768 H 0.79055 0.69467 0.5092 0.0
H1769 H 0.81159 0.68914 0.47562 0.0
H1770 H 0.78257 0.62558 0.46788 0.0
C1771 C 0.73424 0.63901 0.54218 0.0
C1772 C 0.73114 0.65432 0.55894 0.0
C1773 C 0.74301 0.67397 0.55858 0.0
C1774 C 0.7578 0.67838 0.54192 0.0
C1775 C 0.76069 0.66291 0.52578 0.0
C1776 C 0.74936 0.64357 0.52576 0.0
C1777 C 0.75593 0.62962 0.50658 0.0
C1778 C 0.7662 0.60829 0.51421 0.0
C1779 C 0.73647 0.62542 0.49159 0.0
C1780 C 0.77262 0.6442 0.49582 0.0
C1781 C 0.77497 0.66337 0.50716 0.0
C1782 C 0.78894 0.6797 0.50022 0.0
C1783 C 0.80077 0.67644 0.48113 0.0
C1784 C 0.79874 0.65694 0.46923 0.0
C1785 C 0.7846 0.64054 0.47681 0.0
H1786 H 0.97122 0.283 0.12703 0.0
H1787 H 0.98189 0.32208 0.18446 0.0
H1788 H 0.01526 0.3015 0.19228 0.0
H1789 H 0.98988 0.23258 0.14894 0.0
H1790 H 1.00304 0.22384 0.12438 0.0
H1791 H 0.98001 0.24168 0.12303 0.0
H1792 H 1.00261 0.26936 0.10097 0.0
H1793 H 0.02567 0.25153 0.10212 0.0
H1794 H 0.02805 0.27901 0.11168 0.0
H1795 H 0.04617 0.27563 0.19503 0.0
H1796 H 0.07468 0.24822 0.19103 0.0
H1797 H 0.04576 0.22703 0.13042 0.0
C1798 C 0.98065 0.28724 0.1412 0.0
C1799 C 0.97402 0.30421 0.15511 0.0
C1800 C 0.98682 0.30935 0.17344 0.0
C1801 C 1.00571 0.29765 0.1781 0.0
C1802 C 1.01172 0.28095 0.16417 0.0
C1803 C 0.99976 0.27588 0.14595 0.0
C1804 C 1.01014 0.25739 0.13348 0.0
C1805 C 0.99485 0.23771 0.1324 0.0
C1806 C 0.01703 0.26477 0.11072 0.0
C1807 C 0.0297 0.25278 0.14765 0.0
C1808 C 0.03014 0.26647 0.16534 0.0
C1809 C 0.04621 0.26505 0.18105 0.0
C1810 C 0.06249 0.24947 0.1785 0.0
C1811 C 0.06291 0.23558 0.16016 0.0
C1812 C 0.04604 0.23725 0.14466 0.0
H1813 H 0.96414 0.74574 0.36307 0.0
H1814 H 0.99212 0.68911 0.39404 0.0
H1815 H 0.02719 0.70803 0.39653 0.0
H1816 H 1.01038 0.76185 0.33263 0.0
H1817 H 1.00637 0.79043 0.33691 0.0
H1818 H 0.98346 0.77231 0.33703 0.0
H1819 H 0.97263 0.78598 0.37519 0.0
H1820 H 0.9955 0.80418 0.37518 0.0
H1821 H 0.99216 0.78494 0.39687 0.0
H1822 H 0.05972 0.73261 0.39458 0.0
H1823 H 0.08681 0.76191 0.38996 0.0
H1824 H 0.03711 0.80365 0.36338 0.0
C1825 C 0.97745 0.73729 0.3707 0.0
C1826 C 0.97512 0.71569 0.37819 0.0
C1827 C 0.99336 0.70538 0.38766 0.0
C1828 C 0.01339 0.71609 0.38935 0.0
C1829 C 0.01501 0.73728 0.38181 0.0
C1830 C 0.99748 0.74787 0.37287 0.0
C1831 C 1.00347 0.7708 0.36631 0.0
C1832 C 1.00076 0.77402 0.34176 0.0
C1833 C 0.99014 0.78746 0.37916 0.0
C1834 C 0.02717 0.7714 0.37281 0.0
C1835 C 0.03353 0.75182 0.38159 0.0
C1836 C 0.05487 0.74808 0.38796 0.0
C1837 C 0.07013 0.76475 0.38526 0.0
C1838 C 0.06392 0.78499 0.37655 0.0
C1839 C 0.04214 0.78839 0.37039 0.0
H1840 H 0.54245 0.72738 0.66655 0.0
H1841 H 0.55806 0.72831 0.59805 0.0
H1842 H 0.52749 0.75319 0.59144 0.0
H1843 H 0.48353 0.72964 0.66051 0.0
H1844 H 0.47984 0.74721 0.68353 0.0
H1845 H 0.50234 0.72865 0.68282 0.0
H1846 H 0.52898 0.76056 0.68887 0.0
H1847 H 0.50658 0.77921 0.68953 0.0
H1848 H 0.52849 0.78333 0.67062 0.0
H1849 H 0.49578 0.77835 0.59219 0.0
H1850 H 0.465 0.8024 0.60021 0.0
H1851 H 0.47044 0.78652 0.66851 0.0
C1852 C 0.5392 0.73259 0.65013 0.0
C1853 C 0.55261 0.72587 0.63278 0.0
C1854 C 0.54808 0.73335 0.61158 0.0
C1855 C 0.53072 0.74742 0.60766 0.0
C1856 C 0.518 0.75398 0.62511 0.0
C1857 C 0.52198 0.74684 0.64594 0.0
C1858 C 0.50622 0.75701 0.66186 0.0
C1859 C 0.49215 0.73959 0.67282 0.0
C1860 C 0.51829 0.77085 0.67871 0.0
C1861 C 0.49285 0.77099 0.64673 0.0
C1862 C 0.49989 0.7689 0.6256 0.0
C1863 C 0.49017 0.7802 0.6087 0.0
C1864 C 0.47278 0.79401 0.61347 0.0
C1865 C 0.46527 0.79663 0.63503 0.0
C1866 C 0.47555 0.78483 0.65183 0.0
H1867 H 0.88138 0.05962 0.74608 0.0
H1868 H 0.85772 0.02727 0.68832 0.0
H1869 H 0.85693 0.99256 0.70801 0.0
H1870 H 0.91584 0.01585 0.76487 0.0
H1871 H 0.90966 0.02014 0.79307 0.0
H1872 H 0.90879 0.04252 0.7744 0.0
H1873 H 0.86919 0.05048 0.78588 0.0
H1874 H 0.86989 0.02805 0.8045 0.0
H1875 H 0.84911 0.02929 0.78404 0.0
H1876 H 0.85863 0.96153 0.73347 0.0
H1877 H 0.86252 0.93562 0.76352 0.0
H1878 H 0.88456 0.98749 0.80558 0.0
C1879 C 0.87625 0.04517 0.73756 0.0
C1880 C 0.86959 0.04615 0.71563 0.0
C1881 C 0.8627 0.02695 0.70513 0.0
C1882 C 0.86226 1.00714 0.71616 0.0
C1883 C 0.86869 1.00675 0.73776 0.0
C1884 C 0.87555 0.02521 0.74842 0.0
C1885 C 0.88124 0.02021 0.77183 0.0
C1886 C 0.90532 0.02496 0.7763 0.0
C1887 C 0.86647 0.03276 0.78748 0.0
C1888 C 0.87655 0.99608 0.77259 0.0
C1889 C 0.86941 0.98872 0.75269 0.0
C1890 C 0.86426 0.96707 0.74911 0.0
C1891 C 0.86662 0.95247 0.76626 0.0
C1892 C 0.874 0.9595 0.78683 0.0
C1893 C 0.87882 0.98168 0.79006 0.0
H1894 H 0.172 0.54868 0.78803 0.0
H1895 H 0.10284 0.55653 0.79892 0.0
H1896 H 0.09549 0.52648 0.77369 0.0
H1897 H 0.16789 0.53749 0.73077 0.0
H1898 H 0.18965 0.51805 0.73086 0.0
H1899 H 0.18955 0.53987 0.75022 0.0
H1900 H 0.19212 0.51217 0.78158 0.0
H1901 H 0.19221 0.49026 0.76233 0.0
H1902 H 0.17219 0.49086 0.78361 0.0
H1903 H 0.09557 0.49546 0.74721 0.0
H1904 H 0.10311 0.46566 0.72175 0.0
H1905 H 0.17209 0.4793 0.7265 0.0
C1906 C 0.15527 0.54425 0.78503 0.0
C1907 C 0.13802 0.55502 0.79568 0.0
C1908 C 0.11641 0.54836 0.79139 0.0
C1909 C 0.11203 0.53139 0.77691 0.0
C1910 C 0.1294 0.52124 0.76667 0.0
C1911 C 0.15059 0.52743 0.77051 0.0
C1912 C 0.1663 0.51394 0.75729 0.0
C1913 C 0.1791 0.52819 0.74134 0.0
C1914 C 0.1816 0.50104 0.77209 0.0
C1915 C 0.15063 0.49912 0.7455 0.0
C1916 C 0.12942 0.50361 0.75113 0.0
C1917 C 0.11211 0.49191 0.74256 0.0
C1918 C 0.11657 0.47509 0.72793 0.0
C1919 C 0.1382 0.47009 0.7219 0.0
C1920 C 0.15537 0.48247 0.73083 0.0
H1921 H 0.73609 0.89361 0.04834 0.0
H1922 H 0.72782 0.82402 0.05514 0.0
H1923 H 0.75219 0.81818 0.02425 0.0
H1924 H 0.73584 0.89318 0.98924 0.0
H1925 H 0.75563 0.91459 0.98701 0.0
H1926 H 0.73777 0.91353 1.0101 0.0
H1927 H 0.771 0.91374 0.03572 0.0
H1928 H 0.78897 0.91468 0.01273 0.0
H1929 H 0.79171 0.89342 0.03251 0.0
H1930 H 0.77868 0.81944 0.99379 0.0
H1931 H 0.80338 0.82804 0.96343 0.0
H1932 H 0.79249 0.8966 0.97381 0.0
C1933 C 0.73914 0.87713 0.04323 0.0
C1934 C 0.73021 0.85929 0.05465 0.0
C1935 C 0.73488 0.83802 0.04729 0.0
C1936 C 0.7486 0.83448 0.02956 0.0
C1937 C 0.75735 0.85235 0.01897 0.0
C1938 C 0.75261 0.87327 0.02528 0.0
C1939 C 0.76392 0.88957 0.01069 0.0
C1940 C 0.7473 0.90354 0.99854 0.0
C1941 C 0.77984 0.90368 0.0237 0.0
C1942 C 0.77585 0.8745 0.99536 0.0
C1943 C 0.77195 0.85309 1.0006 0.0
C1944 C 0.78173 0.83613 0.9894 0.0
C1945 C 0.79579 0.84115 0.97228 0.0
C1946 C 0.79976 0.86292 0.96634 0.0
C1947 C 0.78957 0.87981 0.97798 0.0
H1948 H 0.22471 0.62672 0.98192 0.0
H1949 H 0.23687 0.69126 0.95668 0.0
H1950 H 0.26384 0.6975 0.98535 0.0
H1951 H 0.23001 0.6403 0.03836 0.0
H1952 H 0.2436 0.61552 0.04553 0.0
H1953 H 0.22499 0.61593 0.02307 0.0
H1954 H 0.25499 0.60096 0.9978 0.0
H1955 H 0.27369 0.60047 0.0202 0.0
H1956 H 0.28055 0.61507 0.99587 0.0
H1957 H 0.28914 0.6972 0.01672 0.0
H1958 H 0.3115 0.69029 0.04891 0.0
H1959 H 0.28462 0.62535 0.0534 0.0
C1960 C 0.23311 0.64212 0.98235 0.0
C1961 C 0.22837 0.65859 0.96712 0.0
C1962 C 0.23974 0.67855 0.9684 0.0
C1963 C 0.25526 0.68221 0.98454 0.0
C1964 C 0.25942 0.66575 0.99932 0.0
C1965 C 0.24876 0.64608 0.99841 0.0
C1966 C 0.25641 0.63117 0.01638 0.0
C1967 C 0.23763 0.6254 0.03174 0.0
C1968 C 0.26704 0.61071 1.007 0.0
C1969 C 0.273 0.64558 0.02748 0.0
C1970 C 0.27443 0.66544 0.01733 0.0
C1971 C 0.28833 0.68163 0.0247 0.0
C1972 C 0.30114 0.67744 0.04294 0.0
C1973 C 0.30015 0.65715 0.05366 0.0
C1974 C 0.28579 0.64105 0.04571 0.0
H1975 H 0.72959 0.12717 0.47665 0.0
H1976 H 0.72069 0.19585 0.46495 0.0
H1977 H 0.74604 0.2043 0.49465 0.0
H1978 H 0.73196 0.13115 0.5349 0.0
H1979 H 0.75227 0.11042 0.53785 0.0
H1980 H 0.73383 0.10962 0.51527 0.0
H1981 H 0.76638 0.10871 0.48874 0.0
H1982 H 0.78493 0.10959 0.51126 0.0
H1983 H 0.78672 0.12967 0.49017 0.0
H1984 H 0.77264 0.20551 0.52493 0.0
H1985 H 0.79729 0.19959 0.55562 0.0
H1986 H 0.78803 0.1301 0.54945 0.0
C1987 C 0.73306 0.14396 0.48035 0.0
C1988 C 0.72308 0.16087 0.46856 0.0
C1989 C 0.7279 0.18265 0.47395 0.0
C1990 C 0.7424 0.18761 0.49069 0.0
C1991 C 0.75192 0.17063 0.50202 0.0
C1992 C 0.74737 0.14923 0.49724 0.0
C1993 C 0.7594 0.13415 0.51247 0.0
C1994 C 0.74341 0.12053 0.52592 0.0
C1995 C 0.7753 0.11968 0.4999 0.0
C1996 C 0.77138 0.15043 0.52651 0.0
C1997 C 0.76692 0.17135 0.52003 0.0
C1998 C 0.7761 0.18921 0.5303 0.0
C1999 C 0.78999 0.18565 0.54787 0.0
C2000 C 0.79447 0.16438 0.55528 0.0
C2001 C 0.78513 0.14655 0.5442 0.0
H2002 H 0.23459 0.39338 0.54995 0.0
H2003 H 0.22506 0.32403 0.55706 0.0
H2004 H 0.24938 0.31755 0.52616 0.0
H2005 H 0.2356 0.39311 0.49076 0.0
H2006 H 0.25605 0.41393 0.48899 0.0
H2007 H 0.2377 0.41335 0.51171 0.0
H2008 H 0.27037 0.41254 0.53801 0.0
H2009 H 0.28882 0.41302 0.51539 0.0
H2010 H 0.29055 0.39164 0.53517 0.0
H2011 H 0.27538 0.31816 0.49545 0.0
H2012 H 0.30044 0.32595 0.46535 0.0
H2013 H 0.29284 0.39489 0.47677 0.0
C2014 C 0.23741 0.37685 0.54486 0.0
C2015 C 0.22806 0.35921 0.55622 0.0
C2016 C 0.23236 0.33782 0.54903 0.0
C2017 C 0.24606 0.33395 0.53136 0.0
C2018 C 0.25525 0.35161 0.5208 0.0
C2019 C 0.25102 0.37265 0.52709 0.0
C2020 C 0.26311 0.38865 0.51279 0.0
C2021 C 0.24716 0.40311 0.50032 0.0
C2022 C 0.27916 0.40226 0.52614 0.0
C2023 C 0.2749 0.37325 0.49765 0.0
C2024 C 0.27012 0.35198 0.50266 0.0
C2025 C 0.27925 0.33476 0.49134 0.0
C2026 C 0.29361 0.33936 0.47437 0.0
C2027 C 0.29876 0.36102 0.46877 0.0
C2028 C 0.28915 0.37818 0.48058 0.0
H2029 H 0.04382 0.72462 0.84984 0.0
H2030 H 0.07241 0.73938 0.91234 0.0
H2031 H 0.04348 0.76605 0.91926 0.0
H2032 H 0.02764 0.77916 0.83679 0.0
H2033 H 1.00262 0.77106 0.82404 0.0
H2034 H 0.02553 0.75301 0.82397 0.0
H2035 H 1.00202 0.72311 0.84178 0.0
H2036 H 0.97904 0.74107 0.8419 0.0
H2037 H 0.98804 0.72881 0.86679 0.0
H2038 H 1.01189 0.79162 0.91922 0.0
H2039 H 0.9789 0.81328 0.91279 0.0
H2040 H 0.97062 0.78205 0.85037 0.0
C2041 C 0.04404 0.73353 0.86494 0.0
C2042 C 0.06037 0.72982 0.88059 0.0
C2043 C 0.05992 0.74168 0.90024 0.0
C2044 C 0.04363 0.75698 0.90427 0.0
C2045 C 0.02781 0.76025 0.88852 0.0
C2046 C 0.0278 0.74881 0.86929 0.0
C2047 C 1.00876 0.75529 0.85518 0.0
C2048 C 0.01661 0.76522 0.83373 0.0
C2049 C 0.99357 0.73591 0.85119 0.0
C2050 C 0.9981 0.77216 0.86949 0.0
C2051 C 1.00943 0.77485 0.8886 0.0
C2052 C 1.00288 0.78966 0.90431 0.0
C2053 C 0.98419 0.80199 0.90046 0.0
C2054 C 0.97216 0.7994 0.88109 0.0
C2055 C 0.97932 0.78426 0.86543 0.0
H2056 H 0.04795 0.28837 0.62852 0.0
H2057 H 0.0555 0.29984 0.69754 0.0
H2058 H 0.02495 0.27528 0.70491 0.0
H2059 H 0.98974 0.28454 0.62798 0.0
H2060 H 0.98896 0.26294 0.60836 0.0
H2061 H 1.01113 0.28197 0.60823 0.0
H2062 H 0.03851 0.25037 0.61146 0.0
H2063 H 0.01641 0.23124 0.61156 0.0
H2064 H 0.0358 0.2313 0.63339 0.0
H2065 H 0.99357 0.24971 0.70507 0.0
H2066 H 0.96363 0.22433 0.69805 0.0
H2067 H 0.97755 0.2272 0.62911 0.0
C2068 C 0.0433 0.28567 0.64521 0.0
C2069 C 0.05411 0.29639 0.66241 0.0
C2070 C 0.04725 0.29238 0.68398 0.0
C2071 C 0.02999 0.27826 0.68839 0.0
C2072 C 0.01975 0.26803 0.6711 0.0
C2073 C 0.02615 0.27145 0.64994 0.0
C2074 C 0.01252 0.25808 0.63441 0.0
C2075 C 0.99984 0.27276 0.61883 0.0
C2076 C 0.02666 0.24178 0.62197 0.0
C2077 C 0.99745 0.24669 0.65018 0.0
C2078 C 1.00191 0.25273 0.67124 0.0
C2079 C 0.99005 0.24468 0.68865 0.0
C2080 C 0.97315 0.23006 0.68448 0.0
C2081 C 0.96826 0.22339 0.66303 0.0
C2082 C 0.98069 0.23194 0.64569 0.0
H2083 H 0.55179 0.23625 0.35 0.0
H2084 H 0.54813 0.21135 0.41562 0.0
H2085 H 0.51658 0.23482 0.4228 0.0
H2086 H 0.53754 0.29111 0.36275 0.0
H2087 H 0.52167 0.29508 0.33858 0.0
H2088 H 0.5439 0.2762 0.33846 0.0
H2089 H 0.51801 0.24571 0.32564 0.0
H2090 H 0.49571 0.26451 0.32567 0.0
H2091 H 0.4939 0.23981 0.34111 0.0
H2092 H 0.48524 0.26069 0.42283 0.0
H2093 H 0.4562 0.28706 0.41574 0.0
H2094 H 0.48061 0.29597 0.35032 0.0
C2095 C 0.54422 0.23557 0.36582 0.0
C2096 C 0.55251 0.22195 0.38227 0.0
C2097 C 0.54229 0.22182 0.40284 0.0
C2098 C 0.52428 0.23502 0.40705 0.0
C2099 C 0.51664 0.24834 0.39054 0.0
C2100 C 0.52626 0.24872 0.37033 0.0
C2101 C 0.51491 0.26465 0.35549 0.0
C2102 C 0.53043 0.28284 0.34841 0.0
C2103 C 0.50505 0.25296 0.33581 0.0
C2104 C 0.4974 0.27311 0.37052 0.0
C2105 C 0.49869 0.26347 0.39064 0.0
C2106 C 0.48416 0.26846 0.40717 0.0
C2107 C 0.4678 0.28366 0.40302 0.0
C2108 C 0.46608 0.29385 0.38251 0.0
C2109 C 0.48125 0.28843 0.36612 0.0
H2110 H 0.65185 0.53572 0.71441 0.0
H2111 H 0.62385 0.58512 0.75599 0.0
H2112 H 0.62057 0.5585 0.78539 0.0
H2113 H 0.61995 0.49081 0.73358 0.0
H2114 H 0.64202 0.47175 0.73254 0.0
H2115 H 0.6416 0.49448 0.71428 0.0
H2116 H 0.67959 0.5063 0.72776 0.0
H2117 H 0.68016 0.48357 0.74601 0.0
H2118 H 0.68395 0.51063 0.7563 0.0
H2119 H 0.62042 0.52675 0.81055 0.0
H2120 H 0.62397 0.49207 0.82991 0.0
H2121 H 0.65392 0.46353 0.77299 0.0
C2122 C 0.64511 0.54103 0.7297 0.0
C2123 C 0.63785 0.56261 0.73262 0.0
C2124 C 0.62901 0.56866 0.75297 0.0
C2125 C 0.62725 0.55366 0.76992 0.0
C2126 C 0.63452 0.53262 0.76646 0.0
C2127 C 0.64336 0.52629 0.74691 0.0
C2128 C 0.65035 0.50274 0.74766 0.0
C2129 C 0.63772 0.48915 0.73102 0.0
C2130 C 0.67498 0.5007 0.74423 0.0
C2131 C 0.64397 0.49686 0.77065 0.0
C2132 C 0.63485 0.51435 0.78118 0.0
C2133 C 0.62765 0.51296 0.80252 0.0
C2134 C 0.62988 0.49319 0.81344 0.0
C2135 C 0.63933 0.47498 0.80311 0.0
C2136 C 0.6464 0.47698 0.78135 0.0
H2137 H 0.35516 0.05667 0.77639 0.0
H2138 H 0.41477 0.04549 0.8119 0.0
H2139 H 0.42137 0.01246 0.79028 0.0
H2140 H 0.33877 1.00108 0.77166 0.0
H2141 H 0.32831 1.00396 0.74458 0.0
H2142 H 0.32835 0.02681 0.76271 0.0
H2143 H 0.35012 0.0492 0.73463 0.0
H2144 H 0.35013 0.02642 0.7164 0.0
H2145 H 0.3754 0.03877 0.72435 0.0
H2146 H 0.42099 0.98012 0.76545 0.0
H2147 H 0.41413 0.95121 0.73878 0.0
H2148 H 0.35532 0.984 0.71844 0.0
C2149 C 0.36955 0.0472 0.77967 0.0
C2150 C 0.38446 0.05366 0.79586 0.0
C2151 C 0.40324 0.04098 0.79946 0.0
C2152 C 0.40707 0.02215 0.78732 0.0
C2153 C 0.39207 0.01625 0.7715 0.0
C2154 C 0.37373 0.02845 0.76756 0.0
C2155 C 0.36029 0.01865 0.74946 0.0
C2156 C 0.33759 0.01224 0.7576 0.0
C2157 C 0.35891 0.03419 0.73006 0.0
C2158 C 0.37378 0.99887 0.74404 0.0
C2159 C 0.39205 0.99782 0.75693 0.0
C2160 C 0.40683 0.98089 0.75513 0.0
C2161 C 0.40286 0.96459 0.73977 0.0
C2162 C 0.38427 0.96529 0.72628 0.0
C2163 C 0.36961 0.98279 0.72854 0.0
H2164 H 0.46481 0.24454 0.85706 0.0
H2165 H 0.48385 0.19869 0.90677 0.0
H2166 H 0.51776 0.21915 0.91252 0.0
H2167 H 0.51782 0.25291 0.83467 0.0
H2168 H 0.51388 0.28139 0.82972 0.0
H2169 H 0.49099 0.26324 0.82954 0.0
H2170 H 0.47202 0.28671 0.85869 0.0
H2171 H 0.49489 0.30492 0.85899 0.0
H2172 H 0.48585 0.2924 0.88377 0.0
H2173 H 0.54958 0.2444 0.91294 0.0
H2174 H 0.57764 0.27237 0.90753 0.0
H2175 H 0.53815 0.30222 0.85767 0.0
C2176 C 0.476 0.23889 0.8693 0.0
C2177 C 0.47161 0.2199 0.88143 0.0
C2178 C 0.48692 0.21295 0.89705 0.0
C2179 C 0.50617 0.22457 0.90055 0.0
C2180 C 0.50995 0.24317 0.88835 0.0
C2181 C 0.49534 0.2503 0.87302 0.0
C2182 C 0.50351 0.27068 0.86191 0.0
C2183 C 0.50675 0.26682 0.83752 0.0
C2184 C 0.48815 0.28981 0.8661 0.0
C2185 C 0.52504 0.27384 0.87338 0.0
C2186 C 0.52838 0.25779 0.88859 0.0
C2187 C 0.54716 0.25703 0.90106 0.0
C2188 C 0.56306 0.27295 0.89777 0.0
C2189 C 0.5602 0.28947 0.8821 0.0
C2190 C 0.54076 0.28996 0.86992 0.0
H2191 H 0.35351 0.54296 0.22821 0.0
H2192 H 0.42149 0.56126 0.22988 0.0
H2193 H 0.42877 0.53147 0.2555 0.0
H2194 H 0.34863 0.52953 0.28441 0.0
H2195 H 0.33069 0.5069 0.27989 0.0
H2196 H 0.33092 0.52927 0.2612 0.0
H2197 H 0.3388 0.5029 0.22953 0.0
H2198 H 0.33856 0.48044 0.24812 0.0
H2199 H 0.36186 0.48508 0.2311 0.0
H2200 H 0.42846 0.50034 0.28185 0.0
H2201 H 0.42087 0.46923 0.3058 0.0
H2202 H 0.35299 0.47147 0.28734 0.0
C2203 C 0.36993 0.54074 0.23398 0.0
C2204 C 0.38695 0.55446 0.22695 0.0
C2205 C 0.40824 0.5508 0.23474 0.0
C2206 C 0.41251 0.53401 0.24943 0.0
C2207 C 0.39534 0.52092 0.25614 0.0
C2208 C 0.37449 0.524 0.24858 0.0
C2209 C 0.35893 0.50766 0.25837 0.0
C2210 C 0.34125 0.51902 0.27177 0.0
C2211 C 0.34896 0.49316 0.24073 0.0
C2212 C 0.37427 0.495 0.27273 0.0
C2213 C 0.39518 0.50293 0.27124 0.0
C2214 C 0.41213 0.49399 0.28314 0.0
C2215 C 0.40763 0.47642 0.29684 0.0
C2216 C 0.38633 0.46788 0.29854 0.0
C2217 C 0.36949 0.47742 0.28627 0.0
H2218 H 0.63446 0.05918 0.27395 0.0
H2219 H 0.6644 0.03015 0.33057 0.0
H2220 H 0.66721 0.99547 0.31118 0.0
H2221 H 0.60397 0.01186 0.25662 0.0
H2222 H 0.60865 0.01662 0.2282 0.0
H2223 H 0.60782 0.03909 0.24681 0.0
H2224 H 0.64593 0.05131 0.23399 0.0
H2225 H 0.64686 0.02891 0.21533 0.0
H2226 H 0.66815 0.03241 0.23501 0.0
H2227 H 0.66832 0.96439 0.28557 0.0
H2228 H 0.66766 0.93863 0.2551 0.0
H2229 H 0.63776 0.98736 0.21434 0.0
C2230 C 0.64161 0.04555 0.28231 0.0
C2231 C 0.64899 0.04748 0.30398 0.0
C2232 C 0.65813 0.0291 0.31423 0.0
C2233 C 0.65997 1.00931 0.30328 0.0
C2234 C 0.65263 1.00803 0.282 0.0
C2235 C 0.64363 0.02561 0.27157 0.0
C2236 C 0.63763 0.01993 0.24839 0.0
C2237 C 0.61305 0.022 0.2448 0.0
C2238 C 0.65041 0.03397 0.23223 0.0
C2239 C 0.6448 0.99645 0.24742 0.0
C2240 C 0.65338 0.98998 0.26704 0.0
C2241 C 0.66162 0.96926 0.27013 0.0
C2242 C 0.66128 0.95478 0.25268 0.0
C2243 C 0.65278 0.96101 0.2323 0.0
C2244 C 0.6442 0.98209 0.22976 0.0
H2245 H 0.55312 0.78347 0.16925 0.0
H2246 H 0.54938 0.80903 0.10378 0.0
H2247 H 0.51794 0.78566 0.09657 0.0
H2248 H 0.53709 0.72908 0.15754 0.0
H2249 H 0.52068 0.72599 0.18152 0.0
H2250 H 0.54351 0.74424 0.18167 0.0
H2251 H 0.51848 0.77574 0.19348 0.0
H2252 H 0.49561 0.75754 0.19355 0.0
H2253 H 0.49478 0.78195 0.17759 0.0
H2254 H 0.48756 0.75897 0.09583 0.0
H2255 H 0.45817 0.73287 0.10254 0.0
H2256 H 0.47906 0.72674 0.16944 0.0
C2257 C 0.54562 0.78441 0.15345 0.0
C2258 C 0.55419 0.79799 0.137 0.0
C2259 C 0.54374 0.79841 0.11653 0.0
C2260 C 0.52568 0.78527 0.11228 0.0
C2261 C 0.51791 0.77195 0.12872 0.0
C2262 C 0.52731 0.77161 0.14899 0.0
C2263 C 0.5152 0.75628 0.16398 0.0
C2264 C 0.53001 0.7378 0.17162 0.0
C2265 C 0.50543 0.76862 0.18329 0.0
C2266 C 0.49764 0.74799 0.14886 0.0
C2267 C 0.49966 0.75716 0.12858 0.0
C2268 C 0.48563 0.75189 0.11174 0.0
C2269 C 0.46885 0.7371 0.11579 0.0
C2270 C 0.46594 0.72786 0.13663 0.0
C2271 C 0.48079 0.73331 0.15329 0.0
loop_
_geom_bond_atom_site_label_1
_geom_bond_atom_site_label_2
_geom_bond_distance
_geom_bond_site_symmetry_2
_ccdc_geom_bond_type
Li0 N17 1.990 . S
Li0 O60 1.956 . S
Li0 O61 1.970 . S
Li0 O62 1.961 . S
Li1 N25 1.990 . S
Li1 O60 1.970 . S
Li1 O61 1.956 . S
Li1 O63 1.961 . S
Li2 N47 1.990 . S
Li2 O60 1.961 . S
Li2 O62 1.956 . S
Li2 O63 1.970 . S
Li3 N53 1.990 . S
Li3 O61 1.961 . S
Li3 O62 1.970 . S
Li3 O63 1.956 . S
C4 C6 1.348 . S
C4 C7 1.356 . S
C4 O60 1.325 . S
N5 C8 1.314 . S
N5 C9 1.279 . S
C6 C4 1.348 . S
C6 C8 1.353 . S
C6 H64 0.929 . S
C7 C4 1.356 . S
C7 C9 1.358 . S
C7 H65 0.930 . S
C8 N5 1.314 . S
C8 C6 1.353 . S
C8 H66 0.930 . S
C9 N5 1.279 . S
C9 C7 1.358 . S
C9 H67 0.930 . S
C10 C13 1.348 . S
C10 C14 1.356 . S
C10 O61 1.325 . S
C11 N12 1.279 . S
C11 C14 1.358 . S
C11 H68 0.930 . S
N12 C11 1.279 . S
N12 C15 1.314 . S
C13 C10 1.348 . S
C13 C15 1.353 . S
C13 H69 0.929 . S
C14 C10 1.356 . S
C14 C11 1.358 . S
C14 H70 0.930 . S
C15 N12 1.314 . S
C15 C13 1.353 . S
C15 H71 0.930 . S
C16 N17 1.314 . S
C16 C21 1.353 . S
C16 H22 0.930 . S
N17 Li0 1.990 . S
N17 C16 1.314 . S
N17 C19 1.279 . S
C18 C19 1.358 . S
C18 C20 1.356 . S
C18 H72 0.930 . S
C19 N17 1.279 . S
C19 C18 1.358 . S
C19 H23 0.930 . S
C20 C18 1.356 . S
C20 C21 1.348 . S
C21 C16 1.353 . S
C21 C20 1.348 . S
C21 H73 0.929 . S
H22 C16 0.930 . S
H23 C19 0.930 . S
C24 N25 1.314 . S
C24 C26 1.353 . S
C24 H30 0.930 . S
N25 Li1 1.990 . S
N25 C24 1.314 . S
N25 C28 1.279 . S
C26 C24 1.353 . S
C26 C29 1.348 . S
C26 H74 0.929 . S
C27 C28 1.358 . S
C27 C29 1.356 . S
C27 H75 0.930 . S
C28 N25 1.279 . S
C28 C27 1.358 . S
C28 H31 0.930 . S
C29 C26 1.348 . S
C29 C27 1.356 . S
H30 C24 0.930 . S
H31 C28 0.930 . S
C32 C34 1.348 . S
C32 C35 1.356 . S
C32 O62 1.325 . S
N33 C36 1.314 . S
N33 C37 1.279 . S
C34 C32 1.348 . S
C34 C36 1.353 . S
C34 H76 0.929 . S
C35 C32 1.356 . S
C35 C37 1.358 . S
C35 H77 0.930 . S
C36 N33 1.314 . S
C36 C34 1.353 . S
C36 H78 0.930 . S
C37 N33 1.279 . S
C37 C35 1.358 . S
C37 H79 0.930 . S
C38 C39 1.348 . S
C38 C40 1.356 . S
C38 O63 1.325 . S
C39 C38 1.348 . S
C39 C41 1.353 . S
C39 H80 0.929 . S
C40 C38 1.356 . S
C40 C42 1.358 . S
C40 H81 0.930 . S
C41 C39 1.353 . S
C41 N43 1.314 . S
C41 H82 0.930 . S
C42 C40 1.358 . S
C42 N43 1.279 . S
C42 H83 0.930 . S
N43 C41 1.314 . S
N43 C42 1.279 . S
C44 C46 1.353 . S
C44 N47 1.314 . S
C44 H50 0.930 . S
C45 N47 1.279 . S
C45 C48 1.358 . S
C45 H51 0.930 . S
C46 C44 1.353 . S
C46 C49 1.348 . S
C46 H84 0.929 . S
N47 Li2 1.990 . S
N47 C44 1.314 . S
N47 C45 1.279 . S
C48 C45 1.358 . S
C48 C49 1.356 . S
C48 H85 0.930 . S
C49 C46 1.348 . S
C49 C48 1.356 . S
H50 C44 0.930 . S
H51 C45 0.930 . S
C52 N53 1.314 . S
C52 C54 1.353 . S
C52 H58 0.930 . S
N53 Li3 1.990 . S
N53 C52 1.314 . S
N53 C56 1.279 . S
C54 C52 1.353 . S
C54 C57 1.348 . S
C54 H86 0.929 . S
C55 C56 1.358 . S
C55 C57 1.356 . S
C55 H87 0.930 . S
C56 N53 1.279 . S
C56 C55 1.358 . S
C56 H59 0.930 . S
C57 C54 1.348 . S
C57 C55 1.356 . S
H58 C52 0.930 . S
H59 C56 0.930 . S
O60 Li0 1.956 . S
O60 Li1 1.970 . S
O60 Li2 1.961 . S
O60 C4 1.325 . S
O61 Li0 1.970 . S
O61 Li1 1.956 . S
O61 Li3 1.961 . S
O61 C10 1.325 . S
O62 Li0 1.961 . S
O62 Li2 1.956 . S
O62 Li3 1.970 . S
O62 C32 1.325 . S
O63 Li1 1.961 . S
O63 Li2 1.970 . S
O63 Li3 1.956 . S
O63 C38 1.325 . S
H64 C6 0.929 . S
H65 C7 0.930 . S
H66 C8 0.930 . S
H67 C9 0.930 . S
H68 C11 0.930 . S
H69 C13 0.929 . S
H70 C14 0.930 . S
H71 C15 0.930 . S
H72 C18 0.930 . S
H73 C21 0.929 . S
H74 C26 0.929 . S
H75 C27 0.930 . S
H76 C34 0.929 . S
H77 C35 0.930 . S
H78 C36 0.930 . S
H79 C37 0.930 . S
H80 C39 0.929 . S
H81 C40 0.930 . S
H82 C41 0.930 . S
H83 C42 0.930 . S
H84 C46 0.929 . S
H85 C48 0.930 . S
H86 C54 0.929 . S
H87 C55 0.930 . S
Li88 N105 1.990 . S
Li88 O148 1.956 . S
Li88 O149 1.970 . S
Li88 O150 1.961 . S
Li89 N113 1.990 . S
Li89 O148 1.970 . S
Li89 O149 1.956 . S
Li89 O151 1.961 . S
Li90 N135 1.990 . S
Li90 O148 1.961 . S
Li90 O150 1.956 . S
Li90 O151 1.970 . S
Li91 N141 1.990 . S
Li91 O149 1.961 . S
Li91 O150 1.970 . S
Li91 O151 1.956 . S
C92 C94 1.348 . S
C92 C95 1.356 . S
C92 O148 1.325 . S
N93 C96 1.314 . S
N93 C97 1.279 . S
C94 C92 1.348 . S
C94 C96 1.353 . S
C94 H152 0.929 . S
C95 C92 1.356 . S
C95 C97 1.358 . S
C95 H153 0.930 . S
C96 N93 1.314 . S
C96 C94 1.353 . S
C96 H154 0.930 . S
C97 N93 1.279 . S
C97 C95 1.358 . S
C97 H155 0.930 . S
C98 C101 1.348 . S
C98 C102 1.356 . S
C98 O149 1.325 . S
C99 N100 1.279 . S
C99 C102 1.358 . S
C99 H156 0.930 . S
N100 C99 1.279 . S
N100 C103 1.314 . S
C101 C98 1.348 . S
C101 C103 1.353 . S
C101 H157 0.929 . S
C102 C98 1.356 . S
C102 C99 1.358 . S
C102 H158 0.930 . S
C103 N100 1.314 . S
C103 C101 1.353 . S
C103 H159 0.930 . S
C104 N105 1.314 . S
C104 C109 1.353 . S
C104 H110 0.930 . S
N105 Li88 1.990 . S
N105 C104 1.314 . S
N105 C107 1.279 . S
C106 C107 1.358 . S
C106 C108 1.356 . S
C106 H160 0.930 . S
C107 N105 1.279 . S
C107 C106 1.358 . S
C107 H111 0.930 . S
C108 C106 1.356 . S
C108 C109 1.348 . S
C109 C104 1.353 . S
C109 C108 1.348 . S
C109 H161 0.929 . S
H110 C104 0.930 . S
H111 C107 0.930 . S
C112 N113 1.314 . S
C112 C114 1.353 . S
C112 H118 0.930 . S
N113 Li89 1.990 . S
N113 C112 1.314 . S
N113 C116 1.279 . S
C114 C112 1.353 . S
C114 C117 1.348 . S
C114 H162 0.929 . S
C115 C116 1.358 . S
C115 C117 1.356 . S
C115 H163 0.930 . S
C116 N113 1.279 . S
C116 C115 1.358 . S
C116 H119 0.930 . S
C117 C114 1.348 . S
C117 C115 1.356 . S
H118 C112 0.930 . S
H119 C116 0.930 . S
C120 C122 1.348 . S
C120 C123 1.356 . S
C120 O150 1.325 . S
N121 C124 1.314 . S
N121 C125 1.279 . S
C122 C120 1.348 . S
C122 C124 1.353 . S
C122 H164 0.929 . S
C123 C120 1.356 . S
C123 C125 1.358 . S
C123 H165 0.930 . S
C124 N121 1.314 . S
C124 C122 1.353 . S
C124 H166 0.930 . S
C125 N121 1.279 . S
C125 C123 1.358 . S
C125 H167 0.930 . S
C126 C127 1.348 . S
C126 C128 1.356 . S
C126 O151 1.325 . S
C127 C126 1.348 . S
C127 C129 1.353 . S
C127 H168 0.929 . S
C128 C126 1.356 . S
C128 C130 1.358 . S
C128 H169 0.930 . S
C129 C127 1.353 . S
C129 N131 1.314 . S
C129 H170 0.930 . S
C130 C128 1.358 . S
C130 N131 1.279 . S
C130 H171 0.930 . S
N131 C129 1.314 . S
N131 C130 1.279 . S
C132 C134 1.353 . S
C132 N135 1.314 . S
C132 H138 0.930 . S
C133 N135 1.279 . S
C133 C136 1.358 . S
C133 H139 0.930 . S
C134 C132 1.353 . S
C134 C137 1.348 . S
C134 H172 0.929 . S
N135 Li90 1.990 . S
N135 C132 1.314 . S
N135 C133 1.279 . S
C136 C133 1.358 . S
C136 C137 1.356 . S
C136 H173 0.930 . S
C137 C134 1.348 . S
C137 C136 1.356 . S
H138 C132 0.930 . S
H139 C133 0.930 . S
C140 N141 1.314 . S
C140 C142 1.353 . S
C140 H146 0.930 . S
N141 Li91 1.990 . S
N141 C140 1.314 . S
N141 C144 1.279 . S
C142 C140 1.353 . S
C142 C145 1.348 . S
C142 H174 0.929 . S
C143 C144 1.358 . S
C143 C145 1.356 . S
C143 H175 0.930 . S
C144 N141 1.279 . S
C144 C143 1.358 . S
C144 H147 0.930 . S
C145 C142 1.348 . S
C145 C143 1.356 . S
H146 C140 0.930 . S
H147 C144 0.930 . S
O148 Li88 1.956 . S
O148 Li89 1.970 . S
O148 Li90 1.961 . S
O148 C92 1.325 . S
O149 Li88 1.970 . S
O149 Li89 1.956 . S
O149 Li91 1.961 . S
O149 C98 1.325 . S
O150 Li88 1.961 . S
O150 Li90 1.956 . S
O150 Li91 1.970 . S
O150 C120 1.325 . S
O151 Li89 1.961 . S
O151 Li90 1.970 . S
O151 Li91 1.956 . S
O151 C126 1.325 . S
H152 C94 0.929 . S
H153 C95 0.930 . S
H154 C96 0.930 . S
H155 C97 0.930 . S
H156 C99 0.930 . S
H157 C101 0.929 . S
H158 C102 0.930 . S
H159 C103 0.930 . S
H160 C106 0.930 . S
H161 C109 0.929 . S
H162 C114 0.929 . S
H163 C115 0.930 . S
H164 C122 0.929 . S
H165 C123 0.930 . S
H166 C124 0.930 . S
H167 C125 0.930 . S
H168 C127 0.929 . S
H169 C128 0.930 . S
H170 C129 0.930 . S
H171 C130 0.930 . S
H172 C134 0.929 . S
H173 C136 0.930 . S
H174 C142 0.929 . S
H175 C143 0.930 . S
Li176 N193 1.990 . S
Li176 O236 1.956 . S
Li176 O237 1.970 . S
Li176 O238 1.961 . S
Li177 N201 1.990 . S
Li177 O236 1.970 . S
Li177 O237 1.956 . S
Li177 O239 1.961 . S
Li178 N223 1.990 . S
Li178 O236 1.961 . S
Li178 O238 1.956 . S
Li178 O239 1.970 . S
Li179 N229 1.990 . S
Li179 O237 1.961 . S
Li179 O238 1.970 . S
Li179 O239 1.956 . S
C180 C182 1.348 . S
C180 C183 1.356 . S
C180 O236 1.325 . S
N181 C184 1.314 . S
N181 C185 1.279 . S
C182 C180 1.348 . S
C182 C184 1.353 . S
C182 H240 0.929 . S
C183 C180 1.356 . S
C183 C185 1.358 . S
C183 H241 0.930 . S
C184 N181 1.314 . S
C184 C182 1.353 . S
C184 H242 0.930 . S
C185 N181 1.279 . S
C185 C183 1.358 . S
C185 H243 0.930 . S
C186 C189 1.348 . S
C186 C190 1.356 . S
C186 O237 1.325 . S
C187 N188 1.279 . S
C187 C190 1.358 . S
C187 H244 0.930 . S
N188 C187 1.279 . S
N188 C191 1.314 . S
C189 C186 1.348 . S
C189 C191 1.353 . S
C189 H245 0.929 . S
C190 C186 1.356 . S
C190 C187 1.358 . S
C190 H246 0.930 . S
C191 N188 1.314 . S
C191 C189 1.353 . S
C191 H247 0.930 . S
C192 N193 1.314 . S
C192 C197 1.353 . S
C192 H198 0.930 . S
N193 Li176 1.990 . S
N193 C192 1.314 . S
N193 C195 1.279 . S
C194 C195 1.358 . S
C194 C196 1.356 . S
C194 H248 0.930 . S
C195 N193 1.279 . S
C195 C194 1.358 . S
C195 H199 0.930 . S
C196 C194 1.356 . S
C196 C197 1.348 . S
C197 C192 1.353 . S
C197 C196 1.348 . S
C197 H249 0.929 . S
H198 C192 0.930 . S
H199 C195 0.930 . S
C200 N201 1.314 . S
C200 C202 1.353 . S
C200 H206 0.930 . S
N201 Li177 1.990 . S
N201 C200 1.314 . S
N201 C204 1.279 . S
C202 C200 1.353 . S
C202 C205 1.348 . S
C202 H250 0.929 . S
C203 C204 1.358 . S
C203 C205 1.356 . S
C203 H251 0.930 . S
C204 N201 1.279 . S
C204 C203 1.358 . S
C204 H207 0.930 . S
C205 C202 1.348 . S
C205 C203 1.356 . S
H206 C200 0.930 . S
H207 C204 0.930 . S
C208 C210 1.348 . S
C208 C211 1.356 . S
C208 O238 1.325 . S
N209 C212 1.314 . S
N209 C213 1.279 . S
C210 C208 1.348 . S
C210 C212 1.353 . S
C210 H252 0.929 . S
C211 C208 1.356 . S
C211 C213 1.358 . S
C211 H253 0.930 . S
C212 N209 1.314 . S
C212 C210 1.353 . S
C212 H254 0.930 . S
C213 N209 1.279 . S
C213 C211 1.358 . S
C213 H255 0.930 . S
C214 C215 1.348 . S
C214 C216 1.356 . S
C214 O239 1.325 . S
C215 C214 1.348 . S
C215 C217 1.353 . S
C215 H256 0.929 . S
C216 C214 1.356 . S
C216 C218 1.358 . S
C216 H257 0.930 . S
C217 C215 1.353 . S
C217 N219 1.314 . S
C217 H258 0.930 . S
C218 C216 1.358 . S
C218 N219 1.279 . S
C218 H259 0.930 . S
N219 C217 1.314 . S
N219 C218 1.279 . S
C220 C222 1.353 . S
C220 N223 1.314 . S
C220 H226 0.930 . S
C221 N223 1.279 . S
C221 C224 1.358 . S
C221 H227 0.930 . S
C222 C220 1.353 . S
C222 C225 1.348 . S
C222 H260 0.929 . S
N223 Li178 1.990 . S
N223 C220 1.314 . S
N223 C221 1.279 . S
C224 C221 1.358 . S
C224 C225 1.356 . S
C224 H261 0.930 . S
C225 C222 1.348 . S
C225 C224 1.356 . S
H226 C220 0.930 . S
H227 C221 0.930 . S
C228 N229 1.314 . S
C228 C230 1.353 . S
C228 H234 0.930 . S
N229 Li179 1.990 . S
N229 C228 1.314 . S
N229 C232 1.279 . S
C230 C228 1.353 . S
C230 C233 1.348 . S
C230 H262 0.929 . S
C231 C232 1.358 . S
C231 C233 1.356 . S
C231 H263 0.930 . S
C232 N229 1.279 . S
C232 C231 1.358 . S
C232 H235 0.930 . S
C233 C230 1.348 . S
C233 C231 1.356 . S
H234 C228 0.930 . S
H235 C232 0.930 . S
O236 Li176 1.956 . S
O236 Li177 1.970 . S
O236 Li178 1.961 . S
O236 C180 1.325 . S
O237 Li176 1.970 . S
O237 Li177 1.956 . S
O237 Li179 1.961 . S
O237 C186 1.325 . S
O238 Li176 1.961 . S
O238 Li178 1.956 . S
O238 Li179 1.970 . S
O238 C208 1.325 . S
O239 Li177 1.961 . S
O239 Li178 1.970 . S
O239 Li179 1.956 . S
O239 C214 1.325 . S
H240 C182 0.929 . S
H241 C183 0.930 . S
H242 C184 0.930 . S
H243 C185 0.930 . S
H244 C187 0.930 . S
H245 C189 0.929 . S
H246 C190 0.930 . S
H247 C191 0.930 . S
H248 C194 0.930 . S
H249 C197 0.929 . S
H250 C202 0.929 . S
H251 C203 0.930 . S
H252 C210 0.929 . S
H253 C211 0.930 . S
H254 C212 0.930 . S
H255 C213 0.930 . S
H256 C215 0.929 . S
H257 C216 0.930 . S
H258 C217 0.930 . S
H259 C218 0.930 . S
H260 C222 0.929 . S
H261 C224 0.930 . S
H262 C230 0.929 . S
H263 C231 0.930 . S
Li264 N281 1.990 . S
Li264 O324 1.956 . S
Li264 O325 1.970 . S
Li264 O326 1.961 . S
Li265 N289 1.990 . S
Li265 O324 1.970 . S
Li265 O325 1.956 . S
Li265 O327 1.961 . S
Li266 N311 1.990 . S
Li266 O324 1.961 . S
Li266 O326 1.956 . S
Li266 O327 1.970 . S
Li267 N317 1.990 . S
Li267 O325 1.961 . S
Li267 O326 1.970 . S
Li267 O327 1.956 . S
C268 C270 1.348 . S
C268 C271 1.356 . S
C268 O324 1.325 . S
N269 C272 1.314 . S
N269 C273 1.279 . S
C270 C268 1.348 . S
C270 C272 1.353 . S
C270 H328 0.929 . S
C271 C268 1.356 . S
C271 C273 1.358 . S
C271 H329 0.930 . S
C272 N269 1.314 . S
C272 C270 1.353 . S
C272 H330 0.930 . S
C273 N269 1.279 . S
C273 C271 1.358 . S
C273 H331 0.930 . S
C274 C277 1.348 . S
C274 C278 1.356 . S
C274 O325 1.325 . S
C275 N276 1.279 . S
C275 C278 1.358 . S
C275 H332 0.930 . S
N276 C275 1.279 . S
N276 C279 1.314 . S
C277 C274 1.348 . S
C277 C279 1.353 . S
C277 H333 0.929 . S
C278 C274 1.356 . S
C278 C275 1.358 . S
C278 H334 0.930 . S
C279 N276 1.314 . S
C279 C277 1.353 . S
C279 H335 0.930 . S
C280 N281 1.314 . S
C280 C285 1.353 . S
C280 H286 0.930 . S
N281 Li264 1.990 . S
N281 C280 1.314 . S
N281 C283 1.279 . S
C282 C283 1.358 . S
C282 C284 1.356 . S
C282 H336 0.930 . S
C283 N281 1.279 . S
C283 C282 1.358 . S
C283 H287 0.930 . S
C284 C282 1.356 . S
C284 C285 1.348 . S
C285 C280 1.353 . S
C285 C284 1.348 . S
C285 H337 0.929 . S
H286 C280 0.930 . S
H287 C283 0.930 . S
C288 N289 1.314 . S
C288 C290 1.353 . S
C288 H294 0.930 . S
N289 Li265 1.990 . S
N289 C288 1.314 . S
N289 C292 1.279 . S
C290 C288 1.353 . S
C290 C293 1.348 . S
C290 H338 0.929 . S
C291 C292 1.358 . S
C291 C293 1.356 . S
C291 H339 0.930 . S
C292 N289 1.279 . S
C292 C291 1.358 . S
C292 H295 0.930 . S
C293 C290 1.348 . S
C293 C291 1.356 . S
H294 C288 0.930 . S
H295 C292 0.930 . S
C296 C298 1.348 . S
C296 C299 1.356 . S
C296 O326 1.325 . S
N297 C300 1.314 . S
N297 C301 1.279 . S
C298 C296 1.348 . S
C298 C300 1.353 . S
C298 H340 0.929 . S
C299 C296 1.356 . S
C299 C301 1.358 . S
C299 H341 0.930 . S
C300 N297 1.314 . S
C300 C298 1.353 . S
C300 H342 0.930 . S
C301 N297 1.279 . S
C301 C299 1.358 . S
C301 H343 0.930 . S
C302 C303 1.348 . S
C302 C304 1.356 . S
C302 O327 1.325 . S
C303 C302 1.348 . S
C303 C305 1.353 . S
C303 H344 0.929 . S
C304 C302 1.356 . S
C304 C306 1.358 . S
C304 H345 0.930 . S
C305 C303 1.353 . S
C305 N307 1.314 . S
C305 H346 0.930 . S
C306 C304 1.358 . S
C306 N307 1.279 . S
C306 H347 0.930 . S
N307 C305 1.314 . S
N307 C306 1.279 . S
C308 C310 1.353 . S
C308 N311 1.314 . S
C308 H314 0.930 . S
C309 N311 1.279 . S
C309 C312 1.358 . S
C309 H315 0.930 . S
C310 C308 1.353 . S
C310 C313 1.348 . S
C310 H348 0.929 . S
N311 Li266 1.990 . S
N311 C308 1.314 . S
N311 C309 1.279 . S
C312 C309 1.358 . S
C312 C313 1.356 . S
C312 H349 0.930 . S
C313 C310 1.348 . S
C313 C312 1.356 . S
H314 C308 0.930 . S
H315 C309 0.930 . S
C316 N317 1.314 . S
C316 C318 1.353 . S
C316 H322 0.930 . S
N317 Li267 1.990 . S
N317 C316 1.314 . S
N317 C320 1.279 . S
C318 C316 1.353 . S
C318 C321 1.348 . S
C318 H350 0.929 . S
C319 C320 1.358 . S
C319 C321 1.356 . S
C319 H351 0.930 . S
C320 N317 1.279 . S
C320 C319 1.358 . S
C320 H323 0.930 . S
C321 C318 1.348 . S
C321 C319 1.356 . S
H322 C316 0.930 . S
H323 C320 0.930 . S
O324 Li264 1.956 . S
O324 Li265 1.970 . S
O324 Li266 1.961 . S
O324 C268 1.325 . S
O325 Li264 1.970 . S
O325 Li265 1.956 . S
O325 Li267 1.961 . S
O325 C274 1.325 . S
O326 Li264 1.961 . S
O326 Li266 1.956 . S
O326 Li267 1.970 . S
O326 C296 1.325 . S
O327 Li265 1.961 . S
O327 Li266 1.970 . S
O327 Li267 1.956 . S
O327 C302 1.325 . S
H328 C270 0.929 . S
H329 C271 0.930 . S
H330 C272 0.930 . S
H331 C273 0.930 . S
H332 C275 0.930 . S
H333 C277 0.929 . S
H334 C278 0.930 . S
H335 C279 0.930 . S
H336 C282 0.930 . S
H337 C285 0.929 . S
H338 C290 0.929 . S
H339 C291 0.930 . S
H340 C298 0.929 . S
H341 C299 0.930 . S
H342 C300 0.930 . S
H343 C301 0.930 . S
H344 C303 0.929 . S
H345 C304 0.930 . S
H346 C305 0.930 . S
H347 C306 0.930 . S
H348 C310 0.929 . S
H349 C312 0.930 . S
H350 C318 0.929 . S
H351 C319 0.930 . S
Li352 N369 1.990 . S
Li352 O412 1.956 . S
Li352 O413 1.970 . S
Li352 O414 1.961 . S
Li353 N377 1.990 . S
Li353 O412 1.970 . S
Li353 O413 1.956 . S
Li353 O415 1.961 . S
Li354 N399 1.990 . S
Li354 O412 1.961 . S
Li354 O414 1.956 . S
Li354 O415 1.970 . S
Li355 N405 1.990 . S
Li355 O413 1.961 . S
Li355 O414 1.970 . S
Li355 O415 1.956 . S
C356 C358 1.348 . S
C356 C359 1.356 . S
C356 O412 1.325 . S
N357 C360 1.314 . S
N357 C361 1.279 . S
C358 C356 1.348 . S
C358 C360 1.353 . S
C358 H416 0.929 . S
C359 C356 1.356 . S
C359 C361 1.358 . S
C359 H417 0.930 . S
C360 N357 1.314 . S
C360 C358 1.353 . S
C360 H418 0.930 . S
C361 N357 1.279 . S
C361 C359 1.358 . S
C361 H419 0.930 . S
C362 C365 1.348 . S
C362 C366 1.356 . S
C362 O413 1.325 . S
C363 N364 1.279 . S
C363 C366 1.358 . S
C363 H420 0.930 . S
N364 C363 1.279 . S
N364 C367 1.314 . S
C365 C362 1.348 . S
C365 C367 1.353 . S
C365 H421 0.929 . S
C366 C362 1.356 . S
C366 C363 1.358 . S
C366 H422 0.930 . S
C367 N364 1.314 . S
C367 C365 1.353 . S
C367 H423 0.930 . S
C368 N369 1.314 . S
C368 C373 1.353 . S
C368 H374 0.930 . S
N369 Li352 1.990 . S
N369 C368 1.314 . S
N369 C371 1.279 . S
C370 C371 1.358 . S
C370 C372 1.356 . S
C370 H424 0.930 . S
C371 N369 1.279 . S
C371 C370 1.358 . S
C371 H375 0.930 . S
C372 C370 1.356 . S
C372 C373 1.348 . S
C373 C368 1.353 . S
C373 C372 1.348 . S
C373 H425 0.929 . S
H374 C368 0.930 . S
H375 C371 0.930 . S
C376 N377 1.314 . S
C376 C378 1.353 . S
C376 H382 0.930 . S
N377 Li353 1.990 . S
N377 C376 1.314 . S
N377 C380 1.279 . S
C378 C376 1.353 . S
C378 C381 1.348 . S
C378 H426 0.929 . S
C379 C380 1.358 . S
C379 C381 1.356 . S
C379 H427 0.930 . S
C380 N377 1.279 . S
C380 C379 1.358 . S
C380 H383 0.930 . S
C381 C378 1.348 . S
C381 C379 1.356 . S
H382 C376 0.930 . S
H383 C380 0.930 . S
C384 C386 1.348 . S
C384 C387 1.356 . S
C384 O414 1.325 . S
N385 C388 1.314 . S
N385 C389 1.279 . S
C386 C384 1.348 . S
C386 C388 1.353 . S
C386 H428 0.929 . S
C387 C384 1.356 . S
C387 C389 1.358 . S
C387 H429 0.930 . S
C388 N385 1.314 . S
C388 C386 1.353 . S
C388 H430 0.930 . S
C389 N385 1.279 . S
C389 C387 1.358 . S
C389 H431 0.930 . S
C390 C391 1.348 . S
C390 C392 1.356 . S
C390 O415 1.325 . S
C391 C390 1.348 . S
C391 C393 1.353 . S
C391 H432 0.929 . S
C392 C390 1.356 . S
C392 C394 1.358 . S
C392 H433 0.930 . S
C393 C391 1.353 . S
C393 N395 1.314 . S
C393 H434 0.930 . S
C394 C392 1.358 . S
C394 N395 1.279 . S
C394 H435 0.930 . S
N395 C393 1.314 . S
N395 C394 1.279 . S
C396 C398 1.353 . S
C396 N399 1.314 . S
C396 H402 0.930 . S
C397 N399 1.279 . S
C397 C400 1.358 . S
C397 H403 0.930 . S
C398 C396 1.353 . S
C398 C401 1.348 . S
C398 H436 0.929 . S
N399 Li354 1.990 . S
N399 C396 1.314 . S
N399 C397 1.279 . S
C400 C397 1.358 . S
C400 C401 1.356 . S
C400 H437 0.930 . S
C401 C398 1.348 . S
C401 C400 1.356 . S
H402 C396 0.930 . S
H403 C397 0.930 . S
C404 N405 1.314 . S
C404 C406 1.353 . S
C404 H410 0.930 . S
N405 Li355 1.990 . S
N405 C404 1.314 . S
N405 C408 1.279 . S
C406 C404 1.353 . S
C406 C409 1.348 . S
C406 H438 0.929 . S
C407 C408 1.358 . S
C407 C409 1.356 . S
C407 H439 0.930 . S
C408 N405 1.279 . S
C408 C407 1.358 . S
C408 H411 0.930 . S
C409 C406 1.348 . S
C409 C407 1.356 . S
H410 C404 0.930 . S
H411 C408 0.930 . S
O412 Li352 1.956 . S
O412 Li353 1.970 . S
O412 Li354 1.961 . S
O412 C356 1.325 . S
O413 Li352 1.970 . S
O413 Li353 1.956 . S
O413 Li355 1.961 . S
O413 C362 1.325 . S
O414 Li352 1.961 . S
O414 Li354 1.956 . S
O414 Li355 1.970 . S
O414 C384 1.325 . S
O415 Li353 1.961 . S
O415 Li354 1.970 . S
O415 Li355 1.956 . S
O415 C390 1.325 . S
H416 C358 0.929 . S
H417 C359 0.930 . S
H418 C360 0.930 . S
H419 C361 0.930 . S
H420 C363 0.930 . S
H421 C365 0.929 . S
H422 C366 0.930 . S
H423 C367 0.930 . S
H424 C370 0.930 . S
H425 C373 0.929 . S
H426 C378 0.929 . S
H427 C379 0.930 . S
H428 C386 0.929 . S
H429 C387 0.930 . S
H430 C388 0.930 . S
H431 C389 0.930 . S
H432 C391 0.929 . S
H433 C392 0.930 . S
H434 C393 0.930 . S
H435 C394 0.930 . S
H436 C398 0.929 . S
H437 C400 0.930 . S
H438 C406 0.929 . S
H439 C407 0.930 . S
Li440 N457 1.990 . S
Li440 O500 1.956 . S
Li440 O501 1.970 . S
Li440 O502 1.961 . S
Li441 N465 1.990 . S
Li441 O500 1.970 . S
Li441 O501 1.956 . S
Li441 O503 1.961 . S
Li442 N487 1.990 . S
Li442 O500 1.961 . S
Li442 O502 1.956 . S
Li442 O503 1.970 . S
Li443 N493 1.990 . S
Li443 O501 1.961 . S
Li443 O502 1.970 . S
Li443 O503 1.956 . S
C444 C446 1.348 . S
C444 C447 1.356 . S
C444 O500 1.325 . S
N445 C448 1.314 . S
N445 C449 1.279 . S
C446 C444 1.348 . S
C446 C448 1.353 . S
C446 H504 0.929 . S
C447 C444 1.356 . S
C447 C449 1.358 . S
C447 H505 0.930 . S
C448 N445 1.314 . S
C448 C446 1.353 . S
C448 H506 0.930 . S
C449 N445 1.279 . S
C449 C447 1.358 . S
C449 H507 0.930 . S
C450 C453 1.348 . S
C450 C454 1.356 . S
C450 O501 1.325 . S
C451 N452 1.279 . S
C451 C454 1.358 . S
C451 H508 0.930 . S
N452 C451 1.279 . S
N452 C455 1.314 . S
C453 C450 1.348 . S
C453 C455 1.353 . S
C453 H509 0.929 . S
C454 C450 1.356 . S
C454 C451 1.358 . S
C454 H510 0.930 . S
C455 N452 1.314 . S
C455 C453 1.353 . S
C455 H511 0.930 . S
C456 N457 1.314 . S
C456 C461 1.353 . S
C456 H462 0.930 . S
N457 Li440 1.990 . S
N457 C456 1.314 . S
N457 C459 1.279 . S
C458 C459 1.358 . S
C458 C460 1.356 . S
C458 H512 0.930 . S
C459 N457 1.279 . S
C459 C458 1.358 . S
C459 H463 0.930 . S
C460 C458 1.356 . S
C460 C461 1.348 . S
C461 C456 1.353 . S
C461 C460 1.348 . S
C461 H513 0.929 . S
H462 C456 0.930 . S
H463 C459 0.930 . S
C464 N465 1.314 . S
C464 C466 1.353 . S
C464 H470 0.930 . S
N465 Li441 1.990 . S
N465 C464 1.314 . S
N465 C468 1.279 . S
C466 C464 1.353 . S
C466 C469 1.348 . S
C466 H514 0.929 . S
C467 C468 1.358 . S
C467 C469 1.356 . S
C467 H515 0.930 . S
C468 N465 1.279 . S
C468 C467 1.358 . S
C468 H471 0.930 . S
C469 C466 1.348 . S
C469 C467 1.356 . S
H470 C464 0.930 . S
H471 C468 0.930 . S
C472 C474 1.348 . S
C472 C475 1.356 . S
C472 O502 1.325 . S
N473 C476 1.314 . S
N473 C477 1.279 . S
C474 C472 1.348 . S
C474 C476 1.353 . S
C474 H516 0.929 . S
C475 C472 1.356 . S
C475 C477 1.358 . S
C475 H517 0.930 . S
C476 N473 1.314 . S
C476 C474 1.353 . S
C476 H518 0.930 . S
C477 N473 1.279 . S
C477 C475 1.358 . S
C477 H519 0.930 . S
C478 C479 1.348 . S
C478 C480 1.356 . S
C478 O503 1.325 . S
C479 C478 1.348 . S
C479 C481 1.353 . S
C479 H520 0.929 . S
C480 C478 1.356 . S
C480 C482 1.358 . S
C480 H521 0.930 . S
C481 C479 1.353 . S
C481 N483 1.314 . S
C481 H522 0.930 . S
C482 C480 1.358 . S
C482 N483 1.279 . S
C482 H523 0.930 . S
N483 C481 1.314 . S
N483 C482 1.279 . S
C484 C486 1.353 . S
C484 N487 1.314 . S
C484 H490 0.930 . S
C485 N487 1.279 . S
C485 C488 1.358 . S
C485 H491 0.930 . S
C486 C484 1.353 . S
C486 C489 1.348 . S
C486 H524 0.929 . S
N487 Li442 1.990 . S
N487 C484 1.314 . S
N487 C485 1.279 . S
C488 C485 1.358 . S
C488 C489 1.356 . S
C488 H525 0.930 . S
C489 C486 1.348 . S
C489 C488 1.356 . S
H490 C484 0.930 . S
H491 C485 0.930 . S
C492 N493 1.314 . S
C492 C494 1.353 . S
C492 H498 0.930 . S
N493 Li443 1.990 . S
N493 C492 1.314 . S
N493 C496 1.279 . S
C494 C492 1.353 . S
C494 C497 1.348 . S
C494 H526 0.929 . S
C495 C496 1.358 . S
C495 C497 1.356 . S
C495 H527 0.930 . S
C496 N493 1.279 . S
C496 C495 1.358 . S
C496 H499 0.930 . S
C497 C494 1.348 . S
C497 C495 1.356 . S
H498 C492 0.930 . S
H499 C496 0.930 . S
O500 Li440 1.956 . S
O500 Li441 1.970 . S
O500 Li442 1.961 . S
O500 C444 1.325 . S
O501 Li440 1.970 . S
O501 Li441 1.956 . S
O501 Li443 1.961 . S
O501 C450 1.325 . S
O502 Li440 1.961 . S
O502 Li442 1.956 . S
O502 Li443 1.970 . S
O502 C472 1.325 . S
O503 Li441 1.961 . S
O503 Li442 1.970 . S
O503 Li443 1.956 . S
O503 C478 1.325 . S
H504 C446 0.929 . S
H505 C447 0.930 . S
H506 C448 0.930 . S
H507 C449 0.930 . S
H508 C451 0.930 . S
H509 C453 0.929 . S
H510 C454 0.930 . S
H511 C455 0.930 . S
H512 C458 0.930 . S
H513 C461 0.929 . S
H514 C466 0.929 . S
H515 C467 0.930 . S
H516 C474 0.929 . S
H517 C475 0.930 . S
H518 C476 0.930 . S
H519 C477 0.930 . S
H520 C479 0.929 . S
H521 C480 0.930 . S
H522 C481 0.930 . S
H523 C482 0.930 . S
H524 C486 0.929 . S
H525 C488 0.930 . S
H526 C494 0.929 . S
H527 C495 0.930 . S
Li528 N545 1.990 . S
Li528 O588 1.956 . S
Li528 O589 1.970 . S
Li528 O590 1.961 . S
Li529 N553 1.990 . S
Li529 O588 1.970 . S
Li529 O589 1.956 . S
Li529 O591 1.961 . S
Li530 N575 1.990 . S
Li530 O588 1.961 . S
Li530 O590 1.956 . S
Li530 O591 1.970 . S
Li531 N581 1.990 . S
Li531 O589 1.961 . S
Li531 O590 1.970 . S
Li531 O591 1.956 . S
C532 C534 1.348 . S
C532 C535 1.356 . S
C532 O588 1.325 . S
N533 C536 1.314 . S
N533 C537 1.279 . S
C534 C532 1.348 . S
C534 C536 1.353 . S
C534 H592 0.929 . S
C535 C532 1.356 . S
C535 C537 1.358 . S
C535 H593 0.930 . S
C536 N533 1.314 . S
C536 C534 1.353 . S
C536 H594 0.930 . S
C537 N533 1.279 . S
C537 C535 1.358 . S
C537 H595 0.930 . S
C538 C541 1.348 . S
C538 C542 1.356 . S
C538 O589 1.325 . S
C539 N540 1.279 . S
C539 C542 1.358 . S
C539 H596 0.930 . S
N540 C539 1.279 . S
N540 C543 1.314 . S
C541 C538 1.348 . S
C541 C543 1.353 . S
C541 H597 0.929 . S
C542 C538 1.356 . S
C542 C539 1.358 . S
C542 H598 0.930 . S
C543 N540 1.314 . S
C543 C541 1.353 . S
C543 H599 0.930 . S
C544 N545 1.314 . S
C544 C549 1.353 . S
C544 H550 0.930 . S
N545 Li528 1.990 . S
N545 C544 1.314 . S
N545 C547 1.279 . S
C546 C547 1.358 . S
C546 C548 1.356 . S
C546 H600 0.930 . S
C547 N545 1.279 . S
C547 C546 1.358 . S
C547 H551 0.930 . S
C548 C546 1.356 . S
C548 C549 1.348 . S
C549 C544 1.353 . S
C549 C548 1.348 . S
C549 H601 0.929 . S
H550 C544 0.930 . S
H551 C547 0.930 . S
C552 N553 1.314 . S
C552 C554 1.353 . S
C552 H558 0.930 . S
N553 Li529 1.990 . S
N553 C552 1.314 . S
N553 C556 1.279 . S
C554 C552 1.353 . S
C554 C557 1.348 . S
C554 H602 0.929 . S
C555 C556 1.358 . S
C555 C557 1.356 . S
C555 H603 0.930 . S
C556 N553 1.279 . S
C556 C555 1.358 . S
C556 H559 0.930 . S
C557 C554 1.348 . S
C557 C555 1.356 . S
H558 C552 0.930 . S
H559 C556 0.930 . S
C560 C562 1.348 . S
C560 C563 1.356 . S
C560 O590 1.325 . S
N561 C564 1.314 . S
N561 C565 1.279 . S
C562 C560 1.348 . S
C562 C564 1.353 . S
C562 H604 0.929 . S
C563 C560 1.356 . S
C563 C565 1.358 . S
C563 H605 0.930 . S
C564 N561 1.314 . S
C564 C562 1.353 . S
C564 H606 0.930 . S
C565 N561 1.279 . S
C565 C563 1.358 . S
C565 H607 0.930 . S
C566 C567 1.348 . S
C566 C568 1.356 . S
C566 O591 1.325 . S
C567 C566 1.348 . S
C567 C569 1.353 . S
C567 H608 0.929 . S
C568 C566 1.356 . S
C568 C570 1.358 . S
C568 H609 0.930 . S
C569 C567 1.353 . S
C569 N571 1.314 . S
C569 H610 0.930 . S
C570 C568 1.358 . S
C570 N571 1.279 . S
C570 H611 0.930 . S
N571 C569 1.314 . S
N571 C570 1.279 . S
C572 C574 1.353 . S
C572 N575 1.314 . S
C572 H578 0.930 . S
C573 N575 1.279 . S
C573 C576 1.358 . S
C573 H579 0.930 . S
C574 C572 1.353 . S
C574 C577 1.348 . S
C574 H612 0.929 . S
N575 Li530 1.990 . S
N575 C572 1.314 . S
N575 C573 1.279 . S
C576 C573 1.358 . S
C576 C577 1.356 . S
C576 H613 0.930 . S
C577 C574 1.348 . S
C577 C576 1.356 . S
H578 C572 0.930 . S
H579 C573 0.930 . S
C580 N581 1.314 . S
C580 C582 1.353 . S
C580 H586 0.930 . S
N581 Li531 1.990 . S
N581 C580 1.314 . S
N581 C584 1.279 . S
C582 C580 1.353 . S
C582 C585 1.348 . S
C582 H614 0.929 . S
C583 C584 1.358 . S
C583 C585 1.356 . S
C583 H615 0.930 . S
C584 N581 1.279 . S
C584 C583 1.358 . S
C584 H587 0.930 . S
C585 C582 1.348 . S
C585 C583 1.356 . S
H586 C580 0.930 . S
H587 C584 0.930 . S
O588 Li528 1.956 . S
O588 Li529 1.970 . S
O588 Li530 1.961 . S
O588 C532 1.325 . S
O589 Li528 1.970 . S
O589 Li529 1.956 . S
O589 Li531 1.961 . S
O589 C538 1.325 . S
O590 Li528 1.961 . S
O590 Li530 1.956 . S
O590 Li531 1.970 . S
O590 C560 1.325 . S
O591 Li529 1.961 . S
O591 Li530 1.970 . S
O591 Li531 1.956 . S
O591 C566 1.325 . S
H592 C534 0.929 . S
H593 C535 0.930 . S
H594 C536 0.930 . S
H595 C537 0.930 . S
H596 C539 0.930 . S
H597 C541 0.929 . S
H598 C542 0.930 . S
H599 C543 0.930 . S
H600 C546 0.930 . S
H601 C549 0.929 . S
H602 C554 0.929 . S
H603 C555 0.930 . S
H604 C562 0.929 . S
H605 C563 0.930 . S
H606 C564 0.930 . S
H607 C565 0.930 . S
H608 C567 0.929 . S
H609 C568 0.930 . S
H610 C569 0.930 . S
H611 C570 0.930 . S
H612 C574 0.929 . S
H613 C576 0.930 . S
H614 C582 0.929 . S
H615 C583 0.930 . S
Li616 N633 1.990 . S
Li616 O676 1.956 . S
Li616 O677 1.970 . S
Li616 O678 1.961 . S
Li617 N641 1.990 . S
Li617 O676 1.970 . S
Li617 O677 1.956 . S
Li617 O679 1.961 . S
Li618 N663 1.990 . S
Li618 O676 1.961 . S
Li618 O678 1.956 . S
Li618 O679 1.970 . S
Li619 N669 1.990 . S
Li619 O677 1.961 . S
Li619 O678 1.970 . S
Li619 O679 1.956 . S
C620 C622 1.348 . S
C620 C623 1.356 . S
C620 O676 1.325 . S
N621 C624 1.314 . S
N621 C625 1.279 . S
C622 C620 1.348 . S
C622 C624 1.353 . S
C622 H680 0.929 . S
C623 C620 1.356 . S
C623 C625 1.358 . S
C623 H681 0.930 . S
C624 N621 1.314 . S
C624 C622 1.353 . S
C624 H682 0.930 . S
C625 N621 1.279 . S
C625 C623 1.358 . S
C625 H683 0.930 . S
C626 C629 1.348 . S
C626 C630 1.356 . S
C626 O677 1.325 . S
C627 N628 1.279 . S
C627 C630 1.358 . S
C627 H684 0.930 . S
N628 C627 1.279 . S
N628 C631 1.314 . S
C629 C626 1.348 . S
C629 C631 1.353 . S
C629 H685 0.929 . S
C630 C626 1.356 . S
C630 C627 1.358 . S
C630 H686 0.930 . S
C631 N628 1.314 . S
C631 C629 1.353 . S
C631 H687 0.930 . S
C632 N633 1.314 . S
C632 C637 1.353 . S
C632 H638 0.930 . S
N633 Li616 1.990 . S
N633 C632 1.314 . S
N633 C635 1.279 . S
C634 C635 1.358 . S
C634 C636 1.356 . S
C634 H688 0.930 . S
C635 N633 1.279 . S
C635 C634 1.358 . S
C635 H639 0.930 . S
C636 C634 1.356 . S
C636 C637 1.348 . S
C637 C632 1.353 . S
C637 C636 1.348 . S
C637 H689 0.929 . S
H638 C632 0.930 . S
H639 C635 0.930 . S
C640 N641 1.314 . S
C640 C642 1.353 . S
C640 H646 0.930 . S
N641 Li617 1.990 . S
N641 C640 1.314 . S
N641 C644 1.279 . S
C642 C640 1.353 . S
C642 C645 1.348 . S
C642 H690 0.929 . S
C643 C644 1.358 . S
C643 C645 1.356 . S
C643 H691 0.930 . S
C644 N641 1.279 . S
C644 C643 1.358 . S
C644 H647 0.930 . S
C645 C642 1.348 . S
C645 C643 1.356 . S
H646 C640 0.930 . S
H647 C644 0.930 . S
C648 C650 1.348 . S
C648 C651 1.356 . S
C648 O678 1.325 . S
N649 C652 1.314 . S
N649 C653 1.279 . S
C650 C648 1.348 . S
C650 C652 1.353 . S
C650 H692 0.929 . S
C651 C648 1.356 . S
C651 C653 1.358 . S
C651 H693 0.930 . S
C652 N649 1.314 . S
C652 C650 1.353 . S
C652 H694 0.930 . S
C653 N649 1.279 . S
C653 C651 1.358 . S
C653 H695 0.930 . S
C654 C655 1.348 . S
C654 C656 1.356 . S
C654 O679 1.325 . S
C655 C654 1.348 . S
C655 C657 1.353 . S
C655 H696 0.929 . S
C656 C654 1.356 . S
C656 C658 1.358 . S
C656 H697 0.930 . S
C657 C655 1.353 . S
C657 N659 1.314 . S
C657 H698 0.930 . S
C658 C656 1.358 . S
C658 N659 1.279 . S
C658 H699 0.930 . S
N659 C657 1.314 . S
N659 C658 1.279 . S
C660 C662 1.353 . S
C660 N663 1.314 . S
C660 H666 0.930 . S
C661 N663 1.279 . S
C661 C664 1.358 . S
C661 H667 0.930 . S
C662 C660 1.353 . S
C662 C665 1.348 . S
C662 H700 0.929 . S
N663 Li618 1.990 . S
N663 C660 1.314 . S
N663 C661 1.279 . S
C664 C661 1.358 . S
C664 C665 1.356 . S
C664 H701 0.930 . S
C665 C662 1.348 . S
C665 C664 1.356 . S
H666 C660 0.930 . S
H667 C661 0.930 . S
C668 N669 1.314 . S
C668 C670 1.353 . S
C668 H674 0.930 . S
N669 Li619 1.990 . S
N669 C668 1.314 . S
N669 C672 1.279 . S
C670 C668 1.353 . S
C670 C673 1.348 . S
C670 H702 0.929 . S
C671 C672 1.358 . S
C671 C673 1.356 . S
C671 H703 0.930 . S
C672 N669 1.279 . S
C672 C671 1.358 . S
C672 H675 0.930 . S
C673 C670 1.348 . S
C673 C671 1.356 . S
H674 C668 0.930 . S
H675 C672 0.930 . S
O676 Li616 1.956 . S
O676 Li617 1.970 . S
O676 Li618 1.961 . S
O676 C620 1.325 . S
O677 Li616 1.970 . S
O677 Li617 1.956 . S
O677 Li619 1.961 . S
O677 C626 1.325 . S
O678 Li616 1.961 . S
O678 Li618 1.956 . S
O678 Li619 1.970 . S
O678 C648 1.325 . S
O679 Li617 1.961 . S
O679 Li618 1.970 . S
O679 Li619 1.956 . S
O679 C654 1.325 . S
H680 C622 0.929 . S
H681 C623 0.930 . S
H682 C624 0.930 . S
H683 C625 0.930 . S
H684 C627 0.930 . S
H685 C629 0.929 . S
H686 C630 0.930 . S
H687 C631 0.930 . S
H688 C634 0.930 . S
H689 C637 0.929 . S
H690 C642 0.929 . S
H691 C643 0.930 . S
H692 C650 0.929 . S
H693 C651 0.930 . S
H694 C652 0.930 . S
H695 C653 0.930 . S
H696 C655 0.929 . S
H697 C656 0.930 . S
H698 C657 0.930 . S
H699 C658 0.930 . S
H700 C662 0.929 . S
H701 C664 0.930 . S
H702 C670 0.929 . S
H703 C671 0.930 . S
Li704 N721 1.990 . S
Li704 O764 1.956 . S
Li704 O765 1.970 . S
Li704 O766 1.961 . S
Li705 N729 1.990 . S
Li705 O764 1.970 . S
Li705 O765 1.956 . S
Li705 O767 1.961 . S
Li706 N751 1.990 . S
Li706 O764 1.961 . S
Li706 O766 1.956 . S
Li706 O767 1.970 . S
Li707 N757 1.990 . S
Li707 O765 1.961 . S
Li707 O766 1.970 . S
Li707 O767 1.956 . S
C708 C710 1.348 . S
C708 C711 1.356 . S
C708 O764 1.325 . S
N709 C712 1.314 . S
N709 C713 1.279 . S
C710 C708 1.348 . S
C710 C712 1.353 . S
C710 H768 0.929 . S
C711 C708 1.356 . S
C711 C713 1.358 . S
C711 H769 0.930 . S
C712 N709 1.314 . S
C712 C710 1.353 . S
C712 H770 0.930 . S
C713 N709 1.279 . S
C713 C711 1.358 . S
C713 H771 0.930 . S
C714 C717 1.348 . S
C714 C718 1.356 . S
C714 O765 1.325 . S
C715 N716 1.279 . S
C715 C718 1.358 . S
C715 H772 0.930 . S
N716 C715 1.279 . S
N716 C719 1.314 . S
C717 C714 1.348 . S
C717 C719 1.353 . S
C717 H773 0.929 . S
C718 C714 1.356 . S
C718 C715 1.358 . S
C718 H774 0.930 . S
C719 N716 1.314 . S
C719 C717 1.353 . S
C719 H775 0.930 . S
C720 N721 1.314 . S
C720 C725 1.353 . S
C720 H726 0.930 . S
N721 Li704 1.990 . S
N721 C720 1.314 . S
N721 C723 1.279 . S
C722 C723 1.358 . S
C722 C724 1.356 . S
C722 H776 0.930 . S
C723 N721 1.279 . S
C723 C722 1.358 . S
C723 H727 0.930 . S
C724 C722 1.356 . S
C724 C725 1.348 . S
C725 C720 1.353 . S
C725 C724 1.348 . S
C725 H777 0.929 . S
H726 C720 0.930 . S
H727 C723 0.930 . S
C728 N729 1.314 . S
C728 C730 1.353 . S
C728 H734 0.930 . S
N729 Li705 1.990 . S
N729 C728 1.314 . S
N729 C732 1.279 . S
C730 C728 1.353 . S
C730 C733 1.348 . S
C730 H778 0.929 . S
C731 C732 1.358 . S
C731 C733 1.356 . S
C731 H779 0.930 . S
C732 N729 1.279 . S
C732 C731 1.358 . S
C732 H735 0.930 . S
C733 C730 1.348 . S
C733 C731 1.356 . S
H734 C728 0.930 . S
H735 C732 0.930 . S
C736 C738 1.348 . S
C736 C739 1.356 . S
C736 O766 1.325 . S
N737 C740 1.314 . S
N737 C741 1.279 . S
C738 C736 1.348 . S
C738 C740 1.353 . S
C738 H780 0.929 . S
C739 C736 1.356 . S
C739 C741 1.358 . S
C739 H781 0.930 . S
C740 N737 1.314 . S
C740 C738 1.353 . S
C740 H782 0.930 . S
C741 N737 1.279 . S
C741 C739 1.358 . S
C741 H783 0.930 . S
C742 C743 1.348 . S
C742 C744 1.356 . S
C742 O767 1.325 . S
C743 C742 1.348 . S
C743 C745 1.353 . S
C743 H784 0.929 . S
C744 C742 1.356 . S
C744 C746 1.358 . S
C744 H785 0.930 . S
C745 C743 1.353 . S
C745 N747 1.314 . S
C745 H786 0.930 . S
C746 C744 1.358 . S
C746 N747 1.279 . S
C746 H787 0.930 . S
N747 C745 1.314 . S
N747 C746 1.279 . S
C748 C750 1.353 . S
C748 N751 1.314 . S
C748 H754 0.930 . S
C749 N751 1.279 . S
C749 C752 1.358 . S
C749 H755 0.930 . S
C750 C748 1.353 . S
C750 C753 1.348 . S
C750 H788 0.929 . S
N751 Li706 1.990 . S
N751 C748 1.314 . S
N751 C749 1.279 . S
C752 C749 1.358 . S
C752 C753 1.356 . S
C752 H789 0.930 . S
C753 C750 1.348 . S
C753 C752 1.356 . S
H754 C748 0.930 . S
H755 C749 0.930 . S
C756 N757 1.314 . S
C756 C758 1.353 . S
C756 H762 0.930 . S
N757 Li707 1.990 . S
N757 C756 1.314 . S
N757 C760 1.279 . S
C758 C756 1.353 . S
C758 C761 1.348 . S
C758 H790 0.929 . S
C759 C760 1.358 . S
C759 C761 1.356 . S
C759 H791 0.930 . S
C760 N757 1.279 . S
C760 C759 1.358 . S
C760 H763 0.930 . S
C761 C758 1.348 . S
C761 C759 1.356 . S
H762 C756 0.930 . S
H763 C760 0.930 . S
O764 Li704 1.956 . S
O764 Li705 1.970 . S
O764 Li706 1.961 . S
O764 C708 1.325 . S
O765 Li704 1.970 . S
O765 Li705 1.956 . S
O765 Li707 1.961 . S
O765 C714 1.325 . S
O766 Li704 1.961 . S
O766 Li706 1.956 . S
O766 Li707 1.970 . S
O766 C736 1.325 . S
O767 Li705 1.961 . S
O767 Li706 1.970 . S
O767 Li707 1.956 . S
O767 C742 1.325 . S
H768 C710 0.929 . S
H769 C711 0.930 . S
H770 C712 0.930 . S
H771 C713 0.930 . S
H772 C715 0.930 . S
H773 C717 0.929 . S
H774 C718 0.930 . S
H775 C719 0.930 . S
H776 C722 0.930 . S
H777 C725 0.929 . S
H778 C730 0.929 . S
H779 C731 0.930 . S
H780 C738 0.929 . S
H781 C739 0.930 . S
H782 C740 0.930 . S
H783 C741 0.930 . S
H784 C743 0.929 . S
H785 C744 0.930 . S
H786 C745 0.930 . S
H787 C746 0.930 . S
H788 C750 0.929 . S
H789 C752 0.930 . S
H790 C758 0.929 . S
H791 C759 0.930 . S
Li792 N809 1.990 . S
Li792 O852 1.956 . S
Li792 O853 1.970 . S
Li792 O854 1.961 . S
Li793 N817 1.990 . S
Li793 O852 1.970 . S
Li793 O853 1.956 . S
Li793 O855 1.961 . S
Li794 N839 1.990 . S
Li794 O852 1.961 . S
Li794 O854 1.956 . S
Li794 O855 1.970 . S
Li795 N845 1.990 . S
Li795 O853 1.961 . S
Li795 O854 1.970 . S
Li795 O855 1.956 . S
C796 C798 1.348 . S
C796 C799 1.356 . S
C796 O852 1.325 . S
N797 C800 1.314 . S
N797 C801 1.279 . S
C798 C796 1.348 . S
C798 C800 1.353 . S
C798 H856 0.929 . S
C799 C796 1.356 . S
C799 C801 1.358 . S
C799 H857 0.930 . S
C800 N797 1.314 . S
C800 C798 1.353 . S
C800 H858 0.930 . S
C801 N797 1.279 . S
C801 C799 1.358 . S
C801 H859 0.930 . S
C802 C805 1.348 . S
C802 C806 1.356 . S
C802 O853 1.325 . S
C803 N804 1.279 . S
C803 C806 1.358 . S
C803 H860 0.930 . S
N804 C803 1.279 . S
N804 C807 1.314 . S
C805 C802 1.348 . S
C805 C807 1.353 . S
C805 H861 0.929 . S
C806 C802 1.356 . S
C806 C803 1.358 . S
C806 H862 0.930 . S
C807 N804 1.314 . S
C807 C805 1.353 . S
C807 H863 0.930 . S
C808 N809 1.314 . S
C808 C813 1.353 . S
C808 H814 0.930 . S
N809 Li792 1.990 . S
N809 C808 1.314 . S
N809 C811 1.279 . S
C810 C811 1.358 . S
C810 C812 1.356 . S
C810 H864 0.930 . S
C811 N809 1.279 . S
C811 C810 1.358 . S
C811 H815 0.930 . S
C812 C810 1.356 . S
C812 C813 1.348 . S
C813 C808 1.353 . S
C813 C812 1.348 . S
C813 H865 0.929 . S
H814 C808 0.930 . S
H815 C811 0.930 . S
C816 N817 1.314 . S
C816 C818 1.353 . S
C816 H822 0.930 . S
N817 Li793 1.990 . S
N817 C816 1.314 . S
N817 C820 1.279 . S
C818 C816 1.353 . S
C818 C821 1.348 . S
C818 H866 0.929 . S
C819 C820 1.358 . S
C819 C821 1.356 . S
C819 H867 0.930 . S
C820 N817 1.279 . S
C820 C819 1.358 . S
C820 H823 0.930 . S
C821 C818 1.348 . S
C821 C819 1.356 . S
H822 C816 0.930 . S
H823 C820 0.930 . S
C824 C826 1.348 . S
C824 C827 1.356 . S
C824 O854 1.325 . S
N825 C828 1.314 . S
N825 C829 1.279 . S
C826 C824 1.348 . S
C826 C828 1.353 . S
C826 H868 0.929 . S
C827 C824 1.356 . S
C827 C829 1.358 . S
C827 H869 0.930 . S
C828 N825 1.314 . S
C828 C826 1.353 . S
C828 H870 0.930 . S
C829 N825 1.279 . S
C829 C827 1.358 . S
C829 H871 0.930 . S
C830 C831 1.348 . S
C830 C832 1.356 . S
C830 O855 1.325 . S
C831 C830 1.348 . S
C831 C833 1.353 . S
C831 H872 0.929 . S
C832 C830 1.356 . S
C832 C834 1.358 . S
C832 H873 0.930 . S
C833 C831 1.353 . S
C833 N835 1.314 . S
C833 H874 0.930 . S
C834 C832 1.358 . S
C834 N835 1.279 . S
C834 H875 0.930 . S
N835 C833 1.314 . S
N835 C834 1.279 . S
C836 C838 1.353 . S
C836 N839 1.314 . S
C836 H842 0.930 . S
C837 N839 1.279 . S
C837 C840 1.358 . S
C837 H843 0.930 . S
C838 C836 1.353 . S
C838 C841 1.348 . S
C838 H876 0.929 . S
N839 Li794 1.990 . S
N839 C836 1.314 . S
N839 C837 1.279 . S
C840 C837 1.358 . S
C840 C841 1.356 . S
C840 H877 0.930 . S
C841 C838 1.348 . S
C841 C840 1.356 . S
H842 C836 0.930 . S
H843 C837 0.930 . S
C844 N845 1.314 . S
C844 C846 1.353 . S
C844 H850 0.930 . S
N845 Li795 1.990 . S
N845 C844 1.314 . S
N845 C848 1.279 . S
C846 C844 1.353 . S
C846 C849 1.348 . S
C846 H878 0.929 . S
C847 C848 1.358 . S
C847 C849 1.356 . S
C847 H879 0.930 . S
C848 N845 1.279 . S
C848 C847 1.358 . S
C848 H851 0.930 . S
C849 C846 1.348 . S
C849 C847 1.356 . S
H850 C844 0.930 . S
H851 C848 0.930 . S
O852 Li792 1.956 . S
O852 Li793 1.970 . S
O852 Li794 1.961 . S
O852 C796 1.325 . S
O853 Li792 1.970 . S
O853 Li793 1.956 . S
O853 Li795 1.961 . S
O853 C802 1.325 . S
O854 Li792 1.961 . S
O854 Li794 1.956 . S
O854 Li795 1.970 . S
O854 C824 1.325 . S
O855 Li793 1.961 . S
O855 Li794 1.970 . S
O855 Li795 1.956 . S
O855 C830 1.325 . S
H856 C798 0.929 . S
H857 C799 0.930 . S
H858 C800 0.930 . S
H859 C801 0.930 . S
H860 C803 0.930 . S
H861 C805 0.929 . S
H862 C806 0.930 . S
H863 C807 0.930 . S
H864 C810 0.930 . S
H865 C813 0.929 . S
H866 C818 0.929 . S
H867 C819 0.930 . S
H868 C826 0.929 . S
H869 C827 0.930 . S
H870 C828 0.930 . S
H871 C829 0.930 . S
H872 C831 0.929 . S
H873 C832 0.930 . S
H874 C833 0.930 . S
H875 C834 0.930 . S
H876 C838 0.929 . S
H877 C840 0.930 . S
H878 C846 0.929 . S
H879 C847 0.930 . S
Li880 N897 1.990 . S
Li880 O940 1.956 . S
Li880 O941 1.970 . S
Li880 O942 1.961 . S
Li881 N905 1.990 . S
Li881 O940 1.970 . S
Li881 O941 1.956 . S
Li881 O943 1.961 . S
Li882 N927 1.990 . S
Li882 O940 1.961 . S
Li882 O942 1.956 . S
Li882 O943 1.970 . S
Li883 N933 1.990 . S
Li883 O941 1.961 . S
Li883 O942 1.970 . S
Li883 O943 1.956 . S
C884 C886 1.348 . S
C884 C887 1.356 . S
C884 O940 1.325 . S
N885 C888 1.314 . S
N885 C889 1.279 . S
C886 C884 1.348 . S
C886 C888 1.353 . S
C886 H944 0.929 . S
C887 C884 1.356 . S
C887 C889 1.358 . S
C887 H945 0.930 . S
C888 N885 1.314 . S
C888 C886 1.353 . S
C888 H946 0.930 . S
C889 N885 1.279 . S
C889 C887 1.358 . S
C889 H947 0.930 . S
C890 C893 1.348 . S
C890 C894 1.356 . S
C890 O941 1.325 . S
C891 N892 1.279 . S
C891 C894 1.358 . S
C891 H948 0.930 . S
N892 C891 1.279 . S
N892 C895 1.314 . S
C893 C890 1.348 . S
C893 C895 1.353 . S
C893 H949 0.929 . S
C894 C890 1.356 . S
C894 C891 1.358 . S
C894 H950 0.930 . S
C895 N892 1.314 . S
C895 C893 1.353 . S
C895 H951 0.930 . S
C896 N897 1.314 . S
C896 C901 1.353 . S
C896 H902 0.930 . S
N897 Li880 1.990 . S
N897 C896 1.314 . S
N897 C899 1.279 . S
C898 C899 1.358 . S
C898 C900 1.356 . S
C898 H952 0.930 . S
C899 N897 1.279 . S
C899 C898 1.358 . S
C899 H903 0.930 . S
C900 C898 1.356 . S
C900 C901 1.348 . S
C901 C896 1.353 . S
C901 C900 1.348 . S
C901 H953 0.929 . S
H902 C896 0.930 . S
H903 C899 0.930 . S
C904 N905 1.314 . S
C904 C906 1.353 . S
C904 H910 0.930 . S
N905 Li881 1.990 . S
N905 C904 1.314 . S
N905 C908 1.279 . S
C906 C904 1.353 . S
C906 C909 1.348 . S
C906 H954 0.929 . S
C907 C908 1.358 . S
C907 C909 1.356 . S
C907 H955 0.930 . S
C908 N905 1.279 . S
C908 C907 1.358 . S
C908 H911 0.930 . S
C909 C906 1.348 . S
C909 C907 1.356 . S
H910 C904 0.930 . S
H911 C908 0.930 . S
C912 C914 1.348 . S
C912 C915 1.356 . S
C912 O942 1.325 . S
N913 C916 1.314 . S
N913 C917 1.279 . S
C914 C912 1.348 . S
C914 C916 1.353 . S
C914 H956 0.929 . S
C915 C912 1.356 . S
C915 C917 1.358 . S
C915 H957 0.930 . S
C916 N913 1.314 . S
C916 C914 1.353 . S
C916 H958 0.930 . S
C917 N913 1.279 . S
C917 C915 1.358 . S
C917 H959 0.930 . S
C918 C919 1.348 . S
C918 C920 1.356 . S
C918 O943 1.325 . S
C919 C918 1.348 . S
C919 C921 1.353 . S
C919 H960 0.929 . S
C920 C918 1.356 . S
C920 C922 1.358 . S
C920 H961 0.930 . S
C921 C919 1.353 . S
C921 N923 1.314 . S
C921 H962 0.930 . S
C922 C920 1.358 . S
C922 N923 1.279 . S
C922 H963 0.930 . S
N923 C921 1.314 . S
N923 C922 1.279 . S
C924 C926 1.353 . S
C924 N927 1.314 . S
C924 H930 0.930 . S
C925 N927 1.279 . S
C925 C928 1.358 . S
C925 H931 0.930 . S
C926 C924 1.353 . S
C926 C929 1.348 . S
C926 H964 0.929 . S
N927 Li882 1.990 . S
N927 C924 1.314 . S
N927 C925 1.279 . S
C928 C925 1.358 . S
C928 C929 1.356 . S
C928 H965 0.930 . S
C929 C926 1.348 . S
C929 C928 1.356 . S
H930 C924 0.930 . S
H931 C925 0.930 . S
C932 N933 1.314 . S
C932 C934 1.353 . S
C932 H938 0.930 . S
N933 Li883 1.990 . S
N933 C932 1.314 . S
N933 C936 1.279 . S
C934 C932 1.353 . S
C934 C937 1.348 . S
C934 H966 0.929 . S
C935 C936 1.358 . S
C935 C937 1.356 . S
C935 H967 0.930 . S
C936 N933 1.279 . S
C936 C935 1.358 . S
C936 H939 0.930 . S
C937 C934 1.348 . S
C937 C935 1.356 . S
H938 C932 0.930 . S
H939 C936 0.930 . S
O940 Li880 1.956 . S
O940 Li881 1.970 . S
O940 Li882 1.961 . S
O940 C884 1.325 . S
O941 Li880 1.970 . S
O941 Li881 1.956 . S
O941 Li883 1.961 . S
O941 C890 1.325 . S
O942 Li880 1.961 . S
O942 Li882 1.956 . S
O942 Li883 1.970 . S
O942 C912 1.325 . S
O943 Li881 1.961 . S
O943 Li882 1.970 . S
O943 Li883 1.956 . S
O943 C918 1.325 . S
H944 C886 0.929 . S
H945 C887 0.930 . S
H946 C888 0.930 . S
H947 C889 0.930 . S
H948 C891 0.930 . S
H949 C893 0.929 . S
H950 C894 0.930 . S
H951 C895 0.930 . S
H952 C898 0.930 . S
H953 C901 0.929 . S
H954 C906 0.929 . S
H955 C907 0.930 . S
H956 C914 0.929 . S
H957 C915 0.930 . S
H958 C916 0.930 . S
H959 C917 0.930 . S
H960 C919 0.929 . S
H961 C920 0.930 . S
H962 C921 0.930 . S
H963 C922 0.930 . S
H964 C926 0.929 . S
H965 C928 0.930 . S
H966 C934 0.929 . S
H967 C935 0.930 . S
Li968 N985 1.990 . S
Li968 O1028 1.956 . S
Li968 O1029 1.970 . S
Li968 O1030 1.961 . S
Li969 N993 1.990 . S
Li969 O1028 1.970 . S
Li969 O1029 1.956 . S
Li969 O1031 1.961 . S
Li970 N1015 1.990 . S
Li970 O1028 1.961 . S
Li970 O1030 1.956 . S
Li970 O1031 1.970 . S
Li971 N1021 1.990 . S
Li971 O1029 1.961 . S
Li971 O1030 1.970 . S
Li971 O1031 1.956 . S
C972 C974 1.348 . S
C972 C975 1.356 . S
C972 O1028 1.325 . S
N973 C976 1.314 . S
N973 C977 1.279 . S
C974 C972 1.348 . S
C974 C976 1.353 . S
C974 H1032 0.929 . S
C975 C972 1.356 . S
C975 C977 1.358 . S
C975 H1033 0.930 . S
C976 N973 1.314 . S
C976 C974 1.353 . S
C976 H1034 0.930 . S
C977 N973 1.279 . S
C977 C975 1.358 . S
C977 H1035 0.930 . S
C978 C981 1.348 . S
C978 C982 1.356 . S
C978 O1029 1.325 . S
C979 N980 1.279 . S
C979 C982 1.358 . S
C979 H1036 0.930 . S
N980 C979 1.279 . S
N980 C983 1.314 . S
C981 C978 1.348 . S
C981 C983 1.353 . S
C981 H1037 0.929 . S
C982 C978 1.356 . S
C982 C979 1.358 . S
C982 H1038 0.930 . S
C983 N980 1.314 . S
C983 C981 1.353 . S
C983 H1039 0.930 . S
C984 N985 1.314 . S
C984 C989 1.353 . S
C984 H990 0.930 . S
N985 Li968 1.990 . S
N985 C984 1.314 . S
N985 C987 1.279 . S
C986 C987 1.358 . S
C986 C988 1.356 . S
C986 H1040 0.930 . S
C987 N985 1.279 . S
C987 C986 1.358 . S
C987 H991 0.930 . S
C988 C986 1.356 . S
C988 C989 1.348 . S
C989 C984 1.353 . S
C989 C988 1.348 . S
C989 H1041 0.929 . S
H990 C984 0.930 . S
H991 C987 0.930 . S
C992 N993 1.314 . S
C992 C994 1.353 . S
C992 H998 0.930 . S
N993 Li969 1.990 . S
N993 C992 1.314 . S
N993 C996 1.279 . S
C994 C992 1.353 . S
C994 C997 1.348 . S
C994 H1042 0.929 . S
C995 C996 1.358 . S
C995 C997 1.356 . S
C995 H1043 0.930 . S
C996 N993 1.279 . S
C996 C995 1.358 . S
C996 H999 0.930 . S
C997 C994 1.348 . S
C997 C995 1.356 . S
H998 C992 0.930 . S
H999 C996 0.930 . S
C1000 C1002 1.348 . S
C1000 C1003 1.356 . S
C1000 O1030 1.325 . S
N1001 C1004 1.314 . S
N1001 C1005 1.279 . S
C1002 C1000 1.348 . S
C1002 C1004 1.353 . S
C1002 H1044 0.929 . S
C1003 C1000 1.356 . S
C1003 C1005 1.358 . S
C1003 H1045 0.930 . S
C1004 N1001 1.314 . S
C1004 C1002 1.353 . S
C1004 H1046 0.930 . S
C1005 N1001 1.279 . S
C1005 C1003 1.358 . S
C1005 H1047 0.930 . S
C1006 C1007 1.348 . S
C1006 C1008 1.356 . S
C1006 O1031 1.325 . S
C1007 C1006 1.348 . S
C1007 C1009 1.353 . S
C1007 H1048 0.929 . S
C1008 C1006 1.356 . S
C1008 C1010 1.358 . S
C1008 H1049 0.930 . S
C1009 C1007 1.353 . S
C1009 N1011 1.314 . S
C1009 H1050 0.930 . S
C1010 C1008 1.358 . S
C1010 N1011 1.279 . S
C1010 H1051 0.930 . S
N1011 C1009 1.314 . S
N1011 C1010 1.279 . S
C1012 C1014 1.353 . S
C1012 N1015 1.314 . S
C1012 H1018 0.930 . S
C1013 N1015 1.279 . S
C1013 C1016 1.358 . S
C1013 H1019 0.930 . S
C1014 C1012 1.353 . S
C1014 C1017 1.348 . S
C1014 H1052 0.929 . S
N1015 Li970 1.990 . S
N1015 C1012 1.314 . S
N1015 C1013 1.279 . S
C1016 C1013 1.358 . S
C1016 C1017 1.356 . S
C1016 H1053 0.930 . S
C1017 C1014 1.348 . S
C1017 C1016 1.356 . S
H1018 C1012 0.930 . S
H1019 C1013 0.930 . S
C1020 N1021 1.314 . S
C1020 C1022 1.353 . S
C1020 H1026 0.930 . S
N1021 Li971 1.990 . S
N1021 C1020 1.314 . S
N1021 C1024 1.279 . S
C1022 C1020 1.353 . S
C1022 C1025 1.348 . S
C1022 H1054 0.929 . S
C1023 C1024 1.358 . S
C1023 C1025 1.356 . S
C1023 H1055 0.930 . S
C1024 N1021 1.279 . S
C1024 C1023 1.358 . S
C1024 H1027 0.930 . S
C1025 C1022 1.348 . S
C1025 C1023 1.356 . S
H1026 C1020 0.930 . S
H1027 C1024 0.930 . S
O1028 Li968 1.956 . S
O1028 Li969 1.970 . S
O1028 Li970 1.961 . S
O1028 C972 1.325 . S
O1029 Li968 1.970 . S
O1029 Li969 1.956 . S
O1029 Li971 1.961 . S
O1029 C978 1.325 . S
O1030 Li968 1.961 . S
O1030 Li970 1.956 . S
O1030 Li971 1.970 . S
O1030 C1000 1.325 . S
O1031 Li969 1.961 . S
O1031 Li970 1.970 . S
O1031 Li971 1.956 . S
O1031 C1006 1.325 . S
H1032 C974 0.929 . S
H1033 C975 0.930 . S
H1034 C976 0.930 . S
H1035 C977 0.930 . S
H1036 C979 0.930 . S
H1037 C981 0.929 . S
H1038 C982 0.930 . S
H1039 C983 0.930 . S
H1040 C986 0.930 . S
H1041 C989 0.929 . S
H1042 C994 0.929 . S
H1043 C995 0.930 . S
H1044 C1002 0.929 . S
H1045 C1003 0.930 . S
H1046 C1004 0.930 . S
H1047 C1005 0.930 . S
H1048 C1007 0.929 . S
H1049 C1008 0.930 . S
H1050 C1009 0.930 . S
H1051 C1010 0.930 . S
H1052 C1014 0.929 . S
H1053 C1016 0.930 . S
H1054 C1022 0.929 . S
H1055 C1023 0.930 . S
Li1056 N1073 1.990 . S
Li1056 O1116 1.956 . S
Li1056 O1117 1.970 . S
Li1056 O1118 1.961 . S
Li1057 N1081 1.990 . S
Li1057 O1116 1.970 . S
Li1057 O1117 1.956 . S
Li1057 O1119 1.961 . S
Li1058 N1103 1.990 . S
Li1058 O1116 1.961 . S
Li1058 O1118 1.956 . S
Li1058 O1119 1.970 . S
Li1059 N1109 1.990 . S
Li1059 O1117 1.961 . S
Li1059 O1118 1.970 . S
Li1059 O1119 1.956 . S
C1060 C1062 1.348 . S
C1060 C1063 1.356 . S
C1060 O1116 1.325 . S
N1061 C1064 1.314 . S
N1061 C1065 1.279 . S
C1062 C1060 1.348 . S
C1062 C1064 1.353 . S
C1062 H1120 0.929 . S
C1063 C1060 1.356 . S
C1063 C1065 1.358 . S
C1063 H1121 0.930 . S
C1064 N1061 1.314 . S
C1064 C1062 1.353 . S
C1064 H1122 0.930 . S
C1065 N1061 1.279 . S
C1065 C1063 1.358 . S
C1065 H1123 0.930 . S
C1066 C1069 1.348 . S
C1066 C1070 1.356 . S
C1066 O1117 1.325 . S
C1067 N1068 1.279 . S
C1067 C1070 1.358 . S
C1067 H1124 0.930 . S
N1068 C1067 1.279 . S
N1068 C1071 1.314 . S
C1069 C1066 1.348 . S
C1069 C1071 1.353 . S
C1069 H1125 0.929 . S
C1070 C1066 1.356 . S
C1070 C1067 1.358 . S
C1070 H1126 0.930 . S
C1071 N1068 1.314 . S
C1071 C1069 1.353 . S
C1071 H1127 0.930 . S
C1072 N1073 1.314 . S
C1072 C1077 1.353 . S
C1072 H1078 0.930 . S
N1073 Li1056 1.990 . S
N1073 C1072 1.314 . S
N1073 C1075 1.279 . S
C1074 C1075 1.358 . S
C1074 C1076 1.356 . S
C1074 H1128 0.930 . S
C1075 N1073 1.279 . S
C1075 C1074 1.358 . S
C1075 H1079 0.930 . S
C1076 C1074 1.356 . S
C1076 C1077 1.348 . S
C1077 C1072 1.353 . S
C1077 C1076 1.348 . S
C1077 H1129 0.929 . S
H1078 C1072 0.930 . S
H1079 C1075 0.930 . S
C1080 N1081 1.314 . S
C1080 C1082 1.353 . S
C1080 H1086 0.930 . S
N1081 Li1057 1.990 . S
N1081 C1080 1.314 . S
N1081 C1084 1.279 . S
C1082 C1080 1.353 . S
C1082 C1085 1.348 . S
C1082 H1130 0.929 . S
C1083 C1084 1.358 . S
C1083 C1085 1.356 . S
C1083 H1131 0.930 . S
C1084 N1081 1.279 . S
C1084 C1083 1.358 . S
C1084 H1087 0.930 . S
C1085 C1082 1.348 . S
C1085 C1083 1.356 . S
H1086 C1080 0.930 . S
H1087 C1084 0.930 . S
C1088 C1090 1.348 . S
C1088 C1091 1.356 . S
C1088 O1118 1.325 . S
N1089 C1092 1.314 . S
N1089 C1093 1.279 . S
C1090 C1088 1.348 . S
C1090 C1092 1.353 . S
C1090 H1132 0.929 . S
C1091 C1088 1.356 . S
C1091 C1093 1.358 . S
C1091 H1133 0.930 . S
C1092 N1089 1.314 . S
C1092 C1090 1.353 . S
C1092 H1134 0.930 . S
C1093 N1089 1.279 . S
C1093 C1091 1.358 . S
C1093 H1135 0.930 . S
C1094 C1095 1.348 . S
C1094 C1096 1.356 . S
C1094 O1119 1.325 . S
C1095 C1094 1.348 . S
C1095 C1097 1.353 . S
C1095 H1136 0.929 . S
C1096 C1094 1.356 . S
C1096 C1098 1.358 . S
C1096 H1137 0.930 . S
C1097 C1095 1.353 . S
C1097 N1099 1.314 . S
C1097 H1138 0.930 . S
C1098 C1096 1.358 . S
C1098 N1099 1.279 . S
C1098 H1139 0.930 . S
N1099 C1097 1.314 . S
N1099 C1098 1.279 . S
C1100 C1102 1.353 . S
C1100 N1103 1.314 . S
C1100 H1106 0.930 . S
C1101 N1103 1.279 . S
C1101 C1104 1.358 . S
C1101 H1107 0.930 . S
C1102 C1100 1.353 . S
C1102 C1105 1.348 . S
C1102 H1140 0.929 . S
N1103 Li1058 1.990 . S
N1103 C1100 1.314 . S
N1103 C1101 1.279 . S
C1104 C1101 1.358 . S
C1104 C1105 1.356 . S
C1104 H1141 0.930 . S
C1105 C1102 1.348 . S
C1105 C1104 1.356 . S
H1106 C1100 0.930 . S
H1107 C1101 0.930 . S
C1108 N1109 1.314 . S
C1108 C1110 1.353 . S
C1108 H1114 0.930 . S
N1109 Li1059 1.990 . S
N1109 C1108 1.314 . S
N1109 C1112 1.279 . S
C1110 C1108 1.353 . S
C1110 C1113 1.348 . S
C1110 H1142 0.929 . S
C1111 C1112 1.358 . S
C1111 C1113 1.356 . S
C1111 H1143 0.930 . S
C1112 N1109 1.279 . S
C1112 C1111 1.358 . S
C1112 H1115 0.930 . S
C1113 C1110 1.348 . S
C1113 C1111 1.356 . S
H1114 C1108 0.930 . S
H1115 C1112 0.930 . S
O1116 Li1056 1.956 . S
O1116 Li1057 1.970 . S
O1116 Li1058 1.961 . S
O1116 C1060 1.325 . S
O1117 Li1056 1.970 . S
O1117 Li1057 1.956 . S
O1117 Li1059 1.961 . S
O1117 C1066 1.325 . S
O1118 Li1056 1.961 . S
O1118 Li1058 1.956 . S
O1118 Li1059 1.970 . S
O1118 C1088 1.325 . S
O1119 Li1057 1.961 . S
O1119 Li1058 1.970 . S
O1119 Li1059 1.956 . S
O1119 C1094 1.325 . S
H1120 C1062 0.929 . S
H1121 C1063 0.930 . S
H1122 C1064 0.930 . S
H1123 C1065 0.930 . S
H1124 C1067 0.930 . S
H1125 C1069 0.929 . S
H1126 C1070 0.930 . S
H1127 C1071 0.930 . S
H1128 C1074 0.930 . S
H1129 C1077 0.929 . S
H1130 C1082 0.929 . S
H1131 C1083 0.930 . S
H1132 C1090 0.929 . S
H1133 C1091 0.930 . S
H1134 C1092 0.930 . S
H1135 C1093 0.930 . S
H1136 C1095 0.929 . S
H1137 C1096 0.930 . S
H1138 C1097 0.930 . S
H1139 C1098 0.930 . S
H1140 C1102 0.929 . S
H1141 C1104 0.930 . S
H1142 C1110 0.929 . S
H1143 C1111 0.930 . S
Li1144 N1161 1.990 . S
Li1144 O1204 1.956 . S
Li1144 O1205 1.970 . S
Li1144 O1206 1.961 . S
Li1145 N1169 1.990 . S
Li1145 O1204 1.970 . S
Li1145 O1205 1.956 . S
Li1145 O1207 1.961 . S
Li1146 N1191 1.990 . S
Li1146 O1204 1.961 . S
Li1146 O1206 1.956 . S
Li1146 O1207 1.970 . S
Li1147 N1197 1.990 . S
Li1147 O1205 1.961 . S
Li1147 O1206 1.970 . S
Li1147 O1207 1.956 . S
C1148 C1150 1.348 . S
C1148 C1151 1.356 . S
C1148 O1204 1.325 . S
N1149 C1152 1.314 . S
N1149 C1153 1.279 . S
C1150 C1148 1.348 . S
C1150 C1152 1.353 . S
C1150 H1208 0.929 . S
C1151 C1148 1.356 . S
C1151 C1153 1.358 . S
C1151 H1209 0.930 . S
C1152 N1149 1.314 . S
C1152 C1150 1.353 . S
C1152 H1210 0.930 . S
C1153 N1149 1.279 . S
C1153 C1151 1.358 . S
C1153 H1211 0.930 . S
C1154 C1157 1.348 . S
C1154 C1158 1.356 . S
C1154 O1205 1.325 . S
C1155 N1156 1.279 . S
C1155 C1158 1.358 . S
C1155 H1212 0.930 . S
N1156 C1155 1.279 . S
N1156 C1159 1.314 . S
C1157 C1154 1.348 . S
C1157 C1159 1.353 . S
C1157 H1213 0.929 . S
C1158 C1154 1.356 . S
C1158 C1155 1.358 . S
C1158 H1214 0.930 . S
C1159 N1156 1.314 . S
C1159 C1157 1.353 . S
C1159 H1215 0.930 . S
C1160 N1161 1.314 . S
C1160 C1165 1.353 . S
C1160 H1166 0.930 . S
N1161 Li1144 1.990 . S
N1161 C1160 1.314 . S
N1161 C1163 1.279 . S
C1162 C1163 1.358 . S
C1162 C1164 1.356 . S
C1162 H1216 0.930 . S
C1163 N1161 1.279 . S
C1163 C1162 1.358 . S
C1163 H1167 0.930 . S
C1164 C1162 1.356 . S
C1164 C1165 1.348 . S
C1165 C1160 1.353 . S
C1165 C1164 1.348 . S
C1165 H1217 0.929 . S
H1166 C1160 0.930 . S
H1167 C1163 0.930 . S
C1168 N1169 1.314 . S
C1168 C1170 1.353 . S
C1168 H1174 0.930 . S
N1169 Li1145 1.990 . S
N1169 C1168 1.314 . S
N1169 C1172 1.279 . S
C1170 C1168 1.353 . S
C1170 C1173 1.348 . S
C1170 H1218 0.929 . S
C1171 C1172 1.358 . S
C1171 C1173 1.356 . S
C1171 H1219 0.930 . S
C1172 N1169 1.279 . S
C1172 C1171 1.358 . S
C1172 H1175 0.930 . S
C1173 C1170 1.348 . S
C1173 C1171 1.356 . S
H1174 C1168 0.930 . S
H1175 C1172 0.930 . S
C1176 C1178 1.348 . S
C1176 C1179 1.356 . S
C1176 O1206 1.325 . S
N1177 C1180 1.314 . S
N1177 C1181 1.279 . S
C1178 C1176 1.348 . S
C1178 C1180 1.353 . S
C1178 H1220 0.929 . S
C1179 C1176 1.356 . S
C1179 C1181 1.358 . S
C1179 H1221 0.930 . S
C1180 N1177 1.314 . S
C1180 C1178 1.353 . S
C1180 H1222 0.930 . S
C1181 N1177 1.279 . S
C1181 C1179 1.358 . S
C1181 H1223 0.930 . S
C1182 C1183 1.348 . S
C1182 C1184 1.356 . S
C1182 O1207 1.325 . S
C1183 C1182 1.348 . S
C1183 C1185 1.353 . S
C1183 H1224 0.929 . S
C1184 C1182 1.356 . S
C1184 C1186 1.358 . S
C1184 H1225 0.930 . S
C1185 C1183 1.353 . S
C1185 N1187 1.314 . S
C1185 H1226 0.930 . S
C1186 C1184 1.358 . S
C1186 N1187 1.279 . S
C1186 H1227 0.930 . S
N1187 C1185 1.314 . S
N1187 C1186 1.279 . S
C1188 C1190 1.353 . S
C1188 N1191 1.314 . S
C1188 H1194 0.930 . S
C1189 N1191 1.279 . S
C1189 C1192 1.358 . S
C1189 H1195 0.930 . S
C1190 C1188 1.353 . S
C1190 C1193 1.348 . S
C1190 H1228 0.929 . S
N1191 Li1146 1.990 . S
N1191 C1188 1.314 . S
N1191 C1189 1.279 . S
C1192 C1189 1.358 . S
C1192 C1193 1.356 . S
C1192 H1229 0.930 . S
C1193 C1190 1.348 . S
C1193 C1192 1.356 . S
H1194 C1188 0.930 . S
H1195 C1189 0.930 . S
C1196 N1197 1.314 . S
C1196 C1198 1.353 . S
C1196 H1202 0.930 . S
N1197 Li1147 1.990 . S
N1197 C1196 1.314 . S
N1197 C1200 1.279 . S
C1198 C1196 1.353 . S
C1198 C1201 1.348 . S
C1198 H1230 0.929 . S
C1199 C1200 1.358 . S
C1199 C1201 1.356 . S
C1199 H1231 0.930 . S
C1200 N1197 1.279 . S
C1200 C1199 1.358 . S
C1200 H1203 0.930 . S
C1201 C1198 1.348 . S
C1201 C1199 1.356 . S
H1202 C1196 0.930 . S
H1203 C1200 0.930 . S
O1204 Li1144 1.956 . S
O1204 Li1145 1.970 . S
O1204 Li1146 1.961 . S
O1204 C1148 1.325 . S
O1205 Li1144 1.970 . S
O1205 Li1145 1.956 . S
O1205 Li1147 1.961 . S
O1205 C1154 1.325 . S
O1206 Li1144 1.961 . S
O1206 Li1146 1.956 . S
O1206 Li1147 1.970 . S
O1206 C1176 1.325 . S
O1207 Li1145 1.961 . S
O1207 Li1146 1.970 . S
O1207 Li1147 1.956 . S
O1207 C1182 1.325 . S
H1208 C1150 0.929 . S
H1209 C1151 0.930 . S
H1210 C1152 0.930 . S
H1211 C1153 0.930 . S
H1212 C1155 0.930 . S
H1213 C1157 0.929 . S
H1214 C1158 0.930 . S
H1215 C1159 0.930 . S
H1216 C1162 0.930 . S
H1217 C1165 0.929 . S
H1218 C1170 0.929 . S
H1219 C1171 0.930 . S
H1220 C1178 0.929 . S
H1221 C1179 0.930 . S
H1222 C1180 0.930 . S
H1223 C1181 0.930 . S
H1224 C1183 0.929 . S
H1225 C1184 0.930 . S
H1226 C1185 0.930 . S
H1227 C1186 0.930 . S
H1228 C1190 0.929 . S
H1229 C1192 0.930 . S
H1230 C1198 0.929 . S
H1231 C1199 0.930 . S
Li1232 N1249 1.990 . S
Li1232 O1292 1.956 . S
Li1232 O1293 1.970 . S
Li1232 O1294 1.961 . S
Li1233 N1257 1.990 . S
Li1233 O1292 1.970 . S
Li1233 O1293 1.956 . S
Li1233 O1295 1.961 . S
Li1234 N1279 1.990 . S
Li1234 O1292 1.961 . S
Li1234 O1294 1.956 . S
Li1234 O1295 1.970 . S
Li1235 N1285 1.990 . S
Li1235 O1293 1.961 . S
Li1235 O1294 1.970 . S
Li1235 O1295 1.956 . S
C1236 C1238 1.348 . S
C1236 C1239 1.356 . S
C1236 O1292 1.325 . S
N1237 C1240 1.314 . S
N1237 C1241 1.279 . S
C1238 C1236 1.348 . S
C1238 C1240 1.353 . S
C1238 H1296 0.929 . S
C1239 C1236 1.356 . S
C1239 C1241 1.358 . S
C1239 H1297 0.930 . S
C1240 N1237 1.314 . S
C1240 C1238 1.353 . S
C1240 H1298 0.930 . S
C1241 N1237 1.279 . S
C1241 C1239 1.358 . S
C1241 H1299 0.930 . S
C1242 C1245 1.348 . S
C1242 C1246 1.356 . S
C1242 O1293 1.325 . S
C1243 N1244 1.279 . S
C1243 C1246 1.358 . S
C1243 H1300 0.930 . S
N1244 C1243 1.279 . S
N1244 C1247 1.314 . S
C1245 C1242 1.348 . S
C1245 C1247 1.353 . S
C1245 H1301 0.929 . S
C1246 C1242 1.356 . S
C1246 C1243 1.358 . S
C1246 H1302 0.930 . S
C1247 N1244 1.314 . S
C1247 C1245 1.353 . S
C1247 H1303 0.930 . S
C1248 N1249 1.314 . S
C1248 C1253 1.353 . S
C1248 H1254 0.930 . S
N1249 Li1232 1.990 . S
N1249 C1248 1.314 . S
N1249 C1251 1.279 . S
C1250 C1251 1.358 . S
C1250 C1252 1.356 . S
C1250 H1304 0.930 . S
C1251 N1249 1.279 . S
C1251 C1250 1.358 . S
C1251 H1255 0.930 . S
C1252 C1250 1.356 . S
C1252 C1253 1.348 . S
C1253 C1248 1.353 . S
C1253 C1252 1.348 . S
C1253 H1305 0.929 . S
H1254 C1248 0.930 . S
H1255 C1251 0.930 . S
C1256 N1257 1.314 . S
C1256 C1258 1.353 . S
C1256 H1262 0.930 . S
N1257 Li1233 1.990 . S
N1257 C1256 1.314 . S
N1257 C1260 1.279 . S
C1258 C1256 1.353 . S
C1258 C1261 1.348 . S
C1258 H1306 0.929 . S
C1259 C1260 1.358 . S
C1259 C1261 1.356 . S
C1259 H1307 0.930 . S
C1260 N1257 1.279 . S
C1260 C1259 1.358 . S
C1260 H1263 0.930 . S
C1261 C1258 1.348 . S
C1261 C1259 1.356 . S
H1262 C1256 0.930 . S
H1263 C1260 0.930 . S
C1264 C1266 1.348 . S
C1264 C1267 1.356 . S
C1264 O1294 1.325 . S
N1265 C1268 1.314 . S
N1265 C1269 1.279 . S
C1266 C1264 1.348 . S
C1266 C1268 1.353 . S
C1266 H1308 0.929 . S
C1267 C1264 1.356 . S
C1267 C1269 1.358 . S
C1267 H1309 0.930 . S
C1268 N1265 1.314 . S
C1268 C1266 1.353 . S
C1268 H1310 0.930 . S
C1269 N1265 1.279 . S
C1269 C1267 1.358 . S
C1269 H1311 0.930 . S
C1270 C1271 1.348 . S
C1270 C1272 1.356 . S
C1270 O1295 1.325 . S
C1271 C1270 1.348 . S
C1271 C1273 1.353 . S
C1271 H1312 0.929 . S
C1272 C1270 1.356 . S
C1272 C1274 1.358 . S
C1272 H1313 0.930 . S
C1273 C1271 1.353 . S
C1273 N1275 1.314 . S
C1273 H1314 0.930 . S
C1274 C1272 1.358 . S
C1274 N1275 1.279 . S
C1274 H1315 0.930 . S
N1275 C1273 1.314 . S
N1275 C1274 1.279 . S
C1276 C1278 1.353 . S
C1276 N1279 1.314 . S
C1276 H1282 0.930 . S
C1277 N1279 1.279 . S
C1277 C1280 1.358 . S
C1277 H1283 0.930 . S
C1278 C1276 1.353 . S
C1278 C1281 1.348 . S
C1278 H1316 0.929 . S
N1279 Li1234 1.990 . S
N1279 C1276 1.314 . S
N1279 C1277 1.279 . S
C1280 C1277 1.358 . S
C1280 C1281 1.356 . S
C1280 H1317 0.930 . S
C1281 C1278 1.348 . S
C1281 C1280 1.356 . S
H1282 C1276 0.930 . S
H1283 C1277 0.930 . S
C1284 N1285 1.314 . S
C1284 C1286 1.353 . S
C1284 H1290 0.930 . S
N1285 Li1235 1.990 . S
N1285 C1284 1.314 . S
N1285 C1288 1.279 . S
C1286 C1284 1.353 . S
C1286 C1289 1.348 . S
C1286 H1318 0.929 . S
C1287 C1288 1.358 . S
C1287 C1289 1.356 . S
C1287 H1319 0.930 . S
C1288 N1285 1.279 . S
C1288 C1287 1.358 . S
C1288 H1291 0.930 . S
C1289 C1286 1.348 . S
C1289 C1287 1.356 . S
H1290 C1284 0.930 . S
H1291 C1288 0.930 . S
O1292 Li1232 1.956 . S
O1292 Li1233 1.970 . S
O1292 Li1234 1.961 . S
O1292 C1236 1.325 . S
O1293 Li1232 1.970 . S
O1293 Li1233 1.956 . S
O1293 Li1235 1.961 . S
O1293 C1242 1.325 . S
O1294 Li1232 1.961 . S
O1294 Li1234 1.956 . S
O1294 Li1235 1.970 . S
O1294 C1264 1.325 . S
O1295 Li1233 1.961 . S
O1295 Li1234 1.970 . S
O1295 Li1235 1.956 . S
O1295 C1270 1.325 . S
H1296 C1238 0.929 . S
H1297 C1239 0.930 . S
H1298 C1240 0.930 . S
H1299 C1241 0.930 . S
H1300 C1243 0.930 . S
H1301 C1245 0.929 . S
H1302 C1246 0.930 . S
H1303 C1247 0.930 . S
H1304 C1250 0.930 . S
H1305 C1253 0.929 . S
H1306 C1258 0.929 . S
H1307 C1259 0.930 . S
H1308 C1266 0.929 . S
H1309 C1267 0.930 . S
H1310 C1268 0.930 . S
H1311 C1269 0.930 . S
H1312 C1271 0.929 . S
H1313 C1272 0.930 . S
H1314 C1273 0.930 . S
H1315 C1274 0.930 . S
H1316 C1278 0.929 . S
H1317 C1280 0.930 . S
H1318 C1286 0.929 . S
H1319 C1287 0.930 . S
Li1320 N1337 1.990 . S
Li1320 O1380 1.956 . S
Li1320 O1381 1.970 . S
Li1320 O1382 1.961 . S
Li1321 N1345 1.990 . S
Li1321 O1380 1.970 . S
Li1321 O1381 1.956 . S
Li1321 O1383 1.961 . S
Li1322 N1367 1.990 . S
Li1322 O1380 1.961 . S
Li1322 O1382 1.956 . S
Li1322 O1383 1.970 . S
Li1323 N1373 1.990 . S
Li1323 O1381 1.961 . S
Li1323 O1382 1.970 . S
Li1323 O1383 1.956 . S
C1324 C1326 1.348 . S
C1324 C1327 1.356 . S
C1324 O1380 1.325 . S
N1325 C1328 1.314 . S
N1325 C1329 1.279 . S
C1326 C1324 1.348 . S
C1326 C1328 1.353 . S
C1326 H1384 0.929 . S
C1327 C1324 1.356 . S
C1327 C1329 1.358 . S
C1327 H1385 0.930 . S
C1328 N1325 1.314 . S
C1328 C1326 1.353 . S
C1328 H1386 0.930 . S
C1329 N1325 1.279 . S
C1329 C1327 1.358 . S
C1329 H1387 0.930 . S
C1330 C1333 1.348 . S
C1330 C1334 1.356 . S
C1330 O1381 1.325 . S
C1331 N1332 1.279 . S
C1331 C1334 1.358 . S
C1331 H1388 0.930 . S
N1332 C1331 1.279 . S
N1332 C1335 1.314 . S
C1333 C1330 1.348 . S
C1333 C1335 1.353 . S
C1333 H1389 0.929 . S
C1334 C1330 1.356 . S
C1334 C1331 1.358 . S
C1334 H1390 0.930 . S
C1335 N1332 1.314 . S
C1335 C1333 1.353 . S
C1335 H1391 0.930 . S
C1336 N1337 1.314 . S
C1336 C1341 1.353 . S
C1336 H1342 0.930 . S
N1337 Li1320 1.990 . S
N1337 C1336 1.314 . S
N1337 C1339 1.279 . S
C1338 C1339 1.358 . S
C1338 C1340 1.356 . S
C1338 H1392 0.930 . S
C1339 N1337 1.279 . S
C1339 C1338 1.358 . S
C1339 H1343 0.930 . S
C1340 C1338 1.356 . S
C1340 C1341 1.348 . S
C1341 C1336 1.353 . S
C1341 C1340 1.348 . S
C1341 H1393 0.929 . S
H1342 C1336 0.930 . S
H1343 C1339 0.930 . S
C1344 N1345 1.314 . S
C1344 C1346 1.353 . S
C1344 H1350 0.930 . S
N1345 Li1321 1.990 . S
N1345 C1344 1.314 . S
N1345 C1348 1.279 . S
C1346 C1344 1.353 . S
C1346 C1349 1.348 . S
C1346 H1394 0.929 . S
C1347 C1348 1.358 . S
C1347 C1349 1.356 . S
C1347 H1395 0.930 . S
C1348 N1345 1.279 . S
C1348 C1347 1.358 . S
C1348 H1351 0.930 . S
C1349 C1346 1.348 . S
C1349 C1347 1.356 . S
H1350 C1344 0.930 . S
H1351 C1348 0.930 . S
C1352 C1354 1.348 . S
C1352 C1355 1.356 . S
C1352 O1382 1.325 . S
N1353 C1356 1.314 . S
N1353 C1357 1.279 . S
C1354 C1352 1.348 . S
C1354 C1356 1.353 . S
C1354 H1396 0.929 . S
C1355 C1352 1.356 . S
C1355 C1357 1.358 . S
C1355 H1397 0.930 . S
C1356 N1353 1.314 . S
C1356 C1354 1.353 . S
C1356 H1398 0.930 . S
C1357 N1353 1.279 . S
C1357 C1355 1.358 . S
C1357 H1399 0.930 . S
C1358 C1359 1.348 . S
C1358 C1360 1.356 . S
C1358 O1383 1.325 . S
C1359 C1358 1.348 . S
C1359 C1361 1.353 . S
C1359 H1400 0.929 . S
C1360 C1358 1.356 . S
C1360 C1362 1.358 . S
C1360 H1401 0.930 . S
C1361 C1359 1.353 . S
C1361 N1363 1.314 . S
C1361 H1402 0.930 . S
C1362 C1360 1.358 . S
C1362 N1363 1.279 . S
C1362 H1403 0.930 . S
N1363 C1361 1.314 . S
N1363 C1362 1.279 . S
C1364 C1366 1.353 . S
C1364 N1367 1.314 . S
C1364 H1370 0.930 . S
C1365 N1367 1.279 . S
C1365 C1368 1.358 . S
C1365 H1371 0.930 . S
C1366 C1364 1.353 . S
C1366 C1369 1.348 . S
C1366 H1404 0.929 . S
N1367 Li1322 1.990 . S
N1367 C1364 1.314 . S
N1367 C1365 1.279 . S
C1368 C1365 1.358 . S
C1368 C1369 1.356 . S
C1368 H1405 0.930 . S
C1369 C1366 1.348 . S
C1369 C1368 1.356 . S
H1370 C1364 0.930 . S
H1371 C1365 0.930 . S
C1372 N1373 1.314 . S
C1372 C1374 1.353 . S
C1372 H1378 0.930 . S
N1373 Li1323 1.990 . S
N1373 C1372 1.314 . S
N1373 C1376 1.279 . S
C1374 C1372 1.353 . S
C1374 C1377 1.348 . S
C1374 H1406 0.929 . S
C1375 C1376 1.358 . S
C1375 C1377 1.356 . S
C1375 H1407 0.930 . S
C1376 N1373 1.279 . S
C1376 C1375 1.358 . S
C1376 H1379 0.930 . S
C1377 C1374 1.348 . S
C1377 C1375 1.356 . S
H1378 C1372 0.930 . S
H1379 C1376 0.930 . S
O1380 Li1320 1.956 . S
O1380 Li1321 1.970 . S
O1380 Li1322 1.961 . S
O1380 C1324 1.325 . S
O1381 Li1320 1.970 . S
O1381 Li1321 1.956 . S
O1381 Li1323 1.961 . S
O1381 C1330 1.325 . S
O1382 Li1320 1.961 . S
O1382 Li1322 1.956 . S
O1382 Li1323 1.970 . S
O1382 C1352 1.325 . S
O1383 Li1321 1.961 . S
O1383 Li1322 1.970 . S
O1383 Li1323 1.956 . S
O1383 C1358 1.325 . S
H1384 C1326 0.929 . S
H1385 C1327 0.930 . S
H1386 C1328 0.930 . S
H1387 C1329 0.930 . S
H1388 C1331 0.930 . S
H1389 C1333 0.929 . S
H1390 C1334 0.930 . S
H1391 C1335 0.930 . S
H1392 C1338 0.930 . S
H1393 C1341 0.929 . S
H1394 C1346 0.929 . S
H1395 C1347 0.930 . S
H1396 C1354 0.929 . S
H1397 C1355 0.930 . S
H1398 C1356 0.930 . S
H1399 C1357 0.930 . S
H1400 C1359 0.929 . S
H1401 C1360 0.930 . S
H1402 C1361 0.930 . S
H1403 C1362 0.930 . S
H1404 C1366 0.929 . S
H1405 C1368 0.930 . S
H1406 C1374 0.929 . S
H1407 C1375 0.930 . S
H1408 C1420 0.930 . S
H1409 C1422 0.930 . S
H1410 C1423 0.930 . S
H1411 C1427 0.959 . S
H1412 C1427 0.959 . S
H1413 C1427 0.961 . S
H1414 C1428 0.960 . S
H1415 C1428 0.961 . S
H1416 C1428 0.959 . S
H1417 C1431 0.929 . S
H1418 C1432 0.931 . S
H1419 C1434 0.930 . S
C1420 H1408 0.930 . S
C1420 C1421 1.399 . S
C1420 C1425 1.399 . S
C1421 C1420 1.399 . S
C1421 C1422 1.376 . S
C1422 H1409 0.930 . S
C1422 C1421 1.376 . S
C1422 C1423 1.388 . S
C1423 H1410 0.930 . S
C1423 C1422 1.388 . S
C1423 C1424 1.390 . S
C1424 C1423 1.390 . S
C1424 C1425 1.394 . S
C1424 C1430 1.465 . S
C1425 C1420 1.399 . S
C1425 C1424 1.394 . S
C1425 C1426 1.516 . S
C1426 C1425 1.516 . S
C1426 C1427 1.502 . S
C1426 C1428 1.561 . S
C1426 C1429 1.526 . S
C1427 H1411 0.959 . S
C1427 H1412 0.959 . S
C1427 H1413 0.961 . S
C1427 C1426 1.502 . S
C1428 H1414 0.960 . S
C1428 H1415 0.961 . S
C1428 H1416 0.959 . S
C1428 C1426 1.561 . S
C1429 C1426 1.526 . S
C1429 C1430 1.396 . S
C1429 C1434 1.390 . S
C1430 C1424 1.465 . S
C1430 C1429 1.396 . S
C1430 C1431 1.399 . S
C1431 H1417 0.929 . S
C1431 C1430 1.399 . S
C1431 C1432 1.385 . S
C1432 H1418 0.931 . S
C1432 C1431 1.385 . S
C1432 C1433 1.389 . S
C1433 C1432 1.389 . S
C1433 C1434 1.387 . S
C1434 H1419 0.930 . S
C1434 C1429 1.390 . S
C1434 C1433 1.387 . S
H1435 C1447 0.930 . S
H1436 C1449 0.930 . S
H1437 C1450 0.930 . S
H1438 C1454 0.959 . S
H1439 C1454 0.959 . S
H1440 C1454 0.961 . S
H1441 C1455 0.960 . S
H1442 C1455 0.961 . S
H1443 C1455 0.959 . S
H1444 C1458 0.929 . S
H1445 C1459 0.931 . S
H1446 C1461 0.930 . S
C1447 H1435 0.930 . S
C1447 C1448 1.399 . S
C1447 C1452 1.399 . S
C1448 C1447 1.399 . S
C1448 C1449 1.376 . S
C1449 H1436 0.930 . S
C1449 C1448 1.376 . S
C1449 C1450 1.388 . S
C1450 H1437 0.930 . S
C1450 C1449 1.388 . S
C1450 C1451 1.390 . S
C1451 C1450 1.390 . S
C1451 C1452 1.394 . S
C1451 C1457 1.465 . S
C1452 C1447 1.399 . S
C1452 C1451 1.394 . S
C1452 C1453 1.516 . S
C1453 C1452 1.516 . S
C1453 C1454 1.502 . S
C1453 C1455 1.561 . S
C1453 C1456 1.526 . S
C1454 H1438 0.959 . S
C1454 H1439 0.959 . S
C1454 H1440 0.961 . S
C1454 C1453 1.502 . S
C1455 H1441 0.960 . S
C1455 H1442 0.961 . S
C1455 H1443 0.959 . S
C1455 C1453 1.561 . S
C1456 C1453 1.526 . S
C1456 C1457 1.396 . S
C1456 C1461 1.390 . S
C1457 C1451 1.465 . S
C1457 C1456 1.396 . S
C1457 C1458 1.399 . S
C1458 H1444 0.929 . S
C1458 C1457 1.399 . S
C1458 C1459 1.385 . S
C1459 H1445 0.931 . S
C1459 C1458 1.385 . S
C1459 C1460 1.389 . S
C1460 C1459 1.389 . S
C1460 C1461 1.387 . S
C1461 H1446 0.930 . S
C1461 C1456 1.390 . S
C1461 C1460 1.387 . S
H1462 C1474 0.930 . S
H1463 C1476 0.930 . S
H1464 C1477 0.930 . S
H1465 C1481 0.959 . S
H1466 C1481 0.959 . S
H1467 C1481 0.961 . S
H1468 C1482 0.960 . S
H1469 C1482 0.961 . S
H1470 C1482 0.959 . S
H1471 C1485 0.929 . S
H1472 C1486 0.931 . S
H1473 C1488 0.930 . S
C1474 H1462 0.930 . S
C1474 C1475 1.399 . S
C1474 C1479 1.399 . S
C1475 C1474 1.399 . S
C1475 C1476 1.376 . S
C1476 H1463 0.930 . S
C1476 C1475 1.376 . S
C1476 C1477 1.388 . S
C1477 H1464 0.930 . S
C1477 C1476 1.388 . S
C1477 C1478 1.390 . S
C1478 C1477 1.390 . S
C1478 C1479 1.394 . S
C1478 C1484 1.465 . S
C1479 C1474 1.399 . S
C1479 C1478 1.394 . S
C1479 C1480 1.516 . S
C1480 C1479 1.516 . S
C1480 C1481 1.502 . S
C1480 C1482 1.561 . S
C1480 C1483 1.526 . S
C1481 H1465 0.959 . S
C1481 H1466 0.959 . S
C1481 H1467 0.961 . S
C1481 C1480 1.502 . S
C1482 H1468 0.960 . S
C1482 H1469 0.961 . S
C1482 H1470 0.959 . S
C1482 C1480 1.561 . S
C1483 C1480 1.526 . S
C1483 C1484 1.396 . S
C1483 C1488 1.390 . S
C1484 C1478 1.465 . S
C1484 C1483 1.396 . S
C1484 C1485 1.399 . S
C1485 H1471 0.929 . S
C1485 C1484 1.399 . S
C1485 C1486 1.385 . S
C1486 H1472 0.931 . S
C1486 C1485 1.385 . S
C1486 C1487 1.389 . S
C1487 C1486 1.389 . S
C1487 C1488 1.387 . S
C1488 H1473 0.930 . S
C1488 C1483 1.390 . S
C1488 C1487 1.387 . S
H1489 C1501 0.930 . S
H1490 C1503 0.930 . S
H1491 C1504 0.930 . S
H1492 C1508 0.959 . S
H1493 C1508 0.959 . S
H1494 C1508 0.961 . S
H1495 C1509 0.960 . S
H1496 C1509 0.961 . S
H1497 C1509 0.959 . S
H1498 C1512 0.929 . S
H1499 C1513 0.931 . S
H1500 C1515 0.930 . S
C1501 H1489 0.930 . S
C1501 C1502 1.399 . S
C1501 C1506 1.399 . S
C1502 C1501 1.399 . S
C1502 C1503 1.376 . S
C1503 H1490 0.930 . S
C1503 C1502 1.376 . S
C1503 C1504 1.388 . S
C1504 H1491 0.930 . S
C1504 C1503 1.388 . S
C1504 C1505 1.390 . S
C1505 C1504 1.390 . S
C1505 C1506 1.394 . S
C1505 C1511 1.465 . S
C1506 C1501 1.399 . S
C1506 C1505 1.394 . S
C1506 C1507 1.516 . S
C1507 C1506 1.516 . S
C1507 C1508 1.502 . S
C1507 C1509 1.561 . S
C1507 C1510 1.526 . S
C1508 H1492 0.959 . S
C1508 H1493 0.959 . S
C1508 H1494 0.961 . S
C1508 C1507 1.502 . S
C1509 H1495 0.960 . S
C1509 H1496 0.961 . S
C1509 H1497 0.959 . S
C1509 C1507 1.561 . S
C1510 C1507 1.526 . S
C1510 C1511 1.396 . S
C1510 C1515 1.390 . S
C1511 C1505 1.465 . S
C1511 C1510 1.396 . S
C1511 C1512 1.399 . S
C1512 H1498 0.929 . S
C1512 C1511 1.399 . S
C1512 C1513 1.385 . S
C1513 H1499 0.931 . S
C1513 C1512 1.385 . S
C1513 C1514 1.389 . S
C1514 C1513 1.389 . S
C1514 C1515 1.387 . S
C1515 H1500 0.930 . S
C1515 C1510 1.390 . S
C1515 C1514 1.387 . S
H1516 C1528 0.930 . S
H1517 C1530 0.930 . S
H1518 C1531 0.930 . S
H1519 C1535 0.959 . S
H1520 C1535 0.959 . S
H1521 C1535 0.961 . S
H1522 C1536 0.960 . S
H1523 C1536 0.961 . S
H1524 C1536 0.959 . S
H1525 C1539 0.929 . S
H1526 C1540 0.931 . S
H1527 C1542 0.930 . S
C1528 H1516 0.930 . S
C1528 C1529 1.399 . S
C1528 C1533 1.399 . S
C1529 C1528 1.399 . S
C1529 C1530 1.376 . S
C1530 H1517 0.930 . S
C1530 C1529 1.376 . S
C1530 C1531 1.388 . S
C1531 H1518 0.930 . S
C1531 C1530 1.388 . S
C1531 C1532 1.390 . S
C1532 C1531 1.390 . S
C1532 C1533 1.394 . S
C1532 C1538 1.465 . S
C1533 C1528 1.399 . S
C1533 C1532 1.394 . S
C1533 C1534 1.516 . S
C1534 C1533 1.516 . S
C1534 C1535 1.502 . S
C1534 C1536 1.561 . S
C1534 C1537 1.526 . S
C1535 H1519 0.959 . S
C1535 H1520 0.959 . S
C1535 H1521 0.961 . S
C1535 C1534 1.502 . S
C1536 H1522 0.960 . S
C1536 H1523 0.961 . S
C1536 H1524 0.959 . S
C1536 C1534 1.561 . S
C1537 C1534 1.526 . S
C1537 C1538 1.396 . S
C1537 C1542 1.390 . S
C1538 C1532 1.465 . S
C1538 C1537 1.396 . S
C1538 C1539 1.399 . S
C1539 H1525 0.929 . S
C1539 C1538 1.399 . S
C1539 C1540 1.385 . S
C1540 H1526 0.931 . S
C1540 C1539 1.385 . S
C1540 C1541 1.389 . S
C1541 C1540 1.389 . S
C1541 C1542 1.387 . S
C1542 H1527 0.930 . S
C1542 C1537 1.390 . S
C1542 C1541 1.387 . S
H1543 C1555 0.930 . S
H1544 C1557 0.930 . S
H1545 C1558 0.930 . S
H1546 C1562 0.959 . S
H1547 C1562 0.959 . S
H1548 C1562 0.961 . S
H1549 C1563 0.960 . S
H1550 C1563 0.961 . S
H1551 C1563 0.959 . S
H1552 C1566 0.929 . S
H1553 C1567 0.931 . S
H1554 C1569 0.930 . S
C1555 H1543 0.930 . S
C1555 C1556 1.399 . S
C1555 C1560 1.399 . S
C1556 C1555 1.399 . S
C1556 C1557 1.376 . S
C1557 H1544 0.930 . S
C1557 C1556 1.376 . S
C1557 C1558 1.388 . S
C1558 H1545 0.930 . S
C1558 C1557 1.388 . S
C1558 C1559 1.390 . S
C1559 C1558 1.390 . S
C1559 C1560 1.394 . S
C1559 C1565 1.465 . S
C1560 C1555 1.399 . S
C1560 C1559 1.394 . S
C1560 C1561 1.516 . S
C1561 C1560 1.516 . S
C1561 C1562 1.502 . S
C1561 C1563 1.561 . S
C1561 C1564 1.526 . S
C1562 H1546 0.959 . S
C1562 H1547 0.959 . S
C1562 H1548 0.961 . S
C1562 C1561 1.502 . S
C1563 H1549 0.960 . S
C1563 H1550 0.961 . S
C1563 H1551 0.959 . S
C1563 C1561 1.561 . S
C1564 C1561 1.526 . S
C1564 C1565 1.396 . S
C1564 C1569 1.390 . S
C1565 C1559 1.465 . S
C1565 C1564 1.396 . S
C1565 C1566 1.399 . S
C1566 H1552 0.929 . S
C1566 C1565 1.399 . S
C1566 C1567 1.385 . S
C1567 H1553 0.931 . S
C1567 C1566 1.385 . S
C1567 C1568 1.389 . S
C1568 C1567 1.389 . S
C1568 C1569 1.387 . S
C1569 H1554 0.930 . S
C1569 C1564 1.390 . S
C1569 C1568 1.387 . S
H1570 C1582 0.930 . S
H1571 C1584 0.930 . S
H1572 C1585 0.930 . S
H1573 C1589 0.959 . S
H1574 C1589 0.959 . S
H1575 C1589 0.961 . S
H1576 C1590 0.960 . S
H1577 C1590 0.961 . S
H1578 C1590 0.959 . S
H1579 C1593 0.929 . S
H1580 C1594 0.931 . S
H1581 C1596 0.930 . S
C1582 H1570 0.930 . S
C1582 C1583 1.399 . S
C1582 C1587 1.399 . S
C1583 C1582 1.399 . S
C1583 C1584 1.376 . S
C1584 H1571 0.930 . S
C1584 C1583 1.376 . S
C1584 C1585 1.388 . S
C1585 H1572 0.930 . S
C1585 C1584 1.388 . S
C1585 C1586 1.390 . S
C1586 C1585 1.390 . S
C1586 C1587 1.394 . S
C1586 C1592 1.465 . S
C1587 C1582 1.399 . S
C1587 C1586 1.394 . S
C1587 C1588 1.516 . S
C1588 C1587 1.516 . S
C1588 C1589 1.502 . S
C1588 C1590 1.561 . S
C1588 C1591 1.526 . S
C1589 H1573 0.959 . S
C1589 H1574 0.959 . S
C1589 H1575 0.961 . S
C1589 C1588 1.502 . S
C1590 H1576 0.960 . S
C1590 H1577 0.961 . S
C1590 H1578 0.959 . S
C1590 C1588 1.561 . S
C1591 C1588 1.526 . S
C1591 C1592 1.396 . S
C1591 C1596 1.390 . S
C1592 C1586 1.465 . S
C1592 C1591 1.396 . S
C1592 C1593 1.399 . S
C1593 H1579 0.929 . S
C1593 C1592 1.399 . S
C1593 C1594 1.385 . S
C1594 H1580 0.931 . S
C1594 C1593 1.385 . S
C1594 C1595 1.389 . S
C1595 C1594 1.389 . S
C1595 C1596 1.387 . S
C1596 H1581 0.930 . S
C1596 C1591 1.390 . S
C1596 C1595 1.387 . S
H1597 C1609 0.930 . S
H1598 C1611 0.930 . S
H1599 C1612 0.930 . S
H1600 C1616 0.959 . S
H1601 C1616 0.959 . S
H1602 C1616 0.961 . S
H1603 C1617 0.960 . S
H1604 C1617 0.961 . S
H1605 C1617 0.959 . S
H1606 C1620 0.929 . S
H1607 C1621 0.931 . S
H1608 C1623 0.930 . S
C1609 H1597 0.930 . S
C1609 C1610 1.399 . S
C1609 C1614 1.399 . S
C1610 C1609 1.399 . S
C1610 C1611 1.376 . S
C1611 H1598 0.930 . S
C1611 C1610 1.376 . S
C1611 C1612 1.388 . S
C1612 H1599 0.930 . S
C1612 C1611 1.388 . S
C1612 C1613 1.390 . S
C1613 C1612 1.390 . S
C1613 C1614 1.394 . S
C1613 C1619 1.465 . S
C1614 C1609 1.399 . S
C1614 C1613 1.394 . S
C1614 C1615 1.516 . S
C1615 C1614 1.516 . S
C1615 C1616 1.502 . S
C1615 C1617 1.561 . S
C1615 C1618 1.526 . S
C1616 H1600 0.959 . S
C1616 H1601 0.959 . S
C1616 H1602 0.961 . S
C1616 C1615 1.502 . S
C1617 H1603 0.960 . S
C1617 H1604 0.961 . S
C1617 H1605 0.959 . S
C1617 C1615 1.561 . S
C1618 C1615 1.526 . S
C1618 C1619 1.396 . S
C1618 C1623 1.390 . S
C1619 C1613 1.465 . S
C1619 C1618 1.396 . S
C1619 C1620 1.399 . S
C1620 H1606 0.929 . S
C1620 C1619 1.399 . S
C1620 C1621 1.385 . S
C1621 H1607 0.931 . S
C1621 C1620 1.385 . S
C1621 C1622 1.389 . S
C1622 C1621 1.389 . S
C1622 C1623 1.387 . S
C1623 H1608 0.930 . S
C1623 C1618 1.390 . S
C1623 C1622 1.387 . S
H1624 C1636 0.930 . S
H1625 C1638 0.930 . S
H1626 C1639 0.930 . S
H1627 C1643 0.959 . S
H1628 C1643 0.959 . S
H1629 C1643 0.961 . S
H1630 C1644 0.960 . S
H1631 C1644 0.961 . S
H1632 C1644 0.959 . S
H1633 C1647 0.929 1_565 S
H1634 C1648 0.931 . S
H1635 C1650 0.930 . S
C1636 H1624 0.930 . S
C1636 C1637 1.399 . S
C1636 C1641 1.399 . S
C1637 C1636 1.399 . S
C1637 C1638 1.376 . S
C1638 H1625 0.930 . S
C1638 C1637 1.376 . S
C1638 C1639 1.388 . S
C1639 H1626 0.930 . S
C1639 C1638 1.388 . S
C1639 C1640 1.390 . S
C1640 C1639 1.390 . S
C1640 C1641 1.394 . S
C1640 C1646 1.465 1_565 S
C1641 C1636 1.399 . S
C1641 C1640 1.394 . S
C1641 C1642 1.516 1_565 S
C1642 C1641 1.516 1_545 S
C1642 C1643 1.502 . S
C1642 C1644 1.561 . S
C1642 C1645 1.526 . S
C1643 H1627 0.959 . S
C1643 H1628 0.959 . S
C1643 H1629 0.961 . S
C1643 C1642 1.502 . S
C1644 H1630 0.960 . S
C1644 H1631 0.961 . S
C1644 H1632 0.959 . S
C1644 C1642 1.561 . S
C1645 C1642 1.526 . S
C1645 C1646 1.396 . S
C1645 C1650 1.390 . S
C1646 C1640 1.465 1_545 S
C1646 C1645 1.396 . S
C1646 C1647 1.399 . S
C1647 H1633 0.929 1_545 S
C1647 C1646 1.399 . S
C1647 C1648 1.385 . S
C1648 H1634 0.931 . S
C1648 C1647 1.385 . S
C1648 C1649 1.389 . S
C1649 C1648 1.389 . S
C1649 C1650 1.387 . S
C1650 H1635 0.930 . S
C1650 C1645 1.390 . S
C1650 C1649 1.387 . S
H1651 C1663 0.930 . S
H1652 C1665 0.930 . S
H1653 C1666 0.930 . S
H1654 C1670 0.959 . S
H1655 C1670 0.959 . S
H1656 C1670 0.961 . S
H1657 C1671 0.960 . S
H1658 C1671 0.961 . S
H1659 C1671 0.959 . S
H1660 C1674 0.929 . S
H1661 C1675 0.931 . S
H1662 C1677 0.930 . S
C1663 H1651 0.930 . S
C1663 C1664 1.399 . S
C1663 C1668 1.399 . S
C1664 C1663 1.399 . S
C1664 C1665 1.376 . S
C1665 H1652 0.930 . S
C1665 C1664 1.376 . S
C1665 C1666 1.388 . S
C1666 H1653 0.930 . S
C1666 C1665 1.388 . S
C1666 C1667 1.390 . S
C1667 C1666 1.390 . S
C1667 C1668 1.394 . S
C1667 C1673 1.465 . S
C1668 C1663 1.399 . S
C1668 C1667 1.394 . S
C1668 C1669 1.516 . S
C1669 C1668 1.516 . S
C1669 C1670 1.502 . S
C1669 C1671 1.561 . S
C1669 C1672 1.526 . S
C1670 H1654 0.959 . S
C1670 H1655 0.959 . S
C1670 H1656 0.961 . S
C1670 C1669 1.502 . S
C1671 H1657 0.960 . S
C1671 H1658 0.961 . S
C1671 H1659 0.959 . S
C1671 C1669 1.561 . S
C1672 C1669 1.526 . S
C1672 C1673 1.396 . S
C1672 C1677 1.390 . S
C1673 C1667 1.465 . S
C1673 C1672 1.396 . S
C1673 C1674 1.399 . S
C1674 H1660 0.929 . S
C1674 C1673 1.399 . S
C1674 C1675 1.385 . S
C1675 H1661 0.931 . S
C1675 C1674 1.385 . S
C1675 C1676 1.389 . S
C1676 C1675 1.389 . S
C1676 C1677 1.387 . S
C1677 H1662 0.930 . S
C1677 C1672 1.390 . S
C1677 C1676 1.387 . S
H1678 C1690 0.930 . S
H1679 C1692 0.930 . S
H1680 C1693 0.930 . S
H1681 C1697 0.959 . S
H1682 C1697 0.959 . S
H1683 C1697 0.961 . S
H1684 C1698 0.960 . S
H1685 C1698 0.961 . S
H1686 C1698 0.959 . S
H1687 C1701 0.929 . S
H1688 C1702 0.931 . S
H1689 C1704 0.930 . S
C1690 H1678 0.930 . S
C1690 C1691 1.399 . S
C1690 C1695 1.399 . S
C1691 C1690 1.399 . S
C1691 C1692 1.376 . S
C1692 H1679 0.930 . S
C1692 C1691 1.376 . S
C1692 C1693 1.388 . S
C1693 H1680 0.930 . S
C1693 C1692 1.388 . S
C1693 C1694 1.390 . S
C1694 C1693 1.390 . S
C1694 C1695 1.394 . S
C1694 C1700 1.465 1_556 S
C1695 C1690 1.399 . S
C1695 C1694 1.394 . S
C1695 C1696 1.516 1_556 S
C1696 C1695 1.516 1_554 S
C1696 C1697 1.502 . S
C1696 C1698 1.561 1_554 S
C1696 C1699 1.526 . S
C1697 H1681 0.959 . S
C1697 H1682 0.959 . S
C1697 H1683 0.961 . S
C1697 C1696 1.502 . S
C1698 H1684 0.960 . S
C1698 H1685 0.961 . S
C1698 H1686 0.959 . S
C1698 C1696 1.561 1_556 S
C1699 C1696 1.526 . S
C1699 C1700 1.396 . S
C1699 C1704 1.390 . S
C1700 C1694 1.465 1_554 S
C1700 C1699 1.396 . S
C1700 C1701 1.399 . S
C1701 H1687 0.929 . S
C1701 C1700 1.399 . S
C1701 C1702 1.385 . S
C1702 H1688 0.931 . S
C1702 C1701 1.385 . S
C1702 C1703 1.389 . S
C1703 C1702 1.389 . S
C1703 C1704 1.387 . S
C1704 H1689 0.930 . S
C1704 C1699 1.390 . S
C1704 C1703 1.387 . S
H1705 C1717 0.930 . S
H1706 C1719 0.930 . S
H1707 C1720 0.930 . S
H1708 C1724 0.959 . S
H1709 C1724 0.959 . S
H1710 C1724 0.961 . S
H1711 C1725 0.960 . S
H1712 C1725 0.961 . S
H1713 C1725 0.959 . S
H1714 C1728 0.929 . S
H1715 C1729 0.931 . S
H1716 C1731 0.930 . S
C1717 H1705 0.930 . S
C1717 C1718 1.399 . S
C1717 C1722 1.399 . S
C1718 C1717 1.399 . S
C1718 C1719 1.376 . S
C1719 H1706 0.930 . S
C1719 C1718 1.376 . S
C1719 C1720 1.388 . S
C1720 H1707 0.930 . S
C1720 C1719 1.388 . S
C1720 C1721 1.390 . S
C1721 C1720 1.390 . S
C1721 C1722 1.394 . S
C1721 C1727 1.465 1_554 S
C1722 C1717 1.399 . S
C1722 C1721 1.394 . S
C1722 C1723 1.516 . S
C1723 C1722 1.516 . S
C1723 C1724 1.502 . S
C1723 C1725 1.561 1_554 S
C1723 C1726 1.526 1_554 S
C1724 H1708 0.959 . S
C1724 H1709 0.959 . S
C1724 H1710 0.961 . S
C1724 C1723 1.502 . S
C1725 H1711 0.960 . S
C1725 H1712 0.961 . S
C1725 H1713 0.959 . S
C1725 C1723 1.561 1_556 S
C1726 C1723 1.526 1_556 S
C1726 C1727 1.396 . S
C1726 C1731 1.390 . S
C1727 C1721 1.465 1_556 S
C1727 C1726 1.396 . S
C1727 C1728 1.399 . S
C1728 H1714 0.929 . S
C1728 C1727 1.399 . S
C1728 C1729 1.385 . S
C1729 H1715 0.931 . S
C1729 C1728 1.385 . S
C1729 C1730 1.389 . S
C1730 C1729 1.389 . S
C1730 C1731 1.387 . S
C1731 H1716 0.930 . S
C1731 C1726 1.390 . S
C1731 C1730 1.387 . S
H1732 C1744 0.930 . S
H1733 C1746 0.930 . S
H1734 C1747 0.930 . S
H1735 C1751 0.959 . S
H1736 C1751 0.959 . S
H1737 C1751 0.961 . S
H1738 C1752 0.960 . S
H1739 C1752 0.961 . S
H1740 C1752 0.959 . S
H1741 C1755 0.929 . S
H1742 C1756 0.931 . S
H1743 C1758 0.930 . S
C1744 H1732 0.930 . S
C1744 C1745 1.399 . S
C1744 C1749 1.399 . S
C1745 C1744 1.399 . S
C1745 C1746 1.376 . S
C1746 H1733 0.930 . S
C1746 C1745 1.376 . S
C1746 C1747 1.388 . S
C1747 H1734 0.930 . S
C1747 C1746 1.388 . S
C1747 C1748 1.390 . S
C1748 C1747 1.390 . S
C1748 C1749 1.394 . S
C1748 C1754 1.465 . S
C1749 C1744 1.399 . S
C1749 C1748 1.394 . S
C1749 C1750 1.516 . S
C1750 C1749 1.516 . S
C1750 C1751 1.502 . S
C1750 C1752 1.561 . S
C1750 C1753 1.526 . S
C1751 H1735 0.959 . S
C1751 H1736 0.959 . S
C1751 H1737 0.961 . S
C1751 C1750 1.502 . S
C1752 H1738 0.960 . S
C1752 H1739 0.961 . S
C1752 H1740 0.959 . S
C1752 C1750 1.561 . S
C1753 C1750 1.526 . S
C1753 C1754 1.396 . S
C1753 C1758 1.390 . S
C1754 C1748 1.465 . S
C1754 C1753 1.396 . S
C1754 C1755 1.399 . S
C1755 H1741 0.929 . S
C1755 C1754 1.399 . S
C1755 C1756 1.385 . S
C1756 H1742 0.931 . S
C1756 C1755 1.385 . S
C1756 C1757 1.389 . S
C1757 C1756 1.389 . S
C1757 C1758 1.387 . S
C1758 H1743 0.930 . S
C1758 C1753 1.390 . S
C1758 C1757 1.387 . S
H1759 C1771 0.930 . S
H1760 C1773 0.930 . S
H1761 C1774 0.930 . S
H1762 C1778 0.959 . S
H1763 C1778 0.959 . S
H1764 C1778 0.961 . S
H1765 C1779 0.960 . S
H1766 C1779 0.961 . S
H1767 C1779 0.959 . S
H1768 C1782 0.929 . S
H1769 C1783 0.931 . S
H1770 C1785 0.930 . S
C1771 H1759 0.930 . S
C1771 C1772 1.399 . S
C1771 C1776 1.399 . S
C1772 C1771 1.399 . S
C1772 C1773 1.376 . S
C1773 H1760 0.930 . S
C1773 C1772 1.376 . S
C1773 C1774 1.388 . S
C1774 H1761 0.930 . S
C1774 C1773 1.388 . S
C1774 C1775 1.390 . S
C1775 C1774 1.390 . S
C1775 C1776 1.394 . S
C1775 C1781 1.465 . S
C1776 C1771 1.399 . S
C1776 C1775 1.394 . S
C1776 C1777 1.516 . S
C1777 C1776 1.516 . S
C1777 C1778 1.502 . S
C1777 C1779 1.561 . S
C1777 C1780 1.526 . S
C1778 H1762 0.959 . S
C1778 H1763 0.959 . S
C1778 H1764 0.961 . S
C1778 C1777 1.502 . S
C1779 H1765 0.960 . S
C1779 H1766 0.961 . S
C1779 H1767 0.959 . S
C1779 C1777 1.561 . S
C1780 C1777 1.526 . S
C1780 C1781 1.396 . S
C1780 C1785 1.390 . S
C1781 C1775 1.465 . S
C1781 C1780 1.396 . S
C1781 C1782 1.399 . S
C1782 H1768 0.929 . S
C1782 C1781 1.399 . S
C1782 C1783 1.385 . S
C1783 H1769 0.931 . S
C1783 C1782 1.385 . S
C1783 C1784 1.389 . S
C1784 C1783 1.389 . S
C1784 C1785 1.387 . S
C1785 H1770 0.930 . S
C1785 C1780 1.390 . S
C1785 C1784 1.387 . S
H1786 C1798 0.930 . S
H1787 C1800 0.930 . S
H1788 C1801 0.930 . S
H1789 C1805 0.959 . S
H1790 C1805 0.959 . S
H1791 C1805 0.961 . S
H1792 C1806 0.960 1_655 S
H1793 C1806 0.961 . S
H1794 C1806 0.959 . S
H1795 C1809 0.929 . S
H1796 C1810 0.931 . S
H1797 C1812 0.930 . S
C1798 H1786 0.930 . S
C1798 C1799 1.399 . S
C1798 C1803 1.399 . S
C1799 C1798 1.399 . S
C1799 C1800 1.376 . S
C1800 H1787 0.930 . S
C1800 C1799 1.376 . S
C1800 C1801 1.388 . S
C1801 H1788 0.930 . S
C1801 C1800 1.388 . S
C1801 C1802 1.390 . S
C1802 C1801 1.390 . S
C1802 C1803 1.394 . S
C1802 C1808 1.465 1_655 S
C1803 C1798 1.399 . S
C1803 C1802 1.394 . S
C1803 C1804 1.516 . S
C1804 C1803 1.516 . S
C1804 C1805 1.502 . S
C1804 C1806 1.561 1_655 S
C1804 C1807 1.526 1_655 S
C1805 H1789 0.959 . S
C1805 H1790 0.959 . S
C1805 H1791 0.961 . S
C1805 C1804 1.502 . S
C1806 H1792 0.960 1_455 S
C1806 H1793 0.961 . S
C1806 H1794 0.959 . S
C1806 C1804 1.561 1_455 S
C1807 C1804 1.526 1_455 S
C1807 C1808 1.396 . S
C1807 C1812 1.390 . S
C1808 C1802 1.465 1_455 S
C1808 C1807 1.396 . S
C1808 C1809 1.399 . S
C1809 H1795 0.929 . S
C1809 C1808 1.399 . S
C1809 C1810 1.385 . S
C1810 H1796 0.931 . S
C1810 C1809 1.385 . S
C1810 C1811 1.389 . S
C1811 C1810 1.389 . S
C1811 C1812 1.387 . S
C1812 H1797 0.930 . S
C1812 C1807 1.390 . S
C1812 C1811 1.387 . S
H1813 C1825 0.930 . S
H1814 C1827 0.930 . S
H1815 C1828 0.930 1_455 S
H1816 C1832 0.959 . S
H1817 C1832 0.959 . S
H1818 C1832 0.961 . S
H1819 C1833 0.960 . S
H1820 C1833 0.961 . S
H1821 C1833 0.959 . S
H1822 C1836 0.929 . S
H1823 C1837 0.931 . S
H1824 C1839 0.930 . S
C1825 H1813 0.930 . S
C1825 C1826 1.399 . S
C1825 C1830 1.399 . S
C1826 C1825 1.399 . S
C1826 C1827 1.376 . S
C1827 H1814 0.930 . S
C1827 C1826 1.376 . S
C1827 C1828 1.388 . S
C1828 H1815 0.930 1_655 S
C1828 C1827 1.388 . S
C1828 C1829 1.390 . S
C1829 C1828 1.390 . S
C1829 C1830 1.394 . S
C1829 C1835 1.465 1_655 S
C1830 C1825 1.399 . S
C1830 C1829 1.394 . S
C1830 C1831 1.516 . S
C1831 C1830 1.516 . S
C1831 C1832 1.502 . S
C1831 C1833 1.561 . S
C1831 C1834 1.526 1_655 S
C1832 H1816 0.959 . S
C1832 H1817 0.959 . S
C1832 H1818 0.961 . S
C1832 C1831 1.502 . S
C1833 H1819 0.960 . S
C1833 H1820 0.961 . S
C1833 H1821 0.959 . S
C1833 C1831 1.561 . S
C1834 C1831 1.526 1_455 S
C1834 C1835 1.396 . S
C1834 C1839 1.390 . S
C1835 C1829 1.465 1_455 S
C1835 C1834 1.396 . S
C1835 C1836 1.399 . S
C1836 H1822 0.929 . S
C1836 C1835 1.399 . S
C1836 C1837 1.385 . S
C1837 H1823 0.931 . S
C1837 C1836 1.385 . S
C1837 C1838 1.389 . S
C1838 C1837 1.389 . S
C1838 C1839 1.387 . S
C1839 H1824 0.930 . S
C1839 C1834 1.390 . S
C1839 C1838 1.387 . S
H1840 C1852 0.930 . S
H1841 C1854 0.930 . S
H1842 C1855 0.930 . S
H1843 C1859 0.959 . S
H1844 C1859 0.959 . S
H1845 C1859 0.961 . S
H1846 C1860 0.960 . S
H1847 C1860 0.961 . S
H1848 C1860 0.959 . S
H1849 C1863 0.929 . S
H1850 C1864 0.931 . S
H1851 C1866 0.930 . S
C1852 H1840 0.930 . S
C1852 C1853 1.399 . S
C1852 C1857 1.399 . S
C1853 C1852 1.399 . S
C1853 C1854 1.376 . S
C1854 H1841 0.930 . S
C1854 C1853 1.376 . S
C1854 C1855 1.388 . S
C1855 H1842 0.930 . S
C1855 C1854 1.388 . S
C1855 C1856 1.390 . S
C1856 C1855 1.390 . S
C1856 C1857 1.394 . S
C1856 C1862 1.465 . S
C1857 C1852 1.399 . S
C1857 C1856 1.394 . S
C1857 C1858 1.516 . S
C1858 C1857 1.516 . S
C1858 C1859 1.502 . S
C1858 C1860 1.561 . S
C1858 C1861 1.526 . S
C1859 H1843 0.959 . S
C1859 H1844 0.959 . S
C1859 H1845 0.961 . S
C1859 C1858 1.502 . S
C1860 H1846 0.960 . S
C1860 H1847 0.961 . S
C1860 H1848 0.959 . S
C1860 C1858 1.561 . S
C1861 C1858 1.526 . S
C1861 C1862 1.396 . S
C1861 C1866 1.390 . S
C1862 C1856 1.465 . S
C1862 C1861 1.396 . S
C1862 C1863 1.399 . S
C1863 H1849 0.929 . S
C1863 C1862 1.399 . S
C1863 C1864 1.385 . S
C1864 H1850 0.931 . S
C1864 C1863 1.385 . S
C1864 C1865 1.389 . S
C1865 C1864 1.389 . S
C1865 C1866 1.387 . S
C1866 H1851 0.930 . S
C1866 C1861 1.390 . S
C1866 C1865 1.387 . S
H1867 C1879 0.930 . S
H1868 C1881 0.930 . S
H1869 C1882 0.930 1_565 S
H1870 C1886 0.959 . S
H1871 C1886 0.959 . S
H1872 C1886 0.961 . S
H1873 C1887 0.960 . S
H1874 C1887 0.961 . S
H1875 C1887 0.959 . S
H1876 C1890 0.929 . S
H1877 C1891 0.931 . S
H1878 C1893 0.930 . S
C1879 H1867 0.930 . S
C1879 C1880 1.399 . S
C1879 C1884 1.399 . S
C1880 C1879 1.399 . S
C1880 C1881 1.376 . S
C1881 H1868 0.930 . S
C1881 C1880 1.376 . S
C1881 C1882 1.388 . S
C1882 H1869 0.930 1_545 S
C1882 C1881 1.388 . S
C1882 C1883 1.390 . S
C1883 C1882 1.390 . S
C1883 C1884 1.394 . S
C1883 C1889 1.465 1_545 S
C1884 C1879 1.399 . S
C1884 C1883 1.394 . S
C1884 C1885 1.516 . S
C1885 C1884 1.516 . S
C1885 C1886 1.502 . S
C1885 C1887 1.561 . S
C1885 C1888 1.526 1_545 S
C1886 H1870 0.959 . S
C1886 H1871 0.959 . S
C1886 H1872 0.961 . S
C1886 C1885 1.502 . S
C1887 H1873 0.960 . S
C1887 H1874 0.961 . S
C1887 H1875 0.959 . S
C1887 C1885 1.561 . S
C1888 C1885 1.526 1_565 S
C1888 C1889 1.396 . S
C1888 C1893 1.390 . S
C1889 C1883 1.465 1_565 S
C1889 C1888 1.396 . S
C1889 C1890 1.399 . S
C1890 H1876 0.929 . S
C1890 C1889 1.399 . S
C1890 C1891 1.385 . S
C1891 H1877 0.931 . S
C1891 C1890 1.385 . S
C1891 C1892 1.389 . S
C1892 C1891 1.389 . S
C1892 C1893 1.387 . S
C1893 H1878 0.930 . S
C1893 C1888 1.390 . S
C1893 C1892 1.387 . S
H1894 C1906 0.930 . S
H1895 C1908 0.930 . S
H1896 C1909 0.930 . S
H1897 C1913 0.959 . S
H1898 C1913 0.959 . S
H1899 C1913 0.961 . S
H1900 C1914 0.960 . S
H1901 C1914 0.961 . S
H1902 C1914 0.959 . S
H1903 C1917 0.929 . S
H1904 C1918 0.931 . S
H1905 C1920 0.930 . S
C1906 H1894 0.930 . S
C1906 C1907 1.399 . S
C1906 C1911 1.399 . S
C1907 C1906 1.399 . S
C1907 C1908 1.376 . S
C1908 H1895 0.930 . S
C1908 C1907 1.376 . S
C1908 C1909 1.388 . S
C1909 H1896 0.930 . S
C1909 C1908 1.388 . S
C1909 C1910 1.390 . S
C1910 C1909 1.390 . S
C1910 C1911 1.394 . S
C1910 C1916 1.465 . S
C1911 C1906 1.399 . S
C1911 C1910 1.394 . S
C1911 C1912 1.516 . S
C1912 C1911 1.516 . S
C1912 C1913 1.502 . S
C1912 C1914 1.561 . S
C1912 C1915 1.526 . S
C1913 H1897 0.959 . S
C1913 H1898 0.959 . S
C1913 H1899 0.961 . S
C1913 C1912 1.502 . S
C1914 H1900 0.960 . S
C1914 H1901 0.961 . S
C1914 H1902 0.959 . S
C1914 C1912 1.561 . S
C1915 C1912 1.526 . S
C1915 C1916 1.396 . S
C1915 C1920 1.390 . S
C1916 C1910 1.465 . S
C1916 C1915 1.396 . S
C1916 C1917 1.399 . S
C1917 H1903 0.929 . S
C1917 C1916 1.399 . S
C1917 C1918 1.385 . S
C1918 H1904 0.931 . S
C1918 C1917 1.385 . S
C1918 C1919 1.389 . S
C1919 C1918 1.389 . S
C1919 C1920 1.387 . S
C1920 H1905 0.930 . S
C1920 C1915 1.390 . S
C1920 C1919 1.387 . S
H1921 C1933 0.930 . S
H1922 C1935 0.930 . S
H1923 C1936 0.930 . S
H1924 C1940 0.959 . S
H1925 C1940 0.959 . S
H1926 C1940 0.961 . S
H1927 C1941 0.960 . S
H1928 C1941 0.968 . S
H1929 C1941 0.959 . S
H1930 C1944 0.929 . S
H1931 C1945 0.931 . S
H1932 C1947 0.930 . S
C1933 H1921 0.930 . S
C1933 C1934 1.399 . S
C1933 C1938 1.399 . S
C1934 C1933 1.399 . S
C1934 C1935 1.376 . S
C1935 H1922 0.930 . S
C1935 C1934 1.376 . S
C1935 C1936 1.388 . S
C1936 H1923 0.930 . S
C1936 C1935 1.388 . S
C1936 C1937 1.390 . S
C1937 C1936 1.390 . S
C1937 C1938 1.394 . S
C1937 C1943 1.465 1_554 S
C1938 C1933 1.399 . S
C1938 C1937 1.394 . S
C1938 C1939 1.516 1_554 S
C1939 C1938 1.516 1_556 S
C1939 C1940 1.502 . S
C1939 C1941 1.561 1_556 S
C1939 C1942 1.526 . S
C1940 H1924 0.959 . S
C1940 H1925 0.959 . S
C1940 H1926 0.961 . S
C1940 C1939 1.502 . S
C1941 H1927 0.960 . S
C1941 H1928 0.968 . S
C1941 H1929 0.959 . S
C1941 C1939 1.561 1_554 S
C1942 C1939 1.526 . S
C1942 C1943 1.396 . S
C1942 C1947 1.390 . S
C1943 C1937 1.465 1_556 S
C1943 C1942 1.396 . S
C1943 C1944 1.399 . S
C1944 H1930 0.929 . S
C1944 C1943 1.399 . S
C1944 C1945 1.385 . S
C1945 H1931 0.931 . S
C1945 C1944 1.385 . S
C1945 C1946 1.389 . S
C1946 C1945 1.389 . S
C1946 C1947 1.387 . S
C1947 H1932 0.930 . S
C1947 C1942 1.390 . S
C1947 C1946 1.387 . S
H1948 C1960 0.930 . S
H1949 C1962 0.930 . S
H1950 C1963 0.930 . S
H1951 C1967 0.959 . S
H1952 C1967 0.959 . S
H1953 C1967 0.961 . S
H1954 C1968 0.960 . S
H1955 C1968 0.961 1_554 S
H1956 C1968 0.959 . S
H1957 C1971 0.926 . S
H1958 C1972 0.931 . S
H1959 C1974 0.930 . S
C1960 H1948 0.930 . S
C1960 C1961 1.399 . S
C1960 C1965 1.399 . S
C1961 C1960 1.399 . S
C1961 C1962 1.376 . S
C1962 H1949 0.930 . S
C1962 C1961 1.376 . S
C1962 C1963 1.388 . S
C1963 H1950 0.930 . S
C1963 C1962 1.388 . S
C1963 C1964 1.390 . S
C1964 C1963 1.390 . S
C1964 C1965 1.394 . S
C1964 C1970 1.465 1_556 S
C1965 C1960 1.399 . S
C1965 C1964 1.394 . S
C1965 C1966 1.516 1_556 S
C1966 C1965 1.516 1_554 S
C1966 C1967 1.502 . S
C1966 C1968 1.561 1_554 S
C1966 C1969 1.526 . S
C1967 H1951 0.959 . S
C1967 H1952 0.959 . S
C1967 H1953 0.961 . S
C1967 C1966 1.502 . S
C1968 H1954 0.960 . S
C1968 H1955 0.961 1_556 S
C1968 H1956 0.959 . S
C1968 C1966 1.561 1_556 S
C1969 C1966 1.526 . S
C1969 C1970 1.396 . S
C1969 C1974 1.390 . S
C1970 C1964 1.465 1_554 S
C1970 C1969 1.396 . S
C1970 C1971 1.399 . S
C1971 H1957 0.926 . S
C1971 C1970 1.399 . S
C1971 C1972 1.385 . S
C1972 H1958 0.931 . S
C1972 C1971 1.385 . S
C1972 C1973 1.389 . S
C1973 C1972 1.389 . S
C1973 C1974 1.387 . S
C1974 H1959 0.930 . S
C1974 C1969 1.390 . S
C1974 C1973 1.387 . S
H1975 C1987 0.930 . S
H1976 C1989 0.930 . S
H1977 C1990 0.930 . S
H1978 C1994 0.959 . S
H1979 C1994 0.959 . S
H1980 C1994 0.961 . S
H1981 C1995 0.960 . S
H1982 C1995 0.961 . S
H1983 C1995 0.959 . S
H1984 C1998 0.929 . S
H1985 C1999 0.931 . S
H1986 C2001 0.930 . S
C1987 H1975 0.930 . S
C1987 C1988 1.399 . S
C1987 C1992 1.399 . S
C1988 C1987 1.399 . S
C1988 C1989 1.376 . S
C1989 H1976 0.930 . S
C1989 C1988 1.376 . S
C1989 C1990 1.388 . S
C1990 H1977 0.930 . S
C1990 C1989 1.388 . S
C1990 C1991 1.390 . S
C1991 C1990 1.390 . S
C1991 C1992 1.394 . S
C1991 C1997 1.465 . S
C1992 C1987 1.399 . S
C1992 C1991 1.394 . S
C1992 C1993 1.516 . S
C1993 C1992 1.516 . S
C1993 C1994 1.502 . S
C1993 C1995 1.561 . S
C1993 C1996 1.526 . S
C1994 H1978 0.959 . S
C1994 H1979 0.959 . S
C1994 H1980 0.961 . S
C1994 C1993 1.502 . S
C1995 H1981 0.960 . S
C1995 H1982 0.961 . S
C1995 H1983 0.959 . S
C1995 C1993 1.561 . S
C1996 C1993 1.526 . S
C1996 C1997 1.396 . S
C1996 C2001 1.390 . S
C1997 C1991 1.465 . S
C1997 C1996 1.396 . S
C1997 C1998 1.399 . S
C1998 H1984 0.929 . S
C1998 C1997 1.399 . S
C1998 C1999 1.385 . S
C1999 H1985 0.931 . S
C1999 C1998 1.385 . S
C1999 C2000 1.389 . S
C2000 C1999 1.389 . S
C2000 C2001 1.387 . S
C2001 H1986 0.930 . S
C2001 C1996 1.390 . S
C2001 C2000 1.387 . S
H2002 C2014 0.930 . S
H2003 C2016 0.930 . S
H2004 C2017 0.930 . S
H2005 C2021 0.959 . S
H2006 C2021 0.959 . S
H2007 C2021 0.961 . S
H2008 C2022 0.960 . S
H2009 C2022 0.961 . S
H2010 C2022 0.959 . S
H2011 C2025 0.929 . S
H2012 C2026 0.931 . S
H2013 C2028 0.930 . S
C2014 H2002 0.930 . S
C2014 C2015 1.399 . S
C2014 C2019 1.399 . S
C2015 C2014 1.399 . S
C2015 C2016 1.376 . S
C2016 H2003 0.930 . S
C2016 C2015 1.376 . S
C2016 C2017 1.388 . S
C2017 H2004 0.930 . S
C2017 C2016 1.388 . S
C2017 C2018 1.390 . S
C2018 C2017 1.390 . S
C2018 C2019 1.394 . S
C2018 C2024 1.465 . S
C2019 C2014 1.399 . S
C2019 C2018 1.394 . S
C2019 C2020 1.516 . S
C2020 C2019 1.516 . S
C2020 C2021 1.502 . S
C2020 C2022 1.561 . S
C2020 C2023 1.526 . S
C2021 H2005 0.959 . S
C2021 H2006 0.959 . S
C2021 H2007 0.961 . S
C2021 C2020 1.502 . S
C2022 H2008 0.960 . S
C2022 H2009 0.961 . S
C2022 H2010 0.959 . S
C2022 C2020 1.561 . S
C2023 C2020 1.526 . S
C2023 C2024 1.396 . S
C2023 C2028 1.390 . S
C2024 C2018 1.465 . S
C2024 C2023 1.396 . S
C2024 C2025 1.399 . S
C2025 H2011 0.929 . S
C2025 C2024 1.399 . S
C2025 C2026 1.385 . S
C2026 H2012 0.931 . S
C2026 C2025 1.385 . S
C2026 C2027 1.389 . S
C2027 C2026 1.389 . S
C2027 C2028 1.387 . S
C2028 H2013 0.930 . S
C2028 C2023 1.390 . S
C2028 C2027 1.387 . S
H2029 C2041 0.930 . S
H2030 C2043 0.930 . S
H2031 C2044 0.930 . S
H2032 C2048 0.959 . S
H2033 C2048 0.987 . S
H2034 C2048 0.961 . S
H2035 C2049 0.960 . S
H2036 C2049 0.961 . S
H2037 C2049 0.959 . S
H2038 C2052 0.929 . S
H2039 C2053 0.931 . S
H2040 C2055 0.930 . S
C2041 H2029 0.930 . S
C2041 C2042 1.399 . S
C2041 C2046 1.399 . S
C2042 C2041 1.399 . S
C2042 C2043 1.376 . S
C2043 H2030 0.930 . S
C2043 C2042 1.376 . S
C2043 C2044 1.388 . S
C2044 H2031 0.930 . S
C2044 C2043 1.388 . S
C2044 C2045 1.390 . S
C2045 C2044 1.390 . S
C2045 C2046 1.394 . S
C2045 C2051 1.465 1_455 S
C2046 C2041 1.399 . S
C2046 C2045 1.394 . S
C2046 C2047 1.516 1_455 S
C2047 C2046 1.516 1_655 S
C2047 C2048 1.502 1_655 S
C2047 C2049 1.561 . S
C2047 C2050 1.526 . S
C2048 H2032 0.959 . S
C2048 H2033 0.987 . S
C2048 H2034 0.961 . S
C2048 C2047 1.502 1_455 S
C2049 H2035 0.960 . S
C2049 H2036 0.961 . S
C2049 H2037 0.959 . S
C2049 C2047 1.561 . S
C2050 C2047 1.526 . S
C2050 C2051 1.396 . S
C2050 C2055 1.390 . S
C2051 C2045 1.465 1_655 S
C2051 C2050 1.396 . S
C2051 C2052 1.399 . S
C2052 H2038 0.929 . S
C2052 C2051 1.399 . S
C2052 C2053 1.385 . S
C2053 H2039 0.931 . S
C2053 C2052 1.385 . S
C2053 C2054 1.389 . S
C2054 C2053 1.389 . S
C2054 C2055 1.387 . S
C2055 H2040 0.930 . S
C2055 C2050 1.390 . S
C2055 C2054 1.387 . S
H2056 C2068 0.930 . S
H2057 C2070 0.930 . S
H2058 C2071 0.930 . S
H2059 C2075 0.959 . S
H2060 C2075 0.959 . S
H2061 C2075 0.961 . S
H2062 C2076 0.960 . S
H2063 C2076 0.961 1_655 S
H2064 C2076 0.959 . S
H2065 C2079 0.929 . S
H2066 C2080 0.931 . S
H2067 C2082 0.930 . S
C2068 H2056 0.930 . S
C2068 C2069 1.399 . S
C2068 C2073 1.399 . S
C2069 C2068 1.399 . S
C2069 C2070 1.376 . S
C2070 H2057 0.930 . S
C2070 C2069 1.376 . S
C2070 C2071 1.388 . S
C2071 H2058 0.930 . S
C2071 C2070 1.388 . S
C2071 C2072 1.390 . S
C2072 C2071 1.390 . S
C2072 C2073 1.394 . S
C2072 C2078 1.465 1_455 S
C2073 C2068 1.399 . S
C2073 C2072 1.394 . S
C2073 C2074 1.516 1_455 S
C2074 C2073 1.516 1_655 S
C2074 C2075 1.502 . S
C2074 C2076 1.561 1_655 S
C2074 C2077 1.526 . S
C2075 H2059 0.959 . S
C2075 H2060 0.959 . S
C2075 H2061 0.961 . S
C2075 C2074 1.502 . S
C2076 H2062 0.960 . S
C2076 H2063 0.961 1_455 S
C2076 H2064 0.959 . S
C2076 C2074 1.561 1_455 S
C2077 C2074 1.526 . S
C2077 C2078 1.396 . S
C2077 C2082 1.390 . S
C2078 C2072 1.465 1_655 S
C2078 C2077 1.396 . S
C2078 C2079 1.399 . S
C2079 H2065 0.929 . S
C2079 C2078 1.399 . S
C2079 C2080 1.385 . S
C2080 H2066 0.931 . S
C2080 C2079 1.385 . S
C2080 C2081 1.389 . S
C2081 C2080 1.389 . S
C2081 C2082 1.387 . S
C2082 H2067 0.930 . S
C2082 C2077 1.390 . S
C2082 C2081 1.387 . S
H2083 C2095 0.930 . S
H2084 C2097 0.930 . S
H2085 C2098 0.930 . S
H2086 C2102 0.959 . S
H2087 C2102 0.959 . S
H2088 C2102 0.961 . S
H2089 C2103 0.960 . S
H2090 C2103 0.961 . S
H2091 C2103 0.959 . S
H2092 C2106 0.929 . S
H2093 C2107 0.931 . S
H2094 C2109 0.930 . S
C2095 H2083 0.930 . S
C2095 C2096 1.399 . S
C2095 C2100 1.399 . S
C2096 C2095 1.399 . S
C2096 C2097 1.376 . S
C2097 H2084 0.930 . S
C2097 C2096 1.376 . S
C2097 C2098 1.388 . S
C2098 H2085 0.930 . S
C2098 C2097 1.388 . S
C2098 C2099 1.390 . S
C2099 C2098 1.390 . S
C2099 C2100 1.394 . S
C2099 C2105 1.465 . S
C2100 C2095 1.399 . S
C2100 C2099 1.394 . S
C2100 C2101 1.516 . S
C2101 C2100 1.516 . S
C2101 C2102 1.502 . S
C2101 C2103 1.561 . S
C2101 C2104 1.526 . S
C2102 H2086 0.959 . S
C2102 H2087 0.959 . S
C2102 H2088 0.961 . S
C2102 C2101 1.502 . S
C2103 H2089 0.960 . S
C2103 H2090 0.961 . S
C2103 H2091 0.959 . S
C2103 C2101 1.561 . S
C2104 C2101 1.526 . S
C2104 C2105 1.396 . S
C2104 C2109 1.390 . S
C2105 C2099 1.465 . S
C2105 C2104 1.396 . S
C2105 C2106 1.399 . S
C2106 H2092 0.929 . S
C2106 C2105 1.399 . S
C2106 C2107 1.385 . S
C2107 H2093 0.931 . S
C2107 C2106 1.385 . S
C2107 C2108 1.389 . S
C2108 C2107 1.389 . S
C2108 C2109 1.387 . S
C2109 H2094 0.930 . S
C2109 C2104 1.390 . S
C2109 C2108 1.387 . S
H2110 C2122 0.930 . S
H2111 C2124 0.930 . S
H2112 C2125 0.930 . S
H2113 C2129 0.959 . S
H2114 C2129 0.959 . S
H2115 C2129 0.961 . S
H2116 C2130 0.960 . S
H2117 C2130 0.961 . S
H2118 C2130 0.959 . S
H2119 C2133 0.929 . S
H2120 C2134 0.931 . S
H2121 C2136 0.930 . S
C2122 H2110 0.930 . S
C2122 C2123 1.399 . S
C2122 C2127 1.399 . S
C2123 C2122 1.399 . S
C2123 C2124 1.376 . S
C2124 H2111 0.930 . S
C2124 C2123 1.376 . S
C2124 C2125 1.388 . S
C2125 H2112 0.930 . S
C2125 C2124 1.388 . S
C2125 C2126 1.390 . S
C2126 C2125 1.390 . S
C2126 C2127 1.394 . S
C2126 C2132 1.465 . S
C2127 C2122 1.399 . S
C2127 C2126 1.394 . S
C2127 C2128 1.516 . S
C2128 C2127 1.516 . S
C2128 C2129 1.502 . S
C2128 C2130 1.561 . S
C2128 C2131 1.526 . S
C2129 H2113 0.959 . S
C2129 H2114 0.959 . S
C2129 H2115 0.961 . S
C2129 C2128 1.502 . S
C2130 H2116 0.960 . S
C2130 H2117 0.961 . S
C2130 H2118 0.959 . S
C2130 C2128 1.561 . S
C2131 C2128 1.526 . S
C2131 C2132 1.396 . S
C2131 C2136 1.390 . S
C2132 C2126 1.465 . S
C2132 C2131 1.396 . S
C2132 C2133 1.399 . S
C2133 H2119 0.929 . S
C2133 C2132 1.399 . S
C2133 C2134 1.385 . S
C2134 H2120 0.931 . S
C2134 C2133 1.385 . S
C2134 C2135 1.389 . S
C2135 C2134 1.389 . S
C2135 C2136 1.387 . S
C2136 H2121 0.930 . S
C2136 C2131 1.390 . S
C2136 C2135 1.387 . S
H2137 C2149 0.930 . S
H2138 C2151 0.930 . S
H2139 C2152 0.930 . S
H2140 C2156 0.959 1_565 S
H2141 C2156 0.958 . S
H2142 C2156 0.961 . S
H2143 C2157 0.960 . S
H2144 C2157 0.961 . S
H2145 C2157 0.959 . S
H2146 C2160 0.929 . S
H2147 C2161 0.931 . S
H2148 C2163 0.930 . S
C2149 H2137 0.930 . S
C2149 C2150 1.399 . S
C2149 C2154 1.399 . S
C2150 C2149 1.399 . S
C2150 C2151 1.376 . S
C2151 H2138 0.930 . S
C2151 C2150 1.376 . S
C2151 C2152 1.388 . S
C2152 H2139 0.930 . S
C2152 C2151 1.388 . S
C2152 C2153 1.390 . S
C2153 C2152 1.390 . S
C2153 C2154 1.394 . S
C2153 C2159 1.465 1_545 S
C2154 C2149 1.399 . S
C2154 C2153 1.394 . S
C2154 C2155 1.516 . S
C2155 C2154 1.516 . S
C2155 C2156 1.502 . S
C2155 C2157 1.561 . S
C2155 C2158 1.526 1_545 S
C2156 H2140 0.959 1_545 S
C2156 H2141 0.958 . S
C2156 H2142 0.961 . S
C2156 C2155 1.502 . S
C2157 H2143 0.960 . S
C2157 H2144 0.961 . S
C2157 H2145 0.959 . S
C2157 C2155 1.561 . S
C2158 C2155 1.526 1_565 S
C2158 C2159 1.396 . S
C2158 C2163 1.390 . S
C2159 C2153 1.465 1_565 S
C2159 C2158 1.396 . S
C2159 C2160 1.399 . S
C2160 H2146 0.929 . S
C2160 C2159 1.399 . S
C2160 C2161 1.385 . S
C2161 H2147 0.931 . S
C2161 C2160 1.385 . S
C2161 C2162 1.389 . S
C2162 C2161 1.389 . S
C2162 C2163 1.387 . S
C2163 H2148 0.930 . S
C2163 C2158 1.390 . S
C2163 C2162 1.387 . S
H2164 C2176 0.930 . S
H2165 C2178 0.930 . S
H2166 C2179 0.930 . S
H2167 C2183 0.959 . S
H2168 C2183 0.959 . S
H2169 C2183 0.961 . S
H2170 C2184 0.960 . S
H2171 C2184 0.961 . S
H2172 C2184 0.959 . S
H2173 C2187 0.929 . S
H2174 C2188 0.931 . S
H2175 C2190 0.930 . S
C2176 H2164 0.930 . S
C2176 C2177 1.399 . S
C2176 C2181 1.399 . S
C2177 C2176 1.399 . S
C2177 C2178 1.376 . S
C2178 H2165 0.930 . S
C2178 C2177 1.376 . S
C2178 C2179 1.388 . S
C2179 H2166 0.930 . S
C2179 C2178 1.388 . S
C2179 C2180 1.390 . S
C2180 C2179 1.390 . S
C2180 C2181 1.394 . S
C2180 C2186 1.465 . S
C2181 C2176 1.399 . S
C2181 C2180 1.394 . S
C2181 C2182 1.516 . S
C2182 C2181 1.516 . S
C2182 C2183 1.502 . S
C2182 C2184 1.561 . S
C2182 C2185 1.526 . S
C2183 H2167 0.959 . S
C2183 H2168 0.959 . S
C2183 H2169 0.961 . S
C2183 C2182 1.502 . S
C2184 H2170 0.960 . S
C2184 H2171 0.961 . S
C2184 H2172 0.959 . S
C2184 C2182 1.561 . S
C2185 C2182 1.526 . S
C2185 C2186 1.396 . S
C2185 C2190 1.390 . S
C2186 C2180 1.465 . S
C2186 C2185 1.396 . S
C2186 C2187 1.399 . S
C2187 H2173 0.929 . S
C2187 C2186 1.399 . S
C2187 C2188 1.385 . S
C2188 H2174 0.931 . S
C2188 C2187 1.385 . S
C2188 C2189 1.389 . S
C2189 C2188 1.389 . S
C2189 C2190 1.387 . S
C2190 H2175 0.930 . S
C2190 C2185 1.390 . S
C2190 C2189 1.387 . S
H2191 C2203 0.930 . S
H2192 C2205 0.930 . S
H2193 C2206 0.930 . S
H2194 C2210 0.959 . S
H2195 C2210 0.959 . S
H2196 C2210 0.961 . S
H2197 C2211 0.960 . S
H2198 C2211 0.961 . S
H2199 C2211 0.959 . S
H2200 C2214 0.929 . S
H2201 C2215 0.931 . S
H2202 C2217 0.930 . S
C2203 H2191 0.930 . S
C2203 C2204 1.399 . S
C2203 C2208 1.399 . S
C2204 C2203 1.399 . S
C2204 C2205 1.376 . S
C2205 H2192 0.930 . S
C2205 C2204 1.376 . S
C2205 C2206 1.388 . S
C2206 H2193 0.930 . S
C2206 C2205 1.388 . S
C2206 C2207 1.390 . S
C2207 C2206 1.390 . S
C2207 C2208 1.394 . S
C2207 C2213 1.465 . S
C2208 C2203 1.399 . S
C2208 C2207 1.394 . S
C2208 C2209 1.516 . S
C2209 C2208 1.516 . S
C2209 C2210 1.502 . S
C2209 C2211 1.561 . S
C2209 C2212 1.526 . S
C2210 H2194 0.959 . S
C2210 H2195 0.959 . S
C2210 H2196 0.961 . S
C2210 C2209 1.502 . S
C2211 H2197 0.960 . S
C2211 H2198 0.961 . S
C2211 H2199 0.959 . S
C2211 C2209 1.561 . S
C2212 C2209 1.526 . S
C2212 C2213 1.396 . S
C2212 C2217 1.390 . S
C2213 C2207 1.465 . S
C2213 C2212 1.396 . S
C2213 C2214 1.399 . S
C2214 H2200 0.929 . S
C2214 C2213 1.399 . S
C2214 C2215 1.385 . S
C2215 H2201 0.931 . S
C2215 C2214 1.385 . S
C2215 C2216 1.389 . S
C2216 C2215 1.389 . S
C2216 C2217 1.387 . S
C2217 H2202 0.930 . S
C2217 C2212 1.390 . S
C2217 C2216 1.387 . S
H2218 C2230 0.930 . S
H2219 C2232 0.930 . S
H2220 C2233 0.930 1_565 S
H2221 C2237 0.959 . S
H2222 C2237 0.959 . S
H2223 C2237 0.961 . S
H2224 C2238 0.960 . S
H2225 C2238 0.961 . S
H2226 C2238 0.959 . S
H2227 C2241 0.929 . S
H2228 C2242 0.931 . S
H2229 C2244 0.930 . S
C2230 H2218 0.930 . S
C2230 C2231 1.399 . S
C2230 C2235 1.399 . S
C2231 C2230 1.399 . S
C2231 C2232 1.376 . S
C2232 H2219 0.930 . S
C2232 C2231 1.376 . S
C2232 C2233 1.388 . S
C2233 H2220 0.930 1_545 S
C2233 C2232 1.388 . S
C2233 C2234 1.390 . S
C2234 C2233 1.390 . S
C2234 C2235 1.394 . S
C2234 C2240 1.465 1_545 S
C2235 C2230 1.399 . S
C2235 C2234 1.394 . S
C2235 C2236 1.516 . S
C2236 C2235 1.516 . S
C2236 C2237 1.502 . S
C2236 C2238 1.561 . S
C2236 C2239 1.526 1_545 S
C2237 H2221 0.959 . S
C2237 H2222 0.959 . S
C2237 H2223 0.961 . S
C2237 C2236 1.502 . S
C2238 H2224 0.960 . S
C2238 H2225 0.961 . S
C2238 H2226 0.959 . S
C2238 C2236 1.561 . S
C2239 C2236 1.526 1_565 S
C2239 C2240 1.396 . S
C2239 C2244 1.390 . S
C2240 C2234 1.465 1_565 S
C2240 C2239 1.396 . S
C2240 C2241 1.399 . S
C2241 H2227 0.929 . S
C2241 C2240 1.399 . S
C2241 C2242 1.385 . S
C2242 H2228 0.931 . S
C2242 C2241 1.385 . S
C2242 C2243 1.389 . S
C2243 C2242 1.389 . S
C2243 C2244 1.387 . S
C2244 H2229 0.930 . S
C2244 C2239 1.390 . S
C2244 C2243 1.387 . S
H2245 C2257 0.930 . S
H2246 C2259 0.930 . S
H2247 C2260 0.930 . S
H2248 C2264 0.959 . S
H2249 C2264 0.959 . S
H2250 C2264 0.961 . S
H2251 C2265 0.960 . S
H2252 C2265 0.961 . S
H2253 C2265 0.959 . S
H2254 C2268 0.929 . S
H2255 C2269 0.931 . S
H2256 C2271 0.930 . S
C2257 H2245 0.930 . S
C2257 C2258 1.399 . S
C2257 C2262 1.399 . S
C2258 C2257 1.399 . S
C2258 C2259 1.376 . S
C2259 H2246 0.930 . S
C2259 C2258 1.376 . S
C2259 C2260 1.388 . S
C2260 H2247 0.930 . S
C2260 C2259 1.388 . S
C2260 C2261 1.390 . S
C2261 C2260 1.390 . S
C2261 C2262 1.394 . S
C2261 C2267 1.465 . S
C2262 C2257 1.399 . S
C2262 C2261 1.394 . S
C2262 C2263 1.516 . S
C2263 C2262 1.516 . S
C2263 C2264 1.502 . S
C2263 C2265 1.561 . S
C2263 C2266 1.526 . S
C2264 H2248 0.959 . S
C2264 H2249 0.959 . S
C2264 H2250 0.961 . S
C2264 C2263 1.502 . S
C2265 H2251 0.960 . S
C2265 H2252 0.961 . S
C2265 H2253 0.959 . S
C2265 C2263 1.561 . S
C2266 C2263 1.526 . S
C2266 C2267 1.396 . S
C2266 C2271 1.390 . S
C2267 C2261 1.465 . S
C2267 C2266 1.396 . S
C2267 C2268 1.399 . S
C2268 H2254 0.929 . S
C2268 C2267 1.399 . S
C2268 C2269 1.385 . S
C2269 H2255 0.931 . S
C2269 C2268 1.385 . S
C2269 C2270 1.389 . S
C2270 C2269 1.389 . S
C2270 C2271 1.387 . S
C2271 H2256 0.930 . S
C2271 C2266 1.390 . S
C2271 C2270 1.387 . S
C1421 C29 0.668 . S
C1433 C1201 0.669 . S
C1448 C108 0.666 . S
C1460 C821 0.660 . S
C1475 C1252 0.647 . S
C1487 C225 0.654 . S
C1502 C321 0.654 . S
C1514 C1349 0.646 . S
C1529 C372 0.661 . S
C1541 C557 0.656 . S
C1556 C909 0.668 . S
C1568 C489 0.669 . S
C1583 C1017 0.652 . S
C1595 C636 0.643 . S
C1610 C733 0.653 . S
C1622 C1113 0.654 . S
C1637 C196 1.700 . S
C1649 C57 1.737 . S
C1664 C137 1.739 . S
C1676 C293 1.711 . S
C1691 C1076 1.723 . S
C1703 C49 1.740 . S
C1718 C145 1.736 . S
C1730 C997 1.717 . S
C1745 C409 1.742 . S
C1757 C205 1.722 . S
C1772 C929 1.741 . S
C1784 C284 1.713 . S
C1799 C117 1.739 . S
C1811 C20 1.713 . S
C1826 C313 1.701 . S
C1838 C233 1.678 . S
C1853 C900 1.709 . S
C1865 C381 1.742 . S
C1880 C645 1.720 . S
C1892 C469 1.694 . S
C1907 C577 1.732 . S
C1919 C724 1.706 . S
C1934 C1369 1.704 . S
C1946 C460 1.714 . S
C1961 C585 1.688 . S
C1973 C1289 1.730 . S
C1988 C849 1.693 . S
C2000 C673 1.722 . S
C2015 C753 1.704 . S
C2027 C1173 1.715 . S
C2042 C548 1.744 . S
C2054 C497 1.734 . S
C2069 C761 1.710 . S
C2081 C665 1.736 . S
C2096 C812 1.748 . S
C2108 C1193 1.726 . S
C2123 C937 1.700 . S
C2135 C988 1.737 . S
C2150 C1085 1.730 . S
C2162 C401 1.721 . S
C2177 C1105 1.706 . S
C2189 C1025 1.673 . S
C2204 C1261 1.708 . S
C2216 C1164 1.731 . S
C2231 C841 1.722 . S
C2243 C1340 1.694 . S
C2258 C1377 1.753 . S
C2270 C1281 1.723 . S
