# Generated by pormake.
# Topology smm, (6)-cn, num edge types: 1
# Building blocks:
#     Node 0, Type 0, BuildingBlock: KUMJIN_clean_sbu_1, # of connection points: 6
#     Node 1, Type 0, BuildingBlock: KUMJIN_clean_sbu_1, # of connection points: 6
#     Node 2, Type 0, BuildingBlock: KUMJIN_clean_sbu_1, # of connection points: 6
#     Node 3, Type 0, BuildingBlock: KUMJIN_clean_sbu_1, # of connection points: 6
#     Node 4, Type 0, BuildingBlock: KUMJIN_clean_sbu_1, # of connection points: 6
#     Node 5, Type 0, BuildingBlock: KUMJIN_clean_sbu_1, # of connection points: 6
#     Node 6, Type 0, BuildingBlock: KUMJIN_clean_sbu_1, # of connection points: 6
#     Node 7, Type 0, BuildingBlock: KUMJIN_clean_sbu_1, # of connection points: 6
#     Node 8, Type 0, BuildingBlock: KUMJIN_clean_sbu_1, # of connection points: 6
#     Edge 9, Type (0, 0), BuildingBlock: UVAHIK_clean_linker_0, # of connection points: 2
#     Edge 10, Type (0, 0), BuildingBlock: UVAHIK_clean_linker_0, # of connection points: 2
#     Edge 11, Type (0, 0), BuildingBlock: UVAHIK_clean_linker_0, # of connection points: 2
#     Edge 12, Type (0, 0), BuildingBlock: UVAHIK_clean_linker_0, # of connection points: 2
#     Edge 13, Type (0, 0), BuildingBlock: UVAHIK_clean_linker_0, # of connection points: 2
#     Edge 14, Type (0, 0), BuildingBlock: UVAHIK_clean_linker_0, # of connection points: 2
#     Edge 15, Type (0, 0), BuildingBlock: UVAHIK_clean_linker_0, # of connection points: 2
#     Edge 16, Type (0, 0), BuildingBlock: UVAHIK_clean_linker_0, # of connection points: 2
#     Edge 17, Type (0, 0), BuildingBlock: UVAHIK_clean_linker_0, # of connection points: 2
#     Edge 18, Type (0, 0), BuildingBlock: UVAHIK_clean_linker_0, # of connection points: 2
#     Edge 19, Type (0, 0), BuildingBlock: UVAHIK_clean_linker_0, # of connection points: 2
#     Edge 20, Type (0, 0), BuildingBlock: UVAHIK_clean_linker_0, # of connection points: 2
#     Edge 21, Type (0, 0), BuildingBlock: UVAHIK_clean_linker_0, # of connection points: 2
#     Edge 22, Type (0, 0), BuildingBlock: UVAHIK_clean_linker_0, # of connection points: 2
#     Edge 23, Type (0, 0), BuildingBlock: UVAHIK_clean_linker_0, # of connection points: 2
#     Edge 24, Type (0, 0), BuildingBlock: UVAHIK_clean_linker_0, # of connection points: 2
#     Edge 25, Type (0, 0), BuildingBlock: UVAHIK_clean_linker_0, # of connection points: 2
#     Edge 26, Type (0, 0), BuildingBlock: UVAHIK_clean_linker_0, # of connection points: 2
#     Edge 27, Type (0, 0), BuildingBlock: UVAHIK_clean_linker_0, # of connection points: 2
#     Edge 28, Type (0, 0), BuildingBlock: UVAHIK_clean_linker_0, # of connection points: 2
#     Edge 29, Type (0, 0), BuildingBlock: UVAHIK_clean_linker_0, # of connection points: 2
#     Edge 30, Type (0, 0), BuildingBlock: UVAHIK_clean_linker_0, # of connection points: 2
#     Edge 31, Type (0, 0), BuildingBlock: UVAHIK_clean_linker_0, # of connection points: 2
#     Edge 32, Type (0, 0), BuildingBlock: UVAHIK_clean_linker_0, # of connection points: 2
#     Edge 33, Type (0, 0), BuildingBlock: UVAHIK_clean_linker_0, # of connection points: 2
#     Edge 34, Type (0, 0), BuildingBlock: UVAHIK_clean_linker_0, # of connection points: 2
#     Edge 35, Type (0, 0), BuildingBlock: UVAHIK_clean_linker_0, # of connection points: 2
# Relax obj value: 0.094
# Max RMSD: 0.214
# Mean RMSD: 0.166
data_MOF--net-smm--node1-KUMJIN_clean_sbu_1--edge1-UVAHIK_clean_linker_0
_symmetry_space_group_name_H-M    P1
_symmetry_Int_Tables_number       1
_symmetry_cell_setting            triclinic
loop_
_symmetry_equiv_pos_as_xyz
'x, y, z'
_cell_length_a     74.154412
_cell_length_b     89.770126
_cell_length_c     19.44107
_cell_angle_alpha  96.447743
_cell_angle_beta   96.3289
_cell_angle_gamma 121.29475
loop_
_atom_site_label
_atom_site_type_symbol
_atom_site_fract_x
_atom_site_fract_y
_atom_site_fract_z
_atom_type_partial_charge
Eu0 Eu 1.02148 0.17696 0.09945 0.0
C1 C 0.11885 0.21964 0.14383 0.0
N2 N 0.10662 0.22155 0.18687 0.0
C3 C 0.12839 0.2216 0.28759 0.0
C4 C 0.13589 0.21785 0.17102 0.0
C5 C 0.11149 0.22314 0.25811 0.0
C6 C 0.1405 0.21875 0.24378 0.0
C7 C 0.12665 0.21755 0.02654 0.0
C8 C 0.11416 0.21942 0.0724 0.0
C9 C 0.14317 0.21512 0.05291 0.0
C10 C 0.14781 0.21531 0.12498 0.0
Eu11 Eu 0.07842 0.22396 0.13325 0.0
N12 N 0.09813 0.22189 0.04846 0.0
C13 C 0.12261 0.21874 0.95599 0.0
C14 C 0.09558 0.22472 0.98156 0.0
C15 C 0.1073 0.2227 0.93379 0.0
H16 H 0.10213 0.22537 0.29188 0.0
H17 H 0.10481 0.22455 0.88029 0.0
H18 H 1.00335 0.16703 0.92181 0.0
H19 H 0.97842 0.17759 0.30803 0.0
H20 H 0.08501 0.22907 0.96525 0.0
H21 H 0.13184 0.21737 0.91908 0.0
H22 H 1.00651 0.17612 0.25519 0.0
H23 H 0.13203 0.22256 0.34398 0.0
H24 H 0.15278 0.2135 0.01829 0.0
H25 H 0.16083 0.21372 0.14473 0.0
H26 H 0.97608 0.1673 0.83834 0.0
H27 H 0.1535 0.21746 0.26672 0.0
H28 H 0.95072 0.1796 0.23361 0.0
N29 N 0.99464 0.17493 0.01332 0.0
C30 C 0.97942 0.17682 0.03877 0.0
C31 C 0.97708 0.17033 0.89464 0.0
C32 C 0.96296 0.17638 0.99282 0.0
C33 C 0.99289 0.17062 0.94224 0.0
C34 C 0.9623 0.17356 0.92006 0.0
N35 N 0.99506 0.17784 0.15328 0.0
C36 C 0.99452 0.1771 0.22278 0.0
C37 C 0.96311 0.17886 0.13827 0.0
C38 C 0.97941 0.17801 0.1106 0.0
C39 C 0.96299 0.17897 0.21036 0.0
C40 C 0.97861 0.17785 0.25259 0.0
H41 H 0.94991 0.17312 0.88301 0.0
H42 H 0.93462 0.17793 0.98611 0.0
H43 H 0.93479 0.18015 0.1135 0.0
O44 O 1.02035 0.15521 0.14424 0.0
O45 O 1.02399 0.20222 0.15221 0.0
O46 O 0.04779 0.22348 0.09781 0.0
O47 O 0.9953 0.1494 0.05814 0.0
O48 O 0.04254 0.18627 0.20875 0.0
O49 O 0.0635 0.21723 0.22979 0.0
O50 O 0.10283 0.25032 0.1183 0.0
O51 O 0.07636 0.19826 0.14918 0.0
O52 O 0.04957 0.17873 0.05704 0.0
O53 O 0.09004 0.24772 0.21361 0.0
O54 O 0.05568 0.21613 0.02831 0.0
O55 O 0.03702 0.18545 0.0048 0.0
C56 C 0.03095 0.21699 0.12807 0.0
C57 C 1.00756 0.13001 0.05541 0.0
C58 C 1.00819 0.10294 0.04219 0.0
C59 C 1.01602 0.10662 0.97949 0.0
C60 C 1.01522 0.13333 0.99235 0.0
C61 C 1.01942 0.12168 0.95474 0.0
C62 C 1.00393 0.11474 0.08006 0.0
C63 C 0.05339 0.20202 0.2515 0.0
C64 C 1.00409 0.14288 0.0958 0.0
C65 C 0.94725 0.17806 0.02058 0.0
C66 C 0.94731 0.17928 0.09311 0.0
C67 C 0.06753 0.18388 0.09981 0.0
C68 C 0.09867 0.27334 0.16585 0.0
C69 C 0.11156 0.30197 0.13043 0.0
C70 C 0.09197 0.30029 0.13773 0.0
C71 C 0.07926 0.272 0.17316 0.0
C72 C 0.11484 0.28844 0.14509 0.0
C73 C 0.076 0.28544 0.1593 0.0
C74 C 0.04456 0.20069 0.98384 0.0
C75 C 0.10176 0.25867 0.17522 0.0
H76 H 1.01921 0.09769 0.94891 0.0
H77 H 1.01815 0.14503 0.97244 0.0
H78 H 0.02539 0.12437 0.90635 0.0
H79 H 0.99812 0.1122 0.12888 0.0
H80 H 0.08907 0.31055 0.12729 0.0
H81 H 0.06653 0.26049 0.18884 0.0
H82 H 0.1297 0.28939 0.13838 0.0
H83 H 0.06098 0.28428 0.16483 0.0
Eu84 Eu 0.90672 0.84859 0.05709 0.0
C85 C 0.94692 0.80398 0.95174 0.0
N86 N 0.92645 0.79976 0.9302 0.0
C87 C 0.92712 0.79043 0.81066 0.0
C88 C 0.95844 0.80178 0.90277 0.0
C89 C 0.91632 0.7928 0.86118 0.0
C90 C 0.9483 0.795 0.83147 0.0
C91 C 0.97776 0.81542 0.04677 0.0
C92 C 0.95648 0.81074 0.02297 0.0
C93 C 0.98928 0.81324 -0.00189 0.0
C94 C 0.97966 0.80646 0.92635 0.0
Eu95 Eu 0.90984 0.80477 0.01859 0.0
N96 N 0.9452 0.81332 0.06854 0.0
C97 C 0.98686 0.82225 0.11878 0.0
C98 C 0.95371 0.81937 0.13907 0.0
C99 C 0.97472 0.82409 0.16515 0.0
H100 H 0.89976 0.78877 0.84545 0.0
H101 H 0.98152 0.8291 0.22105 0.0
H102 H 0.89531 0.84827 0.21886 0.0
H103 H 0.85836 0.84041 0.80374 0.0
H104 H 0.94437 0.82052 0.17545 0.0
H105 H 1.00317 0.82599 0.13916 0.0
H106 H 0.89112 0.84791 0.88342 0.0
H107 H 0.91906 0.78498 0.75583 0.0
H108 H 1.00566 0.8168 0.01543 0.0
H109 H 0.98877 0.80488 0.88947 0.0
H110 H 0.86514 0.84405 0.2756 0.0
H111 H 0.95663 0.79314 0.79222 0.0
H112 H 0.82575 0.8333 0.85073 0.0
N113 N 0.8787 0.84416 0.11555 0.0
C114 C 0.86064 0.84125 0.07457 0.0
C115 C 0.86364 0.84315 0.21905 0.0
C116 C 0.84308 0.83884 0.10478 0.0
C117 C 0.8806 0.84539 0.18687 0.0
C118 C 0.84478 0.83983 0.17785 0.0
N119 N 0.87659 0.84242 0.97374 0.0
C120 C 0.87672 0.84356 0.90429 0.0
C121 C 0.84052 0.83649 0.95825 0.0
C122 C 0.8594 0.84001 0.0018 0.0
C123 C 0.83996 0.836 0.88588 0.0
C124 C 0.85827 0.83987 0.85905 0.0
H125 H 0.83162 0.838 0.20293 0.0
H126 H 0.81055 0.83309 0.08343 0.0
H127 H 0.80831 0.83103 0.95535 0.0
O128 O 0.92058 0.87405 0.02182 0.0
O129 O 0.87921 0.82134 0.06874 0.0
O130 O 0.87743 0.80137 0.98013 0.0
O131 O 0.91415 0.87263 0.12692 0.0
O132 O 0.9145 0.84189 0.95226 0.0
O133 O 0.89547 0.81119 0.92658 0.0
O134 O 0.9 0.78473 0.08498 0.0
O135 O 0.94028 0.8316 0.01353 0.0
O136 O 0.94009 0.85332 0.08863 0.0
O137 O 0.89569 0.77658 0.9731 0.0
O138 O 0.90589 0.81326 0.12797 0.0
O139 O 0.92239 0.8439 0.15119 0.0
C140 C 0.86786 0.80718 0.01794 0.0
C141 C 0.94341 0.89953 0.11173 0.0
C142 C 0.96635 0.93193 0.13193 0.0
C143 C 0.98296 0.93116 0.17059 0.0
C144 C 0.96 0.89912 0.15169 0.0
C145 C 0.97975 0.91484 0.18029 0.0
C146 C 0.94658 0.91594 0.10205 0.0
C147 C 0.90555 0.82665 0.90712 0.0
C148 C 0.92248 0.88298 0.08269 0.0
C149 C 0.82426 0.83513 0.06121 0.0
C150 C 0.82295 0.83388 0.9882 0.0
C151 C 0.95007 0.84799 0.05062 0.0
C152 C 0.87087 0.75555 0.03255 0.0
C153 C 0.84775 0.72495 0.05075 0.0
C154 C 0.82988 0.72658 0.03666 0.0
C155 C 0.85268 0.75664 0.01895 0.0
C156 C 0.86835 0.73957 0.0479 0.0
C157 C 0.83235 0.74224 0.02078 0.0
C158 C 0.91497 0.82866 0.17207 0.0
C159 C 0.89241 0.77128 0.03272 0.0
H160 H 0.99826 0.94321 0.19494 0.0
H161 H 0.95745 0.88663 0.16167 0.0
H162 H 0.9925 0.9144 0.21103 0.0
H163 H 0.93365 0.91622 0.07154 0.0
H164 H 0.81385 0.71561 0.03737 0.0
H165 H 0.8542 0.7687 0.0072 0.0
H166 H 0.88236 0.73867 0.05905 0.0
H167 H 0.81842 0.74324 0.01008 0.0
Eu168 Eu 0.20174 0.03338 0.03475 0.0
C169 C 0.17658 0.95706 0.04662 0.0
N170 N 0.19295 0.97305 0.08598 0.0
C171 C 0.18449 0.96198 0.1923 0.0
C172 C 0.16271 0.94326 0.0793 0.0
C173 C 0.19793 0.97514 0.15748 0.0
C174 C 0.16653 0.9461 0.15311 0.0
C175 C 0.15732 0.93773 0.93131 0.0
C176 C 0.17398 0.95421 0.97327 0.0
C177 C 0.1432 0.92418 0.96384 0.0
C178 C 0.14586 0.92695 0.03756 0.0
Eu179 Eu 0.21437 0.99431 0.02076 0.0
N180 N 0.18738 0.96776 0.94282 0.0
C181 C 0.15513 0.93546 0.85775 0.0
C182 C 0.18559 0.96556 0.87129 0.0
C183 C 0.16938 0.94941 0.82767 0.0
H184 H 0.21265 0.98663 0.18783 0.0
H185 H 0.1679 0.94772 0.7709 0.0
H186 H 0.21835 0.04388 0.88093 0.0
H187 H 0.23228 0.0747 0.29908 0.0
H188 H 0.19677 0.97624 0.84806 0.0
H189 H 0.1425 0.923 0.82374 0.0
H190 H 0.20804 0.04749 0.20783 0.0
H191 H 0.18827 0.96393 0.24924 0.0
H192 H 0.13019 0.91148 0.93243 0.0
H193 H 0.13498 0.91628 0.06185 0.0
H194 H 0.2478 0.06862 0.84135 0.0
H195 H 0.15625 0.93584 0.1802 0.0
H196 H 0.26183 0.10139 0.26682 0.0
N197 N 0.22923 0.05637 0.98935 0.0
C198 C 0.24276 0.072 0.03653 0.0
C199 C 0.24682 0.06963 0.89665 0.0
C200 C 0.25948 0.08683 0.01563 0.0
C201 C 0.23043 0.05533 0.91965 0.0
C202 C 0.26158 0.08537 0.94497 0.0
N203 N 0.22415 0.05855 0.12566 0.0
C204 C 0.22114 0.05897 0.19361 0.0
C205 C 0.25417 0.08898 0.15663 0.0
C206 C 0.24005 0.07315 0.10634 0.0
C207 C 0.2513 0.08947 0.22666 0.0
C208 C 0.2347 0.07441 0.24517 0.0
H209 H 0.27421 0.09646 0.92687 0.0
H210 H 0.28646 0.1141 0.05045 0.0
H211 H 0.28188 0.11596 0.17379 0.0
O212 O 0.18471 0.04533 0.07608 0.0
O213 O 0.23637 0.04087 0.07546 0.0
O214 O 0.24067 0.02132 0.00351 0.0
O215 O 0.18112 0.03828 0.9639 0.0
O216 O 0.19582 0.01849 0.1239 0.0
O217 O 0.2217 1.01132 0.12925 0.0
O218 O 0.2274 0.98035 0.96667 0.0
O219 O 0.17975 0.98693 0.98123 0.0
O220 O 0.17483 1.00638 0.05143 0.0
O221 O 0.23887 0.99106 0.07812 0.0
O222 O 0.21931 1.00866 0.93036 0.0
O223 O 0.19414 0.01659 0.9257 0.0
C224 C 0.2486 0.03711 0.04287 0.0
C225 C 0.18062 0.0639 0.00717 0.0
C226 C 0.17068 0.08602 0.02361 0.0
C227 C 0.18894 0.09792 -0.00139 0.0
C228 C 0.19839 0.07596 0.98047 0.0
C229 C 0.20259 0.09286 0.9768 0.0
C230 C 0.16653 0.06893 0.02798 0.0
C231 C 0.2092 0.01531 0.15932 0.0
C232 C 0.17716 0.04635 0.01445 0.0
C233 C 0.2735 0.10262 0.0656 0.0
C234 C 0.27086 0.1037 0.13584 0.0
C235 C 0.16765 0.99021 0.0168 0.0
C236 C 0.26353 0.99054 0.01107 0.0
C237 C 0.29046 0.98586 0.96877 0.0
C238 C 0.30483 1.00438 0.98049 0.0
C239 C 0.27836 1.00898 0.02373 0.0
C240 C 0.26975 0.97896 0.9844 0.0
C241 C 0.29885 0.01584 0.00834 0.0
C242 C 0.20555 1.01143 0.89493 0.0
C243 C 0.24129 0.98341 0.02191 0.0
H244 H 0.19241 0.11107 -0.00527 0.0
H245 H 0.20903 0.07235 0.96198 0.0
H246 H 0.21645 0.10204 0.95657 0.0
H247 H 0.15258 0.05972 0.04786 0.0
H248 H 0.32083 1.00999 0.969 0.0
H249 H 0.27404 0.01808 0.04517 0.0
H250 H 0.25842 0.96469 0.97453 0.0
H251 H 0.31012 0.03009 0.01785 0.0
Eu252 Eu 0.77089 0.50924 0.1504 0.0
C253 C 0.67415 0.47859 0.12065 0.0
N254 N 0.68996 0.48876 0.08601 0.0
C255 C 0.66834 0.46869 0.97612 0.0
C256 C 0.65523 0.46257 0.08431 0.0
C257 C 0.68682 0.48443 0.01426 0.0
C258 C 0.65261 0.45759 0.01136 0.0
C259 C 0.66124 0.47352 0.2307 0.0
C260 C 0.67702 0.48404 0.19314 0.0
C261 C 0.6425 0.45753 0.19458 0.0
C262 C 0.63951 0.45208 0.12165 0.0
Eu263 Eu 0.72053 0.51504 0.15734 0.0
N264 N 0.69562 0.49927 0.22738 0.0
C265 C 0.66491 0.47927 0.30375 0.0
C266 C 0.69911 0.50513 0.29818 0.0
C267 C 0.68389 0.49519 0.33757 0.0
H268 H 0.69808 0.49318 0.98533 0.0
H269 H 0.68678 0.49985 0.39387 0.0
H270 H 0.79179 0.52519 0.32748 0.0
H271 H 0.80929 0.53289 0.92885 0.0
H272 H 0.71347 0.51766 0.32395 0.0
H273 H 0.65318 0.47156 0.33446 0.0
H274 H 0.78125 0.51204 0.98814 0.0
H275 H 0.66611 0.46524 0.91934 0.0
H276 H 0.63025 0.44925 0.22261 0.0
H277 H 0.62495 0.43971 0.09455 0.0
H278 H 0.82231 0.55212 0.40519 0.0
H279 H 0.6383 0.4454 0.98158 0.0
H280 H 0.84141 0.5607 -0.00037 0.0
N281 N 0.80011 0.53428 0.23224 0.0
C282 C 0.81619 0.54644 0.20331 0.0
C283 C 0.82054 0.55089 0.34845 0.0
C284 C 0.83453 0.56181 0.24625 0.0
C285 C 0.80277 0.53579 0.30386 0.0
C286 C 0.83629 0.56412 0.31955 0.0
N287 N 0.79708 0.52818 0.09026 0.0
C288 C 0.79507 0.52427 0.01898 0.0
C289 C 0.83124 0.55539 0.09914 0.0
C290 C 0.81479 0.54318 0.13053 0.0
C291 C 0.82912 0.55164 0.02572 0.0
C292 C 0.81099 0.53598 0.98553 0.0
H293 H 0.85015 0.57572 0.35432 0.0
H294 H 0.86492 0.58604 0.24725 0.0
H295 H 0.86192 0.58051 0.11851 0.0
O296 O 0.78341 0.49481 0.09668 0.0
O297 O 0.77413 0.5347 0.12284 0.0
O298 O 0.75448 0.53923 0.19507 0.0
O299 O 0.78344 0.49582 0.20771 0.0
O300 O 0.74637 0.49864 0.04867 0.0
O301 O 0.733 0.51689 0.05429 0.0
O302 O 0.70848 0.53061 0.20633 0.0
O303 O 0.71641 0.48906 0.17962 0.0
O304 O 0.73715 0.48437 0.11175 0.0
O305 O 0.70766 0.52706 0.09254 0.0
O306 O 0.74556 0.52571 0.2579 0.0
O307 O 0.75703 0.50624 0.25073 0.0
C308 C 0.769 0.54524 0.15543 0.0
C309 C 0.81062 0.49336 0.16499 0.0
C310 C 0.83341 0.48113 0.17215 0.0
C311 C 0.85168 0.4985 0.18318 0.0
C312 C 0.82909 0.51053 0.17659 0.0
C313 C 0.84949 0.51307 0.18562 0.0
C314 C 0.81283 0.47867 0.1634 0.0
C315 C 0.73946 0.50768 0.01883 0.0
C316 C 0.78903 0.4906 0.15339 0.0
C317 C 0.85081 0.57412 0.21502 0.0
C318 C 0.84916 0.57093 0.14171 0.0
C319 C 0.72081 0.47833 0.14449 0.0
C320 C 0.69333 0.5443 0.13858 0.0
C321 C 0.68327 0.56449 0.1903 0.0
C322 C 0.67309 0.56316 0.12222 0.0
C323 C 0.68335 0.54348 0.07137 0.0
C324 C 0.69331 0.55487 0.19794 0.0
C325 C 0.67327 0.55282 0.06343 0.0
C326 C 0.75161 0.5161 0.28727 0.0
C327 C 0.70324 0.53379 0.14617 0.0
H328 H 0.86771 0.50084 0.19082 0.0
H329 H 0.82778 0.52197 0.17855 0.0
H330 H 0.86366 0.52639 0.19451 0.0
H331 H 0.79858 0.46535 0.15416 0.0
H332 H 0.66469 0.56991 0.11422 0.0
H333 H 0.68306 0.53541 0.02491 0.0
H334 H 0.70134 0.55576 0.24969 0.0
H335 H 0.66538 0.55194 0.01148 0.0
Eu336 Eu 0.52063 0.20956 0.12326 0.0
C337 C 0.55998 0.16535 0.04159 0.0
N338 N 0.54024 0.16136 0.01026 0.0
C339 C 0.54695 0.1553 0.89603 0.0
C340 C 0.57423 0.16482 0.00049 0.0
C341 C 0.53342 0.15615 0.93883 0.0
C342 C 0.56747 0.15971 0.92693 0.0
C343 C 0.58701 0.1756 0.14824 0.0
C344 C 0.56631 0.17077 0.11489 0.0
C345 C 0.60121 0.17505 0.10735 0.0
C346 C 0.59485 0.16968 0.03376 0.0
Eu347 Eu 0.51875 0.16335 0.08645 0.0
N348 N 0.55253 0.17185 0.15321 0.0
C349 C 0.59291 0.18095 0.22181 0.0
C350 C 0.55779 0.17608 0.22516 0.0
C351 C 0.57813 0.18097 0.26043 0.0
H352 H 0.51745 0.15247 0.91495 0.0
H353 H 0.58232 0.18457 0.31751 0.0
H354 H 0.5308 0.22491 0.29736 0.0
H355 H 0.4526 0.19278 0.91834 0.0
H356 H 0.54629 0.1753 0.25596 0.0
H357 H 0.60868 0.1848 0.24935 0.0
H358 H 0.48798 0.19783 0.96497 0.0
H359 H 0.54154 0.15123 0.83927 0.0
H360 H 0.61722 0.17884 0.13213 0.0
H361 H 0.60606 0.16944 0.003 0.0
H362 H 0.51235 0.23016 0.38664 0.0
H363 H 0.57797 0.15915 0.89356 0.0
H364 H 0.43186 0.19746 -2e-05 0.0
N365 N 0.5049 0.2159 0.21173 0.0
C366 C 0.4854 0.21357 0.18961 0.0
C367 C 0.50451 0.22536 0.3315 0.0
C368 C 0.47445 0.21675 0.23838 0.0
C369 C 0.51478 0.2221 0.28114 0.0
C370 C 0.48419 0.22256 0.31011 0.0
N371 N 0.48699 0.20452 0.07227 0.0
C372 C 0.479 0.1996 0.00131 0.0
C373 C 0.45604 0.20532 0.0934 0.0
C374 C 0.4763 0.20795 0.11786 0.0
C375 C 0.44739 0.19962 0.02086 0.0
C376 C 0.459 0.1969 0.97462 0.0
H377 H 0.47629 0.22513 0.34922 0.0
H378 H 0.44555 0.21638 0.25091 0.0
H379 H 0.42943 0.20637 0.12409 0.0
O380 O 0.53452 0.23022 0.06014 0.0
O381 O 0.4878 0.18378 0.12167 0.0
O382 O 0.48621 0.15975 0.05544 0.0
O383 O 0.53705 0.23794 0.17095 0.0
O384 O 0.52206 0.19935 0.01262 0.0
O385 O 0.50395 0.16844 0.99084 0.0
O386 O 0.51164 0.14219 0.14506 0.0
O387 O 0.5468 0.18891 0.06623 0.0
O388 O 0.5512 0.20967 0.15666 0.0
O389 O 0.50317 0.13573 0.03101 0.0
O390 O 0.51146 0.17142 0.18963 0.0
O391 O 0.53322 0.20194 0.21512 0.0
C392 C 0.47697 0.16708 0.08641 0.0
C393 C 0.5656 0.25784 0.11935 0.0
C394 C 0.59404 0.28851 0.11648 0.0
C395 C 0.60927 0.2837 0.1268 0.0
C396 C 0.58133 0.25369 0.13009 0.0
C397 C 0.60295 0.26647 0.1338 0.0
C398 C 0.57204 0.27546 0.11336 0.0
C399 C 0.51198 0.1837 0.96934 0.0
C400 C 0.54266 0.24356 0.11336 0.0
C401 C 0.45422 0.21406 0.21417 0.0
C402 C 0.44505 0.20837 0.14192 0.0
C403 C 0.55931 0.20387 0.11203 0.0
C404 C 0.48233 0.11313 0.09383 0.0
C405 C 0.46472 0.08689 0.14739 0.0
C406 C 0.44506 0.08116 0.10307 0.0
C407 C 0.4625 0.10728 0.05061 0.0
C408 C 0.48328 0.10295 0.1424 0.0
C409 C 0.44399 0.09137 0.05538 0.0
C410 C 0.52134 0.18671 0.23453 0.0
C411 C 0.50236 0.12957 0.08895 0.0
H412 H 0.62623 0.29339 0.13025 0.0
H413 H 0.57683 0.24048 0.13546 0.0
H414 H 0.61488 0.26298 0.14202 0.0
H415 H 0.56005 0.27888 0.10506 0.0
H416 H 0.43049 0.06892 0.10606 0.0
H417 H 0.46132 0.11493 0.01306 0.0
H418 H 0.49861 0.1074 0.17563 0.0
H419 H 0.42874 0.08692 0.02191 0.0
Eu420 Eu 0.88304 0.31474 0.19638 0.0
C421 C 0.94556 0.39509 0.21164 0.0
N422 N 0.94688 0.38194 0.17525 0.0
C423 C 0.95282 0.39589 0.07494 0.0
C424 C 0.94744 0.40909 0.17994 0.0
C425 C 0.95065 0.38218 0.10821 0.0
C426 C 0.95117 0.40938 0.11087 0.0
C427 C 0.93903 0.40718 0.31728 0.0
C428 C 0.94115 0.39399 0.27943 0.0
C429 C 0.94088 0.42113 0.28576 0.0
C430 C 0.94507 0.42208 0.21736 0.0
Eu431 Eu 0.94322 0.3595 0.23548 0.0
N432 N 0.93884 0.38004 0.30814 0.0
C433 C 0.93535 0.4061 0.3861 0.0
C434 C 0.93698 0.37979 0.3771 0.0
C435 C 0.93469 0.39252 0.4165 0.0
H436 H 0.95211 0.37184 0.08063 0.0
H437 H 0.93286 0.39204 0.47082 0.0
H438 H 0.87448 0.3031 0.3526 0.0
H439 H 0.88054 0.27633 0.95111 0.0
H440 H 0.9381 0.37032 0.40327 0.0
H441 H 0.93366 0.41598 0.41691 0.0
H442 H 0.88079 0.30064 0.02347 0.0
H443 H 0.95574 0.39603 0.02162 0.0
H444 H 0.93917 0.4313 0.314 0.0
H445 H 0.94636 0.43288 0.19374 0.0
H446 H 0.8698 0.27877 0.4124 0.0
H447 H 0.95269 0.41991 0.08471 0.0
H448 H 0.87851 0.25188 0.00438 0.0
N449 N 0.87752 0.29177 0.25638 0.0
C450 C 0.87657 0.27759 0.21871 0.0
C451 C 0.87185 0.27834 0.35809 0.0
C452 C 0.8737 0.26331 0.25032 0.0
C453 C 0.87478 0.2922 0.32455 0.0
C454 C 0.87144 0.26387 0.32097 0.0
N455 N 0.88165 0.29152 0.11948 0.0
C456 C 0.88125 0.29077 0.04878 0.0
C457 C 0.87796 0.26297 0.10838 0.0
C458 C 0.87891 0.27754 0.14863 0.0
C459 C 0.87921 0.26285 0.03708 0.0
C460 C 0.8805 0.27667 0.00693 0.0
H461 H 0.8692 0.25316 0.34714 0.0
H462 H 0.87118 0.23796 0.23425 0.0
H463 H 0.87477 0.2376 0.10995 0.0
O464 O 0.8541 0.30704 0.1204 0.0
O465 O 0.9114 0.31167 0.23134 0.0
O466 O 0.94103 0.33377 0.1954 0.0
O467 O 0.85136 0.30196 0.22556 0.0
O468 O 0.89561 0.32828 0.10433 0.0
O469 O 0.9329 0.34209 0.12746 0.0
O470 O 0.97198 0.37252 0.31915 0.0
O471 O 0.91452 0.36003 0.18414 0.0
O472 O 0.88849 0.34162 0.23969 0.0
O473 O 0.97544 0.37406 0.21116 0.0
O474 O 0.93244 0.34395 0.32325 0.0
O475 O 0.89606 0.33255 0.30426 0.0
C476 C 0.92982 0.31775 0.20978 0.0
C477 C 0.821 0.28247 0.13496 0.0
C478 C 0.78156 0.26327 0.1119 0.0
C479 C 0.78308 0.24916 0.08032 0.0
C480 C 0.82195 0.26817 0.10301 0.0
C481 C 0.8031 0.25162 0.07609 0.0
C482 C 0.80077 0.27996 0.13987 0.0
C483 C 0.91423 0.33459 0.08358 0.0
C484 C 0.841 0.29999 0.1634 0.0
C485 C 0.87327 0.24901 0.21075 0.0
C486 C 0.87539 0.24884 0.14001 0.0
C487 C 0.89659 0.35495 0.20677 0.0
C488 C 1.00361 0.37581 0.28914 0.0
C489 C 0.04115 0.38805 0.34365 0.0
C490 C 0.03853 0.3717 0.31612 0.0
C491 C 1.00133 0.35962 0.26264 0.0
C492 C 1.02347 0.38996 0.32955 0.0
C493 C 1.01877 0.35763 0.27602 0.0
C494 C 0.91407 0.33695 0.34525 0.0
C495 C 0.98538 0.37813 0.27629 0.0
H496 H 0.76874 0.2361 0.05937 0.0
H497 H 0.83725 0.26979 0.09873 0.0
H498 H 0.80399 0.24063 0.05173 0.0
H499 H 0.79998 0.29103 0.16421 0.0
H500 H 0.05184 0.36982 0.32489 0.0
H501 H 0.98611 0.34858 0.23175 0.0
H502 H 0.025 0.40234 0.35091 0.0
H503 H 1.01697 0.34512 0.25517 0.0
Eu504 Eu 0.39722 0.86961 0.69229 0.0
C505 C 0.49953 0.92325 0.81793 0.0
N506 N 0.48233 0.92315 0.83656 0.0
C507 C 0.49894 0.9312 0.95904 0.0
C508 C 0.51695 0.92691 0.86977 0.0
C509 C 0.48214 0.92764 0.90581 0.0
C510 C 0.51634 0.93067 0.94101 0.0
C511 C 0.5177 0.92028 0.72564 0.0
C512 C 0.49992 0.91996 0.74668 0.0
C513 C 0.53489 0.92363 0.77716 0.0
C514 C 0.5345 0.9269 0.849 0.0
Eu515 Eu 0.45481 0.91682 0.74225 0.0
N516 N 0.48278 0.91623 0.69789 0.0
C517 C 0.51769 0.91728 0.65337 0.0
C518 C 0.48314 0.91419 0.62754 0.0
C519 C 0.50043 0.91441 0.60415 0.0
H520 H 0.46932 0.92893 0.92025 0.0
H521 H 0.5005 0.91248 0.54823 0.0
H522 H 0.37872 0.87682 0.54334 0.0
H523 H 0.36154 0.85387 0.92682 0.0
H524 H 0.47009 0.91237 0.5895 0.0
H525 H 0.53105 0.91743 0.6351 0.0
H526 H 0.38489 0.85493 0.84413 0.0
H527 H 0.4986 0.93458 0.01391 0.0
H528 H 0.54863 0.92382 0.762 0.0
H529 H 0.54797 0.9296 0.88811 0.0
H530 H 0.35036 0.88211 0.49779 0.0
H531 H 0.5294 0.93353 0.98239 0.0
H532 H 0.33542 0.86257 0.89718 0.0
N533 N 0.37056 0.87459 0.64464 0.0
C534 C 0.35664 0.87372 0.68631 0.0
C535 C 0.35204 0.87989 0.55104 0.0
C536 C 0.34039 0.87681 0.66294 0.0
C537 C 0.36801 0.87688 0.57675 0.0
C538 C 0.33834 0.88007 0.59462 0.0
N539 N 0.37382 0.86594 0.77179 0.0
C540 C 0.37428 0.85953 0.83197 0.0
C541 C 0.34441 0.86866 0.79693 0.0
C542 C 0.35862 0.86964 0.75234 0.0
C543 C 0.34599 0.86345 0.86136 0.0
C544 C 0.36075 0.85857 0.87838 0.0
H545 H 0.32608 0.88252 0.57474 0.0
H546 H 0.31439 0.87911 0.69168 0.0
H547 H 0.31793 0.872 0.80909 0.0
O548 O 0.37602 0.84091 0.68743 0.0
O549 O 0.40153 0.89659 0.68802 0.0
O550 O 0.42699 0.91591 0.78382 0.0
O551 O 0.38413 0.85085 0.59223 0.0
O552 O 0.41636 0.87602 0.80312 0.0
O553 O 0.43756 0.90693 0.83265 0.0
O554 O 0.45766 0.9374 0.68314 0.0
O555 O 0.45588 0.8918 0.71072 0.0
O556 O 0.42547 0.86769 0.73593 0.0
O557 O 0.47783 0.94483 0.78751 0.0
O558 O 0.43523 0.908 0.63117 0.0
O559 O 0.41887 0.87776 0.61305 0.0
C560 C 0.4078 0.90875 0.74485 0.0
C561 C 0.38093 0.82351 0.59815 0.0
C562 C 0.38409 0.79847 0.61799 0.0
C563 C 0.39228 0.79901 0.5558 0.0
C564 C 0.38884 0.82355 0.53553 0.0
C565 C 0.39457 0.81145 0.51491 0.0
C566 C 0.37838 0.81077 0.63882 0.0
C567 C 0.42762 0.89112 0.84984 0.0
C568 C 0.37555 0.83684 0.62047 0.0
C569 C 0.32675 0.87648 0.70822 0.0
C570 C 0.3288 0.87248 0.77516 0.0
C571 C 0.44538 0.87564 0.72516 0.0
C572 C 0.48391 0.96935 0.73084 0.0
C573 C 0.48836 0.99385 0.67433 0.0
C574 C 0.50637 1.00581 0.72829 0.0
C575 C 0.50178 0.98171 0.78422 0.0
C576 C 0.47724 0.97549 0.67569 0.0
C577 C 0.5129 0.99976 0.78273 0.0
C578 C 0.42637 0.89248 0.58894 0.0
C579 C 0.47292 0.9502 0.73317 0.0
H580 H 0.39649 0.78956 0.53785 0.0
H581 H 0.39067 0.83296 0.50231 0.0
H582 H 0.40069 0.81164 0.46676 0.0
H583 H 0.37224 0.81055 0.68701 0.0
H584 H 0.51569 0.0199 0.72808 0.0
H585 H 0.50736 0.97742 0.82701 0.0
H586 H 0.46337 0.96606 0.63463 0.0
H587 H 0.52678 1.00913 0.82376 0.0
Eu588 Eu 0.28802 0.56092 0.78338 0.0
C589 C 0.34337 0.52555 0.73277 0.0
N590 N 0.32353 0.52068 0.69859 0.0
C591 C 0.33192 0.51439 0.58753 0.0
C592 C 0.35851 0.52542 0.69507 0.0
C593 C 0.31734 0.51443 0.62731 0.0
C594 C 0.35269 0.52012 0.62145 0.0
C595 C 0.36793 0.53351 0.84342 0.0
C596 C 0.34811 0.52966 0.806 0.0
C597 C 0.38332 0.534 0.80604 0.0
C598 C 0.37865 0.53003 0.73204 0.0
Eu599 Eu 0.30042 0.52183 0.77067 0.0
N600 N 0.33302 0.52927 0.84081 0.0
C601 C 0.37151 0.53646 0.91733 0.0
C602 C 0.33592 0.53121 0.91254 0.0
C603 C 0.35533 0.5351 0.95198 0.0
H604 H 0.30102 0.50911 0.60098 0.0
H605 H 0.35774 0.53694 0.00896 0.0
H606 H 0.26485 0.55187 0.92338 0.0
H607 H 0.25543 0.56167 0.51766 0.0
H608 H 0.32325 0.52979 0.93915 0.0
H609 H 0.38651 0.53944 0.94799 0.0
H610 H 0.2839 0.56821 0.61635 0.0
H611 H 0.32701 0.50966 0.53089 0.0
H612 H 0.39874 0.53713 0.83386 0.0
H613 H 0.39053 0.53011 0.70392 0.0
H614 H 0.22894 0.54101 0.95301 0.0
H615 H 0.36387 0.51986 0.59058 0.0
H616 H 0.21782 0.54805 0.5341 0.0
N617 N 0.25429 0.55027 0.81526 0.0
C618 C 0.23799 0.54719 0.76432 0.0
C619 C 0.23124 0.54257 0.89966 0.0
C620 C 0.21727 0.54093 0.77863 0.0
C621 C 0.25147 0.54863 0.88281 0.0
C622 C 0.214 0.53855 0.8472 0.0
N623 N 0.26244 0.55674 0.68628 0.0
C624 C 0.26746 0.56149 0.62348 0.0
C625 C 0.22538 0.54673 0.64319 0.0
C626 C 0.24208 0.55014 0.69757 0.0
C627 C 0.2302 0.55051 0.57727 0.0
C628 C 0.2514 0.55814 0.56771 0.0
H629 H 0.19831 0.53377 0.8603 0.0
H630 H 0.18442 0.53217 0.73394 0.0
H631 H 0.19149 0.53719 0.61529 0.0
O632 O 0.29455 0.58708 0.76943 0.0
O633 O 0.26236 0.5318 0.77993 0.0
O634 O 0.27018 0.51623 0.7016 0.0
O635 O 0.29818 0.58193 0.87425 0.0
O636 O 0.3016 0.55752 0.68753 0.0
O637 O 0.2917 0.52795 0.66584 0.0
O638 O 0.27968 0.50056 0.82314 0.0
O639 O 0.32873 0.55025 0.82046 0.0
O640 O 0.32073 0.56786 0.76325 0.0
O641 O 0.29389 0.49505 0.74059 0.0
O642 O 0.28856 0.5281 0.86525 0.0
O643 O 0.30314 0.55819 0.88419 0.0
C644 C 0.25617 0.51917 0.72488 0.0
C645 C 0.32347 0.61039 0.85643 0.0
C646 C 0.34723 0.64221 0.86019 0.0
C647 C 0.36466 0.64159 0.893 0.0
C648 C 0.34116 0.61008 0.88878 0.0
C649 C 0.3616 0.62561 0.90693 0.0
C650 C 0.32659 0.62645 0.8421 0.0
C651 C 0.2976 0.54311 0.64533 0.0
C652 C 0.30186 0.59397 0.8366 0.0
C653 C 0.20052 0.53718 0.7242 0.0
C654 C 0.20454 0.54 0.65659 0.0
C655 C 0.33472 0.56513 0.79747 0.0
C656 C 0.28794 0.47869 0.83234 0.0
C657 C 0.27588 0.45456 0.89829 0.0
C658 C 0.29716 0.4586 0.91315 0.0
C659 C 0.30901 0.48251 0.84825 0.0
C660 C 0.2715 0.46482 0.85785 0.0
C661 C 0.31355 0.47252 0.88856 0.0
C662 C 0.29697 0.5435 0.90775 0.0
C663 C 0.28274 0.48896 0.78926 0.0
H664 H 0.38067 0.65349 0.90855 0.0
H665 H 0.33922 0.59782 0.89986 0.0
H666 H 0.37514 0.62526 0.93186 0.0
H667 H 0.313 0.62656 0.81583 0.0
H668 H 0.30114 0.45084 0.94277 0.0
H669 H 0.32194 0.49312 0.82923 0.0
H670 H 0.25534 0.46217 0.84645 0.0
H671 H 0.32982 0.47546 0.90028 0.0
Eu672 Eu 0.59743 0.74024 0.84094 0.0
C673 C 0.55244 0.65916 0.83876 0.0
N674 N 0.57187 0.6728 0.87679 0.0
C675 C 0.56323 0.66087 0.98142 0.0
C676 C 0.5373 0.64616 0.87151 0.0
C677 C 0.57786 0.67319 0.94628 0.0
C678 C 0.54271 0.64745 0.94413 0.0
C679 C 0.52871 0.64304 0.72444 0.0
C680 C 0.54808 0.65765 0.76615 0.0
C681 C 0.51337 0.63035 0.75714 0.0
C682 C 0.51758 0.63199 0.83055 0.0
Eu683 Eu 0.5949 0.69338 0.8122 0.0
N684 N 0.5629 0.67038 0.73607 0.0
C685 C 0.52536 0.64163 0.65104 0.0
C686 C 0.56023 0.66871 0.66445 0.0
C687 C 0.5413 0.65444 0.62088 0.0
H688 H 0.59408 0.68271 0.97464 0.0
H689 H 0.53902 0.65329 0.56415 0.0
H690 H 0.61825 0.75407 0.6995 0.0
H691 H 0.62807 0.77257 0.12029 0.0
H692 H 0.5727 0.67851 0.64129 0.0
H693 H 0.51068 0.63061 0.6172 0.0
H694 H 0.60107 0.75061 0.01702 0.0
H695 H 0.56794 0.66151 0.03692 0.0
H696 H 0.49828 0.61915 0.72607 0.0
H697 H 0.50569 0.62197 0.85493 0.0
H698 H 0.65141 0.77882 0.67283 0.0
H699 H 0.53151 0.63777 0.97128 0.0
H700 H 0.66346 0.79682 0.10443 0.0
N701 N 0.62888 0.76286 0.81071 0.0
C702 C 0.64418 0.77588 0.86504 0.0
C703 C 0.64966 0.77806 0.72709 0.0
C704 C 0.6633 0.79028 0.85229 0.0
C705 C 0.63102 0.76397 0.74226 0.0
C706 C 0.66594 0.7912 0.78232 0.0
N707 N 0.62168 0.76102 0.94385 0.0
C708 C 0.6168 0.7605 0.00957 0.0
C709 C 0.65629 0.788 0.99093 0.0
C710 C 0.64065 0.77472 0.93352 0.0
C711 C 0.65186 0.7869 0.05897 0.0
C712 C 0.63193 0.7732 0.06818 0.0
H713 H 0.68038 0.80208 0.77038 0.0
H714 H 0.69393 0.81438 0.90077 0.0
H715 H 0.68782 0.81238 0.02213 0.0
O716 O 0.58787 0.75856 0.87908 0.0
O717 O 0.62812 0.74018 0.82838 0.0
O718 O 0.62491 0.71747 0.88098 0.0
O719 O 0.57791 0.74609 0.76932 0.0
O720 O 0.58793 0.72431 0.92815 0.0
O721 O 0.60503 0.70876 0.9255 0.0
O722 O 0.6134 0.68845 0.74297 0.0
O723 O 0.56587 0.69481 0.77251 0.0
O724 O 0.56735 0.71538 0.85717 0.0
O725 O 0.60316 0.6737 0.82624 0.0
O726 O 0.60592 0.71062 0.73051 0.0
O727 O 0.58714 0.72462 0.72901 0.0
C728 C 0.63688 0.73283 0.86257 0.0
C729 C 0.58193 0.77424 0.79862 0.0
C730 C 0.57053 0.79514 0.78274 0.0
C731 C 0.59051 0.80664 0.76502 0.0
C732 C 0.60176 0.78619 0.7819 0.0
C733 C 0.60593 0.80219 0.76472 0.0
C734 C 0.56623 0.77873 0.79873 0.0
C735 C 0.59648 0.71643 0.95897 0.0
C736 C 0.57782 0.75736 0.81753 0.0
C737 C 0.67907 0.80329 0.90948 0.0
C738 C 0.6756 0.80212 0.9786 0.0
C739 C 0.5564 0.69976 0.81425 0.0
C740 C 0.63435 0.67765 0.78844 0.0
C741 C 0.65773 0.66834 0.74856 0.0
C742 C 0.67235 0.67766 0.81322 0.0
C743 C 0.64914 0.68696 0.85252 0.0
C744 C 0.6388 0.66852 0.73647 0.0
C745 C 0.66811 0.68702 0.86459 0.0
C746 C 0.59611 0.71719 0.69709 0.0
C747 C 0.61383 0.67667 0.77526 0.0
H748 H 0.59424 0.81915 0.75104 0.0
H749 H 0.61409 0.78323 0.78235 0.0
H750 H 0.62126 0.81124 0.75142 0.0
H751 H 0.551 0.76968 0.81274 0.0
H752 H 0.6871 0.67781 0.82371 0.0
H753 H 0.64586 0.69396 0.8933 0.0
H754 H 0.62723 0.66117 0.68725 0.0
H755 H 0.67949 0.69423 0.91413 0.0
C756 C 0.14999 0.32699 0.14163 0.0
C757 C 0.12837 0.31767 0.10644 0.0
C758 C 0.16569 0.34199 0.11976 0.0
C759 C 0.17787 0.36338 0.96646 0.0
H760 H 0.21821 0.40647 0.10502 0.0
C761 C 0.23753 0.42859 0.88205 0.0
C762 C 0.25837 0.43949 0.92391 0.0
C763 C 0.22135 0.4141 0.90507 0.0
C764 C 0.2073 0.39449 0.0656 0.0
H765 H 0.10632 0.31654 0.01986 0.0
H766 H 0.13379 0.34264 0.9812 0.0
H767 H 0.19107 0.38023 0.14322 0.0
H768 H 0.27817 0.44384 0.0242 0.0
H769 H 0.25039 0.41823 0.06267 0.0
H770 H 0.1943 0.37733 0.88894 0.0
C771 C 0.13857 0.33839 0.02592 0.0
C772 C 0.1917 0.37947 0.08761 0.0
C773 C 0.12283 0.32354 0.04837 0.0
C774 C 0.26246 0.43561 0.98983 0.0
C775 C 0.24636 0.42102 0.0125 0.0
C776 C 0.19363 0.37832 0.9445 0.0
C777 C 0.16015 0.34784 0.06161 0.0
C778 C 0.1768 0.36376 0.03828 0.0
C779 C 0.22559 0.40999 0.97031 0.0
C780 C 0.20858 0.39411 -0.00627 0.0
H781 H 0.1547 0.32282 0.18676 0.0
H782 H 0.18223 0.34893 0.14793 0.0
H783 H 0.16675 0.35139 0.92731 0.0
H784 H 0.23375 0.43099 0.83068 0.0
H785 H 0.20549 0.40614 0.87153 0.0
C786 C 0.83204 0.78983 0.933 0.0
C787 C 0.84397 0.79807 0.00221 0.0
C788 C 0.8098 0.78284 0.91765 0.0
C789 C 0.76217 0.77001 0.00512 0.0
H790 H 0.73603 0.77097 0.82322 0.0
C791 C 0.66982 0.73489 0.92521 0.0
C792 C 0.66078 0.74136 0.87909 0.0
C793 C 0.69201 0.74201 0.93924 0.0
C794 C 0.743 0.77078 0.87476 0.0
H795 H 0.84167 0.80458 0.11009 0.0
H796 H 0.80342 0.79316 0.08373 0.0
H797 H 0.77445 0.78287 0.84971 0.0
H798 H 0.66841 0.76056 0.81148 0.0
H799 H 0.7073 0.77388 0.8394 0.0
H800 H 0.73114 0.75888 0.03191 0.0
C801 C 0.81087 0.79173 0.04078 0.0
C802 C 0.76515 0.77735 0.8896 0.0
C803 C 0.833 0.79852 0.05603 0.0
C804 C 0.67475 0.75543 0.84822 0.0
C805 C 0.69713 0.76286 0.86338 0.0
C806 C 0.74017 0.76372 0.99076 0.0
C807 C 0.79884 0.7839 0.97117 0.0
C808 C 0.77513 0.77697 0.95493 0.0
C809 C 0.70617 0.75621 0.90902 0.0
C810 C 0.73006 0.76378 0.92503 0.0
H811 H 0.84001 0.78921 0.8903 0.0
H812 H 0.80123 0.77661 0.86365 0.0
H813 H 0.76888 0.76915 0.05574 0.0
H814 H 0.65972 0.72416 0.95061 0.0
H815 H 0.69793 0.73607 0.97322 0.0
C816 C 0.30422 0.97518 0.87555 0.0
C817 C 0.29753 0.97405 0.94068 0.0
C818 C 0.31329 0.96565 0.85245 0.0
C819 C 0.34581 0.94934 0.92072 0.0
H820 H 0.32932 0.92129 0.73206 0.0
C821 C 0.3907 0.91572 0.83623 0.0
C822 C 0.39338 0.9144 0.76599 0.0
C823 C 0.37705 0.92103 0.85681 0.0
C824 C 0.33442 0.92929 0.78464 0.0
H825 H 0.29482 0.96199 0.03239 0.0
H826 H 0.31128 0.94564 0.9929 0.0
H827 H 0.30885 0.93405 0.76807 0.0
H828 H 0.3841 0.91763 0.6621 0.0
H829 H 0.36114 0.92781 0.69815 0.0
H830 H 0.372 0.94557 0.93681 0.0
C831 C 0.3092 0.95371 0.95931 0.0
C832 C 0.32252 0.93648 0.80537 0.0
C833 C 0.29967 0.96294 0.98169 0.0
C834 C 0.38222 0.91852 0.7166 0.0
C835 C 0.36889 0.92419 0.73739 0.0
C836 C 0.35797 0.94248 0.89965 0.0
C837 C 0.31633 0.95512 0.89478 0.0
C838 C 0.32812 0.94661 0.87359 0.0
C839 C 0.36613 0.92563 0.80801 0.0
C840 C 0.35256 0.93239 0.83112 0.0
H841 H 0.30284 0.98374 0.84319 0.0
H842 H 0.31876 0.96711 0.80278 0.0
H843 H 0.35071 0.95731 0.97332 0.0
H844 H 0.3989 0.91233 0.87504 0.0
H845 H 0.37502 0.92144 0.91112 0.0
C846 C 0.44212 0.15983 0.12589 0.0
C847 C 0.45302 0.15559 0.08029 0.0
C848 C 0.41984 0.14812 0.12223 0.0
C849 C 0.36982 0.10968 0.00319 0.0
H850 H 0.34805 0.09966 0.17554 0.0
C851 C 0.28333 0.05007 -0.00284 0.0
C852 C 0.27183 0.05132 0.04808 0.0
C853 C 0.30504 0.06339 0.00149 0.0
C854 C 0.35366 0.10242 0.12664 0.0
H855 H 0.44849 0.13572 -0.00637 0.0
H856 H 0.41017 0.11559 0.98746 0.0
H857 H 0.38599 0.12202 0.1819 0.0
H858 H 0.27459 0.06772 0.14424 0.0
H859 H 0.31198 0.09125 0.15027 0.0
H860 H 0.33763 0.09031 0.94768 0.0
C861 C 0.41868 0.12794 0.02605 0.0
C862 C 0.37556 0.11532 0.13041 0.0
C863 C 0.44085 0.13951 0.03004 0.0
C864 C 0.28276 0.06635 0.10347 0.0
C865 C 0.30443 0.07979 0.10745 0.0
C866 C 0.34792 0.09691 -0.00062 0.0
C867 C 0.40778 0.13193 0.07233 0.0
C868 C 0.38408 0.11901 0.06873 0.0
C869 C 0.31604 0.07856 0.05658 0.0
C870 C 0.33943 0.09285 0.061 0.0
H871 H 0.45087 0.17201 0.1655 0.0
H872 H 0.41205 0.15179 0.15842 0.0
H873 H 0.37556 0.11232 0.95438 0.0
H874 H 0.27553 0.03874 0.9536 0.0
H875 H 0.31327 0.06158 0.96184 0.0
C876 C 0.9325 0.29189 0.2355 0.0
C877 C 0.93868 0.30625 0.20075 0.0
C878 C 0.94137 0.28141 0.22709 0.0
C879 C 0.9699 0.26935 0.10865 0.0
H880 H 0.98885 0.25642 0.27258 0.0
C881 C 1.02308 0.23977 0.09643 0.0
C882 C 1.01984 0.22676 0.13631 0.0
C883 C 1.01257 0.24892 0.1041 0.0
C884 C 0.98339 0.25965 0.2259 0.0
H885 H 0.9589 0.32066 0.12915 0.0
H886 H 0.97441 0.30264 0.11526 0.0
H887 H 0.97104 0.27272 0.28552 0.0
H888 H 1.00348 0.21364 0.2172 0.0
H889 H 0.98437 0.22884 0.22824 0.0
H890 H 0.98208 0.25624 0.04881 0.0
C891 C 0.96258 0.29931 0.14851 0.0
C892 C 0.97316 0.26905 0.23344 0.0
C893 C 0.9538 0.30977 0.15708 0.0
C894 C 1.00596 0.22325 0.18442 0.0
C895 C 0.99526 0.23224 0.1916 0.0
C896 C 0.98001 0.25987 0.10101 0.0
C897 C 0.95656 0.285 0.18348 0.0
C898 C 0.96645 0.27417 0.17503 0.0
C899 C 0.9984 0.24524 0.15159 0.0
C900 C 0.98709 0.25499 0.1596 0.0
H901 H 0.92111 0.28892 0.27015 0.0
H902 H 0.93623 0.27043 0.25447 0.0
H903 H 0.96465 0.2728 0.06224 0.0
H904 H 0.03378 0.24294 0.05918 0.0
H905 H 1.01582 0.25906 0.07331 0.0
C906 C 0.83087 0.69988 0.1166 0.0
C907 C 0.84429 0.70794 0.06884 0.0
C908 C 0.82544 0.68306 0.12859 0.0
C909 C 0.82052 0.6415 0.04552 0.0
H910 H 0.81387 0.63032 0.23154 0.0
C911 C 0.79351 0.57073 0.09902 0.0
C912 C 0.77969 0.56422 0.14724 0.0
C913 C 0.8032 0.58851 0.09086 0.0
C914 C 0.81536 0.63307 0.17895 0.0
H915 H 0.86295 0.70462 -0.00248 0.0
H916 H 0.85352 0.67515 0.01851 0.0
H917 H 0.82797 0.66073 0.21598 0.0
H918 H 0.76504 0.57152 0.22383 0.0
H919 H 0.78141 0.60216 0.20874 0.0
H920 H 0.80753 0.61376 0.00823 0.0
C921 C 0.84706 0.68187 0.04641 0.0
C922 C 0.82356 0.65062 0.17005 0.0
C923 C 0.85268 0.69887 0.0349 0.0
C924 C 0.77572 0.576 0.18662 0.0
C925 C 0.78531 0.59372 0.17828 0.0
C926 C 0.81223 0.62389 0.05437 0.0
C927 C 0.83315 0.67363 0.09295 0.0
C928 C 0.82601 0.6551 0.10307 0.0
C929 C 0.79925 0.60032 0.13033 0.0
C930 C 0.80923 0.61932 0.12113 0.0
H931 H 0.82421 0.70649 0.14409 0.0
H932 H 0.81457 0.6772 0.16427 0.0
H933 H 0.82193 0.64431 -0.00702 0.0
H934 H 0.79669 0.56204 0.0668 0.0
H935 H 0.81391 0.59299 0.05379 0.0
C936 C 0.22811 0.50067 0.61595 0.0
C937 C 0.23333 0.50788 0.68847 0.0
C938 C 0.20662 0.48948 0.58112 0.0
C939 C 0.1524 0.45911 0.61476 0.0
H940 H 0.13422 0.45943 0.4204 0.0
C941 C 0.07048 0.42065 0.37909 0.0
C942 C 0.06223 0.40299 0.38701 0.0
C943 C 0.09052 0.43456 0.41863 0.0
C944 C 0.1389 0.45926 0.47493 0.0
H945 H 0.22023 0.50893 0.78165 0.0
H946 H 0.18255 0.48965 0.72064 0.0
H947 H 0.17046 0.48233 0.4842 0.0
H948 H 0.06849 0.38626 0.44446 0.0
H949 H 0.10352 0.41034 0.51194 0.0
H950 H 0.12081 0.43612 0.60568 0.0
C951 C 0.19507 0.49256 0.69063 0.0
C952 C 0.1598 0.47229 0.51132 0.0
C953 C 0.21663 0.50376 0.72548 0.0
C954 C 0.07443 0.39964 0.43621 0.0
C955 C 0.09443 0.41352 0.47571 0.0
C956 C 0.13149 0.44609 0.5784 0.0
C957 C 0.18979 0.48513 0.61804 0.0
C958 C 0.16695 0.47223 0.58136 0.0
C959 C 0.10282 0.43116 0.46726 0.0
C960 C 0.12456 0.44581 0.50762 0.0
H961 H 0.24067 0.50364 0.58603 0.0
H962 H 0.20324 0.48384 0.52554 0.0
H963 H 0.15735 0.45854 0.66841 0.0
H964 H 0.06163 0.42372 0.34132 0.0
H965 H 0.09636 0.44798 0.41118 0.0
C966 C 0.66767 0.64623 0.71185 0.0
C967 C 0.66194 0.65817 0.69405 0.0
C968 C 0.67065 0.63605 0.65973 0.0
C969 C 0.65833 0.62081 0.46395 0.0
H970 H 0.70074 0.60841 0.50489 0.0
C971 C 0.68426 0.59169 0.2457 0.0
C972 C 0.68307 0.57577 0.2525 0.0
C973 C 0.68238 0.60164 0.30178 0.0
C974 C 0.68875 0.6117 0.49298 0.0
H975 H 0.65557 0.6693 0.60843 0.0
H976 H 0.66156 0.65217 0.51798 0.0
H977 H 0.6964 0.62632 0.59796 0.0
H978 H 0.67969 0.55825 0.32548 0.0
H979 H 0.67716 0.57608 0.42435 0.0
H980 H 0.65125 0.60665 0.35837 0.0
C981 C 0.66301 0.65008 0.57155 0.0
C982 C 0.68616 0.6219 0.54631 0.0
C983 C 0.65971 0.66003 0.62345 0.0
C984 C 0.68088 0.5705 0.31825 0.0
C985 C 0.67933 0.58065 0.37487 0.0
C986 C 0.66118 0.61089 0.41056 0.0
C987 C 0.66827 0.63777 0.58869 0.0
C988 C 0.67096 0.62668 0.53246 0.0
C989 C 0.67965 0.59613 0.36664 0.0
C990 C 0.67646 0.60629 0.42439 0.0
H991 H 0.66928 0.64441 0.76584 0.0
H992 H 0.67435 0.62657 0.67508 0.0
H993 H 0.64606 0.62374 0.45139 0.0
H994 H 0.68655 0.5965 0.19675 0.0
H995 H 0.68306 0.61369 0.29441 0.0
C996 C 0.45655 0.0578 0.17822 0.0
C997 C 0.46589 0.07622 0.19896 0.0
C998 C 0.45802 0.04786 0.22673 0.0
C999 C 0.48876 0.05342 0.40383 0.0
H1000 H 0.44213 1.00476 0.39404 0.0
C1001 C 0.48358 0.01735 0.63311 0.0
C1002 C 0.48183 1.0009 0.61704 0.0
C1003 C 0.48033 0.02532 0.57954 0.0
C1004 C 0.45531 0.01829 0.39699 0.0
H1005 H 0.48354 0.09858 0.28717 0.0
H1006 H 0.48547 0.0813 0.37232 0.0
H1007 H 0.43921 0.02133 0.30637 0.0
H1008 H 0.47391 0.97947 0.53143 0.0
H1009 H 0.46753 0.99329 0.43749 0.0
H1010 H 0.50446 0.05052 0.4959 0.0
C1011 C 0.47765 0.0745 0.31814 0.0
C1012 C 0.45373 0.02781 0.34661 0.0
C1013 C 0.47646 0.08445 0.26942 0.0
C1014 C 0.47535 0.9921 0.54584 0.0
C1015 C 0.47178 1.00003 0.49201 0.0
C1016 C 0.49016 0.04402 0.45462 0.0
C1017 C 0.46862 0.05607 0.29749 0.0
C1018 C 0.47039 0.04559 0.34964 0.0
C1019 C 0.47484 0.01695 0.5084 0.0
C1020 C 0.4734 0.02642 0.45212 0.0
H1021 H 0.44847 0.05113 0.12405 0.0
H1022 H 0.45114 0.0338 0.20827 0.0
H1023 H 0.50222 0.06684 0.40712 0.0
H1024 H 0.48792 0.02429 0.68733 0.0
H1025 H 0.48236 0.0382 0.59377 0.0
C1026 C 0.16358 0.10603 0.09979 0.0
C1027 C 0.15614 0.09184 0.04278 0.0
C1028 C 0.15192 0.1141 0.10993 0.0
C1029 C 0.11585 0.12348 0.00785 0.0
H1030 H 0.10688 0.138 0.18965 0.0
C1031 C 0.07086 0.16009 0.03306 0.0
C1032 C 0.077 0.17278 0.09461 0.0
C1033 C 0.07923 0.14924 0.02827 0.0
C1034 C 0.10951 0.13432 0.13852 0.0
H1035 H 0.13062 0.07476 0.95228 0.0
H1036 H 0.11024 0.08895 0.96942 0.0
H1037 H 0.12311 0.12034 0.18036 0.0
H1038 H 0.09696 0.18408 0.19945 0.0
H1039 H 0.11266 0.16609 0.18986 0.0
H1040 H 0.10321 0.13797 0.96608 0.0
C1041 C 0.12498 0.09374 0.00671 0.0
C1042 C 0.11869 0.12405 0.13322 0.0
C1043 C 0.13648 0.08548 -0.00269 0.0
C1044 C 0.09203 0.17457 0.15098 0.0
C1045 C 0.10076 0.16397 0.14579 0.0
C1046 C 0.10699 0.13396 0.01325 0.0
C1047 C 0.1328 0.10839 0.06231 0.0
C1048 C 0.122 0.11851 0.06782 0.0
C1049 C 0.09441 0.15103 0.08444 0.0
C1050 C 0.10368 0.1396 0.0787 0.0
H1051 H 0.17888 0.11135 0.13485 0.0
H1052 H 0.15849 0.12542 0.15289 0.0
H1053 H 0.11852 0.11972 0.95687 0.0
H1054 H 0.0596 0.15856 0.98817 0.0
H1055 H 0.07357 0.13932 0.9805 0.0
C1056 C 0.98926 0.96311 0.11251 0.0
C1057 C 0.96958 0.94944 0.1248 0.0
C1058 C 0.9928 0.97988 0.10966 0.0
C1059 C 0.96498 1.00356 0.08231 0.0
H1060 H 1.02106 0.04514 0.17088 0.0
C1061 C 0.9847 0.07511 0.0865 0.0
C1062 C 1.00423 0.08659 0.06647 0.0
C1063 C 0.98012 0.05876 0.10181 0.0
C1064 C 1.00535 0.03366 0.14563 0.0
H1065 H 0.93811 0.94266 0.14326 0.0
H1066 H 0.94427 0.97198 0.13799 0.0
H1067 H 1.01341 0.01558 0.17908 0.0
H1068 H 0.03472 0.09043 0.05044 0.0
H1069 H 0.02673 0.06196 0.07665 0.0
H1070 H 0.95705 0.02168 0.04808 0.0
C1071 C 0.9569 0.96965 0.12997 0.0
C1072 C 1.00098 0.01672 0.15016 0.0
C1073 C 0.95335 0.95284 0.13283 0.0
C1074 C 1.01944 0.08176 0.065 0.0
C1075 C 1.01493 0.06551 0.08065 0.0
C1076 C 0.96936 0.02054 0.07781 0.0
C1077 C 0.97675 0.98342 0.11906 0.0
C1078 C 0.98086 1.00145 0.11759 0.0
C1079 C 0.99507 0.05367 0.09802 0.0
C1080 C 0.98972 0.03577 0.10849 0.0
H1081 H 1.00195 0.96083 0.10487 0.0
H1082 H 1.0081 0.99006 0.09959 0.0
H1083 H 0.94938 0.99207 0.05616 0.0
H1084 H 0.97265 0.07847 0.08777 0.0
H1085 H 0.96478 0.05001 0.11579 0.0
C1086 C 0.98228 0.85953 0.99081 0.0
C1087 C 0.97327 0.86107 0.04924 0.0
C1088 C 1.00348 0.87274 0.98705 0.0
C1089 C 0.0555 0.91187 0.09762 0.0
H1090 H 0.06751 0.92514 0.91742 0.0
C1091 C 0.13589 0.97565 0.07726 0.0
C1092 C 0.14531 0.97532 0.01855 0.0
C1093 C 0.11529 0.96141 0.08059 0.0
C1094 C 0.06464 0.92152 0.9682 0.0
H1095 H 0.98042 0.87716 0.15195 0.0
H1096 H 1.01673 0.90032 0.14475 0.0
H1097 H 0.03168 0.90094 0.92434 0.0
H1098 H 0.13982 0.95988 0.91598 0.0
H1099 H 0.10428 0.93491 0.92217 0.0
H1100 H 0.08841 0.93247 0.14156 0.0
C1101 C 1.00755 0.889 0.10131 0.0
C1102 C 0.04393 0.90752 0.97219 0.0
C1103 C 0.98643 0.87581 0.10499 0.0
C1104 C 0.1333 0.96047 0.96264 0.0
C1105 C 0.11269 0.9462 0.96589 0.0
C1106 C 0.07619 0.92585 0.09363 0.0
C1107 C 1.01644 0.88787 0.04189 0.0
C1108 C 0.0389 0.90248 0.03707 0.0
C1109 C 0.1033 0.94636 0.0251 0.0
C1110 C 0.08116 0.93105 0.02893 0.0
H1111 H 0.97276 0.84832 0.947 0.0
H1112 H 1.00969 0.87106 0.94094 0.0
H1113 H 0.05263 0.90831 0.14848 0.0
H1114 H 0.14459 0.98685 0.12138 0.0
H1115 H 0.10868 0.96235 0.12665 0.0
C1116 C 0.85038 0.4647 0.13075 0.0
C1117 C 0.83611 0.46579 0.1699 0.0
C1118 C 0.8541 0.45097 0.13185 0.0
C1119 C 0.85305 0.42 0.24174 0.0
H1120 H 0.85776 0.39663 0.07073 0.0
C1121 C 0.8723 0.36496 0.24218 0.0
C1122 C 0.88668 0.36555 0.19954 0.0
C1123 C 0.86401 0.37581 0.23717 0.0
C1124 C 0.85673 0.40314 0.11917 0.0
H1125 H 0.81434 0.45316 0.2402 0.0
H1126 H 0.82095 0.42913 0.24248 0.0
H1127 H 0.84704 0.41797 0.06395 0.0
H1128 H 0.90298 0.3775 0.11634 0.0
H1129 H 0.88929 0.39676 0.10935 0.0
H1130 H 0.86335 0.40558 0.29731 0.0
C1131 C 0.82926 0.43896 0.21099 0.0
C1132 C 0.8505 0.41534 0.11517 0.0
C1133 C 0.82533 0.45261 0.20922 0.0
C1134 C 0.8922 0.37691 0.15079 0.0
C1135 C 0.88408 0.3878 0.14609 0.0
C1136 C 0.85945 0.40788 0.24585 0.0
C1137 C 0.8438 0.43805 0.17263 0.0
C1138 C 0.84884 0.42408 0.17647 0.0
C1139 C 0.86989 0.38746 0.18926 0.0
C1140 C 0.86166 0.39946 0.18469 0.0
H1141 H 0.8588 0.47457 0.09952 0.0
H1142 H 0.86553 0.45075 0.10217 0.0
H1143 H 0.85213 0.42666 0.29003 0.0
H1144 H 0.86771 0.35632 0.2802 0.0
H1145 H 0.85292 0.37502 0.27066 0.0
C1146 C 0.69172 0.45211 0.18572 0.0
C1147 C 0.70625 0.45874 0.13966 0.0
C1148 C 0.67767 0.43374 0.18051 0.0
C1149 C 0.65387 0.38984 0.05858 0.0
H1150 H 0.64164 0.371 0.22932 0.0
C1151 C 0.61603 0.31507 0.06325 0.0
C1152 C 0.60187 0.30723 0.10931 0.0
C1153 C 0.62641 0.33332 0.0637 0.0
C1154 C 0.64457 0.37601 0.18094 0.0
H1155 H 0.71751 0.45101 0.05261 0.0
H1156 H 0.69348 0.41905 0.04458 0.0
H1157 H 0.66476 0.40302 0.23739 0.0
H1158 H 0.58701 0.31245 0.19049 0.0
H1159 H 0.60506 0.34446 0.19118 0.0
H1160 H 0.63397 0.36278 0.00228 0.0
C1161 C 0.69253 0.42805 0.08383 0.0
C1162 C 0.65791 0.39446 0.18554 0.0
C1163 C 0.70653 0.44644 0.08887 0.0
C1164 C 0.59768 0.31804 0.15399 0.0
C1165 C 0.60825 0.33643 0.15493 0.0
C1166 C 0.64059 0.3714 0.05401 0.0
C1167 C 0.67782 0.42138 0.12949 0.0
C1168 C 0.66296 0.40168 0.12447 0.0
C1169 C 0.62308 0.34439 0.11059 0.0
C1170 C 0.63589 0.36417 0.11515 0.0
H1171 H 0.69128 0.46111 0.22641 0.0
H1172 H 0.66652 0.42927 0.21627 0.0
H1173 H 0.65691 0.3948 0.01015 0.0
H1174 H 0.61963 0.30712 0.02817 0.0
H1175 H 0.63779 0.33886 0.02922 0.0
C1176 C 0.5907 0.21034 0.05622 0.0
C1177 C 0.58294 0.21289 0.11633 0.0
C1178 C 0.6126 0.21713 0.05998 0.0
C1179 C 0.66738 0.25009 0.16339 0.0
H1180 H 0.68103 0.21822 0.06561 0.0
C1181 C 0.75536 0.26619 0.17671 0.0
C1182 C 0.75984 0.26023 0.11462 0.0
C1183 C 0.73428 0.2616 0.18034 0.0
C1184 C 0.67758 0.22742 0.09251 0.0
H1185 H 0.59228 0.22515 0.22726 0.0
H1186 H 0.63088 0.23727 0.23387 0.0
H1187 H 0.64368 0.20815 0.0665 0.0
H1188 H 0.7459 0.24583 0.00627 0.0
H1189 H 0.70952 0.23808 0.01216 0.0
H1190 H 0.70147 0.26942 0.18893 0.0
C1191 C 0.61988 0.22994 0.18372 0.0
C1192 C 0.65609 0.22161 0.09314 0.0
C1193 C 0.59779 0.22303 0.17998 0.0
C1194 C 0.74296 0.2503 0.05546 0.0
C1195 C 0.72203 0.2458 0.05896 0.0
C1196 C 0.68901 0.25596 0.16261 0.0
C1197 C 0.62748 0.22676 0.12395 0.0
C1198 C 0.65063 0.23291 0.12763 0.0
C1199 C 0.71723 0.251 0.12186 0.0
C1200 C 0.69438 0.24477 0.12618 0.0
H1201 H 0.57974 0.20279 0.00612 0.0
H1202 H 0.61787 0.2147 0.01255 0.0
H1203 H 0.66375 0.25917 0.19025 0.0
H1204 H 0.76797 0.27381 0.22334 0.0
H1205 H 0.73123 0.26583 0.22973 0.0
C1206 C 0.56216 0.81852 0.81462 0.0
C1207 C 0.55479 0.8008 0.78512 0.0
C1208 C 0.54826 0.82466 0.81135 0.0
C1209 C 0.49658 0.81512 0.71063 0.0
H1210 H 0.50565 0.85181 0.8618 0.0
C1211 C 0.44474 0.84708 0.708 0.0
C1212 C 0.45635 0.86571 0.73025 0.0
C1213 C 0.45498 0.83767 0.71514 0.0
C1214 C 0.50296 0.84166 0.8188 0.0
H1215 H 0.52658 0.77548 0.73089 0.0
H1216 H 0.50203 0.78613 0.72612 0.0
H1217 H 0.52596 0.83771 0.87615 0.0
H1218 H 0.48756 0.8887 0.78022 0.0
H1219 H 0.50552 0.87269 0.7914 0.0
H1220 H 0.47349 0.81918 0.65346 0.0
C1221 C 0.51879 0.79537 0.75091 0.0
C1222 C 0.51467 0.83355 0.82699 0.0
C1223 C 0.53281 0.78919 0.75434 0.0
C1224 C 0.47832 0.8746 0.76027 0.0
C1225 C 0.48852 0.86526 0.76798 0.0
C1226 C 0.48473 0.82319 0.70261 0.0
C1227 C 0.52639 0.81328 0.77878 0.0
C1228 C 0.51206 0.82044 0.77247 0.0
C1229 C 0.47701 0.84665 0.7459 0.0
C1230 C 0.48813 0.83686 0.75602 0.0
H1231 H 0.57891 0.82782 0.83957 0.0
H1232 H 0.5549 0.83856 0.8327 0.0
H1233 H 0.49418 0.80519 0.66719 0.0
H1234 H 0.42772 0.83977 0.68493 0.0
H1235 H 0.44554 0.82334 0.69794 0.0
C1236 C 0.36932 0.67105 0.82062 0.0
C1237 C 0.35068 0.65923 0.84434 0.0
C1238 C 0.37274 0.68711 0.80615 0.0
C1239 C 0.34443 0.70875 0.75602 0.0
H1240 H 0.40113 0.75198 0.81558 0.0
C1241 C 0.36196 0.77508 0.68497 0.0
C1242 C 0.38104 0.78472 0.65951 0.0
C1243 C 0.35824 0.76094 0.71789 0.0
C1244 C 0.38524 0.74001 0.79821 0.0
H1245 H 0.32107 0.65514 0.87197 0.0
H1246 H 0.32689 0.68309 0.84521 0.0
H1247 H 0.39441 0.72468 0.85188 0.0
H1248 H 0.4117 0.78775 0.65212 0.0
H1249 H 0.40504 0.76288 0.70775 0.0
H1250 H 0.3354 0.72386 0.70039 0.0
C1251 C 0.33881 0.67984 0.8378 0.0
C1252 C 0.3814 0.72439 0.81908 0.0
C1253 C 0.33546 0.66382 0.85283 0.0
C1254 C 0.39669 0.7804 0.67024 0.0
C1255 C 0.39297 0.76627 0.70296 0.0
C1256 C 0.34831 0.72435 0.73475 0.0
C1257 C 0.35753 0.69167 0.81453 0.0
C1258 C 0.36106 0.70854 0.79724 0.0
C1259 C 0.37354 0.75616 0.72607 0.0
C1260 C 0.36886 0.7401 0.75461 0.0
H1261 H 0.38118 0.6678 0.8121 0.0
H1262 H 0.38712 0.69581 0.78701 0.0
H1263 H 0.32865 0.69669 0.73788 0.0
H1264 H 0.34955 0.77804 0.67721 0.0
H1265 H 0.34323 0.75358 0.73597 0.0
C1266 C 0.51921 0.67452 0.75541 0.0
C1267 C 0.53346 0.68714 0.81607 0.0
C1268 C 0.49808 0.66148 0.75845 0.0
C1269 C 0.45439 0.65141 0.85175 0.0
H1270 H 0.4334 0.6019 0.78 0.0
C1271 C 0.36415 0.59484 0.78026 0.0
C1272 C 0.35799 0.57928 0.80714 0.0
C1273 C 0.38586 0.6082 0.78774 0.0
C1274 C 0.43909 0.61565 0.80062 0.0
H1275 H 0.5364 0.69662 0.92674 0.0
H1276 H 0.49911 0.67416 0.93147 0.0
H1277 H 0.47066 0.6251 0.77919 0.0
H1278 H 0.3702 0.56611 0.86531 0.0
H1279 H 0.40825 0.58899 0.87458 0.0
H1280 H 0.42256 0.64201 0.87078 0.0
C1281 C 0.50451 0.67416 0.88191 0.0
C1282 C 0.46035 0.62892 0.79973 0.0
C1283 C 0.52579 0.68704 0.87911 0.0
C1284 C 0.37426 0.57757 0.84223 0.0
C1285 C 0.39607 0.59077 0.84809 0.0
C1286 C 0.433 0.63817 0.85122 0.0
C1287 C 0.49056 0.66105 0.82188 0.0
C1288 C 0.4682 0.64695 0.82502 0.0
C1289 C 0.40207 0.60623 0.82094 0.0
C1290 C 0.4251 0.62016 0.82542 0.0
H1291 H 0.52452 0.67457 0.70571 0.0
H1292 H 0.48759 0.65172 0.71107 0.0
H1293 H 0.45999 0.66519 0.87132 0.0
H1294 H 0.35219 0.59679 0.75316 0.0
H1295 H 0.38999 0.61993 0.76605 0.0
C1296 C 0.03985 0.18608 0.8605 0.0
C1297 C 0.04282 0.2006 0.90748 0.0
C1298 C 0.03967 0.18644 0.78895 0.0
C1299 C 0.0606 0.21729 0.66968 0.0
H1300 H 1.01864 0.17636 0.52412 0.0
C1301 C 0.05809 0.21816 0.3721 0.0
C1302 C 0.05319 0.20256 0.3275 0.0
C1303 C 0.05643 0.21829 0.44298 0.0
C1304 C 0.03064 0.18782 0.56416 0.0
H1305 H 0.04733 0.22667 0.91637 0.0
H1306 H 0.04732 0.22739 0.79093 0.0
H1307 H 1.0156 0.17572 0.6475 0.0
H1308 H 0.04343 0.17506 0.32264 0.0
H1309 H 0.04109 0.17541 0.44656 0.0
H1310 H 0.076 0.22925 0.5868 0.0
C1311 C 0.04521 0.21578 0.80977 0.0
C1312 C 0.02881 0.18747 0.63469 0.0
C1313 C 0.04516 0.21535 0.88131 0.0
C1314 C 0.04713 0.18724 0.35554 0.0
C1315 C 0.04563 0.18741 0.42647 0.0
C1316 C 0.06254 0.21759 0.59915 0.0
C1317 C 0.04264 0.20139 0.7631 0.0
C1318 C 0.04385 0.20215 0.6881 0.0
C1319 C 0.05 0.20287 0.47082 0.0
C1320 C 0.04767 0.2028 0.54563 0.0
H1321 H 0.03822 0.1746 0.87926 0.0
H1322 H 0.03789 0.17525 0.75421 0.0
H1323 H 0.07258 0.2287 0.71002 0.0
H1324 H 0.06266 0.23016 0.3519 0.0
H1325 H 0.05969 0.23037 0.47549 0.0
C1326 C 0.92266 0.84259 0.8126 0.0
C1327 C 0.9068 0.82709 0.83192 0.0
C1328 C 0.92416 0.84302 0.74176 0.0
C1329 C 0.91078 0.81414 0.57076 0.0
H1330 H 0.9169 0.85399 0.49206 0.0
C1331 C 0.90274 0.81275 0.27148 0.0
C1332 C 0.91573 0.82864 0.24845 0.0
C1333 C 0.90248 0.81278 0.3432 0.0
C1334 C 0.91556 0.84289 0.51336 0.0
H1335 H 0.87955 0.80011 0.79191 0.0
H1336 H 0.8825 0.80071 0.6682 0.0
H1337 H 0.91476 0.85369 0.61621 0.0
H1338 H 0.9391 0.85698 0.28288 0.0
H1339 H 0.9391 0.85697 0.4083 0.0
H1340 H 0.91189 0.80342 0.46856 0.0
C1341 C 0.89392 0.81246 0.70806 0.0
C1342 C 0.91424 0.8427 0.58446 0.0
C1343 C 0.89227 0.8121 0.77884 0.0
C1344 C 0.9288 0.84452 0.2989 0.0
C1345 C 0.92868 0.84453 0.37078 0.0
C1346 C 0.91231 0.8144 0.49985 0.0
C1347 C 0.9099 0.82791 0.68882 0.0
C1348 C 0.91169 0.82827 0.61373 0.0
C1349 C 0.91537 0.82868 0.39382 0.0
C1350 C 0.91456 0.82872 0.47005 0.0
H1351 H 0.93411 0.85437 0.85231 0.0
H1352 H 0.93672 0.85507 0.72849 0.0
H1353 H 0.90915 0.80297 0.59224 0.0
H1354 H 0.89233 0.8003 0.23398 0.0
H1355 H 0.89175 0.80037 0.3587 0.0
C1356 C 0.18843 1.01079 0.77495 0.0
C1357 C 0.2048 1.01065 0.81825 0.0
C1358 C 0.18858 1.01101 0.70322 0.0
C1359 C 0.22536 0.02408 0.57893 0.0
H1360 H 0.17372 0.99295 0.4355 0.0
C1361 C 0.22674 0.01731 0.28088 0.0
C1362 C 0.20939 0.01558 0.23549 0.0
C1363 C 0.22625 0.0168 0.35227 0.0
C1364 C 0.18822 1.0019 0.47496 0.0
H1365 H 0.23399 1.0104 0.82005 0.0
H1366 H 0.23417 1.01078 0.69529 0.0
H1367 H 0.17226 0.99171 0.55962 0.0
H1368 H 0.17816 1.01247 0.22964 0.0
H1369 H 0.17761 1.01211 0.35411 0.0
H1370 H 0.24131 0.03446 0.4947 0.0
C1371 C 0.22133 1.01084 0.71685 0.0
C1372 C 0.18737 1.00115 0.54596 0.0
C1373 C 0.2211 1.01048 0.78821 0.0
C1374 C 0.19179 1.01379 0.26319 0.0
C1375 C 0.19135 1.01339 0.33446 0.0
C1376 C 0.22619 0.02492 0.508 0.0
C1377 C 0.20519 1.01125 0.67377 0.0
C1378 C 0.20594 1.01219 0.59856 0.0
C1379 C 0.20847 0.01472 0.37973 0.0
C1380 C 0.20764 1.01383 0.45518 0.0
H1381 H 0.17565 1.01092 0.79658 0.0
H1382 H 0.17599 1.01142 0.67114 0.0
H1383 H 0.23987 0.03291 0.61857 0.0
H1384 H 0.24058 0.01883 0.26105 0.0
H1385 H 0.23963 0.01771 0.38561 0.0
C1386 C 0.75219 0.52945 0.40876 0.0
C1387 C 0.75177 0.51588 0.36346 0.0
C1388 C 0.75111 0.52866 0.47976 0.0
C1389 C 0.73408 0.49667 0.60039 0.0
H1390 H 0.76713 0.5393 0.74688 0.0
C1391 C 0.74038 0.49491 0.89858 0.0
C1392 C 0.7394 0.50789 0.94271 0.0
C1393 C 0.74159 0.49575 0.82769 0.0
C1394 C 0.75762 0.5273 0.70649 0.0
H1395 H 0.75069 0.49116 0.35778 0.0
H1396 H 0.74928 0.48996 0.48181 0.0
H1397 H 0.77058 0.54129 0.62441 0.0
H1398 H 0.73858 0.53177 0.94671 0.0
H1399 H 0.74053 0.53315 0.82291 0.0
H1400 H 0.72124 0.48267 0.68266 0.0
C1401 C 0.74992 0.50102 0.4622 0.0
C1402 C 0.75959 0.52844 0.63624 0.0
C1403 C 0.75094 0.50179 0.39121 0.0
C1404 C 0.73927 0.52154 0.91408 0.0
C1405 C 0.74059 0.52243 0.84331 0.0
C1406 C 0.73217 0.49552 0.67067 0.0
C1407 C 0.74975 0.51433 0.50725 0.0
C1408 C 0.74784 0.51314 0.58224 0.0
C1409 C 0.74191 0.50961 0.79937 0.0
C1410 C 0.74389 0.51083 0.72455 0.0
H1411 H 0.75302 0.54057 0.3891 0.0
H1412 H 0.75084 0.53908 0.51268 0.0
H1413 H 0.72449 0.48466 0.5601 0.0
H1414 H 0.74046 0.48421 0.91901 0.0
H1415 H 0.74276 0.48575 0.79544 0.0
C1416 C 0.53561 0.2007 0.36344 0.0
C1417 C 0.52002 0.18633 0.30974 0.0
C1418 C 0.53401 0.20023 0.43426 0.0
C1419 C 0.51082 0.16951 0.55482 0.0
H1420 H 0.51846 0.2104 0.67704 0.0
C1421 C 0.49694 0.16811 0.84198 0.0
C1422 C 0.5114 0.18361 0.89295 0.0
C1423 C 0.49708 0.16817 0.77005 0.0
C1424 C 0.51654 0.19893 0.64394 0.0
H1425 H 0.49082 0.16001 0.28823 0.0
H1426 H 0.48827 0.1591 0.41187 0.0
H1427 H 0.52119 0.21118 0.55354 0.0
H1428 H 0.53744 0.21129 0.90837 0.0
H1429 H 0.53798 0.21129 0.78393 0.0
H1430 H 0.50663 0.15737 0.6453 0.0
C1431 C 0.50163 0.17076 0.39917 0.0
C1432 C 0.51807 0.19939 0.57314 0.0
C1433 C 0.5031 0.17131 0.3284 0.0
C1434 C 0.5259 0.19915 0.87051 0.0
C1435 C 0.52615 0.19918 0.7989 0.0
C1436 C 0.50948 0.1691 0.62584 0.0
C1437 C 0.517 0.18525 0.45281 0.0
C1438 C 0.51529 0.18471 0.5279 0.0
C1439 C 0.51177 0.18371 0.74765 0.0
C1440 C 0.51241 0.18384 0.67141 0.0
H1441 H 0.54914 0.21226 0.35084 0.0
H1442 H 0.54627 0.21148 0.47463 0.0
H1443 H 0.50881 0.15805 0.52126 0.0
H1444 H 0.48548 0.15596 0.85763 0.0
H1445 H 0.48557 0.15608 0.732 0.0
C1446 C 0.93168 0.33688 0.46265 0.0
C1447 C 0.91431 0.33598 0.42072 0.0
C1448 C 0.93196 0.3361 0.5341 0.0
C1449 C 0.89636 0.32145 0.66295 0.0
H1450 H 0.94852 0.35475 0.80157 0.0
C1451 C 0.89675 0.33161 0.96087 0.0
C1452 C 0.91437 0.33404 0.00741 0.0
C1453 C 0.89697 0.33128 0.88903 0.0
C1454 C 0.93391 0.34519 0.76348 0.0
H1455 H 0.88386 0.33393 0.42106 0.0
H1456 H 0.88432 0.3325 0.54558 0.0
H1457 H 0.94857 0.3551 0.67631 0.0
H1458 H 0.94597 0.33785 0.01509 0.0
H1459 H 0.94624 0.33707 0.88947 0.0
H1460 H 0.88167 0.31153 0.74988 0.0
C1461 C 0.89755 0.33354 0.523 0.0
C1462 C 0.93394 0.34541 0.69175 0.0
C1463 C 0.89732 0.33441 0.45174 0.0
C1464 C 0.9322 0.33608 0.9806 0.0
C1465 C 0.93239 0.33569 0.90868 0.0
C1466 C 0.89635 0.32119 0.73459 0.0
C1467 C 0.91486 0.33437 0.56494 0.0
C1468 C 0.91511 0.33365 0.64082 0.0
C1469 C 0.91479 0.33332 0.86207 0.0
C1470 C 0.91506 0.33316 0.78575 0.0
H1471 H 0.945 0.33808 0.44018 0.0
H1472 H 0.94543 0.33663 0.56503 0.0
H1473 H 0.88171 0.31204 0.62478 0.0
H1474 H 0.88286 0.33016 0.98002 0.0
H1475 H 0.8833 0.32972 0.85478 0.0
C1476 C 0.43168 0.90682 0.48351 0.0
C1477 C 0.42618 0.89172 0.51257 0.0
C1478 C 0.43191 0.90617 0.41158 0.0
C1479 C 0.41141 0.87493 0.23991 0.0
H1480 H 0.45704 0.91565 0.18135 0.0
C1481 C 0.4239 0.87525 0.95061 0.0
C1482 C 0.42767 0.89048 0.92534 0.0
C1483 C 0.42388 0.87481 0.02227 0.0
C1484 C 0.44413 0.90422 0.19693 0.0
H1485 H 0.41667 0.8641 0.48901 0.0
H1486 H 0.41732 0.86304 0.36369 0.0
H1487 H 0.45662 0.91601 0.30664 0.0
H1488 H 0.43391 0.91703 0.9549 0.0
H1489 H 0.43418 0.91632 0.07963 0.0
H1490 H 0.39901 0.86316 0.12981 0.0
C1491 C 0.42111 0.8753 0.39624 0.0
C1492 C 0.44384 0.90445 0.26864 0.0
C1493 C 0.4208 0.87593 0.46815 0.0
C1494 C 0.43136 0.90521 0.97292 0.0
C1495 C 0.43149 0.90482 0.04438 0.0
C1496 C 0.41176 0.87468 0.16808 0.0
C1497 C 0.42675 0.89044 0.36718 0.0
C1498 C 0.42736 0.88989 0.29095 0.0
C1499 C 0.42781 0.88964 0.06985 0.0
C1500 C 0.428 0.88941 0.14593 0.0
H1501 H 0.43578 0.91915 0.51625 0.0
H1502 H 0.43597 0.91798 0.39063 0.0
H1503 H 0.39836 0.86358 0.25533 0.0
H1504 H 0.42116 0.86375 0.91517 0.0
H1505 H 0.42114 0.86298 0.04064 0.0
C1506 C 0.28785 0.52825 0.00996 0.0
C1507 C 0.29801 0.54411 0.98423 0.0
C1508 C 0.28841 0.52876 0.08209 0.0
C1509 C 0.28022 0.53454 0.22897 0.0
H1510 H 0.33374 0.56496 0.3655 0.0
C1511 C 0.31114 0.56002 0.54965 0.0
C1512 C 0.29865 0.54371 0.57047 0.0
C1513 C 0.31156 0.5606 0.47838 0.0
C1514 C 0.31863 0.55657 0.32806 0.0
H1515 H 0.31709 0.57294 0.01397 0.0
H1516 H 0.31808 0.57377 0.14037 0.0
H1517 H 0.33356 0.56517 0.23982 0.0
H1518 H 0.27678 0.51524 0.53333 0.0
H1519 H 0.27808 0.51616 0.40939 0.0
H1520 H 0.26519 0.52603 0.31668 0.0
C1521 C 0.30971 0.56099 0.10449 0.0
C1522 C 0.31855 0.55668 0.25626 0.0
C1523 C 0.30902 0.56049 0.03219 0.0
C1524 C 0.28677 0.52799 0.51895 0.0
C1525 C 0.28728 0.52854 0.44785 0.0
C1526 C 0.28027 0.53451 0.30062 0.0
C1527 C 0.29926 0.54512 0.12994 0.0
C1528 C 0.29936 0.54553 0.20612 0.0
C1529 C 0.29954 0.54486 0.42672 0.0
C1530 C 0.2995 0.54539 0.35089 0.0
H1531 H 0.27929 0.51541 0.97444 0.0
H1532 H 0.28046 0.51633 0.10052 0.0
H1533 H 0.26514 0.52605 0.1914 0.0
H1534 H 0.3205 0.57235 0.5884 0.0
H1535 H 0.321 0.57339 0.46366 0.0
C1536 C 0.60896 0.71241 0.58829 0.0
C1537 C 0.59581 0.71671 0.62093 0.0
C1538 C 0.60884 0.71206 0.51638 0.0
C1539 C 0.57601 0.70684 0.35026 0.0
H1540 H 0.63045 0.73123 0.28798 0.0
C1541 C 0.58106 0.71781 0.06538 0.0
C1542 C 0.59625 0.71605 0.03438 0.0
C1543 C 0.58085 0.71756 0.13685 0.0
C1544 C 0.61512 0.72414 0.30438 0.0
H1545 H 0.57204 0.72381 0.60375 0.0
H1546 H 0.57178 0.72309 0.47773 0.0
H1547 H 0.63025 0.73125 0.41331 0.0
H1548 H 0.62318 0.7127 0.05353 0.0
H1549 H 0.62244 0.71174 0.17805 0.0
H1550 H 0.56083 0.69951 0.24143 0.0
C1551 C 0.58214 0.71999 0.50801 0.0
C1552 C 0.61502 0.72421 0.37609 0.0
C1553 C 0.5824 0.7205 0.58013 0.0
C1554 C 0.6112 0.71398 0.07604 0.0
C1555 C 0.61091 0.71361 0.14745 0.0
C1556 C 0.57609 0.70664 0.27844 0.0
C1557 C 0.59543 0.71585 0.47565 0.0
C1558 C 0.59547 0.71561 0.39964 0.0
C1559 C 0.59577 0.71545 0.17867 0.0
C1560 C 0.59565 0.71535 0.25476 0.0
H1561 H 0.61948 0.70942 0.61827 0.0
H1562 H 0.61909 0.70867 0.49245 0.0
H1563 H 0.56072 0.69993 0.36711 0.0
H1564 H 0.5693 0.71938 0.03443 0.0
H1565 H 0.56919 0.71927 0.15951 0.0
loop_
_geom_bond_atom_site_label_1
_geom_bond_atom_site_label_2
_geom_bond_distance
_geom_bond_site_symmetry_2
_ccdc_geom_bond_type
Eu0 N29 2.600 1_454 S
Eu0 N35 2.562 1_455 S
Eu0 O44 2.463 1_455 S
Eu0 O45 2.373 . S
Eu0 O47 2.432 1_455 S
Eu0 O48 2.291 . S
Eu0 O52 2.335 . S
Eu0 O55 2.372 1_554 S
Eu0 C64 2.787 1_455 S
C1 N2 1.365 . S
C1 C4 1.405 . S
C1 C8 1.448 . S
N2 C1 1.365 . S
N2 C5 1.319 . S
N2 Eu11 2.600 . S
C3 C5 1.397 . S
C3 C6 1.367 . S
C3 H23 0.931 . S
C4 C1 1.405 . S
C4 C6 1.403 . S
C4 C10 1.439 . S
C5 N2 1.319 . S
C5 C3 1.397 . S
C5 H16 0.930 . S
C6 C3 1.367 . S
C6 C4 1.403 . S
C6 H27 0.929 . S
C7 C8 1.430 . S
C7 C9 1.387 . S
C7 C13 1.404 . S
C8 C1 1.448 . S
C8 C7 1.430 . S
C8 N12 1.351 . S
C9 C7 1.387 . S
C9 C10 1.374 . S
C9 H24 0.931 . S
C10 C4 1.439 . S
C10 C9 1.374 . S
C10 H25 0.931 . S
Eu11 N2 2.600 . S
Eu11 N12 2.562 . S
Eu11 O46 2.335 . S
Eu11 O49 2.372 . S
Eu11 O50 2.462 . S
Eu11 O51 2.373 . S
Eu11 O53 2.432 . S
Eu11 O54 2.291 . S
Eu11 C75 2.787 . S
N12 C8 1.351 . S
N12 Eu11 2.562 . S
N12 C14 1.325 . S
C13 C7 1.404 . S
C13 C15 1.366 . S
C13 H21 0.930 . S
C14 N12 1.325 . S
C14 C15 1.416 . S
C14 H20 0.929 . S
C15 C13 1.366 . S
C15 C14 1.416 . S
C15 H17 0.930 1_554 S
H16 C5 0.930 . S
H17 C15 0.930 1_556 S
H18 C33 0.930 . S
H19 C40 0.930 . S
H20 C14 0.929 . S
H21 C13 0.930 . S
H22 C36 0.929 . S
H23 C3 0.931 . S
H24 C9 0.931 . S
H25 C10 0.931 . S
H26 C31 0.931 . S
H27 C6 0.929 . S
H28 C39 0.930 . S
N29 Eu0 2.600 1_656 S
N29 C30 1.365 1_556 S
N29 C33 1.319 . S
C30 N29 1.365 1_554 S
C30 C32 1.405 1_554 S
C30 C38 1.448 . S
C31 H26 0.931 . S
C31 C33 1.397 . S
C31 C34 1.367 . S
C32 C30 1.405 1_556 S
C32 C34 1.403 . S
C32 C65 1.439 . S
C33 H18 0.930 . S
C33 N29 1.319 . S
C33 C31 1.397 . S
C34 C31 1.367 . S
C34 C32 1.403 . S
C34 H41 0.929 . S
N35 Eu0 2.562 1_655 S
N35 C36 1.325 . S
N35 C38 1.351 . S
C36 H22 0.929 . S
C36 N35 1.325 . S
C36 C40 1.416 . S
C37 C38 1.430 . S
C37 C39 1.404 . S
C37 C66 1.387 . S
C38 C30 1.448 . S
C38 N35 1.351 . S
C38 C37 1.430 . S
C39 H28 0.930 . S
C39 C37 1.404 . S
C39 C40 1.366 . S
C40 H19 0.930 . S
C40 C36 1.416 . S
C40 C39 1.366 . S
H41 C34 0.929 . S
H42 C65 0.931 . S
H43 C66 0.931 . S
O44 Eu0 2.463 1_655 S
O44 C64 1.251 . S
O45 Eu0 2.373 . S
O45 C56 1.249 . S
O46 Eu11 2.335 . S
O46 C56 1.264 . S
O47 Eu0 2.432 1_655 S
O47 C64 1.268 . S
O48 Eu0 2.291 . S
O48 C63 1.255 . S
O49 Eu11 2.372 . S
O49 C63 1.257 . S
O50 Eu11 2.462 . S
O50 C75 1.252 . S
O51 Eu11 2.373 . S
O51 C67 1.249 . S
O52 Eu0 2.335 . S
O52 C67 1.264 . S
O53 Eu11 2.432 . S
O53 C75 1.268 . S
O54 Eu11 2.291 . S
O54 C74 1.255 1_554 S
O55 Eu0 2.372 1_556 S
O55 C74 1.257 . S
C56 O45 1.249 . S
C56 O46 1.264 . S
C57 C60 1.382 . S
C57 C62 1.390 . S
C57 C64 1.506 . S
C58 C59 1.398 . S
C58 C62 1.392 . S
C59 C58 1.398 . S
C59 C61 1.372 . S
C59 H76 0.931 . S
C60 C57 1.382 . S
C60 C61 1.390 . S
C60 H77 0.931 1_554 S
C61 C59 1.372 . S
C61 C60 1.390 . S
C61 H78 0.929 1_554 S
C62 C57 1.390 . S
C62 C58 1.392 . S
C62 H79 0.930 . S
C63 O48 1.255 . S
C63 O49 1.257 . S
C64 Eu0 2.787 1_655 S
C64 O44 1.251 . S
C64 O47 1.268 . S
C64 C57 1.506 . S
C65 C32 1.439 . S
C65 H42 0.931 . S
C65 C66 1.374 1_556 S
C66 C37 1.387 . S
C66 H43 0.931 . S
C66 C65 1.374 1_554 S
C67 O51 1.249 . S
C67 O52 1.264 . S
C68 C71 1.382 . S
C68 C72 1.390 . S
C68 C75 1.506 . S
C69 C70 1.398 . S
C69 C72 1.392 . S
C70 C69 1.398 . S
C70 C73 1.372 . S
C70 H80 0.931 . S
C71 C68 1.382 . S
C71 C73 1.390 . S
C71 H81 0.931 . S
C72 C68 1.390 . S
C72 C69 1.392 . S
C72 H82 0.930 . S
C73 C70 1.372 . S
C73 C71 1.390 . S
C73 H83 0.929 . S
C74 O54 1.255 1_556 S
C74 O55 1.257 . S
C75 Eu11 2.787 . S
C75 O50 1.252 . S
C75 O53 1.268 . S
C75 C68 1.506 . S
H76 C59 0.931 . S
H77 C60 0.931 1_556 S
H78 C61 0.929 1_556 S
H79 C62 0.930 . S
H80 C70 0.931 . S
H81 C71 0.931 . S
H82 C72 0.930 . S
H83 C73 0.929 . S
Eu84 N113 2.600 . S
Eu84 N119 2.562 . S
Eu84 O128 2.462 . S
Eu84 O129 2.373 . S
Eu84 O131 2.432 . S
Eu84 O132 2.291 . S
Eu84 O136 2.335 . S
Eu84 O139 2.372 . S
Eu84 C148 2.787 . S
C85 N86 1.365 1_554 S
C85 C88 1.405 1_554 S
C85 C92 1.448 . S
N86 C85 1.365 1_556 S
N86 C89 1.319 . S
N86 Eu95 2.600 1_556 S
C87 C89 1.397 . S
C87 C90 1.367 . S
C87 H107 0.931 . S
C88 C85 1.405 1_556 S
C88 C90 1.403 . S
C88 C94 1.439 1_556 S
C89 N86 1.319 . S
C89 C87 1.397 . S
C89 H100 0.930 . S
C90 C87 1.367 . S
C90 C88 1.403 . S
C90 H111 0.929 . S
C91 C92 1.430 . S
C91 C93 1.387 . S
C91 C97 1.404 . S
C92 C85 1.448 . S
C92 C91 1.430 . S
C92 N96 1.351 . S
C93 C91 1.387 . S
C93 C94 1.374 . S
C93 H108 0.931 . S
C94 C88 1.439 1_554 S
C94 C93 1.374 . S
C94 H109 0.931 1_554 S
Eu95 N86 2.600 1_554 S
Eu95 N96 2.562 . S
Eu95 O130 2.335 . S
Eu95 O133 2.372 1_554 S
Eu95 O134 2.462 . S
Eu95 O135 2.373 . S
Eu95 O137 2.432 . S
Eu95 O138 2.291 . S
Eu95 C159 2.787 . S
N96 C92 1.351 . S
N96 Eu95 2.562 . S
N96 C98 1.325 . S
C97 C91 1.404 . S
C97 C99 1.366 . S
C97 H105 0.930 . S
C98 N96 1.325 . S
C98 C99 1.416 . S
C98 H104 0.929 . S
C99 C97 1.366 . S
C99 C98 1.416 . S
C99 H101 0.930 . S
H100 C89 0.930 . S
H101 C99 0.930 . S
H102 C117 0.930 . S
H103 C124 0.930 . S
H104 C98 0.929 . S
H105 C97 0.930 . S
H106 C120 0.936 . S
H107 C87 0.931 . S
H108 C93 0.931 . S
H109 C94 0.931 1_556 S
H110 C115 0.931 . S
H111 C90 0.929 . S
H112 C123 0.926 1_556 S
N113 Eu84 2.600 . S
N113 C114 1.365 . S
N113 C117 1.319 . S
C114 N113 1.365 . S
C114 C116 1.405 . S
C114 C122 1.448 . S
C115 H110 0.931 . S
C115 C117 1.397 . S
C115 C118 1.367 . S
C116 C114 1.405 . S
C116 C118 1.403 . S
C116 C149 1.439 . S
C117 H102 0.930 . S
C117 N113 1.319 . S
C117 C115 1.397 . S
C118 C115 1.367 . S
C118 C116 1.403 . S
C118 H125 0.929 . S
N119 Eu84 2.562 . S
N119 C120 1.315 1_554 S
N119 C122 1.351 . S
C120 H106 0.936 . S
C120 N119 1.315 1_556 S
C120 C124 1.420 . S
C121 C122 1.430 . S
C121 C123 1.418 . S
C121 C150 1.387 . S
C122 C114 1.448 . S
C122 N119 1.351 . S
C122 C121 1.430 . S
C123 H112 0.926 1_554 S
C123 C121 1.418 . S
C123 C124 1.357 1_554 S
C124 H103 0.930 . S
C124 C120 1.420 . S
C124 C123 1.357 1_556 S
H125 C118 0.929 . S
H126 C149 0.931 . S
H127 C150 0.931 . S
O128 Eu84 2.462 . S
O128 C148 1.252 . S
O129 Eu84 2.373 . S
O129 C140 1.249 . S
O130 Eu95 2.335 . S
O130 C140 1.264 . S
O131 Eu84 2.432 . S
O131 C148 1.268 . S
O132 Eu84 2.291 . S
O132 C147 1.255 1_554 S
O133 Eu95 2.372 1_556 S
O133 C147 1.257 . S
O134 Eu95 2.462 . S
O134 C159 1.252 . S
O135 Eu95 2.373 . S
O135 C151 1.249 . S
O136 Eu84 2.335 . S
O136 C151 1.264 . S
O137 Eu95 2.432 . S
O137 C159 1.268 . S
O138 Eu95 2.291 . S
O138 C158 1.255 . S
O139 Eu84 2.372 . S
O139 C158 1.257 . S
C140 O129 1.249 . S
C140 O130 1.264 . S
C141 C144 1.382 . S
C141 C146 1.390 . S
C141 C148 1.506 . S
C142 C143 1.398 . S
C142 C146 1.392 . S
C143 C142 1.398 . S
C143 C145 1.372 . S
C143 H160 0.931 . S
C144 C141 1.382 . S
C144 C145 1.390 . S
C144 H161 0.931 . S
C145 C143 1.372 . S
C145 C144 1.390 . S
C145 H162 0.929 . S
C146 C141 1.390 . S
C146 C142 1.392 . S
C146 H163 0.930 . S
C147 O132 1.255 1_556 S
C147 O133 1.257 . S
C148 Eu84 2.787 . S
C148 O128 1.252 . S
C148 O131 1.268 . S
C148 C141 1.506 . S
C149 C116 1.439 . S
C149 H126 0.931 . S
C149 C150 1.374 . S
C150 C121 1.387 . S
C150 H127 0.931 . S
C150 C149 1.374 . S
C151 O135 1.249 . S
C151 O136 1.264 . S
C152 C155 1.382 . S
C152 C156 1.390 . S
C152 C159 1.506 . S
C153 C154 1.398 . S
C153 C156 1.392 . S
C154 C153 1.398 . S
C154 C157 1.372 . S
C154 H164 0.931 . S
C155 C152 1.382 . S
C155 C157 1.390 . S
C155 H165 0.931 1_554 S
C156 C152 1.390 . S
C156 C153 1.392 . S
C156 H166 0.930 . S
C157 C154 1.372 . S
C157 C155 1.390 . S
C157 H167 0.929 1_554 S
C158 O138 1.255 . S
C158 O139 1.257 . S
C159 Eu95 2.787 . S
C159 O134 1.252 . S
C159 O137 1.268 . S
C159 C152 1.506 . S
H160 C143 0.931 . S
H161 C144 0.931 . S
H162 C145 0.929 . S
H163 C146 0.930 . S
H164 C154 0.931 . S
H165 C155 0.931 1_556 S
H166 C156 0.930 . S
H167 C157 0.929 1_556 S
Eu168 N197 2.600 . S
Eu168 N203 2.562 1_556 S
Eu168 O212 2.462 1_556 S
Eu168 O213 2.373 . S
Eu168 O215 2.432 . S
Eu168 O216 2.291 1_556 S
Eu168 O220 2.335 . S
Eu168 O223 2.372 . S
Eu168 C232 2.787 1_556 S
C169 N170 1.365 . S
C169 C172 1.405 . S
C169 C176 1.448 1_554 S
N170 C169 1.365 . S
N170 C173 1.319 . S
N170 Eu179 2.600 . S
C171 C173 1.397 . S
C171 C174 1.367 . S
C171 H191 0.931 . S
C172 C169 1.405 . S
C172 C174 1.403 . S
C172 C178 1.439 . S
C173 N170 1.319 . S
C173 C171 1.397 . S
C173 H184 0.930 . S
C174 C171 1.367 . S
C174 C172 1.403 . S
C174 H195 0.929 . S
C175 C176 1.430 . S
C175 C177 1.387 . S
C175 C181 1.404 . S
C176 C169 1.448 1_556 S
C176 C175 1.430 . S
C176 N180 1.351 . S
C177 C175 1.387 . S
C177 C178 1.374 1_556 S
C177 H192 0.931 . S
C178 C172 1.439 . S
C178 C177 1.374 1_554 S
C178 H193 0.931 . S
Eu179 N170 2.600 . S
Eu179 N180 2.562 1_554 S
Eu179 O214 2.335 1_565 S
Eu179 O217 2.372 1_565 S
Eu179 O218 2.462 1_554 S
Eu179 O219 2.373 . S
Eu179 O221 2.432 . S
Eu179 O222 2.291 1_554 S
Eu179 C243 2.787 1_554 S
N180 C176 1.351 . S
N180 Eu179 2.562 1_556 S
N180 C182 1.325 . S
C181 C175 1.404 . S
C181 C183 1.366 . S
C181 H189 0.930 . S
C182 N180 1.325 . S
C182 C183 1.416 . S
C182 H188 0.929 . S
C183 C181 1.366 . S
C183 C182 1.416 . S
C183 H185 0.930 . S
H184 C173 0.930 . S
H185 C183 0.930 . S
H186 C201 0.930 . S
H187 C208 0.930 . S
H188 C182 0.929 . S
H189 C181 0.930 . S
H190 C204 0.929 . S
H191 C171 0.931 . S
H192 C177 0.931 . S
H193 C178 0.931 . S
H194 C199 0.931 . S
H195 C174 0.929 . S
H196 C207 0.930 . S
N197 Eu168 2.600 . S
N197 C198 1.365 . S
N197 C201 1.319 . S
C198 N197 1.365 . S
C198 C200 1.405 . S
C198 C206 1.448 1_556 S
C199 H194 0.931 . S
C199 C201 1.397 . S
C199 C202 1.367 . S
C200 C198 1.405 . S
C200 C202 1.403 . S
C200 C233 1.439 . S
C201 H186 0.930 . S
C201 N197 1.319 . S
C201 C199 1.397 . S
C202 C199 1.367 . S
C202 C200 1.403 . S
C202 H209 0.929 . S
N203 Eu168 2.562 1_554 S
N203 C204 1.325 . S
N203 C206 1.351 . S
C204 H190 0.929 . S
C204 N203 1.325 . S
C204 C208 1.416 . S
C205 C206 1.430 . S
C205 C207 1.404 . S
C205 C234 1.387 . S
C206 C198 1.448 1_554 S
C206 N203 1.351 . S
C206 C205 1.430 . S
C207 H196 0.930 . S
C207 C205 1.404 . S
C207 C208 1.366 . S
C208 H187 0.930 . S
C208 C204 1.416 . S
C208 C207 1.366 . S
H209 C202 0.929 . S
H210 C233 0.931 . S
H211 C234 0.931 . S
O212 Eu168 2.462 1_554 S
O212 C232 1.252 . S
O213 Eu168 2.373 . S
O213 C224 1.249 1_556 S
O214 Eu179 2.335 1_545 S
O214 C224 1.264 . S
O215 Eu168 2.432 . S
O215 C232 1.268 1_556 S
O216 Eu168 2.291 1_554 S
O216 C231 1.255 . S
O217 Eu179 2.372 1_545 S
O217 C231 1.257 . S
O218 Eu179 2.462 1_556 S
O218 C243 1.252 . S
O219 Eu179 2.373 . S
O219 C235 1.249 1_554 S
O220 Eu168 2.335 . S
O220 C235 1.264 1_545 S
O221 Eu179 2.432 . S
O221 C243 1.268 1_554 S
O222 Eu179 2.291 1_556 S
O222 C242 1.255 1_565 S
O223 Eu168 2.372 . S
O223 C242 1.257 . S
C224 O213 1.249 1_554 S
C224 O214 1.264 . S
C225 C228 1.382 1_554 S
C225 C230 1.390 . S
C225 C232 1.506 . S
C226 C227 1.398 . S
C226 C230 1.392 . S
C227 C226 1.398 . S
C227 C229 1.372 1_554 S
C227 H244 0.931 . S
C228 C225 1.382 1_556 S
C228 C229 1.390 . S
C228 H245 0.931 . S
C229 C227 1.372 1_556 S
C229 C228 1.390 . S
C229 H246 0.929 . S
C230 C225 1.390 . S
C230 C226 1.392 . S
C230 H247 0.930 . S
C231 O216 1.255 . S
C231 O217 1.257 . S
C232 Eu168 2.787 1_554 S
C232 O212 1.252 . S
C232 O215 1.268 1_554 S
C232 C225 1.506 . S
C233 C200 1.439 . S
C233 H210 0.931 . S
C233 C234 1.374 1_556 S
C234 C205 1.387 . S
C234 H211 0.931 . S
C234 C233 1.374 1_554 S
C235 O219 1.249 1_556 S
C235 O220 1.264 1_565 S
C236 C239 1.382 1_556 S
C236 C240 1.390 . S
C236 C243 1.506 . S
C237 C238 1.398 . S
C237 C240 1.392 . S
C238 C237 1.398 . S
C238 C241 1.372 1_556 S
C238 H248 0.931 . S
C239 C236 1.382 1_554 S
C239 C241 1.390 . S
C239 H249 0.931 . S
C240 C236 1.390 . S
C240 C237 1.392 . S
C240 H250 0.930 . S
C241 C238 1.372 1_554 S
C241 C239 1.390 . S
C241 H251 0.929 . S
C242 O222 1.255 1_545 S
C242 O223 1.257 . S
C243 Eu179 2.787 1_556 S
C243 O218 1.252 . S
C243 O221 1.268 1_556 S
C243 C236 1.506 . S
H244 C227 0.931 . S
H245 C228 0.931 . S
H246 C229 0.929 . S
H247 C230 0.930 . S
H248 C238 0.931 . S
H249 C239 0.931 . S
H250 C240 0.930 . S
H251 C241 0.929 . S
Eu252 N281 2.600 . S
Eu252 N287 2.562 . S
Eu252 O296 2.462 . S
Eu252 O297 2.373 . S
Eu252 O299 2.432 . S
Eu252 O300 2.291 . S
Eu252 O304 2.335 . S
Eu252 O307 2.372 . S
Eu252 C316 2.787 . S
C253 N254 1.365 . S
C253 C256 1.405 . S
C253 C260 1.448 . S
N254 C253 1.365 . S
N254 C257 1.319 1_554 S
N254 Eu263 2.600 . S
C255 C257 1.397 . S
C255 C258 1.367 . S
C255 H275 0.931 . S
C256 C253 1.405 . S
C256 C258 1.403 1_554 S
C256 C262 1.439 . S
C257 N254 1.319 1_556 S
C257 C255 1.397 . S
C257 H268 0.930 . S
C258 C255 1.367 . S
C258 C256 1.403 1_556 S
C258 H279 0.929 . S
C259 C260 1.430 . S
C259 C261 1.387 . S
C259 C265 1.404 . S
C260 C253 1.448 . S
C260 C259 1.430 . S
C260 N264 1.351 . S
C261 C259 1.387 . S
C261 C262 1.374 . S
C261 H276 0.931 . S
C262 C256 1.439 . S
C262 C261 1.374 . S
C262 H277 0.931 . S
Eu263 N254 2.600 . S
Eu263 N264 2.562 . S
Eu263 O298 2.335 . S
Eu263 O301 2.372 . S
Eu263 O302 2.462 . S
Eu263 O303 2.373 . S
Eu263 O305 2.432 . S
Eu263 O306 2.291 . S
Eu263 C327 2.787 . S
N264 C260 1.351 . S
N264 Eu263 2.562 . S
N264 C266 1.325 . S
C265 C259 1.404 . S
C265 C267 1.366 . S
C265 H273 0.930 . S
C266 N264 1.325 . S
C266 C267 1.416 . S
C266 H272 0.929 . S
C267 C265 1.366 . S
C267 C266 1.416 . S
C267 H269 0.930 . S
H268 C257 0.930 . S
H269 C267 0.930 . S
H270 C285 0.930 . S
H271 C292 0.930 . S
H272 C266 0.929 . S
H273 C265 0.930 . S
H274 C288 0.929 . S
H275 C255 0.931 . S
H276 C261 0.931 . S
H277 C262 0.931 . S
H278 C283 0.931 . S
H279 C258 0.929 . S
H280 C291 0.930 . S
N281 Eu252 2.600 . S
N281 C282 1.365 . S
N281 C285 1.319 . S
C282 N281 1.365 . S
C282 C284 1.405 . S
C282 C290 1.448 . S
C283 H278 0.931 . S
C283 C285 1.397 . S
C283 C286 1.367 . S
C284 C282 1.405 . S
C284 C286 1.403 . S
C284 C317 1.439 . S
C285 H270 0.930 . S
C285 N281 1.319 . S
C285 C283 1.397 . S
C286 C283 1.367 . S
C286 C284 1.403 . S
C286 H293 0.929 . S
N287 Eu252 2.562 . S
N287 C288 1.325 . S
N287 C290 1.351 . S
C288 H274 0.929 . S
C288 N287 1.325 . S
C288 C292 1.416 . S
C289 C290 1.430 . S
C289 C291 1.404 . S
C289 C318 1.387 . S
C290 C282 1.448 . S
C290 N287 1.351 . S
C290 C289 1.430 . S
C291 H280 0.930 . S
C291 C289 1.404 . S
C291 C292 1.366 . S
C292 H271 0.930 . S
C292 C288 1.416 . S
C292 C291 1.366 . S
H293 C286 0.929 . S
H294 C317 0.931 . S
H295 C318 0.931 . S
O296 Eu252 2.462 . S
O296 C316 1.252 . S
O297 Eu252 2.373 . S
O297 C308 1.249 . S
O298 Eu263 2.335 . S
O298 C308 1.264 . S
O299 Eu252 2.432 . S
O299 C316 1.268 . S
O300 Eu252 2.291 . S
O300 C315 1.255 . S
O301 Eu263 2.372 . S
O301 C315 1.257 . S
O302 Eu263 2.462 . S
O302 C327 1.252 . S
O303 Eu263 2.373 . S
O303 C319 1.249 . S
O304 Eu252 2.335 . S
O304 C319 1.264 . S
O305 Eu263 2.432 . S
O305 C327 1.268 . S
O306 Eu263 2.291 . S
O306 C326 1.255 . S
O307 Eu252 2.372 . S
O307 C326 1.257 . S
C308 O297 1.249 . S
C308 O298 1.264 . S
C309 C312 1.382 . S
C309 C314 1.390 . S
C309 C316 1.506 . S
C310 C311 1.398 . S
C310 C314 1.392 . S
C311 C310 1.398 . S
C311 C313 1.372 . S
C311 H328 0.931 . S
C312 C309 1.382 . S
C312 C313 1.390 . S
C312 H329 0.931 . S
C313 C311 1.372 . S
C313 C312 1.390 . S
C313 H330 0.929 . S
C314 C309 1.390 . S
C314 C310 1.392 . S
C314 H331 0.930 . S
C315 O300 1.255 . S
C315 O301 1.257 . S
C316 Eu252 2.787 . S
C316 O296 1.252 . S
C316 O299 1.268 . S
C316 C309 1.506 . S
C317 C284 1.439 . S
C317 H294 0.931 . S
C317 C318 1.374 . S
C318 C289 1.387 . S
C318 H295 0.931 . S
C318 C317 1.374 . S
C319 O303 1.249 . S
C319 O304 1.264 . S
C320 C323 1.382 . S
C320 C324 1.390 . S
C320 C327 1.506 . S
C321 C322 1.398 . S
C321 C324 1.392 . S
C322 C321 1.398 . S
C322 C325 1.372 . S
C322 H332 0.931 . S
C323 C320 1.382 . S
C323 C325 1.390 . S
C323 H333 0.931 . S
C324 C320 1.390 . S
C324 C321 1.392 . S
C324 H334 0.930 . S
C325 C322 1.372 . S
C325 C323 1.390 . S
C325 H335 0.929 . S
C326 O306 1.255 . S
C326 O307 1.257 . S
C327 Eu263 2.787 . S
C327 O302 1.252 . S
C327 O305 1.268 . S
C327 C320 1.506 . S
H328 C311 0.931 . S
H329 C312 0.931 . S
H330 C313 0.929 . S
H331 C314 0.930 . S
H332 C322 0.931 . S
H333 C323 0.931 . S
H334 C324 0.930 . S
H335 C325 0.929 . S
Eu336 N365 2.600 . S
Eu336 N371 2.562 . S
Eu336 O380 2.462 . S
Eu336 O381 2.373 . S
Eu336 O383 2.432 . S
Eu336 O384 2.291 . S
Eu336 O388 2.335 . S
Eu336 O391 2.372 . S
Eu336 C400 2.787 . S
C337 N338 1.365 1_554 S
C337 C340 1.405 1_554 S
C337 C344 1.448 . S
N338 C337 1.365 1_556 S
N338 C341 1.319 . S
N338 Eu347 2.600 1_556 S
C339 C341 1.397 . S
C339 C342 1.367 . S
C339 H359 0.931 . S
C340 C337 1.405 1_556 S
C340 C342 1.403 . S
C340 C346 1.439 1_556 S
C341 N338 1.319 . S
C341 C339 1.397 . S
C341 H352 0.930 . S
C342 C339 1.367 . S
C342 C340 1.403 . S
C342 H363 0.929 . S
C343 C344 1.430 . S
C343 C345 1.387 . S
C343 C349 1.404 . S
C344 C337 1.448 . S
C344 C343 1.430 . S
C344 N348 1.351 . S
C345 C343 1.387 . S
C345 C346 1.374 . S
C345 H360 0.931 . S
C346 C340 1.439 1_554 S
C346 C345 1.374 . S
C346 H361 0.931 1_554 S
Eu347 N338 2.600 1_554 S
Eu347 N348 2.562 . S
Eu347 O382 2.335 . S
Eu347 O385 2.372 1_554 S
Eu347 O386 2.462 . S
Eu347 O387 2.373 . S
Eu347 O389 2.432 . S
Eu347 O390 2.291 . S
Eu347 C411 2.787 . S
N348 C344 1.351 . S
N348 Eu347 2.562 . S
N348 C350 1.325 . S
C349 C343 1.404 . S
C349 C351 1.366 . S
C349 H357 0.930 . S
C350 N348 1.325 . S
C350 C351 1.416 . S
C350 H356 0.929 . S
C351 C349 1.366 . S
C351 C350 1.416 . S
C351 H353 0.930 . S
H352 C341 0.930 . S
H353 C351 0.930 . S
H354 C369 0.930 . S
H355 C376 0.930 . S
H356 C350 0.929 . S
H357 C349 0.930 . S
H358 C372 0.929 . S
H359 C339 0.931 . S
H360 C345 0.931 . S
H361 C346 0.931 1_556 S
H362 C367 0.931 . S
H363 C342 0.929 . S
H364 C375 0.930 . S
N365 Eu336 2.600 . S
N365 C366 1.365 . S
N365 C369 1.319 . S
C366 N365 1.365 . S
C366 C368 1.405 . S
C366 C374 1.448 . S
C367 H362 0.931 . S
C367 C369 1.397 . S
C367 C370 1.367 . S
C368 C366 1.405 . S
C368 C370 1.403 . S
C368 C401 1.439 . S
C369 H354 0.930 . S
C369 N365 1.319 . S
C369 C367 1.397 . S
C370 C367 1.367 . S
C370 C368 1.403 . S
C370 H377 0.929 . S
N371 Eu336 2.562 . S
N371 C372 1.325 1_554 S
N371 C374 1.351 . S
C372 H358 0.929 . S
C372 N371 1.325 1_556 S
C372 C376 1.416 . S
C373 C374 1.430 . S
C373 C375 1.404 1_554 S
C373 C402 1.387 . S
C374 C366 1.448 . S
C374 N371 1.351 . S
C374 C373 1.430 . S
C375 H364 0.930 . S
C375 C373 1.404 1_556 S
C375 C376 1.366 . S
C376 H355 0.930 . S
C376 C372 1.416 . S
C376 C375 1.366 . S
H377 C370 0.929 . S
H378 C401 0.931 . S
H379 C402 0.931 . S
O380 Eu336 2.462 . S
O380 C400 1.252 . S
O381 Eu336 2.373 . S
O381 C392 1.249 . S
O382 Eu347 2.335 . S
O382 C392 1.264 . S
O383 Eu336 2.432 . S
O383 C400 1.268 . S
O384 Eu336 2.291 . S
O384 C399 1.255 1_554 S
O385 Eu347 2.372 1_556 S
O385 C399 1.257 . S
O386 Eu347 2.462 . S
O386 C411 1.252 . S
O387 Eu347 2.373 . S
O387 C403 1.249 . S
O388 Eu336 2.335 . S
O388 C403 1.264 . S
O389 Eu347 2.432 . S
O389 C411 1.268 . S
O390 Eu347 2.291 . S
O390 C410 1.255 . S
O391 Eu336 2.372 . S
O391 C410 1.257 . S
C392 O381 1.249 . S
C392 O382 1.264 . S
C393 C396 1.382 . S
C393 C398 1.390 . S
C393 C400 1.506 . S
C394 C395 1.398 . S
C394 C398 1.392 . S
C395 C394 1.398 . S
C395 C397 1.372 . S
C395 H412 0.931 . S
C396 C393 1.382 . S
C396 C397 1.390 . S
C396 H413 0.931 . S
C397 C395 1.372 . S
C397 C396 1.390 . S
C397 H414 0.929 . S
C398 C393 1.390 . S
C398 C394 1.392 . S
C398 H415 0.930 1_554 S
C399 O384 1.255 1_556 S
C399 O385 1.257 . S
C400 Eu336 2.787 . S
C400 O380 1.252 . S
C400 O383 1.268 . S
C400 C393 1.506 . S
C401 C368 1.439 . S
C401 H378 0.931 . S
C401 C402 1.374 . S
C402 C373 1.387 . S
C402 H379 0.931 . S
C402 C401 1.374 . S
C403 O387 1.249 . S
C403 O388 1.264 . S
C404 C407 1.382 . S
C404 C408 1.390 . S
C404 C411 1.506 . S
C405 C406 1.398 . S
C405 C408 1.392 . S
C406 C405 1.398 . S
C406 C409 1.372 . S
C406 H416 0.931 . S
C407 C404 1.382 . S
C407 C409 1.390 . S
C407 H417 0.931 1_554 S
C408 C404 1.390 . S
C408 C405 1.392 . S
C408 H418 0.930 . S
C409 C406 1.372 . S
C409 C407 1.390 . S
C409 H419 0.929 1_554 S
C410 O390 1.255 . S
C410 O391 1.257 . S
C411 Eu347 2.787 . S
C411 O386 1.252 . S
C411 O389 1.268 . S
C411 C404 1.506 . S
H412 C395 0.931 . S
H413 C396 0.931 . S
H414 C397 0.929 . S
H415 C398 0.930 1_556 S
H416 C406 0.931 . S
H417 C407 0.931 1_556 S
H418 C408 0.930 . S
H419 C409 0.929 1_556 S
Eu420 N449 2.600 . S
Eu420 N455 2.562 . S
Eu420 O464 2.462 . S
Eu420 O465 2.373 . S
Eu420 O467 2.432 . S
Eu420 O468 2.291 . S
Eu420 O472 2.335 . S
Eu420 O475 2.372 . S
Eu420 C484 2.787 . S
C421 N422 1.365 . S
C421 C424 1.405 . S
C421 C428 1.448 . S
N422 C421 1.365 . S
N422 C425 1.319 . S
N422 Eu431 2.600 . S
C423 C425 1.397 . S
C423 C426 1.367 . S
C423 H443 0.931 1_554 S
C424 C421 1.405 . S
C424 C426 1.403 . S
C424 C430 1.439 . S
C425 N422 1.319 . S
C425 C423 1.397 . S
C425 H436 0.930 . S
C426 C423 1.367 . S
C426 C424 1.403 . S
C426 H447 0.929 . S
C427 C428 1.430 . S
C427 C429 1.387 . S
C427 C433 1.404 . S
C428 C421 1.448 . S
C428 C427 1.430 . S
C428 N432 1.351 . S
C429 C427 1.387 . S
C429 C430 1.374 . S
C429 H444 0.931 . S
C430 C424 1.439 . S
C430 C429 1.374 . S
C430 H445 0.931 . S
Eu431 N422 2.600 . S
Eu431 N432 2.562 . S
Eu431 O466 2.335 . S
Eu431 O469 2.372 . S
Eu431 O470 2.462 . S
Eu431 O471 2.373 . S
Eu431 O473 2.432 . S
Eu431 O474 2.291 . S
Eu431 C495 2.787 . S
N432 C428 1.351 . S
N432 Eu431 2.562 . S
N432 C434 1.325 . S
C433 C427 1.404 . S
C433 C435 1.366 . S
C433 H441 0.930 . S
C434 N432 1.325 . S
C434 C435 1.416 . S
C434 H440 0.929 . S
C435 C433 1.366 . S
C435 C434 1.416 . S
C435 H437 0.930 . S
H436 C425 0.930 . S
H437 C435 0.930 . S
H438 C453 0.930 . S
H439 C460 0.930 1_556 S
H440 C434 0.929 . S
H441 C433 0.930 . S
H442 C456 0.929 . S
H443 C423 0.931 1_556 S
H444 C429 0.931 . S
H445 C430 0.931 . S
H446 C451 0.931 . S
H447 C426 0.929 . S
H448 C459 0.930 . S
N449 Eu420 2.600 . S
N449 C450 1.365 . S
N449 C453 1.319 . S
C450 N449 1.365 . S
C450 C452 1.405 . S
C450 C458 1.448 . S
C451 H446 0.931 . S
C451 C453 1.397 . S
C451 C454 1.367 . S
C452 C450 1.405 . S
C452 C454 1.403 . S
C452 C485 1.439 . S
C453 H438 0.930 . S
C453 N449 1.319 . S
C453 C451 1.397 . S
C454 C451 1.367 . S
C454 C452 1.403 . S
C454 H461 0.929 . S
N455 Eu420 2.562 . S
N455 C456 1.325 . S
N455 C458 1.351 . S
C456 H442 0.929 . S
C456 N455 1.325 . S
C456 C460 1.416 . S
C457 C458 1.430 . S
C457 C459 1.404 . S
C457 C486 1.387 . S
C458 C450 1.448 . S
C458 N455 1.351 . S
C458 C457 1.430 . S
C459 H448 0.930 . S
C459 C457 1.404 . S
C459 C460 1.366 . S
C460 H439 0.930 1_554 S
C460 C456 1.416 . S
C460 C459 1.366 . S
H461 C454 0.929 . S
H462 C485 0.931 . S
H463 C486 0.931 . S
O464 Eu420 2.462 . S
O464 C484 1.252 . S
O465 Eu420 2.373 . S
O465 C476 1.249 . S
O466 Eu431 2.335 . S
O466 C476 1.264 . S
O467 Eu420 2.432 . S
O467 C484 1.268 . S
O468 Eu420 2.291 . S
O468 C483 1.255 . S
O469 Eu431 2.372 . S
O469 C483 1.257 . S
O470 Eu431 2.462 . S
O470 C495 1.252 . S
O471 Eu431 2.373 . S
O471 C487 1.249 . S
O472 Eu420 2.335 . S
O472 C487 1.264 . S
O473 Eu431 2.432 . S
O473 C495 1.268 . S
O474 Eu431 2.291 . S
O474 C494 1.255 . S
O475 Eu420 2.372 . S
O475 C494 1.257 . S
C476 O465 1.249 . S
C476 O466 1.264 . S
C477 C480 1.382 . S
C477 C482 1.390 . S
C477 C484 1.506 . S
C478 C479 1.398 . S
C478 C482 1.392 . S
C479 C478 1.398 . S
C479 C481 1.372 . S
C479 H496 0.931 . S
C480 C477 1.382 . S
C480 C481 1.390 . S
C480 H497 0.931 . S
C481 C479 1.372 . S
C481 C480 1.390 . S
C481 H498 0.929 . S
C482 C477 1.390 . S
C482 C478 1.392 . S
C482 H499 0.930 . S
C483 O468 1.255 . S
C483 O469 1.257 . S
C484 Eu420 2.787 . S
C484 O464 1.252 . S
C484 O467 1.268 . S
C484 C477 1.506 . S
C485 C452 1.439 . S
C485 H462 0.931 . S
C485 C486 1.374 . S
C486 C457 1.387 . S
C486 H463 0.931 . S
C486 C485 1.374 . S
C487 O471 1.249 . S
C487 O472 1.264 . S
C488 C491 1.382 1_655 S
C488 C492 1.390 . S
C488 C495 1.506 . S
C489 C490 1.398 . S
C489 C492 1.392 1_455 S
C490 C489 1.398 . S
C490 C493 1.372 . S
C490 H500 0.931 . S
C491 C488 1.382 1_455 S
C491 C493 1.390 . S
C491 H501 0.931 1_455 S
C492 C488 1.390 . S
C492 C489 1.392 1_655 S
C492 H502 0.930 . S
C493 C490 1.372 . S
C493 C491 1.390 . S
C493 H503 0.929 . S
C494 O474 1.255 . S
C494 O475 1.257 . S
C495 Eu431 2.787 . S
C495 O470 1.252 . S
C495 O473 1.268 . S
C495 C488 1.506 . S
H496 C479 0.931 . S
H497 C480 0.931 . S
H498 C481 0.929 . S
H499 C482 0.930 . S
H500 C490 0.931 . S
H501 C491 0.931 1_655 S
H502 C492 0.930 . S
H503 C493 0.929 . S
Eu504 N533 2.600 . S
Eu504 N539 2.562 . S
Eu504 O548 2.462 . S
Eu504 O549 2.373 . S
Eu504 O551 2.432 . S
Eu504 O552 2.291 . S
Eu504 O556 2.335 . S
Eu504 O559 2.372 . S
Eu504 C568 2.787 . S
C505 N506 1.365 . S
C505 C508 1.405 . S
C505 C512 1.448 . S
N506 C505 1.365 . S
N506 C509 1.319 . S
N506 Eu515 2.600 . S
C507 C509 1.397 . S
C507 C510 1.367 . S
C507 H527 0.931 1_556 S
C508 C505 1.405 . S
C508 C510 1.403 . S
C508 C514 1.439 . S
C509 N506 1.319 . S
C509 C507 1.397 . S
C509 H520 0.930 . S
C510 C507 1.367 . S
C510 C508 1.403 . S
C510 H531 0.929 . S
C511 C512 1.430 . S
C511 C513 1.387 . S
C511 C517 1.404 . S
C512 C505 1.448 . S
C512 C511 1.430 . S
C512 N516 1.351 . S
C513 C511 1.387 . S
C513 C514 1.374 . S
C513 H528 0.931 . S
C514 C508 1.439 . S
C514 C513 1.374 . S
C514 H529 0.931 . S
Eu515 N506 2.600 . S
Eu515 N516 2.562 . S
Eu515 O550 2.335 . S
Eu515 O553 2.372 . S
Eu515 O554 2.462 . S
Eu515 O555 2.373 . S
Eu515 O557 2.432 . S
Eu515 O558 2.291 . S
Eu515 C579 2.787 . S
N516 C512 1.351 . S
N516 Eu515 2.562 . S
N516 C518 1.325 . S
C517 C511 1.404 . S
C517 C519 1.366 . S
C517 H525 0.930 . S
C518 N516 1.325 . S
C518 C519 1.416 . S
C518 H524 0.929 . S
C519 C517 1.366 . S
C519 C518 1.416 . S
C519 H521 0.930 . S
H520 C509 0.930 . S
H521 C519 0.930 . S
H522 C537 0.930 . S
H523 C544 0.930 . S
H524 C518 0.929 . S
H525 C517 0.930 . S
H526 C540 0.929 . S
H527 C507 0.931 1_554 S
H528 C513 0.931 . S
H529 C514 0.931 . S
H530 C535 0.931 . S
H531 C510 0.929 . S
H532 C543 0.930 . S
N533 Eu504 2.600 . S
N533 C534 1.365 . S
N533 C537 1.319 . S
C534 N533 1.365 . S
C534 C536 1.405 . S
C534 C542 1.448 . S
C535 H530 0.931 . S
C535 C537 1.397 . S
C535 C538 1.367 . S
C536 C534 1.405 . S
C536 C538 1.403 . S
C536 C569 1.439 . S
C537 H522 0.930 . S
C537 N533 1.319 . S
C537 C535 1.397 . S
C538 C535 1.367 . S
C538 C536 1.403 . S
C538 H545 0.929 . S
N539 Eu504 2.562 . S
N539 C540 1.325 . S
N539 C542 1.351 . S
C540 H526 0.929 . S
C540 N539 1.325 . S
C540 C544 1.416 . S
C541 C542 1.430 . S
C541 C543 1.404 . S
C541 C570 1.387 . S
C542 C534 1.448 . S
C542 N539 1.351 . S
C542 C541 1.430 . S
C543 H532 0.930 . S
C543 C541 1.404 . S
C543 C544 1.366 . S
C544 H523 0.930 . S
C544 C540 1.416 . S
C544 C543 1.366 . S
H545 C538 0.929 . S
H546 C569 0.931 . S
H547 C570 0.931 . S
O548 Eu504 2.462 . S
O548 C568 1.252 . S
O549 Eu504 2.373 . S
O549 C560 1.249 . S
O550 Eu515 2.335 . S
O550 C560 1.264 . S
O551 Eu504 2.432 . S
O551 C568 1.268 . S
O552 Eu504 2.291 . S
O552 C567 1.255 . S
O553 Eu515 2.372 . S
O553 C567 1.257 . S
O554 Eu515 2.462 . S
O554 C579 1.252 . S
O555 Eu515 2.373 . S
O555 C571 1.249 . S
O556 Eu504 2.335 . S
O556 C571 1.264 . S
O557 Eu515 2.432 . S
O557 C579 1.268 . S
O558 Eu515 2.291 . S
O558 C578 1.255 . S
O559 Eu504 2.372 . S
O559 C578 1.257 . S
C560 O549 1.249 . S
C560 O550 1.264 . S
C561 C564 1.382 . S
C561 C566 1.390 . S
C561 C568 1.506 . S
C562 C563 1.398 . S
C562 C566 1.392 . S
C563 C562 1.398 . S
C563 C565 1.372 . S
C563 H580 0.931 . S
C564 C561 1.382 . S
C564 C565 1.390 . S
C564 H581 0.931 . S
C565 C563 1.372 . S
C565 C564 1.390 . S
C565 H582 0.929 . S
C566 C561 1.390 . S
C566 C562 1.392 . S
C566 H583 0.930 . S
C567 O552 1.255 . S
C567 O553 1.257 . S
C568 Eu504 2.787 . S
C568 O548 1.252 . S
C568 O551 1.268 . S
C568 C561 1.506 . S
C569 C536 1.439 . S
C569 H546 0.931 . S
C569 C570 1.374 . S
C570 C541 1.387 . S
C570 H547 0.931 . S
C570 C569 1.374 . S
C571 O555 1.249 . S
C571 O556 1.264 . S
C572 C575 1.382 . S
C572 C576 1.390 . S
C572 C579 1.506 . S
C573 C574 1.398 . S
C573 C576 1.392 . S
C574 C573 1.398 . S
C574 C577 1.372 . S
C574 H584 0.931 . S
C575 C572 1.382 . S
C575 C577 1.390 . S
C575 H585 0.931 . S
C576 C572 1.390 . S
C576 C573 1.392 . S
C576 H586 0.930 . S
C577 C574 1.372 . S
C577 C575 1.390 . S
C577 H587 0.929 . S
C578 O558 1.255 . S
C578 O559 1.257 . S
C579 Eu515 2.787 . S
C579 O554 1.252 . S
C579 O557 1.268 . S
C579 C572 1.506 . S
H580 C563 0.931 . S
H581 C564 0.931 . S
H582 C565 0.929 . S
H583 C566 0.930 . S
H584 C574 0.931 . S
H585 C575 0.931 . S
H586 C576 0.930 . S
H587 C577 0.929 . S
Eu588 N617 2.600 . S
Eu588 N623 2.562 . S
Eu588 O632 2.462 . S
Eu588 O633 2.373 . S
Eu588 O635 2.432 . S
Eu588 O636 2.291 . S
Eu588 O640 2.335 . S
Eu588 O643 2.372 . S
Eu588 C652 2.787 . S
C589 N590 1.365 . S
C589 C592 1.405 . S
C589 C596 1.448 . S
N590 C589 1.365 . S
N590 C593 1.319 . S
N590 Eu599 2.600 . S
C591 C593 1.397 . S
C591 C594 1.367 . S
C591 H611 0.931 . S
C592 C589 1.405 . S
C592 C594 1.403 . S
C592 C598 1.439 . S
C593 N590 1.319 . S
C593 C591 1.397 . S
C593 H604 0.930 . S
C594 C591 1.367 . S
C594 C592 1.403 . S
C594 H615 0.929 . S
C595 C596 1.430 . S
C595 C597 1.387 . S
C595 C601 1.404 . S
C596 C589 1.448 . S
C596 C595 1.430 . S
C596 N600 1.351 . S
C597 C595 1.387 . S
C597 C598 1.374 . S
C597 H612 0.931 . S
C598 C592 1.439 . S
C598 C597 1.374 . S
C598 H613 0.931 . S
Eu599 N590 2.600 . S
Eu599 N600 2.562 . S
Eu599 O634 2.335 . S
Eu599 O637 2.372 . S
Eu599 O638 2.462 . S
Eu599 O639 2.373 . S
Eu599 O641 2.432 . S
Eu599 O642 2.291 . S
Eu599 C663 2.787 . S
N600 C596 1.351 . S
N600 Eu599 2.562 . S
N600 C602 1.325 . S
C601 C595 1.404 . S
C601 C603 1.366 . S
C601 H609 0.930 . S
C602 N600 1.325 . S
C602 C603 1.416 . S
C602 H608 0.929 . S
C603 C601 1.366 . S
C603 C602 1.416 . S
C603 H605 0.930 1_556 S
H604 C593 0.930 . S
H605 C603 0.930 1_554 S
H606 C621 0.930 . S
H607 C628 0.930 . S
H608 C602 0.929 . S
H609 C601 0.930 . S
H610 C624 0.929 . S
H611 C591 0.931 . S
H612 C597 0.931 . S
H613 C598 0.931 . S
H614 C619 0.931 . S
H615 C594 0.929 . S
H616 C627 0.930 . S
N617 Eu588 2.600 . S
N617 C618 1.365 . S
N617 C621 1.319 . S
C618 N617 1.365 . S
C618 C620 1.405 . S
C618 C626 1.448 . S
C619 H614 0.931 . S
C619 C621 1.397 1_554 S
C619 C622 1.367 1_554 S
C620 C618 1.405 . S
C620 C622 1.403 . S
C620 C653 1.439 . S
C621 H606 0.930 . S
C621 N617 1.319 . S
C621 C619 1.397 1_556 S
C622 C619 1.367 1_556 S
C622 C620 1.403 . S
C622 H629 0.929 . S
N623 Eu588 2.562 . S
N623 C624 1.325 . S
N623 C626 1.351 . S
C624 H610 0.929 . S
C624 N623 1.325 . S
C624 C628 1.416 . S
C625 C626 1.430 . S
C625 C627 1.404 . S
C625 C654 1.387 . S
C626 C618 1.448 . S
C626 N623 1.351 . S
C626 C625 1.430 . S
C627 H616 0.930 . S
C627 C625 1.404 . S
C627 C628 1.366 . S
C628 H607 0.930 . S
C628 C624 1.416 . S
C628 C627 1.366 . S
H629 C622 0.929 . S
H630 C653 0.931 . S
H631 C654 0.931 . S
O632 Eu588 2.462 . S
O632 C652 1.252 . S
O633 Eu588 2.373 . S
O633 C644 1.249 . S
O634 Eu599 2.335 . S
O634 C644 1.264 . S
O635 Eu588 2.432 . S
O635 C652 1.268 . S
O636 Eu588 2.291 . S
O636 C651 1.255 . S
O637 Eu599 2.372 . S
O637 C651 1.257 . S
O638 Eu599 2.462 . S
O638 C663 1.252 . S
O639 Eu599 2.373 . S
O639 C655 1.249 . S
O640 Eu588 2.335 . S
O640 C655 1.264 . S
O641 Eu599 2.432 . S
O641 C663 1.268 . S
O642 Eu599 2.291 . S
O642 C662 1.255 . S
O643 Eu588 2.372 . S
O643 C662 1.257 . S
C644 O633 1.249 . S
C644 O634 1.264 . S
C645 C648 1.382 . S
C645 C650 1.390 . S
C645 C652 1.506 . S
C646 C647 1.398 . S
C646 C650 1.392 . S
C647 C646 1.398 . S
C647 C649 1.372 . S
C647 H664 0.931 . S
C648 C645 1.382 . S
C648 C649 1.390 . S
C648 H665 0.931 . S
C649 C647 1.372 . S
C649 C648 1.390 . S
C649 H666 0.929 . S
C650 C645 1.390 . S
C650 C646 1.392 . S
C650 H667 0.930 . S
C651 O636 1.255 . S
C651 O637 1.257 . S
C652 Eu588 2.787 . S
C652 O632 1.252 . S
C652 O635 1.268 . S
C652 C645 1.506 . S
C653 C620 1.439 . S
C653 H630 0.931 . S
C653 C654 1.374 . S
C654 C625 1.387 . S
C654 H631 0.931 . S
C654 C653 1.374 . S
C655 O639 1.249 . S
C655 O640 1.264 . S
C656 C659 1.382 . S
C656 C660 1.390 . S
C656 C663 1.506 . S
C657 C658 1.398 . S
C657 C660 1.392 . S
C658 C657 1.398 . S
C658 C661 1.372 . S
C658 H668 0.931 . S
C659 C656 1.382 . S
C659 C661 1.390 . S
C659 H669 0.931 . S
C660 C656 1.390 . S
C660 C657 1.392 . S
C660 H670 0.930 . S
C661 C658 1.372 . S
C661 C659 1.390 . S
C661 H671 0.929 . S
C662 O642 1.255 . S
C662 O643 1.257 . S
C663 Eu599 2.787 . S
C663 O638 1.252 . S
C663 O641 1.268 . S
C663 C656 1.506 . S
H664 C647 0.931 . S
H665 C648 0.931 . S
H666 C649 0.929 . S
H667 C650 0.930 . S
H668 C658 0.931 . S
H669 C659 0.931 . S
H670 C660 0.930 . S
H671 C661 0.929 . S
Eu672 N701 2.600 . S
Eu672 N707 2.562 . S
Eu672 O716 2.462 . S
Eu672 O717 2.373 . S
Eu672 O719 2.432 . S
Eu672 O720 2.291 . S
Eu672 O724 2.335 . S
Eu672 O727 2.372 . S
Eu672 C736 2.787 . S
C673 N674 1.365 . S
C673 C676 1.405 . S
C673 C680 1.448 . S
N674 C673 1.365 . S
N674 C677 1.319 . S
N674 Eu683 2.600 . S
C675 C677 1.397 . S
C675 C678 1.367 . S
C675 H695 0.931 1_556 S
C676 C673 1.405 . S
C676 C678 1.403 . S
C676 C682 1.439 . S
C677 N674 1.319 . S
C677 C675 1.397 . S
C677 H688 0.930 . S
C678 C675 1.367 . S
C678 C676 1.403 . S
C678 H699 0.929 . S
C679 C680 1.430 . S
C679 C681 1.387 . S
C679 C685 1.404 . S
C680 C673 1.448 . S
C680 C679 1.430 . S
C680 N684 1.351 . S
C681 C679 1.387 . S
C681 C682 1.374 . S
C681 H696 0.931 . S
C682 C676 1.439 . S
C682 C681 1.374 . S
C682 H697 0.931 . S
Eu683 N674 2.600 . S
Eu683 N684 2.562 . S
Eu683 O718 2.335 . S
Eu683 O721 2.372 . S
Eu683 O722 2.462 . S
Eu683 O723 2.373 . S
Eu683 O725 2.432 . S
Eu683 O726 2.291 . S
Eu683 C747 2.787 . S
N684 C680 1.351 . S
N684 Eu683 2.562 . S
N684 C686 1.325 . S
C685 C679 1.404 . S
C685 C687 1.366 . S
C685 H693 0.930 . S
C686 N684 1.325 . S
C686 C687 1.416 . S
C686 H692 0.929 . S
C687 C685 1.366 . S
C687 C686 1.416 . S
C687 H689 0.930 . S
H688 C677 0.930 . S
H689 C687 0.930 . S
H690 C705 0.930 . S
H691 C712 0.936 . S
H692 C686 0.929 . S
H693 C685 0.930 . S
H694 C708 0.929 . S
H695 C675 0.931 1_554 S
H696 C681 0.931 . S
H697 C682 0.931 . S
H698 C703 0.931 . S
H699 C678 0.929 . S
H700 C711 0.930 . S
N701 Eu672 2.600 . S
N701 C702 1.365 . S
N701 C705 1.319 . S
C702 N701 1.365 . S
C702 C704 1.405 . S
C702 C710 1.448 . S
C703 H698 0.931 . S
C703 C705 1.397 . S
C703 C706 1.367 . S
C704 C702 1.405 . S
C704 C706 1.403 . S
C704 C737 1.439 . S
C705 H690 0.930 . S
C705 N701 1.319 . S
C705 C703 1.397 . S
C706 C703 1.367 . S
C706 C704 1.403 . S
C706 H713 0.929 . S
N707 Eu672 2.562 . S
N707 C708 1.325 . S
N707 C710 1.351 . S
C708 H694 0.929 . S
C708 N707 1.325 . S
C708 C712 1.413 1_556 S
C709 C710 1.430 . S
C709 C711 1.404 . S
C709 C738 1.387 . S
C710 C702 1.448 . S
C710 N707 1.351 . S
C710 C709 1.430 . S
C711 H700 0.930 . S
C711 C709 1.404 . S
C711 C712 1.362 1_556 S
C712 H691 0.936 . S
C712 C708 1.413 1_554 S
C712 C711 1.362 1_554 S
H713 C706 0.929 . S
H714 C737 0.931 . S
H715 C738 0.931 . S
O716 Eu672 2.462 . S
O716 C736 1.252 . S
O717 Eu672 2.373 . S
O717 C728 1.249 . S
O718 Eu683 2.335 . S
O718 C728 1.264 . S
O719 Eu672 2.432 . S
O719 C736 1.268 . S
O720 Eu672 2.291 . S
O720 C735 1.255 . S
O721 Eu683 2.372 . S
O721 C735 1.257 . S
O722 Eu683 2.462 . S
O722 C747 1.252 . S
O723 Eu683 2.373 . S
O723 C739 1.249 . S
O724 Eu672 2.335 . S
O724 C739 1.264 . S
O725 Eu683 2.432 . S
O725 C747 1.268 . S
O726 Eu683 2.291 . S
O726 C746 1.255 . S
O727 Eu672 2.372 . S
O727 C746 1.257 . S
C728 O717 1.249 . S
C728 O718 1.264 . S
C729 C732 1.382 . S
C729 C734 1.390 . S
C729 C736 1.506 . S
C730 C731 1.398 . S
C730 C734 1.392 . S
C731 C730 1.398 . S
C731 C733 1.372 . S
C731 H748 0.931 . S
C732 C729 1.382 . S
C732 C733 1.390 . S
C732 H749 0.931 . S
C733 C731 1.372 . S
C733 C732 1.390 . S
C733 H750 0.929 . S
C734 C729 1.390 . S
C734 C730 1.392 . S
C734 H751 0.930 . S
C735 O720 1.255 . S
C735 O721 1.257 . S
C736 Eu672 2.787 . S
C736 O716 1.252 . S
C736 O719 1.268 . S
C736 C729 1.506 . S
C737 C704 1.439 . S
C737 H714 0.931 . S
C737 C738 1.374 . S
C738 C709 1.387 . S
C738 H715 0.931 . S
C738 C737 1.374 . S
C739 O723 1.249 . S
C739 O724 1.264 . S
C740 C743 1.382 . S
C740 C744 1.390 . S
C740 C747 1.506 . S
C741 C742 1.398 . S
C741 C744 1.392 . S
C742 C741 1.398 . S
C742 C745 1.372 . S
C742 H752 0.931 . S
C743 C740 1.382 . S
C743 C745 1.390 . S
C743 H753 0.931 . S
C744 C740 1.390 . S
C744 C741 1.392 . S
C744 H754 0.930 . S
C745 C742 1.372 . S
C745 C743 1.390 . S
C745 H755 0.929 . S
C746 O726 1.255 . S
C746 O727 1.257 . S
C747 Eu683 2.787 . S
C747 O722 1.252 . S
C747 O725 1.268 . S
C747 C740 1.506 . S
H748 C731 0.931 . S
H749 C732 0.931 . S
H750 C733 0.929 . S
H751 C734 0.930 . S
H752 C742 0.931 . S
H753 C743 0.931 . S
H754 C744 0.930 . S
H755 C745 0.929 . S
C756 C757 1.349 . S
C756 C758 1.327 . S
C756 H781 0.950 . S
C757 C756 1.349 . S
C757 C773 1.349 1_554 S
C758 C756 1.327 . S
C758 C777 1.429 . S
C758 H782 0.950 . S
C759 C776 1.574 . S
C759 C778 1.368 . S
C759 H783 0.949 . S
H760 C764 0.949 . S
C761 C762 1.349 . S
C761 C763 1.327 . S
C761 H784 0.950 . S
C762 C761 1.349 . S
C762 C774 1.349 . S
C763 C761 1.327 . S
C763 C779 1.429 . S
C763 H785 0.950 . S
C764 H760 0.949 . S
C764 C772 1.574 . S
C764 C780 1.368 1_554 S
H765 C773 0.950 . S
H766 C771 0.950 . S
H767 C772 0.949 . S
H768 C774 0.950 1_554 S
H769 C775 0.950 1_554 S
H770 C776 0.949 . S
C771 H766 0.950 . S
C771 C773 1.327 . S
C771 C777 1.429 1_556 S
C772 C764 1.574 . S
C772 H767 0.949 . S
C772 C778 1.368 1_554 S
C773 C757 1.349 1_556 S
C773 H765 0.950 . S
C773 C771 1.327 . S
C774 C762 1.349 . S
C774 H768 0.950 1_556 S
C774 C775 1.327 . S
C775 H769 0.950 1_556 S
C775 C774 1.327 . S
C775 C779 1.429 . S
C776 C759 1.574 . S
C776 H770 0.949 . S
C776 C780 1.368 . S
C777 C758 1.429 . S
C777 C771 1.429 1_554 S
C777 C778 1.523 1_554 S
C778 C759 1.368 . S
C778 C772 1.368 1_556 S
C778 C777 1.523 1_556 S
C779 C763 1.429 . S
C779 C775 1.429 . S
C779 C780 1.523 . S
C780 C764 1.368 1_556 S
C780 C776 1.368 . S
C780 C779 1.523 . S
H781 C756 0.950 . S
H782 C758 0.950 . S
H783 C759 0.949 . S
H784 C761 0.950 . S
H785 C763 0.950 . S
C786 C787 1.349 1_556 S
C786 C788 1.327 . S
C786 H811 0.950 . S
C787 C786 1.349 1_554 S
C787 C803 1.349 . S
C788 C786 1.327 . S
C788 C807 1.429 1_556 S
C788 H812 0.950 . S
C789 C806 1.574 . S
C789 C808 1.368 1_554 S
C789 H813 0.949 . S
H790 C794 0.949 . S
C791 C792 1.349 . S
C791 C793 1.327 . S
C791 H814 0.950 . S
C792 C791 1.349 . S
C792 C804 1.349 . S
C793 C791 1.327 . S
C793 C809 1.429 . S
C793 H815 0.950 1_556 S
C794 H790 0.949 . S
C794 C802 1.574 . S
C794 C810 1.368 . S
H795 C803 0.950 . S
H796 C801 0.950 . S
H797 C802 0.949 . S
H798 C804 0.950 . S
H799 C805 0.950 . S
H800 C806 0.949 . S
C801 H796 0.950 . S
C801 C803 1.327 . S
C801 C807 1.429 . S
C802 C794 1.574 . S
C802 H797 0.949 . S
C802 C808 1.368 . S
C803 C787 1.349 . S
C803 H795 0.950 . S
C803 C801 1.327 . S
C804 C792 1.349 . S
C804 H798 0.950 . S
C804 C805 1.327 . S
C805 H799 0.950 . S
C805 C804 1.327 . S
C805 C809 1.429 . S
C806 C789 1.574 . S
C806 H800 0.949 . S
C806 C810 1.368 1_554 S
C807 C788 1.429 1_554 S
C807 C801 1.429 . S
C807 C808 1.523 1_554 S
C808 C789 1.368 1_556 S
C808 C802 1.368 . S
C808 C807 1.523 1_556 S
C809 C793 1.429 . S
C809 C805 1.429 . S
C809 C810 1.523 . S
C810 C794 1.368 . S
C810 C806 1.368 1_556 S
C810 C809 1.523 . S
H811 C786 0.950 . S
H812 C788 0.950 . S
H813 C789 0.949 . S
H814 C791 0.950 . S
H815 C793 0.950 1_554 S
C816 C817 1.349 . S
C816 C818 1.327 . S
C816 H841 0.950 . S
C817 C816 1.349 . S
C817 C833 1.349 . S
C818 C816 1.327 . S
C818 C837 1.429 . S
C818 H842 0.950 . S
C819 C836 1.574 . S
C819 C838 1.368 . S
C819 H843 0.949 . S
H820 C824 0.949 . S
C821 C822 1.349 . S
C821 C823 1.327 . S
C821 H844 0.950 . S
C822 C821 1.349 . S
C822 C834 1.349 . S
C823 C821 1.327 . S
C823 C839 1.429 . S
C823 H845 0.950 . S
C824 H820 0.949 . S
C824 C832 1.574 . S
C824 C840 1.368 . S
H825 C833 0.950 . S
H826 C831 0.950 . S
H827 C832 0.949 . S
H828 C834 0.950 . S
H829 C835 0.950 . S
H830 C836 0.949 . S
C831 H826 0.950 . S
C831 C833 1.327 . S
C831 C837 1.429 . S
C832 C824 1.574 . S
C832 H827 0.949 . S
C832 C838 1.368 . S
C833 C817 1.349 . S
C833 H825 0.950 . S
C833 C831 1.327 . S
C834 C822 1.349 . S
C834 H828 0.950 . S
C834 C835 1.327 . S
C835 H829 0.950 . S
C835 C834 1.327 . S
C835 C839 1.429 . S
C836 C819 1.574 . S
C836 H830 0.949 . S
C836 C840 1.368 . S
C837 C818 1.429 . S
C837 C831 1.429 . S
C837 C838 1.523 . S
C838 C819 1.368 . S
C838 C832 1.368 . S
C838 C837 1.523 . S
C839 C823 1.429 . S
C839 C835 1.429 . S
C839 C840 1.523 . S
C840 C824 1.368 . S
C840 C836 1.368 . S
C840 C839 1.523 . S
H841 C816 0.950 . S
H842 C818 0.950 . S
H843 C819 0.949 . S
H844 C821 0.950 . S
H845 C823 0.950 . S
C846 C847 1.349 . S
C846 C848 1.327 . S
C846 H871 0.950 . S
C847 C846 1.349 . S
C847 C863 1.349 . S
C848 C846 1.327 . S
C848 C867 1.429 . S
C848 H872 0.950 . S
C849 C866 1.574 . S
C849 C868 1.368 1_556 S
C849 H873 0.949 . S
H850 C854 0.949 . S
C851 C852 1.349 1_556 S
C851 C853 1.327 . S
C851 H874 0.950 . S
C852 C851 1.349 1_554 S
C852 C864 1.349 . S
C853 C851 1.327 . S
C853 C869 1.429 1_556 S
C853 H875 0.950 . S
C854 H850 0.949 . S
C854 C862 1.574 . S
C854 C870 1.368 . S
H855 C863 0.950 1_556 S
H856 C861 0.950 1_556 S
H857 C862 0.949 . S
H858 C864 0.950 . S
H859 C865 0.950 . S
H860 C866 0.949 . S
C861 H856 0.950 1_554 S
C861 C863 1.327 . S
C861 C867 1.429 . S
C862 C854 1.574 . S
C862 H857 0.949 . S
C862 C868 1.368 . S
C863 C847 1.349 . S
C863 H855 0.950 1_554 S
C863 C861 1.327 . S
C864 C852 1.349 . S
C864 H858 0.950 . S
C864 C865 1.327 . S
C865 H859 0.950 . S
C865 C864 1.327 . S
C865 C869 1.429 . S
C866 C849 1.574 . S
C866 H860 0.949 . S
C866 C870 1.368 1_556 S
C867 C848 1.429 . S
C867 C861 1.429 . S
C867 C868 1.523 . S
C868 C849 1.368 1_554 S
C868 C862 1.368 . S
C868 C867 1.523 . S
C869 C853 1.429 1_554 S
C869 C865 1.429 . S
C869 C870 1.523 . S
C870 C854 1.368 . S
C870 C866 1.368 1_554 S
C870 C869 1.523 . S
H871 C846 0.950 . S
H872 C848 0.950 . S
H873 C849 0.949 . S
H874 C851 0.950 . S
H875 C853 0.950 . S
C876 C877 1.349 . S
C876 C878 1.327 . S
C876 H901 0.950 . S
C877 C876 1.349 . S
C877 C893 1.349 . S
C878 C876 1.327 . S
C878 C897 1.429 . S
C878 H902 0.950 . S
C879 C896 1.574 . S
C879 C898 1.368 . S
C879 H903 0.949 . S
H880 C884 0.949 . S
C881 C882 1.349 . S
C881 C883 1.327 1_455 S
C881 H904 0.950 . S
C882 C881 1.349 . S
C882 C894 1.349 1_455 S
C883 C881 1.327 1_655 S
C883 C899 1.429 . S
C883 H905 0.950 . S
C884 H880 0.949 . S
C884 C892 1.574 . S
C884 C900 1.368 . S
H885 C893 0.950 . S
H886 C891 0.950 . S
H887 C892 0.949 . S
H888 C894 0.950 . S
H889 C895 0.950 . S
H890 C896 0.949 . S
C891 H886 0.950 . S
C891 C893 1.327 . S
C891 C897 1.429 . S
C892 C884 1.574 . S
C892 H887 0.949 . S
C892 C898 1.368 . S
C893 C877 1.349 . S
C893 H885 0.950 . S
C893 C891 1.327 . S
C894 C882 1.349 1_655 S
C894 H888 0.950 . S
C894 C895 1.327 . S
C895 H889 0.950 . S
C895 C894 1.327 . S
C895 C899 1.429 . S
C896 C879 1.574 . S
C896 H890 0.949 . S
C896 C900 1.368 . S
C897 C878 1.429 . S
C897 C891 1.429 . S
C897 C898 1.523 . S
C898 C879 1.368 . S
C898 C892 1.368 . S
C898 C897 1.523 . S
C899 C883 1.429 . S
C899 C895 1.429 . S
C899 C900 1.523 . S
C900 C884 1.368 . S
C900 C896 1.368 . S
C900 C899 1.523 . S
H901 C876 0.950 . S
H902 C878 0.950 . S
H903 C879 0.949 . S
H904 C881 0.950 . S
H905 C883 0.950 . S
C906 C907 1.349 . S
C906 C908 1.327 . S
C906 H931 0.950 . S
C907 C906 1.349 . S
C907 C923 1.349 . S
C908 C906 1.327 . S
C908 C927 1.429 . S
C908 H932 0.950 . S
C909 C926 1.574 . S
C909 C928 1.368 . S
C909 H933 0.949 . S
H910 C914 0.949 . S
C911 C912 1.349 . S
C911 C913 1.327 . S
C911 H934 0.950 . S
C912 C911 1.349 . S
C912 C924 1.349 . S
C913 C911 1.327 . S
C913 C929 1.429 . S
C913 H935 0.950 . S
C914 H910 0.949 . S
C914 C922 1.574 . S
C914 C930 1.368 . S
H915 C923 0.950 . S
H916 C921 0.950 . S
H917 C922 0.949 . S
H918 C924 0.950 . S
H919 C925 0.950 . S
H920 C926 0.949 . S
C921 H916 0.950 . S
C921 C923 1.327 . S
C921 C927 1.429 . S
C922 C914 1.574 . S
C922 H917 0.949 . S
C922 C928 1.368 . S
C923 C907 1.349 . S
C923 H915 0.950 . S
C923 C921 1.327 . S
C924 C912 1.349 . S
C924 H918 0.950 . S
C924 C925 1.327 . S
C925 H919 0.950 . S
C925 C924 1.327 . S
C925 C929 1.429 . S
C926 C909 1.574 . S
C926 H920 0.949 . S
C926 C930 1.368 . S
C927 C908 1.429 . S
C927 C921 1.429 . S
C927 C928 1.523 . S
C928 C909 1.368 . S
C928 C922 1.368 . S
C928 C927 1.523 . S
C929 C913 1.429 . S
C929 C925 1.429 . S
C929 C930 1.523 . S
C930 C914 1.368 . S
C930 C926 1.368 . S
C930 C929 1.523 . S
H931 C906 0.950 . S
H932 C908 0.950 . S
H933 C909 0.949 . S
H934 C911 0.950 . S
H935 C913 0.950 . S
C936 C937 1.349 . S
C936 C938 1.327 . S
C936 H961 0.950 . S
C937 C936 1.349 . S
C937 C953 1.349 . S
C938 C936 1.327 . S
C938 C957 1.429 . S
C938 H962 0.950 . S
C939 C956 1.574 . S
C939 C958 1.368 . S
C939 H963 0.949 . S
H940 C944 0.949 . S
C941 C942 1.349 . S
C941 C943 1.327 . S
C941 H964 0.950 . S
C942 C941 1.349 . S
C942 C954 1.349 . S
C943 C941 1.327 . S
C943 C959 1.429 . S
C943 H965 0.950 . S
C944 H940 0.949 . S
C944 C952 1.574 . S
C944 C960 1.368 . S
H945 C953 0.950 . S
H946 C951 0.950 . S
H947 C952 0.949 . S
H948 C954 0.950 . S
H949 C955 0.950 . S
H950 C956 0.949 . S
C951 H946 0.950 . S
C951 C953 1.327 . S
C951 C957 1.429 . S
C952 C944 1.574 . S
C952 H947 0.949 . S
C952 C958 1.368 . S
C953 C937 1.349 . S
C953 H945 0.950 . S
C953 C951 1.327 . S
C954 C942 1.349 . S
C954 H948 0.950 . S
C954 C955 1.327 . S
C955 H949 0.950 . S
C955 C954 1.327 . S
C955 C959 1.429 . S
C956 C939 1.574 . S
C956 H950 0.949 . S
C956 C960 1.368 . S
C957 C938 1.429 . S
C957 C951 1.429 . S
C957 C958 1.523 . S
C958 C939 1.368 . S
C958 C952 1.368 . S
C958 C957 1.523 . S
C959 C943 1.429 . S
C959 C955 1.429 . S
C959 C960 1.523 . S
C960 C944 1.368 . S
C960 C956 1.368 . S
C960 C959 1.523 . S
H961 C936 0.950 . S
H962 C938 0.950 . S
H963 C939 0.949 . S
H964 C941 0.950 . S
H965 C943 0.950 . S
C966 C967 1.349 . S
C966 C968 1.327 . S
C966 H991 0.950 . S
C967 C966 1.349 . S
C967 C983 1.349 . S
C968 C966 1.327 . S
C968 C987 1.429 . S
C968 H992 0.950 . S
C969 C986 1.574 . S
C969 C988 1.368 . S
C969 H993 0.949 . S
H970 C974 0.949 . S
C971 C972 1.349 . S
C971 C973 1.327 . S
C971 H994 0.950 . S
C972 C971 1.349 . S
C972 C984 1.349 . S
C973 C971 1.327 . S
C973 C989 1.429 . S
C973 H995 0.950 . S
C974 H970 0.949 . S
C974 C982 1.574 . S
C974 C990 1.368 . S
H975 C983 0.950 . S
H976 C981 0.950 . S
H977 C982 0.949 . S
H978 C984 0.950 . S
H979 C985 0.950 . S
H980 C986 0.949 . S
C981 H976 0.950 . S
C981 C983 1.327 . S
C981 C987 1.429 . S
C982 C974 1.574 . S
C982 H977 0.949 . S
C982 C988 1.368 . S
C983 C967 1.349 . S
C983 H975 0.950 . S
C983 C981 1.327 . S
C984 C972 1.349 . S
C984 H978 0.950 . S
C984 C985 1.327 . S
C985 H979 0.950 . S
C985 C984 1.327 . S
C985 C989 1.429 . S
C986 C969 1.574 . S
C986 H980 0.949 . S
C986 C990 1.368 . S
C987 C968 1.429 . S
C987 C981 1.429 . S
C987 C988 1.523 . S
C988 C969 1.368 . S
C988 C982 1.368 . S
C988 C987 1.523 . S
C989 C973 1.429 . S
C989 C985 1.429 . S
C989 C990 1.523 . S
C990 C974 1.368 . S
C990 C986 1.368 . S
C990 C989 1.523 . S
H991 C966 0.950 . S
H992 C968 0.950 . S
H993 C969 0.949 . S
H994 C971 0.950 . S
H995 C973 0.950 . S
C996 C997 1.349 . S
C996 C998 1.327 . S
C996 H1021 0.950 . S
C997 C996 1.349 . S
C997 C1013 1.349 . S
C998 C996 1.327 . S
C998 C1017 1.429 . S
C998 H1022 0.950 . S
C999 C1016 1.574 . S
C999 C1018 1.368 . S
C999 H1023 0.949 . S
H1000 C1004 0.949 1_565 S
C1001 C1002 1.349 . S
C1001 C1003 1.327 1_565 S
C1001 H1024 0.950 . S
C1002 C1001 1.349 . S
C1002 C1014 1.349 . S
C1003 C1001 1.327 1_545 S
C1003 C1019 1.429 . S
C1003 H1025 0.950 . S
C1004 H1000 0.949 1_545 S
C1004 C1012 1.574 . S
C1004 C1020 1.368 . S
H1005 C1013 0.950 . S
H1006 C1011 0.950 . S
H1007 C1012 0.949 . S
H1008 C1014 0.950 . S
H1009 C1015 0.950 . S
H1010 C1016 0.949 . S
C1011 H1006 0.950 . S
C1011 C1013 1.327 . S
C1011 C1017 1.429 . S
C1012 C1004 1.574 . S
C1012 H1007 0.949 . S
C1012 C1018 1.368 . S
C1013 C997 1.349 . S
C1013 H1005 0.950 . S
C1013 C1011 1.327 . S
C1014 C1002 1.349 . S
C1014 H1008 0.950 . S
C1014 C1015 1.327 . S
C1015 H1009 0.950 . S
C1015 C1014 1.327 . S
C1015 C1019 1.424 1_565 S
C1016 C999 1.574 . S
C1016 H1010 0.949 . S
C1016 C1020 1.368 . S
C1017 C998 1.429 . S
C1017 C1011 1.429 . S
C1017 C1018 1.523 . S
C1018 C999 1.368 . S
C1018 C1012 1.368 . S
C1018 C1017 1.523 . S
C1019 C1003 1.429 . S
C1019 C1015 1.424 1_545 S
C1019 C1020 1.527 . S
C1020 C1004 1.368 . S
C1020 C1016 1.368 . S
C1020 C1019 1.527 . S
H1021 C996 0.950 . S
H1022 C998 0.950 . S
H1023 C999 0.949 . S
H1024 C1001 0.950 . S
H1025 C1003 0.950 . S
C1026 C1027 1.349 . S
C1026 C1028 1.327 . S
C1026 H1051 0.950 . S
C1027 C1026 1.349 . S
C1027 C1043 1.349 . S
C1028 C1026 1.327 . S
C1028 C1047 1.429 . S
C1028 H1052 0.950 . S
C1029 C1046 1.574 . S
C1029 C1048 1.368 . S
C1029 H1053 0.949 . S
H1030 C1034 0.949 . S
C1031 C1032 1.349 . S
C1031 C1033 1.327 . S
C1031 H1054 0.950 . S
C1032 C1031 1.349 . S
C1032 C1044 1.349 . S
C1033 C1031 1.327 . S
C1033 C1049 1.429 . S
C1033 H1055 0.950 . S
C1034 H1030 0.949 . S
C1034 C1042 1.574 . S
C1034 C1050 1.368 . S
H1035 C1043 0.950 . S
H1036 C1041 0.950 . S
H1037 C1042 0.949 . S
H1038 C1044 0.950 . S
H1039 C1045 0.950 . S
H1040 C1046 0.949 . S
C1041 H1036 0.950 . S
C1041 C1043 1.327 . S
C1041 C1047 1.429 . S
C1042 C1034 1.574 . S
C1042 H1037 0.949 . S
C1042 C1048 1.368 . S
C1043 C1027 1.349 . S
C1043 H1035 0.950 . S
C1043 C1041 1.327 . S
C1044 C1032 1.349 . S
C1044 H1038 0.950 . S
C1044 C1045 1.327 . S
C1045 H1039 0.950 . S
C1045 C1044 1.327 . S
C1045 C1049 1.429 . S
C1046 C1029 1.574 . S
C1046 H1040 0.949 . S
C1046 C1050 1.368 . S
C1047 C1028 1.429 . S
C1047 C1041 1.429 . S
C1047 C1048 1.523 . S
C1048 C1029 1.368 . S
C1048 C1042 1.368 . S
C1048 C1047 1.523 . S
C1049 C1033 1.429 . S
C1049 C1045 1.429 . S
C1049 C1050 1.523 . S
C1050 C1034 1.368 . S
C1050 C1046 1.368 . S
C1050 C1049 1.523 . S
H1051 C1026 0.950 . S
H1052 C1028 0.950 . S
H1053 C1029 0.949 . S
H1054 C1031 0.950 . S
H1055 C1033 0.950 . S
C1056 C1057 1.349 . S
C1056 C1058 1.327 . S
C1056 H1081 0.950 . S
C1057 C1056 1.349 . S
C1057 C1073 1.349 . S
C1058 C1056 1.327 . S
C1058 C1077 1.429 . S
C1058 H1082 0.950 . S
C1059 C1076 1.574 1_565 S
C1059 C1078 1.368 . S
C1059 H1083 0.949 . S
H1060 C1064 0.949 . S
C1061 C1062 1.349 . S
C1061 C1063 1.327 . S
C1061 H1084 0.950 . S
C1062 C1061 1.349 . S
C1062 C1074 1.349 . S
C1063 C1061 1.327 . S
C1063 C1079 1.429 . S
C1063 H1085 0.950 . S
C1064 H1060 0.949 . S
C1064 C1072 1.574 1_545 S
C1064 C1080 1.368 . S
H1065 C1073 0.950 1_556 S
H1066 C1071 0.950 . S
H1067 C1072 0.949 . S
H1068 C1074 0.950 . S
H1069 C1075 0.950 . S
H1070 C1076 0.949 . S
C1071 H1066 0.950 . S
C1071 C1073 1.327 . S
C1071 C1077 1.429 . S
C1072 C1064 1.574 1_565 S
C1072 H1067 0.949 . S
C1072 C1078 1.368 . S
C1073 C1057 1.349 . S
C1073 H1065 0.950 1_554 S
C1073 C1071 1.327 . S
C1074 C1062 1.349 . S
C1074 H1068 0.950 . S
C1074 C1075 1.327 . S
C1075 H1069 0.950 . S
C1075 C1074 1.327 . S
C1075 C1079 1.429 . S
C1076 C1059 1.574 1_545 S
C1076 H1070 0.949 . S
C1076 C1080 1.368 . S
C1077 C1058 1.429 . S
C1077 C1071 1.429 . S
C1077 C1078 1.523 . S
C1078 C1059 1.368 . S
C1078 C1072 1.368 . S
C1078 C1077 1.523 . S
C1079 C1063 1.429 . S
C1079 C1075 1.429 . S
C1079 C1080 1.523 . S
C1080 C1064 1.368 . S
C1080 C1076 1.368 . S
C1080 C1079 1.523 . S
H1081 C1056 0.950 . S
H1082 C1058 0.950 . S
H1083 C1059 0.949 . S
H1084 C1061 0.950 . S
H1085 C1063 0.950 . S
C1086 C1087 1.349 . S
C1086 C1088 1.327 . S
C1086 H1111 0.950 . S
C1087 C1086 1.349 . S
C1087 C1103 1.349 . S
C1088 C1086 1.327 . S
C1088 C1107 1.429 1_655 S
C1088 H1112 0.950 1_554 S
C1089 C1106 1.574 . S
C1089 C1108 1.368 . S
C1089 H1113 0.949 . S
H1090 C1094 0.949 . S
C1091 C1092 1.349 . S
C1091 C1093 1.327 . S
C1091 H1114 0.950 . S
C1092 C1091 1.349 . S
C1092 C1104 1.349 1_554 S
C1093 C1091 1.327 . S
C1093 C1109 1.429 . S
C1093 H1115 0.950 . S
C1094 H1090 0.949 . S
C1094 C1102 1.567 1_556 S
C1094 C1110 1.368 1_556 S
H1095 C1103 0.950 . S
H1096 C1101 0.950 1_455 S
H1097 C1102 0.940 1_556 S
H1098 C1104 0.950 . S
H1099 C1105 0.950 . S
H1100 C1106 0.949 . S
C1101 H1096 0.950 1_655 S
C1101 C1103 1.327 . S
C1101 C1107 1.429 1_655 S
C1102 C1094 1.567 1_554 S
C1102 H1097 0.940 1_554 S
C1102 C1108 1.385 . S
C1103 C1087 1.349 . S
C1103 H1095 0.950 . S
C1103 C1101 1.327 . S
C1104 C1092 1.349 1_556 S
C1104 H1098 0.950 . S
C1104 C1105 1.327 . S
C1105 H1099 0.950 . S
C1105 C1104 1.327 . S
C1105 C1109 1.429 1_556 S
C1106 C1089 1.574 . S
C1106 H1100 0.949 . S
C1106 C1110 1.368 . S
C1107 C1088 1.429 1_455 S
C1107 C1101 1.429 1_455 S
C1107 C1108 1.523 . S
C1108 C1089 1.368 . S
C1108 C1102 1.385 . S
C1108 C1107 1.523 . S
C1109 C1093 1.429 . S
C1109 C1105 1.429 1_554 S
C1109 C1110 1.523 . S
C1110 C1094 1.368 1_554 S
C1110 C1106 1.368 . S
C1110 C1109 1.523 . S
H1111 C1086 0.950 . S
H1112 C1088 0.950 1_556 S
H1113 C1089 0.949 . S
H1114 C1091 0.950 . S
H1115 C1093 0.950 . S
C1116 C1117 1.349 . S
C1116 C1118 1.327 . S
C1116 H1141 0.950 1_554 S
C1117 C1116 1.349 . S
C1117 C1133 1.349 . S
C1118 C1116 1.327 . S
C1118 C1137 1.429 . S
C1118 H1142 0.950 1_554 S
C1119 C1136 1.574 . S
C1119 C1138 1.368 . S
C1119 H1143 0.949 . S
H1120 C1124 0.949 . S
C1121 C1122 1.349 . S
C1121 C1123 1.327 . S
C1121 H1144 0.950 . S
C1122 C1121 1.349 . S
C1122 C1134 1.349 . S
C1123 C1121 1.327 . S
C1123 C1139 1.429 . S
C1123 H1145 0.950 . S
C1124 H1120 0.949 . S
C1124 C1132 1.574 . S
C1124 C1140 1.368 . S
H1125 C1133 0.950 . S
H1126 C1131 0.950 . S
H1127 C1132 0.949 . S
H1128 C1134 0.950 . S
H1129 C1135 0.950 . S
H1130 C1136 0.949 . S
C1131 H1126 0.950 . S
C1131 C1133 1.327 . S
C1131 C1137 1.429 . S
C1132 C1124 1.574 . S
C1132 H1127 0.949 . S
C1132 C1138 1.368 . S
C1133 C1117 1.349 . S
C1133 H1125 0.950 . S
C1133 C1131 1.327 . S
C1134 C1122 1.349 . S
C1134 H1128 0.950 . S
C1134 C1135 1.327 . S
C1135 H1129 0.950 . S
C1135 C1134 1.327 . S
C1135 C1139 1.429 . S
C1136 C1119 1.574 . S
C1136 H1130 0.949 . S
C1136 C1140 1.368 . S
C1137 C1118 1.429 . S
C1137 C1131 1.429 . S
C1137 C1138 1.523 . S
C1138 C1119 1.368 . S
C1138 C1132 1.368 . S
C1138 C1137 1.523 . S
C1139 C1123 1.429 . S
C1139 C1135 1.429 . S
C1139 C1140 1.523 . S
C1140 C1124 1.368 . S
C1140 C1136 1.368 . S
C1140 C1139 1.523 . S
H1141 C1116 0.950 1_556 S
H1142 C1118 0.950 1_556 S
H1143 C1119 0.949 . S
H1144 C1121 0.950 . S
H1145 C1123 0.950 . S
C1146 C1147 1.349 . S
C1146 C1148 1.327 . S
C1146 H1171 0.950 . S
C1147 C1146 1.349 . S
C1147 C1163 1.349 . S
C1148 C1146 1.327 . S
C1148 C1167 1.429 . S
C1148 H1172 0.950 . S
C1149 C1166 1.574 . S
C1149 C1168 1.368 . S
C1149 H1173 0.949 . S
H1150 C1154 0.949 . S
C1151 C1152 1.349 1_556 S
C1151 C1153 1.327 . S
C1151 H1174 0.950 . S
C1152 C1151 1.349 1_554 S
C1152 C1164 1.349 . S
C1153 C1151 1.327 . S
C1153 C1169 1.429 1_556 S
C1153 H1175 0.950 . S
C1154 H1150 0.949 . S
C1154 C1162 1.574 . S
C1154 C1170 1.368 . S
H1155 C1163 0.950 . S
H1156 C1161 0.950 . S
H1157 C1162 0.949 . S
H1158 C1164 0.950 . S
H1159 C1165 0.950 . S
H1160 C1166 0.949 1_556 S
C1161 H1156 0.950 . S
C1161 C1163 1.327 . S
C1161 C1167 1.429 . S
C1162 C1154 1.574 . S
C1162 H1157 0.949 . S
C1162 C1168 1.368 . S
C1163 C1147 1.349 . S
C1163 H1155 0.950 . S
C1163 C1161 1.327 . S
C1164 C1152 1.349 . S
C1164 H1158 0.950 . S
C1164 C1165 1.327 . S
C1165 H1159 0.950 . S
C1165 C1164 1.327 . S
C1165 C1169 1.429 . S
C1166 C1149 1.574 . S
C1166 H1160 0.949 1_554 S
C1166 C1170 1.368 . S
C1167 C1148 1.429 . S
C1167 C1161 1.429 . S
C1167 C1168 1.523 . S
C1168 C1149 1.368 . S
C1168 C1162 1.368 . S
C1168 C1167 1.523 . S
C1169 C1153 1.429 1_554 S
C1169 C1165 1.429 . S
C1169 C1170 1.523 . S
C1170 C1154 1.368 . S
C1170 C1166 1.368 . S
C1170 C1169 1.523 . S
H1171 C1146 0.950 . S
H1172 C1148 0.950 . S
H1173 C1149 0.949 . S
H1174 C1151 0.950 . S
H1175 C1153 0.950 . S
C1176 C1177 1.349 . S
C1176 C1178 1.327 . S
C1176 H1201 0.950 . S
C1177 C1176 1.349 . S
C1177 C1193 1.349 . S
C1178 C1176 1.327 . S
C1178 C1197 1.429 . S
C1178 H1202 0.950 . S
C1179 C1196 1.574 . S
C1179 C1198 1.368 . S
C1179 H1203 0.949 . S
H1180 C1184 0.949 . S
C1181 C1182 1.349 . S
C1181 C1183 1.327 . S
C1181 H1204 0.950 . S
C1182 C1181 1.349 . S
C1182 C1194 1.349 . S
C1183 C1181 1.327 . S
C1183 C1199 1.429 . S
C1183 H1205 0.950 . S
C1184 H1180 0.949 . S
C1184 C1192 1.574 . S
C1184 C1200 1.368 . S
H1185 C1193 0.950 . S
H1186 C1191 0.950 . S
H1187 C1192 0.949 . S
H1188 C1194 0.950 . S
H1189 C1195 0.950 . S
H1190 C1196 0.949 . S
C1191 H1186 0.950 . S
C1191 C1193 1.327 . S
C1191 C1197 1.429 . S
C1192 C1184 1.574 . S
C1192 H1187 0.949 . S
C1192 C1198 1.368 . S
C1193 C1177 1.349 . S
C1193 H1185 0.950 . S
C1193 C1191 1.327 . S
C1194 C1182 1.349 . S
C1194 H1188 0.950 . S
C1194 C1195 1.327 . S
C1195 H1189 0.950 . S
C1195 C1194 1.327 . S
C1195 C1199 1.429 . S
C1196 C1179 1.574 . S
C1196 H1190 0.949 . S
C1196 C1200 1.368 . S
C1197 C1178 1.429 . S
C1197 C1191 1.429 . S
C1197 C1198 1.523 . S
C1198 C1179 1.368 . S
C1198 C1192 1.368 . S
C1198 C1197 1.523 . S
C1199 C1183 1.429 . S
C1199 C1195 1.429 . S
C1199 C1200 1.523 . S
C1200 C1184 1.368 . S
C1200 C1196 1.368 . S
C1200 C1199 1.523 . S
H1201 C1176 0.950 . S
H1202 C1178 0.950 . S
H1203 C1179 0.949 . S
H1204 C1181 0.950 . S
H1205 C1183 0.950 . S
C1206 C1207 1.349 . S
C1206 C1208 1.327 . S
C1206 H1231 0.950 1_556 S
C1207 C1206 1.349 . S
C1207 C1223 1.349 . S
C1208 C1206 1.327 . S
C1208 C1227 1.429 . S
C1208 H1232 0.950 . S
C1209 C1226 1.574 . S
C1209 C1228 1.368 . S
C1209 H1233 0.949 . S
H1210 C1214 0.949 . S
C1211 C1212 1.349 . S
C1211 C1213 1.327 . S
C1211 H1234 0.950 . S
C1212 C1211 1.349 . S
C1212 C1224 1.349 . S
C1213 C1211 1.327 . S
C1213 C1229 1.429 . S
C1213 H1235 0.950 . S
C1214 H1210 0.949 . S
C1214 C1222 1.574 . S
C1214 C1230 1.368 . S
H1215 C1223 0.950 . S
H1216 C1221 0.950 . S
H1217 C1222 0.949 . S
H1218 C1224 0.950 . S
H1219 C1225 0.950 . S
H1220 C1226 0.949 . S
C1221 H1216 0.950 . S
C1221 C1223 1.327 . S
C1221 C1227 1.429 . S
C1222 C1214 1.574 . S
C1222 H1217 0.949 . S
C1222 C1228 1.368 . S
C1223 C1207 1.349 . S
C1223 H1215 0.950 . S
C1223 C1221 1.327 . S
C1224 C1212 1.349 . S
C1224 H1218 0.950 . S
C1224 C1225 1.327 . S
C1225 H1219 0.950 . S
C1225 C1224 1.327 . S
C1225 C1229 1.429 . S
C1226 C1209 1.574 . S
C1226 H1220 0.949 . S
C1226 C1230 1.368 . S
C1227 C1208 1.429 . S
C1227 C1221 1.429 . S
C1227 C1228 1.523 . S
C1228 C1209 1.368 . S
C1228 C1222 1.368 . S
C1228 C1227 1.523 . S
C1229 C1213 1.429 . S
C1229 C1225 1.429 . S
C1229 C1230 1.523 . S
C1230 C1214 1.368 . S
C1230 C1226 1.368 . S
C1230 C1229 1.523 . S
H1231 C1206 0.950 1_554 S
H1232 C1208 0.950 . S
H1233 C1209 0.949 . S
H1234 C1211 0.950 . S
H1235 C1213 0.950 . S
C1236 C1237 1.349 . S
C1236 C1238 1.327 . S
C1236 H1261 0.950 . S
C1237 C1236 1.349 . S
C1237 C1253 1.349 . S
C1238 C1236 1.327 . S
C1238 C1257 1.429 . S
C1238 H1262 0.950 . S
C1239 C1256 1.574 . S
C1239 C1258 1.368 . S
C1239 H1263 0.949 . S
H1240 C1244 0.949 . S
C1241 C1242 1.349 . S
C1241 C1243 1.327 . S
C1241 H1264 0.950 . S
C1242 C1241 1.349 . S
C1242 C1254 1.349 . S
C1243 C1241 1.327 . S
C1243 C1259 1.429 . S
C1243 H1265 0.950 . S
C1244 H1240 0.949 . S
C1244 C1252 1.574 . S
C1244 C1260 1.368 . S
H1245 C1253 0.950 . S
H1246 C1251 0.950 . S
H1247 C1252 0.949 . S
H1248 C1254 0.950 . S
H1249 C1255 0.950 . S
H1250 C1256 0.949 . S
C1251 H1246 0.950 . S
C1251 C1253 1.327 . S
C1251 C1257 1.429 . S
C1252 C1244 1.574 . S
C1252 H1247 0.949 . S
C1252 C1258 1.368 . S
C1253 C1237 1.349 . S
C1253 H1245 0.950 . S
C1253 C1251 1.327 . S
C1254 C1242 1.349 . S
C1254 H1248 0.950 . S
C1254 C1255 1.327 . S
C1255 H1249 0.950 . S
C1255 C1254 1.327 . S
C1255 C1259 1.429 . S
C1256 C1239 1.574 . S
C1256 H1250 0.949 . S
C1256 C1260 1.368 . S
C1257 C1238 1.429 . S
C1257 C1251 1.429 . S
C1257 C1258 1.523 . S
C1258 C1239 1.368 . S
C1258 C1252 1.368 . S
C1258 C1257 1.523 . S
C1259 C1243 1.429 . S
C1259 C1255 1.429 . S
C1259 C1260 1.523 . S
C1260 C1244 1.368 . S
C1260 C1256 1.368 . S
C1260 C1259 1.523 . S
H1261 C1236 0.950 . S
H1262 C1238 0.950 . S
H1263 C1239 0.949 . S
H1264 C1241 0.950 . S
H1265 C1243 0.950 . S
C1266 C1267 1.349 . S
C1266 C1268 1.327 . S
C1266 H1291 0.950 . S
C1267 C1266 1.349 . S
C1267 C1283 1.349 . S
C1268 C1266 1.327 . S
C1268 C1287 1.429 . S
C1268 H1292 0.950 . S
C1269 C1286 1.574 . S
C1269 C1288 1.368 . S
C1269 H1293 0.949 . S
H1270 C1274 0.949 . S
C1271 C1272 1.349 . S
C1271 C1273 1.327 . S
C1271 H1294 0.950 . S
C1272 C1271 1.349 . S
C1272 C1284 1.349 . S
C1273 C1271 1.327 . S
C1273 C1289 1.429 . S
C1273 H1295 0.950 . S
C1274 H1270 0.949 . S
C1274 C1282 1.574 . S
C1274 C1290 1.368 . S
H1275 C1283 0.950 . S
H1276 C1281 0.950 . S
H1277 C1282 0.949 . S
H1278 C1284 0.950 . S
H1279 C1285 0.950 . S
H1280 C1286 0.949 . S
C1281 H1276 0.950 . S
C1281 C1283 1.327 . S
C1281 C1287 1.429 . S
C1282 C1274 1.574 . S
C1282 H1277 0.949 . S
C1282 C1288 1.368 . S
C1283 C1267 1.349 . S
C1283 H1275 0.950 . S
C1283 C1281 1.327 . S
C1284 C1272 1.349 . S
C1284 H1278 0.950 . S
C1284 C1285 1.327 . S
C1285 H1279 0.950 . S
C1285 C1284 1.327 . S
C1285 C1289 1.429 . S
C1286 C1269 1.574 . S
C1286 H1280 0.949 . S
C1286 C1290 1.368 . S
C1287 C1268 1.429 . S
C1287 C1281 1.429 . S
C1287 C1288 1.523 . S
C1288 C1269 1.368 . S
C1288 C1282 1.368 . S
C1288 C1287 1.523 . S
C1289 C1273 1.429 . S
C1289 C1285 1.429 . S
C1289 C1290 1.523 . S
C1290 C1274 1.368 . S
C1290 C1286 1.368 . S
C1290 C1289 1.523 . S
H1291 C1266 0.950 . S
H1292 C1268 0.950 . S
H1293 C1269 0.949 . S
H1294 C1271 0.950 . S
H1295 C1273 0.950 . S
C1296 C1297 1.349 . S
C1296 C1298 1.327 . S
C1296 H1321 0.950 . S
C1297 C1296 1.349 . S
C1297 C1313 1.349 . S
C1298 C1296 1.327 . S
C1298 C1317 1.429 . S
C1298 H1322 0.950 . S
C1299 C1316 1.574 . S
C1299 C1318 1.368 . S
C1299 H1323 0.949 . S
H1300 C1304 0.949 . S
C1301 C1302 1.349 . S
C1301 C1303 1.327 . S
C1301 H1324 0.950 . S
C1302 C1301 1.349 . S
C1302 C1314 1.349 . S
C1303 C1301 1.327 . S
C1303 C1319 1.429 . S
C1303 H1325 0.950 . S
C1304 H1300 0.949 . S
C1304 C1312 1.574 . S
C1304 C1320 1.368 . S
H1305 C1313 0.950 . S
H1306 C1311 0.950 . S
H1307 C1312 0.949 . S
H1308 C1314 0.950 . S
H1309 C1315 0.950 . S
H1310 C1316 0.949 . S
C1311 H1306 0.950 . S
C1311 C1313 1.327 . S
C1311 C1317 1.429 . S
C1312 C1304 1.574 . S
C1312 H1307 0.949 . S
C1312 C1318 1.368 . S
C1313 C1297 1.349 . S
C1313 H1305 0.950 . S
C1313 C1311 1.327 . S
C1314 C1302 1.349 . S
C1314 H1308 0.950 . S
C1314 C1315 1.327 . S
C1315 H1309 0.950 . S
C1315 C1314 1.327 . S
C1315 C1319 1.429 . S
C1316 C1299 1.574 . S
C1316 H1310 0.949 . S
C1316 C1320 1.368 . S
C1317 C1298 1.429 . S
C1317 C1311 1.429 . S
C1317 C1318 1.523 . S
C1318 C1299 1.368 . S
C1318 C1312 1.368 . S
C1318 C1317 1.523 . S
C1319 C1303 1.429 . S
C1319 C1315 1.429 . S
C1319 C1320 1.523 . S
C1320 C1304 1.368 . S
C1320 C1316 1.368 . S
C1320 C1319 1.523 . S
H1321 C1296 0.950 . S
H1322 C1298 0.950 . S
H1323 C1299 0.949 . S
H1324 C1301 0.950 . S
H1325 C1303 0.950 . S
C1326 C1327 1.349 . S
C1326 C1328 1.327 . S
C1326 H1351 0.950 . S
C1327 C1326 1.349 . S
C1327 C1343 1.349 . S
C1328 C1326 1.327 . S
C1328 C1347 1.429 . S
C1328 H1352 0.950 . S
C1329 C1346 1.574 . S
C1329 C1348 1.368 . S
C1329 H1353 0.949 . S
H1330 C1334 0.949 . S
C1331 C1332 1.349 . S
C1331 C1333 1.327 . S
C1331 H1354 0.950 . S
C1332 C1331 1.349 . S
C1332 C1344 1.349 . S
C1333 C1331 1.327 . S
C1333 C1349 1.429 . S
C1333 H1355 0.950 . S
C1334 H1330 0.949 . S
C1334 C1342 1.574 . S
C1334 C1350 1.368 . S
H1335 C1343 0.950 . S
H1336 C1341 0.950 . S
H1337 C1342 0.949 . S
H1338 C1344 0.950 . S
H1339 C1345 0.950 . S
H1340 C1346 0.949 . S
C1341 H1336 0.950 . S
C1341 C1343 1.327 . S
C1341 C1347 1.429 . S
C1342 C1334 1.574 . S
C1342 H1337 0.949 . S
C1342 C1348 1.368 . S
C1343 C1327 1.349 . S
C1343 H1335 0.950 . S
C1343 C1341 1.327 . S
C1344 C1332 1.349 . S
C1344 H1338 0.950 . S
C1344 C1345 1.327 . S
C1345 H1339 0.950 . S
C1345 C1344 1.327 . S
C1345 C1349 1.429 . S
C1346 C1329 1.574 . S
C1346 H1340 0.949 . S
C1346 C1350 1.368 . S
C1347 C1328 1.429 . S
C1347 C1341 1.429 . S
C1347 C1348 1.523 . S
C1348 C1329 1.368 . S
C1348 C1342 1.368 . S
C1348 C1347 1.523 . S
C1349 C1333 1.429 . S
C1349 C1345 1.429 . S
C1349 C1350 1.523 . S
C1350 C1334 1.368 . S
C1350 C1346 1.368 . S
C1350 C1349 1.523 . S
H1351 C1326 0.950 . S
H1352 C1328 0.950 . S
H1353 C1329 0.949 . S
H1354 C1331 0.950 . S
H1355 C1333 0.950 . S
C1356 C1357 1.349 1_565 S
C1356 C1358 1.327 . S
C1356 H1381 0.950 . S
C1357 C1356 1.349 1_545 S
C1357 C1373 1.349 . S
C1358 C1356 1.327 . S
C1358 C1377 1.429 1_565 S
C1358 H1382 0.950 . S
C1359 C1376 1.574 . S
C1359 C1378 1.368 . S
C1359 H1383 0.949 . S
H1360 C1364 0.949 . S
C1361 C1362 1.349 . S
C1361 C1363 1.327 . S
C1361 H1384 0.950 . S
C1362 C1361 1.349 . S
C1362 C1374 1.349 . S
C1363 C1361 1.327 . S
C1363 C1379 1.429 . S
C1363 H1385 0.950 . S
C1364 H1360 0.949 . S
C1364 C1372 1.574 . S
C1364 C1380 1.368 1_565 S
H1365 C1373 0.950 . S
H1366 C1371 0.950 . S
H1367 C1372 0.949 . S
H1368 C1374 0.950 1_565 S
H1369 C1375 0.950 1_565 S
H1370 C1376 0.949 . S
C1371 H1366 0.950 . S
C1371 C1373 1.327 . S
C1371 C1377 1.429 . S
C1372 C1364 1.574 . S
C1372 H1367 0.949 . S
C1372 C1378 1.368 1_565 S
C1373 C1357 1.349 . S
C1373 H1365 0.950 . S
C1373 C1371 1.327 . S
C1374 C1362 1.349 . S
C1374 H1368 0.950 1_545 S
C1374 C1375 1.327 . S
C1375 H1369 0.950 1_545 S
C1375 C1374 1.327 . S
C1375 C1379 1.429 . S
C1376 C1359 1.574 . S
C1376 H1370 0.949 . S
C1376 C1380 1.368 . S
C1377 C1358 1.429 1_545 S
C1377 C1371 1.429 . S
C1377 C1378 1.523 . S
C1378 C1359 1.368 . S
C1378 C1372 1.368 1_545 S
C1378 C1377 1.523 . S
C1379 C1363 1.429 . S
C1379 C1375 1.429 . S
C1379 C1380 1.523 . S
C1380 C1364 1.368 1_545 S
C1380 C1376 1.368 . S
C1380 C1379 1.523 . S
H1381 C1356 0.950 . S
H1382 C1358 0.950 . S
H1383 C1359 0.949 . S
H1384 C1361 0.950 . S
H1385 C1363 0.950 . S
C1386 C1387 1.349 . S
C1386 C1388 1.327 . S
C1386 H1411 0.950 . S
C1387 C1386 1.349 . S
C1387 C1403 1.349 . S
C1388 C1386 1.327 . S
C1388 C1407 1.429 . S
C1388 H1412 0.950 . S
C1389 C1406 1.574 . S
C1389 C1408 1.368 . S
C1389 H1413 0.949 . S
H1390 C1394 0.949 . S
C1391 C1392 1.349 . S
C1391 C1393 1.327 . S
C1391 H1414 0.950 . S
C1392 C1391 1.349 . S
C1392 C1404 1.349 . S
C1393 C1391 1.327 . S
C1393 C1409 1.429 . S
C1393 H1415 0.950 . S
C1394 H1390 0.949 . S
C1394 C1402 1.574 . S
C1394 C1410 1.368 . S
H1395 C1403 0.950 . S
H1396 C1401 0.950 . S
H1397 C1402 0.949 . S
H1398 C1404 0.950 . S
H1399 C1405 0.950 . S
H1400 C1406 0.949 . S
C1401 H1396 0.950 . S
C1401 C1403 1.327 . S
C1401 C1407 1.429 . S
C1402 C1394 1.574 . S
C1402 H1397 0.949 . S
C1402 C1408 1.368 . S
C1403 C1387 1.349 . S
C1403 H1395 0.950 . S
C1403 C1401 1.327 . S
C1404 C1392 1.349 . S
C1404 H1398 0.950 . S
C1404 C1405 1.327 . S
C1405 H1399 0.950 . S
C1405 C1404 1.327 . S
C1405 C1409 1.429 . S
C1406 C1389 1.574 . S
C1406 H1400 0.949 . S
C1406 C1410 1.368 . S
C1407 C1388 1.429 . S
C1407 C1401 1.429 . S
C1407 C1408 1.523 . S
C1408 C1389 1.368 . S
C1408 C1402 1.368 . S
C1408 C1407 1.523 . S
C1409 C1393 1.429 . S
C1409 C1405 1.429 . S
C1409 C1410 1.523 . S
C1410 C1394 1.368 . S
C1410 C1406 1.368 . S
C1410 C1409 1.523 . S
H1411 C1386 0.950 . S
H1412 C1388 0.950 . S
H1413 C1389 0.949 . S
H1414 C1391 0.950 . S
H1415 C1393 0.950 . S
C1416 C1417 1.349 . S
C1416 C1418 1.327 . S
C1416 H1441 0.950 . S
C1417 C1416 1.349 . S
C1417 C1433 1.349 . S
C1418 C1416 1.327 . S
C1418 C1437 1.429 . S
C1418 H1442 0.950 . S
C1419 C1436 1.574 . S
C1419 C1438 1.368 . S
C1419 H1443 0.949 . S
H1420 C1424 0.949 . S
C1421 C1422 1.349 . S
C1421 C1423 1.327 . S
C1421 H1444 0.950 . S
C1422 C1421 1.349 . S
C1422 C1434 1.349 . S
C1423 C1421 1.327 . S
C1423 C1439 1.429 . S
C1423 H1445 0.950 . S
C1424 H1420 0.949 . S
C1424 C1432 1.574 . S
C1424 C1440 1.368 . S
H1425 C1433 0.950 . S
H1426 C1431 0.950 . S
H1427 C1432 0.949 . S
H1428 C1434 0.950 . S
H1429 C1435 0.950 . S
H1430 C1436 0.949 . S
C1431 H1426 0.950 . S
C1431 C1433 1.327 . S
C1431 C1437 1.429 . S
C1432 C1424 1.574 . S
C1432 H1427 0.949 . S
C1432 C1438 1.368 . S
C1433 C1417 1.349 . S
C1433 H1425 0.950 . S
C1433 C1431 1.327 . S
C1434 C1422 1.349 . S
C1434 H1428 0.950 . S
C1434 C1435 1.327 . S
C1435 H1429 0.950 . S
C1435 C1434 1.327 . S
C1435 C1439 1.429 . S
C1436 C1419 1.574 . S
C1436 H1430 0.949 . S
C1436 C1440 1.368 . S
C1437 C1418 1.429 . S
C1437 C1431 1.429 . S
C1437 C1438 1.523 . S
C1438 C1419 1.368 . S
C1438 C1432 1.368 . S
C1438 C1437 1.523 . S
C1439 C1423 1.429 . S
C1439 C1435 1.429 . S
C1439 C1440 1.523 . S
C1440 C1424 1.368 . S
C1440 C1436 1.368 . S
C1440 C1439 1.523 . S
H1441 C1416 0.950 . S
H1442 C1418 0.950 . S
H1443 C1419 0.949 . S
H1444 C1421 0.950 . S
H1445 C1423 0.950 . S
C1446 C1447 1.349 . S
C1446 C1448 1.327 . S
C1446 H1471 0.950 . S
C1447 C1446 1.349 . S
C1447 C1463 1.349 . S
C1448 C1446 1.327 . S
C1448 C1467 1.429 . S
C1448 H1472 0.950 . S
C1449 C1466 1.574 . S
C1449 C1468 1.368 . S
C1449 H1473 0.949 . S
H1450 C1454 0.949 . S
C1451 C1452 1.349 . S
C1451 C1453 1.327 . S
C1451 H1474 0.950 . S
C1452 C1451 1.349 . S
C1452 C1464 1.349 . S
C1453 C1451 1.327 . S
C1453 C1469 1.429 . S
C1453 H1475 0.950 . S
C1454 H1450 0.949 . S
C1454 C1462 1.574 . S
C1454 C1470 1.368 . S
H1455 C1463 0.950 . S
H1456 C1461 0.950 . S
H1457 C1462 0.949 . S
H1458 C1464 0.950 1_554 S
H1459 C1465 0.950 . S
H1460 C1466 0.949 . S
C1461 H1456 0.950 . S
C1461 C1463 1.327 . S
C1461 C1467 1.429 . S
C1462 C1454 1.574 . S
C1462 H1457 0.949 . S
C1462 C1468 1.368 . S
C1463 C1447 1.349 . S
C1463 H1455 0.950 . S
C1463 C1461 1.327 . S
C1464 C1452 1.349 . S
C1464 H1458 0.950 1_556 S
C1464 C1465 1.327 . S
C1465 H1459 0.950 . S
C1465 C1464 1.327 . S
C1465 C1469 1.429 . S
C1466 C1449 1.574 . S
C1466 H1460 0.949 . S
C1466 C1470 1.368 . S
C1467 C1448 1.429 . S
C1467 C1461 1.429 . S
C1467 C1468 1.523 . S
C1468 C1449 1.368 . S
C1468 C1462 1.368 . S
C1468 C1467 1.523 . S
C1469 C1453 1.429 . S
C1469 C1465 1.429 . S
C1469 C1470 1.523 . S
C1470 C1454 1.368 . S
C1470 C1466 1.368 . S
C1470 C1469 1.523 . S
H1471 C1446 0.950 . S
H1472 C1448 0.950 . S
H1473 C1449 0.949 . S
H1474 C1451 0.950 . S
H1475 C1453 0.950 . S
C1476 C1477 1.349 . S
C1476 C1478 1.327 . S
C1476 H1501 0.950 . S
C1477 C1476 1.349 . S
C1477 C1493 1.349 . S
C1478 C1476 1.327 . S
C1478 C1497 1.429 . S
C1478 H1502 0.950 . S
C1479 C1496 1.574 . S
C1479 C1498 1.368 . S
C1479 H1503 0.949 . S
H1480 C1484 0.949 . S
C1481 C1482 1.349 . S
C1481 C1483 1.327 1_556 S
C1481 H1504 0.950 . S
C1482 C1481 1.349 . S
C1482 C1494 1.349 . S
C1483 C1481 1.327 1_554 S
C1483 C1499 1.429 . S
C1483 H1505 0.950 . S
C1484 H1480 0.949 . S
C1484 C1492 1.574 . S
C1484 C1500 1.368 . S
H1485 C1493 0.950 . S
H1486 C1491 0.950 . S
H1487 C1492 0.949 . S
H1488 C1494 0.950 . S
H1489 C1495 0.950 . S
H1490 C1496 0.949 . S
C1491 H1486 0.950 . S
C1491 C1493 1.327 . S
C1491 C1497 1.429 . S
C1492 C1484 1.574 . S
C1492 H1487 0.949 . S
C1492 C1498 1.368 . S
C1493 C1477 1.349 . S
C1493 H1485 0.950 . S
C1493 C1491 1.327 . S
C1494 C1482 1.349 . S
C1494 H1488 0.950 . S
C1494 C1495 1.327 1_556 S
C1495 H1489 0.950 . S
C1495 C1494 1.327 1_554 S
C1495 C1499 1.429 . S
C1496 C1479 1.574 . S
C1496 H1490 0.949 . S
C1496 C1500 1.368 . S
C1497 C1478 1.429 . S
C1497 C1491 1.429 . S
C1497 C1498 1.523 . S
C1498 C1479 1.368 . S
C1498 C1492 1.368 . S
C1498 C1497 1.523 . S
C1499 C1483 1.429 . S
C1499 C1495 1.429 . S
C1499 C1500 1.523 . S
C1500 C1484 1.368 . S
C1500 C1496 1.368 . S
C1500 C1499 1.523 . S
H1501 C1476 0.950 . S
H1502 C1478 0.950 . S
H1503 C1479 0.949 . S
H1504 C1481 0.950 . S
H1505 C1483 0.950 . S
C1506 C1507 1.349 . S
C1506 C1508 1.327 . S
C1506 H1531 0.950 . S
C1507 C1506 1.349 . S
C1507 C1523 1.349 . S
C1508 C1506 1.327 . S
C1508 C1527 1.429 . S
C1508 H1532 0.950 . S
C1509 C1526 1.574 . S
C1509 C1528 1.368 . S
C1509 H1533 0.949 . S
H1510 C1514 0.949 . S
C1511 C1512 1.349 . S
C1511 C1513 1.327 . S
C1511 H1534 0.950 . S
C1512 C1511 1.349 . S
C1512 C1524 1.349 . S
C1513 C1511 1.327 . S
C1513 C1529 1.429 . S
C1513 H1535 0.950 . S
C1514 H1510 0.949 . S
C1514 C1522 1.574 . S
C1514 C1530 1.368 . S
H1515 C1523 0.950 . S
H1516 C1521 0.950 . S
H1517 C1522 0.949 . S
H1518 C1524 0.950 . S
H1519 C1525 0.950 . S
H1520 C1526 0.949 . S
C1521 H1516 0.950 . S
C1521 C1523 1.327 . S
C1521 C1527 1.429 . S
C1522 C1514 1.574 . S
C1522 H1517 0.949 . S
C1522 C1528 1.368 . S
C1523 C1507 1.349 . S
C1523 H1515 0.950 . S
C1523 C1521 1.327 . S
C1524 C1512 1.349 . S
C1524 H1518 0.950 . S
C1524 C1525 1.327 . S
C1525 H1519 0.950 . S
C1525 C1524 1.327 . S
C1525 C1529 1.429 . S
C1526 C1509 1.574 . S
C1526 H1520 0.949 . S
C1526 C1530 1.368 . S
C1527 C1508 1.429 . S
C1527 C1521 1.429 . S
C1527 C1528 1.523 . S
C1528 C1509 1.368 . S
C1528 C1522 1.368 . S
C1528 C1527 1.523 . S
C1529 C1513 1.429 . S
C1529 C1525 1.429 . S
C1529 C1530 1.523 . S
C1530 C1514 1.368 . S
C1530 C1526 1.368 . S
C1530 C1529 1.523 . S
H1531 C1506 0.950 . S
H1532 C1508 0.950 . S
H1533 C1509 0.949 . S
H1534 C1511 0.950 . S
H1535 C1513 0.950 . S
C1536 C1537 1.349 . S
C1536 C1538 1.327 . S
C1536 H1561 0.950 . S
C1537 C1536 1.349 . S
C1537 C1553 1.349 . S
C1538 C1536 1.327 . S
C1538 C1557 1.429 . S
C1538 H1562 0.950 . S
C1539 C1556 1.574 . S
C1539 C1558 1.368 . S
C1539 H1563 0.949 . S
H1540 C1544 0.949 . S
C1541 C1542 1.349 . S
C1541 C1543 1.327 . S
C1541 H1564 0.950 . S
C1542 C1541 1.349 . S
C1542 C1554 1.349 . S
C1543 C1541 1.327 . S
C1543 C1559 1.429 . S
C1543 H1565 0.950 . S
C1544 H1540 0.949 . S
C1544 C1552 1.574 . S
C1544 C1560 1.368 . S
H1545 C1553 0.950 . S
H1546 C1551 0.950 . S
H1547 C1552 0.949 . S
H1548 C1554 0.950 . S
H1549 C1555 0.950 . S
H1550 C1556 0.949 . S
C1551 H1546 0.950 . S
C1551 C1553 1.327 . S
C1551 C1557 1.429 . S
C1552 C1544 1.574 . S
C1552 H1547 0.949 . S
C1552 C1558 1.368 . S
C1553 C1537 1.349 . S
C1553 H1545 0.950 . S
C1553 C1551 1.327 . S
C1554 C1542 1.349 . S
C1554 H1548 0.950 . S
C1554 C1555 1.327 . S
C1555 H1549 0.950 . S
C1555 C1554 1.327 . S
C1555 C1559 1.429 . S
C1556 C1539 1.574 . S
C1556 H1550 0.949 . S
C1556 C1560 1.368 . S
C1557 C1538 1.429 . S
C1557 C1551 1.429 . S
C1557 C1558 1.523 . S
C1558 C1539 1.368 . S
C1558 C1552 1.368 . S
C1558 C1557 1.523 . S
C1559 C1543 1.429 . S
C1559 C1555 1.429 . S
C1559 C1560 1.523 . S
C1560 C1544 1.368 . S
C1560 C1556 1.368 . S
C1560 C1559 1.523 . S
H1561 C1536 0.950 . S
H1562 C1538 0.950 . S
H1563 C1539 0.949 . S
H1564 C1541 0.950 . S
H1565 C1543 0.950 . S
C757 C69 1.107 . S
C762 C657 1.119 . S
C787 C140 2.187 . S
C792 C728 2.191 . S
C817 C237 1.346 . S
C822 C560 1.524 . S
C847 C392 2.235 . S
C852 C224 2.243 . S
C877 C476 2.185 . S
C882 C56 2.182 . S
C907 C153 1.914 . S
C912 C308 2.148 . S
C937 C644 1.508 . S
C942 C489 1.376 . S
C967 C741 1.254 . S
C972 C321 1.270 . S
C997 C405 1.514 . S
C1002 C573 1.535 . S
C1027 C226 1.347 . S
C1032 C67 1.659 . S
C1057 C142 1.127 . S
C1062 C58 1.142 . S
C1087 C151 2.888 . S
C1092 C235 2.908 1_554 S
C1117 C310 1.566 . S
C1122 C487 1.960 . S
C1147 C319 1.999 . S
C1152 C394 1.636 . S
C1177 C403 1.882 . S
C1182 C478 1.460 . S
C1207 C730 1.720 . S
C1212 C571 2.198 . S
C1237 C646 0.769 . S
C1242 C562 0.771 . S
C1267 C739 2.009 . S
C1272 C655 2.003 . S
C1297 C74 1.405 . S
C1302 C63 1.405 . S
C1327 C147 1.423 . S
C1332 C158 1.423 . S
C1357 C242 1.455 . S
C1362 C231 1.455 . S
C1387 C326 1.427 . S
C1392 C315 1.427 1_556 S
C1417 C410 1.409 . S
C1422 C399 1.409 . S
C1447 C494 1.440 . S
C1452 C483 1.440 1_556 S
C1477 C578 1.407 . S
C1482 C567 1.407 . S
C1507 C662 1.401 1_554 S
C1512 C651 1.401 . S
C1537 C746 1.423 . S
C1542 C735 1.423 1_554 S
