# Generated by pormake.
# Topology wna, (6)-cn, num edge types: 1
# Building blocks:
#     Node 0, Type 0, BuildingBlock: MIFKUJ_clean_sbu_0, # of connection points: 6
#     Node 1, Type 0, BuildingBlock: MIFKUJ_clean_sbu_0, # of connection points: 6
#     Node 2, Type 0, BuildingBlock: MIFKUJ_clean_sbu_0, # of connection points: 6
#     Node 3, Type 0, BuildingBlock: MIFKUJ_clean_sbu_0, # of connection points: 6
#     Node 4, Type 0, BuildingBlock: MIFKUJ_clean_sbu_0, # of connection points: 6
#     Node 5, Type 0, BuildingBlock: MIFKUJ_clean_sbu_0, # of connection points: 6
#     Node 6, Type 0, BuildingBlock: MIFKUJ_clean_sbu_0, # of connection points: 6
#     Node 7, Type 0, BuildingBlock: MIFKUJ_clean_sbu_0, # of connection points: 6
#     Node 8, Type 0, BuildingBlock: MIFKUJ_clean_sbu_0, # of connection points: 6
#     Node 9, Type 0, BuildingBlock: MIFKUJ_clean_sbu_0, # of connection points: 6
#     Node 10, Type 0, BuildingBlock: MIFKUJ_clean_sbu_0, # of connection points: 6
#     Node 11, Type 0, BuildingBlock: MIFKUJ_clean_sbu_0, # of connection points: 6
#     Node 12, Type 0, BuildingBlock: MIFKUJ_clean_sbu_0, # of connection points: 6
#     Node 13, Type 0, BuildingBlock: MIFKUJ_clean_sbu_0, # of connection points: 6
#     Node 14, Type 0, BuildingBlock: MIFKUJ_clean_sbu_0, # of connection points: 6
#     Node 15, Type 0, BuildingBlock: MIFKUJ_clean_sbu_0, # of connection points: 6
#     Node 16, Type 0, BuildingBlock: MIFKUJ_clean_sbu_0, # of connection points: 6
#     Node 17, Type 0, BuildingBlock: MIFKUJ_clean_sbu_0, # of connection points: 6
#     Node 18, Type 0, BuildingBlock: MIFKUJ_clean_sbu_0, # of connection points: 6
#     Node 19, Type 0, BuildingBlock: MIFKUJ_clean_sbu_0, # of connection points: 6
#     Node 20, Type 0, BuildingBlock: MIFKUJ_clean_sbu_0, # of connection points: 6
#     Node 21, Type 0, BuildingBlock: MIFKUJ_clean_sbu_0, # of connection points: 6
#     Node 22, Type 0, BuildingBlock: MIFKUJ_clean_sbu_0, # of connection points: 6
#     Node 23, Type 0, BuildingBlock: MIFKUJ_clean_sbu_0, # of connection points: 6
#     Node 24, Type 0, BuildingBlock: MIFKUJ_clean_sbu_0, # of connection points: 6
#     Node 25, Type 0, BuildingBlock: MIFKUJ_clean_sbu_0, # of connection points: 6
#     Node 26, Type 0, BuildingBlock: MIFKUJ_clean_sbu_0, # of connection points: 6
#     Node 27, Type 0, BuildingBlock: MIFKUJ_clean_sbu_0, # of connection points: 6
#     Node 28, Type 0, BuildingBlock: MIFKUJ_clean_sbu_0, # of connection points: 6
#     Node 29, Type 0, BuildingBlock: MIFKUJ_clean_sbu_0, # of connection points: 6
#     Node 30, Type 0, BuildingBlock: MIFKUJ_clean_sbu_0, # of connection points: 6
#     Node 31, Type 0, BuildingBlock: MIFKUJ_clean_sbu_0, # of connection points: 6
#     Node 32, Type 0, BuildingBlock: MIFKUJ_clean_sbu_0, # of connection points: 6
#     Node 33, Type 0, BuildingBlock: MIFKUJ_clean_sbu_0, # of connection points: 6
#     Node 34, Type 0, BuildingBlock: MIFKUJ_clean_sbu_0, # of connection points: 6
#     Node 35, Type 0, BuildingBlock: MIFKUJ_clean_sbu_0, # of connection points: 6
#     Edge 36, Type (0, 0), BuildingBlock: OJICUG_clean_linker_0, # of connection points: 2
#     Edge 37, Type (0, 0), BuildingBlock: OJICUG_clean_linker_0, # of connection points: 2
#     Edge 38, Type (0, 0), BuildingBlock: OJICUG_clean_linker_0, # of connection points: 2
#     Edge 39, Type (0, 0), BuildingBlock: OJICUG_clean_linker_0, # of connection points: 2
#     Edge 40, Type (0, 0), BuildingBlock: OJICUG_clean_linker_0, # of connection points: 2
#     Edge 41, Type (0, 0), BuildingBlock: OJICUG_clean_linker_0, # of connection points: 2
#     Edge 42, Type (0, 0), BuildingBlock: OJICUG_clean_linker_0, # of connection points: 2
#     Edge 43, Type (0, 0), BuildingBlock: OJICUG_clean_linker_0, # of connection points: 2
#     Edge 44, Type (0, 0), BuildingBlock: OJICUG_clean_linker_0, # of connection points: 2
#     Edge 45, Type (0, 0), BuildingBlock: OJICUG_clean_linker_0, # of connection points: 2
#     Edge 46, Type (0, 0), BuildingBlock: OJICUG_clean_linker_0, # of connection points: 2
#     Edge 47, Type (0, 0), BuildingBlock: OJICUG_clean_linker_0, # of connection points: 2
#     Edge 48, Type (0, 0), BuildingBlock: OJICUG_clean_linker_0, # of connection points: 2
#     Edge 49, Type (0, 0), BuildingBlock: OJICUG_clean_linker_0, # of connection points: 2
#     Edge 50, Type (0, 0), BuildingBlock: OJICUG_clean_linker_0, # of connection points: 2
#     Edge 51, Type (0, 0), BuildingBlock: OJICUG_clean_linker_0, # of connection points: 2
#     Edge 52, Type (0, 0), BuildingBlock: OJICUG_clean_linker_0, # of connection points: 2
#     Edge 53, Type (0, 0), BuildingBlock: OJICUG_clean_linker_0, # of connection points: 2
#     Edge 54, Type (0, 0), BuildingBlock: OJICUG_clean_linker_0, # of connection points: 2
#     Edge 55, Type (0, 0), BuildingBlock: OJICUG_clean_linker_0, # of connection points: 2
#     Edge 56, Type (0, 0), BuildingBlock: OJICUG_clean_linker_0, # of connection points: 2
#     Edge 57, Type (0, 0), BuildingBlock: OJICUG_clean_linker_0, # of connection points: 2
#     Edge 58, Type (0, 0), BuildingBlock: OJICUG_clean_linker_0, # of connection points: 2
#     Edge 59, Type (0, 0), BuildingBlock: OJICUG_clean_linker_0, # of connection points: 2
#     Edge 60, Type (0, 0), BuildingBlock: OJICUG_clean_linker_0, # of connection points: 2
#     Edge 61, Type (0, 0), BuildingBlock: OJICUG_clean_linker_0, # of connection points: 2
#     Edge 62, Type (0, 0), BuildingBlock: OJICUG_clean_linker_0, # of connection points: 2
#     Edge 63, Type (0, 0), BuildingBlock: OJICUG_clean_linker_0, # of connection points: 2
#     Edge 64, Type (0, 0), BuildingBlock: OJICUG_clean_linker_0, # of connection points: 2
#     Edge 65, Type (0, 0), BuildingBlock: OJICUG_clean_linker_0, # of connection points: 2
#     Edge 66, Type (0, 0), BuildingBlock: OJICUG_clean_linker_0, # of connection points: 2
#     Edge 67, Type (0, 0), BuildingBlock: OJICUG_clean_linker_0, # of connection points: 2
#     Edge 68, Type (0, 0), BuildingBlock: OJICUG_clean_linker_0, # of connection points: 2
#     Edge 69, Type (0, 0), BuildingBlock: OJICUG_clean_linker_0, # of connection points: 2
#     Edge 70, Type (0, 0), BuildingBlock: OJICUG_clean_linker_0, # of connection points: 2
#     Edge 71, Type (0, 0), BuildingBlock: OJICUG_clean_linker_0, # of connection points: 2
#     Edge 72, Type (0, 0), BuildingBlock: OJICUG_clean_linker_0, # of connection points: 2
#     Edge 73, Type (0, 0), BuildingBlock: OJICUG_clean_linker_0, # of connection points: 2
#     Edge 74, Type (0, 0), BuildingBlock: OJICUG_clean_linker_0, # of connection points: 2
#     Edge 75, Type (0, 0), BuildingBlock: OJICUG_clean_linker_0, # of connection points: 2
#     Edge 76, Type (0, 0), BuildingBlock: OJICUG_clean_linker_0, # of connection points: 2
#     Edge 77, Type (0, 0), BuildingBlock: OJICUG_clean_linker_0, # of connection points: 2
#     Edge 78, Type (0, 0), BuildingBlock: OJICUG_clean_linker_0, # of connection points: 2
#     Edge 79, Type (0, 0), BuildingBlock: OJICUG_clean_linker_0, # of connection points: 2
#     Edge 80, Type (0, 0), BuildingBlock: OJICUG_clean_linker_0, # of connection points: 2
#     Edge 81, Type (0, 0), BuildingBlock: OJICUG_clean_linker_0, # of connection points: 2
#     Edge 82, Type (0, 0), BuildingBlock: OJICUG_clean_linker_0, # of connection points: 2
#     Edge 83, Type (0, 0), BuildingBlock: OJICUG_clean_linker_0, # of connection points: 2
#     Edge 84, Type (0, 0), BuildingBlock: OJICUG_clean_linker_0, # of connection points: 2
#     Edge 85, Type (0, 0), BuildingBlock: OJICUG_clean_linker_0, # of connection points: 2
#     Edge 86, Type (0, 0), BuildingBlock: OJICUG_clean_linker_0, # of connection points: 2
#     Edge 87, Type (0, 0), BuildingBlock: OJICUG_clean_linker_0, # of connection points: 2
#     Edge 88, Type (0, 0), BuildingBlock: OJICUG_clean_linker_0, # of connection points: 2
#     Edge 89, Type (0, 0), BuildingBlock: OJICUG_clean_linker_0, # of connection points: 2
#     Edge 90, Type (0, 0), BuildingBlock: OJICUG_clean_linker_0, # of connection points: 2
#     Edge 91, Type (0, 0), BuildingBlock: OJICUG_clean_linker_0, # of connection points: 2
#     Edge 92, Type (0, 0), BuildingBlock: OJICUG_clean_linker_0, # of connection points: 2
#     Edge 93, Type (0, 0), BuildingBlock: OJICUG_clean_linker_0, # of connection points: 2
#     Edge 94, Type (0, 0), BuildingBlock: OJICUG_clean_linker_0, # of connection points: 2
#     Edge 95, Type (0, 0), BuildingBlock: OJICUG_clean_linker_0, # of connection points: 2
#     Edge 96, Type (0, 0), BuildingBlock: OJICUG_clean_linker_0, # of connection points: 2
#     Edge 97, Type (0, 0), BuildingBlock: OJICUG_clean_linker_0, # of connection points: 2
#     Edge 98, Type (0, 0), BuildingBlock: OJICUG_clean_linker_0, # of connection points: 2
#     Edge 99, Type (0, 0), BuildingBlock: OJICUG_clean_linker_0, # of connection points: 2
#     Edge 100, Type (0, 0), BuildingBlock: OJICUG_clean_linker_0, # of connection points: 2
#     Edge 101, Type (0, 0), BuildingBlock: OJICUG_clean_linker_0, # of connection points: 2
#     Edge 102, Type (0, 0), BuildingBlock: OJICUG_clean_linker_0, # of connection points: 2
#     Edge 103, Type (0, 0), BuildingBlock: OJICUG_clean_linker_0, # of connection points: 2
#     Edge 104, Type (0, 0), BuildingBlock: OJICUG_clean_linker_0, # of connection points: 2
#     Edge 105, Type (0, 0), BuildingBlock: OJICUG_clean_linker_0, # of connection points: 2
#     Edge 106, Type (0, 0), BuildingBlock: OJICUG_clean_linker_0, # of connection points: 2
#     Edge 107, Type (0, 0), BuildingBlock: OJICUG_clean_linker_0, # of connection points: 2
#     Edge 108, Type (0, 0), BuildingBlock: OJICUG_clean_linker_0, # of connection points: 2
#     Edge 109, Type (0, 0), BuildingBlock: OJICUG_clean_linker_0, # of connection points: 2
#     Edge 110, Type (0, 0), BuildingBlock: OJICUG_clean_linker_0, # of connection points: 2
#     Edge 111, Type (0, 0), BuildingBlock: OJICUG_clean_linker_0, # of connection points: 2
#     Edge 112, Type (0, 0), BuildingBlock: OJICUG_clean_linker_0, # of connection points: 2
#     Edge 113, Type (0, 0), BuildingBlock: OJICUG_clean_linker_0, # of connection points: 2
#     Edge 114, Type (0, 0), BuildingBlock: OJICUG_clean_linker_0, # of connection points: 2
#     Edge 115, Type (0, 0), BuildingBlock: OJICUG_clean_linker_0, # of connection points: 2
#     Edge 116, Type (0, 0), BuildingBlock: OJICUG_clean_linker_0, # of connection points: 2
#     Edge 117, Type (0, 0), BuildingBlock: OJICUG_clean_linker_0, # of connection points: 2
#     Edge 118, Type (0, 0), BuildingBlock: OJICUG_clean_linker_0, # of connection points: 2
#     Edge 119, Type (0, 0), BuildingBlock: OJICUG_clean_linker_0, # of connection points: 2
#     Edge 120, Type (0, 0), BuildingBlock: OJICUG_clean_linker_0, # of connection points: 2
#     Edge 121, Type (0, 0), BuildingBlock: OJICUG_clean_linker_0, # of connection points: 2
#     Edge 122, Type (0, 0), BuildingBlock: OJICUG_clean_linker_0, # of connection points: 2
#     Edge 123, Type (0, 0), BuildingBlock: OJICUG_clean_linker_0, # of connection points: 2
#     Edge 124, Type (0, 0), BuildingBlock: OJICUG_clean_linker_0, # of connection points: 2
#     Edge 125, Type (0, 0), BuildingBlock: OJICUG_clean_linker_0, # of connection points: 2
#     Edge 126, Type (0, 0), BuildingBlock: OJICUG_clean_linker_0, # of connection points: 2
#     Edge 127, Type (0, 0), BuildingBlock: OJICUG_clean_linker_0, # of connection points: 2
#     Edge 128, Type (0, 0), BuildingBlock: OJICUG_clean_linker_0, # of connection points: 2
#     Edge 129, Type (0, 0), BuildingBlock: OJICUG_clean_linker_0, # of connection points: 2
#     Edge 130, Type (0, 0), BuildingBlock: OJICUG_clean_linker_0, # of connection points: 2
#     Edge 131, Type (0, 0), BuildingBlock: OJICUG_clean_linker_0, # of connection points: 2
#     Edge 132, Type (0, 0), BuildingBlock: OJICUG_clean_linker_0, # of connection points: 2
#     Edge 133, Type (0, 0), BuildingBlock: OJICUG_clean_linker_0, # of connection points: 2
#     Edge 134, Type (0, 0), BuildingBlock: OJICUG_clean_linker_0, # of connection points: 2
#     Edge 135, Type (0, 0), BuildingBlock: OJICUG_clean_linker_0, # of connection points: 2
#     Edge 136, Type (0, 0), BuildingBlock: OJICUG_clean_linker_0, # of connection points: 2
#     Edge 137, Type (0, 0), BuildingBlock: OJICUG_clean_linker_0, # of connection points: 2
#     Edge 138, Type (0, 0), BuildingBlock: OJICUG_clean_linker_0, # of connection points: 2
#     Edge 139, Type (0, 0), BuildingBlock: OJICUG_clean_linker_0, # of connection points: 2
#     Edge 140, Type (0, 0), BuildingBlock: OJICUG_clean_linker_0, # of connection points: 2
#     Edge 141, Type (0, 0), BuildingBlock: OJICUG_clean_linker_0, # of connection points: 2
#     Edge 142, Type (0, 0), BuildingBlock: OJICUG_clean_linker_0, # of connection points: 2
#     Edge 143, Type (0, 0), BuildingBlock: OJICUG_clean_linker_0, # of connection points: 2
# Relax obj value: 0.158
# Max RMSD: 0.212
# Mean RMSD: 0.204
data_MOF--net-wna--node1-MIFKUJ_clean_sbu_0--edge1-OJICUG_clean_linker_0
_symmetry_space_group_name_H-M    P1
_symmetry_Int_Tables_number       1
_symmetry_cell_setting            triclinic
loop_
_symmetry_equiv_pos_as_xyz
'x, y, z'
_cell_length_a     30.842386
_cell_length_b     30.862794
_cell_length_c     81.12792
_cell_angle_alpha  89.980121
_cell_angle_beta   90.010655
_cell_angle_gamma 119.90077
loop_
_atom_site_label
_atom_site_type_symbol
_atom_site_fract_x
_atom_site_fract_y
_atom_site_fract_z
_atom_type_partial_charge
Zn0 Zn 0.06178 0.2237 0.18691 0.0
Zn1 Zn 0.12669 0.28013 0.14953 0.0
C2 C 0.96285 0.14411 0.18185 0.0
O3 O 0.95495 0.16916 0.19343 0.0
C4 C 0.227 0.30696 0.14934 0.0
O5 O 0.20711 0.27178 0.13807 0.0
O6 O 0.04948 0.20915 0.21126 0.0
O7 O 0.12756 0.229 0.18105 0.0
O8 O 0.10536 0.20795 0.15528 0.0
C9 C 0.04336 0.1686 0.21746 0.0
O10 O 0.04914 0.13719 0.20805 0.0
O11 O 0.00663 0.16213 0.17592 0.0
C12 C 0.14783 0.33225 0.11905 0.0
O13 O 0.16787 0.36996 0.12942 0.0
O14 O 0.12695 0.28792 0.12475 0.0
O15 O 0.08922 0.31334 0.15827 0.0
O16 O 0.05375 0.28317 0.18248 0.0
O17 O 0.19886 0.31969 0.15681 0.0
C18 C 0.12471 0.2031 0.16851 0.0
C19 C 0.06445 0.31395 0.17069 0.0
Zn20 Zn 0.78542 0.84754 0.18867 0.0
Zn21 Zn 0.74949 0.85794 0.15094 0.0
C22 C 0.86183 0.82209 0.18305 0.0
O23 O 0.83857 0.79128 0.19531 0.0
C24 C 0.7101 0.92147 0.15077 0.0
O25 O 0.74634 0.94155 0.13985 0.0
O26 O 0.79815 0.84533 0.21306 0.0
O27 O 0.78888 0.91265 0.18334 0.0
O28 O 0.81809 0.91204 0.15866 0.0
C29 C 0.83961 0.87481 0.21999 0.0
O30 O 0.87518 0.91113 0.21134 0.0
O31 O 0.84368 0.84783 0.1772 0.0
C32 C 0.70339 0.82946 0.11991 0.0
O33 O 0.66526 0.80541 0.12995 0.0
O34 O 0.74677 0.85663 0.12602 0.0
O35 O 0.72008 0.78527 0.15697 0.0
O36 O 0.72144 0.78439 0.18417 0.0
O37 O 0.70224 0.88185 0.15813 0.0
C38 C 0.81789 0.93608 0.1714 0.0
C39 C 0.70481 0.76207 0.17054 0.0
Zn40 Zn 0.15742 0.9531 0.18523 0.0
Zn41 Zn 0.13778 0.87507 0.14889 0.0
C42 C 0.18037 0.05202 0.17838 0.0
O43 O 0.21529 0.05984 0.18919 0.0
C44 C 0.05868 0.7745 0.15536 0.0
O45 O 0.03052 0.79212 0.14982 0.0
O46 O 0.16225 0.97112 0.20931 0.0
O47 O 0.09484 0.88749 0.18212 0.0
O48 O 0.0888 0.89864 0.15561 0.0
C49 C 0.13151 0.98139 0.21628 0.0
O50 O 0.09321 0.97718 0.20785 0.0
O51 O 0.15151 0.00764 0.1734 0.0
C52 C 0.16283 0.84866 0.11858 0.0
O53 O 0.17417 0.82334 0.12905 0.0
O54 O 0.14468 0.87491 0.1241 0.0
O55 O 0.209 0.90939 0.15734 0.0
O56 O 0.22096 0.95431 0.17993 0.0
O57 O 0.10585 0.80279 0.15599 0.0
C58 C 0.06859 0.8853 0.16978 0.0
C59 C 0.23713 0.93694 0.16886 0.0
Zn60 Zn 0.22302 0.07431 0.31447 0.0
Zn61 Zn 0.28178 0.12567 0.35231 0.0
C62 C 0.1456 0.97499 0.32065 0.0
O63 O 0.17234 0.9662 0.30997 0.0
C64 C 0.30962 0.22525 0.3534 0.0
O65 O 0.27497 0.20426 0.36481 0.0
O66 O 0.21023 0.06747 0.29001 0.0
O67 O 0.23441 0.14003 0.32275 0.0
O68 O 0.2098 0.10818 0.34738 0.0
C69 C 0.16778 0.05362 0.28351 0.0
O70 O 0.13053 0.04792 0.29287 0.0
O71 O 0.16081 0.01971 0.32511 0.0
C72 C 0.33546 0.14609 0.38245 0.0
O73 O 0.37274 0.16708 0.37194 0.0
O74 O 0.29087 0.12453 0.37696 0.0
O75 O 0.31115 0.08523 0.34256 0.0
O76 O 0.27802 0.05976 0.3178 0.0
O77 O 0.32266 0.19805 0.34548 0.0
C78 C 0.20593 0.13161 0.33505 0.0
C79 C 0.30829 0.06334 0.32899 0.0
Zn80 Zn 0.94033 0.13738 0.31623 0.0
Zn81 Zn 0.87718 0.13585 0.35384 0.0
C82 C 0.03964 0.16372 0.32328 0.0
O83 O 0.04584 0.20027 0.31347 0.0
C84 C 0.77511 0.06803 0.3561 0.0
O85 O 0.79348 0.05383 0.36821 0.0
O86 O 0.95266 0.13882 0.29173 0.0
O87 O 0.87333 0.07914 0.32191 0.0
O88 O 0.89362 0.08081 0.34796 0.0
C89 C 0.97145 0.11544 0.2845 0.0
O90 O 0.97985 0.08405 0.29295 0.0
O91 O 0.99544 0.1308 0.32727 0.0
C92 C 0.85996 0.17061 0.38426 0.0
O93 O 0.84167 0.18978 0.37376 0.0
O94 O 0.87893 0.14512 0.37869 0.0
O95 O 0.91496 0.20633 0.34435 0.0
O96 O 0.94932 0.20432 0.32065 0.0
O97 O 0.80476 0.10534 0.34736 0.0
C98 C 0.87307 0.05609 0.3349 0.0
C99 C 0.93995 0.22803 0.33149 0.0
Zn100 Zn 0.85298 0.78009 0.31759 0.0
Zn101 Zn 0.85704 0.75798 0.3536 0.0
C102 C 0.81854 0.85079 0.32343 0.0
O103 O 0.78813 0.82631 0.31121 0.0
C104 C 0.91359 0.71186 0.35492 0.0
O105 O 0.93365 0.74825 0.36577 0.0
O106 O 0.84973 0.79258 0.29325 0.0
O107 O 0.92083 0.79131 0.32301 0.0
O108 O 0.91772 0.82421 0.34677 0.0
C109 C 0.8777 0.83513 0.28672 0.0
O110 O 0.91227 0.87111 0.29575 0.0
O111 O 0.84682 0.8353 0.32906 0.0
C112 C 0.822 0.70879 0.38407 0.0
O113 O 0.79717 0.67226 0.37354 0.0
O114 O 0.85146 0.75243 0.37851 0.0
O115 O 0.78709 0.73987 0.34605 0.0
O116 O 0.79523 0.7117 0.32219 0.0
O117 O 0.87558 0.70583 0.34684 0.0
C118 C 0.94289 0.82272 0.33451 0.0
C119 C 0.76762 0.71054 0.33391 0.0
Zn120 Zn 0.86652 0.70573 0.85442 0.0
Zn121 Zn 0.91938 0.76837 0.81758 0.0
C122 C 0.76598 0.67641 0.85525 0.0
O123 O 0.78599 0.70992 0.86703 0.0
C124 C 0.01897 0.84291 0.82386 0.0
O125 O 0.02572 0.81596 0.8127 0.0
O126 O 0.86734 0.69578 0.87905 0.0
O127 O 0.90775 0.67711 0.84443 0.0
O128 O 0.93207 0.71175 0.81982 0.0
C129 C 0.84525 0.65171 0.88497 0.0
O130 O 0.8228 0.61357 0.87485 0.0
O131 O 0.79413 0.66482 0.84721 0.0
C132 C 0.94165 0.82865 0.78771 0.0
O133 O 0.94377 0.86338 0.79759 0.0
O134 O 0.92885 0.78557 0.79347 0.0
O135 O 0.85341 0.75773 0.82539 0.0
O136 O 0.88381 0.77829 0.85035 0.0
O137 O 0.97485 0.82858 0.82889 0.0
C138 C 0.92891 0.68067 0.83064 0.0
C139 C 0.86045 0.78362 0.83828 0.0
Zn140 Zn 0.24126 0.13238 0.8544 0.0
Zn141 Zn 0.21684 0.13351 0.81876 0.0
C142 C 0.2935 0.08072 0.85555 0.0
O143 O 0.25965 0.06032 0.86722 0.0
C144 C 0.14455 0.16613 0.82382 0.0
O145 O 0.16807 0.19492 0.81117 0.0
O146 O 0.24701 0.13832 0.87924 0.0
O147 O 0.25658 0.20134 0.84674 0.0
O148 O 0.28478 0.19296 0.82293 0.0
C149 C 0.29011 0.16833 0.88507 0.0
O150 O 0.32721 0.19388 0.87479 0.0
O151 O 0.29492 0.11621 0.84713 0.0
C152 C 0.16118 0.10632 0.78799 0.0
O153 O 0.12585 0.07085 0.79696 0.0
O154 O 0.2035 0.13527 0.7945 0.0
O155 O 0.20657 0.06605 0.8245 0.0
O156 O 0.17515 0.0708 0.84832 0.0
O157 O 0.16117 0.13946 0.83005 0.0
C158 C 0.28515 0.22086 0.83442 0.0
C159 C 0.17577 0.04477 0.83622 0.0
Zn160 Zn 0.87068 0.12557 0.85837 0.0
Zn161 Zn 0.85154 0.04738 0.82184 0.0
C162 C 0.94921 0.22659 0.85195 0.0
O163 O 0.97776 0.2089 0.85704 0.0
C164 C 0.82324 0.94767 0.82942 0.0
O165 O 0.78715 0.94174 0.81942 0.0
O166 O 0.86386 0.12637 0.88317 0.0
O167 O 0.79923 0.09033 0.84978 0.0
O168 O 0.7877 0.04613 0.82704 0.0
C169 C 0.83882 0.14632 0.88831 0.0
O170 O 0.82027 0.16427 0.87744 0.0
O171 O 0.90203 0.19804 0.85146 0.0
C172 C 0.87591 0.01738 0.79069 0.0
O173 O 0.91232 0.01781 0.79923 0.0
O174 O 0.84702 0.03015 0.79766 0.0
O175 O 0.91455 0.11277 0.82529 0.0
O176 O 0.92069 0.10283 0.85188 0.0
O177 O 0.85594 0.99179 0.83357 0.0
C178 C 0.7712 0.06296 0.83819 0.0
C179 C 0.9406 0.11441 0.83762 0.0
Zn180 Zn 0.73133 0.88863 0.65264 0.0
Zn181 Zn 0.78848 0.93811 0.6911 0.0
C182 C 0.7007 0.78852 0.65056 0.0
O183 O 0.73581 0.80938 0.6393 0.0
C184 C 0.8682 0.0364 0.68601 0.0
O185 O 0.84175 0.04461 0.69697 0.0
O186 O 0.72438 0.89168 0.62789 0.0
O187 O 0.70186 0.92838 0.6627 0.0
O188 O 0.73434 0.95373 0.68757 0.0
C189 C 0.68024 0.87106 0.62202 0.0
O190 O 0.64213 0.85057 0.63223 0.0
O191 O 0.6887 0.81608 0.65874 0.0
C192 C 0.84104 0.95336 0.72251 0.0
O193 O 0.87752 0.95593 0.71343 0.0
O194 O 0.80007 0.94369 0.71566 0.0
O195 O 0.77532 0.87175 0.68286 0.0
O196 O 0.80196 0.90342 0.65829 0.0
O197 O 0.85192 0.99214 0.68082 0.0
C198 C 0.70437 0.95013 0.67627 0.0
C199 C 0.80306 0.87807 0.67052 0.0
Zn200 Zn 0.11281 0.8469 0.65435 0.0
Zn201 Zn 0.05321 0.84934 0.69104 0.0
C202 C 0.21235 0.91808 0.65228 0.0
O203 O 0.19076 0.9319 0.64112 0.0
C204 C 0.95571 0.82672 0.68258 0.0
O205 O 0.94638 0.78994 0.69276 0.0
O206 O 0.1119 0.83814 0.62967 0.0
O207 O 0.07522 0.77704 0.66401 0.0
O208 O 0.04238 0.78145 0.68774 0.0
C209 C 0.13436 0.81599 0.62414 0.0
O210 O 0.15419 0.79842 0.63467 0.0
O211 O 0.18543 0.87873 0.66062 0.0
C212 C 0.02234 0.87742 0.72164 0.0
O213 O 0.01814 0.91052 0.71263 0.0
O214 O 0.03897 0.85109 0.71514 0.0
O215 O 0.12109 0.90505 0.68532 0.0
O216 O 0.09545 0.90103 0.65988 0.0
O217 O 0.00086 0.85758 0.67893 0.0
C218 C 0.05079 0.75663 0.67707 0.0
C219 C 0.11911 0.927 0.67239 0.0
Zn220 Zn 0.15265 0.25905 0.65342 0.0
Zn221 Zn 0.15002 0.20614 0.69155 0.0
C222 C 0.08484 0.29259 0.65095 0.0
O223 O 0.06847 0.25638 0.64003 0.0
C224 C 0.17396 0.13164 0.68358 0.0
O225 O 0.2104 0.15899 0.69387 0.0
O226 O 0.15976 0.26188 0.62856 0.0
O227 O 0.22326 0.29061 0.66272 0.0
O228 O 0.21797 0.26261 0.68818 0.0
C229 C 0.18466 0.30503 0.62208 0.0
O230 O 0.20534 0.34436 0.63178 0.0
O231 O 0.12439 0.30352 0.65896 0.0
C232 C 0.11966 0.14737 0.72199 0.0
O233 O 0.08711 0.11103 0.71258 0.0
O234 O 0.14707 0.19053 0.7158 0.0
O235 O 0.09423 0.21746 0.68499 0.0
O236 O 0.09641 0.18983 0.6603 0.0
O237 O 0.14299 0.14576 0.6798 0.0
C238 C 0.24336 0.29105 0.67646 0.0
C239 C 0.07136 0.18956 0.67283 0.0
Zn240 Zn 0.74763 0.55378 0.52208 0.0
Zn241 Zn 0.79474 0.6128 0.48373 0.0
C242 C 0.64767 0.4809 0.51503 0.0
O243 O 0.64019 0.50806 0.52591 0.0
C244 C 0.89215 0.6758 0.50083 0.0
O245 O 0.86761 0.67692 0.51391 0.0
O246 O 0.73951 0.53731 0.54635 0.0
O247 O 0.81294 0.56543 0.51335 0.0
O248 O 0.77998 0.5417 0.48877 0.0
C249 C 0.72311 0.49385 0.55241 0.0
O250 O 0.71581 0.45678 0.54268 0.0
O251 O 0.69214 0.49427 0.51071 0.0
C252 C 0.80926 0.66582 0.45399 0.0
O253 O 0.83153 0.7026 0.46462 0.0
O254 O 0.78834 0.621 0.45927 0.0
O255 O 0.75804 0.64374 0.49523 0.0
O256 O 0.73555 0.61049 0.52012 0.0
O257 O 0.86834 0.65365 0.48787 0.0
C258 C 0.80499 0.53831 0.50071 0.0
C259 C 0.73871 0.64148 0.50928 0.0
Zn260 Zn 0.45163 0.19241 0.5189 0.0
Zn261 Zn 0.42511 0.19417 0.48314 0.0
C262 C 0.52198 0.15784 0.51329 0.0
O263 O 0.49669 0.12755 0.52544 0.0
C264 C 0.37913 0.25132 0.48268 0.0
O265 O 0.41415 0.27083 0.47134 0.0
O266 O 0.4659 0.19173 0.54312 0.0
O267 O 0.46063 0.25909 0.51305 0.0
O268 O 0.49221 0.25445 0.48925 0.0
C269 C 0.50841 0.22088 0.54948 0.0
O270 O 0.54368 0.2557 0.54031 0.0
O271 O 0.50711 0.18643 0.50747 0.0
C272 C 0.37484 0.16028 0.45262 0.0
O273 O 0.33779 0.13602 0.46304 0.0
O274 O 0.41857 0.18869 0.4583 0.0
O275 O 0.40795 0.12443 0.49066 0.0
O276 O 0.38367 0.13301 0.51518 0.0
O277 O 0.37372 0.2133 0.4906 0.0
C278 C 0.49146 0.28042 0.50136 0.0
C279 C 0.38128 0.10511 0.50339 0.0
Zn280 Zn 0.80651 0.27336 0.52177 0.0
Zn281 Zn 0.80873 0.21319 0.48486 0.0
C282 C 0.83574 0.37201 0.51305 0.0
O283 O 0.87199 0.37831 0.52304 0.0
C284 C 0.73959 0.11179 0.48349 0.0
O285 O 0.72426 0.13047 0.47179 0.0
O286 O 0.80463 0.28781 0.54592 0.0
O287 O 0.74866 0.20644 0.51597 0.0
O288 O 0.75271 0.22902 0.4901 0.0
C289 C 0.77966 0.30622 0.55228 0.0
O290 O 0.74837 0.31279 0.54307 0.0
O291 O 0.80185 0.32777 0.50958 0.0
C292 C 0.84199 0.19284 0.45453 0.0
O293 O 0.86011 0.17358 0.46507 0.0
O294 O 0.81814 0.21362 0.46005 0.0
O295 O 0.87914 0.25163 0.49461 0.0
O296 O 0.87396 0.28188 0.51877 0.0
O297 O 0.77849 0.14113 0.49165 0.0
C298 C 0.72674 0.20773 0.50291 0.0
C299 C 0.89919 0.27449 0.50796 0.0
Zn300 Zn 0.87955 0.39608 0.6501 0.0
Zn301 Zn 0.93951 0.44631 0.68809 0.0
C302 C 0.80111 0.29795 0.65519 0.0
O303 O 0.82775 0.29069 0.64404 0.0
C304 C 0.97008 0.54632 0.69015 0.0
O305 O 0.93601 0.5256 0.70175 0.0
O306 O 0.86511 0.38935 0.62571 0.0
O307 O 0.89322 0.46246 0.65844 0.0
O308 O 0.86824 0.43128 0.68317 0.0
C309 C 0.82343 0.37945 0.61937 0.0
O310 O 0.78834 0.37842 0.62882 0.0
O311 O 0.81712 0.34182 0.66072 0.0
C312 C 0.99452 0.46675 0.71795 0.0
O313 O 0.03111 0.48793 0.70719 0.0
O314 O 0.94958 0.44443 0.71274 0.0
O315 O 0.96831 0.40656 0.67754 0.0
O316 O 0.93423 0.38092 0.65288 0.0
O317 O 0.98131 0.51867 0.68168 0.0
C318 C 0.86625 0.4563 0.67099 0.0
C319 C 0.96502 0.38477 0.66392 0.0
Zn320 Zn 0.61702 0.48545 0.64964 0.0
Zn321 Zn 0.55502 0.48749 0.68639 0.0
C322 C 0.71341 0.50713 0.65888 0.0
O323 O 0.72331 0.54463 0.64895 0.0
C324 C 0.45525 0.41673 0.6879 0.0
O325 O 0.47626 0.40231 0.69908 0.0
O326 O 0.63261 0.4839 0.62555 0.0
O327 O 0.5483 0.43069 0.65496 0.0
O328 O 0.57143 0.43267 0.68064 0.0
C329 C 0.64622 0.45494 0.61914 0.0
O330 O 0.6465 0.41977 0.62819 0.0
O331 O 0.66804 0.47587 0.6621 0.0
C332 C 0.53283 0.51716 0.71708 0.0
O333 O 0.51238 0.53469 0.7068 0.0
O334 O 0.5556 0.49566 0.71125 0.0
O335 O 0.59367 0.55742 0.67665 0.0
O336 O 0.62825 0.55341 0.6532 0.0
O337 O 0.48262 0.45654 0.67984 0.0
C338 C 0.54885 0.40772 0.66783 0.0
C339 C 0.6192 0.57807 0.66377 0.0
Zn340 Zn 0.51807 0.12861 0.64724 0.0
Zn341 Zn 0.51556 0.07504 0.68533 0.0
C342 C 0.49477 0.20399 0.65496 0.0
O343 O 0.45859 0.17724 0.64451 0.0
C344 C 0.58407 0.04253 0.68794 0.0
O345 O 0.59985 0.07872 0.69886 0.0
O346 O 0.52101 0.14315 0.62292 0.0
O347 O 0.57429 0.11802 0.65396 0.0
O348 O 0.57092 0.14463 0.67871 0.0
C349 C 0.54886 0.18564 0.61636 0.0
O350 O 0.58185 0.22256 0.62548 0.0
O351 O 0.52527 0.18936 0.6588 0.0
C352 C 0.48239 0.02844 0.71642 0.0
O353 O 0.46154 0.98937 0.70662 0.0
O354 O 0.5079 0.0717 0.71009 0.0
O355 O 0.44528 0.04351 0.67604 0.0
O356 O 0.44989 0.0722 0.65074 0.0
O357 O 0.54463 0.03125 0.6798 0.0
C358 C 0.59655 0.14534 0.6663 0.0
C359 C 0.42483 0.04342 0.66244 0.0
Zn360 Zn 0.54232 0.05094 0.18987 0.0
Zn361 Zn 0.58838 0.11041 0.15138 0.0
C362 C 0.44457 0.98805 0.17266 0.0
O363 O 0.46902 0.98678 0.15957 0.0
C364 C 0.6874 0.18734 0.15631 0.0
O365 O 0.69388 0.16059 0.14501 0.0
O366 O 0.54867 0.04369 0.21438 0.0
O367 O 0.58089 0.02147 0.17853 0.0
O368 O 0.60387 0.05594 0.1538 0.0
C369 C 0.52793 -0.00067 0.22004 0.0
O370 O 0.50575 0.9617 0.20971 0.0
O371 O 0.46849 0.00982 0.18565 0.0
C372 C 0.60584 0.16818 0.12113 0.0
O373 O 0.60892 0.20331 0.13102 0.0
O374 O 0.59397 0.12548 0.12704 0.0
O375 O 0.52301 0.09707 0.16058 0.0
O376 O 0.55703 0.12197 0.18493 0.0
O377 O 0.64369 0.17212 0.16189 0.0
C378 C 0.60152 0.02519 0.16461 0.0
C379 C 0.53145 0.12478 0.17307 0.0
Zn380 Zn 0.91024 0.47189 0.18882 0.0
Zn381 Zn 0.88244 0.4788 0.15132 0.0
C382 C 0.98383 0.44776 0.17188 0.0
O383 O 0.98218 0.47019 0.15835 0.0
C384 C 0.81441 0.51475 0.15829 0.0
O385 O 0.83972 0.54603 0.14635 0.0
O386 O 0.9109 0.47592 0.21369 0.0
O387 O 0.93448 0.54354 0.18133 0.0
O388 O 0.94983 0.53799 0.15516 0.0
C389 C 0.95407 0.504 0.21984 0.0
O390 O 0.99223 0.52794 0.2098 0.0
O391 O 0.95929 0.44752 0.1845 0.0
C392 C 0.82523 0.45342 0.12065 0.0
O393 O 0.7894 0.41864 0.12968 0.0
O394 O 0.86791 0.48131 0.12712 0.0
O395 O 0.87319 0.41169 0.15678 0.0
O396 O 0.84323 0.41459 0.18115 0.0
O397 O 0.82844 0.4848 0.1634 0.0
C398 C 0.95719 0.56389 0.16802 0.0
C399 C 0.84315 0.38964 0.16861 0.0
Zn400 Zn 0.52692 0.45213 0.18763 0.0
Zn401 Zn 0.52898 0.38803 0.15039 0.0
C402 C 0.56554 0.54943 0.17058 0.0
O403 O 0.54824 0.52427 0.1568 0.0
C404 C 0.50056 0.29055 0.15999 0.0
O405 O 0.4634 0.28358 0.15033 0.0
O406 O 0.51508 0.44566 0.21226 0.0
O407 O 0.45768 0.41638 0.17691 0.0
O408 O 0.46242 0.38041 0.15394 0.0
C409 C 0.48978 0.46496 0.21771 0.0
O410 O 0.47189 0.48432 0.20712 0.0
O411 O 0.55838 0.52604 0.18409 0.0
C412 C 0.55165 0.35193 0.11969 0.0
O413 O 0.58411 0.34607 0.1285 0.0
O414 O 0.52774 0.37112 0.1263 0.0
O415 O 0.58683 0.45555 0.15521 0.0
O416 O 0.58341 0.43788 0.1816 0.0
O417 O 0.53495 0.335 0.16292 0.0
C418 C 0.43756 0.39082 0.16399 0.0
C419 C 0.60899 0.45908 0.16873 0.0
Zn420 Zn 0.38023 0.2024 0.98564 0.0
Zn421 Zn 0.44007 0.25343 0.02344 0.0
C422 C 0.35106 0.10247 0.98377 0.0
O423 O 0.3858 0.1238 0.97241 0.0
C424 C 0.51656 0.35208 0.01752 0.0
O425 O 0.48931 0.35945 0.0284 0.0
O426 O 0.37147 0.2048 0.96102 0.0
O427 O 0.35176 0.24319 0.99577 0.0
O428 O 0.38512 0.26838 0.02055 0.0
C429 C 0.32704 0.18278 0.95538 0.0
O430 O 0.28949 0.16073 0.96576 0.0
O431 O 0.33872 0.12964 0.99205 0.0
C432 C 0.49863 0.27239 0.05352 0.0
O433 O 0.53269 0.27317 0.0436 0.0
O434 O 0.45601 0.26146 0.04774 0.0
O435 O 0.42737 0.18731 0.01509 0.0
O436 O 0.45192 0.21907 0.99046 0.0
O437 O 0.50172 0.30789 0.01252 0.0
C438 C 0.35489 0.26509 0.00937 0.0
C439 C 0.45554 0.19536 1.00273 0.0
Zn440 Zn 0.78715 0.19646 0.98784 0.0
Zn441 Zn 0.72047 0.19382 0.0243 0.0
C442 C 0.88883 0.26429 0.98585 0.0
O443 O 0.87042 0.27833 0.9737 0.0
C444 C 0.62229 0.16518 0.01545 0.0
O445 O 0.61602 0.12895 0.02544 0.0
O446 O 0.78769 0.18736 0.96309 0.0
O447 O 0.74923 0.126 0.99722 0.0
O448 O 0.71338 0.12726 0.02066 0.0
C449 C 0.80872 0.16328 0.95802 0.0
O450 O 0.82669 0.14489 0.96893 0.0
O451 O 0.85921 0.2273 0.99471 0.0
C452 C 0.68527 0.21774 0.05487 0.0
O453 O 0.68116 0.25113 0.04599 0.0
O454 O 0.7033 0.19262 0.04836 0.0
O455 O 0.78771 0.25292 0.01956 0.0
O456 O 0.76995 0.25112 0.99325 0.0
O457 O 0.66657 0.19895 0.01192 0.0
C458 C 0.72386 0.10401 0.00997 0.0
C459 C 0.79002 0.27594 0.00634 0.0
Zn460 Zn 0.80438 0.57444 0.98683 0.0
Zn461 Zn 0.80918 0.54936 0.02343 0.0
C462 C 0.7439 0.61715 0.98498 0.0
O463 O 0.72414 0.58048 0.97422 0.0
C464 C 0.84648 0.48162 0.01717 0.0
O465 O 0.87558 0.50552 0.02973 0.0
O466 O 0.80846 0.57705 0.96188 0.0
O467 O 0.87618 0.60038 0.99433 0.0
O468 O 0.86428 0.61891 0.01939 0.0
C469 C 0.83587 0.62012 0.95559 0.0
O470 O 0.86002 0.65858 0.96549 0.0
O471 O 0.78224 0.62406 0.99303 0.0
C472 C 0.78479 0.49316 0.05423 0.0
O473 O 0.74974 0.4573 0.04529 0.0
O474 O 0.81268 0.53569 0.04768 0.0
O475 O 0.74094 0.53672 0.01807 0.0
O476 O 0.74628 0.50675 0.994 0.0
O477 O 0.81817 0.49686 0.01138 0.0
C478 C 0.89276 0.62751 0.00712 0.0
C479 C 0.72006 0.5065 0.0062 0.0
Zn480 Zn 0.41072 0.88988 0.85524 0.0
Zn481 Zn 0.46393 0.95116 0.81772 0.0
C482 C 0.31109 0.81543 0.84873 0.0
O483 O 0.30404 0.84206 0.85993 0.0
C484 C 0.56279 0.01038 0.8348 0.0
O485 O 0.53867 0.01139 0.848 0.0
O486 O 0.40078 0.8724 0.87935 0.0
O487 O 0.47663 0.90045 0.84751 0.0
O488 O 0.44582 0.87898 0.82266 0.0
C489 C 0.3888 0.8294 0.885 0.0
O490 O 0.3877 0.79533 0.87503 0.0
O491 O 0.35531 0.83001 0.84377 0.0
C492 C 0.47583 0.00051 0.78711 0.0
O493 O 0.49832 0.03935 0.79695 0.0
O494 O 0.45653 0.95686 0.79326 0.0
O495 O 0.4275 0.98395 0.8287 0.0
O496 O 0.39952 0.94733 0.85289 0.0
O497 O 0.53856 0.99009 0.82168 0.0
C498 C 0.46924 0.87399 0.83476 0.0
C499 C 0.40546 0.98018 0.84235 0.0
Zn500 Zn 0.11393 0.52421 0.85408 0.0
Zn501 Zn 0.08967 0.52556 0.81813 0.0
C502 C 0.18226 0.48759 0.8482 0.0
O503 O 0.15653 0.45705 0.86024 0.0
C504 C 0.04 0.57911 0.81727 0.0
O505 O 0.07439 0.59917 0.80575 0.0
O506 O 0.12768 0.52209 0.87839 0.0
O507 O 0.12496 0.59183 0.84817 0.0
O508 O 0.15595 0.58713 0.8242 0.0
C509 C 0.17026 0.55081 0.88481 0.0
O510 O 0.20549 0.58604 0.87574 0.0
O511 O 0.16863 0.51744 0.84266 0.0
C512 C 0.03862 0.48827 0.7879 0.0
O513 O 0.00249 0.46366 0.79859 0.0
O514 O 0.08233 0.51851 0.79326 0.0
O515 O 0.07446 0.45691 0.826 0.0
O516 O 0.04595 0.46513 0.84978 0.0
O517 O 0.03689 0.54256 0.82551 0.0
C518 C 0.15551 0.61309 0.83637 0.0
C519 C 0.04608 0.43729 0.83836 0.0
Zn520 Zn 0.46745 0.60645 0.8545 0.0
Zn521 Zn 0.46437 0.53451 0.81794 0.0
C522 C 0.49622 0.7045 0.84584 0.0
O523 O 0.53286 0.70996 0.85548 0.0
C524 C 0.38765 0.4321 0.82144 0.0
O525 O 0.36064 0.44979 0.81495 0.0
O526 O 0.47012 0.6236 0.87858 0.0
O527 O 0.40897 0.53893 0.85026 0.0
O528 O 0.40995 0.55255 0.82362 0.0
C529 C 0.44531 0.64169 0.88528 0.0
O530 O 0.41174 0.64603 0.87658 0.0
O531 O 0.46177 0.66049 0.84234 0.0
C532 C 0.50193 0.52145 0.78744 0.0
O533 O 0.5216 0.50311 0.79773 0.0
O534 O 0.47472 0.5382 0.7932 0.0
O535 O 0.53478 0.57215 0.82796 0.0
O536 O 0.53303 0.61246 0.85028 0.0
O537 O 0.4342 0.46118 0.8238 0.0
C538 C 0.3858 0.53633 0.83708 0.0
C539 C 0.55648 0.59988 0.84036 0.0
Zn540 Zn 0.55576 0.74015 0.98152 0.0
Zn541 Zn 0.61689 0.79278 0.01896 0.0
C542 C 0.47956 0.64144 0.98768 0.0
O543 O 0.50702 0.634 0.97691 0.0
C544 C 0.64535 0.89256 0.02106 0.0
O545 O 0.61069 0.8707 0.03241 0.0
O546 O 0.53993 0.73193 0.95727 0.0
O547 O 0.56845 0.80648 0.98963 0.0
O548 O 0.54476 0.77537 0.01435 0.0
C549 C 0.49745 0.72123 0.95143 0.0
O550 O 0.46335 0.7206 0.96129 0.0
O551 O 0.49407 0.68572 0.9925 0.0
C552 C 0.66996 0.81364 0.04939 0.0
O553 O 0.70785 0.83605 0.03916 0.0
O554 O 0.62575 0.79088 0.04358 0.0
O555 O 0.6457 0.75191 0.0089 0.0
O556 O 0.61071 0.72518 0.98442 0.0
O557 O 0.65781 0.8658 0.01258 0.0
C558 C 0.5405 0.79854 1.00203 0.0
C559 C 0.64169 0.72914 0.99542 0.0
Zn560 Zn 0.27468 0.80127 0.98186 0.0
Zn561 Zn 0.20481 0.79897 0.01786 0.0
C562 C 0.37284 0.82817 0.99 0.0
O563 O 0.37889 0.86447 0.98008 0.0
C564 C 0.10065 0.77502 0.01569 0.0
O565 O 0.11383 0.8101 0.02687 0.0
O566 O 0.29052 0.80252 0.95772 0.0
O567 O 0.20688 0.74338 0.98661 0.0
O568 O 0.22425 0.74582 0.01295 0.0
C569 C 0.30781 0.77705 0.95099 0.0
O570 O 0.3119 0.74337 0.9597 0.0
O571 O 0.32862 0.79483 0.99381 0.0
C572 C 0.20343 0.84419 0.04911 0.0
O573 O 0.21015 0.88128 0.03949 0.0
O574 O 0.20152 0.80556 0.04272 0.0
O575 O 0.2438 0.86956 0.0085 0.0
O576 O 0.28289 0.86803 0.98584 0.0
O577 O 0.13357 0.76636 0.00964 0.0
C578 C 0.20441 0.72068 0.99991 0.0
C579 C 0.27128 0.89148 0.9961 0.0
Zn580 Zn 0.1901 0.45091 0.9809 0.0
Zn581 Zn 0.19099 0.41763 0.01787 0.0
C582 C 0.15282 0.51707 0.98848 0.0
O583 O 0.12141 0.49158 0.9766 0.0
C584 C 0.25098 0.37525 0.01951 0.0
O585 O 0.27022 0.41174 0.03034 0.0
O586 O 0.18928 0.4675 0.95678 0.0
O587 O 0.25557 0.45728 0.98693 0.0
O588 O 0.25003 0.48558 0.01129 0.0
C589 C 0.21468 0.51114 0.95069 0.0
O590 O 0.24707 0.54777 0.96005 0.0
O591 O 0.18369 0.50394 0.99334 0.0
C592 C 0.15868 0.36895 0.0487 0.0
O593 O 0.13553 0.3312 0.03847 0.0
O594 O 0.18554 0.41268 0.0428 0.0
O595 O 0.12006 0.39417 0.01003 0.0
O596 O 0.13028 0.38416 0.98374 0.0
O597 O 0.21275 0.36815 0.01135 0.0
C598 C 0.27644 0.48631 0.99908 0.0
C599 C 0.10195 0.37467 0.99611 0.0
Zn600 Zn 0.211 0.38402 0.52037 0.0
Zn601 Zn 0.26951 0.45058 0.48382 0.0
C602 C 0.10986 0.35433 0.52193 0.0
O603 O 0.13001 0.38802 0.53364 0.0
C604 C 0.36792 0.52594 0.49091 0.0
O605 O 0.37556 0.49846 0.48021 0.0
O606 O 0.21348 0.37554 0.54502 0.0
O607 O 0.25121 0.35441 0.5101 0.0
O608 O 0.2823 0.39412 0.48656 0.0
C609 C 0.19313 0.33188 0.55123 0.0
O610 O 0.17143 0.293 0.54137 0.0
O611 O 0.13801 0.3431 0.51371 0.0
C612 C 0.29273 0.51018 0.45374 0.0
O613 O 0.29513 0.54521 0.46353 0.0
O614 O 0.28013 0.4673 0.45964 0.0
O615 O 0.20194 0.43789 0.4906 0.0
O616 O 0.22803 0.45638 0.51609 0.0
O617 O 0.32337 0.51166 0.49545 0.0
C618 C 0.27565 0.3604 0.49685 0.0
C619 C 0.20529 0.46137 0.50378 0.0
Zn620 Zn 0.59614 0.81354 0.52089 0.0
Zn621 Zn 0.5445 0.80211 0.48251 0.0
C622 C 0.63896 0.75329 0.52353 0.0
O623 O 0.60566 0.73671 0.53545 0.0
C624 C 0.46726 0.82419 0.48731 0.0
O625 O 0.49244 0.85554 0.47538 0.0
O626 O 0.60233 0.82375 0.54565 0.0
O627 O 0.62191 0.88255 0.51102 0.0
O628 O 0.60008 0.87161 0.4847 0.0
C629 C 0.646 0.85138 0.5515 0.0
O630 O 0.68404 0.87253 0.54128 0.0
O631 O 0.64383 0.78953 0.51475 0.0
C632 C 0.4866 0.76499 0.45186 0.0
O633 O 0.45033 0.73234 0.46128 0.0
O634 O 0.52918 0.79412 0.45818 0.0
O635 O 0.55565 0.74794 0.4912 0.0
O636 O 0.52723 0.7543 0.5153 0.0
O637 O 0.48364 0.79711 0.49331 0.0
C638 C 0.62431 0.89987 0.49662 0.0
C639 C 0.52667 0.72722 0.50335 0.0
Zn640 Zn 0.20033 0.79376 0.52383 0.0
Zn641 Zn 0.17972 0.71513 0.48733 0.0
C642 C 0.28013 0.89426 0.51704 0.0
O643 O 0.30836 0.87538 0.5213 0.0
C644 C 0.15532 0.61657 0.49521 0.0
O645 O 0.11848 0.60863 0.48524 0.0
O646 O 0.19351 0.79218 0.54856 0.0
O647 O 0.12904 0.75926 0.51533 0.0
O648 O 0.11627 0.71308 0.49299 0.0
C649 C 0.16708 0.81003 0.55414 0.0
O650 O 0.14765 0.82818 0.54368 0.0
O651 O 0.23277 0.86678 0.51731 0.0
C652 C 0.20353 0.68558 0.45602 0.0
O653 O 0.24132 0.68783 0.46423 0.0
O654 O 0.17419 0.69729 0.46322 0.0
O655 O 0.2408 0.78145 0.49066 0.0
O656 O 0.24853 0.76969 0.51695 0.0
O657 O 0.1867 0.6613 0.49919 0.0
C658 C 0.10051 0.73097 0.50401 0.0
C659 C 0.26709 0.78064 0.50252 0.0
Zn660 Zn 0.043 0.53821 0.3206 0.0
Zn661 Zn 0.10662 0.59486 0.35783 0.0
C662 C 0.0163 0.43867 0.31916 0.0
O663 O 0.05055 0.46027 0.30767 0.0
C664 C 0.18383 0.69351 0.35107 0.0
O665 O 0.15657 0.70244 0.36149 0.0
O666 O 0.03316 0.53937 0.29599 0.0
O667 O 0.0134 0.57851 0.3306 0.0
O668 O 0.05142 0.60921 0.35441 0.0
C669 C 0.98879 0.5171 0.2903 0.0
O670 O 0.95111 0.49486 0.30062 0.0
O671 O 0.00323 0.46542 0.32737 0.0
C672 C 0.16285 0.61531 0.38856 0.0
O673 O 0.19894 0.61878 0.37905 0.0
O674 O 0.12051 0.60302 0.38224 0.0
O675 O 0.09401 0.52819 0.3501 0.0
O676 O 0.1157 0.55681 0.32501 0.0
O677 O 0.16892 0.64865 0.34684 0.0
C678 C 0.01873 0.60306 0.34377 0.0
C679 C 0.12115 0.53515 0.33755 0.0
Zn680 Zn 0.4551 0.52696 0.31756 0.0
Zn681 Zn 0.38621 0.52597 0.35449 0.0
C682 C 0.55669 0.6028 0.32099 0.0
O683 O 0.53913 0.6282 0.31326 0.0
C684 C 0.2879 0.50273 0.34824 0.0
O685 O 0.2821 0.46687 0.35832 0.0
O686 O 0.45425 0.51693 0.29292 0.0
O687 O 0.41569 0.45692 0.32738 0.0
O688 O 0.37616 0.45888 0.34991 0.0
C689 C 0.47258 0.49055 0.28769 0.0
O690 O 0.49032 0.47147 0.29844 0.0
O691 O 0.52765 0.55682 0.32423 0.0
C692 C 0.36223 0.55433 0.38627 0.0
O693 O 0.36108 0.59032 0.37798 0.0
O694 O 0.37417 0.52542 0.3789 0.0
O695 O 0.45415 0.58211 0.34911 0.0
O696 O 0.43696 0.58122 0.3228 0.0
O697 O 0.33188 0.53438 0.34358 0.0
C698 C 0.38757 0.43517 0.33969 0.0
C699 C 0.45466 0.60529 0.33617 0.0
Zn700 Zn 0.47516 0.9138 0.32099 0.0
Zn701 Zn 0.47163 0.87473 0.3575 0.0
C702 C 0.41592 0.95703 0.31842 0.0
O703 O 0.39796 0.92147 0.30725 0.0
C704 C 0.50749 0.80867 0.34874 0.0
O705 O 0.53919 0.8334 0.36064 0.0
O706 O 0.48344 0.91904 0.29617 0.0
O707 O 0.54567 0.93783 0.32967 0.0
O708 O 0.53365 0.9401 0.35633 0.0
C709 C 0.51237 0.9625 0.29039 0.0
O710 O 0.5355 4e-05 0.3007 0.0
O711 O 0.45314 0.96341 0.32701 0.0
C712 C 0.44349 0.80867 0.38649 0.0
O713 O 0.41224 0.77313 0.37657 0.0
O714 O 0.46881 0.85324 0.38113 0.0
O715 O 0.4088 0.8738 0.35139 0.0
O716 O 0.41436 0.84595 0.327 0.0
O717 O 0.47675 0.82234 0.34422 0.0
C718 C 0.56273 0.95342 0.34404 0.0
C719 C 0.38774 0.84571 0.33908 0.0
C720 C 0.12133 0.12334 0.15975 0.0
C721 C 0.14168 0.16611 0.1698 0.0
H722 H 0.11733 0.05319 0.15463 0.0
C723 C 0.17739 0.17259 0.18174 0.0
H724 H 0.09367 0.11741 0.15046 0.0
C725 C 0.19153 0.13651 0.18392 0.0
C726 C 0.16966 0.09261 0.17441 0.0
H727 H 0.19409 0.20542 0.18955 0.0
H728 H 0.21838 0.14235 0.1935 0.0
C729 C 0.13485 0.08663 0.16214 0.0
C730 C 0.93099 0.06497 0.16541 0.0
C731 C 0.92354 0.09246 0.1778 0.0
H732 H 0.90311 0.99388 0.15353 0.0
C733 C 0.87962 0.06878 0.18729 0.0
H734 H 0.96447 0.08215 0.15788 0.0
C735 C 0.84498 0.01828 0.18495 0.0
C736 C 0.85309 0.99035 0.17292 0.0
H737 H 0.87266 0.08877 0.19695 0.0
H738 H 0.81209 0.00092 0.19274 0.0
C739 C 0.89589 0.01444 0.16291 0.0
C740 C 0.98943 0.83362 0.18531 0.0
C741 C 0.01442 0.86568 0.17203 0.0
H742 H 0.92144 0.79371 0.19893 0.0
C743 C 0.98758 0.87984 0.16145 0.0
H744 H 0.009 0.82152 0.19354 0.0
C745 C 0.93726 0.86425 0.16464 0.0
C746 C 0.91276 0.83348 0.17828 0.0
H747 H 0.00594 0.90443 0.1511 0.0
H748 H 0.91793 0.87727 0.15667 0.0
C749 C 0.93909 0.81736 0.18832 0.0
C750 C 0.16945 0.18024 0.32294 0.0
C751 C 0.16424 0.14192 0.33351 0.0
H752 H 0.13469 0.21767 0.31169 0.0
C753 C 0.11853 0.11265 0.34169 0.0
H754 H 0.20444 0.20367 0.31659 0.0
C755 C 0.07804 0.12031 0.33873 0.0
C756 C 0.08299 0.15788 0.32776 0.0
H757 H 0.11351 0.08275 0.34987 0.0
H758 H 0.04268 0.09624 0.34477 0.0
C759 C 0.12947 0.18836 0.32019 0.0
C760 C 0.86057 0.92837 0.34098 0.0
C761 C 0.82693 0.90075 0.32826 0.0
H762 H 0.90125 -0.00071 0.35325 0.0
C763 C 0.80524 0.92346 0.31898 0.0
H764 H 0.8779 0.91193 0.34838 0.0
C765 C 0.81912 0.97341 0.32162 0.0
C766 C 0.8545 0.00175 0.33377 0.0
H767 H 0.77914 0.9034 0.30913 0.0
H768 H 0.803 0.99027 0.31384 0.0
C769 C 0.87394 0.97836 0.34379 0.0
C770 C 0.01781 0.90604 0.34081 0.0
C771 C 0.99645 0.85986 0.33261 0.0
H772 H 0.08197 0.97909 0.3434 0.0
C773 C 0.02587 0.85055 0.32154 0.0
H774 H 0.99595 0.91425 0.34939 0.0
C775 C 0.07504 0.8873 0.31822 0.0
C776 C 0.09574 0.93442 0.32576 0.0
H777 H 0.01054 0.8151 0.31515 0.0
H778 H 0.09619 0.87926 0.30929 0.0
C779 C 0.06698 0.94316 0.33734 0.0
C780 C 0.877 0.8693 0.84634 0.0
C781 C 0.84819 0.82416 0.83782 0.0
H782 H 0.89202 0.94436 0.8503 0.0
C783 C 0.80879 0.8188 0.82775 0.0
H784 H 0.90772 0.87443 0.85414 0.0
C785 C 0.79938 0.85823 0.82573 0.0
C786 C 0.82965 0.90437 0.83353 0.0
H787 H 0.78567 0.78422 0.82117 0.0
H788 H 0.76941 0.85297 0.81754 0.0
C789 C 0.86806 0.90928 0.84411 0.0
C790 C 0.09257 0.97099 0.84352 0.0
C791 C 0.1377 0.99136 0.83467 0.0
H792 H 0.01926 0.90786 0.847 0.0
C793 C 0.14487 0.96107 0.82335 0.0
H794 H 0.08597 0.9935 0.8523 0.0
C795 C 0.10703 0.91208 0.82044 0.0
C796 C 0.06091 0.89241 0.82864 0.0
H797 H 0.17942 0.9756 0.81645 0.0
H798 H 0.1134 0.89029 0.8113 0.0
C799 C 0.05436 0.92201 0.84046 0.0
C800 C 0.0201 0.11628 0.84599 0.0
C801 C 0.99429 0.13122 0.83522 0.0
H802 H 0.0881 0.11541 0.85081 0.0
C803 C 0.01977 0.16125 0.82158 0.0
H804 H 0.0014 0.09319 0.85661 0.0
C805 C 0.06942 0.17471 0.81843 0.0
C806 C 0.09461 0.15778 0.82869 0.0
H807 H 0.00109 0.1739 0.81317 0.0
H808 H 0.08735 0.19682 0.80756 0.0
C809 C 0.0697 0.12904 0.84266 0.0
C810 C 0.88713 0.88827 0.66384 0.0
C811 C 0.84062 0.86199 0.67178 0.0
H812 H 0.96059 0.89788 0.6611 0.0
C813 C 0.83091 0.82143 0.68201 0.0
H814 H 0.89551 0.91975 0.65591 0.0
C815 C 0.86762 0.80855 0.68481 0.0
C816 C 0.91516 0.83638 0.67763 0.0
H817 H 0.7951 0.80018 0.68813 0.0
H818 H 0.85921 0.77789 0.69313 0.0
C819 C 0.92431 0.87579 0.66684 0.0
C820 C 0.12613 0.05215 0.66744 0.0
C821 C 0.16433 0.08149 0.67872 0.0
H822 H 0.08211 0.97985 0.65636 0.0
C823 C 0.19046 0.06079 0.68652 0.0
H824 H 0.10543 0.06718 0.66121 0.0
C825 C 0.1767 0.01094 0.6839 0.0
C826 C 0.13706 0.98096 0.67325 0.0
H827 H 0.22017 0.08236 0.69522 0.0
H828 H 0.19632 0.99544 0.69055 0.0
C829 C 0.11285 0.00229 0.66462 0.0
C830 C 0.93967 0.12314 0.68945 0.0
C831 C 0.91855 0.07695 0.68128 0.0
H832 H 0.00446 0.19477 0.69311 0.0
C833 C 0.94712 0.06921 0.66934 0.0
H834 H 0.91872 0.13043 0.69867 0.0
C835 C 0.99641 0.1065 0.66604 0.0
C836 C 0.01803 0.15178 0.67479 0.0
H837 H 0.93181 0.03399 0.66281 0.0
H838 H 0.01808 0.09918 0.65711 0.0
C839 C 0.9889 0.15999 0.68631 0.0
C840 C 0.86337 0.46275 0.51471 0.0
C841 C 0.83092 0.41548 0.50799 0.0
H842 H 0.88033 0.53843 0.51759 0.0
C843 C 0.79203 0.40987 0.49752 0.0
H844 H 0.89379 0.4685 0.52277 0.0
C845 C 0.78467 0.45043 0.49439 0.0
C846 C 0.81567 0.49687 0.50189 0.0
H847 H 0.76645 0.37388 0.49213 0.0
H848 H 0.75348 0.44486 0.48676 0.0
C849 C 0.85561 0.50284 0.51179 0.0
C850 C 0.52106 0.36401 0.51399 0.0
C851 C 0.52935 0.33371 0.50301 0.0
H852 H 0.55164 0.43453 0.52618 0.0
C853 C 0.57539 0.35384 0.49475 0.0
H854 H 0.48571 0.34961 0.52041 0.0
C855 C 0.61349 0.40255 0.49817 0.0
C856 C 0.60588 0.43205 0.50975 0.0
H857 H 0.58278 0.33126 0.48624 0.0
H858 H 0.64934 0.4165 0.49213 0.0
C859 C 0.55882 0.41275 0.51726 0.0
C860 C 0.60092 0.19955 0.4963 0.0
C861 C 0.57189 0.1654 0.50872 0.0
H862 H 0.6728 0.23946 0.48452 0.0
C863 C 0.59307 0.14211 0.51797 0.0
H864 H 0.58571 0.21814 0.48894 0.0
C865 C 0.64284 0.1548 0.51558 0.0
C866 C 0.67259 0.1906 0.50373 0.0
H867 H 0.5719 0.11555 0.52758 0.0
H868 H 0.65845 0.13737 0.52332 0.0
C869 C 0.65076 0.21177 0.49375 0.0
C870 C 0.8389 0.51409 0.66033 0.0
C871 C 0.82863 0.47231 0.66999 0.0
H872 H 0.81099 0.55841 0.64957 0.0
C873 C 0.78142 0.4446 0.67739 0.0
H874 H 0.87525 0.53639 0.65464 0.0
C875 C 0.74411 0.45689 0.67433 0.0
C876 C 0.75385 0.49751 0.66403 0.0
H877 H 0.77261 0.41212 0.68486 0.0
H878 H 0.70729 0.43369 0.67959 0.0
C879 C 0.80208 0.52677 0.65748 0.0
C880 C 0.47863 0.2752 0.65245 0.0
C881 C 0.50431 0.25387 0.66015 0.0
H882 H 0.47289 0.34081 0.64894 0.0
C883 C 0.54182 0.28229 0.67176 0.0
H884 H 0.44946 0.25435 0.6435 0.0
C885 C 0.55483 0.33187 0.67502 0.0
C886 C 0.53106 0.35386 0.66652 0.0
H887 H 0.56215 0.26675 0.67793 0.0
H888 H 0.58504 0.35362 0.68355 0.0
C889 C 0.49214 0.32478 0.65551 0.0
C890 C 0.72136 0.26408 0.67142 0.0
C891 C 0.75045 0.25718 0.65947 0.0
H892 H 0.64962 0.23369 0.68311 0.0
C893 C 0.72942 0.21191 0.65074 0.0
H894 H 0.73658 0.29858 0.67836 0.0
C895 C 0.67977 0.17525 0.65333 0.0
C896 C 0.65014 0.18274 0.66484 0.0
H897 H 0.75078 0.2053 0.64148 0.0
H898 H 0.66431 0.14125 0.64609 0.0
C899 C 0.67166 0.22697 0.67416 0.0
C900 C 0.48034 0.15971 0.16208 0.0
C901 C 0.52096 0.16628 0.17172 0.0
H902 H 0.44153 0.19343 0.15112 0.0
C903 C 0.55268 0.21324 0.17878 0.0
H904 H 0.45508 0.12372 0.15661 0.0
C905 C 0.54527 0.25367 0.17546 0.0
C906 C 0.50561 0.2474 0.16525 0.0
H907 H 0.5844 0.21926 0.1862 0.0
H908 H 0.57135 0.29003 0.1805 0.0
C909 C 0.47253 0.19968 0.15898 0.0
C910 C 0.8118 0.30697 0.15499 0.0
C911 C 0.80508 0.33639 0.16679 0.0
H912 H 0.78027 0.23665 0.14264 0.0
C913 C 0.7607 0.31518 0.17606 0.0
H914 H 0.84581 0.32218 0.14776 0.0
C915 C 0.72281 0.26608 0.17303 0.0
C916 C 0.72897 0.23725 0.16082 0.0
H917 H 0.7545 0.33702 0.18522 0.0
H918 H 0.68829 0.25116 0.17997 0.0
C919 C 0.77428 0.25786 0.1521 0.0
C920 C 0.74257 0.5294 0.15396 0.0
C921 C 0.76475 0.50699 0.16315 0.0
H922 H 0.67577 0.53156 0.14859 0.0
C923 C 0.73664 0.47277 0.17566 0.0
H924 H 0.76309 0.55598 0.14427 0.0
C925 C 0.68651 0.45915 0.17825 0.0
C926 C 0.66355 0.47896 0.1682 0.0
H927 H 0.75272 0.45496 0.18299 0.0
H928 H 0.66506 0.4311 0.18746 0.0
C929 C 0.69244 0.51525 0.15638 0.0
C930 C 0.58405 0.2081 0.99967 0.0
C931 C 0.57878 0.1701 0.0105 0.0
H932 H 0.54869 0.24569 0.98849 0.0
C933 C 0.53183 0.13862 0.01763 0.0
H934 H 0.61979 0.23294 0.99398 0.0
C935 C 0.4917 0.14633 0.01466 0.0
C936 C 0.49728 0.18521 0.00431 0.0
H937 H 0.52636 0.10895 0.026 0.0
H938 H 0.45635 0.12225 0.02072 0.0
C939 C 0.54343 0.21535 0.9965 0.0
C940 C 0.79172 0.35431 0.99679 0.0
C941 C 0.80983 0.33048 0.00719 0.0
H942 H 0.78913 0.42124 0.99179 0.0
C943 C 0.84473 0.3586 0.01947 0.0
H944 H 0.76484 0.33354 0.9872 0.0
C945 C 0.85919 0.40875 0.02195 0.0
C946 C 0.83852 0.43184 0.01235 0.0
H947 H 0.85985 0.34136 0.02753 0.0
H948 H 0.88469 0.42861 0.03196 0.0
C949 C 0.80565 0.4045 0.99943 0.0
C950 C 0.58652 0.43947 0.02115 0.0
C951 C 0.56672 0.39331 0.01301 0.0
H952 H 0.65048 0.51133 0.02532 0.0
C953 C 0.59668 0.38604 1.00153 0.0
H954 H 0.56445 0.44639 0.03002 0.0
C955 C 0.64613 0.42364 0.99872 0.0
C956 C 0.66652 0.46879 0.00751 0.0
H957 H 0.58241 0.35085 0.99504 0.0
H958 H 0.66891 0.41658 0.99019 0.0
C959 C 0.63592 0.47667 0.01849 0.0
C960 C 0.44744 0.7859 0.82791 0.0
C961 C 0.47853 0.83158 0.83585 0.0
H962 H 0.42829 0.70923 0.82494 0.0
C963 C 0.51741 0.83594 0.84596 0.0
H964 H 0.41701 0.78155 0.82011 0.0
C965 C 0.52429 0.79514 0.84854 0.0
C966 C 0.49191 0.74866 0.84128 0.0
H967 H 0.54215 0.87087 0.85213 0.0
H968 H 0.55404 0.79973 0.85672 0.0
C969 C 0.45383 0.74457 0.83071 0.0
C970 C 0.18554 0.69689 0.84902 0.0
C971 C 0.19323 0.66664 0.83784 0.0
H972 H 0.2163 0.76774 0.86099 0.0
C973 C 0.23853 0.68719 0.82909 0.0
H974 H 0.15081 0.68222 0.85583 0.0
C975 C 0.27644 0.73632 0.83215 0.0
C976 C 0.26941 0.76586 0.84387 0.0
H977 H 0.24552 0.66471 0.82041 0.0
H978 H 0.31172 0.75061 0.82571 0.0
C979 C 0.22307 0.74601 0.85194 0.0
C980 C 0.30296 0.48464 0.85046 0.0
C981 C 0.33175 0.51889 0.83811 0.0
H982 H 0.23287 0.4469 0.86304 0.0
C983 C 0.30918 0.53846 0.82778 0.0
H984 H 0.31928 0.46843 0.85846 0.0
C985 C 0.25956 0.52652 0.83052 0.0
C986 C 0.23154 0.49414 0.84345 0.0
H987 H 0.33056 0.56489 0.81816 0.0
H988 H 0.24375 0.54402 0.8229 0.0
C989 C 0.25333 0.47208 0.85302 0.0
C990 C 0.50334 0.84655 0.98999 0.0
C991 C 0.49842 0.80825 1.00051 0.0
H992 H 0.46805 0.8834 0.97872 0.0
C993 C 0.45264 0.77838 0.00858 0.0
H994 H 0.53836 0.8704 0.98372 0.0
C995 C 0.41179 0.78544 0.00556 0.0
C996 C 0.41647 0.823 0.99464 0.0
H997 H 0.44786 0.74846 0.01671 0.0
H998 H 0.37638 0.7609 0.01149 0.0
C999 C 0.46302 0.85409 0.98719 0.0
C1000 C 0.20614 0.64381 0.009 0.0
C1001 C 0.18575 0.66646 0.99908 0.0
H1002 H 0.21168 0.57824 0.01342 0.0
C1003 C 0.14988 0.63766 0.98714 0.0
H1004 H 0.23387 0.66524 0.0183 0.0
C1005 C 0.13664 0.58792 0.98449 0.0
C1006 C 0.1596 0.56611 0.99357 0.0
H1007 H 0.13313 0.6541 0.97945 0.0
H1008 H 0.11034 0.56748 0.97473 0.0
C1009 C 0.19346 0.59408 0.00618 0.0
C1010 C 0.35007 0.5694 0.00655 0.0
C1011 C 0.33001 0.52407 0.99788 0.0
H1012 H 0.4134 0.64257 0.01007 0.0
C1013 C 0.36084 0.51622 0.987 0.0
H1014 H 0.32707 0.57645 0.015 0.0
C1015 C 0.41014 0.55364 0.98431 0.0
C1016 C 0.42958 0.60002 0.99228 0.0
H1017 H 0.34651 0.48142 0.98027 0.0
H1018 H 0.43238 0.54672 0.9755 0.0
C1019 C 0.3994 0.60724 0.0037 0.0
C1020 C 0.14935 0.49149 0.49331 0.0
C1021 C 0.18932 0.49917 0.50351 0.0
H1022 H 0.1066 0.52193 0.48303 0.0
C1023 C 0.21539 0.54425 0.51228 0.0
H1024 H 0.12832 0.45685 0.48654 0.0
C1025 C 0.20335 0.58213 0.5101 0.0
C1026 C 0.1645 0.57506 0.49935 0.0
H1027 H 0.24647 0.55109 0.52019 0.0
H1028 H 0.22535 0.61737 0.51646 0.0
C1029 C 0.1368 0.52879 0.49136 0.0
C1030 C 0.44114 0.65535 0.50996 0.0
C1031 C 0.48731 0.67425 0.50182 0.0
H1032 H 0.36666 0.59336 0.51282 0.0
C1033 C 0.49491 0.64276 0.49119 0.0
H1034 H 0.43423 0.67888 0.51819 0.0
C1035 C 0.45671 0.59398 0.48825 0.0
C1036 C 0.40969 0.5756 0.49573 0.0
H1037 H 0.53028 0.65616 0.48487 0.0
H1038 H 0.46369 0.57127 0.47967 0.0
C1039 C 0.40249 0.60647 0.50685 0.0
C1040 C 0.39265 0.78721 0.50607 0.0
C1041 C 0.41761 0.81602 0.49213 0.0
H1042 H 0.32525 0.75378 0.52045 0.0
C1043 C 0.39342 0.83468 0.48216 0.0
H1044 H 0.41044 0.77234 0.51398 0.0
C1045 C 0.34469 0.8234 0.4857 0.0
C1046 C 0.31936 0.79389 0.49943 0.0
H1047 H 0.41155 0.85688 0.47132 0.0
H1048 H 0.32676 0.83767 0.4776 0.0
C1049 C 0.34402 0.77662 0.50978 0.0
C1050 C 0.15883 0.48791 0.34985 0.0
C1051 C 0.16304 0.52502 0.3389 0.0
H1052 H 0.19435 0.4513 0.36112 0.0
C1053 C 0.20791 0.55315 0.33014 0.0
H1054 H 0.12454 0.46537 0.35667 0.0
C1055 C 0.24854 0.54546 0.33285 0.0
C1056 C 0.24452 0.50898 0.34414 0.0
H1057 H 0.21217 0.58214 0.32167 0.0
H1058 H 0.28324 0.56859 0.32633 0.0
C1059 C 0.19888 0.47974 0.35235 0.0
C1060 C 0.50988 0.68782 0.3491 0.0
C1061 C 0.47322 0.6594 0.33732 0.0
H1062 H 0.55053 0.75768 0.3616 0.0
C1063 C 0.45236 0.68238 0.32779 0.0
H1064 H 0.52709 0.67113 0.35644 0.0
C1065 C 0.46543 0.7321 0.33087 0.0
C1066 C 0.50015 0.75969 0.34333 0.0
H1067 H 0.42407 0.66122 0.31862 0.0
H1068 H 0.44687 0.74823 0.32396 0.0
C1069 C 0.52353 0.73753 0.35198 0.0
C1070 C 0.25383 0.78143 0.35354 0.0
C1071 C 0.23399 0.73414 0.34618 0.0
H1072 H 0.31797 0.8537 0.35697 0.0
C1073 C 0.26393 0.72534 0.33511 0.0
H1074 H 0.2318 0.78959 0.36206 0.0
C1075 C 0.31344 0.76253 0.33205 0.0
C1076 C 0.3339 0.80877 0.34018 0.0
H1077 H 0.24962 0.68929 0.3292 0.0
H1078 H 0.33629 0.75427 0.32395 0.0
C1079 C 0.30328 0.81818 0.35066 0.0
C1080 C 0.31129 0.31883 0.14333 0.0
C1081 C 0.28091 0.33011 0.15321 0.0
H1082 H 0.38374 0.32901 0.13891 0.0
C1083 C 0.30249 0.36246 0.16674 0.0
H1084 H 0.29603 0.29419 0.1328 0.0
C1085 C 0.3535 0.38263 0.17036 0.0
C1086 C 0.38371 0.37097 0.16044 0.0
H1087 H 0.27993 0.37174 0.17461 0.0
H1088 H 0.36915 0.40713 0.1809 0.0
C1089 C 0.36187 0.33901 0.14685 0.0
C1090 C 0.62324 0.95859 0.17177 0.0
C1091 C 0.62654 0.99587 0.16099 0.0
H1092 H 0.64686 0.90519 0.17694 0.0
C1093 C 0.656 0.00675 0.1467 0.0
H1094 H 0.60084 0.94931 0.18287 0.0
C1095 C 0.68242 0.98204 0.14343 0.0
C1096 C 0.67983 0.94538 0.15425 0.0
H1097 H 0.65959 0.0352 0.13809 0.0
H1098 H 0.70516 0.992 0.13239 0.0
C1099 C 0.64948 0.93332 0.16837 0.0
C1100 C 0.99005 0.6988 0.16875 0.0
C1101 C 0.03552 0.72167 0.16011 0.0
H1102 H 0.93032 0.63049 0.17858 0.0
C1103 C 0.05707 0.693 0.15521 0.0
H1104 H 0.97292 0.72039 0.17266 0.0
C1105 C 0.03207 0.64154 0.15817 0.0
C1106 C 0.98623 0.61855 0.16659 0.0
H1107 H 0.09201 0.70996 0.14845 0.0
H1108 H 0.04811 0.61954 0.15366 0.0
C1109 C 0.96596 0.64768 0.17222 0.0
C1110 C 0.36448 0.30218 0.33656 0.0
C1111 C 0.33065 0.27889 0.34961 0.0
H1112 H 0.40906 0.3701 0.32302 0.0
C1113 C 0.31558 0.30716 0.35906 0.0
H1114 H 0.37657 0.28122 0.32901 0.0
C1115 C 0.33388 0.35748 0.35564 0.0
C1116 C 0.36783 0.38115 0.34266 0.0
H1117 H 0.28948 0.29049 0.36917 0.0
H1118 H 0.32123 0.3778 0.36329 0.0
C1119 C 0.3829 0.35295 0.33309 0.0
C1120 C 0.64997 0.01305 0.33424 0.0
C1121 C 0.6171 0.98417 0.3469 0.0
H1122 H 0.72621 0.06333 0.32731 0.0
C1123 C 0.63661 0.98406 0.36254 0.0
H1124 H 0.63587 0.01384 0.32208 0.0
C1125 C 0.6879 0.01153 0.36543 0.0
C1126 C 0.72085 0.04048 0.35285 0.0
H1127 H 0.6123 0.96193 0.37252 0.0
H1128 H 0.70172 0.01014 0.37759 0.0
C1129 C 0.70149 0.04147 0.33725 0.0
C1130 C 0.92673 0.65056 0.33805 0.0
C1131 C 0.93665 0.68036 0.3522 0.0
H1132 H 0.9451 0.60262 0.32412 0.0
C1133 C 0.97137 0.68214 0.36375 0.0
H1134 H 0.90015 0.64855 0.32892 0.0
C1135 C 0.99669 0.65601 0.36109 0.0
C1136 C 0.98833 0.62743 0.34673 0.0
H1137 H 0.97962 0.70433 0.37487 0.0
H1138 H 0.02367 0.65915 0.37026 0.0
C1139 C 0.95253 0.6244 0.3353 0.0
C1140 C 0.633 0.65045 0.85725 0.0
C1141 C 0.61023 0.61843 0.84374 0.0
H1142 H 0.69903 0.69315 0.87141 0.0
C1143 C 0.63923 0.60477 0.83397 0.0
H1144 H 0.61214 0.66195 0.8651 0.0
C1145 C 0.68992 0.62296 0.8377 0.0
C1146 C 0.71233 0.65512 0.85122 0.0
H1147 H 0.62284 0.58014 0.8235 0.0
H1148 H 0.71155 0.61217 0.82995 0.0
C1149 C 0.68315 0.66846 0.86091 0.0
C1150 C 0.33309 0.03161 0.86451 0.0
C1151 C 0.32744 0.06068 0.85232 0.0
H1152 H 0.3626 0.98465 0.87106 0.0
C1153 C 0.35167 0.06711 0.83708 0.0
H1154 H 0.31552 0.02642 0.87647 0.0
C1155 C 0.37889 0.04258 0.83386 0.0
C1156 C 0.38247 0.01159 0.84589 0.0
H1157 H 0.34796 0.08937 0.82745 0.0
H1158 H 0.3956 0.04654 0.82181 0.0
C1159 C 0.3603 0.00762 0.86138 0.0
C1160 C 0.94857 0.30716 0.85157 0.0
C1161 C 0.97202 0.27966 0.8474 0.0
H1162 H 0.95451 0.37946 0.85226 0.0
C1163 C 0.01873 0.30379 0.83951 0.0
H1164 H 0.91264 0.2893 0.85775 0.0
C1165 C 0.04187 0.35481 0.83594 0.0
C1166 C 0.01936 0.38274 0.84069 0.0
H1167 H 0.03741 0.28321 0.83615 0.0
H1168 H 0.07821 0.37277 0.83003 0.0
C1169 C 0.9725 0.35856 0.84849 0.0
C1170 C 0.62709 0.66122 0.67094 0.0
C1171 C 0.63918 0.63201 0.66068 0.0
H1172 H 0.6368 0.73396 0.67573 0.0
C1173 C 0.67072 0.65471 0.64708 0.0
H1174 H 0.6028 0.6448 0.68149 0.0
C1175 C 0.68995 0.70525 0.64381 0.0
C1176 C 0.67813 0.73459 0.65401 0.0
H1177 H 0.68095 0.63352 0.63889 0.0
H1178 H 0.71431 0.7213 0.63324 0.0
C1179 C 0.64635 0.71214 0.6676 0.0
C1180 C 0.3471 0.01681 0.64617 0.0
C1181 C 0.37046 0.01022 0.66005 0.0
H1182 H 0.27929 0.99304 0.63291 0.0
C1183 C 0.34136 0.97222 0.6714 0.0
H1184 H 0.36825 0.04578 0.63718 0.0
C1185 C 0.28986 0.94149 0.66885 0.0
C1186 C 0.26672 0.94868 0.65501 0.0
H1187 H 0.35831 0.96618 0.6822 0.0
H1188 H 0.26814 0.9126 0.67779 0.0
C1189 C 0.29592 0.98658 0.64372 0.0
C1190 C 0.03639 0.3708 0.67133 0.0
C1191 C 0.99695 0.36246 0.66069 0.0
H1192 H 0.09574 0.35558 0.67651 0.0
C1193 C 0.98779 0.3321 0.64674 0.0
H1194 H 0.04448 0.39412 0.68216 0.0
C1195 C 0.01682 0.31009 0.64357 0.0
C1196 C 0.05601 0.31808 0.6542 0.0
H1197 H 0.95771 0.32477 0.63827 0.0
H1198 H 0.00832 0.2866 0.63277 0.0
C1199 C 0.06585 0.34894 0.66807 0.0
C1200 C 0.96991 0.68557 0.48804 0.0
C1201 C 0.94641 0.69373 0.50157 0.0
H1202 H 0.03635 0.6905 0.47827 0.0
C1203 C 0.97454 0.71598 0.51587 0.0
H1204 H 0.94951 0.66857 0.4768 0.0
C1205 C 0.02497 0.7289 0.51668 0.0
C1206 C 0.04786 0.71928 0.50326 0.0
H1207 H 0.95746 0.72268 0.5265 0.0
H1208 H 0.04569 0.74547 0.5279 0.0
C1209 C 0.01983 0.69794 0.4889 0.0
C1210 C 0.32077 0.26586 0.50079 0.0
C1211 C 0.34889 0.27539 0.48622 0.0
H1212 H 0.27548 0.28544 0.51573 0.0
C1213 C 0.35039 0.31085 0.47506 0.0
H1214 H 0.31902 0.23877 0.50965 0.0
C1215 C 0.3257 0.3372 0.47846 0.0
C1216 C 0.29879 0.32917 0.49321 0.0
H1217 H 0.37128 0.31889 0.46365 0.0
H1218 H 0.32857 0.36464 0.46954 0.0
C1219 C 0.29599 0.29267 0.50428 0.0
C1220 C 0.64743 0.97421 0.47888 0.0
C1221 C 0.65466 0.95422 0.49351 0.0
H1222 H 0.66836 0.03932 0.46435 0.0
C1223 C 0.69071 0.98656 0.50488 0.0
H1224 H 0.61982 0.95046 0.46987 0.0
C1225 C 0.71908 0.03789 0.5016 0.0
C1226 C 0.71131 0.05768 0.487 0.0
H1227 H 0.69719 0.97223 0.51624 0.0
H1228 H 0.74656 0.06208 0.51055 0.0
C1229 C 0.6752 0.02529 0.47572 0.0
C1230 C 0.04207 0.67339 0.66958 0.0
C1231 C 0.03121 0.70279 0.68019 0.0
H1232 H 0.03148 0.60049 0.66446 0.0
C1233 C 0.00113 0.68033 0.69411 0.0
H1234 H 0.06522 0.68962 0.65878 0.0
C1235 C 0.98202 0.62978 0.69733 0.0
C1236 C 0.99253 0.60024 0.68675 0.0
H1237 H 0.99193 0.7017 0.70257 0.0
H1238 H 0.95877 0.61388 0.70813 0.0
C1239 C 0.02294 0.62247 0.67287 0.0
C1240 C 0.32728 0.36265 0.6679 0.0
C1241 C 0.29765 0.32425 0.67906 0.0
H1242 H 0.40077 0.42276 0.66201 0.0
C1243 C 0.32035 0.31739 0.69308 0.0
H1244 H 0.31084 0.3689 0.65701 0.0
C1245 C 0.37132 0.34776 0.69587 0.0
C1246 C 0.40105 0.38611 0.68479 0.0
H1247 H 0.29883 0.28812 0.70194 0.0
H1248 H 0.38737 0.34106 0.70678 0.0
C1249 C 0.37862 0.39355 0.6708 0.0
C1250 C 0.63347 0.96419 0.66824 0.0
C1251 C 0.67247 0.97268 0.67911 0.0
H1252 H 0.5743 0.9793 0.66258 0.0
C1253 C 0.68115 0.00334 0.69295 0.0
H1254 H 0.62576 0.94064 0.65749 0.0
C1255 C 0.65202 0.02544 0.69579 0.0
C1256 C 0.6132 0.01721 0.68495 0.0
H1257 H 0.71089 0.01082 0.70158 0.0
H1258 H 0.66012 0.04911 0.70653 0.0
C1259 C 0.6039 0.98612 0.67119 0.0
C1260 C 0.31771 0.9695 0.18413 0.0
C1261 C 0.28966 0.94805 0.16978 0.0
H1262 H 0.38776 0.99785 0.19639 0.0
C1263 C 0.3123 0.93735 0.15653 0.0
H1264 H 0.30141 0.97781 0.19464 0.0
C1265 C 0.36239 0.94914 0.15751 0.0
C1266 C 0.39052 0.97134 0.17181 0.0
H1267 H 0.29162 0.92066 0.14531 0.0
H1268 H 0.3792 0.94152 0.147 0.0
C1269 C 0.36732 0.98075 0.18516 0.0
C1270 C 0.03333 0.41378 0.15791 0.0
C1271 C 0.00844 0.41699 0.17196 0.0
H1272 H 0.0707 0.37892 0.14647 0.0
C1273 C 0.00432 0.38782 0.18583 0.0
H1274 H 0.03719 0.43575 0.14702 0.0
C1275 C 0.02315 0.35502 0.18549 0.0
C1276 C 0.04687 0.35074 0.1713 0.0
H1277 H 0.98544 0.38935 0.19689 0.0
H1278 H 0.01847 0.33251 0.19631 0.0
C1279 C 0.05247 0.38111 0.15759 0.0
C1280 C 0.61329 0.63106 0.15554 0.0
C1281 C 0.59812 0.6044 0.17044 0.0
H1282 H 0.65899 0.7018 0.14384 0.0
C1283 C 0.61694 0.63037 0.18535 0.0
H1284 H 0.59955 0.61215 0.14385 0.0
C1285 C 0.65108 0.68153 0.18536 0.0
C1286 C 0.66728 0.70808 0.17046 0.0
H1287 H 0.60597 0.61103 0.19707 0.0
H1288 H 0.66524 0.70009 0.19708 0.0
C1289 C 0.64755 0.68241 0.15555 0.0
C1290 C 0.32359 0.96938 0.98003 0.0
C1291 C 0.29072 0.94553 0.99325 0.0
H1292 H 0.36783 0.03687 0.96671 0.0
C1293 C 0.27698 0.97377 0.00336 0.0
H1294 H 0.33513 0.94902 0.97195 0.0
C1295 C 0.29595 0.02483 1.00027 0.0
C1296 C 0.32903 0.04841 0.98706 0.0
H1297 H 0.25164 0.95652 0.01362 0.0
H1298 H 0.28505 0.04585 0.00828 0.0
C1299 C 0.34246 0.02001 0.97699 0.0
C1300 C 0.01502 0.31935 0.00691 0.0
C1301 C 0.04738 0.34475 0.99372 0.0
H1302 H 0.93885 0.27277 0.01468 0.0
C1303 C 0.02717 0.34252 0.97802 0.0
H1304 H 0.02973 0.32048 0.01912 0.0
C1305 C 0.97564 0.31624 0.97558 0.0
C1306 C 0.9432 0.29077 0.98869 0.0
H1307 H 0.05114 0.36202 0.96764 0.0
H1308 H 0.96122 0.31574 0.96336 0.0
C1309 C 0.96322 0.29199 0.00436 0.0
C1310 C 0.73191 0.67976 1.00143 0.0
C1311 C 0.72085 0.6487 0.98754 0.0
H1312 H 0.71539 0.72966 0.01495 0.0
C1313 C 0.68572 0.64642 0.97607 0.0
H1314 H 0.75886 0.68221 0.01048 0.0
C1315 C 0.66134 0.67359 0.97852 0.0
C1316 C 0.67103 0.70361 0.9926 0.0
H1317 H 0.67659 0.62321 0.96517 0.0
H1318 H 0.63402 0.6701 0.96944 0.0
C1319 C 0.707 0.70683 0.00398 0.0
C1320 C 0.69574 0.06201 0.85059 0.0
C1321 C 0.71831 0.05115 0.83736 0.0
H1322 H 0.62887 0.05772 0.8602 0.0
C1323 C 0.68978 0.02876 0.82314 0.0
H1324 H 0.71666 0.07934 0.86171 0.0
C1325 C 0.6399 0.01697 0.82222 0.0
C1326 C 0.6169 0.0268 0.83554 0.0
H1327 H 0.70592 0.02016 0.81266 0.0
H1328 H 0.61912 -0.00076 0.8111 0.0
C1329 C 0.64545 0.04972 0.84972 0.0
C1330 C 0.97801 0.65697 0.81199 0.0
C1331 C 0.95332 0.65058 0.82713 0.0
H1332 H 0.02402 0.63936 0.7971 0.0
C1333 C 0.95455 0.61738 0.8388 0.0
H1334 H 0.97775 0.68185 0.80262 0.0
C1335 C 0.98129 0.59245 0.83551 0.0
C1336 C 0.00745 0.60068 0.82058 0.0
H1337 H 0.93583 0.6115 0.85056 0.0
H1338 H 0.98278 0.56807 0.84483 0.0
C1339 C 0.00475 0.63255 0.8088 0.0
C1340 C 0.36109 0.29902 0.82512 0.0
C1341 C 0.31327 0.27549 0.83229 0.0
H1342 H 0.42312 0.368 0.81653 0.0
C1343 C 0.29128 0.30423 0.83659 0.0
H1344 H 0.3787 0.27748 0.82171 0.0
C1345 C 0.31587 0.3554 0.83317 0.0
C1346 C 0.36353 0.37888 0.82591 0.0
H1347 H 0.25426 0.2868 0.84202 0.0
H1348 H 0.29757 0.37663 0.83614 0.0
C1349 C 0.38647 0.35059 0.82222 0.0
C1350 C 0.69882 0.97081 0.00458 0.0
C1351 C 0.66743 0.94683 0.01813 0.0
H1352 H 0.74131 0.03953 0.99124 0.0
C1353 C 0.65561 0.97501 0.02891 0.0
H1354 H 0.70845 0.94999 0.99604 0.0
C1355 C 0.67425 0.02578 0.02621 0.0
C1356 C 0.70521 0.04999 0.01261 0.0
H1357 H 0.63165 0.95786 0.03949 0.0
H1358 H 0.66392 0.04595 0.03482 0.0
C1359 C 0.71748 0.022 1.00182 0.0
C1360 C 0.98193 0.66871 0.99752 0.0
C1361 C 0.94552 0.66775 0.00816 0.0
H1362 H 0.05989 0.70351 0.99157 0.0
C1363 C 0.96017 0.70483 0.02034 0.0
H1364 H 0.9717 0.64069 0.98799 0.0
C1365 C 0.01035 0.74113 0.02222 0.0
C1366 C 0.04714 0.74076 0.01212 0.0
H1367 H 0.9329 0.70542 0.02861 0.0
H1368 H 0.02041 0.76836 0.03201 0.0
C1369 C 0.03237 0.70469 0.99957 0.0
C1370 C 0.26426 0.31362 0.00305 0.0
C1371 C 0.27445 0.34413 0.01702 0.0
H1372 H 0.28192 0.26459 0.98953 0.0
C1373 C 0.30917 0.34636 0.02866 0.0
H1374 H 0.23764 0.31125 0.99387 0.0
C1375 C 0.33403 0.31966 0.02628 0.0
C1376 C 0.3252 0.29021 0.01211 0.0
H1377 H 0.3176 0.36918 0.03963 0.0
H1378 H 0.36102 0.32305 0.03548 0.0
C1379 C 0.28965 0.28703 1.00056 0.0
C1380 C 0.0258 0.34218 0.52871 0.0
C1381 C 0.05585 0.33207 0.51822 0.0
H1382 H 0.95367 0.33225 0.53374 0.0
C1383 C 0.03398 0.30225 0.50417 0.0
H1384 H 0.04128 0.36495 0.53964 0.0
C1385 C 0.98305 0.28338 0.50068 0.0
C1386 C 0.95316 0.2938 0.51123 0.0
H1387 H 0.05625 0.29398 0.49581 0.0
H1388 H 0.96718 0.26072 0.48976 0.0
C1389 C 0.97529 0.32329 0.5253 0.0
C1390 C 0.69414 0.73576 0.5052 0.0
C1391 C 0.66796 0.72808 0.52009 0.0
H1392 H 0.73714 0.71421 0.48997 0.0
C1393 C 0.66763 0.69399 0.53159 0.0
H1394 H 0.69496 0.76183 0.49609 0.0
C1395 C 0.69177 0.66713 0.52817 0.0
C1396 C 0.71666 0.67335 0.51308 0.0
H1397 H 0.64812 0.68749 0.54323 0.0
H1398 H 0.6899 0.64062 0.5373 0.0
C1399 C 0.71818 0.70845 0.50168 0.0
C1400 C 0.28243 0.9763 0.51728 0.0
C1401 C 0.30368 0.94734 0.5124 0.0
H1402 H 0.29125 0.04974 0.5185 0.0
C1403 C 0.34907 0.97004 0.50369 0.0
H1404 H 0.24755 0.95958 0.52408 0.0
C1405 C 0.37319 0.02108 0.50007 0.0
C1406 C 0.35306 0.05048 0.50557 0.0
H1407 H 0.36603 0.94832 0.49975 0.0
H1408 H 0.40856 0.03793 0.49356 0.0
C1409 C 0.3074 0.0277 0.51414 0.0
C1410 C 0.00827 0.35653 0.31218 0.0
C1411 C 0.99536 0.38474 0.32255 0.0
H1412 H 0.00128 0.2858 0.30687 0.0
C1413 C 0.96383 0.3611 0.3361 0.0
H1414 H 0.03247 0.37342 0.30163 0.0
C1415 C 0.94581 0.31016 0.33921 0.0
C1416 C 0.95886 0.28207 0.32875 0.0
H1417 H 0.9534 0.38196 0.34436 0.0
H1418 H 0.92161 0.29283 0.34972 0.0
C1419 C 0.99027 0.30602 0.31521 0.0
C1420 C 0.68336 0.70235 0.33585 0.0
C1421 C 0.713 0.68093 0.3321 0.0
H1422 H 0.61022 0.69429 0.33485 0.0
C1423 C 0.69041 0.63233 0.32558 0.0
H1424 H 0.70013 0.73995 0.34075 0.0
C1425 C 0.63883 0.60566 0.32271 0.0
C1426 C 0.60967 0.62806 0.32574 0.0
H1427 H 0.71273 0.61522 0.3226 0.0
H1428 H 0.62213 0.56848 0.31746 0.0
C1429 C 0.63218 0.67642 0.33242 0.0
C1430 C 0.33124 0.01084 0.3118 0.0
C1431 C 0.33875 0.03907 0.3262 0.0
H1432 H 0.3497 0.96332 0.29813 0.0
C1433 C 0.37402 0.04213 0.33785 0.0
H1434 H 0.30455 0.00763 0.30252 0.0
C1435 C 0.4004 0.01658 0.33523 0.0
C1436 C 0.39156 0.9873 0.32101 0.0
H1437 H 0.38076 0.06366 0.34905 0.0
H1438 H 0.42672 0.01878 0.34449 0.0
C1439 C 0.35714 0.98523 0.30928 0.0
C1440 C 0.17864 0.39977 0.0779 0.0
C1441 C 0.15512 0.35989 0.06673 0.0
H1442 H 0.1947 0.42235 0.10314 0.0
C1443 C 0.12878 0.3108 0.07293 0.0
H1444 H 0.19924 0.43801 0.07355 0.0
C1445 C 0.12634 0.30177 0.08989 0.0
C1446 C 0.15001 0.34162 0.10106 0.0
H1447 H 0.11026 0.27915 0.06467 0.0
H1448 H 0.10593 0.2635 0.09423 0.0
C1449 C 0.17602 0.39074 0.09488 0.0
C1450 C 0.63846 0.79249 0.07842 0.0
C1451 C 0.67872 0.81678 0.06741 0.0
H1452 H 0.6147 0.7774 0.10354 0.0
C1453 C 0.72742 0.84497 0.07382 0.0
H1454 H 0.60049 0.7705 0.07391 0.0
C1455 C 0.73561 0.84911 0.09085 0.0
C1456 C 0.69528 0.82501 0.10184 0.0
H1457 H 0.7593 0.86423 0.06568 0.0
H1458 H 0.77352 0.87128 0.09539 0.0
C1459 C 0.64666 0.7965 0.09543 0.0
C1460 C 0.17239 0.88262 0.08987 0.0
C1461 C 0.17265 0.84739 0.10077 0.0
H1462 H 0.18263 0.90967 0.06507 0.0
C1463 C 0.18358 0.81134 0.09456 0.0
H1464 H 0.16434 0.911 0.09427 0.0
C1465 C 0.19372 0.81031 0.07781 0.0
C1466 C 0.1938 0.84573 0.06693 0.0
H1467 H 0.18404 0.78361 0.10264 0.0
H1468 H 0.20168 0.78186 0.07341 0.0
C1469 C 0.18318 0.882 0.07315 0.0
C1470 C 0.31584 0.12785 0.42865 0.0
C1471 C 0.36506 0.15579 0.43465 0.0
H1472 H 0.26782 0.10293 0.40753 0.0
C1473 C 0.40446 0.17988 0.42332 0.0
H1474 H 0.28458 0.10884 0.43704 0.0
C1475 C 0.39481 0.17631 0.40638 0.0
C1476 C 0.34554 0.14879 0.40039 0.0
H1477 H 0.44278 0.20165 0.42752 0.0
H1478 H 0.42604 0.19553 0.39799 0.0
C1479 C 0.30618 0.12448 0.41172 0.0
C1480 C 0.83328 0.2035 0.40815 0.0
C1481 C 0.85674 0.1774 0.40225 0.0
H1482 H 0.8102 0.22888 0.42919 0.0
C1483 C 0.87614 0.15734 0.4137 0.0
H1484 H 0.8179 0.21947 0.39968 0.0
C1485 C 0.87179 0.16288 0.43065 0.0
C1486 C 0.84784 0.18849 0.43655 0.0
H1487 H 0.89444 0.13708 0.4096 0.0
H1488 H 0.88689 0.14664 0.43912 0.0
C1489 C 0.82883 0.20892 0.42509 0.0
C1490 C 0.8421 0.73693 0.41351 0.0
C1491 C 0.8173 0.69824 0.40201 0.0
H1492 H 0.85874 0.75707 0.43891 0.0
C1493 C 0.78867 0.64882 0.40778 0.0
H1494 H 0.86438 0.77537 0.40949 0.0
C1495 C 0.78558 0.63824 0.42464 0.0
C1496 C 0.81083 0.67687 0.43614 0.0
H1497 H 0.76906 0.61807 0.39925 0.0
H1498 H 0.76368 0.59975 0.42865 0.0
C1499 C 0.83878 0.72637 0.43039 0.0
C1500 C 0.81638 0.59486 0.9096 0.0
C1501 C 0.84376 0.64338 0.90301 0.0
H1502 H 0.79231 0.54933 0.93134 0.0
C1503 C 0.86918 0.68388 0.91385 0.0
H1504 H 0.79634 0.5628 0.9016 0.0
C1505 C 0.86699 0.67611 0.93088 0.0
C1506 C 0.83919 0.62768 0.93749 0.0
H1507 H 0.89068 0.72171 0.9092 0.0
H1508 H 0.88682 0.70826 0.93886 0.0
C1509 C 0.81404 0.5871 0.92666 0.0
C1510 C 0.25956 0.14782 0.91425 0.0
C1511 C 0.29919 0.17308 0.90308 0.0
H1512 H 0.23722 0.13128 0.9395 0.0
C1513 C 0.34801 0.20238 0.90927 0.0
H1514 H 0.22153 0.125 0.9099 0.0
C1515 C 0.35707 0.20583 0.92624 0.0
C1516 C 0.31749 0.18028 0.93741 0.0
H1517 H 0.37943 0.22232 0.90101 0.0
H1518 H 0.39516 0.22837 0.93059 0.0
C1519 C 0.2686 0.15149 0.93123 0.0
C1520 C 0.8042 0.17357 0.9115 0.0
C1521 C 0.83057 0.14982 0.90616 0.0
H1522 H 0.77653 0.19643 0.93199 0.0
C1523 C 0.8489 0.12982 0.91801 0.0
H1524 H 0.78949 0.18938 0.90271 0.0
C1525 C 0.84128 0.13376 0.93482 0.0
C1526 C 0.81526 0.15788 0.94017 0.0
H1527 H 0.86927 0.11123 0.91432 0.0
H1528 H 0.85616 0.11815 0.94362 0.0
C1529 C 0.79668 0.17761 0.92831 0.0
C1530 C 0.7034 0.88519 0.57587 0.0
C1531 C 0.65451 0.85798 0.56954 0.0
H1532 H 0.74995 0.91069 0.59734 0.0
C1533 C 0.61418 0.83632 0.58062 0.0
H1534 H 0.73537 0.90238 0.56768 0.0
C1535 C 0.62258 0.84126 0.59764 0.0
C1536 C 0.67151 0.8678 0.60397 0.0
H1537 H 0.57606 0.81518 0.57617 0.0
H1538 H 0.59064 0.82369 0.60582 0.0
C1539 C 0.71181 0.88996 0.59289 0.0
C1540 C 0.17737 0.79019 0.58339 0.0
C1541 C 0.15797 0.81051 0.57204 0.0
H1542 H 0.18485 0.77569 0.60872 0.0
C1543 C 0.12963 0.83152 0.57795 0.0
H1544 H 0.19922 0.77361 0.57925 0.0
C1545 C 0.12135 0.83272 0.59483 0.0
C1546 C 0.14115 0.81285 0.6062 0.0
H1547 H 0.11402 0.84741 0.56953 0.0
H1548 H 0.09978 0.84961 0.59897 0.0
C1549 C 0.16901 0.79131 0.60029 0.0
C1550 C 0.21584 0.36627 0.57992 0.0
C1551 C 0.1924 0.32483 0.56933 0.0
H1552 H 0.23199 0.3925 0.60478 0.0
C1553 C 0.16747 0.2766 0.57623 0.0
H1554 H 0.23544 0.40393 0.57502 0.0
C1555 C 0.16542 0.27 0.59335 0.0
C1556 C 0.18835 0.3115 0.60393 0.0
H1557 H 0.14903 0.24383 0.56844 0.0
H1558 H 0.14546 0.23239 0.59827 0.0
C1559 C 0.21388 0.35967 0.597 0.0
C1560 C 0.96744 0.44682 0.74749 0.0
C1561 C 0.00585 0.471 0.73584 0.0
H1562 H 0.94768 0.43311 0.773 0.0
C1563 C 0.05538 0.50029 0.74145 0.0
H1564 H 0.92891 0.42398 0.7436 0.0
C1565 C 0.06618 0.50577 0.75833 0.0
C1566 C 0.02772 0.48184 0.76998 0.0
H1567 H 0.08591 0.51952 0.73281 0.0
H1568 H 0.10465 0.5289 0.76223 0.0
C1569 C 0.97826 0.45207 0.76436 0.0
C1570 C 0.49867 0.54101 0.74133 0.0
C1571 C 0.52662 0.5199 0.73512 0.0
H1572 H 0.46885 0.55803 0.76263 0.0
C1573 C 0.54713 0.50022 0.7463 0.0
H1574 H 0.48229 0.5565 0.73308 0.0
C1575 C 0.53941 0.50115 0.76327 0.0
C1576 C 0.51093 0.52168 0.76946 0.0
H1577 H 0.56881 0.48367 0.74196 0.0
H1578 H 0.5555 0.48533 0.77152 0.0
C1579 C 0.49087 0.54184 0.75829 0.0
C1580 C 0.5016 0.06293 0.74518 0.0
C1581 C 0.47855 0.02159 0.73454 0.0
H1582 H 0.51862 0.08873 0.77009 0.0
C1583 C 0.45304 0.9733 0.74138 0.0
H1584 H 0.52149 0.10063 0.74032 0.0
C1585 C 0.45148 0.96644 0.75844 0.0
C1586 C 0.47531 0.00772 0.76907 0.0
H1587 H 0.4348 0.94061 0.73354 0.0
H1588 H 0.43208 0.92871 0.76328 0.0
C1589 C 0.49993 0.05607 0.76226 0.0
C1590 C 0.55023 0.02957 0.24921 0.0
C1591 C 0.52607 0.98984 0.23801 0.0
H1592 H 0.56508 0.05207 0.27447 0.0
C1593 C 0.49866 0.94079 0.24418 0.0
H1594 H 0.5717 0.06777 0.24488 0.0
C1595 C 0.49466 0.93175 0.26116 0.0
C1596 C 0.51818 0.97155 0.27237 0.0
H1597 H 0.47958 0.90928 0.2359 0.0
H1598 H 0.47273 0.89361 0.2655 0.0
C1599 C 0.54642 0.02051 0.26619 0.0
C1600 C 0.01955 0.54003 0.26126 0.0
C1601 C 0.97958 0.51488 0.27231 0.0
H1602 H 0.0428 0.55653 0.23613 0.0
C1603 C 0.93075 0.4869 0.26597 0.0
H1604 H 0.05759 0.56198 0.26571 0.0
C1605 C 0.9222 0.48362 0.24895 0.0
C1606 C 0.96229 0.50842 0.23791 0.0
H1607 H 0.89907 0.46705 0.27415 0.0
H1608 H 0.88424 0.46141 0.24446 0.0
C1609 C 0.011 0.53692 0.24427 0.0
C1610 C 0.50299 0.44971 0.24724 0.0
C1611 C 0.48331 0.46909 0.23564 0.0
H1612 H 0.51493 0.44116 0.27274 0.0
C1613 C 0.4588 0.49436 0.24133 0.0
H1614 H 0.52206 0.43005 0.24328 0.0
C1615 C 0.45489 0.50095 0.25821 0.0
C1616 C 0.47523 0.48227 0.2698 0.0
H1617 H 0.44316 0.50978 0.23274 0.0
H1618 H 0.43626 0.52107 0.26214 0.0
C1619 C 0.49892 0.45615 0.26414 0.0
C1620 C 0.98963 0.16902 0.25941 0.0
C1621 C 0.98855 0.12775 0.26717 0.0
H1622 H 0.00835 0.21461 0.23781 0.0
C1623 C 0.00607 0.10011 0.25848 0.0
H1624 H 0.97673 0.19136 0.26576 0.0
C1625 C 0.02414 0.11343 0.24235 0.0
C1626 C 0.02559 0.15501 0.23467 0.0
H1627 H 0.0059 0.06821 0.26412 0.0
H1628 H 0.03718 0.09129 0.23594 0.0
C1629 C 0.00815 0.18262 0.2434 0.0
C1630 C 0.90215 0.89011 0.26162 0.0
C1631 C 0.8686 0.84514 0.26955 0.0
H1632 H 0.9194 0.93481 0.23977 0.0
C1633 C 0.82521 0.81047 0.26112 0.0
H1634 H 0.93587 0.91768 0.26778 0.0
C1635 C 0.81547 0.82056 0.24517 0.0
C1636 C 0.84911 0.86536 0.23718 0.0
H1637 H 0.7984 0.77562 0.26689 0.0
H1638 H 0.78174 0.7929 0.23904 0.0
C1639 C 0.89265 0.89999 0.24557 0.0
C1640 C 0.19571 0.03303 0.25719 0.0
C1641 C 0.15911 0.03786 0.26601 0.0
H1642 H 0.21547 0.01096 0.23475 0.0
C1643 C 0.11339 0.02463 0.25824 0.0
H1644 H 0.23127 0.04267 0.2628 0.0
C1645 C 0.10436 0.00649 0.24204 0.0
C1646 C 0.14067 0.00072 0.23338 0.0
H1647 H 0.08441 0.02789 0.2647 0.0
H1648 H 0.06874 0.99645 0.2364 0.0
C1649 C 0.18651 0.01448 0.24111 0.0
C1650 C 0.97282 0.80916 0.76199 0.0
C1651 C 0.96062 0.84111 0.77061 0.0
H1652 H 0.00256 0.79601 0.74004 0.0
C1653 C 0.96935 0.8858 0.76305 0.0
H1654 H 0.96702 0.77467 0.76748 0.0
C1655 C 0.98966 0.89802 0.74714 0.0
C1656 C 0.00233 0.86615 0.73864 0.0
H1657 H 0.96047 0.91126 0.76941 0.0
H1658 H 0.99568 0.93247 0.74155 0.0
C1659 C 0.9937 0.82167 0.74628 0.0
C1660 C 0.17216 0.17202 0.74749 0.0
C1661 C 0.12888 0.13705 0.73908 0.0
H1662 H 0.21661 0.18942 0.76931 0.0
C1663 C 0.09626 0.09145 0.74686 0.0
H1664 H 0.1983 0.20737 0.74184 0.0
C1665 C 0.10672 0.08121 0.76273 0.0
C1666 C 0.15036 0.11606 0.77103 0.0
H1667 H 0.06267 0.06366 0.74069 0.0
H1668 H 0.08078 0.04589 0.76845 0.0
C1669 C 0.18291 0.16153 0.76321 0.0
C1670 C 0.90154 0.99124 0.76479 0.0
C1671 C 0.86699 7e-05 0.77334 0.0
H1672 H 0.92048 0.96943 0.74202 0.0
C1673 C 0.8232 0.99155 0.76521 0.0
H1674 H 0.93555 0.99723 0.77072 0.0
C1675 C 0.81431 0.97512 0.74888 0.0
C1676 C 0.84921 0.9672 0.74019 0.0
H1677 H 0.7956 0.99757 0.77145 0.0
H1678 H 0.78038 0.9695 0.74298 0.0
C1679 C 0.89285 0.97521 0.74835 0.0
C1680 C 0.67888 0.50971 0.59428 0.0
C1681 C 0.66598 0.46419 0.60207 0.0
H1682 H 0.70782 0.55504 0.57276 0.0
C1683 C 0.67366 0.42881 0.59359 0.0
H1684 H 0.67393 0.538 0.6005 0.0
C1685 C 0.69296 0.43853 0.57751 0.0
C1686 C 0.7057 0.48413 0.56975 0.0
H1687 H 0.66431 0.39346 0.59929 0.0
H1688 H 0.69776 0.41032 0.57117 0.0
C1689 C 0.69879 0.51969 0.57839 0.0
C1690 C 0.4966 0.15899 0.59081 0.0
C1691 C 0.53994 0.19452 0.59906 0.0
H1692 H 0.4524 0.13978 0.56889 0.0
C1693 C 0.57301 0.23917 0.59087 0.0
H1694 H 0.47014 0.12433 0.59676 0.0
C1695 C 0.56288 0.24796 0.57476 0.0
C1696 C 0.51914 0.21257 0.56662 0.0
H1697 H 0.60668 0.26734 0.5969 0.0
H1698 H 0.58911 0.28259 0.56873 0.0
C1699 C 0.48619 0.16803 0.57484 0.0
C1700 C 0.84415 0.34953 0.59356 0.0
C1701 C 0.81259 0.36268 0.60199 0.0
H1702 H 0.85806 0.32075 0.5715 0.0
C1703 C 0.76963 0.35698 0.59395 0.0
H1704 H 0.87735 0.35308 0.59941 0.0
C1705 C 0.75863 0.33854 0.57778 0.0
C1706 C 0.78997 0.32475 0.56948 0.0
H1707 H 0.7445 0.36669 0.60013 0.0
H1708 H 0.72543 0.33474 0.57185 0.0
C1709 C 0.83282 0.33052 0.57757 0.0
C1710 C 0.65524 0.16057 0.0792 0.0
C1711 C 0.66459 0.20558 0.07179 0.0
H1712 H 0.62848 0.11308 0.10032 0.0
C1713 C 0.65252 0.23755 0.0805 0.0
H1714 H 0.66356 0.1348 0.07277 0.0
C1715 C 0.63251 0.22514 0.09645 0.0
C1716 C 0.62345 0.18015 0.10386 0.0
H1717 H 0.65911 0.27242 0.07509 0.0
H1718 H 0.62443 0.25087 0.103 0.0
C1719 C 0.63463 0.14786 0.09497 0.0
C1720 C 0.84908 0.50699 0.09533 0.0
C1721 C 0.815 0.46286 0.10355 0.0
H1722 H 0.86598 0.55144 0.07349 0.0
C1723 C 0.77049 0.4289 0.09547 0.0
H1724 H 0.88357 0.53413 0.10122 0.0
C1725 C 0.76049 0.43875 0.07948 0.0
C1726 C 0.79448 0.48308 0.07132 0.0
H1727 H 0.74341 0.39459 0.10147 0.0
H1728 H 0.72603 0.41169 0.07355 0.0
C1729 C 0.83881 0.5171 0.07945 0.0
C1730 C 0.49448 0.32443 0.09534 0.0
C1731 C 0.53885 0.33172 0.10272 0.0
H1732 H 0.44663 0.2992 0.07426 0.0
C1733 C 0.56942 0.31787 0.09397 0.0
H1734 H 0.4698 0.33423 0.10178 0.0
C1735 C 0.55615 0.29786 0.07805 0.0
C1736 C 0.5117 0.29064 0.0707 0.0
H1737 H 0.60379 0.32295 0.09934 0.0
H1738 H 0.58074 0.28818 0.07149 0.0
C1739 C 0.48092 0.30387 0.07958 0.0
C1740 C 0.3616 0.77137 0.90942 0.0
C1741 C 0.36989 0.81621 0.9021 0.0
H1742 H 0.33548 0.72369 0.93069 0.0
C1743 C 0.35735 0.84753 0.91096 0.0
H1744 H 0.37077 0.7464 0.90288 0.0
C1745 C 0.33647 0.83419 0.92666 0.0
C1746 C 0.32816 0.78948 0.93404 0.0
H1747 H 0.36287 0.88215 0.90566 0.0
H1748 H 0.32728 0.85933 0.93309 0.0
C1749 C 0.34125 0.7583 0.92531 0.0
C1750 C 0.23618 0.56689 0.92583 0.0
C1751 C 0.20416 0.5213 0.93372 0.0
H1752 H 0.25073 0.61198 0.90418 0.0
C1753 C 0.16066 0.48602 0.92547 0.0
H1754 H 0.26992 0.59492 0.93187 0.0
C1755 C 0.14926 0.49611 0.90976 0.0
C1756 C 0.1814 0.54147 0.9018 0.0
H1757 H 0.13496 0.45069 0.93123 0.0
H1758 H 0.11549 0.46797 0.90377 0.0
C1759 C 0.22511 0.57671 0.90998 0.0
C1760 C 0.42719 0.67578 0.91091 0.0
C1761 C 0.45797 0.66207 0.90222 0.0
H1762 H 0.41547 0.70534 0.93335 0.0
C1763 C 0.50233 0.66955 0.90965 0.0
H1764 H 0.39285 0.67067 0.90548 0.0
C1765 C 0.51564 0.69006 0.92541 0.0
C1766 C 0.48462 0.70308 0.93425 0.0
H1767 H 0.52717 0.65988 0.90325 0.0
H1768 H 0.54992 0.69485 0.93077 0.0
C1769 C 0.44021 0.69577 0.92684 0.0
C1770 C 0.31732 0.48768 0.42715 0.0
C1771 C 0.30938 0.52164 0.43637 0.0
H1772 H 0.34077 0.47167 0.40432 0.0
C1773 C 0.31952 0.56706 0.42903 0.0
H1774 H 0.31024 0.4525 0.43243 0.0
C1775 C 0.33699 0.57806 0.41276 0.0
C1776 C 0.3452 0.54409 0.40362 0.0
H1777 H 0.31394 0.59409 0.43583 0.0
H1778 H 0.34423 0.61319 0.40739 0.0
C1779 C 0.33523 0.49887 0.41103 0.0
C1780 C 0.49775 0.83064 0.41143 0.0
C1781 C 0.45376 0.79651 0.40318 0.0
H1782 H 0.54299 0.84697 0.43296 0.0
C1783 C 0.42121 0.7506 0.41081 0.0
H1784 H 0.52394 0.8661 0.40584 0.0
C1785 C 0.43205 0.73967 0.42655 0.0
C1786 C 0.47609 0.77406 0.43478 0.0
H1787 H 0.38714 0.72342 0.40471 0.0
H1788 H 0.40592 0.70445 0.43228 0.0
C1789 C 0.50895 0.81942 0.42695 0.0
C1790 C 0.22814 0.65941 0.42992 0.0
C1791 C 0.19334 0.66698 0.43882 0.0
H1792 H 0.24586 0.63704 0.40703 0.0
C1793 C 0.14796 0.65577 0.43123 0.0
H1794 H 0.26338 0.6675 0.43543 0.0
C1795 C 0.13769 0.63779 0.41509 0.0
C1796 C 0.17273 0.631 0.40606 0.0
H1797 H 0.12015 0.66078 0.43777 0.0
H1798 H 0.10251 0.63004 0.40961 0.0
C1799 C 0.21805 0.64184 0.41366 0.0
loop_
_geom_bond_atom_site_label_1
_geom_bond_atom_site_label_2
_geom_bond_distance
_geom_bond_site_symmetry_2
_ccdc_geom_bond_type
Zn0 O6 1.969 . S
Zn0 O7 1.965 . S
Zn0 O11 2.024 . S
Zn0 O16 1.969 . S
Zn1 O8 1.969 . S
Zn1 O14 1.969 . S
Zn1 O15 1.965 . S
Zn1 O17 2.024 . S
C2 O3 1.229 . S
C2 O11 1.058 1_655 S
O3 C2 1.229 . S
C4 O5 1.229 . S
C4 O17 1.058 . S
O5 C4 1.229 . S
O6 Zn0 1.969 . S
O6 C9 1.267 . S
O7 Zn0 1.965 . S
O7 C18 1.260 . S
O8 Zn1 1.969 . S
O8 C18 1.258 . S
C9 O6 1.267 . S
C9 O10 1.228 . S
O10 C9 1.228 . S
O11 Zn0 2.024 . S
O11 C2 1.058 1_455 S
C12 O13 1.228 . S
C12 O14 1.267 . S
O13 C12 1.228 . S
O14 Zn1 1.969 . S
O14 C12 1.267 . S
O15 Zn1 1.965 . S
O15 C19 1.260 . S
O16 Zn0 1.969 . S
O16 C19 1.258 . S
O17 Zn1 2.024 . S
O17 C4 1.058 . S
C18 O7 1.260 . S
C18 O8 1.258 . S
C19 O15 1.260 . S
C19 O16 1.258 . S
Zn20 O26 1.969 . S
Zn20 O27 1.965 . S
Zn20 O31 2.024 . S
Zn20 O36 1.969 . S
Zn21 O28 1.969 . S
Zn21 O34 1.969 . S
Zn21 O35 1.965 . S
Zn21 O37 2.024 . S
C22 O23 1.229 . S
C22 O31 1.058 . S
O23 C22 1.229 . S
C24 O25 1.229 . S
C24 O37 1.058 . S
O25 C24 1.229 . S
O26 Zn20 1.969 . S
O26 C29 1.267 . S
O27 Zn20 1.965 . S
O27 C38 1.260 . S
O28 Zn21 1.969 . S
O28 C38 1.258 . S
C29 O26 1.267 . S
C29 O30 1.228 . S
O30 C29 1.228 . S
O31 Zn20 2.024 . S
O31 C22 1.058 . S
C32 O33 1.228 . S
C32 O34 1.267 . S
O33 C32 1.228 . S
O34 Zn21 1.969 . S
O34 C32 1.267 . S
O35 Zn21 1.965 . S
O35 C39 1.260 . S
O36 Zn20 1.969 . S
O36 C39 1.258 . S
O37 Zn21 2.024 . S
O37 C24 1.058 . S
C38 O27 1.260 . S
C38 O28 1.258 . S
C39 O35 1.260 . S
C39 O36 1.258 . S
Zn40 O46 1.969 . S
Zn40 O47 1.965 . S
Zn40 O51 2.024 . S
Zn40 O56 1.969 . S
Zn41 O48 1.969 . S
Zn41 O54 1.969 . S
Zn41 O55 1.965 . S
Zn41 O57 2.024 . S
C42 O43 1.229 . S
C42 O51 1.058 1_545 S
O43 C42 1.229 . S
C44 O45 1.229 . S
C44 O57 1.058 . S
O45 C44 1.229 . S
O46 Zn40 1.969 . S
O46 C49 1.267 . S
O47 Zn40 1.965 . S
O47 C58 1.260 . S
O48 Zn41 1.969 . S
O48 C58 1.258 . S
C49 O46 1.267 . S
C49 O50 1.228 . S
O50 C49 1.228 . S
O51 Zn40 2.024 . S
O51 C42 1.058 1_565 S
C52 O53 1.228 . S
C52 O54 1.267 . S
O53 C52 1.228 . S
O54 Zn41 1.969 . S
O54 C52 1.267 . S
O55 Zn41 1.965 . S
O55 C59 1.260 . S
O56 Zn40 1.969 . S
O56 C59 1.258 . S
O57 Zn41 2.024 . S
O57 C44 1.058 . S
C58 O47 1.260 . S
C58 O48 1.258 . S
C59 O55 1.260 . S
C59 O56 1.258 . S
Zn60 O66 1.969 . S
Zn60 O67 1.965 . S
Zn60 O71 2.024 . S
Zn60 O76 1.969 . S
Zn61 O68 1.969 . S
Zn61 O74 1.969 . S
Zn61 O75 1.965 . S
Zn61 O77 2.024 . S
C62 O63 1.229 . S
C62 O71 1.058 1_565 S
O63 C62 1.229 . S
C64 O65 1.229 . S
C64 O77 1.058 . S
O65 C64 1.229 . S
O66 Zn60 1.969 . S
O66 C69 1.267 . S
O67 Zn60 1.965 . S
O67 C78 1.260 . S
O68 Zn61 1.969 . S
O68 C78 1.258 . S
C69 O66 1.267 . S
C69 O70 1.228 . S
O70 C69 1.228 . S
O71 Zn60 2.024 . S
O71 C62 1.058 1_545 S
C72 O73 1.228 . S
C72 O74 1.267 . S
O73 C72 1.228 . S
O74 Zn61 1.969 . S
O74 C72 1.267 . S
O75 Zn61 1.965 . S
O75 C79 1.260 . S
O76 Zn60 1.969 . S
O76 C79 1.258 . S
O77 Zn61 2.024 . S
O77 C64 1.058 . S
C78 O67 1.260 . S
C78 O68 1.258 . S
C79 O75 1.260 . S
C79 O76 1.258 . S
Zn80 O86 1.969 . S
Zn80 O87 1.965 . S
Zn80 O91 2.024 . S
Zn80 O96 1.969 . S
Zn81 O88 1.969 . S
Zn81 O94 1.969 . S
Zn81 O95 1.965 . S
Zn81 O97 2.024 . S
C82 O83 1.229 . S
C82 O91 1.058 1_455 S
O83 C82 1.229 . S
C84 O85 1.229 . S
C84 O97 1.058 . S
O85 C84 1.229 . S
O86 Zn80 1.969 . S
O86 C89 1.267 . S
O87 Zn80 1.965 . S
O87 C98 1.260 . S
O88 Zn81 1.969 . S
O88 C98 1.258 . S
C89 O86 1.267 . S
C89 O90 1.228 . S
O90 C89 1.228 . S
O91 Zn80 2.024 . S
O91 C82 1.058 1_655 S
C92 O93 1.228 . S
C92 O94 1.267 . S
O93 C92 1.228 . S
O94 Zn81 1.969 . S
O94 C92 1.267 . S
O95 Zn81 1.965 . S
O95 C99 1.260 . S
O96 Zn80 1.969 . S
O96 C99 1.258 . S
O97 Zn81 2.024 . S
O97 C84 1.058 . S
C98 O87 1.260 . S
C98 O88 1.258 . S
C99 O95 1.260 . S
C99 O96 1.258 . S
Zn100 O106 1.969 . S
Zn100 O107 1.965 . S
Zn100 O111 2.024 . S
Zn100 O116 1.969 . S
Zn101 O108 1.969 . S
Zn101 O114 1.969 . S
Zn101 O115 1.965 . S
Zn101 O117 2.024 . S
C102 O103 1.229 . S
C102 O111 1.058 . S
O103 C102 1.229 . S
C104 O105 1.229 . S
C104 O117 1.058 . S
O105 C104 1.229 . S
O106 Zn100 1.969 . S
O106 C109 1.267 . S
O107 Zn100 1.965 . S
O107 C118 1.260 . S
O108 Zn101 1.969 . S
O108 C118 1.258 . S
C109 O106 1.267 . S
C109 O110 1.228 . S
O110 C109 1.228 . S
O111 Zn100 2.024 . S
O111 C102 1.058 . S
C112 O113 1.228 . S
C112 O114 1.267 . S
O113 C112 1.228 . S
O114 Zn101 1.969 . S
O114 C112 1.267 . S
O115 Zn101 1.965 . S
O115 C119 1.260 . S
O116 Zn100 1.969 . S
O116 C119 1.258 . S
O117 Zn101 2.024 . S
O117 C104 1.058 . S
C118 O107 1.260 . S
C118 O108 1.258 . S
C119 O115 1.260 . S
C119 O116 1.258 . S
Zn120 O126 1.969 . S
Zn120 O127 1.965 . S
Zn120 O131 2.024 . S
Zn120 O136 1.969 . S
Zn121 O128 1.969 . S
Zn121 O134 1.969 . S
Zn121 O135 1.965 . S
Zn121 O137 2.024 . S
C122 O123 1.229 . S
C122 O131 1.058 . S
O123 C122 1.229 . S
C124 O125 1.229 . S
C124 O137 1.058 1_455 S
O125 C124 1.229 . S
O126 Zn120 1.969 . S
O126 C129 1.267 . S
O127 Zn120 1.965 . S
O127 C138 1.260 . S
O128 Zn121 1.969 . S
O128 C138 1.258 . S
C129 O126 1.267 . S
C129 O130 1.228 . S
O130 C129 1.228 . S
O131 Zn120 2.024 . S
O131 C122 1.058 . S
C132 O133 1.228 . S
C132 O134 1.267 . S
O133 C132 1.228 . S
O134 Zn121 1.969 . S
O134 C132 1.267 . S
O135 Zn121 1.965 . S
O135 C139 1.260 . S
O136 Zn120 1.969 . S
O136 C139 1.258 . S
O137 Zn121 2.024 . S
O137 C124 1.058 1_655 S
C138 O127 1.260 . S
C138 O128 1.258 . S
C139 O135 1.260 . S
C139 O136 1.258 . S
Zn140 O146 1.969 . S
Zn140 O147 1.965 . S
Zn140 O151 2.024 . S
Zn140 O156 1.969 . S
Zn141 O148 1.969 . S
Zn141 O154 1.969 . S
Zn141 O155 1.965 . S
Zn141 O157 2.024 . S
C142 O143 1.229 . S
C142 O151 1.058 . S
O143 C142 1.229 . S
C144 O145 1.229 . S
C144 O157 1.058 . S
O145 C144 1.229 . S
O146 Zn140 1.969 . S
O146 C149 1.267 . S
O147 Zn140 1.965 . S
O147 C158 1.260 . S
O148 Zn141 1.969 . S
O148 C158 1.258 . S
C149 O146 1.267 . S
C149 O150 1.228 . S
O150 C149 1.228 . S
O151 Zn140 2.024 . S
O151 C142 1.058 . S
C152 O153 1.228 . S
C152 O154 1.267 . S
O153 C152 1.228 . S
O154 Zn141 1.969 . S
O154 C152 1.267 . S
O155 Zn141 1.965 . S
O155 C159 1.260 . S
O156 Zn140 1.969 . S
O156 C159 1.258 . S
O157 Zn141 2.024 . S
O157 C144 1.058 . S
C158 O147 1.260 . S
C158 O148 1.258 . S
C159 O155 1.260 . S
C159 O156 1.258 . S
Zn160 O166 1.969 . S
Zn160 O167 1.965 . S
Zn160 O171 2.024 . S
Zn160 O176 1.969 . S
Zn161 O168 1.969 . S
Zn161 O174 1.969 . S
Zn161 O175 1.965 . S
Zn161 O177 2.024 . S
C162 O163 1.229 . S
C162 O171 1.058 . S
O163 C162 1.229 . S
C164 O165 1.229 . S
C164 O177 1.058 1_565 S
O165 C164 1.229 . S
O166 Zn160 1.969 . S
O166 C169 1.267 . S
O167 Zn160 1.965 . S
O167 C178 1.260 . S
O168 Zn161 1.969 . S
O168 C178 1.258 . S
C169 O166 1.267 . S
C169 O170 1.228 . S
O170 C169 1.228 . S
O171 Zn160 2.024 . S
O171 C162 1.058 . S
C172 O173 1.228 . S
C172 O174 1.267 . S
O173 C172 1.228 . S
O174 Zn161 1.969 . S
O174 C172 1.267 . S
O175 Zn161 1.965 . S
O175 C179 1.260 . S
O176 Zn160 1.969 . S
O176 C179 1.258 . S
O177 Zn161 2.024 . S
O177 C164 1.058 1_545 S
C178 O167 1.260 . S
C178 O168 1.258 . S
C179 O175 1.260 . S
C179 O176 1.258 . S
Zn180 O186 1.969 . S
Zn180 O187 1.965 . S
Zn180 O191 2.024 . S
Zn180 O196 1.969 . S
Zn181 O188 1.969 . S
Zn181 O194 1.969 . S
Zn181 O195 1.965 . S
Zn181 O197 2.024 . S
C182 O183 1.229 . S
C182 O191 1.058 . S
O183 C182 1.229 . S
C184 O185 1.229 . S
C184 O197 1.058 1_545 S
O185 C184 1.229 . S
O186 Zn180 1.969 . S
O186 C189 1.267 . S
O187 Zn180 1.965 . S
O187 C198 1.260 . S
O188 Zn181 1.969 . S
O188 C198 1.258 . S
C189 O186 1.267 . S
C189 O190 1.228 . S
O190 C189 1.228 . S
O191 Zn180 2.024 . S
O191 C182 1.058 . S
C192 O193 1.228 . S
C192 O194 1.267 . S
O193 C192 1.228 . S
O194 Zn181 1.969 . S
O194 C192 1.267 . S
O195 Zn181 1.965 . S
O195 C199 1.260 . S
O196 Zn180 1.969 . S
O196 C199 1.258 . S
O197 Zn181 2.024 . S
O197 C184 1.058 1_565 S
C198 O187 1.260 . S
C198 O188 1.258 . S
C199 O195 1.260 . S
C199 O196 1.258 . S
Zn200 O206 1.969 . S
Zn200 O207 1.965 . S
Zn200 O211 2.024 . S
Zn200 O216 1.969 . S
Zn201 O208 1.969 . S
Zn201 O214 1.969 . S
Zn201 O215 1.965 . S
Zn201 O217 2.024 . S
C202 O203 1.229 . S
C202 O211 1.058 . S
O203 C202 1.229 . S
C204 O205 1.229 . S
C204 O217 1.058 1_655 S
O205 C204 1.229 . S
O206 Zn200 1.969 . S
O206 C209 1.267 . S
O207 Zn200 1.965 . S
O207 C218 1.260 . S
O208 Zn201 1.969 . S
O208 C218 1.258 . S
C209 O206 1.267 . S
C209 O210 1.228 . S
O210 C209 1.228 . S
O211 Zn200 2.024 . S
O211 C202 1.058 . S
C212 O213 1.228 . S
C212 O214 1.267 . S
O213 C212 1.228 . S
O214 Zn201 1.969 . S
O214 C212 1.267 . S
O215 Zn201 1.965 . S
O215 C219 1.260 . S
O216 Zn200 1.969 . S
O216 C219 1.258 . S
O217 Zn201 2.024 . S
O217 C204 1.058 1_455 S
C218 O207 1.260 . S
C218 O208 1.258 . S
C219 O215 1.260 . S
C219 O216 1.258 . S
Zn220 O226 1.969 . S
Zn220 O227 1.965 . S
Zn220 O231 2.024 . S
Zn220 O236 1.969 . S
Zn221 O228 1.969 . S
Zn221 O234 1.969 . S
Zn221 O235 1.965 . S
Zn221 O237 2.024 . S
C222 O223 1.229 . S
C222 O231 1.058 . S
O223 C222 1.229 . S
C224 O225 1.229 . S
C224 O237 1.058 . S
O225 C224 1.229 . S
O226 Zn220 1.969 . S
O226 C229 1.267 . S
O227 Zn220 1.965 . S
O227 C238 1.260 . S
O228 Zn221 1.969 . S
O228 C238 1.258 . S
C229 O226 1.267 . S
C229 O230 1.228 . S
O230 C229 1.228 . S
O231 Zn220 2.024 . S
O231 C222 1.058 . S
C232 O233 1.228 . S
C232 O234 1.267 . S
O233 C232 1.228 . S
O234 Zn221 1.969 . S
O234 C232 1.267 . S
O235 Zn221 1.965 . S
O235 C239 1.260 . S
O236 Zn220 1.969 . S
O236 C239 1.258 . S
O237 Zn221 2.024 . S
O237 C224 1.058 . S
C238 O227 1.260 . S
C238 O228 1.258 . S
C239 O235 1.260 . S
C239 O236 1.258 . S
Zn240 O246 1.969 . S
Zn240 O247 1.965 . S
Zn240 O251 2.024 . S
Zn240 O256 1.969 . S
Zn241 O248 1.969 . S
Zn241 O254 1.969 . S
Zn241 O255 1.965 . S
Zn241 O257 2.024 . S
C242 O243 1.229 . S
C242 O251 1.058 . S
O243 C242 1.229 . S
C244 O245 1.229 . S
C244 O257 1.058 . S
O245 C244 1.229 . S
O246 Zn240 1.969 . S
O246 C249 1.267 . S
O247 Zn240 1.965 . S
O247 C258 1.260 . S
O248 Zn241 1.969 . S
O248 C258 1.258 . S
C249 O246 1.267 . S
C249 O250 1.228 . S
O250 C249 1.228 . S
O251 Zn240 2.024 . S
O251 C242 1.058 . S
C252 O253 1.228 . S
C252 O254 1.267 . S
O253 C252 1.228 . S
O254 Zn241 1.969 . S
O254 C252 1.267 . S
O255 Zn241 1.965 . S
O255 C259 1.260 . S
O256 Zn240 1.969 . S
O256 C259 1.258 . S
O257 Zn241 2.024 . S
O257 C244 1.058 . S
C258 O247 1.260 . S
C258 O248 1.258 . S
C259 O255 1.260 . S
C259 O256 1.258 . S
Zn260 O266 1.969 . S
Zn260 O267 1.965 . S
Zn260 O271 2.024 . S
Zn260 O276 1.969 . S
Zn261 O268 1.969 . S
Zn261 O274 1.969 . S
Zn261 O275 1.965 . S
Zn261 O277 2.024 . S
C262 O263 1.229 . S
C262 O271 1.058 . S
O263 C262 1.229 . S
C264 O265 1.229 . S
C264 O277 1.058 . S
O265 C264 1.229 . S
O266 Zn260 1.969 . S
O266 C269 1.267 . S
O267 Zn260 1.965 . S
O267 C278 1.260 . S
O268 Zn261 1.969 . S
O268 C278 1.258 . S
C269 O266 1.267 . S
C269 O270 1.228 . S
O270 C269 1.228 . S
O271 Zn260 2.024 . S
O271 C262 1.058 . S
C272 O273 1.228 . S
C272 O274 1.267 . S
O273 C272 1.228 . S
O274 Zn261 1.969 . S
O274 C272 1.267 . S
O275 Zn261 1.965 . S
O275 C279 1.260 . S
O276 Zn260 1.969 . S
O276 C279 1.258 . S
O277 Zn261 2.024 . S
O277 C264 1.058 . S
C278 O267 1.260 . S
C278 O268 1.258 . S
C279 O275 1.260 . S
C279 O276 1.258 . S
Zn280 O286 1.969 . S
Zn280 O287 1.965 . S
Zn280 O291 2.024 . S
Zn280 O296 1.969 . S
Zn281 O288 1.969 . S
Zn281 O294 1.969 . S
Zn281 O295 1.965 . S
Zn281 O297 2.024 . S
C282 O283 1.229 . S
C282 O291 1.058 . S
O283 C282 1.229 . S
C284 O285 1.229 . S
C284 O297 1.058 . S
O285 C284 1.229 . S
O286 Zn280 1.969 . S
O286 C289 1.267 . S
O287 Zn280 1.965 . S
O287 C298 1.260 . S
O288 Zn281 1.969 . S
O288 C298 1.258 . S
C289 O286 1.267 . S
C289 O290 1.228 . S
O290 C289 1.228 . S
O291 Zn280 2.024 . S
O291 C282 1.058 . S
C292 O293 1.228 . S
C292 O294 1.267 . S
O293 C292 1.228 . S
O294 Zn281 1.969 . S
O294 C292 1.267 . S
O295 Zn281 1.965 . S
O295 C299 1.260 . S
O296 Zn280 1.969 . S
O296 C299 1.258 . S
O297 Zn281 2.024 . S
O297 C284 1.058 . S
C298 O287 1.260 . S
C298 O288 1.258 . S
C299 O295 1.260 . S
C299 O296 1.258 . S
Zn300 O306 1.969 . S
Zn300 O307 1.965 . S
Zn300 O311 2.024 . S
Zn300 O316 1.969 . S
Zn301 O308 1.969 . S
Zn301 O314 1.969 . S
Zn301 O315 1.965 . S
Zn301 O317 2.024 1_655 S
C302 O303 1.229 . S
C302 O311 1.058 . S
O303 C302 1.229 . S
C304 O305 1.229 1_455 S
C304 O317 1.058 . S
O305 C304 1.229 1_655 S
O306 Zn300 1.969 . S
O306 C309 1.267 . S
O307 Zn300 1.965 . S
O307 C318 1.260 . S
O308 Zn301 1.969 . S
O308 C318 1.258 . S
C309 O306 1.267 . S
C309 O310 1.228 . S
O310 C309 1.228 . S
O311 Zn300 2.024 . S
O311 C302 1.058 . S
C312 O313 1.228 1_655 S
C312 O314 1.267 . S
O313 C312 1.228 1_455 S
O314 Zn301 1.969 . S
O314 C312 1.267 . S
O315 Zn301 1.965 . S
O315 C319 1.260 . S
O316 Zn300 1.969 . S
O316 C319 1.258 . S
O317 Zn301 2.024 1_455 S
O317 C304 1.058 . S
C318 O307 1.260 . S
C318 O308 1.258 . S
C319 O315 1.260 . S
C319 O316 1.258 . S
Zn320 O326 1.969 . S
Zn320 O327 1.965 . S
Zn320 O331 2.024 . S
Zn320 O336 1.969 . S
Zn321 O328 1.969 . S
Zn321 O334 1.969 . S
Zn321 O335 1.965 . S
Zn321 O337 2.024 . S
C322 O323 1.229 . S
C322 O331 1.058 . S
O323 C322 1.229 . S
C324 O325 1.229 . S
C324 O337 1.058 . S
O325 C324 1.229 . S
O326 Zn320 1.969 . S
O326 C329 1.267 . S
O327 Zn320 1.965 . S
O327 C338 1.260 . S
O328 Zn321 1.969 . S
O328 C338 1.258 . S
C329 O326 1.267 . S
C329 O330 1.228 . S
O330 C329 1.228 . S
O331 Zn320 2.024 . S
O331 C322 1.058 . S
C332 O333 1.228 . S
C332 O334 1.267 . S
O333 C332 1.228 . S
O334 Zn321 1.969 . S
O334 C332 1.267 . S
O335 Zn321 1.965 . S
O335 C339 1.260 . S
O336 Zn320 1.969 . S
O336 C339 1.258 . S
O337 Zn321 2.024 . S
O337 C324 1.058 . S
C338 O327 1.260 . S
C338 O328 1.258 . S
C339 O335 1.260 . S
C339 O336 1.258 . S
Zn340 O346 1.969 . S
Zn340 O347 1.965 . S
Zn340 O351 2.024 . S
Zn340 O356 1.969 . S
Zn341 O348 1.969 . S
Zn341 O354 1.969 . S
Zn341 O355 1.965 . S
Zn341 O357 2.024 1_545 S
C342 O343 1.229 . S
C342 O351 1.058 . S
O343 C342 1.229 . S
C344 O345 1.229 1_565 S
C344 O357 1.058 . S
O345 C344 1.229 1_545 S
O346 Zn340 1.969 . S
O346 C349 1.267 . S
O347 Zn340 1.965 . S
O347 C358 1.260 . S
O348 Zn341 1.969 . S
O348 C358 1.258 . S
C349 O346 1.267 . S
C349 O350 1.228 . S
O350 C349 1.228 . S
O351 Zn340 2.024 . S
O351 C342 1.058 . S
C352 O353 1.228 1_545 S
C352 O354 1.267 . S
O353 C352 1.228 1_565 S
O354 Zn341 1.969 . S
O354 C352 1.267 . S
O355 Zn341 1.965 . S
O355 C359 1.260 . S
O356 Zn340 1.969 . S
O356 C359 1.258 . S
O357 Zn341 2.024 1_565 S
O357 C344 1.058 . S
C358 O347 1.260 . S
C358 O348 1.258 . S
C359 O355 1.260 . S
C359 O356 1.258 . S
Zn360 O366 1.969 . S
Zn360 O367 1.965 . S
Zn360 O371 2.024 1_545 S
Zn360 O376 1.969 . S
Zn361 O368 1.969 . S
Zn361 O374 1.969 . S
Zn361 O375 1.965 . S
Zn361 O377 2.024 . S
C362 O363 1.229 1_565 S
C362 O371 1.058 . S
O363 C362 1.229 1_545 S
C364 O365 1.229 . S
C364 O377 1.058 . S
O365 C364 1.229 . S
O366 Zn360 1.969 . S
O366 C369 1.267 . S
O367 Zn360 1.965 . S
O367 C378 1.260 . S
O368 Zn361 1.969 . S
O368 C378 1.258 . S
C369 O366 1.267 . S
C369 O370 1.228 1_545 S
O370 C369 1.228 1_565 S
O371 Zn360 2.024 1_565 S
O371 C362 1.058 . S
C372 O373 1.228 . S
C372 O374 1.267 . S
O373 C372 1.228 . S
O374 Zn361 1.969 . S
O374 C372 1.267 . S
O375 Zn361 1.965 . S
O375 C379 1.260 . S
O376 Zn360 1.969 . S
O376 C379 1.258 . S
O377 Zn361 2.024 . S
O377 C364 1.058 . S
C378 O367 1.260 . S
C378 O368 1.258 . S
C379 O375 1.260 . S
C379 O376 1.258 . S
Zn380 O386 1.969 . S
Zn380 O387 1.965 . S
Zn380 O391 2.024 1_655 S
Zn380 O396 1.969 . S
Zn381 O388 1.969 . S
Zn381 O394 1.969 . S
Zn381 O395 1.965 . S
Zn381 O397 2.024 . S
C382 O383 1.229 1_455 S
C382 O391 1.058 . S
O383 C382 1.229 1_655 S
C384 O385 1.229 . S
C384 O397 1.058 . S
O385 C384 1.229 . S
O386 Zn380 1.969 . S
O386 C389 1.267 . S
O387 Zn380 1.965 . S
O387 C398 1.260 . S
O388 Zn381 1.969 . S
O388 C398 1.258 . S
C389 O386 1.267 . S
C389 O390 1.228 1_655 S
O390 C389 1.228 1_455 S
O391 Zn380 2.024 1_455 S
O391 C382 1.058 . S
C392 O393 1.228 . S
C392 O394 1.267 . S
O393 C392 1.228 . S
O394 Zn381 1.969 . S
O394 C392 1.267 . S
O395 Zn381 1.965 . S
O395 C399 1.260 . S
O396 Zn380 1.969 . S
O396 C399 1.258 . S
O397 Zn381 2.024 . S
O397 C384 1.058 . S
C398 O387 1.260 . S
C398 O388 1.258 . S
C399 O395 1.260 . S
C399 O396 1.258 . S
Zn400 O406 1.969 . S
Zn400 O407 1.965 . S
Zn400 O411 2.024 . S
Zn400 O416 1.969 . S
Zn401 O408 1.969 . S
Zn401 O414 1.969 . S
Zn401 O415 1.965 . S
Zn401 O417 2.024 . S
C402 O403 1.229 . S
C402 O411 1.058 . S
O403 C402 1.229 . S
C404 O405 1.229 . S
C404 O417 1.058 . S
O405 C404 1.229 . S
O406 Zn400 1.969 . S
O406 C409 1.267 . S
O407 Zn400 1.965 . S
O407 C418 1.260 . S
O408 Zn401 1.969 . S
O408 C418 1.258 . S
C409 O406 1.267 . S
C409 O410 1.228 . S
O410 C409 1.228 . S
O411 Zn400 2.024 . S
O411 C402 1.058 . S
C412 O413 1.228 . S
C412 O414 1.267 . S
O413 C412 1.228 . S
O414 Zn401 1.969 . S
O414 C412 1.267 . S
O415 Zn401 1.965 . S
O415 C419 1.260 . S
O416 Zn400 1.969 . S
O416 C419 1.258 . S
O417 Zn401 2.024 . S
O417 C404 1.058 . S
C418 O407 1.260 . S
C418 O408 1.258 . S
C419 O415 1.260 . S
C419 O416 1.258 . S
Zn420 O426 1.969 . S
Zn420 O427 1.965 . S
Zn420 O431 2.024 . S
Zn420 O436 1.969 . S
Zn421 O428 1.969 . S
Zn421 O434 1.969 . S
Zn421 O435 1.965 . S
Zn421 O437 2.024 . S
C422 O423 1.229 . S
C422 O431 1.058 . S
O423 C422 1.229 . S
C424 O425 1.229 . S
C424 O437 1.058 . S
O425 C424 1.229 . S
O426 Zn420 1.969 . S
O426 C429 1.267 . S
O427 Zn420 1.965 . S
O427 C438 1.260 . S
O428 Zn421 1.969 . S
O428 C438 1.258 1_554 S
C429 O426 1.267 . S
C429 O430 1.228 . S
O430 C429 1.228 . S
O431 Zn420 2.024 . S
O431 C422 1.058 . S
C432 O433 1.228 . S
C432 O434 1.267 . S
O433 C432 1.228 . S
O434 Zn421 1.969 . S
O434 C432 1.267 . S
O435 Zn421 1.965 . S
O435 C439 1.260 . S
O436 Zn420 1.969 . S
O436 C439 1.258 1_556 S
O437 Zn421 2.024 . S
O437 C424 1.058 . S
C438 O427 1.260 . S
C438 O428 1.258 1_556 S
C439 O435 1.260 . S
C439 O436 1.258 1_554 S
Zn440 O446 1.969 . S
Zn440 O447 1.965 . S
Zn440 O451 2.024 . S
Zn440 O456 1.969 . S
Zn441 O448 1.969 . S
Zn441 O454 1.969 . S
Zn441 O455 1.965 . S
Zn441 O457 2.024 . S
C442 O443 1.229 . S
C442 O451 1.058 . S
O443 C442 1.229 . S
C444 O445 1.229 . S
C444 O457 1.058 . S
O445 C444 1.229 . S
O446 Zn440 1.969 . S
O446 C449 1.267 . S
O447 Zn440 1.965 . S
O447 C458 1.260 . S
O448 Zn441 1.969 . S
O448 C458 1.258 1_554 S
C449 O446 1.267 . S
C449 O450 1.228 . S
O450 C449 1.228 . S
O451 Zn440 2.024 . S
O451 C442 1.058 . S
C452 O453 1.228 . S
C452 O454 1.267 . S
O453 C452 1.228 . S
O454 Zn441 1.969 . S
O454 C452 1.267 . S
O455 Zn441 1.965 . S
O455 C459 1.260 . S
O456 Zn440 1.969 . S
O456 C459 1.258 1_556 S
O457 Zn441 2.024 . S
O457 C444 1.058 . S
C458 O447 1.260 . S
C458 O448 1.258 1_556 S
C459 O455 1.260 . S
C459 O456 1.258 1_554 S
Zn460 O466 1.969 . S
Zn460 O467 1.965 . S
Zn460 O471 2.024 . S
Zn460 O476 1.969 . S
Zn461 O468 1.969 . S
Zn461 O474 1.969 . S
Zn461 O475 1.965 . S
Zn461 O477 2.024 . S
C462 O463 1.229 . S
C462 O471 1.058 . S
O463 C462 1.229 . S
C464 O465 1.229 . S
C464 O477 1.058 . S
O465 C464 1.229 . S
O466 Zn460 1.969 . S
O466 C469 1.267 . S
O467 Zn460 1.965 . S
O467 C478 1.260 . S
O468 Zn461 1.969 . S
O468 C478 1.258 1_554 S
C469 O466 1.267 . S
C469 O470 1.228 . S
O470 C469 1.228 . S
O471 Zn460 2.024 . S
O471 C462 1.058 . S
C472 O473 1.228 . S
C472 O474 1.267 . S
O473 C472 1.228 . S
O474 Zn461 1.969 . S
O474 C472 1.267 . S
O475 Zn461 1.965 . S
O475 C479 1.260 . S
O476 Zn460 1.969 . S
O476 C479 1.258 1_556 S
O477 Zn461 2.024 . S
O477 C464 1.058 . S
C478 O467 1.260 . S
C478 O468 1.258 1_556 S
C479 O475 1.260 . S
C479 O476 1.258 1_554 S
Zn480 O486 1.969 . S
Zn480 O487 1.965 . S
Zn480 O491 2.024 . S
Zn480 O496 1.969 . S
Zn481 O488 1.969 . S
Zn481 O494 1.969 . S
Zn481 O495 1.965 . S
Zn481 O497 2.024 1_565 S
C482 O483 1.229 . S
C482 O491 1.058 . S
O483 C482 1.229 . S
C484 O485 1.229 1_545 S
C484 O497 1.058 . S
O485 C484 1.229 1_565 S
O486 Zn480 1.969 . S
O486 C489 1.267 . S
O487 Zn480 1.965 . S
O487 C498 1.260 . S
O488 Zn481 1.969 . S
O488 C498 1.258 . S
C489 O486 1.267 . S
C489 O490 1.228 . S
O490 C489 1.228 . S
O491 Zn480 2.024 . S
O491 C482 1.058 . S
C492 O493 1.228 1_565 S
C492 O494 1.267 . S
O493 C492 1.228 1_545 S
O494 Zn481 1.969 . S
O494 C492 1.267 . S
O495 Zn481 1.965 . S
O495 C499 1.260 . S
O496 Zn480 1.969 . S
O496 C499 1.258 . S
O497 Zn481 2.024 1_545 S
O497 C484 1.058 . S
C498 O487 1.260 . S
C498 O488 1.258 . S
C499 O495 1.260 . S
C499 O496 1.258 . S
Zn500 O506 1.969 . S
Zn500 O507 1.965 . S
Zn500 O511 2.024 . S
Zn500 O516 1.969 . S
Zn501 O508 1.969 . S
Zn501 O514 1.969 . S
Zn501 O515 1.965 . S
Zn501 O517 2.024 1_455 S
C502 O503 1.229 . S
C502 O511 1.058 . S
O503 C502 1.229 . S
C504 O505 1.229 1_655 S
C504 O517 1.058 . S
O505 C504 1.229 1_455 S
O506 Zn500 1.969 . S
O506 C509 1.267 . S
O507 Zn500 1.965 . S
O507 C518 1.260 . S
O508 Zn501 1.969 . S
O508 C518 1.258 . S
C509 O506 1.267 . S
C509 O510 1.228 . S
O510 C509 1.228 . S
O511 Zn500 2.024 . S
O511 C502 1.058 . S
C512 O513 1.228 1_455 S
C512 O514 1.267 . S
O513 C512 1.228 1_655 S
O514 Zn501 1.969 . S
O514 C512 1.267 . S
O515 Zn501 1.965 . S
O515 C519 1.260 . S
O516 Zn500 1.969 . S
O516 C519 1.258 . S
O517 Zn501 2.024 1_655 S
O517 C504 1.058 . S
C518 O507 1.260 . S
C518 O508 1.258 . S
C519 O515 1.260 . S
C519 O516 1.258 . S
Zn520 O526 1.969 . S
Zn520 O527 1.965 . S
Zn520 O531 2.024 . S
Zn520 O536 1.969 . S
Zn521 O528 1.969 . S
Zn521 O534 1.969 . S
Zn521 O535 1.965 . S
Zn521 O537 2.024 . S
C522 O523 1.229 . S
C522 O531 1.058 . S
O523 C522 1.229 . S
C524 O525 1.229 . S
C524 O537 1.058 . S
O525 C524 1.229 . S
O526 Zn520 1.969 . S
O526 C529 1.267 . S
O527 Zn520 1.965 . S
O527 C538 1.260 . S
O528 Zn521 1.969 . S
O528 C538 1.258 . S
C529 O526 1.267 . S
C529 O530 1.228 . S
O530 C529 1.228 . S
O531 Zn520 2.024 . S
O531 C522 1.058 . S
C532 O533 1.228 . S
C532 O534 1.267 . S
O533 C532 1.228 . S
O534 Zn521 1.969 . S
O534 C532 1.267 . S
O535 Zn521 1.965 . S
O535 C539 1.260 . S
O536 Zn520 1.969 . S
O536 C539 1.258 . S
O537 Zn521 2.024 . S
O537 C524 1.058 . S
C538 O527 1.260 . S
C538 O528 1.258 . S
C539 O535 1.260 . S
C539 O536 1.258 . S
Zn540 O546 1.969 . S
Zn540 O547 1.965 . S
Zn540 O551 2.024 . S
Zn540 O556 1.969 . S
Zn541 O548 1.969 . S
Zn541 O554 1.969 . S
Zn541 O555 1.965 . S
Zn541 O557 2.024 . S
C542 O543 1.229 . S
C542 O551 1.058 . S
O543 C542 1.229 . S
C544 O545 1.229 . S
C544 O557 1.058 . S
O545 C544 1.229 . S
O546 Zn540 1.969 . S
O546 C549 1.267 . S
O547 Zn540 1.965 . S
O547 C558 1.260 . S
O548 Zn541 1.969 . S
O548 C558 1.258 1_554 S
C549 O546 1.267 . S
C549 O550 1.228 . S
O550 C549 1.228 . S
O551 Zn540 2.024 . S
O551 C542 1.058 . S
C552 O553 1.228 . S
C552 O554 1.267 . S
O553 C552 1.228 . S
O554 Zn541 1.969 . S
O554 C552 1.267 . S
O555 Zn541 1.965 . S
O555 C559 1.260 . S
O556 Zn540 1.969 . S
O556 C559 1.258 1_556 S
O557 Zn541 2.024 . S
O557 C544 1.058 . S
C558 O547 1.260 . S
C558 O548 1.258 1_556 S
C559 O555 1.260 . S
C559 O556 1.258 1_554 S
Zn560 O566 1.969 . S
Zn560 O567 1.965 . S
Zn560 O571 2.024 . S
Zn560 O576 1.969 . S
Zn561 O568 1.969 . S
Zn561 O574 1.969 . S
Zn561 O575 1.965 . S
Zn561 O577 2.024 . S
C562 O563 1.229 . S
C562 O571 1.058 . S
O563 C562 1.229 . S
C564 O565 1.229 . S
C564 O577 1.058 . S
O565 C564 1.229 . S
O566 Zn560 1.969 . S
O566 C569 1.267 . S
O567 Zn560 1.965 . S
O567 C578 1.260 . S
O568 Zn561 1.969 . S
O568 C578 1.258 1_554 S
C569 O566 1.267 . S
C569 O570 1.228 . S
O570 C569 1.228 . S
O571 Zn560 2.024 . S
O571 C562 1.058 . S
C572 O573 1.228 . S
C572 O574 1.267 . S
O573 C572 1.228 . S
O574 Zn561 1.969 . S
O574 C572 1.267 . S
O575 Zn561 1.965 . S
O575 C579 1.260 . S
O576 Zn560 1.969 . S
O576 C579 1.258 1_556 S
O577 Zn561 2.024 . S
O577 C564 1.058 . S
C578 O567 1.260 . S
C578 O568 1.258 1_556 S
C579 O575 1.260 . S
C579 O576 1.258 1_554 S
Zn580 O586 1.969 . S
Zn580 O587 1.965 . S
Zn580 O591 2.024 . S
Zn580 O596 1.969 . S
Zn581 O588 1.969 . S
Zn581 O594 1.969 . S
Zn581 O595 1.965 . S
Zn581 O597 2.024 . S
C582 O583 1.229 . S
C582 O591 1.058 . S
O583 C582 1.229 . S
C584 O585 1.229 . S
C584 O597 1.058 . S
O585 C584 1.229 . S
O586 Zn580 1.969 . S
O586 C589 1.267 . S
O587 Zn580 1.965 . S
O587 C598 1.260 . S
O588 Zn581 1.969 . S
O588 C598 1.258 1_554 S
C589 O586 1.267 . S
C589 O590 1.228 . S
O590 C589 1.228 . S
O591 Zn580 2.024 . S
O591 C582 1.058 . S
C592 O593 1.228 . S
C592 O594 1.267 . S
O593 C592 1.228 . S
O594 Zn581 1.969 . S
O594 C592 1.267 . S
O595 Zn581 1.965 . S
O595 C599 1.260 . S
O596 Zn580 1.969 . S
O596 C599 1.258 1_556 S
O597 Zn581 2.024 . S
O597 C584 1.058 . S
C598 O587 1.260 . S
C598 O588 1.258 1_556 S
C599 O595 1.260 . S
C599 O596 1.258 1_554 S
Zn600 O606 1.969 . S
Zn600 O607 1.965 . S
Zn600 O611 2.024 . S
Zn600 O616 1.969 . S
Zn601 O608 1.969 . S
Zn601 O614 1.969 . S
Zn601 O615 1.965 . S
Zn601 O617 2.024 . S
C602 O603 1.229 . S
C602 O611 1.058 . S
O603 C602 1.229 . S
C604 O605 1.229 . S
C604 O617 1.058 . S
O605 C604 1.229 . S
O606 Zn600 1.969 . S
O606 C609 1.267 . S
O607 Zn600 1.965 . S
O607 C618 1.260 . S
O608 Zn601 1.969 . S
O608 C618 1.258 . S
C609 O606 1.267 . S
C609 O610 1.228 . S
O610 C609 1.228 . S
O611 Zn600 2.024 . S
O611 C602 1.058 . S
C612 O613 1.228 . S
C612 O614 1.267 . S
O613 C612 1.228 . S
O614 Zn601 1.969 . S
O614 C612 1.267 . S
O615 Zn601 1.965 . S
O615 C619 1.260 . S
O616 Zn600 1.969 . S
O616 C619 1.258 . S
O617 Zn601 2.024 . S
O617 C604 1.058 . S
C618 O607 1.260 . S
C618 O608 1.258 . S
C619 O615 1.260 . S
C619 O616 1.258 . S
Zn620 O626 1.969 . S
Zn620 O627 1.965 . S
Zn620 O631 2.024 . S
Zn620 O636 1.969 . S
Zn621 O628 1.969 . S
Zn621 O634 1.969 . S
Zn621 O635 1.965 . S
Zn621 O637 2.024 . S
C622 O623 1.229 . S
C622 O631 1.058 . S
O623 C622 1.229 . S
C624 O625 1.229 . S
C624 O637 1.058 . S
O625 C624 1.229 . S
O626 Zn620 1.969 . S
O626 C629 1.267 . S
O627 Zn620 1.965 . S
O627 C638 1.260 . S
O628 Zn621 1.969 . S
O628 C638 1.258 . S
C629 O626 1.267 . S
C629 O630 1.228 . S
O630 C629 1.228 . S
O631 Zn620 2.024 . S
O631 C622 1.058 . S
C632 O633 1.228 . S
C632 O634 1.267 . S
O633 C632 1.228 . S
O634 Zn621 1.969 . S
O634 C632 1.267 . S
O635 Zn621 1.965 . S
O635 C639 1.260 . S
O636 Zn620 1.969 . S
O636 C639 1.258 . S
O637 Zn621 2.024 . S
O637 C624 1.058 . S
C638 O627 1.260 . S
C638 O628 1.258 . S
C639 O635 1.260 . S
C639 O636 1.258 . S
Zn640 O646 1.969 . S
Zn640 O647 1.965 . S
Zn640 O651 2.024 . S
Zn640 O656 1.969 . S
Zn641 O648 1.969 . S
Zn641 O654 1.969 . S
Zn641 O655 1.965 . S
Zn641 O657 2.024 . S
C642 O643 1.229 . S
C642 O651 1.058 . S
O643 C642 1.229 . S
C644 O645 1.229 . S
C644 O657 1.058 . S
O645 C644 1.229 . S
O646 Zn640 1.969 . S
O646 C649 1.267 . S
O647 Zn640 1.965 . S
O647 C658 1.260 . S
O648 Zn641 1.969 . S
O648 C658 1.258 . S
C649 O646 1.267 . S
C649 O650 1.228 . S
O650 C649 1.228 . S
O651 Zn640 2.024 . S
O651 C642 1.058 . S
C652 O653 1.228 . S
C652 O654 1.267 . S
O653 C652 1.228 . S
O654 Zn641 1.969 . S
O654 C652 1.267 . S
O655 Zn641 1.965 . S
O655 C659 1.260 . S
O656 Zn640 1.969 . S
O656 C659 1.258 . S
O657 Zn641 2.024 . S
O657 C644 1.058 . S
C658 O647 1.260 . S
C658 O648 1.258 . S
C659 O655 1.260 . S
C659 O656 1.258 . S
Zn660 O666 1.969 . S
Zn660 O667 1.965 . S
Zn660 O671 2.024 1_455 S
Zn660 O676 1.969 . S
Zn661 O668 1.969 . S
Zn661 O674 1.969 . S
Zn661 O675 1.965 . S
Zn661 O677 2.024 . S
C662 O663 1.229 1_655 S
C662 O671 1.058 . S
O663 C662 1.229 1_455 S
C664 O665 1.229 . S
C664 O677 1.058 . S
O665 C664 1.229 . S
O666 Zn660 1.969 . S
O666 C669 1.267 . S
O667 Zn660 1.965 . S
O667 C678 1.260 . S
O668 Zn661 1.969 . S
O668 C678 1.258 . S
C669 O666 1.267 . S
C669 O670 1.228 1_455 S
O670 C669 1.228 1_655 S
O671 Zn660 2.024 1_655 S
O671 C662 1.058 . S
C672 O673 1.228 . S
C672 O674 1.267 . S
O673 C672 1.228 . S
O674 Zn661 1.969 . S
O674 C672 1.267 . S
O675 Zn661 1.965 . S
O675 C679 1.260 . S
O676 Zn660 1.969 . S
O676 C679 1.258 . S
O677 Zn661 2.024 . S
O677 C664 1.058 . S
C678 O667 1.260 . S
C678 O668 1.258 . S
C679 O675 1.260 . S
C679 O676 1.258 . S
Zn680 O686 1.969 . S
Zn680 O687 1.965 . S
Zn680 O691 2.024 . S
Zn680 O696 1.969 . S
Zn681 O688 1.969 . S
Zn681 O694 1.969 . S
Zn681 O695 1.965 . S
Zn681 O697 2.024 . S
C682 O683 1.229 . S
C682 O691 1.058 . S
O683 C682 1.229 . S
C684 O685 1.229 . S
C684 O697 1.058 . S
O685 C684 1.229 . S
O686 Zn680 1.969 . S
O686 C689 1.267 . S
O687 Zn680 1.965 . S
O687 C698 1.260 . S
O688 Zn681 1.969 . S
O688 C698 1.258 . S
C689 O686 1.267 . S
C689 O690 1.228 . S
O690 C689 1.228 . S
O691 Zn680 2.024 . S
O691 C682 1.058 . S
C692 O693 1.228 . S
C692 O694 1.267 . S
O693 C692 1.228 . S
O694 Zn681 1.969 . S
O694 C692 1.267 . S
O695 Zn681 1.965 . S
O695 C699 1.260 . S
O696 Zn680 1.969 . S
O696 C699 1.258 . S
O697 Zn681 2.024 . S
O697 C684 1.058 . S
C698 O687 1.260 . S
C698 O688 1.258 . S
C699 O695 1.260 . S
C699 O696 1.258 . S
Zn700 O706 1.969 . S
Zn700 O707 1.965 . S
Zn700 O711 2.024 1_565 S
Zn700 O716 1.969 . S
Zn701 O708 1.969 . S
Zn701 O714 1.969 . S
Zn701 O715 1.965 . S
Zn701 O717 2.024 . S
C702 O703 1.229 1_545 S
C702 O711 1.058 . S
O703 C702 1.229 1_565 S
C704 O705 1.229 . S
C704 O717 1.058 . S
O705 C704 1.229 . S
O706 Zn700 1.969 . S
O706 C709 1.267 . S
O707 Zn700 1.965 . S
O707 C718 1.260 . S
O708 Zn701 1.969 . S
O708 C718 1.258 . S
C709 O706 1.267 . S
C709 O710 1.228 1_565 S
O710 C709 1.228 1_545 S
O711 Zn700 2.024 1_545 S
O711 C702 1.058 . S
C712 O713 1.228 . S
C712 O714 1.267 . S
O713 C712 1.228 . S
O714 Zn701 1.969 . S
O714 C712 1.267 . S
O715 Zn701 1.965 . S
O715 C719 1.260 . S
O716 Zn700 1.969 . S
O716 C719 1.258 . S
O717 Zn701 2.024 . S
O717 C704 1.058 . S
C718 O707 1.260 . S
C718 O708 1.258 . S
C719 O715 1.260 . S
C719 O716 1.258 . S
C720 C721 1.387 . S
C720 H724 0.950 . S
C720 C729 1.390 . S
C721 C720 1.387 . S
C721 C723 1.387 . S
H722 C729 0.950 . S
C723 C721 1.387 . S
C723 C725 1.390 . S
C723 H727 0.950 . S
H724 C720 0.950 . S
C725 C723 1.390 . S
C725 C726 1.387 . S
C725 H728 0.950 . S
C726 C725 1.387 . S
C726 C729 1.387 . S
H727 C723 0.950 . S
H728 C725 0.950 . S
C729 C720 1.390 . S
C729 H722 0.950 . S
C729 C726 1.387 . S
C730 C731 1.387 . S
C730 H734 0.950 . S
C730 C739 1.390 . S
C731 C730 1.387 . S
C731 C733 1.387 . S
H732 C739 0.950 . S
C733 C731 1.387 . S
C733 C735 1.390 . S
C733 H737 0.950 . S
H734 C730 0.950 . S
C735 C733 1.390 . S
C735 C736 1.392 . S
C735 H738 0.950 . S
C736 C735 1.392 . S
C736 C739 1.390 . S
H737 C733 0.950 . S
H738 C735 0.950 . S
C739 C730 1.390 . S
C739 H732 0.950 . S
C739 C736 1.390 . S
C740 C741 1.396 . S
C740 H744 0.950 . S
C740 C749 1.390 . S
C741 C740 1.396 . S
C741 C743 1.397 . S
H742 C749 0.950 . S
C743 C741 1.397 . S
C743 C745 1.390 . S
C743 H747 0.950 . S
H744 C740 0.950 . S
C745 C743 1.390 . S
C745 C746 1.387 . S
C745 H748 0.950 . S
C746 C745 1.387 . S
C746 C749 1.387 . S
H747 C743 0.950 . S
H748 C745 0.950 . S
C749 C740 1.390 . S
C749 H742 0.950 . S
C749 C746 1.387 . S
C750 C751 1.387 . S
C750 H754 0.950 . S
C750 C759 1.390 . S
C751 C750 1.387 . S
C751 C753 1.387 . S
H752 C759 0.950 . S
C753 C751 1.387 . S
C753 C755 1.390 . S
C753 H757 0.950 . S
H754 C750 0.950 . S
C755 C753 1.390 . S
C755 C756 1.387 . S
C755 H758 0.950 . S
C756 C755 1.387 . S
C756 C759 1.387 . S
H757 C753 0.950 . S
H758 C755 0.950 . S
C759 C750 1.390 . S
C759 H752 0.950 . S
C759 C756 1.387 . S
C760 C761 1.387 . S
C760 H764 0.950 . S
C760 C769 1.390 . S
C761 C760 1.387 . S
C761 C763 1.387 . S
H762 C769 0.950 . S
C763 C761 1.387 . S
C763 C765 1.390 . S
C763 H767 0.950 . S
H764 C760 0.950 . S
C765 C763 1.390 . S
C765 C766 1.399 . S
C765 H768 0.950 . S
C766 C765 1.399 . S
C766 C769 1.400 . S
H767 C763 0.950 . S
H768 C765 0.950 . S
C769 C760 1.390 . S
C769 H762 0.950 . S
C769 C766 1.400 . S
C770 C771 1.395 . S
C770 H774 0.950 . S
C770 C779 1.390 . S
C771 C770 1.395 . S
C771 C773 1.395 . S
H772 C779 0.950 . S
C773 C771 1.395 . S
C773 C775 1.390 . S
C773 H777 0.950 . S
H774 C770 0.950 . S
C775 C773 1.390 . S
C775 C776 1.387 . S
C775 H778 0.950 . S
C776 C775 1.387 . S
C776 C779 1.387 . S
H777 C773 0.950 . S
H778 C775 0.950 . S
C779 C770 1.390 . S
C779 H772 0.950 . S
C779 C776 1.387 . S
C780 C781 1.387 . S
C780 H784 0.950 . S
C780 C789 1.390 . S
C781 C780 1.387 . S
C781 C783 1.387 . S
H782 C789 0.950 . S
C783 C781 1.387 . S
C783 C785 1.390 . S
C783 H787 0.950 . S
H784 C780 0.950 . S
C785 C783 1.390 . S
C785 C786 1.387 . S
C785 H788 0.950 . S
C786 C785 1.387 . S
C786 C789 1.387 . S
H787 C783 0.950 . S
H788 C785 0.950 . S
C789 C780 1.390 . S
C789 H782 0.950 . S
C789 C786 1.387 . S
C790 C791 1.393 . S
C790 H794 0.950 . S
C790 C799 1.390 . S
C791 C790 1.393 . S
C791 C793 1.392 . S
H792 C799 0.950 . S
C793 C791 1.392 . S
C793 C795 1.390 . S
C793 H797 0.950 . S
H794 C790 0.950 . S
C795 C793 1.390 . S
C795 C796 1.387 . S
C795 H798 0.950 . S
C796 C795 1.387 . S
C796 C799 1.387 . S
H797 C793 0.950 . S
H798 C795 0.950 . S
C799 C790 1.390 . S
C799 H792 0.950 . S
C799 C796 1.387 . S
C800 C801 1.397 . S
C800 H804 0.950 . S
C800 C809 1.390 . S
C801 C800 1.397 . S
C801 C803 1.396 . S
H802 C809 0.950 . S
C803 C801 1.396 . S
C803 C805 1.390 . S
C803 H807 0.950 . S
H804 C800 0.950 . S
C805 C803 1.390 . S
C805 C806 1.387 . S
C805 H808 0.950 . S
C806 C805 1.387 . S
C806 C809 1.387 . S
H807 C803 0.950 . S
H808 C805 0.950 . S
C809 C800 1.390 . S
C809 H802 0.950 . S
C809 C806 1.387 . S
C810 C811 1.387 . S
C810 H814 0.950 . S
C810 C819 1.390 . S
C811 C810 1.387 . S
C811 C813 1.387 . S
H812 C819 0.950 . S
C813 C811 1.387 . S
C813 C815 1.390 . S
C813 H817 0.950 . S
H814 C810 0.950 . S
C815 C813 1.390 . S
C815 C816 1.387 . S
C815 H818 0.950 . S
C816 C815 1.387 . S
C816 C819 1.387 . S
H817 C813 0.950 . S
H818 C815 0.950 . S
C819 C810 1.390 . S
C819 H812 0.950 . S
C819 C816 1.387 . S
C820 C821 1.387 . S
C820 H824 0.950 . S
C820 C829 1.390 . S
C821 C820 1.387 . S
C821 C823 1.387 . S
H822 C829 0.950 . S
C823 C821 1.387 . S
C823 C825 1.390 . S
C823 H827 0.950 . S
H824 C820 0.950 . S
C825 C823 1.390 . S
C825 C826 1.387 . S
C825 H828 0.950 . S
C826 C825 1.387 . S
C826 C829 1.387 . S
H827 C823 0.950 . S
H828 C825 0.950 . S
C829 C820 1.390 . S
C829 H822 0.950 . S
C829 C826 1.387 . S
C830 C831 1.387 . S
C830 H834 0.950 . S
C830 C839 1.390 . S
C831 C830 1.387 . S
C831 C833 1.387 . S
H832 C839 0.950 . S
C833 C831 1.387 . S
C833 C835 1.390 . S
C833 H837 0.950 . S
H834 C830 0.950 . S
C835 C833 1.390 . S
C835 C836 1.396 . S
C835 H838 0.950 . S
C836 C835 1.396 . S
C836 C839 1.395 . S
H837 C833 0.950 . S
H838 C835 0.950 . S
C839 C830 1.390 . S
C839 H832 0.950 . S
C839 C836 1.395 . S
C840 C841 1.387 . S
C840 H844 0.950 . S
C840 C849 1.390 . S
C841 C840 1.387 . S
C841 C843 1.387 . S
H842 C849 0.950 . S
C843 C841 1.387 . S
C843 C845 1.390 . S
C843 H847 0.950 . S
H844 C840 0.950 . S
C845 C843 1.390 . S
C845 C846 1.387 . S
C845 H848 0.950 . S
C846 C845 1.387 . S
C846 C849 1.387 . S
H847 C843 0.950 . S
H848 C845 0.950 . S
C849 C840 1.390 . S
C849 H842 0.950 . S
C849 C846 1.387 . S
C850 C851 1.387 . S
C850 H854 0.950 . S
C850 C859 1.390 . S
C851 C850 1.387 . S
C851 C853 1.387 . S
H852 C859 0.950 . S
C853 C851 1.387 . S
C853 C855 1.390 . S
C853 H857 0.950 . S
H854 C850 0.950 . S
C855 C853 1.390 . S
C855 C856 1.387 . S
C855 H858 0.950 . S
C856 C855 1.387 . S
C856 C859 1.387 . S
H857 C853 0.950 . S
H858 C855 0.950 . S
C859 C850 1.390 . S
C859 H852 0.950 . S
C859 C856 1.387 . S
C860 C861 1.387 . S
C860 H864 0.950 . S
C860 C869 1.390 . S
C861 C860 1.387 . S
C861 C863 1.387 . S
H862 C869 0.950 . S
C863 C861 1.387 . S
C863 C865 1.390 . S
C863 H867 0.950 . S
H864 C860 0.950 . S
C865 C863 1.390 . S
C865 C866 1.387 . S
C865 H868 0.950 . S
C866 C865 1.387 . S
C866 C869 1.387 . S
H867 C863 0.950 . S
H868 C865 0.950 . S
C869 C860 1.390 . S
C869 H862 0.950 . S
C869 C866 1.387 . S
C870 C871 1.387 . S
C870 H874 0.950 . S
C870 C879 1.390 . S
C871 C870 1.387 . S
C871 C873 1.387 . S
H872 C879 0.950 . S
C873 C871 1.387 . S
C873 C875 1.390 . S
C873 H877 0.950 . S
H874 C870 0.950 . S
C875 C873 1.390 . S
C875 C876 1.387 . S
C875 H878 0.950 . S
C876 C875 1.387 . S
C876 C879 1.387 . S
H877 C873 0.950 . S
H878 C875 0.950 . S
C879 C870 1.390 . S
C879 H872 0.950 . S
C879 C876 1.387 . S
C880 C881 1.387 . S
C880 H884 0.950 . S
C880 C889 1.390 . S
C881 C880 1.387 . S
C881 C883 1.387 . S
H882 C889 0.950 . S
C883 C881 1.387 . S
C883 C885 1.390 . S
C883 H887 0.950 . S
H884 C880 0.950 . S
C885 C883 1.390 . S
C885 C886 1.387 . S
C885 H888 0.950 . S
C886 C885 1.387 . S
C886 C889 1.387 . S
H887 C883 0.950 . S
H888 C885 0.950 . S
C889 C880 1.390 . S
C889 H882 0.950 . S
C889 C886 1.387 . S
C890 C891 1.387 . S
C890 H894 0.950 . S
C890 C899 1.390 . S
C891 C890 1.387 . S
C891 C893 1.387 . S
H892 C899 0.950 . S
C893 C891 1.387 . S
C893 C895 1.390 . S
C893 H897 0.950 . S
H894 C890 0.950 . S
C895 C893 1.390 . S
C895 C896 1.387 . S
C895 H898 0.950 . S
C896 C895 1.387 . S
C896 C899 1.387 . S
H897 C893 0.950 . S
H898 C895 0.950 . S
C899 C890 1.390 . S
C899 H892 0.950 . S
C899 C896 1.387 . S
C900 C901 1.387 . S
C900 H904 0.950 . S
C900 C909 1.390 . S
C901 C900 1.387 . S
C901 C903 1.387 . S
H902 C909 0.950 . S
C903 C901 1.387 . S
C903 C905 1.390 . S
C903 H907 0.950 . S
H904 C900 0.950 . S
C905 C903 1.390 . S
C905 C906 1.387 . S
C905 H908 0.950 . S
C906 C905 1.387 . S
C906 C909 1.387 . S
H907 C903 0.950 . S
H908 C905 0.950 . S
C909 C900 1.390 . S
C909 H902 0.950 . S
C909 C906 1.387 . S
C910 C911 1.387 . S
C910 H914 0.950 . S
C910 C919 1.390 . S
C911 C910 1.387 . S
C911 C913 1.387 . S
H912 C919 0.950 . S
C913 C911 1.387 . S
C913 C915 1.390 . S
C913 H917 0.950 . S
H914 C910 0.950 . S
C915 C913 1.390 . S
C915 C916 1.387 . S
C915 H918 0.950 . S
C916 C915 1.387 . S
C916 C919 1.387 . S
H917 C913 0.950 . S
H918 C915 0.950 . S
C919 C910 1.390 . S
C919 H912 0.950 . S
C919 C916 1.387 . S
C920 C921 1.387 . S
C920 H924 0.950 . S
C920 C929 1.390 . S
C921 C920 1.387 . S
C921 C923 1.387 . S
H922 C929 0.950 . S
C923 C921 1.387 . S
C923 C925 1.390 . S
C923 H927 0.950 . S
H924 C920 0.950 . S
C925 C923 1.390 . S
C925 C926 1.387 . S
C925 H928 0.950 . S
C926 C925 1.387 . S
C926 C929 1.387 . S
H927 C923 0.950 . S
H928 C925 0.950 . S
C929 C920 1.390 . S
C929 H922 0.950 . S
C929 C926 1.387 . S
C930 C931 1.387 1_556 S
C930 H934 0.950 . S
C930 C939 1.390 . S
C931 C930 1.387 1_554 S
C931 C933 1.387 . S
H932 C939 0.950 . S
C933 C931 1.387 . S
C933 C935 1.390 . S
C933 H937 0.950 . S
H934 C930 0.950 . S
C935 C933 1.390 . S
C935 C936 1.387 . S
C935 H938 0.950 . S
C936 C935 1.387 . S
C936 C939 1.387 1_554 S
H937 C933 0.950 . S
H938 C935 0.950 . S
C939 C930 1.390 . S
C939 H932 0.950 . S
C939 C936 1.387 1_556 S
C940 C941 1.387 1_556 S
C940 H944 0.950 . S
C940 C949 1.390 . S
C941 C940 1.387 1_554 S
C941 C943 1.387 . S
H942 C949 0.950 . S
C943 C941 1.387 . S
C943 C945 1.390 . S
C943 H947 0.950 . S
H944 C940 0.950 . S
C945 C943 1.390 . S
C945 C946 1.387 . S
C945 H948 0.950 . S
C946 C945 1.387 . S
C946 C949 1.387 1_554 S
H947 C943 0.950 . S
H948 C945 0.950 . S
C949 C940 1.390 . S
C949 H942 0.950 . S
C949 C946 1.387 1_556 S
C950 C951 1.387 . S
C950 H954 0.950 . S
C950 C959 1.390 . S
C951 C950 1.387 . S
C951 C953 1.387 1_554 S
H952 C959 0.950 . S
C953 C951 1.387 1_556 S
C953 C955 1.390 . S
C953 H957 0.950 . S
H954 C950 0.950 . S
C955 C953 1.390 . S
C955 C956 1.387 1_556 S
C955 H958 0.950 . S
C956 C955 1.387 1_554 S
C956 C959 1.387 . S
H957 C953 0.950 . S
H958 C955 0.950 . S
C959 C950 1.390 . S
C959 H952 0.950 . S
C959 C956 1.387 . S
C960 C961 1.387 . S
C960 H964 0.950 . S
C960 C969 1.390 . S
C961 C960 1.387 . S
C961 C963 1.387 . S
H962 C969 0.950 . S
C963 C961 1.387 . S
C963 C965 1.390 . S
C963 H967 0.950 . S
H964 C960 0.950 . S
C965 C963 1.390 . S
C965 C966 1.387 . S
C965 H968 0.950 . S
C966 C965 1.387 . S
C966 C969 1.387 . S
H967 C963 0.950 . S
H968 C965 0.950 . S
C969 C960 1.390 . S
C969 H962 0.950 . S
C969 C966 1.387 . S
C970 C971 1.387 . S
C970 H974 0.950 . S
C970 C979 1.390 . S
C971 C970 1.387 . S
C971 C973 1.387 . S
H972 C979 0.950 . S
C973 C971 1.387 . S
C973 C975 1.390 . S
C973 H977 0.950 . S
H974 C970 0.950 . S
C975 C973 1.390 . S
C975 C976 1.387 . S
C975 H978 0.950 . S
C976 C975 1.387 . S
C976 C979 1.387 . S
H977 C973 0.950 . S
H978 C975 0.950 . S
C979 C970 1.390 . S
C979 H972 0.950 . S
C979 C976 1.387 . S
C980 C981 1.387 . S
C980 H984 0.950 . S
C980 C989 1.390 . S
C981 C980 1.387 . S
C981 C983 1.387 . S
H982 C989 0.950 . S
C983 C981 1.387 . S
C983 C985 1.390 . S
C983 H987 0.950 . S
H984 C980 0.950 . S
C985 C983 1.390 . S
C985 C986 1.387 . S
C985 H988 0.950 . S
C986 C985 1.387 . S
C986 C989 1.387 . S
H987 C983 0.950 . S
H988 C985 0.950 . S
C989 C980 1.390 . S
C989 H982 0.950 . S
C989 C986 1.387 . S
C990 C991 1.387 . S
C990 H994 0.950 . S
C990 C999 1.390 . S
C991 C990 1.387 . S
C991 C993 1.387 1_556 S
H992 C999 0.950 . S
C993 C991 1.387 1_554 S
C993 C995 1.390 . S
C993 H997 0.950 . S
H994 C990 0.950 . S
C995 C993 1.390 . S
C995 C996 1.387 1_554 S
C995 H998 0.950 . S
C996 C995 1.387 1_556 S
C996 C999 1.387 . S
H997 C993 0.950 . S
H998 C995 0.950 . S
C999 C990 1.390 . S
C999 H992 0.950 . S
C999 C996 1.387 . S
C1000 C1001 1.387 1_554 S
C1000 H1004 0.950 . S
C1000 C1009 1.390 . S
C1001 C1000 1.387 1_556 S
C1001 C1003 1.387 . S
H1002 C1009 0.950 . S
C1003 C1001 1.387 . S
C1003 C1005 1.390 . S
C1003 H1007 0.950 . S
H1004 C1000 0.950 . S
C1005 C1003 1.390 . S
C1005 C1006 1.387 . S
C1005 H1008 0.950 . S
C1006 C1005 1.387 . S
C1006 C1009 1.387 1_556 S
H1007 C1003 0.950 . S
H1008 C1005 0.950 . S
C1009 C1000 1.390 . S
C1009 H1002 0.950 . S
C1009 C1006 1.387 1_554 S
C1010 C1011 1.387 1_554 S
C1010 H1014 0.950 . S
C1010 C1019 1.390 . S
C1011 C1010 1.387 1_556 S
C1011 C1013 1.387 . S
H1012 C1019 0.950 . S
C1013 C1011 1.387 . S
C1013 C1015 1.390 . S
C1013 H1017 0.950 . S
H1014 C1010 0.950 . S
C1015 C1013 1.390 . S
C1015 C1016 1.387 . S
C1015 H1018 0.950 . S
C1016 C1015 1.387 . S
C1016 C1019 1.387 1_556 S
H1017 C1013 0.950 . S
H1018 C1015 0.950 . S
C1019 C1010 1.390 . S
C1019 H1012 0.950 . S
C1019 C1016 1.387 1_554 S
C1020 C1021 1.387 . S
C1020 H1024 0.950 . S
C1020 C1029 1.390 . S
C1021 C1020 1.387 . S
C1021 C1023 1.387 . S
H1022 C1029 0.950 . S
C1023 C1021 1.387 . S
C1023 C1025 1.390 . S
C1023 H1027 0.950 . S
H1024 C1020 0.950 . S
C1025 C1023 1.390 . S
C1025 C1026 1.387 . S
C1025 H1028 0.950 . S
C1026 C1025 1.387 . S
C1026 C1029 1.387 . S
H1027 C1023 0.950 . S
H1028 C1025 0.950 . S
C1029 C1020 1.390 . S
C1029 H1022 0.950 . S
C1029 C1026 1.387 . S
C1030 C1031 1.387 . S
C1030 H1034 0.950 . S
C1030 C1039 1.390 . S
C1031 C1030 1.387 . S
C1031 C1033 1.387 . S
H1032 C1039 0.950 . S
C1033 C1031 1.387 . S
C1033 C1035 1.390 . S
C1033 H1037 0.950 . S
H1034 C1030 0.950 . S
C1035 C1033 1.390 . S
C1035 C1036 1.387 . S
C1035 H1038 0.950 . S
C1036 C1035 1.387 . S
C1036 C1039 1.387 . S
H1037 C1033 0.950 . S
H1038 C1035 0.950 . S
C1039 C1030 1.390 . S
C1039 H1032 0.950 . S
C1039 C1036 1.387 . S
C1040 C1041 1.387 . S
C1040 H1044 0.950 . S
C1040 C1049 1.390 . S
C1041 C1040 1.387 . S
C1041 C1043 1.387 . S
H1042 C1049 0.950 . S
C1043 C1041 1.387 . S
C1043 C1045 1.390 . S
C1043 H1047 0.950 . S
H1044 C1040 0.950 . S
C1045 C1043 1.390 . S
C1045 C1046 1.387 . S
C1045 H1048 0.950 . S
C1046 C1045 1.387 . S
C1046 C1049 1.387 . S
H1047 C1043 0.950 . S
H1048 C1045 0.950 . S
C1049 C1040 1.390 . S
C1049 H1042 0.950 . S
C1049 C1046 1.387 . S
C1050 C1051 1.387 . S
C1050 H1054 0.950 . S
C1050 C1059 1.390 . S
C1051 C1050 1.387 . S
C1051 C1053 1.387 . S
H1052 C1059 0.950 . S
C1053 C1051 1.387 . S
C1053 C1055 1.390 . S
C1053 H1057 0.950 . S
H1054 C1050 0.950 . S
C1055 C1053 1.390 . S
C1055 C1056 1.387 . S
C1055 H1058 0.950 . S
C1056 C1055 1.387 . S
C1056 C1059 1.387 . S
H1057 C1053 0.950 . S
H1058 C1055 0.950 . S
C1059 C1050 1.390 . S
C1059 H1052 0.950 . S
C1059 C1056 1.387 . S
C1060 C1061 1.387 . S
C1060 H1064 0.950 . S
C1060 C1069 1.390 . S
C1061 C1060 1.387 . S
C1061 C1063 1.387 . S
H1062 C1069 0.950 . S
C1063 C1061 1.387 . S
C1063 C1065 1.390 . S
C1063 H1067 0.950 . S
H1064 C1060 0.950 . S
C1065 C1063 1.390 . S
C1065 C1066 1.387 . S
C1065 H1068 0.950 . S
C1066 C1065 1.387 . S
C1066 C1069 1.387 . S
H1067 C1063 0.950 . S
H1068 C1065 0.950 . S
C1069 C1060 1.390 . S
C1069 H1062 0.950 . S
C1069 C1066 1.387 . S
C1070 C1071 1.387 . S
C1070 H1074 0.950 . S
C1070 C1079 1.390 . S
C1071 C1070 1.387 . S
C1071 C1073 1.387 . S
H1072 C1079 0.950 . S
C1073 C1071 1.387 . S
C1073 C1075 1.390 . S
C1073 H1077 0.950 . S
H1074 C1070 0.950 . S
C1075 C1073 1.390 . S
C1075 C1076 1.387 . S
C1075 H1078 0.950 . S
C1076 C1075 1.387 . S
C1076 C1079 1.387 . S
H1077 C1073 0.950 . S
H1078 C1075 0.950 . S
C1079 C1070 1.390 . S
C1079 H1072 0.950 . S
C1079 C1076 1.387 . S
C1080 C1081 1.387 . S
C1080 H1084 0.950 . S
C1080 C1089 1.390 . S
C1081 C1080 1.387 . S
C1081 C1083 1.387 . S
H1082 C1089 0.950 . S
C1083 C1081 1.387 . S
C1083 C1085 1.390 . S
C1083 H1087 0.950 . S
H1084 C1080 0.950 . S
C1085 C1083 1.390 . S
C1085 C1086 1.387 . S
C1085 H1088 0.950 . S
C1086 C1085 1.387 . S
C1086 C1089 1.387 . S
H1087 C1083 0.950 . S
H1088 C1085 0.950 . S
C1089 C1080 1.390 . S
C1089 H1082 0.950 . S
C1089 C1086 1.387 . S
C1090 C1091 1.390 . S
C1090 H1094 0.950 1_565 S
C1090 C1099 1.390 . S
C1091 C1090 1.390 . S
C1091 C1093 1.393 . S
H1092 C1099 0.950 . S
C1093 C1091 1.393 . S
C1093 C1095 1.390 . S
C1093 H1097 0.950 . S
H1094 C1090 0.950 1_545 S
C1095 C1093 1.390 . S
C1095 C1096 1.387 . S
C1095 H1098 0.950 . S
C1096 C1095 1.387 . S
C1096 C1099 1.387 . S
H1097 C1093 0.950 . S
H1098 C1095 0.950 . S
C1099 C1090 1.390 . S
C1099 H1092 0.950 . S
C1099 C1096 1.387 . S
C1100 C1101 1.387 . S
C1100 H1104 0.950 . S
C1100 C1109 1.390 1_455 S
C1101 C1100 1.387 . S
C1101 C1103 1.387 . S
H1102 C1109 0.950 . S
C1103 C1101 1.387 . S
C1103 C1105 1.390 . S
C1103 H1107 0.950 . S
H1104 C1100 0.950 . S
C1105 C1103 1.390 . S
C1105 C1106 1.394 . S
C1105 H1108 0.950 . S
C1106 C1105 1.394 . S
C1106 C1109 1.383 1_455 S
H1107 C1103 0.950 . S
H1108 C1105 0.950 . S
C1109 C1100 1.390 1_655 S
C1109 H1102 0.950 . S
C1109 C1106 1.383 1_655 S
C1110 C1111 1.387 . S
C1110 H1114 0.950 . S
C1110 C1119 1.390 . S
C1111 C1110 1.387 . S
C1111 C1113 1.387 . S
H1112 C1119 0.950 . S
C1113 C1111 1.387 . S
C1113 C1115 1.390 . S
C1113 H1117 0.950 . S
H1114 C1110 0.950 . S
C1115 C1113 1.390 . S
C1115 C1116 1.387 . S
C1115 H1118 0.950 . S
C1116 C1115 1.387 . S
C1116 C1119 1.387 . S
H1117 C1113 0.950 . S
H1118 C1115 0.950 . S
C1119 C1110 1.390 . S
C1119 H1112 0.950 . S
C1119 C1116 1.387 . S
C1120 C1121 1.390 . S
C1120 H1124 0.950 . S
C1120 C1129 1.390 . S
C1121 C1120 1.390 . S
C1121 C1123 1.389 . S
H1122 C1129 0.950 . S
C1123 C1121 1.389 . S
C1123 C1125 1.390 . S
C1123 H1127 0.950 . S
H1124 C1120 0.950 . S
C1125 C1123 1.390 . S
C1125 C1126 1.387 . S
C1125 H1128 0.950 . S
C1126 C1125 1.387 . S
C1126 C1129 1.387 . S
H1127 C1123 0.950 . S
H1128 C1125 0.950 . S
C1129 C1120 1.390 . S
C1129 H1122 0.950 . S
C1129 C1126 1.387 . S
C1130 C1131 1.387 . S
C1130 H1134 0.950 . S
C1130 C1139 1.390 . S
C1131 C1130 1.387 . S
C1131 C1133 1.387 . S
H1132 C1139 0.950 . S
C1133 C1131 1.387 . S
C1133 C1135 1.390 . S
C1133 H1137 0.950 . S
H1134 C1130 0.950 . S
C1135 C1133 1.390 . S
C1135 C1136 1.397 . S
C1135 H1138 0.950 1_655 S
C1136 C1135 1.397 . S
C1136 C1139 1.397 . S
H1137 C1133 0.950 . S
H1138 C1135 0.950 1_455 S
C1139 C1130 1.390 . S
C1139 H1132 0.950 . S
C1139 C1136 1.397 . S
C1140 C1141 1.387 . S
C1140 H1144 0.950 . S
C1140 C1149 1.390 . S
C1141 C1140 1.387 . S
C1141 C1143 1.387 . S
H1142 C1149 0.950 . S
C1143 C1141 1.387 . S
C1143 C1145 1.390 . S
C1143 H1147 0.950 . S
H1144 C1140 0.950 . S
C1145 C1143 1.390 . S
C1145 C1146 1.387 . S
C1145 H1148 0.950 . S
C1146 C1145 1.387 . S
C1146 C1149 1.387 . S
H1147 C1143 0.950 . S
H1148 C1145 0.950 . S
C1149 C1140 1.390 . S
C1149 H1142 0.950 . S
C1149 C1146 1.387 . S
C1150 C1151 1.387 . S
C1150 H1154 0.950 . S
C1150 C1159 1.390 . S
C1151 C1150 1.387 . S
C1151 C1153 1.387 . S
H1152 C1159 0.950 . S
C1153 C1151 1.387 . S
C1153 C1155 1.390 . S
C1153 H1157 0.950 . S
H1154 C1150 0.950 . S
C1155 C1153 1.390 . S
C1155 C1156 1.390 . S
C1155 H1158 0.950 1_545 S
C1156 C1155 1.390 . S
C1156 C1159 1.393 . S
H1157 C1153 0.950 . S
H1158 C1155 0.950 1_565 S
C1159 C1150 1.390 . S
C1159 H1152 0.950 . S
C1159 C1156 1.393 . S
C1160 C1161 1.387 . S
C1160 H1164 0.950 . S
C1160 C1169 1.390 . S
C1161 C1160 1.387 . S
C1161 C1163 1.387 . S
H1162 C1169 0.950 . S
C1163 C1161 1.387 . S
C1163 C1165 1.390 1_655 S
C1163 H1167 0.950 . S
H1164 C1160 0.950 . S
C1165 C1163 1.390 1_455 S
C1165 C1166 1.384 1_455 S
C1165 H1168 0.950 . S
C1166 C1165 1.384 1_655 S
C1166 C1169 1.393 . S
H1167 C1163 0.950 . S
H1168 C1165 0.950 . S
C1169 C1160 1.390 . S
C1169 H1162 0.950 . S
C1169 C1166 1.393 . S
C1170 C1171 1.387 . S
C1170 H1174 0.950 . S
C1170 C1179 1.390 . S
C1171 C1170 1.387 . S
C1171 C1173 1.387 . S
H1172 C1179 0.950 . S
C1173 C1171 1.387 . S
C1173 C1175 1.390 . S
C1173 H1177 0.950 . S
H1174 C1170 0.950 . S
C1175 C1173 1.390 . S
C1175 C1176 1.387 . S
C1175 H1178 0.950 . S
C1176 C1175 1.387 . S
C1176 C1179 1.387 . S
H1177 C1173 0.950 . S
H1178 C1175 0.950 . S
C1179 C1170 1.390 . S
C1179 H1172 0.950 . S
C1179 C1176 1.387 . S
C1180 C1181 1.394 . S
C1180 H1184 0.950 . S
C1180 C1189 1.390 . S
C1181 C1180 1.394 . S
C1181 C1183 1.384 . S
H1182 C1189 0.950 . S
C1183 C1181 1.384 . S
C1183 C1185 1.390 . S
C1183 H1187 0.950 1_565 S
H1184 C1180 0.950 . S
C1185 C1183 1.390 . S
C1185 C1186 1.387 . S
C1185 H1188 0.950 . S
C1186 C1185 1.387 . S
C1186 C1189 1.387 . S
H1187 C1183 0.950 1_545 S
H1188 C1185 0.950 . S
C1189 C1180 1.390 . S
C1189 H1182 0.950 . S
C1189 C1186 1.387 . S
C1190 C1191 1.387 . S
C1190 H1194 0.950 1_455 S
C1190 C1199 1.390 . S
C1191 C1190 1.387 . S
C1191 C1193 1.387 . S
H1192 C1199 0.950 . S
C1193 C1191 1.387 . S
C1193 C1195 1.390 . S
C1193 H1197 0.950 . S
H1194 C1190 0.950 1_655 S
C1195 C1193 1.390 . S
C1195 C1196 1.387 . S
C1195 H1198 0.950 . S
C1196 C1195 1.387 . S
C1196 C1199 1.387 . S
H1197 C1193 0.950 . S
H1198 C1195 0.950 . S
C1199 C1190 1.390 . S
C1199 H1192 0.950 . S
C1199 C1196 1.387 . S
C1200 C1201 1.387 . S
C1200 H1204 0.950 . S
C1200 C1209 1.390 1_655 S
C1201 C1200 1.387 . S
C1201 C1203 1.387 1_655 S
H1202 C1209 0.950 . S
C1203 C1201 1.387 1_455 S
C1203 C1205 1.390 . S
C1203 H1207 0.950 1_455 S
H1204 C1200 0.950 . S
C1205 C1203 1.390 . S
C1205 C1206 1.387 . S
C1205 H1208 0.950 . S
C1206 C1205 1.387 . S
C1206 C1209 1.387 . S
H1207 C1203 0.950 1_655 S
H1208 C1205 0.950 . S
C1209 C1200 1.390 1_455 S
C1209 H1202 0.950 . S
C1209 C1206 1.387 . S
C1210 C1211 1.387 . S
C1210 H1214 0.950 . S
C1210 C1219 1.390 . S
C1211 C1210 1.387 . S
C1211 C1213 1.387 . S
H1212 C1219 0.950 . S
C1213 C1211 1.387 . S
C1213 C1215 1.390 . S
C1213 H1217 0.950 . S
H1214 C1210 0.950 . S
C1215 C1213 1.390 . S
C1215 C1216 1.387 . S
C1215 H1218 0.950 . S
C1216 C1215 1.387 . S
C1216 C1219 1.387 . S
H1217 C1213 0.950 . S
H1218 C1215 0.950 . S
C1219 C1210 1.390 . S
C1219 H1212 0.950 . S
C1219 C1216 1.387 . S
C1220 C1221 1.387 . S
C1220 H1224 0.950 . S
C1220 C1229 1.390 1_565 S
C1221 C1220 1.387 . S
C1221 C1223 1.387 . S
H1222 C1229 0.950 . S
C1223 C1221 1.387 . S
C1223 C1225 1.390 . S
C1223 H1227 0.950 . S
H1224 C1220 0.950 . S
C1225 C1223 1.390 . S
C1225 C1226 1.387 1_565 S
C1225 H1228 0.949 1_565 S
C1226 C1225 1.387 1_545 S
C1226 C1229 1.387 . S
H1227 C1223 0.950 . S
H1228 C1225 0.949 1_545 S
C1229 C1220 1.390 1_545 S
C1229 H1222 0.950 . S
C1229 C1226 1.387 . S
C1230 C1231 1.387 . S
C1230 H1234 0.950 . S
C1230 C1239 1.390 . S
C1231 C1230 1.387 . S
C1231 C1233 1.387 . S
H1232 C1239 0.950 . S
C1233 C1231 1.387 . S
C1233 C1235 1.390 . S
C1233 H1237 0.950 . S
H1234 C1230 0.950 . S
C1235 C1233 1.390 . S
C1235 C1236 1.387 . S
C1235 H1238 0.950 . S
C1236 C1235 1.387 . S
C1236 C1239 1.387 . S
H1237 C1233 0.950 . S
H1238 C1235 0.950 . S
C1239 C1230 1.390 . S
C1239 H1232 0.950 . S
C1239 C1236 1.387 . S
C1240 C1241 1.387 . S
C1240 H1244 0.950 . S
C1240 C1249 1.390 . S
C1241 C1240 1.387 . S
C1241 C1243 1.387 . S
H1242 C1249 0.950 . S
C1243 C1241 1.387 . S
C1243 C1245 1.390 . S
C1243 H1247 0.950 . S
H1244 C1240 0.950 . S
C1245 C1243 1.390 . S
C1245 C1246 1.387 . S
C1245 H1248 0.950 . S
C1246 C1245 1.387 . S
C1246 C1249 1.387 . S
H1247 C1243 0.950 . S
H1248 C1245 0.950 . S
C1249 C1240 1.390 . S
C1249 H1242 0.950 . S
C1249 C1246 1.387 . S
C1250 C1251 1.387 . S
C1250 H1254 0.950 . S
C1250 C1259 1.390 . S
C1251 C1250 1.387 . S
C1251 C1253 1.387 . S
H1252 C1259 0.950 . S
C1253 C1251 1.387 . S
C1253 C1255 1.390 . S
C1253 H1257 0.950 . S
H1254 C1250 0.950 . S
C1255 C1253 1.390 . S
C1255 C1256 1.387 . S
C1255 H1258 0.950 . S
C1256 C1255 1.387 . S
C1256 C1259 1.387 . S
H1257 C1253 0.950 . S
H1258 C1255 0.950 . S
C1259 C1250 1.390 . S
C1259 H1252 0.950 . S
C1259 C1256 1.387 . S
C1260 C1261 1.387 . S
C1260 H1264 0.950 . S
C1260 C1269 1.390 . S
C1261 C1260 1.387 . S
C1261 C1263 1.387 . S
H1262 C1269 0.950 . S
C1263 C1261 1.387 . S
C1263 C1265 1.390 . S
C1263 H1267 0.950 . S
H1264 C1260 0.950 . S
C1265 C1263 1.390 . S
C1265 C1266 1.387 . S
C1265 H1268 0.950 . S
C1266 C1265 1.387 . S
C1266 C1269 1.387 . S
H1267 C1263 0.950 . S
H1268 C1265 0.950 . S
C1269 C1260 1.390 . S
C1269 H1262 0.950 . S
C1269 C1266 1.387 . S
C1270 C1271 1.387 . S
C1270 H1274 0.950 . S
C1270 C1279 1.390 . S
C1271 C1270 1.387 . S
C1271 C1273 1.387 . S
H1272 C1279 0.950 . S
C1273 C1271 1.387 . S
C1273 C1275 1.390 . S
C1273 H1277 0.950 . S
H1274 C1270 0.950 . S
C1275 C1273 1.390 . S
C1275 C1276 1.387 . S
C1275 H1278 0.950 . S
C1276 C1275 1.387 . S
C1276 C1279 1.387 . S
H1277 C1273 0.950 . S
H1278 C1275 0.950 . S
C1279 C1270 1.390 . S
C1279 H1272 0.950 . S
C1279 C1276 1.387 . S
C1280 C1281 1.387 . S
C1280 H1284 0.950 . S
C1280 C1289 1.390 . S
C1281 C1280 1.387 . S
C1281 C1283 1.387 . S
H1282 C1289 0.950 . S
C1283 C1281 1.387 . S
C1283 C1285 1.390 . S
C1283 H1287 0.950 . S
H1284 C1280 0.950 . S
C1285 C1283 1.390 . S
C1285 C1286 1.387 . S
C1285 H1288 0.950 . S
C1286 C1285 1.387 . S
C1286 C1289 1.387 . S
H1287 C1283 0.950 . S
H1288 C1285 0.950 . S
C1289 C1280 1.390 . S
C1289 H1282 0.950 . S
C1289 C1286 1.387 . S
C1290 C1291 1.387 1_556 S
C1290 H1294 0.950 . S
C1290 C1299 1.390 . S
C1291 C1290 1.387 1_554 S
C1291 C1293 1.387 . S
H1292 C1299 0.950 1_545 S
C1293 C1291 1.387 . S
C1293 C1295 1.390 1_565 S
C1293 H1297 0.950 . S
H1294 C1290 0.950 . S
C1295 C1293 1.390 1_545 S
C1295 C1296 1.387 1_554 S
C1295 H1298 0.950 . S
C1296 C1295 1.387 1_556 S
C1296 C1299 1.387 1_545 S
H1297 C1293 0.950 . S
H1298 C1295 0.950 . S
C1299 C1290 1.390 . S
C1299 H1292 0.950 1_565 S
C1299 C1296 1.387 1_565 S
C1300 C1301 1.387 . S
C1300 H1304 0.950 . S
C1300 C1309 1.390 1_455 S
C1301 C1300 1.387 . S
C1301 C1303 1.387 1_554 S
H1302 C1309 0.950 . S
C1303 C1301 1.387 1_556 S
C1303 C1305 1.390 . S
C1303 H1307 0.950 . S
H1304 C1300 0.950 . S
C1305 C1303 1.390 . S
C1305 C1306 1.387 1_455 S
C1305 H1308 0.950 1_455 S
C1306 C1305 1.387 1_655 S
C1306 C1309 1.387 1_556 S
H1307 C1303 0.950 . S
H1308 C1305 0.950 1_655 S
C1309 C1300 1.390 1_655 S
C1309 H1302 0.950 . S
C1309 C1306 1.387 1_554 S
C1310 C1311 1.387 1_554 S
C1310 H1314 0.950 . S
C1310 C1319 1.390 . S
C1311 C1310 1.387 1_556 S
C1311 C1313 1.387 . S
H1312 C1319 0.950 . S
C1313 C1311 1.387 . S
C1313 C1315 1.390 . S
C1313 H1317 0.950 . S
H1314 C1310 0.950 . S
C1315 C1313 1.390 . S
C1315 C1316 1.387 1_556 S
C1315 H1318 0.950 . S
C1316 C1315 1.387 1_554 S
C1316 C1319 1.387 . S
H1317 C1313 0.950 . S
H1318 C1315 0.950 . S
C1319 C1310 1.390 . S
C1319 H1312 0.950 . S
C1319 C1316 1.387 . S
C1320 C1321 1.387 . S
C1320 H1324 0.950 . S
C1320 C1329 1.390 . S
C1321 C1320 1.387 . S
C1321 C1323 1.387 . S
H1322 C1329 0.950 . S
C1323 C1321 1.387 . S
C1323 C1325 1.390 . S
C1323 H1327 0.950 . S
H1324 C1320 0.950 . S
C1325 C1323 1.390 . S
C1325 C1326 1.387 . S
C1325 H1328 0.950 . S
C1326 C1325 1.387 . S
C1326 C1329 1.387 . S
H1327 C1323 0.950 . S
H1328 C1325 0.950 . S
C1329 C1320 1.390 . S
C1329 H1322 0.950 . S
C1329 C1326 1.387 . S
C1330 C1331 1.387 . S
C1330 H1334 0.950 . S
C1330 C1339 1.390 . S
C1331 C1330 1.387 . S
C1331 C1333 1.387 . S
H1332 C1339 0.950 . S
C1333 C1331 1.387 . S
C1333 C1335 1.390 . S
C1333 H1337 0.950 . S
H1334 C1330 0.950 . S
C1335 C1333 1.390 . S
C1335 C1336 1.387 . S
C1335 H1338 0.950 . S
C1336 C1335 1.387 . S
C1336 C1339 1.387 . S
H1337 C1333 0.950 . S
H1338 C1335 0.950 . S
C1339 C1330 1.390 . S
C1339 H1332 0.950 . S
C1339 C1336 1.387 . S
C1340 C1341 1.387 . S
C1340 H1344 0.950 . S
C1340 C1349 1.390 . S
C1341 C1340 1.387 . S
C1341 C1343 1.387 . S
H1342 C1349 0.950 . S
C1343 C1341 1.387 . S
C1343 C1345 1.390 . S
C1343 H1347 0.950 . S
H1344 C1340 0.950 . S
C1345 C1343 1.390 . S
C1345 C1346 1.387 . S
C1345 H1348 0.950 . S
C1346 C1345 1.387 . S
C1346 C1349 1.387 . S
H1347 C1343 0.950 . S
H1348 C1345 0.950 . S
C1349 C1340 1.390 . S
C1349 H1342 0.950 . S
C1349 C1346 1.387 . S
C1350 C1351 1.387 1_546 S
C1350 H1354 0.950 1_545 S
C1350 C1359 1.390 . S
C1351 C1350 1.387 1_564 S
C1351 C1353 1.387 1_565 S
H1352 C1359 0.950 . S
C1353 C1351 1.387 1_545 S
C1353 C1355 1.390 . S
C1353 H1357 0.950 1_545 S
H1354 C1350 0.950 1_565 S
C1355 C1353 1.390 . S
C1355 C1356 1.387 1_554 S
C1355 H1358 0.950 . S
C1356 C1355 1.387 1_556 S
C1356 C1359 1.387 . S
H1357 C1353 0.950 1_565 S
H1358 C1355 0.950 . S
C1359 C1350 1.390 . S
C1359 H1352 0.950 . S
C1359 C1356 1.387 . S
C1360 C1361 1.387 . S
C1360 H1364 0.950 . S
C1360 C1369 1.390 1_655 S
C1361 C1360 1.387 . S
C1361 C1363 1.387 1_556 S
H1362 C1369 0.950 . S
C1363 C1361 1.387 1_554 S
C1363 C1365 1.390 . S
C1363 H1367 0.950 . S
H1364 C1360 0.950 . S
C1365 C1363 1.390 . S
C1365 C1366 1.387 1_655 S
C1365 H1368 0.953 1_655 S
C1366 C1365 1.387 1_455 S
C1366 C1369 1.387 1_554 S
H1367 C1363 0.950 . S
H1368 C1365 0.953 1_455 S
C1369 C1360 1.390 1_455 S
C1369 H1362 0.950 . S
C1369 C1366 1.387 1_556 S
C1370 C1371 1.387 1_556 S
C1370 H1374 0.950 . S
C1370 C1379 1.390 . S
C1371 C1370 1.387 1_554 S
C1371 C1373 1.387 . S
H1372 C1379 0.950 . S
C1373 C1371 1.387 . S
C1373 C1375 1.390 . S
C1373 H1377 0.950 . S
H1374 C1370 0.950 . S
C1375 C1373 1.390 . S
C1375 C1376 1.387 1_554 S
C1375 H1378 0.950 . S
C1376 C1375 1.387 1_556 S
C1376 C1379 1.387 . S
H1377 C1373 0.950 . S
H1378 C1375 0.950 . S
C1379 C1370 1.390 . S
C1379 H1372 0.950 . S
C1379 C1376 1.387 . S
C1380 C1381 1.394 . S
C1380 H1384 0.958 . S
C1380 C1389 1.376 1_455 S
C1381 C1380 1.394 . S
C1381 C1383 1.387 1_455 S
H1382 C1389 0.950 . S
C1383 C1381 1.387 1_655 S
C1383 C1385 1.390 . S
C1383 H1387 0.950 1_655 S
H1384 C1380 0.958 . S
C1385 C1383 1.390 . S
C1385 C1386 1.387 . S
C1385 H1388 0.950 . S
C1386 C1385 1.387 . S
C1386 C1389 1.387 . S
H1387 C1383 0.950 1_455 S
H1388 C1385 0.950 . S
C1389 C1380 1.376 1_655 S
C1389 H1382 0.950 . S
C1389 C1386 1.387 . S
C1390 C1391 1.387 . S
C1390 H1394 0.950 . S
C1390 C1399 1.390 . S
C1391 C1390 1.387 . S
C1391 C1393 1.387 . S
H1392 C1399 0.950 . S
C1393 C1391 1.387 . S
C1393 C1395 1.390 . S
C1393 H1397 0.950 . S
H1394 C1390 0.950 . S
C1395 C1393 1.390 . S
C1395 C1396 1.387 . S
C1395 H1398 0.950 . S
C1396 C1395 1.387 . S
C1396 C1399 1.387 . S
H1397 C1393 0.950 . S
H1398 C1395 0.950 . S
C1399 C1390 1.390 . S
C1399 H1392 0.950 . S
C1399 C1396 1.387 . S
C1400 C1401 1.388 . S
C1400 H1404 0.951 . S
C1400 C1409 1.388 1_565 S
C1401 C1400 1.388 . S
C1401 C1403 1.387 1_565 S
H1402 C1409 0.950 . S
C1403 C1401 1.387 1_545 S
C1403 C1405 1.390 . S
C1403 H1407 0.950 1_545 S
H1404 C1400 0.951 . S
C1405 C1403 1.390 . S
C1405 C1406 1.387 . S
C1405 H1408 0.950 . S
C1406 C1405 1.387 . S
C1406 C1409 1.387 . S
H1407 C1403 0.950 1_565 S
H1408 C1405 0.950 . S
C1409 C1400 1.388 1_545 S
C1409 H1402 0.950 . S
C1409 C1406 1.387 . S
C1410 C1411 1.387 . S
C1410 H1414 0.950 . S
C1410 C1419 1.390 . S
C1411 C1410 1.387 . S
C1411 C1413 1.387 . S
H1412 C1419 0.950 . S
C1413 C1411 1.387 . S
C1413 C1415 1.390 . S
C1413 H1417 0.950 . S
H1414 C1410 0.950 . S
C1415 C1413 1.390 . S
C1415 C1416 1.387 . S
C1415 H1418 0.950 . S
C1416 C1415 1.387 . S
C1416 C1419 1.387 . S
H1417 C1413 0.950 . S
H1418 C1415 0.950 . S
C1419 C1410 1.390 . S
C1419 H1412 0.950 . S
C1419 C1416 1.387 . S
C1420 C1421 1.387 . S
C1420 H1424 0.950 . S
C1420 C1429 1.390 . S
C1421 C1420 1.387 . S
C1421 C1423 1.387 . S
H1422 C1429 0.950 . S
C1423 C1421 1.387 . S
C1423 C1425 1.390 . S
C1423 H1427 0.950 . S
H1424 C1420 0.950 . S
C1425 C1423 1.390 . S
C1425 C1426 1.387 . S
C1425 H1428 0.950 . S
C1426 C1425 1.387 . S
C1426 C1429 1.387 . S
H1427 C1423 0.950 . S
H1428 C1425 0.950 . S
C1429 C1420 1.390 . S
C1429 H1422 0.950 . S
C1429 C1426 1.387 . S
C1430 C1431 1.387 . S
C1430 H1434 0.950 . S
C1430 C1439 1.390 . S
C1431 C1430 1.387 . S
C1431 C1433 1.387 . S
H1432 C1439 0.950 . S
C1433 C1431 1.387 . S
C1433 C1435 1.390 . S
C1433 H1437 0.950 . S
H1434 C1430 0.950 . S
C1435 C1433 1.390 . S
C1435 C1436 1.387 . S
C1435 H1438 0.950 . S
C1436 C1435 1.387 . S
C1436 C1439 1.387 . S
H1437 C1433 0.950 . S
H1438 C1435 0.950 . S
C1439 C1430 1.390 . S
C1439 H1432 0.950 . S
C1439 C1436 1.387 . S
C1440 C1441 1.387 . S
C1440 H1444 0.950 . S
C1440 C1449 1.390 . S
C1441 C1440 1.387 . S
C1441 C1443 1.387 . S
H1442 C1449 0.950 . S
C1443 C1441 1.387 . S
C1443 C1445 1.390 . S
C1443 H1447 0.950 . S
H1444 C1440 0.950 . S
C1445 C1443 1.390 . S
C1445 C1446 1.387 . S
C1445 H1448 0.950 . S
C1446 C1445 1.387 . S
C1446 C1449 1.387 . S
H1447 C1443 0.950 . S
H1448 C1445 0.950 . S
C1449 C1440 1.390 . S
C1449 H1442 0.950 . S
C1449 C1446 1.387 . S
C1450 C1451 1.387 . S
C1450 H1454 0.950 . S
C1450 C1459 1.390 . S
C1451 C1450 1.387 . S
C1451 C1453 1.387 . S
H1452 C1459 0.950 . S
C1453 C1451 1.387 . S
C1453 C1455 1.390 . S
C1453 H1457 0.950 . S
H1454 C1450 0.950 . S
C1455 C1453 1.390 . S
C1455 C1456 1.387 . S
C1455 H1458 0.950 . S
C1456 C1455 1.387 . S
C1456 C1459 1.387 . S
H1457 C1453 0.950 . S
H1458 C1455 0.950 . S
C1459 C1450 1.390 . S
C1459 H1452 0.950 . S
C1459 C1456 1.387 . S
C1460 C1461 1.387 . S
C1460 H1464 0.950 . S
C1460 C1469 1.390 . S
C1461 C1460 1.387 . S
C1461 C1463 1.387 . S
H1462 C1469 0.950 . S
C1463 C1461 1.387 . S
C1463 C1465 1.390 . S
C1463 H1467 0.950 . S
H1464 C1460 0.950 . S
C1465 C1463 1.390 . S
C1465 C1466 1.387 . S
C1465 H1468 0.950 . S
C1466 C1465 1.387 . S
C1466 C1469 1.387 . S
H1467 C1463 0.950 . S
H1468 C1465 0.950 . S
C1469 C1460 1.390 . S
C1469 H1462 0.950 . S
C1469 C1466 1.387 . S
C1470 C1471 1.387 . S
C1470 H1474 0.950 . S
C1470 C1479 1.390 . S
C1471 C1470 1.387 . S
C1471 C1473 1.387 . S
H1472 C1479 0.950 . S
C1473 C1471 1.387 . S
C1473 C1475 1.390 . S
C1473 H1477 0.950 . S
H1474 C1470 0.950 . S
C1475 C1473 1.390 . S
C1475 C1476 1.387 . S
C1475 H1478 0.950 . S
C1476 C1475 1.387 . S
C1476 C1479 1.387 . S
H1477 C1473 0.950 . S
H1478 C1475 0.950 . S
C1479 C1470 1.390 . S
C1479 H1472 0.950 . S
C1479 C1476 1.387 . S
C1480 C1481 1.387 . S
C1480 H1484 0.950 . S
C1480 C1489 1.390 . S
C1481 C1480 1.387 . S
C1481 C1483 1.387 . S
H1482 C1489 0.950 . S
C1483 C1481 1.387 . S
C1483 C1485 1.390 . S
C1483 H1487 0.950 . S
H1484 C1480 0.950 . S
C1485 C1483 1.390 . S
C1485 C1486 1.387 . S
C1485 H1488 0.950 . S
C1486 C1485 1.387 . S
C1486 C1489 1.387 . S
H1487 C1483 0.950 . S
H1488 C1485 0.950 . S
C1489 C1480 1.390 . S
C1489 H1482 0.950 . S
C1489 C1486 1.387 . S
C1490 C1491 1.387 . S
C1490 H1494 0.950 . S
C1490 C1499 1.390 . S
C1491 C1490 1.387 . S
C1491 C1493 1.387 . S
H1492 C1499 0.950 . S
C1493 C1491 1.387 . S
C1493 C1495 1.390 . S
C1493 H1497 0.950 . S
H1494 C1490 0.950 . S
C1495 C1493 1.390 . S
C1495 C1496 1.387 . S
C1495 H1498 0.950 . S
C1496 C1495 1.387 . S
C1496 C1499 1.387 . S
H1497 C1493 0.950 . S
H1498 C1495 0.950 . S
C1499 C1490 1.390 . S
C1499 H1492 0.950 . S
C1499 C1496 1.387 . S
C1500 C1501 1.387 . S
C1500 H1504 0.950 . S
C1500 C1509 1.390 . S
C1501 C1500 1.387 . S
C1501 C1503 1.387 . S
H1502 C1509 0.950 . S
C1503 C1501 1.387 . S
C1503 C1505 1.390 . S
C1503 H1507 0.950 . S
H1504 C1500 0.950 . S
C1505 C1503 1.390 . S
C1505 C1506 1.387 . S
C1505 H1508 0.950 . S
C1506 C1505 1.387 . S
C1506 C1509 1.387 . S
H1507 C1503 0.950 . S
H1508 C1505 0.950 . S
C1509 C1500 1.390 . S
C1509 H1502 0.950 . S
C1509 C1506 1.387 . S
C1510 C1511 1.387 . S
C1510 H1514 0.950 . S
C1510 C1519 1.390 . S
C1511 C1510 1.387 . S
C1511 C1513 1.387 . S
H1512 C1519 0.950 . S
C1513 C1511 1.387 . S
C1513 C1515 1.390 . S
C1513 H1517 0.950 . S
H1514 C1510 0.950 . S
C1515 C1513 1.390 . S
C1515 C1516 1.387 . S
C1515 H1518 0.950 . S
C1516 C1515 1.387 . S
C1516 C1519 1.387 . S
H1517 C1513 0.950 . S
H1518 C1515 0.950 . S
C1519 C1510 1.390 . S
C1519 H1512 0.950 . S
C1519 C1516 1.387 . S
C1520 C1521 1.387 . S
C1520 H1524 0.950 . S
C1520 C1529 1.390 . S
C1521 C1520 1.387 . S
C1521 C1523 1.387 . S
H1522 C1529 0.950 . S
C1523 C1521 1.387 . S
C1523 C1525 1.390 . S
C1523 H1527 0.950 . S
H1524 C1520 0.950 . S
C1525 C1523 1.390 . S
C1525 C1526 1.387 . S
C1525 H1528 0.950 . S
C1526 C1525 1.387 . S
C1526 C1529 1.387 . S
H1527 C1523 0.950 . S
H1528 C1525 0.950 . S
C1529 C1520 1.390 . S
C1529 H1522 0.950 . S
C1529 C1526 1.387 . S
C1530 C1531 1.387 . S
C1530 H1534 0.950 . S
C1530 C1539 1.390 . S
C1531 C1530 1.387 . S
C1531 C1533 1.387 . S
H1532 C1539 0.950 . S
C1533 C1531 1.387 . S
C1533 C1535 1.390 . S
C1533 H1537 0.950 . S
H1534 C1530 0.950 . S
C1535 C1533 1.390 . S
C1535 C1536 1.387 . S
C1535 H1538 0.950 . S
C1536 C1535 1.387 . S
C1536 C1539 1.387 . S
H1537 C1533 0.950 . S
H1538 C1535 0.950 . S
C1539 C1530 1.390 . S
C1539 H1532 0.950 . S
C1539 C1536 1.387 . S
C1540 C1541 1.387 . S
C1540 H1544 0.950 . S
C1540 C1549 1.390 . S
C1541 C1540 1.387 . S
C1541 C1543 1.387 . S
H1542 C1549 0.950 . S
C1543 C1541 1.387 . S
C1543 C1545 1.390 . S
C1543 H1547 0.950 . S
H1544 C1540 0.950 . S
C1545 C1543 1.390 . S
C1545 C1546 1.387 . S
C1545 H1548 0.950 . S
C1546 C1545 1.387 . S
C1546 C1549 1.387 . S
H1547 C1543 0.950 . S
H1548 C1545 0.950 . S
C1549 C1540 1.390 . S
C1549 H1542 0.950 . S
C1549 C1546 1.387 . S
C1550 C1551 1.387 . S
C1550 H1554 0.950 . S
C1550 C1559 1.390 . S
C1551 C1550 1.387 . S
C1551 C1553 1.387 . S
H1552 C1559 0.950 . S
C1553 C1551 1.387 . S
C1553 C1555 1.390 . S
C1553 H1557 0.950 . S
H1554 C1550 0.950 . S
C1555 C1553 1.390 . S
C1555 C1556 1.387 . S
C1555 H1558 0.950 . S
C1556 C1555 1.387 . S
C1556 C1559 1.387 . S
H1557 C1553 0.950 . S
H1558 C1555 0.950 . S
C1559 C1550 1.390 . S
C1559 H1552 0.950 . S
C1559 C1556 1.387 . S
C1560 C1561 1.387 . S
C1560 H1564 0.950 . S
C1560 C1569 1.390 . S
C1561 C1560 1.387 . S
C1561 C1563 1.387 1_655 S
H1562 C1569 0.950 . S
C1563 C1561 1.387 1_455 S
C1563 C1565 1.390 . S
C1563 H1567 0.950 . S
H1564 C1560 0.950 . S
C1565 C1563 1.390 . S
C1565 C1566 1.387 . S
C1565 H1568 0.950 . S
C1566 C1565 1.387 . S
C1566 C1569 1.387 1_455 S
H1567 C1563 0.950 . S
H1568 C1565 0.950 . S
C1569 C1560 1.390 . S
C1569 H1562 0.950 . S
C1569 C1566 1.387 1_655 S
C1570 C1571 1.387 . S
C1570 H1574 0.950 . S
C1570 C1579 1.390 . S
C1571 C1570 1.387 . S
C1571 C1573 1.387 . S
H1572 C1579 0.950 . S
C1573 C1571 1.387 . S
C1573 C1575 1.390 . S
C1573 H1577 0.950 . S
H1574 C1570 0.950 . S
C1575 C1573 1.390 . S
C1575 C1576 1.387 . S
C1575 H1578 0.950 . S
C1576 C1575 1.387 . S
C1576 C1579 1.387 . S
H1577 C1573 0.950 . S
H1578 C1575 0.950 . S
C1579 C1570 1.390 . S
C1579 H1572 0.950 . S
C1579 C1576 1.387 . S
C1580 C1581 1.387 . S
C1580 H1584 0.950 . S
C1580 C1589 1.390 1_545 S
C1581 C1580 1.387 . S
C1581 C1583 1.387 . S
H1582 C1589 0.950 . S
C1583 C1581 1.387 . S
C1583 C1585 1.390 1_545 S
C1583 H1587 0.950 . S
H1584 C1580 0.950 . S
C1585 C1583 1.390 1_565 S
C1585 C1586 1.387 . S
C1585 H1588 0.950 . S
C1586 C1585 1.387 . S
C1586 C1589 1.387 . S
H1587 C1583 0.950 . S
H1588 C1585 0.950 . S
C1589 C1580 1.390 1_565 S
C1589 H1582 0.950 . S
C1589 C1586 1.387 . S
C1590 C1591 1.387 . S
C1590 H1594 0.950 . S
C1590 C1599 1.390 1_545 S
C1591 C1590 1.387 . S
C1591 C1593 1.387 . S
H1592 C1599 0.950 . S
C1593 C1591 1.387 . S
C1593 C1595 1.390 1_545 S
C1593 H1597 0.950 . S
H1594 C1590 0.950 . S
C1595 C1593 1.390 1_565 S
C1595 C1596 1.387 . S
C1595 H1598 0.950 . S
C1596 C1595 1.387 . S
C1596 C1599 1.387 . S
H1597 C1593 0.950 . S
H1598 C1595 0.950 . S
C1599 C1590 1.390 1_565 S
C1599 H1592 0.950 . S
C1599 C1596 1.387 . S
C1600 C1601 1.387 . S
C1600 H1604 0.950 . S
C1600 C1609 1.390 . S
C1601 C1600 1.387 . S
C1601 C1603 1.387 1_455 S
H1602 C1609 0.950 . S
C1603 C1601 1.387 1_655 S
C1603 C1605 1.390 . S
C1603 H1607 0.950 . S
H1604 C1600 0.950 . S
C1605 C1603 1.390 . S
C1605 C1606 1.387 . S
C1605 H1608 0.950 . S
C1606 C1605 1.387 . S
C1606 C1609 1.387 1_655 S
H1607 C1603 0.950 . S
H1608 C1605 0.950 . S
C1609 C1600 1.390 . S
C1609 H1602 0.950 . S
C1609 C1606 1.387 1_455 S
C1610 C1611 1.387 . S
C1610 H1614 0.950 . S
C1610 C1619 1.390 . S
C1611 C1610 1.387 . S
C1611 C1613 1.387 . S
H1612 C1619 0.950 . S
C1613 C1611 1.387 . S
C1613 C1615 1.390 . S
C1613 H1617 0.950 . S
H1614 C1610 0.950 . S
C1615 C1613 1.390 . S
C1615 C1616 1.387 . S
C1615 H1618 0.950 . S
C1616 C1615 1.387 . S
C1616 C1619 1.387 . S
H1617 C1613 0.950 . S
H1618 C1615 0.950 . S
C1619 C1610 1.390 . S
C1619 H1612 0.950 . S
C1619 C1616 1.387 . S
C1620 C1621 1.387 . S
C1620 H1624 0.950 . S
C1620 C1629 1.390 1_655 S
C1621 C1620 1.387 . S
C1621 C1623 1.387 . S
H1622 C1629 0.950 . S
C1623 C1621 1.387 . S
C1623 C1625 1.390 1_655 S
C1623 H1627 0.950 . S
H1624 C1620 0.950 . S
C1625 C1623 1.390 1_455 S
C1625 C1626 1.387 . S
C1625 H1628 0.950 . S
C1626 C1625 1.387 . S
C1626 C1629 1.387 . S
H1627 C1623 0.950 . S
H1628 C1625 0.950 . S
C1629 C1620 1.390 1_455 S
C1629 H1622 0.950 . S
C1629 C1626 1.387 . S
C1630 C1631 1.387 . S
C1630 H1634 0.950 . S
C1630 C1639 1.390 . S
C1631 C1630 1.387 . S
C1631 C1633 1.387 . S
H1632 C1639 0.950 . S
C1633 C1631 1.387 . S
C1633 C1635 1.390 . S
C1633 H1637 0.950 . S
H1634 C1630 0.950 . S
C1635 C1633 1.390 . S
C1635 C1636 1.387 . S
C1635 H1638 0.950 . S
C1636 C1635 1.387 . S
C1636 C1639 1.387 . S
H1637 C1633 0.950 . S
H1638 C1635 0.950 . S
C1639 C1630 1.390 . S
C1639 H1632 0.950 . S
C1639 C1636 1.387 . S
C1640 C1641 1.387 . S
C1640 H1644 0.950 . S
C1640 C1649 1.390 1_545 S
C1641 C1640 1.387 . S
C1641 C1643 1.387 . S
H1642 C1649 0.950 . S
C1643 C1641 1.387 . S
C1643 C1645 1.390 1_545 S
C1643 H1647 0.950 . S
H1644 C1640 0.950 . S
C1645 C1643 1.390 1_565 S
C1645 C1646 1.387 . S
C1645 H1648 0.950 . S
C1646 C1645 1.387 . S
C1646 C1649 1.387 . S
H1647 C1643 0.950 . S
H1648 C1645 0.950 . S
C1649 C1640 1.390 1_565 S
C1649 H1642 0.950 . S
C1649 C1646 1.387 . S
C1650 C1651 1.387 1_455 S
C1650 H1654 0.950 . S
C1650 C1659 1.390 . S
C1651 C1650 1.387 1_655 S
C1651 C1653 1.387 . S
H1652 C1659 0.950 . S
C1653 C1651 1.387 . S
C1653 C1655 1.390 . S
C1653 H1657 0.950 . S
H1654 C1650 0.950 . S
C1655 C1653 1.390 . S
C1655 C1656 1.387 1_655 S
C1655 H1658 0.950 . S
C1656 C1655 1.387 1_455 S
C1656 C1659 1.387 . S
H1657 C1653 0.950 . S
H1658 C1655 0.950 . S
C1659 C1650 1.390 . S
C1659 H1652 0.950 . S
C1659 C1656 1.387 . S
C1660 C1661 1.387 . S
C1660 H1664 0.950 . S
C1660 C1669 1.390 . S
C1661 C1660 1.387 . S
C1661 C1663 1.387 . S
H1662 C1669 0.950 . S
C1663 C1661 1.387 . S
C1663 C1665 1.390 . S
C1663 H1667 0.950 . S
H1664 C1660 0.950 . S
C1665 C1663 1.390 . S
C1665 C1666 1.387 . S
C1665 H1668 0.950 . S
C1666 C1665 1.387 . S
C1666 C1669 1.387 . S
H1667 C1663 0.950 . S
H1668 C1665 0.950 . S
C1669 C1660 1.390 . S
C1669 H1662 0.950 . S
C1669 C1666 1.387 . S
C1670 C1671 1.387 . S
C1670 H1674 0.950 . S
C1670 C1679 1.390 1_545 S
C1671 C1670 1.387 . S
C1671 C1673 1.387 . S
H1672 C1679 0.950 . S
C1673 C1671 1.387 . S
C1673 C1675 1.390 1_545 S
C1673 H1677 0.950 . S
H1674 C1670 0.950 . S
C1675 C1673 1.390 1_565 S
C1675 C1676 1.387 . S
C1675 H1678 0.950 . S
C1676 C1675 1.387 . S
C1676 C1679 1.387 . S
H1677 C1673 0.950 . S
H1678 C1675 0.950 . S
C1679 C1670 1.390 1_565 S
C1679 H1672 0.950 . S
C1679 C1676 1.387 . S
C1680 C1681 1.387 . S
C1680 H1684 0.950 . S
C1680 C1689 1.390 . S
C1681 C1680 1.387 . S
C1681 C1683 1.387 . S
H1682 C1689 0.950 . S
C1683 C1681 1.387 . S
C1683 C1685 1.390 . S
C1683 H1687 0.950 . S
H1684 C1680 0.950 . S
C1685 C1683 1.390 . S
C1685 C1686 1.387 . S
C1685 H1688 0.950 . S
C1686 C1685 1.387 . S
C1686 C1689 1.387 . S
H1687 C1683 0.950 . S
H1688 C1685 0.950 . S
C1689 C1680 1.390 . S
C1689 H1682 0.950 . S
C1689 C1686 1.387 . S
C1690 C1691 1.387 . S
C1690 H1694 0.950 . S
C1690 C1699 1.390 . S
C1691 C1690 1.387 . S
C1691 C1693 1.387 . S
H1692 C1699 0.950 . S
C1693 C1691 1.387 . S
C1693 C1695 1.390 . S
C1693 H1697 0.950 . S
H1694 C1690 0.950 . S
C1695 C1693 1.390 . S
C1695 C1696 1.387 . S
C1695 H1698 0.950 . S
C1696 C1695 1.387 . S
C1696 C1699 1.387 . S
H1697 C1693 0.950 . S
H1698 C1695 0.950 . S
C1699 C1690 1.390 . S
C1699 H1692 0.950 . S
C1699 C1696 1.387 . S
C1700 C1701 1.387 . S
C1700 H1704 0.950 . S
C1700 C1709 1.390 . S
C1701 C1700 1.387 . S
C1701 C1703 1.387 . S
H1702 C1709 0.950 . S
C1703 C1701 1.387 . S
C1703 C1705 1.390 . S
C1703 H1707 0.950 . S
H1704 C1700 0.950 . S
C1705 C1703 1.390 . S
C1705 C1706 1.387 . S
C1705 H1708 0.950 . S
C1706 C1705 1.387 . S
C1706 C1709 1.387 . S
H1707 C1703 0.950 . S
H1708 C1705 0.950 . S
C1709 C1700 1.390 . S
C1709 H1702 0.950 . S
C1709 C1706 1.387 . S
C1710 C1711 1.387 . S
C1710 H1714 0.950 . S
C1710 C1719 1.390 . S
C1711 C1710 1.387 . S
C1711 C1713 1.387 . S
H1712 C1719 0.950 . S
C1713 C1711 1.387 . S
C1713 C1715 1.390 . S
C1713 H1717 0.950 . S
H1714 C1710 0.950 . S
C1715 C1713 1.390 . S
C1715 C1716 1.387 . S
C1715 H1718 0.950 . S
C1716 C1715 1.387 . S
C1716 C1719 1.387 . S
H1717 C1713 0.950 . S
H1718 C1715 0.950 . S
C1719 C1710 1.390 . S
C1719 H1712 0.950 . S
C1719 C1716 1.387 . S
C1720 C1721 1.387 . S
C1720 H1724 0.950 . S
C1720 C1729 1.390 . S
C1721 C1720 1.387 . S
C1721 C1723 1.387 . S
H1722 C1729 0.950 . S
C1723 C1721 1.387 . S
C1723 C1725 1.390 . S
C1723 H1727 0.950 . S
H1724 C1720 0.950 . S
C1725 C1723 1.390 . S
C1725 C1726 1.387 . S
C1725 H1728 0.950 . S
C1726 C1725 1.387 . S
C1726 C1729 1.387 . S
H1727 C1723 0.950 . S
H1728 C1725 0.950 . S
C1729 C1720 1.390 . S
C1729 H1722 0.950 . S
C1729 C1726 1.387 . S
C1730 C1731 1.387 . S
C1730 H1734 0.950 . S
C1730 C1739 1.390 . S
C1731 C1730 1.387 . S
C1731 C1733 1.387 . S
H1732 C1739 0.950 . S
C1733 C1731 1.387 . S
C1733 C1735 1.390 . S
C1733 H1737 0.950 . S
H1734 C1730 0.950 . S
C1735 C1733 1.390 . S
C1735 C1736 1.387 . S
C1735 H1738 0.950 . S
C1736 C1735 1.387 . S
C1736 C1739 1.387 . S
H1737 C1733 0.950 . S
H1738 C1735 0.950 . S
C1739 C1730 1.390 . S
C1739 H1732 0.950 . S
C1739 C1736 1.387 . S
C1740 C1741 1.387 . S
C1740 H1744 0.950 . S
C1740 C1749 1.390 . S
C1741 C1740 1.387 . S
C1741 C1743 1.387 . S
H1742 C1749 0.950 . S
C1743 C1741 1.387 . S
C1743 C1745 1.390 . S
C1743 H1747 0.950 . S
H1744 C1740 0.950 . S
C1745 C1743 1.390 . S
C1745 C1746 1.387 . S
C1745 H1748 0.950 . S
C1746 C1745 1.387 . S
C1746 C1749 1.387 . S
H1747 C1743 0.950 . S
H1748 C1745 0.950 . S
C1749 C1740 1.390 . S
C1749 H1742 0.950 . S
C1749 C1746 1.387 . S
C1750 C1751 1.387 . S
C1750 H1754 0.950 . S
C1750 C1759 1.390 . S
C1751 C1750 1.387 . S
C1751 C1753 1.387 . S
H1752 C1759 0.950 . S
C1753 C1751 1.387 . S
C1753 C1755 1.390 . S
C1753 H1757 0.950 . S
H1754 C1750 0.950 . S
C1755 C1753 1.390 . S
C1755 C1756 1.387 . S
C1755 H1758 0.950 . S
C1756 C1755 1.387 . S
C1756 C1759 1.387 . S
H1757 C1753 0.950 . S
H1758 C1755 0.950 . S
C1759 C1750 1.390 . S
C1759 H1752 0.950 . S
C1759 C1756 1.387 . S
C1760 C1761 1.387 . S
C1760 H1764 0.950 . S
C1760 C1769 1.390 . S
C1761 C1760 1.387 . S
C1761 C1763 1.387 . S
H1762 C1769 0.950 . S
C1763 C1761 1.387 . S
C1763 C1765 1.390 . S
C1763 H1767 0.950 . S
H1764 C1760 0.950 . S
C1765 C1763 1.390 . S
C1765 C1766 1.387 . S
C1765 H1768 0.950 . S
C1766 C1765 1.387 . S
C1766 C1769 1.387 . S
H1767 C1763 0.950 . S
H1768 C1765 0.950 . S
C1769 C1760 1.390 . S
C1769 H1762 0.950 . S
C1769 C1766 1.387 . S
C1770 C1771 1.387 . S
C1770 H1774 0.950 . S
C1770 C1779 1.390 . S
C1771 C1770 1.387 . S
C1771 C1773 1.387 . S
H1772 C1779 0.950 . S
C1773 C1771 1.387 . S
C1773 C1775 1.390 . S
C1773 H1777 0.950 . S
H1774 C1770 0.950 . S
C1775 C1773 1.390 . S
C1775 C1776 1.387 . S
C1775 H1778 0.950 . S
C1776 C1775 1.387 . S
C1776 C1779 1.387 . S
H1777 C1773 0.950 . S
H1778 C1775 0.950 . S
C1779 C1770 1.390 . S
C1779 H1772 0.950 . S
C1779 C1776 1.387 . S
C1780 C1781 1.387 . S
C1780 H1784 0.950 . S
C1780 C1789 1.390 . S
C1781 C1780 1.387 . S
C1781 C1783 1.387 . S
H1782 C1789 0.950 . S
C1783 C1781 1.387 . S
C1783 C1785 1.390 . S
C1783 H1787 0.950 . S
H1784 C1780 0.950 . S
C1785 C1783 1.390 . S
C1785 C1786 1.387 . S
C1785 H1788 0.950 . S
C1786 C1785 1.387 . S
C1786 C1789 1.387 . S
H1787 C1783 0.950 . S
H1788 C1785 0.950 . S
C1789 C1780 1.390 . S
C1789 H1782 0.950 . S
C1789 C1786 1.387 . S
C1790 C1791 1.387 . S
C1790 H1794 0.950 . S
C1790 C1799 1.390 . S
C1791 C1790 1.387 . S
C1791 C1793 1.387 . S
H1792 C1799 0.950 . S
C1793 C1791 1.387 . S
C1793 C1795 1.390 . S
C1793 H1797 0.950 . S
H1794 C1790 0.950 . S
C1795 C1793 1.390 . S
C1795 C1796 1.387 . S
C1795 H1798 0.950 . S
C1796 C1795 1.387 . S
C1796 C1799 1.387 . S
H1797 C1793 0.950 . S
H1798 C1795 0.950 . S
C1799 C1790 1.390 . S
C1799 H1792 0.950 . S
C1799 C1796 1.387 . S
C721 C18 1.482 . S
C726 C42 1.421 . S
C731 C2 1.421 . S
C736 C38 1.475 1_545 S
C741 C58 1.463 1_655 S
C746 C22 1.420 . S
C751 C78 1.511 . S
C756 C82 1.446 . S
C761 C102 1.447 . S
C766 C98 1.488 1_565 S
C771 C118 1.500 1_455 S
C776 C62 1.448 . S
C781 C139 1.481 . S
C786 C164 1.420 . S
C791 C159 1.471 1_565 S
C796 C124 1.419 . S
C801 C179 1.463 1_455 S
C806 C144 1.420 . S
C811 C199 1.512 . S
C816 C204 1.447 . S
C821 C224 1.446 . S
C826 C219 1.511 1_545 S
C831 C184 1.448 . S
C836 C239 1.500 1_655 S
C841 C282 1.446 . S
C846 C258 1.509 . S
C851 C278 1.509 . S
C856 C242 1.446 . S
C861 C262 1.447 . S
C866 C298 1.510 . S
C871 C318 1.522 . S
C876 C322 1.457 . S
C881 C342 1.456 . S
C886 C338 1.522 . S
C891 C302 1.457 . S
C896 C358 1.522 . S
C901 C379 1.501 . S
C906 C404 1.442 . S
C911 C399 1.501 . S
C916 C364 1.442 . S
C921 C384 1.442 . S
C926 C419 1.501 . S
C931 C444 1.393 . S
C936 C439 1.463 . S
C941 C459 1.463 . S
C946 C464 1.392 . S
C951 C424 1.394 . S
C956 C479 1.464 . S
C961 C498 1.501 . S
C966 C522 1.442 . S
C971 C518 1.500 . S
C976 C482 1.441 . S
C981 C538 1.500 . S
C986 C502 1.441 . S
C991 C558 1.463 . S
C996 C562 1.393 . S
C1001 C578 1.464 . S
C1006 C582 1.394 . S
C1011 C598 1.464 . S
C1016 C542 1.394 . S
C1021 C619 1.510 . S
C1026 C644 1.447 . S
C1031 C639 1.509 . S
C1036 C604 1.446 . S
C1041 C624 1.446 . S
C1046 C659 1.509 . S
C1051 C679 1.523 . S
C1056 C684 1.457 . S
C1061 C699 1.523 . S
C1066 C704 1.458 . S
C1071 C664 1.457 . S
C1076 C719 1.522 . S
C1081 C4 1.351 . S
C1086 C418 1.468 . S
C1091 C378 1.456 1_565 S
C1096 C24 1.352 . S
C1101 C44 1.353 . S
C1106 C398 1.462 1_455 S
C1111 C64 1.331 . S
C1116 C698 1.421 . S
C1121 C718 1.414 1_545 S
C1126 C84 1.331 . S
C1131 C104 1.331 . S
C1136 C678 1.401 1_655 S
C1141 C539 1.465 . S
C1146 C122 1.352 . S
C1151 C142 1.352 . S
C1156 C499 1.456 1_545 S
C1161 C162 1.353 . S
C1166 C519 1.462 1_655 S
C1171 C339 1.424 . S
C1176 C182 1.328 . S
C1181 C359 1.414 1_565 S
C1186 C202 1.332 . S
C1191 C319 1.424 1_455 S
C1196 C222 1.328 . S
C1201 C244 1.339 . S
C1206 C658 1.446 . S
C1211 C264 1.341 . S
C1216 C618 1.443 . S
C1221 C638 1.445 . S
C1226 C284 1.339 . S
C1231 C218 1.438 . S
C1236 C304 1.345 . S
C1241 C238 1.438 . S
C1246 C324 1.345 . S
C1251 C198 1.438 . S
C1256 C344 1.346 . S
C1261 C59 1.465 . S
C1266 C362 1.352 . S
C1271 C382 1.350 . S
C1276 C19 1.468 . S
C1281 C402 1.350 . S
C1286 C39 1.467 . S
C1291 C579 1.465 . S
C1296 C422 1.412 . S
C1301 C599 1.467 . S
C1306 C442 1.410 . S
C1311 C462 1.403 . S
C1316 C559 1.468 . S
C1321 C178 1.465 . S
C1326 C484 1.352 . S
C1331 C138 1.468 . S
C1336 C504 1.350 . S
C1341 C158 1.467 . S
C1346 C524 1.349 . S
C1351 C544 1.405 . S
C1356 C458 1.465 . S
C1361 C478 1.465 . S
C1366 C564 1.413 . S
C1371 C584 1.407 . S
C1376 C438 1.465 . S
C1381 C602 1.341 . S
C1386 C299 1.443 . S
C1391 C622 1.338 . S
C1396 C259 1.446 . S
C1401 C642 1.341 . S
C1406 C279 1.443 . S
C1411 C662 1.346 . S
C1416 C99 1.438 . S
C1421 C119 1.439 . S
C1426 C682 1.342 . S
C1431 C79 1.438 . S
C1436 C702 1.346 . S
C1441 C592 1.796 . S
C1446 C12 1.782 . S
C1451 C552 1.798 . S
C1456 C32 1.784 . S
C1461 C52 1.792 . S
C1466 C572 1.790 . S
C1471 C272 1.923 . S
C1476 C72 1.924 . S
C1481 C92 1.924 . S
C1486 C292 1.923 . S
C1491 C112 1.922 . S
C1496 C252 1.921 . S
C1501 C129 1.790 . S
C1506 C469 1.788 . S
C1511 C149 1.792 . S
C1516 C429 1.790 . S
C1521 C169 1.792 . S
C1526 C449 1.790 . S
C1531 C629 1.923 . S
C1536 C189 1.924 . S
C1541 C649 1.921 . S
C1546 C209 1.923 . S
C1551 C609 1.921 . S
C1556 C229 1.922 . S
C1561 C312 1.959 . S
C1566 C512 1.957 . S
C1571 C332 1.959 . S
C1576 C532 1.957 . S
C1581 C352 1.958 . S
C1586 C492 1.955 . S
C1591 C369 1.955 . S
C1596 C709 1.958 . S
C1601 C669 1.958 . S
C1606 C389 1.956 . S
C1611 C409 1.955 . S
C1616 C689 1.958 . S
C1621 C89 1.406 . S
C1626 C9 1.405 . S
C1631 C109 1.402 . S
C1636 C29 1.400 . S
C1641 C69 1.407 . S
C1646 C49 1.405 . S
C1651 C132 1.402 . S
C1656 C212 1.404 . S
C1661 C232 1.403 . S
C1666 C152 1.400 . S
C1671 C172 1.405 . S
C1676 C192 1.407 . S
C1681 C329 1.448 . S
C1686 C249 1.446 . S
C1691 C349 1.447 . S
C1696 C269 1.446 . S
C1701 C309 1.448 . S
C1706 C289 1.447 . S
C1711 C452 1.561 . S
C1716 C372 1.558 . S
C1721 C392 1.549 . S
C1726 C472 1.567 . S
C1731 C412 1.549 . S
C1736 C432 1.568 . S
C1741 C489 1.550 . S
C1746 C569 1.568 . S
C1751 C589 1.561 . S
C1756 C509 1.557 . S
C1761 C529 1.549 . S
C1766 C549 1.568 . S
C1771 C612 1.442 . S
C1776 C692 1.444 . S
C1781 C712 1.445 . S
C1786 C632 1.443 . S
C1791 C652 1.447 . S
C1796 C672 1.448 . S
