# Generated by pormake.
# Topology etd, (3)-cn, num edge types: 1
# Building blocks:
#     Node 0, Type 0, BuildingBlock: WUSLED_clean_sbu_0, # of connection points: 3
#     Node 1, Type 0, BuildingBlock: WUSLED_clean_sbu_0, # of connection points: 3
#     Node 2, Type 0, BuildingBlock: WUSLED_clean_sbu_0, # of connection points: 3
#     Node 3, Type 0, BuildingBlock: WUSLED_clean_sbu_0, # of connection points: 3
#     Node 4, Type 0, BuildingBlock: WUSLED_clean_sbu_0, # of connection points: 3
#     Node 5, Type 0, BuildingBlock: WUSLED_clean_sbu_0, # of connection points: 3
#     Node 6, Type 0, BuildingBlock: WUSLED_clean_sbu_0, # of connection points: 3
#     Node 7, Type 0, BuildingBlock: WUSLED_clean_sbu_0, # of connection points: 3
#     Node 8, Type 0, BuildingBlock: WUSLED_clean_sbu_0, # of connection points: 3
#     Node 9, Type 0, BuildingBlock: WUSLED_clean_sbu_0, # of connection points: 3
#     Node 10, Type 0, BuildingBlock: WUSLED_clean_sbu_0, # of connection points: 3
#     Node 11, Type 0, BuildingBlock: WUSLED_clean_sbu_0, # of connection points: 3
#     Edge 12, Type (0, 0), BuildingBlock: XIVTED_clean_linker_0, # of connection points: 2
#     Edge 13, Type (0, 0), BuildingBlock: XIVTED_clean_linker_0, # of connection points: 2
#     Edge 14, Type (0, 0), BuildingBlock: XIVTED_clean_linker_0, # of connection points: 2
#     Edge 15, Type (0, 0), BuildingBlock: XIVTED_clean_linker_0, # of connection points: 2
#     Edge 16, Type (0, 0), BuildingBlock: XIVTED_clean_linker_0, # of connection points: 2
#     Edge 17, Type (0, 0), BuildingBlock: XIVTED_clean_linker_0, # of connection points: 2
#     Edge 18, Type (0, 0), BuildingBlock: XIVTED_clean_linker_0, # of connection points: 2
#     Edge 19, Type (0, 0), BuildingBlock: XIVTED_clean_linker_0, # of connection points: 2
#     Edge 20, Type (0, 0), BuildingBlock: XIVTED_clean_linker_0, # of connection points: 2
#     Edge 21, Type (0, 0), BuildingBlock: XIVTED_clean_linker_0, # of connection points: 2
#     Edge 22, Type (0, 0), BuildingBlock: XIVTED_clean_linker_0, # of connection points: 2
#     Edge 23, Type (0, 0), BuildingBlock: XIVTED_clean_linker_0, # of connection points: 2
#     Edge 24, Type (0, 0), BuildingBlock: XIVTED_clean_linker_0, # of connection points: 2
#     Edge 25, Type (0, 0), BuildingBlock: XIVTED_clean_linker_0, # of connection points: 2
#     Edge 26, Type (0, 0), BuildingBlock: XIVTED_clean_linker_0, # of connection points: 2
#     Edge 27, Type (0, 0), BuildingBlock: XIVTED_clean_linker_0, # of connection points: 2
#     Edge 28, Type (0, 0), BuildingBlock: XIVTED_clean_linker_0, # of connection points: 2
#     Edge 29, Type (0, 0), BuildingBlock: XIVTED_clean_linker_0, # of connection points: 2
# Relax obj value: 0.000
# Max RMSD: 0.002
# Mean RMSD: 0.002
data_MOF--net-etd--node1-WUSLED_clean_sbu_0--edge1-XIVTED_clean_linker_0
_symmetry_space_group_name_H-M    P1
_symmetry_Int_Tables_number       1
_symmetry_cell_setting            triclinic
loop_
_symmetry_equiv_pos_as_xyz
'x, y, z'
_cell_length_a     90.849942
_cell_length_b     90.831428
_cell_length_c     65.62498
_cell_angle_alpha  89.926448
_cell_angle_beta   89.985428
_cell_angle_gamma 119.94466
loop_
_atom_site_label
_atom_site_type_symbol
_atom_site_fract_x
_atom_site_fract_y
_atom_site_fract_z
_atom_type_partial_charge
C0 C 0.5072 0.17254 0.09518 0.0
C1 C 0.50848 0.1809 0.11364 0.0
C2 C 0.50886 0.20451 0.09529 0.0
C3 C 0.50925 0.1967 0.1137 0.0
C4 C 0.50785 0.19614 0.07684 0.0
C5 C 0.507 0.18032 0.07682 0.0
U6 U 0.51561 0.13872 0.11839 0.0
O7 O 0.49909 0.11093 0.12015 0.0
O8 O 0.52337 0.12185 0.1038 0.0
C9 C 0.50901 0.108 0.10827 0.0
C10 C 0.50596 0.15572 0.09474 0.0
C11 C 0.5006 0.09534 0.09171 0.0
C12 C 0.50187 0.08334 0.05896 0.0
C13 C 0.50926 0.09627 0.07355 0.0
C14 C 0.47687 0.06838 0.08015 0.0
C15 C 0.48566 0.06912 0.06218 0.0
C16 C 0.48428 0.08128 0.09476 0.0
C17 C 0.53972 0.14869 0.16957 0.0
C18 C 0.55617 0.13654 0.18344 0.0
C19 C 0.54764 0.15239 0.20537 0.0
C20 C 0.5395 0.1551 0.18891 0.0
C21 C 0.55624 0.14323 0.20281 0.0
C22 C 0.54794 0.13919 0.16697 0.0
C23 C 0.53196 0.15278 0.15231 0.0
O24 O 0.52037 0.15582 0.09227 0.0
O25 O 0.49608 0.14478 0.10862 0.0
O26 O 0.5153 0.14399 0.15114 0.0
O27 O 0.53949 0.1551 0.13453 0.0
H28 H 0.50874 0.17515 0.12801 0.0
H29 H 0.50984 0.20263 0.12821 0.0
H30 H 0.50784 0.20185 0.06236 0.0
H31 H 0.50614 0.17414 0.06241 0.0
H32 H 0.50893 0.08444 0.0452 0.0
H33 H 0.52191 0.1068 0.07072 0.0
H34 H 0.46448 0.05753 0.08329 0.0
H35 H 0.47737 0.08001 0.10872 0.0
H36 H 0.5625 0.12926 0.18099 0.0
H37 H 0.54761 0.15791 0.21997 0.0
H38 H 0.53328 0.16251 0.19122 0.0
H39 H 0.54819 0.13403 0.15219 0.0
C40 C 0.35433 0.49577 0.26299 0.0
C41 C 0.35287 0.50755 0.2754 0.0
C42 C 0.32419 0.4977 0.26263 0.0
C43 C 0.33795 0.50853 0.27521 0.0
C44 C 0.32574 0.48583 0.25036 0.0
C45 C 0.34066 0.48491 0.25054 0.0
U46 U 0.39653 0.50458 0.28655 0.0
O47 O 0.40787 0.48812 0.28861 0.0
O48 O 0.4212 0.51232 0.27208 0.0
C49 C 0.4207 0.49797 0.27667 0.0
C50 C 0.36994 0.4946 0.26279 0.0
C51 C 0.42486 0.48945 0.26012 0.0
C52 C 0.42782 0.46555 0.24854 0.0
C53 C 0.42264 0.47315 0.26328 0.0
C54 C 0.43755 0.49035 0.22704 0.0
C55 C 0.43551 0.47411 0.23029 0.0
C56 C 0.43233 0.49794 0.24177 0.0
C57 C 0.41032 0.52886 0.33758 0.0
C58 C 0.43868 0.54269 0.3523 0.0
C59 C 0.41475 0.53893 0.37255 0.0
C60 C 0.4039 0.53096 0.35609 0.0
C61 C 0.4323 0.54502 0.37085 0.0
C62 C 0.42777 0.53463 0.33581 0.0
C63 C 0.39859 0.52107 0.32029 0.0
O64 O 0.38422 0.50901 0.26026 0.0
O65 O 0.37093 0.4849 0.27697 0.0
O66 O 0.3908 0.50441 0.31922 0.0
O67 O 0.40395 0.52856 0.30251 0.0
H68 H 0.36329 0.51604 0.28516 0.0
H69 H 0.33731 0.51794 0.28469 0.0
H70 H 0.31534 0.47708 0.24077 0.0
H71 H 0.34151 0.47566 0.24095 0.0
H72 H 0.42584 0.45295 0.25149 0.0
H73 H 0.41712 0.46633 0.27733 0.0
H74 H 0.44364 0.49746 0.21335 0.0
H75 H 0.4345 0.51061 0.23891 0.0
H76 H 0.45209 0.54705 0.35053 0.0
H77 H 0.40942 0.54071 0.38647 0.0
H78 H 0.39048 0.52663 0.35772 0.0
H79 H 0.43296 0.53304 0.32166 0.0
C80 C 0.87811 0.3448 0.42773 0.0
C81 C 0.86515 0.34317 0.44081 0.0
C82 C 0.84603 0.31473 0.42758 0.0
C83 C 0.84925 0.32829 0.44072 0.0
C84 C 0.85916 0.31648 0.41461 0.0
C85 C 0.87502 0.33136 0.41469 0.0
U86 U 0.91148 0.38684 0.45144 0.0
O87 O 0.93922 0.39792 0.4538 0.0
O88 O 0.92868 0.41151 0.43714 0.0
C89 C 0.9424 0.41085 0.44191 0.0
C90 C 0.89492 0.36033 0.42756 0.0
C91 C 0.95523 0.41496 0.42557 0.0
C92 C 0.96651 0.42604 0.39175 0.0
C93 C 0.95357 0.42082 0.40632 0.0
C94 C 0.98296 0.41946 0.4152 0.0
C95 C 0.98147 0.4256 0.39606 0.0
C96 C 0.97005 0.41429 0.42978 0.0
C97 C 0.90075 0.4005 0.50249 0.0
C98 C 0.91382 0.42887 0.51717 0.0
C99 C 0.89612 0.4043 0.53812 0.0
C100 C 0.89339 0.39367 0.52145 0.0
C101 C 0.90627 0.42204 0.53618 0.0
C102 C 0.91113 0.41818 0.50048 0.0
C103 C 0.8969 0.3889 0.48506 0.0
O104 O 0.8949 0.37468 0.42502 0.0
O105 O 0.90551 0.36122 0.44179 0.0
O106 O 0.90562 0.38095 0.48404 0.0
O107 O 0.89497 0.39441 0.46727 0.0
H108 H 0.86732 0.35341 0.45103 0.0
H109 H 0.83942 0.3275 0.45075 0.0
H110 H 0.85729 0.30624 0.40456 0.0
H111 H 0.88491 0.33235 0.40458 0.0
H112 H 0.96498 0.4309 0.37731 0.0
H113 H 0.94243 0.42171 0.40259 0.0
H114 H 0.99415 0.41869 0.419 0.0
H115 H 0.97179 0.41 0.44452 0.0
H116 H 0.92186 0.44245 0.51521 0.0
H117 H 0.88991 0.3986 0.55241 0.0
H118 H 0.8853 0.38007 0.5233 0.0
H119 H 0.91703 0.42374 0.48599 0.0
C120 C 0.55199 0.86694 0.59638 0.0
C121 C 0.54633 0.8566 0.61381 0.0
C122 C 0.54996 0.83483 0.59647 0.0
C123 C 0.54536 0.8407 0.61387 0.0
C124 C 0.5555 0.84526 0.57902 0.0
C125 C 0.5565 0.86114 0.579 0.0
U126 U 0.54336 0.90081 0.61908 0.0
O127 O 0.56014 0.92854 0.62112 0.0
O128 O 0.53634 0.91802 0.60386 0.0
C129 C 0.55068 0.93173 0.60874 0.0
C130 C 0.55341 0.88382 0.59604 0.0
C131 C 0.55966 0.94441 0.59231 0.0
C132 C 0.58391 0.97125 0.58129 0.0
C133 C 0.57594 0.95836 0.59587 0.0
C134 C 0.55956 0.9565 0.55913 0.0
C135 C 0.57575 0.9706 0.56281 0.0
C136 C 0.55161 0.9436 0.5737 0.0
C137 C 0.51763 0.89105 0.6693 0.0
C138 C 0.51841 0.90129 0.70386 0.0
C139 C 0.49216 0.88876 0.68476 0.0
C140 C 0.50032 0.88616 0.66823 0.0
C141 C 0.50104 0.89621 0.70288 0.0
C142 C 0.52659 0.8987 0.68731 0.0
C143 C 0.52583 0.88682 0.65245 0.0
O144 O 0.53916 0.88391 0.593 0.0
O145 O 0.56288 0.89439 0.6104 0.0
O146 O 0.54253 0.89516 0.65184 0.0
O147 O 0.51888 0.88457 0.6343 0.0
H148 H 0.54271 0.86084 0.62736 0.0
H149 H 0.54084 0.83294 0.62749 0.0
H150 H 0.55937 0.8413 0.56546 0.0
H151 H 0.56092 0.86896 0.56542 0.0
H152 H 0.59645 0.98177 0.58458 0.0
H153 H 0.58242 0.9595 0.61013 0.0
H154 H 0.55276 0.95567 0.54524 0.0
H155 H 0.53896 0.9332 0.57052 0.0
H156 H 0.52571 0.90722 0.71747 0.0
H157 H 0.47871 0.88442 0.68355 0.0
H158 H 0.49293 0.87995 0.65477 0.0
H159 H 0.53988 0.90243 0.6888 0.0
C160 C 0.70442 0.54206 0.76195 0.0
C161 C 0.71066 0.53938 0.78032 0.0
C162 C 0.73444 0.53994 0.7623 0.0
C163 C 0.72556 0.5384 0.7805 0.0
C164 C 0.72795 0.54237 0.7439 0.0
C165 C 0.71311 0.54344 0.74376 0.0
U166 U 0.66254 0.53423 0.78533 0.0
O167 O 0.65176 0.55118 0.78755 0.0
O168 O 0.63799 0.52708 0.77095 0.0
C169 C 0.6388 0.54153 0.77571 0.0
C170 C 0.68901 0.54361 0.7615 0.0
C171 C 0.63477 0.55035 0.75944 0.0
C172 C 0.62497 0.5514 0.72515 0.0
C173 C 0.63021 0.54363 0.73966 0.0
C174 C 0.62904 0.57293 0.74976 0.0
C175 C 0.62411 0.56605 0.73009 0.0
C176 C 0.63423 0.56514 0.76425 0.0
C177 C 0.64844 0.51 0.83644 0.0
C178 C 0.62009 0.49667 0.85122 0.0
C179 C 0.64377 0.49964 0.87134 0.0
C180 C 0.65469 0.50756 0.85488 0.0
C181 C 0.62629 0.49396 0.86969 0.0
C182 C 0.63108 0.50467 0.83475 0.0
C183 C 0.66019 0.51761 0.81911 0.0
O184 O 0.6746 0.52933 0.75905 0.0
O185 O 0.68816 0.55353 0.77545 0.0
O186 O 0.66829 0.53428 0.81797 0.0
O187 O 0.65467 0.51017 0.80137 0.0
H188 H 0.70405 0.53814 0.79453 0.0
H189 H 0.73007 0.5363 0.79489 0.0
H190 H 0.73454 0.54379 0.72965 0.0
H191 H 0.70849 0.54551 0.72943 0.0
H192 H 0.62109 0.54561 0.71027 0.0
H193 H 0.63034 0.53217 0.73545 0.0
H194 H 0.62883 0.58433 0.75404 0.0
H195 H 0.63755 0.57055 0.7794 0.0
H196 H 0.60675 0.49263 0.8495 0.0
H197 H 0.64896 0.49756 0.88518 0.0
H198 H 0.66804 0.51154 0.85645 0.0
H199 H 0.62601 0.50653 0.82065 0.0
C200 C 0.18073 0.69488 0.92934 0.0
C201 C 0.19336 0.69685 0.94317 0.0
C202 C 0.21279 0.72496 0.92921 0.0
C203 C 0.20925 0.71174 0.9431 0.0
C204 C 0.19999 0.72286 0.91544 0.0
C205 C 0.18415 0.70797 0.91551 0.0
U206 U 0.14748 0.65268 0.95296 0.0
O207 O 0.11975 0.64148 0.95552 0.0
O208 O 0.13033 0.62809 0.93857 0.0
C209 C 0.11658 0.62866 0.9435 0.0
C210 C 0.16393 0.67934 0.92917 0.0
C211 C 0.1037 0.62459 0.92726 0.0
C212 C 0.09193 0.6129 0.89384 0.0
C213 C 0.10495 0.6181 0.90828 0.0
C214 C 0.07623 0.62076 0.91688 0.0
C215 C 0.07731 0.61399 0.89802 0.0
C216 C 0.08922 0.62591 0.93132 0.0
C217 C 0.15836 0.63866 1.00363 0.0
C218 C 0.14374 0.61027 0.01836 0.0
C219 C 0.16432 0.63403 0.03841 0.0
C220 C 0.16712 0.64496 0.022 0.0
C221 C 0.15269 0.61652 0.03677 0.0
C222 C 0.14651 0.62125 1.00194 0.0
C223 C 0.1622 0.65045 0.98639 0.0
O224 O 0.164 0.66503 0.92649 0.0
O225 O 0.15338 0.67833 0.94352 0.0
O226 O 0.15339 0.65833 0.98557 0.0
O227 O 0.1641 0.64509 0.96851 0.0
H228 H 0.19094 0.68686 0.95398 0.0
H229 H 0.21883 0.71281 0.95377 0.0
H230 H 0.20211 0.73283 0.90477 0.0
H231 H 0.17451 0.70671 0.9048 0.0
H232 H 0.09313 0.60754 0.87963 0.0
H233 H 0.1158 0.61667 0.90468 0.0
H234 H 0.0653 0.62203 0.92057 0.0
H235 H 0.08777 0.63069 0.94586 0.0
H236 H 0.13456 0.59689 0.01665 0.0
H237 H 0.17162 0.63927 0.05221 0.0
H238 H 0.17634 0.65834 0.02357 0.0
H239 H 0.13954 0.61615 0.98789 0.0
C240 C 0.87766 0.54196 0.76275 0.0
C241 C 0.86903 0.54038 0.74442 0.0
C242 C 0.84573 0.54037 0.76303 0.0
C243 C 0.85325 0.53963 0.74455 0.0
C244 C 0.85435 0.54162 0.78136 0.0
C245 C 0.87014 0.54244 0.78119 0.0
U246 U 0.91162 0.53341 0.74 0.0
O247 O 0.93934 0.55023 0.73779 0.0
O248 O 0.92888 0.52646 0.75519 0.0
C249 C 0.94256 0.54079 0.75019 0.0
C250 C 0.89457 0.54338 0.76303 0.0
C251 C 0.95529 0.54983 0.7665 0.0
C252 C 0.98261 0.57366 0.77684 0.0
C253 C 0.96968 0.56569 0.76237 0.0
C254 C 0.96703 0.55017 0.80004 0.0
C255 C 0.98158 0.56592 0.79579 0.0
C256 C 0.95407 0.54221 0.78558 0.0
C257 C 0.90168 0.50751 0.68997 0.0
C258 C 0.91466 0.50876 0.65699 0.0
C259 C 0.89659 0.48153 0.67298 0.0
C260 C 0.894 0.48971 0.68948 0.0
C261 C 0.90682 0.49093 0.65642 0.0
C262 C 0.91211 0.51696 0.67355 0.0
C263 C 0.89756 0.51579 0.70678 0.0
O264 O 0.8947 0.52915 0.76615 0.0
O265 O 0.90522 0.55291 0.74871 0.0
O266 O 0.90587 0.5325 0.70729 0.0
O267 O 0.89541 0.50886 0.72494 0.0
H268 H 0.87458 0.53991 0.72999 0.0
H269 H 0.84712 0.53884 0.73012 0.0
H270 H 0.84886 0.54188 0.79591 0.0
H271 H 0.87654 0.54354 0.79552 0.0
H272 H 0.99349 0.58588 0.7731 0.0
H273 H 0.97111 0.57182 0.74776 0.0
H274 H 0.96587 0.54369 0.81432 0.0
H275 H 0.9433 0.52989 0.78922 0.0
H276 H 0.92274 0.51641 0.64458 0.0
H277 H 0.89013 0.46778 0.67293 0.0
H278 H 0.88566 0.48204 0.70169 0.0
H279 H 0.91812 0.53068 0.67329 0.0
C280 C 0.35428 0.86761 0.93119 0.0
C281 C 0.35122 0.85598 0.91545 0.0
C282 C 0.32405 0.83568 0.93086 0.0
C283 C 0.33624 0.84017 0.91527 0.0
C284 C 0.32724 0.84746 0.94656 0.0
C285 C 0.3422 0.86325 0.9467 0.0
U286 U 0.39674 0.90076 0.90811 0.0
O287 O 0.40855 0.92859 0.90638 0.0
O288 O 0.4214 0.91719 0.92285 0.0
C289 C 0.42126 0.93123 0.91833 0.0
C290 C 0.36996 0.88427 0.93169 0.0
C291 C 0.42581 0.9439 0.93494 0.0
C292 C 0.42581 0.96871 0.94923 0.0
C293 C 0.42003 0.95569 0.93473 0.0
C294 C 0.44311 0.95837 0.96466 0.0
C295 C 0.43762 0.97037 0.96422 0.0
C296 C 0.43734 0.94537 0.95018 0.0
C297 C 0.41071 0.89044 0.85705 0.0
C298 C 0.43932 0.90227 0.84332 0.0
C299 C 0.415 0.88689 0.82122 0.0
C300 C 0.40413 0.88422 0.83764 0.0
C301 C 0.43273 0.8958 0.82387 0.0
C302 C 0.42841 0.89967 0.85975 0.0
C303 C 0.39883 0.88651 0.87424 0.0
O304 O 0.3841 0.88386 0.93422 0.0
O305 O 0.37122 0.89517 0.91763 0.0
O306 O 0.39123 0.89557 0.87535 0.0
O307 O 0.40385 0.88401 0.89205 0.0
H308 H 0.36044 0.85913 0.90334 0.0
H309 H 0.33432 0.83137 0.90308 0.0
H310 H 0.31806 0.8446 0.95862 0.0
H311 H 0.34432 0.87209 0.95894 0.0
H312 H 0.42146 0.97783 0.94823 0.0
H313 H 0.41136 0.95515 0.92304 0.0
H314 H 0.45201 0.9591 0.97614 0.0
H315 H 0.44221 0.93666 0.95068 0.0
H316 H 0.45291 0.90936 0.84584 0.0
H317 H 0.40947 0.88154 0.80655 0.0
H318 H 0.39052 0.87703 0.83524 0.0
H319 H 0.4338 0.90468 0.87459 0.0
C320 C 0.50693 0.34574 0.0955 0.0
C321 C 0.51008 0.33989 0.07713 0.0
C322 C 0.50873 0.31555 0.09471 0.0
C323 C 0.51091 0.3249 0.07672 0.0
C324 C 0.50584 0.32164 0.11312 0.0
C325 C 0.50492 0.33657 0.11348 0.0
U326 U 0.51516 0.38788 0.07251 0.0
O327 O 0.49844 0.39893 0.07049 0.0
O328 O 0.52257 0.41242 0.08708 0.0
C329 C 0.50817 0.41177 0.08242 0.0
C330 C 0.50556 0.36124 0.09615 0.0
C331 C 0.49945 0.41577 0.09884 0.0
C332 C 0.49876 0.42575 0.13312 0.0
C333 C 0.50648 0.42062 0.11845 0.0
C334 C 0.47667 0.42102 0.10904 0.0
C335 C 0.48384 0.4262 0.12855 0.0
C336 C 0.48442 0.41595 0.09437 0.0
C337 C 0.53941 0.40197 0.02137 0.0
C338 C 0.55334 0.4304 1.00674 0.0
C339 C 0.54956 0.40653 0.9864 0.0
C340 C 0.54152 0.39562 1.00283 0.0
C341 C 0.55572 0.42409 0.98817 0.0
C342 C 0.54521 0.41943 0.02319 0.0
C343 C 0.53169 0.3902 0.03868 0.0
O344 O 0.51991 0.37556 0.09866 0.0
O345 O 0.4957 0.36228 0.08225 0.0
O346 O 0.51503 0.38226 0.03981 0.0
O347 O 0.53916 0.3956 0.05644 0.0
H348 H 0.51181 0.34687 0.06309 0.0
H349 H 0.51338 0.3207 0.06234 0.0
H350 H 0.50392 0.31468 0.1272 0.0
H351 H 0.50248 0.34089 0.12781 0.0
H352 H 0.50479 0.42985 0.14787 0.0
H353 H 0.51814 0.42081 0.1224 0.0
H354 H 0.46507 0.42093 0.10503 0.0
H355 H 0.47876 0.41241 0.07936 0.0
H356 H 0.55775 0.44382 1.00856 0.0
H357 H 0.55137 0.40125 0.97247 0.0
H358 H 0.53717 0.38219 1.00116 0.0
H359 H 0.54363 0.42458 0.03737 0.0
C360 C 0.1817 0.49704 0.2631 0.0
C361 C 0.19277 0.50429 0.2465 0.0
C362 C 0.21378 0.49903 0.26309 0.0
C363 C 0.20866 0.50527 0.24648 0.0
C364 C 0.20259 0.49184 0.2797 0.0
C365 C 0.18672 0.49086 0.27969 0.0
U366 U 0.14814 0.5055 0.23939 0.0
O367 O 0.12041 0.48883 0.23717 0.0
O368 O 0.13095 0.51296 0.25374 0.0
C369 C 0.11723 0.49857 0.24906 0.0
C370 C 0.16486 0.4957 0.26332 0.0
C371 C 0.10447 0.48988 0.26548 0.0
C372 C 0.07712 0.46629 0.27629 0.0
C373 C 0.08999 0.47403 0.26166 0.0
C374 C 0.09293 0.49001 0.29901 0.0
C375 C 0.07831 0.47425 0.29509 0.0
C376 C 0.10583 0.49774 0.28439 0.0
C377 C 0.1586 0.5299 0.18839 0.0
C378 C 0.14394 0.54366 0.1737 0.0
C379 C 0.16433 0.54023 0.15348 0.0
C380 C 0.16721 0.53219 0.16991 0.0
C381 C 0.15276 0.54621 0.15519 0.0
C382 C 0.14679 0.53553 0.19014 0.0
C383 C 0.1626 0.52213 0.20568 0.0
O384 O 0.16487 0.51007 0.26575 0.0
O385 O 0.15425 0.48597 0.24915 0.0
O386 O 0.15387 0.50547 0.20675 0.0
O387 O 0.16457 0.52955 0.22346 0.0
H388 H 0.18911 0.50918 0.23357 0.0
H389 H 0.21701 0.51107 0.23354 0.0
H390 H 0.20595 0.48668 0.29261 0.0
H391 H 0.17832 0.48518 0.29261 0.0
H392 H 0.06619 0.45405 0.2728 0.0
H393 H 0.08846 0.46772 0.24718 0.0
H394 H 0.09421 0.49666 0.31317 0.0
H395 H 0.11668 0.51005 0.2878 0.0
H396 H 0.13481 0.54792 0.17547 0.0
H397 H 0.17152 0.54217 0.13959 0.0
H398 H 0.1764 0.52798 0.16828 0.0
H399 H 0.13993 0.5338 0.20427 0.0
C400 C 0.70475 0.17196 0.4296 0.0
C401 C 0.70805 0.18324 0.41333 0.0
C402 C 0.73468 0.20413 0.42925 0.0
C403 C 0.72289 0.19918 0.41314 0.0
C404 C 0.73119 0.19273 0.44553 0.0
C405 C 0.71638 0.17683 0.44567 0.0
U406 U 0.66226 0.13822 0.40705 0.0
O407 O 0.65136 0.11049 0.40477 0.0
O408 O 0.63808 0.12093 0.42226 0.0
C409 C 0.63872 0.10725 0.41719 0.0
C410 C 0.68933 0.15508 0.43002 0.0
C411 C 0.63504 0.09445 0.43343 0.0
C412 C 0.62483 0.08319 0.4675 0.0
C413 C 0.62984 0.0962 0.45304 0.0
C414 C 0.63038 0.06653 0.44322 0.0
C415 C 0.62484 0.06808 0.46271 0.0
C416 C 0.63534 0.07951 0.42876 0.0
C417 C 0.64621 0.1482 0.35707 0.0
C418 C 0.63632 0.13752 0.32277 0.0
C419 C 0.62333 0.15099 0.34155 0.0
C420 C 0.63415 0.15358 0.35801 0.0
C421 C 0.62438 0.14307 0.32363 0.0
C422 C 0.64713 0.1401 0.33925 0.0
C423 C 0.65866 0.15237 0.37387 0.0
O424 O 0.675 0.15498 0.43319 0.0
O425 O 0.6882 0.14457 0.41555 0.0
O426 O 0.66705 0.14404 0.37433 0.0
O427 O 0.65396 0.15453 0.39206 0.0
H428 H 0.69917 0.17971 0.40079 0.0
H429 H 0.72504 0.20768 0.40048 0.0
H430 H 0.74005 0.19597 0.45803 0.0
H431 H 0.71406 0.16826 0.45833 0.0
H432 H 0.62043 0.08478 0.48223 0.0
H433 H 0.62925 0.10744 0.45714 0.0
H434 H 0.63081 0.05522 0.43905 0.0
H435 H 0.63913 0.0777 0.41374 0.0
H436 H 0.63738 0.13124 0.3093 0.0
H437 H 0.61451 0.15569 0.34265 0.0
H438 H 0.63329 0.16015 0.37132 0.0
H439 H 0.6564 0.13597 0.33786 0.0
C440 C 0.55408 0.6947 0.59501 0.0
C441 C 0.54111 0.69558 0.58443 0.0
C442 C 0.55213 0.72484 0.59576 0.0
C443 C 0.54012 0.71049 0.58483 0.0
C444 C 0.56519 0.72388 0.60614 0.0
C445 C 0.56613 0.70897 0.60577 0.0
U446 U 0.54512 0.6524 0.57145 0.0
O447 O 0.56159 0.6411 0.56916 0.0
O448 O 0.53756 0.62779 0.586 0.0
C449 C 0.55188 0.6283 0.58122 0.0
C450 C 0.55526 0.67908 0.5951 0.0
C451 C 0.56054 0.62419 0.59766 0.0
C452 C 0.58498 0.62225 0.60945 0.0
C453 C 0.57724 0.62742 0.59486 0.0
C454 C 0.55954 0.61054 0.63008 0.0
C455 C 0.57618 0.61359 0.62718 0.0
C456 C 0.5518 0.61572 0.6155 0.0
C457 C 0.52044 0.63844 0.52068 0.0
C458 C 0.50613 0.61 0.50618 0.0
C459 C 0.51056 0.63404 0.48561 0.0
C460 C 0.51863 0.6449 0.50204 0.0
C461 C 0.50408 0.61642 0.48749 0.0
C462 C 0.51428 0.62092 0.52262 0.0
C463 C 0.52834 0.65021 0.53791 0.0
O464 O 0.54091 0.66477 0.59783 0.0
O465 O 0.56486 0.67807 0.58081 0.0
O466 O 0.545 0.65805 0.53879 0.0
O467 O 0.521 0.64489 0.55578 0.0
H468 H 0.53169 0.6847 0.57596 0.0
H469 H 0.52978 0.71066 0.57684 0.0
H470 H 0.57485 0.73473 0.61439 0.0
H471 H 0.57631 0.70858 0.61392 0.0
H472 H 0.59788 0.62501 0.60679 0.0
H473 H 0.58428 0.63371 0.58119 0.0
H474 H 0.55225 0.60367 0.64336 0.0
H475 H 0.53882 0.61274 0.61804 0.0
H476 H 0.50146 0.59653 0.50808 0.0
H477 H 0.50901 0.63941 0.47159 0.0
H478 H 0.52325 0.65837 0.50026 0.0
H479 H 0.51564 0.61568 0.53687 0.0
H480 H 0.58764 0.14572 0.2023 0.0
H481 H 0.59079 0.13465 0.32321 0.0
H482 H 0.54652 0.13638 0.24297 0.0
H483 H 0.63314 0.14739 0.28305 0.0
H484 H 0.57371 0.13329 0.29374 0.0
H485 H 0.60366 0.1441 0.23132 0.0
C486 C 0.58189 0.14314 0.21729 0.0
C487 C 0.56571 0.14125 0.22016 0.0
C488 C 0.58672 0.13632 0.29135 0.0
C489 C 0.58411 0.13958 0.25358 0.0
C490 C 0.59652 0.13718 0.30821 0.0
C491 C 0.6135 0.14122 0.30569 0.0
C492 C 0.5939 0.13955 0.27175 0.0
C493 C 0.62009 0.14405 0.28578 0.0
C494 C 0.5911 0.14233 0.23389 0.0
C495 C 0.55904 0.13817 0.24003 0.0
N496 N 0.61032 0.14323 0.26963 0.0
N497 N 0.56827 0.13747 0.25595 0.0
H498 H 0.51192 0.62134 0.44669 0.0
H499 H 0.42704 0.53742 0.41169 0.0
H500 H 0.47497 0.58519 0.48872 0.0
H501 H 0.4639 0.57367 0.36967 0.0
H502 H 0.44524 0.55385 0.44006 0.0
H503 H 0.49537 0.6032 0.41835 0.0
C504 C 0.50033 0.60958 0.44998 0.0
C505 C 0.4948 0.60487 0.47017 0.0
C506 C 0.4494 0.55817 0.42464 0.0
C507 C 0.47577 0.58393 0.43768 0.0
C508 C 0.43897 0.54883 0.40841 0.0
C509 C 0.44386 0.55421 0.38821 0.0
C510 C 0.46487 0.57308 0.42073 0.0
C511 C 0.45964 0.56894 0.38494 0.0
C512 C 0.49092 0.59918 0.43377 0.0
C513 C 0.47983 0.5893 0.47346 0.0
N514 N 0.4695 0.5779 0.40101 0.0
N515 N 0.4708 0.57947 0.4574 0.0
H516 H 0.90694 0.4986 0.61585 0.0
H517 H 0.91131 0.41738 0.57639 0.0
H518 H 0.91096 0.46295 0.65573 0.0
H519 H 0.90623 0.45231 0.53634 0.0
H520 H 0.91291 0.43489 0.60546 0.0
H521 H 0.90859 0.48297 0.58647 0.0
C522 C 0.90836 0.4876 0.61846 0.0
C523 C 0.90875 0.48207 0.63836 0.0
C524 C 0.91152 0.43878 0.59031 0.0
C525 C 0.91044 0.46395 0.60467 0.0
C526 C 0.91053 0.42874 0.57369 0.0
C527 C 0.9085 0.43328 0.55385 0.0
C528 C 0.91044 0.45352 0.58717 0.0
C529 C 0.90791 0.44835 0.55131 0.0
C530 C 0.9092 0.4786 0.60164 0.0
C531 C 0.91035 0.46755 0.64071 0.0
N532 N 0.90877 0.45785 0.56776 0.0
N533 N 0.91109 0.45899 0.6241 0.0
H534 H 0.4764 0.90539 0.70357 0.0
H535 H 0.46135 0.89279 0.82427 0.0
H536 H 0.50501 0.89106 0.74334 0.0
H537 H 0.43018 0.9032 0.78384 0.0
H538 H 0.479 0.89446 0.79523 0.0
H539 H 0.46069 0.90667 0.73311 0.0
C540 C 0.47939 0.9025 0.71849 0.0
C541 C 0.49203 0.89803 0.72088 0.0
C542 C 0.46834 0.89645 0.79272 0.0
C543 C 0.47412 0.89962 0.7549 0.0
C544 C 0.45832 0.89561 0.80933 0.0
C545 C 0.44419 0.89779 0.80653 0.0
C546 C 0.46428 0.89952 0.77309 0.0
C547 C 0.44077 0.90118 0.78672 0.0
C548 C 0.47045 0.90331 0.73539 0.0
C549 C 0.49553 0.89474 0.74071 0.0
N550 N 0.4507 0.9019 0.77079 0.0
N551 N 0.48659 0.89553 0.7569 0.0
H552 H 0.58447 0.45557 0.98965 0.0
H553 H 0.59439 0.46578 0.86824 0.0
H554 H 0.54845 0.41913 0.94725 0.0
H555 H 0.63157 0.50101 0.91063 0.0
H556 H 0.57625 0.44981 0.89696 0.0
H557 H 0.60066 0.4736 0.96096 0.0
C558 C 0.57984 0.45143 0.97433 0.0
C559 C 0.56509 0.43573 0.97091 0.0
C560 C 0.58834 0.46108 0.89999 0.0
C561 C 0.58374 0.45627 0.93788 0.0
C562 C 0.59867 0.47029 0.88357 0.0
C563 C 0.61461 0.48475 0.88698 0.0
C564 C 0.59393 0.46635 0.92003 0.0
C565 C 0.61953 0.48981 0.90724 0.0
C566 C 0.58917 0.46169 0.95792 0.0
C567 C 0.55987 0.43098 0.95064 0.0
N568 N 0.60927 0.48061 0.92296 0.0
N569 N 0.5692 0.44116 0.93494 0.0
H570 H 0.14936 0.58476 0.03527 0.0
H571 H 0.1496 0.57474 0.15668 0.0
H572 H 0.1509 0.62174 0.07773 0.0
H573 H 0.15074 0.53906 0.11424 0.0
H574 H 0.14762 0.59086 0.128 0.0
H575 H 0.14742 0.56667 0.06397 0.0
C576 C 0.1491 0.58901 0.05061 0.0
C577 C 0.15039 0.60487 0.05405 0.0
C578 C 0.14823 0.57946 0.12495 0.0
C579 C 0.14836 0.58425 0.08706 0.0
C580 C 0.14924 0.57017 0.14135 0.0
C581 C 0.15043 0.55553 0.13792 0.0
C582 C 0.14837 0.57411 0.1049 0.0
C583 C 0.15013 0.5504 0.11765 0.0
C584 C 0.1481 0.57871 0.06701 0.0
C585 C 0.1502 0.60976 0.07432 0.0
N586 N 0.14919 0.55969 0.10195 0.0
N587 N 0.14927 0.59953 0.09002 0.0
H588 H 0.52703 0.23208 0.12044 0.0
H589 H 0.49462 0.28996 0.0664 0.0
H590 H 0.49171 0.21513 0.07015 0.0
H591 H 0.5238 0.30416 0.12202 0.0
H592 H 0.49503 0.26325 0.06625 0.0
H593 H 0.52726 0.25911 0.12028 0.0
C594 C 0.51925 0.23396 0.10942 0.0
C595 C 0.50932 0.22119 0.09529 0.0
C596 C 0.50135 0.2722 0.07849 0.0
C597 C 0.50975 0.25234 0.09484 0.0
C598 C 0.50123 0.28753 0.07851 0.0
C599 C 0.50919 0.29936 0.09425 0.0
C600 C 0.50958 0.26865 0.09427 0.0
C601 C 0.51733 0.29535 0.10971 0.0
C602 C 0.51947 0.24947 0.10927 0.0
C603 C 0.49977 0.2246 0.08114 0.0
N604 N 0.51734 0.28037 0.10931 0.0
N605 N 0.50023 0.2398 0.08129 0.0
H606 H 0.23596 0.50627 0.29503 0.0
H607 H 0.304 0.49449 0.22977 0.0
H608 H 0.23002 0.49353 0.23108 0.0
H609 H 0.30794 0.50319 0.2947 0.0
H610 H 0.27755 0.49533 0.22969 0.0
H611 H 0.26295 0.50647 0.2949 0.0
C612 C 0.24027 0.50345 0.28096 0.0
C613 C 0.23058 0.4998 0.26305 0.0
C614 C 0.2842 0.49708 0.24396 0.0
C615 C 0.2617 0.50019 0.26277 0.0
C616 C 0.29929 0.4965 0.24405 0.0
C617 C 0.30826 0.49868 0.2623 0.0
C618 C 0.27794 0.49988 0.26224 0.0
C619 C 0.30163 0.50161 0.28022 0.0
C620 C 0.25576 0.50365 0.28089 0.0
C621 C 0.23708 0.49659 0.24521 0.0
N622 N 0.28689 0.50208 0.27974 0.0
N623 N 0.25217 0.49681 0.24554 0.0
H624 H 0.8283 0.29508 0.39473 0.0
H625 H 0.7503 0.22588 0.46135 0.0
H626 H 0.82509 0.29797 0.4601 0.0
H627 H 0.75552 0.22095 0.39672 0.0
H628 H 0.77697 0.25294 0.46094 0.0
H629 H 0.80108 0.2686 0.39494 0.0
C630 C 0.82194 0.29014 0.40916 0.0
C631 C 0.82914 0.29881 0.42744 0.0
C632 C 0.77228 0.24596 0.44683 0.0
C633 C 0.7977 0.26847 0.42774 0.0
C634 C 0.75706 0.23043 0.44707 0.0
C635 C 0.75062 0.221 0.42905 0.0
C636 C 0.78121 0.25219 0.42845 0.0
C637 C 0.75985 0.2278 0.41095 0.0
C638 C 0.80631 0.27504 0.40924 0.0
C639 C 0.82002 0.29189 0.44559 0.0
N640 N 0.77466 0.24292 0.41113 0.0
N641 N 0.80484 0.27714 0.44528 0.0
H642 H 0.55867 0.74657 0.62802 0.0
H643 H 0.53959 0.8112 0.56571 0.0
H644 H 0.54316 0.73948 0.56495 0.0
H645 H 0.55872 0.82012 0.62732 0.0
H646 H 0.53959 0.7843 0.56563 0.0
H647 H 0.55763 0.77291 0.62848 0.0
C648 C 0.55512 0.75056 0.61421 0.0
C649 C 0.55109 0.74074 0.59637 0.0
C650 C 0.54377 0.79212 0.57919 0.0
C651 C 0.54964 0.77092 0.59691 0.0
C652 C 0.54385 0.80755 0.57922 0.0
C653 C 0.54924 0.81805 0.59652 0.0
C654 C 0.54912 0.78706 0.59659 0.0
C655 C 0.55429 0.81241 0.6137 0.0
C656 C 0.55443 0.76558 0.61454 0.0
C657 C 0.54622 0.74647 0.57912 0.0
N658 N 0.55416 0.79737 0.61326 0.0
N659 N 0.54567 0.76116 0.57981 0.0
H660 H 0.74491 0.52385 0.73536 0.0
H661 H 0.83586 0.55825 0.7879 0.0
H662 H 0.76076 0.55473 0.78962 0.0
H663 H 0.81769 0.522 0.73858 0.0
H664 H 0.80871 0.55762 0.78815 0.0
H665 H 0.77178 0.52371 0.73552 0.0
C666 C 0.75405 0.53064 0.74728 0.0
C667 C 0.75054 0.53933 0.76249 0.0
C668 C 0.81063 0.54977 0.77729 0.0
C669 C 0.78137 0.53917 0.76281 0.0
C670 C 0.82614 0.55003 0.77721 0.0
C671 C 0.82915 0.54011 0.76324 0.0
C672 C 0.79796 0.53957 0.76324 0.0
C673 C 0.8161 0.53004 0.74947 0.0
C674 C 0.76936 0.53048 0.74742 0.0
C675 C 0.7628 0.5477 0.77772 0.0
N676 N 0.80112 0.53004 0.74982 0.0
N677 N 0.77766 0.54747 0.77743 0.0
H678 H 0.2314 0.74384 0.89625 0.0
H679 H 0.30744 0.81476 0.96338 0.0
H680 H 0.23278 0.74257 0.96196 0.0
H681 H 0.30403 0.81814 0.8981 0.0
H682 H 0.28077 0.78771 0.96301 0.0
H683 H 0.25856 0.77039 0.89651 0.0
C684 C 0.23735 0.74916 0.91076 0.0
C685 C 0.22966 0.74091 0.92913 0.0
C686 C 0.28586 0.79435 0.94875 0.0
C687 C 0.26101 0.77134 0.92949 0.0
C688 C 0.30107 0.80988 0.94896 0.0
C689 C 0.30803 0.81887 0.93075 0.0
C690 C 0.27745 0.78766 0.93021 0.0
C691 C 0.2993 0.81164 0.9125 0.0
C692 C 0.25294 0.7643 0.91088 0.0
C693 C 0.23824 0.74831 0.9474 0.0
N694 N 0.28448 0.79652 0.91271 0.0
N695 N 0.2534 0.76308 0.94711 0.0
H696 H 0.4525 0.05029 0.04916 0.0
H697 H 0.47048 0.98939 0.97768 0.0
H698 H 0.50189 0.05512 0.04133 0.0
H699 H 0.42104 0.98475 0.98389 0.0
H700 H 0.48201 1.0133 1.00127 0.0
H701 H 0.44062 0.02625 0.02551 0.0
C702 C 0.46085 0.0463 0.04251 0.0
C703 C 0.47826 0.05481 0.04728 0.0
C704 C 0.46863 1.00707 0.9975 0.0
C705 C 0.46471 0.02729 0.02006 0.0
C706 C 0.46199 0.99329 0.98412 0.0
C707 C 0.4447 0.98492 0.9788 0.0
C708 C 0.45797 1.01262 1.00574 0.0
C709 C 0.43446 0.99087 0.98737 0.0
C710 C 0.45406 0.0326 0.02893 0.0
C711 C 0.48847 0.04916 0.03795 0.0
N712 N 0.44123 1.00431 1.00042 0.0
N713 N 0.48155 0.03576 0.02488 0.0
H714 H 0.4809 0.42107 0.17012 0.0
H715 H 0.43442 0.47535 0.18841 0.0
H716 H 0.46909 0.44588 0.1219 0.0
H717 H 0.45112 0.45524 0.23719 0.0
H718 H 0.44573 0.46339 0.16375 0.0
H719 H 0.4688 0.43224 0.1948 0.0
C720 C 0.47583 0.4289 0.16469 0.0
C721 C 0.47607 0.43251 0.14381 0.0
C722 C 0.4469 0.46157 0.17985 0.0
C723 C 0.46197 0.44523 0.17208 0.0
C724 C 0.44051 0.46847 0.19398 0.0
C725 C 0.44182 0.46637 0.215 0.0
C726 C 0.45469 0.45244 0.1867 0.0
C727 C 0.44959 0.45703 0.22119 0.0
C728 C 0.46883 0.43521 0.17881 0.0
C729 C 0.469 0.44252 0.13774 0.0
N730 N 0.45573 0.45046 0.20714 0.0
N731 N 0.46228 0.44852 0.15178 0.0
H732 H 0.08037 0.47371 0.33695 0.0
H733 H 0.97949 0.42204 0.35429 0.0
H734 H 0.04387 0.45692 0.28794 0.0
H735 H 1.0159 0.44385 0.40318 0.0
H736 H 1.00291 0.4334 0.32981 0.0
H737 H 0.05696 0.46154 0.36144 0.0
C738 C 0.06746 0.46752 0.3313 0.0
C739 C 0.06417 0.46641 0.31026 0.0
C740 C 1.00577 0.43567 0.3459 0.0
C741 C 0.0372 0.45223 0.33835 0.0
C742 C 0.99238 0.42925 0.35992 0.0
C743 C 0.99564 0.43197 0.38092 0.0
C744 C 1.02263 0.4449 0.35286 0.0
C745 C 1.01269 0.44119 0.38722 0.0
C746 C 0.05407 0.46049 0.34533 0.0
C747 C 0.0471 0.45793 0.30394 0.0
N748 N 1.0255 0.44732 0.37328 0.0
N749 N 0.0343 0.45121 0.31789 0.0
H750 H 0.62938 0.06973 0.50435 0.0
H751 H 0.57541 0.96879 0.5209 0.0
H752 H 0.60577 0.03375 0.45538 0.0
H753 H 0.59445 1.00496 0.57027 0.0
H754 H 0.58779 0.99235 0.49661 0.0
H755 H 0.61804 0.04613 0.52861 0.0
C756 C 0.62178 0.05689 0.49866 0.0
C757 C 0.61854 0.05381 0.4777 0.0
C758 C 0.5893 0.99513 0.51276 0.0
C759 C 0.60563 0.02662 0.50551 0.0
C760 C 0.58215 0.98167 0.52667 0.0
C761 C 0.58382 0.98482 0.54775 0.0
C762 C 0.59823 1.01195 0.51989 0.0
C763 C 0.59299 1.00183 0.55422 0.0
C764 C 0.61537 0.0434 0.51255 0.0
C765 C 0.60884 0.03681 0.4713 0.0
N766 N 0.5998 1.01471 0.54038 0.0
N767 N 0.60272 0.02391 0.48512 0.0
H768 H 0.60367 0.57984 0.73722 0.0
H769 H 0.5965 0.59967 0.61978 0.0
H770 H 0.62946 0.56983 0.68856 0.0
H771 H 0.57388 0.61299 0.66906 0.0
H772 H 0.60879 0.58885 0.64464 0.0
H773 H 0.59279 0.5921 0.71248 0.0
C774 C 0.6072 0.58034 0.72136 0.0
C775 C 0.61759 0.57379 0.71506 0.0
C776 C 0.60118 0.59417 0.65003 0.0
C777 C 0.60485 0.58765 0.68645 0.0
C778 C 0.59423 0.60048 0.63582 0.0
C779 C 0.5841 0.6073 0.64226 0.0
C780 C 0.598 0.59462 0.6709 0.0
C781 C 0.58138 0.60766 0.6633 0.0
C782 C 0.60086 0.58727 0.70719 0.0
C783 C 0.62135 0.57451 0.69417 0.0
N784 N 0.58825 0.6014 0.67682 0.0
N785 N 0.61499 0.58129 0.68065 0.0
H786 H 1.01594 0.58309 0.78807 0.0
H787 H 0.04295 0.5967 0.90574 0.0
H788 H 0.97994 0.56693 0.83767 0.0
H789 H 0.07894 0.61652 0.85612 0.0
H790 H 1.01976 0.58586 0.88109 0.0
H791 H 0.03912 0.59551 0.81272 0.0
C792 C 1.01286 0.58227 0.80413 0.0
C793 C 0.99586 0.57392 0.81072 0.0
C794 C 0.03273 0.59262 0.87558 0.0
C795 C 1.02251 0.58795 0.83917 0.0
C796 C 0.04602 0.59894 0.88968 0.0
C797 C 0.06302 0.60761 0.88308 0.0
C798 C 0.03637 0.5949 0.85463 0.0
C799 C 0.06609 0.60974 0.86198 0.0
C800 C 1.02615 0.58929 0.81822 0.0
C801 C 0.99278 0.57302 0.83182 0.0
N802 N 0.05293 0.60343 0.84856 0.0
N803 N 1.00595 0.57991 0.84524 0.0
loop_
_geom_bond_atom_site_label_1
_geom_bond_atom_site_label_2
_geom_bond_distance
_geom_bond_site_symmetry_2
_ccdc_geom_bond_type
C0 C1 1.264 . S
C0 C5 1.479 . S
C0 C10 1.465 . S
C1 C0 1.264 . S
C1 C3 1.339 . S
C1 H28 0.931 . S
C2 C3 1.395 . S
C2 C4 1.320 . S
C3 C1 1.339 . S
C3 C2 1.395 . S
C3 H29 0.929 . S
C4 C2 1.320 . S
C4 C5 1.405 . S
C4 H30 0.930 . S
C5 C0 1.479 . S
C5 C4 1.405 . S
C5 H31 0.931 . S
U6 O7 2.454 . S
U6 O8 2.458 . S
U6 C9 2.984 . S
U6 C10 2.847 . S
U6 C23 2.882 . S
U6 O24 2.441 . S
U6 O25 2.420 . S
U6 O26 2.455 . S
U6 O27 2.449 . S
O7 U6 2.454 . S
O7 C9 1.353 . S
O8 U6 2.458 . S
O8 C9 1.286 . S
C9 U6 2.984 . S
C9 O7 1.353 . S
C9 O8 1.286 . S
C9 C11 1.363 . S
C10 C0 1.465 . S
C10 U6 2.847 . S
C10 O24 1.249 . S
C10 O25 1.202 . S
C11 C9 1.363 . S
C11 C13 1.408 . S
C11 C16 1.342 . S
C12 C13 1.310 . S
C12 C15 1.461 . S
C12 H32 0.932 . S
C13 C11 1.408 . S
C13 C12 1.310 . S
C13 H33 0.930 . S
C14 C15 1.474 . S
C14 C16 1.285 . S
C14 H34 0.929 . S
C15 C12 1.461 . S
C15 C14 1.474 . S
C16 C11 1.342 . S
C16 C14 1.285 . S
C16 H35 0.930 . S
C17 C20 1.424 . S
C17 C22 1.245 . S
C17 C23 1.428 . S
C18 C21 1.260 . S
C18 C22 1.477 . S
C18 H36 0.932 . S
C19 C20 1.384 . S
C19 C21 1.479 . S
C19 H37 0.929 . S
C20 C17 1.424 . S
C20 C19 1.384 . S
C20 H38 0.928 . S
C21 C18 1.260 . S
C21 C19 1.479 . S
C22 C17 1.245 . S
C22 C18 1.477 . S
C22 H39 0.932 . S
C23 U6 2.882 . S
C23 C17 1.428 . S
C23 O26 1.301 . S
C23 O27 1.282 . S
O24 U6 2.441 . S
O24 C10 1.249 . S
O25 U6 2.420 . S
O25 C10 1.202 . S
O26 U6 2.455 . S
O26 C23 1.301 . S
O27 U6 2.449 . S
O27 C23 1.282 . S
H28 C1 0.931 . S
H29 C3 0.929 . S
H30 C4 0.930 . S
H31 C5 0.931 . S
H32 C12 0.932 . S
H33 C13 0.930 . S
H34 C14 0.929 . S
H35 C16 0.930 . S
H36 C18 0.932 . S
H37 C19 0.929 . S
H38 C20 0.928 . S
H39 C22 0.932 . S
C40 C41 1.264 . S
C40 C45 1.479 . S
C40 C50 1.465 . S
C41 C40 1.264 . S
C41 C43 1.339 . S
C41 H68 0.931 . S
C42 C43 1.395 . S
C42 C44 1.320 . S
C43 C41 1.339 . S
C43 C42 1.395 . S
C43 H69 0.929 . S
C44 C42 1.320 . S
C44 C45 1.405 . S
C44 H70 0.930 . S
C45 C40 1.479 . S
C45 C44 1.405 . S
C45 H71 0.931 . S
U46 O47 2.454 . S
U46 O48 2.458 . S
U46 C49 2.984 . S
U46 C50 2.847 . S
U46 C63 2.882 . S
U46 O64 2.441 . S
U46 O65 2.420 . S
U46 O66 2.455 . S
U46 O67 2.449 . S
O47 U46 2.454 . S
O47 C49 1.353 . S
O48 U46 2.458 . S
O48 C49 1.286 . S
C49 U46 2.984 . S
C49 O47 1.353 . S
C49 O48 1.286 . S
C49 C51 1.363 . S
C50 C40 1.465 . S
C50 U46 2.847 . S
C50 O64 1.249 . S
C50 O65 1.202 . S
C51 C49 1.363 . S
C51 C53 1.408 . S
C51 C56 1.342 . S
C52 C53 1.310 . S
C52 C55 1.461 . S
C52 H72 0.932 . S
C53 C51 1.408 . S
C53 C52 1.310 . S
C53 H73 0.930 . S
C54 C55 1.474 . S
C54 C56 1.285 . S
C54 H74 0.929 . S
C55 C52 1.461 . S
C55 C54 1.474 . S
C56 C51 1.342 . S
C56 C54 1.285 . S
C56 H75 0.930 . S
C57 C60 1.424 . S
C57 C62 1.245 . S
C57 C63 1.428 . S
C58 C61 1.260 . S
C58 C62 1.477 . S
C58 H76 0.932 . S
C59 C60 1.384 . S
C59 C61 1.479 . S
C59 H77 0.929 . S
C60 C57 1.424 . S
C60 C59 1.384 . S
C60 H78 0.928 . S
C61 C58 1.260 . S
C61 C59 1.479 . S
C62 C57 1.245 . S
C62 C58 1.477 . S
C62 H79 0.932 . S
C63 U46 2.882 . S
C63 C57 1.428 . S
C63 O66 1.301 . S
C63 O67 1.282 . S
O64 U46 2.441 . S
O64 C50 1.249 . S
O65 U46 2.420 . S
O65 C50 1.202 . S
O66 U46 2.455 . S
O66 C63 1.301 . S
O67 U46 2.449 . S
O67 C63 1.282 . S
H68 C41 0.931 . S
H69 C43 0.929 . S
H70 C44 0.930 . S
H71 C45 0.931 . S
H72 C52 0.932 . S
H73 C53 0.930 . S
H74 C54 0.929 . S
H75 C56 0.930 . S
H76 C58 0.932 . S
H77 C59 0.929 . S
H78 C60 0.928 . S
H79 C62 0.932 . S
C80 C81 1.264 . S
C80 C85 1.479 . S
C80 C90 1.465 . S
C81 C80 1.264 . S
C81 C83 1.339 . S
C81 H108 0.931 . S
C82 C83 1.395 . S
C82 C84 1.320 . S
C83 C81 1.339 . S
C83 C82 1.395 . S
C83 H109 0.929 . S
C84 C82 1.320 . S
C84 C85 1.405 . S
C84 H110 0.930 . S
C85 C80 1.479 . S
C85 C84 1.405 . S
C85 H111 0.931 . S
U86 O87 2.454 . S
U86 O88 2.458 . S
U86 C89 2.984 . S
U86 C90 2.847 . S
U86 C103 2.882 . S
U86 O104 2.441 . S
U86 O105 2.420 . S
U86 O106 2.455 . S
U86 O107 2.449 . S
O87 U86 2.454 . S
O87 C89 1.353 . S
O88 U86 2.458 . S
O88 C89 1.286 . S
C89 U86 2.984 . S
C89 O87 1.353 . S
C89 O88 1.286 . S
C89 C91 1.363 . S
C90 C80 1.465 . S
C90 U86 2.847 . S
C90 O104 1.249 . S
C90 O105 1.202 . S
C91 C89 1.363 . S
C91 C93 1.408 . S
C91 C96 1.342 . S
C92 C93 1.310 . S
C92 C95 1.461 . S
C92 H112 0.932 . S
C93 C91 1.408 . S
C93 C92 1.310 . S
C93 H113 0.930 . S
C94 C95 1.474 . S
C94 C96 1.285 . S
C94 H114 0.929 . S
C95 C92 1.461 . S
C95 C94 1.474 . S
C96 C91 1.342 . S
C96 C94 1.285 . S
C96 H115 0.930 . S
C97 C100 1.424 . S
C97 C102 1.245 . S
C97 C103 1.428 . S
C98 C101 1.260 . S
C98 C102 1.477 . S
C98 H116 0.932 . S
C99 C100 1.384 . S
C99 C101 1.479 . S
C99 H117 0.929 . S
C100 C97 1.424 . S
C100 C99 1.384 . S
C100 H118 0.928 . S
C101 C98 1.260 . S
C101 C99 1.479 . S
C102 C97 1.245 . S
C102 C98 1.477 . S
C102 H119 0.932 . S
C103 U86 2.882 . S
C103 C97 1.428 . S
C103 O106 1.301 . S
C103 O107 1.282 . S
O104 U86 2.441 . S
O104 C90 1.249 . S
O105 U86 2.420 . S
O105 C90 1.202 . S
O106 U86 2.455 . S
O106 C103 1.301 . S
O107 U86 2.449 . S
O107 C103 1.282 . S
H108 C81 0.931 . S
H109 C83 0.929 . S
H110 C84 0.930 . S
H111 C85 0.931 . S
H112 C92 0.932 . S
H113 C93 0.930 . S
H114 C94 0.929 . S
H115 C96 0.930 . S
H116 C98 0.932 . S
H117 C99 0.929 . S
H118 C100 0.928 . S
H119 C102 0.932 . S
C120 C121 1.264 . S
C120 C125 1.479 . S
C120 C130 1.465 . S
C121 C120 1.264 . S
C121 C123 1.339 . S
C121 H148 0.931 . S
C122 C123 1.395 . S
C122 C124 1.320 . S
C123 C121 1.339 . S
C123 C122 1.395 . S
C123 H149 0.929 . S
C124 C122 1.320 . S
C124 C125 1.405 . S
C124 H150 0.930 . S
C125 C120 1.479 . S
C125 C124 1.405 . S
C125 H151 0.931 . S
U126 O127 2.454 . S
U126 O128 2.458 . S
U126 C129 2.984 . S
U126 C130 2.847 . S
U126 C143 2.882 . S
U126 O144 2.441 . S
U126 O145 2.420 . S
U126 O146 2.455 . S
U126 O147 2.449 . S
O127 U126 2.454 . S
O127 C129 1.353 . S
O128 U126 2.458 . S
O128 C129 1.286 . S
C129 U126 2.984 . S
C129 O127 1.353 . S
C129 O128 1.286 . S
C129 C131 1.363 . S
C130 C120 1.465 . S
C130 U126 2.847 . S
C130 O144 1.249 . S
C130 O145 1.202 . S
C131 C129 1.363 . S
C131 C133 1.408 . S
C131 C136 1.342 . S
C132 C133 1.310 . S
C132 C135 1.461 . S
C132 H152 0.932 . S
C133 C131 1.408 . S
C133 C132 1.310 . S
C133 H153 0.930 . S
C134 C135 1.474 . S
C134 C136 1.285 . S
C134 H154 0.929 . S
C135 C132 1.461 . S
C135 C134 1.474 . S
C136 C131 1.342 . S
C136 C134 1.285 . S
C136 H155 0.930 . S
C137 C140 1.424 . S
C137 C142 1.245 . S
C137 C143 1.428 . S
C138 C141 1.260 . S
C138 C142 1.477 . S
C138 H156 0.932 . S
C139 C140 1.384 . S
C139 C141 1.479 . S
C139 H157 0.929 . S
C140 C137 1.424 . S
C140 C139 1.384 . S
C140 H158 0.928 . S
C141 C138 1.260 . S
C141 C139 1.479 . S
C142 C137 1.245 . S
C142 C138 1.477 . S
C142 H159 0.932 . S
C143 U126 2.882 . S
C143 C137 1.428 . S
C143 O146 1.301 . S
C143 O147 1.282 . S
O144 U126 2.441 . S
O144 C130 1.249 . S
O145 U126 2.420 . S
O145 C130 1.202 . S
O146 U126 2.455 . S
O146 C143 1.301 . S
O147 U126 2.449 . S
O147 C143 1.282 . S
H148 C121 0.931 . S
H149 C123 0.929 . S
H150 C124 0.930 . S
H151 C125 0.931 . S
H152 C132 0.932 . S
H153 C133 0.930 . S
H154 C134 0.929 . S
H155 C136 0.930 . S
H156 C138 0.932 . S
H157 C139 0.929 . S
H158 C140 0.928 . S
H159 C142 0.932 . S
C160 C161 1.264 . S
C160 C165 1.479 . S
C160 C170 1.465 . S
C161 C160 1.264 . S
C161 C163 1.339 . S
C161 H188 0.931 . S
C162 C163 1.395 . S
C162 C164 1.320 . S
C163 C161 1.339 . S
C163 C162 1.395 . S
C163 H189 0.929 . S
C164 C162 1.320 . S
C164 C165 1.405 . S
C164 H190 0.930 . S
C165 C160 1.479 . S
C165 C164 1.405 . S
C165 H191 0.931 . S
U166 O167 2.454 . S
U166 O168 2.458 . S
U166 C169 2.984 . S
U166 C170 2.847 . S
U166 C183 2.882 . S
U166 O184 2.441 . S
U166 O185 2.420 . S
U166 O186 2.455 . S
U166 O187 2.449 . S
O167 U166 2.454 . S
O167 C169 1.353 . S
O168 U166 2.458 . S
O168 C169 1.286 . S
C169 U166 2.984 . S
C169 O167 1.353 . S
C169 O168 1.286 . S
C169 C171 1.363 . S
C170 C160 1.465 . S
C170 U166 2.847 . S
C170 O184 1.249 . S
C170 O185 1.202 . S
C171 C169 1.363 . S
C171 C173 1.408 . S
C171 C176 1.342 . S
C172 C173 1.310 . S
C172 C175 1.461 . S
C172 H192 0.932 . S
C173 C171 1.408 . S
C173 C172 1.310 . S
C173 H193 0.930 . S
C174 C175 1.474 . S
C174 C176 1.285 . S
C174 H194 0.929 . S
C175 C172 1.461 . S
C175 C174 1.474 . S
C176 C171 1.342 . S
C176 C174 1.285 . S
C176 H195 0.930 . S
C177 C180 1.424 . S
C177 C182 1.245 . S
C177 C183 1.428 . S
C178 C181 1.260 . S
C178 C182 1.477 . S
C178 H196 0.932 . S
C179 C180 1.384 . S
C179 C181 1.479 . S
C179 H197 0.929 . S
C180 C177 1.424 . S
C180 C179 1.384 . S
C180 H198 0.928 . S
C181 C178 1.260 . S
C181 C179 1.479 . S
C182 C177 1.245 . S
C182 C178 1.477 . S
C182 H199 0.932 . S
C183 U166 2.882 . S
C183 C177 1.428 . S
C183 O186 1.301 . S
C183 O187 1.282 . S
O184 U166 2.441 . S
O184 C170 1.249 . S
O185 U166 2.420 . S
O185 C170 1.202 . S
O186 U166 2.455 . S
O186 C183 1.301 . S
O187 U166 2.449 . S
O187 C183 1.282 . S
H188 C161 0.931 . S
H189 C163 0.929 . S
H190 C164 0.930 . S
H191 C165 0.931 . S
H192 C172 0.932 . S
H193 C173 0.930 . S
H194 C174 0.929 . S
H195 C176 0.930 . S
H196 C178 0.932 . S
H197 C179 0.929 . S
H198 C180 0.928 . S
H199 C182 0.932 . S
C200 C201 1.264 . S
C200 C205 1.479 . S
C200 C210 1.465 . S
C201 C200 1.264 . S
C201 C203 1.339 . S
C201 H228 0.931 . S
C202 C203 1.395 . S
C202 C204 1.320 . S
C203 C201 1.339 . S
C203 C202 1.395 . S
C203 H229 0.929 . S
C204 C202 1.320 . S
C204 C205 1.405 . S
C204 H230 0.930 . S
C205 C200 1.479 . S
C205 C204 1.405 . S
C205 H231 0.931 . S
U206 O207 2.454 . S
U206 O208 2.458 . S
U206 C209 2.984 . S
U206 C210 2.847 . S
U206 C223 2.882 . S
U206 O224 2.441 . S
U206 O225 2.420 . S
U206 O226 2.455 . S
U206 O227 2.449 . S
O207 U206 2.454 . S
O207 C209 1.353 . S
O208 U206 2.458 . S
O208 C209 1.286 . S
C209 U206 2.984 . S
C209 O207 1.353 . S
C209 O208 1.286 . S
C209 C211 1.363 . S
C210 C200 1.465 . S
C210 U206 2.847 . S
C210 O224 1.249 . S
C210 O225 1.202 . S
C211 C209 1.363 . S
C211 C213 1.408 . S
C211 C216 1.342 . S
C212 C213 1.310 . S
C212 C215 1.461 . S
C212 H232 0.932 . S
C213 C211 1.408 . S
C213 C212 1.310 . S
C213 H233 0.930 . S
C214 C215 1.474 . S
C214 C216 1.285 . S
C214 H234 0.929 . S
C215 C212 1.461 . S
C215 C214 1.474 . S
C216 C211 1.342 . S
C216 C214 1.285 . S
C216 H235 0.930 . S
C217 C220 1.424 . S
C217 C222 1.245 . S
C217 C223 1.428 1_554 S
C218 C221 1.260 . S
C218 C222 1.477 . S
C218 H236 0.932 . S
C219 C220 1.384 . S
C219 C221 1.479 . S
C219 H237 0.929 . S
C220 C217 1.424 . S
C220 C219 1.384 . S
C220 H238 0.928 . S
C221 C218 1.260 . S
C221 C219 1.479 . S
C222 C217 1.245 . S
C222 C218 1.477 . S
C222 H239 0.932 1_554 S
C223 U206 2.882 . S
C223 C217 1.428 1_556 S
C223 O226 1.301 . S
C223 O227 1.282 . S
O224 U206 2.441 . S
O224 C210 1.249 . S
O225 U206 2.420 . S
O225 C210 1.202 . S
O226 U206 2.455 . S
O226 C223 1.301 . S
O227 U206 2.449 . S
O227 C223 1.282 . S
H228 C201 0.931 . S
H229 C203 0.929 . S
H230 C204 0.930 . S
H231 C205 0.931 . S
H232 C212 0.932 . S
H233 C213 0.930 . S
H234 C214 0.929 . S
H235 C216 0.930 . S
H236 C218 0.932 . S
H237 C219 0.929 . S
H238 C220 0.928 . S
H239 C222 0.932 1_556 S
C240 C241 1.264 . S
C240 C245 1.479 . S
C240 C250 1.465 . S
C241 C240 1.264 . S
C241 C243 1.339 . S
C241 H268 0.931 . S
C242 C243 1.395 . S
C242 C244 1.320 . S
C243 C241 1.339 . S
C243 C242 1.395 . S
C243 H269 0.929 . S
C244 C242 1.320 . S
C244 C245 1.405 . S
C244 H270 0.930 . S
C245 C240 1.479 . S
C245 C244 1.405 . S
C245 H271 0.931 . S
U246 O247 2.454 . S
U246 O248 2.458 . S
U246 C249 2.984 . S
U246 C250 2.847 . S
U246 C263 2.882 . S
U246 O264 2.441 . S
U246 O265 2.420 . S
U246 O266 2.455 . S
U246 O267 2.449 . S
O247 U246 2.454 . S
O247 C249 1.353 . S
O248 U246 2.458 . S
O248 C249 1.286 . S
C249 U246 2.984 . S
C249 O247 1.353 . S
C249 O248 1.286 . S
C249 C251 1.363 . S
C250 C240 1.465 . S
C250 U246 2.847 . S
C250 O264 1.249 . S
C250 O265 1.202 . S
C251 C249 1.363 . S
C251 C253 1.408 . S
C251 C256 1.342 . S
C252 C253 1.310 . S
C252 C255 1.461 . S
C252 H272 0.932 . S
C253 C251 1.408 . S
C253 C252 1.310 . S
C253 H273 0.930 . S
C254 C255 1.474 . S
C254 C256 1.285 . S
C254 H274 0.929 . S
C255 C252 1.461 . S
C255 C254 1.474 . S
C256 C251 1.342 . S
C256 C254 1.285 . S
C256 H275 0.930 . S
C257 C260 1.424 . S
C257 C262 1.245 . S
C257 C263 1.428 . S
C258 C261 1.260 . S
C258 C262 1.477 . S
C258 H276 0.932 . S
C259 C260 1.384 . S
C259 C261 1.479 . S
C259 H277 0.929 . S
C260 C257 1.424 . S
C260 C259 1.384 . S
C260 H278 0.928 . S
C261 C258 1.260 . S
C261 C259 1.479 . S
C262 C257 1.245 . S
C262 C258 1.477 . S
C262 H279 0.932 . S
C263 U246 2.882 . S
C263 C257 1.428 . S
C263 O266 1.301 . S
C263 O267 1.282 . S
O264 U246 2.441 . S
O264 C250 1.249 . S
O265 U246 2.420 . S
O265 C250 1.202 . S
O266 U246 2.455 . S
O266 C263 1.301 . S
O267 U246 2.449 . S
O267 C263 1.282 . S
H268 C241 0.931 . S
H269 C243 0.929 . S
H270 C244 0.930 . S
H271 C245 0.931 . S
H272 C252 0.932 . S
H273 C253 0.930 . S
H274 C254 0.929 . S
H275 C256 0.930 . S
H276 C258 0.932 . S
H277 C259 0.929 . S
H278 C260 0.928 . S
H279 C262 0.932 . S
C280 C281 1.264 . S
C280 C285 1.479 . S
C280 C290 1.465 . S
C281 C280 1.264 . S
C281 C283 1.339 . S
C281 H308 0.931 . S
C282 C283 1.395 . S
C282 C284 1.320 . S
C283 C281 1.339 . S
C283 C282 1.395 . S
C283 H309 0.929 . S
C284 C282 1.320 . S
C284 C285 1.405 . S
C284 H310 0.930 . S
C285 C280 1.479 . S
C285 C284 1.405 . S
C285 H311 0.931 . S
U286 O287 2.454 . S
U286 O288 2.458 . S
U286 C289 2.984 . S
U286 C290 2.847 . S
U286 C303 2.882 . S
U286 O304 2.441 . S
U286 O305 2.420 . S
U286 O306 2.455 . S
U286 O307 2.449 . S
O287 U286 2.454 . S
O287 C289 1.353 . S
O288 U286 2.458 . S
O288 C289 1.286 . S
C289 U286 2.984 . S
C289 O287 1.353 . S
C289 O288 1.286 . S
C289 C291 1.363 . S
C290 C280 1.465 . S
C290 U286 2.847 . S
C290 O304 1.249 . S
C290 O305 1.202 . S
C291 C289 1.363 . S
C291 C293 1.408 . S
C291 C296 1.342 . S
C292 C293 1.310 . S
C292 C295 1.461 . S
C292 H312 0.932 . S
C293 C291 1.408 . S
C293 C292 1.310 . S
C293 H313 0.930 . S
C294 C295 1.474 . S
C294 C296 1.285 . S
C294 H314 0.929 . S
C295 C292 1.461 . S
C295 C294 1.474 . S
C296 C291 1.342 . S
C296 C294 1.285 . S
C296 H315 0.930 . S
C297 C300 1.424 . S
C297 C302 1.245 . S
C297 C303 1.428 . S
C298 C301 1.260 . S
C298 C302 1.477 . S
C298 H316 0.932 . S
C299 C300 1.384 . S
C299 C301 1.479 . S
C299 H317 0.929 . S
C300 C297 1.424 . S
C300 C299 1.384 . S
C300 H318 0.928 . S
C301 C298 1.260 . S
C301 C299 1.479 . S
C302 C297 1.245 . S
C302 C298 1.477 . S
C302 H319 0.932 . S
C303 U286 2.882 . S
C303 C297 1.428 . S
C303 O306 1.301 . S
C303 O307 1.282 . S
O304 U286 2.441 . S
O304 C290 1.249 . S
O305 U286 2.420 . S
O305 C290 1.202 . S
O306 U286 2.455 . S
O306 C303 1.301 . S
O307 U286 2.449 . S
O307 C303 1.282 . S
H308 C281 0.931 . S
H309 C283 0.929 . S
H310 C284 0.930 . S
H311 C285 0.931 . S
H312 C292 0.932 . S
H313 C293 0.930 . S
H314 C294 0.929 . S
H315 C296 0.930 . S
H316 C298 0.932 . S
H317 C299 0.929 . S
H318 C300 0.928 . S
H319 C302 0.932 . S
C320 C321 1.264 . S
C320 C325 1.479 . S
C320 C330 1.465 . S
C321 C320 1.264 . S
C321 C323 1.339 . S
C321 H348 0.931 . S
C322 C323 1.395 . S
C322 C324 1.320 . S
C323 C321 1.339 . S
C323 C322 1.395 . S
C323 H349 0.929 . S
C324 C322 1.320 . S
C324 C325 1.405 . S
C324 H350 0.930 . S
C325 C320 1.479 . S
C325 C324 1.405 . S
C325 H351 0.931 . S
U326 O327 2.454 . S
U326 O328 2.458 . S
U326 C329 2.984 . S
U326 C330 2.847 . S
U326 C343 2.882 . S
U326 O344 2.441 . S
U326 O345 2.420 . S
U326 O346 2.455 . S
U326 O347 2.449 . S
O327 U326 2.454 . S
O327 C329 1.353 . S
O328 U326 2.458 . S
O328 C329 1.286 . S
C329 U326 2.984 . S
C329 O327 1.353 . S
C329 O328 1.286 . S
C329 C331 1.363 . S
C330 C320 1.465 . S
C330 U326 2.847 . S
C330 O344 1.249 . S
C330 O345 1.202 . S
C331 C329 1.363 . S
C331 C333 1.408 . S
C331 C336 1.342 . S
C332 C333 1.310 . S
C332 C335 1.461 . S
C332 H352 0.932 . S
C333 C331 1.408 . S
C333 C332 1.310 . S
C333 H353 0.930 . S
C334 C335 1.474 . S
C334 C336 1.285 . S
C334 H354 0.929 . S
C335 C332 1.461 . S
C335 C334 1.474 . S
C336 C331 1.342 . S
C336 C334 1.285 . S
C336 H355 0.930 . S
C337 C340 1.424 . S
C337 C342 1.245 . S
C337 C343 1.428 1_556 S
C338 C341 1.260 . S
C338 C342 1.477 . S
C338 H356 0.932 . S
C339 C340 1.384 . S
C339 C341 1.479 . S
C339 H357 0.929 . S
C340 C337 1.424 . S
C340 C339 1.384 . S
C340 H358 0.928 . S
C341 C338 1.260 . S
C341 C339 1.479 . S
C342 C337 1.245 . S
C342 C338 1.477 . S
C342 H359 0.932 1_556 S
C343 U326 2.882 . S
C343 C337 1.428 1_554 S
C343 O346 1.301 . S
C343 O347 1.282 . S
O344 U326 2.441 . S
O344 C330 1.249 . S
O345 U326 2.420 . S
O345 C330 1.202 . S
O346 U326 2.455 . S
O346 C343 1.301 . S
O347 U326 2.449 . S
O347 C343 1.282 . S
H348 C321 0.931 . S
H349 C323 0.929 . S
H350 C324 0.930 . S
H351 C325 0.931 . S
H352 C332 0.932 . S
H353 C333 0.930 . S
H354 C334 0.929 . S
H355 C336 0.930 . S
H356 C338 0.932 . S
H357 C339 0.929 . S
H358 C340 0.928 . S
H359 C342 0.932 1_554 S
C360 C361 1.264 . S
C360 C365 1.479 . S
C360 C370 1.465 . S
C361 C360 1.264 . S
C361 C363 1.339 . S
C361 H388 0.931 . S
C362 C363 1.395 . S
C362 C364 1.320 . S
C363 C361 1.339 . S
C363 C362 1.395 . S
C363 H389 0.929 . S
C364 C362 1.320 . S
C364 C365 1.405 . S
C364 H390 0.930 . S
C365 C360 1.479 . S
C365 C364 1.405 . S
C365 H391 0.931 . S
U366 O367 2.454 . S
U366 O368 2.458 . S
U366 C369 2.984 . S
U366 C370 2.847 . S
U366 C383 2.882 . S
U366 O384 2.441 . S
U366 O385 2.420 . S
U366 O386 2.455 . S
U366 O387 2.449 . S
O367 U366 2.454 . S
O367 C369 1.353 . S
O368 U366 2.458 . S
O368 C369 1.286 . S
C369 U366 2.984 . S
C369 O367 1.353 . S
C369 O368 1.286 . S
C369 C371 1.363 . S
C370 C360 1.465 . S
C370 U366 2.847 . S
C370 O384 1.249 . S
C370 O385 1.202 . S
C371 C369 1.363 . S
C371 C373 1.408 . S
C371 C376 1.342 . S
C372 C373 1.310 . S
C372 C375 1.461 . S
C372 H392 0.932 . S
C373 C371 1.408 . S
C373 C372 1.310 . S
C373 H393 0.930 . S
C374 C375 1.474 . S
C374 C376 1.285 . S
C374 H394 0.929 . S
C375 C372 1.461 . S
C375 C374 1.474 . S
C376 C371 1.342 . S
C376 C374 1.285 . S
C376 H395 0.930 . S
C377 C380 1.424 . S
C377 C382 1.245 . S
C377 C383 1.428 . S
C378 C381 1.260 . S
C378 C382 1.477 . S
C378 H396 0.932 . S
C379 C380 1.384 . S
C379 C381 1.479 . S
C379 H397 0.929 . S
C380 C377 1.424 . S
C380 C379 1.384 . S
C380 H398 0.928 . S
C381 C378 1.260 . S
C381 C379 1.479 . S
C382 C377 1.245 . S
C382 C378 1.477 . S
C382 H399 0.932 . S
C383 U366 2.882 . S
C383 C377 1.428 . S
C383 O386 1.301 . S
C383 O387 1.282 . S
O384 U366 2.441 . S
O384 C370 1.249 . S
O385 U366 2.420 . S
O385 C370 1.202 . S
O386 U366 2.455 . S
O386 C383 1.301 . S
O387 U366 2.449 . S
O387 C383 1.282 . S
H388 C361 0.931 . S
H389 C363 0.929 . S
H390 C364 0.930 . S
H391 C365 0.931 . S
H392 C372 0.932 . S
H393 C373 0.930 . S
H394 C374 0.929 . S
H395 C376 0.930 . S
H396 C378 0.932 . S
H397 C379 0.929 . S
H398 C380 0.928 . S
H399 C382 0.932 . S
C400 C401 1.264 . S
C400 C405 1.479 . S
C400 C410 1.465 . S
C401 C400 1.264 . S
C401 C403 1.339 . S
C401 H428 0.931 . S
C402 C403 1.395 . S
C402 C404 1.320 . S
C403 C401 1.339 . S
C403 C402 1.395 . S
C403 H429 0.929 . S
C404 C402 1.320 . S
C404 C405 1.405 . S
C404 H430 0.930 . S
C405 C400 1.479 . S
C405 C404 1.405 . S
C405 H431 0.931 . S
U406 O407 2.454 . S
U406 O408 2.458 . S
U406 C409 2.984 . S
U406 C410 2.847 . S
U406 C423 2.882 . S
U406 O424 2.441 . S
U406 O425 2.420 . S
U406 O426 2.455 . S
U406 O427 2.449 . S
O407 U406 2.454 . S
O407 C409 1.353 . S
O408 U406 2.458 . S
O408 C409 1.286 . S
C409 U406 2.984 . S
C409 O407 1.353 . S
C409 O408 1.286 . S
C409 C411 1.363 . S
C410 C400 1.465 . S
C410 U406 2.847 . S
C410 O424 1.249 . S
C410 O425 1.202 . S
C411 C409 1.363 . S
C411 C413 1.408 . S
C411 C416 1.342 . S
C412 C413 1.310 . S
C412 C415 1.461 . S
C412 H432 0.932 . S
C413 C411 1.408 . S
C413 C412 1.310 . S
C413 H433 0.930 . S
C414 C415 1.474 . S
C414 C416 1.285 . S
C414 H434 0.929 . S
C415 C412 1.461 . S
C415 C414 1.474 . S
C416 C411 1.342 . S
C416 C414 1.285 . S
C416 H435 0.930 . S
C417 C420 1.424 . S
C417 C422 1.245 . S
C417 C423 1.428 . S
C418 C421 1.260 . S
C418 C422 1.477 . S
C418 H436 0.932 . S
C419 C420 1.384 . S
C419 C421 1.479 . S
C419 H437 0.929 . S
C420 C417 1.424 . S
C420 C419 1.384 . S
C420 H438 0.928 . S
C421 C418 1.260 . S
C421 C419 1.479 . S
C422 C417 1.245 . S
C422 C418 1.477 . S
C422 H439 0.932 . S
C423 U406 2.882 . S
C423 C417 1.428 . S
C423 O426 1.301 . S
C423 O427 1.282 . S
O424 U406 2.441 . S
O424 C410 1.249 . S
O425 U406 2.420 . S
O425 C410 1.202 . S
O426 U406 2.455 . S
O426 C423 1.301 . S
O427 U406 2.449 . S
O427 C423 1.282 . S
H428 C401 0.931 . S
H429 C403 0.929 . S
H430 C404 0.930 . S
H431 C405 0.931 . S
H432 C412 0.932 . S
H433 C413 0.930 . S
H434 C414 0.929 . S
H435 C416 0.930 . S
H436 C418 0.932 . S
H437 C419 0.929 . S
H438 C420 0.928 . S
H439 C422 0.932 . S
C440 C441 1.264 . S
C440 C445 1.479 . S
C440 C450 1.465 . S
C441 C440 1.264 . S
C441 C443 1.339 . S
C441 H468 0.931 . S
C442 C443 1.395 . S
C442 C444 1.320 . S
C443 C441 1.339 . S
C443 C442 1.395 . S
C443 H469 0.929 . S
C444 C442 1.320 . S
C444 C445 1.405 . S
C444 H470 0.930 . S
C445 C440 1.479 . S
C445 C444 1.405 . S
C445 H471 0.931 . S
U446 O447 2.454 . S
U446 O448 2.458 . S
U446 C449 2.984 . S
U446 C450 2.847 . S
U446 C463 2.882 . S
U446 O464 2.441 . S
U446 O465 2.420 . S
U446 O466 2.455 . S
U446 O467 2.449 . S
O447 U446 2.454 . S
O447 C449 1.353 . S
O448 U446 2.458 . S
O448 C449 1.286 . S
C449 U446 2.984 . S
C449 O447 1.353 . S
C449 O448 1.286 . S
C449 C451 1.363 . S
C450 C440 1.465 . S
C450 U446 2.847 . S
C450 O464 1.249 . S
C450 O465 1.202 . S
C451 C449 1.363 . S
C451 C453 1.408 . S
C451 C456 1.342 . S
C452 C453 1.310 . S
C452 C455 1.461 . S
C452 H472 0.932 . S
C453 C451 1.408 . S
C453 C452 1.310 . S
C453 H473 0.930 . S
C454 C455 1.474 . S
C454 C456 1.285 . S
C454 H474 0.929 . S
C455 C452 1.461 . S
C455 C454 1.474 . S
C456 C451 1.342 . S
C456 C454 1.285 . S
C456 H475 0.930 . S
C457 C460 1.424 . S
C457 C462 1.245 . S
C457 C463 1.428 . S
C458 C461 1.260 . S
C458 C462 1.477 . S
C458 H476 0.932 . S
C459 C460 1.384 . S
C459 C461 1.479 . S
C459 H477 0.929 . S
C460 C457 1.424 . S
C460 C459 1.384 . S
C460 H478 0.928 . S
C461 C458 1.260 . S
C461 C459 1.479 . S
C462 C457 1.245 . S
C462 C458 1.477 . S
C462 H479 0.932 . S
C463 U446 2.882 . S
C463 C457 1.428 . S
C463 O466 1.301 . S
C463 O467 1.282 . S
O464 U446 2.441 . S
O464 C450 1.249 . S
O465 U446 2.420 . S
O465 C450 1.202 . S
O466 U446 2.455 . S
O466 C463 1.301 . S
O467 U446 2.449 . S
O467 C463 1.282 . S
H468 C441 0.931 . S
H469 C443 0.929 . S
H470 C444 0.930 . S
H471 C445 0.931 . S
H472 C452 0.932 . S
H473 C453 0.930 . S
H474 C454 0.929 . S
H475 C456 0.930 . S
H476 C458 0.932 . S
H477 C459 0.929 . S
H478 C460 0.928 . S
H479 C462 0.932 . S
H480 C486 0.930 . S
H481 C490 0.930 . S
H482 C495 0.929 . S
H483 C493 0.929 . S
H484 C488 0.929 . S
H485 C494 0.929 . S
C486 H480 0.930 . S
C486 C487 1.367 . S
C486 C494 1.378 . S
C487 C486 1.367 . S
C487 C495 1.433 . S
C488 H484 0.929 . S
C488 C490 1.378 . S
C488 C492 1.350 . S
C489 C492 1.463 . S
C489 C494 1.350 . S
C489 N497 1.427 . S
C490 H481 0.930 . S
C490 C488 1.378 . S
C490 C491 1.367 . S
C491 C490 1.367 . S
C491 C493 1.433 . S
C492 C488 1.350 . S
C492 C489 1.463 . S
C492 N496 1.427 . S
C493 H483 0.929 . S
C493 C491 1.433 . S
C493 N496 1.384 . S
C494 H485 0.929 . S
C494 C486 1.378 . S
C494 C489 1.350 . S
C495 H482 0.929 . S
C495 C487 1.433 . S
C495 N497 1.384 . S
N496 C492 1.427 . S
N496 C493 1.384 . S
N497 C489 1.427 . S
N497 C495 1.384 . S
H498 C504 0.930 . S
H499 C508 0.930 . S
H500 C513 0.929 . S
H501 C511 0.929 . S
H502 C506 0.929 . S
H503 C512 0.929 . S
C504 H498 0.930 . S
C504 C505 1.367 . S
C504 C512 1.378 . S
C505 C504 1.367 . S
C505 C513 1.433 . S
C506 H502 0.929 . S
C506 C508 1.378 . S
C506 C510 1.350 . S
C507 C510 1.463 . S
C507 C512 1.350 . S
C507 N515 1.427 . S
C508 H499 0.930 . S
C508 C506 1.378 . S
C508 C509 1.367 . S
C509 C508 1.367 . S
C509 C511 1.433 . S
C510 C506 1.350 . S
C510 C507 1.463 . S
C510 N514 1.427 . S
C511 H501 0.929 . S
C511 C509 1.433 . S
C511 N514 1.384 . S
C512 H503 0.929 . S
C512 C504 1.378 . S
C512 C507 1.350 . S
C513 H500 0.929 . S
C513 C505 1.433 . S
C513 N515 1.384 . S
N514 C510 1.427 . S
N514 C511 1.384 . S
N515 C507 1.427 . S
N515 C513 1.384 . S
H516 C522 0.930 . S
H517 C526 0.930 . S
H518 C531 0.929 . S
H519 C529 0.929 . S
H520 C524 0.929 . S
H521 C530 0.929 . S
C522 H516 0.930 . S
C522 C523 1.367 . S
C522 C530 1.378 . S
C523 C522 1.367 . S
C523 C531 1.433 . S
C524 H520 0.929 . S
C524 C526 1.378 . S
C524 C528 1.350 . S
C525 C528 1.463 . S
C525 C530 1.350 . S
C525 N533 1.427 . S
C526 H517 0.930 . S
C526 C524 1.378 . S
C526 C527 1.367 . S
C527 C526 1.367 . S
C527 C529 1.433 . S
C528 C524 1.350 . S
C528 C525 1.463 . S
C528 N532 1.427 . S
C529 H519 0.929 . S
C529 C527 1.433 . S
C529 N532 1.384 . S
C530 H521 0.929 . S
C530 C522 1.378 . S
C530 C525 1.350 . S
C531 H518 0.929 . S
C531 C523 1.433 . S
C531 N533 1.384 . S
N532 C528 1.427 . S
N532 C529 1.384 . S
N533 C525 1.427 . S
N533 C531 1.384 . S
H534 C540 0.930 . S
H535 C544 0.930 . S
H536 C549 0.929 . S
H537 C547 0.929 . S
H538 C542 0.929 . S
H539 C548 0.929 . S
C540 H534 0.930 . S
C540 C541 1.367 . S
C540 C548 1.378 . S
C541 C540 1.367 . S
C541 C549 1.433 . S
C542 H538 0.929 . S
C542 C544 1.378 . S
C542 C546 1.350 . S
C543 C546 1.463 . S
C543 C548 1.350 . S
C543 N551 1.427 . S
C544 H535 0.930 . S
C544 C542 1.378 . S
C544 C545 1.367 . S
C545 C544 1.367 . S
C545 C547 1.433 . S
C546 C542 1.350 . S
C546 C543 1.463 . S
C546 N550 1.427 . S
C547 H537 0.929 . S
C547 C545 1.433 . S
C547 N550 1.384 . S
C548 H539 0.929 . S
C548 C540 1.378 . S
C548 C543 1.350 . S
C549 H536 0.929 . S
C549 C541 1.433 . S
C549 N551 1.384 . S
N550 C546 1.427 . S
N550 C547 1.384 . S
N551 C543 1.427 . S
N551 C549 1.384 . S
H552 C558 0.930 . S
H553 C562 0.930 . S
H554 C567 0.929 . S
H555 C565 0.929 . S
H556 C560 0.929 . S
H557 C566 0.929 . S
C558 H552 0.930 . S
C558 C559 1.367 . S
C558 C566 1.378 . S
C559 C558 1.367 . S
C559 C567 1.433 . S
C560 H556 0.929 . S
C560 C562 1.378 . S
C560 C564 1.350 . S
C561 C564 1.463 . S
C561 C566 1.350 . S
C561 N569 1.427 . S
C562 H553 0.930 . S
C562 C560 1.378 . S
C562 C563 1.367 . S
C563 C562 1.367 . S
C563 C565 1.433 . S
C564 C560 1.350 . S
C564 C561 1.463 . S
C564 N568 1.427 . S
C565 H555 0.929 . S
C565 C563 1.433 . S
C565 N568 1.384 . S
C566 H557 0.929 . S
C566 C558 1.378 . S
C566 C561 1.350 . S
C567 H554 0.929 . S
C567 C559 1.433 . S
C567 N569 1.384 . S
N568 C564 1.427 . S
N568 C565 1.384 . S
N569 C561 1.427 . S
N569 C567 1.384 . S
H570 C576 0.930 . S
H571 C580 0.930 . S
H572 C585 0.929 . S
H573 C583 0.929 . S
H574 C578 0.929 . S
H575 C584 0.929 . S
C576 H570 0.930 . S
C576 C577 1.367 . S
C576 C584 1.378 . S
C577 C576 1.367 . S
C577 C585 1.433 . S
C578 H574 0.929 . S
C578 C580 1.378 . S
C578 C582 1.350 . S
C579 C582 1.463 . S
C579 C584 1.350 . S
C579 N587 1.427 . S
C580 H571 0.930 . S
C580 C578 1.378 . S
C580 C581 1.367 . S
C581 C580 1.367 . S
C581 C583 1.433 . S
C582 C578 1.350 . S
C582 C579 1.463 . S
C582 N586 1.427 . S
C583 H573 0.929 . S
C583 C581 1.433 . S
C583 N586 1.384 . S
C584 H575 0.929 . S
C584 C576 1.378 . S
C584 C579 1.350 . S
C585 H572 0.929 . S
C585 C577 1.433 . S
C585 N587 1.384 . S
N586 C582 1.427 . S
N586 C583 1.384 . S
N587 C579 1.427 . S
N587 C585 1.384 . S
H588 C594 0.930 . S
H589 C598 0.930 . S
H590 C603 0.929 . S
H591 C601 0.929 . S
H592 C596 0.929 . S
H593 C602 0.929 . S
C594 H588 0.930 . S
C594 C595 1.367 . S
C594 C602 1.378 . S
C595 C594 1.367 . S
C595 C603 1.433 . S
C596 H592 0.929 . S
C596 C598 1.378 . S
C596 C600 1.350 . S
C597 C600 1.463 . S
C597 C602 1.350 . S
C597 N605 1.427 . S
C598 H589 0.930 . S
C598 C596 1.378 . S
C598 C599 1.367 . S
C599 C598 1.367 . S
C599 C601 1.433 . S
C600 C596 1.350 . S
C600 C597 1.463 . S
C600 N604 1.427 . S
C601 H591 0.929 . S
C601 C599 1.433 . S
C601 N604 1.384 . S
C602 H593 0.929 . S
C602 C594 1.378 . S
C602 C597 1.350 . S
C603 H590 0.929 . S
C603 C595 1.433 . S
C603 N605 1.384 . S
N604 C600 1.427 . S
N604 C601 1.384 . S
N605 C597 1.427 . S
N605 C603 1.384 . S
H606 C612 0.930 . S
H607 C616 0.930 . S
H608 C621 0.929 . S
H609 C619 0.929 . S
H610 C614 0.929 . S
H611 C620 0.929 . S
C612 H606 0.930 . S
C612 C613 1.367 . S
C612 C620 1.378 . S
C613 C612 1.367 . S
C613 C621 1.433 . S
C614 H610 0.929 . S
C614 C616 1.378 . S
C614 C618 1.350 . S
C615 C618 1.463 . S
C615 C620 1.350 . S
C615 N623 1.427 . S
C616 H607 0.930 . S
C616 C614 1.378 . S
C616 C617 1.367 . S
C617 C616 1.367 . S
C617 C619 1.433 . S
C618 C614 1.350 . S
C618 C615 1.463 . S
C618 N622 1.427 . S
C619 H609 0.929 . S
C619 C617 1.433 . S
C619 N622 1.384 . S
C620 H611 0.929 . S
C620 C612 1.378 . S
C620 C615 1.350 . S
C621 H608 0.929 . S
C621 C613 1.433 . S
C621 N623 1.384 . S
N622 C618 1.427 . S
N622 C619 1.384 . S
N623 C615 1.427 . S
N623 C621 1.384 . S
H624 C630 0.930 . S
H625 C634 0.930 . S
H626 C639 0.929 . S
H627 C637 0.929 . S
H628 C632 0.929 . S
H629 C638 0.929 . S
C630 H624 0.930 . S
C630 C631 1.367 . S
C630 C638 1.378 . S
C631 C630 1.367 . S
C631 C639 1.433 . S
C632 H628 0.929 . S
C632 C634 1.378 . S
C632 C636 1.350 . S
C633 C636 1.463 . S
C633 C638 1.350 . S
C633 N641 1.427 . S
C634 H625 0.930 . S
C634 C632 1.378 . S
C634 C635 1.367 . S
C635 C634 1.367 . S
C635 C637 1.433 . S
C636 C632 1.350 . S
C636 C633 1.463 . S
C636 N640 1.427 . S
C637 H627 0.929 . S
C637 C635 1.433 . S
C637 N640 1.384 . S
C638 H629 0.929 . S
C638 C630 1.378 . S
C638 C633 1.350 . S
C639 H626 0.929 . S
C639 C631 1.433 . S
C639 N641 1.384 . S
N640 C636 1.427 . S
N640 C637 1.384 . S
N641 C633 1.427 . S
N641 C639 1.384 . S
H642 C648 0.930 . S
H643 C652 0.930 . S
H644 C657 0.929 . S
H645 C655 0.929 . S
H646 C650 0.929 . S
H647 C656 0.929 . S
C648 H642 0.930 . S
C648 C649 1.367 . S
C648 C656 1.378 . S
C649 C648 1.367 . S
C649 C657 1.433 . S
C650 H646 0.929 . S
C650 C652 1.378 . S
C650 C654 1.350 . S
C651 C654 1.463 . S
C651 C656 1.350 . S
C651 N659 1.427 . S
C652 H643 0.930 . S
C652 C650 1.378 . S
C652 C653 1.367 . S
C653 C652 1.367 . S
C653 C655 1.433 . S
C654 C650 1.350 . S
C654 C651 1.463 . S
C654 N658 1.427 . S
C655 H645 0.929 . S
C655 C653 1.433 . S
C655 N658 1.384 . S
C656 H647 0.929 . S
C656 C648 1.378 . S
C656 C651 1.350 . S
C657 H644 0.929 . S
C657 C649 1.433 . S
C657 N659 1.384 . S
N658 C654 1.427 . S
N658 C655 1.384 . S
N659 C651 1.427 . S
N659 C657 1.384 . S
H660 C666 0.930 . S
H661 C670 0.930 . S
H662 C675 0.929 . S
H663 C673 0.929 . S
H664 C668 0.929 . S
H665 C674 0.929 . S
C666 H660 0.930 . S
C666 C667 1.367 . S
C666 C674 1.378 . S
C667 C666 1.367 . S
C667 C675 1.433 . S
C668 H664 0.929 . S
C668 C670 1.378 . S
C668 C672 1.350 . S
C669 C672 1.463 . S
C669 C674 1.350 . S
C669 N677 1.427 . S
C670 H661 0.930 . S
C670 C668 1.378 . S
C670 C671 1.367 . S
C671 C670 1.367 . S
C671 C673 1.433 . S
C672 C668 1.350 . S
C672 C669 1.463 . S
C672 N676 1.427 . S
C673 H663 0.929 . S
C673 C671 1.433 . S
C673 N676 1.384 . S
C674 H665 0.929 . S
C674 C666 1.378 . S
C674 C669 1.350 . S
C675 H662 0.929 . S
C675 C667 1.433 . S
C675 N677 1.384 . S
N676 C672 1.427 . S
N676 C673 1.384 . S
N677 C669 1.427 . S
N677 C675 1.384 . S
H678 C684 0.930 . S
H679 C688 0.930 . S
H680 C693 0.929 . S
H681 C691 0.929 . S
H682 C686 0.929 . S
H683 C692 0.929 . S
C684 H678 0.930 . S
C684 C685 1.367 . S
C684 C692 1.378 . S
C685 C684 1.367 . S
C685 C693 1.433 . S
C686 H682 0.929 . S
C686 C688 1.378 . S
C686 C690 1.350 . S
C687 C690 1.463 . S
C687 C692 1.350 . S
C687 N695 1.427 . S
C688 H679 0.930 . S
C688 C686 1.378 . S
C688 C689 1.367 . S
C689 C688 1.367 . S
C689 C691 1.433 . S
C690 C686 1.350 . S
C690 C687 1.463 . S
C690 N694 1.427 . S
C691 H681 0.929 . S
C691 C689 1.433 . S
C691 N694 1.384 . S
C692 H683 0.929 . S
C692 C684 1.378 . S
C692 C687 1.350 . S
C693 H680 0.929 . S
C693 C685 1.433 . S
C693 N695 1.384 . S
N694 C690 1.427 . S
N694 C691 1.384 . S
N695 C687 1.427 . S
N695 C693 1.384 . S
H696 C702 0.930 . S
H697 C706 0.930 . S
H698 C711 0.929 . S
H699 C709 0.929 . S
H700 C704 0.929 1_545 S
H701 C710 0.929 1_565 S
C702 H696 0.930 . S
C702 C703 1.367 . S
C702 C710 1.378 . S
C703 C702 1.367 . S
C703 C711 1.433 . S
C704 H700 0.929 1_565 S
C704 C706 1.378 . S
C704 C708 1.350 . S
C705 C708 1.463 1_544 S
C705 C710 1.350 . S
C705 N713 1.427 . S
C706 H697 0.930 . S
C706 C704 1.378 . S
C706 C707 1.367 . S
C707 C706 1.367 . S
C707 C709 1.433 . S
C708 C704 1.350 . S
C708 C705 1.463 1_566 S
C708 N712 1.427 . S
C709 H699 0.929 . S
C709 C707 1.433 . S
C709 N712 1.384 . S
C710 H701 0.929 1_545 S
C710 C702 1.378 . S
C710 C705 1.350 . S
C711 H698 0.929 . S
C711 C703 1.433 . S
C711 N713 1.384 . S
N712 C708 1.427 . S
N712 C709 1.384 . S
N713 C705 1.427 . S
N713 C711 1.384 . S
H714 C720 0.930 . S
H715 C724 0.930 . S
H716 C729 0.929 . S
H717 C727 0.929 . S
H718 C722 0.929 . S
H719 C728 0.929 . S
C720 H714 0.930 . S
C720 C721 1.367 . S
C720 C728 1.378 . S
C721 C720 1.367 . S
C721 C729 1.433 . S
C722 H718 0.929 . S
C722 C724 1.378 . S
C722 C726 1.350 . S
C723 C726 1.463 . S
C723 C728 1.350 . S
C723 N731 1.427 . S
C724 H715 0.930 . S
C724 C722 1.378 . S
C724 C725 1.367 . S
C725 C724 1.367 . S
C725 C727 1.433 . S
C726 C722 1.350 . S
C726 C723 1.463 . S
C726 N730 1.427 . S
C727 H717 0.929 . S
C727 C725 1.433 . S
C727 N730 1.384 . S
C728 H719 0.929 . S
C728 C720 1.378 . S
C728 C723 1.350 . S
C729 H716 0.929 . S
C729 C721 1.433 . S
C729 N731 1.384 . S
N730 C726 1.427 . S
N730 C727 1.384 . S
N731 C723 1.427 . S
N731 C729 1.384 . S
H732 C738 0.930 . S
H733 C742 0.930 . S
H734 C747 0.929 . S
H735 C745 0.929 . S
H736 C740 0.929 . S
H737 C746 0.929 . S
C738 H732 0.930 . S
C738 C739 1.367 . S
C738 C746 1.378 . S
C739 C738 1.367 . S
C739 C747 1.433 . S
C740 H736 0.929 . S
C740 C742 1.378 . S
C740 C744 1.350 . S
C741 C744 1.463 1_455 S
C741 C746 1.350 . S
C741 N749 1.427 . S
C742 H733 0.930 . S
C742 C740 1.378 . S
C742 C743 1.367 . S
C743 C742 1.367 . S
C743 C745 1.433 . S
C744 C740 1.350 . S
C744 C741 1.463 1_655 S
C744 N748 1.427 . S
C745 H735 0.929 . S
C745 C743 1.433 . S
C745 N748 1.384 . S
C746 H737 0.929 . S
C746 C738 1.378 . S
C746 C741 1.350 . S
C747 H734 0.929 . S
C747 C739 1.433 . S
C747 N749 1.384 . S
N748 C744 1.427 . S
N748 C745 1.384 . S
N749 C741 1.427 . S
N749 C747 1.384 . S
H750 C756 0.930 . S
H751 C760 0.930 . S
H752 C765 0.929 . S
H753 C763 0.929 . S
H754 C758 0.929 . S
H755 C764 0.929 . S
C756 H750 0.930 . S
C756 C757 1.367 . S
C756 C764 1.378 . S
C757 C756 1.367 . S
C757 C765 1.433 . S
C758 H754 0.929 . S
C758 C760 1.378 . S
C758 C762 1.350 . S
C759 C762 1.463 1_545 S
C759 C764 1.350 . S
C759 N767 1.427 . S
C760 H751 0.930 . S
C760 C758 1.378 . S
C760 C761 1.367 . S
C761 C760 1.367 . S
C761 C763 1.433 . S
C762 C758 1.350 . S
C762 C759 1.463 1_565 S
C762 N766 1.427 . S
C763 H753 0.929 . S
C763 C761 1.433 . S
C763 N766 1.384 . S
C764 H755 0.929 . S
C764 C756 1.378 . S
C764 C759 1.350 . S
C765 H752 0.929 . S
C765 C757 1.433 . S
C765 N767 1.384 . S
N766 C762 1.427 . S
N766 C763 1.384 . S
N767 C759 1.427 . S
N767 C765 1.384 . S
H768 C774 0.930 . S
H769 C778 0.930 . S
H770 C783 0.929 . S
H771 C781 0.929 . S
H772 C776 0.929 . S
H773 C782 0.929 . S
C774 H768 0.930 . S
C774 C775 1.367 . S
C774 C782 1.378 . S
C775 C774 1.367 . S
C775 C783 1.433 . S
C776 H772 0.929 . S
C776 C778 1.378 . S
C776 C780 1.350 . S
C777 C780 1.463 . S
C777 C782 1.350 . S
C777 N785 1.427 . S
C778 H769 0.930 . S
C778 C776 1.378 . S
C778 C779 1.367 . S
C779 C778 1.367 . S
C779 C781 1.433 . S
C780 C776 1.350 . S
C780 C777 1.463 . S
C780 N784 1.427 . S
C781 H771 0.929 . S
C781 C779 1.433 . S
C781 N784 1.384 . S
C782 H773 0.929 . S
C782 C774 1.378 . S
C782 C777 1.350 . S
C783 H770 0.929 . S
C783 C775 1.433 . S
C783 N785 1.384 . S
N784 C780 1.427 . S
N784 C781 1.384 . S
N785 C777 1.427 . S
N785 C783 1.384 . S
H786 C792 0.930 . S
H787 C796 0.930 . S
H788 C801 0.929 . S
H789 C799 0.929 . S
H790 C794 0.929 . S
H791 C800 0.929 . S
C792 H786 0.930 . S
C792 C793 1.367 . S
C792 C800 1.378 . S
C793 C792 1.367 . S
C793 C801 1.433 . S
C794 H790 0.929 . S
C794 C796 1.378 . S
C794 C798 1.350 . S
C795 C798 1.463 1_655 S
C795 C800 1.350 . S
C795 N803 1.427 . S
C796 H787 0.930 . S
C796 C794 1.378 . S
C796 C797 1.367 . S
C797 C796 1.367 . S
C797 C799 1.433 . S
C798 C794 1.350 . S
C798 C795 1.463 1_455 S
C798 N802 1.427 . S
C799 H789 0.929 . S
C799 C797 1.433 . S
C799 N802 1.384 . S
C800 H791 0.929 . S
C800 C792 1.378 . S
C800 C795 1.350 . S
C801 H788 0.929 . S
C801 C793 1.433 . S
C801 N803 1.384 . S
N802 C798 1.427 . S
N802 C799 1.384 . S
N803 C795 1.427 . S
N803 C801 1.384 . S
C487 C21 1.558 . S
C491 C421 1.558 . S
C505 C461 1.558 . S
C509 C61 1.558 . S
C523 C261 1.556 . S
C527 C101 1.557 . S
C541 C141 1.558 . S
C545 C301 1.558 . S
C559 C341 1.560 . S
C563 C181 1.560 . S
C577 C221 1.558 . S
C581 C381 1.558 . S
C595 C2 1.535 . S
C599 C322 1.531 . S
C613 C362 1.531 . S
C617 C42 1.531 . S
C631 C82 1.531 . S
C635 C402 1.531 . S
C649 C442 1.531 . S
C653 C122 1.531 . S
C667 C162 1.534 . S
C671 C242 1.529 . S
C685 C202 1.531 . S
C689 C282 1.531 . S
C703 C15 1.544 . S
C707 C295 1.544 . S
C721 C335 1.544 . S
C725 C55 1.543 . S
C739 C375 1.541 . S
C743 C95 1.542 . S
C757 C415 1.542 . S
C761 C135 1.542 . S
C775 C175 1.544 . S
C779 C455 1.545 . S
C793 C255 1.543 . S
C797 C215 1.543 . S
