# Generated by pormake.
# Topology yff, (5)-cn, num edge types: 1
# Building blocks:
#     Node 0, Type 0, BuildingBlock: XOMCOT_clean_sbu_1, # of connection points: 5
#     Node 1, Type 0, BuildingBlock: XOMCOT_clean_sbu_1, # of connection points: 5
#     Node 2, Type 0, BuildingBlock: XOMCOT_clean_sbu_1, # of connection points: 5
#     Node 3, Type 0, BuildingBlock: XOMCOT_clean_sbu_1, # of connection points: 5
#     Node 4, Type 0, BuildingBlock: XOMCOT_clean_sbu_1, # of connection points: 5
#     Node 5, Type 0, BuildingBlock: XOMCOT_clean_sbu_1, # of connection points: 5
#     Node 6, Type 0, BuildingBlock: XOMCOT_clean_sbu_1, # of connection points: 5
#     Node 7, Type 0, BuildingBlock: XOMCOT_clean_sbu_1, # of connection points: 5
#     Node 8, Type 0, BuildingBlock: XOMCOT_clean_sbu_1, # of connection points: 5
#     Node 9, Type 0, BuildingBlock: XOMCOT_clean_sbu_1, # of connection points: 5
#     Node 10, Type 0, BuildingBlock: XOMCOT_clean_sbu_1, # of connection points: 5
#     Node 11, Type 0, BuildingBlock: XOMCOT_clean_sbu_1, # of connection points: 5
#     Node 12, Type 0, BuildingBlock: XOMCOT_clean_sbu_1, # of connection points: 5
#     Node 13, Type 0, BuildingBlock: XOMCOT_clean_sbu_1, # of connection points: 5
#     Node 14, Type 0, BuildingBlock: XOMCOT_clean_sbu_1, # of connection points: 5
#     Node 15, Type 0, BuildingBlock: XOMCOT_clean_sbu_1, # of connection points: 5
#     Edge 16, Type (0, 0), BuildingBlock: TEMPAE_clean_linker_10, # of connection points: 2
#     Edge 17, Type (0, 0), BuildingBlock: TEMPAE_clean_linker_10, # of connection points: 2
#     Edge 18, Type (0, 0), BuildingBlock: TEMPAE_clean_linker_10, # of connection points: 2
#     Edge 19, Type (0, 0), BuildingBlock: TEMPAE_clean_linker_10, # of connection points: 2
#     Edge 20, Type (0, 0), BuildingBlock: TEMPAE_clean_linker_10, # of connection points: 2
#     Edge 21, Type (0, 0), BuildingBlock: TEMPAE_clean_linker_10, # of connection points: 2
#     Edge 22, Type (0, 0), BuildingBlock: TEMPAE_clean_linker_10, # of connection points: 2
#     Edge 23, Type (0, 0), BuildingBlock: TEMPAE_clean_linker_10, # of connection points: 2
#     Edge 24, Type (0, 0), BuildingBlock: TEMPAE_clean_linker_10, # of connection points: 2
#     Edge 25, Type (0, 0), BuildingBlock: TEMPAE_clean_linker_10, # of connection points: 2
#     Edge 26, Type (0, 0), BuildingBlock: TEMPAE_clean_linker_10, # of connection points: 2
#     Edge 27, Type (0, 0), BuildingBlock: TEMPAE_clean_linker_10, # of connection points: 2
#     Edge 28, Type (0, 0), BuildingBlock: TEMPAE_clean_linker_10, # of connection points: 2
#     Edge 29, Type (0, 0), BuildingBlock: TEMPAE_clean_linker_10, # of connection points: 2
#     Edge 30, Type (0, 0), BuildingBlock: TEMPAE_clean_linker_10, # of connection points: 2
#     Edge 31, Type (0, 0), BuildingBlock: TEMPAE_clean_linker_10, # of connection points: 2
#     Edge 32, Type (0, 0), BuildingBlock: TEMPAE_clean_linker_10, # of connection points: 2
#     Edge 33, Type (0, 0), BuildingBlock: TEMPAE_clean_linker_10, # of connection points: 2
#     Edge 34, Type (0, 0), BuildingBlock: TEMPAE_clean_linker_10, # of connection points: 2
#     Edge 35, Type (0, 0), BuildingBlock: TEMPAE_clean_linker_10, # of connection points: 2
#     Edge 36, Type (0, 0), BuildingBlock: TEMPAE_clean_linker_10, # of connection points: 2
#     Edge 37, Type (0, 0), BuildingBlock: TEMPAE_clean_linker_10, # of connection points: 2
#     Edge 38, Type (0, 0), BuildingBlock: TEMPAE_clean_linker_10, # of connection points: 2
#     Edge 39, Type (0, 0), BuildingBlock: TEMPAE_clean_linker_10, # of connection points: 2
#     Edge 40, Type (0, 0), BuildingBlock: TEMPAE_clean_linker_10, # of connection points: 2
#     Edge 41, Type (0, 0), BuildingBlock: TEMPAE_clean_linker_10, # of connection points: 2
#     Edge 42, Type (0, 0), BuildingBlock: TEMPAE_clean_linker_10, # of connection points: 2
#     Edge 43, Type (0, 0), BuildingBlock: TEMPAE_clean_linker_10, # of connection points: 2
#     Edge 44, Type (0, 0), BuildingBlock: TEMPAE_clean_linker_10, # of connection points: 2
#     Edge 45, Type (0, 0), BuildingBlock: TEMPAE_clean_linker_10, # of connection points: 2
#     Edge 46, Type (0, 0), BuildingBlock: TEMPAE_clean_linker_10, # of connection points: 2
#     Edge 47, Type (0, 0), BuildingBlock: TEMPAE_clean_linker_10, # of connection points: 2
#     Edge 48, Type (0, 0), BuildingBlock: TEMPAE_clean_linker_10, # of connection points: 2
#     Edge 49, Type (0, 0), BuildingBlock: TEMPAE_clean_linker_10, # of connection points: 2
#     Edge 50, Type (0, 0), BuildingBlock: TEMPAE_clean_linker_10, # of connection points: 2
#     Edge 51, Type (0, 0), BuildingBlock: TEMPAE_clean_linker_10, # of connection points: 2
#     Edge 52, Type (0, 0), BuildingBlock: TEMPAE_clean_linker_10, # of connection points: 2
#     Edge 53, Type (0, 0), BuildingBlock: TEMPAE_clean_linker_10, # of connection points: 2
#     Edge 54, Type (0, 0), BuildingBlock: TEMPAE_clean_linker_10, # of connection points: 2
#     Edge 55, Type (0, 0), BuildingBlock: TEMPAE_clean_linker_10, # of connection points: 2
# Relax obj value: 0.476
# Max RMSD: 0.310
# Mean RMSD: 0.310
data_MOF--net-yff--node1-XOMCOT_clean_sbu_1--edge1-TEMPAE_clean_linker_10
_symmetry_space_group_name_H-M    P1
_symmetry_Int_Tables_number       1
_symmetry_cell_setting            triclinic
loop_
_symmetry_equiv_pos_as_xyz
'x, y, z'
_cell_length_a     60.388492
_cell_length_b     60.563712
_cell_length_c     30.019083
_cell_angle_alpha  90.040608
_cell_angle_beta   90.05895
_cell_angle_gamma 90.006855
loop_
_atom_site_label
_atom_site_type_symbol
_atom_site_fract_x
_atom_site_fract_y
_atom_site_fract_z
_atom_type_partial_charge
C0 C 0.0988 0.00394 0.41116 0.0
C1 C 0.09396 0.98613 0.38448 0.0
N2 N 0.07776 0.99206 0.35601 0.0
N3 N 0.08586 0.0211 0.39932 0.0
C4 C 0.0732 0.01338 0.36561 0.0
H5 H 0.11035 0.00412 0.43873 0.0
Co6 Co 0.08325 0.04729 0.43118 0.0
C7 C 0.08801 0.07986 0.35628 0.0
O8 O 0.10345 0.09097 0.37756 0.0
N9 N 0.07973 0.07283 0.46636 0.0
C10 C 0.0703 0.10461 0.49896 0.0
C11 C 0.07433 0.09418 0.45879 0.0
C12 C 0.07801 0.07066 0.51105 0.0
N13 N 0.07247 0.08961 0.53168 0.0
O14 O 0.05237 0.04267 0.4355 0.0
H15 H 0.07169 0.10155 0.42654 0.0
H16 H 0.08013 0.05511 0.52822 0.0
O17 O 0.0788 0.06326 0.37497 0.0
C18 C 0.04676 0.0297 0.46675 0.0
O19 O 0.0623 0.02042 0.49105 0.0
N20 N 0.11421 0.05092 0.42869 0.0
C21 C 0.16019 0.04745 0.43057 0.0
C22 C 0.14885 0.04751 0.38992 0.0
C23 C 0.12579 0.04882 0.38973 0.0
C24 C 0.12517 0.05115 0.46843 0.0
C25 C 0.14815 0.04965 0.47011 0.0
H26 H 0.11721 0.04678 0.3584 0.0
H27 H 0.11615 0.05106 0.49933 0.0
H28 H 0.05984 0.02269 0.35064 0.0
H29 H 0.10128 0.96986 0.38685 0.0
H30 H 0.06478 0.12147 0.50349 0.0
H31 H 0.15759 0.04515 0.35879 0.0
H32 H 0.15639 0.04931 0.50219 0.0
C33 C 0.47098 0.1002 0.9304 0.0
C34 C 0.48857 0.09607 0.90256 0.0
N35 N 0.48839 0.07445 0.89188 0.0
N36 N 0.45952 0.08135 0.93666 0.0
C37 C 0.47062 0.06592 0.91307 0.0
H38 H 0.46718 0.1158 0.94621 0.0
Co39 Co 0.436 0.07725 0.97597 0.0
C40 C 0.40266 0.0576 0.9142 0.0
O41 O 0.38709 0.07045 0.9305 0.0
N42 N 0.4136 0.07298 0.01831 0.0
C43 C 0.39029 0.05696 0.06587 0.0
C44 C 0.39721 0.05788 0.02219 0.0
C45 C 0.41671 0.08035 0.06039 0.0
N46 N 0.40283 0.0709 0.08993 0.0
O47 O 0.45112 0.05306 1.00116 0.0
H48 H 0.39244 0.04611 0.99699 0.0
H49 H 0.43044 0.09082 0.06992 0.0
O50 O 0.42195 0.05781 0.93189 0.0
C51 C 0.46662 0.0585 0.02769 0.0
O52 O 0.47025 0.07956 0.03542 0.0
N53 N 0.42197 0.10232 0.95177 0.0
C54 C 0.41636 0.14433 0.91565 0.0
C55 C 0.41621 0.12566 0.88816 0.0
C56 C 0.41984 0.10495 0.90667 0.0
C57 C 0.41978 0.12005 0.97936 0.0
C58 C 0.41698 0.14124 0.96201 0.0
H59 H 0.42344 0.0916 0.88403 0.0
H60 H 0.42267 0.11829 0.01462 0.0
H61 H 0.46611 0.04863 0.91261 0.0
H62 H 0.50112 0.10785 0.89272 0.0
H63 H 0.37885 0.04502 0.0797 0.0
H64 H 0.41561 0.12719 0.85224 0.0
H65 H 0.41762 0.15514 0.98467 0.0
C66 C 0.37148 0.42424 0.33138 0.0
C67 C 0.37324 0.43924 0.29707 0.0
N68 N 0.39486 0.4432 0.28988 0.0
N69 N 0.39193 0.41908 0.3465 0.0
C70 C 0.40572 0.43012 0.31887 0.0
H71 H 0.35607 0.41821 0.34478 0.0
Co72 Co 0.40163 0.40151 0.39496 0.0
C73 C 0.414 0.37382 0.32991 0.0
O74 O 0.39349 0.36753 0.33724 0.0
N75 N 0.41122 0.38375 0.4415 0.0
C76 C 0.41497 0.35458 0.4856 0.0
C77 C 0.40801 0.36179 0.44443 0.0
C78 C 0.42021 0.38955 0.48107 0.0
N79 N 0.42248 0.37213 0.50874 0.0
O80 O 0.42377 0.42395 0.41074 0.0
H81 H 0.40021 0.3518 0.41904 0.0
H82 H 0.42451 0.4063 0.48995 0.0
O83 O 0.42245 0.38822 0.35571 0.0
C84 C 0.42326 0.44508 0.4092 0.0
O85 O 0.40499 0.45536 0.3974 0.0
N86 N 0.38006 0.41357 0.43299 0.0
C87 C 0.34341 0.43378 0.47021 0.0
C88 C 0.34088 0.41481 0.444 0.0
C89 C 0.35963 0.4047 0.42622 0.0
C90 C 0.38295 0.42939 0.46501 0.0
C91 C 0.36471 0.44028 0.483 0.0
H92 H 0.35774 0.39093 0.40354 0.0
H93 H 0.39919 0.4346 0.4754 0.0
H94 H 0.42358 0.42957 0.32177 0.0
H95 H 0.35965 0.4476 0.28068 0.0
H96 H 0.41352 0.33792 0.49833 0.0
H97 H 0.32462 0.40903 0.43413 0.0
H98 H 0.3672 0.45436 0.50472 0.0
C99 C 0.06514 0.37439 0.86333 0.0
C100 C 0.0488 0.37444 0.83123 0.0
N101 N 0.04345 0.39555 0.8223 0.0
N102 N 0.06989 0.39541 0.87513 0.0
C103 C 0.05699 0.40782 0.84807 0.0
H104 H 0.07238 0.35979 0.87784 0.0
Co105 Co 0.08876 0.40689 0.91985 0.0
C106 C 0.11221 0.42137 0.84985 0.0
O107 O 0.12077 0.40167 0.85631 0.0
N108 N 0.10754 0.4184 0.96343 0.0
C109 C 0.13744 0.42917 1.00079 0.0
C110 C 0.1296 0.42148 0.96053 0.0
C111 C 0.10236 0.42424 0.00566 0.0
N112 N 0.12027 0.43078 0.02922 0.0
O113 O 0.06559 0.427 0.93975 0.0
H114 H 0.13946 0.4179 0.93138 0.0
H115 H 0.08577 0.4236 0.01906 0.0
O116 O 0.09827 0.42863 0.87807 0.0
C117 C 0.04442 0.4265 0.94049 0.0
O118 O 0.03366 0.40863 0.92819 0.0
N119 N 0.08059 0.3844 0.95939 0.0
C120 C 0.06762 0.34452 0.99578 0.0
C121 C 0.08711 0.34588 0.97077 0.0
C122 C 0.0934 0.36618 0.95306 0.0
C123 C 0.06376 0.38401 0.98979 0.0
C124 C 0.05656 0.36397 0.00746 0.0
H125 H 0.10734 0.36702 0.9305 0.0
H126 H 0.05516 0.39878 0.99947 0.0
H127 H 0.05661 0.42568 0.84922 0.0
H128 H 0.0406 0.36006 0.81753 0.0
H129 H 0.15457 0.4326 0.00893 0.0
H130 H 0.09617 0.33115 0.9614 0.0
H131 H 0.04182 0.36349 0.02797 0.0
C132 C 0.64418 0.00584 0.68483 0.0
C133 C 0.63278 0.01647 0.71834 0.0
N134 N 0.61403 0.00517 0.72634 0.0
N135 N 0.63249 0.988 0.6713 0.0
C136 C 0.61465 0.98772 0.69853 0.0
H137 H 0.65963 0.01138 0.67076 0.0
Co138 Co 0.63715 0.96706 0.62538 0.0
C139 C 0.64764 0.94089 0.69175 0.0
O140 O 0.66627 0.95029 0.67944 0.0
N141 N 0.64183 0.94607 0.58054 0.0
C142 C 0.66002 0.92392 0.53429 0.0
C143 C 0.6602 0.93369 0.57575 0.0
C144 C 0.63064 0.94337 0.54181 0.0
N145 N 0.64147 0.9302 0.51261 0.0
O146 O 0.60604 0.96929 0.60834 0.0
H147 H 0.67364 0.93307 0.5995 0.0
H148 H 0.6154 0.9519 0.53423 0.0
O149 O 0.63046 0.94438 0.66796 0.0
C150 C 0.59346 0.98625 0.6061 0.0
O151 O 0.60144 0.00602 0.6145 0.0
N152 N 0.64607 0.9889 0.58499 0.0
C153 C 0.67004 0.01508 0.52561 0.0
C154 C 0.67988 0.00653 0.56437 0.0
C155 C 0.66775 0.99328 0.59289 0.0
C156 C 0.63607 -0.00341 0.54706 0.0
C157 C 0.64777 0.00997 0.51706 0.0
H158 H 0.67595 0.9856 0.62093 0.0
H159 H 0.61953 0.99154 0.53814 0.0
H160 H 0.60168 0.97542 0.69648 0.0
H161 H 0.63733 0.03199 0.73378 0.0
H162 H 0.67334 0.91423 0.52022 0.0
H163 H 0.69732 0.00881 0.57142 0.0
H164 H 0.63978 0.01548 0.48673 0.0
C165 C 0.45404 0.60626 0.09016 0.0
C166 C 0.44003 0.59394 0.11667 0.0
N167 N 0.45219 0.57842 0.13755 0.0
N168 N 0.47487 0.59857 0.09484 0.0
C169 C 0.47322 0.58197 0.12458 0.0
H170 H 0.44908 0.61857 0.06604 0.0
Co171 Co 0.49912 0.6028 0.05763 0.0
C172 C 0.53302 0.61536 0.12622 0.0
O173 O 0.53946 0.6326 0.10295 0.0
N174 N 0.52325 0.60559 0.01849 0.0
C175 C 0.55566 0.60184 0.98404 0.0
C176 C 0.54529 0.60325 0.02467 0.0
C177 C 0.52069 0.60447 0.97377 0.0
N178 N 0.54012 0.60246 0.95185 0.0
O179 O 0.50239 0.57199 0.05211 0.0
H180 H 0.55347 0.6007 0.05614 0.0
H181 H 0.50461 0.60362 0.9579 0.0
O182 O 0.51827 0.60235 0.11048 0.0
C183 C 0.48789 0.56087 0.03127 0.0
O184 O 0.47041 0.57085 0.01472 0.0
N185 N 0.49554 0.63367 0.06175 0.0
C186 C 0.50127 0.67899 0.06587 0.0
C187 C 0.4971 0.66694 0.10482 0.0
C188 C 0.49374 0.6442 0.10189 0.0
C189 C 0.49553 0.64567 0.02338 0.0
C190 C 0.49873 0.66842 0.02464 0.0
H191 H 0.49187 0.63482 0.13228 0.0
H192 H 0.49431 0.63759 0.9915 0.0
H193 H 0.48689 0.5712 0.1331 0.0
H194 H 0.42213 0.59486 0.11704 0.0
H195 H 0.57324 0.59957 0.97897 0.0
H196 H 0.49832 0.67454 0.1374 0.0
H197 H 0.5006 0.67741 0.99368 0.0
C198 C 0.87936 0.45077 0.61564 0.0
C199 C 0.89162 0.43712 0.64315 0.0
N200 N 0.90862 0.44893 0.65989 0.0
N201 N 0.88854 0.47106 0.61569 0.0
C202 C 0.90609 0.46943 0.64333 0.0
H203 H 0.86566 0.44583 0.59464 0.0
Co204 Co 0.884 0.4948 0.57756 0.0
C205 C 0.87542 0.53018 0.64587 0.0
O206 O 0.85822 0.53782 0.62386 0.0
N207 N 0.88083 0.51847 0.53699 0.0
C208 C 0.88426 0.54995 0.49894 0.0
C209 C 0.88398 0.54052 0.54073 0.0
C210 C 0.88036 0.51495 0.49246 0.0
N211 N 0.88215 0.53373 0.4687 0.0
O212 O 0.91474 0.49637 0.56764 0.0
H213 H 0.88805 0.5492 0.571 0.0
H214 H 0.87983 0.4987 0.47754 0.0
O215 O 0.88699 0.5145 0.62927 0.0
C216 C 0.92235 0.48486 0.53579 0.0
O217 O 0.90892 0.47204 0.51301 0.0
N218 N 0.85307 0.49277 0.58575 0.0
C219 C 0.80844 0.50237 0.59188 0.0
C220 C 0.82073 0.49834 0.63062 0.0
C221 C 0.84319 0.49303 0.62673 0.0
C222 C 0.84033 0.49239 0.5483 0.0
C223 C 0.81798 0.49774 0.55048 0.0
H224 H 0.85302 0.49128 0.65665 0.0
H225 H 0.84767 0.4894 0.5162 0.0
H226 H 0.91776 0.48273 0.64882 0.0
H227 H 0.88924 0.41955 0.64764 0.0
H228 H 0.88768 0.56708 0.49129 0.0
H229 H 0.81363 0.50108 0.66328 0.0
H230 H 0.80858 0.4996 0.51994 0.0
C231 C 0.97585 0.86862 0.10993 0.0
C232 C 0.99307 0.87442 0.13789 0.0
N233 N 0.98753 0.89329 0.15898 0.0
N234 N 0.95961 0.88377 0.11365 0.0
C235 C 0.9672 0.89848 0.14375 0.0
H236 H 0.97567 0.85496 0.08669 0.0
Co237 Co 0.93501 0.88804 0.07739 0.0
C238 C 0.90038 0.8935 0.14767 0.0
O239 O 0.8871 0.87951 0.1274 0.0
N240 N 0.91124 0.89358 0.0387 0.0
C241 C 0.88358 0.90998 1.00254 0.0
C242 C 0.89226 0.90514 0.04373 0.0
C243 C 0.91402 0.89241 0.99405 0.0
N244 N 0.89743 0.90215 0.97115 0.0
O245 O 0.94488 0.91678 0.06494 0.0
H246 H 0.88605 0.91182 0.07454 0.0
H247 H 0.929 0.88614 0.97883 0.0
O248 O 0.91882 0.89882 0.12971 0.0
C249 C 0.96119 0.91885 0.03857 0.0
O250 O 0.97124 0.90116 0.02329 0.0
N251 N 0.92558 0.85883 0.08829 0.0
C252 C 0.9105 0.81587 0.10168 0.0
C253 C 0.91741 0.82878 0.13784 0.0
C254 C 0.92518 0.85015 0.13036 0.0
C255 C 0.9203 0.84591 0.05263 0.0
C256 C 0.91237 0.82454 0.0586 0.0
H257 H 0.93058 0.85986 0.15858 0.0
H258 H 0.92237 0.85196 0.01917 0.0
H259 H 0.9587 0.91373 0.15157 0.0
H260 H 0.00871 0.86585 0.14125 0.0
H261 H 0.86881 0.91963 0.99641 0.0
H262 H 0.91667 0.8225 0.17158 0.0
H263 H 0.90821 0.8147 0.02963 0.0
C264 C 0.83758 0.99299 0.63057 0.0
C265 C 0.84305 0.0085 0.66229 0.0
N266 N 0.86426 0.00525 0.67424 0.0
N267 N 0.85544 0.98021 0.6219 0.0
C268 C 0.87125 0.98793 0.64988 0.0
H269 H 0.82168 0.99178 0.61441 0.0
Co270 Co 0.86019 0.95744 0.57986 0.0
C271 C 0.86688 0.93157 0.65017 0.0
O272 O 0.84545 0.92991 0.64313 0.0
N273 N 0.86504 0.93484 0.53891 0.0
C274 C 0.86171 0.90353 0.50083 0.0
C275 C 0.85755 0.91389 0.54089 0.0
C276 C 0.87377 0.93678 0.4977 0.0
N277 N 0.87169 0.91812 0.47358 0.0
O278 O 0.8859 0.97294 0.5573 0.0
H279 H 0.84857 0.90693 0.56865 0.0
H280 H 0.88077 0.9519 0.48481 0.0
O281 O 0.87837 0.94278 0.62278 0.0
C282 C 0.89045 0.99337 0.55224 0.0
O283 O 0.87564 0.00855 0.56175 0.0
N284 N 0.84081 0.97048 0.53892 0.0
C285 C 0.80534 0.9832 0.48483 0.0
C286 C 0.80202 0.97065 0.52367 0.0
C287 C 0.81994 0.96394 0.54914 0.0
C288 C 0.84478 0.9821 0.50067 0.0
C289 C 0.82719 0.98874 0.47322 0.0
H290 H 0.81719 0.95392 0.57844 0.0
H291 H 0.86141 0.98586 0.49018 0.0
H292 H 0.8881 0.98182 0.65039 0.0
H293 H 0.83238 0.0214 0.675 0.0
H294 H 0.85655 0.88703 0.49158 0.0
H295 H 0.78565 0.96631 0.53537 0.0
H296 H 0.83076 -0.00213 0.44309 0.0
C297 C 0.54485 0.88132 0.11252 0.0
C298 C 0.52545 0.88445 0.13541 0.0
N299 N 0.52924 0.89915 0.16826 0.0
N300 N 0.56088 0.89378 0.13112 0.0
C301 C 0.55091 0.90445 0.16512 0.0
H302 H 0.54692 0.87126 0.08305 0.0
Co303 Co 0.58864 0.89792 0.10636 0.0
C304 C 0.61443 0.91503 0.18199 0.0
O305 O 0.62279 0.93039 0.15609 0.0
N306 N 0.61597 0.90204 0.07863 0.0
C307 C 0.64808 0.89389 0.0462 0.0
C308 C 0.63542 0.89137 0.08427 0.0
C309 C 0.61746 0.91127 0.03786 0.0
N310 N 0.63663 0.90649 0.01727 0.0
O311 O 0.58308 0.92865 0.10528 0.0
H312 H 0.63912 0.88055 0.11195 0.0
H313 H 0.60377 0.91914 0.0211 0.0
O314 O 0.60132 0.90063 0.16563 0.0
C315 C 0.57033 0.93456 0.07381 0.0
O316 O 0.56392 0.91985 0.04429 0.0
N317 N 0.59282 0.86758 0.10583 0.0
C318 C 0.58225 0.82335 0.09624 0.0
C319 C 0.58552 0.83238 0.13879 0.0
C320 C 0.59082 0.85472 0.14294 0.0
C321 C 0.59195 0.85856 0.06433 0.0
C322 C 0.58687 0.83634 0.05876 0.0
H323 H 0.59085 0.86204 0.17576 0.0
H324 H 0.59302 0.86909 0.03533 0.0
H325 H 0.55905 0.91684 0.18532 0.0
H326 H 0.50967 0.87687 0.12777 0.0
H327 H 0.66369 0.88585 0.03911 0.0
H328 H 0.58195 0.8229 0.16851 0.0
H329 H 0.5848 0.82983 0.02539 0.0
C330 C 0.60989 0.52098 0.55977 0.0
C331 C 0.61099 0.50205 0.58483 0.0
N332 N 0.59465 0.50273 0.61532 0.0
N333 N 0.59304 0.53358 0.57461 0.0
C334 C 0.58398 0.52203 0.60839 0.0
H335 H 0.62044 0.52518 0.53195 0.0
Co336 Co 0.58425 0.55959 0.54762 0.0
C337 C 0.5751 0.58835 0.6257 0.0
O338 O 0.58738 0.60403 0.60818 0.0
N339 N 0.57503 0.58492 0.51699 0.0
C340 C 0.5549 0.61207 0.48756 0.0
C341 C 0.56029 0.60107 0.52626 0.0
C342 C 0.57762 0.58605 0.47239 0.0
N343 N 0.56575 0.60244 0.45351 0.0
O344 O 0.55661 0.54648 0.534 0.0
H345 H 0.55212 0.60352 0.55782 0.0
H346 H 0.58636 0.57358 0.45357 0.0
O347 O 0.57221 0.57029 0.60436 0.0
C348 C 0.55659 0.53427 0.49951 0.0
O349 O 0.57502 0.53214 0.47666 0.0
N350 N 0.61253 0.57153 0.55987 0.0
C351 C 0.65833 0.57185 0.57056 0.0
C352 C 0.64446 0.56973 0.60758 0.0
C353 C 0.6216 0.56933 0.60148 0.0
C354 C 0.62584 0.57574 0.5242 0.0
C355 C 0.64881 0.57616 0.52889 0.0
H356 H 0.61155 0.56447 0.62951 0.0
H357 H 0.61909 0.57631 0.49107 0.0
H358 H 0.56931 0.52722 0.62622 0.0
H359 H 0.62275 0.48873 0.58063 0.0
H360 H 0.54286 0.6252 0.48458 0.0
H361 H 0.65116 0.56588 0.64016 0.0
H362 H 0.65905 0.57782 0.49947 0.0
C363 C 0.95827 0.61765 0.09499 0.0
C364 C 0.97675 0.62034 0.12124 0.0
N365 N 0.97915 0.60211 0.1465 0.0
N366 N 0.94903 0.59788 0.1039 0.0
C367 C 0.96209 0.58879 0.1354 0.0
H368 H 0.95238 0.62902 0.06987 0.0
Co369 Co 0.92594 0.58499 0.07264 0.0
C370 C 0.90863 0.55363 0.14037 0.0
O371 O 0.90712 0.53731 0.11169 0.0
N372 N 0.90346 0.57234 0.03904 0.0
C373 C 0.87246 0.56089 0.00638 0.0
C374 C 0.88194 0.56754 0.04622 0.0
C375 C 0.90658 0.56875 0.99523 0.0
N376 N 0.88807 0.56192 0.97432 0.0
O377 O 0.94354 0.55956 0.06321 0.0
H378 H 0.87351 0.5696 0.07772 0.0
H379 H 0.92214 0.57183 0.97864 0.0
O380 O 0.91506 0.57263 0.12769 0.0
C381 C 0.95886 0.56086 0.03434 0.0
O382 O 0.96196 0.57963 0.0133 0.0
N383 N 0.90905 0.61036 0.08055 0.0
C384 C 0.89339 0.65338 0.08636 0.0
C385 C 0.89678 0.64083 0.12503 0.0
C386 C 0.90465 0.61925 0.12142 0.0
C387 C 0.90445 0.62178 0.04262 0.0
C388 C 0.89625 0.64322 0.04476 0.0
H389 H 0.90896 0.61047 0.15153 0.0
H390 H 0.90851 0.61478 0.01053 0.0
H391 H 0.95989 0.57218 0.1479 0.0
H392 H 0.98785 0.63437 0.12094 0.0
H393 H 0.85525 0.55665 1.00107 0.0
H394 H 0.89511 0.64813 0.1578 0.0
H395 H 0.89356 0.65224 0.01408 0.0
C396 C 0.38819 0.95774 0.43027 0.0
C397 C 0.39752 0.94466 0.39765 0.0
N398 N 0.41503 0.95552 0.38046 0.0
N399 N 0.39983 0.97667 0.43332 0.0
C400 C 0.41605 0.97476 0.40281 0.0
H401 H 0.37418 0.95357 0.45104 0.0
Co402 Co 0.39689 -0.00037 0.47343 0.0
C403 C 0.41401 0.0372 0.41564 0.0
O404 O 0.42542 0.04781 0.44615 0.0
N405 N 0.39427 0.02223 0.51497 0.0
C406 C 0.38596 0.05204 0.55474 0.0
C407 C 0.38664 0.04312 0.51238 0.0
C408 C 0.39781 0.01875 0.55874 0.0
N409 N 0.39286 0.03653 0.58384 0.0
O410 O 0.42744 -0.00248 0.4867 0.0
H411 H 0.38109 0.05103 0.48207 0.0
H412 H 0.4034 0.00314 0.57205 0.0
O413 O 0.40327 0.01983 0.4256 0.0
C414 C 0.43406 0.9821 0.51212 0.0
O415 O 0.41956 0.96809 0.52843 0.0
N416 N 0.36666 0.00146 0.46112 0.0
C417 C 0.32169 0.0089 0.44965 0.0
C418 C 0.33602 0.0095 0.41303 0.0
C419 C 0.35857 0.00568 0.41947 0.0
C420 C 0.35269 -0.00094 0.49637 0.0
C421 C 0.3301 0.00307 0.49152 0.0
H422 H 0.36952 0.00653 0.39109 0.0
H423 H 0.35923 -0.00515 0.52882 0.0
H424 H 0.42903 0.9869 0.39852 0.0
H425 H 0.392 0.92837 0.38775 0.0
H426 H 0.37994 0.0683 0.56358 0.0
H427 H 0.33 0.01369 0.3801 0.0
H428 H 0.31937 0.00195 0.52032 0.0
C429 C 0.53986 0.35817 0.8736 0.0
C430 C 0.55458 0.36807 0.84459 0.0
N431 N 0.54379 0.38432 0.82287 0.0
N432 N 0.52003 0.36821 0.86982 0.0
C433 C 0.523 0.38402 0.83893 0.0
H434 H 0.54356 0.34511 0.89702 0.0
Co435 Co 0.49493 0.36537 0.90437 0.0
C436 C 0.45979 0.36233 0.83402 0.0
O437 O 0.44973 0.34621 0.85524 0.0
N438 N 0.46986 0.36375 0.94149 0.0
C439 C 0.43855 0.37285 0.97618 0.0
C440 C 0.44949 0.37263 0.93607 0.0
C441 C 0.47111 0.35973 0.98575 0.0
N442 N 0.45229 0.36486 0.00761 0.0
O443 O 0.49617 0.3957 0.91708 0.0
H444 H 0.44353 0.38059 0.90624 0.0
H445 H 0.48634 0.3553 1.00243 0.0
O446 O 0.47688 0.37147 0.85123 0.0
C447 C 0.50589 0.40163 0.95264 0.0
O448 O 0.51531 0.38666 0.97803 0.0
N449 N 0.49423 0.33485 0.89257 0.0
C450 C 0.48534 0.29046 0.87843 0.0
C451 C 0.48919 0.30452 0.84223 0.0
C452 C 0.4942 0.32666 0.85011 0.0
C453 C 0.49388 0.32072 0.92782 0.0
C454 C 0.48897 0.2985 0.92162 0.0
H455 H 0.49677 0.33747 0.82195 0.0
H456 H 0.49663 0.32667 0.96111 0.0
H457 H 0.51046 0.39608 0.83046 0.0
H458 H 0.5719 0.36397 0.84053 0.0
H459 H 0.42224 0.37964 0.98202 0.0
H460 H 0.48755 0.29867 0.80828 0.0
H461 H 0.48681 0.28809 0.95061 0.0
C462 C 0.12734 0.55062 0.39806 0.0
C463 C 0.11799 0.56538 0.36858 0.0
N464 N 0.10421 0.55412 0.34148 0.0
N465 N 0.1194 0.53026 0.38942 0.0
C466 C 0.10551 0.53292 0.35469 0.0
H467 H 0.13809 0.55466 0.42575 0.0
Co468 Co 0.12163 0.50528 0.42464 0.0
C469 C 0.13447 0.47221 0.35326 0.0
O470 O 0.15124 0.46421 0.37607 0.0
N471 N 0.12271 0.48046 0.46197 0.0
C472 C 0.11861 0.44773 0.4948 0.0
C473 C 0.12033 0.45856 0.45459 0.0
C474 C 0.12125 0.48247 0.50671 0.0
N475 N 0.11928 0.46288 0.5276 0.0
O476 O 0.0906 0.5025 0.42535 0.0
H477 H 0.11841 0.45083 0.42247 0.0
H478 H 0.12033 0.49824 0.52358 0.0
O479 O 0.12237 0.48736 0.37017 0.0
C480 C 0.07883 0.5162 0.44683 0.0
O481 O 0.08818 0.53349 0.46544 0.0
N482 N 0.15261 0.50841 0.42592 0.0
C483 C 0.19851 0.50801 0.4346 0.0
C484 C 0.18858 0.5093 0.39229 0.0
C485 C 0.16551 0.50973 0.3887 0.0
C486 C 0.16202 0.51052 0.46694 0.0
C487 C 0.18486 0.50969 0.4722 0.0
H488 H 0.15804 0.51041 0.356 0.0
H489 H 0.15187 0.51229 0.49612 0.0
H490 H 0.09493 0.5199 0.34212 0.0
H491 H 0.12027 0.5831 0.36854 0.0
H492 H 0.1165 0.43013 0.49938 0.0
H493 H 0.19846 0.50927 0.3622 0.0
H494 H 0.19151 0.50926 0.50567 0.0
C495 C 0.96899 0.12529 0.91956 0.0
C496 C 0.95114 0.11836 0.89465 0.0
N497 N 0.9583 0.10323 0.86506 0.0
N498 N 0.98726 0.11455 0.90564 0.0
C499 C 0.98026 0.10136 0.87218 0.0
H500 H 0.96843 0.13629 0.94794 0.0
Co501 Co 0.01409 0.11308 0.9354 0.0
C502 C 0.0425 0.09806 0.86114 0.0
O503 O 0.05023 0.08178 0.88551 0.0
N504 N 0.04059 0.11128 0.96736 0.0
C505 C 0.07438 0.11381 0.99672 0.0
C506 C 0.06191 0.11629 0.9583 0.0
C507 C 0.04051 0.10615 0.01106 0.0
N508 N 0.06069 0.10764 0.02987 0.0
O509 O 0.01177 0.08205 0.93632 0.0
H510 H 0.06788 0.12218 0.9265 0.0
H511 H 0.02566 0.10213 0.02936 0.0
O512 O 0.02902 0.11193 0.8781 0.0
C513 C -0.00016 0.07481 0.96783 0.0
O514 O 0.99013 0.08884 0.9949 0.0
N515 N 0.01568 0.14361 0.93724 0.0
C516 C 0.01929 0.18888 0.95155 0.0
C517 C 0.01986 0.18014 0.90808 0.0
C518 C 0.01811 0.15734 0.90161 0.0
C519 C 0.01368 0.15187 0.97919 0.0
C520 C 0.01589 0.17434 0.98724 0.0
H521 H 0.01866 0.1508 0.86813 0.0
H522 H 0.01082 0.14082 0.00684 0.0
H523 H 0.99068 0.08919 0.85609 0.0
H524 H 0.93406 0.12326 0.89938 0.0
H525 H 0.09187 0.11727 1.00046 0.0
H526 H 0.02174 0.19073 0.87931 0.0
H527 H 0.01553 0.18005 0.0214 0.0
C528 C 0.92008 0.02152 0.54126 0.0
C529 C 0.9124 -0.00012 0.53536 0.0
C530 C 0.94147 0.02754 0.52781 0.0
C531 C 0.9553 0.01157 0.50756 0.0
C532 C 0.94733 0.98991 0.50008 0.0
C533 C 0.926 0.98427 0.51438 0.0
C534 C 0.94954 0.05073 0.53675 0.0
C535 C 0.96155 0.97251 0.47815 0.0
C536 C 0.00676 0.02995 0.44537 0.0
C537 C 0.02328 0.02559 0.47697 0.0
C538 C 0.98444 0.02559 0.45488 0.0
C539 C 0.97864 0.01699 0.49713 0.0
C540 C 0.99525 0.013 0.5294 0.0
C541 C 0.0174 0.01721 0.5188 0.0
C542 C 0.96713 0.02985 0.4196 0.0
C543 C 0.98965 0.00411 0.57505 0.0
H544 H 0.90963 0.03361 0.5576 0.0
H545 H 0.92005 0.96757 0.50939 0.0
H546 H 0.96336 0.05027 0.56113 0.0
H547 H 0.95607 0.05822 0.50572 0.0
H548 H 0.93627 0.06153 0.55019 0.0
H549 H 0.95227 0.957 0.47163 0.0
H550 H 0.96823 0.97877 0.44614 0.0
H551 H 0.9759 0.96862 0.49988 0.0
H552 H 0.01132 0.0364 0.41297 0.0
H553 H 0.03012 0.01408 0.5435 0.0
H554 H 0.95434 0.04132 0.43255 0.0
H555 H 0.95863 0.01418 0.41091 0.0
H556 H 0.97434 0.037 0.38878 0.0
H557 H 0.97738 0.01501 0.59158 0.0
H558 H 0.00446 0.00275 0.59687 0.0
H559 H 0.98199 0.98754 0.5719 0.0
C560 C 0.50307 0.04813 0.06025 0.0
C561 C 0.48206 0.04178 0.04498 0.0
C562 C 0.51903 0.03228 0.07133 0.0
C563 C 0.51364 0.00964 0.06759 0.0
C564 C 0.49196 0.00318 0.05512 0.0
C565 C 0.47645 0.01937 0.04354 0.0
C566 C 0.54202 0.03973 0.08423 0.0
C567 C 0.4855 0.97914 0.05167 0.0
C568 C 0.55594 0.9671 0.03394 0.0
C569 C 0.55963 0.95619 0.07423 0.0
C570 C 0.54211 0.98557 0.03205 0.0
C571 C 0.53119 0.99271 0.07122 0.0
C572 C 0.53567 0.98232 0.11248 0.0
C573 C 0.55016 0.96423 0.11358 0.0
C574 C 0.53815 -0.00341 0.98763 0.0
C575 C 0.52399 0.98918 0.15472 0.0
H576 H 0.50745 0.06547 0.0615 0.0
H577 H 0.4601 0.01445 0.03231 0.0
H578 H 0.54783 0.03077 0.11425 0.0
H579 H 0.5537 0.03584 0.0568 0.0
H580 H 0.54276 0.05776 0.0909 0.0
H581 H 0.4674 0.97697 0.04672 0.0
H582 H 0.49424 0.97145 0.02311 0.0
H583 H 0.49054 0.9701 0.08217 0.0
H584 H 0.56335 0.96071 1.00365 0.0
H585 H 0.55284 0.95547 0.1446 0.0
H586 H 0.54015 0.01474 0.99059 0.0
H587 H 0.52093 0.99336 0.97652 0.0
H588 H 0.54967 0.99045 0.96158 0.0
H589 H 0.52407 0.00741 0.15842 0.0
H590 H 0.53167 0.98169 0.18478 0.0
H591 H 0.50643 0.98383 0.15312 0.0
C592 C 0.51804 0.52099 0.51397 0.0
C593 C 0.53659 0.52194 0.48601 0.0
C594 C 0.49934 0.50858 0.50197 0.0
C595 C 0.4992 0.49702 0.46097 0.0
C596 C 0.51775 0.49817 0.43235 0.0
C597 C 0.53626 0.51057 0.44529 0.0
C598 C 0.4798 0.50769 0.53328 0.0
C599 C 0.51811 0.4862 0.38819 0.0
C600 C 0.46015 0.44848 0.44632 0.0
C601 C 0.4428 0.45817 0.42227 0.0
C602 C 0.47856 0.46101 0.45954 0.0
C603 C 0.47967 0.48364 0.44792 0.0
C604 C 0.46229 0.49344 0.42326 0.0
C605 C 0.444 0.48059 0.41094 0.0
C606 C 0.49679 0.45006 0.48596 0.0
C607 C 0.46306 0.51744 0.40968 0.0
H608 H 0.51823 0.5297 0.54553 0.0
H609 H 0.5505 0.51132 0.42341 0.0
H610 H 0.46472 0.51381 0.51617 0.0
H611 H 0.47656 0.49035 0.54323 0.0
H612 H 0.4825 0.5177 0.56384 0.0
H613 H 0.53369 0.48913 0.36945 0.0
H614 H 0.51625 0.46818 0.39367 0.0
H615 H 0.50395 0.4916 0.36729 0.0
H616 H 0.45924 0.43117 0.45528 0.0
H617 H 0.43069 0.48812 0.39201 0.0
H618 H 0.49915 0.45877 0.51814 0.0
H619 H 0.51265 0.45116 0.46748 0.0
H620 H 0.49322 0.43239 0.49288 0.0
H621 H 0.46458 0.52807 0.43964 0.0
H622 H 0.4481 0.52253 0.39073 0.0
H623 H 0.47785 0.52052 0.38869 0.0
C624 C 0.98512 0.54128 0.98409 0.0
C625 C 0.97215 0.54128 0.02277 0.0
C626 C -0.00289 0.5225 0.97149 0.0
C627 C -0.00372 0.50341 0.99856 0.0
C628 C 0.98354 0.50343 0.0381 0.0
C629 C 0.97149 0.52237 0.04963 0.0
C630 C 0.01037 0.52297 0.92885 0.0
C631 C 0.98249 0.4834 0.06795 0.0
C632 C 0.00978 0.44862 0.94422 0.0
C633 C 0.03201 0.44585 0.95637 0.0
C634 C -0.0021 0.46729 0.95789 0.0
C635 C 0.00846 0.48329 0.98495 0.0
C636 C 0.03079 0.48037 0.998 0.0
C637 C 0.04239 0.46173 0.98318 0.0
C638 C 0.97421 0.47007 0.94271 0.0
C639 C 0.04246 0.49699 0.02731 0.0
H640 H 0.98559 0.55583 0.96311 0.0
H641 H 0.96155 0.52235 0.07969 0.0
H642 H 0.02801 0.51928 0.93597 0.0
H643 H 0.00426 0.51001 0.90575 0.0
H644 H 0.00938 0.53919 0.91173 0.0
H645 H 0.97241 0.48638 0.0983 0.0
H646 H 0.97524 0.46927 0.04946 0.0
H647 H -0.00056 0.47849 0.07828 0.0
H648 H 0.00178 0.43642 0.92322 0.0
H649 H 0.05955 0.45952 0.99286 0.0
H650 H 0.97266 0.48529 0.9224 0.0
H651 H 0.96315 0.47199 0.97194 0.0
H652 H 0.96832 0.45584 0.92251 0.0
H653 H 0.04328 0.51318 0.01013 0.0
H654 H 0.05957 0.49177 0.03597 0.0
H655 H 0.033 0.49949 0.05858 0.0
C656 C 0.55479 0.00012 0.6063 0.0
C657 C 0.57004 0.9839 0.59351 0.0
C658 C 0.53251 -0.00139 0.59377 0.0
C659 C 0.5255 0.98069 0.56697 0.0
C660 C 0.5408 0.96416 0.55419 0.0
C661 C 0.56292 0.96583 0.5681 0.0
C662 C 0.51656 0.0163 0.60887 0.0
C663 C 0.53392 0.945 0.52508 0.0
C664 C 0.46388 0.96906 0.56316 0.0
C665 C 0.45758 0.98062 0.52476 0.0
C666 C 0.48606 0.96863 0.577 0.0
C667 C 0.50224 0.97972 0.55133 0.0
C668 C 0.49605 0.99082 0.51177 0.0
C669 C 0.47372 0.99129 0.49913 0.0
C670 C 0.49205 0.95691 0.61972 0.0
C671 C 0.51294 0.00257 0.48327 0.0
H672 H 0.56024 0.01399 0.62636 0.0
H673 H 0.57474 0.95331 0.55809 0.0
H674 H 0.50956 0.02497 0.57951 0.0
H675 H 0.50252 0.00872 0.62713 0.0
H676 H 0.52457 0.02871 0.63091 0.0
H677 H 0.54777 0.93335 0.51876 0.0
H678 H 0.52012 0.93582 0.5409 0.0
H679 H 0.52775 0.95125 0.49262 0.0
H680 H 0.4514 0.96087 0.58313 0.0
H681 H 0.46889 8e-05 0.46919 0.0
H682 H 0.49874 0.96897 0.64411 0.0
H683 H 0.50523 0.94453 0.61345 0.0
H684 H 0.47762 0.94842 0.63495 0.0
H685 H 0.52031 0.01648 0.50225 0.0
H686 H 0.50561 0.0092 0.45206 0.0
H687 H 0.52662 0.99114 0.47444 0.0
C688 C 0.51221 0.52818 0.02295 0.0
C689 C 0.49084 0.53704 0.02546 0.0
C690 C 0.51538 0.50572 0.01415 0.0
C691 C 0.4967 0.49187 0.00881 0.0
C692 C 0.47508 0.50057 0.01368 0.0
C693 C 0.4724 0.52321 0.02137 0.0
C694 C 0.53866 0.497 0.00872 0.0
C695 C 0.45482 0.48611 0.00948 0.0
C696 C 0.50205 0.44148 0.93547 0.0
C697 C 0.50474 0.42473 0.96709 0.0
C698 C 0.49978 0.46349 0.94872 0.0
C699 C 0.49974 0.4687 0.9947 0.0
C700 C 0.50251 0.45185 0.02681 0.0
C701 C 0.50521 0.42998 0.01253 0.0
C702 C 0.49724 0.48115 0.91355 0.0
C703 C 0.50206 0.45682 0.07611 0.0
H704 H 0.52646 0.53897 0.02614 0.0
H705 H 0.45589 0.53011 0.02415 0.0
H706 H 0.54136 0.48258 0.03082 0.0
H707 H 0.5411 0.49127 0.97395 0.0
H708 H 0.55138 0.5097 0.01639 0.0
H709 H 0.43938 0.49505 0.01839 0.0
H710 H 0.4533 0.48006 0.97472 0.0
H711 H 0.4564 0.47142 0.03132 0.0
H712 H 0.50179 0.43735 0.90031 0.0
H713 H 0.507 0.41693 0.03697 0.0
H714 H 0.51021 0.49396 0.91787 0.0
H715 H 0.48096 0.48943 0.91725 0.0
H716 H 0.49844 0.47438 0.87923 0.0
H717 H 0.51436 0.46979 0.08441 0.0
H718 H 0.50558 0.44198 0.09665 0.0
H719 H 0.48552 0.46331 0.08547 0.0
C720 C 0.96181 0.49245 0.55293 0.0
C721 C 0.94534 0.48779 0.52152 0.0
C722 C 0.98363 0.4964 0.53945 0.0
C723 C 0.98878 0.49634 0.49344 0.0
C724 C 0.97214 0.49162 0.4616 0.0
C725 C 0.95061 0.48706 0.47615 0.0
C726 C 0.00114 0.5007 0.57436 0.0
C727 C 0.97693 0.49202 0.41223 0.0
C728 C 0.04019 0.52832 0.46141 0.0
C729 C 0.05546 0.51122 0.45538 0.0
C730 C 0.01813 0.52365 0.47233 0.0
C731 C 0.01157 0.50143 0.47869 0.0
C732 C 0.02695 0.48411 0.47231 0.0
C733 C 0.0487 0.48922 0.46007 0.0
C734 C 0.00195 0.54247 0.47774 0.0
C735 C 0.02063 0.46026 0.47978 0.0
H736 H 0.95762 0.49289 0.58804 0.0
H737 H 0.93771 0.48368 0.45193 0.0
H738 H 0.01471 0.48844 0.57107 0.0
H739 H 0.00851 0.51728 0.56937 0.0
H740 H 0.99442 0.49978 0.60875 0.0
H741 H 0.96231 0.48717 0.39199 0.0
H742 H 0.9821 0.50888 0.40222 0.0
H743 H 0.99082 0.48072 0.40424 0.0
H744 H 0.0455 0.54531 0.45752 0.0
H745 H 0.06067 0.47603 0.45589 0.0
H746 H -0.00373 0.54334 0.51283 0.0
H747 H 0.9871 0.53961 0.4567 0.0
H748 H 0.00934 0.55864 0.46859 0.0
H749 H 0.01521 0.45793 0.51477 0.0
H750 H 0.03455 0.44877 0.47294 0.0
H751 H 0.00647 0.45571 0.45808 0.0
C752 C 0.9527 0.9579 0.02134 0.0
C753 C 0.96827 0.94087 0.02431 0.0
C754 C 0.95909 0.9791 0.00824 0.0
C755 C 0.98167 0.98338 0.99916 0.0
C756 C -0.00256 0.96614 1.0016 0.0
C757 C 0.99046 0.94491 0.01367 0.0
C758 C 0.94174 -0.00299 0.00503 0.0
C759 C 0.02172 0.97031 0.99306 0.0
C760 C 0.99414 0.03682 0.93894 0.0
C761 C -0.00277 0.05111 0.97504 0.0
C762 C 0.98957 0.01442 0.94612 0.0
C763 C 0.98882 0.00628 0.99031 0.0
C764 C 0.99317 0.02053 0.02665 0.0
C765 C -0.00303 0.04293 0.01855 0.0
C766 C 0.98447 -0.00024 0.90672 0.0
C767 C 0.99309 0.01229 0.07415 0.0
H768 H 0.93546 0.95459 0.02896 0.0
H769 H 0.00245 0.93165 0.01611 0.0
H770 H 0.94479 0.00969 0.03101 0.0
H771 H 0.94275 0.00537 0.97222 0.0
H772 H 0.92469 0.99048 0.00942 0.0
H773 H 0.03163 0.95486 0.99387 0.0
H774 H 0.02403 0.97834 0.9602 0.0
H775 H 0.02831 0.98177 0.01868 0.0
H776 H 0.99429 0.04338 0.90533 0.0
H777 H -0.00033 0.0541 0.04629 0.0
H778 H 0.96686 0.99455 0.90806 0.0
H779 H 0.9947 0.98456 0.90788 0.0
H780 H 0.98742 0.00824 0.87446 0.0
H781 H 0.97603 0.00746 0.08375 0.0
H782 H -0.00094 0.025 0.09803 0.0
H783 H 0.00369 -0.00259 0.07734 0.0
C784 C 0.07199 0.0696 0.2819 0.0
C785 C 0.08348 0.08479 0.30865 0.0
C786 C 0.06893 0.07338 0.2361 0.0
C787 C 0.07732 0.09295 0.21656 0.0
C788 C 0.08869 0.10848 0.24348 0.0
C789 C 0.09173 0.10416 0.28909 0.0
C790 C 0.05685 0.05631 0.20856 0.0
C791 C 0.09762 0.12968 0.22411 0.0
C792 C 0.08526 0.09471 0.09046 0.0
C793 C 0.06563 0.10495 0.07657 0.0
C794 C 0.08936 0.09072 0.13595 0.0
C795 C 0.07361 0.09748 0.16824 0.0
C796 C 0.05407 0.10839 0.15432 0.0
C797 C 0.05029 0.11186 0.10875 0.0
C798 C 0.1103 0.07887 0.14941 0.0
C799 C 0.03703 0.11622 0.18756 0.0
H800 H 0.06572 0.0545 0.29653 0.0
H801 H 0.10062 0.116 0.30945 0.0
H802 H 0.0419 0.06377 0.19321 0.0
H803 H 0.06763 0.05052 0.18102 0.0
H804 H 0.05168 0.0418 0.22863 0.0
H805 H 0.10604 0.14007 0.24951 0.0
H806 H 0.10957 0.12595 0.19708 0.0
H807 H 0.08392 0.13938 0.20912 0.0
H808 H 0.09706 0.08925 0.06562 0.0
H809 H 0.03527 0.12014 0.09817 0.0
H810 H 0.10606 0.06322 0.16661 0.0
H811 H 0.11987 0.0891 0.1733 0.0
H812 H 0.12103 0.075 0.12039 0.0
H813 H 0.03026 0.10192 0.20618 0.0
H814 H 0.02308 0.12509 0.17139 0.0
H815 H 0.04487 0.1274 0.21227 0.0
C816 C 0.37955 0.05053 0.84641 0.0
C817 C 0.40004 0.04889 0.86822 0.0
C818 C 0.37772 0.04685 0.80035 0.0
C819 C 0.39686 0.04147 0.77542 0.0
C820 C 0.41735 0.03851 0.79762 0.0
C821 C 0.41866 0.04211 0.84377 0.0
C822 C 0.3555 0.04985 0.77804 0.0
C823 C 0.43816 0.03274 0.7723 0.0
C824 C 0.39023 0.01892 0.6579 0.0
C825 C 0.39357 0.03789 0.63184 0.0
C826 C 0.39122 0.01982 0.70459 0.0
C827 C 0.3957 0.04018 0.72588 0.0
C828 C 0.399 0.05942 0.69984 0.0
C829 C 0.39781 0.05805 0.65315 0.0
C830 C 0.3874 -0.001 0.73114 0.0
C831 C 0.40395 0.08143 0.72131 0.0
H832 H 0.36504 0.05565 0.86497 0.0
H833 H 0.43458 0.04074 0.86018 0.0
H834 H 0.35601 0.06461 0.75619 0.0
H835 H 0.35163 0.03542 0.75662 0.0
H836 H 0.34189 0.05202 0.80253 0.0
H837 H 0.45242 0.02954 0.79481 0.0
H838 H 0.43538 0.01793 0.75127 0.0
H839 H 0.44258 0.04654 0.74969 0.0
H840 H 0.38653 0.00335 0.64179 0.0
H841 H 0.4006 0.07269 0.63323 0.0
H842 H 0.37312 0.00128 0.7539 0.0
H843 H 0.40209 -0.00459 0.75215 0.0
H844 H 0.38411 0.98447 0.7095 0.0
H845 H 0.39024 0.08612 0.74402 0.0
H846 H 0.40621 0.09479 0.69639 0.0
H847 H 0.41921 0.0802 0.74178 0.0
C848 C 0.41444 0.353 0.25833 0.0
C849 C 0.42449 0.36846 0.28668 0.0
C850 C 0.42108 0.35084 0.21382 0.0
C851 C 0.43829 0.36439 0.19729 0.0
C852 C 0.4496 0.37889 0.22655 0.0
C853 C 0.44255 0.38078 0.27099 0.0
C854 C 0.40859 0.33517 0.18376 0.0
C855 C 0.4682 0.39345 0.21027 0.0
C856 C 0.46096 0.3503 0.08259 0.0
C857 C 0.44898 0.36485 0.05525 0.0
C858 C 0.45809 0.35028 0.12903 0.0
C859 C 0.44273 0.36501 0.14857 0.0
C860 C 0.43073 0.37986 0.12128 0.0
C861 C 0.43405 0.37964 0.07505 0.0
C862 C 0.47129 0.33433 0.15711 0.0
C863 C 0.41418 0.39586 0.14086 0.0
H864 H 0.40059 0.34329 0.27029 0.0
H865 H 0.45042 0.39277 0.29266 0.0
H866 H 0.39871 0.34478 0.15935 0.0
H867 H 0.42027 0.32471 0.16459 0.0
H868 H 0.39719 0.32425 0.20265 0.0
H869 H 0.47731 0.40136 0.23822 0.0
H870 H 0.48008 0.38378 0.18993 0.0
H871 H 0.46134 0.40664 0.18867 0.0
H872 H 0.47239 0.3387 0.06761 0.0
H873 H 0.42506 0.39127 0.05453 0.0
H874 H 0.45996 0.32256 0.17384 0.0
H875 H 0.48032 0.3434 0.18365 0.0
H876 H 0.48345 0.3248 0.13708 0.0
H877 H 0.4009 0.38662 0.15831 0.0
H878 H 0.40643 0.40653 0.11512 0.0
H879 H 0.42238 0.40658 0.1659 0.0
C880 C 0.12811 0.47367 0.60495 0.0
C881 C 0.11767 0.45921 0.57499 0.0
C882 C 0.12736 0.46997 0.65111 0.0
C883 C 0.11585 0.45138 0.66778 0.0
C884 C 0.10486 0.43699 0.6378 0.0
C885 C 0.10596 0.44104 0.59178 0.0
C886 C 0.13936 0.48563 0.68195 0.0
C887 C 0.09226 0.41707 0.65427 0.0
C888 C 0.13221 0.42523 0.77776 0.0
C889 C 0.11506 0.43213 0.80596 0.0
C890 C 0.13313 0.4321 0.73321 0.0
C891 C 0.11638 0.44614 0.71626 0.0
C892 C 0.09958 0.45403 0.74509 0.0
C893 C 0.09918 0.44701 0.78974 0.0
C894 C 0.15145 0.42348 0.70374 0.0
C895 C 0.0814 0.46896 0.72825 0.0
H896 H 0.13739 0.4876 0.59221 0.0
H897 H 0.09756 0.43002 0.56893 0.0
H898 H 0.12794 0.49177 0.70809 0.0
H899 H 0.15302 0.47679 0.69907 0.0
H900 H 0.14644 0.50002 0.66396 0.0
H901 H 0.08373 0.40812 0.62686 0.0
H902 H 0.1038 0.40548 0.67103 0.0
H903 H 0.07973 0.42215 0.67927 0.0
H904 H 0.14458 0.41379 0.79014 0.0
H905 H 0.08579 0.45231 0.81124 0.0
H906 H 0.15979 0.43733 0.68634 0.0
H907 H 0.14436 0.41248 0.67781 0.0
H908 H 0.16409 0.41405 0.72278 0.0
H909 H 0.08853 0.48319 0.70996 0.0
H910 H 0.07082 0.4753 0.75568 0.0
H911 H 0.07077 0.45973 0.70451 0.0
C912 C 0.62603 0.92466 0.75576 0.0
C913 C 0.64632 0.93089 0.73689 0.0
C914 C 0.62467 0.91844 0.80093 0.0
C915 C 0.64398 0.91884 0.82791 0.0
C916 C 0.66461 0.92419 0.80846 0.0
C917 C 0.66554 0.9299 0.76325 0.0
C918 C 0.60244 0.91234 0.82022 0.0
C919 C 0.68555 0.92517 0.83597 0.0
C920 C 0.63683 0.93057 0.95156 0.0
C921 C 0.64062 0.9098 0.97051 0.0
C922 C 0.63803 0.93374 0.9053 0.0
C923 C 0.64251 0.9155 0.87711 0.0
C924 C 0.64632 0.89441 0.89614 0.0
C925 C 0.64557 0.89187 0.94272 0.0
C926 C 0.63442 0.95661 0.88662 0.0
C927 C 0.65061 0.87447 0.86724 0.0
H928 H 0.6111 0.92536 0.73574 0.0
H929 H 0.68137 0.93456 0.74908 0.0
H930 H 0.60375 0.89691 0.83995 0.0
H931 H 0.5968 0.92557 0.84313 0.0
H932 H 0.58966 0.91005 0.79396 0.0
H933 H 0.70047 0.92832 0.8153 0.0
H934 H 0.68413 0.93855 0.86107 0.0
H935 H 0.68799 0.90949 0.85437 0.0
H936 H 0.63278 0.94432 0.97321 0.0
H937 H 0.64793 0.8757 0.95741 0.0
H938 H 0.61985 0.95662 0.86408 0.0
H939 H 0.64899 0.96167 0.86657 0.0
H940 H 0.63167 0.96911 0.91315 0.0
H941 H 0.63649 0.87193 0.84412 0.0
H942 H 0.653 0.8592 0.88715 0.0
H943 H 0.66556 0.87718 0.84652 0.0
C944 C 0.55208 0.62999 0.19412 0.0
C945 C 0.54041 0.61288 0.17304 0.0
C946 C 0.55725 0.62894 0.23967 0.0
C947 C 0.55078 0.61022 0.26468 0.0
C948 C 0.5396 0.59259 0.24332 0.0
C949 C 0.53445 0.59417 0.1978 0.0
C950 C 0.56902 0.64816 0.26132 0.0
C951 C 0.53265 0.57223 0.26877 0.0
C952 C 0.57875 0.59886 0.37577 0.0
C953 C 0.56262 0.60594 0.40628 0.0
C954 C 0.57521 0.60029 0.32965 0.0
C955 C 0.55517 0.60933 0.31347 0.0
C956 C 0.5391 0.61719 0.34392 0.0
C957 C 0.54297 0.61532 0.38991 0.0
C958 C 0.59274 0.5917 0.29824 0.0
C959 C 0.51759 0.62715 0.32792 0.0
H960 H 0.55665 0.64458 0.17536 0.0
H961 H 0.52545 0.58086 0.18178 0.0
H962 H 0.55821 0.65564 0.28711 0.0
H963 H 0.58427 0.6424 0.27833 0.0
H964 H 0.57361 0.66116 0.23691 0.0
H965 H 0.52496 0.55957 0.24686 0.0
H966 H 0.54718 0.56479 0.28569 0.0
H967 H 0.52057 0.57681 0.29501 0.0
H968 H 0.59416 0.59199 0.38796 0.0
H969 H 0.53027 0.62065 0.41292 0.0
H970 H 0.59796 0.60493 0.275 0.0
H971 H 0.58582 0.57808 0.27777 0.0
H972 H 0.60758 0.58548 0.31616 0.0
H973 H 0.52096 0.64096 0.30462 0.0
H974 H 0.50728 0.63345 0.3558 0.0
H975 H 0.50791 0.61458 0.30935 0.0
C976 C 0.8987 0.57014 0.89671 0.0
C977 C 0.88562 0.55826 0.92703 0.0
C978 C 0.89737 0.56625 0.85072 0.0
C979 C 0.88254 0.55008 0.83439 0.0
C980 C 0.869 0.53824 0.86467 0.0
C981 C 0.87065 0.54253 0.91065 0.0
C982 C 0.91195 0.57939 0.81962 0.0
C983 C 0.853 0.52083 0.84851 0.0
C984 C 0.86513 0.5528 0.71264 0.0
C985 C 0.87867 0.53662 0.69318 0.0
C986 C 0.86628 0.55742 0.75846 0.0
C987 C 0.88132 0.54555 0.78561 0.0
C988 C 0.89536 0.52951 0.76606 0.0
C989 C 0.89392 0.5253 0.72011 0.0
C990 C 0.85117 0.57477 0.77794 0.0
C991 C 0.91166 0.51654 0.79382 0.0
H992 H 0.90995 0.58269 0.90892 0.0
H993 H 0.8606 0.53323 0.93389 0.0
H994 H 0.92289 0.56808 0.80063 0.0
H995 H 0.9016 0.58838 0.79504 0.0
H996 H 0.92245 0.59154 0.83763 0.0
H997 H 0.84343 0.51331 0.87621 0.0
H998 H 0.8412 0.52814 0.8243 0.0
H999 H 0.86216 0.50758 0.83087 0.0
H1000 H 0.85327 0.56164 0.69221 0.0
H1001 H 0.9044 0.5127 0.70554 0.0
H1002 H 0.86108 0.58766 0.79507 0.0
H1003 H 0.84018 0.56719 0.80327 0.0
H1004 H 0.8407 0.58283 0.75219 0.0
H1005 H 0.92326 0.52795 0.81092 0.0
H1006 H 0.92144 0.50469 0.77354 0.0
H1007 H 0.90272 0.50721 0.82004 0.0
C1008 C 0.91279 0.90739 0.22222 0.0
C1009 C 0.89566 0.90001 0.19428 0.0
C1010 C 0.90915 0.91092 0.26787 0.0
C1011 C 0.88777 0.90744 0.28584 0.0
C1012 C 0.87024 0.90077 0.25752 0.0
C1013 C 0.87443 0.89698 0.21216 0.0
C1014 C 0.92829 0.9179 0.29707 0.0
C1015 C 0.84715 0.89715 0.27535 0.0
C1016 C 0.88229 0.89487 0.40947 0.0
C1017 C 0.87621 0.91549 0.42672 0.0
C1018 C 0.88627 0.89205 0.36371 0.0
C1019 C 0.88387 0.91026 0.33448 0.0
C1020 C 0.87773 0.93112 0.35171 0.0
C1021 C 0.87402 0.93349 0.3976 0.0
C1022 C 0.89312 0.86961 0.34665 0.0
C1023 C 0.87478 0.95087 0.32162 0.0
H1024 H 0.92928 0.90963 0.20882 0.0
H1025 H 0.86111 0.89133 0.19077 0.0
H1026 H 0.92526 0.93476 0.31018 0.0
H1027 H 0.92983 0.90669 0.32612 0.0
H1028 H 0.94425 0.91791 0.27881 0.0
H1029 H 0.83511 0.89308 0.24857 0.0
H1030 H 0.84728 0.88345 0.29986 0.0
H1031 H 0.84133 0.91215 0.29306 0.0
H1032 H 0.88414 0.88099 0.43191 0.0
H1033 H 0.86889 0.94938 0.41055 0.0
H1034 H 0.90932 0.87083 0.32942 0.0
H1035 H 0.88088 0.86357 0.32189 0.0
H1036 H 0.89452 0.85722 0.37379 0.0
H1037 H 0.89043 0.95433 0.3036 0.0
H1038 H 0.86987 0.96594 0.34028 0.0
H1039 H 0.86194 0.94731 0.29616 0.0
C1040 C 0.90696 0.8915 0.89381 0.0
C1041 C 0.89626 0.90584 0.92363 0.0
C1042 C 0.90548 0.89465 0.84749 0.0
C1043 C 0.89284 0.91245 0.83054 0.0
C1044 C 0.88252 0.92732 0.86043 0.0
C1045 C 0.88442 0.92388 0.90648 0.0
C1046 C 0.91688 0.87856 0.81669 0.0
C1047 C 0.86889 0.94655 0.84377 0.0
C1048 C 0.89551 0.93301 0.71086 0.0
C1049 C 0.87608 0.92382 0.69312 0.0
C1050 C 0.90192 0.92858 0.75506 0.0
C1051 C 0.88862 0.9146 0.78183 0.0
C1052 C 0.86977 0.90426 0.76306 0.0
C1053 C 0.86376 0.90899 0.71901 0.0
C1054 C 0.92224 0.93974 0.7738 0.0
C1055 C 0.8551 0.88927 0.79035 0.0
H1056 H 0.91608 0.87748 0.90662 0.0
H1057 H 0.87657 0.93541 0.92902 0.0
H1058 H 0.90429 0.86868 0.79856 0.0
H1059 H 0.92674 0.88756 0.79138 0.0
H1060 H 0.92797 0.86707 0.83497 0.0
H1061 H 0.8628 0.95718 0.87133 0.0
H1062 H 0.87882 0.95686 0.82069 0.0
H1063 H 0.85439 0.94031 0.82482 0.0
H1064 H 0.90506 0.94454 0.69106 0.0
H1065 H 0.84882 0.9017 0.70536 0.0
H1066 H 0.93331 0.92735 0.78947 0.0
H1067 H 0.91731 0.95158 0.8002 0.0
H1068 H 0.93167 0.94884 0.74789 0.0
H1069 H 0.86511 0.87633 0.807 0.0
H1070 H 0.84215 0.88111 0.76982 0.0
H1071 H 0.84682 0.89902 0.81685 0.0
C1072 C 0.64586 0.90877 0.44265 0.0
C1073 C 0.63625 0.92645 0.46601 0.0
C1074 C 0.64224 0.90584 0.3967 0.0
C1075 C 0.62844 0.92079 0.37335 0.0
C1076 C 0.61817 0.93829 0.39683 0.0
C1077 C 0.62228 0.94099 0.44264 0.0
C1078 C 0.65356 0.88698 0.37296 0.0
C1079 C 0.60318 0.95451 0.37334 0.0
C1080 C 0.63602 0.92839 0.24822 0.0
C1081 C 0.61872 0.91555 0.23077 0.0
C1082 C 0.63958 0.92991 0.29444 0.0
C1083 C 0.62531 0.91858 0.32411 0.0
C1084 C 0.60788 0.90549 0.30668 0.0
C1085 C 0.6049 0.90401 0.26028 0.0
C1086 C 0.6585 0.94386 0.31156 0.0
C1087 C 0.59208 0.89343 0.33707 0.0
H1088 H 0.65638 0.89721 0.4602 0.0
H1089 H 0.61495 0.95491 0.45969 0.0
H1090 H 0.6411 0.87647 0.35597 0.0
H1091 H 0.66477 0.89357 0.34688 0.0
H1092 H 0.66339 0.8765 0.396 0.0
H1093 H 0.59539 0.96639 0.39677 0.0
H1094 H 0.61281 0.96394 0.3483 0.0
H1095 H 0.5899 0.94558 0.35519 0.0
H1096 H 0.6468 0.93732 0.22571 0.0
H1097 H 0.59135 0.89421 0.24716 0.0
H1098 H 0.6695 0.93376 0.33306 0.0
H1099 H 0.65199 0.95754 0.33236 0.0
H1100 H 0.66854 0.95104 0.28416 0.0
H1101 H 0.60138 0.88216 0.3594 0.0
H1102 H 0.57961 0.88364 0.31829 0.0
H1103 H 0.58324 0.90546 0.35855 0.0
C1104 C 0.56269 0.58952 0.88811 0.0
C1105 C 0.54341 0.59964 0.90443 0.0
C1106 C 0.56642 0.58722 0.84221 0.0
C1107 C 0.55039 0.59501 0.81161 0.0
C1108 C 0.53064 0.60475 0.82768 0.0
C1109 C 0.52744 0.60706 0.87384 0.0
C1110 C 0.58776 0.57681 0.82644 0.0
C1111 C 0.51307 0.61309 0.7961 0.0
C1112 C 0.57184 0.6098 0.6966 0.0
C1113 C 0.56692 0.59069 0.67206 0.0
C1114 C 0.56604 0.61161 0.7417 0.0
C1115 C 0.55491 0.59392 0.76287 0.0
C1116 C 0.54924 0.57486 0.73798 0.0
C1117 C 0.55534 0.57345 0.69287 0.0
C1118 C 0.57254 0.63215 0.76711 0.0
C1119 C 0.53727 0.5557 0.75928 0.0
H1120 H 0.57496 0.58327 0.91115 0.0
H1121 H 0.51259 0.61508 0.88587 0.0
H1122 H 0.58415 0.56247 0.80461 0.0
H1123 H 0.5973 0.58889 0.80636 0.0
H1124 H 0.59833 0.57115 0.85451 0.0
H1125 H 0.49804 0.61893 0.81387 0.0
H1126 H 0.51977 0.62693 0.77603 0.0
H1127 H 0.5082 0.59983 0.7725 0.0
H1128 H 0.58075 0.62323 0.68088 0.0
H1129 H 0.55142 0.55863 0.6742 0.0
H1130 H 0.58445 0.62779 0.79386 0.0
H1131 H 0.55781 0.63954 0.78336 0.0
H1132 H 0.58029 0.6448 0.74533 0.0
H1133 H 0.54795 0.54812 0.78519 0.0
H1134 H 0.53273 0.54275 0.73469 0.0
H1135 H 0.522 0.56156 0.77606 0.0
C1136 C 0.88833 0.53463 0.20228 0.0
C1137 C 0.90431 0.54989 0.18828 0.0
C1138 C 0.88393 0.53149 0.24788 0.0
C1139 C 0.89634 0.54334 0.28013 0.0
C1140 C 0.9129 0.55834 0.26601 0.0
C1141 C 0.91638 0.56172 0.22031 0.0
C1142 C 0.86584 0.5157 0.26156 0.0
C1143 C 0.92704 0.57075 0.29916 0.0
C1144 C 0.87429 0.55238 0.39754 0.0
C1145 C 0.88506 0.53564 0.42128 0.0
C1146 C 0.8773 0.55466 0.35134 0.0
C1147 C 0.89196 0.54024 0.32865 0.0
C1148 C 0.90295 0.52334 0.35267 0.0
C1149 C 0.89916 0.5211 0.39861 0.0
C1150 C 0.86487 0.57255 0.32684 0.0
C1151 C 0.91926 0.50808 0.33023 0.0
H1152 H 0.87893 0.52554 0.17756 0.0
H1153 H 0.92892 0.57338 0.20961 0.0
H1154 H 0.87282 0.50234 0.28257 0.0
H1155 H 0.85332 0.52452 0.28195 0.0
H1156 H 0.8574 0.5081 0.23243 0.0
H1157 H 0.94003 0.58085 0.2827 0.0
H1158 H 0.91651 0.58183 0.31957 0.0
H1159 H 0.93519 0.55898 0.32226 0.0
H1160 H 0.86334 0.56351 0.4152 0.0
H1161 H 0.90774 0.50838 0.41721 0.0
H1162 H 0.85552 0.56531 0.29853 0.0
H1163 H 0.87673 0.58466 0.31276 0.0
H1164 H 0.8531 0.58149 0.3488 0.0
H1165 H 0.91177 0.50047 0.30018 0.0
H1166 H 0.92501 0.49472 0.35277 0.0
H1167 H 0.93389 0.5177 0.31911 0.0
C1168 C 0.42637 0.06822 0.15684 0.0
C1169 C 0.40531 0.07046 0.13764 0.0
C1170 C 0.42888 0.06486 0.20287 0.0
C1171 C 0.40988 0.06416 0.23047 0.0
C1172 C 0.38865 0.06754 0.21145 0.0
C1173 C 0.38661 0.07034 0.16515 0.0
C1174 C 0.45175 0.06076 0.22148 0.0
C1175 C 0.36801 0.06726 0.23975 0.0
C1176 C 0.41058 0.02883 0.33473 0.0
C1177 C 0.41403 0.04448 0.36851 0.0
C1178 C 0.40987 0.03499 0.2898 0.0
C1179 C 0.41194 0.05753 0.27816 0.0
C1180 C 0.41548 0.07349 0.31204 0.0
C1181 C 0.4168 0.06672 0.35689 0.0
C1182 C 0.40675 0.0173 0.2548 0.0
C1183 C 0.41738 0.09771 0.30098 0.0
H1184 H 0.44082 0.06791 0.13548 0.0
H1185 H 0.37037 0.07209 0.15018 0.0
H1186 H 0.45485 0.07147 0.2508 0.0
H1187 H 0.45301 0.04338 0.23293 0.0
H1188 H 0.46494 0.06376 0.19641 0.0
H1189 H 0.35314 0.07265 0.22084 0.0
H1190 H 0.36505 0.0503 0.25235 0.0
H1191 H 0.3701 0.07819 0.26914 0.0
H1192 H 0.40853 0.01159 0.34337 0.0
H1193 H 0.41933 0.07888 0.38291 0.0
H1194 H 0.42034 0.01813 0.23 0.0
H1195 H 0.39098 0.02006 0.23667 0.0
H1196 H 0.40645 0.00043 0.26931 0.0
H1197 H 0.43102 0.10042 0.27689 0.0
H1198 H 0.42048 0.108 0.331 0.0
H1199 H 0.40187 0.10344 0.28483 0.0
C1200 C 0.46913 0.37652 0.75802 0.0
C1201 C 0.45365 0.36713 0.78724 0.0
C1202 C 0.46458 0.37849 0.7123 0.0
C1203 C 0.4438 0.37145 0.69562 0.0
C1204 C 0.42778 0.36279 0.72527 0.0
C1205 C 0.43297 0.36055 0.77065 0.0
C1206 C 0.48218 0.38768 0.6818 0.0
C1207 C 0.40536 0.35529 0.70884 0.0
C1208 C 0.42459 0.39106 0.58161 0.0
C1209 C 0.42894 0.37249 0.55501 0.0
C1210 C 0.42955 0.39108 0.62734 0.0
C1211 C 0.43917 0.37211 0.6469 0.0
C1212 C 0.44407 0.35351 0.62004 0.0
C1213 C 0.43882 0.3539 0.57449 0.0
C1214 C 0.42407 0.41121 0.65489 0.0
C1215 C 0.45479 0.33316 0.63948 0.0
H1216 H 0.48521 0.38151 0.77048 0.0
H1217 H 0.42092 0.35333 0.79307 0.0
H1218 H 0.48381 0.37748 0.65128 0.0
H1219 H 0.47743 0.40458 0.67127 0.0
H1220 H 0.49861 0.38852 0.69831 0.0
H1221 H 0.39427 0.35026 0.73653 0.0
H1222 H 0.39723 0.36872 0.68976 0.0
H1223 H 0.40738 0.34106 0.68591 0.0
H1224 H 0.41669 0.40537 0.56696 0.0
H1225 H 0.44249 0.33965 0.55398 0.0
H1226 H 0.43923 0.4175 0.67146 0.0
H1227 H 0.41216 0.40671 0.68151 0.0
H1228 H 0.41679 0.4247 0.63456 0.0
H1229 H 0.47071 0.33764 0.65565 0.0
H1230 H 0.45804 0.32031 0.61388 0.0
H1231 H 0.44397 0.32598 0.66557 0.0
C1232 C 0.10663 0.42712 0.10653 0.0
C1233 C 0.12111 0.43685 0.07572 0.0
C1234 C 0.10782 0.4323 0.15214 0.0
C1235 C 0.12371 0.44778 0.16732 0.0
C1236 C 0.13813 0.45792 0.13626 0.0
C1237 C 0.13675 0.45223 0.09094 0.0
C1238 C 0.09225 0.421 0.18416 0.0
C1239 C 0.15507 0.47477 0.15093 0.0
C1240 C 0.11557 0.47632 0.2792 0.0
C1241 C 0.13069 0.46502 0.30649 0.0
C1242 C 0.11286 0.47068 0.23411 0.0
C1243 C 0.12549 0.45321 0.21573 0.0
C1244 C 0.14034 0.44134 0.24335 0.0
C1245 C 0.14283 0.44744 0.28829 0.0
C1246 C 0.09696 0.4839 0.20591 0.0
C1247 C 0.15387 0.4224 0.22524 0.0
H1248 H 0.0947 0.41501 0.0951 0.0
H1249 H 0.14779 0.45999 0.06723 0.0
H1250 H 0.10189 0.41161 0.20929 0.0
H1251 H 0.08235 0.43349 0.20244 0.0
H1252 H 0.08073 0.40947 0.16703 0.0
H1253 H 0.16472 0.4815 0.12253 0.0
H1254 H 0.14672 0.48866 0.16823 0.0
H1255 H 0.16674 0.46719 0.17503 0.0
H1256 H 0.10614 0.48996 0.29276 0.0
H1257 H 0.15447 0.43853 0.30907 0.0
H1258 H 0.08607 0.47282 0.18623 0.0
H1259 H 0.10644 0.49414 0.18196 0.0
H1260 H 0.0864 0.49497 0.22637 0.0
H1261 H 0.14284 0.40996 0.20959 0.0
H1262 H 0.16386 0.41416 0.25151 0.0
H1263 H 0.16524 0.4285 0.19898 0.0
C1264 C 0.05618 0.07582 0.60159 0.0
C1265 C 0.06762 0.09235 0.57839 0.0
C1266 C 0.05181 0.07784 0.64736 0.0
C1267 C 0.05948 0.09666 0.67084 0.0
C1268 C 0.07093 0.11349 0.64746 0.0
C1269 C 0.07463 0.11124 0.60137 0.0
C1270 C 0.03905 0.05976 0.6706 0.0
C1271 C 0.07967 0.13363 0.67132 0.0
C1272 C 0.033 0.1094 0.7832 0.0
C1273 C 0.04772 0.09913 0.81289 0.0
C1274 C 0.03671 0.10893 0.73696 0.0
C1275 C 0.05588 0.09839 0.71999 0.0
C1276 C 0.07116 0.08863 0.74997 0.0
C1277 C 0.06676 0.08888 0.79598 0.0
C1278 C 0.01973 0.11906 0.70621 0.0
C1279 C 0.09199 0.07758 0.73337 0.0
H1280 H 0.05044 0.06136 0.58369 0.0
H1281 H 0.08356 0.12395 0.58343 0.0
H1282 H 0.04963 0.05191 0.69632 0.0
H1283 H 0.02444 0.06682 0.6879 0.0
H1284 H 0.03327 0.04678 0.64713 0.0
H1285 H 0.08802 0.14533 0.64831 0.0
H1286 H 0.06595 0.14241 0.68831 0.0
H1287 H 0.09166 0.12853 0.69741 0.0
H1288 H 0.01812 0.11714 0.79598 0.0
H1289 H 0.07823 0.081 0.81876 0.0
H1290 H 0.0125 0.10606 0.68456 0.0
H1291 H 0.02769 0.13138 0.68407 0.0
H1292 H 0.00609 0.12727 0.72471 0.0
H1293 H 0.0876 0.06297 0.71289 0.0
H1294 H 0.1029 0.07212 0.76107 0.0
H1295 H 0.10142 0.08906 0.71172 0.0
C1296 C 0.0242 0.9077 0.18151 0.0
C1297 C 0.00118 0.90688 0.18737 0.0
C1298 C 0.03741 0.92186 0.20743 0.0
C1299 C 0.02737 0.93532 0.24031 0.0
C1300 C 0.00416 0.93444 0.24655 0.0
C1301 C 0.99138 0.9203 0.21991 0.0
C1302 C 0.06208 0.92256 0.19943 0.0
C1303 C 0.99284 0.94827 0.28169 0.0
C1304 C 0.06223 0.95558 0.33737 0.0
C1305 C 0.06577 0.97777 0.32612 0.0
C1306 C 0.04993 0.94157 0.30955 0.0
C1307 C 0.04115 0.94987 0.26917 0.0
C1308 C 0.04496 0.97219 0.25723 0.0
C1309 C 0.05709 0.98593 0.28608 0.0
C1310 C 0.04596 0.91799 0.32384 0.0
C1311 C 0.03604 0.98159 0.21424 0.0
H1312 H 0.03183 0.89766 0.15589 0.0
H1313 H 0.97363 0.91961 0.22468 0.0
H1314 H 0.06725 0.93965 0.19113 0.0
H1315 H 0.07104 0.91773 0.23018 0.0
H1316 H 0.06726 0.91141 0.17195 0.0
H1317 H 0.97453 0.94674 0.28039 0.0
H1318 H -0.00142 0.94311 0.31522 0.0
H1319 H -0.00272 0.96593 0.27761 0.0
H1320 H 0.06858 0.9493 0.36863 0.0
H1321 H 0.05995 0.00304 0.27722 0.0
H1322 H 0.05207 0.90644 0.29793 0.0
H1323 H 0.02793 0.91503 0.32762 0.0
H1324 H 0.05427 0.914 0.35587 0.0
H1325 H 0.04168 0.97145 0.18564 0.0
H1326 H 0.04136 -0.00105 0.20883 0.0
H1327 H 0.01768 0.98105 0.21448 0.0
C1328 C 0.57372 0.00915 0.73626 0.0
C1329 C 0.59532 0.0125 0.75215 0.0
C1330 C 0.55535 0.01794 0.75871 0.0
C1331 C 0.55866 0.03014 0.7984 0.0
C1332 C 0.58038 0.0329 0.81547 0.0
C1333 C 0.59848 0.02421 0.79188 0.0
C1334 C 0.53254 0.01486 0.73898 0.0
C1335 C 0.58454 0.04549 0.85809 0.0
C1336 C 0.51668 0.0736 0.83276 0.0
C1337 C 0.50501 0.06277 0.86667 0.0
C1338 C 0.53386 0.063 0.80969 0.0
C1339 C 0.53958 0.04103 0.82087 0.0
C1340 C 0.52749 0.02978 0.85427 0.0
C1341 C 0.51035 0.04079 0.87682 0.0
C1342 C 0.54611 0.07546 0.77377 0.0
C1343 C 0.53305 0.00631 0.86695 0.0
H1344 H 0.57121 0.00038 0.70523 0.0
H1345 H 0.61515 0.02665 0.80432 0.0
H1346 H 0.52091 0.00849 0.7645 0.0
H1347 H 0.52605 0.03103 0.72754 0.0
H1348 H 0.5326 0.00331 0.7102 0.0
H1349 H 0.60224 0.04506 0.8682 0.0
H1350 H 0.57949 0.06297 0.8538 0.0
H1351 H 0.57439 0.03851 0.88546 0.0
H1352 H 0.51239 0.09045 0.82432 0.0
H1353 H 0.5016 0.03239 0.90333 0.0
H1354 H 0.54562 0.06605 0.74206 0.0
H1355 H 0.56377 0.07732 0.78328 0.0
H1356 H 0.53904 0.09214 0.76787 0.0
H1357 H 0.53347 -0.00436 0.83691 0.0
H1358 H 0.52094 -0.00071 0.8909 0.0
H1359 H 0.54979 0.00578 0.88216 0.0
C1360 C 0.39402 0.46842 0.2253 0.0
C1361 C 0.40411 0.46125 0.26477 0.0
C1362 C 0.40184 0.48716 0.20265 0.0
C1363 C 0.41999 0.49915 0.22032 0.0
C1364 C 0.43045 0.49177 0.2598 0.0
C1365 C 0.42245 0.47288 0.28138 0.0
C1366 C 0.39049 0.49433 0.16024 0.0
C1367 C 0.44971 0.50418 0.28004 0.0
C1368 C 0.45295 0.53807 0.14682 0.0
C1369 C 0.44398 0.55866 0.15835 0.0
C1370 C 0.44501 0.51853 0.16601 0.0
C1371 C 0.42786 0.51964 0.19804 0.0
C1372 C 0.41865 0.5404 0.20963 0.0
C1373 C 0.42669 0.55968 0.18923 0.0
C1374 C 0.45501 0.49673 0.15204 0.0
C1375 C 0.40049 0.54226 0.24395 0.0
H1376 H 0.37992 0.45939 0.21232 0.0
H1377 H 0.43009 0.46769 0.31228 0.0
H1378 H 0.38307 0.51093 0.16487 0.0
H1379 H 0.40274 0.49566 0.13285 0.0
H1380 H 0.37723 0.48268 0.14991 0.0
H1381 H 0.45666 0.49565 0.30968 0.0
H1382 H 0.46309 0.50626 0.25509 0.0
H1383 H 0.44425 0.52093 0.29021 0.0
H1384 H 0.46599 0.53723 0.12211 0.0
H1385 H 0.41977 0.57562 0.19789 0.0
H1386 H 0.44187 0.48551 0.13954 0.0
H1387 H 0.46281 0.48859 0.18119 0.0
H1388 H 0.46771 0.49872 0.12558 0.0
H1389 H 0.38602 0.53218 0.23368 0.0
H1390 H 0.39497 0.55958 0.2489 0.0
H1391 H 0.40638 0.53566 0.27634 0.0
C1392 C 0.94897 0.4488 0.67207 0.0
C1393 C 0.92788 0.44067 0.68284 0.0
C1394 C 0.96799 0.44106 0.69383 0.0
C1395 C 0.9659 0.42492 0.72762 0.0
C1396 C 0.94466 0.41652 0.73851 0.0
C1397 C 0.9259 0.42438 0.71567 0.0
C1398 C 0.99031 0.45025 0.68073 0.0
C1399 C 0.94176 0.39945 0.77465 0.0
C1400 C 0.01709 0.39182 0.75976 0.0
C1401 C 0.02448 0.40324 0.79758 0.0
C1402 C -0.00196 0.39867 0.73661 0.0
C1403 C 0.98595 0.41721 0.75205 0.0
C1404 C 0.99331 0.42874 0.79034 0.0
C1405 C 0.01252 0.42169 0.81245 0.0
C1406 C 0.99091 0.38615 0.69553 0.0
C1407 C 0.98078 0.44842 0.80827 0.0
H1408 H 0.95063 0.46103 0.64599 0.0
H1409 H 0.90961 0.41813 0.724 0.0
H1410 H -0.00217 0.45903 0.70945 0.0
H1411 H 0.0017 0.43662 0.67151 0.0
H1412 H 0.98918 0.4619 0.65226 0.0
H1413 H 0.92418 0.39446 0.77882 0.0
H1414 H 0.95171 0.38455 0.76685 0.0
H1415 H 0.94793 0.40608 0.80681 0.0
H1416 H 0.02634 0.37762 0.74813 0.0
H1417 H 0.01786 0.43032 0.84216 0.0
H1418 H 0.99059 0.39741 0.66641 0.0
H1419 H 0.97387 0.3797 0.70001 0.0
H1420 H 0.0021 0.37209 0.68792 0.0
H1421 H 0.9797 0.46147 0.78243 0.0
H1422 H 0.98871 0.45555 0.83844 0.0
H1423 H 0.9636 0.44352 0.81677 0.0
C1424 C 0.95248 0.08248 0.79538 0.0
C1425 C 0.94491 0.08913 0.8374 0.0
C1426 C 0.9397 0.06844 0.76838 0.0
C1427 C 0.91908 0.06052 0.78429 0.0
C1428 C 0.91158 0.06689 0.82708 0.0
C1429 C 0.9245 0.08128 0.85293 0.0
C1430 C 0.94811 0.06228 0.72268 0.0
C1431 C 0.88994 0.05846 0.84562 0.0
C1432 C 0.87503 0.04194 0.70208 0.0
C1433 C 0.87764 0.01896 0.70268 0.0
C1434 C 0.88864 0.05566 0.72798 0.0
C1435 C 0.905 0.04611 0.75578 0.0
C1436 C 0.90757 0.02286 0.75686 0.0
C1437 C 0.89397 0.00957 0.72994 0.0
C1438 C 0.88563 0.08037 0.72533 0.0
C1439 C 0.92451 0.01203 0.78672 0.0
H1440 H 0.96827 0.08859 0.78346 0.0
H1441 H 0.91886 0.08604 0.88581 0.0
H1442 H 0.94955 0.04408 0.71976 0.0
H1443 H 0.93613 0.0678 0.69694 0.0
H1444 H 0.96451 0.06977 0.71537 0.0
H1445 H 0.88689 0.06433 0.88014 0.0
H1446 H 0.87602 0.06396 0.8242 0.0
H1447 H 0.88986 0.04013 0.84557 0.0
H1448 H 0.86267 0.04922 0.68042 0.0
H1449 H 0.89587 0.99177 0.73053 0.0
H1450 H 0.90142 0.08831 0.71531 0.0
H1451 H 0.88115 0.08702 0.75856 0.0
H1452 H 0.87255 0.08518 0.70116 0.0
H1453 H 0.94131 0.01835 0.77892 0.0
H1454 H 0.92458 0.99377 0.78322 0.0
H1455 H 0.92105 0.01625 0.82201 0.0
C1456 C 0.49092 0.91068 0.18385 0.0
C1457 C 0.513 0.90856 0.19773 0.0
C1458 C 0.47468 0.91909 0.21251 0.0
C1459 C 0.48068 0.92554 0.25616 0.0
C1460 C 0.50304 0.92395 0.27011 0.0
C1461 C 0.51897 0.91551 0.24063 0.0
C1462 C 0.45106 0.92078 0.19625 0.0
C1463 C 0.51005 0.93076 0.31642 0.0
C1464 C 0.44174 0.96299 0.32034 0.0
C1465 C 0.43067 0.94784 0.3478 0.0
C1466 C 0.45802 0.95599 0.29021 0.0
C1467 C 0.46339 0.93329 0.28761 0.0
C1468 C 0.45205 0.91787 0.31474 0.0
C1469 C 0.43577 0.92534 0.34445 0.0
C1470 C 0.46957 0.9729 0.26146 0.0
C1471 C 0.45729 0.89351 0.31273 0.0
H1472 H 0.48631 0.90585 0.15037 0.0
H1473 H 0.536 0.91382 0.25149 0.0
H1474 H 0.4402 0.91013 0.2169 0.0
H1475 H 0.445 0.93798 0.19984 0.0
H1476 H 0.44929 0.91573 0.16084 0.0
H1477 H 0.5282 0.92916 0.32157 0.0
H1478 H 0.50519 0.94814 0.32278 0.0
H1479 H 0.50143 0.92039 0.34144 0.0
H1480 H 0.43763 0.98036 0.32239 0.0
H1481 H 0.42745 0.91363 0.36594 0.0
H1482 H 0.46771 0.96854 0.22575 0.0
H1483 H 0.48757 0.97296 0.26897 0.0
H1484 H 0.46298 0.98984 0.26667 0.0
H1485 H 0.4547 0.88724 0.27838 0.0
H1486 H 0.44689 0.88368 0.33589 0.0
H1487 H 0.47496 0.89076 0.32124 0.0
C1488 C 0.59226 0.46338 0.63533 0.0
C1489 C 0.5888 0.48561 0.64637 0.0
C1490 C 0.58604 0.44644 0.6645 0.0
C1491 C 0.57626 0.45188 0.70588 0.0
C1492 C 0.57308 0.47432 0.71763 0.0
C1493 C 0.5793 0.49093 0.68757 0.0
C1494 C 0.58939 0.42271 0.65052 0.0
C1495 C 0.56279 0.48075 0.76159 0.0
C1496 C 0.53867 0.40959 0.75967 0.0
C1497 C 0.55254 0.40031 0.79212 0.0
C1498 C 0.54622 0.42632 0.73136 0.0
C1499 C 0.56822 0.43405 0.73567 0.0
C1500 C 0.58244 0.42462 0.76801 0.0
C1501 C 0.57445 0.40774 0.79578 0.0
C1502 C 0.53061 0.43572 0.69686 0.0
C1503 C 0.60595 0.43262 0.77375 0.0
H1504 H 0.59929 0.45919 0.60325 0.0
H1505 H 0.57683 0.50811 0.69634 0.0
H1506 H 0.59913 0.41374 0.6761 0.0
H1507 H 0.57311 0.41432 0.64775 0.0
H1508 H 0.59807 0.4213 0.61803 0.0
H1509 H 0.56243 0.49893 0.76651 0.0
H1510 H 0.54558 0.4744 0.76333 0.0
H1511 H 0.57214 0.47315 0.78947 0.0
H1512 H 0.52182 0.40374 0.75653 0.0
H1513 H 0.58512 0.40083 0.82122 0.0
H1514 H 0.53708 0.43225 0.663 0.0
H1515 H 0.5295 0.45392 0.70042 0.0
H1516 H 0.51367 0.42872 0.69951 0.0
H1517 H 0.61517 0.43076 0.74203 0.0
H1518 H 0.61492 0.42348 0.80029 0.0
H1519 H 0.60595 0.45045 0.78227 0.0
C1520 C 0.01876 0.60468 0.16577 0.0
C1521 C -0.00255 0.59677 0.17529 0.0
C1522 C 0.03695 0.59875 0.19223 0.0
C1523 C 0.03373 0.58469 0.22927 0.0
C1524 C 0.01219 0.57695 0.23955 0.0
C1525 C 0.99432 0.58303 0.21229 0.0
C1526 C 0.05971 0.60709 0.17992 0.0
C1527 C 0.00806 0.56209 0.27905 0.0
C1528 C 0.0817 0.55071 0.27352 0.0
C1529 C 0.08806 0.56293 0.31107 0.0
C1530 C 0.06439 0.55789 0.24594 0.0
C1531 C 0.05297 0.57761 0.25663 0.0
C1532 C 0.05964 0.59028 0.29395 0.0
C1533 C 0.07722 0.58284 0.32061 0.0
C1534 C 0.05795 0.54406 0.2061 0.0
C1535 C 0.04778 0.61132 0.3065 0.0
H1536 H 0.02132 0.61501 0.13681 0.0
H1537 H 0.97783 0.5771 0.21997 0.0
H1538 H 0.06722 0.61596 0.20853 0.0
H1539 H 0.07068 0.59293 0.17197 0.0
H1540 H 0.05931 0.61838 0.15079 0.0
H1541 H 0.9902 0.5583 0.28356 0.0
H1542 H 0.01717 0.54633 0.27467 0.0
H1543 H 0.0144 0.56995 0.30994 0.0
H1544 H 0.09018 0.53538 0.26605 0.0
H1545 H 0.08187 0.59212 0.35001 0.0
H1546 H 0.05642 0.55451 0.17592 0.0
H1547 H 0.04156 0.53635 0.21211 0.0
H1548 H 0.07015 0.53077 0.19927 0.0
H1549 H 0.04769 0.62295 0.27796 0.0
H1550 H 0.05552 0.61966 0.33558 0.0
H1551 H 0.03026 0.6076 0.31469 0.0
C1552 C 0.19201 0.02577 0.45955 0.0
C1553 C 0.18415 0.04273 0.43207 0.0
C1554 C 0.21455 0.02046 0.46075 0.0
C1555 C 0.22956 0.03261 0.43421 0.0
C1556 C 0.22173 0.04982 0.40645 0.0
C1557 C 0.19899 0.05456 0.40541 0.0
C1558 C 0.22226 0.00179 0.4903 0.0
C1559 C 0.23737 0.0633 0.37823 0.0
C1560 C 0.28909 0.03104 0.4734 0.0
C1561 C 0.29824 0.01526 0.44468 0.0
C1562 C 0.26689 0.03737 0.46939 0.0
C1563 C 0.25351 0.02741 0.43628 0.0
C1564 C 0.26274 0.01163 0.40685 0.0
C1565 C 0.28513 0.00585 0.41119 0.0
C1566 C 0.25767 0.05449 0.50095 0.0
C1567 C 0.24885 0.00045 0.37158 0.0
H1568 H 0.18042 0.01637 0.47957 0.0
H1569 H 0.19283 0.06769 0.38422 0.0
H1570 H 0.23109 0.98921 0.47013 0.0
H1571 H 0.23414 0.00811 0.51547 0.0
H1572 H 0.20833 0.99362 0.50796 0.0
H1573 H 0.22861 0.07612 0.3585 0.0
H1574 H 0.24983 0.07152 0.3998 0.0
H1575 H 0.24653 0.05237 0.35501 0.0
H1576 H 0.2994 0.03855 0.49883 0.0
H1577 H 0.29227 0.99362 0.38908 0.0
H1578 H 0.24464 0.04696 0.52209 0.0
H1579 H 0.24981 0.06809 0.48189 0.0
H1580 H 0.27063 0.06159 0.52301 0.0
H1581 H 0.23541 0.99083 0.38763 0.0
H1582 H 0.25875 0.98912 0.35035 0.0
H1583 H 0.24087 0.01298 0.34993 0.0
C1584 C 0.43603 0.16857 0.86126 0.0
C1585 C 0.42081 0.16648 0.89645 0.0
C1586 C 0.44474 0.18914 0.8495 0.0
C1587 C 0.43844 0.20799 0.87407 0.0
C1588 C 0.42164 0.20638 0.90678 0.0
C1589 C 0.41288 0.18561 0.91737 0.0
C1590 C 0.46226 0.19028 0.81371 0.0
C1591 C 0.41439 0.22624 0.93345 0.0
C1592 C 0.48241 0.25063 0.89866 0.0
C1593 C 0.47556 0.26831 0.87198 0.0
C1594 C 0.47071 0.23071 0.8987 0.0
C1595 C 0.45188 0.22836 0.87092 0.0
C1596 C 0.44567 0.24564 0.84188 0.0
C1597 C 0.45754 0.26553 0.84293 0.0
C1598 C 0.47798 0.21251 0.92988 0.0
C1599 C 0.42594 0.24352 0.81126 0.0
H1600 H 0.44256 0.15399 0.84502 0.0
H1601 H 0.40078 0.1842 0.94387 0.0
H1602 H 0.45994 0.2051 0.7925 0.0
H1603 H 0.47883 0.19156 0.82951 0.0
H1604 H 0.46211 0.17537 0.79213 0.0
H1605 H 0.39923 0.22285 0.95323 0.0
H1606 H 0.42785 0.23107 0.95671 0.0
H1607 H 0.41119 0.24051 0.91125 0.0
H1608 H 0.49654 0.25264 0.92058 0.0
H1609 H 0.45203 0.27925 0.82256 0.0
H1610 H 0.48106 0.1971 0.9109 0.0
H1611 H 0.46464 0.20899 0.95425 0.0
H1612 H 0.49328 0.21685 0.94853 0.0
H1613 H 0.42635 0.22753 0.79325 0.0
H1614 H 0.42522 0.25712 0.78648 0.0
H1615 H 0.41049 0.24387 0.83121 0.0
C1616 C 0.32541 0.47008 0.45951 0.0
C1617 C 0.3244 0.44863 0.47689 0.0
C1618 C 0.30627 0.48298 0.45564 0.0
C1619 C 0.28581 0.47427 0.47032 0.0
C1620 C 0.28509 0.45334 0.49136 0.0
C1621 C 0.30441 0.44058 0.49379 0.0
C1622 C 0.30767 0.50499 0.43223 0.0
C1623 C 0.26364 0.4438 0.50852 0.0
C1624 C 0.23434 0.5099 0.47737 0.0
C1625 C 0.2224 0.50259 0.43993 0.0
C1626 C 0.25532 0.50127 0.48733 0.0
C1627 C 0.26485 0.48553 0.45838 0.0
C1628 C 0.25371 0.47941 0.41876 0.0
C1629 C 0.23253 0.48777 0.41032 0.0
C1630 C 0.26667 0.50804 0.53005 0.0
C1631 C 0.26367 0.4631 0.38634 0.0
H1632 H 0.34088 0.47614 0.44584 0.0
H1633 H 0.30374 0.42397 0.50722 0.0
H1634 H 0.30056 0.50339 0.39828 0.0
H1635 H 0.2979 0.51771 0.4501 0.0
H1636 H 0.32504 0.51085 0.42912 0.0
H1637 H 0.26641 0.42896 0.52955 0.0
H1638 H 0.25447 0.45629 0.5283 0.0
H1639 H 0.25297 0.43902 0.47998 0.0
H1640 H 0.22699 0.5218 0.49988 0.0
H1641 H 0.2235 0.48173 0.3816 0.0
H1642 H 0.28411 0.5128 0.52363 0.0
H1643 H 0.26697 0.49381 0.5533 0.0
H1644 H 0.25812 0.52203 0.5467 0.0
H1645 H 0.28089 0.46792 0.37793 0.0
H1646 H 0.25395 0.46188 0.35499 0.0
H1647 H 0.26435 0.4465 0.40188 0.0
C1648 C 0.03656 0.31916 0.98012 0.0
C1649 C 0.05686 0.32291 1.00144 0.0
C1650 C 0.02824 0.29772 0.97527 0.0
C1651 C 0.04032 0.27978 0.99313 0.0
C1652 C 0.05993 0.28372 0.01787 0.0
C1653 C 0.06821 0.3053 0.02107 0.0
C1654 C 0.00759 0.29418 0.94774 0.0
C1655 C 0.07286 0.26503 0.03857 0.0
C1656 C 0.01306 0.22342 0.99644 0.0
C1657 C 0.02325 0.21276 0.96021 0.0
C1658 C 0.01853 0.2452 0.00787 0.0
C1659 C 0.03394 0.25687 0.98147 0.0
C1660 C 0.04352 0.24664 0.94373 0.0
C1661 C 0.03833 0.22462 0.93398 0.0
C1662 C 0.00828 0.2555 0.04877 0.0
C1663 C 0.05961 0.25882 0.91405 0.0
H1664 H 0.02803 0.33282 0.96428 0.0
H1665 H 0.08395 0.30832 0.03739 0.0
H1666 H 0.01218 0.28647 0.91549 0.0
H1667 H 0.99602 0.28276 0.96477 0.0
H1668 H -0.00122 0.30991 0.94077 0.0
H1669 H 0.08573 0.2711 0.06205 0.0
H1670 H 0.06161 0.25367 0.05666 0.0
H1671 H 0.08114 0.25534 0.012 0.0
H1672 H 0.00095 0.21469 0.01635 0.0
H1673 H 0.04662 0.21658 0.90641 0.0
H1674 H -0.00061 0.27088 0.03971 0.0
H1675 H 0.02149 0.26014 0.07275 0.0
H1676 H -0.0035 0.24419 0.06568 0.0
H1677 H 0.05222 0.27462 0.90267 0.0
H1678 H 0.06438 0.24899 0.88431 0.0
H1679 H 0.07483 0.2629 0.93304 0.0
C1680 C 0.70267 0.03819 0.50752 0.0
C1681 C 0.68461 0.02582 0.49215 0.0
C1682 C 0.72305 0.03696 0.48556 0.0
C1683 C 0.72451 0.02461 0.44545 0.0
C1684 C 0.70465 0.01857 0.42341 0.0
C1685 C 0.68478 0.01841 0.44783 0.0
C1686 C 0.7433 0.04574 0.50926 0.0
C1687 C 0.70474 0.00947 0.37668 0.0
C1688 C 0.78544 0.01207 0.43856 0.0
C1689 C 0.78573 0.99122 0.45914 0.0
C1690 C 0.76526 0.02196 0.4261 0.0
C1691 C 0.74508 0.0115 0.43774 0.0
C1692 C 0.74561 0.98923 0.45275 0.0
C1693 C 0.766 0.9791 0.46067 0.0
C1694 C 0.76588 0.04411 0.40325 0.0
C1695 C 0.72494 0.97662 0.46567 0.0
H1696 H 0.7019 0.04555 0.54044 0.0
H1697 H 0.67043 0.01007 0.4341 0.0
H1698 H 0.75492 0.03208 0.51704 0.0
H1699 H 0.75196 0.05775 0.48762 0.0
H1700 H 0.73911 0.05426 0.54095 0.0
H1701 H 0.6936 0.01966 0.35562 0.0
H1702 H 0.72151 0.00952 0.36159 0.0
H1703 H 0.69792 0.99245 0.3763 0.0
H1704 H 0.80064 0.02136 0.4347 0.0
H1705 H 0.76625 0.9622 0.47243 0.0
H1706 H 0.74916 0.05085 0.39622 0.0
H1707 H 0.77489 0.0424 0.3712 0.0
H1708 H 0.77541 0.05607 0.42373 0.0
H1709 H 0.71514 0.98613 0.49033 0.0
H1710 H 0.72871 0.96026 0.48061 0.0
H1711 H 0.71452 0.9737 0.4359 0.0
C1712 C 0.52973 0.70607 0.04151 0.0
C1713 C 0.51134 0.70124 0.06833 0.0
C1714 C 0.54121 0.72599 0.04608 0.0
C1715 C 0.53416 0.74146 0.07834 0.0
C1716 C 0.5154 0.73693 0.10507 0.0
C1717 C 0.5042 0.71678 0.0998 0.0
C1718 C 0.56116 0.73027 0.01698 0.0
C1719 C 0.50736 0.75321 0.13955 0.0
C1720 C 0.57644 0.78368 0.11701 0.0
C1721 C 0.57071 0.80197 0.09092 0.0
C1722 C 0.56453 0.76385 0.11361 0.0
C1723 C 0.54644 0.76247 0.08365 0.0
C1724 C 0.54053 0.78093 0.05745 0.0
C1725 C 0.55273 0.80045 0.06143 0.0
C1726 C 0.57132 0.74438 0.14185 0.0
C1727 C 0.52129 0.78007 0.02526 0.0
H1728 H 0.53567 0.69391 0.01786 0.0
H1729 H 0.48998 0.71311 0.12051 0.0
H1730 H 0.55881 0.74577 0.99788 0.0
H1731 H 0.57611 0.73247 0.03805 0.0
H1732 H 0.56428 0.71661 0.99309 0.0
H1733 H 0.4923 0.74732 0.15711 0.0
H1734 H 0.52057 0.75621 0.16455 0.0
H1735 H 0.5036 0.76929 0.12355 0.0
H1736 H 0.59028 0.78487 0.13991 0.0
H1737 H 0.54786 0.81476 0.04207 0.0
H1738 H 0.57601 0.73031 0.12012 0.0
H1739 H 0.55718 0.73887 0.16262 0.0
H1740 H 0.58551 0.7483 0.16408 0.0
H1741 H 0.52424 0.76711 0.99981 0.0
H1742 H 0.51862 0.79606 0.00796 0.0
H1743 H 0.50589 0.77558 0.04321 0.0
C1744 C 0.78472 0.53382 0.56967 0.0
C1745 C 0.7871 0.51413 0.59369 0.0
C1746 C 0.76456 0.54515 0.56894 0.0
C1747 C 0.74627 0.53639 0.59233 0.0
C1748 C 0.74878 0.51688 0.61795 0.0
C1749 C 0.76934 0.50603 0.61866 0.0
C1750 C 0.76264 0.56606 0.54179 0.0
C1751 C 0.72952 0.50697 0.64297 0.0
C1752 C 0.69513 0.57193 0.60941 0.0
C1753 C 0.68174 0.56489 0.57398 0.0
C1754 C 0.71637 0.56299 0.61571 0.0
C1755 C 0.72409 0.54644 0.58624 0.0
C1756 C 0.71073 0.53952 0.55011 0.0
C1757 C 0.68977 0.54889 0.54435 0.0
C1758 C 0.73038 0.57098 0.65413 0.0
C1759 C 0.71835 0.52181 0.51811 0.0
H1760 H 0.79869 0.54028 0.55112 0.0
H1761 H 0.77133 0.49087 0.63743 0.0
H1762 H 0.75162 0.56314 0.51279 0.0
H1763 H 0.75509 0.57943 0.562 0.0
H1764 H 0.77895 0.57183 0.52928 0.0
H1765 H 0.7346 0.49273 0.66393 0.0
H1766 H 0.72166 0.51959 0.66457 0.0
H1767 H 0.71677 0.50127 0.61892 0.0
H1768 H 0.68887 0.58422 0.63245 0.0
H1769 H 0.67924 0.54297 0.5176 0.0
H1770 H 0.74659 0.57698 0.64173 0.0
H1771 H 0.73378 0.55711 0.67726 0.0
H1772 H 0.72224 0.5845 0.67306 0.0
H1773 H 0.73397 0.52694 0.5017 0.0
H1774 H 0.70585 0.51823 0.49189 0.0
H1775 H 0.72184 0.50632 0.53657 0.0
C1776 C 0.9031 0.69132 0.06148 0.0
C1777 C 0.89051 0.67764 0.08934 0.0
C1778 C 0.903 0.71422 0.06677 0.0
C1779 C 0.89007 0.72377 0.101 0.0
C1780 C 0.87668 0.71022 0.12833 0.0
C1781 C 0.8771 0.68722 0.12224 0.0
C1782 C 0.91754 0.72812 0.03689 0.0
C1783 C 0.86258 0.71992 0.16491 0.0
C1784 C 0.91444 0.77845 0.13553 0.0
C1785 C 0.90262 0.79297 0.10809 0.0
C1786 C 0.90927 0.7559 0.13641 0.0
C1787 C 0.89189 0.74782 0.1092 0.0
C1788 C 0.87879 0.7627 0.08423 0.0
C1789 C 0.88437 0.78515 0.08387 0.0
C1790 C 0.92361 0.74052 0.16355 0.0
C1791 C 0.85998 0.75472 0.05523 0.0
H1792 H 0.91391 0.68406 0.03667 0.0
H1793 H 0.86726 0.67671 0.14371 0.0
H1794 H 0.90762 0.74127 0.02068 0.0
H1795 H 0.93056 0.73634 0.05707 0.0
H1796 H 0.92574 0.71819 0.0105 0.0
H1797 H 0.85128 0.70748 0.1798 0.0
H1798 H 0.87341 0.72657 0.1916 0.0
H1799 H 0.85257 0.73388 0.15198 0.0
H1800 H 0.92859 0.78444 0.15422 0.0
H1801 H 0.87494 0.79648 0.06332 0.0
H1802 H 0.93443 0.73087 0.14088 0.0
H1803 H 0.91327 0.7286 0.1823 0.0
H1804 H 0.9343 0.74962 0.18748 0.0
H1805 H 0.86683 0.74648 0.02523 0.0
H1806 H 0.84918 0.76851 0.04417 0.0
H1807 H 0.84973 0.74241 0.07318 0.0
loop_
_geom_bond_atom_site_label_1
_geom_bond_atom_site_label_2
_geom_bond_distance
_geom_bond_site_symmetry_2
_ccdc_geom_bond_type
C0 C1 1.351 . S
C0 N3 1.368 . S
C0 H5 0.931 . S
C1 C0 1.351 . S
C1 N2 1.373 . S
C1 H29 0.930 . S
N2 C1 1.373 . S
N2 C4 1.340 . S
N3 C0 1.368 . S
N3 C4 1.321 . S
N3 Co6 2.135 1_565 S
C4 N2 1.340 . S
C4 N3 1.321 . S
C4 H28 0.930 1_565 S
H5 C0 0.931 . S
Co6 N3 2.135 1_545 S
Co6 N9 2.121 . S
Co6 O14 2.055 . S
Co6 O17 2.039 . S
Co6 N20 2.140 . S
C7 O8 1.227 . S
C7 O17 1.265 . S
O8 C7 1.227 . S
N9 Co6 2.121 . S
N9 C11 1.375 . S
N9 C12 1.313 . S
C10 C11 1.338 . S
C10 N13 1.377 . S
C10 H30 0.930 . S
C11 N9 1.375 . S
C11 C10 1.338 . S
C11 H15 0.931 . S
C12 N9 1.313 . S
C12 N13 1.344 . S
C12 H16 0.930 . S
N13 C10 1.377 . S
N13 C12 1.344 . S
O14 Co6 2.055 . S
O14 C18 1.253 1_545 S
H15 C11 0.931 . S
H16 C12 0.930 . S
O17 Co6 2.039 . S
O17 C7 1.265 . S
C18 O14 1.253 1_565 S
C18 O19 1.227 . S
O19 C18 1.227 . S
N20 Co6 2.140 . S
N20 C23 1.346 . S
N20 C24 1.345 . S
C21 C22 1.387 . S
C21 C25 1.402 . S
C22 C21 1.387 . S
C22 C23 1.374 . S
C22 H31 0.925 1_545 S
C23 N20 1.346 . S
C23 C22 1.374 . S
C23 H26 0.928 . S
C24 N20 1.345 . S
C24 C25 1.371 . S
C24 H27 0.931 . S
C25 C21 1.402 . S
C25 C24 1.371 . S
C25 H32 0.930 . S
H26 C23 0.928 . S
H27 C24 0.931 . S
H28 C4 0.930 1_545 S
H29 C1 0.930 . S
H30 C10 0.930 . S
H31 C22 0.925 1_565 S
H32 C25 0.930 . S
C33 C34 1.351 . S
C33 N36 1.368 . S
C33 H38 0.931 . S
C34 C33 1.351 . S
C34 N35 1.373 . S
C34 H62 0.930 . S
N35 C34 1.373 . S
N35 C37 1.340 . S
N36 C33 1.368 . S
N36 C37 1.321 . S
N36 Co39 2.135 . S
C37 N35 1.340 . S
C37 N36 1.321 . S
C37 H61 0.930 . S
H38 C33 0.931 . S
Co39 N36 2.135 . S
Co39 N42 2.121 . S
Co39 O47 2.055 . S
Co39 O50 2.039 . S
Co39 N53 2.140 . S
C40 O41 1.227 . S
C40 O50 1.265 . S
O41 C40 1.227 . S
N42 Co39 2.121 . S
N42 C44 1.375 . S
N42 C45 1.313 1_556 S
C43 C44 1.338 1_554 S
C43 N46 1.377 . S
C43 H63 0.930 . S
C44 N42 1.375 . S
C44 C43 1.338 1_556 S
C44 H48 0.931 . S
C45 N42 1.313 1_554 S
C45 N46 1.344 . S
C45 H49 0.930 . S
N46 C43 1.377 . S
N46 C45 1.344 . S
O47 Co39 2.055 . S
O47 C51 1.253 . S
H48 C44 0.931 . S
H49 C45 0.930 . S
O50 Co39 2.039 . S
O50 C40 1.265 . S
C51 O47 1.253 . S
C51 O52 1.227 1_556 S
O52 C51 1.227 1_554 S
N53 Co39 2.140 . S
N53 C56 1.346 . S
N53 C57 1.345 . S
C54 C55 1.387 . S
C54 C58 1.391 . S
C55 C54 1.387 . S
C55 C56 1.369 . S
C55 H64 0.929 . S
C56 N53 1.346 . S
C56 C55 1.369 . S
C56 H59 0.928 . S
C57 N53 1.345 . S
C57 C58 1.371 . S
C57 H60 0.931 1_556 S
C58 C54 1.391 . S
C58 C57 1.371 . S
C58 H65 0.930 1_556 S
H59 C56 0.928 . S
H60 C57 0.931 1_554 S
H61 C37 0.930 . S
H62 C34 0.930 . S
H63 C43 0.930 . S
H64 C55 0.929 . S
H65 C58 0.930 1_554 S
C66 C67 1.351 . S
C66 N69 1.368 . S
C66 H71 0.931 . S
C67 C66 1.351 . S
C67 N68 1.373 . S
C67 H95 0.930 . S
N68 C67 1.373 . S
N68 C70 1.340 . S
N69 C66 1.368 . S
N69 C70 1.321 . S
N69 Co72 2.135 . S
C70 N68 1.340 . S
C70 N69 1.321 . S
C70 H94 0.930 . S
H71 C66 0.931 . S
Co72 N69 2.135 . S
Co72 N75 2.121 . S
Co72 O80 2.055 . S
Co72 O83 2.039 . S
Co72 N86 2.140 . S
C73 O74 1.227 . S
C73 O83 1.265 . S
O74 C73 1.227 . S
N75 Co72 2.121 . S
N75 C77 1.375 . S
N75 C78 1.313 . S
C76 C77 1.338 . S
C76 N79 1.377 . S
C76 H96 0.930 . S
C77 N75 1.375 . S
C77 C76 1.338 . S
C77 H81 0.931 . S
C78 N75 1.313 . S
C78 N79 1.344 . S
C78 H82 0.930 . S
N79 C76 1.377 . S
N79 C78 1.344 . S
O80 Co72 2.055 . S
O80 C84 1.253 . S
H81 C77 0.931 . S
H82 C78 0.930 . S
O83 Co72 2.039 . S
O83 C73 1.265 . S
C84 O80 1.253 . S
C84 O85 1.227 . S
O85 C84 1.227 . S
N86 Co72 2.140 . S
N86 C89 1.346 . S
N86 C90 1.345 . S
C87 C88 1.387 . S
C87 C91 1.391 . S
C88 C87 1.387 . S
C88 C89 1.369 . S
C88 H97 0.929 . S
C89 N86 1.346 . S
C89 C88 1.369 . S
C89 H92 0.928 . S
C90 N86 1.345 . S
C90 C91 1.371 . S
C90 H93 0.931 . S
C91 C87 1.391 . S
C91 C90 1.371 . S
C91 H98 0.930 . S
H92 C89 0.928 . S
H93 C90 0.931 . S
H94 C70 0.930 . S
H95 C67 0.930 . S
H96 C76 0.930 . S
H97 C88 0.929 . S
H98 C91 0.930 . S
C99 C100 1.351 . S
C99 N102 1.368 . S
C99 H104 0.931 . S
C100 C99 1.351 . S
C100 N101 1.373 . S
C100 H128 0.930 . S
N101 C100 1.373 . S
N101 C103 1.340 . S
N102 C99 1.368 . S
N102 C103 1.321 . S
N102 Co105 2.135 1_655 S
C103 N101 1.340 . S
C103 N102 1.321 . S
C103 H127 0.930 1_655 S
H104 C99 0.931 . S
Co105 N102 2.135 1_455 S
Co105 N108 2.121 . S
Co105 O113 2.055 . S
Co105 O116 2.039 . S
Co105 N119 2.140 . S
C106 O107 1.227 . S
C106 O116 1.265 . S
O107 C106 1.227 . S
N108 Co105 2.121 . S
N108 C110 1.375 . S
N108 C111 1.313 1_556 S
C109 C110 1.338 1_554 S
C109 N112 1.377 . S
C109 H129 0.930 . S
C110 N108 1.375 . S
C110 C109 1.338 1_556 S
C110 H114 0.931 . S
C111 N108 1.313 1_554 S
C111 N112 1.344 . S
C111 H115 0.930 . S
N112 C109 1.377 . S
N112 C111 1.344 . S
O113 Co105 2.055 . S
O113 C117 1.253 1_455 S
H114 C110 0.931 . S
H115 C111 0.930 . S
O116 Co105 2.039 . S
O116 C106 1.265 . S
C117 O113 1.253 1_655 S
C117 O118 1.227 1_556 S
O118 C117 1.227 1_554 S
N119 Co105 2.140 . S
N119 C122 1.346 . S
N119 C123 1.345 . S
C120 C121 1.387 . S
C120 C124 1.402 . S
C121 C120 1.387 . S
C121 C122 1.374 . S
C121 H130 0.925 1_455 S
C122 N119 1.346 . S
C122 C121 1.374 . S
C122 H125 0.928 . S
C123 N119 1.345 . S
C123 C124 1.371 . S
C123 H126 0.931 1_556 S
C124 C120 1.402 . S
C124 C123 1.371 . S
C124 H131 0.930 1_556 S
H125 C122 0.928 . S
H126 C123 0.931 1_554 S
H127 C103 0.930 1_455 S
H128 C100 0.930 . S
H129 C109 0.930 . S
H130 C121 0.925 1_655 S
H131 C124 0.930 1_554 S
C132 C133 1.351 . S
C132 N135 1.368 . S
C132 H137 0.931 . S
C133 C132 1.351 . S
C133 N134 1.373 . S
C133 H161 0.930 . S
N134 C133 1.373 . S
N134 C136 1.340 . S
N135 C132 1.368 . S
N135 C136 1.321 . S
N135 Co138 2.135 1_545 S
C136 N134 1.340 . S
C136 N135 1.321 . S
C136 H160 0.930 1_545 S
H137 C132 0.931 . S
Co138 N135 2.135 1_565 S
Co138 N141 2.121 . S
Co138 O146 2.055 . S
Co138 O149 2.039 . S
Co138 N152 2.140 . S
C139 O140 1.227 . S
C139 O149 1.265 . S
O140 C139 1.227 . S
N141 Co138 2.121 . S
N141 C143 1.375 . S
N141 C144 1.313 . S
C142 C143 1.338 . S
C142 N145 1.377 . S
C142 H162 0.930 . S
C143 N141 1.375 . S
C143 C142 1.338 . S
C143 H147 0.931 . S
C144 N141 1.313 . S
C144 N145 1.344 . S
C144 H148 0.930 . S
N145 C142 1.377 . S
N145 C144 1.344 . S
O146 Co138 2.055 . S
O146 C150 1.253 1_565 S
H147 C143 0.931 . S
H148 C144 0.930 . S
O149 Co138 2.039 . S
O149 C139 1.265 . S
C150 O146 1.253 1_545 S
C150 O151 1.227 . S
O151 C150 1.227 . S
N152 Co138 2.140 . S
N152 C155 1.346 . S
N152 C156 1.345 . S
C153 C154 1.387 . S
C153 C157 1.402 . S
C154 C153 1.387 . S
C154 C155 1.374 . S
C154 H163 0.925 1_565 S
C155 N152 1.346 . S
C155 C154 1.374 . S
C155 H158 0.928 . S
C156 N152 1.345 . S
C156 C157 1.371 . S
C156 H159 0.931 . S
C157 C153 1.402 . S
C157 C156 1.371 . S
C157 H164 0.930 . S
H158 C155 0.928 . S
H159 C156 0.931 . S
H160 C136 0.930 1_565 S
H161 C133 0.930 . S
H162 C142 0.930 . S
H163 C154 0.925 1_545 S
H164 C157 0.930 . S
C165 C166 1.351 . S
C165 N168 1.368 . S
C165 H170 0.931 . S
C166 C165 1.351 . S
C166 N167 1.373 . S
C166 H194 0.930 . S
N167 C166 1.373 . S
N167 C169 1.340 . S
N168 C165 1.368 . S
N168 C169 1.321 . S
N168 Co171 2.135 . S
C169 N167 1.340 . S
C169 N168 1.321 . S
C169 H193 0.930 . S
H170 C165 0.931 . S
Co171 N168 2.135 . S
Co171 N174 2.121 . S
Co171 O179 2.055 . S
Co171 O182 2.039 . S
Co171 N185 2.140 . S
C172 O173 1.227 . S
C172 O182 1.265 . S
O173 C172 1.227 . S
N174 Co171 2.121 . S
N174 C176 1.375 . S
N174 C177 1.313 1_554 S
C175 C176 1.338 1_556 S
C175 N178 1.377 . S
C175 H195 0.930 . S
C176 N174 1.375 . S
C176 C175 1.338 1_554 S
C176 H180 0.931 . S
C177 N174 1.313 1_556 S
C177 N178 1.344 . S
C177 H181 0.930 . S
N178 C175 1.377 . S
N178 C177 1.344 . S
O179 Co171 2.055 . S
O179 C183 1.253 . S
H180 C176 0.931 . S
H181 C177 0.930 . S
O182 Co171 2.039 . S
O182 C172 1.265 . S
C183 O179 1.253 . S
C183 O184 1.227 1_554 S
O184 C183 1.227 1_556 S
N185 Co171 2.140 . S
N185 C188 1.346 . S
N185 C189 1.345 . S
C186 C187 1.387 . S
C186 C190 1.391 . S
C187 C186 1.387 . S
C187 C188 1.369 . S
C187 H196 0.929 . S
C188 N185 1.346 . S
C188 C187 1.369 . S
C188 H191 0.928 . S
C189 N185 1.345 . S
C189 C190 1.371 . S
C189 H192 0.931 1_554 S
C190 C186 1.391 . S
C190 C189 1.371 . S
C190 H197 0.930 1_554 S
H191 C188 0.928 . S
H192 C189 0.931 1_556 S
H193 C169 0.930 . S
H194 C166 0.930 . S
H195 C175 0.930 . S
H196 C187 0.929 . S
H197 C190 0.930 1_556 S
C198 C199 1.351 . S
C198 N201 1.368 . S
C198 H203 0.931 . S
C199 C198 1.351 . S
C199 N200 1.373 . S
C199 H227 0.930 . S
N200 C199 1.373 . S
N200 C202 1.340 . S
N201 C198 1.368 . S
N201 C202 1.321 . S
N201 Co204 2.135 . S
C202 N200 1.340 . S
C202 N201 1.321 . S
C202 H226 0.930 . S
H203 C198 0.931 . S
Co204 N201 2.135 . S
Co204 N207 2.121 . S
Co204 O212 2.055 . S
Co204 O215 2.039 . S
Co204 N218 2.140 . S
C205 O206 1.227 . S
C205 O215 1.265 . S
O206 C205 1.227 . S
N207 Co204 2.121 . S
N207 C209 1.375 . S
N207 C210 1.313 . S
C208 C209 1.338 . S
C208 N211 1.377 . S
C208 H228 0.930 . S
C209 N207 1.375 . S
C209 C208 1.338 . S
C209 H213 0.931 . S
C210 N207 1.313 . S
C210 N211 1.344 . S
C210 H214 0.930 . S
N211 C208 1.377 . S
N211 C210 1.344 . S
O212 Co204 2.055 . S
O212 C216 1.253 . S
H213 C209 0.931 . S
H214 C210 0.930 . S
O215 Co204 2.039 . S
O215 C205 1.265 . S
C216 O212 1.253 . S
C216 O217 1.227 . S
O217 C216 1.227 . S
N218 Co204 2.140 . S
N218 C221 1.346 . S
N218 C222 1.345 . S
C219 C220 1.387 . S
C219 C223 1.391 . S
C220 C219 1.387 . S
C220 C221 1.369 . S
C220 H229 0.929 . S
C221 N218 1.346 . S
C221 C220 1.369 . S
C221 H224 0.928 . S
C222 N218 1.345 . S
C222 C223 1.371 . S
C222 H225 0.931 . S
C223 C219 1.391 . S
C223 C222 1.371 . S
C223 H230 0.930 . S
H224 C221 0.928 . S
H225 C222 0.931 . S
H226 C202 0.930 . S
H227 C199 0.930 . S
H228 C208 0.930 . S
H229 C220 0.929 . S
H230 C223 0.930 . S
C231 C232 1.351 . S
C231 N234 1.368 . S
C231 H236 0.931 . S
C232 C231 1.351 . S
C232 N233 1.373 . S
C232 H260 0.930 . S
N233 C232 1.373 . S
N233 C235 1.340 . S
N234 C231 1.368 . S
N234 C235 1.321 . S
N234 Co237 2.135 1_455 S
C235 N233 1.340 . S
C235 N234 1.321 . S
C235 H259 0.930 1_455 S
H236 C231 0.931 . S
Co237 N234 2.135 1_655 S
Co237 N240 2.121 . S
Co237 O245 2.055 . S
Co237 O248 2.039 . S
Co237 N251 2.140 . S
C238 O239 1.227 . S
C238 O248 1.265 . S
O239 C238 1.227 . S
N240 Co237 2.121 . S
N240 C242 1.375 . S
N240 C243 1.313 1_554 S
C241 C242 1.338 1_556 S
C241 N244 1.377 . S
C241 H261 0.930 . S
C242 N240 1.375 . S
C242 C241 1.338 1_554 S
C242 H246 0.931 . S
C243 N240 1.313 1_556 S
C243 N244 1.344 . S
C243 H247 0.930 . S
N244 C241 1.377 . S
N244 C243 1.344 . S
O245 Co237 2.055 . S
O245 C249 1.253 1_655 S
H246 C242 0.931 . S
H247 C243 0.930 . S
O248 Co237 2.039 . S
O248 C238 1.265 . S
C249 O245 1.253 1_455 S
C249 O250 1.227 1_554 S
O250 C249 1.227 1_556 S
N251 Co237 2.140 . S
N251 C254 1.346 . S
N251 C255 1.345 . S
C252 C253 1.387 . S
C252 C256 1.402 . S
C253 C252 1.387 . S
C253 C254 1.374 . S
C253 H262 0.925 1_655 S
C254 N251 1.346 . S
C254 C253 1.374 . S
C254 H257 0.928 . S
C255 N251 1.345 . S
C255 C256 1.371 . S
C255 H258 0.931 1_554 S
C256 C252 1.402 . S
C256 C255 1.371 . S
C256 H263 0.930 1_554 S
H257 C254 0.928 . S
H258 C255 0.931 1_556 S
H259 C235 0.930 1_655 S
H260 C232 0.930 . S
H261 C241 0.930 . S
H262 C253 0.925 1_455 S
H263 C256 0.930 1_556 S
C264 C265 1.351 . S
C264 N267 1.368 . S
C264 H269 0.931 . S
C265 C264 1.351 . S
C265 N266 1.373 . S
C265 H293 0.930 . S
N266 C265 1.373 . S
N266 C268 1.340 . S
N267 C264 1.368 . S
N267 C268 1.321 . S
N267 Co270 2.135 1_545 S
C268 N266 1.340 . S
C268 N267 1.321 . S
C268 H292 0.930 1_545 S
H269 C264 0.931 . S
Co270 N267 2.135 1_565 S
Co270 N273 2.121 . S
Co270 O278 2.055 . S
Co270 O281 2.039 . S
Co270 N284 2.140 . S
C271 O272 1.227 . S
C271 O281 1.265 . S
O272 C271 1.227 . S
N273 Co270 2.121 . S
N273 C275 1.375 . S
N273 C276 1.313 . S
C274 C275 1.338 . S
C274 N277 1.377 . S
C274 H294 0.930 . S
C275 N273 1.375 . S
C275 C274 1.338 . S
C275 H279 0.931 . S
C276 N273 1.313 . S
C276 N277 1.344 . S
C276 H280 0.930 . S
N277 C274 1.377 . S
N277 C276 1.344 . S
O278 Co270 2.055 . S
O278 C282 1.253 1_565 S
H279 C275 0.931 . S
H280 C276 0.930 . S
O281 Co270 2.039 . S
O281 C271 1.265 . S
C282 O278 1.253 1_545 S
C282 O283 1.227 . S
O283 C282 1.227 . S
N284 Co270 2.140 . S
N284 C287 1.346 . S
N284 C288 1.345 . S
C285 C286 1.387 . S
C285 C289 1.402 . S
C286 C285 1.387 . S
C286 C287 1.374 . S
C286 H295 0.925 1_565 S
C287 N284 1.346 . S
C287 C286 1.374 . S
C287 H290 0.928 . S
C288 N284 1.345 . S
C288 C289 1.371 . S
C288 H291 0.931 . S
C289 C285 1.402 . S
C289 C288 1.371 . S
C289 H296 0.930 . S
H290 C287 0.928 . S
H291 C288 0.931 . S
H292 C268 0.930 1_565 S
H293 C265 0.930 . S
H294 C274 0.930 . S
H295 C286 0.925 1_545 S
H296 C289 0.930 . S
C297 C298 1.351 . S
C297 N300 1.368 . S
C297 H302 0.931 . S
C298 C297 1.351 . S
C298 N299 1.373 . S
C298 H326 0.930 . S
N299 C298 1.373 . S
N299 C301 1.340 . S
N300 C297 1.368 . S
N300 C301 1.321 . S
N300 Co303 2.135 . S
C301 N299 1.340 . S
C301 N300 1.321 . S
C301 H325 0.930 . S
H302 C297 0.931 . S
Co303 N300 2.135 . S
Co303 N306 2.121 . S
Co303 O311 2.055 . S
Co303 O314 2.039 . S
Co303 N317 2.140 . S
C304 O305 1.227 . S
C304 O314 1.265 . S
O305 C304 1.227 . S
N306 Co303 2.121 . S
N306 C308 1.375 . S
N306 C309 1.313 1_554 S
C307 C308 1.338 1_556 S
C307 N310 1.377 . S
C307 H327 0.930 . S
C308 N306 1.375 . S
C308 C307 1.338 1_554 S
C308 H312 0.931 . S
C309 N306 1.313 1_556 S
C309 N310 1.344 . S
C309 H313 0.930 . S
N310 C307 1.377 . S
N310 C309 1.344 . S
O311 Co303 2.055 . S
O311 C315 1.253 . S
H312 C308 0.931 . S
H313 C309 0.930 . S
O314 Co303 2.039 . S
O314 C304 1.265 . S
C315 O311 1.253 . S
C315 O316 1.227 1_554 S
O316 C315 1.227 1_556 S
N317 Co303 2.140 . S
N317 C320 1.346 . S
N317 C321 1.345 . S
C318 C319 1.387 . S
C318 C322 1.391 . S
C319 C318 1.387 . S
C319 C320 1.369 . S
C319 H328 0.929 . S
C320 N317 1.346 . S
C320 C319 1.369 . S
C320 H323 0.928 . S
C321 N317 1.345 . S
C321 C322 1.371 . S
C321 H324 0.931 1_554 S
C322 C318 1.391 . S
C322 C321 1.371 . S
C322 H329 0.930 1_554 S
H323 C320 0.928 . S
H324 C321 0.931 1_556 S
H325 C301 0.930 . S
H326 C298 0.930 . S
H327 C307 0.930 . S
H328 C319 0.929 . S
H329 C322 0.930 1_556 S
C330 C331 1.351 . S
C330 N333 1.368 . S
C330 H335 0.931 . S
C331 C330 1.351 . S
C331 N332 1.373 . S
C331 H359 0.930 . S
N332 C331 1.373 . S
N332 C334 1.340 . S
N333 C330 1.368 . S
N333 C334 1.321 . S
N333 Co336 2.135 . S
C334 N332 1.340 . S
C334 N333 1.321 . S
C334 H358 0.930 . S
H335 C330 0.931 . S
Co336 N333 2.135 . S
Co336 N339 2.121 . S
Co336 O344 2.055 . S
Co336 O347 2.039 . S
Co336 N350 2.140 . S
C337 O338 1.227 . S
C337 O347 1.265 . S
O338 C337 1.227 . S
N339 Co336 2.121 . S
N339 C341 1.375 . S
N339 C342 1.313 . S
C340 C341 1.338 . S
C340 N343 1.377 . S
C340 H360 0.930 . S
C341 N339 1.375 . S
C341 C340 1.338 . S
C341 H345 0.931 . S
C342 N339 1.313 . S
C342 N343 1.344 . S
C342 H346 0.930 . S
N343 C340 1.377 . S
N343 C342 1.344 . S
O344 Co336 2.055 . S
O344 C348 1.253 . S
H345 C341 0.931 . S
H346 C342 0.930 . S
O347 Co336 2.039 . S
O347 C337 1.265 . S
C348 O344 1.253 . S
C348 O349 1.227 . S
O349 C348 1.227 . S
N350 Co336 2.140 . S
N350 C353 1.346 . S
N350 C354 1.345 . S
C351 C352 1.387 . S
C351 C355 1.391 . S
C352 C351 1.387 . S
C352 C353 1.369 . S
C352 H361 0.929 . S
C353 N350 1.346 . S
C353 C352 1.369 . S
C353 H356 0.928 . S
C354 N350 1.345 . S
C354 C355 1.371 . S
C354 H357 0.931 . S
C355 C351 1.391 . S
C355 C354 1.371 . S
C355 H362 0.930 . S
H356 C353 0.928 . S
H357 C354 0.931 . S
H358 C334 0.930 . S
H359 C331 0.930 . S
H360 C340 0.930 . S
H361 C352 0.929 . S
H362 C355 0.930 . S
C363 C364 1.351 . S
C363 N366 1.368 . S
C363 H368 0.931 . S
C364 C363 1.351 . S
C364 N365 1.373 . S
C364 H392 0.930 . S
N365 C364 1.373 . S
N365 C367 1.340 . S
N366 C363 1.368 . S
N366 C367 1.321 . S
N366 Co369 2.135 1_455 S
C367 N365 1.340 . S
C367 N366 1.321 . S
C367 H391 0.930 1_455 S
H368 C363 0.931 . S
Co369 N366 2.135 1_655 S
Co369 N372 2.121 . S
Co369 O377 2.055 . S
Co369 O380 2.039 . S
Co369 N383 2.140 . S
C370 O371 1.227 . S
C370 O380 1.265 . S
O371 C370 1.227 . S
N372 Co369 2.121 . S
N372 C374 1.375 . S
N372 C375 1.313 1_554 S
C373 C374 1.338 1_556 S
C373 N376 1.377 . S
C373 H393 0.930 . S
C374 N372 1.375 . S
C374 C373 1.338 1_554 S
C374 H378 0.931 . S
C375 N372 1.313 1_556 S
C375 N376 1.344 . S
C375 H379 0.930 . S
N376 C373 1.377 . S
N376 C375 1.344 . S
O377 Co369 2.055 . S
O377 C381 1.253 1_655 S
H378 C374 0.931 . S
H379 C375 0.930 . S
O380 Co369 2.039 . S
O380 C370 1.265 . S
C381 O377 1.253 1_455 S
C381 O382 1.227 1_554 S
O382 C381 1.227 1_556 S
N383 Co369 2.140 . S
N383 C386 1.346 . S
N383 C387 1.345 . S
C384 C385 1.387 . S
C384 C388 1.402 . S
C385 C384 1.387 . S
C385 C386 1.374 . S
C385 H394 0.925 1_655 S
C386 N383 1.346 . S
C386 C385 1.374 . S
C386 H389 0.928 . S
C387 N383 1.345 . S
C387 C388 1.371 . S
C387 H390 0.931 1_554 S
C388 C384 1.402 . S
C388 C387 1.371 . S
C388 H395 0.930 1_554 S
H389 C386 0.928 . S
H390 C387 0.931 1_556 S
H391 C367 0.930 1_655 S
H392 C364 0.930 . S
H393 C373 0.930 . S
H394 C385 0.925 1_455 S
H395 C388 0.930 1_556 S
C396 C397 1.351 . S
C396 N399 1.368 . S
C396 H401 0.931 . S
C397 C396 1.351 . S
C397 N398 1.373 . S
C397 H425 0.930 . S
N398 C397 1.373 . S
N398 C400 1.340 . S
N399 C396 1.368 . S
N399 C400 1.321 . S
N399 Co402 2.135 1_565 S
C400 N398 1.340 . S
C400 N399 1.321 . S
C400 H424 0.930 1_565 S
H401 C396 0.931 . S
Co402 N399 2.135 1_545 S
Co402 N405 2.121 . S
Co402 O410 2.055 . S
Co402 O413 2.039 . S
Co402 N416 2.140 . S
C403 O404 1.227 . S
C403 O413 1.265 . S
O404 C403 1.227 . S
N405 Co402 2.121 . S
N405 C407 1.375 . S
N405 C408 1.313 . S
C406 C407 1.338 . S
C406 N409 1.377 . S
C406 H426 0.930 . S
C407 N405 1.375 . S
C407 C406 1.338 . S
C407 H411 0.931 . S
C408 N405 1.313 . S
C408 N409 1.344 . S
C408 H412 0.930 . S
N409 C406 1.377 . S
N409 C408 1.344 . S
O410 Co402 2.055 . S
O410 C414 1.253 1_545 S
H411 C407 0.931 . S
H412 C408 0.930 . S
O413 Co402 2.039 . S
O413 C403 1.265 . S
C414 O410 1.253 1_565 S
C414 O415 1.227 . S
O415 C414 1.227 . S
N416 Co402 2.140 . S
N416 C419 1.346 . S
N416 C420 1.345 . S
C417 C418 1.387 . S
C417 C421 1.402 . S
C418 C417 1.387 . S
C418 C419 1.374 . S
C418 H427 0.925 1_545 S
C419 N416 1.346 . S
C419 C418 1.374 . S
C419 H422 0.928 . S
C420 N416 1.345 . S
C420 C421 1.371 . S
C420 H423 0.931 . S
C421 C417 1.402 . S
C421 C420 1.371 . S
C421 H428 0.930 . S
H422 C419 0.928 . S
H423 C420 0.931 . S
H424 C400 0.930 1_545 S
H425 C397 0.930 . S
H426 C406 0.930 . S
H427 C418 0.925 1_565 S
H428 C421 0.930 . S
C429 C430 1.351 . S
C429 N432 1.368 . S
C429 H434 0.931 . S
C430 C429 1.351 . S
C430 N431 1.373 . S
C430 H458 0.930 . S
N431 C430 1.373 . S
N431 C433 1.340 . S
N432 C429 1.368 . S
N432 C433 1.321 . S
N432 Co435 2.135 . S
C433 N431 1.340 . S
C433 N432 1.321 . S
C433 H457 0.930 . S
H434 C429 0.931 . S
Co435 N432 2.135 . S
Co435 N438 2.121 . S
Co435 O443 2.055 . S
Co435 O446 2.039 . S
Co435 N449 2.140 . S
C436 O437 1.227 . S
C436 O446 1.265 . S
O437 C436 1.227 . S
N438 Co435 2.121 . S
N438 C440 1.375 . S
N438 C441 1.313 1_556 S
C439 C440 1.338 1_554 S
C439 N442 1.377 . S
C439 H459 0.930 . S
C440 N438 1.375 . S
C440 C439 1.338 1_556 S
C440 H444 0.931 . S
C441 N438 1.313 1_554 S
C441 N442 1.344 . S
C441 H445 0.930 . S
N442 C439 1.377 . S
N442 C441 1.344 . S
O443 Co435 2.055 . S
O443 C447 1.253 . S
H444 C440 0.931 . S
H445 C441 0.930 . S
O446 Co435 2.039 . S
O446 C436 1.265 . S
C447 O443 1.253 . S
C447 O448 1.227 1_556 S
O448 C447 1.227 1_554 S
N449 Co435 2.140 . S
N449 C452 1.346 . S
N449 C453 1.345 . S
C450 C451 1.387 . S
C450 C454 1.391 . S
C451 C450 1.387 . S
C451 C452 1.369 . S
C451 H460 0.929 . S
C452 N449 1.346 . S
C452 C451 1.369 . S
C452 H455 0.928 . S
C453 N449 1.345 . S
C453 C454 1.371 . S
C453 H456 0.931 1_556 S
C454 C450 1.391 . S
C454 C453 1.371 . S
C454 H461 0.930 1_556 S
H455 C452 0.928 . S
H456 C453 0.931 1_554 S
H457 C433 0.930 . S
H458 C430 0.930 . S
H459 C439 0.930 . S
H460 C451 0.929 . S
H461 C454 0.930 1_554 S
C462 C463 1.351 . S
C462 N465 1.368 . S
C462 H467 0.931 . S
C463 C462 1.351 . S
C463 N464 1.373 . S
C463 H491 0.930 . S
N464 C463 1.373 . S
N464 C466 1.340 . S
N465 C462 1.368 . S
N465 C466 1.321 . S
N465 Co468 2.135 . S
C466 N464 1.340 . S
C466 N465 1.321 . S
C466 H490 0.930 . S
H467 C462 0.931 . S
Co468 N465 2.135 . S
Co468 N471 2.121 . S
Co468 O476 2.055 . S
Co468 O479 2.039 . S
Co468 N482 2.140 . S
C469 O470 1.227 . S
C469 O479 1.265 . S
O470 C469 1.227 . S
N471 Co468 2.121 . S
N471 C473 1.375 . S
N471 C474 1.313 . S
C472 C473 1.338 . S
C472 N475 1.377 . S
C472 H492 0.930 . S
C473 N471 1.375 . S
C473 C472 1.338 . S
C473 H477 0.931 . S
C474 N471 1.313 . S
C474 N475 1.344 . S
C474 H478 0.930 . S
N475 C472 1.377 . S
N475 C474 1.344 . S
O476 Co468 2.055 . S
O476 C480 1.253 . S
H477 C473 0.931 . S
H478 C474 0.930 . S
O479 Co468 2.039 . S
O479 C469 1.265 . S
C480 O476 1.253 . S
C480 O481 1.227 . S
O481 C480 1.227 . S
N482 Co468 2.140 . S
N482 C485 1.346 . S
N482 C486 1.345 . S
C483 C484 1.387 . S
C483 C487 1.391 . S
C484 C483 1.387 . S
C484 C485 1.369 . S
C484 H493 0.929 . S
C485 N482 1.346 . S
C485 C484 1.369 . S
C485 H488 0.928 . S
C486 N482 1.345 . S
C486 C487 1.371 . S
C486 H489 0.931 . S
C487 C483 1.391 . S
C487 C486 1.371 . S
C487 H494 0.930 . S
H488 C485 0.928 . S
H489 C486 0.931 . S
H490 C466 0.930 . S
H491 C463 0.930 . S
H492 C472 0.930 . S
H493 C484 0.929 . S
H494 C487 0.930 . S
C495 C496 1.351 . S
C495 N498 1.368 . S
C495 H500 0.931 . S
C496 C495 1.351 . S
C496 N497 1.373 . S
C496 H524 0.930 . S
N497 C496 1.373 . S
N497 C499 1.340 . S
N498 C495 1.368 . S
N498 C499 1.321 . S
N498 Co501 2.135 1_655 S
C499 N497 1.340 . S
C499 N498 1.321 . S
C499 H523 0.930 1_655 S
H500 C495 0.931 . S
Co501 N498 2.135 1_455 S
Co501 N504 2.121 . S
Co501 O509 2.055 . S
Co501 O512 2.039 . S
Co501 N515 2.140 . S
C502 O503 1.227 . S
C502 O512 1.265 . S
O503 C502 1.227 . S
N504 Co501 2.121 . S
N504 C506 1.375 . S
N504 C507 1.313 1_556 S
C505 C506 1.338 1_554 S
C505 N508 1.377 . S
C505 H525 0.930 . S
C506 N504 1.375 . S
C506 C505 1.338 1_556 S
C506 H510 0.931 . S
C507 N504 1.313 1_554 S
C507 N508 1.344 . S
C507 H511 0.930 . S
N508 C505 1.377 . S
N508 C507 1.344 . S
O509 Co501 2.055 . S
O509 C513 1.253 1_455 S
H510 C506 0.931 . S
H511 C507 0.930 . S
O512 Co501 2.039 . S
O512 C502 1.265 . S
C513 O509 1.253 1_655 S
C513 O514 1.227 1_556 S
O514 C513 1.227 1_554 S
N515 Co501 2.140 . S
N515 C518 1.346 . S
N515 C519 1.345 . S
C516 C517 1.387 . S
C516 C520 1.402 . S
C517 C516 1.387 . S
C517 C518 1.374 . S
C517 H526 0.925 1_455 S
C518 N515 1.346 . S
C518 C517 1.374 . S
C518 H521 0.928 . S
C519 N515 1.345 . S
C519 C520 1.371 . S
C519 H522 0.931 1_556 S
C520 C516 1.402 . S
C520 C519 1.371 . S
C520 H527 0.930 1_556 S
H521 C518 0.928 . S
H522 C519 0.931 1_554 S
H523 C499 0.930 1_455 S
H524 C496 0.930 . S
H525 C505 0.930 . S
H526 C517 0.925 1_655 S
H527 C520 0.930 1_554 S
C528 C529 1.391 1_565 S
C528 C530 1.394 . S
C528 H544 0.931 . S
C529 C528 1.391 1_545 S
C529 C533 1.376 . S
C530 C528 1.394 . S
C530 C531 1.369 . S
C530 C534 1.531 . S
C531 C530 1.369 . S
C531 C532 1.410 1_565 S
C531 C539 1.503 1_655 S
C532 C531 1.410 1_545 S
C532 C533 1.392 . S
C532 C535 1.511 . S
C533 C529 1.376 . S
C533 C532 1.392 . S
C533 H545 0.929 . S
C534 C530 1.531 . S
C534 H546 0.960 . S
C534 H547 0.962 . S
C534 H548 0.960 . S
C535 C532 1.511 . S
C535 H549 0.961 . S
C535 H550 0.961 1_655 S
C535 H551 0.961 1_545 S
C536 C537 1.370 1_545 S
C536 C538 1.363 . S
C536 H552 0.931 . S
C537 C536 1.370 1_565 S
C537 C541 1.408 . S
C538 C536 1.363 . S
C538 C539 1.370 1_545 S
C538 C542 1.524 . S
C539 C531 1.503 1_455 S
C539 C538 1.370 1_565 S
C539 C540 1.403 . S
C540 C539 1.403 . S
C540 C541 1.404 . S
C540 C543 1.539 . S
C541 C537 1.408 . S
C541 C540 1.404 . S
C541 H553 0.930 . S
C542 C538 1.524 . S
C542 H554 0.956 . S
C542 H555 0.961 . S
C542 H556 0.961 . S
C543 C540 1.539 . S
C543 H557 0.958 . S
C543 H558 0.961 . S
C543 H559 0.960 1_455 S
H544 C528 0.931 . S
H545 C533 0.929 . S
H546 C534 0.960 . S
H547 C534 0.962 . S
H548 C534 0.960 . S
H549 C535 0.961 . S
H550 C535 0.961 1_455 S
H551 C535 0.961 1_565 S
H552 C536 0.931 . S
H553 C541 0.930 . S
H554 C542 0.956 . S
H555 C542 0.961 . S
H556 C542 0.961 . S
H557 C543 0.958 . S
H558 C543 0.961 . S
H559 C543 0.960 1_655 S
C560 C561 1.391 1_556 S
C560 C562 1.394 . S
C560 H576 0.931 . S
C561 C560 1.391 1_554 S
C561 C565 1.376 . S
C562 C560 1.394 . S
C562 C563 1.369 1_556 S
C562 C566 1.531 . S
C563 C562 1.369 1_554 S
C563 C564 1.410 . S
C563 C571 1.503 1_545 S
C564 C563 1.410 . S
C564 C565 1.392 . S
C564 C567 1.511 . S
C565 C561 1.376 . S
C565 C564 1.392 . S
C565 H577 0.929 . S
C566 C562 1.531 . S
C566 H578 0.960 1_545 S
C566 H579 0.962 . S
C566 H580 0.960 . S
C567 C564 1.511 . S
C567 H581 0.961 . S
C567 H582 0.961 . S
C567 H583 0.961 . S
C568 C569 1.370 . S
C568 C570 1.363 . S
C568 H584 0.931 . S
C569 C568 1.370 . S
C569 C573 1.408 1_556 S
C570 C568 1.363 . S
C570 C571 1.370 1_556 S
C570 C574 1.524 . S
C571 C563 1.503 1_565 S
C571 C570 1.370 1_554 S
C571 C572 1.403 . S
C572 C571 1.403 . S
C572 C573 1.404 . S
C572 C575 1.539 . S
C573 C569 1.408 1_554 S
C573 C572 1.404 . S
C573 H585 0.930 . S
C574 C570 1.524 . S
C574 H586 0.956 1_565 S
C574 H587 0.961 1_565 S
C574 H588 0.961 . S
C575 C572 1.539 . S
C575 H589 0.958 . S
C575 H590 0.961 . S
C575 H591 0.960 . S
H576 C560 0.931 . S
H577 C565 0.929 . S
H578 C566 0.960 1_565 S
H579 C566 0.962 . S
H580 C566 0.960 . S
H581 C567 0.961 . S
H582 C567 0.961 . S
H583 C567 0.961 . S
H584 C568 0.931 . S
H585 C573 0.930 . S
H586 C574 0.956 1_545 S
H587 C574 0.961 1_545 S
H588 C574 0.961 . S
H589 C575 0.958 . S
H590 C575 0.961 . S
H591 C575 0.960 . S
C592 C593 1.391 . S
C592 C594 1.394 . S
C592 H608 0.931 . S
C593 C592 1.391 . S
C593 C597 1.376 . S
C594 C592 1.394 . S
C594 C595 1.369 . S
C594 C598 1.531 . S
C595 C594 1.369 . S
C595 C596 1.410 . S
C595 C603 1.503 . S
C596 C595 1.410 . S
C596 C597 1.392 . S
C596 C599 1.511 . S
C597 C593 1.376 . S
C597 C596 1.392 . S
C597 H609 0.929 . S
C598 C594 1.531 . S
C598 H610 0.960 . S
C598 H611 0.962 . S
C598 H612 0.960 . S
C599 C596 1.511 . S
C599 H613 0.961 . S
C599 H614 0.961 . S
C599 H615 0.961 . S
C600 C601 1.370 . S
C600 C602 1.363 . S
C600 H616 0.931 . S
C601 C600 1.370 . S
C601 C605 1.408 . S
C602 C600 1.363 . S
C602 C603 1.370 . S
C602 C606 1.524 . S
C603 C595 1.503 . S
C603 C602 1.370 . S
C603 C604 1.403 . S
C604 C603 1.403 . S
C604 C605 1.404 . S
C604 C607 1.539 . S
C605 C601 1.408 . S
C605 C604 1.404 . S
C605 H617 0.930 . S
C606 C602 1.524 . S
C606 H618 0.956 . S
C606 H619 0.961 . S
C606 H620 0.961 . S
C607 C604 1.539 . S
C607 H621 0.958 . S
C607 H622 0.961 . S
C607 H623 0.960 . S
H608 C592 0.931 . S
H609 C597 0.929 . S
H610 C598 0.960 . S
H611 C598 0.962 . S
H612 C598 0.960 . S
H613 C599 0.961 . S
H614 C599 0.961 . S
H615 C599 0.961 . S
H616 C600 0.931 . S
H617 C605 0.930 . S
H618 C606 0.956 . S
H619 C606 0.961 . S
H620 C606 0.961 . S
H621 C607 0.958 . S
H622 C607 0.961 . S
H623 C607 0.960 . S
C624 C625 1.391 1_655 S
C624 C626 1.394 . S
C624 H640 0.931 . S
C625 C624 1.391 1_455 S
C625 C629 1.376 1_556 S
C626 C624 1.394 . S
C626 C627 1.369 1_655 S
C626 C630 1.531 . S
C627 C626 1.369 1_455 S
C627 C628 1.410 1_556 S
C627 C635 1.503 . S
C628 C627 1.410 1_554 S
C628 C629 1.392 . S
C628 C631 1.511 . S
C629 C625 1.376 1_554 S
C629 C628 1.392 . S
C629 H641 0.929 . S
C630 C626 1.531 . S
C630 H642 0.960 . S
C630 H643 0.962 . S
C630 H644 0.960 . S
C631 C628 1.511 . S
C631 H645 0.961 . S
C631 H646 0.961 . S
C631 H647 0.961 . S
C632 C633 1.370 . S
C632 C634 1.363 . S
C632 H648 0.931 . S
C633 C632 1.370 . S
C633 C637 1.408 1_654 S
C634 C632 1.363 . S
C634 C635 1.370 1_654 S
C634 C638 1.524 . S
C635 C627 1.503 . S
C635 C634 1.370 1_456 S
C635 C636 1.403 . S
C636 C635 1.403 . S
C636 C637 1.404 . S
C636 C639 1.539 . S
C637 C633 1.408 1_456 S
C637 C636 1.404 . S
C637 H649 0.930 . S
C638 C634 1.524 . S
C638 H650 0.956 . S
C638 H651 0.961 . S
C638 H652 0.961 . S
C639 C636 1.539 . S
C639 H653 0.958 . S
C639 H654 0.961 . S
C639 H655 0.960 . S
H640 C624 0.931 . S
H641 C629 0.929 . S
H642 C630 0.960 . S
H643 C630 0.962 . S
H644 C630 0.960 . S
H645 C631 0.961 . S
H646 C631 0.961 . S
H647 C631 0.961 . S
H648 C632 0.931 . S
H649 C637 0.930 . S
H650 C638 0.956 . S
H651 C638 0.961 . S
H652 C638 0.961 . S
H653 C639 0.958 . S
H654 C639 0.961 . S
H655 C639 0.960 . S
C656 C657 1.391 . S
C656 C658 1.394 . S
C656 H672 0.931 . S
C657 C656 1.391 . S
C657 C661 1.376 1_545 S
C658 C656 1.394 . S
C658 C659 1.369 1_545 S
C658 C662 1.531 . S
C659 C658 1.369 1_565 S
C659 C660 1.410 . S
C659 C667 1.503 . S
C660 C659 1.410 . S
C660 C661 1.392 . S
C660 C663 1.511 . S
C661 C657 1.376 1_565 S
C661 C660 1.392 . S
C661 H673 0.929 . S
C662 C658 1.531 . S
C662 H674 0.960 . S
C662 H675 0.962 . S
C662 H676 0.960 . S
C663 C660 1.511 . S
C663 H677 0.961 . S
C663 H678 0.961 . S
C663 H679 0.961 . S
C664 C665 1.370 1_545 S
C664 C666 1.363 . S
C664 H680 0.931 . S
C665 C664 1.370 1_565 S
C665 C669 1.408 . S
C666 C664 1.363 . S
C666 C667 1.370 1_545 S
C666 C670 1.524 . S
C667 C659 1.503 . S
C667 C666 1.370 1_565 S
C667 C668 1.403 . S
C668 C667 1.403 . S
C668 C669 1.404 . S
C668 C671 1.539 . S
C669 C665 1.408 . S
C669 C668 1.404 . S
C669 H681 0.930 . S
C670 C666 1.524 . S
C670 H682 0.956 . S
C670 H683 0.961 . S
C670 H684 0.961 . S
C671 C668 1.539 . S
C671 H685 0.958 . S
C671 H686 0.961 . S
C671 H687 0.960 . S
H672 C656 0.931 . S
H673 C661 0.929 . S
H674 C662 0.960 . S
H675 C662 0.962 . S
H676 C662 0.960 . S
H677 C663 0.961 . S
H678 C663 0.961 . S
H679 C663 0.961 . S
H680 C664 0.931 . S
H681 C669 0.930 . S
H682 C670 0.956 . S
H683 C670 0.961 . S
H684 C670 0.961 . S
H685 C671 0.958 . S
H686 C671 0.961 . S
H687 C671 0.960 . S
C688 C689 1.391 1_554 S
C688 C690 1.394 . S
C688 H704 0.931 . S
C689 C688 1.391 1_556 S
C689 C693 1.376 . S
C690 C688 1.394 . S
C690 C691 1.369 . S
C690 C694 1.531 . S
C691 C690 1.369 . S
C691 C692 1.410 1_554 S
C691 C699 1.503 . S
C692 C691 1.410 1_556 S
C692 C693 1.392 . S
C692 C695 1.511 . S
C693 C689 1.376 . S
C693 C692 1.392 . S
C693 H705 0.929 . S
C694 C690 1.531 . S
C694 H706 0.960 . S
C694 H707 0.962 1_554 S
C694 H708 0.960 . S
C695 C692 1.511 . S
C695 H709 0.961 . S
C695 H710 0.961 . S
C695 H711 0.961 1_556 S
C696 C697 1.370 1_556 S
C696 C698 1.363 . S
C696 H712 0.931 . S
C697 C696 1.370 1_554 S
C697 C701 1.408 . S
C698 C696 1.363 . S
C698 C699 1.370 1_556 S
C698 C702 1.524 . S
C699 C691 1.503 . S
C699 C698 1.370 1_554 S
C699 C700 1.403 . S
C700 C699 1.403 . S
C700 C701 1.404 . S
C700 C703 1.539 . S
C701 C697 1.408 . S
C701 C700 1.404 . S
C701 H713 0.930 . S
C702 C698 1.524 . S
C702 H714 0.956 . S
C702 H715 0.961 . S
C702 H716 0.961 . S
C703 C700 1.539 . S
C703 H717 0.958 . S
C703 H718 0.961 . S
C703 H719 0.960 . S
H704 C688 0.931 . S
H705 C693 0.929 . S
H706 C694 0.960 . S
H707 C694 0.962 1_556 S
H708 C694 0.960 . S
H709 C695 0.961 . S
H710 C695 0.961 . S
H711 C695 0.961 1_554 S
H712 C696 0.931 . S
H713 C701 0.930 . S
H714 C702 0.956 . S
H715 C702 0.961 . S
H716 C702 0.961 . S
H717 C703 0.958 . S
H718 C703 0.961 . S
H719 C703 0.960 . S
C720 C721 1.391 . S
C720 C722 1.394 . S
C720 H736 0.931 . S
C721 C720 1.391 . S
C721 C725 1.376 . S
C722 C720 1.394 . S
C722 C723 1.369 . S
C722 C726 1.531 . S
C723 C722 1.369 . S
C723 C724 1.410 . S
C723 C731 1.503 1_655 S
C724 C723 1.410 . S
C724 C725 1.392 . S
C724 C727 1.511 . S
C725 C721 1.376 . S
C725 C724 1.392 . S
C725 H737 0.929 . S
C726 C722 1.531 . S
C726 H738 0.944 1_655 S
C726 H739 0.962 . S
C726 H740 0.960 . S
C727 C724 1.511 . S
C727 H741 0.961 . S
C727 H742 0.961 1_655 S
C727 H743 0.961 . S
C728 C729 1.370 . S
C728 C730 1.363 . S
C728 H744 0.931 . S
C729 C728 1.370 . S
C729 C733 1.408 . S
C730 C728 1.363 . S
C730 C731 1.370 . S
C730 C734 1.524 . S
C731 C723 1.503 1_455 S
C731 C730 1.370 . S
C731 C732 1.403 . S
C732 C731 1.403 . S
C732 C733 1.404 . S
C732 C735 1.539 . S
C733 C729 1.408 . S
C733 C732 1.404 . S
C733 H745 0.930 . S
C734 C730 1.524 . S
C734 H746 0.956 1_455 S
C734 H747 0.961 1_455 S
C734 H748 0.961 . S
C735 C732 1.539 . S
C735 H749 0.958 . S
C735 H750 0.961 . S
C735 H751 0.960 . S
H736 C720 0.931 . S
H737 C725 0.929 . S
H738 C726 0.944 1_455 S
H739 C726 0.962 . S
H740 C726 0.960 . S
H741 C727 0.961 . S
H742 C727 0.961 1_455 S
H743 C727 0.961 . S
H744 C728 0.931 . S
H745 C733 0.930 . S
H746 C734 0.956 1_655 S
H747 C734 0.961 1_655 S
H748 C734 0.961 . S
H749 C735 0.958 . S
H750 C735 0.961 . S
H751 C735 0.960 . S
C752 C753 1.391 1_654 S
C752 C754 1.394 . S
C752 H768 0.931 . S
C753 C752 1.391 1_456 S
C753 C757 1.376 . S
C754 C752 1.394 . S
C754 C755 1.369 1_655 S
C754 C758 1.531 . S
C755 C754 1.369 1_455 S
C755 C756 1.410 . S
C755 C763 1.503 1_465 S
C756 C755 1.410 . S
C756 C757 1.392 1_554 S
C756 C759 1.511 . S
C757 C753 1.376 . S
C757 C756 1.392 1_556 S
C757 H769 0.929 . S
C758 C754 1.531 . S
C758 H770 0.960 . S
C758 H771 0.962 1_554 S
C758 H772 0.960 . S
C759 C756 1.511 . S
C759 H773 0.961 1_554 S
C759 H774 0.961 1_564 S
C759 H775 0.961 . S
C760 C761 1.370 1_556 S
C760 C762 1.363 . S
C760 H776 0.931 . S
C761 C760 1.370 1_554 S
C761 C765 1.408 . S
C762 C760 1.363 . S
C762 C763 1.370 1_556 S
C762 C766 1.524 . S
C763 C755 1.503 1_645 S
C763 C762 1.370 1_554 S
C763 C764 1.403 . S
C764 C763 1.403 . S
C764 C765 1.404 . S
C764 C767 1.539 1_655 S
C765 C761 1.408 . S
C765 C764 1.404 . S
C765 H777 0.930 . S
C766 C762 1.524 . S
C766 H778 0.956 . S
C766 H779 0.961 1_655 S
C766 H780 0.961 . S
C767 C764 1.539 1_455 S
C767 H781 0.958 1_455 S
C767 H782 0.961 . S
C767 H783 0.960 1_545 S
H768 C752 0.931 . S
H769 C757 0.929 . S
H770 C758 0.960 . S
H771 C758 0.962 1_556 S
H772 C758 0.960 . S
H773 C759 0.961 1_556 S
H774 C759 0.961 1_546 S
H775 C759 0.961 . S
H776 C760 0.931 . S
H777 C765 0.930 . S
H778 C766 0.956 . S
H779 C766 0.961 1_455 S
H780 C766 0.961 . S
H781 C767 0.958 1_655 S
H782 C767 0.961 . S
H783 C767 0.960 1_565 S
C784 C785 1.391 . S
C784 C786 1.394 . S
C784 H800 0.931 . S
C785 C784 1.391 . S
C785 C789 1.376 . S
C786 C784 1.394 . S
C786 C787 1.369 . S
C786 C790 1.531 . S
C787 C786 1.369 . S
C787 C788 1.410 . S
C787 C795 1.503 . S
C788 C787 1.410 . S
C788 C789 1.392 . S
C788 C791 1.511 . S
C789 C785 1.376 . S
C789 C788 1.392 . S
C789 H801 0.929 . S
C790 C786 1.531 . S
C790 H802 0.960 . S
C790 H803 0.962 . S
C790 H804 0.960 . S
C791 C788 1.511 . S
C791 H805 0.961 . S
C791 H806 0.961 . S
C791 H807 0.961 . S
C792 C793 1.370 . S
C792 C794 1.363 . S
C792 H808 0.931 . S
C793 C792 1.370 . S
C793 C797 1.408 . S
C794 C792 1.363 . S
C794 C795 1.370 . S
C794 C798 1.524 . S
C795 C787 1.503 . S
C795 C794 1.370 . S
C795 C796 1.403 . S
C796 C795 1.403 . S
C796 C797 1.404 . S
C796 C799 1.539 . S
C797 C793 1.408 . S
C797 C796 1.404 . S
C797 H809 0.930 . S
C798 C794 1.524 . S
C798 H810 0.956 . S
C798 H811 0.961 . S
C798 H812 0.961 . S
C799 C796 1.539 . S
C799 H813 0.958 . S
C799 H814 0.961 . S
C799 H815 0.960 . S
H800 C784 0.931 . S
H801 C789 0.929 . S
H802 C790 0.960 . S
H803 C790 0.962 . S
H804 C790 0.960 . S
H805 C791 0.961 . S
H806 C791 0.961 . S
H807 C791 0.961 . S
H808 C792 0.931 . S
H809 C797 0.930 . S
H810 C798 0.956 . S
H811 C798 0.961 . S
H812 C798 0.961 . S
H813 C799 0.958 . S
H814 C799 0.961 . S
H815 C799 0.960 . S
C816 C817 1.391 . S
C816 C818 1.394 . S
C816 H832 0.931 . S
C817 C816 1.391 . S
C817 C821 1.376 . S
C818 C816 1.394 . S
C818 C819 1.369 . S
C818 C822 1.531 . S
C819 C818 1.369 . S
C819 C820 1.410 . S
C819 C827 1.503 . S
C820 C819 1.410 . S
C820 C821 1.392 . S
C820 C823 1.511 . S
C821 C817 1.376 . S
C821 C820 1.392 . S
C821 H833 0.929 . S
C822 C818 1.531 . S
C822 H834 0.960 . S
C822 H835 0.962 . S
C822 H836 0.960 . S
C823 C820 1.511 . S
C823 H837 0.961 . S
C823 H838 0.961 . S
C823 H839 0.961 . S
C824 C825 1.370 . S
C824 C826 1.363 . S
C824 H840 0.931 . S
C825 C824 1.370 . S
C825 C829 1.408 . S
C826 C824 1.363 . S
C826 C827 1.370 . S
C826 C830 1.524 . S
C827 C819 1.503 . S
C827 C826 1.370 . S
C827 C828 1.403 . S
C828 C827 1.403 . S
C828 C829 1.404 . S
C828 C831 1.539 . S
C829 C825 1.408 . S
C829 C828 1.404 . S
C829 H841 0.930 . S
C830 C826 1.524 . S
C830 H842 0.956 . S
C830 H843 0.961 . S
C830 H844 0.961 . S
C831 C828 1.539 . S
C831 H845 0.958 . S
C831 H846 0.961 . S
C831 H847 0.960 . S
H832 C816 0.931 . S
H833 C821 0.929 . S
H834 C822 0.960 . S
H835 C822 0.962 . S
H836 C822 0.960 . S
H837 C823 0.961 . S
H838 C823 0.961 . S
H839 C823 0.961 . S
H840 C824 0.931 . S
H841 C829 0.930 . S
H842 C830 0.956 . S
H843 C830 0.961 . S
H844 C830 0.961 . S
H845 C831 0.958 . S
H846 C831 0.961 . S
H847 C831 0.960 . S
C848 C849 1.391 . S
C848 C850 1.394 . S
C848 H864 0.931 . S
C849 C848 1.391 . S
C849 C853 1.376 . S
C850 C848 1.394 . S
C850 C851 1.369 . S
C850 C854 1.531 . S
C851 C850 1.369 . S
C851 C852 1.410 . S
C851 C859 1.503 . S
C852 C851 1.410 . S
C852 C853 1.392 . S
C852 C855 1.511 . S
C853 C849 1.376 . S
C853 C852 1.392 . S
C853 H865 0.929 . S
C854 C850 1.531 . S
C854 H866 0.960 . S
C854 H867 0.962 . S
C854 H868 0.960 . S
C855 C852 1.511 . S
C855 H869 0.961 . S
C855 H870 0.961 . S
C855 H871 0.961 . S
C856 C857 1.370 . S
C856 C858 1.363 . S
C856 H872 0.931 . S
C857 C856 1.370 . S
C857 C861 1.408 . S
C858 C856 1.363 . S
C858 C859 1.370 . S
C858 C862 1.524 . S
C859 C851 1.503 . S
C859 C858 1.370 . S
C859 C860 1.403 . S
C860 C859 1.403 . S
C860 C861 1.404 . S
C860 C863 1.539 . S
C861 C857 1.408 . S
C861 C860 1.404 . S
C861 H873 0.930 . S
C862 C858 1.524 . S
C862 H874 0.956 . S
C862 H875 0.961 . S
C862 H876 0.961 . S
C863 C860 1.539 . S
C863 H877 0.958 . S
C863 H878 0.961 . S
C863 H879 0.960 . S
H864 C848 0.931 . S
H865 C853 0.929 . S
H866 C854 0.960 . S
H867 C854 0.962 . S
H868 C854 0.960 . S
H869 C855 0.961 . S
H870 C855 0.961 . S
H871 C855 0.961 . S
H872 C856 0.931 . S
H873 C861 0.930 . S
H874 C862 0.956 . S
H875 C862 0.961 . S
H876 C862 0.961 . S
H877 C863 0.958 . S
H878 C863 0.961 . S
H879 C863 0.960 . S
C880 C881 1.391 . S
C880 C882 1.394 . S
C880 H896 0.931 . S
C881 C880 1.391 . S
C881 C885 1.376 . S
C882 C880 1.394 . S
C882 C883 1.369 . S
C882 C886 1.531 . S
C883 C882 1.369 . S
C883 C884 1.410 . S
C883 C891 1.503 . S
C884 C883 1.410 . S
C884 C885 1.392 . S
C884 C887 1.511 . S
C885 C881 1.376 . S
C885 C884 1.392 . S
C885 H897 0.929 . S
C886 C882 1.531 . S
C886 H898 0.960 . S
C886 H899 0.962 . S
C886 H900 0.960 . S
C887 C884 1.511 . S
C887 H901 0.961 . S
C887 H902 0.961 . S
C887 H903 0.961 . S
C888 C889 1.370 . S
C888 C890 1.363 . S
C888 H904 0.931 . S
C889 C888 1.370 . S
C889 C893 1.408 . S
C890 C888 1.363 . S
C890 C891 1.370 . S
C890 C894 1.524 . S
C891 C883 1.503 . S
C891 C890 1.370 . S
C891 C892 1.403 . S
C892 C891 1.403 . S
C892 C893 1.404 . S
C892 C895 1.539 . S
C893 C889 1.408 . S
C893 C892 1.404 . S
C893 H905 0.930 . S
C894 C890 1.524 . S
C894 H906 0.956 . S
C894 H907 0.961 . S
C894 H908 0.961 . S
C895 C892 1.539 . S
C895 H909 0.958 . S
C895 H910 0.961 . S
C895 H911 0.960 . S
H896 C880 0.931 . S
H897 C885 0.929 . S
H898 C886 0.960 . S
H899 C886 0.962 . S
H900 C886 0.960 . S
H901 C887 0.961 . S
H902 C887 0.961 . S
H903 C887 0.961 . S
H904 C888 0.931 . S
H905 C893 0.930 . S
H906 C894 0.956 . S
H907 C894 0.961 . S
H908 C894 0.961 . S
H909 C895 0.958 . S
H910 C895 0.961 . S
H911 C895 0.960 . S
C912 C913 1.391 . S
C912 C914 1.394 . S
C912 H928 0.931 . S
C913 C912 1.391 . S
C913 C917 1.376 . S
C914 C912 1.394 . S
C914 C915 1.369 . S
C914 C918 1.531 . S
C915 C914 1.369 . S
C915 C916 1.410 . S
C915 C923 1.503 . S
C916 C915 1.410 . S
C916 C917 1.392 . S
C916 C919 1.511 . S
C917 C913 1.376 . S
C917 C916 1.392 . S
C917 H929 0.929 . S
C918 C914 1.531 . S
C918 H930 0.960 . S
C918 H931 0.962 . S
C918 H932 0.960 . S
C919 C916 1.511 . S
C919 H933 0.961 . S
C919 H934 0.961 . S
C919 H935 0.961 . S
C920 C921 1.370 . S
C920 C922 1.363 . S
C920 H936 0.931 . S
C921 C920 1.370 . S
C921 C925 1.408 . S
C922 C920 1.363 . S
C922 C923 1.370 . S
C922 C926 1.524 . S
C923 C915 1.503 . S
C923 C922 1.370 . S
C923 C924 1.403 . S
C924 C923 1.403 . S
C924 C925 1.404 . S
C924 C927 1.539 . S
C925 C921 1.408 . S
C925 C924 1.404 . S
C925 H937 0.930 . S
C926 C922 1.524 . S
C926 H938 0.956 . S
C926 H939 0.961 . S
C926 H940 0.961 . S
C927 C924 1.539 . S
C927 H941 0.958 . S
C927 H942 0.961 . S
C927 H943 0.960 . S
H928 C912 0.931 . S
H929 C917 0.929 . S
H930 C918 0.960 . S
H931 C918 0.962 . S
H932 C918 0.960 . S
H933 C919 0.961 . S
H934 C919 0.961 . S
H935 C919 0.961 . S
H936 C920 0.931 . S
H937 C925 0.930 . S
H938 C926 0.956 . S
H939 C926 0.961 . S
H940 C926 0.961 . S
H941 C927 0.958 . S
H942 C927 0.961 . S
H943 C927 0.960 . S
C944 C945 1.391 . S
C944 C946 1.394 . S
C944 H960 0.931 . S
C945 C944 1.391 . S
C945 C949 1.376 . S
C946 C944 1.394 . S
C946 C947 1.369 . S
C946 C950 1.531 . S
C947 C946 1.369 . S
C947 C948 1.410 . S
C947 C955 1.503 . S
C948 C947 1.410 . S
C948 C949 1.392 . S
C948 C951 1.511 . S
C949 C945 1.376 . S
C949 C948 1.392 . S
C949 H961 0.929 . S
C950 C946 1.531 . S
C950 H962 0.960 . S
C950 H963 0.962 . S
C950 H964 0.960 . S
C951 C948 1.511 . S
C951 H965 0.961 . S
C951 H966 0.961 . S
C951 H967 0.961 . S
C952 C953 1.370 . S
C952 C954 1.363 . S
C952 H968 0.931 . S
C953 C952 1.370 . S
C953 C957 1.408 . S
C954 C952 1.363 . S
C954 C955 1.370 . S
C954 C958 1.524 . S
C955 C947 1.503 . S
C955 C954 1.370 . S
C955 C956 1.403 . S
C956 C955 1.403 . S
C956 C957 1.404 . S
C956 C959 1.539 . S
C957 C953 1.408 . S
C957 C956 1.404 . S
C957 H969 0.930 . S
C958 C954 1.524 . S
C958 H970 0.956 . S
C958 H971 0.961 . S
C958 H972 0.961 . S
C959 C956 1.539 . S
C959 H973 0.958 . S
C959 H974 0.961 . S
C959 H975 0.960 . S
H960 C944 0.931 . S
H961 C949 0.929 . S
H962 C950 0.960 . S
H963 C950 0.962 . S
H964 C950 0.960 . S
H965 C951 0.961 . S
H966 C951 0.961 . S
H967 C951 0.961 . S
H968 C952 0.931 . S
H969 C957 0.930 . S
H970 C958 0.956 . S
H971 C958 0.961 . S
H972 C958 0.961 . S
H973 C959 0.958 . S
H974 C959 0.961 . S
H975 C959 0.960 . S
C976 C977 1.391 . S
C976 C978 1.394 . S
C976 H992 0.931 . S
C977 C976 1.391 . S
C977 C981 1.376 . S
C978 C976 1.394 . S
C978 C979 1.369 . S
C978 C982 1.531 . S
C979 C978 1.369 . S
C979 C980 1.410 . S
C979 C987 1.503 . S
C980 C979 1.410 . S
C980 C981 1.392 . S
C980 C983 1.511 . S
C981 C977 1.376 . S
C981 C980 1.392 . S
C981 H993 0.929 . S
C982 C978 1.531 . S
C982 H994 0.960 . S
C982 H995 0.962 . S
C982 H996 0.960 . S
C983 C980 1.511 . S
C983 H997 0.961 . S
C983 H998 0.961 . S
C983 H999 0.961 . S
C984 C985 1.370 . S
C984 C986 1.363 . S
C984 H1000 0.931 . S
C985 C984 1.370 . S
C985 C989 1.408 . S
C986 C984 1.363 . S
C986 C987 1.370 . S
C986 C990 1.524 . S
C987 C979 1.503 . S
C987 C986 1.370 . S
C987 C988 1.403 . S
C988 C987 1.403 . S
C988 C989 1.404 . S
C988 C991 1.539 . S
C989 C985 1.408 . S
C989 C988 1.404 . S
C989 H1001 0.930 . S
C990 C986 1.524 . S
C990 H1002 0.956 . S
C990 H1003 0.961 . S
C990 H1004 0.961 . S
C991 C988 1.539 . S
C991 H1005 0.958 . S
C991 H1006 0.961 . S
C991 H1007 0.960 . S
H992 C976 0.931 . S
H993 C981 0.929 . S
H994 C982 0.960 . S
H995 C982 0.962 . S
H996 C982 0.960 . S
H997 C983 0.961 . S
H998 C983 0.961 . S
H999 C983 0.961 . S
H1000 C984 0.931 . S
H1001 C989 0.930 . S
H1002 C990 0.956 . S
H1003 C990 0.961 . S
H1004 C990 0.961 . S
H1005 C991 0.958 . S
H1006 C991 0.961 . S
H1007 C991 0.960 . S
C1008 C1009 1.391 . S
C1008 C1010 1.394 . S
C1008 H1024 0.931 . S
C1009 C1008 1.391 . S
C1009 C1013 1.376 . S
C1010 C1008 1.394 . S
C1010 C1011 1.369 . S
C1010 C1014 1.531 . S
C1011 C1010 1.369 . S
C1011 C1012 1.410 . S
C1011 C1019 1.503 . S
C1012 C1011 1.410 . S
C1012 C1013 1.392 . S
C1012 C1015 1.511 . S
C1013 C1009 1.376 . S
C1013 C1012 1.392 . S
C1013 H1025 0.929 . S
C1014 C1010 1.531 . S
C1014 H1026 0.960 . S
C1014 H1027 0.962 . S
C1014 H1028 0.960 . S
C1015 C1012 1.511 . S
C1015 H1029 0.961 . S
C1015 H1030 0.961 . S
C1015 H1031 0.961 . S
C1016 C1017 1.370 . S
C1016 C1018 1.363 . S
C1016 H1032 0.931 . S
C1017 C1016 1.370 . S
C1017 C1021 1.408 . S
C1018 C1016 1.363 . S
C1018 C1019 1.370 . S
C1018 C1022 1.524 . S
C1019 C1011 1.503 . S
C1019 C1018 1.370 . S
C1019 C1020 1.403 . S
C1020 C1019 1.403 . S
C1020 C1021 1.404 . S
C1020 C1023 1.539 . S
C1021 C1017 1.408 . S
C1021 C1020 1.404 . S
C1021 H1033 0.930 . S
C1022 C1018 1.524 . S
C1022 H1034 0.956 . S
C1022 H1035 0.961 . S
C1022 H1036 0.961 . S
C1023 C1020 1.539 . S
C1023 H1037 0.958 . S
C1023 H1038 0.961 . S
C1023 H1039 0.960 . S
H1024 C1008 0.931 . S
H1025 C1013 0.929 . S
H1026 C1014 0.960 . S
H1027 C1014 0.962 . S
H1028 C1014 0.960 . S
H1029 C1015 0.961 . S
H1030 C1015 0.961 . S
H1031 C1015 0.961 . S
H1032 C1016 0.931 . S
H1033 C1021 0.930 . S
H1034 C1022 0.956 . S
H1035 C1022 0.961 . S
H1036 C1022 0.961 . S
H1037 C1023 0.958 . S
H1038 C1023 0.961 . S
H1039 C1023 0.960 . S
C1040 C1041 1.391 . S
C1040 C1042 1.394 . S
C1040 H1056 0.931 . S
C1041 C1040 1.391 . S
C1041 C1045 1.376 . S
C1042 C1040 1.394 . S
C1042 C1043 1.369 . S
C1042 C1046 1.531 . S
C1043 C1042 1.369 . S
C1043 C1044 1.410 . S
C1043 C1051 1.503 . S
C1044 C1043 1.410 . S
C1044 C1045 1.392 . S
C1044 C1047 1.511 . S
C1045 C1041 1.376 . S
C1045 C1044 1.392 . S
C1045 H1057 0.929 . S
C1046 C1042 1.531 . S
C1046 H1058 0.960 . S
C1046 H1059 0.962 . S
C1046 H1060 0.960 . S
C1047 C1044 1.511 . S
C1047 H1061 0.961 . S
C1047 H1062 0.961 . S
C1047 H1063 0.961 . S
C1048 C1049 1.370 . S
C1048 C1050 1.363 . S
C1048 H1064 0.931 . S
C1049 C1048 1.370 . S
C1049 C1053 1.408 . S
C1050 C1048 1.363 . S
C1050 C1051 1.370 . S
C1050 C1054 1.524 . S
C1051 C1043 1.503 . S
C1051 C1050 1.370 . S
C1051 C1052 1.403 . S
C1052 C1051 1.403 . S
C1052 C1053 1.404 . S
C1052 C1055 1.539 . S
C1053 C1049 1.408 . S
C1053 C1052 1.404 . S
C1053 H1065 0.930 . S
C1054 C1050 1.524 . S
C1054 H1066 0.956 . S
C1054 H1067 0.961 . S
C1054 H1068 0.961 . S
C1055 C1052 1.539 . S
C1055 H1069 0.958 . S
C1055 H1070 0.961 . S
C1055 H1071 0.960 . S
H1056 C1040 0.931 . S
H1057 C1045 0.929 . S
H1058 C1046 0.960 . S
H1059 C1046 0.962 . S
H1060 C1046 0.960 . S
H1061 C1047 0.961 . S
H1062 C1047 0.961 . S
H1063 C1047 0.961 . S
H1064 C1048 0.931 . S
H1065 C1053 0.930 . S
H1066 C1054 0.956 . S
H1067 C1054 0.961 . S
H1068 C1054 0.961 . S
H1069 C1055 0.958 . S
H1070 C1055 0.961 . S
H1071 C1055 0.960 . S
C1072 C1073 1.391 . S
C1072 C1074 1.394 . S
C1072 H1088 0.931 . S
C1073 C1072 1.391 . S
C1073 C1077 1.376 . S
C1074 C1072 1.394 . S
C1074 C1075 1.369 . S
C1074 C1078 1.531 . S
C1075 C1074 1.369 . S
C1075 C1076 1.410 . S
C1075 C1083 1.503 . S
C1076 C1075 1.410 . S
C1076 C1077 1.392 . S
C1076 C1079 1.511 . S
C1077 C1073 1.376 . S
C1077 C1076 1.392 . S
C1077 H1089 0.929 . S
C1078 C1074 1.531 . S
C1078 H1090 0.960 . S
C1078 H1091 0.962 . S
C1078 H1092 0.960 . S
C1079 C1076 1.511 . S
C1079 H1093 0.961 . S
C1079 H1094 0.961 . S
C1079 H1095 0.961 . S
C1080 C1081 1.370 . S
C1080 C1082 1.363 . S
C1080 H1096 0.931 . S
C1081 C1080 1.370 . S
C1081 C1085 1.408 . S
C1082 C1080 1.363 . S
C1082 C1083 1.370 . S
C1082 C1086 1.524 . S
C1083 C1075 1.503 . S
C1083 C1082 1.370 . S
C1083 C1084 1.403 . S
C1084 C1083 1.403 . S
C1084 C1085 1.404 . S
C1084 C1087 1.539 . S
C1085 C1081 1.408 . S
C1085 C1084 1.404 . S
C1085 H1097 0.930 . S
C1086 C1082 1.524 . S
C1086 H1098 0.956 . S
C1086 H1099 0.961 . S
C1086 H1100 0.961 . S
C1087 C1084 1.539 . S
C1087 H1101 0.958 . S
C1087 H1102 0.961 . S
C1087 H1103 0.960 . S
H1088 C1072 0.931 . S
H1089 C1077 0.929 . S
H1090 C1078 0.960 . S
H1091 C1078 0.962 . S
H1092 C1078 0.960 . S
H1093 C1079 0.961 . S
H1094 C1079 0.961 . S
H1095 C1079 0.961 . S
H1096 C1080 0.931 . S
H1097 C1085 0.930 . S
H1098 C1086 0.956 . S
H1099 C1086 0.961 . S
H1100 C1086 0.961 . S
H1101 C1087 0.958 . S
H1102 C1087 0.961 . S
H1103 C1087 0.960 . S
C1104 C1105 1.391 . S
C1104 C1106 1.394 . S
C1104 H1120 0.931 . S
C1105 C1104 1.391 . S
C1105 C1109 1.376 . S
C1106 C1104 1.394 . S
C1106 C1107 1.369 . S
C1106 C1110 1.531 . S
C1107 C1106 1.369 . S
C1107 C1108 1.410 . S
C1107 C1115 1.503 . S
C1108 C1107 1.410 . S
C1108 C1109 1.392 . S
C1108 C1111 1.511 . S
C1109 C1105 1.376 . S
C1109 C1108 1.392 . S
C1109 H1121 0.929 . S
C1110 C1106 1.531 . S
C1110 H1122 0.960 . S
C1110 H1123 0.962 . S
C1110 H1124 0.960 . S
C1111 C1108 1.511 . S
C1111 H1125 0.961 . S
C1111 H1126 0.961 . S
C1111 H1127 0.961 . S
C1112 C1113 1.370 . S
C1112 C1114 1.363 . S
C1112 H1128 0.931 . S
C1113 C1112 1.370 . S
C1113 C1117 1.408 . S
C1114 C1112 1.363 . S
C1114 C1115 1.370 . S
C1114 C1118 1.524 . S
C1115 C1107 1.503 . S
C1115 C1114 1.370 . S
C1115 C1116 1.403 . S
C1116 C1115 1.403 . S
C1116 C1117 1.404 . S
C1116 C1119 1.539 . S
C1117 C1113 1.408 . S
C1117 C1116 1.404 . S
C1117 H1129 0.930 . S
C1118 C1114 1.524 . S
C1118 H1130 0.956 . S
C1118 H1131 0.961 . S
C1118 H1132 0.961 . S
C1119 C1116 1.539 . S
C1119 H1133 0.958 . S
C1119 H1134 0.961 . S
C1119 H1135 0.960 . S
H1120 C1104 0.931 . S
H1121 C1109 0.929 . S
H1122 C1110 0.960 . S
H1123 C1110 0.962 . S
H1124 C1110 0.960 . S
H1125 C1111 0.961 . S
H1126 C1111 0.961 . S
H1127 C1111 0.961 . S
H1128 C1112 0.931 . S
H1129 C1117 0.930 . S
H1130 C1118 0.956 . S
H1131 C1118 0.961 . S
H1132 C1118 0.961 . S
H1133 C1119 0.958 . S
H1134 C1119 0.961 . S
H1135 C1119 0.960 . S
C1136 C1137 1.391 . S
C1136 C1138 1.394 . S
C1136 H1152 0.931 . S
C1137 C1136 1.391 . S
C1137 C1141 1.376 . S
C1138 C1136 1.394 . S
C1138 C1139 1.369 . S
C1138 C1142 1.531 . S
C1139 C1138 1.369 . S
C1139 C1140 1.410 . S
C1139 C1147 1.503 . S
C1140 C1139 1.410 . S
C1140 C1141 1.392 . S
C1140 C1143 1.511 . S
C1141 C1137 1.376 . S
C1141 C1140 1.392 . S
C1141 H1153 0.929 . S
C1142 C1138 1.531 . S
C1142 H1154 0.960 . S
C1142 H1155 0.962 . S
C1142 H1156 0.960 . S
C1143 C1140 1.511 . S
C1143 H1157 0.961 . S
C1143 H1158 0.961 . S
C1143 H1159 0.961 . S
C1144 C1145 1.370 . S
C1144 C1146 1.363 . S
C1144 H1160 0.931 . S
C1145 C1144 1.370 . S
C1145 C1149 1.408 . S
C1146 C1144 1.363 . S
C1146 C1147 1.370 . S
C1146 C1150 1.524 . S
C1147 C1139 1.503 . S
C1147 C1146 1.370 . S
C1147 C1148 1.403 . S
C1148 C1147 1.403 . S
C1148 C1149 1.404 . S
C1148 C1151 1.539 . S
C1149 C1145 1.408 . S
C1149 C1148 1.404 . S
C1149 H1161 0.930 . S
C1150 C1146 1.524 . S
C1150 H1162 0.956 . S
C1150 H1163 0.961 . S
C1150 H1164 0.961 . S
C1151 C1148 1.539 . S
C1151 H1165 0.958 . S
C1151 H1166 0.961 . S
C1151 H1167 0.960 . S
H1152 C1136 0.931 . S
H1153 C1141 0.929 . S
H1154 C1142 0.960 . S
H1155 C1142 0.962 . S
H1156 C1142 0.960 . S
H1157 C1143 0.961 . S
H1158 C1143 0.961 . S
H1159 C1143 0.961 . S
H1160 C1144 0.931 . S
H1161 C1149 0.930 . S
H1162 C1150 0.956 . S
H1163 C1150 0.961 . S
H1164 C1150 0.961 . S
H1165 C1151 0.958 . S
H1166 C1151 0.961 . S
H1167 C1151 0.960 . S
C1168 C1169 1.391 . S
C1168 C1170 1.394 . S
C1168 H1184 0.931 . S
C1169 C1168 1.391 . S
C1169 C1173 1.376 . S
C1170 C1168 1.394 . S
C1170 C1171 1.369 . S
C1170 C1174 1.531 . S
C1171 C1170 1.369 . S
C1171 C1172 1.410 . S
C1171 C1179 1.503 . S
C1172 C1171 1.410 . S
C1172 C1173 1.392 . S
C1172 C1175 1.511 . S
C1173 C1169 1.376 . S
C1173 C1172 1.392 . S
C1173 H1185 0.929 . S
C1174 C1170 1.531 . S
C1174 H1186 0.960 . S
C1174 H1187 0.962 . S
C1174 H1188 0.960 . S
C1175 C1172 1.511 . S
C1175 H1189 0.961 . S
C1175 H1190 0.961 . S
C1175 H1191 0.961 . S
C1176 C1177 1.370 . S
C1176 C1178 1.363 . S
C1176 H1192 0.931 . S
C1177 C1176 1.370 . S
C1177 C1181 1.408 . S
C1178 C1176 1.363 . S
C1178 C1179 1.370 . S
C1178 C1182 1.524 . S
C1179 C1171 1.503 . S
C1179 C1178 1.370 . S
C1179 C1180 1.403 . S
C1180 C1179 1.403 . S
C1180 C1181 1.404 . S
C1180 C1183 1.539 . S
C1181 C1177 1.408 . S
C1181 C1180 1.404 . S
C1181 H1193 0.930 . S
C1182 C1178 1.524 . S
C1182 H1194 0.956 . S
C1182 H1195 0.961 . S
C1182 H1196 0.961 . S
C1183 C1180 1.539 . S
C1183 H1197 0.958 . S
C1183 H1198 0.961 . S
C1183 H1199 0.960 . S
H1184 C1168 0.931 . S
H1185 C1173 0.929 . S
H1186 C1174 0.960 . S
H1187 C1174 0.962 . S
H1188 C1174 0.960 . S
H1189 C1175 0.961 . S
H1190 C1175 0.961 . S
H1191 C1175 0.961 . S
H1192 C1176 0.931 . S
H1193 C1181 0.930 . S
H1194 C1182 0.956 . S
H1195 C1182 0.961 . S
H1196 C1182 0.961 . S
H1197 C1183 0.958 . S
H1198 C1183 0.961 . S
H1199 C1183 0.960 . S
C1200 C1201 1.391 . S
C1200 C1202 1.394 . S
C1200 H1216 0.931 . S
C1201 C1200 1.391 . S
C1201 C1205 1.376 . S
C1202 C1200 1.394 . S
C1202 C1203 1.369 . S
C1202 C1206 1.531 . S
C1203 C1202 1.369 . S
C1203 C1204 1.410 . S
C1203 C1211 1.503 . S
C1204 C1203 1.410 . S
C1204 C1205 1.392 . S
C1204 C1207 1.511 . S
C1205 C1201 1.376 . S
C1205 C1204 1.392 . S
C1205 H1217 0.929 . S
C1206 C1202 1.531 . S
C1206 H1218 0.960 . S
C1206 H1219 0.962 . S
C1206 H1220 0.960 . S
C1207 C1204 1.511 . S
C1207 H1221 0.961 . S
C1207 H1222 0.961 . S
C1207 H1223 0.961 . S
C1208 C1209 1.370 . S
C1208 C1210 1.363 . S
C1208 H1224 0.931 . S
C1209 C1208 1.370 . S
C1209 C1213 1.408 . S
C1210 C1208 1.363 . S
C1210 C1211 1.370 . S
C1210 C1214 1.524 . S
C1211 C1203 1.503 . S
C1211 C1210 1.370 . S
C1211 C1212 1.403 . S
C1212 C1211 1.403 . S
C1212 C1213 1.404 . S
C1212 C1215 1.539 . S
C1213 C1209 1.408 . S
C1213 C1212 1.404 . S
C1213 H1225 0.930 . S
C1214 C1210 1.524 . S
C1214 H1226 0.956 . S
C1214 H1227 0.961 . S
C1214 H1228 0.961 . S
C1215 C1212 1.539 . S
C1215 H1229 0.958 . S
C1215 H1230 0.961 . S
C1215 H1231 0.960 . S
H1216 C1200 0.931 . S
H1217 C1205 0.929 . S
H1218 C1206 0.960 . S
H1219 C1206 0.962 . S
H1220 C1206 0.960 . S
H1221 C1207 0.961 . S
H1222 C1207 0.961 . S
H1223 C1207 0.961 . S
H1224 C1208 0.931 . S
H1225 C1213 0.930 . S
H1226 C1214 0.956 . S
H1227 C1214 0.961 . S
H1228 C1214 0.961 . S
H1229 C1215 0.958 . S
H1230 C1215 0.961 . S
H1231 C1215 0.960 . S
C1232 C1233 1.391 . S
C1232 C1234 1.394 . S
C1232 H1248 0.931 . S
C1233 C1232 1.391 . S
C1233 C1237 1.376 . S
C1234 C1232 1.394 . S
C1234 C1235 1.369 . S
C1234 C1238 1.531 . S
C1235 C1234 1.369 . S
C1235 C1236 1.410 . S
C1235 C1243 1.503 . S
C1236 C1235 1.410 . S
C1236 C1237 1.392 . S
C1236 C1239 1.511 . S
C1237 C1233 1.376 . S
C1237 C1236 1.392 . S
C1237 H1249 0.929 . S
C1238 C1234 1.531 . S
C1238 H1250 0.960 . S
C1238 H1251 0.962 . S
C1238 H1252 0.960 . S
C1239 C1236 1.511 . S
C1239 H1253 0.961 . S
C1239 H1254 0.961 . S
C1239 H1255 0.961 . S
C1240 C1241 1.370 . S
C1240 C1242 1.363 . S
C1240 H1256 0.931 . S
C1241 C1240 1.370 . S
C1241 C1245 1.408 . S
C1242 C1240 1.363 . S
C1242 C1243 1.370 . S
C1242 C1246 1.524 . S
C1243 C1235 1.503 . S
C1243 C1242 1.370 . S
C1243 C1244 1.403 . S
C1244 C1243 1.403 . S
C1244 C1245 1.404 . S
C1244 C1247 1.539 . S
C1245 C1241 1.408 . S
C1245 C1244 1.404 . S
C1245 H1257 0.930 . S
C1246 C1242 1.524 . S
C1246 H1258 0.956 . S
C1246 H1259 0.961 . S
C1246 H1260 0.961 . S
C1247 C1244 1.539 . S
C1247 H1261 0.958 . S
C1247 H1262 0.961 . S
C1247 H1263 0.960 . S
H1248 C1232 0.931 . S
H1249 C1237 0.929 . S
H1250 C1238 0.960 . S
H1251 C1238 0.962 . S
H1252 C1238 0.960 . S
H1253 C1239 0.961 . S
H1254 C1239 0.961 . S
H1255 C1239 0.961 . S
H1256 C1240 0.931 . S
H1257 C1245 0.930 . S
H1258 C1246 0.956 . S
H1259 C1246 0.961 . S
H1260 C1246 0.961 . S
H1261 C1247 0.958 . S
H1262 C1247 0.961 . S
H1263 C1247 0.960 . S
C1264 C1265 1.391 . S
C1264 C1266 1.394 . S
C1264 H1280 0.931 . S
C1265 C1264 1.391 . S
C1265 C1269 1.376 . S
C1266 C1264 1.394 . S
C1266 C1267 1.369 . S
C1266 C1270 1.531 . S
C1267 C1266 1.369 . S
C1267 C1268 1.410 . S
C1267 C1275 1.503 . S
C1268 C1267 1.410 . S
C1268 C1269 1.392 . S
C1268 C1271 1.511 . S
C1269 C1265 1.376 . S
C1269 C1268 1.392 . S
C1269 H1281 0.929 . S
C1270 C1266 1.531 . S
C1270 H1282 0.960 . S
C1270 H1283 0.962 . S
C1270 H1284 0.960 . S
C1271 C1268 1.511 . S
C1271 H1285 0.961 . S
C1271 H1286 0.961 . S
C1271 H1287 0.961 . S
C1272 C1273 1.370 . S
C1272 C1274 1.363 . S
C1272 H1288 0.931 . S
C1273 C1272 1.370 . S
C1273 C1277 1.408 . S
C1274 C1272 1.363 . S
C1274 C1275 1.370 . S
C1274 C1278 1.524 . S
C1275 C1267 1.503 . S
C1275 C1274 1.370 . S
C1275 C1276 1.403 . S
C1276 C1275 1.403 . S
C1276 C1277 1.404 . S
C1276 C1279 1.539 . S
C1277 C1273 1.408 . S
C1277 C1276 1.404 . S
C1277 H1289 0.930 . S
C1278 C1274 1.524 . S
C1278 H1290 0.956 . S
C1278 H1291 0.961 . S
C1278 H1292 0.961 . S
C1279 C1276 1.539 . S
C1279 H1293 0.958 . S
C1279 H1294 0.961 . S
C1279 H1295 0.960 . S
H1280 C1264 0.931 . S
H1281 C1269 0.929 . S
H1282 C1270 0.960 . S
H1283 C1270 0.962 . S
H1284 C1270 0.960 . S
H1285 C1271 0.961 . S
H1286 C1271 0.961 . S
H1287 C1271 0.961 . S
H1288 C1272 0.931 . S
H1289 C1277 0.930 . S
H1290 C1278 0.956 . S
H1291 C1278 0.961 . S
H1292 C1278 0.961 . S
H1293 C1279 0.958 . S
H1294 C1279 0.961 . S
H1295 C1279 0.960 . S
C1296 C1297 1.391 . S
C1296 C1298 1.394 . S
C1296 H1312 0.931 . S
C1297 C1296 1.391 . S
C1297 C1301 1.376 . S
C1298 C1296 1.394 . S
C1298 C1299 1.369 . S
C1298 C1302 1.531 . S
C1299 C1298 1.369 . S
C1299 C1300 1.410 . S
C1299 C1307 1.503 . S
C1300 C1299 1.410 . S
C1300 C1301 1.392 . S
C1300 C1303 1.511 . S
C1301 C1297 1.376 . S
C1301 C1300 1.392 . S
C1301 H1313 0.929 . S
C1302 C1298 1.531 . S
C1302 H1314 0.960 . S
C1302 H1315 0.962 . S
C1302 H1316 0.960 . S
C1303 C1300 1.511 . S
C1303 H1317 0.961 . S
C1303 H1318 0.961 . S
C1303 H1319 0.961 . S
C1304 C1305 1.370 . S
C1304 C1306 1.363 . S
C1304 H1320 0.931 . S
C1305 C1304 1.370 . S
C1305 C1309 1.408 . S
C1306 C1304 1.363 . S
C1306 C1307 1.370 . S
C1306 C1310 1.524 . S
C1307 C1299 1.503 . S
C1307 C1306 1.370 . S
C1307 C1308 1.403 . S
C1308 C1307 1.403 . S
C1308 C1309 1.404 . S
C1308 C1311 1.539 . S
C1309 C1305 1.408 . S
C1309 C1308 1.404 . S
C1309 H1321 0.930 . S
C1310 C1306 1.524 . S
C1310 H1322 0.956 . S
C1310 H1323 0.961 . S
C1310 H1324 0.961 . S
C1311 C1308 1.539 . S
C1311 H1325 0.958 . S
C1311 H1326 0.961 . S
C1311 H1327 0.960 . S
H1312 C1296 0.931 . S
H1313 C1301 0.929 . S
H1314 C1302 0.960 . S
H1315 C1302 0.962 . S
H1316 C1302 0.960 . S
H1317 C1303 0.961 . S
H1318 C1303 0.961 . S
H1319 C1303 0.961 . S
H1320 C1304 0.931 . S
H1321 C1309 0.930 . S
H1322 C1310 0.956 . S
H1323 C1310 0.961 . S
H1324 C1310 0.961 . S
H1325 C1311 0.958 . S
H1326 C1311 0.961 . S
H1327 C1311 0.960 . S
C1328 C1329 1.391 . S
C1328 C1330 1.394 . S
C1328 H1344 0.931 . S
C1329 C1328 1.391 . S
C1329 C1333 1.376 . S
C1330 C1328 1.394 . S
C1330 C1331 1.369 . S
C1330 C1334 1.531 . S
C1331 C1330 1.369 . S
C1331 C1332 1.410 . S
C1331 C1339 1.503 . S
C1332 C1331 1.410 . S
C1332 C1333 1.392 . S
C1332 C1335 1.511 . S
C1333 C1329 1.376 . S
C1333 C1332 1.392 . S
C1333 H1345 0.929 . S
C1334 C1330 1.531 . S
C1334 H1346 0.960 . S
C1334 H1347 0.962 . S
C1334 H1348 0.960 . S
C1335 C1332 1.511 . S
C1335 H1349 0.961 . S
C1335 H1350 0.961 . S
C1335 H1351 0.961 . S
C1336 C1337 1.370 . S
C1336 C1338 1.363 . S
C1336 H1352 0.931 . S
C1337 C1336 1.370 . S
C1337 C1341 1.408 . S
C1338 C1336 1.363 . S
C1338 C1339 1.370 . S
C1338 C1342 1.524 . S
C1339 C1331 1.503 . S
C1339 C1338 1.370 . S
C1339 C1340 1.403 . S
C1340 C1339 1.403 . S
C1340 C1341 1.404 . S
C1340 C1343 1.539 . S
C1341 C1337 1.408 . S
C1341 C1340 1.404 . S
C1341 H1353 0.930 . S
C1342 C1338 1.524 . S
C1342 H1354 0.956 . S
C1342 H1355 0.961 . S
C1342 H1356 0.961 . S
C1343 C1340 1.539 . S
C1343 H1357 0.958 . S
C1343 H1358 0.961 . S
C1343 H1359 0.960 . S
H1344 C1328 0.931 . S
H1345 C1333 0.929 . S
H1346 C1334 0.960 . S
H1347 C1334 0.962 . S
H1348 C1334 0.960 . S
H1349 C1335 0.961 . S
H1350 C1335 0.961 . S
H1351 C1335 0.961 . S
H1352 C1336 0.931 . S
H1353 C1341 0.930 . S
H1354 C1342 0.956 . S
H1355 C1342 0.961 . S
H1356 C1342 0.961 . S
H1357 C1343 0.958 . S
H1358 C1343 0.961 . S
H1359 C1343 0.960 . S
C1360 C1361 1.391 . S
C1360 C1362 1.394 . S
C1360 H1376 0.931 . S
C1361 C1360 1.391 . S
C1361 C1365 1.376 . S
C1362 C1360 1.394 . S
C1362 C1363 1.369 . S
C1362 C1366 1.531 . S
C1363 C1362 1.369 . S
C1363 C1364 1.410 . S
C1363 C1371 1.503 . S
C1364 C1363 1.410 . S
C1364 C1365 1.392 . S
C1364 C1367 1.511 . S
C1365 C1361 1.376 . S
C1365 C1364 1.392 . S
C1365 H1377 0.929 . S
C1366 C1362 1.531 . S
C1366 H1378 0.960 . S
C1366 H1379 0.962 . S
C1366 H1380 0.960 . S
C1367 C1364 1.511 . S
C1367 H1381 0.961 . S
C1367 H1382 0.961 . S
C1367 H1383 0.961 . S
C1368 C1369 1.370 . S
C1368 C1370 1.363 . S
C1368 H1384 0.931 . S
C1369 C1368 1.370 . S
C1369 C1373 1.408 . S
C1370 C1368 1.363 . S
C1370 C1371 1.370 . S
C1370 C1374 1.524 . S
C1371 C1363 1.503 . S
C1371 C1370 1.370 . S
C1371 C1372 1.403 . S
C1372 C1371 1.403 . S
C1372 C1373 1.404 . S
C1372 C1375 1.539 . S
C1373 C1369 1.408 . S
C1373 C1372 1.404 . S
C1373 H1385 0.930 . S
C1374 C1370 1.524 . S
C1374 H1386 0.956 . S
C1374 H1387 0.961 . S
C1374 H1388 0.961 . S
C1375 C1372 1.539 . S
C1375 H1389 0.958 . S
C1375 H1390 0.961 . S
C1375 H1391 0.960 . S
H1376 C1360 0.931 . S
H1377 C1365 0.929 . S
H1378 C1366 0.960 . S
H1379 C1366 0.962 . S
H1380 C1366 0.960 . S
H1381 C1367 0.961 . S
H1382 C1367 0.961 . S
H1383 C1367 0.961 . S
H1384 C1368 0.931 . S
H1385 C1373 0.930 . S
H1386 C1374 0.956 . S
H1387 C1374 0.961 . S
H1388 C1374 0.961 . S
H1389 C1375 0.958 . S
H1390 C1375 0.961 . S
H1391 C1375 0.960 . S
C1392 C1393 1.391 . S
C1392 C1394 1.394 . S
C1392 H1408 0.931 . S
C1393 C1392 1.391 . S
C1393 C1397 1.376 . S
C1394 C1392 1.394 . S
C1394 C1395 1.369 . S
C1394 C1398 1.531 . S
C1395 C1394 1.369 . S
C1395 C1396 1.410 . S
C1395 C1403 1.503 . S
C1396 C1395 1.410 . S
C1396 C1397 1.392 . S
C1396 C1399 1.511 . S
C1397 C1393 1.376 . S
C1397 C1396 1.392 . S
C1397 H1409 0.929 . S
C1398 C1394 1.531 . S
C1398 H1410 0.960 . S
C1398 H1411 0.962 . S
C1398 H1412 0.960 . S
C1399 C1396 1.511 . S
C1399 H1413 0.961 . S
C1399 H1414 0.961 . S
C1399 H1415 0.961 . S
C1400 C1401 1.370 . S
C1400 C1402 1.363 . S
C1400 H1416 0.931 . S
C1401 C1400 1.370 . S
C1401 C1405 1.408 . S
C1402 C1400 1.363 . S
C1402 C1403 1.370 . S
C1402 C1406 1.524 . S
C1403 C1395 1.503 . S
C1403 C1402 1.370 . S
C1403 C1404 1.403 . S
C1404 C1403 1.403 . S
C1404 C1405 1.404 . S
C1404 C1407 1.539 . S
C1405 C1401 1.408 . S
C1405 C1404 1.404 . S
C1405 H1417 0.930 . S
C1406 C1402 1.524 . S
C1406 H1418 0.956 . S
C1406 H1419 0.961 . S
C1406 H1420 0.961 . S
C1407 C1404 1.539 . S
C1407 H1421 0.958 . S
C1407 H1422 0.961 . S
C1407 H1423 0.960 . S
H1408 C1392 0.931 . S
H1409 C1397 0.929 . S
H1410 C1398 0.960 . S
H1411 C1398 0.962 . S
H1412 C1398 0.960 . S
H1413 C1399 0.961 . S
H1414 C1399 0.961 . S
H1415 C1399 0.961 . S
H1416 C1400 0.931 . S
H1417 C1405 0.930 . S
H1418 C1406 0.956 . S
H1419 C1406 0.961 . S
H1420 C1406 0.961 . S
H1421 C1407 0.958 . S
H1422 C1407 0.961 . S
H1423 C1407 0.960 . S
C1424 C1425 1.391 . S
C1424 C1426 1.394 . S
C1424 H1440 0.931 . S
C1425 C1424 1.391 . S
C1425 C1429 1.376 . S
C1426 C1424 1.394 . S
C1426 C1427 1.369 . S
C1426 C1430 1.531 . S
C1427 C1426 1.369 . S
C1427 C1428 1.410 . S
C1427 C1435 1.503 . S
C1428 C1427 1.410 . S
C1428 C1429 1.392 . S
C1428 C1431 1.511 . S
C1429 C1425 1.376 . S
C1429 C1428 1.392 . S
C1429 H1441 0.929 . S
C1430 C1426 1.531 . S
C1430 H1442 0.960 . S
C1430 H1443 0.962 . S
C1430 H1444 0.960 . S
C1431 C1428 1.511 . S
C1431 H1445 0.961 . S
C1431 H1446 0.961 . S
C1431 H1447 0.961 . S
C1432 C1433 1.370 . S
C1432 C1434 1.363 . S
C1432 H1448 0.931 . S
C1433 C1432 1.370 . S
C1433 C1437 1.408 . S
C1434 C1432 1.363 . S
C1434 C1435 1.370 . S
C1434 C1438 1.524 . S
C1435 C1427 1.503 . S
C1435 C1434 1.370 . S
C1435 C1436 1.403 . S
C1436 C1435 1.403 . S
C1436 C1437 1.404 . S
C1436 C1439 1.539 . S
C1437 C1433 1.408 . S
C1437 C1436 1.404 . S
C1437 H1449 0.930 . S
C1438 C1434 1.524 . S
C1438 H1450 0.956 . S
C1438 H1451 0.961 . S
C1438 H1452 0.961 . S
C1439 C1436 1.539 . S
C1439 H1453 0.958 . S
C1439 H1454 0.961 . S
C1439 H1455 0.960 . S
H1440 C1424 0.931 . S
H1441 C1429 0.929 . S
H1442 C1430 0.960 . S
H1443 C1430 0.962 . S
H1444 C1430 0.960 . S
H1445 C1431 0.961 . S
H1446 C1431 0.961 . S
H1447 C1431 0.961 . S
H1448 C1432 0.931 . S
H1449 C1437 0.930 . S
H1450 C1438 0.956 . S
H1451 C1438 0.961 . S
H1452 C1438 0.961 . S
H1453 C1439 0.958 . S
H1454 C1439 0.961 . S
H1455 C1439 0.960 . S
C1456 C1457 1.391 . S
C1456 C1458 1.394 . S
C1456 H1472 0.931 . S
C1457 C1456 1.391 . S
C1457 C1461 1.376 . S
C1458 C1456 1.394 . S
C1458 C1459 1.369 . S
C1458 C1462 1.531 . S
C1459 C1458 1.369 . S
C1459 C1460 1.410 . S
C1459 C1467 1.503 . S
C1460 C1459 1.410 . S
C1460 C1461 1.392 . S
C1460 C1463 1.511 . S
C1461 C1457 1.376 . S
C1461 C1460 1.392 . S
C1461 H1473 0.929 . S
C1462 C1458 1.531 . S
C1462 H1474 0.960 . S
C1462 H1475 0.962 . S
C1462 H1476 0.960 . S
C1463 C1460 1.511 . S
C1463 H1477 0.961 . S
C1463 H1478 0.961 . S
C1463 H1479 0.961 . S
C1464 C1465 1.370 . S
C1464 C1466 1.363 . S
C1464 H1480 0.931 . S
C1465 C1464 1.370 . S
C1465 C1469 1.408 . S
C1466 C1464 1.363 . S
C1466 C1467 1.370 . S
C1466 C1470 1.524 . S
C1467 C1459 1.503 . S
C1467 C1466 1.370 . S
C1467 C1468 1.403 . S
C1468 C1467 1.403 . S
C1468 C1469 1.404 . S
C1468 C1471 1.539 . S
C1469 C1465 1.408 . S
C1469 C1468 1.404 . S
C1469 H1481 0.930 . S
C1470 C1466 1.524 . S
C1470 H1482 0.956 . S
C1470 H1483 0.961 . S
C1470 H1484 0.961 . S
C1471 C1468 1.539 . S
C1471 H1485 0.958 . S
C1471 H1486 0.961 . S
C1471 H1487 0.960 . S
H1472 C1456 0.931 . S
H1473 C1461 0.929 . S
H1474 C1462 0.960 . S
H1475 C1462 0.962 . S
H1476 C1462 0.960 . S
H1477 C1463 0.961 . S
H1478 C1463 0.961 . S
H1479 C1463 0.961 . S
H1480 C1464 0.931 . S
H1481 C1469 0.930 . S
H1482 C1470 0.956 . S
H1483 C1470 0.961 . S
H1484 C1470 0.961 . S
H1485 C1471 0.958 . S
H1486 C1471 0.961 . S
H1487 C1471 0.960 . S
C1488 C1489 1.391 . S
C1488 C1490 1.394 . S
C1488 H1504 0.931 . S
C1489 C1488 1.391 . S
C1489 C1493 1.376 . S
C1490 C1488 1.394 . S
C1490 C1491 1.369 . S
C1490 C1494 1.531 . S
C1491 C1490 1.369 . S
C1491 C1492 1.410 . S
C1491 C1499 1.503 . S
C1492 C1491 1.410 . S
C1492 C1493 1.392 . S
C1492 C1495 1.511 . S
C1493 C1489 1.376 . S
C1493 C1492 1.392 . S
C1493 H1505 0.929 . S
C1494 C1490 1.531 . S
C1494 H1506 0.960 . S
C1494 H1507 0.962 . S
C1494 H1508 0.960 . S
C1495 C1492 1.511 . S
C1495 H1509 0.961 . S
C1495 H1510 0.961 . S
C1495 H1511 0.961 . S
C1496 C1497 1.370 . S
C1496 C1498 1.363 . S
C1496 H1512 0.931 . S
C1497 C1496 1.370 . S
C1497 C1501 1.408 . S
C1498 C1496 1.363 . S
C1498 C1499 1.370 . S
C1498 C1502 1.524 . S
C1499 C1491 1.503 . S
C1499 C1498 1.370 . S
C1499 C1500 1.403 . S
C1500 C1499 1.403 . S
C1500 C1501 1.404 . S
C1500 C1503 1.539 . S
C1501 C1497 1.408 . S
C1501 C1500 1.404 . S
C1501 H1513 0.930 . S
C1502 C1498 1.524 . S
C1502 H1514 0.956 . S
C1502 H1515 0.961 . S
C1502 H1516 0.961 . S
C1503 C1500 1.539 . S
C1503 H1517 0.958 . S
C1503 H1518 0.961 . S
C1503 H1519 0.960 . S
H1504 C1488 0.931 . S
H1505 C1493 0.929 . S
H1506 C1494 0.960 . S
H1507 C1494 0.962 . S
H1508 C1494 0.960 . S
H1509 C1495 0.961 . S
H1510 C1495 0.961 . S
H1511 C1495 0.961 . S
H1512 C1496 0.931 . S
H1513 C1501 0.930 . S
H1514 C1502 0.956 . S
H1515 C1502 0.961 . S
H1516 C1502 0.961 . S
H1517 C1503 0.958 . S
H1518 C1503 0.961 . S
H1519 C1503 0.960 . S
C1520 C1521 1.391 . S
C1520 C1522 1.394 . S
C1520 H1536 0.931 . S
C1521 C1520 1.391 . S
C1521 C1525 1.376 . S
C1522 C1520 1.394 . S
C1522 C1523 1.369 . S
C1522 C1526 1.531 . S
C1523 C1522 1.369 . S
C1523 C1524 1.410 . S
C1523 C1531 1.503 . S
C1524 C1523 1.410 . S
C1524 C1525 1.392 . S
C1524 C1527 1.511 . S
C1525 C1521 1.376 . S
C1525 C1524 1.392 . S
C1525 H1537 0.929 . S
C1526 C1522 1.531 . S
C1526 H1538 0.960 . S
C1526 H1539 0.962 . S
C1526 H1540 0.960 . S
C1527 C1524 1.511 . S
C1527 H1541 0.961 . S
C1527 H1542 0.961 . S
C1527 H1543 0.961 . S
C1528 C1529 1.370 . S
C1528 C1530 1.363 . S
C1528 H1544 0.931 . S
C1529 C1528 1.370 . S
C1529 C1533 1.408 . S
C1530 C1528 1.363 . S
C1530 C1531 1.370 . S
C1530 C1534 1.524 . S
C1531 C1523 1.503 . S
C1531 C1530 1.370 . S
C1531 C1532 1.403 . S
C1532 C1531 1.403 . S
C1532 C1533 1.404 . S
C1532 C1535 1.539 . S
C1533 C1529 1.408 . S
C1533 C1532 1.404 . S
C1533 H1545 0.930 . S
C1534 C1530 1.524 . S
C1534 H1546 0.956 . S
C1534 H1547 0.961 . S
C1534 H1548 0.961 . S
C1535 C1532 1.539 . S
C1535 H1549 0.958 . S
C1535 H1550 0.961 . S
C1535 H1551 0.960 . S
H1536 C1520 0.931 . S
H1537 C1525 0.929 . S
H1538 C1526 0.960 . S
H1539 C1526 0.962 . S
H1540 C1526 0.960 . S
H1541 C1527 0.961 . S
H1542 C1527 0.961 . S
H1543 C1527 0.961 . S
H1544 C1528 0.931 . S
H1545 C1533 0.930 . S
H1546 C1534 0.956 . S
H1547 C1534 0.961 . S
H1548 C1534 0.961 . S
H1549 C1535 0.958 . S
H1550 C1535 0.961 . S
H1551 C1535 0.960 . S
C1552 C1553 1.391 . S
C1552 C1554 1.394 . S
C1552 H1568 0.931 . S
C1553 C1552 1.391 . S
C1553 C1557 1.376 1_565 S
C1554 C1552 1.394 . S
C1554 C1555 1.369 . S
C1554 C1558 1.531 . S
C1555 C1554 1.369 . S
C1555 C1556 1.410 1_565 S
C1555 C1563 1.503 . S
C1556 C1555 1.410 1_545 S
C1556 C1557 1.392 . S
C1556 C1559 1.511 . S
C1557 C1553 1.376 1_545 S
C1557 C1556 1.392 . S
C1557 H1569 0.929 . S
C1558 C1554 1.531 . S
C1558 H1570 0.960 . S
C1558 H1571 0.962 . S
C1558 H1572 0.960 . S
C1559 C1556 1.511 . S
C1559 H1573 0.961 . S
C1559 H1574 0.961 . S
C1559 H1575 0.961 . S
C1560 C1561 1.370 1_545 S
C1560 C1562 1.363 . S
C1560 H1576 0.931 . S
C1561 C1560 1.370 1_565 S
C1561 C1565 1.408 . S
C1562 C1560 1.363 . S
C1562 C1563 1.370 1_545 S
C1562 C1566 1.524 . S
C1563 C1555 1.503 . S
C1563 C1562 1.370 1_565 S
C1563 C1564 1.403 . S
C1564 C1563 1.403 . S
C1564 C1565 1.404 . S
C1564 C1567 1.539 . S
C1565 C1561 1.408 . S
C1565 C1564 1.404 . S
C1565 H1577 0.930 . S
C1566 C1562 1.524 . S
C1566 H1578 0.956 . S
C1566 H1579 0.961 . S
C1566 H1580 0.961 . S
C1567 C1564 1.539 . S
C1567 H1581 0.958 . S
C1567 H1582 0.961 . S
C1567 H1583 0.960 . S
H1568 C1552 0.931 . S
H1569 C1557 0.929 . S
H1570 C1558 0.960 . S
H1571 C1558 0.962 . S
H1572 C1558 0.960 . S
H1573 C1559 0.961 . S
H1574 C1559 0.961 . S
H1575 C1559 0.961 . S
H1576 C1560 0.931 . S
H1577 C1565 0.930 . S
H1578 C1566 0.956 . S
H1579 C1566 0.961 . S
H1580 C1566 0.961 . S
H1581 C1567 0.958 . S
H1582 C1567 0.961 . S
H1583 C1567 0.960 . S
C1584 C1585 1.391 . S
C1584 C1586 1.394 . S
C1584 H1600 0.931 . S
C1585 C1584 1.391 . S
C1585 C1589 1.376 . S
C1586 C1584 1.394 . S
C1586 C1587 1.369 . S
C1586 C1590 1.531 . S
C1587 C1586 1.369 . S
C1587 C1588 1.410 . S
C1587 C1595 1.503 . S
C1588 C1587 1.410 . S
C1588 C1589 1.392 . S
C1588 C1591 1.511 1_556 S
C1589 C1585 1.376 . S
C1589 C1588 1.392 . S
C1589 H1601 0.929 . S
C1590 C1586 1.531 . S
C1590 H1602 0.960 . S
C1590 H1603 0.962 . S
C1590 H1604 0.960 . S
C1591 C1588 1.511 1_554 S
C1591 H1605 0.961 . S
C1591 H1606 0.961 . S
C1591 H1607 0.961 1_554 S
C1592 C1593 1.370 . S
C1592 C1594 1.363 . S
C1592 H1608 0.931 1_556 S
C1593 C1592 1.370 . S
C1593 C1597 1.408 . S
C1594 C1592 1.363 . S
C1594 C1595 1.370 . S
C1594 C1598 1.524 1_556 S
C1595 C1587 1.503 . S
C1595 C1594 1.370 . S
C1595 C1596 1.403 . S
C1596 C1595 1.403 . S
C1596 C1597 1.404 . S
C1596 C1599 1.539 . S
C1597 C1593 1.408 . S
C1597 C1596 1.404 . S
C1597 H1609 0.930 . S
C1598 C1594 1.524 1_554 S
C1598 H1610 0.956 1_554 S
C1598 H1611 0.961 . S
C1598 H1612 0.961 . S
C1599 C1596 1.539 . S
C1599 H1613 0.958 . S
C1599 H1614 0.961 . S
C1599 H1615 0.960 . S
H1600 C1584 0.931 . S
H1601 C1589 0.929 . S
H1602 C1590 0.960 . S
H1603 C1590 0.962 . S
H1604 C1590 0.960 . S
H1605 C1591 0.961 . S
H1606 C1591 0.961 . S
H1607 C1591 0.961 1_556 S
H1608 C1592 0.931 1_554 S
H1609 C1597 0.930 . S
H1610 C1598 0.956 1_556 S
H1611 C1598 0.961 . S
H1612 C1598 0.961 . S
H1613 C1599 0.958 . S
H1614 C1599 0.961 . S
H1615 C1599 0.960 . S
C1616 C1617 1.391 . S
C1616 C1618 1.394 . S
C1616 H1632 0.931 . S
C1617 C1616 1.391 . S
C1617 C1621 1.376 . S
C1618 C1616 1.394 . S
C1618 C1619 1.369 . S
C1618 C1622 1.531 . S
C1619 C1618 1.369 . S
C1619 C1620 1.410 . S
C1619 C1627 1.503 . S
C1620 C1619 1.410 . S
C1620 C1621 1.392 . S
C1620 C1623 1.511 . S
C1621 C1617 1.376 . S
C1621 C1620 1.392 . S
C1621 H1633 0.929 . S
C1622 C1618 1.531 . S
C1622 H1634 0.960 . S
C1622 H1635 0.962 . S
C1622 H1636 0.960 . S
C1623 C1620 1.511 . S
C1623 H1637 0.961 . S
C1623 H1638 0.961 . S
C1623 H1639 0.961 . S
C1624 C1625 1.370 . S
C1624 C1626 1.363 . S
C1624 H1640 0.931 . S
C1625 C1624 1.370 . S
C1625 C1629 1.408 . S
C1626 C1624 1.363 . S
C1626 C1627 1.370 . S
C1626 C1630 1.524 . S
C1627 C1619 1.503 . S
C1627 C1626 1.370 . S
C1627 C1628 1.403 . S
C1628 C1627 1.403 . S
C1628 C1629 1.404 . S
C1628 C1631 1.539 . S
C1629 C1625 1.408 . S
C1629 C1628 1.404 . S
C1629 H1641 0.930 . S
C1630 C1626 1.524 . S
C1630 H1642 0.956 . S
C1630 H1643 0.961 . S
C1630 H1644 0.961 . S
C1631 C1628 1.539 . S
C1631 H1645 0.958 . S
C1631 H1646 0.961 . S
C1631 H1647 0.960 . S
H1632 C1616 0.931 . S
H1633 C1621 0.929 . S
H1634 C1622 0.960 . S
H1635 C1622 0.962 . S
H1636 C1622 0.960 . S
H1637 C1623 0.961 . S
H1638 C1623 0.961 . S
H1639 C1623 0.961 . S
H1640 C1624 0.931 . S
H1641 C1629 0.930 . S
H1642 C1630 0.956 . S
H1643 C1630 0.961 . S
H1644 C1630 0.961 . S
H1645 C1631 0.958 . S
H1646 C1631 0.961 . S
H1647 C1631 0.960 . S
C1648 C1649 1.391 . S
C1648 C1650 1.394 . S
C1648 H1664 0.931 . S
C1649 C1648 1.391 . S
C1649 C1653 1.376 1_655 S
C1650 C1648 1.394 . S
C1650 C1651 1.370 . S
C1650 C1654 1.531 . S
C1651 C1650 1.370 . S
C1651 C1652 1.409 1_655 S
C1651 C1659 1.503 . S
C1652 C1651 1.409 1_455 S
C1652 C1653 1.392 . S
C1652 C1655 1.511 . S
C1653 C1649 1.376 1_455 S
C1653 C1652 1.392 . S
C1653 H1665 0.929 . S
C1654 C1650 1.531 . S
C1654 H1666 0.960 . S
C1654 H1667 0.962 . S
C1654 H1668 0.960 . S
C1655 C1652 1.511 . S
C1655 H1669 0.961 1_556 S
C1655 H1670 0.961 . S
C1655 H1671 0.961 . S
C1656 C1657 1.370 . S
C1656 C1658 1.363 . S
C1656 H1672 0.931 1_556 S
C1657 C1656 1.370 . S
C1657 C1661 1.408 1_655 S
C1658 C1656 1.363 . S
C1658 C1659 1.381 . S
C1658 C1662 1.524 1_556 S
C1659 C1651 1.503 . S
C1659 C1658 1.381 . S
C1659 C1660 1.393 1_655 S
C1660 C1659 1.393 1_455 S
C1660 C1661 1.404 . S
C1660 C1663 1.539 . S
C1661 C1657 1.408 1_455 S
C1661 C1660 1.404 . S
C1661 H1673 0.930 . S
C1662 C1658 1.524 1_554 S
C1662 H1674 0.956 . S
C1662 H1675 0.961 . S
C1662 H1676 0.961 . S
C1663 C1660 1.539 . S
C1663 H1677 0.958 . S
C1663 H1678 0.961 . S
C1663 H1679 0.960 . S
H1664 C1648 0.931 . S
H1665 C1653 0.929 . S
H1666 C1654 0.960 . S
H1667 C1654 0.962 . S
H1668 C1654 0.960 . S
H1669 C1655 0.961 1_554 S
H1670 C1655 0.961 . S
H1671 C1655 0.961 . S
H1672 C1656 0.931 1_554 S
H1673 C1661 0.930 . S
H1674 C1662 0.956 . S
H1675 C1662 0.961 . S
H1676 C1662 0.961 . S
H1677 C1663 0.958 . S
H1678 C1663 0.961 . S
H1679 C1663 0.960 . S
C1680 C1681 1.428 . S
C1680 C1682 1.394 . S
C1680 H1696 0.931 . S
C1681 C1680 1.428 . S
C1681 C1685 1.337 1_545 S
C1682 C1680 1.394 . S
C1682 C1683 1.352 1_545 S
C1682 C1686 1.531 . S
C1683 C1682 1.352 1_565 S
C1683 C1684 1.427 . S
C1683 C1691 1.503 1_565 S
C1684 C1683 1.427 . S
C1684 C1685 1.392 . S
C1684 C1687 1.511 . S
C1685 C1681 1.337 1_565 S
C1685 C1684 1.392 . S
C1685 H1697 0.929 . S
C1686 C1682 1.531 . S
C1686 H1698 0.960 . S
C1686 H1699 0.962 . S
C1686 H1700 0.960 . S
C1687 C1684 1.511 . S
C1687 H1701 0.961 . S
C1687 H1702 0.961 . S
C1687 H1703 0.961 . S
C1688 C1689 1.370 . S
C1688 C1690 1.363 . S
C1688 H1704 0.931 . S
C1689 C1688 1.370 . S
C1689 C1693 1.408 1_545 S
C1690 C1688 1.363 . S
C1690 C1691 1.371 . S
C1690 C1694 1.524 . S
C1691 C1683 1.503 1_545 S
C1691 C1690 1.371 . S
C1691 C1692 1.402 1_545 S
C1692 C1691 1.402 1_565 S
C1692 C1693 1.404 . S
C1692 C1695 1.539 . S
C1693 C1689 1.408 1_565 S
C1693 C1692 1.404 . S
C1693 H1705 0.930 . S
C1694 C1690 1.524 . S
C1694 H1706 0.956 . S
C1694 H1707 0.961 . S
C1694 H1708 0.961 . S
C1695 C1692 1.539 . S
C1695 H1709 0.958 . S
C1695 H1710 0.961 . S
C1695 H1711 0.960 . S
H1696 C1680 0.931 . S
H1697 C1685 0.929 . S
H1698 C1686 0.960 . S
H1699 C1686 0.962 . S
H1700 C1686 0.960 . S
H1701 C1687 0.961 . S
H1702 C1687 0.961 . S
H1703 C1687 0.961 . S
H1704 C1688 0.931 . S
H1705 C1693 0.930 . S
H1706 C1694 0.956 . S
H1707 C1694 0.961 . S
H1708 C1694 0.961 . S
H1709 C1695 0.958 . S
H1710 C1695 0.961 . S
H1711 C1695 0.960 . S
C1712 C1713 1.391 . S
C1712 C1714 1.394 . S
C1712 H1728 0.931 1_554 S
C1713 C1712 1.391 . S
C1713 C1717 1.376 . S
C1714 C1712 1.394 . S
C1714 C1715 1.369 . S
C1714 C1718 1.531 1_554 S
C1715 C1714 1.369 . S
C1715 C1716 1.410 . S
C1715 C1723 1.503 . S
C1716 C1715 1.410 . S
C1716 C1717 1.392 . S
C1716 C1719 1.511 . S
C1717 C1713 1.376 . S
C1717 C1716 1.392 . S
C1717 H1729 0.929 . S
C1718 C1714 1.531 1_556 S
C1718 H1730 0.960 . S
C1718 H1731 0.962 . S
C1718 H1732 0.960 . S
C1719 C1716 1.511 . S
C1719 H1733 0.961 . S
C1719 H1734 0.961 . S
C1719 H1735 0.961 . S
C1720 C1721 1.370 . S
C1720 C1722 1.363 . S
C1720 H1736 0.931 . S
C1721 C1720 1.370 . S
C1721 C1725 1.408 . S
C1722 C1720 1.363 . S
C1722 C1723 1.370 . S
C1722 C1726 1.524 . S
C1723 C1715 1.503 . S
C1723 C1722 1.370 . S
C1723 C1724 1.403 . S
C1724 C1723 1.403 . S
C1724 C1725 1.404 . S
C1724 C1727 1.539 1_554 S
C1725 C1721 1.408 . S
C1725 C1724 1.404 . S
C1725 H1737 0.930 1_554 S
C1726 C1722 1.524 . S
C1726 H1738 0.956 . S
C1726 H1739 0.961 . S
C1726 H1740 0.961 . S
C1727 C1724 1.539 1_556 S
C1727 H1741 0.958 . S
C1727 H1742 0.961 . S
C1727 H1743 0.960 . S
H1728 C1712 0.931 1_556 S
H1729 C1717 0.929 . S
H1730 C1718 0.960 . S
H1731 C1718 0.962 . S
H1732 C1718 0.960 . S
H1733 C1719 0.961 . S
H1734 C1719 0.961 . S
H1735 C1719 0.961 . S
H1736 C1720 0.931 . S
H1737 C1725 0.930 1_556 S
H1738 C1726 0.956 . S
H1739 C1726 0.961 . S
H1740 C1726 0.961 . S
H1741 C1727 0.958 . S
H1742 C1727 0.961 . S
H1743 C1727 0.960 . S
C1744 C1745 1.391 . S
C1744 C1746 1.394 . S
C1744 H1760 0.931 . S
C1745 C1744 1.391 . S
C1745 C1749 1.376 . S
C1746 C1744 1.394 . S
C1746 C1747 1.369 . S
C1746 C1750 1.531 . S
C1747 C1746 1.369 . S
C1747 C1748 1.410 . S
C1747 C1755 1.503 . S
C1748 C1747 1.410 . S
C1748 C1749 1.392 . S
C1748 C1751 1.511 . S
C1749 C1745 1.376 . S
C1749 C1748 1.392 . S
C1749 H1761 0.929 . S
C1750 C1746 1.531 . S
C1750 H1762 0.960 . S
C1750 H1763 0.962 . S
C1750 H1764 0.960 . S
C1751 C1748 1.511 . S
C1751 H1765 0.961 . S
C1751 H1766 0.961 . S
C1751 H1767 0.961 . S
C1752 C1753 1.370 . S
C1752 C1754 1.363 . S
C1752 H1768 0.931 . S
C1753 C1752 1.370 . S
C1753 C1757 1.408 . S
C1754 C1752 1.363 . S
C1754 C1755 1.370 . S
C1754 C1758 1.524 . S
C1755 C1747 1.503 . S
C1755 C1754 1.370 . S
C1755 C1756 1.403 . S
C1756 C1755 1.403 . S
C1756 C1757 1.404 . S
C1756 C1759 1.539 . S
C1757 C1753 1.408 . S
C1757 C1756 1.404 . S
C1757 H1769 0.930 . S
C1758 C1754 1.524 . S
C1758 H1770 0.956 . S
C1758 H1771 0.961 . S
C1758 H1772 0.961 . S
C1759 C1756 1.539 . S
C1759 H1773 0.958 . S
C1759 H1774 0.961 . S
C1759 H1775 0.960 . S
H1760 C1744 0.931 . S
H1761 C1749 0.929 . S
H1762 C1750 0.960 . S
H1763 C1750 0.962 . S
H1764 C1750 0.960 . S
H1765 C1751 0.961 . S
H1766 C1751 0.961 . S
H1767 C1751 0.961 . S
H1768 C1752 0.931 . S
H1769 C1757 0.930 . S
H1770 C1758 0.956 . S
H1771 C1758 0.961 . S
H1772 C1758 0.961 . S
H1773 C1759 0.958 . S
H1774 C1759 0.961 . S
H1775 C1759 0.960 . S
C1776 C1777 1.407 . S
C1776 C1778 1.394 . S
C1776 H1792 0.931 1_554 S
C1777 C1776 1.407 . S
C1777 C1781 1.358 1_455 S
C1778 C1776 1.394 . S
C1778 C1779 1.369 1_455 S
C1778 C1782 1.531 1_554 S
C1779 C1778 1.369 1_655 S
C1779 C1780 1.410 . S
C1779 C1787 1.505 . S
C1780 C1779 1.410 . S
C1780 C1781 1.392 . S
C1780 C1783 1.511 . S
C1781 C1777 1.358 1_655 S
C1781 C1780 1.392 . S
C1781 H1793 0.929 . S
C1782 C1778 1.531 1_556 S
C1782 H1794 0.960 . S
C1782 H1795 0.962 . S
C1782 H1796 0.960 . S
C1783 C1780 1.511 . S
C1783 H1797 0.961 . S
C1783 H1798 0.961 . S
C1783 H1799 0.961 . S
C1784 C1785 1.370 . S
C1784 C1786 1.363 . S
C1784 H1800 0.931 . S
C1785 C1784 1.370 . S
C1785 C1789 1.408 1_455 S
C1786 C1784 1.363 . S
C1786 C1787 1.350 1_455 S
C1786 C1790 1.524 . S
C1787 C1779 1.505 . S
C1787 C1786 1.350 1_655 S
C1787 C1788 1.422 . S
C1788 C1787 1.422 . S
C1788 C1789 1.404 . S
C1788 C1791 1.539 1_554 S
C1789 C1785 1.408 1_655 S
C1789 C1788 1.404 . S
C1789 H1801 0.930 1_554 S
C1790 C1786 1.524 . S
C1790 H1802 0.956 . S
C1790 H1803 0.961 . S
C1790 H1804 0.961 . S
C1791 C1788 1.539 1_556 S
C1791 H1805 0.958 . S
C1791 H1806 0.961 . S
C1791 H1807 0.960 . S
H1792 C1776 0.931 1_556 S
H1793 C1781 0.929 . S
H1794 C1782 0.960 . S
H1795 C1782 0.962 . S
H1796 C1782 0.960 . S
H1797 C1783 0.961 . S
H1798 C1783 0.961 . S
H1799 C1783 0.961 . S
H1800 C1784 0.931 . S
H1801 C1789 0.930 1_556 S
H1802 C1790 0.956 . S
H1803 C1790 0.961 . S
H1804 C1790 0.961 . S
H1805 C1791 0.958 . S
H1806 C1791 0.961 . S
H1807 C1791 0.960 . S
C529 C282 0.851 . S
C537 C18 0.895 . S
C561 C51 0.957 1_554 S
C569 C315 0.856 1_556 S
C593 C348 0.806 . S
C601 C84 0.918 . S
C625 C381 0.957 1_556 S
C633 C117 0.856 1_554 S
C657 C150 0.877 . S
C665 C414 0.895 . S
C689 C183 0.836 1_556 S
C697 C447 0.901 1_554 S
C721 C216 0.928 . S
C729 C480 0.863 . S
C753 C249 0.829 1_556 S
C761 C513 0.905 1_554 S
C785 C7 1.751 . S
C793 N508 1.807 . S
C817 C40 1.699 . S
C825 N409 1.801 . S
C849 C73 1.710 . S
C857 N442 1.807 . S
C881 N475 1.790 . S
C889 C106 1.722 . S
C913 C139 1.739 . S
C921 N310 1.808 . S
C945 C172 1.695 . S
C953 N343 1.803 . S
C977 N376 1.800 . S
C985 C205 1.718 . S
C1009 C238 1.742 . S
C1017 N277 1.802 . S
C1041 N244 1.808 . S
C1049 C271 1.737 . S
C1073 N145 1.797 . S
C1081 C304 1.717 . S
C1105 N178 1.791 . S
C1113 C337 1.721 . S
C1137 C370 1.707 . S
C1145 N211 1.801 . S
C1169 N46 1.807 . S
C1177 C403 1.738 . S
C1201 C436 1.700 . S
C1209 N79 1.801 . S
C1233 N112 1.796 . S
C1241 C469 1.740 . S
C1265 N13 1.801 . S
C1273 C502 1.741 . S
C1297 N233 0.471 . S
C1305 N2 0.621 . S
C1329 N134 0.548 . S
C1337 N35 0.559 . S
C1361 N68 0.540 . S
C1369 N167 0.636 . S
C1393 N200 0.689 . S
C1401 N101 0.543 . S
C1425 N497 0.468 . S
C1433 N266 0.627 . S
C1457 N299 0.689 . S
C1465 N398 0.538 . S
C1489 N332 0.688 . S
C1497 N431 0.575 . S
C1521 N365 0.696 . S
C1529 N464 0.568 . S
C1553 C21 1.058 1_565 S
C1561 C417 1.057 1_565 S
C1585 C54 1.039 . S
C1593 C450 1.053 . S
C1617 C87 1.046 . S
C1625 C483 1.056 . S
C1649 C120 1.038 1_655 S
C1657 C516 1.049 1_655 S
C1681 C153 1.035 1_545 S
C1689 C285 1.049 1_545 S
C1713 C186 1.082 . S
C1721 C318 1.072 . S
C1745 C219 1.075 . S
C1753 C351 1.070 . S
C1777 C384 1.051 1_455 S
C1785 C252 1.054 1_455 S
