# Generated by pormake.
# Topology mon, (4)-cn, num edge types: 1
# Building blocks:
#     Node 0, Type 0, BuildingBlock: CEKHIL_clean_sbu_0, # of connection points: 4
#     Node 1, Type 0, BuildingBlock: CEKHIL_clean_sbu_0, # of connection points: 4
#     Node 2, Type 0, BuildingBlock: CEKHIL_clean_sbu_0, # of connection points: 4
#     Node 3, Type 0, BuildingBlock: CEKHIL_clean_sbu_0, # of connection points: 4
#     Node 4, Type 0, BuildingBlock: CEKHIL_clean_sbu_0, # of connection points: 4
#     Node 5, Type 0, BuildingBlock: CEKHIL_clean_sbu_0, # of connection points: 4
#     Node 6, Type 0, BuildingBlock: CEKHIL_clean_sbu_0, # of connection points: 4
#     Node 7, Type 0, BuildingBlock: CEKHIL_clean_sbu_0, # of connection points: 4
#     Node 8, Type 0, BuildingBlock: CEKHIL_clean_sbu_0, # of connection points: 4
#     Node 9, Type 0, BuildingBlock: CEKHIL_clean_sbu_0, # of connection points: 4
#     Node 10, Type 0, BuildingBlock: CEKHIL_clean_sbu_0, # of connection points: 4
#     Node 11, Type 0, BuildingBlock: CEKHIL_clean_sbu_0, # of connection points: 4
#     Node 12, Type 0, BuildingBlock: CEKHIL_clean_sbu_0, # of connection points: 4
#     Node 13, Type 0, BuildingBlock: CEKHIL_clean_sbu_0, # of connection points: 4
#     Node 14, Type 0, BuildingBlock: CEKHIL_clean_sbu_0, # of connection points: 4
#     Node 15, Type 0, BuildingBlock: CEKHIL_clean_sbu_0, # of connection points: 4
#     Edge 16, Type (0, 0), BuildingBlock: EYOCIG_clean_linker_4, # of connection points: 2
#     Edge 17, Type (0, 0), BuildingBlock: EYOCIG_clean_linker_4, # of connection points: 2
#     Edge 18, Type (0, 0), BuildingBlock: EYOCIG_clean_linker_4, # of connection points: 2
#     Edge 19, Type (0, 0), BuildingBlock: EYOCIG_clean_linker_4, # of connection points: 2
#     Edge 20, Type (0, 0), BuildingBlock: EYOCIG_clean_linker_4, # of connection points: 2
#     Edge 21, Type (0, 0), BuildingBlock: EYOCIG_clean_linker_4, # of connection points: 2
#     Edge 22, Type (0, 0), BuildingBlock: EYOCIG_clean_linker_4, # of connection points: 2
#     Edge 23, Type (0, 0), BuildingBlock: EYOCIG_clean_linker_4, # of connection points: 2
#     Edge 24, Type (0, 0), BuildingBlock: EYOCIG_clean_linker_4, # of connection points: 2
#     Edge 25, Type (0, 0), BuildingBlock: EYOCIG_clean_linker_4, # of connection points: 2
#     Edge 26, Type (0, 0), BuildingBlock: EYOCIG_clean_linker_4, # of connection points: 2
#     Edge 27, Type (0, 0), BuildingBlock: EYOCIG_clean_linker_4, # of connection points: 2
#     Edge 28, Type (0, 0), BuildingBlock: EYOCIG_clean_linker_4, # of connection points: 2
#     Edge 29, Type (0, 0), BuildingBlock: EYOCIG_clean_linker_4, # of connection points: 2
#     Edge 30, Type (0, 0), BuildingBlock: EYOCIG_clean_linker_4, # of connection points: 2
#     Edge 31, Type (0, 0), BuildingBlock: EYOCIG_clean_linker_4, # of connection points: 2
#     Edge 32, Type (0, 0), BuildingBlock: EYOCIG_clean_linker_4, # of connection points: 2
#     Edge 33, Type (0, 0), BuildingBlock: EYOCIG_clean_linker_4, # of connection points: 2
#     Edge 34, Type (0, 0), BuildingBlock: EYOCIG_clean_linker_4, # of connection points: 2
#     Edge 35, Type (0, 0), BuildingBlock: EYOCIG_clean_linker_4, # of connection points: 2
#     Edge 36, Type (0, 0), BuildingBlock: EYOCIG_clean_linker_4, # of connection points: 2
#     Edge 37, Type (0, 0), BuildingBlock: EYOCIG_clean_linker_4, # of connection points: 2
#     Edge 38, Type (0, 0), BuildingBlock: EYOCIG_clean_linker_4, # of connection points: 2
#     Edge 39, Type (0, 0), BuildingBlock: EYOCIG_clean_linker_4, # of connection points: 2
#     Edge 40, Type (0, 0), BuildingBlock: EYOCIG_clean_linker_4, # of connection points: 2
#     Edge 41, Type (0, 0), BuildingBlock: EYOCIG_clean_linker_4, # of connection points: 2
#     Edge 42, Type (0, 0), BuildingBlock: EYOCIG_clean_linker_4, # of connection points: 2
#     Edge 43, Type (0, 0), BuildingBlock: EYOCIG_clean_linker_4, # of connection points: 2
#     Edge 44, Type (0, 0), BuildingBlock: EYOCIG_clean_linker_4, # of connection points: 2
#     Edge 45, Type (0, 0), BuildingBlock: EYOCIG_clean_linker_4, # of connection points: 2
#     Edge 46, Type (0, 0), BuildingBlock: EYOCIG_clean_linker_4, # of connection points: 2
#     Edge 47, Type (0, 0), BuildingBlock: EYOCIG_clean_linker_4, # of connection points: 2
# Relax obj value: 0.188
# Max RMSD: 0.179
# Mean RMSD: 0.179
data_MOF--net-mon--node1-CEKHIL_clean_sbu_0--edge1-EYOCIG_clean_linker_4
_symmetry_space_group_name_H-M    P1
_symmetry_Int_Tables_number       1
_symmetry_cell_setting            triclinic
loop_
_symmetry_equiv_pos_as_xyz
'x, y, z'
_cell_length_a     26.302757
_cell_length_b     26.304278
_cell_length_c     66.723436
_cell_angle_alpha  90.004882
_cell_angle_beta   89.997825
_cell_angle_gamma 89.99562
loop_
_atom_site_label
_atom_site_type_symbol
_atom_site_fract_x
_atom_site_fract_y
_atom_site_fract_z
_atom_type_partial_charge
Co0 Co 0.04116 0.04398 0.58659 0.0
O1 O 0.07431 0.10669 0.57897 0.0
O2 O 0.99725 0.10095 0.59233 0.0
C3 C 0.10842 0.00901 0.60237 0.0
O4 O 0.99471 0.9883 0.59725 0.0
Co5 Co 0.07835 0.9375 0.5719 0.0
O6 O 0.02775 0.91083 0.59115 0.0
C7 C 0.02128 1.00471 0.54446 0.0
C8 C 0.03355 0.12931 0.58538 0.0
C9 C 0.99436 0.93967 0.59893 0.0
O10 O 0.01147 0.03656 0.55865 0.0
O11 O 0.05017 0.966 0.54645 0.0
O12 O 0.08018 0.04194 0.6117 0.0
O13 O 0.09794 1.00154 0.58379 0.0
Co14 Co 0.23252 0.77658 0.83674 0.0
O15 O 0.16977 0.80972 0.82916 0.0
O16 O 0.17561 0.73259 0.84245 0.0
C17 C 0.26741 0.84379 0.85257 0.0
O18 O 0.28826 0.73012 0.84735 0.0
Co19 Co 0.33897 0.81394 0.82209 0.0
O20 O 0.36571 0.76324 0.84128 0.0
C21 C 0.27179 0.75702 0.79459 0.0
C22 C 0.1472 0.76891 0.83554 0.0
C23 C 0.33689 0.72979 0.84903 0.0
O24 O 0.23996 0.74707 0.80876 0.0
O25 O 0.31047 0.78593 0.7966 0.0
O26 O 0.23453 0.81546 0.86189 0.0
O27 O 0.27489 0.83341 0.83398 0.0
Co28 Co 0.50043 0.96865 0.08654 0.0
O29 O 0.46729 0.90589 0.07897 0.0
O30 O 0.54432 0.91172 0.09235 0.0
C31 C 0.43314 1.00372 0.10226 0.0
O32 O 0.54685 0.02441 0.09716 0.0
Co33 Co 0.4633 0.07503 0.07173 0.0
O34 O 0.51384 0.10184 0.09097 0.0
C35 C 0.52036 0.00759 0.04436 0.0
C36 C 0.50804 0.88332 0.08541 0.0
C37 C 0.54719 0.07305 0.0988 0.0
O38 O 0.53018 0.97587 0.05859 0.0
O39 O 0.49145 0.0463 0.0463 0.0
O40 O 0.46136 0.97086 0.11163 0.0
O41 O 0.44365 0.01107 0.08367 0.0
Co42 Co 0.30824 0.2363 0.33666 0.0
O43 O 0.37104 0.20321 0.32911 0.0
O44 O 0.36511 0.28032 0.34242 0.0
C45 C 0.27329 0.16909 0.35246 0.0
O46 O 0.25244 0.28271 0.34725 0.0
Co47 Co 0.20189 0.19893 0.32192 0.0
O48 O 0.17505 0.24952 0.34114 0.0
C49 C 0.26921 0.25587 0.29448 0.0
C50 C 0.39356 0.24403 0.33551 0.0
C51 C 0.2038 0.28297 0.34892 0.0
O52 O 0.30093 0.26585 0.30869 0.0
O53 O 0.23054 0.22693 0.29645 0.0
O54 O 0.30613 0.19741 0.3618 0.0
O55 O 0.2659 0.17947 0.33386 0.0
Co56 Co 0.04062 0.96858 0.40667 0.0
O57 O 0.07387 0.90584 0.41418 0.0
O58 O 0.99676 0.91163 0.40086 0.0
C59 C 0.10779 1.00377 0.39092 0.0
O60 O 0.99406 0.0243 0.39612 0.0
Co61 Co 0.07766 0.07495 0.42152 0.0
O62 O 0.02693 0.10177 0.40235 0.0
C63 C 0.02087 0.00733 0.44889 0.0
C64 C 0.03312 0.88325 0.40776 0.0
C65 C 0.99359 0.07295 0.39453 0.0
O66 O 0.01099 0.97566 0.43465 0.0
O67 O 0.04972 0.04608 0.44695 0.0
O68 O 0.07956 0.97092 0.38155 0.0
O69 O 0.09734 0.01106 0.40952 0.0
Co70 Co 0.30872 0.77644 0.65677 0.0
O71 O 0.3715 0.80964 0.66428 0.0
O72 O 0.36564 0.73248 0.65101 0.0
C73 C 0.27366 0.84359 0.64096 0.0
O74 O 0.25297 0.72991 0.64622 0.0
Co75 Co 0.20232 0.8137 0.67152 0.0
O76 O 0.17552 0.76293 0.65236 0.0
C77 C 0.26974 0.7569 0.69897 0.0
C78 C 0.39406 0.76883 0.65789 0.0
C79 C 0.20433 0.72951 0.64459 0.0
O80 O 0.30149 0.74696 0.68476 0.0
O81 O 0.23101 0.78578 0.69698 0.0
O82 O 0.30651 0.81527 0.63162 0.0
O83 O 0.2663 0.83324 0.65956 0.0
Co84 Co 0.5003 0.04407 0.90668 0.0
O85 O 0.46721 0.10683 0.91429 0.0
O86 O 0.54419 0.101 0.90086 0.0
C87 C 0.43293 0.0091 0.89099 0.0
O88 O 0.54667 0.98833 0.896 0.0
Co89 Co 0.46319 0.93766 0.92145 0.0
O90 O 0.51366 0.91089 0.90216 0.0
C91 C 0.52034 1.005 0.94882 0.0
C92 C 0.50794 0.1294 0.90783 0.0
C93 C 0.547 0.9397 0.89434 0.0
O94 O 0.53015 0.03676 0.9346 0.0
O95 O 0.49142 0.9663 0.94687 0.0
O96 O 0.46113 0.04196 0.88161 0.0
O97 O 0.44353 1.00168 0.90956 0.0
Co98 Co 0.23279 0.23626 0.15666 0.0
O99 O 0.17002 0.20308 0.16418 0.0
O100 O 0.17587 0.28024 0.15092 0.0
C101 C 0.2678 0.1691 0.14082 0.0
O102 O 0.28856 0.28275 0.14609 0.0
Co103 Co 0.33916 0.19892 0.17139 0.0
O104 O 0.36599 0.24962 0.15221 0.0
C105 C 0.27181 0.25578 0.19885 0.0
C106 C 0.14745 0.2439 0.1578 0.0
C107 C 0.33721 0.28307 0.14445 0.0
O108 O 0.24006 0.26573 0.18465 0.0
O109 O 0.31051 0.22688 0.19686 0.0
O110 O 0.23495 0.19744 0.1315 0.0
O111 O 0.27518 0.17944 0.15943 0.0
Co112 Co 0.80842 0.27669 0.15666 0.0
O113 O 0.87122 0.30984 0.16417 0.0
O114 O 0.86531 0.23267 0.15092 0.0
C115 C 0.77346 0.34386 0.14083 0.0
O116 O 0.75262 0.23022 0.14611 0.0
Co117 Co 0.70206 0.31411 0.17139 0.0
O118 O 0.67521 0.2634 0.15222 0.0
C119 C 0.76944 0.25735 0.19887 0.0
C120 C 0.89376 0.269 0.1578 0.0
C121 C 0.70397 0.22992 0.14446 0.0
O122 O 0.80114 0.24728 0.18466 0.0
O123 O 0.73076 0.28628 0.19687 0.0
O124 O 0.80628 0.31549 0.1315 0.0
O125 O 0.76607 0.33354 0.15943 0.0
Co126 Co 0.73305 0.73582 0.65655 0.0
O127 O 0.67025 0.70269 0.66408 0.0
O128 O 0.67616 0.77983 0.6508 0.0
C129 C 0.76805 0.66863 0.64074 0.0
O130 O 0.78884 0.78228 0.646 0.0
Co131 Co 0.83939 0.69844 0.67131 0.0
O132 O 0.86626 0.74923 0.65219 0.0
C133 C 0.77203 0.75539 0.69874 0.0
C134 C 0.64772 0.74352 0.6577 0.0
C135 C 0.83749 0.78266 0.6444 0.0
O136 O 0.7403 0.76533 0.68453 0.0
O137 O 0.81072 0.72646 0.69677 0.0
O138 O 0.73522 0.69696 0.63141 0.0
O139 O 0.77541 0.67898 0.65934 0.0
Co140 Co 0.73253 0.27687 0.33671 0.0
O141 O 0.66982 0.31011 0.32915 0.0
O142 O 0.67557 0.23291 0.34238 0.0
C143 C 0.76749 0.34394 0.3526 0.0
O144 O 0.78819 0.23029 0.3473 0.0
Co145 Co 0.83903 0.31413 0.3221 0.0
O146 O 0.86568 0.26337 0.34129 0.0
C147 C 0.77179 0.25746 0.29454 0.0
C148 C 0.64721 0.26929 0.3355 0.0
C149 C 0.83682 0.22992 0.349 0.0
O150 O 0.73995 0.24748 0.30871 0.0
O151 O 0.81051 0.28631 0.29658 0.0
O152 O 0.73457 0.31561 0.36189 0.0
O153 O 0.77498 0.33366 0.334 0.0
Co154 Co 0.80822 0.73598 0.83653 0.0
O155 O 0.87103 0.70284 0.82902 0.0
O156 O 0.86509 0.77995 0.84233 0.0
C157 C 0.77318 0.66875 0.8523 0.0
O158 O 0.7524 0.78243 0.84709 0.0
Co159 Co 0.7019 0.69867 0.82172 0.0
O160 O 0.67499 0.74938 0.84088 0.0
C161 C 0.76937 0.75559 0.79433 0.0
C162 C 0.89355 0.74365 0.83544 0.0
C163 C 0.70375 0.78279 0.84869 0.0
O164 O 0.80104 0.76554 0.80856 0.0
O165 O 0.73067 0.72666 0.79628 0.0
O166 O 0.80598 0.69706 0.86166 0.0
O167 O 0.76586 0.67916 0.8337 0.0
Co168 Co 0.54086 0.54431 0.0866 0.0
O169 O 0.57399 0.60708 0.07904 0.0
O170 O 0.4969 0.60122 0.09237 0.0
C171 C 0.60812 0.50932 0.10236 0.0
O172 O 0.49443 0.48855 0.09721 0.0
Co173 Co 0.57813 0.43791 0.07185 0.0
O174 O 0.52751 0.41112 0.09107 0.0
C175 C 0.52119 0.50527 0.04442 0.0
C176 C 0.5332 0.62964 0.08545 0.0
C177 C 0.4941 0.43991 0.09886 0.0
O178 O 0.51125 0.53701 0.05863 0.0
O179 O 0.55012 0.46658 0.0464 0.0
O180 O 0.57984 0.54217 0.11172 0.0
O181 O 0.59767 0.50192 0.08377 0.0
Co182 Co 1.00089 0.46833 0.58655 0.0
O183 O 0.96777 0.40561 0.57891 0.0
O184 O 0.04476 0.41135 0.59232 0.0
C185 C 0.93354 0.50328 0.60228 0.0
O186 O 0.0473 0.52399 0.59725 0.0
Co187 Co 0.9638 0.57483 0.57187 0.0
O188 O 0.01434 0.60149 0.59114 0.0
C189 C 0.02093 0.5076 0.54444 0.0
C190 C 0.00849 0.38299 0.58534 0.0
C191 C 0.04767 0.57262 0.59894 0.0
O192 O 0.03071 0.47575 0.55863 0.0
O193 O 0.99203 0.54631 0.54642 0.0
O194 O 0.96174 0.47036 0.61163 0.0
O195 O 0.94413 0.51077 0.58371 0.0
Co196 Co 0.54072 0.46837 0.90664 0.0
O197 O 0.57389 0.4056 0.91417 0.0
O198 O 0.49672 0.41147 0.90091 0.0
C199 C 0.60788 0.50332 0.89079 0.0
O200 O 0.49423 0.52414 0.89608 0.0
Co201 Co 0.57812 0.57476 0.92134 0.0
O202 O 0.52734 0.60156 0.90219 0.0
C203 C 0.52124 0.50748 0.94882 0.0
C204 C 0.53307 0.38305 0.9078 0.0
C205 C 0.49388 0.57278 0.89444 0.0
O206 O 0.51127 0.4757 0.93463 0.0
O207 O 0.55015 0.54617 0.94682 0.0
O208 O 0.57953 0.47048 0.88148 0.0
O209 O 0.59756 0.51074 0.9094 0.0
Co210 Co 1.00033 0.54428 0.40678 0.0
O211 O 0.96728 0.60711 0.41432 0.0
O212 O 0.04426 0.60113 0.40089 0.0
C213 C 0.93295 0.50922 0.39112 0.0
O214 O 0.04666 0.48844 0.39617 0.0
Co215 Co 0.96314 0.43802 0.42169 0.0
O216 O 0.01366 0.41106 0.40247 0.0
C217 C 0.02047 0.50548 0.44895 0.0
C218 C 0.00803 0.6296 0.40783 0.0
C219 C 0.047 0.43979 0.3946 0.0
O220 O 0.03021 0.53716 0.4347 0.0
O221 O 0.99152 0.46679 0.44706 0.0
O222 O 0.96117 0.542 0.38171 0.0
O223 O 0.94353 0.50194 0.40971 0.0
C224 C 0.02395 0.22941 0.58461 0.0
C225 C 0.02875 0.18376 0.58489 0.0
C226 C 0.01808 0.28289 0.5846 0.0
C227 C 0.01328 0.32853 0.58487 0.0
C228 C 0.99364 0.75333 0.83477 0.0
C229 C 0.948 0.7485 0.83501 0.0
C230 C 0.04711 0.75924 0.83479 0.0
C231 C 0.09275 0.76407 0.83506 0.0
C232 C 0.52354 0.72974 0.08474 0.0
C233 C 0.52836 0.68409 0.08499 0.0
C234 C 0.51765 0.78321 0.08473 0.0
C235 C 0.51285 0.82886 0.08497 0.0
C236 C 0.54711 0.25971 0.33477 0.0
C237 C 0.59275 0.26452 0.33503 0.0
C238 C 0.49364 0.25379 0.33477 0.0
C239 C 0.448 0.24892 0.33504 0.0
C240 C 0.02359 0.78315 0.40844 0.0
C241 C 0.02835 0.8288 0.4082 0.0
C242 C 0.01772 0.72969 0.40846 0.0
C243 C 0.0129 0.68405 0.40824 0.0
C244 C 0.49416 0.75921 0.65852 0.0
C245 C 0.44852 0.76403 0.6583 0.0
C246 C 0.54763 0.75328 0.65847 0.0
C247 C 0.59327 0.74842 0.65819 0.0
C248 C 0.52343 0.28296 0.90852 0.0
C249 C 0.52823 0.3286 0.90826 0.0
C250 C 0.51755 0.22949 0.90853 0.0
C251 C 0.51275 0.18385 0.90828 0.0
C252 C 0.04734 0.25349 0.15849 0.0
C253 C 0.09299 0.2487 0.15824 0.0
C254 C 0.99386 0.25935 0.15849 0.0
C255 C 0.94821 0.26415 0.15824 0.0
C256 C 0.99016 1.00239 0.48618 0.0
C257 C 1.0004 0.99934 0.46859 0.0
C258 C 0.99027 0.00927 0.50719 0.0
C259 C 1.00068 0.01245 0.52477 0.0
C260 C 0.26735 0.72624 0.75729 0.0
C261 C 0.2641 0.73653 0.77487 0.0
C262 C 0.27438 0.72621 0.73627 0.0
C263 C 0.27756 0.73645 0.71868 0.0
C264 C 0.55132 1.0028 0.0071 0.0
C265 C 0.54095 0.99969 0.02468 0.0
C266 C 0.55132 0.00969 0.98608 0.0
C267 C 0.54096 0.01284 0.9685 0.0
C268 C 0.26708 0.28653 0.23615 0.0
C269 C 0.26398 0.27624 0.21857 0.0
C270 C 0.27395 0.28657 0.25717 0.0
C271 C 0.27705 0.27632 0.27476 0.0
C272 C 0.77415 0.22681 0.23619 0.0
C273 C 0.77727 0.23699 0.2186 0.0
C274 C 0.76723 0.22686 0.25721 0.0
C275 C 0.76406 0.2371 0.2748 0.0
C276 C 0.76732 0.78627 0.73602 0.0
C277 C 0.76421 0.77592 0.71844 0.0
C278 C 0.77419 0.78633 0.75704 0.0
C279 C 0.77727 0.77607 0.77463 0.0
C280 C 0.49045 0.50293 0.98612 0.0
C281 C 0.50075 0.49974 0.96853 0.0
C282 C 0.49042 0.50991 0.00713 0.0
C283 C 0.50069 0.51308 0.02472 0.0
C284 C 0.05187 0.50314 0.50717 0.0
C285 C 0.04154 0.49987 0.52475 0.0
C286 C 0.05177 0.51018 0.48617 0.0
C287 C 0.04128 0.51335 0.4686 0.0
C288 C 0.21401 0.91302 0.62485 0.0
C289 C 0.2427 0.88086 0.63104 0.0
C290 C 0.17779 0.94929 0.61848 0.0
C291 C 0.14566 0.97802 0.61229 0.0
C292 C 0.32703 0.91322 0.86868 0.0
C293 C 0.29832 0.88105 0.86251 0.0
C294 C 0.36333 0.94946 0.875 0.0
C295 C 0.39555 0.97815 0.88113 0.0
C296 C 0.3637 0.06348 0.11831 0.0
C297 C 0.39585 0.03475 0.11214 0.0
C298 C 0.32747 0.09973 0.12469 0.0
C299 C 0.29877 0.13187 0.13089 0.0
C300 C 0.17726 0.06351 0.3749 0.0
C301 C 0.14508 0.03479 0.38105 0.0
C302 C 0.21354 0.09974 0.36856 0.0
C303 C 0.24229 0.13186 0.36238 0.0
C304 C 0.91972 0.12171 0.37625 0.0
C305 C 0.95212 0.09676 0.38432 0.0
C306 C 0.88548 0.15598 0.36729 0.0
C307 C 0.86057 0.1884 0.35921 0.0
C308 C 0.6209 0.12187 0.11717 0.0
C309 C 0.58858 0.0969 0.10906 0.0
C310 C 0.65512 0.15611 0.12616 0.0
C311 C 0.68009 0.18848 0.13424 0.0
C312 C 0.6549 0.85663 0.86696 0.0
C313 C 0.67986 0.82423 0.85889 0.0
C314 C 0.62069 0.8909 0.87595 0.0
C315 C 0.58838 0.91587 0.88407 0.0
C316 C 0.88633 0.8566 0.62619 0.0
C317 C 0.86137 0.82416 0.63423 0.0
C318 C 0.92056 0.8909 0.61725 0.0
C319 C 0.95291 0.91588 0.60917 0.0
C320 C 0.71382 0.41331 0.12474 0.0
C321 C 0.74252 0.38113 0.1309 0.0
C322 C 0.67757 0.4496 0.11841 0.0
C323 C 0.6454 0.47834 0.11226 0.0
C324 C 0.82714 0.41325 0.36878 0.0
C325 C 0.79843 0.38114 0.36257 0.0
C326 C 0.86342 0.44947 0.37514 0.0
C327 C 0.89561 0.47818 0.38129 0.0
C328 C 0.86402 0.56294 0.61832 0.0
C329 C 0.89621 0.53423 0.61217 0.0
C330 C 0.82775 0.59921 0.62465 0.0
C331 C 0.79902 0.63137 0.63082 0.0
C332 C 0.71349 0.59928 0.86834 0.0
C333 C 0.7422 0.63146 0.86218 0.0
C334 C 0.67725 0.563 0.87468 0.0
C335 C 0.64511 0.53428 0.88086 0.0
C336 C 0.41995 0.62161 0.87622 0.0
C337 C 0.45237 0.59663 0.88426 0.0
C338 C 0.38567 0.65589 0.86729 0.0
C339 C 0.36071 0.68829 0.85923 0.0
C340 C 0.12141 0.62132 0.61733 0.0
C341 C 0.08908 0.59638 0.60921 0.0
C342 C 0.1556 0.6556 0.62632 0.0
C343 C 0.18052 0.68802 0.63439 0.0
C344 C 0.1207 0.3909 0.37625 0.0
C345 C 0.08836 0.41587 0.38435 0.0
C346 C 0.15494 0.35669 0.36726 0.0
C347 C 0.17992 0.32436 0.35916 0.0
C348 C 0.42031 0.39112 0.11718 0.0
C349 C 0.45267 0.41607 0.10909 0.0
C350 C 0.38605 0.35689 0.12616 0.0
C351 C 0.36107 0.32452 0.13423 0.0
loop_
_geom_bond_atom_site_label_1
_geom_bond_atom_site_label_2
_geom_bond_distance
_geom_bond_site_symmetry_2
_ccdc_geom_bond_type
Co0 O1 2.216 . S
Co0 O2 2.091 1_455 S
Co0 O4 2.004 1_455 S
Co0 O10 2.021 1_455 S
Co0 O12 2.137 . S
Co0 O13 2.244 1_545 S
O1 Co0 2.216 . S
O1 C8 1.247 . S
O2 Co0 2.091 1_655 S
O2 C8 1.261 1_655 S
C3 O12 1.247 1_565 S
C3 O13 1.272 . S
O4 Co0 2.004 1_655 S
O4 C9 1.259 1_545 S
Co5 O6 2.061 1_455 S
Co5 O11 2.052 . S
Co5 O13 2.135 . S
O6 Co5 2.061 1_655 S
O6 C9 1.235 . S
C7 O10 1.238 1_455 S
C7 O11 1.241 1_545 S
C8 O1 1.247 . S
C8 O2 1.261 1_455 S
C9 O4 1.259 1_565 S
C9 O6 1.235 . S
O10 Co0 2.021 1_655 S
O10 C7 1.238 1_655 S
O11 Co5 2.052 . S
O11 C7 1.241 1_565 S
O12 Co0 2.137 . S
O12 C3 1.247 1_545 S
O13 Co0 2.244 1_565 S
O13 C3 1.272 . S
O13 Co5 2.135 . S
Co14 O15 2.216 . S
Co14 O16 2.091 . S
Co14 O18 2.004 . S
Co14 O24 2.021 . S
Co14 O26 2.137 . S
Co14 O27 2.244 . S
O15 Co14 2.216 . S
O15 C22 1.247 . S
O16 Co14 2.091 . S
O16 C22 1.261 . S
C17 O26 1.247 . S
C17 O27 1.272 . S
O18 Co14 2.004 . S
O18 C23 1.259 . S
Co19 O20 2.061 . S
Co19 O25 2.052 . S
Co19 O27 2.135 . S
O20 Co19 2.061 . S
O20 C23 1.235 . S
C21 O24 1.238 . S
C21 O25 1.241 . S
C22 O15 1.247 . S
C22 O16 1.261 . S
C23 O18 1.259 . S
C23 O20 1.235 . S
O24 Co14 2.021 . S
O24 C21 1.238 . S
O25 Co19 2.052 . S
O25 C21 1.241 . S
O26 Co14 2.137 . S
O26 C17 1.247 . S
O27 Co14 2.244 . S
O27 C17 1.272 . S
O27 Co19 2.135 . S
Co28 O29 2.216 . S
Co28 O30 2.091 . S
Co28 O32 2.004 . S
Co28 O38 2.021 . S
Co28 O40 2.137 . S
Co28 O41 2.244 1_565 S
O29 Co28 2.216 . S
O29 C36 1.247 . S
O30 Co28 2.091 . S
O30 C36 1.261 . S
C31 O40 1.247 1_545 S
C31 O41 1.272 . S
O32 Co28 2.004 . S
O32 C37 1.259 1_565 S
Co33 O34 2.061 . S
Co33 O39 2.052 . S
Co33 O41 2.135 . S
O34 Co33 2.061 . S
O34 C37 1.235 . S
C35 O38 1.238 . S
C35 O39 1.241 1_565 S
C36 O29 1.247 . S
C36 O30 1.261 . S
C37 O32 1.259 1_545 S
C37 O34 1.235 . S
O38 Co28 2.021 . S
O38 C35 1.238 . S
O39 Co33 2.052 . S
O39 C35 1.241 1_545 S
O40 Co28 2.137 . S
O40 C31 1.247 1_565 S
O41 Co28 2.244 1_545 S
O41 C31 1.272 . S
O41 Co33 2.135 . S
Co42 O43 2.216 . S
Co42 O44 2.091 . S
Co42 O46 2.004 . S
Co42 O52 2.021 . S
Co42 O54 2.137 . S
Co42 O55 2.244 . S
O43 Co42 2.216 . S
O43 C50 1.247 . S
O44 Co42 2.091 . S
O44 C50 1.261 . S
C45 O54 1.247 . S
C45 O55 1.272 . S
O46 Co42 2.004 . S
O46 C51 1.259 . S
Co47 O48 2.061 . S
Co47 O53 2.052 . S
Co47 O55 2.135 . S
O48 Co47 2.061 . S
O48 C51 1.235 . S
C49 O52 1.238 . S
C49 O53 1.241 . S
C50 O43 1.247 . S
C50 O44 1.261 . S
C51 O46 1.259 . S
C51 O48 1.235 . S
O52 Co42 2.021 . S
O52 C49 1.238 . S
O53 Co47 2.052 . S
O53 C49 1.241 . S
O54 Co42 2.137 . S
O54 C45 1.247 . S
O55 Co42 2.244 . S
O55 C45 1.272 . S
O55 Co47 2.135 . S
Co56 O57 2.216 . S
Co56 O58 2.091 1_455 S
Co56 O60 2.004 1_455 S
Co56 O66 2.021 1_455 S
Co56 O68 2.137 . S
Co56 O69 2.244 1_565 S
O57 Co56 2.216 . S
O57 C64 1.247 . S
O58 Co56 2.091 1_655 S
O58 C64 1.261 1_655 S
C59 O68 1.247 1_545 S
C59 O69 1.272 . S
O60 Co56 2.004 1_655 S
O60 C65 1.259 1_565 S
Co61 O62 2.061 1_455 S
Co61 O67 2.052 . S
Co61 O69 2.135 . S
O62 Co61 2.061 1_655 S
O62 C65 1.235 . S
C63 O66 1.238 1_455 S
C63 O67 1.241 1_565 S
C64 O57 1.247 . S
C64 O58 1.261 1_455 S
C65 O60 1.259 1_545 S
C65 O62 1.235 . S
O66 Co56 2.021 1_655 S
O66 C63 1.238 1_655 S
O67 Co61 2.052 . S
O67 C63 1.241 1_545 S
O68 Co56 2.137 . S
O68 C59 1.247 1_565 S
O69 Co56 2.244 1_545 S
O69 C59 1.272 . S
O69 Co61 2.135 . S
Co70 O71 2.216 . S
Co70 O72 2.091 . S
Co70 O74 2.004 . S
Co70 O80 2.021 . S
Co70 O82 2.137 . S
Co70 O83 2.244 . S
O71 Co70 2.216 . S
O71 C78 1.247 . S
O72 Co70 2.091 . S
O72 C78 1.261 . S
C73 O82 1.247 . S
C73 O83 1.272 . S
O74 Co70 2.004 . S
O74 C79 1.259 . S
Co75 O76 2.061 . S
Co75 O81 2.052 . S
Co75 O83 2.135 . S
O76 Co75 2.061 . S
O76 C79 1.235 . S
C77 O80 1.238 . S
C77 O81 1.241 . S
C78 O71 1.247 . S
C78 O72 1.261 . S
C79 O74 1.259 . S
C79 O76 1.235 . S
O80 Co70 2.021 . S
O80 C77 1.238 . S
O81 Co75 2.052 . S
O81 C77 1.241 . S
O82 Co70 2.137 . S
O82 C73 1.247 . S
O83 Co70 2.244 . S
O83 C73 1.272 . S
O83 Co75 2.135 . S
Co84 O85 2.216 . S
Co84 O86 2.091 . S
Co84 O88 2.004 . S
Co84 O94 2.021 . S
Co84 O96 2.137 . S
Co84 O97 2.244 1_545 S
O85 Co84 2.216 . S
O85 C92 1.247 . S
O86 Co84 2.091 . S
O86 C92 1.261 . S
C87 O96 1.247 1_565 S
C87 O97 1.272 . S
O88 Co84 2.004 . S
O88 C93 1.259 1_545 S
Co89 O90 2.061 . S
Co89 O95 2.052 . S
Co89 O97 2.135 . S
O90 Co89 2.061 . S
O90 C93 1.235 . S
C91 O94 1.238 . S
C91 O95 1.241 1_545 S
C92 O85 1.247 . S
C92 O86 1.261 . S
C93 O88 1.259 1_565 S
C93 O90 1.235 . S
O94 Co84 2.021 . S
O94 C91 1.238 . S
O95 Co89 2.052 . S
O95 C91 1.241 1_565 S
O96 Co84 2.137 . S
O96 C87 1.247 1_545 S
O97 Co84 2.244 1_565 S
O97 C87 1.272 . S
O97 Co89 2.135 . S
Co98 O99 2.216 . S
Co98 O100 2.091 . S
Co98 O102 2.004 . S
Co98 O108 2.021 . S
Co98 O110 2.137 . S
Co98 O111 2.244 . S
O99 Co98 2.216 . S
O99 C106 1.247 . S
O100 Co98 2.091 . S
O100 C106 1.261 . S
C101 O110 1.247 . S
C101 O111 1.272 . S
O102 Co98 2.004 . S
O102 C107 1.259 . S
Co103 O104 2.061 . S
Co103 O109 2.052 . S
Co103 O111 2.135 . S
O104 Co103 2.061 . S
O104 C107 1.235 . S
C105 O108 1.238 . S
C105 O109 1.241 . S
C106 O99 1.247 . S
C106 O100 1.261 . S
C107 O102 1.259 . S
C107 O104 1.235 . S
O108 Co98 2.021 . S
O108 C105 1.238 . S
O109 Co103 2.052 . S
O109 C105 1.241 . S
O110 Co98 2.137 . S
O110 C101 1.247 . S
O111 Co98 2.244 . S
O111 C101 1.272 . S
O111 Co103 2.135 . S
Co112 O113 2.216 . S
Co112 O114 2.091 . S
Co112 O116 2.004 . S
Co112 O122 2.021 . S
Co112 O124 2.137 . S
Co112 O125 2.244 . S
O113 Co112 2.216 . S
O113 C120 1.247 . S
O114 Co112 2.091 . S
O114 C120 1.261 . S
C115 O124 1.247 . S
C115 O125 1.272 . S
O116 Co112 2.004 . S
O116 C121 1.259 . S
Co117 O118 2.061 . S
Co117 O123 2.052 . S
Co117 O125 2.135 . S
O118 Co117 2.061 . S
O118 C121 1.235 . S
C119 O122 1.238 . S
C119 O123 1.241 . S
C120 O113 1.247 . S
C120 O114 1.261 . S
C121 O116 1.259 . S
C121 O118 1.235 . S
O122 Co112 2.021 . S
O122 C119 1.238 . S
O123 Co117 2.052 . S
O123 C119 1.241 . S
O124 Co112 2.137 . S
O124 C115 1.247 . S
O125 Co112 2.244 . S
O125 C115 1.272 . S
O125 Co117 2.135 . S
Co126 O127 2.216 . S
Co126 O128 2.091 . S
Co126 O130 2.004 . S
Co126 O136 2.021 . S
Co126 O138 2.137 . S
Co126 O139 2.244 . S
O127 Co126 2.216 . S
O127 C134 1.247 . S
O128 Co126 2.091 . S
O128 C134 1.261 . S
C129 O138 1.247 . S
C129 O139 1.272 . S
O130 Co126 2.004 . S
O130 C135 1.259 . S
Co131 O132 2.061 . S
Co131 O137 2.052 . S
Co131 O139 2.135 . S
O132 Co131 2.061 . S
O132 C135 1.235 . S
C133 O136 1.238 . S
C133 O137 1.241 . S
C134 O127 1.247 . S
C134 O128 1.261 . S
C135 O130 1.259 . S
C135 O132 1.235 . S
O136 Co126 2.021 . S
O136 C133 1.238 . S
O137 Co131 2.052 . S
O137 C133 1.241 . S
O138 Co126 2.137 . S
O138 C129 1.247 . S
O139 Co126 2.244 . S
O139 C129 1.272 . S
O139 Co131 2.135 . S
Co140 O141 2.216 . S
Co140 O142 2.091 . S
Co140 O144 2.004 . S
Co140 O150 2.021 . S
Co140 O152 2.137 . S
Co140 O153 2.244 . S
O141 Co140 2.216 . S
O141 C148 1.247 . S
O142 Co140 2.091 . S
O142 C148 1.261 . S
C143 O152 1.247 . S
C143 O153 1.272 . S
O144 Co140 2.004 . S
O144 C149 1.259 . S
Co145 O146 2.061 . S
Co145 O151 2.052 . S
Co145 O153 2.135 . S
O146 Co145 2.061 . S
O146 C149 1.235 . S
C147 O150 1.238 . S
C147 O151 1.241 . S
C148 O141 1.247 . S
C148 O142 1.261 . S
C149 O144 1.259 . S
C149 O146 1.235 . S
O150 Co140 2.021 . S
O150 C147 1.238 . S
O151 Co145 2.052 . S
O151 C147 1.241 . S
O152 Co140 2.137 . S
O152 C143 1.247 . S
O153 Co140 2.244 . S
O153 C143 1.272 . S
O153 Co145 2.135 . S
Co154 O155 2.216 . S
Co154 O156 2.091 . S
Co154 O158 2.004 . S
Co154 O164 2.021 . S
Co154 O166 2.137 . S
Co154 O167 2.244 . S
O155 Co154 2.216 . S
O155 C162 1.247 . S
O156 Co154 2.091 . S
O156 C162 1.261 . S
C157 O166 1.247 . S
C157 O167 1.272 . S
O158 Co154 2.004 . S
O158 C163 1.259 . S
Co159 O160 2.061 . S
Co159 O165 2.052 . S
Co159 O167 2.135 . S
O160 Co159 2.061 . S
O160 C163 1.235 . S
C161 O164 1.238 . S
C161 O165 1.241 . S
C162 O155 1.247 . S
C162 O156 1.261 . S
C163 O158 1.259 . S
C163 O160 1.235 . S
O164 Co154 2.021 . S
O164 C161 1.238 . S
O165 Co159 2.052 . S
O165 C161 1.241 . S
O166 Co154 2.137 . S
O166 C157 1.247 . S
O167 Co154 2.244 . S
O167 C157 1.272 . S
O167 Co159 2.135 . S
Co168 O169 2.216 . S
Co168 O170 2.091 . S
Co168 O172 2.004 . S
Co168 O178 2.021 . S
Co168 O180 2.137 . S
Co168 O181 2.244 . S
O169 Co168 2.216 . S
O169 C176 1.247 . S
O170 Co168 2.091 . S
O170 C176 1.261 . S
C171 O180 1.247 . S
C171 O181 1.272 . S
O172 Co168 2.004 . S
O172 C177 1.259 . S
Co173 O174 2.061 . S
Co173 O179 2.052 . S
Co173 O181 2.135 . S
O174 Co173 2.061 . S
O174 C177 1.235 . S
C175 O178 1.238 . S
C175 O179 1.241 . S
C176 O169 1.247 . S
C176 O170 1.261 . S
C177 O172 1.259 . S
C177 O174 1.235 . S
O178 Co168 2.021 . S
O178 C175 1.238 . S
O179 Co173 2.052 . S
O179 C175 1.241 . S
O180 Co168 2.137 . S
O180 C171 1.247 . S
O181 Co168 2.244 . S
O181 C171 1.272 . S
O181 Co173 2.135 . S
Co182 O183 2.216 1_455 S
Co182 O184 2.091 . S
Co182 O186 2.004 . S
Co182 O192 2.021 . S
Co182 O194 2.137 1_455 S
Co182 O195 2.244 1_455 S
O183 Co182 2.216 1_655 S
O183 C190 1.247 . S
O184 Co182 2.091 . S
O184 C190 1.261 1_455 S
C185 O194 1.247 . S
C185 O195 1.272 . S
O186 Co182 2.004 . S
O186 C191 1.259 . S
Co187 O188 2.061 1_655 S
Co187 O193 2.052 . S
Co187 O195 2.135 . S
O188 Co187 2.061 1_455 S
O188 C191 1.235 . S
C189 O192 1.238 . S
C189 O193 1.241 1_455 S
C190 O183 1.247 . S
C190 O184 1.261 1_655 S
C191 O186 1.259 . S
C191 O188 1.235 . S
O192 Co182 2.021 . S
O192 C189 1.238 . S
O193 Co187 2.052 . S
O193 C189 1.241 1_655 S
O194 Co182 2.137 1_655 S
O194 C185 1.247 . S
O195 Co182 2.244 1_655 S
O195 C185 1.272 . S
O195 Co187 2.135 . S
Co196 O197 2.216 . S
Co196 O198 2.091 . S
Co196 O200 2.004 . S
Co196 O206 2.021 . S
Co196 O208 2.137 . S
Co196 O209 2.244 . S
O197 Co196 2.216 . S
O197 C204 1.247 . S
O198 Co196 2.091 . S
O198 C204 1.261 . S
C199 O208 1.247 . S
C199 O209 1.272 . S
O200 Co196 2.004 . S
O200 C205 1.259 . S
Co201 O202 2.061 . S
Co201 O207 2.052 . S
Co201 O209 2.135 . S
O202 Co201 2.061 . S
O202 C205 1.235 . S
C203 O206 1.238 . S
C203 O207 1.241 . S
C204 O197 1.247 . S
C204 O198 1.261 . S
C205 O200 1.259 . S
C205 O202 1.235 . S
O206 Co196 2.021 . S
O206 C203 1.238 . S
O207 Co201 2.052 . S
O207 C203 1.241 . S
O208 Co196 2.137 . S
O208 C199 1.247 . S
O209 Co196 2.244 . S
O209 C199 1.272 . S
O209 Co201 2.135 . S
Co210 O211 2.216 1_455 S
Co210 O212 2.091 . S
Co210 O214 2.004 . S
Co210 O220 2.021 . S
Co210 O222 2.137 1_455 S
Co210 O223 2.244 1_455 S
O211 Co210 2.216 1_655 S
O211 C218 1.247 . S
O212 Co210 2.091 . S
O212 C218 1.261 1_455 S
C213 O222 1.247 . S
C213 O223 1.272 . S
O214 Co210 2.004 . S
O214 C219 1.259 . S
Co215 O216 2.061 1_655 S
Co215 O221 2.052 . S
Co215 O223 2.135 . S
O216 Co215 2.061 1_455 S
O216 C219 1.235 . S
C217 O220 1.238 . S
C217 O221 1.241 1_455 S
C218 O211 1.247 . S
C218 O212 1.261 1_655 S
C219 O214 1.259 . S
C219 O216 1.235 . S
O220 Co210 2.021 . S
O220 C217 1.238 . S
O221 Co215 2.052 . S
O221 C217 1.241 1_655 S
O222 Co210 2.137 1_655 S
O222 C213 1.247 . S
O223 Co210 2.244 1_655 S
O223 C213 1.272 . S
O223 Co215 2.135 . S
C224 C225 1.170 . S
C224 C226 1.380 . S
C225 C224 1.170 . S
C226 C224 1.380 . S
C226 C227 1.170 1_455 S
C227 C226 1.170 1_655 S
C228 C229 1.170 . S
C228 C230 1.380 1_655 S
C229 C228 1.170 . S
C230 C228 1.380 1_455 S
C230 C231 1.170 . S
C231 C230 1.170 . S
C232 C233 1.170 . S
C232 C234 1.380 . S
C233 C232 1.170 . S
C234 C232 1.380 . S
C234 C235 1.170 . S
C235 C234 1.170 . S
C236 C237 1.170 . S
C236 C238 1.380 . S
C237 C236 1.170 . S
C238 C236 1.380 . S
C238 C239 1.170 . S
C239 C238 1.170 . S
C240 C241 1.170 . S
C240 C242 1.380 . S
C241 C240 1.170 . S
C242 C240 1.380 . S
C242 C243 1.170 1_455 S
C243 C242 1.170 1_655 S
C244 C245 1.170 . S
C244 C246 1.380 . S
C245 C244 1.170 . S
C246 C244 1.380 . S
C246 C247 1.170 . S
C247 C246 1.170 . S
C248 C249 1.170 . S
C248 C250 1.380 . S
C249 C248 1.170 . S
C250 C248 1.380 . S
C250 C251 1.170 . S
C251 C250 1.170 . S
C252 C253 1.170 . S
C252 C254 1.380 1_455 S
C253 C252 1.170 . S
C254 C252 1.380 1_655 S
C254 C255 1.170 . S
C255 C254 1.170 . S
C256 C257 1.170 . S
C256 C258 1.377 1_565 S
C257 C256 1.170 . S
C258 C256 1.377 1_545 S
C258 C259 1.174 . S
C259 C258 1.174 . S
C260 C261 1.170 . S
C260 C262 1.380 . S
C261 C260 1.170 . S
C262 C260 1.380 . S
C262 C263 1.170 . S
C263 C262 1.170 . S
C264 C265 1.170 . S
C264 C266 1.380 1_564 S
C265 C264 1.170 . S
C266 C264 1.380 1_546 S
C266 C267 1.170 . S
C267 C266 1.170 . S
C268 C269 1.170 . S
C268 C270 1.380 . S
C269 C268 1.170 . S
C270 C268 1.380 . S
C270 C271 1.170 . S
C271 C270 1.170 . S
C272 C273 1.170 . S
C272 C274 1.380 . S
C273 C272 1.170 . S
C274 C272 1.380 . S
C274 C275 1.170 . S
C275 C274 1.170 . S
C276 C277 1.170 . S
C276 C278 1.380 . S
C277 C276 1.170 . S
C278 C276 1.380 . S
C278 C279 1.170 . S
C279 C278 1.170 . S
C280 C281 1.170 . S
C280 C282 1.380 1_556 S
C281 C280 1.170 . S
C282 C280 1.380 1_554 S
C282 C283 1.170 . S
C283 C282 1.170 . S
C284 C285 1.170 . S
C284 C286 1.380 . S
C285 C284 1.170 . S
C286 C284 1.380 . S
C286 C287 1.170 . S
C287 C286 1.170 . S
C288 C289 1.170 . S
C288 C290 1.380 . S
C289 C288 1.170 . S
C290 C288 1.380 . S
C290 C291 1.170 . S
C291 C290 1.170 . S
C292 C293 1.170 . S
C292 C294 1.380 . S
C293 C292 1.170 . S
C294 C292 1.380 . S
C294 C295 1.170 . S
C295 C294 1.170 . S
C296 C297 1.170 . S
C296 C298 1.380 . S
C297 C296 1.170 . S
C298 C296 1.380 . S
C298 C299 1.170 . S
C299 C298 1.170 . S
C300 C301 1.170 . S
C300 C302 1.380 . S
C301 C300 1.170 . S
C302 C300 1.380 . S
C302 C303 1.170 . S
C303 C302 1.170 . S
C304 C305 1.170 . S
C304 C306 1.380 . S
C305 C304 1.170 . S
C306 C304 1.380 . S
C306 C307 1.170 . S
C307 C306 1.170 . S
C308 C309 1.170 . S
C308 C310 1.380 . S
C309 C308 1.170 . S
C310 C308 1.380 . S
C310 C311 1.170 . S
C311 C310 1.170 . S
C312 C313 1.170 . S
C312 C314 1.380 . S
C313 C312 1.170 . S
C314 C312 1.380 . S
C314 C315 1.170 . S
C315 C314 1.170 . S
C316 C317 1.170 . S
C316 C318 1.380 . S
C317 C316 1.170 . S
C318 C316 1.380 . S
C318 C319 1.170 . S
C319 C318 1.170 . S
C320 C321 1.170 . S
C320 C322 1.380 . S
C321 C320 1.170 . S
C322 C320 1.380 . S
C322 C323 1.170 . S
C323 C322 1.170 . S
C324 C325 1.170 . S
C324 C326 1.380 . S
C325 C324 1.170 . S
C326 C324 1.380 . S
C326 C327 1.170 . S
C327 C326 1.170 . S
C328 C329 1.170 . S
C328 C330 1.380 . S
C329 C328 1.170 . S
C330 C328 1.380 . S
C330 C331 1.170 . S
C331 C330 1.170 . S
C332 C333 1.170 . S
C332 C334 1.380 . S
C333 C332 1.170 . S
C334 C332 1.380 . S
C334 C335 1.170 . S
C335 C334 1.170 . S
C336 C337 1.170 . S
C336 C338 1.380 . S
C337 C336 1.170 . S
C338 C336 1.380 . S
C338 C339 1.170 . S
C339 C338 1.170 . S
C340 C341 1.170 . S
C340 C342 1.380 . S
C341 C340 1.170 . S
C342 C340 1.380 . S
C342 C343 1.170 . S
C343 C342 1.170 . S
C344 C345 1.170 . S
C344 C346 1.380 . S
C345 C344 1.170 . S
C346 C344 1.380 . S
C346 C347 1.170 . S
C347 C346 1.170 . S
C348 C349 1.170 . S
C348 C350 1.380 . S
C349 C348 1.170 . S
C350 C348 1.380 . S
C350 C351 1.170 . S
C351 C350 1.170 . S
C225 C8 1.389 . S
C227 C190 1.360 . S
C229 C162 1.389 . S
C231 C22 1.373 . S
C233 C176 1.363 . S
C235 C36 1.393 . S
C237 C148 1.390 . S
C239 C50 1.360 . S
C241 C64 1.367 . S
C243 C218 1.393 . S
C245 C78 1.366 . S
C247 C134 1.377 . S
C249 C204 1.386 . S
C251 C92 1.377 . S
C253 C106 1.382 . S
C255 C120 1.363 . S
C257 C63 1.578 . S
C259 C7 1.550 . S
C261 C21 1.550 . S
C263 C77 1.578 . S
C265 C35 1.578 . S
C267 C91 1.559 . S
C269 C105 1.556 . S
C271 C49 1.579 . S
C273 C119 1.558 . S
C275 C147 1.543 . S
C277 C133 1.561 . S
C279 C161 1.541 . S
C281 C203 1.543 . S
C283 C175 1.558 . S
C285 C189 1.562 . S
C287 C217 1.578 . S
C289 C73 1.490 . S
C291 C3 1.484 . S
C293 C17 1.509 . S
C295 C87 1.499 . S
C297 C31 1.485 . S
C299 C101 1.494 . S
C301 C59 1.485 . S
C303 C45 1.495 . S
C305 C65 1.306 . S
C307 C149 1.304 . S
C309 C37 1.274 . S
C311 C121 1.277 . S
C313 C163 1.299 . S
C315 C93 1.295 . S
C317 C135 1.282 . S
C319 C9 1.278 . S
C321 C115 1.497 . S
C323 C171 1.486 . S
C325 C143 1.498 . S
C327 C213 1.486 . S
C329 C185 1.484 . S
C331 C129 1.493 . S
C333 C157 1.492 . S
C335 C199 1.504 . S
C337 C205 1.305 . S
C339 C23 1.302 . S
C341 C191 1.306 . S
C343 C79 1.306 . S
C345 C219 1.292 . S
C347 C51 1.287 . S
C349 C177 1.280 . S
C351 C107 1.284 . S
