# Generated by pormake.
# Topology cha, (4)-cn, num edge types: 1
# Building blocks:
#     Node 0, Type 0, BuildingBlock: CEKHIL_clean_sbu_0, # of connection points: 4
#     Node 1, Type 0, BuildingBlock: CEKHIL_clean_sbu_0, # of connection points: 4
#     Node 2, Type 0, BuildingBlock: CEKHIL_clean_sbu_0, # of connection points: 4
#     Node 3, Type 0, BuildingBlock: CEKHIL_clean_sbu_0, # of connection points: 4
#     Node 4, Type 0, BuildingBlock: CEKHIL_clean_sbu_0, # of connection points: 4
#     Node 5, Type 0, BuildingBlock: CEKHIL_clean_sbu_0, # of connection points: 4
#     Node 6, Type 0, BuildingBlock: CEKHIL_clean_sbu_0, # of connection points: 4
#     Node 7, Type 0, BuildingBlock: CEKHIL_clean_sbu_0, # of connection points: 4
#     Node 8, Type 0, BuildingBlock: CEKHIL_clean_sbu_0, # of connection points: 4
#     Node 9, Type 0, BuildingBlock: CEKHIL_clean_sbu_0, # of connection points: 4
#     Node 10, Type 0, BuildingBlock: CEKHIL_clean_sbu_0, # of connection points: 4
#     Node 11, Type 0, BuildingBlock: CEKHIL_clean_sbu_0, # of connection points: 4
#     Node 12, Type 0, BuildingBlock: CEKHIL_clean_sbu_0, # of connection points: 4
#     Node 13, Type 0, BuildingBlock: CEKHIL_clean_sbu_0, # of connection points: 4
#     Node 14, Type 0, BuildingBlock: CEKHIL_clean_sbu_0, # of connection points: 4
#     Node 15, Type 0, BuildingBlock: CEKHIL_clean_sbu_0, # of connection points: 4
#     Node 16, Type 0, BuildingBlock: CEKHIL_clean_sbu_0, # of connection points: 4
#     Node 17, Type 0, BuildingBlock: CEKHIL_clean_sbu_0, # of connection points: 4
#     Node 18, Type 0, BuildingBlock: CEKHIL_clean_sbu_0, # of connection points: 4
#     Node 19, Type 0, BuildingBlock: CEKHIL_clean_sbu_0, # of connection points: 4
#     Node 20, Type 0, BuildingBlock: CEKHIL_clean_sbu_0, # of connection points: 4
#     Node 21, Type 0, BuildingBlock: CEKHIL_clean_sbu_0, # of connection points: 4
#     Node 22, Type 0, BuildingBlock: CEKHIL_clean_sbu_0, # of connection points: 4
#     Node 23, Type 0, BuildingBlock: CEKHIL_clean_sbu_0, # of connection points: 4
#     Node 24, Type 0, BuildingBlock: CEKHIL_clean_sbu_0, # of connection points: 4
#     Node 25, Type 0, BuildingBlock: CEKHIL_clean_sbu_0, # of connection points: 4
#     Node 26, Type 0, BuildingBlock: CEKHIL_clean_sbu_0, # of connection points: 4
#     Node 27, Type 0, BuildingBlock: CEKHIL_clean_sbu_0, # of connection points: 4
#     Node 28, Type 0, BuildingBlock: CEKHIL_clean_sbu_0, # of connection points: 4
#     Node 29, Type 0, BuildingBlock: CEKHIL_clean_sbu_0, # of connection points: 4
#     Node 30, Type 0, BuildingBlock: CEKHIL_clean_sbu_0, # of connection points: 4
#     Node 31, Type 0, BuildingBlock: CEKHIL_clean_sbu_0, # of connection points: 4
#     Node 32, Type 0, BuildingBlock: CEKHIL_clean_sbu_0, # of connection points: 4
#     Node 33, Type 0, BuildingBlock: CEKHIL_clean_sbu_0, # of connection points: 4
#     Node 34, Type 0, BuildingBlock: CEKHIL_clean_sbu_0, # of connection points: 4
#     Node 35, Type 0, BuildingBlock: CEKHIL_clean_sbu_0, # of connection points: 4
#     Edge 36, Type (0, 0), BuildingBlock: UVAHIK_clean_linker_0, # of connection points: 2
#     Edge 37, Type (0, 0), BuildingBlock: UVAHIK_clean_linker_0, # of connection points: 2
#     Edge 38, Type (0, 0), BuildingBlock: UVAHIK_clean_linker_0, # of connection points: 2
#     Edge 39, Type (0, 0), BuildingBlock: UVAHIK_clean_linker_0, # of connection points: 2
#     Edge 40, Type (0, 0), BuildingBlock: UVAHIK_clean_linker_0, # of connection points: 2
#     Edge 41, Type (0, 0), BuildingBlock: UVAHIK_clean_linker_0, # of connection points: 2
#     Edge 42, Type (0, 0), BuildingBlock: UVAHIK_clean_linker_0, # of connection points: 2
#     Edge 43, Type (0, 0), BuildingBlock: UVAHIK_clean_linker_0, # of connection points: 2
#     Edge 44, Type (0, 0), BuildingBlock: UVAHIK_clean_linker_0, # of connection points: 2
#     Edge 45, Type (0, 0), BuildingBlock: UVAHIK_clean_linker_0, # of connection points: 2
#     Edge 46, Type (0, 0), BuildingBlock: UVAHIK_clean_linker_0, # of connection points: 2
#     Edge 47, Type (0, 0), BuildingBlock: UVAHIK_clean_linker_0, # of connection points: 2
#     Edge 48, Type (0, 0), BuildingBlock: UVAHIK_clean_linker_0, # of connection points: 2
#     Edge 49, Type (0, 0), BuildingBlock: UVAHIK_clean_linker_0, # of connection points: 2
#     Edge 50, Type (0, 0), BuildingBlock: UVAHIK_clean_linker_0, # of connection points: 2
#     Edge 51, Type (0, 0), BuildingBlock: UVAHIK_clean_linker_0, # of connection points: 2
#     Edge 52, Type (0, 0), BuildingBlock: UVAHIK_clean_linker_0, # of connection points: 2
#     Edge 53, Type (0, 0), BuildingBlock: UVAHIK_clean_linker_0, # of connection points: 2
#     Edge 54, Type (0, 0), BuildingBlock: UVAHIK_clean_linker_0, # of connection points: 2
#     Edge 55, Type (0, 0), BuildingBlock: UVAHIK_clean_linker_0, # of connection points: 2
#     Edge 56, Type (0, 0), BuildingBlock: UVAHIK_clean_linker_0, # of connection points: 2
#     Edge 57, Type (0, 0), BuildingBlock: UVAHIK_clean_linker_0, # of connection points: 2
#     Edge 58, Type (0, 0), BuildingBlock: UVAHIK_clean_linker_0, # of connection points: 2
#     Edge 59, Type (0, 0), BuildingBlock: UVAHIK_clean_linker_0, # of connection points: 2
#     Edge 60, Type (0, 0), BuildingBlock: UVAHIK_clean_linker_0, # of connection points: 2
#     Edge 61, Type (0, 0), BuildingBlock: UVAHIK_clean_linker_0, # of connection points: 2
#     Edge 62, Type (0, 0), BuildingBlock: UVAHIK_clean_linker_0, # of connection points: 2
#     Edge 63, Type (0, 0), BuildingBlock: UVAHIK_clean_linker_0, # of connection points: 2
#     Edge 64, Type (0, 0), BuildingBlock: UVAHIK_clean_linker_0, # of connection points: 2
#     Edge 65, Type (0, 0), BuildingBlock: UVAHIK_clean_linker_0, # of connection points: 2
#     Edge 66, Type (0, 0), BuildingBlock: UVAHIK_clean_linker_0, # of connection points: 2
#     Edge 67, Type (0, 0), BuildingBlock: UVAHIK_clean_linker_0, # of connection points: 2
#     Edge 68, Type (0, 0), BuildingBlock: UVAHIK_clean_linker_0, # of connection points: 2
#     Edge 69, Type (0, 0), BuildingBlock: UVAHIK_clean_linker_0, # of connection points: 2
#     Edge 70, Type (0, 0), BuildingBlock: UVAHIK_clean_linker_0, # of connection points: 2
#     Edge 71, Type (0, 0), BuildingBlock: UVAHIK_clean_linker_0, # of connection points: 2
#     Edge 72, Type (0, 0), BuildingBlock: UVAHIK_clean_linker_0, # of connection points: 2
#     Edge 73, Type (0, 0), BuildingBlock: UVAHIK_clean_linker_0, # of connection points: 2
#     Edge 74, Type (0, 0), BuildingBlock: UVAHIK_clean_linker_0, # of connection points: 2
#     Edge 75, Type (0, 0), BuildingBlock: UVAHIK_clean_linker_0, # of connection points: 2
#     Edge 76, Type (0, 0), BuildingBlock: UVAHIK_clean_linker_0, # of connection points: 2
#     Edge 77, Type (0, 0), BuildingBlock: UVAHIK_clean_linker_0, # of connection points: 2
#     Edge 78, Type (0, 0), BuildingBlock: UVAHIK_clean_linker_0, # of connection points: 2
#     Edge 79, Type (0, 0), BuildingBlock: UVAHIK_clean_linker_0, # of connection points: 2
#     Edge 80, Type (0, 0), BuildingBlock: UVAHIK_clean_linker_0, # of connection points: 2
#     Edge 81, Type (0, 0), BuildingBlock: UVAHIK_clean_linker_0, # of connection points: 2
#     Edge 82, Type (0, 0), BuildingBlock: UVAHIK_clean_linker_0, # of connection points: 2
#     Edge 83, Type (0, 0), BuildingBlock: UVAHIK_clean_linker_0, # of connection points: 2
#     Edge 84, Type (0, 0), BuildingBlock: UVAHIK_clean_linker_0, # of connection points: 2
#     Edge 85, Type (0, 0), BuildingBlock: UVAHIK_clean_linker_0, # of connection points: 2
#     Edge 86, Type (0, 0), BuildingBlock: UVAHIK_clean_linker_0, # of connection points: 2
#     Edge 87, Type (0, 0), BuildingBlock: UVAHIK_clean_linker_0, # of connection points: 2
#     Edge 88, Type (0, 0), BuildingBlock: UVAHIK_clean_linker_0, # of connection points: 2
#     Edge 89, Type (0, 0), BuildingBlock: UVAHIK_clean_linker_0, # of connection points: 2
#     Edge 90, Type (0, 0), BuildingBlock: UVAHIK_clean_linker_0, # of connection points: 2
#     Edge 91, Type (0, 0), BuildingBlock: UVAHIK_clean_linker_0, # of connection points: 2
#     Edge 92, Type (0, 0), BuildingBlock: UVAHIK_clean_linker_0, # of connection points: 2
#     Edge 93, Type (0, 0), BuildingBlock: UVAHIK_clean_linker_0, # of connection points: 2
#     Edge 94, Type (0, 0), BuildingBlock: UVAHIK_clean_linker_0, # of connection points: 2
#     Edge 95, Type (0, 0), BuildingBlock: UVAHIK_clean_linker_0, # of connection points: 2
#     Edge 96, Type (0, 0), BuildingBlock: UVAHIK_clean_linker_0, # of connection points: 2
#     Edge 97, Type (0, 0), BuildingBlock: UVAHIK_clean_linker_0, # of connection points: 2
#     Edge 98, Type (0, 0), BuildingBlock: UVAHIK_clean_linker_0, # of connection points: 2
#     Edge 99, Type (0, 0), BuildingBlock: UVAHIK_clean_linker_0, # of connection points: 2
#     Edge 100, Type (0, 0), BuildingBlock: UVAHIK_clean_linker_0, # of connection points: 2
#     Edge 101, Type (0, 0), BuildingBlock: UVAHIK_clean_linker_0, # of connection points: 2
#     Edge 102, Type (0, 0), BuildingBlock: UVAHIK_clean_linker_0, # of connection points: 2
#     Edge 103, Type (0, 0), BuildingBlock: UVAHIK_clean_linker_0, # of connection points: 2
#     Edge 104, Type (0, 0), BuildingBlock: UVAHIK_clean_linker_0, # of connection points: 2
#     Edge 105, Type (0, 0), BuildingBlock: UVAHIK_clean_linker_0, # of connection points: 2
#     Edge 106, Type (0, 0), BuildingBlock: UVAHIK_clean_linker_0, # of connection points: 2
#     Edge 107, Type (0, 0), BuildingBlock: UVAHIK_clean_linker_0, # of connection points: 2
# Relax obj value: 0.071
# Max RMSD: 0.095
# Mean RMSD: 0.095
data_MOF--net-cha--node1-CEKHIL_clean_sbu_0--edge1-UVAHIK_clean_linker_0
_symmetry_space_group_name_H-M    P1
_symmetry_Int_Tables_number       1
_symmetry_cell_setting            triclinic
loop_
_symmetry_equiv_pos_as_xyz
'x, y, z'
_cell_length_a     69.456658
_cell_length_b     69.445288
_cell_length_c     109.67405
_cell_angle_alpha  90.00223
_cell_angle_beta   89.99919
_cell_angle_gamma 119.96692
loop_
_atom_site_label
_atom_site_type_symbol
_atom_site_fract_x
_atom_site_fract_y
_atom_site_fract_z
_atom_type_partial_charge
Co0 Co 0.03615 0.3074 0.08781 0.0
O1 O 0.03556 0.30131 0.1049 0.0
O2 O 0.02111 0.32033 0.09663 0.0
C3 C 0.07229 0.31792 0.08521 0.0
O4 O 0.03457 0.31754 0.07049 0.0
Co5 Co 0.0467 0.28046 0.06901 0.0
O6 O 0.05258 0.30574 0.05824 0.0
C7 C 0.0019 0.26029 0.0801 0.0
C8 C 0.0253 0.31242 0.10641 0.0
C9 C 0.04366 0.31763 0.06021 0.0
O10 O 0.00712 0.27876 0.08546 0.0
O11 O 0.01572 0.25732 0.07378 0.0
O12 O 0.06672 0.33202 0.08931 0.0
O13 O 0.05615 0.29783 0.08379 0.0
Co14 Co 0.75102 0.7601 0.08824 0.0
O15 O 0.75676 0.7656 0.10537 0.0
O16 O 0.73869 0.73216 0.09699 0.0
C17 C 0.73952 0.78495 0.08549 0.0
O18 O 0.74128 0.74823 0.07092 0.0
Co19 Co 0.77731 0.79778 0.06942 0.0
O20 O 0.7523 0.77787 0.05862 0.0
C21 C 0.79902 0.77545 0.0815 0.0
C22 C 0.74619 0.74421 0.10681 0.0
C23 C 0.74078 0.75708 0.06069 0.0
O24 O 0.78028 0.76084 0.08609 0.0
O25 O 0.80148 0.79225 0.07537 0.0
O26 O 0.72577 0.76519 0.08958 0.0
O27 O 0.7598 0.78943 0.08416 0.0
Co28 Co 0.29918 0.01888 0.08804 0.0
O29 O 0.29313 0.01861 0.10512 0.0
O30 O 0.32683 0.03448 0.09705 0.0
C31 C 0.27464 0.98256 0.08495 0.0
O32 O 0.31155 0.02158 0.0708 0.0
Co33 Co 0.26191 0.00778 0.06899 0.0
O34 O 0.28235 0.00352 0.05817 0.0
C35 C 0.28393 0.05164 0.08121 0.0
C36 C 0.31446 0.0296 0.10676 0.0
C37 C 0.30311 0.01285 0.06038 0.0
O38 O 0.29829 0.04734 0.086 0.0
O39 O 0.26735 0.03746 0.0749 0.0
O40 O 0.29432 0.98861 0.08921 0.0
O41 O 0.27002 0.99827 0.08369 0.0
Co42 Co 0.30775 0.03229 0.91443 0.0
O43 O 0.30015 0.02982 0.89746 0.0
O44 O 0.32072 0.01716 0.90577 0.0
C45 C 0.31719 0.06834 0.916 0.0
O46 O 0.31962 0.0327 0.93157 0.0
Co47 Co 0.28238 0.04418 0.93364 0.0
O48 O 0.30913 0.05208 0.9436 0.0
C49 C 0.26132 0.99878 0.92309 0.0
C50 C 0.31173 0.02004 0.89602 0.0
C51 C 0.32097 0.04316 0.94153 0.0
O52 O 0.27965 0.0032 0.91779 0.0
O53 O 0.25888 0.01329 0.92905 0.0
O54 O 0.33154 0.06312 0.91188 0.0
O55 O 0.29763 0.05186 0.91819 0.0
Co56 Co 0.02391 0.30225 0.91299 0.0
O57 O 0.02485 0.29637 0.89597 0.0
O58 O 0.03751 0.32988 0.90388 0.0
C59 C 0.98839 0.27523 0.91575 0.0
O60 O 0.02487 0.31438 0.93014 0.0
Co61 Co 0.01579 0.26646 0.9324 0.0
O62 O 0.00781 0.28489 0.94267 0.0
C63 C 0.06024 0.29261 0.92116 0.0
C64 C 0.03406 0.31761 0.89424 0.0
C65 C 0.0157 0.30546 0.9404 0.0
O66 O 0.0538 0.30456 0.91541 0.0
O67 O 0.04737 0.27606 0.92791 0.0
O68 O 0.99278 0.29442 0.91141 0.0
O69 O 0.00532 0.27255 0.91736 0.0
Co70 Co 0.75787 0.74971 0.91341 0.0
O71 O 0.76281 0.75501 0.89624 0.0
O72 O 0.72963 0.73721 0.90493 0.0
C73 C 0.78274 0.73822 0.91603 0.0
O74 O 0.74669 0.74054 0.93088 0.0
Co75 Co 0.79638 0.77682 0.93165 0.0
O76 O 0.7768 0.75249 0.9429 0.0
C77 C 0.77328 0.7979 0.91983 0.0
C78 C 0.74139 0.74453 0.895 0.0
C79 C 0.75592 0.74078 0.94113 0.0
O80 O 0.75863 0.77899 0.91543 0.0
O81 O 0.7904 0.8007 0.92575 0.0
O82 O 0.76285 0.72439 0.91214 0.0
O83 O 0.78732 0.75856 0.91718 0.0
Co84 Co 0.01957 0.7485 0.91427 0.0
O85 O 0.02082 0.755 0.8972 0.0
O86 O 0.03524 0.73607 0.90561 0.0
C87 C 0.98324 0.73748 0.91649 0.0
O88 O 0.0206 0.73808 0.9316 0.0
Co89 Co 0.00783 0.77481 0.93292 0.0
O90 O 0.00209 0.74955 0.94368 0.0
C91 C 0.05277 0.79589 0.92196 0.0
C92 C 0.03143 0.74422 0.8958 0.0
C93 C 0.01118 0.7378 0.94179 0.0
O94 O 0.04827 0.77732 0.91696 0.0
O95 O 0.03841 0.79855 0.92793 0.0
O96 O 0.98916 0.72365 0.9124 0.0
O97 O -0.00083 0.75761 0.91808 0.0
Co98 Co 0.30918 0.30064 0.91406 0.0
O99 O 0.30539 0.29776 0.89678 0.0
O100 O 0.32448 0.32986 0.90644 0.0
C101 C 0.31753 0.27335 0.91615 0.0
O102 O 0.31696 0.30912 0.932 0.0
Co103 Co 0.27679 0.26024 0.93005 0.0
O104 O 0.29929 0.27725 0.94275 0.0
C105 C 0.26091 0.28764 0.91811 0.0
C106 C 0.31737 0.31918 0.89615 0.0
C107 C 0.3134 0.29797 0.94198 0.0
O108 O 0.28109 0.30238 0.91557 0.0
O109 O 0.25552 0.26871 0.92279 0.0
O110 O 0.33293 0.29322 0.91307 0.0
O111 O 0.2977 0.27041 0.91673 0.0
Co112 Co 0.75703 0.03563 0.91399 0.0
O113 O 0.76235 0.03503 0.89685 0.0
O114 O 0.72901 0.02086 0.90522 0.0
C115 C 0.78308 0.07164 0.91659 0.0
O116 O 0.74542 0.03406 0.93135 0.0
Co117 Co 0.79454 0.04597 0.93281 0.0
O118 O 0.77515 0.05168 0.94368 0.0
C119 C 0.77103 0.00198 0.92071 0.0
C120 C 0.74098 0.0249 0.8954 0.0
C121 C 0.75439 0.04297 0.94166 0.0
O122 O 0.75663 0.00652 0.91619 0.0
O123 O 0.78806 0.01608 0.92676 0.0
O124 O 0.7635 0.06651 0.91254 0.0
O125 O 0.78655 0.05521 0.918 0.0
Co126 Co 0.74964 0.02198 0.08899 0.0
O127 O 0.75609 0.02313 0.10608 0.0
O128 O 0.73681 0.0372 0.0977 0.0
C129 C 0.73912 0.98577 0.08664 0.0
O130 O 0.73907 0.02302 0.0717 0.0
Co131 Co 0.77604 0.01088 0.0701 0.0
O132 O 0.75028 0.00435 0.05956 0.0
C133 C 0.7965 0.05601 0.08083 0.0
C134 C 0.74494 0.03337 0.1075 0.0
C135 C 0.73848 0.01335 0.06156 0.0
O136 O 0.77819 0.05096 0.08633 0.0
O137 O 0.79927 0.042 0.07457 0.0
O138 O 0.72511 0.99141 0.09079 0.0
O139 O 0.75916 0.0019 0.08505 0.0
Co140 Co 0.03697 0.75951 0.08887 0.0
O141 O 0.03724 0.76557 0.10596 0.0
O142 O 0.02122 0.73186 0.09788 0.0
C143 C 0.07336 0.78377 0.08581 0.0
O144 O 0.03426 0.74712 0.07163 0.0
Co145 Co 0.04843 0.79689 0.06984 0.0
O146 O 0.05273 0.7764 0.05907 0.0
C147 C 0.00464 0.77532 0.08212 0.0
C148 C 0.02618 0.74424 0.10759 0.0
C149 C 0.0433 0.75564 0.06128 0.0
O150 O 0.00868 0.7607 0.08681 0.0
O151 O 0.01897 0.7919 0.07586 0.0
O152 O 0.06711 0.76405 0.09007 0.0
O153 O 0.0578 0.78862 0.08453 0.0
Co154 Co 0.29781 0.30475 0.08903 0.0
O155 O 0.29347 0.29907 0.1062 0.0
O156 O 0.32636 0.31766 0.09729 0.0
C157 C 0.27236 0.31567 0.087 0.0
O158 O 0.30823 0.31446 0.07146 0.0
Co159 Co 0.25848 0.27723 0.07126 0.0
O160 O 0.27739 0.30169 0.05995 0.0
C161 C 0.2828 0.25673 0.08228 0.0
C162 C 0.3149 0.31002 0.1073 0.0
C163 C 0.29831 0.31393 0.0614 0.0
O164 O 0.29752 0.2757 0.08661 0.0
O165 O 0.26529 0.25375 0.07673 0.0
O166 O 0.2923 0.3297 0.09075 0.0
O167 O 0.26812 0.29548 0.08569 0.0
Co168 Co 0.70348 0.64087 0.42279 0.0
O169 O 0.70277 0.63508 0.43992 0.0
O170 O 0.68842 0.65399 0.4314 0.0
C171 C 0.73961 0.65132 0.42025 0.0
O172 O 0.70203 0.6507 0.40537 0.0
Co173 Co 0.71405 0.61348 0.4043 0.0
O174 O 0.72008 0.63861 0.39336 0.0
C175 C 0.66922 0.59363 0.4153 0.0
C176 C 0.69249 0.64619 0.44126 0.0
C177 C 0.71122 0.6506 0.39517 0.0
O178 O 0.67444 0.61222 0.42051 0.0
O179 O 0.68305 0.59049 0.40909 0.0
O180 O 0.73406 0.6655 0.42425 0.0
O181 O 0.72347 0.63121 0.41895 0.0
Co182 Co 0.41768 0.09151 0.42212 0.0
O183 O 0.42162 0.09708 0.43934 0.0
O184 O 0.40445 0.06361 0.43095 0.0
C185 C 0.40661 0.11642 0.41828 0.0
O186 O 0.40976 0.07954 0.40472 0.0
Co187 Co 0.44634 0.12923 0.40375 0.0
O188 O 0.42374 0.10884 0.39191 0.0
C189 C 0.46638 0.10696 0.41744 0.0
C190 C 0.41101 0.0757 0.44079 0.0
C191 C 0.41145 0.08818 0.3941 0.0
O192 O 0.44702 0.09214 0.42124 0.0
O193 O 0.46972 0.12399 0.41124 0.0
O194 O 0.3924 0.09669 0.42224 0.0
O195 O 0.42697 0.12085 0.41776 0.0
Co196 Co 0.96959 0.35675 0.42155 0.0
O197 O 0.96319 0.35672 0.43856 0.0
O198 O 0.99705 0.37113 0.43083 0.0
C199 C 0.94368 0.32085 0.41847 0.0
O200 O 0.98222 0.35879 0.40442 0.0
Co201 Co 0.9333 0.34727 0.4021 0.0
O202 O 0.9531 0.34145 0.39164 0.0
C203 C 0.95632 0.39089 0.4146 0.0
C204 C 0.98444 0.36667 0.44042 0.0
C205 C 0.9737 0.34993 0.39404 0.0
O206 O 0.97029 0.38601 0.4194 0.0
O207 O 0.93963 0.3771 0.40822 0.0
O208 O 0.96302 0.32585 0.42285 0.0
O209 O 0.94028 0.33733 0.41701 0.0
Co210 Co 0.97541 0.36657 0.24715 0.0
O211 O 0.96808 0.36447 0.23017 0.0
O212 O 0.98929 0.35246 0.23833 0.0
C213 C 0.98382 0.40225 0.24914 0.0
O214 O 0.987 0.36677 0.26434 0.0
Co215 Co 0.94829 0.37637 0.26624 0.0
O216 O 0.97462 0.38427 0.27658 0.0
C217 C 0.92962 0.3311 0.25588 0.0
C218 C 0.98018 0.35529 0.22862 0.0
C219 C 0.9872 0.37616 0.27453 0.0
O220 O 0.94795 0.33683 0.25022 0.0
O221 O 0.92617 0.34474 0.26208 0.0
O222 O 0.99859 0.39768 0.24495 0.0
O223 O 0.96437 0.38537 0.25106 0.0
Co224 Co 0.69051 0.63703 0.24689 0.0
O225 O 0.69061 0.63197 0.22971 0.0
O226 O 0.70459 0.66518 0.23824 0.0
C227 C 0.65477 0.61056 0.24981 0.0
O228 O 0.69245 0.64828 0.26435 0.0
Co229 Co 0.6818 0.59933 0.26525 0.0
O230 O 0.67622 0.61823 0.2766 0.0
C231 C 0.72494 0.62355 0.25243 0.0
C232 C 0.70044 0.65334 0.22836 0.0
C233 C 0.68414 0.63892 0.27467 0.0
O234 O 0.71996 0.63803 0.24857 0.0
O235 O 0.71129 0.60608 0.25834 0.0
O236 O 0.65948 0.63012 0.24592 0.0
O237 O 0.67143 0.60734 0.25085 0.0
Co238 Co 0.42309 0.08627 0.24624 0.0
O239 O 0.427 0.09268 0.22914 0.0
O240 O 0.39445 0.07186 0.23808 0.0
C241 C 0.45038 0.07785 0.24789 0.0
O242 O 0.41313 0.07556 0.26373 0.0
Co243 Co 0.46144 0.11491 0.26428 0.0
O244 O 0.44414 0.08907 0.27513 0.0
C245 C 0.43351 0.13244 0.2545 0.0
C246 C 0.40563 0.08048 0.22809 0.0
C247 C 0.42335 0.07607 0.27365 0.0
O248 O 0.42082 0.11378 0.24917 0.0
O249 O 0.45112 0.13652 0.26035 0.0
O250 O 0.4308 0.06297 0.24409 0.0
O251 O 0.45324 0.09752 0.2495 0.0
Co252 Co 0.68773 0.08395 0.24743 0.0
O253 O 0.68942 0.09051 0.23035 0.0
O254 O 0.70175 0.06978 0.23881 0.0
C255 C 0.65206 0.07542 0.24961 0.0
O256 O 0.68792 0.07309 0.26476 0.0
Co257 Co 0.67849 0.112 0.26613 0.0
O258 O 0.67083 0.08616 0.27684 0.0
C259 C 0.72355 0.13004 0.25564 0.0
C260 C 0.69868 0.07844 0.22898 0.0
C261 C 0.67879 0.0734 0.27495 0.0
O262 O 0.7175 0.11151 0.25014 0.0
O263 O 0.71016 0.13387 0.26184 0.0
O264 O 0.65667 0.0606 0.24557 0.0
O265 O 0.66889 0.09506 0.25122 0.0
Co266 Co 0.97512 0.63414 0.24688 0.0
O267 O 0.97055 0.63048 0.22963 0.0
O268 O 0.98977 0.66299 0.23889 0.0
C269 C 0.98391 0.60718 0.24914 0.0
O270 O 0.98382 0.64367 0.26466 0.0
Co271 Co 0.94447 0.59464 0.2639 0.0
O272 O 0.96799 0.61239 0.27594 0.0
C273 C 0.92696 0.62065 0.25177 0.0
C274 C 0.98228 0.65191 0.22875 0.0
C275 C 0.98152 0.63316 0.27475 0.0
O276 O 0.94678 0.63543 0.24859 0.0
O277 O 0.92247 0.60239 0.25701 0.0
O278 O -0.00096 0.62695 0.24571 0.0
O279 O 0.96407 0.60411 0.25001 0.0
Co280 Co 0.42193 0.371 0.24741 0.0
O281 O 0.42719 0.36952 0.23036 0.0
O282 O 0.39396 0.35728 0.23856 0.0
C283 C 0.44932 0.40655 0.24975 0.0
O284 O 0.41053 0.37063 0.2647 0.0
Co285 Co 0.45869 0.37981 0.26642 0.0
O286 O 0.44048 0.38773 0.27693 0.0
C287 C 0.43176 0.3349 0.25568 0.0
C288 C 0.40591 0.3604 0.22882 0.0
C289 C 0.41983 0.3798 0.2749 0.0
O290 O 0.41943 0.34106 0.25009 0.0
O291 O 0.44882 0.34818 0.262 0.0
O292 O 0.43005 0.40226 0.24561 0.0
O293 O 0.45177 0.38951 0.25141 0.0
Co294 Co 0.41804 0.35419 0.42289 0.0
O295 O 0.42372 0.35457 0.44004 0.0
O296 O 0.40476 0.36896 0.43163 0.0
C297 C 0.40774 0.31812 0.42009 0.0
O298 O 0.40833 0.35606 0.4055 0.0
Co299 Co 0.44551 0.34407 0.40422 0.0
O300 O 0.42065 0.33858 0.39319 0.0
C301 C 0.46524 0.3887 0.41551 0.0
C302 C 0.41253 0.36477 0.44147 0.0
C303 C 0.40865 0.34738 0.39516 0.0
O304 O 0.44665 0.38334 0.42077 0.0
O305 O 0.46841 0.375 0.4092 0.0
O306 O 0.39349 0.32351 0.42415 0.0
O307 O 0.42783 0.33435 0.41887 0.0
Co308 Co 0.70368 0.09151 0.4223 0.0
O309 O 0.70466 0.09794 0.43937 0.0
O310 O 0.68956 0.06406 0.43157 0.0
C311 C 0.73948 0.11708 0.41869 0.0
O312 O 0.70052 0.07882 0.4051 0.0
Co313 Co 0.71233 0.12799 0.40313 0.0
O314 O 0.71661 0.1078 0.39212 0.0
C315 C 0.66977 0.10564 0.41662 0.0
C316 C 0.69454 0.07667 0.44119 0.0
C317 C 0.70835 0.08722 0.39454 0.0
O318 O 0.67453 0.09119 0.42081 0.0
O319 O 0.68337 0.12247 0.41026 0.0
O320 O 0.73448 0.09768 0.42298 0.0
O321 O 0.7231 0.12076 0.41765 0.0
Co322 Co 0.96727 0.64218 0.42148 0.0
O323 O 0.96301 0.63726 0.43868 0.0
O324 O 0.99588 0.65561 0.42972 0.0
C325 C 0.94153 0.65263 0.4191 0.0
O326 O 0.97745 0.65115 0.4038 0.0
Co327 Co 0.92782 0.61326 0.40405 0.0
O328 O 0.94637 0.63723 0.39241 0.0
C329 C 0.9527 0.5939 0.41562 0.0
C330 C 0.98443 0.64833 0.43976 0.0
C331 C 0.96727 0.64989 0.39372 0.0
O332 O 0.96735 0.61323 0.41956 0.0
O333 O 0.93497 0.5903 0.41008 0.0
O334 O 0.96145 0.66698 0.42274 0.0
O335 O 0.93749 0.63244 0.41812 0.0
Co336 Co 0.37077 0.97554 0.75528 0.0
O337 O 0.37114 0.97011 0.77239 0.0
O338 O 0.3552 0.9878 0.7642 0.0
C339 C 0.40706 0.98723 0.75219 0.0
O340 O 0.368 0.9848 0.73794 0.0
Co341 Co 0.38166 0.94869 0.73658 0.0
O342 O 0.38586 0.97308 0.72551 0.0
C343 C 0.33798 0.92733 0.74893 0.0
C344 C 0.36013 0.98045 0.77395 0.0
C345 C 0.37664 0.98468 0.72756 0.0
O346 O 0.34231 0.9462 0.75342 0.0
O347 O 0.35211 0.92463 0.74275 0.0
O348 O 0.40102 0.00096 0.75632 0.0
O349 O 0.39135 0.96687 0.75107 0.0
Co350 Co 0.08364 0.42594 0.75455 0.0
O351 O 0.08841 0.42999 0.77178 0.0
O352 O 0.07023 0.39724 0.76267 0.0
C353 C 0.07318 0.45171 0.75231 0.0
O354 O 0.07487 0.41588 0.73685 0.0
Co355 Co 0.11247 0.46559 0.73722 0.0
O356 O 0.08911 0.44682 0.72533 0.0
C357 C 0.13215 0.44132 0.74915 0.0
C358 C 0.07742 0.40854 0.77276 0.0
C359 C 0.07645 0.42593 0.72668 0.0
O360 O 0.11274 0.42614 0.75271 0.0
O361 O 0.1356 0.45913 0.74376 0.0
O362 O 0.05876 0.43172 0.75581 0.0
O363 O 0.09333 0.4557 0.75131 0.0
Co364 Co 0.63286 0.68845 0.75547 0.0
O365 O 0.62746 0.68957 0.77255 0.0
O366 O 0.66083 0.70412 0.76415 0.0
C367 C 0.60766 0.65211 0.75313 0.0
O368 O 0.64471 0.68969 0.73825 0.0
Co369 Co 0.59544 0.67667 0.73643 0.0
O370 O 0.61515 0.67068 0.72596 0.0
C371 C 0.61828 0.72133 0.74781 0.0
C372 C 0.64885 0.70019 0.77395 0.0
C373 C 0.63591 0.67992 0.72809 0.0
O374 O 0.63254 0.71708 0.7528 0.0
O375 O 0.60154 0.7069 0.74169 0.0
O376 O 0.62736 0.65804 0.75731 0.0
O377 O 0.60345 0.66803 0.75148 0.0
Co378 Co 0.64135 0.70083 0.58159 0.0
O379 O 0.63488 0.6998 0.56453 0.0
O380 O 0.65485 0.68637 0.57277 0.0
C381 C 0.65072 0.7367 0.58405 0.0
O382 O 0.65198 0.6998 0.59886 0.0
Co383 Co 0.61414 0.71077 0.60056 0.0
O384 O 0.63971 0.71724 0.61122 0.0
C385 C 0.59421 0.66653 0.58878 0.0
C386 C 0.64645 0.69002 0.56301 0.0
C387 C 0.65203 0.70884 0.60914 0.0
O388 O 0.6131 0.67146 0.58405 0.0
O389 O 0.59103 0.68047 0.59485 0.0
O390 O 0.6653 0.7318 0.57993 0.0
O391 O 0.63098 0.72008 0.58563 0.0
Co392 Co 0.35496 0.96836 0.5808 0.0
O393 O 0.35646 0.96319 0.56373 0.0
O394 O 0.36932 0.9964 0.57209 0.0
C395 C 0.31912 0.94165 0.58303 0.0
O396 O 0.35548 0.97992 0.59804 0.0
Co397 Co 0.34495 0.93155 0.59994 0.0
O398 O 0.3371 0.9501 0.61022 0.0
C399 C 0.39 0.95715 0.58916 0.0
C400 C 0.36602 0.98454 0.5623 0.0
C401 C 0.34566 0.97081 0.60814 0.0
O402 O 0.38445 0.96988 0.58349 0.0
O403 O 0.37638 0.94044 0.59559 0.0
O404 O 0.32402 0.96113 0.57892 0.0
O405 O 0.33576 0.93858 0.58477 0.0
Co406 Co 0.08836 0.4158 0.58097 0.0
O407 O 0.09234 0.42308 0.56398 0.0
O408 O 0.05978 0.40136 0.57269 0.0
C409 C 0.11615 0.408 0.58219 0.0
O410 O 0.07853 0.40424 0.59837 0.0
Co411 Co 0.12681 0.44439 0.59902 0.0
O412 O 0.10959 0.41845 0.60978 0.0
C413 C 0.09837 0.46162 0.58968 0.0
C414 C 0.07102 0.41065 0.56281 0.0
C415 C 0.08887 0.40502 0.60831 0.0
O416 O 0.08559 0.44294 0.58437 0.0
O417 O 0.11623 0.46583 0.59528 0.0
O418 O 0.09668 0.39299 0.57832 0.0
O419 O 0.11854 0.42739 0.58413 0.0
Co420 Co 0.35539 0.41436 0.58172 0.0
O421 O 0.35627 0.42034 0.5646 0.0
O422 O 0.36989 0.40072 0.57304 0.0
C423 C 0.3195 0.40497 0.58413 0.0
O424 O 0.35656 0.40422 0.59911 0.0
Co425 Co 0.34536 0.44198 0.60039 0.0
O426 O 0.33908 0.41674 0.61128 0.0
C427 C 0.38956 0.46175 0.58856 0.0
C428 C 0.3661 0.4088 0.56319 0.0
C429 C 0.34757 0.40444 0.60936 0.0
O430 O 0.38471 0.44276 0.584 0.0
O431 O 0.37558 0.465 0.59454 0.0
O432 O 0.32442 0.3903 0.58018 0.0
O433 O 0.33609 0.42475 0.58559 0.0
Co434 Co 0.64211 0.96835 0.58083 0.0
O435 O 0.63858 0.96514 0.56354 0.0
O436 O 0.65731 0.99743 0.57305 0.0
C437 C 0.6508 0.94135 0.58329 0.0
O438 O 0.64961 0.97718 0.59876 0.0
Co439 Co 0.60987 0.92796 0.59694 0.0
O440 O 0.63207 0.94547 0.60967 0.0
C441 C 0.59357 0.95419 0.58405 0.0
C442 C 0.65045 0.98657 0.56281 0.0
C443 C 0.64606 0.96621 0.60881 0.0
O444 O 0.6137 0.96964 0.58202 0.0
O445 O 0.58857 0.93536 0.58873 0.0
O446 O 0.66612 0.96121 0.58013 0.0
O447 O 0.63091 0.93826 0.58371 0.0
Co448 Co 0.09047 0.70182 0.58001 0.0
O449 O 0.09578 0.69947 0.56306 0.0
O450 O 0.06253 0.68754 0.57116 0.0
C451 C 0.11748 0.7376 0.58196 0.0
O452 O 0.07901 0.7023 0.59716 0.0
Co453 Co 0.12724 0.7117 0.59915 0.0
O454 O 0.10901 0.72019 0.60928 0.0
C455 C 0.10045 0.66624 0.58912 0.0
C456 C 0.0745 0.69023 0.56148 0.0
C457 C 0.08835 0.71214 0.60722 0.0
O458 O 0.08817 0.67213 0.58327 0.0
O459 O 0.11748 0.67982 0.59537 0.0
O460 O 0.09815 0.73276 0.57766 0.0
O461 O 0.12033 0.72086 0.58394 0.0
Co462 Co 0.08291 0.69119 0.75512 0.0
O463 O 0.08832 0.69111 0.77225 0.0
O464 O 0.07027 0.70654 0.76393 0.0
C465 C 0.07181 0.65493 0.75233 0.0
O466 O 0.07362 0.6936 0.73771 0.0
Co467 Co 0.10977 0.68007 0.73649 0.0
O468 O 0.0853 0.67552 0.72542 0.0
C469 C 0.13109 0.72383 0.74886 0.0
C470 C 0.07765 0.70181 0.77374 0.0
C471 C 0.07371 0.68478 0.72737 0.0
O472 O 0.1122 0.71979 0.75321 0.0
O473 O 0.13368 0.7095 0.74281 0.0
O474 O 0.05776 0.66067 0.75628 0.0
O475 O 0.09198 0.67092 0.7511 0.0
Co476 Co 0.37031 0.42651 0.75632 0.0
O477 O 0.37033 0.43272 0.77336 0.0
O478 O 0.35516 0.39894 0.76543 0.0
C479 C 0.4065 0.45146 0.75328 0.0
O480 O 0.36802 0.41403 0.73915 0.0
Co481 Co 0.38077 0.46343 0.73716 0.0
O482 O 0.38579 0.44328 0.72649 0.0
C483 C 0.33708 0.44111 0.74951 0.0
C484 C 0.35977 0.41141 0.77509 0.0
C485 C 0.37692 0.4226 0.72879 0.0
O486 O 0.34156 0.42677 0.75416 0.0
O487 O 0.35114 0.45786 0.74326 0.0
O488 O 0.40072 0.4319 0.75762 0.0
O489 O 0.39058 0.45577 0.75191 0.0
Co490 Co 0.63199 0.97447 0.75573 0.0
O491 O 0.62754 0.96867 0.77288 0.0
O492 O 0.66049 0.98703 0.76402 0.0
C493 C 0.60683 0.98577 0.7537 0.0
O494 O 0.64249 0.98421 0.73816 0.0
Co495 Co 0.59258 0.94725 0.73794 0.0
O496 O 0.61167 0.97169 0.72666 0.0
C497 C 0.61664 0.9264 0.74884 0.0
C498 C 0.64896 0.97939 0.77401 0.0
C499 C 0.63261 0.98379 0.72811 0.0
O500 O 0.6314 0.94529 0.75324 0.0
O501 O 0.59919 0.92357 0.74328 0.0
O502 O 0.62679 -0.00039 0.7575 0.0
O503 O 0.60237 0.96551 0.75237 0.0
C504 C 0.10004 0.30865 0.07691 0.0
C505 C 0.09549 0.32409 0.08255 0.0
C506 C 0.12189 0.31349 0.07523 0.0
C507 C 0.17684 0.34584 0.08875 0.0
H508 H 0.19429 0.32417 0.06067 0.0
C509 C 0.25886 0.34311 0.08755 0.0
C510 C 0.25558 0.32214 0.08422 0.0
C511 C 0.24206 0.34834 0.08562 0.0
C512 C 0.18971 0.33041 0.06855 0.0
H513 H 0.11024 0.35703 0.09049 0.0
H514 H 0.14868 0.36548 0.08761 0.0
H515 H 0.15942 0.32464 0.06024 0.0
H516 H 0.23253 0.29052 0.07591 0.0
H517 H 0.20343 0.29959 0.07253 0.0
H518 H 0.20672 0.35072 0.09725 0.0
C519 C 0.13524 0.3496 0.08453 0.0
C520 C 0.16976 0.33067 0.0683 0.0
C521 C 0.11328 0.3448 0.08613 0.0
C522 C 0.23557 0.30681 0.07858 0.0
C523 C 0.21894 0.31209 0.07655 0.0
C524 C 0.19685 0.34559 0.089 0.0
C525 C 0.13975 0.33386 0.07919 0.0
C526 C 0.16271 0.33761 0.07857 0.0
C527 C 0.22185 0.33277 0.08019 0.0
C528 C 0.20306 0.3371 0.07906 0.0
H529 H 0.08669 0.29256 0.07403 0.0
H530 H 0.12476 0.30086 0.07126 0.0
H531 H 0.17181 0.35115 0.09684 0.0
H532 H 0.27416 0.35525 0.09191 0.0
H533 H 0.24476 0.36444 0.08847 0.0
C534 C 0.74806 0.958 0.07801 0.0
C535 C 0.7328 0.96257 0.08384 0.0
C536 C 0.74296 0.93613 0.07601 0.0
C537 C 0.71019 0.88066 0.08882 0.0
H538 H 0.73078 0.86394 0.06 0.0
C539 C 0.71204 0.79839 0.08631 0.0
C540 C 0.73283 0.80156 0.08267 0.0
C541 C 0.70685 0.81527 0.0846 0.0
C542 C 0.72485 0.86831 0.06809 0.0
H543 H 0.69993 0.94785 0.09186 0.0
H544 H 0.69103 0.90937 0.08846 0.0
H545 H 0.73095 0.89915 0.06034 0.0
H546 H 0.76405 0.8244 0.07391 0.0
H547 H 0.75507 0.85366 0.07095 0.0
H548 H 0.70504 0.85029 0.09676 0.0
C549 C 0.70697 0.92281 0.08545 0.0
C550 C 0.72495 0.88846 0.06828 0.0
C551 C 0.71203 0.94479 0.08736 0.0
C552 C 0.74791 0.82147 0.07685 0.0
C553 C 0.74268 0.83819 0.07505 0.0
C554 C 0.71011 0.86049 0.08863 0.0
C555 C 0.7225 0.91828 0.07986 0.0
C556 C 0.71839 0.89522 0.07881 0.0
C557 C 0.72227 0.83548 0.0791 0.0
C558 C 0.71821 0.8545 0.07842 0.0
H559 H 0.7642 0.97133 0.07517 0.0
H560 H 0.75543 0.93322 0.07186 0.0
H561 H 0.70517 0.88547 0.09709 0.0
H562 H 0.70009 0.78317 0.09081 0.0
H563 H 0.69095 0.81268 0.08775 0.0
C564 C 0.11408 0.79641 0.08646 0.0
C565 C 0.09669 0.7999 0.08276 0.0
C566 C 0.13624 0.81284 0.0845 0.0
C567 C 0.17177 0.86463 0.06712 0.0
H568 H 0.20898 0.88297 0.09599 0.0
C569 C 0.23857 0.95446 0.07587 0.0
C570 C 0.25823 0.95928 0.08199 0.0
C571 C 0.22194 0.93252 0.07398 0.0
C572 C 0.19906 0.8778 0.08775 0.0
H573 H 0.08874 0.82279 0.07367 0.0
H574 H 0.12714 0.85126 0.07024 0.0
H575 H 0.17361 0.84815 0.09618 0.0
H576 H 0.2763 0.94493 0.09055 0.0
H577 H 0.24694 0.90629 0.08731 0.0
H578 H 0.19673 0.89476 0.05887 0.0
C579 C 0.12382 0.83589 0.07459 0.0
C580 C 0.17878 0.85784 0.08786 0.0
C581 C 0.10178 0.81963 0.07664 0.0
C582 C 0.26128 0.94167 0.08581 0.0
C583 C 0.24448 0.9196 0.08401 0.0
C584 C 0.19202 0.88455 0.067 0.0
C585 C 0.14131 0.83288 0.07867 0.0
C586 C 0.16455 0.85149 0.07771 0.0
C587 C 0.2245 0.91483 0.07822 0.0
C588 C 0.20547 0.89177 0.07747 0.0
H589 H 0.11061 0.78132 0.09118 0.0
H590 H 0.14939 0.81004 0.08769 0.0
H591 H 0.16133 0.85994 0.05908 0.0
H592 H 0.23575 0.96766 0.07279 0.0
H593 H 0.20664 0.92945 0.06965 0.0
C594 C 0.342 0.10964 0.91348 0.0
C595 C 0.32215 0.09143 0.91775 0.0
C596 C 0.34499 0.13116 0.91395 0.0
C597 C 0.31104 0.1575 0.91323 0.0
H598 H 0.36201 0.2109 0.92571 0.0
C599 C 0.30474 0.23442 0.92241 0.0
C600 C 0.32183 0.25481 0.91802 0.0
C601 C 0.30753 0.21593 0.92289 0.0
C602 C 0.3478 0.19614 0.92208 0.0
H603 H 0.29058 0.0816 0.92656 0.0
H604 H 0.29583 0.11881 0.92739 0.0
H605 H 0.3624 0.17566 0.92547 0.0
H606 H 0.35573 0.27224 0.91132 0.0
H607 H 0.36054 0.23959 0.91203 0.0
H608 H 0.29631 0.17754 0.90982 0.0
C609 C 0.3089 0.11653 0.9235 0.0
C610 C 0.34804 0.17606 0.92194 0.0
C611 C 0.30595 0.09522 0.92305 0.0
C612 C 0.34225 0.25667 0.9147 0.0
C613 C 0.34503 0.23803 0.91514 0.0
C614 C 0.31082 0.1774 0.91334 0.0
C615 C 0.32812 0.13461 0.91864 0.0
C616 C 0.32938 0.15648 0.91779 0.0
C617 C 0.32743 0.21734 0.91891 0.0
C618 C 0.32892 0.19682 0.91804 0.0
H619 H 0.35479 0.10717 0.90938 0.0
H620 H 0.35998 0.14489 0.91017 0.0
H621 H 0.29665 0.14275 0.90971 0.0
H622 H 0.28893 0.23254 0.92519 0.0
H623 H 0.29386 0.20033 0.92613 0.0
C624 C 0.94706 0.2581 0.91371 0.0
C625 C 0.96555 0.25705 0.91806 0.0
C626 C 0.92566 0.2396 0.91468 0.0
C627 C 0.89936 0.17897 0.91676 0.0
H628 H 0.84534 0.17963 0.92492 0.0
C629 C 0.81985 0.09815 0.92541 0.0
C630 C 0.80089 0.09463 0.91898 0.0
C631 C 0.83832 0.11934 0.92626 0.0
C632 C 0.86031 0.1793 0.92254 0.0
H633 H 0.97606 0.23651 0.9276 0.0
H634 H 0.93891 0.20456 0.92948 0.0
H635 H 0.88112 0.21461 0.92475 0.0
H636 H 0.78577 0.1107 0.90908 0.0
H637 H 0.81853 0.14811 0.91047 0.0
H638 H 0.87889 0.14393 0.91452 0.0
C639 C 0.94089 0.21937 0.92502 0.0
C640 C 0.88073 0.19925 0.92244 0.0
C641 C 0.96217 0.23771 0.924 0.0
C642 C 0.80023 0.11298 0.91406 0.0
C643 C 0.81892 0.13434 0.91487 0.0
C644 C 0.87913 0.1592 0.91688 0.0
C645 C 0.92248 0.21983 0.92004 0.0
C646 C 0.90051 0.19918 0.91975 0.0
C647 C 0.83838 0.13752 0.92063 0.0
C648 C 0.85944 0.15905 0.91997 0.0
H649 H 0.9492 0.27286 0.90912 0.0
H650 H 0.91179 0.24044 0.91075 0.0
H651 H 0.91417 0.17842 0.91427 0.0
H652 H 0.82075 0.08441 0.92946 0.0
H653 H 0.85291 0.12138 0.93101 0.0
C654 C 0.81919 0.74652 0.92472 0.0
C655 C 0.79931 0.73149 0.91886 0.0
C656 C 0.8358 0.74116 0.92661 0.0
C657 C 0.85817 0.70855 0.91331 0.0
H658 H 0.89566 0.72836 0.94207 0.0
C659 C 0.94233 0.71027 0.91537 0.0
C660 C 0.95994 0.73095 0.91915 0.0
C661 C 0.92027 0.70512 0.91707 0.0
C662 C 0.8853 0.72264 0.934 0.0
H663 H 0.78089 0.69877 0.91069 0.0
H664 H 0.81023 0.68944 0.91389 0.0
H665 H 0.86059 0.72847 0.94203 0.0
H666 H 0.96833 0.76205 0.92807 0.0
H667 H 0.93012 0.75312 0.93103 0.0
H668 H 0.88339 0.70369 0.90508 0.0
C669 C 0.81286 0.70537 0.91702 0.0
C670 C 0.86523 0.7227 0.93398 0.0
C671 C 0.79608 0.71068 0.91523 0.0
C672 C 0.95513 0.74599 0.92504 0.0
C673 C 0.93319 0.74079 0.92683 0.0
C674 C 0.87828 0.7085 0.91333 0.0
C675 C 0.833 0.7207 0.92262 0.0
C676 C 0.85187 0.71644 0.92348 0.0
C677 C 0.9155 0.72045 0.92271 0.0
C678 C 0.89243 0.71634 0.92352 0.0
H679 H 0.82217 0.76268 0.92764 0.0
H680 H 0.85124 0.75348 0.93078 0.0
H681 H 0.8483 0.70377 0.90505 0.0
H682 H 0.94558 0.69836 0.91081 0.0
H683 H 0.90696 0.68928 0.91385 0.0
C684 C 0.78056 0.67853 0.42053 0.0
C685 C 0.76274 0.65753 0.41737 0.0
C686 C 0.8025 0.68353 0.41857 0.0
C687 C 0.83649 0.66453 0.40187 0.0
H688 H 0.87548 0.6866 0.42997 0.0
C689 C 0.90426 0.64288 0.41104 0.0
C690 C 0.92442 0.65866 0.41636 0.0
C691 C 0.88725 0.64768 0.40921 0.0
C692 C 0.86503 0.68091 0.42194 0.0
H693 H 0.75384 0.62564 0.40929 0.0
H694 H 0.79188 0.63429 0.40591 0.0
H695 H 0.84021 0.6863 0.43023 0.0
H696 H 0.9429 0.6921 0.42363 0.0
H697 H 0.91288 0.70048 0.42052 0.0
H698 H 0.86085 0.65822 0.3938 0.0
C699 C 0.78904 0.64699 0.4098 0.0
C700 C 0.84481 0.68073 0.42208 0.0
C701 C 0.76721 0.64196 0.41184 0.0
C702 C 0.92749 0.67962 0.41952 0.0
C703 C 0.91032 0.68438 0.41778 0.0
C704 C 0.85666 0.6647 0.40173 0.0
C705 C 0.80695 0.66769 0.4133 0.0
C706 C 0.82999 0.67179 0.41223 0.0
C707 C 0.88993 0.66834 0.41272 0.0
C708 C 0.87077 0.67214 0.41194 0.0
H709 H 0.77758 0.69087 0.42479 0.0
H710 H 0.81598 0.69966 0.42129 0.0
H711 H 0.82558 0.65794 0.39405 0.0
H712 H 0.90139 0.62658 0.4085 0.0
H713 H 0.87163 0.63483 0.40547 0.0
C714 C 0.41737 0.2908 0.4115 0.0
C715 C 0.40165 0.29506 0.41702 0.0
C716 C 0.41244 0.26904 0.40927 0.0
C717 C 0.3784 0.21281 0.42099 0.0
H718 H 0.4016 0.19764 0.39268 0.0
C719 C 0.3794 0.13021 0.41816 0.0
C720 C 0.4004 0.13326 0.41512 0.0
C721 C 0.37467 0.14738 0.41633 0.0
C722 C 0.39494 0.20158 0.40062 0.0
H723 H 0.36817 0.27993 0.42425 0.0
H724 H 0.35955 0.24166 0.42042 0.0
H725 H 0.40204 0.23298 0.39323 0.0
H726 H 0.43248 0.15618 0.40723 0.0
H727 H 0.4243 0.18596 0.40407 0.0
H728 H 0.37219 0.18183 0.4286 0.0
C729 C 0.37572 0.25524 0.41785 0.0
C730 C 0.3952 0.22181 0.40094 0.0
C731 C 0.38063 0.27711 0.42 0.0
C732 C 0.41617 0.15334 0.40971 0.0
C733 C 0.4114 0.17037 0.4078 0.0
C734 C 0.37815 0.19255 0.42067 0.0
C735 C 0.39169 0.25099 0.41257 0.0
C736 C 0.38766 0.22798 0.4113 0.0
C737 C 0.39078 0.16778 0.41131 0.0
C738 C 0.38714 0.18709 0.41066 0.0
H739 H 0.43372 0.30428 0.40909 0.0
H740 H 0.42525 0.26636 0.40538 0.0
H741 H 0.37261 0.21714 0.42915 0.0
H742 H 0.36692 0.11486 0.42233 0.0
H743 H 0.35858 0.14485 0.41905 0.0
C744 C 0.92691 0.27951 0.42066 0.0
C745 C 0.92596 0.29786 0.41598 0.0
C746 C 0.90842 0.25806 0.41972 0.0
C747 C 0.84808 0.23237 0.41771 0.0
H748 H 0.84726 0.17767 0.40942 0.0
C749 C 0.766 0.15378 0.40975 0.0
C750 C 0.76243 0.13465 0.41601 0.0
C751 C 0.78731 0.17202 0.40871 0.0
C752 C 0.84734 0.19283 0.41184 0.0
H753 H 0.90572 0.30804 0.40584 0.0
H754 H 0.87386 0.27089 0.40406 0.0
H755 H 0.88271 0.21304 0.40948 0.0
H756 H 0.77847 0.11898 0.4254 0.0
H757 H 0.81604 0.15128 0.4237 0.0
H758 H 0.81304 0.21256 0.42015 0.0
C759 C 0.88856 0.273 0.40871 0.0
C760 C 0.86756 0.213 0.41188 0.0
C761 C 0.90686 0.29428 0.40969 0.0
C762 C 0.78079 0.13358 0.42055 0.0
C763 C 0.80226 0.15201 0.41956 0.0
C764 C 0.82806 0.21239 0.41768 0.0
C765 C 0.88882 0.25478 0.41408 0.0
C766 C 0.86799 0.23301 0.41459 0.0
C767 C 0.80556 0.17166 0.41399 0.0
C768 C 0.82736 0.19246 0.41451 0.0
H769 H 0.94149 0.28183 0.42553 0.0
H770 H 0.90907 0.24429 0.42393 0.0
H771 H 0.84797 0.24741 0.4202 0.0
H772 H 0.75222 0.15499 0.406 0.0
H773 H 0.78943 0.18675 0.4041 0.0
C774 C 0.97199 0.42846 0.25669 0.0
C775 C 0.98832 0.42513 0.25116 0.0
C776 C 0.97469 0.44967 0.25744 0.0
C777 C 0.01401 0.50966 0.25554 0.0
H778 H 0.96124 0.51093 0.24521 0.0
C779 C 0.00831 0.59014 0.24741 0.0
C780 C 0.98844 0.58886 0.25133 0.0
C781 C 0.01097 0.57145 0.24813 0.0
C782 C 0.97605 0.51086 0.24824 0.0
H783 H 0.02088 0.44151 0.2427 0.0
H784 H 0.02554 0.47892 0.24393 0.0
H785 H 0.96121 0.47599 0.24516 0.0
H786 H 0.95652 0.56768 0.2599 0.0
H787 H 0.96128 0.53544 0.26135 0.0
H788 H 0.02874 0.5448 0.25863 0.0
C789 C 0.01069 0.465 0.2477 0.0
C790 C 0.97604 0.49084 0.2482 0.0
C791 C 0.00799 0.44363 0.24696 0.0
C792 C 0.97189 0.5691 0.25664 0.0
C793 C 0.97457 0.55058 0.25742 0.0
C794 C 0.01402 0.52987 0.25559 0.0
C795 C 0.99373 0.46807 0.25263 0.0
C796 C 0.99481 0.4899 0.25207 0.0
C797 C 0.99379 0.55129 0.25281 0.0
C798 C 0.99483 0.53051 0.25217 0.0
H799 H 0.95677 0.41458 0.26016 0.0
H800 H 0.96156 0.45161 0.26154 0.0
H801 H 0.02873 0.50938 0.25853 0.0
H802 H 0.02136 0.60524 0.24331 0.0
H803 H 0.02596 0.57246 0.24453 0.0
C804 C 0.62863 0.57312 0.25808 0.0
C805 C 0.63192 0.59252 0.25226 0.0
C806 C 0.60742 0.55468 0.25905 0.0
C807 C 0.54725 0.53385 0.25657 0.0
H808 H 0.54637 0.47946 0.24741 0.0
C809 C 0.46704 0.44801 0.24772 0.0
C810 C 0.46777 0.4293 0.25199 0.0
C811 C 0.48582 0.46925 0.24863 0.0
C812 C 0.54632 0.49444 0.25013 0.0
H813 H 0.61546 0.60837 0.2435 0.0
H814 H 0.57808 0.57574 0.24504 0.0
H815 H 0.58133 0.51428 0.24753 0.0
H816 H 0.4881 0.41828 0.26132 0.0
H817 H 0.5205 0.4551 0.26307 0.0
H818 H 0.51195 0.51364 0.2591 0.0
C819 C 0.59201 0.57495 0.24892 0.0
C820 C 0.56637 0.51441 0.2502 0.0
C821 C 0.61337 0.59357 0.24801 0.0
C822 C 0.4871 0.43232 0.25779 0.0
C823 C 0.50572 0.45342 0.25874 0.0
C824 C 0.52702 0.5137 0.2565 0.0
C825 C 0.58897 0.55511 0.25411 0.0
C826 C 0.56717 0.53428 0.25362 0.0
C827 C 0.50555 0.47202 0.25385 0.0
C828 C 0.52647 0.49375 0.25348 0.0
H829 H 0.64255 0.5719 0.26161 0.0
H830 H 0.60553 0.53981 0.26337 0.0
H831 H 0.5474 0.54895 0.25921 0.0
H832 H 0.4523 0.44614 0.24324 0.0
H833 H 0.48523 0.4833 0.24478 0.0
C834 C 0.46555 0.05182 0.24757 0.0
C835 C 0.46819 0.07271 0.25046 0.0
C836 C 0.48304 0.04759 0.24942 0.0
C837 C 0.53669 0.06857 0.2656 0.0
H838 H 0.55271 0.04428 0.23812 0.0
C839 C 0.62552 0.08693 0.2572 0.0
C840 C 0.62916 0.07048 0.2521 0.0
C841 C 0.60398 0.08312 0.25878 0.0
C842 C 0.54824 0.05064 0.24599 0.0
H843 H 0.49088 0.10532 0.25785 0.0
H844 H 0.52127 0.09801 0.26102 0.0
H845 H 0.51791 0.04487 0.23769 0.0
H846 H 0.61314 0.03684 0.24504 0.0
H847 H 0.57528 0.03013 0.24781 0.0
H848 H 0.56736 0.07502 0.27372 0.0
C849 C 0.50571 0.0848 0.25744 0.0
C850 C 0.52829 0.05099 0.24574 0.0
C851 C 0.48834 0.08906 0.25553 0.0
C852 C 0.6108 0.04985 0.24896 0.0
C853 C 0.58917 0.04604 0.2505 0.0
C854 C 0.55659 0.06819 0.26586 0.0
C855 C 0.50337 0.06412 0.25428 0.0
C856 C 0.52265 0.06058 0.25538 0.0
C857 C 0.58556 0.06276 0.25529 0.0
C858 C 0.56291 0.05985 0.25589 0.0
H859 H 0.45015 0.03889 0.24368 0.0
H860 H 0.48071 0.03145 0.24697 0.0
H861 H 0.53258 0.07567 0.27326 0.0
H862 H 0.63933 0.10301 0.25972 0.0
H863 H 0.60181 0.09647 0.26233 0.0
C864 C 0.4479 0.01476 0.75302 0.0
C865 C 0.43034 0.994 0.74932 0.0
C866 C 0.46998 0.01998 0.75133 0.0
C867 C 0.50517 0.00218 0.73481 0.0
H868 H 0.54152 0.0211 0.76401 0.0
C869 C 0.57035 0.97749 0.74506 0.0
C870 C 0.59027 0.99252 0.75089 0.0
C871 C 0.5539 0.98301 0.743 0.0
C872 C 0.53183 0.01631 0.75568 0.0
H873 H 0.42204 0.96289 0.74044 0.0
H874 H 0.46029 0.97193 0.7375 0.0
H875 H 0.5066 0.02151 0.76358 0.0
H876 H 0.60888 0.02538 0.75888 0.0
H877 H 0.57979 0.03499 0.7554 0.0
H878 H 0.52987 0.99596 0.72713 0.0
C879 C 0.45717 0.98427 0.74165 0.0
C880 C 0.51182 0.01655 0.75543 0.0
C881 C 0.43521 0.979 0.74343 0.0
C882 C 0.59366 0.01346 0.75437 0.0
C883 C 0.57703 0.01894 0.75241 0.0
C884 C 0.52513 0.00191 0.73507 0.0
C885 C 0.47482 0.00463 0.74578 0.0
C886 C 0.49789 0.00868 0.74516 0.0
C887 C 0.5569 0.00365 0.7468 0.0
C888 C 0.53824 0.00817 0.74567 0.0
H889 H 0.4446 0.02665 0.75758 0.0
H890 H 0.48325 0.03585 0.75455 0.0
H891 H 0.49499 0.99643 0.72668 0.0
H892 H 0.56724 0.96122 0.74226 0.0
H893 H 0.53845 0.97072 0.73883 0.0
C894 C 0.08366 0.48961 0.74518 0.0
C895 C 0.06762 0.46938 0.75031 0.0
C896 C 0.08008 0.50759 0.74465 0.0
C897 C 0.03944 0.52651 0.7464 0.0
H898 H 0.09092 0.58053 0.75791 0.0
C899 C 0.04616 0.61373 0.7546 0.0
C900 C 0.06599 0.63169 0.75012 0.0
C901 C 0.04274 0.59205 0.75406 0.0
C902 C 0.07644 0.56561 0.75462 0.0
H903 H 0.03465 0.4516 0.75823 0.0
H904 H 0.02843 0.48346 0.7574 0.0
H905 H 0.09148 0.54586 0.75804 0.0
H906 H 0.09688 0.6409 0.7407 0.0
H907 H 0.09087 0.60339 0.73972 0.0
H908 H 0.02457 0.54674 0.74293 0.0
C909 C 0.04374 0.48524 0.75377 0.0
C910 C 0.07676 0.54577 0.75468 0.0
C911 C 0.04732 0.46708 0.75427 0.0
C912 C 0.08158 0.62747 0.74439 0.0
C913 C 0.07818 0.60599 0.74385 0.0
C914 C 0.0391 0.54655 0.74636 0.0
C915 C 0.06045 0.50585 0.74931 0.0
C916 C 0.05857 0.52614 0.75025 0.0
C917 C 0.05915 0.5882 0.74907 0.0
C918 C 0.0579 0.56636 0.75016 0.0
H919 H 0.09934 0.49183 0.74189 0.0
H920 H 0.09303 0.52314 0.7409 0.0
H921 H 0.02516 0.51155 0.743 0.0
H922 H 0.03385 0.61654 0.75903 0.0
H923 H 0.02791 0.57855 0.75812 0.0
C924 C 0.43453 0.48785 0.74444 0.0
C925 C 0.42975 0.46808 0.75041 0.0
C926 C 0.45647 0.50454 0.74258 0.0
C927 C 0.51136 0.52714 0.75613 0.0
H928 H 0.52933 0.56464 0.72737 0.0
C929 C 0.59389 0.61115 0.75426 0.0
C930 C 0.59094 0.62881 0.75043 0.0
C931 C 0.57697 0.58911 0.75252 0.0
C932 C 0.5246 0.55428 0.73545 0.0
H933 H 0.44416 0.44991 0.75878 0.0
H934 H 0.48274 0.47933 0.75561 0.0
H935 H 0.49413 0.52962 0.72735 0.0
H936 H 0.56842 0.6373 0.74135 0.0
H937 H 0.53913 0.59914 0.73833 0.0
H938 H 0.54138 0.55229 0.76441 0.0
C939 C 0.46943 0.48185 0.75239 0.0
C940 C 0.50446 0.53425 0.73543 0.0
C941 C 0.44738 0.46501 0.75416 0.0
C942 C 0.5712 0.62407 0.74443 0.0
C943 C 0.55445 0.60215 0.7426 0.0
C944 C 0.53154 0.54722 0.75615 0.0
C945 C 0.47417 0.50191 0.74672 0.0
C946 C 0.49725 0.52086 0.74592 0.0
C947 C 0.55697 0.58442 0.74679 0.0
C948 C 0.53796 0.56137 0.74596 0.0
H949 H 0.4213 0.49068 0.74142 0.0
H950 H 0.45954 0.5199 0.73834 0.0
H951 H 0.5062 0.51726 0.76439 0.0
H952 H 0.60897 0.61435 0.7589 0.0
H953 H 0.57941 0.57576 0.75579 0.0
C954 C 0.67529 0.77807 0.58199 0.0
C955 C 0.65561 0.75965 0.58626 0.0
C956 C 0.67811 0.79949 0.58273 0.0
C957 C 0.64351 0.8252 0.58293 0.0
H958 H 0.69568 0.87936 0.59366 0.0
C959 C 0.63845 0.90315 0.5907 0.0
C960 C 0.65524 0.92303 0.58563 0.0
C961 C 0.64119 0.88468 0.59162 0.0
C962 C 0.6811 0.86437 0.59053 0.0
H963 H 0.62426 0.74934 0.59544 0.0
H964 H 0.62926 0.78643 0.5968 0.0
H965 H 0.69596 0.84408 0.59373 0.0
H966 H 0.6886 0.93966 0.57817 0.0
H967 H 0.6933 0.90697 0.57961 0.0
H968 H 0.62858 0.84508 0.57963 0.0
C969 C 0.6423 0.78438 0.59266 0.0
C970 C 0.68127 0.84426 0.59058 0.0
C971 C 0.63948 0.76314 0.59191 0.0
C972 C 0.67536 0.92447 0.58208 0.0
C973 C 0.67807 0.90582 0.58294 0.0
C974 C 0.64336 0.84514 0.58285 0.0
C975 C 0.66127 0.80267 0.58773 0.0
C976 C 0.66226 0.82443 0.58702 0.0
C977 C 0.6607 0.88556 0.58739 0.0
C978 C 0.66193 0.86487 0.58689 0.0
H979 H 0.68802 0.77582 0.57763 0.0
H980 H 0.69291 0.81335 0.57888 0.0
H981 H 0.62883 0.81028 0.57982 0.0
H982 H 0.62288 0.90162 0.59367 0.0
H983 H 0.62773 0.86946 0.59538 0.0
C984 C 0.13266 0.77875 0.58099 0.0
C985 C 0.13515 0.76063 0.58443 0.0
C986 C 0.1501 0.80053 0.58266 0.0
C987 C 0.20327 0.83399 0.59919 0.0
H988 H 0.22007 0.87297 0.57108 0.0
C989 C 0.29229 0.90398 0.59094 0.0
C990 C 0.29612 0.92388 0.58549 0.0
C991 C 0.2707 0.88636 0.59249 0.0
C992 C 0.21537 0.86251 0.57911 0.0
H993 H 0.15753 0.75105 0.59265 0.0
H994 H 0.18786 0.78888 0.59552 0.0
H995 H 0.18532 0.83754 0.57078 0.0
H996 H 0.28035 0.94125 0.57772 0.0
H997 H 0.24238 0.91023 0.58041 0.0
H998 H 0.23366 0.8586 0.60736 0.0
C999 C 0.17244 0.78637 0.59163 0.0
C1000 C 0.19545 0.8422 0.57893 0.0
C1001 C 0.15511 0.76467 0.5899 0.0
C1002 C 0.27787 0.92606 0.58193 0.0
C1003 C 0.25618 0.9083 0.58342 0.0
C1004 C 0.22314 0.85428 0.59937 0.0
C1005 C 0.17025 0.80455 0.5879 0.0
C1006 C 0.18953 0.82743 0.58883 0.0
C1007 C 0.2524 0.88817 0.58859 0.0
C1008 C 0.22973 0.86846 0.58919 0.0
H1009 H 0.11742 0.77612 0.57678 0.0
H1010 H 0.14789 0.81422 0.57978 0.0
H1011 H 0.19893 0.82314 0.60704 0.0
H1012 H 0.30601 0.90179 0.59378 0.0
H1013 H 0.26842 0.87098 0.59633 0.0
C1014 C 0.29309 0.41619 0.59203 0.0
C1015 C 0.29655 0.40019 0.58619 0.0
C1016 C 0.27196 0.41372 0.59253 0.0
C1017 C 0.21207 0.37582 0.58912 0.0
H1018 H 0.21316 0.42984 0.5789 0.0
C1019 C 0.13324 0.38373 0.58002 0.0
C1020 C 0.13465 0.40362 0.58403 0.0
C1021 C 0.15176 0.38081 0.58082 0.0
C1022 C 0.21256 0.41469 0.5819 0.0
H1023 H 0.28041 0.36831 0.57699 0.0
H1024 H 0.24311 0.36405 0.57778 0.0
H1025 H 0.24753 0.42878 0.57958 0.0
H1026 H 0.15601 0.43544 0.59267 0.0
H1027 H 0.18796 0.43023 0.59422 0.0
H1028 H 0.17686 0.36185 0.5915 0.0
C1029 C 0.25689 0.37846 0.58198 0.0
C1030 C 0.23225 0.41407 0.58227 0.0
C1031 C 0.27818 0.38092 0.58151 0.0
C1032 C 0.15448 0.42005 0.58935 0.0
C1033 C 0.17284 0.4171 0.59019 0.0
C1034 C 0.1922 0.37645 0.58878 0.0
C1035 C 0.25379 0.39526 0.58714 0.0
C1036 C 0.23232 0.39483 0.58611 0.0
C1037 C 0.1719 0.39773 0.58565 0.0
C1038 C 0.19238 0.39608 0.58539 0.0
H1039 H 0.30684 0.43107 0.59588 0.0
H1040 H 0.26996 0.42668 0.59681 0.0
H1041 H 0.21169 0.36075 0.59208 0.0
H1042 H 0.11811 0.37077 0.57591 0.0
H1043 H 0.15057 0.36572 0.57723 0.0
C1044 C 0.02712 0.30967 0.12899 0.0
C1045 C 0.01943 0.31616 0.11881 0.0
C1046 C 0.02221 0.31337 0.14079 0.0
C1047 C 0.00462 0.34734 0.15839 0.0
H1048 H 0.99247 0.30339 0.18354 0.0
C1049 C 0.97384 0.35336 0.20617 0.0
C1050 C 0.98379 0.34923 0.21624 0.0
C1051 C 0.9778 0.3488 0.19435 0.0
C1052 C 0.99605 0.31591 0.17664 0.0
H1053 H 0.00042 0.33152 0.11301 0.0
H1054 H 0.99136 0.33761 0.13371 0.0
H1055 H -0.00074 0.29624 0.16266 0.0
H1056 H 0.00546 0.33673 0.2218 0.0
H1057 H 0.0124 0.32867 0.20102 0.0
H1058 H 0.00118 0.3669 0.17239 0.0
C1059 C 0.00154 0.32997 0.13254 0.0
C1060 C -5e-05 0.31184 0.16467 0.0
C1061 C 0.0066 0.32638 0.12068 0.0
C1062 C 0.99753 0.34005 0.21423 0.0
C1063 C 0.00144 0.33538 0.20235 0.0
C1064 C 0.00059 0.35135 0.17035 0.0
C1065 C 0.00932 0.32352 0.14274 0.0
C1066 C 0.00438 0.32754 0.1554 0.0
C1067 C 0.99177 0.33993 0.19228 0.0
C1068 C 0.99629 0.3357 0.17961 0.0
H1069 H 0.03722 0.30193 0.12788 0.0
H1070 H 0.02888 0.3086 0.14839 0.0
H1071 H 0.00836 0.35998 0.15155 0.0
H1072 H 0.96308 0.36034 0.20739 0.0
H1073 H 0.96982 0.35215 0.18681 0.0
C1074 C 0.73099 0.71132 0.12093 0.0
C1075 C 0.74251 0.73444 0.11916 0.0
C1076 C 0.72705 0.70246 0.13274 0.0
C1077 C 0.74599 0.71721 0.16483 0.0
H1078 H 0.68834 0.66661 0.17244 0.0
C1079 C 0.71721 0.68641 0.2143 0.0
C1080 C 0.70616 0.66328 0.21603 0.0
C1081 C 0.7221 0.69535 0.2025 0.0
C1082 C 0.7046 0.68063 0.17044 0.0
H1083 H 0.75903 0.76638 0.12837 0.0
H1084 H 0.75191 0.751 0.14882 0.0
H1085 H 0.69623 0.68119 0.15171 0.0
H1086 H 0.69175 0.63143 0.20677 0.0
H1087 H 0.70032 0.64697 0.18634 0.0
H1088 H 0.75424 0.71672 0.18362 0.0
C1089 C 0.74621 0.73965 0.14116 0.0
C1090 C 0.70915 0.68894 0.15854 0.0
C1091 C 0.75017 0.74847 0.1294 0.0
C1092 C 0.70022 0.64933 0.20577 0.0
C1093 C 0.705 0.65822 0.19403 0.0
C1094 C 0.74141 0.70894 0.17674 0.0
C1095 C 0.73454 0.71655 0.143 0.0
C1096 C 0.7299 0.70733 0.15559 0.0
C1097 C 0.71591 0.68131 0.19224 0.0
C1098 C 0.72067 0.69053 0.17967 0.0
H1099 H 0.72492 0.70009 0.11322 0.0
H1100 H 0.71823 0.68457 0.13383 0.0
H1101 H 0.76227 0.73121 0.16284 0.0
H1102 H 0.72198 0.69757 0.22203 0.0
H1103 H 0.7304 0.71323 0.2014 0.0
C1104 C 0.30952 0.02797 0.12933 0.0
C1105 C 0.32381 0.03573 0.11919 0.0
C1106 C 0.31797 0.03323 0.14115 0.0
C1107 C 0.36617 0.07361 0.15887 0.0
H1108 H 0.34357 0.02726 0.18347 0.0
C1109 C 0.40834 0.08583 0.20557 0.0
C1110 C 0.39503 0.07629 0.21594 0.0
C1111 C 0.39897 0.08138 0.19394 0.0
C1112 C 0.34981 0.04048 0.17677 0.0
H1113 H 0.3582 0.05523 0.11351 0.0
H1114 H 0.37306 0.06456 0.13428 0.0
H1115 H 0.32907 0.01847 0.16273 0.0
H1116 H 0.36134 0.05485 0.22227 0.0
H1117 H 0.34478 0.04727 0.20186 0.0
H1118 H 0.38682 0.09566 0.17289 0.0
C1119 C 0.35526 0.05444 0.13302 0.0
C1120 C 0.34156 0.03542 0.16487 0.0
C1121 C 0.34679 0.04903 0.12114 0.0
C1122 C 0.37202 0.06242 0.21444 0.0
C1123 C 0.36258 0.05798 0.20276 0.0
C1124 C 0.37433 0.0787 0.17078 0.0
C1125 C 0.34092 0.04648 0.14315 0.0
C1126 C 0.34973 0.0519 0.15578 0.0
C1127 C 0.376 0.06734 0.19236 0.0
C1128 C 0.36638 0.06216 0.17986 0.0
H1129 H 0.29172 0.01769 0.12816 0.0
H1130 H 0.30648 0.02709 0.14875 0.0
H1131 H 0.37252 0.08674 0.15212 0.0
H1132 H 0.42616 0.09654 0.20637 0.0
H1133 H 0.40987 0.08858 0.18617 0.0
C1134 C 0.30528 0.01757 0.87357 0.0
C1135 C 0.31511 0.01352 0.88371 0.0
C1136 C 0.3093 0.01282 0.86179 0.0
C1137 C 0.34985 0.00495 0.84398 0.0
H1138 H 0.30334 0.98206 0.81948 0.0
C1139 C 0.36172 0.97718 0.79651 0.0
C1140 C 0.35403 0.98379 0.78638 0.0
C1141 C 0.35652 0.98043 0.80833 0.0
C1142 C 0.31654 0.98867 0.82619 0.0
H1143 H 0.33652 0.00084 0.88949 0.0
H1144 H 0.34334 0.99219 0.86886 0.0
H1145 H 0.2947 0.98717 0.84038 0.0
H1146 H 0.33465 0.99883 0.7807 0.0
H1147 H 0.32543 0.00449 0.80149 0.0
H1148 H 0.37165 0.00631 0.82979 0.0
C1149 C 0.33275 -0.00062 0.87002 0.0
C1150 C 0.31161 0.99158 0.83818 0.0
C1151 C 0.32874 0.00418 0.88185 0.0
C1152 C 0.34081 0.99358 0.78833 0.0
C1153 C 0.33546 0.99671 0.80021 0.0
C1154 C 0.35475 0.00194 0.83202 0.0
C1155 C 0.32322 0.00383 0.85985 0.0
C1156 C 0.32822 -0.00017 0.84721 0.0
C1157 C 0.3434 0.99028 0.81034 0.0
C1158 C 0.33816 0.9938 0.82299 0.0
H1159 H 0.29473 0.02482 0.87467 0.0
H1160 H 0.30194 0.01678 0.85419 0.0
H1161 H 0.36315 0.01173 0.85064 0.0
H1162 H 0.37191 0.96954 0.79534 0.0
H1163 H 0.36262 0.975 0.81592 0.0
C1164 C 0.0799 0.41155 0.79539 0.0
C1165 C 0.07328 0.39803 0.78493 0.0
C1166 C 0.07613 0.40222 0.80699 0.0
C1167 C 0.04167 0.35018 0.82393 0.0
H1168 H 0.08632 0.38019 0.84899 0.0
C1169 C 0.03463 0.31262 0.87174 0.0
C1170 C 0.03971 0.32696 0.88178 0.0
C1171 C 0.03916 0.32098 0.85988 0.0
C1172 C 0.07361 0.37174 0.84213 0.0
H1173 H 0.05747 0.36403 0.77847 0.0
H1174 H 0.05111 0.34757 0.79889 0.0
H1175 H 0.09358 0.39463 0.82824 0.0
H1176 H 0.05376 0.36138 0.88725 0.0
H1177 H 0.06175 0.37609 0.86644 0.0
H1178 H 0.02176 0.32723 0.83786 0.0
C1179 C 0.05902 0.36546 0.79805 0.0
C1180 C 0.07776 0.37999 0.83022 0.0
C1181 C 0.06274 0.37486 0.78636 0.0
C1182 C 0.04969 0.34993 0.87971 0.0
C1183 C 0.05433 0.35834 0.8678 0.0
C1184 C 0.03757 0.34186 0.83584 0.0
C1185 C 0.06573 0.37908 0.8085 0.0
C1186 C 0.06175 0.36944 0.82099 0.0
C1187 C 0.04897 0.34391 0.85775 0.0
C1188 C 0.05344 0.35264 0.84508 0.0
H1189 H 0.08791 0.42947 0.79464 0.0
H1190 H 0.08109 0.4132 0.81481 0.0
H1191 H 0.02886 0.34183 0.8171 0.0
H1192 H 0.02698 0.29482 0.87301 0.0
H1193 H 0.03513 0.30948 0.85236 0.0
C1194 C 0.6449 0.70137 0.79651 0.0
C1195 C 0.65877 0.70671 0.78625 0.0
C1196 C 0.65389 0.70643 0.80823 0.0
C1197 C 0.67729 0.72876 0.83174 0.0
H1198 H 0.72609 0.71874 0.83936 0.0
C1199 C 0.70814 0.72989 0.88113 0.0
C1200 C 0.7313 0.74091 0.88274 0.0
C1201 C 0.69903 0.72619 0.86939 0.0
C1202 C 0.71259 0.72182 0.83735 0.0
H1203 H 0.693 0.72196 0.78021 0.0
H1204 H 0.7088 0.73113 0.80074 0.0
H1205 H 0.71121 0.71215 0.81871 0.0
H1206 H 0.76303 0.75694 0.87331 0.0
H1207 H 0.74719 0.75057 0.85297 0.0
H1208 H 0.67859 0.73821 0.85046 0.0
C1209 C 0.69091 0.72269 0.79971 0.0
C1210 C 0.70411 0.71811 0.8255 0.0
C1211 C 0.68189 0.71758 0.78794 0.0
C1212 C 0.74511 0.74831 0.87241 0.0
C1213 C 0.73604 0.74455 0.86072 0.0
C1214 C 0.68573 0.73239 0.84362 0.0
C1215 C 0.67699 0.71702 0.81 0.0
C1216 C 0.68637 0.72155 0.82254 0.0
C1217 C 0.71291 0.73333 0.85906 0.0
C1218 C 0.70351 0.72901 0.84654 0.0
H1219 H 0.627 0.69292 0.79553 0.0
H1220 H 0.64266 0.70154 0.81594 0.0
H1221 H 0.6638 0.73184 0.82974 0.0
H1222 H 0.69709 0.72399 0.88893 0.0
H1223 H 0.68112 0.71737 0.86838 0.0
C1224 C 0.03338 0.75038 0.87332 0.0
C1225 C 0.03814 0.7411 0.88348 0.0
C1226 C 0.03868 0.74693 0.86156 0.0
C1227 C 0.05003 0.7088 0.84362 0.0
H1228 H 0.07136 0.75594 0.8195 0.0
C1229 C 0.08078 0.7003 0.79632 0.0
C1230 C 0.07382 0.70758 0.78616 0.0
C1231 C 0.07682 0.7049 0.80813 0.0
C1232 C 0.06519 0.74256 0.8261 0.0
H1233 H 0.05255 0.7212 0.88926 0.0
H1234 H 0.06211 0.71535 0.86863 0.0
H1235 H 0.06481 0.76332 0.84041 0.0
H1236 H 0.05743 0.72566 0.78042 0.0
H1237 H 0.05052 0.73384 0.8012 0.0
H1238 H 0.05052 0.68808 0.82932 0.0
C1239 C 0.05398 0.72507 0.86979 0.0
C1240 C 0.06146 0.74677 0.83809 0.0
C1241 C 0.04864 0.72853 0.88161 0.0
C1242 C 0.063 0.71985 0.78807 0.0
C1243 C 0.05914 0.72459 0.79996 0.0
C1244 C 0.05385 0.70462 0.83165 0.0
C1245 C 0.04894 0.73415 0.85962 0.0
C1246 C 0.05377 0.72992 0.84699 0.0
C1247 C 0.06587 0.71699 0.81011 0.0
C1248 C 0.06145 0.72144 0.82276 0.0
H1249 H 0.02525 0.76012 0.87442 0.0
H1250 H 0.03424 0.75388 0.85396 0.0
H1251 H 0.04372 0.69533 0.85016 0.0
H1252 H 0.08921 0.69084 0.79519 0.0
H1253 H 0.08251 0.6991 0.81574 0.0
C1254 C 0.3597 0.41667 0.79759 0.0
C1255 C 0.35408 0.4022 0.78757 0.0
C1256 C 0.35535 0.40842 0.80947 0.0
C1257 C 0.32099 0.3578 0.82742 0.0
H1258 H 0.36656 0.38746 0.85208 0.0
C1259 C 0.31614 0.31713 0.87352 0.0
C1260 C 0.32234 0.33027 0.88412 0.0
C1261 C 0.31998 0.32684 0.86202 0.0
C1262 C 0.35354 0.37919 0.84535 0.0
H1263 H 0.33925 0.36767 0.78216 0.0
H1264 H 0.33167 0.35317 0.80301 0.0
H1265 H 0.37305 0.40218 0.83134 0.0
H1266 H 0.33773 0.36401 0.89095 0.0
H1267 H 0.34431 0.38117 0.87067 0.0
H1268 H 0.30148 0.33481 0.84137 0.0
C1269 C 0.33931 0.37093 0.80162 0.0
C1270 C 0.35727 0.38758 0.83346 0.0
C1271 C 0.34371 0.37922 0.78969 0.0
C1272 C 0.33278 0.35348 0.88294 0.0
C1273 C 0.33659 0.36327 0.87135 0.0
C1274 C 0.31724 0.34947 0.8393 0.0
C1275 C 0.34525 0.38548 0.81164 0.0
C1276 C 0.34111 0.37685 0.82434 0.0
C1277 C 0.33002 0.34998 0.86076 0.0
C1278 C 0.33357 0.35989 0.84837 0.0
H1279 H 0.36763 0.43448 0.79627 0.0
H1280 H 0.35981 0.42003 0.81697 0.0
H1281 H 0.30805 0.3494 0.82066 0.0
H1282 H 0.30827 0.29919 0.87407 0.0
H1283 H 0.31521 0.31613 0.85409 0.0
C1284 C 0.74519 0.02519 0.87279 0.0
C1285 C 0.73117 0.0189 0.88304 0.0
C1286 C 0.73636 0.02026 0.86103 0.0
C1287 C 0.68542 0.00608 0.84361 0.0
H1288 H 0.7136 0.98915 0.81856 0.0
C1289 C 0.6455 0.97473 0.79658 0.0
C1290 C 0.65923 0.98308 0.78625 0.0
C1291 C 0.65459 0.9788 0.80826 0.0
C1292 C 0.7057 0.99409 0.82543 0.0
H1293 H 0.69684 0.00222 0.88898 0.0
H1294 H 0.6813 0.99323 0.86837 0.0
H1295 H 0.7282 0.99596 0.83932 0.0
H1296 H 0.69338 0.00194 0.78009 0.0
H1297 H 0.70941 0.00907 0.80065 0.0
H1298 H 0.66282 0.00403 0.82973 0.0
C1299 C 0.69919 0.00232 0.86945 0.0
C1300 C 0.71404 0.99798 0.83733 0.0
C1301 C 0.70806 0.00734 0.88126 0.0
C1302 C 0.68238 0.99528 0.78787 0.0
C1303 C 0.69154 -0.00071 0.79963 0.0
C1304 C 0.67703 0.00208 0.83173 0.0
C1305 C 0.71326 0.0088 0.85919 0.0
C1306 C 0.70402 0.00406 0.84658 0.0
C1307 C 0.67768 0.99128 0.80996 0.0
C1308 C 0.68704 0.99601 0.8225 0.0
H1309 H 0.76309 0.03422 0.87382 0.0
H1310 H 0.74771 0.02586 0.85337 0.0
H1311 H 0.67754 0.01114 0.85042 0.0
H1312 H 0.62758 0.96516 0.79568 0.0
H1313 H 0.64348 0.97206 0.816 0.0
C1314 C 0.72963 0.05105 0.12159 0.0
C1315 C 0.74126 0.03954 0.11984 0.0
C1316 C 0.7257 0.05604 0.13338 0.0
C1317 C 0.74465 0.06023 0.16553 0.0
H1318 H 0.68724 0.05389 0.17305 0.0
C1319 C 0.71534 0.06199 0.21493 0.0
C1320 C 0.70472 0.07448 0.21667 0.0
C1321 C 0.72035 0.05802 0.20314 0.0
C1322 C 0.70342 0.0559 0.17106 0.0
H1323 H 0.75791 0.02428 0.12909 0.0
H1324 H 0.75074 0.03257 0.14952 0.0
H1325 H 0.69508 0.04705 0.15234 0.0
H1326 H 0.69119 0.09277 0.20741 0.0
H1327 H 0.6999 0.08587 0.18699 0.0
H1328 H 0.75282 0.06881 0.18434 0.0
C1329 C 0.745 0.03817 0.14184 0.0
C1330 C 0.70796 0.05208 0.15918 0.0
C1331 C 0.74899 0.03329 0.1301 0.0
C1332 C 0.69934 0.08302 0.20641 0.0
C1333 C 0.7042 0.07896 0.19468 0.0
C1334 C 0.74006 0.06393 0.17744 0.0
C1335 C 0.73326 0.04956 0.14366 0.0
C1336 C 0.72863 0.0542 0.15625 0.0
C1337 C 0.71465 0.06633 0.19289 0.0
C1338 C 0.71941 0.06187 0.18033 0.0
H1339 H 0.72351 0.05612 0.11386 0.0
H1340 H 0.71684 0.06508 0.13445 0.0
H1341 H 0.76088 0.06234 0.16357 0.0
H1342 H 0.71967 0.05518 0.22266 0.0
H1343 H 0.7283 0.04811 0.20203 0.0
C1344 C 0.00884 0.71181 0.12204 0.0
C1345 C 0.02029 0.73487 0.12004 0.0
C1346 C 0.00416 0.70333 0.13393 0.0
C1347 C 0.02295 0.71881 0.16576 0.0
H1348 H 0.96562 0.66815 0.17381 0.0
C1349 C 0.99826 0.68587 0.2153 0.0
C1350 C 0.98669 0.66265 0.21663 0.0
C1351 C 0.00207 0.69547 0.20366 0.0
C1352 C 0.9818 0.68219 0.17169 0.0
H1353 H 0.03551 0.7671 0.12893 0.0
H1354 H 0.02724 0.75233 0.14956 0.0
H1355 H 0.97273 0.68284 0.1531 0.0
H1356 H 0.97031 0.63132 0.2068 0.0
H1357 H 0.97722 0.64793 0.1867 0.0
H1358 H 0.03212 0.71801 0.18431 0.0
C1359 C 0.02212 0.74078 0.14199 0.0
C1360 C 0.98586 0.69058 0.15981 0.0
C1361 C 0.02672 0.74923 0.13015 0.0
C1362 C 0.97914 0.64928 0.20613 0.0
C1363 C 0.98296 0.65882 0.19457 0.0
C1364 C 0.01891 0.71037 0.17764 0.0
C1365 C 0.01091 0.71776 0.14404 0.0
C1366 C 0.00651 0.70892 0.15669 0.0
C1367 C 0.99437 0.68201 0.19316 0.0
C1368 C 0.99834 0.69185 0.18073 0.0
H1369 H 0.00371 0.70033 0.11444 0.0
H1370 H 0.99565 0.68549 0.13522 0.0
H1371 H 0.03913 0.73282 0.16361 0.0
H1372 H 0.00425 0.69659 0.22322 0.0
H1373 H 0.01079 0.71342 0.20289 0.0
C1374 C 0.31161 0.30534 0.12987 0.0
C1375 C 0.32524 0.31403 0.11953 0.0
C1376 C 0.32076 0.30975 0.14155 0.0
C1377 C 0.3706 0.34955 0.15874 0.0
H1378 H 0.34542 0.30427 0.18389 0.0
C1379 C 0.41043 0.3611 0.20624 0.0
C1380 C 0.39625 0.35448 0.21643 0.0
C1381 C 0.40179 0.35597 0.19445 0.0
C1382 C 0.35246 0.31714 0.17699 0.0
H1383 H 0.35927 0.33393 0.11334 0.0
H1384 H 0.37541 0.34144 0.13384 0.0
H1385 H 0.33121 0.29523 0.1631 0.0
H1386 H 0.36182 0.33715 0.22223 0.0
H1387 H 0.34661 0.32798 0.20151 0.0
H1388 H 0.39198 0.37139 0.17266 0.0
C1389 C 0.35755 0.33143 0.13288 0.0
C1390 C 0.34436 0.31198 0.16507 0.0
C1391 C 0.34834 0.32701 0.12113 0.0
C1392 C 0.37316 0.34246 0.21456 0.0
C1393 C 0.36448 0.33714 0.20271 0.0
C1394 C 0.37879 0.35467 0.17066 0.0
C1395 C 0.34381 0.32294 0.14324 0.0
C1396 C 0.35323 0.32815 0.1558 0.0
C1397 C 0.37873 0.34395 0.19253 0.0
C1398 C 0.36977 0.33854 0.17992 0.0
H1399 H 0.29373 0.29532 0.12899 0.0
H1400 H 0.30962 0.30324 0.14929 0.0
H1401 H 0.37756 0.36252 0.1519 0.0
H1402 H 0.42831 0.37039 0.20734 0.0
H1403 H 0.41321 0.36121 0.18682 0.0
C1404 C 0.64107 0.68912 0.5405 0.0
C1405 C 0.65015 0.68406 0.55063 0.0
C1406 C 0.64502 0.68446 0.5287 0.0
C1407 C 0.66134 0.64988 0.51111 0.0
H1408 H 0.67644 0.69478 0.48614 0.0
C1409 C 0.69327 0.64295 0.46386 0.0
C1410 C 0.68638 0.65001 0.45358 0.0
C1411 C 0.68814 0.64672 0.47559 0.0
C1412 C 0.67192 0.68193 0.49295 0.0
H1413 H 0.67027 0.66984 0.55633 0.0
H1414 H 0.6772 0.66163 0.53559 0.0
H1415 H 0.66921 0.70198 0.50691 0.0
H1416 H 0.66853 0.66645 0.44754 0.0
H1417 H 0.65915 0.67274 0.46813 0.0
H1418 H 0.6639 0.62976 0.49716 0.0
C1419 C 0.66692 0.66914 0.53684 0.0
C1420 C 0.66785 0.68609 0.50487 0.0
C1421 C 0.66303 0.6739 0.5487 0.0
C1422 C 0.6741 0.66086 0.45529 0.0
C1423 C 0.66885 0.66455 0.46708 0.0
C1424 C 0.6653 0.64568 0.49918 0.0
C1425 C 0.6581 0.67456 0.52672 0.0
C1426 C 0.66257 0.67013 0.51408 0.0
C1427 C 0.67585 0.65753 0.47737 0.0
C1428 C 0.67075 0.66169 0.48996 0.0
H1429 H 0.63098 0.69687 0.54166 0.0
H1430 H 0.63769 0.68851 0.52111 0.0
H1431 H 0.65699 0.63714 0.51797 0.0
H1432 H 0.70291 0.63468 0.46288 0.0
H1433 H 0.69419 0.64147 0.48328 0.0
C1434 C 0.4129 0.07992 0.46342 0.0
C1435 C 0.40665 0.06593 0.45316 0.0
C1436 C 0.40887 0.07108 0.47517 0.0
C1437 C 0.37422 0.01938 0.49244 0.0
H1438 H 0.41842 0.04955 0.51768 0.0
C1439 C 0.36727 0.9806 0.53975 0.0
C1440 C 0.37202 0.99446 0.54997 0.0
C1441 C 0.37189 0.98949 0.528 0.0
C1442 C 0.40583 0.04107 0.51076 0.0
H1443 H 0.39128 0.03165 0.4472 0.0
H1444 H 0.38446 0.01612 0.4678 0.0
H1445 H 0.42578 0.06424 0.49696 0.0
H1446 H 0.38565 0.0286 0.5559 0.0
H1447 H 0.39378 0.04422 0.53528 0.0
H1448 H 0.35433 0.99615 0.50625 0.0
C1449 C 0.39225 0.03397 0.46673 0.0
C1450 C 0.41003 0.04947 0.49888 0.0
C1451 C 0.39625 0.04285 0.45492 0.0
C1452 C 0.38184 0.01751 0.5482 0.0
C1453 C 0.38656 0.02644 0.53641 0.0
C1454 C 0.37006 0.01094 0.50431 0.0
C1455 C 0.39854 0.04801 0.47699 0.0
C1456 C 0.39426 0.03875 0.48957 0.0
C1457 C 0.38144 0.01248 0.52618 0.0
C1458 C 0.38582 0.02169 0.51361 0.0
H1459 H 0.42084 0.09779 0.46239 0.0
H1460 H 0.41357 0.08236 0.48285 0.0
H1461 H 0.36155 0.01093 0.48555 0.0
H1462 H 0.35977 0.96277 0.54078 0.0
H1463 H 0.36809 0.97832 0.52033 0.0
C1464 C 0.97877 0.36304 0.46292 0.0
C1465 C 0.99338 0.37191 0.45297 0.0
C1466 C 0.98678 0.36745 0.47485 0.0
C1467 C 0.03332 0.40742 0.49352 0.0
H1468 H 0.01186 0.35916 0.51693 0.0
C1469 C 0.0741 0.41799 0.54047 0.0
C1470 C 0.06068 0.40702 0.5506 0.0
C1471 C 0.06513 0.4141 0.52876 0.0
C1472 C 0.01774 0.37289 0.51057 0.0
H1473 H 0.02788 0.39248 0.44771 0.0
H1474 H 0.04196 0.40046 0.4687 0.0
H1475 H 0.99831 0.35153 0.49596 0.0
H1476 H 0.02715 0.38358 0.55642 0.0
H1477 H 0.01124 0.37693 0.53586 0.0
H1478 H 0.05258 0.42884 0.5081 0.0
C1479 C 0.02426 0.39006 0.4672 0.0
C1480 C 0.01007 0.36849 0.49854 0.0
C1481 C 0.01624 0.38543 0.4552 0.0
C1482 C 0.0379 0.39227 0.54879 0.0
C1483 C 0.02886 0.38837 0.537 0.0
C1484 C 0.04087 0.41185 0.50556 0.0
C1485 C 0.00958 0.38101 0.47714 0.0
C1486 C 0.01788 0.38569 0.48988 0.0
C1487 C 0.04243 0.39917 0.52684 0.0
C1488 C 0.03332 0.39461 0.51422 0.0
H1489 H 0.96105 0.35251 0.46152 0.0
H1490 H 0.97505 0.36045 0.48231 0.0
H1491 H 0.03934 0.42106 0.48709 0.0
H1492 H 0.09174 0.42944 0.54152 0.0
H1493 H 0.07617 0.42243 0.52117 0.0
C1494 C 0.36555 0.41242 0.5406 0.0
C1495 C 0.37196 0.4048 0.55085 0.0
C1496 C 0.37032 0.40837 0.52884 0.0
C1497 C 0.40746 0.39533 0.51138 0.0
H1498 H 0.36158 0.37609 0.48663 0.0
C1499 C 0.39625 0.38144 0.45562 0.0
C1500 C 0.40857 0.37065 0.45383 0.0
C1501 C 0.39218 0.38623 0.46744 0.0
C1502 C 0.37468 0.38176 0.49337 0.0
H1503 H 0.38864 0.38712 0.55678 0.0
H1504 H 0.39712 0.38007 0.53612 0.0
H1505 H 0.35372 0.3827 0.50739 0.0
H1506 H 0.42633 0.3565 0.46301 0.0
H1507 H 0.41899 0.36452 0.48347 0.0
H1508 H 0.42849 0.39457 0.49736 0.0
C1509 C 0.38842 0.38926 0.53725 0.0
C1510 C 0.37015 0.38547 0.50529 0.0
C1511 C 0.3835 0.3932 0.54907 0.0
C1512 C 0.41685 0.36492 0.46406 0.0
C1513 C 0.41276 0.36965 0.47582 0.0
C1514 C 0.41203 0.39172 0.49944 0.0
C1515 C 0.38172 0.39668 0.52701 0.0
C1516 C 0.38648 0.3923 0.51442 0.0
C1517 C 0.40034 0.38032 0.47768 0.0
C1518 C 0.39568 0.38484 0.49029 0.0
H1519 H 0.35666 0.42145 0.54163 0.0
H1520 H 0.36522 0.41459 0.52117 0.0
H1521 H 0.42048 0.40089 0.51817 0.0
H1522 H 0.38968 0.38609 0.44792 0.0
H1523 H 0.38276 0.3947 0.46854 0.0
C1524 C 0.66812 0.02064 0.54939 0.0
C1525 C 0.65584 0.99743 0.55071 0.0
C1526 C 0.6731 0.03025 0.53773 0.0
C1527 C 0.67791 0.01687 0.50564 0.0
H1528 H 0.66912 0.06632 0.49774 0.0
C1529 C 0.67877 0.04468 0.45593 0.0
C1530 C 0.68963 0.06766 0.45373 0.0
C1531 C 0.6749 0.03656 0.4679 0.0
C1532 C 0.6719 0.05267 0.49983 0.0
H1533 H 0.63906 0.96613 0.54083 0.0
H1534 H 0.64764 0.98278 0.52074 0.0
H1535 H 0.66309 0.0522 0.51861 0.0
H1536 H 0.70484 0.10013 0.46235 0.0
H1537 H 0.69837 0.08603 0.48309 0.0
H1538 H 0.68672 0.01725 0.48692 0.0
C1539 C 0.65367 0.99361 0.52862 0.0
C1540 C 0.66849 0.04463 0.51179 0.0
C1541 C 0.64863 0.98409 0.54018 0.0
C1542 C 0.69635 0.08231 0.46372 0.0
C1543 C 0.69252 0.07422 0.47564 0.0
C1544 C 0.68138 0.02492 0.49371 0.0
C1545 C 0.66604 0.01677 0.52723 0.0
C1546 C 0.67123 0.02648 0.51479 0.0
C1547 C 0.68183 0.05127 0.47789 0.0
C1548 C 0.67824 0.0428 0.49063 0.0
H1549 H 0.67389 0.03133 0.55733 0.0
H1550 H 0.68274 0.04818 0.53692 0.0
H1551 H 0.6805 0.00307 0.50772 0.0
H1552 H 0.67336 0.03299 0.44843 0.0
H1553 H 0.66635 0.01875 0.46932 0.0
C1554 C 0.0177 0.66143 0.45356 0.0
C1555 C 0.99473 0.65252 0.452 0.0
C1556 C 0.02683 0.66489 0.46531 0.0
C1557 C 0.01068 0.64784 0.49761 0.0
H1558 H 0.06663 0.70084 0.50498 0.0
C1559 C 0.04212 0.67575 0.547 0.0
C1560 C 0.06487 0.68402 0.54909 0.0
C1561 C 0.03363 0.67115 0.5351 0.0
C1562 C 0.05108 0.68584 0.50304 0.0
H1563 H 0.9634 0.64073 0.46151 0.0
H1564 H 0.97925 0.64721 0.48179 0.0
H1565 H 0.05226 0.69441 0.48419 0.0
H1566 H 0.09644 0.69342 0.54039 0.0
H1567 H 0.08164 0.68526 0.51978 0.0
H1568 H 0.00937 0.63946 0.5165 0.0
C1569 C 0.99024 0.65097 0.47404 0.0
C1570 C 0.04287 0.68212 0.49111 0.0
C1571 C 0.98116 0.6474 0.46237 0.0
C1572 C 0.07884 0.68719 0.5391 0.0
C1573 C 0.0704 0.68265 0.52726 0.0
C1574 C 0.01882 0.65162 0.50954 0.0
C1575 C 0.01315 0.6596 0.4757 0.0
C1576 C 0.0225 0.66314 0.48825 0.0
C1577 C 0.04776 0.67478 0.52509 0.0
C1578 C 0.03908 0.67069 0.5124 0.0
H1579 H 0.02856 0.6655 0.44572 0.0
H1580 H 0.04454 0.67141 0.46625 0.0
H1581 H 0.99513 0.63281 0.4957 0.0
H1582 H 0.03096 0.6732 0.5545 0.0
H1583 H 0.01612 0.66524 0.53371 0.0
C1584 C 0.0583 0.33815 0.04071 0.0
C1585 C 0.04153 0.32957 0.04963 0.0
C1586 C 0.05447 0.34457 0.02932 0.0
C1587 C 0.00884 0.32543 0.00853 0.0
H1588 H 0.05154 0.37222 0.98754 0.0
C1589 C 0.99753 0.31431 0.95723 0.0
C1590 C 0.01691 0.31947 0.95075 0.0
C1591 C 0.99886 0.32287 0.96893 0.0
C1592 C 0.03942 0.35899 0.99324 0.0
H1593 H 0.00818 0.32244 0.05396 0.0
H1594 H 0.00127 0.33325 0.03385 0.0
H1595 H 0.05767 0.37455 0.00957 0.0
H1596 H 0.0528 0.33842 0.95097 0.0
H1597 H 0.05536 0.35255 0.97157 0.0
H1598 H 0.99152 0.30877 0.99241 0.0
C1599 C 0.01744 0.33517 0.03576 0.0
C1600 C 0.04287 0.36045 0.00588 0.0
C1601 C 0.02143 0.32912 0.04727 0.0
C1602 C 0.03763 0.33452 0.95576 0.0
C1603 C 0.03902 0.34262 0.96761 0.0
C1604 C 0.00557 0.32376 0.99593 0.0
C1605 C 0.03365 0.34217 0.02653 0.0
C1606 C 0.02793 0.34335 0.01361 0.0
C1607 C 0.01964 0.33607 0.97458 0.0
C1608 C 0.02116 0.34016 0.98804 0.0
H1609 H 0.07396 0.3387 0.04232 0.0
H1610 H 0.06723 0.34972 0.02239 0.0
H1611 H 0.9972 0.3118 0.01422 0.0
H1612 H 0.98136 0.30265 0.95351 0.0
H1613 H 0.98355 0.31803 0.97379 0.0
C1614 C 0.72219 0.7293 0.95406 0.0
C1615 C 0.74207 0.72924 0.95185 0.0
C1616 C 0.71213 0.72339 0.96557 0.0
C1617 C 0.71307 0.69943 0.99578 0.0
H1618 H 0.71223 0.75101 0.00852 0.0
C1619 C 0.73471 0.72807 0.04545 0.0
C1620 C 0.72855 0.74289 0.05028 0.0
C1621 C 0.72786 0.71935 0.03372 0.0
C1622 C 0.71162 0.73604 0.00521 0.0
H1623 H 0.76577 0.72084 0.95939 0.0
H1624 H 0.74806 0.71015 0.97932 0.0
H1625 H 0.71456 0.74712 0.98678 0.0
H1626 H 0.70881 0.75862 0.04735 0.0
H1627 H 0.69546 0.7422 0.02729 0.0
H1628 H 0.71069 0.6886 0.01428 0.0
C1629 C 0.74027 0.71488 0.97229 0.0
C1630 C 0.71303 0.73387 0.99264 0.0
C1631 C 0.75051 0.72115 0.9609 0.0
C1632 C 0.71378 0.74723 0.04375 0.0
C1633 C 0.70642 0.73804 0.03218 0.0
C1634 C 0.7113 0.7014 0.00839 0.0
C1635 C 0.72158 0.71692 0.97494 0.0
C1636 C 0.71465 0.71602 0.98782 0.0
C1637 C 0.7144 0.72502 0.0267 0.0
C1638 C 0.71148 0.72023 0.01332 0.0
H1639 H 0.71539 0.73555 0.94725 0.0
H1640 H 0.69767 0.72501 0.96736 0.0
H1641 H 0.71411 0.68539 0.99229 0.0
H1642 H 0.74634 0.72475 0.0503 0.0
H1643 H 0.73458 0.70959 0.02988 0.0
C1644 C 0.34793 0.06181 0.95834 0.0
C1645 C 0.33405 0.04232 0.95184 0.0
C1646 C 0.35553 0.06066 0.96996 0.0
C1647 C 0.35238 0.02038 0.99412 0.0
H1648 H 0.34541 0.0613 0.0152 0.0
C1649 C 0.31036 -0.0007 0.04088 0.0
C1650 C 0.31777 0.01572 0.04996 0.0
C1651 C 0.3213 0.0037 0.02968 0.0
C1652 C 0.34798 0.05005 0.00949 0.0
H1653 H 0.31827 0.00648 0.95192 0.0
H1654 H 0.33039 0.00421 0.97241 0.0
H1655 H 0.3485 0.06747 0.99344 0.0
H1656 H 0.34332 0.04905 0.05484 0.0
H1657 H 0.36225 0.05701 0.03505 0.0
H1658 H 0.34973 0.00193 0.01035 0.0
C1659 C 0.33625 0.02052 0.96852 0.0
C1660 C 0.34984 0.0536 0.99692 0.0
C1661 C 0.32921 0.02174 0.95673 0.0
C1662 C 0.33734 0.03607 0.048 0.0
C1663 C 0.34808 0.04065 0.03668 0.0
C1664 C 0.35012 0.01663 0.00672 0.0
C1665 C 0.34864 0.03994 0.97553 0.0
C1666 C 0.35129 0.03841 0.98897 0.0
C1667 C 0.33965 0.02476 0.02726 0.0
C1668 C 0.34718 0.03107 0.01448 0.0
H1669 H 0.35191 0.07788 0.95469 0.0
H1670 H 0.3657 0.07603 0.97484 0.0
H1671 H 0.35402 0.0086 0.98838 0.0
H1672 H 0.29534 0.98343 0.04219 0.0
H1673 H 0.3143 0.99119 0.02259 0.0
C1674 C 0.99648 0.71769 0.96139 0.0
C1675 C 0.01314 0.72583 0.95242 0.0
C1676 C 0.00031 0.71149 0.97285 0.0
C1677 C 0.01185 0.69675 0.99665 0.0
H1678 H 0.06469 0.74818 0.0091 0.0
C1679 C 0.05979 0.74497 0.04437 0.0
C1680 C 0.0409 0.74115 0.05094 0.0
C1681 C 0.05764 0.73556 0.03283 0.0
C1682 C 0.05019 0.73326 0.00587 0.0
H1683 H 0.0462 0.73217 0.94802 0.0
H1684 H 0.05311 0.72165 0.9682 0.0
H1685 H 0.05837 0.74384 0.98737 0.0
H1686 H 0.00499 0.72373 0.05106 0.0
H1687 H 0.00106 0.70816 0.0307 0.0
H1688 H 0.00337 0.68646 0.01522 0.0
C1689 C 0.03703 0.72 0.96632 0.0
C1690 C 0.04656 0.73082 0.99331 0.0
C1691 C 0.03305 0.72588 0.95476 0.0
C1692 C 0.01978 0.72663 0.04619 0.0
C1693 C 0.0176 0.71768 0.03449 0.0
C1694 C 0.01563 0.69901 0.00925 0.0
C1695 C 0.02103 0.71363 0.97563 0.0
C1696 C 0.02698 0.71301 0.98858 0.0
C1697 C 0.03655 0.72283 0.02743 0.0
C1698 C 0.03446 0.71778 0.01407 0.0
H1699 H 0.98093 0.71739 0.9598 0.0
H1700 H 0.98769 0.7068 0.97982 0.0
H1701 H 0.99667 0.68274 0.99323 0.0
H1702 H 0.07626 0.75614 0.04791 0.0
H1703 H 0.07262 0.73933 0.0279 0.0
C1704 C 0.33334 0.33114 0.04876 0.0
C1705 C 0.3113 0.32621 0.05051 0.0
C1706 C 0.34356 0.33838 0.03733 0.0
C1707 C 0.35062 0.3316 0.0107 0.0
H1708 H 0.32939 0.35801 0.98694 0.0
C1709 C 0.32545 0.29655 0.96318 0.0
C1710 C 0.32491 0.30933 0.9534 0.0
C1711 C 0.33296 0.306 0.97463 0.0
C1712 C 0.33605 0.35105 0.9934 0.0
H1713 H 0.28357 0.32722 0.04208 0.0
H1714 H 0.30087 0.33917 0.02237 0.0
H1715 H 0.32677 0.36406 0.00854 0.0
H1716 H 0.33339 0.34257 0.94778 0.0
H1717 H 0.34681 0.35932 0.96792 0.0
H1718 H 0.35985 0.31856 0.99556 0.0
C1719 C 0.31059 0.33772 0.02965 0.0
C1720 C 0.33423 0.35425 0.00585 0.0
C1721 C 0.30047 0.33055 0.04099 0.0
C1722 C 0.3335 0.33225 0.95515 0.0
C1723 C 0.34105 0.34179 0.96671 0.0
C1724 C 0.3528 0.32873 0.99826 0.0
C1725 C 0.33193 0.34088 0.02748 0.0
C1726 C 0.34014 0.34336 0.01466 0.0
C1727 C 0.34028 0.32861 0.97669 0.0
C1728 C 0.3442 0.33718 0.98946 0.0
H1729 H 0.34217 0.32808 0.05595 0.0
H1730 H 0.36018 0.34104 0.03607 0.0
H1731 H 0.35552 0.32302 0.01713 0.0
H1732 H 0.3192 0.27888 0.96214 0.0
H1733 H 0.33171 0.29512 0.98204 0.0
C1734 C 0.72065 0.02082 0.95458 0.0
C1735 C 0.74032 0.04087 0.95224 0.0
C1736 C 0.71066 0.0168 0.96611 0.0
C1737 C 0.71128 0.04206 0.99616 0.0
H1738 H 0.71141 0.99033 0.00925 0.0
C1739 C 0.73202 0.03581 0.04619 0.0
C1740 C 0.72615 0.01494 0.05108 0.0
C1741 C 0.72545 0.0375 0.03435 0.0
C1742 C 0.71053 0.0045 0.00584 0.0
H1743 H 0.76368 0.07326 0.95957 0.0
H1744 H 0.74605 0.06648 0.97953 0.0
H1745 H 0.71382 0.99627 0.98747 0.0
H1746 H 0.70716 0.97945 0.04812 0.0
H1747 H 0.69422 0.98216 0.02787 0.0
H1748 H 0.70849 0.05058 0.01458 0.0
C1749 C 0.73838 0.05377 0.97258 0.0
C1750 C 0.71199 0.00791 0.99325 0.0
C1751 C 0.74856 0.05762 0.96117 0.0
C1752 C 0.71189 0.99574 0.04449 0.0
C1753 C 0.70478 0.99736 0.03281 0.0
C1754 C 0.70945 0.03847 0.00878 0.0
C1755 C 0.71997 0.03295 0.97537 0.0
C1756 C 0.71321 0.02712 0.9883 0.0
C1757 C 0.71253 0.01828 0.02728 0.0
C1758 C 0.70992 0.02006 0.01385 0.0
H1759 H 0.71403 0.0076 0.94787 0.0
H1760 H 0.6964 0.00064 0.96801 0.0
H1761 H 0.71203 0.05695 0.99257 0.0
H1762 H 0.7433 0.05086 0.05107 0.0
H1763 H 0.73198 0.05393 0.03048 0.0
C1764 C 0.66636 0.64762 0.29176 0.0
C1765 C 0.68567 0.65251 0.28529 0.0
C1766 C 0.66779 0.65602 0.30351 0.0
C1767 C 0.67425 0.65663 0.33054 0.0
H1768 H 0.72655 0.70709 0.34426 0.0
C1769 C 0.72625 0.67087 0.37565 0.0
C1770 C 0.70934 0.66247 0.38447 0.0
C1771 C 0.72268 0.67724 0.36418 0.0
C1772 C 0.7117 0.69309 0.34054 0.0
H1773 H 0.72158 0.6707 0.28562 0.0
H1774 H 0.72429 0.68455 0.30632 0.0
H1775 H 0.72073 0.70469 0.3222 0.0
H1776 H 0.67601 0.65563 0.38859 0.0
H1777 H 0.66953 0.66637 0.36836 0.0
H1778 H 0.66552 0.64482 0.34883 0.0
C1779 C 0.70795 0.67497 0.3023 0.0
C1780 C 0.70842 0.69158 0.32789 0.0
C1781 C 0.70647 0.66703 0.29041 0.0
C1782 C 0.68936 0.66216 0.38196 0.0
C1783 C 0.68562 0.66817 0.37038 0.0
C1784 C 0.67735 0.65834 0.34315 0.0
C1785 C 0.68859 0.66878 0.30922 0.0
C1786 C 0.69007 0.67288 0.32267 0.0
C1787 C 0.70197 0.67498 0.36124 0.0
C1788 C 0.6965 0.67614 0.34826 0.0
H1789 H 0.65014 0.63638 0.28796 0.0
H1790 H 0.65251 0.65144 0.30835 0.0
H1791 H 0.66011 0.64174 0.327 0.0
H1792 H 0.74183 0.67131 0.37738 0.0
H1793 H 0.73553 0.68224 0.35732 0.0
C1794 C 0.40999 0.06232 0.37807 0.0
C1795 C 0.40045 0.07376 0.38358 0.0
C1796 C 0.40347 0.0535 0.36635 0.0
C1797 C 0.38624 0.03379 0.34139 0.0
H1798 H 0.3807 0.07577 0.32047 0.0
C1799 C 0.38996 0.06116 0.28726 0.0
C1800 C 0.41069 0.06335 0.28446 0.0
C1801 C 0.38086 0.05435 0.29894 0.0
C1802 C 0.38163 0.06349 0.32615 0.0
H1803 H 0.37572 0.08378 0.38175 0.0
H1804 H 0.36331 0.06731 0.36155 0.0
H1805 H 0.3791 0.07894 0.34236 0.0
H1806 H 0.437 0.05797 0.29112 0.0
H1807 H 0.42108 0.04586 0.31133 0.0
H1808 H 0.39049 0.0195 0.32498 0.0
C1809 C 0.37631 0.06567 0.36602 0.0
C1810 C 0.38069 0.06528 0.33879 0.0
C1811 C 0.38316 0.07486 0.37765 0.0
C1812 C 0.42105 0.05656 0.29308 0.0
C1813 C 0.41184 0.04948 0.30465 0.0
C1814 C 0.38743 0.03217 0.32871 0.0
C1815 C 0.38712 0.05583 0.35996 0.0
C1816 C 0.38375 0.05095 0.34662 0.0
C1817 C 0.39219 0.0493 0.3079 0.0
C1818 C 0.38588 0.04748 0.32098 0.0
H1819 H 0.42364 0.06167 0.38245 0.0
H1820 H 0.41244 0.04634 0.362 0.0
H1821 H 0.38817 0.02214 0.34709 0.0
H1822 H 0.38167 0.06636 0.2808 0.0
H1823 H 0.36559 0.05419 0.30117 0.0
C1824 C 0.00268 0.37252 0.37877 0.0
C1825 C 0.98814 0.35166 0.38381 0.0
C1826 C 0.01127 0.3741 0.36703 0.0
C1827 C 0.99445 0.34024 0.33884 0.0
H1828 H 0.04454 0.39316 0.32538 0.0
C1829 C 0.00023 0.35532 0.28752 0.0
C1830 C -0.00015 0.37496 0.28503 0.0
C1831 C 0.00656 0.35187 0.29909 0.0
C1832 C 0.03066 0.37814 0.32903 0.0
H1833 H 0.97271 0.31615 0.38123 0.0
H1834 H 0.98892 0.31872 0.36115 0.0
H1835 H 0.0417 0.38733 0.34744 0.0
H1836 H 0.00791 0.40725 0.29212 0.0
H1837 H 0.01939 0.40146 0.31213 0.0
H1838 H 0.98316 0.33134 0.32049 0.0
C1839 C 0.993 0.33396 0.3659 0.0
C1840 C 0.02889 0.37485 0.34167 0.0
C1841 C 0.98396 0.33242 0.37748 0.0
C1842 C 0.00801 0.39193 0.29383 0.0
C1843 C 0.01468 0.38865 0.30528 0.0
C1844 C 0.99642 0.34336 0.32624 0.0
C1845 C 0.00571 0.35478 0.3602 0.0
C1846 C 0.01027 0.35627 0.3468 0.0
C1847 C 0.01298 0.36817 0.30823 0.0
C1848 C 0.01407 0.36272 0.32121 0.0
H1849 H 0.00582 0.38757 0.38344 0.0
H1850 H 0.02079 0.39045 0.36301 0.0
H1851 H 0.97962 0.32591 0.3423 0.0
H1852 H 0.99389 0.34192 0.28093 0.0
H1853 H 0.00519 0.33596 0.30111 0.0
C1854 C 0.72459 0.07597 0.37777 0.0
C1855 C 0.70577 0.07264 0.38422 0.0
C1856 C 0.72241 0.06677 0.36616 0.0
C1857 C 0.68029 0.03188 0.34219 0.0
H1858 H 0.72438 0.07646 0.32074 0.0
C1859 C 0.66327 0.05351 0.29453 0.0
C1860 C 0.67994 0.06095 0.28557 0.0
C1861 C 0.66655 0.04676 0.30595 0.0
C1862 C 0.71217 0.06351 0.32656 0.0
H1863 H 0.66991 0.05638 0.38406 0.0
H1864 H 0.66595 0.04116 0.36362 0.0
H1865 H 0.73039 0.07994 0.34251 0.0
H1866 H 0.71238 0.06557 0.28119 0.0
H1867 H 0.71835 0.05414 0.30133 0.0
H1868 H 0.66128 0.01664 0.32602 0.0
C1869 C 0.68243 0.05009 0.36754 0.0
C1870 C 0.71562 0.06544 0.33914 0.0
C1871 C 0.68463 0.05883 0.37928 0.0
C1872 C 0.69923 0.05981 0.28791 0.0
C1873 C 0.70269 0.05341 0.29945 0.0
C1874 C 0.67669 0.03015 0.32957 0.0
C1875 C 0.70138 0.05477 0.36059 0.0
C1876 C 0.69942 0.05007 0.34719 0.0
C1877 C 0.68672 0.04766 0.30873 0.0
C1878 C 0.69231 0.04635 0.32166 0.0
H1879 H 0.74107 0.08666 0.38143 0.0
H1880 H 0.73736 0.07017 0.36131 0.0
H1881 H 0.66764 0.01941 0.34803 0.0
H1882 H 0.64821 0.05415 0.29293 0.0
H1883 H 0.654 0.04258 0.31291 0.0
C1884 C 0.00223 0.66793 0.38099 0.0
C1885 C 0.9799 0.66204 0.38272 0.0
C1886 C 0.01234 0.67538 0.36954 0.0
C1887 C 0.02024 0.66939 0.34289 0.0
H1888 H 0.99664 0.69353 0.31915 0.0
C1889 C 0.99581 0.63335 0.29559 0.0
C1890 C 0.99366 0.64533 0.28587 0.0
C1891 C 0.00353 0.64328 0.30692 0.0
C1892 C 0.00398 0.68724 0.32559 0.0
H1893 H 0.95142 0.66144 0.37419 0.0
H1894 H 0.96851 0.67367 0.35447 0.0
H1895 H 0.99368 0.69931 0.34072 0.0
H1896 H -0.0003 0.67775 0.28016 0.0
H1897 H 0.01357 0.69538 0.30006 0.0
H1898 H 0.03059 0.65737 0.32776 0.0
C1899 C 0.97856 0.67287 0.36178 0.0
C1900 C 0.00196 0.69027 0.33803 0.0
C1901 C 0.96856 0.66551 0.37313 0.0
C1902 C 0.00105 0.66805 0.28749 0.0
C1903 C 0.00884 0.67808 0.29893 0.0
C1904 C 0.02266 0.66675 0.33045 0.0
C1905 C 0.00031 0.67712 0.35965 0.0
C1906 C 0.00868 0.68008 0.34685 0.0
C1907 C 0.00947 0.66558 0.3089 0.0
C1908 C 0.0132 0.67431 0.32165 0.0
H1909 H 0.01145 0.66557 0.38823 0.0
H1910 H 0.02925 0.67886 0.36832 0.0
H1911 H 0.02584 0.66141 0.34933 0.0
H1912 H 0.99054 0.61588 0.29462 0.0
H1913 H 0.0034 0.63289 0.31431 0.0
C1914 C 0.39759 0.37009 0.38233 0.0
C1915 C 0.39709 0.34991 0.3845 0.0
C1916 C 0.39181 0.37449 0.37084 0.0
C1917 C 0.3666 0.35012 0.34084 0.0
H1918 H 0.4183 0.40176 0.32761 0.0
C1919 C 0.39104 0.35744 0.2903 0.0
C1920 C 0.40617 0.37832 0.28549 0.0
C1921 C 0.38338 0.35556 0.30229 0.0
C1922 C 0.4033 0.38764 0.33108 0.0
H1923 H 0.38823 0.31777 0.37685 0.0
H1924 H 0.37762 0.32519 0.35697 0.0
H1925 H 0.41555 0.39524 0.34935 0.0
H1926 H 0.42354 0.41373 0.28882 0.0
H1927 H 0.40888 0.41075 0.30937 0.0
H1928 H 0.35447 0.34227 0.32253 0.0
C1929 C 0.38262 0.3377 0.36403 0.0
C1930 C 0.40181 0.38389 0.34364 0.0
C1931 C 0.3888 0.33348 0.3754 0.0
C1932 C 0.41182 0.39743 0.29237 0.0
C1933 C 0.40368 0.39563 0.30422 0.0
C1934 C 0.36788 0.35408 0.32826 0.0
C1935 C 0.38501 0.35859 0.36145 0.0
C1936 C 0.38385 0.36471 0.34861 0.0
C1937 C 0.39042 0.37462 0.30963 0.0
C1938 C 0.38667 0.37248 0.32313 0.0
H1939 H 0.40407 0.38309 0.38917 0.0
H1940 H 0.39374 0.39071 0.3691 0.0
H1941 H 0.35248 0.33526 0.34446 0.0
H1942 H 0.38677 0.34245 0.28521 0.0
H1943 H 0.37338 0.33905 0.30604 0.0
C1944 C 0.39036 0.00496 0.70792 0.0
C1945 C 0.37389 0.99626 0.71699 0.0
C1946 C 0.38606 0.01125 0.69661 0.0
C1947 C 0.33979 0.99145 0.6763 0.0
H1948 H 0.38149 0.03833 0.655 0.0
C1949 C 0.32749 0.97932 0.62513 0.0
C1950 C 0.34683 0.98471 0.61854 0.0
C1951 C 0.3289 0.98807 0.63679 0.0
C1952 C 0.36964 0.02507 0.66079 0.0
H1953 H 0.34059 0.9888 0.72171 0.0
H1954 H 0.33282 -0.00066 0.70174 0.0
H1955 H 0.38819 0.04102 0.67697 0.0
H1956 H 0.38269 0.0043 0.61851 0.0
H1957 H 0.38541 0.01871 0.63905 0.0
H1958 H 0.32223 0.97441 0.66032 0.0
C1959 C 0.34913 0.00147 0.70346 0.0
C1960 C 0.37342 0.02674 0.67339 0.0
C1961 C 0.3536 0.99555 0.71489 0.0
C1962 C 0.36755 0.00017 0.62339 0.0
C1963 C 0.36903 0.00845 0.63521 0.0
C1964 C 0.33621 0.98958 0.66373 0.0
C1965 C 0.36506 0.0086 0.69407 0.0
C1966 C 0.35886 0.00961 0.68123 0.0
C1967 C 0.34974 0.00169 0.64229 0.0
C1968 C 0.35146 0.006 0.65573 0.0
H1969 H 0.40618 0.00574 0.70934 0.0
H1970 H 0.3986 0.01651 0.68956 0.0
H1971 H 0.32845 0.9778 0.68207 0.0
H1972 H 0.31132 0.9674 0.62152 0.0
H1973 H 0.31363 0.98306 0.64173 0.0
C1974 C 0.06201 0.42433 0.7057 0.0
C1975 C 0.06457 0.41309 0.71566 0.0
C1976 C 0.05439 0.41376 0.69451 0.0
C1977 C 0.05457 0.36926 0.67662 0.0
H1978 H 0.03094 0.39265 0.65246 0.0
C1979 C 0.05404 0.38563 0.62101 0.0
C1980 C 0.07645 0.39197 0.61914 0.0
C1981 C 0.04425 0.37822 0.63252 0.0
C1982 C 0.03703 0.38533 0.65902 0.0
H1983 H 0.05941 0.38126 0.72193 0.0
H1984 H 0.0457 0.36249 0.70228 0.0
H1985 H 0.02682 0.39794 0.67393 0.0
H1986 H 0.10536 0.39315 0.62744 0.0
H1987 H 0.08882 0.381 0.6473 0.0
H1988 H 0.06471 0.35656 0.66171 0.0
C1989 C 0.05004 0.37973 0.70311 0.0
C1990 C 0.03498 0.38871 0.67141 0.0
C1991 C 0.05774 0.39042 0.7144 0.0
C1992 C 0.08814 0.38872 0.62862 0.0
C1993 C 0.07847 0.38144 0.64005 0.0
C1994 C 0.05623 0.36547 0.66423 0.0
C1995 C 0.04893 0.3915 0.69291 0.0
C1996 C 0.04505 0.38205 0.68033 0.0
C1997 C 0.05671 0.37703 0.64236 0.0
C1998 C 0.04882 0.37477 0.65524 0.0
H1999 H 0.06685 0.44174 0.70637 0.0
H2000 H 0.05415 0.42361 0.68692 0.0
H2001 H 0.06238 0.36366 0.68317 0.0
H2002 H 0.04454 0.38782 0.61386 0.0
H2003 H 0.02729 0.37451 0.63386 0.0
C2004 C 0.64573 0.66227 0.71139 0.0
C2005 C 0.65017 0.68151 0.7178 0.0
C2006 C 0.65516 0.66384 0.69992 0.0
C2007 C 0.69252 0.70493 0.67615 0.0
H2008 H 0.64708 0.66241 0.65446 0.0
C2009 C 0.67257 0.72379 0.62859 0.0
C2010 C 0.66441 0.70712 0.61962 0.0
C2011 C 0.67919 0.72009 0.63995 0.0
C2012 C 0.66026 0.67414 0.66035 0.0
H2013 H 0.66875 0.71743 0.71772 0.0
H2014 H 0.68428 0.72039 0.69745 0.0
H2015 H 0.64281 0.65641 0.6762 0.0
H2016 H 0.65843 0.67423 0.6151 0.0
H2017 H 0.66957 0.6675 0.63515 0.0
H2018 H 0.70879 0.7236 0.66005 0.0
C2019 C 0.67426 0.70398 0.70132 0.0
C2020 C 0.65787 0.67069 0.67292 0.0
C2021 C 0.66532 0.70236 0.71296 0.0
C2022 C 0.66474 0.68738 0.62184 0.0
C2023 C 0.671 0.6835 0.63332 0.0
C2024 C 0.69469 0.70856 0.66353 0.0
C2025 C 0.66851 0.68472 0.6944 0.0
C2026 C 0.67357 0.6864 0.68106 0.0
C2027 C 0.6774 0.69949 0.64264 0.0
C2028 C 0.6782 0.69353 0.65555 0.0
H2029 H 0.6341 0.646 0.71501 0.0
H2030 H 0.65092 0.64861 0.69512 0.0
H2031 H 0.70526 0.71714 0.68205 0.0
H2032 H 0.67256 0.73921 0.62707 0.0
H2033 H 0.68388 0.73267 0.64695 0.0
C2034 C 0.35413 0.39331 0.71367 0.0
C2035 C 0.37506 0.40815 0.71853 0.0
C2036 C 0.35237 0.38433 0.70201 0.0
C2037 C 0.38562 0.40021 0.67361 0.0
H2038 H 0.33268 0.34924 0.66081 0.0
C2039 C 0.36925 0.39248 0.62242 0.0
C2040 C 0.34937 0.39243 0.62 0.0
C2041 C 0.37313 0.38663 0.63402 0.0
C2042 C 0.34771 0.36337 0.66427 0.0
H2043 H 0.41053 0.42373 0.71574 0.0
H2044 H 0.40766 0.40687 0.69583 0.0
H2045 H 0.33899 0.35307 0.68282 0.0
H2046 H 0.31711 0.38406 0.62726 0.0
H2047 H 0.32365 0.37344 0.64733 0.0
H2048 H 0.39403 0.41077 0.65513 0.0
C2049 C 0.39249 0.40286 0.70064 0.0
C2050 C 0.35127 0.3657 0.67689 0.0
C2051 C 0.39421 0.4123 0.71212 0.0
C2052 C 0.33262 0.38432 0.62892 0.0
C2053 C 0.33633 0.37812 0.6404 0.0
C2054 C 0.38223 0.39769 0.66104 0.0
C2055 C 0.37157 0.38977 0.69511 0.0
C2056 C 0.36984 0.38464 0.68177 0.0
C2057 C 0.35702 0.38026 0.64327 0.0
C2058 C 0.36284 0.37971 0.65624 0.0
H2059 H 0.33914 0.39015 0.71841 0.0
H2060 H 0.33595 0.37453 0.69813 0.0
H2061 H 0.39993 0.41526 0.67688 0.0
H2062 H 0.38247 0.39877 0.61572 0.0
H2063 H 0.38919 0.38832 0.63597 0.0
C2064 C 0.66756 0.00065 0.71541 0.0
C2065 C 0.64563 0.99602 0.71722 0.0
C2066 C 0.67772 0.00779 0.70395 0.0
C2067 C 0.68444 0.00081 0.67731 0.0
H2068 H 0.6632 0.02727 0.65359 0.0
C2069 C 0.65824 0.9651 0.63002 0.0
C2070 C 0.65761 0.97775 0.62019 0.0
C2071 C 0.66598 0.97473 0.64141 0.0
C2072 C 0.66986 0.02029 0.66003 0.0
H2073 H 0.61807 0.99747 0.70888 0.0
H2074 H 0.63524 0.00921 0.68913 0.0
H2075 H 0.66104 0.03368 0.67519 0.0
H2076 H 0.66617 0.01093 0.61442 0.0
H2077 H 0.68 0.02801 0.63446 0.0
H2078 H 0.69326 0.98743 0.66215 0.0
C2079 C 0.64493 0.00762 0.69638 0.0
C2080 C 0.6683 0.0237 0.67248 0.0
C2081 C 0.63488 0.00056 0.70774 0.0
C2082 C 0.66633 0.00071 0.62183 0.0
C2083 C 0.67412 0.01044 0.63333 0.0
C2084 C 0.68638 0.99776 0.66486 0.0
C2085 C 0.66614 0.01046 0.69414 0.0
C2086 C 0.67418 0.01277 0.68129 0.0
C2087 C 0.67347 0.9974 0.64336 0.0
C2088 C 0.67774 0.00621 0.65609 0.0
H2089 H 0.67633 0.99743 0.72257 0.0
H2090 H 0.69424 0.01021 0.70265 0.0
H2091 H 0.68933 0.99221 0.68373 0.0
H2092 H 0.65191 0.94741 0.62907 0.0
H2093 H 0.6648 0.96396 0.64885 0.0
C2094 C 0.06398 0.70812 0.71422 0.0
C2095 C 0.06233 0.68752 0.71671 0.0
C2096 C 0.05854 0.71246 0.70262 0.0
C2097 C 0.03303 0.68752 0.6727 0.0
H2098 H 0.0864 0.73711 0.65933 0.0
C2099 C 0.05889 0.69125 0.62261 0.0
C2100 C 0.07475 0.71167 0.61762 0.0
C2101 C 0.05093 0.69029 0.63446 0.0
C2102 C 0.07098 0.72359 0.66282 0.0
H2103 H 0.05172 0.65464 0.70956 0.0
H2104 H 0.04172 0.66198 0.68949 0.0
H2105 H 0.08281 0.73161 0.68114 0.0
H2106 H 0.09315 0.74723 0.62041 0.0
H2107 H 0.07807 0.74587 0.64067 0.0
H2108 H 0.02136 0.6792 0.65433 0.0
C2109 C 0.04735 0.67486 0.69637 0.0
C2110 C 0.06898 0.72042 0.67542 0.0
C2111 C 0.05317 0.67068 0.70785 0.0
C2112 C 0.08089 0.73128 0.62412 0.0
C2113 C 0.07249 0.73041 0.63581 0.0
C2114 C 0.03484 0.69089 0.66006 0.0
C2115 C 0.05096 0.69611 0.69345 0.0
C2116 C 0.05038 0.70193 0.68047 0.0
C2117 C 0.05842 0.70982 0.64144 0.0
C2118 C 0.05424 0.70851 0.65489 0.0
H2119 H 0.07115 0.72143 0.72087 0.0
H2120 H 0.0614 0.72896 0.70062 0.0
H2121 H 0.01842 0.67319 0.67637 0.0
H2122 H 0.0542 0.67589 0.61782 0.0
H2123 H 0.0403 0.67407 0.63841 0.0
C2124 C 0.83325 0.08627 0.07336 0.0
C2125 C 0.81526 0.07921 0.08145 0.0
C2126 C 0.85098 0.10801 0.07372 0.0
C2127 C 0.88146 0.15604 0.09353 0.0
H2128 H 0.90668 0.18567 0.06282 0.0
C2129 C 0.96359 0.2417 0.08946 0.0
C2130 C 0.97869 0.24161 0.08092 0.0
C2131 C 0.94171 0.22388 0.09004 0.0
C2132 C 0.89982 0.17763 0.07147 0.0
H2133 H 0.80195 0.0896 0.09635 0.0
H2134 H 0.83334 0.12782 0.09704 0.0
H2135 H 0.87147 0.15075 0.06292 0.0
H2136 H 0.98246 0.22271 0.06626 0.0
H2137 H 0.94459 0.19197 0.06727 0.0
H2138 H 0.91033 0.18273 0.10202 0.0
C2139 C 0.83349 0.11635 0.0904 0.0
C2140 C 0.87968 0.15766 0.07153 0.0
C2141 C 0.81552 0.09452 0.08997 0.0
C2142 C 0.97137 0.22339 0.07297 0.0
C2143 C 0.94957 0.20581 0.07347 0.0
C2144 C 0.90171 0.17613 0.09347 0.0
C2145 C 0.85132 0.12332 0.08221 0.0
C2146 C 0.87066 0.14624 0.0825 0.0
C2147 C 0.93446 0.20584 0.08197 0.0
C2148 C 0.91144 0.18669 0.08239 0.0
H2149 H 0.83366 0.07502 0.06666 0.0
H2150 H 0.86464 0.11277 0.06742 0.0
H2151 H 0.87491 0.14758 0.10212 0.0
H2152 H 0.96871 0.25546 0.09574 0.0
H2153 H 0.93039 0.22431 0.09669 0.0
C2154 C 0.97877 0.79048 0.08048 0.0
C2155 C 0.98245 0.77311 0.08399 0.0
C2156 C 0.95806 0.78873 0.08215 0.0
C2157 C 0.89872 0.74895 0.08521 0.0
H2158 H 0.89703 0.80123 0.09611 0.0
C2159 C 0.81723 0.75381 0.08866 0.0
C2160 C 0.8189 0.77307 0.08338 0.0
C2161 C 0.83626 0.75196 0.09037 0.0
C2162 C 0.89722 0.78649 0.09305 0.0
H2163 H 0.967 0.74012 0.092 0.0
H2164 H 0.93056 0.73705 0.09485 0.0
H2165 H 0.93212 0.80127 0.09627 0.0
H2166 H 0.842 0.80546 0.07578 0.0
H2167 H 0.87481 0.80218 0.07875 0.0
H2168 H 0.86378 0.73443 0.0817 0.0
C2169 C 0.94389 0.75202 0.0908 0.0
C2170 C 0.9173 0.78652 0.09313 0.0
C2171 C 0.96477 0.75384 0.08921 0.0
C2172 C 0.83999 0.79038 0.07989 0.0
C2173 C 0.85889 0.78859 0.08168 0.0
C2174 C 0.87853 0.74892 0.08513 0.0
C2175 C 0.94039 0.76954 0.08735 0.0
C2176 C 0.91843 0.76803 0.08887 0.0
C2177 C 0.8573 0.76944 0.08697 0.0
C2178 C 0.87774 0.76797 0.08869 0.0
H2179 H 0.99192 0.80556 0.07643 0.0
H2180 H 0.95581 0.80236 0.0792 0.0
H2181 H 0.8991 0.73448 0.08185 0.0
H2182 H 0.80126 0.74014 0.09144 0.0
H2183 H 0.83456 0.73701 0.09449 0.0
C2184 C 0.26977 0.07824 0.07888 0.0
C2185 C 0.28645 0.07398 0.08302 0.0
C2186 C 0.27168 0.09899 0.08061 0.0
C2187 C 0.31114 0.15796 0.08528 0.0
H2188 H 0.25787 0.15884 0.09496 0.0
C2189 C 0.30478 0.23883 0.08949 0.0
C2190 C 0.28585 0.23715 0.08376 0.0
C2191 C 0.30699 0.21994 0.09095 0.0
C2192 C 0.27289 0.15889 0.09225 0.0
H2193 H 0.31844 0.08853 0.09214 0.0
H2194 H 0.32176 0.12507 0.09511 0.0
H2195 H 0.25788 0.1238 0.0948 0.0
H2196 H 0.25463 0.21424 0.07491 0.0
H2197 H 0.25855 0.18178 0.07745 0.0
H2198 H 0.32589 0.19314 0.08242 0.0
C2199 C 0.30722 0.11214 0.09052 0.0
C2200 C 0.2729 0.13883 0.09216 0.0
C2201 C 0.30525 0.0912 0.08886 0.0
C2202 C 0.26938 0.21627 0.07944 0.0
C2203 C 0.27154 0.19754 0.08096 0.0
C2204 C 0.31113 0.17816 0.08537 0.0
C2205 C 0.29031 0.11614 0.08651 0.0
C2206 C 0.29175 0.13801 0.08829 0.0
C2207 C 0.29022 0.19906 0.08682 0.0
C2208 C 0.29174 0.17865 0.08848 0.0
H2209 H 0.25509 0.06549 0.0743 0.0
H2210 H 0.25856 0.10168 0.0772 0.0
H2211 H 0.32591 0.15781 0.08226 0.0
H2212 H 0.31781 0.25466 0.09289 0.0
H2213 H 0.32159 0.22158 0.09549 0.0
C2214 C 0.24224 0.95934 0.91511 0.0
C2215 C 0.24171 0.9761 0.92209 0.0
C2216 C 0.22303 0.93848 0.91374 0.0
C2217 C 0.16245 0.91321 0.91462 0.0
H2218 H 0.15975 0.85698 0.92097 0.0
C2219 C 0.08066 0.83569 0.92614 0.0
C2220 C 0.07556 0.81527 0.9208 0.0
C2221 C 0.10179 0.85421 0.92494 0.0
C2222 C 0.16034 0.87254 0.91897 0.0
H2223 H 0.22065 0.9836 0.93347 0.0
H2224 H 0.18759 0.94763 0.93105 0.0
H2225 H 0.19579 0.8916 0.92127 0.0
H2226 H 0.08902 0.79832 0.91018 0.0
H2227 H 0.12618 0.83097 0.9081 0.0
H2228 H 0.12719 0.89452 0.91254 0.0
C2229 C 0.20269 0.95066 0.92649 0.0
C2230 C 0.18093 0.8923 0.91915 0.0
C2231 C 0.22175 0.97129 0.92791 0.0
C2232 C 0.09235 0.8138 0.91438 0.0
C2233 C 0.11364 0.83245 0.91322 0.0
C2234 C 0.14202 0.89359 0.91442 0.0
C2235 C 0.20298 0.93416 0.91924 0.0
C2236 C 0.18202 0.91287 0.91735 0.0
C2237 C 0.11846 0.85291 0.91837 0.0
C2238 C 0.14062 0.87312 0.91697 0.0
H2239 H 0.25735 0.96244 0.91053 0.0
H2240 H 0.22368 0.92599 0.90813 0.0
H2241 H 0.16287 0.9288 0.91294 0.0
H2242 H 0.06831 0.8375 0.93124 0.0
H2243 H 0.10511 0.86961 0.92924 0.0
C2244 C 0.22126 0.27553 0.91355 0.0
C2245 C 0.24299 0.29281 0.91588 0.0
C2246 C 0.2039 0.28001 0.91221 0.0
C2247 C 0.17283 0.29707 0.90404 0.0
H2248 H 0.16297 0.32475 0.93224 0.0
C2249 C 0.0958 0.30833 0.90926 0.0
C2250 C 0.0836 0.29799 0.91986 0.0
C2251 C 0.11736 0.31188 0.90776 0.0
C2252 C 0.16569 0.31726 0.92424 0.0
H2253 H 0.26369 0.3284 0.9184 0.0
H2254 H 0.23298 0.33613 0.91647 0.0
H2255 H 0.19738 0.32326 0.93064 0.0
H2256 H 0.08473 0.28416 0.93741 0.0
H2257 H 0.12248 0.29084 0.93489 0.0
H2258 H 0.14088 0.29056 0.89779 0.0
C2259 C 0.22959 0.31919 0.91552 0.0
C2260 C 0.18538 0.31652 0.9233 0.0
C2261 C 0.2471 0.31477 0.91658 0.0
C2262 C 0.09366 0.29204 0.92911 0.0
C2263 C 0.11531 0.29601 0.92771 0.0
C2264 C 0.15332 0.29817 0.90487 0.0
C2265 C 0.20782 0.3018 0.91341 0.0
C2266 C 0.18882 0.30584 0.91336 0.0
C2267 C 0.12724 0.30564 0.91696 0.0
C2268 C 0.14931 0.3077 0.91516 0.0
H2269 H 0.21762 0.25847 0.91287 0.0
H2270 H 0.18723 0.26629 0.9107 0.0
H2271 H 0.17516 0.28879 0.89628 0.0
H2272 H 0.08845 0.31304 0.90197 0.0
H2273 H 0.12626 0.31934 0.89939 0.0
C2274 C 0.78734 0.8387 0.92161 0.0
C2275 C 0.77043 0.81751 0.91799 0.0
C2276 C 0.78505 0.85733 0.91989 0.0
C2277 C 0.7445 0.87579 0.91641 0.0
H2278 H 0.79643 0.93014 0.90567 0.0
C2279 C 0.74921 0.96233 0.91317 0.0
C2280 C 0.76828 0.97957 0.9188 0.0
C2281 C 0.74725 0.94142 0.91133 0.0
C2282 C 0.78177 0.91509 0.90866 0.0
H2283 H 0.73766 0.79937 0.90977 0.0
H2284 H 0.73366 0.83219 0.90682 0.0
H2285 H 0.79704 0.89539 0.90552 0.0
H2286 H 0.8001 0.98813 0.92697 0.0
H2287 H 0.79663 0.95207 0.92376 0.0
H2288 H 0.72953 0.89585 0.91989 0.0
C2289 C 0.74869 0.83419 0.911 0.0
C2290 C 0.78212 0.89521 0.90858 0.0
C2291 C 0.75104 0.81544 0.91265 0.0
C2292 C 0.78519 0.97538 0.92257 0.0
C2293 C 0.7833 0.95469 0.92065 0.0
C2294 C 0.74414 0.8958 0.91648 0.0
C2295 C 0.76578 0.85534 0.91452 0.0
C2296 C 0.76381 0.87549 0.91285 0.0
C2297 C 0.76443 0.93753 0.91495 0.0
C2298 C 0.76308 0.91575 0.913 0.0
H2299 H 0.80249 0.84101 0.92578 0.0
H2300 H 0.79835 0.87335 0.92291 0.0
H2301 H 0.73014 0.86083 0.91976 0.0
H2302 H 0.73585 0.96497 0.91018 0.0
H2303 H 0.7325 0.92843 0.90692 0.0
C2304 C 0.50201 0.41944 0.40843 0.0
C2305 C 0.48381 0.41196 0.4164 0.0
C2306 C 0.51945 0.44131 0.40893 0.0
C2307 C 0.54915 0.4891 0.42886 0.0
H2308 H 0.57374 0.51938 0.39821 0.0
C2309 C 0.63099 0.5751 0.42476 0.0
C2310 C 0.646 0.575 0.41615 0.0
C2311 C 0.60911 0.55728 0.42539 0.0
C2312 C 0.56704 0.51118 0.40685 0.0
H2313 H 0.46986 0.42169 0.43127 0.0
H2314 H 0.50081 0.46014 0.43225 0.0
H2315 H 0.53878 0.48421 0.39829 0.0
H2316 H 0.6496 0.55614 0.40142 0.0
H2317 H 0.61174 0.52543 0.4025 0.0
H2318 H 0.57798 0.51585 0.43735 0.0
C2319 C 0.50131 0.4489 0.42557 0.0
C2320 C 0.54704 0.49107 0.40689 0.0
C2321 C 0.48361 0.42694 0.42498 0.0
C2322 C 0.63859 0.55681 0.40818 0.0
C2323 C 0.61678 0.53925 0.40872 0.0
C2324 C 0.56926 0.50933 0.42882 0.0
C2325 C 0.51931 0.45631 0.41746 0.0
C2326 C 0.5383 0.4794 0.41783 0.0
C2327 C 0.60178 0.53927 0.41729 0.0
C2328 C 0.57878 0.52012 0.41775 0.0
H2329 H 0.50277 0.40845 0.40168 0.0
H2330 H 0.53327 0.44642 0.4027 0.0
H2331 H 0.54278 0.48044 0.43742 0.0
H2332 H 0.63619 0.58884 0.43105 0.0
H2333 H 0.59786 0.5577 0.43209 0.0
C2334 C 0.63009 0.08296 0.42383 0.0
C2335 C 0.64767 0.10305 0.4193 0.0
C2336 C 0.60924 0.08082 0.42611 0.0
C2337 C 0.58241 0.11437 0.43181 0.0
H2338 H 0.52976 0.0656 0.4172 0.0
C2339 C 0.50744 0.12226 0.41841 0.0
C2340 C 0.48583 0.10433 0.42023 0.0
C2341 C 0.52592 0.11995 0.42067 0.0
C2342 C 0.54421 0.07908 0.42155 0.0
H2343 H 0.65714 0.13671 0.41384 0.0
H2344 H 0.62111 0.13297 0.41785 0.0
H2345 H 0.56484 0.06525 0.41694 0.0
H2346 H 0.46678 0.06988 0.426 0.0
H2347 H 0.49934 0.06581 0.42983 0.0
H2348 H 0.56213 0.12861 0.43606 0.0
C2349 C 0.62338 0.1189 0.41968 0.0
C2350 C 0.56428 0.07888 0.4214 0.0
C2351 C 0.64402 0.12096 0.41728 0.0
C2352 C 0.48319 0.08403 0.4245 0.0
C2353 C 0.5018 0.08166 0.42666 0.0
C2354 C 0.56244 0.11456 0.43198 0.0
C2355 C 0.60575 0.09884 0.4241 0.0
C2356 C 0.58374 0.09693 0.42614 0.0
C2357 C 0.52336 0.09963 0.42475 0.0
C2358 C 0.54332 0.09733 0.42646 0.0
H2359 H 0.63234 0.06884 0.42547 0.0
H2360 H 0.59591 0.06517 0.42953 0.0
H2361 H 0.59705 0.12827 0.43577 0.0
H2362 H 0.51015 0.13816 0.41517 0.0
H2363 H 0.54229 0.13401 0.41892 0.0
C2364 C 0.97839 0.43046 0.42222 0.0
C2365 C 0.95922 0.41333 0.41661 0.0
C2366 C 0.98054 0.45143 0.42414 0.0
C2367 C 0.94644 0.478 0.42737 0.0
H2368 H 0.99741 0.53211 0.41555 0.0
C2369 C 0.93944 0.55325 0.41414 0.0
C2370 C 0.9562 0.57469 0.41752 0.0
C2371 C 0.94219 0.53493 0.41595 0.0
C2372 C 0.98326 0.5172 0.41911 0.0
H2373 H 0.92737 0.40501 0.40858 0.0
H2374 H 0.93112 0.44118 0.41197 0.0
H2375 H 0.99812 0.49711 0.41536 0.0
H2376 H 0.98921 0.59358 0.42536 0.0
H2377 H 0.99403 0.56123 0.42845 0.0
H2378 H 0.93125 0.49768 0.43078 0.0
C2379 C 0.94442 0.43843 0.41497 0.0
C2380 C 0.98367 0.49721 0.419 0.0
C2381 C 0.94236 0.41769 0.41295 0.0
C2382 C 0.97594 0.57731 0.42268 0.0
C2383 C 0.97876 0.55884 0.42442 0.0
C2384 C 0.94605 0.49785 0.42751 0.0
C2385 C 0.96341 0.45548 0.42064 0.0
C2386 C 0.96491 0.47729 0.42271 0.0
C2387 C 0.96177 0.53743 0.42116 0.0
C2388 C 0.96409 0.5175 0.42296 0.0
H2389 H 0.99172 0.42769 0.42513 0.0
H2390 H 0.99538 0.46434 0.42852 0.0
H2391 H 0.93193 0.46297 0.43053 0.0
H2392 H 0.92404 0.55049 0.4101 0.0
H2393 H 0.92898 0.51872 0.41311 0.0
C2394 C 0.76182 0.14731 0.24637 0.0
C2395 C 0.74719 0.14776 0.25511 0.0
C2396 C 0.78408 0.16436 0.24596 0.0
C2397 C 0.82749 0.20859 0.26491 0.0
H2398 H 0.85194 0.24033 0.23461 0.0
C2399 C 0.8941 0.29987 0.26396 0.0
C2400 C 0.91154 0.30759 0.25545 0.0
C2401 C 0.87669 0.27798 0.26358 0.0
C2402 C 0.84555 0.23137 0.24309 0.0
H2403 H 0.74464 0.16633 0.27035 0.0
H2404 H 0.78319 0.19575 0.26964 0.0
H2405 H 0.81612 0.20568 0.2345 0.0
H2406 H 0.92438 0.2982 0.2399 0.0
H2407 H 0.8935 0.25971 0.23918 0.0
H2408 H 0.8564 0.23455 0.27358 0.0
C2409 C 0.77755 0.18224 0.26314 0.0
C2410 C 0.82506 0.21156 0.24303 0.0
C2411 C 0.75537 0.16545 0.26347 0.0
C2412 C 0.91121 0.29275 0.2466 0.0
C2413 C 0.89353 0.27077 0.24615 0.0
C2414 C 0.8479 0.22828 0.26497 0.0
C2415 C 0.79215 0.18193 0.25439 0.0
C2416 C 0.81547 0.20046 0.25401 0.0
C2417 C 0.87612 0.2632 0.25467 0.0
C2418 C 0.85675 0.24033 0.25414 0.0
H2419 H 0.75603 0.13393 0.23979 0.0
H2420 H 0.79501 0.16374 0.23912 0.0
H2421 H 0.8207 0.20012 0.27347 0.0
H2422 H 0.89382 0.31076 0.27094 0.0
H2423 H 0.86334 0.27277 0.27015 0.0
C2424 C 0.91177 0.64566 0.24588 0.0
C2425 C 0.90821 0.62456 0.24925 0.0
C2426 C 0.8937 0.64895 0.24376 0.0
C2427 C 0.83377 0.61807 0.23645 0.0
H2428 H 0.82998 0.66456 0.25399 0.0
C2429 C 0.75117 0.60889 0.25113 0.0
C2430 C 0.74734 0.62683 0.24985 0.0
C2431 C 0.77206 0.61155 0.24878 0.0
C2432 C 0.83098 0.65179 0.24883 0.0
H2433 H 0.88281 0.59035 0.2528 0.0
H2434 H 0.85168 0.59609 0.24911 0.0
H2435 H 0.86504 0.66408 0.25384 0.0
H2436 H 0.7626 0.66175 0.24508 0.0
H2437 H 0.79953 0.66647 0.24116 0.0
H2438 H 0.79956 0.60519 0.23189 0.0
C2439 C 0.86835 0.61008 0.24804 0.0
C2440 C 0.85102 0.65151 0.24874 0.0
C2441 C 0.88626 0.60685 0.25027 0.0
C2442 C 0.76501 0.64759 0.24614 0.0
C2443 C 0.78612 0.65033 0.24392 0.0
C2444 C 0.81384 0.61833 0.23656 0.0
C2445 C 0.87181 0.63112 0.24478 0.0
C2446 C 0.85231 0.63413 0.24294 0.0
C2447 C 0.78977 0.63225 0.24517 0.0
C2448 C 0.81198 0.63467 0.24314 0.0
H2449 H 0.92847 0.65966 0.24502 0.0
H2450 H 0.89682 0.66536 0.24126 0.0
H2451 H 0.83443 0.60475 0.23168 0.0
H2452 H 0.73798 0.59264 0.25393 0.0
H2453 H 0.77446 0.5974 0.25 0.0
C2454 C 0.4113 0.29679 0.24614 0.0
C2455 C 0.42592 0.31127 0.25508 0.0
C2456 C 0.40646 0.27463 0.24559 0.0
C2457 C 0.40806 0.23113 0.26424 0.0
H2458 H 0.41716 0.2085 0.23376 0.0
C2459 C 0.43682 0.16756 0.26261 0.0
C2460 C 0.4274 0.15005 0.25414 0.0
C2461 C 0.43146 0.18439 0.26237 0.0
C2462 C 0.4141 0.21438 0.24228 0.0
H2463 H 0.44649 0.31365 0.27056 0.0
H2464 H 0.43804 0.27534 0.26959 0.0
H2465 H 0.41681 0.2436 0.23395 0.0
H2466 H 0.40487 0.13651 0.23876 0.0
H2467 H 0.39578 0.16642 0.23823 0.0
H2468 H 0.40629 0.20252 0.27267 0.0
C2469 C 0.43023 0.28098 0.26305 0.0
C2470 C 0.41389 0.23445 0.2424 0.0
C2471 C 0.43524 0.30304 0.26353 0.0
C2472 C 0.41238 0.14976 0.24542 0.0
C2473 C 0.40722 0.16687 0.24509 0.0
C2474 C 0.40828 0.21117 0.26413 0.0
C2475 C 0.41586 0.26653 0.25407 0.0
C2476 C 0.41174 0.24343 0.25346 0.0
C2477 C 0.41669 0.18431 0.2536 0.0
C2478 C 0.41217 0.20303 0.25324 0.0
H2479 H 0.40387 0.30263 0.23949 0.0
H2480 H 0.39533 0.26383 0.23857 0.0
H2481 H 0.40588 0.23742 0.27286 0.0
H2482 H 0.44836 0.16829 0.26949 0.0
H2483 H 0.4393 0.19779 0.26893 0.0
C2484 C 0.29832 0.90976 0.75626 0.0
C2485 C 0.31565 0.90766 0.75094 0.0
C2486 C 0.2773 0.891 0.75802 0.0
C2487 C 0.2498 0.83 0.76078 0.0
H2488 H 0.19661 0.82932 0.74937 0.0
C2489 C 0.1721 0.74954 0.74753 0.0
C2490 C 0.15104 0.74595 0.75093 0.0
C2491 C 0.19109 0.77008 0.74942 0.0
C2492 C 0.21125 0.82938 0.75281 0.0
H2493 H 0.32434 0.88409 0.74338 0.0
H2494 H 0.28798 0.8517 0.74646 0.0
H2495 H 0.23224 0.86424 0.7493 0.0
H2496 H 0.13352 0.76141 0.75895 0.0
H2497 H 0.16701 0.79764 0.76217 0.0
H2498 H 0.22913 0.79517 0.76397 0.0
C2499 C 0.29063 0.86776 0.74935 0.0
C2500 C 0.23163 0.84934 0.75276 0.0
C2501 C 0.31148 0.88642 0.7475 0.0
C2502 C 0.14948 0.76359 0.75624 0.0
C2503 C 0.16861 0.78434 0.75805 0.0
C2504 C 0.22954 0.81016 0.76084 0.0
C2505 C 0.27332 0.86979 0.75465 0.0
C2506 C 0.25122 0.84966 0.75638 0.0
C2507 C 0.18963 0.7877 0.75473 0.0
C2508 C 0.21018 0.80946 0.75647 0.0
H2509 H 0.30093 0.92587 0.759 0.0
H2510 H 0.26426 0.89304 0.76215 0.0
H2511 H 0.26453 0.82985 0.76389 0.0
H2512 H 0.17405 0.73644 0.74341 0.0
H2513 H 0.20698 0.77226 0.74654 0.0
C2514 C 0.3109 0.45598 0.74876 0.0
C2515 C 0.31471 0.43838 0.75149 0.0
C2516 C 0.29005 0.45379 0.75063 0.0
C2517 C 0.23087 0.4136 0.75234 0.0
H2518 H 0.22825 0.4636 0.76624 0.0
C2519 C 0.14923 0.41821 0.75561 0.0
C2520 C 0.15165 0.43843 0.75135 0.0
C2521 C 0.16797 0.4159 0.75749 0.0
C2522 C 0.22868 0.44948 0.76234 0.0
H2523 H 0.29937 0.40452 0.75827 0.0
H2524 H 0.26262 0.40064 0.76138 0.0
H2525 H 0.26337 0.46369 0.76611 0.0
H2526 H 0.17578 0.47209 0.74584 0.0
H2527 H 0.20801 0.46802 0.74906 0.0
H2528 H 0.19624 0.3998 0.74818 0.0
C2529 C 0.27598 0.41615 0.75784 0.0
C2530 C 0.24878 0.44954 0.76227 0.0
C2531 C 0.29702 0.41843 0.7561 0.0
C2532 C 0.17317 0.45625 0.74912 0.0
C2533 C 0.19175 0.45399 0.75107 0.0
C2534 C 0.21067 0.41357 0.75238 0.0
C2535 C 0.27237 0.4339 0.75519 0.0
C2536 C 0.25027 0.43196 0.75692 0.0
C2537 C 0.18943 0.43385 0.75529 0.0
C2538 C 0.20959 0.43188 0.75701 0.0
H2539 H 0.32408 0.47159 0.74522 0.0
H2540 H 0.28769 0.46764 0.74832 0.0
H2541 H 0.23156 0.39984 0.74814 0.0
H2542 H 0.1329 0.40414 0.75742 0.0
H2543 H 0.16569 0.40018 0.76076 0.0
C2544 C 0.6047 0.74819 0.74457 0.0
C2545 C 0.62097 0.7438 0.74926 0.0
C2546 C 0.60652 0.76894 0.74615 0.0
C2547 C 0.6453 0.8278 0.75163 0.0
H2548 H 0.59123 0.82791 0.76035 0.0
C2549 C 0.63834 0.90825 0.75611 0.0
C2550 C 0.61963 0.90677 0.75021 0.0
C2551 C 0.64053 0.88933 0.75745 0.0
C2552 C 0.60647 0.82818 0.75789 0.0
H2553 H 0.65223 0.75817 0.75912 0.0
H2554 H 0.65541 0.79471 0.76181 0.0
H2555 H 0.5915 0.79302 0.76005 0.0
H2556 H 0.58881 0.88419 0.74091 0.0
H2557 H 0.59271 0.85167 0.74323 0.0
H2558 H 0.66003 0.86307 0.74915 0.0
C2559 C 0.64125 0.78187 0.75693 0.0
C2560 C 0.60663 0.8082 0.75773 0.0
C2561 C 0.63936 0.76094 0.75541 0.0
C2562 C 0.60337 0.88605 0.7456 0.0
C2563 C 0.60552 0.86729 0.74698 0.0
C2564 C 0.64514 0.84792 0.75178 0.0
C2565 C 0.62466 0.78594 0.75244 0.0
C2566 C 0.6258 0.80767 0.75423 0.0
C2567 C 0.62397 0.86861 0.75302 0.0
C2568 C 0.62548 0.84816 0.75454 0.0
H2569 H 0.59036 0.73554 0.73972 0.0
H2570 H 0.59369 0.7717 0.74238 0.0
H2571 H 0.66032 0.82787 0.7489 0.0
H2572 H 0.65121 0.92394 0.75975 0.0
H2573 H 0.65494 0.89082 0.76214 0.0
C2574 C 0.57713 0.62695 0.58125 0.0
C2575 C 0.57492 0.64386 0.58704 0.0
C2576 C 0.55851 0.60581 0.57948 0.0
C2577 C 0.49774 0.57845 0.577 0.0
H2578 H 0.49607 0.52455 0.588 0.0
C2579 C 0.41687 0.50226 0.59069 0.0
C2580 C 0.41219 0.48108 0.58677 0.0
C2581 C 0.43777 0.52077 0.58887 0.0
C2582 C 0.49642 0.53941 0.58467 0.0
H2583 H 0.55133 0.65155 0.59561 0.0
H2584 H 0.51926 0.61508 0.59248 0.0
H2585 H 0.53142 0.5599 0.58809 0.0
H2586 H 0.42618 0.46279 0.578 0.0
H2587 H 0.46311 0.49548 0.5749 0.0
H2588 H 0.4628 0.55836 0.57395 0.0
C2589 C 0.53528 0.61815 0.58922 0.0
C2590 C 0.51661 0.5596 0.58473 0.0
C2591 C 0.55376 0.63907 0.59107 0.0
C2592 C 0.42919 0.47887 0.58111 0.0
C2593 C 0.45032 0.49753 0.57935 0.0
C2594 C 0.4777 0.55841 0.57693 0.0
C2595 C 0.53737 0.60136 0.58331 0.0
C2596 C 0.51723 0.57941 0.58131 0.0
C2597 C 0.45468 0.51869 0.5831 0.0
C2598 C 0.47666 0.53884 0.58119 0.0
H2599 H 0.59319 0.63004 0.57806 0.0
H2600 H 0.56054 0.5931 0.57492 0.0
H2601 H 0.49784 0.5934 0.57407 0.0
H2602 H 0.40432 0.5047 0.59514 0.0
H2603 H 0.44076 0.53679 0.59208 0.0
C2604 C 0.42669 0.9733 0.57818 0.0
C2605 C 0.4131 0.96151 0.58813 0.0
C2606 C 0.44765 0.97523 0.57674 0.0
C2607 C 0.49568 0.98381 0.57876 0.0
H2608 H 0.49677 0.9302 0.58728 0.0
C2609 C 0.57662 0.97874 0.58373 0.0
C2610 C 0.57507 0.95817 0.58128 0.0
C2611 C 0.55773 0.98106 0.58286 0.0
C2612 C 0.4968 0.94524 0.58465 0.0
H2613 H 0.41151 0.94401 0.60482 0.0
H2614 H 0.44799 0.94786 0.6025 0.0
H2615 H 0.46259 0.93104 0.5893 0.0
H2616 H 0.55337 0.92459 0.57489 0.0
H2617 H 0.52086 0.92884 0.5728 0.0
H2618 H 0.53003 0.99775 0.57384 0.0
C2619 C 0.44227 0.95493 0.59556 0.0
C2620 C 0.4772 0.94585 0.58603 0.0
C2621 C 0.42136 0.9528 0.59692 0.0
C2622 C 0.55488 0.94051 0.57706 0.0
C2623 C 0.53622 0.94294 0.57595 0.0
C2624 C 0.51543 0.98317 0.5773 0.0
C2625 C 0.45541 0.96556 0.58528 0.0
C2626 C 0.47641 0.96519 0.58327 0.0
C2627 C 0.53712 0.9629 0.57934 0.0
C2628 C 0.51621 0.96384 0.58028 0.0
H2629 H 0.42079 0.98024 0.57127 0.0
H2630 H 0.45736 0.9835 0.56872 0.0
H2631 H 0.49563 0.99899 0.57657 0.0
H2632 H 0.59206 0.99261 0.58699 0.0
H2633 H 0.55904 0.99666 0.58557 0.0
C2634 C 0.0794 0.62761 0.58027 0.0
C2635 C 0.09455 0.64256 0.58887 0.0
C2636 C 0.0743 0.60537 0.58007 0.0
C2637 C 0.0762 0.56263 0.59927 0.0
H2638 H 0.08238 0.53755 0.56893 0.0
C2639 C 0.10205 0.4968 0.59792 0.0
C2640 C 0.09225 0.47923 0.5895 0.0
C2641 C 0.0971 0.51392 0.5977 0.0
C2642 C 0.08012 0.54411 0.57743 0.0
H2643 H 0.11586 0.64565 0.60412 0.0
H2644 H 0.10696 0.60714 0.60375 0.0
H2645 H 0.08317 0.57319 0.56875 0.0
H2646 H 0.06928 0.46576 0.5743 0.0
H2647 H 0.06084 0.49612 0.57382 0.0
H2648 H 0.07399 0.53408 0.60803 0.0
C2649 C 0.09893 0.61252 0.59721 0.0
C2650 C 0.08059 0.56451 0.57733 0.0
C2651 C 0.1042 0.63469 0.59734 0.0
C2652 C 0.07709 0.47906 0.58092 0.0
C2653 C 0.07232 0.49644 0.58061 0.0
C2654 C 0.07572 0.54232 0.59937 0.0
C2655 C 0.08399 0.59761 0.58857 0.0
C2656 C 0.07947 0.57435 0.58831 0.0
C2657 C 0.08232 0.51405 0.589 0.0
C2658 C 0.07852 0.53325 0.58852 0.0
H2659 H 0.07169 0.63314 0.57362 0.0
H2660 H 0.0627 0.59422 0.57332 0.0
H2661 H 0.0748 0.56958 0.60785 0.0
H2662 H 0.1137 0.49745 0.6047 0.0
H2663 H 0.10536 0.52741 0.60417 0.0
loop_
_geom_bond_atom_site_label_1
_geom_bond_atom_site_label_2
_geom_bond_distance
_geom_bond_site_symmetry_2
_ccdc_geom_bond_type
Co0 O1 2.216 . S
Co0 O2 2.091 . S
Co0 O4 2.004 . S
Co0 O10 2.021 . S
Co0 O12 2.137 . S
Co0 O13 2.244 . S
O1 Co0 2.216 . S
O1 C8 1.247 . S
O2 Co0 2.091 . S
O2 C8 1.261 . S
C3 O12 1.247 . S
C3 O13 1.272 . S
O4 Co0 2.004 . S
O4 C9 1.259 . S
Co5 O6 2.061 . S
Co5 O11 2.052 . S
Co5 O13 2.135 . S
O6 Co5 2.061 . S
O6 C9 1.235 . S
C7 O10 1.238 1_655 S
C7 O11 1.241 1_655 S
C8 O1 1.247 . S
C8 O2 1.261 . S
C9 O4 1.259 . S
C9 O6 1.235 . S
O10 Co0 2.021 . S
O10 C7 1.238 1_455 S
O11 Co5 2.052 . S
O11 C7 1.241 1_455 S
O12 Co0 2.137 . S
O12 C3 1.247 . S
O13 Co0 2.244 . S
O13 C3 1.272 . S
O13 Co5 2.135 . S
Co14 O15 2.216 . S
Co14 O16 2.091 . S
Co14 O18 2.004 . S
Co14 O24 2.021 . S
Co14 O26 2.137 . S
Co14 O27 2.244 . S
O15 Co14 2.216 . S
O15 C22 1.247 . S
O16 Co14 2.091 . S
O16 C22 1.261 . S
C17 O26 1.247 . S
C17 O27 1.272 . S
O18 Co14 2.004 . S
O18 C23 1.259 . S
Co19 O20 2.061 . S
Co19 O25 2.052 . S
Co19 O27 2.135 . S
O20 Co19 2.061 . S
O20 C23 1.235 . S
C21 O24 1.238 . S
C21 O25 1.241 . S
C22 O15 1.247 . S
C22 O16 1.261 . S
C23 O18 1.259 . S
C23 O20 1.235 . S
O24 Co14 2.021 . S
O24 C21 1.238 . S
O25 Co19 2.052 . S
O25 C21 1.241 . S
O26 Co14 2.137 . S
O26 C17 1.247 . S
O27 Co14 2.244 . S
O27 C17 1.272 . S
O27 Co19 2.135 . S
Co28 O29 2.216 . S
Co28 O30 2.091 . S
Co28 O32 2.004 . S
Co28 O38 2.021 . S
Co28 O40 2.137 1_545 S
Co28 O41 2.244 . S
O29 Co28 2.216 . S
O29 C36 1.247 . S
O30 Co28 2.091 . S
O30 C36 1.261 . S
C31 O40 1.247 . S
C31 O41 1.272 1_565 S
O32 Co28 2.004 . S
O32 C37 1.259 . S
Co33 O34 2.061 . S
Co33 O39 2.052 . S
Co33 O41 2.135 . S
O34 Co33 2.061 . S
O34 C37 1.235 . S
C35 O38 1.238 . S
C35 O39 1.241 . S
C36 O29 1.247 . S
C36 O30 1.261 . S
C37 O32 1.259 . S
C37 O34 1.235 . S
O38 Co28 2.021 . S
O38 C35 1.238 . S
O39 Co33 2.052 . S
O39 C35 1.241 . S
O40 Co28 2.137 1_565 S
O40 C31 1.247 . S
O41 Co28 2.244 . S
O41 C31 1.272 1_545 S
O41 Co33 2.135 . S
Co42 O43 2.216 . S
Co42 O44 2.091 . S
Co42 O46 2.004 . S
Co42 O52 2.021 . S
Co42 O54 2.137 . S
Co42 O55 2.244 . S
O43 Co42 2.216 . S
O43 C50 1.247 . S
O44 Co42 2.091 . S
O44 C50 1.261 . S
C45 O54 1.247 . S
C45 O55 1.272 . S
O46 Co42 2.004 . S
O46 C51 1.259 . S
Co47 O48 2.061 . S
Co47 O53 2.052 . S
Co47 O55 2.135 . S
O48 Co47 2.061 . S
O48 C51 1.235 . S
C49 O52 1.238 1_565 S
C49 O53 1.241 1_565 S
C50 O43 1.247 . S
C50 O44 1.261 . S
C51 O46 1.259 . S
C51 O48 1.235 . S
O52 Co42 2.021 . S
O52 C49 1.238 1_545 S
O53 Co47 2.052 . S
O53 C49 1.241 1_545 S
O54 Co42 2.137 . S
O54 C45 1.247 . S
O55 Co42 2.244 . S
O55 C45 1.272 . S
O55 Co47 2.135 . S
Co56 O57 2.216 . S
Co56 O58 2.091 . S
Co56 O60 2.004 . S
Co56 O66 2.021 . S
Co56 O68 2.137 1_455 S
Co56 O69 2.244 . S
O57 Co56 2.216 . S
O57 C64 1.247 . S
O58 Co56 2.091 . S
O58 C64 1.261 . S
C59 O68 1.247 . S
C59 O69 1.272 1_655 S
O60 Co56 2.004 . S
O60 C65 1.259 . S
Co61 O62 2.061 . S
Co61 O67 2.052 . S
Co61 O69 2.135 . S
O62 Co61 2.061 . S
O62 C65 1.235 . S
C63 O66 1.238 . S
C63 O67 1.241 . S
C64 O57 1.247 . S
C64 O58 1.261 . S
C65 O60 1.259 . S
C65 O62 1.235 . S
O66 Co56 2.021 . S
O66 C63 1.238 . S
O67 Co61 2.052 . S
O67 C63 1.241 . S
O68 Co56 2.137 1_655 S
O68 C59 1.247 . S
O69 Co56 2.244 . S
O69 C59 1.272 1_455 S
O69 Co61 2.135 . S
Co70 O71 2.216 . S
Co70 O72 2.091 . S
Co70 O74 2.004 . S
Co70 O80 2.021 . S
Co70 O82 2.137 . S
Co70 O83 2.244 . S
O71 Co70 2.216 . S
O71 C78 1.247 . S
O72 Co70 2.091 . S
O72 C78 1.261 . S
C73 O82 1.247 . S
C73 O83 1.272 . S
O74 Co70 2.004 . S
O74 C79 1.259 . S
Co75 O76 2.061 . S
Co75 O81 2.052 . S
Co75 O83 2.135 . S
O76 Co75 2.061 . S
O76 C79 1.235 . S
C77 O80 1.238 . S
C77 O81 1.241 . S
C78 O71 1.247 . S
C78 O72 1.261 . S
C79 O74 1.259 . S
C79 O76 1.235 . S
O80 Co70 2.021 . S
O80 C77 1.238 . S
O81 Co75 2.052 . S
O81 C77 1.241 . S
O82 Co70 2.137 . S
O82 C73 1.247 . S
O83 Co70 2.244 . S
O83 C73 1.272 . S
O83 Co75 2.135 . S
Co84 O85 2.216 . S
Co84 O86 2.091 . S
Co84 O88 2.004 . S
Co84 O94 2.021 . S
Co84 O96 2.137 1_455 S
Co84 O97 2.244 . S
O85 Co84 2.216 . S
O85 C92 1.247 . S
O86 Co84 2.091 . S
O86 C92 1.261 . S
C87 O96 1.247 . S
C87 O97 1.272 1_655 S
O88 Co84 2.004 . S
O88 C93 1.259 . S
Co89 O90 2.061 . S
Co89 O95 2.052 . S
Co89 O97 2.135 . S
O90 Co89 2.061 . S
O90 C93 1.235 . S
C91 O94 1.238 . S
C91 O95 1.241 . S
C92 O85 1.247 . S
C92 O86 1.261 . S
C93 O88 1.259 . S
C93 O90 1.235 . S
O94 Co84 2.021 . S
O94 C91 1.238 . S
O95 Co89 2.052 . S
O95 C91 1.241 . S
O96 Co84 2.137 1_655 S
O96 C87 1.247 . S
O97 Co84 2.244 . S
O97 C87 1.272 1_455 S
O97 Co89 2.135 . S
Co98 O99 2.216 . S
Co98 O100 2.091 . S
Co98 O102 2.004 . S
Co98 O108 2.021 . S
Co98 O110 2.137 . S
Co98 O111 2.244 . S
O99 Co98 2.216 . S
O99 C106 1.247 . S
O100 Co98 2.091 . S
O100 C106 1.261 . S
C101 O110 1.247 . S
C101 O111 1.272 . S
O102 Co98 2.004 . S
O102 C107 1.259 . S
Co103 O104 2.061 . S
Co103 O109 2.052 . S
Co103 O111 2.135 . S
O104 Co103 2.061 . S
O104 C107 1.235 . S
C105 O108 1.238 . S
C105 O109 1.241 . S
C106 O99 1.247 . S
C106 O100 1.261 . S
C107 O102 1.259 . S
C107 O104 1.235 . S
O108 Co98 2.021 . S
O108 C105 1.238 . S
O109 Co103 2.052 . S
O109 C105 1.241 . S
O110 Co98 2.137 . S
O110 C101 1.247 . S
O111 Co98 2.244 . S
O111 C101 1.272 . S
O111 Co103 2.135 . S
Co112 O113 2.216 . S
Co112 O114 2.091 . S
Co112 O116 2.004 . S
Co112 O122 2.021 . S
Co112 O124 2.137 . S
Co112 O125 2.244 . S
O113 Co112 2.216 . S
O113 C120 1.247 . S
O114 Co112 2.091 . S
O114 C120 1.261 . S
C115 O124 1.247 . S
C115 O125 1.272 . S
O116 Co112 2.004 . S
O116 C121 1.259 . S
Co117 O118 2.061 . S
Co117 O123 2.052 . S
Co117 O125 2.135 . S
O118 Co117 2.061 . S
O118 C121 1.235 . S
C119 O122 1.238 1_565 S
C119 O123 1.241 1_565 S
C120 O113 1.247 . S
C120 O114 1.261 . S
C121 O116 1.259 . S
C121 O118 1.235 . S
O122 Co112 2.021 . S
O122 C119 1.238 1_545 S
O123 Co117 2.052 . S
O123 C119 1.241 1_545 S
O124 Co112 2.137 . S
O124 C115 1.247 . S
O125 Co112 2.244 . S
O125 C115 1.272 . S
O125 Co117 2.135 . S
Co126 O127 2.216 . S
Co126 O128 2.091 . S
Co126 O130 2.004 . S
Co126 O136 2.021 . S
Co126 O138 2.137 1_545 S
Co126 O139 2.244 . S
O127 Co126 2.216 . S
O127 C134 1.247 . S
O128 Co126 2.091 . S
O128 C134 1.261 . S
C129 O138 1.247 . S
C129 O139 1.272 1_565 S
O130 Co126 2.004 . S
O130 C135 1.259 . S
Co131 O132 2.061 . S
Co131 O137 2.052 . S
Co131 O139 2.135 . S
O132 Co131 2.061 . S
O132 C135 1.235 . S
C133 O136 1.238 . S
C133 O137 1.241 . S
C134 O127 1.247 . S
C134 O128 1.261 . S
C135 O130 1.259 . S
C135 O132 1.235 . S
O136 Co126 2.021 . S
O136 C133 1.238 . S
O137 Co131 2.052 . S
O137 C133 1.241 . S
O138 Co126 2.137 1_565 S
O138 C129 1.247 . S
O139 Co126 2.244 . S
O139 C129 1.272 1_545 S
O139 Co131 2.135 . S
Co140 O141 2.216 . S
Co140 O142 2.091 . S
Co140 O144 2.004 . S
Co140 O150 2.021 . S
Co140 O152 2.137 . S
Co140 O153 2.244 . S
O141 Co140 2.216 . S
O141 C148 1.247 . S
O142 Co140 2.091 . S
O142 C148 1.261 . S
C143 O152 1.247 . S
C143 O153 1.272 . S
O144 Co140 2.004 . S
O144 C149 1.259 . S
Co145 O146 2.061 . S
Co145 O151 2.052 . S
Co145 O153 2.135 . S
O146 Co145 2.061 . S
O146 C149 1.235 . S
C147 O150 1.238 1_655 S
C147 O151 1.241 1_655 S
C148 O141 1.247 . S
C148 O142 1.261 . S
C149 O144 1.259 . S
C149 O146 1.235 . S
O150 Co140 2.021 . S
O150 C147 1.238 1_455 S
O151 Co145 2.052 . S
O151 C147 1.241 1_455 S
O152 Co140 2.137 . S
O152 C143 1.247 . S
O153 Co140 2.244 . S
O153 C143 1.272 . S
O153 Co145 2.135 . S
Co154 O155 2.216 . S
Co154 O156 2.091 . S
Co154 O158 2.004 . S
Co154 O164 2.021 . S
Co154 O166 2.137 . S
Co154 O167 2.244 . S
O155 Co154 2.216 . S
O155 C162 1.247 . S
O156 Co154 2.091 . S
O156 C162 1.261 . S
C157 O166 1.247 . S
C157 O167 1.272 . S
O158 Co154 2.004 . S
O158 C163 1.259 . S
Co159 O160 2.061 . S
Co159 O165 2.052 . S
Co159 O167 2.135 . S
O160 Co159 2.061 . S
O160 C163 1.235 . S
C161 O164 1.238 . S
C161 O165 1.241 . S
C162 O155 1.247 . S
C162 O156 1.261 . S
C163 O158 1.259 . S
C163 O160 1.235 . S
O164 Co154 2.021 . S
O164 C161 1.238 . S
O165 Co159 2.052 . S
O165 C161 1.241 . S
O166 Co154 2.137 . S
O166 C157 1.247 . S
O167 Co154 2.244 . S
O167 C157 1.272 . S
O167 Co159 2.135 . S
Co168 O169 2.216 . S
Co168 O170 2.091 . S
Co168 O172 2.004 . S
Co168 O178 2.021 . S
Co168 O180 2.137 . S
Co168 O181 2.244 . S
O169 Co168 2.216 . S
O169 C176 1.247 . S
O170 Co168 2.091 . S
O170 C176 1.261 . S
C171 O180 1.247 . S
C171 O181 1.272 . S
O172 Co168 2.004 . S
O172 C177 1.259 . S
Co173 O174 2.061 . S
Co173 O179 2.052 . S
Co173 O181 2.135 . S
O174 Co173 2.061 . S
O174 C177 1.235 . S
C175 O178 1.238 . S
C175 O179 1.241 . S
C176 O169 1.247 . S
C176 O170 1.261 . S
C177 O172 1.259 . S
C177 O174 1.235 . S
O178 Co168 2.021 . S
O178 C175 1.238 . S
O179 Co173 2.052 . S
O179 C175 1.241 . S
O180 Co168 2.137 . S
O180 C171 1.247 . S
O181 Co168 2.244 . S
O181 C171 1.272 . S
O181 Co173 2.135 . S
Co182 O183 2.216 . S
Co182 O184 2.091 . S
Co182 O186 2.004 . S
Co182 O192 2.021 . S
Co182 O194 2.137 . S
Co182 O195 2.244 . S
O183 Co182 2.216 . S
O183 C190 1.247 . S
O184 Co182 2.091 . S
O184 C190 1.261 . S
C185 O194 1.247 . S
C185 O195 1.272 . S
O186 Co182 2.004 . S
O186 C191 1.259 . S
Co187 O188 2.061 . S
Co187 O193 2.052 . S
Co187 O195 2.135 . S
O188 Co187 2.061 . S
O188 C191 1.235 . S
C189 O192 1.238 . S
C189 O193 1.241 . S
C190 O183 1.247 . S
C190 O184 1.261 . S
C191 O186 1.259 . S
C191 O188 1.235 . S
O192 Co182 2.021 . S
O192 C189 1.238 . S
O193 Co187 2.052 . S
O193 C189 1.241 . S
O194 Co182 2.137 . S
O194 C185 1.247 . S
O195 Co182 2.244 . S
O195 C185 1.272 . S
O195 Co187 2.135 . S
Co196 O197 2.216 . S
Co196 O198 2.091 1_655 S
Co196 O200 2.004 . S
Co196 O206 2.021 . S
Co196 O208 2.137 . S
Co196 O209 2.244 . S
O197 Co196 2.216 . S
O197 C204 1.300 . S
O198 Co196 2.091 1_455 S
O198 C204 1.233 1_455 S
C199 O208 1.247 . S
C199 O209 1.272 . S
O200 Co196 2.004 . S
O200 C205 1.259 . S
Co201 O202 2.061 . S
Co201 O207 2.052 . S
Co201 O209 2.135 . S
O202 Co201 2.061 . S
O202 C205 1.235 . S
C203 O206 1.238 . S
C203 O207 1.241 . S
C204 O197 1.300 . S
C204 O198 1.233 1_655 S
C205 O200 1.259 . S
C205 O202 1.235 . S
O206 Co196 2.021 . S
O206 C203 1.238 . S
O207 Co201 2.052 . S
O207 C203 1.241 . S
O208 Co196 2.137 . S
O208 C199 1.247 . S
O209 Co196 2.244 . S
O209 C199 1.272 . S
O209 Co201 2.135 . S
Co210 O211 2.216 . S
Co210 O212 2.091 1_655 S
Co210 O214 2.004 . S
Co210 O220 2.021 . S
Co210 O222 2.138 . S
Co210 O223 2.244 . S
O211 Co210 2.216 . S
O211 C218 1.247 . S
O212 Co210 2.091 1_455 S
O212 C218 1.261 1_455 S
C213 O222 1.246 . S
C213 O223 1.272 . S
O214 Co210 2.004 . S
O214 C219 1.259 . S
Co215 O216 2.061 . S
Co215 O221 2.052 . S
Co215 O223 2.135 . S
O216 Co215 2.061 . S
O216 C219 1.235 . S
C217 O220 1.238 . S
C217 O221 1.241 . S
C218 O211 1.247 . S
C218 O212 1.261 1_655 S
C219 O214 1.259 . S
C219 O216 1.235 . S
O220 Co210 2.021 . S
O220 C217 1.238 . S
O221 Co215 2.052 . S
O221 C217 1.241 . S
O222 Co210 2.138 . S
O222 C213 1.246 . S
O223 Co210 2.244 . S
O223 C213 1.272 . S
O223 Co215 2.135 . S
Co224 O225 2.216 . S
Co224 O226 2.091 . S
Co224 O228 2.004 . S
Co224 O234 2.021 . S
Co224 O236 2.137 . S
Co224 O237 2.244 . S
O225 Co224 2.216 . S
O225 C232 1.247 . S
O226 Co224 2.091 . S
O226 C232 1.261 . S
C227 O236 1.247 . S
C227 O237 1.272 . S
O228 Co224 2.004 . S
O228 C233 1.259 . S
Co229 O230 2.061 . S
Co229 O235 2.052 . S
Co229 O237 2.135 . S
O230 Co229 2.061 . S
O230 C233 1.235 . S
C231 O234 1.238 . S
C231 O235 1.241 . S
C232 O225 1.247 . S
C232 O226 1.261 . S
C233 O228 1.259 . S
C233 O230 1.235 . S
O234 Co224 2.021 . S
O234 C231 1.238 . S
O235 Co229 2.052 . S
O235 C231 1.241 . S
O236 Co224 2.137 . S
O236 C227 1.247 . S
O237 Co224 2.244 . S
O237 C227 1.272 . S
O237 Co229 2.135 . S
Co238 O239 2.216 . S
Co238 O240 2.091 . S
Co238 O242 2.004 . S
Co238 O248 2.021 . S
Co238 O250 2.137 . S
Co238 O251 2.244 . S
O239 Co238 2.216 . S
O239 C246 1.247 . S
O240 Co238 2.091 . S
O240 C246 1.261 . S
C241 O250 1.247 . S
C241 O251 1.272 . S
O242 Co238 2.004 . S
O242 C247 1.259 . S
Co243 O244 2.061 . S
Co243 O249 2.052 . S
Co243 O251 2.135 . S
O244 Co243 2.061 . S
O244 C247 1.235 . S
C245 O248 1.238 . S
C245 O249 1.241 . S
C246 O239 1.247 . S
C246 O240 1.261 . S
C247 O242 1.259 . S
C247 O244 1.235 . S
O248 Co238 2.021 . S
O248 C245 1.238 . S
O249 Co243 2.052 . S
O249 C245 1.241 . S
O250 Co238 2.137 . S
O250 C241 1.247 . S
O251 Co238 2.244 . S
O251 C241 1.272 . S
O251 Co243 2.135 . S
Co252 O253 2.216 . S
Co252 O254 2.091 . S
Co252 O256 2.004 . S
Co252 O262 2.021 . S
Co252 O264 2.137 . S
Co252 O265 2.244 . S
O253 Co252 2.216 . S
O253 C260 1.247 . S
O254 Co252 2.091 . S
O254 C260 1.261 . S
C255 O264 1.247 . S
C255 O265 1.272 . S
O256 Co252 2.004 . S
O256 C261 1.259 . S
Co257 O258 2.061 . S
Co257 O263 2.052 . S
Co257 O265 2.135 . S
O258 Co257 2.061 . S
O258 C261 1.235 . S
C259 O262 1.238 . S
C259 O263 1.241 . S
C260 O253 1.247 . S
C260 O254 1.261 . S
C261 O256 1.259 . S
C261 O258 1.235 . S
O262 Co252 2.021 . S
O262 C259 1.238 . S
O263 Co257 2.052 . S
O263 C259 1.241 . S
O264 Co252 2.137 . S
O264 C255 1.247 . S
O265 Co252 2.244 . S
O265 C255 1.272 . S
O265 Co257 2.135 . S
Co266 O267 2.216 . S
Co266 O268 2.091 1_655 S
Co266 O270 2.004 . S
Co266 O276 2.021 . S
Co266 O278 2.137 . S
Co266 O279 2.244 . S
O267 Co266 2.216 . S
O267 C274 1.247 . S
O268 Co266 2.091 1_455 S
O268 C274 1.261 1_455 S
C269 O278 1.247 . S
C269 O279 1.272 . S
O270 Co266 2.004 . S
O270 C275 1.259 . S
Co271 O272 2.061 . S
Co271 O277 2.052 . S
Co271 O279 2.135 . S
O272 Co271 2.061 . S
O272 C275 1.235 . S
C273 O276 1.238 . S
C273 O277 1.241 . S
C274 O267 1.247 . S
C274 O268 1.261 1_655 S
C275 O270 1.259 . S
C275 O272 1.235 . S
O276 Co266 2.021 . S
O276 C273 1.238 . S
O277 Co271 2.052 . S
O277 C273 1.241 . S
O278 Co266 2.137 . S
O278 C269 1.247 . S
O279 Co266 2.244 . S
O279 C269 1.272 . S
O279 Co271 2.135 . S
Co280 O281 2.216 . S
Co280 O282 2.091 . S
Co280 O284 2.004 . S
Co280 O290 2.021 . S
Co280 O292 2.137 . S
Co280 O293 2.244 . S
O281 Co280 2.216 . S
O281 C288 1.247 . S
O282 Co280 2.091 . S
O282 C288 1.261 . S
C283 O292 1.247 . S
C283 O293 1.272 . S
O284 Co280 2.004 . S
O284 C289 1.259 . S
Co285 O286 2.061 . S
Co285 O291 2.052 . S
Co285 O293 2.135 . S
O286 Co285 2.061 . S
O286 C289 1.235 . S
C287 O290 1.238 . S
C287 O291 1.241 . S
C288 O281 1.247 . S
C288 O282 1.261 . S
C289 O284 1.259 . S
C289 O286 1.235 . S
O290 Co280 2.021 . S
O290 C287 1.238 . S
O291 Co285 2.052 . S
O291 C287 1.241 . S
O292 Co280 2.137 . S
O292 C283 1.247 . S
O293 Co280 2.244 . S
O293 C283 1.272 . S
O293 Co285 2.135 . S
Co294 O295 2.216 . S
Co294 O296 2.091 . S
Co294 O298 2.004 . S
Co294 O304 2.021 . S
Co294 O306 2.137 . S
Co294 O307 2.244 . S
O295 Co294 2.216 . S
O295 C302 1.247 . S
O296 Co294 2.091 . S
O296 C302 1.261 . S
C297 O306 1.247 . S
C297 O307 1.272 . S
O298 Co294 2.004 . S
O298 C303 1.259 . S
Co299 O300 2.061 . S
Co299 O305 2.052 . S
Co299 O307 2.135 . S
O300 Co299 2.061 . S
O300 C303 1.235 . S
C301 O304 1.238 . S
C301 O305 1.241 . S
C302 O295 1.247 . S
C302 O296 1.261 . S
C303 O298 1.259 . S
C303 O300 1.235 . S
O304 Co294 2.021 . S
O304 C301 1.238 . S
O305 Co299 2.052 . S
O305 C301 1.241 . S
O306 Co294 2.137 . S
O306 C297 1.247 . S
O307 Co294 2.244 . S
O307 C297 1.272 . S
O307 Co299 2.135 . S
Co308 O309 2.216 . S
Co308 O310 2.091 . S
Co308 O312 2.004 . S
Co308 O318 2.021 . S
Co308 O320 2.137 . S
Co308 O321 2.244 . S
O309 Co308 2.216 . S
O309 C316 1.247 . S
O310 Co308 2.091 . S
O310 C316 1.261 . S
C311 O320 1.247 . S
C311 O321 1.272 . S
O312 Co308 2.004 . S
O312 C317 1.259 . S
Co313 O314 2.061 . S
Co313 O319 2.052 . S
Co313 O321 2.135 . S
O314 Co313 2.061 . S
O314 C317 1.235 . S
C315 O318 1.238 . S
C315 O319 1.241 . S
C316 O309 1.247 . S
C316 O310 1.261 . S
C317 O312 1.259 . S
C317 O314 1.235 . S
O318 Co308 2.021 . S
O318 C315 1.238 . S
O319 Co313 2.052 . S
O319 C315 1.241 . S
O320 Co308 2.137 . S
O320 C311 1.247 . S
O321 Co308 2.244 . S
O321 C311 1.272 . S
O321 Co313 2.135 . S
Co322 O323 2.216 . S
Co322 O324 2.091 1_655 S
Co322 O326 2.004 . S
Co322 O332 2.021 . S
Co322 O334 2.137 . S
Co322 O335 2.244 . S
O323 Co322 2.216 . S
O323 C330 1.280 . S
O324 Co322 2.091 1_455 S
O324 C330 1.248 1_455 S
C325 O334 1.247 . S
C325 O335 1.272 . S
O326 Co322 2.004 . S
O326 C331 1.259 . S
Co327 O328 2.061 . S
Co327 O333 2.052 . S
Co327 O335 2.135 . S
O328 Co327 2.061 . S
O328 C331 1.235 . S
C329 O332 1.238 . S
C329 O333 1.241 . S
C330 O323 1.280 . S
C330 O324 1.248 1_655 S
C331 O326 1.259 . S
C331 O328 1.235 . S
O332 Co322 2.021 . S
O332 C329 1.238 . S
O333 Co327 2.052 . S
O333 C329 1.241 . S
O334 Co322 2.137 . S
O334 C325 1.247 . S
O335 Co322 2.244 . S
O335 C325 1.272 . S
O335 Co327 2.135 . S
Co336 O337 2.216 . S
Co336 O338 2.091 1_565 S
Co336 O340 2.004 . S
Co336 O346 2.021 . S
Co336 O348 2.138 . S
Co336 O349 2.244 . S
O337 Co336 2.216 . S
O337 C344 1.247 . S
O338 Co336 2.091 1_545 S
O338 C344 1.261 1_545 S
C339 O348 1.246 . S
C339 O349 1.272 . S
O340 Co336 2.004 . S
O340 C345 1.259 . S
Co341 O342 2.061 . S
Co341 O347 2.052 . S
Co341 O349 2.135 . S
O342 Co341 2.061 . S
O342 C345 1.235 . S
C343 O346 1.238 . S
C343 O347 1.241 . S
C344 O337 1.247 . S
C344 O338 1.261 1_565 S
C345 O340 1.259 . S
C345 O342 1.235 . S
O346 Co336 2.021 . S
O346 C343 1.238 . S
O347 Co341 2.052 . S
O347 C343 1.241 . S
O348 Co336 2.138 . S
O348 C339 1.246 . S
O349 Co336 2.244 . S
O349 C339 1.272 . S
O349 Co341 2.135 . S
Co350 O351 2.216 . S
Co350 O352 2.091 . S
Co350 O354 2.004 . S
Co350 O360 2.021 . S
Co350 O362 2.137 . S
Co350 O363 2.244 . S
O351 Co350 2.216 . S
O351 C358 1.247 . S
O352 Co350 2.091 . S
O352 C358 1.261 . S
C353 O362 1.247 . S
C353 O363 1.272 . S
O354 Co350 2.004 . S
O354 C359 1.259 . S
Co355 O356 2.061 . S
Co355 O361 2.052 . S
Co355 O363 2.135 . S
O356 Co355 2.061 . S
O356 C359 1.235 . S
C357 O360 1.238 . S
C357 O361 1.241 . S
C358 O351 1.247 . S
C358 O352 1.261 . S
C359 O354 1.259 . S
C359 O356 1.235 . S
O360 Co350 2.021 . S
O360 C357 1.238 . S
O361 Co355 2.052 . S
O361 C357 1.241 . S
O362 Co350 2.137 . S
O362 C353 1.247 . S
O363 Co350 2.244 . S
O363 C353 1.272 . S
O363 Co355 2.135 . S
Co364 O365 2.216 . S
Co364 O366 2.091 . S
Co364 O368 2.004 . S
Co364 O374 2.021 . S
Co364 O376 2.137 . S
Co364 O377 2.244 . S
O365 Co364 2.216 . S
O365 C372 1.247 . S
O366 Co364 2.091 . S
O366 C372 1.261 . S
C367 O376 1.247 . S
C367 O377 1.272 . S
O368 Co364 2.004 . S
O368 C373 1.259 . S
Co369 O370 2.061 . S
Co369 O375 2.052 . S
Co369 O377 2.135 . S
O370 Co369 2.061 . S
O370 C373 1.235 . S
C371 O374 1.238 . S
C371 O375 1.241 . S
C372 O365 1.247 . S
C372 O366 1.261 . S
C373 O368 1.259 . S
C373 O370 1.235 . S
O374 Co364 2.021 . S
O374 C371 1.238 . S
O375 Co369 2.052 . S
O375 C371 1.241 . S
O376 Co364 2.137 . S
O376 C367 1.247 . S
O377 Co364 2.244 . S
O377 C367 1.272 . S
O377 Co369 2.135 . S
Co378 O379 2.216 . S
Co378 O380 2.091 . S
Co378 O382 2.004 . S
Co378 O388 2.021 . S
Co378 O390 2.137 . S
Co378 O391 2.244 . S
O379 Co378 2.216 . S
O379 C386 1.247 . S
O380 Co378 2.091 . S
O380 C386 1.261 . S
C381 O390 1.247 . S
C381 O391 1.272 . S
O382 Co378 2.004 . S
O382 C387 1.259 . S
Co383 O384 2.061 . S
Co383 O389 2.052 . S
Co383 O391 2.135 . S
O384 Co383 2.061 . S
O384 C387 1.235 . S
C385 O388 1.238 . S
C385 O389 1.241 . S
C386 O379 1.247 . S
C386 O380 1.261 . S
C387 O382 1.259 . S
C387 O384 1.235 . S
O388 Co378 2.021 . S
O388 C385 1.238 . S
O389 Co383 2.052 . S
O389 C385 1.241 . S
O390 Co378 2.137 . S
O390 C381 1.247 . S
O391 Co378 2.244 . S
O391 C381 1.272 . S
O391 Co383 2.135 . S
Co392 O393 2.216 . S
Co392 O394 2.091 1_565 S
Co392 O396 2.004 . S
Co392 O402 2.021 . S
Co392 O404 2.137 . S
Co392 O405 2.244 . S
O393 Co392 2.216 . S
O393 C400 1.300 . S
O394 Co392 2.091 1_545 S
O394 C400 1.233 1_545 S
C395 O404 1.247 . S
C395 O405 1.272 . S
O396 Co392 2.004 . S
O396 C401 1.259 . S
Co397 O398 2.061 . S
Co397 O403 2.052 . S
Co397 O405 2.135 . S
O398 Co397 2.061 . S
O398 C401 1.235 . S
C399 O402 1.238 . S
C399 O403 1.241 . S
C400 O393 1.300 . S
C400 O394 1.233 1_565 S
C401 O396 1.259 . S
C401 O398 1.235 . S
O402 Co392 2.021 . S
O402 C399 1.238 . S
O403 Co397 2.052 . S
O403 C399 1.241 . S
O404 Co392 2.137 . S
O404 C395 1.247 . S
O405 Co392 2.244 . S
O405 C395 1.272 . S
O405 Co397 2.135 . S
Co406 O407 2.216 . S
Co406 O408 2.091 . S
Co406 O410 2.004 . S
Co406 O416 2.021 . S
Co406 O418 2.137 . S
Co406 O419 2.244 . S
O407 Co406 2.216 . S
O407 C414 1.247 . S
O408 Co406 2.091 . S
O408 C414 1.261 . S
C409 O418 1.247 . S
C409 O419 1.272 . S
O410 Co406 2.004 . S
O410 C415 1.259 . S
Co411 O412 2.061 . S
Co411 O417 2.052 . S
Co411 O419 2.135 . S
O412 Co411 2.061 . S
O412 C415 1.235 . S
C413 O416 1.238 . S
C413 O417 1.241 . S
C414 O407 1.247 . S
C414 O408 1.261 . S
C415 O410 1.259 . S
C415 O412 1.235 . S
O416 Co406 2.021 . S
O416 C413 1.238 . S
O417 Co411 2.052 . S
O417 C413 1.241 . S
O418 Co406 2.137 . S
O418 C409 1.247 . S
O419 Co406 2.244 . S
O419 C409 1.272 . S
O419 Co411 2.135 . S
Co420 O421 2.216 . S
Co420 O422 2.091 . S
Co420 O424 2.004 . S
Co420 O430 2.021 . S
Co420 O432 2.137 . S
Co420 O433 2.244 . S
O421 Co420 2.216 . S
O421 C428 1.247 . S
O422 Co420 2.091 . S
O422 C428 1.261 . S
C423 O432 1.247 . S
C423 O433 1.272 . S
O424 Co420 2.004 . S
O424 C429 1.259 . S
Co425 O426 2.061 . S
Co425 O431 2.052 . S
Co425 O433 2.135 . S
O426 Co425 2.061 . S
O426 C429 1.235 . S
C427 O430 1.238 . S
C427 O431 1.241 . S
C428 O421 1.247 . S
C428 O422 1.261 . S
C429 O424 1.259 . S
C429 O426 1.235 . S
O430 Co420 2.021 . S
O430 C427 1.238 . S
O431 Co425 2.052 . S
O431 C427 1.241 . S
O432 Co420 2.137 . S
O432 C423 1.247 . S
O433 Co420 2.244 . S
O433 C423 1.272 . S
O433 Co425 2.135 . S
Co434 O435 2.216 . S
Co434 O436 2.091 1_565 S
Co434 O438 2.004 . S
Co434 O444 2.021 . S
Co434 O446 2.137 . S
Co434 O447 2.244 . S
O435 Co434 2.216 . S
O435 C442 1.280 . S
O436 Co434 2.091 1_545 S
O436 C442 1.248 1_545 S
C437 O446 1.247 . S
C437 O447 1.272 . S
O438 Co434 2.004 . S
O438 C443 1.259 . S
Co439 O440 2.061 . S
Co439 O445 2.052 . S
Co439 O447 2.135 . S
O440 Co439 2.061 . S
O440 C443 1.235 . S
C441 O444 1.238 . S
C441 O445 1.241 . S
C442 O435 1.280 . S
C442 O436 1.248 1_565 S
C443 O438 1.259 . S
C443 O440 1.235 . S
O444 Co434 2.021 . S
O444 C441 1.238 . S
O445 Co439 2.052 . S
O445 C441 1.241 . S
O446 Co434 2.137 . S
O446 C437 1.247 . S
O447 Co434 2.244 . S
O447 C437 1.272 . S
O447 Co439 2.135 . S
Co448 O449 2.216 . S
Co448 O450 2.091 . S
Co448 O452 2.004 . S
Co448 O458 2.021 . S
Co448 O460 2.137 . S
Co448 O461 2.244 . S
O449 Co448 2.216 . S
O449 C456 1.247 . S
O450 Co448 2.091 . S
O450 C456 1.261 . S
C451 O460 1.247 . S
C451 O461 1.272 . S
O452 Co448 2.004 . S
O452 C457 1.259 . S
Co453 O454 2.061 . S
Co453 O459 2.052 . S
Co453 O461 2.135 . S
O454 Co453 2.061 . S
O454 C457 1.235 . S
C455 O458 1.238 . S
C455 O459 1.241 . S
C456 O449 1.247 . S
C456 O450 1.261 . S
C457 O452 1.259 . S
C457 O454 1.235 . S
O458 Co448 2.021 . S
O458 C455 1.238 . S
O459 Co453 2.052 . S
O459 C455 1.241 . S
O460 Co448 2.137 . S
O460 C451 1.247 . S
O461 Co448 2.244 . S
O461 C451 1.272 . S
O461 Co453 2.135 . S
Co462 O463 2.216 . S
Co462 O464 2.091 . S
Co462 O466 2.004 . S
Co462 O472 2.021 . S
Co462 O474 2.137 . S
Co462 O475 2.244 . S
O463 Co462 2.216 . S
O463 C470 1.247 . S
O464 Co462 2.091 . S
O464 C470 1.261 . S
C465 O474 1.247 . S
C465 O475 1.272 . S
O466 Co462 2.004 . S
O466 C471 1.259 . S
Co467 O468 2.061 . S
Co467 O473 2.052 . S
Co467 O475 2.135 . S
O468 Co467 2.061 . S
O468 C471 1.235 . S
C469 O472 1.238 . S
C469 O473 1.241 . S
C470 O463 1.247 . S
C470 O464 1.261 . S
C471 O466 1.259 . S
C471 O468 1.235 . S
O472 Co462 2.021 . S
O472 C469 1.238 . S
O473 Co467 2.052 . S
O473 C469 1.241 . S
O474 Co462 2.137 . S
O474 C465 1.247 . S
O475 Co462 2.244 . S
O475 C465 1.272 . S
O475 Co467 2.135 . S
Co476 O477 2.216 . S
Co476 O478 2.091 . S
Co476 O480 2.004 . S
Co476 O486 2.021 . S
Co476 O488 2.137 . S
Co476 O489 2.244 . S
O477 Co476 2.216 . S
O477 C484 1.247 . S
O478 Co476 2.091 . S
O478 C484 1.261 . S
C479 O488 1.247 . S
C479 O489 1.272 . S
O480 Co476 2.004 . S
O480 C485 1.259 . S
Co481 O482 2.061 . S
Co481 O487 2.052 . S
Co481 O489 2.135 . S
O482 Co481 2.061 . S
O482 C485 1.235 . S
C483 O486 1.238 . S
C483 O487 1.241 . S
C484 O477 1.247 . S
C484 O478 1.261 . S
C485 O480 1.259 . S
C485 O482 1.235 . S
O486 Co476 2.021 . S
O486 C483 1.238 . S
O487 Co481 2.052 . S
O487 C483 1.241 . S
O488 Co476 2.137 . S
O488 C479 1.247 . S
O489 Co476 2.244 . S
O489 C479 1.272 . S
O489 Co481 2.135 . S
Co490 O491 2.216 . S
Co490 O492 2.091 1_565 S
Co490 O494 2.004 . S
Co490 O500 2.021 . S
Co490 O502 2.137 . S
Co490 O503 2.244 . S
O491 Co490 2.216 . S
O491 C498 1.247 . S
O492 Co490 2.091 1_545 S
O492 C498 1.261 1_545 S
C493 O502 1.247 . S
C493 O503 1.272 . S
O494 Co490 2.004 . S
O494 C499 1.259 . S
Co495 O496 2.061 . S
Co495 O501 2.052 . S
Co495 O503 2.135 . S
O496 Co495 2.061 . S
O496 C499 1.235 . S
C497 O500 1.238 . S
C497 O501 1.241 . S
C498 O491 1.247 . S
C498 O492 1.261 1_565 S
C499 O494 1.259 . S
C499 O496 1.235 . S
O500 Co490 2.021 . S
O500 C497 1.238 . S
O501 Co495 2.052 . S
O501 C497 1.241 . S
O502 Co490 2.137 . S
O502 C493 1.247 . S
O503 Co490 2.244 . S
O503 C493 1.272 . S
O503 Co495 2.135 . S
C504 C505 1.349 . S
C504 C506 1.327 . S
C504 H529 0.950 . S
C505 C504 1.349 . S
C505 C521 1.349 . S
C506 C504 1.327 . S
C506 C525 1.429 . S
C506 H530 0.950 . S
C507 C524 1.574 . S
C507 C526 1.368 . S
C507 H531 0.949 . S
H508 C512 0.949 . S
C509 C510 1.349 . S
C509 C511 1.327 . S
C509 H532 0.950 . S
C510 C509 1.349 . S
C510 C522 1.349 . S
C511 C509 1.327 . S
C511 C527 1.429 . S
C511 H533 0.950 . S
C512 H508 0.949 . S
C512 C520 1.574 . S
C512 C528 1.368 . S
H513 C521 0.950 . S
H514 C519 0.950 . S
H515 C520 0.949 . S
H516 C522 0.950 . S
H517 C523 0.950 . S
H518 C524 0.949 . S
C519 H514 0.950 . S
C519 C521 1.327 . S
C519 C525 1.429 . S
C520 C512 1.574 . S
C520 H515 0.949 . S
C520 C526 1.368 . S
C521 C505 1.349 . S
C521 H513 0.950 . S
C521 C519 1.327 . S
C522 C510 1.349 . S
C522 H516 0.950 . S
C522 C523 1.327 . S
C523 H517 0.950 . S
C523 C522 1.327 . S
C523 C527 1.429 . S
C524 C507 1.574 . S
C524 H518 0.949 . S
C524 C528 1.368 . S
C525 C506 1.429 . S
C525 C519 1.429 . S
C525 C526 1.523 . S
C526 C507 1.368 . S
C526 C520 1.368 . S
C526 C525 1.523 . S
C527 C511 1.429 . S
C527 C523 1.429 . S
C527 C528 1.523 . S
C528 C512 1.368 . S
C528 C524 1.368 . S
C528 C527 1.523 . S
H529 C504 0.950 . S
H530 C506 0.950 . S
H531 C507 0.949 . S
H532 C509 0.950 . S
H533 C511 0.950 . S
C534 C535 1.349 . S
C534 C536 1.327 . S
C534 H559 0.950 . S
C535 C534 1.349 . S
C535 C551 1.349 . S
C536 C534 1.327 . S
C536 C555 1.429 . S
C536 H560 0.950 . S
C537 C554 1.574 . S
C537 C556 1.368 . S
C537 H561 0.949 . S
H538 C542 0.949 . S
C539 C540 1.349 . S
C539 C541 1.327 . S
C539 H562 0.950 . S
C540 C539 1.349 . S
C540 C552 1.349 . S
C541 C539 1.327 . S
C541 C557 1.429 . S
C541 H563 0.950 . S
C542 H538 0.949 . S
C542 C550 1.574 . S
C542 C558 1.368 . S
H543 C551 0.950 . S
H544 C549 0.950 . S
H545 C550 0.949 . S
H546 C552 0.950 . S
H547 C553 0.950 . S
H548 C554 0.949 . S
C549 H544 0.950 . S
C549 C551 1.327 . S
C549 C555 1.429 . S
C550 C542 1.574 . S
C550 H545 0.949 . S
C550 C556 1.368 . S
C551 C535 1.349 . S
C551 H543 0.950 . S
C551 C549 1.327 . S
C552 C540 1.349 . S
C552 H546 0.950 . S
C552 C553 1.327 . S
C553 H547 0.950 . S
C553 C552 1.327 . S
C553 C557 1.429 . S
C554 C537 1.574 . S
C554 H548 0.949 . S
C554 C558 1.368 . S
C555 C536 1.429 . S
C555 C549 1.429 . S
C555 C556 1.523 . S
C556 C537 1.368 . S
C556 C550 1.368 . S
C556 C555 1.523 . S
C557 C541 1.429 . S
C557 C553 1.429 . S
C557 C558 1.523 . S
C558 C542 1.368 . S
C558 C554 1.368 . S
C558 C557 1.523 . S
H559 C534 0.950 . S
H560 C536 0.950 . S
H561 C537 0.949 . S
H562 C539 0.950 . S
H563 C541 0.950 . S
C564 C565 1.349 . S
C564 C566 1.327 . S
C564 H589 0.950 . S
C565 C564 1.349 . S
C565 C581 1.349 . S
C566 C564 1.327 . S
C566 C585 1.429 . S
C566 H590 0.950 . S
C567 C584 1.574 . S
C567 C586 1.368 . S
C567 H591 0.949 . S
H568 C572 0.949 . S
C569 C570 1.349 . S
C569 C571 1.327 . S
C569 H592 0.950 . S
C570 C569 1.349 . S
C570 C582 1.349 . S
C571 C569 1.327 . S
C571 C587 1.429 . S
C571 H593 0.950 . S
C572 H568 0.949 . S
C572 C580 1.574 . S
C572 C588 1.368 . S
H573 C581 0.950 . S
H574 C579 0.950 . S
H575 C580 0.949 . S
H576 C582 0.950 . S
H577 C583 0.950 . S
H578 C584 0.949 . S
C579 H574 0.950 . S
C579 C581 1.327 . S
C579 C585 1.429 . S
C580 C572 1.574 . S
C580 H575 0.949 . S
C580 C586 1.368 . S
C581 C565 1.349 . S
C581 H573 0.950 . S
C581 C579 1.327 . S
C582 C570 1.349 . S
C582 H576 0.950 . S
C582 C583 1.327 . S
C583 H577 0.950 . S
C583 C582 1.327 . S
C583 C587 1.429 . S
C584 C567 1.574 . S
C584 H578 0.949 . S
C584 C588 1.368 . S
C585 C566 1.429 . S
C585 C579 1.429 . S
C585 C586 1.523 . S
C586 C567 1.368 . S
C586 C580 1.368 . S
C586 C585 1.523 . S
C587 C571 1.429 . S
C587 C583 1.429 . S
C587 C588 1.523 . S
C588 C572 1.368 . S
C588 C584 1.368 . S
C588 C587 1.523 . S
H589 C564 0.950 . S
H590 C566 0.950 . S
H591 C567 0.949 . S
H592 C569 0.950 . S
H593 C571 0.950 . S
C594 C595 1.349 . S
C594 C596 1.327 . S
C594 H619 0.950 . S
C595 C594 1.349 . S
C595 C611 1.349 . S
C596 C594 1.327 . S
C596 C615 1.429 . S
C596 H620 0.950 . S
C597 C614 1.574 . S
C597 C616 1.368 . S
C597 H621 0.949 . S
H598 C602 0.949 . S
C599 C600 1.349 . S
C599 C601 1.327 . S
C599 H622 0.950 . S
C600 C599 1.349 . S
C600 C612 1.349 . S
C601 C599 1.327 . S
C601 C617 1.429 . S
C601 H623 0.950 . S
C602 H598 0.949 . S
C602 C610 1.574 . S
C602 C618 1.368 . S
H603 C611 0.950 . S
H604 C609 0.950 . S
H605 C610 0.949 . S
H606 C612 0.950 . S
H607 C613 0.950 . S
H608 C614 0.949 . S
C609 H604 0.950 . S
C609 C611 1.327 . S
C609 C615 1.429 . S
C610 C602 1.574 . S
C610 H605 0.949 . S
C610 C616 1.368 . S
C611 C595 1.349 . S
C611 H603 0.950 . S
C611 C609 1.327 . S
C612 C600 1.349 . S
C612 H606 0.950 . S
C612 C613 1.327 . S
C613 H607 0.950 . S
C613 C612 1.327 . S
C613 C617 1.429 . S
C614 C597 1.574 . S
C614 H608 0.949 . S
C614 C618 1.368 . S
C615 C596 1.429 . S
C615 C609 1.429 . S
C615 C616 1.523 . S
C616 C597 1.368 . S
C616 C610 1.368 . S
C616 C615 1.523 . S
C617 C601 1.429 . S
C617 C613 1.429 . S
C617 C618 1.523 . S
C618 C602 1.368 . S
C618 C614 1.368 . S
C618 C617 1.523 . S
H619 C594 0.950 . S
H620 C596 0.950 . S
H621 C597 0.949 . S
H622 C599 0.950 . S
H623 C601 0.950 . S
C624 C625 1.349 . S
C624 C626 1.327 . S
C624 H649 0.950 . S
C625 C624 1.349 . S
C625 C641 1.349 . S
C626 C624 1.327 . S
C626 C645 1.429 . S
C626 H650 0.950 . S
C627 C644 1.574 . S
C627 C646 1.368 . S
C627 H651 0.949 . S
H628 C632 0.949 . S
C629 C630 1.349 . S
C629 C631 1.327 . S
C629 H652 0.950 . S
C630 C629 1.349 . S
C630 C642 1.349 . S
C631 C629 1.327 . S
C631 C647 1.429 . S
C631 H653 0.950 . S
C632 H628 0.949 . S
C632 C640 1.574 . S
C632 C648 1.368 . S
H633 C641 0.950 . S
H634 C639 0.950 . S
H635 C640 0.949 . S
H636 C642 0.950 . S
H637 C643 0.950 . S
H638 C644 0.949 . S
C639 H634 0.950 . S
C639 C641 1.327 . S
C639 C645 1.429 . S
C640 C632 1.574 . S
C640 H635 0.949 . S
C640 C646 1.368 . S
C641 C625 1.349 . S
C641 H633 0.950 . S
C641 C639 1.327 . S
C642 C630 1.349 . S
C642 H636 0.950 . S
C642 C643 1.327 . S
C643 H637 0.950 . S
C643 C642 1.327 . S
C643 C647 1.429 . S
C644 C627 1.574 . S
C644 H638 0.949 . S
C644 C648 1.368 . S
C645 C626 1.429 . S
C645 C639 1.429 . S
C645 C646 1.523 . S
C646 C627 1.368 . S
C646 C640 1.368 . S
C646 C645 1.523 . S
C647 C631 1.429 . S
C647 C643 1.429 . S
C647 C648 1.523 . S
C648 C632 1.368 . S
C648 C644 1.368 . S
C648 C647 1.523 . S
H649 C624 0.950 . S
H650 C626 0.950 . S
H651 C627 0.949 . S
H652 C629 0.950 . S
H653 C631 0.950 . S
C654 C655 1.349 . S
C654 C656 1.327 . S
C654 H679 0.950 . S
C655 C654 1.349 . S
C655 C671 1.349 . S
C656 C654 1.327 . S
C656 C675 1.429 . S
C656 H680 0.950 . S
C657 C674 1.574 . S
C657 C676 1.368 . S
C657 H681 0.949 . S
H658 C662 0.949 . S
C659 C660 1.349 . S
C659 C661 1.327 . S
C659 H682 0.950 . S
C660 C659 1.349 . S
C660 C672 1.349 . S
C661 C659 1.327 . S
C661 C677 1.429 . S
C661 H683 0.950 . S
C662 H658 0.949 . S
C662 C670 1.574 . S
C662 C678 1.368 . S
H663 C671 0.950 . S
H664 C669 0.950 . S
H665 C670 0.949 . S
H666 C672 0.950 . S
H667 C673 0.950 . S
H668 C674 0.949 . S
C669 H664 0.950 . S
C669 C671 1.327 . S
C669 C675 1.429 . S
C670 C662 1.574 . S
C670 H665 0.949 . S
C670 C676 1.368 . S
C671 C655 1.349 . S
C671 H663 0.950 . S
C671 C669 1.327 . S
C672 C660 1.349 . S
C672 H666 0.950 . S
C672 C673 1.327 . S
C673 H667 0.950 . S
C673 C672 1.327 . S
C673 C677 1.429 . S
C674 C657 1.574 . S
C674 H668 0.949 . S
C674 C678 1.368 . S
C675 C656 1.429 . S
C675 C669 1.429 . S
C675 C676 1.523 . S
C676 C657 1.368 . S
C676 C670 1.368 . S
C676 C675 1.523 . S
C677 C661 1.429 . S
C677 C673 1.429 . S
C677 C678 1.523 . S
C678 C662 1.368 . S
C678 C674 1.368 . S
C678 C677 1.523 . S
H679 C654 0.950 . S
H680 C656 0.950 . S
H681 C657 0.949 . S
H682 C659 0.950 . S
H683 C661 0.950 . S
C684 C685 1.349 . S
C684 C686 1.327 . S
C684 H709 0.950 . S
C685 C684 1.349 . S
C685 C701 1.349 . S
C686 C684 1.327 . S
C686 C705 1.429 . S
C686 H710 0.950 . S
C687 C704 1.574 . S
C687 C706 1.368 . S
C687 H711 0.949 . S
H688 C692 0.949 . S
C689 C690 1.349 . S
C689 C691 1.327 . S
C689 H712 0.950 . S
C690 C689 1.349 . S
C690 C702 1.349 . S
C691 C689 1.327 . S
C691 C707 1.429 . S
C691 H713 0.950 . S
C692 H688 0.949 . S
C692 C700 1.574 . S
C692 C708 1.368 . S
H693 C701 0.950 . S
H694 C699 0.950 . S
H695 C700 0.949 . S
H696 C702 0.950 . S
H697 C703 0.950 . S
H698 C704 0.949 . S
C699 H694 0.950 . S
C699 C701 1.327 . S
C699 C705 1.429 . S
C700 C692 1.574 . S
C700 H695 0.949 . S
C700 C706 1.368 . S
C701 C685 1.349 . S
C701 H693 0.950 . S
C701 C699 1.327 . S
C702 C690 1.349 . S
C702 H696 0.950 . S
C702 C703 1.327 . S
C703 H697 0.950 . S
C703 C702 1.327 . S
C703 C707 1.429 . S
C704 C687 1.574 . S
C704 H698 0.949 . S
C704 C708 1.368 . S
C705 C686 1.429 . S
C705 C699 1.429 . S
C705 C706 1.523 . S
C706 C687 1.368 . S
C706 C700 1.368 . S
C706 C705 1.523 . S
C707 C691 1.429 . S
C707 C703 1.429 . S
C707 C708 1.523 . S
C708 C692 1.368 . S
C708 C704 1.368 . S
C708 C707 1.523 . S
H709 C684 0.950 . S
H710 C686 0.950 . S
H711 C687 0.949 . S
H712 C689 0.950 . S
H713 C691 0.950 . S
C714 C715 1.349 . S
C714 C716 1.327 . S
C714 H739 0.950 . S
C715 C714 1.349 . S
C715 C731 1.349 . S
C716 C714 1.327 . S
C716 C735 1.429 . S
C716 H740 0.950 . S
C717 C734 1.574 . S
C717 C736 1.368 . S
C717 H741 0.949 . S
H718 C722 0.949 . S
C719 C720 1.349 . S
C719 C721 1.327 . S
C719 H742 0.950 . S
C720 C719 1.349 . S
C720 C732 1.349 . S
C721 C719 1.327 . S
C721 C737 1.429 . S
C721 H743 0.950 . S
C722 H718 0.949 . S
C722 C730 1.574 . S
C722 C738 1.368 . S
H723 C731 0.950 . S
H724 C729 0.950 . S
H725 C730 0.949 . S
H726 C732 0.950 . S
H727 C733 0.950 . S
H728 C734 0.949 . S
C729 H724 0.950 . S
C729 C731 1.327 . S
C729 C735 1.429 . S
C730 C722 1.574 . S
C730 H725 0.949 . S
C730 C736 1.368 . S
C731 C715 1.349 . S
C731 H723 0.950 . S
C731 C729 1.327 . S
C732 C720 1.349 . S
C732 H726 0.950 . S
C732 C733 1.327 . S
C733 H727 0.950 . S
C733 C732 1.327 . S
C733 C737 1.429 . S
C734 C717 1.574 . S
C734 H728 0.949 . S
C734 C738 1.368 . S
C735 C716 1.429 . S
C735 C729 1.429 . S
C735 C736 1.523 . S
C736 C717 1.368 . S
C736 C730 1.368 . S
C736 C735 1.523 . S
C737 C721 1.429 . S
C737 C733 1.429 . S
C737 C738 1.523 . S
C738 C722 1.368 . S
C738 C734 1.368 . S
C738 C737 1.523 . S
H739 C714 0.950 . S
H740 C716 0.950 . S
H741 C717 0.949 . S
H742 C719 0.950 . S
H743 C721 0.950 . S
C744 C745 1.349 . S
C744 C746 1.327 . S
C744 H769 0.950 . S
C745 C744 1.349 . S
C745 C761 1.349 . S
C746 C744 1.327 . S
C746 C765 1.429 . S
C746 H770 0.950 . S
C747 C764 1.574 . S
C747 C766 1.368 . S
C747 H771 0.949 . S
H748 C752 0.949 . S
C749 C750 1.349 . S
C749 C751 1.327 . S
C749 H772 0.950 . S
C750 C749 1.349 . S
C750 C762 1.349 . S
C751 C749 1.327 . S
C751 C767 1.429 . S
C751 H773 0.950 . S
C752 H748 0.949 . S
C752 C760 1.574 . S
C752 C768 1.368 . S
H753 C761 0.950 . S
H754 C759 0.950 . S
H755 C760 0.949 . S
H756 C762 0.950 . S
H757 C763 0.950 . S
H758 C764 0.949 . S
C759 H754 0.950 . S
C759 C761 1.327 . S
C759 C765 1.429 . S
C760 C752 1.574 . S
C760 H755 0.949 . S
C760 C766 1.368 . S
C761 C745 1.349 . S
C761 H753 0.950 . S
C761 C759 1.327 . S
C762 C750 1.349 . S
C762 H756 0.950 . S
C762 C763 1.327 . S
C763 H757 0.950 . S
C763 C762 1.327 . S
C763 C767 1.429 . S
C764 C747 1.574 . S
C764 H758 0.949 . S
C764 C768 1.368 . S
C765 C746 1.429 . S
C765 C759 1.429 . S
C765 C766 1.523 . S
C766 C747 1.368 . S
C766 C760 1.368 . S
C766 C765 1.523 . S
C767 C751 1.429 . S
C767 C763 1.429 . S
C767 C768 1.523 . S
C768 C752 1.368 . S
C768 C764 1.368 . S
C768 C767 1.523 . S
H769 C744 0.950 . S
H770 C746 0.950 . S
H771 C747 0.949 . S
H772 C749 0.950 . S
H773 C751 0.950 . S
C774 C775 1.349 . S
C774 C776 1.327 . S
C774 H799 0.950 . S
C775 C774 1.349 . S
C775 C791 1.349 . S
C776 C774 1.327 . S
C776 C795 1.429 . S
C776 H800 0.950 . S
C777 C794 1.574 . S
C777 C796 1.368 . S
C777 H801 0.949 1_655 S
H778 C782 0.949 . S
C779 C780 1.349 . S
C779 C781 1.327 . S
C779 H802 0.950 1_655 S
C780 C779 1.349 . S
C780 C792 1.349 . S
C781 C779 1.327 . S
C781 C797 1.429 . S
C781 H803 0.950 1_655 S
C782 H778 0.949 . S
C782 C790 1.574 . S
C782 C798 1.368 . S
H783 C791 0.950 1_455 S
H784 C789 0.950 1_455 S
H785 C790 0.949 . S
H786 C792 0.950 . S
H787 C793 0.950 . S
H788 C794 0.949 1_455 S
C789 H784 0.950 1_655 S
C789 C791 1.327 . S
C789 C795 1.429 . S
C790 C782 1.574 . S
C790 H785 0.949 . S
C790 C796 1.368 . S
C791 C775 1.349 . S
C791 H783 0.950 1_655 S
C791 C789 1.327 . S
C792 C780 1.349 . S
C792 H786 0.950 . S
C792 C793 1.327 . S
C793 H787 0.950 . S
C793 C792 1.327 . S
C793 C797 1.429 . S
C794 C777 1.574 . S
C794 H788 0.949 1_655 S
C794 C798 1.368 . S
C795 C776 1.429 . S
C795 C789 1.429 . S
C795 C796 1.523 . S
C796 C777 1.368 . S
C796 C790 1.368 . S
C796 C795 1.523 . S
C797 C781 1.429 . S
C797 C793 1.429 . S
C797 C798 1.523 . S
C798 C782 1.368 . S
C798 C794 1.368 . S
C798 C797 1.523 . S
H799 C774 0.950 . S
H800 C776 0.950 . S
H801 C777 0.949 1_455 S
H802 C779 0.950 1_455 S
H803 C781 0.950 1_455 S
C804 C805 1.349 . S
C804 C806 1.327 . S
C804 H829 0.950 . S
C805 C804 1.349 . S
C805 C821 1.349 . S
C806 C804 1.327 . S
C806 C825 1.429 . S
C806 H830 0.950 . S
C807 C824 1.574 . S
C807 C826 1.368 . S
C807 H831 0.949 . S
H808 C812 0.949 . S
C809 C810 1.349 . S
C809 C811 1.327 . S
C809 H832 0.950 . S
C810 C809 1.349 . S
C810 C822 1.349 . S
C811 C809 1.327 . S
C811 C827 1.429 . S
C811 H833 0.950 . S
C812 H808 0.949 . S
C812 C820 1.574 . S
C812 C828 1.368 . S
H813 C821 0.950 . S
H814 C819 0.950 . S
H815 C820 0.949 . S
H816 C822 0.950 . S
H817 C823 0.950 . S
H818 C824 0.949 . S
C819 H814 0.950 . S
C819 C821 1.327 . S
C819 C825 1.429 . S
C820 C812 1.574 . S
C820 H815 0.949 . S
C820 C826 1.368 . S
C821 C805 1.349 . S
C821 H813 0.950 . S
C821 C819 1.327 . S
C822 C810 1.349 . S
C822 H816 0.950 . S
C822 C823 1.327 . S
C823 H817 0.950 . S
C823 C822 1.327 . S
C823 C827 1.429 . S
C824 C807 1.574 . S
C824 H818 0.949 . S
C824 C828 1.368 . S
C825 C806 1.429 . S
C825 C819 1.429 . S
C825 C826 1.523 . S
C826 C807 1.368 . S
C826 C820 1.368 . S
C826 C825 1.523 . S
C827 C811 1.429 . S
C827 C823 1.429 . S
C827 C828 1.523 . S
C828 C812 1.368 . S
C828 C824 1.368 . S
C828 C827 1.523 . S
H829 C804 0.950 . S
H830 C806 0.950 . S
H831 C807 0.949 . S
H832 C809 0.950 . S
H833 C811 0.950 . S
C834 C835 1.349 . S
C834 C836 1.327 . S
C834 H859 0.950 . S
C835 C834 1.349 . S
C835 C851 1.349 . S
C836 C834 1.327 . S
C836 C855 1.429 . S
C836 H860 0.950 . S
C837 C854 1.574 . S
C837 C856 1.368 . S
C837 H861 0.949 . S
H838 C842 0.949 . S
C839 C840 1.349 . S
C839 C841 1.327 . S
C839 H862 0.950 . S
C840 C839 1.349 . S
C840 C852 1.349 . S
C841 C839 1.327 . S
C841 C857 1.429 . S
C841 H863 0.950 . S
C842 H838 0.949 . S
C842 C850 1.574 . S
C842 C858 1.368 . S
H843 C851 0.950 . S
H844 C849 0.950 . S
H845 C850 0.949 . S
H846 C852 0.950 . S
H847 C853 0.950 . S
H848 C854 0.949 . S
C849 H844 0.950 . S
C849 C851 1.327 . S
C849 C855 1.429 . S
C850 C842 1.574 . S
C850 H845 0.949 . S
C850 C856 1.368 . S
C851 C835 1.349 . S
C851 H843 0.950 . S
C851 C849 1.327 . S
C852 C840 1.349 . S
C852 H846 0.950 . S
C852 C853 1.327 . S
C853 H847 0.950 . S
C853 C852 1.327 . S
C853 C857 1.429 . S
C854 C837 1.574 . S
C854 H848 0.949 . S
C854 C858 1.368 . S
C855 C836 1.429 . S
C855 C849 1.429 . S
C855 C856 1.523 . S
C856 C837 1.368 . S
C856 C850 1.368 . S
C856 C855 1.523 . S
C857 C841 1.429 . S
C857 C853 1.429 . S
C857 C858 1.523 . S
C858 C842 1.368 . S
C858 C854 1.368 . S
C858 C857 1.523 . S
H859 C834 0.950 . S
H860 C836 0.950 . S
H861 C837 0.949 . S
H862 C839 0.950 . S
H863 C841 0.950 . S
C864 C865 1.349 . S
C864 C866 1.327 . S
C864 H889 0.950 1_565 S
C865 C864 1.349 . S
C865 C881 1.349 . S
C866 C864 1.327 . S
C866 C885 1.429 . S
C866 H890 0.950 1_565 S
C867 C884 1.574 . S
C867 C886 1.368 . S
C867 H891 0.949 . S
H868 C872 0.941 1_545 S
C869 C870 1.349 . S
C869 C871 1.327 . S
C869 H892 0.950 . S
C870 C869 1.349 . S
C870 C882 1.349 . S
C871 C869 1.327 . S
C871 C887 1.429 . S
C871 H893 0.950 . S
C872 H868 0.941 1_565 S
C872 C880 1.574 . S
C872 C888 1.393 . S
H873 C881 0.950 . S
H874 C879 0.950 . S
H875 C880 0.924 1_545 S
H876 C882 0.950 1_545 S
H877 C883 0.950 1_545 S
H878 C884 0.949 . S
C879 H874 0.950 . S
C879 C881 1.327 . S
C879 C885 1.429 . S
C880 C872 1.574 . S
C880 H875 0.924 1_565 S
C880 C886 1.382 . S
C881 C865 1.349 . S
C881 H873 0.950 . S
C881 C879 1.327 . S
C882 C870 1.349 . S
C882 H876 0.950 1_565 S
C882 C883 1.327 . S
C883 H877 0.950 1_565 S
C883 C882 1.327 . S
C883 C887 1.429 . S
C884 C867 1.574 . S
C884 H878 0.949 . S
C884 C888 1.368 . S
C885 C866 1.429 . S
C885 C879 1.429 . S
C885 C886 1.523 . S
C886 C867 1.368 . S
C886 C880 1.382 . S
C886 C885 1.523 . S
C887 C871 1.429 . S
C887 C883 1.429 . S
C887 C888 1.523 . S
C888 C872 1.393 . S
C888 C884 1.368 . S
C888 C887 1.523 . S
H889 C864 0.950 1_545 S
H890 C866 0.950 1_545 S
H891 C867 0.949 . S
H892 C869 0.950 . S
H893 C871 0.950 . S
C894 C895 1.349 . S
C894 C896 1.327 . S
C894 H919 0.950 . S
C895 C894 1.349 . S
C895 C911 1.349 . S
C896 C894 1.327 . S
C896 C915 1.429 . S
C896 H920 0.950 . S
C897 C914 1.574 . S
C897 C916 1.368 . S
C897 H921 0.949 . S
H898 C902 0.949 . S
C899 C900 1.349 . S
C899 C901 1.327 . S
C899 H922 0.950 . S
C900 C899 1.349 . S
C900 C912 1.349 . S
C901 C899 1.327 . S
C901 C917 1.429 . S
C901 H923 0.950 . S
C902 H898 0.949 . S
C902 C910 1.574 . S
C902 C918 1.368 . S
H903 C911 0.950 . S
H904 C909 0.950 . S
H905 C910 0.949 . S
H906 C912 0.950 . S
H907 C913 0.950 . S
H908 C914 0.949 . S
C909 H904 0.950 . S
C909 C911 1.327 . S
C909 C915 1.429 . S
C910 C902 1.574 . S
C910 H905 0.949 . S
C910 C916 1.368 . S
C911 C895 1.349 . S
C911 H903 0.950 . S
C911 C909 1.327 . S
C912 C900 1.349 . S
C912 H906 0.950 . S
C912 C913 1.327 . S
C913 H907 0.950 . S
C913 C912 1.327 . S
C913 C917 1.429 . S
C914 C897 1.574 . S
C914 H908 0.949 . S
C914 C918 1.368 . S
C915 C896 1.429 . S
C915 C909 1.429 . S
C915 C916 1.523 . S
C916 C897 1.368 . S
C916 C910 1.368 . S
C916 C915 1.523 . S
C917 C901 1.429 . S
C917 C913 1.429 . S
C917 C918 1.523 . S
C918 C902 1.368 . S
C918 C914 1.368 . S
C918 C917 1.523 . S
H919 C894 0.950 . S
H920 C896 0.950 . S
H921 C897 0.949 . S
H922 C899 0.950 . S
H923 C901 0.950 . S
C924 C925 1.349 . S
C924 C926 1.327 . S
C924 H949 0.950 . S
C925 C924 1.349 . S
C925 C941 1.349 . S
C926 C924 1.327 . S
C926 C945 1.429 . S
C926 H950 0.950 . S
C927 C944 1.574 . S
C927 C946 1.368 . S
C927 H951 0.949 . S
H928 C932 0.949 . S
C929 C930 1.349 . S
C929 C931 1.327 . S
C929 H952 0.950 . S
C930 C929 1.349 . S
C930 C942 1.349 . S
C931 C929 1.327 . S
C931 C947 1.429 . S
C931 H953 0.950 . S
C932 H928 0.949 . S
C932 C940 1.574 . S
C932 C948 1.368 . S
H933 C941 0.950 . S
H934 C939 0.950 . S
H935 C940 0.949 . S
H936 C942 0.950 . S
H937 C943 0.950 . S
H938 C944 0.949 . S
C939 H934 0.950 . S
C939 C941 1.327 . S
C939 C945 1.429 . S
C940 C932 1.574 . S
C940 H935 0.949 . S
C940 C946 1.368 . S
C941 C925 1.349 . S
C941 H933 0.950 . S
C941 C939 1.327 . S
C942 C930 1.349 . S
C942 H936 0.950 . S
C942 C943 1.327 . S
C943 H937 0.950 . S
C943 C942 1.327 . S
C943 C947 1.429 . S
C944 C927 1.574 . S
C944 H938 0.949 . S
C944 C948 1.368 . S
C945 C926 1.429 . S
C945 C939 1.429 . S
C945 C946 1.523 . S
C946 C927 1.368 . S
C946 C940 1.368 . S
C946 C945 1.523 . S
C947 C931 1.429 . S
C947 C943 1.429 . S
C947 C948 1.523 . S
C948 C932 1.368 . S
C948 C944 1.368 . S
C948 C947 1.523 . S
H949 C924 0.950 . S
H950 C926 0.950 . S
H951 C927 0.949 . S
H952 C929 0.950 . S
H953 C931 0.950 . S
C954 C955 1.349 . S
C954 C956 1.327 . S
C954 H979 0.950 . S
C955 C954 1.349 . S
C955 C971 1.349 . S
C956 C954 1.327 . S
C956 C975 1.429 . S
C956 H980 0.950 . S
C957 C974 1.574 . S
C957 C976 1.368 . S
C957 H981 0.949 . S
H958 C962 0.949 . S
C959 C960 1.349 . S
C959 C961 1.327 . S
C959 H982 0.950 . S
C960 C959 1.349 . S
C960 C972 1.349 . S
C961 C959 1.327 . S
C961 C977 1.429 . S
C961 H983 0.950 . S
C962 H958 0.949 . S
C962 C970 1.574 . S
C962 C978 1.368 . S
H963 C971 0.950 . S
H964 C969 0.950 . S
H965 C970 0.949 . S
H966 C972 0.950 . S
H967 C973 0.950 . S
H968 C974 0.949 . S
C969 H964 0.950 . S
C969 C971 1.327 . S
C969 C975 1.429 . S
C970 C962 1.574 . S
C970 H965 0.949 . S
C970 C976 1.368 . S
C971 C955 1.349 . S
C971 H963 0.950 . S
C971 C969 1.327 . S
C972 C960 1.349 . S
C972 H966 0.950 . S
C972 C973 1.327 . S
C973 H967 0.950 . S
C973 C972 1.327 . S
C973 C977 1.429 . S
C974 C957 1.574 . S
C974 H968 0.949 . S
C974 C978 1.368 . S
C975 C956 1.429 . S
C975 C969 1.429 . S
C975 C976 1.523 . S
C976 C957 1.368 . S
C976 C970 1.368 . S
C976 C975 1.523 . S
C977 C961 1.429 . S
C977 C973 1.429 . S
C977 C978 1.523 . S
C978 C962 1.368 . S
C978 C974 1.368 . S
C978 C977 1.523 . S
H979 C954 0.950 . S
H980 C956 0.950 . S
H981 C957 0.949 . S
H982 C959 0.950 . S
H983 C961 0.950 . S
C984 C985 1.349 . S
C984 C986 1.327 . S
C984 H1009 0.950 . S
C985 C984 1.349 . S
C985 C1001 1.349 . S
C986 C984 1.327 . S
C986 C1005 1.429 . S
C986 H1010 0.950 . S
C987 C1004 1.574 . S
C987 C1006 1.368 . S
C987 H1011 0.949 . S
H988 C992 0.949 . S
C989 C990 1.349 . S
C989 C991 1.327 . S
C989 H1012 0.950 . S
C990 C989 1.349 . S
C990 C1002 1.349 . S
C991 C989 1.327 . S
C991 C1007 1.429 . S
C991 H1013 0.950 . S
C992 H988 0.949 . S
C992 C1000 1.574 . S
C992 C1008 1.368 . S
H993 C1001 0.950 . S
H994 C999 0.950 . S
H995 C1000 0.949 . S
H996 C1002 0.950 . S
H997 C1003 0.950 . S
H998 C1004 0.949 . S
C999 H994 0.950 . S
C999 C1001 1.327 . S
C999 C1005 1.429 . S
C1000 C992 1.574 . S
C1000 H995 0.949 . S
C1000 C1006 1.368 . S
C1001 C985 1.349 . S
C1001 H993 0.950 . S
C1001 C999 1.327 . S
C1002 C990 1.349 . S
C1002 H996 0.950 . S
C1002 C1003 1.327 . S
C1003 H997 0.950 . S
C1003 C1002 1.327 . S
C1003 C1007 1.429 . S
C1004 C987 1.574 . S
C1004 H998 0.949 . S
C1004 C1008 1.368 . S
C1005 C986 1.429 . S
C1005 C999 1.429 . S
C1005 C1006 1.523 . S
C1006 C987 1.368 . S
C1006 C1000 1.368 . S
C1006 C1005 1.523 . S
C1007 C991 1.429 . S
C1007 C1003 1.429 . S
C1007 C1008 1.523 . S
C1008 C992 1.368 . S
C1008 C1004 1.368 . S
C1008 C1007 1.523 . S
H1009 C984 0.950 . S
H1010 C986 0.950 . S
H1011 C987 0.949 . S
H1012 C989 0.950 . S
H1013 C991 0.950 . S
C1014 C1015 1.349 . S
C1014 C1016 1.327 . S
C1014 H1039 0.950 . S
C1015 C1014 1.349 . S
C1015 C1031 1.349 . S
C1016 C1014 1.327 . S
C1016 C1035 1.429 . S
C1016 H1040 0.950 . S
C1017 C1034 1.574 . S
C1017 C1036 1.368 . S
C1017 H1041 0.949 . S
H1018 C1022 0.949 . S
C1019 C1020 1.349 . S
C1019 C1021 1.327 . S
C1019 H1042 0.950 . S
C1020 C1019 1.349 . S
C1020 C1032 1.349 . S
C1021 C1019 1.327 . S
C1021 C1037 1.429 . S
C1021 H1043 0.950 . S
C1022 H1018 0.949 . S
C1022 C1030 1.574 . S
C1022 C1038 1.368 . S
H1023 C1031 0.950 . S
H1024 C1029 0.950 . S
H1025 C1030 0.949 . S
H1026 C1032 0.950 . S
H1027 C1033 0.950 . S
H1028 C1034 0.949 . S
C1029 H1024 0.950 . S
C1029 C1031 1.327 . S
C1029 C1035 1.429 . S
C1030 C1022 1.574 . S
C1030 H1025 0.949 . S
C1030 C1036 1.368 . S
C1031 C1015 1.349 . S
C1031 H1023 0.950 . S
C1031 C1029 1.327 . S
C1032 C1020 1.349 . S
C1032 H1026 0.950 . S
C1032 C1033 1.327 . S
C1033 H1027 0.950 . S
C1033 C1032 1.327 . S
C1033 C1037 1.429 . S
C1034 C1017 1.574 . S
C1034 H1028 0.949 . S
C1034 C1038 1.368 . S
C1035 C1016 1.429 . S
C1035 C1029 1.429 . S
C1035 C1036 1.523 . S
C1036 C1017 1.368 . S
C1036 C1030 1.368 . S
C1036 C1035 1.523 . S
C1037 C1021 1.429 . S
C1037 C1033 1.429 . S
C1037 C1038 1.523 . S
C1038 C1022 1.368 . S
C1038 C1034 1.368 . S
C1038 C1037 1.523 . S
H1039 C1014 0.950 . S
H1040 C1016 0.950 . S
H1041 C1017 0.949 . S
H1042 C1019 0.950 . S
H1043 C1021 0.950 . S
C1044 C1045 1.349 . S
C1044 C1046 1.327 . S
C1044 H1069 0.950 . S
C1045 C1044 1.349 . S
C1045 C1061 1.349 . S
C1046 C1044 1.327 . S
C1046 C1065 1.429 . S
C1046 H1070 0.950 . S
C1047 C1064 1.574 . S
C1047 C1066 1.368 1_655 S
C1047 H1071 0.949 . S
H1048 C1052 0.949 . S
C1049 C1050 1.349 1_655 S
C1049 C1051 1.327 . S
C1049 H1072 0.950 . S
C1050 C1049 1.349 1_455 S
C1050 C1062 1.349 . S
C1051 C1049 1.327 . S
C1051 C1067 1.429 1_655 S
C1051 H1073 0.950 . S
C1052 H1048 0.949 . S
C1052 C1060 1.574 . S
C1052 C1068 1.368 . S
H1053 C1061 0.950 1_655 S
H1054 C1059 0.950 1_655 S
H1055 C1060 0.949 . S
H1056 C1062 0.950 . S
H1057 C1063 0.950 . S
H1058 C1064 0.949 . S
C1059 H1054 0.950 1_455 S
C1059 C1061 1.327 . S
C1059 C1065 1.429 . S
C1060 C1052 1.574 . S
C1060 H1055 0.949 . S
C1060 C1066 1.368 . S
C1061 C1045 1.349 . S
C1061 H1053 0.950 1_455 S
C1061 C1059 1.327 . S
C1062 C1050 1.349 . S
C1062 H1056 0.950 . S
C1062 C1063 1.327 . S
C1063 H1057 0.950 . S
C1063 C1062 1.327 . S
C1063 C1067 1.429 . S
C1064 C1047 1.574 . S
C1064 H1058 0.949 . S
C1064 C1068 1.368 1_655 S
C1065 C1046 1.429 . S
C1065 C1059 1.429 . S
C1065 C1066 1.523 . S
C1066 C1047 1.368 1_455 S
C1066 C1060 1.368 . S
C1066 C1065 1.523 . S
C1067 C1051 1.429 1_455 S
C1067 C1063 1.429 . S
C1067 C1068 1.523 . S
C1068 C1052 1.368 . S
C1068 C1064 1.368 1_455 S
C1068 C1067 1.523 . S
H1069 C1044 0.950 . S
H1070 C1046 0.950 . S
H1071 C1047 0.949 . S
H1072 C1049 0.950 . S
H1073 C1051 0.950 . S
C1074 C1075 1.349 . S
C1074 C1076 1.327 . S
C1074 H1099 0.950 . S
C1075 C1074 1.349 . S
C1075 C1091 1.349 . S
C1076 C1074 1.327 . S
C1076 C1095 1.429 . S
C1076 H1100 0.950 . S
C1077 C1094 1.574 . S
C1077 C1096 1.368 . S
C1077 H1101 0.949 . S
H1078 C1082 0.949 . S
C1079 C1080 1.349 . S
C1079 C1081 1.327 . S
C1079 H1102 0.950 . S
C1080 C1079 1.349 . S
C1080 C1092 1.349 . S
C1081 C1079 1.327 . S
C1081 C1097 1.429 . S
C1081 H1103 0.950 . S
C1082 H1078 0.949 . S
C1082 C1090 1.574 . S
C1082 C1098 1.368 . S
H1083 C1091 0.950 . S
H1084 C1089 0.950 . S
H1085 C1090 0.949 . S
H1086 C1092 0.950 . S
H1087 C1093 0.950 . S
H1088 C1094 0.949 . S
C1089 H1084 0.950 . S
C1089 C1091 1.327 . S
C1089 C1095 1.429 . S
C1090 C1082 1.574 . S
C1090 H1085 0.949 . S
C1090 C1096 1.368 . S
C1091 C1075 1.349 . S
C1091 H1083 0.950 . S
C1091 C1089 1.327 . S
C1092 C1080 1.349 . S
C1092 H1086 0.950 . S
C1092 C1093 1.327 . S
C1093 H1087 0.950 . S
C1093 C1092 1.327 . S
C1093 C1097 1.429 . S
C1094 C1077 1.574 . S
C1094 H1088 0.949 . S
C1094 C1098 1.368 . S
C1095 C1076 1.429 . S
C1095 C1089 1.429 . S
C1095 C1096 1.523 . S
C1096 C1077 1.368 . S
C1096 C1090 1.368 . S
C1096 C1095 1.523 . S
C1097 C1081 1.429 . S
C1097 C1093 1.429 . S
C1097 C1098 1.523 . S
C1098 C1082 1.368 . S
C1098 C1094 1.368 . S
C1098 C1097 1.523 . S
H1099 C1074 0.950 . S
H1100 C1076 0.950 . S
H1101 C1077 0.949 . S
H1102 C1079 0.950 . S
H1103 C1081 0.950 . S
C1104 C1105 1.349 . S
C1104 C1106 1.327 . S
C1104 H1129 0.950 . S
C1105 C1104 1.349 . S
C1105 C1121 1.349 . S
C1106 C1104 1.327 . S
C1106 C1125 1.429 . S
C1106 H1130 0.950 . S
C1107 C1124 1.574 . S
C1107 C1126 1.368 . S
C1107 H1131 0.949 . S
H1108 C1112 0.949 . S
C1109 C1110 1.349 . S
C1109 C1111 1.327 . S
C1109 H1132 0.950 . S
C1110 C1109 1.349 . S
C1110 C1122 1.349 . S
C1111 C1109 1.327 . S
C1111 C1127 1.429 . S
C1111 H1133 0.950 . S
C1112 H1108 0.949 . S
C1112 C1120 1.574 . S
C1112 C1128 1.368 . S
H1113 C1121 0.950 . S
H1114 C1119 0.950 . S
H1115 C1120 0.949 . S
H1116 C1122 0.950 . S
H1117 C1123 0.950 . S
H1118 C1124 0.949 . S
C1119 H1114 0.950 . S
C1119 C1121 1.327 . S
C1119 C1125 1.429 . S
C1120 C1112 1.574 . S
C1120 H1115 0.949 . S
C1120 C1126 1.368 . S
C1121 C1105 1.349 . S
C1121 H1113 0.950 . S
C1121 C1119 1.327 . S
C1122 C1110 1.349 . S
C1122 H1116 0.950 . S
C1122 C1123 1.327 . S
C1123 H1117 0.950 . S
C1123 C1122 1.327 . S
C1123 C1127 1.429 . S
C1124 C1107 1.574 . S
C1124 H1118 0.949 . S
C1124 C1128 1.368 . S
C1125 C1106 1.429 . S
C1125 C1119 1.429 . S
C1125 C1126 1.523 . S
C1126 C1107 1.368 . S
C1126 C1120 1.368 . S
C1126 C1125 1.523 . S
C1127 C1111 1.429 . S
C1127 C1123 1.429 . S
C1127 C1128 1.523 . S
C1128 C1112 1.368 . S
C1128 C1124 1.368 . S
C1128 C1127 1.523 . S
H1129 C1104 0.950 . S
H1130 C1106 0.950 . S
H1131 C1107 0.949 . S
H1132 C1109 0.950 . S
H1133 C1111 0.950 . S
C1134 C1135 1.349 . S
C1134 C1136 1.327 . S
C1134 H1159 0.950 1_545 S
C1135 C1134 1.349 . S
C1135 C1151 1.349 . S
C1136 C1134 1.327 . S
C1136 C1155 1.429 . S
C1136 H1160 0.950 1_545 S
C1137 C1154 1.574 . S
C1137 C1156 1.368 . S
C1137 H1161 0.949 . S
H1138 C1142 0.949 . S
C1139 C1140 1.349 . S
C1139 C1141 1.327 . S
C1139 H1162 0.950 . S
C1140 C1139 1.349 . S
C1140 C1152 1.349 1_545 S
C1141 C1139 1.327 . S
C1141 C1157 1.429 . S
C1141 H1163 0.950 . S
C1142 H1138 0.949 . S
C1142 C1150 1.574 . S
C1142 C1158 1.368 1_565 S
H1143 C1151 0.950 . S
H1144 C1149 0.950 . S
H1145 C1150 0.949 . S
H1146 C1152 0.950 . S
H1147 C1153 0.950 . S
H1148 C1154 0.949 . S
C1149 H1144 0.950 . S
C1149 C1151 1.327 . S
C1149 C1155 1.429 . S
C1150 C1142 1.574 . S
C1150 H1145 0.949 . S
C1150 C1156 1.368 1_565 S
C1151 C1135 1.349 . S
C1151 H1143 0.950 . S
C1151 C1149 1.327 . S
C1152 C1140 1.349 1_565 S
C1152 H1146 0.950 . S
C1152 C1153 1.327 . S
C1153 H1147 0.950 . S
C1153 C1152 1.327 . S
C1153 C1157 1.429 1_565 S
C1154 C1137 1.574 . S
C1154 H1148 0.949 . S
C1154 C1158 1.368 . S
C1155 C1136 1.429 . S
C1155 C1149 1.429 . S
C1155 C1156 1.523 . S
C1156 C1137 1.368 . S
C1156 C1150 1.368 1_545 S
C1156 C1155 1.523 . S
C1157 C1141 1.429 . S
C1157 C1153 1.429 1_545 S
C1157 C1158 1.523 . S
C1158 C1142 1.368 1_545 S
C1158 C1154 1.368 . S
C1158 C1157 1.523 . S
H1159 C1134 0.950 1_565 S
H1160 C1136 0.950 1_565 S
H1161 C1137 0.949 . S
H1162 C1139 0.950 . S
H1163 C1141 0.950 . S
C1164 C1165 1.349 . S
C1164 C1166 1.327 . S
C1164 H1189 0.950 . S
C1165 C1164 1.349 . S
C1165 C1181 1.349 . S
C1166 C1164 1.327 . S
C1166 C1185 1.429 . S
C1166 H1190 0.950 . S
C1167 C1184 1.574 . S
C1167 C1186 1.368 . S
C1167 H1191 0.949 . S
H1168 C1172 0.949 . S
C1169 C1170 1.349 . S
C1169 C1171 1.327 . S
C1169 H1192 0.950 . S
C1170 C1169 1.349 . S
C1170 C1182 1.349 . S
C1171 C1169 1.327 . S
C1171 C1187 1.429 . S
C1171 H1193 0.950 . S
C1172 H1168 0.949 . S
C1172 C1180 1.574 . S
C1172 C1188 1.368 . S
H1173 C1181 0.950 . S
H1174 C1179 0.950 . S
H1175 C1180 0.949 . S
H1176 C1182 0.950 . S
H1177 C1183 0.950 . S
H1178 C1184 0.949 . S
C1179 H1174 0.950 . S
C1179 C1181 1.327 . S
C1179 C1185 1.429 . S
C1180 C1172 1.574 . S
C1180 H1175 0.949 . S
C1180 C1186 1.368 . S
C1181 C1165 1.349 . S
C1181 H1173 0.950 . S
C1181 C1179 1.327 . S
C1182 C1170 1.349 . S
C1182 H1176 0.950 . S
C1182 C1183 1.327 . S
C1183 H1177 0.950 . S
C1183 C1182 1.327 . S
C1183 C1187 1.429 . S
C1184 C1167 1.574 . S
C1184 H1178 0.949 . S
C1184 C1188 1.368 . S
C1185 C1166 1.429 . S
C1185 C1179 1.429 . S
C1185 C1186 1.523 . S
C1186 C1167 1.368 . S
C1186 C1180 1.368 . S
C1186 C1185 1.523 . S
C1187 C1171 1.429 . S
C1187 C1183 1.429 . S
C1187 C1188 1.523 . S
C1188 C1172 1.368 . S
C1188 C1184 1.368 . S
C1188 C1187 1.523 . S
H1189 C1164 0.950 . S
H1190 C1166 0.950 . S
H1191 C1167 0.949 . S
H1192 C1169 0.950 . S
H1193 C1171 0.950 . S
C1194 C1195 1.349 . S
C1194 C1196 1.327 . S
C1194 H1219 0.950 . S
C1195 C1194 1.349 . S
C1195 C1211 1.349 . S
C1196 C1194 1.327 . S
C1196 C1215 1.429 . S
C1196 H1220 0.950 . S
C1197 C1214 1.574 . S
C1197 C1216 1.368 . S
C1197 H1221 0.949 . S
H1198 C1202 0.949 . S
C1199 C1200 1.349 . S
C1199 C1201 1.327 . S
C1199 H1222 0.950 . S
C1200 C1199 1.349 . S
C1200 C1212 1.349 . S
C1201 C1199 1.327 . S
C1201 C1217 1.429 . S
C1201 H1223 0.950 . S
C1202 H1198 0.949 . S
C1202 C1210 1.574 . S
C1202 C1218 1.368 . S
H1203 C1211 0.950 . S
H1204 C1209 0.950 . S
H1205 C1210 0.949 . S
H1206 C1212 0.950 . S
H1207 C1213 0.950 . S
H1208 C1214 0.949 . S
C1209 H1204 0.950 . S
C1209 C1211 1.327 . S
C1209 C1215 1.429 . S
C1210 C1202 1.574 . S
C1210 H1205 0.949 . S
C1210 C1216 1.368 . S
C1211 C1195 1.349 . S
C1211 H1203 0.950 . S
C1211 C1209 1.327 . S
C1212 C1200 1.349 . S
C1212 H1206 0.950 . S
C1212 C1213 1.327 . S
C1213 H1207 0.950 . S
C1213 C1212 1.327 . S
C1213 C1217 1.429 . S
C1214 C1197 1.574 . S
C1214 H1208 0.949 . S
C1214 C1218 1.368 . S
C1215 C1196 1.429 . S
C1215 C1209 1.429 . S
C1215 C1216 1.523 . S
C1216 C1197 1.368 . S
C1216 C1210 1.368 . S
C1216 C1215 1.523 . S
C1217 C1201 1.429 . S
C1217 C1213 1.429 . S
C1217 C1218 1.523 . S
C1218 C1202 1.368 . S
C1218 C1214 1.368 . S
C1218 C1217 1.523 . S
H1219 C1194 0.950 . S
H1220 C1196 0.950 . S
H1221 C1197 0.949 . S
H1222 C1199 0.950 . S
H1223 C1201 0.950 . S
C1224 C1225 1.349 . S
C1224 C1226 1.327 . S
C1224 H1249 0.950 . S
C1225 C1224 1.349 . S
C1225 C1241 1.349 . S
C1226 C1224 1.327 . S
C1226 C1245 1.429 . S
C1226 H1250 0.950 . S
C1227 C1244 1.574 . S
C1227 C1246 1.368 . S
C1227 H1251 0.949 . S
H1228 C1232 0.949 . S
C1229 C1230 1.349 . S
C1229 C1231 1.327 . S
C1229 H1252 0.950 . S
C1230 C1229 1.349 . S
C1230 C1242 1.349 . S
C1231 C1229 1.327 . S
C1231 C1247 1.429 . S
C1231 H1253 0.950 . S
C1232 H1228 0.949 . S
C1232 C1240 1.574 . S
C1232 C1248 1.368 . S
H1233 C1241 0.950 . S
H1234 C1239 0.950 . S
H1235 C1240 0.949 . S
H1236 C1242 0.950 . S
H1237 C1243 0.950 . S
H1238 C1244 0.949 . S
C1239 H1234 0.950 . S
C1239 C1241 1.327 . S
C1239 C1245 1.429 . S
C1240 C1232 1.574 . S
C1240 H1235 0.949 . S
C1240 C1246 1.368 . S
C1241 C1225 1.349 . S
C1241 H1233 0.950 . S
C1241 C1239 1.327 . S
C1242 C1230 1.349 . S
C1242 H1236 0.950 . S
C1242 C1243 1.327 . S
C1243 H1237 0.950 . S
C1243 C1242 1.327 . S
C1243 C1247 1.429 . S
C1244 C1227 1.574 . S
C1244 H1238 0.949 . S
C1244 C1248 1.368 . S
C1245 C1226 1.429 . S
C1245 C1239 1.429 . S
C1245 C1246 1.523 . S
C1246 C1227 1.368 . S
C1246 C1240 1.368 . S
C1246 C1245 1.523 . S
C1247 C1231 1.429 . S
C1247 C1243 1.429 . S
C1247 C1248 1.523 . S
C1248 C1232 1.368 . S
C1248 C1244 1.368 . S
C1248 C1247 1.523 . S
H1249 C1224 0.950 . S
H1250 C1226 0.950 . S
H1251 C1227 0.949 . S
H1252 C1229 0.950 . S
H1253 C1231 0.950 . S
C1254 C1255 1.349 . S
C1254 C1256 1.327 . S
C1254 H1279 0.950 . S
C1255 C1254 1.349 . S
C1255 C1271 1.349 . S
C1256 C1254 1.327 . S
C1256 C1275 1.429 . S
C1256 H1280 0.950 . S
C1257 C1274 1.574 . S
C1257 C1276 1.368 . S
C1257 H1281 0.949 . S
H1258 C1262 0.949 . S
C1259 C1260 1.349 . S
C1259 C1261 1.327 . S
C1259 H1282 0.950 . S
C1260 C1259 1.349 . S
C1260 C1272 1.349 . S
C1261 C1259 1.327 . S
C1261 C1277 1.429 . S
C1261 H1283 0.950 . S
C1262 H1258 0.949 . S
C1262 C1270 1.574 . S
C1262 C1278 1.368 . S
H1263 C1271 0.950 . S
H1264 C1269 0.950 . S
H1265 C1270 0.949 . S
H1266 C1272 0.950 . S
H1267 C1273 0.950 . S
H1268 C1274 0.949 . S
C1269 H1264 0.950 . S
C1269 C1271 1.327 . S
C1269 C1275 1.429 . S
C1270 C1262 1.574 . S
C1270 H1265 0.949 . S
C1270 C1276 1.368 . S
C1271 C1255 1.349 . S
C1271 H1263 0.950 . S
C1271 C1269 1.327 . S
C1272 C1260 1.349 . S
C1272 H1266 0.950 . S
C1272 C1273 1.327 . S
C1273 H1267 0.950 . S
C1273 C1272 1.327 . S
C1273 C1277 1.429 . S
C1274 C1257 1.574 . S
C1274 H1268 0.949 . S
C1274 C1278 1.368 . S
C1275 C1256 1.429 . S
C1275 C1269 1.429 . S
C1275 C1276 1.523 . S
C1276 C1257 1.368 . S
C1276 C1270 1.368 . S
C1276 C1275 1.523 . S
C1277 C1261 1.429 . S
C1277 C1273 1.429 . S
C1277 C1278 1.523 . S
C1278 C1262 1.368 . S
C1278 C1274 1.368 . S
C1278 C1277 1.523 . S
H1279 C1254 0.950 . S
H1280 C1256 0.950 . S
H1281 C1257 0.949 . S
H1282 C1259 0.950 . S
H1283 C1261 0.950 . S
C1284 C1285 1.349 . S
C1284 C1286 1.327 . S
C1284 H1309 0.950 . S
C1285 C1284 1.349 . S
C1285 C1301 1.349 . S
C1286 C1284 1.327 . S
C1286 C1305 1.429 . S
C1286 H1310 0.950 . S
C1287 C1304 1.574 . S
C1287 C1306 1.368 1_565 S
C1287 H1311 0.949 . S
H1288 C1292 0.949 . S
C1289 C1290 1.349 1_565 S
C1289 C1291 1.327 . S
C1289 H1312 0.950 . S
C1290 C1289 1.349 1_545 S
C1290 C1302 1.349 . S
C1291 C1289 1.327 . S
C1291 C1307 1.429 1_565 S
C1291 H1313 0.950 . S
C1292 H1288 0.949 . S
C1292 C1300 1.574 . S
C1292 C1308 1.368 . S
H1293 C1301 0.950 1_565 S
H1294 C1299 0.950 1_565 S
H1295 C1300 0.949 . S
H1296 C1302 0.950 . S
H1297 C1303 0.950 . S
H1298 C1304 0.949 . S
C1299 H1294 0.950 1_545 S
C1299 C1301 1.327 . S
C1299 C1305 1.429 . S
C1300 C1292 1.574 . S
C1300 H1295 0.949 . S
C1300 C1306 1.368 . S
C1301 C1285 1.349 . S
C1301 H1293 0.950 1_545 S
C1301 C1299 1.327 . S
C1302 C1290 1.349 . S
C1302 H1296 0.950 . S
C1302 C1303 1.327 . S
C1303 H1297 0.950 . S
C1303 C1302 1.327 . S
C1303 C1307 1.429 . S
C1304 C1287 1.574 . S
C1304 H1298 0.949 . S
C1304 C1308 1.368 1_565 S
C1305 C1286 1.429 . S
C1305 C1299 1.429 . S
C1305 C1306 1.523 . S
C1306 C1287 1.368 1_545 S
C1306 C1300 1.368 . S
C1306 C1305 1.523 . S
C1307 C1291 1.429 1_545 S
C1307 C1303 1.429 . S
C1307 C1308 1.523 . S
C1308 C1292 1.368 . S
C1308 C1304 1.368 1_545 S
C1308 C1307 1.523 . S
H1309 C1284 0.950 . S
H1310 C1286 0.950 . S
H1311 C1287 0.949 . S
H1312 C1289 0.950 . S
H1313 C1291 0.950 . S
C1314 C1315 1.349 . S
C1314 C1316 1.327 . S
C1314 H1339 0.950 . S
C1315 C1314 1.349 . S
C1315 C1331 1.349 . S
C1316 C1314 1.327 . S
C1316 C1335 1.429 . S
C1316 H1340 0.950 . S
C1317 C1334 1.574 . S
C1317 C1336 1.368 . S
C1317 H1341 0.949 . S
H1318 C1322 0.949 . S
C1319 C1320 1.349 . S
C1319 C1321 1.327 . S
C1319 H1342 0.950 . S
C1320 C1319 1.349 . S
C1320 C1332 1.349 . S
C1321 C1319 1.327 . S
C1321 C1337 1.429 . S
C1321 H1343 0.950 . S
C1322 H1318 0.949 . S
C1322 C1330 1.574 . S
C1322 C1338 1.368 . S
H1323 C1331 0.950 . S
H1324 C1329 0.950 . S
H1325 C1330 0.949 . S
H1326 C1332 0.950 . S
H1327 C1333 0.950 . S
H1328 C1334 0.949 . S
C1329 H1324 0.950 . S
C1329 C1331 1.327 . S
C1329 C1335 1.429 . S
C1330 C1322 1.574 . S
C1330 H1325 0.949 . S
C1330 C1336 1.368 . S
C1331 C1315 1.349 . S
C1331 H1323 0.950 . S
C1331 C1329 1.327 . S
C1332 C1320 1.349 . S
C1332 H1326 0.950 . S
C1332 C1333 1.327 . S
C1333 H1327 0.950 . S
C1333 C1332 1.327 . S
C1333 C1337 1.429 . S
C1334 C1317 1.574 . S
C1334 H1328 0.949 . S
C1334 C1338 1.368 . S
C1335 C1316 1.429 . S
C1335 C1329 1.429 . S
C1335 C1336 1.523 . S
C1336 C1317 1.368 . S
C1336 C1330 1.368 . S
C1336 C1335 1.523 . S
C1337 C1321 1.429 . S
C1337 C1333 1.429 . S
C1337 C1338 1.523 . S
C1338 C1322 1.368 . S
C1338 C1334 1.368 . S
C1338 C1337 1.523 . S
H1339 C1314 0.950 . S
H1340 C1316 0.950 . S
H1341 C1317 0.949 . S
H1342 C1319 0.950 . S
H1343 C1321 0.950 . S
C1344 C1345 1.349 . S
C1344 C1346 1.327 . S
C1344 H1369 0.950 . S
C1345 C1344 1.349 . S
C1345 C1361 1.349 . S
C1346 C1344 1.327 . S
C1346 C1365 1.429 . S
C1346 H1370 0.950 . S
C1347 C1364 1.574 . S
C1347 C1366 1.368 . S
C1347 H1371 0.949 . S
H1348 C1352 0.949 . S
C1349 C1350 1.349 . S
C1349 C1351 1.327 . S
C1349 H1372 0.950 . S
C1350 C1349 1.349 . S
C1350 C1362 1.349 . S
C1351 C1349 1.327 . S
C1351 C1367 1.429 . S
C1351 H1373 0.950 . S
C1352 H1348 0.949 . S
C1352 C1360 1.574 . S
C1352 C1368 1.368 . S
H1353 C1361 0.950 . S
H1354 C1359 0.950 . S
H1355 C1360 0.949 . S
H1356 C1362 0.932 . S
H1357 C1363 0.950 . S
H1358 C1364 0.949 . S
C1359 H1354 0.950 . S
C1359 C1361 1.327 . S
C1359 C1365 1.429 . S
C1360 C1352 1.574 . S
C1360 H1355 0.949 . S
C1360 C1366 1.368 . S
C1361 C1345 1.349 . S
C1361 H1353 0.950 . S
C1361 C1359 1.327 . S
C1362 C1350 1.349 . S
C1362 H1356 0.932 . S
C1362 C1363 1.327 . S
C1363 H1357 0.950 . S
C1363 C1362 1.327 . S
C1363 C1367 1.429 . S
C1364 C1347 1.574 . S
C1364 H1358 0.949 . S
C1364 C1368 1.368 . S
C1365 C1346 1.429 . S
C1365 C1359 1.429 . S
C1365 C1366 1.523 . S
C1366 C1347 1.368 . S
C1366 C1360 1.368 . S
C1366 C1365 1.523 . S
C1367 C1351 1.429 . S
C1367 C1363 1.429 . S
C1367 C1368 1.523 . S
C1368 C1352 1.368 . S
C1368 C1364 1.368 . S
C1368 C1367 1.523 . S
H1369 C1344 0.950 . S
H1370 C1346 0.950 . S
H1371 C1347 0.949 . S
H1372 C1349 0.950 . S
H1373 C1351 0.950 . S
C1374 C1375 1.349 . S
C1374 C1376 1.327 . S
C1374 H1399 0.950 . S
C1375 C1374 1.349 . S
C1375 C1391 1.349 . S
C1376 C1374 1.327 . S
C1376 C1395 1.429 . S
C1376 H1400 0.950 . S
C1377 C1394 1.574 . S
C1377 C1396 1.368 . S
C1377 H1401 0.949 . S
H1378 C1382 0.949 . S
C1379 C1380 1.349 . S
C1379 C1381 1.327 . S
C1379 H1402 0.950 . S
C1380 C1379 1.349 . S
C1380 C1392 1.349 . S
C1381 C1379 1.327 . S
C1381 C1397 1.429 . S
C1381 H1403 0.950 . S
C1382 H1378 0.949 . S
C1382 C1390 1.574 . S
C1382 C1398 1.368 . S
H1383 C1391 0.950 . S
H1384 C1389 0.950 . S
H1385 C1390 0.949 . S
H1386 C1392 0.950 . S
H1387 C1393 0.950 . S
H1388 C1394 0.949 . S
C1389 H1384 0.950 . S
C1389 C1391 1.327 . S
C1389 C1395 1.429 . S
C1390 C1382 1.574 . S
C1390 H1385 0.949 . S
C1390 C1396 1.368 . S
C1391 C1375 1.349 . S
C1391 H1383 0.950 . S
C1391 C1389 1.327 . S
C1392 C1380 1.349 . S
C1392 H1386 0.950 . S
C1392 C1393 1.327 . S
C1393 H1387 0.950 . S
C1393 C1392 1.327 . S
C1393 C1397 1.429 . S
C1394 C1377 1.574 . S
C1394 H1388 0.949 . S
C1394 C1398 1.368 . S
C1395 C1376 1.429 . S
C1395 C1389 1.429 . S
C1395 C1396 1.523 . S
C1396 C1377 1.368 . S
C1396 C1390 1.368 . S
C1396 C1395 1.523 . S
C1397 C1381 1.429 . S
C1397 C1393 1.429 . S
C1397 C1398 1.523 . S
C1398 C1382 1.368 . S
C1398 C1394 1.368 . S
C1398 C1397 1.523 . S
H1399 C1374 0.950 . S
H1400 C1376 0.950 . S
H1401 C1377 0.949 . S
H1402 C1379 0.950 . S
H1403 C1381 0.950 . S
C1404 C1405 1.349 . S
C1404 C1406 1.327 . S
C1404 H1429 0.950 . S
C1405 C1404 1.349 . S
C1405 C1421 1.349 . S
C1406 C1404 1.327 . S
C1406 C1425 1.429 . S
C1406 H1430 0.950 . S
C1407 C1424 1.574 . S
C1407 C1426 1.368 . S
C1407 H1431 0.949 . S
H1408 C1412 0.949 . S
C1409 C1410 1.349 . S
C1409 C1411 1.327 . S
C1409 H1432 0.950 . S
C1410 C1409 1.349 . S
C1410 C1422 1.349 . S
C1411 C1409 1.327 . S
C1411 C1427 1.429 . S
C1411 H1433 0.950 . S
C1412 H1408 0.949 . S
C1412 C1420 1.574 . S
C1412 C1428 1.368 . S
H1413 C1421 0.950 . S
H1414 C1419 0.950 . S
H1415 C1420 0.949 . S
H1416 C1422 0.950 . S
H1417 C1423 0.950 . S
H1418 C1424 0.949 . S
C1419 H1414 0.950 . S
C1419 C1421 1.327 . S
C1419 C1425 1.429 . S
C1420 C1412 1.574 . S
C1420 H1415 0.949 . S
C1420 C1426 1.368 . S
C1421 C1405 1.349 . S
C1421 H1413 0.950 . S
C1421 C1419 1.327 . S
C1422 C1410 1.349 . S
C1422 H1416 0.950 . S
C1422 C1423 1.327 . S
C1423 H1417 0.950 . S
C1423 C1422 1.327 . S
C1423 C1427 1.429 . S
C1424 C1407 1.574 . S
C1424 H1418 0.949 . S
C1424 C1428 1.368 . S
C1425 C1406 1.429 . S
C1425 C1419 1.429 . S
C1425 C1426 1.523 . S
C1426 C1407 1.368 . S
C1426 C1420 1.368 . S
C1426 C1425 1.523 . S
C1427 C1411 1.429 . S
C1427 C1423 1.429 . S
C1427 C1428 1.523 . S
C1428 C1412 1.368 . S
C1428 C1424 1.368 . S
C1428 C1427 1.523 . S
H1429 C1404 0.950 . S
H1430 C1406 0.950 . S
H1431 C1407 0.949 . S
H1432 C1409 0.950 . S
H1433 C1411 0.950 . S
C1434 C1435 1.349 . S
C1434 C1436 1.327 . S
C1434 H1459 0.950 . S
C1435 C1434 1.349 . S
C1435 C1451 1.349 . S
C1436 C1434 1.327 . S
C1436 C1455 1.429 . S
C1436 H1460 0.950 . S
C1437 C1454 1.574 . S
C1437 C1456 1.368 . S
C1437 H1461 0.949 . S
H1438 C1442 0.949 . S
C1439 C1440 1.349 1_565 S
C1439 C1441 1.327 . S
C1439 H1462 0.950 . S
C1440 C1439 1.349 1_545 S
C1440 C1452 1.349 . S
C1441 C1439 1.327 . S
C1441 C1457 1.429 1_565 S
C1441 H1463 0.950 . S
C1442 H1438 0.949 . S
C1442 C1450 1.574 . S
C1442 C1458 1.368 . S
H1443 C1451 0.950 . S
H1444 C1449 0.950 . S
H1445 C1450 0.949 . S
H1446 C1452 0.950 . S
H1447 C1453 0.950 . S
H1448 C1454 0.949 1_565 S
C1449 H1444 0.950 . S
C1449 C1451 1.327 . S
C1449 C1455 1.429 . S
C1450 C1442 1.574 . S
C1450 H1445 0.949 . S
C1450 C1456 1.368 . S
C1451 C1435 1.349 . S
C1451 H1443 0.950 . S
C1451 C1449 1.327 . S
C1452 C1440 1.349 . S
C1452 H1446 0.950 . S
C1452 C1453 1.327 . S
C1453 H1447 0.950 . S
C1453 C1452 1.327 . S
C1453 C1457 1.429 . S
C1454 C1437 1.574 . S
C1454 H1448 0.949 1_545 S
C1454 C1458 1.368 . S
C1455 C1436 1.429 . S
C1455 C1449 1.429 . S
C1455 C1456 1.523 . S
C1456 C1437 1.368 . S
C1456 C1450 1.368 . S
C1456 C1455 1.523 . S
C1457 C1441 1.429 1_545 S
C1457 C1453 1.429 . S
C1457 C1458 1.523 . S
C1458 C1442 1.368 . S
C1458 C1454 1.368 . S
C1458 C1457 1.523 . S
H1459 C1434 0.950 . S
H1460 C1436 0.950 . S
H1461 C1437 0.949 . S
H1462 C1439 0.950 . S
H1463 C1441 0.950 . S
C1464 C1465 1.349 . S
C1464 C1466 1.327 . S
C1464 H1489 0.950 . S
C1465 C1464 1.349 . S
C1465 C1481 1.349 . S
C1466 C1464 1.327 . S
C1466 C1485 1.429 . S
C1466 H1490 0.950 . S
C1467 C1484 1.574 . S
C1467 C1486 1.368 . S
C1467 H1491 0.949 . S
H1468 C1472 0.949 . S
C1469 C1470 1.349 . S
C1469 C1471 1.327 . S
C1469 H1492 0.950 . S
C1470 C1469 1.349 . S
C1470 C1482 1.349 . S
C1471 C1469 1.327 . S
C1471 C1487 1.429 . S
C1471 H1493 0.950 . S
C1472 H1468 0.949 . S
C1472 C1480 1.574 . S
C1472 C1488 1.368 . S
H1473 C1481 0.950 . S
H1474 C1479 0.950 . S
H1475 C1480 0.949 . S
H1476 C1482 0.950 . S
H1477 C1483 0.950 . S
H1478 C1484 0.949 . S
C1479 H1474 0.950 . S
C1479 C1481 1.327 . S
C1479 C1485 1.429 . S
C1480 C1472 1.574 . S
C1480 H1475 0.949 . S
C1480 C1486 1.368 . S
C1481 C1465 1.349 . S
C1481 H1473 0.950 . S
C1481 C1479 1.327 . S
C1482 C1470 1.349 . S
C1482 H1476 0.950 . S
C1482 C1483 1.327 . S
C1483 H1477 0.950 . S
C1483 C1482 1.327 . S
C1483 C1487 1.429 . S
C1484 C1467 1.574 . S
C1484 H1478 0.949 . S
C1484 C1488 1.368 . S
C1485 C1466 1.429 . S
C1485 C1479 1.429 . S
C1485 C1486 1.523 . S
C1486 C1467 1.368 . S
C1486 C1480 1.368 . S
C1486 C1485 1.523 . S
C1487 C1471 1.429 . S
C1487 C1483 1.429 . S
C1487 C1488 1.523 . S
C1488 C1472 1.368 . S
C1488 C1484 1.368 . S
C1488 C1487 1.523 . S
H1489 C1464 0.950 . S
H1490 C1466 0.950 . S
H1491 C1467 0.949 . S
H1492 C1469 0.950 . S
H1493 C1471 0.950 . S
C1494 C1495 1.349 . S
C1494 C1496 1.327 . S
C1494 H1519 0.950 . S
C1495 C1494 1.349 . S
C1495 C1511 1.349 . S
C1496 C1494 1.327 . S
C1496 C1515 1.429 . S
C1496 H1520 0.950 . S
C1497 C1514 1.574 . S
C1497 C1516 1.368 . S
C1497 H1521 0.949 . S
H1498 C1502 0.949 . S
C1499 C1500 1.349 . S
C1499 C1501 1.327 . S
C1499 H1522 0.950 . S
C1500 C1499 1.349 . S
C1500 C1512 1.349 . S
C1501 C1499 1.327 . S
C1501 C1517 1.429 . S
C1501 H1523 0.950 . S
C1502 H1498 0.949 . S
C1502 C1510 1.574 . S
C1502 C1518 1.368 . S
H1503 C1511 0.950 . S
H1504 C1509 0.950 . S
H1505 C1510 0.949 . S
H1506 C1512 0.950 . S
H1507 C1513 0.950 . S
H1508 C1514 0.949 . S
C1509 H1504 0.950 . S
C1509 C1511 1.327 . S
C1509 C1515 1.429 . S
C1510 C1502 1.574 . S
C1510 H1505 0.949 . S
C1510 C1516 1.368 . S
C1511 C1495 1.349 . S
C1511 H1503 0.950 . S
C1511 C1509 1.327 . S
C1512 C1500 1.349 . S
C1512 H1506 0.950 . S
C1512 C1513 1.327 . S
C1513 H1507 0.950 . S
C1513 C1512 1.327 . S
C1513 C1517 1.429 . S
C1514 C1497 1.574 . S
C1514 H1508 0.949 . S
C1514 C1518 1.368 . S
C1515 C1496 1.429 . S
C1515 C1509 1.429 . S
C1515 C1516 1.523 . S
C1516 C1497 1.368 . S
C1516 C1510 1.368 . S
C1516 C1515 1.523 . S
C1517 C1501 1.429 . S
C1517 C1513 1.429 . S
C1517 C1518 1.523 . S
C1518 C1502 1.368 . S
C1518 C1514 1.368 . S
C1518 C1517 1.523 . S
H1519 C1494 0.950 . S
H1520 C1496 0.950 . S
H1521 C1497 0.949 . S
H1522 C1499 0.950 . S
H1523 C1501 0.950 . S
C1524 C1525 1.349 . S
C1524 C1526 1.327 . S
C1524 H1549 0.950 . S
C1525 C1524 1.349 . S
C1525 C1541 1.349 1_545 S
C1526 C1524 1.327 . S
C1526 C1545 1.429 . S
C1526 H1550 0.950 . S
C1527 C1544 1.574 . S
C1527 C1546 1.368 . S
C1527 H1551 0.949 1_545 S
H1528 C1532 0.949 . S
C1529 C1530 1.349 . S
C1529 C1531 1.327 . S
C1529 H1552 0.950 . S
C1530 C1529 1.349 . S
C1530 C1542 1.349 . S
C1531 C1529 1.327 . S
C1531 C1547 1.429 . S
C1531 H1553 0.950 . S
C1532 H1528 0.949 . S
C1532 C1540 1.574 . S
C1532 C1548 1.368 . S
H1533 C1541 0.950 . S
H1534 C1539 0.950 . S
H1535 C1540 0.949 . S
H1536 C1542 0.950 . S
H1537 C1543 0.950 . S
H1538 C1544 0.949 . S
C1539 H1534 0.950 . S
C1539 C1541 1.327 . S
C1539 C1545 1.429 1_565 S
C1540 C1532 1.574 . S
C1540 H1535 0.949 . S
C1540 C1546 1.368 . S
C1541 C1525 1.349 1_565 S
C1541 H1533 0.950 . S
C1541 C1539 1.327 . S
C1542 C1530 1.349 . S
C1542 H1536 0.950 . S
C1542 C1543 1.327 . S
C1543 H1537 0.950 . S
C1543 C1542 1.327 . S
C1543 C1547 1.429 . S
C1544 C1527 1.574 . S
C1544 H1538 0.949 . S
C1544 C1548 1.368 . S
C1545 C1526 1.429 . S
C1545 C1539 1.429 1_545 S
C1545 C1546 1.523 . S
C1546 C1527 1.368 . S
C1546 C1540 1.368 . S
C1546 C1545 1.523 . S
C1547 C1531 1.429 . S
C1547 C1543 1.429 . S
C1547 C1548 1.523 . S
C1548 C1532 1.368 . S
C1548 C1544 1.368 . S
C1548 C1547 1.523 . S
H1549 C1524 0.950 . S
H1550 C1526 0.950 . S
H1551 C1527 0.949 1_565 S
H1552 C1529 0.950 . S
H1553 C1531 0.950 . S
C1554 C1555 1.349 . S
C1554 C1556 1.327 . S
C1554 H1579 0.950 . S
C1555 C1554 1.349 . S
C1555 C1571 1.349 . S
C1556 C1554 1.327 . S
C1556 C1575 1.429 . S
C1556 H1580 0.950 . S
C1557 C1574 1.574 . S
C1557 C1576 1.368 . S
C1557 H1581 0.949 . S
H1558 C1562 0.949 . S
C1559 C1560 1.349 . S
C1559 C1561 1.327 . S
C1559 H1582 0.950 . S
C1560 C1559 1.349 . S
C1560 C1572 1.349 . S
C1561 C1559 1.327 . S
C1561 C1577 1.429 . S
C1561 H1583 0.950 . S
C1562 H1558 0.949 . S
C1562 C1570 1.574 . S
C1562 C1578 1.368 . S
H1563 C1571 0.950 1_655 S
H1564 C1569 0.950 . S
H1565 C1570 0.949 . S
H1566 C1572 0.950 . S
H1567 C1573 0.950 . S
H1568 C1574 0.949 . S
C1569 H1564 0.950 . S
C1569 C1571 1.327 . S
C1569 C1575 1.429 . S
C1570 C1562 1.574 . S
C1570 H1565 0.949 . S
C1570 C1576 1.368 . S
C1571 C1555 1.349 . S
C1571 H1563 0.950 1_455 S
C1571 C1569 1.327 . S
C1572 C1560 1.349 . S
C1572 H1566 0.950 . S
C1572 C1573 1.327 . S
C1573 H1567 0.950 . S
C1573 C1572 1.327 . S
C1573 C1577 1.429 . S
C1574 C1557 1.574 . S
C1574 H1568 0.949 . S
C1574 C1578 1.368 . S
C1575 C1556 1.429 . S
C1575 C1569 1.429 . S
C1575 C1576 1.523 . S
C1576 C1557 1.368 . S
C1576 C1570 1.368 . S
C1576 C1575 1.523 . S
C1577 C1561 1.429 . S
C1577 C1573 1.429 . S
C1577 C1578 1.523 . S
C1578 C1562 1.368 . S
C1578 C1574 1.368 . S
C1578 C1577 1.523 . S
H1579 C1554 0.950 . S
H1580 C1556 0.950 . S
H1581 C1557 0.949 . S
H1582 C1559 0.950 . S
H1583 C1561 0.950 . S
C1584 C1585 1.349 . S
C1584 C1586 1.327 . S
C1584 H1609 0.950 . S
C1585 C1584 1.349 . S
C1585 C1601 1.349 . S
C1586 C1584 1.327 . S
C1586 C1605 1.429 . S
C1586 H1610 0.950 . S
C1587 C1604 1.574 1_554 S
C1587 C1606 1.368 . S
C1587 H1611 0.934 1_455 S
H1588 C1592 0.949 . S
C1589 C1590 1.349 . S
C1589 C1591 1.327 . S
C1589 H1612 0.950 1_455 S
C1590 C1589 1.349 . S
C1590 C1602 1.349 . S
C1591 C1589 1.327 . S
C1591 C1607 1.429 . S
C1591 H1613 0.950 1_455 S
C1592 H1588 0.949 . S
C1592 C1600 1.574 1_556 S
C1592 C1608 1.368 . S
H1593 C1601 0.950 . S
H1594 C1599 0.959 . S
H1595 C1600 0.949 . S
H1596 C1602 0.950 . S
H1597 C1603 0.950 . S
H1598 C1604 0.949 1_655 S
C1599 H1594 0.959 . S
C1599 C1601 1.327 . S
C1599 C1605 1.429 . S
C1600 C1592 1.574 1_554 S
C1600 H1595 0.949 . S
C1600 C1606 1.368 . S
C1601 C1585 1.349 . S
C1601 H1593 0.950 . S
C1601 C1599 1.327 . S
C1602 C1590 1.349 . S
C1602 H1596 0.950 . S
C1602 C1603 1.327 . S
C1603 H1597 0.950 . S
C1603 C1602 1.327 . S
C1603 C1607 1.429 . S
C1604 C1587 1.574 1_556 S
C1604 H1598 0.949 1_455 S
C1604 C1608 1.368 . S
C1605 C1586 1.429 . S
C1605 C1599 1.429 . S
C1605 C1606 1.523 . S
C1606 C1587 1.368 . S
C1606 C1600 1.368 . S
C1606 C1605 1.523 . S
C1607 C1591 1.429 . S
C1607 C1603 1.429 . S
C1607 C1608 1.523 . S
C1608 C1592 1.368 . S
C1608 C1604 1.368 . S
C1608 C1607 1.523 . S
H1609 C1584 0.950 . S
H1610 C1586 0.950 . S
H1611 C1587 0.934 1_655 S
H1612 C1589 0.950 1_655 S
H1613 C1591 0.950 1_655 S
C1614 C1615 1.349 . S
C1614 C1616 1.327 . S
C1614 H1639 0.950 . S
C1615 C1614 1.349 . S
C1615 C1631 1.349 . S
C1616 C1614 1.327 . S
C1616 C1635 1.429 . S
C1616 H1640 0.950 . S
C1617 C1634 1.574 1_556 S
C1617 C1636 1.368 . S
C1617 H1641 0.949 . S
H1618 C1622 0.949 . S
C1619 C1620 1.349 . S
C1619 C1621 1.327 . S
C1619 H1642 0.950 . S
C1620 C1619 1.349 . S
C1620 C1632 1.349 . S
C1621 C1619 1.327 . S
C1621 C1637 1.429 . S
C1621 H1643 0.950 . S
C1622 H1618 0.949 . S
C1622 C1630 1.574 1_554 S
C1622 C1638 1.368 . S
H1623 C1631 0.950 . S
H1624 C1629 0.950 . S
H1625 C1630 0.949 . S
H1626 C1632 0.950 . S
H1627 C1633 0.950 . S
H1628 C1634 0.949 . S
C1629 H1624 0.950 . S
C1629 C1631 1.327 . S
C1629 C1635 1.429 . S
C1630 C1622 1.574 1_556 S
C1630 H1625 0.949 . S
C1630 C1636 1.368 . S
C1631 C1615 1.349 . S
C1631 H1623 0.950 . S
C1631 C1629 1.327 . S
C1632 C1620 1.349 . S
C1632 H1626 0.950 . S
C1632 C1633 1.327 . S
C1633 H1627 0.950 . S
C1633 C1632 1.327 . S
C1633 C1637 1.429 . S
C1634 C1617 1.574 1_554 S
C1634 H1628 0.949 . S
C1634 C1638 1.368 . S
C1635 C1616 1.429 . S
C1635 C1629 1.429 . S
C1635 C1636 1.523 . S
C1636 C1617 1.368 . S
C1636 C1630 1.368 . S
C1636 C1635 1.523 . S
C1637 C1621 1.429 . S
C1637 C1633 1.429 . S
C1637 C1638 1.523 . S
C1638 C1622 1.368 . S
C1638 C1634 1.368 . S
C1638 C1637 1.523 . S
H1639 C1614 0.950 . S
H1640 C1616 0.950 . S
H1641 C1617 0.949 . S
H1642 C1619 0.950 . S
H1643 C1621 0.950 . S
C1644 C1645 1.349 . S
C1644 C1646 1.327 . S
C1644 H1669 0.950 . S
C1645 C1644 1.349 . S
C1645 C1661 1.349 . S
C1646 C1644 1.327 . S
C1646 C1665 1.429 . S
C1646 H1670 0.950 . S
C1647 C1664 1.574 1_556 S
C1647 C1666 1.368 . S
C1647 H1671 0.949 . S
H1648 C1652 0.949 . S
C1649 C1650 1.349 . S
C1649 C1651 1.327 . S
C1649 H1672 0.991 . S
C1650 C1649 1.349 . S
C1650 C1662 1.349 . S
C1651 C1649 1.327 . S
C1651 C1667 1.429 . S
C1651 H1673 1.001 . S
C1652 H1648 0.949 . S
C1652 C1660 1.574 1_554 S
C1652 C1668 1.368 . S
H1653 C1661 0.950 . S
H1654 C1659 0.950 . S
H1655 C1660 0.949 . S
H1656 C1662 0.950 . S
H1657 C1663 0.950 . S
H1658 C1664 0.949 . S
C1659 H1654 0.950 . S
C1659 C1661 1.327 . S
C1659 C1665 1.429 . S
C1660 C1652 1.574 1_556 S
C1660 H1655 0.949 . S
C1660 C1666 1.368 . S
C1661 C1645 1.349 . S
C1661 H1653 0.950 . S
C1661 C1659 1.327 . S
C1662 C1650 1.349 . S
C1662 H1656 0.950 . S
C1662 C1663 1.327 . S
C1663 H1657 0.950 . S
C1663 C1662 1.327 . S
C1663 C1667 1.429 . S
C1664 C1647 1.574 1_554 S
C1664 H1658 0.949 . S
C1664 C1668 1.368 . S
C1665 C1646 1.429 . S
C1665 C1659 1.429 . S
C1665 C1666 1.523 . S
C1666 C1647 1.368 . S
C1666 C1660 1.368 . S
C1666 C1665 1.523 . S
C1667 C1651 1.429 . S
C1667 C1663 1.429 . S
C1667 C1668 1.523 . S
C1668 C1652 1.368 . S
C1668 C1664 1.368 . S
C1668 C1667 1.523 . S
H1669 C1644 0.950 . S
H1670 C1646 0.950 . S
H1671 C1647 0.949 . S
H1672 C1649 0.991 . S
H1673 C1651 1.001 . S
C1674 C1675 1.349 . S
C1674 C1676 1.327 . S
C1674 H1699 0.950 . S
C1675 C1674 1.349 . S
C1675 C1691 1.349 . S
C1676 C1674 1.327 . S
C1676 C1695 1.429 . S
C1676 H1700 0.950 . S
C1677 C1694 1.574 1_556 S
C1677 C1696 1.368 . S
C1677 H1701 0.949 . S
H1678 C1682 0.949 . S
C1679 C1680 1.349 . S
C1679 C1681 1.327 . S
C1679 H1702 0.950 . S
C1680 C1679 1.349 . S
C1680 C1692 1.349 . S
C1681 C1679 1.327 . S
C1681 C1697 1.429 . S
C1681 H1703 0.950 . S
C1682 H1678 0.949 . S
C1682 C1690 1.574 1_554 S
C1682 C1698 1.368 . S
H1683 C1691 0.950 . S
H1684 C1689 0.950 . S
H1685 C1690 0.949 . S
H1686 C1692 0.950 . S
H1687 C1693 0.950 . S
H1688 C1694 0.949 . S
C1689 H1684 0.950 . S
C1689 C1691 1.327 . S
C1689 C1695 1.429 . S
C1690 C1682 1.574 1_556 S
C1690 H1685 0.949 . S
C1690 C1696 1.368 . S
C1691 C1675 1.349 . S
C1691 H1683 0.950 . S
C1691 C1689 1.327 . S
C1692 C1680 1.349 . S
C1692 H1686 0.950 . S
C1692 C1693 1.327 . S
C1693 H1687 0.950 . S
C1693 C1692 1.327 . S
C1693 C1697 1.429 . S
C1694 C1677 1.574 1_554 S
C1694 H1688 0.949 . S
C1694 C1698 1.368 . S
C1695 C1676 1.429 . S
C1695 C1689 1.429 . S
C1695 C1696 1.523 . S
C1696 C1677 1.368 . S
C1696 C1690 1.368 . S
C1696 C1695 1.523 . S
C1697 C1681 1.429 . S
C1697 C1693 1.429 . S
C1697 C1698 1.523 . S
C1698 C1682 1.368 . S
C1698 C1694 1.368 . S
C1698 C1697 1.523 . S
H1699 C1674 0.950 . S
H1700 C1676 0.950 . S
H1701 C1677 0.949 . S
H1702 C1679 0.950 . S
H1703 C1681 0.950 . S
C1704 C1705 1.349 . S
C1704 C1706 1.327 . S
C1704 H1729 0.950 . S
C1705 C1704 1.349 . S
C1705 C1721 1.349 . S
C1706 C1704 1.327 . S
C1706 C1725 1.429 . S
C1706 H1730 0.950 . S
C1707 C1724 1.574 1_554 S
C1707 C1726 1.368 . S
C1707 H1731 0.949 . S
H1708 C1712 0.949 . S
C1709 C1710 1.349 . S
C1709 C1711 1.327 . S
C1709 H1732 0.950 . S
C1710 C1709 1.349 . S
C1710 C1722 1.349 . S
C1711 C1709 1.327 . S
C1711 C1727 1.429 . S
C1711 H1733 0.950 . S
C1712 H1708 0.949 . S
C1712 C1720 1.574 1_556 S
C1712 C1728 1.368 . S
H1713 C1721 0.950 . S
H1714 C1719 0.950 . S
H1715 C1720 0.949 . S
H1716 C1722 0.950 . S
H1717 C1723 0.950 . S
H1718 C1724 0.949 . S
C1719 H1714 0.950 . S
C1719 C1721 1.327 . S
C1719 C1725 1.429 . S
C1720 C1712 1.574 1_554 S
C1720 H1715 0.949 . S
C1720 C1726 1.368 . S
C1721 C1705 1.349 . S
C1721 H1713 0.950 . S
C1721 C1719 1.327 . S
C1722 C1710 1.349 . S
C1722 H1716 0.950 . S
C1722 C1723 1.327 . S
C1723 H1717 0.950 . S
C1723 C1722 1.327 . S
C1723 C1727 1.429 . S
C1724 C1707 1.574 1_556 S
C1724 H1718 0.949 . S
C1724 C1728 1.368 . S
C1725 C1706 1.429 . S
C1725 C1719 1.429 . S
C1725 C1726 1.523 . S
C1726 C1707 1.368 . S
C1726 C1720 1.368 . S
C1726 C1725 1.523 . S
C1727 C1711 1.429 . S
C1727 C1723 1.429 . S
C1727 C1728 1.523 . S
C1728 C1712 1.368 . S
C1728 C1724 1.368 . S
C1728 C1727 1.523 . S
H1729 C1704 0.950 . S
H1730 C1706 0.950 . S
H1731 C1707 0.949 . S
H1732 C1709 0.950 . S
H1733 C1711 0.950 . S
C1734 C1735 1.349 . S
C1734 C1736 1.327 . S
C1734 H1759 0.950 . S
C1735 C1734 1.349 . S
C1735 C1751 1.349 . S
C1736 C1734 1.327 . S
C1736 C1755 1.429 . S
C1736 H1760 0.950 . S
C1737 C1754 1.574 1_556 S
C1737 C1756 1.368 . S
C1737 H1761 0.949 . S
H1738 C1742 0.949 . S
C1739 C1740 1.349 . S
C1739 C1741 1.327 . S
C1739 H1762 0.950 . S
C1740 C1739 1.349 . S
C1740 C1752 1.349 . S
C1741 C1739 1.327 . S
C1741 C1757 1.429 . S
C1741 H1763 0.950 . S
C1742 H1738 0.949 . S
C1742 C1750 1.574 1_554 S
C1742 C1758 1.368 . S
H1743 C1751 0.950 . S
H1744 C1749 0.950 . S
H1745 C1750 0.949 . S
H1746 C1752 1.002 . S
H1747 C1753 0.950 . S
H1748 C1754 0.949 . S
C1749 H1744 0.950 . S
C1749 C1751 1.327 . S
C1749 C1755 1.429 . S
C1750 C1742 1.574 1_556 S
C1750 H1745 0.949 . S
C1750 C1756 1.368 . S
C1751 C1735 1.349 . S
C1751 H1743 0.950 . S
C1751 C1749 1.327 . S
C1752 C1740 1.349 . S
C1752 H1746 1.002 . S
C1752 C1753 1.327 . S
C1753 H1747 0.950 . S
C1753 C1752 1.327 . S
C1753 C1757 1.429 . S
C1754 C1737 1.574 1_554 S
C1754 H1748 0.949 . S
C1754 C1758 1.368 . S
C1755 C1736 1.429 . S
C1755 C1749 1.429 . S
C1755 C1756 1.523 . S
C1756 C1737 1.368 . S
C1756 C1750 1.368 . S
C1756 C1755 1.523 . S
C1757 C1741 1.429 . S
C1757 C1753 1.429 . S
C1757 C1758 1.523 . S
C1758 C1742 1.368 . S
C1758 C1754 1.368 . S
C1758 C1757 1.523 . S
H1759 C1734 0.950 . S
H1760 C1736 0.950 . S
H1761 C1737 0.949 . S
H1762 C1739 0.950 . S
H1763 C1741 0.950 . S
C1764 C1765 1.349 . S
C1764 C1766 1.327 . S
C1764 H1789 0.950 . S
C1765 C1764 1.349 . S
C1765 C1781 1.349 . S
C1766 C1764 1.327 . S
C1766 C1785 1.429 . S
C1766 H1790 0.950 . S
C1767 C1784 1.574 . S
C1767 C1786 1.368 . S
C1767 H1791 0.949 . S
H1768 C1772 0.949 . S
C1769 C1770 1.349 . S
C1769 C1771 1.327 . S
C1769 H1792 0.950 . S
C1770 C1769 1.349 . S
C1770 C1782 1.349 . S
C1771 C1769 1.327 . S
C1771 C1787 1.429 . S
C1771 H1793 0.950 . S
C1772 H1768 0.949 . S
C1772 C1780 1.574 . S
C1772 C1788 1.368 . S
H1773 C1781 0.950 . S
H1774 C1779 0.950 . S
H1775 C1780 0.949 . S
H1776 C1782 0.950 . S
H1777 C1783 0.950 . S
H1778 C1784 0.949 . S
C1779 H1774 0.950 . S
C1779 C1781 1.327 . S
C1779 C1785 1.429 . S
C1780 C1772 1.574 . S
C1780 H1775 0.949 . S
C1780 C1786 1.368 . S
C1781 C1765 1.349 . S
C1781 H1773 0.950 . S
C1781 C1779 1.327 . S
C1782 C1770 1.349 . S
C1782 H1776 0.950 . S
C1782 C1783 1.327 . S
C1783 H1777 0.950 . S
C1783 C1782 1.327 . S
C1783 C1787 1.429 . S
C1784 C1767 1.574 . S
C1784 H1778 0.949 . S
C1784 C1788 1.368 . S
C1785 C1766 1.429 . S
C1785 C1779 1.429 . S
C1785 C1786 1.523 . S
C1786 C1767 1.368 . S
C1786 C1780 1.368 . S
C1786 C1785 1.523 . S
C1787 C1771 1.429 . S
C1787 C1783 1.429 . S
C1787 C1788 1.523 . S
C1788 C1772 1.368 . S
C1788 C1784 1.368 . S
C1788 C1787 1.523 . S
H1789 C1764 0.950 . S
H1790 C1766 0.950 . S
H1791 C1767 0.949 . S
H1792 C1769 0.950 . S
H1793 C1771 0.950 . S
C1794 C1795 1.349 . S
C1794 C1796 1.327 . S
C1794 H1819 0.950 . S
C1795 C1794 1.349 . S
C1795 C1811 1.349 . S
C1796 C1794 1.327 . S
C1796 C1815 1.429 . S
C1796 H1820 0.950 . S
C1797 C1814 1.574 . S
C1797 C1816 1.368 . S
C1797 H1821 0.949 . S
H1798 C1802 0.949 . S
C1799 C1800 1.349 . S
C1799 C1801 1.327 . S
C1799 H1822 0.950 . S
C1800 C1799 1.349 . S
C1800 C1812 1.349 . S
C1801 C1799 1.327 . S
C1801 C1817 1.429 . S
C1801 H1823 0.950 . S
C1802 H1798 0.949 . S
C1802 C1810 1.574 . S
C1802 C1818 1.368 . S
H1803 C1811 0.950 . S
H1804 C1809 0.950 . S
H1805 C1810 0.949 . S
H1806 C1812 0.950 . S
H1807 C1813 0.950 . S
H1808 C1814 0.949 . S
C1809 H1804 0.950 . S
C1809 C1811 1.327 . S
C1809 C1815 1.429 . S
C1810 C1802 1.574 . S
C1810 H1805 0.949 . S
C1810 C1816 1.368 . S
C1811 C1795 1.349 . S
C1811 H1803 0.950 . S
C1811 C1809 1.327 . S
C1812 C1800 1.349 . S
C1812 H1806 0.950 . S
C1812 C1813 1.327 . S
C1813 H1807 0.950 . S
C1813 C1812 1.327 . S
C1813 C1817 1.429 . S
C1814 C1797 1.574 . S
C1814 H1808 0.949 . S
C1814 C1818 1.368 . S
C1815 C1796 1.429 . S
C1815 C1809 1.429 . S
C1815 C1816 1.523 . S
C1816 C1797 1.368 . S
C1816 C1810 1.368 . S
C1816 C1815 1.523 . S
C1817 C1801 1.429 . S
C1817 C1813 1.429 . S
C1817 C1818 1.523 . S
C1818 C1802 1.368 . S
C1818 C1814 1.368 . S
C1818 C1817 1.523 . S
H1819 C1794 0.950 . S
H1820 C1796 0.950 . S
H1821 C1797 0.949 . S
H1822 C1799 0.950 . S
H1823 C1801 0.950 . S
C1824 C1825 1.349 1_455 S
C1824 C1826 1.327 . S
C1824 H1849 0.950 . S
C1825 C1824 1.349 1_655 S
C1825 C1841 1.349 . S
C1826 C1824 1.327 . S
C1826 C1845 1.429 1_455 S
C1826 H1850 0.950 . S
C1827 C1844 1.574 . S
C1827 C1846 1.368 . S
C1827 H1851 0.949 . S
H1828 C1832 0.949 . S
C1829 C1830 1.349 . S
C1829 C1831 1.327 . S
C1829 H1852 0.950 . S
C1830 C1829 1.349 . S
C1830 C1842 1.349 1_655 S
C1831 C1829 1.327 . S
C1831 C1847 1.429 . S
C1831 H1853 0.950 . S
C1832 H1828 0.949 . S
C1832 C1840 1.574 . S
C1832 C1848 1.368 1_455 S
H1833 C1841 0.950 . S
H1834 C1839 0.950 . S
H1835 C1840 0.949 . S
H1836 C1842 0.950 . S
H1837 C1843 0.950 . S
H1838 C1844 0.949 . S
C1839 H1834 0.950 . S
C1839 C1841 1.327 . S
C1839 C1845 1.429 . S
C1840 C1832 1.574 . S
C1840 H1835 0.949 . S
C1840 C1846 1.368 1_455 S
C1841 C1825 1.349 . S
C1841 H1833 0.950 . S
C1841 C1839 1.327 . S
C1842 C1830 1.349 1_455 S
C1842 H1836 0.950 . S
C1842 C1843 1.327 . S
C1843 H1837 0.950 . S
C1843 C1842 1.327 . S
C1843 C1847 1.429 1_455 S
C1844 C1827 1.574 . S
C1844 H1838 0.949 . S
C1844 C1848 1.368 . S
C1845 C1826 1.429 1_655 S
C1845 C1839 1.429 . S
C1845 C1846 1.523 . S
C1846 C1827 1.368 . S
C1846 C1840 1.368 1_655 S
C1846 C1845 1.523 . S
C1847 C1831 1.429 . S
C1847 C1843 1.429 1_655 S
C1847 C1848 1.523 . S
C1848 C1832 1.368 1_655 S
C1848 C1844 1.368 . S
C1848 C1847 1.523 . S
H1849 C1824 0.950 . S
H1850 C1826 0.950 . S
H1851 C1827 0.949 . S
H1852 C1829 0.950 . S
H1853 C1831 0.950 . S
C1854 C1855 1.349 . S
C1854 C1856 1.327 . S
C1854 H1879 0.950 . S
C1855 C1854 1.349 . S
C1855 C1871 1.349 . S
C1856 C1854 1.327 . S
C1856 C1875 1.429 . S
C1856 H1880 0.950 . S
C1857 C1874 1.574 . S
C1857 C1876 1.368 . S
C1857 H1881 0.949 . S
H1858 C1862 0.949 . S
C1859 C1860 1.349 . S
C1859 C1861 1.327 . S
C1859 H1882 0.950 . S
C1860 C1859 1.349 . S
C1860 C1872 1.349 . S
C1861 C1859 1.327 . S
C1861 C1877 1.429 . S
C1861 H1883 0.950 . S
C1862 H1858 0.949 . S
C1862 C1870 1.574 . S
C1862 C1878 1.368 . S
H1863 C1871 0.950 . S
H1864 C1869 0.950 . S
H1865 C1870 0.949 . S
H1866 C1872 0.950 . S
H1867 C1873 0.950 . S
H1868 C1874 0.949 . S
C1869 H1864 0.950 . S
C1869 C1871 1.327 . S
C1869 C1875 1.429 . S
C1870 C1862 1.574 . S
C1870 H1865 0.949 . S
C1870 C1876 1.368 . S
C1871 C1855 1.349 . S
C1871 H1863 0.950 . S
C1871 C1869 1.327 . S
C1872 C1860 1.349 . S
C1872 H1866 0.950 . S
C1872 C1873 1.327 . S
C1873 H1867 0.950 . S
C1873 C1872 1.327 . S
C1873 C1877 1.429 . S
C1874 C1857 1.574 . S
C1874 H1868 0.949 . S
C1874 C1878 1.368 . S
C1875 C1856 1.429 . S
C1875 C1869 1.429 . S
C1875 C1876 1.523 . S
C1876 C1857 1.368 . S
C1876 C1870 1.368 . S
C1876 C1875 1.523 . S
C1877 C1861 1.429 . S
C1877 C1873 1.429 . S
C1877 C1878 1.523 . S
C1878 C1862 1.368 . S
C1878 C1874 1.368 . S
C1878 C1877 1.523 . S
H1879 C1854 0.950 . S
H1880 C1856 0.950 . S
H1881 C1857 0.949 . S
H1882 C1859 0.950 . S
H1883 C1861 0.950 . S
C1884 C1885 1.349 1_455 S
C1884 C1886 1.327 . S
C1884 H1909 0.950 . S
C1885 C1884 1.349 1_655 S
C1885 C1901 1.349 . S
C1886 C1884 1.327 . S
C1886 C1905 1.429 1_455 S
C1886 H1910 0.950 . S
C1887 C1904 1.574 . S
C1887 C1906 1.368 . S
C1887 H1911 0.949 . S
H1888 C1892 0.949 . S
C1889 C1890 1.349 . S
C1889 C1891 1.327 . S
C1889 H1912 0.950 . S
C1890 C1889 1.349 . S
C1890 C1902 1.349 1_655 S
C1891 C1889 1.327 . S
C1891 C1907 1.429 . S
C1891 H1913 0.950 . S
C1892 H1888 0.949 . S
C1892 C1900 1.574 . S
C1892 C1908 1.368 1_455 S
H1893 C1901 0.950 . S
H1894 C1899 0.950 . S
H1895 C1900 0.949 . S
H1896 C1902 0.950 . S
H1897 C1903 0.950 . S
H1898 C1904 0.949 . S
C1899 H1894 0.950 . S
C1899 C1901 1.327 . S
C1899 C1905 1.429 . S
C1900 C1892 1.574 . S
C1900 H1895 0.949 . S
C1900 C1906 1.368 1_455 S
C1901 C1885 1.349 . S
C1901 H1893 0.950 . S
C1901 C1899 1.327 . S
C1902 C1890 1.349 1_455 S
C1902 H1896 0.950 . S
C1902 C1903 1.327 . S
C1903 H1897 0.950 . S
C1903 C1902 1.327 . S
C1903 C1907 1.429 1_455 S
C1904 C1887 1.574 . S
C1904 H1898 0.949 . S
C1904 C1908 1.368 . S
C1905 C1886 1.429 1_655 S
C1905 C1899 1.429 . S
C1905 C1906 1.523 . S
C1906 C1887 1.368 . S
C1906 C1900 1.368 1_655 S
C1906 C1905 1.523 . S
C1907 C1891 1.429 . S
C1907 C1903 1.429 1_655 S
C1907 C1908 1.523 . S
C1908 C1892 1.368 1_655 S
C1908 C1904 1.368 . S
C1908 C1907 1.523 . S
H1909 C1884 0.950 . S
H1910 C1886 0.950 . S
H1911 C1887 0.949 . S
H1912 C1889 0.950 . S
H1913 C1891 0.950 . S
C1914 C1915 1.349 . S
C1914 C1916 1.327 . S
C1914 H1939 0.950 . S
C1915 C1914 1.349 . S
C1915 C1931 1.349 . S
C1916 C1914 1.327 . S
C1916 C1935 1.429 . S
C1916 H1940 0.950 . S
C1917 C1934 1.574 . S
C1917 C1936 1.368 . S
C1917 H1941 0.949 . S
H1918 C1922 0.949 . S
C1919 C1920 1.349 . S
C1919 C1921 1.327 . S
C1919 H1942 0.950 . S
C1920 C1919 1.349 . S
C1920 C1932 1.349 . S
C1921 C1919 1.327 . S
C1921 C1937 1.429 . S
C1921 H1943 0.950 . S
C1922 H1918 0.949 . S
C1922 C1930 1.574 . S
C1922 C1938 1.368 . S
H1923 C1931 0.950 . S
H1924 C1929 0.950 . S
H1925 C1930 0.949 . S
H1926 C1932 0.950 . S
H1927 C1933 0.950 . S
H1928 C1934 0.949 . S
C1929 H1924 0.950 . S
C1929 C1931 1.327 . S
C1929 C1935 1.429 . S
C1930 C1922 1.574 . S
C1930 H1925 0.949 . S
C1930 C1936 1.368 . S
C1931 C1915 1.349 . S
C1931 H1923 0.950 . S
C1931 C1929 1.327 . S
C1932 C1920 1.349 . S
C1932 H1926 0.950 . S
C1932 C1933 1.327 . S
C1933 H1927 0.950 . S
C1933 C1932 1.327 . S
C1933 C1937 1.429 . S
C1934 C1917 1.574 . S
C1934 H1928 0.949 . S
C1934 C1938 1.368 . S
C1935 C1916 1.429 . S
C1935 C1929 1.429 . S
C1935 C1936 1.523 . S
C1936 C1917 1.368 . S
C1936 C1930 1.368 . S
C1936 C1935 1.523 . S
C1937 C1921 1.429 . S
C1937 C1933 1.429 . S
C1937 C1938 1.523 . S
C1938 C1922 1.368 . S
C1938 C1934 1.368 . S
C1938 C1937 1.523 . S
H1939 C1914 0.950 . S
H1940 C1916 0.950 . S
H1941 C1917 0.949 . S
H1942 C1919 0.950 . S
H1943 C1921 0.950 . S
C1944 C1945 1.349 1_545 S
C1944 C1946 1.327 . S
C1944 H1969 0.950 . S
C1945 C1944 1.349 1_565 S
C1945 C1961 1.349 . S
C1946 C1944 1.327 . S
C1946 C1965 1.429 1_545 S
C1946 H1970 0.950 . S
C1947 C1964 1.574 . S
C1947 C1966 1.368 . S
C1947 H1971 0.949 . S
H1948 C1952 0.949 . S
C1949 C1950 1.349 . S
C1949 C1951 1.327 . S
C1949 H1972 0.950 . S
C1950 C1949 1.349 . S
C1950 C1962 1.349 1_565 S
C1951 C1949 1.327 . S
C1951 C1967 1.429 . S
C1951 H1973 0.950 . S
C1952 H1948 0.949 . S
C1952 C1960 1.574 . S
C1952 C1968 1.368 1_545 S
H1953 C1961 0.950 . S
H1954 C1959 0.950 . S
H1955 C1960 0.949 . S
H1956 C1962 0.950 . S
H1957 C1963 0.950 . S
H1958 C1964 0.949 . S
C1959 H1954 0.950 . S
C1959 C1961 1.327 . S
C1959 C1965 1.429 . S
C1960 C1952 1.574 . S
C1960 H1955 0.949 . S
C1960 C1966 1.368 1_545 S
C1961 C1945 1.349 . S
C1961 H1953 0.950 . S
C1961 C1959 1.327 . S
C1962 C1950 1.349 1_545 S
C1962 H1956 0.950 . S
C1962 C1963 1.327 . S
C1963 H1957 0.950 . S
C1963 C1962 1.327 . S
C1963 C1967 1.429 1_545 S
C1964 C1947 1.574 . S
C1964 H1958 0.949 . S
C1964 C1968 1.368 . S
C1965 C1946 1.429 1_565 S
C1965 C1959 1.429 . S
C1965 C1966 1.523 . S
C1966 C1947 1.368 . S
C1966 C1960 1.368 1_565 S
C1966 C1965 1.523 . S
C1967 C1951 1.429 . S
C1967 C1963 1.429 1_565 S
C1967 C1968 1.523 . S
C1968 C1952 1.368 1_565 S
C1968 C1964 1.368 . S
C1968 C1967 1.523 . S
H1969 C1944 0.950 . S
H1970 C1946 0.950 . S
H1971 C1947 0.949 . S
H1972 C1949 0.950 . S
H1973 C1951 0.950 . S
C1974 C1975 1.349 . S
C1974 C1976 1.327 . S
C1974 H1999 0.950 . S
C1975 C1974 1.349 . S
C1975 C1991 1.349 . S
C1976 C1974 1.327 . S
C1976 C1995 1.429 . S
C1976 H2000 0.950 . S
C1977 C1994 1.574 . S
C1977 C1996 1.368 . S
C1977 H2001 0.949 . S
H1978 C1982 0.949 . S
C1979 C1980 1.349 . S
C1979 C1981 1.327 . S
C1979 H2002 0.950 . S
C1980 C1979 1.349 . S
C1980 C1992 1.349 . S
C1981 C1979 1.327 . S
C1981 C1997 1.429 . S
C1981 H2003 0.950 . S
C1982 H1978 0.949 . S
C1982 C1990 1.574 . S
C1982 C1998 1.368 . S
H1983 C1991 0.950 . S
H1984 C1989 0.950 . S
H1985 C1990 0.949 . S
H1986 C1992 0.950 . S
H1987 C1993 0.950 . S
H1988 C1994 0.949 . S
C1989 H1984 0.950 . S
C1989 C1991 1.327 . S
C1989 C1995 1.429 . S
C1990 C1982 1.574 . S
C1990 H1985 0.949 . S
C1990 C1996 1.368 . S
C1991 C1975 1.349 . S
C1991 H1983 0.950 . S
C1991 C1989 1.327 . S
C1992 C1980 1.349 . S
C1992 H1986 0.950 . S
C1992 C1993 1.327 . S
C1993 H1987 0.950 . S
C1993 C1992 1.327 . S
C1993 C1997 1.429 . S
C1994 C1977 1.574 . S
C1994 H1988 0.949 . S
C1994 C1998 1.368 . S
C1995 C1976 1.429 . S
C1995 C1989 1.429 . S
C1995 C1996 1.523 . S
C1996 C1977 1.368 . S
C1996 C1990 1.368 . S
C1996 C1995 1.523 . S
C1997 C1981 1.429 . S
C1997 C1993 1.429 . S
C1997 C1998 1.523 . S
C1998 C1982 1.368 . S
C1998 C1994 1.368 . S
C1998 C1997 1.523 . S
H1999 C1974 0.950 . S
H2000 C1976 0.950 . S
H2001 C1977 0.949 . S
H2002 C1979 0.950 . S
H2003 C1981 0.950 . S
C2004 C2005 1.349 . S
C2004 C2006 1.327 . S
C2004 H2029 0.950 . S
C2005 C2004 1.349 . S
C2005 C2021 1.349 . S
C2006 C2004 1.327 . S
C2006 C2025 1.429 . S
C2006 H2030 0.950 . S
C2007 C2024 1.574 . S
C2007 C2026 1.368 . S
C2007 H2031 0.949 . S
H2008 C2012 0.949 . S
C2009 C2010 1.349 . S
C2009 C2011 1.327 . S
C2009 H2032 0.950 . S
C2010 C2009 1.349 . S
C2010 C2022 1.349 . S
C2011 C2009 1.327 . S
C2011 C2027 1.429 . S
C2011 H2033 0.950 . S
C2012 H2008 0.949 . S
C2012 C2020 1.574 . S
C2012 C2028 1.368 . S
H2013 C2021 0.950 . S
H2014 C2019 0.950 . S
H2015 C2020 0.949 . S
H2016 C2022 0.950 . S
H2017 C2023 0.950 . S
H2018 C2024 0.949 . S
C2019 H2014 0.950 . S
C2019 C2021 1.327 . S
C2019 C2025 1.429 . S
C2020 C2012 1.574 . S
C2020 H2015 0.949 . S
C2020 C2026 1.368 . S
C2021 C2005 1.349 . S
C2021 H2013 0.950 . S
C2021 C2019 1.327 . S
C2022 C2010 1.349 . S
C2022 H2016 0.950 . S
C2022 C2023 1.327 . S
C2023 H2017 0.950 . S
C2023 C2022 1.327 . S
C2023 C2027 1.429 . S
C2024 C2007 1.574 . S
C2024 H2018 0.949 . S
C2024 C2028 1.368 . S
C2025 C2006 1.429 . S
C2025 C2019 1.429 . S
C2025 C2026 1.523 . S
C2026 C2007 1.368 . S
C2026 C2020 1.368 . S
C2026 C2025 1.523 . S
C2027 C2011 1.429 . S
C2027 C2023 1.429 . S
C2027 C2028 1.523 . S
C2028 C2012 1.368 . S
C2028 C2024 1.368 . S
C2028 C2027 1.523 . S
H2029 C2004 0.950 . S
H2030 C2006 0.950 . S
H2031 C2007 0.949 . S
H2032 C2009 0.950 . S
H2033 C2011 0.950 . S
C2034 C2035 1.349 . S
C2034 C2036 1.327 . S
C2034 H2059 0.950 . S
C2035 C2034 1.349 . S
C2035 C2051 1.349 . S
C2036 C2034 1.327 . S
C2036 C2055 1.429 . S
C2036 H2060 0.950 . S
C2037 C2054 1.574 . S
C2037 C2056 1.368 . S
C2037 H2061 0.949 . S
H2038 C2042 0.949 . S
C2039 C2040 1.349 . S
C2039 C2041 1.327 . S
C2039 H2062 0.950 . S
C2040 C2039 1.349 . S
C2040 C2052 1.349 . S
C2041 C2039 1.327 . S
C2041 C2057 1.429 . S
C2041 H2063 0.950 . S
C2042 H2038 0.949 . S
C2042 C2050 1.574 . S
C2042 C2058 1.368 . S
H2043 C2051 0.950 . S
H2044 C2049 0.950 . S
H2045 C2050 0.949 . S
H2046 C2052 0.950 . S
H2047 C2053 0.950 . S
H2048 C2054 0.949 . S
C2049 H2044 0.950 . S
C2049 C2051 1.327 . S
C2049 C2055 1.429 . S
C2050 C2042 1.574 . S
C2050 H2045 0.949 . S
C2050 C2056 1.368 . S
C2051 C2035 1.349 . S
C2051 H2043 0.950 . S
C2051 C2049 1.327 . S
C2052 C2040 1.349 . S
C2052 H2046 0.950 . S
C2052 C2053 1.327 . S
C2053 H2047 0.950 . S
C2053 C2052 1.327 . S
C2053 C2057 1.429 . S
C2054 C2037 1.574 . S
C2054 H2048 0.949 . S
C2054 C2058 1.368 . S
C2055 C2036 1.429 . S
C2055 C2049 1.429 . S
C2055 C2056 1.523 . S
C2056 C2037 1.368 . S
C2056 C2050 1.368 . S
C2056 C2055 1.523 . S
C2057 C2041 1.429 . S
C2057 C2053 1.429 . S
C2057 C2058 1.523 . S
C2058 C2042 1.368 . S
C2058 C2054 1.368 . S
C2058 C2057 1.523 . S
H2059 C2034 0.950 . S
H2060 C2036 0.950 . S
H2061 C2037 0.949 . S
H2062 C2039 0.950 . S
H2063 C2041 0.950 . S
C2064 C2065 1.349 1_545 S
C2064 C2066 1.327 . S
C2064 H2089 0.950 . S
C2065 C2064 1.349 1_565 S
C2065 C2081 1.349 . S
C2066 C2064 1.327 . S
C2066 C2085 1.429 1_545 S
C2066 H2090 0.950 . S
C2067 C2084 1.574 . S
C2067 C2086 1.368 . S
C2067 H2091 0.949 . S
H2068 C2072 0.949 . S
C2069 C2070 1.349 . S
C2069 C2071 1.327 . S
C2069 H2092 0.950 . S
C2070 C2069 1.349 . S
C2070 C2082 1.349 1_565 S
C2071 C2069 1.327 . S
C2071 C2087 1.429 . S
C2071 H2093 0.950 . S
C2072 H2068 0.949 . S
C2072 C2080 1.574 . S
C2072 C2088 1.368 1_545 S
H2073 C2081 0.950 . S
H2074 C2079 0.950 . S
H2075 C2080 0.949 . S
H2076 C2082 0.950 . S
H2077 C2083 0.950 . S
H2078 C2084 0.949 . S
C2079 H2074 0.950 . S
C2079 C2081 1.327 . S
C2079 C2085 1.429 . S
C2080 C2072 1.574 . S
C2080 H2075 0.949 . S
C2080 C2086 1.368 1_545 S
C2081 C2065 1.349 . S
C2081 H2073 0.950 . S
C2081 C2079 1.327 . S
C2082 C2070 1.349 1_545 S
C2082 H2076 0.950 . S
C2082 C2083 1.327 . S
C2083 H2077 0.950 . S
C2083 C2082 1.327 . S
C2083 C2087 1.429 1_545 S
C2084 C2067 1.574 . S
C2084 H2078 0.949 . S
C2084 C2088 1.368 . S
C2085 C2066 1.429 1_565 S
C2085 C2079 1.429 . S
C2085 C2086 1.523 . S
C2086 C2067 1.368 . S
C2086 C2080 1.368 1_565 S
C2086 C2085 1.523 . S
C2087 C2071 1.429 . S
C2087 C2083 1.429 1_565 S
C2087 C2088 1.523 . S
C2088 C2072 1.368 1_565 S
C2088 C2084 1.368 . S
C2088 C2087 1.523 . S
H2089 C2064 0.950 . S
H2090 C2066 0.950 . S
H2091 C2067 0.949 . S
H2092 C2069 0.950 . S
H2093 C2071 0.950 . S
C2094 C2095 1.349 . S
C2094 C2096 1.327 . S
C2094 H2119 0.950 . S
C2095 C2094 1.349 . S
C2095 C2111 1.349 . S
C2096 C2094 1.327 . S
C2096 C2115 1.429 . S
C2096 H2120 0.950 . S
C2097 C2114 1.574 . S
C2097 C2116 1.368 . S
C2097 H2121 0.949 . S
H2098 C2102 0.949 . S
C2099 C2100 1.349 . S
C2099 C2101 1.327 . S
C2099 H2122 0.950 . S
C2100 C2099 1.349 . S
C2100 C2112 1.349 . S
C2101 C2099 1.327 . S
C2101 C2117 1.429 . S
C2101 H2123 0.950 . S
C2102 H2098 0.949 . S
C2102 C2110 1.574 . S
C2102 C2118 1.368 . S
H2103 C2111 0.950 . S
H2104 C2109 0.950 . S
H2105 C2110 0.949 . S
H2106 C2112 0.950 . S
H2107 C2113 0.950 . S
H2108 C2114 0.949 . S
C2109 H2104 0.950 . S
C2109 C2111 1.327 . S
C2109 C2115 1.429 . S
C2110 C2102 1.574 . S
C2110 H2105 0.949 . S
C2110 C2116 1.368 . S
C2111 C2095 1.349 . S
C2111 H2103 0.950 . S
C2111 C2109 1.327 . S
C2112 C2100 1.349 . S
C2112 H2106 0.950 . S
C2112 C2113 1.327 . S
C2113 H2107 0.950 . S
C2113 C2112 1.327 . S
C2113 C2117 1.429 . S
C2114 C2097 1.574 . S
C2114 H2108 0.949 . S
C2114 C2118 1.368 . S
C2115 C2096 1.429 . S
C2115 C2109 1.429 . S
C2115 C2116 1.523 . S
C2116 C2097 1.368 . S
C2116 C2110 1.368 . S
C2116 C2115 1.523 . S
C2117 C2101 1.429 . S
C2117 C2113 1.429 . S
C2117 C2118 1.523 . S
C2118 C2102 1.368 . S
C2118 C2114 1.368 . S
C2118 C2117 1.523 . S
H2119 C2094 0.950 . S
H2120 C2096 0.950 . S
H2121 C2097 0.949 . S
H2122 C2099 0.950 . S
H2123 C2101 0.950 . S
C2124 C2125 1.349 . S
C2124 C2126 1.327 . S
C2124 H2149 0.950 . S
C2125 C2124 1.349 . S
C2125 C2141 1.349 . S
C2126 C2124 1.327 . S
C2126 C2145 1.429 . S
C2126 H2150 0.950 . S
C2127 C2144 1.574 . S
C2127 C2146 1.368 . S
C2127 H2151 0.949 . S
H2128 C2132 0.949 . S
C2129 C2130 1.349 . S
C2129 C2131 1.327 . S
C2129 H2152 0.950 . S
C2130 C2129 1.349 . S
C2130 C2142 1.349 . S
C2131 C2129 1.327 . S
C2131 C2147 1.429 . S
C2131 H2153 0.950 . S
C2132 H2128 0.949 . S
C2132 C2140 1.574 . S
C2132 C2148 1.368 . S
H2133 C2141 0.950 . S
H2134 C2139 0.950 . S
H2135 C2140 0.949 . S
H2136 C2142 0.950 . S
H2137 C2143 0.950 . S
H2138 C2144 0.949 . S
C2139 H2134 0.950 . S
C2139 C2141 1.327 . S
C2139 C2145 1.429 . S
C2140 C2132 1.574 . S
C2140 H2135 0.949 . S
C2140 C2146 1.368 . S
C2141 C2125 1.349 . S
C2141 H2133 0.950 . S
C2141 C2139 1.327 . S
C2142 C2130 1.349 . S
C2142 H2136 0.950 . S
C2142 C2143 1.327 . S
C2143 H2137 0.950 . S
C2143 C2142 1.327 . S
C2143 C2147 1.429 . S
C2144 C2127 1.574 . S
C2144 H2138 0.949 . S
C2144 C2148 1.368 . S
C2145 C2126 1.429 . S
C2145 C2139 1.429 . S
C2145 C2146 1.523 . S
C2146 C2127 1.368 . S
C2146 C2140 1.368 . S
C2146 C2145 1.523 . S
C2147 C2131 1.429 . S
C2147 C2143 1.429 . S
C2147 C2148 1.523 . S
C2148 C2132 1.368 . S
C2148 C2144 1.368 . S
C2148 C2147 1.523 . S
H2149 C2124 0.950 . S
H2150 C2126 0.950 . S
H2151 C2127 0.949 . S
H2152 C2129 0.950 . S
H2153 C2131 0.950 . S
C2154 C2155 1.349 . S
C2154 C2156 1.327 . S
C2154 H2179 0.950 . S
C2155 C2154 1.349 . S
C2155 C2171 1.349 . S
C2156 C2154 1.327 . S
C2156 C2175 1.429 . S
C2156 H2180 0.950 . S
C2157 C2174 1.574 . S
C2157 C2176 1.368 . S
C2157 H2181 0.949 . S
H2158 C2162 0.949 . S
C2159 C2160 1.349 . S
C2159 C2161 1.327 . S
C2159 H2182 0.950 . S
C2160 C2159 1.349 . S
C2160 C2172 1.349 . S
C2161 C2159 1.327 . S
C2161 C2177 1.429 . S
C2161 H2183 0.950 . S
C2162 H2158 0.949 . S
C2162 C2170 1.574 . S
C2162 C2178 1.368 . S
H2163 C2171 0.950 . S
H2164 C2169 0.950 . S
H2165 C2170 0.949 . S
H2166 C2172 0.950 . S
H2167 C2173 0.950 . S
H2168 C2174 0.949 . S
C2169 H2164 0.950 . S
C2169 C2171 1.327 . S
C2169 C2175 1.429 . S
C2170 C2162 1.574 . S
C2170 H2165 0.949 . S
C2170 C2176 1.368 . S
C2171 C2155 1.349 . S
C2171 H2163 0.950 . S
C2171 C2169 1.327 . S
C2172 C2160 1.349 . S
C2172 H2166 0.950 . S
C2172 C2173 1.327 . S
C2173 H2167 0.950 . S
C2173 C2172 1.327 . S
C2173 C2177 1.429 . S
C2174 C2157 1.574 . S
C2174 H2168 0.949 . S
C2174 C2178 1.368 . S
C2175 C2156 1.429 . S
C2175 C2169 1.429 . S
C2175 C2176 1.523 . S
C2176 C2157 1.368 . S
C2176 C2170 1.368 . S
C2176 C2175 1.523 . S
C2177 C2161 1.429 . S
C2177 C2173 1.429 . S
C2177 C2178 1.523 . S
C2178 C2162 1.368 . S
C2178 C2174 1.368 . S
C2178 C2177 1.523 . S
H2179 C2154 0.950 . S
H2180 C2156 0.950 . S
H2181 C2157 0.949 . S
H2182 C2159 0.950 . S
H2183 C2161 0.950 . S
C2184 C2185 1.349 . S
C2184 C2186 1.327 . S
C2184 H2209 0.950 . S
C2185 C2184 1.349 . S
C2185 C2201 1.349 . S
C2186 C2184 1.327 . S
C2186 C2205 1.429 . S
C2186 H2210 0.950 . S
C2187 C2204 1.574 . S
C2187 C2206 1.368 . S
C2187 H2211 0.949 . S
H2188 C2192 0.949 . S
C2189 C2190 1.349 . S
C2189 C2191 1.327 . S
C2189 H2212 0.950 . S
C2190 C2189 1.349 . S
C2190 C2202 1.349 . S
C2191 C2189 1.327 . S
C2191 C2207 1.429 . S
C2191 H2213 0.950 . S
C2192 H2188 0.949 . S
C2192 C2200 1.574 . S
C2192 C2208 1.368 . S
H2193 C2201 0.950 . S
H2194 C2199 0.950 . S
H2195 C2200 0.949 . S
H2196 C2202 0.950 . S
H2197 C2203 0.950 . S
H2198 C2204 0.949 . S
C2199 H2194 0.950 . S
C2199 C2201 1.327 . S
C2199 C2205 1.429 . S
C2200 C2192 1.574 . S
C2200 H2195 0.949 . S
C2200 C2206 1.368 . S
C2201 C2185 1.349 . S
C2201 H2193 0.950 . S
C2201 C2199 1.327 . S
C2202 C2190 1.349 . S
C2202 H2196 0.950 . S
C2202 C2203 1.327 . S
C2203 H2197 0.950 . S
C2203 C2202 1.327 . S
C2203 C2207 1.429 . S
C2204 C2187 1.574 . S
C2204 H2198 0.949 . S
C2204 C2208 1.368 . S
C2205 C2186 1.429 . S
C2205 C2199 1.429 . S
C2205 C2206 1.523 . S
C2206 C2187 1.368 . S
C2206 C2200 1.368 . S
C2206 C2205 1.523 . S
C2207 C2191 1.429 . S
C2207 C2203 1.429 . S
C2207 C2208 1.523 . S
C2208 C2192 1.368 . S
C2208 C2204 1.368 . S
C2208 C2207 1.523 . S
H2209 C2184 0.950 . S
H2210 C2186 0.950 . S
H2211 C2187 0.949 . S
H2212 C2189 0.950 . S
H2213 C2191 0.950 . S
C2214 C2215 1.349 . S
C2214 C2216 1.327 . S
C2214 H2239 0.950 . S
C2215 C2214 1.349 . S
C2215 C2231 1.349 . S
C2216 C2214 1.327 . S
C2216 C2235 1.429 . S
C2216 H2240 0.950 . S
C2217 C2234 1.574 . S
C2217 C2236 1.368 . S
C2217 H2241 0.949 . S
H2218 C2222 0.949 . S
C2219 C2220 1.349 . S
C2219 C2221 1.327 . S
C2219 H2242 0.950 . S
C2220 C2219 1.349 . S
C2220 C2232 1.349 . S
C2221 C2219 1.327 . S
C2221 C2237 1.429 . S
C2221 H2243 0.950 . S
C2222 H2218 0.949 . S
C2222 C2230 1.574 . S
C2222 C2238 1.368 . S
H2223 C2231 0.950 . S
H2224 C2229 0.950 . S
H2225 C2230 0.949 . S
H2226 C2232 0.950 . S
H2227 C2233 0.950 . S
H2228 C2234 0.949 . S
C2229 H2224 0.950 . S
C2229 C2231 1.327 . S
C2229 C2235 1.429 . S
C2230 C2222 1.574 . S
C2230 H2225 0.949 . S
C2230 C2236 1.368 . S
C2231 C2215 1.349 . S
C2231 H2223 0.950 . S
C2231 C2229 1.327 . S
C2232 C2220 1.349 . S
C2232 H2226 0.950 . S
C2232 C2233 1.327 . S
C2233 H2227 0.950 . S
C2233 C2232 1.327 . S
C2233 C2237 1.429 . S
C2234 C2217 1.574 . S
C2234 H2228 0.949 . S
C2234 C2238 1.368 . S
C2235 C2216 1.429 . S
C2235 C2229 1.429 . S
C2235 C2236 1.523 . S
C2236 C2217 1.368 . S
C2236 C2230 1.368 . S
C2236 C2235 1.523 . S
C2237 C2221 1.429 . S
C2237 C2233 1.429 . S
C2237 C2238 1.523 . S
C2238 C2222 1.368 . S
C2238 C2234 1.368 . S
C2238 C2237 1.523 . S
H2239 C2214 0.950 . S
H2240 C2216 0.950 . S
H2241 C2217 0.949 . S
H2242 C2219 0.950 . S
H2243 C2221 0.950 . S
C2244 C2245 1.349 . S
C2244 C2246 1.327 . S
C2244 H2269 0.950 . S
C2245 C2244 1.349 . S
C2245 C2261 1.349 . S
C2246 C2244 1.327 . S
C2246 C2265 1.429 . S
C2246 H2270 0.950 . S
C2247 C2264 1.574 . S
C2247 C2266 1.368 . S
C2247 H2271 0.949 . S
H2248 C2252 0.949 . S
C2249 C2250 1.349 . S
C2249 C2251 1.327 . S
C2249 H2272 0.950 . S
C2250 C2249 1.349 . S
C2250 C2262 1.349 . S
C2251 C2249 1.327 . S
C2251 C2267 1.429 . S
C2251 H2273 0.950 . S
C2252 H2248 0.949 . S
C2252 C2260 1.574 . S
C2252 C2268 1.368 . S
H2253 C2261 0.950 . S
H2254 C2259 0.950 . S
H2255 C2260 0.949 . S
H2256 C2262 0.950 . S
H2257 C2263 0.950 . S
H2258 C2264 0.949 . S
C2259 H2254 0.950 . S
C2259 C2261 1.327 . S
C2259 C2265 1.429 . S
C2260 C2252 1.574 . S
C2260 H2255 0.949 . S
C2260 C2266 1.368 . S
C2261 C2245 1.349 . S
C2261 H2253 0.950 . S
C2261 C2259 1.327 . S
C2262 C2250 1.349 . S
C2262 H2256 0.950 . S
C2262 C2263 1.327 . S
C2263 H2257 0.950 . S
C2263 C2262 1.327 . S
C2263 C2267 1.429 . S
C2264 C2247 1.574 . S
C2264 H2258 0.949 . S
C2264 C2268 1.368 . S
C2265 C2246 1.429 . S
C2265 C2259 1.429 . S
C2265 C2266 1.523 . S
C2266 C2247 1.368 . S
C2266 C2260 1.368 . S
C2266 C2265 1.523 . S
C2267 C2251 1.429 . S
C2267 C2263 1.429 . S
C2267 C2268 1.523 . S
C2268 C2252 1.368 . S
C2268 C2264 1.368 . S
C2268 C2267 1.523 . S
H2269 C2244 0.950 . S
H2270 C2246 0.950 . S
H2271 C2247 0.949 . S
H2272 C2249 0.950 . S
H2273 C2251 0.950 . S
C2274 C2275 1.349 . S
C2274 C2276 1.327 . S
C2274 H2299 0.950 . S
C2275 C2274 1.349 . S
C2275 C2291 1.349 . S
C2276 C2274 1.327 . S
C2276 C2295 1.429 . S
C2276 H2300 0.950 . S
C2277 C2294 1.574 . S
C2277 C2296 1.368 . S
C2277 H2301 0.949 . S
H2278 C2282 0.949 . S
C2279 C2280 1.349 . S
C2279 C2281 1.327 . S
C2279 H2302 0.950 . S
C2280 C2279 1.349 . S
C2280 C2292 1.349 . S
C2281 C2279 1.327 . S
C2281 C2297 1.429 . S
C2281 H2303 0.950 . S
C2282 H2278 0.949 . S
C2282 C2290 1.574 . S
C2282 C2298 1.368 . S
H2283 C2291 0.950 . S
H2284 C2289 0.950 . S
H2285 C2290 0.949 . S
H2286 C2292 0.950 . S
H2287 C2293 0.950 . S
H2288 C2294 0.949 . S
C2289 H2284 0.950 . S
C2289 C2291 1.327 . S
C2289 C2295 1.429 . S
C2290 C2282 1.574 . S
C2290 H2285 0.949 . S
C2290 C2296 1.368 . S
C2291 C2275 1.349 . S
C2291 H2283 0.950 . S
C2291 C2289 1.327 . S
C2292 C2280 1.349 . S
C2292 H2286 0.950 . S
C2292 C2293 1.327 . S
C2293 H2287 0.950 . S
C2293 C2292 1.327 . S
C2293 C2297 1.429 . S
C2294 C2277 1.574 . S
C2294 H2288 0.949 . S
C2294 C2298 1.368 . S
C2295 C2276 1.429 . S
C2295 C2289 1.429 . S
C2295 C2296 1.523 . S
C2296 C2277 1.368 . S
C2296 C2290 1.368 . S
C2296 C2295 1.523 . S
C2297 C2281 1.429 . S
C2297 C2293 1.429 . S
C2297 C2298 1.523 . S
C2298 C2282 1.368 . S
C2298 C2294 1.368 . S
C2298 C2297 1.523 . S
H2299 C2274 0.950 . S
H2300 C2276 0.950 . S
H2301 C2277 0.949 . S
H2302 C2279 0.950 . S
H2303 C2281 0.950 . S
C2304 C2305 1.349 . S
C2304 C2306 1.327 . S
C2304 H2329 0.950 . S
C2305 C2304 1.349 . S
C2305 C2321 1.349 . S
C2306 C2304 1.327 . S
C2306 C2325 1.429 . S
C2306 H2330 0.950 . S
C2307 C2324 1.574 . S
C2307 C2326 1.368 . S
C2307 H2331 0.949 . S
H2308 C2312 0.949 . S
C2309 C2310 1.349 . S
C2309 C2311 1.327 . S
C2309 H2332 0.950 . S
C2310 C2309 1.349 . S
C2310 C2322 1.349 . S
C2311 C2309 1.327 . S
C2311 C2327 1.429 . S
C2311 H2333 0.950 . S
C2312 H2308 0.949 . S
C2312 C2320 1.574 . S
C2312 C2328 1.368 . S
H2313 C2321 0.950 . S
H2314 C2319 0.950 . S
H2315 C2320 0.949 . S
H2316 C2322 0.950 . S
H2317 C2323 0.950 . S
H2318 C2324 0.949 . S
C2319 H2314 0.950 . S
C2319 C2321 1.327 . S
C2319 C2325 1.429 . S
C2320 C2312 1.574 . S
C2320 H2315 0.949 . S
C2320 C2326 1.368 . S
C2321 C2305 1.349 . S
C2321 H2313 0.950 . S
C2321 C2319 1.327 . S
C2322 C2310 1.349 . S
C2322 H2316 0.950 . S
C2322 C2323 1.327 . S
C2323 H2317 0.950 . S
C2323 C2322 1.327 . S
C2323 C2327 1.429 . S
C2324 C2307 1.574 . S
C2324 H2318 0.949 . S
C2324 C2328 1.368 . S
C2325 C2306 1.429 . S
C2325 C2319 1.429 . S
C2325 C2326 1.523 . S
C2326 C2307 1.368 . S
C2326 C2320 1.368 . S
C2326 C2325 1.523 . S
C2327 C2311 1.429 . S
C2327 C2323 1.429 . S
C2327 C2328 1.523 . S
C2328 C2312 1.368 . S
C2328 C2324 1.368 . S
C2328 C2327 1.523 . S
H2329 C2304 0.950 . S
H2330 C2306 0.950 . S
H2331 C2307 0.949 . S
H2332 C2309 0.950 . S
H2333 C2311 0.950 . S
C2334 C2335 1.349 . S
C2334 C2336 1.327 . S
C2334 H2359 0.950 . S
C2335 C2334 1.349 . S
C2335 C2351 1.349 . S
C2336 C2334 1.327 . S
C2336 C2355 1.429 . S
C2336 H2360 0.950 . S
C2337 C2354 1.574 . S
C2337 C2356 1.368 . S
C2337 H2361 0.949 . S
H2338 C2342 0.949 . S
C2339 C2340 1.349 . S
C2339 C2341 1.327 . S
C2339 H2362 0.950 . S
C2340 C2339 1.349 . S
C2340 C2352 1.349 . S
C2341 C2339 1.327 . S
C2341 C2357 1.429 . S
C2341 H2363 0.950 . S
C2342 H2338 0.949 . S
C2342 C2350 1.574 . S
C2342 C2358 1.368 . S
H2343 C2351 0.950 . S
H2344 C2349 0.950 . S
H2345 C2350 0.949 . S
H2346 C2352 0.950 . S
H2347 C2353 0.950 . S
H2348 C2354 0.949 . S
C2349 H2344 0.950 . S
C2349 C2351 1.327 . S
C2349 C2355 1.429 . S
C2350 C2342 1.574 . S
C2350 H2345 0.949 . S
C2350 C2356 1.368 . S
C2351 C2335 1.349 . S
C2351 H2343 0.950 . S
C2351 C2349 1.327 . S
C2352 C2340 1.349 . S
C2352 H2346 0.950 . S
C2352 C2353 1.327 . S
C2353 H2347 0.950 . S
C2353 C2352 1.327 . S
C2353 C2357 1.429 . S
C2354 C2337 1.574 . S
C2354 H2348 0.949 . S
C2354 C2358 1.368 . S
C2355 C2336 1.429 . S
C2355 C2349 1.429 . S
C2355 C2356 1.523 . S
C2356 C2337 1.368 . S
C2356 C2350 1.368 . S
C2356 C2355 1.523 . S
C2357 C2341 1.429 . S
C2357 C2353 1.429 . S
C2357 C2358 1.523 . S
C2358 C2342 1.368 . S
C2358 C2354 1.368 . S
C2358 C2357 1.523 . S
H2359 C2334 0.950 . S
H2360 C2336 0.950 . S
H2361 C2337 0.949 . S
H2362 C2339 0.950 . S
H2363 C2341 0.950 . S
C2364 C2365 1.349 . S
C2364 C2366 1.327 . S
C2364 H2389 0.950 . S
C2365 C2364 1.349 . S
C2365 C2381 1.349 . S
C2366 C2364 1.327 . S
C2366 C2385 1.429 . S
C2366 H2390 0.950 . S
C2367 C2384 1.574 . S
C2367 C2386 1.368 . S
C2367 H2391 0.949 . S
H2368 C2372 0.959 . S
C2369 C2370 1.349 . S
C2369 C2371 1.327 . S
C2369 H2392 0.950 . S
C2370 C2369 1.349 . S
C2370 C2382 1.349 . S
C2371 C2369 1.327 . S
C2371 C2387 1.429 . S
C2371 H2393 0.950 . S
C2372 H2368 0.959 . S
C2372 C2380 1.574 . S
C2372 C2388 1.368 . S
H2373 C2381 0.950 . S
H2374 C2379 0.950 . S
H2375 C2380 0.990 . S
H2376 C2382 0.950 . S
H2377 C2383 0.950 . S
H2378 C2384 0.949 . S
C2379 H2374 0.950 . S
C2379 C2381 1.327 . S
C2379 C2385 1.429 . S
C2380 C2372 1.574 . S
C2380 H2375 0.990 . S
C2380 C2386 1.368 . S
C2381 C2365 1.349 . S
C2381 H2373 0.950 . S
C2381 C2379 1.327 . S
C2382 C2370 1.349 . S
C2382 H2376 0.950 . S
C2382 C2383 1.327 . S
C2383 H2377 0.950 . S
C2383 C2382 1.327 . S
C2383 C2387 1.429 . S
C2384 C2367 1.574 . S
C2384 H2378 0.949 . S
C2384 C2388 1.368 . S
C2385 C2366 1.429 . S
C2385 C2379 1.429 . S
C2385 C2386 1.523 . S
C2386 C2367 1.368 . S
C2386 C2380 1.368 . S
C2386 C2385 1.523 . S
C2387 C2371 1.429 . S
C2387 C2383 1.429 . S
C2387 C2388 1.523 . S
C2388 C2372 1.368 . S
C2388 C2384 1.368 . S
C2388 C2387 1.523 . S
H2389 C2364 0.950 . S
H2390 C2366 0.950 . S
H2391 C2367 0.949 . S
H2392 C2369 0.950 . S
H2393 C2371 0.950 . S
C2394 C2395 1.349 . S
C2394 C2396 1.327 . S
C2394 H2419 0.950 . S
C2395 C2394 1.349 . S
C2395 C2411 1.349 . S
C2396 C2394 1.327 . S
C2396 C2415 1.429 . S
C2396 H2420 0.950 . S
C2397 C2414 1.574 . S
C2397 C2416 1.368 . S
C2397 H2421 0.949 . S
H2398 C2402 0.949 . S
C2399 C2400 1.349 . S
C2399 C2401 1.327 . S
C2399 H2422 0.950 . S
C2400 C2399 1.349 . S
C2400 C2412 1.349 . S
C2401 C2399 1.327 . S
C2401 C2417 1.429 . S
C2401 H2423 0.950 . S
C2402 H2398 0.949 . S
C2402 C2410 1.574 . S
C2402 C2418 1.368 . S
H2403 C2411 0.950 . S
H2404 C2409 0.950 . S
H2405 C2410 0.949 . S
H2406 C2412 0.950 . S
H2407 C2413 0.950 . S
H2408 C2414 0.949 . S
C2409 H2404 0.950 . S
C2409 C2411 1.327 . S
C2409 C2415 1.429 . S
C2410 C2402 1.574 . S
C2410 H2405 0.949 . S
C2410 C2416 1.368 . S
C2411 C2395 1.349 . S
C2411 H2403 0.950 . S
C2411 C2409 1.327 . S
C2412 C2400 1.349 . S
C2412 H2406 0.950 . S
C2412 C2413 1.327 . S
C2413 H2407 0.950 . S
C2413 C2412 1.327 . S
C2413 C2417 1.429 . S
C2414 C2397 1.574 . S
C2414 H2408 0.949 . S
C2414 C2418 1.368 . S
C2415 C2396 1.429 . S
C2415 C2409 1.429 . S
C2415 C2416 1.523 . S
C2416 C2397 1.368 . S
C2416 C2410 1.368 . S
C2416 C2415 1.523 . S
C2417 C2401 1.429 . S
C2417 C2413 1.429 . S
C2417 C2418 1.523 . S
C2418 C2402 1.368 . S
C2418 C2414 1.368 . S
C2418 C2417 1.523 . S
H2419 C2394 0.950 . S
H2420 C2396 0.950 . S
H2421 C2397 0.949 . S
H2422 C2399 0.950 . S
H2423 C2401 0.950 . S
C2424 C2425 1.349 . S
C2424 C2426 1.327 . S
C2424 H2449 0.950 . S
C2425 C2424 1.349 . S
C2425 C2441 1.349 . S
C2426 C2424 1.327 . S
C2426 C2445 1.429 . S
C2426 H2450 0.950 . S
C2427 C2444 1.574 . S
C2427 C2446 1.368 . S
C2427 H2451 0.949 . S
H2428 C2432 0.949 . S
C2429 C2430 1.349 . S
C2429 C2431 1.327 . S
C2429 H2452 0.950 . S
C2430 C2429 1.349 . S
C2430 C2442 1.349 . S
C2431 C2429 1.327 . S
C2431 C2447 1.429 . S
C2431 H2453 0.950 . S
C2432 H2428 0.949 . S
C2432 C2440 1.574 . S
C2432 C2448 1.368 . S
H2433 C2441 0.950 . S
H2434 C2439 0.950 . S
H2435 C2440 0.949 . S
H2436 C2442 0.950 . S
H2437 C2443 0.950 . S
H2438 C2444 0.949 . S
C2439 H2434 0.950 . S
C2439 C2441 1.327 . S
C2439 C2445 1.429 . S
C2440 C2432 1.574 . S
C2440 H2435 0.949 . S
C2440 C2446 1.368 . S
C2441 C2425 1.349 . S
C2441 H2433 0.950 . S
C2441 C2439 1.327 . S
C2442 C2430 1.349 . S
C2442 H2436 0.950 . S
C2442 C2443 1.327 . S
C2443 H2437 0.950 . S
C2443 C2442 1.327 . S
C2443 C2447 1.429 . S
C2444 C2427 1.574 . S
C2444 H2438 0.949 . S
C2444 C2448 1.368 . S
C2445 C2426 1.429 . S
C2445 C2439 1.429 . S
C2445 C2446 1.523 . S
C2446 C2427 1.368 . S
C2446 C2440 1.368 . S
C2446 C2445 1.523 . S
C2447 C2431 1.429 . S
C2447 C2443 1.429 . S
C2447 C2448 1.523 . S
C2448 C2432 1.368 . S
C2448 C2444 1.368 . S
C2448 C2447 1.523 . S
H2449 C2424 0.950 . S
H2450 C2426 0.950 . S
H2451 C2427 0.949 . S
H2452 C2429 0.950 . S
H2453 C2431 0.950 . S
C2454 C2455 1.349 . S
C2454 C2456 1.327 . S
C2454 H2479 0.950 . S
C2455 C2454 1.349 . S
C2455 C2471 1.349 . S
C2456 C2454 1.327 . S
C2456 C2475 1.429 . S
C2456 H2480 0.950 . S
C2457 C2474 1.574 . S
C2457 C2476 1.368 . S
C2457 H2481 0.949 . S
H2458 C2462 0.949 . S
C2459 C2460 1.349 . S
C2459 C2461 1.327 . S
C2459 H2482 0.950 . S
C2460 C2459 1.349 . S
C2460 C2472 1.349 . S
C2461 C2459 1.327 . S
C2461 C2477 1.429 . S
C2461 H2483 0.950 . S
C2462 H2458 0.949 . S
C2462 C2470 1.574 . S
C2462 C2478 1.368 . S
H2463 C2471 0.950 . S
H2464 C2469 0.950 . S
H2465 C2470 0.949 . S
H2466 C2472 0.950 . S
H2467 C2473 0.950 . S
H2468 C2474 0.949 . S
C2469 H2464 0.950 . S
C2469 C2471 1.327 . S
C2469 C2475 1.429 . S
C2470 C2462 1.574 . S
C2470 H2465 0.949 . S
C2470 C2476 1.368 . S
C2471 C2455 1.349 . S
C2471 H2463 0.950 . S
C2471 C2469 1.327 . S
C2472 C2460 1.349 . S
C2472 H2466 0.950 . S
C2472 C2473 1.327 . S
C2473 H2467 0.950 . S
C2473 C2472 1.327 . S
C2473 C2477 1.429 . S
C2474 C2457 1.574 . S
C2474 H2468 0.949 . S
C2474 C2478 1.368 . S
C2475 C2456 1.429 . S
C2475 C2469 1.429 . S
C2475 C2476 1.523 . S
C2476 C2457 1.368 . S
C2476 C2470 1.368 . S
C2476 C2475 1.523 . S
C2477 C2461 1.429 . S
C2477 C2473 1.429 . S
C2477 C2478 1.523 . S
C2478 C2462 1.368 . S
C2478 C2474 1.368 . S
C2478 C2477 1.523 . S
H2479 C2454 0.950 . S
H2480 C2456 0.950 . S
H2481 C2457 0.949 . S
H2482 C2459 0.950 . S
H2483 C2461 0.950 . S
C2484 C2485 1.349 . S
C2484 C2486 1.327 . S
C2484 H2509 0.950 . S
C2485 C2484 1.349 . S
C2485 C2501 1.349 . S
C2486 C2484 1.327 . S
C2486 C2505 1.429 . S
C2486 H2510 0.950 . S
C2487 C2504 1.574 . S
C2487 C2506 1.368 . S
C2487 H2511 0.949 . S
H2488 C2492 0.949 . S
C2489 C2490 1.349 . S
C2489 C2491 1.327 . S
C2489 H2512 0.950 . S
C2490 C2489 1.349 . S
C2490 C2502 1.349 . S
C2491 C2489 1.327 . S
C2491 C2507 1.429 . S
C2491 H2513 0.950 . S
C2492 H2488 0.949 . S
C2492 C2500 1.574 . S
C2492 C2508 1.368 . S
H2493 C2501 0.950 . S
H2494 C2499 0.950 . S
H2495 C2500 0.949 . S
H2496 C2502 0.950 . S
H2497 C2503 0.950 . S
H2498 C2504 0.949 . S
C2499 H2494 0.950 . S
C2499 C2501 1.327 . S
C2499 C2505 1.429 . S
C2500 C2492 1.574 . S
C2500 H2495 0.949 . S
C2500 C2506 1.368 . S
C2501 C2485 1.349 . S
C2501 H2493 0.950 . S
C2501 C2499 1.327 . S
C2502 C2490 1.349 . S
C2502 H2496 0.950 . S
C2502 C2503 1.327 . S
C2503 H2497 0.950 . S
C2503 C2502 1.327 . S
C2503 C2507 1.429 . S
C2504 C2487 1.574 . S
C2504 H2498 0.949 . S
C2504 C2508 1.368 . S
C2505 C2486 1.429 . S
C2505 C2499 1.429 . S
C2505 C2506 1.523 . S
C2506 C2487 1.368 . S
C2506 C2500 1.368 . S
C2506 C2505 1.523 . S
C2507 C2491 1.429 . S
C2507 C2503 1.429 . S
C2507 C2508 1.523 . S
C2508 C2492 1.368 . S
C2508 C2504 1.368 . S
C2508 C2507 1.523 . S
H2509 C2484 0.950 . S
H2510 C2486 0.950 . S
H2511 C2487 0.949 . S
H2512 C2489 0.950 . S
H2513 C2491 0.950 . S
C2514 C2515 1.349 . S
C2514 C2516 1.327 . S
C2514 H2539 0.950 . S
C2515 C2514 1.349 . S
C2515 C2531 1.349 . S
C2516 C2514 1.327 . S
C2516 C2535 1.429 . S
C2516 H2540 0.950 . S
C2517 C2534 1.574 . S
C2517 C2536 1.368 . S
C2517 H2541 0.949 . S
H2518 C2522 0.949 . S
C2519 C2520 1.349 . S
C2519 C2521 1.327 . S
C2519 H2542 0.950 . S
C2520 C2519 1.349 . S
C2520 C2532 1.349 . S
C2521 C2519 1.327 . S
C2521 C2537 1.429 . S
C2521 H2543 0.950 . S
C2522 H2518 0.949 . S
C2522 C2530 1.574 . S
C2522 C2538 1.368 . S
H2523 C2531 0.950 . S
H2524 C2529 0.950 . S
H2525 C2530 0.949 . S
H2526 C2532 0.950 . S
H2527 C2533 0.950 . S
H2528 C2534 0.949 . S
C2529 H2524 0.950 . S
C2529 C2531 1.327 . S
C2529 C2535 1.429 . S
C2530 C2522 1.574 . S
C2530 H2525 0.949 . S
C2530 C2536 1.368 . S
C2531 C2515 1.349 . S
C2531 H2523 0.950 . S
C2531 C2529 1.327 . S
C2532 C2520 1.349 . S
C2532 H2526 0.950 . S
C2532 C2533 1.327 . S
C2533 H2527 0.950 . S
C2533 C2532 1.327 . S
C2533 C2537 1.429 . S
C2534 C2517 1.574 . S
C2534 H2528 0.949 . S
C2534 C2538 1.368 . S
C2535 C2516 1.429 . S
C2535 C2529 1.429 . S
C2535 C2536 1.523 . S
C2536 C2517 1.368 . S
C2536 C2530 1.368 . S
C2536 C2535 1.523 . S
C2537 C2521 1.429 . S
C2537 C2533 1.429 . S
C2537 C2538 1.523 . S
C2538 C2522 1.368 . S
C2538 C2534 1.368 . S
C2538 C2537 1.523 . S
H2539 C2514 0.950 . S
H2540 C2516 0.950 . S
H2541 C2517 0.949 . S
H2542 C2519 0.950 . S
H2543 C2521 0.950 . S
C2544 C2545 1.349 . S
C2544 C2546 1.327 . S
C2544 H2569 0.950 . S
C2545 C2544 1.349 . S
C2545 C2561 1.349 . S
C2546 C2544 1.327 . S
C2546 C2565 1.429 . S
C2546 H2570 0.950 . S
C2547 C2564 1.574 . S
C2547 C2566 1.368 . S
C2547 H2571 0.949 . S
H2548 C2552 0.949 . S
C2549 C2550 1.349 . S
C2549 C2551 1.327 . S
C2549 H2572 0.950 . S
C2550 C2549 1.349 . S
C2550 C2562 1.349 . S
C2551 C2549 1.327 . S
C2551 C2567 1.429 . S
C2551 H2573 0.950 . S
C2552 H2548 0.949 . S
C2552 C2560 1.574 . S
C2552 C2568 1.368 . S
H2553 C2561 0.950 . S
H2554 C2559 0.950 . S
H2555 C2560 0.949 . S
H2556 C2562 0.950 . S
H2557 C2563 0.950 . S
H2558 C2564 0.949 . S
C2559 H2554 0.950 . S
C2559 C2561 1.327 . S
C2559 C2565 1.429 . S
C2560 C2552 1.574 . S
C2560 H2555 0.949 . S
C2560 C2566 1.368 . S
C2561 C2545 1.349 . S
C2561 H2553 0.950 . S
C2561 C2559 1.327 . S
C2562 C2550 1.349 . S
C2562 H2556 0.950 . S
C2562 C2563 1.327 . S
C2563 H2557 0.950 . S
C2563 C2562 1.327 . S
C2563 C2567 1.429 . S
C2564 C2547 1.574 . S
C2564 H2558 0.949 . S
C2564 C2568 1.368 . S
C2565 C2546 1.429 . S
C2565 C2559 1.429 . S
C2565 C2566 1.523 . S
C2566 C2547 1.368 . S
C2566 C2560 1.368 . S
C2566 C2565 1.523 . S
C2567 C2551 1.429 . S
C2567 C2563 1.429 . S
C2567 C2568 1.523 . S
C2568 C2552 1.368 . S
C2568 C2564 1.368 . S
C2568 C2567 1.523 . S
H2569 C2544 0.950 . S
H2570 C2546 0.950 . S
H2571 C2547 0.949 . S
H2572 C2549 0.950 . S
H2573 C2551 0.950 . S
C2574 C2575 1.349 . S
C2574 C2576 1.327 . S
C2574 H2599 0.950 . S
C2575 C2574 1.349 . S
C2575 C2591 1.349 . S
C2576 C2574 1.327 . S
C2576 C2595 1.429 . S
C2576 H2600 0.950 . S
C2577 C2594 1.574 . S
C2577 C2596 1.368 . S
C2577 H2601 0.949 . S
H2578 C2582 0.949 . S
C2579 C2580 1.349 . S
C2579 C2581 1.327 . S
C2579 H2602 0.950 . S
C2580 C2579 1.349 . S
C2580 C2592 1.349 . S
C2581 C2579 1.327 . S
C2581 C2597 1.429 . S
C2581 H2603 0.950 . S
C2582 H2578 0.949 . S
C2582 C2590 1.574 . S
C2582 C2598 1.368 . S
H2583 C2591 0.950 . S
H2584 C2589 0.950 . S
H2585 C2590 0.949 . S
H2586 C2592 0.950 . S
H2587 C2593 0.950 . S
H2588 C2594 0.949 . S
C2589 H2584 0.950 . S
C2589 C2591 1.327 . S
C2589 C2595 1.429 . S
C2590 C2582 1.574 . S
C2590 H2585 0.949 . S
C2590 C2596 1.368 . S
C2591 C2575 1.349 . S
C2591 H2583 0.950 . S
C2591 C2589 1.327 . S
C2592 C2580 1.349 . S
C2592 H2586 0.950 . S
C2592 C2593 1.327 . S
C2593 H2587 0.950 . S
C2593 C2592 1.327 . S
C2593 C2597 1.429 . S
C2594 C2577 1.574 . S
C2594 H2588 0.949 . S
C2594 C2598 1.368 . S
C2595 C2576 1.429 . S
C2595 C2589 1.429 . S
C2595 C2596 1.523 . S
C2596 C2577 1.368 . S
C2596 C2590 1.368 . S
C2596 C2595 1.523 . S
C2597 C2581 1.429 . S
C2597 C2593 1.429 . S
C2597 C2598 1.523 . S
C2598 C2582 1.368 . S
C2598 C2594 1.368 . S
C2598 C2597 1.523 . S
H2599 C2574 0.950 . S
H2600 C2576 0.950 . S
H2601 C2577 0.949 . S
H2602 C2579 0.950 . S
H2603 C2581 0.950 . S
C2604 C2605 1.349 . S
C2604 C2606 1.327 . S
C2604 H2629 0.950 . S
C2605 C2604 1.349 . S
C2605 C2621 1.349 . S
C2606 C2604 1.327 . S
C2606 C2625 1.429 . S
C2606 H2630 0.950 . S
C2607 C2624 1.574 . S
C2607 C2626 1.368 . S
C2607 H2631 0.949 1_565 S
H2608 C2612 0.949 . S
C2609 C2610 1.349 . S
C2609 C2611 1.327 . S
C2609 H2632 0.950 1_565 S
C2610 C2609 1.349 . S
C2610 C2622 1.349 . S
C2611 C2609 1.327 . S
C2611 C2627 1.429 . S
C2611 H2633 0.950 1_565 S
C2612 H2608 0.949 . S
C2612 C2620 1.574 . S
C2612 C2628 1.368 . S
H2613 C2621 0.950 1_545 S
H2614 C2619 0.950 1_545 S
H2615 C2620 0.949 . S
H2616 C2622 0.950 . S
H2617 C2623 0.950 . S
H2618 C2624 0.949 1_545 S
C2619 H2614 0.950 1_565 S
C2619 C2621 1.327 . S
C2619 C2625 1.429 . S
C2620 C2612 1.574 . S
C2620 H2615 0.949 . S
C2620 C2626 1.368 . S
C2621 C2605 1.349 . S
C2621 H2613 0.950 1_565 S
C2621 C2619 1.327 . S
C2622 C2610 1.349 . S
C2622 H2616 0.950 . S
C2622 C2623 1.327 . S
C2623 H2617 0.950 . S
C2623 C2622 1.327 . S
C2623 C2627 1.429 . S
C2624 C2607 1.574 . S
C2624 H2618 0.949 1_565 S
C2624 C2628 1.368 . S
C2625 C2606 1.429 . S
C2625 C2619 1.429 . S
C2625 C2626 1.523 . S
C2626 C2607 1.368 . S
C2626 C2620 1.368 . S
C2626 C2625 1.523 . S
C2627 C2611 1.429 . S
C2627 C2623 1.429 . S
C2627 C2628 1.523 . S
C2628 C2612 1.368 . S
C2628 C2624 1.368 . S
C2628 C2627 1.523 . S
H2629 C2604 0.950 . S
H2630 C2606 0.950 . S
H2631 C2607 0.949 1_545 S
H2632 C2609 0.950 1_545 S
H2633 C2611 0.950 1_545 S
C2634 C2635 1.349 . S
C2634 C2636 1.327 . S
C2634 H2659 0.950 . S
C2635 C2634 1.349 . S
C2635 C2651 1.349 . S
C2636 C2634 1.327 . S
C2636 C2655 1.429 . S
C2636 H2660 0.950 . S
C2637 C2654 1.574 . S
C2637 C2656 1.368 . S
C2637 H2661 0.949 . S
H2638 C2642 0.949 . S
C2639 C2640 1.349 . S
C2639 C2641 1.327 . S
C2639 H2662 0.950 . S
C2640 C2639 1.349 . S
C2640 C2652 1.349 . S
C2641 C2639 1.327 . S
C2641 C2657 1.429 . S
C2641 H2663 0.950 . S
C2642 H2638 0.949 . S
C2642 C2650 1.574 . S
C2642 C2658 1.368 . S
H2643 C2651 0.950 . S
H2644 C2649 0.950 . S
H2645 C2650 0.949 . S
H2646 C2652 0.950 . S
H2647 C2653 0.950 . S
H2648 C2654 0.949 . S
C2649 H2644 0.950 . S
C2649 C2651 1.327 . S
C2649 C2655 1.429 . S
C2650 C2642 1.574 . S
C2650 H2645 0.949 . S
C2650 C2656 1.368 . S
C2651 C2635 1.349 . S
C2651 H2643 0.950 . S
C2651 C2649 1.327 . S
C2652 C2640 1.349 . S
C2652 H2646 0.950 . S
C2652 C2653 1.327 . S
C2653 H2647 0.950 . S
C2653 C2652 1.327 . S
C2653 C2657 1.429 . S
C2654 C2637 1.574 . S
C2654 H2648 0.949 . S
C2654 C2658 1.368 . S
C2655 C2636 1.429 . S
C2655 C2649 1.429 . S
C2655 C2656 1.523 . S
C2656 C2637 1.368 . S
C2656 C2650 1.368 . S
C2656 C2655 1.523 . S
C2657 C2641 1.429 . S
C2657 C2653 1.429 . S
C2657 C2658 1.523 . S
C2658 C2642 1.368 . S
C2658 C2654 1.368 . S
C2658 C2657 1.523 . S
H2659 C2634 0.950 . S
H2660 C2636 0.950 . S
H2661 C2637 0.949 . S
H2662 C2639 0.950 . S
H2663 C2641 0.950 . S
C505 C3 1.623 . S
C510 C157 1.623 . S
C535 C129 1.623 . S
C540 C17 1.623 . S
C565 C143 1.623 . S
C570 C31 1.623 . S
C595 C45 1.623 . S
C600 C101 1.623 . S
C625 C59 1.623 . S
C630 C115 1.623 . S
C655 C73 1.623 . S
C660 C87 1.623 . S
C685 C171 1.623 . S
C690 C325 1.623 . S
C715 C297 1.623 . S
C720 C185 1.623 . S
C745 C199 1.623 . S
C750 C311 1.623 . S
C775 C213 1.623 . S
C780 C269 1.623 . S
C805 C227 1.623 . S
C810 C283 1.623 . S
C835 C241 1.623 . S
C840 C255 1.623 . S
C865 C339 1.623 . S
C870 C493 1.623 . S
C895 C353 1.623 . S
C900 C465 1.623 . S
C925 C479 1.623 . S
C930 C367 1.623 . S
C955 C381 1.623 . S
C960 C437 1.623 . S
C985 C451 1.623 . S
C990 C395 1.623 . S
C1015 C423 1.623 . S
C1020 C409 1.623 . S
C1045 C8 1.174 . S
C1050 C218 1.174 1_455 S
C1075 C22 1.174 . S
C1080 C232 1.174 . S
C1105 C36 1.174 . S
C1110 C246 1.174 . S
C1135 C50 1.174 . S
C1140 C344 1.174 1_545 S
C1165 C358 1.174 . S
C1170 C64 1.174 . S
C1195 C372 1.174 . S
C1200 C78 1.174 . S
C1225 C92 1.174 . S
C1230 C470 1.174 . S
C1255 C484 1.174 . S
C1260 C106 1.174 . S
C1285 C120 1.174 . S
C1290 C498 1.174 1_545 S
C1315 C134 1.174 . S
C1320 C260 1.174 . S
C1345 C148 1.174 . S
C1350 C274 1.174 1_455 S
C1375 C162 1.174 . S
C1380 C288 1.174 . S
C1405 C386 1.174 . S
C1410 C176 1.174 . S
C1435 C190 1.174 . S
C1440 C400 1.155 1_545 S
C1465 C204 1.155 1_455 S
C1470 C414 1.174 . S
C1495 C428 1.174 . S
C1500 C302 1.174 . S
C1525 C442 1.159 1_545 S
C1530 C316 1.174 . S
C1555 C330 1.159 1_455 S
C1560 C456 1.174 . S
C1585 C9 1.175 . S
C1590 C65 1.175 . S
C1615 C79 1.175 . S
C1620 C23 1.175 . S
C1645 C51 1.175 . S
C1650 C37 1.175 . S
C1675 C93 1.175 . S
C1680 C149 1.175 . S
C1705 C163 1.175 . S
C1710 C107 1.175 . S
C1735 C121 1.175 . S
C1740 C135 1.175 . S
C1765 C233 1.175 . S
C1770 C177 1.175 . S
C1795 C191 1.175 . S
C1800 C247 1.175 . S
C1825 C205 1.175 . S
C1830 C219 1.175 . S
C1855 C317 1.175 . S
C1860 C261 1.175 . S
C1885 C331 1.175 . S
C1890 C275 1.175 . S
C1915 C303 1.175 . S
C1920 C289 1.175 . S
C1945 C345 1.175 . S
C1950 C401 1.175 . S
C1975 C359 1.175 . S
C1980 C415 1.175 . S
C2005 C373 1.175 . S
C2010 C387 1.175 . S
C2035 C485 1.175 . S
C2040 C429 1.175 . S
C2065 C499 1.175 . S
C2070 C443 1.175 . S
C2095 C471 1.175 . S
C2100 C457 1.175 . S
C2125 C133 1.594 . S
C2130 C7 1.594 . S
C2155 C147 1.594 . S
C2160 C21 1.594 . S
C2185 C35 1.594 . S
C2190 C161 1.594 . S
C2215 C49 1.594 . S
C2220 C91 1.594 . S
C2245 C105 1.594 . S
C2250 C63 1.594 . S
C2275 C77 1.594 . S
C2280 C119 1.594 . S
C2305 C301 1.594 . S
C2310 C175 1.594 . S
C2335 C315 1.594 . S
C2340 C189 1.594 . S
C2365 C203 1.594 . S
C2370 C329 1.594 . S
C2395 C259 1.594 . S
C2400 C217 1.594 . S
C2425 C273 1.594 . S
C2430 C231 1.594 . S
C2455 C287 1.594 . S
C2460 C245 1.594 . S
C2485 C343 1.594 . S
C2490 C469 1.594 . S
C2515 C483 1.594 . S
C2520 C357 1.594 . S
C2545 C371 1.594 . S
C2550 C497 1.594 . S
C2575 C385 1.594 . S
C2580 C427 1.594 . S
C2605 C399 1.594 . S
C2610 C441 1.594 . S
C2635 C455 1.594 . S
C2640 C413 1.594 . S
