# Generated by pormake.
# Topology uoi, (4)-cn, num edge types: 1
# Building blocks:
#     Node 0, Type 0, BuildingBlock: CEKHIL_clean_sbu_0, # of connection points: 4
#     Node 1, Type 0, BuildingBlock: CEKHIL_clean_sbu_0, # of connection points: 4
#     Node 2, Type 0, BuildingBlock: CEKHIL_clean_sbu_0, # of connection points: 4
#     Node 3, Type 0, BuildingBlock: CEKHIL_clean_sbu_0, # of connection points: 4
#     Node 4, Type 0, BuildingBlock: CEKHIL_clean_sbu_0, # of connection points: 4
#     Node 5, Type 0, BuildingBlock: CEKHIL_clean_sbu_0, # of connection points: 4
#     Node 6, Type 0, BuildingBlock: CEKHIL_clean_sbu_0, # of connection points: 4
#     Node 7, Type 0, BuildingBlock: CEKHIL_clean_sbu_0, # of connection points: 4
#     Node 8, Type 0, BuildingBlock: CEKHIL_clean_sbu_0, # of connection points: 4
#     Node 9, Type 0, BuildingBlock: CEKHIL_clean_sbu_0, # of connection points: 4
#     Node 10, Type 0, BuildingBlock: CEKHIL_clean_sbu_0, # of connection points: 4
#     Node 11, Type 0, BuildingBlock: CEKHIL_clean_sbu_0, # of connection points: 4
#     Node 12, Type 0, BuildingBlock: CEKHIL_clean_sbu_0, # of connection points: 4
#     Node 13, Type 0, BuildingBlock: CEKHIL_clean_sbu_0, # of connection points: 4
#     Node 14, Type 0, BuildingBlock: CEKHIL_clean_sbu_0, # of connection points: 4
#     Node 15, Type 0, BuildingBlock: CEKHIL_clean_sbu_0, # of connection points: 4
#     Node 16, Type 0, BuildingBlock: CEKHIL_clean_sbu_0, # of connection points: 4
#     Node 17, Type 0, BuildingBlock: CEKHIL_clean_sbu_0, # of connection points: 4
#     Node 18, Type 0, BuildingBlock: CEKHIL_clean_sbu_0, # of connection points: 4
#     Node 19, Type 0, BuildingBlock: CEKHIL_clean_sbu_0, # of connection points: 4
#     Node 20, Type 0, BuildingBlock: CEKHIL_clean_sbu_0, # of connection points: 4
#     Node 21, Type 0, BuildingBlock: CEKHIL_clean_sbu_0, # of connection points: 4
#     Node 22, Type 0, BuildingBlock: CEKHIL_clean_sbu_0, # of connection points: 4
#     Node 23, Type 0, BuildingBlock: CEKHIL_clean_sbu_0, # of connection points: 4
#     Node 24, Type 0, BuildingBlock: CEKHIL_clean_sbu_0, # of connection points: 4
#     Node 25, Type 0, BuildingBlock: CEKHIL_clean_sbu_0, # of connection points: 4
#     Node 26, Type 0, BuildingBlock: CEKHIL_clean_sbu_0, # of connection points: 4
#     Node 27, Type 0, BuildingBlock: CEKHIL_clean_sbu_0, # of connection points: 4
#     Node 28, Type 0, BuildingBlock: CEKHIL_clean_sbu_0, # of connection points: 4
#     Node 29, Type 0, BuildingBlock: CEKHIL_clean_sbu_0, # of connection points: 4
#     Node 30, Type 0, BuildingBlock: CEKHIL_clean_sbu_0, # of connection points: 4
#     Node 31, Type 0, BuildingBlock: CEKHIL_clean_sbu_0, # of connection points: 4
#     Edge 32, Type (0, 0), BuildingBlock: UVAHIK_clean_linker_0, # of connection points: 2
#     Edge 33, Type (0, 0), BuildingBlock: UVAHIK_clean_linker_0, # of connection points: 2
#     Edge 34, Type (0, 0), BuildingBlock: UVAHIK_clean_linker_0, # of connection points: 2
#     Edge 35, Type (0, 0), BuildingBlock: UVAHIK_clean_linker_0, # of connection points: 2
#     Edge 36, Type (0, 0), BuildingBlock: UVAHIK_clean_linker_0, # of connection points: 2
#     Edge 37, Type (0, 0), BuildingBlock: UVAHIK_clean_linker_0, # of connection points: 2
#     Edge 38, Type (0, 0), BuildingBlock: UVAHIK_clean_linker_0, # of connection points: 2
#     Edge 39, Type (0, 0), BuildingBlock: UVAHIK_clean_linker_0, # of connection points: 2
#     Edge 40, Type (0, 0), BuildingBlock: UVAHIK_clean_linker_0, # of connection points: 2
#     Edge 41, Type (0, 0), BuildingBlock: UVAHIK_clean_linker_0, # of connection points: 2
#     Edge 42, Type (0, 0), BuildingBlock: UVAHIK_clean_linker_0, # of connection points: 2
#     Edge 43, Type (0, 0), BuildingBlock: UVAHIK_clean_linker_0, # of connection points: 2
#     Edge 44, Type (0, 0), BuildingBlock: UVAHIK_clean_linker_0, # of connection points: 2
#     Edge 45, Type (0, 0), BuildingBlock: UVAHIK_clean_linker_0, # of connection points: 2
#     Edge 46, Type (0, 0), BuildingBlock: UVAHIK_clean_linker_0, # of connection points: 2
#     Edge 47, Type (0, 0), BuildingBlock: UVAHIK_clean_linker_0, # of connection points: 2
#     Edge 48, Type (0, 0), BuildingBlock: UVAHIK_clean_linker_0, # of connection points: 2
#     Edge 49, Type (0, 0), BuildingBlock: UVAHIK_clean_linker_0, # of connection points: 2
#     Edge 50, Type (0, 0), BuildingBlock: UVAHIK_clean_linker_0, # of connection points: 2
#     Edge 51, Type (0, 0), BuildingBlock: UVAHIK_clean_linker_0, # of connection points: 2
#     Edge 52, Type (0, 0), BuildingBlock: UVAHIK_clean_linker_0, # of connection points: 2
#     Edge 53, Type (0, 0), BuildingBlock: UVAHIK_clean_linker_0, # of connection points: 2
#     Edge 54, Type (0, 0), BuildingBlock: UVAHIK_clean_linker_0, # of connection points: 2
#     Edge 55, Type (0, 0), BuildingBlock: UVAHIK_clean_linker_0, # of connection points: 2
#     Edge 56, Type (0, 0), BuildingBlock: UVAHIK_clean_linker_0, # of connection points: 2
#     Edge 57, Type (0, 0), BuildingBlock: UVAHIK_clean_linker_0, # of connection points: 2
#     Edge 58, Type (0, 0), BuildingBlock: UVAHIK_clean_linker_0, # of connection points: 2
#     Edge 59, Type (0, 0), BuildingBlock: UVAHIK_clean_linker_0, # of connection points: 2
#     Edge 60, Type (0, 0), BuildingBlock: UVAHIK_clean_linker_0, # of connection points: 2
#     Edge 61, Type (0, 0), BuildingBlock: UVAHIK_clean_linker_0, # of connection points: 2
#     Edge 62, Type (0, 0), BuildingBlock: UVAHIK_clean_linker_0, # of connection points: 2
#     Edge 63, Type (0, 0), BuildingBlock: UVAHIK_clean_linker_0, # of connection points: 2
#     Edge 64, Type (0, 0), BuildingBlock: UVAHIK_clean_linker_0, # of connection points: 2
#     Edge 65, Type (0, 0), BuildingBlock: UVAHIK_clean_linker_0, # of connection points: 2
#     Edge 66, Type (0, 0), BuildingBlock: UVAHIK_clean_linker_0, # of connection points: 2
#     Edge 67, Type (0, 0), BuildingBlock: UVAHIK_clean_linker_0, # of connection points: 2
#     Edge 68, Type (0, 0), BuildingBlock: UVAHIK_clean_linker_0, # of connection points: 2
#     Edge 69, Type (0, 0), BuildingBlock: UVAHIK_clean_linker_0, # of connection points: 2
#     Edge 70, Type (0, 0), BuildingBlock: UVAHIK_clean_linker_0, # of connection points: 2
#     Edge 71, Type (0, 0), BuildingBlock: UVAHIK_clean_linker_0, # of connection points: 2
#     Edge 72, Type (0, 0), BuildingBlock: UVAHIK_clean_linker_0, # of connection points: 2
#     Edge 73, Type (0, 0), BuildingBlock: UVAHIK_clean_linker_0, # of connection points: 2
#     Edge 74, Type (0, 0), BuildingBlock: UVAHIK_clean_linker_0, # of connection points: 2
#     Edge 75, Type (0, 0), BuildingBlock: UVAHIK_clean_linker_0, # of connection points: 2
#     Edge 76, Type (0, 0), BuildingBlock: UVAHIK_clean_linker_0, # of connection points: 2
#     Edge 77, Type (0, 0), BuildingBlock: UVAHIK_clean_linker_0, # of connection points: 2
#     Edge 78, Type (0, 0), BuildingBlock: UVAHIK_clean_linker_0, # of connection points: 2
#     Edge 79, Type (0, 0), BuildingBlock: UVAHIK_clean_linker_0, # of connection points: 2
#     Edge 80, Type (0, 0), BuildingBlock: UVAHIK_clean_linker_0, # of connection points: 2
#     Edge 81, Type (0, 0), BuildingBlock: UVAHIK_clean_linker_0, # of connection points: 2
#     Edge 82, Type (0, 0), BuildingBlock: UVAHIK_clean_linker_0, # of connection points: 2
#     Edge 83, Type (0, 0), BuildingBlock: UVAHIK_clean_linker_0, # of connection points: 2
#     Edge 84, Type (0, 0), BuildingBlock: UVAHIK_clean_linker_0, # of connection points: 2
#     Edge 85, Type (0, 0), BuildingBlock: UVAHIK_clean_linker_0, # of connection points: 2
#     Edge 86, Type (0, 0), BuildingBlock: UVAHIK_clean_linker_0, # of connection points: 2
#     Edge 87, Type (0, 0), BuildingBlock: UVAHIK_clean_linker_0, # of connection points: 2
#     Edge 88, Type (0, 0), BuildingBlock: UVAHIK_clean_linker_0, # of connection points: 2
#     Edge 89, Type (0, 0), BuildingBlock: UVAHIK_clean_linker_0, # of connection points: 2
#     Edge 90, Type (0, 0), BuildingBlock: UVAHIK_clean_linker_0, # of connection points: 2
#     Edge 91, Type (0, 0), BuildingBlock: UVAHIK_clean_linker_0, # of connection points: 2
#     Edge 92, Type (0, 0), BuildingBlock: UVAHIK_clean_linker_0, # of connection points: 2
#     Edge 93, Type (0, 0), BuildingBlock: UVAHIK_clean_linker_0, # of connection points: 2
#     Edge 94, Type (0, 0), BuildingBlock: UVAHIK_clean_linker_0, # of connection points: 2
#     Edge 95, Type (0, 0), BuildingBlock: UVAHIK_clean_linker_0, # of connection points: 2
# Relax obj value: 0.259
# Max RMSD: 0.471
# Mean RMSD: 0.294
data_MOF--net-uoi--node1-CEKHIL_clean_sbu_0--edge1-UVAHIK_clean_linker_0
_symmetry_space_group_name_H-M    P1
_symmetry_Int_Tables_number       1
_symmetry_cell_setting            triclinic
loop_
_symmetry_equiv_pos_as_xyz
'x, y, z'
_cell_length_a     59.636592
_cell_length_b     94.904278
_cell_length_c     27.118308
_cell_angle_alpha  89.9956
_cell_angle_beta   90.004366
_cell_angle_gamma 90.00398
loop_
_atom_site_label
_atom_site_type_symbol
_atom_site_fract_x
_atom_site_fract_y
_atom_site_fract_z
_atom_type_partial_charge
Co0 Co 0.30317 0.19433 0.21903 0.0
O1 O 0.28292 0.18201 0.18516 0.0
O2 O 0.2814 0.20534 0.18218 0.0
C3 C 0.30195 0.18307 0.29133 0.0
O4 O 0.32036 0.21044 0.25197 0.0
Co5 Co 0.34873 0.18351 0.2523 0.0
O6 O 0.35162 0.20174 0.28683 0.0
C7 C 0.34338 0.191 0.14933 0.0
C8 C 0.27316 0.19324 0.16856 0.0
C9 C 0.33806 0.21182 0.27877 0.0
O10 O 0.32329 0.19463 0.15997 0.0
O11 O 0.357 0.18582 0.18083 0.0
O12 O 0.28661 0.1921 0.27909 0.0
O13 O 0.31648 0.17978 0.25753 0.0
Co14 Co 0.11881 0.91805 0.63355 0.0
O15 O 0.13671 0.91335 0.577 0.0
O16 O 0.12814 0.89862 0.63767 0.0
C17 C 0.13593 0.93878 0.6497 0.0
O18 O 0.10122 0.91881 0.69771 0.0
Co19 Co 0.08908 0.94499 0.63766 0.0
O20 O 0.08426 0.93973 0.70744 0.0
C21 C 0.07328 0.91959 0.58384 0.0
C22 C 0.13817 0.9008 0.5958 0.0
C23 C 0.08931 0.92748 0.72305 0.0
O24 O 0.09076 0.91252 0.59668 0.0
O25 O 0.0703 0.93261 0.59439 0.0
O26 O 0.14458 0.92705 0.66564 0.0
O27 O 0.11837 0.93752 0.62241 0.0
Co28 Co 0.18554 0.81141 0.71572 0.0
O29 O 0.20096 0.82619 0.68229 0.0
O30 O 0.20838 0.8035 0.67257 0.0
C31 C 0.18711 0.82111 0.79096 0.0
O32 O 0.17316 0.79328 0.74626 0.0
Co33 Co 0.13941 0.81784 0.75822 0.0
O34 O 0.1412 0.79869 0.78609 0.0
C35 C 0.14245 0.81179 0.65348 0.0
C36 C 0.21269 0.81652 0.6606 0.0
C37 C 0.1563 0.78992 0.77363 0.0
O38 O 0.16357 0.81025 0.65992 0.0
O39 O 0.129 0.81511 0.68822 0.0
O40 O 0.20377 0.81394 0.77334 0.0
O41 O 0.17079 0.8238 0.76059 0.0
Co42 Co 0.38158 0.09218 0.13363 0.0
O43 O 0.36101 0.09854 0.08392 0.0
O44 O 0.37618 0.11211 0.14159 0.0
C45 C 0.36219 0.07256 0.1536 0.0
O46 O 0.40258 0.0896 0.19193 0.0
Co47 Co 0.40649 0.06342 0.12667 0.0
O48 O 0.41633 0.06759 0.19484 0.0
C49 C 0.4239 0.08838 0.07279 0.0
C50 C 0.3629 0.11093 0.10382 0.0
C51 C 0.41423 0.07991 0.21293 0.0
O52 O 0.40804 0.09626 0.08939 0.0
O53 O 0.42545 0.07517 0.08171 0.0
O54 O 0.35666 0.08463 0.17272 0.0
O55 O 0.37796 0.07291 0.12117 0.0
Co56 Co 0.30921 0.80899 0.27975 0.0
O57 O 0.28782 0.82202 0.30541 0.0
O58 O 0.28547 0.79878 0.3134 0.0
C59 C 0.3113 0.81895 0.20497 0.0
O60 O 0.3275 0.79225 0.25501 0.0
Co61 Co 0.35592 0.81864 0.25494 0.0
O62 O 0.35839 0.80066 0.21843 0.0
C63 C 0.34592 0.8131 0.35789 0.0
C64 C 0.27695 0.81118 0.32169 0.0
C65 C 0.34502 0.79058 0.2279 0.0
O66 O 0.32625 0.80968 0.34333 0.0
O67 O 0.36107 0.81748 0.32829 0.0
O68 O 0.29566 0.81002 0.21596 0.0
O69 O 0.32435 0.82288 0.24091 0.0
Co70 Co 0.3806 0.9146 0.35401 0.0
O71 O 0.35848 0.90866 0.40098 0.0
O72 O 0.37552 0.89457 0.34759 0.0
C73 C 0.36166 0.93391 0.32911 0.0
O74 O 0.40356 0.91659 0.29918 0.0
Co75 Co 0.40505 0.94348 0.36038 0.0
O76 O 0.41782 0.93844 0.29534 0.0
C77 C 0.42008 0.91943 0.42222 0.0
C78 C 0.36104 0.89607 0.38302 0.0
C79 C 0.41619 0.92591 0.27891 0.0
O80 O 0.40534 0.91114 0.40324 0.0
O81 O 0.42175 0.93254 0.41168 0.0
O82 O 0.35704 0.92169 0.30994 0.0
O83 O 0.37646 0.93396 0.36368 0.0
Co84 Co 0.19008 0.19195 0.77375 0.0
O85 O 0.21057 0.1789 0.80291 0.0
O86 O 0.21511 0.20212 0.80233 0.0
C87 C 0.18562 0.18004 0.70335 0.0
O88 O 0.17314 0.20862 0.74446 0.0
Co89 Co 0.14192 0.18361 0.75577 0.0
O90 O 0.14041 0.20082 0.71447 0.0
C91 C 0.15471 0.19082 0.85589 0.0
C92 C 0.22258 0.18974 0.815 0.0
C93 C 0.15512 0.21045 0.71912 0.0
O94 O 0.17398 0.19377 0.83794 0.0
O95 O 0.13887 0.18574 0.82956 0.0
O96 O 0.20251 0.18844 0.70994 0.0
O97 O 0.1728 0.17779 0.74133 0.0
Co98 Co 0.11948 0.09546 0.86062 0.0
O99 O 0.14403 0.10407 0.89504 0.0
O100 O 0.11885 0.11565 0.85053 0.0
C101 C 0.13962 0.0776 0.82827 0.0
O102 O 0.09268 0.09028 0.81809 0.0
Co103 Co 0.10396 0.06494 0.88494 0.0
O104 O 0.08454 0.06728 0.82586 0.0
C105 C 0.09333 0.08822 0.95287 0.0
C106 C 0.13672 0.11599 0.87799 0.0
C107 C 0.08143 0.07927 0.80577 0.0
O108 O 0.0995 0.09737 0.92052 0.0
O109 O 0.0962 0.07493 0.94779 0.0
O110 O 0.13954 0.08983 0.80657 0.0
O111 O 0.12913 0.07696 0.86965 0.0
Co112 Co 0.6915 0.81352 0.76689 0.0
O113 O 0.70953 0.82773 0.79695 0.0
O114 O 0.71816 0.80503 0.79565 0.0
C115 C 0.68502 0.82513 0.69671 0.0
O116 O 0.67708 0.79603 0.73652 0.0
Co117 Co 0.64207 0.81958 0.75126 0.0
O118 O 0.64158 0.80137 0.71569 0.0
C119 C 0.6566 0.81282 0.85026 0.0
C120 C 0.72326 0.81778 0.80946 0.0
C121 C 0.65813 0.7929 0.71646 0.0
O122 O 0.6758 0.81044 0.83102 0.0
O123 O 0.64011 0.81757 0.82516 0.0
O124 O 0.70335 0.81801 0.70325 0.0
O125 O 0.67209 0.82659 0.73496 0.0
Co126 Co 0.87794 0.09079 0.36048 0.0
O127 O 0.85357 0.09874 0.39794 0.0
O128 O 0.87884 0.11109 0.35638 0.0
C129 C 0.85742 0.07387 0.32303 0.0
O130 O 0.90453 0.08687 0.31594 0.0
Co131 Co 0.89382 0.05972 0.37056 0.0
O132 O 0.91169 0.06372 0.31023 0.0
C133 C 0.90579 0.08078 0.44706 0.0
C134 C 0.86104 0.11097 0.38399 0.0
C135 C 0.91512 0.07642 0.29689 0.0
O136 O 0.89819 0.09097 0.42039 0.0
O137 O 0.9036 0.06777 0.43542 0.0
O138 O 0.85753 0.08662 0.30537 0.0
O139 O 0.86831 0.07208 0.36348 0.0
Co140 Co 0.81034 0.19064 0.26364 0.0
O141 O 0.79019 0.17689 0.28932 0.0
O142 O 0.7837 0.19988 0.28975 0.0
C143 C 0.81758 0.1793 0.19322 0.0
O144 O 0.82734 0.20778 0.23714 0.0
Co145 Co 0.85913 0.18287 0.25492 0.0
O146 O 0.86141 0.20016 0.21441 0.0
C147 C 0.8428 0.19002 0.35198 0.0
C148 C 0.77707 0.1872 0.30112 0.0
C149 C 0.84637 0.20967 0.21553 0.0
O150 O 0.82427 0.19266 0.33021 0.0
O151 O 0.85978 0.18512 0.32893 0.0
O152 O 0.8 0.18722 0.19809 0.0
O153 O 0.82921 0.17696 0.233 0.0
Co154 Co 0.62112 0.90992 0.85459 0.0
O155 O 0.64394 0.90234 0.89717 0.0
O156 O 0.62415 0.88999 0.84295 0.0
C157 C 0.64055 0.92919 0.83086 0.0
O158 O 0.59717 0.91359 0.80314 0.0
Co159 Co 0.59881 0.93922 0.87023 0.0
O160 O 0.58391 0.93569 0.80608 0.0
C161 C 0.58306 0.9144 0.92714 0.0
C162 C 0.63959 0.89025 0.87669 0.0
C163 C 0.58458 0.92349 0.78657 0.0
O164 O 0.59719 0.9062 0.90565 0.0
O165 O 0.58188 0.92769 0.91952 0.0
O166 O 0.64405 0.91714 0.80937 0.0
O167 O 0.62683 0.92899 0.86755 0.0
Co168 Co 0.69668 0.19558 0.70684 0.0
O169 O 0.71765 0.18377 0.67316 0.0
O170 O 0.71684 0.20709 0.66739 0.0
C171 C 0.70053 0.18494 0.78008 0.0
O172 O 0.6782 0.21125 0.739 0.0
Co173 Co 0.6532 0.18345 0.74675 0.0
O174 O 0.6525 0.20081 0.78701 0.0
C175 C 0.65514 0.19088 0.64256 0.0
C176 C 0.72621 0.1952 0.65514 0.0
C177 C 0.66321 0.21171 0.77318 0.0
O178 O 0.67557 0.19454 0.64945 0.0
O179 O 0.64261 0.18602 0.67678 0.0
O180 O 0.71441 0.19462 0.76581 0.0
O181 O 0.68571 0.18083 0.74801 0.0
Co182 Co 0.61866 0.08865 0.63592 0.0
O183 O 0.63853 0.09366 0.58297 0.0
O184 O 0.62596 0.10847 0.63976 0.0
C185 C 0.63697 0.06867 0.65642 0.0
O186 O 0.59872 0.0876 0.69665 0.0
Co187 Co 0.59139 0.06072 0.63692 0.0
O188 O 0.58357 0.0661 0.70527 0.0
C189 C 0.5752 0.08527 0.57901 0.0
C190 C 0.63811 0.10637 0.60064 0.0
C191 C 0.58686 0.07861 0.72068 0.0
O192 O 0.59171 0.09296 0.59351 0.0
O193 O 0.57289 0.07225 0.59039 0.0
O194 O 0.6438 0.08071 0.67366 0.0
O195 O 0.62041 0.06917 0.62603 0.0
Co196 Co 0.80065 0.80796 0.21192 0.0
O197 O 0.77796 0.81951 0.1829 0.0
O198 O 0.77939 0.7962 0.17671 0.0
C199 C 0.79991 0.81856 0.28558 0.0
O200 O 0.82064 0.79246 0.23994 0.0
Co201 Co 0.8454 0.8202 0.24019 0.0
O202 O 0.84946 0.80267 0.27885 0.0
C203 C 0.83777 0.81425 0.13664 0.0
C204 C 0.7693 0.80797 0.16597 0.0
C205 C 0.83764 0.79187 0.26912 0.0
O206 O 0.81875 0.80933 0.15002 0.0
O207 O 0.85162 0.8197 0.16712 0.0
O208 O 0.78578 0.80868 0.27437 0.0
O209 O 0.81308 0.82287 0.25043 0.0
Co210 Co 0.88704 0.9148 0.13022 0.0
O211 O 0.86786 0.90881 0.07722 0.0
O212 O 0.87864 0.89532 0.1396 0.0
C213 C 0.86953 0.93565 0.14291 0.0
O214 O 0.90586 0.91698 0.19223 0.0
Co215 Co 0.91586 0.94211 0.12577 0.0
O216 O 0.92203 0.93829 0.19619 0.0
C217 C 0.93186 0.91583 0.07755 0.0
C218 C 0.86728 0.89661 0.09895 0.0
C219 C 0.91774 0.92627 0.21477 0.0
O220 O 0.91453 0.90888 0.09202 0.0
O221 O 0.93472 0.92901 0.08547 0.0
O222 O 0.86166 0.9242 0.16277 0.0
O223 O 0.88661 0.93403 0.11445 0.0
Co224 Co 0.81236 0.69574 0.71923 0.0
O225 O 0.79286 0.68165 0.69317 0.0
O226 O 0.78774 0.70465 0.68385 0.0
C227 C 0.81474 0.68613 0.79459 0.0
O228 O 0.82844 0.71339 0.74438 0.0
Co229 Co 0.85975 0.68807 0.74663 0.0
O230 O 0.86054 0.70652 0.78016 0.0
C231 C 0.85036 0.69312 0.64327 0.0
C232 C 0.7808 0.69184 0.67588 0.0
C233 C 0.84602 0.71595 0.77053 0.0
O234 O 0.83014 0.69561 0.65651 0.0
O235 O 0.86568 0.68958 0.67375 0.0
O236 O 0.79826 0.69431 0.78236 0.0
O237 O 0.82855 0.68267 0.75948 0.0
Co238 Co 0.61366 0.40816 0.14478 0.0
O239 O 0.63226 0.401 0.09247 0.0
O240 O 0.61841 0.38826 0.15395 0.0
C241 C 0.63428 0.42755 0.16137 0.0
O242 O 0.59453 0.41129 0.20554 0.0
Co243 Co 0.58962 0.43721 0.1406 0.0
O244 O 0.58082 0.43326 0.20968 0.0
C245 C 0.57028 0.41255 0.08828 0.0
C246 C 0.63026 0.38879 0.11382 0.0
C247 C 0.58339 0.42097 0.22772 0.0
O248 O 0.58591 0.40438 0.10425 0.0
O249 O 0.56957 0.42581 0.09677 0.0
O250 O 0.63991 0.41543 0.18001 0.0
O251 O 0.61768 0.42737 0.13095 0.0
Co252 Co 0.69487 0.30856 0.21739 0.0
O253 O 0.71512 0.32185 0.18858 0.0
O254 O 0.71951 0.29864 0.18613 0.0
C255 C 0.6911 0.31953 0.28971 0.0
O256 O 0.67819 0.29168 0.24603 0.0
Co257 Co 0.64693 0.31702 0.2374 0.0
O258 O 0.64442 0.29882 0.27271 0.0
C259 C 0.65885 0.31072 0.13646 0.0
C260 C 0.72689 0.31111 0.17442 0.0
C261 C 0.65957 0.28945 0.26874 0.0
O262 O 0.67808 0.30738 0.15378 0.0
O263 O 0.64326 0.31573 0.1636 0.0
O264 O 0.70801 0.31133 0.28092 0.0
O265 O 0.67802 0.32238 0.25259 0.0
Co266 Co 0.88208 0.58765 0.6379 0.0
O267 O 0.85897 0.59318 0.59238 0.0
O268 O 0.87975 0.60793 0.63629 0.0
C269 C 0.86186 0.57039 0.6741 0.0
O270 O 0.90654 0.58646 0.68962 0.0
Co271 Co 0.90291 0.55772 0.64234 0.0
O272 O 0.91703 0.56419 0.70474 0.0
C273 C 0.91487 0.57741 0.56131 0.0
C274 C 0.8637 0.60609 0.60455 0.0
C275 C 0.91772 0.57732 0.71437 0.0
O276 O 0.90514 0.58778 0.58331 0.0
O277 O 0.9139 0.56467 0.5768 0.0
O278 O 0.85938 0.58338 0.68843 0.0
O279 O 0.87543 0.56842 0.6379 0.0
Co280 Co 0.80539 0.31065 0.78503 0.0
O281 O 0.78835 0.32391 0.82229 0.0
O282 O 0.78278 0.30083 0.82338 0.0
C283 C 0.80409 0.3224 0.71373 0.0
O284 O 0.81946 0.29385 0.74923 0.0
Co285 Co 0.85155 0.31911 0.74817 0.0
O286 O 0.84836 0.30235 0.70536 0.0
C287 C 0.84717 0.31137 0.85135 0.0
C288 C 0.77719 0.31328 0.83946 0.0
C289 C 0.83473 0.29248 0.71596 0.0
O290 O 0.82662 0.30869 0.84163 0.0
O291 O 0.86082 0.31616 0.81908 0.0
O292 O 0.78772 0.31431 0.7274 0.0
O293 O 0.81989 0.32458 0.7459 0.0
Co294 Co 0.88117 0.41272 0.86352 0.0
O295 O 0.86291 0.40576 0.91655 0.0
O296 O 0.87456 0.393 0.85307 0.0
C297 C 0.86187 0.43296 0.852 0.0
O298 O 0.89985 0.4159 0.80178 0.0
Co299 Co 0.90751 0.44099 0.87037 0.0
O300 O 0.91473 0.43762 0.80016 0.0
C301 C 0.92549 0.41512 0.91768 0.0
C302 C 0.8637 0.3936 0.89458 0.0
C303 C 0.91138 0.42561 0.78052 0.0
O304 O 0.90911 0.40762 0.90145 0.0
O305 O 0.92711 0.42844 0.91119 0.0
O306 O 0.85498 0.42135 0.83146 0.0
O307 O 0.87901 0.43179 0.88053 0.0
Co308 Co 0.68837 0.6934 0.2789 0.0
O309 O 0.70415 0.67853 0.31088 0.0
O310 O 0.71185 0.70117 0.32078 0.0
C311 C 0.6889 0.68382 0.20345 0.0
O312 O 0.67571 0.71158 0.24944 0.0
Co313 Co 0.6417 0.68715 0.23961 0.0
O314 O 0.64331 0.70624 0.21126 0.0
C315 C 0.6462 0.69302 0.34409 0.0
C316 C 0.71626 0.6881 0.33202 0.0
C317 C 0.65861 0.71497 0.22285 0.0
O318 O 0.66721 0.69449 0.33612 0.0
O319 O 0.63221 0.68978 0.31027 0.0
O320 O 0.70578 0.69097 0.22014 0.0
O321 O 0.67298 0.68106 0.23478 0.0
Co322 Co 0.61812 0.58672 0.3603 0.0
O323 O 0.63737 0.59096 0.41503 0.0
O324 O 0.62665 0.60638 0.35828 0.0
C325 C 0.63561 0.56654 0.33899 0.0
O326 O 0.59877 0.58643 0.29854 0.0
Co327 Co 0.58942 0.55939 0.35668 0.0
O328 O 0.58229 0.56536 0.28857 0.0
C329 C 0.57404 0.58395 0.41547 0.0
C330 C 0.63786 0.60378 0.39841 0.0
C331 C 0.58643 0.57784 0.27387 0.0
O332 O 0.59094 0.59138 0.40154 0.0
O333 O 0.57124 0.571 0.40363 0.0
O334 O 0.64324 0.57856 0.32327 0.0
O335 O 0.61883 0.56714 0.36878 0.0
Co336 Co 0.19075 0.30553 0.28134 0.0
O337 O 0.21309 0.31756 0.30898 0.0
O338 O 0.2123 0.29431 0.31813 0.0
C339 C 0.19173 0.31534 0.20623 0.0
O340 O 0.17096 0.28962 0.25521 0.0
Co341 Co 0.14603 0.31726 0.2502 0.0
O342 O 0.14356 0.29973 0.21123 0.0
C343 C 0.15262 0.3115 0.35431 0.0
C344 C 0.22213 0.30629 0.32701 0.0
C345 C 0.15481 0.28893 0.22378 0.0
O346 O 0.17237 0.3074 0.34274 0.0
O347 O 0.13858 0.3161 0.32259 0.0
O348 O 0.20587 0.30564 0.21909 0.0
O349 O 0.17835 0.31997 0.2405 0.0
Co350 Co 0.38271 0.59273 0.8634 0.0
O351 O 0.36308 0.59863 0.9155 0.0
O352 O 0.37476 0.61231 0.85439 0.0
C353 C 0.36525 0.57206 0.84754 0.0
O354 O 0.40259 0.59052 0.80292 0.0
Co355 Co 0.41091 0.56511 0.87104 0.0
O356 O 0.41852 0.56907 0.80142 0.0
C357 C 0.42628 0.59117 0.92123 0.0
C358 C 0.36319 0.61097 0.89477 0.0
C359 C 0.41485 0.58109 0.78208 0.0
O360 O 0.40965 0.59831 0.90417 0.0
O361 O 0.42896 0.57794 0.91405 0.0
O362 O 0.35767 0.58369 0.82832 0.0
O363 O 0.38165 0.57351 0.87798 0.0
Co364 Co 0.30576 0.69603 0.78552 0.0
O365 O 0.285 0.68356 0.81712 0.0
O366 O 0.28376 0.70687 0.82228 0.0
C367 C 0.30511 0.68529 0.7122 0.0
O368 O 0.3235 0.7123 0.75508 0.0
Co369 Co 0.35144 0.68536 0.75398 0.0
O370 O 0.35387 0.70335 0.71764 0.0
C371 C 0.34511 0.69199 0.85733 0.0
C372 C 0.27525 0.69472 0.83434 0.0
C373 C 0.3408 0.7136 0.72697 0.0
O374 O 0.32519 0.69575 0.84564 0.0
O375 O 0.35908 0.68705 0.82611 0.0
O376 O 0.28983 0.69436 0.72446 0.0
O377 O 0.31926 0.68167 0.74641 0.0
Co378 Co 0.11663 0.41546 0.35917 0.0
O379 O 0.13724 0.40998 0.41021 0.0
O380 O 0.12351 0.39568 0.35302 0.0
C381 C 0.13478 0.43549 0.33814 0.0
O382 O 0.09603 0.41691 0.29987 0.0
Co383 Co 0.08955 0.44348 0.36111 0.0
O384 O 0.08039 0.43832 0.2933 0.0
C385 C 0.07382 0.41869 0.41847 0.0
C386 C 0.13644 0.39743 0.39109 0.0
C387 C 0.08375 0.42591 0.27705 0.0
O388 O 0.09018 0.41103 0.403 0.0
O389 O 0.07143 0.43174 0.40771 0.0
O390 O 0.14132 0.42345 0.32035 0.0
O391 O 0.1187 0.43494 0.36978 0.0
Co392 Co 0.19315 0.69497 0.22533 0.0
O393 O 0.21344 0.68178 0.19653 0.0
O394 O 0.21812 0.70498 0.19551 0.0
C395 C 0.18882 0.68352 0.29665 0.0
O396 O 0.17625 0.71172 0.2544 0.0
Co397 Co 0.14505 0.6863 0.24302 0.0
O398 O 0.14219 0.70441 0.27875 0.0
C399 C 0.15803 0.6928 0.14281 0.0
C400 C 0.2254 0.69252 0.18328 0.0
C401 C 0.15735 0.71382 0.27614 0.0
O402 O 0.17691 0.69646 0.16114 0.0
O403 O 0.14236 0.68749 0.16903 0.0
O404 O 0.20577 0.69181 0.28918 0.0
O405 O 0.17603 0.68096 0.25884 0.0
Co406 Co 0.12307 0.59405 0.13471 0.0
O407 O 0.14737 0.60275 0.09967 0.0
O408 O 0.12405 0.61395 0.14994 0.0
C409 C 0.1424 0.57496 0.16027 0.0
O410 O 0.09693 0.58871 0.17875 0.0
Co411 Co 0.10464 0.56463 0.10425 0.0
O412 O 0.08696 0.56616 0.16622 0.0
C413 C 0.09373 0.58968 0.04471 0.0
C414 C 0.14118 0.61446 0.12034 0.0
C415 C 0.08518 0.57778 0.18956 0.0
O416 O 0.10186 0.59783 0.07816 0.0
O417 O 0.09549 0.57624 0.04582 0.0
O418 O 0.14388 0.58673 0.18471 0.0
O419 O 0.13105 0.57551 0.11996 0.0
Co420 Co 0.31586 0.31184 0.71681 0.0
O421 O 0.30239 0.32702 0.68136 0.0
O422 O 0.29213 0.30467 0.67468 0.0
C423 C 0.31548 0.3222 0.79086 0.0
O424 O 0.32557 0.29345 0.74981 0.0
Co425 Co 0.36274 0.3161 0.76003 0.0
O426 O 0.35847 0.29716 0.7885 0.0
C427 C 0.35907 0.30966 0.65548 0.0
C428 C 0.28929 0.31774 0.6614 0.0
C429 C 0.34196 0.28932 0.77719 0.0
O430 O 0.33781 0.309 0.66162 0.0
O431 O 0.37275 0.31268 0.69015 0.0
O432 O 0.29786 0.31592 0.77366 0.0
O433 O 0.33224 0.32367 0.76063 0.0
Co434 Co 0.37943 0.41197 0.64224 0.0
O435 O 0.36127 0.40683 0.58663 0.0
O436 O 0.36981 0.39262 0.64887 0.0
C437 C 0.36297 0.43306 0.65634 0.0
O438 O 0.39746 0.41336 0.70581 0.0
Co439 Co 0.40968 0.43883 0.64117 0.0
O440 O 0.41451 0.4344 0.71162 0.0
C441 C 0.42459 0.41269 0.59075 0.0
C442 C 0.35985 0.39443 0.60669 0.0
C443 C 0.40955 0.42236 0.72933 0.0
O444 O 0.40718 0.40585 0.60536 0.0
O445 O 0.42785 0.4258 0.59914 0.0
O446 O 0.35396 0.42161 0.67372 0.0
O447 O 0.38025 0.43124 0.62865 0.0
C448 C 0.17778 0.17642 0.61531 0.0
C449 C 0.18596 0.17097 0.65976 0.0
C450 C 0.18742 0.17228 0.57063 0.0
C451 C 0.23306 0.15081 0.5124 0.0
H452 H 0.24899 0.18717 0.45743 0.0
C453 C 0.28596 0.16261 0.33501 0.0
C454 C 0.29882 0.17499 0.33674 0.0
C455 C 0.27384 0.15824 0.37654 0.0
C456 C 0.24488 0.17693 0.47258 0.0
H457 H 0.20854 0.15584 0.69274 0.0
H458 H 0.2256 0.14871 0.61503 0.0
H459 H 0.21984 0.18575 0.51905 0.0
H460 H 0.31112 0.1917 0.38355 0.0
H461 H 0.29076 0.18383 0.45661 0.0
H462 H 0.2588 0.14216 0.46561 0.0
C463 C 0.2116 0.15597 0.61404 0.0
C464 C 0.22777 0.17606 0.50722 0.0
C465 C 0.20173 0.16 0.65864 0.0
C466 C 0.30157 0.182 0.38173 0.0
C467 C 0.28967 0.17759 0.42324 0.0
C468 C 0.25021 0.15167 0.47701 0.0
C469 C 0.20575 0.16291 0.57012 0.0
C470 C 0.22173 0.16304 0.52803 0.0
C471 C 0.27447 0.16629 0.42 0.0
C472 C 0.25656 0.16482 0.4576 0.0
H473 H 0.16586 0.18504 0.61545 0.0
H474 H 0.18219 0.17757 0.53714 0.0
H475 H 0.22885 0.14063 0.52795 0.0
H476 H 0.28324 0.15725 0.30023 0.0
H477 H 0.26226 0.14951 0.37299 0.0
C478 C 0.15712 0.95469 0.70724 0.0
C479 C 0.14402 0.95283 0.66472 0.0
C480 C 0.16263 0.96828 0.72336 0.0
C481 C 0.16569 0.00565 0.6849 0.0
H482 H 0.14798 0.01357 0.81949 0.0
C483 C 0.1458 0.06188 0.75538 0.0
C484 C 0.14858 0.06468 0.80577 0.0
C485 C 0.15038 0.0484 0.73678 0.0
C486 C 0.15358 0.01158 0.78216 0.0
H487 H 0.12739 0.96359 0.60437 0.0
H488 H 0.13723 0.98719 0.63207 0.0
H489 H 0.14758 0.98947 0.78981 0.0
H490 H 0.15994 0.05619 0.8755 0.0
H491 H 0.16914 0.03303 0.84287 0.0
H492 H 0.17149 0.02781 0.67703 0.0
C493 C 0.14321 0.97823 0.65305 0.0
C494 C 0.15328 0.99771 0.76517 0.0
C495 C 0.13743 0.96471 0.63744 0.0
C496 C 0.15748 0.0542 0.83651 0.0
C497 C 0.16252 0.04089 0.81785 0.0
C498 C 0.16627 0.01956 0.70208 0.0
C499 C 0.15547 0.98018 0.69668 0.0
C500 C 0.15889 0.99463 0.71613 0.0
C501 C 0.15816 0.03761 0.7682 0.0
C502 C 0.15981 0.02274 0.75072 0.0
H503 H 0.16238 0.94569 0.72895 0.0
H504 H 0.17216 0.96951 0.75709 0.0
H505 H 0.17023 0.00354 0.64694 0.0
H506 H 0.13873 0.06979 0.73113 0.0
H507 H 0.14663 0.04628 0.69844 0.0
C508 C 0.29427 0.83863 0.15928 0.0
C509 C 0.30864 0.82691 0.15908 0.0
C510 C 0.2821 0.84219 0.1169 0.0
C511 C 0.25766 0.82191 0.01679 0.0
H512 H 0.23345 0.85747 0.97075 0.0
C513 C 0.1858 0.82059 0.88173 0.0
C514 C 0.19016 0.82817 0.83851 0.0
C515 C 0.19745 0.82374 0.92511 0.0
C516 C 0.24003 0.84747 0.98342 0.0
H517 H 0.32359 0.81072 0.1138 0.0
H518 H 0.30337 0.81734 0.03905 0.0
H519 H 0.26393 0.85735 0.03174 0.0
H520 H 0.20853 0.84564 0.80712 0.0
H521 H 0.22891 0.85121 0.88267 0.0
H522 H 0.23429 0.81195 0.96872 0.0
C523 C 0.30095 0.82358 0.07207 0.0
C524 C 0.25749 0.8474 0.01822 0.0
C525 C 0.31286 0.81994 0.11454 0.0
C526 C 0.20454 0.83987 0.84047 0.0
C527 C 0.21633 0.84298 0.88372 0.0
C528 C 0.24027 0.82197 0.98255 0.0
C529 C 0.28422 0.83404 0.07383 0.0
C530 C 0.26663 0.83459 0.03492 0.0
C531 C 0.21397 0.83436 0.92555 0.0
C532 C 0.23118 0.83472 0.96535 0.0
H533 H 0.29038 0.84394 0.19362 0.0
H534 H 0.2694 0.85031 0.11954 0.0
H535 H 0.26385 0.81183 0.02967 0.0
H536 H 0.17512 0.81135 0.88075 0.0
H537 H 0.1949 0.8171 0.95709 0.0
C538 C 0.35551 0.04697 0.14123 0.0
C539 C 0.35326 0.05897 0.17114 0.0
C540 C 0.34958 0.03369 0.15898 0.0
C541 C 0.34911 0.01439 0.27317 0.0
H542 H 0.31969 0.98517 0.19691 0.0
C543 C 0.34782 0.958 0.34562 0.0
C544 C 0.35214 0.94727 0.3114 0.0
C545 C 0.34212 0.9715 0.32977 0.0
C546 C 0.32808 0.99317 0.21856 0.0
H547 H 0.34226 0.06663 0.24236 0.0
H548 H 0.33231 0.04322 0.27409 0.0
H549 H 0.31992 0.00944 0.16658 0.0
H550 H 0.35311 0.94192 0.23393 0.0
H551 H 0.34419 0.96577 0.20562 0.0
H552 H 0.35859 0.99825 0.32355 0.0
C553 C 0.33851 0.04418 0.2367 0.0
C554 C 0.32805 0.00708 0.20133 0.0
C555 C 0.34411 0.05754 0.21856 0.0
C556 C 0.34967 0.95005 0.26093 0.0
C557 C 0.34449 0.96371 0.24488 0.0
C558 C 0.34941 1.00051 0.29003 0.0
C559 C 0.34158 0.03211 0.20731 0.0
C560 C 0.33884 0.01778 0.2282 0.0
C561 C 0.3413 0.97471 0.27917 0.0
C562 C 0.33914 0.98965 0.26272 0.0
H563 H 0.36243 0.04779 0.10439 0.0
H564 H 0.35236 0.02458 0.1357 0.0
H565 H 0.35794 0.02237 0.29417 0.0
H566 H 0.3494 0.95603 0.38483 0.0
H567 H 0.33907 0.97952 0.35734 0.0
C568 C 0.78297 0.83929 0.32616 0.0
C569 C 0.79543 0.82679 0.33014 0.0
C570 C 0.7697 0.84386 0.3657 0.0
C571 C 0.73813 0.82601 0.4607 0.0
H572 H 0.72302 0.86281 0.513 0.0
C573 C 0.67415 0.82758 0.6097 0.0
C574 C 0.68324 0.83373 0.65213 0.0
C575 C 0.68239 0.83132 0.56323 0.0
C576 C 0.72694 0.85249 0.49832 0.0
H577 H 0.8059 0.8101 0.3792 0.0
H578 H 0.78367 0.81838 0.44891 0.0
H579 H 0.75303 0.86057 0.45129 0.0
H580 H 0.70571 0.84976 0.67973 0.0
H581 H 0.72039 0.85616 0.59921 0.0
H582 H 0.71299 0.8177 0.50797 0.0
C583 C 0.78363 0.8245 0.41518 0.0
C584 C 0.74412 0.85122 0.46318 0.0
C585 C 0.79662 0.81987 0.37564 0.0
C586 C 0.69825 0.84503 0.64726 0.0
C587 C 0.70675 0.84864 0.60095 0.0
C588 C 0.72103 0.82727 0.49526 0.0
C589 C 0.76886 0.83594 0.40943 0.0
C590 C 0.75027 0.83788 0.44518 0.0
C591 C 0.70026 0.84097 0.55895 0.0
C592 C 0.71544 0.84046 0.51537 0.0
H593 H 0.78146 0.84459 0.29092 0.0
H594 H 0.75851 0.85272 0.36028 0.0
H595 H 0.74205 0.81563 0.44651 0.0
H596 H 0.66276 0.81872 0.6127 0.0
H597 H 0.67654 0.82552 0.53133 0.0
C598 C 0.84225 0.04959 0.32279 0.0
C599 C 0.84902 0.06149 0.2959 0.0
C600 C 0.83845 0.03677 0.29913 0.0
C601 C 0.85994 0.01731 0.19493 0.0
H602 H 0.81511 0.98962 0.23171 0.0
C603 C 0.86551 0.96092 0.12096 0.0
C604 C 0.8611 0.94992 0.1542 0.0
C605 C 0.85975 0.97477 0.13248 0.0
C606 C 0.82784 0.99719 0.2213 0.0
H607 H 0.85609 0.0696 0.22294 0.0
H608 H 0.84971 0.04697 0.18116 0.0
H609 H 0.81157 0.01391 0.26071 0.0
H610 H 0.84655 0.94467 0.22495 0.0
H611 H 0.83715 0.96905 0.24626 0.0
H612 H 0.87693 1.00063 0.15784 0.0
C613 C 0.84723 0.04763 0.22066 0.0
C614 C 0.8257 0.01113 0.23761 0.0
C615 C 0.8507 0.06058 0.2444 0.0
C616 C 0.85007 0.95297 0.19863 0.0
C617 C 0.84461 0.96693 0.21063 0.0
C618 C 0.86219 0.00339 0.17905 0.0
C619 C 0.84167 0.03551 0.24806 0.0
C620 C 0.84192 0.02129 0.22515 0.0
C621 C 0.84982 0.97806 0.17805 0.0
C622 C 0.84634 0.99307 0.19249 0.0
H623 H 0.84086 0.05003 0.36261 0.0
H624 H 0.8344 0.02763 0.32136 0.0
H625 H 0.87296 0.0248 0.18556 0.0
H626 H 0.87373 0.95884 0.08608 0.0
H627 H 0.86346 0.98294 0.10583 0.0
C628 C 0.70423 0.18468 0.87031 0.0
C629 C 0.70547 0.1773 0.82571 0.0
C630 C 0.71696 0.18034 0.91072 0.0
C631 C 0.75577 0.1535 0.96191 0.0
H632 H 0.7868 0.18697 0.0074 0.0
C633 C 0.80357 0.15936 0.14505 0.0
C634 C 0.81887 0.17055 0.14891 0.0
C635 C 0.79417 0.15591 0.09937 0.0
C636 C 0.77874 0.17743 0.99455 0.0
H637 H 0.71948 0.15912 0.7888 0.0
H638 H 0.74199 0.15152 0.85959 0.0
H639 H 0.7579 0.18911 0.94559 0.0
H640 H 0.83893 0.18546 0.10802 0.0
H641 H 0.82366 0.17889 0.02776 0.0
H642 H 0.77679 0.14187 0.01181 0.0
C643 C 0.73092 0.16049 0.86375 0.0
C644 C 0.76173 0.17871 0.95978 0.0
C645 C 0.71793 0.16477 0.82336 0.0
C646 C 0.82734 0.17668 0.10582 0.0
C647 C 0.81824 0.17309 0.06001 0.0
C648 C 0.77286 0.1522 0.99727 0.0
C649 C 0.73157 0.16875 0.90675 0.0
C650 C 0.74972 0.16685 0.94369 0.0
C651 C 0.80012 0.16359 0.05701 0.0
C652 C 0.78442 0.1642 0.01433 0.0
H653 H 0.69496 0.19448 0.87259 0.0
H654 H 0.71674 0.18674 0.94382 0.0
H655 H 0.74693 0.14416 0.94977 0.0
H656 H 0.79653 0.15466 0.17803 0.0
H657 H 0.78037 0.1485 0.09855 0.0
C658 C 0.64914 0.95461 0.84205 0.0
C659 C 0.6488 0.94272 0.81119 0.0
C660 C 0.65408 0.96791 0.82303 0.0
C661 C 0.6469 0.9877 0.71075 0.0
H662 H 0.68274 0.01623 0.77618 0.0
C663 C 0.64714 0.04402 0.6371 0.0
C664 C 0.64614 0.05496 0.67178 0.0
C665 C 0.65259 0.03037 0.65162 0.0
C666 C 0.67252 0.00843 0.75766 0.0
H667 H 0.6542 0.93528 0.73664 0.0
H668 H 0.66244 0.95872 0.70289 0.0
H669 H 0.68348 0.99192 0.80611 0.0
H670 H 0.65076 0.06044 0.7485 0.0
H671 H 0.65933 0.03634 0.7748 0.0
H672 H 0.6348 0.0041 0.66422 0.0
C673 C 0.65902 0.95766 0.74195 0.0
C674 C 0.67309 0.99449 0.7746 0.0
C675 C 0.65442 0.94427 0.76123 0.0
C676 C 0.65162 0.05216 0.72108 0.0
C677 C 0.65657 0.03835 0.73598 0.0
C678 C 0.64608 1.00161 0.69426 0.0
C679 C 0.65847 0.96964 0.77256 0.0
C680 C 0.6601 0.98403 0.75156 0.0
C681 C 0.65651 0.0272 0.70154 0.0
C682 C 0.65873 0.01222 0.71767 0.0
H683 H 0.64493 0.9537 0.88079 0.0
H684 H 0.65331 0.97694 0.8474 0.0
H685 H 0.63635 0.97992 0.69291 0.0
H686 H 0.6432 0.04599 0.59869 0.0
H687 H 0.65309 0.02221 0.62372 0.0
C688 C 0.79808 0.66633 0.84 0.0
C689 C 0.81231 0.67811 0.84039 0.0
C690 C 0.78591 0.66268 0.88225 0.0
C691 C 0.76121 0.68286 0.98232 0.0
H692 H 0.73595 0.64728 0.0254 0.0
C693 C 0.68788 0.68429 0.11282 0.0
C694 C 0.69162 0.67661 0.15611 0.0
C695 C 0.69989 0.68109 0.07 0.0
C696 C 0.74284 0.65728 0.01357 0.0
H697 H 0.8271 0.6943 0.88593 0.0
H698 H 0.80692 0.6875 0.96055 0.0
H699 H 0.76709 0.64744 0.96608 0.0
H700 H 0.70912 0.65886 0.18796 0.0
H701 H 0.73017 0.65323 0.11338 0.0
H702 H 0.73748 0.69278 0.02961 0.0
C703 C 0.80457 0.68129 0.92743 0.0
C704 C 0.76067 0.65737 0.97973 0.0
C705 C 0.81648 0.68504 0.88503 0.0
C706 C 0.70561 0.66472 0.15455 0.0
C707 C 0.71781 0.66158 0.11186 0.0
C708 C 0.74346 0.68277 0.01565 0.0
C709 C 0.7879 0.67079 0.92542 0.0
C710 C 0.77014 0.6702 0.96398 0.0
C711 C 0.71619 0.67034 0.07023 0.0
C712 C 0.73395 0.67002 0.03165 0.0
H713 H 0.79424 0.66104 0.80558 0.0
H714 H 0.77327 0.65453 0.87937 0.0
H715 H 0.76764 0.69295 0.97019 0.0
H716 H 0.6775 0.69367 0.11351 0.0
H717 H 0.69787 0.68784 0.03808 0.0
C718 C 0.64573 0.54177 0.35657 0.0
C719 C 0.64428 0.55282 0.32249 0.0
C720 C 0.65096 0.52816 0.34104 0.0
C721 C 0.66862 0.50667 0.23139 0.0
H722 H 0.63502 0.47767 0.29998 0.0
C723 C 0.64168 0.4531 0.14915 0.0
C724 C 0.64343 0.44107 0.17911 0.0
C725 C 0.64736 0.46637 0.1675 0.0
C726 C 0.64483 0.4856 0.28098 0.0
H727 H 0.64769 0.55859 0.24573 0.0
H728 H 0.65561 0.5346 0.21765 0.0
H729 H 0.63396 0.5017 0.33006 0.0
H730 H 0.65324 0.43336 0.25111 0.0
H731 H 0.66261 0.45674 0.28389 0.0
H732 H 0.67806 0.49044 0.18027 0.0
C733 C 0.65355 0.53644 0.25677 0.0
C734 C 0.64433 0.49944 0.29829 0.0
C735 C 0.64893 0.5502 0.27268 0.0
C736 C 0.65185 0.44246 0.2272 0.0
C737 C 0.65711 0.45581 0.24595 0.0
C738 C 0.66875 0.49282 0.21353 0.0
C739 C 0.65407 0.52515 0.29067 0.0
C740 C 0.65606 0.51023 0.2736 0.0
C741 C 0.65449 0.46791 0.2165 0.0
C742 C 0.65669 0.48219 0.23798 0.0
H743 H 0.64242 0.54361 0.39533 0.0
H744 H 0.65196 0.51993 0.36859 0.0
H745 H 0.67816 0.51459 0.21177 0.0
H746 H 0.63526 0.4523 0.11187 0.0
H747 H 0.64498 0.47551 0.14417 0.0
C748 C 0.68661 0.32038 0.37949 0.0
C749 C 0.6914 0.32759 0.33571 0.0
C750 C 0.69703 0.32434 0.42348 0.0
C751 C 0.73645 0.34934 0.48425 0.0
H752 H 0.76339 0.31453 0.53018 0.0
C753 C 0.78547 0.34123 0.66686 0.0
C754 C 0.80154 0.33042 0.66795 0.0
C755 C 0.77456 0.34466 0.62282 0.0
C756 C 0.75633 0.32439 0.51741 0.0
H757 H 0.70884 0.34538 0.30393 0.0
H758 H 0.72708 0.35237 0.38083 0.0
H759 H 0.73508 0.31376 0.46637 0.0
H760 H 0.82043 0.31565 0.62382 0.0
H761 H 0.80201 0.32195 0.54637 0.0
H762 H 0.75801 0.3599 0.536 0.0
C763 C 0.71513 0.34378 0.38159 0.0
C764 C 0.73968 0.32393 0.48149 0.0
C765 C 0.70452 0.33986 0.3376 0.0
C766 C 0.8084 0.32422 0.62363 0.0
C767 C 0.79757 0.32767 0.57952 0.0
C768 C 0.75309 0.3498 0.52086 0.0
C769 C 0.71271 0.33542 0.42404 0.0
C770 C 0.7294 0.33635 0.46463 0.0
C771 C 0.77947 0.33722 0.57937 0.0
C772 C 0.76327 0.3373 0.53767 0.0
H773 H 0.67686 0.31074 0.37865 0.0
H774 H 0.69447 0.31788 0.45595 0.0
H775 H 0.72896 0.35909 0.47163 0.0
H776 H 0.77959 0.34591 0.70094 0.0
H777 H 0.7607 0.35202 0.62405 0.0
C778 C 0.84414 0.45029 0.79384 0.0
C779 C 0.85265 0.447 0.84067 0.0
C780 C 0.83891 0.46428 0.78179 0.0
C781 C 0.8541 0.50048 0.82146 0.0
H782 H 0.81026 0.51142 0.72317 0.0
C783 C 0.8493 0.5576 0.7504 0.0
C784 C 0.8517 0.55816 0.69897 0.0
C785 C 0.84368 0.54484 0.77346 0.0
C786 C 0.82245 0.50852 0.751 0.0
H787 H 0.86073 0.45541 0.91276 0.0
H788 H 0.85063 0.47955 0.89282 0.0
H789 H 0.81112 0.4871 0.75293 0.0
H790 H 0.84859 0.5463 0.63106 0.0
H791 H 0.83838 0.52426 0.67091 0.0
H792 H 0.86569 0.5218 0.8188 0.0
C793 C 0.84883 0.47158 0.86452 0.0
C794 C 0.82307 0.49457 0.76778 0.0
C795 C 0.85445 0.45771 0.87613 0.0
C796 C 0.84688 0.54611 0.67085 0.0
C797 C 0.84089 0.53351 0.69365 0.0
C798 C 0.85331 0.51442 0.80508 0.0
C799 C 0.84177 0.47517 0.81668 0.0
C800 C 0.83926 0.49029 0.80242 0.0
C801 C 0.83995 0.53259 0.74525 0.0
C802 C 0.83786 0.51852 0.7688 0.0
H803 H 0.84275 0.44221 0.76578 0.0
H804 H 0.8337 0.46663 0.74444 0.0
H805 H 0.86712 0.49761 0.84738 0.0
H806 H 0.85309 0.56674 0.77282 0.0
H807 H 0.84299 0.54442 0.81334 0.0
C808 C 0.32007 0.32129 0.88114 0.0
C809 C 0.31392 0.32899 0.83923 0.0
C810 C 0.30951 0.3239 0.92632 0.0
C811 C 0.26621 0.34601 0.99048 0.0
H812 H 0.24576 0.30943 0.03539 0.0
C813 C 0.2101 0.33507 0.16283 0.0
C814 C 0.19637 0.32307 0.16062 0.0
C815 C 0.22326 0.33889 0.12217 0.0
C816 C 0.25107 0.31976 0.02299 0.0
H817 H 0.29372 0.34622 0.812 0.0
H818 H 0.27531 0.35083 0.89047 0.0
H819 H 0.27507 0.31081 0.97405 0.0
H820 H 0.18375 0.3065 0.11358 0.0
H821 H 0.20569 0.31356 0.04174 0.0
H822 H 0.24148 0.35485 0.03917 0.0
C823 C 0.28839 0.34292 0.88923 0.0
C824 C 0.26832 0.32056 0.98852 0.0
C825 C 0.29904 0.34035 0.84422 0.0
C826 C 0.194 0.31592 0.11578 0.0
C827 C 0.20688 0.31982 0.07503 0.0
C828 C 0.24887 0.3452 0.02539 0.0
C829 C 0.29238 0.33409 0.92988 0.0
C830 C 0.27605 0.33367 0.97141 0.0
C831 C 0.22277 0.33074 0.07888 0.0
C832 C 0.24087 0.33203 0.04137 0.0
H833 H 0.33117 0.31229 0.87787 0.0
H834 H 0.31334 0.3171 0.95729 0.0
H835 H 0.27176 0.35628 0.97805 0.0
H836 H 0.21257 0.34051 0.19753 0.0
H837 H 0.2353 0.34735 0.12635 0.0
C838 C 0.34125 0.44976 0.71077 0.0
C839 C 0.35651 0.4474 0.67213 0.0
C840 C 0.33767 0.46347 0.7286 0.0
C841 C 0.36922 0.49551 0.74404 0.0
H842 H 0.31317 0.51535 0.76548 0.0
C843 C 0.36703 0.54603 0.85567 0.0
C844 C 0.35825 0.55787 0.83123 0.0
C845 C 0.3631 0.53251 0.8378 0.0
C846 C 0.32888 0.50989 0.75953 0.0
H847 H 0.37876 0.4576 0.61971 0.0
H848 H 0.37273 0.48125 0.6511 0.0
H849 H 0.31279 0.49147 0.72949 0.0
H850 H 0.33728 0.56476 0.77058 0.0
H851 H 0.33032 0.54084 0.73905 0.0
H852 H 0.38541 0.51364 0.77409 0.0
C853 C 0.36368 0.47258 0.66787 0.0
C854 C 0.32865 0.49626 0.73937 0.0
C855 C 0.36713 0.45901 0.65 0.0
C856 C 0.34431 0.55583 0.79003 0.0
C857 C 0.34027 0.54218 0.77214 0.0
C858 C 0.36942 0.50893 0.7647 0.0
C859 C 0.34942 0.47491 0.70812 0.0
C860 C 0.34889 0.48904 0.73114 0.0
C861 C 0.35022 0.53046 0.79515 0.0
C862 C 0.34931 0.51627 0.77263 0.0
H863 H 0.33278 0.44101 0.72838 0.0
H864 H 0.32663 0.46505 0.75983 0.0
H865 H 0.38503 0.49013 0.73832 0.0
H866 H 0.37759 0.54721 0.88792 0.0
H867 H 0.37072 0.52364 0.85656 0.0
C868 C 0.1819 0.68099 0.38543 0.0
C869 C 0.1891 0.67486 0.34124 0.0
C870 C 0.1918 0.67705 0.43003 0.0
C871 C 0.23584 0.65461 0.48928 0.0
H872 H 0.25491 0.69079 0.54084 0.0
C873 C 0.28824 0.66531 0.66753 0.0
C874 C 0.30194 0.67734 0.66652 0.0
C875 C 0.27629 0.66127 0.62537 0.0
C876 C 0.24997 0.68059 0.5266 0.0
H877 H 0.21023 0.65882 0.30893 0.0
H878 H 0.22771 0.65198 0.3866 0.0
H879 H 0.22591 0.6899 0.47874 0.0
H880 H 0.31583 0.69372 0.62044 0.0
H881 H 0.2958 0.68637 0.54625 0.0
H882 H 0.26051 0.64543 0.53752 0.0
C883 C 0.21426 0.65964 0.38739 0.0
C884 C 0.23292 0.68005 0.49168 0.0
C885 C 0.20413 0.66349 0.34285 0.0
C886 C 0.30562 0.68428 0.62172 0.0
C887 C 0.29389 0.68018 0.57956 0.0
C888 C 0.25292 0.65515 0.52492 0.0
C889 C 0.20941 0.66716 0.43074 0.0
C890 C 0.22567 0.6671 0.47232 0.0
C891 C 0.27792 0.66928 0.58194 0.0
C892 C 0.26037 0.6682 0.54328 0.0
H893 H 0.17059 0.68993 0.38486 0.0
H894 H 0.18734 0.68279 0.46312 0.0
H895 H 0.23069 0.64448 0.47481 0.0
H896 H 0.2848 0.66002 0.70213 0.0
H897 H 0.26411 0.65284 0.62835 0.0
C898 C 0.13983 0.46127 0.34963 0.0
C899 C 0.14325 0.44921 0.32055 0.0
C900 C 0.14573 0.47458 0.33212 0.0
C901 C 0.1496 0.49394 0.21787 0.0
H902 H 0.17689 0.523 0.29862 0.0
C903 C 0.1554 0.55049 0.14596 0.0
C904 C 0.15026 0.56129 0.17939 0.0
C905 C 0.15969 0.53685 0.16262 0.0
C906 C 0.1691 0.51505 0.2757 0.0
H907 H 0.15612 0.44153 0.25088 0.0
H908 H 0.16606 0.465 0.21952 0.0
H909 H 0.17533 0.49875 0.32877 0.0
H910 H 0.14628 0.56653 0.25654 0.0
H911 H 0.1529 0.54253 0.28595 0.0
H912 H 0.14214 0.51016 0.16602 0.0
C913 C 0.15894 0.46406 0.25611 0.0
C914 C 0.16835 0.50115 0.29286 0.0
C915 C 0.15335 0.45066 0.27406 0.0
C916 C 0.15041 0.55838 0.23009 0.0
C917 C 0.15426 0.54462 0.24682 0.0
C918 C 0.15009 0.50784 0.20098 0.0
C919 C 0.15491 0.47616 0.28481 0.0
C920 C 0.15832 0.4905 0.26437 0.0
C921 C 0.15838 0.53359 0.21312 0.0
C922 C 0.15959 0.51863 0.22989 0.0
H923 H 0.13214 0.46046 0.38572 0.0
H924 H 0.14218 0.4837 0.35483 0.0
H925 H 0.14141 0.48601 0.1955 0.0
H926 H 0.1556 0.55252 0.10664 0.0
H927 H 0.16345 0.52878 0.13563 0.0
C928 C 0.17117 0.12912 0.90102 0.0
C929 C 0.1481 0.12926 0.89099 0.0
C930 C 0.18178 0.14111 0.91935 0.0
C931 C 0.20153 0.16975 0.94509 0.0
H932 H 0.17589 0.17932 0.07219 0.0
C933 C 0.25189 0.20023 0.09261 0.0
C934 C 0.25381 0.19192 0.13524 0.0
C935 C 0.23542 0.19712 0.05728 0.0
C936 C 0.18306 0.17696 0.03643 0.0
H937 H 0.11811 0.14213 0.89019 0.0
H938 H 0.13661 0.16307 0.92463 0.0
H939 H 0.15405 0.16539 0.01352 0.0
H940 H 0.23961 0.17445 0.17598 0.0
H941 H 0.21059 0.16931 0.1155 0.0
H942 H 0.23097 0.18058 0.96929 0.0
C943 C 0.14649 0.15374 0.91719 0.0
C944 C 0.17053 0.16907 0.00276 0.0
C945 C 0.13595 0.1418 0.89756 0.0
C946 C 0.23837 0.18103 0.14343 0.0
C947 C 0.22168 0.17816 0.10896 0.0
C948 C 0.21393 0.1778 0.97853 0.0
C949 C 0.16943 0.15339 0.92907 0.0
C950 C 0.18008 0.16483 0.9578 0.0
C951 C 0.22038 0.1859 0.06494 0.0
C952 C 0.20521 0.18091 0.02537 0.0
H953 H 0.18092 0.11959 0.89599 0.0
H954 H 0.19941 0.14048 0.92875 0.0
H955 H 0.20921 0.16667 0.91053 0.0
H956 H 0.26385 0.20857 0.08532 0.0
H957 H 0.23485 0.20317 0.02342 0.0
C958 C 0.2393 0.82154 0.32467 0.0
C959 C 0.25581 0.81342 0.34789 0.0
C960 C 0.22252 0.82794 0.35235 0.0
C961 C 0.1978 0.8329 0.4767 0.0
H962 H 0.20025 0.87217 0.43745 0.0
C963 C 0.15913 0.8779 0.59518 0.0
C964 C 0.15014 0.88947 0.56965 0.0
C965 C 0.17096 0.86742 0.56976 0.0
C966 C 0.19885 0.86124 0.44853 0.0
H967 H 0.26701 0.80458 0.41718 0.0
H968 H 0.2374 0.81585 0.46614 0.0
H969 H 0.21952 0.85468 0.38881 0.0
H970 H 0.14548 0.8989 0.49767 0.0
H971 H 0.16481 0.88041 0.45311 0.0
H972 H 0.17732 0.8397 0.53702 0.0
C973 C 0.23731 0.81715 0.4265 0.0
C974 C 0.20991 0.85116 0.42042 0.0
C975 C 0.25416 0.81064 0.39856 0.0
C976 C 0.15258 0.89021 0.51834 0.0
C977 C 0.16386 0.87962 0.49287 0.0
C978 C 0.18641 0.84305 0.50469 0.0
C979 C 0.22228 0.82659 0.40393 0.0
C980 C 0.20932 0.83686 0.43371 0.0
C981 C 0.17358 0.86819 0.5182 0.0
C982 C 0.1865 0.85733 0.49045 0.0
H983 H 0.2404 0.82381 0.28557 0.0
H984 H 0.21081 0.83488 0.33382 0.0
H985 H 0.19738 0.82198 0.48832 0.0
H986 H 0.15747 0.87712 0.63486 0.0
H987 H 0.17838 0.8589 0.59068 0.0
C988 C 0.35295 0.87011 0.38992 0.0
C989 C 0.34761 0.88417 0.40175 0.0
C990 C 0.33979 0.85901 0.40806 0.0
C991 C 0.28311 0.85167 0.44792 0.0
H992 H 0.30584 0.82548 0.54575 0.0
C993 C 0.23015 0.83471 0.60768 0.0
C994 C 0.22933 0.82058 0.62287 0.0
C995 C 0.24534 0.83905 0.57205 0.0
C996 C 0.29934 0.83247 0.51759 0.0
H997 H 0.32443 0.89761 0.44162 0.0
H998 H 0.30143 0.87838 0.4722 0.0
H999 H 0.3322 0.83958 0.4964 0.0
H1000 H 0.24393 0.79986 0.61262 0.0
H1001 H 0.27113 0.80765 0.54966 0.0
H1002 H 0.2505 0.84567 0.47172 0.0
C1003 C 0.31576 0.87592 0.44916 0.0
C1004 C 0.31437 0.8405 0.48944 0.0
C1005 C 0.32899 0.88692 0.43183 0.0
C1006 C 0.24423 0.81083 0.60158 0.0
C1007 C 0.25977 0.81526 0.56583 0.0
C1008 C 0.26824 0.8438 0.47609 0.0
C1009 C 0.32094 0.86191 0.4373 0.0
C1010 C 0.30624 0.85064 0.4562 0.0
C1011 C 0.26024 0.82942 0.55052 0.0
C1012 C 0.27613 0.83463 0.51278 0.0
H1013 H 0.36729 0.86771 0.36691 0.0
H1014 H 0.34406 0.84824 0.39867 0.0
H1015 H 0.27648 0.85937 0.42225 0.0
H1016 H 0.21894 0.84253 0.62316 0.0
H1017 H 0.24557 0.85008 0.56168 0.0
C1018 C 0.24888 0.19659 0.88287 0.0
C1019 C 0.24329 0.1877 0.84332 0.0
C1020 C 0.26608 0.19274 0.91549 0.0
C1021 C 0.28454 0.1712 0.99298 0.0
H1022 H 0.34287 0.15696 0.95366 0.0
C1023 C 0.33075 0.12079 0.05685 0.0
C1024 C 0.35053 0.12306 0.08371 0.0
C1025 C 0.31952 0.13206 0.03508 0.0
C1026 C 0.32679 0.16111 0.96528 0.0
H1027 H 0.25204 0.16857 0.80427 0.0
H1028 H 0.2823 0.1621 0.86007 0.0
H1029 H 0.32137 0.17182 0.89671 0.0
H1030 H 0.37398 0.13887 0.10973 0.0
H1031 H 0.35457 0.15869 0.0695 0.0
H1032 H 0.28903 0.15925 0.05949 0.0
C1033 C 0.27344 0.17191 0.86633 0.0
C1034 C 0.31456 0.16957 0.9329 0.0
C1035 C 0.25608 0.17557 0.8346 0.0
C1036 C 0.35869 0.13688 0.0893 0.0
C1037 C 0.34768 0.14816 0.06648 0.0
C1038 C 0.29649 0.16238 0.02475 0.0
C1039 C 0.27806 0.18017 0.90797 0.0
C1040 C 0.29311 0.17438 0.94602 0.0
C1041 C 0.32811 0.14575 0.03906 0.0
C1042 C 0.31748 0.15709 0.01059 0.0
H1043 H 0.23901 0.20591 0.89051 0.0
H1044 H 0.26932 0.19919 0.94767 0.0
H1045 H 0.26792 0.17463 0.00362 0.0
H1046 H 0.32404 0.11026 0.05228 0.0
H1047 H 0.30451 0.13004 0.0137 0.0
C1048 C 0.83728 0.8877 0.04339 0.0
C1049 C 0.85407 0.88486 0.07824 0.0
C1050 C 0.82455 0.87679 0.02353 0.0
C1051 C 0.82492 0.84153 0.98341 0.0
H1052 H 0.76019 0.84534 0.9883 0.0
C1053 C 0.75277 0.81107 0.87178 0.0
C1054 C 0.74271 0.82117 0.8409 0.0
C1055 C 0.76859 0.81525 0.9073 0.0
C1056 C 0.77821 0.8439 0.98755 0.0
H1057 H 0.87097 0.86835 0.11921 0.0
H1058 H 0.84888 0.84904 0.08281 0.0
H1059 H 0.78356 0.85984 0.04211 0.0
H1060 H 0.74234 0.84329 0.82053 0.0
H1061 H 0.76952 0.85047 0.88225 0.0
H1062 H 0.81942 0.82646 0.92539 0.0
C1063 C 0.84552 0.8598 0.07178 0.0
C1064 C 0.79153 0.8522 0.01813 0.0
C1065 C 0.85804 0.87082 0.09253 0.0
C1066 C 0.74963 0.83527 0.84406 0.0
C1067 C 0.76517 0.83941 0.87933 0.0
C1068 C 0.81151 0.83327 0.9523 0.0
C1069 C 0.82856 0.86277 0.03746 0.0
C1070 C 0.81497 0.85151 0.01484 0.0
C1071 C 0.77428 0.82955 0.91206 0.0
C1072 C 0.78812 0.83483 0.95302 0.0
H1073 H 0.83381 0.8984 0.03169 0.0
H1074 H 0.81168 0.87928 0.99671 0.0
H1075 H 0.84299 0.8409 0.9802 0.0
H1076 H 0.7476 0.80014 0.87022 0.0
H1077 H 0.77548 0.80752 0.93247 0.0
C1078 C 0.74611 0.20034 0.57588 0.0
C1079 C 0.74595 0.19424 0.62299 0.0
C1080 C 0.76266 0.19647 0.54169 0.0
C1081 C 0.7844 0.17484 0.47318 0.0
H1082 H 0.84516 0.16436 0.50849 0.0
C1083 C 0.82737 0.12377 0.41507 0.0
C1084 C 0.84974 0.12413 0.39903 0.0
C1085 C 0.81681 0.13604 0.43128 0.0
C1086 C 0.82837 0.16743 0.49766 0.0
H1087 H 0.76346 0.1803 0.67299 0.0
H1088 H 0.79245 0.17381 0.61433 0.0
H1089 H 0.82423 0.18063 0.56107 0.0
H1090 H 0.87849 0.13764 0.38629 0.0
H1091 H 0.86013 0.15912 0.41674 0.0
H1092 H 0.78799 0.16083 0.41167 0.0
C1093 C 0.78003 0.18152 0.60324 0.0
C1094 C 0.81635 0.17665 0.52789 0.0
C1095 C 0.76336 0.18516 0.63682 0.0
C1096 C 0.86123 0.13708 0.39854 0.0
C1097 C 0.85077 0.14934 0.41581 0.0
C1098 C 0.79626 0.16543 0.44342 0.0
C1099 C 0.77938 0.18667 0.55471 0.0
C1100 C 0.79393 0.18 0.51697 0.0
C1101 C 0.82852 0.14888 0.43263 0.0
C1102 C 0.81803 0.16122 0.45655 0.0
H1103 H 0.73262 0.20725 0.56441 0.0
H1104 H 0.7618 0.20062 0.50452 0.0
H1105 H 0.76717 0.17718 0.46399 0.0
H1106 H 0.81807 0.11397 0.41554 0.0
H1107 H 0.79973 0.13539 0.44471 0.0
C1108 C 0.66754 0.11449 0.54212 0.0
C1109 C 0.65091 0.11782 0.57682 0.0
C1110 C 0.67967 0.12513 0.51884 0.0
C1111 C 0.67701 0.16067 0.47474 0.0
H1112 H 0.74164 0.15682 0.46681 0.0
C1113 C 0.74924 0.19316 0.3675 0.0
C1114 C 0.75667 0.18415 0.32974 0.0
C1115 C 0.73345 0.18835 0.40205 0.0
C1116 C 0.72367 0.15826 0.46971 0.0
H1117 H 0.63377 0.13493 0.61416 0.0
H1118 H 0.65484 0.15369 0.5721 0.0
H1119 H 0.72043 0.14168 0.52267 0.0
H1120 H 0.75225 0.16365 0.29581 0.0
H1121 H 0.72492 0.15535 0.3558 0.0
H1122 H 0.68039 0.17661 0.41875 0.0
C1123 C 0.65851 0.14277 0.56359 0.0
C1124 C 0.71155 0.14954 0.50126 0.0
C1125 C 0.64657 0.13206 0.58766 0.0
C1126 C 0.74687 0.17078 0.32469 0.0
C1127 C 0.73125 0.16603 0.35887 0.0
C1128 C 0.68922 0.16939 0.44282 0.0
C1129 C 0.67525 0.13935 0.52922 0.0
C1130 C 0.68807 0.15037 0.50297 0.0
C1131 C 0.72508 0.17454 0.39874 0.0
C1132 C 0.71256 0.16799 0.43943 0.0
H1133 H 0.67128 0.10363 0.53297 0.0
H1134 H 0.69232 0.12223 0.492 0.0
H1135 H 0.65888 0.1614 0.47513 0.0
H1136 H 0.75681 0.20344 0.37248 0.0
H1137 H 0.72895 0.19499 0.43297 0.0
C1138 C 0.64066 0.86414 0.88861 0.0
C1139 C 0.65125 0.87733 0.89232 0.0
C1140 C 0.65093 0.8521 0.90805 0.0
C1141 C 0.67063 0.83557 0.99795 0.0
H1142 H 0.73225 0.8249 0.9719 0.0
C1143 C 0.73261 0.81834 0.14506 0.0
C1144 C 0.74968 0.80875 0.13352 0.0
C1145 C 0.71664 0.82199 0.10989 0.0
C1146 C 0.71489 0.82749 0.97899 0.0
H1147 H 0.68124 0.88824 0.91629 0.0
H1148 H 0.69947 0.86713 0.94883 0.0
H1149 H 0.71285 0.84082 0.91528 0.0
H1150 H 0.76303 0.79484 0.07752 0.0
H1151 H 0.73511 0.80146 0.01495 0.0
H1152 H 0.6732 0.8233 0.06391 0.0
C1153 C 0.68318 0.86614 0.93146 0.0
C1154 C 0.70387 0.83662 0.94672 0.0
C1155 C 0.6727 0.8782 0.91328 0.0
C1156 C 0.74976 0.80212 0.08729 0.0
C1157 C 0.73395 0.80599 0.05153 0.0
C1158 C 0.68181 0.82671 0.03084 0.0
C1159 C 0.67217 0.85307 0.93001 0.0
C1160 C 0.68192 0.84106 0.95685 0.0
C1161 C 0.71773 0.81633 0.0621 0.0
C1162 C 0.70428 0.82292 0.02244 0.0
H1163 H 0.62407 0.86323 0.87266 0.0
H1164 H 0.64212 0.84212 0.90696 0.0
H1165 H 0.65371 0.83893 0.00652 0.0
H1166 H 0.73239 0.82363 0.18049 0.0
H1167 H 0.70455 0.8301 0.11902 0.0
C1168 C 0.65566 0.61281 0.47493 0.0
C1169 C 0.65018 0.61488 0.42518 0.0
C1170 C 0.6676 0.62302 0.50086 0.0
C1171 C 0.68611 0.66044 0.4981 0.0
H1172 H 0.72843 0.64653 0.5949 0.0
C1173 C 0.7568 0.6923 0.60026 0.0
C1174 C 0.75998 0.68845 0.64975 0.0
C1175 C 0.74023 0.68556 0.57204 0.0
C1176 C 0.71644 0.6506 0.56846 0.0
H1177 H 0.65261 0.6293 0.36347 0.0
H1178 H 0.67442 0.64701 0.40836 0.0
H1179 H 0.70744 0.62993 0.54533 0.0
H1180 H 0.7476 0.67565 0.70989 0.0
H1181 H 0.71853 0.66418 0.6613 0.0
H1182 H 0.69629 0.68126 0.52027 0.0
C1183 C 0.66901 0.63762 0.42769 0.0
C1184 C 0.70436 0.64107 0.53999 0.0
C1185 C 0.65665 0.62746 0.40187 0.0
C1186 C 0.74534 0.67877 0.67174 0.0
C1187 C 0.72884 0.67216 0.6439 0.0
C1188 C 0.69864 0.67006 0.52605 0.0
C1189 C 0.67482 0.63545 0.47746 0.0
C1190 C 0.68866 0.64583 0.50515 0.0
C1191 C 0.72689 0.67492 0.59324 0.0
C1192 C 0.71358 0.66518 0.56223 0.0
H1193 H 0.65057 0.60332 0.49411 0.0
H1194 H 0.67111 0.62113 0.53947 0.0
H1195 H 0.67404 0.6644 0.47187 0.0
H1196 H 0.76822 0.69958 0.58249 0.0
H1197 H 0.7391 0.68782 0.53296 0.0
C1198 C 0.64677 0.37574 0.04302 0.0
C1199 C 0.64078 0.37607 0.093 0.0
C1200 C 0.65723 0.36389 0.02319 0.0
C1201 C 0.69656 0.33724 0.05423 0.0
H1202 H 0.682 0.32337 0.92344 0.0
C1203 C 0.74622 0.3045 0.89483 0.0
C1204 C 0.75939 0.3156 0.87634 0.0
C1205 C 0.7293 0.30722 0.92953 0.0
C1206 C 0.68596 0.32682 0.96052 0.0
H1207 H 0.64074 0.36426 0.16148 0.0
H1208 H 0.66003 0.34364 0.12688 0.0
H1209 H 0.65433 0.33721 0.96932 0.0
H1210 H 0.76534 0.33818 0.88 0.0
H1211 H 0.73637 0.34275 0.94067 0.0
H1212 H 0.72902 0.32805 0.0431 0.0
C1213 C 0.65612 0.35247 0.10307 0.0
C1214 C 0.67027 0.33479 0.98655 0.0
C1215 C 0.64518 0.36424 0.12275 0.0
C1216 C 0.75556 0.32936 0.89347 0.0
C1217 C 0.73907 0.33201 0.92837 0.0
C1218 C 0.71237 0.32941 0.02788 0.0
C1219 C 0.66225 0.35223 0.05311 0.0
C1220 C 0.67587 0.34064 0.03251 0.0
C1221 C 0.72581 0.32101 0.94651 0.0
C1222 C 0.70742 0.32465 0.98012 0.0
H1223 H 0.64347 0.38467 0.01923 0.0
H1224 H 0.66215 0.36407 0.98473 0.0
H1225 H 0.7013 0.3417 0.0895 0.0
H1226 H 0.7488 0.2938 0.88215 0.0
H1227 H 0.71896 0.29865 0.94286 0.0
C1228 C 0.76076 0.32515 0.15676 0.0
C1229 C 0.7475 0.31337 0.14587 0.0
C1230 C 0.77871 0.32875 0.12657 0.0
C1231 C 0.79399 0.329 -0.00026 0.0
H1232 H 0.84858 0.34535 0.05223 0.0
C1233 C 0.8513 0.36826 0.89127 0.0
C1234 C 0.85384 0.38093 0.91767 0.0
C1235 C 0.84233 0.35629 0.91435 0.0
C1236 C 0.83357 0.34067 0.03681 0.0
H1237 H 0.74256 0.29594 0.09553 0.0
H1238 H 0.7739 0.30259 0.04098 0.0
H1239 H 0.8261 0.32966 0.1037 0.0
H1240 H 0.84925 0.39095 0.98885 0.0
H1241 H 0.83393 0.37016 0.02891 0.0
H1242 H 0.80075 0.34082 0.9339 0.0
C1243 C 0.77062 0.30878 0.07376 0.0
C1244 C 0.82077 0.33167 0.06616 0.0
C1245 C 0.75284 0.30496 0.10492 0.0
C1246 C 0.84745 0.38138 0.96744 0.0
C1247 C 0.83889 0.36943 0.99055 0.0
C1248 C 0.8068 0.33805 0.97027 0.0
C1249 C 0.78355 0.32082 0.08417 0.0
C1250 C 0.80024 0.32639 0.04881 0.0
C1251 C 0.83626 0.35677 0.96437 0.0
C1252 C 0.82608 0.34451 0.98959 0.0
H1253 H 0.75686 0.33182 0.18803 0.0
H1254 H 0.78806 0.33824 0.13501 0.0
H1255 H 0.77826 0.32501 0.98565 0.0
H1256 H 0.85612 0.36762 0.85282 0.0
H1257 H 0.84032 0.34665 0.89337 0.0
C1258 C 0.73527 0.66953 0.38053 0.0
C1259 C 0.73345 0.68387 0.36836 0.0
C1260 C 0.75071 0.66502 0.41533 0.0
C1261 C 0.80405 0.67063 0.46942 0.0
H1262 H 0.78047 0.64431 0.56592 0.0
C1263 C 0.85762 0.63208 0.59236 0.0
C1264 C 0.85078 0.61806 0.58448 0.0
C1265 C 0.84475 0.64331 0.57422 0.0
C1266 C 0.78735 0.65181 0.53985 0.0
H1267 H 0.74663 0.70476 0.38296 0.0
H1268 H 0.77436 0.69664 0.44443 0.0
H1269 H 0.75492 0.65888 0.51815 0.0
H1270 H 0.82525 0.60481 0.55136 0.0
H1271 H 0.80281 0.62429 0.52049 0.0
H1272 H 0.83661 0.66253 0.48828 0.0
C1273 C 0.76353 0.68903 0.42656 0.0
C1274 C 0.77273 0.66022 0.51293 0.0
C1275 C 0.74772 0.69364 0.39162 0.0
C1276 C 0.83098 0.61547 0.55807 0.0
C1277 C 0.81805 0.62662 0.54067 0.0
C1278 C 0.81884 0.6621 0.49641 0.0
C1279 C 0.76488 0.67467 0.43894 0.0
C1280 C 0.78081 0.66922 0.47601 0.0
C1281 C 0.82471 0.64063 0.54883 0.0
C1282 C 0.81042 0.65214 0.53003 0.0
H1283 H 0.72464 0.66168 0.36338 0.0
H1284 H 0.75166 0.65386 0.42366 0.0
H1285 H 0.81064 0.6774 0.44071 0.0
H1286 H 0.87286 0.63437 0.61256 0.0
H1287 H 0.8502 0.65404 0.58075 0.0
C1288 C 0.34758 0.38286 0.52931 0.0
C1289 C 0.34847 0.3828 0.5809 0.0
C1290 C 0.3368 0.37205 0.50396 0.0
C1291 C 0.3106 0.3363 0.51848 0.0
H1292 H 0.28283 0.34748 0.39546 0.0
C1293 C 0.24196 0.30587 0.40755 0.0
C1294 C 0.24263 0.30763 0.35623 0.0
C1295 C 0.25861 0.31198 0.43709 0.0
C1296 C 0.29091 0.34407 0.4292 0.0
H1297 H 0.33928 0.37127 0.64675 0.0
H1298 H 0.31926 0.35267 0.60266 0.0
H1299 H 0.30247 0.36479 0.44379 0.0
H1300 H 0.26179 0.3158 0.29491 0.0
H1301 H 0.29107 0.32613 0.34614 0.0
H1302 H 0.29731 0.31561 0.50446 0.0
C1303 C 0.32729 0.36088 0.58143 0.0
C1304 C 0.30229 0.35404 0.45711 0.0
C1305 C 0.33866 0.37158 0.60684 0.0
C1306 C 0.26112 0.31427 0.33449 0.0
C1307 C 0.27771 0.32027 0.36383 0.0
C1308 C 0.29877 0.32628 0.4907 0.0
C1309 C 0.3259 0.36109 0.52954 0.0
C1310 C 0.3128 0.35029 0.50164 0.0
C1311 C 0.27582 0.32 0.41547 0.0
C1312 C 0.28913 0.33006 0.44533 0.0
H1313 H 0.35551 0.39121 0.50835 0.0
H1314 H 0.3371 0.37236 0.46407 0.0
H1315 H 0.31802 0.33303 0.55295 0.0
H1316 H 0.22757 0.30098 0.42498 0.0
H1317 H 0.25689 0.31149 0.47669 0.0
C1318 C 0.34462 0.62192 0.96728 0.0
C1319 C 0.35174 0.62303 0.91811 0.0
C1320 C 0.33474 0.63335 0.99092 0.0
C1321 C 0.30061 0.66376 0.97509 0.0
H1322 H 0.3232 0.67349 0.10492 0.0
C1323 C 0.2513 0.69871 0.11367 0.0
C1324 C 0.2459 0.69022 0.15443 0.0
C1325 C 0.26837 0.69455 0.08114 0.0
C1326 C 0.31696 0.6711 0.06834 0.0
H1327 H 0.3537 0.63691 0.85468 0.0
H1328 H 0.33561 0.65699 0.89624 0.0
H1329 H 0.34498 0.65785 0.05173 0.0
H1330 H 0.25469 0.6714 0.1952 0.0
H1331 H 0.2846 0.66437 0.1396 0.0
H1332 H 0.27201 0.67648 0.99286 0.0
C1333 C 0.33808 0.64723 0.91626 0.0
C1334 C 0.32933 0.66215 0.03808 0.0
C1335 C 0.34839 0.63579 0.89267 0.0
C1336 C 0.2586 0.67811 0.16404 0.0
C1337 C 0.27577 0.67413 0.13235 0.0
C1338 C 0.28826 0.67286 0.00532 0.0
C1339 C 0.33147 0.64611 0.9658 0.0
C1340 C 0.32083 0.65795 0.99212 0.0
C1341 C 0.28037 0.68204 0.08985 0.0
C1342 C 0.29592 0.67607 0.05304 0.0
H1343 H 0.347 0.61226 0.98792 0.0
H1344 H 0.32949 0.63219 0.02896 0.0
H1345 H 0.29374 0.66063 0.93977 0.0
H1346 H 0.24144 0.70799 0.10527 0.0
H1347 H 0.27162 0.70075 0.04838 0.0
C1348 C 0.25407 0.70099 0.91105 0.0
C1349 C 0.25579 0.69321 0.86718 0.0
C1350 C 0.23781 0.69742 0.94627 0.0
C1351 C 0.18605 0.67658 0.96646 0.0
H1352 H 0.21366 0.66533 0.08986 0.0
C1353 C 0.17542 0.62746 0.09506 0.0
C1354 C 0.15272 0.62776 0.10849 0.0
C1355 C 0.18593 0.63959 0.07754 0.0
C1356 C 0.20556 0.66872 0.0561 0.0
H1357 H 0.24132 0.67632 0.82402 0.0
H1358 H 0.21268 0.67036 0.88446 0.0
H1359 H 0.23465 0.67982 0.03149 0.0
H1360 H 0.12333 0.641 0.11615 0.0
H1361 H 0.14162 0.66224 0.08316 0.0
H1362 H 0.15738 0.66473 0.9898 0.0
C1363 C 0.22377 0.67914 0.89205 0.0
C1364 C 0.21752 0.67708 0.02287 0.0
C1365 C 0.24023 0.68248 0.85757 0.0
C1366 C 0.1409 0.64055 0.10614 0.0
C1367 C 0.1513 0.65265 0.08732 0.0
C1368 C 0.17395 0.6684 1e-05 0.0
C1369 C 0.22282 0.68625 0.9374 0.0
C1370 C 0.20823 0.6806 0.9769 0.0
C1371 C 0.1738 0.65217 0.07207 0.0
C1372 C 0.184 0.66388 0.04407 0.0
H1373 H 0.26613 0.70919 0.91941 0.0
H1374 H 0.23745 0.70302 0.98108 0.0
H1375 H 0.17846 0.67922 0.93136 0.0
H1376 H 0.18491 0.61774 0.09674 0.0
H1377 H 0.20321 0.6389 0.06544 0.0
C1378 C 0.27161 0.33639 0.61062 0.0
C1379 C 0.2723 0.32219 0.62502 0.0
C1380 C 0.25622 0.34098 0.57575 0.0
C1381 C 0.20134 0.33471 0.52439 0.0
H1382 H 0.22262 0.36236 0.42991 0.0
C1383 C 0.14617 0.37173 0.39761 0.0
C1384 C 0.15028 0.38585 0.41085 0.0
C1385 C 0.15989 0.36092 0.41575 0.0
C1386 C 0.21646 0.35447 0.45543 0.0
H1387 H 0.25681 0.30171 0.61534 0.0
H1388 H 0.22897 0.30998 0.55478 0.0
H1389 H 0.2495 0.3483 0.47616 0.0
H1390 H 0.17181 0.3997 0.45332 0.0
H1391 H 0.19595 0.38091 0.48382 0.0
H1392 H 0.16813 0.34165 0.50531 0.0
C1393 C 0.24085 0.31741 0.57016 0.0
C1394 C 0.23181 0.34643 0.48186 0.0
C1395 C 0.25675 0.3127 0.6046 0.0
C1396 C 0.16821 0.38894 0.44253 0.0
C1397 C 0.18207 0.37822 0.45979 0.0
C1398 C 0.18587 0.34279 0.49765 0.0
C1399 C 0.24079 0.33157 0.55481 0.0
C1400 C 0.22446 0.33702 0.5184 0.0
C1401 C 0.17812 0.36416 0.44638 0.0
C1402 C 0.19344 0.35317 0.46476 0.0
H1403 H 0.28304 0.34404 0.62618 0.0
H1404 H 0.25622 0.35203 0.56569 0.0
H1405 H 0.19525 0.32752 0.55236 0.0
H1406 H 0.13239 0.36906 0.37333 0.0
H1407 H 0.15658 0.3501 0.40516 0.0
C1408 C 0.33719 0.19023 0.05954 0.0
C1409 C 0.35084 0.19426 0.09906 0.0
C1410 C 0.33944 0.19668 0.01364 0.0
C1411 C 0.33232 0.21941 0.93925 0.0
H1412 H 0.3842 0.24095 0.89853 0.0
C1413 C 0.32364 0.27019 0.82555 0.0
C1414 C 0.3419 0.275 0.79784 0.0
C1415 C 0.32545 0.25779 0.85315 0.0
C1416 C 0.36956 0.23482 0.90836 0.0
H1417 H 0.37823 0.20767 0.1217 0.0
H1418 H 0.38162 0.21953 0.04247 0.0
H1419 H 0.3884 0.22284 0.96057 0.0
H1420 H 0.37569 0.27032 0.77387 0.0
H1421 H 0.37841 0.2482 0.81904 0.0
H1422 H 0.31368 0.23096 0.88561 0.0
C1423 C 0.36968 0.211 0.04563 0.0
C1424 C 0.37193 0.22455 0.94493 0.0
C1425 C 0.36784 0.20419 0.09128 0.0
C1426 C 0.36142 0.2668 0.79535 0.0
C1427 C 0.36305 0.25422 0.82178 0.0
C1428 C 0.33008 0.22942 0.90185 0.0
C1429 C 0.35478 0.20777 0.00676 0.0
C1430 C 0.3532 0.21701 0.9622 0.0
C1431 C 0.34542 0.24979 0.85262 0.0
C1432 C 0.34847 0.23764 0.88704 0.0
H1433 H 0.32374 0.18279 0.0653 0.0
H1434 H 0.32811 0.19357 0.98457 0.0
H1435 H 0.31728 0.21407 0.95145 0.0
H1436 H 0.30853 0.27649 0.82846 0.0
H1437 H 0.31158 0.25494 0.87687 0.0
C1438 C 0.94675 0.93072 0.27933 0.0
C1439 C 0.92961 0.9221 0.26049 0.0
C1440 C 0.96079 0.92583 0.31664 0.0
C1441 C 0.96709 0.90256 0.41982 0.0
H1442 H 0.03047 0.90694 0.39116 0.0
C1443 C 0.06074 0.9028 0.518 0.0
C1444 C 0.05555 0.91265 0.55487 0.0
C1445 C 0.04415 0.8984 0.48483 0.0
C1446 C 0.01291 0.90527 0.3995 0.0
H1447 H 0.91283 0.9019 0.26868 0.0
H1448 H 0.93723 0.89354 0.33532 0.0
H1449 H 0.00293 0.91098 0.3264 0.0
H1450 H 0.02874 0.92446 0.58955 0.0
H1451 H -6e-05 0.91679 0.53228 0.0
H1452 H 0.97707 0.89771 0.49389 0.0
C1453 C 0.93988 0.90397 0.32017 0.0
C1454 C 0.99715 0.90774 0.36256 0.0
C1455 C 0.92594 0.9088 0.28219 0.0
C1456 C 0.03323 0.91701 0.56093 0.0
C1457 C 0.01666 0.91247 0.52845 0.0
C1458 C 0.98289 0.90021 0.45708 0.0
C1459 C 0.95785 0.9123 0.33644 0.0
C1460 C 0.97413 0.90698 0.37297 0.0
C1461 C 0.02212 0.90362 0.48878 0.0
C1462 C 0.00591 0.90212 0.4477 0.0
H1463 H 0.95006 0.94102 0.2638 0.0
H1464 H 0.97429 0.93254 0.32941 0.0
H1465 H 0.9494 0.90185 0.42851 0.0
H1466 H 0.07784 0.89924 0.51278 0.0
H1467 H 0.04876 0.89151 0.45466 0.0
C1468 C 0.17088 0.73433 0.32572 0.0
C1469 C 0.15331 0.72736 0.3015 0.0
C1470 C 0.16655 0.74613 0.35512 0.0
C1471 C 0.11922 0.76377 0.4211 0.0
H1472 H 0.16599 0.79073 0.45096 0.0
C1473 C 0.14386 0.81291 0.56231 0.0
C1474 C 0.1338 0.80751 0.60499 0.0
C1475 C 0.14169 0.8059 0.51726 0.0
C1476 C 0.1524 0.78358 0.44252 0.0
H1477 H 0.11766 0.72773 0.2864 0.0
H1478 H 0.11022 0.74879 0.33499 0.0
H1479 H 0.1716 0.77391 0.38538 0.0
H1480 H 0.11265 0.79101 0.63413 0.0
H1481 H 0.1095 0.77837 0.55656 0.0
H1482 H 0.09964 0.77384 0.47682 0.0
C1483 C 0.12723 0.74485 0.33346 0.0
C1484 C 0.15587 0.77363 0.40529 0.0
C1485 C 0.1315 0.73283 0.30513 0.0
C1486 C 0.12017 0.79554 0.60138 0.0
C1487 C 0.11846 0.78828 0.55663 0.0
C1488 C 0.11552 0.77394 0.45753 0.0
C1489 C 0.14458 0.75147 0.36006 0.0
C1490 C 0.13967 0.76326 0.3951 0.0
C1491 C 0.13006 0.793 0.51437 0.0
C1492 C 0.13234 0.78371 0.47002 0.0
H1493 H 0.18782 0.73023 0.32399 0.0
H1494 H 0.18038 0.75065 0.37553 0.0
H1495 H 0.10629 0.75597 0.41494 0.0
H1496 H 0.15458 0.82206 0.56462 0.0
H1497 H 0.15024 0.81022 0.48545 0.0
C1498 C 0.55649 0.07513 0.78284 0.0
C1499 C 0.57392 0.08352 0.76403 0.0
C1500 C 0.54167 0.08052 0.81774 0.0
C1501 C 0.53321 0.10436 0.91706 0.0
H1502 H 0.47046 0.10047 0.88146 0.0
C1503 C 0.43782 0.1048 0.00689 0.0
C1504 C 0.4421 0.09472 0.04357 0.0
C1505 C 0.45503 0.10898 0.97484 0.0
C1506 C 0.48784 0.10202 0.89167 0.0
H1507 H 0.59028 0.10392 0.76973 0.0
H1508 H 0.5645 0.11317 0.83243 0.0
H1509 H 0.4994 0.09627 0.81971 0.0
H1510 H 0.46784 0.08214 0.07889 0.0
H1511 H 0.4977 0.08949 0.02377 0.0
H1512 H 0.52164 0.10911 0.99007 0.0
C1513 C 0.56225 0.10251 0.81899 0.0
C1514 C 0.50439 0.09947 0.85646 0.0
C1515 C 0.57697 0.09718 0.78331 0.0
C1516 C 0.46406 0.08978 0.05036 0.0
C1517 C 0.48124 0.09414 0.01918 0.0
C1518 C 0.51662 0.10675 0.95257 0.0
C1519 C 0.5441 0.09434 0.8352 0.0
C1520 C 0.52715 0.10004 0.86944 0.0
C1521 C 0.47677 0.10337 0.97997 0.0
C1522 C 0.49381 0.105 0.94066 0.0
H1523 H 0.5536 0.06457 0.76909 0.0
H1524 H 0.52798 0.07395 0.83052 0.0
H1525 H 0.55069 0.10488 0.92773 0.0
H1526 H 0.421 0.10879 0.00121 0.0
H1527 H 0.45117 0.11612 0.94486 0.0
C1528 C 0.32877 0.73757 0.6975 0.0
C1529 C 0.34561 0.72734 0.7031 0.0
C1530 C 0.33284 0.74981 0.67002 0.0
C1531 C 0.34746 0.77741 0.62239 0.0
H1532 H 0.3798 0.77088 0.5005 0.0
C1533 C 0.33384 0.8087 0.44435 0.0
C1534 C 0.35138 0.80994 0.40995 0.0
C1535 C 0.33728 0.80197 0.48942 0.0
C1536 C 0.37122 0.77305 0.53487 0.0
H1537 H 0.38038 0.72238 0.68701 0.0
H1538 H 0.38759 0.74378 0.64038 0.0
H1539 H 0.37742 0.75225 0.56135 0.0
H1540 H 0.38681 0.80629 0.3978 0.0
H1541 H 0.3929 0.79448 0.47694 0.0
H1542 H 0.34037 0.79806 0.59428 0.0
C1543 C 0.37103 0.74221 0.65585 0.0
C1544 C 0.36979 0.76231 0.5699 0.0
C1545 C 0.36691 0.72995 0.68281 0.0
C1546 C 0.37298 0.8055 0.42354 0.0
C1547 C 0.3764 0.79862 0.46865 0.0
C1548 C 0.34882 0.78816 0.58715 0.0
C1549 C 0.3539 0.75213 0.64793 0.0
C1550 C 0.35746 0.76421 0.61364 0.0
C1551 C 0.35832 0.7962 0.50103 0.0
C1552 C 0.36027 0.78598 0.54244 0.0
H1553 H 0.31217 0.73586 0.71254 0.0
H1554 H 0.31915 0.75712 0.6643 0.0
H1555 H 0.33818 0.77934 0.65603 0.0
H1556 H 0.31701 0.81209 0.43503 0.0
H1557 H 0.32296 0.80028 0.51324 0.0
C1558 C 0.43112 0.90457 0.49475 0.0
C1559 C 0.43698 0.91368 0.4561 0.0
C1560 C 0.44712 0.90091 0.53042 0.0
C1561 C 0.50798 0.90136 0.55787 0.0
H1562 H 0.49024 0.91377 0.68838 0.0
C1563 C 0.57033 0.90716 0.72102 0.0
C1564 C 0.56869 0.92005 0.74645 0.0
C1565 C 0.55401 0.90326 0.68666 0.0
C1566 C 0.49538 0.91017 0.6522 0.0
H1567 H 0.46415 0.92523 0.42174 0.0
H1568 H 0.49199 0.91869 0.48299 0.0
H1569 H 0.46182 0.91085 0.62434 0.0
H1570 H 0.54877 0.93904 0.75499 0.0
H1571 H 0.52044 0.93226 0.69483 0.0
H1572 H 0.54169 0.90139 0.58502 0.0
C1573 C 0.47521 0.91443 0.48635 0.0
C1574 C 0.4791 0.90831 0.6158 0.0
C1575 C 0.45923 0.91829 0.45158 0.0
C1576 C 0.55061 0.92906 0.73601 0.0
C1577 C 0.53422 0.9251 0.70202 0.0
C1578 C 0.52425 0.90311 0.59438 0.0
C1579 C 0.4692 0.90605 0.52689 0.0
C1580 C 0.48538 0.90444 0.56779 0.0
C1581 C 0.53563 0.91211 0.67742 0.0
C1582 C 0.51818 0.90807 0.64129 0.0
H1583 H 0.41402 0.9009 0.49879 0.0
H1584 H 0.44212 0.89445 0.56144 0.0
H1585 H 0.5132 0.8983 0.52113 0.0
H1586 H 0.58404 0.89996 0.72819 0.0
H1587 H 0.55552 0.8932 0.66808 0.0
C1588 C 0.16884 0.20044 0.93539 0.0
C1589 C 0.15089 0.19478 0.90815 0.0
C1590 C 0.16539 0.20623 0.98179 0.0
C1591 C 0.12154 0.22387 0.05219 0.0
H1592 H 0.17084 0.22752 0.14447 0.0
C1593 C 0.13733 0.27508 0.15564 0.0
C1594 C 0.14934 0.27528 0.2002 0.0
C1595 C 0.13339 0.26243 0.13096 0.0
C1596 C 0.15658 0.22648 0.12007 0.0
H1597 H 0.11538 0.18995 0.91018 0.0
H1598 H 0.10934 0.19994 0.99256 0.0
H1599 H 0.17132 0.20873 0.08396 0.0
H1600 H 0.16569 0.26224 0.25507 0.0
H1601 H 0.15816 0.24001 0.21278 0.0
H1602 H 0.10668 0.24152 0.08853 0.0
C1603 C 0.12608 0.20006 0.97711 0.0
C1604 C 0.15701 0.21576 0.08479 0.0
C1605 C 0.12954 0.19429 0.93004 0.0
C1606 C 0.15658 0.26244 0.22052 0.0
C1607 C 0.15231 0.24971 0.19613 0.0
C1608 C 0.12089 0.23442 0.08812 0.0
C1609 C 0.14392 0.20643 0.00297 0.0
C1610 C 0.14018 0.21487 0.04853 0.0
C1611 C 0.14102 0.24955 0.15047 0.0
C1612 C 0.13903 0.23639 0.12067 0.0
H1613 H 0.18562 0.20093 0.92019 0.0
H1614 H 0.17952 0.2112 -0.00014 0.0
H1615 H 0.1082 0.22348 0.02513 0.0
H1616 H 0.13165 0.28478 0.1387 0.0
H1617 H 0.12516 0.2629 0.09542 0.0
C1618 C 0.08317 0.08651 0.04136 0.0
C1619 C 0.07956 0.09267 0.99506 0.0
C1620 C 0.06685 0.08746 0.07807 0.0
C1621 C 0.01077 0.10292 0.10954 0.0
H1622 H 0.00405 0.06714 0.17692 0.0
C1623 C 0.94216 0.09304 0.25683 0.0
C1624 C 0.93295 0.07943 0.26038 0.0
C1625 C 0.96007 0.09575 0.22502 0.0
C1626 C 0.00545 0.07715 0.15802 0.0
H1627 H 0.05689 0.10537 0.95143 0.0
H1628 H 0.02788 0.10658 0.0147 0.0
H1629 H 0.03583 0.07085 0.12325 0.0
H1630 H 0.93464 0.05816 0.23157 0.0
H1631 H 0.96532 0.06297 0.17477 0.0
H1632 H 0.97955 0.10886 0.14247 0.0
C1633 C 0.04349 0.10134 0.02352 0.0
C1634 C 0.02405 0.07942 0.12792 0.0
C1635 C 0.06013 0.10068 0.98717 0.0
C1636 C 0.94154 0.06871 0.23015 0.0
C1637 C 0.95926 0.07147 0.19782 0.0
C1638 C 0.99195 0.10058 0.1393 0.0
C1639 C 0.04624 0.09418 0.06864 0.0
C1640 C 0.02701 0.09233 0.10319 0.0
C1641 C 0.96905 0.08496 0.1955 0.0
C1642 C 0.98899 0.08761 0.16373 0.0
H1643 H 0.09812 0.08033 0.04826 0.0
H1644 H 0.06995 0.08226 0.11295 0.0
H1645 H 0.01252 0.11303 0.09141 0.0
H1646 H 0.936 0.10154 0.27977 0.0
H1647 H 0.96729 0.10622 0.22476 0.0
C1648 C 0.67256 0.80388 0.92908 0.0
C1649 C 0.65372 0.8086 0.9025 0.0
C1650 C 0.67015 0.79769 0.97522 0.0
C1651 C 0.63061 0.77675 0.04353 0.0
H1652 H 0.67576 0.77949 0.14612 0.0
C1653 C 0.63484 0.73493 0.19445 0.0
C1654 C 0.65633 0.72945 0.20357 0.0
C1655 C 0.63218 0.74765 0.16941 0.0
C1656 C 0.66302 0.77859 0.11785 0.0
H1657 H 0.61766 0.81135 0.9054 0.0
H1658 H 0.61348 0.80064 0.98731 0.0
H1659 H 0.67471 0.79703 0.08036 0.0
H1660 H 0.69193 0.73334 0.19625 0.0
H1661 H 0.6874 0.75539 0.15084 0.0
H1662 H 0.61979 0.75785 0.07873 0.0
C1663 C 0.63009 0.80162 0.97153 0.0
C1664 C 0.66231 0.7887 0.08039 0.0
C1665 C 0.63248 0.8078 0.92481 0.0
C1666 C 0.67519 0.73735 0.18976 0.0
C1667 C 0.67253 0.75002 0.16393 0.0
C1668 C 0.63141 0.7666 0.08074 0.0
C1669 C 0.6489 0.79624 0.99666 0.0
C1670 C 0.64655 0.78761 0.04194 0.0
C1671 C 0.65096 0.75509 0.1521 0.0
C1672 C 0.64806 0.76714 0.11752 0.0
H1673 H 0.68927 0.80444 0.91351 0.0
H1674 H 0.68495 0.7935 0.99317 0.0
H1675 H 0.61849 0.77549 0.01409 0.0
H1676 H 0.61998 0.72916 0.20547 0.0
H1677 H 0.61535 0.7514 0.16215 0.0
C1678 C 0.06002 0.09361 0.7435 0.0
C1679 C 0.06359 0.08071 0.76794 0.0
C1680 C 0.04276 0.09501 0.70888 0.0
C1681 C 0.00552 0.07368 0.62907 0.0
H1682 H 0.96811 0.10714 0.62618 0.0
C1683 C 0.92279 0.07323 0.52655 0.0
C1684 C 0.9197 0.08383 0.49099 0.0
C1685 C 0.93945 0.07448 0.56222 0.0
C1686 C 0.97856 0.0978 0.62641 0.0
H1687 H 0.05164 0.0592 0.77502 0.0
H1688 H 0.02151 0.0617 0.71551 0.0
H1689 H -0.00013 0.10589 0.68349 0.0
H1690 H 0.93045 0.10461 0.46757 0.0
H1691 H 0.95976 0.10682 0.53077 0.0
H1692 H 0.98407 0.06548 0.5729 0.0
C1693 C 0.03228 0.07068 0.72237 0.0
C1694 C 0.99677 0.09708 0.65903 0.0
C1695 C 0.04953 0.06926 0.75677 0.0
C1696 C 0.93244 0.09627 0.4945 0.0
C1697 C 0.94923 0.09752 0.53051 0.0
C1698 C 0.98732 0.07436 0.59694 0.0
C1699 C 0.02867 0.08356 0.69792 0.0
C1700 C 0.01023 0.0849 0.66126 0.0
C1701 C 0.95345 0.08635 0.56332 0.0
C1702 C 0.97342 0.08631 0.59585 0.0
H1703 H 0.07054 0.10265 0.7511 0.0
H1704 H 0.0406 0.10503 0.69035 0.0
H1705 H 0.01587 0.06431 0.62878 0.0
H1706 H 0.91301 0.06361 0.52541 0.0
H1707 H 0.94199 0.06586 0.58784 0.0
C1708 C 0.84808 0.2788 0.64318 0.0
C1709 C 0.83716 0.27898 0.68906 0.0
C1710 C 0.85118 0.2662 0.61768 0.0
C1711 C 0.82971 0.22976 0.60779 0.0
H1712 H 0.8807 0.2266 0.51974 0.0
C1713 C 0.82507 0.19966 0.42786 0.0
C1714 C 0.84439 0.1944 0.40442 0.0
C1715 C 0.82648 0.20647 0.47313 0.0
C1716 C 0.86662 0.22704 0.54488 0.0
H1717 H 0.82094 0.26601 0.74431 0.0
H1718 H 0.82681 0.24381 0.70014 0.0
H1719 H 0.87942 0.24557 0.57961 0.0
H1720 H 0.88013 0.19103 0.41277 0.0
H1721 H 0.88252 0.20257 0.49354 0.0
H1722 H 0.81704 0.21111 0.57332 0.0
C1723 C 0.83268 0.2535 0.6835 0.0
C1724 C 0.86566 0.23813 0.57871 0.0
C1725 C 0.82931 0.26621 0.70886 0.0
C1726 C 0.86496 0.19506 0.4296 0.0
C1727 C 0.86633 0.20176 0.47569 0.0
C1728 C 0.83084 0.21853 0.57448 0.0
C1729 C 0.84374 0.25334 0.63758 0.0
C1730 C 0.84667 0.24005 0.60886 0.0
C1731 C 0.84718 0.20795 0.49721 0.0
C1732 C 0.84876 0.21745 0.54084 0.0
H1733 H 0.85407 0.28847 0.6265 0.0
H1734 H 0.85909 0.26664 0.58178 0.0
H1735 H 0.81488 0.23079 0.63052 0.0
H1736 H 0.8088 0.19919 0.41017 0.0
H1737 H 0.81137 0.21118 0.48788 0.0
C1738 C 0.44928 0.93014 0.22422 0.0
C1739 C 0.43144 0.9214 0.2388 0.0
C1740 C 0.46554 0.92521 0.19154 0.0
C1741 C 0.47654 0.90008 0.09351 0.0
H1742 H 0.53857 0.90867 0.1246 0.0
C1743 C 0.54337 0.91202 0.95094 0.0
C1744 C 0.56582 0.90836 0.95941 0.0
C1745 C 0.52686 0.90847 0.98495 0.0
C1746 C 0.52143 0.90587 0.11582 0.0
H1747 H 0.41619 0.90082 0.22857 0.0
H1748 H 0.4445 0.89236 0.17043 0.0
H1749 H 0.5094 0.9133 0.18546 0.0
H1750 H 0.58868 0.89745 0.00817 0.0
H1751 H 0.55962 0.89151 0.0693 0.0
H1752 H 0.48851 0.89329 0.02288 0.0
C1753 C 0.44593 0.90295 0.185 0.0
C1754 C 0.5047 0.9087 0.15039 0.0
C1755 C 0.42973 0.90782 0.21819 0.0
C1756 C 0.57141 0.90034 0.00107 0.0
C1757 C 0.55485 0.897 0.03587 0.0
C1758 C 0.49328 0.89735 0.05872 0.0
C1759 C 0.46425 0.9115 0.17231 0.0
C1760 C 0.48204 0.90634 0.13883 0.0
C1761 C 0.53252 0.90138 0.02865 0.0
C1762 C 0.51578 0.90072 0.0689 0.0
H1763 H 0.45116 0.94064 0.23926 0.0
H1764 H 0.47924 0.93214 0.18148 0.0
H1765 H 0.4592 0.89811 0.08378 0.0
H1766 H 0.53874 0.91816 0.9188 0.0
H1767 H 0.50992 0.91216 0.97858 0.0
C1768 C 0.63437 0.27023 0.29916 0.0
C1769 C 0.65604 0.27581 0.2938 0.0
C1770 C 0.63079 0.258 0.32691 0.0
C1771 C 0.66148 0.22895 0.39331 0.0
H1772 H 0.60673 0.22755 0.46998 0.0
C1773 C 0.65542 0.1896 0.55129 0.0
C1774 C 0.64548 0.19465 0.59458 0.0
C1775 C 0.6517 0.19643 0.50637 0.0
C1776 C 0.62225 0.22779 0.44931 0.0
H1777 H 0.69098 0.27297 0.31285 0.0
H1778 H 0.6848 0.25224 0.36342 0.0
H1779 H 0.61152 0.24582 0.40875 0.0
H1780 H 0.62317 0.21031 0.62519 0.0
H1781 H 0.61762 0.22276 0.54804 0.0
H1782 H 0.67323 0.21188 0.43698 0.0
C1783 C 0.67052 0.2568 0.34469 0.0
C1784 C 0.62485 0.23819 0.41319 0.0
C1785 C 0.67413 0.26879 0.31586 0.0
C1786 C 0.63061 0.20605 0.59191 0.0
C1787 C 0.6275 0.2132 0.54734 0.0
C1788 C 0.65915 0.21881 0.4303 0.0
C1789 C 0.64874 0.25128 0.35117 0.0
C1790 C 0.64477 0.23916 0.38544 0.0
C1791 C 0.63884 0.20888 0.50425 0.0
C1792 C 0.63971 0.21826 0.45981 0.0
H1793 H 0.62012 0.27539 0.28216 0.0
H1794 H 0.61387 0.25397 0.32975 0.0
H1795 H 0.67678 0.22897 0.37186 0.0
H1796 H 0.66718 0.18091 0.55282 0.0
H1797 H 0.66002 0.19241 0.47394 0.0
C1798 C 0.44562 0.07485 0.27126 0.0
C1799 C 0.42799 0.08371 0.25637 0.0
C1800 C 0.46072 0.07923 0.30733 0.0
C1801 C 0.46871 0.10153 0.41346 0.0
H1802 H 0.53172 0.09609 0.38306 0.0
C1803 C 0.53534 0.08684 0.55386 0.0
C1804 C 0.55751 0.09152 0.54814 0.0
C1805 C 0.51877 0.09099 0.52079 0.0
C1806 C 0.51427 0.09802 0.39185 0.0
H1807 H 0.41175 0.10384 0.26966 0.0
H1808 H 0.43803 0.1113 0.33405 0.0
H1809 H 0.50364 0.09267 0.31884 0.0
H1810 H 0.57957 0.10496 0.50559 0.0
H1811 H 0.55048 0.11198 0.44623 0.0
H1812 H 0.47932 0.10609 0.48731 0.0
C1813 C 0.4402 0.10108 0.31691 0.0
C1814 C 0.4982 0.09589 0.35526 0.0
C1815 C 0.42519 0.09678 0.28019 0.0
C1816 C 0.56258 0.10118 0.51055 0.0
C1817 C 0.54599 0.10516 0.47672 0.0
C1818 C 0.48481 0.10352 0.45031 0.0
C1819 C 0.45842 0.09247 0.32977 0.0
C1820 C 0.47527 0.09711 0.36624 0.0
C1821 C 0.52408 0.09977 0.48083 0.0
C1822 C 0.50768 0.10127 0.44022 0.0
H1823 H 0.44832 0.06473 0.25381 0.0
H1824 H 0.47441 0.07228 0.31738 0.0
H1825 H 0.45112 0.10258 0.42269 0.0
H1826 H 0.53095 0.07952 0.58299 0.0
H1827 H 0.50213 0.08654 0.52467 0.0
C1828 C 0.82713 0.80988 0.04942 0.0
C1829 C 0.84415 0.81185 0.08463 0.0
C1830 C 0.83187 0.80366 0.00406 0.0
C1831 C 0.87031 0.77729 0.95755 0.0
H1832 H 0.836 0.78192 0.83715 0.0
C1833 C 0.83136 0.7395 0.7982 0.0
C1834 C 0.84941 0.73014 0.79212 0.0
C1835 C 0.8342 0.75208 0.8245 0.0
C1836 C 0.8457 0.78048 0.87053 0.0
H1837 H 0.87987 0.81027 0.09791 0.0
H1838 H 0.8883 0.79954 0.01785 0.0
H1839 H 0.83579 0.80058 0.89929 0.0
H1840 H 0.88496 0.72716 0.80573 0.0
H1841 H 0.88997 0.74913 0.85041 0.0
H1842 H 0.87934 0.75697 0.93039 0.0
C1843 C 0.87118 0.80259 0.0259 0.0
C1844 C 0.84568 0.7912 0.906 0.0
C1845 C 0.86642 0.80886 0.07152 0.0
C1846 C 0.87061 0.73402 0.81037 0.0
C1847 C 0.87348 0.74662 0.83619 0.0
C1848 C 0.8703 0.76659 0.92223 0.0
C1849 C 0.85377 0.79932 0.99268 0.0
C1850 C 0.85746 0.78954 0.95059 0.0
C1851 C 0.85518 0.75561 0.8449 0.0
C1852 C 0.85751 0.76787 0.87887 0.0
H1853 H 0.80981 0.81226 0.05822 0.0
H1854 H 0.818 0.80128 0.97963 0.0
H1855 H 0.87924 0.77551 0.99178 0.0
H1856 H 0.81481 0.7368 0.7847 0.0
H1857 H 0.81967 0.75867 0.83088 0.0
C1858 C 0.08177 0.90846 0.78558 0.0
C1859 C 0.07803 0.92226 0.76817 0.0
C1860 C 0.06791 0.90268 0.82206 0.0
C1861 C 0.01065 0.90484 0.86313 0.0
H1862 H 0.02919 0.89352 0.99427 0.0
C1863 C 0.945 0.89884 0.01294 0.0
C1864 C 0.94983 0.90854 0.05052 0.0
C1865 C 0.96206 0.89437 0.98102 0.0
C1866 C 0.0238 0.89636 0.95742 0.0
H1867 H 0.05771 0.94106 0.77804 0.0
H1868 H 0.03363 0.93091 0.84091 0.0
H1869 H 0.05764 0.89879 0.93151 0.0
H1870 H 0.97629 0.91991 0.08809 0.0
H1871 H 0.00588 0.91213 0.03309 0.0
H1872 H 0.97698 0.90335 0.88921 0.0
C1873 C 0.04712 0.92456 0.82593 0.0
C1874 C 0.04005 0.89935 0.92168 0.0
C1875 C 0.06106 0.9304 0.79017 0.0
C1876 C 0.97214 0.91258 0.05885 0.0
C1877 C 0.98915 0.90797 0.02766 0.0
C1878 C 0.99446 0.90174 0.89854 0.0
C1879 C 0.05001 0.91055 0.84107 0.0
C1880 C 0.03351 0.90428 0.87512 0.0
C1881 C 0.98414 0.89937 0.98699 0.0
C1882 C 0.00086 0.89817 0.94678 0.0
H1883 H 0.09474 0.90191 0.76957 0.0
H1884 H 0.07051 0.89188 0.83369 0.0
H1885 H 0.00529 0.9085 0.82715 0.0
H1886 H 0.9279 0.89554 0.00604 0.0
H1887 H 0.95779 0.88768 0.95007 0.0
C1888 C 0.86156 0.77742 0.32623 0.0
C1889 C 0.8431 0.77836 0.29403 0.0
C1890 C 0.86536 0.76521 0.35382 0.0
C1891 C 0.8338 0.736 0.40749 0.0
H1892 H 0.89249 0.72142 0.44205 0.0
C1893 C 0.83995 0.69378 0.55473 0.0
C1894 C 0.85596 0.69638 0.59156 0.0
C1895 C 0.84141 0.70054 0.50916 0.0
C1896 C 0.87598 0.72537 0.43285 0.0
H1897 H 0.81484 0.76681 0.26386 0.0
H1898 H 0.82153 0.74551 0.31188 0.0
H1899 H 0.88914 0.73983 0.37928 0.0
H1900 H 0.88701 0.70714 0.60848 0.0
H1901 H 0.88932 0.71931 0.52937 0.0
H1902 H 0.82057 0.72222 0.46218 0.0
C1903 C 0.83291 0.75432 0.31617 0.0
C1904 C 0.87407 0.73591 0.39686 0.0
C1905 C 0.82913 0.76653 0.28848 0.0
C1906 C 0.87458 0.70485 0.58047 0.0
C1907 C 0.87583 0.71185 0.53505 0.0
C1908 C 0.8357 0.72558 0.44351 0.0
C1909 C 0.85076 0.75363 0.34999 0.0
C1910 C 0.85295 0.74147 0.38429 0.0
C1911 C 0.85861 0.71033 0.49983 0.0
C1912 C 0.85682 0.72023 0.45724 0.0
H1913 H 0.87274 0.7863 0.33139 0.0
H1914 H 0.87914 0.76509 0.37984 0.0
H1915 H 0.81732 0.74022 0.39949 0.0
H1916 H 0.82545 0.68726 0.56242 0.0
H1917 H 0.82823 0.69878 0.48244 0.0
C1918 C 0.43777 0.42652 0.79575 0.0
C1919 C 0.42116 0.41783 0.77499 0.0
C1920 C 0.452 0.42138 0.83223 0.0
C1921 C 0.46026 0.39805 0.93227 0.0
H1922 H 0.52317 0.40118 0.89708 0.0
C1923 C 0.55543 0.3963 0.02303 0.0
C1924 C 0.55169 0.40656 0.05939 0.0
C1925 C 0.53806 0.39245 0.9909 0.0
C1926 C 0.50572 0.39986 0.90721 0.0
H1927 H 0.40546 0.3972 0.77927 0.0
H1928 H 0.43019 0.38839 0.84475 0.0
H1929 H 0.49443 0.40532 0.83475 0.0
H1930 H 0.52668 0.41987 0.09389 0.0
H1931 H 0.49649 0.41307 0.03864 0.0
H1932 H 0.47159 0.3936 0.00572 0.0
C1933 C 0.43226 0.39908 0.83155 0.0
C1934 C 0.48931 0.40236 0.87166 0.0
C1935 C 0.41812 0.40417 0.79431 0.0
C1936 C 0.53003 0.41206 0.0657 0.0
C1937 C 0.51267 0.40803 0.03443 0.0
C1938 C 0.47673 0.39572 0.96813 0.0
C1939 C 0.44977 0.40753 0.84941 0.0
C1940 C 0.46651 0.402 0.8844 0.0
C1941 C 0.51667 0.39859 0.9956 0.0
C1942 C 0.4996 0.39716 0.95629 0.0
H1943 H 0.44059 0.43711 0.78217 0.0
H1944 H 0.4652 0.42814 0.84623 0.0
H1945 H 0.44274 0.39771 0.94273 0.0
H1946 H 0.57201 0.3919 0.01761 0.0
H1947 H 0.54155 0.38515 0.96119 0.0
C1948 C 0.67291 0.30258 0.05506 0.0
C1949 C 0.65477 0.30723 0.08392 0.0
C1950 C 0.66942 0.29664 0.00892 0.0
C1951 C 0.62693 0.27637 0.94395 0.0
H1952 H 0.67493 0.27453 0.84776 0.0
C1953 C 0.64745 0.22524 0.84403 0.0
C1954 C 0.65796 0.22527 0.79768 0.0
C1955 C 0.64282 0.23785 0.86838 0.0
C1956 C 0.66102 0.27503 0.87333 0.0
H1957 H 0.61877 0.31033 0.08478 0.0
H1958 H 0.61262 0.3001 0.00275 0.0
H1959 H 0.6738 0.29386 0.90624 0.0
H1960 H 0.67122 0.2386 0.73975 0.0
H1961 H 0.66256 0.26075 0.78172 0.0
H1962 H 0.61406 0.25759 0.91093 0.0
C1963 C 0.62958 0.30085 0.01677 0.0
C1964 C 0.66052 0.28608 0.90738 0.0
C1965 C 0.63309 0.30679 0.0636 0.0
C1966 C 0.66331 0.23824 0.77568 0.0
C1967 C 0.65835 0.25093 0.79982 0.0
C1968 C 0.62719 0.26546 0.9093 0.0
C1969 C 0.6477 0.2953 0.98958 0.0
C1970 C 0.64426 0.28639 0.945 0.0
C1971 C 0.64824 0.2509 0.8468 0.0
C1972 C 0.64498 0.26418 0.87542 0.0
H1973 H 0.68992 0.30286 0.06904 0.0
H1974 H 0.68379 0.29232 0.98983 0.0
H1975 H 0.61406 0.27626 0.97213 0.0
H1976 H 0.64329 0.21543 0.8623 0.0
H1977 H 0.63565 0.23727 0.90499 0.0
C1978 C 0.9401 0.59301 0.51064 0.0
C1979 C 0.92916 0.58004 0.51773 0.0
C1980 C 0.95667 0.59436 0.47419 0.0
C1981 C 0.99713 0.57191 0.41012 0.0
H1982 H 0.00436 0.60261 0.31723 0.0
C1983 C 0.05524 0.56722 0.24292 0.0
C1984 C 0.06829 0.57894 0.22949 0.0
C1985 C 0.03881 0.56841 0.27932 0.0
C1986 C 0.00272 0.59406 0.34343 0.0
H1987 H 0.92546 0.55877 0.48941 0.0
H1988 H 0.95392 0.56119 0.42607 0.0
H1989 H 0.97362 0.60328 0.37727 0.0
H1990 H 0.07429 0.60112 0.24425 0.0
H1991 H 0.04568 0.60312 0.30816 0.0
H1992 H 0.026 0.56263 0.37673 0.0
C1993 C 0.95027 0.57018 0.44936 0.0
C1994 C 0.98512 0.59445 0.37766 0.0
C1995 C 0.93389 0.56882 0.48555 0.0
C1996 C 0.06457 0.59187 0.25364 0.0
C1997 C 0.04807 0.59306 0.29005 0.0
C1998 C 0.01465 0.57154 0.3762 0.0
C1999 C 0.96242 0.58276 0.44446 0.0
C2000 C 0.9819 0.5832 0.41056 0.0
C2001 C 0.03501 0.58134 0.30328 0.0
C2002 C 0.01739 0.58245 0.34177 0.0
H2003 H 0.93678 0.60183 0.5349 0.0
H2004 H 0.96574 0.6042 0.47098 0.0
H2005 H 0.9954 0.56326 0.4359 0.0
H2006 H 0.05754 0.55712 0.22506 0.0
H2007 H 0.02881 0.55923 0.28815 0.0
C2008 C 0.87619 0.30136 0.90867 0.0
C2009 C 0.85495 0.30735 0.90117 0.0
C2010 C 0.88076 0.29393 0.95228 0.0
C2011 C 0.85695 0.28428 0.07615 0.0
H2012 H 0.8799 0.24727 0.04308 0.0
C2013 C 0.87217 0.22542 0.16769 0.0
C2014 C 0.85108 0.22317 0.18969 0.0
C2015 C 0.87634 0.23751 0.13985 0.0
C2016 C 0.87382 0.25761 0.05339 0.0
H2017 H 0.82274 0.31152 0.93502 0.0
H2018 H 0.83063 0.29892 0.01054 0.0
H2019 H 0.88239 0.26616 0.98305 0.0
H2020 H 0.81811 0.23225 0.20101 0.0
H2021 H 0.82535 0.25336 0.1519 0.0
H2022 H 0.84744 0.27541 0.14583 0.0
C2023 C 0.84386 0.29979 0.98336 0.0
C2024 C 0.87537 0.26851 0.01895 0.0
C2025 C 0.83928 0.30704 0.93986 0.0
C2026 C 0.83452 0.23361 0.1846 0.0
C2027 C 0.83873 0.24576 0.15667 0.0
C2028 C 0.85531 0.27334 0.11058 0.0
C2029 C 0.8642 0.29251 0.98911 0.0
C2030 C 0.86644 0.2819 0.02934 0.0
C2031 C 0.85956 0.24771 0.13321 0.0
C2032 C 0.86328 0.25979 0.09914 0.0
H2033 H 0.88857 0.30141 0.87944 0.0
H2034 H 0.89677 0.28865 0.95596 0.0
H2035 H 0.85016 0.29452 0.08565 0.0
H2036 H 0.88546 0.2177 0.17109 0.0
H2037 H 0.89267 0.23878 0.12292 0.0
C2038 C 0.96568 0.41323 0.93944 0.0
C2039 C 0.94367 0.40831 0.94547 0.0
C2040 C 0.98259 0.40886 0.97131 0.0
C2041 C 0.98703 0.40134 0.09955 0.0
H2042 H 0.05059 0.39968 0.06938 0.0
C2043 C 0.05212 0.42884 0.21764 0.0
C2044 C 0.07076 0.42106 0.23379 0.0
C2045 C 0.03774 0.42333 0.18204 0.0
C2046 C 0.0329 0.39989 0.07845 0.0
H2047 H 0.92226 0.39413 0.98667 0.0
H2048 H 0.95194 0.38673 0.04395 0.0
H2049 H 0.02303 0.39474 0.00459 0.0
H2050 H 0.0896 0.4017 0.22317 0.0
H2051 H 0.06458 0.39228 0.15953 0.0
H2052 H 0.99684 0.40736 0.17246 0.0
C2053 C 0.95607 0.39388 0.01418 0.0
C2054 C 0.01716 0.39708 0.04151 0.0
C2055 C 0.93914 0.39809 0.98153 0.0
C2056 C 0.07533 0.40794 0.21163 0.0
C2057 C 0.06104 0.40252 0.17537 0.0
C2058 C 0.00272 0.40427 0.13622 0.0
C2059 C 0.97775 0.39965 0.01038 0.0
C2060 C 0.99408 0.39839 0.05124 0.0
C2061 C 0.04181 0.41002 0.16134 0.0
C2062 C 0.02573 0.40417 0.12538 0.0
H2063 H 0.96961 0.42099 0.91143 0.0
H2064 H 0.99903 0.41361 0.96766 0.0
H2065 H 0.96939 0.40255 0.10814 0.0
H2066 H 0.04806 0.43895 0.23385 0.0
H2067 H 0.02322 0.42944 0.17101 0.0
C2068 C 0.62294 0.70815 0.39859 0.0
C2069 C 0.63837 0.69712 0.39347 0.0
C2070 C 0.6214 0.71551 0.44322 0.0
C2071 C 0.65796 0.72275 0.55181 0.0
H2072 H 0.60917 0.74789 0.5851 0.0
C2073 C 0.67305 0.7732 0.6647 0.0
C2074 C 0.65535 0.77917 0.69154 0.0
C2075 C 0.66949 0.76116 0.63595 0.0
C2076 C 0.62291 0.74079 0.5773 0.0
H2077 H 0.66271 0.68427 0.43128 0.0
H2078 H 0.65844 0.69597 0.51058 0.0
H2079 H 0.60315 0.72945 0.52491 0.0
H2080 H 0.62045 0.77682 0.71199 0.0
H2081 H 0.61451 0.75538 0.66449 0.0
H2082 H 0.67742 0.73366 0.60566 0.0
C2083 C 0.64838 0.6996 0.47988 0.0
C2084 C 0.61953 0.73029 0.54183 0.0
C2085 C 0.65047 0.69261 0.43485 0.0
C2086 C 0.63434 0.77249 0.69116 0.0
C2087 C 0.63091 0.76026 0.66346 0.0
C2088 C 0.66116 0.733 0.58807 0.0
C2089 C 0.63492 0.71175 0.4839 0.0
C2090 C 0.63721 0.72139 0.52734 0.0
C2091 C 0.64825 0.75461 0.63432 0.0
C2092 C 0.64394 0.7425 0.60026 0.0
H2093 H 0.61377 0.712 0.36684 0.0
H2094 H 0.61092 0.72481 0.4442 0.0
H2095 H 0.67222 0.71633 0.54169 0.0
H2096 H 0.68935 0.77824 0.66395 0.0
H2097 H 0.68323 0.75739 0.6135 0.0
C2098 C 0.56176 0.60061 0.48213 0.0
C2099 C 0.55651 0.59048 0.44618 0.0
C2100 C 0.54529 0.60515 0.51536 0.0
C2101 C 0.48404 0.60418 0.5421 0.0
H2102 H 0.5028 0.59495 0.67511 0.0
C2103 C 0.42485 0.59812 0.71434 0.0
C2104 C 0.42785 0.58497 0.73755 0.0
C2105 C 0.43959 0.60255 0.6772 0.0
C2106 C 0.49739 0.59778 0.63827 0.0
H2107 H 0.52971 0.57815 0.41368 0.0
H2108 H 0.50113 0.58609 0.47101 0.0
H2109 H 0.53094 0.59771 0.61065 0.0
H2110 H 0.44814 0.56594 0.73814 0.0
H2111 H 0.47371 0.57374 0.67411 0.0
H2112 H 0.45032 0.60341 0.56967 0.0
C2113 C 0.51782 0.59051 0.47401 0.0
C2114 C 0.51349 0.59951 0.60149 0.0
C2115 C 0.53427 0.58581 0.44155 0.0
C2116 C 0.44529 0.57614 0.72135 0.0
C2117 C 0.46011 0.58064 0.68497 0.0
C2118 C 0.46792 0.60259 0.57914 0.0
C2119 C 0.52329 0.59985 0.51229 0.0
C2120 C 0.50691 0.60206 0.55259 0.0
C2121 C 0.45771 0.59398 0.66339 0.0
C2122 C 0.47447 0.59873 0.62693 0.0
H2123 H 0.57879 0.60441 0.48624 0.0
H2124 H 0.54991 0.61238 0.54456 0.0
H2125 H 0.47857 0.60625 0.50471 0.0
H2126 H 0.41156 0.60517 0.72586 0.0
H2127 H 0.43734 0.61283 0.6606 0.0
C2128 C 0.16692 0.23522 0.69911 0.0
C2129 C 0.15151 0.22411 0.69363 0.0
C2130 C 0.1643 0.24773 0.67248 0.0
C2131 C 0.12415 0.26834 0.59561 0.0
H2132 H 0.17849 0.28152 0.53236 0.0
C2133 C 0.12655 0.30072 0.41521 0.0
C2134 C 0.14573 0.30883 0.40559 0.0
C2135 C 0.12438 0.29362 0.46026 0.0
C2136 C 0.16316 0.27829 0.55054 0.0
H2137 H 0.1208 0.21771 0.65687 0.0
H2138 H 0.11651 0.23939 0.60993 0.0
H2139 H 0.18057 0.26258 0.59183 0.0
H2140 H 0.17625 0.31731 0.43689 0.0
H2141 H 0.17187 0.30567 0.51638 0.0
H2142 H 0.10669 0.28385 0.5527 0.0
C2143 C 0.13044 0.23852 0.63535 0.0
C2144 C 0.16438 0.26734 0.58471 0.0
C2145 C 0.13303 0.22602 0.66205 0.0
C2146 C 0.16129 0.31111 0.44358 0.0
C2147 C 0.15892 0.30426 0.4888 0.0
C2148 C 0.12293 0.27937 0.56133 0.0
C2149 C 0.14626 0.24944 0.6396 0.0
C2150 C 0.14488 0.26205 0.60709 0.0
C2151 C 0.14126 0.29468 0.49646 0.0
C2152 C 0.1424 0.28434 0.53777 0.0
H2153 H 0.18125 0.23419 0.72338 0.0
H2154 H 0.17661 0.25601 0.67718 0.0
H2155 H 0.10884 0.26463 0.61266 0.0
H2156 H 0.11448 0.29866 0.38623 0.0
H2157 H 0.11055 0.28634 0.46476 0.0
C2158 C 0.57651 0.59726 0.21447 0.0
C2159 C 0.57377 0.58327 0.23083 0.0
C2160 C 0.56175 0.60304 0.17972 0.0
C2161 C 0.50402 0.59947 0.13955 0.0
H2162 H 0.52179 0.61404 0.01188 0.0
C2163 C 0.43825 0.60704 0.99012 0.0
C2164 C 0.44374 0.59831 0.95017 0.0
C2165 C 0.45493 0.61111 0.02364 0.0
C2166 C 0.51659 0.61027 0.04782 0.0
H2167 H 0.5541 0.56419 0.22112 0.0
H2168 H 0.52849 0.57431 0.1612 0.0
H2169 H 0.55052 0.60857 0.07374 0.0
H2170 H 0.47085 0.58821 0.91057 0.0
H2171 H 0.49985 0.59541 0.96819 0.0
H2172 H 0.47031 0.60031 0.11318 0.0
C2173 C 0.54188 0.58082 0.17571 0.0
C2174 C 0.533 0.60716 0.08308 0.0
C2175 C 0.55671 0.575 0.20974 0.0
C2176 C 0.46625 0.59485 0.94147 0.0
C2177 C 0.48289 0.5991 0.97424 0.0
C2178 C 0.48765 0.6027 0.10464 0.0
C2179 C 0.54389 0.59496 0.1614 0.0
C2180 C 0.52684 0.6011 0.12827 0.0
C2181 C 0.47728 0.60671 0.0169 0.0
C2182 C 0.49383 0.60749 0.05757 0.0
H2183 H 0.5895 0.60392 0.22984 0.0
H2184 H 0.56371 0.61395 0.16875 0.0
H2185 H 0.4989 0.59496 0.1745 0.0
H2186 H 0.42094 0.60982 0.99741 0.0
H2187 H 0.45018 0.61701 0.05619 0.0
C2188 C 0.36791 0.77472 0.17358 0.0
C2189 C 0.34935 0.77665 0.20495 0.0
C2190 C 0.3706 0.76218 0.14722 0.0
C2191 C 0.33575 0.73456 0.09424 0.0
H2192 H 0.3925 0.71741 0.05838 0.0
C2193 C 0.33586 0.69297 0.94594 0.0
C2194 C 0.35185 0.69479 0.90863 0.0
C2195 C 0.33866 0.69933 0.99175 0.0
C2196 C 0.37653 0.72209 0.06799 0.0
H2197 H 0.31988 0.76648 0.23556 0.0
H2198 H 0.32467 0.74458 0.18973 0.0
H2199 H 0.39145 0.73573 0.12196 0.0
H2200 H 0.38414 0.70384 0.89078 0.0
H2201 H 0.38878 0.71553 0.97056 0.0
H2202 H 0.32082 0.72169 0.03917 0.0
C2203 C 0.33695 0.75289 0.18502 0.0
C2204 C 0.37593 0.73256 0.10445 0.0
C2205 C 0.33424 0.76543 0.2114 0.0
C2206 C 0.37169 0.70213 0.91926 0.0
C2207 C 0.37429 0.70884 0.96502 0.0
C2208 C 0.33636 0.72423 0.05782 0.0
C2209 C 0.3548 0.75128 0.15158 0.0
C2210 C 0.35554 0.73904 0.11743 0.0
C2211 C 0.35718 0.7081 0.00084 0.0
C2212 C 0.35676 0.71795 0.04366 0.0
H2213 H 0.37997 0.78309 0.16786 0.0
H2214 H 0.38442 0.76135 0.12147 0.0
H2215 H 0.31984 0.73953 0.10245 0.0
H2216 H 0.32032 0.68753 0.93825 0.0
H2217 H 0.32542 0.69822 0.01876 0.0
C2218 C 0.03382 0.41631 0.44105 0.0
C2219 C 0.05618 0.41234 0.44915 0.0
C2220 C 0.0171 0.41235 0.47402 0.0
C2221 C 0.98304 0.40049 0.54575 0.0
H2222 H 0.9998 0.41437 0.67506 0.0
C2223 C 0.92216 0.40855 0.71362 0.0
C2224 C 0.9242 0.42196 0.73548 0.0
C2225 C 0.93725 0.40421 0.67709 0.0
C2226 C 0.99493 0.41032 0.63926 0.0
H2227 H 0.07854 0.40034 0.49593 0.0
H2228 H 0.04914 0.39367 0.55514 0.0
H2229 H 0.02875 0.41033 0.61322 0.0
H2230 H 0.94291 0.4416 0.73366 0.0
H2231 H 0.96909 0.43399 0.67044 0.0
H2232 H 0.94901 0.40116 0.57151 0.0
C2233 C 0.04462 0.39976 0.52284 0.0
C2234 C 0.01152 0.40783 0.60408 0.0
C2235 C 0.06138 0.40353 0.4891 0.0
C2236 C 0.94084 0.43119 0.71799 0.0
C2237 C 0.95601 0.42679 0.68208 0.0
C2238 C 0.96643 0.40283 0.58124 0.0
C2239 C 0.02244 0.4045 0.51627 0.0
C2240 C 0.00566 0.40344 0.55635 0.0
C2241 C 0.95475 0.41315 0.66234 0.0
C2242 C 0.97221 0.40834 0.62755 0.0
H2243 H 0.02939 0.423 0.41013 0.0
H2244 H 0.00026 0.4163 0.46818 0.0
H2245 H 0.97811 0.39704 0.50925 0.0
H2246 H 0.9095 0.40118 0.7261 0.0
H2247 H 0.93586 0.39368 0.66201 0.0
C2248 C 0.13282 0.69674 0.06932 0.0
C2249 C 0.15439 0.69618 0.09009 0.0
C2250 C 0.12967 0.7025 0.02217 0.0
C2251 C 0.16002 0.71523 0.91027 0.0
H2252 H 0.11843 0.74652 0.91714 0.0
C2253 C 0.17278 0.7672 0.80432 0.0
C2254 C 0.15395 0.77538 0.79238 0.0
C2255 C 0.17014 0.75437 0.8292 0.0
C2256 C 0.12976 0.73766 0.91367 0.0
H2257 H 0.18973 0.70013 0.07589 0.0
H2258 H 0.1842 0.7102 0.99515 0.0
H2259 H 0.11771 0.72859 0.98075 0.0
H2260 H 0.11759 0.776 0.79278 0.0
H2261 H 0.11298 0.75352 0.83451 0.0
H2262 H 0.17271 0.72467 0.84417 0.0
C2263 C 0.16968 0.70621 0.0147 0.0
C2264 C 0.12928 0.72733 0.95028 0.0
C2265 C 0.1728 0.70053 0.06144 0.0
C2266 C 0.13245 0.77004 0.80242 0.0
C2267 C 0.12981 0.75717 0.82651 0.0
C2268 C 0.16043 0.72554 0.87342 0.0
C2269 C 0.14807 0.70764 0.99503 0.0
C2270 C 0.14496 0.71631 0.95004 0.0
C2271 C 0.14861 0.74942 0.84193 0.0
C2272 C 0.14584 0.73716 0.87568 0.0
H2273 H 0.1183 0.69346 0.09039 0.0
H2274 H 0.1128 0.70347 0.00777 0.0
H2275 H 0.17217 0.70676 0.9089 0.0
H2276 H 0.18953 0.77109 0.79703 0.0
H2277 H 0.18503 0.74875 0.84084 0.0
C2278 C 0.94115 0.59648 0.75112 0.0
C2279 C 0.93334 0.58249 0.75268 0.0
C2280 C 0.95749 0.60112 0.78423 0.0
C2281 C 0.98365 0.59435 0.90343 0.0
H2282 H 0.03901 0.6073 0.84328 0.0
C2283 C 0.07881 0.58963 0.95917 0.0
C2284 C 0.07899 0.59561 0.00648 0.0
C2285 C 0.06131 0.59253 0.92657 0.0
C2286 C 0.02352 0.60396 0.86056 0.0
H2287 H 0.93578 0.5626 0.79167 0.0
H2288 H 0.96405 0.57085 0.85042 0.0
H2289 H 0.00589 0.60318 0.79174 0.0
H2290 H 0.06191 0.60995 0.056 0.0
H2291 H 0.03078 0.61471 -0.00077 0.0
H2292 H 0.00145 0.59473 0.97202 0.0
C2293 C 0.95758 0.57815 0.82316 0.0
C2294 C 0.00462 0.60162 0.83122 0.0
C2295 C 0.94153 0.57341 0.78942 0.0
C2296 C 0.06223 0.60533 0.01948 0.0
C2297 C 0.04439 0.60797 0.98725 0.0
C2298 C 0.00241 0.59696 0.9329 0.0
C2299 C 0.966 0.59195 0.82018 0.0
C2300 C 0.98476 0.59638 0.85223 0.0
C2301 C 0.04346 0.60122 0.9412 0.0
C2302 C 0.02269 0.60138 0.91149 0.0
H2303 H 0.93522 0.60374 0.72317 0.0
H2304 H 0.96371 0.61181 0.78134 0.0
H2305 H 0.96848 0.59037 0.9204 0.0
H2306 H 0.09153 0.58207 0.94845 0.0
H2307 H 0.06088 0.58712 0.8914 0.0
C2308 C 0.3787 0.29169 0.60554 0.0
C2309 C 0.36751 0.30464 0.60773 0.0
C2310 C 0.37992 0.28427 0.56106 0.0
C2311 C 0.38306 0.2701 0.46184 0.0
H2312 H 0.3283 0.27289 0.38549 0.0
C2313 C 0.36501 0.23009 0.30788 0.0
C2314 C 0.34279 0.22542 0.303 0.0
C2315 C 0.37002 0.24199 0.33615 0.0
C2316 C 0.34363 0.27185 0.40654 0.0
H2317 H 0.35086 0.32073 0.56518 0.0
H2318 H 0.35392 0.30826 0.4867 0.0
H2319 H 0.33509 0.28943 0.45177 0.0
H2320 H 0.3083 0.22963 0.32274 0.0
H2321 H 0.31698 0.24994 0.37432 0.0
H2322 H 0.39068 0.25178 0.41963 0.0
C2323 C 0.36098 0.30344 0.51938 0.0
C2324 C 0.3478 0.28159 0.44417 0.0
C2325 C 0.35944 0.31071 0.5641 0.0
C2326 C 0.32555 0.23312 0.32555 0.0
C2327 C 0.3306 0.24483 0.35498 0.0
C2328 C 0.37868 0.2602 0.42492 0.0
C2329 C 0.37018 0.28978 0.51772 0.0
C2330 C 0.36736 0.28068 0.47313 0.0
C2331 C 0.35299 0.24928 0.36154 0.0
C2332 C 0.35868 0.26074 0.3973 0.0
H2333 H 0.38464 0.28669 0.63902 0.0
H2334 H 0.38696 0.27377 0.56182 0.0
H2335 H 0.39854 0.26918 0.48245 0.0
H2336 H 0.37859 0.22439 0.29039 0.0
H2337 H 0.38736 0.24526 0.33883 0.0
C2338 C 0.46452 0.40886 0.57025 0.0
C2339 C 0.44196 0.40539 0.56208 0.0
C2340 C 0.48098 0.40461 0.53707 0.0
C2341 C 0.51422 0.39354 0.46245 0.0
H2342 H 0.49533 0.40798 0.33531 0.0
C2343 C 0.57353 0.40373 0.2944 0.0
C2344 C 0.57048 0.41702 0.2722 0.0
C2345 C 0.55877 0.39901 0.3309 0.0
C2346 C 0.50081 0.40381 0.3705 0.0
H2347 H 0.41896 0.39378 0.51558 0.0
H2348 H 0.44789 0.38653 0.45629 0.0
H2349 H 0.46736 0.40314 0.39842 0.0
H2350 H 0.55021 0.43602 0.2729 0.0
H2351 H 0.52459 0.42777 0.33646 0.0
H2352 H 0.54787 0.39498 0.43492 0.0
C2353 C 0.45279 0.39249 0.48861 0.0
C2354 C 0.48478 0.40083 0.4064 0.0
C2355 C 0.4363 0.39658 0.52247 0.0
C2356 C 0.55306 0.42574 0.28905 0.0
C2357 C 0.53822 0.42096 0.32506 0.0
C2358 C 0.53028 0.39643 0.42627 0.0
C2359 C 0.47513 0.39698 0.49463 0.0
C2360 C 0.49138 0.39623 0.45343 0.0
C2361 C 0.54059 0.40743 0.34537 0.0
C2362 C 0.52373 0.40217 0.3808 0.0
H2363 H 0.46927 0.41555 0.60091 0.0
H2364 H 0.49796 0.40834 0.5426 0.0
H2365 H 0.51974 0.38992 0.49834 0.0
H2366 H 0.58684 0.39677 0.2824 0.0
H2367 H 0.56103 0.38858 0.34632 0.0
loop_
_geom_bond_atom_site_label_1
_geom_bond_atom_site_label_2
_geom_bond_distance
_geom_bond_site_symmetry_2
_ccdc_geom_bond_type
Co0 O1 2.216 . S
Co0 O2 2.091 . S
Co0 O4 2.004 . S
Co0 O10 2.021 . S
Co0 O12 2.137 . S
Co0 O13 2.244 . S
O1 Co0 2.216 . S
O1 C8 1.247 . S
O2 Co0 2.091 . S
O2 C8 1.261 . S
C3 O12 1.247 . S
C3 O13 1.272 . S
O4 Co0 2.004 . S
O4 C9 1.259 . S
Co5 O6 2.061 . S
Co5 O11 2.052 . S
Co5 O13 2.135 . S
O6 Co5 2.061 . S
O6 C9 1.235 . S
C7 O10 1.238 . S
C7 O11 1.241 . S
C8 O1 1.247 . S
C8 O2 1.261 . S
C9 O4 1.259 . S
C9 O6 1.235 . S
O10 Co0 2.021 . S
O10 C7 1.238 . S
O11 Co5 2.052 . S
O11 C7 1.241 . S
O12 Co0 2.137 . S
O12 C3 1.247 . S
O13 Co0 2.244 . S
O13 C3 1.272 . S
O13 Co5 2.135 . S
Co14 O15 2.216 . S
Co14 O16 2.091 . S
Co14 O18 2.004 . S
Co14 O24 2.021 . S
Co14 O26 2.137 . S
Co14 O27 2.244 . S
O15 Co14 2.216 . S
O15 C22 1.247 . S
O16 Co14 2.091 . S
O16 C22 1.261 . S
C17 O26 1.247 . S
C17 O27 1.272 . S
O18 Co14 2.004 . S
O18 C23 1.259 . S
Co19 O20 2.061 . S
Co19 O25 2.052 . S
Co19 O27 2.135 . S
O20 Co19 2.061 . S
O20 C23 1.235 . S
C21 O24 1.238 . S
C21 O25 1.241 . S
C22 O15 1.247 . S
C22 O16 1.261 . S
C23 O18 1.259 . S
C23 O20 1.235 . S
O24 Co14 2.021 . S
O24 C21 1.238 . S
O25 Co19 2.052 . S
O25 C21 1.241 . S
O26 Co14 2.137 . S
O26 C17 1.247 . S
O27 Co14 2.244 . S
O27 C17 1.272 . S
O27 Co19 2.135 . S
Co28 O29 2.216 . S
Co28 O30 2.091 . S
Co28 O32 2.004 . S
Co28 O38 2.021 . S
Co28 O40 2.137 . S
Co28 O41 2.244 . S
O29 Co28 2.216 . S
O29 C36 1.247 . S
O30 Co28 2.091 . S
O30 C36 1.261 . S
C31 O40 1.247 . S
C31 O41 1.272 . S
O32 Co28 2.004 . S
O32 C37 1.259 . S
Co33 O34 2.061 . S
Co33 O39 2.052 . S
Co33 O41 2.135 . S
O34 Co33 2.061 . S
O34 C37 1.235 . S
C35 O38 1.238 . S
C35 O39 1.241 . S
C36 O29 1.247 . S
C36 O30 1.261 . S
C37 O32 1.259 . S
C37 O34 1.235 . S
O38 Co28 2.021 . S
O38 C35 1.238 . S
O39 Co33 2.052 . S
O39 C35 1.241 . S
O40 Co28 2.137 . S
O40 C31 1.247 . S
O41 Co28 2.244 . S
O41 C31 1.272 . S
O41 Co33 2.135 . S
Co42 O43 2.216 . S
Co42 O44 2.091 . S
Co42 O46 2.004 . S
Co42 O52 2.021 . S
Co42 O54 2.137 . S
Co42 O55 2.244 . S
O43 Co42 2.216 . S
O43 C50 1.247 . S
O44 Co42 2.091 . S
O44 C50 1.261 . S
C45 O54 1.247 . S
C45 O55 1.272 . S
O46 Co42 2.004 . S
O46 C51 1.259 . S
Co47 O48 2.061 . S
Co47 O53 2.052 . S
Co47 O55 2.135 . S
O48 Co47 2.061 . S
O48 C51 1.235 . S
C49 O52 1.238 . S
C49 O53 1.241 . S
C50 O43 1.247 . S
C50 O44 1.261 . S
C51 O46 1.259 . S
C51 O48 1.235 . S
O52 Co42 2.021 . S
O52 C49 1.238 . S
O53 Co47 2.052 . S
O53 C49 1.241 . S
O54 Co42 2.137 . S
O54 C45 1.247 . S
O55 Co42 2.244 . S
O55 C45 1.272 . S
O55 Co47 2.135 . S
Co56 O57 2.216 . S
Co56 O58 2.091 . S
Co56 O60 2.004 . S
Co56 O66 2.021 . S
Co56 O68 2.137 . S
Co56 O69 2.244 . S
O57 Co56 2.216 . S
O57 C64 1.247 . S
O58 Co56 2.091 . S
O58 C64 1.261 . S
C59 O68 1.247 . S
C59 O69 1.272 . S
O60 Co56 2.004 . S
O60 C65 1.259 . S
Co61 O62 2.061 . S
Co61 O67 2.052 . S
Co61 O69 2.135 . S
O62 Co61 2.061 . S
O62 C65 1.235 . S
C63 O66 1.238 . S
C63 O67 1.241 . S
C64 O57 1.247 . S
C64 O58 1.261 . S
C65 O60 1.259 . S
C65 O62 1.235 . S
O66 Co56 2.021 . S
O66 C63 1.238 . S
O67 Co61 2.052 . S
O67 C63 1.241 . S
O68 Co56 2.137 . S
O68 C59 1.247 . S
O69 Co56 2.244 . S
O69 C59 1.272 . S
O69 Co61 2.135 . S
Co70 O71 2.216 . S
Co70 O72 2.091 . S
Co70 O74 2.004 . S
Co70 O80 2.021 . S
Co70 O82 2.137 . S
Co70 O83 2.244 . S
O71 Co70 2.216 . S
O71 C78 1.247 . S
O72 Co70 2.091 . S
O72 C78 1.261 . S
C73 O82 1.247 . S
C73 O83 1.272 . S
O74 Co70 2.004 . S
O74 C79 1.259 . S
Co75 O76 2.061 . S
Co75 O81 2.052 . S
Co75 O83 2.135 . S
O76 Co75 2.061 . S
O76 C79 1.235 . S
C77 O80 1.238 . S
C77 O81 1.241 . S
C78 O71 1.247 . S
C78 O72 1.261 . S
C79 O74 1.259 . S
C79 O76 1.235 . S
O80 Co70 2.021 . S
O80 C77 1.238 . S
O81 Co75 2.052 . S
O81 C77 1.241 . S
O82 Co70 2.137 . S
O82 C73 1.247 . S
O83 Co70 2.244 . S
O83 C73 1.272 . S
O83 Co75 2.135 . S
Co84 O85 2.216 . S
Co84 O86 2.091 . S
Co84 O88 2.004 . S
Co84 O94 2.021 . S
Co84 O96 2.137 . S
Co84 O97 2.244 . S
O85 Co84 2.216 . S
O85 C92 1.247 . S
O86 Co84 2.091 . S
O86 C92 1.261 . S
C87 O96 1.247 . S
C87 O97 1.272 . S
O88 Co84 2.004 . S
O88 C93 1.259 . S
Co89 O90 2.061 . S
Co89 O95 2.052 . S
Co89 O97 2.135 . S
O90 Co89 2.061 . S
O90 C93 1.235 . S
C91 O94 1.238 . S
C91 O95 1.241 . S
C92 O85 1.247 . S
C92 O86 1.261 . S
C93 O88 1.259 . S
C93 O90 1.235 . S
O94 Co84 2.021 . S
O94 C91 1.238 . S
O95 Co89 2.052 . S
O95 C91 1.241 . S
O96 Co84 2.137 . S
O96 C87 1.247 . S
O97 Co84 2.244 . S
O97 C87 1.272 . S
O97 Co89 2.135 . S
Co98 O99 2.216 . S
Co98 O100 2.091 . S
Co98 O102 2.004 . S
Co98 O108 2.021 . S
Co98 O110 2.137 . S
Co98 O111 2.244 . S
O99 Co98 2.216 . S
O99 C106 1.247 . S
O100 Co98 2.091 . S
O100 C106 1.261 . S
C101 O110 1.247 . S
C101 O111 1.272 . S
O102 Co98 2.004 . S
O102 C107 1.259 . S
Co103 O104 2.061 . S
Co103 O109 2.052 . S
Co103 O111 2.135 . S
O104 Co103 2.061 . S
O104 C107 1.235 . S
C105 O108 1.238 . S
C105 O109 1.241 . S
C106 O99 1.247 . S
C106 O100 1.261 . S
C107 O102 1.259 . S
C107 O104 1.235 . S
O108 Co98 2.021 . S
O108 C105 1.238 . S
O109 Co103 2.052 . S
O109 C105 1.241 . S
O110 Co98 2.137 . S
O110 C101 1.247 . S
O111 Co98 2.244 . S
O111 C101 1.272 . S
O111 Co103 2.135 . S
Co112 O113 2.216 . S
Co112 O114 2.091 . S
Co112 O116 2.004 . S
Co112 O122 2.021 . S
Co112 O124 2.137 . S
Co112 O125 2.244 . S
O113 Co112 2.216 . S
O113 C120 1.247 . S
O114 Co112 2.091 . S
O114 C120 1.261 . S
C115 O124 1.247 . S
C115 O125 1.272 . S
O116 Co112 2.004 . S
O116 C121 1.259 . S
Co117 O118 2.061 . S
Co117 O123 2.052 . S
Co117 O125 2.135 . S
O118 Co117 2.061 . S
O118 C121 1.235 . S
C119 O122 1.238 . S
C119 O123 1.241 . S
C120 O113 1.247 . S
C120 O114 1.261 . S
C121 O116 1.259 . S
C121 O118 1.235 . S
O122 Co112 2.021 . S
O122 C119 1.238 . S
O123 Co117 2.052 . S
O123 C119 1.241 . S
O124 Co112 2.137 . S
O124 C115 1.247 . S
O125 Co112 2.244 . S
O125 C115 1.272 . S
O125 Co117 2.135 . S
Co126 O127 2.216 . S
Co126 O128 2.091 . S
Co126 O130 2.004 . S
Co126 O136 2.021 . S
Co126 O138 2.137 . S
Co126 O139 2.244 . S
O127 Co126 2.216 . S
O127 C134 1.247 . S
O128 Co126 2.091 . S
O128 C134 1.261 . S
C129 O138 1.247 . S
C129 O139 1.272 . S
O130 Co126 2.004 . S
O130 C135 1.259 . S
Co131 O132 2.061 . S
Co131 O137 2.052 . S
Co131 O139 2.135 . S
O132 Co131 2.061 . S
O132 C135 1.235 . S
C133 O136 1.238 . S
C133 O137 1.241 . S
C134 O127 1.247 . S
C134 O128 1.261 . S
C135 O130 1.259 . S
C135 O132 1.235 . S
O136 Co126 2.021 . S
O136 C133 1.238 . S
O137 Co131 2.052 . S
O137 C133 1.241 . S
O138 Co126 2.137 . S
O138 C129 1.247 . S
O139 Co126 2.244 . S
O139 C129 1.272 . S
O139 Co131 2.135 . S
Co140 O141 2.216 . S
Co140 O142 2.091 . S
Co140 O144 2.004 . S
Co140 O150 2.021 . S
Co140 O152 2.137 . S
Co140 O153 2.244 . S
O141 Co140 2.216 . S
O141 C148 1.247 . S
O142 Co140 2.091 . S
O142 C148 1.261 . S
C143 O152 1.247 . S
C143 O153 1.272 . S
O144 Co140 2.004 . S
O144 C149 1.259 . S
Co145 O146 2.061 . S
Co145 O151 2.052 . S
Co145 O153 2.135 . S
O146 Co145 2.061 . S
O146 C149 1.235 . S
C147 O150 1.238 . S
C147 O151 1.241 . S
C148 O141 1.247 . S
C148 O142 1.261 . S
C149 O144 1.259 . S
C149 O146 1.235 . S
O150 Co140 2.021 . S
O150 C147 1.238 . S
O151 Co145 2.052 . S
O151 C147 1.241 . S
O152 Co140 2.137 . S
O152 C143 1.247 . S
O153 Co140 2.244 . S
O153 C143 1.272 . S
O153 Co145 2.135 . S
Co154 O155 2.216 . S
Co154 O156 2.091 . S
Co154 O158 2.004 . S
Co154 O164 2.021 . S
Co154 O166 2.137 . S
Co154 O167 2.244 . S
O155 Co154 2.216 . S
O155 C162 1.247 . S
O156 Co154 2.091 . S
O156 C162 1.261 . S
C157 O166 1.247 . S
C157 O167 1.272 . S
O158 Co154 2.004 . S
O158 C163 1.259 . S
Co159 O160 2.061 . S
Co159 O165 2.052 . S
Co159 O167 2.135 . S
O160 Co159 2.061 . S
O160 C163 1.235 . S
C161 O164 1.238 . S
C161 O165 1.241 . S
C162 O155 1.247 . S
C162 O156 1.261 . S
C163 O158 1.259 . S
C163 O160 1.235 . S
O164 Co154 2.021 . S
O164 C161 1.238 . S
O165 Co159 2.052 . S
O165 C161 1.241 . S
O166 Co154 2.137 . S
O166 C157 1.247 . S
O167 Co154 2.244 . S
O167 C157 1.272 . S
O167 Co159 2.135 . S
Co168 O169 2.216 . S
Co168 O170 2.091 . S
Co168 O172 2.004 . S
Co168 O178 2.021 . S
Co168 O180 2.137 . S
Co168 O181 2.244 . S
O169 Co168 2.216 . S
O169 C176 1.247 . S
O170 Co168 2.091 . S
O170 C176 1.261 . S
C171 O180 1.247 . S
C171 O181 1.272 . S
O172 Co168 2.004 . S
O172 C177 1.259 . S
Co173 O174 2.061 . S
Co173 O179 2.052 . S
Co173 O181 2.135 . S
O174 Co173 2.061 . S
O174 C177 1.235 . S
C175 O178 1.238 . S
C175 O179 1.241 . S
C176 O169 1.247 . S
C176 O170 1.261 . S
C177 O172 1.259 . S
C177 O174 1.235 . S
O178 Co168 2.021 . S
O178 C175 1.238 . S
O179 Co173 2.052 . S
O179 C175 1.241 . S
O180 Co168 2.137 . S
O180 C171 1.247 . S
O181 Co168 2.244 . S
O181 C171 1.272 . S
O181 Co173 2.135 . S
Co182 O183 2.216 . S
Co182 O184 2.091 . S
Co182 O186 2.004 . S
Co182 O192 2.021 . S
Co182 O194 2.137 . S
Co182 O195 2.244 . S
O183 Co182 2.216 . S
O183 C190 1.247 . S
O184 Co182 2.091 . S
O184 C190 1.261 . S
C185 O194 1.247 . S
C185 O195 1.272 . S
O186 Co182 2.004 . S
O186 C191 1.259 . S
Co187 O188 2.061 . S
Co187 O193 2.052 . S
Co187 O195 2.135 . S
O188 Co187 2.061 . S
O188 C191 1.235 . S
C189 O192 1.238 . S
C189 O193 1.241 . S
C190 O183 1.247 . S
C190 O184 1.261 . S
C191 O186 1.259 . S
C191 O188 1.235 . S
O192 Co182 2.021 . S
O192 C189 1.238 . S
O193 Co187 2.052 . S
O193 C189 1.241 . S
O194 Co182 2.137 . S
O194 C185 1.247 . S
O195 Co182 2.244 . S
O195 C185 1.272 . S
O195 Co187 2.135 . S
Co196 O197 2.216 . S
Co196 O198 2.091 . S
Co196 O200 2.004 . S
Co196 O206 2.021 . S
Co196 O208 2.137 . S
Co196 O209 2.244 . S
O197 Co196 2.216 . S
O197 C204 1.247 . S
O198 Co196 2.091 . S
O198 C204 1.261 . S
C199 O208 1.247 . S
C199 O209 1.272 . S
O200 Co196 2.004 . S
O200 C205 1.259 . S
Co201 O202 2.061 . S
Co201 O207 2.052 . S
Co201 O209 2.135 . S
O202 Co201 2.061 . S
O202 C205 1.235 . S
C203 O206 1.238 . S
C203 O207 1.241 . S
C204 O197 1.247 . S
C204 O198 1.261 . S
C205 O200 1.259 . S
C205 O202 1.235 . S
O206 Co196 2.021 . S
O206 C203 1.238 . S
O207 Co201 2.052 . S
O207 C203 1.241 . S
O208 Co196 2.137 . S
O208 C199 1.247 . S
O209 Co196 2.244 . S
O209 C199 1.272 . S
O209 Co201 2.135 . S
Co210 O211 2.216 . S
Co210 O212 2.091 . S
Co210 O214 2.004 . S
Co210 O220 2.021 . S
Co210 O222 2.137 . S
Co210 O223 2.244 . S
O211 Co210 2.216 . S
O211 C218 1.247 . S
O212 Co210 2.091 . S
O212 C218 1.261 . S
C213 O222 1.247 . S
C213 O223 1.272 . S
O214 Co210 2.004 . S
O214 C219 1.259 . S
Co215 O216 2.061 . S
Co215 O221 2.052 . S
Co215 O223 2.135 . S
O216 Co215 2.061 . S
O216 C219 1.235 . S
C217 O220 1.238 . S
C217 O221 1.241 . S
C218 O211 1.247 . S
C218 O212 1.261 . S
C219 O214 1.259 . S
C219 O216 1.235 . S
O220 Co210 2.021 . S
O220 C217 1.238 . S
O221 Co215 2.052 . S
O221 C217 1.241 . S
O222 Co210 2.137 . S
O222 C213 1.247 . S
O223 Co210 2.244 . S
O223 C213 1.272 . S
O223 Co215 2.135 . S
Co224 O225 2.216 . S
Co224 O226 2.091 . S
Co224 O228 2.004 . S
Co224 O234 2.021 . S
Co224 O236 2.137 . S
Co224 O237 2.244 . S
O225 Co224 2.216 . S
O225 C232 1.247 . S
O226 Co224 2.091 . S
O226 C232 1.261 . S
C227 O236 1.247 . S
C227 O237 1.272 . S
O228 Co224 2.004 . S
O228 C233 1.259 . S
Co229 O230 2.061 . S
Co229 O235 2.052 . S
Co229 O237 2.135 . S
O230 Co229 2.061 . S
O230 C233 1.235 . S
C231 O234 1.238 . S
C231 O235 1.241 . S
C232 O225 1.247 . S
C232 O226 1.261 . S
C233 O228 1.259 . S
C233 O230 1.235 . S
O234 Co224 2.021 . S
O234 C231 1.238 . S
O235 Co229 2.052 . S
O235 C231 1.241 . S
O236 Co224 2.137 . S
O236 C227 1.247 . S
O237 Co224 2.244 . S
O237 C227 1.272 . S
O237 Co229 2.135 . S
Co238 O239 2.216 . S
Co238 O240 2.091 . S
Co238 O242 2.004 . S
Co238 O248 2.021 . S
Co238 O250 2.137 . S
Co238 O251 2.244 . S
O239 Co238 2.216 . S
O239 C246 1.247 . S
O240 Co238 2.091 . S
O240 C246 1.261 . S
C241 O250 1.247 . S
C241 O251 1.272 . S
O242 Co238 2.004 . S
O242 C247 1.259 . S
Co243 O244 2.061 . S
Co243 O249 2.052 . S
Co243 O251 2.135 . S
O244 Co243 2.061 . S
O244 C247 1.235 . S
C245 O248 1.238 . S
C245 O249 1.241 . S
C246 O239 1.247 . S
C246 O240 1.261 . S
C247 O242 1.259 . S
C247 O244 1.235 . S
O248 Co238 2.021 . S
O248 C245 1.238 . S
O249 Co243 2.052 . S
O249 C245 1.241 . S
O250 Co238 2.137 . S
O250 C241 1.247 . S
O251 Co238 2.244 . S
O251 C241 1.272 . S
O251 Co243 2.135 . S
Co252 O253 2.216 . S
Co252 O254 2.091 . S
Co252 O256 2.004 . S
Co252 O262 2.021 . S
Co252 O264 2.137 . S
Co252 O265 2.244 . S
O253 Co252 2.216 . S
O253 C260 1.247 . S
O254 Co252 2.091 . S
O254 C260 1.261 . S
C255 O264 1.247 . S
C255 O265 1.272 . S
O256 Co252 2.004 . S
O256 C261 1.259 . S
Co257 O258 2.061 . S
Co257 O263 2.052 . S
Co257 O265 2.135 . S
O258 Co257 2.061 . S
O258 C261 1.235 . S
C259 O262 1.238 . S
C259 O263 1.241 . S
C260 O253 1.247 . S
C260 O254 1.261 . S
C261 O256 1.259 . S
C261 O258 1.235 . S
O262 Co252 2.021 . S
O262 C259 1.238 . S
O263 Co257 2.052 . S
O263 C259 1.241 . S
O264 Co252 2.137 . S
O264 C255 1.247 . S
O265 Co252 2.244 . S
O265 C255 1.272 . S
O265 Co257 2.135 . S
Co266 O267 2.216 . S
Co266 O268 2.091 . S
Co266 O270 2.004 . S
Co266 O276 2.021 . S
Co266 O278 2.137 . S
Co266 O279 2.244 . S
O267 Co266 2.216 . S
O267 C274 1.247 . S
O268 Co266 2.091 . S
O268 C274 1.261 . S
C269 O278 1.247 . S
C269 O279 1.272 . S
O270 Co266 2.004 . S
O270 C275 1.259 . S
Co271 O272 2.061 . S
Co271 O277 2.052 . S
Co271 O279 2.135 . S
O272 Co271 2.061 . S
O272 C275 1.235 . S
C273 O276 1.238 . S
C273 O277 1.241 . S
C274 O267 1.247 . S
C274 O268 1.261 . S
C275 O270 1.259 . S
C275 O272 1.235 . S
O276 Co266 2.021 . S
O276 C273 1.238 . S
O277 Co271 2.052 . S
O277 C273 1.241 . S
O278 Co266 2.137 . S
O278 C269 1.247 . S
O279 Co266 2.244 . S
O279 C269 1.272 . S
O279 Co271 2.135 . S
Co280 O281 2.216 . S
Co280 O282 2.091 . S
Co280 O284 2.004 . S
Co280 O290 2.021 . S
Co280 O292 2.137 . S
Co280 O293 2.244 . S
O281 Co280 2.216 . S
O281 C288 1.247 . S
O282 Co280 2.091 . S
O282 C288 1.261 . S
C283 O292 1.247 . S
C283 O293 1.272 . S
O284 Co280 2.004 . S
O284 C289 1.259 . S
Co285 O286 2.061 . S
Co285 O291 2.052 . S
Co285 O293 2.135 . S
O286 Co285 2.061 . S
O286 C289 1.235 . S
C287 O290 1.238 . S
C287 O291 1.241 . S
C288 O281 1.247 . S
C288 O282 1.261 . S
C289 O284 1.259 . S
C289 O286 1.235 . S
O290 Co280 2.021 . S
O290 C287 1.238 . S
O291 Co285 2.052 . S
O291 C287 1.241 . S
O292 Co280 2.137 . S
O292 C283 1.247 . S
O293 Co280 2.244 . S
O293 C283 1.272 . S
O293 Co285 2.135 . S
Co294 O295 2.216 . S
Co294 O296 2.091 . S
Co294 O298 2.004 . S
Co294 O304 2.021 . S
Co294 O306 2.137 . S
Co294 O307 2.244 . S
O295 Co294 2.216 . S
O295 C302 1.247 . S
O296 Co294 2.091 . S
O296 C302 1.261 . S
C297 O306 1.247 . S
C297 O307 1.272 . S
O298 Co294 2.004 . S
O298 C303 1.259 . S
Co299 O300 2.061 . S
Co299 O305 2.052 . S
Co299 O307 2.135 . S
O300 Co299 2.061 . S
O300 C303 1.235 . S
C301 O304 1.238 . S
C301 O305 1.241 . S
C302 O295 1.247 . S
C302 O296 1.261 . S
C303 O298 1.259 . S
C303 O300 1.235 . S
O304 Co294 2.021 . S
O304 C301 1.238 . S
O305 Co299 2.052 . S
O305 C301 1.241 . S
O306 Co294 2.137 . S
O306 C297 1.247 . S
O307 Co294 2.244 . S
O307 C297 1.272 . S
O307 Co299 2.135 . S
Co308 O309 2.216 . S
Co308 O310 2.091 . S
Co308 O312 2.004 . S
Co308 O318 2.021 . S
Co308 O320 2.137 . S
Co308 O321 2.244 . S
O309 Co308 2.216 . S
O309 C316 1.247 . S
O310 Co308 2.091 . S
O310 C316 1.261 . S
C311 O320 1.247 . S
C311 O321 1.272 . S
O312 Co308 2.004 . S
O312 C317 1.259 . S
Co313 O314 2.061 . S
Co313 O319 2.052 . S
Co313 O321 2.135 . S
O314 Co313 2.061 . S
O314 C317 1.235 . S
C315 O318 1.238 . S
C315 O319 1.241 . S
C316 O309 1.247 . S
C316 O310 1.261 . S
C317 O312 1.259 . S
C317 O314 1.235 . S
O318 Co308 2.021 . S
O318 C315 1.238 . S
O319 Co313 2.052 . S
O319 C315 1.241 . S
O320 Co308 2.137 . S
O320 C311 1.247 . S
O321 Co308 2.244 . S
O321 C311 1.272 . S
O321 Co313 2.135 . S
Co322 O323 2.216 . S
Co322 O324 2.091 . S
Co322 O326 2.004 . S
Co322 O332 2.021 . S
Co322 O334 2.137 . S
Co322 O335 2.244 . S
O323 Co322 2.216 . S
O323 C330 1.247 . S
O324 Co322 2.091 . S
O324 C330 1.261 . S
C325 O334 1.247 . S
C325 O335 1.272 . S
O326 Co322 2.004 . S
O326 C331 1.259 . S
Co327 O328 2.061 . S
Co327 O333 2.052 . S
Co327 O335 2.135 . S
O328 Co327 2.061 . S
O328 C331 1.235 . S
C329 O332 1.238 . S
C329 O333 1.241 . S
C330 O323 1.247 . S
C330 O324 1.261 . S
C331 O326 1.259 . S
C331 O328 1.235 . S
O332 Co322 2.021 . S
O332 C329 1.238 . S
O333 Co327 2.052 . S
O333 C329 1.241 . S
O334 Co322 2.137 . S
O334 C325 1.247 . S
O335 Co322 2.244 . S
O335 C325 1.272 . S
O335 Co327 2.135 . S
Co336 O337 2.216 . S
Co336 O338 2.091 . S
Co336 O340 2.004 . S
Co336 O346 2.021 . S
Co336 O348 2.137 . S
Co336 O349 2.244 . S
O337 Co336 2.216 . S
O337 C344 1.247 . S
O338 Co336 2.091 . S
O338 C344 1.261 . S
C339 O348 1.247 . S
C339 O349 1.272 . S
O340 Co336 2.004 . S
O340 C345 1.259 . S
Co341 O342 2.061 . S
Co341 O347 2.052 . S
Co341 O349 2.135 . S
O342 Co341 2.061 . S
O342 C345 1.235 . S
C343 O346 1.238 . S
C343 O347 1.241 . S
C344 O337 1.247 . S
C344 O338 1.261 . S
C345 O340 1.259 . S
C345 O342 1.235 . S
O346 Co336 2.021 . S
O346 C343 1.238 . S
O347 Co341 2.052 . S
O347 C343 1.241 . S
O348 Co336 2.137 . S
O348 C339 1.247 . S
O349 Co336 2.244 . S
O349 C339 1.272 . S
O349 Co341 2.135 . S
Co350 O351 2.216 . S
Co350 O352 2.091 . S
Co350 O354 2.004 . S
Co350 O360 2.021 . S
Co350 O362 2.137 . S
Co350 O363 2.244 . S
O351 Co350 2.216 . S
O351 C358 1.247 . S
O352 Co350 2.091 . S
O352 C358 1.261 . S
C353 O362 1.247 . S
C353 O363 1.272 . S
O354 Co350 2.004 . S
O354 C359 1.259 . S
Co355 O356 2.061 . S
Co355 O361 2.052 . S
Co355 O363 2.135 . S
O356 Co355 2.061 . S
O356 C359 1.235 . S
C357 O360 1.238 . S
C357 O361 1.241 . S
C358 O351 1.247 . S
C358 O352 1.261 . S
C359 O354 1.259 . S
C359 O356 1.235 . S
O360 Co350 2.021 . S
O360 C357 1.238 . S
O361 Co355 2.052 . S
O361 C357 1.241 . S
O362 Co350 2.137 . S
O362 C353 1.247 . S
O363 Co350 2.244 . S
O363 C353 1.272 . S
O363 Co355 2.135 . S
Co364 O365 2.216 . S
Co364 O366 2.091 . S
Co364 O368 2.004 . S
Co364 O374 2.021 . S
Co364 O376 2.137 . S
Co364 O377 2.244 . S
O365 Co364 2.216 . S
O365 C372 1.247 . S
O366 Co364 2.091 . S
O366 C372 1.261 . S
C367 O376 1.247 . S
C367 O377 1.272 . S
O368 Co364 2.004 . S
O368 C373 1.259 . S
Co369 O370 2.061 . S
Co369 O375 2.052 . S
Co369 O377 2.135 . S
O370 Co369 2.061 . S
O370 C373 1.235 . S
C371 O374 1.238 . S
C371 O375 1.241 . S
C372 O365 1.247 . S
C372 O366 1.261 . S
C373 O368 1.259 . S
C373 O370 1.235 . S
O374 Co364 2.021 . S
O374 C371 1.238 . S
O375 Co369 2.052 . S
O375 C371 1.241 . S
O376 Co364 2.137 . S
O376 C367 1.247 . S
O377 Co364 2.244 . S
O377 C367 1.272 . S
O377 Co369 2.135 . S
Co378 O379 2.216 . S
Co378 O380 2.091 . S
Co378 O382 2.004 . S
Co378 O388 2.021 . S
Co378 O390 2.137 . S
Co378 O391 2.244 . S
O379 Co378 2.216 . S
O379 C386 1.247 . S
O380 Co378 2.091 . S
O380 C386 1.261 . S
C381 O390 1.247 . S
C381 O391 1.272 . S
O382 Co378 2.004 . S
O382 C387 1.259 . S
Co383 O384 2.061 . S
Co383 O389 2.052 . S
Co383 O391 2.135 . S
O384 Co383 2.061 . S
O384 C387 1.235 . S
C385 O388 1.238 . S
C385 O389 1.241 . S
C386 O379 1.247 . S
C386 O380 1.261 . S
C387 O382 1.259 . S
C387 O384 1.235 . S
O388 Co378 2.021 . S
O388 C385 1.238 . S
O389 Co383 2.052 . S
O389 C385 1.241 . S
O390 Co378 2.137 . S
O390 C381 1.247 . S
O391 Co378 2.244 . S
O391 C381 1.272 . S
O391 Co383 2.135 . S
Co392 O393 2.216 . S
Co392 O394 2.091 . S
Co392 O396 2.004 . S
Co392 O402 2.021 . S
Co392 O404 2.137 . S
Co392 O405 2.244 . S
O393 Co392 2.216 . S
O393 C400 1.247 . S
O394 Co392 2.091 . S
O394 C400 1.261 . S
C395 O404 1.247 . S
C395 O405 1.272 . S
O396 Co392 2.004 . S
O396 C401 1.259 . S
Co397 O398 2.061 . S
Co397 O403 2.052 . S
Co397 O405 2.135 . S
O398 Co397 2.061 . S
O398 C401 1.235 . S
C399 O402 1.238 . S
C399 O403 1.241 . S
C400 O393 1.247 . S
C400 O394 1.261 . S
C401 O396 1.259 . S
C401 O398 1.235 . S
O402 Co392 2.021 . S
O402 C399 1.238 . S
O403 Co397 2.052 . S
O403 C399 1.241 . S
O404 Co392 2.137 . S
O404 C395 1.247 . S
O405 Co392 2.244 . S
O405 C395 1.272 . S
O405 Co397 2.135 . S
Co406 O407 2.216 . S
Co406 O408 2.091 . S
Co406 O410 2.004 . S
Co406 O416 2.021 . S
Co406 O418 2.137 . S
Co406 O419 2.244 . S
O407 Co406 2.216 . S
O407 C414 1.247 . S
O408 Co406 2.091 . S
O408 C414 1.261 . S
C409 O418 1.247 . S
C409 O419 1.272 . S
O410 Co406 2.004 . S
O410 C415 1.259 . S
Co411 O412 2.061 . S
Co411 O417 2.052 . S
Co411 O419 2.135 . S
O412 Co411 2.061 . S
O412 C415 1.235 . S
C413 O416 1.238 . S
C413 O417 1.241 . S
C414 O407 1.247 . S
C414 O408 1.261 . S
C415 O410 1.259 . S
C415 O412 1.235 . S
O416 Co406 2.021 . S
O416 C413 1.238 . S
O417 Co411 2.052 . S
O417 C413 1.241 . S
O418 Co406 2.137 . S
O418 C409 1.247 . S
O419 Co406 2.244 . S
O419 C409 1.272 . S
O419 Co411 2.135 . S
Co420 O421 2.216 . S
Co420 O422 2.091 . S
Co420 O424 2.004 . S
Co420 O430 2.021 . S
Co420 O432 2.137 . S
Co420 O433 2.244 . S
O421 Co420 2.216 . S
O421 C428 1.247 . S
O422 Co420 2.091 . S
O422 C428 1.261 . S
C423 O432 1.247 . S
C423 O433 1.272 . S
O424 Co420 2.004 . S
O424 C429 1.259 . S
Co425 O426 2.061 . S
Co425 O431 2.052 . S
Co425 O433 2.135 . S
O426 Co425 2.061 . S
O426 C429 1.235 . S
C427 O430 1.238 . S
C427 O431 1.241 . S
C428 O421 1.247 . S
C428 O422 1.261 . S
C429 O424 1.259 . S
C429 O426 1.235 . S
O430 Co420 2.021 . S
O430 C427 1.238 . S
O431 Co425 2.052 . S
O431 C427 1.241 . S
O432 Co420 2.137 . S
O432 C423 1.247 . S
O433 Co420 2.244 . S
O433 C423 1.272 . S
O433 Co425 2.135 . S
Co434 O435 2.216 . S
Co434 O436 2.091 . S
Co434 O438 2.004 . S
Co434 O444 2.021 . S
Co434 O446 2.137 . S
Co434 O447 2.244 . S
O435 Co434 2.216 . S
O435 C442 1.247 . S
O436 Co434 2.091 . S
O436 C442 1.261 . S
C437 O446 1.247 . S
C437 O447 1.272 . S
O438 Co434 2.004 . S
O438 C443 1.259 . S
Co439 O440 2.061 . S
Co439 O445 2.052 . S
Co439 O447 2.135 . S
O440 Co439 2.061 . S
O440 C443 1.235 . S
C441 O444 1.238 . S
C441 O445 1.241 . S
C442 O435 1.247 . S
C442 O436 1.261 . S
C443 O438 1.259 . S
C443 O440 1.235 . S
O444 Co434 2.021 . S
O444 C441 1.238 . S
O445 Co439 2.052 . S
O445 C441 1.241 . S
O446 Co434 2.137 . S
O446 C437 1.247 . S
O447 Co434 2.244 . S
O447 C437 1.272 . S
O447 Co439 2.135 . S
C448 C449 1.349 . S
C448 C450 1.327 . S
C448 H473 0.950 . S
C449 C448 1.349 . S
C449 C465 1.349 . S
C450 C448 1.327 . S
C450 C469 1.429 . S
C450 H474 0.950 . S
C451 C468 1.574 . S
C451 C470 1.368 . S
C451 H475 0.949 . S
H452 C456 0.949 . S
C453 C454 1.349 . S
C453 C455 1.327 . S
C453 H476 0.950 . S
C454 C453 1.349 . S
C454 C466 1.349 . S
C455 C453 1.327 . S
C455 C471 1.429 . S
C455 H477 0.950 . S
C456 H452 0.949 . S
C456 C464 1.574 . S
C456 C472 1.368 . S
H457 C465 0.950 . S
H458 C463 0.950 . S
H459 C464 0.949 . S
H460 C466 0.950 . S
H461 C467 0.950 . S
H462 C468 0.949 . S
C463 H458 0.950 . S
C463 C465 1.327 . S
C463 C469 1.429 . S
C464 C456 1.574 . S
C464 H459 0.949 . S
C464 C470 1.368 . S
C465 C449 1.349 . S
C465 H457 0.950 . S
C465 C463 1.327 . S
C466 C454 1.349 . S
C466 H460 0.950 . S
C466 C467 1.327 . S
C467 H461 0.950 . S
C467 C466 1.327 . S
C467 C471 1.429 . S
C468 C451 1.574 . S
C468 H462 0.949 . S
C468 C472 1.368 . S
C469 C450 1.429 . S
C469 C463 1.429 . S
C469 C470 1.523 . S
C470 C451 1.368 . S
C470 C464 1.368 . S
C470 C469 1.523 . S
C471 C455 1.429 . S
C471 C467 1.429 . S
C471 C472 1.523 . S
C472 C456 1.368 . S
C472 C468 1.368 . S
C472 C471 1.523 . S
H473 C448 0.950 . S
H474 C450 0.950 . S
H475 C451 0.949 . S
H476 C453 0.950 . S
H477 C455 0.950 . S
C478 C479 1.349 . S
C478 C480 1.327 . S
C478 H503 0.950 . S
C479 C478 1.349 . S
C479 C495 1.349 . S
C480 C478 1.327 . S
C480 C499 1.429 . S
C480 H504 0.950 . S
C481 C498 1.574 1_565 S
C481 C500 1.368 . S
C481 H505 0.949 . S
H482 C486 0.949 . S
C483 C484 1.349 . S
C483 C485 1.327 . S
C483 H506 0.950 . S
C484 C483 1.349 . S
C484 C496 1.349 . S
C485 C483 1.327 . S
C485 C501 1.429 . S
C485 H507 0.950 . S
C486 H482 0.949 . S
C486 C494 1.574 1_545 S
C486 C502 1.368 . S
H487 C495 0.950 . S
H488 C493 0.950 . S
H489 C494 0.949 . S
H490 C496 0.950 . S
H491 C497 0.950 . S
H492 C498 0.949 . S
C493 H488 0.950 . S
C493 C495 1.327 . S
C493 C499 1.429 . S
C494 C486 1.574 1_565 S
C494 H489 0.949 . S
C494 C500 1.368 . S
C495 C479 1.349 . S
C495 H487 0.950 . S
C495 C493 1.327 . S
C496 C484 1.349 . S
C496 H490 0.950 . S
C496 C497 1.327 . S
C497 H491 0.950 . S
C497 C496 1.327 . S
C497 C501 1.429 . S
C498 C481 1.574 1_545 S
C498 H492 0.949 . S
C498 C502 1.368 . S
C499 C480 1.429 . S
C499 C493 1.429 . S
C499 C500 1.523 . S
C500 C481 1.368 . S
C500 C494 1.368 . S
C500 C499 1.523 . S
C501 C485 1.429 . S
C501 C497 1.429 . S
C501 C502 1.523 . S
C502 C486 1.368 . S
C502 C498 1.368 . S
C502 C501 1.523 . S
H503 C478 0.950 . S
H504 C480 0.950 . S
H505 C481 0.949 . S
H506 C483 0.950 . S
H507 C485 0.950 . S
C508 C509 1.349 . S
C508 C510 1.327 . S
C508 H533 0.950 . S
C509 C508 1.349 . S
C509 C525 1.349 . S
C510 C508 1.327 . S
C510 C529 1.429 . S
C510 H534 0.950 . S
C511 C528 1.574 . S
C511 C530 1.368 . S
C511 H535 0.949 . S
H512 C516 0.949 . S
C513 C514 1.349 . S
C513 C515 1.327 . S
C513 H536 0.950 . S
C514 C513 1.349 . S
C514 C526 1.349 . S
C515 C513 1.327 . S
C515 C531 1.429 . S
C515 H537 0.950 . S
C516 H512 0.949 . S
C516 C524 1.574 . S
C516 C532 1.368 . S
H517 C525 0.950 . S
H518 C523 0.950 . S
H519 C524 0.949 . S
H520 C526 0.950 . S
H521 C527 0.950 . S
H522 C528 0.949 . S
C523 H518 0.950 . S
C523 C525 1.327 . S
C523 C529 1.429 . S
C524 C516 1.574 . S
C524 H519 0.949 . S
C524 C530 1.368 1_556 S
C525 C509 1.349 . S
C525 H517 0.950 . S
C525 C523 1.327 . S
C526 C514 1.349 . S
C526 H520 0.950 . S
C526 C527 1.327 . S
C527 H521 0.950 . S
C527 C526 1.327 . S
C527 C531 1.429 . S
C528 C511 1.574 . S
C528 H522 0.949 . S
C528 C532 1.368 1_554 S
C529 C510 1.429 . S
C529 C523 1.429 . S
C529 C530 1.523 . S
C530 C511 1.368 . S
C530 C524 1.368 1_554 S
C530 C529 1.523 . S
C531 C515 1.429 . S
C531 C527 1.429 . S
C531 C532 1.523 . S
C532 C516 1.368 . S
C532 C528 1.368 1_556 S
C532 C531 1.523 . S
H533 C508 0.950 . S
H534 C510 0.950 . S
H535 C511 0.949 . S
H536 C513 0.950 . S
H537 C515 0.950 . S
C538 C539 1.349 . S
C538 C540 1.327 . S
C538 H563 0.950 . S
C539 C538 1.349 . S
C539 C555 1.349 . S
C540 C538 1.327 . S
C540 C559 1.429 . S
C540 H564 0.950 . S
C541 C558 1.574 1_545 S
C541 C560 1.368 . S
C541 H565 0.949 . S
H542 C546 0.949 . S
C543 C544 1.349 . S
C543 C545 1.327 . S
C543 H566 0.950 . S
C544 C543 1.349 . S
C544 C556 1.349 . S
C545 C543 1.327 . S
C545 C561 1.429 . S
C545 H567 0.950 . S
C546 H542 0.949 . S
C546 C554 1.574 1_565 S
C546 C562 1.368 . S
H547 C555 0.950 . S
H548 C553 0.950 . S
H549 C554 0.949 . S
H550 C556 0.950 . S
H551 C557 0.950 . S
H552 C558 0.949 . S
C553 H548 0.950 . S
C553 C555 1.327 . S
C553 C559 1.429 . S
C554 C546 1.574 1_545 S
C554 H549 0.949 . S
C554 C560 1.368 . S
C555 C539 1.349 . S
C555 H547 0.950 . S
C555 C553 1.327 . S
C556 C544 1.349 . S
C556 H550 0.950 . S
C556 C557 1.327 . S
C557 H551 0.950 . S
C557 C556 1.327 . S
C557 C561 1.429 . S
C558 C541 1.574 1_565 S
C558 H552 0.949 . S
C558 C562 1.368 . S
C559 C540 1.429 . S
C559 C553 1.429 . S
C559 C560 1.523 . S
C560 C541 1.368 . S
C560 C554 1.368 . S
C560 C559 1.523 . S
C561 C545 1.429 . S
C561 C557 1.429 . S
C561 C562 1.523 . S
C562 C546 1.368 . S
C562 C558 1.368 . S
C562 C561 1.523 . S
H563 C538 0.950 . S
H564 C540 0.950 . S
H565 C541 0.949 . S
H566 C543 0.950 . S
H567 C545 0.950 . S
C568 C569 1.349 . S
C568 C570 1.327 . S
C568 H593 0.950 . S
C569 C568 1.349 . S
C569 C585 1.349 . S
C570 C568 1.327 . S
C570 C589 1.429 . S
C570 H594 0.950 . S
C571 C588 1.574 . S
C571 C590 1.368 . S
C571 H595 0.949 . S
H572 C576 0.949 . S
C573 C574 1.349 . S
C573 C575 1.327 . S
C573 H596 0.950 . S
C574 C573 1.349 . S
C574 C586 1.349 . S
C575 C573 1.327 . S
C575 C591 1.429 . S
C575 H597 0.950 . S
C576 H572 0.949 . S
C576 C584 1.574 . S
C576 C592 1.368 . S
H577 C585 0.950 . S
H578 C583 0.950 . S
H579 C584 0.949 . S
H580 C586 0.950 . S
H581 C587 0.950 . S
H582 C588 0.949 . S
C583 H578 0.950 . S
C583 C585 1.327 . S
C583 C589 1.429 . S
C584 C576 1.574 . S
C584 H579 0.949 . S
C584 C590 1.368 . S
C585 C569 1.349 . S
C585 H577 0.950 . S
C585 C583 1.327 . S
C586 C574 1.349 . S
C586 H580 0.950 . S
C586 C587 1.327 . S
C587 H581 0.950 . S
C587 C586 1.327 . S
C587 C591 1.429 . S
C588 C571 1.574 . S
C588 H582 0.949 . S
C588 C592 1.368 . S
C589 C570 1.429 . S
C589 C583 1.429 . S
C589 C590 1.523 . S
C590 C571 1.368 . S
C590 C584 1.368 . S
C590 C589 1.523 . S
C591 C575 1.429 . S
C591 C587 1.429 . S
C591 C592 1.523 . S
C592 C576 1.368 . S
C592 C588 1.368 . S
C592 C591 1.523 . S
H593 C568 0.950 . S
H594 C570 0.950 . S
H595 C571 0.949 . S
H596 C573 0.950 . S
H597 C575 0.950 . S
C598 C599 1.349 . S
C598 C600 1.327 . S
C598 H623 0.950 . S
C599 C598 1.349 . S
C599 C615 1.349 . S
C600 C598 1.327 . S
C600 C619 1.429 . S
C600 H624 0.950 . S
C601 C618 1.574 1_545 S
C601 C620 1.368 . S
C601 H625 0.949 . S
H602 C606 0.949 . S
C603 C604 1.349 . S
C603 C605 1.327 . S
C603 H626 0.950 . S
C604 C603 1.349 . S
C604 C616 1.349 . S
C605 C603 1.327 . S
C605 C621 1.429 . S
C605 H627 0.950 . S
C606 H602 0.949 . S
C606 C614 1.574 1_565 S
C606 C622 1.368 . S
H607 C615 0.950 . S
H608 C613 0.950 . S
H609 C614 0.949 . S
H610 C616 0.950 . S
H611 C617 0.950 . S
H612 C618 0.949 . S
C613 H608 0.950 . S
C613 C615 1.327 . S
C613 C619 1.429 . S
C614 C606 1.574 1_545 S
C614 H609 0.949 . S
C614 C620 1.368 . S
C615 C599 1.349 . S
C615 H607 0.950 . S
C615 C613 1.327 . S
C616 C604 1.349 . S
C616 H610 0.950 . S
C616 C617 1.327 . S
C617 H611 0.950 . S
C617 C616 1.327 . S
C617 C621 1.429 . S
C618 C601 1.574 1_565 S
C618 H612 0.949 . S
C618 C622 1.368 . S
C619 C600 1.429 . S
C619 C613 1.429 . S
C619 C620 1.523 . S
C620 C601 1.368 . S
C620 C614 1.368 . S
C620 C619 1.523 . S
C621 C605 1.429 . S
C621 C617 1.429 . S
C621 C622 1.523 . S
C622 C606 1.368 . S
C622 C618 1.368 . S
C622 C621 1.523 . S
H623 C598 0.950 . S
H624 C600 0.950 . S
H625 C601 0.949 . S
H626 C603 0.950 . S
H627 C605 0.950 . S
C628 C629 1.349 . S
C628 C630 1.327 . S
C628 H653 0.950 . S
C629 C628 1.349 . S
C629 C645 1.349 . S
C630 C628 1.327 . S
C630 C649 1.429 . S
C630 H654 0.950 . S
C631 C648 1.574 . S
C631 C650 1.368 . S
C631 H655 0.949 . S
H632 C636 0.949 . S
C633 C634 1.349 . S
C633 C635 1.327 . S
C633 H656 0.950 . S
C634 C633 1.349 . S
C634 C646 1.349 . S
C635 C633 1.327 . S
C635 C651 1.429 . S
C635 H657 0.950 . S
C636 H632 0.949 . S
C636 C644 1.574 . S
C636 C652 1.368 . S
H637 C645 0.950 . S
H638 C643 0.950 . S
H639 C644 0.949 . S
H640 C646 0.950 . S
H641 C647 0.950 . S
H642 C648 0.949 . S
C643 H638 0.950 . S
C643 C645 1.327 . S
C643 C649 1.429 . S
C644 C636 1.574 . S
C644 H639 0.949 . S
C644 C650 1.368 1_554 S
C645 C629 1.349 . S
C645 H637 0.950 . S
C645 C643 1.327 . S
C646 C634 1.349 . S
C646 H640 0.950 . S
C646 C647 1.327 . S
C647 H641 0.950 . S
C647 C646 1.327 . S
C647 C651 1.429 . S
C648 C631 1.574 . S
C648 H642 0.949 . S
C648 C652 1.368 1_556 S
C649 C630 1.429 . S
C649 C643 1.429 . S
C649 C650 1.523 . S
C650 C631 1.368 . S
C650 C644 1.368 1_556 S
C650 C649 1.523 . S
C651 C635 1.429 . S
C651 C647 1.429 . S
C651 C652 1.523 . S
C652 C636 1.368 . S
C652 C648 1.368 1_554 S
C652 C651 1.523 . S
H653 C628 0.950 . S
H654 C630 0.950 . S
H655 C631 0.949 . S
H656 C633 0.950 . S
H657 C635 0.950 . S
C658 C659 1.349 . S
C658 C660 1.327 . S
C658 H683 0.950 . S
C659 C658 1.349 . S
C659 C675 1.349 . S
C660 C658 1.327 . S
C660 C679 1.429 . S
C660 H684 0.950 . S
C661 C678 1.574 1_565 S
C661 C680 1.368 . S
C661 H685 0.949 . S
H662 C666 0.949 . S
C663 C664 1.349 . S
C663 C665 1.327 . S
C663 H686 0.950 . S
C664 C663 1.349 . S
C664 C676 1.349 . S
C665 C663 1.327 . S
C665 C681 1.429 . S
C665 H687 0.950 . S
C666 H662 0.949 . S
C666 C674 1.574 1_545 S
C666 C682 1.368 . S
H667 C675 0.950 . S
H668 C673 0.950 . S
H669 C674 0.949 . S
H670 C676 0.950 . S
H671 C677 0.950 . S
H672 C678 0.949 . S
C673 H668 0.950 . S
C673 C675 1.327 . S
C673 C679 1.429 . S
C674 C666 1.574 1_565 S
C674 H669 0.949 . S
C674 C680 1.368 . S
C675 C659 1.349 . S
C675 H667 0.950 . S
C675 C673 1.327 . S
C676 C664 1.349 . S
C676 H670 0.950 . S
C676 C677 1.327 . S
C677 H671 0.950 . S
C677 C676 1.327 . S
C677 C681 1.429 . S
C678 C661 1.574 1_545 S
C678 H672 0.949 . S
C678 C682 1.368 . S
C679 C660 1.429 . S
C679 C673 1.429 . S
C679 C680 1.523 . S
C680 C661 1.368 . S
C680 C674 1.368 . S
C680 C679 1.523 . S
C681 C665 1.429 . S
C681 C677 1.429 . S
C681 C682 1.523 . S
C682 C666 1.368 . S
C682 C678 1.368 . S
C682 C681 1.523 . S
H683 C658 0.950 . S
H684 C660 0.950 . S
H685 C661 0.949 . S
H686 C663 0.950 . S
H687 C665 0.950 . S
C688 C689 1.349 . S
C688 C690 1.327 . S
C688 H713 0.950 . S
C689 C688 1.349 . S
C689 C705 1.349 . S
C690 C688 1.327 . S
C690 C709 1.429 . S
C690 H714 0.950 . S
C691 C708 1.574 . S
C691 C710 1.368 . S
C691 H715 0.949 . S
H692 C696 0.949 . S
C693 C694 1.349 . S
C693 C695 1.327 . S
C693 H716 0.950 . S
C694 C693 1.349 . S
C694 C706 1.349 . S
C695 C693 1.327 . S
C695 C711 1.429 . S
C695 H717 0.950 . S
C696 H692 0.949 . S
C696 C704 1.574 . S
C696 C712 1.368 . S
H697 C705 0.950 . S
H698 C703 0.950 . S
H699 C704 0.949 . S
H700 C706 0.950 . S
H701 C707 0.950 . S
H702 C708 0.949 . S
C703 H698 0.950 . S
C703 C705 1.327 . S
C703 C709 1.429 . S
C704 C696 1.574 . S
C704 H699 0.949 . S
C704 C710 1.368 1_554 S
C705 C689 1.349 . S
C705 H697 0.950 . S
C705 C703 1.327 . S
C706 C694 1.349 . S
C706 H700 0.950 . S
C706 C707 1.327 . S
C707 H701 0.950 . S
C707 C706 1.327 . S
C707 C711 1.429 . S
C708 C691 1.574 . S
C708 H702 0.949 . S
C708 C712 1.368 1_556 S
C709 C690 1.429 . S
C709 C703 1.429 . S
C709 C710 1.523 . S
C710 C691 1.368 . S
C710 C704 1.368 1_556 S
C710 C709 1.523 . S
C711 C695 1.429 . S
C711 C707 1.429 . S
C711 C712 1.523 . S
C712 C696 1.368 . S
C712 C708 1.368 1_554 S
C712 C711 1.523 . S
H713 C688 0.950 . S
H714 C690 0.950 . S
H715 C691 0.949 . S
H716 C693 0.950 . S
H717 C695 0.950 . S
C718 C719 1.349 . S
C718 C720 1.327 . S
C718 H743 0.950 . S
C719 C718 1.349 . S
C719 C735 1.349 . S
C720 C718 1.327 . S
C720 C739 1.429 . S
C720 H744 0.950 . S
C721 C738 1.574 . S
C721 C740 1.368 . S
C721 H745 0.949 . S
H722 C726 0.949 . S
C723 C724 1.349 . S
C723 C725 1.327 . S
C723 H746 0.950 . S
C724 C723 1.349 . S
C724 C736 1.349 . S
C725 C723 1.327 . S
C725 C741 1.429 . S
C725 H747 0.950 . S
C726 H722 0.949 . S
C726 C734 1.574 . S
C726 C742 1.368 . S
H727 C735 0.950 . S
H728 C733 0.950 . S
H729 C734 0.949 . S
H730 C736 0.950 . S
H731 C737 0.950 . S
H732 C738 0.949 . S
C733 H728 0.950 . S
C733 C735 1.327 . S
C733 C739 1.429 . S
C734 C726 1.574 . S
C734 H729 0.949 . S
C734 C740 1.368 . S
C735 C719 1.349 . S
C735 H727 0.950 . S
C735 C733 1.327 . S
C736 C724 1.349 . S
C736 H730 0.950 . S
C736 C737 1.327 . S
C737 H731 0.950 . S
C737 C736 1.327 . S
C737 C741 1.429 . S
C738 C721 1.574 . S
C738 H732 0.949 . S
C738 C742 1.368 . S
C739 C720 1.429 . S
C739 C733 1.429 . S
C739 C740 1.523 . S
C740 C721 1.368 . S
C740 C734 1.368 . S
C740 C739 1.523 . S
C741 C725 1.429 . S
C741 C737 1.429 . S
C741 C742 1.523 . S
C742 C726 1.368 . S
C742 C738 1.368 . S
C742 C741 1.523 . S
H743 C718 0.950 . S
H744 C720 0.950 . S
H745 C721 0.949 . S
H746 C723 0.950 . S
H747 C725 0.950 . S
C748 C749 1.349 . S
C748 C750 1.327 . S
C748 H773 0.950 . S
C749 C748 1.349 . S
C749 C765 1.349 . S
C750 C748 1.327 . S
C750 C769 1.429 . S
C750 H774 0.950 . S
C751 C768 1.574 . S
C751 C770 1.368 . S
C751 H775 0.949 . S
H752 C756 0.949 . S
C753 C754 1.349 . S
C753 C755 1.327 . S
C753 H776 0.950 . S
C754 C753 1.349 . S
C754 C766 1.349 . S
C755 C753 1.327 . S
C755 C771 1.429 . S
C755 H777 0.950 . S
C756 H752 0.949 . S
C756 C764 1.574 . S
C756 C772 1.368 . S
H757 C765 0.950 . S
H758 C763 0.950 . S
H759 C764 0.949 . S
H760 C766 0.950 . S
H761 C767 0.950 . S
H762 C768 0.949 . S
C763 H758 0.950 . S
C763 C765 1.327 . S
C763 C769 1.429 . S
C764 C756 1.574 . S
C764 H759 0.949 . S
C764 C770 1.368 . S
C765 C749 1.349 . S
C765 H757 0.950 . S
C765 C763 1.327 . S
C766 C754 1.349 . S
C766 H760 0.950 . S
C766 C767 1.327 . S
C767 H761 0.950 . S
C767 C766 1.327 . S
C767 C771 1.429 . S
C768 C751 1.574 . S
C768 H762 0.949 . S
C768 C772 1.368 . S
C769 C750 1.429 . S
C769 C763 1.429 . S
C769 C770 1.523 . S
C770 C751 1.368 . S
C770 C764 1.368 . S
C770 C769 1.523 . S
C771 C755 1.429 . S
C771 C767 1.429 . S
C771 C772 1.523 . S
C772 C756 1.368 . S
C772 C768 1.368 . S
C772 C771 1.523 . S
H773 C748 0.950 . S
H774 C750 0.950 . S
H775 C751 0.949 . S
H776 C753 0.950 . S
H777 C755 0.950 . S
C778 C779 1.349 . S
C778 C780 1.327 . S
C778 H803 0.950 . S
C779 C778 1.349 . S
C779 C795 1.349 . S
C780 C778 1.327 . S
C780 C799 1.429 . S
C780 H804 0.950 . S
C781 C798 1.574 . S
C781 C800 1.368 . S
C781 H805 0.949 . S
H782 C786 0.949 . S
C783 C784 1.349 . S
C783 C785 1.327 . S
C783 H806 0.950 . S
C784 C783 1.349 . S
C784 C796 1.349 . S
C785 C783 1.327 . S
C785 C801 1.429 . S
C785 H807 0.950 . S
C786 H782 0.949 . S
C786 C794 1.574 . S
C786 C802 1.368 . S
H787 C795 0.950 . S
H788 C793 0.950 . S
H789 C794 0.949 . S
H790 C796 0.950 . S
H791 C797 0.950 . S
H792 C798 0.949 . S
C793 H788 0.950 . S
C793 C795 1.327 . S
C793 C799 1.429 . S
C794 C786 1.574 . S
C794 H789 0.949 . S
C794 C800 1.368 . S
C795 C779 1.349 . S
C795 H787 0.950 . S
C795 C793 1.327 . S
C796 C784 1.349 . S
C796 H790 0.950 . S
C796 C797 1.327 . S
C797 H791 0.950 . S
C797 C796 1.327 . S
C797 C801 1.429 . S
C798 C781 1.574 . S
C798 H792 0.949 . S
C798 C802 1.368 . S
C799 C780 1.429 . S
C799 C793 1.429 . S
C799 C800 1.523 . S
C800 C781 1.368 . S
C800 C794 1.368 . S
C800 C799 1.523 . S
C801 C785 1.429 . S
C801 C797 1.429 . S
C801 C802 1.523 . S
C802 C786 1.368 . S
C802 C798 1.368 . S
C802 C801 1.523 . S
H803 C778 0.950 . S
H804 C780 0.950 . S
H805 C781 0.949 . S
H806 C783 0.950 . S
H807 C785 0.950 . S
C808 C809 1.349 . S
C808 C810 1.327 . S
C808 H833 0.950 . S
C809 C808 1.349 . S
C809 C825 1.349 . S
C810 C808 1.327 . S
C810 C829 1.429 . S
C810 H834 0.950 . S
C811 C828 1.574 . S
C811 C830 1.368 . S
C811 H835 0.949 . S
H812 C816 0.949 . S
C813 C814 1.349 . S
C813 C815 1.327 . S
C813 H836 0.950 . S
C814 C813 1.349 . S
C814 C826 1.349 . S
C815 C813 1.327 . S
C815 C831 1.429 . S
C815 H837 0.950 . S
C816 H812 0.949 . S
C816 C824 1.574 . S
C816 C832 1.368 . S
H817 C825 0.950 . S
H818 C823 0.950 . S
H819 C824 0.949 . S
H820 C826 0.950 . S
H821 C827 0.950 . S
H822 C828 0.949 . S
C823 H818 0.950 . S
C823 C825 1.327 . S
C823 C829 1.429 . S
C824 C816 1.574 . S
C824 H819 0.949 . S
C824 C830 1.368 1_554 S
C825 C809 1.349 . S
C825 H817 0.950 . S
C825 C823 1.327 . S
C826 C814 1.349 . S
C826 H820 0.950 . S
C826 C827 1.327 . S
C827 H821 0.950 . S
C827 C826 1.327 . S
C827 C831 1.429 . S
C828 C811 1.574 . S
C828 H822 0.949 . S
C828 C832 1.368 1_556 S
C829 C810 1.429 . S
C829 C823 1.429 . S
C829 C830 1.523 . S
C830 C811 1.368 . S
C830 C824 1.368 1_556 S
C830 C829 1.523 . S
C831 C815 1.429 . S
C831 C827 1.429 . S
C831 C832 1.523 . S
C832 C816 1.368 . S
C832 C828 1.368 1_554 S
C832 C831 1.523 . S
H833 C808 0.950 . S
H834 C810 0.950 . S
H835 C811 0.949 . S
H836 C813 0.950 . S
H837 C815 0.950 . S
C838 C839 1.349 . S
C838 C840 1.327 . S
C838 H863 0.950 . S
C839 C838 1.349 . S
C839 C855 1.349 . S
C840 C838 1.327 . S
C840 C859 1.429 . S
C840 H864 0.950 . S
C841 C858 1.574 . S
C841 C860 1.368 . S
C841 H865 0.949 . S
H842 C846 0.949 . S
C843 C844 1.349 . S
C843 C845 1.327 . S
C843 H866 0.950 . S
C844 C843 1.349 . S
C844 C856 1.349 . S
C845 C843 1.327 . S
C845 C861 1.429 . S
C845 H867 0.950 . S
C846 H842 0.949 . S
C846 C854 1.574 . S
C846 C862 1.368 . S
H847 C855 0.950 . S
H848 C853 0.950 . S
H849 C854 0.949 . S
H850 C856 0.950 . S
H851 C857 0.950 . S
H852 C858 0.949 . S
C853 H848 0.950 . S
C853 C855 1.327 . S
C853 C859 1.429 . S
C854 C846 1.574 . S
C854 H849 0.949 . S
C854 C860 1.368 . S
C855 C839 1.349 . S
C855 H847 0.950 . S
C855 C853 1.327 . S
C856 C844 1.349 . S
C856 H850 0.950 . S
C856 C857 1.327 . S
C857 H851 0.950 . S
C857 C856 1.327 . S
C857 C861 1.429 . S
C858 C841 1.574 . S
C858 H852 0.949 . S
C858 C862 1.368 . S
C859 C840 1.429 . S
C859 C853 1.429 . S
C859 C860 1.523 . S
C860 C841 1.368 . S
C860 C854 1.368 . S
C860 C859 1.523 . S
C861 C845 1.429 . S
C861 C857 1.429 . S
C861 C862 1.523 . S
C862 C846 1.368 . S
C862 C858 1.368 . S
C862 C861 1.523 . S
H863 C838 0.950 . S
H864 C840 0.950 . S
H865 C841 0.949 . S
H866 C843 0.950 . S
H867 C845 0.950 . S
C868 C869 1.349 . S
C868 C870 1.327 . S
C868 H893 0.950 . S
C869 C868 1.349 . S
C869 C885 1.349 . S
C870 C868 1.327 . S
C870 C889 1.429 . S
C870 H894 0.950 . S
C871 C888 1.574 . S
C871 C890 1.368 . S
C871 H895 0.949 . S
H872 C876 0.949 . S
C873 C874 1.349 . S
C873 C875 1.327 . S
C873 H896 0.950 . S
C874 C873 1.349 . S
C874 C886 1.349 . S
C875 C873 1.327 . S
C875 C891 1.429 . S
C875 H897 0.950 . S
C876 H872 0.949 . S
C876 C884 1.574 . S
C876 C892 1.368 . S
H877 C885 0.950 . S
H878 C883 0.950 . S
H879 C884 0.949 . S
H880 C886 0.950 . S
H881 C887 0.950 . S
H882 C888 0.949 . S
C883 H878 0.950 . S
C883 C885 1.327 . S
C883 C889 1.429 . S
C884 C876 1.574 . S
C884 H879 0.949 . S
C884 C890 1.368 . S
C885 C869 1.349 . S
C885 H877 0.950 . S
C885 C883 1.327 . S
C886 C874 1.349 . S
C886 H880 0.950 . S
C886 C887 1.327 . S
C887 H881 0.950 . S
C887 C886 1.327 . S
C887 C891 1.429 . S
C888 C871 1.574 . S
C888 H882 0.949 . S
C888 C892 1.368 . S
C889 C870 1.429 . S
C889 C883 1.429 . S
C889 C890 1.523 . S
C890 C871 1.368 . S
C890 C884 1.368 . S
C890 C889 1.523 . S
C891 C875 1.429 . S
C891 C887 1.429 . S
C891 C892 1.523 . S
C892 C876 1.368 . S
C892 C888 1.368 . S
C892 C891 1.523 . S
H893 C868 0.950 . S
H894 C870 0.950 . S
H895 C871 0.949 . S
H896 C873 0.950 . S
H897 C875 0.950 . S
C898 C899 1.349 . S
C898 C900 1.327 . S
C898 H923 0.950 . S
C899 C898 1.349 . S
C899 C915 1.349 . S
C900 C898 1.327 . S
C900 C919 1.429 . S
C900 H924 0.950 . S
C901 C918 1.574 . S
C901 C920 1.368 . S
C901 H925 0.949 . S
H902 C906 0.949 . S
C903 C904 1.349 . S
C903 C905 1.327 . S
C903 H926 0.950 . S
C904 C903 1.349 . S
C904 C916 1.349 . S
C905 C903 1.327 . S
C905 C921 1.429 . S
C905 H927 0.950 . S
C906 H902 0.949 . S
C906 C914 1.574 . S
C906 C922 1.368 . S
H907 C915 0.950 . S
H908 C913 0.950 . S
H909 C914 0.949 . S
H910 C916 0.950 . S
H911 C917 0.950 . S
H912 C918 0.949 . S
C913 H908 0.950 . S
C913 C915 1.327 . S
C913 C919 1.429 . S
C914 C906 1.574 . S
C914 H909 0.949 . S
C914 C920 1.368 . S
C915 C899 1.349 . S
C915 H907 0.950 . S
C915 C913 1.327 . S
C916 C904 1.349 . S
C916 H910 0.950 . S
C916 C917 1.327 . S
C917 H911 0.950 . S
C917 C916 1.327 . S
C917 C921 1.429 . S
C918 C901 1.574 . S
C918 H912 0.949 . S
C918 C922 1.368 . S
C919 C900 1.429 . S
C919 C913 1.429 . S
C919 C920 1.523 . S
C920 C901 1.368 . S
C920 C914 1.368 . S
C920 C919 1.523 . S
C921 C905 1.429 . S
C921 C917 1.429 . S
C921 C922 1.523 . S
C922 C906 1.368 . S
C922 C918 1.368 . S
C922 C921 1.523 . S
H923 C898 0.950 . S
H924 C900 0.950 . S
H925 C901 0.949 . S
H926 C903 0.950 . S
H927 C905 0.950 . S
C928 C929 1.349 . S
C928 C930 1.327 . S
C928 H953 0.950 . S
C929 C928 1.349 . S
C929 C945 1.349 . S
C930 C928 1.327 . S
C930 C949 1.429 . S
C930 H954 0.950 . S
C931 C948 1.574 . S
C931 C950 1.368 1_554 S
C931 H955 0.949 . S
H932 C936 0.949 . S
C933 C934 1.349 . S
C933 C935 1.327 . S
C933 H956 0.950 . S
C934 C933 1.349 . S
C934 C946 1.349 . S
C935 C933 1.327 . S
C935 C951 1.429 . S
C935 H957 0.950 . S
C936 H932 0.949 . S
C936 C944 1.574 . S
C936 C952 1.368 . S
H937 C945 0.950 . S
H938 C943 0.950 . S
H939 C944 0.949 1_556 S
H940 C946 0.950 . S
H941 C947 0.950 . S
H942 C948 0.949 . S
C943 H938 0.950 . S
C943 C945 1.327 . S
C943 C949 1.429 . S
C944 C936 1.574 . S
C944 H939 0.949 1_554 S
C944 C950 1.368 1_554 S
C945 C929 1.349 . S
C945 H937 0.950 . S
C945 C943 1.327 . S
C946 C934 1.349 . S
C946 H940 0.950 . S
C946 C947 1.327 . S
C947 H941 0.950 . S
C947 C946 1.327 . S
C947 C951 1.429 . S
C948 C931 1.574 . S
C948 H942 0.949 . S
C948 C952 1.368 . S
C949 C930 1.429 . S
C949 C943 1.429 . S
C949 C950 1.523 . S
C950 C931 1.368 1_556 S
C950 C944 1.368 1_556 S
C950 C949 1.523 . S
C951 C935 1.429 . S
C951 C947 1.429 . S
C951 C952 1.523 . S
C952 C936 1.368 . S
C952 C948 1.368 . S
C952 C951 1.523 . S
H953 C928 0.950 . S
H954 C930 0.950 . S
H955 C931 0.949 . S
H956 C933 0.950 . S
H957 C935 0.950 . S
C958 C959 1.349 . S
C958 C960 1.327 . S
C958 H983 0.950 . S
C959 C958 1.349 . S
C959 C975 1.349 . S
C960 C958 1.327 . S
C960 C979 1.429 . S
C960 H984 0.950 . S
C961 C978 1.574 . S
C961 C980 1.368 . S
C961 H985 0.949 . S
H962 C966 0.949 . S
C963 C964 1.349 . S
C963 C965 1.327 . S
C963 H986 0.950 . S
C964 C963 1.349 . S
C964 C976 1.349 . S
C965 C963 1.327 . S
C965 C981 1.429 . S
C965 H987 0.950 . S
C966 H962 0.949 . S
C966 C974 1.574 . S
C966 C982 1.368 . S
H967 C975 0.950 . S
H968 C973 0.950 . S
H969 C974 0.949 . S
H970 C976 0.950 . S
H971 C977 0.950 . S
H972 C978 0.949 . S
C973 H968 0.950 . S
C973 C975 1.327 . S
C973 C979 1.429 . S
C974 C966 1.574 . S
C974 H969 0.949 . S
C974 C980 1.368 . S
C975 C959 1.349 . S
C975 H967 0.950 . S
C975 C973 1.327 . S
C976 C964 1.349 . S
C976 H970 0.950 . S
C976 C977 1.327 . S
C977 H971 0.950 . S
C977 C976 1.327 . S
C977 C981 1.429 . S
C978 C961 1.574 . S
C978 H972 0.949 . S
C978 C982 1.368 . S
C979 C960 1.429 . S
C979 C973 1.429 . S
C979 C980 1.523 . S
C980 C961 1.368 . S
C980 C974 1.368 . S
C980 C979 1.523 . S
C981 C965 1.429 . S
C981 C977 1.429 . S
C981 C982 1.523 . S
C982 C966 1.368 . S
C982 C978 1.368 . S
C982 C981 1.523 . S
H983 C958 0.950 . S
H984 C960 0.950 . S
H985 C961 0.949 . S
H986 C963 0.950 . S
H987 C965 0.950 . S
C988 C989 1.349 . S
C988 C990 1.327 . S
C988 H1013 0.950 . S
C989 C988 1.349 . S
C989 C1005 1.349 . S
C990 C988 1.327 . S
C990 C1009 1.429 . S
C990 H1014 0.950 . S
C991 C1008 1.574 . S
C991 C1010 1.368 . S
C991 H1015 0.949 . S
H992 C996 0.949 . S
C993 C994 1.349 . S
C993 C995 1.327 . S
C993 H1016 0.950 . S
C994 C993 1.349 . S
C994 C1006 1.349 . S
C995 C993 1.327 . S
C995 C1011 1.429 . S
C995 H1017 0.950 . S
C996 H992 0.949 . S
C996 C1004 1.574 . S
C996 C1012 1.368 . S
H997 C1005 0.950 . S
H998 C1003 0.950 . S
H999 C1004 0.949 . S
H1000 C1006 0.950 . S
H1001 C1007 0.950 . S
H1002 C1008 0.949 . S
C1003 H998 0.950 . S
C1003 C1005 1.327 . S
C1003 C1009 1.429 . S
C1004 C996 1.574 . S
C1004 H999 0.949 . S
C1004 C1010 1.368 . S
C1005 C989 1.349 . S
C1005 H997 0.950 . S
C1005 C1003 1.327 . S
C1006 C994 1.349 . S
C1006 H1000 0.950 . S
C1006 C1007 1.327 . S
C1007 H1001 0.950 . S
C1007 C1006 1.327 . S
C1007 C1011 1.429 . S
C1008 C991 1.574 . S
C1008 H1002 0.949 . S
C1008 C1012 1.368 . S
C1009 C990 1.429 . S
C1009 C1003 1.429 . S
C1009 C1010 1.523 . S
C1010 C991 1.368 . S
C1010 C1004 1.368 . S
C1010 C1009 1.523 . S
C1011 C995 1.429 . S
C1011 C1007 1.429 . S
C1011 C1012 1.523 . S
C1012 C996 1.368 . S
C1012 C1008 1.368 . S
C1012 C1011 1.523 . S
H1013 C988 0.950 . S
H1014 C990 0.950 . S
H1015 C991 0.949 . S
H1016 C993 0.950 . S
H1017 C995 0.950 . S
C1018 C1019 1.349 . S
C1018 C1020 1.327 . S
C1018 H1043 0.950 . S
C1019 C1018 1.349 . S
C1019 C1035 1.349 . S
C1020 C1018 1.327 . S
C1020 C1039 1.429 . S
C1020 H1044 0.950 . S
C1021 C1038 1.574 1_556 S
C1021 C1040 1.368 . S
C1021 H1045 0.949 1_556 S
H1022 C1026 0.949 . S
C1023 C1024 1.349 . S
C1023 C1025 1.327 . S
C1023 H1046 0.950 . S
C1024 C1023 1.349 . S
C1024 C1036 1.349 . S
C1025 C1023 1.327 . S
C1025 C1041 1.429 . S
C1025 H1047 0.950 . S
C1026 H1022 0.949 . S
C1026 C1034 1.574 . S
C1026 C1042 1.368 1_556 S
H1027 C1035 0.950 . S
H1028 C1033 0.950 . S
H1029 C1034 0.949 . S
H1030 C1036 0.950 . S
H1031 C1037 0.950 1_556 S
H1032 C1038 0.949 . S
C1033 H1028 0.950 . S
C1033 C1035 1.327 . S
C1033 C1039 1.429 . S
C1034 C1026 1.574 . S
C1034 H1029 0.949 . S
C1034 C1040 1.368 . S
C1035 C1019 1.349 . S
C1035 H1027 0.950 . S
C1035 C1033 1.327 . S
C1036 C1024 1.349 . S
C1036 H1030 0.950 . S
C1036 C1037 1.327 . S
C1037 H1031 0.950 1_554 S
C1037 C1036 1.327 . S
C1037 C1041 1.429 . S
C1038 C1021 1.574 1_554 S
C1038 H1032 0.949 . S
C1038 C1042 1.368 . S
C1039 C1020 1.429 . S
C1039 C1033 1.429 . S
C1039 C1040 1.523 . S
C1040 C1021 1.368 . S
C1040 C1034 1.368 . S
C1040 C1039 1.523 . S
C1041 C1025 1.429 . S
C1041 C1037 1.429 . S
C1041 C1042 1.523 . S
C1042 C1026 1.368 1_554 S
C1042 C1038 1.368 . S
C1042 C1041 1.523 . S
H1043 C1018 0.950 . S
H1044 C1020 0.950 . S
H1045 C1021 0.949 1_554 S
H1046 C1023 0.950 . S
H1047 C1025 0.950 . S
C1048 C1049 1.349 . S
C1048 C1050 1.327 . S
C1048 H1073 0.950 . S
C1049 C1048 1.349 . S
C1049 C1065 1.349 . S
C1050 C1048 1.327 . S
C1050 C1069 1.429 . S
C1050 H1074 0.950 1_554 S
C1051 C1068 1.574 1_554 S
C1051 C1070 1.368 . S
C1051 H1075 0.949 . S
H1052 C1056 0.949 . S
C1053 C1054 1.349 . S
C1053 C1055 1.327 . S
C1053 H1076 0.950 . S
C1054 C1053 1.349 . S
C1054 C1066 1.349 . S
C1055 C1053 1.327 . S
C1055 C1071 1.429 . S
C1055 H1077 0.950 . S
C1056 H1052 0.949 . S
C1056 C1064 1.574 . S
C1056 C1072 1.368 . S
H1057 C1065 0.950 . S
H1058 C1063 0.950 . S
H1059 C1064 0.949 . S
H1060 C1066 0.950 . S
H1061 C1067 0.950 . S
H1062 C1068 0.949 . S
C1063 H1058 0.950 . S
C1063 C1065 1.327 . S
C1063 C1069 1.429 . S
C1064 C1056 1.574 . S
C1064 H1059 0.949 . S
C1064 C1070 1.368 1_556 S
C1065 C1049 1.349 . S
C1065 H1057 0.950 . S
C1065 C1063 1.327 . S
C1066 C1054 1.349 . S
C1066 H1060 0.950 . S
C1066 C1067 1.327 . S
C1067 H1061 0.950 . S
C1067 C1066 1.327 . S
C1067 C1071 1.429 . S
C1068 C1051 1.574 1_556 S
C1068 H1062 0.949 . S
C1068 C1072 1.368 . S
C1069 C1050 1.429 . S
C1069 C1063 1.429 . S
C1069 C1070 1.523 . S
C1070 C1051 1.368 . S
C1070 C1064 1.368 1_554 S
C1070 C1069 1.523 . S
C1071 C1055 1.429 . S
C1071 C1067 1.429 . S
C1071 C1072 1.523 . S
C1072 C1056 1.368 . S
C1072 C1068 1.368 . S
C1072 C1071 1.523 . S
H1073 C1048 0.950 . S
H1074 C1050 0.950 1_556 S
H1075 C1051 0.949 . S
H1076 C1053 0.950 . S
H1077 C1055 0.950 . S
C1078 C1079 1.349 . S
C1078 C1080 1.327 . S
C1078 H1103 0.950 . S
C1079 C1078 1.349 . S
C1079 C1095 1.349 . S
C1080 C1078 1.327 . S
C1080 C1099 1.429 . S
C1080 H1104 0.950 . S
C1081 C1098 1.574 . S
C1081 C1100 1.368 . S
C1081 H1105 0.949 . S
H1082 C1086 0.949 . S
C1083 C1084 1.349 . S
C1083 C1085 1.327 . S
C1083 H1106 0.950 . S
C1084 C1083 1.349 . S
C1084 C1096 1.349 . S
C1085 C1083 1.327 . S
C1085 C1101 1.429 . S
C1085 H1107 0.950 . S
C1086 H1082 0.949 . S
C1086 C1094 1.574 . S
C1086 C1102 1.368 . S
H1087 C1095 0.950 . S
H1088 C1093 0.950 . S
H1089 C1094 0.949 . S
H1090 C1096 0.950 . S
H1091 C1097 0.950 . S
H1092 C1098 0.949 . S
C1093 H1088 0.950 . S
C1093 C1095 1.327 . S
C1093 C1099 1.429 . S
C1094 C1086 1.574 . S
C1094 H1089 0.949 . S
C1094 C1100 1.368 . S
C1095 C1079 1.349 . S
C1095 H1087 0.950 . S
C1095 C1093 1.327 . S
C1096 C1084 1.349 . S
C1096 H1090 0.950 . S
C1096 C1097 1.327 . S
C1097 H1091 0.950 . S
C1097 C1096 1.327 . S
C1097 C1101 1.429 . S
C1098 C1081 1.574 . S
C1098 H1092 0.949 . S
C1098 C1102 1.368 . S
C1099 C1080 1.429 . S
C1099 C1093 1.429 . S
C1099 C1100 1.523 . S
C1100 C1081 1.368 . S
C1100 C1094 1.368 . S
C1100 C1099 1.523 . S
C1101 C1085 1.429 . S
C1101 C1097 1.429 . S
C1101 C1102 1.523 . S
C1102 C1086 1.368 . S
C1102 C1098 1.368 . S
C1102 C1101 1.523 . S
H1103 C1078 0.950 . S
H1104 C1080 0.950 . S
H1105 C1081 0.949 . S
H1106 C1083 0.950 . S
H1107 C1085 0.950 . S
C1108 C1109 1.349 . S
C1108 C1110 1.327 . S
C1108 H1133 0.950 . S
C1109 C1108 1.349 . S
C1109 C1125 1.349 . S
C1110 C1108 1.327 . S
C1110 C1129 1.429 . S
C1110 H1134 0.950 . S
C1111 C1128 1.574 . S
C1111 C1130 1.368 . S
C1111 H1135 0.949 . S
H1112 C1116 0.949 . S
C1113 C1114 1.349 . S
C1113 C1115 1.327 . S
C1113 H1136 0.950 . S
C1114 C1113 1.349 . S
C1114 C1126 1.349 . S
C1115 C1113 1.327 . S
C1115 C1131 1.429 . S
C1115 H1137 0.950 . S
C1116 H1112 0.949 . S
C1116 C1124 1.574 . S
C1116 C1132 1.368 . S
H1117 C1125 0.950 . S
H1118 C1123 0.950 . S
H1119 C1124 0.949 . S
H1120 C1126 0.950 . S
H1121 C1127 0.950 . S
H1122 C1128 0.949 . S
C1123 H1118 0.950 . S
C1123 C1125 1.327 . S
C1123 C1129 1.429 . S
C1124 C1116 1.574 . S
C1124 H1119 0.949 . S
C1124 C1130 1.368 . S
C1125 C1109 1.349 . S
C1125 H1117 0.950 . S
C1125 C1123 1.327 . S
C1126 C1114 1.349 . S
C1126 H1120 0.950 . S
C1126 C1127 1.327 . S
C1127 H1121 0.950 . S
C1127 C1126 1.327 . S
C1127 C1131 1.429 . S
C1128 C1111 1.574 . S
C1128 H1122 0.949 . S
C1128 C1132 1.368 . S
C1129 C1110 1.429 . S
C1129 C1123 1.429 . S
C1129 C1130 1.523 . S
C1130 C1111 1.368 . S
C1130 C1124 1.368 . S
C1130 C1129 1.523 . S
C1131 C1115 1.429 . S
C1131 C1127 1.429 . S
C1131 C1132 1.523 . S
C1132 C1116 1.368 . S
C1132 C1128 1.368 . S
C1132 C1131 1.523 . S
H1133 C1108 0.950 . S
H1134 C1110 0.950 . S
H1135 C1111 0.949 . S
H1136 C1113 0.950 . S
H1137 C1115 0.950 . S
C1138 C1139 1.349 . S
C1138 C1140 1.327 . S
C1138 H1163 0.950 . S
C1139 C1138 1.349 . S
C1139 C1155 1.349 . S
C1140 C1138 1.327 . S
C1140 C1159 1.429 . S
C1140 H1164 0.950 . S
C1141 C1158 1.574 . S
C1141 C1160 1.368 1_554 S
C1141 H1165 0.949 . S
H1142 C1146 0.949 . S
C1143 C1144 1.349 . S
C1143 C1145 1.327 . S
C1143 H1166 0.950 . S
C1144 C1143 1.349 . S
C1144 C1156 1.349 . S
C1145 C1143 1.327 . S
C1145 C1161 1.429 . S
C1145 H1167 0.950 . S
C1146 H1142 0.949 . S
C1146 C1154 1.574 1_554 S
C1146 C1162 1.368 . S
H1147 C1155 0.950 . S
H1148 C1153 0.950 1_554 S
H1149 C1154 0.949 . S
H1150 C1156 0.950 . S
H1151 C1157 0.950 . S
H1152 C1158 0.949 . S
C1153 H1148 0.950 1_556 S
C1153 C1155 1.327 . S
C1153 C1159 1.429 . S
C1154 C1146 1.574 1_556 S
C1154 H1149 0.949 . S
C1154 C1160 1.368 . S
C1155 C1139 1.349 . S
C1155 H1147 0.950 . S
C1155 C1153 1.327 . S
C1156 C1144 1.349 . S
C1156 H1150 0.950 . S
C1156 C1157 1.327 . S
C1157 H1151 0.950 . S
C1157 C1156 1.327 . S
C1157 C1161 1.429 . S
C1158 C1141 1.574 . S
C1158 H1152 0.949 . S
C1158 C1162 1.368 . S
C1159 C1140 1.429 . S
C1159 C1153 1.429 . S
C1159 C1160 1.523 . S
C1160 C1141 1.368 1_556 S
C1160 C1154 1.368 . S
C1160 C1159 1.523 . S
C1161 C1145 1.429 . S
C1161 C1157 1.429 . S
C1161 C1162 1.523 . S
C1162 C1146 1.368 . S
C1162 C1158 1.368 . S
C1162 C1161 1.523 . S
H1163 C1138 0.950 . S
H1164 C1140 0.950 . S
H1165 C1141 0.949 . S
H1166 C1143 0.950 . S
H1167 C1145 0.950 . S
C1168 C1169 1.349 . S
C1168 C1170 1.327 . S
C1168 H1193 0.950 . S
C1169 C1168 1.349 . S
C1169 C1185 1.349 . S
C1170 C1168 1.327 . S
C1170 C1189 1.429 . S
C1170 H1194 0.950 . S
C1171 C1188 1.574 . S
C1171 C1190 1.368 . S
C1171 H1195 0.949 . S
H1172 C1176 0.949 . S
C1173 C1174 1.349 . S
C1173 C1175 1.327 . S
C1173 H1196 0.950 . S
C1174 C1173 1.349 . S
C1174 C1186 1.349 . S
C1175 C1173 1.327 . S
C1175 C1191 1.429 . S
C1175 H1197 0.950 . S
C1176 H1172 0.949 . S
C1176 C1184 1.574 . S
C1176 C1192 1.368 . S
H1177 C1185 0.950 . S
H1178 C1183 0.950 . S
H1179 C1184 0.949 . S
H1180 C1186 0.950 . S
H1181 C1187 0.950 . S
H1182 C1188 0.949 . S
C1183 H1178 0.950 . S
C1183 C1185 1.327 . S
C1183 C1189 1.429 . S
C1184 C1176 1.574 . S
C1184 H1179 0.949 . S
C1184 C1190 1.368 . S
C1185 C1169 1.349 . S
C1185 H1177 0.950 . S
C1185 C1183 1.327 . S
C1186 C1174 1.349 . S
C1186 H1180 0.950 . S
C1186 C1187 1.327 . S
C1187 H1181 0.950 . S
C1187 C1186 1.327 . S
C1187 C1191 1.429 . S
C1188 C1171 1.574 . S
C1188 H1182 0.949 . S
C1188 C1192 1.368 . S
C1189 C1170 1.429 . S
C1189 C1183 1.429 . S
C1189 C1190 1.523 . S
C1190 C1171 1.368 . S
C1190 C1184 1.368 . S
C1190 C1189 1.523 . S
C1191 C1175 1.429 . S
C1191 C1187 1.429 . S
C1191 C1192 1.523 . S
C1192 C1176 1.368 . S
C1192 C1188 1.368 . S
C1192 C1191 1.523 . S
H1193 C1168 0.950 . S
H1194 C1170 0.950 . S
H1195 C1171 0.949 . S
H1196 C1173 0.950 . S
H1197 C1175 0.950 . S
C1198 C1199 1.349 . S
C1198 C1200 1.327 . S
C1198 H1223 0.950 . S
C1199 C1198 1.349 . S
C1199 C1215 1.349 . S
C1200 C1198 1.327 . S
C1200 C1219 1.429 . S
C1200 H1224 0.950 . S
C1201 C1218 1.574 . S
C1201 C1220 1.369 1_556 S
C1201 H1225 0.949 . S
H1202 C1206 0.949 . S
C1203 C1204 1.349 . S
C1203 C1205 1.327 . S
C1203 H1226 0.950 . S
C1204 C1203 1.349 . S
C1204 C1216 1.349 . S
C1205 C1203 1.327 . S
C1205 C1221 1.429 . S
C1205 H1227 0.950 . S
C1206 H1202 0.949 . S
C1206 C1214 1.574 1_556 S
C1206 C1222 1.368 . S
H1207 C1215 0.950 . S
H1208 C1213 0.950 1_556 S
H1209 C1214 0.949 . S
H1210 C1216 0.950 . S
H1211 C1217 0.950 . S
H1212 C1218 0.949 . S
C1213 H1208 0.950 1_554 S
C1213 C1215 1.327 . S
C1213 C1219 1.429 . S
C1214 C1206 1.574 1_554 S
C1214 H1209 0.949 . S
C1214 C1220 1.368 . S
C1215 C1199 1.349 . S
C1215 H1207 0.950 . S
C1215 C1213 1.327 . S
C1216 C1204 1.349 . S
C1216 H1210 0.950 . S
C1216 C1217 1.327 . S
C1217 H1211 0.950 . S
C1217 C1216 1.327 . S
C1217 C1221 1.429 . S
C1218 C1201 1.574 . S
C1218 H1212 0.949 . S
C1218 C1222 1.368 . S
C1219 C1200 1.429 . S
C1219 C1213 1.429 . S
C1219 C1220 1.522 . S
C1220 C1201 1.369 1_554 S
C1220 C1214 1.368 . S
C1220 C1219 1.522 . S
C1221 C1205 1.429 . S
C1221 C1217 1.429 . S
C1221 C1222 1.523 . S
C1222 C1206 1.368 . S
C1222 C1218 1.368 . S
C1222 C1221 1.523 . S
H1223 C1198 0.950 . S
H1224 C1200 0.950 . S
H1225 C1201 0.949 . S
H1226 C1203 0.950 . S
H1227 C1205 0.950 . S
C1228 C1229 1.349 . S
C1228 C1230 1.327 . S
C1228 H1253 0.950 . S
C1229 C1228 1.349 . S
C1229 C1245 1.349 . S
C1230 C1228 1.327 . S
C1230 C1249 1.429 . S
C1230 H1254 0.950 . S
C1231 C1248 1.574 . S
C1231 C1250 1.368 . S
C1231 H1255 0.949 . S
H1232 C1236 0.949 1_556 S
C1233 C1234 1.349 . S
C1233 C1235 1.327 . S
C1233 H1256 0.950 . S
C1234 C1233 1.349 . S
C1234 C1246 1.349 . S
C1235 C1233 1.327 . S
C1235 C1251 1.429 . S
C1235 H1257 0.950 . S
C1236 H1232 0.949 1_554 S
C1236 C1244 1.574 . S
C1236 C1252 1.368 1_554 S
H1237 C1245 0.950 . S
H1238 C1243 0.950 . S
H1239 C1244 0.949 . S
H1240 C1246 0.950 . S
H1241 C1247 0.950 . S
H1242 C1248 0.949 . S
C1243 H1238 0.950 . S
C1243 C1245 1.327 . S
C1243 C1249 1.429 . S
C1244 C1236 1.574 . S
C1244 H1239 0.949 . S
C1244 C1250 1.368 . S
C1245 C1229 1.349 . S
C1245 H1237 0.950 . S
C1245 C1243 1.327 . S
C1246 C1234 1.349 . S
C1246 H1240 0.950 . S
C1246 C1247 1.327 . S
C1247 H1241 0.950 . S
C1247 C1246 1.327 . S
C1247 C1251 1.429 . S
C1248 C1231 1.574 . S
C1248 H1242 0.949 . S
C1248 C1252 1.369 1_554 S
C1249 C1230 1.429 . S
C1249 C1243 1.429 . S
C1249 C1250 1.523 . S
C1250 C1231 1.368 . S
C1250 C1244 1.368 . S
C1250 C1249 1.523 . S
C1251 C1235 1.429 . S
C1251 C1247 1.429 . S
C1251 C1252 1.522 . S
C1252 C1236 1.368 1_556 S
C1252 C1248 1.369 1_556 S
C1252 C1251 1.522 . S
H1253 C1228 0.950 . S
H1254 C1230 0.950 . S
H1255 C1231 0.949 . S
H1256 C1233 0.950 . S
H1257 C1235 0.950 . S
C1258 C1259 1.349 . S
C1258 C1260 1.327 . S
C1258 H1283 0.950 . S
C1259 C1258 1.349 . S
C1259 C1275 1.349 . S
C1260 C1258 1.327 . S
C1260 C1279 1.429 . S
C1260 H1284 0.950 . S
C1261 C1278 1.574 . S
C1261 C1280 1.368 . S
C1261 H1285 0.949 . S
H1262 C1266 0.949 . S
C1263 C1264 1.349 . S
C1263 C1265 1.327 . S
C1263 H1286 0.950 . S
C1264 C1263 1.349 . S
C1264 C1276 1.349 . S
C1265 C1263 1.327 . S
C1265 C1281 1.429 . S
C1265 H1287 0.950 . S
C1266 H1262 0.949 . S
C1266 C1274 1.574 . S
C1266 C1282 1.368 . S
H1267 C1275 0.950 . S
H1268 C1273 0.950 . S
H1269 C1274 0.949 . S
H1270 C1276 0.950 . S
H1271 C1277 0.950 . S
H1272 C1278 0.949 . S
C1273 H1268 0.950 . S
C1273 C1275 1.327 . S
C1273 C1279 1.429 . S
C1274 C1266 1.574 . S
C1274 H1269 0.949 . S
C1274 C1280 1.368 . S
C1275 C1259 1.349 . S
C1275 H1267 0.950 . S
C1275 C1273 1.327 . S
C1276 C1264 1.349 . S
C1276 H1270 0.950 . S
C1276 C1277 1.327 . S
C1277 H1271 0.950 . S
C1277 C1276 1.327 . S
C1277 C1281 1.429 . S
C1278 C1261 1.574 . S
C1278 H1272 0.949 . S
C1278 C1282 1.368 . S
C1279 C1260 1.429 . S
C1279 C1273 1.429 . S
C1279 C1280 1.523 . S
C1280 C1261 1.368 . S
C1280 C1274 1.368 . S
C1280 C1279 1.523 . S
C1281 C1265 1.429 . S
C1281 C1277 1.429 . S
C1281 C1282 1.523 . S
C1282 C1266 1.368 . S
C1282 C1278 1.368 . S
C1282 C1281 1.523 . S
H1283 C1258 0.950 . S
H1284 C1260 0.950 . S
H1285 C1261 0.949 . S
H1286 C1263 0.950 . S
H1287 C1265 0.950 . S
C1288 C1289 1.349 . S
C1288 C1290 1.327 . S
C1288 H1313 0.950 . S
C1289 C1288 1.349 . S
C1289 C1305 1.349 . S
C1290 C1288 1.327 . S
C1290 C1309 1.429 . S
C1290 H1314 0.950 . S
C1291 C1308 1.574 . S
C1291 C1310 1.368 . S
C1291 H1315 0.949 . S
H1292 C1296 0.949 . S
C1293 C1294 1.349 . S
C1293 C1295 1.327 . S
C1293 H1316 0.950 . S
C1294 C1293 1.349 . S
C1294 C1306 1.349 . S
C1295 C1293 1.327 . S
C1295 C1311 1.429 . S
C1295 H1317 0.950 . S
C1296 H1292 0.949 . S
C1296 C1304 1.574 . S
C1296 C1312 1.368 . S
H1297 C1305 0.950 . S
H1298 C1303 0.950 . S
H1299 C1304 0.949 . S
H1300 C1306 0.950 . S
H1301 C1307 0.950 . S
H1302 C1308 0.949 . S
C1303 H1298 0.950 . S
C1303 C1305 1.327 . S
C1303 C1309 1.429 . S
C1304 C1296 1.574 . S
C1304 H1299 0.949 . S
C1304 C1310 1.368 . S
C1305 C1289 1.349 . S
C1305 H1297 0.950 . S
C1305 C1303 1.327 . S
C1306 C1294 1.349 . S
C1306 H1300 0.950 . S
C1306 C1307 1.327 . S
C1307 H1301 0.950 . S
C1307 C1306 1.327 . S
C1307 C1311 1.429 . S
C1308 C1291 1.574 . S
C1308 H1302 0.949 . S
C1308 C1312 1.368 . S
C1309 C1290 1.429 . S
C1309 C1303 1.429 . S
C1309 C1310 1.523 . S
C1310 C1291 1.368 . S
C1310 C1304 1.368 . S
C1310 C1309 1.523 . S
C1311 C1295 1.429 . S
C1311 C1307 1.429 . S
C1311 C1312 1.523 . S
C1312 C1296 1.368 . S
C1312 C1308 1.368 . S
C1312 C1311 1.523 . S
H1313 C1288 0.950 . S
H1314 C1290 0.950 . S
H1315 C1291 0.949 . S
H1316 C1293 0.950 . S
H1317 C1295 0.950 . S
C1318 C1319 1.349 . S
C1318 C1320 1.327 . S
C1318 H1343 0.950 . S
C1319 C1318 1.349 . S
C1319 C1335 1.349 . S
C1320 C1318 1.327 . S
C1320 C1339 1.429 . S
C1320 H1344 0.950 . S
C1321 C1338 1.574 . S
C1321 C1340 1.369 1_554 S
C1321 H1345 0.949 . S
H1322 C1326 0.949 . S
C1323 C1324 1.349 . S
C1323 C1325 1.327 . S
C1323 H1346 0.950 . S
C1324 C1323 1.349 . S
C1324 C1336 1.349 . S
C1325 C1323 1.327 . S
C1325 C1341 1.429 . S
C1325 H1347 0.950 . S
C1326 H1322 0.949 . S
C1326 C1334 1.574 1_554 S
C1326 C1342 1.368 . S
H1327 C1335 0.950 . S
H1328 C1333 0.964 . S
H1329 C1334 0.949 . S
H1330 C1336 0.950 . S
H1331 C1337 0.950 . S
H1332 C1338 0.949 . S
C1333 H1328 0.964 . S
C1333 C1335 1.327 . S
C1333 C1339 1.429 . S
C1334 C1326 1.574 1_556 S
C1334 H1329 0.949 . S
C1334 C1340 1.368 . S
C1335 C1319 1.349 . S
C1335 H1327 0.950 . S
C1335 C1333 1.327 . S
C1336 C1324 1.349 . S
C1336 H1330 0.950 . S
C1336 C1337 1.327 . S
C1337 H1331 0.950 . S
C1337 C1336 1.327 . S
C1337 C1341 1.429 . S
C1338 C1321 1.574 . S
C1338 H1332 0.949 . S
C1338 C1342 1.368 . S
C1339 C1320 1.429 . S
C1339 C1333 1.429 . S
C1339 C1340 1.522 . S
C1340 C1321 1.369 1_556 S
C1340 C1334 1.368 . S
C1340 C1339 1.522 . S
C1341 C1325 1.429 . S
C1341 C1337 1.429 . S
C1341 C1342 1.523 . S
C1342 C1326 1.368 . S
C1342 C1338 1.368 . S
C1342 C1341 1.523 . S
H1343 C1318 0.950 . S
H1344 C1320 0.950 . S
H1345 C1321 0.949 . S
H1346 C1323 0.950 . S
H1347 C1325 0.950 . S
C1348 C1349 1.349 . S
C1348 C1350 1.327 . S
C1348 H1373 0.950 . S
C1349 C1348 1.349 . S
C1349 C1365 1.349 . S
C1350 C1348 1.327 . S
C1350 C1369 1.429 . S
C1350 H1374 0.950 . S
C1351 C1368 1.574 . S
C1351 C1370 1.368 . S
C1351 H1375 0.949 . S
H1352 C1356 0.949 . S
C1353 C1354 1.349 . S
C1353 C1355 1.327 . S
C1353 H1376 0.950 . S
C1354 C1353 1.349 . S
C1354 C1366 1.349 . S
C1355 C1353 1.327 . S
C1355 C1371 1.429 . S
C1355 H1377 0.950 . S
C1356 H1352 0.949 . S
C1356 C1364 1.574 . S
C1356 C1372 1.369 1_556 S
H1357 C1365 0.950 . S
H1358 C1363 0.950 . S
H1359 C1364 0.949 . S
H1360 C1366 0.950 . S
H1361 C1367 0.950 . S
H1362 C1368 0.949 1_554 S
C1363 H1358 0.950 . S
C1363 C1365 1.327 . S
C1363 C1369 1.429 . S
C1364 C1356 1.574 . S
C1364 H1359 0.949 . S
C1364 C1370 1.368 . S
C1365 C1349 1.349 . S
C1365 H1357 0.950 . S
C1365 C1363 1.327 . S
C1366 C1354 1.349 . S
C1366 H1360 0.950 . S
C1366 C1367 1.327 . S
C1367 H1361 0.950 . S
C1367 C1366 1.327 . S
C1367 C1371 1.429 . S
C1368 C1351 1.574 . S
C1368 H1362 0.949 1_556 S
C1368 C1372 1.368 1_556 S
C1369 C1350 1.429 . S
C1369 C1363 1.429 . S
C1369 C1370 1.523 . S
C1370 C1351 1.368 . S
C1370 C1364 1.368 . S
C1370 C1369 1.523 . S
C1371 C1355 1.429 . S
C1371 C1367 1.429 . S
C1371 C1372 1.522 . S
C1372 C1356 1.369 1_554 S
C1372 C1368 1.368 1_554 S
C1372 C1371 1.522 . S
H1373 C1348 0.950 . S
H1374 C1350 0.950 . S
H1375 C1351 0.949 . S
H1376 C1353 0.950 . S
H1377 C1355 0.950 . S
C1378 C1379 1.349 . S
C1378 C1380 1.327 . S
C1378 H1403 0.950 . S
C1379 C1378 1.349 . S
C1379 C1395 1.349 . S
C1380 C1378 1.327 . S
C1380 C1399 1.429 . S
C1380 H1404 0.950 . S
C1381 C1398 1.574 . S
C1381 C1400 1.368 . S
C1381 H1405 0.949 . S
H1382 C1386 0.949 . S
C1383 C1384 1.349 . S
C1383 C1385 1.327 . S
C1383 H1406 0.950 . S
C1384 C1383 1.349 . S
C1384 C1396 1.349 . S
C1385 C1383 1.327 . S
C1385 C1401 1.429 . S
C1385 H1407 0.950 . S
C1386 H1382 0.949 . S
C1386 C1394 1.574 . S
C1386 C1402 1.368 . S
H1387 C1395 0.950 . S
H1388 C1393 0.950 . S
H1389 C1394 0.949 . S
H1390 C1396 0.950 . S
H1391 C1397 0.950 . S
H1392 C1398 0.949 . S
C1393 H1388 0.950 . S
C1393 C1395 1.327 . S
C1393 C1399 1.429 . S
C1394 C1386 1.574 . S
C1394 H1389 0.949 . S
C1394 C1400 1.368 . S
C1395 C1379 1.349 . S
C1395 H1387 0.950 . S
C1395 C1393 1.327 . S
C1396 C1384 1.349 . S
C1396 H1390 0.950 . S
C1396 C1397 1.327 . S
C1397 H1391 0.950 . S
C1397 C1396 1.327 . S
C1397 C1401 1.429 . S
C1398 C1381 1.574 . S
C1398 H1392 0.949 . S
C1398 C1402 1.368 . S
C1399 C1380 1.429 . S
C1399 C1393 1.429 . S
C1399 C1400 1.523 . S
C1400 C1381 1.368 . S
C1400 C1394 1.368 . S
C1400 C1399 1.523 . S
C1401 C1385 1.429 . S
C1401 C1397 1.429 . S
C1401 C1402 1.523 . S
C1402 C1386 1.368 . S
C1402 C1398 1.368 . S
C1402 C1401 1.523 . S
H1403 C1378 0.950 . S
H1404 C1380 0.950 . S
H1405 C1381 0.949 . S
H1406 C1383 0.950 . S
H1407 C1385 0.950 . S
C1408 C1409 1.349 . S
C1408 C1410 1.327 . S
C1408 H1433 0.950 . S
C1409 C1408 1.349 . S
C1409 C1425 1.349 . S
C1410 C1408 1.327 . S
C1410 C1429 1.429 . S
C1410 H1434 0.950 . S
C1411 C1428 1.574 1_554 S
C1411 C1430 1.368 . S
C1411 H1435 0.949 . S
H1412 C1416 0.949 . S
C1413 C1414 1.349 . S
C1413 C1415 1.327 . S
C1413 H1436 0.950 . S
C1414 C1413 1.349 . S
C1414 C1426 1.349 . S
C1415 C1413 1.327 . S
C1415 C1431 1.429 . S
C1415 H1437 0.950 . S
C1416 H1412 0.949 . S
C1416 C1424 1.574 . S
C1416 C1432 1.368 . S
H1417 C1425 0.950 . S
H1418 C1423 0.950 . S
H1419 C1424 0.949 . S
H1420 C1426 0.950 . S
H1421 C1427 0.950 . S
H1422 C1428 0.949 . S
C1423 H1418 0.950 . S
C1423 C1425 1.327 . S
C1423 C1429 1.429 . S
C1424 C1416 1.574 . S
C1424 H1419 0.949 . S
C1424 C1430 1.368 1_556 S
C1425 C1409 1.349 . S
C1425 H1417 0.950 . S
C1425 C1423 1.327 . S
C1426 C1414 1.349 . S
C1426 H1420 0.950 . S
C1426 C1427 1.327 . S
C1427 H1421 0.950 . S
C1427 C1426 1.327 . S
C1427 C1431 1.429 . S
C1428 C1411 1.574 1_556 S
C1428 H1422 0.949 . S
C1428 C1432 1.368 . S
C1429 C1410 1.429 . S
C1429 C1423 1.429 . S
C1429 C1430 1.523 . S
C1430 C1411 1.368 . S
C1430 C1424 1.368 1_554 S
C1430 C1429 1.523 . S
C1431 C1415 1.429 . S
C1431 C1427 1.429 . S
C1431 C1432 1.523 . S
C1432 C1416 1.368 . S
C1432 C1428 1.368 . S
C1432 C1431 1.523 . S
H1433 C1408 0.950 . S
H1434 C1410 0.950 . S
H1435 C1411 0.949 . S
H1436 C1413 0.950 . S
H1437 C1415 0.950 . S
C1438 C1439 1.349 . S
C1438 C1440 1.327 . S
C1438 H1463 0.950 . S
C1439 C1438 1.349 . S
C1439 C1455 1.349 . S
C1440 C1438 1.327 . S
C1440 C1459 1.429 . S
C1440 H1464 0.950 . S
C1441 C1458 1.574 1_655 S
C1441 C1460 1.368 . S
C1441 H1465 0.949 . S
H1442 C1446 0.951 . S
C1443 C1444 1.349 . S
C1443 C1445 1.327 . S
C1443 H1466 0.950 . S
C1444 C1443 1.349 . S
C1444 C1456 1.349 . S
C1445 C1443 1.327 . S
C1445 C1461 1.429 . S
C1445 H1467 0.950 . S
C1446 H1442 0.951 . S
C1446 C1454 1.554 1_455 S
C1446 C1462 1.386 . S
H1447 C1455 0.950 . S
H1448 C1453 0.950 . S
H1449 C1454 0.949 . S
H1450 C1456 0.950 . S
H1451 C1457 0.950 . S
H1452 C1458 0.949 . S
C1453 H1448 0.950 . S
C1453 C1455 1.327 . S
C1453 C1459 1.429 . S
C1454 C1446 1.554 1_655 S
C1454 H1449 0.949 . S
C1454 C1460 1.368 . S
C1455 C1439 1.349 . S
C1455 H1447 0.950 . S
C1455 C1453 1.327 . S
C1456 C1444 1.349 . S
C1456 H1450 0.950 . S
C1456 C1457 1.327 . S
C1457 H1451 0.950 . S
C1457 C1456 1.327 . S
C1457 C1461 1.429 . S
C1458 C1441 1.574 1_455 S
C1458 H1452 0.949 . S
C1458 C1462 1.368 . S
C1459 C1440 1.429 . S
C1459 C1453 1.429 . S
C1459 C1460 1.523 . S
C1460 C1441 1.368 . S
C1460 C1454 1.368 . S
C1460 C1459 1.523 . S
C1461 C1445 1.429 . S
C1461 C1457 1.429 . S
C1461 C1462 1.523 . S
C1462 C1446 1.386 . S
C1462 C1458 1.368 . S
C1462 C1461 1.523 . S
H1463 C1438 0.950 . S
H1464 C1440 0.950 . S
H1465 C1441 0.949 . S
H1466 C1443 0.950 . S
H1467 C1445 0.950 . S
C1468 C1469 1.349 . S
C1468 C1470 1.327 . S
C1468 H1493 0.950 . S
C1469 C1468 1.349 . S
C1469 C1485 1.349 . S
C1470 C1468 1.327 . S
C1470 C1489 1.429 . S
C1470 H1494 0.950 . S
C1471 C1488 1.574 . S
C1471 C1490 1.368 . S
C1471 H1495 0.949 . S
H1472 C1476 0.949 . S
C1473 C1474 1.349 . S
C1473 C1475 1.327 . S
C1473 H1496 0.950 . S
C1474 C1473 1.349 . S
C1474 C1486 1.349 . S
C1475 C1473 1.327 . S
C1475 C1491 1.429 . S
C1475 H1497 0.950 . S
C1476 H1472 0.949 . S
C1476 C1484 1.574 . S
C1476 C1492 1.368 . S
H1477 C1485 0.950 . S
H1478 C1483 0.950 . S
H1479 C1484 0.949 . S
H1480 C1486 0.950 . S
H1481 C1487 0.950 . S
H1482 C1488 0.949 . S
C1483 H1478 0.950 . S
C1483 C1485 1.327 . S
C1483 C1489 1.429 . S
C1484 C1476 1.574 . S
C1484 H1479 0.949 . S
C1484 C1490 1.368 . S
C1485 C1469 1.349 . S
C1485 H1477 0.950 . S
C1485 C1483 1.327 . S
C1486 C1474 1.349 . S
C1486 H1480 0.950 . S
C1486 C1487 1.327 . S
C1487 H1481 0.950 . S
C1487 C1486 1.327 . S
C1487 C1491 1.429 . S
C1488 C1471 1.574 . S
C1488 H1482 0.949 . S
C1488 C1492 1.368 . S
C1489 C1470 1.429 . S
C1489 C1483 1.429 . S
C1489 C1490 1.523 . S
C1490 C1471 1.368 . S
C1490 C1484 1.368 . S
C1490 C1489 1.523 . S
C1491 C1475 1.429 . S
C1491 C1487 1.429 . S
C1491 C1492 1.523 . S
C1492 C1476 1.368 . S
C1492 C1488 1.368 . S
C1492 C1491 1.523 . S
H1493 C1468 0.950 . S
H1494 C1470 0.950 . S
H1495 C1471 0.949 . S
H1496 C1473 0.950 . S
H1497 C1475 0.950 . S
C1498 C1499 1.349 . S
C1498 C1500 1.327 . S
C1498 H1523 0.950 . S
C1499 C1498 1.349 . S
C1499 C1515 1.349 . S
C1500 C1498 1.327 . S
C1500 C1519 1.429 . S
C1500 H1524 0.950 . S
C1501 C1518 1.574 . S
C1501 C1520 1.368 . S
C1501 H1525 0.949 . S
H1502 C1506 0.949 . S
C1503 C1504 1.349 . S
C1503 C1505 1.327 1_554 S
C1503 H1526 0.950 . S
C1504 C1503 1.349 . S
C1504 C1516 1.349 . S
C1505 C1503 1.327 1_556 S
C1505 C1521 1.429 . S
C1505 H1527 0.950 . S
C1506 H1502 0.949 . S
C1506 C1514 1.574 . S
C1506 C1522 1.368 . S
H1507 C1515 0.950 . S
H1508 C1513 0.950 . S
H1509 C1514 0.949 . S
H1510 C1516 0.950 . S
H1511 C1517 0.950 . S
H1512 C1518 0.949 . S
C1513 H1508 0.950 . S
C1513 C1515 1.327 . S
C1513 C1519 1.429 . S
C1514 C1506 1.574 . S
C1514 H1509 0.949 . S
C1514 C1520 1.368 . S
C1515 C1499 1.349 . S
C1515 H1507 0.950 . S
C1515 C1513 1.327 . S
C1516 C1504 1.349 . S
C1516 H1510 0.950 . S
C1516 C1517 1.327 . S
C1517 H1511 0.950 . S
C1517 C1516 1.327 . S
C1517 C1521 1.429 1_554 S
C1518 C1501 1.574 . S
C1518 H1512 0.949 . S
C1518 C1522 1.368 . S
C1519 C1500 1.429 . S
C1519 C1513 1.429 . S
C1519 C1520 1.523 . S
C1520 C1501 1.368 . S
C1520 C1514 1.368 . S
C1520 C1519 1.523 . S
C1521 C1505 1.429 . S
C1521 C1517 1.429 1_556 S
C1521 C1522 1.523 . S
C1522 C1506 1.368 . S
C1522 C1518 1.368 . S
C1522 C1521 1.523 . S
H1523 C1498 0.950 . S
H1524 C1500 0.950 . S
H1525 C1501 0.949 . S
H1526 C1503 0.950 . S
H1527 C1505 0.950 . S
C1528 C1529 1.349 . S
C1528 C1530 1.327 . S
C1528 H1553 0.950 . S
C1529 C1528 1.349 . S
C1529 C1545 1.349 . S
C1530 C1528 1.327 . S
C1530 C1549 1.429 . S
C1530 H1554 0.950 . S
C1531 C1548 1.574 . S
C1531 C1550 1.368 . S
C1531 H1555 0.949 . S
H1532 C1536 0.949 . S
C1533 C1534 1.349 . S
C1533 C1535 1.327 . S
C1533 H1556 0.950 . S
C1534 C1533 1.349 . S
C1534 C1546 1.349 . S
C1535 C1533 1.327 . S
C1535 C1551 1.429 . S
C1535 H1557 0.950 . S
C1536 H1532 0.949 . S
C1536 C1544 1.574 . S
C1536 C1552 1.368 . S
H1537 C1545 0.950 . S
H1538 C1543 0.950 . S
H1539 C1544 0.949 . S
H1540 C1546 0.950 . S
H1541 C1547 0.950 . S
H1542 C1548 0.949 . S
C1543 H1538 0.950 . S
C1543 C1545 1.327 . S
C1543 C1549 1.429 . S
C1544 C1536 1.574 . S
C1544 H1539 0.949 . S
C1544 C1550 1.368 . S
C1545 C1529 1.349 . S
C1545 H1537 0.950 . S
C1545 C1543 1.327 . S
C1546 C1534 1.349 . S
C1546 H1540 0.950 . S
C1546 C1547 1.327 . S
C1547 H1541 0.950 . S
C1547 C1546 1.327 . S
C1547 C1551 1.429 . S
C1548 C1531 1.574 . S
C1548 H1542 0.949 . S
C1548 C1552 1.368 . S
C1549 C1530 1.429 . S
C1549 C1543 1.429 . S
C1549 C1550 1.523 . S
C1550 C1531 1.368 . S
C1550 C1544 1.368 . S
C1550 C1549 1.523 . S
C1551 C1535 1.429 . S
C1551 C1547 1.429 . S
C1551 C1552 1.523 . S
C1552 C1536 1.368 . S
C1552 C1548 1.368 . S
C1552 C1551 1.523 . S
H1553 C1528 0.950 . S
H1554 C1530 0.950 . S
H1555 C1531 0.949 . S
H1556 C1533 0.950 . S
H1557 C1535 0.950 . S
C1558 C1559 1.349 . S
C1558 C1560 1.327 . S
C1558 H1583 0.950 . S
C1559 C1558 1.349 . S
C1559 C1575 1.349 . S
C1560 C1558 1.327 . S
C1560 C1579 1.429 . S
C1560 H1584 0.950 . S
C1561 C1578 1.574 . S
C1561 C1580 1.368 . S
C1561 H1585 0.949 . S
H1562 C1566 0.949 . S
C1563 C1564 1.349 . S
C1563 C1565 1.327 . S
C1563 H1586 0.950 . S
C1564 C1563 1.349 . S
C1564 C1576 1.349 . S
C1565 C1563 1.327 . S
C1565 C1581 1.429 . S
C1565 H1587 0.950 . S
C1566 H1562 0.949 . S
C1566 C1574 1.574 . S
C1566 C1582 1.368 . S
H1567 C1575 0.950 . S
H1568 C1573 0.950 . S
H1569 C1574 0.949 . S
H1570 C1576 0.950 . S
H1571 C1577 0.950 . S
H1572 C1578 0.949 . S
C1573 H1568 0.950 . S
C1573 C1575 1.327 . S
C1573 C1579 1.429 . S
C1574 C1566 1.574 . S
C1574 H1569 0.949 . S
C1574 C1580 1.368 . S
C1575 C1559 1.349 . S
C1575 H1567 0.950 . S
C1575 C1573 1.327 . S
C1576 C1564 1.349 . S
C1576 H1570 0.950 . S
C1576 C1577 1.327 . S
C1577 H1571 0.950 . S
C1577 C1576 1.327 . S
C1577 C1581 1.429 . S
C1578 C1561 1.574 . S
C1578 H1572 0.949 . S
C1578 C1582 1.368 . S
C1579 C1560 1.429 . S
C1579 C1573 1.429 . S
C1579 C1580 1.523 . S
C1580 C1561 1.368 . S
C1580 C1574 1.368 . S
C1580 C1579 1.523 . S
C1581 C1565 1.429 . S
C1581 C1577 1.429 . S
C1581 C1582 1.523 . S
C1582 C1566 1.368 . S
C1582 C1578 1.368 . S
C1582 C1581 1.523 . S
H1583 C1558 0.950 . S
H1584 C1560 0.950 . S
H1585 C1561 0.949 . S
H1586 C1563 0.950 . S
H1587 C1565 0.950 . S
C1588 C1589 1.349 . S
C1588 C1590 1.327 . S
C1588 H1613 0.950 . S
C1589 C1588 1.349 . S
C1589 C1605 1.349 . S
C1590 C1588 1.327 . S
C1590 C1609 1.429 . S
C1590 H1614 0.950 . S
C1591 C1608 1.574 1_556 S
C1591 C1610 1.368 . S
C1591 H1615 0.949 . S
H1592 C1596 0.949 . S
C1593 C1594 1.349 . S
C1593 C1595 1.327 . S
C1593 H1616 0.950 . S
C1594 C1593 1.349 . S
C1594 C1606 1.349 . S
C1595 C1593 1.327 . S
C1595 C1611 1.429 . S
C1595 H1617 0.950 . S
C1596 H1592 0.949 . S
C1596 C1604 1.574 . S
C1596 C1612 1.368 . S
H1597 C1605 0.950 . S
H1598 C1603 0.950 . S
H1599 C1604 0.949 . S
H1600 C1606 0.950 . S
H1601 C1607 0.950 . S
H1602 C1608 0.949 1_556 S
C1603 H1598 0.950 . S
C1603 C1605 1.327 . S
C1603 C1609 1.429 . S
C1604 C1596 1.574 . S
C1604 H1599 0.949 . S
C1604 C1610 1.368 1_554 S
C1605 C1589 1.349 . S
C1605 H1597 0.950 . S
C1605 C1603 1.327 . S
C1606 C1594 1.349 . S
C1606 H1600 0.950 . S
C1606 C1607 1.327 . S
C1607 H1601 0.950 . S
C1607 C1606 1.327 . S
C1607 C1611 1.429 . S
C1608 C1591 1.574 1_554 S
C1608 H1602 0.949 1_554 S
C1608 C1612 1.368 . S
C1609 C1590 1.429 . S
C1609 C1603 1.429 . S
C1609 C1610 1.523 . S
C1610 C1591 1.368 . S
C1610 C1604 1.368 1_556 S
C1610 C1609 1.523 . S
C1611 C1595 1.429 . S
C1611 C1607 1.429 . S
C1611 C1612 1.523 . S
C1612 C1596 1.368 . S
C1612 C1608 1.368 . S
C1612 C1611 1.523 . S
H1613 C1588 0.950 . S
H1614 C1590 0.950 . S
H1615 C1591 0.949 . S
H1616 C1593 0.950 . S
H1617 C1595 0.950 . S
C1618 C1619 1.349 . S
C1618 C1620 1.327 1_556 S
C1618 H1643 0.950 . S
C1619 C1618 1.349 . S
C1619 C1635 1.349 . S
C1620 C1618 1.327 1_554 S
C1620 C1639 1.429 . S
C1620 H1644 0.950 . S
C1621 C1638 1.546 1_455 S
C1621 C1640 1.394 . S
C1621 H1645 0.953 . S
H1622 C1626 0.949 . S
C1623 C1624 1.349 . S
C1623 C1625 1.327 . S
C1623 H1646 0.950 . S
C1624 C1623 1.349 . S
C1624 C1636 1.349 . S
C1625 C1623 1.327 . S
C1625 C1641 1.429 . S
C1625 H1647 0.950 . S
C1626 H1622 0.949 . S
C1626 C1634 1.574 1_655 S
C1626 C1642 1.368 . S
H1627 C1635 0.950 . S
H1628 C1633 0.950 . S
H1629 C1634 0.949 . S
H1630 C1636 0.950 . S
H1631 C1637 0.950 . S
H1632 C1638 0.949 . S
C1633 H1628 0.950 . S
C1633 C1635 1.327 . S
C1633 C1639 1.429 1_556 S
C1634 C1626 1.574 1_455 S
C1634 H1629 0.949 . S
C1634 C1640 1.368 . S
C1635 C1619 1.349 . S
C1635 H1627 0.950 . S
C1635 C1633 1.327 . S
C1636 C1624 1.349 . S
C1636 H1630 0.950 . S
C1636 C1637 1.327 . S
C1637 H1631 0.950 . S
C1637 C1636 1.327 . S
C1637 C1641 1.429 . S
C1638 C1621 1.546 1_655 S
C1638 H1632 0.949 . S
C1638 C1642 1.368 . S
C1639 C1620 1.429 . S
C1639 C1633 1.429 1_554 S
C1639 C1640 1.523 . S
C1640 C1621 1.394 . S
C1640 C1634 1.368 . S
C1640 C1639 1.523 . S
C1641 C1625 1.429 . S
C1641 C1637 1.429 . S
C1641 C1642 1.523 . S
C1642 C1626 1.368 . S
C1642 C1638 1.368 . S
C1642 C1641 1.523 . S
H1643 C1618 0.950 . S
H1644 C1620 0.950 . S
H1645 C1621 0.953 . S
H1646 C1623 0.950 . S
H1647 C1625 0.950 . S
C1648 C1649 1.349 . S
C1648 C1650 1.327 . S
C1648 H1673 0.950 . S
C1649 C1648 1.349 . S
C1649 C1665 1.349 . S
C1650 C1648 1.327 . S
C1650 C1669 1.429 . S
C1650 H1674 0.950 . S
C1651 C1668 1.574 . S
C1651 C1670 1.368 1_554 S
C1651 H1675 0.949 . S
H1652 C1656 0.949 . S
C1653 C1654 1.349 . S
C1653 C1655 1.327 . S
C1653 H1676 0.950 . S
C1654 C1653 1.349 . S
C1654 C1666 1.349 . S
C1655 C1653 1.327 . S
C1655 C1671 1.429 . S
C1655 H1677 0.950 . S
C1656 H1652 0.949 . S
C1656 C1664 1.574 1_554 S
C1656 C1672 1.368 . S
H1657 C1665 0.950 . S
H1658 C1663 0.950 . S
H1659 C1664 0.949 . S
H1660 C1666 0.950 . S
H1661 C1667 0.950 . S
H1662 C1668 0.949 . S
C1663 H1658 0.950 . S
C1663 C1665 1.327 . S
C1663 C1669 1.429 . S
C1664 C1656 1.574 1_556 S
C1664 H1659 0.949 . S
C1664 C1670 1.368 . S
C1665 C1649 1.349 . S
C1665 H1657 0.950 . S
C1665 C1663 1.327 . S
C1666 C1654 1.349 . S
C1666 H1660 0.950 . S
C1666 C1667 1.327 . S
C1667 H1661 0.950 . S
C1667 C1666 1.327 . S
C1667 C1671 1.429 . S
C1668 C1651 1.574 . S
C1668 H1662 0.949 . S
C1668 C1672 1.368 . S
C1669 C1650 1.429 . S
C1669 C1663 1.429 . S
C1669 C1670 1.523 . S
C1670 C1651 1.368 1_556 S
C1670 C1664 1.368 . S
C1670 C1669 1.523 . S
C1671 C1655 1.429 . S
C1671 C1667 1.429 . S
C1671 C1672 1.523 . S
C1672 C1656 1.368 . S
C1672 C1668 1.368 . S
C1672 C1671 1.523 . S
H1673 C1648 0.950 . S
H1674 C1650 0.950 . S
H1675 C1651 0.949 . S
H1676 C1653 0.950 . S
H1677 C1655 0.950 . S
C1678 C1679 1.349 . S
C1678 C1680 1.327 . S
C1678 H1703 0.950 . S
C1679 C1678 1.349 . S
C1679 C1695 1.349 . S
C1680 C1678 1.327 . S
C1680 C1699 1.429 . S
C1680 H1704 0.950 . S
C1681 C1698 1.574 1_455 S
C1681 C1700 1.368 . S
C1681 H1705 0.949 . S
H1682 C1686 0.951 . S
C1683 C1684 1.349 . S
C1683 C1685 1.327 . S
C1683 H1706 0.950 . S
C1684 C1683 1.349 . S
C1684 C1696 1.349 . S
C1685 C1683 1.327 . S
C1685 C1701 1.429 . S
C1685 H1707 0.950 . S
C1686 H1682 0.951 . S
C1686 C1694 1.559 1_655 S
C1686 C1702 1.382 . S
H1687 C1695 0.950 . S
H1688 C1693 0.950 . S
H1689 C1694 0.949 . S
H1690 C1696 0.950 . S
H1691 C1697 0.950 . S
H1692 C1698 0.949 . S
C1693 H1688 0.950 . S
C1693 C1695 1.327 . S
C1693 C1699 1.429 . S
C1694 C1686 1.559 1_455 S
C1694 H1689 0.949 . S
C1694 C1700 1.368 . S
C1695 C1679 1.349 . S
C1695 H1687 0.950 . S
C1695 C1693 1.327 . S
C1696 C1684 1.349 . S
C1696 H1690 0.950 . S
C1696 C1697 1.327 . S
C1697 H1691 0.950 . S
C1697 C1696 1.327 . S
C1697 C1701 1.429 . S
C1698 C1681 1.574 1_655 S
C1698 H1692 0.949 . S
C1698 C1702 1.368 . S
C1699 C1680 1.429 . S
C1699 C1693 1.429 . S
C1699 C1700 1.523 . S
C1700 C1681 1.368 . S
C1700 C1694 1.368 . S
C1700 C1699 1.523 . S
C1701 C1685 1.429 . S
C1701 C1697 1.429 . S
C1701 C1702 1.523 . S
C1702 C1686 1.382 . S
C1702 C1698 1.368 . S
C1702 C1701 1.523 . S
H1703 C1678 0.950 . S
H1704 C1680 0.950 . S
H1705 C1681 0.949 . S
H1706 C1683 0.950 . S
H1707 C1685 0.950 . S
C1708 C1709 1.349 . S
C1708 C1710 1.327 . S
C1708 H1733 0.950 . S
C1709 C1708 1.349 . S
C1709 C1725 1.349 . S
C1710 C1708 1.327 . S
C1710 C1729 1.429 . S
C1710 H1734 0.950 . S
C1711 C1728 1.574 . S
C1711 C1730 1.368 . S
C1711 H1735 0.949 . S
H1712 C1716 0.949 . S
C1713 C1714 1.349 . S
C1713 C1715 1.327 . S
C1713 H1736 0.950 . S
C1714 C1713 1.349 . S
C1714 C1726 1.349 . S
C1715 C1713 1.327 . S
C1715 C1731 1.429 . S
C1715 H1737 0.950 . S
C1716 H1712 0.949 . S
C1716 C1724 1.574 . S
C1716 C1732 1.368 . S
H1717 C1725 0.950 . S
H1718 C1723 0.950 . S
H1719 C1724 0.949 . S
H1720 C1726 0.950 . S
H1721 C1727 0.950 . S
H1722 C1728 0.949 . S
C1723 H1718 0.950 . S
C1723 C1725 1.327 . S
C1723 C1729 1.429 . S
C1724 C1716 1.574 . S
C1724 H1719 0.949 . S
C1724 C1730 1.368 . S
C1725 C1709 1.349 . S
C1725 H1717 0.950 . S
C1725 C1723 1.327 . S
C1726 C1714 1.349 . S
C1726 H1720 0.950 . S
C1726 C1727 1.327 . S
C1727 H1721 0.950 . S
C1727 C1726 1.327 . S
C1727 C1731 1.429 . S
C1728 C1711 1.574 . S
C1728 H1722 0.949 . S
C1728 C1732 1.368 . S
C1729 C1710 1.429 . S
C1729 C1723 1.429 . S
C1729 C1730 1.523 . S
C1730 C1711 1.368 . S
C1730 C1724 1.368 . S
C1730 C1729 1.523 . S
C1731 C1715 1.429 . S
C1731 C1727 1.429 . S
C1731 C1732 1.523 . S
C1732 C1716 1.368 . S
C1732 C1728 1.368 . S
C1732 C1731 1.523 . S
H1733 C1708 0.950 . S
H1734 C1710 0.950 . S
H1735 C1711 0.949 . S
H1736 C1713 0.950 . S
H1737 C1715 0.950 . S
C1738 C1739 1.349 . S
C1738 C1740 1.327 . S
C1738 H1763 0.950 . S
C1739 C1738 1.349 . S
C1739 C1755 1.349 . S
C1740 C1738 1.327 . S
C1740 C1759 1.429 . S
C1740 H1764 0.950 . S
C1741 C1758 1.574 . S
C1741 C1760 1.368 . S
C1741 H1765 0.949 . S
H1742 C1746 0.949 . S
C1743 C1744 1.349 . S
C1743 C1745 1.327 . S
C1743 H1766 0.950 . S
C1744 C1743 1.349 . S
C1744 C1756 1.349 . S
C1745 C1743 1.327 . S
C1745 C1761 1.429 1_556 S
C1745 H1767 0.950 . S
C1746 H1742 0.949 . S
C1746 C1754 1.574 . S
C1746 C1762 1.368 . S
H1747 C1755 0.950 . S
H1748 C1753 0.950 . S
H1749 C1754 0.949 . S
H1750 C1756 0.950 . S
H1751 C1757 0.950 . S
H1752 C1758 0.949 . S
C1753 H1748 0.950 . S
C1753 C1755 1.327 . S
C1753 C1759 1.429 . S
C1754 C1746 1.574 . S
C1754 H1749 0.949 . S
C1754 C1760 1.368 . S
C1755 C1739 1.349 . S
C1755 H1747 0.950 . S
C1755 C1753 1.327 . S
C1756 C1744 1.349 . S
C1756 H1750 0.950 . S
C1756 C1757 1.327 1_556 S
C1757 H1751 0.950 . S
C1757 C1756 1.327 1_554 S
C1757 C1761 1.429 . S
C1758 C1741 1.574 . S
C1758 H1752 0.949 . S
C1758 C1762 1.368 . S
C1759 C1740 1.429 . S
C1759 C1753 1.429 . S
C1759 C1760 1.523 . S
C1760 C1741 1.368 . S
C1760 C1754 1.368 . S
C1760 C1759 1.523 . S
C1761 C1745 1.429 1_554 S
C1761 C1757 1.429 . S
C1761 C1762 1.523 . S
C1762 C1746 1.368 . S
C1762 C1758 1.368 . S
C1762 C1761 1.523 . S
H1763 C1738 0.950 . S
H1764 C1740 0.950 . S
H1765 C1741 0.949 . S
H1766 C1743 0.950 . S
H1767 C1745 0.950 . S
C1768 C1769 1.349 . S
C1768 C1770 1.327 . S
C1768 H1793 0.950 . S
C1769 C1768 1.349 . S
C1769 C1785 1.349 . S
C1770 C1768 1.327 . S
C1770 C1789 1.429 . S
C1770 H1794 0.950 . S
C1771 C1788 1.574 . S
C1771 C1790 1.368 . S
C1771 H1795 0.949 . S
H1772 C1776 0.949 . S
C1773 C1774 1.349 . S
C1773 C1775 1.327 . S
C1773 H1796 0.950 . S
C1774 C1773 1.349 . S
C1774 C1786 1.349 . S
C1775 C1773 1.327 . S
C1775 C1791 1.429 . S
C1775 H1797 0.950 . S
C1776 H1772 0.949 . S
C1776 C1784 1.574 . S
C1776 C1792 1.368 . S
H1777 C1785 0.950 . S
H1778 C1783 0.950 . S
H1779 C1784 0.949 . S
H1780 C1786 0.950 . S
H1781 C1787 0.950 . S
H1782 C1788 0.949 . S
C1783 H1778 0.950 . S
C1783 C1785 1.327 . S
C1783 C1789 1.429 . S
C1784 C1776 1.574 . S
C1784 H1779 0.949 . S
C1784 C1790 1.368 . S
C1785 C1769 1.349 . S
C1785 H1777 0.950 . S
C1785 C1783 1.327 . S
C1786 C1774 1.349 . S
C1786 H1780 0.950 . S
C1786 C1787 1.327 . S
C1787 H1781 0.950 . S
C1787 C1786 1.327 . S
C1787 C1791 1.429 . S
C1788 C1771 1.574 . S
C1788 H1782 0.949 . S
C1788 C1792 1.368 . S
C1789 C1770 1.429 . S
C1789 C1783 1.429 . S
C1789 C1790 1.523 . S
C1790 C1771 1.368 . S
C1790 C1784 1.368 . S
C1790 C1789 1.523 . S
C1791 C1775 1.429 . S
C1791 C1787 1.429 . S
C1791 C1792 1.523 . S
C1792 C1776 1.368 . S
C1792 C1788 1.368 . S
C1792 C1791 1.523 . S
H1793 C1768 0.950 . S
H1794 C1770 0.950 . S
H1795 C1771 0.949 . S
H1796 C1773 0.950 . S
H1797 C1775 0.950 . S
C1798 C1799 1.349 . S
C1798 C1800 1.327 . S
C1798 H1823 0.950 . S
C1799 C1798 1.349 . S
C1799 C1815 1.349 . S
C1800 C1798 1.327 . S
C1800 C1819 1.429 . S
C1800 H1824 0.950 . S
C1801 C1818 1.574 . S
C1801 C1820 1.368 . S
C1801 H1825 0.949 . S
H1802 C1806 0.949 . S
C1803 C1804 1.349 . S
C1803 C1805 1.327 . S
C1803 H1826 0.950 . S
C1804 C1803 1.349 . S
C1804 C1816 1.349 . S
C1805 C1803 1.327 . S
C1805 C1821 1.429 . S
C1805 H1827 0.950 . S
C1806 H1802 0.949 . S
C1806 C1814 1.574 . S
C1806 C1822 1.368 . S
H1807 C1815 0.950 . S
H1808 C1813 0.950 . S
H1809 C1814 0.949 . S
H1810 C1816 0.950 . S
H1811 C1817 0.950 . S
H1812 C1818 0.949 . S
C1813 H1808 0.950 . S
C1813 C1815 1.327 . S
C1813 C1819 1.429 . S
C1814 C1806 1.574 . S
C1814 H1809 0.949 . S
C1814 C1820 1.368 . S
C1815 C1799 1.349 . S
C1815 H1807 0.950 . S
C1815 C1813 1.327 . S
C1816 C1804 1.349 . S
C1816 H1810 0.950 . S
C1816 C1817 1.327 . S
C1817 H1811 0.950 . S
C1817 C1816 1.327 . S
C1817 C1821 1.429 . S
C1818 C1801 1.574 . S
C1818 H1812 0.949 . S
C1818 C1822 1.368 . S
C1819 C1800 1.429 . S
C1819 C1813 1.429 . S
C1819 C1820 1.523 . S
C1820 C1801 1.368 . S
C1820 C1814 1.368 . S
C1820 C1819 1.523 . S
C1821 C1805 1.429 . S
C1821 C1817 1.429 . S
C1821 C1822 1.523 . S
C1822 C1806 1.368 . S
C1822 C1818 1.368 . S
C1822 C1821 1.523 . S
H1823 C1798 0.950 . S
H1824 C1800 0.950 . S
H1825 C1801 0.949 . S
H1826 C1803 0.950 . S
H1827 C1805 0.950 . S
C1828 C1829 1.349 . S
C1828 C1830 1.327 . S
C1828 H1853 0.950 . S
C1829 C1828 1.349 . S
C1829 C1845 1.349 . S
C1830 C1828 1.327 . S
C1830 C1849 1.429 . S
C1830 H1854 0.950 . S
C1831 C1848 1.574 1_554 S
C1831 C1850 1.368 . S
C1831 H1855 0.949 . S
H1832 C1836 0.949 . S
C1833 C1834 1.349 . S
C1833 C1835 1.327 . S
C1833 H1856 0.950 . S
C1834 C1833 1.349 . S
C1834 C1846 1.349 . S
C1835 C1833 1.327 . S
C1835 C1851 1.429 . S
C1835 H1857 0.950 . S
C1836 H1832 0.949 . S
C1836 C1844 1.574 . S
C1836 C1852 1.368 . S
H1837 C1845 0.950 . S
H1838 C1843 0.950 . S
H1839 C1844 0.949 . S
H1840 C1846 0.950 . S
H1841 C1847 0.950 . S
H1842 C1848 0.949 . S
C1843 H1838 0.950 . S
C1843 C1845 1.327 . S
C1843 C1849 1.429 . S
C1844 C1836 1.574 . S
C1844 H1839 0.949 . S
C1844 C1850 1.368 1_556 S
C1845 C1829 1.349 . S
C1845 H1837 0.950 . S
C1845 C1843 1.327 . S
C1846 C1834 1.349 . S
C1846 H1840 0.950 . S
C1846 C1847 1.327 . S
C1847 H1841 0.950 . S
C1847 C1846 1.327 . S
C1847 C1851 1.429 . S
C1848 C1831 1.574 1_556 S
C1848 H1842 0.949 . S
C1848 C1852 1.368 . S
C1849 C1830 1.429 . S
C1849 C1843 1.429 . S
C1849 C1850 1.523 . S
C1850 C1831 1.368 . S
C1850 C1844 1.368 1_554 S
C1850 C1849 1.523 . S
C1851 C1835 1.429 . S
C1851 C1847 1.429 . S
C1851 C1852 1.523 . S
C1852 C1836 1.368 . S
C1852 C1848 1.368 . S
C1852 C1851 1.523 . S
H1853 C1828 0.950 . S
H1854 C1830 0.950 . S
H1855 C1831 0.949 . S
H1856 C1833 0.950 . S
H1857 C1835 0.950 . S
C1858 C1859 1.349 . S
C1858 C1860 1.327 . S
C1858 H1883 0.950 . S
C1859 C1858 1.349 . S
C1859 C1875 1.349 . S
C1860 C1858 1.327 . S
C1860 C1879 1.429 . S
C1860 H1884 0.950 . S
C1861 C1878 1.574 1_455 S
C1861 C1880 1.368 . S
C1861 H1885 0.949 . S
H1862 C1866 0.952 . S
C1863 C1864 1.349 . S
C1863 C1865 1.327 1_554 S
C1863 H1886 0.950 . S
C1864 C1863 1.349 . S
C1864 C1876 1.349 . S
C1865 C1863 1.327 1_556 S
C1865 C1881 1.429 . S
C1865 H1887 0.950 . S
C1866 H1862 0.952 . S
C1866 C1874 1.551 1_655 S
C1866 C1882 1.389 . S
H1867 C1875 0.950 . S
H1868 C1873 0.950 . S
H1869 C1874 0.949 . S
H1870 C1876 0.950 . S
H1871 C1877 0.950 . S
H1872 C1878 0.949 . S
C1873 H1868 0.950 . S
C1873 C1875 1.327 . S
C1873 C1879 1.429 . S
C1874 C1866 1.551 1_455 S
C1874 H1869 0.949 . S
C1874 C1880 1.368 . S
C1875 C1859 1.349 . S
C1875 H1867 0.950 . S
C1875 C1873 1.327 . S
C1876 C1864 1.349 . S
C1876 H1870 0.950 . S
C1876 C1877 1.327 . S
C1877 H1871 0.950 . S
C1877 C1876 1.327 . S
C1877 C1881 1.429 1_554 S
C1878 C1861 1.574 1_655 S
C1878 H1872 0.949 . S
C1878 C1882 1.368 . S
C1879 C1860 1.429 . S
C1879 C1873 1.429 . S
C1879 C1880 1.523 . S
C1880 C1861 1.368 . S
C1880 C1874 1.368 . S
C1880 C1879 1.523 . S
C1881 C1865 1.429 . S
C1881 C1877 1.429 1_556 S
C1881 C1882 1.523 . S
C1882 C1866 1.389 . S
C1882 C1878 1.368 . S
C1882 C1881 1.523 . S
H1883 C1858 0.950 . S
H1884 C1860 0.950 . S
H1885 C1861 0.949 . S
H1886 C1863 0.950 . S
H1887 C1865 0.950 . S
C1888 C1889 1.349 . S
C1888 C1890 1.327 . S
C1888 H1913 0.950 . S
C1889 C1888 1.349 . S
C1889 C1905 1.349 . S
C1890 C1888 1.327 . S
C1890 C1909 1.429 . S
C1890 H1914 0.950 . S
C1891 C1908 1.574 . S
C1891 C1910 1.368 . S
C1891 H1915 0.949 . S
H1892 C1896 0.949 . S
C1893 C1894 1.349 . S
C1893 C1895 1.327 . S
C1893 H1916 0.950 . S
C1894 C1893 1.349 . S
C1894 C1906 1.349 . S
C1895 C1893 1.327 . S
C1895 C1911 1.429 . S
C1895 H1917 0.950 . S
C1896 H1892 0.949 . S
C1896 C1904 1.574 . S
C1896 C1912 1.368 . S
H1897 C1905 0.950 . S
H1898 C1903 0.950 . S
H1899 C1904 0.949 . S
H1900 C1906 0.950 . S
H1901 C1907 0.950 . S
H1902 C1908 0.949 . S
C1903 H1898 0.950 . S
C1903 C1905 1.327 . S
C1903 C1909 1.429 . S
C1904 C1896 1.574 . S
C1904 H1899 0.949 . S
C1904 C1910 1.368 . S
C1905 C1889 1.349 . S
C1905 H1897 0.950 . S
C1905 C1903 1.327 . S
C1906 C1894 1.349 . S
C1906 H1900 0.950 . S
C1906 C1907 1.327 . S
C1907 H1901 0.950 . S
C1907 C1906 1.327 . S
C1907 C1911 1.429 . S
C1908 C1891 1.574 . S
C1908 H1902 0.949 . S
C1908 C1912 1.368 . S
C1909 C1890 1.429 . S
C1909 C1903 1.429 . S
C1909 C1910 1.523 . S
C1910 C1891 1.368 . S
C1910 C1904 1.368 . S
C1910 C1909 1.523 . S
C1911 C1895 1.429 . S
C1911 C1907 1.429 . S
C1911 C1912 1.523 . S
C1912 C1896 1.368 . S
C1912 C1908 1.368 . S
C1912 C1911 1.523 . S
H1913 C1888 0.950 . S
H1914 C1890 0.950 . S
H1915 C1891 0.949 . S
H1916 C1893 0.950 . S
H1917 C1895 0.950 . S
C1918 C1919 1.349 . S
C1918 C1920 1.327 . S
C1918 H1943 0.950 . S
C1919 C1918 1.349 . S
C1919 C1935 1.349 . S
C1920 C1918 1.327 . S
C1920 C1939 1.429 . S
C1920 H1944 0.950 . S
C1921 C1938 1.574 . S
C1921 C1940 1.368 . S
C1921 H1945 0.949 . S
H1922 C1926 0.949 . S
C1923 C1924 1.349 . S
C1923 C1925 1.327 1_554 S
C1923 H1946 0.950 . S
C1924 C1923 1.349 . S
C1924 C1936 1.349 . S
C1925 C1923 1.327 1_556 S
C1925 C1941 1.429 . S
C1925 H1947 0.950 . S
C1926 H1922 0.949 . S
C1926 C1934 1.574 . S
C1926 C1942 1.368 . S
H1927 C1935 0.950 . S
H1928 C1933 0.950 . S
H1929 C1934 0.949 . S
H1930 C1936 0.950 . S
H1931 C1937 0.950 . S
H1932 C1938 0.949 . S
C1933 H1928 0.950 . S
C1933 C1935 1.327 . S
C1933 C1939 1.429 . S
C1934 C1926 1.574 . S
C1934 H1929 0.949 . S
C1934 C1940 1.368 . S
C1935 C1919 1.349 . S
C1935 H1927 0.950 . S
C1935 C1933 1.327 . S
C1936 C1924 1.349 . S
C1936 H1930 0.950 . S
C1936 C1937 1.327 . S
C1937 H1931 0.950 . S
C1937 C1936 1.327 . S
C1937 C1941 1.429 1_554 S
C1938 C1921 1.574 . S
C1938 H1932 0.949 . S
C1938 C1942 1.368 . S
C1939 C1920 1.429 . S
C1939 C1933 1.429 . S
C1939 C1940 1.523 . S
C1940 C1921 1.368 . S
C1940 C1934 1.368 . S
C1940 C1939 1.523 . S
C1941 C1925 1.429 . S
C1941 C1937 1.429 1_556 S
C1941 C1942 1.523 . S
C1942 C1926 1.368 . S
C1942 C1938 1.368 . S
C1942 C1941 1.523 . S
H1943 C1918 0.950 . S
H1944 C1920 0.950 . S
H1945 C1921 0.949 . S
H1946 C1923 0.950 . S
H1947 C1925 0.950 . S
C1948 C1949 1.349 . S
C1948 C1950 1.327 . S
C1948 H1973 0.950 . S
C1949 C1948 1.349 . S
C1949 C1965 1.349 . S
C1950 C1948 1.327 . S
C1950 C1969 1.429 . S
C1950 H1974 0.950 . S
C1951 C1968 1.574 1_554 S
C1951 C1970 1.368 . S
C1951 H1975 0.949 . S
H1952 C1956 0.949 . S
C1953 C1954 1.349 . S
C1953 C1955 1.327 . S
C1953 H1976 0.950 . S
C1954 C1953 1.349 . S
C1954 C1966 1.349 . S
C1955 C1953 1.327 . S
C1955 C1971 1.429 . S
C1955 H1977 0.950 . S
C1956 H1952 0.949 . S
C1956 C1964 1.574 . S
C1956 C1972 1.368 . S
H1957 C1965 0.950 . S
H1958 C1963 0.950 . S
H1959 C1964 0.949 . S
H1960 C1966 0.950 . S
H1961 C1967 0.950 . S
H1962 C1968 0.949 . S
C1963 H1958 0.950 . S
C1963 C1965 1.327 . S
C1963 C1969 1.429 . S
C1964 C1956 1.574 . S
C1964 H1959 0.949 . S
C1964 C1970 1.368 1_556 S
C1965 C1949 1.349 . S
C1965 H1957 0.950 . S
C1965 C1963 1.327 . S
C1966 C1954 1.349 . S
C1966 H1960 0.950 . S
C1966 C1967 1.327 . S
C1967 H1961 0.950 . S
C1967 C1966 1.327 . S
C1967 C1971 1.429 . S
C1968 C1951 1.574 1_556 S
C1968 H1962 0.949 . S
C1968 C1972 1.368 . S
C1969 C1950 1.429 . S
C1969 C1963 1.429 . S
C1969 C1970 1.523 . S
C1970 C1951 1.368 . S
C1970 C1964 1.368 1_554 S
C1970 C1969 1.523 . S
C1971 C1955 1.429 . S
C1971 C1967 1.429 . S
C1971 C1972 1.523 . S
C1972 C1956 1.368 . S
C1972 C1968 1.368 . S
C1972 C1971 1.523 . S
H1973 C1948 0.950 . S
H1974 C1950 0.950 . S
H1975 C1951 0.949 . S
H1976 C1953 0.950 . S
H1977 C1955 0.950 . S
C1978 C1979 1.349 . S
C1978 C1980 1.327 . S
C1978 H2003 0.950 . S
C1979 C1978 1.349 . S
C1979 C1995 1.349 . S
C1980 C1978 1.327 . S
C1980 C1999 1.429 . S
C1980 H2004 0.950 . S
C1981 C1998 1.574 1_655 S
C1981 C2000 1.368 . S
C1981 H2005 0.949 . S
H1982 C1986 0.949 . S
C1983 C1984 1.349 . S
C1983 C1985 1.327 . S
C1983 H2006 0.950 . S
C1984 C1983 1.349 . S
C1984 C1996 1.349 . S
C1985 C1983 1.327 . S
C1985 C2001 1.429 . S
C1985 H2007 0.950 . S
C1986 H1982 0.949 . S
C1986 C1994 1.560 1_455 S
C1986 C2002 1.368 . S
H1987 C1995 0.950 . S
H1988 C1993 0.950 . S
H1989 C1994 0.950 . S
H1990 C1996 0.950 . S
H1991 C1997 0.950 . S
H1992 C1998 0.949 . S
C1993 H1988 0.950 . S
C1993 C1995 1.327 . S
C1993 C1999 1.429 . S
C1994 C1986 1.560 1_655 S
C1994 H1989 0.950 . S
C1994 C2000 1.381 . S
C1995 C1979 1.349 . S
C1995 H1987 0.950 . S
C1995 C1993 1.327 . S
C1996 C1984 1.349 . S
C1996 H1990 0.950 . S
C1996 C1997 1.327 . S
C1997 H1991 0.950 . S
C1997 C1996 1.327 . S
C1997 C2001 1.429 . S
C1998 C1981 1.574 1_455 S
C1998 H1992 0.949 . S
C1998 C2002 1.368 . S
C1999 C1980 1.429 . S
C1999 C1993 1.429 . S
C1999 C2000 1.523 . S
C2000 C1981 1.368 . S
C2000 C1994 1.381 . S
C2000 C1999 1.523 . S
C2001 C1985 1.429 . S
C2001 C1997 1.429 . S
C2001 C2002 1.523 . S
C2002 C1986 1.368 . S
C2002 C1998 1.368 . S
C2002 C2001 1.523 . S
H2003 C1978 0.950 . S
H2004 C1980 0.950 . S
H2005 C1981 0.949 . S
H2006 C1983 0.950 . S
H2007 C1985 0.950 . S
C2008 C2009 1.349 . S
C2008 C2010 1.327 . S
C2008 H2033 0.950 . S
C2009 C2008 1.349 . S
C2009 C2025 1.349 . S
C2010 C2008 1.327 . S
C2010 C2029 1.429 . S
C2010 H2034 0.950 . S
C2011 C2028 1.574 . S
C2011 C2030 1.368 1_554 S
C2011 H2035 0.949 . S
H2012 C2016 0.949 . S
C2013 C2014 1.349 . S
C2013 C2015 1.327 . S
C2013 H2036 0.950 . S
C2014 C2013 1.349 . S
C2014 C2026 1.349 . S
C2015 C2013 1.327 . S
C2015 C2031 1.429 . S
C2015 H2037 0.950 . S
C2016 H2012 0.949 . S
C2016 C2024 1.574 1_554 S
C2016 C2032 1.368 . S
H2017 C2025 0.950 . S
H2018 C2023 0.950 . S
H2019 C2024 0.949 . S
H2020 C2026 0.950 . S
H2021 C2027 0.950 . S
H2022 C2028 0.949 . S
C2023 H2018 0.950 . S
C2023 C2025 1.327 . S
C2023 C2029 1.429 . S
C2024 C2016 1.574 1_556 S
C2024 H2019 0.949 . S
C2024 C2030 1.368 . S
C2025 C2009 1.349 . S
C2025 H2017 0.950 . S
C2025 C2023 1.327 . S
C2026 C2014 1.349 . S
C2026 H2020 0.950 . S
C2026 C2027 1.327 . S
C2027 H2021 0.950 . S
C2027 C2026 1.327 . S
C2027 C2031 1.429 . S
C2028 C2011 1.574 . S
C2028 H2022 0.949 . S
C2028 C2032 1.368 . S
C2029 C2010 1.429 . S
C2029 C2023 1.429 . S
C2029 C2030 1.523 . S
C2030 C2011 1.368 1_556 S
C2030 C2024 1.368 . S
C2030 C2029 1.523 . S
C2031 C2015 1.429 . S
C2031 C2027 1.429 . S
C2031 C2032 1.523 . S
C2032 C2016 1.368 . S
C2032 C2028 1.368 . S
C2032 C2031 1.523 . S
H2033 C2008 0.950 . S
H2034 C2010 0.950 . S
H2035 C2011 0.949 . S
H2036 C2013 0.950 . S
H2037 C2015 0.950 . S
C2038 C2039 1.349 . S
C2038 C2040 1.327 . S
C2038 H2063 0.950 . S
C2039 C2038 1.349 . S
C2039 C2055 1.349 . S
C2040 C2038 1.327 . S
C2040 C2059 1.429 1_556 S
C2040 H2064 0.950 . S
C2041 C2058 1.574 1_655 S
C2041 C2060 1.368 . S
C2041 H2065 0.949 . S
H2042 C2046 0.949 . S
C2043 C2044 1.349 . S
C2043 C2045 1.327 . S
C2043 H2066 0.950 . S
C2044 C2043 1.349 . S
C2044 C2056 1.349 . S
C2045 C2043 1.327 . S
C2045 C2061 1.429 . S
C2045 H2067 0.950 . S
C2046 H2042 0.949 . S
C2046 C2054 1.545 1_455 S
C2046 C2062 1.368 . S
H2047 C2055 0.950 . S
H2048 C2053 0.950 . S
H2049 C2054 0.953 . S
H2050 C2056 0.950 . S
H2051 C2057 0.950 . S
H2052 C2058 0.949 . S
C2053 H2048 0.950 . S
C2053 C2055 1.327 1_554 S
C2053 C2059 1.429 . S
C2054 C2046 1.545 1_655 S
C2054 H2049 0.953 . S
C2054 C2060 1.394 . S
C2055 C2039 1.349 . S
C2055 H2047 0.950 . S
C2055 C2053 1.327 1_556 S
C2056 C2044 1.349 . S
C2056 H2050 0.950 . S
C2056 C2057 1.327 . S
C2057 H2051 0.950 . S
C2057 C2056 1.327 . S
C2057 C2061 1.429 . S
C2058 C2041 1.574 1_455 S
C2058 H2052 0.949 . S
C2058 C2062 1.368 . S
C2059 C2040 1.429 1_554 S
C2059 C2053 1.429 . S
C2059 C2060 1.523 . S
C2060 C2041 1.368 . S
C2060 C2054 1.394 . S
C2060 C2059 1.523 . S
C2061 C2045 1.429 . S
C2061 C2057 1.429 . S
C2061 C2062 1.523 . S
C2062 C2046 1.368 . S
C2062 C2058 1.368 . S
C2062 C2061 1.523 . S
H2063 C2038 0.950 . S
H2064 C2040 0.950 . S
H2065 C2041 0.949 . S
H2066 C2043 0.950 . S
H2067 C2045 0.950 . S
C2068 C2069 1.349 . S
C2068 C2070 1.327 . S
C2068 H2093 0.950 . S
C2069 C2068 1.349 . S
C2069 C2085 1.349 . S
C2070 C2068 1.327 . S
C2070 C2089 1.429 . S
C2070 H2094 0.950 . S
C2071 C2088 1.574 . S
C2071 C2090 1.368 . S
C2071 H2095 0.949 . S
H2072 C2076 0.949 . S
C2073 C2074 1.349 . S
C2073 C2075 1.327 . S
C2073 H2096 0.950 . S
C2074 C2073 1.349 . S
C2074 C2086 1.349 . S
C2075 C2073 1.327 . S
C2075 C2091 1.429 . S
C2075 H2097 0.950 . S
C2076 H2072 0.949 . S
C2076 C2084 1.574 . S
C2076 C2092 1.368 . S
H2077 C2085 0.950 . S
H2078 C2083 0.950 . S
H2079 C2084 0.949 . S
H2080 C2086 0.950 . S
H2081 C2087 0.950 . S
H2082 C2088 0.949 . S
C2083 H2078 0.950 . S
C2083 C2085 1.327 . S
C2083 C2089 1.429 . S
C2084 C2076 1.574 . S
C2084 H2079 0.949 . S
C2084 C2090 1.368 . S
C2085 C2069 1.349 . S
C2085 H2077 0.950 . S
C2085 C2083 1.327 . S
C2086 C2074 1.349 . S
C2086 H2080 0.950 . S
C2086 C2087 1.327 . S
C2087 H2081 0.950 . S
C2087 C2086 1.327 . S
C2087 C2091 1.429 . S
C2088 C2071 1.574 . S
C2088 H2082 0.949 . S
C2088 C2092 1.368 . S
C2089 C2070 1.429 . S
C2089 C2083 1.429 . S
C2089 C2090 1.523 . S
C2090 C2071 1.368 . S
C2090 C2084 1.368 . S
C2090 C2089 1.523 . S
C2091 C2075 1.429 . S
C2091 C2087 1.429 . S
C2091 C2092 1.523 . S
C2092 C2076 1.368 . S
C2092 C2088 1.368 . S
C2092 C2091 1.523 . S
H2093 C2068 0.950 . S
H2094 C2070 0.950 . S
H2095 C2071 0.949 . S
H2096 C2073 0.950 . S
H2097 C2075 0.950 . S
C2098 C2099 1.349 . S
C2098 C2100 1.327 . S
C2098 H2123 0.950 . S
C2099 C2098 1.349 . S
C2099 C2115 1.349 . S
C2100 C2098 1.327 . S
C2100 C2119 1.429 . S
C2100 H2124 0.950 . S
C2101 C2118 1.574 . S
C2101 C2120 1.368 . S
C2101 H2125 0.949 . S
H2102 C2106 0.949 . S
C2103 C2104 1.349 . S
C2103 C2105 1.327 . S
C2103 H2126 0.950 . S
C2104 C2103 1.349 . S
C2104 C2116 1.349 . S
C2105 C2103 1.327 . S
C2105 C2121 1.429 . S
C2105 H2127 0.950 . S
C2106 H2102 0.949 . S
C2106 C2114 1.574 . S
C2106 C2122 1.368 . S
H2107 C2115 0.950 . S
H2108 C2113 0.950 . S
H2109 C2114 0.949 . S
H2110 C2116 0.950 . S
H2111 C2117 0.950 . S
H2112 C2118 0.949 . S
C2113 H2108 0.950 . S
C2113 C2115 1.327 . S
C2113 C2119 1.429 . S
C2114 C2106 1.574 . S
C2114 H2109 0.949 . S
C2114 C2120 1.368 . S
C2115 C2099 1.349 . S
C2115 H2107 0.950 . S
C2115 C2113 1.327 . S
C2116 C2104 1.349 . S
C2116 H2110 0.950 . S
C2116 C2117 1.327 . S
C2117 H2111 0.950 . S
C2117 C2116 1.327 . S
C2117 C2121 1.429 . S
C2118 C2101 1.574 . S
C2118 H2112 0.949 . S
C2118 C2122 1.368 . S
C2119 C2100 1.429 . S
C2119 C2113 1.429 . S
C2119 C2120 1.523 . S
C2120 C2101 1.368 . S
C2120 C2114 1.368 . S
C2120 C2119 1.523 . S
C2121 C2105 1.429 . S
C2121 C2117 1.429 . S
C2121 C2122 1.523 . S
C2122 C2106 1.368 . S
C2122 C2118 1.368 . S
C2122 C2121 1.523 . S
H2123 C2098 0.950 . S
H2124 C2100 0.950 . S
H2125 C2101 0.949 . S
H2126 C2103 0.950 . S
H2127 C2105 0.950 . S
C2128 C2129 1.349 . S
C2128 C2130 1.327 . S
C2128 H2153 0.950 . S
C2129 C2128 1.349 . S
C2129 C2145 1.349 . S
C2130 C2128 1.327 . S
C2130 C2149 1.429 . S
C2130 H2154 0.950 . S
C2131 C2148 1.574 . S
C2131 C2150 1.368 . S
C2131 H2155 0.949 . S
H2132 C2136 0.949 . S
C2133 C2134 1.349 . S
C2133 C2135 1.327 . S
C2133 H2156 0.950 . S
C2134 C2133 1.349 . S
C2134 C2146 1.349 . S
C2135 C2133 1.327 . S
C2135 C2151 1.429 . S
C2135 H2157 0.950 . S
C2136 H2132 0.949 . S
C2136 C2144 1.574 . S
C2136 C2152 1.368 . S
H2137 C2145 0.950 . S
H2138 C2143 0.950 . S
H2139 C2144 0.949 . S
H2140 C2146 0.950 . S
H2141 C2147 0.950 . S
H2142 C2148 0.949 . S
C2143 H2138 0.950 . S
C2143 C2145 1.327 . S
C2143 C2149 1.429 . S
C2144 C2136 1.574 . S
C2144 H2139 0.949 . S
C2144 C2150 1.368 . S
C2145 C2129 1.349 . S
C2145 H2137 0.950 . S
C2145 C2143 1.327 . S
C2146 C2134 1.349 . S
C2146 H2140 0.950 . S
C2146 C2147 1.327 . S
C2147 H2141 0.950 . S
C2147 C2146 1.327 . S
C2147 C2151 1.429 . S
C2148 C2131 1.574 . S
C2148 H2142 0.949 . S
C2148 C2152 1.368 . S
C2149 C2130 1.429 . S
C2149 C2143 1.429 . S
C2149 C2150 1.523 . S
C2150 C2131 1.368 . S
C2150 C2144 1.368 . S
C2150 C2149 1.523 . S
C2151 C2135 1.429 . S
C2151 C2147 1.429 . S
C2151 C2152 1.523 . S
C2152 C2136 1.368 . S
C2152 C2148 1.368 . S
C2152 C2151 1.523 . S
H2153 C2128 0.950 . S
H2154 C2130 0.950 . S
H2155 C2131 0.949 . S
H2156 C2133 0.950 . S
H2157 C2135 0.950 . S
C2158 C2159 1.349 . S
C2158 C2160 1.327 . S
C2158 H2183 0.950 . S
C2159 C2158 1.349 . S
C2159 C2175 1.349 . S
C2160 C2158 1.327 . S
C2160 C2179 1.429 . S
C2160 H2184 0.950 . S
C2161 C2178 1.574 . S
C2161 C2180 1.368 . S
C2161 H2185 0.949 . S
H2162 C2166 0.949 . S
C2163 C2164 1.349 . S
C2163 C2165 1.327 1_556 S
C2163 H2186 0.950 . S
C2164 C2163 1.349 . S
C2164 C2176 1.349 . S
C2165 C2163 1.327 1_554 S
C2165 C2181 1.429 . S
C2165 H2187 0.950 . S
C2166 H2162 0.949 . S
C2166 C2174 1.574 . S
C2166 C2182 1.368 . S
H2167 C2175 0.950 . S
H2168 C2173 0.950 . S
H2169 C2174 0.949 . S
H2170 C2176 0.950 . S
H2171 C2177 0.950 . S
H2172 C2178 0.949 . S
C2173 H2168 0.950 . S
C2173 C2175 1.327 . S
C2173 C2179 1.429 . S
C2174 C2166 1.574 . S
C2174 H2169 0.949 . S
C2174 C2180 1.368 . S
C2175 C2159 1.349 . S
C2175 H2167 0.950 . S
C2175 C2173 1.327 . S
C2176 C2164 1.349 . S
C2176 H2170 0.950 . S
C2176 C2177 1.327 . S
C2177 H2171 0.950 . S
C2177 C2176 1.327 . S
C2177 C2181 1.429 1_556 S
C2178 C2161 1.574 . S
C2178 H2172 0.949 . S
C2178 C2182 1.368 . S
C2179 C2160 1.429 . S
C2179 C2173 1.429 . S
C2179 C2180 1.523 . S
C2180 C2161 1.368 . S
C2180 C2174 1.368 . S
C2180 C2179 1.523 . S
C2181 C2165 1.429 . S
C2181 C2177 1.429 1_554 S
C2181 C2182 1.523 . S
C2182 C2166 1.368 . S
C2182 C2178 1.368 . S
C2182 C2181 1.523 . S
H2183 C2158 0.950 . S
H2184 C2160 0.950 . S
H2185 C2161 0.949 . S
H2186 C2163 0.950 . S
H2187 C2165 0.950 . S
C2188 C2189 1.349 . S
C2188 C2190 1.327 . S
C2188 H2213 0.950 . S
C2189 C2188 1.349 . S
C2189 C2205 1.349 . S
C2190 C2188 1.327 . S
C2190 C2209 1.429 . S
C2190 H2214 0.950 . S
C2191 C2208 1.574 . S
C2191 C2210 1.368 . S
C2191 H2215 0.949 . S
H2192 C2196 0.949 . S
C2193 C2194 1.349 . S
C2193 C2195 1.327 . S
C2193 H2216 0.950 . S
C2194 C2193 1.349 . S
C2194 C2206 1.349 . S
C2195 C2193 1.327 . S
C2195 C2211 1.429 . S
C2195 H2217 0.950 . S
C2196 H2192 0.949 . S
C2196 C2204 1.574 1_556 S
C2196 C2212 1.368 . S
H2197 C2205 0.950 . S
H2198 C2203 0.950 . S
H2199 C2204 0.949 . S
H2200 C2206 0.950 . S
H2201 C2207 0.950 . S
H2202 C2208 0.949 . S
C2203 H2198 0.950 . S
C2203 C2205 1.327 . S
C2203 C2209 1.429 . S
C2204 C2196 1.574 1_554 S
C2204 H2199 0.949 . S
C2204 C2210 1.368 . S
C2205 C2189 1.349 . S
C2205 H2197 0.950 . S
C2205 C2203 1.327 . S
C2206 C2194 1.349 . S
C2206 H2200 0.950 . S
C2206 C2207 1.327 . S
C2207 H2201 0.950 . S
C2207 C2206 1.327 . S
C2207 C2211 1.429 . S
C2208 C2191 1.574 . S
C2208 H2202 0.949 . S
C2208 C2212 1.368 1_554 S
C2209 C2190 1.429 . S
C2209 C2203 1.429 . S
C2209 C2210 1.523 . S
C2210 C2191 1.368 . S
C2210 C2204 1.368 . S
C2210 C2209 1.523 . S
C2211 C2195 1.429 . S
C2211 C2207 1.429 . S
C2211 C2212 1.523 . S
C2212 C2196 1.368 . S
C2212 C2208 1.368 1_556 S
C2212 C2211 1.523 . S
H2213 C2188 0.950 . S
H2214 C2190 0.950 . S
H2215 C2191 0.949 . S
H2216 C2193 0.950 . S
H2217 C2195 0.950 . S
C2218 C2219 1.349 . S
C2218 C2220 1.327 . S
C2218 H2243 0.950 . S
C2219 C2218 1.349 . S
C2219 C2235 1.349 . S
C2220 C2218 1.327 . S
C2220 C2239 1.429 . S
C2220 H2244 0.950 . S
C2221 C2238 1.574 1_455 S
C2221 C2240 1.368 . S
C2221 H2245 0.949 . S
H2222 C2226 0.949 . S
C2223 C2224 1.349 . S
C2223 C2225 1.327 . S
C2223 H2246 0.950 . S
C2224 C2223 1.349 . S
C2224 C2236 1.349 . S
C2225 C2223 1.327 . S
C2225 C2241 1.429 . S
C2225 H2247 0.950 . S
C2226 H2222 0.949 . S
C2226 C2234 1.550 1_655 S
C2226 C2242 1.368 . S
H2227 C2235 0.950 . S
H2228 C2233 0.950 . S
H2229 C2234 0.952 . S
H2230 C2236 0.950 . S
H2231 C2237 0.950 . S
H2232 C2238 0.949 . S
C2233 H2228 0.950 . S
C2233 C2235 1.327 . S
C2233 C2239 1.429 . S
C2234 C2226 1.550 1_455 S
C2234 H2229 0.952 . S
C2234 C2240 1.390 . S
C2235 C2219 1.349 . S
C2235 H2227 0.950 . S
C2235 C2233 1.327 . S
C2236 C2224 1.349 . S
C2236 H2230 0.950 . S
C2236 C2237 1.327 . S
C2237 H2231 0.950 . S
C2237 C2236 1.327 . S
C2237 C2241 1.429 . S
C2238 C2221 1.574 1_655 S
C2238 H2232 0.949 . S
C2238 C2242 1.368 . S
C2239 C2220 1.429 . S
C2239 C2233 1.429 . S
C2239 C2240 1.523 . S
C2240 C2221 1.368 . S
C2240 C2234 1.390 . S
C2240 C2239 1.523 . S
C2241 C2225 1.429 . S
C2241 C2237 1.429 . S
C2241 C2242 1.523 . S
C2242 C2226 1.368 . S
C2242 C2238 1.368 . S
C2242 C2241 1.523 . S
H2243 C2218 0.950 . S
H2244 C2220 0.950 . S
H2245 C2221 0.949 . S
H2246 C2223 0.950 . S
H2247 C2225 0.950 . S
C2248 C2249 1.349 . S
C2248 C2250 1.327 . S
C2248 H2273 0.950 . S
C2249 C2248 1.349 . S
C2249 C2265 1.349 . S
C2250 C2248 1.327 . S
C2250 C2269 1.429 . S
C2250 H2274 0.950 . S
C2251 C2268 1.574 1_554 S
C2251 C2270 1.368 . S
C2251 H2275 0.949 . S
H2252 C2256 0.949 . S
C2253 C2254 1.349 . S
C2253 C2255 1.327 . S
C2253 H2276 0.950 . S
C2254 C2253 1.349 . S
C2254 C2266 1.349 . S
C2255 C2253 1.327 . S
C2255 C2271 1.429 . S
C2255 H2277 0.950 . S
C2256 H2252 0.949 . S
C2256 C2264 1.574 . S
C2256 C2272 1.368 . S
H2257 C2265 0.950 . S
H2258 C2263 0.950 . S
H2259 C2264 0.949 . S
H2260 C2266 0.950 . S
H2261 C2267 0.950 . S
H2262 C2268 0.949 . S
C2263 H2258 0.950 . S
C2263 C2265 1.327 . S
C2263 C2269 1.429 . S
C2264 C2256 1.574 . S
C2264 H2259 0.949 . S
C2264 C2270 1.368 1_556 S
C2265 C2249 1.349 . S
C2265 H2257 0.950 . S
C2265 C2263 1.327 . S
C2266 C2254 1.349 . S
C2266 H2260 0.950 . S
C2266 C2267 1.327 . S
C2267 H2261 0.950 . S
C2267 C2266 1.327 . S
C2267 C2271 1.429 . S
C2268 C2251 1.574 1_556 S
C2268 H2262 0.949 . S
C2268 C2272 1.368 . S
C2269 C2250 1.429 . S
C2269 C2263 1.429 . S
C2269 C2270 1.523 . S
C2270 C2251 1.368 . S
C2270 C2264 1.368 1_554 S
C2270 C2269 1.523 . S
C2271 C2255 1.429 . S
C2271 C2267 1.429 . S
C2271 C2272 1.523 . S
C2272 C2256 1.368 . S
C2272 C2268 1.368 . S
C2272 C2271 1.523 . S
H2273 C2248 0.950 . S
H2274 C2250 0.950 . S
H2275 C2251 0.949 . S
H2276 C2253 0.950 . S
H2277 C2255 0.950 . S
C2278 C2279 1.349 . S
C2278 C2280 1.327 . S
C2278 H2303 0.950 . S
C2279 C2278 1.349 . S
C2279 C2295 1.349 . S
C2280 C2278 1.327 . S
C2280 C2299 1.429 . S
C2280 H2304 0.950 . S
C2281 C2298 1.574 1_655 S
C2281 C2300 1.368 . S
C2281 H2305 0.949 . S
H2282 C2286 0.951 . S
C2283 C2284 1.349 . S
C2283 C2285 1.327 1_554 S
C2283 H2306 0.950 . S
C2284 C2283 1.349 . S
C2284 C2296 1.349 . S
C2285 C2283 1.327 1_556 S
C2285 C2301 1.429 . S
C2285 H2307 0.950 . S
C2286 H2282 0.951 . S
C2286 C2294 1.556 1_455 S
C2286 C2302 1.385 . S
H2287 C2295 0.950 . S
H2288 C2293 0.950 . S
H2289 C2294 0.949 . S
H2290 C2296 0.950 . S
H2291 C2297 0.950 . S
H2292 C2298 0.949 . S
C2293 H2288 0.950 . S
C2293 C2295 1.327 . S
C2293 C2299 1.429 . S
C2294 C2286 1.556 1_655 S
C2294 H2289 0.949 . S
C2294 C2300 1.368 . S
C2295 C2279 1.349 . S
C2295 H2287 0.950 . S
C2295 C2293 1.327 . S
C2296 C2284 1.349 . S
C2296 H2290 0.950 . S
C2296 C2297 1.327 . S
C2297 H2291 0.950 . S
C2297 C2296 1.327 . S
C2297 C2301 1.429 1_554 S
C2298 C2281 1.574 1_455 S
C2298 H2292 0.949 . S
C2298 C2302 1.368 . S
C2299 C2280 1.429 . S
C2299 C2293 1.429 . S
C2299 C2300 1.523 . S
C2300 C2281 1.368 . S
C2300 C2294 1.368 . S
C2300 C2299 1.523 . S
C2301 C2285 1.429 . S
C2301 C2297 1.429 1_556 S
C2301 C2302 1.523 . S
C2302 C2286 1.385 . S
C2302 C2298 1.368 . S
C2302 C2301 1.523 . S
H2303 C2278 0.950 . S
H2304 C2280 0.950 . S
H2305 C2281 0.949 . S
H2306 C2283 0.950 . S
H2307 C2285 0.950 . S
C2308 C2309 1.349 . S
C2308 C2310 1.327 . S
C2308 H2333 0.950 . S
C2309 C2308 1.349 . S
C2309 C2325 1.349 . S
C2310 C2308 1.327 . S
C2310 C2329 1.429 . S
C2310 H2334 0.950 . S
C2311 C2328 1.574 . S
C2311 C2330 1.368 . S
C2311 H2335 0.949 . S
H2312 C2316 0.949 . S
C2313 C2314 1.349 . S
C2313 C2315 1.327 . S
C2313 H2336 0.950 . S
C2314 C2313 1.349 . S
C2314 C2326 1.349 . S
C2315 C2313 1.327 . S
C2315 C2331 1.429 . S
C2315 H2337 0.950 . S
C2316 H2312 0.949 . S
C2316 C2324 1.574 . S
C2316 C2332 1.368 . S
H2317 C2325 0.950 . S
H2318 C2323 0.950 . S
H2319 C2324 0.949 . S
H2320 C2326 0.950 . S
H2321 C2327 0.950 . S
H2322 C2328 0.949 . S
C2323 H2318 0.950 . S
C2323 C2325 1.327 . S
C2323 C2329 1.429 . S
C2324 C2316 1.574 . S
C2324 H2319 0.949 . S
C2324 C2330 1.368 . S
C2325 C2309 1.349 . S
C2325 H2317 0.950 . S
C2325 C2323 1.327 . S
C2326 C2314 1.349 . S
C2326 H2320 0.950 . S
C2326 C2327 1.327 . S
C2327 H2321 0.950 . S
C2327 C2326 1.327 . S
C2327 C2331 1.429 . S
C2328 C2311 1.574 . S
C2328 H2322 0.949 . S
C2328 C2332 1.368 . S
C2329 C2310 1.429 . S
C2329 C2323 1.429 . S
C2329 C2330 1.523 . S
C2330 C2311 1.368 . S
C2330 C2324 1.368 . S
C2330 C2329 1.523 . S
C2331 C2315 1.429 . S
C2331 C2327 1.429 . S
C2331 C2332 1.523 . S
C2332 C2316 1.368 . S
C2332 C2328 1.368 . S
C2332 C2331 1.523 . S
H2333 C2308 0.950 . S
H2334 C2310 0.950 . S
H2335 C2311 0.949 . S
H2336 C2313 0.950 . S
H2337 C2315 0.950 . S
C2338 C2339 1.349 . S
C2338 C2340 1.327 . S
C2338 H2363 0.950 . S
C2339 C2338 1.349 . S
C2339 C2355 1.349 . S
C2340 C2338 1.327 . S
C2340 C2359 1.429 . S
C2340 H2364 0.950 . S
C2341 C2358 1.574 . S
C2341 C2360 1.368 . S
C2341 H2365 0.949 . S
H2342 C2346 0.949 . S
C2343 C2344 1.349 . S
C2343 C2345 1.327 . S
C2343 H2366 0.950 . S
C2344 C2343 1.349 . S
C2344 C2356 1.349 . S
C2345 C2343 1.327 . S
C2345 C2361 1.429 . S
C2345 H2367 0.950 . S
C2346 H2342 0.949 . S
C2346 C2354 1.574 . S
C2346 C2362 1.368 . S
H2347 C2355 0.950 . S
H2348 C2353 0.950 . S
H2349 C2354 0.949 . S
H2350 C2356 0.950 . S
H2351 C2357 0.950 . S
H2352 C2358 0.949 . S
C2353 H2348 0.950 . S
C2353 C2355 1.327 . S
C2353 C2359 1.429 . S
C2354 C2346 1.574 . S
C2354 H2349 0.949 . S
C2354 C2360 1.368 . S
C2355 C2339 1.349 . S
C2355 H2347 0.950 . S
C2355 C2353 1.327 . S
C2356 C2344 1.349 . S
C2356 H2350 0.950 . S
C2356 C2357 1.327 . S
C2357 H2351 0.950 . S
C2357 C2356 1.327 . S
C2357 C2361 1.429 . S
C2358 C2341 1.574 . S
C2358 H2352 0.949 . S
C2358 C2362 1.368 . S
C2359 C2340 1.429 . S
C2359 C2353 1.429 . S
C2359 C2360 1.523 . S
C2360 C2341 1.368 . S
C2360 C2354 1.368 . S
C2360 C2359 1.523 . S
C2361 C2345 1.429 . S
C2361 C2357 1.429 . S
C2361 C2362 1.523 . S
C2362 C2346 1.368 . S
C2362 C2358 1.368 . S
C2362 C2361 1.523 . S
H2363 C2338 0.950 . S
H2364 C2340 0.950 . S
H2365 C2341 0.949 . S
H2366 C2343 0.950 . S
H2367 C2345 0.950 . S
C449 C87 2.090 . S
C454 C3 2.090 . S
C479 C17 1.317 . S
C484 C101 1.317 . S
C509 C59 2.089 . S
C514 C31 2.089 . S
C539 C45 1.317 . S
C544 C73 1.317 . S
C569 C199 2.090 . S
C574 C115 2.090 . S
C599 C129 1.317 . S
C604 C213 1.317 . S
C629 C171 2.089 . S
C634 C143 2.089 . S
C659 C157 1.317 . S
C664 C185 1.317 . S
C689 C227 2.090 . S
C694 C311 2.090 . S
C719 C325 1.317 . S
C724 C241 1.317 . S
C749 C255 2.090 . S
C754 C283 2.090 . S
C779 C297 1.317 . S
C784 C269 1.317 . S
C809 C423 2.090 . S
C814 C339 2.090 . S
C839 C437 1.317 . S
C844 C353 1.317 . S
C869 C395 2.090 . S
C874 C367 2.090 . S
C899 C381 1.317 . S
C904 C409 1.317 . S
C929 C106 1.258 . S
C934 C8 1.261 . S
C959 C64 1.261 . S
C964 C22 1.258 . S
C989 C78 1.258 . S
C994 C36 1.261 . S
C1019 C92 1.261 . S
C1024 C50 1.258 . S
C1049 C218 1.258 . S
C1054 C120 1.261 . S
C1079 C176 1.261 . S
C1084 C134 1.258 . S
C1109 C190 1.258 . S
C1114 C148 1.261 . S
C1139 C162 1.258 . S
C1144 C204 1.261 . S
C1169 C330 1.258 . S
C1174 C232 1.261 . S
C1199 C246 1.257 . S
C1204 C288 1.260 . S
C1229 C260 1.260 . S
C1234 C302 1.257 . S
C1259 C316 1.261 . S
C1264 C274 1.258 . S
C1289 C442 1.258 . S
C1294 C344 1.261 . S
C1319 C358 1.257 . S
C1324 C400 1.260 . S
C1349 C372 1.260 . S
C1354 C414 1.257 . S
C1379 C428 1.261 . S
C1384 C386 1.258 . S
C1409 C7 1.803 . S
C1414 C429 1.891 . S
C1439 C219 1.136 . S
C1444 C21 1.134 . S
C1469 C401 1.891 . S
C1474 C35 1.802 . S
C1499 C191 1.135 . S
C1504 C49 1.133 . S
C1529 C373 1.891 . S
C1534 C63 1.802 . S
C1559 C77 1.134 . S
C1564 C163 1.136 . S
C1589 C91 1.802 . S
C1594 C345 1.891 . S
C1619 C105 1.134 . S
C1624 C135 1.135 . S
C1649 C119 1.802 . S
C1654 C317 1.891 . S
C1679 C107 1.136 . S
C1684 C133 1.134 . S
C1709 C289 1.891 . S
C1714 C147 1.802 . S
C1739 C79 1.135 . S
C1744 C161 1.133 . S
C1769 C261 1.891 . S
C1774 C175 1.802 . S
C1799 C51 1.136 . S
C1804 C189 1.134 . S
C1829 C203 1.802 . S
C1834 C233 1.891 . S
C1859 C23 1.135 . S
C1864 C217 1.133 . S
C1889 C205 1.891 . S
C1894 C231 1.803 . S
C1919 C443 1.135 . S
C1924 C245 1.134 . S
C1949 C259 1.803 . S
C1954 C177 1.891 . S
C1979 C273 1.134 . S
C1984 C415 1.136 . S
C2009 C287 1.803 . S
C2014 C149 1.891 . S
C2039 C301 1.134 . S
C2044 C387 1.136 . S
C2069 C315 1.803 . S
C2074 C121 1.891 . S
C2099 C329 1.134 . S
C2104 C359 1.136 . S
C2129 C93 1.891 . S
C2134 C343 1.802 . S
C2159 C331 1.135 . S
C2164 C357 1.134 . S
C2189 C65 1.891 . S
C2194 C371 1.803 . S
C2219 C385 1.134 . S
C2224 C303 1.136 . S
C2249 C399 1.803 . S
C2254 C37 1.891 . S
C2279 C275 1.136 . S
C2284 C413 1.134 . S
C2309 C427 1.803 . S
C2314 C9 1.891 . S
C2339 C441 1.134 . S
C2344 C247 1.136 . S
