# Generated by pormake.
# Topology nfb, (4)-cn, num edge types: 1
# Building blocks:
#     Node 0, Type 0, BuildingBlock: GALJAG_clean_sbu_0, # of connection points: 4
#     Node 1, Type 0, BuildingBlock: GALJAG_clean_sbu_0, # of connection points: 4
#     Node 2, Type 0, BuildingBlock: GALJAG_clean_sbu_0, # of connection points: 4
#     Node 3, Type 0, BuildingBlock: GALJAG_clean_sbu_0, # of connection points: 4
#     Node 4, Type 0, BuildingBlock: GALJAG_clean_sbu_0, # of connection points: 4
#     Node 5, Type 0, BuildingBlock: GALJAG_clean_sbu_0, # of connection points: 4
#     Node 6, Type 0, BuildingBlock: GALJAG_clean_sbu_0, # of connection points: 4
#     Node 7, Type 0, BuildingBlock: GALJAG_clean_sbu_0, # of connection points: 4
#     Node 8, Type 0, BuildingBlock: GALJAG_clean_sbu_0, # of connection points: 4
#     Node 9, Type 0, BuildingBlock: GALJAG_clean_sbu_0, # of connection points: 4
#     Node 10, Type 0, BuildingBlock: GALJAG_clean_sbu_0, # of connection points: 4
#     Node 11, Type 0, BuildingBlock: GALJAG_clean_sbu_0, # of connection points: 4
#     Node 12, Type 0, BuildingBlock: GALJAG_clean_sbu_0, # of connection points: 4
#     Node 13, Type 0, BuildingBlock: GALJAG_clean_sbu_0, # of connection points: 4
#     Node 14, Type 0, BuildingBlock: GALJAG_clean_sbu_0, # of connection points: 4
#     Node 15, Type 0, BuildingBlock: GALJAG_clean_sbu_0, # of connection points: 4
#     Node 16, Type 0, BuildingBlock: GALJAG_clean_sbu_0, # of connection points: 4
#     Node 17, Type 0, BuildingBlock: GALJAG_clean_sbu_0, # of connection points: 4
#     Node 18, Type 0, BuildingBlock: GALJAG_clean_sbu_0, # of connection points: 4
#     Node 19, Type 0, BuildingBlock: GALJAG_clean_sbu_0, # of connection points: 4
#     Node 20, Type 0, BuildingBlock: GALJAG_clean_sbu_0, # of connection points: 4
#     Node 21, Type 0, BuildingBlock: GALJAG_clean_sbu_0, # of connection points: 4
#     Node 22, Type 0, BuildingBlock: GALJAG_clean_sbu_0, # of connection points: 4
#     Node 23, Type 0, BuildingBlock: GALJAG_clean_sbu_0, # of connection points: 4
#     Node 24, Type 0, BuildingBlock: GALJAG_clean_sbu_0, # of connection points: 4
#     Node 25, Type 0, BuildingBlock: GALJAG_clean_sbu_0, # of connection points: 4
#     Node 26, Type 0, BuildingBlock: GALJAG_clean_sbu_0, # of connection points: 4
#     Node 27, Type 0, BuildingBlock: GALJAG_clean_sbu_0, # of connection points: 4
#     Node 28, Type 0, BuildingBlock: GALJAG_clean_sbu_0, # of connection points: 4
#     Node 29, Type 0, BuildingBlock: GALJAG_clean_sbu_0, # of connection points: 4
#     Node 30, Type 0, BuildingBlock: GALJAG_clean_sbu_0, # of connection points: 4
#     Node 31, Type 0, BuildingBlock: GALJAG_clean_sbu_0, # of connection points: 4
#     Node 32, Type 0, BuildingBlock: GALJAG_clean_sbu_0, # of connection points: 4
#     Node 33, Type 0, BuildingBlock: GALJAG_clean_sbu_0, # of connection points: 4
#     Node 34, Type 0, BuildingBlock: GALJAG_clean_sbu_0, # of connection points: 4
#     Node 35, Type 0, BuildingBlock: GALJAG_clean_sbu_0, # of connection points: 4
#     Node 36, Type 0, BuildingBlock: GALJAG_clean_sbu_0, # of connection points: 4
#     Node 37, Type 0, BuildingBlock: GALJAG_clean_sbu_0, # of connection points: 4
#     Node 38, Type 0, BuildingBlock: GALJAG_clean_sbu_0, # of connection points: 4
#     Node 39, Type 0, BuildingBlock: GALJAG_clean_sbu_0, # of connection points: 4
#     Node 40, Type 0, BuildingBlock: GALJAG_clean_sbu_0, # of connection points: 4
#     Node 41, Type 0, BuildingBlock: GALJAG_clean_sbu_0, # of connection points: 4
#     Node 42, Type 0, BuildingBlock: GALJAG_clean_sbu_0, # of connection points: 4
#     Node 43, Type 0, BuildingBlock: GALJAG_clean_sbu_0, # of connection points: 4
#     Node 44, Type 0, BuildingBlock: GALJAG_clean_sbu_0, # of connection points: 4
#     Node 45, Type 0, BuildingBlock: GALJAG_clean_sbu_0, # of connection points: 4
#     Node 46, Type 0, BuildingBlock: GALJAG_clean_sbu_0, # of connection points: 4
#     Node 47, Type 0, BuildingBlock: GALJAG_clean_sbu_0, # of connection points: 4
#     Edge 48, Type (0, 0), BuildingBlock: OJICUG_clean_linker_0, # of connection points: 2
#     Edge 49, Type (0, 0), BuildingBlock: OJICUG_clean_linker_0, # of connection points: 2
#     Edge 50, Type (0, 0), BuildingBlock: OJICUG_clean_linker_0, # of connection points: 2
#     Edge 51, Type (0, 0), BuildingBlock: OJICUG_clean_linker_0, # of connection points: 2
#     Edge 52, Type (0, 0), BuildingBlock: OJICUG_clean_linker_0, # of connection points: 2
#     Edge 53, Type (0, 0), BuildingBlock: OJICUG_clean_linker_0, # of connection points: 2
#     Edge 54, Type (0, 0), BuildingBlock: OJICUG_clean_linker_0, # of connection points: 2
#     Edge 55, Type (0, 0), BuildingBlock: OJICUG_clean_linker_0, # of connection points: 2
#     Edge 56, Type (0, 0), BuildingBlock: OJICUG_clean_linker_0, # of connection points: 2
#     Edge 57, Type (0, 0), BuildingBlock: OJICUG_clean_linker_0, # of connection points: 2
#     Edge 58, Type (0, 0), BuildingBlock: OJICUG_clean_linker_0, # of connection points: 2
#     Edge 59, Type (0, 0), BuildingBlock: OJICUG_clean_linker_0, # of connection points: 2
#     Edge 60, Type (0, 0), BuildingBlock: OJICUG_clean_linker_0, # of connection points: 2
#     Edge 61, Type (0, 0), BuildingBlock: OJICUG_clean_linker_0, # of connection points: 2
#     Edge 62, Type (0, 0), BuildingBlock: OJICUG_clean_linker_0, # of connection points: 2
#     Edge 63, Type (0, 0), BuildingBlock: OJICUG_clean_linker_0, # of connection points: 2
#     Edge 64, Type (0, 0), BuildingBlock: OJICUG_clean_linker_0, # of connection points: 2
#     Edge 65, Type (0, 0), BuildingBlock: OJICUG_clean_linker_0, # of connection points: 2
#     Edge 66, Type (0, 0), BuildingBlock: OJICUG_clean_linker_0, # of connection points: 2
#     Edge 67, Type (0, 0), BuildingBlock: OJICUG_clean_linker_0, # of connection points: 2
#     Edge 68, Type (0, 0), BuildingBlock: OJICUG_clean_linker_0, # of connection points: 2
#     Edge 69, Type (0, 0), BuildingBlock: OJICUG_clean_linker_0, # of connection points: 2
#     Edge 70, Type (0, 0), BuildingBlock: OJICUG_clean_linker_0, # of connection points: 2
#     Edge 71, Type (0, 0), BuildingBlock: OJICUG_clean_linker_0, # of connection points: 2
#     Edge 72, Type (0, 0), BuildingBlock: OJICUG_clean_linker_0, # of connection points: 2
#     Edge 73, Type (0, 0), BuildingBlock: OJICUG_clean_linker_0, # of connection points: 2
#     Edge 74, Type (0, 0), BuildingBlock: OJICUG_clean_linker_0, # of connection points: 2
#     Edge 75, Type (0, 0), BuildingBlock: OJICUG_clean_linker_0, # of connection points: 2
#     Edge 76, Type (0, 0), BuildingBlock: OJICUG_clean_linker_0, # of connection points: 2
#     Edge 77, Type (0, 0), BuildingBlock: OJICUG_clean_linker_0, # of connection points: 2
#     Edge 78, Type (0, 0), BuildingBlock: OJICUG_clean_linker_0, # of connection points: 2
#     Edge 79, Type (0, 0), BuildingBlock: OJICUG_clean_linker_0, # of connection points: 2
#     Edge 80, Type (0, 0), BuildingBlock: OJICUG_clean_linker_0, # of connection points: 2
#     Edge 81, Type (0, 0), BuildingBlock: OJICUG_clean_linker_0, # of connection points: 2
#     Edge 82, Type (0, 0), BuildingBlock: OJICUG_clean_linker_0, # of connection points: 2
#     Edge 83, Type (0, 0), BuildingBlock: OJICUG_clean_linker_0, # of connection points: 2
#     Edge 84, Type (0, 0), BuildingBlock: OJICUG_clean_linker_0, # of connection points: 2
#     Edge 85, Type (0, 0), BuildingBlock: OJICUG_clean_linker_0, # of connection points: 2
#     Edge 86, Type (0, 0), BuildingBlock: OJICUG_clean_linker_0, # of connection points: 2
#     Edge 87, Type (0, 0), BuildingBlock: OJICUG_clean_linker_0, # of connection points: 2
#     Edge 88, Type (0, 0), BuildingBlock: OJICUG_clean_linker_0, # of connection points: 2
#     Edge 89, Type (0, 0), BuildingBlock: OJICUG_clean_linker_0, # of connection points: 2
#     Edge 90, Type (0, 0), BuildingBlock: OJICUG_clean_linker_0, # of connection points: 2
#     Edge 91, Type (0, 0), BuildingBlock: OJICUG_clean_linker_0, # of connection points: 2
#     Edge 92, Type (0, 0), BuildingBlock: OJICUG_clean_linker_0, # of connection points: 2
#     Edge 93, Type (0, 0), BuildingBlock: OJICUG_clean_linker_0, # of connection points: 2
#     Edge 94, Type (0, 0), BuildingBlock: OJICUG_clean_linker_0, # of connection points: 2
#     Edge 95, Type (0, 0), BuildingBlock: OJICUG_clean_linker_0, # of connection points: 2
#     Edge 96, Type (0, 0), BuildingBlock: OJICUG_clean_linker_0, # of connection points: 2
#     Edge 97, Type (0, 0), BuildingBlock: OJICUG_clean_linker_0, # of connection points: 2
#     Edge 98, Type (0, 0), BuildingBlock: OJICUG_clean_linker_0, # of connection points: 2
#     Edge 99, Type (0, 0), BuildingBlock: OJICUG_clean_linker_0, # of connection points: 2
#     Edge 100, Type (0, 0), BuildingBlock: OJICUG_clean_linker_0, # of connection points: 2
#     Edge 101, Type (0, 0), BuildingBlock: OJICUG_clean_linker_0, # of connection points: 2
#     Edge 102, Type (0, 0), BuildingBlock: OJICUG_clean_linker_0, # of connection points: 2
#     Edge 103, Type (0, 0), BuildingBlock: OJICUG_clean_linker_0, # of connection points: 2
#     Edge 104, Type (0, 0), BuildingBlock: OJICUG_clean_linker_0, # of connection points: 2
#     Edge 105, Type (0, 0), BuildingBlock: OJICUG_clean_linker_0, # of connection points: 2
#     Edge 106, Type (0, 0), BuildingBlock: OJICUG_clean_linker_0, # of connection points: 2
#     Edge 107, Type (0, 0), BuildingBlock: OJICUG_clean_linker_0, # of connection points: 2
#     Edge 108, Type (0, 0), BuildingBlock: OJICUG_clean_linker_0, # of connection points: 2
#     Edge 109, Type (0, 0), BuildingBlock: OJICUG_clean_linker_0, # of connection points: 2
#     Edge 110, Type (0, 0), BuildingBlock: OJICUG_clean_linker_0, # of connection points: 2
#     Edge 111, Type (0, 0), BuildingBlock: OJICUG_clean_linker_0, # of connection points: 2
#     Edge 112, Type (0, 0), BuildingBlock: OJICUG_clean_linker_0, # of connection points: 2
#     Edge 113, Type (0, 0), BuildingBlock: OJICUG_clean_linker_0, # of connection points: 2
#     Edge 114, Type (0, 0), BuildingBlock: OJICUG_clean_linker_0, # of connection points: 2
#     Edge 115, Type (0, 0), BuildingBlock: OJICUG_clean_linker_0, # of connection points: 2
#     Edge 116, Type (0, 0), BuildingBlock: OJICUG_clean_linker_0, # of connection points: 2
#     Edge 117, Type (0, 0), BuildingBlock: OJICUG_clean_linker_0, # of connection points: 2
#     Edge 118, Type (0, 0), BuildingBlock: OJICUG_clean_linker_0, # of connection points: 2
#     Edge 119, Type (0, 0), BuildingBlock: OJICUG_clean_linker_0, # of connection points: 2
#     Edge 120, Type (0, 0), BuildingBlock: OJICUG_clean_linker_0, # of connection points: 2
#     Edge 121, Type (0, 0), BuildingBlock: OJICUG_clean_linker_0, # of connection points: 2
#     Edge 122, Type (0, 0), BuildingBlock: OJICUG_clean_linker_0, # of connection points: 2
#     Edge 123, Type (0, 0), BuildingBlock: OJICUG_clean_linker_0, # of connection points: 2
#     Edge 124, Type (0, 0), BuildingBlock: OJICUG_clean_linker_0, # of connection points: 2
#     Edge 125, Type (0, 0), BuildingBlock: OJICUG_clean_linker_0, # of connection points: 2
#     Edge 126, Type (0, 0), BuildingBlock: OJICUG_clean_linker_0, # of connection points: 2
#     Edge 127, Type (0, 0), BuildingBlock: OJICUG_clean_linker_0, # of connection points: 2
#     Edge 128, Type (0, 0), BuildingBlock: OJICUG_clean_linker_0, # of connection points: 2
#     Edge 129, Type (0, 0), BuildingBlock: OJICUG_clean_linker_0, # of connection points: 2
#     Edge 130, Type (0, 0), BuildingBlock: OJICUG_clean_linker_0, # of connection points: 2
#     Edge 131, Type (0, 0), BuildingBlock: OJICUG_clean_linker_0, # of connection points: 2
#     Edge 132, Type (0, 0), BuildingBlock: OJICUG_clean_linker_0, # of connection points: 2
#     Edge 133, Type (0, 0), BuildingBlock: OJICUG_clean_linker_0, # of connection points: 2
#     Edge 134, Type (0, 0), BuildingBlock: OJICUG_clean_linker_0, # of connection points: 2
#     Edge 135, Type (0, 0), BuildingBlock: OJICUG_clean_linker_0, # of connection points: 2
#     Edge 136, Type (0, 0), BuildingBlock: OJICUG_clean_linker_0, # of connection points: 2
#     Edge 137, Type (0, 0), BuildingBlock: OJICUG_clean_linker_0, # of connection points: 2
#     Edge 138, Type (0, 0), BuildingBlock: OJICUG_clean_linker_0, # of connection points: 2
#     Edge 139, Type (0, 0), BuildingBlock: OJICUG_clean_linker_0, # of connection points: 2
#     Edge 140, Type (0, 0), BuildingBlock: OJICUG_clean_linker_0, # of connection points: 2
#     Edge 141, Type (0, 0), BuildingBlock: OJICUG_clean_linker_0, # of connection points: 2
#     Edge 142, Type (0, 0), BuildingBlock: OJICUG_clean_linker_0, # of connection points: 2
#     Edge 143, Type (0, 0), BuildingBlock: OJICUG_clean_linker_0, # of connection points: 2
# Relax obj value: 0.318
# Max RMSD: 0.087
# Mean RMSD: 0.085
data_MOF--net-nfb--node1-GALJAG_clean_sbu_0--edge1-OJICUG_clean_linker_0
_symmetry_space_group_name_H-M    P1
_symmetry_Int_Tables_number       1
_symmetry_cell_setting            triclinic
loop_
_symmetry_equiv_pos_as_xyz
'x, y, z'
_cell_length_a     42.694183
_cell_length_b     42.673008
_cell_length_c     42.680175
_cell_angle_alpha  90.014382
_cell_angle_beta   89.978822
_cell_angle_gamma 90.092473
loop_
_atom_site_label
_atom_site_type_symbol
_atom_site_fract_x
_atom_site_fract_y
_atom_site_fract_z
_atom_type_partial_charge
In0 In 0.12451 0.13144 0.38884 0.0
O1 O 0.09844 0.13732 0.434 0.0
O2 O 0.12492 0.09532 0.42829 0.0
C3 C 0.12334 0.19382 0.38604 0.0
C4 C 0.18862 0.12618 0.38882 0.0
C5 C 0.07417 0.11159 0.35386 0.0
O6 O 0.11087 0.17855 0.40812 0.0
O7 O 0.13536 0.17748 0.36441 0.0
O8 O 0.08814 0.13722 0.34928 0.0
O9 O 0.08845 0.0938 0.37267 0.0
C10 C 0.10735 0.11168 0.44566 0.0
O11 O 0.17205 0.11283 0.36788 0.0
O12 O 0.17281 0.14035 0.40918 0.0
In13 In 0.38947 0.62429 0.88894 0.0
O14 O 0.42758 0.58926 0.87205 0.0
O15 O 0.38358 0.58724 0.84991 0.0
C16 C 0.39325 0.68855 0.88829 0.0
C17 C 0.32706 0.62165 0.88816 0.0
C18 C 0.41177 0.60858 0.94518 0.0
O19 O 0.40633 0.67215 0.86706 0.0
O20 O 0.38 0.67254 0.90914 0.0
O21 O 0.38622 0.59828 0.93441 0.0
O22 O 0.42672 0.6268 0.92718 0.0
C23 C 0.40973 0.57416 0.85391 0.0
O24 O 0.34322 0.6097 0.90987 0.0
O25 O 0.34253 0.63375 0.86593 0.0
In26 In 0.89353 0.88973 0.38583 0.0
O27 O 0.91961 0.88453 0.43103 0.0
O28 O 0.89214 0.92589 0.42514 0.0
C29 C 0.89549 0.82739 0.38333 0.0
C30 C 0.8294 0.89443 0.38597 0.0
C31 C 0.94389 0.90976 0.35097 0.0
O32 O 0.90775 0.84293 0.40535 0.0
O33 O 0.88328 0.84347 0.36162 0.0
O34 O 0.92975 0.88428 0.34603 0.0
O35 O 0.9297 0.92739 0.37002 0.0
C36 C 0.91001 0.90998 0.4426 0.0
O37 O 0.84583 0.90824 0.3652 0.0
O38 O 0.84535 0.87994 0.40598 0.0
In39 In 0.63044 0.39303 0.8887 0.0
O40 O 0.59187 0.42769 0.87217 0.0
O41 O 0.63564 0.43011 0.84957 0.0
C42 C 0.62663 0.32875 0.88812 0.0
C43 C 0.69287 0.39608 0.88743 0.0
C44 C 0.60859 0.40896 0.94509 0.0
O45 O 0.61347 0.34515 0.86697 0.0
O46 O 0.64004 0.34476 0.90886 0.0
O47 O 0.63403 0.41924 0.93405 0.0
O48 O 0.59356 0.39058 0.92733 0.0
C49 C 0.6094 0.44294 0.85383 0.0
O50 O 0.67676 0.40793 0.90924 0.0
O51 O 0.67734 0.3838 0.86534 0.0
In52 In 0.1311 0.88781 0.62984 0.0
O53 O 0.09627 0.92625 0.64637 0.0
O54 O 0.09391 0.88238 0.66881 0.0
C55 C 0.19531 0.89276 0.63012 0.0
C56 C 0.12898 0.82544 0.63269 0.0
C57 C 0.11368 0.90767 0.5731 0.0
O58 O 0.17871 0.90594 0.65111 0.0
O59 O 0.17951 0.87883 0.60956 0.0
O60 O 0.10463 0.88211 0.58488 0.0
O61 O 0.1317 0.92383 0.59023 0.0
C62 C 0.08102 0.90859 0.6646 0.0
O63 O 0.1171 0.84083 0.61041 0.0
O64 O 0.14101 0.84167 0.65442 0.0
In65 In 0.6307 0.62318 0.13077 0.0
O66 O 0.67703 0.60883 0.10993 0.0
O67 O 0.67759 0.63306 0.1538 0.0
C68 C 0.60837 0.60674 0.07474 0.0
C69 C 0.61063 0.57309 0.16601 0.0
C70 C 0.62659 0.6874 0.13096 0.0
O71 O 0.6341 0.59693 0.08544 0.0
O72 O 0.5933 0.62489 0.09266 0.0
O73 O 0.61376 0.67105 0.1524 0.0
O74 O 0.63977 0.67134 0.11012 0.0
C75 C 0.69312 0.62095 0.13163 0.0
O76 O 0.59268 0.58808 0.14792 0.0
O77 O 0.63679 0.58627 0.16986 0.0
In78 In 0.89051 0.13081 0.63056 0.0
O79 O 0.90414 0.17771 0.61064 0.0
O80 O 0.88008 0.17717 0.65458 0.0
C81 C 0.90805 0.11044 0.57406 0.0
C82 C 0.94058 0.11114 0.66592 0.0
C83 C 0.82638 0.12565 0.63065 0.0
O84 O 0.91718 0.13607 0.58568 0.0
O85 O 0.88999 0.09443 0.5913 0.0
O86 O 0.84291 0.11254 0.65172 0.0
O87 O 0.84224 0.13952 0.61009 0.0
C88 C 0.89198 0.19326 0.63268 0.0
O89 O 0.92619 0.09318 0.64729 0.0
O90 O 0.92682 0.13691 0.67013 0.0
In91 In 0.38916 0.39662 0.13078 0.0
O92 O 0.34282 0.4109 0.10995 0.0
O93 O 0.34227 0.3867 0.15382 0.0
C94 C 0.41153 0.41265 0.07463 0.0
C95 C 0.40924 0.44682 0.16589 0.0
C96 C 0.39328 0.33241 0.13117 0.0
O97 O 0.38586 0.42267 0.08533 0.0
O98 O 0.42653 0.39456 0.09264 0.0
O99 O 0.40612 0.34883 0.15255 0.0
O100 O 0.38008 0.3484 0.11031 0.0
C101 C 0.32673 0.39875 0.13165 0.0
O102 O 0.42719 0.43178 0.14782 0.0
O103 O 0.38307 0.43366 0.16978 0.0
In104 In 0.38778 0.13114 0.12905 0.0
O105 O 0.36733 0.17914 0.11121 0.0
O106 O 0.40799 0.17929 0.13961 0.0
C107 C 0.35332 0.08168 0.10636 0.0
C108 C 0.44484 0.11386 0.11022 0.0
C109 C 0.38387 0.12739 0.19129 0.0
O110 O 0.34782 0.09472 0.1323 0.0
O111 O 0.37273 0.09662 0.08975 0.0
O112 O 0.40614 0.11557 0.17584 0.0
O113 O 0.36259 0.14022 0.17514 0.0
C114 C 0.38798 0.19542 0.12533 0.0
O115 O 0.43239 0.10438 0.1353 0.0
O116 O 0.42826 0.13231 0.09404 0.0
In117 In 0.39651 0.88926 0.63187 0.0
O118 O 0.43335 0.85027 0.63849 0.0
O119 O 0.43283 0.8728 0.59463 0.0
C120 C 0.3324 0.88874 0.62621 0.0
C121 C 0.39708 0.88719 0.6943 0.0
C122 C 0.4134 0.94592 0.61137 0.0
O123 O 0.34914 0.86765 0.61336 0.0
O124 O 0.34805 0.90948 0.64006 0.0
O125 O 0.42234 0.93467 0.6372 0.0
O126 O 0.39596 0.92819 0.59521 0.0
C127 C 0.4473 0.8545 0.6128 0.0
O128 O 0.40946 0.90928 0.67894 0.0
O129 O 0.38552 0.86523 0.67805 0.0
In130 In 0.63205 0.88868 0.12841 0.0
O131 O 0.65259 0.84064 0.11071 0.0
O132 O 0.61188 0.84054 0.13907 0.0
C133 C 0.66677 0.93814 0.10613 0.0
C134 C 0.57517 0.90596 0.10908 0.0
C135 C 0.63524 0.89264 0.19067 0.0
O136 O 0.67213 0.92493 0.132 0.0
O137 O 0.64739 0.92334 0.08936 0.0
O138 O 0.61309 0.90431 0.17497 0.0
O139 O 0.65675 0.87985 0.17478 0.0
C140 C 0.63193 0.82439 0.12484 0.0
O141 O 0.58746 0.91557 0.13419 0.0
O142 O 0.59183 0.88737 0.09311 0.0
In143 In 0.6253 0.12986 0.6314 0.0
O144 O 0.5894 0.14696 0.59411 0.0
O145 O 0.58886 0.16919 0.63814 0.0
C146 C 0.68941 0.13026 0.62633 0.0
C147 C 0.62416 0.1312 0.69387 0.0
C148 C 0.60852 0.07355 0.60982 0.0
O149 O 0.67284 0.15136 0.61331 0.0
O150 O 0.6736 0.10959 0.64013 0.0
O151 O 0.59896 0.08459 0.63553 0.0
O152 O 0.62652 0.09132 0.59433 0.0
C153 C 0.57503 0.1653 0.61234 0.0
O154 O 0.61184 0.10933 0.67816 0.0
O155 O 0.63593 0.1533 0.67796 0.0
In156 In 0.3878 0.88984 0.89057 0.0
O157 O 0.43278 0.91652 0.88616 0.0
O158 O 0.42714 0.88784 0.92674 0.0
C159 C 0.38591 0.89392 0.82823 0.0
C160 C 0.38754 0.82553 0.89384 0.0
C161 C 0.35288 0.93922 0.9126 0.0
O162 O 0.40773 0.90569 0.8444 0.0
O163 O 0.36407 0.88109 0.84368 0.0
O164 O 0.34797 0.92624 0.8865 0.0
O165 O 0.3719 0.92428 0.92958 0.0
C166 C 0.44438 0.90647 0.9114 0.0
O167 O 0.36672 0.84177 0.9077 0.0
O168 O 0.40786 0.84171 0.87997 0.0
In169 In 0.62834 0.8899 0.38717 0.0
O170 O 0.60172 0.93467 0.38134 0.0
O171 O 0.62833 0.92935 0.42334 0.0
C172 C 0.62707 0.88721 0.3248 0.0
C173 C 0.69246 0.8902 0.39222 0.0
C174 C 0.57823 0.85459 0.40706 0.0
O175 O 0.61479 0.90933 0.34013 0.0
O176 O 0.639 0.86551 0.34108 0.0
O177 O 0.5927 0.87321 0.42497 0.0
O178 O 0.59195 0.85035 0.38126 0.0
C179 C 0.61046 0.94644 0.40702 0.0
O180 O 0.67604 0.86888 0.40514 0.0
O181 O 0.67651 0.91087 0.3787 0.0
In182 In 0.63123 0.1274 0.89021 0.0
O183 O 0.58626 0.10085 0.88494 0.0
O184 O 0.59125 0.12937 0.92572 0.0
C185 C 0.63399 0.1235 0.82787 0.0
C186 C 0.63164 0.19172 0.89371 0.0
C187 C 0.66565 0.07796 0.91286 0.0
O188 O 0.61199 0.11165 0.84372 0.0
O189 O 0.6556 0.13632 0.84365 0.0
O190 O 0.67084 0.0907 0.8867 0.0
O191 O 0.64656 0.09312 0.92958 0.0
C192 C 0.57422 0.11086 0.91001 0.0
O193 O 0.65237 0.17539 0.90756 0.0
O194 O 0.61131 0.17563 0.87977 0.0
In195 In 0.38973 0.13125 0.38791 0.0
O196 O 0.34211 0.15217 0.40626 0.0
O197 O 0.3415 0.11031 0.3796 0.0
C198 C 0.43974 0.16684 0.40752 0.0
C199 C 0.40799 0.07488 0.40795 0.0
C200 C 0.39096 0.13343 0.32548 0.0
O201 O 0.42539 0.14823 0.42553 0.0
O202 O 0.42595 0.17094 0.38174 0.0
O203 O 0.40316 0.1114 0.34098 0.0
O204 O 0.37908 0.15529 0.34161 0.0
C205 C 0.32562 0.13088 0.39338 0.0
O206 O 0.41672 0.08666 0.38228 0.0
O207 O 0.3899 0.09186 0.42417 0.0
In208 In 0.13059 0.38889 0.12355 0.0
O209 O 0.17695 0.40967 0.10901 0.0
O210 O 0.17743 0.36575 0.13313 0.0
C211 C 0.10839 0.4452 0.10797 0.0
C212 C 0.11031 0.3539 0.07334 0.0
C213 C 0.12666 0.38826 0.18777 0.0
O214 O 0.13396 0.43448 0.09773 0.0
O215 O 0.09338 0.4271 0.12604 0.0
O216 O 0.11341 0.36714 0.17132 0.0
O217 O 0.14021 0.40896 0.17181 0.0
C218 C 0.193 0.38792 0.12102 0.0
O219 O 0.1364 0.34979 0.08654 0.0
O220 O 0.09252 0.37215 0.08833 0.0
In221 In 0.13099 0.63093 0.89692 0.0
O222 O 0.17735 0.61036 0.9115 0.0
O223 O 0.17781 0.65417 0.88719 0.0
C224 C 0.10868 0.57458 0.91242 0.0
C225 C 0.11055 0.66594 0.94699 0.0
C226 C 0.12732 0.63152 0.83272 0.0
O227 O 0.13423 0.58535 0.92276 0.0
O228 O 0.09375 0.59265 0.89434 0.0
O229 O 0.11435 0.65283 0.84909 0.0
O230 O 0.1404 0.61061 0.84874 0.0
C231 C 0.19339 0.63209 0.89935 0.0
O232 O 0.09273 0.64778 0.93185 0.0
O233 O 0.13678 0.66992 0.93401 0.0
In234 In 0.8886 0.63104 0.38836 0.0
O235 O 0.93308 0.63634 0.41562 0.0
O236 O 0.9282 0.59507 0.38779 0.0
C237 C 0.8865 0.6934 0.39084 0.0
C238 C 0.88863 0.62654 0.3242 0.0
C239 C 0.85345 0.61009 0.43801 0.0
O240 O 0.90849 0.67765 0.40275 0.0
O241 O 0.86461 0.67754 0.3786 0.0
O242 O 0.84927 0.63631 0.4251 0.0
O243 O 0.87176 0.59248 0.42285 0.0
C244 C 0.945 0.61095 0.40637 0.0
O245 O 0.86742 0.61343 0.34059 0.0
O246 O 0.90928 0.64013 0.34018 0.0
In247 In 0.88923 0.38895 0.89572 0.0
O248 O 0.8426 0.40924 0.90995 0.0
O249 O 0.84259 0.36536 0.88575 0.0
C250 C 0.91108 0.44542 0.91155 0.0
C251 C 0.90957 0.35409 0.94594 0.0
C252 C 0.89349 0.38836 0.83152 0.0
O253 O 0.88551 0.43448 0.92164 0.0
O254 O 0.92626 0.42748 0.89351 0.0
O255 O 0.9064 0.36712 0.84801 0.0
O256 O 0.88015 0.4092 0.84744 0.0
C257 C 0.82677 0.38735 0.89779 0.0
O258 O 0.9274 0.37226 0.93081 0.0
O259 O 0.88339 0.35003 0.93289 0.0
In260 In 0.13163 0.39021 0.389 0.0
O261 O 0.1527 0.40757 0.34104 0.0
O262 O 0.11125 0.38026 0.34083 0.0
C263 C 0.16673 0.41192 0.43841 0.0
C264 C 0.0751 0.41044 0.40643 0.0
C265 C 0.13357 0.32784 0.39246 0.0
O266 O 0.17149 0.38586 0.42532 0.0
O267 O 0.14778 0.42906 0.42354 0.0
O268 O 0.11171 0.34386 0.40424 0.0
O269 O 0.15545 0.34344 0.37988 0.0
C270 C 0.13171 0.394 0.32474 0.0
O271 O 0.08704 0.38523 0.41614 0.0
O272 O 0.09197 0.42607 0.38769 0.0
In273 In 0.88925 0.63079 0.12307 0.0
O274 O 0.8429 0.60979 0.10884 0.0
O275 O 0.8424 0.6538 0.13282 0.0
C276 C 0.91164 0.57458 0.1074 0.0
C277 C 0.90892 0.66589 0.07275 0.0
C278 C 0.89344 0.6316 0.18724 0.0
O279 O 0.88599 0.58519 0.09726 0.0
O280 O 0.92663 0.59273 0.12543 0.0
O281 O 0.90673 0.6526 0.17068 0.0
O282 O 0.87973 0.6109 0.17141 0.0
C283 C 0.82684 0.63154 0.12085 0.0
O284 O 0.92689 0.64755 0.0874 0.0
O285 O 0.88305 0.67002 0.08636 0.0
In286 In 0.88822 0.38973 0.63026 0.0
O287 O 0.93292 0.3836 0.60352 0.0
O288 O 0.92872 0.42477 0.63161 0.0
C289 C 0.88446 0.32745 0.62644 0.0
C290 C 0.88827 0.39354 0.69454 0.0
C291 C 0.85383 0.41251 0.58088 0.0
O292 O 0.90666 0.34299 0.61455 0.0
O293 O 0.86316 0.34352 0.63936 0.0
O294 O 0.87327 0.42909 0.59583 0.0
O295 O 0.8483 0.38654 0.59386 0.0
C296 C 0.94536 0.40865 0.61313 0.0
O297 O 0.86767 0.40762 0.67824 0.0
O298 O 0.90829 0.3792 0.67843 0.0
In299 In 0.13289 0.62888 0.6316 0.0
O300 O 0.15381 0.61153 0.67957 0.0
O301 O 0.11335 0.64024 0.6797 0.0
C302 C 0.16734 0.60698 0.58179 0.0
C303 C 0.07625 0.60764 0.61578 0.0
C304 C 0.13564 0.69116 0.62751 0.0
O305 O 0.17256 0.63292 0.59495 0.0
O306 O 0.14828 0.58999 0.59676 0.0
O307 O 0.1133 0.67535 0.61621 0.0
O308 O 0.15744 0.67537 0.6399 0.0
C309 C 0.13336 0.62595 0.69583 0.0
O310 O 0.08779 0.6327 0.60509 0.0
O311 O 0.09352 0.59278 0.6347 0.0
In312 In 0.89519 0.88939 0.63244 0.0
O313 O 0.88404 0.84642 0.60295 0.0
O314 O 0.91108 0.8401 0.64449 0.0
C315 C 0.90939 0.909 0.57444 0.0
C316 C 0.83247 0.89476 0.64685 0.0
C317 C 0.94626 0.91073 0.66568 0.0
O318 O 0.92217 0.88565 0.58718 0.0
O319 O 0.88913 0.92272 0.59103 0.0
O320 O 0.93276 0.92662 0.64483 0.0
O321 O 0.9312 0.8864 0.67317 0.0
C322 C 0.89803 0.82768 0.621 0.0
O323 O 0.84885 0.87144 0.65424 0.0
O324 O 0.84852 0.91742 0.63661 0.0
In325 In 0.631 0.3883 0.13221 0.0
O326 O 0.67762 0.40261 0.11207 0.0
O327 O 0.67745 0.37901 0.15627 0.0
C328 C 0.60944 0.40573 0.07621 0.0
C329 C 0.62715 0.32404 0.13217 0.0
C330 C 0.61056 0.43837 0.16712 0.0
O331 O 0.63527 0.41497 0.08725 0.0
O332 O 0.59398 0.38739 0.09365 0.0
O333 O 0.59265 0.42303 0.14923 0.0
O334 O 0.63679 0.42546 0.17107 0.0
C335 C 0.69333 0.39105 0.1343 0.0
O336 O 0.61455 0.34024 0.15383 0.0
O337 O 0.63982 0.34025 0.1111 0.0
In338 In 0.12696 0.13086 0.63426 0.0
O339 O 0.12062 0.17615 0.60722 0.0
O340 O 0.14111 0.17886 0.65266 0.0
C341 C 0.10917 0.11223 0.57731 0.0
C342 C 0.19044 0.12087 0.63952 0.0
C343 C 0.07515 0.11331 0.66875 0.0
O344 O 0.10192 0.13856 0.58875 0.0
O345 O 0.12567 0.0949 0.59479 0.0
O346 O 0.09254 0.09358 0.65524 0.0
O347 O 0.0864 0.14054 0.66853 0.0
C348 C 0.13261 0.19316 0.62822 0.0
O349 O 0.17445 0.13299 0.6613 0.0
O350 O 0.174 0.11035 0.61741 0.0
In351 In 0.38921 0.63151 0.132 0.0
O352 O 0.34253 0.61736 0.11193 0.0
O353 O 0.34283 0.64092 0.15618 0.0
C354 C 0.41079 0.61356 0.07615 0.0
C355 C 0.39316 0.69576 0.1317 0.0
C356 C 0.40954 0.58153 0.16706 0.0
O357 O 0.3849 0.60452 0.08723 0.0
O358 O 0.42628 0.63202 0.09344 0.0
O359 O 0.42753 0.59686 0.14922 0.0
O360 O 0.38329 0.59443 0.1709 0.0
C361 C 0.32688 0.62893 0.13423 0.0
O362 O 0.40564 0.67964 0.15347 0.0
O363 O 0.38059 0.67947 0.11064 0.0
In364 In 0.88844 0.13243 0.38673 0.0
O365 O 0.92217 0.09483 0.36553 0.0
O366 O 0.92864 0.14173 0.35195 0.0
C367 C 0.82467 0.12358 0.38322 0.0
C368 C 0.90687 0.11208 0.44277 0.0
C369 C 0.88485 0.19492 0.39189 0.0
O370 O 0.84081 0.13128 0.35953 0.0
O371 O 0.84095 0.11703 0.40687 0.0
O372 O 0.89719 0.17794 0.41267 0.0
O373 O 0.87491 0.18044 0.36808 0.0
C374 C 0.93962 0.11441 0.35177 0.0
O375 O 0.91373 0.13891 0.43223 0.0
O376 O 0.89049 0.09506 0.42479 0.0
In377 In 0.38961 0.38946 0.88783 0.0
O378 O 0.3429 0.40356 0.90777 0.0
O379 O 0.34328 0.37988 0.86359 0.0
C380 C 0.41099 0.40764 0.94368 0.0
C381 C 0.3935 0.32521 0.88834 0.0
C382 C 0.41008 0.43945 0.85275 0.0
O383 O 0.38512 0.41653 0.93252 0.0
O384 O 0.42656 0.38921 0.92647 0.0
O385 O 0.428 0.42419 0.87065 0.0
O386 O 0.38384 0.42645 0.84884 0.0
C387 C 0.32729 0.39189 0.88549 0.0
O388 O 0.38088 0.34154 0.90932 0.0
O389 O 0.40607 0.3413 0.86655 0.0
In390 In 0.12978 0.88836 0.38464 0.0
O391 O 0.09589 0.92598 0.36366 0.0
O392 O 0.0895 0.87918 0.34986 0.0
C393 C 0.19346 0.89771 0.38005 0.0
C394 C 0.11248 0.9076 0.44152 0.0
C395 C 0.13406 0.82594 0.3907 0.0
O396 O 0.17746 0.88663 0.35769 0.0
O397 O 0.17701 0.90744 0.40249 0.0
O398 O 0.12149 0.84309 0.41121 0.0
O399 O 0.14388 0.84019 0.3667 0.0
C400 C 0.07849 0.90648 0.34977 0.0
O401 O 0.10491 0.88122 0.43036 0.0
O402 O 0.12891 0.92474 0.42372 0.0
In403 In 0.6285 0.6276 0.88746 0.0
O404 O 0.61161 0.67601 0.86705 0.0
O405 O 0.63828 0.67534 0.90889 0.0
C406 C 0.60761 0.57764 0.85258 0.0
C407 C 0.6907 0.62461 0.88395 0.0
C408 C 0.60775 0.60985 0.94367 0.0
O409 O 0.59005 0.59255 0.87113 0.0
O410 O 0.63354 0.59102 0.84794 0.0
O411 O 0.63355 0.60095 0.93233 0.0
O412 O 0.59191 0.628 0.92643 0.0
C413 C 0.62495 0.69188 0.88854 0.0
O414 O 0.67538 0.61278 0.90637 0.0
O415 O 0.67446 0.63708 0.86253 0.0
In416 In 0.63332 0.89317 0.89299 0.0
O417 O 0.58759 0.91812 0.88697 0.0
O418 O 0.59358 0.891 0.9286 0.0
C419 C 0.63888 0.89803 0.83105 0.0
C420 C 0.66702 0.9433 0.91548 0.0
C421 C 0.63279 0.82882 0.89558 0.0
O422 O 0.6161 0.90964 0.84597 0.0
O423 O 0.6596 0.88482 0.84761 0.0
O424 O 0.65295 0.84473 0.91082 0.0
O425 O 0.61361 0.84532 0.88059 0.0
C426 C 0.57597 0.90846 0.91241 0.0
O427 O 0.64711 0.92877 0.93185 0.0
O428 O 0.67344 0.92948 0.89018 0.0
In429 In 0.62617 0.13525 0.38786 0.0
O430 O 0.59172 0.15627 0.42502 0.0
O431 O 0.58557 0.16941 0.37806 0.0
C432 C 0.68964 0.14094 0.39781 0.0
C433 C 0.60925 0.07808 0.40676 0.0
C434 C 0.63176 0.12864 0.32561 0.0
O435 O 0.67371 0.1622 0.38479 0.0
O436 O 0.67315 0.1193 0.40922 0.0
O437 O 0.61941 0.10793 0.34274 0.0
O438 O 0.64063 0.15307 0.33978 0.0
C439 C 0.57433 0.1697 0.40526 0.0
O440 O 0.60154 0.08936 0.3805 0.0
O441 O 0.62569 0.09585 0.42389 0.0
In442 In 0.38485 0.12391 0.89073 0.0
O443 O 0.37147 0.08847 0.92986 0.0
O444 O 0.34476 0.0875 0.88845 0.0
C445 C 0.38525 0.18825 0.89358 0.0
C446 C 0.44243 0.10895 0.90977 0.0
C447 C 0.37873 0.11881 0.82881 0.0
O448 O 0.40417 0.17187 0.8781 0.0
O449 O 0.36537 0.17221 0.90905 0.0
O450 O 0.40155 0.10712 0.84357 0.0
O451 O 0.35826 0.13227 0.84552 0.0
C452 C 0.35141 0.07385 0.91377 0.0
O453 O 0.43077 0.09928 0.88436 0.0
O454 O 0.42477 0.12625 0.92609 0.0
In455 In 0.39206 0.88677 0.38725 0.0
O456 O 0.42626 0.86572 0.42455 0.0
O457 O 0.43254 0.85246 0.37759 0.0
C458 C 0.32845 0.88203 0.39671 0.0
C459 C 0.40952 0.94344 0.40697 0.0
C460 C 0.3873 0.8926 0.32488 0.0
O461 O 0.34458 0.85934 0.38655 0.0
O462 O 0.34475 0.90498 0.4055 0.0
O463 O 0.39986 0.9133 0.34186 0.0
O464 O 0.3778 0.86855 0.33927 0.0
C465 C 0.44367 0.8522 0.40484 0.0
O466 O 0.41669 0.93268 0.38033 0.0
O467 O 0.39339 0.92536 0.42411 0.0
In468 In 0.63448 0.12272 0.13001 0.0
O469 O 0.64749 0.08743 0.09066 0.0
O470 O 0.67443 0.08623 0.1319 0.0
C471 C 0.63478 0.18707 0.12739 0.0
C472 C 0.57666 0.1087 0.1108 0.0
C473 C 0.64022 0.11733 0.19197 0.0
O474 O 0.61577 0.17079 0.14291 0.0
O475 O 0.65445 0.17093 0.11181 0.0
O476 O 0.61753 0.10558 0.177 0.0
O477 O 0.6608 0.13089 0.17544 0.0
C478 C 0.66764 0.07275 0.10651 0.0
O479 O 0.58817 0.09855 0.13608 0.0
O480 O 0.59465 0.12586 0.09466 0.0
In481 In 0.38918 0.13294 0.63244 0.0
O482 O 0.39658 0.10676 0.67799 0.0
O483 O 0.37554 0.15196 0.68032 0.0
C484 C 0.40877 0.0771 0.61263 0.0
C485 C 0.32552 0.13618 0.62292 0.0
C486 C 0.44048 0.16802 0.61485 0.0
O487 O 0.41509 0.08793 0.63946 0.0
O488 O 0.39222 0.09463 0.59536 0.0
O489 O 0.42308 0.15445 0.5951 0.0
O490 O 0.42937 0.16763 0.64213 0.0
C491 C 0.38463 0.12786 0.69486 0.0
O492 O 0.34148 0.15985 0.63107 0.0
O493 O 0.34197 0.1127 0.61621 0.0
In494 In 0.38569 0.89707 0.12912 0.0
O495 O 0.43202 0.92124 0.13497 0.0
O496 O 0.4254 0.89381 0.09362 0.0
C497 C 0.37998 0.90268 0.19107 0.0
C498 C 0.3525 0.94706 0.10577 0.0
C499 C 0.3854 0.83271 0.12666 0.0
O500 O 0.40278 0.91421 0.17607 0.0
O501 O 0.35933 0.88921 0.17457 0.0
O502 O 0.4043 0.84903 0.14225 0.0
O503 O 0.36581 0.84881 0.11095 0.0
C504 C 0.44344 0.91103 0.10966 0.0
O505 O 0.37277 0.93252 0.08993 0.0
O506 O 0.34559 0.93341 0.13104 0.0
In507 In 0.63277 0.88781 0.63442 0.0
O508 O 0.68062 0.8617 0.62691 0.0
O509 O 0.68064 0.91119 0.62934 0.0
C510 C 0.58199 0.85269 0.61587 0.0
C511 C 0.63407 0.89031 0.69697 0.0
C512 C 0.61329 0.94275 0.61223 0.0
O513 O 0.59918 0.86712 0.59651 0.0
O514 O 0.59321 0.85219 0.64314 0.0
O515 O 0.60622 0.93266 0.63915 0.0
O516 O 0.63054 0.92488 0.59599 0.0
C517 C 0.69686 0.88666 0.62803 0.0
O518 O 0.62226 0.91174 0.68043 0.0
O519 O 0.64446 0.86701 0.68197 0.0
In520 In 0.88728 0.63184 0.88792 0.0
O521 O 0.84092 0.61008 0.90083 0.0
O522 O 0.84031 0.65461 0.87797 0.0
C523 C 0.90942 0.57638 0.90627 0.0
C524 C 0.89189 0.63292 0.82375 0.0
C525 C 0.90711 0.66692 0.93813 0.0
O526 O 0.88327 0.58709 0.91492 0.0
O527 O 0.92493 0.59386 0.88797 0.0
O528 O 0.92563 0.65039 0.92201 0.0
O529 O 0.88031 0.66942 0.92604 0.0
C530 C 0.82481 0.63202 0.88932 0.0
O531 O 0.90096 0.65598 0.84036 0.0
O532 O 0.8828 0.60979 0.83956 0.0
In533 In 0.88983 0.38768 0.13062 0.0
O534 O 0.88105 0.40909 0.17855 0.0
O535 O 0.90637 0.36643 0.17876 0.0
C536 C 0.91029 0.35267 0.08062 0.0
C537 C 0.82751 0.38527 0.12806 0.0
C538 C 0.91122 0.4436 0.11255 0.0
O539 O 0.92819 0.37067 0.09587 0.0
O540 O 0.8841 0.34863 0.09365 0.0
O541 O 0.88538 0.43238 0.10358 0.0
O542 O 0.92677 0.42643 0.13101 0.0
C543 C 0.89375 0.38815 0.19486 0.0
O544 O 0.84315 0.40758 0.11645 0.0
O545 O 0.84347 0.36338 0.14007 0.0
In546 In 0.13495 0.38889 0.6231 0.0
O547 O 0.08872 0.3826 0.59892 0.0
O548 O 0.09513 0.42425 0.62593 0.0
C549 C 0.14073 0.32692 0.61786 0.0
C550 C 0.16819 0.41213 0.57301 0.0
C551 C 0.13502 0.3918 0.68743 0.0
O552 O 0.11807 0.34184 0.60606 0.0
O553 O 0.16125 0.3435 0.63145 0.0
O554 O 0.11606 0.37619 0.67119 0.0
O555 O 0.15476 0.40731 0.67126 0.0
C556 C 0.07721 0.40797 0.60884 0.0
O557 O 0.14812 0.4281 0.58769 0.0
O558 O 0.17492 0.38678 0.58657 0.0
In559 In 0.13035 0.6322 0.13149 0.0
O560 O 0.177 0.6123 0.11714 0.0
O561 O 0.17675 0.65651 0.14077 0.0
C562 C 0.10904 0.57623 0.11344 0.0
C563 C 0.12646 0.6319 0.19574 0.0
C564 C 0.10977 0.66724 0.08162 0.0
O565 O 0.13485 0.58751 0.10441 0.0
O566 O 0.09349 0.59337 0.13196 0.0
O567 O 0.09194 0.64911 0.0968 0.0
O568 O 0.13594 0.67137 0.09464 0.0
C569 C 0.19267 0.63463 0.12868 0.0
O570 O 0.11377 0.65352 0.17959 0.0
O571 O 0.13924 0.61097 0.17947 0.0
In572 In 0.8882 0.63224 0.62268 0.0
O573 O 0.93384 0.63178 0.59664 0.0
O574 O 0.927 0.59635 0.63116 0.0
C575 C 0.89169 0.6939 0.61256 0.0
C576 C 0.85464 0.60981 0.57251 0.0
C577 C 0.88151 0.63207 0.68696 0.0
O578 O 0.91558 0.67656 0.61397 0.0
O579 O 0.86563 0.67997 0.61536 0.0
O580 O 0.89626 0.65219 0.67146 0.0
O581 O 0.8682 0.61148 0.67003 0.0
C582 C 0.94491 0.6084 0.61086 0.0
O583 O 0.87599 0.59438 0.58584 0.0
O584 O 0.84705 0.63429 0.58729 0.0
In585 In 0.13077 0.38761 0.88864 0.0
O586 O 0.1774 0.40782 0.90277 0.0
O587 O 0.17721 0.36351 0.87935 0.0
C588 C 0.10943 0.44354 0.90661 0.0
C589 C 0.12689 0.38762 0.82439 0.0
C590 C 0.11021 0.35263 0.93865 0.0
O591 O 0.13522 0.43235 0.91567 0.0
O592 O 0.09391 0.42634 0.88809 0.0
O593 O 0.09233 0.37052 0.92332 0.0
O594 O 0.13646 0.3487 0.92573 0.0
C595 C 0.1931 0.38554 0.89129 0.0
O596 O 0.11434 0.36594 0.84063 0.0
O597 O 0.13948 0.40877 0.84057 0.0
In598 In 0.13429 0.63008 0.39701 0.0
O599 O 0.08812 0.63613 0.42139 0.0
O600 O 0.0945 0.59456 0.39428 0.0
C601 C 0.14026 0.6921 0.4018 0.0
C602 C 0.1676 0.60707 0.44712 0.0
C603 C 0.13427 0.62712 0.33269 0.0
O604 O 0.11742 0.67731 0.41354 0.0
O605 O 0.16083 0.67536 0.38855 0.0
O606 O 0.11522 0.64254 0.34897 0.0
O607 O 0.15411 0.61178 0.34882 0.0
C608 C 0.0766 0.61073 0.41146 0.0
O609 O 0.14762 0.59094 0.43242 0.0
O610 O 0.17416 0.63251 0.4336 0.0
In611 In 0.88586 0.39087 0.39613 0.0
O612 O 0.93201 0.38492 0.42048 0.0
O613 O 0.92558 0.42646 0.39334 0.0
C614 C 0.8798 0.32893 0.4013 0.0
C615 C 0.85262 0.41389 0.44628 0.0
C616 C 0.88591 0.39352 0.3318 0.0
O617 O 0.90276 0.34373 0.41279 0.0
O618 O 0.8592 0.34562 0.38806 0.0
O619 O 0.86614 0.40905 0.34787 0.0
O620 O 0.90487 0.37808 0.34813 0.0
C621 C 0.94348 0.41035 0.41056 0.0
O622 O 0.87274 0.42995 0.43169 0.0
O623 O 0.84585 0.3886 0.43259 0.0
C624 C 0.11042 0.27755 0.41043 0.0
C625 C 0.13206 0.29349 0.39146 0.0
H626 H 0.09068 0.23339 0.42344 0.0
C627 C 0.15054 0.27652 0.37022 0.0
H628 H 0.0958 0.29015 0.42691 0.0
C629 C 0.14718 0.24404 0.36779 0.0
C630 C 0.1256 0.22815 0.3869 0.0
H631 H 0.16718 0.28836 0.35512 0.0
H632 H 0.16172 0.23137 0.35131 0.0
C633 C 0.10738 0.24513 0.40833 0.0
C634 C 0.27647 0.60538 0.91217 0.0
C635 C 0.29278 0.62366 0.8902 0.0
H636 H 0.23204 0.59383 0.9323 0.0
C637 C 0.2763 0.64528 0.87173 0.0
H638 H 0.2887 0.58865 0.9268 0.0
C639 C 0.24399 0.64872 0.87535 0.0
C640 C 0.22767 0.63025 0.89715 0.0
H641 H 0.28842 0.65989 0.85486 0.0
H642 H 0.23174 0.66545 0.86074 0.0
C643 C 0.24414 0.60847 0.91543 0.0
C644 C 0.91211 0.77643 0.40583 0.0
C645 C 0.89364 0.79307 0.38438 0.0
H646 H 0.92417 0.73169 0.42472 0.0
C647 C 0.87215 0.77682 0.36547 0.0
H648 H 0.92875 0.78845 0.42078 0.0
C649 C 0.86909 0.74435 0.36816 0.0
C650 C 0.88781 0.72773 0.38946 0.0
H651 H 0.85741 0.78923 0.34898 0.0
H652 H 0.8525 0.73223 0.35325 0.0
C653 C 0.90938 0.74401 0.40819 0.0
C654 C 0.77581 0.41048 0.91398 0.0
C655 C 0.79246 0.38883 0.89568 0.0
H656 H 0.73108 0.42974 0.92561 0.0
C657 C 0.77624 0.37007 0.87405 0.0
H658 H 0.78781 0.42533 0.93073 0.0
C659 C 0.74386 0.37306 0.87065 0.0
C660 C 0.7272 0.39452 0.88918 0.0
H661 H 0.78862 0.35343 0.85943 0.0
H662 H 0.73181 0.35823 0.85393 0.0
C663 C 0.74342 0.41311 0.91094 0.0
C664 C 0.15395 0.74229 0.64917 0.0
C665 C 0.13491 0.72555 0.6282 0.0
H666 H 0.16646 0.78733 0.66756 0.0
C667 C 0.11366 0.7418 0.60915 0.0
H668 H 0.17032 0.73021 0.66432 0.0
C669 C 0.11158 0.77432 0.61089 0.0
C670 C 0.13035 0.79107 0.63207 0.0
H671 H 0.09864 0.72938 0.59286 0.0
H672 H 0.09516 0.78633 0.59572 0.0
C673 C 0.15151 0.77485 0.65127 0.0
C674 C 0.74386 0.64476 0.14812 0.0
C675 C 0.72741 0.62302 0.1297 0.0
H676 H 0.78841 0.66504 0.15918 0.0
C677 C 0.74376 0.60461 0.10792 0.0
H678 H 0.73169 0.65945 0.16486 0.0
C679 C 0.77612 0.6077 0.10478 0.0
C680 C 0.79255 0.62961 0.12299 0.0
H681 H 0.73156 0.58777 0.09333 0.0
H682 H 0.78825 0.59297 0.08804 0.0
C683 C 0.77619 0.6482 0.14462 0.0
C684 C 0.90829 0.24426 0.60983 0.0
C685 C 0.89015 0.2276 0.63162 0.0
H686 H 0.92052 0.28905 0.59107 0.0
C687 C 0.86924 0.24389 0.6511 0.0
H688 H 0.92447 0.23222 0.59443 0.0
C689 C 0.86653 0.27642 0.64875 0.0
C690 C 0.88504 0.29306 0.62722 0.0
H691 H 0.85476 0.23148 0.66787 0.0
H692 H 0.85047 0.28858 0.66418 0.0
C693 C 0.90591 0.27673 0.6078 0.0
C694 C 0.27606 0.41486 0.10787 0.0
C695 C 0.29244 0.39658 0.12971 0.0
H696 H 0.23155 0.42634 0.08798 0.0
C697 C 0.27603 0.37486 0.1482 0.0
H698 H 0.28822 0.43167 0.09322 0.0
C699 C 0.2437 0.37134 0.14473 0.0
C700 C 0.2273 0.38984 0.12306 0.0
H701 H 0.28821 0.36025 0.16498 0.0
H702 H 0.2315 0.35454 0.15935 0.0
C703 C 0.24371 0.4117 0.10475 0.0
C704 C 0.36574 0.14958 0.24227 0.0
C705 C 0.38434 0.12814 0.22567 0.0
H706 H 0.35379 0.16858 0.28719 0.0
C707 C 0.40518 0.10875 0.24205 0.0
H708 H 0.3497 0.16498 0.23007 0.0
C709 C 0.40743 0.11072 0.27453 0.0
C710 C 0.3892 0.13243 0.29114 0.0
H711 H 0.41984 0.09208 0.22976 0.0
H712 H 0.4236 0.09535 0.2866 0.0
C713 C 0.36833 0.15187 0.27481 0.0
C714 C 0.37301 0.86901 0.7444 0.0
C715 C 0.39446 0.88835 0.7286 0.0
H716 H 0.35292 0.85618 0.7886 0.0
C717 C 0.41224 0.91014 0.74564 0.0
H718 H 0.35879 0.85225 0.73169 0.0
C719 C 0.40897 0.9123 0.77804 0.0
C720 C 0.38752 0.89304 0.79388 0.0
H721 H 0.42881 0.92544 0.73396 0.0
H722 H 0.42331 0.92902 0.79069 0.0
C723 C 0.3694 0.8715 0.77683 0.0
C724 C 0.65298 0.87074 0.24186 0.0
C725 C 0.63442 0.89201 0.22504 0.0
H726 H 0.66466 0.85203 0.28696 0.0
C727 C 0.61332 0.91134 0.24116 0.0
H728 H 0.66922 0.85538 0.22986 0.0
C729 C 0.61079 0.90951 0.27363 0.0
C730 C 0.62901 0.888 0.29047 0.0
H731 H 0.59867 0.92788 0.22869 0.0
H732 H 0.59445 0.92485 0.28551 0.0
C733 C 0.65013 0.86859 0.27439 0.0
C734 C 0.6511 0.1462 0.77678 0.0
C735 C 0.63279 0.12456 0.7935 0.0
H736 H 0.66215 0.16578 0.73189 0.0
C737 C 0.6115 0.10541 0.7773 0.0
H738 H 0.66746 0.16144 0.78881 0.0
C739 C 0.60855 0.1078 0.74489 0.0
C740 C 0.6265 0.12972 0.72818 0.0
H741 H 0.59703 0.08861 0.7897 0.0
H742 H 0.59208 0.0926 0.73294 0.0
C743 C 0.64781 0.14892 0.74434 0.0
C744 C 0.87195 0.77929 0.60139 0.0
C745 C 0.89766 0.79368 0.61608 0.0
H746 H 0.84959 0.73587 0.58926 0.0
C747 C 0.92215 0.77519 0.62765 0.0
H748 H 0.85273 0.7932 0.59244 0.0
C749 C 0.92075 0.74267 0.62503 0.0
C750 C 0.89441 0.72816 0.61167 0.0
H751 H 0.9422 0.78586 0.639 0.0
H752 H 0.9397 0.72883 0.63467 0.0
C753 C 0.8701 0.74664 0.59965 0.0
C754 C 0.77672 0.36682 0.15028 0.0
C755 C 0.79317 0.38597 0.12918 0.0
H756 H 0.73193 0.35396 0.16897 0.0
C757 C 0.77664 0.40712 0.11024 0.0
H758 H 0.78902 0.35053 0.16534 0.0
C759 C 0.74413 0.40894 0.11217 0.0
C760 C 0.72768 0.39002 0.13344 0.0
H761 H 0.78883 0.42221 0.09385 0.0
H762 H 0.73189 0.42525 0.09707 0.0
C763 C 0.74418 0.36901 0.15258 0.0
C764 C 0.15619 0.24417 0.64432 0.0
C765 C 0.13627 0.22717 0.6244 0.0
H766 H 0.17382 0.28936 0.65729 0.0
C767 C 0.11963 0.24295 0.60087 0.0
H768 H 0.16948 0.23244 0.66246 0.0
C769 C 0.12188 0.27542 0.5981 0.0
C770 C 0.14125 0.29252 0.61845 0.0
H771 H 0.10422 0.23032 0.58513 0.0
H772 H 0.10807 0.28719 0.58038 0.0
C773 C 0.15887 0.27663 0.64119 0.0
C774 C 0.24347 0.61284 0.11055 0.0
C775 C 0.22702 0.63396 0.1296 0.0
H776 H 0.28818 0.59476 0.09712 0.0
C777 C 0.24354 0.65313 0.15063 0.0
H778 H 0.23122 0.59775 0.09421 0.0
C779 C 0.2761 0.65097 0.15275 0.0
C780 C 0.29253 0.62999 0.1335 0.0
H781 H 0.2313 0.6694 0.16577 0.0
H782 H 0.28841 0.66602 0.16908 0.0
C783 C 0.276 0.61106 0.11229 0.0
C784 C 0.86204 0.24622 0.37592 0.0
C785 C 0.88226 0.22906 0.39532 0.0
H786 H 0.84487 0.29158 0.36317 0.0
C787 C 0.90011 0.24476 0.41804 0.0
H788 H 0.84783 0.23456 0.35841 0.0
C789 C 0.89863 0.27729 0.42058 0.0
C790 C 0.87886 0.29454 0.4008 0.0
H791 H 0.91579 0.23201 0.43337 0.0
H792 H 0.91328 0.28898 0.43771 0.0
C793 C 0.86016 0.27874 0.37882 0.0
C794 C 0.24388 0.40771 0.90917 0.0
C795 C 0.22745 0.3864 0.89026 0.0
H796 H 0.28856 0.42609 0.92242 0.0
C797 C 0.24399 0.36723 0.86928 0.0
H798 H 0.23161 0.42282 0.92546 0.0
C799 C 0.27653 0.36955 0.86709 0.0
C800 C 0.29295 0.39071 0.88621 0.0
H801 H 0.23176 0.35081 0.85425 0.0
H802 H 0.28886 0.35448 0.85081 0.0
C803 C 0.27639 0.40966 0.90735 0.0
C804 C 0.11942 0.77633 0.41764 0.0
C805 C 0.13703 0.79188 0.39461 0.0
H806 H 0.1067 0.73227 0.43794 0.0
C807 C 0.15733 0.77462 0.37536 0.0
H808 H 0.10369 0.78916 0.43286 0.0
C809 C 0.1595 0.74216 0.37868 0.0
C810 C 0.14101 0.72649 0.40094 0.0
H811 H 0.17136 0.78616 0.35762 0.0
H812 H 0.17482 0.72924 0.36311 0.0
C813 C 0.12119 0.74385 0.42059 0.0
C814 C 0.77374 0.64981 0.86741 0.0
C815 C 0.79051 0.63042 0.88796 0.0
H816 H 0.72869 0.66262 0.84949 0.0
C817 C 0.77435 0.60849 0.9064 0.0
H818 H 0.78576 0.6667 0.85273 0.0
C819 C 0.74185 0.60631 0.9047 0.0
C820 C 0.72505 0.62566 0.88416 0.0
H821 H 0.78681 0.59318 0.92235 0.0
H822 H 0.72987 0.58951 0.91951 0.0
C823 C 0.74121 0.64727 0.86533 0.0
C824 C 0.61984 0.91757 0.77965 0.0
C825 C 0.63956 0.89758 0.79669 0.0
H826 H 0.60282 0.93098 0.73451 0.0
C827 C 0.65804 0.87559 0.78072 0.0
H828 H 0.60535 0.93471 0.79149 0.0
C829 C 0.65613 0.87303 0.74818 0.0
C830 C 0.63611 0.89279 0.7312 0.0
H831 H 0.67326 0.85976 0.79341 0.0
H832 H 0.6703 0.85563 0.73634 0.0
C833 C 0.61833 0.91537 0.74713 0.0
C834 C 0.65854 0.14068 0.24223 0.0
C835 C 0.64065 0.11807 0.22637 0.0
H836 H 0.66928 0.16212 0.28632 0.0
C837 C 0.62094 0.09806 0.24349 0.0
H838 H 0.67376 0.15652 0.22949 0.0
C839 C 0.61859 0.10107 0.27594 0.0
C840 C 0.63549 0.12451 0.29165 0.0
H841 H 0.60691 0.08043 0.23175 0.0
H842 H 0.6029 0.08561 0.28858 0.0
C843 C 0.65577 0.14406 0.27464 0.0
C844 C 0.39883 0.10136 0.74475 0.0
C845 C 0.38167 0.12451 0.72897 0.0
H846 H 0.41131 0.08146 0.789 0.0
C847 C 0.36187 0.14443 0.74606 0.0
H848 H 0.41418 0.08564 0.73206 0.0
C849 C 0.35976 0.14162 0.77857 0.0
C850 C 0.37784 0.11923 0.79443 0.0
H851 H 0.34819 0.16228 0.73433 0.0
H852 H 0.34484 0.15768 0.79136 0.0
C853 C 0.39715 0.09893 0.77726 0.0
C854 C 0.36112 0.87997 0.24142 0.0
C855 C 0.37942 0.90218 0.22547 0.0
H856 H 0.3497 0.85917 0.28564 0.0
C857 C 0.39932 0.92207 0.24253 0.0
H858 H 0.34574 0.86424 0.22873 0.0
C859 C 0.40138 0.91936 0.27501 0.0
C860 C 0.38399 0.89635 0.29084 0.0
H861 H 0.41367 0.93938 0.23072 0.0
H862 H 0.41718 0.93473 0.28762 0.0
C863 C 0.36358 0.8769 0.27387 0.0
C864 C 0.12154 0.08373 0.5278 0.0
C865 C 0.10262 0.10492 0.54437 0.0
H866 H 0.13771 0.06902 0.48258 0.0
C867 C 0.08066 0.1231 0.52811 0.0
H868 H 0.13853 0.06933 0.53992 0.0
C869 C 0.08012 0.12285 0.49556 0.0
C870 C 0.10161 0.1045 0.47881 0.0
H871 H 0.06544 0.13923 0.54045 0.0
H872 H 0.06449 0.13882 0.48354 0.0
C873 C 0.12106 0.08354 0.49504 0.0
C874 C 0.40391 0.58097 0.99544 0.0
C875 C 0.42006 0.60382 0.97818 0.0
H876 H 0.38886 0.56593 0.04068 0.0
C877 C 0.43918 0.62554 0.99391 0.0
H878 H 0.38945 0.56362 0.9838 0.0
C879 C 0.43885 0.62686 0.02664 0.0
C880 C 0.41939 0.60648 0.04365 0.0
H881 H 0.452 0.64328 0.98103 0.0
H882 H 0.45145 0.64556 0.03832 0.0
C883 C 0.40355 0.58231 0.02797 0.0
C884 C 0.93831 0.90062 0.49222 0.0
C885 C 0.91535 0.91732 0.47573 0.0
H886 H 0.95467 0.8854 0.53689 0.0
C887 C 0.89429 0.93646 0.4922 0.0
H888 H 0.95511 0.88606 0.47998 0.0
C889 C 0.89394 0.93597 0.52493 0.0
C890 C 0.9147 0.91641 0.54129 0.0
H891 H 0.87646 0.94965 0.47992 0.0
H892 H 0.87593 0.94893 0.53723 0.0
C893 C 0.93802 0.90021 0.52478 0.0
C894 C 0.58123 0.39264 0.99408 0.0
C895 C 0.60043 0.41408 0.97809 0.0
H896 H 0.5688 0.3733 0.03875 0.0
C897 C 0.61663 0.43711 0.99505 0.0
H898 H 0.56836 0.37477 0.98143 0.0
C899 C 0.61691 0.43625 0.02759 0.0
C900 C 0.60095 0.41237 0.04359 0.0
H901 H 0.63116 0.45426 0.98319 0.0
H902 H 0.63162 0.45276 0.04009 0.0
C903 C 0.58148 0.39179 0.02683 0.0
C904 C 0.12666 0.93588 0.52352 0.0
C905 C 0.10732 0.91506 0.54013 0.0
H906 H 0.14324 0.95012 0.47829 0.0
C907 C 0.0851 0.8971 0.52384 0.0
H908 H 0.14385 0.95011 0.53564 0.0
C909 C 0.0848 0.89705 0.49128 0.0
C910 C 0.10664 0.91504 0.47456 0.0
H911 H 0.06951 0.88127 0.53617 0.0
H912 H 0.06903 0.88118 0.47925 0.0
C913 C 0.1263 0.9359 0.49076 0.0
C914 C 0.58015 0.62339 0.99334 0.0
C915 C 0.59968 0.60309 0.97638 0.0
H916 H 0.56732 0.64027 0.03886 0.0
C917 C 0.61607 0.57946 0.9922 0.0
H918 H 0.56712 0.64168 0.98154 0.0
C919 C 0.61615 0.57861 0.02474 0.0
C920 C 0.59987 0.60143 0.04187 0.0
H921 H 0.63083 0.56315 0.97954 0.0
H922 H 0.631 0.5617 0.03644 0.0
C923 C 0.58025 0.62257 0.02608 0.0
C924 C 0.93587 0.1214 0.49198 0.0
C925 C 0.91349 0.1039 0.47548 0.0
H926 H 0.95215 0.13648 0.53675 0.0
C927 C 0.894 0.08296 0.49177 0.0
H928 H 0.95152 0.13731 0.47984 0.0
C929 C 0.89426 0.08255 0.52453 0.0
C930 C 0.91408 0.10303 0.54102 0.0
H931 H 0.87665 0.06911 0.47944 0.0
H932 H 0.87712 0.06838 0.53679 0.0
C933 C 0.93622 0.12091 0.52454 0.0
C934 C 0.43899 0.39464 0.99325 0.0
C935 C 0.41946 0.41483 0.97619 0.0
H936 H 0.45209 0.37835 0.03889 0.0
C937 C 0.40344 0.43887 0.99183 0.0
H938 H 0.45174 0.37606 0.9816 0.0
C939 C 0.40368 0.44022 0.02436 0.0
C940 C 0.4199 0.41751 0.04165 0.0
H941 H 0.3887 0.45511 0.97908 0.0
H942 H 0.38907 0.45743 0.03595 0.0
C943 C 0.43921 0.39598 0.02598 0.0
C944 C 0.52582 0.08277 0.12102 0.0
C945 C 0.54332 0.10446 0.10359 0.0
H946 H 0.48041 0.06844 0.13618 0.0
C947 C 0.52784 0.12517 0.08327 0.0
H948 H 0.53725 0.06621 0.13648 0.0
C949 C 0.49512 0.12649 0.08312 0.0
C950 C 0.47781 0.10709 0.10329 0.0
H951 H 0.5409 0.14201 0.06946 0.0
H952 H 0.48362 0.14431 0.06921 0.0
C953 C 0.4933 0.08406 0.12085 0.0
C954 C 0.39877 0.99495 0.58314 0.0
C955 C 0.41875 0.97906 0.60387 0.0
H956 H 0.3801 0.03949 0.56941 0.0
C957 C 0.44019 0.9962 0.62197 0.0
H958 H 0.38216 0.98217 0.5688 0.0
C959 C 0.43894 0.02874 0.6224 0.0
C960 C 0.41634 0.04456 0.60463 0.0
H961 H 0.45623 0.98447 0.63775 0.0
H962 H 0.45404 0.04135 0.63846 0.0
C963 C 0.39759 0.02769 0.58349 0.0
C964 C 0.49224 0.89436 0.08217 0.0
C965 C 0.47674 0.91528 0.1023 0.0
H966 H 0.53648 0.87509 0.06832 0.0
C967 C 0.49421 0.93721 0.11944 0.0
H968 H 0.47919 0.87734 0.06857 0.0
C969 C 0.52674 0.93596 0.11925 0.0
C970 C 0.54225 0.91272 0.10196 0.0
H971 H 0.48277 0.95393 0.13474 0.0
H972 H 0.53961 0.95176 0.13441 0.0
C973 C 0.52496 0.89307 0.08201 0.0
C974 C 0.62428 0.0245 0.58224 0.0
C975 C 0.60329 0.04048 0.6019 0.0
H976 H 0.64377 0.9799 0.56985 0.0
C977 C 0.58089 0.02343 0.6189 0.0
H978 H 0.64165 0.03721 0.56876 0.0
C979 C 0.58216 0.9909 0.61957 0.0
C980 C 0.60575 0.97501 0.60317 0.0
H981 H 0.56408 0.03525 0.63379 0.0
H982 H 0.56629 0.97837 0.63495 0.0
C983 C 0.62549 0.99176 0.58286 0.0
C984 C 0.4938 0.89232 0.93918 0.0
C985 C 0.47728 0.9126 0.91926 0.0
H986 H 0.53897 0.8753 0.95289 0.0
C987 C 0.4936 0.93573 0.90253 0.0
H988 H 0.48165 0.87441 0.95245 0.0
C989 C 0.52614 0.93621 0.90274 0.0
C990 C 0.54281 0.9136 0.91973 0.0
H991 H 0.48133 0.95201 0.88742 0.0
H992 H 0.53822 0.95283 0.88779 0.0
C993 C 0.52654 0.89284 0.93943 0.0
C994 C 0.62326 0.99609 0.43519 0.0
C995 C 0.60403 0.97942 0.41433 0.0
H996 H 0.63979 0.04138 0.4494 0.0
C997 C 0.58197 0.99565 0.3962 0.0
H998 H 0.64033 0.98402 0.44954 0.0
C999 C 0.58172 0.02822 0.39605 0.0
C1000 C 0.60345 0.04499 0.41411 0.0
H1001 H 0.56649 0.98327 0.38032 0.0
H1002 H 0.56607 0.0402 0.38008 0.0
C1003 C 0.62295 0.02886 0.4351 0.0
C1004 C 0.49244 0.08155 0.89985 0.0
C1005 C 0.47562 0.1039 0.91704 0.0
H1006 H 0.5374 0.06588 0.88479 0.0
C1007 C 0.4917 0.12439 0.93717 0.0
H1008 H 0.48051 0.06514 0.88457 0.0
C1009 C 0.52445 0.12487 0.93727 0.0
C1010 C 0.54117 0.10482 0.91727 0.0
H1011 H 0.47915 0.14172 0.95081 0.0
H1012 H 0.53648 0.14256 0.95095 0.0
C1013 C 0.52499 0.08198 0.89999 0.0
C1014 C 0.39581 0.99238 0.4358 0.0
C1015 C 0.41543 0.9764 0.41477 0.0
H1016 H 0.37818 0.03709 0.45035 0.0
C1017 C 0.43723 0.99332 0.39694 0.0
H1018 H 0.37891 0.97973 0.44992 0.0
C1019 C 0.43689 0.02588 0.39725 0.0
C1020 C 0.41464 0.04196 0.41531 0.0
H1021 H 0.45297 0.98145 0.38094 0.0
H1022 H 0.4524 0.03838 0.38148 0.0
C1023 C 0.39539 0.02514 0.43604 0.0
C1024 C 0.11632 0.49562 0.08064 0.0
C1025 C 0.10011 0.47822 0.10333 0.0
H1026 H 0.13131 0.54097 0.06585 0.0
C1027 C 0.08087 0.4938 0.125 0.0
H1028 H 0.13088 0.4841 0.06333 0.0
C1029 C 0.08111 0.52653 0.12645 0.0
C1030 C 0.10061 0.54369 0.10624 0.0
H1031 H 0.06799 0.4808 0.14261 0.0
H1032 H 0.06839 0.5381 0.14511 0.0
C1033 C 0.11659 0.52815 0.0821 0.0
C1034 C 0.08129 0.52591 0.89514 0.0
C1035 C 0.10041 0.54151 0.91694 0.0
H1036 H 0.06895 0.48162 0.87485 0.0
C1037 C 0.11654 0.5241 0.93963 0.0
H1038 H 0.06849 0.53891 0.87751 0.0
C1039 C 0.11683 0.49158 0.93808 0.0
C1040 C 0.10097 0.47604 0.91384 0.0
H1041 H 0.13101 0.53563 0.95703 0.0
H1042 H 0.13148 0.47876 0.95435 0.0
C1043 C 0.08156 0.49319 0.8936 0.0
C1044 C 0.02598 0.62071 0.43778 0.0
C1045 C 0.0433 0.60342 0.41588 0.0
H1046 H 0.98071 0.63601 0.45227 0.0
C1047 C 0.02764 0.58328 0.39507 0.0
H1048 H 0.03756 0.63602 0.45443 0.0
C1049 C 0.99492 0.5833 0.39379 0.0
C1050 C 0.9778 0.60346 0.41333 0.0
H1051 H 0.04056 0.56956 0.37808 0.0
H1052 H 0.98328 0.56964 0.37583 0.0
C1053 C 0.99346 0.6207 0.43654 0.0
C1054 C 0.90237 0.52824 0.93763 0.0
C1055 C 0.91825 0.54398 0.91354 0.0
H1056 H 0.88833 0.48402 0.95629 0.0
C1057 C 0.9379 0.52705 0.89333 0.0
H1058 H 0.88753 0.5409 0.95388 0.0
C1059 C 0.93836 0.49431 0.89471 0.0
C1060 C 0.91919 0.47851 0.91631 0.0
H1061 H 0.95053 0.53878 0.87468 0.0
H1062 H 0.95134 0.48148 0.87708 0.0
C1063 C 0.90285 0.49571 0.93903 0.0
C1064 C 0.02644 0.4009 0.43635 0.0
C1065 C 0.04224 0.41793 0.41308 0.0
H1066 H 0.98224 0.38563 0.45406 0.0
C1067 C 0.02522 0.43781 0.39319 0.0
H1068 H 0.0391 0.3858 0.45234 0.0
C1069 C 0.99249 0.43775 0.39423 0.0
C1070 C 0.97672 0.41778 0.41513 0.0
H1071 H 0.03696 0.45132 0.37518 0.0
H1072 H 0.97966 0.45124 0.377 0.0
C1073 C 0.9939 0.40079 0.43734 0.0
C1074 C 0.90375 0.49169 0.08126 0.0
C1075 C 0.91968 0.47614 0.10539 0.0
H1076 H 0.88941 0.53574 0.06257 0.0
C1077 C 0.93909 0.4933 0.12569 0.0
H1078 H 0.8891 0.47886 0.06495 0.0
C1079 C 0.93927 0.52603 0.12432 0.0
C1080 C 0.92005 0.54161 0.10265 0.0
H1081 H 0.95177 0.48171 0.14436 0.0
H1082 H 0.95205 0.53901 0.142 0.0
C1083 C 0.90395 0.52422 0.07988 0.0
C1084 C 0.99405 0.39793 0.58366 0.0
C1085 C 0.97839 0.41556 0.60655 0.0
H1086 H 0.03812 0.38221 0.56615 0.0
C1087 C 0.99558 0.43575 0.62604 0.0
H1088 H 0.98126 0.38257 0.56798 0.0
C1089 C 0.02831 0.43558 0.62494 0.0
C1090 C 0.04392 0.41518 0.60438 0.0
H1091 H 0.98396 0.44971 0.64376 0.0
H1092 H 0.04126 0.44941 0.64185 0.0
C1093 C 0.02658 0.39772 0.5826 0.0
C1094 C 0.02802 0.61338 0.5844 0.0
C1095 C 0.04345 0.59942 0.60978 0.0
H1096 H 0.98414 0.62639 0.56449 0.0
C1097 C 0.02612 0.58234 0.63194 0.0
H1098 H 0.04098 0.62625 0.56675 0.0
C1099 C 0.99339 0.58254 0.63075 0.0
C1100 C 0.97797 0.59972 0.60732 0.0
H1101 H 0.03762 0.57127 0.65165 0.0
H1102 H 0.98032 0.5716 0.64956 0.0
C1103 C 0.9955 0.61345 0.58312 0.0
C1104 C 0.9912 0.13188 0.32909 0.0
C1105 C 0.97342 0.10854 0.34422 0.0
H1106 H 0.03679 0.15071 0.31946 0.0
C1107 C 0.98956 0.08299 0.35748 0.0
H1108 H 0.9797 0.15194 0.31866 0.0
C1109 C 0.02259 0.08238 0.35813 0.0
C1110 C 0.04032 0.1072 0.34538 0.0
H1111 H 0.97676 0.0647 0.36958 0.0
H1112 H 0.03413 0.06358 0.37065 0.0
C1113 C 0.02411 0.13116 0.32955 0.0
C1114 C 0.39181 0.49044 0.82921 0.0
C1115 C 0.41518 0.47339 0.84505 0.0
H1116 H 0.37208 0.5355 0.81897 0.0
C1117 C 0.44001 0.49036 0.85875 0.0
H1118 H 0.37227 0.47833 0.81843 0.0
C1119 C 0.4399 0.52339 0.85906 0.0
C1120 C 0.41495 0.54037 0.8457 0.0
H1121 H 0.45836 0.47818 0.87131 0.0
H1122 H 0.45817 0.53552 0.87184 0.0
C1123 C 0.39169 0.52339 0.82953 0.0
C1124 C 0.02698 0.88913 0.32681 0.0
C1125 C 0.04474 0.9124 0.34209 0.0
H1126 H 0.98139 0.87048 0.31683 0.0
C1127 C 0.02858 0.938 0.35525 0.0
H1128 H 0.0385 0.86903 0.31645 0.0
C1129 C 0.99556 0.93875 0.35566 0.0
C1130 C 0.97783 0.91401 0.34274 0.0
H1131 H 0.04136 0.95625 0.36744 0.0
H1132 H 0.98399 0.95759 0.3681 0.0
C1133 C 0.99407 0.88998 0.32703 0.0
C1134 C 0.62659 0.49386 0.82915 0.0
C1135 C 0.60374 0.47667 0.84566 0.0
H1136 H 0.64537 0.53911 0.81772 0.0
C1137 C 0.57878 0.49339 0.85934 0.0
H1138 H 0.6462 0.48194 0.81834 0.0
C1139 C 0.5783 0.52642 0.859 0.0
C1140 C 0.60276 0.54363 0.84495 0.0
H1141 H 0.5608 0.48109 0.87238 0.0
H1142 H 0.55999 0.53842 0.87181 0.0
C1143 C 0.6261 0.52682 0.82879 0.0
C1144 C 0.99702 0.89162 0.6893 0.0
C1145 C 0.98032 0.91512 0.67328 0.0
H1146 H 0.04186 0.8714 0.69966 0.0
C1147 C 0.99763 0.93961 0.65938 0.0
H1148 H 0.98465 0.8723 0.70018 0.0
C1149 C 0.03062 0.93914 0.65914 0.0
C1150 C 0.04726 0.9141 0.6727 0.0
H1151 H 0.98571 0.95808 0.64674 0.0
H1152 H 0.04296 0.95723 0.64629 0.0
C1153 C 0.02999 0.8911 0.68898 0.0
C1154 C 0.6288 0.48947 0.19061 0.0
C1155 C 0.60542 0.4723 0.17483 0.0
H1156 H 0.64846 0.53464 0.20082 0.0
C1157 C 0.58052 0.48913 0.16121 0.0
H1158 H 0.64839 0.47747 0.20134 0.0
C1159 C 0.58056 0.52216 0.16092 0.0
C1160 C 0.6055 0.53927 0.17423 0.0
H1161 H 0.56216 0.47685 0.14869 0.0
H1162 H 0.56222 0.5342 0.1482 0.0
C1163 C 0.62885 0.52242 0.19032 0.0
C1164 C 0.99067 0.13066 0.69032 0.0
C1165 C 0.97435 0.10665 0.67458 0.0
H1166 H 0.03518 0.1513 0.70132 0.0
C1167 C 0.99195 0.08165 0.66209 0.0
H1168 H 0.97808 0.15034 0.70021 0.0
C1169 C 0.02498 0.08211 0.66292 0.0
C1170 C 0.04125 0.10768 0.67609 0.0
H1171 H 0.98032 0.06282 0.64965 0.0
H1172 H 0.0377 0.06367 0.65102 0.0
C1173 C 0.02357 0.13122 0.69096 0.0
C1174 C 0.43951 0.53073 0.16115 0.0
C1175 C 0.41463 0.5476 0.17477 0.0
H1176 H 0.45774 0.48563 0.14811 0.0
C1177 C 0.3912 0.53047 0.19054 0.0
H1178 H 0.4579 0.54298 0.14864 0.0
C1179 C 0.3911 0.49751 0.19022 0.0
C1180 C 0.41442 0.48063 0.17412 0.0
H1181 H 0.37162 0.5425 0.20127 0.0
H1182 H 0.37145 0.48533 0.20072 0.0
C1183 C 0.43942 0.49769 0.16083 0.0
C1184 C 0.3278 0.03089 0.12277 0.0
C1185 C 0.34536 0.04791 0.10057 0.0
H1186 H 0.31565 0.98579 0.14144 0.0
C1187 C 0.36029 0.03098 0.07647 0.0
H1188 H 0.31602 0.04299 0.14171 0.0
C1189 C 0.36012 0.99796 0.07634 0.0
C1190 C 0.34497 0.98095 0.10028 0.0
H1191 H 0.37415 0.04314 0.05901 0.0
H1192 H 0.37384 0.98583 0.05878 0.0
C1193 C 0.32759 0.99793 0.12261 0.0
C1194 C 0.49895 0.85894 0.58377 0.0
C1195 C 0.48121 0.8462 0.60858 0.0
H1196 H 0.54477 0.87044 0.56615 0.0
C1197 C 0.49743 0.8305 0.63263 0.0
H1198 H 0.48741 0.87137 0.56492 0.0
C1199 C 0.53035 0.83006 0.63338 0.0
C1200 C 0.54815 0.84516 0.61003 0.0
H1201 H 0.48474 0.82042 0.65217 0.0
H1202 H 0.54184 0.81968 0.65347 0.0
C1203 C 0.53199 0.85836 0.58445 0.0
C1204 C 0.69245 0.02176 0.12307 0.0
C1205 C 0.67517 0.03889 0.1008 0.0
H1206 H 0.70393 0.97658 0.1419 0.0
C1207 C 0.66013 0.02205 0.07668 0.0
H1208 H 0.70431 0.03378 0.14203 0.0
C1209 C 0.65996 0.98903 0.07657 0.0
C1210 C 0.67478 0.97194 0.1006 0.0
H1211 H 0.64649 0.0343 0.05916 0.0
H1212 H 0.64618 0.97699 0.05897 0.0
C1213 C 0.69224 0.9888 0.12299 0.0
C1214 C 0.52503 0.18954 0.63216 0.0
C1215 C 0.54125 0.17398 0.60801 0.0
H1216 H 0.4806 0.20038 0.65296 0.0
C1217 C 0.52356 0.16169 0.58294 0.0
H1218 H 0.53769 0.19927 0.65189 0.0
C1219 C 0.49053 0.1625 0.58348 0.0
C1220 C 0.47435 0.17548 0.60917 0.0
H1221 H 0.53511 0.1494 0.564 0.0
H1222 H 0.47775 0.15074 0.56498 0.0
C1223 C 0.49212 0.19018 0.63278 0.0
C1224 C 0.327 0.02285 0.89638 0.0
C1225 C 0.34397 0.03987 0.91903 0.0
H1226 H 0.31596 0.9778 0.87687 0.0
C1227 C 0.35887 0.02286 0.94308 0.0
H1228 H 0.31526 0.03499 0.87745 0.0
C1229 C 0.35921 0.98985 0.94278 0.0
C1230 C 0.34471 0.97291 0.91839 0.0
H1231 H 0.37228 0.03502 0.96088 0.0
H1232 H 0.37287 0.97772 0.96037 0.0
C1233 C 0.3274 0.98989 0.89604 0.0
C1234 C 0.52682 0.85867 0.43653 0.0
C1235 C 0.54442 0.84603 0.41159 0.0
H1236 H 0.48109 0.86998 0.45443 0.0
C1237 C 0.52807 0.83025 0.38764 0.0
H1238 H 0.53847 0.87116 0.45531 0.0
C1239 C 0.49517 0.82972 0.38706 0.0
C1240 C 0.47751 0.84475 0.41052 0.0
H1241 H 0.54065 0.82023 0.36801 0.0
H1242 H 0.48356 0.81933 0.36702 0.0
C1243 C 0.49379 0.85796 0.43605 0.0
C1244 C 0.6911 0.02706 0.89689 0.0
C1245 C 0.67372 0.0443 0.91902 0.0
H1246 H 0.70328 0.98175 0.87882 0.0
C1247 C 0.65914 0.02764 0.94355 0.0
H1248 H 0.70262 0.03893 0.87763 0.0
C1249 C 0.65948 0.99463 0.94421 0.0
C1250 C 0.67445 0.97734 0.92039 0.0
H1251 H 0.64543 0.03998 0.96097 0.0
H1252 H 0.64601 0.98268 0.96211 0.0
C1253 C 0.69149 0.9941 0.89759 0.0
C1254 C 0.49116 0.16316 0.43698 0.0
C1255 C 0.47354 0.17554 0.41195 0.0
H1256 H 0.53692 0.15218 0.45497 0.0
C1257 C 0.48984 0.19116 0.38786 0.0
H1258 H 0.47955 0.15081 0.45587 0.0
C1259 C 0.52275 0.1918 0.38727 0.0
C1260 C 0.54044 0.17704 0.41086 0.0
H1261 H 0.47724 0.20096 0.36815 0.0
H1262 H 0.53434 0.20206 0.36715 0.0
C1263 C 0.52419 0.16399 0.43649 0.0
C1264 C 0.08021 0.3587 0.98946 0.0
C1265 C 0.10504 0.34498 0.97258 0.0
H1266 H 0.06199 0.37185 0.03454 0.0
C1267 C 0.12836 0.32913 0.98971 0.0
H1268 H 0.06191 0.37127 0.97721 0.0
C1269 C 0.12841 0.32948 0.02266 0.0
C1270 C 0.10515 0.34568 0.03954 0.0
H1271 H 0.14789 0.31832 0.97768 0.0
H1272 H 0.14798 0.31891 0.03484 0.0
C1273 C 0.08026 0.35905 0.02248 0.0
C1274 C 0.1283 0.69054 0.99771 0.0
C1275 C 0.10516 0.6742 0.98074 0.0
H1276 H 0.14753 0.70181 0.04277 0.0
C1277 C 0.0802 0.66072 0.99769 0.0
H1278 H 0.14791 0.70119 0.9856 0.0
C1279 C 0.07998 0.66108 0.03071 0.0
C1280 C 0.10471 0.67493 0.04768 0.0
H1281 H 0.06202 0.64782 0.98555 0.0
H1282 H 0.06165 0.64841 0.04288 0.0
C1283 C 0.12807 0.6909 0.03066 0.0
C1284 C 0.82938 0.62777 0.48904 0.0
C1285 C 0.84564 0.60474 0.47185 0.0
H1286 H 0.81881 0.64709 0.53427 0.0
C1287 C 0.85969 0.58006 0.48862 0.0
H1288 H 0.81831 0.64718 0.47705 0.0
C1289 C 0.86007 0.58007 0.52161 0.0
C1290 C 0.8463 0.6047 0.53876 0.0
H1291 H 0.87253 0.56196 0.47633 0.0
H1292 H 0.87314 0.56194 0.53359 0.0
C1293 C 0.82965 0.62771 0.52201 0.0
C1294 C 0.93987 0.35926 0.99667 0.0
C1295 C 0.91489 0.34585 0.9797 0.0
H1296 H 0.95844 0.37148 0.04187 0.0
C1297 C 0.89171 0.32955 0.99666 0.0
H1298 H 0.95809 0.37214 0.98454 0.0
C1299 C 0.89193 0.32915 0.02961 0.0
C1300 C 0.91532 0.34505 0.04666 0.0
H1301 H 0.87209 0.31894 0.98455 0.0
H1302 H 0.87244 0.31827 0.04172 0.0
C1303 C 0.94008 0.35887 0.02969 0.0
C1304 C 0.19256 0.39506 0.52193 0.0
C1305 C 0.17563 0.41761 0.53908 0.0
H1306 H 0.20358 0.37589 0.47676 0.0
C1307 C 0.16079 0.4418 0.52224 0.0
H1308 H 0.20425 0.37603 0.53394 0.0
C1309 C 0.16048 0.44176 0.48923 0.0
C1310 C 0.17492 0.41748 0.47214 0.0
H1311 H 0.14743 0.45953 0.53451 0.0
H1312 H 0.14686 0.45946 0.47721 0.0
C1313 C 0.19218 0.39498 0.48898 0.0
C1314 C 0.88948 0.6903 0.98941 0.0
C1315 C 0.91272 0.67469 0.97195 0.0
H1316 H 0.87041 0.70043 0.0348 0.0
C1317 C 0.93796 0.66129 0.98845 0.0
H1318 H 0.86965 0.70086 0.97765 0.0
C1319 C 0.93837 0.66098 0.02148 0.0
C1320 C 0.91358 0.67413 0.03889 0.0
H1321 H 0.95621 0.64889 0.97593 0.0
H1322 H 0.95694 0.64839 0.03328 0.0
C1323 C 0.88992 0.69005 0.02234 0.0
C1324 C 0.8604 0.44303 0.49733 0.0
C1325 C 0.8452 0.41918 0.48024 0.0
H1326 H 0.87456 0.46011 0.54254 0.0
C1327 C 0.82789 0.3967 0.49716 0.0
H1328 H 0.87407 0.46069 0.48524 0.0
C1329 C 0.82822 0.39633 0.53012 0.0
C1330 C 0.84581 0.41846 0.54718 0.0
H1331 H 0.81592 0.37792 0.48496 0.0
H1332 H 0.81648 0.37729 0.54214 0.0
C1333 C 0.86067 0.4427 0.53034 0.0
C1334 C 0.19236 0.624 0.53099 0.0
C1335 C 0.17513 0.6015 0.54794 0.0
H1336 H 0.20414 0.64303 0.48595 0.0
C1337 C 0.16035 0.57732 0.53093 0.0
H1338 H 0.20401 0.64301 0.54314 0.0
C1339 C 0.16037 0.57736 0.49792 0.0
C1340 C 0.17522 0.60154 0.48099 0.0
H1341 H 0.14673 0.55965 0.54305 0.0
H1342 H 0.14678 0.55971 0.48574 0.0
C1343 C 0.19244 0.624 0.49803 0.0
C1344 C 0.27216 0.14952 0.41145 0.0
C1345 C 0.29053 0.12986 0.3926 0.0
H1346 H 0.22593 0.16345 0.42521 0.0
C1347 C 0.27499 0.10882 0.37223 0.0
H1348 H 0.28318 0.16599 0.42732 0.0
C1349 C 0.24208 0.10756 0.37064 0.0
C1350 C 0.22371 0.127 0.38972 0.0
H1351 H 0.28832 0.09335 0.35717 0.0
H1352 H 0.23105 0.09122 0.35463 0.0
C1353 C 0.23926 0.14794 0.41019 0.0
C1354 C 0.41048 0.74235 0.86949 0.0
C1355 C 0.39191 0.72364 0.88916 0.0
H1356 H 0.42381 0.78886 0.85583 0.0
C1357 C 0.37148 0.73885 0.91035 0.0
H1358 H 0.4264 0.73159 0.85292 0.0
C1359 C 0.36964 0.77173 0.91183 0.0
C1360 C 0.38851 0.79044 0.89247 0.0
H1361 H 0.35664 0.72526 0.92584 0.0
H1362 H 0.35367 0.78248 0.92836 0.0
C1363 C 0.40896 0.77525 0.87128 0.0
C1364 C 0.74605 0.87108 0.40932 0.0
C1365 C 0.72754 0.8911 0.39103 0.0
H1366 H 0.79238 0.85671 0.42221 0.0
C1367 C 0.74292 0.91235 0.37074 0.0
H1368 H 0.73516 0.85443 0.4251 0.0
C1369 C 0.77581 0.91347 0.3687 0.0
C1370 C 0.79432 0.89365 0.38722 0.0
H1371 H 0.72948 0.9281 0.3561 0.0
H1372 H 0.78671 0.92999 0.3528 0.0
C1373 C 0.77894 0.8725 0.4076 0.0
C1374 C 0.61039 0.24211 0.87127 0.0
C1375 C 0.63081 0.22682 0.89239 0.0
H1376 H 0.59314 0.28584 0.85294 0.0
C1377 C 0.64985 0.24545 0.91168 0.0
H1378 H 0.59542 0.22857 0.85587 0.0
C1379 C 0.64819 0.27835 0.91017 0.0
C1380 C 0.62779 0.29365 0.88904 0.0
H1381 H 0.66581 0.23464 0.92814 0.0
H1382 H 0.66315 0.29188 0.92559 0.0
C1383 C 0.60905 0.27502 0.86946 0.0
C1384 C 0.27904 0.86986 0.60772 0.0
C1385 C 0.29728 0.88943 0.62685 0.0
H1386 H 0.23288 0.85588 0.59358 0.0
C1387 C 0.28158 0.91022 0.64732 0.0
H1388 H 0.29018 0.85359 0.59176 0.0
C1389 C 0.24866 0.91133 0.64874 0.0
C1390 C 0.23042 0.892 0.62938 0.0
H1391 H 0.29479 0.92563 0.66258 0.0
H1392 H 0.23753 0.92749 0.66482 0.0
C1393 C 0.24611 0.8713 0.60881 0.0
C1394 C 0.64792 0.73772 0.10838 0.0
C1395 C 0.62775 0.72249 0.12985 0.0
H1396 H 0.66546 0.78138 0.09005 0.0
C1397 C 0.60931 0.74118 0.14961 0.0
H1398 H 0.66265 0.72415 0.09282 0.0
C1399 C 0.61073 0.77408 0.14767 0.0
C1400 C 0.63094 0.7893 0.12624 0.0
H1401 H 0.5936 0.73041 0.16638 0.0
H1402 H 0.596 0.78767 0.16323 0.0
C1403 C 0.64966 0.77061 0.10675 0.0
C1404 C 0.77292 0.10742 0.64928 0.0
C1405 C 0.7913 0.12652 0.62982 0.0
H1406 H 0.72668 0.09346 0.66311 0.0
C1407 C 0.77578 0.14718 0.6091 0.0
H1408 H 0.78393 0.09132 0.66549 0.0
C1409 C 0.74287 0.14878 0.60794 0.0
C1410 C 0.72449 0.12943 0.62714 0.0
H1411 H 0.78912 0.16242 0.5938 0.0
H1412 H 0.73186 0.16498 0.59183 0.0
C1413 C 0.74002 0.10869 0.64778 0.0
C1414 C 0.40918 0.24578 0.14805 0.0
C1415 C 0.38899 0.23051 0.12665 0.0
H1416 H 0.42629 0.28951 0.16668 0.0
C1417 C 0.37027 0.24914 0.10713 0.0
H1418 H 0.4239 0.23223 0.16363 0.0
C1419 C 0.372 0.28203 0.1087 0.0
C1420 C 0.39214 0.29732 0.13014 0.0
H1421 H 0.35449 0.23833 0.09045 0.0
H1422 H 0.35727 0.29556 0.09311 0.0
C1423 C 0.41059 0.27869 0.14993 0.0
C1424 C 0.10877 0.36989 0.24147 0.0
C1425 C 0.1278 0.3892 0.22285 0.0
H1426 H 0.09491 0.35658 0.28791 0.0
C1427 C 0.14848 0.41013 0.23815 0.0
H1428 H 0.09264 0.35354 0.23064 0.0
C1429 C 0.15013 0.41169 0.27104 0.0
C1430 C 0.13081 0.39267 0.28965 0.0
H1431 H 0.16367 0.42533 0.22463 0.0
H1432 H 0.16633 0.42797 0.28186 0.0
C1433 C 0.1101 0.37176 0.27437 0.0
C1434 C 0.1123 0.64889 0.74606 0.0
C1435 C 0.13238 0.62735 0.73089 0.0
H1436 H 0.09503 0.6675 0.78969 0.0
C1437 C 0.15079 0.60762 0.74959 0.0
H1438 H 0.0978 0.66463 0.73245 0.0
C1439 C 0.14885 0.6091 0.78247 0.0
C1440 C 0.12876 0.63063 0.79765 0.0
H1441 H 0.16646 0.59082 0.73886 0.0
H1442 H 0.16332 0.59334 0.79606 0.0
C1443 C 0.11066 0.65066 0.77895 0.0
C1444 C 0.87156 0.61013 0.23775 0.0
C1445 C 0.89239 0.6308 0.22232 0.0
H1446 H 0.85364 0.59266 0.28158 0.0
C1447 C 0.91167 0.65001 0.24079 0.0
H1448 H 0.85619 0.59501 0.22434 0.0
C1449 C 0.9104 0.64828 0.2737 0.0
C1450 C 0.88952 0.62765 0.28912 0.0
H1451 H 0.92792 0.66615 0.22984 0.0
H1452 H 0.92577 0.66338 0.28713 0.0
C1453 C 0.86997 0.60873 0.27065 0.0
C1454 C 0.91082 0.36936 0.77787 0.0
C1455 C 0.89239 0.38924 0.79643 0.0
H1456 H 0.92414 0.35542 0.73146 0.0
C1457 C 0.87226 0.41058 0.78108 0.0
H1458 H 0.92651 0.35267 0.78873 0.0
C1459 C 0.87054 0.41198 0.74819 0.0
C1460 C 0.88925 0.39237 0.72962 0.0
H1461 H 0.85753 0.42624 0.79456 0.0
H1462 H 0.85477 0.4286 0.73733 0.0
C1463 C 0.90943 0.37106 0.74496 0.0
C1464 C 0.74928 0.86156 0.64062 0.0
C1465 C 0.73179 0.88797 0.63162 0.0
H1466 H 0.79436 0.84313 0.65334 0.0
C1467 C 0.74763 0.91691 0.62906 0.0
H1468 H 0.7379 0.83902 0.6433 0.0
C1469 C 0.77995 0.91936 0.63495 0.0
C1470 C 0.79747 0.89303 0.64407 0.0
H1471 H 0.73497 0.93787 0.62248 0.0
H1472 H 0.79128 0.9419 0.63208 0.0
C1473 C 0.78162 0.86408 0.64687 0.0
C1474 C 0.65052 0.24099 0.1077 0.0
C1475 C 0.63339 0.22216 0.12852 0.0
H1476 H 0.66166 0.28754 0.09237 0.0
C1477 C 0.61406 0.23724 0.15081 0.0
H1478 H 0.66556 0.23034 0.09026 0.0
C1479 C 0.61195 0.27012 0.15229 0.0
C1480 C 0.62882 0.28894 0.13125 0.0
H1481 H 0.60051 0.22356 0.16736 0.0
H1482 H 0.59697 0.28077 0.16978 0.0
C1483 C 0.64812 0.27387 0.10893 0.0
C1484 C 0.24172 0.14778 0.65255 0.0
C1485 C 0.22531 0.12378 0.63685 0.0
H1486 H 0.28582 0.17132 0.65969 0.0
C1487 C 0.24202 0.10495 0.61556 0.0
H1488 H 0.22953 0.16314 0.66865 0.0
C1489 C 0.27425 0.10958 0.61051 0.0
C1490 C 0.29064 0.13375 0.62592 0.0
H1491 H 0.23014 0.08654 0.60272 0.0
H1492 H 0.2864 0.09413 0.59447 0.0
C1493 C 0.27389 0.15287 0.64696 0.0
C1494 C 0.36983 0.77873 0.10697 0.0
C1495 C 0.38682 0.79762 0.12785 0.0
H1496 H 0.35885 0.73213 0.09165 0.0
C1497 C 0.40605 0.78261 0.15025 0.0
H1498 H 0.35488 0.78932 0.08944 0.0
C1499 C 0.4082 0.74974 0.15179 0.0
C1500 C 0.39148 0.73085 0.13069 0.0
H1501 H 0.41948 0.79634 0.16685 0.0
H1502 H 0.42309 0.73915 0.16937 0.0
C1503 C 0.37228 0.74586 0.10825 0.0
C1504 C 0.74102 0.15322 0.3707 0.0
C1505 C 0.72451 0.13812 0.39502 0.0
H1506 H 0.7852 0.1597 0.34713 0.0
C1507 C 0.7411 0.11723 0.41436 0.0
H1508 H 0.72892 0.16899 0.35496 0.0
C1509 C 0.77329 0.11197 0.40991 0.0
C1510 C 0.7898 0.12677 0.38545 0.0
H1511 H 0.72915 0.10485 0.43302 0.0
H1512 H 0.78533 0.09622 0.42574 0.0
C1513 C 0.77318 0.14743 0.36582 0.0
C1514 C 0.37233 0.27515 0.91177 0.0
C1515 C 0.39175 0.29011 0.88944 0.0
H1516 H 0.35463 0.23172 0.93053 0.0
C1517 C 0.40861 0.27118 0.86853 0.0
H1518 H 0.35879 0.28891 0.92823 0.0
C1519 C 0.40637 0.23831 0.87014 0.0
C1520 C 0.38689 0.22334 0.89241 0.0
H1521 H 0.42368 0.28174 0.85104 0.0
H1522 H 0.4199 0.22455 0.85367 0.0
C1523 C 0.36978 0.24228 0.91311 0.0
C1524 C 0.24493 0.87188 0.36567 0.0
C1525 C 0.22832 0.89472 0.38277 0.0
H1526 H 0.28918 0.84915 0.35736 0.0
C1527 C 0.24481 0.9122 0.40539 0.0
H1528 H 0.23292 0.85756 0.34849 0.0
C1529 C 0.27698 0.90741 0.41043 0.0
C1530 C 0.29358 0.88441 0.39361 0.0
H1531 H 0.23278 0.92968 0.4193 0.0
H1532 H 0.28893 0.92184 0.42757 0.0
C1533 C 0.27707 0.86663 0.37119 0.0
C1534 C 0.64664 0.74171 0.91203 0.0
C1535 C 0.62664 0.72697 0.89007 0.0
H1536 H 0.66467 0.78494 0.93094 0.0
C1537 C 0.60904 0.74613 0.87002 0.0
H1538 H 0.66075 0.72777 0.92784 0.0
C1539 C 0.61115 0.77899 0.87209 0.0
C1540 C 0.6312 0.79373 0.894 0.0
H1541 H 0.59349 0.73576 0.85284 0.0
H1542 H 0.59706 0.79292 0.85626 0.0
C1543 C 0.64904 0.77457 0.91385 0.0
C1544 C 0.87691 0.60661 0.77283 0.0
C1545 C 0.8895 0.63289 0.78869 0.0
H1546 H 0.86404 0.58569 0.72872 0.0
C1547 C 0.8982 0.65904 0.77074 0.0
H1548 H 0.86973 0.58602 0.78583 0.0
C1549 C 0.89482 0.65877 0.73796 0.0
C1550 C 0.88242 0.63245 0.72208 0.0
H1551 H 0.90764 0.67975 0.78201 0.0
H1552 H 0.90214 0.67931 0.72495 0.0
C1553 C 0.87335 0.60642 0.74003 0.0
C1554 C 0.90688 0.37007 0.28173 0.0
C1555 C 0.88741 0.3923 0.29671 0.0
H1556 H 0.92411 0.351 0.23829 0.0
C1557 C 0.87019 0.41291 0.2778 0.0
H1558 H 0.92049 0.35368 0.29547 0.0
C1559 C 0.87264 0.41153 0.24493 0.0
C1560 C 0.89207 0.38926 0.22994 0.0
H1561 H 0.85504 0.43028 0.28837 0.0
H1562 H 0.85903 0.42792 0.23118 0.0
C1563 C 0.90903 0.36844 0.24886 0.0
C1564 C 0.11188 0.36727 0.77053 0.0
C1565 C 0.12865 0.38844 0.7893 0.0
H1566 H 0.10064 0.35194 0.72402 0.0
C1567 C 0.14799 0.41073 0.77417 0.0
H1568 H 0.09688 0.34978 0.78122 0.0
C1569 C 0.15053 0.4118 0.74129 0.0
C1570 C 0.13349 0.39085 0.72252 0.0
H1571 H 0.16146 0.42738 0.7878 0.0
H1572 H 0.1656 0.42922 0.7306 0.0
C1573 C 0.11411 0.36859 0.73766 0.0
C1574 C 0.11325 0.6503 0.28254 0.0
C1575 C 0.13278 0.62819 0.2976 0.0
H1576 H 0.096 0.66914 0.23904 0.0
C1577 C 0.15005 0.60754 0.27875 0.0
H1578 H 0.0996 0.66672 0.29623 0.0
C1579 C 0.14761 0.60877 0.24588 0.0
C1580 C 0.12814 0.63092 0.23082 0.0
H1581 H 0.16525 0.59025 0.28938 0.0
H1582 H 0.16127 0.59235 0.23219 0.0
C1583 C 0.11111 0.65178 0.24966 0.0
loop_
_geom_bond_atom_site_label_1
_geom_bond_atom_site_label_2
_geom_bond_distance
_geom_bond_site_symmetry_2
_ccdc_geom_bond_type
In0 O1 2.294 . S
In0 O2 2.326 . S
In0 O6 2.266 . S
In0 O7 2.326 . S
In0 O8 2.266 . S
In0 O9 2.326 . S
In0 O11 2.294 . S
In0 O12 2.326 . S
O1 In0 2.294 . S
O1 C10 1.240 . S
O2 In0 2.326 . S
O2 C10 1.252 . S
C3 O6 1.252 . S
C3 O7 1.260 . S
C4 O11 1.240 . S
C4 O12 1.252 . S
C5 O8 1.252 . S
C5 O9 1.260 . S
O6 In0 2.266 . S
O6 C3 1.252 . S
O7 In0 2.326 . S
O7 C3 1.260 . S
O8 In0 2.266 . S
O8 C5 1.252 . S
O9 In0 2.326 . S
O9 C5 1.260 . S
C10 O1 1.240 . S
C10 O2 1.252 . S
O11 In0 2.294 . S
O11 C4 1.240 . S
O12 In0 2.326 . S
O12 C4 1.252 . S
In13 O14 2.294 . S
In13 O15 2.326 . S
In13 O19 2.266 . S
In13 O20 2.326 . S
In13 O21 2.266 . S
In13 O22 2.326 . S
In13 O24 2.294 . S
In13 O25 2.326 . S
O14 In13 2.294 . S
O14 C23 1.240 . S
O15 In13 2.326 . S
O15 C23 1.252 . S
C16 O19 1.252 . S
C16 O20 1.260 . S
C17 O24 1.240 . S
C17 O25 1.252 . S
C18 O21 1.252 . S
C18 O22 1.260 . S
O19 In13 2.266 . S
O19 C16 1.252 . S
O20 In13 2.326 . S
O20 C16 1.260 . S
O21 In13 2.266 . S
O21 C18 1.252 . S
O22 In13 2.326 . S
O22 C18 1.260 . S
C23 O14 1.240 . S
C23 O15 1.252 . S
O24 In13 2.294 . S
O24 C17 1.240 . S
O25 In13 2.326 . S
O25 C17 1.252 . S
In26 O27 2.294 . S
In26 O28 2.326 . S
In26 O32 2.266 . S
In26 O33 2.326 . S
In26 O34 2.266 . S
In26 O35 2.326 . S
In26 O37 2.294 . S
In26 O38 2.326 . S
O27 In26 2.294 . S
O27 C36 1.240 . S
O28 In26 2.326 . S
O28 C36 1.252 . S
C29 O32 1.252 . S
C29 O33 1.260 . S
C30 O37 1.240 . S
C30 O38 1.252 . S
C31 O34 1.252 . S
C31 O35 1.260 . S
O32 In26 2.266 . S
O32 C29 1.252 . S
O33 In26 2.326 . S
O33 C29 1.260 . S
O34 In26 2.266 . S
O34 C31 1.252 . S
O35 In26 2.326 . S
O35 C31 1.260 . S
C36 O27 1.240 . S
C36 O28 1.252 . S
O37 In26 2.294 . S
O37 C30 1.240 . S
O38 In26 2.326 . S
O38 C30 1.252 . S
In39 O40 2.294 . S
In39 O41 2.326 . S
In39 O45 2.266 . S
In39 O46 2.326 . S
In39 O47 2.266 . S
In39 O48 2.326 . S
In39 O50 2.294 . S
In39 O51 2.326 . S
O40 In39 2.294 . S
O40 C49 1.240 . S
O41 In39 2.326 . S
O41 C49 1.252 . S
C42 O45 1.252 . S
C42 O46 1.260 . S
C43 O50 1.240 . S
C43 O51 1.252 . S
C44 O47 1.252 . S
C44 O48 1.260 . S
O45 In39 2.266 . S
O45 C42 1.252 . S
O46 In39 2.326 . S
O46 C42 1.260 . S
O47 In39 2.266 . S
O47 C44 1.252 . S
O48 In39 2.326 . S
O48 C44 1.260 . S
C49 O40 1.240 . S
C49 O41 1.252 . S
O50 In39 2.294 . S
O50 C43 1.240 . S
O51 In39 2.326 . S
O51 C43 1.252 . S
In52 O53 2.294 . S
In52 O54 2.326 . S
In52 O58 2.266 . S
In52 O59 2.326 . S
In52 O60 2.266 . S
In52 O61 2.326 . S
In52 O63 2.294 . S
In52 O64 2.326 . S
O53 In52 2.294 . S
O53 C62 1.240 . S
O54 In52 2.326 . S
O54 C62 1.252 . S
C55 O58 1.252 . S
C55 O59 1.260 . S
C56 O63 1.240 . S
C56 O64 1.252 . S
C57 O60 1.252 . S
C57 O61 1.260 . S
O58 In52 2.266 . S
O58 C55 1.252 . S
O59 In52 2.326 . S
O59 C55 1.260 . S
O60 In52 2.266 . S
O60 C57 1.252 . S
O61 In52 2.326 . S
O61 C57 1.260 . S
C62 O53 1.240 . S
C62 O54 1.252 . S
O63 In52 2.294 . S
O63 C56 1.240 . S
O64 In52 2.326 . S
O64 C56 1.252 . S
In65 O66 2.294 . S
In65 O67 2.326 . S
In65 O71 2.266 . S
In65 O72 2.326 . S
In65 O73 2.266 . S
In65 O74 2.326 . S
In65 O76 2.294 . S
In65 O77 2.326 . S
O66 In65 2.294 . S
O66 C75 1.240 . S
O67 In65 2.326 . S
O67 C75 1.252 . S
C68 O71 1.252 . S
C68 O72 1.260 . S
C69 O76 1.240 . S
C69 O77 1.252 . S
C70 O73 1.252 . S
C70 O74 1.260 . S
O71 In65 2.266 . S
O71 C68 1.252 . S
O72 In65 2.326 . S
O72 C68 1.260 . S
O73 In65 2.266 . S
O73 C70 1.252 . S
O74 In65 2.326 . S
O74 C70 1.260 . S
C75 O66 1.240 . S
C75 O67 1.252 . S
O76 In65 2.294 . S
O76 C69 1.240 . S
O77 In65 2.326 . S
O77 C69 1.252 . S
In78 O79 2.294 . S
In78 O80 2.326 . S
In78 O84 2.266 . S
In78 O85 2.326 . S
In78 O86 2.266 . S
In78 O87 2.326 . S
In78 O89 2.294 . S
In78 O90 2.326 . S
O79 In78 2.294 . S
O79 C88 1.240 . S
O80 In78 2.326 . S
O80 C88 1.252 . S
C81 O84 1.252 . S
C81 O85 1.260 . S
C82 O89 1.240 . S
C82 O90 1.252 . S
C83 O86 1.252 . S
C83 O87 1.260 . S
O84 In78 2.266 . S
O84 C81 1.252 . S
O85 In78 2.326 . S
O85 C81 1.260 . S
O86 In78 2.266 . S
O86 C83 1.252 . S
O87 In78 2.326 . S
O87 C83 1.260 . S
C88 O79 1.240 . S
C88 O80 1.252 . S
O89 In78 2.294 . S
O89 C82 1.240 . S
O90 In78 2.326 . S
O90 C82 1.252 . S
In91 O92 2.294 . S
In91 O93 2.326 . S
In91 O97 2.266 . S
In91 O98 2.326 . S
In91 O99 2.266 . S
In91 O100 2.326 . S
In91 O102 2.294 . S
In91 O103 2.326 . S
O92 In91 2.294 . S
O92 C101 1.240 . S
O93 In91 2.326 . S
O93 C101 1.252 . S
C94 O97 1.252 . S
C94 O98 1.260 . S
C95 O102 1.240 . S
C95 O103 1.252 . S
C96 O99 1.252 . S
C96 O100 1.260 . S
O97 In91 2.266 . S
O97 C94 1.252 . S
O98 In91 2.326 . S
O98 C94 1.260 . S
O99 In91 2.266 . S
O99 C96 1.252 . S
O100 In91 2.326 . S
O100 C96 1.260 . S
C101 O92 1.240 . S
C101 O93 1.252 . S
O102 In91 2.294 . S
O102 C95 1.240 . S
O103 In91 2.326 . S
O103 C95 1.252 . S
In104 O105 2.294 . S
In104 O106 2.326 . S
In104 O110 2.266 . S
In104 O111 2.326 . S
In104 O112 2.266 . S
In104 O113 2.326 . S
In104 O115 2.294 . S
In104 O116 2.326 . S
O105 In104 2.294 . S
O105 C114 1.240 . S
O106 In104 2.326 . S
O106 C114 1.252 . S
C107 O110 1.252 . S
C107 O111 1.260 . S
C108 O115 1.240 . S
C108 O116 1.252 . S
C109 O112 1.252 . S
C109 O113 1.260 . S
O110 In104 2.266 . S
O110 C107 1.252 . S
O111 In104 2.326 . S
O111 C107 1.260 . S
O112 In104 2.266 . S
O112 C109 1.252 . S
O113 In104 2.326 . S
O113 C109 1.260 . S
C114 O105 1.240 . S
C114 O106 1.252 . S
O115 In104 2.294 . S
O115 C108 1.240 . S
O116 In104 2.326 . S
O116 C108 1.252 . S
In117 O118 2.294 . S
In117 O119 2.326 . S
In117 O123 2.266 . S
In117 O124 2.326 . S
In117 O125 2.266 . S
In117 O126 2.326 . S
In117 O128 2.294 . S
In117 O129 2.326 . S
O118 In117 2.294 . S
O118 C127 1.240 . S
O119 In117 2.326 . S
O119 C127 1.252 . S
C120 O123 1.252 . S
C120 O124 1.260 . S
C121 O128 1.240 . S
C121 O129 1.252 . S
C122 O125 1.252 . S
C122 O126 1.260 . S
O123 In117 2.266 . S
O123 C120 1.252 . S
O124 In117 2.326 . S
O124 C120 1.260 . S
O125 In117 2.266 . S
O125 C122 1.252 . S
O126 In117 2.326 . S
O126 C122 1.260 . S
C127 O118 1.240 . S
C127 O119 1.252 . S
O128 In117 2.294 . S
O128 C121 1.240 . S
O129 In117 2.326 . S
O129 C121 1.252 . S
In130 O131 2.294 . S
In130 O132 2.326 . S
In130 O136 2.266 . S
In130 O137 2.326 . S
In130 O138 2.266 . S
In130 O139 2.326 . S
In130 O141 2.294 . S
In130 O142 2.326 . S
O131 In130 2.294 . S
O131 C140 1.240 . S
O132 In130 2.326 . S
O132 C140 1.252 . S
C133 O136 1.252 . S
C133 O137 1.260 . S
C134 O141 1.240 . S
C134 O142 1.252 . S
C135 O138 1.252 . S
C135 O139 1.260 . S
O136 In130 2.266 . S
O136 C133 1.252 . S
O137 In130 2.326 . S
O137 C133 1.260 . S
O138 In130 2.266 . S
O138 C135 1.252 . S
O139 In130 2.326 . S
O139 C135 1.260 . S
C140 O131 1.240 . S
C140 O132 1.252 . S
O141 In130 2.294 . S
O141 C134 1.240 . S
O142 In130 2.326 . S
O142 C134 1.252 . S
In143 O144 2.294 . S
In143 O145 2.326 . S
In143 O149 2.266 . S
In143 O150 2.326 . S
In143 O151 2.266 . S
In143 O152 2.326 . S
In143 O154 2.294 . S
In143 O155 2.326 . S
O144 In143 2.294 . S
O144 C153 1.240 . S
O145 In143 2.326 . S
O145 C153 1.252 . S
C146 O149 1.252 . S
C146 O150 1.260 . S
C147 O154 1.240 . S
C147 O155 1.252 . S
C148 O151 1.252 . S
C148 O152 1.260 . S
O149 In143 2.266 . S
O149 C146 1.252 . S
O150 In143 2.326 . S
O150 C146 1.260 . S
O151 In143 2.266 . S
O151 C148 1.252 . S
O152 In143 2.326 . S
O152 C148 1.260 . S
C153 O144 1.240 . S
C153 O145 1.252 . S
O154 In143 2.294 . S
O154 C147 1.240 . S
O155 In143 2.326 . S
O155 C147 1.252 . S
In156 O157 2.294 . S
In156 O158 2.326 . S
In156 O162 2.266 . S
In156 O163 2.326 . S
In156 O164 2.266 . S
In156 O165 2.326 . S
In156 O167 2.294 . S
In156 O168 2.326 . S
O157 In156 2.294 . S
O157 C166 1.240 . S
O158 In156 2.326 . S
O158 C166 1.252 . S
C159 O162 1.252 . S
C159 O163 1.260 . S
C160 O167 1.240 . S
C160 O168 1.252 . S
C161 O164 1.252 . S
C161 O165 1.260 . S
O162 In156 2.266 . S
O162 C159 1.252 . S
O163 In156 2.326 . S
O163 C159 1.260 . S
O164 In156 2.266 . S
O164 C161 1.252 . S
O165 In156 2.326 . S
O165 C161 1.260 . S
C166 O157 1.240 . S
C166 O158 1.252 . S
O167 In156 2.294 . S
O167 C160 1.240 . S
O168 In156 2.326 . S
O168 C160 1.252 . S
In169 O170 2.294 . S
In169 O171 2.326 . S
In169 O175 2.266 . S
In169 O176 2.326 . S
In169 O177 2.266 . S
In169 O178 2.326 . S
In169 O180 2.294 . S
In169 O181 2.326 . S
O170 In169 2.294 . S
O170 C179 1.240 . S
O171 In169 2.326 . S
O171 C179 1.252 . S
C172 O175 1.252 . S
C172 O176 1.260 . S
C173 O180 1.240 . S
C173 O181 1.252 . S
C174 O177 1.252 . S
C174 O178 1.260 . S
O175 In169 2.266 . S
O175 C172 1.252 . S
O176 In169 2.326 . S
O176 C172 1.260 . S
O177 In169 2.266 . S
O177 C174 1.252 . S
O178 In169 2.326 . S
O178 C174 1.260 . S
C179 O170 1.240 . S
C179 O171 1.252 . S
O180 In169 2.294 . S
O180 C173 1.240 . S
O181 In169 2.326 . S
O181 C173 1.252 . S
In182 O183 2.294 . S
In182 O184 2.326 . S
In182 O188 2.266 . S
In182 O189 2.326 . S
In182 O190 2.266 . S
In182 O191 2.326 . S
In182 O193 2.294 . S
In182 O194 2.326 . S
O183 In182 2.294 . S
O183 C192 1.240 . S
O184 In182 2.326 . S
O184 C192 1.252 . S
C185 O188 1.252 . S
C185 O189 1.260 . S
C186 O193 1.240 . S
C186 O194 1.252 . S
C187 O190 1.252 . S
C187 O191 1.260 . S
O188 In182 2.266 . S
O188 C185 1.252 . S
O189 In182 2.326 . S
O189 C185 1.260 . S
O190 In182 2.266 . S
O190 C187 1.252 . S
O191 In182 2.326 . S
O191 C187 1.260 . S
C192 O183 1.240 . S
C192 O184 1.252 . S
O193 In182 2.294 . S
O193 C186 1.240 . S
O194 In182 2.326 . S
O194 C186 1.252 . S
In195 O196 2.294 . S
In195 O197 2.326 . S
In195 O201 2.266 . S
In195 O202 2.326 . S
In195 O203 2.266 . S
In195 O204 2.326 . S
In195 O206 2.294 . S
In195 O207 2.326 . S
O196 In195 2.294 . S
O196 C205 1.240 . S
O197 In195 2.326 . S
O197 C205 1.252 . S
C198 O201 1.252 . S
C198 O202 1.260 . S
C199 O206 1.240 . S
C199 O207 1.252 . S
C200 O203 1.252 . S
C200 O204 1.260 . S
O201 In195 2.266 . S
O201 C198 1.252 . S
O202 In195 2.326 . S
O202 C198 1.260 . S
O203 In195 2.266 . S
O203 C200 1.252 . S
O204 In195 2.326 . S
O204 C200 1.260 . S
C205 O196 1.240 . S
C205 O197 1.252 . S
O206 In195 2.294 . S
O206 C199 1.240 . S
O207 In195 2.326 . S
O207 C199 1.252 . S
In208 O209 2.294 . S
In208 O210 2.326 . S
In208 O214 2.266 . S
In208 O215 2.326 . S
In208 O216 2.266 . S
In208 O217 2.326 . S
In208 O219 2.294 . S
In208 O220 2.326 . S
O209 In208 2.294 . S
O209 C218 1.240 . S
O210 In208 2.326 . S
O210 C218 1.252 . S
C211 O214 1.252 . S
C211 O215 1.260 . S
C212 O219 1.240 . S
C212 O220 1.252 . S
C213 O216 1.252 . S
C213 O217 1.260 . S
O214 In208 2.266 . S
O214 C211 1.252 . S
O215 In208 2.326 . S
O215 C211 1.260 . S
O216 In208 2.266 . S
O216 C213 1.252 . S
O217 In208 2.326 . S
O217 C213 1.260 . S
C218 O209 1.240 . S
C218 O210 1.252 . S
O219 In208 2.294 . S
O219 C212 1.240 . S
O220 In208 2.326 . S
O220 C212 1.252 . S
In221 O222 2.294 . S
In221 O223 2.326 . S
In221 O227 2.266 . S
In221 O228 2.326 . S
In221 O229 2.266 . S
In221 O230 2.326 . S
In221 O232 2.294 . S
In221 O233 2.326 . S
O222 In221 2.294 . S
O222 C231 1.240 . S
O223 In221 2.326 . S
O223 C231 1.252 . S
C224 O227 1.252 . S
C224 O228 1.260 . S
C225 O232 1.240 . S
C225 O233 1.252 . S
C226 O229 1.252 . S
C226 O230 1.260 . S
O227 In221 2.266 . S
O227 C224 1.252 . S
O228 In221 2.326 . S
O228 C224 1.260 . S
O229 In221 2.266 . S
O229 C226 1.252 . S
O230 In221 2.326 . S
O230 C226 1.260 . S
C231 O222 1.240 . S
C231 O223 1.252 . S
O232 In221 2.294 . S
O232 C225 1.240 . S
O233 In221 2.326 . S
O233 C225 1.252 . S
In234 O235 2.294 . S
In234 O236 2.326 . S
In234 O240 2.266 . S
In234 O241 2.326 . S
In234 O242 2.266 . S
In234 O243 2.326 . S
In234 O245 2.294 . S
In234 O246 2.326 . S
O235 In234 2.294 . S
O235 C244 1.240 . S
O236 In234 2.326 . S
O236 C244 1.252 . S
C237 O240 1.252 . S
C237 O241 1.260 . S
C238 O245 1.240 . S
C238 O246 1.252 . S
C239 O242 1.252 . S
C239 O243 1.260 . S
O240 In234 2.266 . S
O240 C237 1.252 . S
O241 In234 2.326 . S
O241 C237 1.260 . S
O242 In234 2.266 . S
O242 C239 1.252 . S
O243 In234 2.326 . S
O243 C239 1.260 . S
C244 O235 1.240 . S
C244 O236 1.252 . S
O245 In234 2.294 . S
O245 C238 1.240 . S
O246 In234 2.326 . S
O246 C238 1.252 . S
In247 O248 2.294 . S
In247 O249 2.326 . S
In247 O253 2.266 . S
In247 O254 2.326 . S
In247 O255 2.266 . S
In247 O256 2.326 . S
In247 O258 2.294 . S
In247 O259 2.326 . S
O248 In247 2.294 . S
O248 C257 1.240 . S
O249 In247 2.326 . S
O249 C257 1.252 . S
C250 O253 1.252 . S
C250 O254 1.260 . S
C251 O258 1.240 . S
C251 O259 1.252 . S
C252 O255 1.252 . S
C252 O256 1.260 . S
O253 In247 2.266 . S
O253 C250 1.252 . S
O254 In247 2.326 . S
O254 C250 1.260 . S
O255 In247 2.266 . S
O255 C252 1.252 . S
O256 In247 2.326 . S
O256 C252 1.260 . S
C257 O248 1.240 . S
C257 O249 1.252 . S
O258 In247 2.294 . S
O258 C251 1.240 . S
O259 In247 2.326 . S
O259 C251 1.252 . S
In260 O261 2.294 . S
In260 O262 2.326 . S
In260 O266 2.266 . S
In260 O267 2.326 . S
In260 O268 2.266 . S
In260 O269 2.326 . S
In260 O271 2.294 . S
In260 O272 2.326 . S
O261 In260 2.294 . S
O261 C270 1.240 . S
O262 In260 2.326 . S
O262 C270 1.252 . S
C263 O266 1.252 . S
C263 O267 1.260 . S
C264 O271 1.240 . S
C264 O272 1.252 . S
C265 O268 1.252 . S
C265 O269 1.260 . S
O266 In260 2.266 . S
O266 C263 1.252 . S
O267 In260 2.326 . S
O267 C263 1.260 . S
O268 In260 2.266 . S
O268 C265 1.252 . S
O269 In260 2.326 . S
O269 C265 1.260 . S
C270 O261 1.240 . S
C270 O262 1.252 . S
O271 In260 2.294 . S
O271 C264 1.240 . S
O272 In260 2.326 . S
O272 C264 1.252 . S
In273 O274 2.294 . S
In273 O275 2.326 . S
In273 O279 2.266 . S
In273 O280 2.326 . S
In273 O281 2.266 . S
In273 O282 2.326 . S
In273 O284 2.294 . S
In273 O285 2.326 . S
O274 In273 2.294 . S
O274 C283 1.240 . S
O275 In273 2.326 . S
O275 C283 1.252 . S
C276 O279 1.252 . S
C276 O280 1.260 . S
C277 O284 1.240 . S
C277 O285 1.252 . S
C278 O281 1.252 . S
C278 O282 1.260 . S
O279 In273 2.266 . S
O279 C276 1.252 . S
O280 In273 2.326 . S
O280 C276 1.260 . S
O281 In273 2.266 . S
O281 C278 1.252 . S
O282 In273 2.326 . S
O282 C278 1.260 . S
C283 O274 1.240 . S
C283 O275 1.252 . S
O284 In273 2.294 . S
O284 C277 1.240 . S
O285 In273 2.326 . S
O285 C277 1.252 . S
In286 O287 2.294 . S
In286 O288 2.326 . S
In286 O292 2.266 . S
In286 O293 2.326 . S
In286 O294 2.266 . S
In286 O295 2.326 . S
In286 O297 2.294 . S
In286 O298 2.326 . S
O287 In286 2.294 . S
O287 C296 1.240 . S
O288 In286 2.326 . S
O288 C296 1.252 . S
C289 O292 1.252 . S
C289 O293 1.260 . S
C290 O297 1.240 . S
C290 O298 1.252 . S
C291 O294 1.252 . S
C291 O295 1.260 . S
O292 In286 2.266 . S
O292 C289 1.252 . S
O293 In286 2.326 . S
O293 C289 1.260 . S
O294 In286 2.266 . S
O294 C291 1.252 . S
O295 In286 2.326 . S
O295 C291 1.260 . S
C296 O287 1.240 . S
C296 O288 1.252 . S
O297 In286 2.294 . S
O297 C290 1.240 . S
O298 In286 2.326 . S
O298 C290 1.252 . S
In299 O300 2.294 . S
In299 O301 2.326 . S
In299 O305 2.266 . S
In299 O306 2.326 . S
In299 O307 2.266 . S
In299 O308 2.326 . S
In299 O310 2.294 . S
In299 O311 2.326 . S
O300 In299 2.294 . S
O300 C309 1.240 . S
O301 In299 2.326 . S
O301 C309 1.252 . S
C302 O305 1.252 . S
C302 O306 1.260 . S
C303 O310 1.240 . S
C303 O311 1.252 . S
C304 O307 1.252 . S
C304 O308 1.260 . S
O305 In299 2.266 . S
O305 C302 1.252 . S
O306 In299 2.326 . S
O306 C302 1.260 . S
O307 In299 2.266 . S
O307 C304 1.252 . S
O308 In299 2.326 . S
O308 C304 1.260 . S
C309 O300 1.240 . S
C309 O301 1.252 . S
O310 In299 2.294 . S
O310 C303 1.240 . S
O311 In299 2.326 . S
O311 C303 1.252 . S
In312 O313 2.294 . S
In312 O314 2.326 . S
In312 O318 2.266 . S
In312 O319 2.326 . S
In312 O320 2.266 . S
In312 O321 2.326 . S
In312 O323 2.294 . S
In312 O324 2.326 . S
O313 In312 2.294 . S
O313 C322 1.240 . S
O314 In312 2.326 . S
O314 C322 1.252 . S
C315 O318 1.252 . S
C315 O319 1.260 . S
C316 O323 1.240 . S
C316 O324 1.252 . S
C317 O320 1.252 . S
C317 O321 1.260 . S
O318 In312 2.266 . S
O318 C315 1.252 . S
O319 In312 2.326 . S
O319 C315 1.260 . S
O320 In312 2.266 . S
O320 C317 1.252 . S
O321 In312 2.326 . S
O321 C317 1.260 . S
C322 O313 1.240 . S
C322 O314 1.252 . S
O323 In312 2.294 . S
O323 C316 1.240 . S
O324 In312 2.326 . S
O324 C316 1.252 . S
In325 O326 2.294 . S
In325 O327 2.326 . S
In325 O331 2.266 . S
In325 O332 2.326 . S
In325 O333 2.266 . S
In325 O334 2.326 . S
In325 O336 2.294 . S
In325 O337 2.326 . S
O326 In325 2.294 . S
O326 C335 1.240 . S
O327 In325 2.326 . S
O327 C335 1.252 . S
C328 O331 1.252 . S
C328 O332 1.260 . S
C329 O336 1.240 . S
C329 O337 1.252 . S
C330 O333 1.252 . S
C330 O334 1.260 . S
O331 In325 2.266 . S
O331 C328 1.252 . S
O332 In325 2.326 . S
O332 C328 1.260 . S
O333 In325 2.266 . S
O333 C330 1.252 . S
O334 In325 2.326 . S
O334 C330 1.260 . S
C335 O326 1.240 . S
C335 O327 1.252 . S
O336 In325 2.294 . S
O336 C329 1.240 . S
O337 In325 2.326 . S
O337 C329 1.252 . S
In338 O339 2.294 . S
In338 O340 2.326 . S
In338 O344 2.266 . S
In338 O345 2.326 . S
In338 O346 2.266 . S
In338 O347 2.326 . S
In338 O349 2.294 . S
In338 O350 2.326 . S
O339 In338 2.294 . S
O339 C348 1.240 . S
O340 In338 2.326 . S
O340 C348 1.252 . S
C341 O344 1.252 . S
C341 O345 1.260 . S
C342 O349 1.240 . S
C342 O350 1.252 . S
C343 O346 1.252 . S
C343 O347 1.260 . S
O344 In338 2.266 . S
O344 C341 1.252 . S
O345 In338 2.326 . S
O345 C341 1.260 . S
O346 In338 2.266 . S
O346 C343 1.252 . S
O347 In338 2.326 . S
O347 C343 1.260 . S
C348 O339 1.240 . S
C348 O340 1.252 . S
O349 In338 2.294 . S
O349 C342 1.240 . S
O350 In338 2.326 . S
O350 C342 1.252 . S
In351 O352 2.294 . S
In351 O353 2.326 . S
In351 O357 2.266 . S
In351 O358 2.326 . S
In351 O359 2.266 . S
In351 O360 2.326 . S
In351 O362 2.294 . S
In351 O363 2.326 . S
O352 In351 2.294 . S
O352 C361 1.240 . S
O353 In351 2.326 . S
O353 C361 1.252 . S
C354 O357 1.252 . S
C354 O358 1.260 . S
C355 O362 1.240 . S
C355 O363 1.252 . S
C356 O359 1.252 . S
C356 O360 1.260 . S
O357 In351 2.266 . S
O357 C354 1.252 . S
O358 In351 2.326 . S
O358 C354 1.260 . S
O359 In351 2.266 . S
O359 C356 1.252 . S
O360 In351 2.326 . S
O360 C356 1.260 . S
C361 O352 1.240 . S
C361 O353 1.252 . S
O362 In351 2.294 . S
O362 C355 1.240 . S
O363 In351 2.326 . S
O363 C355 1.252 . S
In364 O365 2.294 . S
In364 O366 2.326 . S
In364 O370 2.266 . S
In364 O371 2.326 . S
In364 O372 2.266 . S
In364 O373 2.326 . S
In364 O375 2.294 . S
In364 O376 2.326 . S
O365 In364 2.294 . S
O365 C374 1.240 . S
O366 In364 2.326 . S
O366 C374 1.252 . S
C367 O370 1.252 . S
C367 O371 1.260 . S
C368 O375 1.240 . S
C368 O376 1.252 . S
C369 O372 1.252 . S
C369 O373 1.260 . S
O370 In364 2.266 . S
O370 C367 1.252 . S
O371 In364 2.326 . S
O371 C367 1.260 . S
O372 In364 2.266 . S
O372 C369 1.252 . S
O373 In364 2.326 . S
O373 C369 1.260 . S
C374 O365 1.240 . S
C374 O366 1.252 . S
O375 In364 2.294 . S
O375 C368 1.240 . S
O376 In364 2.326 . S
O376 C368 1.252 . S
In377 O378 2.294 . S
In377 O379 2.326 . S
In377 O383 2.266 . S
In377 O384 2.326 . S
In377 O385 2.266 . S
In377 O386 2.326 . S
In377 O388 2.294 . S
In377 O389 2.326 . S
O378 In377 2.294 . S
O378 C387 1.240 . S
O379 In377 2.326 . S
O379 C387 1.252 . S
C380 O383 1.252 . S
C380 O384 1.260 . S
C381 O388 1.240 . S
C381 O389 1.252 . S
C382 O385 1.252 . S
C382 O386 1.260 . S
O383 In377 2.266 . S
O383 C380 1.252 . S
O384 In377 2.326 . S
O384 C380 1.260 . S
O385 In377 2.266 . S
O385 C382 1.252 . S
O386 In377 2.326 . S
O386 C382 1.260 . S
C387 O378 1.240 . S
C387 O379 1.252 . S
O388 In377 2.294 . S
O388 C381 1.240 . S
O389 In377 2.326 . S
O389 C381 1.252 . S
In390 O391 2.294 . S
In390 O392 2.326 . S
In390 O396 2.266 . S
In390 O397 2.326 . S
In390 O398 2.266 . S
In390 O399 2.326 . S
In390 O401 2.294 . S
In390 O402 2.326 . S
O391 In390 2.294 . S
O391 C400 1.240 . S
O392 In390 2.326 . S
O392 C400 1.252 . S
C393 O396 1.252 . S
C393 O397 1.260 . S
C394 O401 1.240 . S
C394 O402 1.252 . S
C395 O398 1.252 . S
C395 O399 1.260 . S
O396 In390 2.266 . S
O396 C393 1.252 . S
O397 In390 2.326 . S
O397 C393 1.260 . S
O398 In390 2.266 . S
O398 C395 1.252 . S
O399 In390 2.326 . S
O399 C395 1.260 . S
C400 O391 1.240 . S
C400 O392 1.252 . S
O401 In390 2.294 . S
O401 C394 1.240 . S
O402 In390 2.326 . S
O402 C394 1.252 . S
In403 O404 2.294 . S
In403 O405 2.326 . S
In403 O409 2.266 . S
In403 O410 2.326 . S
In403 O411 2.266 . S
In403 O412 2.326 . S
In403 O414 2.294 . S
In403 O415 2.326 . S
O404 In403 2.294 . S
O404 C413 1.240 . S
O405 In403 2.326 . S
O405 C413 1.252 . S
C406 O409 1.252 . S
C406 O410 1.260 . S
C407 O414 1.240 . S
C407 O415 1.252 . S
C408 O411 1.252 . S
C408 O412 1.260 . S
O409 In403 2.266 . S
O409 C406 1.252 . S
O410 In403 2.326 . S
O410 C406 1.260 . S
O411 In403 2.266 . S
O411 C408 1.252 . S
O412 In403 2.326 . S
O412 C408 1.260 . S
C413 O404 1.240 . S
C413 O405 1.252 . S
O414 In403 2.294 . S
O414 C407 1.240 . S
O415 In403 2.326 . S
O415 C407 1.252 . S
In416 O417 2.294 . S
In416 O418 2.326 . S
In416 O422 2.266 . S
In416 O423 2.326 . S
In416 O424 2.266 . S
In416 O425 2.326 . S
In416 O427 2.294 . S
In416 O428 2.326 . S
O417 In416 2.294 . S
O417 C426 1.240 . S
O418 In416 2.326 . S
O418 C426 1.252 . S
C419 O422 1.252 . S
C419 O423 1.260 . S
C420 O427 1.240 . S
C420 O428 1.252 . S
C421 O424 1.252 . S
C421 O425 1.260 . S
O422 In416 2.266 . S
O422 C419 1.252 . S
O423 In416 2.326 . S
O423 C419 1.260 . S
O424 In416 2.266 . S
O424 C421 1.252 . S
O425 In416 2.326 . S
O425 C421 1.260 . S
C426 O417 1.240 . S
C426 O418 1.252 . S
O427 In416 2.294 . S
O427 C420 1.240 . S
O428 In416 2.326 . S
O428 C420 1.252 . S
In429 O430 2.294 . S
In429 O431 2.326 . S
In429 O435 2.266 . S
In429 O436 2.326 . S
In429 O437 2.266 . S
In429 O438 2.326 . S
In429 O440 2.294 . S
In429 O441 2.326 . S
O430 In429 2.294 . S
O430 C439 1.240 . S
O431 In429 2.326 . S
O431 C439 1.252 . S
C432 O435 1.252 . S
C432 O436 1.260 . S
C433 O440 1.240 . S
C433 O441 1.252 . S
C434 O437 1.252 . S
C434 O438 1.260 . S
O435 In429 2.266 . S
O435 C432 1.252 . S
O436 In429 2.326 . S
O436 C432 1.260 . S
O437 In429 2.266 . S
O437 C434 1.252 . S
O438 In429 2.326 . S
O438 C434 1.260 . S
C439 O430 1.240 . S
C439 O431 1.252 . S
O440 In429 2.294 . S
O440 C433 1.240 . S
O441 In429 2.326 . S
O441 C433 1.252 . S
In442 O443 2.294 . S
In442 O444 2.326 . S
In442 O448 2.266 . S
In442 O449 2.326 . S
In442 O450 2.266 . S
In442 O451 2.326 . S
In442 O453 2.294 . S
In442 O454 2.326 . S
O443 In442 2.294 . S
O443 C452 1.240 . S
O444 In442 2.326 . S
O444 C452 1.252 . S
C445 O448 1.252 . S
C445 O449 1.260 . S
C446 O453 1.240 . S
C446 O454 1.252 . S
C447 O450 1.252 . S
C447 O451 1.260 . S
O448 In442 2.266 . S
O448 C445 1.252 . S
O449 In442 2.326 . S
O449 C445 1.260 . S
O450 In442 2.266 . S
O450 C447 1.252 . S
O451 In442 2.326 . S
O451 C447 1.260 . S
C452 O443 1.240 . S
C452 O444 1.252 . S
O453 In442 2.294 . S
O453 C446 1.240 . S
O454 In442 2.326 . S
O454 C446 1.252 . S
In455 O456 2.294 . S
In455 O457 2.326 . S
In455 O461 2.266 . S
In455 O462 2.326 . S
In455 O463 2.266 . S
In455 O464 2.326 . S
In455 O466 2.294 . S
In455 O467 2.326 . S
O456 In455 2.294 . S
O456 C465 1.240 . S
O457 In455 2.326 . S
O457 C465 1.252 . S
C458 O461 1.252 . S
C458 O462 1.260 . S
C459 O466 1.240 . S
C459 O467 1.252 . S
C460 O463 1.252 . S
C460 O464 1.260 . S
O461 In455 2.266 . S
O461 C458 1.252 . S
O462 In455 2.326 . S
O462 C458 1.260 . S
O463 In455 2.266 . S
O463 C460 1.252 . S
O464 In455 2.326 . S
O464 C460 1.260 . S
C465 O456 1.240 . S
C465 O457 1.252 . S
O466 In455 2.294 . S
O466 C459 1.240 . S
O467 In455 2.326 . S
O467 C459 1.252 . S
In468 O469 2.294 . S
In468 O470 2.326 . S
In468 O474 2.266 . S
In468 O475 2.326 . S
In468 O476 2.266 . S
In468 O477 2.326 . S
In468 O479 2.294 . S
In468 O480 2.326 . S
O469 In468 2.294 . S
O469 C478 1.240 . S
O470 In468 2.326 . S
O470 C478 1.252 . S
C471 O474 1.252 . S
C471 O475 1.260 . S
C472 O479 1.240 . S
C472 O480 1.252 . S
C473 O476 1.252 . S
C473 O477 1.260 . S
O474 In468 2.266 . S
O474 C471 1.252 . S
O475 In468 2.326 . S
O475 C471 1.260 . S
O476 In468 2.266 . S
O476 C473 1.252 . S
O477 In468 2.326 . S
O477 C473 1.260 . S
C478 O469 1.240 . S
C478 O470 1.252 . S
O479 In468 2.294 . S
O479 C472 1.240 . S
O480 In468 2.326 . S
O480 C472 1.252 . S
In481 O482 2.294 . S
In481 O483 2.326 . S
In481 O487 2.266 . S
In481 O488 2.326 . S
In481 O489 2.266 . S
In481 O490 2.326 . S
In481 O492 2.294 . S
In481 O493 2.326 . S
O482 In481 2.294 . S
O482 C491 1.240 . S
O483 In481 2.326 . S
O483 C491 1.252 . S
C484 O487 1.252 . S
C484 O488 1.260 . S
C485 O492 1.240 . S
C485 O493 1.252 . S
C486 O489 1.252 . S
C486 O490 1.260 . S
O487 In481 2.266 . S
O487 C484 1.252 . S
O488 In481 2.326 . S
O488 C484 1.260 . S
O489 In481 2.266 . S
O489 C486 1.252 . S
O490 In481 2.326 . S
O490 C486 1.260 . S
C491 O482 1.240 . S
C491 O483 1.252 . S
O492 In481 2.294 . S
O492 C485 1.240 . S
O493 In481 2.326 . S
O493 C485 1.252 . S
In494 O495 2.294 . S
In494 O496 2.326 . S
In494 O500 2.266 . S
In494 O501 2.326 . S
In494 O502 2.266 . S
In494 O503 2.326 . S
In494 O505 2.294 . S
In494 O506 2.326 . S
O495 In494 2.294 . S
O495 C504 1.240 . S
O496 In494 2.326 . S
O496 C504 1.252 . S
C497 O500 1.252 . S
C497 O501 1.260 . S
C498 O505 1.240 . S
C498 O506 1.252 . S
C499 O502 1.252 . S
C499 O503 1.260 . S
O500 In494 2.266 . S
O500 C497 1.252 . S
O501 In494 2.326 . S
O501 C497 1.260 . S
O502 In494 2.266 . S
O502 C499 1.252 . S
O503 In494 2.326 . S
O503 C499 1.260 . S
C504 O495 1.240 . S
C504 O496 1.252 . S
O505 In494 2.294 . S
O505 C498 1.240 . S
O506 In494 2.326 . S
O506 C498 1.252 . S
In507 O508 2.294 . S
In507 O509 2.326 . S
In507 O513 2.266 . S
In507 O514 2.326 . S
In507 O515 2.266 . S
In507 O516 2.326 . S
In507 O518 2.294 . S
In507 O519 2.326 . S
O508 In507 2.294 . S
O508 C517 1.240 . S
O509 In507 2.326 . S
O509 C517 1.252 . S
C510 O513 1.252 . S
C510 O514 1.260 . S
C511 O518 1.240 . S
C511 O519 1.252 . S
C512 O515 1.252 . S
C512 O516 1.260 . S
O513 In507 2.266 . S
O513 C510 1.252 . S
O514 In507 2.326 . S
O514 C510 1.260 . S
O515 In507 2.266 . S
O515 C512 1.252 . S
O516 In507 2.326 . S
O516 C512 1.260 . S
C517 O508 1.240 . S
C517 O509 1.252 . S
O518 In507 2.294 . S
O518 C511 1.240 . S
O519 In507 2.326 . S
O519 C511 1.252 . S
In520 O521 2.294 . S
In520 O522 2.326 . S
In520 O526 2.266 . S
In520 O527 2.326 . S
In520 O528 2.266 . S
In520 O529 2.326 . S
In520 O531 2.294 . S
In520 O532 2.326 . S
O521 In520 2.294 . S
O521 C530 1.240 . S
O522 In520 2.326 . S
O522 C530 1.252 . S
C523 O526 1.252 . S
C523 O527 1.260 . S
C524 O531 1.240 . S
C524 O532 1.252 . S
C525 O528 1.252 . S
C525 O529 1.260 . S
O526 In520 2.266 . S
O526 C523 1.252 . S
O527 In520 2.326 . S
O527 C523 1.260 . S
O528 In520 2.266 . S
O528 C525 1.252 . S
O529 In520 2.326 . S
O529 C525 1.260 . S
C530 O521 1.240 . S
C530 O522 1.252 . S
O531 In520 2.294 . S
O531 C524 1.240 . S
O532 In520 2.326 . S
O532 C524 1.252 . S
In533 O534 2.294 . S
In533 O535 2.326 . S
In533 O539 2.266 . S
In533 O540 2.326 . S
In533 O541 2.266 . S
In533 O542 2.326 . S
In533 O544 2.294 . S
In533 O545 2.326 . S
O534 In533 2.294 . S
O534 C543 1.240 . S
O535 In533 2.326 . S
O535 C543 1.252 . S
C536 O539 1.252 . S
C536 O540 1.260 . S
C537 O544 1.240 . S
C537 O545 1.252 . S
C538 O541 1.252 . S
C538 O542 1.260 . S
O539 In533 2.266 . S
O539 C536 1.252 . S
O540 In533 2.326 . S
O540 C536 1.260 . S
O541 In533 2.266 . S
O541 C538 1.252 . S
O542 In533 2.326 . S
O542 C538 1.260 . S
C543 O534 1.240 . S
C543 O535 1.252 . S
O544 In533 2.294 . S
O544 C537 1.240 . S
O545 In533 2.326 . S
O545 C537 1.252 . S
In546 O547 2.294 . S
In546 O548 2.326 . S
In546 O552 2.266 . S
In546 O553 2.326 . S
In546 O554 2.266 . S
In546 O555 2.326 . S
In546 O557 2.294 . S
In546 O558 2.326 . S
O547 In546 2.294 . S
O547 C556 1.240 . S
O548 In546 2.326 . S
O548 C556 1.252 . S
C549 O552 1.252 . S
C549 O553 1.260 . S
C550 O557 1.240 . S
C550 O558 1.252 . S
C551 O554 1.252 . S
C551 O555 1.260 . S
O552 In546 2.266 . S
O552 C549 1.252 . S
O553 In546 2.326 . S
O553 C549 1.260 . S
O554 In546 2.266 . S
O554 C551 1.252 . S
O555 In546 2.326 . S
O555 C551 1.260 . S
C556 O547 1.240 . S
C556 O548 1.252 . S
O557 In546 2.294 . S
O557 C550 1.240 . S
O558 In546 2.326 . S
O558 C550 1.252 . S
In559 O560 2.294 . S
In559 O561 2.326 . S
In559 O565 2.266 . S
In559 O566 2.326 . S
In559 O567 2.266 . S
In559 O568 2.326 . S
In559 O570 2.294 . S
In559 O571 2.326 . S
O560 In559 2.294 . S
O560 C569 1.240 . S
O561 In559 2.326 . S
O561 C569 1.252 . S
C562 O565 1.252 . S
C562 O566 1.260 . S
C563 O570 1.240 . S
C563 O571 1.252 . S
C564 O567 1.252 . S
C564 O568 1.260 . S
O565 In559 2.266 . S
O565 C562 1.252 . S
O566 In559 2.326 . S
O566 C562 1.260 . S
O567 In559 2.266 . S
O567 C564 1.252 . S
O568 In559 2.326 . S
O568 C564 1.260 . S
C569 O560 1.240 . S
C569 O561 1.252 . S
O570 In559 2.294 . S
O570 C563 1.240 . S
O571 In559 2.326 . S
O571 C563 1.252 . S
In572 O573 2.294 . S
In572 O574 2.326 . S
In572 O578 2.266 . S
In572 O579 2.326 . S
In572 O580 2.266 . S
In572 O581 2.326 . S
In572 O583 2.294 . S
In572 O584 2.326 . S
O573 In572 2.294 . S
O573 C582 1.240 . S
O574 In572 2.326 . S
O574 C582 1.252 . S
C575 O578 1.252 . S
C575 O579 1.260 . S
C576 O583 1.240 . S
C576 O584 1.252 . S
C577 O580 1.252 . S
C577 O581 1.260 . S
O578 In572 2.266 . S
O578 C575 1.252 . S
O579 In572 2.326 . S
O579 C575 1.260 . S
O580 In572 2.266 . S
O580 C577 1.252 . S
O581 In572 2.326 . S
O581 C577 1.260 . S
C582 O573 1.240 . S
C582 O574 1.252 . S
O583 In572 2.294 . S
O583 C576 1.240 . S
O584 In572 2.326 . S
O584 C576 1.252 . S
In585 O586 2.294 . S
In585 O587 2.326 . S
In585 O591 2.266 . S
In585 O592 2.326 . S
In585 O593 2.266 . S
In585 O594 2.326 . S
In585 O596 2.294 . S
In585 O597 2.326 . S
O586 In585 2.294 . S
O586 C595 1.240 . S
O587 In585 2.326 . S
O587 C595 1.252 . S
C588 O591 1.252 . S
C588 O592 1.260 . S
C589 O596 1.240 . S
C589 O597 1.252 . S
C590 O593 1.252 . S
C590 O594 1.260 . S
O591 In585 2.266 . S
O591 C588 1.252 . S
O592 In585 2.326 . S
O592 C588 1.260 . S
O593 In585 2.266 . S
O593 C590 1.252 . S
O594 In585 2.326 . S
O594 C590 1.260 . S
C595 O586 1.240 . S
C595 O587 1.252 . S
O596 In585 2.294 . S
O596 C589 1.240 . S
O597 In585 2.326 . S
O597 C589 1.252 . S
In598 O599 2.294 . S
In598 O600 2.326 . S
In598 O604 2.266 . S
In598 O605 2.326 . S
In598 O606 2.266 . S
In598 O607 2.326 . S
In598 O609 2.294 . S
In598 O610 2.326 . S
O599 In598 2.294 . S
O599 C608 1.240 . S
O600 In598 2.326 . S
O600 C608 1.252 . S
C601 O604 1.252 . S
C601 O605 1.260 . S
C602 O609 1.240 . S
C602 O610 1.252 . S
C603 O606 1.252 . S
C603 O607 1.260 . S
O604 In598 2.266 . S
O604 C601 1.252 . S
O605 In598 2.326 . S
O605 C601 1.260 . S
O606 In598 2.266 . S
O606 C603 1.252 . S
O607 In598 2.326 . S
O607 C603 1.260 . S
C608 O599 1.240 . S
C608 O600 1.252 . S
O609 In598 2.294 . S
O609 C602 1.240 . S
O610 In598 2.326 . S
O610 C602 1.252 . S
In611 O612 2.294 . S
In611 O613 2.326 . S
In611 O617 2.266 . S
In611 O618 2.326 . S
In611 O619 2.266 . S
In611 O620 2.326 . S
In611 O622 2.294 . S
In611 O623 2.326 . S
O612 In611 2.294 . S
O612 C621 1.240 . S
O613 In611 2.326 . S
O613 C621 1.252 . S
C614 O617 1.252 . S
C614 O618 1.260 . S
C615 O622 1.240 . S
C615 O623 1.252 . S
C616 O619 1.252 . S
C616 O620 1.260 . S
O617 In611 2.266 . S
O617 C614 1.252 . S
O618 In611 2.326 . S
O618 C614 1.260 . S
O619 In611 2.266 . S
O619 C616 1.252 . S
O620 In611 2.326 . S
O620 C616 1.260 . S
C621 O612 1.240 . S
C621 O613 1.252 . S
O622 In611 2.294 . S
O622 C615 1.240 . S
O623 In611 2.326 . S
O623 C615 1.252 . S
C624 C625 1.387 . S
C624 H628 0.950 . S
C624 C633 1.390 . S
C625 C624 1.387 . S
C625 C627 1.387 . S
H626 C633 0.950 . S
C627 C625 1.387 . S
C627 C629 1.390 . S
C627 H631 0.950 . S
H628 C624 0.950 . S
C629 C627 1.390 . S
C629 C630 1.387 . S
C629 H632 0.950 . S
C630 C629 1.387 . S
C630 C633 1.387 . S
H631 C627 0.950 . S
H632 C629 0.950 . S
C633 C624 1.390 . S
C633 H626 0.950 . S
C633 C630 1.387 . S
C634 C635 1.387 . S
C634 H638 0.950 . S
C634 C643 1.390 . S
C635 C634 1.387 . S
C635 C637 1.387 . S
H636 C643 0.950 . S
C637 C635 1.387 . S
C637 C639 1.390 . S
C637 H641 0.950 . S
H638 C634 0.950 . S
C639 C637 1.390 . S
C639 C640 1.387 . S
C639 H642 0.950 . S
C640 C639 1.387 . S
C640 C643 1.387 . S
H641 C637 0.950 . S
H642 C639 0.950 . S
C643 C634 1.390 . S
C643 H636 0.950 . S
C643 C640 1.387 . S
C644 C645 1.387 . S
C644 H648 0.950 . S
C644 C653 1.390 . S
C645 C644 1.387 . S
C645 C647 1.387 . S
H646 C653 0.950 . S
C647 C645 1.387 . S
C647 C649 1.390 . S
C647 H651 0.950 . S
H648 C644 0.950 . S
C649 C647 1.390 . S
C649 C650 1.387 . S
C649 H652 0.950 . S
C650 C649 1.387 . S
C650 C653 1.387 . S
H651 C647 0.950 . S
H652 C649 0.950 . S
C653 C644 1.390 . S
C653 H646 0.950 . S
C653 C650 1.387 . S
C654 C655 1.387 . S
C654 H658 0.950 . S
C654 C663 1.390 . S
C655 C654 1.387 . S
C655 C657 1.387 . S
H656 C663 0.950 . S
C657 C655 1.387 . S
C657 C659 1.390 . S
C657 H661 0.950 . S
H658 C654 0.950 . S
C659 C657 1.390 . S
C659 C660 1.387 . S
C659 H662 0.950 . S
C660 C659 1.387 . S
C660 C663 1.387 . S
H661 C657 0.950 . S
H662 C659 0.950 . S
C663 C654 1.390 . S
C663 H656 0.950 . S
C663 C660 1.387 . S
C664 C665 1.387 . S
C664 H668 0.950 . S
C664 C673 1.390 . S
C665 C664 1.387 . S
C665 C667 1.387 . S
H666 C673 0.950 . S
C667 C665 1.387 . S
C667 C669 1.390 . S
C667 H671 0.950 . S
H668 C664 0.950 . S
C669 C667 1.390 . S
C669 C670 1.387 . S
C669 H672 0.950 . S
C670 C669 1.387 . S
C670 C673 1.387 . S
H671 C667 0.950 . S
H672 C669 0.950 . S
C673 C664 1.390 . S
C673 H666 0.950 . S
C673 C670 1.387 . S
C674 C675 1.387 . S
C674 H678 0.950 . S
C674 C683 1.390 . S
C675 C674 1.387 . S
C675 C677 1.387 . S
H676 C683 0.950 . S
C677 C675 1.387 . S
C677 C679 1.390 . S
C677 H681 0.950 . S
H678 C674 0.950 . S
C679 C677 1.390 . S
C679 C680 1.387 . S
C679 H682 0.950 . S
C680 C679 1.387 . S
C680 C683 1.387 . S
H681 C677 0.950 . S
H682 C679 0.950 . S
C683 C674 1.390 . S
C683 H676 0.950 . S
C683 C680 1.387 . S
C684 C685 1.387 . S
C684 H688 0.950 . S
C684 C693 1.390 . S
C685 C684 1.387 . S
C685 C687 1.387 . S
H686 C693 0.950 . S
C687 C685 1.387 . S
C687 C689 1.390 . S
C687 H691 0.950 . S
H688 C684 0.950 . S
C689 C687 1.390 . S
C689 C690 1.387 . S
C689 H692 0.950 . S
C690 C689 1.387 . S
C690 C693 1.387 . S
H691 C687 0.950 . S
H692 C689 0.950 . S
C693 C684 1.390 . S
C693 H686 0.950 . S
C693 C690 1.387 . S
C694 C695 1.387 . S
C694 H698 0.950 . S
C694 C703 1.390 . S
C695 C694 1.387 . S
C695 C697 1.387 . S
H696 C703 0.950 . S
C697 C695 1.387 . S
C697 C699 1.390 . S
C697 H701 0.950 . S
H698 C694 0.950 . S
C699 C697 1.390 . S
C699 C700 1.387 . S
C699 H702 0.950 . S
C700 C699 1.387 . S
C700 C703 1.387 . S
H701 C697 0.950 . S
H702 C699 0.950 . S
C703 C694 1.390 . S
C703 H696 0.950 . S
C703 C700 1.387 . S
C704 C705 1.387 . S
C704 H708 0.950 . S
C704 C713 1.390 . S
C705 C704 1.387 . S
C705 C707 1.387 . S
H706 C713 0.950 . S
C707 C705 1.387 . S
C707 C709 1.390 . S
C707 H711 0.950 . S
H708 C704 0.950 . S
C709 C707 1.390 . S
C709 C710 1.387 . S
C709 H712 0.950 . S
C710 C709 1.387 . S
C710 C713 1.387 . S
H711 C707 0.950 . S
H712 C709 0.950 . S
C713 C704 1.390 . S
C713 H706 0.950 . S
C713 C710 1.387 . S
C714 C715 1.387 . S
C714 H718 0.950 . S
C714 C723 1.390 . S
C715 C714 1.387 . S
C715 C717 1.387 . S
H716 C723 0.950 . S
C717 C715 1.387 . S
C717 C719 1.390 . S
C717 H721 0.950 . S
H718 C714 0.950 . S
C719 C717 1.390 . S
C719 C720 1.387 . S
C719 H722 0.950 . S
C720 C719 1.387 . S
C720 C723 1.387 . S
H721 C717 0.950 . S
H722 C719 0.950 . S
C723 C714 1.390 . S
C723 H716 0.950 . S
C723 C720 1.387 . S
C724 C725 1.387 . S
C724 H728 0.950 . S
C724 C733 1.390 . S
C725 C724 1.387 . S
C725 C727 1.387 . S
H726 C733 0.950 . S
C727 C725 1.387 . S
C727 C729 1.390 . S
C727 H731 0.950 . S
H728 C724 0.950 . S
C729 C727 1.390 . S
C729 C730 1.387 . S
C729 H732 0.950 . S
C730 C729 1.387 . S
C730 C733 1.387 . S
H731 C727 0.950 . S
H732 C729 0.950 . S
C733 C724 1.390 . S
C733 H726 0.950 . S
C733 C730 1.387 . S
C734 C735 1.387 . S
C734 H738 0.950 . S
C734 C743 1.390 . S
C735 C734 1.387 . S
C735 C737 1.387 . S
H736 C743 0.950 . S
C737 C735 1.387 . S
C737 C739 1.390 . S
C737 H741 0.950 . S
H738 C734 0.950 . S
C739 C737 1.390 . S
C739 C740 1.387 . S
C739 H742 0.950 . S
C740 C739 1.387 . S
C740 C743 1.387 . S
H741 C737 0.950 . S
H742 C739 0.950 . S
C743 C734 1.390 . S
C743 H736 0.950 . S
C743 C740 1.387 . S
C744 C745 1.387 . S
C744 H748 0.950 . S
C744 C753 1.390 . S
C745 C744 1.387 . S
C745 C747 1.387 . S
H746 C753 0.950 . S
C747 C745 1.387 . S
C747 C749 1.390 . S
C747 H751 0.950 . S
H748 C744 0.950 . S
C749 C747 1.390 . S
C749 C750 1.387 . S
C749 H752 0.950 . S
C750 C749 1.387 . S
C750 C753 1.387 . S
H751 C747 0.950 . S
H752 C749 0.950 . S
C753 C744 1.390 . S
C753 H746 0.950 . S
C753 C750 1.387 . S
C754 C755 1.387 . S
C754 H758 0.950 . S
C754 C763 1.390 . S
C755 C754 1.387 . S
C755 C757 1.387 . S
H756 C763 0.950 . S
C757 C755 1.387 . S
C757 C759 1.390 . S
C757 H761 0.950 . S
H758 C754 0.950 . S
C759 C757 1.390 . S
C759 C760 1.387 . S
C759 H762 0.950 . S
C760 C759 1.387 . S
C760 C763 1.387 . S
H761 C757 0.950 . S
H762 C759 0.950 . S
C763 C754 1.390 . S
C763 H756 0.950 . S
C763 C760 1.387 . S
C764 C765 1.387 . S
C764 H768 0.950 . S
C764 C773 1.390 . S
C765 C764 1.387 . S
C765 C767 1.387 . S
H766 C773 0.950 . S
C767 C765 1.387 . S
C767 C769 1.390 . S
C767 H771 0.950 . S
H768 C764 0.950 . S
C769 C767 1.390 . S
C769 C770 1.387 . S
C769 H772 0.950 . S
C770 C769 1.387 . S
C770 C773 1.387 . S
H771 C767 0.950 . S
H772 C769 0.950 . S
C773 C764 1.390 . S
C773 H766 0.950 . S
C773 C770 1.387 . S
C774 C775 1.387 . S
C774 H778 0.950 . S
C774 C783 1.390 . S
C775 C774 1.387 . S
C775 C777 1.387 . S
H776 C783 0.950 . S
C777 C775 1.387 . S
C777 C779 1.390 . S
C777 H781 0.950 . S
H778 C774 0.950 . S
C779 C777 1.390 . S
C779 C780 1.387 . S
C779 H782 0.950 . S
C780 C779 1.387 . S
C780 C783 1.387 . S
H781 C777 0.950 . S
H782 C779 0.950 . S
C783 C774 1.390 . S
C783 H776 0.950 . S
C783 C780 1.387 . S
C784 C785 1.387 . S
C784 H788 0.950 . S
C784 C793 1.390 . S
C785 C784 1.387 . S
C785 C787 1.387 . S
H786 C793 0.950 . S
C787 C785 1.387 . S
C787 C789 1.390 . S
C787 H791 0.950 . S
H788 C784 0.950 . S
C789 C787 1.390 . S
C789 C790 1.387 . S
C789 H792 0.950 . S
C790 C789 1.387 . S
C790 C793 1.387 . S
H791 C787 0.950 . S
H792 C789 0.950 . S
C793 C784 1.390 . S
C793 H786 0.950 . S
C793 C790 1.387 . S
C794 C795 1.387 . S
C794 H798 0.950 . S
C794 C803 1.390 . S
C795 C794 1.387 . S
C795 C797 1.387 . S
H796 C803 0.950 . S
C797 C795 1.387 . S
C797 C799 1.390 . S
C797 H801 0.950 . S
H798 C794 0.950 . S
C799 C797 1.390 . S
C799 C800 1.387 . S
C799 H802 0.950 . S
C800 C799 1.387 . S
C800 C803 1.387 . S
H801 C797 0.950 . S
H802 C799 0.950 . S
C803 C794 1.390 . S
C803 H796 0.950 . S
C803 C800 1.387 . S
C804 C805 1.387 . S
C804 H808 0.950 . S
C804 C813 1.390 . S
C805 C804 1.387 . S
C805 C807 1.387 . S
H806 C813 0.950 . S
C807 C805 1.387 . S
C807 C809 1.390 . S
C807 H811 0.950 . S
H808 C804 0.950 . S
C809 C807 1.390 . S
C809 C810 1.387 . S
C809 H812 0.950 . S
C810 C809 1.387 . S
C810 C813 1.387 . S
H811 C807 0.950 . S
H812 C809 0.950 . S
C813 C804 1.390 . S
C813 H806 0.950 . S
C813 C810 1.387 . S
C814 C815 1.387 . S
C814 H818 0.950 . S
C814 C823 1.390 . S
C815 C814 1.387 . S
C815 C817 1.387 . S
H816 C823 0.950 . S
C817 C815 1.387 . S
C817 C819 1.390 . S
C817 H821 0.950 . S
H818 C814 0.950 . S
C819 C817 1.390 . S
C819 C820 1.387 . S
C819 H822 0.950 . S
C820 C819 1.387 . S
C820 C823 1.387 . S
H821 C817 0.950 . S
H822 C819 0.950 . S
C823 C814 1.390 . S
C823 H816 0.950 . S
C823 C820 1.387 . S
C824 C825 1.387 . S
C824 H828 0.950 . S
C824 C833 1.390 . S
C825 C824 1.387 . S
C825 C827 1.387 . S
H826 C833 0.950 . S
C827 C825 1.387 . S
C827 C829 1.390 . S
C827 H831 0.950 . S
H828 C824 0.950 . S
C829 C827 1.390 . S
C829 C830 1.387 . S
C829 H832 0.950 . S
C830 C829 1.387 . S
C830 C833 1.387 . S
H831 C827 0.950 . S
H832 C829 0.950 . S
C833 C824 1.390 . S
C833 H826 0.950 . S
C833 C830 1.387 . S
C834 C835 1.387 . S
C834 H838 0.950 . S
C834 C843 1.390 . S
C835 C834 1.387 . S
C835 C837 1.387 . S
H836 C843 0.950 . S
C837 C835 1.387 . S
C837 C839 1.390 . S
C837 H841 0.950 . S
H838 C834 0.950 . S
C839 C837 1.390 . S
C839 C840 1.387 . S
C839 H842 0.950 . S
C840 C839 1.387 . S
C840 C843 1.387 . S
H841 C837 0.950 . S
H842 C839 0.950 . S
C843 C834 1.390 . S
C843 H836 0.950 . S
C843 C840 1.387 . S
C844 C845 1.387 . S
C844 H848 0.950 . S
C844 C853 1.390 . S
C845 C844 1.387 . S
C845 C847 1.387 . S
H846 C853 0.950 . S
C847 C845 1.387 . S
C847 C849 1.390 . S
C847 H851 0.950 . S
H848 C844 0.950 . S
C849 C847 1.390 . S
C849 C850 1.387 . S
C849 H852 0.950 . S
C850 C849 1.387 . S
C850 C853 1.387 . S
H851 C847 0.950 . S
H852 C849 0.950 . S
C853 C844 1.390 . S
C853 H846 0.950 . S
C853 C850 1.387 . S
C854 C855 1.387 . S
C854 H858 0.950 . S
C854 C863 1.390 . S
C855 C854 1.387 . S
C855 C857 1.387 . S
H856 C863 0.950 . S
C857 C855 1.387 . S
C857 C859 1.390 . S
C857 H861 0.950 . S
H858 C854 0.950 . S
C859 C857 1.390 . S
C859 C860 1.387 . S
C859 H862 0.950 . S
C860 C859 1.387 . S
C860 C863 1.387 . S
H861 C857 0.950 . S
H862 C859 0.950 . S
C863 C854 1.390 . S
C863 H856 0.950 . S
C863 C860 1.387 . S
C864 C865 1.387 . S
C864 H868 0.950 . S
C864 C873 1.390 . S
C865 C864 1.387 . S
C865 C867 1.387 . S
H866 C873 0.950 . S
C867 C865 1.387 . S
C867 C869 1.390 . S
C867 H871 0.950 . S
H868 C864 0.950 . S
C869 C867 1.390 . S
C869 C870 1.387 . S
C869 H872 0.950 . S
C870 C869 1.387 . S
C870 C873 1.387 . S
H871 C867 0.950 . S
H872 C869 0.950 . S
C873 C864 1.390 . S
C873 H866 0.950 . S
C873 C870 1.387 . S
C874 C875 1.387 1_554 S
C874 H878 0.950 1_554 S
C874 C883 1.390 . S
C875 C874 1.387 1_556 S
C875 C877 1.387 1_556 S
H876 C883 0.950 . S
C877 C875 1.387 1_554 S
C877 C879 1.390 . S
C877 H881 0.950 1_554 S
H878 C874 0.950 1_556 S
C879 C877 1.390 . S
C879 C880 1.387 . S
C879 H882 0.950 . S
C880 C879 1.387 . S
C880 C883 1.387 . S
H881 C877 0.950 1_556 S
H882 C879 0.950 . S
C883 C874 1.390 . S
C883 H876 0.950 . S
C883 C880 1.387 . S
C884 C885 1.387 . S
C884 H888 0.950 . S
C884 C893 1.390 . S
C885 C884 1.387 . S
C885 C887 1.387 . S
H886 C893 0.950 . S
C887 C885 1.387 . S
C887 C889 1.390 . S
C887 H891 0.950 . S
H888 C884 0.950 . S
C889 C887 1.390 . S
C889 C890 1.387 . S
C889 H892 0.950 . S
C890 C889 1.387 . S
C890 C893 1.387 . S
H891 C887 0.950 . S
H892 C889 0.950 . S
C893 C884 1.390 . S
C893 H886 0.950 . S
C893 C890 1.387 . S
C894 C895 1.387 1_554 S
C894 H898 0.950 1_554 S
C894 C903 1.390 . S
C895 C894 1.387 1_556 S
C895 C897 1.387 1_556 S
H896 C903 0.950 . S
C897 C895 1.387 1_554 S
C897 C899 1.390 . S
C897 H901 0.950 1_554 S
H898 C894 0.950 1_556 S
C899 C897 1.390 . S
C899 C900 1.387 . S
C899 H902 0.950 . S
C900 C899 1.387 . S
C900 C903 1.387 . S
H901 C897 0.950 1_556 S
H902 C899 0.950 . S
C903 C894 1.390 . S
C903 H896 0.950 . S
C903 C900 1.387 . S
C904 C905 1.387 . S
C904 H908 0.950 . S
C904 C913 1.390 . S
C905 C904 1.387 . S
C905 C907 1.387 . S
H906 C913 0.950 . S
C907 C905 1.387 . S
C907 C909 1.390 . S
C907 H911 0.950 . S
H908 C904 0.950 . S
C909 C907 1.390 . S
C909 C910 1.387 . S
C909 H912 0.950 . S
C910 C909 1.387 . S
C910 C913 1.387 . S
H911 C907 0.950 . S
H912 C909 0.950 . S
C913 C904 1.390 . S
C913 H906 0.950 . S
C913 C910 1.387 . S
C914 C915 1.387 . S
C914 H918 0.950 . S
C914 C923 1.390 . S
C915 C914 1.387 . S
C915 C917 1.387 . S
H916 C923 0.950 1_554 S
C917 C915 1.387 . S
C917 C919 1.390 . S
C917 H921 0.950 . S
H918 C914 0.950 . S
C919 C917 1.390 . S
C919 C920 1.387 1_556 S
C919 H922 0.950 1_556 S
C920 C919 1.387 1_554 S
C920 C923 1.387 1_554 S
H921 C917 0.950 . S
H922 C919 0.950 1_554 S
C923 C914 1.390 . S
C923 H916 0.950 1_556 S
C923 C920 1.387 1_556 S
C924 C925 1.387 . S
C924 H928 0.950 . S
C924 C933 1.390 . S
C925 C924 1.387 . S
C925 C927 1.387 . S
H926 C933 0.950 . S
C927 C925 1.387 . S
C927 C929 1.390 . S
C927 H931 0.950 . S
H928 C924 0.950 . S
C929 C927 1.390 . S
C929 C930 1.387 . S
C929 H932 0.950 . S
C930 C929 1.387 . S
C930 C933 1.387 . S
H931 C927 0.950 . S
H932 C929 0.950 . S
C933 C924 1.390 . S
C933 H926 0.950 . S
C933 C930 1.387 . S
C934 C935 1.387 . S
C934 H938 0.950 . S
C934 C943 1.390 . S
C935 C934 1.387 . S
C935 C937 1.387 . S
H936 C943 0.950 1_554 S
C937 C935 1.387 . S
C937 C939 1.390 . S
C937 H941 0.950 . S
H938 C934 0.950 . S
C939 C937 1.390 . S
C939 C940 1.387 1_556 S
C939 H942 0.950 1_556 S
C940 C939 1.387 1_554 S
C940 C943 1.387 1_554 S
H941 C937 0.950 . S
H942 C939 0.950 1_554 S
C943 C934 1.390 . S
C943 H936 0.950 1_556 S
C943 C940 1.387 1_556 S
C944 C945 1.387 . S
C944 H948 0.950 . S
C944 C953 1.390 . S
C945 C944 1.387 . S
C945 C947 1.387 . S
H946 C953 0.950 . S
C947 C945 1.387 . S
C947 C949 1.390 . S
C947 H951 0.950 . S
H948 C944 0.950 . S
C949 C947 1.390 . S
C949 C950 1.387 . S
C949 H952 0.950 . S
C950 C949 1.387 . S
C950 C953 1.387 . S
H951 C947 0.950 . S
H952 C949 0.950 . S
C953 C944 1.390 . S
C953 H946 0.950 . S
C953 C950 1.387 . S
C954 C955 1.387 1_545 S
C954 H958 0.950 1_545 S
C954 C963 1.390 . S
C955 C954 1.387 1_565 S
C955 C957 1.387 1_565 S
H956 C963 0.950 . S
C957 C955 1.387 1_545 S
C957 C959 1.390 . S
C957 H961 0.950 1_545 S
H958 C954 0.950 1_565 S
C959 C957 1.390 . S
C959 C960 1.387 . S
C959 H962 0.950 . S
C960 C959 1.387 . S
C960 C963 1.387 . S
H961 C957 0.950 1_565 S
H962 C959 0.950 . S
C963 C954 1.390 . S
C963 H956 0.950 . S
C963 C960 1.387 . S
C964 C965 1.387 . S
C964 H968 0.950 . S
C964 C973 1.390 . S
C965 C964 1.387 . S
C965 C967 1.387 . S
H966 C973 0.950 . S
C967 C965 1.387 . S
C967 C969 1.390 . S
C967 H971 0.950 . S
H968 C964 0.950 . S
C969 C967 1.390 . S
C969 C970 1.387 . S
C969 H972 0.950 . S
C970 C969 1.387 . S
C970 C973 1.387 . S
H971 C967 0.950 . S
H972 C969 0.950 . S
C973 C964 1.390 . S
C973 H966 0.950 . S
C973 C970 1.387 . S
C974 C975 1.387 1_565 S
C974 H978 0.950 1_565 S
C974 C983 1.390 . S
C975 C974 1.387 1_545 S
C975 C977 1.387 1_545 S
H976 C983 0.950 . S
C977 C975 1.387 1_565 S
C977 C979 1.390 . S
C977 H981 0.950 1_565 S
H978 C974 0.950 1_545 S
C979 C977 1.390 . S
C979 C980 1.387 . S
C979 H982 0.950 . S
C980 C979 1.387 . S
C980 C983 1.387 . S
H981 C977 0.950 1_545 S
H982 C979 0.950 . S
C983 C974 1.390 . S
C983 H976 0.950 . S
C983 C980 1.387 . S
C984 C985 1.387 . S
C984 H988 0.950 . S
C984 C993 1.390 . S
C985 C984 1.387 . S
C985 C987 1.387 . S
H986 C993 0.950 . S
C987 C985 1.387 . S
C987 C989 1.390 . S
C987 H991 0.950 . S
H988 C984 0.950 . S
C989 C987 1.390 . S
C989 C990 1.387 . S
C989 H992 0.950 . S
C990 C989 1.387 . S
C990 C993 1.387 . S
H991 C987 0.950 . S
H992 C989 0.950 . S
C993 C984 1.390 . S
C993 H986 0.950 . S
C993 C990 1.387 . S
C994 C995 1.387 1_545 S
C994 H998 0.950 1_545 S
C994 C1003 1.390 . S
C995 C994 1.387 1_565 S
C995 C997 1.387 1_565 S
H996 C1003 0.950 . S
C997 C995 1.387 1_545 S
C997 C999 1.390 . S
C997 H1001 0.950 1_545 S
H998 C994 0.950 1_565 S
C999 C997 1.390 . S
C999 C1000 1.387 . S
C999 H1002 0.950 . S
C1000 C999 1.387 . S
C1000 C1003 1.387 . S
H1001 C997 0.950 1_565 S
H1002 C999 0.950 . S
C1003 C994 1.390 . S
C1003 H996 0.950 . S
C1003 C1000 1.387 . S
C1004 C1005 1.387 . S
C1004 H1008 0.950 . S
C1004 C1013 1.390 . S
C1005 C1004 1.387 . S
C1005 C1007 1.387 . S
H1006 C1013 0.950 . S
C1007 C1005 1.387 . S
C1007 C1009 1.390 . S
C1007 H1011 0.950 . S
H1008 C1004 0.950 . S
C1009 C1007 1.390 . S
C1009 C1010 1.387 . S
C1009 H1012 0.950 . S
C1010 C1009 1.387 . S
C1010 C1013 1.387 . S
H1011 C1007 0.950 . S
H1012 C1009 0.950 . S
C1013 C1004 1.390 . S
C1013 H1006 0.950 . S
C1013 C1010 1.387 . S
C1014 C1015 1.387 . S
C1014 H1018 0.950 . S
C1014 C1023 1.390 . S
C1015 C1014 1.387 . S
C1015 C1017 1.387 . S
H1016 C1023 0.950 1_545 S
C1017 C1015 1.387 . S
C1017 C1019 1.390 . S
C1017 H1021 0.950 . S
H1018 C1014 0.950 . S
C1019 C1017 1.390 . S
C1019 C1020 1.387 1_565 S
C1019 H1022 0.950 1_565 S
C1020 C1019 1.387 1_545 S
C1020 C1023 1.387 1_545 S
H1021 C1017 0.950 . S
H1022 C1019 0.950 1_545 S
C1023 C1014 1.390 . S
C1023 H1016 0.950 1_565 S
C1023 C1020 1.387 1_565 S
C1024 C1025 1.387 . S
C1024 H1028 0.950 . S
C1024 C1033 1.390 . S
C1025 C1024 1.387 . S
C1025 C1027 1.387 . S
H1026 C1033 0.950 . S
C1027 C1025 1.387 . S
C1027 C1029 1.390 . S
C1027 H1031 0.950 . S
H1028 C1024 0.950 . S
C1029 C1027 1.390 . S
C1029 C1030 1.387 . S
C1029 H1032 0.950 . S
C1030 C1029 1.387 . S
C1030 C1033 1.387 . S
H1031 C1027 0.950 . S
H1032 C1029 0.950 . S
C1033 C1024 1.390 . S
C1033 H1026 0.950 . S
C1033 C1030 1.387 . S
C1034 C1035 1.387 . S
C1034 H1038 0.950 . S
C1034 C1043 1.390 . S
C1035 C1034 1.387 . S
C1035 C1037 1.387 . S
H1036 C1043 0.950 . S
C1037 C1035 1.387 . S
C1037 C1039 1.390 . S
C1037 H1041 0.950 . S
H1038 C1034 0.950 . S
C1039 C1037 1.390 . S
C1039 C1040 1.387 . S
C1039 H1042 0.950 . S
C1040 C1039 1.387 . S
C1040 C1043 1.387 . S
H1041 C1037 0.950 . S
H1042 C1039 0.950 . S
C1043 C1034 1.390 . S
C1043 H1036 0.950 . S
C1043 C1040 1.387 . S
C1044 C1045 1.387 . S
C1044 H1048 0.950 . S
C1044 C1053 1.390 . S
C1045 C1044 1.387 . S
C1045 C1047 1.387 . S
H1046 C1053 0.950 1_655 S
C1047 C1045 1.387 . S
C1047 C1049 1.390 . S
C1047 H1051 0.950 . S
H1048 C1044 0.950 . S
C1049 C1047 1.390 . S
C1049 C1050 1.387 1_455 S
C1049 H1052 0.950 1_455 S
C1050 C1049 1.387 1_655 S
C1050 C1053 1.387 1_655 S
H1051 C1047 0.950 . S
H1052 C1049 0.950 1_655 S
C1053 C1044 1.390 . S
C1053 H1046 0.950 1_455 S
C1053 C1050 1.387 1_455 S
C1054 C1055 1.387 . S
C1054 H1058 0.950 . S
C1054 C1063 1.390 . S
C1055 C1054 1.387 . S
C1055 C1057 1.387 . S
H1056 C1063 0.950 . S
C1057 C1055 1.387 . S
C1057 C1059 1.390 . S
C1057 H1061 0.950 . S
H1058 C1054 0.950 . S
C1059 C1057 1.390 . S
C1059 C1060 1.387 . S
C1059 H1062 0.950 . S
C1060 C1059 1.387 . S
C1060 C1063 1.387 . S
H1061 C1057 0.950 . S
H1062 C1059 0.950 . S
C1063 C1054 1.390 . S
C1063 H1056 0.950 . S
C1063 C1060 1.387 . S
C1064 C1065 1.387 1_655 S
C1064 H1068 0.950 1_655 S
C1064 C1073 1.390 . S
C1065 C1064 1.387 1_455 S
C1065 C1067 1.387 1_455 S
H1066 C1073 0.950 . S
C1067 C1065 1.387 1_655 S
C1067 C1069 1.390 . S
C1067 H1071 0.950 1_655 S
H1068 C1064 0.950 1_455 S
C1069 C1067 1.390 . S
C1069 C1070 1.387 . S
C1069 H1072 0.950 . S
C1070 C1069 1.387 . S
C1070 C1073 1.387 . S
H1071 C1067 0.950 1_455 S
H1072 C1069 0.950 . S
C1073 C1064 1.390 . S
C1073 H1066 0.950 . S
C1073 C1070 1.387 . S
C1074 C1075 1.387 . S
C1074 H1078 0.950 . S
C1074 C1083 1.390 . S
C1075 C1074 1.387 . S
C1075 C1077 1.387 . S
H1076 C1083 0.950 . S
C1077 C1075 1.387 . S
C1077 C1079 1.390 . S
C1077 H1081 0.950 . S
H1078 C1074 0.950 . S
C1079 C1077 1.390 . S
C1079 C1080 1.387 . S
C1079 H1082 0.950 . S
C1080 C1079 1.387 . S
C1080 C1083 1.387 . S
H1081 C1077 0.950 . S
H1082 C1079 0.950 . S
C1083 C1074 1.390 . S
C1083 H1076 0.950 . S
C1083 C1080 1.387 . S
C1084 C1085 1.387 1_455 S
C1084 H1088 0.950 1_455 S
C1084 C1093 1.390 . S
C1085 C1084 1.387 1_655 S
C1085 C1087 1.387 1_655 S
H1086 C1093 0.950 . S
C1087 C1085 1.387 1_455 S
C1087 C1089 1.390 . S
C1087 H1091 0.950 1_455 S
H1088 C1084 0.950 1_655 S
C1089 C1087 1.390 . S
C1089 C1090 1.387 . S
C1089 H1092 0.950 . S
C1090 C1089 1.387 . S
C1090 C1093 1.387 . S
H1091 C1087 0.950 1_655 S
H1092 C1089 0.950 . S
C1093 C1084 1.390 . S
C1093 H1086 0.950 . S
C1093 C1090 1.387 . S
C1094 C1095 1.387 1_655 S
C1094 H1098 0.950 1_655 S
C1094 C1103 1.390 . S
C1095 C1094 1.387 1_455 S
C1095 C1097 1.387 1_455 S
H1096 C1103 0.950 . S
C1097 C1095 1.387 1_655 S
C1097 C1099 1.390 . S
C1097 H1101 0.950 1_655 S
H1098 C1094 0.950 1_455 S
C1099 C1097 1.390 . S
C1099 C1100 1.387 . S
C1099 H1102 0.950 . S
C1100 C1099 1.387 . S
C1100 C1103 1.387 . S
H1101 C1097 0.950 1_455 S
H1102 C1099 0.950 . S
C1103 C1094 1.390 . S
C1103 H1096 0.950 . S
C1103 C1100 1.387 . S
C1104 C1105 1.387 . S
C1104 H1108 0.950 . S
C1104 C1113 1.390 1_655 S
C1105 C1104 1.387 . S
C1105 C1107 1.387 . S
H1106 C1113 0.950 . S
C1107 C1105 1.387 . S
C1107 C1109 1.390 1_655 S
C1107 H1111 0.950 . S
H1108 C1104 0.950 . S
C1109 C1107 1.390 1_455 S
C1109 C1110 1.387 . S
C1109 H1112 0.950 . S
C1110 C1109 1.387 . S
C1110 C1113 1.387 . S
H1111 C1107 0.950 . S
H1112 C1109 0.950 . S
C1113 C1104 1.390 1_455 S
C1113 H1106 0.950 . S
C1113 C1110 1.387 . S
C1114 C1115 1.387 . S
C1114 H1118 0.950 . S
C1114 C1123 1.390 . S
C1115 C1114 1.387 . S
C1115 C1117 1.387 . S
H1116 C1123 0.950 . S
C1117 C1115 1.387 . S
C1117 C1119 1.390 . S
C1117 H1121 0.950 . S
H1118 C1114 0.950 . S
C1119 C1117 1.390 . S
C1119 C1120 1.387 . S
C1119 H1122 0.950 . S
C1120 C1119 1.387 . S
C1120 C1123 1.387 . S
H1121 C1117 0.950 . S
H1122 C1119 0.950 . S
C1123 C1114 1.390 . S
C1123 H1116 0.950 . S
C1123 C1120 1.387 . S
C1124 C1125 1.387 . S
C1124 H1128 0.950 . S
C1124 C1133 1.390 1_455 S
C1125 C1124 1.387 . S
C1125 C1127 1.387 . S
H1126 C1133 0.950 . S
C1127 C1125 1.387 . S
C1127 C1129 1.390 1_455 S
C1127 H1131 0.950 . S
H1128 C1124 0.950 . S
C1129 C1127 1.390 1_655 S
C1129 C1130 1.387 . S
C1129 H1132 0.950 . S
C1130 C1129 1.387 . S
C1130 C1133 1.387 . S
H1131 C1127 0.950 . S
H1132 C1129 0.950 . S
C1133 C1124 1.390 1_655 S
C1133 H1126 0.950 . S
C1133 C1130 1.387 . S
C1134 C1135 1.387 . S
C1134 H1138 0.950 . S
C1134 C1143 1.390 . S
C1135 C1134 1.387 . S
C1135 C1137 1.387 . S
H1136 C1143 0.950 . S
C1137 C1135 1.387 . S
C1137 C1139 1.390 . S
C1137 H1141 0.950 . S
H1138 C1134 0.950 . S
C1139 C1137 1.390 . S
C1139 C1140 1.387 . S
C1139 H1142 0.950 . S
C1140 C1139 1.387 . S
C1140 C1143 1.387 . S
H1141 C1137 0.950 . S
H1142 C1139 0.950 . S
C1143 C1134 1.390 . S
C1143 H1136 0.950 . S
C1143 C1140 1.387 . S
C1144 C1145 1.387 . S
C1144 H1148 0.950 . S
C1144 C1153 1.390 1_655 S
C1145 C1144 1.387 . S
C1145 C1147 1.387 . S
H1146 C1153 0.950 . S
C1147 C1145 1.387 . S
C1147 C1149 1.390 1_655 S
C1147 H1151 0.950 . S
H1148 C1144 0.950 . S
C1149 C1147 1.390 1_455 S
C1149 C1150 1.387 . S
C1149 H1152 0.950 . S
C1150 C1149 1.387 . S
C1150 C1153 1.387 . S
H1151 C1147 0.950 . S
H1152 C1149 0.950 . S
C1153 C1144 1.390 1_455 S
C1153 H1146 0.950 . S
C1153 C1150 1.387 . S
C1154 C1155 1.387 . S
C1154 H1158 0.950 . S
C1154 C1163 1.390 . S
C1155 C1154 1.387 . S
C1155 C1157 1.387 . S
H1156 C1163 0.950 . S
C1157 C1155 1.387 . S
C1157 C1159 1.390 . S
C1157 H1161 0.950 . S
H1158 C1154 0.950 . S
C1159 C1157 1.390 . S
C1159 C1160 1.387 . S
C1159 H1162 0.950 . S
C1160 C1159 1.387 . S
C1160 C1163 1.387 . S
H1161 C1157 0.950 . S
H1162 C1159 0.950 . S
C1163 C1154 1.390 . S
C1163 H1156 0.950 . S
C1163 C1160 1.387 . S
C1164 C1165 1.387 . S
C1164 H1168 0.950 . S
C1164 C1173 1.390 1_655 S
C1165 C1164 1.387 . S
C1165 C1167 1.387 . S
H1166 C1173 0.950 . S
C1167 C1165 1.387 . S
C1167 C1169 1.390 1_655 S
C1167 H1171 0.950 . S
H1168 C1164 0.950 . S
C1169 C1167 1.390 1_455 S
C1169 C1170 1.387 . S
C1169 H1172 0.950 . S
C1170 C1169 1.387 . S
C1170 C1173 1.387 . S
H1171 C1167 0.950 . S
H1172 C1169 0.950 . S
C1173 C1164 1.390 1_455 S
C1173 H1166 0.950 . S
C1173 C1170 1.387 . S
C1174 C1175 1.387 . S
C1174 H1178 0.950 . S
C1174 C1183 1.390 . S
C1175 C1174 1.387 . S
C1175 C1177 1.387 . S
H1176 C1183 0.950 . S
C1177 C1175 1.387 . S
C1177 C1179 1.390 . S
C1177 H1181 0.950 . S
H1178 C1174 0.950 . S
C1179 C1177 1.390 . S
C1179 C1180 1.387 . S
C1179 H1182 0.950 . S
C1180 C1179 1.387 . S
C1180 C1183 1.387 . S
H1181 C1177 0.950 . S
H1182 C1179 0.950 . S
C1183 C1174 1.390 . S
C1183 H1176 0.950 . S
C1183 C1180 1.387 . S
C1184 C1185 1.387 . S
C1184 H1188 0.950 . S
C1184 C1193 1.390 1_545 S
C1185 C1184 1.387 . S
C1185 C1187 1.387 . S
H1186 C1193 0.950 . S
C1187 C1185 1.387 . S
C1187 C1189 1.390 1_545 S
C1187 H1191 0.950 . S
H1188 C1184 0.950 . S
C1189 C1187 1.390 1_565 S
C1189 C1190 1.387 . S
C1189 H1192 0.950 . S
C1190 C1189 1.387 . S
C1190 C1193 1.387 . S
H1191 C1187 0.950 . S
H1192 C1189 0.950 . S
C1193 C1184 1.390 1_565 S
C1193 H1186 0.950 . S
C1193 C1190 1.387 . S
C1194 C1195 1.387 . S
C1194 H1198 0.950 . S
C1194 C1203 1.390 . S
C1195 C1194 1.387 . S
C1195 C1197 1.387 . S
H1196 C1203 0.950 . S
C1197 C1195 1.387 . S
C1197 C1199 1.390 . S
C1197 H1201 0.950 . S
H1198 C1194 0.950 . S
C1199 C1197 1.390 . S
C1199 C1200 1.387 . S
C1199 H1202 0.950 . S
C1200 C1199 1.387 . S
C1200 C1203 1.387 . S
H1201 C1197 0.950 . S
H1202 C1199 0.950 . S
C1203 C1194 1.390 . S
C1203 H1196 0.950 . S
C1203 C1200 1.387 . S
C1204 C1205 1.387 . S
C1204 H1208 0.950 . S
C1204 C1213 1.390 1_545 S
C1205 C1204 1.387 . S
C1205 C1207 1.387 . S
H1206 C1213 0.950 . S
C1207 C1205 1.387 . S
C1207 C1209 1.390 1_545 S
C1207 H1211 0.950 . S
H1208 C1204 0.950 . S
C1209 C1207 1.390 1_565 S
C1209 C1210 1.387 . S
C1209 H1212 0.950 . S
C1210 C1209 1.387 . S
C1210 C1213 1.387 . S
H1211 C1207 0.950 . S
H1212 C1209 0.950 . S
C1213 C1204 1.390 1_565 S
C1213 H1206 0.950 . S
C1213 C1210 1.387 . S
C1214 C1215 1.387 . S
C1214 H1218 0.950 . S
C1214 C1223 1.390 . S
C1215 C1214 1.387 . S
C1215 C1217 1.387 . S
H1216 C1223 0.950 . S
C1217 C1215 1.387 . S
C1217 C1219 1.390 . S
C1217 H1221 0.950 . S
H1218 C1214 0.950 . S
C1219 C1217 1.390 . S
C1219 C1220 1.387 . S
C1219 H1222 0.950 . S
C1220 C1219 1.387 . S
C1220 C1223 1.387 . S
H1221 C1217 0.950 . S
H1222 C1219 0.950 . S
C1223 C1214 1.390 . S
C1223 H1216 0.950 . S
C1223 C1220 1.387 . S
C1224 C1225 1.387 . S
C1224 H1228 0.950 . S
C1224 C1233 1.390 1_545 S
C1225 C1224 1.387 . S
C1225 C1227 1.387 . S
H1226 C1233 0.950 . S
C1227 C1225 1.387 . S
C1227 C1229 1.390 1_545 S
C1227 H1231 0.950 . S
H1228 C1224 0.950 . S
C1229 C1227 1.390 1_565 S
C1229 C1230 1.387 . S
C1229 H1232 0.950 . S
C1230 C1229 1.387 . S
C1230 C1233 1.387 . S
H1231 C1227 0.950 . S
H1232 C1229 0.950 . S
C1233 C1224 1.390 1_565 S
C1233 H1226 0.950 . S
C1233 C1230 1.387 . S
C1234 C1235 1.387 . S
C1234 H1238 0.950 . S
C1234 C1243 1.390 . S
C1235 C1234 1.387 . S
C1235 C1237 1.387 . S
H1236 C1243 0.950 . S
C1237 C1235 1.387 . S
C1237 C1239 1.390 . S
C1237 H1241 0.950 . S
H1238 C1234 0.950 . S
C1239 C1237 1.390 . S
C1239 C1240 1.387 . S
C1239 H1242 0.950 . S
C1240 C1239 1.387 . S
C1240 C1243 1.387 . S
H1241 C1237 0.950 . S
H1242 C1239 0.950 . S
C1243 C1234 1.390 . S
C1243 H1236 0.950 . S
C1243 C1240 1.387 . S
C1244 C1245 1.387 . S
C1244 H1248 0.950 . S
C1244 C1253 1.390 1_545 S
C1245 C1244 1.387 . S
C1245 C1247 1.387 . S
H1246 C1253 0.950 . S
C1247 C1245 1.387 . S
C1247 C1249 1.390 1_545 S
C1247 H1251 0.950 . S
H1248 C1244 0.950 . S
C1249 C1247 1.390 1_565 S
C1249 C1250 1.387 . S
C1249 H1252 0.950 . S
C1250 C1249 1.387 . S
C1250 C1253 1.387 . S
H1251 C1247 0.950 . S
H1252 C1249 0.950 . S
C1253 C1244 1.390 1_565 S
C1253 H1246 0.950 . S
C1253 C1250 1.387 . S
C1254 C1255 1.387 . S
C1254 H1258 0.950 . S
C1254 C1263 1.390 . S
C1255 C1254 1.387 . S
C1255 C1257 1.387 . S
H1256 C1263 0.950 . S
C1257 C1255 1.387 . S
C1257 C1259 1.390 . S
C1257 H1261 0.950 . S
H1258 C1254 0.950 . S
C1259 C1257 1.390 . S
C1259 C1260 1.387 . S
C1259 H1262 0.950 . S
C1260 C1259 1.387 . S
C1260 C1263 1.387 . S
H1261 C1257 0.950 . S
H1262 C1259 0.950 . S
C1263 C1254 1.390 . S
C1263 H1256 0.950 . S
C1263 C1260 1.387 . S
C1264 C1265 1.387 . S
C1264 H1268 0.950 . S
C1264 C1273 1.390 1_556 S
C1265 C1264 1.387 . S
C1265 C1267 1.387 . S
H1266 C1273 0.950 . S
C1267 C1265 1.387 . S
C1267 C1269 1.390 1_556 S
C1267 H1271 0.950 . S
H1268 C1264 0.950 . S
C1269 C1267 1.390 1_554 S
C1269 C1270 1.387 . S
C1269 H1272 0.950 . S
C1270 C1269 1.387 . S
C1270 C1273 1.387 . S
H1271 C1267 0.950 . S
H1272 C1269 0.950 . S
C1273 C1264 1.390 1_554 S
C1273 H1266 0.950 . S
C1273 C1270 1.387 . S
C1274 C1275 1.387 . S
C1274 H1278 0.950 . S
C1274 C1283 1.390 1_556 S
C1275 C1274 1.387 . S
C1275 C1277 1.387 . S
H1276 C1283 0.950 . S
C1277 C1275 1.387 . S
C1277 C1279 1.390 1_556 S
C1277 H1281 0.950 . S
H1278 C1274 0.950 . S
C1279 C1277 1.390 1_554 S
C1279 C1280 1.387 . S
C1279 H1282 0.950 . S
C1280 C1279 1.387 . S
C1280 C1283 1.387 . S
H1281 C1277 0.950 . S
H1282 C1279 0.950 . S
C1283 C1274 1.390 1_554 S
C1283 H1276 0.950 . S
C1283 C1280 1.387 . S
C1284 C1285 1.387 . S
C1284 H1288 0.950 . S
C1284 C1293 1.390 . S
C1285 C1284 1.387 . S
C1285 C1287 1.387 . S
H1286 C1293 0.950 . S
C1287 C1285 1.387 . S
C1287 C1289 1.390 . S
C1287 H1291 0.950 . S
H1288 C1284 0.950 . S
C1289 C1287 1.390 . S
C1289 C1290 1.387 . S
C1289 H1292 0.950 . S
C1290 C1289 1.387 . S
C1290 C1293 1.387 . S
H1291 C1287 0.950 . S
H1292 C1289 0.950 . S
C1293 C1284 1.390 . S
C1293 H1286 0.950 . S
C1293 C1290 1.387 . S
C1294 C1295 1.387 . S
C1294 H1298 0.950 . S
C1294 C1303 1.390 1_556 S
C1295 C1294 1.387 . S
C1295 C1297 1.387 . S
H1296 C1303 0.950 . S
C1297 C1295 1.387 . S
C1297 C1299 1.390 1_556 S
C1297 H1301 0.950 . S
H1298 C1294 0.950 . S
C1299 C1297 1.390 1_554 S
C1299 C1300 1.387 . S
C1299 H1302 0.950 . S
C1300 C1299 1.387 . S
C1300 C1303 1.387 . S
H1301 C1297 0.950 . S
H1302 C1299 0.950 . S
C1303 C1294 1.390 1_554 S
C1303 H1296 0.950 . S
C1303 C1300 1.387 . S
C1304 C1305 1.387 . S
C1304 H1308 0.950 . S
C1304 C1313 1.390 . S
C1305 C1304 1.387 . S
C1305 C1307 1.387 . S
H1306 C1313 0.950 . S
C1307 C1305 1.387 . S
C1307 C1309 1.390 . S
C1307 H1311 0.950 . S
H1308 C1304 0.950 . S
C1309 C1307 1.390 . S
C1309 C1310 1.387 . S
C1309 H1312 0.950 . S
C1310 C1309 1.387 . S
C1310 C1313 1.387 . S
H1311 C1307 0.950 . S
H1312 C1309 0.950 . S
C1313 C1304 1.390 . S
C1313 H1306 0.950 . S
C1313 C1310 1.387 . S
C1314 C1315 1.387 . S
C1314 H1318 0.950 . S
C1314 C1323 1.390 1_556 S
C1315 C1314 1.387 . S
C1315 C1317 1.387 . S
H1316 C1323 0.950 . S
C1317 C1315 1.387 . S
C1317 C1319 1.390 1_556 S
C1317 H1321 0.950 . S
H1318 C1314 0.950 . S
C1319 C1317 1.390 1_554 S
C1319 C1320 1.387 . S
C1319 H1322 0.950 . S
C1320 C1319 1.387 . S
C1320 C1323 1.387 . S
H1321 C1317 0.950 . S
H1322 C1319 0.950 . S
C1323 C1314 1.390 1_554 S
C1323 H1316 0.950 . S
C1323 C1320 1.387 . S
C1324 C1325 1.387 . S
C1324 H1328 0.950 . S
C1324 C1333 1.390 . S
C1325 C1324 1.387 . S
C1325 C1327 1.387 . S
H1326 C1333 0.950 . S
C1327 C1325 1.387 . S
C1327 C1329 1.390 . S
C1327 H1331 0.950 . S
H1328 C1324 0.950 . S
C1329 C1327 1.390 . S
C1329 C1330 1.387 . S
C1329 H1332 0.950 . S
C1330 C1329 1.387 . S
C1330 C1333 1.387 . S
H1331 C1327 0.950 . S
H1332 C1329 0.950 . S
C1333 C1324 1.390 . S
C1333 H1326 0.950 . S
C1333 C1330 1.387 . S
C1334 C1335 1.387 . S
C1334 H1338 0.950 . S
C1334 C1343 1.390 . S
C1335 C1334 1.387 . S
C1335 C1337 1.387 . S
H1336 C1343 0.950 . S
C1337 C1335 1.387 . S
C1337 C1339 1.390 . S
C1337 H1341 0.950 . S
H1338 C1334 0.950 . S
C1339 C1337 1.390 . S
C1339 C1340 1.387 . S
C1339 H1342 0.950 . S
C1340 C1339 1.387 . S
C1340 C1343 1.387 . S
H1341 C1337 0.950 . S
H1342 C1339 0.950 . S
C1343 C1334 1.390 . S
C1343 H1336 0.950 . S
C1343 C1340 1.387 . S
C1344 C1345 1.387 . S
C1344 H1348 0.950 . S
C1344 C1353 1.390 . S
C1345 C1344 1.387 . S
C1345 C1347 1.387 . S
H1346 C1353 0.950 . S
C1347 C1345 1.387 . S
C1347 C1349 1.390 . S
C1347 H1351 0.950 . S
H1348 C1344 0.950 . S
C1349 C1347 1.390 . S
C1349 C1350 1.387 . S
C1349 H1352 0.950 . S
C1350 C1349 1.387 . S
C1350 C1353 1.387 . S
H1351 C1347 0.950 . S
H1352 C1349 0.950 . S
C1353 C1344 1.390 . S
C1353 H1346 0.950 . S
C1353 C1350 1.387 . S
C1354 C1355 1.387 . S
C1354 H1358 0.950 . S
C1354 C1363 1.390 . S
C1355 C1354 1.387 . S
C1355 C1357 1.387 . S
H1356 C1363 0.950 . S
C1357 C1355 1.387 . S
C1357 C1359 1.390 . S
C1357 H1361 0.950 . S
H1358 C1354 0.950 . S
C1359 C1357 1.390 . S
C1359 C1360 1.387 . S
C1359 H1362 0.950 . S
C1360 C1359 1.387 . S
C1360 C1363 1.387 . S
H1361 C1357 0.950 . S
H1362 C1359 0.950 . S
C1363 C1354 1.390 . S
C1363 H1356 0.950 . S
C1363 C1360 1.387 . S
C1364 C1365 1.387 . S
C1364 H1368 0.950 . S
C1364 C1373 1.390 . S
C1365 C1364 1.387 . S
C1365 C1367 1.387 . S
H1366 C1373 0.950 . S
C1367 C1365 1.387 . S
C1367 C1369 1.390 . S
C1367 H1371 0.950 . S
H1368 C1364 0.950 . S
C1369 C1367 1.390 . S
C1369 C1370 1.387 . S
C1369 H1372 0.950 . S
C1370 C1369 1.387 . S
C1370 C1373 1.387 . S
H1371 C1367 0.950 . S
H1372 C1369 0.950 . S
C1373 C1364 1.390 . S
C1373 H1366 0.950 . S
C1373 C1370 1.387 . S
C1374 C1375 1.387 . S
C1374 H1378 0.950 . S
C1374 C1383 1.390 . S
C1375 C1374 1.387 . S
C1375 C1377 1.387 . S
H1376 C1383 0.950 . S
C1377 C1375 1.387 . S
C1377 C1379 1.390 . S
C1377 H1381 0.950 . S
H1378 C1374 0.950 . S
C1379 C1377 1.390 . S
C1379 C1380 1.387 . S
C1379 H1382 0.950 . S
C1380 C1379 1.387 . S
C1380 C1383 1.387 . S
H1381 C1377 0.950 . S
H1382 C1379 0.950 . S
C1383 C1374 1.390 . S
C1383 H1376 0.950 . S
C1383 C1380 1.387 . S
C1384 C1385 1.387 . S
C1384 H1388 0.950 . S
C1384 C1393 1.390 . S
C1385 C1384 1.387 . S
C1385 C1387 1.387 . S
H1386 C1393 0.950 . S
C1387 C1385 1.387 . S
C1387 C1389 1.390 . S
C1387 H1391 0.950 . S
H1388 C1384 0.950 . S
C1389 C1387 1.390 . S
C1389 C1390 1.387 . S
C1389 H1392 0.950 . S
C1390 C1389 1.387 . S
C1390 C1393 1.387 . S
H1391 C1387 0.950 . S
H1392 C1389 0.950 . S
C1393 C1384 1.390 . S
C1393 H1386 0.950 . S
C1393 C1390 1.387 . S
C1394 C1395 1.387 . S
C1394 H1398 0.950 . S
C1394 C1403 1.390 . S
C1395 C1394 1.387 . S
C1395 C1397 1.387 . S
H1396 C1403 0.950 . S
C1397 C1395 1.387 . S
C1397 C1399 1.390 . S
C1397 H1401 0.950 . S
H1398 C1394 0.950 . S
C1399 C1397 1.390 . S
C1399 C1400 1.387 . S
C1399 H1402 0.950 . S
C1400 C1399 1.387 . S
C1400 C1403 1.387 . S
H1401 C1397 0.950 . S
H1402 C1399 0.950 . S
C1403 C1394 1.390 . S
C1403 H1396 0.950 . S
C1403 C1400 1.387 . S
C1404 C1405 1.387 . S
C1404 H1408 0.950 . S
C1404 C1413 1.390 . S
C1405 C1404 1.387 . S
C1405 C1407 1.387 . S
H1406 C1413 0.950 . S
C1407 C1405 1.387 . S
C1407 C1409 1.390 . S
C1407 H1411 0.950 . S
H1408 C1404 0.950 . S
C1409 C1407 1.390 . S
C1409 C1410 1.387 . S
C1409 H1412 0.950 . S
C1410 C1409 1.387 . S
C1410 C1413 1.387 . S
H1411 C1407 0.950 . S
H1412 C1409 0.950 . S
C1413 C1404 1.390 . S
C1413 H1406 0.950 . S
C1413 C1410 1.387 . S
C1414 C1415 1.387 . S
C1414 H1418 0.950 . S
C1414 C1423 1.390 . S
C1415 C1414 1.387 . S
C1415 C1417 1.387 . S
H1416 C1423 0.950 . S
C1417 C1415 1.387 . S
C1417 C1419 1.390 . S
C1417 H1421 0.950 . S
H1418 C1414 0.950 . S
C1419 C1417 1.390 . S
C1419 C1420 1.387 . S
C1419 H1422 0.950 . S
C1420 C1419 1.387 . S
C1420 C1423 1.387 . S
H1421 C1417 0.950 . S
H1422 C1419 0.950 . S
C1423 C1414 1.390 . S
C1423 H1416 0.950 . S
C1423 C1420 1.387 . S
C1424 C1425 1.387 . S
C1424 H1428 0.950 . S
C1424 C1433 1.390 . S
C1425 C1424 1.387 . S
C1425 C1427 1.387 . S
H1426 C1433 0.950 . S
C1427 C1425 1.387 . S
C1427 C1429 1.390 . S
C1427 H1431 0.950 . S
H1428 C1424 0.950 . S
C1429 C1427 1.390 . S
C1429 C1430 1.387 . S
C1429 H1432 0.950 . S
C1430 C1429 1.387 . S
C1430 C1433 1.387 . S
H1431 C1427 0.950 . S
H1432 C1429 0.950 . S
C1433 C1424 1.390 . S
C1433 H1426 0.950 . S
C1433 C1430 1.387 . S
C1434 C1435 1.387 . S
C1434 H1438 0.950 . S
C1434 C1443 1.390 . S
C1435 C1434 1.387 . S
C1435 C1437 1.387 . S
H1436 C1443 0.950 . S
C1437 C1435 1.387 . S
C1437 C1439 1.390 . S
C1437 H1441 0.950 . S
H1438 C1434 0.950 . S
C1439 C1437 1.390 . S
C1439 C1440 1.387 . S
C1439 H1442 0.950 . S
C1440 C1439 1.387 . S
C1440 C1443 1.387 . S
H1441 C1437 0.950 . S
H1442 C1439 0.950 . S
C1443 C1434 1.390 . S
C1443 H1436 0.950 . S
C1443 C1440 1.387 . S
C1444 C1445 1.387 . S
C1444 H1448 0.950 . S
C1444 C1453 1.390 . S
C1445 C1444 1.387 . S
C1445 C1447 1.387 . S
H1446 C1453 0.950 . S
C1447 C1445 1.387 . S
C1447 C1449 1.390 . S
C1447 H1451 0.950 . S
H1448 C1444 0.950 . S
C1449 C1447 1.390 . S
C1449 C1450 1.387 . S
C1449 H1452 0.950 . S
C1450 C1449 1.387 . S
C1450 C1453 1.387 . S
H1451 C1447 0.950 . S
H1452 C1449 0.950 . S
C1453 C1444 1.390 . S
C1453 H1446 0.950 . S
C1453 C1450 1.387 . S
C1454 C1455 1.387 . S
C1454 H1458 0.950 . S
C1454 C1463 1.390 . S
C1455 C1454 1.387 . S
C1455 C1457 1.387 . S
H1456 C1463 0.950 . S
C1457 C1455 1.387 . S
C1457 C1459 1.390 . S
C1457 H1461 0.950 . S
H1458 C1454 0.950 . S
C1459 C1457 1.390 . S
C1459 C1460 1.387 . S
C1459 H1462 0.950 . S
C1460 C1459 1.387 . S
C1460 C1463 1.387 . S
H1461 C1457 0.950 . S
H1462 C1459 0.950 . S
C1463 C1454 1.390 . S
C1463 H1456 0.950 . S
C1463 C1460 1.387 . S
C1464 C1465 1.387 . S
C1464 H1468 0.950 . S
C1464 C1473 1.390 . S
C1465 C1464 1.387 . S
C1465 C1467 1.387 . S
H1466 C1473 0.950 . S
C1467 C1465 1.387 . S
C1467 C1469 1.390 . S
C1467 H1471 0.950 . S
H1468 C1464 0.950 . S
C1469 C1467 1.390 . S
C1469 C1470 1.387 . S
C1469 H1472 0.950 . S
C1470 C1469 1.387 . S
C1470 C1473 1.387 . S
H1471 C1467 0.950 . S
H1472 C1469 0.950 . S
C1473 C1464 1.390 . S
C1473 H1466 0.950 . S
C1473 C1470 1.387 . S
C1474 C1475 1.387 . S
C1474 H1478 0.950 . S
C1474 C1483 1.390 . S
C1475 C1474 1.387 . S
C1475 C1477 1.387 . S
H1476 C1483 0.950 . S
C1477 C1475 1.387 . S
C1477 C1479 1.390 . S
C1477 H1481 0.950 . S
H1478 C1474 0.950 . S
C1479 C1477 1.390 . S
C1479 C1480 1.387 . S
C1479 H1482 0.950 . S
C1480 C1479 1.387 . S
C1480 C1483 1.387 . S
H1481 C1477 0.950 . S
H1482 C1479 0.950 . S
C1483 C1474 1.390 . S
C1483 H1476 0.950 . S
C1483 C1480 1.387 . S
C1484 C1485 1.387 . S
C1484 H1488 0.950 . S
C1484 C1493 1.390 . S
C1485 C1484 1.387 . S
C1485 C1487 1.387 . S
H1486 C1493 0.950 . S
C1487 C1485 1.387 . S
C1487 C1489 1.390 . S
C1487 H1491 0.950 . S
H1488 C1484 0.950 . S
C1489 C1487 1.390 . S
C1489 C1490 1.387 . S
C1489 H1492 0.950 . S
C1490 C1489 1.387 . S
C1490 C1493 1.387 . S
H1491 C1487 0.950 . S
H1492 C1489 0.950 . S
C1493 C1484 1.390 . S
C1493 H1486 0.950 . S
C1493 C1490 1.387 . S
C1494 C1495 1.387 . S
C1494 H1498 0.950 . S
C1494 C1503 1.390 . S
C1495 C1494 1.387 . S
C1495 C1497 1.387 . S
H1496 C1503 0.950 . S
C1497 C1495 1.387 . S
C1497 C1499 1.390 . S
C1497 H1501 0.950 . S
H1498 C1494 0.950 . S
C1499 C1497 1.390 . S
C1499 C1500 1.387 . S
C1499 H1502 0.950 . S
C1500 C1499 1.387 . S
C1500 C1503 1.387 . S
H1501 C1497 0.950 . S
H1502 C1499 0.950 . S
C1503 C1494 1.390 . S
C1503 H1496 0.950 . S
C1503 C1500 1.387 . S
C1504 C1505 1.387 . S
C1504 H1508 0.950 . S
C1504 C1513 1.390 . S
C1505 C1504 1.387 . S
C1505 C1507 1.387 . S
H1506 C1513 0.950 . S
C1507 C1505 1.387 . S
C1507 C1509 1.390 . S
C1507 H1511 0.950 . S
H1508 C1504 0.950 . S
C1509 C1507 1.390 . S
C1509 C1510 1.387 . S
C1509 H1512 0.950 . S
C1510 C1509 1.387 . S
C1510 C1513 1.387 . S
H1511 C1507 0.950 . S
H1512 C1509 0.950 . S
C1513 C1504 1.390 . S
C1513 H1506 0.950 . S
C1513 C1510 1.387 . S
C1514 C1515 1.387 . S
C1514 H1518 0.950 . S
C1514 C1523 1.390 . S
C1515 C1514 1.387 . S
C1515 C1517 1.387 . S
H1516 C1523 0.950 . S
C1517 C1515 1.387 . S
C1517 C1519 1.390 . S
C1517 H1521 0.950 . S
H1518 C1514 0.950 . S
C1519 C1517 1.390 . S
C1519 C1520 1.387 . S
C1519 H1522 0.950 . S
C1520 C1519 1.387 . S
C1520 C1523 1.387 . S
H1521 C1517 0.950 . S
H1522 C1519 0.950 . S
C1523 C1514 1.390 . S
C1523 H1516 0.950 . S
C1523 C1520 1.387 . S
C1524 C1525 1.387 . S
C1524 H1528 0.950 . S
C1524 C1533 1.390 . S
C1525 C1524 1.387 . S
C1525 C1527 1.387 . S
H1526 C1533 0.950 . S
C1527 C1525 1.387 . S
C1527 C1529 1.390 . S
C1527 H1531 0.950 . S
H1528 C1524 0.950 . S
C1529 C1527 1.390 . S
C1529 C1530 1.387 . S
C1529 H1532 0.950 . S
C1530 C1529 1.387 . S
C1530 C1533 1.387 . S
H1531 C1527 0.950 . S
H1532 C1529 0.950 . S
C1533 C1524 1.390 . S
C1533 H1526 0.950 . S
C1533 C1530 1.387 . S
C1534 C1535 1.387 . S
C1534 H1538 0.950 . S
C1534 C1543 1.390 . S
C1535 C1534 1.387 . S
C1535 C1537 1.387 . S
H1536 C1543 0.950 . S
C1537 C1535 1.387 . S
C1537 C1539 1.390 . S
C1537 H1541 0.950 . S
H1538 C1534 0.950 . S
C1539 C1537 1.390 . S
C1539 C1540 1.387 . S
C1539 H1542 0.950 . S
C1540 C1539 1.387 . S
C1540 C1543 1.387 . S
H1541 C1537 0.950 . S
H1542 C1539 0.950 . S
C1543 C1534 1.390 . S
C1543 H1536 0.950 . S
C1543 C1540 1.387 . S
C1544 C1545 1.387 . S
C1544 H1548 0.950 . S
C1544 C1553 1.390 . S
C1545 C1544 1.387 . S
C1545 C1547 1.387 . S
H1546 C1553 0.950 . S
C1547 C1545 1.387 . S
C1547 C1549 1.390 . S
C1547 H1551 0.950 . S
H1548 C1544 0.950 . S
C1549 C1547 1.390 . S
C1549 C1550 1.387 . S
C1549 H1552 0.950 . S
C1550 C1549 1.387 . S
C1550 C1553 1.387 . S
H1551 C1547 0.950 . S
H1552 C1549 0.950 . S
C1553 C1544 1.390 . S
C1553 H1546 0.950 . S
C1553 C1550 1.387 . S
C1554 C1555 1.387 . S
C1554 H1558 0.950 . S
C1554 C1563 1.390 . S
C1555 C1554 1.387 . S
C1555 C1557 1.387 . S
H1556 C1563 0.950 . S
C1557 C1555 1.387 . S
C1557 C1559 1.390 . S
C1557 H1561 0.950 . S
H1558 C1554 0.950 . S
C1559 C1557 1.390 . S
C1559 C1560 1.387 . S
C1559 H1562 0.950 . S
C1560 C1559 1.387 . S
C1560 C1563 1.387 . S
H1561 C1557 0.950 . S
H1562 C1559 0.950 . S
C1563 C1554 1.390 . S
C1563 H1556 0.950 . S
C1563 C1560 1.387 . S
C1564 C1565 1.387 . S
C1564 H1568 0.950 . S
C1564 C1573 1.390 . S
C1565 C1564 1.387 . S
C1565 C1567 1.387 . S
H1566 C1573 0.950 . S
C1567 C1565 1.387 . S
C1567 C1569 1.390 . S
C1567 H1571 0.950 . S
H1568 C1564 0.950 . S
C1569 C1567 1.390 . S
C1569 C1570 1.387 . S
C1569 H1572 0.950 . S
C1570 C1569 1.387 . S
C1570 C1573 1.387 . S
H1571 C1567 0.950 . S
H1572 C1569 0.950 . S
C1573 C1564 1.390 . S
C1573 H1566 0.950 . S
C1573 C1570 1.387 . S
C1574 C1575 1.387 . S
C1574 H1578 0.950 . S
C1574 C1583 1.390 . S
C1575 C1574 1.387 . S
C1575 C1577 1.387 . S
H1576 C1583 0.950 . S
C1577 C1575 1.387 . S
C1577 C1579 1.390 . S
C1577 H1581 0.950 . S
H1578 C1574 0.950 . S
C1579 C1577 1.390 . S
C1579 C1580 1.387 . S
C1579 H1582 0.950 . S
C1580 C1579 1.387 . S
C1580 C1583 1.387 . S
H1581 C1577 0.950 . S
H1582 C1579 0.950 . S
C1583 C1574 1.390 . S
C1583 H1576 0.950 . S
C1583 C1580 1.387 . S
C625 C265 1.792 . S
C630 C3 1.792 . S
C635 C17 1.776 . S
C640 C231 1.777 . S
C645 C29 1.792 . S
C650 C237 1.793 . S
C655 C257 1.776 . S
C660 C43 1.777 . S
C665 C304 1.785 . S
C670 C56 1.785 . S
C675 C75 1.776 . S
C680 C283 1.776 . S
C685 C88 1.785 . S
C690 C289 1.787 . S
C695 C101 1.779 . S
C700 C218 1.778 . S
C705 C109 1.788 . S
C710 C200 1.789 . S
C715 C121 1.786 . S
C720 C159 1.786 . S
C725 C135 1.788 . S
C730 C172 1.788 . S
C735 C185 1.786 . S
C740 C147 1.786 . S
C745 C322 1.580 . S
C750 C575 1.587 . S
C755 C537 1.574 . S
C760 C335 1.574 . S
C765 C348 1.580 . S
C770 C549 1.589 . S
C775 C569 1.571 . S
C780 C361 1.571 . S
C785 C369 1.591 . S
C790 C614 1.592 . S
C795 C595 1.573 . S
C800 C387 1.573 . S
C805 C395 1.590 . S
C810 C601 1.589 . S
C815 C530 1.576 . S
C820 C407 1.577 . S
C825 C419 1.586 . S
C830 C511 1.579 . S
C835 C473 1.592 . S
C840 C434 1.591 . S
C845 C491 1.578 . S
C850 C447 1.586 . S
C855 C497 1.592 . S
C860 C460 1.591 . S
C865 C341 1.292 . S
C870 C10 1.283 . S
C875 C18 1.282 . S
C880 C354 1.295 . S
C885 C36 1.282 . S
C890 C315 1.294 . S
C895 C44 1.284 . S
C900 C328 1.293 . S
C905 C57 1.282 . S
C910 C394 1.291 . S
C915 C408 1.293 . S
C920 C68 1.285 . S
C925 C368 1.292 . S
C930 C81 1.281 . S
C935 C380 1.293 . S
C940 C94 1.284 . S
C945 C472 1.285 . S
C950 C108 1.277 . S
C955 C122 1.286 . S
C960 C484 1.295 . S
C965 C504 1.286 . S
C970 C134 1.275 . S
C975 C148 1.287 . S
C980 C512 1.295 . S
C985 C166 1.274 . S
C990 C426 1.286 . S
C995 C179 1.279 . S
C1000 C433 1.288 . S
C1005 C446 1.285 . S
C1010 C192 1.276 . S
C1015 C459 1.288 . S
C1020 C199 1.279 . S
C1025 C211 1.283 . S
C1030 C562 1.295 . S
C1035 C224 1.284 . S
C1040 C588 1.293 . S
C1045 C608 1.284 . S
C1050 C244 1.276 . S
C1055 C523 1.294 . S
C1060 C250 1.282 . S
C1065 C264 1.274 . S
C1070 C621 1.285 . S
C1075 C538 1.294 . S
C1080 C276 1.284 . S
C1085 C296 1.277 . S
C1090 C556 1.286 . S
C1095 C303 1.277 . S
C1100 C582 1.286 . S
C1105 C374 1.797 . S
C1110 C5 1.857 . S
C1115 C382 1.790 . S
C1120 C23 1.853 . S
C1125 C400 1.797 . S
C1130 C31 1.857 . S
C1135 C49 1.852 . S
C1140 C406 1.790 . S
C1145 C317 1.793 . S
C1150 C62 1.854 . S
C1155 C330 1.789 . S
C1160 C69 1.852 . S
C1165 C82 1.854 . S
C1170 C343 1.792 . S
C1175 C356 1.788 . S
C1180 C95 1.851 . S
C1185 C107 1.857 . S
C1190 C498 1.797 . S
C1195 C127 1.852 . S
C1200 C510 1.789 . S
C1205 C478 1.796 . S
C1210 C133 1.857 . S
C1215 C153 1.852 . S
C1220 C486 1.792 . S
C1225 C452 1.794 . S
C1230 C161 1.854 . S
C1235 C174 1.859 . S
C1240 C465 1.796 . S
C1245 C187 1.854 . S
C1250 C420 1.794 . S
C1255 C198 1.859 . S
C1260 C439 1.796 . S
C1265 C590 1.788 . S
C1270 C212 1.853 . S
C1275 C225 1.852 . S
C1280 C564 1.789 . S
C1285 C239 1.856 . S
C1290 C576 1.795 . S
C1295 C251 1.852 . S
C1300 C536 1.788 . S
C1305 C550 1.795 . S
C1310 C263 1.856 . S
C1315 C525 1.790 . S
C1320 C277 1.852 . S
C1325 C615 1.793 . S
C1330 C291 1.856 . S
C1335 C302 1.855 . S
C1340 C602 1.795 . S
C1345 C205 1.693 . S
C1350 C4 1.692 . S
C1355 C16 1.684 . S
C1360 C160 1.690 . S
C1365 C173 1.693 . S
C1370 C30 1.692 . S
C1375 C186 1.690 . S
C1380 C42 1.684 . S
C1385 C120 1.682 . S
C1390 C55 1.682 . S
C1395 C70 1.682 . S
C1400 C140 1.688 . S
C1405 C83 1.684 . S
C1410 C146 1.683 . S
C1415 C114 1.688 . S
C1420 C96 1.683 . S
C1425 C213 1.683 . S
C1430 C270 1.689 . S
C1435 C309 1.689 . S
C1440 C226 1.684 . S
C1445 C278 1.680 . S
C1450 C238 1.686 . S
C1455 C252 1.683 . S
C1460 C290 1.689 . S
C1465 C517 1.626 . S
C1470 C316 1.625 . S
C1475 C471 1.623 . S
C1480 C329 1.634 . S
C1485 C342 1.624 . S
C1490 C485 1.625 . S
C1495 C499 1.623 . S
C1500 C355 1.634 . S
C1505 C432 1.613 . S
C1510 C367 1.614 . S
C1515 C381 1.634 . S
C1520 C445 1.623 . S
C1525 C393 1.615 . S
C1530 C458 1.614 . S
C1535 C413 1.634 . S
C1540 C421 1.623 . S
C1545 C524 1.635 . S
C1550 C577 1.624 . S
C1555 C616 1.624 . S
C1560 C543 1.635 . S
C1565 C589 1.631 . S
C1570 C551 1.620 . S
C1575 C603 1.619 . S
C1580 C563 1.630 . S
