# Generated by pormake.
# Topology wjd, (6)-cn, num edge types: 1
# Building blocks:
#     Node 0, Type 0, BuildingBlock: FUNLAD_clean_sbu_0, # of connection points: 6
#     Node 1, Type 0, BuildingBlock: FUNLAD_clean_sbu_0, # of connection points: 6
#     Node 2, Type 0, BuildingBlock: FUNLAD_clean_sbu_0, # of connection points: 6
#     Node 3, Type 0, BuildingBlock: FUNLAD_clean_sbu_0, # of connection points: 6
#     Node 4, Type 0, BuildingBlock: FUNLAD_clean_sbu_0, # of connection points: 6
#     Node 5, Type 0, BuildingBlock: FUNLAD_clean_sbu_0, # of connection points: 6
#     Node 6, Type 0, BuildingBlock: FUNLAD_clean_sbu_0, # of connection points: 6
#     Node 7, Type 0, BuildingBlock: FUNLAD_clean_sbu_0, # of connection points: 6
#     Node 8, Type 0, BuildingBlock: FUNLAD_clean_sbu_0, # of connection points: 6
#     Node 9, Type 0, BuildingBlock: FUNLAD_clean_sbu_0, # of connection points: 6
#     Node 10, Type 0, BuildingBlock: FUNLAD_clean_sbu_0, # of connection points: 6
#     Node 11, Type 0, BuildingBlock: FUNLAD_clean_sbu_0, # of connection points: 6
#     Edge 12, Type (0, 0), BuildingBlock: EZIPEK_clean_linker_0, # of connection points: 2
#     Edge 13, Type (0, 0), BuildingBlock: EZIPEK_clean_linker_0, # of connection points: 2
#     Edge 14, Type (0, 0), BuildingBlock: EZIPEK_clean_linker_0, # of connection points: 2
#     Edge 15, Type (0, 0), BuildingBlock: EZIPEK_clean_linker_0, # of connection points: 2
#     Edge 16, Type (0, 0), BuildingBlock: EZIPEK_clean_linker_0, # of connection points: 2
#     Edge 17, Type (0, 0), BuildingBlock: EZIPEK_clean_linker_0, # of connection points: 2
#     Edge 18, Type (0, 0), BuildingBlock: EZIPEK_clean_linker_0, # of connection points: 2
#     Edge 19, Type (0, 0), BuildingBlock: EZIPEK_clean_linker_0, # of connection points: 2
#     Edge 20, Type (0, 0), BuildingBlock: EZIPEK_clean_linker_0, # of connection points: 2
#     Edge 21, Type (0, 0), BuildingBlock: EZIPEK_clean_linker_0, # of connection points: 2
#     Edge 22, Type (0, 0), BuildingBlock: EZIPEK_clean_linker_0, # of connection points: 2
#     Edge 23, Type (0, 0), BuildingBlock: EZIPEK_clean_linker_0, # of connection points: 2
#     Edge 24, Type (0, 0), BuildingBlock: EZIPEK_clean_linker_0, # of connection points: 2
#     Edge 25, Type (0, 0), BuildingBlock: EZIPEK_clean_linker_0, # of connection points: 2
#     Edge 26, Type (0, 0), BuildingBlock: EZIPEK_clean_linker_0, # of connection points: 2
#     Edge 27, Type (0, 0), BuildingBlock: EZIPEK_clean_linker_0, # of connection points: 2
#     Edge 28, Type (0, 0), BuildingBlock: EZIPEK_clean_linker_0, # of connection points: 2
#     Edge 29, Type (0, 0), BuildingBlock: EZIPEK_clean_linker_0, # of connection points: 2
#     Edge 30, Type (0, 0), BuildingBlock: EZIPEK_clean_linker_0, # of connection points: 2
#     Edge 31, Type (0, 0), BuildingBlock: EZIPEK_clean_linker_0, # of connection points: 2
#     Edge 32, Type (0, 0), BuildingBlock: EZIPEK_clean_linker_0, # of connection points: 2
#     Edge 33, Type (0, 0), BuildingBlock: EZIPEK_clean_linker_0, # of connection points: 2
#     Edge 34, Type (0, 0), BuildingBlock: EZIPEK_clean_linker_0, # of connection points: 2
#     Edge 35, Type (0, 0), BuildingBlock: EZIPEK_clean_linker_0, # of connection points: 2
#     Edge 36, Type (0, 0), BuildingBlock: EZIPEK_clean_linker_0, # of connection points: 2
#     Edge 37, Type (0, 0), BuildingBlock: EZIPEK_clean_linker_0, # of connection points: 2
#     Edge 38, Type (0, 0), BuildingBlock: EZIPEK_clean_linker_0, # of connection points: 2
#     Edge 39, Type (0, 0), BuildingBlock: EZIPEK_clean_linker_0, # of connection points: 2
#     Edge 40, Type (0, 0), BuildingBlock: EZIPEK_clean_linker_0, # of connection points: 2
#     Edge 41, Type (0, 0), BuildingBlock: EZIPEK_clean_linker_0, # of connection points: 2
#     Edge 42, Type (0, 0), BuildingBlock: EZIPEK_clean_linker_0, # of connection points: 2
#     Edge 43, Type (0, 0), BuildingBlock: EZIPEK_clean_linker_0, # of connection points: 2
#     Edge 44, Type (0, 0), BuildingBlock: EZIPEK_clean_linker_0, # of connection points: 2
#     Edge 45, Type (0, 0), BuildingBlock: EZIPEK_clean_linker_0, # of connection points: 2
#     Edge 46, Type (0, 0), BuildingBlock: EZIPEK_clean_linker_0, # of connection points: 2
#     Edge 47, Type (0, 0), BuildingBlock: EZIPEK_clean_linker_0, # of connection points: 2
# Relax obj value: 0.124
# Max RMSD: 0.208
# Mean RMSD: 0.208
data_MOF--net-wjd--node1-FUNLAD_clean_sbu_0--edge1-EZIPEK_clean_linker_0
_symmetry_space_group_name_H-M    P1
_symmetry_Int_Tables_number       1
_symmetry_cell_setting            triclinic
loop_
_symmetry_equiv_pos_as_xyz
'x, y, z'
_cell_length_a     20.910233
_cell_length_b     20.836292
_cell_length_c     69.290117
_cell_angle_alpha  90.349801
_cell_angle_beta   89.685736
_cell_angle_gamma 120.4557
loop_
_atom_site_label
_atom_site_type_symbol
_atom_site_fract_x
_atom_site_fract_y
_atom_site_fract_z
_atom_type_partial_charge
C0 C 0.21041 0.95003 0.14768 0.0
N1 N 0.27534 0.07937 0.09848 0.0
C2 C 0.282 0.02342 0.09022 0.0
C3 C 0.26508 0.00479 0.07078 0.0
C4 C 0.24025 0.04336 0.05956 0.0
C5 C 0.23334 0.10075 0.06824 0.0
C6 C 0.25154 0.11814 0.08785 0.0
Zn7 Zn 0.29792 0.09581 0.12803 0.0
C8 C 0.20416 0.13559 0.15016 0.0
N9 N 0.34168 0.11195 0.1898 0.0
C10 C 0.28346 0.0678 0.20161 0.0
C11 C 0.40842 0.16335 0.19745 0.0
C12 C 0.4179 0.17237 0.21756 0.0
C13 C 0.35872 0.12695 0.22998 0.0
C14 C 0.29114 0.07363 0.2217 0.0
Zn15 Zn 0.323 0.10197 0.15991 0.0
O16 O 0.22663 0.98451 0.1318 0.0
C17 C 0.4259 0.07525 0.13751 0.0
O18 O 0.24296 -0.01378 0.16284 0.0
H19 H 0.45419 0.19839 0.18799 0.0
H20 H 0.29962 -0.00796 0.09878 0.0
H21 H 0.23013 0.02855 0.19552 0.0
O22 O 0.38726 0.07878 0.12401 0.0
O23 O 0.40861 0.07912 0.15496 0.0
H24 H 0.24589 0.16198 0.09459 0.0
O25 O 0.39892 0.216 0.15571 0.0
O26 O 0.36866 0.20873 0.12495 0.0
O27 O 0.24142 0.13025 0.16382 0.0
O28 O 0.21121 0.11754 0.13303 0.0
C29 C 0.40445 0.24718 0.13954 0.0
H30 H 0.27071 0.96004 0.06458 0.0
H31 H 0.21414 0.13159 0.05995 0.0
H32 H 0.47079 0.21455 0.22337 0.0
H33 H 0.24399 0.03791 0.23074 0.0
C34 C 0.79752 0.55446 0.40707 0.0
N35 N 0.73199 0.60939 0.35496 0.0
C36 C 0.78897 0.61004 0.34513 0.0
C37 C 0.78747 0.6047 0.32493 0.0
C38 C 0.72664 0.59825 0.31477 0.0
C39 C 0.66727 0.5946 0.32522 0.0
C40 C 0.67115 0.60046 0.34539 0.0
Zn41 Zn 0.74305 0.63593 0.38424 0.0
C42 C 0.60864 0.54848 0.4071 0.0
N43 N 0.76862 0.70091 0.44477 0.0
C44 C 0.82206 0.70591 0.45693 0.0
C45 C 0.7142 0.7131 0.45146 0.0
C46 C 0.71173 0.73066 0.47083 0.0
C47 C 0.76502 0.7348 0.48375 0.0
C48 C 0.8211 0.72258 0.47661 0.0
Zn49 Zn 0.76163 0.67117 0.41566 0.0
O50 O 0.77445 0.55826 0.39041 0.0
C51 C 0.8976 0.75491 0.39374 0.0
O52 O 0.79586 0.59393 0.42097 0.0
H53 H 0.67137 0.70792 0.44182 0.0
H54 H 0.83709 0.61761 0.35286 0.0
H55 H 0.86478 0.69585 0.45146 0.0
O56 O 0.85531 0.71533 0.3801 0.0
O57 O 0.87194 0.75089 0.41064 0.0
H58 H 0.62672 0.60091 0.35335 0.0
O59 O 0.73054 0.74853 0.40882 0.0
O60 O 0.71373 0.71503 0.3784 0.0
O61 O 0.65178 0.58969 0.42028 0.0
O62 O 0.63246 0.55633 0.38983 0.0
C63 C 0.71366 0.75645 0.39178 0.0
H64 H 0.8343 0.6079 0.31728 0.0
H65 H 0.61966 0.59 0.31779 0.0
H66 H 0.66737 0.73917 0.47582 0.0
H67 H 0.86293 0.72489 0.48621 0.0
C68 C 0.01549 0.25036 0.15797 0.0
N69 N 0.91731 0.23158 0.1042 0.0
C70 C -0.01584 0.29127 0.0992 0.0
C71 C 0.01037 0.30003 0.08023 0.0
C72 C 0.96718 0.24736 0.06614 0.0
C73 C 0.89814 0.18662 0.07155 0.0
C74 C 0.87422 0.17959 0.09078 0.0
Zn75 Zn 0.88679 0.2207 0.13305 0.0
C76 C 0.83087 0.07183 0.14812 0.0
N77 N 0.83744 0.20685 0.19373 0.0
C78 C 0.85979 0.17138 0.20605 0.0
C79 C 0.80164 0.242 0.2004 0.0
C80 C 0.78982 0.24505 0.22018 0.0
C81 C 0.81415 0.21065 0.23314 0.0
C82 C 0.84849 0.17251 0.22593 0.0
Zn83 Zn 0.86338 0.21349 0.16482 0.0
O84 O -0.00507 0.24986 0.14072 0.0
C85 C 0.91389 0.36241 0.14993 0.0
O86 O 0.96983 0.23685 0.17159 0.0
H87 H 0.78373 0.26929 0.19039 0.0
H88 H 0.01776 0.33208 0.11 0.0
H89 H 0.88796 0.14362 0.20049 0.0
O90 O 0.91329 0.33207 0.13393 0.0
O91 O 0.89822 0.32437 0.16521 0.0
H92 H 0.82152 0.13233 0.09502 0.0
O93 O 0.75558 0.18722 0.15763 0.0
O94 O 0.7761 0.18694 0.12639 0.0
O95 O 0.82818 0.10245 0.16372 0.0
O96 O 0.85722 0.10932 0.13278 0.0
C97 C 0.7319 0.17539 0.14039 0.0
H98 H 0.0638 0.34764 0.07655 0.0
H99 H 0.86335 0.14504 0.061 0.0
H100 H 0.76327 0.27502 0.22534 0.0
H101 H 0.86811 0.14568 0.23564 0.0
C102 C 0.39669 0.24882 0.4074 0.0
N103 N 0.34806 0.12963 0.35459 0.0
C104 C 0.36122 0.19296 0.34543 0.0
C105 C 0.37107 0.1996 0.32533 0.0
C106 C 0.36558 0.13987 0.31442 0.0
C107 C 0.35439 0.07631 0.32428 0.0
C108 C 0.34652 0.07263 0.34441 0.0
Zn109 Zn 0.3187 0.11327 0.38383 0.0
C110 C 0.4074 0.07015 0.40727 0.0
N111 N 0.24816 0.07073 0.44392 0.0
C112 C 0.22996 0.11401 0.45478 0.0
C113 C 0.24548 0.00944 0.4517 0.0
C114 C 0.22555 -0.00949 0.47103 0.0
C115 C 0.20728 0.03437 0.48256 0.0
C116 C 0.20882 0.09647 0.47421 0.0
Zn117 Zn 0.28074 0.09343 0.41504 0.0
O118 O 0.39508 0.22307 0.39062 0.0
C119 C 0.19813 0.14543 0.39275 0.0
O120 O 0.35567 0.20624 0.42086 0.0
H121 H 0.25921 0.97501 0.44292 0.0
H122 H 0.36175 0.23757 0.35362 0.0
H123 H 0.23207 0.16232 0.44841 0.0
O124 O 0.23968 0.14563 0.37924 0.0
O125 O 0.20025 0.12135 0.40939 0.0
H126 H 0.33653 0.02284 0.35182 0.0
O127 O 0.20565 0.98323 0.40798 0.0
O128 O 0.23949 0.0032 0.37763 0.0
O129 O 0.36373 0.06867 0.42019 0.0
O130 O 0.39918 0.08424 0.38989 0.0
C131 C 0.19797 0.95982 0.39071 0.0
H132 H 0.37992 0.24969 0.31826 0.0
H133 H 0.35006 0.02917 0.31642 0.0
H134 H 0.22468 0.94209 0.47697 0.0
H135 H 0.1949 0.13149 0.48272 0.0
C136 C 0.73287 0.76478 0.14978 0.0
N137 N 0.76626 0.67526 0.09929 0.0
C138 C 0.71676 0.69395 0.0925 0.0
C139 C 0.71478 0.70856 0.07293 0.0
C140 C 0.76389 0.70371 0.06001 0.0
C141 C 0.81506 0.68511 0.06724 0.0
C142 C 0.81552 0.67135 0.08707 0.0
Zn143 Zn 0.75982 0.65361 0.12886 0.0
C144 C 0.90321 0.74435 0.14816 0.0
N145 N 0.7396 0.62692 0.1906 0.0
C146 C 0.68636 0.63237 0.20072 0.0
C147 C 0.78725 0.61099 0.19987 0.0
C148 C 0.78424 0.60275 0.21998 0.0
C149 C 0.73154 0.61067 0.23069 0.0
C150 C 0.68167 0.62487 0.22084 0.0
Zn151 Zn 0.74797 0.64509 0.16076 0.0
O152 O 0.75316 0.74918 0.13402 0.0
C153 C 0.60688 0.55053 0.14058 0.0
O154 O 0.71506 0.72154 0.16402 0.0
H155 H 0.82811 0.60502 0.19175 0.0
H156 H 0.67789 0.69695 0.10226 0.0
H157 H 0.64765 0.64327 0.19324 0.0
O158 O 0.64618 0.58805 0.12642 0.0
O159 O 0.63691 0.56044 0.1571 0.0
H160 H 0.85483 0.65706 0.09258 0.0
O161 O 0.78319 0.57064 0.15664 0.0
O162 O 0.77166 0.56008 0.125 0.0
O163 O 0.86251 0.73088 0.16312 0.0
O164 O 0.87294 0.71583 0.1321 0.0
C165 C 0.78914 0.5427 0.14089 0.0
H166 H 0.67437 0.72245 0.06785 0.0
H167 H 0.85364 0.68061 0.05763 0.0
H168 H 0.82334 0.59139 0.22715 0.0
H169 H 0.64002 0.63088 0.22867 0.0
C170 C 0.70806 0.15656 0.40864 0.0
N171 N 0.82392 0.21392 0.35597 0.0
C172 C 0.79073 0.25082 0.34897 0.0
C173 C 0.78192 0.25421 0.329 0.0
C174 C 0.80783 0.21948 0.31634 0.0
C175 C 0.84078 0.18121 0.32393 0.0
C176 C 0.84813 0.17893 0.34384 0.0
Zn177 Zn 0.84298 0.20935 0.38496 0.0
C178 C 0.89051 0.34664 0.40635 0.0
N179 N 0.8878 0.19264 0.44487 0.0
C180 C 0.84132 0.13871 0.4574 0.0
C181 C 0.95528 0.24891 0.45081 0.0
C182 C -0.02146 0.25242 0.46981 0.0
C183 C 0.93158 0.19836 0.48309 0.0
C184 C 0.86212 0.14076 0.47675 0.0
Zn185 Zn 0.86195 0.195 0.41613 0.0
O186 O 0.73415 0.17735 0.39177 0.0
C187 C 0.80798 0.05647 0.39567 0.0
O188 O 0.74994 0.15995 0.42239 0.0
H189 H -0.00867 0.29189 0.44081 0.0
H190 H 0.77182 0.27823 0.35882 0.0
H191 H 0.78798 0.09442 0.45246 0.0
O192 O 0.80898 0.09689 0.38192 0.0
O193 O 0.83132 0.08423 0.41228 0.0
H194 H 0.87423 0.14977 0.34958 0.0
O195 O 0.97083 0.2265 0.40851 0.0
O196 O 0.95195 0.23969 0.37819 0.0
O197 O 0.89029 0.3056 0.41976 0.0
O198 O 0.87427 0.32069 0.38926 0.0
C199 C -0.00538 0.24147 0.39128 0.0
H200 H 0.75632 0.28434 0.32348 0.0
H201 H 0.86134 0.15395 0.3145 0.0
H202 H 0.03226 0.29784 0.47423 0.0
H203 H 0.82435 0.09832 0.48668 0.0
C204 C 0.24425 0.3963 0.6386 0.0
N205 N 0.12698 0.35144 0.69152 0.0
C206 C 0.1861 0.35472 0.70068 0.0
C207 C 0.19366 0.3645 0.72074 0.0
C208 C 0.13958 0.37032 0.73141 0.0
C209 C 0.08075 0.36943 0.72159 0.0
C210 C 0.07564 0.36021 0.70154 0.0
Zn211 Zn 0.10756 0.32295 0.66257 0.0
C212 C 0.07263 0.41918 0.64033 0.0
N213 N 0.06223 0.25921 0.60241 0.0
C214 C 0.10881 0.25234 0.58983 0.0
C215 C -0.00284 0.25188 0.59615 0.0
C216 C -0.02346 0.23697 0.57682 0.0
C217 C 0.02416 0.23176 0.56345 0.0
C218 C 0.09101 0.23916 0.57011 0.0
Zn219 Zn 0.08735 0.28814 0.63129 0.0
O220 O 0.21938 0.39435 0.65553 0.0
C221 C 0.1313 0.19794 0.65299 0.0
O222 O 0.20038 0.35729 0.62514 0.0
H223 H 0.96171 0.25978 0.60604 0.0
H224 H 0.22613 0.34725 0.69253 0.0
H225 H 0.16058 0.25893 0.59496 0.0
O226 O 0.13301 0.23983 0.6666 0.0
O227 O 0.10817 0.20171 0.63633 0.0
H228 H 0.02904 0.35746 0.69407 0.0
O229 O -0.02433 0.21911 0.63845 0.0
O230 O -0.00487 0.24924 0.66898 0.0
O231 O 0.07041 0.37709 0.62677 0.0
O232 O 0.08544 0.40843 0.65754 0.0
C233 C 0.95048 0.21327 0.65544 0.0
H234 H 0.23958 0.36465 0.72794 0.0
H235 H 0.03805 0.37361 0.72944 0.0
H236 H 0.92492 0.2323 0.57219 0.0
H237 H 0.12939 0.23602 0.56014 0.0
C238 C 0.24259 0.01381 0.88995 0.0
N239 N 0.17235 0.89345 0.94154 0.0
C240 C 0.15108 0.94344 0.94644 0.0
C241 C 0.15582 0.96751 0.96559 0.0
C242 C 0.18222 0.93957 0.9799 0.0
C243 C 0.20121 0.88613 0.97468 0.0
C244 C 0.196 0.86384 0.95532 0.0
Zn245 Zn 0.17906 0.87215 0.91237 0.0
C246 C 0.04607 0.83618 0.89018 0.0
N247 N 0.20024 0.83897 0.85114 0.0
C248 C 0.2633 0.88611 0.84124 0.0
C249 C 0.14063 0.78305 0.84176 0.0
C250 C 0.14224 0.77431 0.82172 0.0
C251 C 0.20593 0.82317 0.81118 0.0
C252 C 0.2674 0.87902 0.82118 0.0
Zn253 Zn 0.19217 0.85607 0.88056 0.0
O254 O 0.22598 -0.01355 0.9068 0.0
C255 C 0.32043 0.87624 0.90293 0.0
O256 O 0.23648 0.9716 0.87589 0.0
H257 H 0.09089 0.74607 0.84976 0.0
H258 H 0.13273 0.96677 0.93536 0.0
H259 H 0.31002 0.93044 0.84884 0.0
O260 O 0.28411 0.88283 0.91681 0.0
O261 O 0.29763 0.87046 0.88568 0.0
H262 H 0.21324 0.82471 0.95122 0.0
O263 O 0.14362 0.74134 0.88615 0.0
O264 O 0.12996 0.75751 0.91705 0.0
O265 O 0.08649 0.83704 0.87638 0.0
O266 O 0.07236 0.85492 0.90714 0.0
C267 C 0.12133 0.71447 0.90295 0.0
H268 H 0.14091 0.00897 0.96912 0.0
H269 H 0.2221 0.86369 0.98537 0.0
H270 H 0.09371 0.73081 0.81444 0.0
H271 H 0.31726 0.91797 0.81346 0.0
C272 C 0.52643 0.81259 0.63556 0.0
N273 N 0.56926 0.75408 0.69028 0.0
C274 C 0.55829 0.80665 0.69895 0.0
C275 C 0.54775 0.80556 0.71897 0.0
C276 C 0.54888 0.75007 0.73008 0.0
C277 C 0.55626 0.69439 0.72071 0.0
C278 C 0.56624 0.69732 0.7007 0.0
Zn279 Zn 0.60608 0.76708 0.662 0.0
C280 C 0.53374 0.62965 0.6392 0.0
N281 N 0.69005 0.79495 0.60333 0.0
C282 C 0.69181 0.84449 0.59026 0.0
C283 C 0.70703 0.74235 0.59781 0.0
C284 C 0.7251 0.73703 0.57866 0.0
C285 C 0.72488 0.78551 0.56478 0.0
C286 C 0.70904 0.8406 0.57078 0.0
Zn287 Zn 0.65178 0.78693 0.63165 0.0
O288 O 0.5251 0.78993 0.65264 0.0
C289 C 0.72139 0.92529 0.65432 0.0
O290 O 0.57312 0.81527 0.62327 0.0
H291 H 0.70405 0.70228 0.60815 0.0
H292 H 0.56139 0.85162 0.6905 0.0
H293 H 0.6776 0.88552 0.59477 0.0
O294 O 0.67579 0.8812 0.66675 0.0
O295 O 0.72606 0.90019 0.63785 0.0
H296 H 0.5755 0.65631 0.69362 0.0
O297 O 0.73057 0.76226 0.6411 0.0
O298 O 0.69003 0.74737 0.671 0.0
O299 O 0.57604 0.67407 0.62635 0.0
O300 O 0.53565 0.65389 0.6562 0.0
C301 C 0.73605 0.74966 0.65868 0.0
H302 H 0.54264 0.8496 0.72583 0.0
H303 H 0.55772 0.65106 0.72891 0.0
H304 H 0.73658 0.69361 0.57455 0.0
H305 H 0.70802 0.87876 0.56041 0.0
C306 C -0.02628 0.20517 0.89541 0.0
N307 N 0.09097 0.29968 0.94624 0.0
C308 C 0.02248 0.28171 0.95295 0.0
C309 C 0.00614 0.27164 0.97262 0.0
C310 C 0.06083 0.28096 0.98574 0.0
C311 C 0.13114 0.2991 0.97863 0.0
C312 C 0.14508 0.30803 0.95865 0.0
Zn313 Zn 0.10651 0.3185 0.91669 0.0
C314 C 0.17183 0.24093 0.89619 0.0
N315 N 0.12061 0.35643 0.85532 0.0
C316 C 0.06404 0.35377 0.84499 0.0
C317 C 0.18385 0.3681 0.84638 0.0
C318 C 0.19099 0.37521 0.8263 0.0
C319 C 0.13282 0.37096 0.81534 0.0
C320 C 0.06918 0.36127 0.82488 0.0
Zn321 Zn 0.1088 0.33689 0.88474 0.0
O322 O 0.00146 0.22738 0.91202 0.0
C323 C 0.04771 0.41759 0.90512 0.0
O324 O 0.0069 0.24219 0.8805 0.0
H325 H 0.22833 0.37023 0.85477 0.0
H326 H -0.01967 0.2766 0.94307 0.0
H327 H 0.0141 0.34408 0.8523 0.0
O328 O 0.063 0.38935 0.91924 0.0
O329 O 0.05972 0.40295 0.8881 0.0
H330 H 0.19936 0.32293 0.95313 0.0
O331 O 0.21048 0.42832 0.88952 0.0
O332 O 0.2122 0.4081 0.92037 0.0
O333 O 0.15993 0.27221 0.8821 0.0
O334 O 0.15382 0.24935 0.91324 0.0
C335 C 0.2446 0.44619 0.90548 0.0
H336 H 0.95156 0.25826 0.97761 0.0
H337 H 0.17484 0.30724 0.98842 0.0
H338 H 0.24073 0.38246 0.81934 0.0
H339 H 0.02316 0.35735 0.81679 0.0
C340 C 0.11071 0.70254 0.63318 0.0
N341 N 0.19312 0.81457 0.68703 0.0
C342 C 0.13764 0.75663 0.69698 0.0
C343 C 0.14213 0.7518 0.71708 0.0
C344 C 0.20413 0.80715 0.72702 0.0
C345 C 0.26229 0.86391 0.71635 0.0
C346 C 0.25573 0.86649 0.69629 0.0
Zn347 Zn 0.17552 0.83553 0.65872 0.0
C348 C 0.30419 0.88019 0.63299 0.0
N349 N 0.14027 0.88377 0.59988 0.0
C350 C 0.15941 0.8533 0.58508 0.0
C351 C 0.12161 0.93656 0.59633 0.0
C352 C 0.12463 0.96247 0.57748 0.0
C353 C 0.14666 0.93347 0.56217 0.0
C354 C 0.16273 0.87724 0.56608 0.0
Zn355 Zn 0.15411 0.85707 0.62797 0.0
O356 O 0.13468 0.72593 0.65013 0.0
C357 C 0.02572 0.80945 0.65374 0.0
O358 O 0.11333 0.7465 0.62022 0.0
H359 H 0.1071 0.96076 0.6082 0.0
H360 H 0.08794 0.71628 0.68951 0.0
H361 H 0.17522 0.81236 0.58807 0.0
O362 O 0.06969 0.80933 0.66619 0.0
O363 O 0.04653 0.82916 0.63639 0.0
H364 H 0.29904 0.91254 0.68826 0.0
O365 O 0.19426 0.96632 0.63678 0.0
O366 O 0.21441 0.94516 0.66646 0.0
O367 O 0.26188 0.88339 0.6205 0.0
O368 O 0.28151 0.86162 0.65025 0.0
C369 C 0.21592 -0.01053 0.65385 0.0
H370 H 0.09606 0.70746 0.72489 0.0
H371 H 0.31075 0.9077 0.72358 0.0
H372 H 0.1122 0.00625 0.57496 0.0
H373 H 0.18042 0.85407 0.55463 0.0
C374 C 0.74637 0.72995 0.88445 0.0
N375 N 0.69254 0.76371 0.9408 0.0
C376 C 0.70756 0.70943 0.94572 0.0
C377 C 0.72521 0.70249 0.96473 0.0
C378 C 0.72681 0.75131 0.97898 0.0
C379 C 0.713 0.80803 0.97355 0.0
C380 C 0.69604 0.81338 0.95426 0.0
Zn381 Zn 0.65667 0.76193 0.91273 0.0
C382 C 0.73737 0.90625 0.89287 0.0
N383 N 0.59137 0.75232 0.85308 0.0
C384 C 0.5808 0.69356 0.84195 0.0
C385 C 0.58526 0.809 0.84536 0.0
C386 C 0.57126 0.80949 0.82562 0.0
C387 C 0.56293 0.75085 0.8138 0.0
C388 C 0.56623 0.69161 0.82221 0.0
Zn389 Zn 0.62679 0.75875 0.88128 0.0
O390 O 0.73545 0.73781 0.90215 0.0
C391 C 0.54427 0.61341 0.90118 0.0
O392 O 0.70665 0.73568 0.87168 0.0
H393 H 0.59391 0.8553 0.85437 0.0
H394 H 0.70376 0.66979 0.93499 0.0
H395 H 0.58647 0.64932 0.84823 0.0
O396 O 0.58107 0.64977 0.91582 0.0
O397 O 0.55399 0.64704 0.88524 0.0
H398 H 0.68374 0.85598 0.95016 0.0
O399 O 0.54826 0.78435 0.89153 0.0
O400 O 0.57794 0.78863 0.92229 0.0
O401 O 0.70066 0.87027 0.87819 0.0
O402 O 0.73076 0.87402 0.90891 0.0
C403 C 0.5406 0.79676 0.90914 0.0
H404 H 0.73525 0.65791 0.96843 0.0
H405 H 0.71354 0.84651 0.98422 0.0
H406 H 0.56945 0.85626 0.81951 0.0
H407 H 0.56063 0.64586 0.81343 0.0
C408 C 0.13833 0.27492 0.14626 0.0
C409 C 0.08471 0.24872 0.16116 0.0
C410 C 0.1154 0.15496 0.17021 0.0
C411 C 0.16331 0.17501 0.15395 0.0
N412 N 0.24039 0.27123 0.13092 0.0
N413 N 0.05598 0.19654 0.1931 0.0
C414 C 0.18108 0.24036 0.14325 0.0
C415 C 0.08438 0.1995 0.17514 0.0
N416 N 0.14674 0.33195 0.13485 0.0
N417 N 0.097 0.09198 0.18043 0.0
H418 H 0.04026 0.23448 0.19756 0.0
H419 H 0.05828 0.16448 0.20426 0.0
H420 H 0.11504 0.05522 0.17663 0.0
H421 H 0.05827 0.07256 0.19162 0.0
H422 H 0.17658 0.34732 0.12196 0.0
H423 H 0.12158 0.36292 0.13832 0.0
H424 H 0.26032 0.32261 0.12429 0.0
H425 H 0.27447 0.24917 0.12855 0.0
C426 C 0.08375 0.8881 0.37143 0.0
C427 C 0.1313 0.88824 0.38587 0.0
C428 C 0.02591 0.78369 0.4017 0.0
C429 C -0.02203 0.79827 0.3904 0.0
N430 N 0.96147 0.86764 0.36496 0.0
N431 N 0.15207 0.82773 0.41235 0.0
C432 C 0.00667 0.85049 0.37513 0.0
C433 C 0.10356 0.83202 0.40004 0.0
N434 N 0.11197 0.9233 0.35428 0.0
N435 N -0.00252 0.72355 0.41372 0.0
H436 H 0.20941 0.8595 0.41024 0.0
H437 H 0.13619 0.79502 0.42472 0.0
H438 H 0.9409 0.68679 0.41545 0.0
H439 H 0.02973 0.7062 0.42086 0.0
H440 H 0.0787 0.92115 0.34286 0.0
H441 H 0.16749 0.94516 0.3505 0.0
H442 H -0.01838 0.91124 0.3551 0.0
H443 H 0.90477 0.84331 0.36767 0.0
C444 C 0.83817 0.96649 0.16096 0.0
C445 C 0.80389 -0.00749 0.14826 0.0
C446 C 0.71264 0.86563 0.13881 0.0
C447 C 0.74512 0.83968 0.15225 0.0
N448 N 0.82726 0.86451 0.17959 0.0
N449 N 0.70337 0.96968 0.12693 0.0
C450 C 0.80371 0.88965 0.16456 0.0
C451 C 0.73956 0.94297 0.13765 0.0
N452 N 0.90598 0.01509 0.16875 0.0
N453 N 0.65701 0.81611 0.12701 0.0
H454 H 0.72274 0.0263 0.12524 0.0
H455 H 0.65163 0.93593 0.12068 0.0
H456 H 0.63193 0.75856 0.12869 0.0
H457 H 0.63748 0.83168 0.11519 0.0
H458 H 0.93779 -0.002 0.17622 0.0
H459 H 0.93423 0.07215 0.16603 0.0
H460 H 0.86384 0.89968 0.19011 0.0
H461 H 0.80564 0.80884 0.18302 0.0
C462 C 0.16877 0.24373 0.4022 0.0
C463 C 0.15555 0.18314 0.38989 0.0
C464 C 0.06781 0.20197 0.37135 0.0
C465 C 0.06602 0.24649 0.38657 0.0
N466 N 0.12461 0.32445 0.41407 0.0
N467 N 0.08959 0.10195 0.36302 0.0
C468 C 0.12084 0.27306 0.40107 0.0
C469 C 0.10516 0.16219 0.37429 0.0
N470 N 0.22747 0.27385 0.41466 0.0
N471 N 0.03526 0.19879 0.35408 0.0
H472 H 0.11399 0.06955 0.36507 0.0
H473 H 0.04727 0.08005 0.3528 0.0
H474 H 0.01496 0.234 0.3509 0.0
H475 H 0.03859 0.16997 0.34214 0.0
H476 H 0.24393 0.3222 0.42263 0.0
H477 H 0.26411 0.25427 0.41596 0.0
H478 H 0.15587 0.33936 0.42667 0.0
H479 H 0.09402 0.35101 0.41224 0.0
C480 C 0.10121 0.85049 0.13101 0.0
C481 C 0.14181 0.87521 0.14833 0.0
C482 C 0.02678 0.79155 0.16557 0.0
C483 C -0.01438 0.78996 0.14896 0.0
N484 N -0.00789 0.83822 0.11659 0.0
N485 N 0.14447 0.85569 0.18252 0.0
C486 C 0.02502 0.8246 0.13175 0.0
C487 C 0.10506 0.84171 0.16586 0.0
N488 N 0.13578 0.85511 0.11391 0.0
N489 N -0.00684 0.74221 0.18028 0.0
H490 H 0.20214 0.8811 0.18258 0.0
H491 H 0.11958 0.84149 0.1961 0.0
H492 H 0.93852 0.6988 0.17962 0.0
H493 H 0.02201 0.73804 0.19195 0.0
H494 H 0.10661 0.83522 0.10099 0.0
H495 H 0.19172 0.87055 0.11336 0.0
H496 H 0.02184 0.8667 0.10431 0.0
H497 H 0.93922 0.83142 0.11741 0.0
C498 C 0.68062 0.84924 0.40221 0.0
C499 C 0.70856 0.82277 0.38752 0.0
C500 C 0.79562 0.94847 0.37702 0.0
C501 C 0.77224 0.97601 0.39263 0.0
N502 N 0.67894 0.95421 0.41676 0.0
N503 N 0.7622 0.84422 0.35563 0.0
C504 C 0.71013 0.9269 0.4042 0.0
C505 C 0.75571 0.8714 0.37304 0.0
N506 N 0.62807 0.79951 0.41462 0.0
N507 N 0.85827 -0.00515 0.36675 0.0
H508 H 0.72824 0.78857 0.35172 0.0
H509 H 0.79314 0.87838 0.34421 0.0
H510 H 0.89138 0.05154 0.36976 0.0
H511 H 0.88145 0.97558 0.35655 0.0
H512 H 0.61173 0.81445 0.42727 0.0
H513 H 0.60222 0.74212 0.41228 0.0
H514 H 0.62959 0.92096 0.42417 0.0
H515 H 0.69891 0.01081 0.41874 0.0
C516 C 0.2558 0.11771 0.64465 0.0
C517 C 0.22886 0.06338 0.65924 0.0
C518 C 0.14884 0.10638 0.67198 0.0
C519 C 0.16795 0.15448 0.65586 0.0
N520 N 0.25818 0.22496 0.63088 0.0
N521 N 0.18438 0.03447 0.69192 0.0
C522 C 0.22767 0.16653 0.64345 0.0
C523 C 0.18737 0.06772 0.67478 0.0
N524 N 0.30507 0.11887 0.63142 0.0
N525 N 0.09124 0.09393 0.68385 0.0
H526 H 0.21692 0.01065 0.69457 0.0
H527 H 0.15806 0.03951 0.70416 0.0
H528 H 0.05896 0.1184 0.68179 0.0
H529 H 0.07087 0.05371 0.69465 0.0
H530 H 0.32012 0.1499 0.61877 0.0
H531 H 0.32919 0.08591 0.6331 0.0
H532 H 0.30591 0.24028 0.62282 0.0
H533 H 0.23985 0.26262 0.62964 0.0
C534 C 0.9399 0.825 0.87138 0.0
C535 C 0.96592 0.79986 0.88679 0.0
C536 C 0.83976 0.69762 0.89309 0.0
C537 C 0.81416 0.72891 0.87937 0.0
N538 N 0.83893 0.79418 0.84926 0.0
N539 N 0.94355 0.70044 0.90892 0.0
C540 C 0.86407 0.7831 0.86632 0.0
C541 C 0.91681 0.73221 0.8966 0.0
N542 N -0.01349 0.89076 0.86234 0.0
N543 N 0.78899 0.63723 0.9034 0.0
H544 H -0.00094 0.72471 0.91253 0.0
H545 H 0.91165 0.64752 0.91476 0.0
H546 H 0.73267 0.6091 0.89984 0.0
H547 H 0.80142 0.61633 0.9155 0.0
H548 H 0.96836 0.9152 0.85235 0.0
H549 H 0.04209 0.92467 0.86616 0.0
H550 H 0.87386 0.83027 0.83863 0.0
H551 H 0.78438 0.75965 0.8447 0.0
C552 C 0.80128 0.03779 0.67561 0.0
C553 C 0.76244 0.00668 0.65797 0.0
C554 C 0.82187 0.13071 0.64359 0.0
C555 C 0.87183 0.15658 0.65925 0.0
N556 N 0.87984 0.1511 0.69369 0.0
N557 N 0.71337 0.02748 0.62866 0.0
C558 C 0.85229 0.11545 0.67651 0.0
C559 C 0.76523 0.0547 0.64304 0.0
N560 N 0.79257 -0.00594 0.69115 0.0
N561 N 0.83023 0.17947 0.62936 0.0
H562 H 0.66891 0.9729 0.62848 0.0
H563 H 0.71073 0.05936 0.61756 0.0
H564 H 0.86714 0.23657 0.6309 0.0
H565 H 0.80101 0.16472 0.61645 0.0
H566 H 0.82853 0.01266 0.70289 0.0
H567 H 0.75091 0.93879 0.69242 0.0
H568 H 0.8636 0.12482 0.70704 0.0
H569 H 0.9107 0.209 0.69472 0.0
C570 C 0.17268 0.13785 0.87723 0.0
C571 C 0.2025 0.19146 0.89238 0.0
C572 C 0.28312 0.14306 0.90172 0.0
C573 C 0.25131 0.08863 0.88687 0.0
N574 N 0.19638 0.06232 0.85511 0.0
N575 N 0.30245 0.25984 0.91494 0.0
C576 C 0.20652 0.0955 0.87276 0.0
C577 C 0.26304 0.19883 0.90339 0.0
N578 N 0.10929 0.1233 0.86787 0.0
N579 N 0.33154 0.14032 0.91435 0.0
H580 H 0.29089 0.30294 0.91592 0.0
H581 H 0.35083 0.27131 0.92208 0.0
H582 H 0.35199 0.10428 0.91227 0.0
H583 H 0.34954 0.17189 0.92697 0.0
H584 H 0.082 0.07916 0.85817 0.0
H585 H 0.07908 0.14909 0.87126 0.0
H586 H 0.16713 0.06961 0.84404 0.0
H587 H 0.2265 0.03761 0.85058 0.0
C588 C 0.89424 0.71491 0.66045 0.0
C589 C 0.95152 0.79055 0.65981 0.0
C590 C 0.86446 0.82984 0.66888 0.0
C591 C 0.80589 0.75691 0.66488 0.0
N592 N 0.76187 0.6282 0.6578 0.0
N593 N -0.00644 0.92118 0.66358 0.0
C594 C 0.81974 0.69836 0.66126 0.0
C595 C 0.93763 0.8485 0.66436 0.0
N596 N 0.91122 0.6597 0.66029 0.0
N597 N 0.84956 0.88107 0.67671 0.0
H598 H 0.04877 0.93683 0.661 0.0
H599 H -0.01559 0.96584 0.66423 0.0
H600 H 0.79597 0.86715 0.68063 0.0
H601 H 0.89041 0.93384 0.68127 0.0
H602 H 0.87187 0.60367 0.6622 0.0
H603 H 0.9658 0.67084 0.66001 0.0
H604 H 0.76858 0.58463 0.65288 0.0
H605 H 0.7067 0.6148 0.65922 0.0
C606 C 0.84232 0.11483 0.88691 0.0
C607 C 0.9126 0.12905 0.89328 0.0
C608 C 0.86955 -0.00325 0.89394 0.0
C609 C 0.79713 0.9824 0.89063 0.0
N610 N 0.7109 0.02423 0.88422 0.0
N611 N -0.00851 0.08349 0.90516 0.0
C612 C 0.78227 0.04033 0.88691 0.0
C613 C 0.92589 0.07009 0.89742 0.0
N614 N 0.83313 0.17228 0.88115 0.0
N615 N 0.88479 0.94018 0.89325 0.0
H616 H 0.0364 0.13631 0.90731 0.0
H617 H -0.00037 0.04201 0.91086 0.0
H618 H 0.84448 0.8852 0.89031 0.0
H619 H 0.93836 0.94874 0.89354 0.0
H620 H 0.78511 0.16476 0.87459 0.0
H621 H 0.87547 0.22789 0.88186 0.0
H622 H 0.69547 0.06445 0.88358 0.0
H623 H 0.666 0.96987 0.88368 0.0
C624 C 0.31221 0.14742 0.28228 0.0
C625 C 0.36754 0.1418 0.29272 0.0
C626 C 0.41652 0.12377 0.262 0.0
C627 C 0.36548 0.13633 0.25156 0.0
N628 N 0.27848 0.18015 0.25209 0.0
N629 N 0.4829 0.14178 0.29202 0.0
C630 C 0.31757 0.15435 0.26182 0.0
C631 C 0.42297 0.13521 0.28241 0.0
N632 N 0.25223 0.14229 0.29171 0.0
N633 N 0.45642 0.09752 0.25266 0.0
H634 H 0.49035 0.15181 0.30684 0.0
H635 H 0.52859 0.14476 0.28503 0.0
H636 H 0.45199 0.08641 0.23788 0.0
H637 H 0.48861 0.08014 0.25985 0.0
H638 H 0.20669 0.13831 0.28453 0.0
H639 H 0.24412 0.13411 0.30656 0.0
H640 H 0.24828 0.20083 0.25904 0.0
H641 H 0.28276 0.1885 0.2372 0.0
C642 C 0.69302 0.53378 0.28225 0.0
C643 C 0.72754 0.60083 0.29319 0.0
C644 C 0.76893 0.67369 0.2632 0.0
C645 C 0.73028 0.60692 0.25225 0.0
N646 N 0.64798 0.47407 0.25103 0.0
N647 N 0.78935 0.73482 0.29438 0.0
C648 C 0.69021 0.53705 0.26171 0.0
C649 C 0.76304 0.67088 0.28372 0.0
N650 N 0.66445 0.46701 0.29153 0.0
N651 N 0.81294 0.73971 0.25395 0.0
H652 H 0.78758 0.73528 0.30942 0.0
H653 H 0.80794 0.78703 0.28836 0.0
H654 H 0.8174 0.74433 0.23895 0.0
H655 H 0.84931 0.78906 0.26105 0.0
H656 H 0.64567 0.41639 0.28445 0.0
H657 H 0.66409 0.46261 0.30653 0.0
H658 H 0.611 0.42253 0.257 0.0
H659 H 0.646 0.47427 0.23599 0.0
C660 C 0.86979 0.27547 0.26452 0.0
C661 C 0.80818 0.21842 0.25434 0.0
C662 C 0.74156 0.16766 0.28486 0.0
C663 C 0.80344 0.22432 0.29502 0.0
N664 N 0.91969 0.34033 0.2949 0.0
N665 N 0.68062 0.11908 0.25402 0.0
C666 C 0.86542 0.28095 0.28492 0.0
C667 C 0.74236 0.16739 0.26429 0.0
N668 N 0.93331 0.32299 0.25471 0.0
N669 N 0.68335 0.11263 0.29494 0.0
H670 H 0.6801 0.11597 0.23898 0.0
H671 H 0.62855 0.08575 0.26019 0.0
H672 H 0.67971 0.11292 0.30996 0.0
H673 H 0.64038 0.06485 0.28862 0.0
H674 H -0.01671 0.35984 0.26136 0.0
H675 H 0.93746 0.32307 0.2397 0.0
H676 H 0.96276 0.38737 0.28838 0.0
H677 H 0.91855 0.34544 0.30987 0.0
C678 C 0.17224 0.44003 0.76312 0.0
C679 C 0.14087 0.37131 0.75294 0.0
C680 C 0.10256 0.30275 0.78359 0.0
C681 C 0.13645 0.37148 0.79382 0.0
N682 N 0.21089 0.50536 0.79389 0.0
N683 N 0.08398 0.23764 0.75308 0.0
C684 C 0.17352 0.44015 0.78372 0.0
C685 C 0.1083 0.30276 0.76309 0.0
N686 N 0.19929 0.50499 0.75303 0.0
N687 N 0.06351 0.23738 0.79352 0.0
H688 H 0.08424 0.23483 0.73805 0.0
H689 H 0.06783 0.1867 0.75955 0.0
H690 H 0.06116 0.23464 0.80856 0.0
H691 H 0.02976 0.18593 0.787 0.0
H692 H 0.21535 0.55634 0.75938 0.0
H693 H 0.2019 0.50709 0.73799 0.0
H694 H 0.24584 0.55681 0.78759 0.0
H695 H 0.21061 0.50766 0.80893 0.0
C696 C 0.18365 0.86138 0.77861 0.0
C697 C 0.20625 0.81896 0.78959 0.0
C698 C 0.23177 0.77177 0.75954 0.0
C699 C 0.20467 0.81046 0.74862 0.0
N700 N 0.14593 0.88447 0.74755 0.0
N701 N 0.24416 0.72753 0.79094 0.0
C702 C 0.17821 0.85322 0.75812 0.0
C703 C 0.22819 0.77236 0.78016 0.0
N704 N 0.16882 0.91077 0.78777 0.0
N705 N 0.26259 0.73598 0.75017 0.0
H706 H 0.24447 0.72839 0.806 0.0
H707 H 0.25239 0.68614 0.78511 0.0
H708 H 0.26438 0.73303 0.73515 0.0
H709 H 0.2907 0.71346 0.75711 0.0
H710 H 0.16085 0.9499 0.7806 0.0
H711 H 0.16945 0.91646 0.80275 0.0
H712 H 0.11758 0.90873 0.75363 0.0
H713 H 0.14263 0.8816 0.73253 0.0
C714 C 0.48464 0.71742 0.76256 0.0
C715 C 0.55117 0.75467 0.75158 0.0
C716 C 0.62489 0.78968 0.78136 0.0
C717 C 0.55838 0.75474 0.7924 0.0
N718 N 0.42528 0.69515 0.79407 0.0
N719 N 0.68387 0.83649 0.75027 0.0
C720 C 0.48824 0.72155 0.78314 0.0
C721 C 0.62108 0.79398 0.76094 0.0
N722 N 0.41829 0.67649 0.75328 0.0
N723 N 0.6918 0.81666 0.79039 0.0
H724 H 0.68387 0.83943 0.73525 0.0
H725 H 0.73527 0.87335 0.75629 0.0
H726 H 0.69734 0.81704 0.80535 0.0
H727 H 0.74159 0.83424 0.7831 0.0
H728 H 0.36854 0.64111 0.76029 0.0
H729 H 0.41357 0.67449 0.73828 0.0
H730 H 0.37303 0.67749 0.78834 0.0
H731 H 0.42602 0.69591 0.80912 0.0
C732 C 0.2652 0.03093 1.00526 0.0
C733 C 0.19468 0.96982 1.00006 0.0
C734 C 0.1516 0.96075 0.03364 0.0
C735 C 0.22186 0.02248 0.03876 0.0
N736 N 0.34141 0.12395 0.02924 0.0
N737 N 0.0673 0.88321 1.00823 0.0
C738 C 0.27732 0.05998 0.02445 0.0
C739 C 0.13674 0.93684 1.01396 0.0
N740 N 0.32135 0.0597 0.99193 0.0
N741 N 0.09983 0.92394 0.04775 0.0
H742 H 0.05509 0.86339 0.99408 0.0
H743 H 0.02061 0.86137 1.01706 0.0
H744 H 0.10747 0.94207 0.06207 0.0
H745 H 0.05076 0.87367 0.04562 0.0
H746 H 0.37637 0.09801 0.99521 0.0
H747 H 0.31399 0.04202 0.97758 0.0
H748 H 0.38092 0.15875 1.01922 0.0
H749 H 0.353 0.14561 0.04322 0.0
C750 C 0.69613 0.69258 0.51535 0.0
C751 C 0.7582 0.74737 0.50482 0.0
C752 C 0.80233 0.82536 0.53412 0.0
C753 C 0.73599 0.77425 0.54391 0.0
N754 N 0.6133 0.66576 0.54258 0.0
N755 N 0.86543 0.87102 0.5034 0.0
C756 C 0.68108 0.70966 0.53415 0.0
C757 C 0.81018 0.81519 0.51401 0.0
N758 N 0.65275 0.62309 0.50764 0.0
N759 N 0.85882 0.88233 0.54417 0.0
H760 H 0.87299 0.86576 0.48871 0.0
H761 H 0.90022 0.92442 0.50879 0.0
H762 H 0.85493 0.89185 0.55881 0.0
H763 H 0.91155 0.9162 0.53842 0.0
H764 H 0.61147 0.57855 0.5154 0.0
H765 H 0.66285 0.60778 0.4941 0.0
H766 H 0.56844 0.62254 0.53535 0.0
H767 H 0.59947 0.67688 0.55619 0.0
C768 C 0.0339 0.21293 1.01763 0.0
C769 C 0.04407 0.27529 1.00688 0.0
C770 C -0.00074 0.31622 0.0345 0.0
C771 C -0.00598 0.25691 0.04572 0.0
N772 N 0.02061 0.15764 0.04921 0.0
N773 N 0.05245 0.39501 1.00645 0.0
C774 C 0.01556 0.20779 0.03764 0.0
C775 C 0.03165 0.32963 1.01577 0.0
N776 N 0.03883 0.15712 1.00858 0.0
N777 N 0.97044 0.35793 0.0414 0.0
H778 H 0.07731 0.40725 0.99283 0.0
H779 H 0.05185 0.4399 1.01295 0.0
H780 H 0.94516 0.34924 0.05491 0.0
H781 H 0.96538 0.39652 0.03306 0.0
H782 H 0.02374 0.10645 1.0151 0.0
H783 H 0.05259 0.15903 0.99403 0.0
H784 H 0.04348 0.12584 0.04465 0.0
H785 H 0.00802 0.1525 0.06391 0.0
C786 C 0.11644 0.95655 0.50874 0.0
C787 C 0.18832 0.01518 0.50342 0.0
C788 C 0.23068 0.02427 0.53696 0.0
C789 C 0.15899 0.9655 0.54228 0.0
N790 N 0.03092 0.88183 0.53435 0.0
N791 N 0.31045 0.11284 0.51265 0.0
C792 C 0.10091 0.93368 0.52847 0.0
C793 C 0.24427 0.05166 0.51764 0.0
N794 N 0.06364 0.92201 0.49476 0.0
N795 N 0.28667 0.05185 0.55025 0.0
H796 H 0.32371 0.1326 0.49855 0.0
H797 H 0.35063 0.14734 0.52256 0.0
H798 H 0.27836 0.03558 0.56469 0.0
H799 H 0.34225 0.08782 0.54692 0.0
H800 H 0.01253 0.87407 0.49695 0.0
H801 H 0.072 0.94004 0.48047 0.0
H802 H -0.01564 0.85924 0.52554 0.0
H803 H 0.01821 0.86387 0.54861 0.0
C804 C 0.81273 0.78001 0.02939 0.0
C805 C 0.75812 0.71447 0.03888 0.0
C806 C 0.68117 0.6769 1.00965 0.0
C807 C 0.73796 0.73945 0.99969 0.0
N808 N 0.86283 0.84421 0.99899 0.0
N809 N 0.64815 0.59301 0.03681 0.0
C810 C 0.80531 0.78926 1.00926 0.0
C811 C 0.69464 0.66069 0.02861 0.0
N812 N 0.8703 0.83455 0.03976 0.0
N813 N 0.61309 0.63447 1.00129 0.0
H814 H 0.65661 0.57865 0.05056 0.0
H815 H 0.60545 0.54862 0.02931 0.0
H816 H 0.60046 0.64484 0.98754 0.0
H817 H 0.56707 0.59329 1.00864 0.0
H818 H 0.90751 0.88693 0.03423 0.0
H819 H 0.87786 0.82952 0.05441 0.0
H820 H 0.9158 0.87785 1.00459 0.0
H821 H 0.85927 0.85256 0.9843 0.0
C822 C -0.00198 0.2807 0.53326 0.0
C823 C 0.00514 0.22391 0.54245 0.0
C824 C 0.97105 0.15291 0.51202 0.0
C825 C 0.95463 0.20515 0.50374 0.0
N826 N 0.93878 0.31137 0.50798 0.0
N827 N -0.01217 0.1003 0.54136 0.0
C828 C 0.96426 0.267 0.5148 0.0
C829 C -0.01104 0.15843 0.53203 0.0
N830 N 0.02581 0.34886 0.54189 0.0
N831 N 0.97196 0.09952 0.50067 0.0
H832 H -0.00037 0.10166 0.55601 0.0
H833 H 0.96926 0.04856 0.53494 0.0
H834 H 0.95926 0.09375 0.48599 0.0
H835 H -0.00823 0.06544 0.50538 0.0
H836 H 0.02872 0.39458 0.53501 0.0
H837 H 0.05324 0.36201 0.55513 0.0
H838 H 0.93754 0.35257 0.51629 0.0
H839 H 0.91193 0.30219 0.49474 0.0
C840 C 0.60169 0.07327 0.1469 0.0
C841 C 0.65149 0.14012 0.13698 0.0
C842 C 0.54719 0.13383 0.11978 0.0
C843 C 0.49778 0.07999 0.13322 0.0
N844 N 0.47543 -0.01075 0.15756 0.0
N845 N 0.67076 0.23873 0.11527 0.0
C846 C 0.52438 0.04638 0.14607 0.0
C847 C 0.6242 0.17138 0.12359 0.0
N848 N 0.62798 0.0345 0.15663 0.0
N849 N 0.52154 0.14798 0.10321 0.0
H850 H 0.72748 0.2696 0.11813 0.0
H851 H 0.65164 0.26731 0.10704 0.0
H852 H 0.46702 0.11541 0.09853 0.0
H853 H 0.55668 0.18409 0.0926 0.0
H854 H 0.59404 0.98193 0.1625 0.0
H855 H 0.68405 0.05147 0.15735 0.0
H856 H 0.49129 0.96894 0.16916 0.0
H857 H 0.41811 0.9633 0.15564 0.0
C858 C 0.53094 0.43904 0.42797 0.0
C859 C 0.53576 0.48341 0.41202 0.0
C860 C 0.42851 0.3766 0.39753 0.0
C861 C 0.43927 0.32976 0.41037 0.0
N862 N 0.50339 0.31666 0.4377 0.0
N863 N 0.47924 0.50037 0.38399 0.0
C864 C 0.49018 0.36083 0.42584 0.0
C865 C 0.48031 0.45401 0.39768 0.0
N866 N 0.56395 0.47112 0.44509 0.0
N867 N 0.36867 0.34727 0.38545 0.0
H868 H 0.51271 0.55818 0.38509 0.0
H869 H 0.44703 0.48206 0.37156 0.0
H870 H 0.32906 0.29084 0.38504 0.0
H871 H 0.35442 0.37925 0.37701 0.0
H872 H 0.55824 0.44028 0.45743 0.0
H873 H 0.58698 0.52789 0.44776 0.0
H874 H 0.5461 0.33817 0.44782 0.0
H875 H 0.47656 0.25893 0.4363 0.0
C876 C 0.92533 0.47432 0.13325 0.0
C877 C 0.90884 0.4306 0.1501 0.0
C878 C 0.80989 0.45296 0.15844 0.0
C879 C 0.82542 0.49812 0.1419 0.0
N880 N 0.91703 0.57298 0.11753 0.0
N881 N 0.86905 0.4217 0.18325 0.0
C882 C 0.88862 0.51511 0.13025 0.0
C883 C 0.86239 0.43443 0.16429 0.0
N884 N -0.02322 0.47785 0.12044 0.0
N885 N 0.74521 0.42747 0.16852 0.0
H886 H 0.91282 0.41564 0.18816 0.0
H887 H 0.83739 0.42737 0.19409 0.0
H888 H 0.70269 0.43612 0.16393 0.0
H889 H 0.73125 0.39099 0.18013 0.0
H890 H -0.01566 0.50089 0.10672 0.0
H891 H 0.01084 0.45613 0.12364 0.0
H892 H 0.9667 0.59115 0.1101 0.0
H893 H 0.89591 0.60823 0.11592 0.0
C894 C 0.52045 0.11401 0.42771 0.0
C895 C 0.47453 0.06748 0.41257 0.0
C896 C 0.57911 0.05983 0.39949 0.0
C897 C 0.62741 0.12108 0.41148 0.0
N898 N 0.64444 0.2107 0.4362 0.0
N899 N 0.45547 0.98469 0.38613 0.0
C900 C 0.59833 0.1487 0.42562 0.0
C901 C 0.50245 0.03601 0.39925 0.0
N902 N 0.49036 0.12423 0.44416 0.0
N903 N 0.60639 0.02419 0.38855 0.0
H904 H 0.398 0.96132 0.38701 0.0
H905 H 0.47302 0.96664 0.37428 0.0
H906 H 0.6623 0.04023 0.38824 0.0
H907 H 0.57322 0.97502 0.38099 0.0
H908 H 0.52227 0.1545 0.45597 0.0
H909 H 0.43395 0.09352 0.4473 0.0
H910 H 0.62508 0.23797 0.44502 0.0
H911 H 0.70206 0.23908 0.43486 0.0
C912 C 0.4916 0.36409 0.12196 0.0
C913 C 0.44573 0.32883 0.13819 0.0
C914 C 0.48425 0.45021 0.15277 0.0
C915 C 0.53337 0.48389 0.13708 0.0
N916 N 0.54719 0.47553 0.10268 0.0
N917 N 0.37661 0.33944 0.16504 0.0
C918 C 0.52464 0.44181 0.12021 0.0
C919 C 0.43497 0.37213 0.15244 0.0
N920 N 0.50757 0.32491 0.10885 0.0
N921 N 0.48589 0.49297 0.16797 0.0
H922 H 0.33679 0.283 0.16455 0.0
H923 H 0.36304 0.36946 0.17461 0.0
H924 H 0.51672 0.55107 0.16749 0.0
H925 H 0.45852 0.47101 0.181 0.0
H926 H 0.54612 0.35071 0.09776 0.0
H927 H 0.48906 0.26837 0.11023 0.0
H928 H 0.53828 0.44563 0.08987 0.0
H929 H 0.56412 0.53154 0.10072 0.0
C930 C 0.89314 0.52353 0.39632 0.0
C931 C 0.83531 0.51164 0.40941 0.0
C932 C 0.85489 0.42218 0.42691 0.0
C933 C 0.89532 0.41845 0.41089 0.0
N934 N 0.96679 0.47492 0.38229 0.0
N935 N 0.75741 0.44518 0.4367 0.0
C936 C 0.91962 0.47299 0.3963 0.0
C937 C 0.81579 0.46058 0.4248 0.0
N938 N 0.92369 0.58369 0.38429 0.0
N939 N 0.85492 0.39074 0.44413 0.0
H940 H 0.72506 0.46989 0.43525 0.0
H941 H 0.73667 0.40237 0.44681 0.0
H942 H 0.89015 0.37017 0.44687 0.0
H943 H 0.8291 0.39583 0.45647 0.0
H944 H 0.97024 0.59882 0.37574 0.0
H945 H 0.90705 0.623 0.38411 0.0
H946 H -0.02105 0.50603 0.3697 0.0
H947 H -0.00747 0.44323 0.38326 0.0
C948 C 0.15707 0.61954 0.62628 0.0
C949 C 0.09506 0.6283 0.62799 0.0
C950 C 0.01408 0.495 0.63295 0.0
C951 C 0.07862 0.48987 0.63532 0.0
N952 N 0.21254 0.54855 0.63595 0.0
N953 N 0.9636 0.57726 0.6301 0.0
C954 C 0.15048 0.55221 0.63217 0.0
C955 C 0.02276 0.56651 0.6302 0.0
N956 N 0.22247 0.67662 0.61938 0.0
N957 N 0.94557 0.43215 0.63357 0.0
H958 H 0.9697 0.62886 0.62671 0.0
H959 H 0.90957 0.5363 0.6335 0.0
H960 H 0.93827 0.37948 0.63605 0.0
H961 H 0.8964 0.43132 0.63066 0.0
H962 H 0.26841 0.67143 0.61625 0.0
H963 H 0.22736 0.72648 0.61478 0.0
H964 H 0.26605 0.59467 0.63588 0.0
H965 H 0.21021 0.50062 0.64091 0.0
C966 C 0.35858 0.78082 0.90577 0.0
C967 C 0.37758 0.85678 0.90722 0.0
C968 C 0.50493 0.89246 0.91551 0.0
C969 C 0.48465 0.81664 0.91386 0.0
N970 N 0.39022 0.68777 0.91423 0.0
N971 N 0.46382 0.98259 0.91732 0.0
C972 C 0.41043 0.76056 0.91146 0.0
C973 C 0.44915 0.91197 0.91355 0.0
N974 N 0.29288 0.72841 0.89788 0.0
N975 N 0.57773 0.94552 0.91807 0.0
H976 H 0.42467 -0.00111 0.91528 0.0
H977 H 0.51291 0.0236 0.92359 0.0
H978 H 0.61877 0.93195 0.92037 0.0
H979 H 0.59783 0.00247 0.91719 0.0
H980 H 0.27967 0.67407 0.89478 0.0
H981 H 0.25478 0.74109 0.89244 0.0
H982 H 0.33523 0.6444 0.9145 0.0
H983 H 0.42838 0.67219 0.91837 0.0
C984 C 0.42978 0.54272 0.61785 0.0
C985 C 0.47454 0.55322 0.63415 0.0
C986 C 0.37452 0.43873 0.64813 0.0
C987 C 0.32461 0.44283 0.63502 0.0
N988 N 0.30536 0.50119 0.60715 0.0
N989 N 0.49697 0.50295 0.66268 0.0
C990 C 0.35227 0.49428 0.6195 0.0
C991 C 0.4494 0.49758 0.64848 0.0
N992 N 0.46084 0.57819 0.6009 0.0
N993 N 0.3503 0.37864 0.66003 0.0
H994 H 0.55357 0.54237 0.66211 0.0
H995 H 0.48049 0.47009 0.67502 0.0
H996 H 0.2959 0.33399 0.65987 0.0
H997 H 0.38521 0.36964 0.66881 0.0
H998 H 0.43028 0.56854 0.58829 0.0
H999 H 0.518 0.60805 0.59866 0.0
H1000 H 0.3237 0.54435 0.5972 0.0
H1001 H 0.24783 0.46862 0.60786 0.0
C1002 C 0.03101 0.58329 0.89254 0.0
C1003 C 0.08527 0.63318 0.90591 0.0
C1004 C 0.06706 0.52664 0.92463 0.0
C1005 C 0.03388 0.48023 0.9084 0.0
N1006 N 0.96673 0.45854 0.87878 0.0
N1007 N 0.161 0.64988 0.93412 0.0
C1008 C 0.00954 0.50668 0.89298 0.0
C1009 C 0.10418 0.60444 0.92205 0.0
N1010 N -0.00105 0.60863 0.87988 0.0
N1011 N 0.06297 0.49683 0.94238 0.0
H1012 H 0.19494 0.70694 0.93201 0.0
H1013 H 0.17983 0.62912 0.94497 0.0
H1014 H 0.02931 0.43994 0.945 0.0
H1015 H 0.08366 0.52942 0.9548 0.0
H1016 H 0.95509 0.57393 0.87085 0.0
H1017 H 0.01123 0.66374 0.87967 0.0
H1018 H 0.955 0.47535 0.86581 0.0
H1019 H 0.9438 0.40106 0.8801 0.0
C1020 C 0.38401 0.84956 0.61271 0.0
C1021 C 0.37791 0.8923 0.62777 0.0
C1022 C 0.48911 0.90619 0.6428 0.0
C1023 C 0.48136 0.84633 0.63108 0.0
N1024 N 0.42343 0.76204 0.60421 0.0
N1025 N 0.43336 0.97723 0.65423 0.0
C1026 C 0.43059 0.81936 0.6155 0.0
C1027 C 0.43455 0.92699 0.64166 0.0
N1028 N 0.34597 0.83831 0.59591 0.0
N1029 N 0.54855 0.94301 0.65485 0.0
H1030 H 0.3967 -0.00305 0.65247 0.0
H1031 H 0.4667 -0.00204 0.66641 0.0
H1032 H 0.58953 0.92907 0.65607 0.0
H1033 H 0.56078 -0.00905 0.66252 0.0
H1034 H 0.35208 0.81124 0.58398 0.0
H1035 H 0.3159 0.86452 0.59303 0.0
H1036 H 0.38177 0.73527 0.59395 0.0
H1037 H 0.45554 0.73726 0.60604 0.0
C1038 C 0.44156 0.52543 0.92174 0.0
C1039 C 0.47663 0.54023 0.90357 0.0
C1040 C 0.36309 0.50607 0.88722 0.0
C1041 C 0.32623 0.49457 0.90527 0.0
N1042 N 0.33653 0.51296 0.93984 0.0
N1043 N 0.46348 0.50417 0.87037 0.0
C1044 C 0.36685 0.50853 0.92273 0.0
C1045 C 0.43335 0.51325 0.8869 0.0
N1046 N 0.48041 0.52818 0.93777 0.0
N1047 N 0.3354 0.51874 0.8708 0.0
H1048 H 0.51733 0.51293 0.87021 0.0
H1049 H 0.43274 0.48205 0.85777 0.0
H1050 H 0.29142 0.52891 0.87108 0.0
H1051 H 0.36331 0.53104 0.85761 0.0
H1052 H 0.45707 0.51338 0.9515 0.0
H1053 H 0.53454 0.53806 0.93667 0.0
H1054 H 0.36518 0.52757 0.95286 0.0
H1055 H 0.28593 0.51146 0.94052 0.0
loop_
_geom_bond_atom_site_label_1
_geom_bond_atom_site_label_2
_geom_bond_distance
_geom_bond_site_symmetry_2
_ccdc_geom_bond_type
C0 O16 1.251 1_565 S
C0 O18 1.254 1_565 S
N1 C2 1.333 . S
N1 C6 1.307 . S
N1 Zn7 2.020 . S
C2 N1 1.333 . S
C2 C3 1.379 . S
C2 H20 0.952 . S
C3 C2 1.379 . S
C3 C4 1.390 . S
C3 H30 0.949 1_545 S
C4 C3 1.390 . S
C4 C5 1.357 . S
C5 C4 1.357 . S
C5 C6 1.370 . S
C5 H31 0.950 . S
C6 N1 1.307 . S
C6 C5 1.370 . S
C6 H24 0.948 . S
Zn7 N1 2.020 . S
Zn7 O16 2.039 . S
Zn7 O22 2.034 . S
Zn7 O26 2.025 . S
Zn7 O28 2.024 . S
C8 O27 1.246 . S
C8 O28 1.249 . S
N9 C10 1.307 . S
N9 C11 1.333 . S
N9 Zn15 2.020 . S
C10 N9 1.307 . S
C10 C14 1.370 . S
C10 H21 0.948 . S
C11 N9 1.333 . S
C11 C12 1.379 . S
C11 H19 0.952 . S
C12 C11 1.379 . S
C12 C13 1.390 . S
C12 H32 0.949 . S
C13 C12 1.390 . S
C13 C14 1.357 . S
C14 C10 1.370 . S
C14 C13 1.357 . S
C14 H33 0.950 . S
Zn15 N9 2.020 . S
Zn15 O18 2.025 . S
Zn15 O23 2.024 . S
Zn15 O25 2.039 . S
Zn15 O27 2.034 . S
O16 C0 1.251 1_545 S
O16 Zn7 2.039 . S
C17 O22 1.246 . S
C17 O23 1.249 . S
O18 C0 1.254 1_545 S
O18 Zn15 2.025 . S
H19 C11 0.952 . S
H20 C2 0.952 . S
H21 C10 0.948 . S
O22 Zn7 2.034 . S
O22 C17 1.246 . S
O23 Zn15 2.024 . S
O23 C17 1.249 . S
H24 C6 0.948 . S
O25 Zn15 2.039 . S
O25 C29 1.251 . S
O26 Zn7 2.025 . S
O26 C29 1.254 . S
O27 C8 1.246 . S
O27 Zn15 2.034 . S
O28 Zn7 2.024 . S
O28 C8 1.249 . S
C29 O25 1.251 . S
C29 O26 1.254 . S
H30 C3 0.949 1_565 S
H31 C5 0.950 . S
H32 C12 0.949 . S
H33 C14 0.950 . S
C34 O50 1.251 . S
C34 O52 1.254 . S
N35 C36 1.333 . S
N35 C40 1.307 . S
N35 Zn41 2.020 . S
C36 N35 1.333 . S
C36 C37 1.379 . S
C36 H54 0.952 . S
C37 C36 1.379 . S
C37 C38 1.390 . S
C37 H64 0.949 . S
C38 C37 1.390 . S
C38 C39 1.357 . S
C39 C38 1.357 . S
C39 C40 1.370 . S
C39 H65 0.950 . S
C40 N35 1.307 . S
C40 C39 1.370 . S
C40 H58 0.948 . S
Zn41 N35 2.020 . S
Zn41 O50 2.039 . S
Zn41 O56 2.034 . S
Zn41 O60 2.025 . S
Zn41 O62 2.024 . S
C42 O61 1.246 . S
C42 O62 1.249 . S
N43 C44 1.307 . S
N43 C45 1.333 . S
N43 Zn49 2.020 . S
C44 N43 1.307 . S
C44 C48 1.370 . S
C44 H55 0.948 . S
C45 N43 1.333 . S
C45 C46 1.379 . S
C45 H53 0.952 . S
C46 C45 1.379 . S
C46 C47 1.390 . S
C46 H66 0.949 . S
C47 C46 1.390 . S
C47 C48 1.357 . S
C48 C44 1.370 . S
C48 C47 1.357 . S
C48 H67 0.950 . S
Zn49 N43 2.020 . S
Zn49 O52 2.025 . S
Zn49 O57 2.024 . S
Zn49 O59 2.039 . S
Zn49 O61 2.034 . S
O50 C34 1.251 . S
O50 Zn41 2.039 . S
C51 O56 1.246 . S
C51 O57 1.249 . S
O52 C34 1.254 . S
O52 Zn49 2.025 . S
H53 C45 0.952 . S
H54 C36 0.952 . S
H55 C44 0.948 . S
O56 Zn41 2.034 . S
O56 C51 1.246 . S
O57 Zn49 2.024 . S
O57 C51 1.249 . S
H58 C40 0.948 . S
O59 Zn49 2.039 . S
O59 C63 1.251 . S
O60 Zn41 2.025 . S
O60 C63 1.254 . S
O61 C42 1.246 . S
O61 Zn49 2.034 . S
O62 Zn41 2.024 . S
O62 C42 1.249 . S
C63 O59 1.251 . S
C63 O60 1.254 . S
H64 C37 0.949 . S
H65 C39 0.950 . S
H66 C46 0.949 . S
H67 C48 0.950 . S
C68 O84 1.251 1_455 S
C68 O86 1.254 1_455 S
N69 C70 1.333 . S
N69 C74 1.307 . S
N69 Zn75 2.020 . S
C70 N69 1.333 . S
C70 C71 1.379 . S
C70 H88 0.952 . S
C71 C70 1.379 . S
C71 C72 1.390 . S
C71 H98 0.949 1_655 S
C72 C71 1.390 . S
C72 C73 1.357 . S
C73 C72 1.357 . S
C73 C74 1.370 . S
C73 H99 0.950 . S
C74 N69 1.307 . S
C74 C73 1.370 . S
C74 H92 0.948 . S
Zn75 N69 2.020 . S
Zn75 O84 2.039 . S
Zn75 O90 2.034 . S
Zn75 O94 2.025 . S
Zn75 O96 2.024 . S
C76 O95 1.246 . S
C76 O96 1.249 . S
N77 C78 1.307 . S
N77 C79 1.333 . S
N77 Zn83 2.020 . S
C78 N77 1.307 . S
C78 C82 1.370 . S
C78 H89 0.948 . S
C79 N77 1.333 . S
C79 C80 1.379 . S
C79 H87 0.952 . S
C80 C79 1.379 . S
C80 C81 1.390 . S
C80 H100 0.949 . S
C81 C80 1.390 . S
C81 C82 1.357 . S
C82 C78 1.370 . S
C82 C81 1.357 . S
C82 H101 0.950 . S
Zn83 N77 2.020 . S
Zn83 O86 2.025 . S
Zn83 O91 2.024 . S
Zn83 O93 2.039 . S
Zn83 O95 2.034 . S
O84 C68 1.251 1_655 S
O84 Zn75 2.039 . S
C85 O90 1.246 . S
C85 O91 1.249 . S
O86 C68 1.254 1_655 S
O86 Zn83 2.025 . S
H87 C79 0.952 . S
H88 C70 0.952 . S
H89 C78 0.948 . S
O90 Zn75 2.034 . S
O90 C85 1.246 . S
O91 Zn83 2.024 . S
O91 C85 1.249 . S
H92 C74 0.948 . S
O93 Zn83 2.039 . S
O93 C97 1.251 . S
O94 Zn75 2.025 . S
O94 C97 1.254 . S
O95 C76 1.246 . S
O95 Zn83 2.034 . S
O96 Zn75 2.024 . S
O96 C76 1.249 . S
C97 O93 1.251 . S
C97 O94 1.254 . S
H98 C71 0.949 1_455 S
H99 C73 0.950 . S
H100 C80 0.949 . S
H101 C82 0.950 . S
C102 O118 1.251 . S
C102 O120 1.254 . S
N103 C104 1.333 . S
N103 C108 1.307 . S
N103 Zn109 2.020 . S
C104 N103 1.333 . S
C104 C105 1.379 . S
C104 H122 0.952 . S
C105 C104 1.379 . S
C105 C106 1.390 . S
C105 H132 0.949 . S
C106 C105 1.390 . S
C106 C107 1.357 . S
C107 C106 1.357 . S
C107 C108 1.370 . S
C107 H133 0.950 . S
C108 N103 1.307 . S
C108 C107 1.370 . S
C108 H126 0.948 . S
Zn109 N103 2.020 . S
Zn109 O118 2.039 . S
Zn109 O124 2.034 . S
Zn109 O128 2.025 . S
Zn109 O130 2.024 . S
C110 O129 1.246 . S
C110 O130 1.249 . S
N111 C112 1.307 . S
N111 C113 1.333 . S
N111 Zn117 2.020 . S
C112 N111 1.307 . S
C112 C116 1.370 . S
C112 H123 0.948 . S
C113 N111 1.333 . S
C113 C114 1.379 . S
C113 H121 0.952 . S
C114 C113 1.379 . S
C114 C115 1.390 . S
C114 H134 0.949 1_545 S
C115 C114 1.390 . S
C115 C116 1.357 . S
C116 C112 1.370 . S
C116 C115 1.357 . S
C116 H135 0.950 . S
Zn117 N111 2.020 . S
Zn117 O120 2.025 . S
Zn117 O125 2.024 . S
Zn117 O127 2.039 . S
Zn117 O129 2.034 . S
O118 C102 1.251 . S
O118 Zn109 2.039 . S
C119 O124 1.246 . S
C119 O125 1.249 . S
O120 C102 1.254 . S
O120 Zn117 2.025 . S
H121 C113 0.952 . S
H122 C104 0.952 . S
H123 C112 0.948 . S
O124 Zn109 2.034 . S
O124 C119 1.246 . S
O125 Zn117 2.024 . S
O125 C119 1.249 . S
H126 C108 0.948 . S
O127 Zn117 2.039 . S
O127 C131 1.251 1_545 S
O128 Zn109 2.025 . S
O128 C131 1.254 1_545 S
O129 C110 1.246 . S
O129 Zn117 2.034 . S
O130 Zn109 2.024 . S
O130 C110 1.249 . S
C131 O127 1.251 1_565 S
C131 O128 1.254 1_565 S
H132 C105 0.949 . S
H133 C107 0.950 . S
H134 C114 0.949 1_565 S
H135 C116 0.950 . S
C136 O152 1.251 . S
C136 O154 1.254 . S
N137 C138 1.333 . S
N137 C142 1.307 . S
N137 Zn143 2.020 . S
C138 N137 1.333 . S
C138 C139 1.379 . S
C138 H156 0.952 . S
C139 C138 1.379 . S
C139 C140 1.390 . S
C139 H166 0.949 . S
C140 C139 1.390 . S
C140 C141 1.357 . S
C141 C140 1.357 . S
C141 C142 1.370 . S
C141 H167 0.950 . S
C142 N137 1.307 . S
C142 C141 1.370 . S
C142 H160 0.948 . S
Zn143 N137 2.020 . S
Zn143 O152 2.039 . S
Zn143 O158 2.034 . S
Zn143 O162 2.025 . S
Zn143 O164 2.024 . S
C144 O163 1.246 . S
C144 O164 1.249 . S
N145 C146 1.307 . S
N145 C147 1.333 . S
N145 Zn151 2.020 . S
C146 N145 1.307 . S
C146 C150 1.370 . S
C146 H157 0.948 . S
C147 N145 1.333 . S
C147 C148 1.379 . S
C147 H155 0.952 . S
C148 C147 1.379 . S
C148 C149 1.390 . S
C148 H168 0.949 . S
C149 C148 1.390 . S
C149 C150 1.357 . S
C150 C146 1.370 . S
C150 C149 1.357 . S
C150 H169 0.950 . S
Zn151 N145 2.020 . S
Zn151 O154 2.025 . S
Zn151 O159 2.024 . S
Zn151 O161 2.039 . S
Zn151 O163 2.034 . S
O152 C136 1.251 . S
O152 Zn143 2.039 . S
C153 O158 1.246 . S
C153 O159 1.249 . S
O154 C136 1.254 . S
O154 Zn151 2.025 . S
H155 C147 0.952 . S
H156 C138 0.952 . S
H157 C146 0.948 . S
O158 Zn143 2.034 . S
O158 C153 1.246 . S
O159 Zn151 2.024 . S
O159 C153 1.249 . S
H160 C142 0.948 . S
O161 Zn151 2.039 . S
O161 C165 1.251 . S
O162 Zn143 2.025 . S
O162 C165 1.254 . S
O163 C144 1.246 . S
O163 Zn151 2.034 . S
O164 Zn143 2.024 . S
O164 C144 1.249 . S
C165 O161 1.251 . S
C165 O162 1.254 . S
H166 C139 0.949 . S
H167 C141 0.950 . S
H168 C148 0.949 . S
H169 C150 0.950 . S
C170 O186 1.251 . S
C170 O188 1.254 . S
N171 C172 1.333 . S
N171 C176 1.307 . S
N171 Zn177 2.020 . S
C172 N171 1.333 . S
C172 C173 1.379 . S
C172 H190 0.952 . S
C173 C172 1.379 . S
C173 C174 1.390 . S
C173 H200 0.949 . S
C174 C173 1.390 . S
C174 C175 1.357 . S
C175 C174 1.357 . S
C175 C176 1.370 . S
C175 H201 0.950 . S
C176 N171 1.307 . S
C176 C175 1.370 . S
C176 H194 0.948 . S
Zn177 N171 2.020 . S
Zn177 O186 2.039 . S
Zn177 O192 2.034 . S
Zn177 O196 2.025 . S
Zn177 O198 2.024 . S
C178 O197 1.246 . S
C178 O198 1.249 . S
N179 C180 1.307 . S
N179 C181 1.333 . S
N179 Zn185 2.020 . S
C180 N179 1.307 . S
C180 C184 1.370 . S
C180 H191 0.948 . S
C181 N179 1.333 . S
C181 C182 1.379 . S
C181 H189 0.952 . S
C182 C181 1.379 . S
C182 C183 1.390 . S
C182 H202 0.949 1_655 S
C183 C182 1.390 . S
C183 C184 1.357 . S
C184 C180 1.370 . S
C184 C183 1.357 . S
C184 H203 0.950 . S
Zn185 N179 2.020 . S
Zn185 O188 2.025 . S
Zn185 O193 2.024 . S
Zn185 O195 2.039 . S
Zn185 O197 2.034 . S
O186 C170 1.251 . S
O186 Zn177 2.039 . S
C187 O192 1.246 . S
C187 O193 1.249 . S
O188 C170 1.254 . S
O188 Zn185 2.025 . S
H189 C181 0.952 . S
H190 C172 0.952 . S
H191 C180 0.948 . S
O192 Zn177 2.034 . S
O192 C187 1.246 . S
O193 Zn185 2.024 . S
O193 C187 1.249 . S
H194 C176 0.948 . S
O195 Zn185 2.039 . S
O195 C199 1.251 1_655 S
O196 Zn177 2.025 . S
O196 C199 1.254 1_655 S
O197 C178 1.246 . S
O197 Zn185 2.034 . S
O198 Zn177 2.024 . S
O198 C178 1.249 . S
C199 O195 1.251 1_455 S
C199 O196 1.254 1_455 S
H200 C173 0.949 . S
H201 C175 0.950 . S
H202 C182 0.949 1_455 S
H203 C184 0.950 . S
C204 O220 1.251 . S
C204 O222 1.254 . S
N205 C206 1.333 . S
N205 C210 1.307 . S
N205 Zn211 2.020 . S
C206 N205 1.333 . S
C206 C207 1.379 . S
C206 H224 0.952 . S
C207 C206 1.379 . S
C207 C208 1.390 . S
C207 H234 0.949 . S
C208 C207 1.390 . S
C208 C209 1.357 . S
C209 C208 1.357 . S
C209 C210 1.370 . S
C209 H235 0.950 . S
C210 N205 1.307 . S
C210 C209 1.370 . S
C210 H228 0.948 . S
Zn211 N205 2.020 . S
Zn211 O220 2.039 . S
Zn211 O226 2.034 . S
Zn211 O230 2.025 . S
Zn211 O232 2.024 . S
C212 O231 1.246 . S
C212 O232 1.249 . S
N213 C214 1.307 . S
N213 C215 1.333 . S
N213 Zn219 2.020 . S
C214 N213 1.307 . S
C214 C218 1.370 . S
C214 H225 0.948 . S
C215 N213 1.333 . S
C215 C216 1.379 . S
C215 H223 0.952 . S
C216 C215 1.379 . S
C216 C217 1.390 . S
C216 H236 0.949 1_455 S
C217 C216 1.390 . S
C217 C218 1.357 . S
C218 C214 1.370 . S
C218 C217 1.357 . S
C218 H237 0.950 . S
Zn219 N213 2.020 . S
Zn219 O222 2.025 . S
Zn219 O227 2.024 . S
Zn219 O229 2.039 . S
Zn219 O231 2.034 . S
O220 C204 1.251 . S
O220 Zn211 2.039 . S
C221 O226 1.246 . S
C221 O227 1.249 . S
O222 C204 1.254 . S
O222 Zn219 2.025 . S
H223 C215 0.952 . S
H224 C206 0.952 . S
H225 C214 0.948 . S
O226 Zn211 2.034 . S
O226 C221 1.246 . S
O227 Zn219 2.024 . S
O227 C221 1.249 . S
H228 C210 0.948 . S
O229 Zn219 2.039 . S
O229 C233 1.251 1_455 S
O230 Zn211 2.025 . S
O230 C233 1.254 1_455 S
O231 C212 1.246 . S
O231 Zn219 2.034 . S
O232 Zn211 2.024 . S
O232 C212 1.249 . S
C233 O229 1.251 1_655 S
C233 O230 1.254 1_655 S
H234 C207 0.949 . S
H235 C209 0.950 . S
H236 C216 0.949 1_655 S
H237 C218 0.950 . S
C238 O254 1.251 1_545 S
C238 O256 1.254 1_545 S
N239 C240 1.333 . S
N239 C244 1.307 . S
N239 Zn245 2.020 . S
C240 N239 1.333 . S
C240 C241 1.379 . S
C240 H258 0.952 . S
C241 C240 1.379 . S
C241 C242 1.390 . S
C241 H268 0.949 1_565 S
C242 C241 1.390 . S
C242 C243 1.357 . S
C243 C242 1.357 . S
C243 C244 1.370 . S
C243 H269 0.950 . S
C244 N239 1.307 . S
C244 C243 1.370 . S
C244 H262 0.948 . S
Zn245 N239 2.020 . S
Zn245 O254 2.039 . S
Zn245 O260 2.034 . S
Zn245 O264 2.025 . S
Zn245 O266 2.024 . S
C246 O265 1.246 . S
C246 O266 1.249 . S
N247 C248 1.307 . S
N247 C249 1.333 . S
N247 Zn253 2.020 . S
C248 N247 1.307 . S
C248 C252 1.370 . S
C248 H259 0.948 . S
C249 N247 1.333 . S
C249 C250 1.379 . S
C249 H257 0.952 . S
C250 C249 1.379 . S
C250 C251 1.390 . S
C250 H270 0.949 . S
C251 C250 1.390 . S
C251 C252 1.357 . S
C252 C248 1.370 . S
C252 C251 1.357 . S
C252 H271 0.950 . S
Zn253 N247 2.020 . S
Zn253 O256 2.025 . S
Zn253 O261 2.024 . S
Zn253 O263 2.039 . S
Zn253 O265 2.034 . S
O254 C238 1.251 1_565 S
O254 Zn245 2.039 . S
C255 O260 1.246 . S
C255 O261 1.249 . S
O256 C238 1.254 1_565 S
O256 Zn253 2.025 . S
H257 C249 0.952 . S
H258 C240 0.952 . S
H259 C248 0.948 . S
O260 Zn245 2.034 . S
O260 C255 1.246 . S
O261 Zn253 2.024 . S
O261 C255 1.249 . S
H262 C244 0.948 . S
O263 Zn253 2.039 . S
O263 C267 1.251 . S
O264 Zn245 2.025 . S
O264 C267 1.254 . S
O265 C246 1.246 . S
O265 Zn253 2.034 . S
O266 Zn245 2.024 . S
O266 C246 1.249 . S
C267 O263 1.251 . S
C267 O264 1.254 . S
H268 C241 0.949 1_545 S
H269 C243 0.950 . S
H270 C250 0.949 . S
H271 C252 0.950 . S
C272 O288 1.251 . S
C272 O290 1.254 . S
N273 C274 1.333 . S
N273 C278 1.307 . S
N273 Zn279 2.020 . S
C274 N273 1.333 . S
C274 C275 1.379 . S
C274 H292 0.952 . S
C275 C274 1.379 . S
C275 C276 1.390 . S
C275 H302 0.949 . S
C276 C275 1.390 . S
C276 C277 1.357 . S
C277 C276 1.357 . S
C277 C278 1.370 . S
C277 H303 0.950 . S
C278 N273 1.307 . S
C278 C277 1.370 . S
C278 H296 0.948 . S
Zn279 N273 2.020 . S
Zn279 O288 2.039 . S
Zn279 O294 2.034 . S
Zn279 O298 2.025 . S
Zn279 O300 2.024 . S
C280 O299 1.246 . S
C280 O300 1.249 . S
N281 C282 1.307 . S
N281 C283 1.333 . S
N281 Zn287 2.020 . S
C282 N281 1.307 . S
C282 C286 1.370 . S
C282 H293 0.948 . S
C283 N281 1.333 . S
C283 C284 1.379 . S
C283 H291 0.952 . S
C284 C283 1.379 . S
C284 C285 1.390 . S
C284 H304 0.949 . S
C285 C284 1.390 . S
C285 C286 1.357 . S
C286 C282 1.370 . S
C286 C285 1.357 . S
C286 H305 0.950 . S
Zn287 N281 2.020 . S
Zn287 O290 2.025 . S
Zn287 O295 2.024 . S
Zn287 O297 2.039 . S
Zn287 O299 2.034 . S
O288 C272 1.251 . S
O288 Zn279 2.039 . S
C289 O294 1.246 . S
C289 O295 1.249 . S
O290 C272 1.254 . S
O290 Zn287 2.025 . S
H291 C283 0.952 . S
H292 C274 0.952 . S
H293 C282 0.948 . S
O294 Zn279 2.034 . S
O294 C289 1.246 . S
O295 Zn287 2.024 . S
O295 C289 1.249 . S
H296 C278 0.948 . S
O297 Zn287 2.039 . S
O297 C301 1.251 . S
O298 Zn279 2.025 . S
O298 C301 1.254 . S
O299 C280 1.246 . S
O299 Zn287 2.034 . S
O300 Zn279 2.024 . S
O300 C280 1.249 . S
C301 O297 1.251 . S
C301 O298 1.254 . S
H302 C275 0.949 . S
H303 C277 0.950 . S
H304 C284 0.949 . S
H305 C286 0.950 . S
C306 O322 1.251 1_655 S
C306 O324 1.254 1_655 S
N307 C308 1.333 . S
N307 C312 1.307 . S
N307 Zn313 2.020 . S
C308 N307 1.333 . S
C308 C309 1.379 . S
C308 H326 0.952 . S
C309 C308 1.379 . S
C309 C310 1.390 . S
C309 H336 0.949 1_455 S
C310 C309 1.390 . S
C310 C311 1.357 . S
C311 C310 1.357 . S
C311 C312 1.370 . S
C311 H337 0.950 . S
C312 N307 1.307 . S
C312 C311 1.370 . S
C312 H330 0.948 . S
Zn313 N307 2.020 . S
Zn313 O322 2.039 . S
Zn313 O328 2.034 . S
Zn313 O332 2.025 . S
Zn313 O334 2.024 . S
C314 O333 1.246 . S
C314 O334 1.249 . S
N315 C316 1.307 . S
N315 C317 1.333 . S
N315 Zn321 2.020 . S
C316 N315 1.307 . S
C316 C320 1.370 . S
C316 H327 0.948 . S
C317 N315 1.333 . S
C317 C318 1.379 . S
C317 H325 0.952 . S
C318 C317 1.379 . S
C318 C319 1.390 . S
C318 H338 0.949 . S
C319 C318 1.390 . S
C319 C320 1.357 . S
C320 C316 1.370 . S
C320 C319 1.357 . S
C320 H339 0.950 . S
Zn321 N315 2.020 . S
Zn321 O324 2.025 . S
Zn321 O329 2.024 . S
Zn321 O331 2.039 . S
Zn321 O333 2.034 . S
O322 C306 1.251 1_455 S
O322 Zn313 2.039 . S
C323 O328 1.246 . S
C323 O329 1.249 . S
O324 C306 1.254 1_455 S
O324 Zn321 2.025 . S
H325 C317 0.952 . S
H326 C308 0.952 . S
H327 C316 0.948 . S
O328 Zn313 2.034 . S
O328 C323 1.246 . S
O329 Zn321 2.024 . S
O329 C323 1.249 . S
H330 C312 0.948 . S
O331 Zn321 2.039 . S
O331 C335 1.251 . S
O332 Zn313 2.025 . S
O332 C335 1.254 . S
O333 C314 1.246 . S
O333 Zn321 2.034 . S
O334 Zn313 2.024 . S
O334 C314 1.249 . S
C335 O331 1.251 . S
C335 O332 1.254 . S
H336 C309 0.949 1_655 S
H337 C311 0.950 . S
H338 C318 0.949 . S
H339 C320 0.950 . S
C340 O356 1.251 . S
C340 O358 1.254 . S
N341 C342 1.333 . S
N341 C346 1.307 . S
N341 Zn347 2.020 . S
C342 N341 1.333 . S
C342 C343 1.379 . S
C342 H360 0.952 . S
C343 C342 1.379 . S
C343 C344 1.390 . S
C343 H370 0.949 . S
C344 C343 1.390 . S
C344 C345 1.357 . S
C345 C344 1.357 . S
C345 C346 1.370 . S
C345 H371 0.950 . S
C346 N341 1.307 . S
C346 C345 1.370 . S
C346 H364 0.948 . S
Zn347 N341 2.020 . S
Zn347 O356 2.039 . S
Zn347 O362 2.034 . S
Zn347 O366 2.025 . S
Zn347 O368 2.024 . S
C348 O367 1.246 . S
C348 O368 1.249 . S
N349 C350 1.307 . S
N349 C351 1.333 . S
N349 Zn355 2.020 . S
C350 N349 1.307 . S
C350 C354 1.370 . S
C350 H361 0.948 . S
C351 N349 1.333 . S
C351 C352 1.379 . S
C351 H359 0.952 . S
C352 C351 1.379 . S
C352 C353 1.390 . S
C352 H372 0.949 1_565 S
C353 C352 1.390 . S
C353 C354 1.357 . S
C354 C350 1.370 . S
C354 C353 1.357 . S
C354 H373 0.950 . S
Zn355 N349 2.020 . S
Zn355 O358 2.025 . S
Zn355 O363 2.024 . S
Zn355 O365 2.039 . S
Zn355 O367 2.034 . S
O356 C340 1.251 . S
O356 Zn347 2.039 . S
C357 O362 1.246 . S
C357 O363 1.249 . S
O358 C340 1.254 . S
O358 Zn355 2.025 . S
H359 C351 0.952 . S
H360 C342 0.952 . S
H361 C350 0.948 . S
O362 Zn347 2.034 . S
O362 C357 1.246 . S
O363 Zn355 2.024 . S
O363 C357 1.249 . S
H364 C346 0.948 . S
O365 Zn355 2.039 . S
O365 C369 1.251 1_565 S
O366 Zn347 2.025 . S
O366 C369 1.254 1_565 S
O367 C348 1.246 . S
O367 Zn355 2.034 . S
O368 Zn347 2.024 . S
O368 C348 1.249 . S
C369 O365 1.251 1_545 S
C369 O366 1.254 1_545 S
H370 C343 0.949 . S
H371 C345 0.950 . S
H372 C352 0.949 1_545 S
H373 C354 0.950 . S
C374 O390 1.251 . S
C374 O392 1.254 . S
N375 C376 1.333 . S
N375 C380 1.307 . S
N375 Zn381 2.020 . S
C376 N375 1.333 . S
C376 C377 1.379 . S
C376 H394 0.952 . S
C377 C376 1.379 . S
C377 C378 1.390 . S
C377 H404 0.949 . S
C378 C377 1.390 . S
C378 C379 1.357 . S
C379 C378 1.357 . S
C379 C380 1.370 . S
C379 H405 0.950 . S
C380 N375 1.307 . S
C380 C379 1.370 . S
C380 H398 0.948 . S
Zn381 N375 2.020 . S
Zn381 O390 2.039 . S
Zn381 O396 2.034 . S
Zn381 O400 2.025 . S
Zn381 O402 2.024 . S
C382 O401 1.246 . S
C382 O402 1.249 . S
N383 C384 1.307 . S
N383 C385 1.333 . S
N383 Zn389 2.020 . S
C384 N383 1.307 . S
C384 C388 1.370 . S
C384 H395 0.948 . S
C385 N383 1.333 . S
C385 C386 1.379 . S
C385 H393 0.952 . S
C386 C385 1.379 . S
C386 C387 1.390 . S
C386 H406 0.949 . S
C387 C386 1.390 . S
C387 C388 1.357 . S
C388 C384 1.370 . S
C388 C387 1.357 . S
C388 H407 0.950 . S
Zn389 N383 2.020 . S
Zn389 O392 2.025 . S
Zn389 O397 2.024 . S
Zn389 O399 2.039 . S
Zn389 O401 2.034 . S
O390 C374 1.251 . S
O390 Zn381 2.039 . S
C391 O396 1.246 . S
C391 O397 1.249 . S
O392 C374 1.254 . S
O392 Zn389 2.025 . S
H393 C385 0.952 . S
H394 C376 0.952 . S
H395 C384 0.948 . S
O396 Zn381 2.034 . S
O396 C391 1.246 . S
O397 Zn389 2.024 . S
O397 C391 1.249 . S
H398 C380 0.948 . S
O399 Zn389 2.039 . S
O399 C403 1.251 . S
O400 Zn381 2.025 . S
O400 C403 1.254 . S
O401 C382 1.246 . S
O401 Zn389 2.034 . S
O402 Zn381 2.024 . S
O402 C382 1.249 . S
C403 O399 1.251 . S
C403 O400 1.254 . S
H404 C377 0.949 . S
H405 C379 0.950 . S
H406 C386 0.949 . S
H407 C388 0.950 . S
C408 C409 1.363 . S
C408 C414 1.379 . S
C408 N416 1.356 . S
C409 C408 1.363 . S
C409 C415 1.363 . S
C410 C411 1.363 . S
C410 C415 1.379 . S
C410 N417 1.356 . S
C411 C410 1.363 . S
C411 C414 1.363 . S
N412 C414 1.356 . S
N412 H424 0.984 . S
N412 H425 0.985 . S
N413 C415 1.356 . S
N413 H418 0.984 . S
N413 H419 0.985 . S
C414 C408 1.379 . S
C414 C411 1.363 . S
C414 N412 1.356 . S
C415 C409 1.363 . S
C415 C410 1.379 . S
C415 N413 1.356 . S
N416 C408 1.356 . S
N416 H422 0.984 1_455 S
N416 H423 0.984 1_455 S
N417 C410 1.356 . S
N417 H420 0.984 . S
N417 H421 0.985 . S
H418 N413 0.984 . S
H419 N413 0.985 . S
H420 N417 0.984 . S
H421 N417 0.985 . S
H422 N416 0.984 1_655 S
H423 N416 0.984 1_655 S
H424 N412 0.984 . S
H425 N412 0.985 . S
C426 C427 1.363 . S
C426 C432 1.379 . S
C426 N434 1.356 1_565 S
C427 C426 1.363 . S
C427 C433 1.363 . S
C428 C429 1.363 . S
C428 C433 1.379 . S
C428 N435 1.356 . S
C429 C428 1.363 . S
C429 C432 1.363 . S
N430 C432 1.356 1_655 S
N430 H442 0.984 . S
N430 H443 0.985 . S
N431 C433 1.356 . S
N431 H436 0.984 . S
N431 H437 0.985 . S
C432 C426 1.379 . S
C432 C429 1.363 . S
C432 N430 1.356 1_455 S
C433 C427 1.363 . S
C433 C428 1.379 . S
C433 N431 1.356 . S
N434 C426 1.356 1_545 S
N434 H440 0.984 . S
N434 H441 0.984 . S
N435 C428 1.356 . S
N435 H438 0.984 1_455 S
N435 H439 0.985 . S
H436 N431 0.984 . S
H437 N431 0.985 . S
H438 N435 0.984 1_655 S
H439 N435 0.985 . S
H440 N434 0.984 . S
H441 N434 0.984 . S
H442 N430 0.984 . S
H443 N430 0.985 . S
C444 C445 1.363 . S
C444 C450 1.379 . S
C444 N452 1.356 1_565 S
C445 C444 1.363 . S
C445 C451 1.363 . S
C446 C447 1.363 . S
C446 C451 1.379 . S
C446 N453 1.356 . S
C447 C446 1.363 . S
C447 C450 1.363 . S
N448 C450 1.356 . S
N448 H460 0.984 . S
N448 H461 0.985 . S
N449 C451 1.356 . S
N449 H454 0.984 1_565 S
N449 H455 0.985 . S
C450 C444 1.379 . S
C450 C447 1.363 . S
C450 N448 1.356 . S
C451 C445 1.363 . S
C451 C446 1.379 . S
C451 N449 1.356 . S
N452 C444 1.356 1_545 S
N452 H458 0.984 . S
N452 H459 0.984 . S
N453 C446 1.356 . S
N453 H456 0.984 . S
N453 H457 0.985 . S
H454 N449 0.984 1_545 S
H455 N449 0.985 . S
H456 N453 0.984 . S
H457 N453 0.985 . S
H458 N452 0.984 . S
H459 N452 0.984 . S
H460 N448 0.984 . S
H461 N448 0.985 . S
C462 C463 1.363 . S
C462 C468 1.379 . S
C462 N470 1.356 . S
C463 C462 1.363 . S
C463 C469 1.363 . S
C464 C465 1.363 . S
C464 C469 1.379 . S
C464 N471 1.356 . S
C465 C464 1.363 . S
C465 C468 1.363 . S
N466 C468 1.356 . S
N466 H478 0.984 . S
N466 H479 0.985 1_455 S
N467 C469 1.356 . S
N467 H472 0.984 . S
N467 H473 0.985 . S
C468 C462 1.379 . S
C468 C465 1.363 . S
C468 N466 1.356 . S
C469 C463 1.363 . S
C469 C464 1.379 . S
C469 N467 1.356 . S
N470 C462 1.356 . S
N470 H476 0.984 . S
N470 H477 0.984 . S
N471 C464 1.356 . S
N471 H474 0.984 . S
N471 H475 0.985 . S
H472 N467 0.984 . S
H473 N467 0.985 . S
H474 N471 0.984 . S
H475 N471 0.985 . S
H476 N470 0.984 . S
H477 N470 0.984 . S
H478 N466 0.984 . S
H479 N466 0.985 1_655 S
C480 C481 1.363 . S
C480 C486 1.379 . S
C480 N488 1.356 . S
C481 C480 1.363 . S
C481 C487 1.363 . S
C482 C483 1.363 . S
C482 C487 1.379 . S
C482 N489 1.356 . S
C483 C482 1.363 . S
C483 C486 1.363 . S
N484 C486 1.356 1_655 S
N484 H496 0.984 . S
N484 H497 0.985 . S
N485 C487 1.356 . S
N485 H490 0.984 . S
N485 H491 0.985 . S
C486 C480 1.379 . S
C486 C483 1.363 . S
C486 N484 1.356 1_455 S
C487 C481 1.363 . S
C487 C482 1.379 . S
C487 N485 1.356 . S
N488 C480 1.356 . S
N488 H494 0.984 1_565 S
N488 H495 0.984 1_565 S
N489 C482 1.356 . S
N489 H492 0.984 1_455 S
N489 H493 0.985 . S
H490 N485 0.984 . S
H491 N485 0.985 . S
H492 N489 0.984 1_655 S
H493 N489 0.985 . S
H494 N488 0.984 1_545 S
H495 N488 0.984 1_545 S
H496 N484 0.984 . S
H497 N484 0.985 . S
C498 C499 1.363 . S
C498 C504 1.379 . S
C498 N506 1.356 . S
C499 C498 1.363 . S
C499 C505 1.363 . S
C500 C501 1.363 . S
C500 C505 1.379 . S
C500 N507 1.356 1_565 S
C501 C500 1.363 . S
C501 C504 1.363 . S
N502 C504 1.356 . S
N502 H514 0.984 . S
N502 H515 0.985 1_565 S
N503 C505 1.356 . S
N503 H508 0.984 . S
N503 H509 0.985 . S
C504 C498 1.379 . S
C504 C501 1.363 . S
C504 N502 1.356 . S
C505 C499 1.363 . S
C505 C500 1.379 . S
C505 N503 1.356 . S
N506 C498 1.356 . S
N506 H512 0.984 . S
N506 H513 0.984 . S
N507 C500 1.356 1_545 S
N507 H510 0.984 . S
N507 H511 0.985 . S
H508 N503 0.984 . S
H509 N503 0.985 . S
H510 N507 0.984 . S
H511 N507 0.985 . S
H512 N506 0.984 . S
H513 N506 0.984 . S
H514 N502 0.984 . S
H515 N502 0.985 1_545 S
C516 C517 1.363 . S
C516 C522 1.379 . S
C516 N524 1.356 . S
C517 C516 1.363 . S
C517 C523 1.363 . S
C518 C519 1.363 . S
C518 C523 1.379 . S
C518 N525 1.356 . S
C519 C518 1.363 . S
C519 C522 1.363 . S
N520 C522 1.356 . S
N520 H532 0.984 . S
N520 H533 0.985 . S
N521 C523 1.356 . S
N521 H526 0.984 1_545 S
N521 H527 0.986 1_545 S
C522 C516 1.379 . S
C522 C519 1.363 . S
C522 N520 1.356 . S
C523 C517 1.363 . S
C523 C518 1.379 . S
C523 N521 1.356 . S
N524 C516 1.356 . S
N524 H530 0.984 . S
N524 H531 0.984 . S
N525 C518 1.356 . S
N525 H528 0.984 . S
N525 H529 0.985 . S
H526 N521 0.984 1_565 S
H527 N521 0.986 1_565 S
H528 N525 0.984 . S
H529 N525 0.985 . S
H530 N524 0.984 . S
H531 N524 0.984 . S
H532 N520 0.984 . S
H533 N520 0.985 . S
C534 C535 1.363 . S
C534 C540 1.379 . S
C534 N542 1.356 1_655 S
C535 C534 1.363 . S
C535 C541 1.363 . S
C536 C537 1.363 . S
C536 C541 1.379 . S
C536 N543 1.356 . S
C537 C536 1.363 . S
C537 C540 1.363 . S
N538 C540 1.356 . S
N538 H550 0.984 . S
N538 H551 0.985 . S
N539 C541 1.356 . S
N539 H544 0.984 1_655 S
N539 H545 0.985 . S
C540 C534 1.379 . S
C540 C537 1.363 . S
C540 N538 1.356 . S
C541 C535 1.363 . S
C541 C536 1.379 . S
C541 N539 1.356 . S
N542 C534 1.356 1_455 S
N542 H548 0.984 . S
N542 H549 0.984 . S
N543 C536 1.356 . S
N543 H546 0.984 . S
N543 H547 0.985 . S
H544 N539 0.984 1_455 S
H545 N539 0.985 . S
H546 N543 0.984 . S
H547 N543 0.985 . S
H548 N542 0.984 . S
H549 N542 0.984 . S
H550 N538 0.984 . S
H551 N538 0.985 . S
C552 C553 1.363 . S
C552 C558 1.379 . S
C552 N560 1.356 . S
C553 C552 1.363 . S
C553 C559 1.363 . S
C554 C555 1.363 . S
C554 C559 1.379 . S
C554 N561 1.349 1_655 S
C555 C554 1.363 . S
C555 C558 1.363 . S
N556 C558 1.356 . S
N556 H568 0.984 . S
N556 H569 0.985 . S
N557 C559 1.356 1_565 S
N557 H562 0.984 . S
N557 H563 0.985 . S
C558 C552 1.379 . S
C558 C555 1.363 . S
C558 N556 1.356 . S
C559 C553 1.363 . S
C559 C554 1.379 . S
C559 N557 1.356 1_545 S
N560 C552 1.356 . S
N560 H566 0.984 . S
N560 H567 0.984 1_545 S
N561 C554 1.349 1_455 S
N561 H564 0.986 . S
N561 H565 0.990 . S
H562 N557 0.984 . S
H563 N557 0.985 . S
H564 N561 0.986 . S
H565 N561 0.990 . S
H566 N560 0.984 . S
H567 N560 0.984 1_565 S
H568 N556 0.984 . S
H569 N556 0.985 . S
C570 C571 1.363 . S
C570 C576 1.379 . S
C570 N578 1.356 . S
C571 C570 1.363 . S
C571 C577 1.363 . S
C572 C573 1.363 . S
C572 C577 1.379 . S
C572 N579 1.356 . S
C573 C572 1.363 . S
C573 C576 1.363 . S
N574 C576 1.356 1_565 S
N574 H586 0.984 . S
N574 H587 0.985 . S
N575 C577 1.356 . S
N575 H580 0.984 . S
N575 H581 0.985 . S
C576 C570 1.379 . S
C576 C573 1.363 . S
C576 N574 1.356 1_545 S
C577 C571 1.363 . S
C577 C572 1.379 . S
C577 N575 1.356 . S
N578 C570 1.356 . S
N578 H584 0.984 . S
N578 H585 0.984 . S
N579 C572 1.356 . S
N579 H582 0.984 . S
N579 H583 0.985 . S
H580 N575 0.984 . S
H581 N575 0.985 . S
H582 N579 0.984 . S
H583 N579 0.985 . S
H584 N578 0.984 . S
H585 N578 0.984 . S
H586 N574 0.984 . S
H587 N574 0.985 . S
C588 C589 1.363 . S
C588 C594 1.379 . S
C588 N596 1.356 . S
C589 C588 1.363 . S
C589 C595 1.363 . S
C590 C591 1.363 . S
C590 C595 1.379 . S
C590 N597 1.356 . S
C591 C590 1.363 . S
C591 C594 1.363 . S
N592 C594 1.356 . S
N592 H604 0.984 . S
N592 H605 0.985 . S
N593 C595 1.356 1_455 S
N593 H598 0.984 . S
N593 H599 0.985 . S
C594 C588 1.379 . S
C594 C591 1.363 . S
C594 N592 1.356 . S
C595 C589 1.363 . S
C595 C590 1.379 . S
C595 N593 1.356 1_655 S
N596 C588 1.356 . S
N596 H602 0.984 . S
N596 H603 0.984 1_655 S
N597 C590 1.356 . S
N597 H600 0.984 . S
N597 H601 0.985 . S
H598 N593 0.984 . S
H599 N593 0.985 . S
H600 N597 0.984 . S
H601 N597 0.985 . S
H602 N596 0.984 . S
H603 N596 0.984 1_455 S
H604 N592 0.984 . S
H605 N592 0.985 . S
C606 C607 1.363 . S
C606 C612 1.379 . S
C606 N614 1.356 . S
C607 C606 1.363 . S
C607 C613 1.363 . S
C608 C609 1.363 . S
C608 C613 1.379 . S
C608 N615 1.356 1_545 S
C609 C608 1.363 . S
C609 C612 1.363 . S
N610 C612 1.356 . S
N610 H622 0.984 . S
N610 H623 0.985 1_545 S
N611 C613 1.356 . S
N611 H616 0.984 1_655 S
N611 H617 0.985 . S
C612 C606 1.379 . S
C612 C609 1.363 . S
C612 N610 1.356 . S
C613 C607 1.363 . S
C613 C608 1.379 . S
C613 N611 1.356 . S
N614 C606 1.356 . S
N614 H620 0.984 . S
N614 H621 0.984 . S
N615 C608 1.356 1_565 S
N615 H618 0.984 . S
N615 H619 0.985 . S
H616 N611 0.984 1_455 S
H617 N611 0.985 . S
H618 N615 0.984 . S
H619 N615 0.985 . S
H620 N614 0.984 . S
H621 N614 0.984 . S
H622 N610 0.984 . S
H623 N610 0.985 1_565 S
C624 C625 1.363 . S
C624 C630 1.379 . S
C624 N632 1.356 . S
C625 C624 1.363 . S
C625 C631 1.363 . S
C626 C627 1.363 . S
C626 C631 1.379 . S
C626 N633 1.356 . S
C627 C626 1.363 . S
C627 C630 1.363 . S
N628 C630 1.356 . S
N628 H640 0.984 . S
N628 H641 0.985 . S
N629 C631 1.356 . S
N629 H634 0.984 . S
N629 H635 0.985 . S
C630 C624 1.379 . S
C630 C627 1.363 . S
C630 N628 1.356 . S
C631 C625 1.363 . S
C631 C626 1.379 . S
C631 N629 1.356 . S
N632 C624 1.356 . S
N632 H638 0.984 . S
N632 H639 0.984 . S
N633 C626 1.356 . S
N633 H636 0.984 . S
N633 H637 0.985 . S
H634 N629 0.984 . S
H635 N629 0.985 . S
H636 N633 0.984 . S
H637 N633 0.985 . S
H638 N632 0.984 . S
H639 N632 0.984 . S
H640 N628 0.984 . S
H641 N628 0.985 . S
C642 C643 1.363 . S
C642 C648 1.379 . S
C642 N650 1.356 . S
C643 C642 1.363 . S
C643 C649 1.363 . S
C644 C645 1.363 . S
C644 C649 1.379 . S
C644 N651 1.356 . S
C645 C644 1.363 . S
C645 C648 1.363 . S
N646 C648 1.356 . S
N646 H658 0.984 . S
N646 H659 0.985 . S
N647 C649 1.356 . S
N647 H652 0.984 . S
N647 H653 0.985 . S
C648 C642 1.379 . S
C648 C645 1.363 . S
C648 N646 1.356 . S
C649 C643 1.363 . S
C649 C644 1.379 . S
C649 N647 1.356 . S
N650 C642 1.356 . S
N650 H656 0.984 . S
N650 H657 0.984 . S
N651 C644 1.356 . S
N651 H654 0.984 . S
N651 H655 0.985 . S
H652 N647 0.984 . S
H653 N647 0.985 . S
H654 N651 0.984 . S
H655 N651 0.985 . S
H656 N650 0.984 . S
H657 N650 0.984 . S
H658 N646 0.984 . S
H659 N646 0.985 . S
C660 C661 1.363 . S
C660 C666 1.379 . S
C660 N668 1.356 . S
C661 C660 1.363 . S
C661 C667 1.363 . S
C662 C663 1.363 . S
C662 C667 1.379 . S
C662 N669 1.356 . S
C663 C662 1.363 . S
C663 C666 1.363 . S
N664 C666 1.356 . S
N664 H676 0.984 . S
N664 H677 0.985 . S
N665 C667 1.356 . S
N665 H670 0.984 . S
N665 H671 0.985 . S
C666 C660 1.379 . S
C666 C663 1.363 . S
C666 N664 1.356 . S
C667 C661 1.363 . S
C667 C662 1.379 . S
C667 N665 1.356 . S
N668 C660 1.356 . S
N668 H674 0.984 . S
N668 H675 0.984 . S
N669 C662 1.356 . S
N669 H672 0.984 . S
N669 H673 0.985 . S
H670 N665 0.984 . S
H671 N665 0.985 . S
H672 N669 0.984 . S
H673 N669 0.985 . S
H674 N668 0.984 . S
H675 N668 0.984 . S
H676 N664 0.984 . S
H677 N664 0.985 . S
C678 C679 1.363 . S
C678 C684 1.379 . S
C678 N686 1.356 . S
C679 C678 1.363 . S
C679 C685 1.363 . S
C680 C681 1.363 . S
C680 C685 1.379 . S
C680 N687 1.356 . S
C681 C680 1.363 . S
C681 C684 1.363 . S
N682 C684 1.356 . S
N682 H694 0.984 . S
N682 H695 0.985 . S
N683 C685 1.356 . S
N683 H688 0.984 . S
N683 H689 0.985 . S
C684 C678 1.379 . S
C684 C681 1.363 . S
C684 N682 1.356 . S
C685 C679 1.363 . S
C685 C680 1.379 . S
C685 N683 1.356 . S
N686 C678 1.356 . S
N686 H692 0.984 . S
N686 H693 0.984 . S
N687 C680 1.356 . S
N687 H690 0.984 . S
N687 H691 0.985 . S
H688 N683 0.984 . S
H689 N683 0.985 . S
H690 N687 0.984 . S
H691 N687 0.985 . S
H692 N686 0.984 . S
H693 N686 0.984 . S
H694 N682 0.984 . S
H695 N682 0.985 . S
C696 C697 1.363 . S
C696 C702 1.379 . S
C696 N704 1.356 . S
C697 C696 1.363 . S
C697 C703 1.363 . S
C698 C699 1.363 . S
C698 C703 1.379 . S
C698 N705 1.356 . S
C699 C698 1.363 . S
C699 C702 1.363 . S
N700 C702 1.356 . S
N700 H712 0.984 . S
N700 H713 0.985 . S
N701 C703 1.356 . S
N701 H706 0.984 . S
N701 H707 0.985 . S
C702 C696 1.379 . S
C702 C699 1.363 . S
C702 N700 1.356 . S
C703 C697 1.363 . S
C703 C698 1.379 . S
C703 N701 1.356 . S
N704 C696 1.356 . S
N704 H710 0.984 . S
N704 H711 0.984 . S
N705 C698 1.356 . S
N705 H708 0.984 . S
N705 H709 0.985 . S
H706 N701 0.984 . S
H707 N701 0.985 . S
H708 N705 0.984 . S
H709 N705 0.985 . S
H710 N704 0.984 . S
H711 N704 0.984 . S
H712 N700 0.984 . S
H713 N700 0.985 . S
C714 C715 1.363 . S
C714 C720 1.379 . S
C714 N722 1.356 . S
C715 C714 1.363 . S
C715 C721 1.363 . S
C716 C717 1.363 . S
C716 C721 1.379 . S
C716 N723 1.356 . S
C717 C716 1.363 . S
C717 C720 1.363 . S
N718 C720 1.356 . S
N718 H730 0.984 . S
N718 H731 0.985 . S
N719 C721 1.356 . S
N719 H724 0.984 . S
N719 H725 0.985 . S
C720 C714 1.379 . S
C720 C717 1.363 . S
C720 N718 1.356 . S
C721 C715 1.363 . S
C721 C716 1.379 . S
C721 N719 1.356 . S
N722 C714 1.356 . S
N722 H728 0.984 . S
N722 H729 0.984 . S
N723 C716 1.356 . S
N723 H726 0.984 . S
N723 H727 0.985 . S
H724 N719 0.984 . S
H725 N719 0.985 . S
H726 N723 0.984 . S
H727 N723 0.985 . S
H728 N722 0.984 . S
H729 N722 0.984 . S
H730 N718 0.984 . S
H731 N718 0.985 . S
C732 C733 1.363 1_545 S
C732 C738 1.379 . S
C732 N740 1.356 . S
C733 C732 1.363 1_565 S
C733 C739 1.363 1_556 S
C734 C735 1.363 1_565 S
C734 C739 1.379 . S
C734 N741 1.356 . S
C735 C734 1.363 1_545 S
C735 C738 1.363 1_554 S
N736 C738 1.356 1_554 S
N736 H748 0.984 1_554 S
N736 H749 0.985 . S
N737 C739 1.356 1_556 S
N737 H742 0.984 . S
N737 H743 0.985 1_556 S
C738 C732 1.379 . S
C738 C735 1.363 1_556 S
C738 N736 1.356 1_556 S
C739 C733 1.363 1_554 S
C739 C734 1.379 . S
C739 N737 1.356 1_554 S
N740 C732 1.356 . S
N740 H746 0.984 . S
N740 H747 0.984 1_545 S
N741 C734 1.356 . S
N741 H744 0.984 1_565 S
N741 H745 0.985 . S
H742 N737 0.984 . S
H743 N737 0.985 1_554 S
H744 N741 0.984 1_545 S
H745 N741 0.985 . S
H746 N740 0.984 . S
H747 N740 0.984 1_565 S
H748 N736 0.984 1_556 S
H749 N736 0.985 . S
C750 C751 1.363 . S
C750 C756 1.379 . S
C750 N758 1.356 . S
C751 C750 1.363 . S
C751 C757 1.363 . S
C752 C753 1.363 . S
C752 C757 1.379 . S
C752 N759 1.356 . S
C753 C752 1.363 . S
C753 C756 1.363 . S
N754 C756 1.356 . S
N754 H766 0.984 . S
N754 H767 0.985 . S
N755 C757 1.356 . S
N755 H760 0.984 . S
N755 H761 0.985 . S
C756 C750 1.379 . S
C756 C753 1.363 . S
C756 N754 1.356 . S
C757 C751 1.363 . S
C757 C752 1.379 . S
C757 N755 1.356 . S
N758 C750 1.356 . S
N758 H764 0.984 . S
N758 H765 0.984 . S
N759 C752 1.356 . S
N759 H762 0.984 . S
N759 H763 0.985 . S
H760 N755 0.984 . S
H761 N755 0.985 . S
H762 N759 0.984 . S
H763 N759 0.985 . S
H764 N758 0.984 . S
H765 N758 0.984 . S
H766 N754 0.984 . S
H767 N754 0.985 . S
C768 C769 1.363 1_655 S
C768 C774 1.379 . S
C768 N776 1.356 . S
C769 C768 1.363 1_455 S
C769 C775 1.363 1_556 S
C770 C771 1.363 1_455 S
C770 C775 1.379 . S
C770 N777 1.356 . S
C771 C770 1.363 1_655 S
C771 C774 1.363 1_554 S
N772 C774 1.358 . S
N772 H784 0.997 . S
N772 H785 0.970 1_556 S
N773 C775 1.358 . S
N773 H778 0.970 1_554 S
N773 H779 0.997 . S
C774 C768 1.379 . S
C774 C771 1.363 1_556 S
C774 N772 1.358 . S
C775 C769 1.363 1_554 S
C775 C770 1.379 . S
C775 N773 1.358 . S
N776 C768 1.356 . S
N776 H782 0.984 . S
N776 H783 0.984 1_655 S
N777 C770 1.356 . S
N777 H780 0.984 1_455 S
N777 H781 0.985 . S
H778 N773 0.970 1_556 S
H779 N773 0.997 . S
H780 N777 0.984 1_655 S
H781 N777 0.985 . S
H782 N776 0.984 . S
H783 N776 0.984 1_455 S
H784 N772 0.997 . S
H785 N772 0.970 1_554 S
C786 C787 1.363 1_565 S
C786 C792 1.379 . S
C786 N794 1.356 . S
C787 C786 1.363 1_545 S
C787 C793 1.363 . S
C788 C789 1.363 1_545 S
C788 C793 1.379 . S
C788 N795 1.356 . S
C789 C788 1.363 1_565 S
C789 C792 1.363 . S
N790 C792 1.356 . S
N790 H802 0.984 . S
N790 H803 0.985 . S
N791 C793 1.356 . S
N791 H796 0.984 . S
N791 H797 0.985 . S
C792 C786 1.379 . S
C792 C789 1.363 . S
C792 N790 1.356 . S
C793 C787 1.363 . S
C793 C788 1.379 . S
C793 N791 1.356 . S
N794 C786 1.356 . S
N794 H800 0.984 . S
N794 H801 0.984 1_565 S
N795 C788 1.356 . S
N795 H798 0.984 1_545 S
N795 H799 0.985 . S
H796 N791 0.984 . S
H797 N791 0.985 . S
H798 N795 0.984 1_565 S
H799 N795 0.985 . S
H800 N794 0.984 . S
H801 N794 0.984 1_545 S
H802 N790 0.984 . S
H803 N790 0.985 . S
C804 C805 1.363 . S
C804 C810 1.379 1_554 S
C804 N812 1.356 . S
C805 C804 1.363 . S
C805 C811 1.363 . S
C806 C807 1.363 . S
C806 C811 1.379 1_556 S
C806 N813 1.356 . S
C807 C806 1.363 . S
C807 C810 1.363 . S
N808 C810 1.356 . S
N808 H820 0.984 . S
N808 H821 0.985 . S
N809 C811 1.356 . S
N809 H814 0.984 . S
N809 H815 0.985 . S
C810 C804 1.379 1_556 S
C810 C807 1.363 . S
C810 N808 1.356 . S
C811 C805 1.363 . S
C811 C806 1.379 1_554 S
C811 N809 1.356 . S
N812 C804 1.356 . S
N812 H818 0.984 . S
N812 H819 0.984 . S
N813 C806 1.356 . S
N813 H816 0.984 . S
N813 H817 0.985 . S
H814 N809 0.984 . S
H815 N809 0.985 . S
H816 N813 0.984 . S
H817 N813 0.985 . S
H818 N812 0.984 . S
H819 N812 0.984 . S
H820 N808 0.984 . S
H821 N808 0.985 . S
C822 C823 1.363 . S
C822 C828 1.379 1_455 S
C822 N830 1.356 . S
C823 C822 1.363 . S
C823 C829 1.363 . S
C824 C825 1.363 . S
C824 C829 1.379 1_655 S
C824 N831 1.356 . S
C825 C824 1.363 . S
C825 C828 1.363 . S
N826 C828 1.356 . S
N826 H838 0.984 . S
N826 H839 0.985 . S
N827 C829 1.356 . S
N827 H832 0.984 . S
N827 H833 0.985 . S
C828 C822 1.379 1_655 S
C828 C825 1.363 . S
C828 N826 1.356 . S
C829 C823 1.363 . S
C829 C824 1.379 1_455 S
C829 N827 1.356 . S
N830 C822 1.356 . S
N830 H836 0.984 . S
N830 H837 0.984 . S
N831 C824 1.356 . S
N831 H834 0.984 . S
N831 H835 0.985 . S
H832 N827 0.984 . S
H833 N827 0.985 . S
H834 N831 0.984 . S
H835 N831 0.985 . S
H836 N830 0.984 . S
H837 N830 0.984 . S
H838 N826 0.984 . S
H839 N826 0.985 . S
C840 C841 1.363 . S
C840 C846 1.379 . S
C840 N848 1.356 . S
C841 C840 1.363 . S
C841 C847 1.363 . S
C842 C843 1.363 . S
C842 C847 1.379 . S
C842 N849 1.356 . S
C843 C842 1.363 . S
C843 C846 1.363 . S
N844 C846 1.356 . S
N844 H856 0.984 . S
N844 H857 0.985 . S
N845 C847 1.356 . S
N845 H850 0.984 . S
N845 H851 0.985 . S
C846 C840 1.379 . S
C846 C843 1.363 . S
C846 N844 1.356 . S
C847 C841 1.363 . S
C847 C842 1.379 . S
C847 N845 1.356 . S
N848 C840 1.356 . S
N848 H854 0.984 . S
N848 H855 0.984 . S
N849 C842 1.356 . S
N849 H852 0.984 . S
N849 H853 0.985 . S
H850 N845 0.984 . S
H851 N845 0.985 . S
H852 N849 0.984 . S
H853 N849 0.985 . S
H854 N848 0.984 . S
H855 N848 0.984 . S
H856 N844 0.984 . S
H857 N844 0.985 . S
C858 C859 1.363 . S
C858 C864 1.379 . S
C858 N866 1.356 . S
C859 C858 1.363 . S
C859 C865 1.363 . S
C860 C861 1.363 . S
C860 C865 1.379 . S
C860 N867 1.356 . S
C861 C860 1.363 . S
C861 C864 1.363 . S
N862 C864 1.356 . S
N862 H874 0.984 . S
N862 H875 0.985 . S
N863 C865 1.356 . S
N863 H868 0.984 . S
N863 H869 0.985 . S
C864 C858 1.379 . S
C864 C861 1.363 . S
C864 N862 1.356 . S
C865 C859 1.363 . S
C865 C860 1.379 . S
C865 N863 1.356 . S
N866 C858 1.356 . S
N866 H872 0.984 . S
N866 H873 0.984 . S
N867 C860 1.356 . S
N867 H870 0.984 . S
N867 H871 0.985 . S
H868 N863 0.984 . S
H869 N863 0.985 . S
H870 N867 0.984 . S
H871 N867 0.985 . S
H872 N866 0.984 . S
H873 N866 0.984 . S
H874 N862 0.984 . S
H875 N862 0.985 . S
C876 C877 1.363 . S
C876 C882 1.379 . S
C876 N884 1.356 . S
C877 C876 1.363 . S
C877 C883 1.363 . S
C878 C879 1.363 . S
C878 C883 1.379 . S
C878 N885 1.356 . S
C879 C878 1.363 . S
C879 C882 1.363 . S
N880 C882 1.356 . S
N880 H892 0.984 . S
N880 H893 0.985 . S
N881 C883 1.356 . S
N881 H886 0.984 . S
N881 H887 0.985 . S
C882 C876 1.379 . S
C882 C879 1.363 . S
C882 N880 1.356 . S
C883 C877 1.363 . S
C883 C878 1.379 . S
C883 N881 1.356 . S
N884 C876 1.356 . S
N884 H890 0.984 . S
N884 H891 0.984 . S
N885 C878 1.356 . S
N885 H888 0.984 . S
N885 H889 0.985 . S
H886 N881 0.984 . S
H887 N881 0.985 . S
H888 N885 0.984 . S
H889 N885 0.985 . S
H890 N884 0.984 . S
H891 N884 0.984 . S
H892 N880 0.984 . S
H893 N880 0.985 . S
C894 C895 1.363 . S
C894 C900 1.379 . S
C894 N902 1.356 . S
C895 C894 1.363 . S
C895 C901 1.363 . S
C896 C897 1.363 . S
C896 C901 1.379 . S
C896 N903 1.356 . S
C897 C896 1.363 . S
C897 C900 1.363 . S
N898 C900 1.356 . S
N898 H910 0.984 . S
N898 H911 0.985 . S
N899 C901 1.356 . S
N899 H904 0.984 . S
N899 H905 0.985 1_545 S
C900 C894 1.379 . S
C900 C897 1.363 . S
C900 N898 1.356 . S
C901 C895 1.363 . S
C901 C896 1.379 . S
C901 N899 1.356 . S
N902 C894 1.356 . S
N902 H908 0.984 . S
N902 H909 0.984 . S
N903 C896 1.356 . S
N903 H906 0.984 . S
N903 H907 0.985 . S
H904 N899 0.984 . S
H905 N899 0.985 1_565 S
H906 N903 0.984 . S
H907 N903 0.985 . S
H908 N902 0.984 . S
H909 N902 0.984 . S
H910 N898 0.984 . S
H911 N898 0.985 . S
C912 C913 1.363 . S
C912 C918 1.379 . S
C912 N920 1.356 . S
C913 C912 1.363 . S
C913 C919 1.363 . S
C914 C915 1.363 . S
C914 C919 1.379 . S
C914 N921 1.356 . S
C915 C914 1.363 . S
C915 C918 1.363 . S
N916 C918 1.356 . S
N916 H928 0.984 . S
N916 H929 0.985 . S
N917 C919 1.356 . S
N917 H922 0.984 . S
N917 H923 0.985 . S
C918 C912 1.379 . S
C918 C915 1.363 . S
C918 N916 1.356 . S
C919 C913 1.363 . S
C919 C914 1.379 . S
C919 N917 1.356 . S
N920 C912 1.356 . S
N920 H926 0.984 . S
N920 H927 0.984 . S
N921 C914 1.356 . S
N921 H924 0.984 . S
N921 H925 0.985 . S
H922 N917 0.984 . S
H923 N917 0.985 . S
H924 N921 0.984 . S
H925 N921 0.985 . S
H926 N920 0.984 . S
H927 N920 0.984 . S
H928 N916 0.984 . S
H929 N916 0.985 . S
C930 C931 1.363 . S
C930 C936 1.379 . S
C930 N938 1.356 . S
C931 C930 1.363 . S
C931 C937 1.363 . S
C932 C933 1.363 . S
C932 C937 1.379 . S
C932 N939 1.356 . S
C933 C932 1.363 . S
C933 C936 1.363 . S
N934 C936 1.356 . S
N934 H946 0.984 . S
N934 H947 0.985 . S
N935 C937 1.356 . S
N935 H940 0.984 . S
N935 H941 0.985 . S
C936 C930 1.379 . S
C936 C933 1.363 . S
C936 N934 1.356 . S
C937 C931 1.363 . S
C937 C932 1.379 . S
C937 N935 1.356 . S
N938 C930 1.356 . S
N938 H944 0.984 . S
N938 H945 0.984 . S
N939 C932 1.356 . S
N939 H942 0.984 . S
N939 H943 0.985 . S
H940 N935 0.984 . S
H941 N935 0.985 . S
H942 N939 0.984 . S
H943 N939 0.985 . S
H944 N938 0.984 . S
H945 N938 0.984 . S
H946 N934 0.984 . S
H947 N934 0.985 . S
C948 C949 1.363 . S
C948 C954 1.379 . S
C948 N956 1.356 . S
C949 C948 1.363 . S
C949 C955 1.363 . S
C950 C951 1.363 . S
C950 C955 1.379 . S
C950 N957 1.356 . S
C951 C950 1.363 . S
C951 C954 1.363 . S
N952 C954 1.356 . S
N952 H964 0.984 . S
N952 H965 0.985 . S
N953 C955 1.356 . S
N953 H958 0.984 . S
N953 H959 0.985 . S
C954 C948 1.379 . S
C954 C951 1.363 . S
C954 N952 1.356 . S
C955 C949 1.363 . S
C955 C950 1.379 . S
C955 N953 1.356 . S
N956 C948 1.356 . S
N956 H962 0.984 . S
N956 H963 0.984 . S
N957 C950 1.356 . S
N957 H960 0.984 . S
N957 H961 0.985 1_455 S
H958 N953 0.984 . S
H959 N953 0.985 . S
H960 N957 0.984 . S
H961 N957 0.985 1_655 S
H962 N956 0.984 . S
H963 N956 0.984 . S
H964 N952 0.984 . S
H965 N952 0.985 . S
C966 C967 1.363 . S
C966 C972 1.379 . S
C966 N974 1.356 . S
C967 C966 1.363 . S
C967 C973 1.363 . S
C968 C969 1.363 . S
C968 C973 1.379 . S
C968 N975 1.356 . S
C969 C968 1.363 . S
C969 C972 1.363 . S
N970 C972 1.356 . S
N970 H982 0.984 . S
N970 H983 0.985 . S
N971 C973 1.356 . S
N971 H976 0.984 . S
N971 H977 0.985 1_565 S
C972 C966 1.379 . S
C972 C969 1.363 . S
C972 N970 1.356 . S
C973 C967 1.363 . S
C973 C968 1.379 . S
C973 N971 1.356 . S
N974 C966 1.356 . S
N974 H980 0.984 . S
N974 H981 0.984 . S
N975 C968 1.356 . S
N975 H978 0.984 . S
N975 H979 0.985 . S
H976 N971 0.984 . S
H977 N971 0.985 1_545 S
H978 N975 0.984 . S
H979 N975 0.985 . S
H980 N974 0.984 . S
H981 N974 0.984 . S
H982 N970 0.984 . S
H983 N970 0.985 . S
C984 C985 1.363 . S
C984 C990 1.379 . S
C984 N992 1.356 . S
C985 C984 1.363 . S
C985 C991 1.363 . S
C986 C987 1.363 . S
C986 C991 1.379 . S
C986 N993 1.356 . S
C987 C986 1.363 . S
C987 C990 1.363 . S
N988 C990 1.356 . S
N988 H1000 0.984 . S
N988 H1001 0.985 . S
N989 C991 1.356 . S
N989 H994 0.984 . S
N989 H995 0.985 . S
C990 C984 1.379 . S
C990 C987 1.363 . S
C990 N988 1.356 . S
C991 C985 1.363 . S
C991 C986 1.379 . S
C991 N989 1.356 . S
N992 C984 1.356 . S
N992 H998 0.984 . S
N992 H999 0.984 . S
N993 C986 1.356 . S
N993 H996 0.984 . S
N993 H997 0.985 . S
H994 N989 0.984 . S
H995 N989 0.985 . S
H996 N993 0.984 . S
H997 N993 0.985 . S
H998 N992 0.984 . S
H999 N992 0.984 . S
H1000 N988 0.984 . S
H1001 N988 0.985 . S
C1002 C1003 1.363 . S
C1002 C1008 1.379 . S
C1002 N1010 1.356 . S
C1003 C1002 1.363 . S
C1003 C1009 1.363 . S
C1004 C1005 1.363 . S
C1004 C1009 1.379 . S
C1004 N1011 1.356 . S
C1005 C1004 1.363 . S
C1005 C1008 1.363 . S
N1006 C1008 1.356 . S
N1006 H1018 0.984 . S
N1006 H1019 0.985 . S
N1007 C1009 1.356 . S
N1007 H1012 0.984 . S
N1007 H1013 0.985 . S
C1008 C1002 1.379 . S
C1008 C1005 1.363 . S
C1008 N1006 1.356 . S
C1009 C1003 1.363 . S
C1009 C1004 1.379 . S
C1009 N1007 1.356 . S
N1010 C1002 1.356 . S
N1010 H1016 0.984 . S
N1010 H1017 0.984 . S
N1011 C1004 1.356 . S
N1011 H1014 0.984 . S
N1011 H1015 0.985 . S
H1012 N1007 0.984 . S
H1013 N1007 0.985 . S
H1014 N1011 0.984 . S
H1015 N1011 0.985 . S
H1016 N1010 0.984 . S
H1017 N1010 0.984 . S
H1018 N1006 0.984 . S
H1019 N1006 0.985 . S
C1020 C1021 1.363 . S
C1020 C1026 1.379 . S
C1020 N1028 1.356 . S
C1021 C1020 1.363 . S
C1021 C1027 1.363 . S
C1022 C1023 1.363 . S
C1022 C1027 1.379 . S
C1022 N1029 1.356 . S
C1023 C1022 1.363 . S
C1023 C1026 1.363 . S
N1024 C1026 1.356 . S
N1024 H1036 0.984 . S
N1024 H1037 0.985 . S
N1025 C1027 1.356 . S
N1025 H1030 0.984 . S
N1025 H1031 0.985 1_565 S
C1026 C1020 1.379 . S
C1026 C1023 1.363 . S
C1026 N1024 1.356 . S
C1027 C1021 1.363 . S
C1027 C1022 1.379 . S
C1027 N1025 1.356 . S
N1028 C1020 1.356 . S
N1028 H1034 0.984 . S
N1028 H1035 0.984 . S
N1029 C1022 1.356 . S
N1029 H1032 0.984 . S
N1029 H1033 0.985 . S
H1030 N1025 0.984 . S
H1031 N1025 0.985 1_545 S
H1032 N1029 0.984 . S
H1033 N1029 0.985 . S
H1034 N1028 0.984 . S
H1035 N1028 0.984 . S
H1036 N1024 0.984 . S
H1037 N1024 0.985 . S
C1038 C1039 1.363 . S
C1038 C1044 1.379 . S
C1038 N1046 1.356 . S
C1039 C1038 1.363 . S
C1039 C1045 1.363 . S
C1040 C1041 1.363 . S
C1040 C1045 1.379 . S
C1040 N1047 1.356 . S
C1041 C1040 1.363 . S
C1041 C1044 1.363 . S
N1042 C1044 1.356 . S
N1042 H1054 0.984 . S
N1042 H1055 0.985 . S
N1043 C1045 1.356 . S
N1043 H1048 0.984 . S
N1043 H1049 0.985 . S
C1044 C1038 1.379 . S
C1044 C1041 1.363 . S
C1044 N1042 1.356 . S
C1045 C1039 1.363 . S
C1045 C1040 1.379 . S
C1045 N1043 1.356 . S
N1046 C1038 1.356 . S
N1046 H1052 0.984 . S
N1046 H1053 0.984 . S
N1047 C1040 1.356 . S
N1047 H1050 0.984 . S
N1047 H1051 0.985 . S
H1048 N1043 0.984 . S
H1049 N1043 0.985 . S
H1050 N1047 0.984 . S
H1051 N1047 0.985 . S
H1052 N1046 0.984 . S
H1053 N1046 0.984 . S
H1054 N1042 0.984 . S
H1055 N1042 0.985 . S
C409 C68 1.086 . S
C411 C8 1.107 . S
C427 C131 1.086 . S
C429 C51 1.107 1_455 S
C445 C76 1.107 1_565 S
C447 C136 1.086 . S
C463 C119 1.107 . S
C465 C199 1.086 . S
C481 C0 1.086 . S
C483 C144 1.107 1_455 S
C499 C63 1.086 . S
C501 C187 1.107 1_565 S
C517 C369 1.086 . S
C519 C221 1.107 . S
C535 C246 1.107 1_655 S
C537 C374 1.086 . S
C553 C289 1.107 1_545 S
C555 C233 1.086 . S
C571 C314 1.107 . S
C573 C238 1.086 . S
C589 C357 1.107 1_655 S
C591 C301 1.086 . S
C607 C306 1.086 . S
C609 C382 1.107 1_545 S
C625 C106 1.581 . S
C627 C13 1.581 . S
C643 C38 1.581 . S
C645 C149 1.581 . S
C661 C81 1.581 . S
C663 C174 1.581 . S
C679 C208 1.581 . S
C681 C319 1.581 . S
C697 C251 1.581 . S
C699 C344 1.581 . S
C715 C276 1.581 . S
C717 C387 1.581 . S
C733 C242 1.840 . S
C735 C4 1.840 . S
C751 C47 1.840 . S
C753 C285 1.840 . S
C769 C310 1.840 . S
C771 C72 1.840 . S
C787 C115 1.840 . S
C789 C353 1.840 . S
C805 C140 1.840 . S
C807 C378 1.840 . S
C823 C217 1.840 . S
C825 C183 1.840 . S
C841 C97 1.278 . S
C843 C17 1.260 . S
C859 C42 1.259 . S
C861 C102 1.278 . S
C877 C85 1.260 . S
C879 C165 1.278 . S
C895 C110 1.260 . S
C897 C170 1.278 . S
C913 C29 1.278 . S
C915 C153 1.259 . S
C931 C34 1.279 . S
C933 C178 1.260 . S
C949 C340 1.278 . S
C951 C212 1.260 . S
C967 C255 1.260 . S
C969 C403 1.278 . S
C985 C280 1.259 . S
C987 C204 1.278 . S
C1003 C267 1.278 . S
C1005 C323 1.260 . S
C1021 C348 1.260 . S
C1023 C272 1.278 . S
C1039 C391 1.259 . S
C1041 C335 1.278 . S
