# Generated by pormake.
# Topology why, (6)-cn, num edge types: 1
# Building blocks:
#     Node 0, Type 0, BuildingBlock: HISSIN_clean_sbu_0, # of connection points: 6
#     Node 1, Type 0, BuildingBlock: HISSIN_clean_sbu_0, # of connection points: 6
#     Node 2, Type 0, BuildingBlock: HISSIN_clean_sbu_0, # of connection points: 6
#     Node 3, Type 0, BuildingBlock: HISSIN_clean_sbu_0, # of connection points: 6
#     Node 4, Type 0, BuildingBlock: HISSIN_clean_sbu_0, # of connection points: 6
#     Node 5, Type 0, BuildingBlock: HISSIN_clean_sbu_0, # of connection points: 6
#     Node 6, Type 0, BuildingBlock: HISSIN_clean_sbu_0, # of connection points: 6
#     Node 7, Type 0, BuildingBlock: HISSIN_clean_sbu_0, # of connection points: 6
#     Node 8, Type 0, BuildingBlock: HISSIN_clean_sbu_0, # of connection points: 6
#     Node 9, Type 0, BuildingBlock: HISSIN_clean_sbu_0, # of connection points: 6
#     Node 10, Type 0, BuildingBlock: HISSIN_clean_sbu_0, # of connection points: 6
#     Node 11, Type 0, BuildingBlock: HISSIN_clean_sbu_0, # of connection points: 6
#     Node 12, Type 0, BuildingBlock: HISSIN_clean_sbu_0, # of connection points: 6
#     Node 13, Type 0, BuildingBlock: HISSIN_clean_sbu_0, # of connection points: 6
#     Node 14, Type 0, BuildingBlock: HISSIN_clean_sbu_0, # of connection points: 6
#     Node 15, Type 0, BuildingBlock: HISSIN_clean_sbu_0, # of connection points: 6
#     Edge 16, Type (0, 0), BuildingBlock: UVAHIK_clean_linker_0, # of connection points: 2
#     Edge 17, Type (0, 0), BuildingBlock: UVAHIK_clean_linker_0, # of connection points: 2
#     Edge 18, Type (0, 0), BuildingBlock: UVAHIK_clean_linker_0, # of connection points: 2
#     Edge 19, Type (0, 0), BuildingBlock: UVAHIK_clean_linker_0, # of connection points: 2
#     Edge 20, Type (0, 0), BuildingBlock: UVAHIK_clean_linker_0, # of connection points: 2
#     Edge 21, Type (0, 0), BuildingBlock: UVAHIK_clean_linker_0, # of connection points: 2
#     Edge 22, Type (0, 0), BuildingBlock: UVAHIK_clean_linker_0, # of connection points: 2
#     Edge 23, Type (0, 0), BuildingBlock: UVAHIK_clean_linker_0, # of connection points: 2
#     Edge 24, Type (0, 0), BuildingBlock: UVAHIK_clean_linker_0, # of connection points: 2
#     Edge 25, Type (0, 0), BuildingBlock: UVAHIK_clean_linker_0, # of connection points: 2
#     Edge 26, Type (0, 0), BuildingBlock: UVAHIK_clean_linker_0, # of connection points: 2
#     Edge 27, Type (0, 0), BuildingBlock: UVAHIK_clean_linker_0, # of connection points: 2
#     Edge 28, Type (0, 0), BuildingBlock: UVAHIK_clean_linker_0, # of connection points: 2
#     Edge 29, Type (0, 0), BuildingBlock: UVAHIK_clean_linker_0, # of connection points: 2
#     Edge 30, Type (0, 0), BuildingBlock: UVAHIK_clean_linker_0, # of connection points: 2
#     Edge 31, Type (0, 0), BuildingBlock: UVAHIK_clean_linker_0, # of connection points: 2
#     Edge 32, Type (0, 0), BuildingBlock: UVAHIK_clean_linker_0, # of connection points: 2
#     Edge 33, Type (0, 0), BuildingBlock: UVAHIK_clean_linker_0, # of connection points: 2
#     Edge 34, Type (0, 0), BuildingBlock: UVAHIK_clean_linker_0, # of connection points: 2
#     Edge 35, Type (0, 0), BuildingBlock: UVAHIK_clean_linker_0, # of connection points: 2
#     Edge 36, Type (0, 0), BuildingBlock: UVAHIK_clean_linker_0, # of connection points: 2
#     Edge 37, Type (0, 0), BuildingBlock: UVAHIK_clean_linker_0, # of connection points: 2
#     Edge 38, Type (0, 0), BuildingBlock: UVAHIK_clean_linker_0, # of connection points: 2
#     Edge 39, Type (0, 0), BuildingBlock: UVAHIK_clean_linker_0, # of connection points: 2
#     Edge 40, Type (0, 0), BuildingBlock: UVAHIK_clean_linker_0, # of connection points: 2
#     Edge 41, Type (0, 0), BuildingBlock: UVAHIK_clean_linker_0, # of connection points: 2
#     Edge 42, Type (0, 0), BuildingBlock: UVAHIK_clean_linker_0, # of connection points: 2
#     Edge 43, Type (0, 0), BuildingBlock: UVAHIK_clean_linker_0, # of connection points: 2
#     Edge 44, Type (0, 0), BuildingBlock: UVAHIK_clean_linker_0, # of connection points: 2
#     Edge 45, Type (0, 0), BuildingBlock: UVAHIK_clean_linker_0, # of connection points: 2
#     Edge 46, Type (0, 0), BuildingBlock: UVAHIK_clean_linker_0, # of connection points: 2
#     Edge 47, Type (0, 0), BuildingBlock: UVAHIK_clean_linker_0, # of connection points: 2
#     Edge 48, Type (0, 0), BuildingBlock: UVAHIK_clean_linker_0, # of connection points: 2
#     Edge 49, Type (0, 0), BuildingBlock: UVAHIK_clean_linker_0, # of connection points: 2
#     Edge 50, Type (0, 0), BuildingBlock: UVAHIK_clean_linker_0, # of connection points: 2
#     Edge 51, Type (0, 0), BuildingBlock: UVAHIK_clean_linker_0, # of connection points: 2
#     Edge 52, Type (0, 0), BuildingBlock: UVAHIK_clean_linker_0, # of connection points: 2
#     Edge 53, Type (0, 0), BuildingBlock: UVAHIK_clean_linker_0, # of connection points: 2
#     Edge 54, Type (0, 0), BuildingBlock: UVAHIK_clean_linker_0, # of connection points: 2
#     Edge 55, Type (0, 0), BuildingBlock: UVAHIK_clean_linker_0, # of connection points: 2
#     Edge 56, Type (0, 0), BuildingBlock: UVAHIK_clean_linker_0, # of connection points: 2
#     Edge 57, Type (0, 0), BuildingBlock: UVAHIK_clean_linker_0, # of connection points: 2
#     Edge 58, Type (0, 0), BuildingBlock: UVAHIK_clean_linker_0, # of connection points: 2
#     Edge 59, Type (0, 0), BuildingBlock: UVAHIK_clean_linker_0, # of connection points: 2
#     Edge 60, Type (0, 0), BuildingBlock: UVAHIK_clean_linker_0, # of connection points: 2
#     Edge 61, Type (0, 0), BuildingBlock: UVAHIK_clean_linker_0, # of connection points: 2
#     Edge 62, Type (0, 0), BuildingBlock: UVAHIK_clean_linker_0, # of connection points: 2
#     Edge 63, Type (0, 0), BuildingBlock: UVAHIK_clean_linker_0, # of connection points: 2
# Relax obj value: 0.346
# Max RMSD: 0.223
# Mean RMSD: 0.223
data_MOF--net-why--node1-HISSIN_clean_sbu_0--edge1-UVAHIK_clean_linker_0
_symmetry_space_group_name_H-M    P1
_symmetry_Int_Tables_number       1
_symmetry_cell_setting            triclinic
loop_
_symmetry_equiv_pos_as_xyz
'x, y, z'
_cell_length_a     60.460018
_cell_length_b     60.298789
_cell_length_c     48.768566
_cell_angle_alpha  90.116775
_cell_angle_beta   89.895341
_cell_angle_gamma 90.259647
loop_
_atom_site_label
_atom_site_type_symbol
_atom_site_fract_x
_atom_site_fract_y
_atom_site_fract_z
_atom_type_partial_charge
Eu0 Eu 0.48014 0.21873 0.03367 0.0
Eu1 Eu 0.4559 0.25124 0.07756 0.0
C2 C 0.46723 0.26932 0.01627 0.0
C3 C 0.51193 0.19518 0.97314 0.0
C4 C 0.51656 0.2165 0.96318 0.0
C5 C 0.53062 0.17924 0.93378 0.0
C6 C 0.52825 0.21919 0.93868 0.0
C7 C 0.51895 0.17658 0.95832 0.0
C8 C 0.53546 0.20058 0.92373 0.0
C9 C 0.49954 0.19224 -0.00129 0.0
O10 O 0.4305 0.24591 0.04433 0.0
O11 O 0.44308 0.21262 0.02834 0.0
C12 C 0.42762 0.22796 0.02944 0.0
O13 O 0.48211 0.20049 0.07414 0.0
O14 O 0.42631 0.26412 0.09739 0.0
O15 O 0.45856 0.27444 0.11189 0.0
O16 O 0.45286 0.21663 0.09562 0.0
C17 C 0.46712 0.20036 0.0936 0.0
O18 O 0.50493 0.24677 0.04074 0.0
O19 O 0.49267 0.25762 0.08294 0.0
O20 O 0.46149 0.27431 0.04164 0.0
O21 O 0.50903 0.19976 0.02088 0.0
O22 O 0.47864 0.19734 -0.00236 0.0
O23 O 0.47325 0.24923 0.00885 0.0
C24 C 0.4307 0.26954 0.14503 0.0
C25 C 0.4209 0.24916 0.15217 0.0
C26 C 0.42762 0.28164 0.19231 0.0
C27 C 0.41397 0.24531 0.1791 0.0
C28 C 0.43433 0.28558 0.16535 0.0
C29 C 0.41704 0.26163 0.19934 0.0
C30 C 0.43736 0.27426 0.11664 0.0
C31 C 0.5074 0.25879 0.0631 0.0
H32 H 0.51109 0.23104 0.97436 0.0
H33 H 0.53618 0.1646 0.92292 0.0
H34 H 0.53148 0.23583 0.93131 0.0
H35 H 0.51546 0.16001 0.96578 0.0
H36 H 0.41828 0.23636 0.13689 0.0
H37 H 0.4299 0.29465 0.20742 0.0
H38 H 0.40592 0.22972 0.18403 0.0
H39 H 0.44202 0.30131 0.16025 0.0
Eu40 Eu 0.71872 0.74382 0.28573 0.0
Eu41 Eu 0.68715 0.71569 0.32707 0.0
C42 C 0.66953 0.72837 0.26629 0.0
C43 C 0.74254 0.77878 0.22711 0.0
C44 C 0.73354 0.80021 0.22602 0.0
C45 C 0.74767 0.77967 0.17764 0.0
C46 C 0.73148 0.81117 0.20096 0.0
C47 C 0.7498 0.76874 0.2027 0.0
C48 C 0.7384 0.80098 0.17646 0.0
C49 C 0.74459 0.76688 0.25347 0.0
O50 O 0.69742 0.68947 0.29663 0.0
O51 O 0.72574 0.70774 0.27446 0.0
C52 C 0.71362 0.68978 0.27862 0.0
O53 O 0.73607 0.7441 0.3268 0.0
O54 O 0.66248 0.69099 0.33859 0.0
O55 O 0.67863 0.71062 0.37013 0.0
O56 O 0.72252 0.71126 0.34181 0.0
C57 C 0.7376 0.7269 0.34299 0.0
O58 O 0.68971 0.76693 0.29368 0.0
O59 O 0.67678 0.7516 0.33355 0.0
O60 O 0.66429 0.7224 0.29147 0.0
O61 O 0.7344 0.77522 0.27469 0.0
O62 O 0.74286 0.74534 0.25251 0.0
O63 O 0.68951 0.73515 0.25946 0.0
C64 C 0.672 0.67303 0.37991 0.0
C65 C 0.68132 0.65467 0.3664 0.0
C66 C 0.67499 0.6535 0.42317 0.0
C67 C 0.68704 0.63572 0.38113 0.0
C68 C 0.66903 0.67236 0.40839 0.0
C69 C 0.68387 0.63495 0.40964 0.0
C70 C 0.66635 0.6933 0.36477 0.0
C71 C 0.67648 0.76757 0.31514 0.0
H72 H 0.72805 0.80856 0.24448 0.0
H73 H 0.75298 0.77127 0.15913 0.0
H74 H 0.72466 0.82775 0.20084 0.0
H75 H 0.757 0.75232 0.20293 0.0
H76 H 0.68418 0.65493 0.34447 0.0
H77 H 0.67209 0.65321 0.44509 0.0
H78 H 0.69394 0.62166 0.37027 0.0
H79 H 0.66208 0.68643 0.41918 0.0
Eu80 Eu 0.19251 0.97843 0.53608 0.0
Eu81 Eu 0.2208 0.94618 0.57615 0.0
C82 C 0.20923 0.93104 0.51321 0.0
C83 C 0.15943 1.00476 0.47853 0.0
C84 C 0.16534 0.98809 0.45982 0.0
C85 C 0.13364 1.01958 0.44538 0.0
C86 C 0.15538 0.98713 0.43399 0.0
C87 C 0.14367 1.02056 0.47112 0.0
C88 C 0.13925 1.00275 0.42662 0.0
C89 C 0.16906 1.00542 0.50607 0.0
O90 O 0.24714 0.95748 0.54663 0.0
O91 O 0.22836 0.98426 0.5225 0.0
C92 C 0.24652 0.97283 0.52755 0.0
O93 O 0.1922 0.99405 0.57824 0.0
O94 O 0.23874 0.91604 0.58607 0.0
O95 O 0.23307 0.94055 0.61767 0.0
O96 O 0.22557 0.98147 0.59185 0.0
C97 C 0.20963 0.99606 0.59391 0.0
O98 O 0.17021 0.94853 0.54334 0.0
O99 O 0.1848 0.93715 0.5841 0.0
O100 O 0.21653 0.92557 0.5377 0.0
O101 O 0.16051 0.99167 0.52377 0.0
O102 O 0.19058 1.00598 0.5073 0.0
O103 O 0.20047 0.95043 0.50779 0.0
C104 C 0.26715 0.92193 0.61752 0.0
C105 C 0.27504 0.906 0.63578 0.0
C106 C 0.30475 0.93474 0.60945 0.0
C107 C 0.29769 0.90431 0.64075 0.0
C108 C 0.28206 0.93642 0.60451 0.0
C109 C 0.31282 0.91849 0.62739 0.0
C110 C 0.24359 0.92254 0.61079 0.0
C111 C 0.16926 0.93587 0.56527 0.0
H112 H 0.17744 0.97568 0.46533 0.0
H113 H 0.12147 1.03199 0.44015 0.0
H114 H 0.15986 0.97385 0.4201 0.0
H115 H 0.13895 1.03354 0.48536 0.0
H116 H 0.26372 0.89469 0.64593 0.0
H117 H 0.31598 0.9458 0.59876 0.0
H118 H 0.30337 0.8919 0.65511 0.0
H119 H 0.27617 0.94877 0.59021 0.0
Eu120 Eu 0.95918 0.45424 0.78591 0.0
Eu121 Eu 0.98989 0.48147 0.82839 0.0
C122 C 1.00705 0.47289 0.76642 0.0
C123 C 0.93719 0.42344 0.7244 0.0
C124 C 0.95787 0.42564 0.71159 0.0
C125 C 0.92292 0.40493 0.68394 0.0
C126 C 0.96116 0.41724 0.68524 0.0
C127 C 0.91968 0.41329 0.71039 0.0
C128 C 0.94379 0.40657 0.67127 0.0
C129 C 0.93405 0.43154 0.75244 0.0
O130 O 0.9796 0.50883 0.79948 0.0
O131 O 0.95261 0.49038 0.77498 0.0
C132 C 0.96417 0.50851 0.78043 0.0
O133 O 0.94161 0.45301 0.82697 0.0
O134 O 0.99612 0.48609 0.87201 0.0
O135 O 1.01539 0.50461 0.84213 0.0
O136 O 0.9543 0.48611 0.84224 0.0
C137 C 0.93945 0.47022 0.84316 0.0
O138 O 0.98904 0.43196 0.79202 0.0
O139 O 0.9993 0.4452 0.83389 0.0
O140 O 1.01274 0.47653 0.79211 0.0
O141 O 0.94665 0.42251 0.77094 0.0
O142 O 0.93305 0.453 0.75514 0.0
O143 O 0.98707 0.46635 0.75945 0.0
C144 C 1.03333 0.49325 0.8831 0.0
C145 C 1.03234 0.49209 0.91177 0.0
C146 C 1.07257 0.48471 0.88493 0.0
C147 C 1.05131 0.48759 0.92695 0.0
C148 C 1.05349 0.48901 0.8697 0.0
C149 C 1.07171 0.48432 0.91373 0.0
C150 C 1.01317 0.49899 0.86783 0.0
C151 C 1.00119 0.43033 0.81425 0.0
H152 H 0.97153 0.43361 0.72213 0.0
H153 H 0.90932 0.39658 0.67377 0.0
H154 H 0.97733 0.41895 0.67585 0.0
H155 H 0.90361 0.41154 0.72005 0.0
H156 H 1.01694 0.4952 0.92249 0.0
H157 H 1.08809 0.48223 0.87426 0.0
H158 H 1.0502 0.48779 0.94912 0.0
H159 H 1.05465 0.48947 0.84754 0.0
Eu160 Eu 0.72379 0.95261 0.87453 0.0
Eu161 Eu 0.69584 0.98385 0.91693 0.0
C162 C 0.7109 1.00294 0.85813 0.0
C163 C 0.77016 0.92177 0.83935 0.0
C164 C 0.78656 0.93493 0.82687 0.0
C165 C 0.79845 0.89513 0.85204 0.0
C166 C 0.80864 0.92835 0.82712 0.0
C167 C 0.77633 0.90176 0.85191 0.0
C168 C 0.81483 0.90836 0.83962 0.0
C169 C 0.74689 0.92928 0.83974 0.0
O170 O 0.67318 0.95448 0.90833 0.0
O171 O 0.68765 0.94372 0.86705 0.0
C172 C 0.67217 0.94218 0.88603 0.0
O173 O 0.72453 0.93316 0.91401 0.0
O174 O 0.66508 1.00032 0.92829 0.0
O175 O 0.69492 1.00683 0.9515 0.0
O176 O 0.70085 0.95313 0.94181 0.0
C177 C 0.71355 0.93592 0.93709 0.0
O178 O 0.75015 0.96238 0.90489 0.0
O179 O 0.73198 0.98985 0.9287 0.0
O180 O 0.69488 1.00185 0.87621 0.0
O181 O 0.73383 0.92045 0.85804 0.0
O182 O 0.74379 0.95057 0.83745 0.0
O183 O 0.72615 0.98755 0.85744 0.0
C184 C 0.66144 1.00642 0.97635 0.0
C185 C 0.64273 0.99259 -0.02186 0.0
C186 C 0.65844 1.01403 0.02519 0.0
C187 C 0.63199 0.98953 0.00323 0.0
C188 C 0.66906 1.01724 4e-05 0.0
C189 C 0.63981 1.00006 0.02713 0.0
C190 C 0.67355 1.00933 0.95028 0.0
C191 C 0.74986 0.97795 0.92379 0.0
H192 H 0.78235 0.95034 0.81681 0.0
H193 H 0.80275 0.87962 0.8618 0.0
H194 H 0.82079 0.93864 0.81682 0.0
H195 H 0.7641 0.89122 0.86166 0.0
H196 H 0.63641 0.98402 0.96023 0.0
H197 H 0.66509 1.0222 0.04319 0.0
H198 H 0.61745 0.97899 0.00383 0.0
H199 H 0.68346 1.02799 -0.00083 0.0
Eu200 Eu 0.48959 0.48402 0.6244 0.0
Eu201 Eu 0.45791 0.45626 0.66652 0.0
C202 C 0.43909 0.47221 0.60785 0.0
C203 C 0.53902 0.50152 0.58081 0.0
C204 C 0.55407 0.51817 0.58849 0.0
C205 C 0.56864 0.4825 0.55657 0.0
C206 C 0.57613 0.51707 0.58025 0.0
C207 C 0.54655 0.4835 0.56503 0.0
C208 C 0.58359 0.4994 0.5639 0.0
C209 C 0.5156 0.50351 0.58911 0.0
O210 O 0.48752 0.43368 0.65911 0.0
O211 O 0.49951 0.44807 0.6184 0.0
C212 C 0.50036 0.4326 0.63732 0.0
O213 O 0.51173 0.47744 0.66083 0.0
O214 O 0.44587 0.42406 0.6807 0.0
O215 O 0.43168 0.45415 0.69716 0.0
O216 O 0.48556 0.4682 0.69335 0.0
C217 C 0.50577 0.47408 0.68648 0.0
O218 O 0.47825 0.51063 0.65377 0.0
O219 O 0.45143 0.49224 0.67862 0.0
O220 O 0.4398 0.45609 0.62585 0.0
O221 O 0.50223 0.48726 0.58266 0.0
O222 O 0.51201 0.51104 0.61379 0.0
O223 O 0.45494 0.48715 0.60693 0.0
C224 C 0.43533 0.4236 0.7271 0.0
C225 C 0.44695 0.43525 0.74754 0.0
C226 C 0.43002 0.39296 0.75863 0.0
C227 C 0.45002 0.4258 0.77341 0.0
C228 C 0.42676 0.4025 0.7329 0.0
C229 C 0.44182 0.40445 0.77906 0.0
C230 C 0.43299 0.43265 0.6993 0.0
C231 C 0.46291 0.51035 0.67293 0.0
H232 H 0.5487 0.5323 0.60049 0.0
H233 H 0.57397 0.46872 0.54393 0.0
H234 H 0.58712 0.53061 0.58572 0.0
H235 H 0.53536 0.47034 0.55885 0.0
H236 H 0.45395 0.45147 0.74339 0.0
H237 H 0.42338 0.37655 0.76254 0.0
H238 H 0.45937 0.43489 0.7887 0.0
H239 H 0.41783 0.39326 0.71735 0.0
Eu240 Eu 0.95602 0.25246 0.37175 0.0
Eu241 Eu 0.98362 0.22102 0.41412 0.0
C242 C 0.96742 0.20187 0.3559 0.0
C243 C 0.94128 0.30043 0.32507 0.0
C244 C 0.93999 0.31848 0.34333 0.0
C245 C 0.9475 0.32611 0.28755 0.0
C246 C 0.94177 0.34019 0.33358 0.0
C247 C 0.94548 0.30442 0.29724 0.0
C248 C 0.94515 0.3442 0.30553 0.0
C249 C 0.93803 0.27745 0.33453 0.0
O250 O 1.00722 0.2499 0.40664 0.0
O251 O 0.9919 0.26347 0.36723 0.0
C252 C 1.00777 0.26361 0.38568 0.0
O253 O 0.96125 0.27514 0.40804 0.0
O254 O 1.01468 0.2057 0.42649 0.0
O255 O 0.98423 0.19651 0.4469 0.0
O256 O 0.97646 0.25106 0.43966 0.0
C257 C 0.96851 0.27053 0.4328 0.0
O258 O 0.92908 0.24182 0.40099 0.0
O259 O 0.94752 0.21553 0.42637 0.0
O260 O 0.98396 0.20324 0.37316 0.0
O261 O 0.95407 0.26367 0.32927 0.0
O262 O 0.92978 0.27475 0.35904 0.0
O263 O 0.95221 0.2173 0.35566 0.0
C264 C 1.01652 0.19738 0.47347 0.0
C265 C 1.01522 0.21749 0.48786 0.0
C266 C 1.03866 0.18194 0.51012 0.0
C267 C 1.02564 0.21984 0.51325 0.0
C268 C 1.02821 0.17962 0.48473 0.0
C269 C 1.03756 0.20211 0.52464 0.0
C270 C 1.0057 0.19485 0.44677 0.0
C271 C 0.92945 0.22682 0.42052 0.0
H272 H 0.93709 0.31589 0.36501 0.0
H273 H 0.94976 0.32872 0.26575 0.0
H274 H 0.93993 0.35386 0.34784 0.0
H275 H 0.94665 0.29076 0.28285 0.0
H276 H 1.00616 0.23135 0.47944 0.0
H277 H 1.04795 0.16809 0.51813 0.0
H278 H 1.02425 0.23549 0.52404 0.0
H279 H 1.02937 0.164 0.47381 0.0
Eu280 Eu 0.18801 0.71725 0.12088 0.0
Eu281 Eu 0.22073 0.74439 0.16188 0.0
C282 C 0.23836 0.72779 0.10374 0.0
C283 C 0.16471 0.6717 0.07704 0.0
C284 C 0.14864 0.66359 0.05903 0.0
C285 C 0.17935 0.63452 0.08229 0.0
C286 C 0.14776 0.64099 0.05284 0.0
C287 C 0.18021 0.65714 0.08845 0.0
C288 C 0.16291 0.62617 0.06471 0.0
C289 C 0.16439 0.69501 0.08542 0.0
O290 O 0.19154 0.76749 0.15504 0.0
O291 O 0.17961 0.75351 0.11403 0.0
C292 C 0.1788 0.76888 0.13323 0.0
O293 O 0.16686 0.72223 0.15873 0.0
O294 O 0.23689 0.77558 0.17273 0.0
O295 O 0.24574 0.74549 0.19404 0.0
O296 O 0.19208 0.73688 0.18941 0.0
C297 C 0.17238 0.72899 0.1835 0.0
O298 O 0.19829 0.69053 0.15028 0.0
O299 O 0.22686 0.70805 0.17285 0.0
O300 O 0.23707 0.74487 0.12023 0.0
O301 O 0.15838 0.69837 0.11071 0.0
O302 O 0.18166 0.70683 0.07867 0.0
O303 O 0.2231 0.71227 0.10486 0.0
C304 C 0.24487 0.77829 0.21965 0.0
C305 C 0.22366 0.78121 0.23073 0.0
C306 C 0.26078 0.79649 0.25939 0.0
C307 C 0.221 0.79187 0.25592 0.0
C308 C 0.26341 0.78585 0.23411 0.0
C309 C 0.23953 0.79972 0.27044 0.0
C310 C 0.2476 0.767 0.19329 0.0
C311 C 0.21437 0.69036 0.16836 0.0
H312 H 0.13656 0.67465 0.05012 0.0
H313 H 0.19114 0.6235 0.09186 0.0
H314 H 0.13517 0.63511 0.0388 0.0
H315 H 0.19267 0.66321 0.10257 0.0
H316 H 0.20918 0.77527 0.21986 0.0
H317 H 0.27531 0.80256 0.27002 0.0
H318 H 0.20446 0.79387 0.2641 0.0
H319 H 0.27989 0.78361 0.22581 0.0
Eu320 Eu 0.98095 0.71472 0.53291 0.0
Eu321 Eu 0.95386 0.74582 0.57579 0.0
C322 C 0.96591 0.76424 0.51483 0.0
C323 C 1.01483 0.69305 0.47335 0.0
C324 C 1.01835 0.71466 0.46364 0.0
C325 C 1.03287 0.67835 0.43281 0.0
C326 C 1.02927 0.71811 0.43875 0.0
C327 C 1.02202 0.67493 0.45779 0.0
C328 C 1.03672 0.69998 0.42311 0.0
C329 C 1.00339 0.68937 0.49947 0.0
O330 O 0.927 0.73602 0.54605 0.0
O331 O 0.94471 0.70816 0.52235 0.0
C332 C 0.92698 0.72026 0.52736 0.0
O333 O 0.98172 0.69686 0.57368 0.0
O334 O 0.94641 0.75073 0.61891 0.0
O335 O 0.9321 0.77282 0.58875 0.0
O336 O 0.94927 0.71017 0.58988 0.0
C337 C 0.96492 0.6952 0.59054 0.0
O338 O 1.00415 0.7438 0.54112 0.0
O339 O 0.99005 0.75471 0.58249 0.0
O340 O 0.96023 0.76909 0.54024 0.0
O341 O 1.01199 0.6992 0.5208 0.0
O342 O 0.98196 0.69129 0.49878 0.0
O343 O 0.97249 0.74436 0.50743 0.0
C344 C 0.9402 0.78771 0.63256 0.0
C345 C 0.92317 0.80217 0.63988 0.0
C346 C 0.96502 0.80717 0.66365 0.0
C347 C 0.92684 0.81873 0.65934 0.0
C348 C 0.96136 0.79065 0.64397 0.0
C349 C 0.94765 0.82108 0.67193 0.0
C350 C 0.93506 0.76874 0.61472 0.0
C351 C 1.00546 0.75604 0.56345 0.0
H352 H 1.01269 0.72885 0.47535 0.0
H353 H 1.03863 0.66408 0.42135 0.0
H354 H 1.03175 0.73495 0.43164 0.0
H355 H 1.01934 0.65815 0.46501 0.0
H356 H 0.90675 0.80011 0.63131 0.0
H357 H 0.98123 0.80869 0.6729 0.0
H358 H 0.91299 0.82892 0.66557 0.0
H359 H 0.97483 0.77974 0.63839 0.0
Eu360 Eu 0.22001 0.24238 0.78412 0.0
Eu361 Eu 0.19121 0.21216 0.82583 0.0
C362 C 0.17207 0.22509 0.76572 0.0
C363 C 0.24172 0.28153 0.72918 0.0
C364 C 0.2203 0.28721 0.7209 0.0
C365 C 0.25682 0.3007 0.68971 0.0
C366 C 0.21713 0.29945 0.69696 0.0
C367 C 0.25995 0.2885 0.71367 0.0
C368 C 0.23536 0.30608 0.6809 0.0
C369 C 0.24514 0.26672 0.75248 0.0
O370 O 0.21121 0.18747 0.80073 0.0
O371 O 0.21863 0.20884 0.76312 0.0
C372 C 0.21673 0.18925 0.77469 0.0
O373 O 0.24324 0.23 0.8169 0.0
O374 O 0.16166 0.19525 0.84132 0.0
O375 O 0.19284 0.19198 0.86266 0.0
O376 O 0.21806 0.22909 0.85101 0.0
C377 C 0.23877 0.22976 0.84311 0.0
O378 O 0.19551 0.2671 0.80276 0.0
O379 O 0.17264 0.24461 0.82858 0.0
O380 O 0.17251 0.21033 0.78561 0.0
O381 O 0.23769 0.27341 0.77623 0.0
O382 O 0.24053 0.24595 0.74774 0.0
O383 O 0.18701 0.24087 0.76356 0.0
C384 C 0.16994 0.16036 0.86185 0.0
C385 C 0.18165 0.14866 0.88195 0.0
C386 C 0.1541 0.12554 0.84575 0.0
C387 C 0.17968 0.12568 0.88392 0.0
C388 C 0.15626 0.14858 0.84357 0.0
C389 C 0.16574 0.1139 0.86603 0.0
C390 C 0.17263 0.18467 0.86021 0.0
C391 C 0.17744 0.26404 0.81768 0.0
H392 H 0.20604 0.28178 0.73264 0.0
H393 H 0.27117 0.30528 0.67763 0.0
H394 H 0.20042 0.30358 0.69091 0.0
H395 H 0.27657 0.28398 0.71969 0.0
H396 H 0.19225 0.15735 0.89634 0.0
H397 H 0.1432 0.11683 0.83175 0.0
H398 H 0.18849 0.11722 0.90012 0.0
H399 H 0.14711 0.15712 0.82774 0.0
Eu400 Eu 0.69422 0.48193 0.03471 0.0
Eu401 Eu 0.7229 0.45009 0.07527 0.0
C402 C 0.71014 0.43367 0.01337 0.0
C403 C 0.6611 0.50757 0.97657 0.0
C404 C 0.66705 0.49081 0.958 0.0
C405 C 0.63494 0.52188 0.94352 0.0
C406 C 0.65692 0.48956 0.93229 0.0
C407 C 0.64514 0.52316 0.96914 0.0
C408 C 0.64057 0.50495 0.92491 0.0
C409 C 0.67086 0.50853 0.00405 0.0
O410 O 0.74944 0.46228 0.04648 0.0
O411 O 0.72982 0.4869 0.0199 0.0
C412 C 0.74836 0.47654 0.02617 0.0
O413 O 0.69447 0.49875 0.07624 0.0
O414 O 0.74618 0.42383 0.08491 0.0
O415 O 0.72951 0.44126 0.11783 0.0
O416 O 0.7271 0.48522 0.09152 0.0
C417 C 0.71155 0.50028 0.09261 0.0
O418 O 0.67142 0.45248 0.0425 0.0
O419 O 0.68715 0.43941 0.08192 0.0
O420 O 0.71727 0.4284 0.03801 0.0
O421 O 0.66227 0.49511 0.0221 0.0
O422 O 0.69239 0.50897 0.00518 0.0
O423 O 0.70206 0.45325 0.00739 0.0
C424 C 0.76642 0.4306 0.12479 0.0
C425 C 0.77848 0.4503 0.12087 0.0
C426 C 0.79643 0.41585 0.1518 0.0
C427 C 0.79957 0.45269 0.13226 0.0
C428 C 0.77538 0.41351 0.14049 0.0
C429 C 0.80887 0.43534 0.14749 0.0
C430 C 0.74508 0.4273 0.11124 0.0
C431 C 0.67113 0.43895 0.06365 0.0
H432 H 0.6793 0.47855 0.96353 0.0
H433 H 0.6226 0.53412 0.93828 0.0
H434 H 0.66143 0.47621 0.9185 0.0
H435 H 0.64039 0.53619 -0.01673 0.0
H436 H 0.77176 0.46361 0.10859 0.0
H437 H 0.80302 0.40236 0.16387 0.0
H438 H 0.80881 0.46782 0.12853 0.0
H439 H 0.76624 0.39822 0.14365 0.0
Eu440 Eu 0.45608 0.95473 0.28398 0.0
Eu441 Eu 0.48551 0.98265 0.32729 0.0
C442 C 0.50536 0.97149 0.26672 0.0
C443 C 0.43313 0.92361 0.22233 0.0
C444 C 0.44326 0.93614 0.20147 0.0
C445 C 0.42937 0.89269 0.19075 0.0
C446 C 0.44637 0.92698 0.17541 0.0
C447 C 0.42604 0.90193 0.2167 0.0
C448 C 0.43971 0.90507 0.16993 0.0
C449 C 0.43077 0.93243 0.25032 0.0
O450 O 0.47626 1.01001 0.29817 0.0
O451 O 0.45188 0.99083 0.27047 0.0
C452 C 0.46251 1.00926 0.27729 0.0
O453 O 0.43847 0.9532 0.325 0.0
O454 O 0.48781 0.98916 0.37106 0.0
O455 O 0.51152 1.00431 0.34326 0.0
O456 O 0.44932 0.98726 0.33841 0.0
C457 C 0.43526 0.97077 0.34024 0.0
O458 O 0.48495 0.93175 0.29209 0.0
O459 O 0.49617 0.94669 0.33289 0.0
O460 O 0.50902 0.9796 0.29142 0.0
O461 O 0.44303 0.92313 0.26895 0.0
O462 O 0.43015 0.95394 0.25298 0.0
O463 O 0.48656 0.96214 0.25945 0.0
C464 C 0.52381 0.99437 0.38799 0.0
C465 C 0.51922 0.99478 0.41616 0.0
C466 C 0.56162 0.9835 0.398 0.0
C467 C 0.53568 0.98985 0.43512 0.0
C468 C 0.54502 0.98825 0.37896 0.0
C469 C 0.55716 0.98457 0.42629 0.0
C470 C 0.50613 1.0005 0.36877 0.0
C471 C 0.49754 0.93108 0.31402 0.0
H472 H 0.4491 0.95285 0.20541 0.0
H473 H 0.42392 0.87582 0.18698 0.0
H474 H 0.45458 0.93677 0.15979 0.0
H475 H 0.41825 0.892 0.23253 0.0
H476 H 0.50296 0.99939 0.42355 0.0
H477 H 0.57804 0.97948 0.39067 0.0
H478 H 0.53183 0.99126 0.45675 0.0
H479 H 0.54891 0.98753 0.35729 0.0
Eu480 Eu 0.22154 0.45244 0.37575 0.0
Eu481 Eu 0.1956 0.48597 0.41757 0.0
C482 C 0.20986 0.50262 0.35683 0.0
C483 C 0.2544 0.40434 0.34628 0.0
C484 C 0.27757 0.40572 0.34772 0.0
C485 C 0.25685 0.36424 0.35104 0.0
C486 C 0.29023 0.38658 0.35071 0.0
C487 C 0.24417 0.38338 0.34806 0.0
C488 C 0.28003 0.36561 0.35218 0.0
C489 C 0.24102 0.4246 0.3427 0.0
O490 O 0.17218 0.45681 0.41058 0.0
O491 O 0.18483 0.44724 0.36823 0.0
C492 C 0.17008 0.44514 0.38791 0.0
O493 O 0.21791 0.43195 0.41429 0.0
O494 O 0.16494 0.50231 0.42991 0.0
O495 O 0.19571 0.51077 0.4501 0.0
O496 O 0.20192 0.45674 0.44456 0.0
C497 C 0.21029 0.43721 0.43877 0.0
O498 O 0.24709 0.45974 0.40828 0.0
O499 O 0.23225 0.49137 0.42698 0.0
O500 O 0.19481 0.50309 0.37625 0.0
O501 O 0.2202 0.42321 0.34951 0.0
O502 O 0.24991 0.44335 0.35043 0.0
O503 O 0.224 0.48618 0.35526 0.0
C504 C 0.16332 0.51109 0.47692 0.0
C505 C 0.16895 0.49407 0.4952 0.0
C506 C 0.13609 0.5245 0.50947 0.0
C507 C 0.15824 0.49233 0.52054 0.0
C508 C 0.14689 0.52629 0.48421 0.0
C509 C 0.14162 0.50747 0.52788 0.0
C510 C 0.17427 0.51297 0.45013 0.0
C511 C 0.24862 0.47705 0.42462 0.0
H512 H 0.28598 0.42157 0.34617 0.0
H513 H 0.24851 0.34833 0.35218 0.0
H514 H 0.30808 0.38817 0.35092 0.0
H515 H 0.22635 0.38172 0.34693 0.0
H516 H 0.18153 0.48208 0.48982 0.0
H517 H 0.1235 0.53652 0.51467 0.0
H518 H 0.16266 0.47889 0.53415 0.0
H519 H 0.14237 0.53952 0.47033 0.0
Eu520 Eu 0.98886 0.98378 0.12522 0.0
Eu521 Eu 0.95782 0.95565 0.16743 0.0
C522 C 0.93838 0.97216 0.10989 0.0
C523 C 1.03331 0.99966 0.07276 0.0
C524 C 1.04572 1.01796 0.06406 0.0
C525 C 1.05942 0.97507 0.0502 0.0
C526 C 1.06468 1.01492 0.04823 0.0
C527 C 1.04044 0.97814 0.06619 0.0
C528 C 1.07159 0.99347 0.04079 0.0
C529 C 1.01259 1.00348 0.08769 0.0
O530 O 0.98771 0.93361 0.15981 0.0
O531 O 0.99854 0.94778 0.11853 0.0
C532 C 1.00005 0.93246 0.13761 0.0
O533 O 1.01134 0.97791 0.16151 0.0
O534 O 0.94586 0.92328 0.18115 0.0
O535 O 0.93187 0.95318 0.19843 0.0
O536 O 0.98558 0.96757 0.19408 0.0
C537 C 1.00559 0.97406 0.18714 0.0
O538 O 0.97747 1.01052 0.15436 0.0
O539 O 0.95119 0.9916 0.17961 0.0
O540 O 0.93993 0.95525 0.12661 0.0
O541 O 0.99627 0.98993 0.08227 0.0
O542 O 1.0143 1.00792 0.11377 0.0
O543 O 0.95354 0.98777 0.11032 0.0
C544 C 0.93542 0.92206 0.22762 0.0
C545 C 0.94616 0.93368 0.24881 0.0
C546 C 0.93068 0.89055 0.25797 0.0
C547 C 0.94908 0.92378 0.27445 0.0
C548 C 0.92757 0.90053 0.23246 0.0
C549 C 0.94158 0.90202 0.27916 0.0
C550 C 0.93312 0.93165 0.20005 0.0
C551 C 0.96228 1.00994 0.17372 0.0
H552 H 1.04042 1.03466 0.06893 0.0
H553 H 1.06441 0.95837 0.0449 0.0
H554 H 1.07341 1.02947 0.04089 0.0
H555 H 1.03108 0.96379 0.0729 0.0
H556 H 0.95259 0.95026 0.24543 0.0
H557 H 0.92457 0.87383 0.26112 0.0
H558 H 0.95773 0.93289 0.29035 0.0
H559 H 0.9193 0.8913 0.21635 0.0
Eu560 Eu 0.45665 0.75098 0.87221 0.0
Eu561 Eu 0.48372 0.72079 0.91528 0.0
C562 C 0.46782 0.7005 0.8585 0.0
C563 C 0.44496 0.79246 0.81502 0.0
C564 C 0.44577 0.79006 0.78644 0.0
C565 C 0.45376 0.83163 0.81006 0.0
C566 C 0.45025 0.8083 0.76977 0.0
C567 C 0.44948 0.81329 0.8268 0.0
C568 C 0.45383 0.82936 0.78136 0.0
C569 C 0.4392 0.77301 0.83183 0.0
O570 O 0.50672 0.75008 0.90776 0.0
O571 O 0.49281 0.76078 0.86639 0.0
C572 C 0.50804 0.76237 0.88557 0.0
O573 O 0.4621 0.77469 0.90754 0.0
O574 O 0.51524 0.70767 0.92969 0.0
O575 O 0.48457 0.69526 0.94683 0.0
O576 O 0.47418 0.75027 0.94067 0.0
C577 C 0.46748 0.77004 0.93306 0.0
O578 O 0.42935 0.74136 0.90156 0.0
O579 O 0.44752 0.71474 0.92671 0.0
O580 O 0.48515 0.70323 0.87421 0.0
O581 O 0.45173 0.75566 0.82841 0.0
O582 O 0.434 0.77635 0.85751 0.0
O583 O 0.45175 0.71494 0.85989 0.0
C584 C 0.51533 0.69832 0.97648 0.0
C585 C 0.50407 0.71035 -0.00315 0.0
C586 C 0.54585 0.69282 0.00792 0.0
C587 C 0.51363 0.71349 0.02266 0.0
C588 C 0.53619 0.68948 -0.01775 0.0
C589 C 0.53472 0.70495 0.02831 0.0
C590 C 0.50606 0.69568 0.94881 0.0
C591 C 0.42951 0.72618 0.92092 0.0
H592 H 0.44242 0.77413 0.77695 0.0
H593 H 0.45649 0.84768 0.8195 0.0
H594 H 0.44978 0.80609 0.74773 0.0
H595 H 0.44926 0.81552 0.84884 0.0
H596 H 0.48804 0.71756 -0.00727 0.0
H597 H 0.56205 0.68593 0.01184 0.0
H598 H 0.50482 0.7231 0.03792 0.0
H599 H 0.54514 0.68024 0.96676 0.0
Eu600 Eu 0.68833 0.21767 0.62158 0.0
Eu601 Eu 0.72089 0.24475 0.66315 0.0
C602 C 0.73864 0.22969 0.60406 0.0
C603 C 0.65719 0.17213 0.58561 0.0
C604 C 0.64198 0.165 0.56589 0.0
C605 C 0.66059 0.13436 0.60218 0.0
C606 C 0.6362 0.14258 0.56415 0.0
C607 C 0.66632 0.15676 0.6039 0.0
C608 C 0.6456 0.127 0.58214 0.0
C609 C 0.66408 0.19543 0.58666 0.0
O610 O 0.69142 0.26743 0.65623 0.0
O611 O 0.68064 0.25405 0.6145 0.0
C612 C 0.67917 0.26907 0.63405 0.0
O613 O 0.66889 0.21795 0.6613 0.0
O614 O 0.73749 0.27568 0.67416 0.0
O615 O 0.74485 0.24562 0.69648 0.0
O616 O 0.69152 0.23847 0.68995 0.0
C617 C 0.67322 0.22732 0.68513 0.0
O618 O 0.69773 0.19126 0.65195 0.0
O619 O 0.72709 0.20829 0.67342 0.0
O620 O 0.73787 0.24594 0.62186 0.0
O621 O 0.65587 0.20712 0.60667 0.0
O622 O 0.68521 0.19891 0.58356 0.0
O623 O 0.72307 0.21447 0.60392 0.0
C624 C 0.74406 0.27873 0.72145 0.0
C625 C 0.72263 0.28237 0.73147 0.0
C626 C 0.75928 0.29636 0.76198 0.0
C627 C 0.71952 0.29308 0.75655 0.0
C628 C 0.76236 0.28568 0.73681 0.0
C629 C 0.73782 0.30025 0.77204 0.0
C630 C 0.7473 0.26708 0.69541 0.0
C631 C 0.71412 0.19086 0.66959 0.0
H632 H 0.63486 0.17667 0.55158 0.0
H633 H 0.66795 0.1228 0.61644 0.0
H634 H 0.62485 0.13737 0.54821 0.0
H635 H 0.67812 0.16205 0.61924 0.0
H636 H 0.70832 0.27688 0.71991 0.0
H637 H 0.77366 0.30191 0.77334 0.0
H638 H 0.70281 0.29559 0.76394 0.0
H639 H 0.779 0.28285 0.72935 0.0
C640 C 0.54136 0.2782 0.04357 0.0
C641 C 0.52583 0.27564 0.06493 0.0
C642 C 0.55725 0.29539 0.04413 0.0
C643 C 0.5836 0.33814 0.09085 0.0
H644 H 0.60123 0.36529 0.02225 0.0
C645 C 0.65427 0.40465 0.0857 0.0
C646 C 0.65329 0.42147 0.06571 0.0
C647 C 0.63877 0.38713 0.08609 0.0
C648 C 0.59641 0.35817 0.04173 0.0
H649 H 0.51528 0.28953 0.10383 0.0
H650 H 0.5425 0.31937 0.10468 0.0
H651 H 0.57477 0.3348 0.02208 0.0
H652 H 0.63454 0.43287 0.03065 0.0
H653 H 0.60734 0.40291 0.03174 0.0
H654 H 0.6047 0.36197 0.11057 0.0
C655 C 0.54281 0.30789 0.08759 0.0
C656 C 0.58135 0.34025 0.04159 0.0
C657 C 0.527 0.29067 0.08707 0.0
C658 C 0.63597 0.42035 0.04643 0.0
C659 C 0.6204 0.40289 0.04689 0.0
C660 C 0.5986 0.3561 0.09099 0.0
C661 C 0.55815 0.31077 0.06601 0.0
C662 C 0.57462 0.32985 0.06615 0.0
C663 C 0.6216 0.38576 0.06655 0.0
C664 C 0.60532 0.36652 0.06644 0.0
H665 H 0.54107 0.2671 0.02609 0.0
H666 H 0.56887 0.29657 0.02729 0.0
H667 H 0.57924 0.33062 0.11026 0.0
H668 H 0.66741 0.40467 0.10077 0.0
H669 H 0.64069 0.37431 0.10139 0.0
C670 C 0.65807 0.80253 0.2974 0.0
C671 C 0.65942 0.78569 0.31733 0.0
C672 C 0.64096 0.81834 0.29803 0.0
C673 C 0.59609 0.84222 0.34323 0.0
H674 H 0.5727 0.86313 0.27411 0.0
C675 C 0.53068 0.91362 0.33764 0.0
C676 C 0.51484 0.91324 0.31645 0.0
C677 C 0.54802 0.89806 0.33846 0.0
C678 C 0.57877 0.8574 0.29371 0.0
H679 H 0.64347 0.77276 0.35383 0.0
H680 H 0.61377 0.79998 0.35483 0.0
H681 H 0.60286 0.8366 0.2743 0.0
H682 H 0.50503 0.89553 0.27967 0.0
H683 H 0.53467 0.86833 0.28139 0.0
H684 H 0.57158 0.86261 0.36262 0.0
C685 C 0.62611 0.80127 0.33881 0.0
C686 C 0.59648 0.84228 0.29382 0.0
C687 C 0.64325 0.78549 0.3382 0.0
C688 C 0.51677 0.8965 0.29638 0.0
C689 C 0.53406 0.88092 0.29723 0.0
C690 C 0.57835 0.85734 0.34312 0.0
C691 C 0.62447 0.8179 0.31857 0.0
C692 C 0.60553 0.83436 0.31857 0.0
C693 C 0.5502 0.8815 0.31811 0.0
C694 C 0.56928 0.86522 0.31835 0.0
H695 H 0.67009 0.80337 0.28094 0.0
H696 H 0.64076 0.83097 0.2823 0.0
H697 H 0.60255 0.83688 0.36281 0.0
H698 H 0.53003 0.92632 0.35337 0.0
H699 H 0.56008 0.89946 0.35475 0.0
C700 C 0.1345 0.91694 0.54763 0.0
C701 C 0.1513 0.91856 0.56755 0.0
C702 C 0.1188 0.89963 0.54827 0.0
C703 C 1.09521 0.85443 0.59332 0.0
H704 H 1.07415 0.83097 0.52407 0.0
C705 C 1.02353 0.78888 0.58743 0.0
C706 C 1.02358 0.77315 0.566 0.0
C707 C 1.03928 0.80617 0.58838 0.0
C708 C 1.07994 0.83704 0.5437 0.0
H709 H 0.16429 0.90287 0.60404 0.0
H710 H 0.13725 0.87271 0.60502 0.0
H711 H 0.10073 0.86131 0.52441 0.0
H712 H 1.04094 0.76337 0.52901 0.0
H713 H 1.06854 0.79291 0.53098 0.0
H714 H 1.07485 0.82969 0.61258 0.0
C715 C 0.13591 0.88504 0.58902 0.0
C716 C 1.09506 0.85486 0.5439 0.0
C717 C 0.15158 0.90243 0.58843 0.0
C718 C 1.04023 0.77506 0.54587 0.0
C719 C 1.05603 0.79228 0.54687 0.0
C720 C 1.08009 0.83655 0.59312 0.0
C721 C 0.11933 0.88315 0.56878 0.0
C722 C 0.103 0.86398 0.5687 0.0
C723 C 1.05573 0.80837 0.56795 0.0
C724 C 1.07214 0.82747 0.56829 0.0
H725 H 0.1336 0.92895 0.53119 0.0
H726 H 0.10618 0.89925 0.53257 0.0
H727 H 0.10057 0.86092 0.61293 0.0
H728 H 1.01092 0.78823 0.60322 0.0
H729 H 1.0381 0.8182 0.60481 0.0
C730 C 1.03229 0.41073 0.83947 0.0
C731 C 1.01847 0.41244 0.81631 0.0
C732 C 1.04947 0.395 0.84053 0.0
C733 C 1.0848 0.35889 0.7954 0.0
H734 H 0.09973 0.32973 0.86358 0.0
C735 C 0.16271 0.30208 0.80462 0.0
C736 C 0.16081 0.28253 0.82029 0.0
C737 C 0.14592 0.31827 0.80491 0.0
C738 C 1.0958 0.33757 0.84425 0.0
H739 H 1.01221 0.39839 0.7761 0.0
H740 H 1.04178 0.37102 0.77802 0.0
H741 H 1.06928 0.35615 0.86239 0.0
H742 H 0.13942 0.26524 0.84898 0.0
H743 H 0.11048 0.29326 0.84957 0.0
H744 H 0.11109 0.34008 0.77715 0.0
C745 C 1.03956 0.38202 0.79538 0.0
C746 C 1.07836 0.35302 0.84363 0.0
C747 C 1.02233 0.39768 0.79437 0.0
C748 C 0.14173 0.28003 0.83673 0.0
C749 C 0.12503 0.29626 0.83713 0.0
C750 C 0.10232 0.34354 0.79605 0.0
C751 C 1.05358 0.38044 0.8184 0.0
C752 C 1.07244 0.36394 0.81916 0.0
C753 C 0.12663 0.31558 0.82097 0.0
C754 C 0.10814 0.3325 0.82046 0.0
H755 H 1.0301 0.42183 0.85674 0.0
H756 H 1.0599 0.39465 0.85854 0.0
H757 H 1.08113 0.367 0.77616 0.0
H758 H 0.17697 0.3047 0.79155 0.0
H759 H 0.14811 0.33295 0.79243 0.0
C760 C 0.63727 0.92327 0.90339 0.0
C761 C 0.65408 0.92501 0.88341 0.0
C762 C 0.62148 0.90604 0.90249 0.0
C763 C 0.59763 0.86126 0.85679 0.0
H764 H 0.57656 0.83736 0.92577 0.0
C765 C 0.52593 0.79554 0.86205 0.0
C766 C 0.52603 0.77966 0.88323 0.0
C767 C 0.54164 0.8129 0.86129 0.0
C768 C 0.58234 0.84356 0.90621 0.0
H769 H 0.66695 0.90961 0.84653 0.0
H770 H 0.63973 0.8796 0.84509 0.0
H771 H 0.60321 0.86764 0.92577 0.0
H772 H 0.54343 0.76973 0.92001 0.0
H773 H 0.57092 0.79938 0.91836 0.0
H774 H 0.57718 0.83671 0.83726 0.0
C775 C 0.63847 0.89178 0.86135 0.0
C776 C 0.59752 0.86135 0.9062 0.0
C777 C 0.65424 0.90908 0.8622 0.0
C778 C 0.54267 0.78153 0.90333 0.0
C779 C 0.55841 0.79882 0.90252 0.0
C780 C 0.58246 0.84341 0.85679 0.0
C781 C 0.6219 0.88974 0.88167 0.0
C782 C 0.60548 0.87062 0.88151 0.0
C783 C 0.55809 0.81503 0.88167 0.0
C784 C 0.5745 0.83417 0.88152 0.0
H785 H 0.63644 0.93511 0.92008 0.0
H786 H 0.60887 0.90557 0.91827 0.0
H787 H 0.60301 0.86786 0.83725 0.0
H788 H 0.51333 0.79493 0.84631 0.0
H789 H 0.54043 0.82502 0.84503 0.0
C790 C 0.51907 0.39773 0.6549 0.0
C791 C 0.51755 0.41465 0.63511 0.0
C792 C 0.53623 0.38198 0.65396 0.0
C793 C 0.58095 0.35877 0.60791 0.0
H794 H 0.60447 0.3366 0.67635 0.0
C795 C 0.64629 0.28736 0.61097 0.0
C796 C 0.66203 0.28709 0.63226 0.0
C797 C 0.62902 0.303 0.61073 0.0
C798 C 0.59837 0.34271 0.65694 0.0
H799 H 0.53333 0.42793 0.59866 0.0
H800 H 0.56314 0.40092 0.59722 0.0
H801 H 0.57433 0.36315 0.67701 0.0
H802 H 0.67183 0.30376 0.66977 0.0
H803 H 0.64234 0.33116 0.669 0.0
H804 H 0.60544 0.33881 0.58787 0.0
C805 C 0.55086 0.39942 0.61329 0.0
C806 C 0.58066 0.35782 0.65731 0.0
C807 C 0.53366 0.41509 0.61417 0.0
C808 C 0.66014 0.30331 0.65298 0.0
C809 C 0.64294 0.31899 0.65268 0.0
C810 C 0.5987 0.3437 0.60754 0.0
C811 C 0.55262 0.38262 0.63328 0.0
C812 C 0.57156 0.36618 0.63281 0.0
C813 C 0.62684 0.31902 0.63173 0.0
C814 C 0.60781 0.33535 0.63205 0.0
H815 H 0.5071 0.39673 0.67139 0.0
H816 H 0.53654 0.36922 0.66953 0.0
H817 H 0.57445 0.36443 0.5885 0.0
H818 H 0.64694 0.2751 0.59475 0.0
H819 H 0.61699 0.30206 0.59435 0.0
C820 C 1.02503 0.29772 0.36373 0.0
C821 C 1.0257 0.28102 0.38391 0.0
C822 C 1.04058 0.31518 0.36344 0.0
C823 C 1.08233 0.34449 0.40824 0.0
H824 H 0.10036 0.37151 0.33971 0.0
C825 C 0.13624 0.42512 0.40665 0.0
C826 C 0.15211 0.42783 0.3857 0.0
C827 C 0.12069 0.40764 0.40588 0.0
C828 C 1.09576 0.36414 0.35913 0.0
H829 H 1.04391 0.26985 0.4195 0.0
H830 H 1.07123 0.29977 0.41862 0.0
H831 H 1.07506 0.34002 0.33929 0.0
H832 H 0.16365 0.41386 0.3473 0.0
H833 H 0.13694 0.38347 0.34606 0.0
H834 H 0.10353 0.36818 0.42804 0.0
C835 C 1.05838 0.29968 0.40319 0.0
C836 C 1.08085 0.34609 0.35891 0.0
C837 C 1.04275 0.28225 0.40354 0.0
C838 C 0.15163 0.41261 0.36372 0.0
C839 C 0.13614 0.39507 0.36299 0.0
C840 C 0.09728 0.36249 0.40846 0.0
C841 C 1.05749 0.31666 0.38329 0.0
C842 C 1.07379 0.33589 0.38347 0.0
C843 C 0.12047 0.39208 0.38419 0.0
C844 C 0.10429 0.37275 0.38391 0.0
H845 H 1.01209 0.29765 0.34839 0.0
H846 H 1.03889 0.3279 0.34796 0.0
H847 H 1.07727 0.33752 0.42771 0.0
H848 H 0.13598 0.43637 0.42398 0.0
H849 H 0.10879 0.40641 0.42241 0.0
C850 C 0.14571 0.78711 0.11059 0.0
C851 C 0.16177 0.78701 0.13152 0.0
C852 C 0.12854 0.80285 0.11042 0.0
C853 C 0.09879 0.84332 0.15647 0.0
H854 H 1.07377 0.86402 0.08814 0.0
C855 C 1.01933 0.89798 0.15525 0.0
C856 C 1.01732 0.91461 0.13515 0.0
C857 C 1.03655 0.88233 0.15418 0.0
C858 C 1.08058 0.85866 0.10752 0.0
H859 H 0.17223 0.8041 0.16846 0.0
H860 H 0.14289 0.83169 0.1678 0.0
H861 H 0.10477 0.8384 0.08735 0.0
H862 H 1.03226 0.92737 0.09793 0.0
H863 H 1.06225 0.90054 0.09623 0.0
H864 H 1.07507 0.86406 0.17665 0.0
C865 C 0.14318 0.8193 0.15172 0.0
C866 C 0.09834 0.84358 0.10706 0.0
C867 C 0.16029 0.80351 0.15195 0.0
C868 C 1.033 0.91481 0.11372 0.0
C869 C 1.05029 0.89923 0.1127 0.0
C870 C 1.08109 0.85844 0.15693 0.0
C871 C 0.12678 0.81915 0.13113 0.0
C872 C 0.10782 0.83557 0.13154 0.0
C873 C 1.05255 0.88276 0.13304 0.0
C874 C 1.07157 0.86641 0.13247 0.0
H875 H 0.14604 0.77464 0.0946 0.0
H876 H 0.11627 0.80176 0.09434 0.0
H877 H 0.10519 0.83751 0.17587 0.0
H878 H 1.00768 0.89714 0.17212 0.0
H879 H 1.03721 0.8698 0.17001 0.0
C880 C 0.25352 0.22611 0.89167 0.0
C881 C 0.25737 0.22937 0.86348 0.0
C882 C 0.27124 0.22494 0.91035 0.0
C883 C 0.33287 0.2162 0.91342 0.0
H884 H 0.32669 0.24007 -0.01321 0.0
C885 C 0.4034 0.20793 -0.00543 0.0
C886 C 0.40703 0.226 0.01238 0.0
C887 C 0.38469 0.20718 0.97736 0.0
C888 C 0.32887 0.23343 0.96633 0.0
H889 H 0.2832 0.23429 0.83315 0.0
H890 H 0.31375 0.23276 0.86543 0.0
H891 H 0.29565 0.24178 0.95516 0.0
H892 H 0.39335 0.25741 0.02586 0.0
H893 H 0.36131 0.25625 -0.00401 0.0
H894 H 0.36632 0.20852 0.92429 0.0
C895 C 0.29712 0.23057 0.87325 0.0
C896 C 0.31083 0.23415 0.94818 0.0
C897 C 0.27945 0.23165 0.85463 0.0
C898 C 0.39121 0.24309 0.01266 0.0
C899 C 0.3726 0.24237 -0.0045 0.0
C900 C 0.35093 0.21553 0.93155 0.0
C901 C 0.29339 0.22706 0.90145 0.0
C902 C 0.31252 0.22569 0.92129 0.0
C903 C 0.36901 0.22448 0.97738 0.0
C904 C 0.34934 0.22428 0.9583 0.0
H905 H 0.2368 0.22414 0.89932 0.0
H906 H 0.26752 0.22196 0.93175 0.0
H907 H 0.33492 0.20914 0.89315 0.0
H908 H 0.41516 0.19445 -0.00636 0.0
H909 H 0.38252 0.19293 0.96408 0.0
C910 C 0.72942 0.52001 0.13303 0.0
C911 C 0.71325 0.51943 0.11226 0.0
C912 C 0.73086 0.53806 0.15134 0.0
C913 C 0.71533 0.5976 0.15915 0.0
H914 H 0.72483 0.58758 0.23671 0.0
C915 C 0.72879 0.6707 0.23619 0.0
C916 C 0.71709 0.66954 0.26116 0.0
C917 C 0.72981 0.65229 0.21841 0.0
C918 C 0.72214 0.59073 0.21512 0.0
H919 H 0.68601 0.5378 0.09464 0.0
H920 H 0.68865 0.56914 0.1262 0.0
H921 H 0.72339 0.55603 0.20513 0.0
H922 H 0.69784 0.64753 0.28712 0.0
H923 H 0.69993 0.61555 0.25651 0.0
H924 H 0.71391 0.63227 0.16913 0.0
C925 C 0.70029 0.55566 0.12837 0.0
C926 C 0.7215 0.57259 0.19691 0.0
C927 C 0.69868 0.53753 0.11031 0.0
C928 C 0.70706 0.64916 0.26816 0.0
C929 C 0.70832 0.6307 0.25057 0.0
C930 C 0.71624 0.61576 0.17729 0.0
C931 C 0.71637 0.55625 0.14923 0.0
C932 C 0.71788 0.5757 0.16864 0.0
C933 C 0.71941 0.63203 0.22519 0.0
C934 C 0.71947 0.61263 0.20563 0.0
H935 H 0.74096 0.50644 0.13525 0.0
H936 H 0.74358 0.53792 0.16694 0.0
H937 H 0.71273 0.60078 0.13755 0.0
H938 H 0.73662 0.68607 0.22993 0.0
H939 H 0.73872 0.65396 0.19924 0.0
C940 C 0.41196 0.99094 0.3756 0.0
C941 C 0.4158 0.97197 0.35938 0.0
C942 C 0.39376 0.99198 0.39363 0.0
C943 C 0.35281 0.95594 0.43048 0.0
H944 H 0.32102 1.01095 0.44142 0.0
C945 C 0.28623 0.9641 0.51567 0.0
C946 C 0.26668 0.97584 0.50984 0.0
C947 C 0.30442 0.96467 0.49773 0.0
C948 C 0.32958 0.99539 0.43855 0.0
H949 H 0.40308 0.93924 0.34956 0.0
H950 H 0.3715 0.94107 0.38066 0.0
H951 H 0.35198 1.00965 0.40917 0.0
H952 H 0.2515 0.99788 0.48037 0.0
H953 H 0.28322 0.9989 0.4491 0.0
H954 H 0.33026 0.94156 0.45943 0.0
C955 C 0.38268 0.95512 0.37978 0.0
C956 C 0.34759 0.99469 0.42019 0.0
C957 C 0.40082 0.95411 0.36172 0.0
C958 C 0.26623 0.98873 0.48577 0.0
C959 C 0.28452 0.98932 0.46777 0.0
C960 C 0.3349 0.95666 0.44888 0.0
C961 C 0.37883 0.97405 0.39613 0.0
C962 C 0.35952 0.97493 0.4158 0.0
C963 C 0.3038 0.97698 0.47322 0.0
C964 C 0.32296 0.97639 0.45331 0.0
H965 H 0.42308 1.00504 0.37449 0.0
H966 H 0.39166 1.00675 0.406 0.0
H967 H 0.36158 0.94045 0.42806 0.0
H968 H 0.28743 0.95403 0.53396 0.0
H969 H 0.31902 0.95531 0.50312 0.0
C970 C 0.94792 0.67581 0.63171 0.0
C971 C 0.96369 0.67621 0.6104 0.0
C972 C 0.94704 0.6581 0.65048 0.0
C973 C 0.96343 0.59894 0.6593 0.0
H974 H 0.95447 0.61037 0.73677 0.0
C975 C 0.94962 0.52732 0.73774 0.0
C976 C 0.96116 0.52867 0.76278 0.0
C977 C 0.94893 0.54547 0.71967 0.0
C978 C 0.95704 0.60683 0.71523 0.0
H979 H 0.99083 0.65786 0.59231 0.0
H980 H 0.98916 0.62706 0.62468 0.0
H981 H 0.95552 0.64132 0.70442 0.0
H982 H 0.9806 0.55075 0.78843 0.0
H983 H 0.97906 0.58238 0.75724 0.0
H984 H 0.96507 0.56449 0.67007 0.0
C985 C 0.97739 0.64044 0.62691 0.0
C986 C 0.95745 0.62463 0.69658 0.0
C987 C 0.97843 0.65825 0.60836 0.0
C988 C 0.97144 0.549 0.76948 0.0
C989 C 0.97052 0.56723 0.75154 0.0
C990 C 0.96276 0.58114 0.67789 0.0
C991 C 0.96173 0.64007 0.64835 0.0
C992 C 0.96078 0.621 0.6683 0.0
C993 C 0.95954 0.56568 0.72613 0.0
C994 C 0.95967 0.58477 0.7062 0.0
H995 H 0.93629 0.68929 0.63405 0.0
H996 H 0.93461 0.6584 0.66649 0.0
H997 H 0.96583 0.59537 0.63773 0.0
H998 H 0.94161 0.51199 0.73165 0.0
H999 H 0.94008 0.54363 0.70051 0.0
C1000 C 0.79012 0.97058 0.9343 0.0
C1001 C 0.76997 0.98074 0.94153 0.0
C1002 C 0.8084 0.97111 0.95206 0.0
C1003 C 0.82313 0.97731 0.02569 0.0
H1004 H 0.88288 0.9845 -0.00198 0.0
C1005 C 0.90097 0.95917 0.0926 0.0
C1006 C 0.91917 0.97376 0.0905 0.0
C1007 C 0.88286 0.96081 0.07464 0.0
C1008 C 0.86632 0.98258 0.0062 0.0
H1009 H 0.75365 0.99966 0.97346 0.0
H1010 H 0.78547 1.00054 0.00443 0.0
H1011 H 0.85157 0.98672 0.96652 0.0
H1012 H 0.93232 1.00153 0.06738 0.0
H1013 H 0.90095 1.00424 0.03603 0.0
H1014 H 0.83788 0.97307 0.06536 0.0
C1015 C 0.7871 0.99209 -0.01508 0.0
C1016 C 0.8483 0.98367 -0.01198 0.0
C1017 C 0.76885 0.99178 0.96698 0.0
C1018 C 0.9187 0.98996 0.06973 0.0
C1019 C 0.90069 0.99145 0.05158 0.0
C1020 C 0.84116 0.97597 0.04382 0.0
C1021 C 0.80712 0.98159 0.97786 0.0
C1022 C 0.82639 0.98103 -0.00256 0.0
C1023 C 0.88241 0.97695 0.05378 0.0
C1024 C 0.86308 0.97857 0.03439 0.0
H1025 H 0.79171 0.9618 0.91499 0.0
H1026 H 0.82337 0.96266 0.94588 0.0
H1027 H 0.80659 0.97498 0.03378 0.0
H1028 H 0.90063 0.94647 0.10827 0.0
H1029 H 0.86929 0.94916 0.07689 0.0
C1030 C 0.44754 0.67745 0.82291 0.0
C1031 C 0.46635 0.681 0.83939 0.0
C1032 C 0.44621 0.65915 0.805 0.0
C1033 C 0.48138 0.61728 0.76893 0.0
H1034 H 0.42583 0.58622 0.75779 0.0
C1035 C 0.4723 0.55019 0.6843 0.0
C1036 C 0.46016 0.53078 0.6903 0.0
C1037 C 0.47199 0.56856 0.70203 0.0
C1038 C 0.44154 0.59458 0.76073 0.0
H1039 H 0.49849 0.66766 0.84978 0.0
H1040 H 0.49616 0.6359 0.81886 0.0
H1041 H 0.42762 0.61744 0.78977 0.0
H1042 H 0.43771 0.51602 0.71986 0.0
H1043 H 0.43713 0.54805 0.75075 0.0
H1044 H 0.49541 0.59428 0.74031 0.0
C1045 C 0.48246 0.64739 0.81946 0.0
C1046 C 0.44252 0.61273 0.77892 0.0
C1047 C 0.48376 0.66563 0.83741 0.0
C1048 C 0.44715 0.53065 0.71431 0.0
C1049 C 0.44682 0.54911 0.7321 0.0
C1050 C 0.48038 0.59923 0.75069 0.0
C1051 C 0.46368 0.64383 0.80288 0.0
C1052 C 0.46248 0.62439 0.78337 0.0
C1053 C 0.45956 0.56825 0.72649 0.0
C1054 C 0.46044 0.58756 0.7462 0.0
H1055 H 0.43378 0.68887 0.82375 0.0
H1056 H 0.43157 0.65725 0.79244 0.0
H1057 H 0.49703 0.62584 0.77142 0.0
H1058 H 0.4825 0.55112 0.66606 0.0
H1059 H 0.48167 0.58304 0.69654 0.0
C1060 C 0.75816 0.21256 0.56302 0.0
C1061 C 0.75775 0.22834 0.58436 0.0
C1062 C 0.7763 0.21124 0.54491 0.0
C1063 C 0.8361 0.22648 0.53855 0.0
H1064 H 0.82689 0.21693 0.46078 0.0
C1065 C 0.90981 0.21251 0.46305 0.0
C1066 C 0.90903 0.22376 0.43777 0.0
C1067 C 0.89123 0.21177 0.48051 0.0
C1068 C 0.82982 0.21966 0.48243 0.0
H1069 H 0.77647 0.25513 0.6031 0.0
H1070 H 0.80788 0.25278 0.57182 0.0
H1071 H 0.79509 0.21862 0.49175 0.0
H1072 H 0.88753 0.24257 0.41102 0.0
H1073 H 0.8553 0.24104 0.44111 0.0
H1074 H 0.87079 0.22775 0.52923 0.0
C1075 C 0.79425 0.24128 0.56909 0.0
C1076 C 0.81152 0.22043 0.50029 0.0
C1077 C 0.77606 0.24274 0.587 0.0
C1078 C 0.88888 0.23367 0.43021 0.0
C1079 C 0.87026 0.23274 0.44751 0.0
C1080 C 0.8544 0.22549 0.52074 0.0
C1081 C 0.79472 0.22551 0.54774 0.0
C1082 C 0.81432 0.22403 0.52864 0.0
C1083 C 0.87119 0.22205 0.47315 0.0
C1084 C 0.85159 0.22222 0.49233 0.0
H1085 H 0.74445 0.20116 0.56027 0.0
H1086 H 0.77605 0.19875 0.52894 0.0
H1087 H 0.83906 0.22904 0.56022 0.0
H1088 H 0.92498 0.20476 0.46978 0.0
H1089 H 0.89261 0.20314 0.49988 0.0
C1090 C 0.22842 0.52289 0.3173 0.0
C1091 C 0.21104 0.52133 0.33653 0.0
C1092 C 0.22976 0.54081 0.29887 0.0
C1093 C 0.19562 0.58532 0.26686 0.0
H1094 H 0.25223 0.61219 0.24913 0.0
C1095 C 0.20357 0.65115 0.18086 0.0
C1096 C 0.21705 0.6699 0.1856 0.0
C1097 C 0.2039 0.63285 0.19861 0.0
C1098 C 0.23625 0.60499 0.25391 0.0
H1099 H 0.1814 0.53777 0.35105 0.0
H1100 H 0.18368 0.56872 0.31909 0.0
H1101 H 0.25049 0.58112 0.2813 0.0
H1102 H 0.24201 0.68348 0.21281 0.0
H1103 H 0.2427 0.65148 0.24368 0.0
H1104 H 0.1813 0.60924 0.2398 0.0
C1105 C 0.19626 0.55602 0.31806 0.0
C1106 C 0.23526 0.58695 0.27221 0.0
C1107 C 0.195 0.53821 0.33658 0.0
C1108 C 0.23146 0.66938 0.20828 0.0
C1109 C 0.23186 0.65095 0.22605 0.0
C1110 C 0.19661 0.6032 0.24845 0.0
C1111 C 0.21368 0.55768 0.2989 0.0
C1112 C 0.21491 0.57684 0.27906 0.0
C1113 C 0.21776 0.63254 0.22178 0.0
C1114 C 0.21693 0.61337 0.24162 0.0
H1115 H 0.24113 0.51031 0.31656 0.0
H1116 H 0.2433 0.54128 0.28432 0.0
H1117 H 0.17963 0.57797 0.27128 0.0
H1118 H 0.19228 0.6507 0.16364 0.0
H1119 H 0.19312 0.61891 0.19417 0.0
C1120 C 0.75725 0.7085 0.38279 0.0
C1121 C 0.75679 0.72498 0.36235 0.0
C1122 C 0.7753 0.70677 0.40088 0.0
C1123 C 0.83486 0.72202 0.40854 0.0
H1124 H 0.82481 0.71105 0.48587 0.0
C1125 C 0.90756 0.70614 0.48463 0.0
C1126 C 0.90667 0.71733 0.51 0.0
C1127 C 0.88917 0.70573 0.46694 0.0
C1128 C 0.82797 0.71416 0.46435 0.0
H1129 H 0.77533 0.75249 0.3451 0.0
H1130 H 0.80669 0.74935 0.37631 0.0
H1131 H 0.79334 0.71335 0.45458 0.0
H1132 H 0.88517 0.73637 0.53669 0.0
H1133 H 0.85321 0.73533 0.50624 0.0
H1134 H 0.86947 0.72298 0.41832 0.0
C1135 C 0.79312 0.73769 0.37837 0.0
C1136 C 0.80987 0.71529 0.44631 0.0
C1137 C 0.77499 0.73958 0.36051 0.0
C1138 C 0.88658 0.7275 0.51744 0.0
C1139 C 0.86814 0.72686 0.49993 0.0
C1140 C 0.85297 0.72062 0.42653 0.0
C1141 C 0.79358 0.72128 0.3989 0.0
C1142 C 0.81299 0.71943 0.41812 0.0
C1143 C 0.86921 0.71627 0.47419 0.0
C1144 C 0.84984 0.71683 0.45478 0.0
H1145 H 0.74361 0.69693 0.38492 0.0
H1146 H 0.77505 0.6938 0.4162 0.0
H1147 H 0.83804 0.72501 0.387 0.0
H1148 H 0.92271 0.69824 0.478 0.0
H1149 H 0.89063 0.6972 0.44747 0.0
C1150 C 0.21474 0.1475 0.76807 0.0
C1151 C 0.21897 0.16878 0.7573 0.0
C1152 C 0.21493 0.12859 0.75106 0.0
C1153 C 0.20957 0.11193 0.67739 0.0
H1154 H 0.23067 1.05499 0.70284 0.0
C1155 C 0.19444 1.03128 0.61471 0.0
C1156 C 0.21127 1.01522 0.61355 0.0
C1157 C 0.19595 1.04956 0.63253 0.0
C1158 C 0.22484 1.07077 0.69525 0.0
H1159 H 0.2272 0.18646 0.71993 0.0
H1160 H 0.22781 0.15372 0.69061 0.0
H1161 H 0.23295 1.08737 0.73296 0.0
H1162 H 0.24293 1.00602 0.6308 0.0
H1163 H 0.24562 1.03792 0.66179 0.0
H1164 H 0.20172 1.09552 0.63962 0.0
C1165 C 0.22399 0.15159 0.71215 0.0
C1166 C 0.22593 1.08938 0.71272 0.0
C1167 C 0.22384 0.17045 0.72912 0.0
C1168 C 0.22961 1.01796 0.63105 0.0
C1169 C 0.23109 1.03627 0.649 0.0
C1170 C 0.20841 1.09335 0.66001 0.0
C1171 C 0.21927 0.13033 0.72271 0.0
C1172 C 0.21832 0.11031 0.70409 0.0
C1173 C 0.21433 1.05247 0.64992 0.0
C1174 C 0.21596 1.07241 0.6686 0.0
H1175 H 0.21075 0.14545 0.78958 0.0
H1176 H 0.21099 0.11265 0.76006 0.0
H1177 H 0.20326 0.12757 0.66994 0.0
H1178 H 0.18 1.02983 0.60171 0.0
H1179 H 0.18248 1.06134 0.63282 0.0
C1180 C 0.76708 0.48876 -0.01797 0.0
C1181 C 0.76852 0.47952 0.00848 0.0
C1182 C 0.78553 0.48908 0.96434 0.0
C1183 C 0.84727 0.48403 0.96278 0.0
H1184 H 0.83845 0.4685 0.8864 0.0
C1185 C 0.91858 0.48901 0.88187 0.0
C1186 C 0.91997 0.47189 0.86223 0.0
C1187 C 0.90026 0.49061 0.89963 0.0
C1188 C 0.8413 0.47279 0.90769 0.0
H1189 H 0.79105 0.46387 0.03702 0.0
H1190 H 0.82302 0.46468 0.00652 0.0
H1191 H 0.80669 0.47054 0.91734 0.0
H1192 H 0.90278 0.44308 0.84608 0.0
H1193 H 0.87097 0.44592 0.87682 0.0
H1194 H 0.8819 0.48604 0.9532 0.0
C1195 C 0.80765 0.47174 -0.00064 0.0
C1196 C 0.82297 0.47421 0.92543 0.0
C1197 C 0.78918 0.47122 0.01691 0.0
C1198 C 0.9024 0.45649 0.86087 0.0
C1199 C 0.884 0.45822 0.87846 0.0
C1200 C 0.86557 0.48282 0.94497 0.0
C1201 C 0.80609 0.48037 0.97261 0.0
C1202 C 0.82564 0.47972 0.95334 0.0
C1203 C 0.88261 0.47529 0.89818 0.0
C1204 C 0.86293 0.47703 0.91714 0.0
H1205 H 0.7515 0.49518 0.97463 0.0
H1206 H 0.78365 0.49611 0.94407 0.0
H1207 H 0.85009 0.4885 -0.016 0.0
H1208 H 0.93169 0.50122 0.8836 0.0
H1209 H 0.8998 0.50413 0.91426 0.0
C1210 C 0.44926 1.02874 0.23425 0.0
C1211 C 0.46013 1.02961 0.25977 0.0
C1212 C 0.44891 1.04731 0.21676 0.0
C1213 C 0.45781 0.10895 0.21513 0.0
H1214 H 0.46585 0.09953 0.13713 0.0
C1215 C 0.45114 0.18113 0.13554 0.0
C1216 C 0.466 0.18119 0.11324 0.0
C1217 C 0.44988 0.16293 0.15356 0.0
C1218 C 0.46371 0.10257 0.15886 0.0
H1219 H 0.47883 1.05125 0.28681 0.0
H1220 H 0.47813 1.08338 0.25661 0.0
H1221 H 0.46442 1.06778 0.16801 0.0
H1222 H 0.49127 0.16178 0.0928 0.0
H1223 H 0.48913 0.13032 0.12404 0.0
H1224 H 0.45744 0.14377 0.20601 0.0
C1225 C 0.46971 1.0684 0.25007 0.0
C1226 C 0.46261 1.08423 0.17663 0.0
C1227 C 0.47019 1.04982 0.26746 0.0
C1228 C 0.47959 0.16247 0.10963 0.0
C1229 C 0.47823 0.14424 0.12753 0.0
C1230 C 0.45876 0.12729 0.19733 0.0
C1231 C 0.4593 1.06742 0.22426 0.0
C1232 C 0.45976 1.08708 0.20512 0.0
C1233 C 0.46333 0.1441 0.1498 0.0
C1234 C 0.46186 0.12444 0.16888 0.0
H1235 H 0.44139 1.01354 0.22742 0.0
H1236 H 0.44046 1.04586 0.19728 0.0
H1237 H 0.45539 0.11196 0.23682 0.0
H1238 H 0.44036 0.19515 0.13909 0.0
H1239 H 0.43803 0.16349 0.17022 0.0
C1240 C 0.28805 0.46692 0.43615 0.0
C1241 C 0.26897 0.47943 0.44202 0.0
C1242 C 0.30659 0.46758 0.4535 0.0
C1243 C 0.32318 0.47927 0.52537 0.0
H1244 H 0.38274 0.47965 0.49574 0.0
C1245 C 0.40076 0.46053 0.59244 0.0
C1246 C 0.41984 0.47365 0.58847 0.0
C1247 C 0.38251 0.46213 0.5747 0.0
C1248 C 0.36625 0.47965 0.50444 0.0
H1249 H 0.25478 0.50259 0.4711 0.0
H1250 H 0.28704 0.50361 0.50147 0.0
H1251 H 0.35106 0.48145 0.46473 0.0
H1252 H 0.43444 0.49872 0.56219 0.0
H1253 H 0.40283 0.50127 0.5311 0.0
H1254 H 0.33837 0.47728 0.56507 0.0
C1255 C 0.28763 0.49327 0.48331 0.0
C1256 C 0.34801 0.48051 0.48658 0.0
C1257 C 0.26915 0.49284 0.46572 0.0
C1258 C 0.42013 0.48832 0.566 0.0
C1259 C 0.40197 0.48971 0.54803 0.0
C1260 C 0.34142 0.47812 0.54321 0.0
C1261 C 0.30662 0.48054 0.47756 0.0
C1262 C 0.32616 0.4803 0.49673 0.0
C1263 C 0.3828 0.47672 0.55216 0.0
C1264 C 0.36327 0.47826 0.53306 0.0
H1265 H 0.28861 0.45631 0.41821 0.0
H1266 H 0.32071 0.45738 0.44841 0.0
H1267 H 0.30668 0.47888 0.53404 0.0
H1268 H 0.39979 0.44906 0.60947 0.0
H1269 H 0.36823 0.45166 0.57847 0.0
C1270 C 0.94956 0.18153 0.31602 0.0
C1271 C 0.96581 0.18244 0.33667 0.0
C1272 C 0.94797 0.16318 0.29823 0.0
C1273 C 0.96371 0.10353 0.29158 0.0
H1274 H 0.95177 0.11242 0.21433 0.0
C1275 C 0.94862 1.02925 0.21678 0.0
C1276 C 0.95912 1.03033 0.191 0.0
C1277 C 0.94808 1.04784 0.23429 0.0
C1278 C 0.95518 0.10957 0.23582 0.0
H1279 H 0.99312 0.16435 0.35456 0.0
H1280 H 0.99034 0.13251 0.32375 0.0
H1281 H 0.95405 0.14437 0.24508 0.0
H1282 H 0.97679 1.05235 0.16341 0.0
H1283 H 0.97561 1.08459 0.19359 0.0
H1284 H 0.96511 1.06875 0.28226 0.0
C1285 C 0.97868 0.14595 0.32136 0.0
C1286 C 0.95628 0.12796 0.25358 0.0
C1287 C 0.98038 0.16436 0.33898 0.0
C1288 C 0.96846 1.05078 0.18299 0.0
C1289 C 0.96773 1.06939 0.20035 0.0
C1290 C 0.96241 1.08512 0.27386 0.0
C1291 C 0.96245 0.14502 0.30066 0.0
C1292 C 0.96073 0.12528 0.28174 0.0
C1293 C 0.95782 1.06818 0.22648 0.0
C1294 C 0.95827 1.08783 0.24564 0.0
H1295 H 0.93799 0.19504 0.31354 0.0
H1296 H 0.93511 0.16308 0.28281 0.0
H1297 H 0.96693 0.10066 0.31311 0.0
H1298 H 0.94138 1.01382 0.22385 0.0
H1299 H 0.94006 1.04624 0.25407 0.0
C1300 C 0.2756 0.74085 0.08636 0.0
C1301 C 0.25754 0.72609 0.08422 0.0
C1302 C 0.29379 0.73936 0.0685 0.0
C1303 C 0.3114 0.71807 0.00022 0.0
H1304 H 0.37053 0.7265 0.02918 0.0
C1305 C 0.38884 0.73279 0.93044 0.0
C1306 C 0.40905 0.72299 0.93804 0.0
C1307 C 0.37016 0.73156 0.94762 0.0
C1308 C 0.35418 0.72394 0.02068 0.0
H1309 H 0.24469 0.69818 0.06105 0.0
H1310 H 0.27633 0.69574 0.02966 0.0
H1311 H 0.33876 0.72734 0.06013 0.0
H1312 H 0.42502 0.70393 0.96997 0.0
H1313 H 0.39257 0.70186 -0.00015 0.0
H1314 H 0.32687 0.71482 0.96071 0.0
C1315 C 0.27637 0.70852 0.04528 0.0
C1316 C 0.33586 0.72465 0.03847 0.0
C1317 C 0.25822 0.70985 0.06341 0.0
C1318 C 0.40982 0.7116 0.96322 0.0
C1319 C 0.39119 0.71058 -0.01945 0.0
C1320 C 0.32973 0.71762 -0.01764 0.0
C1321 C 0.29453 0.72319 0.04764 0.0
C1322 C 0.31414 0.7218 0.02856 0.0
C1323 C 0.37109 0.72071 0.97316 0.0
C1324 C 0.35144 0.72058 -0.00772 0.0
H1325 H 0.2758 0.75359 0.10204 0.0
H1326 H 0.30722 0.75115 0.07085 0.0
H1327 H 0.295 0.71595 -0.0083 0.0
H1328 H 0.38751 0.74179 0.91133 0.0
H1329 H 0.35513 0.73974 0.94122 0.0
C1330 C 0.70254 0.15212 0.68328 0.0
C1331 C 0.71662 0.17056 0.68715 0.0
C1332 C 0.70291 0.13397 0.70124 0.0
C1333 C 0.73617 0.10605 0.75582 0.0
H1334 H 0.67974 1.07918 0.77435 0.0
C1335 C 0.72944 1.02412 0.8194 0.0
C1336 C 0.71196 1.02205 0.83841 0.0
C1337 C 0.73053 1.04217 0.80117 0.0
C1338 C 0.69568 1.0865 0.76966 0.0
H1339 H 0.74257 0.18377 0.71317 0.0
H1340 H 0.74326 0.15209 0.7445 0.0
H1341 H 0.68105 0.11042 0.74288 0.0
H1342 H 0.68194 1.03778 0.85289 0.0
H1343 H 0.68387 1.06909 0.8214 0.0
H1344 H 0.75073 1.08228 0.78303 0.0
C1345 C 0.73197 0.15164 0.72731 0.0
C1346 C 0.69647 0.10436 0.7512 0.0
C1347 C 0.73156 0.1699 0.70928 0.0
C1348 C 0.69562 1.03863 0.83855 0.0
C1349 C 0.69667 1.05663 0.82028 0.0
C1350 C 0.73538 1.08809 0.77424 0.0
C1351 C 0.71737 0.13351 0.72384 0.0
C1352 C 0.71672 0.11445 0.74387 0.0
C1353 C 0.71414 1.05874 0.80124 0.0
C1354 C 0.71511 1.07799 0.7815 0.0
H1355 H 0.69077 0.1518 0.66657 0.0
H1356 H 0.69172 0.12025 0.69738 0.0
H1357 H 0.75212 0.11316 0.75067 0.0
H1358 H 0.74236 1.01176 0.81855 0.0
H1359 H 0.74411 1.04293 0.7867 0.0
C1360 C 0.54415 0.1899 0.87507 0.0
C1361 C 0.54835 0.2034 0.89805 0.0
C1362 C 0.55672 0.19226 0.85116 0.0
C1363 C 0.61077 0.21276 0.82731 0.0
H1364 H 0.5837 0.2126 0.75525 0.0
C1365 C 0.6599 0.23778 0.73185 0.0
C1366 C 0.65723 0.22499 0.70794 0.0
C1367 C 0.64577 0.23492 0.75416 0.0
C1368 C 0.59151 0.21241 0.77522 0.0
H1369 H 0.569 0.22996 0.91392 0.0
H1370 H 0.59072 0.23427 0.87212 0.0
H1371 H 0.56056 0.20796 0.79605 0.0
H1372 H 0.63724 0.19946 0.68854 0.0
H1373 H 0.61258 0.19428 0.72784 0.0
H1374 H 0.64167 0.21712 0.80669 0.0
C1375 C 0.57783 0.22174 0.87266 0.0
C1376 C 0.57827 0.20978 0.79856 0.0
C1377 C 0.56523 0.21944 0.8965 0.0
C1378 C 0.63971 0.2096 0.70664 0.0
C1379 C 0.62556 0.20668 0.72911 0.0
C1380 C 0.62397 0.21533 0.80405 0.0
C1381 C 0.57382 0.20808 0.8498 0.0
C1382 C 0.58776 0.21016 0.82486 0.0
C1383 C 0.62865 0.21911 0.75325 0.0
C1384 C 0.61449 0.21544 0.77775 0.0
H1385 H 0.5311 0.17755 0.87555 0.0
H1386 H 0.55333 0.18142 0.83392 0.0
H1387 H 0.61862 0.21265 0.84725 0.0
H1388 H 0.67304 0.24998 0.73348 0.0
H1389 H 0.6483 0.24511 0.77221 0.0
C1390 C 0.75252 0.81136 0.1297 0.0
C1391 C 0.73586 0.81253 0.1498 0.0
C1392 C 0.75017 0.82244 0.10475 0.0
C1393 C 0.70823 0.84881 0.06011 0.0
H1394 H 0.75876 0.88062 0.03045 0.0
C1395 C 0.7005 0.91867 -0.01925 0.0
C1396 C 0.71576 0.9192 0.95899 0.0
C1397 C 0.70292 0.9035 0.00206 0.0
C1398 C 0.74459 0.87155 0.03828 0.0
H1399 H 0.70345 0.8259 0.15917 0.0
H1400 H 0.69967 0.84579 0.11612 0.0
H1401 H 0.76313 0.85824 0.07168 0.0
H1402 H 0.74542 0.90409 0.94236 0.0
H1403 H 0.74973 0.87764 -0.02008 0.0
H1404 H 0.68958 0.86274 0.02713 0.0
C1405 C 0.71443 0.83604 0.11942 0.0
C1406 C 0.74708 0.85871 0.06187 0.0
C1407 C 0.71673 0.8249 0.14429 0.0
C1408 C 0.73336 0.90405 0.95882 0.0
C1409 C 0.73591 0.889 -0.01965 0.0
C1410 C 0.70573 0.86177 0.03665 0.0
C1411 C 0.73113 0.83499 0.09937 0.0
C1412 C 0.72885 0.84743 0.07327 0.0
C1413 C 0.72074 0.88866 0.00221 0.0
C1414 C 0.72381 0.87349 0.02572 0.0
H1415 H 0.76755 0.80214 0.13338 0.0
H1416 H 0.76325 0.82112 0.08965 0.0
H1417 H 0.69396 0.83997 0.06802 0.0
H1418 H 0.68671 0.93006 -0.01856 0.0
H1419 H 0.69112 0.90377 0.0188 0.0
C1420 C 1.01424 0.98016 0.23648 0.0
C1421 C 1.02178 0.97774 0.20936 0.0
C1422 C 1.02907 0.98434 0.25769 0.0
C1423 C 1.08567 0.97703 0.27984 0.0
H1424 H 1.07114 1.02377 0.33149 0.0
C1425 C 0.13943 0.99663 0.37559 0.0
C1426 C 0.1277 1.00112 0.39988 0.0
C1427 C 0.12832 0.99515 0.35048 0.0
C1428 C 1.07536 1.01055 0.3174 0.0
H1429 H 1.05088 0.97746 0.18329 0.0
H1430 H 1.07705 0.9844 0.22086 0.0
H1431 H 1.0485 1.0185 0.29073 0.0
H1432 H 1.09514 1.00688 0.41706 0.0
H1433 H 1.07579 1.00404 0.37357 0.0
H1434 H 0.11205 0.96851 0.30707 0.0
C1435 C 1.05954 0.9832 0.22541 0.0
C1436 C 1.06246 1.00762 0.294 0.0
C1437 C 1.04459 0.97931 0.20398 0.0
C1438 C 0.10468 1.00387 0.39862 0.0
C1439 C 1.09361 1.00229 0.37364 0.0
C1440 C 0.09852 0.97983 0.30345 0.0
C1441 C 1.05183 0.98598 0.25239 0.0
C1442 C 1.06719 0.99055 0.27531 0.0
C1443 C 0.10528 0.99804 0.34923 0.0
C1444 C 1.09318 0.99632 0.32281 0.0
H1445 H 0.99677 0.97914 0.24137 0.0
H1446 H 1.02272 0.98614 0.27836 0.0
H1447 H 1.08957 0.96368 0.26577 0.0
H1448 H 0.15721 0.99459 0.37593 0.0
H1449 H 0.13782 0.99203 0.33204 0.0
C1450 C 0.95233 0.30495 0.4534 0.0
C1451 C 0.968 0.28785 0.45415 0.0
C1452 C 0.95065 0.31993 0.47526 0.0
C1453 C 0.96446 0.32354 0.54891 0.0
H1454 H 0.94966 0.3857 0.54091 0.0
C1455 C 0.96678 0.38306 0.64021 0.0
C1456 C 0.94779 0.39599 0.64429 0.0
C1457 C 0.96992 0.37166 0.61563 0.0
C1458 C 0.95369 0.36833 0.54335 0.0
H1459 H 0.99523 0.27391 0.47721 0.0
H1460 H 0.99281 0.30031 0.51471 0.0
H1461 H 0.9544 0.36257 0.49998 0.0
H1462 H 0.91765 0.4079 0.62546 0.0
H1463 H 0.92317 0.38783 0.58227 0.0
H1464 H 0.96397 0.32928 0.59214 0.0
C1465 C 0.98122 0.30175 0.49791 0.0
C1466 C 0.95635 0.35509 0.51999 0.0
C1467 C 0.98268 0.28666 0.47634 0.0
C1468 C 0.93233 0.39787 0.62293 0.0
C1469 C 0.93558 0.38658 0.59818 0.0
C1470 C 0.96202 0.33678 0.57212 0.0
C1471 C 0.9648 0.31817 0.49804 0.0
C1472 C 0.96188 0.33254 0.52253 0.0
C1473 C 0.9542 0.37304 0.59455 0.0
C1474 C 0.95671 0.3593 0.5696 0.0
H1475 H 0.94081 0.30621 0.4365 0.0
H1476 H 0.93774 0.33231 0.47477 0.0
H1477 H 0.9681 0.30612 0.5517 0.0
H1478 H 0.97888 0.38114 0.65638 0.0
H1479 H 0.98452 0.36149 0.61324 0.0
C1480 C 0.62615 1.01389 0.07285 0.0
C1481 C 0.62859 0.99641 0.05392 0.0
C1482 C 0.61502 1.01052 0.09765 0.0
C1483 C 0.57181 0.97623 0.12749 0.0
H1484 H 0.59437 0.99589 0.19791 0.0
C1485 C 0.52427 0.9562 0.22564 0.0
C1486 C 0.5229 0.97277 0.2458 0.0
C1487 C 0.53922 0.95822 0.20401 0.0
C1488 C 0.58772 0.99053 0.17838 0.0
H1489 H 0.62199 0.96143 0.04689 0.0
H1490 H 0.60201 0.95581 0.08978 0.0
H1491 H 0.61657 1.00153 0.15647 0.0
H1492 H 0.53645 1.00409 0.2598 0.0
H1493 H 0.56211 1.00815 0.22128 0.0
H1494 H 0.54271 0.96597 0.14875 0.0
C1495 C 0.60865 0.97212 0.08526 0.0
C1496 C 0.60047 0.9937 0.15471 0.0
C1497 C 0.61997 0.9754 0.06064 0.0
C1498 C 0.5373 0.99105 0.24452 0.0
C1499 C 0.55203 0.9933 0.2225 0.0
C1500 C 0.55897 0.97334 0.15098 0.0
C1501 C 0.6059 0.98968 0.10388 0.0
C1502 C 0.59265 0.98644 0.1291 0.0
C1503 C 0.55281 0.97711 0.20165 0.0
C1504 C 0.56679 0.98029 0.17679 0.0
H1505 H 0.63233 1.03035 0.06823 0.0
H1506 H 0.61292 1.02438 0.11157 0.0
H1507 H 0.56523 0.97085 0.10792 0.0
H1508 H 0.51358 0.94175 0.22642 0.0
H1509 H 0.53983 0.94507 0.18887 0.0
C1510 C 0.4428 0.40519 0.83056 0.0
C1511 C 0.44627 0.39375 0.80579 0.0
C1512 C 0.44682 0.39478 0.85569 0.0
C1513 C 0.47804 0.34906 0.88651 0.0
H1514 H 0.43203 0.348 0.94203 0.0
C1515 C 0.47412 0.28155 0.96814 0.0
C1516 C 0.46697 0.28669 -0.00515 0.0
C1517 C 0.47342 0.29739 0.94744 0.0
C1518 C 0.44524 0.34849 0.92701 0.0
H1519 H 0.45714 0.36276 0.78779 0.0
H1520 H 0.46422 0.34466 0.83154 0.0
H1521 H 0.42748 0.37095 0.90117 0.0
H1522 H 0.45378 0.31276 0.02078 0.0
H1523 H 0.45269 0.34065 -0.01562 0.0
H1524 H 0.49571 0.32645 0.91196 0.0
C1525 C 0.45838 0.36161 0.8316 0.0
C1526 C 0.44259 0.36159 0.9036 0.0
C1527 C 0.45412 0.37188 0.80658 0.0
C1528 C 0.45937 0.30824 0.00042 0.0
C1529 C 0.45865 0.32418 -0.02044 0.0
C1530 C 0.48075 0.33613 0.90993 0.0
C1531 C 0.45472 0.37291 0.85641 0.0
C1532 C 0.4587 0.36148 0.88279 0.0
C1533 C 0.46564 0.31888 0.95281 0.0
C1534 C 0.4641 0.33515 0.93006 0.0
H1535 H 0.43668 0.42204 0.83049 0.0
H1536 H 0.44391 0.40386 0.87453 0.0
H1537 H 0.49089 0.349 0.87101 0.0
H1538 H 0.48009 0.26515 0.96299 0.0
H1539 H 0.47852 0.29257 0.92698 0.0
C1540 C 0.14232 0.20404 0.74068 0.0
C1541 C 0.15522 0.22332 0.74387 0.0
C1542 C 0.12796 0.20184 0.71832 0.0
C1543 C 0.12065 0.22326 0.64829 0.0
H1544 H 1.06218 0.19686 0.65306 0.0
C1545 C 1.06095 0.22447 0.55697 0.0
C1546 C 1.04928 0.20481 0.55118 0.0
C1547 C 1.07272 0.22676 0.58142 0.0
C1548 C 1.07856 0.20408 0.65139 0.0
H1549 H 0.16229 0.25588 0.72691 0.0
H1550 H 0.13718 0.25214 0.6884 0.0
H1551 H 1.08462 0.20079 0.69451 0.0
H1552 H 1.0403 0.17237 0.56693 0.0
H1553 H 1.06123 0.17623 0.60947 0.0
H1554 H 0.11477 0.22649 0.60531 0.0
C1555 C 0.13849 0.2385 0.70271 0.0
C1556 C 1.09139 0.20633 0.67511 0.0
C1557 C 0.15283 0.24067 0.72491 0.0
C1558 C 1.04934 0.18763 0.57064 0.0
C1559 C 1.06112 0.18993 0.59514 0.0
C1560 C 0.10787 0.22103 0.62467 0.0
C1561 C 0.12625 0.2189 0.69881 0.0
C1562 C 0.11253 0.21609 0.67381 0.0
C1563 C 1.07313 0.20944 0.60066 0.0
C1564 C 1.08663 0.21155 0.62594 0.0
H1565 H 0.14381 0.19037 0.75492 0.0
H1566 H 0.11881 0.18649 0.7158 0.0
H1567 H 0.13706 0.23039 0.64647 0.0
H1568 H 1.06141 0.23795 0.54234 0.0
H1569 H 1.08156 0.24212 0.58522 0.0
C1570 C 0.22631 0.89739 0.49169 0.0
C1571 C 0.2113 0.91508 0.49039 0.0
C1572 C 0.22955 0.88364 0.46891 0.0
C1573 C 0.22285 0.88424 0.39376 0.0
H1574 H 0.23066 0.82059 0.39897 0.0
C1575 C 0.22007 0.82798 0.2991 0.0
C1576 C 0.23658 0.81179 0.29666 0.0
C1577 C 0.21748 0.83978 0.32349 0.0
C1578 C 0.22871 0.83838 0.39729 0.0
H1579 H 0.18705 0.9315 0.46478 0.0
H1580 H 0.19234 0.90734 0.42549 0.0
H1581 H 0.22476 0.84242 0.4407 0.0
H1582 H 0.26305 0.79491 0.31798 0.0
H1583 H 0.25856 0.81573 0.36077 0.0
H1584 H 0.22654 0.88025 0.35045 0.0
C1585 C 0.20211 0.90443 0.44372 0.0
C1586 C 0.22536 0.85087 0.42114 0.0
C1587 C 0.19899 0.91821 0.46632 0.0
C1588 C 0.25031 0.80745 0.31924 0.0
C1589 C 0.24762 0.81919 0.34376 0.0
C1590 C 0.22608 0.87179 0.37002 0.0
C1591 C 0.21776 0.8873 0.44451 0.0
C1592 C 0.22213 0.87391 0.41956 0.0
C1593 C 0.2313 0.8356 0.34601 0.0
C1594 C 0.22881 0.84872 0.37149 0.0
H1595 H 0.23608 0.89462 0.50995 0.0
H1596 H 0.24181 0.87064 0.4701 0.0
H1597 H 0.22099 0.90203 0.39188 0.0
H1598 H 0.20937 0.83182 0.28198 0.0
H1599 H 0.2046 0.85217 0.32476 0.0
C1600 C 1.04452 0.69067 0.37382 0.0
C1601 C 1.04899 0.70366 0.39715 0.0
C1602 C 1.0566 0.69379 0.34964 0.0
C1603 C 0.11015 0.71469 0.32542 0.0
H1604 H 1.08216 0.7171 0.25399 0.0
C1605 C 0.15953 0.7397 0.23027 0.0
C1606 C 0.15605 0.72758 0.20601 0.0
C1607 C 0.14528 0.73724 0.25255 0.0
C1608 C 1.09023 0.71621 0.27376 0.0
H1609 H 1.06956 0.73011 0.41343 0.0
H1610 H 1.09053 0.73565 0.37123 0.0
H1611 H 1.05948 0.71165 0.29506 0.0
H1612 H 0.13449 0.70384 0.1858 0.0
H1613 H 0.10971 0.6992 0.22508 0.0
H1614 H 0.14087 0.71891 0.30441 0.0
C1615 C 1.07776 0.72299 0.37166 0.0
C1616 C 1.07725 0.71312 0.29724 0.0
C1617 C 1.06561 0.71997 0.39573 0.0
C1618 C 0.13756 0.71344 0.20421 0.0
C1619 C 0.12335 0.71083 0.22668 0.0
C1620 C 0.1231 0.71764 0.30203 0.0
C1621 C 1.07349 0.70984 0.34843 0.0
C1622 C 1.08709 0.71255 0.32332 0.0
C1623 C 0.1273 0.72243 0.25128 0.0
C1624 C 0.11331 0.71867 0.27593 0.0
H1625 H 1.03166 0.6781 0.37425 0.0
H1626 H 1.05304 0.68334 0.33209 0.0
H1627 H 0.11824 0.71386 0.34519 0.0
H1628 H 0.17342 0.75099 0.23221 0.0
H1629 H 0.14849 0.74685 0.27091 0.0
C1630 C 0.24621 0.33534 0.64689 0.0
C1631 C 0.23203 0.31789 0.6546 0.0
C1632 C 0.24345 0.34603 0.62179 0.0
C1633 C 0.20203 0.35752 0.56902 0.0
H1634 H 0.25321 0.37363 0.52514 0.0
C1635 C 0.19962 0.42436 0.48556 0.0
C1636 C 0.21134 0.42072 0.46106 0.0
C1637 C 0.20129 0.40951 0.50729 0.0
C1638 C 0.23874 0.36899 0.53698 0.0
H1639 H 0.20401 0.2978 0.6418 0.0
H1640 H 0.19904 0.3167 0.59808 0.0
H1641 H 0.25814 0.35195 0.56691 0.0
H1642 H 0.23368 0.39836 0.43994 0.0
H1643 H 0.23666 0.37234 0.47817 0.0
H1644 H 0.18266 0.37472 0.53923 0.0
C1645 C 0.21217 0.32219 0.6116 0.0
C1646 C 0.24159 0.35682 0.56104 0.0
C1647 C 0.21497 0.31144 0.63668 0.0
C1648 C 0.22445 0.40163 0.45856 0.0
C1649 C 0.22625 0.38681 0.48046 0.0
C1650 C 0.1992 0.36977 0.54504 0.0
C1651 C 0.22642 0.33955 0.60388 0.0
C1652 C 0.22329 0.35123 0.57749 0.0
C1653 C 0.21479 0.39071 0.50509 0.0
C1654 C 0.21756 0.37591 0.52901 0.0
H1655 H 0.25931 0.3409 0.6604 0.0
H1656 H 0.25444 0.35963 0.61659 0.0
H1657 H 0.18764 0.35356 0.58135 0.0
H1658 H 0.18926 0.43883 0.48814 0.0
H1659 H 0.19247 0.4131 0.52613 0.0
C1660 C 0.51444 0.47998 0.73589 0.0
C1661 C 0.52196 0.47765 0.70875 0.0
C1662 C 0.52927 0.48423 0.75708 0.0
C1663 C 0.5861 0.4776 0.77902 0.0
H1664 H 0.57123 0.52432 0.83056 0.0
C1665 C 0.64037 0.49846 0.87394 0.0
C1666 C 0.62881 0.50297 0.89835 0.0
C1667 C 0.62906 0.49666 0.84901 0.0
C1668 C 0.57555 0.51109 0.81651 0.0
H1669 H 0.55106 0.47754 0.68266 0.0
H1670 H 0.57721 0.48462 0.72016 0.0
H1671 H 0.54839 0.51854 0.79008 0.0
H1672 H 0.59633 0.50846 0.91591 0.0
H1673 H 0.57662 0.50505 0.87273 0.0
H1674 H 0.61281 0.46959 0.806 0.0
C1675 C 0.55972 0.48329 0.72475 0.0
C1676 C 0.56252 0.50787 0.79327 0.0
C1677 C 0.54477 0.47931 0.70335 0.0
C1678 C 0.60575 0.50543 0.89737 0.0
C1679 C 0.59446 0.50352 0.87257 0.0
C1680 C 0.59908 0.48069 0.80248 0.0
C1681 C 0.55202 0.48604 0.75175 0.0
C1682 C 0.56739 0.49082 0.77461 0.0
C1683 C 0.60596 0.49924 0.84804 0.0
C1684 C 0.59364 0.49718 0.8218 0.0
H1685 H 0.49699 0.47887 0.74081 0.0
H1686 H 0.52294 0.486 0.77777 0.0
H1687 H 0.59012 0.46427 0.76497 0.0
H1688 H 0.65818 0.49665 0.87406 0.0
H1689 H 0.63843 0.49353 0.83047 0.0
C1690 C 0.45787 0.80871 0.94847 0.0
C1691 C 0.46652 0.78762 0.95425 0.0
C1692 C 0.45674 0.82493 0.96903 0.0
C1693 C 0.4798 0.8393 0.03721 0.0
H1694 H 0.42461 0.87058 0.04849 0.0
C1695 C 0.45388 0.87363 0.14166 0.0
C1696 C 0.4443 0.89477 0.14295 0.0
C1697 C 0.45824 0.86371 0.1164 0.0
C1698 C 0.44026 0.86226 0.04532 0.0
H1699 H 0.48102 0.76718 -0.01387 0.0
H1700 H 0.47885 0.79516 0.02163 0.0
H1701 H 0.42944 0.84752 0.0076 0.0
H1702 H 0.43175 0.92215 0.11892 0.0
H1703 H 0.43918 0.90455 0.07445 0.0
H1704 H 0.4903 0.8533 0.0754 0.0
C1705 C 0.47319 0.79936 0.00124 0.0
C1706 C 0.44303 0.84909 0.02191 0.0
C1707 C 0.47424 0.78321 -0.01915 0.0
C1708 C 0.43923 0.90586 0.11844 0.0
C1709 C 0.44336 0.89578 0.09308 0.0
C1710 C 0.47699 0.85233 0.0606 0.0
C1711 C 0.46441 0.82039 -0.00436 0.0
C1712 C 0.4626 0.83696 0.01806 0.0
C1713 C 0.45296 0.87462 0.09186 0.0
C1714 C 0.45697 0.86343 0.06527 0.0
H1715 H 0.45181 0.81264 0.92818 0.0
H1716 H 0.44996 0.84103 0.96411 0.0
H1717 H 0.49526 0.83055 0.0345 0.0
H1718 H 0.45815 0.86482 0.16024 0.0
H1719 H 0.46541 0.84727 0.11608 0.0
C1720 C 0.1066 0.50742 0.55531 0.0
C1721 C 0.1297 0.50526 0.55436 0.0
C1722 C 1.09523 0.50522 0.58008 0.0
C1723 C 0.10015 0.48217 0.65004 0.0
H1724 H 1.0485 0.5187 0.66288 0.0
C1725 C 1.04592 0.47938 0.74949 0.0
C1726 C 1.02318 0.477 0.74416 0.0
C1727 C 1.06076 0.48381 0.72804 0.0
C1728 C 1.06291 0.5084 0.65956 0.0
H1729 H 0.15904 0.4993 0.57868 0.0
H1730 H 0.13917 0.49574 0.62216 0.0
H1731 H 1.07119 0.52507 0.62231 0.0
H1732 H 0.99821 0.47746 0.71216 0.0
H1733 H 1.02395 0.4854 0.67517 0.0
H1734 H 1.09164 0.46555 0.68753 0.0
C1735 C 0.12982 0.49878 0.60364 0.0
C1736 C 1.07585 0.51195 0.63627 0.0
C1737 C 0.1412 0.50085 0.57876 0.0
C1738 C 1.01562 0.47912 0.71705 0.0
C1739 C 1.03033 0.48383 0.69582 0.0
C1740 C 1.08727 0.47877 0.67356 0.0
C1741 C 0.10667 0.50097 0.6046 0.0
C1742 C 1.0943 0.49852 0.63082 0.0
C1743 C 1.05301 0.48633 0.70108 0.0
C1744 C 1.06824 0.49151 0.67815 0.0
H1745 H 0.09724 0.51042 0.53678 0.0
H1746 H 1.07737 0.50648 0.57989 0.0
H1747 H 0.11415 0.47143 0.64641 0.0
H1748 H 1.05224 0.4778 0.77016 0.0
H1749 H 1.07821 0.48567 0.73257 0.0
C1750 C 0.94138 0.90173 0.3307 0.0
C1751 C 0.94578 0.89092 0.30573 0.0
C1752 C 0.94508 0.89092 0.35565 0.0
C1753 C 0.97669 0.84524 0.38621 0.0
H1754 H 0.92974 0.8426 0.44043 0.0
C1755 C 0.97285 0.77683 0.46683 0.0
C1756 C 0.96536 0.78167 0.49348 0.0
C1757 C 0.97202 0.79277 0.44624 0.0
C1758 C 0.94319 0.84352 0.42577 0.0
H1759 H 0.95798 0.86064 0.28723 0.0
H1760 H 0.96448 0.84182 0.33065 0.0
H1761 H 0.92549 0.86602 0.39991 0.0
H1762 H 0.95136 0.80732 0.51941 0.0
H1763 H 0.95002 0.83537 0.48321 0.0
H1764 H 0.99431 0.8226 0.41167 0.0
C1765 C 0.95817 0.85861 0.33101 0.0
C1766 C 0.94073 0.8569 0.40255 0.0
C1767 C 0.95424 0.86928 0.30616 0.0
C1768 C 0.95723 0.80303 0.4991 0.0
C1769 C 0.95637 0.81906 0.47835 0.0
C1770 C 0.97921 0.83202 0.40942 0.0
C1771 C 0.95357 0.86927 0.35601 0.0
C1772 C 0.95721 0.8574 0.3822 0.0
C1773 C 0.96375 0.81406 0.45167 0.0
C1774 C 0.96223 0.83049 0.42908 0.0
H1775 H 0.93476 0.9184 0.33092 0.0
H1776 H 0.94145 0.89953 0.37464 0.0
H1777 H 0.98984 0.84566 0.3711 0.0
H1778 H 0.97922 0.76059 0.46164 0.0
H1779 H 0.97745 0.78819 0.42583 0.0
C1780 C 0.56746 0.71683 0.05589 0.0
C1781 C 0.54547 0.70929 0.05505 0.0
C1782 C 0.57781 0.72088 0.08094 0.0
C1783 C 0.57741 0.70475 0.15277 0.0
H1784 H 0.61397 0.75727 0.16168 0.0
C1785 C 0.63073 0.72067 0.24997 0.0
C1786 C 0.65245 0.72794 0.24458 0.0
C1787 C 0.61495 0.7201 0.22897 0.0
C1788 C 0.60389 0.74248 0.15949 0.0
H1789 H 0.51702 0.70005 0.07967 0.0
H1790 H 0.53533 0.70692 0.12376 0.0
H1791 H 0.59134 0.75305 0.12068 0.0
H1792 H 0.67449 0.74042 0.21284 0.0
H1793 H 0.64729 0.73912 0.17658 0.0
H1794 H 0.59064 0.69377 0.19111 0.0
C1795 C 0.54445 0.70975 0.10494 0.0
C1796 C 0.59092 0.7401 0.13605 0.0
C1797 C 0.53398 0.70595 0.07979 0.0
C1798 C 0.65794 0.73477 0.21786 0.0
C1799 C 0.64225 0.73421 0.19702 0.0
C1800 C 0.59054 0.70706 0.17621 0.0
C1801 C 0.56646 0.7173 0.10572 0.0
C1802 C 0.57798 0.72097 0.13213 0.0
C1803 C 0.62057 0.72688 0.20226 0.0
C1804 C 0.60437 0.72569 0.17944 0.0
H1805 H 0.57663 0.71974 0.03712 0.0
H1806 H 0.59487 0.72646 0.08094 0.0
H1807 H 0.56765 0.68978 0.15018 0.0
H1808 H 0.62594 0.71534 0.27033 0.0
H1809 H 0.59834 0.71447 0.23366 0.0
C1810 C 0.72567 0.39894 -0.00745 0.0
C1811 C 0.71135 0.41719 -0.00899 0.0
C1812 C 0.72819 0.38474 0.97003 0.0
C1813 C 0.72134 0.38501 0.89498 0.0
H1814 H 0.72701 0.32116 0.90067 0.0
C1815 C 0.71837 0.32884 0.80025 0.0
C1816 C 0.73447 0.3122 0.79827 0.0
C1817 C 0.71555 0.3406 0.82463 0.0
C1818 C 0.72564 0.339 0.89886 0.0
H1819 H 0.68743 0.43406 0.96536 0.0
H1820 H 0.69151 0.40919 0.92655 0.0
H1821 H 0.72168 0.34337 0.94223 0.0
H1822 H 0.75986 0.29442 0.82046 0.0
H1823 H 0.75502 0.31521 0.86318 0.0
H1824 H 0.72514 0.38073 0.85174 0.0
C1825 C 0.7013 0.40617 0.94474 0.0
C1826 C 0.72261 0.3517 0.9226 0.0
C1827 C 0.6989 0.42038 0.96706 0.0
C1828 C 0.74748 0.30732 0.82134 0.0
C1829 C 0.74456 0.31904 0.84583 0.0
C1830 C 0.72426 0.37236 0.87134 0.0
C1831 C 0.71636 0.38852 0.94568 0.0
C1832 C 0.7202 0.37483 0.92085 0.0
C1833 C 0.72872 0.33595 0.8476 0.0
C1834 C 0.72624 0.34922 0.87299 0.0
H1835 H 0.73549 0.39609 0.01074 0.0
H1836 H 0.73998 0.37132 0.97133 0.0
H1837 H 0.72011 0.40285 0.89298 0.0
H1838 H 0.70822 0.33309 0.78276 0.0
H1839 H 0.70303 0.35339 0.82551 0.0
C1840 C 0.38484 0.25299 0.22952 0.0
C1841 C 0.40718 0.25905 0.22694 0.0
C1842 C 0.37393 0.25546 0.25456 0.0
C1843 C 0.37779 0.29348 0.31227 0.0
H1844 H 0.32157 0.26611 0.33064 0.0
C1845 C 0.31333 0.34437 0.36776 0.0
C1846 C 0.29372 0.34527 0.35236 0.0
C1847 C 0.32828 0.32704 0.36386 0.0
C1848 C 0.33737 0.2738 0.32605 0.0
H1849 H 0.43634 0.26985 0.24905 0.0
H1850 H 0.41742 0.27369 0.2931 0.0
H1851 H 0.34805 0.246 0.30212 0.0
H1852 H 0.2736 0.3278 0.32246 0.0
H1853 H 0.29964 0.29784 0.31546 0.0
H1854 H 0.36674 0.32173 0.33463 0.0
C1855 C 0.40813 0.26767 0.27561 0.0
C1856 C 0.35252 0.26232 0.30968 0.0
C1857 C 0.41898 0.26546 0.25045 0.0
C1858 C 0.2885 0.32755 0.33476 0.0
C1859 C 0.30344 0.31026 0.33084 0.0
C1860 C 0.36275 0.30486 0.32871 0.0
C1861 C 0.3852 0.26389 0.27759 0.0
C1862 C 0.37235 0.27258 0.30129 0.0
C1863 C 0.32393 0.31034 0.34443 0.0
C1864 C 0.34188 0.29566 0.33448 0.0
H1865 H 0.37532 0.24808 0.2117 0.0
H1866 H 0.35625 0.25255 0.25511 0.0
H1867 H 0.39276 0.30208 0.30616 0.0
H1868 H 0.31756 0.35757 0.38193 0.0
H1869 H 0.34379 0.32736 0.37495 0.0
C1870 C 0.69907 0.61508 0.45051 0.0
C1871 C 0.68821 0.61434 0.4251 0.0
C1872 C 0.69978 0.59627 0.46715 0.0
C1873 C 0.68263 0.53632 0.47068 0.0
H1874 H 0.66063 0.5545 0.54186 0.0
C1875 C 0.60913 0.49743 0.52372 0.0
C1876 C 0.60616 0.5003 0.55206 0.0
C1877 C 0.62885 0.50404 0.5112 0.0
C1878 C 0.66735 0.54883 0.5225 0.0
H1879 H 0.671 0.59309 0.39625 0.0
H1880 H 0.67149 0.56057 0.42546 0.0
H1881 H 0.67879 0.58131 0.51295 0.0
H1882 H 0.62242 0.50939 0.59004 0.0
H1883 H 0.657 0.52083 0.56818 0.0
H1884 H 0.66936 0.50412 0.4797 0.0
C1885 C 0.67999 0.57537 0.43247 0.0
C1886 C 0.67786 0.56433 0.50576 0.0
C1887 C 0.67954 0.59409 0.41573 0.0
C1888 C 0.62415 0.50746 0.56805 0.0
C1889 C 0.64393 0.51397 0.55554 0.0
C1890 C 0.67198 0.52077 0.48744 0.0
C1891 C 0.6893 0.57647 0.45888 0.0
C1892 C 0.68449 0.5586 0.47904 0.0
C1893 C 0.64598 0.5136 0.52682 0.0
C1894 C 0.66313 0.52723 0.5129 0.0
H1895 H 0.70625 0.63044 0.45795 0.0
H1896 H 0.70752 0.59757 0.4871 0.0
H1897 H 0.68808 0.53121 0.45048 0.0
H1898 H 0.59555 0.492 0.51086 0.0
H1899 H 0.62975 0.50363 0.48903 0.0
C1900 C 0.35047 0.93479 0.63657 0.0
C1901 C 0.33688 0.91611 0.6323 0.0
C1902 C 0.37258 0.93221 0.64433 0.0
C1903 C 0.40896 0.92066 0.68454 0.0
H1904 H 0.43964 0.86564 0.66992 0.0
C1905 C 0.44012 0.86683 0.76878 0.0
C1906 C 0.45437 0.84908 0.76331 0.0
C1907 C 0.4357 0.88249 0.74858 0.0
C1908 C 0.43194 0.88148 0.674 0.0
H1909 H 0.33629 0.8802 0.63039 0.0
H1910 H 0.37424 0.87562 0.64485 0.0
H1911 H 0.41263 0.87898 0.63748 0.0
H1912 H 0.47753 0.83542 0.73391 0.0
H1913 H 0.47028 0.86319 0.69869 0.0
H1914 H 0.42808 0.923 0.72127 0.0
C1915 C 0.36818 0.89232 0.64196 0.0
C1916 C 0.4161 0.88896 0.65547 0.0
C1917 C 0.3462 0.89491 0.63415 0.0
C1918 C 0.46611 0.84874 0.73842 0.0
C1919 C 0.46189 0.86461 0.71825 0.0
C1920 C 0.42515 0.91341 0.70282 0.0
C1921 C 0.3815 0.91091 0.64794 0.0
C1922 C 0.40319 0.90763 0.66168 0.0
C1923 C 0.44558 0.88086 0.72247 0.0
C1924 C 0.43549 0.89279 0.6989 0.0
H1925 H 0.34375 0.95137 0.63519 0.0
H1926 H 0.38244 0.94687 0.64847 0.0
H1927 H 0.3996 0.93531 0.68988 0.0
H1928 H 0.43075 0.86748 0.78772 0.0
H1929 H 0.4229 0.89454 0.75275 0.0
C1930 C 0.14032 0.59184 0.05803 0.0
C1931 C 0.16119 0.60208 0.05894 0.0
C1932 C 0.13821 0.56981 0.04985 0.0
C1933 C 0.16604 0.53046 0.00493 0.0
H1934 H 0.11288 0.49736 0.02262 0.0
C1935 C 1.09321 0.4717 0.95476 0.0
C1936 C 1.09223 0.48383 0.93023 0.0
C1937 C 0.10994 0.47595 0.97383 0.0
C1938 C 0.12823 0.50574 0.01763 0.0
H1939 H 0.19641 0.59682 0.05382 0.0
H1940 H 0.19276 0.55801 0.0398 0.0
H1941 H 0.12678 0.52466 0.05465 0.0
H1942 H 0.10917 0.50818 0.90514 0.0
H1943 H 0.13767 0.51613 0.93829 0.0
H1944 H 0.16735 0.5117 0.96774 0.0
C1945 C 0.17798 0.56719 0.04504 0.0
C1946 C 0.13602 0.52174 0.03595 0.0
C1947 C 0.18009 0.58937 0.05319 0.0
C1948 C 0.10952 0.49852 0.92384 0.0
C1949 C 0.12603 0.50299 0.94299 0.0
C1950 C 0.15853 0.51409 -0.01315 0.0
C1951 C 0.15695 0.55733 0.04254 0.0
C1952 C 0.15388 0.53553 0.02872 0.0
C1953 C 0.12573 0.49272 0.96892 0.0
C1954 C 0.13846 0.5029 -0.0081 0.0
H1955 H 0.12549 0.60107 0.06292 0.0
H1956 H 0.12169 0.56302 0.04782 0.0
H1957 H 0.18009 0.54049 -0.00118 0.0
H1958 H 1.08026 0.45994 0.95992 0.0
H1959 H 0.10955 0.46722 -0.00679 0.0
C1960 C 0.84236 0.87875 0.82935 0.0
C1961 C 0.83799 0.90061 0.83753 0.0
C1962 C 0.8638 0.87236 0.82252 0.0
C1963 C 0.91309 0.89785 0.79303 0.0
H1964 H 0.92996 0.83603 0.78961 0.0
C1965 C 0.95959 0.82869 0.7202 0.0
C1966 C 0.95007 0.83626 0.69569 0.0
C1967 C 0.95653 0.84047 0.74464 0.0
C1968 C 0.92615 0.85352 0.7908 0.0
H1969 H 0.85291 0.93235 0.8476 0.0
H1970 H 0.89055 0.92113 0.83584 0.0
H1971 H 0.90368 0.84806 0.82401 0.0
H1972 H 0.93258 0.86347 0.67675 0.0
H1973 H 0.92655 0.88356 0.7191 0.0
H1974 H 0.93518 0.9032 0.75938 0.0
C1975 C 0.87731 0.90906 0.83413 0.0
C1976 C 0.91075 0.86036 0.81037 0.0
C1977 C 0.85577 0.91549 0.84082 0.0
C1978 C 0.93969 0.85702 0.69547 0.0
C1979 C 0.9365 0.8687 0.71984 0.0
C1980 C 0.92877 0.89108 0.77373 0.0
C1981 C 0.88144 0.88767 0.82384 0.0
C1982 C 0.90281 0.88223 0.81032 0.0
C1983 C 0.94377 0.85992 0.74498 0.0
C1984 C 0.93418 0.86852 0.77102 0.0
H1985 H 0.829 0.86696 0.82638 0.0
H1986 H 0.86617 0.85586 0.81426 0.0
H1987 H 0.90759 0.9149 0.79249 0.0
H1988 H 0.96779 0.81277 0.721 0.0
H1989 H 0.96279 0.83349 0.76353 0.0
C1990 C 0.83886 0.45632 0.17227 0.0
C1991 C 0.83162 0.43711 0.15854 0.0
C1992 C 0.8595 0.45674 0.18526 0.0
C1993 C 0.89205 0.4438 0.22987 0.0
H1994 H 0.93758 0.40262 0.20731 0.0
C1995 C 0.92451 0.37958 0.30114 0.0
C1996 C 0.94306 0.36685 0.29424 0.0
C1997 C 0.91906 0.3982 0.28574 0.0
C1998 C 0.92559 0.41474 0.21405 0.0
H1999 H 0.84093 0.40404 0.14561 0.0
H2000 H 0.87624 0.40436 0.16878 0.0
H2001 H 0.91276 0.41766 0.17346 0.0
H2002 H 0.97208 0.36512 0.26827 0.0
H2003 H 0.96308 0.39825 0.24187 0.0
H2004 H 0.90482 0.4408 0.27052 0.0
C2005 C 0.86639 0.4193 0.16944 0.0
C2006 C 0.91105 0.42313 0.19453 0.0
C2007 C 0.8459 0.41892 0.15653 0.0
C2008 C 0.95744 0.37447 0.27363 0.0
C2009 C 0.95219 0.39339 0.25847 0.0
C2010 C 0.90696 0.43583 0.24933 0.0
C2011 C 0.87325 0.43797 0.18462 0.0
C2012 C 0.89299 0.4362 0.20262 0.0
C2013 C 0.93219 0.40468 0.26321 0.0
C2014 C 0.92267 0.41969 0.24205 0.0
H2015 H 0.82819 0.47063 0.17404 0.0
H2016 H 0.86435 0.47145 0.19657 0.0
H2017 H 0.87859 0.45416 0.23686 0.0
H2018 H 0.91307 0.37404 0.31685 0.0
H2019 H 0.90342 0.40613 0.29009 0.0
C2020 C 0.14001 1.08198 0.87278 0.0
C2021 C 0.16176 1.08996 0.87066 0.0
C2022 C 0.13587 1.06082 0.88311 0.0
C2023 C 0.16182 1.02327 0.93212 0.0
H2024 H 0.10428 0.99542 0.92508 0.0
C2025 C 1.08833 0.97669 -0.0015 0.0
C2026 C 1.09029 0.99082 0.02134 0.0
C2027 C 0.10345 0.9782 0.97682 0.0
C2028 C 0.12074 1.00234 0.92716 0.0
H2029 H 0.19634 1.08131 0.87469 0.0
H2030 H 0.18917 1.044 0.89213 0.0
H2031 H 0.11876 1.01744 0.88765 0.0
H2032 H 0.11109 1.01545 0.04104 0.0
H2033 H 0.13672 1.01883 0.00318 0.0
H2034 H 0.16372 1.00832 0.97173 0.0
C2035 C 0.17525 1.05431 0.88665 0.0
C2036 C 0.12891 1.01534 0.90573 0.0
C2037 C 0.17938 1.07564 0.8766 0.0
C2038 C 0.10888 1.00473 0.02339 0.0
C2039 C 0.12382 1.00639 0.00171 0.0
C2040 C 0.15387 1.00988 0.95331 0.0
C2041 C 0.15342 1.04705 0.89132 0.0
C2042 C 0.14871 1.02739 0.90887 0.0
C2043 C 0.12065 0.994 0.9775 0.0
C2044 C 0.13246 1.00074 0.95199 0.0
H2045 H 0.12611 1.0927 0.86854 0.0
H2046 H 0.11882 1.0561 0.88668 0.0
H2047 H 0.17728 1.03201 0.93533 0.0
H2048 H 1.07424 0.96568 -0.00361 0.0
H2049 H 0.10079 0.96802 0.9588 0.0
C2050 C 0.65748 1.08722 0.57966 0.0
C2051 C 0.6405 0.10307 0.57898 0.0
C2052 C 0.65309 1.06509 0.57289 0.0
C2053 C 0.60707 1.02565 0.55623 0.0
H2054 H 0.64651 1.00675 0.49806 0.0
C2055 C 0.59432 0.99633 0.4429 0.0
C2056 C 0.57521 0.98343 0.44672 0.0
C2057 C 0.60834 1.00081 0.46491 0.0
C2058 C 0.63542 1.01157 0.51446 0.0
H2059 H 0.60535 0.10788 0.57298 0.0
H2060 H 0.59777 1.06966 0.56043 0.0
H2061 H 0.65816 1.03596 0.52929 0.0
H2062 H 0.55745 0.96244 0.47536 0.0
H2063 H 0.5822 0.96994 0.51384 0.0
H2064 H 0.58339 1.00313 0.53966 0.0
C2065 C 0.61445 1.07406 0.56645 0.0
C2066 C 0.64221 1.0282 0.53262 0.0
C2067 C 0.61883 1.09611 0.57321 0.0
C2068 C 0.57186 0.97285 0.47205 0.0
C2069 C 0.58601 0.97718 0.49407 0.0
C2070 C 0.60018 1.00926 0.53788 0.0
C2071 C 0.63164 1.05841 0.56536 0.0
C2072 C 0.6275 1.03643 0.55253 0.0
C2073 C 0.60358 0.99238 0.49118 0.0
C2074 C 0.61372 1.00314 0.51562 0.0
H2075 H 0.67437 1.09211 0.584 0.0
H2076 H 0.66665 1.05341 0.57248 0.0
H2077 H 0.59562 1.03117 0.57191 0.0
H2078 H 0.59732 1.00477 0.42365 0.0
H2079 H 0.62157 1.0127 0.46176 0.0
loop_
_geom_bond_atom_site_label_1
_geom_bond_atom_site_label_2
_geom_bond_distance
_geom_bond_site_symmetry_2
_ccdc_geom_bond_type
Eu0 C9 2.828 1_554 S
Eu0 O11 2.392 . S
Eu0 O13 2.418 . S
Eu0 O18 2.373 . S
Eu0 O21 2.488 1_554 S
Eu0 O22 2.471 1_554 S
Eu0 O23 2.349 . S
Eu1 O10 2.373 . S
Eu1 O14 2.488 . S
Eu1 O15 2.471 . S
Eu1 O16 2.349 . S
Eu1 O19 2.392 . S
Eu1 O20 2.418 . S
Eu1 C30 2.828 . S
C2 O20 1.244 . S
C2 O23 1.265 . S
C3 C4 1.379 . S
C3 C7 1.373 . S
C3 C9 1.505 . S
C4 C3 1.379 . S
C4 C6 1.369 . S
C4 H32 0.930 . S
C5 C7 1.383 . S
C5 C8 1.382 . S
C5 H33 0.930 . S
C6 C4 1.369 . S
C6 C8 1.392 . S
C6 H34 0.930 . S
C7 C3 1.373 . S
C7 C5 1.383 . S
C7 H35 0.931 . S
C8 C5 1.382 . S
C8 C6 1.392 . S
C9 Eu0 2.828 1_556 S
C9 C3 1.505 . S
C9 O21 1.249 . S
C9 O22 1.244 . S
O10 Eu1 2.373 . S
O10 C12 1.258 . S
O11 Eu0 2.392 . S
O11 C12 1.242 . S
C12 O10 1.258 . S
C12 O11 1.242 . S
O13 Eu0 2.418 . S
O13 C17 1.244 . S
O14 Eu1 2.488 . S
O14 C30 1.249 . S
O15 Eu1 2.471 . S
O15 C30 1.244 . S
O16 Eu1 2.349 . S
O16 C17 1.265 . S
C17 O13 1.244 . S
C17 O16 1.265 . S
O18 Eu0 2.373 . S
O18 C31 1.258 . S
O19 Eu1 2.392 . S
O19 C31 1.242 . S
O20 Eu1 2.418 . S
O20 C2 1.244 . S
O21 Eu0 2.488 1_556 S
O21 C9 1.249 . S
O22 Eu0 2.471 1_556 S
O22 C9 1.244 . S
O23 Eu0 2.349 . S
O23 C2 1.265 . S
C24 C25 1.379 . S
C24 C28 1.373 . S
C24 C30 1.505 . S
C25 C24 1.379 . S
C25 C27 1.369 . S
C25 H36 0.930 . S
C26 C28 1.383 . S
C26 C29 1.382 . S
C26 H37 0.930 . S
C27 C25 1.369 . S
C27 C29 1.392 . S
C27 H38 0.930 . S
C28 C24 1.373 . S
C28 C26 1.383 . S
C28 H39 0.931 . S
C29 C26 1.382 . S
C29 C27 1.392 . S
C30 Eu1 2.828 . S
C30 O14 1.249 . S
C30 O15 1.244 . S
C30 C24 1.505 . S
C31 O18 1.258 . S
C31 O19 1.242 . S
H32 C4 0.930 . S
H33 C5 0.930 . S
H34 C6 0.930 . S
H35 C7 0.931 . S
H36 C25 0.930 . S
H37 C26 0.930 . S
H38 C27 0.930 . S
H39 C28 0.931 . S
Eu40 C49 2.828 . S
Eu40 O51 2.392 . S
Eu40 O53 2.418 . S
Eu40 O58 2.373 . S
Eu40 O61 2.488 . S
Eu40 O62 2.471 . S
Eu40 O63 2.349 . S
Eu41 O50 2.373 . S
Eu41 O54 2.488 . S
Eu41 O55 2.471 . S
Eu41 O56 2.349 . S
Eu41 O59 2.392 . S
Eu41 O60 2.418 . S
Eu41 C70 2.828 . S
C42 O60 1.244 . S
C42 O63 1.265 . S
C43 C44 1.379 . S
C43 C47 1.373 . S
C43 C49 1.505 . S
C44 C43 1.379 . S
C44 C46 1.369 . S
C44 H72 0.930 . S
C45 C47 1.383 . S
C45 C48 1.382 . S
C45 H73 0.930 . S
C46 C44 1.369 . S
C46 C48 1.392 . S
C46 H74 0.930 . S
C47 C43 1.373 . S
C47 C45 1.383 . S
C47 H75 0.931 . S
C48 C45 1.382 . S
C48 C46 1.392 . S
C49 Eu40 2.828 . S
C49 C43 1.505 . S
C49 O61 1.249 . S
C49 O62 1.244 . S
O50 Eu41 2.373 . S
O50 C52 1.258 . S
O51 Eu40 2.392 . S
O51 C52 1.242 . S
C52 O50 1.258 . S
C52 O51 1.242 . S
O53 Eu40 2.418 . S
O53 C57 1.244 . S
O54 Eu41 2.488 . S
O54 C70 1.249 . S
O55 Eu41 2.471 . S
O55 C70 1.244 . S
O56 Eu41 2.349 . S
O56 C57 1.265 . S
C57 O53 1.244 . S
C57 O56 1.265 . S
O58 Eu40 2.373 . S
O58 C71 1.258 . S
O59 Eu41 2.392 . S
O59 C71 1.242 . S
O60 Eu41 2.418 . S
O60 C42 1.244 . S
O61 Eu40 2.488 . S
O61 C49 1.249 . S
O62 Eu40 2.471 . S
O62 C49 1.244 . S
O63 Eu40 2.349 . S
O63 C42 1.265 . S
C64 C65 1.379 . S
C64 C68 1.373 . S
C64 C70 1.505 . S
C65 C64 1.379 . S
C65 C67 1.369 . S
C65 H76 0.930 . S
C66 C68 1.383 . S
C66 C69 1.382 . S
C66 H77 0.930 . S
C67 C65 1.369 . S
C67 C69 1.392 . S
C67 H78 0.930 . S
C68 C64 1.373 . S
C68 C66 1.383 . S
C68 H79 0.931 . S
C69 C66 1.382 . S
C69 C67 1.392 . S
C70 Eu41 2.828 . S
C70 O54 1.249 . S
C70 O55 1.244 . S
C70 C64 1.505 . S
C71 O58 1.258 . S
C71 O59 1.242 . S
H72 C44 0.930 . S
H73 C45 0.930 . S
H74 C46 0.930 . S
H75 C47 0.931 . S
H76 C65 0.930 . S
H77 C66 0.930 . S
H78 C67 0.930 . S
H79 C68 0.931 . S
Eu80 C89 2.828 . S
Eu80 O91 2.392 . S
Eu80 O93 2.418 . S
Eu80 O98 2.373 . S
Eu80 O101 2.488 . S
Eu80 O102 2.471 . S
Eu80 O103 2.349 . S
Eu81 O90 2.373 . S
Eu81 O94 2.488 . S
Eu81 O95 2.471 . S
Eu81 O96 2.349 . S
Eu81 O99 2.392 . S
Eu81 O100 2.418 . S
Eu81 C110 2.828 . S
C82 O100 1.244 . S
C82 O103 1.265 . S
C83 C84 1.379 . S
C83 C87 1.373 . S
C83 C89 1.505 . S
C84 C83 1.379 . S
C84 C86 1.369 . S
C84 H112 0.930 . S
C85 C87 1.383 . S
C85 C88 1.382 . S
C85 H113 0.930 . S
C86 C84 1.369 . S
C86 C88 1.392 . S
C86 H114 0.930 . S
C87 C83 1.373 . S
C87 C85 1.383 . S
C87 H115 0.931 . S
C88 C85 1.382 . S
C88 C86 1.392 . S
C89 Eu80 2.828 . S
C89 C83 1.505 . S
C89 O101 1.249 . S
C89 O102 1.244 . S
O90 Eu81 2.373 . S
O90 C92 1.258 . S
O91 Eu80 2.392 . S
O91 C92 1.242 . S
C92 O90 1.258 . S
C92 O91 1.242 . S
O93 Eu80 2.418 . S
O93 C97 1.244 . S
O94 Eu81 2.488 . S
O94 C110 1.249 . S
O95 Eu81 2.471 . S
O95 C110 1.244 . S
O96 Eu81 2.349 . S
O96 C97 1.265 . S
C97 O93 1.244 . S
C97 O96 1.265 . S
O98 Eu80 2.373 . S
O98 C111 1.258 . S
O99 Eu81 2.392 . S
O99 C111 1.242 . S
O100 Eu81 2.418 . S
O100 C82 1.244 . S
O101 Eu80 2.488 . S
O101 C89 1.249 . S
O102 Eu80 2.471 . S
O102 C89 1.244 . S
O103 Eu80 2.349 . S
O103 C82 1.265 . S
C104 C105 1.379 . S
C104 C108 1.373 . S
C104 C110 1.505 . S
C105 C104 1.379 . S
C105 C107 1.369 . S
C105 H116 0.930 . S
C106 C108 1.383 . S
C106 C109 1.382 . S
C106 H117 0.930 . S
C107 C105 1.369 . S
C107 C109 1.392 . S
C107 H118 0.930 . S
C108 C104 1.373 . S
C108 C106 1.383 . S
C108 H119 0.931 . S
C109 C106 1.382 . S
C109 C107 1.392 . S
C110 Eu81 2.828 . S
C110 O94 1.249 . S
C110 O95 1.244 . S
C110 C104 1.505 . S
C111 O98 1.258 . S
C111 O99 1.242 . S
H112 C84 0.930 . S
H113 C85 0.930 . S
H114 C86 0.930 . S
H115 C87 0.931 . S
H116 C105 0.930 . S
H117 C106 0.930 . S
H118 C107 0.930 . S
H119 C108 0.931 . S
Eu120 C129 2.828 . S
Eu120 O131 2.392 . S
Eu120 O133 2.418 . S
Eu120 O138 2.373 . S
Eu120 O141 2.488 . S
Eu120 O142 2.471 . S
Eu120 O143 2.349 . S
Eu121 O130 2.373 . S
Eu121 O134 2.488 . S
Eu121 O135 2.471 . S
Eu121 O136 2.349 . S
Eu121 O139 2.392 . S
Eu121 O140 2.418 . S
Eu121 C150 2.828 . S
C122 O140 1.244 . S
C122 O143 1.265 . S
C123 C124 1.379 . S
C123 C127 1.373 . S
C123 C129 1.505 . S
C124 C123 1.379 . S
C124 C126 1.369 . S
C124 H152 0.930 . S
C125 C127 1.383 . S
C125 C128 1.382 . S
C125 H153 0.930 . S
C126 C124 1.369 . S
C126 C128 1.392 . S
C126 H154 0.930 . S
C127 C123 1.373 . S
C127 C125 1.383 . S
C127 H155 0.931 . S
C128 C125 1.382 . S
C128 C126 1.392 . S
C129 Eu120 2.828 . S
C129 C123 1.505 . S
C129 O141 1.249 . S
C129 O142 1.244 . S
O130 Eu121 2.373 . S
O130 C132 1.258 . S
O131 Eu120 2.392 . S
O131 C132 1.242 . S
C132 O130 1.258 . S
C132 O131 1.242 . S
O133 Eu120 2.418 . S
O133 C137 1.244 . S
O134 Eu121 2.488 . S
O134 C150 1.249 . S
O135 Eu121 2.471 . S
O135 C150 1.244 . S
O136 Eu121 2.349 . S
O136 C137 1.265 . S
C137 O133 1.244 . S
C137 O136 1.265 . S
O138 Eu120 2.373 . S
O138 C151 1.258 . S
O139 Eu121 2.392 . S
O139 C151 1.242 . S
O140 Eu121 2.418 . S
O140 C122 1.244 . S
O141 Eu120 2.488 . S
O141 C129 1.249 . S
O142 Eu120 2.471 . S
O142 C129 1.244 . S
O143 Eu120 2.349 . S
O143 C122 1.265 . S
C144 C145 1.379 . S
C144 C148 1.373 . S
C144 C150 1.505 . S
C145 C144 1.379 . S
C145 C147 1.369 . S
C145 H156 0.930 . S
C146 C148 1.383 . S
C146 C149 1.382 . S
C146 H157 0.930 . S
C147 C145 1.369 . S
C147 C149 1.392 . S
C147 H158 0.930 . S
C148 C144 1.373 . S
C148 C146 1.383 . S
C148 H159 0.931 . S
C149 C146 1.382 . S
C149 C147 1.392 . S
C150 Eu121 2.828 . S
C150 O134 1.249 . S
C150 O135 1.244 . S
C150 C144 1.505 . S
C151 O138 1.258 . S
C151 O139 1.242 . S
H152 C124 0.930 . S
H153 C125 0.930 . S
H154 C126 0.930 . S
H155 C127 0.931 . S
H156 C145 0.930 . S
H157 C146 0.930 . S
H158 C147 0.930 . S
H159 C148 0.931 . S
Eu160 C169 2.828 . S
Eu160 O171 2.392 . S
Eu160 O173 2.418 . S
Eu160 O178 2.373 . S
Eu160 O181 2.488 . S
Eu160 O182 2.471 . S
Eu160 O183 2.349 . S
Eu161 O170 2.373 . S
Eu161 O174 2.488 1_556 S
Eu161 O175 2.471 1_556 S
Eu161 O176 2.349 . S
Eu161 O179 2.392 . S
Eu161 O180 2.418 . S
Eu161 C190 2.828 1_556 S
C162 O180 1.244 . S
C162 O183 1.265 . S
C163 C164 1.379 . S
C163 C167 1.373 . S
C163 C169 1.505 . S
C164 C163 1.379 . S
C164 C166 1.369 . S
C164 H192 0.930 . S
C165 C167 1.383 . S
C165 C168 1.382 . S
C165 H193 0.930 . S
C166 C164 1.369 . S
C166 C168 1.392 . S
C166 H194 0.930 . S
C167 C163 1.373 . S
C167 C165 1.383 . S
C167 H195 0.931 . S
C168 C165 1.382 . S
C168 C166 1.392 . S
C169 Eu160 2.828 . S
C169 C163 1.505 . S
C169 O181 1.249 . S
C169 O182 1.244 . S
O170 Eu161 2.373 . S
O170 C172 1.258 . S
O171 Eu160 2.392 . S
O171 C172 1.242 . S
C172 O170 1.258 . S
C172 O171 1.242 . S
O173 Eu160 2.418 . S
O173 C177 1.244 . S
O174 Eu161 2.488 1_554 S
O174 C190 1.249 . S
O175 Eu161 2.471 1_554 S
O175 C190 1.244 . S
O176 Eu161 2.349 . S
O176 C177 1.265 . S
C177 O173 1.244 . S
C177 O176 1.265 . S
O178 Eu160 2.373 . S
O178 C191 1.258 . S
O179 Eu161 2.392 . S
O179 C191 1.242 . S
O180 Eu161 2.418 . S
O180 C162 1.244 . S
O181 Eu160 2.488 . S
O181 C169 1.249 . S
O182 Eu160 2.471 . S
O182 C169 1.244 . S
O183 Eu160 2.349 . S
O183 C162 1.265 . S
C184 C185 1.379 . S
C184 C188 1.373 . S
C184 C190 1.505 . S
C185 C184 1.379 . S
C185 C187 1.369 . S
C185 H196 0.930 . S
C186 C188 1.383 . S
C186 C189 1.382 . S
C186 H197 0.930 . S
C187 C185 1.369 . S
C187 C189 1.392 . S
C187 H198 0.930 . S
C188 C184 1.373 . S
C188 C186 1.383 . S
C188 H199 0.931 . S
C189 C186 1.382 . S
C189 C187 1.392 . S
C190 Eu161 2.828 1_554 S
C190 O174 1.249 . S
C190 O175 1.244 . S
C190 C184 1.505 . S
C191 O178 1.258 . S
C191 O179 1.242 . S
H192 C164 0.930 . S
H193 C165 0.930 . S
H194 C166 0.930 . S
H195 C167 0.931 . S
H196 C185 0.930 . S
H197 C186 0.930 . S
H198 C187 0.930 . S
H199 C188 0.931 . S
Eu200 C209 2.828 . S
Eu200 O211 2.392 . S
Eu200 O213 2.418 . S
Eu200 O218 2.373 . S
Eu200 O221 2.488 . S
Eu200 O222 2.471 . S
Eu200 O223 2.349 . S
Eu201 O210 2.373 . S
Eu201 O214 2.488 . S
Eu201 O215 2.471 . S
Eu201 O216 2.349 . S
Eu201 O219 2.392 . S
Eu201 O220 2.418 . S
Eu201 C230 2.828 . S
C202 O220 1.244 . S
C202 O223 1.265 . S
C203 C204 1.379 . S
C203 C207 1.373 . S
C203 C209 1.505 . S
C204 C203 1.379 . S
C204 C206 1.369 . S
C204 H232 0.930 . S
C205 C207 1.383 . S
C205 C208 1.382 . S
C205 H233 0.930 . S
C206 C204 1.369 . S
C206 C208 1.392 . S
C206 H234 0.930 . S
C207 C203 1.373 . S
C207 C205 1.383 . S
C207 H235 0.931 . S
C208 C205 1.382 . S
C208 C206 1.392 . S
C209 Eu200 2.828 . S
C209 C203 1.505 . S
C209 O221 1.249 . S
C209 O222 1.244 . S
O210 Eu201 2.373 . S
O210 C212 1.258 . S
O211 Eu200 2.392 . S
O211 C212 1.242 . S
C212 O210 1.258 . S
C212 O211 1.242 . S
O213 Eu200 2.418 . S
O213 C217 1.244 . S
O214 Eu201 2.488 . S
O214 C230 1.249 . S
O215 Eu201 2.471 . S
O215 C230 1.244 . S
O216 Eu201 2.349 . S
O216 C217 1.265 . S
C217 O213 1.244 . S
C217 O216 1.265 . S
O218 Eu200 2.373 . S
O218 C231 1.258 . S
O219 Eu201 2.392 . S
O219 C231 1.242 . S
O220 Eu201 2.418 . S
O220 C202 1.244 . S
O221 Eu200 2.488 . S
O221 C209 1.249 . S
O222 Eu200 2.471 . S
O222 C209 1.244 . S
O223 Eu200 2.349 . S
O223 C202 1.265 . S
C224 C225 1.379 . S
C224 C228 1.373 . S
C224 C230 1.505 . S
C225 C224 1.379 . S
C225 C227 1.369 . S
C225 H236 0.930 . S
C226 C228 1.383 . S
C226 C229 1.382 . S
C226 H237 0.930 . S
C227 C225 1.369 . S
C227 C229 1.392 . S
C227 H238 0.930 . S
C228 C224 1.373 . S
C228 C226 1.383 . S
C228 H239 0.931 . S
C229 C226 1.382 . S
C229 C227 1.392 . S
C230 Eu201 2.828 . S
C230 O214 1.249 . S
C230 O215 1.244 . S
C230 C224 1.505 . S
C231 O218 1.258 . S
C231 O219 1.242 . S
H232 C204 0.930 . S
H233 C205 0.930 . S
H234 C206 0.930 . S
H235 C207 0.931 . S
H236 C225 0.930 . S
H237 C226 0.930 . S
H238 C227 0.930 . S
H239 C228 0.931 . S
Eu240 C249 2.828 . S
Eu240 O251 2.392 . S
Eu240 O253 2.418 . S
Eu240 O258 2.373 . S
Eu240 O261 2.488 . S
Eu240 O262 2.471 . S
Eu240 O263 2.349 . S
Eu241 O250 2.373 . S
Eu241 O254 2.488 . S
Eu241 O255 2.471 . S
Eu241 O256 2.349 . S
Eu241 O259 2.392 . S
Eu241 O260 2.418 . S
Eu241 C270 2.828 . S
C242 O260 1.244 . S
C242 O263 1.265 . S
C243 C244 1.379 . S
C243 C247 1.373 . S
C243 C249 1.505 . S
C244 C243 1.379 . S
C244 C246 1.369 . S
C244 H272 0.930 . S
C245 C247 1.383 . S
C245 C248 1.382 . S
C245 H273 0.930 . S
C246 C244 1.369 . S
C246 C248 1.392 . S
C246 H274 0.930 . S
C247 C243 1.373 . S
C247 C245 1.383 . S
C247 H275 0.931 . S
C248 C245 1.382 . S
C248 C246 1.392 . S
C249 Eu240 2.828 . S
C249 C243 1.505 . S
C249 O261 1.249 . S
C249 O262 1.244 . S
O250 Eu241 2.373 . S
O250 C252 1.258 . S
O251 Eu240 2.392 . S
O251 C252 1.242 . S
C252 O250 1.258 . S
C252 O251 1.242 . S
O253 Eu240 2.418 . S
O253 C257 1.244 . S
O254 Eu241 2.488 . S
O254 C270 1.249 . S
O255 Eu241 2.471 . S
O255 C270 1.244 . S
O256 Eu241 2.349 . S
O256 C257 1.265 . S
C257 O253 1.244 . S
C257 O256 1.265 . S
O258 Eu240 2.373 . S
O258 C271 1.258 . S
O259 Eu241 2.392 . S
O259 C271 1.242 . S
O260 Eu241 2.418 . S
O260 C242 1.244 . S
O261 Eu240 2.488 . S
O261 C249 1.249 . S
O262 Eu240 2.471 . S
O262 C249 1.244 . S
O263 Eu240 2.349 . S
O263 C242 1.265 . S
C264 C265 1.379 . S
C264 C268 1.373 . S
C264 C270 1.505 . S
C265 C264 1.379 . S
C265 C267 1.369 . S
C265 H276 0.930 . S
C266 C268 1.383 . S
C266 C269 1.382 . S
C266 H277 0.930 . S
C267 C265 1.369 . S
C267 C269 1.392 . S
C267 H278 0.930 . S
C268 C264 1.373 . S
C268 C266 1.383 . S
C268 H279 0.931 . S
C269 C266 1.382 . S
C269 C267 1.392 . S
C270 Eu241 2.828 . S
C270 O254 1.249 . S
C270 O255 1.244 . S
C270 C264 1.505 . S
C271 O258 1.258 . S
C271 O259 1.242 . S
H272 C244 0.930 . S
H273 C245 0.930 . S
H274 C246 0.930 . S
H275 C247 0.931 . S
H276 C265 0.930 . S
H277 C266 0.930 . S
H278 C267 0.930 . S
H279 C268 0.931 . S
Eu280 C289 2.828 . S
Eu280 O291 2.392 . S
Eu280 O293 2.418 . S
Eu280 O298 2.373 . S
Eu280 O301 2.488 . S
Eu280 O302 2.471 . S
Eu280 O303 2.349 . S
Eu281 O290 2.373 . S
Eu281 O294 2.488 . S
Eu281 O295 2.471 . S
Eu281 O296 2.349 . S
Eu281 O299 2.392 . S
Eu281 O300 2.418 . S
Eu281 C310 2.828 . S
C282 O300 1.244 . S
C282 O303 1.265 . S
C283 C284 1.379 . S
C283 C287 1.373 . S
C283 C289 1.505 . S
C284 C283 1.379 . S
C284 C286 1.369 . S
C284 H312 0.930 . S
C285 C287 1.383 . S
C285 C288 1.382 . S
C285 H313 0.930 . S
C286 C284 1.369 . S
C286 C288 1.392 . S
C286 H314 0.930 . S
C287 C283 1.373 . S
C287 C285 1.383 . S
C287 H315 0.931 . S
C288 C285 1.382 . S
C288 C286 1.392 . S
C289 Eu280 2.828 . S
C289 C283 1.505 . S
C289 O301 1.249 . S
C289 O302 1.244 . S
O290 Eu281 2.373 . S
O290 C292 1.258 . S
O291 Eu280 2.392 . S
O291 C292 1.242 . S
C292 O290 1.258 . S
C292 O291 1.242 . S
O293 Eu280 2.418 . S
O293 C297 1.244 . S
O294 Eu281 2.488 . S
O294 C310 1.249 . S
O295 Eu281 2.471 . S
O295 C310 1.244 . S
O296 Eu281 2.349 . S
O296 C297 1.265 . S
C297 O293 1.244 . S
C297 O296 1.265 . S
O298 Eu280 2.373 . S
O298 C311 1.258 . S
O299 Eu281 2.392 . S
O299 C311 1.242 . S
O300 Eu281 2.418 . S
O300 C282 1.244 . S
O301 Eu280 2.488 . S
O301 C289 1.249 . S
O302 Eu280 2.471 . S
O302 C289 1.244 . S
O303 Eu280 2.349 . S
O303 C282 1.265 . S
C304 C305 1.379 . S
C304 C308 1.373 . S
C304 C310 1.505 . S
C305 C304 1.379 . S
C305 C307 1.369 . S
C305 H316 0.930 . S
C306 C308 1.383 . S
C306 C309 1.382 . S
C306 H317 0.930 . S
C307 C305 1.369 . S
C307 C309 1.392 . S
C307 H318 0.930 . S
C308 C304 1.373 . S
C308 C306 1.383 . S
C308 H319 0.931 . S
C309 C306 1.382 . S
C309 C307 1.392 . S
C310 Eu281 2.828 . S
C310 O294 1.249 . S
C310 O295 1.244 . S
C310 C304 1.505 . S
C311 O298 1.258 . S
C311 O299 1.242 . S
H312 C284 0.930 . S
H313 C285 0.930 . S
H314 C286 0.930 . S
H315 C287 0.931 . S
H316 C305 0.930 . S
H317 C306 0.930 . S
H318 C307 0.930 . S
H319 C308 0.931 . S
Eu320 C329 2.828 . S
Eu320 O331 2.392 . S
Eu320 O333 2.418 . S
Eu320 O338 2.373 . S
Eu320 O341 2.488 . S
Eu320 O342 2.471 . S
Eu320 O343 2.349 . S
Eu321 O330 2.373 . S
Eu321 O334 2.488 . S
Eu321 O335 2.471 . S
Eu321 O336 2.349 . S
Eu321 O339 2.392 . S
Eu321 O340 2.418 . S
Eu321 C350 2.828 . S
C322 O340 1.244 . S
C322 O343 1.265 . S
C323 C324 1.379 . S
C323 C327 1.373 . S
C323 C329 1.505 . S
C324 C323 1.379 . S
C324 C326 1.369 . S
C324 H352 0.930 . S
C325 C327 1.383 . S
C325 C328 1.382 . S
C325 H353 0.930 . S
C326 C324 1.369 . S
C326 C328 1.392 . S
C326 H354 0.930 . S
C327 C323 1.373 . S
C327 C325 1.383 . S
C327 H355 0.931 . S
C328 C325 1.382 . S
C328 C326 1.392 . S
C329 Eu320 2.828 . S
C329 C323 1.505 . S
C329 O341 1.249 . S
C329 O342 1.244 . S
O330 Eu321 2.373 . S
O330 C332 1.258 . S
O331 Eu320 2.392 . S
O331 C332 1.242 . S
C332 O330 1.258 . S
C332 O331 1.242 . S
O333 Eu320 2.418 . S
O333 C337 1.244 . S
O334 Eu321 2.488 . S
O334 C350 1.249 . S
O335 Eu321 2.471 . S
O335 C350 1.244 . S
O336 Eu321 2.349 . S
O336 C337 1.265 . S
C337 O333 1.244 . S
C337 O336 1.265 . S
O338 Eu320 2.373 . S
O338 C351 1.258 . S
O339 Eu321 2.392 . S
O339 C351 1.242 . S
O340 Eu321 2.418 . S
O340 C322 1.244 . S
O341 Eu320 2.488 . S
O341 C329 1.249 . S
O342 Eu320 2.471 . S
O342 C329 1.244 . S
O343 Eu320 2.349 . S
O343 C322 1.265 . S
C344 C345 1.379 . S
C344 C348 1.373 . S
C344 C350 1.505 . S
C345 C344 1.379 . S
C345 C347 1.369 . S
C345 H356 0.930 . S
C346 C348 1.383 . S
C346 C349 1.382 . S
C346 H357 0.930 . S
C347 C345 1.369 . S
C347 C349 1.392 . S
C347 H358 0.930 . S
C348 C344 1.373 . S
C348 C346 1.383 . S
C348 H359 0.931 . S
C349 C346 1.382 . S
C349 C347 1.392 . S
C350 Eu321 2.828 . S
C350 O334 1.249 . S
C350 O335 1.244 . S
C350 C344 1.505 . S
C351 O338 1.258 . S
C351 O339 1.242 . S
H352 C324 0.930 . S
H353 C325 0.930 . S
H354 C326 0.930 . S
H355 C327 0.931 . S
H356 C345 0.930 . S
H357 C346 0.930 . S
H358 C347 0.930 . S
H359 C348 0.931 . S
Eu360 C369 2.828 . S
Eu360 O371 2.392 . S
Eu360 O373 2.418 . S
Eu360 O378 2.373 . S
Eu360 O381 2.488 . S
Eu360 O382 2.471 . S
Eu360 O383 2.349 . S
Eu361 O370 2.373 . S
Eu361 O374 2.488 . S
Eu361 O375 2.471 . S
Eu361 O376 2.349 . S
Eu361 O379 2.392 . S
Eu361 O380 2.418 . S
Eu361 C390 2.828 . S
C362 O380 1.244 . S
C362 O383 1.265 . S
C363 C364 1.379 . S
C363 C367 1.373 . S
C363 C369 1.505 . S
C364 C363 1.379 . S
C364 C366 1.369 . S
C364 H392 0.930 . S
C365 C367 1.383 . S
C365 C368 1.382 . S
C365 H393 0.930 . S
C366 C364 1.369 . S
C366 C368 1.392 . S
C366 H394 0.930 . S
C367 C363 1.373 . S
C367 C365 1.383 . S
C367 H395 0.931 . S
C368 C365 1.382 . S
C368 C366 1.392 . S
C369 Eu360 2.828 . S
C369 C363 1.505 . S
C369 O381 1.249 . S
C369 O382 1.244 . S
O370 Eu361 2.373 . S
O370 C372 1.258 . S
O371 Eu360 2.392 . S
O371 C372 1.242 . S
C372 O370 1.258 . S
C372 O371 1.242 . S
O373 Eu360 2.418 . S
O373 C377 1.244 . S
O374 Eu361 2.488 . S
O374 C390 1.249 . S
O375 Eu361 2.471 . S
O375 C390 1.244 . S
O376 Eu361 2.349 . S
O376 C377 1.265 . S
C377 O373 1.244 . S
C377 O376 1.265 . S
O378 Eu360 2.373 . S
O378 C391 1.258 . S
O379 Eu361 2.392 . S
O379 C391 1.242 . S
O380 Eu361 2.418 . S
O380 C362 1.244 . S
O381 Eu360 2.488 . S
O381 C369 1.249 . S
O382 Eu360 2.471 . S
O382 C369 1.244 . S
O383 Eu360 2.349 . S
O383 C362 1.265 . S
C384 C385 1.379 . S
C384 C388 1.373 . S
C384 C390 1.505 . S
C385 C384 1.379 . S
C385 C387 1.369 . S
C385 H396 0.930 . S
C386 C388 1.383 . S
C386 C389 1.382 . S
C386 H397 0.930 . S
C387 C385 1.369 . S
C387 C389 1.392 . S
C387 H398 0.930 . S
C388 C384 1.373 . S
C388 C386 1.383 . S
C388 H399 0.931 . S
C389 C386 1.382 . S
C389 C387 1.392 . S
C390 Eu361 2.828 . S
C390 O374 1.249 . S
C390 O375 1.244 . S
C390 C384 1.505 . S
C391 O378 1.258 . S
C391 O379 1.242 . S
H392 C364 0.930 . S
H393 C365 0.930 . S
H394 C366 0.930 . S
H395 C367 0.931 . S
H396 C385 0.930 . S
H397 C386 0.930 . S
H398 C387 0.930 . S
H399 C388 0.931 . S
Eu400 C409 2.828 1_554 S
Eu400 O411 2.392 . S
Eu400 O413 2.418 . S
Eu400 O418 2.373 . S
Eu400 O421 2.488 1_554 S
Eu400 O422 2.471 1_554 S
Eu400 O423 2.349 . S
Eu401 O410 2.373 . S
Eu401 O414 2.488 . S
Eu401 O415 2.471 . S
Eu401 O416 2.349 . S
Eu401 O419 2.392 . S
Eu401 O420 2.418 . S
Eu401 C430 2.828 . S
C402 O420 1.244 . S
C402 O423 1.265 . S
C403 C404 1.379 . S
C403 C407 1.373 . S
C403 C409 1.505 . S
C404 C403 1.379 . S
C404 C406 1.369 . S
C404 H432 0.930 . S
C405 C407 1.383 . S
C405 C408 1.382 . S
C405 H433 0.930 . S
C406 C404 1.369 . S
C406 C408 1.392 . S
C406 H434 0.930 . S
C407 C403 1.373 . S
C407 C405 1.383 . S
C407 H435 0.931 . S
C408 C405 1.382 . S
C408 C406 1.392 . S
C409 Eu400 2.828 1_556 S
C409 C403 1.505 . S
C409 O421 1.249 . S
C409 O422 1.244 . S
O410 Eu401 2.373 . S
O410 C412 1.258 . S
O411 Eu400 2.392 . S
O411 C412 1.242 . S
C412 O410 1.258 . S
C412 O411 1.242 . S
O413 Eu400 2.418 . S
O413 C417 1.244 . S
O414 Eu401 2.488 . S
O414 C430 1.249 . S
O415 Eu401 2.471 . S
O415 C430 1.244 . S
O416 Eu401 2.349 . S
O416 C417 1.265 . S
C417 O413 1.244 . S
C417 O416 1.265 . S
O418 Eu400 2.373 . S
O418 C431 1.258 . S
O419 Eu401 2.392 . S
O419 C431 1.242 . S
O420 Eu401 2.418 . S
O420 C402 1.244 . S
O421 Eu400 2.488 1_556 S
O421 C409 1.249 . S
O422 Eu400 2.471 1_556 S
O422 C409 1.244 . S
O423 Eu400 2.349 . S
O423 C402 1.265 . S
C424 C425 1.379 . S
C424 C428 1.373 . S
C424 C430 1.505 . S
C425 C424 1.379 . S
C425 C427 1.369 . S
C425 H436 0.930 . S
C426 C428 1.383 . S
C426 C429 1.382 . S
C426 H437 0.930 . S
C427 C425 1.369 . S
C427 C429 1.392 . S
C427 H438 0.930 . S
C428 C424 1.373 . S
C428 C426 1.383 . S
C428 H439 0.931 . S
C429 C426 1.382 . S
C429 C427 1.392 . S
C430 Eu401 2.828 . S
C430 O414 1.249 . S
C430 O415 1.244 . S
C430 C424 1.505 . S
C431 O418 1.258 . S
C431 O419 1.242 . S
H432 C404 0.930 . S
H433 C405 0.930 . S
H434 C406 0.930 . S
H435 C407 0.931 . S
H436 C425 0.930 . S
H437 C426 0.930 . S
H438 C427 0.930 . S
H439 C428 0.931 . S
Eu440 C449 2.828 . S
Eu440 O451 2.392 . S
Eu440 O453 2.418 . S
Eu440 O458 2.373 . S
Eu440 O461 2.488 . S
Eu440 O462 2.471 . S
Eu440 O463 2.349 . S
Eu441 O450 2.373 . S
Eu441 O454 2.488 . S
Eu441 O455 2.471 . S
Eu441 O456 2.349 . S
Eu441 O459 2.392 . S
Eu441 O460 2.418 . S
Eu441 C470 2.828 . S
C442 O460 1.244 . S
C442 O463 1.265 . S
C443 C444 1.379 . S
C443 C447 1.373 . S
C443 C449 1.505 . S
C444 C443 1.379 . S
C444 C446 1.369 . S
C444 H472 0.930 . S
C445 C447 1.383 . S
C445 C448 1.382 . S
C445 H473 0.930 . S
C446 C444 1.369 . S
C446 C448 1.392 . S
C446 H474 0.930 . S
C447 C443 1.373 . S
C447 C445 1.383 . S
C447 H475 0.931 . S
C448 C445 1.382 . S
C448 C446 1.392 . S
C449 Eu440 2.828 . S
C449 C443 1.505 . S
C449 O461 1.249 . S
C449 O462 1.244 . S
O450 Eu441 2.373 . S
O450 C452 1.258 . S
O451 Eu440 2.392 . S
O451 C452 1.242 . S
C452 O450 1.258 . S
C452 O451 1.242 . S
O453 Eu440 2.418 . S
O453 C457 1.244 . S
O454 Eu441 2.488 . S
O454 C470 1.249 . S
O455 Eu441 2.471 . S
O455 C470 1.244 . S
O456 Eu441 2.349 . S
O456 C457 1.265 . S
C457 O453 1.244 . S
C457 O456 1.265 . S
O458 Eu440 2.373 . S
O458 C471 1.258 . S
O459 Eu441 2.392 . S
O459 C471 1.242 . S
O460 Eu441 2.418 . S
O460 C442 1.244 . S
O461 Eu440 2.488 . S
O461 C449 1.249 . S
O462 Eu440 2.471 . S
O462 C449 1.244 . S
O463 Eu440 2.349 . S
O463 C442 1.265 . S
C464 C465 1.379 . S
C464 C468 1.373 . S
C464 C470 1.505 . S
C465 C464 1.379 . S
C465 C467 1.369 . S
C465 H476 0.930 . S
C466 C468 1.383 . S
C466 C469 1.382 . S
C466 H477 0.930 . S
C467 C465 1.369 . S
C467 C469 1.392 . S
C467 H478 0.930 . S
C468 C464 1.373 . S
C468 C466 1.383 . S
C468 H479 0.931 . S
C469 C466 1.382 . S
C469 C467 1.392 . S
C470 Eu441 2.828 . S
C470 O454 1.249 . S
C470 O455 1.244 . S
C470 C464 1.505 . S
C471 O458 1.258 . S
C471 O459 1.242 . S
H472 C444 0.930 . S
H473 C445 0.930 . S
H474 C446 0.930 . S
H475 C447 0.931 . S
H476 C465 0.930 . S
H477 C466 0.930 . S
H478 C467 0.930 . S
H479 C468 0.931 . S
Eu480 C489 2.828 . S
Eu480 O491 2.392 . S
Eu480 O493 2.418 . S
Eu480 O498 2.373 . S
Eu480 O501 2.488 . S
Eu480 O502 2.471 . S
Eu480 O503 2.349 . S
Eu481 O490 2.373 . S
Eu481 O494 2.488 . S
Eu481 O495 2.471 . S
Eu481 O496 2.349 . S
Eu481 O499 2.392 . S
Eu481 O500 2.418 . S
Eu481 C510 2.828 . S
C482 O500 1.244 . S
C482 O503 1.265 . S
C483 C484 1.379 . S
C483 C487 1.373 . S
C483 C489 1.505 . S
C484 C483 1.379 . S
C484 C486 1.369 . S
C484 H512 0.930 . S
C485 C487 1.383 . S
C485 C488 1.382 . S
C485 H513 0.930 . S
C486 C484 1.369 . S
C486 C488 1.392 . S
C486 H514 0.930 . S
C487 C483 1.373 . S
C487 C485 1.383 . S
C487 H515 0.931 . S
C488 C485 1.382 . S
C488 C486 1.392 . S
C489 Eu480 2.828 . S
C489 C483 1.505 . S
C489 O501 1.249 . S
C489 O502 1.244 . S
O490 Eu481 2.373 . S
O490 C492 1.258 . S
O491 Eu480 2.392 . S
O491 C492 1.242 . S
C492 O490 1.258 . S
C492 O491 1.242 . S
O493 Eu480 2.418 . S
O493 C497 1.244 . S
O494 Eu481 2.488 . S
O494 C510 1.249 . S
O495 Eu481 2.471 . S
O495 C510 1.244 . S
O496 Eu481 2.349 . S
O496 C497 1.265 . S
C497 O493 1.244 . S
C497 O496 1.265 . S
O498 Eu480 2.373 . S
O498 C511 1.258 . S
O499 Eu481 2.392 . S
O499 C511 1.242 . S
O500 Eu481 2.418 . S
O500 C482 1.244 . S
O501 Eu480 2.488 . S
O501 C489 1.249 . S
O502 Eu480 2.471 . S
O502 C489 1.244 . S
O503 Eu480 2.349 . S
O503 C482 1.265 . S
C504 C505 1.379 . S
C504 C508 1.373 . S
C504 C510 1.505 . S
C505 C504 1.379 . S
C505 C507 1.369 . S
C505 H516 0.930 . S
C506 C508 1.383 . S
C506 C509 1.382 . S
C506 H517 0.930 . S
C507 C505 1.369 . S
C507 C509 1.392 . S
C507 H518 0.930 . S
C508 C504 1.373 . S
C508 C506 1.383 . S
C508 H519 0.931 . S
C509 C506 1.382 . S
C509 C507 1.392 . S
C510 Eu481 2.828 . S
C510 O494 1.249 . S
C510 O495 1.244 . S
C510 C504 1.505 . S
C511 O498 1.258 . S
C511 O499 1.242 . S
H512 C484 0.930 . S
H513 C485 0.930 . S
H514 C486 0.930 . S
H515 C487 0.931 . S
H516 C505 0.930 . S
H517 C506 0.930 . S
H518 C507 0.930 . S
H519 C508 0.931 . S
Eu520 C529 2.828 . S
Eu520 O531 2.392 . S
Eu520 O533 2.418 . S
Eu520 O538 2.373 . S
Eu520 O541 2.488 . S
Eu520 O542 2.471 . S
Eu520 O543 2.349 . S
Eu521 O530 2.373 . S
Eu521 O534 2.488 . S
Eu521 O535 2.471 . S
Eu521 O536 2.349 . S
Eu521 O539 2.392 . S
Eu521 O540 2.418 . S
Eu521 C550 2.828 . S
C522 O540 1.244 . S
C522 O543 1.265 . S
C523 C524 1.379 . S
C523 C527 1.373 . S
C523 C529 1.505 . S
C524 C523 1.379 . S
C524 C526 1.369 . S
C524 H552 0.930 . S
C525 C527 1.383 . S
C525 C528 1.382 . S
C525 H553 0.930 . S
C526 C524 1.369 . S
C526 C528 1.392 . S
C526 H554 0.930 . S
C527 C523 1.373 . S
C527 C525 1.383 . S
C527 H555 0.931 . S
C528 C525 1.382 . S
C528 C526 1.392 . S
C529 Eu520 2.828 . S
C529 C523 1.505 . S
C529 O541 1.249 . S
C529 O542 1.244 . S
O530 Eu521 2.373 . S
O530 C532 1.258 . S
O531 Eu520 2.392 . S
O531 C532 1.242 . S
C532 O530 1.258 . S
C532 O531 1.242 . S
O533 Eu520 2.418 . S
O533 C537 1.244 . S
O534 Eu521 2.488 . S
O534 C550 1.249 . S
O535 Eu521 2.471 . S
O535 C550 1.244 . S
O536 Eu521 2.349 . S
O536 C537 1.265 . S
C537 O533 1.244 . S
C537 O536 1.265 . S
O538 Eu520 2.373 . S
O538 C551 1.258 . S
O539 Eu521 2.392 . S
O539 C551 1.242 . S
O540 Eu521 2.418 . S
O540 C522 1.244 . S
O541 Eu520 2.488 . S
O541 C529 1.249 . S
O542 Eu520 2.471 . S
O542 C529 1.244 . S
O543 Eu520 2.349 . S
O543 C522 1.265 . S
C544 C545 1.379 . S
C544 C548 1.373 . S
C544 C550 1.505 . S
C545 C544 1.379 . S
C545 C547 1.369 . S
C545 H556 0.930 . S
C546 C548 1.383 . S
C546 C549 1.382 . S
C546 H557 0.930 . S
C547 C545 1.369 . S
C547 C549 1.392 . S
C547 H558 0.930 . S
C548 C544 1.373 . S
C548 C546 1.383 . S
C548 H559 0.931 . S
C549 C546 1.382 . S
C549 C547 1.392 . S
C550 Eu521 2.828 . S
C550 O534 1.249 . S
C550 O535 1.244 . S
C550 C544 1.505 . S
C551 O538 1.258 . S
C551 O539 1.242 . S
H552 C524 0.930 . S
H553 C525 0.930 . S
H554 C526 0.930 . S
H555 C527 0.931 . S
H556 C545 0.930 . S
H557 C546 0.930 . S
H558 C547 0.930 . S
H559 C548 0.931 . S
Eu560 C569 2.828 . S
Eu560 O571 2.392 . S
Eu560 O573 2.418 . S
Eu560 O578 2.373 . S
Eu560 O581 2.488 . S
Eu560 O582 2.471 . S
Eu560 O583 2.349 . S
Eu561 O570 2.373 . S
Eu561 O574 2.488 1_556 S
Eu561 O575 2.471 1_556 S
Eu561 O576 2.349 . S
Eu561 O579 2.392 . S
Eu561 O580 2.418 . S
Eu561 C590 2.828 1_556 S
C562 O580 1.244 . S
C562 O583 1.265 . S
C563 C564 1.379 . S
C563 C567 1.373 . S
C563 C569 1.505 . S
C564 C563 1.379 . S
C564 C566 1.369 . S
C564 H592 0.930 . S
C565 C567 1.383 . S
C565 C568 1.382 . S
C565 H593 0.930 . S
C566 C564 1.369 . S
C566 C568 1.392 . S
C566 H594 0.930 . S
C567 C563 1.373 . S
C567 C565 1.383 . S
C567 H595 0.931 . S
C568 C565 1.382 . S
C568 C566 1.392 . S
C569 Eu560 2.828 . S
C569 C563 1.505 . S
C569 O581 1.249 . S
C569 O582 1.244 . S
O570 Eu561 2.373 . S
O570 C572 1.258 . S
O571 Eu560 2.392 . S
O571 C572 1.242 . S
C572 O570 1.258 . S
C572 O571 1.242 . S
O573 Eu560 2.418 . S
O573 C577 1.244 . S
O574 Eu561 2.488 1_554 S
O574 C590 1.249 . S
O575 Eu561 2.471 1_554 S
O575 C590 1.244 . S
O576 Eu561 2.349 . S
O576 C577 1.265 . S
C577 O573 1.244 . S
C577 O576 1.265 . S
O578 Eu560 2.373 . S
O578 C591 1.258 . S
O579 Eu561 2.392 . S
O579 C591 1.242 . S
O580 Eu561 2.418 . S
O580 C562 1.244 . S
O581 Eu560 2.488 . S
O581 C569 1.249 . S
O582 Eu560 2.471 . S
O582 C569 1.244 . S
O583 Eu560 2.349 . S
O583 C562 1.265 . S
C584 C585 1.379 . S
C584 C588 1.373 . S
C584 C590 1.505 . S
C585 C584 1.379 . S
C585 C587 1.369 . S
C585 H596 0.930 . S
C586 C588 1.383 . S
C586 C589 1.382 . S
C586 H597 0.930 . S
C587 C585 1.369 . S
C587 C589 1.392 . S
C587 H598 0.930 . S
C588 C584 1.373 . S
C588 C586 1.383 . S
C588 H599 0.931 . S
C589 C586 1.382 . S
C589 C587 1.392 . S
C590 Eu561 2.828 1_554 S
C590 O574 1.249 . S
C590 O575 1.244 . S
C590 C584 1.505 . S
C591 O578 1.258 . S
C591 O579 1.242 . S
H592 C564 0.930 . S
H593 C565 0.930 . S
H594 C566 0.930 . S
H595 C567 0.931 . S
H596 C585 0.930 . S
H597 C586 0.930 . S
H598 C587 0.930 . S
H599 C588 0.931 . S
Eu600 C609 2.828 . S
Eu600 O611 2.392 . S
Eu600 O613 2.418 . S
Eu600 O618 2.373 . S
Eu600 O621 2.488 . S
Eu600 O622 2.471 . S
Eu600 O623 2.349 . S
Eu601 O610 2.373 . S
Eu601 O614 2.488 . S
Eu601 O615 2.471 . S
Eu601 O616 2.349 . S
Eu601 O619 2.392 . S
Eu601 O620 2.418 . S
Eu601 C630 2.828 . S
C602 O620 1.244 . S
C602 O623 1.265 . S
C603 C604 1.379 . S
C603 C607 1.373 . S
C603 C609 1.505 . S
C604 C603 1.379 . S
C604 C606 1.369 . S
C604 H632 0.930 . S
C605 C607 1.383 . S
C605 C608 1.382 . S
C605 H633 0.930 . S
C606 C604 1.369 . S
C606 C608 1.392 . S
C606 H634 0.930 . S
C607 C603 1.373 . S
C607 C605 1.383 . S
C607 H635 0.931 . S
C608 C605 1.382 . S
C608 C606 1.392 . S
C609 Eu600 2.828 . S
C609 C603 1.505 . S
C609 O621 1.249 . S
C609 O622 1.244 . S
O610 Eu601 2.373 . S
O610 C612 1.258 . S
O611 Eu600 2.392 . S
O611 C612 1.242 . S
C612 O610 1.258 . S
C612 O611 1.242 . S
O613 Eu600 2.418 . S
O613 C617 1.244 . S
O614 Eu601 2.488 . S
O614 C630 1.249 . S
O615 Eu601 2.471 . S
O615 C630 1.244 . S
O616 Eu601 2.349 . S
O616 C617 1.265 . S
C617 O613 1.244 . S
C617 O616 1.265 . S
O618 Eu600 2.373 . S
O618 C631 1.258 . S
O619 Eu601 2.392 . S
O619 C631 1.242 . S
O620 Eu601 2.418 . S
O620 C602 1.244 . S
O621 Eu600 2.488 . S
O621 C609 1.249 . S
O622 Eu600 2.471 . S
O622 C609 1.244 . S
O623 Eu600 2.349 . S
O623 C602 1.265 . S
C624 C625 1.379 . S
C624 C628 1.373 . S
C624 C630 1.505 . S
C625 C624 1.379 . S
C625 C627 1.369 . S
C625 H636 0.930 . S
C626 C628 1.383 . S
C626 C629 1.382 . S
C626 H637 0.930 . S
C627 C625 1.369 . S
C627 C629 1.392 . S
C627 H638 0.930 . S
C628 C624 1.373 . S
C628 C626 1.383 . S
C628 H639 0.931 . S
C629 C626 1.382 . S
C629 C627 1.392 . S
C630 Eu601 2.828 . S
C630 O614 1.249 . S
C630 O615 1.244 . S
C630 C624 1.505 . S
C631 O618 1.258 . S
C631 O619 1.242 . S
H632 C604 0.930 . S
H633 C605 0.930 . S
H634 C606 0.930 . S
H635 C607 0.931 . S
H636 C625 0.930 . S
H637 C626 0.930 . S
H638 C627 0.930 . S
H639 C628 0.931 . S
C640 C641 1.349 . S
C640 C642 1.327 . S
C640 H665 0.950 . S
C641 C640 1.349 . S
C641 C657 1.349 . S
C642 C640 1.327 . S
C642 C661 1.429 . S
C642 H666 0.950 . S
C643 C660 1.574 . S
C643 C662 1.368 . S
C643 H667 0.949 . S
H644 C648 0.949 . S
C645 C646 1.349 . S
C645 C647 1.327 . S
C645 H668 0.950 . S
C646 C645 1.349 . S
C646 C658 1.349 . S
C647 C645 1.327 . S
C647 C663 1.429 . S
C647 H669 0.950 . S
C648 H644 0.949 . S
C648 C656 1.574 . S
C648 C664 1.368 . S
H649 C657 0.950 . S
H650 C655 0.950 . S
H651 C656 0.949 . S
H652 C658 0.950 . S
H653 C659 0.950 . S
H654 C660 0.949 . S
C655 H650 0.950 . S
C655 C657 1.327 . S
C655 C661 1.429 . S
C656 C648 1.574 . S
C656 H651 0.949 . S
C656 C662 1.368 . S
C657 C641 1.349 . S
C657 H649 0.950 . S
C657 C655 1.327 . S
C658 C646 1.349 . S
C658 H652 0.950 . S
C658 C659 1.327 . S
C659 H653 0.950 . S
C659 C658 1.327 . S
C659 C663 1.429 . S
C660 C643 1.574 . S
C660 H654 0.949 . S
C660 C664 1.368 . S
C661 C642 1.429 . S
C661 C655 1.429 . S
C661 C662 1.523 . S
C662 C643 1.368 . S
C662 C656 1.368 . S
C662 C661 1.523 . S
C663 C647 1.429 . S
C663 C659 1.429 . S
C663 C664 1.523 . S
C664 C648 1.368 . S
C664 C660 1.368 . S
C664 C663 1.523 . S
H665 C640 0.950 . S
H666 C642 0.950 . S
H667 C643 0.949 . S
H668 C645 0.950 . S
H669 C647 0.950 . S
C670 C671 1.349 . S
C670 C672 1.327 . S
C670 H695 0.950 . S
C671 C670 1.349 . S
C671 C687 1.349 . S
C672 C670 1.327 . S
C672 C691 1.429 . S
C672 H696 0.950 . S
C673 C690 1.574 . S
C673 C692 1.368 . S
C673 H697 0.949 . S
H674 C678 0.949 . S
C675 C676 1.349 . S
C675 C677 1.327 . S
C675 H698 0.950 . S
C676 C675 1.349 . S
C676 C688 1.349 . S
C677 C675 1.327 . S
C677 C693 1.429 . S
C677 H699 0.950 . S
C678 H674 0.949 . S
C678 C686 1.574 . S
C678 C694 1.368 . S
H679 C687 0.950 . S
H680 C685 0.950 . S
H681 C686 0.949 . S
H682 C688 0.950 . S
H683 C689 0.950 . S
H684 C690 0.949 . S
C685 H680 0.950 . S
C685 C687 1.327 . S
C685 C691 1.429 . S
C686 C678 1.574 . S
C686 H681 0.949 . S
C686 C692 1.368 . S
C687 C671 1.349 . S
C687 H679 0.950 . S
C687 C685 1.327 . S
C688 C676 1.349 . S
C688 H682 0.950 . S
C688 C689 1.327 . S
C689 H683 0.950 . S
C689 C688 1.327 . S
C689 C693 1.429 . S
C690 C673 1.574 . S
C690 H684 0.949 . S
C690 C694 1.368 . S
C691 C672 1.429 . S
C691 C685 1.429 . S
C691 C692 1.523 . S
C692 C673 1.368 . S
C692 C686 1.368 . S
C692 C691 1.523 . S
C693 C677 1.429 . S
C693 C689 1.429 . S
C693 C694 1.523 . S
C694 C678 1.368 . S
C694 C690 1.368 . S
C694 C693 1.523 . S
H695 C670 0.950 . S
H696 C672 0.950 . S
H697 C673 0.949 . S
H698 C675 0.950 . S
H699 C677 0.950 . S
C700 C701 1.349 . S
C700 C702 1.327 . S
C700 H725 0.950 . S
C701 C700 1.349 . S
C701 C717 1.349 . S
C702 C700 1.327 . S
C702 C721 1.429 . S
C702 H726 0.950 . S
C703 C720 1.558 1_455 S
C703 C722 1.383 . S
C703 H727 0.948 . S
H704 C708 0.948 . S
C705 C706 1.349 . S
C705 C707 1.327 . S
C705 H728 0.950 . S
C706 C705 1.349 . S
C706 C718 1.349 . S
C707 C705 1.327 . S
C707 C723 1.429 . S
C707 H729 0.950 . S
C708 H704 0.948 . S
C708 C716 1.558 1_655 S
C708 C724 1.383 . S
H709 C717 0.950 . S
H710 C715 0.950 . S
H711 C716 0.949 . S
H712 C718 0.950 . S
H713 C719 0.950 . S
H714 C720 0.949 . S
C715 H710 0.950 . S
C715 C717 1.327 . S
C715 C721 1.429 . S
C716 C708 1.558 1_455 S
C716 H711 0.949 . S
C716 C722 1.368 . S
C717 C701 1.349 . S
C717 H709 0.950 . S
C717 C715 1.327 . S
C718 C706 1.349 . S
C718 H712 0.950 . S
C718 C719 1.327 . S
C719 H713 0.950 . S
C719 C718 1.327 . S
C719 C723 1.429 . S
C720 C703 1.558 1_655 S
C720 H714 0.949 . S
C720 C724 1.368 . S
C721 C702 1.429 . S
C721 C715 1.429 . S
C721 C722 1.523 . S
C722 C703 1.383 . S
C722 C716 1.368 . S
C722 C721 1.523 . S
C723 C707 1.429 . S
C723 C719 1.429 . S
C723 C724 1.523 . S
C724 C708 1.383 . S
C724 C720 1.368 . S
C724 C723 1.523 . S
H725 C700 0.950 . S
H726 C702 0.950 . S
H727 C703 0.948 . S
H728 C705 0.950 . S
H729 C707 0.950 . S
C730 C731 1.349 . S
C730 C732 1.327 . S
C730 H755 0.950 . S
C731 C730 1.349 . S
C731 C747 1.349 . S
C732 C730 1.327 . S
C732 C751 1.429 . S
C732 H756 0.950 . S
C733 C750 1.542 1_655 S
C733 C752 1.398 . S
C733 H757 0.953 . S
H734 C738 0.953 . S
C735 C736 1.349 . S
C735 C737 1.327 . S
C735 H758 0.950 . S
C736 C735 1.349 . S
C736 C748 1.349 . S
C737 C735 1.327 . S
C737 C753 1.429 . S
C737 H759 0.950 . S
C738 H734 0.953 . S
C738 C746 1.542 1_455 S
C738 C754 1.398 . S
H739 C747 0.950 . S
H740 C745 0.950 . S
H741 C746 0.949 . S
H742 C748 0.950 . S
H743 C749 0.950 . S
H744 C750 0.949 . S
C745 H740 0.950 . S
C745 C747 1.327 . S
C745 C751 1.429 . S
C746 C738 1.542 1_655 S
C746 H741 0.949 . S
C746 C752 1.368 . S
C747 C731 1.349 . S
C747 H739 0.950 . S
C747 C745 1.327 . S
C748 C736 1.349 . S
C748 H742 0.950 . S
C748 C749 1.327 . S
C749 H743 0.950 . S
C749 C748 1.327 . S
C749 C753 1.429 . S
C750 C733 1.542 1_455 S
C750 H744 0.949 . S
C750 C754 1.368 . S
C751 C732 1.429 . S
C751 C745 1.429 . S
C751 C752 1.523 . S
C752 C733 1.398 . S
C752 C746 1.368 . S
C752 C751 1.523 . S
C753 C737 1.429 . S
C753 C749 1.429 . S
C753 C754 1.523 . S
C754 C738 1.398 . S
C754 C750 1.368 . S
C754 C753 1.523 . S
H755 C730 0.950 . S
H756 C732 0.950 . S
H757 C733 0.953 . S
H758 C735 0.950 . S
H759 C737 0.950 . S
C760 C761 1.349 . S
C760 C762 1.327 . S
C760 H785 0.950 . S
C761 C760 1.349 . S
C761 C777 1.349 . S
C762 C760 1.327 . S
C762 C781 1.429 . S
C762 H786 0.950 . S
C763 C780 1.574 . S
C763 C782 1.368 . S
C763 H787 0.949 . S
H764 C768 0.949 . S
C765 C766 1.349 . S
C765 C767 1.327 . S
C765 H788 0.950 . S
C766 C765 1.349 . S
C766 C778 1.349 . S
C767 C765 1.327 . S
C767 C783 1.429 . S
C767 H789 0.950 . S
C768 H764 0.949 . S
C768 C776 1.574 . S
C768 C784 1.368 . S
H769 C777 0.950 . S
H770 C775 0.950 . S
H771 C776 0.949 . S
H772 C778 0.950 . S
H773 C779 0.950 . S
H774 C780 0.949 . S
C775 H770 0.950 . S
C775 C777 1.327 . S
C775 C781 1.429 . S
C776 C768 1.574 . S
C776 H771 0.949 . S
C776 C782 1.368 . S
C777 C761 1.349 . S
C777 H769 0.950 . S
C777 C775 1.327 . S
C778 C766 1.349 . S
C778 H772 0.950 . S
C778 C779 1.327 . S
C779 H773 0.950 . S
C779 C778 1.327 . S
C779 C783 1.429 . S
C780 C763 1.574 . S
C780 H774 0.949 . S
C780 C784 1.368 . S
C781 C762 1.429 . S
C781 C775 1.429 . S
C781 C782 1.523 . S
C782 C763 1.368 . S
C782 C776 1.368 . S
C782 C781 1.523 . S
C783 C767 1.429 . S
C783 C779 1.429 . S
C783 C784 1.523 . S
C784 C768 1.368 . S
C784 C780 1.368 . S
C784 C783 1.523 . S
H785 C760 0.950 . S
H786 C762 0.950 . S
H787 C763 0.949 . S
H788 C765 0.950 . S
H789 C767 0.950 . S
C790 C791 1.349 . S
C790 C792 1.327 . S
C790 H815 0.950 . S
C791 C790 1.349 . S
C791 C807 1.349 . S
C792 C790 1.327 . S
C792 C811 1.429 . S
C792 H816 0.950 . S
C793 C810 1.574 . S
C793 C812 1.368 . S
C793 H817 0.949 . S
H794 C798 0.949 . S
C795 C796 1.349 . S
C795 C797 1.327 . S
C795 H818 0.950 . S
C796 C795 1.349 . S
C796 C808 1.349 . S
C797 C795 1.327 . S
C797 C813 1.429 . S
C797 H819 0.950 . S
C798 H794 0.949 . S
C798 C806 1.574 . S
C798 C814 1.368 . S
H799 C807 0.950 . S
H800 C805 0.950 . S
H801 C806 0.949 . S
H802 C808 0.950 . S
H803 C809 0.950 . S
H804 C810 0.949 . S
C805 H800 0.950 . S
C805 C807 1.327 . S
C805 C811 1.429 . S
C806 C798 1.574 . S
C806 H801 0.949 . S
C806 C812 1.368 . S
C807 C791 1.349 . S
C807 H799 0.950 . S
C807 C805 1.327 . S
C808 C796 1.349 . S
C808 H802 0.950 . S
C808 C809 1.327 . S
C809 H803 0.950 . S
C809 C808 1.327 . S
C809 C813 1.429 . S
C810 C793 1.574 . S
C810 H804 0.949 . S
C810 C814 1.368 . S
C811 C792 1.429 . S
C811 C805 1.429 . S
C811 C812 1.523 . S
C812 C793 1.368 . S
C812 C806 1.368 . S
C812 C811 1.523 . S
C813 C797 1.429 . S
C813 C809 1.429 . S
C813 C814 1.523 . S
C814 C798 1.368 . S
C814 C810 1.368 . S
C814 C813 1.523 . S
H815 C790 0.950 . S
H816 C792 0.950 . S
H817 C793 0.949 . S
H818 C795 0.950 . S
H819 C797 0.950 . S
C820 C821 1.349 . S
C820 C822 1.327 . S
C820 H845 0.950 . S
C821 C820 1.349 . S
C821 C837 1.349 . S
C822 C820 1.327 . S
C822 C841 1.429 . S
C822 H846 0.950 . S
C823 C840 1.558 1_655 S
C823 C842 1.383 . S
C823 H847 0.948 . S
H824 C828 0.948 . S
C825 C826 1.349 . S
C825 C827 1.327 . S
C825 H848 0.950 . S
C826 C825 1.349 . S
C826 C838 1.349 . S
C827 C825 1.327 . S
C827 C843 1.429 . S
C827 H849 0.950 . S
C828 H824 0.948 . S
C828 C836 1.558 1_455 S
C828 C844 1.383 . S
H829 C837 0.950 . S
H830 C835 0.950 . S
H831 C836 0.949 . S
H832 C838 0.950 . S
H833 C839 0.950 . S
H834 C840 0.949 . S
C835 H830 0.950 . S
C835 C837 1.327 . S
C835 C841 1.429 . S
C836 C828 1.558 1_655 S
C836 H831 0.949 . S
C836 C842 1.368 . S
C837 C821 1.349 . S
C837 H829 0.950 . S
C837 C835 1.327 . S
C838 C826 1.349 . S
C838 H832 0.950 . S
C838 C839 1.327 . S
C839 H833 0.950 . S
C839 C838 1.327 . S
C839 C843 1.429 . S
C840 C823 1.558 1_455 S
C840 H834 0.949 . S
C840 C844 1.368 . S
C841 C822 1.429 . S
C841 C835 1.429 . S
C841 C842 1.523 . S
C842 C823 1.383 . S
C842 C836 1.368 . S
C842 C841 1.523 . S
C843 C827 1.429 . S
C843 C839 1.429 . S
C843 C844 1.523 . S
C844 C828 1.383 . S
C844 C840 1.368 . S
C844 C843 1.523 . S
H845 C820 0.950 . S
H846 C822 0.950 . S
H847 C823 0.948 . S
H848 C825 0.950 . S
H849 C827 0.950 . S
C850 C851 1.349 . S
C850 C852 1.327 . S
C850 H875 0.950 . S
C851 C850 1.349 . S
C851 C867 1.349 . S
C852 C850 1.327 . S
C852 C871 1.429 . S
C852 H876 0.950 . S
C853 C870 1.542 1_455 S
C853 C872 1.368 . S
C853 H877 0.949 . S
H854 C858 0.949 . S
C855 C856 1.349 . S
C855 C857 1.327 . S
C855 H878 0.950 . S
C856 C855 1.349 . S
C856 C868 1.349 . S
C857 C855 1.327 . S
C857 C873 1.429 . S
C857 H879 0.950 . S
C858 H854 0.949 . S
C858 C866 1.542 1_655 S
C858 C874 1.368 . S
H859 C867 0.950 . S
H860 C865 0.950 . S
H861 C866 0.953 . S
H862 C868 0.950 . S
H863 C869 0.950 . S
H864 C870 0.953 . S
C865 H860 0.950 . S
C865 C867 1.327 . S
C865 C871 1.429 . S
C866 C858 1.542 1_455 S
C866 H861 0.953 . S
C866 C872 1.398 . S
C867 C851 1.349 . S
C867 H859 0.950 . S
C867 C865 1.327 . S
C868 C856 1.349 . S
C868 H862 0.950 . S
C868 C869 1.327 . S
C869 H863 0.950 . S
C869 C868 1.327 . S
C869 C873 1.429 . S
C870 C853 1.542 1_655 S
C870 H864 0.953 . S
C870 C874 1.398 . S
C871 C852 1.429 . S
C871 C865 1.429 . S
C871 C872 1.523 . S
C872 C853 1.368 . S
C872 C866 1.398 . S
C872 C871 1.523 . S
C873 C857 1.429 . S
C873 C869 1.429 . S
C873 C874 1.523 . S
C874 C858 1.368 . S
C874 C870 1.398 . S
C874 C873 1.523 . S
H875 C850 0.950 . S
H876 C852 0.950 . S
H877 C853 0.949 . S
H878 C855 0.950 . S
H879 C857 0.950 . S
C880 C881 1.349 . S
C880 C882 1.327 . S
C880 H905 0.950 . S
C881 C880 1.349 . S
C881 C897 1.349 . S
C882 C880 1.327 . S
C882 C901 1.429 . S
C882 H906 0.950 . S
C883 C900 1.574 . S
C883 C902 1.368 . S
C883 H907 0.949 . S
H884 C888 0.949 . S
C885 C886 1.349 . S
C885 C887 1.327 . S
C885 H908 0.950 . S
C886 C885 1.349 . S
C886 C898 1.349 . S
C887 C885 1.327 . S
C887 C903 1.429 . S
C887 H909 0.950 . S
C888 H884 0.949 . S
C888 C896 1.574 . S
C888 C904 1.368 . S
H889 C897 0.950 . S
H890 C895 0.950 . S
H891 C896 0.949 . S
H892 C898 0.950 1_554 S
H893 C899 0.950 . S
H894 C900 0.949 . S
C895 H890 0.950 . S
C895 C897 1.327 . S
C895 C901 1.429 . S
C896 C888 1.574 . S
C896 H891 0.949 . S
C896 C902 1.368 . S
C897 C881 1.349 . S
C897 H889 0.950 . S
C897 C895 1.327 . S
C898 C886 1.349 . S
C898 H892 0.950 1_556 S
C898 C899 1.327 . S
C899 H893 0.950 . S
C899 C898 1.327 . S
C899 C903 1.429 . S
C900 C883 1.574 . S
C900 H894 0.949 . S
C900 C904 1.368 . S
C901 C882 1.429 . S
C901 C895 1.429 . S
C901 C902 1.523 . S
C902 C883 1.368 . S
C902 C896 1.368 . S
C902 C901 1.523 . S
C903 C887 1.429 . S
C903 C899 1.429 . S
C903 C904 1.523 . S
C904 C888 1.368 . S
C904 C900 1.368 . S
C904 C903 1.523 . S
H905 C880 0.950 . S
H906 C882 0.950 . S
H907 C883 0.949 . S
H908 C885 0.950 . S
H909 C887 0.950 . S
C910 C911 1.349 . S
C910 C912 1.327 . S
C910 H935 0.950 . S
C911 C910 1.349 . S
C911 C927 1.349 . S
C912 C910 1.327 . S
C912 C931 1.429 . S
C912 H936 0.950 . S
C913 C930 1.574 . S
C913 C932 1.368 . S
C913 H937 0.949 . S
H914 C918 0.949 . S
C915 C916 1.349 . S
C915 C917 1.327 . S
C915 H938 0.950 . S
C916 C915 1.349 . S
C916 C928 1.349 . S
C917 C915 1.327 . S
C917 C933 1.429 . S
C917 H939 0.950 . S
C918 H914 0.949 . S
C918 C926 1.574 . S
C918 C934 1.368 . S
H919 C927 0.950 . S
H920 C925 0.950 . S
H921 C926 0.949 . S
H922 C928 0.950 . S
H923 C929 0.950 . S
H924 C930 0.949 . S
C925 H920 0.950 . S
C925 C927 1.327 . S
C925 C931 1.429 . S
C926 C918 1.574 . S
C926 H921 0.949 . S
C926 C932 1.368 . S
C927 C911 1.349 . S
C927 H919 0.950 . S
C927 C925 1.327 . S
C928 C916 1.349 . S
C928 H922 0.950 . S
C928 C929 1.327 . S
C929 H923 0.950 . S
C929 C928 1.327 . S
C929 C933 1.429 . S
C930 C913 1.574 . S
C930 H924 0.949 . S
C930 C934 1.368 . S
C931 C912 1.429 . S
C931 C925 1.429 . S
C931 C932 1.523 . S
C932 C913 1.368 . S
C932 C926 1.368 . S
C932 C931 1.523 . S
C933 C917 1.429 . S
C933 C929 1.429 . S
C933 C934 1.523 . S
C934 C918 1.368 . S
C934 C930 1.368 . S
C934 C933 1.523 . S
H935 C910 0.950 . S
H936 C912 0.950 . S
H937 C913 0.949 . S
H938 C915 0.950 . S
H939 C917 0.950 . S
C940 C941 1.349 . S
C940 C942 1.327 . S
C940 H965 0.950 . S
C941 C940 1.349 . S
C941 C957 1.349 . S
C942 C940 1.327 . S
C942 C961 1.429 . S
C942 H966 0.950 . S
C943 C960 1.574 . S
C943 C962 1.368 . S
C943 H967 0.949 . S
H944 C948 0.949 . S
C945 C946 1.349 . S
C945 C947 1.327 . S
C945 H968 0.950 . S
C946 C945 1.349 . S
C946 C958 1.349 . S
C947 C945 1.327 . S
C947 C963 1.429 . S
C947 H969 0.950 . S
C948 H944 0.949 . S
C948 C956 1.574 . S
C948 C964 1.368 . S
H949 C957 0.950 . S
H950 C955 0.950 . S
H951 C956 0.949 . S
H952 C958 0.950 . S
H953 C959 0.950 . S
H954 C960 0.949 . S
C955 H950 0.950 . S
C955 C957 1.327 . S
C955 C961 1.429 . S
C956 C948 1.574 . S
C956 H951 0.949 . S
C956 C962 1.368 . S
C957 C941 1.349 . S
C957 H949 0.950 . S
C957 C955 1.327 . S
C958 C946 1.349 . S
C958 H952 0.950 . S
C958 C959 1.327 . S
C959 H953 0.950 . S
C959 C958 1.327 . S
C959 C963 1.429 . S
C960 C943 1.574 . S
C960 H954 0.949 . S
C960 C964 1.368 . S
C961 C942 1.429 . S
C961 C955 1.429 . S
C961 C962 1.523 . S
C962 C943 1.368 . S
C962 C956 1.368 . S
C962 C961 1.523 . S
C963 C947 1.429 . S
C963 C959 1.429 . S
C963 C964 1.523 . S
C964 C948 1.368 . S
C964 C960 1.368 . S
C964 C963 1.523 . S
H965 C940 0.950 . S
H966 C942 0.950 . S
H967 C943 0.949 . S
H968 C945 0.950 . S
H969 C947 0.950 . S
C970 C971 1.349 . S
C970 C972 1.327 . S
C970 H995 0.950 . S
C971 C970 1.349 . S
C971 C987 1.349 . S
C972 C970 1.327 . S
C972 C991 1.429 . S
C972 H996 0.950 . S
C973 C990 1.574 . S
C973 C992 1.368 . S
C973 H997 0.949 . S
H974 C978 0.949 . S
C975 C976 1.349 . S
C975 C977 1.327 . S
C975 H998 0.950 . S
C976 C975 1.349 . S
C976 C988 1.349 . S
C977 C975 1.327 . S
C977 C993 1.429 . S
C977 H999 0.950 . S
C978 H974 0.949 . S
C978 C986 1.574 . S
C978 C994 1.368 . S
H979 C987 0.950 . S
H980 C985 0.950 . S
H981 C986 0.949 . S
H982 C988 0.950 . S
H983 C989 0.950 . S
H984 C990 0.949 . S
C985 H980 0.950 . S
C985 C987 1.327 . S
C985 C991 1.429 . S
C986 C978 1.574 . S
C986 H981 0.949 . S
C986 C992 1.368 . S
C987 C971 1.349 . S
C987 H979 0.950 . S
C987 C985 1.327 . S
C988 C976 1.349 . S
C988 H982 0.950 . S
C988 C989 1.327 . S
C989 H983 0.950 . S
C989 C988 1.327 . S
C989 C993 1.429 . S
C990 C973 1.574 . S
C990 H984 0.949 . S
C990 C994 1.368 . S
C991 C972 1.429 . S
C991 C985 1.429 . S
C991 C992 1.523 . S
C992 C973 1.368 . S
C992 C986 1.368 . S
C992 C991 1.523 . S
C993 C977 1.429 . S
C993 C989 1.429 . S
C993 C994 1.523 . S
C994 C978 1.368 . S
C994 C990 1.368 . S
C994 C993 1.523 . S
H995 C970 0.950 . S
H996 C972 0.950 . S
H997 C973 0.949 . S
H998 C975 0.950 . S
H999 C977 0.950 . S
C1000 C1001 1.349 . S
C1000 C1002 1.327 . S
C1000 H1025 0.950 1_554 S
C1001 C1000 1.349 . S
C1001 C1017 1.349 . S
C1002 C1000 1.327 . S
C1002 C1021 1.429 . S
C1002 H1026 0.950 . S
C1003 C1020 1.574 . S
C1003 C1022 1.368 . S
C1003 H1027 0.949 . S
H1004 C1008 0.949 . S
C1005 C1006 1.349 . S
C1005 C1007 1.327 . S
C1005 H1028 0.950 . S
C1006 C1005 1.349 . S
C1006 C1018 1.349 . S
C1007 C1005 1.327 . S
C1007 C1023 1.429 . S
C1007 H1029 0.950 . S
C1008 H1004 0.949 . S
C1008 C1016 1.574 . S
C1008 C1024 1.368 . S
H1009 C1017 0.950 . S
H1010 C1015 0.950 . S
H1011 C1016 0.949 . S
H1012 C1018 0.950 . S
H1013 C1019 0.950 . S
H1014 C1020 0.949 . S
C1015 H1010 0.950 . S
C1015 C1017 1.327 . S
C1015 C1021 1.429 . S
C1016 C1008 1.574 . S
C1016 H1011 0.949 . S
C1016 C1022 1.368 . S
C1017 C1001 1.349 . S
C1017 H1009 0.950 . S
C1017 C1015 1.327 . S
C1018 C1006 1.349 . S
C1018 H1012 0.950 . S
C1018 C1019 1.327 . S
C1019 H1013 0.950 . S
C1019 C1018 1.327 . S
C1019 C1023 1.429 . S
C1020 C1003 1.574 . S
C1020 H1014 0.949 . S
C1020 C1024 1.368 . S
C1021 C1002 1.429 . S
C1021 C1015 1.429 . S
C1021 C1022 1.523 . S
C1022 C1003 1.368 . S
C1022 C1016 1.368 . S
C1022 C1021 1.523 . S
C1023 C1007 1.429 . S
C1023 C1019 1.429 . S
C1023 C1024 1.523 . S
C1024 C1008 1.368 . S
C1024 C1020 1.368 . S
C1024 C1023 1.523 . S
H1025 C1000 0.950 1_556 S
H1026 C1002 0.950 . S
H1027 C1003 0.949 . S
H1028 C1005 0.950 . S
H1029 C1007 0.950 . S
C1030 C1031 1.349 . S
C1030 C1032 1.327 . S
C1030 H1055 0.950 . S
C1031 C1030 1.349 . S
C1031 C1047 1.349 . S
C1032 C1030 1.327 . S
C1032 C1051 1.429 . S
C1032 H1056 0.950 . S
C1033 C1050 1.574 . S
C1033 C1052 1.368 . S
C1033 H1057 0.949 . S
H1034 C1038 0.949 . S
C1035 C1036 1.349 . S
C1035 C1037 1.327 . S
C1035 H1058 0.950 . S
C1036 C1035 1.349 . S
C1036 C1048 1.349 . S
C1037 C1035 1.327 . S
C1037 C1053 1.429 . S
C1037 H1059 0.950 . S
C1038 H1034 0.949 . S
C1038 C1046 1.574 . S
C1038 C1054 1.368 . S
H1039 C1047 0.950 . S
H1040 C1045 0.950 . S
H1041 C1046 0.949 . S
H1042 C1048 0.950 . S
H1043 C1049 0.950 . S
H1044 C1050 0.949 . S
C1045 H1040 0.950 . S
C1045 C1047 1.327 . S
C1045 C1051 1.429 . S
C1046 C1038 1.574 . S
C1046 H1041 0.949 . S
C1046 C1052 1.368 . S
C1047 C1031 1.349 . S
C1047 H1039 0.950 . S
C1047 C1045 1.327 . S
C1048 C1036 1.349 . S
C1048 H1042 0.950 . S
C1048 C1049 1.327 . S
C1049 H1043 0.950 . S
C1049 C1048 1.327 . S
C1049 C1053 1.429 . S
C1050 C1033 1.574 . S
C1050 H1044 0.949 . S
C1050 C1054 1.368 . S
C1051 C1032 1.429 . S
C1051 C1045 1.429 . S
C1051 C1052 1.523 . S
C1052 C1033 1.368 . S
C1052 C1046 1.368 . S
C1052 C1051 1.523 . S
C1053 C1037 1.429 . S
C1053 C1049 1.429 . S
C1053 C1054 1.523 . S
C1054 C1038 1.368 . S
C1054 C1050 1.368 . S
C1054 C1053 1.523 . S
H1055 C1030 0.950 . S
H1056 C1032 0.950 . S
H1057 C1033 0.949 . S
H1058 C1035 0.950 . S
H1059 C1037 0.950 . S
C1060 C1061 1.349 . S
C1060 C1062 1.327 . S
C1060 H1085 0.950 . S
C1061 C1060 1.349 . S
C1061 C1077 1.349 . S
C1062 C1060 1.327 . S
C1062 C1081 1.429 . S
C1062 H1086 0.950 . S
C1063 C1080 1.574 . S
C1063 C1082 1.368 . S
C1063 H1087 0.949 . S
H1064 C1068 0.949 . S
C1065 C1066 1.349 . S
C1065 C1067 1.327 . S
C1065 H1088 0.950 . S
C1066 C1065 1.349 . S
C1066 C1078 1.349 . S
C1067 C1065 1.327 . S
C1067 C1083 1.429 . S
C1067 H1089 0.950 . S
C1068 H1064 0.949 . S
C1068 C1076 1.574 . S
C1068 C1084 1.368 . S
H1069 C1077 0.950 . S
H1070 C1075 0.950 . S
H1071 C1076 0.949 . S
H1072 C1078 0.950 . S
H1073 C1079 0.950 . S
H1074 C1080 0.949 . S
C1075 H1070 0.950 . S
C1075 C1077 1.327 . S
C1075 C1081 1.429 . S
C1076 C1068 1.574 . S
C1076 H1071 0.949 . S
C1076 C1082 1.368 . S
C1077 C1061 1.349 . S
C1077 H1069 0.950 . S
C1077 C1075 1.327 . S
C1078 C1066 1.349 . S
C1078 H1072 0.950 . S
C1078 C1079 1.327 . S
C1079 H1073 0.950 . S
C1079 C1078 1.327 . S
C1079 C1083 1.429 . S
C1080 C1063 1.574 . S
C1080 H1074 0.949 . S
C1080 C1084 1.368 . S
C1081 C1062 1.429 . S
C1081 C1075 1.429 . S
C1081 C1082 1.523 . S
C1082 C1063 1.368 . S
C1082 C1076 1.368 . S
C1082 C1081 1.523 . S
C1083 C1067 1.429 . S
C1083 C1079 1.429 . S
C1083 C1084 1.523 . S
C1084 C1068 1.368 . S
C1084 C1080 1.368 . S
C1084 C1083 1.523 . S
H1085 C1060 0.950 . S
H1086 C1062 0.950 . S
H1087 C1063 0.949 . S
H1088 C1065 0.950 . S
H1089 C1067 0.950 . S
C1090 C1091 1.349 . S
C1090 C1092 1.327 . S
C1090 H1115 0.950 . S
C1091 C1090 1.349 . S
C1091 C1107 1.349 . S
C1092 C1090 1.327 . S
C1092 C1111 1.429 . S
C1092 H1116 0.950 . S
C1093 C1110 1.574 . S
C1093 C1112 1.368 . S
C1093 H1117 0.949 . S
H1094 C1098 0.949 . S
C1095 C1096 1.349 . S
C1095 C1097 1.327 . S
C1095 H1118 0.950 . S
C1096 C1095 1.349 . S
C1096 C1108 1.349 . S
C1097 C1095 1.327 . S
C1097 C1113 1.429 . S
C1097 H1119 0.950 . S
C1098 H1094 0.949 . S
C1098 C1106 1.574 . S
C1098 C1114 1.368 . S
H1099 C1107 0.950 . S
H1100 C1105 0.950 . S
H1101 C1106 0.949 . S
H1102 C1108 0.950 . S
H1103 C1109 0.950 . S
H1104 C1110 0.949 . S
C1105 H1100 0.950 . S
C1105 C1107 1.327 . S
C1105 C1111 1.429 . S
C1106 C1098 1.574 . S
C1106 H1101 0.949 . S
C1106 C1112 1.368 . S
C1107 C1091 1.349 . S
C1107 H1099 0.950 . S
C1107 C1105 1.327 . S
C1108 C1096 1.349 . S
C1108 H1102 0.950 . S
C1108 C1109 1.327 . S
C1109 H1103 0.950 . S
C1109 C1108 1.327 . S
C1109 C1113 1.429 . S
C1110 C1093 1.574 . S
C1110 H1104 0.949 . S
C1110 C1114 1.368 . S
C1111 C1092 1.429 . S
C1111 C1105 1.429 . S
C1111 C1112 1.523 . S
C1112 C1093 1.368 . S
C1112 C1106 1.368 . S
C1112 C1111 1.523 . S
C1113 C1097 1.429 . S
C1113 C1109 1.429 . S
C1113 C1114 1.523 . S
C1114 C1098 1.368 . S
C1114 C1110 1.368 . S
C1114 C1113 1.523 . S
H1115 C1090 0.950 . S
H1116 C1092 0.950 . S
H1117 C1093 0.949 . S
H1118 C1095 0.950 . S
H1119 C1097 0.950 . S
C1120 C1121 1.349 . S
C1120 C1122 1.327 . S
C1120 H1145 0.950 . S
C1121 C1120 1.349 . S
C1121 C1137 1.349 . S
C1122 C1120 1.327 . S
C1122 C1141 1.429 . S
C1122 H1146 0.950 . S
C1123 C1140 1.574 . S
C1123 C1142 1.368 . S
C1123 H1147 0.949 . S
H1124 C1128 0.949 . S
C1125 C1126 1.349 . S
C1125 C1127 1.327 . S
C1125 H1148 0.950 . S
C1126 C1125 1.349 . S
C1126 C1138 1.349 . S
C1127 C1125 1.327 . S
C1127 C1143 1.429 . S
C1127 H1149 0.950 . S
C1128 H1124 0.949 . S
C1128 C1136 1.574 . S
C1128 C1144 1.368 . S
H1129 C1137 0.950 . S
H1130 C1135 0.950 . S
H1131 C1136 0.949 . S
H1132 C1138 0.950 . S
H1133 C1139 0.950 . S
H1134 C1140 0.949 . S
C1135 H1130 0.950 . S
C1135 C1137 1.327 . S
C1135 C1141 1.429 . S
C1136 C1128 1.574 . S
C1136 H1131 0.949 . S
C1136 C1142 1.368 . S
C1137 C1121 1.349 . S
C1137 H1129 0.950 . S
C1137 C1135 1.327 . S
C1138 C1126 1.349 . S
C1138 H1132 0.950 . S
C1138 C1139 1.327 . S
C1139 H1133 0.950 . S
C1139 C1138 1.327 . S
C1139 C1143 1.429 . S
C1140 C1123 1.574 . S
C1140 H1134 0.949 . S
C1140 C1144 1.368 . S
C1141 C1122 1.429 . S
C1141 C1135 1.429 . S
C1141 C1142 1.523 . S
C1142 C1123 1.368 . S
C1142 C1136 1.368 . S
C1142 C1141 1.523 . S
C1143 C1127 1.429 . S
C1143 C1139 1.429 . S
C1143 C1144 1.523 . S
C1144 C1128 1.368 . S
C1144 C1140 1.368 . S
C1144 C1143 1.523 . S
H1145 C1120 0.950 . S
H1146 C1122 0.950 . S
H1147 C1123 0.949 . S
H1148 C1125 0.950 . S
H1149 C1127 0.950 . S
C1150 C1151 1.349 . S
C1150 C1152 1.327 . S
C1150 H1175 0.950 . S
C1151 C1150 1.349 . S
C1151 C1167 1.349 . S
C1152 C1150 1.327 . S
C1152 C1171 1.429 . S
C1152 H1176 0.997 . S
C1153 C1170 1.574 . S
C1153 C1172 1.368 . S
C1153 H1177 0.949 1_565 S
H1154 C1158 0.949 . S
C1155 C1156 1.349 . S
C1155 C1157 1.327 . S
C1155 H1178 0.950 . S
C1156 C1155 1.349 . S
C1156 C1168 1.349 . S
C1157 C1155 1.327 . S
C1157 C1173 1.429 . S
C1157 H1179 0.950 . S
C1158 H1154 0.949 . S
C1158 C1166 1.574 . S
C1158 C1174 1.368 . S
H1159 C1167 0.950 . S
H1160 C1165 0.950 . S
H1161 C1166 0.949 . S
H1162 C1168 0.950 . S
H1163 C1169 0.950 . S
H1164 C1170 0.949 . S
C1165 H1160 0.950 . S
C1165 C1167 1.327 . S
C1165 C1171 1.429 . S
C1166 C1158 1.574 . S
C1166 H1161 0.949 . S
C1166 C1172 1.368 . S
C1167 C1151 1.349 . S
C1167 H1159 0.950 . S
C1167 C1165 1.327 . S
C1168 C1156 1.349 . S
C1168 H1162 0.950 . S
C1168 C1169 1.327 . S
C1169 H1163 0.950 . S
C1169 C1168 1.327 . S
C1169 C1173 1.429 . S
C1170 C1153 1.574 . S
C1170 H1164 0.949 . S
C1170 C1174 1.368 . S
C1171 C1152 1.429 . S
C1171 C1165 1.429 . S
C1171 C1172 1.523 1_545 S
C1172 C1153 1.368 . S
C1172 C1166 1.368 . S
C1172 C1171 1.523 1_565 S
C1173 C1157 1.429 . S
C1173 C1169 1.429 . S
C1173 C1174 1.523 . S
C1174 C1158 1.368 . S
C1174 C1170 1.368 . S
C1174 C1173 1.523 . S
H1175 C1150 0.950 . S
H1176 C1152 0.997 . S
H1177 C1153 0.949 1_545 S
H1178 C1155 0.950 . S
H1179 C1157 0.950 . S
C1180 C1181 1.349 . S
C1180 C1182 1.327 . S
C1180 H1205 0.950 . S
C1181 C1180 1.349 . S
C1181 C1197 1.349 . S
C1182 C1180 1.327 . S
C1182 C1201 1.429 . S
C1182 H1206 0.950 . S
C1183 C1200 1.574 . S
C1183 C1202 1.368 . S
C1183 H1207 0.949 . S
H1184 C1188 0.949 . S
C1185 C1186 1.349 . S
C1185 C1187 1.327 . S
C1185 H1208 0.950 . S
C1186 C1185 1.349 . S
C1186 C1198 1.349 . S
C1187 C1185 1.327 . S
C1187 C1203 1.429 . S
C1187 H1209 0.950 . S
C1188 H1184 0.949 . S
C1188 C1196 1.574 . S
C1188 C1204 1.368 . S
H1189 C1197 0.950 1_554 S
H1190 C1195 0.950 . S
H1191 C1196 0.949 . S
H1192 C1198 0.950 . S
H1193 C1199 0.950 . S
H1194 C1200 0.949 . S
C1195 H1190 0.950 . S
C1195 C1197 1.327 . S
C1195 C1201 1.429 . S
C1196 C1188 1.574 . S
C1196 H1191 0.949 . S
C1196 C1202 1.368 . S
C1197 C1181 1.349 . S
C1197 H1189 0.950 1_556 S
C1197 C1195 1.327 . S
C1198 C1186 1.349 . S
C1198 H1192 0.950 . S
C1198 C1199 1.327 . S
C1199 H1193 0.950 . S
C1199 C1198 1.327 . S
C1199 C1203 1.429 . S
C1200 C1183 1.574 . S
C1200 H1194 0.949 . S
C1200 C1204 1.368 . S
C1201 C1182 1.429 . S
C1201 C1195 1.429 . S
C1201 C1202 1.523 . S
C1202 C1183 1.368 . S
C1202 C1196 1.368 . S
C1202 C1201 1.523 . S
C1203 C1187 1.429 . S
C1203 C1199 1.429 . S
C1203 C1204 1.523 . S
C1204 C1188 1.368 . S
C1204 C1200 1.368 . S
C1204 C1203 1.523 . S
H1205 C1180 0.950 . S
H1206 C1182 0.950 . S
H1207 C1183 0.949 . S
H1208 C1185 0.950 . S
H1209 C1187 0.950 . S
C1210 C1211 1.349 . S
C1210 C1212 1.327 . S
C1210 H1235 0.950 . S
C1211 C1210 1.349 . S
C1211 C1227 1.349 . S
C1212 C1210 1.327 . S
C1212 C1231 1.429 . S
C1212 H1236 0.950 . S
C1213 C1230 1.574 . S
C1213 C1232 1.368 . S
C1213 H1237 0.949 . S
H1214 C1218 0.949 . S
C1215 C1216 1.349 . S
C1215 C1217 1.327 . S
C1215 H1238 0.950 . S
C1216 C1215 1.349 . S
C1216 C1228 1.349 . S
C1217 C1215 1.327 . S
C1217 C1233 1.429 . S
C1217 H1239 0.950 . S
C1218 H1214 0.949 . S
C1218 C1226 1.574 . S
C1218 C1234 1.368 . S
H1219 C1227 0.950 . S
H1220 C1225 0.969 . S
H1221 C1226 0.949 1_565 S
H1222 C1228 0.950 . S
H1223 C1229 0.950 . S
H1224 C1230 0.949 . S
C1225 H1220 0.969 . S
C1225 C1227 1.327 . S
C1225 C1231 1.429 . S
C1226 C1218 1.574 . S
C1226 H1221 0.949 1_545 S
C1226 C1232 1.368 . S
C1227 C1211 1.349 . S
C1227 H1219 0.950 . S
C1227 C1225 1.327 . S
C1228 C1216 1.349 . S
C1228 H1222 0.950 . S
C1228 C1229 1.327 . S
C1229 H1223 0.950 . S
C1229 C1228 1.327 . S
C1229 C1233 1.429 . S
C1230 C1213 1.574 . S
C1230 H1224 0.949 . S
C1230 C1234 1.368 . S
C1231 C1212 1.429 . S
C1231 C1225 1.429 . S
C1231 C1232 1.523 1_565 S
C1232 C1213 1.368 . S
C1232 C1226 1.368 . S
C1232 C1231 1.523 1_545 S
C1233 C1217 1.429 . S
C1233 C1229 1.429 . S
C1233 C1234 1.523 . S
C1234 C1218 1.368 . S
C1234 C1230 1.368 . S
C1234 C1233 1.523 . S
H1235 C1210 0.950 . S
H1236 C1212 0.950 . S
H1237 C1213 0.949 . S
H1238 C1215 0.950 . S
H1239 C1217 0.950 . S
C1240 C1241 1.349 . S
C1240 C1242 1.327 . S
C1240 H1265 0.950 . S
C1241 C1240 1.349 . S
C1241 C1257 1.349 . S
C1242 C1240 1.327 . S
C1242 C1261 1.429 . S
C1242 H1266 0.950 . S
C1243 C1260 1.574 . S
C1243 C1262 1.368 . S
C1243 H1267 0.949 . S
H1244 C1248 0.949 . S
C1245 C1246 1.349 . S
C1245 C1247 1.327 . S
C1245 H1268 0.950 . S
C1246 C1245 1.349 . S
C1246 C1258 1.349 . S
C1247 C1245 1.327 . S
C1247 C1263 1.429 . S
C1247 H1269 0.950 . S
C1248 H1244 0.949 . S
C1248 C1256 1.574 . S
C1248 C1264 1.368 . S
H1249 C1257 0.950 . S
H1250 C1255 0.950 . S
H1251 C1256 0.949 . S
H1252 C1258 0.950 . S
H1253 C1259 0.950 . S
H1254 C1260 0.949 . S
C1255 H1250 0.950 . S
C1255 C1257 1.327 . S
C1255 C1261 1.429 . S
C1256 C1248 1.574 . S
C1256 H1251 0.949 . S
C1256 C1262 1.368 . S
C1257 C1241 1.349 . S
C1257 H1249 0.950 . S
C1257 C1255 1.327 . S
C1258 C1246 1.349 . S
C1258 H1252 0.950 . S
C1258 C1259 1.327 . S
C1259 H1253 0.950 . S
C1259 C1258 1.327 . S
C1259 C1263 1.429 . S
C1260 C1243 1.574 . S
C1260 H1254 0.949 . S
C1260 C1264 1.368 . S
C1261 C1242 1.429 . S
C1261 C1255 1.429 . S
C1261 C1262 1.523 . S
C1262 C1243 1.368 . S
C1262 C1256 1.368 . S
C1262 C1261 1.523 . S
C1263 C1247 1.429 . S
C1263 C1259 1.429 . S
C1263 C1264 1.523 . S
C1264 C1248 1.368 . S
C1264 C1260 1.368 . S
C1264 C1263 1.523 . S
H1265 C1240 0.950 . S
H1266 C1242 0.950 . S
H1267 C1243 0.949 . S
H1268 C1245 0.950 . S
H1269 C1247 0.950 . S
C1270 C1271 1.349 . S
C1270 C1272 1.327 . S
C1270 H1295 0.950 . S
C1271 C1270 1.349 . S
C1271 C1287 1.349 . S
C1272 C1270 1.327 . S
C1272 C1291 1.429 . S
C1272 H1296 0.950 . S
C1273 C1290 1.574 . S
C1273 C1292 1.368 . S
C1273 H1297 0.949 . S
H1274 C1278 0.949 . S
C1275 C1276 1.349 . S
C1275 C1277 1.327 . S
C1275 H1298 0.950 . S
C1276 C1275 1.349 . S
C1276 C1288 1.349 . S
C1277 C1275 1.327 . S
C1277 C1293 1.429 . S
C1277 H1299 0.950 . S
C1278 H1274 0.949 . S
C1278 C1286 1.574 . S
C1278 C1294 1.368 . S
H1279 C1287 0.950 . S
H1280 C1285 0.950 . S
H1281 C1286 0.949 . S
H1282 C1288 0.950 . S
H1283 C1289 0.950 . S
H1284 C1290 0.949 1_565 S
C1285 H1280 0.950 . S
C1285 C1287 1.327 . S
C1285 C1291 1.429 . S
C1286 C1278 1.574 . S
C1286 H1281 0.949 . S
C1286 C1292 1.368 . S
C1287 C1271 1.349 . S
C1287 H1279 0.950 . S
C1287 C1285 1.327 . S
C1288 C1276 1.349 . S
C1288 H1282 0.950 . S
C1288 C1289 1.327 . S
C1289 H1283 0.950 . S
C1289 C1288 1.327 . S
C1289 C1293 1.429 . S
C1290 C1273 1.574 . S
C1290 H1284 0.949 1_545 S
C1290 C1294 1.368 . S
C1291 C1272 1.429 . S
C1291 C1285 1.429 . S
C1291 C1292 1.523 . S
C1292 C1273 1.368 . S
C1292 C1286 1.368 . S
C1292 C1291 1.523 . S
C1293 C1277 1.429 . S
C1293 C1289 1.429 . S
C1293 C1294 1.523 1_565 S
C1294 C1278 1.368 . S
C1294 C1290 1.368 . S
C1294 C1293 1.523 1_545 S
H1295 C1270 0.950 . S
H1296 C1272 0.950 . S
H1297 C1273 0.949 . S
H1298 C1275 0.950 . S
H1299 C1277 0.950 . S
C1300 C1301 1.349 . S
C1300 C1302 1.327 . S
C1300 H1325 0.950 . S
C1301 C1300 1.349 . S
C1301 C1317 1.349 . S
C1302 C1300 1.327 . S
C1302 C1321 1.429 . S
C1302 H1326 0.950 . S
C1303 C1320 1.574 . S
C1303 C1322 1.368 . S
C1303 H1327 0.949 . S
H1304 C1308 0.949 . S
C1305 C1306 1.349 . S
C1305 C1307 1.327 . S
C1305 H1328 0.950 1_554 S
C1306 C1305 1.349 . S
C1306 C1318 1.349 . S
C1307 C1305 1.327 . S
C1307 C1323 1.429 . S
C1307 H1329 0.950 . S
C1308 H1304 0.949 . S
C1308 C1316 1.574 . S
C1308 C1324 1.368 . S
H1309 C1317 0.950 . S
H1310 C1315 0.950 . S
H1311 C1316 0.949 . S
H1312 C1318 0.950 . S
H1313 C1319 0.950 . S
H1314 C1320 0.949 . S
C1315 H1310 0.950 . S
C1315 C1317 1.327 . S
C1315 C1321 1.429 . S
C1316 C1308 1.574 . S
C1316 H1311 0.949 . S
C1316 C1322 1.368 . S
C1317 C1301 1.349 . S
C1317 H1309 0.950 . S
C1317 C1315 1.327 . S
C1318 C1306 1.349 . S
C1318 H1312 0.950 . S
C1318 C1319 1.327 . S
C1319 H1313 0.950 . S
C1319 C1318 1.327 . S
C1319 C1323 1.429 . S
C1320 C1303 1.574 . S
C1320 H1314 0.949 . S
C1320 C1324 1.368 . S
C1321 C1302 1.429 . S
C1321 C1315 1.429 . S
C1321 C1322 1.523 . S
C1322 C1303 1.368 . S
C1322 C1316 1.368 . S
C1322 C1321 1.523 . S
C1323 C1307 1.429 . S
C1323 C1319 1.429 . S
C1323 C1324 1.523 . S
C1324 C1308 1.368 . S
C1324 C1320 1.368 . S
C1324 C1323 1.523 . S
H1325 C1300 0.950 . S
H1326 C1302 0.950 . S
H1327 C1303 0.949 . S
H1328 C1305 0.950 1_556 S
H1329 C1307 0.950 . S
C1330 C1331 1.349 . S
C1330 C1332 1.327 . S
C1330 H1355 0.950 . S
C1331 C1330 1.349 . S
C1331 C1347 1.349 . S
C1332 C1330 1.327 . S
C1332 C1351 1.429 . S
C1332 H1356 0.950 . S
C1333 C1350 1.574 . S
C1333 C1352 1.368 . S
C1333 H1357 0.949 . S
H1334 C1338 0.949 . S
C1335 C1336 1.349 . S
C1335 C1337 1.327 . S
C1335 H1358 0.950 . S
C1336 C1335 1.349 . S
C1336 C1348 1.349 . S
C1337 C1335 1.327 . S
C1337 C1353 1.429 . S
C1337 H1359 0.950 . S
C1338 H1334 0.949 . S
C1338 C1346 1.574 . S
C1338 C1354 1.368 . S
H1339 C1347 0.950 . S
H1340 C1345 0.950 . S
H1341 C1346 0.949 . S
H1342 C1348 0.950 . S
H1343 C1349 0.950 . S
H1344 C1350 0.949 . S
C1345 H1340 0.950 . S
C1345 C1347 1.327 . S
C1345 C1351 1.429 . S
C1346 C1338 1.574 . S
C1346 H1341 0.949 . S
C1346 C1352 1.368 . S
C1347 C1331 1.349 . S
C1347 H1339 0.950 . S
C1347 C1345 1.327 . S
C1348 C1336 1.349 . S
C1348 H1342 0.950 . S
C1348 C1349 1.327 . S
C1349 H1343 0.950 . S
C1349 C1348 1.327 . S
C1349 C1353 1.429 . S
C1350 C1333 1.574 . S
C1350 H1344 0.949 . S
C1350 C1354 1.368 . S
C1351 C1332 1.429 . S
C1351 C1345 1.429 . S
C1351 C1352 1.523 1_545 S
C1352 C1333 1.368 . S
C1352 C1346 1.368 . S
C1352 C1351 1.523 1_565 S
C1353 C1337 1.429 . S
C1353 C1349 1.429 . S
C1353 C1354 1.523 . S
C1354 C1338 1.368 . S
C1354 C1350 1.368 . S
C1354 C1353 1.523 . S
H1355 C1330 0.950 . S
H1356 C1332 0.950 . S
H1357 C1333 0.949 . S
H1358 C1335 0.950 . S
H1359 C1337 0.950 . S
C1360 C1361 1.349 . S
C1360 C1362 1.327 . S
C1360 H1385 0.950 . S
C1361 C1360 1.349 . S
C1361 C1377 1.349 . S
C1362 C1360 1.327 . S
C1362 C1381 1.429 . S
C1362 H1386 0.950 . S
C1363 C1380 1.574 . S
C1363 C1382 1.368 . S
C1363 H1387 0.949 . S
H1364 C1368 0.949 . S
C1365 C1366 1.349 . S
C1365 C1367 1.327 . S
C1365 H1388 0.950 . S
C1366 C1365 1.349 . S
C1366 C1378 1.349 . S
C1367 C1365 1.327 . S
C1367 C1383 1.429 . S
C1367 H1389 0.950 . S
C1368 H1364 0.949 . S
C1368 C1376 1.574 . S
C1368 C1384 1.368 . S
H1369 C1377 0.950 . S
H1370 C1375 0.950 . S
H1371 C1376 0.949 . S
H1372 C1378 0.950 . S
H1373 C1379 0.950 . S
H1374 C1380 0.949 . S
C1375 H1370 0.950 . S
C1375 C1377 1.327 . S
C1375 C1381 1.429 . S
C1376 C1368 1.574 . S
C1376 H1371 0.949 . S
C1376 C1382 1.368 . S
C1377 C1361 1.349 . S
C1377 H1369 0.950 . S
C1377 C1375 1.327 . S
C1378 C1366 1.349 . S
C1378 H1372 0.950 . S
C1378 C1379 1.327 . S
C1379 H1373 0.950 . S
C1379 C1378 1.327 . S
C1379 C1383 1.429 . S
C1380 C1363 1.574 . S
C1380 H1374 0.949 . S
C1380 C1384 1.368 . S
C1381 C1362 1.429 . S
C1381 C1375 1.429 . S
C1381 C1382 1.523 . S
C1382 C1363 1.368 . S
C1382 C1376 1.368 . S
C1382 C1381 1.523 . S
C1383 C1367 1.429 . S
C1383 C1379 1.429 . S
C1383 C1384 1.523 . S
C1384 C1368 1.368 . S
C1384 C1380 1.368 . S
C1384 C1383 1.523 . S
H1385 C1360 0.950 . S
H1386 C1362 0.950 . S
H1387 C1363 0.949 . S
H1388 C1365 0.950 . S
H1389 C1367 0.950 . S
C1390 C1391 1.349 . S
C1390 C1392 1.327 . S
C1390 H1415 0.950 . S
C1391 C1390 1.349 . S
C1391 C1407 1.349 . S
C1392 C1390 1.327 . S
C1392 C1411 1.429 . S
C1392 H1416 0.950 . S
C1393 C1410 1.574 . S
C1393 C1412 1.368 . S
C1393 H1417 0.949 . S
H1394 C1398 0.949 . S
C1395 C1396 1.349 . S
C1395 C1397 1.327 1_556 S
C1395 H1418 0.950 . S
C1396 C1395 1.349 . S
C1396 C1408 1.349 1_556 S
C1397 C1395 1.327 1_554 S
C1397 C1413 1.429 . S
C1397 H1419 0.950 . S
C1398 H1394 0.949 . S
C1398 C1406 1.574 . S
C1398 C1414 1.368 . S
H1399 C1407 0.950 . S
H1400 C1405 0.950 . S
H1401 C1406 0.949 . S
H1402 C1408 0.950 . S
H1403 C1409 0.950 . S
H1404 C1410 0.949 . S
C1405 H1400 0.950 . S
C1405 C1407 1.327 . S
C1405 C1411 1.429 . S
C1406 C1398 1.574 . S
C1406 H1401 0.949 . S
C1406 C1412 1.368 . S
C1407 C1391 1.349 . S
C1407 H1399 0.950 . S
C1407 C1405 1.327 . S
C1408 C1396 1.349 1_554 S
C1408 H1402 0.950 . S
C1408 C1409 1.327 . S
C1409 H1403 0.950 . S
C1409 C1408 1.327 . S
C1409 C1413 1.429 . S
C1410 C1393 1.574 . S
C1410 H1404 0.949 . S
C1410 C1414 1.368 . S
C1411 C1392 1.429 . S
C1411 C1405 1.429 . S
C1411 C1412 1.523 . S
C1412 C1393 1.368 . S
C1412 C1406 1.368 . S
C1412 C1411 1.523 . S
C1413 C1397 1.429 . S
C1413 C1409 1.429 . S
C1413 C1414 1.523 . S
C1414 C1398 1.368 . S
C1414 C1410 1.368 . S
C1414 C1413 1.523 . S
H1415 C1390 0.950 . S
H1416 C1392 0.950 . S
H1417 C1393 0.949 . S
H1418 C1395 0.950 . S
H1419 C1397 0.950 . S
C1420 C1421 1.349 . S
C1420 C1422 1.327 . S
C1420 H1445 0.950 . S
C1421 C1420 1.349 . S
C1421 C1437 1.349 . S
C1422 C1420 1.327 . S
C1422 C1441 1.429 . S
C1422 H1446 0.950 . S
C1423 C1440 1.574 . S
C1423 C1442 1.368 . S
C1423 H1447 0.949 . S
H1424 C1428 0.949 . S
C1425 C1426 1.349 . S
C1425 C1427 1.327 . S
C1425 H1448 0.950 . S
C1426 C1425 1.349 . S
C1426 C1438 1.349 . S
C1427 C1425 1.327 . S
C1427 C1443 1.429 . S
C1427 H1449 0.950 . S
C1428 H1424 0.949 . S
C1428 C1436 1.574 . S
C1428 C1444 1.368 . S
H1429 C1437 0.950 . S
H1430 C1435 0.950 . S
H1431 C1436 0.949 . S
H1432 C1438 0.950 . S
H1433 C1439 0.950 1_655 S
H1434 C1440 0.949 1_455 S
C1435 H1430 0.950 . S
C1435 C1437 1.327 . S
C1435 C1441 1.429 . S
C1436 C1428 1.574 . S
C1436 H1431 0.949 . S
C1436 C1442 1.368 . S
C1437 C1421 1.349 . S
C1437 H1429 0.950 . S
C1437 C1435 1.327 . S
C1438 C1426 1.349 . S
C1438 H1432 0.950 . S
C1438 C1439 1.327 . S
C1439 H1433 0.950 1_455 S
C1439 C1438 1.327 . S
C1439 C1443 1.429 . S
C1440 C1423 1.574 . S
C1440 H1434 0.949 1_655 S
C1440 C1444 1.368 . S
C1441 C1422 1.429 . S
C1441 C1435 1.429 . S
C1441 C1442 1.523 . S
C1442 C1423 1.368 . S
C1442 C1436 1.368 . S
C1442 C1441 1.523 . S
C1443 C1427 1.429 . S
C1443 C1439 1.429 . S
C1443 C1444 1.523 1_455 S
C1444 C1428 1.368 . S
C1444 C1440 1.368 . S
C1444 C1443 1.523 1_655 S
H1445 C1420 0.950 . S
H1446 C1422 0.950 . S
H1447 C1423 0.949 . S
H1448 C1425 0.950 . S
H1449 C1427 0.950 . S
C1450 C1451 1.349 . S
C1450 C1452 1.327 . S
C1450 H1475 0.950 . S
C1451 C1450 1.349 . S
C1451 C1467 1.349 . S
C1452 C1450 1.327 . S
C1452 C1471 1.429 . S
C1452 H1476 0.950 . S
C1453 C1470 1.574 . S
C1453 C1472 1.368 . S
C1453 H1477 0.949 . S
H1454 C1458 0.949 . S
C1455 C1456 1.349 . S
C1455 C1457 1.327 . S
C1455 H1478 0.950 . S
C1456 C1455 1.349 . S
C1456 C1468 1.349 . S
C1457 C1455 1.327 . S
C1457 C1473 1.429 . S
C1457 H1479 0.950 . S
C1458 H1454 0.949 . S
C1458 C1466 1.574 . S
C1458 C1474 1.368 . S
H1459 C1467 0.950 . S
H1460 C1465 0.950 . S
H1461 C1466 0.949 . S
H1462 C1468 0.950 . S
H1463 C1469 0.950 . S
H1464 C1470 0.949 . S
C1465 H1460 0.950 . S
C1465 C1467 1.327 . S
C1465 C1471 1.429 . S
C1466 C1458 1.574 . S
C1466 H1461 0.949 . S
C1466 C1472 1.368 . S
C1467 C1451 1.349 . S
C1467 H1459 0.950 . S
C1467 C1465 1.327 . S
C1468 C1456 1.349 . S
C1468 H1462 0.950 . S
C1468 C1469 1.327 . S
C1469 H1463 0.950 . S
C1469 C1468 1.327 . S
C1469 C1473 1.429 . S
C1470 C1453 1.574 . S
C1470 H1464 0.949 . S
C1470 C1474 1.368 . S
C1471 C1452 1.429 . S
C1471 C1465 1.429 . S
C1471 C1472 1.523 . S
C1472 C1453 1.368 . S
C1472 C1466 1.368 . S
C1472 C1471 1.523 . S
C1473 C1457 1.429 . S
C1473 C1469 1.429 . S
C1473 C1474 1.523 . S
C1474 C1458 1.368 . S
C1474 C1470 1.368 . S
C1474 C1473 1.523 . S
H1475 C1450 0.950 . S
H1476 C1452 0.950 . S
H1477 C1453 0.949 . S
H1478 C1455 0.950 . S
H1479 C1457 0.950 . S
C1480 C1481 1.349 . S
C1480 C1482 1.327 . S
C1480 H1505 0.950 . S
C1481 C1480 1.349 . S
C1481 C1497 1.349 . S
C1482 C1480 1.327 . S
C1482 C1501 1.429 . S
C1482 H1506 0.950 . S
C1483 C1500 1.574 . S
C1483 C1502 1.368 . S
C1483 H1507 0.949 . S
H1484 C1488 0.949 . S
C1485 C1486 1.349 . S
C1485 C1487 1.327 . S
C1485 H1508 0.950 . S
C1486 C1485 1.349 . S
C1486 C1498 1.349 . S
C1487 C1485 1.327 . S
C1487 C1503 1.429 . S
C1487 H1509 0.950 . S
C1488 H1484 0.949 . S
C1488 C1496 1.574 . S
C1488 C1504 1.368 . S
H1489 C1497 0.950 . S
H1490 C1495 0.950 . S
H1491 C1496 0.949 . S
H1492 C1498 0.950 . S
H1493 C1499 0.950 . S
H1494 C1500 0.949 . S
C1495 H1490 0.950 . S
C1495 C1497 1.327 . S
C1495 C1501 1.429 . S
C1496 C1488 1.574 . S
C1496 H1491 0.949 . S
C1496 C1502 1.368 . S
C1497 C1481 1.349 . S
C1497 H1489 0.950 . S
C1497 C1495 1.327 . S
C1498 C1486 1.349 . S
C1498 H1492 0.950 . S
C1498 C1499 1.327 . S
C1499 H1493 0.950 . S
C1499 C1498 1.327 . S
C1499 C1503 1.429 . S
C1500 C1483 1.574 . S
C1500 H1494 0.949 . S
C1500 C1504 1.368 . S
C1501 C1482 1.429 . S
C1501 C1495 1.429 . S
C1501 C1502 1.523 . S
C1502 C1483 1.368 . S
C1502 C1496 1.368 . S
C1502 C1501 1.523 . S
C1503 C1487 1.429 . S
C1503 C1499 1.429 . S
C1503 C1504 1.523 . S
C1504 C1488 1.368 . S
C1504 C1500 1.368 . S
C1504 C1503 1.523 . S
H1505 C1480 0.950 . S
H1506 C1482 0.950 . S
H1507 C1483 0.949 . S
H1508 C1485 0.950 . S
H1509 C1487 0.950 . S
C1510 C1511 1.349 . S
C1510 C1512 1.327 . S
C1510 H1535 0.950 . S
C1511 C1510 1.349 . S
C1511 C1527 1.349 . S
C1512 C1510 1.327 . S
C1512 C1531 1.429 . S
C1512 H1536 0.950 . S
C1513 C1530 1.574 . S
C1513 C1532 1.368 . S
C1513 H1537 0.949 . S
H1514 C1518 0.949 . S
C1515 C1516 1.349 1_556 S
C1515 C1517 1.327 . S
C1515 H1538 0.950 . S
C1516 C1515 1.349 1_554 S
C1516 C1528 1.349 . S
C1517 C1515 1.327 . S
C1517 C1533 1.429 . S
C1517 H1539 0.950 . S
C1518 H1514 0.949 . S
C1518 C1526 1.574 . S
C1518 C1534 1.368 . S
H1519 C1527 0.950 . S
H1520 C1525 0.950 . S
H1521 C1526 0.949 . S
H1522 C1528 0.950 . S
H1523 C1529 0.950 . S
H1524 C1530 0.949 . S
C1525 H1520 0.950 . S
C1525 C1527 1.327 . S
C1525 C1531 1.429 . S
C1526 C1518 1.574 . S
C1526 H1521 0.949 . S
C1526 C1532 1.368 . S
C1527 C1511 1.349 . S
C1527 H1519 0.950 . S
C1527 C1525 1.327 . S
C1528 C1516 1.349 . S
C1528 H1522 0.950 . S
C1528 C1529 1.327 1_554 S
C1529 H1523 0.950 . S
C1529 C1528 1.327 1_556 S
C1529 C1533 1.429 . S
C1530 C1513 1.574 . S
C1530 H1524 0.949 . S
C1530 C1534 1.368 . S
C1531 C1512 1.429 . S
C1531 C1525 1.429 . S
C1531 C1532 1.523 . S
C1532 C1513 1.368 . S
C1532 C1526 1.368 . S
C1532 C1531 1.523 . S
C1533 C1517 1.429 . S
C1533 C1529 1.429 . S
C1533 C1534 1.523 . S
C1534 C1518 1.368 . S
C1534 C1530 1.368 . S
C1534 C1533 1.523 . S
H1535 C1510 0.950 . S
H1536 C1512 0.950 . S
H1537 C1513 0.949 . S
H1538 C1515 0.950 . S
H1539 C1517 0.950 . S
C1540 C1541 1.349 . S
C1540 C1542 1.327 . S
C1540 H1565 0.950 . S
C1541 C1540 1.349 . S
C1541 C1557 1.349 . S
C1542 C1540 1.327 . S
C1542 C1561 1.429 . S
C1542 H1566 0.950 . S
C1543 C1560 1.574 . S
C1543 C1562 1.368 . S
C1543 H1567 0.949 . S
H1544 C1548 0.949 1_655 S
C1545 C1546 1.349 . S
C1545 C1547 1.327 . S
C1545 H1568 0.950 . S
C1546 C1545 1.349 . S
C1546 C1558 1.349 . S
C1547 C1545 1.327 . S
C1547 C1563 1.429 . S
C1547 H1569 0.950 1_655 S
C1548 H1544 0.949 1_455 S
C1548 C1556 1.574 . S
C1548 C1564 1.368 . S
H1549 C1557 0.950 . S
H1550 C1555 0.950 . S
H1551 C1556 0.949 . S
H1552 C1558 0.950 . S
H1553 C1559 0.950 . S
H1554 C1560 0.949 . S
C1555 H1550 0.950 . S
C1555 C1557 1.327 . S
C1555 C1561 1.429 . S
C1556 C1548 1.574 . S
C1556 H1551 0.949 . S
C1556 C1562 1.368 . S
C1557 C1541 1.349 . S
C1557 H1549 0.950 . S
C1557 C1555 1.327 . S
C1558 C1546 1.349 . S
C1558 H1552 0.950 . S
C1558 C1559 1.327 . S
C1559 H1553 0.950 . S
C1559 C1558 1.327 . S
C1559 C1563 1.429 . S
C1560 C1543 1.574 . S
C1560 H1554 0.949 . S
C1560 C1564 1.368 . S
C1561 C1542 1.429 . S
C1561 C1555 1.429 . S
C1561 C1562 1.523 . S
C1562 C1543 1.368 . S
C1562 C1556 1.368 . S
C1562 C1561 1.523 . S
C1563 C1547 1.429 . S
C1563 C1559 1.429 . S
C1563 C1564 1.523 1_655 S
C1564 C1548 1.368 . S
C1564 C1560 1.368 . S
C1564 C1563 1.523 1_455 S
H1565 C1540 0.950 . S
H1566 C1542 0.950 . S
H1567 C1543 0.949 . S
H1568 C1545 0.950 . S
H1569 C1547 0.950 1_455 S
C1570 C1571 1.349 . S
C1570 C1572 1.327 . S
C1570 H1595 0.950 . S
C1571 C1570 1.349 . S
C1571 C1587 1.349 . S
C1572 C1570 1.327 . S
C1572 C1591 1.429 . S
C1572 H1596 0.950 . S
C1573 C1590 1.574 . S
C1573 C1592 1.368 . S
C1573 H1597 0.949 . S
H1574 C1578 0.949 . S
C1575 C1576 1.349 . S
C1575 C1577 1.327 . S
C1575 H1598 0.950 . S
C1576 C1575 1.349 . S
C1576 C1588 1.349 . S
C1577 C1575 1.327 . S
C1577 C1593 1.429 . S
C1577 H1599 0.950 . S
C1578 H1574 0.949 . S
C1578 C1586 1.574 . S
C1578 C1594 1.368 . S
H1579 C1587 0.950 . S
H1580 C1585 0.950 . S
H1581 C1586 0.949 . S
H1582 C1588 0.950 . S
H1583 C1589 0.950 . S
H1584 C1590 0.949 . S
C1585 H1580 0.950 . S
C1585 C1587 1.327 . S
C1585 C1591 1.429 . S
C1586 C1578 1.574 . S
C1586 H1581 0.949 . S
C1586 C1592 1.368 . S
C1587 C1571 1.349 . S
C1587 H1579 0.950 . S
C1587 C1585 1.327 . S
C1588 C1576 1.349 . S
C1588 H1582 0.950 . S
C1588 C1589 1.327 . S
C1589 H1583 0.950 . S
C1589 C1588 1.327 . S
C1589 C1593 1.429 . S
C1590 C1573 1.574 . S
C1590 H1584 0.949 . S
C1590 C1594 1.368 . S
C1591 C1572 1.429 . S
C1591 C1585 1.429 . S
C1591 C1592 1.523 . S
C1592 C1573 1.368 . S
C1592 C1586 1.368 . S
C1592 C1591 1.523 . S
C1593 C1577 1.429 . S
C1593 C1589 1.429 . S
C1593 C1594 1.523 . S
C1594 C1578 1.368 . S
C1594 C1590 1.368 . S
C1594 C1593 1.523 . S
H1595 C1570 0.950 . S
H1596 C1572 0.950 . S
H1597 C1573 0.949 . S
H1598 C1575 0.950 . S
H1599 C1577 0.950 . S
C1600 C1601 1.349 . S
C1600 C1602 1.327 . S
C1600 H1625 0.950 . S
C1601 C1600 1.349 . S
C1601 C1617 1.349 . S
C1602 C1600 1.327 . S
C1602 C1621 1.429 . S
C1602 H1626 0.950 . S
C1603 C1620 1.574 . S
C1603 C1622 1.368 . S
C1603 H1627 0.949 . S
H1604 C1608 0.949 . S
C1605 C1606 1.349 . S
C1605 C1607 1.327 . S
C1605 H1628 0.950 . S
C1606 C1605 1.349 . S
C1606 C1618 1.349 . S
C1607 C1605 1.327 . S
C1607 C1623 1.429 . S
C1607 H1629 0.950 . S
C1608 H1604 0.949 . S
C1608 C1616 1.574 . S
C1608 C1624 1.368 . S
H1609 C1617 0.950 . S
H1610 C1615 0.950 1_455 S
H1611 C1616 0.949 1_655 S
H1612 C1618 0.950 . S
H1613 C1619 0.950 . S
H1614 C1620 0.949 . S
C1615 H1610 0.950 1_655 S
C1615 C1617 1.327 . S
C1615 C1621 1.429 . S
C1616 C1608 1.574 . S
C1616 H1611 0.949 1_455 S
C1616 C1622 1.368 . S
C1617 C1601 1.349 . S
C1617 H1609 0.950 . S
C1617 C1615 1.327 . S
C1618 C1606 1.349 . S
C1618 H1612 0.950 . S
C1618 C1619 1.327 . S
C1619 H1613 0.950 . S
C1619 C1618 1.327 . S
C1619 C1623 1.429 . S
C1620 C1603 1.574 . S
C1620 H1614 0.949 . S
C1620 C1624 1.368 . S
C1621 C1602 1.429 . S
C1621 C1615 1.429 . S
C1621 C1622 1.523 1_655 S
C1622 C1603 1.368 . S
C1622 C1616 1.368 . S
C1622 C1621 1.523 1_455 S
C1623 C1607 1.429 . S
C1623 C1619 1.429 . S
C1623 C1624 1.523 . S
C1624 C1608 1.368 . S
C1624 C1620 1.368 . S
C1624 C1623 1.523 . S
H1625 C1600 0.950 . S
H1626 C1602 0.950 . S
H1627 C1603 0.949 . S
H1628 C1605 0.950 . S
H1629 C1607 0.950 . S
C1630 C1631 1.349 . S
C1630 C1632 1.327 . S
C1630 H1655 0.950 . S
C1631 C1630 1.349 . S
C1631 C1647 1.349 . S
C1632 C1630 1.327 . S
C1632 C1651 1.429 . S
C1632 H1656 0.950 . S
C1633 C1650 1.574 . S
C1633 C1652 1.368 . S
C1633 H1657 0.949 . S
H1634 C1638 0.949 . S
C1635 C1636 1.349 . S
C1635 C1637 1.327 . S
C1635 H1658 0.950 . S
C1636 C1635 1.349 . S
C1636 C1648 1.349 . S
C1637 C1635 1.327 . S
C1637 C1653 1.429 . S
C1637 H1659 0.950 . S
C1638 H1634 0.949 . S
C1638 C1646 1.574 . S
C1638 C1654 1.368 . S
H1639 C1647 0.950 . S
H1640 C1645 0.950 . S
H1641 C1646 0.949 . S
H1642 C1648 0.950 . S
H1643 C1649 0.950 . S
H1644 C1650 0.949 . S
C1645 H1640 0.950 . S
C1645 C1647 1.327 . S
C1645 C1651 1.429 . S
C1646 C1638 1.574 . S
C1646 H1641 0.949 . S
C1646 C1652 1.368 . S
C1647 C1631 1.349 . S
C1647 H1639 0.950 . S
C1647 C1645 1.327 . S
C1648 C1636 1.349 . S
C1648 H1642 0.950 . S
C1648 C1649 1.327 . S
C1649 H1643 0.950 . S
C1649 C1648 1.327 . S
C1649 C1653 1.429 . S
C1650 C1633 1.574 . S
C1650 H1644 0.949 . S
C1650 C1654 1.368 . S
C1651 C1632 1.429 . S
C1651 C1645 1.429 . S
C1651 C1652 1.523 . S
C1652 C1633 1.368 . S
C1652 C1646 1.368 . S
C1652 C1651 1.523 . S
C1653 C1637 1.429 . S
C1653 C1649 1.429 . S
C1653 C1654 1.523 . S
C1654 C1638 1.368 . S
C1654 C1650 1.368 . S
C1654 C1653 1.523 . S
H1655 C1630 0.950 . S
H1656 C1632 0.950 . S
H1657 C1633 0.949 . S
H1658 C1635 0.950 . S
H1659 C1637 0.950 . S
C1660 C1661 1.349 . S
C1660 C1662 1.327 . S
C1660 H1685 0.950 . S
C1661 C1660 1.349 . S
C1661 C1677 1.349 . S
C1662 C1660 1.327 . S
C1662 C1681 1.429 . S
C1662 H1686 0.950 . S
C1663 C1680 1.574 . S
C1663 C1682 1.368 . S
C1663 H1687 0.949 . S
H1664 C1668 0.949 . S
C1665 C1666 1.349 . S
C1665 C1667 1.327 . S
C1665 H1688 0.950 . S
C1666 C1665 1.349 . S
C1666 C1678 1.349 . S
C1667 C1665 1.327 . S
C1667 C1683 1.429 . S
C1667 H1689 0.950 . S
C1668 H1664 0.949 . S
C1668 C1676 1.574 . S
C1668 C1684 1.368 . S
H1669 C1677 0.950 . S
H1670 C1675 0.950 . S
H1671 C1676 0.949 . S
H1672 C1678 0.950 . S
H1673 C1679 0.950 . S
H1674 C1680 0.949 . S
C1675 H1670 0.950 . S
C1675 C1677 1.327 . S
C1675 C1681 1.429 . S
C1676 C1668 1.574 . S
C1676 H1671 0.949 . S
C1676 C1682 1.368 . S
C1677 C1661 1.349 . S
C1677 H1669 0.950 . S
C1677 C1675 1.327 . S
C1678 C1666 1.349 . S
C1678 H1672 0.950 . S
C1678 C1679 1.327 . S
C1679 H1673 0.950 . S
C1679 C1678 1.327 . S
C1679 C1683 1.429 . S
C1680 C1663 1.574 . S
C1680 H1674 0.949 . S
C1680 C1684 1.368 . S
C1681 C1662 1.429 . S
C1681 C1675 1.429 . S
C1681 C1682 1.523 . S
C1682 C1663 1.368 . S
C1682 C1676 1.368 . S
C1682 C1681 1.523 . S
C1683 C1667 1.429 . S
C1683 C1679 1.429 . S
C1683 C1684 1.523 . S
C1684 C1668 1.368 . S
C1684 C1680 1.368 . S
C1684 C1683 1.523 . S
H1685 C1660 0.950 . S
H1686 C1662 0.950 . S
H1687 C1663 0.949 . S
H1688 C1665 0.950 . S
H1689 C1667 0.950 . S
C1690 C1691 1.349 . S
C1690 C1692 1.327 1_556 S
C1690 H1715 0.950 . S
C1691 C1690 1.349 . S
C1691 C1707 1.349 1_556 S
C1692 C1690 1.327 1_554 S
C1692 C1711 1.429 . S
C1692 H1716 0.950 . S
C1693 C1710 1.574 . S
C1693 C1712 1.368 . S
C1693 H1717 0.949 . S
H1694 C1698 0.949 . S
C1695 C1696 1.349 . S
C1695 C1697 1.327 . S
C1695 H1718 0.950 . S
C1696 C1695 1.349 . S
C1696 C1708 1.349 . S
C1697 C1695 1.327 . S
C1697 C1713 1.429 . S
C1697 H1719 0.950 . S
C1698 H1694 0.949 . S
C1698 C1706 1.574 . S
C1698 C1714 1.368 . S
H1699 C1707 0.950 . S
H1700 C1705 0.950 . S
H1701 C1706 0.949 . S
H1702 C1708 0.950 . S
H1703 C1709 0.950 . S
H1704 C1710 0.949 . S
C1705 H1700 0.950 . S
C1705 C1707 1.327 . S
C1705 C1711 1.429 . S
C1706 C1698 1.574 . S
C1706 H1701 0.949 . S
C1706 C1712 1.368 . S
C1707 C1691 1.349 1_554 S
C1707 H1699 0.950 . S
C1707 C1705 1.327 . S
C1708 C1696 1.349 . S
C1708 H1702 0.950 . S
C1708 C1709 1.327 . S
C1709 H1703 0.950 . S
C1709 C1708 1.327 . S
C1709 C1713 1.429 . S
C1710 C1693 1.574 . S
C1710 H1704 0.949 . S
C1710 C1714 1.368 . S
C1711 C1692 1.429 . S
C1711 C1705 1.429 . S
C1711 C1712 1.523 . S
C1712 C1693 1.368 . S
C1712 C1706 1.368 . S
C1712 C1711 1.523 . S
C1713 C1697 1.429 . S
C1713 C1709 1.429 . S
C1713 C1714 1.523 . S
C1714 C1698 1.368 . S
C1714 C1710 1.368 . S
C1714 C1713 1.523 . S
H1715 C1690 0.950 . S
H1716 C1692 0.950 . S
H1717 C1693 0.949 . S
H1718 C1695 0.950 . S
H1719 C1697 0.950 . S
C1720 C1721 1.349 . S
C1720 C1722 1.327 . S
C1720 H1745 0.950 . S
C1721 C1720 1.349 . S
C1721 C1737 1.349 . S
C1722 C1720 1.327 . S
C1722 C1741 1.429 . S
C1722 H1746 0.950 1_455 S
C1723 C1740 1.574 . S
C1723 C1742 1.368 . S
C1723 H1747 0.949 1_655 S
H1724 C1728 0.949 . S
C1725 C1726 1.349 . S
C1725 C1727 1.327 . S
C1725 H1748 0.950 . S
C1726 C1725 1.349 . S
C1726 C1738 1.349 . S
C1727 C1725 1.327 . S
C1727 C1743 1.429 . S
C1727 H1749 0.950 . S
C1728 H1724 0.949 . S
C1728 C1736 1.574 . S
C1728 C1744 1.368 . S
H1729 C1737 0.950 . S
H1730 C1735 0.950 . S
H1731 C1736 0.949 . S
H1732 C1738 0.950 . S
H1733 C1739 0.950 . S
H1734 C1740 0.949 . S
C1735 H1730 0.950 . S
C1735 C1737 1.327 . S
C1735 C1741 1.429 . S
C1736 C1728 1.574 . S
C1736 H1731 0.949 . S
C1736 C1742 1.368 . S
C1737 C1721 1.349 . S
C1737 H1729 0.950 . S
C1737 C1735 1.327 . S
C1738 C1726 1.349 . S
C1738 H1732 0.950 . S
C1738 C1739 1.327 . S
C1739 H1733 0.950 . S
C1739 C1738 1.327 . S
C1739 C1743 1.429 . S
C1740 C1723 1.574 . S
C1740 H1734 0.949 . S
C1740 C1744 1.368 . S
C1741 C1722 1.429 . S
C1741 C1735 1.429 . S
C1741 C1742 1.523 1_455 S
C1742 C1723 1.368 . S
C1742 C1736 1.368 . S
C1742 C1741 1.523 1_655 S
C1743 C1727 1.429 . S
C1743 C1739 1.429 . S
C1743 C1744 1.523 . S
C1744 C1728 1.368 . S
C1744 C1740 1.368 . S
C1744 C1743 1.523 . S
H1745 C1720 0.950 . S
H1746 C1722 0.950 1_655 S
H1747 C1723 0.949 1_455 S
H1748 C1725 0.950 . S
H1749 C1727 0.950 . S
C1750 C1751 1.349 . S
C1750 C1752 1.327 . S
C1750 H1775 0.950 . S
C1751 C1750 1.349 . S
C1751 C1767 1.349 . S
C1752 C1750 1.327 . S
C1752 C1771 1.429 . S
C1752 H1776 0.950 . S
C1753 C1770 1.574 . S
C1753 C1772 1.368 . S
C1753 H1777 0.949 . S
H1754 C1758 0.949 . S
C1755 C1756 1.349 . S
C1755 C1757 1.327 . S
C1755 H1778 0.950 . S
C1756 C1755 1.349 . S
C1756 C1768 1.349 . S
C1757 C1755 1.327 . S
C1757 C1773 1.429 . S
C1757 H1779 0.950 . S
C1758 H1754 0.949 . S
C1758 C1766 1.574 . S
C1758 C1774 1.368 . S
H1759 C1767 0.950 . S
H1760 C1765 0.950 . S
H1761 C1766 0.949 . S
H1762 C1768 0.950 . S
H1763 C1769 0.950 . S
H1764 C1770 0.949 . S
C1765 H1760 0.950 . S
C1765 C1767 1.327 . S
C1765 C1771 1.429 . S
C1766 C1758 1.574 . S
C1766 H1761 0.949 . S
C1766 C1772 1.368 . S
C1767 C1751 1.349 . S
C1767 H1759 0.950 . S
C1767 C1765 1.327 . S
C1768 C1756 1.349 . S
C1768 H1762 0.950 . S
C1768 C1769 1.327 . S
C1769 H1763 0.950 . S
C1769 C1768 1.327 . S
C1769 C1773 1.429 . S
C1770 C1753 1.574 . S
C1770 H1764 0.949 . S
C1770 C1774 1.368 . S
C1771 C1752 1.429 . S
C1771 C1765 1.429 . S
C1771 C1772 1.523 . S
C1772 C1753 1.368 . S
C1772 C1766 1.368 . S
C1772 C1771 1.523 . S
C1773 C1757 1.429 . S
C1773 C1769 1.429 . S
C1773 C1774 1.523 . S
C1774 C1758 1.368 . S
C1774 C1770 1.368 . S
C1774 C1773 1.523 . S
H1775 C1750 0.950 . S
H1776 C1752 0.950 . S
H1777 C1753 0.949 . S
H1778 C1755 0.950 . S
H1779 C1757 0.950 . S
C1780 C1781 1.349 . S
C1780 C1782 1.327 . S
C1780 H1805 0.950 . S
C1781 C1780 1.349 . S
C1781 C1797 1.349 . S
C1782 C1780 1.327 . S
C1782 C1801 1.429 . S
C1782 H1806 0.950 . S
C1783 C1800 1.574 . S
C1783 C1802 1.368 . S
C1783 H1807 0.949 . S
H1784 C1788 0.949 . S
C1785 C1786 1.349 . S
C1785 C1787 1.327 . S
C1785 H1808 0.950 . S
C1786 C1785 1.349 . S
C1786 C1798 1.349 . S
C1787 C1785 1.327 . S
C1787 C1803 1.429 . S
C1787 H1809 0.950 . S
C1788 H1784 0.949 . S
C1788 C1796 1.574 . S
C1788 C1804 1.368 . S
H1789 C1797 0.950 . S
H1790 C1795 0.950 . S
H1791 C1796 0.949 . S
H1792 C1798 0.950 . S
H1793 C1799 0.950 . S
H1794 C1800 0.949 . S
C1795 H1790 0.950 . S
C1795 C1797 1.327 . S
C1795 C1801 1.429 . S
C1796 C1788 1.574 . S
C1796 H1791 0.949 . S
C1796 C1802 1.368 . S
C1797 C1781 1.349 . S
C1797 H1789 0.950 . S
C1797 C1795 1.327 . S
C1798 C1786 1.349 . S
C1798 H1792 0.950 . S
C1798 C1799 1.327 . S
C1799 H1793 0.950 . S
C1799 C1798 1.327 . S
C1799 C1803 1.429 . S
C1800 C1783 1.574 . S
C1800 H1794 0.949 . S
C1800 C1804 1.368 . S
C1801 C1782 1.429 . S
C1801 C1795 1.429 . S
C1801 C1802 1.523 . S
C1802 C1783 1.368 . S
C1802 C1796 1.368 . S
C1802 C1801 1.523 . S
C1803 C1787 1.429 . S
C1803 C1799 1.429 . S
C1803 C1804 1.523 . S
C1804 C1788 1.368 . S
C1804 C1800 1.368 . S
C1804 C1803 1.523 . S
H1805 C1780 0.950 . S
H1806 C1782 0.950 . S
H1807 C1783 0.949 . S
H1808 C1785 0.950 . S
H1809 C1787 0.950 . S
C1810 C1811 1.349 . S
C1810 C1812 1.327 1_554 S
C1810 H1835 0.950 . S
C1811 C1810 1.349 . S
C1811 C1827 1.349 1_554 S
C1812 C1810 1.327 1_556 S
C1812 C1831 1.429 . S
C1812 H1836 0.950 . S
C1813 C1830 1.574 . S
C1813 C1832 1.368 . S
C1813 H1837 0.949 . S
H1814 C1818 0.949 . S
C1815 C1816 1.349 . S
C1815 C1817 1.327 . S
C1815 H1838 0.950 . S
C1816 C1815 1.349 . S
C1816 C1828 1.349 . S
C1817 C1815 1.327 . S
C1817 C1833 1.429 . S
C1817 H1839 0.950 . S
C1818 H1814 0.949 . S
C1818 C1826 1.574 . S
C1818 C1834 1.368 . S
H1819 C1827 0.950 . S
H1820 C1825 0.950 . S
H1821 C1826 0.949 . S
H1822 C1828 0.950 . S
H1823 C1829 0.950 . S
H1824 C1830 0.949 . S
C1825 H1820 0.950 . S
C1825 C1827 1.327 . S
C1825 C1831 1.429 . S
C1826 C1818 1.574 . S
C1826 H1821 0.949 . S
C1826 C1832 1.368 . S
C1827 C1811 1.349 1_556 S
C1827 H1819 0.950 . S
C1827 C1825 1.327 . S
C1828 C1816 1.349 . S
C1828 H1822 0.950 . S
C1828 C1829 1.327 . S
C1829 H1823 0.950 . S
C1829 C1828 1.327 . S
C1829 C1833 1.429 . S
C1830 C1813 1.574 . S
C1830 H1824 0.949 . S
C1830 C1834 1.368 . S
C1831 C1812 1.429 . S
C1831 C1825 1.429 . S
C1831 C1832 1.523 . S
C1832 C1813 1.368 . S
C1832 C1826 1.368 . S
C1832 C1831 1.523 . S
C1833 C1817 1.429 . S
C1833 C1829 1.429 . S
C1833 C1834 1.523 . S
C1834 C1818 1.368 . S
C1834 C1830 1.368 . S
C1834 C1833 1.523 . S
H1835 C1810 0.950 . S
H1836 C1812 0.950 . S
H1837 C1813 0.949 . S
H1838 C1815 0.950 . S
H1839 C1817 0.950 . S
C1840 C1841 1.349 . S
C1840 C1842 1.327 . S
C1840 H1865 0.950 . S
C1841 C1840 1.349 . S
C1841 C1857 1.349 . S
C1842 C1840 1.327 . S
C1842 C1861 1.429 . S
C1842 H1866 0.950 . S
C1843 C1860 1.574 . S
C1843 C1862 1.368 . S
C1843 H1867 0.949 . S
H1844 C1848 0.949 . S
C1845 C1846 1.349 . S
C1845 C1847 1.327 . S
C1845 H1868 0.950 . S
C1846 C1845 1.349 . S
C1846 C1858 1.349 . S
C1847 C1845 1.327 . S
C1847 C1863 1.429 . S
C1847 H1869 0.950 . S
C1848 H1844 0.949 . S
C1848 C1856 1.574 . S
C1848 C1864 1.368 . S
H1849 C1857 0.950 . S
H1850 C1855 0.950 . S
H1851 C1856 0.949 . S
H1852 C1858 0.950 . S
H1853 C1859 0.950 . S
H1854 C1860 0.949 . S
C1855 H1850 0.950 . S
C1855 C1857 1.327 . S
C1855 C1861 1.429 . S
C1856 C1848 1.574 . S
C1856 H1851 0.949 . S
C1856 C1862 1.368 . S
C1857 C1841 1.349 . S
C1857 H1849 0.950 . S
C1857 C1855 1.327 . S
C1858 C1846 1.349 . S
C1858 H1852 0.950 . S
C1858 C1859 1.327 . S
C1859 H1853 0.950 . S
C1859 C1858 1.327 . S
C1859 C1863 1.429 . S
C1860 C1843 1.574 . S
C1860 H1854 0.949 . S
C1860 C1864 1.368 . S
C1861 C1842 1.429 . S
C1861 C1855 1.429 . S
C1861 C1862 1.523 . S
C1862 C1843 1.368 . S
C1862 C1856 1.368 . S
C1862 C1861 1.523 . S
C1863 C1847 1.429 . S
C1863 C1859 1.429 . S
C1863 C1864 1.523 . S
C1864 C1848 1.368 . S
C1864 C1860 1.368 . S
C1864 C1863 1.523 . S
H1865 C1840 0.950 . S
H1866 C1842 0.950 . S
H1867 C1843 0.949 . S
H1868 C1845 0.950 . S
H1869 C1847 0.950 . S
C1870 C1871 1.349 . S
C1870 C1872 1.327 . S
C1870 H1895 0.950 . S
C1871 C1870 1.349 . S
C1871 C1887 1.349 . S
C1872 C1870 1.327 . S
C1872 C1891 1.429 . S
C1872 H1896 0.950 . S
C1873 C1890 1.574 . S
C1873 C1892 1.368 . S
C1873 H1897 0.949 . S
H1874 C1878 0.949 . S
C1875 C1876 1.349 . S
C1875 C1877 1.327 . S
C1875 H1898 0.950 . S
C1876 C1875 1.349 . S
C1876 C1888 1.349 . S
C1877 C1875 1.327 . S
C1877 C1893 1.429 . S
C1877 H1899 0.950 . S
C1878 H1874 0.949 . S
C1878 C1886 1.574 . S
C1878 C1894 1.368 . S
H1879 C1887 0.950 . S
H1880 C1885 0.950 . S
H1881 C1886 0.949 . S
H1882 C1888 0.950 . S
H1883 C1889 0.950 . S
H1884 C1890 0.949 . S
C1885 H1880 0.950 . S
C1885 C1887 1.327 . S
C1885 C1891 1.429 . S
C1886 C1878 1.574 . S
C1886 H1881 0.949 . S
C1886 C1892 1.368 . S
C1887 C1871 1.349 . S
C1887 H1879 0.950 . S
C1887 C1885 1.327 . S
C1888 C1876 1.349 . S
C1888 H1882 0.950 . S
C1888 C1889 1.327 . S
C1889 H1883 0.950 . S
C1889 C1888 1.327 . S
C1889 C1893 1.429 . S
C1890 C1873 1.574 . S
C1890 H1884 0.949 . S
C1890 C1894 1.368 . S
C1891 C1872 1.429 . S
C1891 C1885 1.429 . S
C1891 C1892 1.523 . S
C1892 C1873 1.368 . S
C1892 C1886 1.368 . S
C1892 C1891 1.523 . S
C1893 C1877 1.429 . S
C1893 C1889 1.429 . S
C1893 C1894 1.523 . S
C1894 C1878 1.368 . S
C1894 C1890 1.368 . S
C1894 C1893 1.523 . S
H1895 C1870 0.950 . S
H1896 C1872 0.950 . S
H1897 C1873 0.949 . S
H1898 C1875 0.950 . S
H1899 C1877 0.950 . S
C1900 C1901 1.349 . S
C1900 C1902 1.327 . S
C1900 H1925 0.950 . S
C1901 C1900 1.349 . S
C1901 C1917 1.349 . S
C1902 C1900 1.327 . S
C1902 C1921 1.429 . S
C1902 H1926 0.950 . S
C1903 C1920 1.574 . S
C1903 C1922 1.368 . S
C1903 H1927 0.949 . S
H1904 C1908 0.949 . S
C1905 C1906 1.349 . S
C1905 C1907 1.327 . S
C1905 H1928 0.950 . S
C1906 C1905 1.349 . S
C1906 C1918 1.349 . S
C1907 C1905 1.327 . S
C1907 C1923 1.429 . S
C1907 H1929 0.950 . S
C1908 H1904 0.949 . S
C1908 C1916 1.574 . S
C1908 C1924 1.368 . S
H1909 C1917 0.950 . S
H1910 C1915 0.950 . S
H1911 C1916 0.949 . S
H1912 C1918 0.950 . S
H1913 C1919 0.950 . S
H1914 C1920 0.949 . S
C1915 H1910 0.950 . S
C1915 C1917 1.327 . S
C1915 C1921 1.429 . S
C1916 C1908 1.574 . S
C1916 H1911 0.949 . S
C1916 C1922 1.368 . S
C1917 C1901 1.349 . S
C1917 H1909 0.950 . S
C1917 C1915 1.327 . S
C1918 C1906 1.349 . S
C1918 H1912 0.950 . S
C1918 C1919 1.327 . S
C1919 H1913 0.950 . S
C1919 C1918 1.327 . S
C1919 C1923 1.429 . S
C1920 C1903 1.574 . S
C1920 H1914 0.949 . S
C1920 C1924 1.368 . S
C1921 C1902 1.429 . S
C1921 C1915 1.429 . S
C1921 C1922 1.523 . S
C1922 C1903 1.368 . S
C1922 C1916 1.368 . S
C1922 C1921 1.523 . S
C1923 C1907 1.429 . S
C1923 C1919 1.429 . S
C1923 C1924 1.523 . S
C1924 C1908 1.368 . S
C1924 C1920 1.368 . S
C1924 C1923 1.523 . S
H1925 C1900 0.950 . S
H1926 C1902 0.950 . S
H1927 C1903 0.949 . S
H1928 C1905 0.950 . S
H1929 C1907 0.950 . S
C1930 C1931 1.349 . S
C1930 C1932 1.327 . S
C1930 H1955 0.950 . S
C1931 C1930 1.349 . S
C1931 C1947 1.349 . S
C1932 C1930 1.327 . S
C1932 C1951 1.429 . S
C1932 H1956 0.950 . S
C1933 C1950 1.574 1_455 S
C1933 C1952 1.368 . S
C1933 H1957 0.949 . S
H1934 C1938 0.949 . S
C1935 C1936 1.349 . S
C1935 C1937 1.327 . S
C1935 H1958 0.950 . S
C1936 C1935 1.349 . S
C1936 C1948 1.349 . S
C1937 C1935 1.327 . S
C1937 C1953 1.429 . S
C1937 H1959 0.950 . S
C1938 H1934 0.949 . S
C1938 C1946 1.574 1_655 S
C1938 C1954 1.368 . S
H1939 C1947 0.950 . S
H1940 C1945 0.950 . S
H1941 C1946 0.949 . S
H1942 C1948 0.950 . S
H1943 C1949 0.950 . S
H1944 C1950 0.949 . S
C1945 H1940 0.950 . S
C1945 C1947 1.327 . S
C1945 C1951 1.429 . S
C1946 C1938 1.574 1_455 S
C1946 H1941 0.949 . S
C1946 C1952 1.368 1_556 S
C1947 C1931 1.349 . S
C1947 H1939 0.950 . S
C1947 C1945 1.327 . S
C1948 C1936 1.349 . S
C1948 H1942 0.950 . S
C1948 C1949 1.327 . S
C1949 H1943 0.950 . S
C1949 C1948 1.327 . S
C1949 C1953 1.429 . S
C1950 C1933 1.574 1_655 S
C1950 H1944 0.949 . S
C1950 C1954 1.368 1_554 S
C1951 C1932 1.429 . S
C1951 C1945 1.429 . S
C1951 C1952 1.523 . S
C1952 C1933 1.368 . S
C1952 C1946 1.368 1_554 S
C1952 C1951 1.523 . S
C1953 C1937 1.429 . S
C1953 C1949 1.429 . S
C1953 C1954 1.523 . S
C1954 C1938 1.368 . S
C1954 C1950 1.368 1_556 S
C1954 C1953 1.523 . S
H1955 C1930 0.950 . S
H1956 C1932 0.950 . S
H1957 C1933 0.949 . S
H1958 C1935 0.950 . S
H1959 C1937 0.950 . S
C1960 C1961 1.349 . S
C1960 C1962 1.327 . S
C1960 H1985 0.950 . S
C1961 C1960 1.349 . S
C1961 C1977 1.349 . S
C1962 C1960 1.327 . S
C1962 C1981 1.429 . S
C1962 H1986 0.950 . S
C1963 C1980 1.574 . S
C1963 C1982 1.368 . S
C1963 H1987 0.949 . S
H1964 C1968 0.949 . S
C1965 C1966 1.349 . S
C1965 C1967 1.327 . S
C1965 H1988 0.950 . S
C1966 C1965 1.349 . S
C1966 C1978 1.349 . S
C1967 C1965 1.327 . S
C1967 C1983 1.429 . S
C1967 H1989 0.950 . S
C1968 H1964 0.949 . S
C1968 C1976 1.574 . S
C1968 C1984 1.368 . S
H1969 C1977 0.950 . S
H1970 C1975 0.950 . S
H1971 C1976 0.949 . S
H1972 C1978 0.950 . S
H1973 C1979 0.950 . S
H1974 C1980 0.949 . S
C1975 H1970 0.950 . S
C1975 C1977 1.327 . S
C1975 C1981 1.429 . S
C1976 C1968 1.574 . S
C1976 H1971 0.949 . S
C1976 C1982 1.368 . S
C1977 C1961 1.349 . S
C1977 H1969 0.950 . S
C1977 C1975 1.327 . S
C1978 C1966 1.349 . S
C1978 H1972 0.950 . S
C1978 C1979 1.327 . S
C1979 H1973 0.950 . S
C1979 C1978 1.327 . S
C1979 C1983 1.429 . S
C1980 C1963 1.574 . S
C1980 H1974 0.949 . S
C1980 C1984 1.368 . S
C1981 C1962 1.429 . S
C1981 C1975 1.429 . S
C1981 C1982 1.523 . S
C1982 C1963 1.368 . S
C1982 C1976 1.368 . S
C1982 C1981 1.523 . S
C1983 C1967 1.429 . S
C1983 C1979 1.429 . S
C1983 C1984 1.523 . S
C1984 C1968 1.368 . S
C1984 C1980 1.368 . S
C1984 C1983 1.523 . S
H1985 C1960 0.950 . S
H1986 C1962 0.950 . S
H1987 C1963 0.949 . S
H1988 C1965 0.950 . S
H1989 C1967 0.950 . S
C1990 C1991 1.349 . S
C1990 C1992 1.327 . S
C1990 H2015 0.950 . S
C1991 C1990 1.349 . S
C1991 C2007 1.349 . S
C1992 C1990 1.327 . S
C1992 C2011 1.429 . S
C1992 H2016 0.950 . S
C1993 C2010 1.574 . S
C1993 C2012 1.368 . S
C1993 H2017 0.949 . S
H1994 C1998 0.949 . S
C1995 C1996 1.349 . S
C1995 C1997 1.327 . S
C1995 H2018 0.950 . S
C1996 C1995 1.349 . S
C1996 C2008 1.349 . S
C1997 C1995 1.327 . S
C1997 C2013 1.429 . S
C1997 H2019 0.950 . S
C1998 H1994 0.949 . S
C1998 C2006 1.574 . S
C1998 C2014 1.368 . S
H1999 C2007 0.950 . S
H2000 C2005 0.950 . S
H2001 C2006 0.949 . S
H2002 C2008 0.950 . S
H2003 C2009 0.950 . S
H2004 C2010 0.949 . S
C2005 H2000 0.950 . S
C2005 C2007 1.327 . S
C2005 C2011 1.429 . S
C2006 C1998 1.574 . S
C2006 H2001 0.949 . S
C2006 C2012 1.368 . S
C2007 C1991 1.349 . S
C2007 H1999 0.950 . S
C2007 C2005 1.327 . S
C2008 C1996 1.349 . S
C2008 H2002 0.950 . S
C2008 C2009 1.327 . S
C2009 H2003 0.950 . S
C2009 C2008 1.327 . S
C2009 C2013 1.429 . S
C2010 C1993 1.574 . S
C2010 H2004 0.949 . S
C2010 C2014 1.368 . S
C2011 C1992 1.429 . S
C2011 C2005 1.429 . S
C2011 C2012 1.523 . S
C2012 C1993 1.368 . S
C2012 C2006 1.368 . S
C2012 C2011 1.523 . S
C2013 C1997 1.429 . S
C2013 C2009 1.429 . S
C2013 C2014 1.523 . S
C2014 C1998 1.368 . S
C2014 C2010 1.368 . S
C2014 C2013 1.523 . S
H2015 C1990 0.950 . S
H2016 C1992 0.950 . S
H2017 C1993 0.949 . S
H2018 C1995 0.950 . S
H2019 C1997 0.950 . S
C2020 C2021 1.349 . S
C2020 C2022 1.327 . S
C2020 H2045 0.950 . S
C2021 C2020 1.349 . S
C2021 C2037 1.349 . S
C2022 C2020 1.327 . S
C2022 C2041 1.429 . S
C2022 H2046 0.950 . S
C2023 C2040 1.611 1_556 S
C2023 C2042 1.368 1_565 S
C2023 H2047 0.949 . S
H2024 C2028 0.949 . S
C2025 C2026 1.349 . S
C2025 C2027 1.327 . S
C2025 H2048 0.950 . S
C2026 C2025 1.349 . S
C2026 C2038 1.349 . S
C2027 C2025 1.327 . S
C2027 C2043 1.429 . S
C2027 H2049 0.950 . S
C2028 H2024 0.949 . S
C2028 C2036 1.611 1_554 S
C2028 C2044 1.368 1_545 S
H2029 C2037 0.950 1_565 S
H2030 C2035 0.923 1_565 S
H2031 C2036 0.952 . S
H2032 C2038 0.950 1_545 S
H2033 C2039 0.923 1_545 S
H2034 C2040 0.952 . S
C2035 H2030 0.923 1_545 S
C2035 C2037 1.337 . S
C2035 C2041 1.445 . S
C2036 C2028 1.611 1_556 S
C2036 H2031 0.952 . S
C2036 C2042 1.331 1_655 S
C2037 C2021 1.349 . S
C2037 H2029 0.950 1_545 S
C2037 C2035 1.337 . S
C2038 C2026 1.349 . S
C2038 H2032 0.950 1_565 S
C2038 C2039 1.337 . S
C2039 H2033 0.923 1_565 S
C2039 C2038 1.337 . S
C2039 C2043 1.445 . S
C2040 C2023 1.611 1_554 S
C2040 H2034 0.952 . S
C2040 C2044 1.331 1_455 S
C2041 C2022 1.429 . S
C2041 C2035 1.445 . S
C2041 C2042 1.523 . S
C2042 C2023 1.368 1_545 S
C2042 C2036 1.331 1_455 S
C2042 C2041 1.523 . S
C2043 C2027 1.429 . S
C2043 C2039 1.445 . S
C2043 C2044 1.523 . S
C2044 C2028 1.368 1_565 S
C2044 C2040 1.331 1_655 S
C2044 C2043 1.523 . S
H2045 C2020 0.950 . S
H2046 C2022 0.950 . S
H2047 C2023 0.949 . S
H2048 C2025 0.950 . S
H2049 C2027 0.950 . S
C2050 C2051 1.349 . S
C2050 C2052 1.315 1_545 S
C2050 H2075 0.950 1_545 S
C2051 C2050 1.349 . S
C2051 C2067 1.349 . S
C2052 C2050 1.315 1_565 S
C2052 C2071 1.403 1_565 S
C2052 H2076 0.989 . S
C2053 C2070 1.574 . S
C2053 C2072 1.368 . S
C2053 H2077 0.949 . S
H2054 C2058 0.949 . S
C2055 C2056 1.349 . S
C2055 C2057 1.315 1_565 S
C2055 H2078 0.950 1_565 S
C2056 C2055 1.349 . S
C2056 C2068 1.349 . S
C2057 C2055 1.315 1_545 S
C2057 C2073 1.403 1_545 S
C2057 H2079 0.989 . S
C2058 H2054 0.949 . S
C2058 C2066 1.574 . S
C2058 C2074 1.368 . S
H2059 C2067 0.950 . S
H2060 C2065 0.950 . S
H2061 C2066 0.949 . S
H2062 C2068 0.950 . S
H2063 C2069 0.950 . S
H2064 C2070 0.949 . S
C2065 H2060 0.950 . S
C2065 C2067 1.327 . S
C2065 C2071 1.429 . S
C2066 C2058 1.574 . S
C2066 H2061 0.949 . S
C2066 C2072 1.368 1_565 S
C2067 C2051 1.349 . S
C2067 H2059 0.950 . S
C2067 C2065 1.327 . S
C2068 C2056 1.349 . S
C2068 H2062 0.950 . S
C2068 C2069 1.327 . S
C2069 H2063 0.950 . S
C2069 C2068 1.327 . S
C2069 C2073 1.429 . S
C2070 C2053 1.574 . S
C2070 H2064 0.949 . S
C2070 C2074 1.368 1_545 S
C2071 C2052 1.403 1_545 S
C2071 C2065 1.429 . S
C2071 C2072 1.523 . S
C2072 C2053 1.368 . S
C2072 C2066 1.368 1_545 S
C2072 C2071 1.523 . S
C2073 C2057 1.403 1_565 S
C2073 C2069 1.429 . S
C2073 C2074 1.523 . S
C2074 C2058 1.368 . S
C2074 C2070 1.368 1_565 S
C2074 C2073 1.523 . S
H2075 C2050 0.950 1_565 S
H2076 C2052 0.989 . S
H2077 C2053 0.949 . S
H2078 C2055 0.950 1_545 S
H2079 C2057 0.989 . S
C641 C31 2.897 . S
C646 C431 2.897 . S
C671 C71 2.897 . S
C676 C471 2.897 . S
C701 C111 2.897 . S
C706 C351 2.897 . S
C731 C151 2.897 . S
C736 C391 2.897 . S
C761 C172 2.897 . S
C766 C572 2.897 . S
C791 C212 2.897 . S
C796 C612 2.897 . S
C821 C252 2.897 . S
C826 C492 2.897 . S
C851 C292 2.897 . S
C856 C532 2.897 . S
C881 C377 3.742 . S
C886 C12 3.795 1_556 S
C911 C417 3.742 . S
C916 C52 3.795 . S
C941 C457 3.742 . S
C946 C92 3.795 . S
C971 C337 3.742 . S
C976 C132 3.795 . S
C1001 C191 3.795 1_554 S
C1006 C522 3.742 . S
C1031 C562 3.742 . S
C1036 C231 3.795 . S
C1061 C602 3.742 . S
C1066 C271 3.795 . S
C1091 C482 3.742 . S
C1096 C311 3.795 . S
C1121 C57 3.742 . S
C1126 C332 3.795 . S
C1151 C372 3.795 . S
C1156 C97 3.742 . S
C1181 C412 3.795 1_556 S
C1186 C137 3.742 . S
C1211 C452 3.795 . S
C1216 C17 3.742 . S
C1241 C511 3.795 . S
C1246 C202 3.742 . S
C1271 C242 3.742 . S
C1276 C551 3.795 . S
C1301 C282 3.742 . S
C1306 C591 3.795 1_554 S
C1331 C631 3.795 . S
C1336 C162 3.742 . S
C1361 C8 0.351 . S
C1366 C617 0.139 . S
C1391 C48 0.351 . S
C1396 C177 0.139 . S
C1421 C537 0.139 . S
C1426 C88 0.351 . S
C1451 C257 0.139 . S
C1456 C128 0.351 . S
C1481 C189 0.351 . S
C1486 C442 0.139 . S
C1511 C229 0.351 . S
C1516 C2 0.139 . S
C1541 C362 0.139 . S
C1546 C269 0.351 . S
C1571 C82 0.139 . S
C1576 C309 0.351 . S
C1601 C328 0.351 . S
C1606 C297 0.139 . S
C1631 C368 0.351 . S
C1636 C497 0.139 . S
C1661 C217 0.139 . S
C1666 C408 0.351 . S
C1691 C577 0.139 . S
C1696 C448 0.351 . S
C1721 C509 0.351 . S
C1726 C122 0.139 . S
C1751 C549 0.351 . S
C1756 C322 0.139 . S
C1781 C589 0.351 . S
C1786 C42 0.139 . S
C1811 C402 0.139 . S
C1816 C629 0.351 . S
C1841 C29 1.313 . S
C1846 C488 1.313 . S
C1871 C69 1.313 . S
C1876 C208 1.313 . S
C1901 C109 1.313 . S
C1906 C568 1.313 . S
C1931 C288 1.313 . S
C1936 C149 1.313 . S
C1961 C168 1.313 . S
C1966 C349 1.313 . S
C1991 C429 1.313 . S
C1996 C248 1.313 . S
C2021 C389 1.313 . S
C2026 C528 1.313 . S
C2051 C608 1.313 . S
C2056 C469 1.313 . S
