# Generated by pormake.
# Topology vbl, (6)-cn, num edge types: 1
# Building blocks:
#     Node 0, Type 0, BuildingBlock: OJICUG_clean_sbu_0, # of connection points: 6
#     Node 1, Type 0, BuildingBlock: OJICUG_clean_sbu_0, # of connection points: 6
#     Node 2, Type 0, BuildingBlock: OJICUG_clean_sbu_0, # of connection points: 6
#     Node 3, Type 0, BuildingBlock: OJICUG_clean_sbu_0, # of connection points: 6
#     Node 4, Type 0, BuildingBlock: OJICUG_clean_sbu_0, # of connection points: 6
#     Node 5, Type 0, BuildingBlock: OJICUG_clean_sbu_0, # of connection points: 6
#     Node 6, Type 0, BuildingBlock: OJICUG_clean_sbu_0, # of connection points: 6
#     Node 7, Type 0, BuildingBlock: OJICUG_clean_sbu_0, # of connection points: 6
#     Node 8, Type 0, BuildingBlock: OJICUG_clean_sbu_0, # of connection points: 6
#     Node 9, Type 0, BuildingBlock: OJICUG_clean_sbu_0, # of connection points: 6
#     Node 10, Type 0, BuildingBlock: OJICUG_clean_sbu_0, # of connection points: 6
#     Node 11, Type 0, BuildingBlock: OJICUG_clean_sbu_0, # of connection points: 6
#     Node 12, Type 0, BuildingBlock: OJICUG_clean_sbu_0, # of connection points: 6
#     Node 13, Type 0, BuildingBlock: OJICUG_clean_sbu_0, # of connection points: 6
#     Node 14, Type 0, BuildingBlock: OJICUG_clean_sbu_0, # of connection points: 6
#     Node 15, Type 0, BuildingBlock: OJICUG_clean_sbu_0, # of connection points: 6
#     Node 16, Type 0, BuildingBlock: OJICUG_clean_sbu_0, # of connection points: 6
#     Node 17, Type 0, BuildingBlock: OJICUG_clean_sbu_0, # of connection points: 6
#     Node 18, Type 0, BuildingBlock: OJICUG_clean_sbu_0, # of connection points: 6
#     Node 19, Type 0, BuildingBlock: OJICUG_clean_sbu_0, # of connection points: 6
#     Node 20, Type 0, BuildingBlock: OJICUG_clean_sbu_0, # of connection points: 6
#     Node 21, Type 0, BuildingBlock: OJICUG_clean_sbu_0, # of connection points: 6
#     Node 22, Type 0, BuildingBlock: OJICUG_clean_sbu_0, # of connection points: 6
#     Node 23, Type 0, BuildingBlock: OJICUG_clean_sbu_0, # of connection points: 6
#     Node 24, Type 0, BuildingBlock: OJICUG_clean_sbu_0, # of connection points: 6
#     Node 25, Type 0, BuildingBlock: OJICUG_clean_sbu_0, # of connection points: 6
#     Node 26, Type 0, BuildingBlock: OJICUG_clean_sbu_0, # of connection points: 6
#     Node 27, Type 0, BuildingBlock: OJICUG_clean_sbu_0, # of connection points: 6
#     Node 28, Type 0, BuildingBlock: OJICUG_clean_sbu_0, # of connection points: 6
#     Node 29, Type 0, BuildingBlock: OJICUG_clean_sbu_0, # of connection points: 6
#     Node 30, Type 0, BuildingBlock: OJICUG_clean_sbu_0, # of connection points: 6
#     Node 31, Type 0, BuildingBlock: OJICUG_clean_sbu_0, # of connection points: 6
#     Edge 32, Type (0, 0), None
#     Edge 33, Type (0, 0), None
#     Edge 34, Type (0, 0), None
#     Edge 35, Type (0, 0), None
#     Edge 36, Type (0, 0), None
#     Edge 37, Type (0, 0), None
#     Edge 38, Type (0, 0), None
#     Edge 39, Type (0, 0), None
#     Edge 40, Type (0, 0), None
#     Edge 41, Type (0, 0), None
#     Edge 42, Type (0, 0), None
#     Edge 43, Type (0, 0), None
#     Edge 44, Type (0, 0), None
#     Edge 45, Type (0, 0), None
#     Edge 46, Type (0, 0), None
#     Edge 47, Type (0, 0), None
#     Edge 48, Type (0, 0), None
#     Edge 49, Type (0, 0), None
#     Edge 50, Type (0, 0), None
#     Edge 51, Type (0, 0), None
#     Edge 52, Type (0, 0), None
#     Edge 53, Type (0, 0), None
#     Edge 54, Type (0, 0), None
#     Edge 55, Type (0, 0), None
#     Edge 56, Type (0, 0), None
#     Edge 57, Type (0, 0), None
#     Edge 58, Type (0, 0), None
#     Edge 59, Type (0, 0), None
#     Edge 60, Type (0, 0), None
#     Edge 61, Type (0, 0), None
#     Edge 62, Type (0, 0), None
#     Edge 63, Type (0, 0), None
#     Edge 64, Type (0, 0), None
#     Edge 65, Type (0, 0), None
#     Edge 66, Type (0, 0), None
#     Edge 67, Type (0, 0), None
#     Edge 68, Type (0, 0), None
#     Edge 69, Type (0, 0), None
#     Edge 70, Type (0, 0), None
#     Edge 71, Type (0, 0), None
#     Edge 72, Type (0, 0), None
#     Edge 73, Type (0, 0), None
#     Edge 74, Type (0, 0), None
#     Edge 75, Type (0, 0), None
#     Edge 76, Type (0, 0), None
#     Edge 77, Type (0, 0), None
#     Edge 78, Type (0, 0), None
#     Edge 79, Type (0, 0), None
#     Edge 80, Type (0, 0), None
#     Edge 81, Type (0, 0), None
#     Edge 82, Type (0, 0), None
#     Edge 83, Type (0, 0), None
#     Edge 84, Type (0, 0), None
#     Edge 85, Type (0, 0), None
#     Edge 86, Type (0, 0), None
#     Edge 87, Type (0, 0), None
#     Edge 88, Type (0, 0), None
#     Edge 89, Type (0, 0), None
#     Edge 90, Type (0, 0), None
#     Edge 91, Type (0, 0), None
#     Edge 92, Type (0, 0), None
#     Edge 93, Type (0, 0), None
#     Edge 94, Type (0, 0), None
#     Edge 95, Type (0, 0), None
#     Edge 96, Type (0, 0), None
#     Edge 97, Type (0, 0), None
#     Edge 98, Type (0, 0), None
#     Edge 99, Type (0, 0), None
#     Edge 100, Type (0, 0), None
#     Edge 101, Type (0, 0), None
#     Edge 102, Type (0, 0), None
#     Edge 103, Type (0, 0), None
#     Edge 104, Type (0, 0), None
#     Edge 105, Type (0, 0), None
#     Edge 106, Type (0, 0), None
#     Edge 107, Type (0, 0), None
#     Edge 108, Type (0, 0), None
#     Edge 109, Type (0, 0), None
#     Edge 110, Type (0, 0), None
#     Edge 111, Type (0, 0), None
#     Edge 112, Type (0, 0), None
#     Edge 113, Type (0, 0), None
#     Edge 114, Type (0, 0), None
#     Edge 115, Type (0, 0), None
#     Edge 116, Type (0, 0), None
#     Edge 117, Type (0, 0), None
#     Edge 118, Type (0, 0), None
#     Edge 119, Type (0, 0), None
#     Edge 120, Type (0, 0), None
#     Edge 121, Type (0, 0), None
#     Edge 122, Type (0, 0), None
#     Edge 123, Type (0, 0), None
#     Edge 124, Type (0, 0), None
#     Edge 125, Type (0, 0), None
#     Edge 126, Type (0, 0), None
#     Edge 127, Type (0, 0), None
# Relax obj value: 0.252
# Max RMSD: 0.236
# Mean RMSD: 0.236
data_MOF--net-vbl--node1-OJICUG_clean_sbu_0--edge1-none
_symmetry_space_group_name_H-M    P1
_symmetry_Int_Tables_number       1
_symmetry_cell_setting            triclinic
loop_
_symmetry_equiv_pos_as_xyz
'x, y, z'
_cell_length_a     46.510898
_cell_length_b     17.845966
_cell_length_c     22.278999
_cell_angle_alpha  89.999822
_cell_angle_beta   90.000016
_cell_angle_gamma 89.99899
loop_
_atom_site_label
_atom_site_type_symbol
_atom_site_fract_x
_atom_site_fract_y
_atom_site_fract_z
_atom_type_partial_charge
Sc0 Sc 0.05584 0.13278 0.31315 0.0
Sc1 Sc 1.00081 0.00853 0.33971 0.0
Sc2 Sc 0.06641 0.94752 0.28737 0.0
O3 O 0.04223 0.02806 0.31905 0.0
C4 C 0.07976 0.06909 0.19103 0.0
C5 C 1.00093 0.16612 0.27812 0.0
C6 C 0.00391 0.91133 0.23 0.0
C7 C 0.01361 0.12118 0.43246 0.0
C8 C 0.11103 0.06787 0.35316 0.0
C9 C 0.03544 0.86417 0.38905 0.0
O10 O 0.0817 0.11866 0.23208 0.0
O11 O 0.98742 0.12241 0.31347 0.0
O12 O 0.029 0.88867 0.24653 0.0
O13 O 0.02913 0.15825 0.39457 0.0
O14 O 0.10512 0.00759 0.32319 0.0
O15 O 0.01154 0.89497 0.37369 0.0
O16 O 0.09205 0.1153 0.36781 0.0
O17 O 0.0077 0.0524 0.42588 0.0
O18 O 0.05972 0.88756 0.36986 0.0
O19 O 0.02245 0.14191 0.25207 0.0
O20 O 0.07176 0.00262 0.20237 0.0
O21 O 0.99209 -0.03144 0.25221 0.0
Sc22 Sc 0.19616 0.02951 0.31307 0.0
Sc23 Sc 0.25119 0.15377 0.33962 0.0
Sc24 Sc 0.18557 0.21476 0.28732 0.0
O25 O 0.20976 0.13423 0.31899 0.0
C26 C 0.17222 0.09319 0.19097 0.0
C27 C 0.25107 -0.0038 0.27802 0.0
C28 C 0.24807 0.25096 0.22992 0.0
C29 C 0.2384 0.04112 0.43237 0.0
C30 C 0.14098 0.09442 0.35318 0.0
C31 C 0.21656 0.29812 0.38899 0.0
O32 O 0.1703 0.04362 0.23202 0.0
O33 O 0.26458 0.0399 0.31337 0.0
O34 O 0.22298 0.27362 0.24646 0.0
O35 O 0.22288 0.00404 0.39448 0.0
O36 O 0.14688 0.15469 0.32318 0.0
O37 O 0.24046 0.26732 0.37361 0.0
O38 O 0.15995 0.04694 0.36775 0.0
O39 O 0.24431 0.1099 0.42579 0.0
O40 O 0.19228 0.27472 0.36981 0.0
O41 O 0.22955 0.02041 0.25198 0.0
O42 O 0.18022 0.15966 0.20232 0.0
O43 O 0.25989 0.19374 0.25212 0.0
Sc44 Sc 0.06643 0.21482 1.03133 0.0
Sc45 Sc 1.0008 0.15386 0.97907 0.0
Sc46 Sc 0.05582 0.02957 1.0056 0.0
O47 O 0.04223 0.1343 0.99967 0.0
C48 C 0.11102 0.0944 0.96551 0.0
C49 C 0.03543 0.29818 0.92968 0.0
C50 C 0.01356 0.0412 0.88631 0.0
C51 C 0.00394 0.25105 0.08876 0.0
C52 C 0.07978 0.09326 0.12767 0.0
C53 C 1.00092 -0.00371 0.04068 0.0
O54 O 0.10512 0.1547 0.99547 0.0
O55 O 0.01154 0.26741 0.94507 0.0
O56 O 0.02909 0.00413 0.92419 0.0
O57 O 0.02903 0.2737 0.0722 0.0
O58 O 0.08169 0.04367 0.08664 0.0
O59 O 0.9874 0.03999 1.00533 0.0
O60 O 0.07178 0.15973 0.11634 0.0
O61 O 0.99212 0.19382 0.06657 0.0
O62 O 0.02244 0.0205 0.06671 0.0
O63 O 0.05972 0.27477 0.94884 0.0
O64 O 0.09203 0.04698 0.9509 0.0
O65 O 0.00766 0.10998 0.8929 0.0
Sc66 Sc 0.18557 0.94747 1.03127 0.0
Sc67 Sc 0.25118 0.00845 0.97897 0.0
Sc68 Sc 0.19616 0.13273 1.00552 0.0
O69 O 0.20976 0.028 0.9996 0.0
C70 C 0.14097 0.06783 0.96546 0.0
C71 C 0.21656 0.86411 0.9296 0.0
C72 C 0.2384 0.12111 0.88622 0.0
C73 C 0.24807 0.91126 0.08867 0.0
C74 C 0.17221 0.06902 0.12762 0.0
C75 C 0.25107 0.16603 0.04057 0.0
O76 O 0.14687 0.00756 0.99544 0.0
O77 O 0.24045 0.8949 0.94498 0.0
O78 O 0.22287 0.15818 0.92411 0.0
O79 O 0.22298 0.8886 0.07213 0.0
O80 O 0.1703 0.11862 0.08659 0.0
O81 O 0.26458 0.12232 1.00522 0.0
O82 O 0.18022 0.00256 0.11628 0.0
O83 O 0.25989 -0.03152 0.06647 0.0
O84 O 0.22955 0.14182 0.06661 0.0
O85 O 0.19227 0.88751 0.94878 0.0
O86 O 0.15994 0.1153 0.95086 0.0
O87 O 0.24431 0.05233 0.8928 0.0
Sc88 Sc 0.94616 0.77956 0.75559 0.0
Sc89 Sc 0.00118 0.90386 0.72907 0.0
Sc90 Sc 0.93555 -0.0352 0.78133 0.0
O91 O 0.95975 0.88429 0.74968 0.0
C92 C 0.89096 0.84439 0.71551 0.0
C93 C 0.98842 0.7912 0.63631 0.0
C94 C 0.96654 0.04818 0.67968 0.0
C95 C 0.00107 0.74628 0.79068 0.0
C96 C 0.92221 0.84323 0.87768 0.0
C97 C 0.99804 0.00106 0.83875 0.0
O98 O 0.90995 0.79698 0.70089 0.0
O99 O 0.99433 0.85997 0.6429 0.0
O100 O 0.94226 0.02477 0.69884 0.0
O101 O 0.97954 0.77046 0.8167 0.0
O102 O 0.9302 0.90971 0.86634 0.0
O103 O 0.00986 0.94383 0.81657 0.0
O104 O 0.92028 0.79366 0.83663 0.0
O105 O 0.01458 0.79001 0.75534 0.0
O106 O 0.97294 0.0237 0.82221 0.0
O107 O 0.97289 0.75412 0.67419 0.0
O108 O 0.89686 0.90469 0.74548 0.0
O109 O 0.99044 0.0174 0.69507 0.0
Sc110 Sc 0.80583 0.88271 0.75551 0.0
Sc111 Sc 0.7508 0.75844 0.72898 0.0
Sc112 Sc 0.81641 0.69745 0.78128 0.0
O113 O 0.79222 0.77799 0.74961 0.0
C114 C 0.86102 0.81779 0.71545 0.0
C115 C 0.76358 0.87109 0.63621 0.0
C116 C 0.78543 0.61409 0.67961 0.0
C117 C 0.75091 0.91603 0.79057 0.0
C118 C 0.82976 0.81902 0.87762 0.0
C119 C 0.75391 0.66125 0.83868 0.0
O120 O 0.84204 0.86526 0.70084 0.0
O121 O 0.75767 0.80232 0.6428 0.0
O122 O 0.80971 0.63749 0.69879 0.0
O123 O 0.77244 0.89185 0.8166 0.0
O124 O 0.82176 0.75255 0.86628 0.0
O125 O 0.74209 0.71847 0.81648 0.0
O126 O 0.83169 0.86859 0.83657 0.0
O127 O 0.7374 0.8723 0.75523 0.0
O128 O 0.77901 0.63859 0.82214 0.0
O129 O 0.77911 0.90817 0.6741 0.0
O130 O 0.85511 0.75753 0.74544 0.0
O131 O 0.76153 0.64489 0.69498 0.0
Sc132 Sc 0.93557 0.69752 0.03737 0.0
Sc133 Sc 0.00117 0.75853 0.08971 0.0
Sc134 Sc 0.94614 0.88278 0.06314 0.0
O135 O 0.95975 0.77806 0.06904 0.0
C136 C 0.9222 0.81907 0.94104 0.0
C137 C 0.99808 0.66133 0.98001 0.0
C138 C 0.00106 0.91609 1.02807 0.0
C139 C 0.96655 0.61418 0.13906 0.0
C140 C 0.89095 0.81785 0.10317 0.0
C141 C 0.98836 0.87118 0.18246 0.0
O142 O 0.93023 0.75261 0.95237 0.0
O143 O 0.00989 0.71855 1.00222 0.0
O144 O 0.97952 0.89198 1.00204 0.0
O145 O 0.94227 0.63756 0.11987 0.0
O146 O 0.90993 0.86527 0.11783 0.0
O147 O 0.99428 0.80241 0.17588 0.0
O148 O 0.89686 0.75758 0.07319 0.0
O149 O 0.99044 0.64498 0.1237 0.0
O150 O 0.97285 0.90827 0.14455 0.0
O151 O 0.97298 0.63867 0.99653 0.0
O152 O 0.92028 0.86865 0.98208 0.0
O153 O 0.01456 0.8724 0.06346 0.0
Sc154 Sc 0.81641 -0.03525 0.03732 0.0
Sc155 Sc 0.7508 0.90376 0.08962 0.0
Sc156 Sc 0.80583 0.77948 0.06308 0.0
O157 O 0.79222 0.88421 0.06898 0.0
C158 C 0.82978 0.84318 0.94098 0.0
C159 C 0.75392 0.00095 0.97991 0.0
C160 C 0.75091 0.74617 1.02801 0.0
C161 C 0.78542 0.0481 0.13899 0.0
C162 C 0.86101 0.84442 0.10318 0.0
C163 C 0.76359 0.7911 0.18237 0.0
O164 O 0.82176 0.90965 0.95232 0.0
O165 O 0.74209 0.94373 1.00212 0.0
O166 O 0.77244 0.77034 1.00198 0.0
O167 O 0.80971 0.02471 0.11981 0.0
O168 O 0.84204 0.79694 0.11776 0.0
O169 O 0.75767 0.85988 0.17578 0.0
O170 O 0.85511 0.90468 0.07318 0.0
O171 O 0.76153 0.01731 0.12361 0.0
O172 O 0.77911 0.75402 0.14448 0.0
O173 O 0.77901 0.0236 0.99645 0.0
O174 O 0.83169 0.79359 0.98202 0.0
O175 O 0.7374 0.78989 0.06336 0.0
Sc176 Sc 0.05584 0.63278 0.81314 0.0
Sc177 Sc 1.00081 0.50854 0.83971 0.0
Sc178 Sc 0.06641 0.44752 0.78737 0.0
O179 O 0.04223 0.52806 0.81905 0.0
C180 C 0.07977 0.56908 0.69103 0.0
C181 C 1.00093 0.66609 0.77807 0.0
C182 C 0.0039 0.41134 0.73001 0.0
C183 C 0.01362 0.62118 0.93246 0.0
C184 C 0.11103 0.56787 0.85316 0.0
C185 C 0.03543 0.36418 0.88906 0.0
O186 O 0.0817 0.61864 0.73208 0.0
O187 O 0.98742 0.62242 0.81346 0.0
O188 O 0.029 0.38868 0.74653 0.0
O189 O 0.02913 0.65827 0.89455 0.0
O190 O 0.10512 0.50759 0.82319 0.0
O191 O 0.01154 0.39498 0.8737 0.0
O192 O 0.09204 0.61529 0.86782 0.0
O193 O 0.0077 0.55241 0.92588 0.0
O194 O 0.05971 0.38756 0.86987 0.0
O195 O 0.02246 0.64193 0.75203 0.0
O196 O 0.07175 0.50262 0.70237 0.0
O197 O 0.99209 0.46856 0.75222 0.0
Sc198 Sc 0.19616 0.5295 0.81307 0.0
Sc199 Sc 0.25118 0.65377 0.83962 0.0
Sc200 Sc 0.18557 0.71476 0.78732 0.0
O201 O 0.20976 0.63423 0.81899 0.0
C202 C 0.17222 0.59319 0.69097 0.0
C203 C 0.25107 0.4962 0.77802 0.0
C204 C 0.24807 0.75096 0.72992 0.0
C205 C 0.2384 0.54112 0.93237 0.0
C206 C 0.14098 0.59442 0.85318 0.0
C207 C 0.21655 0.79812 0.88899 0.0
O208 O 0.17029 0.54362 0.73202 0.0
O209 O 0.26458 0.5399 0.81337 0.0
O210 O 0.22297 0.77362 0.74645 0.0
O211 O 0.22287 0.50404 0.89448 0.0
O212 O 0.14687 0.65468 0.82318 0.0
O213 O 0.24045 0.76732 0.87361 0.0
O214 O 0.15995 0.54694 0.86775 0.0
O215 O 0.2443 0.6099 0.92579 0.0
O216 O 0.19228 0.77473 0.86981 0.0
O217 O 0.22954 0.52041 0.75198 0.0
O218 O 0.18022 0.65966 0.70231 0.0
O219 O 0.25989 0.69374 0.75212 0.0
Sc220 Sc 0.06643 0.71481 0.53132 0.0
Sc221 Sc 1.0008 0.65386 0.47906 0.0
Sc222 Sc 0.05582 0.52956 0.50559 0.0
O223 O 0.04223 0.63429 0.49967 0.0
C224 C 0.11102 0.59438 0.46551 0.0
C225 C 0.03544 0.79817 0.42967 0.0
C226 C 0.01356 0.54119 0.38631 0.0
C227 C 0.00394 0.75106 0.58875 0.0
C228 C 0.07978 0.59325 0.62767 0.0
C229 C 1.00091 0.49629 0.54068 0.0
O230 O 0.10512 0.65468 0.49547 0.0
O231 O 0.01154 0.7674 0.44506 0.0
O232 O 0.02909 0.50412 0.42419 0.0
O233 O 0.02904 0.7737 0.57219 0.0
O234 O 0.08169 0.54366 0.58664 0.0
O235 O 0.9874 0.54 0.50533 0.0
O236 O 0.07178 0.65972 0.61633 0.0
O237 O 0.99212 0.69383 0.56656 0.0
O238 O 0.02244 0.5205 0.56671 0.0
O239 O 0.05972 0.77476 0.44883 0.0
O240 O 0.09203 0.54696 0.4509 0.0
O241 O 0.00766 0.60997 0.39289 0.0
Sc242 Sc 0.18557 0.44746 0.53127 0.0
Sc243 Sc 0.25118 0.50845 0.47897 0.0
Sc244 Sc 0.19615 0.63272 0.50552 0.0
O245 O 0.20976 0.528 0.49961 0.0
C246 C 0.14097 0.56781 0.46545 0.0
C247 C 0.21656 0.36411 0.42961 0.0
C248 C 0.2384 0.62111 0.38622 0.0
C249 C 0.24807 0.41126 0.58868 0.0
C250 C 0.17221 0.56901 0.62762 0.0
C251 C 0.25106 0.66604 0.54057 0.0
O252 O 0.14687 0.50754 0.49544 0.0
O253 O 0.24045 0.3949 0.44498 0.0
O254 O 0.22287 0.65818 0.42411 0.0
O255 O 0.22298 0.3886 0.57214 0.0
O256 O 0.17029 0.61861 0.58658 0.0
O257 O 0.26458 0.62233 0.50522 0.0
O258 O 0.18022 0.50255 0.61628 0.0
O259 O 0.25989 0.46849 0.56647 0.0
O260 O 0.22954 0.64183 0.56661 0.0
O261 O 0.19228 0.3875 0.44878 0.0
O262 O 0.15994 0.61528 0.45085 0.0
O263 O 0.24431 0.55233 0.39281 0.0
Sc264 Sc 0.94616 0.27956 0.2556 0.0
Sc265 Sc 0.00118 0.40386 0.22906 0.0
Sc266 Sc 0.93555 0.4648 0.28133 0.0
O267 O 0.95975 0.38429 0.24968 0.0
C268 C 0.89096 0.3444 0.21551 0.0
C269 C 0.9884 0.29119 0.13631 0.0
C270 C 0.96654 0.54817 0.17968 0.0
C271 C 0.00108 0.24632 0.29072 0.0
C272 C 0.9222 0.34324 0.37768 0.0
C273 C 0.99804 0.50106 0.33875 0.0
O274 O 0.90996 0.29699 0.20088 0.0
O275 O 0.99432 0.35996 0.14289 0.0
O276 O 0.94226 0.52477 0.19884 0.0
O277 O 0.97953 0.27044 0.31673 0.0
O278 O 0.9302 0.40971 0.36634 0.0
O279 O 0.00986 0.44383 0.31656 0.0
O280 O 0.92028 0.29367 0.33663 0.0
O281 O 0.01458 0.29 0.25534 0.0
O282 O 0.97295 0.52369 0.3222 0.0
O283 O 0.97289 0.25411 0.17421 0.0
O284 O 0.89686 0.40469 0.24548 0.0
O285 O 0.99044 0.51739 0.19506 0.0
Sc286 Sc 0.80583 0.38271 0.25551 0.0
Sc287 Sc 0.7508 0.25844 0.22898 0.0
Sc288 Sc 0.81641 0.19745 0.28128 0.0
O289 O 0.79223 0.27799 0.24961 0.0
C290 C 0.86102 0.31779 0.21544 0.0
C291 C 0.76359 0.37109 0.13622 0.0
C292 C 0.78543 0.1141 0.17961 0.0
C293 C 0.75091 0.41603 0.29057 0.0
C294 C 0.82977 0.31902 0.37762 0.0
C295 C 0.75392 0.16125 0.33868 0.0
O296 O 0.84204 0.36526 0.20084 0.0
O297 O 0.75768 0.30232 0.14281 0.0
O298 O 0.80971 0.13748 0.19879 0.0
O299 O 0.77244 0.39186 0.3166 0.0
O300 O 0.82176 0.25255 0.36628 0.0
O301 O 0.7421 0.21848 0.31648 0.0
O302 O 0.83169 0.36859 0.33657 0.0
O303 O 0.73741 0.37231 0.25523 0.0
O304 O 0.77901 0.13859 0.32214 0.0
O305 O 0.77912 0.40817 0.1741 0.0
O306 O 0.85512 0.25753 0.24544 0.0
O307 O 0.76153 0.14489 0.19498 0.0
Sc308 Sc 0.93557 0.19752 0.53738 0.0
Sc309 Sc 0.00117 0.25853 0.58971 0.0
Sc310 Sc 0.94614 0.38279 0.56314 0.0
O311 O 0.95975 0.27807 0.56904 0.0
C312 C 0.9222 0.31907 0.44104 0.0
C313 C 0.99807 0.16131 0.48002 0.0
C314 C 0.00106 0.41609 0.52807 0.0
C315 C 0.96654 0.11418 0.63907 0.0
C316 C 0.89095 0.31785 0.60318 0.0
C317 C 0.98836 0.37119 0.68247 0.0
O318 O 0.93022 0.25262 0.45237 0.0
O319 O 0.00989 0.21854 0.50222 0.0
O320 O 0.97952 0.39198 0.50204 0.0
O321 O 0.94226 0.13756 0.61987 0.0
O322 O 0.90993 0.36528 0.61783 0.0
O323 O 0.99428 0.30242 0.67588 0.0
O324 O 0.89686 0.25758 0.5732 0.0
O325 O 0.99044 0.14498 0.62371 0.0
O326 O 0.97285 0.40827 0.64456 0.0
O327 O 0.97298 0.13867 0.49654 0.0
O328 O 0.92027 0.36866 0.48208 0.0
O329 O 0.01456 0.3724 0.56346 0.0
Sc330 Sc 0.81641 0.46475 0.53732 0.0
Sc331 Sc 0.7508 0.40376 0.58961 0.0
Sc332 Sc 0.80583 0.27948 0.56308 0.0
O333 O 0.79222 0.38421 0.56898 0.0
C334 C 0.82978 0.34319 0.44098 0.0
C335 C 0.75391 0.50095 0.47991 0.0
C336 C 0.75091 0.24616 0.52801 0.0
C337 C 0.78542 0.5481 0.63899 0.0
C338 C 0.861 0.34443 0.60319 0.0
C339 C 0.76359 0.2911 0.68237 0.0
O340 O 0.82176 0.40965 0.45231 0.0
O341 O 0.74209 0.44373 0.50212 0.0
O342 O 0.77244 0.27034 0.50198 0.0
O343 O 0.8097 0.52471 0.6198 0.0
O344 O 0.84203 0.29695 0.61776 0.0
O345 O 0.75768 0.35988 0.67578 0.0
O346 O 0.85511 0.40469 0.57318 0.0
O347 O 0.76153 0.51731 0.62361 0.0
O348 O 0.77911 0.25402 0.64448 0.0
O349 O 0.77901 0.5236 0.49645 0.0
O350 O 0.83169 0.2936 0.48202 0.0
O351 O 0.73741 0.28989 0.56335 0.0
Sc352 Sc 0.55584 0.13281 0.81316 0.0
Sc353 Sc 0.5008 0.00857 0.83972 0.0
Sc354 Sc 0.56641 0.94756 0.78738 0.0
O355 O 0.54223 0.0281 0.81906 0.0
C356 C 0.57976 0.06912 0.69104 0.0
C357 C 0.50093 0.16617 0.77813 0.0
C358 C 0.5039 0.91137 0.73001 0.0
C359 C 0.51361 0.12122 0.93247 0.0
C360 C 0.61102 0.06789 0.85318 0.0
C361 C 0.53543 0.86421 0.88907 0.0
O362 O 0.58169 0.11869 0.73209 0.0
O363 O 0.48742 0.12246 0.81348 0.0
O364 O 0.52899 0.88871 0.74654 0.0
O365 O 0.52913 0.15829 0.89458 0.0
O366 O 0.60511 0.00762 0.8232 0.0
O367 O 0.51154 0.89502 0.87371 0.0
O368 O 0.59204 0.11532 0.86783 0.0
O369 O 0.5077 0.05244 0.92589 0.0
O370 O 0.55971 0.8876 0.86987 0.0
O371 O 0.52245 0.14196 0.75208 0.0
O372 O 0.57175 0.00266 0.70238 0.0
O373 O 0.49209 -0.0314 0.75222 0.0
Sc374 Sc 0.69614 0.0295 0.81307 0.0
Sc375 Sc 0.75117 0.15376 0.83962 0.0
Sc376 Sc 0.68556 0.21476 0.78732 0.0
O377 O 0.70975 0.13422 0.81898 0.0
C378 C 0.6722 0.09319 0.69098 0.0
C379 C 0.75105 -0.00377 0.77797 0.0
C380 C 0.74806 0.25097 0.72993 0.0
C381 C 0.73838 0.0411 0.93237 0.0
C382 C 0.64097 0.09444 0.85319 0.0
C383 C 0.71654 0.29811 0.88899 0.0
O384 O 0.67027 0.04363 0.73203 0.0
O385 O 0.76456 0.03989 0.81336 0.0
O386 O 0.72297 0.27362 0.74646 0.0
O387 O 0.72287 0.00402 0.89446 0.0
O388 O 0.64687 0.15469 0.82318 0.0
O389 O 0.74044 0.26731 0.87362 0.0
O390 O 0.65994 0.04696 0.86777 0.0
O391 O 0.74429 0.10987 0.92579 0.0
O392 O 0.69227 0.27472 0.86981 0.0
O393 O 0.72952 0.02038 0.75194 0.0
O394 O 0.68021 0.15966 0.70231 0.0
O395 O 0.75988 0.19374 0.75213 0.0
Sc396 Sc 0.56643 0.21485 0.53133 0.0
Sc397 Sc 0.50079 0.15391 0.47909 0.0
Sc398 Sc 0.55581 0.02961 0.50561 0.0
O399 O 0.54222 0.13434 0.49969 0.0
C400 C 0.61101 0.09442 0.46551 0.0
C401 C 0.53543 0.29822 0.42969 0.0
C402 C 0.51355 0.04125 0.38633 0.0
C403 C 0.50394 0.2511 0.58878 0.0
C404 C 0.57978 0.0933 0.62768 0.0
C405 C 0.50091 -0.00366 0.5407 0.0
O406 O 0.60511 0.15472 0.49547 0.0
O407 O 0.51153 0.26745 0.44509 0.0
O408 O 0.52908 0.00417 0.42421 0.0
O409 O 0.52903 0.27375 0.57221 0.0
O410 O 0.58169 0.0437 0.58665 0.0
O411 O 0.48739 0.04004 0.50535 0.0
O412 O 0.57178 0.15977 0.61634 0.0
O413 O 0.49212 0.19387 0.56659 0.0
O414 O 0.52243 0.02056 0.56673 0.0
O415 O 0.55971 0.27481 0.44884 0.0
O416 O 0.59202 0.047 0.45091 0.0
O417 O 0.50764 0.11003 0.39292 0.0
Sc418 Sc 0.68555 0.94746 0.53127 0.0
Sc419 Sc 0.75117 0.00844 0.47897 0.0
Sc420 Sc 0.69614 0.13272 0.50554 0.0
O421 O 0.70974 0.02799 0.49961 0.0
C422 C 0.64096 0.06783 0.46545 0.0
C423 C 0.71654 0.8641 0.4296 0.0
C424 C 0.73838 0.1211 0.38622 0.0
C425 C 0.74805 0.91123 0.58866 0.0
C426 C 0.67219 0.06902 0.62762 0.0
C427 C 0.75106 0.16597 0.54062 0.0
O428 O 0.64686 0.00756 0.49544 0.0
O429 O 0.74043 0.89489 0.44498 0.0
O430 O 0.72286 0.15819 0.42413 0.0
O431 O 0.72296 0.88859 0.57213 0.0
O432 O 0.67027 0.11861 0.58658 0.0
O433 O 0.76456 0.12231 0.50522 0.0
O434 O 0.68021 0.00255 0.61628 0.0
O435 O 0.75987 -0.03154 0.56646 0.0
O436 O 0.72952 0.14181 0.56665 0.0
O437 O 0.69226 0.8875 0.44878 0.0
O438 O 0.65993 0.1153 0.45085 0.0
O439 O 0.74429 0.05233 0.3928 0.0
Sc440 Sc 0.44617 0.7796 0.2556 0.0
Sc441 Sc 0.50118 0.90391 0.22909 0.0
Sc442 Sc 0.43555 -0.03516 0.28134 0.0
O443 O 0.45975 0.88433 0.24969 0.0
C444 C 0.39097 0.84442 0.21551 0.0
C445 C 0.48842 0.79124 0.13633 0.0
C446 C 0.46654 0.04822 0.17969 0.0
C447 C 0.50108 0.74633 0.2907 0.0
C448 C 0.42221 0.84327 0.37769 0.0
C449 C 0.49803 0.00111 0.33877 0.0
O450 O 0.40996 0.79702 0.20089 0.0
O451 O 0.49433 0.86002 0.14292 0.0
O452 O 0.44226 0.02481 0.19885 0.0
O453 O 0.47954 0.77051 0.31672 0.0
O454 O 0.4302 0.90975 0.36635 0.0
O455 O 0.50986 0.94388 0.31659 0.0
O456 O 0.42029 0.7937 0.33664 0.0
O457 O 0.51458 0.79006 0.25536 0.0
O458 O 0.47294 0.02375 0.32222 0.0
O459 O 0.47289 0.75417 0.17421 0.0
O460 O 0.39686 0.90472 0.24548 0.0
O461 O 0.49044 0.01745 0.19509 0.0
Sc462 Sc 0.30584 0.88273 0.25553 0.0
Sc463 Sc 0.25081 0.75846 0.22898 0.0
Sc464 Sc 0.31643 0.69747 0.28128 0.0
O465 O 0.29224 0.77801 0.24962 0.0
C466 C 0.36102 0.81781 0.21544 0.0
C467 C 0.26361 0.87111 0.13622 0.0
C468 C 0.28544 0.61412 0.17961 0.0
C469 C 0.25092 0.916 0.29062 0.0
C470 C 0.32978 0.81904 0.37763 0.0
C471 C 0.25393 0.66125 0.33867 0.0
O472 O 0.34205 0.86527 0.20084 0.0
O473 O 0.25769 0.80234 0.14281 0.0
O474 O 0.30972 0.63751 0.19879 0.0
O475 O 0.27246 0.89188 0.31664 0.0
O476 O 0.32177 0.75257 0.36629 0.0
O477 O 0.24211 0.71848 0.31647 0.0
O478 O 0.33171 0.8686 0.33658 0.0
O479 O 0.23742 0.87232 0.25524 0.0
O480 O 0.27902 0.63861 0.32214 0.0
O481 O 0.27912 0.9082 0.17412 0.0
O482 O 0.35512 0.75755 0.24544 0.0
O483 O 0.26154 0.64491 0.19498 0.0
Sc484 Sc 0.43557 0.69755 0.53738 0.0
Sc485 Sc 0.50118 0.75857 0.58972 0.0
Sc486 Sc 0.44614 0.88282 0.56315 0.0
O487 O 0.45976 0.7781 0.56905 0.0
C488 C 0.4222 0.81911 0.44105 0.0
C489 C 0.49808 0.66137 0.48002 0.0
C490 C 0.50106 0.91614 0.52808 0.0
C491 C 0.46655 0.61422 0.63907 0.0
C492 C 0.39096 0.81787 0.60319 0.0
C493 C 0.48836 0.87123 0.68247 0.0
O494 O 0.43023 0.75265 0.45238 0.0
O495 O 0.5099 0.7186 0.50223 0.0
O496 O 0.47952 0.89203 0.50205 0.0
O497 O 0.44227 0.6376 0.61987 0.0
O498 O 0.40994 0.86529 0.61784 0.0
O499 O 0.49428 0.80246 0.67588 0.0
O500 O 0.39687 0.75761 0.5732 0.0
O501 O 0.49045 0.64502 0.62371 0.0
O502 O 0.47285 0.90831 0.64456 0.0
O503 O 0.47299 0.63871 0.49654 0.0
O504 O 0.42028 0.86869 0.48209 0.0
O505 O 0.51456 0.87245 0.56346 0.0
Sc506 Sc 0.31643 -0.03523 0.53733 0.0
Sc507 Sc 0.25081 0.90378 0.58963 0.0
Sc508 Sc 0.30584 0.7795 0.56307 0.0
O509 O 0.29224 0.88423 0.56898 0.0
C510 C 0.3298 0.84321 0.44099 0.0
C511 C 0.25393 0.00099 0.47993 0.0
C512 C 0.25092 0.74623 0.52797 0.0
C513 C 0.28544 0.04812 0.639 0.0
C514 C 0.36101 0.84445 0.6032 0.0
C515 C 0.26361 0.79111 0.68237 0.0
O516 O 0.32178 0.90967 0.45232 0.0
O517 O 0.24211 0.94377 0.50214 0.0
O518 O 0.27247 0.77035 0.50195 0.0
O519 O 0.30972 0.02473 0.61981 0.0
O520 O 0.34204 0.79697 0.61778 0.0
O521 O 0.25769 0.85988 0.67579 0.0
O522 O 0.35512 0.9047 0.57318 0.0
O523 O 0.26155 0.01732 0.62363 0.0
O524 O 0.27912 0.75403 0.64447 0.0
O525 O 0.27902 0.02363 0.49646 0.0
O526 O 0.33172 0.79362 0.48203 0.0
O527 O 0.23742 0.78992 0.56336 0.0
Sc528 Sc 0.55584 0.63281 0.31315 0.0
Sc529 Sc 0.5008 0.50858 0.33972 0.0
Sc530 Sc 0.56641 0.44755 0.28738 0.0
O531 O 0.54222 0.5281 0.31905 0.0
C532 C 0.57977 0.56911 0.19104 0.0
C533 C 0.50093 0.66614 0.27809 0.0
C534 C 0.5039 0.41138 0.23002 0.0
C535 C 0.51362 0.62122 0.43247 0.0
C536 C 0.61102 0.56787 0.35318 0.0
C537 C 0.53543 0.36422 0.38907 0.0
O538 O 0.58171 0.61867 0.23209 0.0
O539 O 0.48742 0.62247 0.31348 0.0
O540 O 0.52899 0.38871 0.24654 0.0
O541 O 0.52913 0.65831 0.39456 0.0
O542 O 0.60511 0.5076 0.3232 0.0
O543 O 0.51153 0.39502 0.37371 0.0
O544 O 0.59204 0.6153 0.36784 0.0
O545 O 0.5077 0.55245 0.42589 0.0
O546 O 0.55971 0.3876 0.36987 0.0
O547 O 0.52246 0.64199 0.25204 0.0
O548 O 0.57175 0.50265 0.20237 0.0
O549 O 0.49208 0.46861 0.25223 0.0
Sc550 Sc 0.69614 0.5295 0.31306 0.0
Sc551 Sc 0.75117 0.65376 0.33963 0.0
Sc552 Sc 0.68556 0.71475 0.28732 0.0
O553 O 0.70975 0.63422 0.31898 0.0
C554 C 0.6722 0.59319 0.19097 0.0
C555 C 0.75106 0.49623 0.27797 0.0
C556 C 0.74806 0.75097 0.22993 0.0
C557 C 0.73838 0.5411 0.43237 0.0
C558 C 0.64097 0.59443 0.35319 0.0
C559 C 0.71654 0.7981 0.38899 0.0
O560 O 0.67027 0.54362 0.23202 0.0
O561 O 0.76456 0.53989 0.31336 0.0
O562 O 0.72296 0.77361 0.24646 0.0
O563 O 0.72287 0.50401 0.39446 0.0
O564 O 0.64687 0.65468 0.32318 0.0
O565 O 0.74044 0.76731 0.37362 0.0
O566 O 0.65994 0.54695 0.36777 0.0
O567 O 0.74429 0.60987 0.42579 0.0
O568 O 0.69226 0.77472 0.36981 0.0
O569 O 0.72952 0.52038 0.25194 0.0
O570 O 0.68021 0.65965 0.20231 0.0
O571 O 0.75988 0.69374 0.25213 0.0
Sc572 Sc 0.56643 0.71484 1.03133 0.0
Sc573 Sc 0.5008 0.65391 0.97908 0.0
Sc574 Sc 0.55581 0.5296 1.00561 0.0
O575 O 0.54223 0.63433 0.99968 0.0
C576 C 0.61101 0.59441 0.96551 0.0
C577 C 0.53543 0.79822 0.92968 0.0
C578 C 0.51356 0.54124 0.88633 0.0
C579 C 0.50395 0.75111 0.08877 0.0
C580 C 0.57978 0.59329 0.12768 0.0
C581 C 0.50091 0.49634 0.0407 0.0
O582 O 0.60512 0.65471 0.99547 0.0
O583 O 0.51154 0.76745 0.94508 0.0
O584 O 0.52909 0.50416 0.92421 0.0
O585 O 0.52904 0.77375 0.07221 0.0
O586 O 0.58169 0.54369 0.08665 0.0
O587 O 0.4874 0.54005 1.00535 0.0
O588 O 0.57178 0.65976 0.11634 0.0
O589 O 0.49212 0.69388 0.06659 0.0
O590 O 0.52244 0.52055 0.06673 0.0
O591 O 0.55972 0.7748 0.94884 0.0
O592 O 0.59202 0.54699 0.95091 0.0
O593 O 0.50765 0.61002 0.89291 0.0
Sc594 Sc 0.68556 0.44746 1.03127 0.0
Sc595 Sc 0.75117 0.50844 0.97897 0.0
Sc596 Sc 0.69614 0.63272 1.00554 0.0
O597 O 0.70975 0.52799 0.99961 0.0
C598 C 0.64096 0.56782 0.96545 0.0
C599 C 0.71655 0.36411 0.9296 0.0
C600 C 0.73838 0.6211 0.88622 0.0
C601 C 0.74806 0.41123 0.08866 0.0
C602 C 0.67219 0.56901 0.12762 0.0
C603 C 0.75106 0.66597 0.04062 0.0
O604 O 0.64686 0.50755 0.99544 0.0
O605 O 0.74044 0.3949 0.94498 0.0
O606 O 0.72286 0.65819 0.92413 0.0
O607 O 0.72296 0.38859 0.07213 0.0
O608 O 0.67027 0.6186 0.08658 0.0
O609 O 0.76456 0.62231 1.00523 0.0
O610 O 0.68021 0.50255 0.11628 0.0
O611 O 0.75988 0.46846 0.06646 0.0
O612 O 0.72952 0.64182 0.06665 0.0
O613 O 0.69226 0.3875 0.94878 0.0
O614 O 0.65994 0.61529 0.95085 0.0
O615 O 0.74429 0.55233 0.8928 0.0
Sc616 Sc 0.44616 0.27961 0.75561 0.0
Sc617 Sc 0.50118 0.4039 0.72909 0.0
Sc618 Sc 0.43555 0.46485 0.78134 0.0
O619 O 0.45976 0.38433 0.7497 0.0
C620 C 0.39097 0.34444 0.7155 0.0
C621 C 0.48841 0.29124 0.63633 0.0
C622 C 0.46655 0.54822 0.67969 0.0
C623 C 0.50108 0.24637 0.79074 0.0
C624 C 0.4222 0.34329 0.87769 0.0
C625 C 0.49804 0.50111 0.83877 0.0
O626 O 0.40997 0.29704 0.70089 0.0
O627 O 0.49433 0.36001 0.64292 0.0
O628 O 0.44227 0.52481 0.69885 0.0
O629 O 0.47953 0.27049 0.81675 0.0
O630 O 0.4302 0.40976 0.86635 0.0
O631 O 0.50986 0.44388 0.81658 0.0
O632 O 0.42028 0.29372 0.83664 0.0
O633 O 0.51458 0.29005 0.75536 0.0
O634 O 0.47294 0.52375 0.82221 0.0
O635 O 0.47289 0.25416 0.67423 0.0
O636 O 0.39686 0.40473 0.74548 0.0
O637 O 0.49044 0.51744 0.69508 0.0
Sc638 Sc 0.30584 0.38274 0.75553 0.0
Sc639 Sc 0.25082 0.25846 0.72897 0.0
Sc640 Sc 0.31643 0.19748 0.78128 0.0
O641 O 0.29224 0.27801 0.74962 0.0
C642 C 0.36103 0.31783 0.71544 0.0
C643 C 0.26361 0.37112 0.63622 0.0
C644 C 0.28545 0.11412 0.67961 0.0
C645 C 0.25092 0.416 0.79062 0.0
C646 C 0.32978 0.31905 0.87763 0.0
C647 C 0.25393 0.16125 0.83867 0.0
O648 O 0.34205 0.36529 0.70084 0.0
O649 O 0.25769 0.30235 0.64281 0.0
O650 O 0.30973 0.13751 0.69879 0.0
O651 O 0.27247 0.39188 0.81664 0.0
O652 O 0.32178 0.25258 0.86629 0.0
O653 O 0.24211 0.21848 0.81647 0.0
O654 O 0.33172 0.36861 0.83658 0.0
O655 O 0.23742 0.37232 0.75524 0.0
O656 O 0.27903 0.13861 0.82214 0.0
O657 O 0.27912 0.4082 0.67413 0.0
O658 O 0.35513 0.25757 0.74545 0.0
O659 O 0.26155 0.14491 0.69498 0.0
Sc660 Sc 0.43557 0.19756 0.03739 0.0
Sc661 Sc 0.50117 0.25857 0.08972 0.0
Sc662 Sc 0.44614 0.38283 0.06315 0.0
O663 O 0.45975 0.27811 0.06905 0.0
C664 C 0.4222 0.31912 0.94105 0.0
C665 C 0.49807 0.16136 0.98003 0.0
C666 C 0.50106 0.41614 1.02809 0.0
C667 C 0.46654 0.11423 0.13908 0.0
C668 C 0.39096 0.31789 0.10319 0.0
C669 C 0.48836 0.37123 0.18248 0.0
O670 O 0.43022 0.25266 0.95238 0.0
O671 O 0.50989 0.21859 1.00223 0.0
O672 O 0.47952 0.39203 1.00205 0.0
O673 O 0.44226 0.13761 0.11988 0.0
O674 O 0.40994 0.36531 0.11784 0.0
O675 O 0.49428 0.30246 0.17589 0.0
O676 O 0.39686 0.25762 0.07321 0.0
O677 O 0.49044 0.14503 0.12372 0.0
O678 O 0.47285 0.40832 0.14456 0.0
O679 O 0.47298 0.13871 0.99655 0.0
O680 O 0.42027 0.3687 0.98209 0.0
O681 O 0.51456 0.37245 0.06347 0.0
Sc682 Sc 0.31642 0.46477 0.03732 0.0
Sc683 Sc 0.25081 0.40378 0.08962 0.0
Sc684 Sc 0.30584 0.27951 0.06307 0.0
O685 O 0.29223 0.38423 0.06898 0.0
C686 C 0.3298 0.34322 0.94099 0.0
C687 C 0.25392 0.50099 0.97993 0.0
C688 C 0.25092 0.24623 1.02797 0.0
C689 C 0.28544 0.54812 0.139 0.0
C690 C 0.36101 0.34447 0.10321 0.0
C691 C 0.26361 0.29111 0.18237 0.0
O692 O 0.32177 0.40968 0.95232 0.0
O693 O 0.2421 0.44376 1.00213 0.0
O694 O 0.27247 0.27034 1.00195 0.0
O695 O 0.30972 0.52473 0.11981 0.0
O696 O 0.34204 0.29699 0.11778 0.0
O697 O 0.25769 0.35988 0.17579 0.0
O698 O 0.35511 0.40471 0.07318 0.0
O699 O 0.26154 0.51732 0.12363 0.0
O700 O 0.27912 0.25403 0.14447 0.0
O701 O 0.27902 0.52363 0.99646 0.0
O702 O 0.33172 0.29364 0.98203 0.0
O703 O 0.23742 0.28991 0.06335 0.0
loop_
_geom_bond_atom_site_label_1
_geom_bond_atom_site_label_2
_geom_bond_distance
_geom_bond_site_symmetry_2
_ccdc_geom_bond_type
Sc0 O3 2.025 . S
Sc0 O10 2.105 . S
Sc0 O13 2.105 . S
Sc0 O16 2.105 . S
Sc0 O19 2.105 . S
Sc1 O3 2.025 . S
Sc1 O11 2.105 1_455 S
Sc1 O15 2.105 1_545 S
Sc1 O17 2.105 . S
Sc1 O21 2.105 1_445 S
Sc2 O3 2.025 1_565 S
Sc2 O12 2.105 . S
Sc2 O14 2.105 1_565 S
Sc2 O18 2.105 . S
Sc2 O20 2.105 1_565 S
O3 Sc0 2.025 . S
O3 Sc1 2.025 . S
O3 Sc2 2.025 1_545 S
C4 O10 1.268 . S
C4 O20 1.268 . S
C5 O11 1.268 . S
C5 O19 1.268 1_655 S
C6 O12 1.299 . S
C6 O21 1.254 1_455 S
C7 O13 1.268 . S
C7 O17 1.268 . S
C8 O14 1.268 . S
C8 O16 1.268 . S
C9 O15 1.268 . S
C9 O18 1.268 . S
O10 Sc0 2.105 . S
O10 C4 1.268 . S
O11 Sc1 2.105 1_655 S
O11 C5 1.268 . S
O12 Sc2 2.105 . S
O12 C6 1.299 . S
O13 Sc0 2.105 . S
O13 C7 1.268 . S
O14 Sc2 2.105 1_545 S
O14 C8 1.268 . S
O15 Sc1 2.105 1_565 S
O15 C9 1.268 . S
O16 Sc0 2.105 . S
O16 C8 1.268 . S
O17 Sc1 2.105 . S
O17 C7 1.268 . S
O18 Sc2 2.105 . S
O18 C9 1.268 . S
O19 Sc0 2.105 . S
O19 C5 1.268 1_455 S
O20 Sc2 2.105 1_545 S
O20 C4 1.268 . S
O21 Sc1 2.105 1_665 S
O21 C6 1.254 1_655 S
Sc22 O25 2.025 . S
Sc22 O32 2.105 . S
Sc22 O35 2.105 . S
Sc22 O38 2.105 . S
Sc22 O41 2.105 . S
Sc23 O25 2.025 . S
Sc23 O33 2.105 . S
Sc23 O37 2.105 . S
Sc23 O39 2.105 . S
Sc23 O43 2.105 . S
Sc24 O25 2.025 . S
Sc24 O34 2.105 . S
Sc24 O36 2.105 . S
Sc24 O40 2.105 . S
Sc24 O42 2.105 . S
O25 Sc22 2.025 . S
O25 Sc23 2.025 . S
O25 Sc24 2.025 . S
C26 O32 1.268 . S
C26 O42 1.268 . S
C27 O33 1.268 . S
C27 O41 1.268 . S
C28 O34 1.268 . S
C28 O43 1.268 . S
C29 O35 1.268 . S
C29 O39 1.268 . S
C30 O36 1.268 . S
C30 O38 1.268 . S
C31 O37 1.268 . S
C31 O40 1.268 . S
O32 Sc22 2.105 . S
O32 C26 1.268 . S
O33 Sc23 2.105 . S
O33 C27 1.268 . S
O34 Sc24 2.105 . S
O34 C28 1.268 . S
O35 Sc22 2.105 . S
O35 C29 1.268 . S
O36 Sc24 2.105 . S
O36 C30 1.268 . S
O37 Sc23 2.105 . S
O37 C31 1.268 . S
O38 Sc22 2.105 . S
O38 C30 1.268 . S
O39 Sc23 2.105 . S
O39 C29 1.268 . S
O40 Sc24 2.105 . S
O40 C31 1.268 . S
O41 Sc22 2.105 . S
O41 C27 1.268 . S
O42 Sc24 2.105 . S
O42 C26 1.268 . S
O43 Sc23 2.105 . S
O43 C28 1.268 . S
Sc44 O47 2.025 1_554 S
Sc44 O54 2.105 1_554 S
Sc44 O57 2.105 . S
Sc44 O60 2.105 . S
Sc44 O63 2.105 1_554 S
Sc45 O47 2.025 . S
Sc45 O55 2.105 . S
Sc45 O59 2.105 1_455 S
Sc45 O61 2.105 1_455 S
Sc45 O65 2.105 . S
Sc46 O47 2.025 . S
Sc46 O56 2.105 . S
Sc46 O58 2.105 1_556 S
Sc46 O62 2.105 . S
Sc46 O64 2.105 . S
O47 Sc44 2.025 1_556 S
O47 Sc45 2.025 . S
O47 Sc46 2.025 . S
C48 O54 1.268 . S
C48 O64 1.268 . S
C49 O55 1.268 . S
C49 O63 1.268 . S
C50 O56 1.268 . S
C50 O65 1.268 . S
C51 O57 1.299 . S
C51 O61 1.254 1_454 S
C52 O58 1.268 . S
C52 O60 1.268 . S
C53 O59 1.268 . S
C53 O62 1.268 1_655 S
O54 Sc44 2.105 1_556 S
O54 C48 1.268 . S
O55 Sc45 2.105 . S
O55 C49 1.268 . S
O56 Sc46 2.105 . S
O56 C50 1.268 . S
O57 Sc44 2.105 . S
O57 C51 1.299 . S
O58 Sc46 2.105 1_554 S
O58 C52 1.268 . S
O59 Sc45 2.105 1_655 S
O59 C53 1.268 . S
O60 Sc44 2.105 . S
O60 C52 1.268 . S
O61 Sc45 2.105 1_655 S
O61 C51 1.254 1_656 S
O62 Sc46 2.105 . S
O62 C53 1.268 1_455 S
O63 Sc44 2.105 1_556 S
O63 C49 1.268 . S
O64 Sc46 2.105 . S
O64 C48 1.268 . S
O65 Sc45 2.105 . S
O65 C50 1.268 . S
Sc66 O69 2.025 1_564 S
Sc66 O76 2.105 1_564 S
Sc66 O79 2.105 . S
Sc66 O82 2.105 1_565 S
Sc66 O85 2.105 1_554 S
Sc67 O69 2.025 . S
Sc67 O77 2.105 1_545 S
Sc67 O81 2.105 . S
Sc67 O83 2.105 1_545 S
Sc67 O87 2.105 . S
Sc68 O69 2.025 . S
Sc68 O78 2.105 . S
Sc68 O80 2.105 1_556 S
Sc68 O84 2.105 . S
Sc68 O86 2.105 . S
O69 Sc66 2.025 1_546 S
O69 Sc67 2.025 . S
O69 Sc68 2.025 . S
C70 O76 1.268 . S
C70 O86 1.268 . S
C71 O77 1.268 . S
C71 O85 1.268 . S
C72 O78 1.268 . S
C72 O87 1.268 . S
C73 O79 1.268 . S
C73 O83 1.268 1_554 S
C74 O80 1.268 . S
C74 O82 1.268 . S
C75 O81 1.268 . S
C75 O84 1.268 . S
O76 Sc66 2.105 1_546 S
O76 C70 1.268 . S
O77 Sc67 2.105 1_565 S
O77 C71 1.268 . S
O78 Sc68 2.105 . S
O78 C72 1.268 . S
O79 Sc66 2.105 . S
O79 C73 1.268 . S
O80 Sc68 2.105 1_554 S
O80 C74 1.268 . S
O81 Sc67 2.105 . S
O81 C75 1.268 . S
O82 Sc66 2.105 1_545 S
O82 C74 1.268 . S
O83 Sc67 2.105 1_565 S
O83 C73 1.268 1_556 S
O84 Sc68 2.105 . S
O84 C75 1.268 . S
O85 Sc66 2.105 1_556 S
O85 C71 1.268 . S
O86 Sc68 2.105 . S
O86 C70 1.268 . S
O87 Sc67 2.105 . S
O87 C72 1.268 . S
Sc88 O91 2.025 . S
Sc88 O98 2.105 . S
Sc88 O101 2.105 . S
Sc88 O104 2.105 . S
Sc88 O107 2.105 . S
Sc89 O91 2.025 . S
Sc89 O99 2.105 . S
Sc89 O103 2.105 1_665 S
Sc89 O105 2.105 1_655 S
Sc89 O109 2.105 1_565 S
Sc90 O91 2.025 1_545 S
Sc90 O100 2.105 . S
Sc90 O102 2.105 1_545 S
Sc90 O106 2.105 . S
Sc90 O108 2.105 1_545 S
O91 Sc88 2.025 . S
O91 Sc89 2.025 . S
O91 Sc90 2.025 1_565 S
C92 O98 1.268 . S
C92 O108 1.268 . S
C93 O99 1.268 . S
C93 O107 1.268 . S
C94 O100 1.268 . S
C94 O109 1.268 . S
C95 O101 1.268 1_455 S
C95 O105 1.268 . S
C96 O102 1.268 . S
C96 O104 1.268 . S
C97 O103 1.254 1_655 S
C97 O106 1.299 . S
O98 Sc88 2.105 . S
O98 C92 1.268 . S
O99 Sc89 2.105 . S
O99 C93 1.268 . S
O100 Sc90 2.105 . S
O100 C94 1.268 . S
O101 Sc88 2.105 . S
O101 C95 1.268 1_655 S
O102 Sc90 2.105 1_565 S
O102 C96 1.268 . S
O103 Sc89 2.105 1_445 S
O103 C97 1.254 1_455 S
O104 Sc88 2.105 . S
O104 C96 1.268 . S
O105 Sc89 2.105 1_455 S
O105 C95 1.268 . S
O106 Sc90 2.105 . S
O106 C97 1.299 . S
O107 Sc88 2.105 . S
O107 C93 1.268 . S
O108 Sc90 2.105 1_565 S
O108 C92 1.268 . S
O109 Sc89 2.105 1_545 S
O109 C94 1.268 . S
Sc110 O113 2.025 . S
Sc110 O120 2.105 . S
Sc110 O123 2.105 . S
Sc110 O126 2.105 . S
Sc110 O129 2.105 . S
Sc111 O113 2.025 . S
Sc111 O121 2.105 . S
Sc111 O125 2.105 . S
Sc111 O127 2.105 . S
Sc111 O131 2.105 . S
Sc112 O113 2.025 . S
Sc112 O122 2.105 . S
Sc112 O124 2.105 . S
Sc112 O128 2.105 . S
Sc112 O130 2.105 . S
O113 Sc110 2.025 . S
O113 Sc111 2.025 . S
O113 Sc112 2.025 . S
C114 O120 1.268 . S
C114 O130 1.268 . S
C115 O121 1.268 . S
C115 O129 1.268 . S
C116 O122 1.268 . S
C116 O131 1.268 . S
C117 O123 1.268 . S
C117 O127 1.268 . S
C118 O124 1.268 . S
C118 O126 1.268 . S
C119 O125 1.268 . S
C119 O128 1.268 . S
O120 Sc110 2.105 . S
O120 C114 1.268 . S
O121 Sc111 2.105 . S
O121 C115 1.268 . S
O122 Sc112 2.105 . S
O122 C116 1.268 . S
O123 Sc110 2.105 . S
O123 C117 1.268 . S
O124 Sc112 2.105 . S
O124 C118 1.268 . S
O125 Sc111 2.105 . S
O125 C119 1.268 . S
O126 Sc110 2.105 . S
O126 C118 1.268 . S
O127 Sc111 2.105 . S
O127 C117 1.268 . S
O128 Sc112 2.105 . S
O128 C119 1.268 . S
O129 Sc110 2.105 . S
O129 C115 1.268 . S
O130 Sc112 2.105 . S
O130 C114 1.268 . S
O131 Sc111 2.105 . S
O131 C116 1.268 . S
Sc132 O135 2.025 1_556 S
Sc132 O142 2.105 . S
Sc132 O145 2.105 1_556 S
Sc132 O148 2.105 1_556 S
Sc132 O151 2.105 . S
Sc133 O135 2.025 . S
Sc133 O143 2.105 1_655 S
Sc133 O147 2.105 . S
Sc133 O149 2.105 . S
Sc133 O153 2.105 1_655 S
Sc134 O135 2.025 . S
Sc134 O144 2.105 . S
Sc134 O146 2.105 . S
Sc134 O150 2.105 . S
Sc134 O152 2.105 1_554 S
O135 Sc132 2.025 1_554 S
O135 Sc133 2.025 . S
O135 Sc134 2.025 . S
C136 O142 1.268 . S
C136 O152 1.268 . S
C137 O143 1.254 1_656 S
C137 O151 1.299 . S
C138 O144 1.268 1_455 S
C138 O153 1.268 . S
C139 O145 1.268 . S
C139 O149 1.268 . S
C140 O146 1.268 . S
C140 O148 1.268 . S
C141 O147 1.268 . S
C141 O150 1.268 . S
O142 Sc132 2.105 . S
O142 C136 1.268 . S
O143 Sc133 2.105 1_455 S
O143 C137 1.254 1_454 S
O144 Sc134 2.105 . S
O144 C138 1.268 1_655 S
O145 Sc132 2.105 1_554 S
O145 C139 1.268 . S
O146 Sc134 2.105 . S
O146 C140 1.268 . S
O147 Sc133 2.105 . S
O147 C141 1.268 . S
O148 Sc132 2.105 1_554 S
O148 C140 1.268 . S
O149 Sc133 2.105 . S
O149 C139 1.268 . S
O150 Sc134 2.105 . S
O150 C141 1.268 . S
O151 Sc132 2.105 . S
O151 C137 1.299 . S
O152 Sc134 2.105 1_556 S
O152 C136 1.268 . S
O153 Sc133 2.105 1_455 S
O153 C138 1.268 . S
Sc154 O157 2.025 1_546 S
Sc154 O164 2.105 1_545 S
Sc154 O167 2.105 1_556 S
Sc154 O170 2.105 1_546 S
Sc154 O173 2.105 . S
Sc155 O157 2.025 . S
Sc155 O165 2.105 1_565 S
Sc155 O169 2.105 . S
Sc155 O171 2.105 1_565 S
Sc155 O175 2.105 . S
Sc156 O157 2.025 . S
Sc156 O166 2.105 . S
Sc156 O168 2.105 . S
Sc156 O172 2.105 . S
Sc156 O174 2.105 1_554 S
O157 Sc154 2.025 1_564 S
O157 Sc155 2.025 . S
O157 Sc156 2.025 . S
C158 O164 1.268 . S
C158 O174 1.268 . S
C159 O165 1.268 1_556 S
C159 O173 1.268 . S
C160 O166 1.268 . S
C160 O175 1.268 . S
C161 O167 1.268 . S
C161 O171 1.268 . S
C162 O168 1.268 . S
C162 O170 1.268 . S
C163 O169 1.268 . S
C163 O172 1.268 . S
O164 Sc154 2.105 1_565 S
O164 C158 1.268 . S
O165 Sc155 2.105 1_545 S
O165 C159 1.268 1_554 S
O166 Sc156 2.105 . S
O166 C160 1.268 . S
O167 Sc154 2.105 1_554 S
O167 C161 1.268 . S
O168 Sc156 2.105 . S
O168 C162 1.268 . S
O169 Sc155 2.105 . S
O169 C163 1.268 . S
O170 Sc154 2.105 1_564 S
O170 C162 1.268 . S
O171 Sc155 2.105 1_545 S
O171 C161 1.268 . S
O172 Sc156 2.105 . S
O172 C163 1.268 . S
O173 Sc154 2.105 . S
O173 C159 1.268 . S
O174 Sc156 2.105 1_556 S
O174 C158 1.268 . S
O175 Sc155 2.105 . S
O175 C160 1.268 . S
Sc176 O179 2.025 . S
Sc176 O186 2.105 . S
Sc176 O189 2.105 . S
Sc176 O192 2.105 . S
Sc176 O195 2.105 . S
Sc177 O179 2.025 . S
Sc177 O187 2.105 1_455 S
Sc177 O191 2.105 . S
Sc177 O193 2.105 . S
Sc177 O197 2.105 1_455 S
Sc178 O179 2.025 . S
Sc178 O188 2.105 . S
Sc178 O190 2.105 . S
Sc178 O194 2.105 . S
Sc178 O196 2.105 . S
O179 Sc176 2.025 . S
O179 Sc177 2.025 . S
O179 Sc178 2.025 . S
C180 O186 1.268 . S
C180 O196 1.268 . S
C181 O187 1.268 . S
C181 O195 1.268 1_655 S
C182 O188 1.299 . S
C182 O197 1.254 1_455 S
C183 O189 1.268 . S
C183 O193 1.268 . S
C184 O190 1.268 . S
C184 O192 1.268 . S
C185 O191 1.268 . S
C185 O194 1.268 . S
O186 Sc176 2.105 . S
O186 C180 1.268 . S
O187 Sc177 2.105 1_655 S
O187 C181 1.268 . S
O188 Sc178 2.105 . S
O188 C182 1.299 . S
O189 Sc176 2.105 . S
O189 C183 1.268 . S
O190 Sc178 2.105 . S
O190 C184 1.268 . S
O191 Sc177 2.105 . S
O191 C185 1.268 . S
O192 Sc176 2.105 . S
O192 C184 1.268 . S
O193 Sc177 2.105 . S
O193 C183 1.268 . S
O194 Sc178 2.105 . S
O194 C185 1.268 . S
O195 Sc176 2.105 . S
O195 C181 1.268 1_455 S
O196 Sc178 2.105 . S
O196 C180 1.268 . S
O197 Sc177 2.105 1_655 S
O197 C182 1.254 1_655 S
Sc198 O201 2.025 . S
Sc198 O208 2.105 . S
Sc198 O211 2.105 . S
Sc198 O214 2.105 . S
Sc198 O217 2.105 . S
Sc199 O201 2.025 . S
Sc199 O209 2.105 . S
Sc199 O213 2.105 . S
Sc199 O215 2.105 . S
Sc199 O219 2.105 . S
Sc200 O201 2.025 . S
Sc200 O210 2.105 . S
Sc200 O212 2.105 . S
Sc200 O216 2.105 . S
Sc200 O218 2.105 . S
O201 Sc198 2.025 . S
O201 Sc199 2.025 . S
O201 Sc200 2.025 . S
C202 O208 1.268 . S
C202 O218 1.268 . S
C203 O209 1.268 . S
C203 O217 1.268 . S
C204 O210 1.268 . S
C204 O219 1.268 . S
C205 O211 1.268 . S
C205 O215 1.268 . S
C206 O212 1.268 . S
C206 O214 1.268 . S
C207 O213 1.268 . S
C207 O216 1.268 . S
O208 Sc198 2.105 . S
O208 C202 1.268 . S
O209 Sc199 2.105 . S
O209 C203 1.268 . S
O210 Sc200 2.105 . S
O210 C204 1.268 . S
O211 Sc198 2.105 . S
O211 C205 1.268 . S
O212 Sc200 2.105 . S
O212 C206 1.268 . S
O213 Sc199 2.105 . S
O213 C207 1.268 . S
O214 Sc198 2.105 . S
O214 C206 1.268 . S
O215 Sc199 2.105 . S
O215 C205 1.268 . S
O216 Sc200 2.105 . S
O216 C207 1.268 . S
O217 Sc198 2.105 . S
O217 C203 1.268 . S
O218 Sc200 2.105 . S
O218 C202 1.268 . S
O219 Sc199 2.105 . S
O219 C204 1.268 . S
Sc220 O223 2.025 . S
Sc220 O230 2.105 . S
Sc220 O233 2.105 . S
Sc220 O236 2.105 . S
Sc220 O239 2.105 . S
Sc221 O223 2.025 . S
Sc221 O231 2.105 . S
Sc221 O235 2.105 1_455 S
Sc221 O237 2.105 1_455 S
Sc221 O241 2.105 . S
Sc222 O223 2.025 . S
Sc222 O232 2.105 . S
Sc222 O234 2.105 . S
Sc222 O238 2.105 . S
Sc222 O240 2.105 . S
O223 Sc220 2.025 . S
O223 Sc221 2.025 . S
O223 Sc222 2.025 . S
C224 O230 1.268 . S
C224 O240 1.268 . S
C225 O231 1.268 . S
C225 O239 1.268 . S
C226 O232 1.268 . S
C226 O241 1.268 . S
C227 O233 1.299 . S
C227 O237 1.254 1_455 S
C228 O234 1.268 . S
C228 O236 1.268 . S
C229 O235 1.268 . S
C229 O238 1.268 1_655 S
O230 Sc220 2.105 . S
O230 C224 1.268 . S
O231 Sc221 2.105 . S
O231 C225 1.268 . S
O232 Sc222 2.105 . S
O232 C226 1.268 . S
O233 Sc220 2.105 . S
O233 C227 1.299 . S
O234 Sc222 2.105 . S
O234 C228 1.268 . S
O235 Sc221 2.105 1_655 S
O235 C229 1.268 . S
O236 Sc220 2.105 . S
O236 C228 1.268 . S
O237 Sc221 2.105 1_655 S
O237 C227 1.254 1_655 S
O238 Sc222 2.105 . S
O238 C229 1.268 1_455 S
O239 Sc220 2.105 . S
O239 C225 1.268 . S
O240 Sc222 2.105 . S
O240 C224 1.268 . S
O241 Sc221 2.105 . S
O241 C226 1.268 . S
Sc242 O245 2.025 . S
Sc242 O252 2.105 . S
Sc242 O255 2.105 . S
Sc242 O258 2.105 . S
Sc242 O261 2.105 . S
Sc243 O245 2.025 . S
Sc243 O253 2.105 . S
Sc243 O257 2.105 . S
Sc243 O259 2.105 . S
Sc243 O263 2.105 . S
Sc244 O245 2.025 . S
Sc244 O254 2.105 . S
Sc244 O256 2.105 . S
Sc244 O260 2.105 . S
Sc244 O262 2.105 . S
O245 Sc242 2.025 . S
O245 Sc243 2.025 . S
O245 Sc244 2.025 . S
C246 O252 1.268 . S
C246 O262 1.268 . S
C247 O253 1.268 . S
C247 O261 1.268 . S
C248 O254 1.268 . S
C248 O263 1.268 . S
C249 O255 1.268 . S
C249 O259 1.268 . S
C250 O256 1.268 . S
C250 O258 1.268 . S
C251 O257 1.268 . S
C251 O260 1.268 . S
O252 Sc242 2.105 . S
O252 C246 1.268 . S
O253 Sc243 2.105 . S
O253 C247 1.268 . S
O254 Sc244 2.105 . S
O254 C248 1.268 . S
O255 Sc242 2.105 . S
O255 C249 1.268 . S
O256 Sc244 2.105 . S
O256 C250 1.268 . S
O257 Sc243 2.105 . S
O257 C251 1.268 . S
O258 Sc242 2.105 . S
O258 C250 1.268 . S
O259 Sc243 2.105 . S
O259 C249 1.268 . S
O260 Sc244 2.105 . S
O260 C251 1.268 . S
O261 Sc242 2.105 . S
O261 C247 1.268 . S
O262 Sc244 2.105 . S
O262 C246 1.268 . S
O263 Sc243 2.105 . S
O263 C248 1.268 . S
Sc264 O267 2.025 . S
Sc264 O274 2.105 . S
Sc264 O277 2.105 . S
Sc264 O280 2.105 . S
Sc264 O283 2.105 . S
Sc265 O267 2.025 . S
Sc265 O275 2.105 . S
Sc265 O279 2.105 1_655 S
Sc265 O281 2.105 1_655 S
Sc265 O285 2.105 . S
Sc266 O267 2.025 . S
Sc266 O276 2.105 . S
Sc266 O278 2.105 . S
Sc266 O282 2.105 . S
Sc266 O284 2.105 . S
O267 Sc264 2.025 . S
O267 Sc265 2.025 . S
O267 Sc266 2.025 . S
C268 O274 1.268 . S
C268 O284 1.268 . S
C269 O275 1.268 . S
C269 O283 1.268 . S
C270 O276 1.268 . S
C270 O285 1.268 . S
C271 O277 1.268 1_455 S
C271 O281 1.268 . S
C272 O278 1.268 . S
C272 O280 1.268 . S
C273 O279 1.254 1_655 S
C273 O282 1.299 . S
O274 Sc264 2.105 . S
O274 C268 1.268 . S
O275 Sc265 2.105 . S
O275 C269 1.268 . S
O276 Sc266 2.105 . S
O276 C270 1.268 . S
O277 Sc264 2.105 . S
O277 C271 1.268 1_655 S
O278 Sc266 2.105 . S
O278 C272 1.268 . S
O279 Sc265 2.105 1_455 S
O279 C273 1.254 1_455 S
O280 Sc264 2.105 . S
O280 C272 1.268 . S
O281 Sc265 2.105 1_455 S
O281 C271 1.268 . S
O282 Sc266 2.105 . S
O282 C273 1.299 . S
O283 Sc264 2.105 . S
O283 C269 1.268 . S
O284 Sc266 2.105 . S
O284 C268 1.268 . S
O285 Sc265 2.105 . S
O285 C270 1.268 . S
Sc286 O289 2.025 . S
Sc286 O296 2.105 . S
Sc286 O299 2.105 . S
Sc286 O302 2.105 . S
Sc286 O305 2.105 . S
Sc287 O289 2.025 . S
Sc287 O297 2.105 . S
Sc287 O301 2.105 . S
Sc287 O303 2.105 . S
Sc287 O307 2.105 . S
Sc288 O289 2.025 . S
Sc288 O298 2.105 . S
Sc288 O300 2.105 . S
Sc288 O304 2.105 . S
Sc288 O306 2.105 . S
O289 Sc286 2.025 . S
O289 Sc287 2.025 . S
O289 Sc288 2.025 . S
C290 O296 1.268 . S
C290 O306 1.268 . S
C291 O297 1.268 . S
C291 O305 1.268 . S
C292 O298 1.268 . S
C292 O307 1.268 . S
C293 O299 1.268 . S
C293 O303 1.268 . S
C294 O300 1.268 . S
C294 O302 1.268 . S
C295 O301 1.268 . S
C295 O304 1.268 . S
O296 Sc286 2.105 . S
O296 C290 1.268 . S
O297 Sc287 2.105 . S
O297 C291 1.268 . S
O298 Sc288 2.105 . S
O298 C292 1.268 . S
O299 Sc286 2.105 . S
O299 C293 1.268 . S
O300 Sc288 2.105 . S
O300 C294 1.268 . S
O301 Sc287 2.105 . S
O301 C295 1.268 . S
O302 Sc286 2.105 . S
O302 C294 1.268 . S
O303 Sc287 2.105 . S
O303 C293 1.268 . S
O304 Sc288 2.105 . S
O304 C295 1.268 . S
O305 Sc286 2.105 . S
O305 C291 1.268 . S
O306 Sc288 2.105 . S
O306 C290 1.268 . S
O307 Sc287 2.105 . S
O307 C292 1.268 . S
Sc308 O311 2.025 . S
Sc308 O318 2.105 . S
Sc308 O321 2.105 . S
Sc308 O324 2.105 . S
Sc308 O327 2.105 . S
Sc309 O311 2.025 . S
Sc309 O319 2.105 1_655 S
Sc309 O323 2.105 . S
Sc309 O325 2.105 . S
Sc309 O329 2.105 1_655 S
Sc310 O311 2.025 . S
Sc310 O320 2.105 . S
Sc310 O322 2.105 . S
Sc310 O326 2.105 . S
Sc310 O328 2.105 . S
O311 Sc308 2.025 . S
O311 Sc309 2.025 . S
O311 Sc310 2.025 . S
C312 O318 1.268 . S
C312 O328 1.268 . S
C313 O319 1.254 1_655 S
C313 O327 1.299 . S
C314 O320 1.268 1_455 S
C314 O329 1.268 . S
C315 O321 1.268 . S
C315 O325 1.268 . S
C316 O322 1.268 . S
C316 O324 1.268 . S
C317 O323 1.268 . S
C317 O326 1.268 . S
O318 Sc308 2.105 . S
O318 C312 1.268 . S
O319 Sc309 2.105 1_455 S
O319 C313 1.254 1_455 S
O320 Sc310 2.105 . S
O320 C314 1.268 1_655 S
O321 Sc308 2.105 . S
O321 C315 1.268 . S
O322 Sc310 2.105 . S
O322 C316 1.268 . S
O323 Sc309 2.105 . S
O323 C317 1.268 . S
O324 Sc308 2.105 . S
O324 C316 1.268 . S
O325 Sc309 2.105 . S
O325 C315 1.268 . S
O326 Sc310 2.105 . S
O326 C317 1.268 . S
O327 Sc308 2.105 . S
O327 C313 1.299 . S
O328 Sc310 2.105 . S
O328 C312 1.268 . S
O329 Sc309 2.105 1_455 S
O329 C314 1.268 . S
Sc330 O333 2.025 . S
Sc330 O340 2.105 . S
Sc330 O343 2.105 . S
Sc330 O346 2.105 . S
Sc330 O349 2.105 . S
Sc331 O333 2.025 . S
Sc331 O341 2.105 . S
Sc331 O345 2.105 . S
Sc331 O347 2.105 . S
Sc331 O351 2.105 . S
Sc332 O333 2.025 . S
Sc332 O342 2.105 . S
Sc332 O344 2.105 . S
Sc332 O348 2.105 . S
Sc332 O350 2.105 . S
O333 Sc330 2.025 . S
O333 Sc331 2.025 . S
O333 Sc332 2.025 . S
C334 O340 1.268 . S
C334 O350 1.268 . S
C335 O341 1.268 . S
C335 O349 1.268 . S
C336 O342 1.268 . S
C336 O351 1.268 . S
C337 O343 1.268 . S
C337 O347 1.268 . S
C338 O344 1.268 . S
C338 O346 1.268 . S
C339 O345 1.268 . S
C339 O348 1.268 . S
O340 Sc330 2.105 . S
O340 C334 1.268 . S
O341 Sc331 2.105 . S
O341 C335 1.268 . S
O342 Sc332 2.105 . S
O342 C336 1.268 . S
O343 Sc330 2.105 . S
O343 C337 1.268 . S
O344 Sc332 2.105 . S
O344 C338 1.268 . S
O345 Sc331 2.105 . S
O345 C339 1.268 . S
O346 Sc330 2.105 . S
O346 C338 1.268 . S
O347 Sc331 2.105 . S
O347 C337 1.268 . S
O348 Sc332 2.105 . S
O348 C339 1.268 . S
O349 Sc330 2.105 . S
O349 C335 1.268 . S
O350 Sc332 2.105 . S
O350 C334 1.268 . S
O351 Sc331 2.105 . S
O351 C336 1.268 . S
Sc352 O355 2.025 . S
Sc352 O362 2.105 . S
Sc352 O365 2.105 . S
Sc352 O368 2.105 . S
Sc352 O371 2.105 . S
Sc353 O355 2.025 . S
Sc353 O363 2.105 . S
Sc353 O367 2.105 1_545 S
Sc353 O369 2.105 . S
Sc353 O373 2.105 1_545 S
Sc354 O355 2.025 1_565 S
Sc354 O364 2.105 . S
Sc354 O366 2.105 1_565 S
Sc354 O370 2.105 . S
Sc354 O372 2.105 1_565 S
O355 Sc352 2.025 . S
O355 Sc353 2.025 . S
O355 Sc354 2.025 1_545 S
C356 O362 1.268 . S
C356 O372 1.268 . S
C357 O363 1.268 . S
C357 O371 1.268 . S
C358 O364 1.268 . S
C358 O373 1.268 . S
C359 O365 1.268 . S
C359 O369 1.268 . S
C360 O366 1.268 . S
C360 O368 1.268 . S
C361 O367 1.268 . S
C361 O370 1.268 . S
O362 Sc352 2.105 . S
O362 C356 1.268 . S
O363 Sc353 2.105 . S
O363 C357 1.268 . S
O364 Sc354 2.105 . S
O364 C358 1.268 . S
O365 Sc352 2.105 . S
O365 C359 1.268 . S
O366 Sc354 2.105 1_545 S
O366 C360 1.268 . S
O367 Sc353 2.105 1_565 S
O367 C361 1.268 . S
O368 Sc352 2.105 . S
O368 C360 1.268 . S
O369 Sc353 2.105 . S
O369 C359 1.268 . S
O370 Sc354 2.105 . S
O370 C361 1.268 . S
O371 Sc352 2.105 . S
O371 C357 1.268 . S
O372 Sc354 2.105 1_545 S
O372 C356 1.268 . S
O373 Sc353 2.105 1_565 S
O373 C358 1.268 . S
Sc374 O377 2.025 . S
Sc374 O384 2.105 . S
Sc374 O387 2.105 . S
Sc374 O390 2.105 . S
Sc374 O393 2.105 . S
Sc375 O377 2.025 . S
Sc375 O385 2.105 . S
Sc375 O389 2.105 . S
Sc375 O391 2.105 . S
Sc375 O395 2.105 . S
Sc376 O377 2.025 . S
Sc376 O386 2.105 . S
Sc376 O388 2.105 . S
Sc376 O392 2.105 . S
Sc376 O394 2.105 . S
O377 Sc374 2.025 . S
O377 Sc375 2.025 . S
O377 Sc376 2.025 . S
C378 O384 1.268 . S
C378 O394 1.268 . S
C379 O385 1.268 . S
C379 O393 1.268 . S
C380 O386 1.268 . S
C380 O395 1.268 . S
C381 O387 1.268 . S
C381 O391 1.268 . S
C382 O388 1.268 . S
C382 O390 1.268 . S
C383 O389 1.268 . S
C383 O392 1.268 . S
O384 Sc374 2.105 . S
O384 C378 1.268 . S
O385 Sc375 2.105 . S
O385 C379 1.268 . S
O386 Sc376 2.105 . S
O386 C380 1.268 . S
O387 Sc374 2.105 . S
O387 C381 1.268 . S
O388 Sc376 2.105 . S
O388 C382 1.268 . S
O389 Sc375 2.105 . S
O389 C383 1.268 . S
O390 Sc374 2.105 . S
O390 C382 1.268 . S
O391 Sc375 2.105 . S
O391 C381 1.268 . S
O392 Sc376 2.105 . S
O392 C383 1.268 . S
O393 Sc374 2.105 . S
O393 C379 1.268 . S
O394 Sc376 2.105 . S
O394 C378 1.268 . S
O395 Sc375 2.105 . S
O395 C380 1.268 . S
Sc396 O399 2.025 . S
Sc396 O406 2.105 . S
Sc396 O409 2.105 . S
Sc396 O412 2.105 . S
Sc396 O415 2.105 . S
Sc397 O399 2.025 . S
Sc397 O407 2.105 . S
Sc397 O411 2.105 . S
Sc397 O413 2.105 . S
Sc397 O417 2.105 . S
Sc398 O399 2.025 . S
Sc398 O408 2.105 . S
Sc398 O410 2.105 . S
Sc398 O414 2.105 . S
Sc398 O416 2.105 . S
O399 Sc396 2.025 . S
O399 Sc397 2.025 . S
O399 Sc398 2.025 . S
C400 O406 1.268 . S
C400 O416 1.268 . S
C401 O407 1.268 . S
C401 O415 1.268 . S
C402 O408 1.268 . S
C402 O417 1.268 . S
C403 O409 1.268 . S
C403 O413 1.268 . S
C404 O410 1.268 . S
C404 O412 1.268 . S
C405 O411 1.268 . S
C405 O414 1.268 . S
O406 Sc396 2.105 . S
O406 C400 1.268 . S
O407 Sc397 2.105 . S
O407 C401 1.268 . S
O408 Sc398 2.105 . S
O408 C402 1.268 . S
O409 Sc396 2.105 . S
O409 C403 1.268 . S
O410 Sc398 2.105 . S
O410 C404 1.268 . S
O411 Sc397 2.105 . S
O411 C405 1.268 . S
O412 Sc396 2.105 . S
O412 C404 1.268 . S
O413 Sc397 2.105 . S
O413 C403 1.268 . S
O414 Sc398 2.105 . S
O414 C405 1.268 . S
O415 Sc396 2.105 . S
O415 C401 1.268 . S
O416 Sc398 2.105 . S
O416 C400 1.268 . S
O417 Sc397 2.105 . S
O417 C402 1.268 . S
Sc418 O421 2.025 1_565 S
Sc418 O428 2.105 1_565 S
Sc418 O431 2.105 . S
Sc418 O434 2.105 1_565 S
Sc418 O437 2.105 . S
Sc419 O421 2.025 . S
Sc419 O429 2.105 1_545 S
Sc419 O433 2.105 . S
Sc419 O435 2.105 1_545 S
Sc419 O439 2.105 . S
Sc420 O421 2.025 . S
Sc420 O430 2.105 . S
Sc420 O432 2.105 . S
Sc420 O436 2.105 . S
Sc420 O438 2.105 . S
O421 Sc418 2.025 1_545 S
O421 Sc419 2.025 . S
O421 Sc420 2.025 . S
C422 O428 1.268 . S
C422 O438 1.268 . S
C423 O429 1.268 . S
C423 O437 1.268 . S
C424 O430 1.268 . S
C424 O439 1.268 . S
C425 O431 1.268 . S
C425 O435 1.268 . S
C426 O432 1.268 . S
C426 O434 1.268 . S
C427 O433 1.268 . S
C427 O436 1.268 . S
O428 Sc418 2.105 1_545 S
O428 C422 1.268 . S
O429 Sc419 2.105 1_565 S
O429 C423 1.268 . S
O430 Sc420 2.105 . S
O430 C424 1.268 . S
O431 Sc418 2.105 . S
O431 C425 1.268 . S
O432 Sc420 2.105 . S
O432 C426 1.268 . S
O433 Sc419 2.105 . S
O433 C427 1.268 . S
O434 Sc418 2.105 1_545 S
O434 C426 1.268 . S
O435 Sc419 2.105 1_565 S
O435 C425 1.268 . S
O436 Sc420 2.105 . S
O436 C427 1.268 . S
O437 Sc418 2.105 . S
O437 C423 1.268 . S
O438 Sc420 2.105 . S
O438 C422 1.268 . S
O439 Sc419 2.105 . S
O439 C424 1.268 . S
Sc440 O443 2.025 . S
Sc440 O450 2.105 . S
Sc440 O453 2.105 . S
Sc440 O456 2.105 . S
Sc440 O459 2.105 . S
Sc441 O443 2.025 . S
Sc441 O451 2.105 . S
Sc441 O455 2.105 1_565 S
Sc441 O457 2.105 . S
Sc441 O461 2.105 1_565 S
Sc442 O443 2.025 1_545 S
Sc442 O452 2.105 . S
Sc442 O454 2.105 1_545 S
Sc442 O458 2.105 . S
Sc442 O460 2.105 1_545 S
O443 Sc440 2.025 . S
O443 Sc441 2.025 . S
O443 Sc442 2.025 1_565 S
C444 O450 1.268 . S
C444 O460 1.268 . S
C445 O451 1.268 . S
C445 O459 1.268 . S
C446 O452 1.268 . S
C446 O461 1.268 . S
C447 O453 1.268 . S
C447 O457 1.268 . S
C448 O454 1.268 . S
C448 O456 1.268 . S
C449 O455 1.268 . S
C449 O458 1.268 . S
O450 Sc440 2.105 . S
O450 C444 1.268 . S
O451 Sc441 2.105 . S
O451 C445 1.268 . S
O452 Sc442 2.105 . S
O452 C446 1.268 . S
O453 Sc440 2.105 . S
O453 C447 1.268 . S
O454 Sc442 2.105 1_565 S
O454 C448 1.268 . S
O455 Sc441 2.105 1_545 S
O455 C449 1.268 . S
O456 Sc440 2.105 . S
O456 C448 1.268 . S
O457 Sc441 2.105 . S
O457 C447 1.268 . S
O458 Sc442 2.105 . S
O458 C449 1.268 . S
O459 Sc440 2.105 . S
O459 C445 1.268 . S
O460 Sc442 2.105 1_565 S
O460 C444 1.268 . S
O461 Sc441 2.105 1_545 S
O461 C446 1.268 . S
Sc462 O465 2.025 . S
Sc462 O472 2.105 . S
Sc462 O475 2.105 . S
Sc462 O478 2.105 . S
Sc462 O481 2.105 . S
Sc463 O465 2.025 . S
Sc463 O473 2.105 . S
Sc463 O477 2.105 . S
Sc463 O479 2.105 . S
Sc463 O483 2.105 . S
Sc464 O465 2.025 . S
Sc464 O474 2.105 . S
Sc464 O476 2.105 . S
Sc464 O480 2.105 . S
Sc464 O482 2.105 . S
O465 Sc462 2.025 . S
O465 Sc463 2.025 . S
O465 Sc464 2.025 . S
C466 O472 1.268 . S
C466 O482 1.268 . S
C467 O473 1.268 . S
C467 O481 1.268 . S
C468 O474 1.268 . S
C468 O483 1.268 . S
C469 O475 1.268 . S
C469 O479 1.268 . S
C470 O476 1.268 . S
C470 O478 1.268 . S
C471 O477 1.268 . S
C471 O480 1.268 . S
O472 Sc462 2.105 . S
O472 C466 1.268 . S
O473 Sc463 2.105 . S
O473 C467 1.268 . S
O474 Sc464 2.105 . S
O474 C468 1.268 . S
O475 Sc462 2.105 . S
O475 C469 1.268 . S
O476 Sc464 2.105 . S
O476 C470 1.268 . S
O477 Sc463 2.105 . S
O477 C471 1.268 . S
O478 Sc462 2.105 . S
O478 C470 1.268 . S
O479 Sc463 2.105 . S
O479 C469 1.268 . S
O480 Sc464 2.105 . S
O480 C471 1.268 . S
O481 Sc462 2.105 . S
O481 C467 1.268 . S
O482 Sc464 2.105 . S
O482 C466 1.268 . S
O483 Sc463 2.105 . S
O483 C468 1.268 . S
Sc484 O487 2.025 . S
Sc484 O494 2.105 . S
Sc484 O497 2.105 . S
Sc484 O500 2.105 . S
Sc484 O503 2.105 . S
Sc485 O487 2.025 . S
Sc485 O495 2.105 . S
Sc485 O499 2.105 . S
Sc485 O501 2.105 . S
Sc485 O505 2.105 . S
Sc486 O487 2.025 . S
Sc486 O496 2.105 . S
Sc486 O498 2.105 . S
Sc486 O502 2.105 . S
Sc486 O504 2.105 . S
O487 Sc484 2.025 . S
O487 Sc485 2.025 . S
O487 Sc486 2.025 . S
C488 O494 1.268 . S
C488 O504 1.268 . S
C489 O495 1.268 . S
C489 O503 1.268 . S
C490 O496 1.268 . S
C490 O505 1.268 . S
C491 O497 1.268 . S
C491 O501 1.268 . S
C492 O498 1.268 . S
C492 O500 1.268 . S
C493 O499 1.268 . S
C493 O502 1.268 . S
O494 Sc484 2.105 . S
O494 C488 1.268 . S
O495 Sc485 2.105 . S
O495 C489 1.268 . S
O496 Sc486 2.105 . S
O496 C490 1.268 . S
O497 Sc484 2.105 . S
O497 C491 1.268 . S
O498 Sc486 2.105 . S
O498 C492 1.268 . S
O499 Sc485 2.105 . S
O499 C493 1.268 . S
O500 Sc484 2.105 . S
O500 C492 1.268 . S
O501 Sc485 2.105 . S
O501 C491 1.268 . S
O502 Sc486 2.105 . S
O502 C493 1.268 . S
O503 Sc484 2.105 . S
O503 C489 1.268 . S
O504 Sc486 2.105 . S
O504 C488 1.268 . S
O505 Sc485 2.105 . S
O505 C490 1.268 . S
Sc506 O509 2.025 1_545 S
Sc506 O516 2.105 1_545 S
Sc506 O519 2.105 . S
Sc506 O522 2.105 1_545 S
Sc506 O525 2.105 . S
Sc507 O509 2.025 . S
Sc507 O517 2.105 1_565 S
Sc507 O521 2.105 . S
Sc507 O523 2.105 1_565 S
Sc507 O527 2.105 . S
Sc508 O509 2.025 . S
Sc508 O518 2.105 . S
Sc508 O520 2.105 . S
Sc508 O524 2.105 . S
Sc508 O526 2.105 . S
O509 Sc506 2.025 1_565 S
O509 Sc507 2.025 . S
O509 Sc508 2.025 . S
C510 O516 1.268 . S
C510 O526 1.268 . S
C511 O517 1.268 . S
C511 O525 1.268 . S
C512 O518 1.268 . S
C512 O527 1.268 . S
C513 O519 1.268 . S
C513 O523 1.268 . S
C514 O520 1.268 . S
C514 O522 1.268 . S
C515 O521 1.268 . S
C515 O524 1.268 . S
O516 Sc506 2.105 1_565 S
O516 C510 1.268 . S
O517 Sc507 2.105 1_545 S
O517 C511 1.268 . S
O518 Sc508 2.105 . S
O518 C512 1.268 . S
O519 Sc506 2.105 . S
O519 C513 1.268 . S
O520 Sc508 2.105 . S
O520 C514 1.268 . S
O521 Sc507 2.105 . S
O521 C515 1.268 . S
O522 Sc506 2.105 1_565 S
O522 C514 1.268 . S
O523 Sc507 2.105 1_545 S
O523 C513 1.268 . S
O524 Sc508 2.105 . S
O524 C515 1.268 . S
O525 Sc506 2.105 . S
O525 C511 1.268 . S
O526 Sc508 2.105 . S
O526 C510 1.268 . S
O527 Sc507 2.105 . S
O527 C512 1.268 . S
Sc528 O531 2.025 . S
Sc528 O538 2.105 . S
Sc528 O541 2.105 . S
Sc528 O544 2.105 . S
Sc528 O547 2.105 . S
Sc529 O531 2.025 . S
Sc529 O539 2.105 . S
Sc529 O543 2.105 . S
Sc529 O545 2.105 . S
Sc529 O549 2.105 . S
Sc530 O531 2.025 . S
Sc530 O540 2.105 . S
Sc530 O542 2.105 . S
Sc530 O546 2.105 . S
Sc530 O548 2.105 . S
O531 Sc528 2.025 . S
O531 Sc529 2.025 . S
O531 Sc530 2.025 . S
C532 O538 1.268 . S
C532 O548 1.268 . S
C533 O539 1.268 . S
C533 O547 1.268 . S
C534 O540 1.268 . S
C534 O549 1.268 . S
C535 O541 1.268 . S
C535 O545 1.268 . S
C536 O542 1.268 . S
C536 O544 1.268 . S
C537 O543 1.268 . S
C537 O546 1.268 . S
O538 Sc528 2.105 . S
O538 C532 1.268 . S
O539 Sc529 2.105 . S
O539 C533 1.268 . S
O540 Sc530 2.105 . S
O540 C534 1.268 . S
O541 Sc528 2.105 . S
O541 C535 1.268 . S
O542 Sc530 2.105 . S
O542 C536 1.268 . S
O543 Sc529 2.105 . S
O543 C537 1.268 . S
O544 Sc528 2.105 . S
O544 C536 1.268 . S
O545 Sc529 2.105 . S
O545 C535 1.268 . S
O546 Sc530 2.105 . S
O546 C537 1.268 . S
O547 Sc528 2.105 . S
O547 C533 1.268 . S
O548 Sc530 2.105 . S
O548 C532 1.268 . S
O549 Sc529 2.105 . S
O549 C534 1.268 . S
Sc550 O553 2.025 . S
Sc550 O560 2.105 . S
Sc550 O563 2.105 . S
Sc550 O566 2.105 . S
Sc550 O569 2.105 . S
Sc551 O553 2.025 . S
Sc551 O561 2.105 . S
Sc551 O565 2.105 . S
Sc551 O567 2.105 . S
Sc551 O571 2.105 . S
Sc552 O553 2.025 . S
Sc552 O562 2.105 . S
Sc552 O564 2.105 . S
Sc552 O568 2.105 . S
Sc552 O570 2.105 . S
O553 Sc550 2.025 . S
O553 Sc551 2.025 . S
O553 Sc552 2.025 . S
C554 O560 1.268 . S
C554 O570 1.268 . S
C555 O561 1.268 . S
C555 O569 1.268 . S
C556 O562 1.268 . S
C556 O571 1.268 . S
C557 O563 1.268 . S
C557 O567 1.268 . S
C558 O564 1.268 . S
C558 O566 1.268 . S
C559 O565 1.268 . S
C559 O568 1.268 . S
O560 Sc550 2.105 . S
O560 C554 1.268 . S
O561 Sc551 2.105 . S
O561 C555 1.268 . S
O562 Sc552 2.105 . S
O562 C556 1.268 . S
O563 Sc550 2.105 . S
O563 C557 1.268 . S
O564 Sc552 2.105 . S
O564 C558 1.268 . S
O565 Sc551 2.105 . S
O565 C559 1.268 . S
O566 Sc550 2.105 . S
O566 C558 1.268 . S
O567 Sc551 2.105 . S
O567 C557 1.268 . S
O568 Sc552 2.105 . S
O568 C559 1.268 . S
O569 Sc550 2.105 . S
O569 C555 1.268 . S
O570 Sc552 2.105 . S
O570 C554 1.268 . S
O571 Sc551 2.105 . S
O571 C556 1.268 . S
Sc572 O575 2.025 1_554 S
Sc572 O582 2.105 1_554 S
Sc572 O585 2.105 . S
Sc572 O588 2.105 . S
Sc572 O591 2.105 1_554 S
Sc573 O575 2.025 . S
Sc573 O583 2.105 . S
Sc573 O587 2.105 . S
Sc573 O589 2.105 . S
Sc573 O593 2.105 . S
Sc574 O575 2.025 . S
Sc574 O584 2.105 . S
Sc574 O586 2.105 1_556 S
Sc574 O590 2.105 . S
Sc574 O592 2.105 . S
O575 Sc572 2.025 1_556 S
O575 Sc573 2.025 . S
O575 Sc574 2.025 . S
C576 O582 1.268 . S
C576 O592 1.268 . S
C577 O583 1.268 . S
C577 O591 1.268 . S
C578 O584 1.268 . S
C578 O593 1.268 . S
C579 O585 1.268 . S
C579 O589 1.268 1_554 S
C580 O586 1.268 . S
C580 O588 1.268 . S
C581 O587 1.268 . S
C581 O590 1.268 . S
O582 Sc572 2.105 1_556 S
O582 C576 1.268 . S
O583 Sc573 2.105 . S
O583 C577 1.268 . S
O584 Sc574 2.105 . S
O584 C578 1.268 . S
O585 Sc572 2.105 . S
O585 C579 1.268 . S
O586 Sc574 2.105 1_554 S
O586 C580 1.268 . S
O587 Sc573 2.105 . S
O587 C581 1.268 . S
O588 Sc572 2.105 . S
O588 C580 1.268 . S
O589 Sc573 2.105 . S
O589 C579 1.268 1_556 S
O590 Sc574 2.105 . S
O590 C581 1.268 . S
O591 Sc572 2.105 1_556 S
O591 C577 1.268 . S
O592 Sc574 2.105 . S
O592 C576 1.268 . S
O593 Sc573 2.105 . S
O593 C578 1.268 . S
Sc594 O597 2.025 1_554 S
Sc594 O604 2.105 1_554 S
Sc594 O607 2.105 . S
Sc594 O610 2.105 . S
Sc594 O613 2.105 1_554 S
Sc595 O597 2.025 . S
Sc595 O605 2.105 . S
Sc595 O609 2.105 . S
Sc595 O611 2.105 . S
Sc595 O615 2.105 . S
Sc596 O597 2.025 . S
Sc596 O606 2.105 . S
Sc596 O608 2.105 1_556 S
Sc596 O612 2.105 . S
Sc596 O614 2.105 . S
O597 Sc594 2.025 1_556 S
O597 Sc595 2.025 . S
O597 Sc596 2.025 . S
C598 O604 1.268 . S
C598 O614 1.268 . S
C599 O605 1.268 . S
C599 O613 1.268 . S
C600 O606 1.268 . S
C600 O615 1.268 . S
C601 O607 1.268 . S
C601 O611 1.268 1_554 S
C602 O608 1.268 . S
C602 O610 1.268 . S
C603 O609 1.268 . S
C603 O612 1.268 . S
O604 Sc594 2.105 1_556 S
O604 C598 1.268 . S
O605 Sc595 2.105 . S
O605 C599 1.268 . S
O606 Sc596 2.105 . S
O606 C600 1.268 . S
O607 Sc594 2.105 . S
O607 C601 1.268 . S
O608 Sc596 2.105 1_554 S
O608 C602 1.268 . S
O609 Sc595 2.105 . S
O609 C603 1.268 . S
O610 Sc594 2.105 . S
O610 C602 1.268 . S
O611 Sc595 2.105 . S
O611 C601 1.268 1_556 S
O612 Sc596 2.105 . S
O612 C603 1.268 . S
O613 Sc594 2.105 1_556 S
O613 C599 1.268 . S
O614 Sc596 2.105 . S
O614 C598 1.268 . S
O615 Sc595 2.105 . S
O615 C600 1.268 . S
Sc616 O619 2.025 . S
Sc616 O626 2.105 . S
Sc616 O629 2.105 . S
Sc616 O632 2.105 . S
Sc616 O635 2.105 . S
Sc617 O619 2.025 . S
Sc617 O627 2.105 . S
Sc617 O631 2.105 . S
Sc617 O633 2.105 . S
Sc617 O637 2.105 . S
Sc618 O619 2.025 . S
Sc618 O628 2.105 . S
Sc618 O630 2.105 . S
Sc618 O634 2.105 . S
Sc618 O636 2.105 . S
O619 Sc616 2.025 . S
O619 Sc617 2.025 . S
O619 Sc618 2.025 . S
C620 O626 1.268 . S
C620 O636 1.268 . S
C621 O627 1.268 . S
C621 O635 1.268 . S
C622 O628 1.268 . S
C622 O637 1.268 . S
C623 O629 1.268 . S
C623 O633 1.268 . S
C624 O630 1.268 . S
C624 O632 1.268 . S
C625 O631 1.268 . S
C625 O634 1.268 . S
O626 Sc616 2.105 . S
O626 C620 1.268 . S
O627 Sc617 2.105 . S
O627 C621 1.268 . S
O628 Sc618 2.105 . S
O628 C622 1.268 . S
O629 Sc616 2.105 . S
O629 C623 1.268 . S
O630 Sc618 2.105 . S
O630 C624 1.268 . S
O631 Sc617 2.105 . S
O631 C625 1.268 . S
O632 Sc616 2.105 . S
O632 C624 1.268 . S
O633 Sc617 2.105 . S
O633 C623 1.268 . S
O634 Sc618 2.105 . S
O634 C625 1.268 . S
O635 Sc616 2.105 . S
O635 C621 1.268 . S
O636 Sc618 2.105 . S
O636 C620 1.268 . S
O637 Sc617 2.105 . S
O637 C622 1.268 . S
Sc638 O641 2.025 . S
Sc638 O648 2.105 . S
Sc638 O651 2.105 . S
Sc638 O654 2.105 . S
Sc638 O657 2.105 . S
Sc639 O641 2.025 . S
Sc639 O649 2.105 . S
Sc639 O653 2.105 . S
Sc639 O655 2.105 . S
Sc639 O659 2.105 . S
Sc640 O641 2.025 . S
Sc640 O650 2.105 . S
Sc640 O652 2.105 . S
Sc640 O656 2.105 . S
Sc640 O658 2.105 . S
O641 Sc638 2.025 . S
O641 Sc639 2.025 . S
O641 Sc640 2.025 . S
C642 O648 1.268 . S
C642 O658 1.268 . S
C643 O649 1.268 . S
C643 O657 1.268 . S
C644 O650 1.268 . S
C644 O659 1.268 . S
C645 O651 1.268 . S
C645 O655 1.268 . S
C646 O652 1.268 . S
C646 O654 1.268 . S
C647 O653 1.268 . S
C647 O656 1.268 . S
O648 Sc638 2.105 . S
O648 C642 1.268 . S
O649 Sc639 2.105 . S
O649 C643 1.268 . S
O650 Sc640 2.105 . S
O650 C644 1.268 . S
O651 Sc638 2.105 . S
O651 C645 1.268 . S
O652 Sc640 2.105 . S
O652 C646 1.268 . S
O653 Sc639 2.105 . S
O653 C647 1.268 . S
O654 Sc638 2.105 . S
O654 C646 1.268 . S
O655 Sc639 2.105 . S
O655 C645 1.268 . S
O656 Sc640 2.105 . S
O656 C647 1.268 . S
O657 Sc638 2.105 . S
O657 C643 1.268 . S
O658 Sc640 2.105 . S
O658 C642 1.268 . S
O659 Sc639 2.105 . S
O659 C644 1.268 . S
Sc660 O663 2.025 1_556 S
Sc660 O670 2.105 . S
Sc660 O673 2.105 1_556 S
Sc660 O676 2.105 1_556 S
Sc660 O679 2.105 . S
Sc661 O663 2.025 . S
Sc661 O671 2.105 . S
Sc661 O675 2.105 . S
Sc661 O677 2.105 . S
Sc661 O681 2.105 . S
Sc662 O663 2.025 . S
Sc662 O672 2.105 . S
Sc662 O674 2.105 . S
Sc662 O678 2.105 . S
Sc662 O680 2.105 1_554 S
O663 Sc660 2.025 1_554 S
O663 Sc661 2.025 . S
O663 Sc662 2.025 . S
C664 O670 1.268 . S
C664 O680 1.268 . S
C665 O671 1.268 1_556 S
C665 O679 1.268 . S
C666 O672 1.268 . S
C666 O681 1.268 . S
C667 O673 1.268 . S
C667 O677 1.268 . S
C668 O674 1.268 . S
C668 O676 1.268 . S
C669 O675 1.268 . S
C669 O678 1.268 . S
O670 Sc660 2.105 . S
O670 C664 1.268 . S
O671 Sc661 2.105 . S
O671 C665 1.268 1_554 S
O672 Sc662 2.105 . S
O672 C666 1.268 . S
O673 Sc660 2.105 1_554 S
O673 C667 1.268 . S
O674 Sc662 2.105 . S
O674 C668 1.268 . S
O675 Sc661 2.105 . S
O675 C669 1.268 . S
O676 Sc660 2.105 1_554 S
O676 C668 1.268 . S
O677 Sc661 2.105 . S
O677 C667 1.268 . S
O678 Sc662 2.105 . S
O678 C669 1.268 . S
O679 Sc660 2.105 . S
O679 C665 1.268 . S
O680 Sc662 2.105 1_556 S
O680 C664 1.268 . S
O681 Sc661 2.105 . S
O681 C666 1.268 . S
Sc682 O685 2.025 1_556 S
Sc682 O692 2.105 . S
Sc682 O695 2.105 1_556 S
Sc682 O698 2.105 1_556 S
Sc682 O701 2.105 . S
Sc683 O685 2.025 . S
Sc683 O693 2.105 . S
Sc683 O697 2.105 . S
Sc683 O699 2.105 . S
Sc683 O703 2.105 . S
Sc684 O685 2.025 . S
Sc684 O694 2.105 . S
Sc684 O696 2.105 . S
Sc684 O700 2.105 . S
Sc684 O702 2.105 1_554 S
O685 Sc682 2.025 1_554 S
O685 Sc683 2.025 . S
O685 Sc684 2.025 . S
C686 O692 1.268 . S
C686 O702 1.268 . S
C687 O693 1.268 1_556 S
C687 O701 1.268 . S
C688 O694 1.268 . S
C688 O703 1.268 . S
C689 O695 1.268 . S
C689 O699 1.268 . S
C690 O696 1.268 . S
C690 O698 1.268 . S
C691 O697 1.268 . S
C691 O700 1.268 . S
O692 Sc682 2.105 . S
O692 C686 1.268 . S
O693 Sc683 2.105 . S
O693 C687 1.268 1_554 S
O694 Sc684 2.105 . S
O694 C688 1.268 . S
O695 Sc682 2.105 1_554 S
O695 C689 1.268 . S
O696 Sc684 2.105 . S
O696 C690 1.268 . S
O697 Sc683 2.105 . S
O697 C691 1.268 . S
O698 Sc682 2.105 1_554 S
O698 C690 1.268 . S
O699 Sc683 2.105 . S
O699 C689 1.268 . S
O700 Sc684 2.105 . S
O700 C691 1.268 . S
O701 Sc682 2.105 . S
O701 C687 1.268 . S
O702 Sc684 2.105 1_556 S
O702 C686 1.268 . S
O703 Sc683 2.105 . S
O703 C688 1.268 . S
C225 C9 1.235 . S
C31 C247 1.235 . S
C185 C49 1.235 . S
C71 C207 1.235 . S
C315 C94 1.235 . S
C337 C116 1.235 . S
C270 C139 1.235 . S
C292 C161 1.235 . S
C577 C361 1.235 . S
C599 C383 1.235 . S
C537 C401 1.235 . S
C559 C423 1.235 . S
C667 C446 1.235 . S
C468 C689 1.235 . S
C491 C622 1.235 . S
C644 C513 1.235 . S
C52 C4 1.825 . S
C26 C74 1.825 . S
C96 C136 1.825 . S
C158 C118 1.825 . S
C180 C228 1.825 . S
C250 C202 1.825 . S
C272 C312 1.825 . S
C334 C294 1.825 . S
C404 C356 1.825 . S
C378 C426 1.825 . S
C488 C448 1.825 . S
C470 C510 1.825 . S
C532 C580 1.825 . S
C554 C602 1.825 . S
C624 C664 1.825 . S
C646 C686 1.825 . S
C141 C6 1.970 1_655 S
C691 C28 1.992 . S
C269 C51 1.970 1_655 S
C467 C73 1.992 . S
C97 C50 1.970 1_655 S
C119 C600 1.992 . S
C137 C183 1.970 1_655 S
C381 C159 1.992 . S
C182 C317 1.970 1_455 S
C515 C204 1.992 . S
C227 C93 1.970 1_455 S
C249 C643 1.992 . S
C226 C273 1.970 1_455 S
C295 C424 1.992 . S
C7 C313 1.970 1_455 S
C557 C335 1.992 . S
C358 C493 1.992 . S
C339 C380 1.992 . S
C403 C621 1.992 . S
C115 C425 1.992 . S
C449 C402 1.992 . S
C471 C248 1.992 . S
C535 C489 1.992 . S
C29 C511 1.992 . S
C534 C669 1.992 . S
C556 C163 1.992 . S
C445 C579 1.992 . S
C601 C291 1.992 . S
C578 C625 1.992 . S
C647 C72 1.992 . S
C359 C665 1.992 . S
C687 C205 1.992 . S
C8 C30 1.718 . S
C70 C48 1.718 . S
C114 C92 1.718 . S
C140 C162 1.718 . S
C184 C206 1.718 . S
C224 C246 1.718 . S
C268 C290 1.718 . S
C338 C316 1.718 . S
C360 C382 1.718 . S
C400 C422 1.718 . S
C444 C466 1.718 . S
C514 C492 1.718 . S
C536 C558 1.718 . S
C576 C598 1.718 . S
C620 C642 1.718 . S
C690 C668 1.718 . S
C271 C5 1.708 1_455 S
C27 C469 1.708 1_545 S
C138 C53 1.708 1_464 S
C688 C75 1.708 1_554 S
C95 C181 1.708 1_455 S
C117 C379 1.708 1_565 S
C160 C603 1.708 1_554 S
C645 C203 1.708 . S
C314 C229 1.708 1_455 S
C512 C251 1.708 . S
C293 C555 1.708 . S
C336 C427 1.708 . S
C623 C357 1.708 . S
C405 C490 1.708 1_545 S
C533 C447 1.708 . S
C581 C666 1.708 1_556 S
