# Generated by pormake.
# Topology dft, (4)-cn, num edge types: 1
# Building blocks:
#     Node 0, Type 0, BuildingBlock: GALJAG_clean_sbu_0, # of connection points: 4
#     Node 1, Type 0, BuildingBlock: GALJAG_clean_sbu_0, # of connection points: 4
#     Node 2, Type 0, BuildingBlock: GALJAG_clean_sbu_0, # of connection points: 4
#     Node 3, Type 0, BuildingBlock: GALJAG_clean_sbu_0, # of connection points: 4
#     Node 4, Type 0, BuildingBlock: GALJAG_clean_sbu_0, # of connection points: 4
#     Node 5, Type 0, BuildingBlock: GALJAG_clean_sbu_0, # of connection points: 4
#     Node 6, Type 0, BuildingBlock: GALJAG_clean_sbu_0, # of connection points: 4
#     Node 7, Type 0, BuildingBlock: GALJAG_clean_sbu_0, # of connection points: 4
#     Edge 8, Type (0, 0), BuildingBlock: FUNLAD_clean_linker_1, # of connection points: 2
#     Edge 9, Type (0, 0), BuildingBlock: FUNLAD_clean_linker_1, # of connection points: 2
#     Edge 10, Type (0, 0), BuildingBlock: FUNLAD_clean_linker_1, # of connection points: 2
#     Edge 11, Type (0, 0), BuildingBlock: FUNLAD_clean_linker_1, # of connection points: 2
#     Edge 12, Type (0, 0), BuildingBlock: FUNLAD_clean_linker_1, # of connection points: 2
#     Edge 13, Type (0, 0), BuildingBlock: FUNLAD_clean_linker_1, # of connection points: 2
#     Edge 14, Type (0, 0), BuildingBlock: FUNLAD_clean_linker_1, # of connection points: 2
#     Edge 15, Type (0, 0), BuildingBlock: FUNLAD_clean_linker_1, # of connection points: 2
#     Edge 16, Type (0, 0), BuildingBlock: FUNLAD_clean_linker_1, # of connection points: 2
#     Edge 17, Type (0, 0), BuildingBlock: FUNLAD_clean_linker_1, # of connection points: 2
#     Edge 18, Type (0, 0), BuildingBlock: FUNLAD_clean_linker_1, # of connection points: 2
#     Edge 19, Type (0, 0), BuildingBlock: FUNLAD_clean_linker_1, # of connection points: 2
#     Edge 20, Type (0, 0), BuildingBlock: FUNLAD_clean_linker_1, # of connection points: 2
#     Edge 21, Type (0, 0), BuildingBlock: FUNLAD_clean_linker_1, # of connection points: 2
#     Edge 22, Type (0, 0), BuildingBlock: FUNLAD_clean_linker_1, # of connection points: 2
#     Edge 23, Type (0, 0), BuildingBlock: FUNLAD_clean_linker_1, # of connection points: 2
# Relax obj value: 0.096
# Max RMSD: 0.146
# Mean RMSD: 0.146
data_MOF--net-dft--node1-GALJAG_clean_sbu_0--edge1-FUNLAD_clean_linker_1
_symmetry_space_group_name_H-M    P1
_symmetry_Int_Tables_number       1
_symmetry_cell_setting            triclinic
loop_
_symmetry_equiv_pos_as_xyz
'x, y, z'
_cell_length_a     34.774299
_cell_length_b     34.806304
_cell_length_c     46.742361
_cell_angle_alpha  90.006381
_cell_angle_beta   90.000017
_cell_angle_gamma 89.991513
loop_
_atom_site_label
_atom_site_type_symbol
_atom_site_fract_x
_atom_site_fract_y
_atom_site_fract_z
_atom_type_partial_charge
In0 In 0.31567 0.04692 0.17243 0.0
O1 O 0.37697 0.07096 0.17125 0.0
O2 O 0.36765 0.01934 0.19432 0.0
C3 C 0.27355 0.10277 0.19738 0.0
C4 C 0.31457 0.05467 0.11499 0.0
C5 C 0.27689 0.98403 0.18999 0.0
O6 O 0.30824 0.09679 0.20408 0.0
O7 O 0.26065 0.08141 0.17785 0.0
O8 O 0.2863 0.98906 0.16423 0.0
O9 O 0.28757 0.01017 0.20687 0.0
C10 C 0.39137 0.04414 0.18584 0.0
O11 O 0.32494 0.02404 0.1272 0.0
O12 O 0.30472 0.0814 0.13164 0.0
In13 In 0.0579 0.3178 0.67054 0.0
O14 O 0.03426 0.37819 0.6786 0.0
O15 O 0.09321 0.37292 0.66728 0.0
C16 C 0.99595 0.29251 0.69972 0.0
C17 C 0.05873 0.30587 0.6133 0.0
C18 C 0.11237 0.27716 0.69851 0.0
O19 O 0.02005 0.3155 0.71037 0.0
O20 O 0.00251 0.28288 0.67413 0.0
O21 O 0.08445 0.26149 0.68587 0.0
O22 O 0.11325 0.31328 0.69685 0.0
C23 C 0.06574 0.39492 0.67362 0.0
O24 O 0.0857 0.29543 0.62946 0.0
O25 O 0.03091 0.32179 0.62589 0.0
In26 In 0.76555 0.04654 0.16795 0.0
O27 O 0.7055 0.02256 0.17761 0.0
O28 O 0.71122 0.08281 0.17167 0.0
C29 C 0.79474 0.98073 0.19 0.0
C30 C 0.78115 0.04788 0.11119 0.0
C31 C 0.79979 0.10498 0.1959 0.0
O32 O 0.77216 0.98068 0.1689 0.0
O33 O 0.80188 0.01349 0.20007 0.0
O34 O 0.8045 0.09955 0.16941 0.0
O35 O 0.77755 0.0815 0.20804 0.0
C36 C 0.68918 0.05493 0.17669 0.0
O37 O 0.80643 0.04051 0.12968 0.0
O38 O 0.74827 0.0549 0.12121 0.0
In39 In 0.03737 0.76802 0.66831 0.0
O40 O 0.0043 0.78882 0.62897 0.0
O41 O 0.05628 0.75796 0.6222 0.0
C42 C 0.98341 0.8052 0.6993 0.0
C43 C 0.0333 0.69096 0.67403 0.0
C44 C 0.1025 0.80194 0.68733 0.0
O45 O 0.00394 0.82188 0.68085 0.0
O46 O 0.98977 0.76975 0.70204 0.0
O47 O 0.08107 0.78226 0.70344 0.0
O48 O 0.09172 0.80373 0.66165 0.0
C49 C 0.0278 0.77492 0.61124 0.0
O50 O 0.06364 0.7095 0.67947 0.0
O51 O 0.00517 0.71117 0.66621 0.0
In52 In 0.32099 0.02572 0.83621 0.0
O53 O 0.31041 0.05043 0.8808 0.0
O54 O 0.33581 0.99495 0.87782 0.0
C55 C 0.27307 0.07931 0.81457 0.0
C56 C 0.39614 0.0401 0.82632 0.0
C57 C 0.28782 0.96365 0.81166 0.0
O58 O 0.26501 0.06007 0.83661 0.0
O59 O 0.30547 0.07207 0.80368 0.0
O60 O 0.30898 0.98648 0.79783 0.0
O61 O 0.28436 0.97138 0.83783 0.0
C62 C 0.32389 0.02161 0.89377 0.0
O63 O 0.38184 0.00696 0.82368 0.0
O64 O 0.37261 0.0659 0.83343 0.0
In65 In 0.03799 0.31984 0.33471 0.0
O66 O 0.05657 0.3819 0.32706 0.0
O67 O 0.99861 0.37197 0.33943 0.0
C68 C 0.10331 0.28633 0.31571 0.0
C69 C 0.03378 0.30678 0.39173 0.0
C70 C 0.98893 0.29075 0.29564 0.0
O71 O 0.09975 0.32224 0.31791 0.0
O72 O 0.07444 0.26725 0.32376 0.0
O73 O 0.99095 0.27824 0.32094 0.0
O74 O 0.01137 0.31818 0.29001 0.0
C75 C 0.02413 0.39609 0.33289 0.0
O76 O 0.00689 0.29852 0.3748 0.0
O77 O 0.06317 0.32093 0.37999 0.0
In78 In 0.77031 0.05759 0.83149 0.0
O79 O 0.78326 0.03496 0.87642 0.0
O80 O 0.76121 0.09163 0.8728 0.0
C81 C 0.81899 0.0043 0.81038 0.0
C82 C 0.69487 0.04149 0.8254 0.0
C83 C 0.79619 0.11635 0.79897 0.0
O84 O 0.82963 0.03005 0.8276 0.0
O85 O 0.7837 0.00488 0.80412 0.0
O86 O 0.77041 0.09361 0.79048 0.0
O87 O 0.80792 0.11035 0.8241 0.0
C88 C 0.77267 0.06515 0.88907 0.0
O89 O 0.70768 0.07543 0.82475 0.0
O90 O 0.71998 0.01578 0.82882 0.0
In91 In 0.03616 0.77026 0.3321 0.0
O92 O 0.0719 0.77342 0.37291 0.0
O93 O 0.01131 0.76745 0.37731 0.0
C94 C 0.09055 0.81464 0.3078 0.0
C95 C 0.04051 0.69365 0.32373 0.0
C96 C 0.97436 0.80535 0.3087 0.0
O97 O 0.07442 0.82333 0.33107 0.0
O98 O 0.07945 0.78349 0.29672 0.0
O99 O 0.99374 0.78044 0.29542 0.0
O100 O 0.98547 0.81189 0.33387 0.0
C101 C 0.04354 0.77043 0.38953 0.0
O102 O 0.00929 0.71037 0.32956 0.0
O103 O 0.06924 0.71546 0.32163 0.0
H104 H 0.30215 0.08576 0.07494 0.0
C105 C 0.3135 0.05914 0.08369 0.0
H106 H 0.33641 0.00435 0.0745 0.0
H107 H 0.2611 0.99399 0.95176 0.0
H108 H 0.22469 0.94597 0.97771 0.0
H109 H 0.23259 0.93824 0.02984 0.0
H110 H 0.2768 0.97865 0.05632 0.0
C111 C 0.32596 0.03145 0.06595 0.0
C112 C 0.32265 0.03545 0.03434 0.0
C113 C 0.2972 0.01108 0.01909 0.0
C114 C 0.29309 0.01513 0.98897 0.0
C115 C 0.26628 0.99142 0.97449 0.0
C116 C 0.24493 0.96391 0.98917 0.0
C117 C 0.24934 0.95959 0.01851 0.0
C118 C 0.27494 0.98294 0.03344 0.0
H119 H 0.33806 0.99287 0.93442 0.0
C120 C 0.32561 0.01868 0.92516 0.0
H121 H 0.30068 0.0729 0.93343 0.0
H122 H 0.3769 0.0843 0.05655 0.0
H123 H 0.4132 0.13239 0.03057 0.0
H124 H 0.40492 0.14038 0.9785 0.0
H125 H 0.36049 0.10009 0.95208 0.0
C126 C 0.31216 0.04646 0.94239 0.0
C127 C 0.31506 0.04304 0.97406 0.0
C128 C 0.34041 0.0675 0.9893 0.0
C129 C 0.3446 0.0634 0.01943 0.0
C130 C 0.37155 0.08698 0.03386 0.0
C131 C 0.39285 0.11452 0.01915 0.0
C132 C 0.38824 0.11899 0.98983 0.0
C133 C 0.36254 0.09571 0.97494 0.0
H134 H 0.08682 0.2886 0.57305 0.0
C135 C 0.06092 0.3013 0.58201 0.0
H136 H 0.00768 0.32783 0.57317 0.0
H137 H 0.05424 0.38564 0.4502 0.0
H138 H 0.04916 0.44555 0.47636 0.0
H139 H 0.03956 0.44573 0.52865 0.0
H140 H 0.03461 0.38602 0.55504 0.0
C141 C 0.03303 0.3138 0.56446 0.0
C142 C 0.03814 0.31321 0.53281 0.0
C143 C 0.04131 0.34843 0.51773 0.0
C144 C 0.04755 0.34833 0.48765 0.0
C145 C 0.05006 0.38396 0.4731 0.0
C146 C 0.04712 0.41862 0.48784 0.0
C147 C 0.04166 0.41872 0.51727 0.0
C148 C 0.0388 0.38417 0.53215 0.0
H149 H 0.00313 0.29022 0.43114 0.0
C150 C 0.02989 0.30198 0.42291 0.0
H151 H 0.0835 0.32674 0.4332 0.0
H152 H 0.02863 0.24067 0.55449 0.0
H153 H 0.03568 0.18071 0.52859 0.0
H154 H 0.05121 0.18051 0.47709 0.0
H155 H 0.05909 0.24027 0.45109 0.0
C156 C 0.05735 0.31346 0.44121 0.0
C157 C 0.05085 0.31302 0.4727 0.0
C158 C 0.0478 0.27777 0.48778 0.0
C159 C 0.04059 0.27787 0.51776 0.0
C160 C 0.03565 0.24229 0.53198 0.0
C161 C 0.03936 0.20764 0.51733 0.0
C162 C 0.04796 0.20753 0.48831 0.0
C163 C 0.05219 0.24207 0.47361 0.0
H164 H 0.75962 0.09495 0.92954 0.0
C165 C 0.77221 0.0691 0.92044 0.0
H166 H 0.79749 0.01519 0.92889 0.0
H167 H 0.80584 0.11354 0.05243 0.0
H168 H 0.84871 0.15719 0.02765 0.0
H169 H 0.86278 0.14866 0.97631 0.0
H170 H 0.83342 0.09688 0.94935 0.0
C171 C 0.78581 0.04155 0.93784 0.0
C172 C 0.7814 0.04425 0.96949 0.0
C173 C 0.80024 0.07364 0.98522 0.0
C174 C 0.79359 0.07744 0.01514 0.0
C175 C 0.81098 0.1084 0.02995 0.0
C176 C 0.83551 0.13382 0.01594 0.0
C177 C 0.84332 0.1291 0.98701 0.0
C178 C 0.82603 0.0994 0.97174 0.0
H179 H 0.81842 0.04025 0.07334 0.0
C180 C 0.78944 0.04734 0.08027 0.0
H181 H 0.73266 0.0602 0.06751 0.0
H182 H 0.7416 0.98399 0.94598 0.0
H183 H 0.70142 0.9384 0.97127 0.0
H184 H 0.69228 0.94327 0.02347 0.0
H185 H 0.72306 0.99397 0.05067 0.0
C186 C 0.76201 0.05446 0.06073 0.0
C187 C 0.76953 0.05076 0.0295 0.0
C188 C 0.75172 0.02066 0.01394 0.0
C189 C 0.75755 0.01747 0.98392 0.0
C190 C 0.73871 0.98753 0.96887 0.0
C191 C 0.71546 0.96115 0.98311 0.0
C192 C 0.71027 0.96392 0.01249 0.0
C193 C 0.72807 0.99325 0.02783 0.0
H194 H 0.07704 0.77463 0.4294 0.0
C195 C 0.04826 0.77067 0.42081 0.0
H196 H 0.98975 0.76069 0.43051 0.0
H197 H 0.02939 0.69108 0.55262 0.0
H198 H 0.01222 0.63323 0.52664 0.0
H199 H 0.00062 0.63511 0.47458 0.0
H200 H 0.00593 0.69491 0.4482 0.0
C201 C 0.01848 0.76606 0.43874 0.0
C202 C 0.02451 0.76539 0.47022 0.0
C203 C 0.02124 0.73023 0.4853 0.0
C204 C 0.02834 0.72908 0.51525 0.0
C205 C 0.02469 0.69356 0.52981 0.0
C206 C 0.01479 0.66013 0.51517 0.0
C207 C 0.00822 0.66119 0.48587 0.0
C208 C 0.01135 0.69573 0.47099 0.0
H209 H 0.99688 0.79362 0.57245 0.0
C210 C 0.02188 0.77797 0.58015 0.0
H211 H 0.07028 0.74461 0.56885 0.0
H212 H 0.0297 0.83818 0.44822 0.0
H213 H 0.04892 0.89566 0.47382 0.0
H214 H 0.06495 0.893 0.52519 0.0
H215 H 0.06129 0.83299 0.55135 0.0
C216 C 0.04603 0.76155 0.56136 0.0
C217 C 0.03864 0.76312 0.53005 0.0
C218 C 0.0421 0.7983 0.51493 0.0
C219 C 0.03434 0.79956 0.48507 0.0
C220 C 0.03647 0.83533 0.47071 0.0
C221 C 0.04728 0.86861 0.48517 0.0
C222 C 0.05619 0.86713 0.51411 0.0
C223 C 0.05373 0.83249 0.52892 0.0
H224 H 0.44269 0.0168 0.20468 0.0
C225 C 0.43295 0.04017 0.19106 0.0
H226 H 0.44951 0.0845 0.16282 0.0
H227 H 0.61247 0.05612 0.23361 0.0
H228 H 0.57994 0.08642 0.27365 0.0
H229 H 0.51098 0.10269 0.27084 0.0
H230 H 0.47403 0.08846 0.22807 0.0
C231 C 0.45885 0.06238 0.17768 0.0
C232 C 0.50066 0.05372 0.17941 0.0
C233 C 0.52191 0.0628 0.20439 0.0
C234 C 0.5619 0.05432 0.20573 0.0
C235 C 0.58226 0.06281 0.23119 0.0
C236 C 0.5639 0.08003 0.25438 0.0
C237 C 0.52505 0.08912 0.25282 0.0
C238 C 0.50415 0.08068 0.22818 0.0
H239 H 0.63629 0.08952 0.17926 0.0
C240 C 0.64744 0.06035 0.17998 0.0
H241 H 0.6334 0.00137 0.18173 0.0
H242 H 0.4681 0.03195 0.12858 0.0
H243 H 0.50077 0.00232 0.08838 0.0
H244 H 0.5703 0.98848 0.09044 0.0
H245 H 0.60757 0.00409 0.13273 0.0
C246 C 0.6229 0.03077 0.18228 0.0
C247 C 0.58064 0.03745 0.18188 0.0
C248 C 0.55928 0.02799 0.15704 0.0
C249 C 0.51927 0.03626 0.15576 0.0
C250 C 0.49863 0.02656 0.13064 0.0
C251 C 0.517 0.0095 0.10741 0.0
C252 C 0.55614 0.00169 0.10857 0.0
C253 C 0.57718 0.01078 0.13301 0.0
H254 H 0.09809 0.44892 0.66839 0.0
C255 C 0.07036 0.43695 0.67436 0.0
H256 H 0.01389 0.44907 0.68846 0.0
H257 H 0.06153 0.61345 0.73619 0.0
H258 H 0.05767 0.5776 0.78065 0.0
H259 H 0.04895 0.50725 0.78032 0.0
H260 H 0.04393 0.47229 0.73552 0.0
C261 C 0.04145 0.46056 0.68161 0.0
C262 C 0.04679 0.50295 0.68167 0.0
C263 C 0.04972 0.52289 0.70801 0.0
C264 C 0.05497 0.56342 0.70821 0.0
C265 C 0.05768 0.58265 0.73483 0.0
C266 C 0.05551 0.56243 0.7605 0.0
C267 C 0.05058 0.52282 0.76031 0.0
C268 C 0.04771 0.50312 0.73445 0.0
H269 H 0.00348 0.63555 0.66944 0.0
C270 C 0.03066 0.64881 0.67534 0.0
H271 H 0.08781 0.63911 0.68898 0.0
H272 H 0.03969 0.47385 0.62742 0.0
H273 H 0.04496 0.50947 0.58301 0.0
H274 H 0.05688 0.57935 0.58334 0.0
H275 H 0.06322 0.61405 0.62809 0.0
C276 C 0.06065 0.62649 0.68239 0.0
C277 C 0.05699 0.58391 0.68207 0.0
C278 C 0.05455 0.5639 0.65568 0.0
C279 C 0.04889 0.52344 0.65548 0.0
C280 C 0.04505 0.50439 0.62884 0.0
C281 C 0.04784 0.52453 0.60317 0.0
C282 C 0.05446 0.56388 0.60335 0.0
C283 C 0.05784 0.58348 0.62922 0.0
H284 H 0.64545 0.00196 0.82325 0.0
C285 C 0.65367 0.0321 0.8233 0.0
H286 H 0.63418 0.08953 0.8222 0.0
H287 H 0.47173 0.0506 0.76881 0.0
H288 H 0.50244 0.08386 0.72933 0.0
H289 H 0.57109 0.10145 0.73161 0.0
H290 H 0.60948 0.08587 0.77336 0.0
C291 C 0.62631 0.05932 0.82275 0.0
C292 C 0.58471 0.04914 0.82177 0.0
C293 C 0.5626 0.05878 0.79731 0.0
C294 C 0.52294 0.04885 0.79605 0.0
C295 C 0.50177 0.05808 0.7711 0.0
C296 C 0.51909 0.07699 0.74821 0.0
C297 C 0.55775 0.08687 0.74949 0.0
C298 C 0.57943 0.07783 0.77363 0.0
H299 H 0.44681 0.07803 0.82492 0.0
C300 C 0.43739 0.04838 0.82279 0.0
H301 H 0.45482 0.9906 0.81804 0.0
H302 H 0.61735 0.03055 0.87348 0.0
H303 H 0.58662 0.99709 0.91269 0.0
H304 H 0.51854 0.97762 0.90963 0.0
H305 H 0.48072 0.99191 0.86737 0.0
C306 C 0.46358 0.02055 0.81885 0.0
C307 C 0.50541 0.02955 0.81935 0.0
C308 C 0.52749 0.01981 0.84378 0.0
C309 C 0.56701 0.03017 0.84523 0.0
C310 C 0.58769 0.02207 0.87066 0.0
C311 C 0.57029 0.00316 0.8935 0.0
C312 C 0.53195 0.99227 0.8918 0.0
C313 C 0.5106 0.00059 0.86737 0.0
H314 H 0.98751 0.44739 0.33786 0.0
C315 C 0.01638 0.43765 0.33265 0.0
H316 H 0.07263 0.45408 0.32079 0.0
H317 H 0.02045 0.61531 0.27154 0.0
H318 H 0.03437 0.58084 0.22764 0.0
H319 H 0.04902 0.5115 0.22848 0.0
H320 H 0.04967 0.47618 0.27322 0.0
C321 C 0.04393 0.46347 0.3268 0.0
C322 C 0.03559 0.50537 0.3266 0.0
C323 C 0.03591 0.52568 0.30032 0.0
C324 C 0.02796 0.56575 0.29987 0.0
C325 C 0.02727 0.58508 0.27321 0.0
C326 C 0.03495 0.56558 0.24781 0.0
C327 C 0.04316 0.52653 0.24829 0.0
C328 C 0.04352 0.50663 0.27414 0.0
H329 H 0.07209 0.64001 0.31529 0.0
C330 C 0.04404 0.65174 0.32072 0.0
H331 H 0.98679 0.63909 0.3325 0.0
H332 H 0.03557 0.4757 0.381 0.0
H333 H 0.02157 0.51018 0.42481 0.0
H334 H 0.00661 0.57946 0.4239 0.0
H335 H 0.00576 0.61467 0.37914 0.0
C336 C 0.01453 0.62786 0.32581 0.0
C337 C 0.02037 0.58553 0.32579 0.0
C338 C 0.01967 0.56517 0.35205 0.0
C339 C 0.0277 0.52511 0.35252 0.0
C340 C 0.02857 0.50587 0.37923 0.0
C341 C 0.02086 0.52539 0.40461 0.0
C342 C 0.01248 0.5644 0.4041 0.0
C343 C 0.01202 0.58424 0.37823 0.0
H344 H 0.16221 0.28676 0.29805 0.0
C345 C 0.13773 0.26851 0.30298 0.0
H346 H 0.1141 0.21277 0.30063 0.0
H347 H 0.24755 0.20722 0.19891 0.0
H348 H 0.21095 0.2575 0.17541 0.0
H349 H 0.15481 0.28691 0.19912 0.0
H350 H 0.13556 0.267 0.2466 0.0
C351 C 0.1383 0.23128 0.29544 0.0
C352 C 0.17182 0.21358 0.28057 0.0
C353 C 0.1816 0.22462 0.25223 0.0
C354 C 0.21259 0.20614 0.23786 0.0
C355 C 0.22316 0.2191 0.21024 0.0
C356 C 0.20258 0.24811 0.19659 0.0
C357 C 0.17109 0.26478 0.20999 0.0
C358 C 0.16053 0.25324 0.23742 0.0
H359 H 0.21886 0.13263 0.20504 0.0
C360 C 0.2486 0.13065 0.21208 0.0
H361 H 0.28953 0.14873 0.24258 0.0
H362 H 0.16208 0.18712 0.33522 0.0
H363 H 0.19746 0.13543 0.35798 0.0
H364 H 0.24887 0.10111 0.33211 0.0
H365 H 0.26546 0.11845 0.28345 0.0
C366 C 0.26032 0.15158 0.23459 0.0
C367 C 0.2322 0.17515 0.25112 0.0
C368 C 0.22296 0.16468 0.27962 0.0
C369 C 0.19286 0.18403 0.29438 0.0
C370 C 0.1843 0.17304 0.32286 0.0
C371 C 0.20444 0.14347 0.33622 0.0
C372 C 0.23341 0.12418 0.32167 0.0
C373 C 0.24266 0.13448 0.29371 0.0
H374 H 0.96212 0.28476 0.73917 0.0
C375 C 0.96457 0.27595 0.71693 0.0
H376 H 0.94492 0.23798 0.68494 0.0
H377 H 0.89469 0.11146 0.77431 0.0
H378 H 0.95061 0.08174 0.75262 0.0
H379 H 0.99134 0.11778 0.71876 0.0
H380 H 0.97632 0.18368 0.70629 0.0
C381 C 0.94151 0.24819 0.70677 0.0
C382 C 0.91564 0.22634 0.72623 0.0
C383 C 0.92481 0.18774 0.73319 0.0
C384 C 0.90158 0.16708 0.75291 0.0
C385 C 0.91148 0.12861 0.75958 0.0
C386 C 0.9435 0.11116 0.74727 0.0
C387 C 0.9664 0.13144 0.72819 0.0
C388 C 0.95737 0.16927 0.72119 0.0
H389 H 0.80246 0.14801 0.75829 0.0
C390 C 0.81395 0.14489 0.77979 0.0
H391 H 0.85911 0.15904 0.80807 0.0
H392 H 0.88788 0.29847 0.71541 0.0
H393 H 0.83191 0.32818 0.73724 0.0
H394 H 0.79263 0.29283 0.77245 0.0
H395 H 0.80892 0.22738 0.7859 0.0
C396 C 0.84627 0.16352 0.78714 0.0
C397 C 0.86915 0.18498 0.76557 0.0
C398 C 0.85948 0.22325 0.7582 0.0
C399 C 0.88261 0.2439 0.73834 0.0
C400 C 0.87184 0.28182 0.73088 0.0
C401 C 0.83968 0.29913 0.74314 0.0
C402 C 0.81752 0.27919 0.76293 0.0
C403 C 0.82715 0.24167 0.77045 0.0
H404 H 0.92858 0.84907 0.30846 0.0
C405 C 0.94314 0.82769 0.29541 0.0
H406 H 0.95053 0.80509 0.25386 0.0
H407 H 0.78692 0.90703 0.24852 0.0
H408 H 0.7596 0.85612 0.27759 0.0
H409 H 0.80011 0.803 0.2953 0.0
H410 H 0.86835 0.80071 0.2843 0.0
C411 C 0.93484 0.82504 0.26742 0.0
C412 C 0.9091 0.8537 0.25359 0.0
C413 C 0.86909 0.85396 0.25943 0.0
C414 C 0.84553 0.88405 0.24856 0.0
C415 C 0.80598 0.88446 0.25571 0.0
C416 C 0.78994 0.85546 0.27244 0.0
C417 C 0.81277 0.82558 0.28246 0.0
C418 C 0.8519 0.82469 0.27611 0.0
H419 H 0.80674 0.91822 0.19082 0.0
C420 C 0.81309 0.94552 0.20106 0.0
H421 H 0.84638 0.97473 0.2319 0.0
H422 H 0.98443 0.86054 0.23698 0.0
H423 H 0.01127 0.91023 0.20667 0.0
H424 H 0.97015 0.9614 0.18678 0.0
H425 H 0.90189 0.96342 0.19737 0.0
C426 C 0.83889 0.94721 0.22242 0.0
C427 C 0.86198 0.91334 0.23139 0.0
C428 C 0.90166 0.91206 0.22448 0.0
C429 C 0.92525 0.88223 0.23559 0.0
C430 C 0.96501 0.88227 0.22891 0.0
C431 C 0.98085 0.91064 0.21151 0.0
C432 C 0.95771 0.9395 0.20037 0.0
C433 C 0.91858 0.94036 0.20669 0.0
H434 H 0.15249 0.84026 0.68226 0.0
C435 C 0.13593 0.82384 0.69774 0.0
H436 H 0.12844 0.8101 0.74142 0.0
H437 H 0.29615 0.86282 0.77768 0.0
H438 H 0.30327 0.79351 0.78029 0.0
H439 H 0.25202 0.75059 0.76265 0.0
H440 H 0.19336 0.77668 0.74225 0.0
C441 C 0.14438 0.82669 0.72569 0.0
C442 C 0.17538 0.85273 0.73605 0.0
C443 C 0.20929 0.83703 0.74815 0.0
C444 C 0.23872 0.86177 0.75854 0.0
C445 C 0.27262 0.84532 0.76998 0.0
C446 C 0.27715 0.8056 0.77146 0.0
C447 C 0.24831 0.78143 0.76151 0.0
C448 C 0.21475 0.79678 0.7499 0.0
H449 H 0.24858 0.91403 0.81208 0.0
C450 C 0.2658 0.93233 0.79825 0.0
H451 H 0.27856 0.94788 0.75565 0.0
H452 H 0.11247 0.89263 0.71649 0.0
H453 H 0.10583 0.96174 0.71352 0.0
H454 H 0.15783 0.00454 0.73004 0.0
H455 H 0.21661 0.97837 0.74992 0.0
C456 C 0.26315 0.92841 0.76975 0.0
C457 C 0.234 0.90217 0.75703 0.0
C458 C 0.20035 0.91792 0.74455 0.0
C459 C 0.17073 0.89322 0.73444 0.0
C460 C 0.1365 0.90987 0.72359 0.0
C461 C 0.13214 0.94959 0.72197 0.0
C462 C 0.16137 0.97368 0.73132 0.0
C463 C 0.19503 0.95823 0.74263 0.0
H464 H 0.87699 0.9825 0.80077 0.0
C465 C 0.8465 0.97736 0.79735 0.0
H466 H 0.8047 0.94336 0.77674 0.0
H467 H 0.90963 0.88891 0.67502 0.0
H468 H 0.85979 0.92491 0.65063 0.0
H469 H 0.81155 0.96173 0.67792 0.0
H470 H 0.81257 0.96244 0.72969 0.0
C471 C 0.83515 0.94806 0.78067 0.0
C472 C 0.86355 0.92443 0.76449 0.0
C473 C 0.86279 0.92476 0.73414 0.0
C474 C 0.89113 0.90425 0.71838 0.0
C475 C 0.88925 0.90452 0.68809 0.0
C476 C 0.86073 0.925 0.67378 0.0
C477 C 0.83354 0.94567 0.68914 0.0
C478 C 0.83443 0.94573 0.71893 0.0
H479 H 0.93577 0.80832 0.7304 0.0
C480 C 0.9543 0.82531 0.71659 0.0
H481 H 0.96862 0.88077 0.70184 0.0
H482 H 0.8693 0.9118 0.82224 0.0
H483 H 0.92076 0.87818 0.84671 0.0
H484 H 0.97391 0.84863 0.81953 0.0
H485 H 0.97531 0.85159 0.76778 0.0
C486 C 0.95073 0.86372 0.71607 0.0
C487 C 0.92057 0.88395 0.73294 0.0
C488 C 0.92137 0.88362 0.76331 0.0
C489 C 0.89207 0.90277 0.77907 0.0
C490 C 0.89197 0.89958 0.80928 0.0
C491 C 0.92116 0.88006 0.82359 0.0
C492 C 0.95097 0.86327 0.80829 0.0
C493 C 0.95125 0.86495 0.77852 0.0
H494 H 0.24761 0.92829 0.18394 0.0
C495 C 0.25362 0.951 0.19927 0.0
H496 H 0.24439 0.97204 0.24105 0.0
H497 H 0.09619 0.85368 0.22645 0.0
H498 H 0.07589 0.89446 0.18717 0.0
H499 H 0.11703 0.94752 0.17031 0.0
H500 H 0.17904 0.95949 0.19201 0.0
C501 C 0.238 0.94968 0.22553 0.0
C502 C 0.21302 0.91738 0.23495 0.0
C503 C 0.17633 0.91146 0.2223 0.0
C504 C 0.15199 0.88171 0.23266 0.0
C505 C 0.11568 0.87607 0.21956 0.0
C506 C 0.10359 0.89935 0.19707 0.0
C507 C 0.12684 0.92911 0.18749 0.0
C508 C 0.16264 0.93542 0.2 0.0
H509 H 0.12786 0.86564 0.30611 0.0
C510 C 0.11982 0.83958 0.29476 0.0
H511 H 0.12741 0.80644 0.25727 0.0
H512 H 0.28219 0.91976 0.26294 0.0
H513 H 0.30249 0.8784 0.30188 0.0
H514 H 0.25987 0.82724 0.32003 0.0
H515 H 0.19665 0.81721 0.29935 0.0
C516 C 0.13607 0.83163 0.2694 0.0
C517 C 0.16368 0.85905 0.25628 0.0
C518 C 0.20068 0.86425 0.26839 0.0
C519 C 0.22532 0.89355 0.25778 0.0
C520 C 0.26214 0.89814 0.2703 0.0
C521 C 0.27423 0.8745 0.2926 0.0
C522 C 0.25023 0.84572 0.30283 0.0
C523 C 0.21391 0.84043 0.2909 0.0
H524 H 0.1676 0.27007 0.72115 0.0
C525 C 0.14177 0.25518 0.7142 0.0
H526 H 0.11122 0.20288 0.7134 0.0
H527 H 0.24922 0.09007 0.73166 0.0
H528 H 0.22828 0.0736 0.68378 0.0
H529 H 0.17988 0.11301 0.65875 0.0
H530 H 0.15174 0.16879 0.68161 0.0
C531 C 0.13686 0.21788 0.72062 0.0
C532 C 0.16699 0.19516 0.73572 0.0
C533 C 0.18384 0.16311 0.72177 0.0
C534 C 0.21246 0.14095 0.73592 0.0
C535 C 0.22792 0.1084 0.72176 0.0
C536 C 0.2161 0.09853 0.69426 0.0
C537 C 0.1888 0.12067 0.6802 0.0
C538 C 0.1728 0.1526 0.69364 0.0
H539 H 0.21727 0.10909 0.81147 0.0
C540 C 0.24567 0.10671 0.8019 0.0
H541 H 0.2822 0.12412 0.7683 0.0
H542 H 0.13649 0.25089 0.77064 0.0
H543 H 0.15945 0.26907 0.81764 0.0
H544 H 0.21395 0.23502 0.83997 0.0
H545 H 0.24506 0.18189 0.8157 0.0
C546 C 0.25428 0.12733 0.77848 0.0
C547 C 0.22474 0.15125 0.76382 0.0
C548 C 0.2084 0.1837 0.77761 0.0
C549 C 0.17859 0.20489 0.76395 0.0
C550 C 0.16066 0.23515 0.77923 0.0
C551 C 0.17333 0.24568 0.80639 0.0
C552 C 0.20388 0.2264 0.81902 0.0
C553 C 0.22131 0.19575 0.80491 0.0
H554 H 0.96481 0.28497 0.25215 0.0
C555 C 0.96357 0.27375 0.27383 0.0
H556 H 0.93822 0.2331 0.3016 0.0
H557 H 0.79392 0.20734 0.2206 0.0
H558 H 0.76599 0.25261 0.2542 0.0
H559 H 0.80654 0.28579 0.28978 0.0
H560 H 0.87536 0.27421 0.29175 0.0
C561 C 0.94036 0.24406 0.27989 0.0
C562 C 0.91641 0.22549 0.25749 0.0
C563 C 0.87623 0.2321 0.25694 0.0
C564 C 0.85274 0.21228 0.23689 0.0
C565 C 0.81288 0.22056 0.23608 0.0
C566 C 0.79654 0.24673 0.25508 0.0
C567 C 0.81938 0.26547 0.27507 0.0
C568 C 0.8588 0.25847 0.27603 0.0
H569 H 0.81718 0.13436 0.23543 0.0
C570 C 0.82049 0.13453 0.2123 0.0
H571 H 0.84892 0.15944 0.17702 0.0
H572 H 0.99274 0.20692 0.25242 0.0
H573 H 0.02077 0.16248 0.21842 0.0
H574 H 0.98002 0.12777 0.18382 0.0
H575 H 0.91104 0.13728 0.18304 0.0
C576 C 0.84457 0.15978 0.20004 0.0
C577 C 0.86937 0.18499 0.21803 0.0
C578 C 0.90983 0.17968 0.21772 0.0
C579 C 0.93337 0.19984 0.23758 0.0
C580 C 0.97353 0.1929 0.23753 0.0
C581 C 0.99002 0.16731 0.21819 0.0
C582 C 0.96707 0.14775 0.19873 0.0
C583 C 0.92745 0.15358 0.19849 0.0
loop_
_geom_bond_atom_site_label_1
_geom_bond_atom_site_label_2
_geom_bond_distance
_geom_bond_site_symmetry_2
_ccdc_geom_bond_type
In0 O1 2.294 . S
In0 O2 2.326 1_545 S
In0 O6 2.266 . S
In0 O7 2.326 . S
In0 O8 2.266 1_545 S
In0 O9 2.326 . S
In0 O11 2.294 . S
In0 O12 2.326 . S
O1 In0 2.294 . S
O1 C10 1.240 . S
O2 In0 2.326 1_565 S
O2 C10 1.252 1_565 S
C3 O6 1.252 . S
C3 O7 1.260 . S
C4 O11 1.240 . S
C4 O12 1.252 . S
C5 O8 1.252 . S
C5 O9 1.260 1_565 S
O6 In0 2.266 . S
O6 C3 1.252 . S
O7 In0 2.326 . S
O7 C3 1.260 . S
O8 In0 2.266 1_565 S
O8 C5 1.252 . S
O9 In0 2.326 . S
O9 C5 1.260 1_545 S
C10 O1 1.240 . S
C10 O2 1.252 1_545 S
O11 In0 2.294 . S
O11 C4 1.240 . S
O12 In0 2.326 . S
O12 C4 1.252 . S
In13 O14 2.294 . S
In13 O15 2.326 . S
In13 O19 2.266 . S
In13 O20 2.326 . S
In13 O21 2.266 . S
In13 O22 2.326 . S
In13 O24 2.294 . S
In13 O25 2.326 . S
O14 In13 2.294 . S
O14 C23 1.240 . S
O15 In13 2.326 . S
O15 C23 1.252 . S
C16 O19 1.252 . S
C16 O20 1.260 . S
C17 O24 1.240 . S
C17 O25 1.252 . S
C18 O21 1.252 . S
C18 O22 1.260 . S
O19 In13 2.266 . S
O19 C16 1.252 . S
O20 In13 2.326 . S
O20 C16 1.260 . S
O21 In13 2.266 . S
O21 C18 1.252 . S
O22 In13 2.326 . S
O22 C18 1.260 . S
C23 O14 1.240 . S
C23 O15 1.252 . S
O24 In13 2.294 . S
O24 C17 1.240 . S
O25 In13 2.326 . S
O25 C17 1.252 . S
In26 O27 2.294 . S
In26 O28 2.326 . S
In26 O32 2.266 . S
In26 O33 2.326 . S
In26 O34 2.266 . S
In26 O35 2.326 . S
In26 O37 2.294 . S
In26 O38 2.326 . S
O27 In26 2.294 . S
O27 C36 1.240 . S
O28 In26 2.326 . S
O28 C36 1.252 . S
C29 O32 1.252 . S
C29 O33 1.260 . S
C30 O37 1.240 . S
C30 O38 1.252 . S
C31 O34 1.252 . S
C31 O35 1.260 . S
O32 In26 2.266 . S
O32 C29 1.252 . S
O33 In26 2.326 . S
O33 C29 1.260 . S
O34 In26 2.266 . S
O34 C31 1.252 . S
O35 In26 2.326 . S
O35 C31 1.260 . S
C36 O27 1.240 . S
C36 O28 1.252 . S
O37 In26 2.294 . S
O37 C30 1.240 . S
O38 In26 2.326 . S
O38 C30 1.252 . S
In39 O40 2.294 . S
In39 O41 2.326 . S
In39 O45 2.266 1_455 S
In39 O46 2.326 . S
In39 O47 2.266 . S
In39 O48 2.326 . S
In39 O50 2.294 . S
In39 O51 2.326 1_455 S
O40 In39 2.294 . S
O40 C49 1.240 . S
O41 In39 2.326 . S
O41 C49 1.252 . S
C42 O45 1.252 . S
C42 O46 1.260 1_655 S
C43 O50 1.240 . S
C43 O51 1.252 1_455 S
C44 O47 1.252 . S
C44 O48 1.260 . S
O45 In39 2.266 1_655 S
O45 C42 1.252 . S
O46 In39 2.326 . S
O46 C42 1.260 1_455 S
O47 In39 2.266 . S
O47 C44 1.252 . S
O48 In39 2.326 . S
O48 C44 1.260 . S
C49 O40 1.240 . S
C49 O41 1.252 . S
O50 In39 2.294 . S
O50 C43 1.240 . S
O51 In39 2.326 1_655 S
O51 C43 1.252 1_655 S
In52 O53 2.294 . S
In52 O54 2.326 . S
In52 O58 2.266 . S
In52 O59 2.326 . S
In52 O60 2.266 . S
In52 O61 2.326 . S
In52 O63 2.294 . S
In52 O64 2.326 . S
O53 In52 2.294 . S
O53 C62 1.240 . S
O54 In52 2.326 . S
O54 C62 1.252 . S
C55 O58 1.252 . S
C55 O59 1.260 . S
C56 O63 1.240 . S
C56 O64 1.252 . S
C57 O60 1.252 . S
C57 O61 1.260 . S
O58 In52 2.266 . S
O58 C55 1.252 . S
O59 In52 2.326 . S
O59 C55 1.260 . S
O60 In52 2.266 . S
O60 C57 1.252 . S
O61 In52 2.326 . S
O61 C57 1.260 . S
C62 O53 1.240 . S
C62 O54 1.252 . S
O63 In52 2.294 . S
O63 C56 1.240 . S
O64 In52 2.326 . S
O64 C56 1.252 . S
In65 O66 2.294 . S
In65 O67 2.326 1_455 S
In65 O71 2.266 . S
In65 O72 2.326 . S
In65 O73 2.266 1_455 S
In65 O74 2.326 . S
In65 O76 2.294 . S
In65 O77 2.326 . S
O66 In65 2.294 . S
O66 C75 1.240 . S
O67 In65 2.326 1_655 S
O67 C75 1.252 1_655 S
C68 O71 1.252 . S
C68 O72 1.260 . S
C69 O76 1.240 . S
C69 O77 1.252 . S
C70 O73 1.252 . S
C70 O74 1.260 1_655 S
O71 In65 2.266 . S
O71 C68 1.252 . S
O72 In65 2.326 . S
O72 C68 1.260 . S
O73 In65 2.266 1_655 S
O73 C70 1.252 . S
O74 In65 2.326 . S
O74 C70 1.260 1_455 S
C75 O66 1.240 . S
C75 O67 1.252 1_455 S
O76 In65 2.294 . S
O76 C69 1.240 . S
O77 In65 2.326 . S
O77 C69 1.252 . S
In78 O79 2.294 . S
In78 O80 2.326 . S
In78 O84 2.266 1_545 S
In78 O85 2.326 . S
In78 O86 2.266 . S
In78 O87 2.326 . S
In78 O89 2.294 . S
In78 O90 2.326 1_545 S
O79 In78 2.294 . S
O79 C88 1.240 . S
O80 In78 2.326 . S
O80 C88 1.252 . S
C81 O84 1.252 . S
C81 O85 1.260 1_565 S
C82 O89 1.240 . S
C82 O90 1.252 1_545 S
C83 O86 1.252 . S
C83 O87 1.260 . S
O84 In78 2.266 1_565 S
O84 C81 1.252 . S
O85 In78 2.326 . S
O85 C81 1.260 1_545 S
O86 In78 2.266 . S
O86 C83 1.252 . S
O87 In78 2.326 . S
O87 C83 1.260 . S
C88 O79 1.240 . S
C88 O80 1.252 . S
O89 In78 2.294 . S
O89 C82 1.240 . S
O90 In78 2.326 1_565 S
O90 C82 1.252 1_565 S
In91 O92 2.294 . S
In91 O93 2.326 . S
In91 O97 2.266 . S
In91 O98 2.326 . S
In91 O99 2.266 . S
In91 O100 2.326 . S
In91 O102 2.294 . S
In91 O103 2.326 . S
O92 In91 2.294 . S
O92 C101 1.240 . S
O93 In91 2.326 . S
O93 C101 1.252 . S
C94 O97 1.252 . S
C94 O98 1.260 . S
C95 O102 1.240 . S
C95 O103 1.252 . S
C96 O99 1.252 . S
C96 O100 1.260 . S
O97 In91 2.266 . S
O97 C94 1.252 . S
O98 In91 2.326 . S
O98 C94 1.260 . S
O99 In91 2.266 . S
O99 C96 1.252 . S
O100 In91 2.326 . S
O100 C96 1.260 . S
C101 O92 1.240 . S
C101 O93 1.252 . S
O102 In91 2.294 . S
O102 C95 1.240 . S
O103 In91 2.326 . S
O103 C95 1.252 . S
H104 C105 0.951 . S
C105 H104 0.951 . S
C105 C111 1.265 . S
H106 C111 0.950 . S
H107 C115 0.949 . S
H108 C116 0.950 . S
H109 C117 0.951 . S
H110 C118 0.951 . S
C111 C105 1.265 . S
C111 H106 0.950 . S
C111 C112 1.478 . S
C112 C111 1.478 . S
C112 C113 1.397 . S
C112 C129 1.394 . S
C113 C112 1.397 . S
C113 C114 1.438 1_554 S
C113 C118 1.429 1_545 S
C114 C113 1.438 1_556 S
C114 C115 1.428 1_545 S
C114 C127 1.394 . S
C115 H107 0.949 . S
C115 C114 1.428 1_565 S
C115 C116 1.345 . S
C116 H108 0.950 . S
C116 C115 1.345 . S
C116 C117 1.424 1_556 S
C117 H109 0.951 . S
C117 C116 1.424 1_554 S
C117 C118 1.347 . S
C118 H110 0.951 . S
C118 C113 1.429 1_565 S
C118 C117 1.347 . S
H119 C120 0.951 . S
C120 H119 0.951 . S
C120 C126 1.265 . S
H121 C126 0.950 . S
H122 C130 0.949 . S
H123 C131 0.950 . S
H124 C132 0.951 . S
H125 C133 0.951 . S
C126 C120 1.265 . S
C126 H121 0.950 . S
C126 C127 1.478 . S
C127 C114 1.394 . S
C127 C126 1.478 . S
C127 C128 1.397 . S
C128 C127 1.397 . S
C128 C129 1.438 1_556 S
C128 C133 1.429 . S
C129 C112 1.394 . S
C129 C128 1.438 1_554 S
C129 C130 1.428 . S
C130 H122 0.949 . S
C130 C129 1.428 . S
C130 C131 1.345 . S
C131 H123 0.950 . S
C131 C130 1.345 . S
C131 C132 1.424 1_554 S
C132 H124 0.951 . S
C132 C131 1.424 1_556 S
C132 C133 1.347 . S
C133 H125 0.951 . S
C133 C128 1.429 . S
C133 C132 1.347 . S
H134 C135 0.951 . S
C135 H134 0.951 . S
C135 C141 1.265 . S
H136 C141 0.950 1_655 S
H137 C145 0.949 . S
H138 C146 0.950 . S
H139 C147 0.951 . S
H140 C148 0.951 . S
C141 C135 1.265 . S
C141 H136 0.950 1_455 S
C141 C142 1.478 . S
C142 C141 1.478 . S
C142 C143 1.397 . S
C142 C159 1.394 . S
C143 C142 1.397 . S
C143 C144 1.438 . S
C143 C148 1.429 . S
C144 C143 1.438 . S
C144 C145 1.428 . S
C144 C157 1.394 . S
C145 H137 0.949 . S
C145 C144 1.428 . S
C145 C146 1.345 . S
C146 H138 0.950 . S
C146 C145 1.345 . S
C146 C147 1.424 . S
C147 H139 0.951 . S
C147 C146 1.424 . S
C147 C148 1.347 . S
C148 H140 0.951 . S
C148 C143 1.429 . S
C148 C147 1.347 . S
H149 C150 0.951 . S
C150 H149 0.951 . S
C150 C156 1.265 . S
H151 C156 0.950 . S
H152 C160 0.949 . S
H153 C161 0.950 . S
H154 C162 0.951 . S
H155 C163 0.951 . S
C156 C150 1.265 . S
C156 H151 0.950 . S
C156 C157 1.478 . S
C157 C144 1.394 . S
C157 C156 1.478 . S
C157 C158 1.397 . S
C158 C157 1.397 . S
C158 C159 1.438 . S
C158 C163 1.429 . S
C159 C142 1.394 . S
C159 C158 1.438 . S
C159 C160 1.428 . S
C160 H152 0.949 . S
C160 C159 1.428 . S
C160 C161 1.345 . S
C161 H153 0.950 . S
C161 C160 1.345 . S
C161 C162 1.424 . S
C162 H154 0.951 . S
C162 C161 1.424 . S
C162 C163 1.347 . S
C163 H155 0.951 . S
C163 C158 1.429 . S
C163 C162 1.347 . S
H164 C165 0.951 . S
C165 H164 0.951 . S
C165 C171 1.265 . S
H166 C171 0.950 . S
H167 C175 0.949 . S
H168 C176 0.950 . S
H169 C177 0.951 . S
H170 C178 0.951 . S
C171 C165 1.265 . S
C171 H166 0.950 . S
C171 C172 1.478 . S
C172 C171 1.478 . S
C172 C173 1.397 . S
C172 C189 1.394 . S
C173 C172 1.397 . S
C173 C174 1.438 1_556 S
C173 C178 1.429 . S
C174 C173 1.438 1_554 S
C174 C175 1.428 . S
C174 C187 1.394 . S
C175 H167 0.949 . S
C175 C174 1.428 . S
C175 C176 1.345 . S
C176 H168 0.950 . S
C176 C175 1.345 . S
C176 C177 1.424 1_554 S
C177 H169 0.951 . S
C177 C176 1.424 1_556 S
C177 C178 1.347 . S
C178 H170 0.951 . S
C178 C173 1.429 . S
C178 C177 1.347 . S
H179 C180 0.951 . S
C180 H179 0.951 . S
C180 C186 1.265 . S
H181 C186 0.950 . S
H182 C190 0.949 . S
H183 C191 0.950 . S
H184 C192 0.951 . S
H185 C193 0.951 . S
C186 C180 1.265 . S
C186 H181 0.950 . S
C186 C187 1.478 . S
C187 C174 1.394 . S
C187 C186 1.478 . S
C187 C188 1.397 . S
C188 C187 1.397 . S
C188 C189 1.438 1_554 S
C188 C193 1.429 1_545 S
C189 C172 1.394 . S
C189 C188 1.438 1_556 S
C189 C190 1.428 1_545 S
C190 H182 0.949 . S
C190 C189 1.428 1_565 S
C190 C191 1.345 . S
C191 H183 0.950 . S
C191 C190 1.345 . S
C191 C192 1.424 1_556 S
C192 H184 0.951 . S
C192 C191 1.424 1_554 S
C192 C193 1.347 . S
C193 H185 0.951 . S
C193 C188 1.429 1_565 S
C193 C192 1.347 . S
H194 C195 0.951 . S
C195 H194 0.951 . S
C195 C201 1.265 . S
H196 C201 0.950 1_655 S
H197 C205 0.949 . S
H198 C206 0.950 1_655 S
H199 C207 0.951 . S
H200 C208 0.951 1_655 S
C201 C195 1.265 . S
C201 H196 0.950 1_455 S
C201 C202 1.478 . S
C202 C201 1.478 . S
C202 C203 1.397 . S
C202 C219 1.394 . S
C203 C202 1.397 . S
C203 C204 1.438 . S
C203 C208 1.429 . S
C204 C203 1.438 . S
C204 C205 1.428 . S
C204 C217 1.394 . S
C205 H197 0.949 . S
C205 C204 1.428 . S
C205 C206 1.345 . S
C206 H198 0.950 1_455 S
C206 C205 1.345 . S
C206 C207 1.424 1_455 S
C207 H199 0.951 . S
C207 C206 1.424 1_655 S
C207 C208 1.347 1_655 S
C208 H200 0.951 1_455 S
C208 C203 1.429 . S
C208 C207 1.347 1_455 S
H209 C210 0.951 . S
C210 H209 0.951 . S
C210 C216 1.265 . S
H211 C216 0.950 . S
H212 C220 0.949 . S
H213 C221 0.950 . S
H214 C222 0.951 . S
H215 C223 0.951 . S
C216 C210 1.265 . S
C216 H211 0.950 . S
C216 C217 1.478 . S
C217 C204 1.394 . S
C217 C216 1.478 . S
C217 C218 1.397 . S
C218 C217 1.397 . S
C218 C219 1.438 . S
C218 C223 1.429 . S
C219 C202 1.394 . S
C219 C218 1.438 . S
C219 C220 1.428 . S
C220 H212 0.949 . S
C220 C219 1.428 . S
C220 C221 1.345 . S
C221 H213 0.950 . S
C221 C220 1.345 . S
C221 C222 1.424 . S
C222 H214 0.951 . S
C222 C221 1.424 . S
C222 C223 1.347 . S
C223 H215 0.951 . S
C223 C218 1.429 . S
C223 C222 1.347 . S
H224 C225 0.951 1_565 S
C225 H224 0.951 1_545 S
C225 C231 1.265 . S
H226 C231 0.950 . S
H227 C235 0.949 . S
H228 C236 0.950 . S
H229 C237 0.951 . S
H230 C238 0.951 . S
C231 C225 1.265 . S
C231 H226 0.950 . S
C231 C232 1.478 . S
C232 C231 1.478 . S
C232 C233 1.397 . S
C232 C249 1.394 . S
C233 C232 1.397 . S
C233 C234 1.438 . S
C233 C238 1.429 . S
C234 C233 1.438 . S
C234 C235 1.428 . S
C234 C247 1.394 . S
C235 H227 0.949 . S
C235 C234 1.428 . S
C235 C236 1.345 . S
C236 H228 0.950 . S
C236 C235 1.345 . S
C236 C237 1.424 . S
C237 H229 0.951 . S
C237 C236 1.424 . S
C237 C238 1.347 . S
C238 H230 0.951 . S
C238 C233 1.429 . S
C238 C237 1.347 . S
H239 C240 0.951 . S
C240 H239 0.951 . S
C240 C246 1.265 . S
H241 C246 0.950 . S
H242 C250 0.949 . S
H243 C251 0.950 . S
H244 C252 0.951 . S
H245 C253 0.951 . S
C246 C240 1.265 . S
C246 H241 0.950 . S
C246 C247 1.478 . S
C247 C234 1.394 . S
C247 C246 1.478 . S
C247 C248 1.397 . S
C248 C247 1.397 . S
C248 C249 1.438 . S
C248 C253 1.429 . S
C249 C232 1.394 . S
C249 C248 1.438 . S
C249 C250 1.428 . S
C250 H242 0.949 . S
C250 C249 1.428 . S
C250 C251 1.345 1_545 S
C251 H243 0.950 . S
C251 C250 1.345 1_565 S
C251 C252 1.424 . S
C252 H244 0.951 . S
C252 C251 1.424 . S
C252 C253 1.347 1_565 S
C253 H245 0.951 . S
C253 C248 1.429 . S
C253 C252 1.347 1_545 S
H254 C255 0.951 . S
C255 H254 0.951 . S
C255 C261 1.265 . S
H256 C261 0.950 . S
H257 C265 0.949 . S
H258 C266 0.950 . S
H259 C267 0.951 . S
H260 C268 0.951 . S
C261 C255 1.265 . S
C261 H256 0.950 . S
C261 C262 1.478 . S
C262 C261 1.478 . S
C262 C263 1.397 . S
C262 C279 1.394 . S
C263 C262 1.397 . S
C263 C264 1.438 . S
C263 C268 1.429 . S
C264 C263 1.438 . S
C264 C265 1.428 . S
C264 C277 1.394 . S
C265 H257 0.949 . S
C265 C264 1.428 . S
C265 C266 1.345 . S
C266 H258 0.950 . S
C266 C265 1.345 . S
C266 C267 1.424 . S
C267 H259 0.951 . S
C267 C266 1.424 . S
C267 C268 1.347 . S
C268 H260 0.951 . S
C268 C263 1.429 . S
C268 C267 1.347 . S
H269 C270 0.951 1_655 S
C270 H269 0.951 1_455 S
C270 C276 1.265 . S
H271 C276 0.950 . S
H272 C280 0.949 . S
H273 C281 0.950 . S
H274 C282 0.951 . S
H275 C283 0.951 . S
C276 C270 1.265 . S
C276 H271 0.950 . S
C276 C277 1.478 . S
C277 C264 1.394 . S
C277 C276 1.478 . S
C277 C278 1.397 . S
C278 C277 1.397 . S
C278 C279 1.438 . S
C278 C283 1.429 . S
C279 C262 1.394 . S
C279 C278 1.438 . S
C279 C280 1.428 . S
C280 H272 0.949 . S
C280 C279 1.428 . S
C280 C281 1.345 . S
C281 H273 0.950 . S
C281 C280 1.345 . S
C281 C282 1.424 . S
C282 H274 0.951 . S
C282 C281 1.424 . S
C282 C283 1.347 . S
C283 H275 0.951 . S
C283 C278 1.429 . S
C283 C282 1.347 . S
H284 C285 0.951 1_565 S
C285 H284 0.951 1_545 S
C285 C291 1.265 . S
H286 C291 0.950 . S
H287 C295 0.949 . S
H288 C296 0.950 . S
H289 C297 0.951 . S
H290 C298 0.951 . S
C291 C285 1.265 . S
C291 H286 0.950 . S
C291 C292 1.478 . S
C292 C291 1.478 . S
C292 C293 1.397 . S
C292 C309 1.394 . S
C293 C292 1.397 . S
C293 C294 1.438 . S
C293 C298 1.429 . S
C294 C293 1.438 . S
C294 C295 1.428 . S
C294 C307 1.394 . S
C295 H287 0.949 . S
C295 C294 1.428 . S
C295 C296 1.345 . S
C296 H288 0.950 . S
C296 C295 1.345 . S
C296 C297 1.424 . S
C297 H289 0.951 . S
C297 C296 1.424 . S
C297 C298 1.347 . S
C298 H290 0.951 . S
C298 C293 1.429 . S
C298 C297 1.347 . S
H299 C300 0.951 . S
C300 H299 0.951 . S
C300 C306 1.265 . S
H301 C306 0.950 . S
H302 C310 0.949 . S
H303 C311 0.950 . S
H304 C312 0.951 . S
H305 C313 0.951 . S
C306 C300 1.265 . S
C306 H301 0.950 . S
C306 C307 1.478 . S
C307 C294 1.394 . S
C307 C306 1.478 . S
C307 C308 1.397 . S
C308 C307 1.397 . S
C308 C309 1.438 . S
C308 C313 1.429 . S
C309 C292 1.394 . S
C309 C308 1.438 . S
C309 C310 1.428 . S
C310 H302 0.949 . S
C310 C309 1.428 . S
C310 C311 1.345 1_545 S
C311 H303 0.950 . S
C311 C310 1.345 1_565 S
C311 C312 1.424 . S
C312 H304 0.951 . S
C312 C311 1.424 . S
C312 C313 1.347 1_565 S
C313 H305 0.951 . S
C313 C308 1.429 . S
C313 C312 1.347 1_545 S
H314 C315 0.951 1_655 S
C315 H314 0.951 1_455 S
C315 C321 1.265 . S
H316 C321 0.950 . S
H317 C325 0.949 . S
H318 C326 0.950 . S
H319 C327 0.951 . S
H320 C328 0.951 . S
C321 C315 1.265 . S
C321 H316 0.950 . S
C321 C322 1.478 . S
C322 C321 1.478 . S
C322 C323 1.397 . S
C322 C339 1.394 . S
C323 C322 1.397 . S
C323 C324 1.438 . S
C323 C328 1.429 . S
C324 C323 1.438 . S
C324 C325 1.428 . S
C324 C337 1.394 . S
C325 H317 0.949 . S
C325 C324 1.428 . S
C325 C326 1.345 . S
C326 H318 0.950 . S
C326 C325 1.345 . S
C326 C327 1.424 . S
C327 H319 0.951 . S
C327 C326 1.424 . S
C327 C328 1.347 . S
C328 H320 0.951 . S
C328 C323 1.429 . S
C328 C327 1.347 . S
H329 C330 0.951 . S
C330 H329 0.951 . S
C330 C336 1.265 . S
H331 C336 0.950 . S
H332 C340 0.949 . S
H333 C341 0.950 1_655 S
H334 C342 0.951 1_655 S
H335 C343 0.951 . S
C336 C330 1.265 . S
C336 H331 0.950 . S
C336 C337 1.478 . S
C337 C324 1.394 . S
C337 C336 1.478 . S
C337 C338 1.397 . S
C338 C337 1.397 . S
C338 C339 1.438 . S
C338 C343 1.429 . S
C339 C322 1.394 . S
C339 C338 1.438 . S
C339 C340 1.428 . S
C340 H332 0.949 . S
C340 C339 1.428 . S
C340 C341 1.345 . S
C341 H333 0.950 1_455 S
C341 C340 1.345 . S
C341 C342 1.424 . S
C342 H334 0.951 1_455 S
C342 C341 1.424 . S
C342 C343 1.347 . S
C343 H335 0.951 . S
C343 C338 1.429 . S
C343 C342 1.347 . S
H344 C345 0.951 . S
C345 H344 0.951 . S
C345 C351 1.265 . S
H346 C351 0.950 . S
H347 C355 0.949 . S
H348 C356 0.950 . S
H349 C357 0.951 . S
H350 C358 0.951 . S
C351 C345 1.265 . S
C351 H346 0.950 . S
C351 C352 1.478 . S
C352 C351 1.478 . S
C352 C353 1.397 . S
C352 C369 1.394 . S
C353 C352 1.397 . S
C353 C354 1.438 . S
C353 C358 1.429 . S
C354 C353 1.438 . S
C354 C355 1.428 . S
C354 C367 1.394 . S
C355 H347 0.949 . S
C355 C354 1.428 . S
C355 C356 1.345 . S
C356 H348 0.950 . S
C356 C355 1.345 . S
C356 C357 1.424 . S
C357 H349 0.951 . S
C357 C356 1.424 . S
C357 C358 1.347 . S
C358 H350 0.951 . S
C358 C353 1.429 . S
C358 C357 1.347 . S
H359 C360 0.951 . S
C360 H359 0.951 . S
C360 C366 1.265 . S
H361 C366 0.950 . S
H362 C370 0.949 . S
H363 C371 0.950 . S
H364 C372 0.951 . S
H365 C373 0.951 . S
C366 C360 1.265 . S
C366 H361 0.950 . S
C366 C367 1.478 . S
C367 C354 1.394 . S
C367 C366 1.478 . S
C367 C368 1.397 . S
C368 C367 1.397 . S
C368 C369 1.438 . S
C368 C373 1.429 . S
C369 C352 1.394 . S
C369 C368 1.438 . S
C369 C370 1.428 . S
C370 H362 0.949 . S
C370 C369 1.428 . S
C370 C371 1.345 . S
C371 H363 0.950 . S
C371 C370 1.345 . S
C371 C372 1.424 . S
C372 H364 0.951 . S
C372 C371 1.424 . S
C372 C373 1.347 . S
C373 H365 0.951 . S
C373 C368 1.429 . S
C373 C372 1.347 . S
H374 C375 0.951 . S
C375 H374 0.951 . S
C375 C381 1.265 . S
H376 C381 0.950 . S
H377 C385 0.949 . S
H378 C386 0.950 . S
H379 C387 0.951 . S
H380 C388 0.951 . S
C381 C375 1.265 . S
C381 H376 0.950 . S
C381 C382 1.478 . S
C382 C381 1.478 . S
C382 C383 1.397 . S
C382 C399 1.394 . S
C383 C382 1.397 . S
C383 C384 1.438 . S
C383 C388 1.429 . S
C384 C383 1.438 . S
C384 C385 1.428 . S
C384 C397 1.394 . S
C385 H377 0.949 . S
C385 C384 1.428 . S
C385 C386 1.345 . S
C386 H378 0.950 . S
C386 C385 1.345 . S
C386 C387 1.424 . S
C387 H379 0.951 . S
C387 C386 1.424 . S
C387 C388 1.347 . S
C388 H380 0.951 . S
C388 C383 1.429 . S
C388 C387 1.347 . S
H389 C390 0.951 . S
C390 H389 0.951 . S
C390 C396 1.265 . S
H391 C396 0.950 . S
H392 C400 0.949 . S
H393 C401 0.950 . S
H394 C402 0.951 . S
H395 C403 0.951 . S
C396 C390 1.265 . S
C396 H391 0.950 . S
C396 C397 1.478 . S
C397 C384 1.394 . S
C397 C396 1.478 . S
C397 C398 1.397 . S
C398 C397 1.397 . S
C398 C399 1.438 . S
C398 C403 1.429 . S
C399 C382 1.394 . S
C399 C398 1.438 . S
C399 C400 1.428 . S
C400 H392 0.949 . S
C400 C399 1.428 . S
C400 C401 1.345 . S
C401 H393 0.950 . S
C401 C400 1.345 . S
C401 C402 1.424 . S
C402 H394 0.951 . S
C402 C401 1.424 . S
C402 C403 1.347 . S
C403 H395 0.951 . S
C403 C398 1.429 . S
C403 C402 1.347 . S
H404 C405 0.951 . S
C405 H404 0.951 . S
C405 C411 1.265 . S
H406 C411 0.950 . S
H407 C415 0.949 . S
H408 C416 0.950 . S
H409 C417 0.951 . S
H410 C418 0.951 . S
C411 C405 1.265 . S
C411 H406 0.950 . S
C411 C412 1.478 . S
C412 C411 1.478 . S
C412 C413 1.397 . S
C412 C429 1.394 . S
C413 C412 1.397 . S
C413 C414 1.438 . S
C413 C418 1.429 . S
C414 C413 1.438 . S
C414 C415 1.428 . S
C414 C427 1.394 . S
C415 H407 0.949 . S
C415 C414 1.428 . S
C415 C416 1.345 . S
C416 H408 0.950 . S
C416 C415 1.345 . S
C416 C417 1.424 . S
C417 H409 0.951 . S
C417 C416 1.424 . S
C417 C418 1.347 . S
C418 H410 0.951 . S
C418 C413 1.429 . S
C418 C417 1.347 . S
H419 C420 0.951 . S
C420 H419 0.951 . S
C420 C426 1.265 . S
H421 C426 0.950 . S
H422 C430 0.949 1_455 S
H423 C431 0.950 . S
H424 C432 0.976 . S
H425 C433 0.951 . S
C426 C420 1.265 . S
C426 H421 0.950 . S
C426 C427 1.478 . S
C427 C414 1.394 . S
C427 C426 1.478 . S
C427 C428 1.397 . S
C428 C427 1.397 . S
C428 C429 1.438 . S
C428 C433 1.429 . S
C429 C412 1.394 . S
C429 C428 1.438 . S
C429 C430 1.428 . S
C430 H422 0.949 1_655 S
C430 C429 1.428 . S
C430 C431 1.345 1_655 S
C431 H423 0.950 . S
C431 C430 1.345 1_455 S
C431 C432 1.424 1_455 S
C432 H424 0.976 . S
C432 C431 1.424 1_655 S
C432 C433 1.347 . S
C433 H425 0.951 . S
C433 C428 1.429 . S
C433 C432 1.347 . S
H434 C435 0.951 . S
C435 H434 0.951 . S
C435 C441 1.265 . S
H436 C441 0.950 . S
H437 C445 0.949 . S
H438 C446 0.950 . S
H439 C447 0.951 . S
H440 C448 0.951 . S
C441 C435 1.265 . S
C441 H436 0.950 . S
C441 C442 1.478 . S
C442 C441 1.478 . S
C442 C443 1.397 . S
C442 C459 1.394 . S
C443 C442 1.397 . S
C443 C444 1.438 . S
C443 C448 1.429 . S
C444 C443 1.438 . S
C444 C445 1.428 . S
C444 C457 1.394 . S
C445 H437 0.949 . S
C445 C444 1.428 . S
C445 C446 1.345 . S
C446 H438 0.950 . S
C446 C445 1.345 . S
C446 C447 1.424 . S
C447 H439 0.951 . S
C447 C446 1.424 . S
C447 C448 1.347 . S
C448 H440 0.951 . S
C448 C443 1.429 . S
C448 C447 1.347 . S
H449 C450 0.951 . S
C450 H449 0.951 . S
C450 C456 1.265 . S
H451 C456 0.950 . S
H452 C460 0.949 . S
H453 C461 0.950 . S
H454 C462 0.951 1_545 S
H455 C463 0.951 1_545 S
C456 C450 1.265 . S
C456 H451 0.950 . S
C456 C457 1.478 . S
C457 C444 1.394 . S
C457 C456 1.478 . S
C457 C458 1.397 . S
C458 C457 1.397 . S
C458 C459 1.438 . S
C458 C463 1.429 . S
C459 C442 1.394 . S
C459 C458 1.438 . S
C459 C460 1.428 . S
C460 H452 0.949 . S
C460 C459 1.428 . S
C460 C461 1.345 . S
C461 H453 0.950 . S
C461 C460 1.345 . S
C461 C462 1.424 . S
C462 H454 0.951 1_565 S
C462 C461 1.424 . S
C462 C463 1.347 . S
C463 H455 0.951 1_565 S
C463 C458 1.429 . S
C463 C462 1.347 . S
H464 C465 0.951 . S
C465 H464 0.951 . S
C465 C471 1.265 . S
H466 C471 0.950 . S
H467 C475 0.949 . S
H468 C476 0.950 . S
H469 C477 0.951 . S
H470 C478 0.951 . S
C471 C465 1.265 . S
C471 H466 0.950 . S
C471 C472 1.478 . S
C472 C471 1.478 . S
C472 C473 1.397 . S
C472 C489 1.394 . S
C473 C472 1.397 . S
C473 C474 1.438 . S
C473 C478 1.429 . S
C474 C473 1.438 . S
C474 C475 1.428 . S
C474 C487 1.394 . S
C475 H467 0.949 . S
C475 C474 1.428 . S
C475 C476 1.345 . S
C476 H468 0.950 . S
C476 C475 1.345 . S
C476 C477 1.424 . S
C477 H469 0.951 . S
C477 C476 1.424 . S
C477 C478 1.347 . S
C478 H470 0.951 . S
C478 C473 1.429 . S
C478 C477 1.347 . S
H479 C480 0.951 . S
C480 H479 0.951 . S
C480 C486 1.265 . S
H481 C486 0.950 . S
H482 C490 0.949 . S
H483 C491 0.950 . S
H484 C492 0.951 . S
H485 C493 0.951 . S
C486 C480 1.265 . S
C486 H481 0.950 . S
C486 C487 1.478 . S
C487 C474 1.394 . S
C487 C486 1.478 . S
C487 C488 1.397 . S
C488 C487 1.397 . S
C488 C489 1.438 . S
C488 C493 1.429 . S
C489 C472 1.394 . S
C489 C488 1.438 . S
C489 C490 1.428 . S
C490 H482 0.949 . S
C490 C489 1.428 . S
C490 C491 1.345 . S
C491 H483 0.950 . S
C491 C490 1.345 . S
C491 C492 1.424 . S
C492 H484 0.951 . S
C492 C491 1.424 . S
C492 C493 1.347 . S
C493 H485 0.951 . S
C493 C488 1.429 . S
C493 C492 1.347 . S
H494 C495 0.951 . S
C495 H494 0.951 . S
C495 C501 1.265 . S
H496 C501 0.950 . S
H497 C505 0.949 . S
H498 C506 0.950 . S
H499 C507 0.951 . S
H500 C508 0.951 . S
C501 C495 1.265 . S
C501 H496 0.950 . S
C501 C502 1.478 . S
C502 C501 1.478 . S
C502 C503 1.397 . S
C502 C519 1.394 . S
C503 C502 1.397 . S
C503 C504 1.438 . S
C503 C508 1.429 . S
C504 C503 1.438 . S
C504 C505 1.428 . S
C504 C517 1.394 . S
C505 H497 0.949 . S
C505 C504 1.428 . S
C505 C506 1.345 . S
C506 H498 0.950 . S
C506 C505 1.345 . S
C506 C507 1.424 . S
C507 H499 0.951 . S
C507 C506 1.424 . S
C507 C508 1.347 . S
C508 H500 0.951 . S
C508 C503 1.429 . S
C508 C507 1.347 . S
H509 C510 0.951 . S
C510 H509 0.951 . S
C510 C516 1.265 . S
H511 C516 0.950 . S
H512 C520 0.949 . S
H513 C521 0.950 . S
H514 C522 0.951 . S
H515 C523 0.951 . S
C516 C510 1.265 . S
C516 H511 0.950 . S
C516 C517 1.478 . S
C517 C504 1.394 . S
C517 C516 1.478 . S
C517 C518 1.397 . S
C518 C517 1.397 . S
C518 C519 1.438 . S
C518 C523 1.429 . S
C519 C502 1.394 . S
C519 C518 1.438 . S
C519 C520 1.428 . S
C520 H512 0.949 . S
C520 C519 1.428 . S
C520 C521 1.345 . S
C521 H513 0.950 . S
C521 C520 1.345 . S
C521 C522 1.424 . S
C522 H514 0.951 . S
C522 C521 1.424 . S
C522 C523 1.347 . S
C523 H515 0.951 . S
C523 C518 1.429 . S
C523 C522 1.347 . S
H524 C525 0.951 . S
C525 H524 0.951 . S
C525 C531 1.265 . S
H526 C531 0.950 . S
H527 C535 0.949 . S
H528 C536 0.950 . S
H529 C537 0.951 . S
H530 C538 0.951 . S
C531 C525 1.265 . S
C531 H526 0.950 . S
C531 C532 1.478 . S
C532 C531 1.478 . S
C532 C533 1.397 . S
C532 C549 1.394 . S
C533 C532 1.397 . S
C533 C534 1.438 . S
C533 C538 1.429 . S
C534 C533 1.438 . S
C534 C535 1.428 . S
C534 C547 1.394 . S
C535 H527 0.949 . S
C535 C534 1.428 . S
C535 C536 1.345 . S
C536 H528 0.950 . S
C536 C535 1.345 . S
C536 C537 1.424 . S
C537 H529 0.951 . S
C537 C536 1.424 . S
C537 C538 1.347 . S
C538 H530 0.951 . S
C538 C533 1.429 . S
C538 C537 1.347 . S
H539 C540 0.951 . S
C540 H539 0.951 . S
C540 C546 1.265 . S
H541 C546 0.950 . S
H542 C550 0.949 . S
H543 C551 0.950 . S
H544 C552 0.951 . S
H545 C553 0.951 . S
C546 C540 1.265 . S
C546 H541 0.950 . S
C546 C547 1.478 . S
C547 C534 1.394 . S
C547 C546 1.478 . S
C547 C548 1.397 . S
C548 C547 1.397 . S
C548 C549 1.438 . S
C548 C553 1.429 . S
C549 C532 1.394 . S
C549 C548 1.438 . S
C549 C550 1.428 . S
C550 H542 0.949 . S
C550 C549 1.428 . S
C550 C551 1.345 . S
C551 H543 0.950 . S
C551 C550 1.345 . S
C551 C552 1.424 . S
C552 H544 0.951 . S
C552 C551 1.424 . S
C552 C553 1.347 . S
C553 H545 0.951 . S
C553 C548 1.429 . S
C553 C552 1.347 . S
H554 C555 0.951 . S
C555 H554 0.951 . S
C555 C561 1.265 . S
H556 C561 0.950 . S
H557 C565 0.949 . S
H558 C566 0.950 . S
H559 C567 0.951 . S
H560 C568 0.951 . S
C561 C555 1.265 . S
C561 H556 0.950 . S
C561 C562 1.478 . S
C562 C561 1.478 . S
C562 C563 1.397 . S
C562 C579 1.394 . S
C563 C562 1.397 . S
C563 C564 1.438 . S
C563 C568 1.429 . S
C564 C563 1.438 . S
C564 C565 1.428 . S
C564 C577 1.394 . S
C565 H557 0.949 . S
C565 C564 1.428 . S
C565 C566 1.345 . S
C566 H558 0.950 . S
C566 C565 1.345 . S
C566 C567 1.424 . S
C567 H559 0.951 . S
C567 C566 1.424 . S
C567 C568 1.347 . S
C568 H560 0.951 . S
C568 C563 1.429 . S
C568 C567 1.347 . S
H569 C570 0.951 . S
C570 H569 0.951 . S
C570 C576 1.265 . S
H571 C576 0.950 . S
H572 C580 0.949 . S
H573 C581 0.950 . S
H574 C582 0.951 . S
H575 C583 0.951 . S
C576 C570 1.265 . S
C576 H571 0.950 . S
C576 C577 1.478 . S
C577 C564 1.394 . S
C577 C576 1.478 . S
C577 C578 1.397 . S
C578 C577 1.397 . S
C578 C579 1.438 . S
C578 C583 1.429 . S
C579 C562 1.394 . S
C579 C578 1.438 . S
C579 C580 1.428 . S
C580 H572 0.949 . S
C580 C579 1.428 . S
C580 C581 1.345 . S
C581 H573 0.950 . S
C581 C580 1.345 . S
C581 C582 1.424 . S
C582 H574 0.951 . S
C582 C581 1.424 . S
C582 C583 1.347 . S
C583 H575 0.951 . S
C583 C578 1.429 . S
C583 C582 1.347 . S
C105 C4 1.611 . S
C120 C62 1.612 . S
C135 C17 1.591 . S
C150 C69 1.591 . S
C165 C88 1.606 . S
C180 C30 1.604 . S
C195 C101 1.591 . S
C210 C49 1.591 . S
C225 C10 1.426 . S
C240 C36 1.425 . S
C255 C23 1.420 . S
C270 C43 1.426 . S
C285 C82 1.426 . S
C300 C56 1.424 . S
C315 C75 1.425 . S
C330 C95 1.426 . S
C345 C68 1.653 . S
C360 C3 1.649 . S
C375 C16 1.628 1_655 S
C390 C83 1.628 . S
C405 C96 1.648 1_655 S
C420 C29 1.652 1_565 S
C435 C44 1.652 . S
C450 C57 1.654 1_565 S
C465 C81 1.155 . S
C480 C42 1.204 . S
C495 C5 1.205 . S
C510 C94 1.156 . S
C525 C18 1.203 . S
C540 C55 1.155 . S
C555 C70 1.214 . S
C570 C31 1.188 . S
