# Generated by pormake.
# Topology gis, (4)-cn, num edge types: 1
# Building blocks:
#     Node 0, Type 0, BuildingBlock: CEKHIL_clean_sbu_0, # of connection points: 4
#     Node 1, Type 0, BuildingBlock: CEKHIL_clean_sbu_0, # of connection points: 4
#     Node 2, Type 0, BuildingBlock: CEKHIL_clean_sbu_0, # of connection points: 4
#     Node 3, Type 0, BuildingBlock: CEKHIL_clean_sbu_0, # of connection points: 4
#     Node 4, Type 0, BuildingBlock: CEKHIL_clean_sbu_0, # of connection points: 4
#     Node 5, Type 0, BuildingBlock: CEKHIL_clean_sbu_0, # of connection points: 4
#     Node 6, Type 0, BuildingBlock: CEKHIL_clean_sbu_0, # of connection points: 4
#     Node 7, Type 0, BuildingBlock: CEKHIL_clean_sbu_0, # of connection points: 4
#     Node 8, Type 0, BuildingBlock: CEKHIL_clean_sbu_0, # of connection points: 4
#     Node 9, Type 0, BuildingBlock: CEKHIL_clean_sbu_0, # of connection points: 4
#     Node 10, Type 0, BuildingBlock: CEKHIL_clean_sbu_0, # of connection points: 4
#     Node 11, Type 0, BuildingBlock: CEKHIL_clean_sbu_0, # of connection points: 4
#     Node 12, Type 0, BuildingBlock: CEKHIL_clean_sbu_0, # of connection points: 4
#     Node 13, Type 0, BuildingBlock: CEKHIL_clean_sbu_0, # of connection points: 4
#     Node 14, Type 0, BuildingBlock: CEKHIL_clean_sbu_0, # of connection points: 4
#     Node 15, Type 0, BuildingBlock: CEKHIL_clean_sbu_0, # of connection points: 4
#     Edge 16, Type (0, 0), BuildingBlock: XUDNAN_clean_linker_2, # of connection points: 2
#     Edge 17, Type (0, 0), BuildingBlock: XUDNAN_clean_linker_2, # of connection points: 2
#     Edge 18, Type (0, 0), BuildingBlock: XUDNAN_clean_linker_2, # of connection points: 2
#     Edge 19, Type (0, 0), BuildingBlock: XUDNAN_clean_linker_2, # of connection points: 2
#     Edge 20, Type (0, 0), BuildingBlock: XUDNAN_clean_linker_2, # of connection points: 2
#     Edge 21, Type (0, 0), BuildingBlock: XUDNAN_clean_linker_2, # of connection points: 2
#     Edge 22, Type (0, 0), BuildingBlock: XUDNAN_clean_linker_2, # of connection points: 2
#     Edge 23, Type (0, 0), BuildingBlock: XUDNAN_clean_linker_2, # of connection points: 2
#     Edge 24, Type (0, 0), BuildingBlock: XUDNAN_clean_linker_2, # of connection points: 2
#     Edge 25, Type (0, 0), BuildingBlock: XUDNAN_clean_linker_2, # of connection points: 2
#     Edge 26, Type (0, 0), BuildingBlock: XUDNAN_clean_linker_2, # of connection points: 2
#     Edge 27, Type (0, 0), BuildingBlock: XUDNAN_clean_linker_2, # of connection points: 2
#     Edge 28, Type (0, 0), BuildingBlock: XUDNAN_clean_linker_2, # of connection points: 2
#     Edge 29, Type (0, 0), BuildingBlock: XUDNAN_clean_linker_2, # of connection points: 2
#     Edge 30, Type (0, 0), BuildingBlock: XUDNAN_clean_linker_2, # of connection points: 2
#     Edge 31, Type (0, 0), BuildingBlock: XUDNAN_clean_linker_2, # of connection points: 2
#     Edge 32, Type (0, 0), BuildingBlock: XUDNAN_clean_linker_2, # of connection points: 2
#     Edge 33, Type (0, 0), BuildingBlock: XUDNAN_clean_linker_2, # of connection points: 2
#     Edge 34, Type (0, 0), BuildingBlock: XUDNAN_clean_linker_2, # of connection points: 2
#     Edge 35, Type (0, 0), BuildingBlock: XUDNAN_clean_linker_2, # of connection points: 2
#     Edge 36, Type (0, 0), BuildingBlock: XUDNAN_clean_linker_2, # of connection points: 2
#     Edge 37, Type (0, 0), BuildingBlock: XUDNAN_clean_linker_2, # of connection points: 2
#     Edge 38, Type (0, 0), BuildingBlock: XUDNAN_clean_linker_2, # of connection points: 2
#     Edge 39, Type (0, 0), BuildingBlock: XUDNAN_clean_linker_2, # of connection points: 2
#     Edge 40, Type (0, 0), BuildingBlock: XUDNAN_clean_linker_2, # of connection points: 2
#     Edge 41, Type (0, 0), BuildingBlock: XUDNAN_clean_linker_2, # of connection points: 2
#     Edge 42, Type (0, 0), BuildingBlock: XUDNAN_clean_linker_2, # of connection points: 2
#     Edge 43, Type (0, 0), BuildingBlock: XUDNAN_clean_linker_2, # of connection points: 2
#     Edge 44, Type (0, 0), BuildingBlock: XUDNAN_clean_linker_2, # of connection points: 2
#     Edge 45, Type (0, 0), BuildingBlock: XUDNAN_clean_linker_2, # of connection points: 2
#     Edge 46, Type (0, 0), BuildingBlock: XUDNAN_clean_linker_2, # of connection points: 2
#     Edge 47, Type (0, 0), BuildingBlock: XUDNAN_clean_linker_2, # of connection points: 2
# Relax obj value: 0.063
# Max RMSD: 0.132
# Mean RMSD: 0.126
data_MOF--net-gis--node1-CEKHIL_clean_sbu_0--edge1-XUDNAN_clean_linker_2
_symmetry_space_group_name_H-M    P1
_symmetry_Int_Tables_number       1
_symmetry_cell_setting            triclinic
loop_
_symmetry_equiv_pos_as_xyz
'x, y, z'
_cell_length_a     54.526419
_cell_length_b     51.164636
_cell_length_c     35.097924
_cell_angle_alpha  90.429653
_cell_angle_beta   90.450484
_cell_angle_gamma 89.99506
loop_
_atom_site_label
_atom_site_type_symbol
_atom_site_fract_x
_atom_site_fract_y
_atom_site_fract_z
_atom_type_partial_charge
Co0 Co 0.14441 0.60018 0.13546 0.0
O1 O 0.17932 0.60192 0.13034 0.0
O2 O 0.15976 0.6083 0.18456 0.0
C3 C 0.13967 0.56273 0.10208 0.0
O4 O 0.10814 0.59921 0.15048 0.0
Co5 Co 0.11284 0.60375 0.06133 0.0
O6 O 0.08576 0.59501 0.09633 0.0
C7 C 0.13519 0.65139 0.09384 0.0
C8 C 0.18051 0.60726 0.1664 0.0
C9 C 0.08761 0.59589 0.13254 0.0
O10 O 0.14186 0.6385 0.12347 0.0
O11 O 0.12528 0.64065 0.06445 0.0
O12 O 0.1456 0.56215 0.13799 0.0
O13 O 0.13918 0.58562 0.08695 0.0
Co14 Co 0.64482 0.88935 0.38728 0.0
O15 O 0.67957 0.89002 0.39572 0.0
O16 O 0.66194 0.89276 0.33898 0.0
C17 C 0.63591 0.91796 0.43421 0.0
O18 O 0.60903 0.89022 0.36875 0.0
Co19 Co 0.61174 0.86764 0.45062 0.0
O20 O 0.5853 0.88412 0.42008 0.0
C21 C 0.63987 0.83093 0.40355 0.0
C22 C 0.68208 0.89216 0.35924 0.0
C23 C 0.58789 0.89002 0.38512 0.0
O24 O 0.64608 0.8502 0.38242 0.0
O25 O 0.6273 0.83378 0.43395 0.0
O26 O 0.64248 0.92617 0.40086 0.0
O27 O 0.63704 0.89294 0.43903 0.0
Co28 Co 0.36468 0.40344 0.64347 0.0
O29 O 0.3299 0.40035 0.63613 0.0
O30 O 0.34795 0.40463 0.69241 0.0
C31 C 0.36992 0.43306 0.59673 0.0
O32 O 0.4005 0.40805 0.66104 0.0
Co33 Co 0.39949 0.38769 0.57688 0.0
O34 O 0.42466 0.40486 0.6092 0.0
C35 C 0.37543 0.34686 0.62274 0.0
C36 C 0.32769 0.4021 0.67276 0.0
C37 C 0.4215 0.40976 0.64444 0.0
O38 O 0.36743 0.36414 0.6464 0.0
O39 O 0.38681 0.35262 0.59214 0.0
O40 O 0.3631 0.44067 0.63044 0.0
O41 O 0.37146 0.40813 0.59194 0.0
Co42 Co 0.85847 0.10607 0.8867 0.0
O43 O 0.82364 0.10476 0.8935 0.0
O44 O 0.84188 0.10349 0.83748 0.0
C45 C 0.86768 0.07712 0.93288 0.0
O46 O 0.89442 0.10645 0.86973 0.0
Co47 Co 0.89021 0.12707 0.9548 0.0
O48 O 0.9177 0.11832 0.92051 0.0
C49 C 0.86011 0.16332 0.90985 0.0
C50 C 0.82153 0.10373 0.85675 0.0
C51 C 0.91537 0.11118 0.88577 0.0
O52 O 0.85665 0.14539 0.88448 0.0
O53 O 0.87082 0.15908 0.94179 0.0
O54 O 0.86135 0.06881 0.89909 0.0
O55 O 0.866 0.10197 0.93808 0.0
Co56 Co 0.14823 0.38845 0.87183 0.0
O57 O 0.18289 0.39291 0.86316 0.0
O58 O 0.15472 0.38895 0.81775 0.0
C59 C 0.14465 0.41964 0.91725 0.0
O60 O 0.11079 0.38481 0.86978 0.0
Co61 Co 0.12962 0.37077 0.9514 0.0
O62 O 0.09689 0.37842 0.92922 0.0
C63 C 0.15666 0.33432 0.90222 0.0
C64 C 0.17771 0.39197 0.82703 0.0
C65 C 0.09315 0.38239 0.89381 0.0
O66 O 0.15296 0.3492 0.87329 0.0
O67 O 0.15132 0.34097 0.93637 0.0
O68 O 0.14443 0.42618 0.88149 0.0
O69 O 0.14931 0.39544 0.92385 0.0
Co70 Co 0.86381 0.90809 0.16629 0.0
O71 O 0.82894 0.90818 0.17469 0.0
O72 O 0.85709 0.90244 0.21965 0.0
C73 C 0.86495 0.94386 0.12961 0.0
O74 O 0.90139 0.90801 0.16834 0.0
Co75 Co 0.8841 0.90034 0.0845 0.0
O76 O 0.91436 0.91476 0.10844 0.0
C77 C 0.86449 0.85515 0.12601 0.0
C78 C 0.83398 0.90414 0.21034 0.0
C79 C 0.91826 0.9137 0.14424 0.0
O80 O 0.86273 0.86933 0.15627 0.0
O81 O 0.87103 0.86428 0.09376 0.0
O82 O 0.8645 0.94617 0.1665 0.0
O83 O 0.86212 0.92044 0.1163 0.0
Co84 Co 0.3605 0.60584 0.36753 0.0
O85 O 0.32565 0.60721 0.35837 0.0
O86 O 0.35391 0.61184 0.31402 0.0
C87 C 0.36062 0.56988 0.40392 0.0
O88 O 0.39803 0.60423 0.36635 0.0
Co89 Co 0.38062 0.61334 0.44975 0.0
O90 O 0.41047 0.59772 0.42685 0.0
C91 C 0.36372 0.65923 0.40717 0.0
C92 C 0.33077 0.61099 0.32281 0.0
C93 C 0.41461 0.59812 0.39114 0.0
O94 O 0.36108 0.64464 0.37743 0.0
O95 O 0.36974 0.65024 0.43989 0.0
O96 O 0.3598 0.56784 0.36701 0.0
O97 O 0.35842 0.59332 0.41751 0.0
Co98 Co 0.64426 0.10034 0.64968 0.0
O99 O 0.67868 0.09981 0.66163 0.0
O100 O 0.64951 0.10933 0.70294 0.0
C101 C 0.64305 0.06191 0.61798 0.0
O102 O 0.60675 0.10165 0.6469 0.0
Co103 Co 0.62916 0.1031 0.564 0.0
O104 O 0.59597 0.09755 0.58491 0.0
C105 C 0.64568 0.15097 0.60347 0.0
C106 C 0.67278 0.10603 0.6962 0.0
C107 C 0.59053 0.09931 0.62012 0.0
O108 O 0.64643 0.13847 0.63517 0.0
O109 O 0.6412 0.13984 0.57137 0.0
O110 O 0.64235 0.06247 0.65493 0.0
O111 O 0.64747 0.08406 0.60199 0.0
Co112 Co 0.86052 0.40346 0.84849 0.0
O113 O 0.82635 0.40802 0.83716 0.0
O114 O 0.85415 0.39608 0.79488 0.0
C115 C 0.86522 0.44046 0.88272 0.0
O116 O 0.89777 0.39775 0.85102 0.0
Co117 Co 0.87516 0.39647 0.93386 0.0
O118 O 0.90873 0.39918 0.91313 0.0
C119 C 0.85293 0.35254 0.89181 0.0
C120 C 0.83126 0.40122 0.80245 0.0
C121 C 0.91413 0.39762 0.87786 0.0
O122 O 0.85436 0.36568 0.86085 0.0
O123 O 0.85843 0.36209 0.9246 0.0
O124 O 0.86613 0.44111 0.84575 0.0
O125 O 0.85883 0.41836 0.89703 0.0
Co126 Co 0.35661 0.09953 0.61778 0.0
O127 O 0.32175 0.09904 0.62648 0.0
O128 O 0.35028 0.09571 0.67146 0.0
C129 C 0.35647 0.07152 0.56771 0.0
O130 O 0.39414 0.09858 0.61967 0.0
Co131 Co 0.37707 0.12002 0.54066 0.0
O132 O 0.40878 0.10756 0.56141 0.0
C133 C 0.36124 0.15752 0.60014 0.0
C134 C 0.32711 0.0965 0.66235 0.0
C135 C 0.41201 0.10126 0.59617 0.0
O136 O 0.35702 0.13888 0.62362 0.0
O137 O 0.36759 0.15378 0.56548 0.0
O138 O 0.35605 0.06257 0.60226 0.0
O139 O 0.35454 0.09652 0.5648 0.0
Co140 Co 0.64043 0.59072 0.3424 0.0
O141 O 0.63912 0.55358 0.34824 0.0
O142 O 0.63896 0.58212 0.39607 0.0
C143 C 0.67089 0.59156 0.29949 0.0
O144 O 0.64232 0.6305 0.3465 0.0
Co145 Co 0.62571 0.61435 0.26504 0.0
O146 O 0.6431 0.64531 0.28632 0.0
C147 C 0.58691 0.59543 0.3148 0.0
C148 C 0.63786 0.55787 0.38463 0.0
C149 C 0.64593 0.64874 0.32208 0.0
O150 O 0.60355 0.59149 0.34021 0.0
O151 O 0.59174 0.60364 0.28132 0.0
O152 O 0.67578 0.58967 0.33566 0.0
O153 O 0.64785 0.58991 0.29023 0.0
Co154 Co 0.13789 0.89725 0.12952 0.0
O155 O 0.13966 0.93351 0.11445 0.0
O156 O 0.12551 0.90087 0.07867 0.0
C157 C 0.17586 0.89387 0.1546 0.0
O158 O 0.13416 0.85794 0.13179 0.0
Co159 Co 0.13886 0.87802 0.21125 0.0
O160 O 0.14457 0.84269 0.18915 0.0
C161 C 0.09351 0.90141 0.18219 0.0
C162 C 0.13023 0.92561 0.08215 0.0
C163 C 0.13936 0.83898 0.15414 0.0
O164 O 0.10401 0.90333 0.14977 0.0
O165 O 0.10431 0.89237 0.21177 0.0
O166 O 0.17209 0.89229 0.11807 0.0
O167 O 0.15687 0.89987 0.17512 0.0
Co168 Co 0.85971 0.60743 0.12173 0.0
O169 O 0.82492 0.60731 0.11367 0.0
O170 O 0.8427 0.60485 0.17031 0.0
C171 C 0.86812 0.57828 0.07512 0.0
O172 O 0.89564 0.6062 0.13963 0.0
Co173 Co 0.89223 0.62743 0.05504 0.0
O174 O 0.91929 0.61672 0.08938 0.0
C175 C 0.86409 0.66488 0.10119 0.0
C176 C 0.8225 0.60552 0.1502 0.0
C177 C 0.91672 0.60963 0.12388 0.0
O178 O 0.85929 0.64682 0.12535 0.0
O179 O 0.8748 0.66044 0.06947 0.0
O180 O 0.86141 0.57021 0.10848 0.0
O181 O 0.8672 0.60319 0.07036 0.0
Co182 Co 0.1432 0.09627 0.85362 0.0
O183 O 0.17771 0.09063 0.85694 0.0
O184 O 0.15807 0.09932 0.80325 0.0
C185 C 0.13305 0.06176 0.88967 0.0
O186 O 0.10678 0.1021 0.8414 0.0
Co187 Co 0.11757 0.10962 0.93035 0.0
O188 O 0.0877 0.10702 0.89801 0.0
C189 C 0.14924 0.14821 0.89435 0.0
C190 C 0.17878 0.09438 0.82064 0.0
C191 C 0.08731 0.10501 0.86175 0.0
O192 O 0.14853 0.13477 0.8633 0.0
O193 O 0.14052 0.14011 0.92586 0.0
O194 O 0.13717 0.05864 0.85351 0.0
O195 O 0.13762 0.08478 0.90312 0.0
Co196 Co 0.63803 0.39777 0.63309 0.0
O197 O 0.63913 0.43402 0.61769 0.0
O198 O 0.62536 0.40106 0.58224 0.0
C199 C 0.67633 0.39577 0.65737 0.0
O200 O 0.63535 0.35818 0.63602 0.0
Co201 Co 0.64071 0.37926 0.71537 0.0
O202 O 0.64712 0.34404 0.6935 0.0
C203 C 0.59434 0.40121 0.68727 0.0
C204 C 0.63005 0.42587 0.58533 0.0
C205 C 0.6416 0.33971 0.65875 0.0
O206 O 0.60407 0.40316 0.65421 0.0
O207 O 0.60598 0.39282 0.71651 0.0
O208 O 0.67233 0.39366 0.62096 0.0
O209 O 0.65732 0.40126 0.67808 0.0
Co210 Co 0.36691 0.90135 0.33068 0.0
O211 O 0.36838 0.93887 0.33245 0.0
O212 O 0.3715 0.91308 0.3827 0.0
C213 C 0.33363 0.89828 0.29216 0.0
O214 O 0.36525 0.86229 0.34055 0.0
Co215 Co 0.37466 0.87097 0.25536 0.0
O216 O 0.36348 0.84032 0.28498 0.0
C217 C 0.41753 0.89359 0.29508 0.0
C218 C 0.37095 0.93665 0.3691 0.0
C219 C 0.36257 0.84099 0.32125 0.0
O220 O 0.40364 0.89954 0.32337 0.0
O221 O 0.40918 0.8839 0.26382 0.0
O222 O 0.33115 0.90252 0.32845 0.0
O223 O 0.35595 0.89857 0.27986 0.0
H224 H 0.147 0.7923 0.19151 0.0
H225 H 0.13136 0.82488 0.07988 0.0
H226 H 0.13097 0.78067 0.05209 0.0
H227 H 0.18679 0.73981 0.15856 0.0
H228 H 0.17546 0.71661 0.19257 0.0
H229 H 0.17549 0.75101 0.20397 0.0
H230 H 0.12886 0.74912 0.21744 0.0
H231 H 0.12872 0.71472 0.20627 0.0
H232 H 0.1083 0.73649 0.18128 0.0
H233 H 0.13069 0.73326 0.03637 0.0
H234 H 0.12972 0.68512 0.03412 0.0
H235 H 0.14586 0.68293 0.15552 0.0
C236 C 0.1436 0.79016 0.16121 0.0
C237 C 0.13919 0.81216 0.13798 0.0
C238 C 0.13474 0.80842 0.09842 0.0
C239 C 0.13456 0.78336 0.08224 0.0
C240 C 0.13893 0.76216 0.10588 0.0
C241 C 0.14334 0.76522 0.14449 0.0
C242 C 0.14673 0.73899 0.16358 0.0
C243 C 0.17267 0.73646 0.18067 0.0
C244 C 0.12697 0.73458 0.19393 0.0
C245 C 0.14321 0.7208 0.12971 0.0
C246 C 0.13886 0.73461 0.0967 0.0
C247 C 0.13422 0.72218 0.06196 0.0
C248 C 0.13368 0.69481 0.061 0.0
C249 C 0.13777 0.68018 0.09459 0.0
C250 C 0.14291 0.69348 0.12924 0.0
H251 H 0.44351 0.90327 0.36104 0.0
H252 H 0.45284 0.89037 0.23962 0.0
H253 H 0.49783 0.89235 0.24824 0.0
H254 H 0.49617 0.94738 0.37542 0.0
H255 H 0.50363 0.93351 0.42112 0.0
H256 H 0.47226 0.93396 0.40459 0.0
H257 H 0.46953 0.88381 0.4135 0.0
H258 H 0.50083 0.88319 0.43001 0.0
H259 H 0.49154 0.86292 0.39024 0.0
H260 H 0.54232 0.89272 0.27125 0.0
H261 H 0.58159 0.88948 0.30695 0.0
H262 H 0.54241 0.90139 0.41284 0.0
C263 C 0.45493 0.90136 0.33607 0.0
C264 C 0.44452 0.8968 0.2996 0.0
C265 C 0.46029 0.89393 0.26787 0.0
C266 C 0.48591 0.89512 0.27245 0.0
C267 C 0.49555 0.89921 0.30892 0.0
C268 C 0.48048 0.9023 0.34015 0.0
C269 C 0.49528 0.90453 0.37669 0.0
C270 C 0.49162 0.93145 0.39556 0.0
C271 C 0.48892 0.88228 0.40421 0.0
C272 C 0.521 0.90161 0.3613 0.0
C273 C 0.52091 0.89895 0.32212 0.0
C274 C 0.54259 0.89501 0.30192 0.0
C275 C 0.56484 0.89326 0.32242 0.0
C276 C 0.56516 0.89512 0.36271 0.0
C277 C 0.5429 0.89985 0.38206 0.0
H278 H 0.39902 0.30584 0.58997 0.0
H279 H 0.34266 0.32434 0.67251 0.0
H280 H 0.33436 0.27698 0.68018 0.0
H281 H 0.36801 0.25643 0.5428 0.0
H282 H 0.39476 0.23649 0.53477 0.0
H283 H 0.39789 0.27132 0.53958 0.0
H284 H 0.42926 0.26517 0.59475 0.0
H285 H 0.42635 0.23022 0.58996 0.0
H286 H 0.42097 0.2458 0.63536 0.0
H287 H 0.33075 0.22665 0.67464 0.0
H288 H 0.33189 0.17972 0.65556 0.0
H289 H 0.38991 0.1968 0.57575 0.0
C290 C 0.38506 0.30007 0.61002 0.0
C291 C 0.37142 0.3188 0.63052 0.0
C292 C 0.35343 0.31029 0.6566 0.0
C293 C 0.34859 0.28345 0.66112 0.0
C294 C 0.36211 0.26552 0.63967 0.0
C295 C 0.38011 0.27364 0.61486 0.0
C296 C 0.39133 0.25104 0.59343 0.0
C297 C 0.38776 0.25401 0.5501 0.0
C298 C 0.41859 0.24787 0.60402 0.0
C299 C 0.37623 0.22889 0.6088 0.0
C300 C 0.35975 0.23731 0.63599 0.0
C301 C 0.34368 0.21992 0.65349 0.0
C302 C 0.34441 0.19337 0.64253 0.0
C303 C 0.36074 0.18482 0.61385 0.0
C304 C 0.37695 0.20285 0.59734 0.0
H305 H 0.05434 0.14322 0.87168 0.0
H306 H 0.06469 0.06863 0.81544 0.0
H307 H 0.01979 0.06558 0.80362 0.0
H308 H 0.00671 0.12638 0.9229 0.0
H309 H 0.9902 0.15686 0.92079 0.0
H310 H 0.02281 0.15661 0.9149 0.0
H311 H 0.0183 0.17953 0.84964 0.0
H312 H 0.98548 0.18026 0.85554 0.0
H313 H 0.99851 0.16559 0.81347 0.0
H314 H 0.97291 0.0668 0.81101 0.0
H315 H 0.93063 0.07243 0.83596 0.0
H316 H 0.95227 0.14595 0.88788 0.0
C317 C 0.04721 0.12692 0.8551 0.0
C318 C 0.06283 0.10644 0.84374 0.0
C319 C 0.05299 0.08487 0.82336 0.0
C320 C 0.0275 0.08296 0.81677 0.0
C321 C 0.01231 0.10298 0.83027 0.0
C322 C 0.02201 0.12484 0.84838 0.0
C323 C 1.00217 0.14194 0.8651 0.0
C324 C 0.00569 0.14562 0.90846 0.0
C325 C 1.00105 0.1684 0.84471 0.0
C326 C 0.97982 0.12558 0.8559 0.0
C327 C 0.98572 0.10348 0.83496 0.0
C328 C 0.96807 0.08437 0.82656 0.0
C329 C 0.9441 0.08769 0.84074 0.0
C330 C 0.9383 0.10967 0.86363 0.0
C331 C 0.95623 0.12907 0.87014 0.0
H332 H 0.1436 0.29842 0.84729 0.0
H333 H 0.18981 0.30993 0.94701 0.0
H334 H 0.19897 0.26284 0.94828 0.0
H335 H 0.11541 0.24455 0.87818 0.0
H336 H 0.11338 0.22693 0.83361 0.0
H337 H 0.11533 0.26197 0.8337 0.0
H338 H 0.15366 0.25986 0.7907 0.0
H339 H 0.15165 0.22467 0.78999 0.0
H340 H 0.17968 0.24045 0.80509 0.0
H341 H 0.19533 0.21521 0.9487 0.0
H342 H 0.18156 0.16928 0.94487 0.0
H343 H 0.13886 0.18693 0.84367 0.0
C344 C 0.15658 0.29107 0.86813 0.0
C345 C 0.16627 0.30768 0.8968 0.0
C346 C 0.18239 0.29743 0.92469 0.0
C347 C 0.18776 0.27074 0.92555 0.0
C348 C 0.17694 0.25455 0.89819 0.0
C349 C 0.16198 0.26427 0.86955 0.0
C350 C 0.15008 0.24219 0.84697 0.0
C351 C 0.12189 0.24403 0.84823 0.0
C352 C 0.15933 0.24177 0.80574 0.0
C353 C 0.15948 0.21875 0.86891 0.0
C354 C 0.17524 0.22637 0.89798 0.0
C355 C 0.18371 0.20883 0.92529 0.0
C356 C 0.1757 0.18287 0.9231 0.0
C357 C 0.15961 0.1747 0.89362 0.0
C358 C 0.15183 0.19268 0.86572 0.0
H359 H 0.94867 0.88356 0.18894 0.0
H360 H 0.94464 0.9564 0.12702 0.0
H361 H 0.98863 0.96415 0.13952 0.0
H362 H 0.99746 0.90448 0.26046 0.0
H363 H 0.01226 0.87299 0.25862 0.0
H364 H 0.97954 0.87543 0.25159 0.0
H365 H 0.9834 0.85114 0.18692 0.0
H366 H 0.01605 0.84874 0.19364 0.0
H367 H 0.00379 0.8638 0.15131 0.0
H368 H 0.03314 0.96095 0.14895 0.0
H369 H 0.07626 0.94707 0.1552 0.0
H370 H 0.05321 0.8762 0.21157 0.0
C371 C 0.95697 0.90157 0.17943 0.0
C372 C 0.94333 0.91969 0.15767 0.0
C373 C 0.95484 0.94253 0.14414 0.0
C374 C 0.97976 0.94711 0.1512 0.0
C375 C 0.993 0.92858 0.1717 0.0
C376 C 0.98209 0.90628 0.18583 0.0
C377 C 1.00125 0.88811 0.2029 0.0
C378 C 0.99739 0.88508 0.24596 0.0
C379 C 1.00111 0.86138 0.18246 0.0
C380 C 0.0246 0.90322 0.19479 0.0
C381 C 0.01926 0.92669 0.17726 0.0
C382 C 0.03758 0.94297 0.16349 0.0
C383 C 0.062 0.93491 0.16707 0.0
C384 C 0.06798 0.91087 0.18449 0.0
C385 C 0.04909 0.89506 0.19926 0.0
H386 H 0.35708 0.68635 0.34081 0.0
H387 H 0.36398 0.69705 0.46334 0.0
H388 H 0.3614 0.74486 0.45506 0.0
H389 H 0.39454 0.73898 0.3156 0.0
H390 H 0.3766 0.74802 0.2744 0.0
H391 H 0.3767 0.71468 0.2903 0.0
H392 H 0.32929 0.71556 0.29514 0.0
H393 H 0.32903 0.74894 0.27915 0.0
H394 H 0.31471 0.74053 0.32351 0.0
H395 H 0.36059 0.79165 0.43291 0.0
H396 H 0.36242 0.83356 0.39872 0.0
H397 H 0.35649 0.79179 0.29081 0.0
C398 C 0.35769 0.69864 0.36606 0.0
C399 C 0.36066 0.68785 0.40278 0.0
C400 C 0.36168 0.70479 0.43491 0.0
C401 C 0.36016 0.73199 0.43051 0.0
C402 C 0.35758 0.74193 0.39384 0.0
C403 C 0.35632 0.72575 0.36219 0.0
C404 C 0.35493 0.74131 0.32574 0.0
C405 C 0.37701 0.73539 0.30001 0.0
C406 C 0.33053 0.73628 0.30465 0.0
C407 C 0.35607 0.76882 0.34176 0.0
C408 C 0.35735 0.7688 0.38109 0.0
C409 C 0.3594 0.79191 0.40212 0.0
C410 C 0.36044 0.81563 0.3824 0.0
C411 C 0.3596 0.81607 0.342 0.0
C412 C 0.35708 0.79225 0.32165 0.0
H413 H 0.55505 0.12235 0.57856 0.0
H414 H 0.5664 0.07715 0.68107 0.0
H415 H 0.52115 0.07405 0.68922 0.0
H416 H 0.50055 0.15815 0.61201 0.0
H417 H 0.48701 0.15784 0.56501 0.0
H418 H 0.51988 0.15835 0.57059 0.0
H419 H 0.52301 0.11665 0.5284 0.0
H420 H 0.49021 0.11578 0.52309 0.0
H421 H 0.50626 0.08775 0.54157 0.0
H422 H 0.47349 0.07337 0.68164 0.0
H423 H 0.42991 0.07639 0.66067 0.0
H424 H 0.45236 0.12176 0.56303 0.0
C425 C 0.54806 0.11207 0.60307 0.0
C426 C 0.5641 0.09988 0.62911 0.0
C427 C 0.55432 0.08678 0.66096 0.0
C428 C 0.52869 0.08487 0.66567 0.0
C429 C 0.51332 0.09656 0.6386 0.0
C430 C 0.52284 0.11024 0.60827 0.0
C431 C 0.50298 0.12039 0.58216 0.0
C432 C 0.50258 0.15046 0.58248 0.0
C433 C 0.50579 0.10947 0.54142 0.0
C434 C 0.48067 0.10938 0.60138 0.0
C435 C 0.4867 0.09601 0.63422 0.0
C436 C 0.46867 0.08395 0.65608 0.0
C437 C 0.44399 0.0857 0.64394 0.0
C438 C 0.43771 0.09905 0.60998 0.0
C439 C 0.45645 0.11108 0.58884 0.0
H440 H 0.86227 0.20572 0.95758 0.0
H441 H 0.84123 0.18246 0.84261 0.0
H442 H 0.83224 0.22858 0.8274 0.0
H443 H 0.81715 0.2591 0.9685 0.0
H444 H 0.83865 0.27913 0.99486 0.0
H445 H 0.84036 0.24402 0.99786 0.0
H446 H 0.88585 0.24552 0.97692 0.0
H447 H 0.88429 0.28052 0.97383 0.0
H448 H 0.89367 0.2615 0.93304 0.0
H449 H 0.83028 0.27775 0.82282 0.0
H450 H 0.83541 0.32553 0.8293 0.0
H451 H 0.85725 0.31577 0.94761 0.0
C452 C 0.85536 0.21014 0.92935 0.0
C453 C 0.85249 0.19042 0.90129 0.0
C454 C 0.84353 0.19721 0.86465 0.0
C455 C 0.83831 0.22334 0.85576 0.0
C456 C 0.84187 0.24234 0.88394 0.0
C457 C 0.85002 0.23598 0.92008 0.0
C458 C 0.85416 0.26007 0.94447 0.0
C459 C 0.83652 0.26061 0.97842 0.0
C460 C 0.88108 0.262 0.95782 0.0
C461 C 0.84786 0.28109 0.91605 0.0
C462 C 0.84055 0.27054 0.88141 0.0
C463 C 0.8356 0.28623 0.84999 0.0
C464 C 0.83863 0.31335 0.85394 0.0
C465 C 0.84665 0.32446 0.88903 0.0
C466 C 0.85075 0.30802 0.92057 0.0
H467 H 0.6281 0.67581 0.38377 0.0
H468 H 0.67785 0.68164 0.28843 0.0
H469 H 0.68515 0.72811 0.30393 0.0
H470 H 0.59952 0.73525 0.36865 0.0
H471 H 0.59556 0.74393 0.4181 0.0
H472 H 0.59737 0.71008 0.40416 0.0
H473 H 0.63356 0.7031 0.45125 0.0
H474 H 0.63173 0.73695 0.46563 0.0
H475 H 0.66026 0.72375 0.44843 0.0
H476 H 0.6835 0.77434 0.32438 0.0
H477 H 0.673 0.81813 0.34852 0.0
H478 H 0.62327 0.78347 0.43007 0.0
C479 C 0.64113 0.68673 0.36706 0.0
C480 C 0.65268 0.67521 0.33522 0.0
C481 C 0.66897 0.6902 0.31306 0.0
C482 C 0.67329 0.71653 0.32172 0.0
C483 C 0.66107 0.72762 0.35254 0.0
C484 C 0.64537 0.71327 0.37501 0.0
C485 C 0.63264 0.7307 0.4039 0.0
C486 C 0.60462 0.72994 0.39834 0.0
C487 C 0.64 0.72317 0.44473 0.0
C488 C 0.6431 0.75712 0.39333 0.0
C489 C 0.65972 0.75476 0.364 0.0
C490 C 0.67077 0.77644 0.34771 0.0
C491 C 0.66455 0.80128 0.36153 0.0
C492 C 0.6473 0.80432 0.39126 0.0
C493 C 0.63672 0.78183 0.40764 0.0
H494 H 0.86887 0.70767 0.05569 0.0
H495 H 0.84692 0.68452 0.16926 0.0
H496 H 0.84148 0.73102 0.18688 0.0
H497 H 0.90427 0.76091 0.08324 0.0
H498 H 0.89576 0.78106 0.04336 0.0
H499 H 0.89522 0.74605 0.03856 0.0
H500 H 0.84959 0.74779 0.01734 0.0
H501 H 0.85002 0.78289 0.02184 0.0
H502 H 0.82754 0.76412 0.04721 0.0
H503 H 0.84226 0.78034 0.19355 0.0
H504 H 0.84829 0.82801 0.18835 0.0
H505 H 0.8697 0.81791 0.07018 0.0
C506 C 0.86255 0.71222 0.08414 0.0
C507 C 0.85837 0.69238 0.1111 0.0
C508 C 0.85019 0.69935 0.14804 0.0
C509 C 0.84703 0.72571 0.15832 0.0
C510 C 0.85191 0.74477 0.13122 0.0
C511 C 0.85929 0.73829 0.09479 0.0
C512 C 0.86469 0.76231 0.07151 0.0
C513 C 0.89158 0.76258 0.05843 0.0
C514 C 0.84689 0.7644 0.03747 0.0
C515 C 0.85986 0.78339 0.10083 0.0
C516 C 0.8523 0.77298 0.135 0.0
C517 C 0.84789 0.78872 0.16679 0.0
C518 C 0.85146 0.81578 0.16356 0.0
C519 C 0.85946 0.82679 0.12883 0.0
C520 C 0.86342 0.81025 0.09707 0.0
H521 H 0.64659 0.29363 0.69861 0.0
H522 H 0.63931 0.32442 0.58403 0.0
H523 H 0.64212 0.2798 0.55775 0.0
H524 H 0.68962 0.24182 0.67599 0.0
H525 H 0.67595 0.21871 0.70801 0.0
H526 H 0.67422 0.25323 0.71824 0.0
H527 H 0.62686 0.2502 0.72187 0.0
H528 H 0.62847 0.21568 0.71193 0.0
H529 H 0.60989 0.2365 0.6822 0.0
H530 H 0.64529 0.23217 0.54357 0.0
H531 H 0.64582 0.18409 0.54248 0.0
H532 H 0.65041 0.18358 0.66619 0.0
C533 C 0.64567 0.29101 0.66799 0.0
C534 C 0.64276 0.31263 0.64343 0.0
C535 C 0.64145 0.30826 0.60352 0.0
C536 C 0.64316 0.28296 0.58824 0.0
C537 C 0.64611 0.26216 0.61318 0.0
C538 C 0.64719 0.26582 0.6522 0.0
C539 C 0.64947 0.23989 0.67263 0.0
C540 C 0.67377 0.23833 0.69504 0.0
C541 C 0.62735 0.2353 0.69869 0.0
C542 C 0.64933 0.22114 0.63896 0.0
C543 C 0.64761 0.23446 0.60497 0.0
C544 C 0.64668 0.22149 0.57 0.0
C545 C 0.64703 0.19411 0.56972 0.0
C546 C 0.64816 0.17989 0.60423 0.0
C547 C 0.6497 0.19375 0.63926 0.0
H548 H 0.05229 0.36989 0.93398 0.0
H549 H 0.07502 0.39919 0.82406 0.0
H550 H 0.03129 0.4041 0.80512 0.0
H551 H 0.99897 0.33372 0.90015 0.0
H552 H 0.98158 0.3417 0.94211 0.0
H553 H 0.01447 0.33903 0.9451 0.0
H554 H 0.01696 0.38593 0.97351 0.0
H555 H 0.98413 0.38874 0.97058 0.0
H556 H 0.00324 0.41266 0.94782 0.0
H557 H 0.9836 0.40763 0.8004 0.0
H558 H 0.93859 0.41004 0.81125 0.0
H559 H 0.94956 0.37852 0.92448 0.0
C560 C 0.04826 0.37719 0.90574 0.0
C561 C 0.0672 0.3842 0.88058 0.0
C562 C 0.06086 0.39359 0.84386 0.0
C563 C 0.03606 0.39644 0.83287 0.0
C564 C 0.01785 0.38962 0.85878 0.0
C565 C 0.02384 0.38006 0.89441 0.0
C566 C 1.00132 0.37487 0.91789 0.0
C567 C 0.99895 0.34559 0.92682 0.0
C568 C 1.00143 0.39155 0.9546 0.0
C569 C 0.98158 0.3836 0.89046 0.0
C570 C 0.99119 0.39179 0.85625 0.0
C571 C 0.97598 0.40113 0.82708 0.0
C572 C 0.95045 0.40239 0.8334 0.0
C573 C 0.94055 0.39467 0.86879 0.0
C574 C 0.95647 0.38485 0.8972 0.0
H575 H 0.5438 0.61777 0.28781 0.0
H576 H 0.57215 0.56005 0.36686 0.0
H577 H 0.5304 0.5517 0.3896 0.0
H578 H 0.5007 0.64499 0.35068 0.0
H579 H 0.47708 0.65054 0.31544 0.0
H580 H 0.50878 0.65008 0.30158 0.0
H581 H 0.49927 0.6139 0.25163 0.0
H582 H 0.46747 0.61428 0.26533 0.0
H583 H 0.48458 0.58414 0.26646 0.0
H584 H 0.48719 0.55216 0.40842 0.0
H585 H 0.44403 0.56174 0.42298 0.0
H586 H 0.44187 0.61898 0.33239 0.0
C587 C 0.54108 0.603 0.3093 0.0
C588 C 0.56126 0.58951 0.32548 0.0
C589 C 0.55703 0.57071 0.35413 0.0
C590 C 0.53334 0.56569 0.36712 0.0
C591 C 0.51392 0.57961 0.35126 0.0
C592 C 0.51738 0.59786 0.32297 0.0
C593 C 0.49333 0.6114 0.31311 0.0
C594 C 0.49509 0.641 0.32067 0.0
C595 C 0.48572 0.60557 0.27166 0.0
C596 C 0.47609 0.59831 0.34096 0.0
C597 C 0.48846 0.57987 0.36233 0.0
C598 C 0.47718 0.56629 0.39158 0.0
C599 C 0.45269 0.57195 0.39973 0.0
C600 C 0.4396 0.59098 0.37871 0.0
C601 C 0.45133 0.604 0.34842 0.0
H602 H 0.55505 0.37059 0.7051 0.0
H603 H 0.5756 0.4495 0.67529 0.0
H604 H 0.53187 0.46248 0.67448 0.0
H605 H 0.50671 0.36692 0.64153 0.0
H606 H 0.48707 0.3472 0.67074 0.0
H607 H 0.51976 0.34564 0.67704 0.0
H608 H 0.51485 0.35741 0.74853 0.0
H609 H 0.48203 0.35922 0.74226 0.0
H610 H 0.49861 0.38673 0.76191 0.0
H611 H 0.48641 0.46549 0.66824 0.0
H612 H 0.44305 0.45723 0.65067 0.0
H613 H 0.45137 0.37607 0.68185 0.0
C614 C 0.55024 0.39078 0.69977 0.0
C615 C 0.56853 0.4093 0.69122 0.0
C616 C 0.56174 0.43526 0.68258 0.0
C617 C 0.53699 0.44279 0.68225 0.0
C618 C 0.51923 0.42402 0.6902 0.0
C619 C 0.52552 0.39846 0.69853 0.0
C620 C 0.5029 0.38125 0.70029 0.0
C621 C 0.50419 0.35896 0.67063 0.0
C622 C 0.49939 0.37052 0.74066 0.0
C623 C 0.48302 0.40087 0.69033 0.0
C624 C 0.49277 0.42558 0.68561 0.0
C625 C 0.47845 0.4464 0.67281 0.0
C626 C 0.4538 0.44164 0.66318 0.0
C627 C 0.44378 0.4163 0.66636 0.0
C628 C 0.45839 0.39586 0.68096 0.0
H629 H 0.05637 0.63603 0.13567 0.0
H630 H 0.06552 0.55585 0.17077 0.0
H631 H 0.0213 0.55363 0.18682 0.0
H632 H 0.00426 0.65452 0.20371 0.0
H633 H 0.98996 0.67374 0.16687 0.0
H634 H 0.02292 0.67117 0.16935 0.0
H635 H 0.02349 0.65487 0.09929 0.0
H636 H 0.99074 0.65711 0.09667 0.0
H637 H 0.00566 0.62652 0.08593 0.0
H638 H 0.9747 0.55756 0.18527 0.0
H639 H 0.93187 0.56675 0.16471 0.0
H640 H 0.95386 0.64395 0.12903 0.0
C641 C 0.04924 0.61855 0.14885 0.0
C642 C 0.06428 0.59641 0.15329 0.0
C643 C 0.05433 0.57328 0.16854 0.0
C644 C 0.02922 0.57187 0.17754 0.0
C645 C 0.01448 0.59382 0.17116 0.0
C646 C 0.02432 0.61687 0.15758 0.0
C647 C 0.00449 0.63623 0.14698 0.0
C648 C 0.00547 0.66034 0.17331 0.0
C649 C 0.00621 0.6441 0.10474 0.0
C650 C 0.98188 0.62001 0.1544 0.0
C651 C 0.9878 0.59586 0.16937 0.0
C652 C 0.96986 0.57667 0.17456 0.0
C653 C 0.94555 0.58203 0.16299 0.0
C654 C 0.93967 0.60617 0.14586 0.0
C655 C 0.9579 0.62555 0.14281 0.0
H656 H 0.13815 0.55747 0.02436 0.0
H657 H 0.13204 0.51375 0.12936 0.0
H658 H 0.12842 0.47278 0.09224 0.0
H659 H 0.09645 0.51573 0.96561 0.0
H660 H 0.11528 0.51871 0.92388 0.0
H661 H 0.11414 0.54501 0.95829 0.0
H662 H 0.16145 0.54338 0.9653 0.0
H663 H 0.16274 0.51704 0.93113 0.0
H664 H 0.1761 0.51302 0.97786 0.0
H665 H 0.12976 0.4367 0.04525 0.0
H666 H 0.13602 0.40702 0.99093 0.0
H667 H 0.14153 0.47345 0.9152 0.0
C668 C 0.13548 0.53931 0.03944 0.0
C669 C 0.13523 0.5387 0.07969 0.0
C670 C 0.13222 0.5146 0.09853 0.0
C671 C 0.13006 0.49126 0.0777 0.0
C672 C 0.13092 0.49243 0.03809 0.0
C673 C 0.13348 0.51578 0.01905 0.0
C674 C 0.13589 0.51128 0.97646 0.0
C675 C 0.11414 0.5234 0.95478 0.0
C676 C 0.16051 0.5218 0.96185 0.0
C677 C 0.13501 0.48169 0.97472 0.0
C678 C 0.13183 0.47133 0.01062 0.0
C679 C 0.13189 0.44455 0.01692 0.0
C680 C 0.13555 0.42784 0.9858 0.0
C681 C 0.13912 0.43792 0.94876 0.0
C682 C 0.13851 0.46521 0.9431 0.0
H683 H 0.69519 0.89804 0.28354 0.0
H684 H 0.72542 0.88912 0.39759 0.0
H685 H 0.76715 0.89094 0.37191 0.0
H686 H 0.74085 0.85884 0.2354 0.0
H687 H 0.74212 0.87952 0.19411 0.0
H688 H 0.71427 0.87744 0.22119 0.0
H689 H 0.71433 0.92774 0.23031 0.0
H690 H 0.74217 0.92996 0.20324 0.0
H691 H 0.74096 0.94353 0.25073 0.0
H692 H 0.80574 0.89357 0.33463 0.0
H693 H 0.83884 0.89747 0.28735 0.0
H694 H 0.78428 0.90505 0.19732 0.0
C695 C 0.7106 0.89647 0.30304 0.0
C696 C 0.70695 0.89343 0.3426 0.0
C697 C 0.72764 0.89147 0.36717 0.0
C698 C 0.7515 0.89246 0.3529 0.0
C699 C 0.75452 0.89546 0.31389 0.0
C700 C 0.73471 0.89748 0.28922 0.0
C701 C 0.74326 0.90075 0.24851 0.0
C702 C 0.73461 0.87777 0.22332 0.0
C703 C 0.73467 0.92706 0.23226 0.0
C704 C 0.77088 0.90026 0.25434 0.0
C705 C 0.77694 0.89714 0.29228 0.0
C706 C 0.80126 0.89605 0.30478 0.0
C707 C 0.81994 0.89827 0.27774 0.0
C708 C 0.81419 0.9016 0.23869 0.0
C709 C 0.78929 0.90257 0.22698 0.0
H710 H 0.36207 0.48622 0.59517 0.0
H711 H 0.38629 0.4206 0.52592 0.0
H712 H 0.38899 0.44933 0.47018 0.0
H713 H 0.32404 0.51457 0.52634 0.0
H714 H 0.33131 0.54803 0.53827 0.0
H715 H 0.33369 0.52315 0.57408 0.0
H716 H 0.37903 0.53585 0.58683 0.0
H717 H 0.37674 0.56096 0.55122 0.0
H718 H 0.4003 0.53636 0.54777 0.0
H719 H 0.38513 0.48351 0.42077 0.0
H720 H 0.37692 0.52208 0.38094 0.0
H721 H 0.356 0.56629 0.48161 0.0
C722 C 0.36842 0.47806 0.56846 0.0
C723 C 0.374 0.45119 0.56488 0.0
C724 C 0.38195 0.44114 0.52935 0.0
C725 C 0.38357 0.4573 0.4975 0.0
C726 C 0.37737 0.48354 0.50167 0.0
C727 C 0.3702 0.49399 0.53626 0.0
C728 C 0.36341 0.5226 0.53235 0.0
C729 C 0.33652 0.52735 0.54341 0.0
C730 C 0.38092 0.53997 0.55594 0.0
C731 C 0.36723 0.52631 0.49 0.0
C732 C 0.37541 0.50353 0.47296 0.0
C733 C 0.37905 0.50159 0.43382 0.0
C734 C 0.3742 0.52355 0.41142 0.0
C735 C 0.36588 0.54713 0.42823 0.0
C736 C 0.36256 0.54855 0.46808 0.0
H737 H 0.7225 0.10346 0.68714 0.0
H738 H 0.66633 0.11274 0.77317 0.0
H739 H 0.69849 0.11317 0.82335 0.0
H740 H 0.76125 0.06061 0.7394 0.0
H741 H 0.78944 0.07466 0.72258 0.0
H742 H 0.76218 0.07596 0.69336 0.0
H743 H 0.76599 0.12633 0.68938 0.0
H744 H 0.79338 0.12518 0.71836 0.0
H745 H 0.76796 0.14542 0.73269 0.0
H746 H 0.73645 0.1107 0.86395 0.0
H747 H 0.77766 0.10798 0.89264 0.0
H748 H 0.80954 0.10098 0.78002 0.0
C749 C 0.71692 0.10577 0.71652 0.0
C750 C 0.69187 0.10805 0.7263 0.0
C751 C 0.68539 0.11104 0.76504 0.0
C752 C 0.70352 0.11123 0.7937 0.0
C753 C 0.72801 0.10857 0.78305 0.0
C754 C 0.73476 0.10612 0.74538 0.0
C755 C 0.76235 0.10346 0.74156 0.0
C756 C 0.7692 0.0771 0.72314 0.0
C757 C 0.77304 0.12647 0.71918 0.0
C758 C 0.77011 0.10456 0.78307 0.0
C759 C 0.74997 0.10746 0.80646 0.0
C760 C 0.75235 0.10857 0.84591 0.0
C761 C 0.7759 0.10693 0.86192 0.0
C762 C 0.7969 0.10428 0.83859 0.0
C763 C 0.79388 0.10301 0.7986 0.0
H764 H 0.86078 0.44461 0.95993 0.0
H765 H 0.88254 0.48793 0.85987 0.0
H766 H 0.89014 0.52697 0.90015 0.0
H767 H 0.82781 0.49495 0.00268 0.0
H768 H 0.83665 0.48716 0.05087 0.0
H769 H 0.83584 0.46188 0.01502 0.0
H770 H 0.88124 0.45051 0.02981 0.0
H771 H 0.8822 0.47583 0.06579 0.0
H772 H 0.90422 0.47578 0.02775 0.0
H773 H 0.89167 0.56207 0.94995 0.0
H774 H 0.88604 0.59123 0.00548 0.0
H775 H 0.86322 0.52503 0.07318 0.0
C776 C 0.86756 0.46218 0.94659 0.0
C777 C 0.87117 0.4633 0.90685 0.0
C778 C 0.87971 0.4867 0.89032 0.0
C779 C 0.88418 0.5089 0.91296 0.0
C780 C 0.88011 0.50726 0.95203 0.0
C781 C 0.87203 0.48449 0.96873 0.0
C782 C 0.86729 0.48842 0.01083 0.0
C783 C 0.8403 0.48278 0.02039 0.0
C784 C 0.88478 0.47164 0.03496 0.0
C785 C 0.87322 0.51719 0.01497 0.0
C786 C 0.88091 0.52759 0.98083 0.0
C787 C 0.88599 0.5541 0.97696 0.0
C788 C 0.88269 0.5705 0.00863 0.0
C789 C 0.87429 0.56033 0.0436 0.0
C790 C 0.86998 0.53326 0.04693 0.0
H791 H 0.18998 0.10147 0.74403 0.0
H792 H 0.22254 0.08482 0.85465 0.0
H793 H 0.26331 0.08334 0.82603 0.0
H794 H 0.23071 0.05938 0.68951 0.0
H795 H 0.23281 0.08136 0.64978 0.0
H796 H 0.2056 0.08106 0.67856 0.0
H797 H 0.21044 0.13074 0.69137 0.0
H798 H 0.23768 0.13117 0.66265 0.0
H799 H 0.23885 0.14301 0.71113 0.0
H800 H 0.30071 0.08432 0.78703 0.0
H801 H 0.33294 0.08699 0.73829 0.0
H802 H 0.27735 0.10238 0.65202 0.0
C803 C 0.2057 0.09746 0.76209 0.0
C804 C 0.20294 0.09328 0.80162 0.0
C805 C 0.22402 0.0881 0.82431 0.0
C806 C 0.24738 0.08721 0.80837 0.0
C807 C 0.24955 0.09146 0.76954 0.0
C808 C 0.22939 0.09641 0.74653 0.0
C809 C 0.23722 0.10032 0.70555 0.0
C810 C 0.22591 0.07927 0.6793 0.0
C811 C 0.23066 0.12795 0.69188 0.0
C812 C 0.2648 0.09685 0.70943 0.0
C813 C 0.27144 0.09179 0.74667 0.0
C814 C 0.2958 0.08818 0.75768 0.0
C815 C 0.31398 0.08976 0.72982 0.0
C816 C 0.30769 0.09482 0.69139 0.0
C817 C 0.28273 0.09837 0.68116 0.0
H818 H 0.64626 0.55597 0.46237 0.0
H819 H 0.61965 0.51027 0.36584 0.0
H820 H 0.61204 0.47302 0.40797 0.0
H821 H 0.67837 0.50345 0.50686 0.0
H822 H 0.67123 0.51337 0.5549 0.0
H823 H 0.67296 0.53744 0.51785 0.0
H824 H 0.6289 0.55285 0.53358 0.0
H825 H 0.62701 0.52873 0.57062 0.0
H826 H 0.60418 0.52944 0.53323 0.0
H827 H 0.60829 0.44047 0.45888 0.0
H828 H 0.6111 0.41291 0.51585 0.0
H829 H 0.64133 0.47832 0.58037 0.0
C830 C 0.63865 0.53817 0.4503 0.0
C831 C 0.63352 0.53599 0.41087 0.0
C832 C 0.62385 0.51232 0.39593 0.0
C833 C 0.6193 0.49109 0.41965 0.0
C834 C 0.62465 0.49373 0.45828 0.0
C835 C 0.63428 0.51652 0.47362 0.0
C836 C 0.6397 0.51339 0.51583 0.0
C837 C 0.6672 0.51713 0.52434 0.0
C838 C 0.624 0.53222 0.53972 0.0
C839 C 0.63189 0.48522 0.52149 0.0
C840 C 0.62298 0.47447 0.48793 0.0
C841 C 0.61514 0.44863 0.48543 0.0
C842 C 0.61682 0.43314 0.51798 0.0
C843 C 0.62643 0.44344 0.55256 0.0
C844 C 0.63376 0.46995 0.5544 0.0
H845 H 0.28486 0.90517 0.3085 0.0
H846 H 0.33418 0.88172 0.218 0.0
H847 H 0.29875 0.87562 0.17458 0.0
H848 H 0.23452 0.86086 0.28338 0.0
H849 H 0.21107 0.88444 0.29472 0.0
H850 H 0.24011 0.88538 0.31957 0.0
H851 H 0.24595 0.93365 0.29985 0.0
H852 H 0.21696 0.93287 0.27497 0.0
H853 H 0.24439 0.94214 0.25013 0.0
H854 H 0.25858 0.87372 0.14042 0.0
H855 H 0.2162 0.87725 0.11654 0.0
H856 H 0.19223 0.90264 0.22856 0.0
C857 C 0.28816 0.89847 0.27966 0.0
C858 C 0.31228 0.89379 0.26663 0.0
C859 C 0.31589 0.88538 0.22858 0.0
C860 C 0.29587 0.8818 0.20376 0.0
C861 C 0.27236 0.88677 0.21738 0.0
C862 C 0.26837 0.89497 0.25439 0.0
C863 C 0.24131 0.90013 0.26119 0.0
C864 C 0.23116 0.88159 0.29152 0.0
C865 C 0.23691 0.92891 0.27217 0.0
C866 C 0.23075 0.89383 0.22207 0.0
C867 C 0.24904 0.88597 0.19741 0.0
C868 C 0.2441 0.87973 0.15948 0.0
C869 C 0.21991 0.88185 0.1462 0.0
C870 C 0.20085 0.89024 0.17065 0.0
C871 C 0.20636 0.89602 0.20925 0.0
H872 H 0.64459 0.05518 0.54052 0.0
H873 H 0.63024 0.01418 0.64583 0.0
H874 H 0.62291 0.97343 0.60938 0.0
H875 H 0.59939 0.01988 0.48133 0.0
H876 H 0.619 0.01953 0.44022 0.0
H877 H 0.62107 0.04597 0.47433 0.0
H878 H 0.66755 0.03696 0.48321 0.0
H879 H 0.66563 0.0106 0.44911 0.0
H880 H 0.67762 0.00465 0.49626 0.0
H881 H 0.61999 0.93654 0.56199 0.0
H882 H 0.62296 0.90604 0.50725 0.0
H883 H 0.63899 0.97122 0.43304 0.0
C884 C 0.63962 0.0377 0.55586 0.0
C885 C 0.63795 0.03781 0.59596 0.0
C886 C 0.63162 0.01451 0.61507 0.0
C887 C 0.62731 0.9913 0.59462 0.0
C888 C 0.6293 0.99178 0.55509 0.0
C889 C 0.63528 0.01437 0.53589 0.0
C890 C 0.63763 0.00931 0.49354 0.0
C891 C 0.61811 0.02458 0.47103 0.0
C892 C 0.66365 0.01575 0.47974 0.0
C893 C 0.63267 0.98021 0.49206 0.0
C894 C 0.62761 0.97051 0.52778 0.0
C895 C 0.62366 0.94394 0.5338 0.0
C896 C 0.62539 0.92677 0.50258 0.0
C897 C 0.63113 0.93628 0.46595 0.0
C898 C 0.63433 0.9634 0.46064 0.0
H899 H 0.31541 0.40245 0.7494 0.0
H900 H 0.28395 0.39937 0.63536 0.0
H901 H 0.24259 0.39707 0.66239 0.0
H902 H 0.27298 0.35731 0.79149 0.0
H903 H 0.27115 0.37467 0.83626 0.0
H904 H 0.2986 0.37662 0.80821 0.0
H905 H 0.29534 0.42714 0.80817 0.0
H906 H 0.26787 0.42533 0.83624 0.0
H907 H 0.26748 0.44237 0.79147 0.0
H908 H 0.20454 0.39447 0.70099 0.0
H909 H 0.1721 0.39175 0.7495 0.0
H910 H 0.22746 0.39649 0.8389 0.0
C911 C 0.2998 0.40138 0.73018 0.0
C912 C 0.30301 0.4011 0.69022 0.0
C913 C 0.28207 0.3996 0.66606 0.0
C914 C 0.25841 0.3983 0.68111 0.0
C915 C 0.25584 0.39852 0.72048 0.0
C916 C 0.27589 0.40003 0.74478 0.0
C917 C 0.26781 0.39963 0.78606 0.0
C918 C 0.27826 0.37563 0.80671 0.0
C919 C 0.27506 0.42514 0.8067 0.0
C920 C 0.24019 0.39759 0.78099 0.0
C921 C 0.23372 0.39701 0.7429 0.0
C922 C 0.20934 0.39495 0.73096 0.0
C923 C 0.19104 0.39341 0.75872 0.0
C924 C 0.19719 0.39393 0.79797 0.0
C925 C 0.22214 0.3961 0.80911 0.0
H926 H 0.86227 0.02379 0.93587 0.0
H927 H 0.88642 0.09113 0.00206 0.0
H928 H 0.89172 0.0633 0.05845 0.0
H929 H 0.82677 0.99617 0.00617 0.0
H930 H 0.83419 0.96259 0.99546 0.0
H931 H 0.8356 0.98677 0.9586 0.0
H932 H 0.88085 0.97446 0.94537 0.0
H933 H 0.87952 0.95 0.982 0.0
H934 H 0.90286 0.97492 0.98397 0.0
H935 H 0.88946 0.02988 0.1093 0.0
H936 H 0.88176 0.99207 0.15086 0.0
H937 H 0.85959 0.94601 0.05213 0.0
C938 C 0.86931 0.03248 0.96197 0.0
C939 C 0.87401 0.05957 0.96461 0.0
C940 C 0.88274 0.0704 0.9994 0.0
C941 C 0.88586 0.05475 0.0316 0.0
C942 C 0.88032 0.02827 0.02847 0.0
C943 C 0.87249 0.0171 0.99449 0.0
C944 C 0.86612 0.98852 0.99964 0.0
C945 C 0.83907 0.98322 0.98937 0.0
C946 C 0.88337 0.97094 0.97637 0.0
C947 C 0.8708 0.98569 0.04201 0.0
C948 C 0.87917 0.0088 0.05801 0.0
C949 C 0.88329 0.01153 0.09707 0.0
C950 C 0.87872 0.99003 0.12045 0.0
C951 C 0.87016 0.96618 0.10465 0.0
C952 C 0.86639 0.96396 0.0649 0.0
H953 H 0.19275 0.60591 0.24317 0.0
H954 H 0.22315 0.61835 0.1308 0.0
H955 H 0.26439 0.62291 0.15894 0.0
H956 H 0.23419 0.65096 0.29494 0.0
H957 H 0.23682 0.62995 0.33575 0.0
H958 H 0.20917 0.62968 0.30728 0.0
H959 H 0.21366 0.5797 0.29714 0.0
H960 H 0.24135 0.57984 0.32542 0.0
H961 H 0.24169 0.56683 0.27756 0.0
H962 H 0.30271 0.62362 0.19812 0.0
H963 H 0.3357 0.62055 0.24657 0.0
H964 H 0.28112 0.6073 0.33374 0.0
C965 C 0.20805 0.61002 0.22466 0.0
C966 C 0.2047 0.61183 0.1848 0.0
C967 C 0.22524 0.61682 0.16142 0.0
C968 C 0.24878 0.61952 0.17712 0.0
C969 C 0.2516 0.61717 0.21634 0.0
C970 C 0.23186 0.6126 0.2399 0.0
C971 C 0.2403 0.60964 0.28093 0.0
C972 C 0.22948 0.63136 0.30622 0.0
C973 C 0.23387 0.58238 0.29614 0.0
C974 C 0.2678 0.61291 0.27651 0.0
C975 C 0.27389 0.61741 0.23903 0.0
C976 C 0.29818 0.62031 0.22765 0.0
C977 C 0.3168 0.61849 0.25534 0.0
C978 C 0.31102 0.61374 0.29391 0.0
C979 C 0.28615 0.61108 0.30451 0.0
H980 H 0.35997 0.01776 0.56395 0.0
H981 H 0.36248 0.08774 0.4948 0.0
H982 H 0.36917 0.06077 0.43756 0.0
H983 H 0.40637 0.98087 0.51107 0.0
H984 H 0.39043 0.95019 0.51545 0.0
H985 H 0.38729 0.97498 0.55184 0.0
H986 H 0.34005 0.97378 0.54337 0.0
H987 H 0.34304 0.94898 0.50704 0.0
H988 H 0.32683 0.97884 0.49676 0.0
H989 H 0.37365 0.02682 0.38752 0.0
H990 H 0.37475 0.98736 0.34693 0.0
H991 H 0.36924 0.93876 0.44743 0.0
C992 C 0.36214 0.02736 0.53679 0.0
C993 C 0.36081 0.05486 0.53388 0.0
C994 C 0.36351 0.06672 0.49781 0.0
C995 C 0.36737 0.05158 0.46507 0.0
C996 C 0.3685 0.02457 0.46881 0.0
C997 C 0.36594 0.01248 0.50364 0.0
C998 C 0.36686 0.98298 0.49923 0.0
C999 C 0.38906 0.97159 0.52067 0.0
C1000 C 0.34276 0.97041 0.51237 0.0
C1001 C 0.36993 0.98048 0.45643 0.0
C1002 C 0.37102 0.00476 0.43959 0.0
C1003 C 0.37299 0.00767 0.40034 0.0
C1004 C 0.37356 0.98513 0.37753 0.0
C1005 C 0.37214 0.96001 0.39402 0.0
C1006 C 0.37059 0.9577 0.43405 0.0
H1007 H 0.80945 0.60139 0.22626 0.0
H1008 H 0.77909 0.60708 0.11182 0.0
H1009 H 0.7374 0.60501 0.13759 0.0
H1010 H 0.76488 0.55583 0.26129 0.0
H1011 H 0.76326 0.57043 0.30811 0.0
H1012 H 0.79105 0.57288 0.28097 0.0
H1013 H 0.78973 0.62334 0.28763 0.0
H1014 H 0.76192 0.62101 0.31478 0.0
H1015 H 0.76266 0.64077 0.2725 0.0
H1016 H 0.69882 0.60171 0.17494 0.0
H1017 H 0.66581 0.59709 0.22231 0.0
H1018 H 0.72049 0.59361 0.31271 0.0
C1019 C 0.79402 0.60226 0.2067 0.0
C1020 C 0.79764 0.60441 0.16699 0.0
C1021 C 0.77691 0.60545 0.14236 0.0
C1022 C 0.75306 0.60431 0.15669 0.0
C1023 C 0.75008 0.60216 0.19582 0.0
C1024 C 0.76992 0.60115 0.22058 0.0
C1025 C 0.76141 0.59855 0.26143 0.0
C1026 C 0.7707 0.57289 0.27897 0.0
C1027 C 0.76941 0.62234 0.2855 0.0
C1028 C 0.73379 0.59807 0.25556 0.0
C1029 C 0.72768 0.60025 0.21749 0.0
C1030 C 0.70335 0.60003 0.2049 0.0
C1031 C 0.68472 0.59739 0.23197 0.0
C1032 C 0.69055 0.59498 0.27113 0.0
C1033 C 0.71544 0.59545 0.28296 0.0
H1034 H 0.13843 0.97862 0.07961 0.0
H1035 H 0.11132 0.91298 0.01239 0.0
H1036 H 0.10529 0.94192 0.95741 0.0
H1037 H 0.09716 0.0283 0.03744 0.0
H1038 H 0.12052 0.05323 0.03853 0.0
H1039 H 0.1206 0.0279 0.07395 0.0
H1040 H 0.16522 0.01577 0.05599 0.0
H1041 H 0.16527 0.04102 0.02062 0.0
H1042 H 0.17225 0.0078 0.00716 0.0
H1043 H 0.10622 0.97645 0.90801 0.0
H1044 H 0.11344 0.01501 0.86763 0.0
H1045 H 0.13848 0.05876 0.9669 0.0
C1046 C 0.13088 0.97045 0.05349 0.0
C1047 C 0.12535 0.94357 0.05028 0.0
C1048 C 0.11569 0.93353 0.01554 0.0
C1049 C 0.1121 0.94982 0.98415 0.0
C1050 C 0.11804 0.97615 0.98804 0.0
C1051 C 0.12706 0.98649 0.02185 0.0
C1052 C 0.13323 0.01518 0.01771 0.0
C1053 C 0.1169 0.03215 0.04344 0.0
C1054 C 0.16061 0.02022 0.02584 0.0
C1055 C 0.12697 0.01908 0.97602 0.0
C1056 C 0.11807 0.99634 0.95952 0.0
C1057 C 0.11276 0.99452 0.92069 0.0
C1058 C 0.11697 0.01645 0.89798 0.0
C1059 C 0.12628 0.03981 0.91428 0.0
C1060 C 0.1309 0.04125 0.95388 0.0
H1061 H 0.69195 0.40514 0.73105 0.0
H1062 H 0.71765 0.38152 0.61925 0.0
H1063 H 0.7601 0.37986 0.6439 0.0
H1064 H 0.74232 0.44688 0.754 0.0
H1065 H 0.7434 0.43818 0.80365 0.0
H1066 H 0.71483 0.43641 0.77769 0.0
H1067 H 0.71007 0.38777 0.79637 0.0
H1068 H 0.73857 0.38943 0.82259 0.0
H1069 H 0.7344 0.36504 0.78578 0.0
H1070 H 0.80024 0.38195 0.68047 0.0
H1071 H 0.83452 0.38695 0.72679 0.0
H1072 H 0.78247 0.40954 0.814 0.0
C1073 C 0.70648 0.3994 0.71187 0.0
C1074 C 0.70147 0.39346 0.67325 0.0
C1075 C 0.72103 0.38618 0.64898 0.0
C1076 C 0.74524 0.38517 0.66269 0.0
C1077 C 0.74964 0.39148 0.70078 0.0
C1078 C 0.7308 0.39836 0.72507 0.0
C1079 C 0.74054 0.40472 0.76456 0.0
C1080 C 0.73494 0.43324 0.77561 0.0
C1081 C 0.73029 0.3856 0.79406 0.0
C1082 C 0.76775 0.40052 0.75858 0.0
C1083 C 0.77268 0.39282 0.72166 0.0
C1084 C 0.79659 0.38792 0.70952 0.0
C1085 C 0.81595 0.39085 0.73594 0.0
C1086 C 0.81122 0.39868 0.77394 0.0
C1087 C 0.78676 0.40358 0.78514 0.0
loop_
_geom_bond_atom_site_label_1
_geom_bond_atom_site_label_2
_geom_bond_distance
_geom_bond_site_symmetry_2
_ccdc_geom_bond_type
Co0 O1 2.216 . S
Co0 O2 2.091 . S
Co0 O4 2.004 . S
Co0 O10 2.021 . S
Co0 O12 2.137 . S
Co0 O13 2.244 . S
O1 Co0 2.216 . S
O1 C8 1.247 . S
O2 Co0 2.091 . S
O2 C8 1.261 . S
C3 O12 1.247 . S
C3 O13 1.272 . S
O4 Co0 2.004 . S
O4 C9 1.259 . S
Co5 O6 2.061 . S
Co5 O11 2.052 . S
Co5 O13 2.135 . S
O6 Co5 2.061 . S
O6 C9 1.235 . S
C7 O10 1.238 . S
C7 O11 1.241 . S
C8 O1 1.247 . S
C8 O2 1.261 . S
C9 O4 1.259 . S
C9 O6 1.235 . S
O10 Co0 2.021 . S
O10 C7 1.238 . S
O11 Co5 2.052 . S
O11 C7 1.241 . S
O12 Co0 2.137 . S
O12 C3 1.247 . S
O13 Co0 2.244 . S
O13 C3 1.272 . S
O13 Co5 2.135 . S
Co14 O15 2.216 . S
Co14 O16 2.091 . S
Co14 O18 2.004 . S
Co14 O24 2.021 . S
Co14 O26 2.137 . S
Co14 O27 2.244 . S
O15 Co14 2.216 . S
O15 C22 1.247 . S
O16 Co14 2.091 . S
O16 C22 1.261 . S
C17 O26 1.247 . S
C17 O27 1.272 . S
O18 Co14 2.004 . S
O18 C23 1.259 . S
Co19 O20 2.061 . S
Co19 O25 2.052 . S
Co19 O27 2.135 . S
O20 Co19 2.061 . S
O20 C23 1.235 . S
C21 O24 1.238 . S
C21 O25 1.241 . S
C22 O15 1.247 . S
C22 O16 1.261 . S
C23 O18 1.259 . S
C23 O20 1.235 . S
O24 Co14 2.021 . S
O24 C21 1.238 . S
O25 Co19 2.052 . S
O25 C21 1.241 . S
O26 Co14 2.137 . S
O26 C17 1.247 . S
O27 Co14 2.244 . S
O27 C17 1.272 . S
O27 Co19 2.135 . S
Co28 O29 2.216 . S
Co28 O30 2.091 . S
Co28 O32 2.004 . S
Co28 O38 2.021 . S
Co28 O40 2.137 . S
Co28 O41 2.244 . S
O29 Co28 2.216 . S
O29 C36 1.247 . S
O30 Co28 2.091 . S
O30 C36 1.261 . S
C31 O40 1.247 . S
C31 O41 1.272 . S
O32 Co28 2.004 . S
O32 C37 1.259 . S
Co33 O34 2.061 . S
Co33 O39 2.052 . S
Co33 O41 2.135 . S
O34 Co33 2.061 . S
O34 C37 1.235 . S
C35 O38 1.238 . S
C35 O39 1.241 . S
C36 O29 1.247 . S
C36 O30 1.261 . S
C37 O32 1.259 . S
C37 O34 1.235 . S
O38 Co28 2.021 . S
O38 C35 1.238 . S
O39 Co33 2.052 . S
O39 C35 1.241 . S
O40 Co28 2.137 . S
O40 C31 1.247 . S
O41 Co28 2.244 . S
O41 C31 1.272 . S
O41 Co33 2.135 . S
Co42 O43 2.216 . S
Co42 O44 2.091 . S
Co42 O46 2.004 . S
Co42 O52 2.021 . S
Co42 O54 2.137 . S
Co42 O55 2.244 . S
O43 Co42 2.216 . S
O43 C50 1.247 . S
O44 Co42 2.091 . S
O44 C50 1.261 . S
C45 O54 1.247 . S
C45 O55 1.272 . S
O46 Co42 2.004 . S
O46 C51 1.259 . S
Co47 O48 2.061 . S
Co47 O53 2.052 . S
Co47 O55 2.135 . S
O48 Co47 2.061 . S
O48 C51 1.235 . S
C49 O52 1.238 . S
C49 O53 1.241 . S
C50 O43 1.247 . S
C50 O44 1.261 . S
C51 O46 1.259 . S
C51 O48 1.235 . S
O52 Co42 2.021 . S
O52 C49 1.238 . S
O53 Co47 2.052 . S
O53 C49 1.241 . S
O54 Co42 2.137 . S
O54 C45 1.247 . S
O55 Co42 2.244 . S
O55 C45 1.272 . S
O55 Co47 2.135 . S
Co56 O57 2.216 . S
Co56 O58 2.091 . S
Co56 O60 2.004 . S
Co56 O66 2.021 . S
Co56 O68 2.137 . S
Co56 O69 2.244 . S
O57 Co56 2.216 . S
O57 C64 1.247 . S
O58 Co56 2.091 . S
O58 C64 1.261 . S
C59 O68 1.247 . S
C59 O69 1.272 . S
O60 Co56 2.004 . S
O60 C65 1.259 . S
Co61 O62 2.061 . S
Co61 O67 2.052 . S
Co61 O69 2.135 . S
O62 Co61 2.061 . S
O62 C65 1.235 . S
C63 O66 1.238 . S
C63 O67 1.241 . S
C64 O57 1.247 . S
C64 O58 1.261 . S
C65 O60 1.259 . S
C65 O62 1.235 . S
O66 Co56 2.021 . S
O66 C63 1.238 . S
O67 Co61 2.052 . S
O67 C63 1.241 . S
O68 Co56 2.137 . S
O68 C59 1.247 . S
O69 Co56 2.244 . S
O69 C59 1.272 . S
O69 Co61 2.135 . S
Co70 O71 2.216 . S
Co70 O72 2.091 . S
Co70 O74 2.004 . S
Co70 O80 2.021 . S
Co70 O82 2.137 . S
Co70 O83 2.244 . S
O71 Co70 2.216 . S
O71 C78 1.247 . S
O72 Co70 2.091 . S
O72 C78 1.261 . S
C73 O82 1.247 . S
C73 O83 1.272 . S
O74 Co70 2.004 . S
O74 C79 1.259 . S
Co75 O76 2.061 . S
Co75 O81 2.052 . S
Co75 O83 2.135 . S
O76 Co75 2.061 . S
O76 C79 1.235 . S
C77 O80 1.238 . S
C77 O81 1.241 . S
C78 O71 1.247 . S
C78 O72 1.261 . S
C79 O74 1.259 . S
C79 O76 1.235 . S
O80 Co70 2.021 . S
O80 C77 1.238 . S
O81 Co75 2.052 . S
O81 C77 1.241 . S
O82 Co70 2.137 . S
O82 C73 1.247 . S
O83 Co70 2.244 . S
O83 C73 1.272 . S
O83 Co75 2.135 . S
Co84 O85 2.216 . S
Co84 O86 2.091 . S
Co84 O88 2.004 . S
Co84 O94 2.021 . S
Co84 O96 2.137 . S
Co84 O97 2.244 . S
O85 Co84 2.216 . S
O85 C92 1.247 . S
O86 Co84 2.091 . S
O86 C92 1.261 . S
C87 O96 1.247 . S
C87 O97 1.272 . S
O88 Co84 2.004 . S
O88 C93 1.259 . S
Co89 O90 2.061 . S
Co89 O95 2.052 . S
Co89 O97 2.135 . S
O90 Co89 2.061 . S
O90 C93 1.235 . S
C91 O94 1.238 . S
C91 O95 1.241 . S
C92 O85 1.247 . S
C92 O86 1.261 . S
C93 O88 1.259 . S
C93 O90 1.235 . S
O94 Co84 2.021 . S
O94 C91 1.238 . S
O95 Co89 2.052 . S
O95 C91 1.241 . S
O96 Co84 2.137 . S
O96 C87 1.247 . S
O97 Co84 2.244 . S
O97 C87 1.272 . S
O97 Co89 2.135 . S
Co98 O99 2.216 . S
Co98 O100 2.091 . S
Co98 O102 2.004 . S
Co98 O108 2.021 . S
Co98 O110 2.137 . S
Co98 O111 2.244 . S
O99 Co98 2.216 . S
O99 C106 1.247 . S
O100 Co98 2.091 . S
O100 C106 1.261 . S
C101 O110 1.247 . S
C101 O111 1.272 . S
O102 Co98 2.004 . S
O102 C107 1.259 . S
Co103 O104 2.061 . S
Co103 O109 2.052 . S
Co103 O111 2.135 . S
O104 Co103 2.061 . S
O104 C107 1.235 . S
C105 O108 1.238 . S
C105 O109 1.241 . S
C106 O99 1.247 . S
C106 O100 1.261 . S
C107 O102 1.259 . S
C107 O104 1.235 . S
O108 Co98 2.021 . S
O108 C105 1.238 . S
O109 Co103 2.052 . S
O109 C105 1.241 . S
O110 Co98 2.137 . S
O110 C101 1.247 . S
O111 Co98 2.244 . S
O111 C101 1.272 . S
O111 Co103 2.135 . S
Co112 O113 2.216 . S
Co112 O114 2.091 . S
Co112 O116 2.004 . S
Co112 O122 2.021 . S
Co112 O124 2.137 . S
Co112 O125 2.244 . S
O113 Co112 2.216 . S
O113 C120 1.247 . S
O114 Co112 2.091 . S
O114 C120 1.261 . S
C115 O124 1.247 . S
C115 O125 1.272 . S
O116 Co112 2.004 . S
O116 C121 1.259 . S
Co117 O118 2.061 . S
Co117 O123 2.052 . S
Co117 O125 2.135 . S
O118 Co117 2.061 . S
O118 C121 1.235 . S
C119 O122 1.238 . S
C119 O123 1.241 . S
C120 O113 1.247 . S
C120 O114 1.261 . S
C121 O116 1.259 . S
C121 O118 1.235 . S
O122 Co112 2.021 . S
O122 C119 1.238 . S
O123 Co117 2.052 . S
O123 C119 1.241 . S
O124 Co112 2.137 . S
O124 C115 1.247 . S
O125 Co112 2.244 . S
O125 C115 1.272 . S
O125 Co117 2.135 . S
Co126 O127 2.216 . S
Co126 O128 2.091 . S
Co126 O130 2.004 . S
Co126 O136 2.021 . S
Co126 O138 2.137 . S
Co126 O139 2.244 . S
O127 Co126 2.216 . S
O127 C134 1.247 . S
O128 Co126 2.091 . S
O128 C134 1.261 . S
C129 O138 1.247 . S
C129 O139 1.272 . S
O130 Co126 2.004 . S
O130 C135 1.259 . S
Co131 O132 2.061 . S
Co131 O137 2.052 . S
Co131 O139 2.135 . S
O132 Co131 2.061 . S
O132 C135 1.235 . S
C133 O136 1.238 . S
C133 O137 1.241 . S
C134 O127 1.247 . S
C134 O128 1.261 . S
C135 O130 1.259 . S
C135 O132 1.235 . S
O136 Co126 2.021 . S
O136 C133 1.238 . S
O137 Co131 2.052 . S
O137 C133 1.241 . S
O138 Co126 2.137 . S
O138 C129 1.247 . S
O139 Co126 2.244 . S
O139 C129 1.272 . S
O139 Co131 2.135 . S
Co140 O141 2.216 . S
Co140 O142 2.091 . S
Co140 O144 2.004 . S
Co140 O150 2.021 . S
Co140 O152 2.137 . S
Co140 O153 2.244 . S
O141 Co140 2.216 . S
O141 C148 1.247 . S
O142 Co140 2.091 . S
O142 C148 1.261 . S
C143 O152 1.247 . S
C143 O153 1.272 . S
O144 Co140 2.004 . S
O144 C149 1.259 . S
Co145 O146 2.061 . S
Co145 O151 2.052 . S
Co145 O153 2.135 . S
O146 Co145 2.061 . S
O146 C149 1.235 . S
C147 O150 1.238 . S
C147 O151 1.241 . S
C148 O141 1.247 . S
C148 O142 1.261 . S
C149 O144 1.259 . S
C149 O146 1.235 . S
O150 Co140 2.021 . S
O150 C147 1.238 . S
O151 Co145 2.052 . S
O151 C147 1.241 . S
O152 Co140 2.137 . S
O152 C143 1.247 . S
O153 Co140 2.244 . S
O153 C143 1.272 . S
O153 Co145 2.135 . S
Co154 O155 2.216 . S
Co154 O156 2.091 . S
Co154 O158 2.004 . S
Co154 O164 2.021 . S
Co154 O166 2.137 . S
Co154 O167 2.244 . S
O155 Co154 2.216 . S
O155 C162 1.247 . S
O156 Co154 2.091 . S
O156 C162 1.261 . S
C157 O166 1.247 . S
C157 O167 1.272 . S
O158 Co154 2.004 . S
O158 C163 1.259 . S
Co159 O160 2.061 . S
Co159 O165 2.052 . S
Co159 O167 2.135 . S
O160 Co159 2.061 . S
O160 C163 1.235 . S
C161 O164 1.238 . S
C161 O165 1.241 . S
C162 O155 1.247 . S
C162 O156 1.261 . S
C163 O158 1.259 . S
C163 O160 1.235 . S
O164 Co154 2.021 . S
O164 C161 1.238 . S
O165 Co159 2.052 . S
O165 C161 1.241 . S
O166 Co154 2.137 . S
O166 C157 1.247 . S
O167 Co154 2.244 . S
O167 C157 1.272 . S
O167 Co159 2.135 . S
Co168 O169 2.216 . S
Co168 O170 2.091 . S
Co168 O172 2.004 . S
Co168 O178 2.021 . S
Co168 O180 2.137 . S
Co168 O181 2.244 . S
O169 Co168 2.216 . S
O169 C176 1.247 . S
O170 Co168 2.091 . S
O170 C176 1.261 . S
C171 O180 1.247 . S
C171 O181 1.272 . S
O172 Co168 2.004 . S
O172 C177 1.259 . S
Co173 O174 2.061 . S
Co173 O179 2.052 . S
Co173 O181 2.135 . S
O174 Co173 2.061 . S
O174 C177 1.235 . S
C175 O178 1.238 . S
C175 O179 1.241 . S
C176 O169 1.247 . S
C176 O170 1.261 . S
C177 O172 1.259 . S
C177 O174 1.235 . S
O178 Co168 2.021 . S
O178 C175 1.238 . S
O179 Co173 2.052 . S
O179 C175 1.241 . S
O180 Co168 2.137 . S
O180 C171 1.247 . S
O181 Co168 2.244 . S
O181 C171 1.272 . S
O181 Co173 2.135 . S
Co182 O183 2.216 . S
Co182 O184 2.091 . S
Co182 O186 2.004 . S
Co182 O192 2.021 . S
Co182 O194 2.137 . S
Co182 O195 2.244 . S
O183 Co182 2.216 . S
O183 C190 1.247 . S
O184 Co182 2.091 . S
O184 C190 1.261 . S
C185 O194 1.247 . S
C185 O195 1.272 . S
O186 Co182 2.004 . S
O186 C191 1.259 . S
Co187 O188 2.061 . S
Co187 O193 2.052 . S
Co187 O195 2.135 . S
O188 Co187 2.061 . S
O188 C191 1.235 . S
C189 O192 1.238 . S
C189 O193 1.241 . S
C190 O183 1.247 . S
C190 O184 1.261 . S
C191 O186 1.259 . S
C191 O188 1.235 . S
O192 Co182 2.021 . S
O192 C189 1.238 . S
O193 Co187 2.052 . S
O193 C189 1.241 . S
O194 Co182 2.137 . S
O194 C185 1.247 . S
O195 Co182 2.244 . S
O195 C185 1.272 . S
O195 Co187 2.135 . S
Co196 O197 2.216 . S
Co196 O198 2.091 . S
Co196 O200 2.004 . S
Co196 O206 2.021 . S
Co196 O208 2.137 . S
Co196 O209 2.244 . S
O197 Co196 2.216 . S
O197 C204 1.247 . S
O198 Co196 2.091 . S
O198 C204 1.261 . S
C199 O208 1.247 . S
C199 O209 1.272 . S
O200 Co196 2.004 . S
O200 C205 1.259 . S
Co201 O202 2.061 . S
Co201 O207 2.052 . S
Co201 O209 2.135 . S
O202 Co201 2.061 . S
O202 C205 1.235 . S
C203 O206 1.238 . S
C203 O207 1.241 . S
C204 O197 1.247 . S
C204 O198 1.261 . S
C205 O200 1.259 . S
C205 O202 1.235 . S
O206 Co196 2.021 . S
O206 C203 1.238 . S
O207 Co201 2.052 . S
O207 C203 1.241 . S
O208 Co196 2.137 . S
O208 C199 1.247 . S
O209 Co196 2.244 . S
O209 C199 1.272 . S
O209 Co201 2.135 . S
Co210 O211 2.216 . S
Co210 O212 2.091 . S
Co210 O214 2.004 . S
Co210 O220 2.021 . S
Co210 O222 2.137 . S
Co210 O223 2.244 . S
O211 Co210 2.216 . S
O211 C218 1.247 . S
O212 Co210 2.091 . S
O212 C218 1.261 . S
C213 O222 1.247 . S
C213 O223 1.272 . S
O214 Co210 2.004 . S
O214 C219 1.259 . S
Co215 O216 2.061 . S
Co215 O221 2.052 . S
Co215 O223 2.135 . S
O216 Co215 2.061 . S
O216 C219 1.235 . S
C217 O220 1.238 . S
C217 O221 1.241 . S
C218 O211 1.247 . S
C218 O212 1.261 . S
C219 O214 1.259 . S
C219 O216 1.235 . S
O220 Co210 2.021 . S
O220 C217 1.238 . S
O221 Co215 2.052 . S
O221 C217 1.241 . S
O222 Co210 2.137 . S
O222 C213 1.247 . S
O223 Co210 2.244 . S
O223 C213 1.272 . S
O223 Co215 2.135 . S
H224 C236 0.930 . S
H225 C238 0.930 . S
H226 C239 0.930 . S
H227 C243 0.959 . S
H228 C243 0.959 . S
H229 C243 0.961 . S
H230 C244 0.960 . S
H231 C244 0.961 . S
H232 C244 0.959 . S
H233 C247 0.929 . S
H234 C248 0.931 . S
H235 C250 0.930 . S
C236 H224 0.930 . S
C236 C237 1.399 . S
C236 C241 1.399 . S
C237 C236 1.399 . S
C237 C238 1.376 . S
C238 H225 0.930 . S
C238 C237 1.376 . S
C238 C239 1.388 . S
C239 H226 0.930 . S
C239 C238 1.388 . S
C239 C240 1.390 . S
C240 C239 1.390 . S
C240 C241 1.394 . S
C240 C246 1.465 . S
C241 C236 1.399 . S
C241 C240 1.394 . S
C241 C242 1.516 . S
C242 C241 1.516 . S
C242 C243 1.502 . S
C242 C244 1.561 . S
C242 C245 1.526 . S
C243 H227 0.959 . S
C243 H228 0.959 . S
C243 H229 0.961 . S
C243 C242 1.502 . S
C244 H230 0.960 . S
C244 H231 0.961 . S
C244 H232 0.959 . S
C244 C242 1.561 . S
C245 C242 1.526 . S
C245 C246 1.396 . S
C245 C250 1.390 . S
C246 C240 1.465 . S
C246 C245 1.396 . S
C246 C247 1.399 . S
C247 H233 0.929 . S
C247 C246 1.399 . S
C247 C248 1.385 . S
C248 H234 0.931 . S
C248 C247 1.385 . S
C248 C249 1.389 . S
C249 C248 1.389 . S
C249 C250 1.387 . S
C250 H235 0.930 . S
C250 C245 1.390 . S
C250 C249 1.387 . S
H251 C263 0.930 . S
H252 C265 0.930 . S
H253 C266 0.930 . S
H254 C270 0.959 . S
H255 C270 0.959 . S
H256 C270 0.961 . S
H257 C271 0.960 . S
H258 C271 0.961 . S
H259 C271 0.959 . S
H260 C274 0.929 . S
H261 C275 0.931 . S
H262 C277 0.930 . S
C263 H251 0.930 . S
C263 C264 1.399 . S
C263 C268 1.399 . S
C264 C263 1.399 . S
C264 C265 1.376 . S
C265 H252 0.930 . S
C265 C264 1.376 . S
C265 C266 1.388 . S
C266 H253 0.930 . S
C266 C265 1.388 . S
C266 C267 1.390 . S
C267 C266 1.390 . S
C267 C268 1.394 . S
C267 C273 1.465 . S
C268 C263 1.399 . S
C268 C267 1.394 . S
C268 C269 1.516 . S
C269 C268 1.516 . S
C269 C270 1.502 . S
C269 C271 1.561 . S
C269 C272 1.526 . S
C270 H254 0.959 . S
C270 H255 0.959 . S
C270 H256 0.961 . S
C270 C269 1.502 . S
C271 H257 0.960 . S
C271 H258 0.961 . S
C271 H259 0.959 . S
C271 C269 1.561 . S
C272 C269 1.526 . S
C272 C273 1.396 . S
C272 C277 1.390 . S
C273 C267 1.465 . S
C273 C272 1.396 . S
C273 C274 1.399 . S
C274 H260 0.929 . S
C274 C273 1.399 . S
C274 C275 1.385 . S
C275 H261 0.931 . S
C275 C274 1.385 . S
C275 C276 1.389 . S
C276 C275 1.389 . S
C276 C277 1.387 . S
C277 H262 0.930 . S
C277 C272 1.390 . S
C277 C276 1.387 . S
H278 C290 0.930 . S
H279 C292 0.930 . S
H280 C293 0.930 . S
H281 C297 0.959 . S
H282 C297 0.959 . S
H283 C297 0.961 . S
H284 C298 0.960 . S
H285 C298 0.961 . S
H286 C298 0.959 . S
H287 C301 0.929 . S
H288 C302 0.931 . S
H289 C304 0.930 . S
C290 H278 0.930 . S
C290 C291 1.399 . S
C290 C295 1.399 . S
C291 C290 1.399 . S
C291 C292 1.376 . S
C292 H279 0.930 . S
C292 C291 1.376 . S
C292 C293 1.388 . S
C293 H280 0.930 . S
C293 C292 1.388 . S
C293 C294 1.390 . S
C294 C293 1.390 . S
C294 C295 1.394 . S
C294 C300 1.465 . S
C295 C290 1.399 . S
C295 C294 1.394 . S
C295 C296 1.516 . S
C296 C295 1.516 . S
C296 C297 1.502 . S
C296 C298 1.561 . S
C296 C299 1.526 . S
C297 H281 0.959 . S
C297 H282 0.959 . S
C297 H283 0.961 . S
C297 C296 1.502 . S
C298 H284 0.960 . S
C298 H285 0.961 . S
C298 H286 0.959 . S
C298 C296 1.561 . S
C299 C296 1.526 . S
C299 C300 1.396 . S
C299 C304 1.390 . S
C300 C294 1.465 . S
C300 C299 1.396 . S
C300 C301 1.399 . S
C301 H287 0.929 . S
C301 C300 1.399 . S
C301 C302 1.385 . S
C302 H288 0.931 . S
C302 C301 1.385 . S
C302 C303 1.389 . S
C303 C302 1.389 . S
C303 C304 1.387 . S
C304 H289 0.930 . S
C304 C299 1.390 . S
C304 C303 1.387 . S
H305 C317 0.930 . S
H306 C319 0.930 . S
H307 C320 0.930 . S
H308 C324 0.959 . S
H309 C324 0.955 . S
H310 C324 0.965 1_455 S
H311 C325 0.945 1_455 S
H312 C325 0.975 . S
H313 C325 0.961 . S
H314 C328 0.929 . S
H315 C329 0.931 . S
H316 C331 0.930 . S
C317 H305 0.930 . S
C317 C318 1.399 . S
C317 C322 1.399 . S
C318 C317 1.399 . S
C318 C319 1.376 . S
C319 H306 0.930 . S
C319 C318 1.376 . S
C319 C320 1.388 . S
C320 H307 0.930 . S
C320 C319 1.388 . S
C320 C321 1.390 . S
C321 C320 1.390 . S
C321 C322 1.394 . S
C321 C327 1.465 1_455 S
C322 C317 1.399 . S
C322 C321 1.394 . S
C322 C323 1.525 . S
C323 C322 1.525 . S
C323 C324 1.502 1_455 S
C323 C325 1.561 1_455 S
C323 C326 1.517 1_455 S
C324 H308 0.959 . S
C324 H309 0.955 . S
C324 H310 0.965 1_655 S
C324 C323 1.502 1_655 S
C325 H311 0.945 1_655 S
C325 H312 0.975 . S
C325 H313 0.961 . S
C325 C323 1.561 1_655 S
C326 C323 1.517 1_655 S
C326 C327 1.396 . S
C326 C331 1.390 . S
C327 C321 1.465 1_655 S
C327 C326 1.396 . S
C327 C328 1.399 . S
C328 H314 0.929 . S
C328 C327 1.399 . S
C328 C329 1.385 . S
C329 H315 0.931 . S
C329 C328 1.385 . S
C329 C330 1.389 . S
C330 C329 1.389 . S
C330 C331 1.387 . S
C331 H316 0.930 . S
C331 C326 1.390 . S
C331 C330 1.387 . S
H332 C344 0.930 . S
H333 C346 0.930 . S
H334 C347 0.930 . S
H335 C351 0.959 . S
H336 C351 0.959 . S
H337 C351 0.961 . S
H338 C352 0.960 . S
H339 C352 0.961 . S
H340 C352 0.959 . S
H341 C355 0.929 . S
H342 C356 0.931 . S
H343 C358 0.930 . S
C344 H332 0.930 . S
C344 C345 1.399 . S
C344 C349 1.399 . S
C345 C344 1.399 . S
C345 C346 1.376 . S
C346 H333 0.930 . S
C346 C345 1.376 . S
C346 C347 1.388 . S
C347 H334 0.930 . S
C347 C346 1.388 . S
C347 C348 1.390 . S
C348 C347 1.390 . S
C348 C349 1.394 . S
C348 C354 1.465 . S
C349 C344 1.399 . S
C349 C348 1.394 . S
C349 C350 1.516 . S
C350 C349 1.516 . S
C350 C351 1.502 . S
C350 C352 1.561 . S
C350 C353 1.526 . S
C351 H335 0.959 . S
C351 H336 0.959 . S
C351 H337 0.961 . S
C351 C350 1.502 . S
C352 H338 0.960 . S
C352 H339 0.961 . S
C352 H340 0.959 . S
C352 C350 1.561 . S
C353 C350 1.526 . S
C353 C354 1.396 . S
C353 C358 1.390 . S
C354 C348 1.465 . S
C354 C353 1.396 . S
C354 C355 1.399 . S
C355 H341 0.929 . S
C355 C354 1.399 . S
C355 C356 1.385 . S
C356 H342 0.931 . S
C356 C355 1.385 . S
C356 C357 1.389 . S
C357 C356 1.389 . S
C357 C358 1.387 . S
C358 H343 0.930 . S
C358 C353 1.390 . S
C358 C357 1.387 . S
H359 C371 0.930 . S
H360 C373 0.930 . S
H361 C374 0.930 . S
H362 C378 0.959 . S
H363 C378 0.959 . S
H364 C378 0.961 1_655 S
H365 C379 0.960 1_655 S
H366 C379 0.961 . S
H367 C379 0.959 . S
H368 C382 0.929 . S
H369 C383 0.931 . S
H370 C385 0.930 . S
C371 H359 0.930 . S
C371 C372 1.399 . S
C371 C376 1.399 . S
C372 C371 1.399 . S
C372 C373 1.376 . S
C373 H360 0.930 . S
C373 C372 1.376 . S
C373 C374 1.388 . S
C374 H361 0.930 . S
C374 C373 1.388 . S
C374 C375 1.390 . S
C375 C374 1.390 . S
C375 C376 1.394 . S
C375 C381 1.465 1_655 S
C376 C371 1.399 . S
C376 C375 1.394 . S
C376 C377 1.516 1_655 S
C377 C376 1.516 1_455 S
C377 C378 1.502 . S
C377 C379 1.561 . S
C377 C380 1.526 . S
C378 H362 0.959 . S
C378 H363 0.959 . S
C378 H364 0.961 1_455 S
C378 C377 1.502 . S
C379 H365 0.960 1_455 S
C379 H366 0.961 . S
C379 H367 0.959 . S
C379 C377 1.561 . S
C380 C377 1.526 . S
C380 C381 1.396 . S
C380 C385 1.390 . S
C381 C375 1.465 1_455 S
C381 C380 1.396 . S
C381 C382 1.399 . S
C382 H368 0.929 . S
C382 C381 1.399 . S
C382 C383 1.385 . S
C383 H369 0.931 . S
C383 C382 1.385 . S
C383 C384 1.389 . S
C384 C383 1.389 . S
C384 C385 1.387 . S
C385 H370 0.930 . S
C385 C380 1.390 . S
C385 C384 1.387 . S
H386 C398 0.930 . S
H387 C400 0.930 . S
H388 C401 0.930 . S
H389 C405 0.959 . S
H390 C405 0.959 . S
H391 C405 0.961 . S
H392 C406 0.960 . S
H393 C406 0.961 . S
H394 C406 0.959 . S
H395 C409 0.929 . S
H396 C410 0.931 . S
H397 C412 0.930 . S
C398 H386 0.930 . S
C398 C399 1.399 . S
C398 C403 1.399 . S
C399 C398 1.399 . S
C399 C400 1.376 . S
C400 H387 0.930 . S
C400 C399 1.376 . S
C400 C401 1.388 . S
C401 H388 0.930 . S
C401 C400 1.388 . S
C401 C402 1.390 . S
C402 C401 1.390 . S
C402 C403 1.394 . S
C402 C408 1.465 . S
C403 C398 1.399 . S
C403 C402 1.394 . S
C403 C404 1.516 . S
C404 C403 1.516 . S
C404 C405 1.502 . S
C404 C406 1.561 . S
C404 C407 1.526 . S
C405 H389 0.959 . S
C405 H390 0.959 . S
C405 H391 0.961 . S
C405 C404 1.502 . S
C406 H392 0.960 . S
C406 H393 0.961 . S
C406 H394 0.959 . S
C406 C404 1.561 . S
C407 C404 1.526 . S
C407 C408 1.396 . S
C407 C412 1.390 . S
C408 C402 1.465 . S
C408 C407 1.396 . S
C408 C409 1.399 . S
C409 H395 0.929 . S
C409 C408 1.399 . S
C409 C410 1.385 . S
C410 H396 0.931 . S
C410 C409 1.385 . S
C410 C411 1.389 . S
C411 C410 1.389 . S
C411 C412 1.387 . S
C412 H397 0.930 . S
C412 C407 1.390 . S
C412 C411 1.387 . S
H413 C425 0.930 . S
H414 C427 0.930 . S
H415 C428 0.930 . S
H416 C432 0.959 . S
H417 C432 0.959 . S
H418 C432 0.961 . S
H419 C433 0.960 . S
H420 C433 0.961 . S
H421 C433 0.959 . S
H422 C436 0.929 . S
H423 C437 0.931 . S
H424 C439 0.930 . S
C425 H413 0.930 . S
C425 C426 1.399 . S
C425 C430 1.399 . S
C426 C425 1.399 . S
C426 C427 1.376 . S
C427 H414 0.930 . S
C427 C426 1.376 . S
C427 C428 1.388 . S
C428 H415 0.930 . S
C428 C427 1.388 . S
C428 C429 1.390 . S
C429 C428 1.390 . S
C429 C430 1.394 . S
C429 C435 1.465 . S
C430 C425 1.399 . S
C430 C429 1.394 . S
C430 C431 1.516 . S
C431 C430 1.516 . S
C431 C432 1.502 . S
C431 C433 1.561 . S
C431 C434 1.526 . S
C432 H416 0.959 . S
C432 H417 0.959 . S
C432 H418 0.961 . S
C432 C431 1.502 . S
C433 H419 0.960 . S
C433 H420 0.961 . S
C433 H421 0.959 . S
C433 C431 1.561 . S
C434 C431 1.526 . S
C434 C435 1.396 . S
C434 C439 1.390 . S
C435 C429 1.465 . S
C435 C434 1.396 . S
C435 C436 1.399 . S
C436 H422 0.929 . S
C436 C435 1.399 . S
C436 C437 1.385 . S
C437 H423 0.931 . S
C437 C436 1.385 . S
C437 C438 1.389 . S
C438 C437 1.389 . S
C438 C439 1.387 . S
C439 H424 0.930 . S
C439 C434 1.390 . S
C439 C438 1.387 . S
H440 C452 0.930 . S
H441 C454 0.930 . S
H442 C455 0.930 . S
H443 C459 0.959 . S
H444 C459 0.959 . S
H445 C459 0.961 . S
H446 C460 0.960 . S
H447 C460 0.961 . S
H448 C460 0.959 . S
H449 C463 0.929 . S
H450 C464 0.931 . S
H451 C466 0.930 . S
C452 H440 0.930 . S
C452 C453 1.399 . S
C452 C457 1.399 . S
C453 C452 1.399 . S
C453 C454 1.376 . S
C454 H441 0.930 . S
C454 C453 1.376 . S
C454 C455 1.388 . S
C455 H442 0.930 . S
C455 C454 1.388 . S
C455 C456 1.390 . S
C456 C455 1.390 . S
C456 C457 1.394 . S
C456 C462 1.465 . S
C457 C452 1.399 . S
C457 C456 1.394 . S
C457 C458 1.516 . S
C458 C457 1.516 . S
C458 C459 1.502 . S
C458 C460 1.561 . S
C458 C461 1.526 . S
C459 H443 0.959 . S
C459 H444 0.959 . S
C459 H445 0.961 . S
C459 C458 1.502 . S
C460 H446 0.960 . S
C460 H447 0.961 . S
C460 H448 0.959 . S
C460 C458 1.561 . S
C461 C458 1.526 . S
C461 C462 1.396 . S
C461 C466 1.390 . S
C462 C456 1.465 . S
C462 C461 1.396 . S
C462 C463 1.399 . S
C463 H449 0.929 . S
C463 C462 1.399 . S
C463 C464 1.385 . S
C464 H450 0.931 . S
C464 C463 1.385 . S
C464 C465 1.389 . S
C465 C464 1.389 . S
C465 C466 1.387 . S
C466 H451 0.930 . S
C466 C461 1.390 . S
C466 C465 1.387 . S
H467 C479 0.930 . S
H468 C481 0.930 . S
H469 C482 0.930 . S
H470 C486 0.959 . S
H471 C486 0.959 . S
H472 C486 0.961 . S
H473 C487 0.960 . S
H474 C487 0.961 . S
H475 C487 0.959 . S
H476 C490 0.929 . S
H477 C491 0.931 . S
H478 C493 0.930 . S
C479 H467 0.930 . S
C479 C480 1.399 . S
C479 C484 1.399 . S
C480 C479 1.399 . S
C480 C481 1.376 . S
C481 H468 0.930 . S
C481 C480 1.376 . S
C481 C482 1.388 . S
C482 H469 0.930 . S
C482 C481 1.388 . S
C482 C483 1.390 . S
C483 C482 1.390 . S
C483 C484 1.394 . S
C483 C489 1.465 . S
C484 C479 1.399 . S
C484 C483 1.394 . S
C484 C485 1.516 . S
C485 C484 1.516 . S
C485 C486 1.502 . S
C485 C487 1.561 . S
C485 C488 1.526 . S
C486 H470 0.959 . S
C486 H471 0.959 . S
C486 H472 0.961 . S
C486 C485 1.502 . S
C487 H473 0.960 . S
C487 H474 0.961 . S
C487 H475 0.959 . S
C487 C485 1.561 . S
C488 C485 1.526 . S
C488 C489 1.396 . S
C488 C493 1.390 . S
C489 C483 1.465 . S
C489 C488 1.396 . S
C489 C490 1.399 . S
C490 H476 0.929 . S
C490 C489 1.399 . S
C490 C491 1.385 . S
C491 H477 0.931 . S
C491 C490 1.385 . S
C491 C492 1.389 . S
C492 C491 1.389 . S
C492 C493 1.387 . S
C493 H478 0.930 . S
C493 C488 1.390 . S
C493 C492 1.387 . S
H494 C506 0.930 . S
H495 C508 0.930 . S
H496 C509 0.930 . S
H497 C513 0.959 . S
H498 C513 0.959 . S
H499 C513 0.961 . S
H500 C514 0.960 . S
H501 C514 0.961 . S
H502 C514 0.959 . S
H503 C517 0.929 . S
H504 C518 0.931 . S
H505 C520 0.930 . S
C506 H494 0.930 . S
C506 C507 1.399 . S
C506 C511 1.399 . S
C507 C506 1.399 . S
C507 C508 1.376 . S
C508 H495 0.930 . S
C508 C507 1.376 . S
C508 C509 1.388 . S
C509 H496 0.930 . S
C509 C508 1.388 . S
C509 C510 1.390 . S
C510 C509 1.390 . S
C510 C511 1.394 . S
C510 C516 1.465 . S
C511 C506 1.399 . S
C511 C510 1.394 . S
C511 C512 1.516 . S
C512 C511 1.516 . S
C512 C513 1.502 . S
C512 C514 1.561 . S
C512 C515 1.526 . S
C513 H497 0.959 . S
C513 H498 0.959 . S
C513 H499 0.961 . S
C513 C512 1.502 . S
C514 H500 0.960 . S
C514 H501 0.961 . S
C514 H502 0.959 . S
C514 C512 1.561 . S
C515 C512 1.526 . S
C515 C516 1.396 . S
C515 C520 1.390 . S
C516 C510 1.465 . S
C516 C515 1.396 . S
C516 C517 1.399 . S
C517 H503 0.929 . S
C517 C516 1.399 . S
C517 C518 1.385 . S
C518 H504 0.931 . S
C518 C517 1.385 . S
C518 C519 1.389 . S
C519 C518 1.389 . S
C519 C520 1.387 . S
C520 H505 0.930 . S
C520 C515 1.390 . S
C520 C519 1.387 . S
H521 C533 0.930 . S
H522 C535 0.930 . S
H523 C536 0.930 . S
H524 C540 0.959 . S
H525 C540 0.959 . S
H526 C540 0.961 . S
H527 C541 0.960 . S
H528 C541 0.961 . S
H529 C541 0.959 . S
H530 C544 0.929 . S
H531 C545 0.931 . S
H532 C547 0.930 . S
C533 H521 0.930 . S
C533 C534 1.399 . S
C533 C538 1.399 . S
C534 C533 1.399 . S
C534 C535 1.376 . S
C535 H522 0.930 . S
C535 C534 1.376 . S
C535 C536 1.388 . S
C536 H523 0.930 . S
C536 C535 1.388 . S
C536 C537 1.390 . S
C537 C536 1.390 . S
C537 C538 1.394 . S
C537 C543 1.465 . S
C538 C533 1.399 . S
C538 C537 1.394 . S
C538 C539 1.516 . S
C539 C538 1.516 . S
C539 C540 1.502 . S
C539 C541 1.561 . S
C539 C542 1.526 . S
C540 H524 0.959 . S
C540 H525 0.959 . S
C540 H526 0.961 . S
C540 C539 1.502 . S
C541 H527 0.960 . S
C541 H528 0.961 . S
C541 H529 0.959 . S
C541 C539 1.561 . S
C542 C539 1.526 . S
C542 C543 1.396 . S
C542 C547 1.390 . S
C543 C537 1.465 . S
C543 C542 1.396 . S
C543 C544 1.399 . S
C544 H530 0.929 . S
C544 C543 1.399 . S
C544 C545 1.385 . S
C545 H531 0.931 . S
C545 C544 1.385 . S
C545 C546 1.389 . S
C546 C545 1.389 . S
C546 C547 1.387 . S
C547 H532 0.930 . S
C547 C542 1.390 . S
C547 C546 1.387 . S
H548 C560 0.930 . S
H549 C562 0.930 . S
H550 C563 0.930 . S
H551 C567 0.959 . S
H552 C567 0.959 . S
H553 C567 0.961 1_455 S
H554 C568 0.960 1_455 S
H555 C568 0.961 . S
H556 C568 0.959 . S
H557 C571 0.929 . S
H558 C572 0.931 . S
H559 C574 0.930 . S
C560 H548 0.930 . S
C560 C561 1.399 . S
C560 C565 1.399 . S
C561 C560 1.399 . S
C561 C562 1.376 . S
C562 H549 0.930 . S
C562 C561 1.376 . S
C562 C563 1.388 . S
C563 H550 0.930 . S
C563 C562 1.388 . S
C563 C564 1.390 . S
C564 C563 1.390 . S
C564 C565 1.394 . S
C564 C570 1.465 1_455 S
C565 C560 1.399 . S
C565 C564 1.394 . S
C565 C566 1.516 1_455 S
C566 C565 1.516 1_655 S
C566 C567 1.502 . S
C566 C568 1.561 . S
C566 C569 1.526 . S
C567 H551 0.959 . S
C567 H552 0.959 . S
C567 H553 0.961 1_655 S
C567 C566 1.502 . S
C568 H554 0.960 1_655 S
C568 H555 0.961 . S
C568 H556 0.959 . S
C568 C566 1.561 . S
C569 C566 1.526 . S
C569 C570 1.396 . S
C569 C574 1.390 . S
C570 C564 1.465 1_655 S
C570 C569 1.396 . S
C570 C571 1.399 . S
C571 H557 0.929 . S
C571 C570 1.399 . S
C571 C572 1.385 . S
C572 H558 0.931 . S
C572 C571 1.385 . S
C572 C573 1.389 . S
C573 C572 1.389 . S
C573 C574 1.387 . S
C574 H559 0.930 . S
C574 C569 1.390 . S
C574 C573 1.387 . S
H575 C587 0.930 . S
H576 C589 0.930 . S
H577 C590 0.930 . S
H578 C594 0.959 . S
H579 C594 0.959 . S
H580 C594 0.961 . S
H581 C595 0.960 . S
H582 C595 0.961 . S
H583 C595 0.959 . S
H584 C598 0.929 . S
H585 C599 0.931 . S
H586 C601 0.930 . S
C587 H575 0.930 . S
C587 C588 1.399 . S
C587 C592 1.399 . S
C588 C587 1.399 . S
C588 C589 1.376 . S
C589 H576 0.930 . S
C589 C588 1.376 . S
C589 C590 1.388 . S
C590 H577 0.930 . S
C590 C589 1.388 . S
C590 C591 1.390 . S
C591 C590 1.390 . S
C591 C592 1.394 . S
C591 C597 1.465 . S
C592 C587 1.399 . S
C592 C591 1.394 . S
C592 C593 1.516 . S
C593 C592 1.516 . S
C593 C594 1.502 . S
C593 C595 1.561 . S
C593 C596 1.526 . S
C594 H578 0.959 . S
C594 H579 0.959 . S
C594 H580 0.961 . S
C594 C593 1.502 . S
C595 H581 0.960 . S
C595 H582 0.961 . S
C595 H583 0.959 . S
C595 C593 1.561 . S
C596 C593 1.526 . S
C596 C597 1.396 . S
C596 C601 1.390 . S
C597 C591 1.465 . S
C597 C596 1.396 . S
C597 C598 1.399 . S
C598 H584 0.929 . S
C598 C597 1.399 . S
C598 C599 1.385 . S
C599 H585 0.931 . S
C599 C598 1.385 . S
C599 C600 1.389 . S
C600 C599 1.389 . S
C600 C601 1.387 . S
C601 H586 0.930 . S
C601 C596 1.390 . S
C601 C600 1.387 . S
H602 C614 0.930 . S
H603 C616 0.930 . S
H604 C617 0.930 . S
H605 C621 0.959 . S
H606 C621 0.959 . S
H607 C621 0.961 . S
H608 C622 0.960 . S
H609 C622 0.961 . S
H610 C622 0.959 . S
H611 C625 0.929 . S
H612 C626 0.931 . S
H613 C628 0.930 . S
C614 H602 0.930 . S
C614 C615 1.399 . S
C614 C619 1.399 . S
C615 C614 1.399 . S
C615 C616 1.376 . S
C616 H603 0.930 . S
C616 C615 1.376 . S
C616 C617 1.388 . S
C617 H604 0.930 . S
C617 C616 1.388 . S
C617 C618 1.390 . S
C618 C617 1.390 . S
C618 C619 1.394 . S
C618 C624 1.465 . S
C619 C614 1.399 . S
C619 C618 1.394 . S
C619 C620 1.516 . S
C620 C619 1.516 . S
C620 C621 1.502 . S
C620 C622 1.561 . S
C620 C623 1.526 . S
C621 H605 0.959 . S
C621 H606 0.959 . S
C621 H607 0.961 . S
C621 C620 1.502 . S
C622 H608 0.960 . S
C622 H609 0.961 . S
C622 H610 0.959 . S
C622 C620 1.561 . S
C623 C620 1.526 . S
C623 C624 1.396 . S
C623 C628 1.390 . S
C624 C618 1.465 . S
C624 C623 1.396 . S
C624 C625 1.399 . S
C625 H611 0.929 . S
C625 C624 1.399 . S
C625 C626 1.385 . S
C626 H612 0.931 . S
C626 C625 1.385 . S
C626 C627 1.389 . S
C627 C626 1.389 . S
C627 C628 1.387 . S
C628 H613 0.930 . S
C628 C623 1.390 . S
C628 C627 1.387 . S
H629 C641 0.930 . S
H630 C643 0.930 . S
H631 C644 0.930 . S
H632 C648 0.959 . S
H633 C648 0.959 . S
H634 C648 0.961 1_455 S
H635 C649 0.960 1_455 S
H636 C649 0.961 . S
H637 C649 0.959 . S
H638 C652 0.929 . S
H639 C653 0.931 . S
H640 C655 0.930 . S
C641 H629 0.930 . S
C641 C642 1.399 . S
C641 C646 1.399 . S
C642 C641 1.399 . S
C642 C643 1.376 . S
C643 H630 0.930 . S
C643 C642 1.376 . S
C643 C644 1.388 . S
C644 H631 0.930 . S
C644 C643 1.388 . S
C644 C645 1.390 . S
C645 C644 1.390 . S
C645 C646 1.394 . S
C645 C651 1.465 1_455 S
C646 C641 1.399 . S
C646 C645 1.394 . S
C646 C647 1.516 1_455 S
C647 C646 1.516 1_655 S
C647 C648 1.502 . S
C647 C649 1.561 . S
C647 C650 1.526 . S
C648 H632 0.959 . S
C648 H633 0.959 . S
C648 H634 0.961 1_655 S
C648 C647 1.502 . S
C649 H635 0.960 1_655 S
C649 H636 0.961 . S
C649 H637 0.959 . S
C649 C647 1.561 . S
C650 C647 1.526 . S
C650 C651 1.396 . S
C650 C655 1.390 . S
C651 C645 1.465 1_655 S
C651 C650 1.396 . S
C651 C652 1.399 . S
C652 H638 0.929 . S
C652 C651 1.399 . S
C652 C653 1.385 . S
C653 H639 0.931 . S
C653 C652 1.385 . S
C653 C654 1.389 . S
C654 C653 1.389 . S
C654 C655 1.387 . S
C655 H640 0.930 . S
C655 C650 1.390 . S
C655 C654 1.387 . S
H656 C668 0.930 . S
H657 C670 0.930 . S
H658 C671 0.930 . S
H659 C675 0.959 . S
H660 C675 0.959 . S
H661 C675 0.961 . S
H662 C676 0.960 . S
H663 C676 0.961 . S
H664 C676 0.959 . S
H665 C679 0.929 . S
H666 C680 0.931 . S
H667 C682 0.930 . S
C668 H656 0.930 . S
C668 C669 1.399 . S
C668 C673 1.399 . S
C669 C668 1.399 . S
C669 C670 1.376 . S
C670 H657 0.930 . S
C670 C669 1.376 . S
C670 C671 1.388 . S
C671 H658 0.930 . S
C671 C670 1.388 . S
C671 C672 1.390 . S
C672 C671 1.390 . S
C672 C673 1.394 . S
C672 C678 1.456 1_554 S
C673 C668 1.399 . S
C673 C672 1.394 . S
C673 C674 1.516 1_554 S
C674 C673 1.516 1_556 S
C674 C675 1.502 . S
C674 C676 1.561 . S
C674 C677 1.526 . S
C675 H659 0.959 . S
C675 H660 0.959 . S
C675 H661 0.961 . S
C675 C674 1.502 . S
C676 H662 0.960 . S
C676 H663 0.961 . S
C676 H664 0.959 . S
C676 C674 1.561 . S
C677 C674 1.526 . S
C677 C678 1.408 . S
C677 C682 1.390 . S
C678 C672 1.456 1_556 S
C678 C677 1.408 . S
C678 C679 1.398 1_556 S
C679 H665 0.929 . S
C679 C678 1.398 1_554 S
C679 C680 1.385 1_554 S
C680 H666 0.931 . S
C680 C679 1.385 1_556 S
C680 C681 1.389 . S
C681 C680 1.389 . S
C681 C682 1.387 . S
C682 H667 0.930 . S
C682 C677 1.390 . S
C682 C681 1.387 . S
H683 C695 0.930 . S
H684 C697 0.930 . S
H685 C698 0.930 . S
H686 C702 0.959 . S
H687 C702 0.959 . S
H688 C702 0.961 . S
H689 C703 0.960 . S
H690 C703 0.961 . S
H691 C703 0.959 . S
H692 C706 0.929 . S
H693 C707 0.931 . S
H694 C709 0.930 . S
C695 H683 0.930 . S
C695 C696 1.399 . S
C695 C700 1.399 . S
C696 C695 1.399 . S
C696 C697 1.376 . S
C697 H684 0.930 . S
C697 C696 1.376 . S
C697 C698 1.388 . S
C698 H685 0.930 . S
C698 C697 1.388 . S
C698 C699 1.390 . S
C699 C698 1.390 . S
C699 C700 1.394 . S
C699 C705 1.465 . S
C700 C695 1.399 . S
C700 C699 1.394 . S
C700 C701 1.516 . S
C701 C700 1.516 . S
C701 C702 1.502 . S
C701 C703 1.561 . S
C701 C704 1.526 . S
C702 H686 0.959 . S
C702 H687 0.959 . S
C702 H688 0.961 . S
C702 C701 1.502 . S
C703 H689 0.960 . S
C703 H690 0.961 . S
C703 H691 0.959 . S
C703 C701 1.561 . S
C704 C701 1.526 . S
C704 C705 1.396 . S
C704 C709 1.390 . S
C705 C699 1.465 . S
C705 C704 1.396 . S
C705 C706 1.399 . S
C706 H692 0.929 . S
C706 C705 1.399 . S
C706 C707 1.385 . S
C707 H693 0.931 . S
C707 C706 1.385 . S
C707 C708 1.389 . S
C708 C707 1.389 . S
C708 C709 1.387 . S
C709 H694 0.930 . S
C709 C704 1.390 . S
C709 C708 1.387 . S
H710 C722 0.930 . S
H711 C724 0.930 . S
H712 C725 0.930 . S
H713 C729 0.959 . S
H714 C729 0.959 . S
H715 C729 0.961 . S
H716 C730 0.960 . S
H717 C730 0.961 . S
H718 C730 0.959 . S
H719 C733 0.929 . S
H720 C734 0.931 . S
H721 C736 0.930 . S
C722 H710 0.930 . S
C722 C723 1.399 . S
C722 C727 1.399 . S
C723 C722 1.399 . S
C723 C724 1.376 . S
C724 H711 0.930 . S
C724 C723 1.376 . S
C724 C725 1.388 . S
C725 H712 0.930 . S
C725 C724 1.388 . S
C725 C726 1.390 . S
C726 C725 1.390 . S
C726 C727 1.394 . S
C726 C732 1.465 . S
C727 C722 1.399 . S
C727 C726 1.394 . S
C727 C728 1.516 . S
C728 C727 1.516 . S
C728 C729 1.502 . S
C728 C730 1.561 . S
C728 C731 1.526 . S
C729 H713 0.959 . S
C729 H714 0.959 . S
C729 H715 0.961 . S
C729 C728 1.502 . S
C730 H716 0.960 . S
C730 H717 0.961 . S
C730 H718 0.959 . S
C730 C728 1.561 . S
C731 C728 1.526 . S
C731 C732 1.396 . S
C731 C736 1.390 . S
C732 C726 1.465 . S
C732 C731 1.396 . S
C732 C733 1.399 . S
C733 H719 0.929 . S
C733 C732 1.399 . S
C733 C734 1.385 . S
C734 H720 0.931 . S
C734 C733 1.385 . S
C734 C735 1.389 . S
C735 C734 1.389 . S
C735 C736 1.387 . S
C736 H721 0.930 . S
C736 C731 1.390 . S
C736 C735 1.387 . S
H737 C749 0.930 . S
H738 C751 0.930 . S
H739 C752 0.930 . S
H740 C756 0.959 . S
H741 C756 0.959 . S
H742 C756 0.961 . S
H743 C757 0.960 . S
H744 C757 0.961 . S
H745 C757 0.959 . S
H746 C760 0.929 . S
H747 C761 0.931 . S
H748 C763 0.930 . S
C749 H737 0.930 . S
C749 C750 1.399 . S
C749 C754 1.399 . S
C750 C749 1.399 . S
C750 C751 1.376 . S
C751 H738 0.930 . S
C751 C750 1.376 . S
C751 C752 1.388 . S
C752 H739 0.930 . S
C752 C751 1.388 . S
C752 C753 1.390 . S
C753 C752 1.390 . S
C753 C754 1.394 . S
C753 C759 1.465 . S
C754 C749 1.399 . S
C754 C753 1.394 . S
C754 C755 1.516 . S
C755 C754 1.516 . S
C755 C756 1.502 . S
C755 C757 1.561 . S
C755 C758 1.526 . S
C756 H740 0.959 . S
C756 H741 0.959 . S
C756 H742 0.961 . S
C756 C755 1.502 . S
C757 H743 0.960 . S
C757 H744 0.961 . S
C757 H745 0.959 . S
C757 C755 1.561 . S
C758 C755 1.526 . S
C758 C759 1.396 . S
C758 C763 1.390 . S
C759 C753 1.465 . S
C759 C758 1.396 . S
C759 C760 1.399 . S
C760 H746 0.929 . S
C760 C759 1.399 . S
C760 C761 1.385 . S
C761 H747 0.931 . S
C761 C760 1.385 . S
C761 C762 1.389 . S
C762 C761 1.389 . S
C762 C763 1.387 . S
C763 H748 0.930 . S
C763 C758 1.390 . S
C763 C762 1.387 . S
H764 C776 0.930 . S
H765 C778 0.930 . S
H766 C779 0.930 . S
H767 C783 0.959 . S
H768 C783 0.959 . S
H769 C783 0.961 . S
H770 C784 0.960 . S
H771 C784 0.961 . S
H772 C784 0.959 . S
H773 C787 0.929 1_556 S
H774 C788 0.931 . S
H775 C790 0.930 . S
C776 H764 0.930 . S
C776 C777 1.399 . S
C776 C781 1.399 . S
C777 C776 1.399 . S
C777 C778 1.376 . S
C778 H765 0.930 . S
C778 C777 1.376 . S
C778 C779 1.388 . S
C779 H766 0.930 . S
C779 C778 1.388 . S
C779 C780 1.390 . S
C780 C779 1.390 . S
C780 C781 1.394 . S
C780 C786 1.465 1_556 S
C781 C776 1.399 . S
C781 C780 1.394 . S
C781 C782 1.516 1_556 S
C782 C781 1.516 1_554 S
C782 C783 1.502 . S
C782 C784 1.561 . S
C782 C785 1.526 . S
C783 H767 0.959 . S
C783 H768 0.959 . S
C783 H769 0.961 . S
C783 C782 1.502 . S
C784 H770 0.960 . S
C784 H771 0.961 . S
C784 H772 0.959 . S
C784 C782 1.561 . S
C785 C782 1.526 . S
C785 C786 1.396 . S
C785 C790 1.390 . S
C786 C780 1.465 1_554 S
C786 C785 1.396 . S
C786 C787 1.399 . S
C787 H773 0.929 1_554 S
C787 C786 1.399 . S
C787 C788 1.385 . S
C788 H774 0.931 . S
C788 C787 1.385 . S
C788 C789 1.389 . S
C789 C788 1.389 . S
C789 C790 1.387 . S
C790 H775 0.930 . S
C790 C785 1.390 . S
C790 C789 1.387 . S
H791 C803 0.930 . S
H792 C805 0.930 . S
H793 C806 0.930 . S
H794 C810 0.959 . S
H795 C810 0.959 . S
H796 C810 0.961 . S
H797 C811 0.960 . S
H798 C811 0.961 . S
H799 C811 0.959 . S
H800 C814 0.929 . S
H801 C815 0.931 . S
H802 C817 0.930 . S
C803 H791 0.930 . S
C803 C804 1.399 . S
C803 C808 1.399 . S
C804 C803 1.399 . S
C804 C805 1.376 . S
C805 H792 0.930 . S
C805 C804 1.376 . S
C805 C806 1.388 . S
C806 H793 0.930 . S
C806 C805 1.388 . S
C806 C807 1.390 . S
C807 C806 1.390 . S
C807 C808 1.394 . S
C807 C813 1.465 . S
C808 C803 1.399 . S
C808 C807 1.394 . S
C808 C809 1.516 . S
C809 C808 1.516 . S
C809 C810 1.502 . S
C809 C811 1.561 . S
C809 C812 1.526 . S
C810 H794 0.959 . S
C810 H795 0.959 . S
C810 H796 0.961 . S
C810 C809 1.502 . S
C811 H797 0.960 . S
C811 H798 0.961 . S
C811 H799 0.959 . S
C811 C809 1.561 . S
C812 C809 1.526 . S
C812 C813 1.396 . S
C812 C817 1.390 . S
C813 C807 1.465 . S
C813 C812 1.396 . S
C813 C814 1.399 . S
C814 H800 0.929 . S
C814 C813 1.399 . S
C814 C815 1.385 . S
C815 H801 0.931 . S
C815 C814 1.385 . S
C815 C816 1.389 . S
C816 C815 1.389 . S
C816 C817 1.387 . S
C817 H802 0.930 . S
C817 C812 1.390 . S
C817 C816 1.387 . S
H818 C830 0.930 . S
H819 C832 0.930 . S
H820 C833 0.930 . S
H821 C837 0.959 . S
H822 C837 0.959 . S
H823 C837 0.961 . S
H824 C838 0.960 . S
H825 C838 0.961 . S
H826 C838 0.959 . S
H827 C841 0.929 . S
H828 C842 0.931 . S
H829 C844 0.930 . S
C830 H818 0.930 . S
C830 C831 1.399 . S
C830 C835 1.399 . S
C831 C830 1.399 . S
C831 C832 1.376 . S
C832 H819 0.930 . S
C832 C831 1.376 . S
C832 C833 1.388 . S
C833 H820 0.930 . S
C833 C832 1.388 . S
C833 C834 1.390 . S
C834 C833 1.390 . S
C834 C835 1.394 . S
C834 C840 1.465 . S
C835 C830 1.399 . S
C835 C834 1.394 . S
C835 C836 1.516 . S
C836 C835 1.516 . S
C836 C837 1.502 . S
C836 C838 1.561 . S
C836 C839 1.526 . S
C837 H821 0.959 . S
C837 H822 0.959 . S
C837 H823 0.961 . S
C837 C836 1.502 . S
C838 H824 0.960 . S
C838 H825 0.961 . S
C838 H826 0.959 . S
C838 C836 1.561 . S
C839 C836 1.526 . S
C839 C840 1.396 . S
C839 C844 1.390 . S
C840 C834 1.465 . S
C840 C839 1.396 . S
C840 C841 1.399 . S
C841 H827 0.929 . S
C841 C840 1.399 . S
C841 C842 1.385 . S
C842 H828 0.931 . S
C842 C841 1.385 . S
C842 C843 1.389 . S
C843 C842 1.389 . S
C843 C844 1.387 . S
C844 H829 0.930 . S
C844 C839 1.390 . S
C844 C843 1.387 . S
H845 C857 0.930 . S
H846 C859 0.930 . S
H847 C860 0.930 . S
H848 C864 0.959 . S
H849 C864 0.959 . S
H850 C864 0.961 . S
H851 C865 0.960 . S
H852 C865 0.961 . S
H853 C865 0.959 . S
H854 C868 0.929 . S
H855 C869 0.931 . S
H856 C871 0.930 . S
C857 H845 0.930 . S
C857 C858 1.399 . S
C857 C862 1.399 . S
C858 C857 1.399 . S
C858 C859 1.376 . S
C859 H846 0.930 . S
C859 C858 1.376 . S
C859 C860 1.388 . S
C860 H847 0.930 . S
C860 C859 1.388 . S
C860 C861 1.390 . S
C861 C860 1.390 . S
C861 C862 1.394 . S
C861 C867 1.465 . S
C862 C857 1.399 . S
C862 C861 1.394 . S
C862 C863 1.516 . S
C863 C862 1.516 . S
C863 C864 1.502 . S
C863 C865 1.561 . S
C863 C866 1.526 . S
C864 H848 0.959 . S
C864 H849 0.959 . S
C864 H850 0.961 . S
C864 C863 1.502 . S
C865 H851 0.960 . S
C865 H852 0.961 . S
C865 H853 0.959 . S
C865 C863 1.561 . S
C866 C863 1.526 . S
C866 C867 1.396 . S
C866 C871 1.390 . S
C867 C861 1.465 . S
C867 C866 1.396 . S
C867 C868 1.399 . S
C868 H854 0.929 . S
C868 C867 1.399 . S
C868 C869 1.385 . S
C869 H855 0.931 . S
C869 C868 1.385 . S
C869 C870 1.389 . S
C870 C869 1.389 . S
C870 C871 1.387 . S
C871 H856 0.930 . S
C871 C866 1.390 . S
C871 C870 1.387 . S
H872 C884 0.930 . S
H873 C886 0.930 . S
H874 C887 0.930 1_565 S
H875 C891 0.959 . S
H876 C891 0.959 . S
H877 C891 0.961 . S
H878 C892 0.960 . S
H879 C892 0.961 . S
H880 C892 0.959 . S
H881 C895 0.929 . S
H882 C896 0.931 . S
H883 C898 0.930 . S
C884 H872 0.930 . S
C884 C885 1.399 . S
C884 C889 1.399 . S
C885 C884 1.399 . S
C885 C886 1.376 . S
C886 H873 0.930 . S
C886 C885 1.376 . S
C886 C887 1.388 . S
C887 H874 0.930 1_545 S
C887 C886 1.388 . S
C887 C888 1.390 . S
C888 C887 1.390 . S
C888 C889 1.394 . S
C888 C894 1.465 1_545 S
C889 C884 1.399 . S
C889 C888 1.394 . S
C889 C890 1.516 . S
C890 C889 1.516 . S
C890 C891 1.502 . S
C890 C892 1.561 . S
C890 C893 1.526 1_545 S
C891 H875 0.959 . S
C891 H876 0.959 . S
C891 H877 0.961 . S
C891 C890 1.502 . S
C892 H878 0.960 . S
C892 H879 0.961 . S
C892 H880 0.959 . S
C892 C890 1.561 . S
C893 C890 1.526 1_565 S
C893 C894 1.396 . S
C893 C898 1.390 . S
C894 C888 1.465 1_565 S
C894 C893 1.396 . S
C894 C895 1.399 . S
C895 H881 0.929 . S
C895 C894 1.399 . S
C895 C896 1.385 . S
C896 H882 0.931 . S
C896 C895 1.385 . S
C896 C897 1.389 . S
C897 C896 1.389 . S
C897 C898 1.387 . S
C898 H883 0.930 . S
C898 C893 1.390 . S
C898 C897 1.387 . S
H899 C911 0.930 . S
H900 C913 0.930 . S
H901 C914 0.930 . S
H902 C918 0.959 . S
H903 C918 0.959 . S
H904 C918 0.961 . S
H905 C919 0.960 . S
H906 C919 0.961 . S
H907 C919 0.959 . S
H908 C922 0.929 . S
H909 C923 0.931 . S
H910 C925 0.930 . S
C911 H899 0.930 . S
C911 C912 1.399 . S
C911 C916 1.399 . S
C912 C911 1.399 . S
C912 C913 1.376 . S
C913 H900 0.930 . S
C913 C912 1.376 . S
C913 C914 1.388 . S
C914 H901 0.930 . S
C914 C913 1.388 . S
C914 C915 1.390 . S
C915 C914 1.390 . S
C915 C916 1.394 . S
C915 C921 1.465 . S
C916 C911 1.399 . S
C916 C915 1.394 . S
C916 C917 1.516 . S
C917 C916 1.516 . S
C917 C918 1.502 . S
C917 C919 1.561 . S
C917 C920 1.526 . S
C918 H902 0.959 . S
C918 H903 0.959 . S
C918 H904 0.961 . S
C918 C917 1.502 . S
C919 H905 0.960 . S
C919 H906 0.961 . S
C919 H907 0.959 . S
C919 C917 1.561 . S
C920 C917 1.526 . S
C920 C921 1.396 . S
C920 C925 1.390 . S
C921 C915 1.465 . S
C921 C920 1.396 . S
C921 C922 1.399 . S
C922 H908 0.929 . S
C922 C921 1.399 . S
C922 C923 1.385 . S
C923 H909 0.931 . S
C923 C922 1.385 . S
C923 C924 1.389 . S
C924 C923 1.389 . S
C924 C925 1.387 . S
C925 H910 0.930 . S
C925 C920 1.390 . S
C925 C924 1.387 . S
H926 C938 0.930 . S
H927 C940 0.930 . S
H928 C941 0.930 . S
H929 C945 0.959 . S
H930 C945 0.959 . S
H931 C945 0.961 . S
H932 C946 0.960 . S
H933 C946 0.961 . S
H934 C946 0.959 . S
H935 C949 0.929 1_545 S
H936 C950 0.931 . S
H937 C952 0.930 . S
C938 H926 0.930 . S
C938 C939 1.399 . S
C938 C943 1.399 . S
C939 C938 1.399 . S
C939 C940 1.376 . S
C940 H927 0.930 . S
C940 C939 1.376 . S
C940 C941 1.388 1_556 S
C941 H928 0.930 . S
C941 C940 1.388 1_554 S
C941 C942 1.390 . S
C942 C941 1.390 . S
C942 C943 1.394 1_554 S
C942 C948 1.465 1_545 S
C943 C938 1.399 . S
C943 C942 1.394 1_556 S
C943 C944 1.516 1_545 S
C944 C943 1.516 1_565 S
C944 C945 1.502 . S
C944 C946 1.561 . S
C944 C947 1.526 1_556 S
C945 H929 0.959 . S
C945 H930 0.959 . S
C945 H931 0.961 . S
C945 C944 1.502 . S
C946 H932 0.960 . S
C946 H933 0.961 . S
C946 H934 0.959 . S
C946 C944 1.561 . S
C947 C944 1.526 1_554 S
C947 C948 1.396 . S
C947 C952 1.390 . S
C948 C942 1.465 1_565 S
C948 C947 1.396 . S
C948 C949 1.399 . S
C949 H935 0.929 1_565 S
C949 C948 1.399 . S
C949 C950 1.385 . S
C950 H936 0.931 . S
C950 C949 1.385 . S
C950 C951 1.389 . S
C951 C950 1.389 . S
C951 C952 1.387 . S
C952 H937 0.930 . S
C952 C947 1.390 . S
C952 C951 1.387 . S
H953 C965 0.930 . S
H954 C967 0.930 . S
H955 C968 0.930 . S
H956 C972 0.959 . S
H957 C972 0.959 . S
H958 C972 0.961 . S
H959 C973 0.960 . S
H960 C973 0.961 . S
H961 C973 0.959 . S
H962 C976 0.929 . S
H963 C977 0.931 . S
H964 C979 0.930 . S
C965 H953 0.930 . S
C965 C966 1.399 . S
C965 C970 1.399 . S
C966 C965 1.399 . S
C966 C967 1.376 . S
C967 H954 0.930 . S
C967 C966 1.376 . S
C967 C968 1.388 . S
C968 H955 0.930 . S
C968 C967 1.388 . S
C968 C969 1.390 . S
C969 C968 1.390 . S
C969 C970 1.394 . S
C969 C975 1.465 . S
C970 C965 1.399 . S
C970 C969 1.394 . S
C970 C971 1.516 . S
C971 C970 1.516 . S
C971 C972 1.502 . S
C971 C973 1.561 . S
C971 C974 1.526 . S
C972 H956 0.959 . S
C972 H957 0.959 . S
C972 H958 0.961 . S
C972 C971 1.502 . S
C973 H959 0.960 . S
C973 H960 0.961 . S
C973 H961 0.959 . S
C973 C971 1.561 . S
C974 C971 1.526 . S
C974 C975 1.396 . S
C974 C979 1.390 . S
C975 C969 1.465 . S
C975 C974 1.396 . S
C975 C976 1.399 . S
C976 H962 0.929 . S
C976 C975 1.399 . S
C976 C977 1.385 . S
C977 H963 0.931 . S
C977 C976 1.385 . S
C977 C978 1.389 . S
C978 C977 1.389 . S
C978 C979 1.387 . S
C979 H964 0.930 . S
C979 C974 1.390 . S
C979 C978 1.387 . S
H980 C992 0.930 . S
H981 C994 0.930 . S
H982 C995 0.930 . S
H983 C999 0.959 . S
H984 C999 0.959 . S
H985 C999 0.961 . S
H986 C1000 0.960 . S
H987 C1000 0.961 . S
H988 C1000 0.959 . S
H989 C1003 0.929 . S
H990 C1004 0.931 . S
H991 C1006 0.930 . S
C992 H980 0.930 . S
C992 C993 1.399 . S
C992 C997 1.399 . S
C993 C992 1.399 . S
C993 C994 1.376 . S
C994 H981 0.930 . S
C994 C993 1.376 . S
C994 C995 1.388 . S
C995 H982 0.930 . S
C995 C994 1.388 . S
C995 C996 1.390 . S
C996 C995 1.390 . S
C996 C997 1.394 . S
C996 C1002 1.465 . S
C997 C992 1.399 . S
C997 C996 1.394 . S
C997 C998 1.516 1_545 S
C998 C997 1.516 1_565 S
C998 C999 1.502 . S
C998 C1000 1.561 . S
C998 C1001 1.526 . S
C999 H983 0.959 . S
C999 H984 0.959 . S
C999 H985 0.961 . S
C999 C998 1.502 . S
C1000 H986 0.960 . S
C1000 H987 0.961 . S
C1000 H988 0.959 . S
C1000 C998 1.561 . S
C1001 C998 1.526 . S
C1001 C1002 1.396 1_565 S
C1001 C1006 1.390 . S
C1002 C996 1.465 . S
C1002 C1001 1.396 1_545 S
C1002 C1003 1.399 . S
C1003 H989 0.929 . S
C1003 C1002 1.399 . S
C1003 C1004 1.385 1_545 S
C1004 H990 0.931 . S
C1004 C1003 1.385 1_565 S
C1004 C1005 1.389 . S
C1005 C1004 1.389 . S
C1005 C1006 1.387 . S
C1006 H991 0.930 . S
C1006 C1001 1.390 . S
C1006 C1005 1.387 . S
H1007 C1019 0.930 . S
H1008 C1021 0.930 . S
H1009 C1022 0.930 . S
H1010 C1026 0.959 . S
H1011 C1026 0.959 . S
H1012 C1026 0.961 . S
H1013 C1027 0.960 . S
H1014 C1027 0.961 . S
H1015 C1027 0.959 . S
H1016 C1030 0.929 . S
H1017 C1031 0.931 . S
H1018 C1033 0.930 . S
C1019 H1007 0.930 . S
C1019 C1020 1.399 . S
C1019 C1024 1.399 . S
C1020 C1019 1.399 . S
C1020 C1021 1.376 . S
C1021 H1008 0.930 . S
C1021 C1020 1.376 . S
C1021 C1022 1.388 . S
C1022 H1009 0.930 . S
C1022 C1021 1.388 . S
C1022 C1023 1.390 . S
C1023 C1022 1.390 . S
C1023 C1024 1.394 . S
C1023 C1029 1.465 . S
C1024 C1019 1.399 . S
C1024 C1023 1.394 . S
C1024 C1025 1.516 . S
C1025 C1024 1.516 . S
C1025 C1026 1.502 . S
C1025 C1027 1.561 . S
C1025 C1028 1.526 . S
C1026 H1010 0.959 . S
C1026 H1011 0.959 . S
C1026 H1012 0.961 . S
C1026 C1025 1.502 . S
C1027 H1013 0.960 . S
C1027 H1014 0.961 . S
C1027 H1015 0.959 . S
C1027 C1025 1.561 . S
C1028 C1025 1.526 . S
C1028 C1029 1.396 . S
C1028 C1033 1.390 . S
C1029 C1023 1.465 . S
C1029 C1028 1.396 . S
C1029 C1030 1.399 . S
C1030 H1016 0.929 . S
C1030 C1029 1.399 . S
C1030 C1031 1.385 . S
C1031 H1017 0.931 . S
C1031 C1030 1.385 . S
C1031 C1032 1.389 . S
C1032 C1031 1.389 . S
C1032 C1033 1.387 . S
C1033 H1018 0.930 . S
C1033 C1028 1.390 . S
C1033 C1032 1.387 . S
H1034 C1046 0.930 . S
H1035 C1048 0.930 . S
H1036 C1049 0.930 1_556 S
H1037 C1053 0.959 . S
H1038 C1053 0.959 . S
H1039 C1053 0.961 . S
H1040 C1054 0.960 . S
H1041 C1054 0.961 . S
H1042 C1054 0.959 . S
H1043 C1057 0.929 . S
H1044 C1058 0.931 . S
H1045 C1060 0.930 . S
C1046 H1034 0.930 . S
C1046 C1047 1.399 . S
C1046 C1051 1.399 . S
C1047 C1046 1.399 . S
C1047 C1048 1.376 . S
C1048 H1035 0.930 . S
C1048 C1047 1.376 . S
C1048 C1049 1.388 . S
C1049 H1036 0.930 1_554 S
C1049 C1048 1.388 . S
C1049 C1050 1.390 . S
C1050 C1049 1.390 . S
C1050 C1051 1.394 . S
C1050 C1056 1.465 1_564 S
C1051 C1046 1.399 . S
C1051 C1050 1.394 . S
C1051 C1052 1.516 1_565 S
C1052 C1051 1.516 1_545 S
C1052 C1053 1.502 . S
C1052 C1054 1.561 . S
C1052 C1055 1.526 1_554 S
C1053 H1037 0.959 . S
C1053 H1038 0.959 . S
C1053 H1039 0.961 . S
C1053 C1052 1.502 . S
C1054 H1040 0.960 . S
C1054 H1041 0.961 . S
C1054 H1042 0.959 . S
C1054 C1052 1.561 . S
C1055 C1052 1.526 1_556 S
C1055 C1056 1.396 . S
C1055 C1060 1.390 . S
C1056 C1050 1.465 1_546 S
C1056 C1055 1.396 . S
C1056 C1057 1.399 . S
C1057 H1043 0.929 . S
C1057 C1056 1.399 . S
C1057 C1058 1.385 . S
C1058 H1044 0.931 . S
C1058 C1057 1.385 . S
C1058 C1059 1.389 . S
C1059 C1058 1.389 . S
C1059 C1060 1.387 . S
C1060 H1045 0.930 . S
C1060 C1055 1.390 . S
C1060 C1059 1.387 . S
H1061 C1073 0.930 . S
H1062 C1075 0.930 . S
H1063 C1076 0.930 . S
H1064 C1080 0.959 . S
H1065 C1080 0.959 . S
H1066 C1080 0.961 . S
H1067 C1081 0.960 . S
H1068 C1081 0.961 . S
H1069 C1081 0.959 . S
H1070 C1084 0.929 . S
H1071 C1085 0.931 . S
H1072 C1087 0.930 . S
C1073 H1061 0.930 . S
C1073 C1074 1.399 . S
C1073 C1078 1.399 . S
C1074 C1073 1.399 . S
C1074 C1075 1.376 . S
C1075 H1062 0.930 . S
C1075 C1074 1.376 . S
C1075 C1076 1.388 . S
C1076 H1063 0.930 . S
C1076 C1075 1.388 . S
C1076 C1077 1.390 . S
C1077 C1076 1.390 . S
C1077 C1078 1.394 . S
C1077 C1083 1.465 . S
C1078 C1073 1.399 . S
C1078 C1077 1.394 . S
C1078 C1079 1.516 . S
C1079 C1078 1.516 . S
C1079 C1080 1.502 . S
C1079 C1081 1.561 . S
C1079 C1082 1.526 . S
C1080 H1064 0.959 . S
C1080 H1065 0.959 . S
C1080 H1066 0.961 . S
C1080 C1079 1.502 . S
C1081 H1067 0.960 . S
C1081 H1068 0.961 . S
C1081 H1069 0.959 . S
C1081 C1079 1.561 . S
C1082 C1079 1.526 . S
C1082 C1083 1.396 . S
C1082 C1087 1.390 . S
C1083 C1077 1.465 . S
C1083 C1082 1.396 . S
C1083 C1084 1.399 . S
C1084 H1070 0.929 . S
C1084 C1083 1.399 . S
C1084 C1085 1.385 . S
C1085 H1071 0.931 . S
C1085 C1084 1.385 . S
C1085 C1086 1.389 . S
C1086 C1085 1.389 . S
C1086 C1087 1.387 . S
C1087 H1072 0.930 . S
C1087 C1082 1.390 . S
C1087 C1086 1.387 . S
C237 C163 1.409 . S
C249 C7 1.374 . S
C264 C217 1.343 . S
C276 C23 1.361 . S
C291 C35 1.402 . S
C303 C133 1.397 . S
C318 C191 1.299 . S
C330 C51 1.294 . S
C345 C63 1.384 . S
C357 C189 1.382 . S
C372 C79 1.335 . S
C384 C161 1.406 . S
C399 C91 1.415 . S
C411 C219 1.435 . S
C426 C107 1.204 . S
C438 C135 1.215 . S
C453 C49 1.424 . S
C465 C119 1.430 . S
C480 C149 1.350 . S
C492 C21 1.392 . S
C507 C175 1.471 . S
C519 C77 1.470 . S
C534 C205 1.361 . S
C546 C105 1.320 . S
C561 C65 1.281 . S
C573 C121 1.300 . S
C588 C147 1.337 . S
C600 C93 1.267 . S
C615 C203 1.347 . S
C627 C37 1.282 . S
C642 C9 1.335 . S
C654 C177 1.343 . S
C669 C3 1.310 . S
C681 C59 1.327 . S
C696 C22 1.270 . S
C708 C78 1.295 . S
C723 C31 1.421 . S
C735 C87 1.410 . S
C750 C106 1.240 . S
C762 C50 1.229 . S
C777 C115 1.345 . S
C789 C171 1.365 . S
C804 C190 1.204 . S
C816 C134 1.223 . S
C831 C148 1.257 . S
C843 C204 1.257 . S
C858 C213 1.356 . S
C870 C157 1.308 . S
C885 C101 1.351 . S
C897 C17 1.369 . S
C912 C36 1.294 . S
C924 C64 1.312 . S
C939 C45 1.376 . S
C951 C73 1.359 . S
C966 C8 1.187 . S
C978 C92 1.209 . S
C993 C129 1.314 . S
C1005 C218 1.305 . S
C1020 C176 1.288 . S
C1032 C143 1.296 . S
C1047 C162 1.326 . S
C1059 C185 1.310 . S
C1074 C199 1.245 . S
C1086 C120 1.281 . S
