# Generated by pormake.
# Topology bsn, (6)-cn, num edge types: 1
# Building blocks:
#     Node 0, Type 0, BuildingBlock: JUFBIX_clean_sbu_0, # of connection points: 6
#     Node 1, Type 0, BuildingBlock: JUFBIX_clean_sbu_0, # of connection points: 6
#     Node 2, Type 0, BuildingBlock: JUFBIX_clean_sbu_0, # of connection points: 6
#     Node 3, Type 0, BuildingBlock: JUFBIX_clean_sbu_0, # of connection points: 6
#     Edge 4, Type (0, 0), BuildingBlock: EZIPEK_clean_linker_0, # of connection points: 2
#     Edge 5, Type (0, 0), BuildingBlock: EZIPEK_clean_linker_0, # of connection points: 2
#     Edge 6, Type (0, 0), BuildingBlock: EZIPEK_clean_linker_0, # of connection points: 2
#     Edge 7, Type (0, 0), BuildingBlock: EZIPEK_clean_linker_0, # of connection points: 2
#     Edge 8, Type (0, 0), BuildingBlock: EZIPEK_clean_linker_0, # of connection points: 2
#     Edge 9, Type (0, 0), BuildingBlock: EZIPEK_clean_linker_0, # of connection points: 2
#     Edge 10, Type (0, 0), BuildingBlock: EZIPEK_clean_linker_0, # of connection points: 2
#     Edge 11, Type (0, 0), BuildingBlock: EZIPEK_clean_linker_0, # of connection points: 2
#     Edge 12, Type (0, 0), BuildingBlock: EZIPEK_clean_linker_0, # of connection points: 2
#     Edge 13, Type (0, 0), BuildingBlock: EZIPEK_clean_linker_0, # of connection points: 2
#     Edge 14, Type (0, 0), BuildingBlock: EZIPEK_clean_linker_0, # of connection points: 2
#     Edge 15, Type (0, 0), BuildingBlock: EZIPEK_clean_linker_0, # of connection points: 2
# Relax obj value: 0.081
# Max RMSD: 0.157
# Mean RMSD: 0.157
data_MOF--net-bsn--node1-JUFBIX_clean_sbu_0--edge1-EZIPEK_clean_linker_0
_symmetry_space_group_name_H-M    P1
_symmetry_Int_Tables_number       1
_symmetry_cell_setting            triclinic
loop_
_symmetry_equiv_pos_as_xyz
'x, y, z'
_cell_length_a     21.011801
_cell_length_b     30.997853
_cell_length_c     10.7637
_cell_angle_alpha  87.302318
_cell_angle_beta   92.568847
_cell_angle_gamma 96.60516
loop_
_atom_site_label
_atom_site_type_symbol
_atom_site_fract_x
_atom_site_fract_y
_atom_site_fract_z
_atom_type_partial_charge
Co0 Co 0.9941 0.25167 0.30334 0.0
C1 C 1.00284 0.29015 0.52905 0.0
Co2 Co 1.00894 0.32511 0.2893 0.0
C3 C 1.01523 0.16158 0.38937 0.0
C4 C 0.94512 0.16464 0.23976 0.0
N5 N 0.98572 0.19016 0.31349 0.0
N6 N 0.99427 0.11965 0.36491 0.0
C7 C 0.95026 0.1216 0.27098 0.0
H8 H 0.05109 0.17124 0.46114 0.0
H9 H 0.91341 0.17653 0.16755 0.0
C10 C 0.99808 0.28574 0.06329 0.0
N11 N 1.01459 0.38743 0.2801 0.0
C12 C 0.03048 0.41708 0.36942 0.0
C13 C 0.99461 0.41161 0.18122 0.0
N14 N 1.02093 0.4582 0.32936 0.0
C15 C 0.99848 0.45465 0.21096 0.0
C16 C 0.12128 0.2897 0.29306 0.0
O17 O 0.99064 0.25101 0.13035 0.0
O18 O 1.00799 0.32234 0.11422 0.0
O19 O 0.09862 0.32608 0.29287 0.0
O20 O 0.08457 0.25408 0.30204 0.0
O21 O 1.01037 0.32537 0.4636 0.0
H22 H 0.97595 0.39874 0.0937 0.0
H23 H 0.04661 0.40865 0.46337 0.0
O24 O 0.99631 0.25377 0.47716 0.0
O25 O 0.90478 0.2507 0.29887 0.0
O26 O 0.91833 0.3223 0.2805 0.0
C27 C 0.88169 0.28659 0.27996 0.0
H28 H 0.92361 0.09375 0.22836 0.0
H29 H 0.9843 0.48125 0.15117 0.0
Co30 Co 0.05514 0.75179 0.63594 0.0
C31 C 0.0592 0.78671 0.86669 0.0
Co32 Co 0.06196 0.82493 0.62894 0.0
C33 C 0.0358 0.66075 0.5457 0.0
C34 C 0.07028 0.66435 0.73516 0.0
N35 N 0.05119 0.6895 0.63757 0.0
N36 N 0.04455 0.61924 0.5833 0.0
C37 C 0.06605 0.62162 0.70247 0.0
H38 H 1.01999 0.67005 0.45222 0.0
H39 H 0.08828 0.67627 0.82426 0.0
C40 C 0.05799 0.79032 0.39898 0.0
N41 N 0.06809 0.88632 0.62723 0.0
C42 C 0.04186 0.91548 0.54801 0.0
C43 C 0.10238 0.91107 0.71232 0.0
N44 N 0.0587 0.95705 0.58126 0.0
C45 C 0.09661 0.95428 0.68454 0.0
C46 C 0.18046 0.79334 0.64467 0.0
O47 O 0.05474 0.75431 0.46096 0.0
O48 O 0.06126 0.82597 0.45381 0.0
O49 O 0.15212 0.82741 0.6352 0.0
O50 O 0.14667 0.75637 0.64403 0.0
O51 O 0.06242 0.82261 0.80435 0.0
H52 H 0.13005 0.89851 0.79017 0.0
H53 H 1.01097 0.90649 0.46799 0.0
O54 O 0.0557 0.75112 0.81162 0.0
O55 O 0.9635 0.74974 0.63205 0.0
O56 O 0.97211 0.82111 0.62597 0.0
C57 C 0.93688 0.78482 0.63129 0.0
H58 H 0.07931 0.59442 0.76088 0.0
H59 H 0.11867 0.98167 0.73589 0.0
Co60 Co 0.56503 0.75949 0.82007 0.0
C61 C 0.56927 0.79387 0.04997 0.0
Co62 Co 0.56903 0.83239 0.81256 0.0
C63 C 0.53953 0.66566 0.89782 0.0
C64 C 0.60061 0.67857 0.74347 0.0
N65 N 0.56575 0.69847 0.82133 0.0
N66 N 0.55711 0.62655 0.86993 0.0
C67 C 0.59545 0.6347 0.77302 0.0
H68 H 0.50972 0.67044 -0.02566 0.0
H69 H 0.62966 0.69515 0.67147 0.0
C70 C 0.56461 0.79799 0.58191 0.0
N71 N 0.57113 0.89419 0.81177 0.0
C72 C 0.5466 0.92061 0.8907 0.0
C73 C 0.60256 0.92209 0.72907 0.0
N74 N 0.56163 0.9635 0.85954 0.0
C75 C 0.59669 0.96432 0.75779 0.0
C76 C 0.68904 0.80284 0.81458 0.0
O77 O 0.56299 0.7621 0.64432 0.0
O78 O 0.56672 0.83353 0.63693 0.0
O79 O 0.66102 0.83721 0.81354 0.0
O80 O 0.65501 0.76624 0.82114 0.0
O81 O 0.57105 0.82983 -0.01219 0.0
H82 H 0.62918 0.91237 0.65338 0.0
H83 H 0.51897 0.90874 0.97026 0.0
O84 O 0.56697 0.75826 -0.00478 0.0
O85 O 0.47491 0.75399 0.81597 0.0
O86 O 0.47746 0.82513 0.80716 0.0
C87 C 0.44516 0.78752 0.80653 0.0
H88 H 0.61901 0.61062 0.72847 0.0
H89 H 0.61743 0.99352 0.70882 0.0
Co90 Co 0.49938 0.24938 0.14528 0.0
C91 C 0.51103 0.28171 0.37736 0.0
Co92 Co 0.50157 0.32243 0.1392 0.0
C93 C 0.52299 0.162 0.06113 0.0
C94 C 0.46416 0.15905 0.21905 0.0
N95 N 0.4972 0.18767 0.14047 0.0
N96 N 0.50699 0.11888 0.088 0.0
C97 C 0.47005 0.11716 0.18731 0.0
H98 H 0.55209 0.17459 -0.01578 0.0
H99 H 0.43651 0.16804 0.2941 0.0
C100 C 0.49176 0.28951 0.90764 0.0
N101 N 0.50194 0.38346 0.14343 0.0
C102 C 0.52355 0.41625 0.06223 0.0
C103 C 0.47484 0.40364 0.23272 0.0
N104 N 0.51066 0.45562 0.09821 0.0
C105 C 0.48017 0.44768 0.20538 0.0
C106 C 0.6199 0.29513 0.13324 0.0
O107 O 0.49108 0.25344 0.96934 0.0
O108 O 0.49362 0.32491 0.96358 0.0
O109 O 0.58955 0.32817 0.12964 0.0
O110 O 0.58943 0.25701 0.13665 0.0
O111 O 0.51047 0.31788 0.31614 0.0
H112 H 0.45138 0.38729 0.31204 0.0
H113 H 0.54727 0.41138 -0.02239 0.0
O114 O 0.50862 0.2466 0.32025 0.0
O115 O 0.40837 0.24448 0.16023 0.0
O116 O 0.41293 0.31599 0.15153 0.0
C117 C 0.38126 0.27899 0.1677 0.0
H118 H 0.4483 0.08757 0.23288 0.0
H119 H 0.46229 0.47206 0.25908 0.0
C120 C 0.97781 0.50799 0.47164 0.0
C121 C 0.02819 0.49802 0.39795 0.0
C122 C 0.08842 0.56926 0.4429 0.0
C123 C 0.03702 0.57993 0.51254 0.0
N124 N 0.93122 0.56185 0.58716 0.0
N125 N 0.12861 0.51982 0.30329 0.0
C126 C 0.98124 0.54978 0.52523 0.0
C127 C 0.08272 0.52899 0.38083 0.0
N128 N 0.92686 0.47714 0.49021 0.0
N129 N 0.14353 0.59727 0.44 0.0
H130 H 0.12688 0.48991 0.26194 0.0
H131 H 0.16661 0.54214 0.27524 0.0
H132 H 0.14816 0.62715 0.48219 0.0
H133 H 0.18562 0.59027 0.40195 0.0
H134 H 0.89021 0.48012 0.5499 0.0
H135 H 0.92269 0.44705 0.44927 0.0
H136 H 0.8869 0.54339 0.5944 0.0
H137 H 0.93308 0.59215 0.62639 0.0
C138 C 0.78747 0.76463 0.81627 0.0
C139 C 0.75849 0.80317 0.78663 0.0
C140 C 0.83907 0.82409 0.63028 0.0
C141 C 0.86757 0.78526 0.65925 0.0
N142 N 0.85053 0.71129 0.74368 0.0
N143 N 0.77398 0.87689 0.70032 0.0
C144 C 0.8367 0.7533 0.74199 0.0
C145 C 0.78902 0.83514 0.7034 0.0
N146 N 0.76969 0.73981 0.91993 0.0
N147 N 0.85779 0.84926 0.52781 0.0
H148 H 0.74464 0.88795 0.76437 0.0
H149 H 0.79823 0.90211 0.64765 0.0
H150 H 0.89082 0.84004 0.46732 0.0
H151 H 0.83503 0.87585 0.49441 0.0
H152 H 0.7929 0.71339 0.95319 0.0
H153 H 0.73713 0.7492 -0.01887 0.0
H154 H 0.82592 0.68628 0.79657 0.0
H155 H 0.87876 0.69988 0.67824 0.0
C156 C 0.48312 0.51098 0.93646 0.0
C157 C 0.52405 0.49804 0.0363 0.0
C158 C 0.58133 0.57206 0.03628 0.0
C159 C 0.54249 0.58435 0.93239 0.0
N160 N 0.46078 0.5656 0.77521 0.0
N161 N 0.61529 0.51381 0.17509 0.0
C162 C 0.49455 0.55371 0.88018 0.0
C163 C 0.574 0.52808 0.08474 0.0
N164 N 0.43194 0.48271 0.89891 0.0
N165 N 0.62512 0.60275 0.08814 0.0
H166 H 0.61096 0.48172 0.21041 0.0
H167 H 0.65593 0.53249 0.20967 0.0
H168 H 0.63241 0.63466 0.05191 0.0
H169 H 0.65171 0.59765 0.17024 0.0
H170 H 0.39626 0.49097 0.835 0.0
H171 H 0.42311 0.45124 0.93777 0.0
H172 H 0.42986 0.54403 0.72343 0.0
H173 H 0.46623 0.59722 0.73622 0.0
C174 C 0.77736 0.31455 0.30087 0.0
C175 C 0.81394 0.28727 0.23985 0.0
C176 C 0.72507 0.27114 0.0879 0.0
C177 C 0.69035 0.30031 0.14709 0.0
N178 N 0.69761 0.36399 0.27338 0.0
N179 N 0.82781 0.24678 0.05718 0.0
C180 C 0.72078 0.32677 0.24159 0.0
C181 C 0.78938 0.26739 0.12813 0.0
N182 N 0.79519 0.32729 0.4181 0.0
N183 N 0.69665 0.24737 -0.00753 0.0
H184 H 0.87477 0.24245 0.08302 0.0
H185 H 0.81477 0.23681 0.96765 0.0
H186 H 0.65271 0.2534 0.95013 0.0
H187 H 0.71573 0.221 0.95784 0.0
H188 H 0.76705 0.34453 0.47076 0.0
H189 H 0.83347 0.31525 0.4677 0.0
H190 H 0.72175 0.38499 0.33718 0.0
H191 H 0.66031 0.37747 0.22489 0.0
C192 C 0.30201 0.29487 0.32325 0.0
C193 C 0.31485 0.27739 0.20751 0.0
C194 C 0.20337 0.27818 0.14257 0.0
C195 C 0.18862 0.28837 0.26408 0.0
N196 N 0.2231 0.30247 0.47588 0.0
N197 N 0.27374 0.24354 0.01848 0.0
C198 C 0.23767 0.29524 0.35676 0.0
C199 C 0.26409 0.26557 0.12155 0.0
N200 N 0.35068 0.31295 0.39875 0.0
N201 N 0.16192 0.28479 0.04471 0.0
H202 H 0.31767 0.23285 0.00177 0.0
H203 H 0.23625 0.23196 0.95768 0.0
H204 H 0.12106 0.29991 0.05541 0.0
H205 H 0.17324 0.28163 0.95245 0.0
H206 H 0.34346 0.33028 0.47657 0.0
H207 H 0.39843 0.31355 0.37855 0.0
H208 H 0.25651 0.30249 0.55046 0.0
H209 H 0.17662 0.30578 0.50114 0.0
C210 C 0.34204 0.75218 0.70134 0.0
C211 C 0.37409 0.78407 0.78086 0.0
C212 C 0.28402 0.82768 0.74906 0.0
C213 C 0.25145 0.79569 0.67087 0.0
N214 N 0.26091 0.73705 0.5371 0.0
N215 N 0.36325 0.84206 0.91634 0.0
C216 C 0.28381 0.76059 0.63712 0.0
C217 C 0.34125 0.8188 0.8153 0.0
N218 N 0.36387 0.71258 0.69294 0.0
N219 N 0.26415 0.86802 0.75302 0.0
H220 H 0.40272 0.83439 -0.02806 0.0
H221 H 0.33774 0.86484 0.95423 0.0
H222 H 0.23005 0.87938 0.69089 0.0
H223 H 0.28921 0.89305 0.80272 0.0
H224 H 0.33895 0.68734 0.64395 0.0
H225 H 0.40075 0.7018 0.74916 0.0
H226 H 0.28588 0.71416 0.49842 0.0
H227 H 0.22106 0.74459 0.48247 0.0
C228 C 0.48998 1.02079 0.88551 0.0
C229 C 0.54648 1.00158 0.92172 0.0
C230 C 0.57825 0.06117 0.06451 0.0
C231 C 0.52306 0.08129 0.02467 0.0
N232 N 0.4286 0.0829 0.89215 0.0
N233 N 0.64735 1.00462 0.03609 0.0
C234 C 0.47952 0.0617 0.93348 0.0
C235 C 0.59142 1.02218 0.00883 0.0
N236 N 0.44618 0.99929 0.80596 0.0
N237 N 0.61704 0.07901 0.15833 0.0
H238 H 0.65672 0.97537 0.00037 0.0
H239 H 0.68556 1.01964 0.08886 0.0
H240 H 0.60931 0.10808 0.19728 0.0
H241 H 0.65474 0.06434 0.20172 0.0
H242 H 0.40147 1.00906 0.78115 0.0
H243 H 0.45353 0.9698 0.76913 0.0
H244 H 0.39674 0.07279 0.81981 0.0
H245 H 0.42021 0.11255 0.92666 0.0
C246 C 0.08391 1.02185 0.44052 0.0
C247 C 0.04099 0.99706 0.52159 0.0
C248 C 0.97168 0.05611 0.51094 0.0
C249 C 1.01292 0.07994 0.425 0.0
N250 N 0.10402 0.08449 0.29661 0.0
N251 N 0.94204 0.98791 0.6274 0.0
C252 C 0.06812 0.06255 0.38709 0.0
C253 C 0.98414 1.0135 0.55471 0.0
N254 N 0.14026 1.00645 0.41658 0.0
N255 N 0.92143 0.07502 0.55226 0.0
H256 H 0.95102 0.95711 0.6622 0.0
H257 H 0.8969 0.99573 0.64753 0.0
H258 H 0.91197 0.10619 0.52174 0.0
H259 H 0.89171 0.06147 0.62197 0.0
H260 H 0.17717 1.02439 0.369 0.0
H261 H 0.15136 0.97596 0.45011 0.0
H262 H 0.14137 0.07212 0.25484 0.0
H263 H 0.09392 0.11458 0.25801 0.0
C264 C 0.95766 0.31277 0.85619 0.0
C265 C 0.99486 0.28401 0.92634 0.0
C266 C 0.04133 0.26354 0.73664 0.0
C267 C 1.00274 0.29094 0.66571 0.0
N268 N 0.92062 0.33995 0.65465 0.0
N269 N 0.05942 0.22346 0.92889 0.0
C270 C 0.96034 0.3155 0.72449 0.0
C271 C 0.0323 0.25651 0.86552 0.0
N272 N 0.91857 0.33682 0.91578 0.0
N273 N 0.08993 0.24637 0.68233 0.0
H274 H 0.06073 0.21832 0.02491 0.0
H275 H 0.07824 0.19895 0.88413 0.0
H276 H 0.10002 0.25175 0.58862 0.0
H277 H 0.12481 0.23079 0.73271 0.0
H278 H 0.89855 0.36349 0.87505 0.0
H279 H 0.90641 0.33049 0.00822 0.0
H280 H 0.88242 0.35351 0.68956 0.0
H281 H 0.92349 0.34575 0.55922 0.0
C282 C 0.11586 0.80368 0.07007 0.0
C283 C 0.05947 0.78667 0.00321 0.0
C284 C 1.00083 0.77607 0.19553 0.0
C285 C 0.0582 0.79042 0.26289 0.0
N286 N 0.17209 0.81257 0.27057 0.0
N287 N 0.95047 0.75204 0.00022 0.0
C288 C 0.11624 0.80301 0.20195 0.0
C289 C 1.00261 0.77131 0.06543 0.0
N290 N 0.16892 0.8205 0.00731 0.0
N291 N 0.94426 0.76869 0.25549 0.0
H292 H 0.94877 0.74986 0.90391 0.0
H293 H 0.91039 0.73562 0.04184 0.0
H294 H 0.94123 0.77184 0.35104 0.0
H295 H 0.89957 0.76285 0.20994 0.0
H296 H 0.20871 0.83819 0.04879 0.0
H297 H 0.17212 0.81871 0.91143 0.0
H298 H 0.21724 0.81705 0.23289 0.0
H299 H 0.17402 0.81313 0.36746 0.0
C300 C 0.5103 0.78004 0.24597 0.0
C301 C 0.56835 0.79376 0.18606 0.0
C302 C 0.62189 0.81439 0.3842 0.0
C303 C 0.56508 0.79806 0.44541 0.0
N304 N 0.45684 0.76216 0.43966 0.0
N305 N 0.68155 0.81795 0.19548 0.0
C306 C 0.50977 0.77978 0.37774 0.0
C307 C 0.62476 0.80945 0.25434 0.0
N308 N 0.4552 0.76901 0.17641 0.0
N309 N 0.67293 0.83474 0.45015 0.0
H310 H 0.68533 0.81466 0.10016 0.0
H311 H 0.72584 0.82489 0.24176 0.0
H312 H 0.67389 0.83717 0.54633 0.0
H313 H 0.71278 0.85176 0.40925 0.0
H314 H 0.40983 0.76366 0.21303 0.0
H315 H 0.45396 0.76797 0.07967 0.0
H316 H 0.41801 0.74356 0.39792 0.0
H317 H 0.45284 0.76429 0.53525 0.0
C318 C 0.45336 0.26037 0.57394 0.0
C319 C 0.50876 0.28086 0.51456 0.0
C320 C 0.5539 0.30698 0.71495 0.0
C321 C 0.49595 0.28989 0.77126 0.0
N322 N 0.38619 0.25844 0.75154 0.0
N323 N 0.61082 0.32508 0.5252 0.0
C324 C 0.44462 0.26859 0.70008 0.0
C325 C 0.55864 0.30476 0.58422 0.0
N326 N 0.40861 0.23335 0.51033 0.0
N327 N 0.60541 0.32351 0.78703 0.0
H328 H 0.61916 0.32019 0.43252 0.0
H329 H 0.64458 0.34787 0.56623 0.0
H330 H 0.60359 0.32688 0.88248 0.0
H331 H 0.65133 0.33136 0.75426 0.0
H332 H 0.37199 0.21342 0.55345 0.0
H333 H 0.4096 0.22868 0.41549 0.0
H334 H 0.34465 0.24721 0.70099 0.0
H335 H 0.37784 0.26585 0.84239 0.0
loop_
_geom_bond_atom_site_label_1
_geom_bond_atom_site_label_2
_geom_bond_distance
_geom_bond_site_symmetry_2
_ccdc_geom_bond_type
Co0 N5 2.057 . S
Co0 O17 2.021 . S
Co0 O20 2.062 1_655 S
Co0 O24 2.117 1_655 S
Co0 O25 2.020 . S
C1 O21 1.259 . S
C1 O24 1.258 . S
Co2 N11 2.057 . S
Co2 O18 2.117 . S
Co2 O19 2.020 . S
Co2 O21 2.021 . S
Co2 O26 2.062 1_455 S
C3 N5 1.320 . S
C3 N6 1.345 1_655 S
C3 H8 0.929 1_655 S
C4 N5 1.375 . S
C4 C7 1.350 . S
C4 H9 0.930 . S
N5 Co0 2.057 . S
N5 C3 1.320 . S
N5 C4 1.375 . S
N6 C3 1.345 1_455 S
N6 C7 1.373 1_455 S
C7 C4 1.350 . S
C7 N6 1.373 1_655 S
C7 H28 0.931 . S
H8 C3 0.929 1_455 S
H9 C4 0.930 . S
C10 O17 1.259 1_455 S
C10 O18 1.258 . S
N11 Co2 2.057 . S
N11 C12 1.316 . S
N11 C13 1.375 . S
C12 N11 1.316 . S
C12 N14 1.347 . S
C12 H23 0.931 . S
C13 N11 1.375 . S
C13 C15 1.350 . S
C13 H22 0.930 . S
N14 C12 1.347 . S
N14 C15 1.373 . S
C15 C13 1.350 . S
C15 N14 1.373 . S
C15 H29 0.931 . S
C16 O19 1.256 . S
C16 O20 1.255 . S
O17 Co0 2.021 . S
O17 C10 1.259 1_655 S
O18 Co2 2.117 . S
O18 C10 1.258 . S
O19 Co2 2.020 . S
O19 C16 1.256 . S
O20 Co0 2.062 1_455 S
O20 C16 1.255 . S
O21 C1 1.259 . S
O21 Co2 2.021 . S
H22 C13 0.930 . S
H23 C12 0.931 . S
O24 Co0 2.117 1_455 S
O24 C1 1.258 . S
O25 Co0 2.020 . S
O25 C27 1.256 . S
O26 Co2 2.062 1_655 S
O26 C27 1.255 . S
C27 O25 1.256 . S
C27 O26 1.255 . S
H28 C7 0.931 . S
H29 C15 0.931 . S
Co30 N35 2.057 . S
Co30 O47 2.021 . S
Co30 O50 2.062 1_655 S
Co30 O54 2.117 1_655 S
Co30 O55 2.020 . S
C31 O51 1.259 . S
C31 O54 1.258 . S
Co32 N41 2.057 . S
Co32 O48 2.117 . S
Co32 O49 2.020 . S
Co32 O51 2.021 . S
Co32 O56 2.062 1_455 S
C33 N35 1.316 . S
C33 N36 1.349 . S
C33 H38 0.930 1_655 S
C34 N35 1.375 . S
C34 C37 1.350 . S
C34 H39 0.930 . S
N35 Co30 2.057 . S
N35 C33 1.316 . S
N35 C34 1.375 . S
N36 C33 1.349 . S
N36 C37 1.377 . S
C37 C34 1.350 . S
C37 N36 1.377 . S
C37 H58 0.931 . S
H38 C33 0.930 1_455 S
H39 C34 0.930 . S
C40 O47 1.259 1_455 S
C40 O48 1.258 . S
N41 Co32 2.057 . S
N41 C42 1.316 . S
N41 C43 1.375 . S
C42 N41 1.316 . S
C42 N44 1.347 . S
C42 H53 0.931 . S
C43 N41 1.375 . S
C43 C45 1.350 . S
C43 H52 0.930 . S
N44 C42 1.347 . S
N44 C45 1.373 . S
C45 C43 1.350 . S
C45 N44 1.373 . S
C45 H59 0.931 . S
C46 O49 1.256 . S
C46 O50 1.255 . S
O47 Co30 2.021 . S
O47 C40 1.259 1_655 S
O48 Co32 2.117 . S
O48 C40 1.258 . S
O49 Co32 2.020 . S
O49 C46 1.256 . S
O50 Co30 2.062 1_455 S
O50 C46 1.255 . S
O51 C31 1.259 . S
O51 Co32 2.021 . S
H52 C43 0.930 . S
H53 C42 0.931 . S
O54 Co30 2.117 1_455 S
O54 C31 1.258 . S
O55 Co30 2.020 . S
O55 C57 1.256 . S
O56 Co32 2.062 1_655 S
O56 C57 1.255 . S
C57 O55 1.256 . S
C57 O56 1.255 . S
H58 C37 0.931 . S
H59 C45 0.931 . S
Co60 N65 2.057 . S
Co60 O77 2.021 . S
Co60 O80 2.062 . S
Co60 O84 2.117 1_556 S
Co60 O85 2.020 . S
C61 O81 1.259 . S
C61 O84 1.258 . S
Co62 N71 2.057 . S
Co62 O78 2.117 . S
Co62 O79 2.020 . S
Co62 O81 2.021 1_556 S
Co62 O86 2.062 . S
C63 N65 1.316 . S
C63 N66 1.347 . S
C63 H68 0.931 . S
C64 N65 1.375 1_554 S
C64 C67 1.350 . S
C64 H69 0.930 . S
N65 Co60 2.057 . S
N65 C63 1.316 . S
N65 C64 1.375 1_556 S
N66 C63 1.347 . S
N66 C67 1.373 1_556 S
C67 C64 1.350 . S
C67 N66 1.373 1_554 S
C67 H88 0.931 . S
H68 C63 0.931 . S
H69 C64 0.930 . S
C70 O77 1.259 . S
C70 O78 1.258 . S
N71 Co62 2.057 . S
N71 C72 1.316 . S
N71 C73 1.375 . S
C72 N71 1.316 . S
C72 N74 1.347 . S
C72 H83 0.931 1_556 S
C73 N71 1.375 . S
C73 C75 1.350 . S
C73 H82 0.930 . S
N74 C72 1.347 . S
N74 C75 1.373 . S
C75 C73 1.350 . S
C75 N74 1.373 . S
C75 H89 0.931 . S
C76 O79 1.256 . S
C76 O80 1.255 . S
O77 Co60 2.021 . S
O77 C70 1.259 . S
O78 Co62 2.117 . S
O78 C70 1.258 . S
O79 Co62 2.020 . S
O79 C76 1.256 . S
O80 Co60 2.062 . S
O80 C76 1.255 . S
O81 C61 1.259 . S
O81 Co62 2.021 1_554 S
H82 C73 0.930 . S
H83 C72 0.931 1_554 S
O84 Co60 2.117 1_554 S
O84 C61 1.258 . S
O85 Co60 2.020 . S
O85 C87 1.256 . S
O86 Co62 2.062 . S
O86 C87 1.255 . S
C87 O85 1.256 . S
C87 O86 1.255 . S
H88 C67 0.931 . S
H89 C75 0.931 . S
Co90 N95 2.057 . S
Co90 O107 2.021 1_554 S
Co90 O110 2.062 . S
Co90 O114 2.117 . S
Co90 O115 2.020 . S
C91 O111 1.259 . S
C91 O114 1.258 . S
Co92 N101 2.057 . S
Co92 O108 2.117 1_554 S
Co92 O109 2.020 . S
Co92 O111 2.021 . S
Co92 O116 2.062 . S
C93 N95 1.316 . S
C93 N96 1.347 . S
C93 H98 0.931 1_554 S
C94 N95 1.375 . S
C94 C97 1.350 . S
C94 H99 0.930 . S
N95 Co90 2.057 . S
N95 C93 1.316 . S
N95 C94 1.375 . S
N96 C93 1.347 . S
N96 C97 1.373 . S
C97 C94 1.350 . S
C97 N96 1.373 . S
C97 H118 0.931 . S
H98 C93 0.931 1_556 S
H99 C94 0.930 . S
C100 O107 1.259 . S
C100 O108 1.258 . S
N101 Co92 2.057 . S
N101 C102 1.316 . S
N101 C103 1.375 1_554 S
C102 N101 1.316 . S
C102 N104 1.347 . S
C102 H113 0.931 . S
C103 N101 1.375 1_556 S
C103 C105 1.350 . S
C103 H112 0.930 . S
N104 C102 1.347 . S
N104 C105 1.373 1_554 S
C105 C103 1.350 . S
C105 N104 1.373 1_556 S
C105 H119 0.931 . S
C106 O109 1.256 . S
C106 O110 1.255 . S
O107 Co90 2.021 1_556 S
O107 C100 1.259 . S
O108 Co92 2.117 1_556 S
O108 C100 1.258 . S
O109 Co92 2.020 . S
O109 C106 1.256 . S
O110 Co90 2.062 . S
O110 C106 1.255 . S
O111 C91 1.259 . S
O111 Co92 2.021 . S
H112 C103 0.930 . S
H113 C102 0.931 . S
O114 Co90 2.117 . S
O114 C91 1.258 . S
O115 Co90 2.020 . S
O115 C117 1.256 . S
O116 Co92 2.062 . S
O116 C117 1.255 . S
C117 O115 1.256 . S
C117 O116 1.255 . S
H118 C97 0.931 . S
H119 C105 0.931 . S
C120 C121 1.363 1_655 S
C120 C126 1.379 . S
C120 N128 1.356 . S
C121 C120 1.363 1_455 S
C121 C127 1.363 . S
C122 C123 1.363 . S
C122 C127 1.379 . S
C122 N129 1.356 . S
C123 C122 1.363 . S
C123 C126 1.363 1_455 S
N124 C126 1.356 . S
N124 H136 0.984 . S
N124 H137 0.985 . S
N125 C127 1.356 . S
N125 H130 0.984 . S
N125 H131 0.985 . S
C126 C120 1.379 . S
C126 C123 1.363 1_655 S
C126 N124 1.356 . S
C127 C121 1.363 . S
C127 C122 1.379 . S
C127 N125 1.356 . S
N128 C120 1.356 . S
N128 H134 0.984 . S
N128 H135 0.984 . S
N129 C122 1.356 . S
N129 H132 0.984 . S
N129 H133 0.985 . S
H130 N125 0.984 . S
H131 N125 0.985 . S
H132 N129 0.984 . S
H133 N129 0.985 . S
H134 N128 0.984 . S
H135 N128 0.984 . S
H136 N124 0.984 . S
H137 N124 0.985 . S
C138 C139 1.363 . S
C138 C144 1.379 . S
C138 N146 1.356 . S
C139 C138 1.363 . S
C139 C145 1.363 . S
C140 C141 1.363 . S
C140 C145 1.379 . S
C140 N147 1.356 . S
C141 C140 1.363 . S
C141 C144 1.363 . S
N142 C144 1.356 . S
N142 H154 0.984 . S
N142 H155 0.985 . S
N143 C145 1.356 . S
N143 H148 0.984 . S
N143 H149 0.985 . S
C144 C138 1.379 . S
C144 C141 1.363 . S
C144 N142 1.356 . S
C145 C139 1.363 . S
C145 C140 1.379 . S
C145 N143 1.356 . S
N146 C138 1.356 . S
N146 H152 0.984 . S
N146 H153 0.984 . S
N147 C140 1.356 . S
N147 H150 0.984 . S
N147 H151 0.985 . S
H148 N143 0.984 . S
H149 N143 0.985 . S
H150 N147 0.984 . S
H151 N147 0.985 . S
H152 N146 0.984 . S
H153 N146 0.984 . S
H154 N142 0.984 . S
H155 N142 0.985 . S
C156 C157 1.363 1_556 S
C156 C162 1.379 . S
C156 N164 1.356 . S
C157 C156 1.363 1_554 S
C157 C163 1.363 . S
C158 C159 1.363 1_554 S
C158 C163 1.379 . S
C158 N165 1.356 . S
C159 C158 1.363 1_556 S
C159 C162 1.363 . S
N160 C162 1.356 . S
N160 H172 0.984 . S
N160 H173 0.985 . S
N161 C163 1.356 . S
N161 H166 0.984 . S
N161 H167 0.985 . S
C162 C156 1.379 . S
C162 C159 1.363 . S
C162 N160 1.356 . S
C163 C157 1.363 . S
C163 C158 1.379 . S
C163 N161 1.356 . S
N164 C156 1.356 . S
N164 H170 0.984 . S
N164 H171 0.984 1_556 S
N165 C158 1.356 . S
N165 H168 0.984 1_554 S
N165 H169 0.985 . S
H166 N161 0.984 . S
H167 N161 0.985 . S
H168 N165 0.984 1_556 S
H169 N165 0.985 . S
H170 N164 0.984 . S
H171 N164 0.984 1_554 S
H172 N160 0.984 . S
H173 N160 0.985 . S
C174 C175 1.363 . S
C174 C180 1.379 . S
C174 N182 1.356 . S
C175 C174 1.363 . S
C175 C181 1.363 . S
C176 C177 1.363 . S
C176 C181 1.379 . S
C176 N183 1.356 . S
C177 C176 1.363 . S
C177 C180 1.363 . S
N178 C180 1.356 . S
N178 H190 0.984 . S
N178 H191 0.985 . S
N179 C181 1.356 . S
N179 H184 0.984 . S
N179 H185 0.985 . S
C180 C174 1.379 . S
C180 C177 1.363 . S
C180 N178 1.356 . S
C181 C175 1.363 . S
C181 C176 1.379 . S
C181 N179 1.356 . S
N182 C174 1.356 . S
N182 H188 0.984 . S
N182 H189 0.984 . S
N183 C176 1.356 . S
N183 H186 0.984 1_554 S
N183 H187 0.985 1_554 S
H184 N179 0.984 . S
H185 N179 0.985 . S
H186 N183 0.984 1_556 S
H187 N183 0.985 1_556 S
H188 N182 0.984 . S
H189 N182 0.984 . S
H190 N178 0.984 . S
H191 N178 0.985 . S
C192 C193 1.363 . S
C192 C198 1.379 . S
C192 N200 1.356 . S
C193 C192 1.363 . S
C193 C199 1.363 . S
C194 C195 1.363 . S
C194 C199 1.379 . S
C194 N201 1.356 . S
C195 C194 1.363 . S
C195 C198 1.363 . S
N196 C198 1.356 . S
N196 H208 0.984 . S
N196 H209 0.985 . S
N197 C199 1.356 1_556 S
N197 H202 0.984 . S
N197 H203 0.985 . S
C198 C192 1.379 . S
C198 C195 1.363 . S
C198 N196 1.356 . S
C199 C193 1.363 . S
C199 C194 1.379 . S
C199 N197 1.356 1_554 S
N200 C192 1.356 . S
N200 H206 0.984 . S
N200 H207 0.984 . S
N201 C194 1.356 . S
N201 H204 0.984 . S
N201 H205 0.985 . S
H202 N197 0.984 . S
H203 N197 0.985 . S
H204 N201 0.984 . S
H205 N201 0.985 . S
H206 N200 0.984 . S
H207 N200 0.984 . S
H208 N196 0.984 . S
H209 N196 0.985 . S
C210 C211 1.363 . S
C210 C216 1.379 . S
C210 N218 1.356 . S
C211 C210 1.363 . S
C211 C217 1.363 . S
C212 C213 1.363 . S
C212 C217 1.379 . S
C212 N219 1.356 . S
C213 C212 1.363 . S
C213 C216 1.363 . S
N214 C216 1.356 . S
N214 H226 0.984 . S
N214 H227 0.985 . S
N215 C217 1.356 . S
N215 H220 0.984 . S
N215 H221 0.985 . S
C216 C210 1.379 . S
C216 C213 1.363 . S
C216 N214 1.356 . S
C217 C211 1.363 . S
C217 C212 1.379 . S
C217 N215 1.356 . S
N218 C210 1.356 . S
N218 H224 0.984 . S
N218 H225 0.984 . S
N219 C212 1.356 . S
N219 H222 0.984 . S
N219 H223 0.985 . S
H220 N215 0.984 . S
H221 N215 0.985 . S
H222 N219 0.984 . S
H223 N219 0.985 . S
H224 N218 0.984 . S
H225 N218 0.984 . S
H226 N214 0.984 . S
H227 N214 0.985 . S
C228 C229 1.363 1_545 S
C228 C234 1.379 . S
C228 N236 1.356 1_545 S
C229 C228 1.363 1_565 S
C229 C235 1.363 1_556 S
C230 C231 1.363 1_565 S
C230 C235 1.379 . S
C230 N237 1.356 1_565 S
C231 C230 1.363 1_545 S
C231 C234 1.363 1_554 S
N232 C234 1.356 . S
N232 H244 0.984 . S
N232 H245 0.985 . S
N233 C235 1.356 . S
N233 H238 0.984 . S
N233 H239 0.985 . S
C234 C228 1.379 . S
C234 C231 1.363 1_556 S
C234 N232 1.356 . S
C235 C229 1.363 1_554 S
C235 C230 1.379 . S
C235 N233 1.356 . S
N236 C228 1.356 1_565 S
N236 H242 0.984 1_565 S
N236 H243 0.984 . S
N237 C230 1.356 1_545 S
N237 H240 0.984 . S
N237 H241 0.985 1_545 S
H238 N233 0.984 . S
H239 N233 0.985 . S
H240 N237 0.984 . S
H241 N237 0.985 1_565 S
H242 N236 0.984 1_545 S
H243 N236 0.984 . S
H244 N232 0.984 . S
H245 N232 0.985 . S
C246 C247 1.363 1_655 S
C246 C252 1.379 1_565 S
C246 N254 1.356 . S
C247 C246 1.363 1_455 S
C247 C253 1.363 . S
C248 C249 1.363 . S
C248 C253 1.379 1_545 S
C248 N255 1.356 . S
C249 C248 1.363 . S
C249 C252 1.363 1_455 S
N250 C252 1.356 . S
N250 H262 0.984 . S
N250 H263 0.985 . S
N251 C253 1.356 . S
N251 H256 0.984 . S
N251 H257 0.985 . S
C252 C246 1.379 1_545 S
C252 C249 1.363 1_655 S
C252 N250 1.356 . S
C253 C247 1.363 . S
C253 C248 1.379 1_565 S
C253 N251 1.356 . S
N254 C246 1.356 . S
N254 H260 0.984 . S
N254 H261 0.984 . S
N255 C248 1.356 . S
N255 H258 0.984 . S
N255 H259 0.985 . S
H256 N251 0.984 . S
H257 N251 0.985 . S
H258 N255 0.984 . S
H259 N255 0.985 . S
H260 N254 0.984 . S
H261 N254 0.984 . S
H262 N250 0.984 . S
H263 N250 0.985 . S
C264 C265 1.363 1_656 S
C264 C270 1.379 . S
C264 N272 1.356 1_556 S
C265 C264 1.363 1_454 S
C265 C271 1.363 1_554 S
C266 C267 1.363 . S
C266 C271 1.379 . S
C266 N273 1.356 . S
C267 C266 1.363 . S
C267 C270 1.363 1_455 S
N268 C270 1.356 . S
N268 H280 0.984 . S
N268 H281 0.985 . S
N269 C271 1.356 1_554 S
N269 H274 0.984 . S
N269 H275 0.985 . S
C270 C264 1.379 . S
C270 C267 1.363 1_655 S
C270 N268 1.356 . S
C271 C265 1.363 1_556 S
C271 C266 1.379 . S
C271 N269 1.356 1_556 S
N272 C264 1.356 1_554 S
N272 H278 0.984 . S
N272 H279 0.984 . S
N273 C266 1.356 . S
N273 H276 0.984 . S
N273 H277 0.985 . S
H274 N269 0.984 . S
H275 N269 0.985 . S
H276 N273 0.984 . S
H277 N273 0.985 . S
H278 N272 0.984 . S
H279 N272 0.984 . S
H280 N268 0.984 . S
H281 N268 0.985 . S
C282 C283 1.363 1_554 S
C282 C288 1.379 . S
C282 N290 1.356 1_554 S
C283 C282 1.363 1_556 S
C283 C289 1.363 1_456 S
C284 C285 1.363 1_655 S
C284 C289 1.379 . S
C284 N291 1.356 . S
C285 C284 1.363 1_455 S
C285 C288 1.363 . S
N286 C288 1.356 . S
N286 H298 0.984 . S
N286 H299 0.985 . S
N287 C289 1.356 1_556 S
N287 H292 0.984 . S
N287 H293 0.985 . S
C288 C282 1.379 . S
C288 C285 1.363 . S
C288 N286 1.356 . S
C289 C283 1.363 1_654 S
C289 C284 1.379 . S
C289 N287 1.356 1_554 S
N290 C282 1.356 1_556 S
N290 H296 0.984 . S
N290 H297 0.984 . S
N291 C284 1.356 . S
N291 H294 0.984 . S
N291 H295 0.985 . S
H292 N287 0.984 . S
H293 N287 0.985 . S
H294 N291 0.984 . S
H295 N291 0.985 . S
H296 N290 0.984 . S
H297 N290 0.984 . S
H298 N286 0.984 . S
H299 N286 0.985 . S
C300 C301 1.363 . S
C300 C306 1.379 . S
C300 N308 1.356 . S
C301 C300 1.363 . S
C301 C307 1.363 . S
C302 C303 1.363 . S
C302 C307 1.379 . S
C302 N309 1.356 . S
C303 C302 1.363 . S
C303 C306 1.363 . S
N304 C306 1.356 . S
N304 H316 0.984 . S
N304 H317 0.985 . S
N305 C307 1.356 . S
N305 H310 0.984 . S
N305 H311 0.985 . S
C306 C300 1.379 . S
C306 C303 1.363 . S
C306 N304 1.356 . S
C307 C301 1.363 . S
C307 C302 1.379 . S
C307 N305 1.356 . S
N308 C300 1.356 . S
N308 H314 0.984 . S
N308 H315 0.984 . S
N309 C302 1.356 . S
N309 H312 0.984 . S
N309 H313 0.985 . S
H310 N305 0.984 . S
H311 N305 0.985 . S
H312 N309 0.984 . S
H313 N309 0.985 . S
H314 N308 0.984 . S
H315 N308 0.984 . S
H316 N304 0.984 . S
H317 N304 0.985 . S
C318 C319 1.363 . S
C318 C324 1.379 . S
C318 N326 1.356 . S
C319 C318 1.363 . S
C319 C325 1.363 . S
C320 C321 1.363 . S
C320 C325 1.379 . S
C320 N327 1.356 . S
C321 C320 1.363 . S
C321 C324 1.363 . S
N322 C324 1.356 . S
N322 H334 0.984 . S
N322 H335 0.985 . S
N323 C325 1.356 . S
N323 H328 0.984 . S
N323 H329 0.985 . S
C324 C318 1.379 . S
C324 C321 1.363 . S
C324 N322 1.356 . S
C325 C319 1.363 . S
C325 C320 1.379 . S
C325 N323 1.356 . S
N326 C318 1.356 . S
N326 H332 0.984 . S
N326 H333 0.984 . S
N327 C320 1.356 . S
N327 H330 0.984 . S
N327 H331 0.985 . S
H328 N323 0.984 . S
H329 N323 0.985 . S
H330 N327 0.984 . S
H331 N327 0.985 . S
H332 N326 0.984 . S
H333 N326 0.984 . S
H334 N322 0.984 . S
H335 N322 0.985 . S
C121 N14 1.834 . S
C123 N36 1.830 1_455 S
C139 C76 1.769 . S
C141 C57 1.769 . S
C157 N104 1.596 . S
C159 N66 1.596 . S
C175 C27 1.709 . S
C177 C106 1.709 . S
C193 C117 1.768 . S
C195 C16 1.768 . S
C211 C87 1.709 . S
C213 C46 1.709 . S
C229 N74 1.834 . S
C231 N96 1.834 . S
C247 N44 1.596 . S
C249 N6 1.596 . S
C265 C10 1.063 . S
C267 C1 1.063 . S
C283 C31 1.063 . S
C285 C40 1.063 . S
C301 C61 1.063 . S
C303 C70 1.063 . S
C319 C91 1.063 . S
C321 C100 1.063 . S
