# Generated by pormake.
# Topology vme, (6)-cn, num edge types: 1
# Building blocks:
#     Node 0, Type 0, BuildingBlock: IZENUY_clean_sbu_0, # of connection points: 6
#     Node 1, Type 0, BuildingBlock: IZENUY_clean_sbu_0, # of connection points: 6
#     Node 2, Type 0, BuildingBlock: IZENUY_clean_sbu_0, # of connection points: 6
#     Node 3, Type 0, BuildingBlock: IZENUY_clean_sbu_0, # of connection points: 6
#     Edge 4, Type (0, 0), BuildingBlock: MIFKUJ_clean_linker_0, # of connection points: 2
#     Edge 5, Type (0, 0), BuildingBlock: MIFKUJ_clean_linker_0, # of connection points: 2
#     Edge 6, Type (0, 0), BuildingBlock: MIFKUJ_clean_linker_0, # of connection points: 2
#     Edge 7, Type (0, 0), BuildingBlock: MIFKUJ_clean_linker_0, # of connection points: 2
#     Edge 8, Type (0, 0), BuildingBlock: MIFKUJ_clean_linker_0, # of connection points: 2
#     Edge 9, Type (0, 0), BuildingBlock: MIFKUJ_clean_linker_0, # of connection points: 2
#     Edge 10, Type (0, 0), BuildingBlock: MIFKUJ_clean_linker_0, # of connection points: 2
#     Edge 11, Type (0, 0), BuildingBlock: MIFKUJ_clean_linker_0, # of connection points: 2
#     Edge 12, Type (0, 0), BuildingBlock: MIFKUJ_clean_linker_0, # of connection points: 2
#     Edge 13, Type (0, 0), BuildingBlock: MIFKUJ_clean_linker_0, # of connection points: 2
#     Edge 14, Type (0, 0), BuildingBlock: MIFKUJ_clean_linker_0, # of connection points: 2
#     Edge 15, Type (0, 0), BuildingBlock: MIFKUJ_clean_linker_0, # of connection points: 2
# Relax obj value: 0.240
# Max RMSD: 0.243
# Mean RMSD: 0.243
data_MOF--net-vme--node1-IZENUY_clean_sbu_0--edge1-MIFKUJ_clean_linker_0
_symmetry_space_group_name_H-M    P1
_symmetry_Int_Tables_number       1
_symmetry_cell_setting            triclinic
loop_
_symmetry_equiv_pos_as_xyz
'x, y, z'
_cell_length_a     33.04385
_cell_length_b     32.903233
_cell_length_c     36.176163
_cell_angle_alpha  90.117094
_cell_angle_beta   116.0706
_cell_angle_gamma 90.070634
loop_
_atom_site_label
_atom_site_type_symbol
_atom_site_fract_x
_atom_site_fract_y
_atom_site_fract_z
_atom_type_partial_charge
Fe0 Fe 0.14166 0.38397 0.3369 0.0
Fe1 Fe 0.2313 0.34078 0.38693 0.0
O2 O 0.19326 0.38062 0.38144 0.0
Fe3 Fe 0.20654 0.41711 0.42095 0.0
O4 O 0.15848 0.40223 0.42885 0.0
O5 O 0.1101 0.40615 0.36373 0.0
O6 O 0.1241 0.33506 0.34636 0.0
C7 C 0.14473 0.30256 0.34787 0.0
C8 C 0.16081 0.46363 0.3475 0.0
O9 O 0.18674 0.30288 0.35767 0.0
C10 C 0.28781 0.41046 0.41989 0.0
O11 O 0.16365 0.3621 0.30224 0.0
O12 O 0.23645 0.3562 0.3412 0.0
O13 O 0.17485 0.45909 0.38603 0.0
O14 O 0.15645 0.43323 0.32495 0.0
C15 C 0.23535 0.34361 0.46395 0.0
O16 O 0.28247 0.37198 0.41703 0.0
O17 O 0.25542 0.43345 0.41516 0.0
C18 C 0.20349 0.35769 0.30602 0.0
O19 O 0.22766 0.32263 0.43243 0.0
O20 O 0.23956 0.38188 0.46316 0.0
C21 C 0.11856 0.40468 0.40152 0.0
Fe22 Fe 0.78129 0.83822 0.12258 0.0
Fe23 Fe 0.80312 0.91613 0.08893 0.0
O24 O 0.81891 0.87826 0.1271 0.0
Fe25 Fe 0.87255 0.88015 0.16941 0.0
O26 O 0.88748 0.8319 0.15572 0.0
O27 O 0.8262 0.79986 0.1486 0.0
O28 O 0.78095 0.82155 0.07501 0.0
C29 C 0.77142 0.84354 0.04388 0.0
C30 C 0.81488 0.85274 0.20436 0.0
O31 O 0.76816 0.88181 0.04622 0.0
C32 C 0.85397 0.96011 0.16364 0.0
O33 O 0.72972 0.86942 0.09569 0.0
O34 O 0.7563 0.93121 0.09866 0.0
O35 O 0.85381 0.85659 0.20573 0.0
O36 O 0.78021 0.85253 0.17032 0.0
C37 C 0.88955 0.90467 0.10221 0.0
O38 O 0.83647 0.9572 0.12464 0.0
O39 O 0.86062 0.92873 0.18532 0.0
C40 C 0.7244 0.9078 0.09449 0.0
O41 O 0.8487 0.90284 0.07696 0.0
O42 O 0.90111 0.90383 0.14065 0.0
C43 C 0.86712 0.79928 0.15453 0.0
Fe44 Fe 0.8088 0.59132 0.59019 0.0
Fe45 Fe 0.8743 0.62326 0.67459 0.0
O46 O 0.82284 0.62761 0.62991 0.0
Fe47 Fe 0.78582 0.66831 0.62438 0.0
O48 O 0.78977 0.68593 0.5789 0.0
O49 O 0.77647 0.62675 0.54803 0.0
O50 O 0.85734 0.60521 0.58261 0.0
C51 C 0.8971 0.60155 0.61002 0.0
C52 C 0.72769 0.59957 0.59125 0.0
O53 O 0.90532 0.60002 0.64776 0.0
C54 C 0.81301 0.65207 0.70519 0.0
O55 O 0.83922 0.54899 0.62486 0.0
O56 O 0.85831 0.57421 0.68636 0.0
O57 O 0.73385 0.63796 0.59434 0.0
O58 O 0.75954 0.576 0.59577 0.0
C59 C 0.87316 0.70488 0.66248 0.0
O60 O 0.85277 0.64608 0.70931 0.0
O61 O 0.78031 0.65363 0.66993 0.0
C62 C 0.85256 0.54391 0.66325 0.0
O63 O 0.89321 0.67171 0.66524 0.0
O64 O 0.83134 0.70542 0.65351 0.0
C65 C 0.78106 0.66492 0.54724 0.0
Fe66 Fe 0.23383 0.17078 0.88807 0.0
Fe67 Fe 0.21064 0.09495 0.92372 0.0
O68 O 0.19542 0.1318 0.88462 0.0
Fe69 Fe 0.14152 0.13006 0.84254 0.0
O70 O 0.12787 0.1794 0.85534 0.0
O71 O 0.18978 0.20954 0.86137 0.0
O72 O 0.23498 0.18929 0.93547 0.0
C73 C 0.24426 0.16816 0.96713 0.0
C74 C 0.1994 0.15449 0.80652 0.0
O75 O 0.24647 0.12972 0.96555 0.0
C76 C 0.15911 0.04959 0.85013 0.0
O77 O 0.28476 0.13898 0.91548 0.0
O78 O 0.25701 0.07799 0.91417 0.0
O79 O 0.16049 0.15157 0.80545 0.0
O80 O 0.2342 0.15469 0.84048 0.0
C81 C 0.12463 0.10887 0.91063 0.0
O82 O 0.17646 0.05359 0.88904 0.0
O83 O 0.15199 0.08038 0.82752 0.0
C84 C 0.28934 0.10053 0.9177 0.0
O85 O 0.16557 0.11016 0.93564 0.0
O86 O 0.11278 0.10841 0.87214 0.0
C87 C 0.14925 0.21135 0.85634 0.0
H88 H 0.84015 0.03876 0.13479 0.0
H89 H 0.88862 0.09781 0.16646 0.0
H90 H 0.97583 0.02273 0.26803 0.0
H91 H 0.92622 0.96524 0.23842 0.0
H92 H 0.97367 0.08876 0.2982 0.0
H93 H 0.99547 0.05309 0.17855 0.0
H94 H 0.97419 0.04107 0.10494 0.0
H95 H 0.92531 0.1632 0.07673 0.0
H96 H 0.94578 0.17601 0.15004 0.0
H97 H 0.16869 0.22188 0.36368 0.0
H98 H 0.11987 0.16232 0.33265 0.0
H99 H 0.01043 0.2419 0.25935 0.0
H100 H 0.05789 0.30078 0.29041 0.0
H101 H 0.02666 0.17412 0.2153 0.0
H102 H 1.00547 0.20668 0.337 0.0
H103 H 0.03309 0.21829 0.41154 0.0
H104 H 0.08825 0.09779 0.43609 0.0
H105 H 0.06149 0.0857 0.36165 0.0
C106 C 0.86921 0.03525 0.16426 0.0
C107 C 0.87913 0.99737 0.18409 0.0
C108 C 0.89732 0.06884 0.18211 0.0
C109 C 0.93677 0.06469 0.21928 0.0
C110 C 0.94577 0.02705 0.23946 0.0
C111 C 0.91714 0.99403 0.22239 0.0
C112 C 0.96916 0.09897 0.2375 0.0
C113 C 0.98561 0.10685 0.27993 0.0
C114 C 0.98469 0.12331 0.21397 0.0
C115 C 0.97173 0.11537 0.16977 0.0
C116 C 0.97984 0.07729 0.15662 0.0
C117 C 0.96799 0.07034 0.11497 0.0
C118 C 0.94834 0.10123 0.0862 0.0
C119 C 0.94048 0.13925 0.09902 0.0
C120 C 0.95221 0.14639 0.14062 0.0
C121 C 0.13423 0.22647 0.34096 0.0
C122 C 0.11701 0.26592 0.32985 0.0
C123 C 0.10648 0.19259 0.32329 0.0
C124 C 0.06164 0.19792 0.29372 0.0
C125 C 0.04492 0.23721 0.28201 0.0
C126 C 0.0721 0.27081 0.30012 0.0
C127 C 0.03107 0.16294 0.27549 0.0
C128 C 0.01485 0.15535 0.23322 0.0
C129 C 0.0164 0.13836 0.29917 0.0
C130 C 0.03195 0.14547 0.34383 0.0
C131 C 0.02383 0.18279 0.35832 0.0
C132 C 0.03925 0.18944 0.40054 0.0
C133 C 0.06254 0.15884 0.42855 0.0
C134 C 0.07029 0.12149 0.41437 0.0
C135 C 0.05498 0.11472 0.37217 0.0
H136 H 0.07447 0.16405 0.46123 0.0
H137 H 0.93932 0.09574 0.054 0.0
H138 H 0.07451 0.46181 0.29125 0.0
H139 H 0.02478 0.5185 0.25841 0.0
H140 H 0.1333 0.60259 0.32466 0.0
H141 H 0.18285 0.54499 0.36009 0.0
H142 H 0.06065 0.63249 0.32177 0.0
H143 H 0.0961 0.57739 0.21816 0.0
H144 H 0.10598 0.52454 0.1744 0.0
H145 H 0.96472 0.49662 0.12236 0.0
H146 H 0.95407 0.54893 0.16623 0.0
H147 H 0.9573 0.79234 0.17863 0.0
H148 H 1.00537 0.7343 0.21033 0.0
H149 H 0.88926 0.66293 0.19408 0.0
H150 H 0.84017 0.7218 0.16307 0.0
H151 H 0.96589 0.62843 0.17068 0.0
H152 H 0.93496 0.69062 0.27678 0.0
H153 H 0.9305 0.74852 0.31813 0.0
H154 H 0.07254 0.76943 0.36268 0.0
H155 H 0.0775 0.71209 0.32082 0.0
C156 C 0.08795 0.4924 0.29858 0.0
C157 C 0.13278 0.49916 0.32742 0.0
C158 C 0.05948 0.52484 0.27963 0.0
C159 C 0.07553 0.56492 0.28785 0.0
C160 C 0.12023 0.5719 0.31741 0.0
C161 C 0.14859 0.53916 0.33745 0.0
C162 C 0.04501 0.59907 0.26576 0.0
C163 C 0.04047 0.63176 0.28868 0.0
C164 C 0.0182 0.5982 0.22248 0.0
C165 C 0.02437 0.56689 0.19575 0.0
C166 C 0.06718 0.55981 0.19757 0.0
C167 C 0.07292 0.52997 0.17272 0.0
C168 C 0.03603 0.50718 0.14568 0.0
C169 C 0.99328 0.51428 0.14335 0.0
C170 C 0.98736 0.54406 0.16816 0.0
C171 C 0.94156 0.76433 0.18134 0.0
C172 C 0.89469 0.76189 0.1685 0.0
C173 C 0.96929 0.7312 0.19956 0.0
C174 C 0.95084 0.69468 0.2048 0.0
C175 C 0.90396 0.69112 0.19026 0.0
C176 C 0.87603 0.72468 0.17256 0.0
C177 C 0.98131 0.66097 0.22684 0.0
C178 C 0.98607 0.62875 0.20379 0.0
C179 C 0.00921 0.66293 0.26972 0.0
C180 C 1.00642 0.69723 0.29529 0.0
C181 C 0.9651 0.70778 0.29507 0.0
C182 C 0.96251 0.74047 0.31866 0.0
C183 C 1.00121 0.7627 0.34298 0.0
C184 C 0.04256 0.75221 0.34379 0.0
C185 C 0.04525 0.71959 0.32012 0.0
H186 H 0.99917 0.788 0.36125 0.0
H187 H 0.04055 0.48407 0.12649 0.0
H188 H 0.15759 0.97709 0.88737 0.0
H189 H 0.11226 0.91674 0.85475 0.0
H190 H 0.06251 0.97542 0.7364 0.0
H191 H 0.10874 0.03462 0.76819 0.0
H192 H 0.02612 0.90614 0.81705 0.0
H193 H 0.03439 0.90989 0.65931 0.0
H194 H 0.08902 0.9269 0.63222 0.0
H195 H 0.19852 0.90407 0.75081 0.0
H196 H 0.1446 0.88639 0.77845 0.0
H197 H 0.84889 0.78141 0.67699 0.0
H198 H 0.89901 0.8399 0.70708 0.0
H199 H 0.01127 0.77012 0.71092 0.0
H200 H 0.96172 0.71267 0.67992 0.0
H201 H 0.01939 0.84232 0.69012 0.0
H202 H 0.99083 0.78292 0.7961 0.0
H203 H 0.94417 0.75722 0.82868 0.0
H204 H 0.89108 0.87689 0.82537 0.0
H205 H 0.93675 0.9032 0.7919 0.0
C206 C 0.13777 0.97674 0.85427 0.0
C207 C 0.13706 0.01075 0.83047 0.0
C208 C 0.11152 0.94235 0.8357 0.0
C209 C 0.08403 0.94131 0.79301 0.0
C210 C 0.084 0.97496 0.76922 0.0
C211 C 0.11052 0.00899 0.78759 0.0
C212 C 0.05407 0.90588 0.77326 0.0
C213 C 0.02476 0.89216 0.78935 0.0
C214 C 0.05268 0.88694 0.73751 0.0
C215 C 0.08539 0.89721 0.72103 0.0
C216 C 0.07012 0.90835 0.67956 0.0
C217 C 0.10097 0.91814 0.66412 0.0
C218 C 0.1472 0.91669 0.68981 0.0
C219 C 0.1627 0.90533 0.73098 0.0
C220 C 0.13201 0.89548 0.74656 0.0
C221 C 0.88411 0.77882 0.68369 0.0
C222 C 0.90126 0.74218 0.67634 0.0
C223 C 0.91282 0.81215 0.7012 0.0
C224 C 0.95917 0.80925 0.71195 0.0
C225 C 0.97577 0.77324 0.70303 0.0
C226 C 0.94725 0.74023 0.68539 0.0
C227 C 0.99105 0.84293 0.73356 0.0
C228 C 0.02067 0.85639 0.71776 0.0
C229 C 0.99394 0.86041 0.77048 0.0
C230 C 0.96679 0.84492 0.79101 0.0
C231 C 0.96893 0.80371 0.802 0.0
C232 C 0.9427 0.78903 0.82063 0.0
C233 C 0.91459 0.81538 0.82891 0.0
C234 C 0.91279 0.85651 0.81878 0.0
C235 C 0.93882 0.87132 0.79995 0.0
H236 H 0.89427 0.80389 0.84322 0.0
H237 H 0.17103 0.9243 0.6778 0.0
H238 H 0.87228 0.47889 0.62656 0.0
H239 H 0.92223 0.42219 0.66103 0.0
H240 H 0.9345 0.46523 0.7782 0.0
H241 H 0.88489 0.5222 0.74412 0.0
H242 H 0.01634 0.45087 0.78063 0.0
H243 H 0.87438 0.38014 0.73439 0.0
H244 H 0.79973 0.35691 0.68301 0.0
H245 H 0.86126 0.29548 0.61592 0.0
H246 H 0.93626 0.31879 0.66665 0.0
H247 H 0.07033 0.22814 0.85914 0.0
H248 H 0.02028 0.28539 0.8282 0.0
H249 H 0.11744 0.33781 0.79241 0.0
H250 H 0.16816 0.28017 0.82359 0.0
H251 H 0.98149 0.30471 0.74845 0.0
H252 H 0.10113 0.44173 0.78604 0.0
H253 H 0.17478 0.46447 0.83975 0.0
H254 H 0.15524 0.39244 0.92948 0.0
H255 H 0.08128 0.36968 0.87643 0.0
C256 C 0.88465 0.4758 0.65954 0.0
C257 C 0.8746 0.50522 0.68257 0.0
C258 C 0.91343 0.44342 0.67923 0.0
C259 C 0.93233 0.43964 0.72223 0.0
C260 C 0.92062 0.4678 0.74504 0.0
C261 C 0.89194 0.50017 0.72543 0.0
C262 C 0.96576 0.40738 0.7437 0.0
C263 C 0.00871 0.41889 0.7736 0.0
C264 C 0.95589 0.36571 0.7345 0.0
C265 C 0.91086 0.35152 0.7041 0.0
C266 C 0.87195 0.36193 0.70851 0.0
C267 C 0.82958 0.3487 0.67954 0.0
C268 C 0.82574 0.32482 0.64616 0.0
C269 C 0.86428 0.31402 0.64176 0.0
C270 C 0.90672 0.32719 0.67063 0.0
C271 C 0.08142 0.25208 0.84517 0.0
C272 C 0.12312 0.2495 0.84359 0.0
C273 C 0.05263 0.2847 0.82732 0.0
C274 C 0.06485 0.31564 0.8076 0.0
C275 C 0.10736 0.31425 0.80752 0.0
C276 C 0.1364 0.28144 0.82553 0.0
C277 C 0.03192 0.34813 0.78573 0.0
C278 C 0.98917 0.33669 0.75544 0.0
C279 C 0.04184 0.3898 0.79488 0.0
C280 C 0.08591 0.40373 0.82718 0.0
C281 C 0.11251 0.43088 0.81727 0.0
C282 C 0.15431 0.44375 0.84759 0.0
C283 C 0.16974 0.42981 0.88797 0.0
C284 C 0.14333 0.40309 0.89816 0.0
C285 C 0.10149 0.39016 0.86797 0.0
H286 H 0.20213 0.43978 0.91138 0.0
H287 H 0.79291 0.31462 0.62377 0.0
H288 H 0.95634 0.53898 0.64057 0.0
H289 H 0.99497 0.50448 0.60521 0.0
H290 H 0.94996 0.59756 0.51178 0.0
H291 H 0.90976 0.63099 0.54619 0.0
H292 H 0.92878 0.52701 0.47701 0.0
H293 H 0.06464 0.58372 0.58362 0.0
H294 H 0.1195 0.59799 0.65523 0.0
H295 H 0.14061 0.47004 0.67885 0.0
H296 H 0.08548 0.45499 0.6075 0.0
H297 H 0.05701 0.46549 0.37102 0.0
H298 H 0.01764 0.49811 0.40667 0.0
H299 H 0.06595 0.40494 0.49997 0.0
H300 H 0.10708 0.37357 0.46536 0.0
H301 H 0.08504 0.47453 0.53521 0.0
H302 H 0.95015 0.41748 0.42878 0.0
H303 H 0.89495 0.40274 0.35741 0.0
H304 H 0.87146 0.53047 0.33365 0.0
H305 H 0.92693 0.54601 0.40474 0.0
C306 C 0.95618 0.5528 0.61334 0.0
C307 C 0.93047 0.58773 0.59617 0.0
C308 C 0.97808 0.53299 0.593 0.0
C309 C 0.97539 0.5484 0.55573 0.0
C310 C 0.95228 0.58494 0.54028 0.0
C311 C 0.92974 0.60425 0.56014 0.0
C312 C 0.99283 0.52473 0.5308 0.0
C313 C 0.9632 0.51606 0.48959 0.0
C314 C 0.03718 0.5092 0.5475 0.0
C315 C 0.07065 0.51824 0.59031 0.0
C316 C 0.08078 0.55863 0.60416 0.0
C317 C 0.11196 0.56686 0.64469 0.0
C318 C 0.13345 0.53494 0.6716 0.0
C319 C 0.12392 0.49473 0.65799 0.0
C320 C 0.09275 0.48634 0.61749 0.0
C321 C 0.05777 0.45123 0.39829 0.0
C322 C 0.08474 0.41696 0.41541 0.0
C323 C 0.03539 0.46994 0.41879 0.0
C324 C 0.03877 0.45402 0.45612 0.0
C325 C 0.06307 0.41798 0.47144 0.0
C326 C 0.08615 0.39982 0.45146 0.0
C327 C 0.02104 0.4769 0.48133 0.0
C328 C 0.0506 0.48542 0.52261 0.0
C329 C 0.97657 0.49221 0.46471 0.0
C330 C 0.94298 0.4829 0.42201 0.0
C331 C 0.93343 0.44243 0.40826 0.0
C332 C 0.90205 0.43394 0.36786 0.0
C333 C 0.87978 0.46565 0.34099 0.0
C334 C 0.88875 0.50593 0.35449 0.0
C335 C 0.92011 0.5146 0.39485 0.0
H336 H 0.85552 0.459 0.30972 0.0
H337 H 0.15755 0.54138 0.70298 0.0
H338 H 0.87765 0.8986 0.0233 0.0
H339 H 0.91942 0.93449 0.99239 0.0
H340 H 0.01509 0.97609 0.1124 0.0
H341 H 0.97248 0.941 0.14371 0.0
H342 H 0.92693 0.01431 0.99294 0.0
H343 H 0.11417 1.00018 0.10883 0.0
H344 H 0.16545 0.95081 0.15864 0.0
H345 H 0.08097 0.85245 0.08831 0.0
H346 H 0.0296 0.90118 0.03783 0.0
H347 H 0.13481 0.12405 0.98788 0.0
H348 H 0.09362 0.09234 0.022 0.0
H349 H 1.0024 0.03692 0.90722 0.0
H350 H 0.04385 0.06845 0.87269 0.0
H351 H 0.08944 0.00901 0.027 0.0
H352 H 0.90097 0.02262 0.91217 0.0
H353 H 0.84962 0.07167 0.86203 0.0
H354 H 0.93645 0.17009 0.92918 0.0
H355 H 0.98798 0.1217 0.98 0.0
C356 C 0.90801 0.91484 0.04332 0.0
C357 C 0.92136 0.91759 0.08592 0.0
C358 C 0.93177 0.93541 0.02552 0.0
C359 C 0.96988 0.95849 0.04994 0.0
C360 C 0.98563 0.9585 0.09293 0.0
C361 C 0.96143 0.93826 0.11084 0.0
C362 C 0.99041 0.98506 0.02978 0.0
C363 C 0.96238 0.01273 0.99999 0.0
C364 C 0.03686 0.98398 0.03996 0.0
C365 C 0.0678 0.95437 0.06985 0.0
C366 C 0.10664 0.968 0.10395 0.0
C367 C 0.13571 0.94014 0.1323 0.0
C368 C 0.12638 0.89853 0.12673 0.0
C369 C 0.08806 0.88469 0.0927 0.0
C370 C 0.05892 0.91242 0.06425 0.0
C371 C 0.10532 0.10587 0.96962 0.0
C372 C 0.09281 0.09831 0.92768 0.0
C373 C 0.08198 0.08769 0.98924 0.0
C374 C 0.04539 0.06199 0.96725 0.0
C375 C 0.03055 0.05683 0.92467 0.0
C376 C 0.05408 0.07499 0.90493 0.0
C377 C 0.02575 0.03758 0.98965 0.0
C378 C 0.054 0.01053 0.02 0.0
C379 C 0.97947 0.03908 0.97986 0.0
C380 C 0.94857 0.06846 0.94961 0.0
C381 C 0.90903 0.05474 0.91628 0.0
C382 C 0.8799 0.08242 0.88774 0.0
C383 C 0.88985 0.12395 0.89233 0.0
C384 C 0.92889 0.1379 0.92555 0.0
C385 C 0.95812 0.11034 0.95418 0.0
H386 H 0.86726 0.14533 0.87021 0.0
H387 H 0.14891 0.87701 0.14872 0.0
H388 H 0.26081 0.24865 0.98609 0.0
H389 H 0.2612 0.28447 0.04535 0.0
H390 H 0.23916 0.17104 0.09345 0.0
H391 H 0.23989 0.1348 0.03461 0.0
H392 H 0.19632 0.29369 0.06634 0.0
H393 H 0.2812 0.17581 0.19713 0.0
H394 H 0.33971 0.1228 0.2171 0.0
H395 H 0.40225 0.18504 0.15141 0.0
H396 H 0.34455 0.23872 0.13158 0.0
H397 H 0.1403 0.33234 0.23057 0.0
H398 H 0.1534 0.30411 0.17439 0.0
H399 H 0.29584 0.3275 0.24291 0.0
H400 H 0.28313 0.35464 0.29991 0.0
H401 H 0.28478 0.25477 0.21252 0.0
H402 H 0.22639 0.38497 0.15685 0.0
H403 H 0.17277 0.44208 0.13699 0.0
H404 H 0.06812 0.36435 0.05307 0.0
H405 H 0.12096 0.3066 0.07286 0.0
C406 C 0.25685 0.23118 0.00964 0.0
C407 C 0.25055 0.18881 1.00572 0.0
C408 C 0.25682 0.25177 0.04342 0.0
C409 C 0.25029 0.23055 0.07399 0.0
C410 C 0.245 0.18808 0.07066 0.0
C411 C 0.24548 0.16735 0.03701 0.0
C412 C 0.24682 0.25317 0.10816 0.0
C413 C 0.2158 0.28524 0.09831 0.0
C414 C 0.27278 0.24275 0.14997 0.0
C415 C 0.30827 0.21109 0.16257 0.0
C416 C 0.30758 0.1783 0.18715 0.0
C417 C 0.34058 0.14812 0.19841 0.0
C418 C 0.37459 0.15048 0.18543 0.0
C419 C 0.3758 0.18316 0.16133 0.0
C420 C 0.34294 0.21346 0.15005 0.0
C421 C 0.17436 0.33213 0.23348 0.0
C422 C 0.21067 0.34585 0.26976 0.0
C423 C 0.18182 0.31595 0.20124 0.0
C424 C 0.22561 0.31388 0.20417 0.0
C425 C 0.26177 0.3286 0.23992 0.0
C426 C 0.25441 0.34435 0.2724 0.0
C427 C 0.2338 0.29494 0.17064 0.0
C428 C 0.26555 0.26343 0.18058 0.0
C429 C 0.20935 0.30658 0.12896 0.0
C430 C 0.17758 0.34137 0.11659 0.0
C431 C 0.19188 0.37999 0.13434 0.0
C432 C 0.16163 0.41249 0.12308 0.0
C433 C 0.11704 0.40683 0.09386 0.0
C434 C 0.10266 0.36868 0.07573 0.0
C435 C 0.13276 0.33606 0.08692 0.0
H436 H 0.09366 0.43201 0.08523 0.0
H437 H 0.40004 0.12704 0.19409 0.0
H438 H 0.88069 0.82444 0.27725 0.0
H439 H 0.87015 0.79347 0.33386 0.0
H440 H 0.72771 0.81848 0.27102 0.0
H441 H 0.73796 0.84986 0.21465 0.0
H442 H 0.75723 0.83248 0.35011 0.0
H443 H 0.76674 0.72628 0.26655 0.0
H444 H 0.79648 0.68325 0.22835 0.0
H445 H 0.91174 0.65374 0.34094 0.0
H446 H 0.88333 0.69753 0.37978 0.0
H447 H 0.74848 0.63365 0.4689 0.0
H448 H 0.74749 0.66697 0.40796 0.0
H449 H 0.80766 0.77418 0.48041 0.0
H450 H 0.80712 0.7419 0.54056 0.0
H451 H 0.81091 0.69142 0.39091 0.0
H452 H 0.77884 0.85872 0.42492 0.0
H453 H 0.73586 0.89527 0.45565 0.0
H454 H 0.64479 0.79425 0.42862 0.0
H455 H 0.68682 0.75732 0.39723 0.0
C456 C 0.84726 0.82404 0.27582 0.0
C457 C 0.81011 0.83948 0.24133 0.0
C458 C 0.84123 0.80597 0.30803 0.0
C459 C 0.79802 0.80307 0.30632 0.0
C460 C 0.76131 0.82023 0.27291 0.0
C461 C 0.76724 0.83814 0.24068 0.0
C462 C 0.79076 0.78126 0.33878 0.0
C463 C 0.76909 0.80169 0.35913 0.0
C464 C 0.80472 0.74052 0.34947 0.0
C465 C 0.82308 0.71558 0.32606 0.0
C466 C 0.79877 0.71114 0.28314 0.0
C467 C 0.81531 0.68649 0.26137 0.0
C468 C 0.85585 0.66564 0.28223 0.0
C469 C 0.88022 0.66978 0.32485 0.0
C470 C 0.86399 0.69464 0.34675 0.0
C471 C 0.76086 0.66454 0.4716 0.0
C472 C 0.77744 0.68525 0.50946 0.0
C473 C 0.76048 0.68349 0.43683 0.0
C474 C 0.77696 0.72333 0.43939 0.0
C475 C 0.79366 0.74388 0.47726 0.0
C476 C 0.79345 0.72526 0.51175 0.0
C477 C 0.77856 0.74305 0.40311 0.0
C478 C 0.79915 0.72225 0.38199 0.0
C479 C 0.76208 0.7829 0.39064 0.0
C480 C 0.73626 0.80512 0.40904 0.0
C481 C 0.74952 0.84438 0.42536 0.0
C482 C 0.72534 0.86515 0.44293 0.0
C483 C 0.6877 0.84705 0.44419 0.0
C484 C 0.67405 0.80818 0.42776 0.0
C485 C 0.69808 0.7873 0.41012 0.0
H486 H 0.66906 0.86317 0.45784 0.0
H487 H 0.86839 0.64631 0.26534 0.0
H488 H 0.75913 0.76307 0.0242 0.0
H489 H 0.76319 0.72922 0.96596 0.0
H490 H 0.77802 0.84535 0.91808 0.0
H491 H 0.77451 0.87963 0.97685 0.0
H492 H 0.71552 0.73032 0.88506 0.0
H493 H 0.85188 0.83524 0.87773 0.0
H494 H 0.91729 0.87664 0.92332 0.0
H495 H 0.9321 0.80361 0.02672 0.0
H496 H 0.86747 0.76125 0.98157 0.0
H497 H 0.73736 0.6868 0.70371 0.0
H498 H 0.72794 0.71738 0.76056 0.0
H499 H 0.86195 0.67935 0.84476 0.0
H500 H 0.87248 0.65009 0.78727 0.0
H501 H 0.85113 0.75278 0.86199 0.0
H502 H 0.76188 0.63258 0.83909 0.0
H503 H 0.70359 0.58235 0.79875 0.0
H504 H 0.6017 0.67437 0.7658 0.0
H505 H 0.65945 0.72529 0.80552 0.0
C506 C 0.76262 0.78155 1.00102 0.0
C507 C 0.76659 0.82408 1.00522 0.0
C508 C 0.76489 0.7621 0.96768 0.0
C509 C 0.77151 0.78467 0.93796 0.0
C510 C 0.7735 0.8273 0.941 0.0
C511 C 0.77103 0.84687 0.97436 0.0
C512 C 0.77796 0.76322 0.9048 0.0
C513 C 0.74503 0.73539 0.87981 0.0
C514 C 0.81702 0.76899 0.89868 0.0
C515 C 0.85488 0.79515 0.92626 0.0
C516 C 0.86928 0.82793 0.91015 0.0
C517 C 0.90621 0.85152 0.9359 0.0
C518 C 0.92895 0.8426 0.97783 0.0
C519 C 0.91453 0.81038 0.99421 0.0
C520 C 0.87774 0.78659 0.96856 0.0
C521 C 0.76474 0.68434 0.73435 0.0
C522 C 0.80569 0.66575 0.74089 0.0
C523 C 0.75918 0.70182 0.76698 0.0
C524 C 0.79393 0.70026 0.80719 0.0
C525 C 0.83458 0.68097 0.81403 0.0
C526 C 0.84047 0.66399 0.78119 0.0
C527 C 0.78833 0.72021 0.84163 0.0
C528 C 0.82141 0.74786 0.86689 0.0
C529 C 0.74992 0.71344 0.84869 0.0
C530 C 0.71506 0.68281 0.82502 0.0
C531 C 0.72708 0.64216 0.82304 0.0
C532 C 0.69413 0.61355 0.80031 0.0
C533 C 0.64899 0.62518 0.77965 0.0
C534 C 0.63668 0.66541 0.78179 0.0
C535 C 0.6695 0.69414 0.80445 0.0
H536 H 0.62353 0.603 0.76205 0.0
H537 H 0.95779 0.86061 0.99765 0.0
H538 H 0.27726 0.16826 0.79938 0.0
H539 H 0.28525 0.19891 0.74174 0.0
H540 H 0.14076 0.19924 0.67086 0.0
H541 H 0.13232 0.1695 0.72905 0.0
H542 H 0.26573 0.17993 0.66626 0.0
H543 H 0.1091 0.28448 0.61119 0.0
H544 H 0.06204 0.31814 0.63948 0.0
H545 H 0.17342 0.31842 0.75993 0.0
H546 H 0.22125 0.28521 0.73229 0.0
H547 H 0.22006 0.26352 0.4727 0.0
H548 H 0.21658 0.23058 0.53137 0.0
H549 H 0.25172 0.34372 0.59876 0.0
H550 H 0.25409 0.37743 0.53938 0.0
H551 H 0.18526 0.3088 0.60813 0.0
H552 H 0.32846 0.26496 0.6214 0.0
H553 H 0.38248 0.23567 0.59869 0.0
H554 H 0.31095 0.12212 0.57234 0.0
H555 H 0.25611 0.15091 0.59438 0.0
C556 C 0.24707 0.1744 0.77143 0.0
C557 C 0.20407 0.1668 0.76911 0.0
C558 C 0.25176 0.19193 0.7384 0.0
C559 C 0.21363 0.20217 0.70221 0.0
C560 C 0.17068 0.19244 0.69882 0.0
C561 C 0.16592 0.1751 0.73201 0.0
C562 C 0.21908 0.22424 0.66881 0.0
C563 C 0.248 0.20803 0.65347 0.0
C564 C 0.19693 0.26154 0.65282 0.0
C565 C 0.16858 0.28193 0.6697 0.0
C566 C 0.12356 0.29183 0.64368 0.0
C567 C 0.09675 0.3108 0.65962 0.0
C568 C 0.11465 0.32024 0.70151 0.0
C569 C 0.15949 0.31089 0.72753 0.0
C570 C 0.18646 0.29195 0.71175 0.0
C571 C 0.22763 0.28145 0.50012 0.0
C572 C 0.23773 0.32315 0.50138 0.0
C573 C 0.22566 0.26246 0.53376 0.0
C574 C 0.23439 0.28448 0.56975 0.0
C575 C 0.24489 0.32606 0.57133 0.0
C576 C 0.24655 0.34524 0.53747 0.0
C577 C 0.23141 0.26415 0.60518 0.0
C578 C 0.20292 0.28066 0.62087 0.0
C579 C 0.25493 0.22772 0.62233 0.0
C580 C 0.28797 0.21021 0.60923 0.0
C581 C 0.32407 0.23383 0.6105 0.0
C582 C 0.35486 0.2173 0.59779 0.0
C583 C 0.35009 0.17709 0.584 0.0
C584 C 0.31458 0.15328 0.583 0.0
C585 C 0.28366 0.16967 0.59564 0.0
H586 H 0.37397 0.16435 0.57416 0.0
H587 H 0.09381 0.33491 0.71375 0.0
H588 H 0.36976 0.37269 0.44179 0.0
H589 H 0.44446 0.40477 0.47013 0.0
H590 H 0.38327 0.52246 0.46042 0.0
H591 H 0.30911 0.49111 0.4313 0.0
H592 H 0.44824 0.52843 0.43811 0.0
H593 H 0.4331 0.4688 0.55317 0.0
H594 H 0.41981 0.41286 0.59183 0.0
H595 H 0.53338 0.34831 0.59331 0.0
H596 H 0.54697 0.40365 0.55417 0.0
H597 H 0.64621 0.63848 0.5692 0.0
H598 H 0.57104 0.60721 0.54097 0.0
H599 H 0.63068 0.48873 0.551 0.0
H600 H 0.70519 0.51923 0.58004 0.0
H601 H 0.56617 0.4836 0.5734 0.0
H602 H 0.58117 0.54259 0.45805 0.0
H603 H 0.59456 0.59816 0.41906 0.0
H604 H 0.48153 0.6635 0.41776 0.0
H605 H 0.46785 0.60853 0.45724 0.0
C606 C 0.37223 0.40541 0.44539 0.0
C607 C 0.33331 0.42916 0.43452 0.0
C608 C 0.41499 0.42373 0.46183 0.0
C609 C 0.41966 0.46608 0.4681 0.0
C610 C 0.38074 0.48981 0.45605 0.0
C611 C 0.33819 0.47166 0.43948 0.0
C612 C 0.46483 0.48598 0.48793 0.0
C613 C 0.47384 0.51886 0.4679 0.0
C614 C 0.49865 0.47326 0.52653 0.0
C615 C 0.49078 0.44017 0.55041 0.0
C616 C 0.45506 0.44255 0.56152 0.0
C617 C 0.44749 0.41097 0.58355 0.0
C618 C 0.47566 0.377 0.59493 0.0
C619 C 0.51155 0.37461 0.58443 0.0
C620 C 0.51922 0.40608 0.56235 0.0
C621 C 0.64328 0.60577 0.5657 0.0
C622 C 0.68187 0.58153 0.57665 0.0
C623 C 0.60026 0.58791 0.54931 0.0
C624 C 0.59503 0.54556 0.54319 0.0
C625 C 0.63363 0.52139 0.55528 0.0
C626 C 0.67639 0.53906 0.5718 0.0
C627 C 0.54965 0.52602 0.52355 0.0
C628 C 0.54058 0.4932 0.54361 0.0
C629 C 0.51581 0.53876 0.48495 0.0
C630 C 0.52378 0.57165 0.46094 0.0
C631 C 0.55936 0.56893 0.44968 0.0
C632 C 0.56698 0.6003 0.42747 0.0
C633 C 0.53899 0.63439 0.41604 0.0
C634 C 0.50323 0.63711 0.42669 0.0
C635 C 0.49551 0.60585 0.44896 0.0
H636 H 0.54494 0.65865 0.39886 0.0
H637 H 0.46974 0.35257 0.61196 0.0
H638 H 0.30837 0.0199 0.91784 0.0
H639 H 0.382 0.98735 0.94822 0.0
H640 H 0.4464 0.10487 0.97924 0.0
H641 H 0.37241 0.1379 0.94927 0.0
H642 H 0.45474 0.98907 0.93382 0.0
H643 H 0.53917 0.09735 0.07294 0.0
H644 H 0.5176 0.14343 0.11518 0.0
H645 H 0.39839 0.07254 0.08703 0.0
H646 H 0.41956 0.02574 0.04513 0.0
H647 H 0.70389 0.98795 0.09519 0.0
H648 H 0.62972 0.01937 0.06574 0.0
H649 H 0.5674 0.90099 0.0346 0.0
H650 H 0.642 0.86909 0.06352 0.0
H651 H 0.55751 0.01659 0.08041 0.0
H652 H 0.47335 0.90789 0.94204 0.0
H653 H 0.49468 0.86178 0.89967 0.0
H654 H 0.613 0.93348 0.92625 0.0
H655 H 0.59204 0.98031 0.96827 0.0
C656 C 0.33814 0.03898 0.93081 0.0
C657 C 0.3344 0.08158 0.93147 0.0
C658 C 0.38028 0.02024 0.94809 0.0
C659 C 0.41974 0.04356 0.96662 0.0
C660 C 0.41634 0.0862 0.96571 0.0
C661 C 0.37404 0.10507 0.94831 0.0
C662 C 0.4641 0.02297 0.988 0.0
C663 C 0.47698 0.99477 0.966 0.0
C664 C 0.49345 0.03075 0.02986 0.0
C665 C 0.48074 0.05833 0.05553 0.0
C666 C 0.50845 0.09153 0.07589 0.0
C667 C 0.49628 0.11778 0.09976 0.0
C668 C 0.45657 0.111 0.10366 0.0
C669 C 0.42905 0.07785 0.08385 0.0
C670 C 0.44109 0.05148 0.06 0.0
C671 C 0.67449 0.96842 0.08238 0.0
C672 C 0.679 0.92592 0.08131 0.0
C673 C 0.632 0.98652 0.06566 0.0
C674 C 0.59294 0.96267 0.04733 0.0
C675 C 0.59712 0.92009 0.04795 0.0
C676 C 0.63978 0.90186 0.06474 0.0
C677 C 0.54821 0.98274 0.0262 0.0
C678 C 0.53525 0.01085 0.04825 0.0
C679 C 0.51875 0.97487 0.98439 0.0
C680 C 0.53135 0.9473 0.95867 0.0
C681 C 0.50382 0.91388 0.93871 0.0
C682 C 0.51586 0.88762 0.91477 0.0
C683 C 0.55525 0.89462 0.9104 0.0
C684 C 0.58259 0.928 0.92979 0.0
C685 C 0.57066 0.95439 0.9537 0.0
H686 H 0.56454 0.87422 0.8919 0.0
H687 H 0.44719 0.13138 0.12211 0.0
loop_
_geom_bond_atom_site_label_1
_geom_bond_atom_site_label_2
_geom_bond_distance
_geom_bond_site_symmetry_2
_ccdc_geom_bond_type
Fe0 O2 1.918 . S
Fe0 O5 1.997 . S
Fe0 O6 2.002 . S
Fe0 O11 1.976 . S
Fe0 O14 1.996 . S
Fe1 O2 1.918 . S
Fe1 O9 1.997 . S
Fe1 O12 1.996 . S
Fe1 O16 1.976 . S
Fe1 O19 2.002 . S
O2 Fe0 1.918 . S
O2 Fe1 1.918 . S
O2 Fe3 1.918 . S
Fe3 O2 1.918 . S
Fe3 O4 2.002 . S
Fe3 O13 1.976 . S
Fe3 O17 1.996 . S
Fe3 O20 1.997 . S
O4 Fe3 2.002 . S
O4 C21 1.295 . S
O5 Fe0 1.997 . S
O5 C21 1.235 . S
O6 Fe0 2.002 . S
O6 C7 1.295 . S
C7 O6 1.295 . S
C7 O9 1.235 . S
C8 O13 1.287 . S
C8 O14 1.255 . S
O9 Fe1 1.997 . S
O9 C7 1.235 . S
C10 O16 1.287 . S
C10 O17 1.255 . S
O11 Fe0 1.976 . S
O11 C18 1.287 . S
O12 Fe1 1.996 . S
O12 C18 1.255 . S
O13 Fe3 1.976 . S
O13 C8 1.287 . S
O14 Fe0 1.996 . S
O14 C8 1.255 . S
C15 O19 1.295 . S
C15 O20 1.235 . S
O16 Fe1 1.976 . S
O16 C10 1.287 . S
O17 Fe3 1.996 . S
O17 C10 1.255 . S
C18 O11 1.287 . S
C18 O12 1.255 . S
O19 Fe1 2.002 . S
O19 C15 1.295 . S
O20 Fe3 1.997 . S
O20 C15 1.235 . S
C21 O4 1.295 . S
C21 O5 1.235 . S
Fe22 O24 1.918 . S
Fe22 O27 1.997 . S
Fe22 O28 2.002 . S
Fe22 O33 1.976 . S
Fe22 O36 1.996 . S
Fe23 O24 1.918 . S
Fe23 O31 1.997 . S
Fe23 O34 1.996 . S
Fe23 O38 1.976 . S
Fe23 O41 2.002 . S
O24 Fe22 1.918 . S
O24 Fe23 1.918 . S
O24 Fe25 1.918 . S
Fe25 O24 1.918 . S
Fe25 O26 2.002 . S
Fe25 O35 1.976 . S
Fe25 O39 1.996 . S
Fe25 O42 1.997 . S
O26 Fe25 2.002 . S
O26 C43 1.295 . S
O27 Fe22 1.997 . S
O27 C43 1.235 . S
O28 Fe22 2.002 . S
O28 C29 1.295 . S
C29 O28 1.295 . S
C29 O31 1.235 . S
C30 O35 1.287 . S
C30 O36 1.255 . S
O31 Fe23 1.997 . S
O31 C29 1.235 . S
C32 O38 1.287 . S
C32 O39 1.255 . S
O33 Fe22 1.976 . S
O33 C40 1.287 . S
O34 Fe23 1.996 . S
O34 C40 1.255 . S
O35 Fe25 1.976 . S
O35 C30 1.287 . S
O36 Fe22 1.996 . S
O36 C30 1.255 . S
C37 O41 1.295 . S
C37 O42 1.235 . S
O38 Fe23 1.976 . S
O38 C32 1.287 . S
O39 Fe25 1.996 . S
O39 C32 1.255 . S
C40 O33 1.287 . S
C40 O34 1.255 . S
O41 Fe23 2.002 . S
O41 C37 1.295 . S
O42 Fe25 1.997 . S
O42 C37 1.235 . S
C43 O26 1.295 . S
C43 O27 1.235 . S
Fe44 O46 1.918 . S
Fe44 O49 1.997 . S
Fe44 O50 2.002 . S
Fe44 O55 1.976 . S
Fe44 O58 1.996 . S
Fe45 O46 1.918 . S
Fe45 O53 1.997 . S
Fe45 O56 1.996 . S
Fe45 O60 1.976 . S
Fe45 O63 2.002 . S
O46 Fe44 1.918 . S
O46 Fe45 1.918 . S
O46 Fe47 1.918 . S
Fe47 O46 1.918 . S
Fe47 O48 2.002 . S
Fe47 O57 1.976 . S
Fe47 O61 1.996 . S
Fe47 O64 1.997 . S
O48 Fe47 2.002 . S
O48 C65 1.295 . S
O49 Fe44 1.997 . S
O49 C65 1.235 . S
O50 Fe44 2.002 . S
O50 C51 1.295 . S
C51 O50 1.295 . S
C51 O53 1.235 . S
C52 O57 1.287 . S
C52 O58 1.255 . S
O53 Fe45 1.997 . S
O53 C51 1.235 . S
C54 O60 1.287 . S
C54 O61 1.255 . S
O55 Fe44 1.976 . S
O55 C62 1.287 . S
O56 Fe45 1.996 . S
O56 C62 1.255 . S
O57 Fe47 1.976 . S
O57 C52 1.287 . S
O58 Fe44 1.996 . S
O58 C52 1.255 . S
C59 O63 1.295 . S
C59 O64 1.235 . S
O60 Fe45 1.976 . S
O60 C54 1.287 . S
O61 Fe47 1.996 . S
O61 C54 1.255 . S
C62 O55 1.287 . S
C62 O56 1.255 . S
O63 Fe45 2.002 . S
O63 C59 1.295 . S
O64 Fe47 1.997 . S
O64 C59 1.235 . S
C65 O48 1.295 . S
C65 O49 1.235 . S
Fe66 O68 1.918 . S
Fe66 O71 1.997 . S
Fe66 O72 2.002 . S
Fe66 O77 1.976 . S
Fe66 O80 1.996 . S
Fe67 O68 1.918 . S
Fe67 O75 1.997 . S
Fe67 O78 1.996 . S
Fe67 O82 1.976 . S
Fe67 O85 2.002 . S
O68 Fe66 1.918 . S
O68 Fe67 1.918 . S
O68 Fe69 1.918 . S
Fe69 O68 1.918 . S
Fe69 O70 2.002 . S
Fe69 O79 1.976 . S
Fe69 O83 1.996 . S
Fe69 O86 1.997 . S
O70 Fe69 2.002 . S
O70 C87 1.295 . S
O71 Fe66 1.997 . S
O71 C87 1.235 . S
O72 Fe66 2.002 . S
O72 C73 1.295 . S
C73 O72 1.295 . S
C73 O75 1.235 . S
C74 O79 1.287 . S
C74 O80 1.255 . S
O75 Fe67 1.997 . S
O75 C73 1.235 . S
C76 O82 1.287 . S
C76 O83 1.255 . S
O77 Fe66 1.976 . S
O77 C84 1.287 . S
O78 Fe67 1.996 . S
O78 C84 1.255 . S
O79 Fe69 1.976 . S
O79 C74 1.287 . S
O80 Fe66 1.996 . S
O80 C74 1.255 . S
C81 O85 1.295 . S
C81 O86 1.235 . S
O82 Fe67 1.976 . S
O82 C76 1.287 . S
O83 Fe69 1.996 . S
O83 C76 1.255 . S
C84 O77 1.287 . S
C84 O78 1.255 . S
O85 Fe67 2.002 . S
O85 C81 1.295 . S
O86 Fe69 1.997 . S
O86 C81 1.235 . S
C87 O70 1.295 . S
C87 O71 1.235 . S
H88 C106 0.951 . S
H89 C108 0.951 . S
H90 C110 0.950 . S
H91 C111 0.950 1_565 S
H92 C113 0.950 . S
H93 C116 0.950 . S
H94 C117 0.950 . S
H95 C119 0.950 . S
H96 C120 0.950 . S
H97 C121 0.951 . S
H98 C123 0.951 . S
H99 C125 0.950 1_655 S
H100 C126 0.950 . S
H101 C128 0.950 . S
H102 C131 0.949 1_655 S
H103 C132 0.950 . S
H104 C134 0.950 . S
H105 C135 0.950 . S
C106 H88 0.951 . S
C106 C107 1.366 . S
C106 C108 1.388 . S
C107 C106 1.366 . S
C107 C111 1.385 . S
C108 H89 0.951 . S
C108 C106 1.388 . S
C108 C109 1.366 . S
C109 C108 1.366 . S
C109 C110 1.414 . S
C109 C112 1.499 . S
C110 H90 0.950 . S
C110 C109 1.414 . S
C110 C111 1.374 . S
C111 H91 0.950 1_545 S
C111 C107 1.385 . S
C111 C110 1.374 . S
C112 C109 1.499 . S
C112 C113 1.373 . S
C112 C114 1.389 . S
C113 H92 0.950 . S
C113 C112 1.373 . S
C113 C129 1.377 1_655 S
C114 C112 1.389 . S
C114 C115 1.524 . S
C114 C128 1.377 . S
C115 C114 1.524 . S
C115 C116 1.397 . S
C115 C120 1.363 . S
C116 H93 0.950 . S
C116 C115 1.397 . S
C116 C117 1.334 . S
C117 H94 0.950 . S
C117 C116 1.334 . S
C117 C118 1.287 . S
C118 C117 1.287 . S
C118 C119 1.524 . S
C118 H137 0.913 . S
C119 H95 0.950 . S
C119 C118 1.524 . S
C119 C120 1.415 . S
C120 H96 0.950 . S
C120 C115 1.363 . S
C120 C119 1.415 . S
C121 H97 0.951 . S
C121 C122 1.366 . S
C121 C123 1.388 . S
C122 C121 1.366 . S
C122 C126 1.385 . S
C123 H98 0.951 . S
C123 C121 1.388 . S
C123 C124 1.366 . S
C124 C123 1.366 . S
C124 C125 1.414 . S
C124 C127 1.499 . S
C125 H99 0.950 1_455 S
C125 C124 1.414 . S
C125 C126 1.374 . S
C126 H100 0.950 . S
C126 C122 1.385 . S
C126 C125 1.374 . S
C127 C124 1.499 . S
C127 C128 1.373 1_455 S
C127 C129 1.389 . S
C128 H101 0.950 . S
C128 C114 1.377 . S
C128 C127 1.373 1_655 S
C129 C113 1.377 1_455 S
C129 C127 1.389 . S
C129 C130 1.524 . S
C130 C129 1.524 . S
C130 C131 1.397 . S
C130 C135 1.363 . S
C131 H102 0.949 1_455 S
C131 C130 1.397 . S
C131 C132 1.334 . S
C132 H103 0.950 . S
C132 C131 1.334 . S
C132 C133 1.287 . S
C133 C132 1.287 . S
C133 C134 1.524 . S
C133 H136 0.999 . S
C134 H104 0.950 . S
C134 C133 1.524 . S
C134 C135 1.415 . S
C135 H105 0.950 . S
C135 C130 1.363 . S
C135 C134 1.415 . S
H136 C133 0.999 . S
H137 C118 0.913 . S
H138 C156 0.951 . S
H139 C158 0.951 . S
H140 C160 0.950 . S
H141 C161 0.950 . S
H142 C163 0.950 . S
H143 C166 0.950 . S
H144 C167 0.950 1_455 S
H145 C169 0.950 . S
H146 C170 0.950 . S
H147 C171 0.951 . S
H148 C173 0.951 . S
H149 C175 0.950 . S
H150 C176 0.950 . S
H151 C178 0.950 . S
H152 C181 0.950 . S
H153 C182 0.950 . S
H154 C184 0.950 . S
H155 C185 0.950 . S
C156 H138 0.951 . S
C156 C157 1.366 . S
C156 C158 1.388 . S
C157 C156 1.366 . S
C157 C161 1.385 . S
C158 H139 0.951 . S
C158 C156 1.388 . S
C158 C159 1.366 . S
C159 C158 1.366 . S
C159 C160 1.414 . S
C159 C162 1.499 . S
C160 H140 0.950 . S
C160 C159 1.414 . S
C160 C161 1.374 . S
C161 H141 0.950 . S
C161 C157 1.385 . S
C161 C160 1.374 . S
C162 C159 1.499 . S
C162 C163 1.373 . S
C162 C164 1.389 . S
C163 H142 0.950 . S
C163 C162 1.373 . S
C163 C179 1.377 . S
C164 C162 1.389 . S
C164 C165 1.524 1_455 S
C164 C178 1.377 1_455 S
C165 C164 1.524 1_655 S
C165 C166 1.397 1_655 S
C165 C170 1.363 . S
C166 H143 0.950 . S
C166 C165 1.397 1_455 S
C166 C167 1.334 1_455 S
C167 H144 0.950 1_655 S
C167 C166 1.334 1_655 S
C167 C168 1.287 . S
C168 C167 1.287 . S
C168 C169 1.524 . S
C168 H187 0.913 . S
C169 H145 0.950 . S
C169 C168 1.524 . S
C169 C170 1.415 . S
C170 H146 0.950 . S
C170 C165 1.363 . S
C170 C169 1.415 . S
C171 H147 0.951 . S
C171 C172 1.366 . S
C171 C173 1.388 . S
C172 C171 1.366 . S
C172 C176 1.385 . S
C173 H148 0.951 . S
C173 C171 1.388 . S
C173 C174 1.366 . S
C174 C173 1.366 . S
C174 C175 1.414 . S
C174 C177 1.499 . S
C175 H149 0.950 . S
C175 C174 1.414 . S
C175 C176 1.374 . S
C176 H150 0.950 . S
C176 C172 1.385 . S
C176 C175 1.374 . S
C177 C174 1.499 . S
C177 C178 1.373 . S
C177 C179 1.389 1_655 S
C178 H151 0.950 . S
C178 C164 1.377 1_655 S
C178 C177 1.373 . S
C179 C163 1.377 . S
C179 C177 1.389 1_455 S
C179 C180 1.524 . S
C180 C179 1.524 . S
C180 C181 1.397 . S
C180 C185 1.363 . S
C181 H152 0.950 . S
C181 C180 1.397 . S
C181 C182 1.334 . S
C182 H153 0.950 . S
C182 C181 1.334 . S
C182 C183 1.287 . S
C183 C182 1.287 . S
C183 C184 1.524 . S
C183 H186 0.999 . S
C184 H154 0.950 . S
C184 C183 1.524 . S
C184 C185 1.415 . S
C185 H155 0.950 . S
C185 C180 1.363 . S
C185 C184 1.415 . S
H186 C183 0.999 . S
H187 C168 0.913 . S
H188 C206 0.951 . S
H189 C208 0.951 . S
H190 C210 0.950 . S
H191 C211 0.950 1_545 S
H192 C213 0.950 . S
H193 C216 0.950 . S
H194 C217 0.950 . S
H195 C219 0.950 . S
H196 C220 0.950 . S
H197 C221 0.951 . S
H198 C223 0.951 . S
H199 C225 0.950 1_455 S
H200 C226 0.950 . S
H201 C228 0.950 . S
H202 C231 0.950 . S
H203 C232 0.950 . S
H204 C234 0.950 . S
H205 C235 0.950 . S
C206 H188 0.951 . S
C206 C207 1.366 . S
C206 C208 1.388 . S
C207 C206 1.366 . S
C207 C211 1.385 . S
C208 H189 0.951 . S
C208 C206 1.388 . S
C208 C209 1.366 . S
C209 C208 1.366 . S
C209 C210 1.414 . S
C209 C212 1.499 . S
C210 H190 0.950 . S
C210 C209 1.414 . S
C210 C211 1.374 . S
C211 H191 0.950 1_565 S
C211 C207 1.385 . S
C211 C210 1.374 . S
C212 C209 1.499 . S
C212 C213 1.373 . S
C212 C214 1.389 . S
C213 H192 0.950 . S
C213 C212 1.373 . S
C213 C229 1.377 1_455 S
C214 C212 1.389 . S
C214 C215 1.524 . S
C214 C228 1.377 . S
C215 C214 1.524 . S
C215 C216 1.397 . S
C215 C220 1.363 . S
C216 H193 0.950 . S
C216 C215 1.397 . S
C216 C217 1.334 . S
C217 H194 0.950 . S
C217 C216 1.334 . S
C217 C218 1.287 . S
C218 C217 1.287 . S
C218 C219 1.524 . S
C218 H237 0.913 . S
C219 H195 0.950 . S
C219 C218 1.524 . S
C219 C220 1.415 . S
C220 H196 0.950 . S
C220 C215 1.363 . S
C220 C219 1.415 . S
C221 H197 0.951 . S
C221 C222 1.366 . S
C221 C223 1.388 . S
C222 C221 1.366 . S
C222 C226 1.385 . S
C223 H198 0.951 . S
C223 C221 1.388 . S
C223 C224 1.366 . S
C224 C223 1.366 . S
C224 C225 1.414 . S
C224 C227 1.499 . S
C225 H199 0.950 1_655 S
C225 C224 1.414 . S
C225 C226 1.374 . S
C226 H200 0.950 . S
C226 C222 1.385 . S
C226 C225 1.374 . S
C227 C224 1.499 . S
C227 C228 1.373 1_655 S
C227 C229 1.389 . S
C228 H201 0.950 . S
C228 C214 1.377 . S
C228 C227 1.373 1_455 S
C229 C213 1.377 1_655 S
C229 C227 1.389 . S
C229 C230 1.524 . S
C230 C229 1.524 . S
C230 C231 1.397 . S
C230 C235 1.363 . S
C231 H202 0.950 . S
C231 C230 1.397 . S
C231 C232 1.334 . S
C232 H203 0.950 . S
C232 C231 1.334 . S
C232 C233 1.287 . S
C233 C232 1.287 . S
C233 C234 1.524 . S
C233 H236 0.999 . S
C234 H204 0.950 . S
C234 C233 1.524 . S
C234 C235 1.415 . S
C235 H205 0.950 . S
C235 C230 1.363 . S
C235 C234 1.415 . S
H236 C233 0.999 . S
H237 C218 0.913 . S
H238 C256 0.951 . S
H239 C258 0.951 . S
H240 C260 0.950 . S
H241 C261 0.950 . S
H242 C263 0.950 . S
H243 C266 0.950 . S
H244 C267 0.950 . S
H245 C269 0.950 . S
H246 C270 0.950 . S
H247 C271 0.951 . S
H248 C273 0.951 . S
H249 C275 0.950 . S
H250 C276 0.950 . S
H251 C278 0.950 . S
H252 C281 0.950 . S
H253 C282 0.950 . S
H254 C284 0.950 . S
H255 C285 0.950 . S
C256 H238 0.951 . S
C256 C257 1.366 . S
C256 C258 1.388 . S
C257 C256 1.366 . S
C257 C261 1.385 . S
C258 H239 0.951 . S
C258 C256 1.388 . S
C258 C259 1.366 . S
C259 C258 1.366 . S
C259 C260 1.414 . S
C259 C262 1.499 . S
C260 H240 0.950 . S
C260 C259 1.414 . S
C260 C261 1.374 . S
C261 H241 0.950 . S
C261 C257 1.385 . S
C261 C260 1.374 . S
C262 C259 1.499 . S
C262 C263 1.373 . S
C262 C264 1.389 . S
C263 H242 0.950 . S
C263 C262 1.373 . S
C263 C279 1.377 1_655 S
C264 C262 1.389 . S
C264 C265 1.524 . S
C264 C278 1.377 . S
C265 C264 1.524 . S
C265 C266 1.397 . S
C265 C270 1.363 . S
C266 H243 0.950 . S
C266 C265 1.397 . S
C266 C267 1.334 . S
C267 H244 0.950 . S
C267 C266 1.334 . S
C267 C268 1.287 . S
C268 C267 1.287 . S
C268 C269 1.524 . S
C268 H287 0.913 . S
C269 H245 0.950 . S
C269 C268 1.524 . S
C269 C270 1.415 . S
C270 H246 0.950 . S
C270 C265 1.363 . S
C270 C269 1.415 . S
C271 H247 0.951 . S
C271 C272 1.366 . S
C271 C273 1.388 . S
C272 C271 1.366 . S
C272 C276 1.385 . S
C273 H248 0.951 . S
C273 C271 1.388 . S
C273 C274 1.366 . S
C274 C273 1.366 . S
C274 C275 1.414 . S
C274 C277 1.499 . S
C275 H249 0.950 . S
C275 C274 1.414 . S
C275 C276 1.374 . S
C276 H250 0.950 . S
C276 C272 1.385 . S
C276 C275 1.374 . S
C277 C274 1.499 . S
C277 C278 1.373 1_455 S
C277 C279 1.389 . S
C278 H251 0.950 . S
C278 C264 1.377 . S
C278 C277 1.373 1_655 S
C279 C263 1.377 1_455 S
C279 C277 1.389 . S
C279 C280 1.524 . S
C280 C279 1.524 . S
C280 C281 1.397 . S
C280 C285 1.363 . S
C281 H252 0.950 . S
C281 C280 1.397 . S
C281 C282 1.334 . S
C282 H253 0.950 . S
C282 C281 1.334 . S
C282 C283 1.287 . S
C283 C282 1.287 . S
C283 C284 1.524 . S
C283 H286 0.999 . S
C284 H254 0.950 . S
C284 C283 1.524 . S
C284 C285 1.415 . S
C285 H255 0.950 . S
C285 C280 1.363 . S
C285 C284 1.415 . S
H286 C283 0.999 . S
H287 C268 0.913 . S
H288 C306 0.951 . S
H289 C308 0.951 . S
H290 C310 0.950 . S
H291 C311 0.950 . S
H292 C313 0.950 . S
H293 C316 0.950 . S
H294 C317 0.950 . S
H295 C319 0.950 . S
H296 C320 0.950 . S
H297 C321 0.951 . S
H298 C323 0.951 . S
H299 C325 0.950 . S
H300 C326 0.950 . S
H301 C328 0.950 . S
H302 C331 0.950 . S
H303 C332 0.950 . S
H304 C334 0.950 . S
H305 C335 0.950 . S
C306 H288 0.951 . S
C306 C307 1.366 . S
C306 C308 1.388 . S
C307 C306 1.366 . S
C307 C311 1.385 . S
C308 H289 0.951 . S
C308 C306 1.388 . S
C308 C309 1.366 . S
C309 C308 1.366 . S
C309 C310 1.414 . S
C309 C312 1.499 . S
C310 H290 0.950 . S
C310 C309 1.414 . S
C310 C311 1.374 . S
C311 H291 0.950 . S
C311 C307 1.385 . S
C311 C310 1.374 . S
C312 C309 1.499 . S
C312 C313 1.373 . S
C312 C314 1.389 1_655 S
C313 H292 0.950 . S
C313 C312 1.373 . S
C313 C329 1.377 . S
C314 C312 1.389 1_455 S
C314 C315 1.524 . S
C314 C328 1.377 . S
C315 C314 1.524 . S
C315 C316 1.397 . S
C315 C320 1.363 . S
C316 H293 0.950 . S
C316 C315 1.397 . S
C316 C317 1.334 . S
C317 H294 0.950 . S
C317 C316 1.334 . S
C317 C318 1.287 . S
C318 C317 1.287 . S
C318 C319 1.524 . S
C318 H337 0.913 . S
C319 H295 0.950 . S
C319 C318 1.524 . S
C319 C320 1.415 . S
C320 H296 0.950 . S
C320 C315 1.363 . S
C320 C319 1.415 . S
C321 H297 0.951 . S
C321 C322 1.366 . S
C321 C323 1.388 . S
C322 C321 1.366 . S
C322 C326 1.385 . S
C323 H298 0.951 . S
C323 C321 1.388 . S
C323 C324 1.366 . S
C324 C323 1.366 . S
C324 C325 1.414 . S
C324 C327 1.499 . S
C325 H299 0.950 . S
C325 C324 1.414 . S
C325 C326 1.374 . S
C326 H300 0.950 . S
C326 C322 1.385 . S
C326 C325 1.374 . S
C327 C324 1.499 . S
C327 C328 1.373 . S
C327 C329 1.389 1_455 S
C328 H301 0.950 . S
C328 C314 1.377 . S
C328 C327 1.373 . S
C329 C313 1.377 . S
C329 C327 1.389 1_655 S
C329 C330 1.524 . S
C330 C329 1.524 . S
C330 C331 1.397 . S
C330 C335 1.363 . S
C331 H302 0.950 . S
C331 C330 1.397 . S
C331 C332 1.334 . S
C332 H303 0.950 . S
C332 C331 1.334 . S
C332 C333 1.287 . S
C333 C332 1.287 . S
C333 C334 1.524 . S
C333 H336 0.999 . S
C334 H304 0.950 . S
C334 C333 1.524 . S
C334 C335 1.415 . S
C335 H305 0.950 . S
C335 C330 1.363 . S
C335 C334 1.415 . S
H336 C333 0.999 . S
H337 C318 0.913 . S
H338 C356 0.951 . S
H339 C358 0.951 . S
H340 C360 0.950 1_545 S
H341 C361 0.950 . S
H342 C363 0.950 . S
H343 C366 0.950 . S
H344 C367 0.950 . S
H345 C369 0.950 . S
H346 C370 0.950 . S
H347 C371 0.951 . S
H348 C373 0.951 . S
H349 C375 0.950 1_565 S
H350 C376 0.950 . S
H351 C378 0.950 . S
H352 C381 0.950 . S
H353 C382 0.950 . S
H354 C384 0.950 . S
H355 C385 0.950 . S
C356 H338 0.951 . S
C356 C357 1.366 . S
C356 C358 1.388 . S
C357 C356 1.366 . S
C357 C361 1.385 . S
C358 H339 0.951 . S
C358 C356 1.388 . S
C358 C359 1.366 . S
C359 C358 1.366 . S
C359 C360 1.414 . S
C359 C362 1.499 . S
C360 H340 0.950 1_565 S
C360 C359 1.414 . S
C360 C361 1.374 . S
C361 H341 0.950 . S
C361 C357 1.385 . S
C361 C360 1.374 . S
C362 C359 1.499 . S
C362 C363 1.373 1_564 S
C362 C364 1.389 1_655 S
C363 H342 0.950 . S
C363 C362 1.373 1_546 S
C363 C379 1.377 . S
C364 C362 1.389 1_455 S
C364 C365 1.524 . S
C364 C378 1.377 . S
C365 C364 1.524 . S
C365 C366 1.397 . S
C365 C370 1.363 . S
C366 H343 0.950 . S
C366 C365 1.397 . S
C366 C367 1.334 . S
C367 H344 0.950 . S
C367 C366 1.334 . S
C367 C368 1.287 . S
C368 C367 1.287 . S
C368 C369 1.524 . S
C368 H387 0.913 . S
C369 H345 0.950 . S
C369 C368 1.524 . S
C369 C370 1.415 . S
C370 H346 0.950 . S
C370 C365 1.363 . S
C370 C369 1.415 . S
C371 H347 0.951 . S
C371 C372 1.366 . S
C371 C373 1.388 . S
C372 C371 1.366 . S
C372 C376 1.385 . S
C373 H348 0.951 . S
C373 C371 1.388 . S
C373 C374 1.366 . S
C374 C373 1.366 . S
C374 C375 1.414 . S
C374 C377 1.499 . S
C375 H349 0.950 1_545 S
C375 C374 1.414 . S
C375 C376 1.374 . S
C376 H350 0.950 . S
C376 C372 1.385 . S
C376 C375 1.374 . S
C377 C374 1.499 . S
C377 C378 1.373 1_546 S
C377 C379 1.389 1_455 S
C378 H351 0.950 . S
C378 C364 1.377 . S
C378 C377 1.373 1_564 S
C379 C363 1.377 . S
C379 C377 1.389 1_655 S
C379 C380 1.524 . S
C380 C379 1.524 . S
C380 C381 1.397 . S
C380 C385 1.363 . S
C381 H352 0.950 . S
C381 C380 1.397 . S
C381 C382 1.334 . S
C382 H353 0.950 . S
C382 C381 1.334 . S
C382 C383 1.287 . S
C383 C382 1.287 . S
C383 C384 1.524 . S
C383 H386 0.999 . S
C384 H354 0.950 . S
C384 C383 1.524 . S
C384 C385 1.415 . S
C385 H355 0.950 . S
C385 C380 1.363 . S
C385 C384 1.415 . S
H386 C383 0.999 . S
H387 C368 0.913 . S
H388 C406 0.951 . S
H389 C408 0.951 . S
H390 C410 0.950 . S
H391 C411 0.950 . S
H392 C413 0.950 . S
H393 C416 0.950 . S
H394 C417 0.950 . S
H395 C419 0.950 . S
H396 C420 0.950 . S
H397 C421 0.951 . S
H398 C423 0.951 . S
H399 C425 0.950 . S
H400 C426 0.950 . S
H401 C428 0.950 . S
H402 C431 0.950 . S
H403 C432 0.950 . S
H404 C434 0.950 . S
H405 C435 0.950 . S
C406 H388 0.951 . S
C406 C407 1.366 . S
C406 C408 1.388 . S
C407 C406 1.366 . S
C407 C411 1.385 . S
C408 H389 0.951 . S
C408 C406 1.388 . S
C408 C409 1.366 . S
C409 C408 1.366 . S
C409 C410 1.414 . S
C409 C412 1.499 . S
C410 H390 0.950 . S
C410 C409 1.414 . S
C410 C411 1.374 . S
C411 H391 0.950 . S
C411 C407 1.385 . S
C411 C410 1.374 . S
C412 C409 1.499 . S
C412 C413 1.373 . S
C412 C414 1.389 . S
C413 H392 0.950 . S
C413 C412 1.373 . S
C413 C429 1.377 . S
C414 C412 1.389 . S
C414 C415 1.524 . S
C414 C428 1.377 . S
C415 C414 1.524 . S
C415 C416 1.397 . S
C415 C420 1.363 . S
C416 H393 0.950 . S
C416 C415 1.397 . S
C416 C417 1.334 . S
C417 H394 0.950 . S
C417 C416 1.334 . S
C417 C418 1.287 . S
C418 C417 1.287 . S
C418 C419 1.524 . S
C418 H437 0.913 . S
C419 H395 0.950 . S
C419 C418 1.524 . S
C419 C420 1.415 . S
C420 H396 0.950 . S
C420 C415 1.363 . S
C420 C419 1.415 . S
C421 H397 0.951 . S
C421 C422 1.366 . S
C421 C423 1.388 . S
C422 C421 1.366 . S
C422 C426 1.385 . S
C423 H398 0.951 . S
C423 C421 1.388 . S
C423 C424 1.366 . S
C424 C423 1.366 . S
C424 C425 1.414 . S
C424 C427 1.499 . S
C425 H399 0.950 . S
C425 C424 1.414 . S
C425 C426 1.374 . S
C426 H400 0.950 . S
C426 C422 1.385 . S
C426 C425 1.374 . S
C427 C424 1.499 . S
C427 C428 1.373 . S
C427 C429 1.389 . S
C428 H401 0.950 . S
C428 C414 1.377 . S
C428 C427 1.373 . S
C429 C413 1.377 . S
C429 C427 1.389 . S
C429 C430 1.524 . S
C430 C429 1.524 . S
C430 C431 1.397 . S
C430 C435 1.363 . S
C431 H402 0.950 . S
C431 C430 1.397 . S
C431 C432 1.334 . S
C432 H403 0.950 . S
C432 C431 1.334 . S
C432 C433 1.287 . S
C433 C432 1.287 . S
C433 C434 1.524 . S
C433 H436 0.999 . S
C434 H404 0.950 . S
C434 C433 1.524 . S
C434 C435 1.415 . S
C435 H405 0.950 . S
C435 C430 1.363 . S
C435 C434 1.415 . S
H436 C433 0.999 . S
H437 C418 0.913 . S
H438 C456 0.951 . S
H439 C458 0.951 . S
H440 C460 0.950 . S
H441 C461 0.950 . S
H442 C463 0.950 . S
H443 C466 0.950 . S
H444 C467 0.950 . S
H445 C469 0.950 . S
H446 C470 0.950 . S
H447 C471 0.951 . S
H448 C473 0.951 . S
H449 C475 0.950 . S
H450 C476 0.950 . S
H451 C478 0.950 . S
H452 C481 0.950 . S
H453 C482 0.950 . S
H454 C484 0.950 . S
H455 C485 0.950 . S
C456 H438 0.951 . S
C456 C457 1.366 . S
C456 C458 1.388 . S
C457 C456 1.366 . S
C457 C461 1.385 . S
C458 H439 0.951 . S
C458 C456 1.388 . S
C458 C459 1.366 . S
C459 C458 1.366 . S
C459 C460 1.414 . S
C459 C462 1.499 . S
C460 H440 0.950 . S
C460 C459 1.414 . S
C460 C461 1.374 . S
C461 H441 0.950 . S
C461 C457 1.385 . S
C461 C460 1.374 . S
C462 C459 1.499 . S
C462 C463 1.373 . S
C462 C464 1.389 . S
C463 H442 0.950 . S
C463 C462 1.373 . S
C463 C479 1.377 . S
C464 C462 1.389 . S
C464 C465 1.524 . S
C464 C478 1.377 . S
C465 C464 1.524 . S
C465 C466 1.397 . S
C465 C470 1.363 . S
C466 H443 0.950 . S
C466 C465 1.397 . S
C466 C467 1.334 . S
C467 H444 0.950 . S
C467 C466 1.334 . S
C467 C468 1.287 . S
C468 C467 1.287 . S
C468 C469 1.524 . S
C468 H487 0.913 . S
C469 H445 0.950 . S
C469 C468 1.524 . S
C469 C470 1.415 . S
C470 H446 0.950 . S
C470 C465 1.363 . S
C470 C469 1.415 . S
C471 H447 0.951 . S
C471 C472 1.366 . S
C471 C473 1.388 . S
C472 C471 1.366 . S
C472 C476 1.385 . S
C473 H448 0.951 . S
C473 C471 1.388 . S
C473 C474 1.366 . S
C474 C473 1.366 . S
C474 C475 1.414 . S
C474 C477 1.499 . S
C475 H449 0.950 . S
C475 C474 1.414 . S
C475 C476 1.374 . S
C476 H450 0.950 . S
C476 C472 1.385 . S
C476 C475 1.374 . S
C477 C474 1.499 . S
C477 C478 1.373 . S
C477 C479 1.389 . S
C478 H451 0.950 . S
C478 C464 1.377 . S
C478 C477 1.373 . S
C479 C463 1.377 . S
C479 C477 1.389 . S
C479 C480 1.524 . S
C480 C479 1.524 . S
C480 C481 1.397 . S
C480 C485 1.363 . S
C481 H452 0.950 . S
C481 C480 1.397 . S
C481 C482 1.334 . S
C482 H453 0.950 . S
C482 C481 1.334 . S
C482 C483 1.287 . S
C483 C482 1.287 . S
C483 C484 1.524 . S
C483 H486 0.999 . S
C484 H454 0.950 . S
C484 C483 1.524 . S
C484 C485 1.415 . S
C485 H455 0.950 . S
C485 C480 1.363 . S
C485 C484 1.415 . S
H486 C483 0.999 . S
H487 C468 0.913 . S
H488 C506 0.951 1_554 S
H489 C508 0.951 . S
H490 C510 0.950 . S
H491 C511 0.950 . S
H492 C513 0.950 . S
H493 C516 0.950 . S
H494 C517 0.950 . S
H495 C519 0.950 1_554 S
H496 C520 0.950 . S
H497 C521 0.951 . S
H498 C523 0.951 . S
H499 C525 0.950 . S
H500 C526 0.950 . S
H501 C528 0.950 . S
H502 C531 0.950 . S
H503 C532 0.950 . S
H504 C534 0.950 . S
H505 C535 0.950 . S
C506 H488 0.951 1_556 S
C506 C507 1.366 . S
C506 C508 1.388 . S
C507 C506 1.366 . S
C507 C511 1.385 . S
C508 H489 0.951 . S
C508 C506 1.388 . S
C508 C509 1.366 . S
C509 C508 1.366 . S
C509 C510 1.414 . S
C509 C512 1.499 . S
C510 H490 0.950 . S
C510 C509 1.414 . S
C510 C511 1.374 . S
C511 H491 0.950 . S
C511 C507 1.385 . S
C511 C510 1.374 . S
C512 C509 1.499 . S
C512 C513 1.373 . S
C512 C514 1.389 . S
C513 H492 0.950 . S
C513 C512 1.373 . S
C513 C529 1.377 . S
C514 C512 1.389 . S
C514 C515 1.524 . S
C514 C528 1.377 . S
C515 C514 1.524 . S
C515 C516 1.397 . S
C515 C520 1.363 . S
C516 H493 0.950 . S
C516 C515 1.397 . S
C516 C517 1.334 . S
C517 H494 0.950 . S
C517 C516 1.334 . S
C517 C518 1.287 1_556 S
C518 C517 1.287 1_554 S
C518 C519 1.524 1_554 S
C518 H537 0.913 . S
C519 H495 0.950 1_556 S
C519 C518 1.524 1_556 S
C519 C520 1.415 . S
C520 H496 0.950 . S
C520 C515 1.363 . S
C520 C519 1.415 . S
C521 H497 0.951 . S
C521 C522 1.366 . S
C521 C523 1.388 . S
C522 C521 1.366 . S
C522 C526 1.385 . S
C523 H498 0.951 . S
C523 C521 1.388 . S
C523 C524 1.366 . S
C524 C523 1.366 . S
C524 C525 1.414 . S
C524 C527 1.499 . S
C525 H499 0.950 . S
C525 C524 1.414 . S
C525 C526 1.374 . S
C526 H500 0.950 . S
C526 C522 1.385 . S
C526 C525 1.374 . S
C527 C524 1.499 . S
C527 C528 1.373 . S
C527 C529 1.389 . S
C528 H501 0.950 . S
C528 C514 1.377 . S
C528 C527 1.373 . S
C529 C513 1.377 . S
C529 C527 1.389 . S
C529 C530 1.524 . S
C530 C529 1.524 . S
C530 C531 1.397 . S
C530 C535 1.363 . S
C531 H502 0.950 . S
C531 C530 1.397 . S
C531 C532 1.334 . S
C532 H503 0.950 . S
C532 C531 1.334 . S
C532 C533 1.287 . S
C533 C532 1.287 . S
C533 C534 1.524 . S
C533 H536 0.999 . S
C534 H504 0.950 . S
C534 C533 1.524 . S
C534 C535 1.415 . S
C535 H505 0.950 . S
C535 C530 1.363 . S
C535 C534 1.415 . S
H536 C533 0.999 . S
H537 C518 0.913 . S
H538 C556 0.951 . S
H539 C558 0.951 . S
H540 C560 0.950 . S
H541 C561 0.950 . S
H542 C563 0.950 . S
H543 C566 0.950 . S
H544 C567 0.950 . S
H545 C569 0.950 . S
H546 C570 0.950 . S
H547 C571 0.951 . S
H548 C573 0.951 . S
H549 C575 0.950 . S
H550 C576 0.950 . S
H551 C578 0.950 . S
H552 C581 0.950 . S
H553 C582 0.950 . S
H554 C584 0.950 . S
H555 C585 0.950 . S
C556 H538 0.951 . S
C556 C557 1.366 . S
C556 C558 1.388 . S
C557 C556 1.366 . S
C557 C561 1.385 . S
C558 H539 0.951 . S
C558 C556 1.388 . S
C558 C559 1.366 . S
C559 C558 1.366 . S
C559 C560 1.414 . S
C559 C562 1.499 . S
C560 H540 0.950 . S
C560 C559 1.414 . S
C560 C561 1.374 . S
C561 H541 0.950 . S
C561 C557 1.385 . S
C561 C560 1.374 . S
C562 C559 1.499 . S
C562 C563 1.373 . S
C562 C564 1.389 . S
C563 H542 0.950 . S
C563 C562 1.373 . S
C563 C579 1.377 . S
C564 C562 1.389 . S
C564 C565 1.524 . S
C564 C578 1.377 . S
C565 C564 1.524 . S
C565 C566 1.397 . S
C565 C570 1.363 . S
C566 H543 0.950 . S
C566 C565 1.397 . S
C566 C567 1.334 . S
C567 H544 0.950 . S
C567 C566 1.334 . S
C567 C568 1.287 . S
C568 C567 1.287 . S
C568 C569 1.524 . S
C568 H587 0.913 . S
C569 H545 0.950 . S
C569 C568 1.524 . S
C569 C570 1.415 . S
C570 H546 0.950 . S
C570 C565 1.363 . S
C570 C569 1.415 . S
C571 H547 0.951 . S
C571 C572 1.366 . S
C571 C573 1.388 . S
C572 C571 1.366 . S
C572 C576 1.385 . S
C573 H548 0.951 . S
C573 C571 1.388 . S
C573 C574 1.366 . S
C574 C573 1.366 . S
C574 C575 1.414 . S
C574 C577 1.499 . S
C575 H549 0.950 . S
C575 C574 1.414 . S
C575 C576 1.374 . S
C576 H550 0.950 . S
C576 C572 1.385 . S
C576 C575 1.374 . S
C577 C574 1.499 . S
C577 C578 1.373 . S
C577 C579 1.389 . S
C578 H551 0.950 . S
C578 C564 1.377 . S
C578 C577 1.373 . S
C579 C563 1.377 . S
C579 C577 1.389 . S
C579 C580 1.524 . S
C580 C579 1.524 . S
C580 C581 1.397 . S
C580 C585 1.363 . S
C581 H552 0.950 . S
C581 C580 1.397 . S
C581 C582 1.334 . S
C582 H553 0.950 . S
C582 C581 1.334 . S
C582 C583 1.287 . S
C583 C582 1.287 . S
C583 C584 1.524 . S
C583 H586 0.999 . S
C584 H554 0.950 . S
C584 C583 1.524 . S
C584 C585 1.415 . S
C585 H555 0.950 . S
C585 C580 1.363 . S
C585 C584 1.415 . S
H586 C583 0.999 . S
H587 C568 0.913 . S
H588 C606 0.951 . S
H589 C608 0.951 . S
H590 C610 0.950 . S
H591 C611 0.950 . S
H592 C613 0.950 . S
H593 C616 0.950 . S
H594 C617 0.950 . S
H595 C619 0.950 . S
H596 C620 0.950 . S
H597 C621 0.951 . S
H598 C623 0.951 . S
H599 C625 0.950 . S
H600 C626 0.950 . S
H601 C628 0.950 . S
H602 C631 0.950 . S
H603 C632 0.950 . S
H604 C634 0.950 . S
H605 C635 0.950 . S
C606 H588 0.951 . S
C606 C607 1.366 . S
C606 C608 1.388 . S
C607 C606 1.366 . S
C607 C611 1.385 . S
C608 H589 0.951 . S
C608 C606 1.388 . S
C608 C609 1.366 . S
C609 C608 1.366 . S
C609 C610 1.414 . S
C609 C612 1.499 . S
C610 H590 0.950 . S
C610 C609 1.414 . S
C610 C611 1.374 . S
C611 H591 0.950 . S
C611 C607 1.385 . S
C611 C610 1.374 . S
C612 C609 1.499 . S
C612 C613 1.373 . S
C612 C614 1.389 . S
C613 H592 0.950 . S
C613 C612 1.373 . S
C613 C629 1.377 . S
C614 C612 1.389 . S
C614 C615 1.524 . S
C614 C628 1.377 . S
C615 C614 1.524 . S
C615 C616 1.397 . S
C615 C620 1.363 . S
C616 H593 0.950 . S
C616 C615 1.397 . S
C616 C617 1.334 . S
C617 H594 0.950 . S
C617 C616 1.334 . S
C617 C618 1.287 . S
C618 C617 1.287 . S
C618 C619 1.524 . S
C618 H637 0.913 . S
C619 H595 0.950 . S
C619 C618 1.524 . S
C619 C620 1.415 . S
C620 H596 0.950 . S
C620 C615 1.363 . S
C620 C619 1.415 . S
C621 H597 0.951 . S
C621 C622 1.366 . S
C621 C623 1.388 . S
C622 C621 1.366 . S
C622 C626 1.385 . S
C623 H598 0.951 . S
C623 C621 1.388 . S
C623 C624 1.366 . S
C624 C623 1.366 . S
C624 C625 1.414 . S
C624 C627 1.499 . S
C625 H599 0.950 . S
C625 C624 1.414 . S
C625 C626 1.374 . S
C626 H600 0.950 . S
C626 C622 1.385 . S
C626 C625 1.374 . S
C627 C624 1.499 . S
C627 C628 1.373 . S
C627 C629 1.389 . S
C628 H601 0.950 . S
C628 C614 1.377 . S
C628 C627 1.373 . S
C629 C613 1.377 . S
C629 C627 1.389 . S
C629 C630 1.524 . S
C630 C629 1.524 . S
C630 C631 1.397 . S
C630 C635 1.363 . S
C631 H602 0.950 . S
C631 C630 1.397 . S
C631 C632 1.334 . S
C632 H603 0.950 . S
C632 C631 1.334 . S
C632 C633 1.287 . S
C633 C632 1.287 . S
C633 C634 1.524 . S
C633 H636 0.999 . S
C634 H604 0.950 . S
C634 C633 1.524 . S
C634 C635 1.415 . S
C635 H605 0.950 . S
C635 C630 1.363 . S
C635 C634 1.415 . S
H636 C633 0.999 . S
H637 C618 0.913 . S
H638 C656 0.951 1_554 S
H639 C658 0.951 1_554 S
H640 C660 0.950 . S
H641 C661 0.950 . S
H642 C663 0.950 . S
H643 C666 0.950 1_556 S
H644 C667 0.950 . S
H645 C669 0.950 . S
H646 C670 0.950 . S
H647 C671 0.951 1_556 S
H648 C673 0.951 1_556 S
H649 C675 0.950 . S
H650 C676 0.950 . S
H651 C678 0.950 . S
H652 C681 0.950 1_554 S
H653 C682 0.950 . S
H654 C684 0.950 . S
H655 C685 0.950 . S
C656 H638 0.951 1_556 S
C656 C657 1.366 . S
C656 C658 1.388 . S
C657 C656 1.366 . S
C657 C661 1.385 . S
C658 H639 0.951 1_556 S
C658 C656 1.388 . S
C658 C659 1.366 . S
C659 C658 1.366 . S
C659 C660 1.414 . S
C659 C662 1.499 . S
C660 H640 0.950 . S
C660 C659 1.414 . S
C660 C661 1.374 . S
C661 H641 0.950 . S
C661 C657 1.385 . S
C661 C660 1.374 . S
C662 C659 1.499 . S
C662 C663 1.373 1_545 S
C662 C664 1.389 1_556 S
C663 H642 0.950 . S
C663 C662 1.373 1_565 S
C663 C679 1.377 . S
C664 C662 1.389 1_554 S
C664 C665 1.524 . S
C664 C678 1.377 . S
C665 C664 1.524 . S
C665 C666 1.397 . S
C665 C670 1.363 . S
C666 H643 0.950 1_554 S
C666 C665 1.397 . S
C666 C667 1.334 . S
C667 H644 0.950 . S
C667 C666 1.334 . S
C667 C668 1.287 . S
C668 C667 1.287 . S
C668 C669 1.524 . S
C668 H687 0.913 . S
C669 H645 0.950 . S
C669 C668 1.524 . S
C669 C670 1.415 . S
C670 H646 0.950 . S
C670 C665 1.363 . S
C670 C669 1.415 . S
C671 H647 0.951 1_554 S
C671 C672 1.366 . S
C671 C673 1.388 . S
C672 C671 1.366 . S
C672 C676 1.385 . S
C673 H648 0.951 1_554 S
C673 C671 1.388 . S
C673 C674 1.366 . S
C674 C673 1.366 . S
C674 C675 1.414 . S
C674 C677 1.499 . S
C675 H649 0.950 . S
C675 C674 1.414 . S
C675 C676 1.374 . S
C676 H650 0.950 . S
C676 C672 1.385 . S
C676 C675 1.374 . S
C677 C674 1.499 . S
C677 C678 1.373 1_565 S
C677 C679 1.389 1_554 S
C678 H651 0.950 . S
C678 C664 1.377 . S
C678 C677 1.373 1_545 S
C679 C663 1.377 . S
C679 C677 1.389 1_556 S
C679 C680 1.524 . S
C680 C679 1.524 . S
C680 C681 1.397 . S
C680 C685 1.363 . S
C681 H652 0.950 1_556 S
C681 C680 1.397 . S
C681 C682 1.334 . S
C682 H653 0.950 . S
C682 C681 1.334 . S
C682 C683 1.287 . S
C683 C682 1.287 . S
C683 C684 1.524 . S
C683 H686 0.999 . S
C684 H654 0.950 . S
C684 C683 1.524 . S
C684 C685 1.415 . S
C685 H655 0.950 . S
C685 C680 1.363 . S
C685 C684 1.415 . S
H686 C683 0.999 . S
H687 C668 0.913 . S
C107 C32 1.426 1_545 S
C122 C7 1.444 . S
C157 C8 1.427 . S
C172 C43 1.445 . S
C207 C76 1.426 1_565 S
C222 C59 1.445 . S
C257 C62 1.426 . S
C272 C87 1.445 . S
C307 C51 0.764 . S
C322 C21 0.764 . S
C357 C37 0.764 . S
C372 C81 0.764 . S
C407 C73 1.493 1_554 S
C422 C18 1.480 . S
C457 C30 1.481 . S
C472 C65 1.494 . S
C507 C29 1.494 1_556 S
C522 C54 1.480 . S
C557 C74 1.481 . S
C572 C15 1.493 . S
C607 C10 1.555 . S
C622 C52 1.555 . S
C657 C84 1.555 . S
C672 C40 1.555 . S
