# Generated by pormake.
# Topology wjn, (5)-cn, num edge types: 1
# Building blocks:
#     Node 0, Type 0, BuildingBlock: BEQFEK_clean_sbu_0, # of connection points: 5
#     Node 1, Type 0, BuildingBlock: BEQFEK_clean_sbu_0, # of connection points: 5
#     Node 2, Type 0, BuildingBlock: BEQFEK_clean_sbu_0, # of connection points: 5
#     Node 3, Type 0, BuildingBlock: BEQFEK_clean_sbu_0, # of connection points: 5
#     Node 4, Type 0, BuildingBlock: BEQFEK_clean_sbu_0, # of connection points: 5
#     Node 5, Type 0, BuildingBlock: BEQFEK_clean_sbu_0, # of connection points: 5
#     Node 6, Type 0, BuildingBlock: BEQFEK_clean_sbu_0, # of connection points: 5
#     Node 7, Type 0, BuildingBlock: BEQFEK_clean_sbu_0, # of connection points: 5
#     Node 8, Type 0, BuildingBlock: BEQFEK_clean_sbu_0, # of connection points: 5
#     Node 9, Type 0, BuildingBlock: BEQFEK_clean_sbu_0, # of connection points: 5
#     Node 10, Type 0, BuildingBlock: BEQFEK_clean_sbu_0, # of connection points: 5
#     Node 11, Type 0, BuildingBlock: BEQFEK_clean_sbu_0, # of connection points: 5
#     Edge 12, Type (0, 0), None
#     Edge 13, Type (0, 0), None
#     Edge 14, Type (0, 0), None
#     Edge 15, Type (0, 0), None
#     Edge 16, Type (0, 0), None
#     Edge 17, Type (0, 0), None
#     Edge 18, Type (0, 0), None
#     Edge 19, Type (0, 0), None
#     Edge 20, Type (0, 0), None
#     Edge 21, Type (0, 0), None
#     Edge 22, Type (0, 0), None
#     Edge 23, Type (0, 0), None
#     Edge 24, Type (0, 0), None
#     Edge 25, Type (0, 0), None
#     Edge 26, Type (0, 0), None
#     Edge 27, Type (0, 0), None
#     Edge 28, Type (0, 0), None
#     Edge 29, Type (0, 0), None
#     Edge 30, Type (0, 0), None
#     Edge 31, Type (0, 0), None
#     Edge 32, Type (0, 0), None
#     Edge 33, Type (0, 0), None
#     Edge 34, Type (0, 0), None
#     Edge 35, Type (0, 0), None
#     Edge 36, Type (0, 0), None
#     Edge 37, Type (0, 0), None
#     Edge 38, Type (0, 0), None
#     Edge 39, Type (0, 0), None
#     Edge 40, Type (0, 0), None
#     Edge 41, Type (0, 0), None
# Relax obj value: 0.481
# Max RMSD: 0.243
# Mean RMSD: 0.243
data_MOF--net-wjn--node1-BEQFEK_clean_sbu_0--edge1-none
_symmetry_space_group_name_H-M    P1
_symmetry_Int_Tables_number       1
_symmetry_cell_setting            triclinic
loop_
_symmetry_equiv_pos_as_xyz
'x, y, z'
_cell_length_a     18.570434
_cell_length_b     18.570689
_cell_length_c     36.552353
_cell_angle_alpha  89.987615
_cell_angle_beta   90.006201
_cell_angle_gamma 120.00138
loop_
_atom_site_label
_atom_site_type_symbol
_atom_site_fract_x
_atom_site_fract_y
_atom_site_fract_z
_atom_type_partial_charge
Co0 Co 0.10464 0.42784 0.08242 0.0
Co1 Co 0.2693 0.47029 0.11476 0.0
C2 C 0.20511 0.57747 0.13715 0.0
O3 O 0.13889 0.52371 0.12066 0.0
O4 O 0.27113 0.5728 0.13452 0.0
C5 C 0.07434 0.51227 0.03407 0.0
O6 O 0.15593 0.55325 0.03575 0.0
C7 C 0.45113 0.53911 0.12792 0.0
C8 C 0.45894 0.42592 0.13677 0.0
C9 C 0.50783 0.51155 0.13349 0.0
N10 N 0.373 0.47302 0.12764 0.0
N11 N 0.37857 0.40564 0.13324 0.0
C12 C 0.47156 0.62661 0.1206 0.0
H13 H 0.41654 0.62852 0.11021 0.0
H14 H 0.52255 0.65602 0.10024 0.0
H15 H 0.49318 0.66307 0.14632 0.0
C16 C 0.17498 0.41559 0.01576 0.0
N17 N 0.18222 0.42876 0.05193 0.0
N18 N 0.25977 0.46461 0.06224 0.0
C19 C 0.30637 0.48107 0.03159 0.0
C20 C 0.25305 0.45248 0.0012 0.0
C21 C 0.09442 0.36325 -0.004 0.0
H22 H 1.04471 0.32293 0.01555 0.0
H23 H 0.07551 0.40346 0.98142 0.0
H24 H 0.10194 0.324 0.97517 0.0
O25 O 1.05053 0.32184 0.10332 0.0
O26 O 0.16135 0.37101 0.13935 0.0
H27 H 0.42122 0.48834 0.04626 0.0
H28 H 0.42428 0.53824 0.00309 0.0
C29 C 0.39926 0.52583 0.03136 0.0
H30 H 0.4232 0.58581 0.0459 0.0
H31 H 0.32763 0.34536 0.13351 0.0
O32 O 1.03375 0.44245 0.04992 0.0
C33 C 0.08343 0.31866 0.13294 0.0
Co34 Co 0.71314 0.08654 0.4158 0.0
Co35 Co 0.83541 0.25117 0.4481 0.0
C36 C 0.66408 0.18692 0.47061 0.0
O37 O 0.65159 0.12071 0.45412 0.0
O38 O 0.73475 0.25297 0.46794 0.0
C39 C 0.59842 0.05642 0.36748 0.0
O40 O 0.63903 0.13801 0.36924 0.0
C41 C 0.94841 0.43299 0.46126 0.0
C42 C 0.06943 0.44081 0.47008 0.0
C43 C 1.03268 0.48969 0.46682 0.0
N44 N 0.93639 0.35487 0.46096 0.0
N45 N 1.00935 0.36044 0.46655 0.0
C46 C 0.88134 0.45342 0.45397 0.0
H47 H 0.8244 0.39839 0.44358 0.0
H48 H 0.90289 0.50441 0.43361 0.0
H49 H 0.86652 0.47503 0.47969 0.0
C50 C 0.79564 0.1569 0.34911 0.0
N51 N 0.78975 0.16414 0.38528 0.0
N52 N 0.83147 0.24169 0.39558 0.0
C53 C 0.86159 0.28829 0.36492 0.0
C54 C 0.83682 0.23497 0.33453 0.0
C55 C 0.76738 0.07633 0.32936 0.0
H56 H 0.75801 1.02663 0.34891 0.0
H57 H 0.70824 0.05741 0.3148 0.0
H58 H 0.81413 0.08384 0.30851 0.0
O59 O 0.76511 1.03242 0.43662 0.0
O60 O 0.8268 0.14321 0.47265 0.0
H61 H 0.96922 0.40312 0.37955 0.0
H62 H 0.92229 0.40619 0.33641 0.0
C63 C 0.90974 0.38117 0.36468 0.0
H64 H 0.87374 0.40513 0.37926 0.0
H65 H 1.01869 0.3095 0.46681 0.0
O66 O 0.62754 1.01573 0.38333 0.0
C67 C 0.80123 0.0653 0.46623 0.0
Co68 Co 0.66276 0.69512 0.74911 0.0
Co69 Co 0.62038 0.81737 0.78139 0.0
C70 C 0.51332 0.64606 0.80394 0.0
O71 O 0.56705 0.63358 0.78745 0.0
O72 O 0.51792 0.71671 0.80124 0.0
C73 C 0.57814 0.58037 0.70082 0.0
O74 O 0.53716 0.62098 0.70257 0.0
C75 C 0.55158 0.93038 0.79455 0.0
C76 C 0.66477 0.05137 0.80341 0.0
C77 C 0.57913 1.01463 0.80014 0.0
N78 N 0.61767 0.91835 0.79425 0.0
N79 N 0.68505 0.9913 0.79986 0.0
C80 C 0.46408 0.86331 0.78725 0.0
H81 H 0.46216 0.80638 0.77686 0.0
H82 H 0.43466 0.88489 0.76689 0.0
H83 H 0.42761 0.84847 0.81297 0.0
C84 C 0.67492 0.77758 0.68241 0.0
N85 N 0.66177 0.77171 0.71858 0.0
N86 N 0.62593 0.81343 0.72886 0.0
C87 C 0.60946 0.84353 0.6982 0.0
C88 C 0.63804 0.81875 0.66781 0.0
C89 C 0.72726 0.74933 0.66268 0.0
H90 H 0.76759 0.73999 0.68224 0.0
H91 H 0.68706 0.69017 0.64813 0.0
H92 H 0.7665 0.79607 0.64182 0.0
O93 O 0.76886 0.7471 0.76991 0.0
O94 O 0.71974 0.80877 0.80594 0.0
H95 H 0.60227 0.95118 0.71277 0.0
H96 H 0.55223 0.90417 0.66966 0.0
C97 C 0.56473 0.89167 0.69793 0.0
H98 H 0.50478 0.8557 0.71253 0.0
H99 H 0.74533 1.00063 0.80012 0.0
O100 O 0.64796 0.6095 0.71666 0.0
C101 C 0.77209 0.78321 0.79952 0.0
Co102 Co 1.00399 0.64457 0.08231 0.0
Co103 Co 0.83932 0.6021 0.11465 0.0
C104 C 0.9036 0.49501 0.13713 0.0
O105 O 0.9698 0.54872 0.1206 0.0
O106 O 0.83756 0.49966 0.13448 0.0
C107 C 1.03452 0.56035 0.0339 0.0
O108 O 0.95291 0.51926 0.03543 0.0
C109 C 0.65751 0.53328 0.12785 0.0
C110 C 0.64972 0.64646 0.13674 0.0
C111 C 0.60082 0.56084 0.13344 0.0
N112 N 0.73563 0.59936 0.12755 0.0
N113 N 0.73008 0.66675 0.13317 0.0
C114 C 0.63706 0.44578 0.12054 0.0
H115 H 0.69208 0.44387 0.11015 0.0
H116 H 0.58606 0.41637 0.10019 0.0
H117 H 0.61545 0.40931 0.14627 0.0
C118 C 0.9336 0.65683 0.01565 0.0
N119 N 0.92636 0.64358 0.05182 0.0
N120 N 0.84881 0.60772 0.06213 0.0
C121 C 0.80221 0.59131 0.03148 0.0
C122 C 0.85553 0.61997 0.00109 0.0
C123 C 1.01416 0.7093 -0.00409 0.0
H124 H 0.06384 0.7496 0.01547 0.0
H125 H 1.03315 0.66917 0.98131 0.0
H126 H 1.0066 0.74857 0.97509 0.0
O127 O 0.05806 0.75059 0.10319 0.0
O128 O 0.94725 0.70141 0.13922 0.0
H129 H 0.68738 0.58412 0.0461 0.0
H130 H 0.68431 0.53412 0.00297 0.0
C131 C 0.70932 0.54658 0.03124 0.0
H132 H 0.68536 0.48663 0.04583 0.0
H133 H 0.78103 0.72702 0.13344 0.0
O134 O 0.07496 0.63012 0.04979 0.0
C135 C 1.02516 0.75377 0.1328 0.0
Co136 Co 0.39577 0.98589 0.41559 0.0
Co137 Co 0.27361 0.8212 0.44798 0.0
C138 C 0.44503 0.88541 0.47033 0.0
O139 O 0.45751 0.95162 0.45381 0.0
O140 O 0.37432 0.8194 0.46773 0.0
C141 C 0.51052 1.0166 0.36716 0.0
O142 O 0.46999 0.93499 0.3686 0.0
C143 C 0.16063 0.63938 0.46118 0.0
C144 C 1.03965 0.63157 0.4701 0.0
C145 C 0.07638 0.58268 0.46678 0.0
N146 N 0.17266 0.7175 0.46089 0.0
N147 N 0.09973 0.71194 0.46653 0.0
C148 C 0.22768 0.61894 0.45384 0.0
H149 H 0.2846 0.67396 0.44343 0.0
H150 H 0.20607 0.56794 0.43349 0.0
H151 H 0.24257 0.59733 0.47956 0.0
C152 C 0.31299 0.91551 0.34897 0.0
N153 N 0.31906 0.90828 0.38514 0.0
N154 N 0.27739 0.83073 0.39546 0.0
C155 C 0.24717 0.78412 0.36481 0.0
C156 C 0.2718 0.83745 0.33442 0.0
C157 C 0.34107 0.99606 0.32922 0.0
H158 H 0.35046 0.04575 0.34877 0.0
H159 H 0.40016 1.01505 0.31461 0.0
H160 H 0.2942 0.98849 0.30842 0.0
O161 O 0.34389 0.03994 0.43656 0.0
O162 O 0.28229 0.92911 0.47259 0.0
H163 H 0.1396 0.66927 0.37948 0.0
H164 H 0.18644 0.66623 0.33632 0.0
C165 C 0.19905 0.69124 0.36458 0.0
H166 H 0.23509 0.6673 0.37914 0.0
H167 H 0.0904 0.76288 0.46681 0.0
O168 O 0.48108 0.05694 0.38305 0.0
C169 C 0.30785 1.00703 0.46618 0.0
Co170 Co 0.44603 0.37774 0.74895 0.0
Co171 Co 0.48855 0.25557 0.78136 0.0
C172 C 0.59578 0.42701 0.80367 0.0
O173 O 0.54205 0.43948 0.78715 0.0
O174 O 0.59106 0.35629 0.80109 0.0
C175 C 0.53007 0.49248 0.7005 0.0
O176 O 0.57116 0.45196 0.70194 0.0
C177 C 0.55741 0.14259 0.79455 0.0
C178 C 0.44422 1.02159 0.80343 0.0
C179 C 0.52985 0.05833 0.80013 0.0
N180 N 0.49132 0.15462 0.79426 0.0
N181 N 0.42394 0.08167 0.79989 0.0
C182 C 0.64491 0.20966 0.78723 0.0
H183 H 0.64682 0.26659 0.77683 0.0
H184 H 0.67432 0.18808 0.76688 0.0
H185 H 0.68137 0.22451 0.81296 0.0
C186 C 0.43368 0.29494 0.68234 0.0
N187 N 0.44695 0.30102 0.7185 0.0
N188 N 0.48282 0.25935 0.72884 0.0
C189 C 0.49922 0.22912 0.69821 0.0
C190 C 0.47055 0.25374 0.6678 0.0
C191 C 0.38122 0.32302 0.66257 0.0
H192 H 0.34092 0.33243 0.68211 0.0
H193 H 0.42136 0.38209 0.64794 0.0
H194 H 0.34195 0.27614 0.64177 0.0
O195 O 0.3401 0.32586 0.76993 0.0
O196 O 0.38932 0.26425 0.80597 0.0
H197 H 0.50649 0.12157 0.71292 0.0
H198 H 0.55636 0.16833 0.66975 0.0
C199 C 0.54397 0.18099 0.698 0.0
H200 H 0.60397 0.21706 0.71255 0.0
H201 H 0.36366 0.07234 0.80016 0.0
O202 O 0.46029 0.46304 0.71639 0.0
C203 C 0.33697 0.28983 0.79956 0.0
Co204 Co 0.66283 0.9858 0.54753 0.0
Co205 Co 0.62045 0.82115 0.51525 0.0
C206 C 0.51342 0.88541 0.49268 0.0
O207 O 0.56716 0.95164 0.50917 0.0
O208 O 0.51801 0.81935 0.49539 0.0
C209 C 0.57814 1.01591 0.59578 0.0
O210 O 0.53717 0.93432 0.59402 0.0
C211 C 0.55161 0.63935 0.50208 0.0
C212 C 0.66478 0.63151 0.49322 0.0
C213 C 0.57915 0.58264 0.49649 0.0
N214 N 0.61772 0.71746 0.50238 0.0
N215 N 0.68509 0.71188 0.49677 0.0
C216 C 0.46412 0.61894 0.50939 0.0
H217 H 0.46223 0.67396 0.51979 0.0
H218 H 0.43468 0.56792 0.52974 0.0
H219 H 0.42766 0.59737 0.48366 0.0
C220 C 0.67489 0.91545 0.61425 0.0
N221 N 0.66176 0.90819 0.57807 0.0
N222 N 0.62598 0.83064 0.56778 0.0
C223 C 0.60953 0.78405 0.59844 0.0
C224 C 0.6381 0.83738 0.62882 0.0
C225 C 0.72717 0.99603 0.63399 0.0
H226 H 0.76753 0.04572 0.61445 0.0
H227 H 0.68691 1.01496 0.64851 0.0
H228 H 0.76637 0.98855 0.65487 0.0
O229 O 0.76899 0.03989 0.52677 0.0
O230 O 0.71982 0.92909 0.49071 0.0
H231 H 0.60239 0.66924 0.58383 0.0
H232 H 0.55237 0.66616 0.62696 0.0
C233 C 0.56483 0.69117 0.59869 0.0
H234 H 0.50488 0.66718 0.5841 0.0
H235 H 0.74538 0.76281 0.49652 0.0
O236 O 0.64798 0.05661 0.57996 0.0
C237 C 0.7722 1.00698 0.49716 0.0
Co238 Co 0.7132 0.64481 0.88084 0.0
Co239 Co 0.83548 0.60245 0.84854 0.0
C240 C 0.66417 0.4954 0.82601 0.0
O241 O 0.65168 0.54913 0.8425 0.0
O242 O 0.73483 0.50001 0.8287 0.0
C243 C 0.59842 0.56013 0.92912 0.0
O244 O 0.63903 0.51916 0.92735 0.0
C245 C 0.94844 0.5336 0.83537 0.0
C246 C 0.06947 0.64678 0.82655 0.0
C247 C 1.03269 0.56114 0.82981 0.0
N248 N 0.93645 0.59972 0.83567 0.0
N249 N 1.00941 0.66709 0.83008 0.0
C250 C 0.88134 0.44611 0.84267 0.0
H251 H 0.82442 0.44421 0.85307 0.0
H252 H 0.90289 0.41664 0.86301 0.0
H253 H 0.86648 0.40968 0.81694 0.0
C254 C 0.79565 0.65685 0.94755 0.0
N255 N 0.78976 0.64374 0.91137 0.0
N256 N 0.83153 0.60798 0.90106 0.0
C257 C 0.86168 0.59151 0.93171 0.0
C258 C 0.83693 0.62006 0.9621 0.0
C259 C 0.76734 0.7091 0.96731 0.0
H260 H 0.75797 0.74946 0.94778 0.0
H261 H 0.70817 0.66882 -0.01816 0.0
H262 H 0.81404 0.7483 -0.01182 0.0
O263 O 0.76526 0.75096 0.86006 0.0
O264 O 0.82691 0.70182 0.824 0.0
H265 H 0.96933 0.58437 0.91705 0.0
H266 H 0.92248 0.53438 0.9602 0.0
C267 C 0.90987 0.54682 0.93194 0.0
H268 H 0.87388 0.48685 0.91737 0.0
H269 H 1.01877 0.72738 0.82983 0.0
O270 O 0.62756 0.62998 0.91329 0.0
C271 C 0.80138 0.75418 0.83045 0.0
Co272 Co 0.10463 0.69499 0.21422 0.0
Co273 Co 0.2693 0.81723 0.18188 0.0
C274 C 0.2051 0.64587 0.15947 0.0
O275 O 0.13887 0.6334 0.17596 0.0
O276 O 0.27113 0.71656 0.16211 0.0
C277 C 0.07434 0.58021 0.26253 0.0
O278 O 0.15593 0.62082 0.26085 0.0
C279 C 0.45111 0.93018 0.16871 0.0
C280 C 0.45897 0.0512 0.15986 0.0
C281 C 0.50783 1.01443 0.16314 0.0
N282 N 0.373 0.91818 0.169 0.0
N283 N 0.37859 0.99114 0.16339 0.0
C284 C 0.47151 0.8631 0.17604 0.0
H285 H 0.41649 0.80619 0.18645 0.0
H286 H 0.52252 0.88467 0.19638 0.0
H287 H 0.49309 0.84821 0.15031 0.0
C288 C 0.17502 0.77755 0.28089 0.0
N289 N 0.18223 0.77161 0.24472 0.0
N290 N 0.25977 0.81336 0.2344 0.0
C291 C 0.3064 0.84354 0.26504 0.0
C292 C 0.2531 0.81884 0.29544 0.0
C293 C 0.09446 0.74927 0.30067 0.0
H294 H 1.04474 0.73988 0.28114 0.0
H295 H 0.07558 0.69012 0.31522 0.0
H296 H 0.10198 0.79599 0.32152 0.0
O297 O 1.05055 0.74697 0.19335 0.0
O298 O 0.16137 0.80859 0.15729 0.0
H299 H 0.42121 0.95113 0.25034 0.0
H300 H 0.42433 0.90438 0.29352 0.0
C301 C 0.39928 0.89171 0.26526 0.0
H302 H 0.42324 0.85566 0.25072 0.0
H303 H 0.32766 1.00049 0.16313 0.0
O304 O 1.03374 0.60945 0.2467 0.0
C305 C 0.08347 0.78306 0.16374 0.0
Co306 Co 0.44597 0.08643 0.54769 0.0
Co307 Co 0.48848 0.25113 0.51528 0.0
C308 C 0.59568 0.18691 0.49295 0.0
O309 O 0.54195 0.1207 0.50947 0.0
O310 O 0.59097 0.25291 0.49554 0.0
C311 C 0.53007 0.05574 0.5961 0.0
O312 O 0.57117 0.13735 0.59465 0.0
C313 C 0.55737 0.43295 0.50208 0.0
C314 C 0.44421 0.44079 0.4932 0.0
C315 C 0.52984 0.48966 0.4965 0.0
N316 N 0.49126 0.35484 0.50238 0.0
N317 N 0.4239 0.36042 0.49675 0.0
C318 C 0.64486 0.45336 0.5094 0.0
H319 H 0.64675 0.39834 0.51982 0.0
H320 H 0.6743 0.50437 0.52974 0.0
H321 H 0.68132 0.47493 0.48368 0.0
C322 C 0.43371 0.15691 0.61432 0.0
N323 N 0.44696 0.16408 0.57815 0.0
N324 N 0.48277 0.24161 0.5678 0.0
C325 C 0.49915 0.28827 0.59842 0.0
C326 C 0.47049 0.23501 0.62883 0.0
C327 C 0.38132 0.07639 0.6341 0.0
H328 H 0.34099 1.02666 0.61458 0.0
H329 H 0.42151 0.05747 0.6487 0.0
H330 H 0.34208 0.08398 0.65492 0.0
O331 O 0.33998 1.0324 0.52674 0.0
O332 O 0.38924 0.14323 0.49068 0.0
H333 H 0.50637 0.40305 0.58368 0.0
H334 H 0.55622 0.40623 0.62687 0.0
C335 C 0.54386 0.38115 0.59862 0.0
H336 H 0.60387 0.4051 0.58408 0.0
H337 H 0.36361 0.30949 0.49648 0.0
O338 O 0.46026 1.01538 0.58023 0.0
C339 C 0.33687 0.06533 0.49712 0.0
Co340 Co 0.39571 0.42796 0.88105 0.0
Co341 Co 0.27353 0.47047 0.84866 0.0
C342 C 0.44494 0.57767 0.82629 0.0
O343 O 0.45742 0.52393 0.84281 0.0
O344 O 0.37423 0.57297 0.8289 0.0
C345 C 0.51052 0.51206 0.92944 0.0
O346 O 0.47 0.55315 0.92799 0.0
C347 C 0.16061 0.53936 0.83546 0.0
C348 C 1.03961 0.42621 0.82653 0.0
C349 C 0.07636 0.51183 0.82984 0.0
N350 N 0.17261 0.47325 0.83575 0.0
N351 N 0.09966 0.40589 0.8301 0.0
C352 C 0.22768 0.62684 0.84279 0.0
H353 H 0.28457 0.62872 0.85322 0.0
H354 H 0.20607 0.65625 0.86313 0.0
H355 H 0.2426 0.66333 0.81707 0.0
C356 C 0.31298 0.41565 0.94768 0.0
N357 N 0.31905 0.42893 0.91152 0.0
N358 N 0.27733 0.46475 0.90118 0.0
C359 C 0.24707 0.48112 0.93182 0.0
C360 C 0.27168 0.45243 0.96222 0.0
C361 C 0.34111 0.36324 0.96745 0.0
H362 H 0.35049 0.32292 0.94791 0.0
H363 H 0.40023 0.4034 -0.01796 0.0
H364 H 0.2943 0.324 -0.01172 0.0
O365 O 0.34374 0.32196 0.86012 0.0
O366 O 0.28218 0.37123 0.82406 0.0
H367 H 0.13949 0.48834 0.91712 0.0
H368 H 0.18625 0.53821 0.96029 0.0
C369 C 0.19891 0.52584 0.93203 0.0
H370 H 0.23496 0.58584 0.91749 0.0
H371 H 0.09032 0.34561 0.82982 0.0
O372 O 0.48107 0.44226 0.91358 0.0
C373 C 0.3077 0.31885 0.8305 0.0
Co374 Co 1.004 0.37751 0.21433 0.0
Co375 Co 0.83932 0.25529 0.18199 0.0
C376 C 0.9036 0.42664 0.1595 0.0
O377 O 0.96981 0.43914 0.17602 0.0
O378 O 0.83757 0.35597 0.16216 0.0
C379 C 1.03451 0.49231 0.2627 0.0
O380 O 0.9529 0.45179 0.26117 0.0
C381 C 0.65752 0.14235 0.16878 0.0
C382 C 0.64969 1.02135 0.15989 0.0
C383 C 0.60081 0.0581 0.16318 0.0
N384 N 0.73563 0.15435 0.16909 0.0
N385 N 0.73005 0.08141 0.16346 0.0
C386 C 0.63711 0.20942 0.17609 0.0
H387 H 0.69212 0.26633 0.18651 0.0
H388 H 0.58608 0.18783 0.19643 0.0
H389 H 0.61555 0.22432 0.15037 0.0
C390 C 0.93356 0.29489 0.281 0.0
N391 N 0.92634 0.30091 0.24483 0.0
N392 N 0.8488 0.25917 0.23451 0.0
C393 C 0.80218 0.22894 0.26515 0.0
C394 C 0.85548 0.25359 0.29555 0.0
C395 C 1.01411 0.32305 0.30076 0.0
H396 H 0.06381 0.33241 0.28122 0.0
H397 H 1.03307 0.38219 0.31533 0.0
H398 H 1.00656 0.27626 0.3216 0.0
O399 O 0.05804 0.32547 0.19349 0.0
O400 O 0.94723 0.26387 0.15743 0.0
H401 H 0.68739 0.12129 0.2505 0.0
H402 H 0.68426 0.16814 0.29364 0.0
C403 C 0.7093 0.18075 0.26538 0.0
H404 H 0.68532 0.21674 0.2508 0.0
H405 H 0.78099 0.07207 0.16319 0.0
O406 O 0.07497 0.46297 0.24683 0.0
C407 C 1.02512 0.28939 0.16388 0.0
loop_
_geom_bond_atom_site_label_1
_geom_bond_atom_site_label_2
_geom_bond_distance
_geom_bond_site_symmetry_2
_ccdc_geom_bond_type
Co0 O3 1.970 . S
Co0 N17 1.989 . S
Co0 O25 1.967 . S
Co0 O32 1.920 1_455 S
Co1 O4 1.966 . S
Co1 N10 2.022 . S
Co1 N18 1.993 . S
Co1 O26 1.941 . S
C2 O3 1.258 . S
C2 O4 1.263 . S
O3 Co0 1.970 . S
O3 C2 1.258 . S
O4 Co1 1.966 . S
O4 C2 1.263 . S
C5 O6 1.235 1_655 S
C5 O32 1.289 . S
O6 C5 1.235 1_455 S
C7 C9 1.400 . S
C7 N10 1.351 . S
C7 C12 1.501 . S
C8 C9 1.387 . S
C8 N11 1.341 . S
C9 C7 1.400 . S
C9 C8 1.387 . S
N10 Co1 2.022 . S
N10 C7 1.351 . S
N10 N11 1.365 . S
N11 C8 1.341 . S
N11 N10 1.365 . S
N11 H31 0.862 . S
C12 C7 1.501 . S
C12 H13 0.961 . S
C12 H14 0.961 . S
C12 H15 0.960 . S
H13 C12 0.961 . S
H14 C12 0.961 . S
H15 C12 0.960 . S
C16 N17 1.342 . S
C16 C20 1.401 . S
C16 C21 1.499 . S
N17 Co0 1.989 . S
N17 C16 1.342 . S
N17 N18 1.388 . S
N18 Co1 1.993 . S
N18 N17 1.388 . S
N18 C19 1.346 . S
C19 N18 1.346 . S
C19 C20 1.396 . S
C19 C29 1.510 . S
C20 C16 1.401 . S
C20 C19 1.396 . S
C21 C16 1.499 . S
C21 H22 0.959 . S
C21 H23 0.958 . S
C21 H24 0.961 . S
H22 C21 0.959 . S
H23 C21 0.958 . S
H24 C21 0.961 . S
O25 Co0 1.967 . S
O25 C33 1.258 . S
O26 Co1 1.941 . S
O26 C33 1.266 . S
H27 C29 0.959 . S
H28 C29 0.961 . S
C29 C19 1.510 . S
C29 H27 0.959 . S
C29 H28 0.961 . S
C29 H30 0.960 . S
H30 C29 0.960 . S
H31 N11 0.862 . S
O32 Co0 1.920 1_655 S
O32 C5 1.289 . S
C33 O25 1.258 . S
C33 O26 1.266 . S
Co34 O37 1.970 . S
Co34 N51 1.989 . S
Co34 O59 1.967 . S
Co34 O66 1.920 1_545 S
Co35 O38 1.966 . S
Co35 N44 2.022 . S
Co35 N52 1.993 . S
Co35 O60 1.941 . S
C36 O37 1.258 . S
C36 O38 1.263 . S
O37 Co34 1.970 . S
O37 C36 1.258 . S
O38 Co35 1.966 . S
O38 C36 1.263 . S
C39 O40 1.235 1_565 S
C39 O66 1.289 . S
O40 C39 1.235 1_545 S
C41 C43 1.400 1_655 S
C41 N44 1.351 . S
C41 C46 1.501 . S
C42 C43 1.387 . S
C42 N45 1.341 1_455 S
C43 C41 1.400 1_455 S
C43 C42 1.387 . S
N44 Co35 2.022 . S
N44 C41 1.351 . S
N44 N45 1.365 . S
N45 C42 1.341 1_655 S
N45 N44 1.365 . S
N45 H65 0.862 . S
C46 C41 1.501 . S
C46 H47 0.961 . S
C46 H48 0.961 . S
C46 H49 0.960 . S
H47 C46 0.961 . S
H48 C46 0.961 . S
H49 C46 0.960 . S
C50 N51 1.342 . S
C50 C54 1.401 . S
C50 C55 1.499 . S
N51 Co34 1.989 . S
N51 C50 1.342 . S
N51 N52 1.388 . S
N52 Co35 1.993 . S
N52 N51 1.388 . S
N52 C53 1.346 . S
C53 N52 1.346 . S
C53 C54 1.396 . S
C53 C63 1.510 . S
C54 C50 1.401 . S
C54 C53 1.396 . S
C55 C50 1.499 . S
C55 H56 0.959 . S
C55 H57 0.960 . S
C55 H58 0.961 . S
H56 C55 0.959 . S
H57 C55 0.960 . S
H58 C55 0.961 . S
O59 Co34 1.967 . S
O59 C67 1.258 . S
O60 Co35 1.941 . S
O60 C67 1.266 . S
H61 C63 0.959 . S
H62 C63 0.961 . S
C63 C53 1.510 . S
C63 H61 0.959 . S
C63 H62 0.961 . S
C63 H64 0.960 . S
H64 C63 0.960 . S
H65 N45 0.862 . S
O66 Co34 1.920 1_565 S
O66 C39 1.289 . S
C67 O59 1.258 . S
C67 O60 1.266 . S
Co68 O71 1.970 . S
Co68 N85 1.989 . S
Co68 O93 1.967 . S
Co68 O100 1.920 . S
Co69 O72 1.966 . S
Co69 N78 2.022 . S
Co69 N86 1.993 . S
Co69 O94 1.941 . S
C70 O71 1.258 . S
C70 O72 1.263 . S
O71 Co68 1.970 . S
O71 C70 1.258 . S
O72 Co69 1.966 . S
O72 C70 1.263 . S
C73 O74 1.235 . S
C73 O100 1.289 . S
O74 C73 1.235 . S
C75 C77 1.400 1_565 S
C75 N78 1.351 . S
C75 C80 1.501 . S
C76 C77 1.387 . S
C76 N79 1.341 1_545 S
C77 C75 1.400 1_545 S
C77 C76 1.387 . S
N78 Co69 2.022 . S
N78 C75 1.351 . S
N78 N79 1.365 . S
N79 C76 1.341 1_565 S
N79 N78 1.365 . S
N79 H99 0.862 . S
C80 C75 1.501 . S
C80 H81 0.961 . S
C80 H82 0.961 . S
C80 H83 0.960 . S
H81 C80 0.961 . S
H82 C80 0.961 . S
H83 C80 0.960 . S
C84 N85 1.342 . S
C84 C88 1.401 . S
C84 C89 1.499 . S
N85 Co68 1.989 . S
N85 C84 1.342 . S
N85 N86 1.388 . S
N86 Co69 1.993 . S
N86 N85 1.388 . S
N86 C87 1.346 . S
C87 N86 1.346 . S
C87 C88 1.396 . S
C87 C97 1.510 . S
C88 C84 1.401 . S
C88 C87 1.396 . S
C89 C84 1.499 . S
C89 H90 0.959 . S
C89 H91 0.960 . S
C89 H92 0.961 . S
H90 C89 0.959 . S
H91 C89 0.960 . S
H92 C89 0.961 . S
O93 Co68 1.967 . S
O93 C101 1.258 . S
O94 Co69 1.941 . S
O94 C101 1.266 . S
H95 C97 0.959 . S
H96 C97 0.961 . S
C97 C87 1.510 . S
C97 H95 0.959 . S
C97 H96 0.961 . S
C97 H98 0.960 . S
H98 C97 0.960 . S
H99 N79 0.862 . S
O100 Co68 1.920 . S
O100 C73 1.289 . S
C101 O93 1.258 . S
C101 O94 1.266 . S
Co102 O105 1.970 . S
Co102 N119 1.989 . S
Co102 O127 1.967 . S
Co102 O134 1.920 1_655 S
Co103 O106 1.966 . S
Co103 N112 2.022 . S
Co103 N120 1.993 . S
Co103 O128 1.941 . S
C104 O105 1.258 . S
C104 O106 1.263 . S
O105 Co102 1.970 . S
O105 C104 1.258 . S
O106 Co103 1.966 . S
O106 C104 1.263 . S
C107 O108 1.235 1_455 S
C107 O134 1.289 . S
O108 C107 1.235 1_655 S
C109 C111 1.400 . S
C109 N112 1.351 . S
C109 C114 1.501 . S
C110 C111 1.387 . S
C110 N113 1.341 . S
C111 C109 1.400 . S
C111 C110 1.387 . S
N112 Co103 2.022 . S
N112 C109 1.351 . S
N112 N113 1.365 . S
N113 C110 1.341 . S
N113 N112 1.365 . S
N113 H133 0.862 . S
C114 C109 1.501 . S
C114 H115 0.961 . S
C114 H116 0.961 . S
C114 H117 0.960 . S
H115 C114 0.961 . S
H116 C114 0.961 . S
H117 C114 0.960 . S
C118 N119 1.342 . S
C118 C122 1.401 . S
C118 C123 1.499 . S
N119 Co102 1.989 . S
N119 C118 1.342 . S
N119 N120 1.388 . S
N120 Co103 1.993 . S
N120 N119 1.388 . S
N120 C121 1.346 . S
C121 N120 1.346 . S
C121 C122 1.396 . S
C121 C131 1.510 . S
C122 C118 1.401 . S
C122 C121 1.396 . S
C123 C118 1.499 . S
C123 H124 0.959 . S
C123 H125 0.959 . S
C123 H126 0.961 . S
H124 C123 0.959 . S
H125 C123 0.959 . S
H126 C123 0.961 . S
O127 Co102 1.967 . S
O127 C135 1.258 . S
O128 Co103 1.941 . S
O128 C135 1.266 . S
H129 C131 0.959 . S
H130 C131 0.961 . S
C131 C121 1.510 . S
C131 H129 0.959 . S
C131 H130 0.961 . S
C131 H132 0.960 . S
H132 C131 0.960 . S
H133 N113 0.862 . S
O134 Co102 1.920 1_455 S
O134 C107 1.289 . S
C135 O127 1.258 . S
C135 O128 1.266 . S
Co136 O139 1.970 . S
Co136 N153 1.989 . S
Co136 O161 1.967 . S
Co136 O168 1.920 1_565 S
Co137 O140 1.966 . S
Co137 N146 2.022 . S
Co137 N154 1.993 . S
Co137 O162 1.941 . S
C138 O139 1.258 . S
C138 O140 1.263 . S
O139 Co136 1.970 . S
O139 C138 1.258 . S
O140 Co137 1.966 . S
O140 C138 1.263 . S
C141 O142 1.235 1_545 S
C141 O168 1.289 . S
O142 C141 1.235 1_565 S
C143 C145 1.400 1_455 S
C143 N146 1.351 . S
C143 C148 1.501 . S
C144 C145 1.387 . S
C144 N147 1.341 1_655 S
C145 C143 1.400 1_655 S
C145 C144 1.387 . S
N146 Co137 2.022 . S
N146 C143 1.351 . S
N146 N147 1.365 . S
N147 C144 1.341 1_455 S
N147 N146 1.365 . S
N147 H167 0.862 . S
C148 C143 1.501 . S
C148 H149 0.961 . S
C148 H150 0.961 . S
C148 H151 0.960 . S
H149 C148 0.961 . S
H150 C148 0.961 . S
H151 C148 0.960 . S
C152 N153 1.342 . S
C152 C156 1.401 . S
C152 C157 1.499 . S
N153 Co136 1.989 . S
N153 C152 1.342 . S
N153 N154 1.388 . S
N154 Co137 1.993 . S
N154 N153 1.388 . S
N154 C155 1.346 . S
C155 N154 1.346 . S
C155 C156 1.396 . S
C155 C165 1.510 . S
C156 C152 1.401 . S
C156 C155 1.396 . S
C157 C152 1.499 . S
C157 H158 0.959 . S
C157 H159 0.960 . S
C157 H160 0.961 . S
H158 C157 0.959 . S
H159 C157 0.960 . S
H160 C157 0.961 . S
O161 Co136 1.967 . S
O161 C169 1.258 . S
O162 Co137 1.941 . S
O162 C169 1.266 . S
H163 C165 0.959 . S
H164 C165 0.961 . S
C165 C155 1.510 . S
C165 H163 0.959 . S
C165 H164 0.961 . S
C165 H166 0.960 . S
H166 C165 0.960 . S
H167 N147 0.862 . S
O168 Co136 1.920 1_545 S
O168 C141 1.289 . S
C169 O161 1.258 . S
C169 O162 1.266 . S
Co170 O173 1.970 . S
Co170 N187 1.989 . S
Co170 O195 1.967 . S
Co170 O202 1.920 . S
Co171 O174 1.966 . S
Co171 N180 2.022 . S
Co171 N188 1.993 . S
Co171 O196 1.941 . S
C172 O173 1.258 . S
C172 O174 1.263 . S
O173 Co170 1.970 . S
O173 C172 1.258 . S
O174 Co171 1.966 . S
O174 C172 1.263 . S
C175 O176 1.235 . S
C175 O202 1.289 . S
O176 C175 1.235 . S
C177 C179 1.400 1_545 S
C177 N180 1.351 . S
C177 C182 1.501 . S
C178 C179 1.387 . S
C178 N181 1.341 1_565 S
C179 C177 1.400 1_565 S
C179 C178 1.387 . S
N180 Co171 2.022 . S
N180 C177 1.351 . S
N180 N181 1.365 . S
N181 C178 1.341 1_545 S
N181 N180 1.365 . S
N181 H201 0.862 . S
C182 C177 1.501 . S
C182 H183 0.961 . S
C182 H184 0.961 . S
C182 H185 0.960 . S
H183 C182 0.961 . S
H184 C182 0.961 . S
H185 C182 0.960 . S
C186 N187 1.342 . S
C186 C190 1.401 . S
C186 C191 1.499 . S
N187 Co170 1.989 . S
N187 C186 1.342 . S
N187 N188 1.388 . S
N188 Co171 1.993 . S
N188 N187 1.388 . S
N188 C189 1.346 . S
C189 N188 1.346 . S
C189 C190 1.396 . S
C189 C199 1.510 . S
C190 C186 1.401 . S
C190 C189 1.396 . S
C191 C186 1.499 . S
C191 H192 0.959 . S
C191 H193 0.960 . S
C191 H194 0.961 . S
H192 C191 0.959 . S
H193 C191 0.960 . S
H194 C191 0.961 . S
O195 Co170 1.967 . S
O195 C203 1.258 . S
O196 Co171 1.941 . S
O196 C203 1.266 . S
H197 C199 0.959 . S
H198 C199 0.961 . S
C199 C189 1.510 . S
C199 H197 0.959 . S
C199 H198 0.961 . S
C199 H200 0.960 . S
H200 C199 0.960 . S
H201 N181 0.862 . S
O202 Co170 1.920 . S
O202 C175 1.289 . S
C203 O195 1.258 . S
C203 O196 1.266 . S
Co204 O207 1.970 . S
Co204 N221 1.989 . S
Co204 O229 1.967 . S
Co204 O236 1.920 1_565 S
Co205 O208 1.966 . S
Co205 N214 2.022 . S
Co205 N222 1.993 . S
Co205 O230 1.941 . S
C206 O207 1.258 . S
C206 O208 1.263 . S
O207 Co204 1.970 . S
O207 C206 1.258 . S
O208 Co205 1.966 . S
O208 C206 1.263 . S
C209 O210 1.235 1_545 S
C209 O236 1.289 . S
O210 C209 1.235 1_565 S
C211 C213 1.400 . S
C211 N214 1.351 . S
C211 C216 1.501 . S
C212 C213 1.387 . S
C212 N215 1.341 . S
C213 C211 1.400 . S
C213 C212 1.387 . S
N214 Co205 2.022 . S
N214 C211 1.351 . S
N214 N215 1.365 . S
N215 C212 1.341 . S
N215 N214 1.365 . S
N215 H235 0.862 . S
C216 C211 1.501 . S
C216 H217 0.961 . S
C216 H218 0.961 . S
C216 H219 0.960 . S
H217 C216 0.961 . S
H218 C216 0.961 . S
H219 C216 0.960 . S
C220 N221 1.342 . S
C220 C224 1.401 . S
C220 C225 1.499 . S
N221 Co204 1.989 . S
N221 C220 1.342 . S
N221 N222 1.388 . S
N222 Co205 1.993 . S
N222 N221 1.388 . S
N222 C223 1.346 . S
C223 N222 1.346 . S
C223 C224 1.396 . S
C223 C233 1.510 . S
C224 C220 1.401 . S
C224 C223 1.396 . S
C225 C220 1.499 . S
C225 H226 0.959 . S
C225 H227 0.960 . S
C225 H228 0.961 . S
H226 C225 0.959 . S
H227 C225 0.960 . S
H228 C225 0.961 . S
O229 Co204 1.967 . S
O229 C237 1.258 . S
O230 Co205 1.941 . S
O230 C237 1.266 . S
H231 C233 0.959 . S
H232 C233 0.961 . S
C233 C223 1.510 . S
C233 H231 0.959 . S
C233 H232 0.961 . S
C233 H234 0.960 . S
H234 C233 0.960 . S
H235 N215 0.862 . S
O236 Co204 1.920 1_545 S
O236 C209 1.289 . S
C237 O229 1.258 . S
C237 O230 1.266 . S
Co238 O241 1.970 . S
Co238 N255 1.989 . S
Co238 O263 1.967 . S
Co238 O270 1.920 . S
Co239 O242 1.966 . S
Co239 N248 2.022 . S
Co239 N256 1.993 . S
Co239 O264 1.941 . S
C240 O241 1.258 . S
C240 O242 1.263 . S
O241 Co238 1.970 . S
O241 C240 1.258 . S
O242 Co239 1.966 . S
O242 C240 1.263 . S
C243 O244 1.235 . S
C243 O270 1.289 . S
O244 C243 1.235 . S
C245 C247 1.400 1_655 S
C245 N248 1.351 . S
C245 C250 1.501 . S
C246 C247 1.387 . S
C246 N249 1.341 1_455 S
C247 C245 1.400 1_455 S
C247 C246 1.387 . S
N248 Co239 2.022 . S
N248 C245 1.351 . S
N248 N249 1.365 . S
N249 C246 1.341 1_655 S
N249 N248 1.365 . S
N249 H269 0.862 . S
C250 C245 1.501 . S
C250 H251 0.961 . S
C250 H252 0.961 . S
C250 H253 0.960 . S
H251 C250 0.961 . S
H252 C250 0.961 . S
H253 C250 0.960 . S
C254 N255 1.342 . S
C254 C258 1.401 . S
C254 C259 1.499 . S
N255 Co238 1.989 . S
N255 C254 1.342 . S
N255 N256 1.388 . S
N256 Co239 1.993 . S
N256 N255 1.388 . S
N256 C257 1.346 . S
C257 N256 1.346 . S
C257 C258 1.396 . S
C257 C267 1.510 . S
C258 C254 1.401 . S
C258 C257 1.396 . S
C259 C254 1.499 . S
C259 H260 0.959 . S
C259 H261 0.959 . S
C259 H262 0.961 . S
H260 C259 0.959 . S
H261 C259 0.959 . S
H262 C259 0.961 . S
O263 Co238 1.967 . S
O263 C271 1.258 . S
O264 Co239 1.941 . S
O264 C271 1.266 . S
H265 C267 0.959 . S
H266 C267 0.961 . S
C267 C257 1.510 . S
C267 H265 0.959 . S
C267 H266 0.961 . S
C267 H268 0.960 . S
H268 C267 0.960 . S
H269 N249 0.862 . S
O270 Co238 1.920 . S
O270 C243 1.289 . S
C271 O263 1.258 . S
C271 O264 1.266 . S
Co272 O275 1.970 . S
Co272 N289 1.989 . S
Co272 O297 1.967 . S
Co272 O304 1.920 1_455 S
Co273 O276 1.966 . S
Co273 N282 2.022 . S
Co273 N290 1.993 . S
Co273 O298 1.941 . S
C274 O275 1.258 . S
C274 O276 1.263 . S
O275 Co272 1.970 . S
O275 C274 1.258 . S
O276 Co273 1.966 . S
O276 C274 1.263 . S
C277 O278 1.235 1_655 S
C277 O304 1.289 . S
O278 C277 1.235 1_455 S
C279 C281 1.400 1_565 S
C279 N282 1.351 . S
C279 C284 1.501 . S
C280 C281 1.387 . S
C280 N283 1.341 1_545 S
C281 C279 1.400 1_545 S
C281 C280 1.387 . S
N282 Co273 2.022 . S
N282 C279 1.351 . S
N282 N283 1.365 . S
N283 C280 1.341 1_565 S
N283 N282 1.365 . S
N283 H303 0.862 . S
C284 C279 1.501 . S
C284 H285 0.961 . S
C284 H286 0.961 . S
C284 H287 0.960 . S
H285 C284 0.961 . S
H286 C284 0.961 . S
H287 C284 0.960 . S
C288 N289 1.342 . S
C288 C292 1.401 . S
C288 C293 1.499 . S
N289 Co272 1.989 . S
N289 C288 1.342 . S
N289 N290 1.388 . S
N290 Co273 1.993 . S
N290 N289 1.388 . S
N290 C291 1.346 . S
C291 N290 1.346 . S
C291 C292 1.396 . S
C291 C301 1.510 . S
C292 C288 1.401 . S
C292 C291 1.396 . S
C293 C288 1.499 . S
C293 H294 0.959 . S
C293 H295 0.960 . S
C293 H296 0.961 . S
H294 C293 0.959 . S
H295 C293 0.960 . S
H296 C293 0.961 . S
O297 Co272 1.967 . S
O297 C305 1.258 . S
O298 Co273 1.941 . S
O298 C305 1.266 . S
H299 C301 0.959 . S
H300 C301 0.961 . S
C301 C291 1.510 . S
C301 H299 0.959 . S
C301 H300 0.961 . S
C301 H302 0.960 . S
H302 C301 0.960 . S
H303 N283 0.862 . S
O304 Co272 1.920 1_655 S
O304 C277 1.289 . S
C305 O297 1.258 . S
C305 O298 1.266 . S
Co306 O309 1.970 . S
Co306 N323 1.989 . S
Co306 O331 1.967 . S
Co306 O338 1.920 1_545 S
Co307 O310 1.966 . S
Co307 N316 2.022 . S
Co307 N324 1.993 . S
Co307 O332 1.941 . S
C308 O309 1.258 . S
C308 O310 1.263 . S
O309 Co306 1.970 . S
O309 C308 1.258 . S
O310 Co307 1.966 . S
O310 C308 1.263 . S
C311 O312 1.235 1_565 S
C311 O338 1.289 . S
O312 C311 1.235 1_545 S
C313 C315 1.400 . S
C313 N316 1.351 . S
C313 C318 1.501 . S
C314 C315 1.387 . S
C314 N317 1.341 . S
C315 C313 1.400 . S
C315 C314 1.387 . S
N316 Co307 2.022 . S
N316 C313 1.351 . S
N316 N317 1.365 . S
N317 C314 1.341 . S
N317 N316 1.365 . S
N317 H337 0.862 . S
C318 C313 1.501 . S
C318 H319 0.961 . S
C318 H320 0.961 . S
C318 H321 0.960 . S
H319 C318 0.961 . S
H320 C318 0.961 . S
H321 C318 0.960 . S
C322 N323 1.342 . S
C322 C326 1.401 . S
C322 C327 1.499 . S
N323 Co306 1.989 . S
N323 C322 1.342 . S
N323 N324 1.388 . S
N324 Co307 1.993 . S
N324 N323 1.388 . S
N324 C325 1.346 . S
C325 N324 1.346 . S
C325 C326 1.396 . S
C325 C335 1.510 . S
C326 C322 1.401 . S
C326 C325 1.396 . S
C327 C322 1.499 . S
C327 H328 0.959 . S
C327 H329 0.960 . S
C327 H330 0.961 . S
H328 C327 0.959 . S
H329 C327 0.960 . S
H330 C327 0.961 . S
O331 Co306 1.967 . S
O331 C339 1.258 . S
O332 Co307 1.941 . S
O332 C339 1.266 . S
H333 C335 0.959 . S
H334 C335 0.961 . S
C335 C325 1.510 . S
C335 H333 0.959 . S
C335 H334 0.961 . S
C335 H336 0.960 . S
H336 C335 0.960 . S
H337 N317 0.862 . S
O338 Co306 1.920 1_565 S
O338 C311 1.289 . S
C339 O331 1.258 . S
C339 O332 1.266 . S
Co340 O343 1.970 . S
Co340 N357 1.989 . S
Co340 O365 1.967 . S
Co340 O372 1.920 . S
Co341 O344 1.966 . S
Co341 N350 2.022 . S
Co341 N358 1.993 . S
Co341 O366 1.941 . S
C342 O343 1.258 . S
C342 O344 1.263 . S
O343 Co340 1.970 . S
O343 C342 1.258 . S
O344 Co341 1.966 . S
O344 C342 1.263 . S
C345 O346 1.235 . S
C345 O372 1.289 . S
O346 C345 1.235 . S
C347 C349 1.400 1_455 S
C347 N350 1.351 . S
C347 C352 1.501 . S
C348 C349 1.387 . S
C348 N351 1.341 1_655 S
C349 C347 1.400 1_655 S
C349 C348 1.387 . S
N350 Co341 2.022 . S
N350 C347 1.351 . S
N350 N351 1.365 . S
N351 C348 1.341 1_455 S
N351 N350 1.365 . S
N351 H371 0.862 . S
C352 C347 1.501 . S
C352 H353 0.961 . S
C352 H354 0.961 . S
C352 H355 0.960 . S
H353 C352 0.961 . S
H354 C352 0.961 . S
H355 C352 0.960 . S
C356 N357 1.342 . S
C356 C360 1.401 . S
C356 C361 1.499 . S
N357 Co340 1.989 . S
N357 C356 1.342 . S
N357 N358 1.388 . S
N358 Co341 1.993 . S
N358 N357 1.388 . S
N358 C359 1.346 . S
C359 N358 1.346 . S
C359 C360 1.396 . S
C359 C369 1.510 . S
C360 C356 1.401 . S
C360 C359 1.396 . S
C361 C356 1.499 . S
C361 H362 0.959 . S
C361 H363 0.959 . S
C361 H364 0.961 . S
H362 C361 0.959 . S
H363 C361 0.959 . S
H364 C361 0.961 . S
O365 Co340 1.967 . S
O365 C373 1.258 . S
O366 Co341 1.941 . S
O366 C373 1.266 . S
H367 C369 0.959 . S
H368 C369 0.961 . S
C369 C359 1.510 . S
C369 H367 0.959 . S
C369 H368 0.961 . S
C369 H370 0.960 . S
H370 C369 0.960 . S
H371 N351 0.862 . S
O372 Co340 1.920 . S
O372 C345 1.289 . S
C373 O365 1.258 . S
C373 O366 1.266 . S
Co374 O377 1.970 . S
Co374 N391 1.989 . S
Co374 O399 1.967 . S
Co374 O406 1.920 1_655 S
Co375 O378 1.966 . S
Co375 N384 2.022 . S
Co375 N392 1.993 . S
Co375 O400 1.941 . S
C376 O377 1.258 . S
C376 O378 1.263 . S
O377 Co374 1.970 . S
O377 C376 1.258 . S
O378 Co375 1.966 . S
O378 C376 1.263 . S
C379 O380 1.235 1_455 S
C379 O406 1.289 . S
O380 C379 1.235 1_655 S
C381 C383 1.400 1_545 S
C381 N384 1.351 . S
C381 C386 1.501 . S
C382 C383 1.387 . S
C382 N385 1.341 1_565 S
C383 C381 1.400 1_565 S
C383 C382 1.387 . S
N384 Co375 2.022 . S
N384 C381 1.351 . S
N384 N385 1.365 . S
N385 C382 1.341 1_545 S
N385 N384 1.365 . S
N385 H405 0.862 . S
C386 C381 1.501 . S
C386 H387 0.961 . S
C386 H388 0.961 . S
C386 H389 0.960 . S
H387 C386 0.961 . S
H388 C386 0.961 . S
H389 C386 0.960 . S
C390 N391 1.342 . S
C390 C394 1.401 . S
C390 C395 1.499 . S
N391 Co374 1.989 . S
N391 C390 1.342 . S
N391 N392 1.388 . S
N392 Co375 1.993 . S
N392 N391 1.388 . S
N392 C393 1.346 . S
C393 N392 1.346 . S
C393 C394 1.396 . S
C393 C403 1.510 . S
C394 C390 1.401 . S
C394 C393 1.396 . S
C395 C390 1.499 . S
C395 H396 0.959 . S
C395 H397 0.960 . S
C395 H398 0.961 . S
H396 C395 0.959 . S
H397 C395 0.960 . S
H398 C395 0.961 . S
O399 Co374 1.967 . S
O399 C407 1.258 . S
O400 Co375 1.941 . S
O400 C407 1.266 . S
H401 C403 0.959 . S
H402 C403 0.961 . S
C403 C393 1.510 . S
C403 H401 0.959 . S
C403 H402 0.961 . S
C403 H404 0.960 . S
H404 C403 0.960 . S
H405 N385 0.862 . S
O406 Co374 1.920 1_455 S
O406 C379 1.289 . S
C407 O399 1.258 . S
C407 O400 1.266 . S
C111 C9 2.661 . S
C145 C43 2.660 1_655 S
C179 C77 2.661 1_565 S
C213 C315 2.661 . S
C247 C349 2.661 1_455 S
C281 C383 2.660 1_545 S
C107 C5 0.368 1_455 S
C39 C141 0.368 1_565 S
C175 C73 0.368 . S
C209 C311 0.368 1_545 S
C345 C243 0.368 . S
C277 C379 0.368 1_655 S
C274 C2 2.697 . S
C36 C308 2.697 . S
C70 C342 2.698 . S
C104 C376 2.697 . S
C138 C206 2.697 . S
C240 C172 2.698 . S
C360 C20 1.725 1_556 S
C394 C54 1.725 . S
C224 C88 1.725 . S
C258 C122 1.725 1_556 S
C156 C292 1.725 . S
C190 C326 1.725 . S
C407 C33 2.403 1_655 S
C237 C67 2.403 1_565 S
C101 C271 2.403 . S
C305 C135 2.403 1_455 S
C339 C169 2.403 1_545 S
C373 C203 2.403 . S
