# Generated by pormake.
# Topology zfy, (5)-cn, num edge types: 1
# Building blocks:
#     Node 0, Type 0, BuildingBlock: BEQFEK_clean_sbu_0, # of connection points: 5
#     Node 1, Type 0, BuildingBlock: BEQFEK_clean_sbu_0, # of connection points: 5
#     Node 2, Type 0, BuildingBlock: BEQFEK_clean_sbu_0, # of connection points: 5
#     Node 3, Type 0, BuildingBlock: BEQFEK_clean_sbu_0, # of connection points: 5
#     Node 4, Type 0, BuildingBlock: BEQFEK_clean_sbu_0, # of connection points: 5
#     Node 5, Type 0, BuildingBlock: BEQFEK_clean_sbu_0, # of connection points: 5
#     Node 6, Type 0, BuildingBlock: BEQFEK_clean_sbu_0, # of connection points: 5
#     Node 7, Type 0, BuildingBlock: BEQFEK_clean_sbu_0, # of connection points: 5
#     Node 8, Type 0, BuildingBlock: BEQFEK_clean_sbu_0, # of connection points: 5
#     Node 9, Type 0, BuildingBlock: BEQFEK_clean_sbu_0, # of connection points: 5
#     Node 10, Type 0, BuildingBlock: BEQFEK_clean_sbu_0, # of connection points: 5
#     Node 11, Type 0, BuildingBlock: BEQFEK_clean_sbu_0, # of connection points: 5
#     Node 12, Type 0, BuildingBlock: BEQFEK_clean_sbu_0, # of connection points: 5
#     Node 13, Type 0, BuildingBlock: BEQFEK_clean_sbu_0, # of connection points: 5
#     Node 14, Type 0, BuildingBlock: BEQFEK_clean_sbu_0, # of connection points: 5
#     Node 15, Type 0, BuildingBlock: BEQFEK_clean_sbu_0, # of connection points: 5
#     Edge 16, Type (0, 0), BuildingBlock: UVAHIK_clean_linker_0, # of connection points: 2
#     Edge 17, Type (0, 0), BuildingBlock: UVAHIK_clean_linker_0, # of connection points: 2
#     Edge 18, Type (0, 0), BuildingBlock: UVAHIK_clean_linker_0, # of connection points: 2
#     Edge 19, Type (0, 0), BuildingBlock: UVAHIK_clean_linker_0, # of connection points: 2
#     Edge 20, Type (0, 0), BuildingBlock: UVAHIK_clean_linker_0, # of connection points: 2
#     Edge 21, Type (0, 0), BuildingBlock: UVAHIK_clean_linker_0, # of connection points: 2
#     Edge 22, Type (0, 0), BuildingBlock: UVAHIK_clean_linker_0, # of connection points: 2
#     Edge 23, Type (0, 0), BuildingBlock: UVAHIK_clean_linker_0, # of connection points: 2
#     Edge 24, Type (0, 0), BuildingBlock: UVAHIK_clean_linker_0, # of connection points: 2
#     Edge 25, Type (0, 0), BuildingBlock: UVAHIK_clean_linker_0, # of connection points: 2
#     Edge 26, Type (0, 0), BuildingBlock: UVAHIK_clean_linker_0, # of connection points: 2
#     Edge 27, Type (0, 0), BuildingBlock: UVAHIK_clean_linker_0, # of connection points: 2
#     Edge 28, Type (0, 0), BuildingBlock: UVAHIK_clean_linker_0, # of connection points: 2
#     Edge 29, Type (0, 0), BuildingBlock: UVAHIK_clean_linker_0, # of connection points: 2
#     Edge 30, Type (0, 0), BuildingBlock: UVAHIK_clean_linker_0, # of connection points: 2
#     Edge 31, Type (0, 0), BuildingBlock: UVAHIK_clean_linker_0, # of connection points: 2
#     Edge 32, Type (0, 0), BuildingBlock: UVAHIK_clean_linker_0, # of connection points: 2
#     Edge 33, Type (0, 0), BuildingBlock: UVAHIK_clean_linker_0, # of connection points: 2
#     Edge 34, Type (0, 0), BuildingBlock: UVAHIK_clean_linker_0, # of connection points: 2
#     Edge 35, Type (0, 0), BuildingBlock: UVAHIK_clean_linker_0, # of connection points: 2
#     Edge 36, Type (0, 0), BuildingBlock: UVAHIK_clean_linker_0, # of connection points: 2
#     Edge 37, Type (0, 0), BuildingBlock: UVAHIK_clean_linker_0, # of connection points: 2
#     Edge 38, Type (0, 0), BuildingBlock: UVAHIK_clean_linker_0, # of connection points: 2
#     Edge 39, Type (0, 0), BuildingBlock: UVAHIK_clean_linker_0, # of connection points: 2
#     Edge 40, Type (0, 0), BuildingBlock: UVAHIK_clean_linker_0, # of connection points: 2
#     Edge 41, Type (0, 0), BuildingBlock: UVAHIK_clean_linker_0, # of connection points: 2
#     Edge 42, Type (0, 0), BuildingBlock: UVAHIK_clean_linker_0, # of connection points: 2
#     Edge 43, Type (0, 0), BuildingBlock: UVAHIK_clean_linker_0, # of connection points: 2
#     Edge 44, Type (0, 0), BuildingBlock: UVAHIK_clean_linker_0, # of connection points: 2
#     Edge 45, Type (0, 0), BuildingBlock: UVAHIK_clean_linker_0, # of connection points: 2
#     Edge 46, Type (0, 0), BuildingBlock: UVAHIK_clean_linker_0, # of connection points: 2
#     Edge 47, Type (0, 0), BuildingBlock: UVAHIK_clean_linker_0, # of connection points: 2
#     Edge 48, Type (0, 0), BuildingBlock: UVAHIK_clean_linker_0, # of connection points: 2
#     Edge 49, Type (0, 0), BuildingBlock: UVAHIK_clean_linker_0, # of connection points: 2
#     Edge 50, Type (0, 0), BuildingBlock: UVAHIK_clean_linker_0, # of connection points: 2
#     Edge 51, Type (0, 0), BuildingBlock: UVAHIK_clean_linker_0, # of connection points: 2
#     Edge 52, Type (0, 0), BuildingBlock: UVAHIK_clean_linker_0, # of connection points: 2
#     Edge 53, Type (0, 0), BuildingBlock: UVAHIK_clean_linker_0, # of connection points: 2
#     Edge 54, Type (0, 0), BuildingBlock: UVAHIK_clean_linker_0, # of connection points: 2
#     Edge 55, Type (0, 0), BuildingBlock: UVAHIK_clean_linker_0, # of connection points: 2
# Relax obj value: 0.201
# Max RMSD: 0.146
# Mean RMSD: 0.146
data_MOF--net-zfy--node1-BEQFEK_clean_sbu_0--edge1-UVAHIK_clean_linker_0
_symmetry_space_group_name_H-M    P1
_symmetry_Int_Tables_number       1
_symmetry_cell_setting            triclinic
loop_
_symmetry_equiv_pos_as_xyz
'x, y, z'
_cell_length_a     70.407081
_cell_length_b     70.372908
_cell_length_c     34.903671
_cell_angle_alpha  89.972387
_cell_angle_beta   90.00681
_cell_angle_gamma 90.026195
loop_
_atom_site_label
_atom_site_type_symbol
_atom_site_fract_x
_atom_site_fract_y
_atom_site_fract_z
_atom_type_partial_charge
Co0 Co 0.31603 0.16414 0.08406 0.0
Co1 Co 0.31082 0.19711 0.02432 0.0
C2 C 0.30412 0.20311 0.10856 0.0
O3 O 0.3088 0.18607 0.11629 0.0
O4 O 0.30445 0.20927 0.07425 0.0
C5 C 0.33666 0.14462 0.14238 0.0
O6 O 0.34597 0.16077 0.14448 0.0
C7 C 0.32125 0.23286 0.98554 0.0
C8 C 0.30803 0.22897 0.92869 0.0
C9 C 0.31959 0.24113 0.94948 0.0
N10 N 0.31157 0.21635 0.98552 0.0
N11 N 0.30345 0.21429 0.95165 0.0
C12 C 0.33164 0.24049 0.01967 0.0
H13 H 0.32434 0.23624 0.04644 0.0
H14 H 0.3462 0.2345 0.0205 0.0
H15 H 0.33263 0.25622 0.01838 0.0
C16 C 0.35176 0.15912 0.04031 0.0
N17 N 0.33623 0.16938 0.04952 0.0
N18 N 0.3343 0.18339 0.02477 0.0
C19 C 0.34873 0.18254 0.99926 0.0
C20 C 0.3603 0.16721 0.00844 0.0
C21 C 0.35636 0.14004 0.05701 0.0
H22 H 0.34312 0.13218 0.06357 0.0
H23 H 0.36458 0.14203 0.08379 0.0
H24 H 0.365 0.13133 0.03708 0.0
O25 O 0.29367 0.15601 0.05436 0.0
O26 O 0.28988 0.17911 0.01151 0.0
H27 H 0.33782 0.19375 0.94665 0.0
H28 H 0.36345 0.19184 0.94785 0.0
C29 C 0.35062 0.19518 0.96496 0.0
H30 H 0.35177 0.21011 0.97444 0.0
H31 H 0.29528 0.20255 0.94378 0.0
O32 O 0.32299 0.14307 0.11882 0.0
C33 C 0.28477 0.1633 0.02617 0.0
Co34 Co 0.5862 0.56905 0.32863 0.0
Co35 Co 0.55298 0.56119 0.27075 0.0
C36 C 0.54889 0.55431 0.35595 0.0
O37 O 0.56566 0.56015 0.36285 0.0
O38 O 0.54227 0.55426 0.32194 0.0
C39 C 0.61906 0.56827 0.37906 0.0
O40 O 0.61656 0.54978 0.38013 0.0
C41 C 0.51669 0.57082 0.23429 0.0
C42 C 0.5192 0.55646 0.17828 0.0
C43 C 0.5077 0.56869 0.19905 0.0
N44 N 0.53296 0.5608 0.23374 0.0
N45 N 0.5342 0.55198 0.20043 0.0
C46 C 0.51007 0.58203 0.26821 0.0
H47 H 0.5148 0.57514 0.29511 0.0
H48 H 0.51639 0.59646 0.26735 0.0
H49 H 0.49436 0.58334 0.26827 0.0
C50 C 0.58704 0.60538 0.28693 0.0
N51 N 0.57843 0.58878 0.2952 0.0
N52 N 0.56505 0.58548 0.26977 0.0
C53 C 0.56501 0.59981 0.24392 0.0
C54 C 0.57886 0.61296 0.25414 0.0
C55 C 0.60473 0.61214 0.30645 0.0
H56 H 0.61589 0.60109 0.30385 0.0
H57 H 0.60169 0.61431 0.33732 0.0
H58 H 0.61024 0.62555 0.2941 0.0
O59 O 0.59547 0.54723 0.29802 0.0
O60 O 0.57198 0.54149 0.25695 0.0
H61 H 0.55472 0.58638 0.19286 0.0
H62 H 0.55712 0.61192 0.18886 0.0
C63 C 0.55319 0.60008 0.20824 0.0
H64 H 0.53809 0.60196 0.21604 0.0
H65 H 0.54566 0.5435 0.19225 0.0
O66 O 0.60756 0.57851 0.36009 0.0
C67 C 0.58836 0.53764 0.27054 0.0
Co68 Co 0.18336 0.83715 0.57761 0.0
Co69 Co 0.19111 0.80545 0.51632 0.0
C70 C 0.19684 0.79886 0.6014 0.0
O71 O 0.19141 0.81561 0.60979 0.0
O72 O 0.19704 0.79308 0.56673 0.0
C73 C 0.18438 0.87054 0.62666 0.0
O74 O 0.20295 0.86935 0.62383 0.0
C75 C 0.18005 0.77108 0.47465 0.0
C76 C 0.1964 0.77386 0.42095 0.0
C77 C 0.18278 0.76277 0.43896 0.0
N78 N 0.19139 0.7864 0.47732 0.0
N79 N 0.20138 0.78779 0.44539 0.0
C80 C 0.16543 0.76597 0.50401 0.0
H81 H 0.1632 0.77791 0.52428 0.0
H82 H 0.15181 0.76218 0.48992 0.0
H83 H 0.17042 0.75344 0.52047 0.0
C84 C 0.14732 0.83952 0.53558 0.0
N85 N 0.16378 0.83053 0.54299 0.0
N86 N 0.16726 0.81827 0.51549 0.0
C87 C 0.15337 0.81961 0.48885 0.0
C88 C 0.14025 0.83315 0.50077 0.0
C89 C 0.13907 0.85472 0.56047 0.0
H90 H 0.13972 0.85014 0.59085 0.0
H91 H 0.12406 0.85771 0.55289 0.0
H92 H 0.14755 0.86792 0.55724 0.0
O93 O 0.20577 0.84666 0.54871 0.0
O94 O 0.21145 0.82417 0.50545 0.0
H95 H 0.14534 0.8183 0.42894 0.0
H96 H 0.14925 0.79577 0.45193 0.0
C97 C 0.15433 0.81065 0.44999 0.0
H98 H 0.16918 0.81059 0.43953 0.0
H99 H 0.21093 0.79876 0.43957 0.0
O100 O 0.17406 0.85809 0.61048 0.0
C101 C 0.21553 0.84007 0.52095 0.0
Co102 Co 0.91236 0.43202 0.82986 0.0
Co103 Co 0.94513 0.43957 0.77079 0.0
C104 C 0.95 0.44688 0.85556 0.0
O105 O 0.93326 0.44116 0.86318 0.0
O106 O 0.95632 0.44667 0.82134 0.0
C107 C 0.87854 0.43286 0.87745 0.0
O108 O 0.87928 0.45139 0.87318 0.0
C109 C 0.98116 0.42996 0.73345 0.0
C110 C 0.97834 0.4443 0.67745 0.0
C111 C 0.99001 0.43217 0.6981 0.0
N112 N 0.96483 0.43986 0.73313 0.0
N113 N 0.96338 0.44866 0.69981 0.0
C114 C 0.98802 0.41879 0.76727 0.0
H115 H 0.98324 0.42556 0.79426 0.0
H116 H 0.98191 0.40428 0.76636 0.0
H117 H 0.00374 0.41771 0.76721 0.0
C118 C 0.91097 0.39562 0.78843 0.0
N119 N 0.9198 0.41214 0.79646 0.0
N120 N 0.93301 0.41533 0.7706 0.0
C121 C 0.93273 0.40101 0.74478 0.0
C122 C 0.91883 0.38798 0.75539 0.0
C123 C 0.89337 0.389 0.80846 0.0
H124 H 0.88231 0.40018 0.80645 0.0
H125 H 0.89666 0.38665 0.83917 0.0
H126 H 0.88761 0.37569 0.79609 0.0
O127 O 0.90278 0.45371 0.79906 0.0
O128 O 0.92606 0.45924 0.75738 0.0
H129 H 0.94245 0.41433 0.69315 0.0
H130 H 0.94021 0.38876 0.68964 0.0
C131 C 0.94423 0.4007 0.70868 0.0
H132 H 0.95941 0.39897 0.71596 0.0
H133 H 0.95185 0.45709 0.69183 0.0
O134 O 0.8914 0.42258 0.86253 0.0
C135 C 0.90976 0.46317 0.77125 0.0
Co136 Co 0.68705 0.83583 0.92249 0.0
Co137 Co 0.69251 0.80272 0.98173 0.0
C138 C 0.69678 0.79649 0.89683 0.0
O139 O 0.69295 0.8138 0.88967 0.0
O140 O 0.69662 0.79016 0.93107 0.0
C141 C 0.66912 0.85593 0.86094 0.0
O142 O 0.66176 0.83921 0.85309 0.0
C143 C 0.67961 0.76885 0.02302 0.0
C144 C 0.69656 0.7703 0.0762 0.0
C145 C 0.68216 0.76016 0.0584 0.0
N146 N 0.69179 0.7835 0.02033 0.0
N147 N 0.70213 0.78408 0.05191 0.0
C148 C 0.66449 0.76479 0.99404 0.0
H149 H 0.66262 0.77708 0.97445 0.0
H150 H 0.65084 0.76145 0.00849 0.0
H151 H 0.66874 0.75225 0.97679 0.0
C152 C 0.65192 0.8414 0.96742 0.0
N153 N 0.66729 0.83097 0.9581 0.0
N154 N 0.66991 0.81779 0.98434 0.0
C155 C 0.65648 0.81977 0.01175 0.0
C156 C 0.64461 0.83477 0.00185 0.0
C157 C 0.6449 0.85798 0.94456 0.0
H158 H 0.65607 0.86908 0.94325 0.0
H159 H 0.64173 0.85321 0.91504 0.0
H160 H 0.6317 0.86413 0.95664 0.0
O161 O 0.71033 0.84305 0.95077 0.0
O162 O 0.71486 0.81914 0.99153 0.0
H163 H 0.67169 0.80853 0.05995 0.0
H164 H 0.64837 0.81732 0.0715 0.0
C165 C 0.65688 0.80972 0.04958 0.0
H166 H 0.65093 0.79525 0.04608 0.0
H167 H 0.71237 0.79442 0.05762 0.0
O168 O 0.68037 0.85757 0.88919 0.0
C169 C 0.71996 0.83497 0.97704 0.0
Co170 Co 0.41432 0.43242 0.67254 0.0
Co171 Co 0.44664 0.44052 0.73224 0.0
C172 C 0.45263 0.44602 0.64746 0.0
O173 O 0.43577 0.44065 0.63987 0.0
O174 O 0.4588 0.44622 0.68181 0.0
C175 C 0.38138 0.43332 0.623 0.0
O176 O 0.38282 0.45189 0.6258 0.0
C177 C 0.48179 0.43135 0.77314 0.0
C178 C 0.47741 0.44595 0.82843 0.0
C179 C 0.48962 0.43371 0.80939 0.0
N180 N 0.46562 0.44146 0.77125 0.0
N181 N 0.4633 0.45049 0.80409 0.0
C182 C 0.4881 0.41789 0.74249 0.0
H183 H 0.47637 0.41513 0.72197 0.0
H184 H 0.493 0.4043 0.75528 0.0
H185 H 0.50016 0.4243 0.72663 0.0
C186 C 0.41208 0.39668 0.71601 0.0
N187 N 0.42108 0.41305 0.70757 0.0
N188 N 0.43407 0.41647 0.73376 0.0
C189 C 0.43346 0.40245 0.76022 0.0
C190 C 0.41959 0.38938 0.74968 0.0
C191 C 0.39471 0.38984 0.69546 0.0
H192 H 0.38361 0.401 0.6966 0.0
H193 H 0.39831 0.38726 0.66496 0.0
H194 H 0.38891 0.3766 0.70806 0.0
O195 O 0.40469 0.45474 0.7011 0.0
O196 O 0.42782 0.46087 0.7427 0.0
H197 H 0.44332 0.4162 0.81126 0.0
H198 H 0.44026 0.39079 0.81622 0.0
C199 C 0.44476 0.40231 0.79657 0.0
H200 H 0.45992 0.40001 0.78964 0.0
H201 H 0.45157 0.45895 0.81059 0.0
O202 O 0.39359 0.42286 0.63952 0.0
C203 C 0.41167 0.46473 0.72811 0.0
Co204 Co 0.81521 0.16354 0.42443 0.0
Co205 Co 0.8075 0.19596 0.48411 0.0
C206 C 0.80154 0.20113 0.39824 0.0
O207 O 0.80721 0.1844 0.39036 0.0
O208 O 0.80127 0.20717 0.43272 0.0
C209 C 0.81817 0.13512 0.36248 0.0
O210 O 0.80422 0.14387 0.3448 0.0
C211 C 0.82032 0.2305 0.52245 0.0
C212 C 0.80222 0.23144 0.57405 0.0
C213 C 0.81732 0.24055 0.55626 0.0
N214 N 0.8079 0.21601 0.52099 0.0
N215 N 0.79697 0.21676 0.5517 0.0
C216 C 0.83436 0.2346 0.49132 0.0
H217 H 0.82918 0.2289 0.4636 0.0
H218 H 0.84802 0.22749 0.49797 0.0
H219 H 0.83689 0.25012 0.48876 0.0
C220 C 0.85134 0.16184 0.46629 0.0
N221 N 0.83493 0.1708 0.4583 0.0
N222 N 0.83125 0.18311 0.4856 0.0
C223 C 0.84485 0.18171 0.51284 0.0
C224 C 0.85807 0.16816 0.5014 0.0
C225 C 0.85966 0.14639 0.44218 0.0
H226 H 0.85817 0.15001 0.4114 0.0
H227 H 0.87493 0.14423 0.44885 0.0
H228 H 0.85188 0.13299 0.44794 0.0
O229 O 0.79278 0.15486 0.45438 0.0
O230 O 0.78716 0.17762 0.49711 0.0
H231 H 0.85109 0.18174 0.5736 0.0
H232 H 0.84953 0.20476 0.5516 0.0
C233 C 0.8433 0.19029 0.55199 0.0
H234 H 0.8282 0.19131 0.56069 0.0
H235 H 0.7863 0.20694 0.55793 0.0
O236 O 0.82413 0.14143 0.3944 0.0
C237 C 0.78309 0.16161 0.48208 0.0
Co238 Co 0.08741 0.5702 0.168 0.0
Co239 Co 0.05435 0.56264 0.22619 0.0
C240 C 0.04982 0.55628 0.14083 0.0
O241 O 0.06666 0.56183 0.13362 0.0
O242 O 0.04341 0.55625 0.17499 0.0
C243 C 0.12115 0.56889 0.12027 0.0
O244 O 0.1193 0.55033 0.12197 0.0
C245 C 0.01847 0.57346 0.26236 0.0
C246 C 0.01884 0.55665 0.31581 0.0
C247 C 0.00852 0.57029 0.29611 0.0
N248 N 0.03413 0.56253 0.26259 0.0
N249 N 0.03414 0.55233 0.29439 0.0
C250 C 0.01306 0.58628 0.2299 0.0
H251 H 0.01887 0.58081 0.20253 0.0
H252 H 0.0191 0.60064 0.23465 0.0
H253 H 0.99738 0.58759 0.22783 0.0
C254 C 0.08907 0.60633 0.21042 0.0
N255 N 0.08013 0.58993 0.20193 0.0
N256 N 0.06699 0.58658 0.22784 0.0
C257 C 0.06753 0.60058 0.25437 0.0
C258 C 0.08142 0.61367 0.24394 0.0
C259 C 0.10656 0.61311 0.1902 0.0
H260 H 0.11779 0.60212 0.19262 0.0
H261 H 0.10326 0.61516 0.15941 0.0
H262 H 0.11209 0.62659 0.2022 0.0
O263 O 0.09627 0.54801 0.19824 0.0
O264 O 0.07282 0.5424 0.23948 0.0
H265 H 0.05708 0.58617 0.30428 0.0
H266 H 0.06138 0.61128 0.31148 0.0
C267 C 0.05633 0.60044 0.29087 0.0
H268 H 0.04128 0.60363 0.28448 0.0
H269 H 0.04486 0.54279 0.30194 0.0
O270 O 0.10892 0.57939 0.13663 0.0
C271 C 0.08908 0.53835 0.22555 0.0
Co272 Co 0.81854 0.66399 0.57783 0.0
Co273 Co 0.81078 0.69685 0.5192 0.0
C274 C 0.80472 0.70132 0.60501 0.0
O275 O 0.81037 0.68453 0.61225 0.0
O276 O 0.80452 0.70771 0.5708 0.0
C277 C 0.81702 0.63058 0.62671 0.0
O278 O 0.79857 0.63333 0.62743 0.0
C279 C 0.82383 0.73149 0.48146 0.0
C280 C 0.80391 0.73444 0.43297 0.0
C281 C 0.81986 0.74259 0.44952 0.0
N282 N 0.81106 0.71732 0.48322 0.0
N283 N 0.79909 0.71922 0.45432 0.0
C284 C 0.83894 0.7346 0.51098 0.0
H285 H 0.83473 0.72801 0.5386 0.0
H286 H 0.85234 0.72781 0.50146 0.0
H287 H 0.84162 0.75002 0.51503 0.0
C288 C 0.85444 0.6623 0.53564 0.0
N289 N 0.83821 0.67145 0.54419 0.0
N290 N 0.83449 0.6839 0.51714 0.0
C291 C 0.84782 0.68238 0.48943 0.0
C292 C 0.86097 0.66865 0.50036 0.0
C293 C 0.86276 0.64677 0.55962 0.0
H294 H 0.86194 0.65075 0.59032 0.0
H295 H 0.87782 0.64409 0.55196 0.0
H296 H 0.85446 0.63354 0.55524 0.0
O297 O 0.79624 0.65532 0.54743 0.0
O298 O 0.79046 0.6786 0.50582 0.0
H299 H 0.83076 0.69282 0.4428 0.0
H300 H 0.8527 0.68176 0.42825 0.0
C301 C 0.84593 0.69089 0.45025 0.0
H302 H 0.85307 0.70493 0.44969 0.0
H303 H 0.78784 0.70996 0.4488 0.0
O304 O 0.82754 0.64214 0.60847 0.0
C305 C 0.78649 0.66238 0.52008 0.0
Co306 Co 0.08681 0.0693 0.82381 0.0
Co307 Co 0.05341 0.06068 0.76721 0.0
C308 C 0.05002 0.05465 0.853 0.0
O309 O 0.06677 0.06068 0.85941 0.0
O310 O 0.04327 0.05427 0.81911 0.0
C311 C 0.1185 0.06981 0.87752 0.0
O312 O 0.11422 0.05202 0.885 0.0
C313 C 0.01734 0.07163 0.73252 0.0
C314 C 0.01646 0.05411 0.68009 0.0
C315 C 0.00682 0.06832 0.69954 0.0
N316 N 0.03267 0.06026 0.73205 0.0
N317 N 0.03194 0.04963 0.70089 0.0
C318 C 0.01283 0.08507 0.76451 0.0
H319 H 0.01881 0.07972 0.79185 0.0
H320 H 0.01934 0.09912 0.75864 0.0
H321 H 0.99724 0.08698 0.76733 0.0
C322 C 0.08704 0.10534 0.78113 0.0
N323 N 0.07861 0.08875 0.79016 0.0
N324 N 0.06554 0.08483 0.76445 0.0
C325 C 0.06576 0.09854 0.7373 0.0
C326 C 0.07923 0.11212 0.7473 0.0
C327 C 0.10434 0.1128 0.80097 0.0
H328 H 0.1162 0.10261 0.79695 0.0
H329 H 0.10141 0.11404 0.83209 0.0
H330 H 0.10881 0.12685 0.78978 0.0
O331 O 0.09579 0.04715 0.79347 0.0
O332 O 0.07207 0.04078 0.75328 0.0
H333 H 0.05541 0.08286 0.68884 0.0
H334 H 0.06061 0.10753 0.67864 0.0
C335 C 0.05496 0.09754 0.70035 0.0
H336 H 0.03995 0.10142 0.70554 0.0
H337 H 0.0423 0.03972 0.69327 0.0
O338 O 0.10853 0.07907 0.85365 0.0
C339 C 0.08855 0.03719 0.76664 0.0
Co340 Co 0.68039 0.33668 0.07891 0.0
Co341 Co 0.68799 0.30293 0.02229 0.0
C342 C 0.69424 0.29954 0.10808 0.0
O343 O 0.68864 0.31644 0.11453 0.0
O344 O 0.69436 0.29279 0.0742 0.0
C345 C 0.68163 0.37011 0.128 0.0
O346 O 0.69999 0.36701 0.13043 0.0
C347 C 0.67607 0.26682 0.98892 0.0
C348 C 0.6931 0.26524 0.9359 0.0
C349 C 0.67893 0.25597 0.95622 0.0
N350 N 0.68767 0.28199 0.98751 0.0
N351 N 0.69799 0.28085 0.95597 0.0
C352 C 0.66287 0.26274 0.02156 0.0
H353 H 0.66846 0.26899 0.04845 0.0
H354 H 0.64883 0.26927 0.01583 0.0
H355 H 0.66088 0.2472 0.02515 0.0
C356 C 0.64426 0.3377 0.03668 0.0
N357 N 0.66067 0.32891 0.04552 0.0
N358 N 0.66413 0.31565 0.01993 0.0
C359 C 0.65026 0.31604 0.99315 0.0
C360 C 0.63709 0.32989 0.00318 0.0
C361 C 0.63735 0.35527 0.05642 0.0
H362 H 0.64796 0.36677 0.05255 0.0
H363 H 0.63592 0.35236 0.08752 0.0
H364 H 0.62352 0.36024 0.04508 0.0
O365 O 0.70259 0.34499 0.04805 0.0
O366 O 0.70833 0.32112 0.00781 0.0
H367 H 0.6652 0.30503 0.94436 0.0
H368 H 0.64048 0.31039 0.93519 0.0
C369 C 0.65068 0.30486 0.95662 0.0
H370 H 0.64671 0.28994 0.96265 0.0
H371 H 0.708 0.29098 0.94765 0.0
O372 O 0.67132 0.35877 0.10877 0.0
C373 C 0.71229 0.33755 0.02109 0.0
Co374 Co 0.41436 0.9346 0.32448 0.0
Co375 Co 0.44931 0.9413 0.27024 0.0
C376 C 0.45196 0.94619 0.35612 0.0
O377 O 0.43464 0.94162 0.36122 0.0
O378 O 0.45932 0.94613 0.32275 0.0
C379 C 0.38258 0.93472 0.37882 0.0
O380 O 0.38812 0.95182 0.38897 0.0
C381 C 0.48535 0.92939 0.23586 0.0
C382 C 0.48724 0.9479 0.18489 0.0
C383 C 0.49633 0.93313 0.20371 0.0
N384 N 0.47028 0.94113 0.23559 0.0
N385 N 0.4716 0.9523 0.20526 0.0
C386 C 0.48937 0.9154 0.26718 0.0
H387 H 0.48237 0.91986 0.29417 0.0
H388 H 0.48368 0.90126 0.25923 0.0
H389 H 0.50491 0.91399 0.2717 0.0
C390 C 0.41248 0.89897 0.28036 0.0
N391 N 0.4217 0.91502 0.29023 0.0
N392 N 0.43549 0.91816 0.26562 0.0
C393 C 0.43502 0.90451 0.2384 0.0
C394 C 0.42057 0.89175 0.2472 0.0
C395 C 0.3945 0.8924 0.29899 0.0
H396 H 0.38344 0.90348 0.29536 0.0
H397 H 0.39705 0.89039 0.33009 0.0
H398 H 0.38916 0.87893 0.28659 0.0
O399 O 0.40727 0.95771 0.29493 0.0
O400 O 0.43238 0.96284 0.25749 0.0
H401 H 0.4475 0.91937 0.19095 0.0
H402 H 0.44112 0.895 0.18049 0.0
C403 C 0.4468 0.90474 0.20266 0.0
H404 H 0.46139 0.90003 0.20951 0.0
H405 H 0.46162 0.96266 0.19803 0.0
O406 O 0.3918 0.92575 0.35329 0.0
C407 C 0.41596 0.96753 0.26967 0.0
Co408 Co 0.18168 0.33908 0.42364 0.0
Co409 Co 0.18935 0.30579 0.48153 0.0
C410 C 0.19599 0.30164 0.39631 0.0
O411 O 0.19034 0.31847 0.38935 0.0
O412 O 0.196 0.29505 0.43034 0.0
C413 C 0.18268 0.37219 0.37383 0.0
O414 O 0.20122 0.37004 0.374 0.0
C415 C 0.179 0.26961 0.51735 0.0
C416 C 0.19383 0.27122 0.573 0.0
C417 C 0.18116 0.26021 0.55217 0.0
N418 N 0.18944 0.28561 0.51821 0.0
N419 N 0.19852 0.28634 0.5513 0.0
C420 C 0.16737 0.26362 0.48352 0.0
H421 H 0.17394 0.26878 0.45663 0.0
H422 H 0.153 0.26999 0.48555 0.0
H423 H 0.16598 0.24792 0.48243 0.0
C424 C 0.14546 0.34021 0.4655 0.0
N425 N 0.16195 0.33146 0.4571 0.0
N426 N 0.16529 0.31818 0.48274 0.0
C427 C 0.15115 0.31841 0.50895 0.0
C428 C 0.13805 0.33228 0.49868 0.0
C429 C 0.13864 0.35778 0.44565 0.0
H430 H 0.14951 0.3691 0.44851 0.0
H431 H 0.13672 0.35467 0.41474 0.0
H432 H 0.12505 0.36307 0.45758 0.0
O433 O 0.20369 0.34809 0.45417 0.0
O434 O 0.20941 0.32445 0.495 0.0
H435 H 0.16511 0.30828 0.55958 0.0
H436 H 0.13976 0.3115 0.56513 0.0
C437 C 0.15114 0.30699 0.54518 0.0
H438 H 0.14869 0.29185 0.5382 0.0
H439 H 0.20736 0.2975 0.55963 0.0
O440 O 0.17235 0.36047 0.39206 0.0
C441 C 0.21336 0.34081 0.48138 0.0
Co442 Co 0.91468 0.93505 0.16755 0.0
Co443 Co 0.94627 0.94168 0.22911 0.0
C444 C 0.95333 0.94684 0.14395 0.0
O445 O 0.93659 0.94163 0.13525 0.0
O446 O 0.95877 0.94733 0.17877 0.0
C447 C 0.89525 0.91682 0.10546 0.0
O448 O 0.91203 0.90953 0.09798 0.0
C449 C 0.98004 0.92802 0.26904 0.0
C450 C 0.98201 0.94737 0.31867 0.0
C451 C 0.99049 0.93163 0.30199 0.0
N452 N 0.96589 0.94079 0.26682 0.0
N453 N 0.96721 0.95242 0.29641 0.0
C454 C 0.98375 0.91326 0.23909 0.0
H455 H 0.97758 0.91768 0.21124 0.0
H456 H 0.97696 0.89969 0.2476 0.0
H457 H 0.99924 0.91078 0.23594 0.0
C458 C 0.90988 0.89937 0.21167 0.0
N459 N 0.91978 0.91522 0.20306 0.0
N460 N 0.9323 0.91843 0.23029 0.0
C461 C 0.93029 0.90504 0.25779 0.0
C462 C 0.91613 0.89242 0.24672 0.0
C463 C 0.89407 0.89159 0.18765 0.0
H464 H 0.88243 0.90217 0.18583 0.0
H465 H 0.89945 0.88884 0.15839 0.0
H466 H 0.88845 0.87802 0.19916 0.0
O467 O 0.90664 0.95815 0.19584 0.0
O468 O 0.92859 0.96283 0.24073 0.0
H469 H 0.94068 0.92144 0.30538 0.0
H470 H 0.92999 0.89913 0.31867 0.0
C471 C 0.93893 0.90637 0.29694 0.0
H472 H 0.95305 0.89941 0.29681 0.0
H473 H 0.95786 0.96361 0.30171 0.0
O474 O 0.89335 0.92803 0.1337 0.0
C475 C 0.91319 0.96762 0.22406 0.0
Co476 Co 0.31969 0.66513 0.91997 0.0
Co477 Co 0.31192 0.6984 0.97768 0.0
C478 C 0.30512 0.70245 0.89245 0.0
O479 O 0.3109 0.68566 0.88566 0.0
O480 O 0.30507 0.7091 0.92642 0.0
C481 C 0.3185 0.632 0.87069 0.0
O482 O 0.29996 0.63409 0.87164 0.0
C483 C 0.32227 0.73453 0.01373 0.0
C484 C 0.30694 0.73307 0.06883 0.0
C485 C 0.31983 0.744 0.04837 0.0
N486 N 0.31175 0.71857 0.01433 0.0
N487 N 0.30239 0.71794 0.0471 0.0
C488 C 0.33422 0.74042 0.98028 0.0
H489 H 0.32795 0.73507 0.95322 0.0
H490 H 0.3486 0.73416 0.98306 0.0
H491 H 0.33554 0.75613 0.97895 0.0
C492 C 0.3558 0.6639 0.96211 0.0
N493 N 0.33944 0.67281 0.95333 0.0
N494 N 0.33606 0.68608 0.97894 0.0
C495 C 0.35002 0.68568 0.00552 0.0
C496 C 0.36307 0.6717 0.99554 0.0
C497 C 0.36249 0.64621 0.94253 0.0
H498 H 0.35149 0.635 0.94539 0.0
H499 H 0.36451 0.64922 0.9116 0.0
H500 H 0.376 0.64081 0.95465 0.0
O501 O 0.29785 0.65597 0.95076 0.0
O502 O 0.29207 0.67957 0.99155 0.0
H503 H 0.33573 0.69556 0.05594 0.0
H504 H 0.36105 0.69228 0.06214 0.0
C505 C 0.34981 0.69691 0.04196 0.0
H506 H 0.35232 0.71208 0.03534 0.0
H507 H 0.29339 0.70684 0.05517 0.0
O508 O 0.32898 0.6438 0.88832 0.0
C509 C 0.28823 0.66316 0.9781 0.0
Co510 Co 0.58577 0.06432 0.67975 0.0
Co511 Co 0.55206 0.05671 0.73654 0.0
C512 C 0.5479 0.05227 0.65065 0.0
O513 O 0.56504 0.05714 0.64436 0.0
O514 O 0.54115 0.05204 0.68455 0.0
C515 C 0.61762 0.06459 0.6255 0.0
O516 O 0.61318 0.04692 0.6173 0.0
C517 C 0.51739 0.06931 0.77445 0.0
C518 C 0.51536 0.04988 0.82398 0.0
C519 C 0.50678 0.06556 0.8072 0.0
N520 N 0.5317 0.05671 0.77258 0.0
N521 N 0.53031 0.045 0.80203 0.0
C522 C 0.51388 0.08415 0.74454 0.0
H523 H 0.51981 0.07956 0.71661 0.0
H524 H 0.52113 0.09753 0.75282 0.0
H525 H 0.49845 0.08701 0.74158 0.0
C526 C 0.58789 0.09969 0.72425 0.0
N527 N 0.57865 0.08364 0.71468 0.0
N528 N 0.56573 0.07994 0.74081 0.0
C529 C 0.56696 0.09314 0.76886 0.0
C530 C 0.58104 0.10616 0.75917 0.0
C531 C 0.60372 0.10812 0.70125 0.0
H532 H 0.61677 0.09956 0.70562 0.0
H533 H 0.59994 0.10778 0.67041 0.0
H534 H 0.60656 0.12304 0.70975 0.0
O535 O 0.59374 0.0412 0.7086 0.0
O536 O 0.56939 0.03535 0.74766 0.0
H537 H 0.5557 0.07619 0.81484 0.0
H538 H 0.56599 0.09842 0.82991 0.0
C539 C 0.55754 0.09135 0.80718 0.0
H540 H 0.54338 0.09822 0.80611 0.0
H541 H 0.53983 0.03399 0.80766 0.0
O542 O 0.6078 0.07367 0.64991 0.0
C543 C 0.58568 0.03107 0.73423 0.0
C544 C 0.47685 0.06695 0.84555 0.0
C545 C 0.49077 0.07643 0.82392 0.0
C546 C 0.46244 0.07714 0.86388 0.0
C547 C 0.43756 0.12335 0.86463 0.0
H548 H 0.42523 0.10951 0.96929 0.0
C549 C 0.37307 0.15411 0.94692 0.0
C550 C 0.37588 0.15884 0.98557 0.0
C551 C 0.38729 0.1448 0.92625 0.0
C552 C 0.4286 0.11364 0.94017 0.0
H553 H 0.50086 0.10421 0.80611 0.0
H554 H 0.47552 0.12188 0.83722 0.0
H555 H 0.44933 0.09159 0.93453 0.0
H556 H 0.39559 0.15764 0.03305 0.0
H557 H 0.42057 0.14136 0.99698 0.0
H558 H 0.41692 0.14554 0.87048 0.0
C559 C 0.47549 0.10652 0.83924 0.0
C560 C 0.44224 0.10322 0.9201 0.0
C561 C 0.48995 0.09634 0.82105 0.0
C562 C 0.39318 0.1542 0.00318 0.0
C563 C 0.40737 0.1448 0.98262 0.0
C564 C 0.42382 0.13371 0.88465 0.0
C565 C 0.46167 0.09705 0.86114 0.0
C566 C 0.4469 0.10797 0.88212 0.0
C567 C 0.40453 0.13984 0.944 0.0
C568 C 0.41923 0.12899 0.92269 0.0
H569 H 0.47717 0.05163 0.84849 0.0
H570 H 0.45189 0.06941 0.88026 0.0
H571 H 0.44075 0.12728 0.83532 0.0
H572 H 0.35965 0.15712 0.93299 0.0
H573 H 0.38456 0.14092 0.89673 0.0
C574 C 0.59329 0.62589 0.19401 0.0
C575 C 0.58637 0.62898 0.23121 0.0
C576 C 0.60214 0.64061 0.1738 0.0
C577 C 0.62973 0.68361 0.19032 0.0
H578 H 0.61925 0.69519 0.08378 0.0
C579 C 0.66535 0.74709 0.11542 0.0
C580 C 0.67044 0.74526 0.07673 0.0
C581 C 0.65429 0.73323 0.13333 0.0
C582 C 0.62256 0.69197 0.11337 0.0
H583 H 0.58293 0.64972 0.27638 0.0
H584 H 0.59869 0.67547 0.2413 0.0
H585 H 0.60095 0.6705 0.1164 0.0
H586 H 0.66845 0.72722 0.02667 0.0
H587 H 0.6495 0.70267 0.0581 0.0
H588 H 0.65168 0.70448 0.18735 0.0
C589 C 0.5972 0.66172 0.22769 0.0
C590 C 0.61199 0.6779 0.13207 0.0
C591 C 0.58814 0.64707 0.24766 0.0
C592 C 0.6644 0.72918 0.05632 0.0
C593 C 0.65351 0.71513 0.07439 0.0
C594 C 0.64044 0.69748 0.17156 0.0
C595 C 0.6045 0.65857 0.19074 0.0
C596 C 0.61542 0.67365 0.17079 0.0
C597 C 0.64831 0.71697 0.11319 0.0
C598 C 0.63696 0.70195 0.13287 0.0
H599 H 0.59242 0.61194 0.18104 0.0
H600 H 0.60781 0.63772 0.14555 0.0
H601 H 0.63292 0.68038 0.21999 0.0
H602 H 0.66969 0.75944 0.13176 0.0
H603 H 0.65027 0.7354 0.16295 0.0
C604 C 0.12508 0.86203 0.47279 0.0
C605 C 0.12511 0.84223 0.47767 0.0
C606 C 0.11059 0.87091 0.45228 0.0
C607 C 0.07339 0.86322 0.38004 0.0
H608 H 0.05162 0.90871 0.42471 0.0
C609 C 0.00693 0.90085 0.31726 0.0
C610 C 0.00659 0.92081 0.31836 0.0
C611 C 0.02154 0.89075 0.33527 0.0
C612 C 0.0577 0.89619 0.4115 0.0
H613 H 0.11052 0.81607 0.46377 0.0
H614 H 0.085 0.83165 0.42741 0.0
H615 H 0.07666 0.89184 0.45855 0.0
H616 H 0.02127 0.94584 0.33897 0.0
H617 H 0.04697 0.92832 0.36969 0.0
H618 H 0.05451 0.86772 0.33273 0.0
C619 C 0.09619 0.84028 0.43969 0.0
C620 C 0.07202 0.88648 0.43101 0.0
C621 C 0.11071 0.83137 0.46052 0.0
C622 C 0.02119 0.93046 0.33762 0.0
C623 C 0.03584 0.92039 0.35542 0.0
C624 C 0.05909 0.87302 0.36036 0.0
C625 C 0.09586 0.86019 0.43584 0.0
C626 C 0.08014 0.86997 0.4154 0.0
C627 C 0.0361 0.9004 0.35489 0.0
C628 C 0.05116 0.88972 0.37575 0.0
H629 H 0.13632 0.87068 0.48484 0.0
H630 H 0.11098 0.88622 0.44911 0.0
H631 H 0.07949 0.85062 0.36715 0.0
H632 H 0.99556 0.89296 0.30384 0.0
H633 H 0.02108 0.87537 0.33486 0.0
C634 C 0.90916 0.35398 0.74822 0.0
C635 C 0.91088 0.37222 0.73236 0.0
C636 C 0.90002 0.3395 0.72787 0.0
C637 C 0.88485 0.32478 0.63113 0.0
H638 H 0.84722 0.29499 0.68579 0.0
C639 C 0.84806 0.25815 0.56719 0.0
C640 C 0.82836 0.2565 0.57302 0.0
C641 C 0.85845 0.27253 0.58527 0.0
C642 C 0.85762 0.30325 0.6701 0.0
H643 H 0.9045 0.38974 0.68302 0.0
H644 H 0.88886 0.36435 0.64699 0.0
H645 H 0.86537 0.31924 0.71989 0.0
H646 H 0.80423 0.26851 0.60297 0.0
H647 H 0.82239 0.29352 0.63477 0.0
H648 H 0.877 0.30882 0.58127 0.0
C649 C 0.8947 0.36116 0.67498 0.0
C650 C 0.86816 0.31699 0.68971 0.0
C651 C 0.90367 0.37567 0.69551 0.0
C652 C 0.81936 0.26947 0.59766 0.0
C653 C 0.82976 0.28374 0.61599 0.0
C654 C 0.87444 0.3109 0.61158 0.0
C655 C 0.89253 0.34298 0.69116 0.0
C656 C 0.88184 0.32796 0.67043 0.0
C657 C 0.84945 0.28537 0.61014 0.0
C658 C 0.86062 0.30006 0.63081 0.0
H659 H 0.91457 0.35105 0.77667 0.0
H660 H 0.89872 0.32559 0.74093 0.0
H661 H 0.89537 0.33295 0.61556 0.0
H662 H 0.8557 0.24797 0.54993 0.0
H663 H 0.87366 0.2732 0.58078 0.0
C664 C 0.63173 0.86363 0.03433 0.0
C665 C 0.63021 0.84415 0.02628 0.0
C666 C 0.61786 0.87281 0.05604 0.0
C667 C 0.57995 0.8654 0.12663 0.0
H668 H 0.56011 0.91264 0.08577 0.0
C669 C 0.51363 0.90278 0.18977 0.0
C670 C 0.51306 0.92272 0.18907 0.0
C671 C 0.52857 0.89297 0.17228 0.0
C672 C 0.56569 0.89966 0.09805 0.0
H673 H 0.61359 0.81874 0.036 0.0
H674 H 0.58924 0.83479 0.07463 0.0
H675 H 0.5849 0.8958 0.05122 0.0
H676 H 0.52775 0.94807 0.1702 0.0
H677 H 0.55418 0.93108 0.14081 0.0
H678 H 0.56091 0.86938 0.17378 0.0
C679 C 0.60111 0.84297 0.06378 0.0
C680 C 0.57985 0.88995 0.07807 0.0
C681 C 0.61496 0.83381 0.04166 0.0
C682 C 0.52787 0.93268 0.17119 0.0
C683 C 0.54292 0.92291 0.15409 0.0
C684 C 0.56588 0.87522 0.14689 0.0
C685 C 0.60229 0.86264 0.07067 0.0
C686 C 0.58715 0.87274 0.09212 0.0
C687 C 0.54331 0.9029 0.15378 0.0
C688 C 0.55856 0.8925 0.13285 0.0
H689 H 0.64365 0.87181 0.02365 0.0
H690 H 0.61933 0.88789 0.06149 0.0
H691 H 0.58544 0.85224 0.13829 0.0
H692 H 0.50211 0.89469 0.20222 0.0
H693 H 0.52816 0.87759 0.17204 0.0
C694 C 0.32089 0.26894 0.90505 0.0
C695 C 0.32967 0.25781 0.93336 0.0
C696 C 0.33083 0.28362 0.88696 0.0
C697 C 0.37321 0.31448 0.89557 0.0
H698 H 0.36767 0.3192 0.78543 0.0
C699 C 0.40339 0.37788 0.809 0.0
C700 C 0.41139 0.37391 0.77308 0.0
C701 C 0.39417 0.36361 0.82976 0.0
C702 C 0.3695 0.31798 0.81614 0.0
H703 H 0.35612 0.25293 0.96374 0.0
H704 H 0.37331 0.27871 0.93281 0.0
H705 H 0.3498 0.29489 0.81971 0.0
H706 H 0.4163 0.3521 0.73064 0.0
H707 H 0.40029 0.32697 0.76698 0.0
H708 H 0.39313 0.33744 0.89185 0.0
C709 C 0.35857 0.27641 0.92526 0.0
C710 C 0.35906 0.30421 0.83587 0.0
C711 C 0.34863 0.26171 0.94328 0.0
C712 C 0.41026 0.35541 0.7584 0.0
C713 C 0.401 0.34112 0.77907 0.0
C714 C 0.38361 0.32832 0.87584 0.0
C715 C 0.34985 0.28741 0.89659 0.0
C716 C 0.36078 0.30229 0.87582 0.0
C717 C 0.39267 0.34511 0.81483 0.0
C718 C 0.38189 0.33021 0.83588 0.0
H719 H 0.30634 0.26617 0.89662 0.0
H720 H 0.32363 0.29195 0.86529 0.0
H721 H 0.37477 0.31346 0.92638 0.0
H722 H 0.4038 0.39217 0.82052 0.0
H723 H 0.3877 0.36722 0.85694 0.0
C724 C 0.98935 0.09881 0.68752 0.0
C725 C 0.99027 0.07892 0.68456 0.0
C726 C 0.97459 0.1089 0.67006 0.0
C727 C 0.93924 0.10411 0.59213 0.0
H728 H 0.91677 0.14896 0.63811 0.0
C729 C 0.87249 0.13902 0.52985 0.0
C730 C 0.87274 0.15883 0.52529 0.0
C731 C 0.88666 0.12988 0.55081 0.0
C732 C 0.92305 0.13656 0.62481 0.0
H733 H 0.97644 0.05398 0.66139 0.0
H734 H 0.95036 0.07146 0.63177 0.0
H735 H 0.9414 0.13144 0.67269 0.0
H736 H 0.88738 0.18479 0.54052 0.0
H737 H 0.91232 0.16875 0.57778 0.0
H738 H 0.92077 0.10908 0.54453 0.0
C739 C 0.96119 0.07936 0.64701 0.0
C740 C 0.93716 0.12652 0.64457 0.0
C741 C 0.97603 0.0693 0.66421 0.0
C742 C 0.88701 0.16947 0.54345 0.0
C743 C 0.90119 0.16031 0.56477 0.0
C744 C 0.92508 0.11405 0.57258 0.0
C745 C 0.96043 0.09932 0.6492 0.0
C746 C 0.94537 0.1101 0.62853 0.0
C747 C 0.9013 0.14037 0.5681 0.0
C748 C 0.91676 0.13032 0.58876 0.0
H749 H 0.00046 0.1067 0.70185 0.0
H750 H 0.97469 0.12426 0.67176 0.0
H751 H 0.94554 0.09185 0.5784 0.0
H752 H 0.8613 0.13053 0.51722 0.0
H753 H 0.88611 0.11456 0.5536 0.0
C754 C 0.09059 0.64778 0.25085 0.0
C755 C 0.08927 0.62953 0.26683 0.0
C756 C 0.09978 0.66238 0.27072 0.0
C757 C 0.11545 0.67801 0.36608 0.0
H758 H 0.15352 0.70635 0.30967 0.0
C759 C 0.16662 0.73089 0.44084 0.0
C760 C 0.17171 0.74737 0.42061 0.0
C761 C 0.15622 0.71646 0.42285 0.0
C762 C 0.14274 0.69883 0.3258 0.0
H763 H 0.09639 0.61214 0.31595 0.0
H764 H 0.11199 0.63784 0.35133 0.0
H765 H 0.13515 0.68188 0.27723 0.0
H766 H 0.16983 0.76178 0.36591 0.0
H767 H 0.15126 0.73704 0.33488 0.0
H768 H 0.12273 0.69518 0.41451 0.0
C769 C 0.10585 0.64088 0.32354 0.0
C770 C 0.13225 0.68475 0.30716 0.0
C771 C 0.09688 0.62622 0.30341 0.0
C772 C 0.16622 0.74915 0.38213 0.0
C773 C 0.15564 0.73489 0.36429 0.0
C774 C 0.12579 0.69229 0.38468 0.0
C775 C 0.10767 0.65903 0.30711 0.0
C776 C 0.1185 0.67419 0.32706 0.0
C777 C 0.15057 0.71827 0.38429 0.0
C778 C 0.13958 0.70292 0.36477 0.0
H779 H 0.08488 0.6506 0.22259 0.0
H780 H 0.10084 0.67627 0.2575 0.0
H781 H 0.10485 0.67016 0.38206 0.0
H782 H 0.17102 0.72895 0.4703 0.0
H783 H 0.15292 0.70375 0.43901 0.0
C784 C 0.87529 0.63949 0.47167 0.0
C785 C 0.87543 0.65932 0.47594 0.0
C786 C 0.88921 0.63041 0.44997 0.0
C787 C 0.92429 0.63718 0.37351 0.0
H788 H 0.94825 0.59309 0.41945 0.0
C789 C 0.99038 0.6004 0.30775 0.0
C790 C 0.99185 0.58058 0.31141 0.0
C791 C 0.97561 0.61026 0.32567 0.0
C792 C 0.94152 0.60517 0.40584 0.0
H793 H 0.8896 0.68535 0.4594 0.0
H794 H 0.91407 0.66941 0.42081 0.0
H795 H 0.92371 0.61006 0.45447 0.0
H796 H 0.97897 0.55549 0.33614 0.0
H797 H 0.95285 0.57254 0.36651 0.0
H798 H 0.94196 0.63213 0.32461 0.0
C799 C 0.90323 0.66092 0.43466 0.0
C800 C 0.92751 0.61496 0.42605 0.0
C801 C 0.88932 0.67002 0.45674 0.0
C802 C 0.97813 0.57077 0.3328 0.0
C803 C 0.96326 0.58059 0.35043 0.0
C804 C 0.93825 0.62727 0.35308 0.0
C805 C 0.90347 0.64098 0.43159 0.0
C806 C 0.91868 0.63101 0.41009 0.0
C807 C 0.96198 0.60051 0.34765 0.0
C808 C 0.94699 0.61108 0.36895 0.0
H809 H 0.86436 0.63094 0.48508 0.0
H810 H 0.88876 0.61507 0.44742 0.0
H811 H 0.91761 0.64942 0.36038 0.0
H812 H 0.00109 0.60844 0.29254 0.0
H813 H 0.9753 0.62561 0.32346 0.0
C814 C 0.09595 0.12335 0.6883 0.0
C815 C 0.08711 0.12754 0.72333 0.0
C816 C 0.10521 0.13761 0.66759 0.0
C817 C 0.12944 0.18313 0.6818 0.0
H818 H 0.12519 0.18818 0.57146 0.0
C819 C 0.17942 0.23163 0.59458 0.0
C820 C 0.1707 0.24355 0.56747 0.0
C821 C 0.16921 0.21692 0.61196 0.0
C822 C 0.12648 0.18695 0.60229 0.0
H823 H 0.08081 0.14972 0.76422 0.0
H824 H 0.09707 0.17479 0.72811 0.0
H825 H 0.10637 0.16409 0.60495 0.0
H826 H 0.14407 0.24974 0.53871 0.0
H827 H 0.12651 0.22377 0.56801 0.0
H828 H 0.14948 0.20599 0.67925 0.0
C829 C 0.09684 0.1605 0.7166 0.0
C830 C 0.11581 0.17311 0.62141 0.0
C831 C 0.08744 0.14625 0.73711 0.0
C832 C 0.15154 0.24036 0.55804 0.0
C833 C 0.14138 0.22556 0.57519 0.0
C834 C 0.14023 0.19684 0.66267 0.0
C835 C 0.10603 0.15628 0.68184 0.0
C836 C 0.11713 0.1711 0.6614 0.0
C837 C 0.15003 0.21382 0.60267 0.0
C838 C 0.13885 0.19893 0.62272 0.0
H839 H 0.09621 0.10891 0.67757 0.0
H840 H 0.11235 0.13388 0.64116 0.0
H841 H 0.13093 0.18178 0.71257 0.0
H842 H 0.19411 0.23382 0.60268 0.0
H843 H 0.1763 0.20802 0.63284 0.0
C844 C 0.50312 0.41634 0.86528 0.0
C845 C 0.50523 0.42287 0.82752 0.0
C846 C 0.51741 0.40568 0.88275 0.0
C847 C 0.56048 0.37697 0.86153 0.0
H848 H 0.56953 0.3838 0.97026 0.0
C849 C 0.6253 0.34596 0.9438 0.0
C850 C 0.6215 0.33781 0.97971 0.0
C851 C 0.61093 0.3553 0.92351 0.0
C852 C 0.56704 0.3816 0.93996 0.0
H853 H 0.52426 0.42396 0.77884 0.0
H854 H 0.54951 0.40564 0.80956 0.0
H855 H 0.54548 0.40291 0.93834 0.0
H856 H 0.59989 0.33273 0.02252 0.0
H857 H 0.57471 0.34925 0.98728 0.0
H858 H 0.58252 0.35593 0.86333 0.0
C859 C 0.53654 0.40825 0.82535 0.0
C860 C 0.55321 0.39253 0.92161 0.0
C861 C 0.52209 0.41878 0.80771 0.0
C862 C 0.60307 0.33885 0.99476 0.0
C863 C 0.58875 0.34837 0.97473 0.0
C864 C 0.57449 0.36617 0.87988 0.0
C865 C 0.53436 0.40152 0.86312 0.0
C866 C 0.54961 0.39026 0.8822 0.0
C867 C 0.5926 0.35691 0.93913 0.0
C868 C 0.57779 0.36828 0.91935 0.0
H869 H 0.4902 0.41913 0.88115 0.0
H870 H 0.51501 0.40046 0.91152 0.0
H871 H 0.55795 0.37463 0.8313 0.0
H872 H 0.63953 0.34566 0.93203 0.0
H873 H 0.61435 0.36192 0.89635 0.0
C874 C 0.41134 0.85785 0.23773 0.0
C875 C 0.4127 0.87637 0.22314 0.0
C876 C 0.40203 0.84368 0.21687 0.0
C877 C 0.38506 0.83072 0.12019 0.0
H878 H 0.34963 0.79886 0.17607 0.0
C879 C 0.34945 0.76374 0.0554 0.0
C880 C 0.33016 0.76068 0.06387 0.0
C881 C 0.35948 0.77853 0.07291 0.0
C882 C 0.35936 0.80773 0.15999 0.0
H883 H 0.40554 0.89475 0.17558 0.0
H884 H 0.38948 0.86991 0.13863 0.0
H885 H 0.36783 0.823 0.21018 0.0
H886 H 0.30635 0.77068 0.09761 0.0
H887 H 0.32387 0.7965 0.12825 0.0
H888 H 0.37646 0.81546 0.06993 0.0
C889 C 0.39577 0.86625 0.16597 0.0
C890 C 0.36997 0.8214 0.17961 0.0
C891 C 0.40498 0.88044 0.187 0.0
C892 C 0.32116 0.77275 0.09028 0.0
C893 C 0.33121 0.78748 0.10796 0.0
C894 C 0.37454 0.81692 0.10058 0.0
C895 C 0.39393 0.84778 0.18095 0.0
C896 C 0.38294 0.83306 0.15996 0.0
C897 C 0.35054 0.79042 0.09974 0.0
C898 C 0.36154 0.8053 0.12027 0.0
H899 H 0.41713 0.85447 0.26568 0.0
H900 H 0.40104 0.82955 0.22898 0.0
H901 H 0.39501 0.83942 0.10428 0.0
H902 H 0.35711 0.75426 0.03659 0.0
H903 H 0.37445 0.78019 0.06654 0.0
C904 C 0.10408 0.34144 0.50758 0.0
C905 C 0.12257 0.3403 0.52225 0.0
C906 C 0.08982 0.35069 0.52829 0.0
C907 C 0.07692 0.36783 0.62498 0.0
H908 H 0.0442 0.40241 0.56904 0.0
C909 C 0.01018 0.4029 0.69129 0.0
C910 C 0.00669 0.42205 0.6822 0.0
C911 C 0.02492 0.39297 0.67343 0.0
C912 C 0.05331 0.39293 0.58513 0.0
H913 H 0.14085 0.34782 0.56974 0.0
H914 H 0.11591 0.36383 0.6063 0.0
H915 H 0.06841 0.38442 0.53477 0.0
H916 H 0.0158 0.44572 0.64703 0.0
H917 H 0.04159 0.4284 0.61586 0.0
H918 H 0.06191 0.37652 0.67542 0.0
C919 C 0.11231 0.3574 0.57907 0.0
C920 C 0.06702 0.38243 0.56542 0.0
C921 C 0.12656 0.34823 0.55824 0.0
C922 C 0.01825 0.43102 0.65483 0.0
C923 C 0.03294 0.42108 0.63685 0.0
C924 C 0.06312 0.37826 0.64469 0.0
C925 C 0.09383 0.35896 0.5641 0.0
C926 C 0.07899 0.36977 0.5851 0.0
C927 C 0.03632 0.40188 0.64569 0.0
C928 C 0.05119 0.39096 0.62498 0.0
H929 H 0.10076 0.33547 0.47976 0.0
H930 H 0.07567 0.35146 0.51619 0.0
H931 H 0.08585 0.35811 0.64092 0.0
H932 H 0.00108 0.39526 0.71091 0.0
H933 H 0.02691 0.37809 0.68031 0.0
C934 C 0.88747 0.87774 0.27712 0.0
C935 C 0.90713 0.87749 0.27056 0.0
C936 C 0.87889 0.86363 0.2993 0.0
C937 C 0.88643 0.81476 0.33554 0.0
H938 H 0.84385 0.82727 0.40134 0.0
C939 C 0.85056 0.75913 0.43403 0.0
C940 C 0.8306 0.75893 0.43376 0.0
C941 C 0.86057 0.77403 0.41678 0.0
C942 C 0.85565 0.82354 0.38292 0.0
H943 H 0.93339 0.86282 0.2831 0.0
H944 H 0.91848 0.8382 0.32263 0.0
H945 H 0.86033 0.8525 0.36684 0.0
H946 H 0.80549 0.77405 0.41495 0.0
H947 H 0.82294 0.80012 0.38491 0.0
H948 H 0.8817 0.78577 0.35171 0.0
C949 C 0.90959 0.84904 0.30984 0.0
C950 C 0.86509 0.83799 0.36306 0.0
C951 C 0.91816 0.86316 0.28746 0.0
C952 C 0.82087 0.77394 0.41592 0.0
C953 C 0.83087 0.7889 0.39892 0.0
C954 C 0.87705 0.80032 0.35558 0.0
C955 C 0.8898 0.84904 0.31587 0.0
C956 C 0.88046 0.83377 0.33874 0.0
C957 C 0.85084 0.78905 0.3989 0.0
C958 C 0.86142 0.80452 0.37918 0.0
H959 H 0.87871 0.88889 0.26509 0.0
H960 H 0.86362 0.86401 0.30294 0.0
H961 H 0.89802 0.81093 0.31668 0.0
H962 H 0.8585 0.7475 0.4464 0.0
H963 H 0.87595 0.77374 0.4173 0.0
C964 C 0.47957 0.57035 0.15553 0.0
C965 C 0.49116 0.57908 0.18316 0.0
C966 C 0.46516 0.58058 0.13725 0.0
C967 C 0.43573 0.62396 0.1442 0.0
H968 H 0.43132 0.6181 0.03407 0.0
C969 C 0.37367 0.65537 0.05543 0.0
C970 C 0.37816 0.66333 0.0197 0.0
C971 C 0.38755 0.64589 0.07677 0.0
C972 C 0.43246 0.62001 0.06478 0.0
H973 H 0.49706 0.60572 0.21214 0.0
H974 H 0.47168 0.62338 0.18106 0.0
H975 H 0.45485 0.59957 0.06915 0.0
H976 H 0.40049 0.66786 0.97817 0.0
H977 H 0.4249 0.65129 0.01546 0.0
H978 H 0.41342 0.64456 0.13969 0.0
C979 C 0.47345 0.60848 0.17416 0.0
C980 C 0.44578 0.60921 0.08495 0.0
C981 C 0.48792 0.59826 0.19231 0.0
C982 C 0.39679 0.66189 0.00579 0.0
C983 C 0.41066 0.65231 0.027 0.0
C984 C 0.42231 0.63469 0.12404 0.0
C985 C 0.46206 0.59983 0.14606 0.0
C986 C 0.44758 0.61106 0.12489 0.0
C987 C 0.40614 0.64402 0.06256 0.0
C988 C 0.42056 0.63287 0.08407 0.0
H989 H 0.48182 0.55563 0.14766 0.0
H990 H 0.4565 0.57345 0.11599 0.0
H991 H 0.4367 0.62564 0.17499 0.0
H992 H 0.35928 0.65601 0.06635 0.0
H993 H 0.38355 0.63946 0.10379 0.0
C994 C 0.57869 0.13459 0.80237 0.0
C995 C 0.58982 0.12074 0.78417 0.0
C996 C 0.58723 0.14854 0.82526 0.0
C997 C 0.63244 0.15992 0.87616 0.0
H998 H 0.61489 0.21195 0.8675 0.0
C999 C 0.67736 0.22461 0.92286 0.0
C1000 C 0.66805 0.23931 0.94249 0.0
C1001 C 0.66703 0.20946 0.90743 0.0
C1002 C 0.61981 0.19745 0.87061 0.0
H1003 H 0.61843 0.11001 0.77699 0.0
H1004 H 0.6334 0.13458 0.81546 0.0
H1005 H 0.59806 0.18676 0.83358 0.0
H1006 H 0.64054 0.25003 0.96011 0.0
H1007 H 0.62252 0.2235 0.93351 0.0
H1008 H 0.65453 0.17076 0.91228 0.0
C1009 C 0.61809 0.13472 0.8126 0.0
C1010 C 0.61013 0.18298 0.85124 0.0
C1011 C 0.60955 0.12078 0.78999 0.0
C1012 C 0.64819 0.23862 0.94623 0.0
C1013 C 0.63783 0.22357 0.93047 0.0
C1014 C 0.64219 0.1744 0.89525 0.0
C1015 C 0.60708 0.14885 0.83043 0.0
C1016 C 0.61647 0.16405 0.85336 0.0
C1017 C 0.64713 0.20887 0.91074 0.0
C1018 C 0.63611 0.19334 0.89235 0.0
H1019 H 0.56342 0.13474 0.79851 0.0
H1020 H 0.57829 0.15903 0.83898 0.0
H1021 H 0.6375 0.14546 0.87915 0.0
H1022 H 0.69264 0.2249 0.91921 0.0
H1023 H 0.67457 0.19847 0.89193 0.0
C1024 C 0.28796 0.23296 0.1309 0.0
C1025 C 0.29595 0.21513 0.13939 0.0
C1026 C 0.27775 0.24296 0.15876 0.0
C1027 C 0.26817 0.24566 0.26331 0.0
H1028 H 0.2203 0.26765 0.23081 0.0
C1029 C 0.21312 0.27261 0.3727 0.0
C1030 C 0.20479 0.29038 0.36503 0.0
C1031 C 0.22373 0.26324 0.3446 0.0
C1032 C 0.2337 0.26174 0.24031 0.0
H1033 H 0.30025 0.19434 0.18454 0.0
H1034 H 0.28245 0.2117 0.23283 0.0
H1035 H 0.24109 0.25283 0.18362 0.0
H1036 H 0.20042 0.31176 0.32104 0.0
H1037 H 0.21891 0.29543 0.27221 0.0
H1038 H 0.26075 0.2545 0.32002 0.0
C1039 C 0.28411 0.21802 0.20473 0.0
C1040 C 0.24566 0.2533 0.21323 0.0
C1041 C 0.29429 0.20801 0.17692 0.0
C1042 C 0.20661 0.2981 0.32801 0.0
C1043 C 0.2172 0.28871 0.29991 0.0
C1044 C 0.25621 0.25408 0.29039 0.0
C1045 C 0.27534 0.23541 0.19577 0.0
C1046 C 0.26303 0.24511 0.2244 0.0
C1047 C 0.22623 0.27137 0.30812 0.0
C1048 C 0.23879 0.26217 0.27925 0.0
H1049 H 0.28901 0.23892 0.10237 0.0
H1050 H 0.27148 0.25649 0.15111 0.0
H1051 H 0.28155 0.23972 0.27285 0.0
H1052 H 0.21196 0.26618 0.4008 0.0
H1053 H 0.23019 0.24972 0.35162 0.0
C1054 C 0.45717 0.45556 0.57877 0.0
C1055 C 0.46437 0.45436 0.61631 0.0
C1056 C 0.46685 0.46582 0.55057 0.0
C1057 C 0.50121 0.5051 0.54046 0.0
H1058 H 0.5027 0.48912 0.43423 0.0
C1059 C 0.54541 0.54403 0.4245 0.0
C1060 C 0.53774 0.54542 0.38737 0.0
C1061 C 0.53616 0.53349 0.45288 0.0
C1062 C 0.50219 0.49391 0.46369 0.0
H1063 H 0.48797 0.4623 0.65296 0.0
H1064 H 0.50499 0.47996 0.60354 0.0
H1065 H 0.48833 0.46842 0.48219 0.0
H1066 H 0.5138 0.53747 0.35163 0.0
H1067 H 0.49757 0.51928 0.4013 0.0
H1068 H 0.51507 0.5306 0.52194 0.0
C1069 C 0.49163 0.47325 0.59618 0.0
C1070 C 0.494 0.48201 0.49123 0.0
C1071 C 0.48195 0.46296 0.62443 0.0
C1072 C 0.52018 0.53666 0.37982 0.0
C1073 C 0.51094 0.52607 0.40822 0.0
C1074 C 0.50942 0.517 0.51293 0.0
C1075 C 0.484 0.47515 0.55912 0.0
C1076 C 0.49337 0.48746 0.52996 0.0
C1077 C 0.51901 0.52405 0.44487 0.0
C1078 C 0.50997 0.51158 0.47418 0.0
H1079 H 0.44366 0.44914 0.57141 0.0
H1080 H 0.46046 0.46707 0.52245 0.0
H1081 H 0.50066 0.50993 0.5699 0.0
H1082 H 0.55892 0.55057 0.4314 0.0
H1083 H 0.54284 0.53214 0.4807 0.0
C1084 C 0.20593 0.79352 0.67004 0.0
C1085 C 0.20519 0.78684 0.63208 0.0
C1086 C 0.21617 0.78369 0.69802 0.0
C1087 C 0.25609 0.75006 0.70765 0.0
H1088 H 0.23946 0.74732 0.8134 0.0
C1089 C 0.29523 0.706 0.82369 0.0
C1090 C 0.29626 0.71356 0.86096 0.0
C1091 C 0.28467 0.71515 0.79519 0.0
C1092 C 0.24443 0.74818 0.78408 0.0
H1093 H 0.21395 0.76395 0.59438 0.0
H1094 H 0.23158 0.74662 0.64344 0.0
H1095 H 0.21875 0.76154 0.76536 0.0
H1096 H 0.28765 0.73722 0.89684 0.0
H1097 H 0.26942 0.75326 0.84698 0.0
H1098 H 0.28177 0.73666 0.72644 0.0
C1099 C 0.22451 0.75972 0.65132 0.0
C1100 C 0.23251 0.75628 0.7565 0.0
C1101 C 0.21424 0.76957 0.62326 0.0
C1102 C 0.28713 0.73093 0.86853 0.0
C1103 C 0.27652 0.74005 0.84004 0.0
C1104 C 0.26799 0.74191 0.73525 0.0
C1105 C 0.22594 0.76688 0.68885 0.0
C1106 C 0.23821 0.75741 0.71794 0.0
C1107 C 0.27485 0.73208 0.80324 0.0
C1108 C 0.26234 0.74095 0.77384 0.0
H1109 H 0.19915 0.80677 0.67796 0.0
H1110 H 0.21706 0.78972 0.7265 0.0
H1111 H 0.2611 0.75099 0.67838 0.0
H1112 H 0.30205 0.69265 0.81676 0.0
H1113 H 0.28361 0.70855 0.76725 0.0
C1114 C 0.9793 0.46403 0.87797 0.0
C1115 C 0.96152 0.45589 0.88629 0.0
C1116 C 0.98901 0.47466 0.90563 0.0
C1117 C 0.98018 0.50253 0.99357 0.0
H1118 H 0.03493 0.50069 0.00446 0.0
C1119 C 0.02041 0.53961 0.11763 0.0
C1120 C 0.03828 0.54764 0.1097 0.0
C1121 C 0.0107 0.52919 0.08965 0.0
C1122 C 0.01965 0.50158 0.00144 0.0
H1123 H 0.94046 0.45188 0.931 0.0
H1124 H 0.95752 0.47015 0.97925 0.0
H1125 H 0.01926 0.47994 0.95832 0.0
H1126 H 0.0595 0.55172 0.06532 0.0
H1127 H 0.04244 0.53382 0.01649 0.0
H1128 H 0.98056 0.52417 0.0367 0.0
C1129 C 0.96378 0.46863 0.95108 0.0
C1130 C 0.01066 0.48963 0.97502 0.0
C1131 C 0.95407 0.458 0.92346 0.0
C1132 C 0.04581 0.54568 0.07257 0.0
C1133 C 0.0361 0.53525 0.04462 0.0
C1134 C 0.98917 0.51449 0.01998 0.0
C1135 C 0.98119 0.47742 0.94229 0.0
C1136 C 0.9908 0.48993 0.97079 0.0
C1137 C 0.01861 0.52654 0.05303 0.0
C1138 C 0.00902 0.51416 0.02427 0.0
H1139 H 0.98548 0.46274 0.84967 0.0
H1140 H 0.00233 0.48131 0.89777 0.0
H1141 H 0.96489 0.50341 0.99057 0.0
H1142 H 0.01416 0.54079 0.14589 0.0
H1143 H 0.99732 0.52259 0.09724 0.0
C1144 C 0.79504 0.70523 0.67373 0.0
C1145 C 0.79598 0.71263 0.63631 0.0
C1146 C 0.78437 0.71436 0.70201 0.0
C1147 C 0.74374 0.74701 0.71238 0.0
H1148 H 0.75982 0.74929 0.81851 0.0
C1149 C 0.70495 0.79147 0.82766 0.0
C1150 C 0.70422 0.78441 0.86536 0.0
C1151 C 0.715 0.78178 0.79922 0.0
C1152 C 0.75498 0.74851 0.7891 0.0
H1153 H 0.78713 0.73604 0.59997 0.0
H1154 H 0.76876 0.75212 0.64955 0.0
H1155 H 0.78092 0.73557 0.77059 0.0
H1156 H 0.71256 0.76092 0.90199 0.0
H1157 H 0.72987 0.74388 0.85215 0.0
H1158 H 0.71783 0.76003 0.7309 0.0
C1159 C 0.77599 0.73902 0.65674 0.0
C1160 C 0.76712 0.74071 0.76158 0.0
C1161 C 0.7867 0.72989 0.62841 0.0
C1162 C 0.71286 0.76683 0.87333 0.0
C1163 C 0.72296 0.75715 0.84485 0.0
C1164 C 0.7316 0.75482 0.7399 0.0
C1165 C 0.77436 0.73113 0.69365 0.0
C1166 C 0.76167 0.73989 0.72286 0.0
C1167 C 0.72458 0.76477 0.80773 0.0
C1168 C 0.73708 0.75569 0.7786 0.0
H1169 H 0.80199 0.69196 0.68091 0.0
H1170 H 0.78335 0.70782 0.73003 0.0
H1171 H 0.73892 0.74627 0.68295 0.0
H1172 H 0.69844 0.80495 0.82041 0.0
H1173 H 0.71601 0.78812 0.77101 0.0
C1174 C 0.71107 0.27051 0.13261 0.0
C1175 C 0.70278 0.28834 0.1398 0.0
C1176 C 0.72133 0.26109 0.1612 0.0
C1177 C 0.74784 0.27071 0.2506 0.0
H1178 H 0.74666 0.21591 0.26157 0.0
C1179 C 0.7845 0.23048 0.37565 0.0
C1180 C 0.79301 0.21287 0.36731 0.0
C1181 C 0.77411 0.24022 0.34764 0.0
C1182 C 0.74735 0.23122 0.25856 0.0
H1183 H 0.6981 0.30979 0.18347 0.0
H1184 H 0.71568 0.29319 0.23341 0.0
H1185 H 0.72616 0.23124 0.21457 0.0
H1186 H 0.79803 0.19224 0.3222 0.0
H1187 H 0.78017 0.20933 0.27344 0.0
H1188 H 0.76901 0.27066 0.29472 0.0
C1189 C 0.71459 0.28668 0.20539 0.0
C1190 C 0.73555 0.24001 0.23165 0.0
C1191 C 0.70434 0.29612 0.1768 0.0
C1192 C 0.7916 0.2057 0.3298 0.0
C1193 C 0.7812 0.21542 0.30186 0.0
C1194 C 0.75963 0.26191 0.27759 0.0
C1195 C 0.72354 0.26923 0.19774 0.0
C1196 C 0.73567 0.25987 0.22723 0.0
C1197 C 0.77197 0.23258 0.31065 0.0
C1198 C 0.75958 0.24204 0.2818 0.0
H1199 H 0.7102 0.26408 0.10447 0.0
H1200 H 0.72813 0.24774 0.15416 0.0
H1201 H 0.74857 0.28601 0.24754 0.0
H1202 H 0.78525 0.23644 0.40422 0.0
H1203 H 0.76712 0.25337 0.35544 0.0
C1204 C 0.98297 0.96379 0.12257 0.0
C1205 C 0.9657 0.9548 0.11342 0.0
C1206 C 0.99306 0.9739 0.09463 0.0
C1207 C 0.99702 0.98176 0.98943 0.0
H1208 H 0.01645 0.03112 0.0196 0.0
C1209 C 0.0217 0.03666 0.87754 0.0
C1210 C 0.03909 0.04583 0.88479 0.0
C1211 C 0.01277 0.02599 0.90616 0.0
C1212 C 0.01125 0.01731 0.01078 0.0
H1213 H 0.94607 0.94863 0.06708 0.0
H1214 H 0.96352 0.96628 0.01873 0.0
H1215 H 0.00208 0.01039 0.06756 0.0
H1216 H 0.06022 0.05166 0.92856 0.0
H1217 H 0.04458 0.03311 0.97838 0.0
H1218 H 0.00602 0.98877 0.93258 0.0
C1219 C 0.96937 0.96546 0.04738 0.0
C1220 C 0.00309 0.00537 0.03831 0.0
C1221 C 0.9593 0.95537 0.07525 0.0
C1222 C 0.04684 0.0448 0.9219 0.0
C1223 C 0.03786 0.03418 0.95055 0.0
C1224 C 0.00512 0.99372 0.96191 0.0
C1225 C 0.98615 0.97523 0.05689 0.0
C1226 C 0.99578 0.98748 0.02795 0.0
C1227 C 0.02094 0.02429 0.94276 0.0
C1228 C 0.01225 0.01168 0.97219 0.0
H1229 H 0.98837 0.96361 0.15163 0.0
H1230 H 0.00612 0.98095 0.10277 0.0
H1231 H 0.99181 0.96797 0.98052 0.0
H1232 H 0.01527 0.03718 0.84937 0.0
H1233 H 0.99955 0.01884 0.89944 0.0
C1234 C 0.48145 0.96129 0.38283 0.0
C1235 C 0.46299 0.95419 0.38864 0.0
C1236 C 0.49069 0.97155 0.41163 0.0
C1237 C 0.48992 0.98278 0.51544 0.0
H1238 H 0.51526 0.02904 0.48315 0.0
C1239 C 0.51811 0.03706 0.62543 0.0
C1240 C 0.53644 0.04432 0.61871 0.0
C1241 C 0.50851 0.02691 0.59692 0.0
C1242 C 0.5084 0.0161 0.49265 0.0
H1243 H 0.44021 0.95154 0.43022 0.0
H1244 H 0.45635 0.9694 0.48034 0.0
H1245 H 0.50077 0.00835 0.4354 0.0
H1246 H 0.5586 0.0473 0.57588 0.0
H1247 H 0.54194 0.02958 0.52643 0.0
H1248 H 0.49761 0.99047 0.57269 0.0
C1249 C 0.46369 0.967 0.45352 0.0
C1250 C 0.50013 0.00419 0.46524 0.0
C1251 C 0.45442 0.95676 0.42469 0.0
C1252 C 0.54451 0.04197 0.58214 0.0
C1253 C 0.53491 0.03181 0.55366 0.0
C1254 C 0.49821 0.99467 0.54286 0.0
C1255 C 0.48175 0.97493 0.447 0.0
C1256 C 0.49083 0.98736 0.47627 0.0
C1257 C 0.51698 0.02377 0.56097 0.0
C1258 C 0.50758 0.01148 0.53182 0.0
H1259 H 0.48855 0.95951 0.35553 0.0
H1260 H 0.50476 0.97713 0.40595 0.0
H1261 H 0.48304 0.96983 0.52489 0.0
H1262 H 0.5114 0.03866 0.65317 0.0
H1263 H 0.49455 0.02125 0.60326 0.0
C1264 C 0.1406 0.09741 0.88381 0.0
C1265 C 0.13537 0.07892 0.8949 0.0
C1266 C 0.15691 0.1059 0.89856 0.0
C1267 C 0.19041 0.10465 0.97879 0.0
H1268 H 0.22356 0.13127 0.90798 0.0
C1269 C 0.26294 0.1352 0.02504 0.0
C1270 C 0.26803 0.15316 0.0106 0.0
C1271 C 0.24701 0.12567 0.01097 0.0
C1272 C 0.21435 0.12409 0.9282 0.0
H1273 H 0.14304 0.055 0.93094 0.0
H1274 H 0.17166 0.06998 0.95698 0.0
H1275 H 0.19523 0.11534 0.88398 0.0
H1276 H 0.26032 0.17517 0.96994 0.0
H1277 H 0.23235 0.15866 0.94575 0.0
H1278 H 0.2094 0.11362 0.02312 0.0
C1279 C 0.16302 0.07783 0.93676 0.0
C1280 C 0.19815 0.11493 0.91444 0.0
C1281 C 0.14668 0.06925 0.92176 0.0
C1282 C 0.25685 0.16134 0.98161 0.0
C1283 C 0.24086 0.15182 0.9676 0.0
C1284 C 0.20659 0.1139 0.99262 0.0
C1285 C 0.16839 0.09617 0.92493 0.0
C1286 C 0.18595 0.10522 0.9396 0.0
C1287 C 0.23575 0.13389 0.98218 0.0
C1288 C 0.2187 0.12381 0.96749 0.0
H1289 H 0.13222 0.10534 0.86337 0.0
H1290 H 0.16051 0.12016 0.88939 0.0
H1291 H 0.18115 0.09746 0.99889 0.0
H1292 H 0.27127 0.12841 0.04726 0.0
H1293 H 0.24364 0.11177 0.02241 0.0
C1294 C 0.59087 0.50907 0.22795 0.0
C1295 C 0.5992 0.52137 0.25484 0.0
C1296 C 0.60084 0.49332 0.21423 0.0
C1297 C 0.64123 0.4617 0.23771 0.0
H1298 H 0.63538 0.44615 0.13181 0.0
C1299 C 0.68387 0.40001 0.1672 0.0
C1300 C 0.67303 0.38737 0.14494 0.0
C1301 C 0.67575 0.41676 0.18137 0.0
C1302 C 0.63707 0.45028 0.16151 0.0
H1303 H 0.62474 0.52691 0.28788 0.0
H1304 H 0.64224 0.49968 0.26335 0.0
H1305 H 0.61979 0.47498 0.1542 0.0
H1306 H 0.64504 0.38228 0.1209 0.0
H1307 H 0.63106 0.41138 0.14525 0.0
H1308 H 0.65865 0.43695 0.24473 0.0
C1309 C 0.62785 0.50199 0.25342 0.0
C1310 C 0.6281 0.46676 0.17439 0.0
C1311 C 0.61784 0.51769 0.2673 0.0
C1312 C 0.65386 0.39169 0.13771 0.0
C1313 C 0.64584 0.40845 0.1515 0.0
C1314 C 0.65034 0.44527 0.2247 0.0
C1315 C 0.61943 0.48955 0.22688 0.0
C1316 C 0.62984 0.47255 0.21278 0.0
C1317 C 0.65672 0.42124 0.17315 0.0
C1318 C 0.64812 0.43926 0.18661 0.0
H1319 H 0.5765 0.51141 0.21786 0.0
H1320 H 0.59379 0.48389 0.19427 0.0
H1321 H 0.6427 0.46561 0.26757 0.0
H1322 H 0.69865 0.39708 0.17336 0.0
H1323 H 0.68446 0.42641 0.19797 0.0
C1324 C 0.23722 0.86838 0.52385 0.0
C1325 C 0.23229 0.85085 0.5072 0.0
C1326 C 0.25346 0.87816 0.51185 0.0
C1327 C 0.29954 0.87026 0.4646 0.0
H1328 H 0.29883 0.92468 0.44695 0.0
C1329 C 0.35937 0.90794 0.38342 0.0
C1330 C 0.36556 0.92583 0.39624 0.0
C1331 C 0.34333 0.89939 0.39925 0.0
C1332 C 0.29933 0.90953 0.4523 0.0
H1333 H 0.24045 0.83005 0.46434 0.0
H1334 H 0.26865 0.84715 0.44335 0.0
H1335 H 0.27014 0.90867 0.46972 0.0
H1336 H 0.35966 0.94878 0.43593 0.0
H1337 H 0.33158 0.93368 0.46398 0.0
H1338 H 0.32862 0.87102 0.44713 0.0
C1339 C 0.26009 0.85321 0.46604 0.0
C1340 C 0.28289 0.90036 0.46526 0.0
C1341 C 0.24384 0.84346 0.47793 0.0
C1342 C 0.35526 0.935 0.42537 0.0
C1343 C 0.33914 0.92639 0.44131 0.0
C1344 C 0.31593 0.87941 0.45177 0.0
C1345 C 0.26517 0.87058 0.48306 0.0
C1346 C 0.28276 0.88058 0.47101 0.0
C1347 C 0.33304 0.90844 0.42846 0.0
C1348 C 0.31595 0.8991 0.44489 0.0
H1349 H 0.22865 0.87449 0.54648 0.0
H1350 H 0.25707 0.89145 0.52569 0.0
H1351 H 0.30001 0.85508 0.46957 0.0
H1352 H 0.36681 0.90049 0.36088 0.0
H1353 H 0.33884 0.88574 0.38813 0.0
C1354 C 0.84494 0.6095 0.63891 0.0
C1355 C 0.82554 0.61341 0.64423 0.0
C1356 C 0.85289 0.59275 0.65296 0.0
C1357 C 0.84739 0.5552 0.72423 0.0
H1358 H 0.87934 0.52633 0.65493 0.0
C1359 C 0.88013 0.48287 0.76717 0.0
C1360 C 0.89893 0.47942 0.75546 0.0
C1361 C 0.87012 0.49854 0.75311 0.0
C1362 C 0.87065 0.53431 0.67482 0.0
H1363 H 0.7994 0.60303 0.66966 0.0
H1364 H 0.81348 0.57373 0.69481 0.0
H1365 H 0.86394 0.55524 0.63243 0.0
H1366 H 0.92193 0.48979 0.71973 0.0
H1367 H 0.90469 0.51728 0.69596 0.0
H1368 H 0.8545 0.53458 0.76697 0.0
C1369 C 0.82243 0.58368 0.67946 0.0
C1370 C 0.86178 0.55083 0.66186 0.0
C1371 C 0.81438 0.60041 0.66499 0.0
C1372 C 0.90744 0.49194 0.72919 0.0
C1373 C 0.89749 0.50767 0.71537 0.0
C1374 C 0.85643 0.53873 0.73735 0.0
C1375 C 0.8417 0.57958 0.67301 0.0
C1376 C 0.85022 0.56154 0.68652 0.0
C1377 C 0.87872 0.5112 0.72719 0.0
C1378 C 0.86833 0.52819 0.71289 0.0
H1379 H 0.85401 0.61922 0.62335 0.0
H1380 H 0.86786 0.5901 0.64812 0.0
H1381 H 0.83866 0.56328 0.7439 0.0
H1382 H 0.8731 0.47346 0.78725 0.0
H1383 H 0.8556 0.50066 0.7624 0.0
C1384 C 0.74041 0.86364 0.98637 0.0
C1385 C 0.7378 0.84392 0.98998 0.0
C1386 C 0.75751 0.87204 0.9975 0.0
C1387 C 0.80761 0.86371 0.00524 0.0
H1388 H 0.80822 0.90268 0.08365 0.0
C1389 C 0.87753 0.89108 0.07172 0.0
C1390 C 0.87817 0.90974 0.08575 0.0
C1391 C 0.86055 0.88357 0.05754 0.0
C1392 C 0.80835 0.89214 0.06109 0.0
H1393 H 0.75101 0.81751 0.00776 0.0
H1394 H 0.7812 0.83224 0.02616 0.0
H1395 H 0.77812 0.88868 0.06397 0.0
H1396 H 0.86201 0.93557 0.0941 0.0
H1397 H 0.83268 0.92295 0.06729 0.0
H1398 H 0.83764 0.86749 0.00106 0.0
C1399 C 0.76987 0.84112 0.01515 0.0
C1400 C 0.79109 0.88402 0.05015 0.0
C1401 C 0.75261 0.83276 0.00487 0.0
C1402 C 0.86182 0.92107 0.08371 0.0
C1403 C 0.84496 0.91373 0.06871 0.0
C1404 C 0.82486 0.87211 0.01553 0.0
C1405 C 0.77242 0.86081 0.01155 0.0
C1406 C 0.79063 0.86965 0.02243 0.0
C1407 C 0.84394 0.89471 0.05634 0.0
C1408 C 0.8255 0.88634 0.04388 0.0
H1409 H 0.72921 0.87258 0.97509 0.0
H1410 H 0.75924 0.88727 0.99449 0.0
H1411 H 0.8075 0.85274 0.98347 0.0
H1412 H 0.88991 0.88197 0.07339 0.0
H1413 H 0.86035 0.8688 0.04891 0.0
C1414 C 0.38215 0.48465 0.7304 0.0
C1415 C 0.40106 0.48154 0.74188 0.0
C1416 C 0.3724 0.50091 0.74227 0.0
C1417 C 0.38049 0.54974 0.77416 0.0
H1418 H 0.32977 0.5466 0.817 0.0
C1419 C 0.34688 0.61225 0.85464 0.0
C1420 C 0.32723 0.61541 0.85151 0.0
C1421 C 0.35518 0.59617 0.83845 0.0
C1422 C 0.34379 0.54778 0.80447 0.0
H1423 H 0.42446 0.49303 0.77512 0.0
H1424 H 0.40745 0.52145 0.7955 0.0
H1425 H 0.34553 0.51777 0.79458 0.0
H1426 H 0.30094 0.60432 0.82806 0.0
H1427 H 0.31555 0.57635 0.7989 0.0
H1428 H 0.37882 0.57968 0.78358 0.0
C1429 C 0.40023 0.51131 0.77723 0.0
C1430 C 0.35283 0.53125 0.7918 0.0
C1431 C 0.40992 0.49497 0.76575 0.0
C1432 C 0.31611 0.60227 0.83111 0.0
C1433 C 0.32447 0.58618 0.81462 0.0
C1434 C 0.37141 0.56626 0.78645 0.0
C1435 C 0.38142 0.51449 0.76545 0.0
C1436 C 0.37138 0.53205 0.7771 0.0
C1437 C 0.3441 0.58288 0.81834 0.0
C1438 C 0.35307 0.56547 0.80237 0.0
H1439 H 0.37489 0.47457 0.71207 0.0
H1440 H 0.35793 0.50307 0.73266 0.0
H1441 H 0.39467 0.5508 0.76227 0.0
H1442 H 0.35589 0.62201 0.87022 0.0
H1443 H 0.37026 0.59396 0.84255 0.0
C1444 C 0.75444 0.15855 0.52441 0.0
C1445 C 0.76642 0.15081 0.49625 0.0
C1446 C 0.73831 0.14868 0.53658 0.0
C1447 C 0.71684 0.10099 0.54098 0.0
H1448 H 0.66993 0.12914 0.55346 0.0
C1449 C 0.64546 0.06447 0.58023 0.0
C1450 C 0.63428 0.07393 0.6076 0.0
C1451 C 0.66138 0.07341 0.56422 0.0
C1452 C 0.68294 0.12109 0.55045 0.0
H1453 H 0.77095 0.12641 0.45926 0.0
H1454 H 0.74279 0.10925 0.48056 0.0
H1455 H 0.69836 0.14552 0.53137 0.0
H1456 H 0.63112 0.10023 0.63944 0.0
H1457 H 0.6588 0.11553 0.61229 0.0
H1458 H 0.70146 0.07659 0.56065 0.0
C1459 C 0.74595 0.12292 0.49331 0.0
C1460 C 0.69924 0.13049 0.5378 0.0
C1461 C 0.76205 0.13282 0.481 0.0
C1462 C 0.63931 0.0925 0.61839 0.0
C1463 C 0.65517 0.10137 0.60256 0.0
C1464 C 0.70053 0.09157 0.55382 0.0
C1465 C 0.73382 0.13082 0.52099 0.0
C1466 C 0.71641 0.1206 0.53331 0.0
C1467 C 0.66641 0.09198 0.57527 0.0
C1468 C 0.68345 0.10157 0.55913 0.0
H1469 H 0.7574 0.17234 0.53686 0.0
H1470 H 0.72937 0.15502 0.55836 0.0
H1471 H 0.72991 0.09301 0.53803 0.0
H1472 H 0.64196 0.05017 0.57121 0.0
H1473 H 0.66966 0.06585 0.54298 0.0
C1474 C 0.1185 0.51834 0.22923 0.0
C1475 C 0.0996 0.5217 0.24048 0.0
C1476 C 0.12818 0.50222 0.24211 0.0
C1477 C 0.11988 0.45392 0.27724 0.0
H1478 H 0.17102 0.45733 0.31792 0.0
C1479 C 0.1542 0.39202 0.35877 0.0
C1480 C 0.17378 0.38874 0.35473 0.0
C1481 C 0.14576 0.40802 0.34251 0.0
C1482 C 0.15687 0.45606 0.30603 0.0
H1483 H 0.07616 0.51083 0.27444 0.0
H1484 H 0.09307 0.48266 0.29666 0.0
H1485 H 0.15518 0.48595 0.29457 0.0
H1486 H 0.19981 0.39955 0.32963 0.0
H1487 H 0.18495 0.42737 0.30036 0.0
H1488 H 0.12151 0.4241 0.28819 0.0
C1489 C 0.10032 0.49248 0.27774 0.0
C1490 C 0.14779 0.47248 0.29283 0.0
C1491 C 0.09069 0.50868 0.2652 0.0
C1492 C 0.18469 0.4017 0.3334 0.0
C1493 C 0.17619 0.41771 0.31684 0.0
C1494 C 0.129 0.43751 0.29008 0.0
C1495 C 0.11912 0.48904 0.26615 0.0
C1496 C 0.1291 0.47159 0.2788 0.0
C1497 C 0.15663 0.42111 0.32141 0.0
C1498 C 0.14751 0.4384 0.30518 0.0
H1499 H 0.1258 0.52809 0.21025 0.0
H1500 H 0.14263 0.49986 0.23257 0.0
H1501 H 0.1056 0.45277 0.26589 0.0
H1502 H 0.14535 0.3824 0.37508 0.0
H1503 H 0.13074 0.41032 0.34728 0.0
C1504 C 0.64895 0.56629 0.41833 0.0
C1505 C 0.63599 0.57713 0.39682 0.0
C1506 C 0.66552 0.57464 0.43282 0.0
C1507 C 0.69813 0.61408 0.41388 0.0
H1508 H 0.71441 0.60772 0.5192 0.0
C1509 C 0.75735 0.66011 0.47909 0.0
C1510 C 0.76996 0.65165 0.50522 0.0
C1511 C 0.74145 0.65019 0.46597 0.0
C1512 C 0.71023 0.6094 0.48953 0.0
H1513 H 0.63007 0.60536 0.37472 0.0
H1514 H 0.6589 0.61973 0.39958 0.0
H1515 H 0.68574 0.59161 0.49675 0.0
H1516 H 0.77587 0.62597 0.5376 0.0
H1517 H 0.74836 0.60855 0.51401 0.0
H1518 H 0.72258 0.63165 0.40628 0.0
C1519 C 0.65634 0.60478 0.40497 0.0
C1520 C 0.69379 0.60021 0.47676 0.0
C1521 C 0.63975 0.59653 0.39088 0.0
C1522 C 0.7664 0.63296 0.5176 0.0
C1523 C 0.75055 0.62299 0.50427 0.0
C1524 C 0.71462 0.62311 0.42649 0.0
C1525 C 0.6695 0.59389 0.42568 0.0
C1526 C 0.68745 0.60268 0.43895 0.0
C1527 C 0.73783 0.63152 0.47839 0.0
C1528 C 0.72076 0.6211 0.46461 0.0
H1529 H 0.64644 0.55132 0.4235 0.0
H1530 H 0.67547 0.56592 0.44869 0.0
H1531 H 0.69373 0.61596 0.38437 0.0
H1532 H 0.75959 0.67452 0.46913 0.0
H1533 H 0.7318 0.65733 0.44657 0.0
C1534 C 0.11853 0.01813 0.76139 0.0
C1535 C 0.09935 0.02076 0.75153 0.0
C1536 C 0.12855 0.00231 0.7481 0.0
C1537 C 0.1267 0.96414 0.67459 0.0
H1538 H 0.1624 0.93883 0.74218 0.0
C1539 C 0.15552 0.88958 0.64305 0.0
C1540 C 0.17533 0.88722 0.64498 0.0
C1541 C 0.14698 0.90603 0.65704 0.0
C1542 C 0.15259 0.94587 0.72293 0.0
H1543 H 0.07564 0.00879 0.72 0.0
H1544 H 0.09291 0.98101 0.69768 0.0
H1545 H 0.14599 0.96741 0.76404 0.0
H1546 H 0.20161 0.90002 0.66471 0.0
H1547 H 0.18651 0.92877 0.68989 0.0
H1548 H 0.13296 0.94226 0.63395 0.0
C1549 C 0.1004 0.99137 0.71493 0.0
C1550 C 0.14323 0.96228 0.73534 0.0
C1551 C 0.09044 0.00727 0.72792 0.0
C1552 C 0.18633 0.90142 0.66266 0.0
C1553 C 0.1777 0.91785 0.67713 0.0
C1554 C 0.13589 0.94765 0.66242 0.0
C1555 C 0.11958 0.98866 0.72488 0.0
C1556 C 0.13006 0.97155 0.71139 0.0
C1557 C 0.15798 0.92044 0.67374 0.0
C1558 C 0.14882 0.93828 0.68654 0.0
H1559 H 0.12587 0.02831 0.77937 0.0
H1560 H 0.14338 0.00087 0.75583 0.0
H1561 H 0.11701 0.97111 0.65503 0.0
H1562 H 0.14657 0.8789 0.62999 0.0
H1563 H 0.13171 0.90754 0.65462 0.0
C1564 C 0.74265 0.33871 0.98359 0.0
C1565 C 0.7289 0.34804 0.00591 0.0
C1566 C 0.75885 0.3484 0.97113 0.0
C1567 C 0.77776 0.39579 0.95076 0.0
H1568 H 0.82684 0.37203 0.9662 0.0
C1569 C 0.84779 0.43469 0.91379 0.0
C1570 C 0.8621 0.42374 0.8965 0.0
C1571 C 0.83174 0.42594 0.92961 0.0
C1572 C 0.81326 0.3788 0.96122 0.0
H1573 H 0.72115 0.37499 0.03179 0.0
H1574 H 0.74932 0.39193 0.00947 0.0
H1575 H 0.79812 0.35568 0.98696 0.0
H1576 H 0.87087 0.39496 0.8829 0.0
H1577 H 0.84285 0.37986 0.90917 0.0
H1578 H 0.79275 0.41868 0.92405 0.0
C1579 C 0.74757 0.37711 0.00184 0.0
C1580 C 0.79682 0.36942 0.9732 0.0
C1581 C 0.7315 0.36737 0.01473 0.0
C1582 C 0.86016 0.40386 0.89598 0.0
C1583 C 0.84409 0.39516 0.9114 0.0
C1584 C 0.7942 0.4051 0.93833 0.0
C1585 C 0.7615 0.36766 0.98029 0.0
C1586 C 0.77891 0.37777 0.96791 0.0
C1587 C 0.8296 0.40606 0.92822 0.0
C1588 C 0.81216 0.39666 0.94319 0.0
H1589 H 0.7411 0.32383 0.97633 0.0
H1590 H 0.76929 0.34084 0.95421 0.0
H1591 H 0.7641 0.40249 0.94611 0.0
H1592 H 0.84889 0.45003 0.91484 0.0
H1593 H 0.82102 0.43478 0.94289 0.0
C1594 C 0.38763 0.98846 0.25936 0.0
C1595 C 0.40725 0.98536 0.25577 0.0
C1596 C 0.37961 0.00571 0.2478 0.0
C1597 C 0.3902 0.04945 0.19095 0.0
H1598 H 0.34764 0.0699 0.24818 0.0
C1599 C 0.36321 0.12624 0.17206 0.0
C1600 C 0.34397 0.12746 0.16172 0.0
C1601 C 0.37072 0.10915 0.18569 0.0
C1602 C 0.35951 0.06429 0.23199 0.0
H1603 H 0.43389 0.99791 0.23751 0.0
H1604 H 0.42013 0.02817 0.21891 0.0
H1605 H 0.36131 0.0394 0.26685 0.0
H1606 H 0.31729 0.11211 0.1592 0.0
H1607 H 0.33035 0.08236 0.18427 0.0
H1608 H 0.38868 0.07477 0.15699 0.0
C1609 C 0.41073 0.01715 0.22938 0.0
C1610 C 0.36727 0.04675 0.2424 0.0
C1611 C 0.41868 0.9998 0.24025 0.0
C1612 C 0.33218 0.11155 0.16694 0.0
C1613 C 0.33961 0.09457 0.18133 0.0
C1614 C 0.38267 0.06713 0.18108 0.0
C1615 C 0.39108 0.02038 0.23304 0.0
C1616 C 0.3827 0.03904 0.22193 0.0
C1617 C 0.35902 0.09313 0.18998 0.0
C1618 C 0.36725 0.07467 0.20143 0.0
H1619 H 0.37845 0.97754 0.271 0.0
H1620 H 0.36439 0.00746 0.25032 0.0
H1621 H 0.40176 0.04387 0.17391 0.0
H1622 H 0.37266 0.13824 0.16809 0.0
H1623 H 0.38572 0.10836 0.19239 0.0
C1624 C 0.24355 0.34202 0.51929 0.0
C1625 C 0.23005 0.35127 0.49622 0.0
C1626 C 0.25993 0.35153 0.53125 0.0
C1627 C 0.28004 0.3987 0.5485 0.0
H1628 H 0.32842 0.37318 0.53561 0.0
C1629 C 0.35115 0.43569 0.5851 0.0
C1630 C 0.36484 0.4245 0.60379 0.0
C1631 C 0.33494 0.4273 0.56918 0.0
C1632 C 0.31503 0.38045 0.53983 0.0
H1633 H 0.22293 0.37797 0.46853 0.0
H1634 H 0.25144 0.39463 0.48997 0.0
H1635 H 0.2993 0.35745 0.51519 0.0
H1636 H 0.37236 0.39567 0.6198 0.0
H1637 H 0.34407 0.38119 0.5932 0.0
H1638 H 0.29564 0.42148 0.57413 0.0
C1639 C 0.24934 0.37999 0.49857 0.0
C1640 C 0.29836 0.37143 0.52805 0.0
C1641 C 0.23306 0.37041 0.4862 0.0
C1642 C 0.36215 0.40474 0.60559 0.0
C1643 C 0.34593 0.39639 0.59001 0.0
C1644 C 0.29671 0.40766 0.56069 0.0
C1645 C 0.26304 0.37056 0.52079 0.0
C1646 C 0.2807 0.3804 0.53253 0.0
C1647 C 0.33204 0.40755 0.57182 0.0
C1648 C 0.31441 0.39857 0.5568 0.0
H1649 H 0.24169 0.32729 0.52751 0.0
H1650 H 0.27017 0.34401 0.54875 0.0
H1651 H 0.26658 0.40588 0.55249 0.0
H1652 H 0.35284 0.45096 0.58307 0.0
H1653 H 0.32468 0.4363 0.55486 0.0
C1654 C 0.82091 0.11022 0.31092 0.0
C1655 C 0.82691 0.11775 0.34621 0.0
C1656 C 0.82923 0.09362 0.2964 0.0
C1657 C 0.85707 0.05166 0.32761 0.0
H1658 H 0.87068 0.04755 0.22032 0.0
C1659 C 0.90786 0.99391 0.27141 0.0
C1660 C 0.90265 0.98459 0.23739 0.0
C1661 C 0.8978 0.00986 0.2839 0.0
C1662 C 0.86678 0.04843 0.25028 0.0
H1663 H 0.84645 0.11373 0.39363 0.0
H1664 H 0.86102 0.08531 0.36824 0.0
H1665 H 0.85421 0.07593 0.24319 0.0
H1666 H 0.88285 0.98486 0.18965 0.0
H1667 H 0.8654 0.01272 0.2115 0.0
H1668 H 0.86991 0.02434 0.33486 0.0
C1669 C 0.8497 0.09193 0.352 0.0
C1670 C 0.8573 0.06465 0.26335 0.0
C1671 C 0.84142 0.1084 0.36644 0.0
C1672 C 0.88724 0.99167 0.21604 0.0
C1673 C 0.87729 0.0077 0.22839 0.0
C1674 C 0.86661 0.03554 0.31461 0.0
C1675 C 0.84364 0.08424 0.31696 0.0
C1676 C 0.85255 0.06654 0.30228 0.0
C1677 C 0.88242 0.01692 0.26251 0.0
C1678 C 0.87174 0.03382 0.2759 0.0
H1679 H 0.80976 0.11707 0.29462 0.0
H1680 H 0.82417 0.08798 0.26939 0.0
H1681 H 0.85326 0.05248 0.35763 0.0
H1682 H 0.91966 0.98885 0.28852 0.0
H1683 H 0.90221 0.01681 0.31012 0.0
C1684 C 0.14123 0.59732 0.10599 0.0
C1685 C 0.13816 0.57765 0.10264 0.0
C1686 C 0.15789 0.60556 0.09218 0.0
C1687 C 0.19679 0.59978 0.02424 0.0
H1688 H 0.22356 0.63404 0.09255 0.0
C1689 C 0.26897 0.63329 0.9834 0.0
C1690 C 0.27193 0.65237 0.99379 0.0
C1691 C 0.25326 0.62328 0.99725 0.0
C1692 C 0.21616 0.62471 0.07291 0.0
H1693 H 0.14993 0.5513 0.08081 0.0
H1694 H 0.17904 0.56588 0.05599 0.0
H1695 H 0.19469 0.61832 0.11437 0.0
H1696 H 0.26067 0.67587 0.02694 0.0
H1697 H 0.23307 0.65861 0.05028 0.0
H1698 H 0.21792 0.60654 0.98236 0.0
C1699 C 0.16852 0.57482 0.06967 0.0
C1700 C 0.19967 0.61565 0.08549 0.0
C1701 C 0.15189 0.56649 0.08395 0.0
C1702 C 0.25889 0.66116 0.01855 0.0
C1703 C 0.2431 0.65121 0.03212 0.0
C1704 C 0.21321 0.60901 0.01146 0.0
C1705 C 0.17178 0.59438 0.07428 0.0
C1706 C 0.18973 0.60323 0.0612 0.0
C1707 C 0.24005 0.63215 0.02159 0.0
C1708 C 0.22302 0.62171 0.03556 0.0
H1709 H 0.13094 0.60639 0.11993 0.0
H1710 H 0.15991 0.62073 0.09556 0.0
H1711 H 0.1893 0.59038 0.00486 0.0
H1712 H 0.2788 0.62604 0.96454 0.0
H1713 H 0.25154 0.60854 0.98903 0.0
C1714 C 0.61474 0.01117 0.74452 0.0
C1715 C 0.59498 0.01342 0.74732 0.0
C1716 C 0.62336 0.99419 0.75597 0.0
C1717 C 0.61366 0.94956 0.81094 0.0
H1718 H 0.65847 0.93159 0.75745 0.0
C1719 C 0.64352 0.87354 0.82646 0.0
C1720 C 0.66195 0.87318 0.84182 0.0
C1721 C 0.63582 0.89053 0.81276 0.0
C1722 C 0.64596 0.93652 0.77254 0.0
H1723 H 0.56868 0.99957 0.76359 0.0
H1724 H 0.58345 0.96975 0.78169 0.0
H1725 H 0.64384 0.9616 0.73831 0.0
H1726 H 0.68712 0.89 0.8533 0.0
H1727 H 0.67382 0.91963 0.82791 0.0
H1728 H 0.61549 0.92396 0.84404 0.0
C1729 C 0.59252 0.98125 0.7722 0.0
C1730 C 0.63765 0.95378 0.76191 0.0
C1731 C 0.58399 0.99835 0.76158 0.0
C1732 C 0.67287 0.88991 0.84162 0.0
C1733 C 0.66532 0.9068 0.82707 0.0
C1734 C 0.62173 0.93214 0.82091 0.0
C1735 C 0.61235 0.97891 0.76967 0.0
C1736 C 0.62138 0.96058 0.78104 0.0
C1737 C 0.6466 0.90731 0.81335 0.0
C1738 C 0.63794 0.92552 0.80186 0.0
H1739 H 0.62357 0.02261 0.73382 0.0
H1740 H 0.63867 0.99315 0.75429 0.0
H1741 H 0.60147 0.95444 0.82707 0.0
H1742 H 0.63474 0.8609 0.82655 0.0
H1743 H 0.62135 0.89066 0.80221 0.0
loop_
_geom_bond_atom_site_label_1
_geom_bond_atom_site_label_2
_geom_bond_distance
_geom_bond_site_symmetry_2
_ccdc_geom_bond_type
Co0 O3 1.970 . S
Co0 N17 1.989 . S
Co0 O25 1.967 . S
Co0 O32 1.920 . S
Co1 O4 1.966 . S
Co1 N10 2.022 1_554 S
Co1 N18 1.993 . S
Co1 O26 1.941 1_554 S
C2 O3 1.258 . S
C2 O4 1.263 . S
O3 Co0 1.970 . S
O3 C2 1.258 . S
O4 Co1 1.966 . S
O4 C2 1.263 . S
C5 O6 1.235 . S
C5 O32 1.289 . S
O6 C5 1.235 . S
C7 C9 1.400 . S
C7 N10 1.351 . S
C7 C12 1.501 1_556 S
C8 C9 1.387 . S
C8 N11 1.341 . S
C9 C7 1.400 . S
C9 C8 1.387 . S
N10 Co1 2.022 1_556 S
N10 C7 1.351 . S
N10 N11 1.365 . S
N11 C8 1.341 . S
N11 N10 1.365 . S
N11 H31 0.862 . S
C12 C7 1.501 1_554 S
C12 H13 0.961 . S
C12 H14 0.961 . S
C12 H15 0.960 . S
H13 C12 0.961 . S
H14 C12 0.961 . S
H15 C12 0.960 . S
C16 N17 1.342 . S
C16 C20 1.401 1_554 S
C16 C21 1.499 . S
N17 Co0 1.989 . S
N17 C16 1.342 . S
N17 N18 1.388 . S
N18 Co1 1.993 . S
N18 N17 1.388 . S
N18 C19 1.346 1_554 S
C19 N18 1.346 1_556 S
C19 C20 1.396 . S
C19 C29 1.510 . S
C20 C16 1.401 1_556 S
C20 C19 1.396 . S
C21 C16 1.499 . S
C21 H22 0.959 . S
C21 H23 0.960 . S
C21 H24 0.961 . S
H22 C21 0.959 . S
H23 C21 0.960 . S
H24 C21 0.961 . S
O25 Co0 1.967 . S
O25 C33 1.258 . S
O26 Co1 1.941 1_556 S
O26 C33 1.266 1_556 S
H27 C29 0.959 . S
H28 C29 0.961 . S
C29 C19 1.510 . S
C29 H27 0.959 . S
C29 H28 0.961 . S
C29 H30 0.960 . S
H30 C29 0.960 . S
H31 N11 0.862 . S
O32 Co0 1.920 . S
O32 C5 1.289 . S
C33 O25 1.258 . S
C33 O26 1.266 1_554 S
Co34 O37 1.970 . S
Co34 N51 1.989 . S
Co34 O59 1.967 . S
Co34 O66 1.920 . S
Co35 O38 1.966 . S
Co35 N44 2.022 . S
Co35 N52 1.993 . S
Co35 O60 1.941 . S
C36 O37 1.258 . S
C36 O38 1.263 . S
O37 Co34 1.970 . S
O37 C36 1.258 . S
O38 Co35 1.966 . S
O38 C36 1.263 . S
C39 O40 1.235 . S
C39 O66 1.289 . S
O40 C39 1.235 . S
C41 C43 1.400 . S
C41 N44 1.351 . S
C41 C46 1.501 . S
C42 C43 1.387 . S
C42 N45 1.341 . S
C43 C41 1.400 . S
C43 C42 1.387 . S
N44 Co35 2.022 . S
N44 C41 1.351 . S
N44 N45 1.365 . S
N45 C42 1.341 . S
N45 N44 1.365 . S
N45 H65 0.862 . S
C46 C41 1.501 . S
C46 H47 0.961 . S
C46 H48 0.961 . S
C46 H49 0.960 . S
H47 C46 0.961 . S
H48 C46 0.961 . S
H49 C46 0.960 . S
C50 N51 1.342 . S
C50 C54 1.401 . S
C50 C55 1.499 . S
N51 Co34 1.989 . S
N51 C50 1.342 . S
N51 N52 1.388 . S
N52 Co35 1.993 . S
N52 N51 1.388 . S
N52 C53 1.346 . S
C53 N52 1.346 . S
C53 C54 1.396 . S
C53 C63 1.510 . S
C54 C50 1.401 . S
C54 C53 1.396 . S
C55 C50 1.499 . S
C55 H56 0.959 . S
C55 H57 0.960 . S
C55 H58 0.961 . S
H56 C55 0.959 . S
H57 C55 0.960 . S
H58 C55 0.961 . S
O59 Co34 1.967 . S
O59 C67 1.258 . S
O60 Co35 1.941 . S
O60 C67 1.266 . S
H61 C63 0.959 . S
H62 C63 0.961 . S
C63 C53 1.510 . S
C63 H61 0.959 . S
C63 H62 0.961 . S
C63 H64 0.960 . S
H64 C63 0.960 . S
H65 N45 0.862 . S
O66 Co34 1.920 . S
O66 C39 1.289 . S
C67 O59 1.258 . S
C67 O60 1.266 . S
Co68 O71 1.970 . S
Co68 N85 1.989 . S
Co68 O93 1.967 . S
Co68 O100 1.920 . S
Co69 O72 1.966 . S
Co69 N78 2.022 . S
Co69 N86 1.993 . S
Co69 O94 1.941 . S
C70 O71 1.258 . S
C70 O72 1.263 . S
O71 Co68 1.970 . S
O71 C70 1.258 . S
O72 Co69 1.966 . S
O72 C70 1.263 . S
C73 O74 1.235 . S
C73 O100 1.289 . S
O74 C73 1.235 . S
C75 C77 1.400 . S
C75 N78 1.351 . S
C75 C80 1.501 . S
C76 C77 1.387 . S
C76 N79 1.341 . S
C77 C75 1.400 . S
C77 C76 1.387 . S
N78 Co69 2.022 . S
N78 C75 1.351 . S
N78 N79 1.365 . S
N79 C76 1.341 . S
N79 N78 1.365 . S
N79 H99 0.862 . S
C80 C75 1.501 . S
C80 H81 0.961 . S
C80 H82 0.961 . S
C80 H83 0.960 . S
H81 C80 0.961 . S
H82 C80 0.961 . S
H83 C80 0.960 . S
C84 N85 1.342 . S
C84 C88 1.401 . S
C84 C89 1.499 . S
N85 Co68 1.989 . S
N85 C84 1.342 . S
N85 N86 1.388 . S
N86 Co69 1.993 . S
N86 N85 1.388 . S
N86 C87 1.346 . S
C87 N86 1.346 . S
C87 C88 1.396 . S
C87 C97 1.510 . S
C88 C84 1.401 . S
C88 C87 1.396 . S
C89 C84 1.499 . S
C89 H90 0.959 . S
C89 H91 0.960 . S
C89 H92 0.961 . S
H90 C89 0.959 . S
H91 C89 0.960 . S
H92 C89 0.961 . S
O93 Co68 1.967 . S
O93 C101 1.258 . S
O94 Co69 1.941 . S
O94 C101 1.266 . S
H95 C97 0.959 . S
H96 C97 0.961 . S
C97 C87 1.510 . S
C97 H95 0.959 . S
C97 H96 0.961 . S
C97 H98 0.960 . S
H98 C97 0.960 . S
H99 N79 0.862 . S
O100 Co68 1.920 . S
O100 C73 1.289 . S
C101 O93 1.258 . S
C101 O94 1.266 . S
Co102 O105 1.970 . S
Co102 N119 1.989 . S
Co102 O127 1.967 . S
Co102 O134 1.920 . S
Co103 O106 1.966 . S
Co103 N112 2.022 . S
Co103 N120 1.993 . S
Co103 O128 1.941 . S
C104 O105 1.258 . S
C104 O106 1.263 . S
O105 Co102 1.970 . S
O105 C104 1.258 . S
O106 Co103 1.966 . S
O106 C104 1.263 . S
C107 O108 1.235 . S
C107 O134 1.289 . S
O108 C107 1.235 . S
C109 C111 1.400 . S
C109 N112 1.351 . S
C109 C114 1.501 . S
C110 C111 1.387 . S
C110 N113 1.341 . S
C111 C109 1.400 . S
C111 C110 1.387 . S
N112 Co103 2.022 . S
N112 C109 1.351 . S
N112 N113 1.365 . S
N113 C110 1.341 . S
N113 N112 1.365 . S
N113 H133 0.862 . S
C114 C109 1.501 . S
C114 H115 0.961 . S
C114 H116 0.961 . S
C114 H117 0.960 . S
H115 C114 0.961 . S
H116 C114 0.961 . S
H117 C114 0.960 . S
C118 N119 1.342 . S
C118 C122 1.401 . S
C118 C123 1.499 . S
N119 Co102 1.989 . S
N119 C118 1.342 . S
N119 N120 1.388 . S
N120 Co103 1.993 . S
N120 N119 1.388 . S
N120 C121 1.346 . S
C121 N120 1.346 . S
C121 C122 1.396 . S
C121 C131 1.510 . S
C122 C118 1.401 . S
C122 C121 1.396 . S
C123 C118 1.499 . S
C123 H124 0.959 . S
C123 H125 0.960 . S
C123 H126 0.961 . S
H124 C123 0.959 . S
H125 C123 0.960 . S
H126 C123 0.961 . S
O127 Co102 1.967 . S
O127 C135 1.258 . S
O128 Co103 1.941 . S
O128 C135 1.266 . S
H129 C131 0.959 . S
H130 C131 0.961 . S
C131 C121 1.510 . S
C131 H129 0.959 . S
C131 H130 0.961 . S
C131 H132 0.960 . S
H132 C131 0.960 . S
H133 N113 0.862 . S
O134 Co102 1.920 . S
O134 C107 1.289 . S
C135 O127 1.258 . S
C135 O128 1.266 . S
Co136 O139 1.970 . S
Co136 N153 1.989 . S
Co136 O161 1.967 . S
Co136 O168 1.920 . S
Co137 O140 1.966 . S
Co137 N146 2.022 1_556 S
Co137 N154 1.993 . S
Co137 O162 1.941 1_556 S
C138 O139 1.258 . S
C138 O140 1.263 . S
O139 Co136 1.970 . S
O139 C138 1.258 . S
O140 Co137 1.966 . S
O140 C138 1.263 . S
C141 O142 1.235 . S
C141 O168 1.289 . S
O142 C141 1.235 . S
C143 C145 1.400 . S
C143 N146 1.351 . S
C143 C148 1.501 1_554 S
C144 C145 1.387 . S
C144 N147 1.341 . S
C145 C143 1.400 . S
C145 C144 1.387 . S
N146 Co137 2.022 1_554 S
N146 C143 1.351 . S
N146 N147 1.365 . S
N147 C144 1.341 . S
N147 N146 1.365 . S
N147 H167 0.862 . S
C148 C143 1.501 1_556 S
C148 H149 0.961 . S
C148 H150 0.961 . S
C148 H151 0.960 . S
H149 C148 0.961 . S
H150 C148 0.961 . S
H151 C148 0.960 . S
C152 N153 1.342 . S
C152 C156 1.401 1_556 S
C152 C157 1.499 . S
N153 Co136 1.989 . S
N153 C152 1.342 . S
N153 N154 1.388 . S
N154 Co137 1.993 . S
N154 N153 1.388 . S
N154 C155 1.346 1_556 S
C155 N154 1.346 1_554 S
C155 C156 1.396 . S
C155 C165 1.510 . S
C156 C152 1.401 1_554 S
C156 C155 1.396 . S
C157 C152 1.499 . S
C157 H158 0.959 . S
C157 H159 0.960 . S
C157 H160 0.961 . S
H158 C157 0.959 . S
H159 C157 0.960 . S
H160 C157 0.961 . S
O161 Co136 1.967 . S
O161 C169 1.258 . S
O162 Co137 1.941 1_554 S
O162 C169 1.266 1_554 S
H163 C165 0.959 . S
H164 C165 0.961 . S
C165 C155 1.510 . S
C165 H163 0.959 . S
C165 H164 0.961 . S
C165 H166 0.960 . S
H166 C165 0.960 . S
H167 N147 0.862 . S
O168 Co136 1.920 . S
O168 C141 1.289 . S
C169 O161 1.258 . S
C169 O162 1.266 1_556 S
Co170 O173 1.970 . S
Co170 N187 1.989 . S
Co170 O195 1.967 . S
Co170 O202 1.920 . S
Co171 O174 1.966 . S
Co171 N180 2.022 . S
Co171 N188 1.993 . S
Co171 O196 1.941 . S
C172 O173 1.258 . S
C172 O174 1.263 . S
O173 Co170 1.970 . S
O173 C172 1.258 . S
O174 Co171 1.966 . S
O174 C172 1.263 . S
C175 O176 1.235 . S
C175 O202 1.289 . S
O176 C175 1.235 . S
C177 C179 1.400 . S
C177 N180 1.351 . S
C177 C182 1.501 . S
C178 C179 1.387 . S
C178 N181 1.341 . S
C179 C177 1.400 . S
C179 C178 1.387 . S
N180 Co171 2.022 . S
N180 C177 1.351 . S
N180 N181 1.365 . S
N181 C178 1.341 . S
N181 N180 1.365 . S
N181 H201 0.862 . S
C182 C177 1.501 . S
C182 H183 0.961 . S
C182 H184 0.961 . S
C182 H185 0.960 . S
H183 C182 0.961 . S
H184 C182 0.961 . S
H185 C182 0.960 . S
C186 N187 1.342 . S
C186 C190 1.401 . S
C186 C191 1.499 . S
N187 Co170 1.989 . S
N187 C186 1.342 . S
N187 N188 1.388 . S
N188 Co171 1.993 . S
N188 N187 1.388 . S
N188 C189 1.346 . S
C189 N188 1.346 . S
C189 C190 1.396 . S
C189 C199 1.510 . S
C190 C186 1.401 . S
C190 C189 1.396 . S
C191 C186 1.499 . S
C191 H192 0.959 . S
C191 H193 0.960 . S
C191 H194 0.961 . S
H192 C191 0.959 . S
H193 C191 0.960 . S
H194 C191 0.961 . S
O195 Co170 1.967 . S
O195 C203 1.258 . S
O196 Co171 1.941 . S
O196 C203 1.266 . S
H197 C199 0.959 . S
H198 C199 0.961 . S
C199 C189 1.510 . S
C199 H197 0.959 . S
C199 H198 0.961 . S
C199 H200 0.960 . S
H200 C199 0.960 . S
H201 N181 0.862 . S
O202 Co170 1.920 . S
O202 C175 1.289 . S
C203 O195 1.258 . S
C203 O196 1.266 . S
Co204 O207 1.970 . S
Co204 N221 1.989 . S
Co204 O229 1.967 . S
Co204 O236 1.920 . S
Co205 O208 1.966 . S
Co205 N214 2.022 . S
Co205 N222 1.993 . S
Co205 O230 1.941 . S
C206 O207 1.258 . S
C206 O208 1.263 . S
O207 Co204 1.970 . S
O207 C206 1.258 . S
O208 Co205 1.966 . S
O208 C206 1.263 . S
C209 O210 1.235 . S
C209 O236 1.289 . S
O210 C209 1.235 . S
C211 C213 1.400 . S
C211 N214 1.351 . S
C211 C216 1.501 . S
C212 C213 1.387 . S
C212 N215 1.341 . S
C213 C211 1.400 . S
C213 C212 1.387 . S
N214 Co205 2.022 . S
N214 C211 1.351 . S
N214 N215 1.365 . S
N215 C212 1.341 . S
N215 N214 1.365 . S
N215 H235 0.862 . S
C216 C211 1.501 . S
C216 H217 0.961 . S
C216 H218 0.961 . S
C216 H219 0.960 . S
H217 C216 0.961 . S
H218 C216 0.961 . S
H219 C216 0.960 . S
C220 N221 1.342 . S
C220 C224 1.401 . S
C220 C225 1.499 . S
N221 Co204 1.989 . S
N221 C220 1.342 . S
N221 N222 1.388 . S
N222 Co205 1.993 . S
N222 N221 1.388 . S
N222 C223 1.346 . S
C223 N222 1.346 . S
C223 C224 1.396 . S
C223 C233 1.510 . S
C224 C220 1.401 . S
C224 C223 1.396 . S
C225 C220 1.499 . S
C225 H226 0.959 . S
C225 H227 0.960 . S
C225 H228 0.961 . S
H226 C225 0.959 . S
H227 C225 0.960 . S
H228 C225 0.961 . S
O229 Co204 1.967 . S
O229 C237 1.258 . S
O230 Co205 1.941 . S
O230 C237 1.266 . S
H231 C233 0.959 . S
H232 C233 0.961 . S
C233 C223 1.510 . S
C233 H231 0.959 . S
C233 H232 0.961 . S
C233 H234 0.960 . S
H234 C233 0.960 . S
H235 N215 0.862 . S
O236 Co204 1.920 . S
O236 C209 1.289 . S
C237 O229 1.258 . S
C237 O230 1.266 . S
Co238 O241 1.970 . S
Co238 N255 1.989 . S
Co238 O263 1.967 . S
Co238 O270 1.920 . S
Co239 O242 1.966 . S
Co239 N248 2.022 . S
Co239 N256 1.993 . S
Co239 O264 1.941 . S
C240 O241 1.258 . S
C240 O242 1.263 . S
O241 Co238 1.970 . S
O241 C240 1.258 . S
O242 Co239 1.966 . S
O242 C240 1.263 . S
C243 O244 1.235 . S
C243 O270 1.289 . S
O244 C243 1.235 . S
C245 C247 1.400 . S
C245 N248 1.351 . S
C245 C250 1.501 . S
C246 C247 1.387 . S
C246 N249 1.341 . S
C247 C245 1.400 . S
C247 C246 1.387 . S
N248 Co239 2.022 . S
N248 C245 1.351 . S
N248 N249 1.365 . S
N249 C246 1.341 . S
N249 N248 1.365 . S
N249 H269 0.862 . S
C250 C245 1.501 . S
C250 H251 0.961 . S
C250 H252 0.961 . S
C250 H253 0.960 . S
H251 C250 0.961 . S
H252 C250 0.961 . S
H253 C250 0.960 . S
C254 N255 1.342 . S
C254 C258 1.401 . S
C254 C259 1.499 . S
N255 Co238 1.989 . S
N255 C254 1.342 . S
N255 N256 1.388 . S
N256 Co239 1.993 . S
N256 N255 1.388 . S
N256 C257 1.346 . S
C257 N256 1.346 . S
C257 C258 1.396 . S
C257 C267 1.510 . S
C258 C254 1.401 . S
C258 C257 1.396 . S
C259 C254 1.499 . S
C259 H260 0.959 . S
C259 H261 0.960 . S
C259 H262 0.961 . S
H260 C259 0.959 . S
H261 C259 0.960 . S
H262 C259 0.961 . S
O263 Co238 1.967 . S
O263 C271 1.258 . S
O264 Co239 1.941 . S
O264 C271 1.266 . S
H265 C267 0.959 . S
H266 C267 0.961 . S
C267 C257 1.510 . S
C267 H265 0.959 . S
C267 H266 0.961 . S
C267 H268 0.960 . S
H268 C267 0.960 . S
H269 N249 0.862 . S
O270 Co238 1.920 . S
O270 C243 1.289 . S
C271 O263 1.258 . S
C271 O264 1.266 . S
Co272 O275 1.970 . S
Co272 N289 1.989 . S
Co272 O297 1.967 . S
Co272 O304 1.920 . S
Co273 O276 1.966 . S
Co273 N282 2.022 . S
Co273 N290 1.993 . S
Co273 O298 1.941 . S
C274 O275 1.258 . S
C274 O276 1.263 . S
O275 Co272 1.970 . S
O275 C274 1.258 . S
O276 Co273 1.966 . S
O276 C274 1.263 . S
C277 O278 1.235 . S
C277 O304 1.289 . S
O278 C277 1.235 . S
C279 C281 1.400 . S
C279 N282 1.351 . S
C279 C284 1.501 . S
C280 C281 1.387 . S
C280 N283 1.341 . S
C281 C279 1.400 . S
C281 C280 1.387 . S
N282 Co273 2.022 . S
N282 C279 1.351 . S
N282 N283 1.365 . S
N283 C280 1.341 . S
N283 N282 1.365 . S
N283 H303 0.862 . S
C284 C279 1.501 . S
C284 H285 0.961 . S
C284 H286 0.961 . S
C284 H287 0.960 . S
H285 C284 0.961 . S
H286 C284 0.961 . S
H287 C284 0.960 . S
C288 N289 1.342 . S
C288 C292 1.401 . S
C288 C293 1.499 . S
N289 Co272 1.989 . S
N289 C288 1.342 . S
N289 N290 1.388 . S
N290 Co273 1.993 . S
N290 N289 1.388 . S
N290 C291 1.346 . S
C291 N290 1.346 . S
C291 C292 1.396 . S
C291 C301 1.510 . S
C292 C288 1.401 . S
C292 C291 1.396 . S
C293 C288 1.499 . S
C293 H294 0.959 . S
C293 H295 0.960 . S
C293 H296 0.961 . S
H294 C293 0.959 . S
H295 C293 0.960 . S
H296 C293 0.961 . S
O297 Co272 1.967 . S
O297 C305 1.258 . S
O298 Co273 1.941 . S
O298 C305 1.266 . S
H299 C301 0.959 . S
H300 C301 0.961 . S
C301 C291 1.510 . S
C301 H299 0.959 . S
C301 H300 0.961 . S
C301 H302 0.960 . S
H302 C301 0.960 . S
H303 N283 0.862 . S
O304 Co272 1.920 . S
O304 C277 1.289 . S
C305 O297 1.258 . S
C305 O298 1.266 . S
Co306 O309 1.970 . S
Co306 N323 1.989 . S
Co306 O331 1.967 . S
Co306 O338 1.920 . S
Co307 O310 1.966 . S
Co307 N316 2.022 . S
Co307 N324 1.993 . S
Co307 O332 1.941 . S
C308 O309 1.258 . S
C308 O310 1.263 . S
O309 Co306 1.970 . S
O309 C308 1.258 . S
O310 Co307 1.966 . S
O310 C308 1.263 . S
C311 O312 1.235 . S
C311 O338 1.289 . S
O312 C311 1.235 . S
C313 C315 1.400 . S
C313 N316 1.351 . S
C313 C318 1.501 . S
C314 C315 1.387 . S
C314 N317 1.341 . S
C315 C313 1.400 . S
C315 C314 1.387 . S
N316 Co307 2.022 . S
N316 C313 1.351 . S
N316 N317 1.365 . S
N317 C314 1.341 . S
N317 N316 1.365 . S
N317 H337 0.862 . S
C318 C313 1.501 . S
C318 H319 0.961 . S
C318 H320 0.961 . S
C318 H321 0.960 . S
H319 C318 0.961 . S
H320 C318 0.961 . S
H321 C318 0.960 . S
C322 N323 1.342 . S
C322 C326 1.401 . S
C322 C327 1.499 . S
N323 Co306 1.989 . S
N323 C322 1.342 . S
N323 N324 1.388 . S
N324 Co307 1.993 . S
N324 N323 1.388 . S
N324 C325 1.346 . S
C325 N324 1.346 . S
C325 C326 1.396 . S
C325 C335 1.510 . S
C326 C322 1.401 . S
C326 C325 1.396 . S
C327 C322 1.499 . S
C327 H328 0.959 . S
C327 H329 0.960 . S
C327 H330 0.961 . S
H328 C327 0.959 . S
H329 C327 0.960 . S
H330 C327 0.961 . S
O331 Co306 1.967 . S
O331 C339 1.258 . S
O332 Co307 1.941 . S
O332 C339 1.266 . S
H333 C335 0.959 . S
H334 C335 0.961 . S
C335 C325 1.510 . S
C335 H333 0.959 . S
C335 H334 0.961 . S
C335 H336 0.960 . S
H336 C335 0.960 . S
H337 N317 0.862 . S
O338 Co306 1.920 . S
O338 C311 1.289 . S
C339 O331 1.258 . S
C339 O332 1.266 . S
Co340 O343 1.970 . S
Co340 N357 1.989 . S
Co340 O365 1.967 . S
Co340 O372 1.920 . S
Co341 O344 1.966 . S
Co341 N350 2.022 1_554 S
Co341 N358 1.993 . S
Co341 O366 1.941 1_554 S
C342 O343 1.258 . S
C342 O344 1.263 . S
O343 Co340 1.970 . S
O343 C342 1.258 . S
O344 Co341 1.966 . S
O344 C342 1.263 . S
C345 O346 1.235 . S
C345 O372 1.289 . S
O346 C345 1.235 . S
C347 C349 1.400 . S
C347 N350 1.351 . S
C347 C352 1.501 1_556 S
C348 C349 1.387 . S
C348 N351 1.341 . S
C349 C347 1.400 . S
C349 C348 1.387 . S
N350 Co341 2.022 1_556 S
N350 C347 1.351 . S
N350 N351 1.365 . S
N351 C348 1.341 . S
N351 N350 1.365 . S
N351 H371 0.862 . S
C352 C347 1.501 1_554 S
C352 H353 0.961 . S
C352 H354 0.961 . S
C352 H355 0.960 . S
H353 C352 0.961 . S
H354 C352 0.961 . S
H355 C352 0.960 . S
C356 N357 1.342 . S
C356 C360 1.401 1_554 S
C356 C361 1.499 . S
N357 Co340 1.989 . S
N357 C356 1.342 . S
N357 N358 1.388 . S
N358 Co341 1.993 . S
N358 N357 1.388 . S
N358 C359 1.346 1_554 S
C359 N358 1.346 1_556 S
C359 C360 1.396 . S
C359 C369 1.510 . S
C360 C356 1.401 1_556 S
C360 C359 1.396 . S
C361 C356 1.499 . S
C361 H362 0.959 . S
C361 H363 0.960 . S
C361 H364 0.961 . S
H362 C361 0.959 . S
H363 C361 0.960 . S
H364 C361 0.961 . S
O365 Co340 1.967 . S
O365 C373 1.258 . S
O366 Co341 1.941 1_556 S
O366 C373 1.266 1_556 S
H367 C369 0.959 . S
H368 C369 0.961 . S
C369 C359 1.510 . S
C369 H367 0.959 . S
C369 H368 0.961 . S
C369 H370 0.960 . S
H370 C369 0.960 . S
H371 N351 0.862 . S
O372 Co340 1.920 . S
O372 C345 1.289 . S
C373 O365 1.258 . S
C373 O366 1.266 1_554 S
Co374 O377 1.970 . S
Co374 N391 1.989 . S
Co374 O399 1.967 . S
Co374 O406 1.920 . S
Co375 O378 1.966 . S
Co375 N384 2.022 . S
Co375 N392 1.993 . S
Co375 O400 1.941 . S
C376 O377 1.258 . S
C376 O378 1.263 . S
O377 Co374 1.970 . S
O377 C376 1.258 . S
O378 Co375 1.966 . S
O378 C376 1.263 . S
C379 O380 1.235 . S
C379 O406 1.289 . S
O380 C379 1.235 . S
C381 C383 1.400 . S
C381 N384 1.351 . S
C381 C386 1.501 . S
C382 C383 1.387 . S
C382 N385 1.341 . S
C383 C381 1.400 . S
C383 C382 1.387 . S
N384 Co375 2.022 . S
N384 C381 1.351 . S
N384 N385 1.365 . S
N385 C382 1.341 . S
N385 N384 1.365 . S
N385 H405 0.862 . S
C386 C381 1.501 . S
C386 H387 0.961 . S
C386 H388 0.961 . S
C386 H389 0.960 . S
H387 C386 0.961 . S
H388 C386 0.961 . S
H389 C386 0.960 . S
C390 N391 1.342 . S
C390 C394 1.401 . S
C390 C395 1.499 . S
N391 Co374 1.989 . S
N391 C390 1.342 . S
N391 N392 1.388 . S
N392 Co375 1.993 . S
N392 N391 1.388 . S
N392 C393 1.346 . S
C393 N392 1.346 . S
C393 C394 1.396 . S
C393 C403 1.510 . S
C394 C390 1.401 . S
C394 C393 1.396 . S
C395 C390 1.499 . S
C395 H396 0.959 . S
C395 H397 0.960 . S
C395 H398 0.961 . S
H396 C395 0.959 . S
H397 C395 0.960 . S
H398 C395 0.961 . S
O399 Co374 1.967 . S
O399 C407 1.258 . S
O400 Co375 1.941 . S
O400 C407 1.266 . S
H401 C403 0.959 . S
H402 C403 0.961 . S
C403 C393 1.510 . S
C403 H401 0.959 . S
C403 H402 0.961 . S
C403 H404 0.960 . S
H404 C403 0.960 . S
H405 N385 0.862 . S
O406 Co374 1.920 . S
O406 C379 1.289 . S
C407 O399 1.258 . S
C407 O400 1.266 . S
Co408 O411 1.970 . S
Co408 N425 1.989 . S
Co408 O433 1.967 . S
Co408 O440 1.920 . S
Co409 O412 1.966 . S
Co409 N418 2.022 . S
Co409 N426 1.993 . S
Co409 O434 1.941 . S
C410 O411 1.258 . S
C410 O412 1.263 . S
O411 Co408 1.970 . S
O411 C410 1.258 . S
O412 Co409 1.966 . S
O412 C410 1.263 . S
C413 O414 1.235 . S
C413 O440 1.289 . S
O414 C413 1.235 . S
C415 C417 1.400 . S
C415 N418 1.351 . S
C415 C420 1.501 . S
C416 C417 1.387 . S
C416 N419 1.341 . S
C417 C415 1.400 . S
C417 C416 1.387 . S
N418 Co409 2.022 . S
N418 C415 1.351 . S
N418 N419 1.365 . S
N419 C416 1.341 . S
N419 N418 1.365 . S
N419 H439 0.862 . S
C420 C415 1.501 . S
C420 H421 0.961 . S
C420 H422 0.961 . S
C420 H423 0.960 . S
H421 C420 0.961 . S
H422 C420 0.961 . S
H423 C420 0.960 . S
C424 N425 1.342 . S
C424 C428 1.401 . S
C424 C429 1.499 . S
N425 Co408 1.989 . S
N425 C424 1.342 . S
N425 N426 1.388 . S
N426 Co409 1.993 . S
N426 N425 1.388 . S
N426 C427 1.346 . S
C427 N426 1.346 . S
C427 C428 1.396 . S
C427 C437 1.510 . S
C428 C424 1.401 . S
C428 C427 1.396 . S
C429 C424 1.499 . S
C429 H430 0.959 . S
C429 H431 0.960 . S
C429 H432 0.961 . S
H430 C429 0.959 . S
H431 C429 0.960 . S
H432 C429 0.961 . S
O433 Co408 1.967 . S
O433 C441 1.258 . S
O434 Co409 1.941 . S
O434 C441 1.266 . S
H435 C437 0.959 . S
H436 C437 0.961 . S
C437 C427 1.510 . S
C437 H435 0.959 . S
C437 H436 0.961 . S
C437 H438 0.960 . S
H438 C437 0.960 . S
H439 N419 0.862 . S
O440 Co408 1.920 . S
O440 C413 1.289 . S
C441 O433 1.258 . S
C441 O434 1.266 . S
Co442 O445 1.970 . S
Co442 N459 1.989 . S
Co442 O467 1.967 . S
Co442 O474 1.920 . S
Co443 O446 1.966 . S
Co443 N452 2.022 . S
Co443 N460 1.993 . S
Co443 O468 1.941 . S
C444 O445 1.258 . S
C444 O446 1.263 . S
O445 Co442 1.970 . S
O445 C444 1.258 . S
O446 Co443 1.966 . S
O446 C444 1.263 . S
C447 O448 1.235 . S
C447 O474 1.289 . S
O448 C447 1.235 . S
C449 C451 1.400 . S
C449 N452 1.351 . S
C449 C454 1.501 . S
C450 C451 1.387 . S
C450 N453 1.341 . S
C451 C449 1.400 . S
C451 C450 1.387 . S
N452 Co443 2.022 . S
N452 C449 1.351 . S
N452 N453 1.365 . S
N453 C450 1.341 . S
N453 N452 1.365 . S
N453 H473 0.862 . S
C454 C449 1.501 . S
C454 H455 0.961 . S
C454 H456 0.961 . S
C454 H457 0.960 . S
H455 C454 0.961 . S
H456 C454 0.961 . S
H457 C454 0.960 . S
C458 N459 1.342 . S
C458 C462 1.401 . S
C458 C463 1.499 . S
N459 Co442 1.989 . S
N459 C458 1.342 . S
N459 N460 1.388 . S
N460 Co443 1.993 . S
N460 N459 1.388 . S
N460 C461 1.346 . S
C461 N460 1.346 . S
C461 C462 1.396 . S
C461 C471 1.510 . S
C462 C458 1.401 . S
C462 C461 1.396 . S
C463 C458 1.499 . S
C463 H464 0.959 . S
C463 H465 0.960 . S
C463 H466 0.961 . S
H464 C463 0.959 . S
H465 C463 0.960 . S
H466 C463 0.961 . S
O467 Co442 1.967 . S
O467 C475 1.258 . S
O468 Co443 1.941 . S
O468 C475 1.266 . S
H469 C471 0.959 . S
H470 C471 0.961 . S
C471 C461 1.510 . S
C471 H469 0.959 . S
C471 H470 0.961 . S
C471 H472 0.960 . S
H472 C471 0.960 . S
H473 N453 0.862 . S
O474 Co442 1.920 . S
O474 C447 1.289 . S
C475 O467 1.258 . S
C475 O468 1.266 . S
Co476 O479 1.970 . S
Co476 N493 1.989 . S
Co476 O501 1.967 . S
Co476 O508 1.920 . S
Co477 O480 1.966 . S
Co477 N486 2.022 1_556 S
Co477 N494 1.993 . S
Co477 O502 1.941 1_556 S
C478 O479 1.258 . S
C478 O480 1.263 . S
O479 Co476 1.970 . S
O479 C478 1.258 . S
O480 Co477 1.966 . S
O480 C478 1.263 . S
C481 O482 1.235 . S
C481 O508 1.289 . S
O482 C481 1.235 . S
C483 C485 1.400 . S
C483 N486 1.351 . S
C483 C488 1.501 1_554 S
C484 C485 1.387 . S
C484 N487 1.341 . S
C485 C483 1.400 . S
C485 C484 1.387 . S
N486 Co477 2.022 1_554 S
N486 C483 1.351 . S
N486 N487 1.365 . S
N487 C484 1.341 . S
N487 N486 1.365 . S
N487 H507 0.862 . S
C488 C483 1.501 1_556 S
C488 H489 0.961 . S
C488 H490 0.961 . S
C488 H491 0.960 . S
H489 C488 0.961 . S
H490 C488 0.961 . S
H491 C488 0.960 . S
C492 N493 1.342 . S
C492 C496 1.401 1_556 S
C492 C497 1.499 . S
N493 Co476 1.989 . S
N493 C492 1.342 . S
N493 N494 1.388 . S
N494 Co477 1.993 . S
N494 N493 1.388 . S
N494 C495 1.346 1_556 S
C495 N494 1.346 1_554 S
C495 C496 1.396 . S
C495 C505 1.510 . S
C496 C492 1.401 1_554 S
C496 C495 1.396 . S
C497 C492 1.499 . S
C497 H498 0.959 . S
C497 H499 0.960 . S
C497 H500 0.961 . S
H498 C497 0.959 . S
H499 C497 0.960 . S
H500 C497 0.961 . S
O501 Co476 1.967 . S
O501 C509 1.258 . S
O502 Co477 1.941 1_554 S
O502 C509 1.266 1_554 S
H503 C505 0.959 . S
H504 C505 0.961 . S
C505 C495 1.510 . S
C505 H503 0.959 . S
C505 H504 0.961 . S
C505 H506 0.960 . S
H506 C505 0.960 . S
H507 N487 0.862 . S
O508 Co476 1.920 . S
O508 C481 1.289 . S
C509 O501 1.258 . S
C509 O502 1.266 1_556 S
Co510 O513 1.970 . S
Co510 N527 1.989 . S
Co510 O535 1.967 . S
Co510 O542 1.920 . S
Co511 O514 1.966 . S
Co511 N520 2.022 . S
Co511 N528 1.993 . S
Co511 O536 1.941 . S
C512 O513 1.258 . S
C512 O514 1.263 . S
O513 Co510 1.970 . S
O513 C512 1.258 . S
O514 Co511 1.966 . S
O514 C512 1.263 . S
C515 O516 1.235 . S
C515 O542 1.289 . S
O516 C515 1.235 . S
C517 C519 1.400 . S
C517 N520 1.351 . S
C517 C522 1.501 . S
C518 C519 1.387 . S
C518 N521 1.341 . S
C519 C517 1.400 . S
C519 C518 1.387 . S
N520 Co511 2.022 . S
N520 C517 1.351 . S
N520 N521 1.365 . S
N521 C518 1.341 . S
N521 N520 1.365 . S
N521 H541 0.862 . S
C522 C517 1.501 . S
C522 H523 0.961 . S
C522 H524 0.961 . S
C522 H525 0.960 . S
H523 C522 0.961 . S
H524 C522 0.961 . S
H525 C522 0.960 . S
C526 N527 1.342 . S
C526 C530 1.401 . S
C526 C531 1.499 . S
N527 Co510 1.989 . S
N527 C526 1.342 . S
N527 N528 1.388 . S
N528 Co511 1.993 . S
N528 N527 1.388 . S
N528 C529 1.346 . S
C529 N528 1.346 . S
C529 C530 1.396 . S
C529 C539 1.510 . S
C530 C526 1.401 . S
C530 C529 1.396 . S
C531 C526 1.499 . S
C531 H532 0.959 . S
C531 H533 0.960 . S
C531 H534 0.961 . S
H532 C531 0.959 . S
H533 C531 0.960 . S
H534 C531 0.961 . S
O535 Co510 1.967 . S
O535 C543 1.258 . S
O536 Co511 1.941 . S
O536 C543 1.266 . S
H537 C539 0.959 . S
H538 C539 0.961 . S
C539 C529 1.510 . S
C539 H537 0.959 . S
C539 H538 0.961 . S
C539 H540 0.960 . S
H540 C539 0.960 . S
H541 N521 0.862 . S
O542 Co510 1.920 . S
O542 C515 1.289 . S
C543 O535 1.258 . S
C543 O536 1.266 . S
C544 C545 1.349 . S
C544 C546 1.327 . S
C544 H569 0.950 . S
C545 C544 1.349 . S
C545 C561 1.349 . S
C546 C544 1.327 . S
C546 C565 1.429 . S
C546 H570 0.950 . S
C547 C564 1.574 . S
C547 C566 1.368 . S
C547 H571 0.949 . S
H548 C552 0.949 . S
C549 C550 1.349 . S
C549 C551 1.327 . S
C549 H572 0.950 . S
C550 C549 1.349 . S
C550 C562 1.349 . S
C551 C549 1.327 . S
C551 C567 1.429 . S
C551 H573 0.950 . S
C552 H548 0.949 . S
C552 C560 1.574 . S
C552 C568 1.368 . S
H553 C561 0.950 . S
H554 C559 0.950 . S
H555 C560 0.949 . S
H556 C562 0.950 1_554 S
H557 C563 0.950 . S
H558 C564 0.949 . S
C559 H554 0.950 . S
C559 C561 1.327 . S
C559 C565 1.429 . S
C560 C552 1.574 . S
C560 H555 0.949 . S
C560 C566 1.368 . S
C561 C545 1.349 . S
C561 H553 0.950 . S
C561 C559 1.327 . S
C562 C550 1.349 . S
C562 H556 0.950 1_556 S
C562 C563 1.327 . S
C563 H557 0.950 . S
C563 C562 1.327 . S
C563 C567 1.429 . S
C564 C547 1.574 . S
C564 H558 0.949 . S
C564 C568 1.368 . S
C565 C546 1.429 . S
C565 C559 1.429 . S
C565 C566 1.523 . S
C566 C547 1.368 . S
C566 C560 1.368 . S
C566 C565 1.523 . S
C567 C551 1.429 . S
C567 C563 1.429 . S
C567 C568 1.523 . S
C568 C552 1.368 . S
C568 C564 1.368 . S
C568 C567 1.523 . S
H569 C544 0.950 . S
H570 C546 0.950 . S
H571 C547 0.949 . S
H572 C549 0.950 . S
H573 C551 0.950 . S
C574 C575 1.349 . S
C574 C576 1.327 . S
C574 H599 0.950 . S
C575 C574 1.349 . S
C575 C591 1.349 . S
C576 C574 1.327 . S
C576 C595 1.429 . S
C576 H600 0.950 . S
C577 C594 1.574 . S
C577 C596 1.368 . S
C577 H601 0.949 . S
H578 C582 0.949 . S
C579 C580 1.349 . S
C579 C581 1.327 . S
C579 H602 0.950 . S
C580 C579 1.349 . S
C580 C592 1.349 . S
C581 C579 1.327 . S
C581 C597 1.429 . S
C581 H603 0.950 . S
C582 H578 0.949 . S
C582 C590 1.574 . S
C582 C598 1.368 . S
H583 C591 0.950 . S
H584 C589 0.950 . S
H585 C590 0.949 . S
H586 C592 0.950 . S
H587 C593 0.950 . S
H588 C594 0.949 . S
C589 H584 0.950 . S
C589 C591 1.327 . S
C589 C595 1.429 . S
C590 C582 1.574 . S
C590 H585 0.949 . S
C590 C596 1.368 . S
C591 C575 1.349 . S
C591 H583 0.950 . S
C591 C589 1.327 . S
C592 C580 1.349 . S
C592 H586 0.950 . S
C592 C593 1.327 . S
C593 H587 0.950 . S
C593 C592 1.327 . S
C593 C597 1.429 . S
C594 C577 1.574 . S
C594 H588 0.949 . S
C594 C598 1.368 . S
C595 C576 1.429 . S
C595 C589 1.429 . S
C595 C596 1.523 . S
C596 C577 1.368 . S
C596 C590 1.368 . S
C596 C595 1.523 . S
C597 C581 1.429 . S
C597 C593 1.429 . S
C597 C598 1.523 . S
C598 C582 1.368 . S
C598 C594 1.368 . S
C598 C597 1.523 . S
H599 C574 0.950 . S
H600 C576 0.950 . S
H601 C577 0.949 . S
H602 C579 0.950 . S
H603 C581 0.950 . S
C604 C605 1.349 . S
C604 C606 1.327 . S
C604 H629 0.950 . S
C605 C604 1.349 . S
C605 C621 1.349 . S
C606 C604 1.327 . S
C606 C625 1.429 . S
C606 H630 0.950 . S
C607 C624 1.574 . S
C607 C626 1.368 . S
C607 H631 0.949 . S
H608 C612 0.949 . S
C609 C610 1.349 . S
C609 C611 1.327 . S
C609 H632 0.950 1_455 S
C610 C609 1.349 . S
C610 C622 1.349 . S
C611 C609 1.327 . S
C611 C627 1.429 . S
C611 H633 0.950 . S
C612 H608 0.949 . S
C612 C620 1.574 . S
C612 C628 1.368 . S
H613 C621 0.950 . S
H614 C619 0.950 . S
H615 C620 0.949 . S
H616 C622 0.950 . S
H617 C623 0.950 . S
H618 C624 0.949 . S
C619 H614 0.950 . S
C619 C621 1.327 . S
C619 C625 1.429 . S
C620 C612 1.574 . S
C620 H615 0.949 . S
C620 C626 1.368 . S
C621 C605 1.349 . S
C621 H613 0.950 . S
C621 C619 1.327 . S
C622 C610 1.349 . S
C622 H616 0.950 . S
C622 C623 1.327 . S
C623 H617 0.950 . S
C623 C622 1.327 . S
C623 C627 1.429 . S
C624 C607 1.574 . S
C624 H618 0.949 . S
C624 C628 1.368 . S
C625 C606 1.429 . S
C625 C619 1.429 . S
C625 C626 1.523 . S
C626 C607 1.368 . S
C626 C620 1.368 . S
C626 C625 1.523 . S
C627 C611 1.429 . S
C627 C623 1.429 . S
C627 C628 1.523 . S
C628 C612 1.368 . S
C628 C624 1.368 . S
C628 C627 1.523 . S
H629 C604 0.950 . S
H630 C606 0.950 . S
H631 C607 0.949 . S
H632 C609 0.950 1_655 S
H633 C611 0.950 . S
C634 C635 1.349 . S
C634 C636 1.327 . S
C634 H659 0.950 . S
C635 C634 1.349 . S
C635 C651 1.349 . S
C636 C634 1.327 . S
C636 C655 1.429 . S
C636 H660 0.950 . S
C637 C654 1.574 . S
C637 C656 1.368 . S
C637 H661 0.949 . S
H638 C642 0.949 . S
C639 C640 1.349 . S
C639 C641 1.327 . S
C639 H662 0.950 . S
C640 C639 1.349 . S
C640 C652 1.349 . S
C641 C639 1.327 . S
C641 C657 1.429 . S
C641 H663 0.950 . S
C642 H638 0.949 . S
C642 C650 1.574 . S
C642 C658 1.368 . S
H643 C651 0.950 . S
H644 C649 0.950 . S
H645 C650 0.949 . S
H646 C652 0.950 . S
H647 C653 0.950 . S
H648 C654 0.949 . S
C649 H644 0.950 . S
C649 C651 1.327 . S
C649 C655 1.429 . S
C650 C642 1.574 . S
C650 H645 0.949 . S
C650 C656 1.368 . S
C651 C635 1.349 . S
C651 H643 0.950 . S
C651 C649 1.327 . S
C652 C640 1.349 . S
C652 H646 0.950 . S
C652 C653 1.327 . S
C653 H647 0.950 . S
C653 C652 1.327 . S
C653 C657 1.429 . S
C654 C637 1.574 . S
C654 H648 0.949 . S
C654 C658 1.368 . S
C655 C636 1.429 . S
C655 C649 1.429 . S
C655 C656 1.523 . S
C656 C637 1.368 . S
C656 C650 1.368 . S
C656 C655 1.523 . S
C657 C641 1.429 . S
C657 C653 1.429 . S
C657 C658 1.523 . S
C658 C642 1.368 . S
C658 C654 1.368 . S
C658 C657 1.523 . S
H659 C634 0.950 . S
H660 C636 0.950 . S
H661 C637 0.949 . S
H662 C639 0.950 . S
H663 C641 0.950 . S
C664 C665 1.349 . S
C664 C666 1.327 . S
C664 H689 0.950 . S
C665 C664 1.349 . S
C665 C681 1.349 . S
C666 C664 1.327 . S
C666 C685 1.429 . S
C666 H690 0.950 . S
C667 C684 1.574 . S
C667 C686 1.368 . S
C667 H691 0.949 . S
H668 C672 0.949 . S
C669 C670 1.349 . S
C669 C671 1.327 . S
C669 H692 0.950 . S
C670 C669 1.349 . S
C670 C682 1.349 . S
C671 C669 1.327 . S
C671 C687 1.429 . S
C671 H693 0.950 . S
C672 H668 0.949 . S
C672 C680 1.574 . S
C672 C688 1.368 . S
H673 C681 0.950 . S
H674 C679 0.950 . S
H675 C680 0.949 . S
H676 C682 0.950 . S
H677 C683 0.950 . S
H678 C684 0.949 . S
C679 H674 0.950 . S
C679 C681 1.327 . S
C679 C685 1.429 . S
C680 C672 1.574 . S
C680 H675 0.949 . S
C680 C686 1.368 . S
C681 C665 1.349 . S
C681 H673 0.950 . S
C681 C679 1.327 . S
C682 C670 1.349 . S
C682 H676 0.950 . S
C682 C683 1.327 . S
C683 H677 0.950 . S
C683 C682 1.327 . S
C683 C687 1.429 . S
C684 C667 1.574 . S
C684 H678 0.949 . S
C684 C688 1.368 . S
C685 C666 1.429 . S
C685 C679 1.429 . S
C685 C686 1.523 . S
C686 C667 1.368 . S
C686 C680 1.368 . S
C686 C685 1.523 . S
C687 C671 1.429 . S
C687 C683 1.429 . S
C687 C688 1.523 . S
C688 C672 1.368 . S
C688 C684 1.368 . S
C688 C687 1.523 . S
H689 C664 0.950 . S
H690 C666 0.950 . S
H691 C667 0.949 . S
H692 C669 0.950 . S
H693 C671 0.950 . S
C694 C695 1.349 . S
C694 C696 1.327 . S
C694 H719 0.950 . S
C695 C694 1.349 . S
C695 C711 1.349 . S
C696 C694 1.327 . S
C696 C715 1.429 . S
C696 H720 0.950 . S
C697 C714 1.574 . S
C697 C716 1.368 . S
C697 H721 0.949 . S
H698 C702 0.949 . S
C699 C700 1.349 . S
C699 C701 1.327 . S
C699 H722 0.950 . S
C700 C699 1.349 . S
C700 C712 1.349 . S
C701 C699 1.327 . S
C701 C717 1.429 . S
C701 H723 0.950 . S
C702 H698 0.949 . S
C702 C710 1.574 . S
C702 C718 1.368 . S
H703 C711 0.950 . S
H704 C709 0.950 . S
H705 C710 0.949 . S
H706 C712 0.950 . S
H707 C713 0.950 . S
H708 C714 0.949 . S
C709 H704 0.950 . S
C709 C711 1.327 . S
C709 C715 1.429 . S
C710 C702 1.574 . S
C710 H705 0.949 . S
C710 C716 1.368 . S
C711 C695 1.349 . S
C711 H703 0.950 . S
C711 C709 1.327 . S
C712 C700 1.349 . S
C712 H706 0.950 . S
C712 C713 1.327 . S
C713 H707 0.950 . S
C713 C712 1.327 . S
C713 C717 1.429 . S
C714 C697 1.574 . S
C714 H708 0.949 . S
C714 C718 1.368 . S
C715 C696 1.429 . S
C715 C709 1.429 . S
C715 C716 1.523 . S
C716 C697 1.368 . S
C716 C710 1.368 . S
C716 C715 1.523 . S
C717 C701 1.429 . S
C717 C713 1.429 . S
C717 C718 1.523 . S
C718 C702 1.368 . S
C718 C714 1.368 . S
C718 C717 1.523 . S
H719 C694 0.950 . S
H720 C696 0.950 . S
H721 C697 0.949 . S
H722 C699 0.950 . S
H723 C701 0.950 . S
C724 C725 1.349 . S
C724 C726 1.327 . S
C724 H749 0.974 . S
C725 C724 1.349 . S
C725 C741 1.349 . S
C726 C724 1.327 . S
C726 C745 1.429 . S
C726 H750 0.950 . S
C727 C744 1.574 . S
C727 C746 1.368 . S
C727 H751 0.949 . S
H728 C732 0.949 . S
C729 C730 1.349 . S
C729 C731 1.327 . S
C729 H752 0.950 . S
C730 C729 1.349 . S
C730 C742 1.349 . S
C731 C729 1.327 . S
C731 C747 1.429 . S
C731 H753 0.950 . S
C732 H728 0.949 . S
C732 C740 1.574 . S
C732 C748 1.368 . S
H733 C741 0.950 . S
H734 C739 0.950 . S
H735 C740 0.949 . S
H736 C742 0.950 . S
H737 C743 0.950 . S
H738 C744 0.949 . S
C739 H734 0.950 . S
C739 C741 1.327 . S
C739 C745 1.429 . S
C740 C732 1.574 . S
C740 H735 0.949 . S
C740 C746 1.368 . S
C741 C725 1.349 . S
C741 H733 0.950 . S
C741 C739 1.327 . S
C742 C730 1.349 . S
C742 H736 0.950 . S
C742 C743 1.327 . S
C743 H737 0.950 . S
C743 C742 1.327 . S
C743 C747 1.429 . S
C744 C727 1.574 . S
C744 H738 0.949 . S
C744 C748 1.368 . S
C745 C726 1.429 . S
C745 C739 1.429 . S
C745 C746 1.523 . S
C746 C727 1.368 . S
C746 C740 1.368 . S
C746 C745 1.523 . S
C747 C731 1.429 . S
C747 C743 1.429 . S
C747 C748 1.523 . S
C748 C732 1.368 . S
C748 C744 1.368 . S
C748 C747 1.523 . S
H749 C724 0.974 . S
H750 C726 0.950 . S
H751 C727 0.949 . S
H752 C729 0.950 . S
H753 C731 0.950 . S
C754 C755 1.349 . S
C754 C756 1.327 . S
C754 H779 0.950 . S
C755 C754 1.349 . S
C755 C771 1.349 . S
C756 C754 1.327 . S
C756 C775 1.429 . S
C756 H780 0.950 . S
C757 C774 1.574 . S
C757 C776 1.368 . S
C757 H781 0.949 . S
H758 C762 0.949 . S
C759 C760 1.349 . S
C759 C761 1.327 . S
C759 H782 0.950 . S
C760 C759 1.349 . S
C760 C772 1.349 . S
C761 C759 1.327 . S
C761 C777 1.429 . S
C761 H783 0.950 . S
C762 H758 0.949 . S
C762 C770 1.574 . S
C762 C778 1.368 . S
H763 C771 0.950 . S
H764 C769 0.950 . S
H765 C770 0.949 . S
H766 C772 0.950 . S
H767 C773 0.950 . S
H768 C774 0.949 . S
C769 H764 0.950 . S
C769 C771 1.327 . S
C769 C775 1.429 . S
C770 C762 1.574 . S
C770 H765 0.949 . S
C770 C776 1.368 . S
C771 C755 1.349 . S
C771 H763 0.950 . S
C771 C769 1.327 . S
C772 C760 1.349 . S
C772 H766 0.950 . S
C772 C773 1.327 . S
C773 H767 0.950 . S
C773 C772 1.327 . S
C773 C777 1.429 . S
C774 C757 1.574 . S
C774 H768 0.949 . S
C774 C778 1.368 . S
C775 C756 1.429 . S
C775 C769 1.429 . S
C775 C776 1.523 . S
C776 C757 1.368 . S
C776 C770 1.368 . S
C776 C775 1.523 . S
C777 C761 1.429 . S
C777 C773 1.429 . S
C777 C778 1.523 . S
C778 C762 1.368 . S
C778 C774 1.368 . S
C778 C777 1.523 . S
H779 C754 0.950 . S
H780 C756 0.950 . S
H781 C757 0.949 . S
H782 C759 0.950 . S
H783 C761 0.950 . S
C784 C785 1.349 . S
C784 C786 1.327 . S
C784 H809 0.950 . S
C785 C784 1.349 . S
C785 C801 1.349 . S
C786 C784 1.327 . S
C786 C805 1.429 . S
C786 H810 0.950 . S
C787 C804 1.574 . S
C787 C806 1.368 . S
C787 H811 0.949 . S
H788 C792 0.949 . S
C789 C790 1.349 . S
C789 C791 1.327 . S
C789 H812 0.950 1_655 S
C790 C789 1.349 . S
C790 C802 1.349 . S
C791 C789 1.327 . S
C791 C807 1.429 . S
C791 H813 0.950 . S
C792 H788 0.949 . S
C792 C800 1.574 . S
C792 C808 1.368 . S
H793 C801 0.950 . S
H794 C799 0.950 . S
H795 C800 0.949 . S
H796 C802 0.950 . S
H797 C803 0.950 . S
H798 C804 0.949 . S
C799 H794 0.950 . S
C799 C801 1.327 . S
C799 C805 1.429 . S
C800 C792 1.574 . S
C800 H795 0.949 . S
C800 C806 1.368 . S
C801 C785 1.349 . S
C801 H793 0.950 . S
C801 C799 1.327 . S
C802 C790 1.349 . S
C802 H796 0.950 . S
C802 C803 1.327 . S
C803 H797 0.950 . S
C803 C802 1.327 . S
C803 C807 1.429 . S
C804 C787 1.574 . S
C804 H798 0.949 . S
C804 C808 1.368 . S
C805 C786 1.429 . S
C805 C799 1.429 . S
C805 C806 1.523 . S
C806 C787 1.368 . S
C806 C800 1.368 . S
C806 C805 1.523 . S
C807 C791 1.429 . S
C807 C803 1.429 . S
C807 C808 1.523 . S
C808 C792 1.368 . S
C808 C804 1.368 . S
C808 C807 1.523 . S
H809 C784 0.950 . S
H810 C786 0.950 . S
H811 C787 0.949 . S
H812 C789 0.950 1_455 S
H813 C791 0.950 . S
C814 C815 1.349 . S
C814 C816 1.327 . S
C814 H839 0.950 . S
C815 C814 1.349 . S
C815 C831 1.349 . S
C816 C814 1.327 . S
C816 C835 1.429 . S
C816 H840 0.950 . S
C817 C834 1.574 . S
C817 C836 1.368 . S
C817 H841 0.949 . S
H818 C822 0.949 . S
C819 C820 1.349 . S
C819 C821 1.327 . S
C819 H842 0.950 . S
C820 C819 1.349 . S
C820 C832 1.349 . S
C821 C819 1.327 . S
C821 C837 1.429 . S
C821 H843 0.950 . S
C822 H818 0.949 . S
C822 C830 1.574 . S
C822 C838 1.368 . S
H823 C831 0.950 . S
H824 C829 0.950 . S
H825 C830 0.949 . S
H826 C832 0.950 . S
H827 C833 0.950 . S
H828 C834 0.949 . S
C829 H824 0.950 . S
C829 C831 1.327 . S
C829 C835 1.429 . S
C830 C822 1.574 . S
C830 H825 0.949 . S
C830 C836 1.368 . S
C831 C815 1.349 . S
C831 H823 0.950 . S
C831 C829 1.327 . S
C832 C820 1.349 . S
C832 H826 0.950 . S
C832 C833 1.327 . S
C833 H827 0.950 . S
C833 C832 1.327 . S
C833 C837 1.429 . S
C834 C817 1.574 . S
C834 H828 0.949 . S
C834 C838 1.368 . S
C835 C816 1.429 . S
C835 C829 1.429 . S
C835 C836 1.523 . S
C836 C817 1.368 . S
C836 C830 1.368 . S
C836 C835 1.523 . S
C837 C821 1.429 . S
C837 C833 1.429 . S
C837 C838 1.523 . S
C838 C822 1.368 . S
C838 C834 1.368 . S
C838 C837 1.523 . S
H839 C814 0.950 . S
H840 C816 0.950 . S
H841 C817 0.949 . S
H842 C819 0.950 . S
H843 C821 0.950 . S
C844 C845 1.349 . S
C844 C846 1.327 . S
C844 H869 0.950 . S
C845 C844 1.349 . S
C845 C861 1.349 . S
C846 C844 1.327 . S
C846 C865 1.429 . S
C846 H870 0.950 . S
C847 C864 1.574 . S
C847 C866 1.368 . S
C847 H871 0.949 . S
H848 C852 0.949 . S
C849 C850 1.349 . S
C849 C851 1.327 . S
C849 H872 0.950 . S
C850 C849 1.349 . S
C850 C862 1.349 . S
C851 C849 1.327 . S
C851 C867 1.429 . S
C851 H873 0.950 . S
C852 H848 0.949 . S
C852 C860 1.574 . S
C852 C868 1.368 . S
H853 C861 0.950 . S
H854 C859 0.950 . S
H855 C860 0.949 . S
H856 C862 0.950 1_554 S
H857 C863 0.950 . S
H858 C864 0.949 . S
C859 H854 0.950 . S
C859 C861 1.327 . S
C859 C865 1.429 . S
C860 C852 1.574 . S
C860 H855 0.949 . S
C860 C866 1.368 . S
C861 C845 1.349 . S
C861 H853 0.950 . S
C861 C859 1.327 . S
C862 C850 1.349 . S
C862 H856 0.950 1_556 S
C862 C863 1.327 . S
C863 H857 0.950 . S
C863 C862 1.327 . S
C863 C867 1.429 . S
C864 C847 1.574 . S
C864 H858 0.949 . S
C864 C868 1.368 . S
C865 C846 1.429 . S
C865 C859 1.429 . S
C865 C866 1.523 . S
C866 C847 1.368 . S
C866 C860 1.368 . S
C866 C865 1.523 . S
C867 C851 1.429 . S
C867 C863 1.429 . S
C867 C868 1.523 . S
C868 C852 1.368 . S
C868 C864 1.368 . S
C868 C867 1.523 . S
H869 C844 0.950 . S
H870 C846 0.950 . S
H871 C847 0.949 . S
H872 C849 0.950 . S
H873 C851 0.950 . S
C874 C875 1.349 . S
C874 C876 1.327 . S
C874 H899 0.950 . S
C875 C874 1.349 . S
C875 C891 1.349 . S
C876 C874 1.327 . S
C876 C895 1.429 . S
C876 H900 0.950 . S
C877 C894 1.574 . S
C877 C896 1.368 . S
C877 H901 0.949 . S
H878 C882 0.949 . S
C879 C880 1.349 . S
C879 C881 1.327 . S
C879 H902 0.950 . S
C880 C879 1.349 . S
C880 C892 1.349 . S
C881 C879 1.327 . S
C881 C897 1.429 . S
C881 H903 0.950 . S
C882 H878 0.949 . S
C882 C890 1.574 . S
C882 C898 1.368 . S
H883 C891 0.950 . S
H884 C889 0.950 . S
H885 C890 0.949 . S
H886 C892 0.950 . S
H887 C893 0.950 . S
H888 C894 0.949 . S
C889 H884 0.950 . S
C889 C891 1.327 . S
C889 C895 1.429 . S
C890 C882 1.574 . S
C890 H885 0.949 . S
C890 C896 1.368 . S
C891 C875 1.349 . S
C891 H883 0.950 . S
C891 C889 1.327 . S
C892 C880 1.349 . S
C892 H886 0.950 . S
C892 C893 1.327 . S
C893 H887 0.950 . S
C893 C892 1.327 . S
C893 C897 1.429 . S
C894 C877 1.574 . S
C894 H888 0.949 . S
C894 C898 1.368 . S
C895 C876 1.429 . S
C895 C889 1.429 . S
C895 C896 1.523 . S
C896 C877 1.368 . S
C896 C890 1.368 . S
C896 C895 1.523 . S
C897 C881 1.429 . S
C897 C893 1.429 . S
C897 C898 1.523 . S
C898 C882 1.368 . S
C898 C894 1.368 . S
C898 C897 1.523 . S
H899 C874 0.950 . S
H900 C876 0.950 . S
H901 C877 0.949 . S
H902 C879 0.950 . S
H903 C881 0.950 . S
C904 C905 1.349 . S
C904 C906 1.327 . S
C904 H929 0.950 . S
C905 C904 1.349 . S
C905 C921 1.349 . S
C906 C904 1.327 . S
C906 C925 1.429 . S
C906 H930 0.950 . S
C907 C924 1.574 . S
C907 C926 1.368 . S
C907 H931 0.949 . S
H908 C912 0.949 . S
C909 C910 1.349 . S
C909 C911 1.327 . S
C909 H932 0.950 . S
C910 C909 1.349 . S
C910 C922 1.349 . S
C911 C909 1.327 . S
C911 C927 1.429 . S
C911 H933 0.950 . S
C912 H908 0.949 . S
C912 C920 1.574 . S
C912 C928 1.368 . S
H913 C921 0.950 . S
H914 C919 0.950 . S
H915 C920 0.949 . S
H916 C922 0.950 . S
H917 C923 0.950 . S
H918 C924 0.949 . S
C919 H914 0.950 . S
C919 C921 1.327 . S
C919 C925 1.429 . S
C920 C912 1.574 . S
C920 H915 0.949 . S
C920 C926 1.368 . S
C921 C905 1.349 . S
C921 H913 0.950 . S
C921 C919 1.327 . S
C922 C910 1.349 . S
C922 H916 0.950 . S
C922 C923 1.327 . S
C923 H917 0.950 . S
C923 C922 1.327 . S
C923 C927 1.429 . S
C924 C907 1.574 . S
C924 H918 0.949 . S
C924 C928 1.368 . S
C925 C906 1.429 . S
C925 C919 1.429 . S
C925 C926 1.523 . S
C926 C907 1.368 . S
C926 C920 1.368 . S
C926 C925 1.523 . S
C927 C911 1.429 . S
C927 C923 1.429 . S
C927 C928 1.523 . S
C928 C912 1.368 . S
C928 C924 1.368 . S
C928 C927 1.523 . S
H929 C904 0.950 . S
H930 C906 0.950 . S
H931 C907 0.949 . S
H932 C909 0.950 . S
H933 C911 0.950 . S
C934 C935 1.349 . S
C934 C936 1.327 . S
C934 H959 0.950 . S
C935 C934 1.349 . S
C935 C951 1.349 . S
C936 C934 1.327 . S
C936 C955 1.429 . S
C936 H960 0.950 . S
C937 C954 1.574 . S
C937 C956 1.368 . S
C937 H961 0.949 . S
H938 C942 0.949 . S
C939 C940 1.349 . S
C939 C941 1.327 . S
C939 H962 0.950 . S
C940 C939 1.349 . S
C940 C952 1.349 . S
C941 C939 1.327 . S
C941 C957 1.429 . S
C941 H963 0.950 . S
C942 H938 0.949 . S
C942 C950 1.574 . S
C942 C958 1.368 . S
H943 C951 0.950 . S
H944 C949 0.950 . S
H945 C950 0.949 . S
H946 C952 0.950 . S
H947 C953 0.950 . S
H948 C954 0.949 . S
C949 H944 0.950 . S
C949 C951 1.327 . S
C949 C955 1.429 . S
C950 C942 1.574 . S
C950 H945 0.949 . S
C950 C956 1.368 . S
C951 C935 1.349 . S
C951 H943 0.950 . S
C951 C949 1.327 . S
C952 C940 1.349 . S
C952 H946 0.950 . S
C952 C953 1.327 . S
C953 H947 0.950 . S
C953 C952 1.327 . S
C953 C957 1.429 . S
C954 C937 1.574 . S
C954 H948 0.949 . S
C954 C958 1.368 . S
C955 C936 1.429 . S
C955 C949 1.429 . S
C955 C956 1.523 . S
C956 C937 1.368 . S
C956 C950 1.368 . S
C956 C955 1.523 . S
C957 C941 1.429 . S
C957 C953 1.429 . S
C957 C958 1.523 . S
C958 C942 1.368 . S
C958 C954 1.368 . S
C958 C957 1.523 . S
H959 C934 0.950 . S
H960 C936 0.950 . S
H961 C937 0.949 . S
H962 C939 0.950 . S
H963 C941 0.950 . S
C964 C965 1.349 . S
C964 C966 1.327 . S
C964 H989 0.950 . S
C965 C964 1.349 . S
C965 C981 1.349 . S
C966 C964 1.327 . S
C966 C985 1.429 . S
C966 H990 0.950 . S
C967 C984 1.574 . S
C967 C986 1.368 . S
C967 H991 0.949 . S
H968 C972 0.949 . S
C969 C970 1.349 . S
C969 C971 1.327 . S
C969 H992 0.950 . S
C970 C969 1.349 . S
C970 C982 1.349 . S
C971 C969 1.327 . S
C971 C987 1.429 . S
C971 H993 0.950 . S
C972 H968 0.949 . S
C972 C980 1.574 . S
C972 C988 1.368 . S
H973 C981 0.950 . S
H974 C979 0.950 . S
H975 C980 0.949 . S
H976 C982 0.950 1_556 S
H977 C983 0.950 . S
H978 C984 0.949 . S
C979 H974 0.950 . S
C979 C981 1.327 . S
C979 C985 1.429 . S
C980 C972 1.574 . S
C980 H975 0.949 . S
C980 C986 1.368 . S
C981 C965 1.349 . S
C981 H973 0.950 . S
C981 C979 1.327 . S
C982 C970 1.349 . S
C982 H976 0.950 1_554 S
C982 C983 1.327 . S
C983 H977 0.950 . S
C983 C982 1.327 . S
C983 C987 1.429 . S
C984 C967 1.574 . S
C984 H978 0.949 . S
C984 C988 1.368 . S
C985 C966 1.429 . S
C985 C979 1.429 . S
C985 C986 1.523 . S
C986 C967 1.368 . S
C986 C980 1.368 . S
C986 C985 1.523 . S
C987 C971 1.429 . S
C987 C983 1.429 . S
C987 C988 1.523 . S
C988 C972 1.368 . S
C988 C984 1.368 . S
C988 C987 1.523 . S
H989 C964 0.950 . S
H990 C966 0.950 . S
H991 C967 0.949 . S
H992 C969 0.950 . S
H993 C971 0.950 . S
C994 C995 1.349 . S
C994 C996 1.327 . S
C994 H1019 0.950 . S
C995 C994 1.349 . S
C995 C1011 1.349 . S
C996 C994 1.327 . S
C996 C1015 1.429 . S
C996 H1020 0.950 . S
C997 C1014 1.574 . S
C997 C1016 1.368 . S
C997 H1021 0.949 . S
H998 C1002 0.949 . S
C999 C1000 1.349 . S
C999 C1001 1.327 . S
C999 H1022 0.950 . S
C1000 C999 1.349 . S
C1000 C1012 1.349 . S
C1001 C999 1.327 . S
C1001 C1017 1.429 . S
C1001 H1023 0.950 . S
C1002 H998 0.949 . S
C1002 C1010 1.574 . S
C1002 C1018 1.368 . S
H1003 C1011 0.950 . S
H1004 C1009 0.950 . S
H1005 C1010 0.949 . S
H1006 C1012 0.950 . S
H1007 C1013 0.950 . S
H1008 C1014 0.949 . S
C1009 H1004 0.950 . S
C1009 C1011 1.327 . S
C1009 C1015 1.429 . S
C1010 C1002 1.574 . S
C1010 H1005 0.949 . S
C1010 C1016 1.368 . S
C1011 C995 1.349 . S
C1011 H1003 0.950 . S
C1011 C1009 1.327 . S
C1012 C1000 1.349 . S
C1012 H1006 0.950 . S
C1012 C1013 1.327 . S
C1013 H1007 0.950 . S
C1013 C1012 1.327 . S
C1013 C1017 1.429 . S
C1014 C997 1.574 . S
C1014 H1008 0.949 . S
C1014 C1018 1.368 . S
C1015 C996 1.429 . S
C1015 C1009 1.429 . S
C1015 C1016 1.523 . S
C1016 C997 1.368 . S
C1016 C1010 1.368 . S
C1016 C1015 1.523 . S
C1017 C1001 1.429 . S
C1017 C1013 1.429 . S
C1017 C1018 1.523 . S
C1018 C1002 1.368 . S
C1018 C1014 1.368 . S
C1018 C1017 1.523 . S
H1019 C994 0.950 . S
H1020 C996 0.950 . S
H1021 C997 0.949 . S
H1022 C999 0.950 . S
H1023 C1001 0.950 . S
C1024 C1025 1.349 . S
C1024 C1026 1.327 . S
C1024 H1049 0.950 . S
C1025 C1024 1.349 . S
C1025 C1041 1.349 . S
C1026 C1024 1.327 . S
C1026 C1045 1.429 . S
C1026 H1050 0.950 . S
C1027 C1044 1.574 . S
C1027 C1046 1.368 . S
C1027 H1051 0.949 . S
H1028 C1032 0.949 . S
C1029 C1030 1.349 . S
C1029 C1031 1.327 . S
C1029 H1052 0.950 . S
C1030 C1029 1.349 . S
C1030 C1042 1.349 . S
C1031 C1029 1.327 . S
C1031 C1047 1.429 . S
C1031 H1053 0.950 . S
C1032 H1028 0.949 . S
C1032 C1040 1.574 . S
C1032 C1048 1.368 . S
H1033 C1041 0.950 . S
H1034 C1039 0.950 . S
H1035 C1040 0.949 . S
H1036 C1042 0.950 . S
H1037 C1043 0.950 . S
H1038 C1044 0.949 . S
C1039 H1034 0.950 . S
C1039 C1041 1.327 . S
C1039 C1045 1.429 . S
C1040 C1032 1.574 . S
C1040 H1035 0.949 . S
C1040 C1046 1.368 . S
C1041 C1025 1.349 . S
C1041 H1033 0.950 . S
C1041 C1039 1.327 . S
C1042 C1030 1.349 . S
C1042 H1036 0.950 . S
C1042 C1043 1.327 . S
C1043 H1037 0.950 . S
C1043 C1042 1.327 . S
C1043 C1047 1.429 . S
C1044 C1027 1.574 . S
C1044 H1038 0.949 . S
C1044 C1048 1.368 . S
C1045 C1026 1.429 . S
C1045 C1039 1.429 . S
C1045 C1046 1.523 . S
C1046 C1027 1.368 . S
C1046 C1040 1.368 . S
C1046 C1045 1.523 . S
C1047 C1031 1.429 . S
C1047 C1043 1.429 . S
C1047 C1048 1.523 . S
C1048 C1032 1.368 . S
C1048 C1044 1.368 . S
C1048 C1047 1.523 . S
H1049 C1024 0.950 . S
H1050 C1026 0.950 . S
H1051 C1027 0.949 . S
H1052 C1029 0.950 . S
H1053 C1031 0.950 . S
C1054 C1055 1.349 . S
C1054 C1056 1.327 . S
C1054 H1079 0.950 . S
C1055 C1054 1.349 . S
C1055 C1071 1.349 . S
C1056 C1054 1.327 . S
C1056 C1075 1.429 . S
C1056 H1080 0.950 . S
C1057 C1074 1.574 . S
C1057 C1076 1.368 . S
C1057 H1081 0.949 . S
H1058 C1062 0.949 . S
C1059 C1060 1.349 . S
C1059 C1061 1.327 . S
C1059 H1082 0.950 . S
C1060 C1059 1.349 . S
C1060 C1072 1.349 . S
C1061 C1059 1.327 . S
C1061 C1077 1.429 . S
C1061 H1083 0.950 . S
C1062 H1058 0.949 . S
C1062 C1070 1.574 . S
C1062 C1078 1.368 . S
H1063 C1071 0.950 . S
H1064 C1069 0.950 . S
H1065 C1070 0.949 . S
H1066 C1072 0.950 . S
H1067 C1073 0.950 . S
H1068 C1074 0.949 . S
C1069 H1064 0.950 . S
C1069 C1071 1.327 . S
C1069 C1075 1.429 . S
C1070 C1062 1.574 . S
C1070 H1065 0.949 . S
C1070 C1076 1.368 . S
C1071 C1055 1.349 . S
C1071 H1063 0.950 . S
C1071 C1069 1.327 . S
C1072 C1060 1.349 . S
C1072 H1066 0.950 . S
C1072 C1073 1.327 . S
C1073 H1067 0.950 . S
C1073 C1072 1.327 . S
C1073 C1077 1.429 . S
C1074 C1057 1.574 . S
C1074 H1068 0.949 . S
C1074 C1078 1.368 . S
C1075 C1056 1.429 . S
C1075 C1069 1.429 . S
C1075 C1076 1.523 . S
C1076 C1057 1.368 . S
C1076 C1070 1.368 . S
C1076 C1075 1.523 . S
C1077 C1061 1.429 . S
C1077 C1073 1.429 . S
C1077 C1078 1.523 . S
C1078 C1062 1.368 . S
C1078 C1074 1.368 . S
C1078 C1077 1.523 . S
H1079 C1054 0.950 . S
H1080 C1056 0.950 . S
H1081 C1057 0.949 . S
H1082 C1059 0.950 . S
H1083 C1061 0.950 . S
C1084 C1085 1.349 . S
C1084 C1086 1.327 . S
C1084 H1109 0.950 . S
C1085 C1084 1.349 . S
C1085 C1101 1.349 . S
C1086 C1084 1.327 . S
C1086 C1105 1.429 . S
C1086 H1110 0.950 . S
C1087 C1104 1.574 . S
C1087 C1106 1.368 . S
C1087 H1111 0.949 . S
H1088 C1092 0.949 . S
C1089 C1090 1.349 . S
C1089 C1091 1.327 . S
C1089 H1112 0.950 . S
C1090 C1089 1.349 . S
C1090 C1102 1.349 . S
C1091 C1089 1.327 . S
C1091 C1107 1.429 . S
C1091 H1113 0.950 . S
C1092 H1088 0.949 . S
C1092 C1100 1.574 . S
C1092 C1108 1.368 . S
H1093 C1101 0.950 . S
H1094 C1099 0.950 . S
H1095 C1100 0.949 . S
H1096 C1102 0.950 . S
H1097 C1103 0.950 . S
H1098 C1104 0.949 . S
C1099 H1094 0.950 . S
C1099 C1101 1.327 . S
C1099 C1105 1.429 . S
C1100 C1092 1.574 . S
C1100 H1095 0.949 . S
C1100 C1106 1.368 . S
C1101 C1085 1.349 . S
C1101 H1093 0.950 . S
C1101 C1099 1.327 . S
C1102 C1090 1.349 . S
C1102 H1096 0.950 . S
C1102 C1103 1.327 . S
C1103 H1097 0.950 . S
C1103 C1102 1.327 . S
C1103 C1107 1.429 . S
C1104 C1087 1.574 . S
C1104 H1098 0.949 . S
C1104 C1108 1.368 . S
C1105 C1086 1.429 . S
C1105 C1099 1.429 . S
C1105 C1106 1.523 . S
C1106 C1087 1.368 . S
C1106 C1100 1.368 . S
C1106 C1105 1.523 . S
C1107 C1091 1.429 . S
C1107 C1103 1.429 . S
C1107 C1108 1.523 . S
C1108 C1092 1.368 . S
C1108 C1104 1.368 . S
C1108 C1107 1.523 . S
H1109 C1084 0.950 . S
H1110 C1086 0.950 . S
H1111 C1087 0.949 . S
H1112 C1089 0.950 . S
H1113 C1091 0.950 . S
C1114 C1115 1.349 . S
C1114 C1116 1.327 . S
C1114 H1139 0.950 . S
C1115 C1114 1.349 . S
C1115 C1131 1.349 . S
C1116 C1114 1.327 . S
C1116 C1135 1.429 . S
C1116 H1140 0.950 . S
C1117 C1134 1.574 1_556 S
C1117 C1136 1.368 . S
C1117 H1141 0.949 . S
H1118 C1122 0.949 . S
C1119 C1120 1.349 . S
C1119 C1121 1.327 . S
C1119 H1142 0.950 . S
C1120 C1119 1.349 . S
C1120 C1132 1.349 . S
C1121 C1119 1.327 . S
C1121 C1137 1.429 . S
C1121 H1143 0.950 . S
C1122 H1118 0.949 . S
C1122 C1130 1.574 1_554 S
C1122 C1138 1.368 . S
H1123 C1131 0.950 . S
H1124 C1129 0.950 . S
H1125 C1130 0.949 . S
H1126 C1132 0.950 . S
H1127 C1133 0.950 . S
H1128 C1134 0.949 . S
C1129 H1124 0.950 . S
C1129 C1131 1.327 . S
C1129 C1135 1.429 . S
C1130 C1122 1.574 1_556 S
C1130 H1125 0.949 . S
C1130 C1136 1.368 1_455 S
C1131 C1115 1.349 . S
C1131 H1123 0.950 . S
C1131 C1129 1.327 . S
C1132 C1120 1.349 . S
C1132 H1126 0.950 . S
C1132 C1133 1.327 . S
C1133 H1127 0.950 . S
C1133 C1132 1.327 . S
C1133 C1137 1.429 . S
C1134 C1117 1.574 1_554 S
C1134 H1128 0.949 . S
C1134 C1138 1.368 1_655 S
C1135 C1116 1.429 . S
C1135 C1129 1.429 . S
C1135 C1136 1.523 . S
C1136 C1117 1.368 . S
C1136 C1130 1.368 1_655 S
C1136 C1135 1.523 . S
C1137 C1121 1.429 . S
C1137 C1133 1.429 . S
C1137 C1138 1.523 . S
C1138 C1122 1.368 . S
C1138 C1134 1.368 1_455 S
C1138 C1137 1.523 . S
H1139 C1114 0.950 . S
H1140 C1116 0.950 . S
H1141 C1117 0.949 . S
H1142 C1119 0.950 . S
H1143 C1121 0.950 . S
C1144 C1145 1.349 . S
C1144 C1146 1.327 . S
C1144 H1169 0.950 . S
C1145 C1144 1.349 . S
C1145 C1161 1.349 . S
C1146 C1144 1.327 . S
C1146 C1165 1.429 . S
C1146 H1170 0.950 . S
C1147 C1164 1.574 . S
C1147 C1166 1.368 . S
C1147 H1171 0.949 . S
H1148 C1152 0.949 . S
C1149 C1150 1.349 . S
C1149 C1151 1.327 . S
C1149 H1172 0.950 . S
C1150 C1149 1.349 . S
C1150 C1162 1.349 . S
C1151 C1149 1.327 . S
C1151 C1167 1.429 . S
C1151 H1173 0.950 . S
C1152 H1148 0.949 . S
C1152 C1160 1.574 . S
C1152 C1168 1.368 . S
H1153 C1161 0.950 . S
H1154 C1159 0.950 . S
H1155 C1160 0.949 . S
H1156 C1162 0.950 . S
H1157 C1163 0.950 . S
H1158 C1164 0.949 . S
C1159 H1154 0.950 . S
C1159 C1161 1.327 . S
C1159 C1165 1.429 . S
C1160 C1152 1.574 . S
C1160 H1155 0.949 . S
C1160 C1166 1.368 . S
C1161 C1145 1.349 . S
C1161 H1153 0.950 . S
C1161 C1159 1.327 . S
C1162 C1150 1.349 . S
C1162 H1156 0.950 . S
C1162 C1163 1.327 . S
C1163 H1157 0.950 . S
C1163 C1162 1.327 . S
C1163 C1167 1.429 . S
C1164 C1147 1.574 . S
C1164 H1158 0.949 . S
C1164 C1168 1.368 . S
C1165 C1146 1.429 . S
C1165 C1159 1.429 . S
C1165 C1166 1.523 . S
C1166 C1147 1.368 . S
C1166 C1160 1.368 . S
C1166 C1165 1.523 . S
C1167 C1151 1.429 . S
C1167 C1163 1.429 . S
C1167 C1168 1.523 . S
C1168 C1152 1.368 . S
C1168 C1164 1.368 . S
C1168 C1167 1.523 . S
H1169 C1144 0.950 . S
H1170 C1146 0.950 . S
H1171 C1147 0.949 . S
H1172 C1149 0.950 . S
H1173 C1151 0.950 . S
C1174 C1175 1.349 . S
C1174 C1176 1.327 . S
C1174 H1199 0.950 . S
C1175 C1174 1.349 . S
C1175 C1191 1.349 . S
C1176 C1174 1.327 . S
C1176 C1195 1.429 . S
C1176 H1200 0.950 . S
C1177 C1194 1.574 . S
C1177 C1196 1.368 . S
C1177 H1201 0.949 . S
H1178 C1182 0.949 . S
C1179 C1180 1.349 . S
C1179 C1181 1.327 . S
C1179 H1202 0.950 . S
C1180 C1179 1.349 . S
C1180 C1192 1.349 . S
C1181 C1179 1.327 . S
C1181 C1197 1.429 . S
C1181 H1203 0.950 . S
C1182 H1178 0.949 . S
C1182 C1190 1.574 . S
C1182 C1198 1.368 . S
H1183 C1191 0.950 . S
H1184 C1189 0.950 . S
H1185 C1190 0.949 . S
H1186 C1192 0.950 . S
H1187 C1193 0.950 . S
H1188 C1194 0.949 . S
C1189 H1184 0.950 . S
C1189 C1191 1.327 . S
C1189 C1195 1.429 . S
C1190 C1182 1.574 . S
C1190 H1185 0.949 . S
C1190 C1196 1.368 . S
C1191 C1175 1.349 . S
C1191 H1183 0.950 . S
C1191 C1189 1.327 . S
C1192 C1180 1.349 . S
C1192 H1186 0.950 . S
C1192 C1193 1.327 . S
C1193 H1187 0.950 . S
C1193 C1192 1.327 . S
C1193 C1197 1.429 . S
C1194 C1177 1.574 . S
C1194 H1188 0.949 . S
C1194 C1198 1.368 . S
C1195 C1176 1.429 . S
C1195 C1189 1.429 . S
C1195 C1196 1.523 . S
C1196 C1177 1.368 . S
C1196 C1190 1.368 . S
C1196 C1195 1.523 . S
C1197 C1181 1.429 . S
C1197 C1193 1.429 . S
C1197 C1198 1.523 . S
C1198 C1182 1.368 . S
C1198 C1194 1.368 . S
C1198 C1197 1.523 . S
H1199 C1174 0.950 . S
H1200 C1176 0.950 . S
H1201 C1177 0.949 . S
H1202 C1179 0.950 . S
H1203 C1181 0.950 . S
C1204 C1205 1.349 . S
C1204 C1206 1.327 . S
C1204 H1229 0.950 . S
C1205 C1204 1.349 . S
C1205 C1221 1.349 . S
C1206 C1204 1.327 . S
C1206 C1225 1.429 . S
C1206 H1230 0.950 . S
C1207 C1224 1.574 1_565 S
C1207 C1226 1.368 1_556 S
C1207 H1231 0.949 . S
H1208 C1212 0.949 . S
C1209 C1210 1.349 . S
C1209 C1211 1.327 . S
C1209 H1232 0.950 . S
C1210 C1209 1.349 . S
C1210 C1222 1.349 . S
C1211 C1209 1.327 . S
C1211 C1227 1.429 . S
C1211 H1233 0.950 . S
C1212 H1208 0.949 . S
C1212 C1220 1.574 1_545 S
C1212 C1228 1.368 1_554 S
H1213 C1221 0.950 . S
H1214 C1219 0.950 . S
H1215 C1220 0.949 . S
H1216 C1222 0.950 . S
H1217 C1223 0.950 . S
H1218 C1224 0.949 . S
C1219 H1214 0.950 . S
C1219 C1221 1.327 . S
C1219 C1225 1.429 . S
C1220 C1212 1.574 1_565 S
C1220 H1215 0.949 . S
C1220 C1226 1.368 1_455 S
C1221 C1205 1.349 . S
C1221 H1213 0.950 . S
C1221 C1219 1.327 . S
C1222 C1210 1.349 . S
C1222 H1216 0.950 . S
C1222 C1223 1.327 . S
C1223 H1217 0.950 . S
C1223 C1222 1.327 . S
C1223 C1227 1.429 . S
C1224 C1207 1.574 1_545 S
C1224 H1218 0.949 . S
C1224 C1228 1.368 1_655 S
C1225 C1206 1.429 . S
C1225 C1219 1.429 . S
C1225 C1226 1.523 . S
C1226 C1207 1.368 1_554 S
C1226 C1220 1.368 1_655 S
C1226 C1225 1.523 . S
C1227 C1211 1.429 . S
C1227 C1223 1.429 . S
C1227 C1228 1.523 . S
C1228 C1212 1.368 1_556 S
C1228 C1224 1.368 1_455 S
C1228 C1227 1.523 . S
H1229 C1204 0.950 . S
H1230 C1206 0.950 . S
H1231 C1207 0.949 . S
H1232 C1209 0.950 . S
H1233 C1211 0.950 . S
C1234 C1235 1.349 . S
C1234 C1236 1.327 . S
C1234 H1259 0.950 . S
C1235 C1234 1.349 . S
C1235 C1251 1.349 . S
C1236 C1234 1.327 . S
C1236 C1255 1.429 . S
C1236 H1260 0.950 . S
C1237 C1254 1.574 1_565 S
C1237 C1256 1.368 . S
C1237 H1261 0.949 . S
H1238 C1242 0.949 . S
C1239 C1240 1.349 . S
C1239 C1241 1.327 . S
C1239 H1262 0.950 . S
C1240 C1239 1.349 . S
C1240 C1252 1.349 . S
C1241 C1239 1.327 . S
C1241 C1257 1.429 . S
C1241 H1263 0.950 . S
C1242 H1238 0.949 . S
C1242 C1250 1.574 1_545 S
C1242 C1258 1.368 . S
H1243 C1251 0.950 . S
H1244 C1249 0.950 . S
H1245 C1250 0.949 . S
H1246 C1252 0.950 . S
H1247 C1253 0.950 . S
H1248 C1254 0.949 . S
C1249 H1244 0.950 . S
C1249 C1251 1.327 . S
C1249 C1255 1.429 . S
C1250 C1242 1.574 1_565 S
C1250 H1245 0.949 . S
C1250 C1256 1.368 . S
C1251 C1235 1.349 . S
C1251 H1243 0.950 . S
C1251 C1249 1.327 . S
C1252 C1240 1.349 . S
C1252 H1246 0.950 . S
C1252 C1253 1.327 . S
C1253 H1247 0.950 . S
C1253 C1252 1.327 . S
C1253 C1257 1.429 . S
C1254 C1237 1.574 1_545 S
C1254 H1248 0.949 . S
C1254 C1258 1.368 . S
C1255 C1236 1.429 . S
C1255 C1249 1.429 . S
C1255 C1256 1.523 . S
C1256 C1237 1.368 . S
C1256 C1250 1.368 . S
C1256 C1255 1.523 . S
C1257 C1241 1.429 . S
C1257 C1253 1.429 . S
C1257 C1258 1.523 . S
C1258 C1242 1.368 . S
C1258 C1254 1.368 . S
C1258 C1257 1.523 . S
H1259 C1234 0.950 . S
H1260 C1236 0.950 . S
H1261 C1237 0.949 . S
H1262 C1239 0.950 . S
H1263 C1241 0.950 . S
C1264 C1265 1.349 . S
C1264 C1266 1.327 . S
C1264 H1289 0.950 . S
C1265 C1264 1.349 . S
C1265 C1281 1.349 . S
C1266 C1264 1.327 . S
C1266 C1285 1.429 . S
C1266 H1290 0.950 . S
C1267 C1284 1.574 . S
C1267 C1286 1.368 . S
C1267 H1291 0.949 . S
H1268 C1272 0.949 . S
C1269 C1270 1.349 . S
C1269 C1271 1.327 . S
C1269 H1292 0.950 . S
C1270 C1269 1.349 . S
C1270 C1282 1.349 1_554 S
C1271 C1269 1.327 . S
C1271 C1287 1.429 1_554 S
C1271 H1293 0.950 . S
C1272 H1268 0.949 . S
C1272 C1280 1.574 . S
C1272 C1288 1.368 . S
H1273 C1281 0.950 . S
H1274 C1279 0.950 . S
H1275 C1280 0.949 . S
H1276 C1282 0.950 . S
H1277 C1283 0.950 . S
H1278 C1284 0.949 1_554 S
C1279 H1274 0.950 . S
C1279 C1281 1.327 . S
C1279 C1285 1.429 . S
C1280 C1272 1.574 . S
C1280 H1275 0.949 . S
C1280 C1286 1.368 . S
C1281 C1265 1.349 . S
C1281 H1273 0.950 . S
C1281 C1279 1.327 . S
C1282 C1270 1.349 1_556 S
C1282 H1276 0.950 . S
C1282 C1283 1.327 . S
C1283 H1277 0.950 . S
C1283 C1282 1.327 . S
C1283 C1287 1.429 . S
C1284 C1267 1.574 . S
C1284 H1278 0.949 1_556 S
C1284 C1288 1.368 . S
C1285 C1266 1.429 . S
C1285 C1279 1.429 . S
C1285 C1286 1.523 . S
C1286 C1267 1.368 . S
C1286 C1280 1.368 . S
C1286 C1285 1.523 . S
C1287 C1271 1.429 1_556 S
C1287 C1283 1.429 . S
C1287 C1288 1.523 . S
C1288 C1272 1.368 . S
C1288 C1284 1.368 . S
C1288 C1287 1.523 . S
H1289 C1264 0.950 . S
H1290 C1266 0.950 . S
H1291 C1267 0.949 . S
H1292 C1269 0.950 . S
H1293 C1271 0.950 . S
C1294 C1295 1.349 . S
C1294 C1296 1.327 . S
C1294 H1319 0.950 . S
C1295 C1294 1.349 . S
C1295 C1311 1.349 . S
C1296 C1294 1.327 . S
C1296 C1315 1.429 . S
C1296 H1320 0.950 . S
C1297 C1314 1.574 . S
C1297 C1316 1.368 . S
C1297 H1321 0.949 . S
H1298 C1302 0.949 . S
C1299 C1300 1.349 . S
C1299 C1301 1.327 . S
C1299 H1322 0.950 . S
C1300 C1299 1.349 . S
C1300 C1312 1.349 . S
C1301 C1299 1.327 . S
C1301 C1317 1.429 . S
C1301 H1323 0.950 . S
C1302 H1298 0.949 . S
C1302 C1310 1.574 . S
C1302 C1318 1.368 . S
H1303 C1311 0.950 . S
H1304 C1309 0.950 . S
H1305 C1310 0.949 . S
H1306 C1312 0.950 . S
H1307 C1313 0.950 . S
H1308 C1314 0.949 . S
C1309 H1304 0.950 . S
C1309 C1311 1.327 . S
C1309 C1315 1.429 . S
C1310 C1302 1.574 . S
C1310 H1305 0.949 . S
C1310 C1316 1.368 . S
C1311 C1295 1.349 . S
C1311 H1303 0.950 . S
C1311 C1309 1.327 . S
C1312 C1300 1.349 . S
C1312 H1306 0.950 . S
C1312 C1313 1.327 . S
C1313 H1307 0.950 . S
C1313 C1312 1.327 . S
C1313 C1317 1.429 . S
C1314 C1297 1.574 . S
C1314 H1308 0.949 . S
C1314 C1318 1.368 . S
C1315 C1296 1.429 . S
C1315 C1309 1.429 . S
C1315 C1316 1.523 . S
C1316 C1297 1.368 . S
C1316 C1310 1.368 . S
C1316 C1315 1.523 . S
C1317 C1301 1.429 . S
C1317 C1313 1.429 . S
C1317 C1318 1.523 . S
C1318 C1302 1.368 . S
C1318 C1314 1.368 . S
C1318 C1317 1.523 . S
H1319 C1294 0.950 . S
H1320 C1296 0.950 . S
H1321 C1297 0.949 . S
H1322 C1299 0.950 . S
H1323 C1301 0.950 . S
C1324 C1325 1.349 . S
C1324 C1326 1.327 . S
C1324 H1349 0.950 . S
C1325 C1324 1.349 . S
C1325 C1341 1.349 . S
C1326 C1324 1.327 . S
C1326 C1345 1.429 . S
C1326 H1350 0.950 . S
C1327 C1344 1.574 . S
C1327 C1346 1.368 . S
C1327 H1351 0.949 . S
H1328 C1332 0.949 . S
C1329 C1330 1.349 . S
C1329 C1331 1.327 . S
C1329 H1352 0.950 . S
C1330 C1329 1.349 . S
C1330 C1342 1.349 . S
C1331 C1329 1.327 . S
C1331 C1347 1.429 . S
C1331 H1353 0.950 . S
C1332 H1328 0.949 . S
C1332 C1340 1.574 . S
C1332 C1348 1.368 . S
H1333 C1341 0.950 . S
H1334 C1339 0.950 . S
H1335 C1340 0.949 . S
H1336 C1342 0.950 . S
H1337 C1343 0.950 . S
H1338 C1344 0.949 . S
C1339 H1334 0.950 . S
C1339 C1341 1.327 . S
C1339 C1345 1.429 . S
C1340 C1332 1.574 . S
C1340 H1335 0.949 . S
C1340 C1346 1.368 . S
C1341 C1325 1.349 . S
C1341 H1333 0.950 . S
C1341 C1339 1.327 . S
C1342 C1330 1.349 . S
C1342 H1336 0.950 . S
C1342 C1343 1.327 . S
C1343 H1337 0.950 . S
C1343 C1342 1.327 . S
C1343 C1347 1.429 . S
C1344 C1327 1.574 . S
C1344 H1338 0.949 . S
C1344 C1348 1.368 . S
C1345 C1326 1.429 . S
C1345 C1339 1.429 . S
C1345 C1346 1.523 . S
C1346 C1327 1.368 . S
C1346 C1340 1.368 . S
C1346 C1345 1.523 . S
C1347 C1331 1.429 . S
C1347 C1343 1.429 . S
C1347 C1348 1.523 . S
C1348 C1332 1.368 . S
C1348 C1344 1.368 . S
C1348 C1347 1.523 . S
H1349 C1324 0.950 . S
H1350 C1326 0.950 . S
H1351 C1327 0.949 . S
H1352 C1329 0.950 . S
H1353 C1331 0.950 . S
C1354 C1355 1.349 . S
C1354 C1356 1.327 . S
C1354 H1379 0.950 . S
C1355 C1354 1.349 . S
C1355 C1371 1.349 . S
C1356 C1354 1.327 . S
C1356 C1375 1.429 . S
C1356 H1380 0.950 . S
C1357 C1374 1.574 . S
C1357 C1376 1.368 . S
C1357 H1381 0.949 . S
H1358 C1362 0.949 . S
C1359 C1360 1.349 . S
C1359 C1361 1.327 . S
C1359 H1382 0.950 . S
C1360 C1359 1.349 . S
C1360 C1372 1.349 . S
C1361 C1359 1.327 . S
C1361 C1377 1.429 . S
C1361 H1383 0.950 . S
C1362 H1358 0.949 . S
C1362 C1370 1.574 . S
C1362 C1378 1.368 . S
H1363 C1371 0.950 . S
H1364 C1369 0.950 . S
H1365 C1370 0.949 . S
H1366 C1372 0.950 . S
H1367 C1373 0.950 . S
H1368 C1374 0.949 . S
C1369 H1364 0.950 . S
C1369 C1371 1.327 . S
C1369 C1375 1.429 . S
C1370 C1362 1.574 . S
C1370 H1365 0.949 . S
C1370 C1376 1.368 . S
C1371 C1355 1.349 . S
C1371 H1363 0.950 . S
C1371 C1369 1.327 . S
C1372 C1360 1.349 . S
C1372 H1366 0.950 . S
C1372 C1373 1.327 . S
C1373 H1367 0.950 . S
C1373 C1372 1.327 . S
C1373 C1377 1.429 . S
C1374 C1357 1.574 . S
C1374 H1368 0.949 . S
C1374 C1378 1.368 . S
C1375 C1356 1.429 . S
C1375 C1369 1.429 . S
C1375 C1376 1.523 . S
C1376 C1357 1.368 . S
C1376 C1370 1.368 . S
C1376 C1375 1.523 . S
C1377 C1361 1.429 . S
C1377 C1373 1.429 . S
C1377 C1378 1.523 . S
C1378 C1362 1.368 . S
C1378 C1374 1.368 . S
C1378 C1377 1.523 . S
H1379 C1354 0.950 . S
H1380 C1356 0.950 . S
H1381 C1357 0.949 . S
H1382 C1359 0.950 . S
H1383 C1361 0.950 . S
C1384 C1385 1.347 1_554 S
C1384 C1386 1.334 . S
C1384 H1409 0.944 1_554 S
C1385 C1384 1.347 1_556 S
C1385 C1401 1.349 1_556 S
C1386 C1384 1.334 . S
C1386 C1405 1.429 . S
C1386 H1410 0.950 . S
C1387 C1404 1.574 . S
C1387 C1406 1.368 . S
C1387 H1411 0.949 . S
H1388 C1392 0.949 . S
C1389 C1390 1.349 . S
C1389 C1391 1.327 . S
C1389 H1412 0.950 . S
C1390 C1389 1.349 . S
C1390 C1402 1.349 . S
C1391 C1389 1.327 . S
C1391 C1407 1.429 . S
C1391 H1413 0.950 . S
C1392 H1388 0.949 . S
C1392 C1400 1.574 . S
C1392 C1408 1.368 . S
H1393 C1401 0.950 . S
H1394 C1399 0.950 . S
H1395 C1400 0.949 . S
H1396 C1402 0.950 . S
H1397 C1403 0.950 . S
H1398 C1404 0.949 . S
C1399 H1394 0.950 . S
C1399 C1401 1.327 . S
C1399 C1405 1.429 . S
C1400 C1392 1.574 . S
C1400 H1395 0.949 . S
C1400 C1406 1.368 . S
C1401 C1385 1.349 1_554 S
C1401 H1393 0.950 . S
C1401 C1399 1.327 . S
C1402 C1390 1.349 . S
C1402 H1396 0.950 . S
C1402 C1403 1.327 . S
C1403 H1397 0.950 . S
C1403 C1402 1.327 . S
C1403 C1407 1.429 . S
C1404 C1387 1.574 . S
C1404 H1398 0.949 . S
C1404 C1408 1.368 . S
C1405 C1386 1.429 . S
C1405 C1399 1.429 . S
C1405 C1406 1.523 . S
C1406 C1387 1.368 . S
C1406 C1400 1.368 . S
C1406 C1405 1.523 . S
C1407 C1391 1.429 . S
C1407 C1403 1.429 . S
C1407 C1408 1.523 . S
C1408 C1392 1.368 . S
C1408 C1404 1.368 . S
C1408 C1407 1.523 . S
H1409 C1384 0.944 1_556 S
H1410 C1386 0.950 . S
H1411 C1387 0.949 . S
H1412 C1389 0.950 . S
H1413 C1391 0.950 . S
C1414 C1415 1.349 . S
C1414 C1416 1.327 . S
C1414 H1439 0.950 . S
C1415 C1414 1.349 . S
C1415 C1431 1.349 . S
C1416 C1414 1.327 . S
C1416 C1435 1.429 . S
C1416 H1440 0.950 . S
C1417 C1434 1.574 . S
C1417 C1436 1.368 . S
C1417 H1441 0.949 . S
H1418 C1422 0.949 . S
C1419 C1420 1.349 . S
C1419 C1421 1.327 . S
C1419 H1442 0.950 . S
C1420 C1419 1.349 . S
C1420 C1432 1.349 . S
C1421 C1419 1.327 . S
C1421 C1437 1.429 . S
C1421 H1443 0.950 . S
C1422 H1418 0.949 . S
C1422 C1430 1.574 . S
C1422 C1438 1.368 . S
H1423 C1431 0.950 . S
H1424 C1429 0.950 . S
H1425 C1430 0.949 . S
H1426 C1432 0.950 . S
H1427 C1433 0.950 . S
H1428 C1434 0.949 . S
C1429 H1424 0.950 . S
C1429 C1431 1.327 . S
C1429 C1435 1.429 . S
C1430 C1422 1.574 . S
C1430 H1425 0.949 . S
C1430 C1436 1.368 . S
C1431 C1415 1.349 . S
C1431 H1423 0.950 . S
C1431 C1429 1.327 . S
C1432 C1420 1.349 . S
C1432 H1426 0.950 . S
C1432 C1433 1.327 . S
C1433 H1427 0.950 . S
C1433 C1432 1.327 . S
C1433 C1437 1.429 . S
C1434 C1417 1.574 . S
C1434 H1428 0.949 . S
C1434 C1438 1.368 . S
C1435 C1416 1.429 . S
C1435 C1429 1.429 . S
C1435 C1436 1.523 . S
C1436 C1417 1.368 . S
C1436 C1430 1.368 . S
C1436 C1435 1.523 . S
C1437 C1421 1.429 . S
C1437 C1433 1.429 . S
C1437 C1438 1.523 . S
C1438 C1422 1.368 . S
C1438 C1434 1.368 . S
C1438 C1437 1.523 . S
H1439 C1414 0.950 . S
H1440 C1416 0.950 . S
H1441 C1417 0.949 . S
H1442 C1419 0.950 . S
H1443 C1421 0.950 . S
C1444 C1445 1.349 . S
C1444 C1446 1.327 . S
C1444 H1469 0.950 . S
C1445 C1444 1.349 . S
C1445 C1461 1.349 . S
C1446 C1444 1.327 . S
C1446 C1465 1.429 . S
C1446 H1470 0.950 . S
C1447 C1464 1.574 . S
C1447 C1466 1.368 . S
C1447 H1471 0.949 . S
H1448 C1452 0.949 . S
C1449 C1450 1.349 . S
C1449 C1451 1.327 . S
C1449 H1472 0.950 . S
C1450 C1449 1.349 . S
C1450 C1462 1.349 . S
C1451 C1449 1.327 . S
C1451 C1467 1.429 . S
C1451 H1473 0.950 . S
C1452 H1448 0.949 . S
C1452 C1460 1.574 . S
C1452 C1468 1.368 . S
H1453 C1461 0.950 . S
H1454 C1459 0.950 . S
H1455 C1460 0.949 . S
H1456 C1462 0.950 . S
H1457 C1463 0.950 . S
H1458 C1464 0.949 . S
C1459 H1454 0.950 . S
C1459 C1461 1.327 . S
C1459 C1465 1.429 . S
C1460 C1452 1.574 . S
C1460 H1455 0.949 . S
C1460 C1466 1.368 . S
C1461 C1445 1.349 . S
C1461 H1453 0.950 . S
C1461 C1459 1.327 . S
C1462 C1450 1.349 . S
C1462 H1456 0.950 . S
C1462 C1463 1.327 . S
C1463 H1457 0.950 . S
C1463 C1462 1.327 . S
C1463 C1467 1.429 . S
C1464 C1447 1.574 . S
C1464 H1458 0.949 . S
C1464 C1468 1.368 . S
C1465 C1446 1.429 . S
C1465 C1459 1.429 . S
C1465 C1466 1.523 . S
C1466 C1447 1.368 . S
C1466 C1460 1.368 . S
C1466 C1465 1.523 . S
C1467 C1451 1.429 . S
C1467 C1463 1.429 . S
C1467 C1468 1.523 . S
C1468 C1452 1.368 . S
C1468 C1464 1.368 . S
C1468 C1467 1.523 . S
H1469 C1444 0.950 . S
H1470 C1446 0.950 . S
H1471 C1447 0.949 . S
H1472 C1449 0.950 . S
H1473 C1451 0.950 . S
C1474 C1475 1.349 . S
C1474 C1476 1.327 . S
C1474 H1499 0.950 . S
C1475 C1474 1.349 . S
C1475 C1491 1.349 . S
C1476 C1474 1.327 . S
C1476 C1495 1.429 . S
C1476 H1500 0.950 . S
C1477 C1494 1.574 . S
C1477 C1496 1.368 . S
C1477 H1501 0.949 . S
H1478 C1482 0.949 . S
C1479 C1480 1.349 . S
C1479 C1481 1.327 . S
C1479 H1502 0.950 . S
C1480 C1479 1.349 . S
C1480 C1492 1.349 . S
C1481 C1479 1.327 . S
C1481 C1497 1.429 . S
C1481 H1503 0.950 . S
C1482 H1478 0.949 . S
C1482 C1490 1.574 . S
C1482 C1498 1.368 . S
H1483 C1491 0.950 . S
H1484 C1489 0.950 . S
H1485 C1490 0.949 . S
H1486 C1492 0.950 . S
H1487 C1493 0.950 . S
H1488 C1494 0.949 . S
C1489 H1484 0.950 . S
C1489 C1491 1.327 . S
C1489 C1495 1.429 . S
C1490 C1482 1.574 . S
C1490 H1485 0.949 . S
C1490 C1496 1.368 . S
C1491 C1475 1.349 . S
C1491 H1483 0.950 . S
C1491 C1489 1.327 . S
C1492 C1480 1.349 . S
C1492 H1486 0.950 . S
C1492 C1493 1.327 . S
C1493 H1487 0.950 . S
C1493 C1492 1.327 . S
C1493 C1497 1.429 . S
C1494 C1477 1.574 . S
C1494 H1488 0.949 . S
C1494 C1498 1.368 . S
C1495 C1476 1.429 . S
C1495 C1489 1.429 . S
C1495 C1496 1.523 . S
C1496 C1477 1.368 . S
C1496 C1490 1.368 . S
C1496 C1495 1.523 . S
C1497 C1481 1.429 . S
C1497 C1493 1.429 . S
C1497 C1498 1.523 . S
C1498 C1482 1.368 . S
C1498 C1494 1.368 . S
C1498 C1497 1.523 . S
H1499 C1474 0.950 . S
H1500 C1476 0.950 . S
H1501 C1477 0.949 . S
H1502 C1479 0.950 . S
H1503 C1481 0.950 . S
C1504 C1505 1.349 . S
C1504 C1506 1.327 . S
C1504 H1529 0.950 . S
C1505 C1504 1.349 . S
C1505 C1521 1.349 . S
C1506 C1504 1.327 . S
C1506 C1525 1.429 . S
C1506 H1530 0.950 . S
C1507 C1524 1.574 . S
C1507 C1526 1.368 . S
C1507 H1531 0.949 . S
H1508 C1512 0.949 . S
C1509 C1510 1.349 . S
C1509 C1511 1.327 . S
C1509 H1532 0.950 . S
C1510 C1509 1.349 . S
C1510 C1522 1.349 . S
C1511 C1509 1.327 . S
C1511 C1527 1.429 . S
C1511 H1533 0.950 . S
C1512 H1508 0.949 . S
C1512 C1520 1.574 . S
C1512 C1528 1.368 . S
H1513 C1521 0.950 . S
H1514 C1519 0.950 . S
H1515 C1520 0.949 . S
H1516 C1522 0.950 . S
H1517 C1523 0.950 . S
H1518 C1524 0.949 . S
C1519 H1514 0.950 . S
C1519 C1521 1.327 . S
C1519 C1525 1.429 . S
C1520 C1512 1.574 . S
C1520 H1515 0.949 . S
C1520 C1526 1.368 . S
C1521 C1505 1.349 . S
C1521 H1513 0.950 . S
C1521 C1519 1.327 . S
C1522 C1510 1.349 . S
C1522 H1516 0.950 . S
C1522 C1523 1.327 . S
C1523 H1517 0.950 . S
C1523 C1522 1.327 . S
C1523 C1527 1.429 . S
C1524 C1507 1.574 . S
C1524 H1518 0.949 . S
C1524 C1528 1.368 . S
C1525 C1506 1.429 . S
C1525 C1519 1.429 . S
C1525 C1526 1.523 . S
C1526 C1507 1.368 . S
C1526 C1520 1.368 . S
C1526 C1525 1.523 . S
C1527 C1511 1.429 . S
C1527 C1523 1.429 . S
C1527 C1528 1.523 . S
C1528 C1512 1.368 . S
C1528 C1524 1.368 . S
C1528 C1527 1.523 . S
H1529 C1504 0.950 . S
H1530 C1506 0.950 . S
H1531 C1507 0.949 . S
H1532 C1509 0.950 . S
H1533 C1511 0.950 . S
C1534 C1535 1.349 . S
C1534 C1536 1.327 1_545 S
C1534 H1559 0.950 . S
C1535 C1534 1.349 . S
C1535 C1551 1.349 . S
C1536 C1534 1.327 1_565 S
C1536 C1555 1.429 . S
C1536 H1560 0.950 . S
C1537 C1554 1.574 . S
C1537 C1556 1.368 . S
C1537 H1561 0.949 . S
H1538 C1542 0.949 . S
C1539 C1540 1.349 . S
C1539 C1541 1.327 . S
C1539 H1562 0.950 . S
C1540 C1539 1.349 . S
C1540 C1552 1.349 . S
C1541 C1539 1.327 . S
C1541 C1557 1.429 . S
C1541 H1563 0.950 . S
C1542 H1538 0.949 . S
C1542 C1550 1.574 . S
C1542 C1558 1.368 . S
H1543 C1551 0.950 . S
H1544 C1549 0.950 . S
H1545 C1550 0.949 . S
H1546 C1552 0.950 . S
H1547 C1553 0.950 . S
H1548 C1554 0.949 . S
C1549 H1544 0.950 . S
C1549 C1551 1.327 . S
C1549 C1555 1.429 1_545 S
C1550 C1542 1.574 . S
C1550 H1545 0.949 . S
C1550 C1556 1.368 . S
C1551 C1535 1.349 . S
C1551 H1543 0.950 . S
C1551 C1549 1.327 . S
C1552 C1540 1.349 . S
C1552 H1546 0.950 . S
C1552 C1553 1.327 . S
C1553 H1547 0.950 . S
C1553 C1552 1.327 . S
C1553 C1557 1.429 . S
C1554 C1537 1.574 . S
C1554 H1548 0.949 . S
C1554 C1558 1.368 . S
C1555 C1536 1.429 . S
C1555 C1549 1.429 1_565 S
C1555 C1556 1.523 . S
C1556 C1537 1.368 . S
C1556 C1550 1.368 . S
C1556 C1555 1.523 . S
C1557 C1541 1.429 . S
C1557 C1553 1.429 . S
C1557 C1558 1.523 . S
C1558 C1542 1.368 . S
C1558 C1554 1.368 . S
C1558 C1557 1.523 . S
H1559 C1534 0.950 . S
H1560 C1536 0.950 . S
H1561 C1537 0.949 . S
H1562 C1539 0.950 . S
H1563 C1541 0.950 . S
C1564 C1565 1.349 1_556 S
C1564 C1566 1.327 . S
C1564 H1589 0.950 . S
C1565 C1564 1.349 1_554 S
C1565 C1581 1.349 . S
C1566 C1564 1.327 . S
C1566 C1585 1.429 . S
C1566 H1590 0.950 . S
C1567 C1584 1.574 . S
C1567 C1586 1.368 . S
C1567 H1591 0.949 1_556 S
H1568 C1572 0.949 . S
C1569 C1570 1.349 . S
C1569 C1571 1.327 . S
C1569 H1592 0.950 . S
C1570 C1569 1.349 . S
C1570 C1582 1.349 . S
C1571 C1569 1.327 . S
C1571 C1587 1.429 . S
C1571 H1593 0.950 . S
C1572 H1568 0.949 . S
C1572 C1580 1.574 . S
C1572 C1588 1.368 . S
H1573 C1581 0.950 . S
H1574 C1579 0.950 . S
H1575 C1580 0.949 . S
H1576 C1582 0.950 . S
H1577 C1583 0.950 . S
H1578 C1584 0.949 . S
C1579 H1574 0.950 . S
C1579 C1581 1.327 . S
C1579 C1585 1.429 1_554 S
C1580 C1572 1.574 . S
C1580 H1575 0.949 . S
C1580 C1586 1.368 . S
C1581 C1565 1.349 . S
C1581 H1573 0.950 . S
C1581 C1579 1.327 . S
C1582 C1570 1.349 . S
C1582 H1576 0.950 . S
C1582 C1583 1.327 . S
C1583 H1577 0.950 . S
C1583 C1582 1.327 . S
C1583 C1587 1.429 . S
C1584 C1567 1.574 . S
C1584 H1578 0.949 . S
C1584 C1588 1.368 . S
C1585 C1566 1.429 . S
C1585 C1579 1.429 1_556 S
C1585 C1586 1.523 . S
C1586 C1567 1.368 . S
C1586 C1580 1.368 . S
C1586 C1585 1.523 . S
C1587 C1571 1.429 . S
C1587 C1583 1.429 . S
C1587 C1588 1.523 . S
C1588 C1572 1.368 . S
C1588 C1584 1.368 . S
C1588 C1587 1.523 . S
H1589 C1564 0.950 . S
H1590 C1566 0.950 . S
H1591 C1567 0.949 1_554 S
H1592 C1569 0.950 . S
H1593 C1571 0.950 . S
C1594 C1595 1.349 . S
C1594 C1596 1.327 . S
C1594 H1619 0.950 . S
C1595 C1594 1.349 . S
C1595 C1611 1.349 . S
C1596 C1594 1.327 . S
C1596 C1615 1.429 1_565 S
C1596 H1620 0.950 . S
C1597 C1614 1.574 . S
C1597 C1616 1.368 . S
C1597 H1621 0.949 . S
H1598 C1602 0.949 . S
C1599 C1600 1.349 . S
C1599 C1601 1.327 . S
C1599 H1622 0.950 . S
C1600 C1599 1.349 . S
C1600 C1612 1.349 . S
C1601 C1599 1.327 . S
C1601 C1617 1.429 . S
C1601 H1623 0.950 . S
C1602 H1598 0.949 . S
C1602 C1610 1.574 . S
C1602 C1618 1.368 . S
H1603 C1611 0.950 . S
H1604 C1609 0.950 . S
H1605 C1610 0.949 . S
H1606 C1612 0.950 . S
H1607 C1613 0.950 . S
H1608 C1614 0.949 . S
C1609 H1604 0.950 . S
C1609 C1611 1.327 1_545 S
C1609 C1615 1.429 . S
C1610 C1602 1.574 . S
C1610 H1605 0.949 . S
C1610 C1616 1.368 . S
C1611 C1595 1.349 . S
C1611 H1603 0.950 . S
C1611 C1609 1.327 1_565 S
C1612 C1600 1.349 . S
C1612 H1606 0.950 . S
C1612 C1613 1.327 . S
C1613 H1607 0.950 . S
C1613 C1612 1.327 . S
C1613 C1617 1.429 . S
C1614 C1597 1.574 . S
C1614 H1608 0.949 . S
C1614 C1618 1.368 . S
C1615 C1596 1.429 1_545 S
C1615 C1609 1.429 . S
C1615 C1616 1.523 . S
C1616 C1597 1.368 . S
C1616 C1610 1.368 . S
C1616 C1615 1.523 . S
C1617 C1601 1.429 . S
C1617 C1613 1.429 . S
C1617 C1618 1.523 . S
C1618 C1602 1.368 . S
C1618 C1614 1.368 . S
C1618 C1617 1.523 . S
H1619 C1594 0.950 . S
H1620 C1596 0.950 . S
H1621 C1597 0.949 . S
H1622 C1599 0.950 . S
H1623 C1601 0.950 . S
C1624 C1625 1.349 . S
C1624 C1626 1.327 . S
C1624 H1649 0.950 . S
C1625 C1624 1.349 . S
C1625 C1641 1.349 . S
C1626 C1624 1.327 . S
C1626 C1645 1.429 . S
C1626 H1650 0.950 . S
C1627 C1644 1.574 . S
C1627 C1646 1.368 . S
C1627 H1651 0.949 . S
H1628 C1632 0.949 . S
C1629 C1630 1.349 . S
C1629 C1631 1.327 . S
C1629 H1652 0.950 . S
C1630 C1629 1.349 . S
C1630 C1642 1.349 . S
C1631 C1629 1.327 . S
C1631 C1647 1.429 . S
C1631 H1653 0.950 . S
C1632 H1628 0.949 . S
C1632 C1640 1.574 . S
C1632 C1648 1.368 . S
H1633 C1641 0.950 . S
H1634 C1639 0.950 . S
H1635 C1640 0.949 . S
H1636 C1642 0.950 . S
H1637 C1643 0.950 . S
H1638 C1644 0.949 . S
C1639 H1634 0.950 . S
C1639 C1641 1.327 . S
C1639 C1645 1.429 . S
C1640 C1632 1.574 . S
C1640 H1635 0.949 . S
C1640 C1646 1.368 . S
C1641 C1625 1.349 . S
C1641 H1633 0.950 . S
C1641 C1639 1.327 . S
C1642 C1630 1.349 . S
C1642 H1636 0.950 . S
C1642 C1643 1.327 . S
C1643 H1637 0.950 . S
C1643 C1642 1.327 . S
C1643 C1647 1.429 . S
C1644 C1627 1.574 . S
C1644 H1638 0.949 . S
C1644 C1648 1.368 . S
C1645 C1626 1.429 . S
C1645 C1639 1.429 . S
C1645 C1646 1.523 . S
C1646 C1627 1.368 . S
C1646 C1640 1.368 . S
C1646 C1645 1.523 . S
C1647 C1631 1.429 . S
C1647 C1643 1.429 . S
C1647 C1648 1.523 . S
C1648 C1632 1.368 . S
C1648 C1644 1.368 . S
C1648 C1647 1.523 . S
H1649 C1624 0.950 . S
H1650 C1626 0.950 . S
H1651 C1627 0.949 . S
H1652 C1629 0.950 . S
H1653 C1631 0.950 . S
C1654 C1655 1.349 . S
C1654 C1656 1.327 . S
C1654 H1679 0.950 . S
C1655 C1654 1.349 . S
C1655 C1671 1.349 . S
C1656 C1654 1.327 . S
C1656 C1675 1.429 . S
C1656 H1680 0.950 . S
C1657 C1674 1.574 . S
C1657 C1676 1.368 . S
C1657 H1681 0.949 . S
H1658 C1662 0.949 . S
C1659 C1660 1.349 . S
C1659 C1661 1.327 . S
C1659 H1682 0.950 . S
C1660 C1659 1.349 . S
C1660 C1672 1.349 . S
C1661 C1659 1.327 . S
C1661 C1677 1.429 1_565 S
C1661 H1683 0.950 . S
C1662 H1658 0.949 . S
C1662 C1670 1.574 . S
C1662 C1678 1.368 . S
H1663 C1671 0.950 . S
H1664 C1669 0.950 . S
H1665 C1670 0.949 . S
H1666 C1672 0.950 . S
H1667 C1673 0.950 . S
H1668 C1674 0.949 . S
C1669 H1664 0.950 . S
C1669 C1671 1.327 . S
C1669 C1675 1.429 . S
C1670 C1662 1.574 . S
C1670 H1665 0.949 . S
C1670 C1676 1.368 . S
C1671 C1655 1.349 . S
C1671 H1663 0.950 . S
C1671 C1669 1.327 . S
C1672 C1660 1.349 . S
C1672 H1666 0.950 . S
C1672 C1673 1.327 1_565 S
C1673 H1667 0.950 . S
C1673 C1672 1.327 1_545 S
C1673 C1677 1.429 . S
C1674 C1657 1.574 . S
C1674 H1668 0.949 . S
C1674 C1678 1.368 . S
C1675 C1656 1.429 . S
C1675 C1669 1.429 . S
C1675 C1676 1.523 . S
C1676 C1657 1.368 . S
C1676 C1670 1.368 . S
C1676 C1675 1.523 . S
C1677 C1661 1.429 1_545 S
C1677 C1673 1.429 . S
C1677 C1678 1.523 . S
C1678 C1662 1.368 . S
C1678 C1674 1.368 . S
C1678 C1677 1.523 . S
H1679 C1654 0.950 . S
H1680 C1656 0.950 . S
H1681 C1657 0.949 . S
H1682 C1659 0.950 . S
H1683 C1661 0.950 . S
C1684 C1685 1.349 . S
C1684 C1686 1.327 . S
C1684 H1709 0.950 . S
C1685 C1684 1.349 . S
C1685 C1701 1.349 . S
C1686 C1684 1.327 . S
C1686 C1705 1.429 . S
C1686 H1710 0.950 . S
C1687 C1704 1.574 . S
C1687 C1706 1.368 . S
C1687 H1711 0.949 . S
H1688 C1692 0.949 . S
C1689 C1690 1.349 . S
C1689 C1691 1.327 . S
C1689 H1712 0.950 . S
C1690 C1689 1.349 . S
C1690 C1702 1.349 1_556 S
C1691 C1689 1.327 . S
C1691 C1707 1.429 1_556 S
C1691 H1713 0.950 . S
C1692 H1688 0.949 . S
C1692 C1700 1.574 . S
C1692 C1708 1.368 . S
H1693 C1701 0.950 . S
H1694 C1699 0.950 . S
H1695 C1700 0.949 . S
H1696 C1702 0.950 . S
H1697 C1703 0.950 . S
H1698 C1704 0.949 1_556 S
C1699 H1694 0.950 . S
C1699 C1701 1.327 . S
C1699 C1705 1.429 . S
C1700 C1692 1.574 . S
C1700 H1695 0.949 . S
C1700 C1706 1.368 . S
C1701 C1685 1.349 . S
C1701 H1693 0.950 . S
C1701 C1699 1.327 . S
C1702 C1690 1.349 1_554 S
C1702 H1696 0.950 . S
C1702 C1703 1.327 . S
C1703 H1697 0.950 . S
C1703 C1702 1.327 . S
C1703 C1707 1.429 . S
C1704 C1687 1.574 . S
C1704 H1698 0.949 1_554 S
C1704 C1708 1.368 . S
C1705 C1686 1.429 . S
C1705 C1699 1.429 . S
C1705 C1706 1.523 . S
C1706 C1687 1.368 . S
C1706 C1700 1.368 . S
C1706 C1705 1.523 . S
C1707 C1691 1.429 1_554 S
C1707 C1703 1.429 . S
C1707 C1708 1.523 . S
C1708 C1692 1.368 . S
C1708 C1704 1.368 . S
C1708 C1707 1.523 . S
H1709 C1684 0.950 . S
H1710 C1686 0.950 . S
H1711 C1687 0.949 . S
H1712 C1689 0.950 . S
H1713 C1691 0.950 . S
C1714 C1715 1.349 . S
C1714 C1716 1.327 . S
C1714 H1739 0.950 . S
C1715 C1714 1.349 . S
C1715 C1731 1.349 . S
C1716 C1714 1.327 . S
C1716 C1735 1.429 1_545 S
C1716 H1740 0.950 1_545 S
C1717 C1734 1.574 . S
C1717 C1736 1.368 . S
C1717 H1741 0.949 . S
H1718 C1722 0.949 . S
C1719 C1720 1.349 . S
C1719 C1721 1.327 . S
C1719 H1742 0.950 . S
C1720 C1719 1.349 . S
C1720 C1732 1.349 . S
C1721 C1719 1.327 . S
C1721 C1737 1.429 . S
C1721 H1743 0.950 . S
C1722 H1718 0.949 . S
C1722 C1730 1.574 . S
C1722 C1738 1.368 . S
H1723 C1731 0.950 . S
H1724 C1729 0.950 . S
H1725 C1730 0.949 . S
H1726 C1732 0.950 . S
H1727 C1733 0.950 . S
H1728 C1734 0.949 . S
C1729 H1724 0.950 . S
C1729 C1731 1.327 1_565 S
C1729 C1735 1.429 . S
C1730 C1722 1.574 . S
C1730 H1725 0.949 . S
C1730 C1736 1.368 . S
C1731 C1715 1.349 . S
C1731 H1723 0.950 . S
C1731 C1729 1.327 1_545 S
C1732 C1720 1.349 . S
C1732 H1726 0.950 . S
C1732 C1733 1.327 . S
C1733 H1727 0.950 . S
C1733 C1732 1.327 . S
C1733 C1737 1.429 . S
C1734 C1717 1.574 . S
C1734 H1728 0.949 . S
C1734 C1738 1.368 . S
C1735 C1716 1.429 1_565 S
C1735 C1729 1.429 . S
C1735 C1736 1.523 . S
C1736 C1717 1.368 . S
C1736 C1730 1.368 . S
C1736 C1735 1.523 . S
C1737 C1721 1.429 . S
C1737 C1733 1.429 . S
C1737 C1738 1.523 . S
C1738 C1722 1.368 . S
C1738 C1734 1.368 . S
C1738 C1737 1.523 . S
H1739 C1714 0.950 . S
H1740 C1716 0.950 1_565 S
H1741 C1717 0.949 . S
H1742 C1719 0.950 . S
H1743 C1721 0.950 . S
C545 C519 1.260 . S
C550 C20 1.322 . S
C575 C54 1.322 . S
C580 C145 1.260 . S
C605 C88 1.322 . S
C610 C451 1.260 1_455 S
C635 C122 1.322 . S
C640 C213 1.260 . S
C665 C156 1.322 . S
C670 C383 1.260 . S
C695 C9 1.260 . S
C700 C190 1.322 . S
C725 C315 1.260 1_655 S
C730 C224 1.322 . S
C755 C258 1.322 . S
C760 C77 1.260 . S
C785 C292 1.322 . S
C790 C247 1.260 1_655 S
C815 C326 1.322 . S
C820 C417 1.260 . S
C845 C179 1.260 . S
C850 C360 1.322 . S
C875 C394 1.322 . S
C880 C485 1.260 . S
C905 C428 1.322 . S
C910 C111 1.260 1_455 S
C935 C462 1.322 . S
C940 C281 1.260 . S
C965 C43 1.260 . S
C970 C496 1.322 . S
C995 C530 1.322 . S
C1000 C349 1.260 . S
C1025 C2 2.375 . S
C1030 C410 2.375 . S
C1055 C172 2.375 . S
C1060 C36 2.375 . S
C1085 C70 2.375 . S
C1090 C478 2.375 . S
C1115 C104 2.375 . S
C1120 C240 2.375 . S
C1145 C274 2.375 . S
C1150 C138 2.375 . S
C1175 C342 2.375 . S
C1180 C206 2.375 . S
C1205 C444 2.375 . S
C1210 C308 2.375 . S
C1235 C376 2.375 . S
C1240 C512 2.375 . S
C1265 C311 1.121 . S
C1270 C33 1.159 . S
C1295 C67 1.160 . S
C1300 C345 1.121 . S
C1325 C101 1.159 . S
C1330 C379 1.121 . S
C1355 C277 1.121 . S
C1360 C135 1.160 . S
C1385 C169 1.159 . S
C1390 C447 1.121 . S
C1415 C203 1.160 . S
C1420 C481 1.121 . S
C1445 C237 1.159 . S
C1450 C515 1.121 . S
C1475 C271 1.160 . S
C1480 C413 1.121 . S
C1505 C39 1.121 . S
C1510 C305 1.159 . S
C1535 C339 1.160 . S
C1540 C73 1.121 . S
C1565 C373 1.159 . S
C1570 C107 1.121 . S
C1595 C407 1.160 . S
C1600 C5 1.121 . S
C1625 C441 1.159 . S
C1630 C175 1.121 . S
C1655 C209 1.121 . S
C1660 C475 1.160 . S
C1685 C243 1.121 . S
C1690 C509 1.159 . S
C1715 C543 1.160 . S
C1720 C141 1.121 . S
