# Generated by pormake.
# Topology npo, (4)-cn, num edge types: 1
# Building blocks:
#     Node 0, Type 0, BuildingBlock: KUFVIS_clean_sbu_0, # of connection points: 4
#     Node 1, Type 0, BuildingBlock: KUFVIS_clean_sbu_0, # of connection points: 4
#     Node 2, Type 0, BuildingBlock: KUFVIS_clean_sbu_0, # of connection points: 4
#     Node 3, Type 0, BuildingBlock: KUFVIS_clean_sbu_0, # of connection points: 4
#     Node 4, Type 0, BuildingBlock: KUFVIS_clean_sbu_0, # of connection points: 4
#     Node 5, Type 0, BuildingBlock: KUFVIS_clean_sbu_0, # of connection points: 4
#     Edge 6, Type (0, 0), BuildingBlock: ZUJKAS_clean_linker_0, # of connection points: 2
#     Edge 7, Type (0, 0), BuildingBlock: ZUJKAS_clean_linker_0, # of connection points: 2
#     Edge 8, Type (0, 0), BuildingBlock: ZUJKAS_clean_linker_0, # of connection points: 2
#     Edge 9, Type (0, 0), BuildingBlock: ZUJKAS_clean_linker_0, # of connection points: 2
#     Edge 10, Type (0, 0), BuildingBlock: ZUJKAS_clean_linker_0, # of connection points: 2
#     Edge 11, Type (0, 0), BuildingBlock: ZUJKAS_clean_linker_0, # of connection points: 2
#     Edge 12, Type (0, 0), BuildingBlock: ZUJKAS_clean_linker_0, # of connection points: 2
#     Edge 13, Type (0, 0), BuildingBlock: ZUJKAS_clean_linker_0, # of connection points: 2
#     Edge 14, Type (0, 0), BuildingBlock: ZUJKAS_clean_linker_0, # of connection points: 2
#     Edge 15, Type (0, 0), BuildingBlock: ZUJKAS_clean_linker_0, # of connection points: 2
#     Edge 16, Type (0, 0), BuildingBlock: ZUJKAS_clean_linker_0, # of connection points: 2
#     Edge 17, Type (0, 0), BuildingBlock: ZUJKAS_clean_linker_0, # of connection points: 2
# Relax obj value: 0.273
# Max RMSD: 0.235
# Mean RMSD: 0.232
data_MOF--net-npo--node1-KUFVIS_clean_sbu_0--edge1-ZUJKAS_clean_linker_0
_symmetry_space_group_name_H-M    P1
_symmetry_Int_Tables_number       1
_symmetry_cell_setting            triclinic
loop_
_symmetry_equiv_pos_as_xyz
'x, y, z'
_cell_length_a     54.897377
_cell_length_b     58.15715
_cell_length_c     31.190732
_cell_angle_alpha  89.963442
_cell_angle_beta   91.138793
_cell_angle_gamma 122.06079
loop_
_atom_site_label
_atom_site_type_symbol
_atom_site_fract_x
_atom_site_fract_y
_atom_site_fract_z
_atom_type_partial_charge
Mn0 Mn 0.56785 0.11511 0.27157 0.0
Mn1 Mn 0.61569 0.09763 0.24766 0.0
C2 C 0.6163 0.14438 0.28678 0.0
C3 C 0.54276 0.13637 0.25505 0.0
C4 C 0.57831 0.0767 0.32538 0.0
O5 O 0.54517 0.08441 0.22813 0.0
O6 O 0.57848 0.07372 0.21679 0.0
C7 C 0.62255 0.11254 0.15591 0.0
N8 N 0.63433 0.11507 0.19582 0.0
C9 C 0.68203 0.14533 0.17006 0.0
C10 C 0.67042 0.14295 0.12865 0.0
C11 C 0.64055 0.12655 0.1216 0.0
C12 C 0.66303 0.13091 0.203 0.0
H13 H 0.59962 0.0999 0.15027 0.0
C14 C 0.55354 0.07009 0.21027 0.0
O15 O 0.53382 0.11779 0.2842 0.0
O16 O 0.56512 0.14128 0.23397 0.0
N17 N 0.65279 0.11939 0.27472 0.0
C18 C 0.66036 0.1208 0.31696 0.0
C19 C 0.68943 0.13714 0.32968 0.0
C20 C 0.71041 0.15154 0.29882 0.0
C21 C 0.70211 0.14959 0.25551 0.0
C22 C 0.67282 0.1331 0.24476 0.0
H23 H 0.64432 0.10967 0.34077 0.0
O24 O 0.59719 0.14608 0.3079 0.0
O25 O 0.60653 0.12542 0.25756 0.0
O26 O 0.56423 0.08808 0.31742 0.0
O27 O 0.59826 0.07929 0.30167 0.0
C28 C 0.72171 0.16357 0.22263 0.0
C29 C 0.71166 0.16162 0.17999 0.0
H30 H 0.68423 0.15374 0.1021 0.0
H31 H 0.63141 0.12466 0.08976 0.0
H32 H 0.69565 0.13858 0.36318 0.0
H33 H 0.7328 0.16413 0.30876 0.0
H34 H 0.74454 0.17615 0.22986 0.0
H35 H 0.72691 0.17286 0.15514 0.0
Mn36 Mn 0.42559 0.54707 0.73455 0.0
Mn37 Mn 0.37593 0.48182 0.7564 0.0
C38 C 0.37748 0.52918 0.71849 0.0
C39 C 0.45161 0.59346 0.75122 0.0
C40 C 0.41378 0.49817 0.6795 0.0
O41 O 0.44713 0.53797 0.77836 0.0
O42 O 0.41302 0.49377 0.7868 0.0
C43 C 0.36993 0.48942 0.84868 0.0
N44 N 0.35785 0.48068 0.80879 0.0
C45 C 0.3105 0.46386 0.83544 0.0
C46 C 0.32242 0.47256 0.87682 0.0
C47 C 0.35228 0.48549 0.88342 0.0
C48 C 0.32917 0.46841 0.80204 0.0
H49 H 0.39284 0.49928 0.854 0.0
C50 C 0.43809 0.5147 0.79467 0.0
O51 O 0.46026 0.58348 0.72227 0.0
O52 O 0.42904 0.57628 0.77225 0.0
N53 N 0.33883 0.46767 0.72992 0.0
C54 C 0.33098 0.46222 0.68766 0.0
C55 C 0.3019 0.45001 0.67541 0.0
C56 C 0.28119 0.44327 0.70674 0.0
C57 C 0.28978 0.44908 0.75003 0.0
C58 C 0.31907 0.46134 0.7603 0.0
H59 H 0.34682 0.4674 0.66349 0.0
O60 O 0.3972 0.54981 0.69767 0.0
O61 O 0.38641 0.51928 0.74777 0.0
O62 O 0.42896 0.52344 0.68889 0.0
O63 O 0.39271 0.48085 0.70174 0.0
C64 C 0.27049 0.44345 0.78335 0.0
C65 C 0.28085 0.45104 0.82597 0.0
H66 H 0.30888 0.46955 0.90371 0.0
H67 H 0.36166 0.49235 0.91524 0.0
H68 H 0.29547 0.44576 0.64191 0.0
H69 H 0.25877 0.43382 0.69716 0.0
H70 H 0.24765 0.43361 0.77648 0.0
H71 H 0.26585 0.44706 0.85118 0.0
Mn72 Mn 0.87597 0.45805 0.23506 0.0
Mn73 Mn 0.90805 0.42639 0.27511 0.0
C74 C 0.85141 0.41144 0.23653 0.0
C75 C 0.84876 0.47758 0.24163 0.0
C76 C 0.92005 0.45138 0.18725 0.0
O77 O 0.90916 0.48787 0.27025 0.0
O78 O 0.92897 0.46483 0.29546 0.0
C79 C 0.89569 0.42739 0.36686 0.0
N80 N 0.89369 0.41312 0.33093 0.0
C81 C 0.86762 0.3708 0.36837 0.0
C82 C 0.86958 0.38507 0.40583 0.0
C83 C 0.88366 0.41348 0.40503 0.0
C84 C 0.88024 0.38577 0.33137 0.0
H85 H 0.90633 0.44922 0.36637 0.0
C86 C 0.928 0.48632 0.29236 0.0
O87 O 0.86631 0.48371 0.21028 0.0
O88 O 0.84791 0.46091 0.27017 0.0
N89 N 0.88955 0.389 0.25843 0.0
C90 C 0.88809 0.37817 0.21902 0.0
C91 C 0.87393 0.34989 0.21403 0.0
C92 C 0.86155 0.33305 0.24958 0.0
C93 C 0.86355 0.34467 0.28989 0.0
C94 C 0.87817 0.373 0.29301 0.0
H95 H 0.89744 0.39099 0.19151 0.0
O96 O 0.84387 0.42355 0.20927 0.0
O97 O 0.87327 0.42695 0.26177 0.0
O98 O 0.9032 0.46008 0.1898 0.0
O99 O 0.92369 0.43855 0.21735 0.0
C100 C 0.85107 0.32922 0.32688 0.0
C101 C 0.8531 0.34227 0.36609 0.0
H102 H 0.86014 0.3744 0.43526 0.0
H103 H 0.88513 0.42463 0.43375 0.0
H104 H 0.87242 0.34107 0.18279 0.0
H105 H 0.85037 0.31123 0.2455 0.0
H106 H 0.8395 0.30726 0.32539 0.0
H107 H 0.84308 0.33016 0.39418 0.0
Mn108 Mn 0.45734 0.87746 0.76086 0.0
Mn109 Mn 0.42571 0.91163 0.73098 0.0
C110 C 0.40845 0.85816 0.76805 0.0
C111 C 0.4728 0.84764 0.74772 0.0
C112 C 0.45786 0.9219 0.81524 0.0
O113 O 0.48749 0.90671 0.72249 0.0
O114 O 0.46492 0.92888 0.70796 0.0
C115 C 0.42113 0.89942 0.6379 0.0
N116 N 0.40844 0.89888 0.67531 0.0
C117 C 0.36235 0.8799 0.63959 0.0
C118 C 0.37493 0.88033 0.60067 0.0
C119 C 0.40444 0.89003 0.59987 0.0
C120 C 0.38002 0.88928 0.67652 0.0
H121 H 0.44382 0.90702 0.63702 0.0
C122 C 0.48635 0.92597 0.70501 0.0
O123 O 0.48367 0.8652 0.77904 0.0
O124 O 0.45388 0.84823 0.72291 0.0
N125 N 0.38744 0.89735 0.75014 0.0
C126 C 0.37852 0.89785 0.7904 0.0
C127 C 0.34948 0.88855 0.7968 0.0
C128 C 0.33007 0.8794 0.76166 0.0
C129 C 0.33983 0.87944 0.72043 0.0
C130 C 0.36896 0.88876 0.71606 0.0
H131 H 0.39344 0.90522 0.81744 0.0
O132 O 0.42223 0.84997 0.79122 0.0
O133 O 0.42351 0.87726 0.74082 0.0
O134 O 0.46622 0.90554 0.80827 0.0
O135 O 0.4422 0.92548 0.78872 0.0
C136 C 0.32182 0.87065 0.68348 0.0
C137 C 0.33299 0.8706 0.64317 0.0
H138 H 0.36215 0.87323 0.57123 0.0
H139 H 0.41432 0.89041 0.56998 0.0
H140 H 0.34212 0.88864 0.82869 0.0
H141 H 0.30773 0.87243 0.76672 0.0
H142 H 0.29928 0.86372 0.68571 0.0
H143 H 0.31883 0.86344 0.61512 0.0
Mn144 Mn 0.53051 0.41113 0.24144 0.0
Mn145 Mn 0.56253 0.47716 0.27056 0.0
C146 C 0.57861 0.44136 0.22866 0.0
C147 C 0.51683 0.36629 0.25468 0.0
C148 C 0.52588 0.45388 0.19002 0.0
O149 O 0.50241 0.41004 0.28429 0.0
O150 O 0.52505 0.45488 0.29894 0.0
C151 C 0.57333 0.47105 0.36206 0.0
N152 N 0.58336 0.48285 0.32335 0.0
C153 C 0.63136 0.51113 0.35263 0.0
C154 C 0.62152 0.49939 0.39285 0.0
C155 C 0.59239 0.47917 0.39752 0.0
C156 C 0.6114 0.50207 0.31839 0.0
H157 H 0.55096 0.45561 0.36589 0.0
C158 C 0.5042 0.43034 0.30318 0.0
O159 O 0.50377 0.3721 0.22553 0.0
O160 O 0.53693 0.3864 0.27731 0.0
N161 N 0.59922 0.50135 0.24629 0.0
C162 C 0.60546 0.50994 0.20503 0.0
C163 C 0.63384 0.52974 0.19474 0.0
C164 C 0.65537 0.54088 0.22706 0.0
C165 C 0.64834 0.53199 0.26938 0.0
C166 C 0.61974 0.51206 0.27766 0.0
H167 H 0.58893 0.50167 0.18015 0.0
O168 O 0.56396 0.41911 0.20625 0.0
O169 O 0.56483 0.44529 0.25827 0.0
O170 O 0.51853 0.42934 0.19646 0.0
O171 O 0.5424 0.4734 0.21563 0.0
C172 C 0.6686 0.54206 0.30367 0.0
C173 C 0.66019 0.53145 0.34516 0.0
H174 H 0.63614 0.50567 0.42032 0.0
H175 H 0.58463 0.46994 0.42842 0.0
H176 H 0.63909 0.53653 0.16201 0.0
H177 H 0.67721 0.55623 0.219 0.0
H178 H 0.69078 0.55783 0.29844 0.0
H179 H 0.67607 0.53905 0.37109 0.0
Mn180 Mn 0.11161 0.57805 0.74563 0.0
Mn181 Mn 0.08393 0.5144 0.70736 0.0
C182 C 0.13799 0.55785 0.75004 0.0
C183 C 0.13765 0.62478 0.73791 0.0
C184 C 0.06689 0.52673 0.79171 0.0
O185 O 0.07933 0.57294 0.70613 0.0
O186 O 0.06287 0.53047 0.68171 0.0
C187 C 0.1003 0.52739 0.61657 0.0
N188 N 0.10133 0.51588 0.65407 0.0
C189 C 0.13064 0.50114 0.62294 0.0
C190 C 0.12977 0.51272 0.58395 0.0
C191 C 0.11453 0.5259 0.58077 0.0
C192 C 0.11582 0.50304 0.65743 0.0
H193 H 0.08874 0.53766 0.61398 0.0
C194 C 0.06248 0.55233 0.68264 0.0
O195 O 0.11892 0.61318 0.76785 0.0
O196 O 0.14026 0.60909 0.71131 0.0
N197 N 0.10295 0.49699 0.72909 0.0
C198 C 0.10298 0.48816 0.76957 0.0
C199 C 0.11794 0.47516 0.77844 0.0
C200 C 0.1326 0.47127 0.74562 0.0
C201 C 0.13208 0.48034 0.70415 0.0
C202 C 0.11658 0.49293 0.69711 0.0
H203 H 0.09189 0.49122 0.795 0.0
O204 O 0.1435 0.57745 0.77623 0.0
O205 O 0.11704 0.55047 0.72241 0.0
O206 O 0.08305 0.55243 0.78938 0.0
O207 O 0.06528 0.51054 0.76262 0.0
C208 C 0.14682 0.47788 0.66975 0.0
C209 C 0.14611 0.48827 0.62918 0.0
H210 H 0.1409 0.51181 0.55634 0.0
H211 H 0.11385 0.53498 0.55082 0.0
H212 H 0.1183 0.46828 0.81055 0.0
H213 H 0.14435 0.46148 0.7527 0.0
H214 H 0.15912 0.46837 0.6743 0.0
H215 H 0.15783 0.48657 0.60312 0.0
H216 H 0.56413 0.18206 0.20741 0.0
H217 H 0.54983 0.21513 0.20802 0.0
H218 H 0.47961 0.16354 0.29066 0.0
H219 H 0.49472 0.13069 0.29175 0.0
H220 H 0.5043 0.21629 0.185 0.0
H221 H 0.51995 0.23154 0.36161 0.0
H222 H 0.53025 0.21138 0.33247 0.0
H223 H 0.49316 0.19761 0.34492 0.0
C224 C 0.54543 0.17752 0.2254 0.0
C225 C 0.53076 0.15385 0.24995 0.0
C226 C 0.53725 0.19652 0.22571 0.0
C227 C 0.51406 0.19225 0.25025 0.0
C228 C 0.49813 0.16775 0.27255 0.0
H229 H 0.47162 0.31871 0.22096 0.0
H230 H 0.46557 0.27381 0.22219 0.0
C231 C 0.5066 0.14883 0.27278 0.0
C232 C 0.50781 0.21419 0.25354 0.0
H233 H 0.50622 0.25814 0.32446 0.0
C234 C 0.50448 0.22532 0.21553 0.0
C235 C 0.50831 0.22616 0.29339 0.0
C236 C 0.51336 0.21627 0.33542 0.0
C237 C 0.50285 0.24864 0.21604 0.0
C238 C 0.50346 0.26067 0.25588 0.0
C239 C 0.5056 0.24887 0.29396 0.0
C240 C 0.50488 0.28695 0.25873 0.0
C241 C 0.50218 0.26096 0.17374 0.0
C242 C 0.528 0.30896 0.28102 0.0
C243 C 0.53107 0.33441 0.28131 0.0
C244 C 0.51123 0.33851 0.25897 0.0
C245 C 0.48742 0.31624 0.23812 0.0
C246 C 0.48409 0.29062 0.23846 0.0
H247 H 0.50909 0.2533 0.14693 0.0
H248 H 0.47989 0.25556 0.16632 0.0
H249 H 0.51633 0.28342 0.17505 0.0
H250 H 0.54428 0.30671 0.29709 0.0
H251 H 0.54967 0.35112 0.29766 0.0
H252 H 0.34477 0.52261 0.78656 0.0
H253 H 0.29881 0.51993 0.78615 0.0
H254 H 0.29977 0.52424 0.64809 0.0
H255 H 0.34555 0.52604 0.6484 0.0
H256 H 0.2964 0.56566 0.69433 0.0
H257 H 0.21452 0.46173 0.74662 0.0
H258 H 0.24744 0.47854 0.77796 0.0
H259 H 0.24788 0.46994 0.7227 0.0
C260 C 0.3345 0.52171 0.75606 0.0
C261 C 0.34804 0.52354 0.71742 0.0
C262 C 0.30836 0.52034 0.75587 0.0
C263 C 0.29573 0.52142 0.71704 0.0
C264 C 0.30904 0.52294 0.67829 0.0
H265 H 0.16289 0.55875 0.676 0.0
H266 H 0.20024 0.54856 0.66533 0.0
C267 C 0.33509 0.52401 0.67848 0.0
C268 C 0.27096 0.52485 0.71767 0.0
H269 H 0.20154 0.49476 0.74937 0.0
C270 C 0.2755 0.55007 0.70577 0.0
C271 C 0.24396 0.50456 0.73314 0.0
C272 C 0.23795 0.47704 0.74556 0.0
C273 C 0.25399 0.55589 0.71036 0.0
C274 C 0.22702 0.53565 0.72625 0.0
C275 C 0.22228 0.51022 0.7373 0.0
C276 C 0.20363 0.54066 0.73234 0.0
C277 C 0.26074 0.584 0.6998 0.0
C278 C 0.1927 0.53891 0.77337 0.0
C279 C 0.17102 0.54427 0.77933 0.0
C280 C 0.15965 0.5508 0.74415 0.0
C281 C 0.17082 0.55288 0.7033 0.0
C282 C 0.19237 0.54745 0.6973 0.0
H283 H 0.28428 0.59896 0.69917 0.0
H284 H 0.25158 0.58361 0.66758 0.0
H285 H 0.25118 0.5911 0.7234 0.0
H286 H 0.20124 0.53377 0.8008 0.0
H287 H 0.163 0.54314 0.81121 0.0
H288 H 0.64851 0.17012 0.21813 0.0
H289 H 0.69498 0.21293 0.2178 0.0
H290 H 0.69575 0.21618 0.35598 0.0
H291 H 0.64948 0.17254 0.3564 0.0
H292 H 0.69863 0.26108 0.30975 0.0
H293 H 0.77983 0.23891 0.25562 0.0
H294 H 0.74663 0.22239 0.22497 0.0
H295 H 0.74672 0.21382 0.2804 0.0
C296 C 0.65929 0.1793 0.24846 0.0
C297 C 0.64608 0.16766 0.28735 0.0
C298 C 0.68572 0.20381 0.24824 0.0
C299 C 0.69897 0.21742 0.2869 0.0
C300 C 0.68602 0.20567 0.3259 0.0
H301 H 0.83053 0.39011 0.31387 0.0
H302 H 0.79534 0.34265 0.33028 0.0
C303 C 0.65969 0.1809 0.32612 0.0
C304 C 0.72377 0.24563 0.28578 0.0
H305 H 0.79225 0.28485 0.25013 0.0
C306 C 0.71931 0.26636 0.29744 0.0
C307 C 0.75047 0.25228 0.26925 0.0
C308 C 0.7564 0.23069 0.25713 0.0
C309 C 0.74045 0.29369 0.2911 0.0
C310 C 0.76702 0.30036 0.27369 0.0
C311 C 0.77182 0.27963 0.26335 0.0
C312 C 0.7896 0.32868 0.26439 0.0
C313 C 0.73359 0.31502 0.30112 0.0
C314 C 0.79857 0.33635 0.2221 0.0
C315 C 0.81905 0.36335 0.21286 0.0
C316 C 0.8312 0.38279 0.24595 0.0
C317 C 0.82204 0.37516 0.28811 0.0
C318 C 0.80171 0.34821 0.29739 0.0
H319 H 0.71009 0.30614 0.30372 0.0
H320 H 0.74394 0.32495 0.33227 0.0
H321 H 0.7419 0.33087 0.2761 0.0
H322 H 0.78934 0.32154 0.19618 0.0
H323 H 0.82549 0.36905 0.18001 0.0
H324 H 0.50352 0.83553 0.80328 0.0
H325 H 0.50759 0.79568 0.80138 0.0
H326 H 0.46075 0.77092 0.68045 0.0
H327 H 0.45594 0.81035 0.68272 0.0
H328 H 0.43746 0.73099 0.73668 0.0
H329 H 0.55467 0.77342 0.73623 0.0
H330 H 0.54438 0.78676 0.77926 0.0
H331 H 0.53939 0.79368 0.72462 0.0
C332 C 0.49462 0.82192 0.77581 0.0
C333 C 0.47931 0.82607 0.74322 0.0
C334 C 0.49712 0.79918 0.77464 0.0
C335 C 0.48474 0.78036 0.74056 0.0
C336 C 0.47055 0.78516 0.70705 0.0
H337 H 0.4887 0.63397 0.69772 0.0
H338 H 0.49961 0.68068 0.69645 0.0
C339 C 0.46784 0.80775 0.70836 0.0
C340 C 0.4837 0.75426 0.74211 0.0
H341 H 0.52477 0.72633 0.75396 0.0
C342 C 0.45661 0.73004 0.74011 0.0
C343 C 0.50866 0.75291 0.74629 0.0
C344 C 0.53843 0.77808 0.74629 0.0
C345 C 0.45371 0.70464 0.74296 0.0
C346 C 0.47854 0.70329 0.74907 0.0
C347 C 0.50573 0.72742 0.75002 0.0
C348 C 0.4763 0.67681 0.75386 0.0
C349 C 0.424 0.67941 0.73888 0.0
C350 C 0.46082 0.6596 0.78772 0.0
C351 C 0.45445 0.63292 0.78841 0.0
C352 C 0.46372 0.62301 0.75551 0.0
C353 C 0.48124 0.64097 0.72354 0.0
C354 C 0.48745 0.66767 0.72271 0.0
H355 H 0.40846 0.68368 0.72328 0.0
H356 H 0.4243 0.66339 0.71999 0.0
H357 H 0.4161 0.6714 0.77132 0.0
H358 H 0.45253 0.66642 0.81259 0.0
H359 H 0.44111 0.61969 0.81369 0.0
H360 H 0.61599 0.45597 0.29574 0.0
H361 H 0.66776 0.47534 0.29304 0.0
H362 H 0.66361 0.47904 0.15509 0.0
H363 H 0.61149 0.45933 0.15789 0.0
H364 H 0.68736 0.45124 0.18177 0.0
H365 H 0.73979 0.54835 0.27284 0.0
H366 H 0.7089 0.52133 0.29876 0.0
H367 H 0.70465 0.53328 0.24752 0.0
C368 C 0.62637 0.4619 0.26503 0.0
C369 C 0.6101 0.45692 0.22709 0.0
C370 C 0.65595 0.47306 0.26349 0.0
C371 C 0.6697 0.47924 0.22392 0.0
C372 C 0.65349 0.4748 0.18598 0.0
H373 H 0.83987 0.50563 0.17957 0.0
H374 H 0.79905 0.51162 0.17313 0.0
C375 C 0.62383 0.46352 0.18755 0.0
C376 C 0.69975 0.48603 0.22203 0.0
H377 H 0.76679 0.52692 0.26699 0.0
C378 C 0.70487 0.46817 0.19956 0.0
C379 C 0.72259 0.5081 0.24529 0.0
C380 C 0.71886 0.52905 0.26719 0.0
C381 C 0.73179 0.47091 0.20172 0.0
C382 C 0.75407 0.49205 0.22696 0.0
C383 C 0.74946 0.51064 0.24795 0.0
C384 C 0.78142 0.4935 0.23427 0.0
C385 C 0.73596 0.45045 0.17872 0.0
C386 C 0.78535 0.48225 0.27151 0.0
C387 C 0.80848 0.47864 0.27524 0.0
C388 C 0.828 0.48633 0.24175 0.0
C389 C 0.82513 0.49944 0.20586 0.0
C390 C 0.80189 0.50291 0.20208 0.0
H391 H 0.71589 0.43425 0.16248 0.0
H392 H 0.75272 0.46089 0.15426 0.0
H393 H 0.74353 0.44088 0.20179 0.0
H394 H 0.76962 0.47485 0.29658 0.0
H395 H 0.81021 0.46859 0.30333 0.0
H396 H 0.37386 0.83714 0.69755 0.0
H397 H 0.32198 0.8045 0.69537 0.0
H398 H 0.32043 0.80887 0.83334 0.0
H399 H 0.37264 0.84121 0.83545 0.0
H400 H 0.29726 0.75826 0.80524 0.0
H401 H 0.24949 0.80502 0.70803 0.0
H402 H 0.28111 0.80874 0.68508 0.0
H403 H 0.28369 0.8245 0.73609 0.0
C404 C 0.36221 0.83179 0.72722 0.0
C405 C 0.3769 0.84205 0.76659 0.0
C406 C 0.33255 0.81326 0.72597 0.0
C407 C 0.31715 0.80469 0.76413 0.0
C408 C 0.33182 0.81549 0.80348 0.0
H409 H 0.14488 0.66167 0.79892 0.0
H410 H 0.18577 0.70847 0.80656 0.0
C411 C 0.36154 0.83385 0.80472 0.0
C412 C 0.28692 0.78149 0.76328 0.0
H413 H 0.2215 0.7566 0.71331 0.0
C414 C 0.28055 0.75813 0.7859 0.0
C415 C 0.26511 0.78128 0.73796 0.0
C416 C 0.27004 0.80631 0.71566 0.0
C417 C 0.25343 0.73422 0.7822 0.0
C418 C 0.23218 0.7337 0.75523 0.0
C419 C 0.23804 0.7572 0.73378 0.0
C420 C 0.20467 0.7081 0.74663 0.0
C421 C 0.24798 0.70923 0.80561 0.0
C422 C 0.20138 0.69305 0.70956 0.0
C423 C 0.17822 0.66633 0.70517 0.0
C424 C 0.15803 0.65439 0.73781 0.0
C425 C 0.16014 0.67032 0.77329 0.0
C426 C 0.18344 0.69701 0.77775 0.0
H427 H 0.26749 0.71254 0.82293 0.0
H428 H 0.2308 0.70327 0.82923 0.0
H429 H 0.24038 0.69205 0.78263 0.0
H430 H 0.21769 0.7014 0.6853 0.0
H431 H 0.17706 0.65459 0.67738 0.0
H432 H 0.49154 0.92116 0.88077 0.0
H433 H 0.50262 0.94431 0.95036 0.0
H434 H 0.45299 0.97923 0.91401 0.0
H435 H 0.4415 0.95605 0.84454 0.0
H436 H 0.53065 0.00066 0.96555 0.0
H437 H 0.42063 0.94533 0.03148 0.0
H438 H 0.43032 0.93289 0.98595 0.0
H439 H 0.42378 0.95986 0.97947 0.0
C440 C 0.48292 0.93372 0.88748 0.0
C441 C 0.46559 0.93667 0.85693 0.0
C442 C 0.48924 0.94689 0.92733 0.0
C443 C 0.4782 0.96308 0.93755 0.0
C444 C 0.4612 0.96635 0.90708 0.0
H445 H 0.51247 0.06961 0.15791 0.0
H446 H 0.49088 0.04203 0.09243 0.0
C447 C 0.45489 0.95325 0.8672 0.0
C448 C 0.48556 0.97745 0.97944 0.0
H449 H 0.45701 0.98237 0.07288 0.0
C450 C 0.51456 0.99663 0.98903 0.0
C451 C 0.46445 0.97227 0.00982 0.0
C452 C 0.43305 0.95132 0.00148 0.0
C453 C 0.52308 0.01081 0.02822 0.0
C454 C 0.50208 0.00528 0.05895 0.0
C455 C 0.47299 0.98645 0.0492 0.0
C456 C 0.51047 0.01843 0.10179 0.0
C457 C 0.55454 0.03177 0.03637 0.0
C458 C 0.52733 0.01325 0.12955 0.0
C459 C 0.53969 0.02891 0.16663 0.0
C460 C 0.53518 0.0499 0.17685 0.0
C461 C 0.51626 0.05354 0.1509 0.0
C462 C 0.50401 0.0379 0.11346 0.0
H463 H 0.56669 0.0383 0.00613 0.0
H464 H 0.55735 0.04992 0.05303 0.0
H465 H 0.56408 0.02294 0.05721 0.0
H466 H 0.53213 0.99798 0.12139 0.0
H467 H 0.55388 0.0254 0.18626 0.0
H468 H 0.46449 0.44462 0.30131 0.0
H469 H 0.44153 0.44988 0.36401 0.0
H470 H 0.479 0.41539 0.44394 0.0
H471 H 0.50005 0.40832 0.38074 0.0
H472 H 0.43042 0.40317 0.47558 0.0
H473 H 0.49138 0.51303 0.43999 0.0
H474 H 0.46563 0.4933 0.39836 0.0
H475 H 0.49537 0.48905 0.40939 0.0
C476 C 0.46667 0.43711 0.33204 0.0
C477 C 0.4837 0.42587 0.33645 0.0
C478 C 0.45405 0.44058 0.36796 0.0
C479 C 0.4595 0.43406 0.40901 0.0
C480 C 0.47466 0.42081 0.41273 0.0
H481 H 0.46555 0.51994 0.64035 0.0
H482 H 0.47614 0.50292 0.57612 0.0
C483 C 0.48653 0.4166 0.37662 0.0
C484 C 0.45177 0.44308 0.44826 0.0
H485 H 0.45996 0.49907 0.49827 0.0
C486 C 0.4369 0.42415 0.48057 0.0
C487 C 0.46094 0.47064 0.45539 0.0
C488 C 0.47948 0.49272 0.42417 0.0
C489 C 0.4309 0.43194 0.51966 0.0
C490 C 0.43882 0.45923 0.52587 0.0
C491 C 0.45364 0.47812 0.4935 0.0
C492 C 0.43246 0.46891 0.56579 0.0
C493 C 0.41714 0.41096 0.5543 0.0
C494 C 0.40442 0.45567 0.58137 0.0
C495 C 0.39854 0.46493 0.61869 0.0
C496 C 0.42036 0.48827 0.6404 0.0
C497 C 0.44829 0.50195 0.62425 0.0
C498 C 0.45433 0.49222 0.58753 0.0
H499 H 0.4216 0.39456 0.55029 0.0
H500 H 0.42492 0.42015 0.58673 0.0
H501 H 0.39348 0.40143 0.55227 0.0
H502 H 0.38693 0.43829 0.56448 0.0
H503 H 0.37674 0.45406 0.63003 0.0
H504 H 0.06311 0.55424 0.85967 0.0
H505 H 0.03824 0.53554 0.92653 0.0
H506 H 0.00859 0.45463 0.88107 0.0
H507 H 0.0333 0.47308 0.81354 0.0
H508 H 0.96579 0.46014 0.91887 0.0
H509 H 0.06374 0.50387 0.02275 0.0
H510 H 0.06298 0.5287 0.9895 0.0
H511 H 0.06463 0.50155 0.96511 0.0
C512 C 0.05131 0.53245 0.86368 0.0
C513 C 0.05035 0.51518 0.83122 0.0
C514 C 0.03728 0.52183 0.90209 0.0
C515 C 0.02216 0.4938 0.90897 0.0
C516 C 0.02045 0.47637 0.87639 0.0
H517 H 0.95586 0.43381 0.16566 0.0
H518 H 0.97987 0.44014 0.09741 0.0
C519 C 0.03451 0.48697 0.83783 0.0
C520 C 0.00755 0.48287 0.94994 0.0
H521 H 0.01941 0.48905 0.05825 0.0
C522 C 0.97749 0.46609 0.94936 0.0
C523 C 0.02296 0.49027 0.98955 0.0
C524 C 0.05539 0.50686 0.99187 0.0
C525 C 0.96228 0.45783 0.98761 0.0
C526 C 0.9776 0.46697 0.0272 0.0
C527 C 0.00774 0.48237 0.02778 0.0
C528 C 0.96272 0.46251 0.06812 0.0
C529 C 0.92993 0.43979 0.98531 0.0
C530 C 0.94567 0.47348 0.07433 0.0
C531 C 0.93205 0.47004 0.11313 0.0
C532 C 0.93537 0.45567 0.14668 0.0
C533 C 0.95284 0.44499 0.14053 0.0
C534 C 0.96651 0.44849 0.10157 0.0
H535 H 0.9224 0.42802 0.95472 0.0
H536 H 0.92172 0.42543 0.01246 0.0
H537 H 0.9205 0.45256 0.98692 0.0
H538 H 0.94309 0.48495 0.04922 0.0
H539 H 0.91892 0.47868 0.11671 0.0
H540 H 0.53545 0.06264 0.38297 0.0
H541 H 0.5269 0.03721 0.44937 0.0
H542 H 0.59859 0.02863 0.42388 0.0
H543 H 0.60746 0.05401 0.35769 0.0
H544 H 0.51645 0.98299 0.45862 0.0
H545 H 0.61472 0.06189 0.54747 0.0
H546 H 0.6005 0.06948 0.50058 0.0
H547 H 0.61991 0.05277 0.49485 0.0
C548 C 0.5494 0.05535 0.3914 0.0
C549 C 0.57218 0.06047 0.36492 0.0
C550 C 0.54448 0.04082 0.42934 0.0
C551 C 0.56237 0.03138 0.44169 0.0
C552 C 0.58484 0.03611 0.41519 0.0
H553 H 0.51454 0.91318 0.64781 0.0
H554 H 0.53902 0.93937 0.58384 0.0
C555 C 0.58972 0.0505 0.3772 0.0
C556 C 0.55721 0.01626 0.48207 0.0
H557 H 0.58497 0.02048 0.58285 0.0
C558 C 0.53151 0.99102 0.48567 0.0
C559 C 0.57694 0.02696 0.51724 0.0
C560 C 0.60451 0.05434 0.51523 0.0
C561 C 0.52476 0.97631 0.52385 0.0
C562 C 0.5444 0.98706 0.55914 0.0
C563 C 0.57027 0.01216 0.55542 0.0
C564 C 0.53646 0.97398 0.60151 0.0
C565 C 0.49616 0.94988 0.52682 0.0
C566 C 0.52856 0.98552 0.63352 0.0
C567 C 0.51463 0.97068 0.66979 0.0
C568 C 0.50863 0.94415 0.67483 0.0
C569 C 0.51915 0.93367 0.64488 0.0
C570 C 0.53288 0.94849 0.60821 0.0
H571 H 0.4819 0.94617 0.49848 0.0
H572 H 0.49976 0.93285 0.52907 0.0
H573 H 0.48492 0.94973 0.55614 0.0
H574 H 0.53121 0.00519 0.62891 0.0
H575 H 0.50675 0.97922 0.69247 0.0
H576 H 0.4781 0.55348 0.85036 0.0
H577 H 0.49772 0.54527 0.91582 0.0
H578 H 0.45643 0.46071 0.88062 0.0
H579 H 0.43651 0.46863 0.81577 0.0
H580 H 0.44083 0.46954 0.96011 0.0
H581 H 0.55968 0.52811 0.94584 0.0
H582 H 0.54269 0.54682 0.93509 0.0
H583 H 0.5356 0.51937 0.89998 0.0
C584 C 0.47402 0.53335 0.85591 0.0
C585 C 0.4556 0.51166 0.82813 0.0
C586 C 0.48523 0.52868 0.89333 0.0
C587 C 0.47849 0.50236 0.90305 0.0
C588 C 0.46181 0.48114 0.87377 0.0
H589 H 0.49423 0.41961 0.12304 0.0
H590 H 0.48261 0.43174 0.05392 0.0
C591 C 0.45047 0.48573 0.8367 0.0
C592 C 0.48562 0.49606 0.94578 0.0
H593 H 0.54108 0.50862 0.0135 0.0
C594 C 0.46276 0.47799 0.97172 0.0
C595 C 0.51421 0.50734 0.96095 0.0
C596 C 0.53952 0.52633 0.93397 0.0
C597 C 0.46768 0.47091 0.01249 0.0
C598 C 0.49627 0.48185 0.02747 0.0
C599 C 0.51918 0.5002 0.00181 0.0
C600 C 0.5028 0.47439 0.06966 0.0
C601 C 0.44223 0.45216 0.03947 0.0
C602 C 0.51823 0.49439 0.10124 0.0
C603 C 0.52498 0.48757 0.14076 0.0
C604 C 0.51655 0.46058 0.14942 0.0
C605 C 0.50084 0.44053 0.11772 0.0
C606 C 0.49414 0.44741 0.07817 0.0
H607 H 0.42245 0.45141 0.02838 0.0
H608 H 0.43804 0.43131 0.03712 0.0
H609 H 0.44649 0.45857 0.07372 0.0
H610 H 0.52513 0.51533 0.09526 0.0
H611 H 0.53721 0.50361 0.16423 0.0
H612 H 0.00976 0.51305 0.6519 0.0
H613 H 0.98799 0.51387 0.58323 0.0
H614 H 0.05503 0.59778 0.56747 0.0
H615 H 0.07624 0.59741 0.63708 0.0
H616 H 0.00201 0.58424 0.52763 0.0
H617 H 0.03573 0.51302 0.48435 0.0
H618 H 0.01128 0.50086 0.52798 0.0
H619 H 0.04613 0.5315 0.53457 0.0
C620 C 0.01917 0.53195 0.63457 0.0
C621 C 0.04482 0.55505 0.64938 0.0
C622 C 0.00684 0.53238 0.59533 0.0
C623 C 0.02047 0.55565 0.56985 0.0
C624 C 0.04434 0.57958 0.5866 0.0
H625 H 0.98603 0.51195 0.30187 0.0
H626 H 0.01462 0.53926 0.3641 0.0
C627 C 0.05638 0.57934 0.62639 0.0
C628 C 0.01254 0.55353 0.52384 0.0
H629 H 0.00468 0.5166 0.43441 0.0
C630 C 0.00281 0.56969 0.50692 0.0
C631 C 0.01484 0.53541 0.49654 0.0
C632 C 0.02788 0.51945 0.51163 0.0
C633 C 0.99358 0.56691 0.46378 0.0
C634 C 0.99339 0.54692 0.43754 0.0
C635 C 0.00463 0.5319 0.45421 0.0
C636 C 0.97921 0.53892 0.39439 0.0
C637 C 0.98426 0.58545 0.44699 0.0
C638 C 0.95035 0.53124 0.38915 0.0
C639 C 0.93442 0.51664 0.35274 0.0
C640 C 0.94685 0.50872 0.32184 0.0
C641 C 0.97615 0.51803 0.32533 0.0
C642 C 0.99237 0.53349 0.36096 0.0
H643 H -0.00329 0.60565 0.46308 0.0
H644 H 0.987 0.58827 0.41182 0.0
H645 H 0.96127 0.57666 0.45422 0.0
H646 H 0.93933 0.53435 0.41473 0.0
H647 H 0.91166 0.50918 0.35096 0.0
loop_
_geom_bond_atom_site_label_1
_geom_bond_atom_site_label_2
_geom_bond_distance
_geom_bond_site_symmetry_2
_ccdc_geom_bond_type
Mn0 O5 2.095 . S
Mn0 O15 2.162 . S
Mn0 O16 2.297 . S
Mn0 O24 2.385 . S
Mn0 O25 2.209 . S
Mn0 O26 2.094 . S
Mn1 O6 2.121 . S
Mn1 N8 2.257 . S
Mn1 N17 2.282 . S
Mn1 O25 2.215 . S
Mn1 O27 2.117 . S
C2 O24 1.234 . S
C2 O25 1.283 . S
C3 O15 1.281 . S
C3 O16 1.236 . S
C4 O26 1.240 . S
C4 O27 1.264 . S
O5 Mn0 2.095 . S
O5 C14 1.250 . S
O6 Mn1 2.121 . S
O6 C14 1.258 . S
C7 N8 1.326 . S
C7 C11 1.460 . S
C7 H13 0.929 . S
N8 Mn1 2.257 . S
N8 C7 1.326 . S
N8 C12 1.362 . S
C9 C10 1.258 . S
C9 C12 1.431 . S
C9 C29 1.449 . S
C10 C9 1.258 . S
C10 C11 1.477 . S
C10 H30 0.931 . S
C11 C7 1.460 . S
C11 C10 1.477 . S
C11 H31 0.930 . S
C12 N8 1.362 . S
C12 C9 1.431 . S
C12 C22 1.476 . S
H13 C7 0.929 . S
C14 O5 1.250 . S
C14 O6 1.258 . S
O15 Mn0 2.162 . S
O15 C3 1.281 . S
O16 Mn0 2.297 . S
O16 C3 1.236 . S
N17 Mn1 2.282 . S
N17 C18 1.328 . S
N17 C22 1.318 . S
C18 N17 1.328 . S
C18 C19 1.457 . S
C18 H23 0.929 . S
C19 C18 1.457 . S
C19 C20 1.291 . S
C19 H32 0.931 . S
C20 C19 1.291 . S
C20 C21 1.373 . S
C20 H33 0.929 . S
C21 C20 1.373 . S
C21 C22 1.396 . S
C21 C28 1.403 . S
C22 C12 1.476 . S
C22 N17 1.318 . S
C22 C21 1.396 . S
H23 C18 0.929 . S
O24 Mn0 2.385 . S
O24 C2 1.234 . S
O25 Mn0 2.209 . S
O25 Mn1 2.215 . S
O25 C2 1.283 . S
O26 Mn0 2.094 . S
O26 C4 1.240 . S
O27 Mn1 2.117 . S
O27 C4 1.264 . S
C28 C21 1.403 . S
C28 C29 1.399 . S
C28 H34 0.929 . S
C29 C9 1.449 . S
C29 C28 1.399 . S
C29 H35 0.930 . S
H30 C10 0.931 . S
H31 C11 0.930 . S
H32 C19 0.931 . S
H33 C20 0.929 . S
H34 C28 0.929 . S
H35 C29 0.930 . S
Mn36 O41 2.095 . S
Mn36 O51 2.162 . S
Mn36 O52 2.297 . S
Mn36 O60 2.385 . S
Mn36 O61 2.209 . S
Mn36 O62 2.094 . S
Mn37 O42 2.121 . S
Mn37 N44 2.257 . S
Mn37 N53 2.282 . S
Mn37 O61 2.215 . S
Mn37 O63 2.117 . S
C38 O60 1.234 . S
C38 O61 1.283 . S
C39 O51 1.281 . S
C39 O52 1.236 . S
C40 O62 1.240 . S
C40 O63 1.264 . S
O41 Mn36 2.095 . S
O41 C50 1.250 . S
O42 Mn37 2.121 . S
O42 C50 1.258 . S
C43 N44 1.326 . S
C43 C47 1.460 . S
C43 H49 0.929 . S
N44 Mn37 2.257 . S
N44 C43 1.326 . S
N44 C48 1.362 . S
C45 C46 1.258 . S
C45 C48 1.431 . S
C45 C65 1.449 . S
C46 C45 1.258 . S
C46 C47 1.477 . S
C46 H66 0.931 . S
C47 C43 1.460 . S
C47 C46 1.477 . S
C47 H67 0.930 . S
C48 N44 1.362 . S
C48 C45 1.431 . S
C48 C58 1.476 . S
H49 C43 0.929 . S
C50 O41 1.250 . S
C50 O42 1.258 . S
O51 Mn36 2.162 . S
O51 C39 1.281 . S
O52 Mn36 2.297 . S
O52 C39 1.236 . S
N53 Mn37 2.282 . S
N53 C54 1.328 . S
N53 C58 1.318 . S
C54 N53 1.328 . S
C54 C55 1.457 . S
C54 H59 0.929 . S
C55 C54 1.457 . S
C55 C56 1.291 . S
C55 H68 0.931 . S
C56 C55 1.291 . S
C56 C57 1.373 . S
C56 H69 0.929 . S
C57 C56 1.373 . S
C57 C58 1.396 . S
C57 C64 1.403 . S
C58 C48 1.476 . S
C58 N53 1.318 . S
C58 C57 1.396 . S
H59 C54 0.929 . S
O60 Mn36 2.385 . S
O60 C38 1.234 . S
O61 Mn36 2.209 . S
O61 Mn37 2.215 . S
O61 C38 1.283 . S
O62 Mn36 2.094 . S
O62 C40 1.240 . S
O63 Mn37 2.117 . S
O63 C40 1.264 . S
C64 C57 1.403 . S
C64 C65 1.399 . S
C64 H70 0.929 . S
C65 C45 1.449 . S
C65 C64 1.399 . S
C65 H71 0.930 . S
H66 C46 0.931 . S
H67 C47 0.930 . S
H68 C55 0.931 . S
H69 C56 0.929 . S
H70 C64 0.929 . S
H71 C65 0.930 . S
Mn72 O77 2.095 . S
Mn72 O87 2.162 . S
Mn72 O88 2.297 . S
Mn72 O96 2.385 . S
Mn72 O97 2.209 . S
Mn72 O98 2.094 . S
Mn73 O78 2.121 . S
Mn73 N80 2.257 . S
Mn73 N89 2.282 . S
Mn73 O97 2.215 . S
Mn73 O99 2.117 . S
C74 O96 1.234 . S
C74 O97 1.283 . S
C75 O87 1.281 . S
C75 O88 1.236 . S
C76 O98 1.240 . S
C76 O99 1.264 . S
O77 Mn72 2.095 . S
O77 C86 1.250 . S
O78 Mn73 2.121 . S
O78 C86 1.258 . S
C79 N80 1.326 . S
C79 C83 1.460 . S
C79 H85 0.929 . S
N80 Mn73 2.257 . S
N80 C79 1.326 . S
N80 C84 1.362 . S
C81 C82 1.258 . S
C81 C84 1.431 . S
C81 C101 1.449 . S
C82 C81 1.258 . S
C82 C83 1.477 . S
C82 H102 0.931 . S
C83 C79 1.460 . S
C83 C82 1.477 . S
C83 H103 0.930 . S
C84 N80 1.362 . S
C84 C81 1.431 . S
C84 C94 1.476 . S
H85 C79 0.929 . S
C86 O77 1.250 . S
C86 O78 1.258 . S
O87 Mn72 2.162 . S
O87 C75 1.281 . S
O88 Mn72 2.297 . S
O88 C75 1.236 . S
N89 Mn73 2.282 . S
N89 C90 1.328 . S
N89 C94 1.318 . S
C90 N89 1.328 . S
C90 C91 1.457 . S
C90 H95 0.929 . S
C91 C90 1.457 . S
C91 C92 1.291 . S
C91 H104 0.931 . S
C92 C91 1.291 . S
C92 C93 1.373 . S
C92 H105 0.929 . S
C93 C92 1.373 . S
C93 C94 1.396 . S
C93 C100 1.403 . S
C94 C84 1.476 . S
C94 N89 1.318 . S
C94 C93 1.396 . S
H95 C90 0.929 . S
O96 Mn72 2.385 . S
O96 C74 1.234 . S
O97 Mn72 2.209 . S
O97 Mn73 2.215 . S
O97 C74 1.283 . S
O98 Mn72 2.094 . S
O98 C76 1.240 . S
O99 Mn73 2.117 . S
O99 C76 1.264 . S
C100 C93 1.403 . S
C100 C101 1.399 . S
C100 H106 0.929 . S
C101 C81 1.449 . S
C101 C100 1.399 . S
C101 H107 0.930 . S
H102 C82 0.931 . S
H103 C83 0.930 . S
H104 C91 0.931 . S
H105 C92 0.929 . S
H106 C100 0.929 . S
H107 C101 0.930 . S
Mn108 O113 2.095 . S
Mn108 O123 2.162 . S
Mn108 O124 2.297 . S
Mn108 O132 2.385 . S
Mn108 O133 2.209 . S
Mn108 O134 2.094 . S
Mn109 O114 2.121 . S
Mn109 N116 2.257 . S
Mn109 N125 2.282 . S
Mn109 O133 2.215 . S
Mn109 O135 2.117 . S
C110 O132 1.234 . S
C110 O133 1.283 . S
C111 O123 1.281 . S
C111 O124 1.236 . S
C112 O134 1.240 . S
C112 O135 1.264 . S
O113 Mn108 2.095 . S
O113 C122 1.250 . S
O114 Mn109 2.121 . S
O114 C122 1.258 . S
C115 N116 1.326 . S
C115 C119 1.460 . S
C115 H121 0.929 . S
N116 Mn109 2.257 . S
N116 C115 1.326 . S
N116 C120 1.362 . S
C117 C118 1.258 . S
C117 C120 1.431 . S
C117 C137 1.449 . S
C118 C117 1.258 . S
C118 C119 1.477 . S
C118 H138 0.931 . S
C119 C115 1.460 . S
C119 C118 1.477 . S
C119 H139 0.930 . S
C120 N116 1.362 . S
C120 C117 1.431 . S
C120 C130 1.476 . S
H121 C115 0.929 . S
C122 O113 1.250 . S
C122 O114 1.258 . S
O123 Mn108 2.162 . S
O123 C111 1.281 . S
O124 Mn108 2.297 . S
O124 C111 1.236 . S
N125 Mn109 2.282 . S
N125 C126 1.328 . S
N125 C130 1.318 . S
C126 N125 1.328 . S
C126 C127 1.457 . S
C126 H131 0.929 . S
C127 C126 1.457 . S
C127 C128 1.291 . S
C127 H140 0.931 . S
C128 C127 1.291 . S
C128 C129 1.373 . S
C128 H141 0.929 . S
C129 C128 1.373 . S
C129 C130 1.396 . S
C129 C136 1.403 . S
C130 C120 1.476 . S
C130 N125 1.318 . S
C130 C129 1.396 . S
H131 C126 0.929 . S
O132 Mn108 2.385 . S
O132 C110 1.234 . S
O133 Mn108 2.209 . S
O133 Mn109 2.215 . S
O133 C110 1.283 . S
O134 Mn108 2.094 . S
O134 C112 1.240 . S
O135 Mn109 2.117 . S
O135 C112 1.264 . S
C136 C129 1.403 . S
C136 C137 1.399 . S
C136 H142 0.929 . S
C137 C117 1.449 . S
C137 C136 1.399 . S
C137 H143 0.930 . S
H138 C118 0.931 . S
H139 C119 0.930 . S
H140 C127 0.931 . S
H141 C128 0.929 . S
H142 C136 0.929 . S
H143 C137 0.930 . S
Mn144 O149 2.095 . S
Mn144 O159 2.162 . S
Mn144 O160 2.297 . S
Mn144 O168 2.385 . S
Mn144 O169 2.209 . S
Mn144 O170 2.094 . S
Mn145 O150 2.121 . S
Mn145 N152 2.257 . S
Mn145 N161 2.282 . S
Mn145 O169 2.215 . S
Mn145 O171 2.117 . S
C146 O168 1.234 . S
C146 O169 1.283 . S
C147 O159 1.281 . S
C147 O160 1.236 . S
C148 O170 1.240 . S
C148 O171 1.264 . S
O149 Mn144 2.095 . S
O149 C158 1.250 . S
O150 Mn145 2.121 . S
O150 C158 1.258 . S
C151 N152 1.326 . S
C151 C155 1.460 . S
C151 H157 0.929 . S
N152 Mn145 2.257 . S
N152 C151 1.326 . S
N152 C156 1.362 . S
C153 C154 1.258 . S
C153 C156 1.431 . S
C153 C173 1.449 . S
C154 C153 1.258 . S
C154 C155 1.477 . S
C154 H174 0.931 . S
C155 C151 1.460 . S
C155 C154 1.477 . S
C155 H175 0.930 . S
C156 N152 1.362 . S
C156 C153 1.431 . S
C156 C166 1.476 . S
H157 C151 0.929 . S
C158 O149 1.250 . S
C158 O150 1.258 . S
O159 Mn144 2.162 . S
O159 C147 1.281 . S
O160 Mn144 2.297 . S
O160 C147 1.236 . S
N161 Mn145 2.282 . S
N161 C162 1.328 . S
N161 C166 1.318 . S
C162 N161 1.328 . S
C162 C163 1.457 . S
C162 H167 0.929 . S
C163 C162 1.457 . S
C163 C164 1.291 . S
C163 H176 0.931 . S
C164 C163 1.291 . S
C164 C165 1.373 . S
C164 H177 0.929 . S
C165 C164 1.373 . S
C165 C166 1.396 . S
C165 C172 1.403 . S
C166 C156 1.476 . S
C166 N161 1.318 . S
C166 C165 1.396 . S
H167 C162 0.929 . S
O168 Mn144 2.385 . S
O168 C146 1.234 . S
O169 Mn144 2.209 . S
O169 Mn145 2.215 . S
O169 C146 1.283 . S
O170 Mn144 2.094 . S
O170 C148 1.240 . S
O171 Mn145 2.117 . S
O171 C148 1.264 . S
C172 C165 1.403 . S
C172 C173 1.399 . S
C172 H178 0.929 . S
C173 C153 1.449 . S
C173 C172 1.399 . S
C173 H179 0.930 . S
H174 C154 0.931 . S
H175 C155 0.930 . S
H176 C163 0.931 . S
H177 C164 0.929 . S
H178 C172 0.929 . S
H179 C173 0.930 . S
Mn180 O185 2.095 . S
Mn180 O195 2.162 . S
Mn180 O196 2.297 . S
Mn180 O204 2.385 . S
Mn180 O205 2.209 . S
Mn180 O206 2.094 . S
Mn181 O186 2.121 . S
Mn181 N188 2.257 . S
Mn181 N197 2.282 . S
Mn181 O205 2.215 . S
Mn181 O207 2.117 . S
C182 O204 1.234 . S
C182 O205 1.283 . S
C183 O195 1.281 . S
C183 O196 1.236 . S
C184 O206 1.240 . S
C184 O207 1.264 . S
O185 Mn180 2.095 . S
O185 C194 1.250 . S
O186 Mn181 2.121 . S
O186 C194 1.258 . S
C187 N188 1.326 . S
C187 C191 1.460 . S
C187 H193 0.929 . S
N188 Mn181 2.257 . S
N188 C187 1.326 . S
N188 C192 1.362 . S
C189 C190 1.258 . S
C189 C192 1.431 . S
C189 C209 1.449 . S
C190 C189 1.258 . S
C190 C191 1.477 . S
C190 H210 0.931 . S
C191 C187 1.460 . S
C191 C190 1.477 . S
C191 H211 0.930 . S
C192 N188 1.362 . S
C192 C189 1.431 . S
C192 C202 1.476 . S
H193 C187 0.929 . S
C194 O185 1.250 . S
C194 O186 1.258 . S
O195 Mn180 2.162 . S
O195 C183 1.281 . S
O196 Mn180 2.297 . S
O196 C183 1.236 . S
N197 Mn181 2.282 . S
N197 C198 1.328 . S
N197 C202 1.318 . S
C198 N197 1.328 . S
C198 C199 1.457 . S
C198 H203 0.929 . S
C199 C198 1.457 . S
C199 C200 1.291 . S
C199 H212 0.931 . S
C200 C199 1.291 . S
C200 C201 1.373 . S
C200 H213 0.929 . S
C201 C200 1.373 . S
C201 C202 1.396 . S
C201 C208 1.403 . S
C202 C192 1.476 . S
C202 N197 1.318 . S
C202 C201 1.396 . S
H203 C198 0.929 . S
O204 Mn180 2.385 . S
O204 C182 1.234 . S
O205 Mn180 2.209 . S
O205 Mn181 2.215 . S
O205 C182 1.283 . S
O206 Mn180 2.094 . S
O206 C184 1.240 . S
O207 Mn181 2.117 . S
O207 C184 1.264 . S
C208 C201 1.403 . S
C208 C209 1.399 . S
C208 H214 0.929 . S
C209 C189 1.449 . S
C209 C208 1.399 . S
C209 H215 0.930 . S
H210 C190 0.931 . S
H211 C191 0.930 . S
H212 C199 0.931 . S
H213 C200 0.929 . S
H214 C208 0.929 . S
H215 C209 0.930 . S
H216 C224 0.929 . S
H217 C226 0.930 . S
H218 C228 0.930 . S
H219 C231 0.929 . S
H220 C234 0.930 . S
H221 C236 0.960 . S
H222 C236 0.960 . S
H223 C236 0.960 . S
C224 H216 0.929 . S
C224 C225 1.377 . S
C224 C226 1.384 . S
C225 C224 1.377 . S
C225 C231 1.390 . S
C226 H217 0.930 . S
C226 C224 1.384 . S
C226 C227 1.372 . S
C227 C226 1.372 . S
C227 C228 1.400 . S
C227 C232 1.490 . S
C228 H218 0.930 . S
C228 C227 1.400 . S
C228 C231 1.386 . S
H229 C245 0.930 . S
H230 C246 0.931 . S
C231 H219 0.929 . S
C231 C225 1.390 . S
C231 C228 1.386 . S
C232 C227 1.490 . S
C232 C234 1.395 . S
C232 C235 1.403 . S
H233 C239 0.930 . S
C234 H220 0.930 . S
C234 C232 1.395 . S
C234 C237 1.403 . S
C235 C232 1.403 . S
C235 C236 1.524 . S
C235 C239 1.400 . S
C236 H221 0.960 . S
C236 H222 0.960 . S
C236 H223 0.960 . S
C236 C235 1.524 . S
C237 C234 1.403 . S
C237 C238 1.392 . S
C237 C241 1.495 . S
C238 C237 1.392 . S
C238 C239 1.385 . S
C238 C240 1.478 . S
C239 H233 0.930 . S
C239 C235 1.400 . S
C239 C238 1.385 . S
C240 C238 1.478 . S
C240 C242 1.381 . S
C240 C246 1.383 . S
C241 C237 1.495 . S
C241 H247 0.959 . S
C241 H248 0.961 . S
C241 H249 0.960 . S
C242 C240 1.381 . S
C242 C243 1.394 . S
C242 H250 0.930 . S
C243 C242 1.394 . S
C243 C244 1.383 . S
C243 H251 0.929 . S
C244 C243 1.383 . S
C244 C245 1.377 . S
C245 H229 0.930 . S
C245 C244 1.377 . S
C245 C246 1.379 . S
C246 H230 0.931 . S
C246 C240 1.383 . S
C246 C245 1.379 . S
H247 C241 0.959 . S
H248 C241 0.961 . S
H249 C241 0.960 . S
H250 C242 0.930 . S
H251 C243 0.929 . S
H252 C260 0.929 . S
H253 C262 0.930 . S
H254 C264 0.930 . S
H255 C267 0.929 . S
H256 C270 0.930 . S
H257 C272 0.960 . S
H258 C272 0.960 . S
H259 C272 0.960 . S
C260 H252 0.929 . S
C260 C261 1.377 . S
C260 C262 1.384 . S
C261 C260 1.377 . S
C261 C267 1.390 . S
C262 H253 0.930 . S
C262 C260 1.384 . S
C262 C263 1.372 . S
C263 C262 1.372 . S
C263 C264 1.400 . S
C263 C268 1.490 . S
C264 H254 0.930 . S
C264 C263 1.400 . S
C264 C267 1.386 . S
H265 C281 0.930 . S
H266 C282 0.931 . S
C267 H255 0.929 . S
C267 C261 1.390 . S
C267 C264 1.386 . S
C268 C263 1.490 . S
C268 C270 1.395 . S
C268 C271 1.403 . S
H269 C275 0.930 . S
C270 H256 0.930 . S
C270 C268 1.395 . S
C270 C273 1.403 . S
C271 C268 1.403 . S
C271 C272 1.524 . S
C271 C275 1.400 . S
C272 H257 0.960 . S
C272 H258 0.960 . S
C272 H259 0.960 . S
C272 C271 1.524 . S
C273 C270 1.403 . S
C273 C274 1.392 . S
C273 C277 1.495 . S
C274 C273 1.392 . S
C274 C275 1.385 . S
C274 C276 1.478 . S
C275 H269 0.930 . S
C275 C271 1.400 . S
C275 C274 1.385 . S
C276 C274 1.478 . S
C276 C278 1.381 . S
C276 C282 1.383 . S
C277 C273 1.495 . S
C277 H283 0.959 . S
C277 H284 0.961 . S
C277 H285 0.960 . S
C278 C276 1.381 . S
C278 C279 1.394 . S
C278 H286 0.930 . S
C279 C278 1.394 . S
C279 C280 1.383 . S
C279 H287 0.929 . S
C280 C279 1.383 . S
C280 C281 1.377 . S
C281 H265 0.930 . S
C281 C280 1.377 . S
C281 C282 1.379 . S
C282 H266 0.931 . S
C282 C276 1.383 . S
C282 C281 1.379 . S
H283 C277 0.959 . S
H284 C277 0.961 . S
H285 C277 0.960 . S
H286 C278 0.930 . S
H287 C279 0.929 . S
H288 C296 0.929 . S
H289 C298 0.930 . S
H290 C300 0.930 . S
H291 C303 0.929 . S
H292 C306 0.930 . S
H293 C308 0.960 . S
H294 C308 0.960 . S
H295 C308 0.960 . S
C296 H288 0.929 . S
C296 C297 1.377 . S
C296 C298 1.384 . S
C297 C296 1.377 . S
C297 C303 1.390 . S
C298 H289 0.930 . S
C298 C296 1.384 . S
C298 C299 1.372 . S
C299 C298 1.372 . S
C299 C300 1.400 . S
C299 C304 1.490 . S
C300 H290 0.930 . S
C300 C299 1.400 . S
C300 C303 1.386 . S
H301 C317 0.930 . S
H302 C318 0.931 . S
C303 H291 0.929 . S
C303 C297 1.390 . S
C303 C300 1.386 . S
C304 C299 1.490 . S
C304 C306 1.395 . S
C304 C307 1.403 . S
H305 C311 0.930 . S
C306 H292 0.930 . S
C306 C304 1.395 . S
C306 C309 1.403 . S
C307 C304 1.403 . S
C307 C308 1.524 . S
C307 C311 1.400 . S
C308 H293 0.960 . S
C308 H294 0.960 . S
C308 H295 0.960 . S
C308 C307 1.524 . S
C309 C306 1.403 . S
C309 C310 1.392 . S
C309 C313 1.495 . S
C310 C309 1.392 . S
C310 C311 1.385 . S
C310 C312 1.478 . S
C311 H305 0.930 . S
C311 C307 1.400 . S
C311 C310 1.385 . S
C312 C310 1.478 . S
C312 C314 1.381 . S
C312 C318 1.383 . S
C313 C309 1.495 . S
C313 H319 0.959 . S
C313 H320 0.961 . S
C313 H321 0.960 . S
C314 C312 1.381 . S
C314 C315 1.394 . S
C314 H322 0.930 . S
C315 C314 1.394 . S
C315 C316 1.383 . S
C315 H323 0.929 . S
C316 C315 1.383 . S
C316 C317 1.377 . S
C317 H301 0.930 . S
C317 C316 1.377 . S
C317 C318 1.379 . S
C318 H302 0.931 . S
C318 C312 1.383 . S
C318 C317 1.379 . S
H319 C313 0.959 . S
H320 C313 0.961 . S
H321 C313 0.960 . S
H322 C314 0.930 . S
H323 C315 0.929 . S
H324 C332 0.929 . S
H325 C334 0.930 . S
H326 C336 0.930 . S
H327 C339 0.929 . S
H328 C342 0.930 . S
H329 C344 0.960 . S
H330 C344 0.960 . S
H331 C344 0.960 . S
C332 H324 0.929 . S
C332 C333 1.377 . S
C332 C334 1.384 . S
C333 C332 1.377 . S
C333 C339 1.390 . S
C334 H325 0.930 . S
C334 C332 1.384 . S
C334 C335 1.372 . S
C335 C334 1.372 . S
C335 C336 1.400 . S
C335 C340 1.490 . S
C336 H326 0.930 . S
C336 C335 1.400 . S
C336 C339 1.386 . S
H337 C353 0.930 . S
H338 C354 0.931 . S
C339 H327 0.929 . S
C339 C333 1.390 . S
C339 C336 1.386 . S
C340 C335 1.490 . S
C340 C342 1.395 . S
C340 C343 1.403 . S
H341 C347 0.930 . S
C342 H328 0.930 . S
C342 C340 1.395 . S
C342 C345 1.403 . S
C343 C340 1.403 . S
C343 C344 1.524 . S
C343 C347 1.400 . S
C344 H329 0.960 . S
C344 H330 0.960 . S
C344 H331 0.960 . S
C344 C343 1.524 . S
C345 C342 1.403 . S
C345 C346 1.392 . S
C345 C349 1.495 . S
C346 C345 1.392 . S
C346 C347 1.385 . S
C346 C348 1.478 . S
C347 H341 0.930 . S
C347 C343 1.400 . S
C347 C346 1.385 . S
C348 C346 1.478 . S
C348 C350 1.381 . S
C348 C354 1.383 . S
C349 C345 1.495 . S
C349 H355 0.959 . S
C349 H356 0.961 . S
C349 H357 0.960 . S
C350 C348 1.381 . S
C350 C351 1.394 . S
C350 H358 0.930 . S
C351 C350 1.394 . S
C351 C352 1.383 . S
C351 H359 0.929 . S
C352 C351 1.383 . S
C352 C353 1.377 . S
C353 H337 0.930 . S
C353 C352 1.377 . S
C353 C354 1.379 . S
C354 H338 0.931 . S
C354 C348 1.383 . S
C354 C353 1.379 . S
H355 C349 0.959 . S
H356 C349 0.961 . S
H357 C349 0.960 . S
H358 C350 0.930 . S
H359 C351 0.929 . S
H360 C368 0.929 . S
H361 C370 0.930 . S
H362 C372 0.930 . S
H363 C375 0.929 . S
H364 C378 0.930 . S
H365 C380 0.960 . S
H366 C380 0.960 . S
H367 C380 0.960 . S
C368 H360 0.929 . S
C368 C369 1.377 . S
C368 C370 1.384 . S
C369 C368 1.377 . S
C369 C375 1.390 . S
C370 H361 0.930 . S
C370 C368 1.384 . S
C370 C371 1.372 . S
C371 C370 1.372 . S
C371 C372 1.400 . S
C371 C376 1.490 . S
C372 H362 0.930 . S
C372 C371 1.400 . S
C372 C375 1.386 . S
H373 C389 0.930 . S
H374 C390 0.931 . S
C375 H363 0.929 . S
C375 C369 1.390 . S
C375 C372 1.386 . S
C376 C371 1.490 . S
C376 C378 1.395 . S
C376 C379 1.403 . S
H377 C383 0.930 . S
C378 H364 0.930 . S
C378 C376 1.395 . S
C378 C381 1.403 . S
C379 C376 1.403 . S
C379 C380 1.524 . S
C379 C383 1.400 . S
C380 H365 0.960 . S
C380 H366 0.960 . S
C380 H367 0.960 . S
C380 C379 1.524 . S
C381 C378 1.403 . S
C381 C382 1.392 . S
C381 C385 1.495 . S
C382 C381 1.392 . S
C382 C383 1.385 . S
C382 C384 1.478 . S
C383 H377 0.930 . S
C383 C379 1.400 . S
C383 C382 1.385 . S
C384 C382 1.478 . S
C384 C386 1.381 . S
C384 C390 1.383 . S
C385 C381 1.495 . S
C385 H391 0.959 . S
C385 H392 0.961 . S
C385 H393 0.960 . S
C386 C384 1.381 . S
C386 C387 1.394 . S
C386 H394 0.930 . S
C387 C386 1.394 . S
C387 C388 1.383 . S
C387 H395 0.929 . S
C388 C387 1.383 . S
C388 C389 1.377 . S
C389 H373 0.930 . S
C389 C388 1.377 . S
C389 C390 1.379 . S
C390 H374 0.931 . S
C390 C384 1.383 . S
C390 C389 1.379 . S
H391 C385 0.959 . S
H392 C385 0.961 . S
H393 C385 0.960 . S
H394 C386 0.930 . S
H395 C387 0.929 . S
H396 C404 0.929 . S
H397 C406 0.930 . S
H398 C408 0.930 . S
H399 C411 0.929 . S
H400 C414 0.930 . S
H401 C416 0.960 . S
H402 C416 0.960 . S
H403 C416 0.960 . S
C404 H396 0.929 . S
C404 C405 1.377 . S
C404 C406 1.384 . S
C405 C404 1.377 . S
C405 C411 1.390 . S
C406 H397 0.930 . S
C406 C404 1.384 . S
C406 C407 1.372 . S
C407 C406 1.372 . S
C407 C408 1.400 . S
C407 C412 1.490 . S
C408 H398 0.930 . S
C408 C407 1.400 . S
C408 C411 1.386 . S
H409 C425 0.930 . S
H410 C426 0.931 . S
C411 H399 0.929 . S
C411 C405 1.390 . S
C411 C408 1.386 . S
C412 C407 1.490 . S
C412 C414 1.395 . S
C412 C415 1.403 . S
H413 C419 0.930 . S
C414 H400 0.930 . S
C414 C412 1.395 . S
C414 C417 1.403 . S
C415 C412 1.403 . S
C415 C416 1.524 . S
C415 C419 1.400 . S
C416 H401 0.960 . S
C416 H402 0.960 . S
C416 H403 0.960 . S
C416 C415 1.524 . S
C417 C414 1.403 . S
C417 C418 1.392 . S
C417 C421 1.495 . S
C418 C417 1.392 . S
C418 C419 1.385 . S
C418 C420 1.478 . S
C419 H413 0.930 . S
C419 C415 1.400 . S
C419 C418 1.385 . S
C420 C418 1.478 . S
C420 C422 1.381 . S
C420 C426 1.383 . S
C421 C417 1.495 . S
C421 H427 0.959 . S
C421 H428 0.961 . S
C421 H429 0.960 . S
C422 C420 1.381 . S
C422 C423 1.394 . S
C422 H430 0.930 . S
C423 C422 1.394 . S
C423 C424 1.383 . S
C423 H431 0.929 . S
C424 C423 1.383 . S
C424 C425 1.377 . S
C425 H409 0.930 . S
C425 C424 1.377 . S
C425 C426 1.379 . S
C426 H410 0.931 . S
C426 C420 1.383 . S
C426 C425 1.379 . S
H427 C421 0.959 . S
H428 C421 0.961 . S
H429 C421 0.960 . S
H430 C422 0.930 . S
H431 C423 0.929 . S
H432 C440 0.929 . S
H433 C442 0.930 . S
H434 C444 0.930 1_545 S
H435 C447 0.929 . S
H436 C450 0.930 . S
H437 C452 0.960 . S
H438 C452 0.960 1_565 S
H439 C452 0.960 . S
C440 H432 0.929 . S
C440 C441 1.377 . S
C440 C442 1.384 . S
C441 C440 1.377 . S
C441 C447 1.390 . S
C442 H433 0.930 . S
C442 C440 1.384 . S
C442 C443 1.372 . S
C443 C442 1.372 . S
C443 C444 1.400 . S
C443 C448 1.490 . S
C444 H434 0.930 1_565 S
C444 C443 1.400 . S
C444 C447 1.386 . S
H445 C461 0.930 . S
H446 C462 0.931 . S
C447 H435 0.929 . S
C447 C441 1.390 . S
C447 C444 1.386 . S
C448 C443 1.490 . S
C448 C450 1.395 1_556 S
C448 C451 1.403 1_565 S
H449 C455 0.930 . S
C450 H436 0.930 . S
C450 C448 1.395 1_554 S
C450 C453 1.425 . S
C451 C448 1.403 1_545 S
C451 C452 1.524 . S
C451 C455 1.400 1_556 S
C452 H437 0.960 . S
C452 H438 0.960 1_545 S
C452 H439 0.960 . S
C452 C451 1.524 . S
C453 C450 1.425 . S
C453 C454 1.351 1_565 S
C453 C457 1.516 . S
C454 C453 1.351 1_545 S
C454 C455 1.385 . S
C454 C456 1.478 . S
C455 H449 0.930 . S
C455 C451 1.400 1_554 S
C455 C454 1.385 . S
C456 C454 1.478 . S
C456 C458 1.381 . S
C456 C462 1.383 . S
C457 C453 1.516 . S
C457 H463 0.959 . S
C457 H464 0.961 1_565 S
C457 H465 0.960 . S
C458 C456 1.381 . S
C458 C459 1.394 . S
C458 H466 0.930 . S
C459 C458 1.394 . S
C459 C460 1.383 . S
C459 H467 0.929 . S
C460 C459 1.383 . S
C460 C461 1.377 . S
C461 H445 0.930 . S
C461 C460 1.377 . S
C461 C462 1.379 . S
C462 H446 0.931 . S
C462 C456 1.383 . S
C462 C461 1.379 . S
H463 C457 0.959 . S
H464 C457 0.961 1_545 S
H465 C457 0.960 . S
H466 C458 0.930 . S
H467 C459 0.929 . S
H468 C476 0.929 . S
H469 C478 0.930 . S
H470 C480 0.930 . S
H471 C483 0.929 . S
H472 C486 0.930 . S
H473 C488 0.960 . S
H474 C488 0.960 . S
H475 C488 0.960 . S
C476 H468 0.929 . S
C476 C477 1.377 . S
C476 C478 1.384 . S
C477 C476 1.377 . S
C477 C483 1.390 . S
C478 H469 0.930 . S
C478 C476 1.384 . S
C478 C479 1.372 . S
C479 C478 1.372 . S
C479 C480 1.400 . S
C479 C484 1.490 . S
C480 H470 0.930 . S
C480 C479 1.400 . S
C480 C483 1.386 . S
H481 C497 0.930 . S
H482 C498 0.931 . S
C483 H471 0.929 . S
C483 C477 1.390 . S
C483 C480 1.386 . S
C484 C479 1.490 . S
C484 C486 1.395 . S
C484 C487 1.403 . S
H485 C491 0.930 . S
C486 H472 0.930 . S
C486 C484 1.395 . S
C486 C489 1.403 . S
C487 C484 1.403 . S
C487 C488 1.524 . S
C487 C491 1.400 . S
C488 H473 0.960 . S
C488 H474 0.960 . S
C488 H475 0.960 . S
C488 C487 1.524 . S
C489 C486 1.403 . S
C489 C490 1.392 . S
C489 C493 1.495 . S
C490 C489 1.392 . S
C490 C491 1.385 . S
C490 C492 1.478 . S
C491 H485 0.930 . S
C491 C487 1.400 . S
C491 C490 1.385 . S
C492 C490 1.478 . S
C492 C494 1.381 . S
C492 C498 1.383 . S
C493 C489 1.495 . S
C493 H499 0.959 . S
C493 H500 0.961 . S
C493 H501 0.960 . S
C494 C492 1.381 . S
C494 C495 1.394 . S
C494 H502 0.930 . S
C495 C494 1.394 . S
C495 C496 1.383 . S
C495 H503 0.929 . S
C496 C495 1.383 . S
C496 C497 1.377 . S
C497 H481 0.930 . S
C497 C496 1.377 . S
C497 C498 1.379 . S
C498 H482 0.931 . S
C498 C492 1.383 . S
C498 C497 1.379 . S
H499 C493 0.959 . S
H500 C493 0.961 . S
H501 C493 0.960 . S
H502 C494 0.930 . S
H503 C495 0.929 . S
H504 C512 0.929 . S
H505 C514 0.930 . S
H506 C516 0.930 . S
H507 C519 0.929 . S
H508 C522 0.930 . S
H509 C524 0.960 . S
H510 C524 0.960 1_556 S
H511 C524 0.960 . S
C512 H504 0.929 . S
C512 C513 1.377 . S
C512 C514 1.384 . S
C513 C512 1.377 . S
C513 C519 1.390 . S
C514 H505 0.930 . S
C514 C512 1.384 . S
C514 C515 1.372 . S
C515 C514 1.372 . S
C515 C516 1.400 . S
C515 C520 1.490 . S
C516 H506 0.930 . S
C516 C515 1.400 . S
C516 C519 1.386 . S
H517 C533 0.930 . S
H518 C534 0.931 . S
C519 H507 0.929 . S
C519 C513 1.390 . S
C519 C516 1.386 . S
C520 C515 1.490 . S
C520 C522 1.395 1_455 S
C520 C523 1.403 1_556 S
H521 C527 0.930 . S
C522 H508 0.930 . S
C522 C520 1.395 1_655 S
C522 C525 1.403 . S
C523 C520 1.403 1_554 S
C523 C524 1.524 . S
C523 C527 1.400 . S
C524 H509 0.960 . S
C524 H510 0.960 1_554 S
C524 H511 0.960 . S
C524 C523 1.524 . S
C525 C522 1.403 . S
C525 C526 1.392 1_556 S
C525 C529 1.495 . S
C526 C525 1.392 1_554 S
C526 C527 1.385 1_655 S
C526 C528 1.478 . S
C527 H521 0.930 . S
C527 C523 1.400 . S
C527 C526 1.385 1_455 S
C528 C526 1.478 . S
C528 C530 1.381 . S
C528 C534 1.383 . S
C529 C525 1.495 . S
C529 H535 0.959 . S
C529 H536 0.961 1_556 S
C529 H537 0.960 . S
C530 C528 1.381 . S
C530 C531 1.394 . S
C530 H538 0.930 . S
C531 C530 1.394 . S
C531 C532 1.383 . S
C531 H539 0.929 . S
C532 C531 1.383 . S
C532 C533 1.377 . S
C533 H517 0.930 . S
C533 C532 1.377 . S
C533 C534 1.379 . S
C534 H518 0.931 . S
C534 C528 1.383 . S
C534 C533 1.379 . S
H535 C529 0.959 . S
H536 C529 0.961 1_554 S
H537 C529 0.960 . S
H538 C530 0.930 . S
H539 C531 0.929 . S
H540 C548 0.929 . S
H541 C550 0.930 . S
H542 C552 0.930 . S
H543 C555 0.929 . S
H544 C558 0.930 . S
H545 C560 0.960 . S
H546 C560 0.960 . S
H547 C560 0.960 . S
C548 H540 0.929 . S
C548 C549 1.377 . S
C548 C550 1.384 . S
C549 C548 1.377 . S
C549 C555 1.390 . S
C550 H541 0.930 . S
C550 C548 1.384 . S
C550 C551 1.372 . S
C551 C550 1.372 . S
C551 C552 1.400 . S
C551 C556 1.490 . S
C552 H542 0.930 . S
C552 C551 1.400 . S
C552 C555 1.386 . S
H553 C569 0.930 . S
H554 C570 0.931 . S
C555 H543 0.929 . S
C555 C549 1.390 . S
C555 C552 1.386 . S
C556 C551 1.490 . S
C556 C558 1.395 . S
C556 C559 1.403 . S
H557 C563 0.930 . S
C558 H544 0.930 . S
C558 C556 1.395 . S
C558 C561 1.403 1_545 S
C559 C556 1.403 . S
C559 C560 1.524 . S
C559 C563 1.400 . S
C560 H545 0.960 . S
C560 H546 0.960 . S
C560 H547 0.960 . S
C560 C559 1.524 . S
C561 C558 1.403 1_565 S
C561 C562 1.392 . S
C561 C565 1.495 . S
C562 C561 1.392 . S
C562 C563 1.385 1_565 S
C562 C564 1.478 . S
C563 H557 0.930 . S
C563 C559 1.400 . S
C563 C562 1.385 1_545 S
C564 C562 1.478 . S
C564 C566 1.381 . S
C564 C570 1.383 . S
C565 C561 1.495 . S
C565 H571 0.959 . S
C565 H572 0.961 . S
C565 H573 0.960 . S
C566 C564 1.381 . S
C566 C567 1.394 . S
C566 H574 0.930 . S
C567 C566 1.394 . S
C567 C568 1.383 . S
C567 H575 0.929 . S
C568 C567 1.383 . S
C568 C569 1.377 . S
C569 H553 0.930 . S
C569 C568 1.377 . S
C569 C570 1.379 . S
C570 H554 0.931 . S
C570 C564 1.383 . S
C570 C569 1.379 . S
H571 C565 0.959 . S
H572 C565 0.961 . S
H573 C565 0.960 . S
H574 C566 0.930 . S
H575 C567 0.929 . S
H576 C584 0.929 . S
H577 C586 0.930 . S
H578 C588 0.930 . S
H579 C591 0.929 . S
H580 C594 0.930 . S
H581 C596 0.960 . S
H582 C596 0.960 . S
H583 C596 0.960 . S
C584 H576 0.929 . S
C584 C585 1.377 . S
C584 C586 1.384 . S
C585 C584 1.377 . S
C585 C591 1.390 . S
C586 H577 0.930 . S
C586 C584 1.384 . S
C586 C587 1.372 . S
C587 C586 1.372 . S
C587 C588 1.400 . S
C587 C592 1.490 . S
C588 H578 0.930 . S
C588 C587 1.400 . S
C588 C591 1.386 . S
H589 C605 0.930 . S
H590 C606 0.931 . S
C591 H579 0.929 . S
C591 C585 1.390 . S
C591 C588 1.386 . S
C592 C587 1.490 . S
C592 C594 1.395 . S
C592 C595 1.403 . S
H593 C599 0.930 . S
C594 H580 0.930 . S
C594 C592 1.395 . S
C594 C597 1.403 1_556 S
C595 C592 1.403 . S
C595 C596 1.524 . S
C595 C599 1.400 1_556 S
C596 H581 0.960 . S
C596 H582 0.960 . S
C596 H583 0.960 . S
C596 C595 1.524 . S
C597 C594 1.403 1_554 S
C597 C598 1.392 . S
C597 C601 1.495 . S
C598 C597 1.392 . S
C598 C599 1.385 . S
C598 C600 1.478 . S
C599 H593 0.930 . S
C599 C595 1.400 1_554 S
C599 C598 1.385 . S
C600 C598 1.478 . S
C600 C602 1.381 . S
C600 C606 1.383 . S
C601 C597 1.495 . S
C601 H607 0.959 . S
C601 H608 0.961 . S
C601 H609 0.960 . S
C602 C600 1.381 . S
C602 C603 1.394 . S
C602 H610 0.930 . S
C603 C602 1.394 . S
C603 C604 1.383 . S
C603 H611 0.929 . S
C604 C603 1.383 . S
C604 C605 1.377 . S
C605 H589 0.930 . S
C605 C604 1.377 . S
C605 C606 1.379 . S
C606 H590 0.931 . S
C606 C600 1.383 . S
C606 C605 1.379 . S
H607 C601 0.959 . S
H608 C601 0.961 . S
H609 C601 0.960 . S
H610 C602 0.930 . S
H611 C603 0.929 . S
H612 C620 0.929 . S
H613 C622 0.930 . S
H614 C624 0.930 . S
H615 C627 0.929 . S
H616 C630 0.930 . S
H617 C632 0.960 . S
H618 C632 0.960 . S
H619 C632 0.960 . S
C620 H612 0.929 . S
C620 C621 1.377 . S
C620 C622 1.384 . S
C621 C620 1.377 . S
C621 C627 1.390 . S
C622 H613 0.930 . S
C622 C620 1.384 . S
C622 C623 1.372 . S
C623 C622 1.372 . S
C623 C624 1.400 . S
C623 C628 1.490 . S
C624 H614 0.930 . S
C624 C623 1.400 . S
C624 C627 1.386 . S
H625 C641 0.930 . S
H626 C642 0.931 . S
C627 H615 0.929 . S
C627 C621 1.390 . S
C627 C624 1.386 . S
C628 C623 1.490 . S
C628 C630 1.395 1_455 S
C628 C631 1.403 . S
H629 C635 0.928 1_455 S
C630 H616 0.930 . S
C630 C628 1.395 1_655 S
C630 C633 1.403 . S
C631 C628 1.403 . S
C631 C632 1.524 . S
C631 C635 1.400 1_455 S
C632 H617 0.960 . S
C632 H618 0.960 . S
C632 H619 0.960 . S
C632 C631 1.524 . S
C633 C630 1.403 . S
C633 C634 1.392 . S
C633 C637 1.495 . S
C634 C633 1.392 . S
C634 C635 1.385 . S
C634 C636 1.478 . S
C635 H629 0.928 1_655 S
C635 C631 1.400 1_655 S
C635 C634 1.385 . S
C636 C634 1.478 . S
C636 C638 1.381 . S
C636 C642 1.383 . S
C637 C633 1.495 . S
C637 H643 0.959 . S
C637 H644 0.961 . S
C637 H645 0.960 . S
C638 C636 1.381 . S
C638 C639 1.394 . S
C638 H646 0.930 . S
C639 C638 1.394 . S
C639 C640 1.383 . S
C639 H647 0.929 . S
C640 C639 1.383 . S
C640 C641 1.377 . S
C641 H625 0.930 . S
C641 C640 1.377 . S
C641 C642 1.379 . S
C642 H626 0.931 . S
C642 C636 1.383 . S
C642 C641 1.379 . S
H643 C637 0.959 . S
H644 C637 0.961 . S
H645 C637 0.960 . S
H646 C638 0.930 . S
H647 C639 0.929 . S
C225 C3 0.820 . S
C244 C147 0.812 . S
C261 C38 0.850 . S
C280 C182 0.839 . S
C297 C2 0.856 . S
C316 C74 0.818 . S
C333 C111 0.828 . S
C352 C39 0.824 . S
C369 C146 0.860 . S
C388 C75 0.832 . S
C405 C110 0.867 . S
C424 C183 0.842 . S
C441 C112 1.346 . S
C460 C14 1.260 . S
C477 C158 1.297 . S
C496 C40 1.357 . S
C513 C184 1.367 . S
C532 C76 1.359 . S
C549 C4 1.362 . S
C568 C122 1.271 . S
C585 C50 1.301 . S
C604 C148 1.357 . S
C621 C194 1.283 . S
C640 C86 1.319 . S
