# Generated by pormake.
# Topology lcy-e, (6)-cn, num edge types: 1
# Building blocks:
#     Node 0, Type 0, BuildingBlock: NUHQIS_clean_sbu_0, # of connection points: 6
#     Node 1, Type 0, BuildingBlock: NUHQIS_clean_sbu_0, # of connection points: 6
#     Node 2, Type 0, BuildingBlock: NUHQIS_clean_sbu_0, # of connection points: 6
#     Node 3, Type 0, BuildingBlock: NUHQIS_clean_sbu_0, # of connection points: 6
#     Node 4, Type 0, BuildingBlock: NUHQIS_clean_sbu_0, # of connection points: 6
#     Node 5, Type 0, BuildingBlock: NUHQIS_clean_sbu_0, # of connection points: 6
#     Node 6, Type 0, BuildingBlock: NUHQIS_clean_sbu_0, # of connection points: 6
#     Node 7, Type 0, BuildingBlock: NUHQIS_clean_sbu_0, # of connection points: 6
#     Node 8, Type 0, BuildingBlock: NUHQIS_clean_sbu_0, # of connection points: 6
#     Node 9, Type 0, BuildingBlock: NUHQIS_clean_sbu_0, # of connection points: 6
#     Node 10, Type 0, BuildingBlock: NUHQIS_clean_sbu_0, # of connection points: 6
#     Node 11, Type 0, BuildingBlock: NUHQIS_clean_sbu_0, # of connection points: 6
#     Edge 12, Type (0, 0), BuildingBlock: TEMPAE_clean_linker_10, # of connection points: 2
#     Edge 13, Type (0, 0), BuildingBlock: TEMPAE_clean_linker_10, # of connection points: 2
#     Edge 14, Type (0, 0), BuildingBlock: TEMPAE_clean_linker_10, # of connection points: 2
#     Edge 15, Type (0, 0), BuildingBlock: TEMPAE_clean_linker_10, # of connection points: 2
#     Edge 16, Type (0, 0), BuildingBlock: TEMPAE_clean_linker_10, # of connection points: 2
#     Edge 17, Type (0, 0), BuildingBlock: TEMPAE_clean_linker_10, # of connection points: 2
#     Edge 18, Type (0, 0), BuildingBlock: TEMPAE_clean_linker_10, # of connection points: 2
#     Edge 19, Type (0, 0), BuildingBlock: TEMPAE_clean_linker_10, # of connection points: 2
#     Edge 20, Type (0, 0), BuildingBlock: TEMPAE_clean_linker_10, # of connection points: 2
#     Edge 21, Type (0, 0), BuildingBlock: TEMPAE_clean_linker_10, # of connection points: 2
#     Edge 22, Type (0, 0), BuildingBlock: TEMPAE_clean_linker_10, # of connection points: 2
#     Edge 23, Type (0, 0), BuildingBlock: TEMPAE_clean_linker_10, # of connection points: 2
#     Edge 24, Type (0, 0), BuildingBlock: TEMPAE_clean_linker_10, # of connection points: 2
#     Edge 25, Type (0, 0), BuildingBlock: TEMPAE_clean_linker_10, # of connection points: 2
#     Edge 26, Type (0, 0), BuildingBlock: TEMPAE_clean_linker_10, # of connection points: 2
#     Edge 27, Type (0, 0), BuildingBlock: TEMPAE_clean_linker_10, # of connection points: 2
#     Edge 28, Type (0, 0), BuildingBlock: TEMPAE_clean_linker_10, # of connection points: 2
#     Edge 29, Type (0, 0), BuildingBlock: TEMPAE_clean_linker_10, # of connection points: 2
#     Edge 30, Type (0, 0), BuildingBlock: TEMPAE_clean_linker_10, # of connection points: 2
#     Edge 31, Type (0, 0), BuildingBlock: TEMPAE_clean_linker_10, # of connection points: 2
#     Edge 32, Type (0, 0), BuildingBlock: TEMPAE_clean_linker_10, # of connection points: 2
#     Edge 33, Type (0, 0), BuildingBlock: TEMPAE_clean_linker_10, # of connection points: 2
#     Edge 34, Type (0, 0), BuildingBlock: TEMPAE_clean_linker_10, # of connection points: 2
#     Edge 35, Type (0, 0), BuildingBlock: TEMPAE_clean_linker_10, # of connection points: 2
#     Edge 36, Type (0, 0), BuildingBlock: TEMPAE_clean_linker_10, # of connection points: 2
#     Edge 37, Type (0, 0), BuildingBlock: TEMPAE_clean_linker_10, # of connection points: 2
#     Edge 38, Type (0, 0), BuildingBlock: TEMPAE_clean_linker_10, # of connection points: 2
#     Edge 39, Type (0, 0), BuildingBlock: TEMPAE_clean_linker_10, # of connection points: 2
#     Edge 40, Type (0, 0), BuildingBlock: TEMPAE_clean_linker_10, # of connection points: 2
#     Edge 41, Type (0, 0), BuildingBlock: TEMPAE_clean_linker_10, # of connection points: 2
#     Edge 42, Type (0, 0), BuildingBlock: TEMPAE_clean_linker_10, # of connection points: 2
#     Edge 43, Type (0, 0), BuildingBlock: TEMPAE_clean_linker_10, # of connection points: 2
#     Edge 44, Type (0, 0), BuildingBlock: TEMPAE_clean_linker_10, # of connection points: 2
#     Edge 45, Type (0, 0), BuildingBlock: TEMPAE_clean_linker_10, # of connection points: 2
#     Edge 46, Type (0, 0), BuildingBlock: TEMPAE_clean_linker_10, # of connection points: 2
#     Edge 47, Type (0, 0), BuildingBlock: TEMPAE_clean_linker_10, # of connection points: 2
# Relax obj value: 0.180
# Max RMSD: 0.286
# Mean RMSD: 0.270
data_MOF--net-lcy-e--node1-NUHQIS_clean_sbu_0--edge1-TEMPAE_clean_linker_10
_symmetry_space_group_name_H-M    P1
_symmetry_Int_Tables_number       1
_symmetry_cell_setting            triclinic
loop_
_symmetry_equiv_pos_as_xyz
'x, y, z'
_cell_length_a     44.034904
_cell_length_b     47.121188
_cell_length_c     44.031746
_cell_angle_alpha  89.71897
_cell_angle_beta   90.047279
_cell_angle_gamma 89.119245
loop_
_atom_site_label
_atom_site_type_symbol
_atom_site_fract_x
_atom_site_fract_y
_atom_site_fract_z
_atom_type_partial_charge
Tb0 Tb 0.1327 0.25181 0.513 0.0
Eu1 Eu 0.10974 0.30046 0.4636 0.0
C2 C 0.16659 0.25904 0.45179 0.0
C3 C 0.16044 0.31368 0.51134 0.0
C4 C 0.13486 0.18406 0.55849 0.0
C5 C 0.13451 0.13233 0.556 0.0
C6 C 0.14565 0.15842 0.546 0.0
C7 C 0.11252 0.18295 0.58128 0.0
C8 C 0.10143 0.15679 0.59139 0.0
C9 C 0.11244 0.13109 0.57904 0.0
C10 C 0.14799 0.21143 0.54828 0.0
O11 O 0.08914 0.26739 0.52885 0.0
O12 O 0.09063 0.31252 0.5098 0.0
O13 O 0.07224 0.26922 0.46733 0.0
O14 O 0.10245 0.23117 0.4804 0.0
C15 C 0.0823 0.29447 0.53106 0.0
O16 O 0.10428 0.3448 0.44954 0.0
O17 O 0.09018 0.31128 0.41945 0.0
O18 O 0.14162 0.26975 0.43971 0.0
O19 O 0.1698 0.25736 0.48135 0.0
O20 O 0.15108 0.29261 0.5288 0.0
O21 O 0.15431 0.3141 0.48222 0.0
C22 C 0.07687 0.24174 0.46923 0.0
O23 O 0.15578 0.213 0.51979 0.0
O24 O 0.1351 0.235 0.55744 0.0
C25 C 0.11091 0.35204 0.3969 0.0
C26 C 0.14078 0.37794 0.34743 0.0
C27 C 0.11124 0.38667 0.35586 0.0
C28 C 0.09647 0.37381 0.38034 0.0
C29 C 0.14042 0.3433 0.3888 0.0
C30 C 0.15522 0.35612 0.36429 0.0
C31 C 0.09496 0.33838 0.42232 0.0
H32 H 0.14327 0.11309 0.54564 0.0
H33 H 0.16297 0.15847 0.52854 0.0
H34 H 0.10385 0.20224 0.59163 0.0
H35 H 0.08478 0.15672 0.60947 0.0
H36 H 0.09962 0.4037 0.34375 0.0
H37 H 0.07374 0.38089 0.38635 0.0
H38 H 0.15191 0.32644 0.40133 0.0
H39 H 0.17781 0.34868 0.35828 0.0
Tb40 Tb 0.01049 0.89825 0.70047 0.0
Eu41 Eu 0.06147 0.91713 0.75031 0.0
C42 C 0.07128 0.86354 0.70682 0.0
C43 C 0.0141 0.87055 0.76662 0.0
C44 C 0.9581 0.89913 0.63409 0.0
C45 C 0.92401 0.89744 0.59085 0.0
C46 C 0.93734 0.88442 0.61624 0.0
C47 C 0.96533 0.92718 0.62641 0.0
C48 C 0.95198 0.94028 0.60097 0.0
C49 C 0.93126 0.92548 0.58279 0.0
C50 C 0.97262 0.8847 0.66009 0.0
O51 O 0.99441 0.93848 0.71792 0.0
O52 O 0.01587 0.93572 0.76517 0.0
O53 O 0.0558 0.95366 0.71831 0.0
O54 O 0.04038 0.92844 0.67707 0.0
C55 C 0.99408 0.94483 0.74685 0.0
O56 O 0.0772 0.92193 0.797 0.0
O57 O 0.10565 0.93533 0.75957 0.0
O58 O 0.08444 0.886 0.71819 0.0
O59 O 0.04165 0.86242 0.70461 0.0
O60 O 0.99627 0.88039 0.74467 0.0
O61 O 0.04314 0.87604 0.7668 0.0
C62 C 0.05167 0.95166 0.68899 0.0
O63 O 1.00184 0.88047 0.65782 0.0
O64 O 0.965 0.89389 0.68694 0.0
C65 C 0.13008 0.91594 0.80241 0.0
C66 C 0.18118 0.88814 0.82796 0.0
C67 C 0.17333 0.91606 0.83649 0.0
C68 C 0.14799 0.92983 0.82378 0.0
C69 C 0.13764 0.88807 0.79385 0.0
C70 C 0.16299 0.87426 0.80654 0.0
C71 C 0.1039 0.93081 0.78877 0.0
H72 H 0.90777 0.88562 0.57768 0.0
H73 H 0.93149 0.86277 0.62189 0.0
H74 H 0.98146 0.93882 0.63994 0.0
H75 H 0.95822 0.9618 0.59528 0.0
H76 H 0.18655 0.92716 0.8533 0.0
H77 H 0.14239 0.95133 0.83064 0.0
H78 H 0.12401 0.87709 0.77724 0.0
H79 H 0.16857 0.85287 0.79932 0.0
Tb80 Tb 0.38551 0.80953 0.01265 0.0
Eu81 Eu 0.40845 0.76031 0.96409 0.0
C82 C 0.35299 0.80303 0.95057 0.0
C83 C 0.35632 0.7485 0.01052 0.0
C84 C 0.38221 0.87585 0.05941 0.0
C85 C 0.37436 0.92141 0.08404 0.0
C86 C 0.36314 0.89544 0.07414 0.0
C87 C 0.41285 0.88251 0.05478 0.0
C88 C 0.42418 0.90853 0.06484 0.0
C89 C 0.40498 0.92839 0.07943 0.0
C90 C 0.36927 0.84929 0.04791 0.0
O91 O 0.42866 0.79346 0.02928 0.0
O92 O 0.42676 0.74825 0.01081 0.0
O93 O 0.44631 0.79114 0.96811 0.0
O94 O 0.41666 0.8297 0.98055 0.0
C95 C 0.43516 0.76631 0.03189 0.0
O96 O 0.41301 0.71587 0.95062 0.0
O97 O 0.42845 0.74901 0.9204 0.0
O98 O 0.37779 0.79151 0.93916 0.0
O99 O 0.34918 0.80498 0.98 0.0
O100 O 0.36623 0.76903 0.02811 0.0
O101 O 0.36298 0.748 0.98156 0.0
C102 C 0.44217 0.81869 0.96987 0.0
O103 O 0.36345 0.84887 0.01893 0.0
O104 O 0.38188 0.82554 0.0571 0.0
C105 C 0.4067 0.70884 0.89792 0.0
C106 C 0.37655 0.68381 0.84824 0.0
C107 C 0.40619 0.67504 0.85642 0.0
C108 C 0.42109 0.68745 0.88099 0.0
C109 C 0.37711 0.71766 0.89004 0.0
C110 C 0.36216 0.70526 0.86545 0.0
C111 C 0.42281 0.72205 0.92345 0.0
H112 H 0.35905 0.93595 0.09563 0.0
H113 H 0.33941 0.89072 0.07783 0.0
H114 H 0.42788 0.86774 0.04317 0.0
H115 H 0.44782 0.91329 0.06074 0.0
H116 H 0.41779 0.65829 0.84404 0.0
H117 H 0.44389 0.68033 0.88678 0.0
H118 H 0.36565 0.73424 0.90283 0.0
H119 H 0.33949 0.71273 0.85967 0.0
Tb120 Tb 0.50819 0.15921 0.19975 0.0
Eu121 Eu 0.45681 0.14068 0.24987 0.0
C122 C 0.44767 0.19429 0.20554 0.0
C123 C 0.50439 0.18734 0.26523 0.0
C124 C 0.56105 0.15809 0.1339 0.0
C125 C 0.59548 0.1597 0.09099 0.0
C126 C 0.58229 0.17262 0.11635 0.0
C127 C 0.5532 0.13032 0.12599 0.0
C128 C 0.56638 0.11734 0.10057 0.0
C129 C 0.58757 0.13197 0.08266 0.0
C130 C 0.54664 0.17246 0.15978 0.0
O131 O 0.52297 0.11846 0.21727 0.0
O132 O 0.50245 0.1218 0.26473 0.0
O133 O 0.46099 0.10462 0.21733 0.0
O134 O 0.47783 0.12984 0.17625 0.0
C135 C 0.52395 0.11247 0.24632 0.0
O136 O 0.44169 0.13487 0.29664 0.0
O137 O 0.4117 0.12426 0.25941 0.0
O138 O 0.43431 0.17206 0.21736 0.0
O139 O 0.4773 0.1952 0.20329 0.0
O140 O 0.52225 0.17706 0.2437 0.0
O141 O 0.47534 0.18183 0.26563 0.0
C142 C 0.46543 0.10698 0.18803 0.0
O143 O 0.51752 0.17725 0.15722 0.0
O144 O 0.55387 0.16281 0.18667 0.0
C145 C 0.38858 0.14299 0.30357 0.0
C146 C 0.33862 0.17102 0.33133 0.0
C147 C 0.33434 0.14665 0.31357 0.0
C148 C 0.35905 0.13275 0.29998 0.0
C149 C 0.39298 0.16749 0.32104 0.0
C150 C 0.36828 0.18128 0.33485 0.0
C151 C 0.41421 0.12797 0.28866 0.0
H152 H 0.61211 0.17137 0.07805 0.0
H153 H 0.58862 0.19405 0.12219 0.0
H154 H 0.53672 0.11883 0.13932 0.0
H155 H 0.55964 0.09606 0.09466 0.0
H156 H 0.31183 0.13838 0.30995 0.0
H157 H 0.35507 0.11399 0.2865 0.0
H158 H 0.41549 0.17598 0.32416 0.0
H159 H 0.37252 0.19974 0.34868 0.0
Tb160 Tb 0.6387 0.31041 0.47836 0.0
Eu161 Eu 0.61508 0.26358 0.52821 0.0
C162 C 0.6714 0.30375 0.54063 0.0
C163 C 0.66682 0.24792 0.48221 0.0
C164 C 0.64271 0.37622 0.43082 0.0
C165 C 0.65015 0.42125 0.40493 0.0
C166 C 0.6614 0.39486 0.41482 0.0
C167 C 0.61243 0.38424 0.43669 0.0
C168 C 0.60108 0.41066 0.42667 0.0
C169 C 0.6199 0.42959 0.41085 0.0
C170 C 0.65568 0.3493 0.44254 0.0
O171 O 0.5964 0.29481 0.46025 0.0
O172 O 0.59682 0.25059 0.48214 0.0
O173 O 0.57707 0.2948 0.52159 0.0
O174 O 0.60674 0.33237 0.50898 0.0
C175 C 0.58904 0.26792 0.45975 0.0
O176 O 0.60979 0.21988 0.5439 0.0
O177 O 0.59364 0.25475 0.57175 0.0
O178 O 0.64614 0.29403 0.5523 0.0
O179 O 0.67517 0.30476 0.51111 0.0
O180 O 0.65776 0.2689 0.46412 0.0
O181 O 0.66 0.24813 0.51114 0.0
C182 C 0.58103 0.32219 0.51941 0.0
O183 O 0.66142 0.34873 0.47154 0.0
O184 O 0.64297 0.32596 0.43365 0.0
C185 C 0.61422 0.21481 0.597 0.0
C186 C 0.64262 0.19069 0.64872 0.0
C187 C 0.6137 0.18176 0.63942 0.0
C188 C 0.59965 0.19374 0.61381 0.0
C189 C 0.64309 0.22381 0.60602 0.0
C190 C 0.65718 0.21185 0.63166 0.0
C191 C 0.59909 0.22749 0.57032 0.0
H192 H 0.66513 0.43507 0.39242 0.0
H193 H 0.68485 0.38909 0.41018 0.0
H194 H 0.59772 0.37022 0.4493 0.0
H195 H 0.57777 0.41649 0.43181 0.0
H196 H 0.60208 0.16518 0.65169 0.0
H197 H 0.5774 0.1865 0.60709 0.0
H198 H 0.65465 0.24015 0.59329 0.0
H199 H 0.67931 0.2194 0.63832 0.0
Tb200 Tb 0.95965 0.41032 0.75026 0.0
Eu201 Eu 0.01229 0.39318 0.80112 0.0
C202 C 0.96457 0.44459 0.81088 0.0
C203 C 0.02363 0.44058 0.7529 0.0
C204 C 0.89299 0.40635 0.69705 0.0
C205 C 0.83852 0.40178 0.68914 0.0
C206 C 0.86296 0.41468 0.7036 0.0
C207 C 0.89807 0.38458 0.6758 0.0
C208 C 0.87359 0.37175 0.66119 0.0
C209 C 0.84347 0.38035 0.66748 0.0
C210 C 0.91842 0.42138 0.71176 0.0
O211 O 0.97866 0.3698 0.73696 0.0
O212 O 0.02668 0.37508 0.75533 0.0
O213 O 0.98088 0.35644 0.79902 0.0
O214 O 0.93842 0.38037 0.7819 0.0
C215 C 0.00795 0.36511 0.73473 0.0
O216 O 0.05983 0.39085 0.81539 0.0
O217 O 0.02458 0.37598 0.84558 0.0
O218 O 0.97885 0.42309 0.82401 0.0
O219 O 0.96073 0.44578 0.78134 0.0
O220 O 1.00264 0.42946 0.73532 0.0
O221 O 0.02385 0.43555 0.78213 0.0
C222 C 0.95141 0.35805 0.79499 0.0
O223 O 0.91575 0.4261 0.7408 0.0
O224 O 0.94608 0.41371 0.70456 0.0
C225 C 0.06703 0.39718 0.86811 0.0
C226 C 0.09254 0.42543 0.9183 0.0
C227 C 0.10225 0.39778 0.91054 0.0
C228 C 0.08958 0.38382 0.88573 0.0
C229 C 0.05733 0.42482 0.87548 0.0
C230 C 0.06999 0.43885 0.90035 0.0
C231 C 0.0533 0.38181 0.84265 0.0
H232 H 0.81569 0.40867 0.69495 0.0
H233 H 0.85834 0.43143 0.71981 0.0
H234 H 0.92094 0.3777 0.67009 0.0
H235 H 0.87832 0.35557 0.64439 0.0
H236 H 0.11993 0.387 0.92348 0.0
H237 H 0.09737 0.36251 0.88033 0.0
H238 H 0.03983 0.43544 0.86213 0.0
H239 H 0.06181 0.46001 0.90579 0.0
Tb240 Tb 0.90392 0.79541 0.03044 0.0
Eu241 Eu 0.88076 0.74793 0.98146 0.0
C242 C 0.93766 0.73715 0.02562 0.0
C243 C 0.93146 0.79115 0.96386 0.0
C244 C 0.90369 0.84409 0.09638 0.0
C245 C 0.90516 0.87524 0.1401 0.0
C246 C 0.91938 0.86302 0.11484 0.0
C247 C 0.8735 0.83749 0.1034 0.0
C248 C 0.85922 0.84972 0.12868 0.0
C249 C 0.87493 0.8687 0.14741 0.0
C250 C 0.91921 0.8309 0.07033 0.0
O251 O 0.8603 0.81033 0.01381 0.0
O252 O 0.8617 0.79096 0.96637 0.0
O253 O 0.84327 0.75379 0.01515 0.0
O254 O 0.87301 0.76719 0.05496 0.0
C255 C 0.85333 0.81156 0.98488 0.0
O256 O 0.87815 0.73072 0.93539 0.0
O257 O 0.85653 0.70889 0.97277 0.0
O258 O 0.91278 0.72595 0.01469 0.0
O259 O 0.94088 0.76476 0.0263 0.0
O260 O 0.92229 0.80813 0.98592 0.0
O261 O 0.925 0.76411 0.96433 0.0
C262 C 0.84753 0.75675 0.04438 0.0
O263 O 0.9242 0.80364 0.07258 0.0
O264 O 0.90894 0.83795 0.04353 0.0
C265 C 0.87798 0.68019 0.93372 0.0
C266 C 0.90099 0.62755 0.91229 0.0
C267 C 0.89696 0.65074 0.89236 0.0
C268 C 0.88545 0.67672 0.90295 0.0
C269 C 0.88244 0.65711 0.95376 0.0
C270 C 0.89372 0.63109 0.94313 0.0
C271 C 0.86488 0.70757 0.94438 0.0
H272 H 0.91777 0.89011 0.1537 0.0
H273 H 0.94268 0.86836 0.10974 0.0
H274 H 0.86107 0.82277 0.08943 0.0
H275 H 0.83603 0.84403 0.13379 0.0
H276 H 0.90203 0.64859 0.86841 0.0
H277 H 0.88209 0.69406 0.88699 0.0
H278 H 0.87704 0.65902 0.97766 0.0
H279 H 0.89686 0.61372 0.95908 0.0
Tb280 Tb 0.55958 0.64971 0.25064 0.0
Eu281 Eu 0.5083 0.66739 0.30215 0.0
C282 C 0.55385 0.61399 0.31071 0.0
C283 C 0.49443 0.62117 0.25346 0.0
C284 C 0.62567 0.65258 0.19754 0.0
C285 C 0.66865 0.65145 0.16302 0.0
C286 C 0.64367 0.63822 0.17621 0.0
C287 C 0.63282 0.68054 0.20544 0.0
C288 C 0.65787 0.69385 0.19223 0.0
C289 C 0.67622 0.67938 0.17095 0.0
C290 C 0.60013 0.63777 0.21185 0.0
O291 O 0.54121 0.69058 0.23719 0.0
O292 O 0.49352 0.68613 0.25658 0.0
O293 O 0.54043 0.7036 0.2994 0.0
O294 O 0.5821 0.67905 0.28184 0.0
C295 C 0.512 0.69588 0.23557 0.0
O296 O 0.46102 0.67203 0.31657 0.0
O297 O 0.49732 0.68372 0.3471 0.0
O298 O 0.5408 0.63576 0.32437 0.0
O299 O 0.55722 0.61353 0.28111 0.0
O300 O 0.51591 0.63167 0.2359 0.0
O301 O 0.49425 0.62604 0.2827 0.0
C302 C 0.56978 0.70159 0.29487 0.0
O303 O 0.60281 0.63276 0.24087 0.0
O304 O 0.57291 0.64695 0.20486 0.0
C305 C 0.45306 0.66514 0.36912 0.0
C306 C 0.42446 0.63793 0.41847 0.0
C307 C 0.41555 0.66555 0.40949 0.0
C308 C 0.42975 0.679 0.38508 0.0
C309 C 0.46194 0.6375 0.37768 0.0
C310 C 0.44775 0.62399 0.40216 0.0
C311 C 0.46819 0.67995 0.34398 0.0
H312 H 0.68188 0.63985 0.14634 0.0
H313 H 0.63846 0.61666 0.1698 0.0
H314 H 0.61918 0.69194 0.22198 0.0
H315 H 0.66314 0.71528 0.19901 0.0
H316 H 0.39736 0.67672 0.42116 0.0
H317 H 0.42254 0.7003 0.37869 0.0
H318 H 0.47998 0.62649 0.36559 0.0
H319 H 0.45534 0.60283 0.4086 0.0
Tb320 Tb 0.23094 0.54823 0.1433 0.0
Eu321 Eu 0.28015 0.49975 0.11985 0.0
C322 C 0.23609 0.49016 0.17677 0.0
C323 C 0.29783 0.54309 0.17061 0.0
C324 C 0.16476 0.59818 0.14323 0.0
C325 C 0.12246 0.63186 0.14435 0.0
C326 C 0.14781 0.61915 0.15832 0.0
C327 C 0.15616 0.5901 0.11383 0.0
C328 C 0.13076 0.6028 0.09981 0.0
C329 C 0.1135 0.62379 0.11495 0.0
C330 C 0.19093 0.58453 0.15859 0.0
O331 O 0.24746 0.56248 0.09972 0.0
O332 O 0.295 0.54242 0.10095 0.0
O333 O 0.24637 0.50626 0.08251 0.0
O334 O 0.20657 0.5198 0.11261 0.0
C335 C 0.27637 0.5633 0.0928 0.0
O336 O 0.32608 0.48169 0.11632 0.0
O337 O 0.28827 0.46002 0.09587 0.0
O338 O 0.24704 0.47864 0.15185 0.0
O339 O 0.23538 0.5178 0.18018 0.0
O340 O 0.2755 0.56029 0.16175 0.0
O341 O 0.29756 0.51601 0.164 0.0
C342 C 0.21712 0.50918 0.087 0.0
O343 O 0.18876 0.55735 0.16349 0.0
O344 O 0.21769 0.59104 0.1483 0.0
C345 C 0.32788 0.43144 0.11555 0.0
C346 C 0.34663 0.37764 0.13791 0.0
C347 C 0.35638 0.38733 0.10928 0.0
C348 C 0.34707 0.41395 0.09823 0.0
C349 C 0.31821 0.42209 0.14423 0.0
C350 C 0.32758 0.39544 0.15536 0.0
C351 C 0.31704 0.45871 0.10283 0.0
H352 H 0.11006 0.64827 0.15649 0.0
H353 H 0.15415 0.6257 0.18099 0.0
H354 H 0.16896 0.57385 0.10184 0.0
H355 H 0.1244 0.59588 0.0773 0.0
H356 H 0.37145 0.37441 0.09546 0.0
H357 H 0.3547 0.4208 0.07603 0.0
H358 H 0.30317 0.43526 0.15783 0.0
H359 H 0.31948 0.38856 0.17738 0.0
Tb360 Tb 0.77394 0.06138 0.87681 0.0
Eu361 Eu 0.72566 0.014 0.85209 0.0
C362 C 0.7116 0.05433 0.90879 0.0
C363 C 0.77114 0.9992 0.90467 0.0
C364 C 0.8205 0.12727 0.88033 0.0
C365 C 0.81531 0.17848 0.87306 0.0
C366 C 0.80409 0.15286 0.88423 0.0
C367 C 0.84843 0.12799 0.8649 0.0
C368 C 0.85967 0.15366 0.85371 0.0
C369 C 0.84334 0.17927 0.85783 0.0
C370 C 0.80911 0.10033 0.89348 0.0
O371 O 0.79133 0.04682 0.83363 0.0
O372 O 0.77244 1.00193 0.83427 0.0
O373 O 0.7303 0.04612 0.81508 0.0
O374 O 0.74237 0.08338 0.84568 0.0
C375 C 0.79365 0.01994 0.82636 0.0
O376 O 0.71292 0.97011 0.84409 0.0
O377 O 0.68173 1.00436 0.83188 0.0
O378 O 0.70037 0.04382 0.88366 0.0
O379 O 0.74102 0.05603 0.91279 0.0
O380 O 0.78892 0.01995 0.89561 0.0
O381 O 0.74233 0.99919 0.89733 0.0
C382 C 0.73186 0.07346 0.81984 0.0
O383 O 0.78025 0.09963 0.89993 0.0
O384 O 0.8185 0.07658 0.8813 0.0
C385 C 0.65999 0.96217 0.85064 0.0
C386 C 0.61064 0.93496 0.87912 0.0
C387 C 0.60587 0.95292 0.85387 0.0
C388 C 0.63028 0.96625 0.83975 0.0
C389 C 0.66487 0.94436 0.87596 0.0
C390 C 0.64048 0.93084 0.88996 0.0
C391 C 0.68533 0.97702 0.83566 0.0
H392 H 0.80197 0.19772 0.87636 0.0
H393 H 0.7826 0.15321 0.89619 0.0
H394 H 0.86184 0.10875 0.8618 0.0
H395 H 0.88154 0.15352 0.84249 0.0
H396 H 0.5832 0.95694 0.84515 0.0
H397 H 0.62591 0.97997 0.82036 0.0
H398 H 0.68751 0.94079 0.88499 0.0
H399 H 0.6451 0.91684 0.90903 0.0
Tb400 Tb 0.74552 0.99793 0.37524 0.0
Eu401 Eu 0.79447 0.04553 0.35108 0.0
C402 C 0.80789 1.00439 0.40774 0.0
C403 C 0.74828 0.06008 0.40268 0.0
C404 C 0.69779 0.93287 0.37947 0.0
C405 C 0.6726 0.88791 0.38756 0.0
C406 C 0.68291 0.91381 0.39866 0.0
C407 C 0.70217 0.92573 0.34882 0.0
C408 C 0.69172 0.89979 0.33761 0.0
C409 C 0.67696 0.88046 0.35693 0.0
C410 C 0.70975 0.95935 0.39225 0.0
O411 O 0.72905 0.01273 0.33164 0.0
O412 O 0.74779 0.05767 0.33253 0.0
O413 O 0.79061 0.01355 0.31407 0.0
O414 O 0.77686 0.97601 0.34408 0.0
C415 C 0.72665 0.03969 0.32443 0.0
O416 O 0.80766 0.0897 0.34482 0.0
O417 O 0.83815 0.05574 0.33079 0.0
O418 O 0.8194 0.0153 0.38283 0.0
O419 O 0.77842 1.00263 0.41142 0.0
O420 O 0.73046 0.03948 0.39345 0.0
O421 O 0.77727 0.05952 0.39624 0.0
C422 C 0.78822 0.98617 0.31861 0.0
O423 O 0.73878 0.95922 0.39787 0.0
O424 O 0.70082 0.98313 0.37958 0.0
C425 C 0.86027 0.09699 0.35043 0.0
C426 C 0.90969 0.12374 0.37893 0.0
C427 C 0.90046 0.13172 0.34942 0.0
C428 C 0.87601 0.11845 0.33533 0.0
C429 C 0.86919 0.08897 0.37991 0.0
C430 C 0.89367 0.10222 0.39404 0.0
C431 C 0.83483 0.08297 0.33518 0.0
H432 H 0.66094 0.87379 0.40296 0.0
H433 H 0.67941 0.91889 0.42239 0.0
H434 H 0.7139 0.94006 0.33369 0.0
H435 H 0.69565 0.89466 0.31398 0.0
H436 H 0.9119 0.14851 0.3373 0.0
H437 H 0.86938 0.12498 0.31262 0.0
H438 H 0.85729 0.07237 0.39191 0.0
H439 H 0.9003 0.09536 0.41663 0.0
Tb440 Tb 0.23964 0.55979 0.62267 0.0
Eu441 Eu 0.28973 0.51141 0.64512 0.0
C442 C 0.30135 0.55339 0.58924 0.0
C443 C 0.24254 0.49795 0.59418 0.0
C444 C 0.19226 0.62645 0.61978 0.0
C445 C 0.16516 0.67135 0.6129 0.0
C446 C 0.17463 0.64491 0.60175 0.0
C447 C 0.20017 0.63468 0.64933 0.0
C448 C 0.19059 0.66115 0.6606 0.0
C449 C 0.17316 0.67993 0.64239 0.0
C450 C 0.20351 0.59952 0.60671 0.0
O451 O 0.2231 0.54361 0.66553 0.0
O452 O 0.24374 0.49878 0.664 0.0
O453 O 0.28487 0.54218 0.68331 0.0
O454 O 0.27111 0.58054 0.65407 0.0
C455 C 0.22175 0.51648 0.67214 0.0
O456 O 0.30506 0.46729 0.64985 0.0
O457 O 0.33411 0.50118 0.66479 0.0
O458 O 0.31333 0.54251 0.6141 0.0
O459 O 0.27181 0.55485 0.58576 0.0
O460 O 0.22471 0.51892 0.60372 0.0
O461 O 0.27165 0.49783 0.60023 0.0
C462 C 0.28243 0.5697 0.67942 0.0
O463 O 0.23232 0.59863 0.60013 0.0
O464 O 0.19489 0.57611 0.6198 0.0
C465 C 0.35856 0.46114 0.64253 0.0
C466 C 0.40932 0.43704 0.61188 0.0
C467 C 0.37958 0.42883 0.60462 0.0
C468 C 0.35451 0.44073 0.61973 0.0
C469 C 0.38823 0.46929 0.64986 0.0
C470 C 0.41328 0.4575 0.63466 0.0
C471 C 0.33228 0.47417 0.65872 0.0
H472 H 0.15136 0.68502 0.59844 0.0
H473 H 0.16839 0.63899 0.57886 0.0
H474 H 0.21404 0.62079 0.66351 0.0
H475 H 0.19733 0.66715 0.68331 0.0
H476 H 0.37564 0.41279 0.58759 0.0
H477 H 0.33199 0.43382 0.61355 0.0
H478 H 0.39211 0.48493 0.66734 0.0
H479 H 0.43576 0.4646 0.64064 0.0
C480 C 0.17686 0.3434 0.55597 0.0
C481 C 0.17443 0.33952 0.52448 0.0
C482 C 0.1871 0.36927 0.56804 0.0
C483 C 0.19482 0.39186 0.54818 0.0
C484 C 0.19256 0.38794 0.51644 0.0
C485 C 0.18267 0.3619 0.50505 0.0
C486 C 0.18954 0.37248 0.60203 0.0
C487 C 0.20035 0.41139 0.49439 0.0
C488 C 0.19838 0.46821 0.57717 0.0
C489 C 0.22979 0.47182 0.58042 0.0
C490 C 0.18656 0.44224 0.56701 0.0
C491 C 0.20659 0.41924 0.56023 0.0
C492 C 0.23826 0.42284 0.56344 0.0
C493 C 0.24941 0.44899 0.57321 0.0
C494 C 0.15265 0.43938 0.56356 0.0
C495 C 0.26048 0.39894 0.55669 0.0
H496 H 0.1703 0.32645 0.57121 0.0
H497 H 0.18084 0.35938 0.48067 0.0
H498 H 0.21324 0.37756 0.60836 0.0
H499 H 0.17489 0.39042 0.60969 0.0
H500 H 0.18277 0.35298 0.6144 0.0
H501 H 0.19636 0.40531 0.47038 0.0
H502 H 0.18653 0.43069 0.4994 0.0
H503 H 0.22455 0.4171 0.49698 0.0
H504 H 0.18298 0.48551 0.58295 0.0
H505 H 0.27373 0.45128 0.57576 0.0
H506 H 0.14451 0.42169 0.57798 0.0
H507 H 0.14704 0.43411 0.53969 0.0
H508 H 0.14011 0.4591 0.56993 0.0
H509 H 0.25478 0.3799 0.57033 0.0
H510 H 0.28434 0.40473 0.56166 0.0
H511 H 0.25888 0.39296 0.53241 0.0
C512 C 0.8275 0.98077 0.80657 0.0
C513 C 0.82244 1.0097 0.81241 0.0
C514 C 0.85593 0.97077 0.79628 0.0
C515 C 0.87989 0.99012 0.79195 0.0
C516 C 0.87483 0.01934 0.79752 0.0
C517 C 0.84619 0.02877 0.80749 0.0
C518 C 0.86041 0.93947 0.79027 0.0
C519 C 0.8998 0.04064 0.79334 0.0
C520 C 0.96098 0.96069 0.79026 0.0
C521 C 0.96655 0.95937 0.75893 0.0
C522 C 0.93298 0.97096 0.80142 0.0
C523 C 0.91005 0.98 0.78075 0.0
C524 C 0.91588 0.97941 0.74918 0.0
C525 C 0.94403 0.96926 0.7387 0.0
C526 C 0.92766 0.97155 0.83528 0.0
C527 C 0.89206 0.9888 0.72638 0.0
H528 H 0.80941 0.96585 0.81048 0.0
H529 H 0.8427 0.05116 0.81209 0.0
H530 H 0.86758 0.93617 0.76638 0.0
H531 H 0.87878 0.93074 0.80501 0.0
H532 H 0.83944 0.92724 0.79446 0.0
H533 H 0.89231 0.06257 0.79917 0.0
H534 H 0.91955 0.03472 0.80784 0.0
H535 H 0.90775 0.04049 0.76945 0.0
H536 H 0.9781 0.95291 0.80605 0.0
H537 H 0.94804 0.9684 0.71444 0.0
H538 H 0.90884 0.95718 0.84127 0.0
H539 H 0.92073 0.99323 0.84245 0.0
H540 H 0.94818 0.9649 0.84835 0.0
H541 H 0.87163 0.97548 0.72876 0.0
H542 H 0.90032 0.98729 0.7026 0.0
H543 H 0.88489 1.01107 0.73079 0.0
C544 C 0.34114 0.71796 0.05494 0.0
C545 C 0.34147 0.72308 0.02353 0.0
C546 C 0.33082 0.69198 0.06676 0.0
C547 C 0.32077 0.67063 0.04667 0.0
C548 C 0.32049 0.67595 0.01504 0.0
C549 C 0.33063 0.70207 1.00392 0.0
C550 C 0.33113 0.6872 0.10068 0.0
C551 C 0.31002 0.65381 0.9928 0.0
C552 C 0.31899 0.59334 0.07296 0.0
C553 C 0.28799 0.58989 0.07902 0.0
C554 C 0.33008 0.61955 0.0626 0.0
C555 C 0.30975 0.64291 0.05853 0.0
C556 C 0.27848 0.63949 0.06454 0.0
C557 C 0.268 0.61308 0.07446 0.0
C558 C 0.36355 0.62229 0.05605 0.0
C559 C 0.25605 0.66384 0.06073 0.0
H560 H 0.34972 0.73389 0.07026 0.0
H561 H 0.33074 0.7057 0.97959 0.0
H562 H 0.30803 0.68182 0.10868 0.0
H563 H 0.34632 0.66894 0.10639 0.0
H564 H 0.33898 0.70611 0.11327 0.0
H565 H 0.31159 0.66115 0.96884 0.0
H566 H 0.324 0.63416 0.99543 0.0
H567 H 0.28613 0.64817 0.99758 0.0
H568 H 0.33464 0.57568 0.07664 0.0
H569 H 0.24401 0.61087 0.07926 0.0
H570 H 0.3733 0.63918 0.07037 0.0
H571 H 0.3669 0.62865 0.032 0.0
H572 H 0.37637 0.60218 0.06035 0.0
H573 H 0.26309 0.6821 0.07477 0.0
H574 H 0.23262 0.65796 0.06734 0.0
H575 H 0.25571 0.6711 0.03673 0.0
C576 C 0.57477 0.08965 0.23791 0.0
C577 C 0.55203 0.09857 0.25828 0.0
C578 C 0.60331 0.08016 0.24821 0.0
C579 C 0.60934 0.07916 0.27974 0.0
C580 C 0.58625 0.08726 0.30055 0.0
C581 C 0.55787 0.09697 0.28957 0.0
C582 C 0.62727 0.07184 0.22523 0.0
C583 C 0.59174 0.08615 0.33438 0.0
C584 C 0.6742 0.03069 0.30537 0.0
C585 C 0.69768 0.04995 0.31061 0.0
C586 C 0.64535 0.03996 0.29572 0.0
C587 C 0.63974 0.06925 0.29075 0.0
C588 C 0.66343 0.08882 0.29537 0.0
C589 C 0.6921 0.07896 0.30538 0.0
C590 C 0.62071 0.01841 0.29125 0.0
C591 C 0.6584 0.1202 0.28995 0.0
H592 H 0.57063 0.09077 0.21366 0.0
H593 H 0.5406 0.104 0.30548 0.0
H594 H 0.64747 0.0854 0.22796 0.0
H595 H 0.63484 0.04956 0.22913 0.0
H596 H 0.61898 0.07392 0.20148 0.0
H597 H 0.57117 0.09224 0.34757 0.0
H598 H 0.59907 0.06443 0.3413 0.0
H599 H 0.61034 0.10068 0.34048 0.0
H600 H 0.67808 1.00822 0.30948 0.0
H601 H 0.70995 0.09403 0.30957 0.0
H602 H 0.61265 0.019 0.26738 0.0
H603 H 0.60095 0.0237 0.30589 0.0
H604 H 0.62859 0.99645 0.29668 0.0
H605 H 0.65102 0.124 0.26615 0.0
H606 H 0.6792 0.13262 0.29427 0.0
H607 H 0.64 0.1283 0.30491 0.0
C608 C 0.68884 0.19916 0.48984 0.0
C609 C 0.68093 0.22145 0.46985 0.0
C610 C 0.6986 0.17257 0.47909 0.0
C611 C 0.70105 0.168 0.44746 0.0
C612 C 0.69374 0.1905 0.42706 0.0
C613 C 0.68363 0.21693 0.43848 0.0
C614 C 0.70602 0.14924 0.50169 0.0
C615 C 0.69644 0.18659 0.39317 0.0
C616 C 0.75537 0.10875 0.42365 0.0
C617 C 0.73562 0.08659 0.41638 0.0
C618 C 0.74435 0.13534 0.43317 0.0
C619 C 0.7127 0.14004 0.43607 0.0
C620 C 0.69254 0.11769 0.42938 0.0
C621 C 0.70423 0.09126 0.41946 0.0
C622 C 0.76669 0.15853 0.43985 0.0
C623 C 0.65864 0.12175 0.43258 0.0
H624 H 0.6868 0.2022 0.51413 0.0
H625 H 0.67732 0.23383 0.42282 0.0
H626 H 0.69205 0.13036 0.49694 0.0
H627 H 0.73018 0.14259 0.49944 0.0
H628 H 0.70192 0.1559 0.52552 0.0
H629 H 0.69001 0.20613 0.38033 0.0
H630 H 0.72012 0.18048 0.3872 0.0
H631 H 0.68164 0.16909 0.38571 0.0
H632 H 0.77968 0.10562 0.4213 0.0
H633 H 0.68875 0.07446 0.41366 0.0
H634 H 0.76476 0.16504 0.46395 0.0
H635 H 0.76139 0.17751 0.42569 0.0
H636 H 0.79056 0.15177 0.43544 0.0
H637 H 0.65297 0.12768 0.45628 0.0
H638 H 0.64601 0.10233 0.42659 0.0
H639 H 0.65066 0.13942 0.4177 0.0
C640 C 0.07228 0.46645 0.75935 0.0
C641 C 0.05055 0.45485 0.73979 0.0
C642 C 0.10012 0.47627 0.7484 0.0
C643 C 0.10647 0.4749 0.71696 0.0
C644 C 0.08431 0.4641 0.69686 0.0
C645 C 0.05662 0.45411 0.70852 0.0
C646 C 0.12308 0.4875 0.77068 0.0
C647 C 0.09009 0.46261 0.66311 0.0
C648 C 0.16783 0.52416 0.68838 0.0
C649 C 0.19307 0.50573 0.68549 0.0
C650 C 0.13949 0.51428 0.69794 0.0
C651 C 0.13618 0.48525 0.70532 0.0
C652 C 0.16158 0.46652 0.70288 0.0
C653 C 0.18968 0.47694 0.6928 0.0
C654 C 0.11299 0.53493 0.69991 0.0
C655 C 0.15907 0.43547 0.71095 0.0
H656 H 0.06793 0.46719 0.78356 0.0
H657 H 0.04016 0.44497 0.69324 0.0
H658 H 0.14443 0.47475 0.76933 0.0
H659 H 0.12875 0.50971 0.7648 0.0
H660 H 0.11473 0.48693 0.79447 0.0
H661 H 0.07021 0.45456 0.65041 0.0
H662 H 0.09572 0.48396 0.65419 0.0
H663 H 0.10991 0.44846 0.65857 0.0
H664 H 0.16994 0.54641 0.68252 0.0
H665 H 0.2089 0.46247 0.69042 0.0
H666 H 0.10467 0.53611 0.72365 0.0
H667 H 0.09391 0.52742 0.68573 0.0
H668 H 0.11903 0.55663 0.69231 0.0
H669 H 0.15182 0.43319 0.73496 0.0
H670 H 0.18087 0.42368 0.70782 0.0
H671 H 0.14147 0.4255 0.69667 0.0
C672 C 0.81525 0.96823 0.92165 0.0
C673 C 0.78382 0.97313 0.91943 0.0
C674 C 0.82697 0.94192 0.93205 0.0
C675 C 0.80678 0.91999 0.94023 0.0
C676 C 0.77508 0.92504 0.93852 0.0
C677 C 0.76405 0.95149 0.92838 0.0
C678 C 0.86093 0.93744 0.93389 0.0
C679 C 0.75273 0.90229 0.9469 0.0
C680 C 0.83483 0.84291 0.94192 0.0
C681 C 0.83922 0.83832 0.97313 0.0
C682 C 0.82444 0.86943 0.93081 0.0
C683 C 0.81854 0.89193 0.95136 0.0
C684 C 0.82273 0.88733 0.98285 0.0
C685 C 0.83279 0.86065 0.99332 0.0
C686 C 0.81991 0.87342 0.89706 0.0
C687 C 0.81687 0.91072 1.00556 0.0
H688 H 0.83071 0.98466 0.91455 0.0
H689 H 0.7397 0.9549 0.92678 0.0
H690 H 0.86756 0.93125 0.95735 0.0
H691 H 0.86801 0.9198 0.91874 0.0
H692 H 0.87356 0.95674 0.92731 0.0
H693 H 0.72876 0.90943 0.94375 0.0
H694 H 0.75681 0.88317 0.93278 0.0
H695 H 0.75597 0.89583 0.97096 0.0
H696 H 0.83996 0.82595 0.92611 0.0
H697 H 0.83622 0.85754 0.0175 0.0
H698 H 0.83446 0.89078 0.88865 0.0
H699 H 0.796 0.87977 0.89231 0.0
H700 H 0.8254 0.85385 0.88409 0.0
H701 H 0.83091 0.92938 0.99995 0.0
H702 H 0.82204 0.90394 0.02923 0.0
H703 H 0.79274 0.91775 1.00441 0.0
C704 C 0.44481 0.5967 0.2598 0.0
C705 C 0.46727 0.6073 0.24029 0.0
C706 C 0.41709 0.58684 0.24859 0.0
C707 C 0.41155 0.58713 0.21694 0.0
C708 C 0.43434 0.59712 0.19696 0.0
C709 C 0.46189 0.60718 0.20887 0.0
C710 C 0.39347 0.57652 0.27077 0.0
C711 C 0.42945 0.59749 0.16303 0.0
C712 C 0.3513 0.53644 0.18908 0.0
C713 C 0.32601 0.55454 0.18441 0.0
C714 C 0.37927 0.54687 0.19902 0.0
C715 C 0.38219 0.57617 0.20497 0.0
C716 C 0.35672 0.59459 0.20078 0.0
C717 C 0.32899 0.5836 0.19038 0.0
C718 C 0.40582 0.52649 0.20292 0.0
C719 C 0.35879 0.62592 0.20728 0.0
H720 H 0.44854 0.59667 0.28414 0.0
H721 H 0.47889 0.61554 0.19361 0.0
H722 H 0.37212 0.58908 0.26796 0.0
H723 H 0.38809 0.55404 0.26607 0.0
H724 H 0.40106 0.57818 0.29475 0.0
H725 H 0.44953 0.60543 0.15052 0.0
H726 H 0.42443 0.57578 0.15497 0.0
H727 H 0.40953 0.61118 0.15729 0.0
H728 H 0.34953 0.51398 0.18434 0.0
H729 H 0.30977 0.59783 0.18665 0.0
H730 H 0.41342 0.52626 0.22695 0.0
H731 H 0.42527 0.53356 0.18894 0.0
H732 H 0.40014 0.50447 0.19631 0.0
H733 H 0.36534 0.62916 0.23134 0.0
H734 H 0.337 0.63743 0.20289 0.0
H735 H 0.37672 0.63549 0.193 0.0
C736 C 0.54872 0.20315 0.29677 0.0
C737 C 0.51726 0.20213 0.29196 0.0
C738 C 0.56063 0.2141 0.32393 0.0
C739 C 0.54061 0.22415 0.34683 0.0
C740 C 0.50889 0.22372 0.34179 0.0
C741 C 0.49765 0.21287 0.31447 0.0
C742 C 0.59462 0.21442 0.32838 0.0
C743 C 0.48673 0.23414 0.36558 0.0
C744 C 0.56856 0.22776 0.42872 0.0
C745 C 0.57455 0.25677 0.43181 0.0
C746 C 0.55758 0.21681 0.40119 0.0
C747 C 0.55264 0.23527 0.37608 0.0
C748 C 0.55838 0.26457 0.37915 0.0
C749 C 0.56909 0.27495 0.40693 0.0
C750 C 0.55146 0.18546 0.39889 0.0
C751 C 0.55354 0.28495 0.35295 0.0
H752 H 0.56405 0.19473 0.27969 0.0
H753 H 0.47329 0.21222 0.3111 0.0
H754 H 0.60205 0.23627 0.33352 0.0
H755 H 0.60105 0.20085 0.34809 0.0
H756 H 0.60713 0.20667 0.30807 0.0
H757 H 0.46272 0.23242 0.35811 0.0
H758 H 0.4898 0.22166 0.38683 0.0
H759 H 0.49119 0.25664 0.3711 0.0
H760 H 0.57288 0.21348 0.44766 0.0
H761 H 0.57378 0.29738 0.40887 0.0
H762 H 0.56568 0.17591 0.38072 0.0
H763 H 0.52737 0.18216 0.39258 0.0
H764 H 0.55624 0.17398 0.42051 0.0
H765 H 0.56757 0.27819 0.33327 0.0
H766 H 0.55949 0.30707 0.35889 0.0
H767 H 0.52946 0.28473 0.34556 0.0
C768 C 0.0642 0.33378 0.56541 0.0
C769 C 0.06892 0.30472 0.56005 0.0
C770 C 0.05479 0.34358 0.59411 0.0
C771 C 0.05027 0.32387 0.61807 0.0
C772 C 0.05472 0.29454 0.61269 0.0
C773 C 0.06375 0.28534 0.58379 0.0
C774 C 0.04988 0.37502 0.59889 0.0
C775 C 0.05035 0.27283 0.63761 0.0
C776 C 0.05062 0.35029 0.69986 0.0
C777 C 0.01944 0.35209 0.70621 0.0
C778 C 0.06107 0.34103 0.67129 0.0
C779 C 0.03983 0.33369 0.64851 0.0
C780 C 0.0084 0.33513 0.65497 0.0
C781 C 0.99864 0.34406 0.6837 0.0
C782 C 0.09481 0.33943 0.66534 0.0
C783 C 0.98497 0.32774 0.63132 0.0
H784 H 0.06835 0.34894 0.54735 0.0
H785 H 0.06749 0.26283 0.5801 0.0
H786 H 0.02628 0.37926 0.60664 0.0
H787 H 0.0653 0.3826 0.61696 0.0
H788 H 0.05399 0.38754 0.57789 0.0
H789 H 0.05552 0.25085 0.62994 0.0
H790 H 0.06525 0.27768 0.65719 0.0
H791 H 0.02657 0.27374 0.64588 0.0
H792 H 0.06684 0.35665 0.71695 0.0
H793 H 0.97447 0.34544 0.68818 0.0
H794 H 0.10072 0.35395 0.64641 0.0
H795 H 0.10145 0.31764 0.65826 0.0
H796 H 0.10837 0.3452 0.68561 0.0
H797 H 0.98787 0.34126 0.61085 0.0
H798 H 0.96135 0.33059 0.63976 0.0
H799 H 0.98817 0.30536 0.62413 0.0
C800 C 0.02098 0.84727 0.81741 0.0
C801 C 1.00131 0.85652 0.79408 0.0
C802 C 0.00984 0.83717 0.84521 0.0
C803 C 0.97813 0.83583 0.84994 0.0
C804 C 0.95804 0.84445 0.82631 0.0
C805 C 0.96985 0.8548 0.79869 0.0
C806 C 0.03212 0.82834 0.86974 0.0
C807 C 0.92407 0.84304 0.83035 0.0
C808 C 0.95211 0.78461 0.91133 0.0
C809 C 0.94551 0.80281 0.93575 0.0
C810 C 0.9622 0.79514 0.88328 0.0
C811 C 0.96626 0.82466 0.87941 0.0
C812 C 0.96016 0.84319 0.90404 0.0
C813 C 0.94973 0.83207 0.93187 0.0
C814 C 0.96825 0.77462 0.85765 0.0
C815 C 0.96454 0.87477 0.90094 0.0
H816 H 0.04534 0.84849 0.81429 0.0
H817 H 0.95444 0.86208 0.781 0.0
H818 H 0.02795 0.84104 0.89053 0.0
H819 H 0.02886 0.80574 0.87589 0.0
H820 H 0.0561 0.83112 0.86266 0.0
H821 H 0.91151 0.85002 0.80966 0.0
H822 H 0.91748 0.821 0.836 0.0
H823 H 0.91686 0.85666 0.84959 0.0
H824 H 0.9488 0.76198 0.91382 0.0
H825 H 0.94448 0.84636 0.95041 0.0
H826 H 0.99241 0.7756 0.85068 0.0
H827 H 0.95429 0.78065 0.83757 0.0
H828 H 0.96311 0.75237 0.86403 0.0
H829 H 0.95885 0.88633 0.92217 0.0
H830 H 0.95006 0.88335 0.88231 0.0
H831 H 0.98847 0.87914 0.89484 0.0
C832 C 0.46882 0.71057 0.2011 0.0
C833 C 0.50008 0.7091 0.20718 0.0
C834 C 0.45793 0.71975 0.17256 0.0
C835 C 0.47882 0.72739 0.14953 0.0
C836 C 0.51032 0.72638 0.15574 0.0
C837 C 0.52052 0.71748 0.18445 0.0
C838 C 0.42412 0.72091 0.16689 0.0
C839 C 0.53338 0.73416 0.13182 0.0
C840 C 0.45368 0.72707 0.06661 0.0
C841 C 0.44859 0.75609 0.061 0.0
C842 C 0.46345 0.71735 0.09535 0.0
C843 C 0.46791 0.7371 0.11908 0.0
C844 C 0.463 0.76638 0.11348 0.0
C845 C 0.45365 0.7755 0.08455 0.0
C846 C 0.46884 0.68597 0.10038 0.0
C847 C 0.46727 0.78811 0.13818 0.0
H848 H 0.45286 0.70393 0.21837 0.0
H849 H 0.54475 0.71639 0.18875 0.0
H850 H 0.41708 0.74261 0.15957 0.0
H851 H 0.41823 0.70626 0.14821 0.0
H852 H 0.41086 0.71502 0.18736 0.0
H853 H 0.55711 0.73183 0.14016 0.0
H854 H 0.53063 0.72047 0.1116 0.0
H855 H 0.52959 0.75643 0.12428 0.0
H856 H 0.44963 0.71189 0.0487 0.0
H857 H 0.44962 0.79798 0.08068 0.0
H858 H 0.4538 0.67818 0.11871 0.0
H859 H 0.49261 0.68201 0.10787 0.0
H860 H 0.46462 0.6734 0.07955 0.0
H861 H 0.45261 0.78304 0.1579 0.0
H862 H 0.46172 0.81003 0.13034 0.0
H863 H 0.49112 0.78748 0.14629 0.0
C864 C 0.14028 0.39872 0.29471 0.0
C865 C 0.15642 0.39175 0.3213 0.0
C866 C 0.15424 0.41299 0.27049 0.0
C867 C 0.18517 0.42049 0.27278 0.0
C868 C 0.20186 0.41282 0.29917 0.0
C869 C 0.18729 0.39859 0.3231 0.0
C870 C 0.13563 0.42072 0.24276 0.0
C871 C 0.23486 0.42043 0.30253 0.0
C872 C 0.22618 0.44228 0.20016 0.0
C873 C 0.22409 0.472 0.2016 0.0
C874 C 0.21405 0.42517 0.22335 0.0
C875 C 0.19937 0.43808 0.2485 0.0
C876 C 0.19753 0.46805 0.2502 0.0
C877 C 0.20992 0.48458 0.22684 0.0
C878 C 0.21664 0.3933 0.22081 0.0
C879 C 0.18205 0.48271 0.27655 0.0
H880 H 0.11659 0.39306 0.29284 0.0
H881 H 0.19991 0.39356 0.34362 0.0
H882 H 0.13387 0.44415 0.24052 0.0
H883 H 0.14696 0.41262 0.22198 0.0
H884 H 0.11232 0.41206 0.2438 0.0
H885 H 0.24524 0.41108 0.32338 0.0
H886 H 0.24801 0.413 0.28253 0.0
H887 H 0.23697 0.44384 0.30352 0.0
H888 H 0.23718 0.43233 0.18085 0.0
H889 H 0.20811 0.5075 0.22826 0.0
H890 H 0.19365 0.38408 0.21951 0.0
H891 H 0.22784 0.38428 0.24135 0.0
H892 H 0.22977 0.38657 0.20048 0.0
H893 H 0.15786 0.47655 0.27757 0.0
H894 H 0.18309 0.50621 0.27481 0.0
H895 H 0.1928 0.47593 0.29825 0.0
C896 C 0.90591 0.96721 0.55686 0.0
C897 C 0.91692 0.93913 0.55565 0.0
C898 C 0.89038 0.97954 0.53209 0.0
C899 C 0.88571 0.96341 0.50547 0.0
C900 C 0.89776 0.93544 0.50371 0.0
C901 C 0.91322 0.92367 0.52877 0.0
C902 C 0.87789 1.00943 0.53487 0.0
C903 C 0.89337 0.91754 0.47573 0.0
C904 C 0.81589 0.97975 0.45754 0.0
C905 C 0.82814 0.99446 0.43272 0.0
C906 C 0.83437 0.96981 0.48137 0.0
C907 C 0.86598 0.97475 0.48057 0.0
C908 C 0.87854 0.98983 0.45577 0.0
C909 C 0.85947 0.99944 0.43206 0.0
C910 C 0.82005 0.95373 0.50731 0.0
C911 C 0.91211 0.99565 0.45422 0.0
H912 H 0.90849 0.97924 0.5776 0.0
H913 H 0.92218 0.90216 0.52743 0.0
H914 H 0.88459 0.02235 0.51491 0.0
H915 H 0.8527 1.00901 0.53527 0.0
H916 H 0.88587 0.02004 0.55582 0.0
H917 H 0.90598 0.89697 0.47712 0.0
H918 H 0.86887 0.91314 0.47272 0.0
H919 H 0.90099 0.92917 0.45521 0.0
H920 H 0.79174 0.97569 0.45829 0.0
H921 H 0.86913 1.01091 0.41308 0.0
H922 H 0.82491 0.9644 0.52915 0.0
H923 H 0.83 0.93199 0.50872 0.0
H924 H 0.79504 0.95206 0.50475 0.0
H925 H 0.91939 1.00711 0.47487 0.0
H926 H 0.91818 1.00845 0.43392 0.0
H927 H 0.92512 0.97531 0.45359 0.0
C928 C 0.29092 0.61817 0.70178 0.0
C929 C 0.29391 0.58852 0.70382 0.0
C930 C 0.30268 0.63582 0.72458 0.0
C931 C 0.3179 0.62354 0.74993 0.0
C932 C 0.3206 0.59364 0.75225 0.0
C933 C 0.30857 0.57657 0.7293 0.0
C934 C 0.29914 0.6676 0.72137 0.0
C935 C 0.33666 0.57959 0.77883 0.0
C936 C 0.37667 0.66386 0.79534 0.0
C937 C 0.36073 0.67035 0.82209 0.0
C938 C 0.36266 0.64963 0.77122 0.0
C939 C 0.33187 0.64167 0.77378 0.0
C940 C 0.31534 0.649 0.80027 0.0
C941 C 0.32994 0.66321 0.82408 0.0
C942 C 0.38112 0.64231 0.74339 0.0
C943 C 0.28251 0.64089 0.80395 0.0
H944 H 0.27952 0.62764 0.6823 0.0
H945 H 0.31106 0.55372 0.73125 0.0
H946 H 0.28805 0.67656 0.74189 0.0
H947 H 0.32184 0.67734 0.7195 0.0
H948 H 0.28549 0.67379 0.7011 0.0
H949 H 0.33624 0.55606 0.77761 0.0
H950 H 0.36068 0.58632 0.77955 0.0
H951 H 0.3259 0.58634 0.80044 0.0
H952 H 0.40027 0.66975 0.7933 0.0
H953 H 0.31746 0.6679 0.8447 0.0
H954 H 0.36926 0.64995 0.7226 0.0
H955 H 0.38364 0.61891 0.74154 0.0
H956 H 0.40413 0.65164 0.74401 0.0
H957 H 0.26911 0.64779 0.7838 0.0
H958 H 0.27206 0.65036 0.82458 0.0
H959 H 0.28088 0.61746 0.80559 0.0
C960 C 0.60606 0.13432 0.02887 0.0
C961 C 0.60173 0.11847 0.05555 0.0
C962 C 0.62156 0.1227 1.00392 0.0
C963 C 0.63297 0.09449 1.00559 0.0
C964 C 0.62758 0.07796 0.03194 0.0
C965 C 0.61205 0.09016 0.05663 0.0
C966 C 0.62676 0.14102 0.97623 0.0
C967 C 0.63934 0.04779 0.03457 0.0
C968 C 0.65972 0.05957 0.93222 0.0
C969 C 0.69114 0.06399 0.93356 0.0
C970 C 0.64044 0.06898 0.9557 0.0
C971 C 0.65289 0.08328 0.98095 0.0
C972 C 0.68457 0.08764 0.98244 0.0
C973 C 0.70326 0.07792 0.95882 0.0
C974 C 0.60678 0.06381 0.95344 0.0
C975 C 0.69876 0.10292 0.00887 0.0
H976 H 0.59761 0.15602 0.02763 0.0
H977 H 0.60897 0.07783 0.07721 0.0
H978 H 0.6514 0.14508 0.97373 0.0
H979 H 0.61929 0.1299 0.95544 0.0
H980 H 0.61451 0.16176 0.9776 0.0
H981 H 0.63069 0.03692 0.0552 0.0
H982 H 0.63276 0.03541 0.0143 0.0
H983 H 0.66452 0.0477 0.03554 0.0
H984 H 0.65016 0.04873 0.91286 0.0
H985 H 0.72748 0.08153 0.9601 0.0
H986 H 0.59418 0.08437 0.95292 0.0
H987 H 0.59893 0.05199 0.97375 0.0
H988 H 0.60079 0.0516 0.93282 0.0
H989 H 0.68923 0.1248 0.01039 0.0
H990 H 0.72385 0.10419 0.00683 0.0
H991 H 0.6933 0.09189 0.03046 0.0
C992 C 0.64071 0.1714 0.70194 0.0
C993 C 0.65763 0.17752 0.67577 0.0
C994 C 0.65394 0.157 0.72672 0.0
C995 C 0.6849 0.14852 0.72542 0.0
C996 C 0.70245 0.1557 0.69964 0.0
C997 C 0.68861 0.17006 0.67512 0.0
C998 C 0.63443 0.1498 0.75379 0.0
C999 C 0.73553 0.14706 0.69736 0.0
C1000 C 0.72323 0.12263 0.79843 0.0
C1001 C 0.72069 0.0931 0.79567 0.0
C1002 C 0.71207 0.14105 0.77559 0.0
C1003 C 0.69793 0.12964 0.74952 0.0
C1004 C 0.69555 0.09987 0.74657 0.0
C1005 C 0.70698 0.08204 0.76956 0.0
C1006 C 0.71519 0.17268 0.77941 0.0
C1007 C 0.68058 0.08679 0.7192 0.0
H1008 H 0.61692 0.17759 0.70289 0.0
H1009 H 0.70182 0.1745 0.65494 0.0
H1010 H 0.63171 0.12646 0.75525 0.0
H1011 H 0.64554 0.15664 0.7751 0.0
H1012 H 0.61151 0.15992 0.75241 0.0
H1013 H 0.7468 0.15685 0.67741 0.0
H1014 H 0.74791 0.15317 0.71822 0.0
H1015 H 0.7375 0.12364 0.69533 0.0
H1016 H 0.73388 0.13138 0.81844 0.0
H1017 H 0.70483 0.05929 0.76711 0.0
H1018 H 0.69236 0.18295 0.78011 0.0
H1019 H 0.72737 0.18177 0.75968 0.0
H1020 H 0.72763 0.17815 0.8005 0.0
H1021 H 0.65661 0.09425 0.71756 0.0
H1022 H 0.68093 0.06323 0.72017 0.0
H1023 H 0.69224 0.09361 0.69813 0.0
C1024 C 0.16454 0.50323 0.06531 0.0
C1025 C 0.19613 0.49946 0.06285 0.0
C1026 C 0.14488 0.49315 0.04264 0.0
C1027 C 0.1571 0.47885 0.01705 0.0
C1028 C 0.18895 0.47539 0.0143 0.0
C1029 C 0.20798 0.48575 0.0371 0.0
C1030 C 0.11105 0.49744 0.04626 0.0
C1031 C 0.203 0.46026 0.98745 0.0
C1032 C 0.11261 0.4251 0.97174 0.0
C1033 C 0.10627 0.44013 0.94481 0.0
C1034 C 0.12782 0.43789 0.99602 0.0
C1035 C 0.13692 0.4665 0.99345 0.0
C1036 C 0.12938 0.4822 0.9669 0.0
C1037 C 0.11419 0.46883 0.9429 0.0
C1038 C 0.13533 0.42037 0.02392 0.0
C1039 C 0.1386 0.51274 0.96325 0.0
H1040 H 0.15515 0.51391 0.08501 0.0
H1041 H 0.23232 0.48268 0.03483 0.0
H1042 H 0.10142 0.50811 0.02583 0.0
H1043 H 0.09995 0.47654 0.04837 0.0
H1044 H 0.10523 0.51032 0.06656 0.0
H1045 H 0.22822 0.45995 0.98833 0.0
H1046 H 0.19509 0.43803 0.98673 0.0
H1047 H 0.1957 0.47072 0.96598 0.0
H1048 H 0.10601 0.4031 0.97371 0.0
H1049 H 0.10957 0.4806 0.92215 0.0
H1050 H 0.1279 0.4317 0.04471 0.0
H1051 H 0.1603 0.41714 0.02556 0.0
H1052 H 0.12448 0.39925 0.02349 0.0
H1053 H 0.1321 0.52517 0.98363 0.0
H1054 H 0.12809 0.52292 0.94292 0.0
H1055 H 0.16366 0.51379 0.961 0.0
C1056 C 0.81566 0.97748 0.26979 0.0
C1057 C 0.79918 0.96664 0.29443 0.0
C1058 C 0.82659 0.95972 0.24667 0.0
C1059 C 0.82084 0.93027 0.24796 0.0
C1060 C 0.80397 0.91913 0.27258 0.0
C1061 C 0.79342 0.93744 0.29561 0.0
C1062 C 0.84459 0.97251 0.22094 0.0
C1063 C 0.79718 0.88789 0.27462 0.0
C1064 C 0.82994 0.89257 0.17223 0.0
C1065 C 0.85988 0.88206 0.17421 0.0
C1066 C 0.81637 0.90715 0.19662 0.0
C1067 C 0.83314 0.91138 0.22365 0.0
C1068 C 0.86291 0.89982 0.22623 0.0
C1069 C 0.87589 0.88532 0.20153 0.0
C1070 C 0.78459 0.91913 0.19293 0.0
C1071 C 0.88155 0.90377 0.25466 0.0
H1072 H 0.82036 0.99996 0.26861 0.0
H1073 H 0.78057 0.92888 0.31444 0.0
H1074 H 0.86768 0.96279 0.22028 0.0
H1075 H 0.8335 0.96794 0.19891 0.0
H1076 H 0.84681 0.99586 0.22313 0.0
H1077 H 0.78295 0.8827 0.29465 0.0
H1078 H 0.78524 0.88099 0.25378 0.0
H1079 H 0.81872 0.87543 0.27609 0.0
H1080 H 0.81745 0.89034 0.15118 0.0
H1081 H 0.89881 0.87678 0.20349 0.0
H1082 H 0.78535 0.94265 0.19205 0.0
H1083 H 0.77036 0.91328 0.2127 0.0
H1084 H 0.77348 0.91154 0.17188 0.0
H1085 H 0.88673 0.92658 0.25745 0.0
H1086 H 0.90331 0.89153 0.25403 0.0
H1087 H 0.86852 0.89707 0.27494 0.0
C1088 C 0.35288 0.56135 0.56625 0.0
C1089 C 0.32113 0.564 0.56445 0.0
C1090 C 0.37156 0.57196 0.54302 0.0
C1091 C 0.35819 0.58565 0.51747 0.0
C1092 C 0.32618 0.58812 0.51543 0.0
C1093 C 0.30809 0.57727 0.53885 0.0
C1094 C 0.4056 0.5688 0.54595 0.0
C1095 C 0.31098 0.60262 0.48864 0.0
C1096 C 0.40208 0.63936 0.4709 0.0
C1097 C 0.4093 0.62385 0.44467 0.0
C1098 C 0.38626 0.62693 0.49512 0.0
C1099 C 0.37748 0.59822 0.49319 0.0
C1100 C 0.38548 0.58217 0.4672 0.0
C1101 C 0.40126 0.59517 0.44325 0.0
C1102 C 0.37825 0.64479 0.52244 0.0
C1103 C 0.37653 0.55151 0.46426 0.0
H1104 H 0.36318 0.55107 0.58586 0.0
H1105 H 0.28362 0.57949 0.53716 0.0
H1106 H 0.41503 0.55774 0.52578 0.0
H1107 H 0.41604 0.59006 0.54676 0.0
H1108 H 0.41241 0.55674 0.56667 0.0
H1109 H 0.28581 0.60223 0.49013 0.0
H1110 H 0.31816 0.62506 0.48726 0.0
H1111 H 0.31809 0.59218 0.46721 0.0
H1112 H 0.4087 0.66136 0.47247 0.0
H1113 H 0.4065 0.58307 0.423 0.0
H1114 H 0.38649 0.63422 0.54352 0.0
H1115 H 0.35321 0.64703 0.52432 0.0
H1116 H 0.38809 0.66633 0.52113 0.0
H1117 H 0.38403 0.53924 0.48456 0.0
H1118 H 0.38639 0.54138 0.4437 0.0
H1119 H 0.35143 0.55011 0.46302 0.0
C1120 C 0.21968 0.2406 0.44525 0.0
C1121 C 0.19175 0.24865 0.43218 0.0
C1122 C 0.24339 0.22937 0.42756 0.0
C1123 C 0.2391 0.22588 0.39595 0.0
C1124 C 0.21121 0.23448 0.38244 0.0
C1125 C 0.18787 0.24587 0.40071 0.0
C1126 C 0.27287 0.22073 0.44283 0.0
C1127 C 0.20576 0.23097 0.34883 0.0
C1128 C 0.31052 0.21502 0.34856 0.0
C1129 C 0.31234 0.1853 0.3466 0.0
C1130 C 0.28645 0.22859 0.36393 0.0
C1131 C 0.26348 0.21209 0.37748 0.0
C1132 C 0.26476 0.18216 0.37496 0.0
C1133 C 0.28921 0.16914 0.35973 0.0
C1134 C 0.28595 0.26055 0.36624 0.0
C1135 C 0.2407 0.16379 0.38906 0.0
H1136 H 0.22304 0.24284 0.46951 0.0
H1137 H 0.16639 0.25204 0.3904 0.0
H1138 H 0.27667 0.19751 0.4405 0.0
H1139 H 0.29221 0.23137 0.43165 0.0
H1140 H 0.27308 0.22608 0.46738 0.0
H1141 H 0.18343 0.23996 0.34157 0.0
H1142 H 0.22392 0.24147 0.33566 0.0
H1143 H 0.20661 0.20809 0.34297 0.0
H1144 H 0.32797 0.22773 0.33807 0.0
H1145 H 0.29056 0.14619 0.35877 0.0
H1146 H 0.28789 0.26687 0.3904 0.0
H1147 H 0.26403 0.26929 0.35764 0.0
H1148 H 0.30474 0.27039 0.3533 0.0
H1149 H 0.24122 0.166 0.41412 0.0
H1150 H 0.24391 0.141 0.38336 0.0
H1151 H 0.21782 0.17083 0.38126 0.0
C1152 C 0.12256 0.08041 0.59505 0.0
C1153 C 0.10186 0.10309 0.5909 0.0
C1154 C 0.11345 0.05448 0.6078 0.0
C1155 C 0.08288 0.05102 0.6169 0.0
C1156 C 0.06163 0.07345 0.61187 0.0
C1157 C 0.07134 0.09915 0.59894 0.0
C1158 C 0.13692 0.03122 0.61281 0.0
C1159 C 0.02883 0.07071 0.62123 0.0
C1160 C 0.05584 0.9766 0.63809 0.0
C1161 C 0.05931 0.9767 0.66978 0.0
C1162 C 0.06317 1.00065 0.62044 0.0
C1163 C 0.07409 0.02538 0.63485 0.0
C1164 C 0.07734 0.0256 0.66681 0.0
C1165 C 0.07002 1.00139 0.68375 0.0
C1166 C 0.05945 0.99957 0.58641 0.0
C1167 C 0.08873 0.05145 0.68323 0.0
H1168 H 0.14626 0.08321 0.58932 0.0
H1169 H 0.05502 0.11629 0.59537 0.0
H1170 H 0.141 0.02837 0.63751 0.0
H1171 H 0.12858 1.01077 0.60394 0.0
H1172 H 0.15889 0.03603 0.60168 0.0
H1173 H 0.01456 0.08888 0.61316 0.0
H1174 H 0.01931 0.05078 0.61223 0.0
H1175 H 0.02733 0.06963 0.64636 0.0
H1176 H 0.04748 0.95775 0.62705 0.0
H1177 H 0.07272 1.00195 0.70821 0.0
H1178 H 0.08178 1.00257 0.57528 0.0
H1179 H 0.04425 0.01713 0.57862 0.0
H1180 H 0.04994 0.97912 0.57871 0.0
H1181 H 0.11193 0.05654 0.67529 0.0
H1182 H 0.08942 0.04839 0.70826 0.0
H1183 H 0.0739 0.07009 0.67804 0.0
C1184 C 0.20619 0.84526 0.85167 0.0
C1185 C 0.20798 0.87355 0.84185 0.0
C1186 C 0.2306 0.83196 0.86691 0.0
C1187 C 0.25737 0.84737 0.8725 0.0
C1188 C 0.25975 0.87554 0.86158 0.0
C1189 C 0.23504 0.88828 0.84636 0.0
C1190 C 0.22721 0.80187 0.87821 0.0
C1191 C 0.28794 0.89265 0.86702 0.0
C1192 C 0.30363 0.82866 0.94256 0.0
C1193 C 0.32846 0.81367 0.93026 0.0
C1194 C 0.2803 0.83944 0.92399 0.0
C1195 C 0.28168 0.83508 0.89225 0.0
C1196 C 0.30645 0.81969 0.87963 0.0
C1197 C 0.32964 0.8092 0.8988 0.0
C1198 C 0.2543 0.85581 0.93836 0.0
C1199 C 0.30856 0.8145 0.84589 0.0
H1200 H 0.18528 0.8338 0.84846 0.0
H1201 H 0.23677 0.90997 0.83831 0.0
H1202 H 0.24715 0.78869 0.87147 0.0
H1203 H 0.22625 0.80174 0.90339 0.0
H1204 H 0.20631 0.79189 0.86937 0.0
H1205 H 0.28711 0.91345 0.85503 0.0
H1206 H 0.29058 0.89657 0.8917 0.0
H1207 H 0.30841 0.88066 0.8594 0.0
H1208 H 0.30248 0.8323 0.96682 0.0
H1209 H 0.34866 0.79752 0.88912 0.0
H1210 H 0.23241 0.84575 0.93269 0.0
H1211 H 0.2534 0.87777 0.92916 0.0
H1212 H 0.25638 0.85691 0.96348 0.0
H1213 H 0.28784 0.80374 0.83781 0.0
H1214 H 0.32873 0.80129 0.83977 0.0
H1215 H 0.30982 0.83506 0.8336 0.0
C1216 C 0.43913 0.06092 0.18067 0.0
C1217 C 0.45706 0.0826 0.16853 0.0
C1218 C 0.432 0.0368 0.16371 0.0
C1219 C 0.44311 0.03401 0.1337 0.0
C1220 C 0.461 0.05589 0.12107 0.0
C1221 C 0.46767 0.08001 0.1386 0.0
C1222 C 0.41271 0.01415 0.17809 0.0
C1223 C 0.47334 0.05367 0.0892 0.0
C1224 C 0.44449 0.95766 0.10565 0.0
C1225 C 0.41663 0.95618 0.09028 0.0
C1226 C 0.45422 0.98326 0.11853 0.0
C1227 C 0.4357 1.00804 0.11593 0.0
C1228 C 0.4083 1.00697 0.09915 0.0
C1229 C 0.3991 0.98111 0.08659 0.0
C1230 C 0.48356 0.98341 0.13626 0.0
C1231 C 0.38794 0.03285 0.09565 0.0
H1232 H 0.43061 0.06269 0.20368 0.0
H1233 H 0.48165 0.09654 0.12905 0.0
H1234 H 0.39198 1.0109 0.16428 0.0
H1235 H 0.42547 0.99367 0.17875 0.0
H1236 H 0.40569 0.01963 0.2016 0.0
H1237 H 0.48688 0.07244 0.08268 0.0
H1238 H 0.48791 0.03436 0.08716 0.0
H1239 H 0.45438 0.0515 0.07282 0.0
H1240 H 0.45812 0.93852 0.10876 0.0
H1241 H 0.37783 0.98031 0.07423 0.0
H1242 H 0.47852 0.98613 0.16077 0.0
H1243 H 0.49771 1.00153 0.1291 0.0
H1244 H 0.49694 0.96342 0.13337 0.0
H1245 H 0.37801 0.03851 0.11801 0.0
H1246 H 0.36909 0.02933 0.07937 0.0
H1247 H 0.40123 0.05128 0.08775 0.0
C1248 C 0.7929 0.385 0.6412 0.0
C1249 C 0.81737 0.36774 0.65088 0.0
C1250 C 0.76853 0.37374 0.62482 0.0
C1251 C 0.76858 0.34448 0.61765 0.0
C1252 C 0.79295 0.32682 0.62767 0.0
C1253 C 0.817 0.33863 0.64418 0.0
C1254 C 0.74304 0.39335 0.61454 0.0
C1255 C 0.7939 0.29553 0.62047 0.0
C1256 C 0.69366 0.31238 0.59244 0.0
C1257 C 0.69643 0.31326 0.56069 0.0
C1258 C 0.71712 0.32204 0.61133 0.0
C1259 C 0.74399 0.33281 0.59819 0.0
C1260 C 0.74706 0.33334 0.5662 0.0
C1261 C 0.72331 0.32361 0.5479 0.0
C1262 C 0.71298 0.32113 0.64534 0.0
C1263 C 0.77534 0.34455 0.55121 0.0
H1264 H 0.7931 0.40757 0.64578 0.0
H1265 H 0.83553 0.32502 0.6519 0.0
H1266 H 0.74249 0.39436 0.58936 0.0
H1267 H 0.72086 0.38503 0.62215 0.0
H1268 H 0.7455 0.41523 0.6234 0.0
H1269 H 0.81374 0.28445 0.63101 0.0
H1270 H 0.77283 0.28533 0.62853 0.0
H1271 H 0.79501 0.29254 0.59551 0.0
H1272 H 0.67306 0.30434 0.60257 0.0
H1273 H 0.72582 0.32435 0.52342 0.0
H1274 H 0.71329 0.343 0.65455 0.0
H1275 H 0.73206 0.30914 0.65609 0.0
H1276 H 0.6913 0.31111 0.65205 0.0
H1277 H 0.7782 0.36722 0.55711 0.0
H1278 H 0.77459 0.3427 0.52608 0.0
H1279 H 0.79568 0.33282 0.55972 0.0
C1280 C 0.96775 0.47533 0.85726 0.0
C1281 C 0.95443 0.46936 0.82909 0.0
C1282 C 0.96 0.50029 0.87311 0.0
C1283 C 0.93811 0.51944 0.86069 0.0
C1284 C 0.92393 0.51299 0.83276 0.0
C1285 C 0.9324 0.48818 0.81725 0.0
C1286 C 0.97583 0.50655 0.90268 0.0
C1287 C 0.90018 0.53258 0.81889 0.0
C1288 C 0.89729 0.57453 0.90935 0.0
C1289 C 0.91192 0.59957 0.90075 0.0
C1290 C 0.90619 0.54815 0.89725 0.0
C1291 C 0.93046 0.5467 0.87621 0.0
C1292 C 0.94596 0.57178 0.86822 0.0
C1293 C 0.93641 0.59792 0.88045 0.0
C1294 C 0.88885 0.52198 0.9061 0.0
C1295 C 0.97215 0.57113 0.84611 0.0
H1296 H 0.98493 0.46097 0.86645 0.0
H1297 H 0.92183 0.48362 0.7956 0.0
H1298 H 0.98884 0.52643 0.90042 0.0
H1299 H 0.95887 0.50995 0.92097 0.0
H1300 H 0.9917 0.48916 0.9097 0.0
H1301 H 0.89029 0.52382 0.79776 0.0
H1302 H 0.88155 0.53656 0.83535 0.0
H1303 H 0.91039 0.55338 0.81346 0.0
H1304 H 0.87818 0.5757 0.92481 0.0
H1305 H 0.94806 0.61714 0.87404 0.0
H1306 H 0.90473 0.505 0.91404 0.0
H1307 H 0.87673 0.51372 0.88597 0.0
H1308 H 0.87196 0.52633 0.92429 0.0
H1309 H 0.9894 0.55506 0.85334 0.0
H1310 H 0.98328 0.59206 0.84406 0.0
H1311 H 0.96391 0.56485 0.82333 0.0
C1312 C 0.82477 0.75261 0.09678 0.0
C1313 C 0.82308 0.74761 0.06542 0.0
C1314 C 0.80167 0.74347 0.11653 0.0
C1315 C 0.7764 0.72885 0.10466 0.0
C1316 C 0.77449 0.72405 0.07301 0.0
C1317 C 0.79772 0.7335 0.05387 0.0
C1318 C 0.80442 0.74917 0.1501 0.0
C1319 C 0.74805 0.70851 0.05933 0.0
C1320 C 0.73005 0.67765 0.15203 0.0
C1321 C 0.70301 0.6932 0.15671 0.0
C1322 C 0.75463 0.68947 0.13636 0.0
C1323 C 0.75227 0.71761 0.12508 0.0
C1324 C 0.72558 0.73387 0.13088 0.0
C1325 C 0.70128 0.72149 0.1466 0.0
C1326 C 0.78266 0.67138 0.13079 0.0
C1327 C 0.72214 0.76395 0.1193 0.0
H1328 H 0.84414 0.76363 0.10593 0.0
H1329 H 0.79607 0.72947 0.02972 0.0
H1330 H 0.78381 0.76053 0.15838 0.0
H1331 H 0.80609 0.72878 0.16273 0.0
H1332 H 0.82464 0.76201 0.15557 0.0
H1333 H 0.74961 0.70705 0.03421 0.0
H1334 H 0.74712 0.6867 0.06885 0.0
H1335 H 0.72638 0.71945 0.06526 0.0
H1336 H 0.73187 0.65599 0.16031 0.0
H1337 H 0.68047 0.73364 0.14993 0.0
H1338 H 0.80329 0.68281 0.13793 0.0
H1339 H 0.78488 0.66706 0.10613 0.0
H1340 H 0.78195 0.65077 0.14311 0.0
H1341 H 0.74233 0.77651 0.12545 0.0
H1342 H 0.70152 0.77474 0.12845 0.0
H1343 H 0.72059 0.76386 0.09414 0.0
C1344 C 0.62626 0.48206 0.40311 0.0
C1345 C 0.60824 0.45788 0.40031 0.0
C1346 C 0.61663 0.50849 0.39134 0.0
C1347 C 0.58828 0.5109 0.37627 0.0
C1348 C 0.56948 0.48683 0.37434 0.0
C1349 C 0.57964 0.46065 0.38642 0.0
C1350 C 0.63732 0.53361 0.39409 0.0
C1351 C 0.53915 0.48841 0.35836 0.0
C1352 C 0.55473 0.58454 0.35878 0.0
C1353 C 0.56336 0.58832 0.32835 0.0
C1354 C 0.56264 0.55949 0.37477 0.0
C1355 C 0.57967 0.53779 0.36005 0.0
C1356 C 0.58869 0.5417 0.32949 0.0
C1357 C 0.58044 0.56679 0.31409 0.0
C1358 C 0.55255 0.55611 0.40732 0.0
C1359 C 0.60696 0.51924 0.31289 0.0
H1360 H 0.64815 0.48026 0.41431 0.0
H1361 H 0.56564 0.44208 0.38398 0.0
H1362 H 0.64543 0.53993 0.37122 0.0
H1363 H 0.62476 0.55206 0.40369 0.0
H1364 H 0.6574 0.52888 0.40865 0.0
H1365 H 0.52608 0.46859 0.36114 0.0
H1366 H 0.52533 0.50645 0.36717 0.0
H1367 H 0.54272 0.49226 0.33375 0.0
H1368 H 0.54141 0.60094 0.36998 0.0
H1369 H 0.58739 0.56945 0.29065 0.0
H1370 H 0.57259 0.5526 0.42222 0.0
H1371 H 0.53806 0.53716 0.40955 0.0
H1372 H 0.53959 0.57495 0.41558 0.0
H1373 H 0.62861 0.51488 0.32507 0.0
H1374 H 0.61228 0.52558 0.28917 0.0
H1375 H 0.59424 0.49911 0.31236 0.0
C1376 C 0.36632 0.34559 0.17961 0.0
C1377 C 0.35667 0.34919 0.14943 0.0
C1378 C 0.37812 0.31939 0.18999 0.0
C1379 C 0.38032 0.29617 0.16974 0.0
C1380 C 0.36938 0.29933 0.13964 0.0
C1381 C 0.35774 0.32575 0.12987 0.0
C1382 C 0.3896 0.31697 0.22223 0.0
C1383 C 0.37115 0.27511 0.11735 0.0
C1384 C 0.44459 0.24282 0.18251 0.0
C1385 C 0.4297 0.21982 0.196 0.0
C1386 C 0.42873 0.26762 0.17398 0.0
C1387 C 0.39704 0.26969 0.17894 0.0
C1388 C 0.38171 0.24655 0.19237 0.0
C1389 C 0.39822 0.22185 0.20075 0.0
C1390 C 0.44603 0.29172 0.1597 0.0
C1391 C 0.34792 0.24797 0.19799 0.0
H1392 H 0.36575 0.36359 0.19484 0.0
H1393 H 0.34978 0.32818 0.10668 0.0
H1394 H 0.38029 0.29785 0.23345 0.0
H1395 H 0.4147 0.31451 0.22211 0.0
H1396 H 0.38345 0.33591 0.23597 0.0
H1397 H 0.35909 0.28014 0.09577 0.0
H1398 H 0.39529 0.27019 0.11205 0.0
H1399 H 0.36127 0.2557 0.12741 0.0
H1400 H 0.46887 0.24159 0.17861 0.0
H1401 H 0.38651 0.20427 0.21121 0.0
H1402 H 0.44325 0.31117 0.17358 0.0
H1403 H 0.43676 0.29657 0.13679 0.0
H1404 H 0.47068 0.28678 0.1575 0.0
H1405 H 0.34236 0.26603 0.21317 0.0
H1406 H 0.33933 0.22816 0.20848 0.0
H1407 H 0.3357 0.25182 0.17629 0.0
C1408 C 0.9024 0.33103 0.79582 0.0
C1409 C 0.93295 0.33336 0.80445 0.0
C1410 C 0.88559 0.30684 0.8036 0.0
C1411 C 0.89963 0.28456 0.8205 0.0
C1412 C 0.93028 0.28703 0.82963 0.0
C1413 C 0.94651 0.31129 0.8215 0.0
C1414 C 0.85295 0.30496 0.79343 0.0
C1415 C 0.94613 0.26388 0.84779 0.0
C1416 C 0.85398 0.231 0.86568 0.0
C1417 C 0.85596 0.20682 0.84722 0.0
C1418 C 0.86707 0.25674 0.85674 0.0
C1419 C 0.88261 0.25843 0.82866 0.0
C1420 C 0.88397 0.23435 0.80954 0.0
C1421 C 0.87068 0.20886 0.81905 0.0
C1422 C 0.86522 0.28184 0.87788 0.0
C1423 C 0.90023 0.23527 0.77938 0.0
H1424 H 0.89174 0.34787 0.78256 0.0
H1425 H 0.97003 0.31284 0.82846 0.0
H1426 H 0.85019 0.28625 0.77854 0.0
H1427 H 0.83797 0.30193 0.81339 0.0
H1428 H 0.8452 0.32425 0.78085 0.0
H1429 H 0.96993 0.26925 0.8535 0.0
H1430 H 0.93362 0.25994 0.86922 0.0
H1431 H 0.94633 0.24378 0.83477 0.0
H1432 H 0.84299 0.22959 0.88763 0.0
H1433 H 0.87191 0.19044 0.80443 0.0
H1434 H 0.8565 0.30088 0.86558 0.0
H1435 H 0.88827 0.28683 0.88632 0.0
H1436 H 0.85031 0.27781 0.89773 0.0
H1437 H 0.89164 0.25342 0.76554 0.0
H1438 H 0.89741 0.21542 0.76622 0.0
H1439 H 0.92484 0.23853 0.78318 0.0
C1440 C 0.08702 0.6454 0.06946 0.0
C1441 C 0.0864 0.63745 0.10023 0.0
C1442 C 0.06223 0.65973 0.05585 0.0
C1443 C 0.03613 0.66635 0.0734 0.0
C1444 C 0.035 0.65764 0.1042 0.0
C1445 C 0.06007 0.64331 0.1172 0.0
C1446 C 0.06438 0.66863 0.02295 0.0
C1447 C 0.00762 0.6642 0.12372 0.0
C1448 C 0.98814 0.73093 0.05118 0.0
C1449 C 0.96288 0.71868 0.03719 0.0
C1450 C 0.0121 0.71414 0.06277 0.0
C1451 C 0.01101 0.68423 0.0603 0.0
C1452 C 0.98575 0.67166 0.04595 0.0
C1453 C 0.96194 0.68902 0.03463 0.0
C1454 C 0.03851 0.72846 0.07798 0.0
C1455 C 0.98382 0.63987 0.04273 0.0
H1456 H 0.10731 0.64121 0.0562 0.0
H1457 H 0.0591 0.63679 0.14081 0.0
H1458 H 0.04414 0.66151 0.01022 0.0
H1459 H 0.06478 0.69212 0.02135 0.0
H1460 H 0.08509 0.6599 0.01178 0.0
H1461 H 0.00953 0.65452 0.14671 0.0
H1462 H 1.00489 0.68752 0.12623 0.0
H1463 H 0.98672 0.65638 0.11269 0.0
H1464 H 0.98917 0.75379 0.05338 0.0
H1465 H 0.94261 0.67932 0.02379 0.0
H1466 H 0.06004 0.72245 0.06646 0.0
H1467 H 0.0404 0.72123 0.10193 0.0
H1468 H 0.03614 0.75197 0.07768 0.0
H1469 H 1.00408 0.63153 0.03052 0.0
H1470 H 0.96312 0.63342 0.03025 0.0
H1471 H 0.98371 0.62972 0.06552 0.0
C1472 C 0.65033 0.85118 0.31756 0.0
C1473 C 0.66577 0.85273 0.34539 0.0
C1474 C 0.63741 0.82564 0.30779 0.0
C1475 C 0.64005 0.80095 0.32621 0.0
C1476 C 0.65677 0.8021 0.35366 0.0
C1477 C 0.66934 0.82791 0.36291 0.0
C1478 C 0.61972 0.82542 0.27842 0.0
C1479 C 0.66034 0.77632 0.37391 0.0
C1480 C 0.57615 0.74775 0.32178 0.0
C1481 C 0.58878 0.72611 0.3037 0.0
C1482 C 0.59267 0.77196 0.32928 0.0
C1483 C 0.62272 0.77489 0.31844 0.0
C1484 C 0.63582 0.75305 0.3004 0.0
C1485 C 0.61874 0.72886 0.29333 0.0
C1486 C 0.57778 0.79457 0.34869 0.0
C1487 C 0.66775 0.75539 0.28833 0.0
H1488 H 0.64728 0.87023 0.30394 0.0
H1489 H 0.68172 0.82875 0.38417 0.0
H1490 H 0.62725 0.80737 0.26406 0.0
H1491 H 0.59526 0.82251 0.28338 0.0
H1492 H 0.62226 0.84543 0.26528 0.0
H1493 H 0.6763 0.77995 0.39301 0.0
H1494 H 0.63792 0.77063 0.38349 0.0
H1495 H 0.66868 0.75786 0.3606 0.0
H1496 H 0.5531 0.74588 0.33009 0.0
H1497 H 0.62867 0.71238 0.27923 0.0
H1498 H 0.5769 0.81504 0.33613 0.0
H1499 H 0.59139 0.79791 0.36955 0.0
H1500 H 0.55431 0.78901 0.35546 0.0
H1501 H 0.66959 0.77468 0.27395 0.0
H1502 H 0.67468 0.73662 0.27467 0.0
H1503 H 0.68395 0.75767 0.30744 0.0
C1504 C 0.55866 0.37108 0.52841 0.0
C1505 C 0.55635 0.34145 0.53039 0.0
C1506 C 0.53557 0.38905 0.53996 0.0
C1507 C 0.50968 0.37709 0.55391 0.0
C1508 C 0.50708 0.34723 0.5555 0.0
C1509 C 0.53031 0.32987 0.54372 0.0
C1510 C 0.53907 0.42079 0.53768 0.0
C1511 C 0.47992 0.33353 0.57015 0.0
C1512 C 0.46236 0.41642 0.61285 0.0
C1513 C 0.43608 0.42377 0.59633 0.0
C1514 C 0.48708 0.40246 0.59896 0.0
C1515 C 0.48553 0.39545 0.56776 0.0
C1516 C 0.45952 0.40359 0.5507 0.0
C1517 C 0.43517 0.41767 0.56515 0.0
C1518 C 0.51434 0.39414 0.61802 0.0
C1519 C 0.45695 0.39654 0.51739 0.0
H1520 H 0.57858 0.38025 0.51805 0.0
H1521 H 0.52814 0.30703 0.5454 0.0
H1522 H 0.5189 0.43053 0.5264 0.0
H1523 H 0.54046 0.42997 0.56078 0.0
H1524 H 0.55971 0.42675 0.52479 0.0
H1525 H 0.481 0.31 0.56892 0.0
H1526 H 0.47846 0.33976 0.59438 0.0
H1527 H 0.4587 0.34105 0.55892 0.0
H1528 H 0.46326 0.42071 0.63699 0.0
H1529 H 0.41525 0.42371 0.55202 0.0
H1530 H 0.53555 0.40115 0.60688 0.0
H1531 H 0.51574 0.37068 0.62017 0.0
H1532 H 0.51326 0.40337 0.64117 0.0
H1533 H 0.4774 0.40366 0.50499 0.0
H1534 H 0.43652 0.4065 0.50672 0.0
H1535 H 0.45566 0.3732 0.51462 0.0
C1536 C 0.16396 0.73231 0.63492 0.0
C1537 C 0.16302 0.7083 0.6539 0.0
C1538 C 0.1522 0.75871 0.64442 0.0
C1539 C 0.13906 0.76129 0.67364 0.0
C1540 C 0.13921 0.73745 0.69341 0.0
C1541 C 0.15122 0.71129 0.68334 0.0
C1542 C 0.15271 0.78356 0.62266 0.0
C1543 C 0.12536 0.73921 0.7247 0.0
C1544 C 0.12046 0.83521 0.70487 0.0
C1545 C 0.08946 0.83803 0.69781 0.0
C1546 C 0.13702 0.81037 0.69726 0.0
C1547 C 0.12225 0.78791 0.68215 0.0
C1548 C 0.09106 0.79082 0.6748 0.0
C1549 C 0.07514 0.81571 0.68269 0.0
C1550 C 0.17022 0.80808 0.70552 0.0
C1551 C 0.07436 0.76752 0.65864 0.0
H1552 H 0.17357 0.73037 0.61236 0.0
H1553 H 0.15025 0.69287 0.69812 0.0
H1554 H 0.12916 0.78916 0.61561 0.0
H1555 H 0.16223 0.80246 0.63394 0.0
H1556 H 0.16628 0.77888 0.60197 0.0
H1557 H 0.13004 0.71977 0.73841 0.0
H1558 H 0.1342 0.75781 0.73707 0.0
H1559 H 0.10039 0.74219 0.72269 0.0
H1560 H 0.13172 0.85223 0.71667 0.0
H1561 H 0.05125 0.81759 0.67698 0.0
H1562 H 0.18403 0.80476 0.68474 0.0
H1563 H 0.17422 0.78938 0.72049 0.0
H1564 H 0.17837 0.82732 0.71732 0.0
H1565 H 0.08526 0.76309 0.63642 0.0
H1566 H 0.05007 0.77306 0.65462 0.0
H1567 H 0.07561 0.74764 0.67223 0.0
C1568 C 0.46217 0.86697 0.95691 0.0
C1569 C 0.4666 0.83745 0.95877 0.0
C1570 C 0.4849 0.88456 0.94514 0.0
C1571 C 0.51273 0.87235 0.93515 0.0
C1572 C 0.51755 0.84267 0.93762 0.0
C1573 C 0.49446 0.82563 0.94931 0.0
C1574 C 0.47893 0.91613 0.94281 0.0
C1575 C 0.54697 0.82881 0.92746 0.0
C1576 C 0.5613 0.90902 0.87596 0.0
C1577 C 0.58468 0.92022 0.89374 0.0
C1578 C 0.53722 0.89426 0.88927 0.0
C1579 C 0.53658 0.89029 0.92115 0.0
C1580 C 0.55977 0.90193 0.93932 0.0
C1581 C 0.58346 0.91683 0.92543 0.0
C1582 C 0.51289 0.88222 0.86908 0.0
C1583 C 0.55996 0.89806 0.97338 0.0
H1584 H 0.44078 0.87633 0.96422 0.0
H1585 H 0.49827 0.80288 0.95081 0.0
H1586 H 0.4971 0.92784 0.9546 0.0
H1587 H 0.47928 0.9228 0.91861 0.0
H1588 H 0.45666 0.92245 0.95274 0.0
H1589 H 0.54756 0.80559 0.93194 0.0
H1590 H 0.55022 0.83238 0.90276 0.0
H1591 H 0.56644 0.83854 0.93931 0.0
H1592 H 0.56218 0.91113 0.85146 0.0
H1593 H 0.60109 0.92582 0.93944 0.0
H1594 H 0.49009 0.88917 0.87707 0.0
H1595 H 0.51374 0.8587 0.87027 0.0
H1596 H 0.51554 0.88882 0.84498 0.0
H1597 H 0.5381 0.90563 0.98315 0.0
H1598 H 0.57877 0.9096 0.98442 0.0
H1599 H 0.56236 0.87517 0.97907 0.0
C1600 C 0.96177 0.14483 0.37714 0.0
C1601 C 0.9357 0.1381 0.39386 0.0
C1602 C 0.98572 0.15982 0.39035 0.0
C1603 C 0.98368 0.16829 0.4211 0.0
C1604 C 0.95788 0.16079 0.4384 0.0
C1605 C 0.93421 0.14583 0.42459 0.0
C1606 C 0.01283 0.16732 0.37109 0.0
C1607 C 0.95479 0.16941 0.47125 0.0
C1608 C 0.05584 0.19299 0.46046 0.0
C1609 C 0.05295 0.2226 0.45768 0.0
C1610 C 0.03333 0.17498 0.44904 0.0
C1611 C 0.0074 0.18685 0.43437 0.0
C1612 C 1.00429 0.2167 0.43173 0.0
C1613 C 0.02699 0.23414 0.44342 0.0
C1614 C 0.03739 0.14326 0.45246 0.0
C1615 C 0.97707 0.23027 0.41622 0.0
H1616 H 0.96342 0.1385 0.35356 0.0
H1617 H 0.91408 0.14097 0.43765 0.0
H1618 H 0.01399 0.19072 0.3685 0.0
H1619 H 0.03412 0.16009 0.38238 0.0
H1620 H 0.01182 0.15772 0.34813 0.0
H1621 H 0.9346 0.15996 0.48225 0.0
H1622 H 0.97537 0.16287 0.48421 0.0
H1623 H 0.95274 0.19286 0.47275 0.0
H1624 H 0.07572 0.18384 0.47152 0.0
H1625 H 0.02442 0.25696 0.44109 0.0
H1626 H 0.03847 0.13326 0.42972 0.0
H1627 H 0.01757 0.13425 0.46446 0.0
H1628 H 0.05835 0.1374 0.46522 0.0
H1629 H 0.97591 0.22315 0.39227 0.0
H1630 H 0.97781 0.25383 0.41645 0.0
H1631 H 0.95586 0.22352 0.42755 0.0
loop_
_geom_bond_atom_site_label_1
_geom_bond_atom_site_label_2
_geom_bond_distance
_geom_bond_site_symmetry_2
_ccdc_geom_bond_type
Tb0 C10 2.825 . S
Tb0 O11 2.347 . S
Tb0 O14 2.366 . S
Tb0 O19 2.418 . S
Tb0 O20 2.384 . S
Tb0 O23 2.479 . S
Tb0 O24 2.471 . S
Eu1 O12 2.418 . S
Eu1 O13 2.384 . S
Eu1 O16 2.479 . S
Eu1 O17 2.471 . S
Eu1 O18 2.347 . S
Eu1 O21 2.366 . S
Eu1 C31 2.825 . S
C2 O18 1.259 . S
C2 O19 1.265 . S
C3 O20 1.255 . S
C3 O21 1.265 . S
C4 C6 1.380 . S
C4 C7 1.374 . S
C4 C10 1.507 . S
C5 C6 1.384 . S
C5 C9 1.387 . S
C5 H32 0.930 . S
C6 C4 1.380 . S
C6 C5 1.384 . S
C6 H33 0.931 . S
C7 C4 1.374 . S
C7 C8 1.390 . S
C7 H34 0.930 . S
C8 C7 1.390 . S
C8 C9 1.391 . S
C8 H35 0.930 . S
C9 C5 1.387 . S
C9 C8 1.391 . S
C10 Tb0 2.825 . S
C10 C4 1.507 . S
C10 O23 1.238 . S
C10 O24 1.247 . S
O11 Tb0 2.347 . S
O11 C15 1.259 . S
O12 Eu1 2.418 . S
O12 C15 1.265 . S
O13 Eu1 2.384 . S
O13 C22 1.255 . S
O14 Tb0 2.366 . S
O14 C22 1.265 . S
C15 O11 1.259 . S
C15 O12 1.265 . S
O16 Eu1 2.479 . S
O16 C31 1.238 . S
O17 Eu1 2.471 . S
O17 C31 1.247 . S
O18 Eu1 2.347 . S
O18 C2 1.259 . S
O19 Tb0 2.418 . S
O19 C2 1.265 . S
O20 Tb0 2.384 . S
O20 C3 1.255 . S
O21 Eu1 2.366 . S
O21 C3 1.265 . S
C22 O13 1.255 . S
C22 O14 1.265 . S
O23 Tb0 2.479 . S
O23 C10 1.238 . S
O24 Tb0 2.471 . S
O24 C10 1.247 . S
C25 C28 1.380 . S
C25 C29 1.374 . S
C25 C31 1.507 . S
C26 C27 1.387 . S
C26 C30 1.391 . S
C27 C26 1.387 . S
C27 C28 1.384 . S
C27 H36 0.930 . S
C28 C25 1.380 . S
C28 C27 1.384 . S
C28 H37 0.931 . S
C29 C25 1.374 . S
C29 C30 1.390 . S
C29 H38 0.930 . S
C30 C26 1.391 . S
C30 C29 1.390 . S
C30 H39 0.930 . S
C31 Eu1 2.825 . S
C31 O16 1.238 . S
C31 O17 1.247 . S
C31 C25 1.507 . S
H32 C5 0.930 . S
H33 C6 0.931 . S
H34 C7 0.930 . S
H35 C8 0.930 . S
H36 C27 0.930 . S
H37 C28 0.931 . S
H38 C29 0.930 . S
H39 C30 0.930 . S
Tb40 C50 2.825 . S
Tb40 O51 2.347 . S
Tb40 O54 2.366 1_655 S
Tb40 O59 2.418 1_655 S
Tb40 O60 2.384 . S
Tb40 O63 2.479 . S
Tb40 O64 2.471 . S
Eu41 O52 2.418 . S
Eu41 O53 2.384 . S
Eu41 O56 2.479 . S
Eu41 O57 2.471 . S
Eu41 O58 2.347 . S
Eu41 O61 2.366 . S
Eu41 C71 2.825 . S
C42 O58 1.259 . S
C42 O59 1.265 . S
C43 O60 1.255 1_455 S
C43 O61 1.265 . S
C44 C46 1.380 . S
C44 C47 1.374 . S
C44 C50 1.507 . S
C45 C46 1.384 . S
C45 C49 1.387 . S
C45 H72 0.930 . S
C46 C44 1.380 . S
C46 C45 1.384 . S
C46 H73 0.931 . S
C47 C44 1.374 . S
C47 C48 1.390 . S
C47 H74 0.930 . S
C48 C47 1.390 . S
C48 C49 1.391 . S
C48 H75 0.930 . S
C49 C45 1.387 . S
C49 C48 1.391 . S
C50 Tb40 2.825 . S
C50 C44 1.507 . S
C50 O63 1.238 . S
C50 O64 1.247 . S
O51 Tb40 2.347 . S
O51 C55 1.259 . S
O52 Eu41 2.418 . S
O52 C55 1.265 1_455 S
O53 Eu41 2.384 . S
O53 C62 1.255 . S
O54 Tb40 2.366 1_455 S
O54 C62 1.265 . S
C55 O51 1.259 . S
C55 O52 1.265 1_655 S
O56 Eu41 2.479 . S
O56 C71 1.238 . S
O57 Eu41 2.471 . S
O57 C71 1.247 . S
O58 Eu41 2.347 . S
O58 C42 1.259 . S
O59 Tb40 2.418 1_455 S
O59 C42 1.265 . S
O60 Tb40 2.384 . S
O60 C43 1.255 1_655 S
O61 Eu41 2.366 . S
O61 C43 1.265 . S
C62 O53 1.255 . S
C62 O54 1.265 . S
O63 Tb40 2.479 . S
O63 C50 1.238 . S
O64 Tb40 2.471 . S
O64 C50 1.247 . S
C65 C68 1.380 . S
C65 C69 1.374 . S
C65 C71 1.507 . S
C66 C67 1.387 . S
C66 C70 1.391 . S
C67 C66 1.387 . S
C67 C68 1.384 . S
C67 H76 0.930 . S
C68 C65 1.380 . S
C68 C67 1.384 . S
C68 H77 0.931 . S
C69 C65 1.374 . S
C69 C70 1.390 . S
C69 H78 0.930 . S
C70 C66 1.391 . S
C70 C69 1.390 . S
C70 H79 0.930 . S
C71 Eu41 2.825 . S
C71 O56 1.238 . S
C71 O57 1.247 . S
C71 C65 1.507 . S
H72 C45 0.930 . S
H73 C46 0.931 . S
H74 C47 0.930 . S
H75 C48 0.930 . S
H76 C67 0.930 . S
H77 C68 0.931 . S
H78 C69 0.930 . S
H79 C70 0.930 . S
Tb80 C90 2.825 . S
Tb80 O91 2.347 . S
Tb80 O94 2.366 1_554 S
Tb80 O99 2.418 1_554 S
Tb80 O100 2.384 . S
Tb80 O103 2.479 . S
Tb80 O104 2.471 . S
Eu81 O92 2.418 1_556 S
Eu81 O93 2.384 . S
Eu81 O96 2.479 . S
Eu81 O97 2.471 . S
Eu81 O98 2.347 . S
Eu81 O101 2.366 . S
Eu81 C111 2.825 . S
C82 O98 1.259 . S
C82 O99 1.265 . S
C83 O100 1.255 . S
C83 O101 1.265 1_554 S
C84 C86 1.380 . S
C84 C87 1.374 . S
C84 C90 1.507 . S
C85 C86 1.384 . S
C85 C89 1.387 . S
C85 H112 0.930 . S
C86 C84 1.380 . S
C86 C85 1.384 . S
C86 H113 0.931 . S
C87 C84 1.374 . S
C87 C88 1.390 . S
C87 H114 0.930 . S
C88 C87 1.390 . S
C88 C89 1.391 . S
C88 H115 0.930 . S
C89 C85 1.387 . S
C89 C88 1.391 . S
C90 Tb80 2.825 . S
C90 C84 1.507 . S
C90 O103 1.238 . S
C90 O104 1.247 . S
O91 Tb80 2.347 . S
O91 C95 1.259 . S
O92 Eu81 2.418 1_554 S
O92 C95 1.265 . S
O93 Eu81 2.384 . S
O93 C102 1.255 . S
O94 Tb80 2.366 1_556 S
O94 C102 1.265 . S
C95 O91 1.259 . S
C95 O92 1.265 . S
O96 Eu81 2.479 . S
O96 C111 1.238 . S
O97 Eu81 2.471 . S
O97 C111 1.247 . S
O98 Eu81 2.347 . S
O98 C82 1.259 . S
O99 Tb80 2.418 1_556 S
O99 C82 1.265 . S
O100 Tb80 2.384 . S
O100 C83 1.255 . S
O101 Eu81 2.366 . S
O101 C83 1.265 1_556 S
C102 O93 1.255 . S
C102 O94 1.265 . S
O103 Tb80 2.479 . S
O103 C90 1.238 . S
O104 Tb80 2.471 . S
O104 C90 1.247 . S
C105 C108 1.380 . S
C105 C109 1.374 . S
C105 C111 1.507 . S
C106 C107 1.387 . S
C106 C110 1.391 . S
C107 C106 1.387 . S
C107 C108 1.384 . S
C107 H116 0.930 . S
C108 C105 1.380 . S
C108 C107 1.384 . S
C108 H117 0.931 . S
C109 C105 1.374 . S
C109 C110 1.390 . S
C109 H118 0.930 . S
C110 C106 1.391 . S
C110 C109 1.390 . S
C110 H119 0.930 . S
C111 Eu81 2.825 . S
C111 O96 1.238 . S
C111 O97 1.247 . S
C111 C105 1.507 . S
H112 C85 0.930 . S
H113 C86 0.931 . S
H114 C87 0.930 . S
H115 C88 0.930 . S
H116 C107 0.930 . S
H117 C108 0.931 . S
H118 C109 0.930 . S
H119 C110 0.930 . S
Tb120 C130 2.825 . S
Tb120 O131 2.347 . S
Tb120 O134 2.366 . S
Tb120 O139 2.418 . S
Tb120 O140 2.384 . S
Tb120 O143 2.479 . S
Tb120 O144 2.471 . S
Eu121 O132 2.418 . S
Eu121 O133 2.384 . S
Eu121 O136 2.479 . S
Eu121 O137 2.471 . S
Eu121 O138 2.347 . S
Eu121 O141 2.366 . S
Eu121 C151 2.825 . S
C122 O138 1.259 . S
C122 O139 1.265 . S
C123 O140 1.255 . S
C123 O141 1.265 . S
C124 C126 1.380 . S
C124 C127 1.374 . S
C124 C130 1.507 . S
C125 C126 1.384 . S
C125 C129 1.387 . S
C125 H152 0.930 . S
C126 C124 1.380 . S
C126 C125 1.384 . S
C126 H153 0.931 . S
C127 C124 1.374 . S
C127 C128 1.390 . S
C127 H154 0.930 . S
C128 C127 1.390 . S
C128 C129 1.391 . S
C128 H155 0.930 . S
C129 C125 1.387 . S
C129 C128 1.391 . S
C130 Tb120 2.825 . S
C130 C124 1.507 . S
C130 O143 1.238 . S
C130 O144 1.247 . S
O131 Tb120 2.347 . S
O131 C135 1.259 . S
O132 Eu121 2.418 . S
O132 C135 1.265 . S
O133 Eu121 2.384 . S
O133 C142 1.255 . S
O134 Tb120 2.366 . S
O134 C142 1.265 . S
C135 O131 1.259 . S
C135 O132 1.265 . S
O136 Eu121 2.479 . S
O136 C151 1.238 . S
O137 Eu121 2.471 . S
O137 C151 1.247 . S
O138 Eu121 2.347 . S
O138 C122 1.259 . S
O139 Tb120 2.418 . S
O139 C122 1.265 . S
O140 Tb120 2.384 . S
O140 C123 1.255 . S
O141 Eu121 2.366 . S
O141 C123 1.265 . S
C142 O133 1.255 . S
C142 O134 1.265 . S
O143 Tb120 2.479 . S
O143 C130 1.238 . S
O144 Tb120 2.471 . S
O144 C130 1.247 . S
C145 C148 1.380 . S
C145 C149 1.374 . S
C145 C151 1.507 . S
C146 C147 1.387 . S
C146 C150 1.391 . S
C147 C146 1.387 . S
C147 C148 1.384 . S
C147 H156 0.930 . S
C148 C145 1.380 . S
C148 C147 1.384 . S
C148 H157 0.931 . S
C149 C145 1.374 . S
C149 C150 1.390 . S
C149 H158 0.930 . S
C150 C146 1.391 . S
C150 C149 1.390 . S
C150 H159 0.930 . S
C151 Eu121 2.825 . S
C151 O136 1.238 . S
C151 O137 1.247 . S
C151 C145 1.507 . S
H152 C125 0.930 . S
H153 C126 0.931 . S
H154 C127 0.930 . S
H155 C128 0.930 . S
H156 C147 0.930 . S
H157 C148 0.931 . S
H158 C149 0.930 . S
H159 C150 0.930 . S
Tb160 C170 2.825 . S
Tb160 O171 2.347 . S
Tb160 O174 2.366 . S
Tb160 O179 2.418 . S
Tb160 O180 2.384 . S
Tb160 O183 2.479 . S
Tb160 O184 2.471 . S
Eu161 O172 2.418 . S
Eu161 O173 2.384 . S
Eu161 O176 2.479 . S
Eu161 O177 2.471 . S
Eu161 O178 2.347 . S
Eu161 O181 2.366 . S
Eu161 C191 2.825 . S
C162 O178 1.259 . S
C162 O179 1.265 . S
C163 O180 1.255 . S
C163 O181 1.265 . S
C164 C166 1.380 . S
C164 C167 1.374 . S
C164 C170 1.507 . S
C165 C166 1.384 . S
C165 C169 1.387 . S
C165 H192 0.930 . S
C166 C164 1.380 . S
C166 C165 1.384 . S
C166 H193 0.931 . S
C167 C164 1.374 . S
C167 C168 1.390 . S
C167 H194 0.930 . S
C168 C167 1.390 . S
C168 C169 1.391 . S
C168 H195 0.930 . S
C169 C165 1.387 . S
C169 C168 1.391 . S
C170 Tb160 2.825 . S
C170 C164 1.507 . S
C170 O183 1.238 . S
C170 O184 1.247 . S
O171 Tb160 2.347 . S
O171 C175 1.259 . S
O172 Eu161 2.418 . S
O172 C175 1.265 . S
O173 Eu161 2.384 . S
O173 C182 1.255 . S
O174 Tb160 2.366 . S
O174 C182 1.265 . S
C175 O171 1.259 . S
C175 O172 1.265 . S
O176 Eu161 2.479 . S
O176 C191 1.238 . S
O177 Eu161 2.471 . S
O177 C191 1.247 . S
O178 Eu161 2.347 . S
O178 C162 1.259 . S
O179 Tb160 2.418 . S
O179 C162 1.265 . S
O180 Tb160 2.384 . S
O180 C163 1.255 . S
O181 Eu161 2.366 . S
O181 C163 1.265 . S
C182 O173 1.255 . S
C182 O174 1.265 . S
O183 Tb160 2.479 . S
O183 C170 1.238 . S
O184 Tb160 2.471 . S
O184 C170 1.247 . S
C185 C188 1.380 . S
C185 C189 1.374 . S
C185 C191 1.507 . S
C186 C187 1.387 . S
C186 C190 1.391 . S
C187 C186 1.387 . S
C187 C188 1.384 . S
C187 H196 0.930 . S
C188 C185 1.380 . S
C188 C187 1.384 . S
C188 H197 0.931 . S
C189 C185 1.374 . S
C189 C190 1.390 . S
C189 H198 0.930 . S
C190 C186 1.391 . S
C190 C189 1.390 . S
C190 H199 0.930 . S
C191 Eu161 2.825 . S
C191 O176 1.238 . S
C191 O177 1.247 . S
C191 C185 1.507 . S
H192 C165 0.930 . S
H193 C166 0.931 . S
H194 C167 0.930 . S
H195 C168 0.930 . S
H196 C187 0.930 . S
H197 C188 0.931 . S
H198 C189 0.930 . S
H199 C190 0.930 . S
Tb200 C210 2.825 . S
Tb200 O211 2.347 . S
Tb200 O214 2.366 . S
Tb200 O219 2.418 . S
Tb200 O220 2.384 . S
Tb200 O223 2.479 . S
Tb200 O224 2.471 . S
Eu201 O212 2.418 . S
Eu201 O213 2.384 1_455 S
Eu201 O216 2.479 . S
Eu201 O217 2.471 . S
Eu201 O218 2.347 1_455 S
Eu201 O221 2.366 . S
Eu201 C231 2.825 . S
C202 O218 1.259 . S
C202 O219 1.265 . S
C203 O220 1.255 1_455 S
C203 O221 1.265 . S
C204 C206 1.380 . S
C204 C207 1.374 . S
C204 C210 1.507 . S
C205 C206 1.384 . S
C205 C209 1.387 . S
C205 H232 0.930 . S
C206 C204 1.380 . S
C206 C205 1.384 . S
C206 H233 0.931 . S
C207 C204 1.374 . S
C207 C208 1.390 . S
C207 H234 0.930 . S
C208 C207 1.390 . S
C208 C209 1.391 . S
C208 H235 0.930 . S
C209 C205 1.387 . S
C209 C208 1.391 . S
C210 Tb200 2.825 . S
C210 C204 1.507 . S
C210 O223 1.238 . S
C210 O224 1.247 . S
O211 Tb200 2.347 . S
O211 C215 1.259 1_655 S
O212 Eu201 2.418 . S
O212 C215 1.265 . S
O213 Eu201 2.384 1_655 S
O213 C222 1.255 . S
O214 Tb200 2.366 . S
O214 C222 1.265 . S
C215 O211 1.259 1_455 S
C215 O212 1.265 . S
O216 Eu201 2.479 . S
O216 C231 1.238 . S
O217 Eu201 2.471 . S
O217 C231 1.247 . S
O218 Eu201 2.347 1_655 S
O218 C202 1.259 . S
O219 Tb200 2.418 . S
O219 C202 1.265 . S
O220 Tb200 2.384 . S
O220 C203 1.255 1_655 S
O221 Eu201 2.366 . S
O221 C203 1.265 . S
C222 O213 1.255 . S
C222 O214 1.265 . S
O223 Tb200 2.479 . S
O223 C210 1.238 . S
O224 Tb200 2.471 . S
O224 C210 1.247 . S
C225 C228 1.380 . S
C225 C229 1.374 . S
C225 C231 1.507 . S
C226 C227 1.387 . S
C226 C230 1.391 . S
C227 C226 1.387 . S
C227 C228 1.384 . S
C227 H236 0.930 . S
C228 C225 1.380 . S
C228 C227 1.384 . S
C228 H237 0.931 . S
C229 C225 1.374 . S
C229 C230 1.390 . S
C229 H238 0.930 . S
C230 C226 1.391 . S
C230 C229 1.390 . S
C230 H239 0.930 . S
C231 Eu201 2.825 . S
C231 O216 1.238 . S
C231 O217 1.247 . S
C231 C225 1.507 . S
H232 C205 0.930 . S
H233 C206 0.931 . S
H234 C207 0.930 . S
H235 C208 0.930 . S
H236 C227 0.930 . S
H237 C228 0.931 . S
H238 C229 0.930 . S
H239 C230 0.930 . S
Tb240 C250 2.825 . S
Tb240 O251 2.347 1_554 S
Tb240 O254 2.366 . S
Tb240 O259 2.418 . S
Tb240 O260 2.384 1_554 S
Tb240 O263 2.479 . S
Tb240 O264 2.471 . S
Eu241 O252 2.418 . S
Eu241 O253 2.384 1_556 S
Eu241 O256 2.479 . S
Eu241 O257 2.471 . S
Eu241 O258 2.347 1_556 S
Eu241 O261 2.366 . S
Eu241 C271 2.825 . S
C242 O258 1.259 . S
C242 O259 1.265 . S
C243 O260 1.255 . S
C243 O261 1.265 . S
C244 C246 1.380 . S
C244 C247 1.374 . S
C244 C250 1.507 . S
C245 C246 1.384 . S
C245 C249 1.387 . S
C245 H272 0.930 . S
C246 C244 1.380 . S
C246 C245 1.384 . S
C246 H273 0.931 . S
C247 C244 1.374 . S
C247 C248 1.390 . S
C247 H274 0.930 . S
C248 C247 1.390 . S
C248 C249 1.391 . S
C248 H275 0.930 . S
C249 C245 1.387 . S
C249 C248 1.391 . S
C250 Tb240 2.825 . S
C250 C244 1.507 . S
C250 O263 1.238 . S
C250 O264 1.247 . S
O251 Tb240 2.347 1_556 S
O251 C255 1.259 . S
O252 Eu241 2.418 . S
O252 C255 1.265 . S
O253 Eu241 2.384 1_554 S
O253 C262 1.255 . S
O254 Tb240 2.366 . S
O254 C262 1.265 . S
C255 O251 1.259 . S
C255 O252 1.265 . S
O256 Eu241 2.479 . S
O256 C271 1.238 . S
O257 Eu241 2.471 . S
O257 C271 1.247 . S
O258 Eu241 2.347 1_554 S
O258 C242 1.259 . S
O259 Tb240 2.418 . S
O259 C242 1.265 . S
O260 Tb240 2.384 1_556 S
O260 C243 1.255 . S
O261 Eu241 2.366 . S
O261 C243 1.265 . S
C262 O253 1.255 . S
C262 O254 1.265 . S
O263 Tb240 2.479 . S
O263 C250 1.238 . S
O264 Tb240 2.471 . S
O264 C250 1.247 . S
C265 C268 1.380 . S
C265 C269 1.374 . S
C265 C271 1.507 . S
C266 C267 1.387 . S
C266 C270 1.391 . S
C267 C266 1.387 . S
C267 C268 1.384 . S
C267 H276 0.930 . S
C268 C265 1.380 . S
C268 C267 1.384 . S
C268 H277 0.931 . S
C269 C265 1.374 . S
C269 C270 1.390 . S
C269 H278 0.930 . S
C270 C266 1.391 . S
C270 C269 1.390 . S
C270 H279 0.930 . S
C271 Eu241 2.825 . S
C271 O256 1.238 . S
C271 O257 1.247 . S
C271 C265 1.507 . S
H272 C245 0.930 . S
H273 C246 0.931 . S
H274 C247 0.930 . S
H275 C248 0.930 . S
H276 C267 0.930 . S
H277 C268 0.931 . S
H278 C269 0.930 . S
H279 C270 0.930 . S
Tb280 C290 2.825 . S
Tb280 O291 2.347 . S
Tb280 O294 2.366 . S
Tb280 O299 2.418 . S
Tb280 O300 2.384 . S
Tb280 O303 2.479 . S
Tb280 O304 2.471 . S
Eu281 O292 2.418 . S
Eu281 O293 2.384 . S
Eu281 O296 2.479 . S
Eu281 O297 2.471 . S
Eu281 O298 2.347 . S
Eu281 O301 2.366 . S
Eu281 C311 2.825 . S
C282 O298 1.259 . S
C282 O299 1.265 . S
C283 O300 1.255 . S
C283 O301 1.265 . S
C284 C286 1.380 . S
C284 C287 1.374 . S
C284 C290 1.507 . S
C285 C286 1.384 . S
C285 C289 1.387 . S
C285 H312 0.930 . S
C286 C284 1.380 . S
C286 C285 1.384 . S
C286 H313 0.931 . S
C287 C284 1.374 . S
C287 C288 1.390 . S
C287 H314 0.930 . S
C288 C287 1.390 . S
C288 C289 1.391 . S
C288 H315 0.930 . S
C289 C285 1.387 . S
C289 C288 1.391 . S
C290 Tb280 2.825 . S
C290 C284 1.507 . S
C290 O303 1.238 . S
C290 O304 1.247 . S
O291 Tb280 2.347 . S
O291 C295 1.259 . S
O292 Eu281 2.418 . S
O292 C295 1.265 . S
O293 Eu281 2.384 . S
O293 C302 1.255 . S
O294 Tb280 2.366 . S
O294 C302 1.265 . S
C295 O291 1.259 . S
C295 O292 1.265 . S
O296 Eu281 2.479 . S
O296 C311 1.238 . S
O297 Eu281 2.471 . S
O297 C311 1.247 . S
O298 Eu281 2.347 . S
O298 C282 1.259 . S
O299 Tb280 2.418 . S
O299 C282 1.265 . S
O300 Tb280 2.384 . S
O300 C283 1.255 . S
O301 Eu281 2.366 . S
O301 C283 1.265 . S
C302 O293 1.255 . S
C302 O294 1.265 . S
O303 Tb280 2.479 . S
O303 C290 1.238 . S
O304 Tb280 2.471 . S
O304 C290 1.247 . S
C305 C308 1.380 . S
C305 C309 1.374 . S
C305 C311 1.507 . S
C306 C307 1.387 . S
C306 C310 1.391 . S
C307 C306 1.387 . S
C307 C308 1.384 . S
C307 H316 0.930 . S
C308 C305 1.380 . S
C308 C307 1.384 . S
C308 H317 0.931 . S
C309 C305 1.374 . S
C309 C310 1.390 . S
C309 H318 0.930 . S
C310 C306 1.391 . S
C310 C309 1.390 . S
C310 H319 0.930 . S
C311 Eu281 2.825 . S
C311 O296 1.238 . S
C311 O297 1.247 . S
C311 C305 1.507 . S
H312 C285 0.930 . S
H313 C286 0.931 . S
H314 C287 0.930 . S
H315 C288 0.930 . S
H316 C307 0.930 . S
H317 C308 0.931 . S
H318 C309 0.930 . S
H319 C310 0.930 . S
Tb320 C330 2.825 . S
Tb320 O331 2.347 . S
Tb320 O334 2.366 . S
Tb320 O339 2.418 . S
Tb320 O340 2.384 . S
Tb320 O343 2.479 . S
Tb320 O344 2.471 . S
Eu321 O332 2.418 . S
Eu321 O333 2.384 . S
Eu321 O336 2.479 . S
Eu321 O337 2.471 . S
Eu321 O338 2.347 . S
Eu321 O341 2.366 . S
Eu321 C351 2.825 . S
C322 O338 1.259 . S
C322 O339 1.265 . S
C323 O340 1.255 . S
C323 O341 1.265 . S
C324 C326 1.380 . S
C324 C327 1.374 . S
C324 C330 1.507 . S
C325 C326 1.384 . S
C325 C329 1.387 . S
C325 H352 0.930 . S
C326 C324 1.380 . S
C326 C325 1.384 . S
C326 H353 0.931 . S
C327 C324 1.374 . S
C327 C328 1.390 . S
C327 H354 0.930 . S
C328 C327 1.390 . S
C328 C329 1.391 . S
C328 H355 0.930 . S
C329 C325 1.387 . S
C329 C328 1.391 . S
C330 Tb320 2.825 . S
C330 C324 1.507 . S
C330 O343 1.238 . S
C330 O344 1.247 . S
O331 Tb320 2.347 . S
O331 C335 1.259 . S
O332 Eu321 2.418 . S
O332 C335 1.265 . S
O333 Eu321 2.384 . S
O333 C342 1.255 . S
O334 Tb320 2.366 . S
O334 C342 1.265 . S
C335 O331 1.259 . S
C335 O332 1.265 . S
O336 Eu321 2.479 . S
O336 C351 1.238 . S
O337 Eu321 2.471 . S
O337 C351 1.247 . S
O338 Eu321 2.347 . S
O338 C322 1.259 . S
O339 Tb320 2.418 . S
O339 C322 1.265 . S
O340 Tb320 2.384 . S
O340 C323 1.255 . S
O341 Eu321 2.366 . S
O341 C323 1.265 . S
C342 O333 1.255 . S
C342 O334 1.265 . S
O343 Tb320 2.479 . S
O343 C330 1.238 . S
O344 Tb320 2.471 . S
O344 C330 1.247 . S
C345 C348 1.380 . S
C345 C349 1.374 . S
C345 C351 1.507 . S
C346 C347 1.387 . S
C346 C350 1.391 . S
C347 C346 1.387 . S
C347 C348 1.384 . S
C347 H356 0.930 . S
C348 C345 1.380 . S
C348 C347 1.384 . S
C348 H357 0.931 . S
C349 C345 1.374 . S
C349 C350 1.390 . S
C349 H358 0.930 . S
C350 C346 1.391 . S
C350 C349 1.390 . S
C350 H359 0.930 . S
C351 Eu321 2.825 . S
C351 O336 1.238 . S
C351 O337 1.247 . S
C351 C345 1.507 . S
H352 C325 0.930 . S
H353 C326 0.931 . S
H354 C327 0.930 . S
H355 C328 0.930 . S
H356 C347 0.930 . S
H357 C348 0.931 . S
H358 C349 0.930 . S
H359 C350 0.930 . S
Tb360 C370 2.825 . S
Tb360 O371 2.347 . S
Tb360 O374 2.366 . S
Tb360 O379 2.418 . S
Tb360 O380 2.384 1_545 S
Tb360 O383 2.479 . S
Tb360 O384 2.471 . S
Eu361 O372 2.418 . S
Eu361 O373 2.384 1_565 S
Eu361 O376 2.479 . S
Eu361 O377 2.471 . S
Eu361 O378 2.347 1_565 S
Eu361 O381 2.366 . S
Eu361 C391 2.825 . S
C362 O378 1.259 . S
C362 O379 1.265 . S
C363 O380 1.255 . S
C363 O381 1.265 . S
C364 C366 1.380 . S
C364 C367 1.374 . S
C364 C370 1.507 . S
C365 C366 1.384 . S
C365 C369 1.387 . S
C365 H392 0.930 . S
C366 C364 1.380 . S
C366 C365 1.384 . S
C366 H393 0.931 . S
C367 C364 1.374 . S
C367 C368 1.390 . S
C367 H394 0.930 . S
C368 C367 1.390 . S
C368 C369 1.391 . S
C368 H395 0.930 . S
C369 C365 1.387 . S
C369 C368 1.391 . S
C370 Tb360 2.825 . S
C370 C364 1.507 . S
C370 O383 1.238 . S
C370 O384 1.247 . S
O371 Tb360 2.347 . S
O371 C375 1.259 1_545 S
O372 Eu361 2.418 . S
O372 C375 1.265 . S
O373 Eu361 2.384 1_545 S
O373 C382 1.255 . S
O374 Tb360 2.366 . S
O374 C382 1.265 . S
C375 O371 1.259 1_565 S
C375 O372 1.265 . S
O376 Eu361 2.479 . S
O376 C391 1.238 . S
O377 Eu361 2.471 . S
O377 C391 1.247 . S
O378 Eu361 2.347 1_545 S
O378 C362 1.259 . S
O379 Tb360 2.418 . S
O379 C362 1.265 . S
O380 Tb360 2.384 1_565 S
O380 C363 1.255 . S
O381 Eu361 2.366 . S
O381 C363 1.265 . S
C382 O373 1.255 . S
C382 O374 1.265 . S
O383 Tb360 2.479 . S
O383 C370 1.238 . S
O384 Tb360 2.471 . S
O384 C370 1.247 . S
C385 C388 1.380 . S
C385 C389 1.374 . S
C385 C391 1.507 . S
C386 C387 1.387 . S
C386 C390 1.391 . S
C387 C386 1.387 . S
C387 C388 1.384 . S
C387 H396 0.930 . S
C388 C385 1.380 . S
C388 C387 1.384 . S
C388 H397 0.931 . S
C389 C385 1.374 . S
C389 C390 1.390 . S
C389 H398 0.930 . S
C390 C386 1.391 . S
C390 C389 1.390 . S
C390 H399 0.930 . S
C391 Eu361 2.825 . S
C391 O376 1.238 . S
C391 O377 1.247 . S
C391 C385 1.507 . S
H392 C365 0.930 . S
H393 C366 0.931 . S
H394 C367 0.930 . S
H395 C368 0.930 . S
H396 C387 0.930 . S
H397 C388 0.931 . S
H398 C389 0.930 . S
H399 C390 0.930 . S
Tb400 C410 2.825 . S
Tb400 O411 2.347 1_565 S
Tb400 O414 2.366 . S
Tb400 O419 2.418 . S
Tb400 O420 2.384 1_565 S
Tb400 O423 2.479 . S
Tb400 O424 2.471 . S
Eu401 O412 2.418 . S
Eu401 O413 2.384 1_545 S
Eu401 O416 2.479 . S
Eu401 O417 2.471 . S
Eu401 O418 2.347 1_545 S
Eu401 O421 2.366 . S
Eu401 C431 2.825 . S
C402 O418 1.259 . S
C402 O419 1.265 . S
C403 O420 1.255 . S
C403 O421 1.265 . S
C404 C406 1.380 . S
C404 C407 1.374 . S
C404 C410 1.507 . S
C405 C406 1.384 . S
C405 C409 1.387 . S
C405 H432 0.930 . S
C406 C404 1.380 . S
C406 C405 1.384 . S
C406 H433 0.931 . S
C407 C404 1.374 . S
C407 C408 1.390 . S
C407 H434 0.930 . S
C408 C407 1.390 . S
C408 C409 1.391 . S
C408 H435 0.930 . S
C409 C405 1.387 . S
C409 C408 1.391 . S
C410 Tb400 2.825 . S
C410 C404 1.507 . S
C410 O423 1.238 . S
C410 O424 1.247 . S
O411 Tb400 2.347 1_545 S
O411 C415 1.259 . S
O412 Eu401 2.418 . S
O412 C415 1.265 . S
O413 Eu401 2.384 1_565 S
O413 C422 1.255 . S
O414 Tb400 2.366 . S
O414 C422 1.265 . S
C415 O411 1.259 . S
C415 O412 1.265 . S
O416 Eu401 2.479 . S
O416 C431 1.238 . S
O417 Eu401 2.471 . S
O417 C431 1.247 . S
O418 Eu401 2.347 1_565 S
O418 C402 1.259 . S
O419 Tb400 2.418 . S
O419 C402 1.265 . S
O420 Tb400 2.384 1_545 S
O420 C403 1.255 . S
O421 Eu401 2.366 . S
O421 C403 1.265 . S
C422 O413 1.255 . S
C422 O414 1.265 . S
O423 Tb400 2.479 . S
O423 C410 1.238 . S
O424 Tb400 2.471 . S
O424 C410 1.247 . S
C425 C428 1.380 . S
C425 C429 1.374 . S
C425 C431 1.507 . S
C426 C427 1.387 . S
C426 C430 1.391 . S
C427 C426 1.387 . S
C427 C428 1.384 . S
C427 H436 0.930 . S
C428 C425 1.380 . S
C428 C427 1.384 . S
C428 H437 0.931 . S
C429 C425 1.374 . S
C429 C430 1.390 . S
C429 H438 0.930 . S
C430 C426 1.391 . S
C430 C429 1.390 . S
C430 H439 0.930 . S
C431 Eu401 2.825 . S
C431 O416 1.238 . S
C431 O417 1.247 . S
C431 C425 1.507 . S
H432 C405 0.930 . S
H433 C406 0.931 . S
H434 C407 0.930 . S
H435 C408 0.930 . S
H436 C427 0.930 . S
H437 C428 0.931 . S
H438 C429 0.930 . S
H439 C430 0.930 . S
Tb440 C450 2.825 . S
Tb440 O451 2.347 . S
Tb440 O454 2.366 . S
Tb440 O459 2.418 . S
Tb440 O460 2.384 . S
Tb440 O463 2.479 . S
Tb440 O464 2.471 . S
Eu441 O452 2.418 . S
Eu441 O453 2.384 . S
Eu441 O456 2.479 . S
Eu441 O457 2.471 . S
Eu441 O458 2.347 . S
Eu441 O461 2.366 . S
Eu441 C471 2.825 . S
C442 O458 1.259 . S
C442 O459 1.265 . S
C443 O460 1.255 . S
C443 O461 1.265 . S
C444 C446 1.380 . S
C444 C447 1.374 . S
C444 C450 1.507 . S
C445 C446 1.384 . S
C445 C449 1.387 . S
C445 H472 0.930 . S
C446 C444 1.380 . S
C446 C445 1.384 . S
C446 H473 0.931 . S
C447 C444 1.374 . S
C447 C448 1.390 . S
C447 H474 0.930 . S
C448 C447 1.390 . S
C448 C449 1.391 . S
C448 H475 0.930 . S
C449 C445 1.387 . S
C449 C448 1.391 . S
C450 Tb440 2.825 . S
C450 C444 1.507 . S
C450 O463 1.238 . S
C450 O464 1.247 . S
O451 Tb440 2.347 . S
O451 C455 1.259 . S
O452 Eu441 2.418 . S
O452 C455 1.265 . S
O453 Eu441 2.384 . S
O453 C462 1.255 . S
O454 Tb440 2.366 . S
O454 C462 1.265 . S
C455 O451 1.259 . S
C455 O452 1.265 . S
O456 Eu441 2.479 . S
O456 C471 1.238 . S
O457 Eu441 2.471 . S
O457 C471 1.247 . S
O458 Eu441 2.347 . S
O458 C442 1.259 . S
O459 Tb440 2.418 . S
O459 C442 1.265 . S
O460 Tb440 2.384 . S
O460 C443 1.255 . S
O461 Eu441 2.366 . S
O461 C443 1.265 . S
C462 O453 1.255 . S
C462 O454 1.265 . S
O463 Tb440 2.479 . S
O463 C450 1.238 . S
O464 Tb440 2.471 . S
O464 C450 1.247 . S
C465 C468 1.380 . S
C465 C469 1.374 . S
C465 C471 1.507 . S
C466 C467 1.387 . S
C466 C470 1.391 . S
C467 C466 1.387 . S
C467 C468 1.384 . S
C467 H476 0.930 . S
C468 C465 1.380 . S
C468 C467 1.384 . S
C468 H477 0.931 . S
C469 C465 1.374 . S
C469 C470 1.390 . S
C469 H478 0.930 . S
C470 C466 1.391 . S
C470 C469 1.390 . S
C470 H479 0.930 . S
C471 Eu441 2.825 . S
C471 O456 1.238 . S
C471 O457 1.247 . S
C471 C465 1.507 . S
H472 C445 0.930 . S
H473 C446 0.931 . S
H474 C447 0.930 . S
H475 C448 0.930 . S
H476 C467 0.930 . S
H477 C468 0.931 . S
H478 C469 0.930 . S
H479 C470 0.930 . S
C480 C481 1.391 . S
C480 C482 1.394 . S
C480 H496 0.931 . S
C481 C480 1.391 . S
C481 C485 1.376 . S
C482 C480 1.394 . S
C482 C483 1.369 . S
C482 C486 1.531 . S
C483 C482 1.369 . S
C483 C484 1.410 . S
C483 C491 1.503 . S
C484 C483 1.410 . S
C484 C485 1.392 . S
C484 C487 1.511 . S
C485 C481 1.376 . S
C485 C484 1.392 . S
C485 H497 0.929 . S
C486 C482 1.531 . S
C486 H498 0.960 . S
C486 H499 0.962 . S
C486 H500 0.960 . S
C487 C484 1.511 . S
C487 H501 0.961 . S
C487 H502 0.961 . S
C487 H503 0.961 . S
C488 C489 1.370 . S
C488 C490 1.363 . S
C488 H504 0.931 . S
C489 C488 1.370 . S
C489 C493 1.408 . S
C490 C488 1.363 . S
C490 C491 1.370 . S
C490 C494 1.524 . S
C491 C483 1.503 . S
C491 C490 1.370 . S
C491 C492 1.403 . S
C492 C491 1.403 . S
C492 C493 1.404 . S
C492 C495 1.539 . S
C493 C489 1.408 . S
C493 C492 1.404 . S
C493 H505 0.930 . S
C494 C490 1.524 . S
C494 H506 0.956 . S
C494 H507 0.961 . S
C494 H508 0.961 . S
C495 C492 1.539 . S
C495 H509 0.958 . S
C495 H510 0.961 . S
C495 H511 0.960 . S
H496 C480 0.931 . S
H497 C485 0.929 . S
H498 C486 0.960 . S
H499 C486 0.962 . S
H500 C486 0.960 . S
H501 C487 0.961 . S
H502 C487 0.961 . S
H503 C487 0.961 . S
H504 C488 0.931 . S
H505 C493 0.930 . S
H506 C494 0.956 . S
H507 C494 0.961 . S
H508 C494 0.961 . S
H509 C495 0.958 . S
H510 C495 0.961 . S
H511 C495 0.960 . S
C512 C513 1.391 . S
C512 C514 1.394 . S
C512 H528 0.931 . S
C513 C512 1.391 . S
C513 C517 1.376 . S
C514 C512 1.394 . S
C514 C515 1.369 . S
C514 C518 1.531 . S
C515 C514 1.369 . S
C515 C516 1.410 . S
C515 C523 1.503 . S
C516 C515 1.410 . S
C516 C517 1.392 . S
C516 C519 1.511 1_565 S
C517 C513 1.376 . S
C517 C516 1.392 . S
C517 H529 0.929 1_565 S
C518 C514 1.531 . S
C518 H530 0.960 . S
C518 H531 0.962 . S
C518 H532 0.960 . S
C519 C516 1.511 1_545 S
C519 H533 0.961 . S
C519 H534 0.961 1_545 S
C519 H535 0.961 . S
C520 C521 1.370 . S
C520 C522 1.363 . S
C520 H536 0.931 . S
C521 C520 1.370 . S
C521 C525 1.408 . S
C522 C520 1.363 . S
C522 C523 1.370 . S
C522 C526 1.524 . S
C523 C515 1.503 . S
C523 C522 1.370 . S
C523 C524 1.403 . S
C524 C523 1.403 . S
C524 C525 1.404 . S
C524 C527 1.539 . S
C525 C521 1.408 . S
C525 C524 1.404 . S
C525 H537 0.930 . S
C526 C522 1.524 . S
C526 H538 0.956 . S
C526 H539 0.961 . S
C526 H540 0.961 . S
C527 C524 1.539 . S
C527 H541 0.958 . S
C527 H542 0.961 . S
C527 H543 0.960 . S
H528 C512 0.931 . S
H529 C517 0.929 1_545 S
H530 C518 0.960 . S
H531 C518 0.962 . S
H532 C518 0.960 . S
H533 C519 0.961 . S
H534 C519 0.961 1_565 S
H535 C519 0.961 . S
H536 C520 0.931 . S
H537 C525 0.930 . S
H538 C526 0.956 . S
H539 C526 0.961 . S
H540 C526 0.961 . S
H541 C527 0.958 . S
H542 C527 0.961 . S
H543 C527 0.960 . S
C544 C545 1.391 . S
C544 C546 1.394 . S
C544 H560 0.931 . S
C545 C544 1.391 . S
C545 C549 1.376 . S
C546 C544 1.394 . S
C546 C547 1.369 . S
C546 C550 1.531 . S
C547 C546 1.369 . S
C547 C548 1.410 . S
C547 C555 1.503 . S
C548 C547 1.410 . S
C548 C549 1.392 . S
C548 C551 1.511 . S
C549 C545 1.376 . S
C549 C548 1.392 . S
C549 H561 0.929 . S
C550 C546 1.531 . S
C550 H562 0.960 . S
C550 H563 0.962 . S
C550 H564 0.960 . S
C551 C548 1.511 . S
C551 H565 0.961 1_554 S
C551 H566 0.961 . S
C551 H567 0.961 . S
C552 C553 1.370 . S
C552 C554 1.363 . S
C552 H568 0.931 . S
C553 C552 1.370 . S
C553 C557 1.408 . S
C554 C552 1.363 . S
C554 C555 1.370 . S
C554 C558 1.524 . S
C555 C547 1.503 . S
C555 C554 1.370 . S
C555 C556 1.403 . S
C556 C555 1.403 . S
C556 C557 1.404 . S
C556 C559 1.539 . S
C557 C553 1.408 . S
C557 C556 1.404 . S
C557 H569 0.930 . S
C558 C554 1.524 . S
C558 H570 0.956 . S
C558 H571 0.961 1_554 S
C558 H572 0.961 1_554 S
C559 C556 1.539 . S
C559 H573 0.958 . S
C559 H574 0.961 . S
C559 H575 0.960 . S
H560 C544 0.931 . S
H561 C549 0.929 . S
H562 C550 0.960 . S
H563 C550 0.962 . S
H564 C550 0.960 . S
H565 C551 0.961 1_556 S
H566 C551 0.961 . S
H567 C551 0.961 . S
H568 C552 0.931 . S
H569 C557 0.930 . S
H570 C558 0.956 . S
H571 C558 0.961 1_556 S
H572 C558 0.961 1_556 S
H573 C559 0.958 . S
H574 C559 0.961 . S
H575 C559 0.960 . S
C576 C577 1.391 . S
C576 C578 1.394 . S
C576 H592 0.931 . S
C577 C576 1.391 . S
C577 C581 1.376 . S
C578 C576 1.394 . S
C578 C579 1.369 . S
C578 C582 1.531 . S
C579 C578 1.369 . S
C579 C580 1.410 . S
C579 C587 1.503 . S
C580 C579 1.410 . S
C580 C581 1.392 . S
C580 C583 1.511 . S
C581 C577 1.376 . S
C581 C580 1.392 . S
C581 H593 0.929 . S
C582 C578 1.531 . S
C582 H594 0.960 . S
C582 H595 0.962 . S
C582 H596 0.960 . S
C583 C580 1.511 . S
C583 H597 0.961 . S
C583 H598 0.961 . S
C583 H599 0.961 . S
C584 C585 1.370 . S
C584 C586 1.363 . S
C584 H600 0.931 . S
C585 C584 1.370 . S
C585 C589 1.408 . S
C586 C584 1.363 . S
C586 C587 1.370 . S
C586 C590 1.524 . S
C587 C579 1.503 . S
C587 C586 1.370 . S
C587 C588 1.403 . S
C588 C587 1.403 . S
C588 C589 1.404 . S
C588 C591 1.539 . S
C589 C585 1.408 . S
C589 C588 1.404 . S
C589 H601 0.930 . S
C590 C586 1.524 . S
C590 H602 0.956 . S
C590 H603 0.961 . S
C590 H604 0.961 . S
C591 C588 1.539 . S
C591 H605 0.958 . S
C591 H606 0.961 . S
C591 H607 0.960 . S
H592 C576 0.931 . S
H593 C581 0.929 . S
H594 C582 0.960 . S
H595 C582 0.962 . S
H596 C582 0.960 . S
H597 C583 0.961 . S
H598 C583 0.961 . S
H599 C583 0.961 . S
H600 C584 0.931 . S
H601 C589 0.930 . S
H602 C590 0.956 . S
H603 C590 0.961 . S
H604 C590 0.961 . S
H605 C591 0.958 . S
H606 C591 0.961 . S
H607 C591 0.960 . S
C608 C609 1.391 . S
C608 C610 1.394 . S
C608 H624 0.931 . S
C609 C608 1.391 . S
C609 C613 1.376 . S
C610 C608 1.394 . S
C610 C611 1.369 . S
C610 C614 1.531 . S
C611 C610 1.369 . S
C611 C612 1.410 . S
C611 C619 1.503 . S
C612 C611 1.410 . S
C612 C613 1.392 . S
C612 C615 1.511 . S
C613 C609 1.376 . S
C613 C612 1.392 . S
C613 H625 0.929 . S
C614 C610 1.531 . S
C614 H626 0.960 . S
C614 H627 0.962 . S
C614 H628 0.960 . S
C615 C612 1.511 . S
C615 H629 0.961 . S
C615 H630 0.961 . S
C615 H631 0.961 . S
C616 C617 1.370 . S
C616 C618 1.363 . S
C616 H632 0.931 . S
C617 C616 1.370 . S
C617 C621 1.408 . S
C618 C616 1.363 . S
C618 C619 1.370 . S
C618 C622 1.524 . S
C619 C611 1.503 . S
C619 C618 1.370 . S
C619 C620 1.403 . S
C620 C619 1.403 . S
C620 C621 1.404 . S
C620 C623 1.539 . S
C621 C617 1.408 . S
C621 C620 1.404 . S
C621 H633 0.930 . S
C622 C618 1.524 . S
C622 H634 0.956 . S
C622 H635 0.961 . S
C622 H636 0.961 . S
C623 C620 1.539 . S
C623 H637 0.958 . S
C623 H638 0.961 . S
C623 H639 0.960 . S
H624 C608 0.931 . S
H625 C613 0.929 . S
H626 C614 0.960 . S
H627 C614 0.962 . S
H628 C614 0.960 . S
H629 C615 0.961 . S
H630 C615 0.961 . S
H631 C615 0.961 . S
H632 C616 0.931 . S
H633 C621 0.930 . S
H634 C622 0.956 . S
H635 C622 0.961 . S
H636 C622 0.961 . S
H637 C623 0.958 . S
H638 C623 0.961 . S
H639 C623 0.960 . S
C640 C641 1.391 . S
C640 C642 1.394 . S
C640 H656 0.931 . S
C641 C640 1.391 . S
C641 C645 1.376 . S
C642 C640 1.394 . S
C642 C643 1.369 . S
C642 C646 1.531 . S
C643 C642 1.369 . S
C643 C644 1.410 . S
C643 C651 1.503 . S
C644 C643 1.410 . S
C644 C645 1.392 . S
C644 C647 1.511 . S
C645 C641 1.376 . S
C645 C644 1.392 . S
C645 H657 0.929 . S
C646 C642 1.531 . S
C646 H658 0.960 . S
C646 H659 0.962 . S
C646 H660 0.960 . S
C647 C644 1.511 . S
C647 H661 0.961 . S
C647 H662 0.961 . S
C647 H663 0.961 . S
C648 C649 1.370 . S
C648 C650 1.363 . S
C648 H664 0.931 . S
C649 C648 1.370 . S
C649 C653 1.408 . S
C650 C648 1.363 . S
C650 C651 1.370 . S
C650 C654 1.524 . S
C651 C643 1.503 . S
C651 C650 1.370 . S
C651 C652 1.403 . S
C652 C651 1.403 . S
C652 C653 1.404 . S
C652 C655 1.539 . S
C653 C649 1.408 . S
C653 C652 1.404 . S
C653 H665 0.930 . S
C654 C650 1.524 . S
C654 H666 0.956 . S
C654 H667 0.961 . S
C654 H668 0.961 . S
C655 C652 1.539 . S
C655 H669 0.958 . S
C655 H670 0.961 . S
C655 H671 0.960 . S
H656 C640 0.931 . S
H657 C645 0.929 . S
H658 C646 0.960 . S
H659 C646 0.962 . S
H660 C646 0.960 . S
H661 C647 0.961 . S
H662 C647 0.961 . S
H663 C647 0.961 . S
H664 C648 0.931 . S
H665 C653 0.930 . S
H666 C654 0.956 . S
H667 C654 0.961 . S
H668 C654 0.961 . S
H669 C655 0.958 . S
H670 C655 0.961 . S
H671 C655 0.960 . S
C672 C673 1.391 . S
C672 C674 1.394 . S
C672 H688 0.931 . S
C673 C672 1.391 . S
C673 C677 1.376 . S
C674 C672 1.394 . S
C674 C675 1.369 . S
C674 C678 1.531 . S
C675 C674 1.369 . S
C675 C676 1.410 . S
C675 C683 1.503 . S
C676 C675 1.410 . S
C676 C677 1.392 . S
C676 C679 1.511 . S
C677 C673 1.376 . S
C677 C676 1.392 . S
C677 H689 0.929 . S
C678 C674 1.531 . S
C678 H690 0.960 . S
C678 H691 0.962 . S
C678 H692 0.960 . S
C679 C676 1.511 . S
C679 H693 0.961 . S
C679 H694 0.961 . S
C679 H695 0.961 . S
C680 C681 1.370 . S
C680 C682 1.363 . S
C680 H696 0.931 . S
C681 C680 1.370 . S
C681 C685 1.408 . S
C682 C680 1.363 . S
C682 C683 1.370 . S
C682 C686 1.524 . S
C683 C675 1.503 . S
C683 C682 1.370 . S
C683 C684 1.403 . S
C684 C683 1.403 . S
C684 C685 1.404 . S
C684 C687 1.539 . S
C685 C681 1.408 . S
C685 C684 1.404 . S
C685 H697 0.930 . S
C686 C682 1.524 . S
C686 H698 0.956 . S
C686 H699 0.961 . S
C686 H700 0.961 . S
C687 C684 1.539 . S
C687 H701 0.958 1_556 S
C687 H702 0.961 1_556 S
C687 H703 0.960 . S
H688 C672 0.931 . S
H689 C677 0.929 . S
H690 C678 0.960 . S
H691 C678 0.962 . S
H692 C678 0.960 . S
H693 C679 0.961 . S
H694 C679 0.961 . S
H695 C679 0.961 . S
H696 C680 0.931 . S
H697 C685 0.930 . S
H698 C686 0.956 . S
H699 C686 0.961 . S
H700 C686 0.961 . S
H701 C687 0.958 1_554 S
H702 C687 0.961 1_554 S
H703 C687 0.960 . S
C704 C705 1.391 . S
C704 C706 1.394 . S
C704 H720 0.931 . S
C705 C704 1.391 . S
C705 C709 1.376 . S
C706 C704 1.394 . S
C706 C707 1.369 . S
C706 C710 1.531 . S
C707 C706 1.369 . S
C707 C708 1.410 . S
C707 C715 1.503 . S
C708 C707 1.410 . S
C708 C709 1.392 . S
C708 C711 1.511 . S
C709 C705 1.376 . S
C709 C708 1.392 . S
C709 H721 0.929 . S
C710 C706 1.531 . S
C710 H722 0.960 . S
C710 H723 0.962 . S
C710 H724 0.960 . S
C711 C708 1.511 . S
C711 H725 0.961 . S
C711 H726 0.961 . S
C711 H727 0.961 . S
C712 C713 1.370 . S
C712 C714 1.363 . S
C712 H728 0.931 . S
C713 C712 1.370 . S
C713 C717 1.408 . S
C714 C712 1.363 . S
C714 C715 1.370 . S
C714 C718 1.524 . S
C715 C707 1.503 . S
C715 C714 1.370 . S
C715 C716 1.403 . S
C716 C715 1.403 . S
C716 C717 1.404 . S
C716 C719 1.539 . S
C717 C713 1.408 . S
C717 C716 1.404 . S
C717 H729 0.930 . S
C718 C714 1.524 . S
C718 H730 0.956 . S
C718 H731 0.961 . S
C718 H732 0.961 . S
C719 C716 1.539 . S
C719 H733 0.958 . S
C719 H734 0.961 . S
C719 H735 0.960 . S
H720 C704 0.931 . S
H721 C709 0.929 . S
H722 C710 0.960 . S
H723 C710 0.962 . S
H724 C710 0.960 . S
H725 C711 0.961 . S
H726 C711 0.961 . S
H727 C711 0.961 . S
H728 C712 0.931 . S
H729 C717 0.930 . S
H730 C718 0.956 . S
H731 C718 0.961 . S
H732 C718 0.961 . S
H733 C719 0.958 . S
H734 C719 0.961 . S
H735 C719 0.960 . S
C736 C737 1.391 . S
C736 C738 1.394 . S
C736 H752 0.931 . S
C737 C736 1.391 . S
C737 C741 1.376 . S
C738 C736 1.394 . S
C738 C739 1.369 . S
C738 C742 1.531 . S
C739 C738 1.369 . S
C739 C740 1.410 . S
C739 C747 1.503 . S
C740 C739 1.410 . S
C740 C741 1.392 . S
C740 C743 1.511 . S
C741 C737 1.376 . S
C741 C740 1.392 . S
C741 H753 0.929 . S
C742 C738 1.531 . S
C742 H754 0.960 . S
C742 H755 0.962 . S
C742 H756 0.960 . S
C743 C740 1.511 . S
C743 H757 0.961 . S
C743 H758 0.961 . S
C743 H759 0.961 . S
C744 C745 1.370 . S
C744 C746 1.363 . S
C744 H760 0.931 . S
C745 C744 1.370 . S
C745 C749 1.408 . S
C746 C744 1.363 . S
C746 C747 1.370 . S
C746 C750 1.524 . S
C747 C739 1.503 . S
C747 C746 1.370 . S
C747 C748 1.403 . S
C748 C747 1.403 . S
C748 C749 1.404 . S
C748 C751 1.539 . S
C749 C745 1.408 . S
C749 C748 1.404 . S
C749 H761 0.930 . S
C750 C746 1.524 . S
C750 H762 0.956 . S
C750 H763 0.961 . S
C750 H764 0.961 . S
C751 C748 1.539 . S
C751 H765 0.958 . S
C751 H766 0.961 . S
C751 H767 0.960 . S
H752 C736 0.931 . S
H753 C741 0.929 . S
H754 C742 0.960 . S
H755 C742 0.962 . S
H756 C742 0.960 . S
H757 C743 0.961 . S
H758 C743 0.961 . S
H759 C743 0.961 . S
H760 C744 0.931 . S
H761 C749 0.930 . S
H762 C750 0.956 . S
H763 C750 0.961 . S
H764 C750 0.961 . S
H765 C751 0.958 . S
H766 C751 0.961 . S
H767 C751 0.960 . S
C768 C769 1.391 . S
C768 C770 1.394 . S
C768 H784 0.931 . S
C769 C768 1.391 . S
C769 C773 1.376 . S
C770 C768 1.394 . S
C770 C771 1.369 . S
C770 C774 1.531 . S
C771 C770 1.369 . S
C771 C772 1.410 . S
C771 C779 1.503 . S
C772 C771 1.410 . S
C772 C773 1.392 . S
C772 C775 1.511 . S
C773 C769 1.376 . S
C773 C772 1.392 . S
C773 H785 0.929 . S
C774 C770 1.531 . S
C774 H786 0.960 . S
C774 H787 0.962 . S
C774 H788 0.960 . S
C775 C772 1.511 . S
C775 H789 0.961 . S
C775 H790 0.961 . S
C775 H791 0.961 1_455 S
C776 C777 1.370 . S
C776 C778 1.363 . S
C776 H792 0.931 . S
C777 C776 1.370 . S
C777 C781 1.408 . S
C778 C776 1.363 . S
C778 C779 1.370 . S
C778 C782 1.524 . S
C779 C771 1.503 . S
C779 C778 1.370 . S
C779 C780 1.403 . S
C780 C779 1.403 . S
C780 C781 1.404 . S
C780 C783 1.541 . S
C781 C777 1.408 . S
C781 C780 1.404 . S
C781 H793 0.930 1_455 S
C782 C778 1.524 . S
C782 H794 0.956 . S
C782 H795 0.961 . S
C782 H796 0.961 . S
C783 C780 1.541 . S
C783 H797 0.961 . S
C783 H798 0.957 1_455 S
C783 H799 0.959 . S
H784 C768 0.931 . S
H785 C773 0.929 . S
H786 C774 0.960 . S
H787 C774 0.962 . S
H788 C774 0.960 . S
H789 C775 0.961 . S
H790 C775 0.961 . S
H791 C775 0.961 1_655 S
H792 C776 0.931 . S
H793 C781 0.930 1_655 S
H794 C782 0.956 . S
H795 C782 0.961 . S
H796 C782 0.961 . S
H797 C783 0.961 . S
H798 C783 0.957 1_655 S
H799 C783 0.959 . S
C800 C801 1.391 . S
C800 C802 1.394 . S
C800 H816 0.931 1_655 S
C801 C800 1.391 . S
C801 C805 1.376 . S
C802 C800 1.394 . S
C802 C803 1.369 . S
C802 C806 1.531 . S
C803 C802 1.369 . S
C803 C804 1.410 . S
C803 C811 1.503 . S
C804 C803 1.410 . S
C804 C805 1.392 . S
C804 C807 1.511 . S
C805 C801 1.376 . S
C805 C804 1.392 . S
C805 H817 0.929 . S
C806 C802 1.531 . S
C806 H818 0.960 . S
C806 H819 0.962 1_655 S
C806 H820 0.960 . S
C807 C804 1.511 . S
C807 H821 0.961 . S
C807 H822 0.961 . S
C807 H823 0.961 . S
C808 C809 1.370 . S
C808 C810 1.363 . S
C808 H824 0.931 . S
C809 C808 1.370 . S
C809 C813 1.408 . S
C810 C808 1.363 . S
C810 C811 1.370 . S
C810 C814 1.524 . S
C811 C803 1.503 . S
C811 C810 1.370 . S
C811 C812 1.403 . S
C812 C811 1.403 . S
C812 C813 1.404 . S
C812 C815 1.539 . S
C813 C809 1.408 . S
C813 C812 1.404 . S
C813 H825 0.930 . S
C814 C810 1.524 . S
C814 H826 0.956 1_655 S
C814 H827 0.961 . S
C814 H828 0.958 1_655 S
C815 C812 1.539 . S
C815 H829 0.958 . S
C815 H830 0.961 . S
C815 H831 0.960 . S
H816 C800 0.931 1_455 S
H817 C805 0.929 . S
H818 C806 0.960 . S
H819 C806 0.962 1_455 S
H820 C806 0.960 . S
H821 C807 0.961 . S
H822 C807 0.961 . S
H823 C807 0.961 . S
H824 C808 0.931 . S
H825 C813 0.930 . S
H826 C814 0.956 1_455 S
H827 C814 0.961 . S
H828 C814 0.958 1_455 S
H829 C815 0.958 . S
H830 C815 0.961 . S
H831 C815 0.960 . S
C832 C833 1.391 . S
C832 C834 1.394 . S
C832 H848 0.931 . S
C833 C832 1.391 . S
C833 C837 1.376 . S
C834 C832 1.394 . S
C834 C835 1.369 . S
C834 C838 1.531 . S
C835 C834 1.369 . S
C835 C836 1.410 . S
C835 C843 1.503 . S
C836 C835 1.410 . S
C836 C837 1.392 . S
C836 C839 1.511 . S
C837 C833 1.376 . S
C837 C836 1.392 . S
C837 H849 0.929 . S
C838 C834 1.531 . S
C838 H850 0.960 . S
C838 H851 0.962 . S
C838 H852 0.960 . S
C839 C836 1.511 . S
C839 H853 0.961 . S
C839 H854 0.961 . S
C839 H855 0.961 . S
C840 C841 1.370 . S
C840 C842 1.363 . S
C840 H856 0.931 . S
C841 C840 1.370 . S
C841 C845 1.408 . S
C842 C840 1.363 . S
C842 C843 1.370 . S
C842 C846 1.524 . S
C843 C835 1.503 . S
C843 C842 1.370 . S
C843 C844 1.403 . S
C844 C843 1.403 . S
C844 C845 1.404 . S
C844 C847 1.539 . S
C845 C841 1.408 . S
C845 C844 1.404 . S
C845 H857 0.930 . S
C846 C842 1.524 . S
C846 H858 0.956 . S
C846 H859 0.961 . S
C846 H860 0.961 . S
C847 C844 1.539 . S
C847 H861 0.958 . S
C847 H862 0.961 . S
C847 H863 0.960 . S
H848 C832 0.931 . S
H849 C837 0.929 . S
H850 C838 0.960 . S
H851 C838 0.962 . S
H852 C838 0.960 . S
H853 C839 0.961 . S
H854 C839 0.961 . S
H855 C839 0.961 . S
H856 C840 0.931 . S
H857 C845 0.930 . S
H858 C846 0.956 . S
H859 C846 0.961 . S
H860 C846 0.961 . S
H861 C847 0.958 . S
H862 C847 0.961 . S
H863 C847 0.960 . S
C864 C865 1.391 . S
C864 C866 1.394 . S
C864 H880 0.931 . S
C865 C864 1.391 . S
C865 C869 1.376 . S
C866 C864 1.394 . S
C866 C867 1.369 . S
C866 C870 1.531 . S
C867 C866 1.369 . S
C867 C868 1.410 . S
C867 C875 1.503 . S
C868 C867 1.410 . S
C868 C869 1.392 . S
C868 C871 1.511 . S
C869 C865 1.376 . S
C869 C868 1.392 . S
C869 H881 0.929 . S
C870 C866 1.531 . S
C870 H882 0.960 . S
C870 H883 0.962 . S
C870 H884 0.960 . S
C871 C868 1.511 . S
C871 H885 0.961 . S
C871 H886 0.961 . S
C871 H887 0.961 . S
C872 C873 1.370 . S
C872 C874 1.363 . S
C872 H888 0.931 . S
C873 C872 1.370 . S
C873 C877 1.408 . S
C874 C872 1.363 . S
C874 C875 1.370 . S
C874 C878 1.524 . S
C875 C867 1.503 . S
C875 C874 1.370 . S
C875 C876 1.403 . S
C876 C875 1.403 . S
C876 C877 1.404 . S
C876 C879 1.539 . S
C877 C873 1.408 . S
C877 C876 1.404 . S
C877 H889 0.930 . S
C878 C874 1.524 . S
C878 H890 0.956 . S
C878 H891 0.961 . S
C878 H892 0.961 . S
C879 C876 1.539 . S
C879 H893 0.958 . S
C879 H894 0.961 . S
C879 H895 0.960 . S
H880 C864 0.931 . S
H881 C869 0.929 . S
H882 C870 0.960 . S
H883 C870 0.962 . S
H884 C870 0.960 . S
H885 C871 0.961 . S
H886 C871 0.961 . S
H887 C871 0.961 . S
H888 C872 0.931 . S
H889 C877 0.930 . S
H890 C878 0.956 . S
H891 C878 0.961 . S
H892 C878 0.961 . S
H893 C879 0.958 . S
H894 C879 0.961 . S
H895 C879 0.960 . S
C896 C897 1.391 . S
C896 C898 1.394 . S
C896 H912 0.931 . S
C897 C896 1.391 . S
C897 C901 1.376 . S
C898 C896 1.394 . S
C898 C899 1.369 . S
C898 C902 1.531 . S
C899 C898 1.369 . S
C899 C900 1.410 . S
C899 C907 1.503 . S
C900 C899 1.410 . S
C900 C901 1.392 . S
C900 C903 1.511 . S
C901 C897 1.376 . S
C901 C900 1.392 . S
C901 H913 0.929 . S
C902 C898 1.531 . S
C902 H914 0.960 . S
C902 H915 0.962 . S
C902 H916 0.949 1_565 S
C903 C900 1.511 . S
C903 H917 0.961 . S
C903 H918 0.961 . S
C903 H919 0.961 . S
C904 C905 1.370 . S
C904 C906 1.363 . S
C904 H920 0.931 . S
C905 C904 1.370 . S
C905 C909 1.408 . S
C906 C904 1.363 . S
C906 C907 1.370 . S
C906 C910 1.524 . S
C907 C899 1.503 . S
C907 C906 1.370 . S
C907 C908 1.403 . S
C908 C907 1.403 . S
C908 C909 1.404 . S
C908 C911 1.549 . S
C909 C905 1.408 . S
C909 C908 1.404 . S
C909 H921 0.900 1_565 S
C910 C906 1.524 . S
C910 H922 0.956 . S
C910 H923 0.961 . S
C910 H924 0.961 . S
C911 C908 1.549 . S
C911 H925 0.944 1_565 S
C911 H926 0.957 1_565 S
C911 H927 0.968 . S
H912 C896 0.931 . S
H913 C901 0.929 . S
H914 C902 0.960 . S
H915 C902 0.962 . S
H916 C902 0.949 1_545 S
H917 C903 0.961 . S
H918 C903 0.961 . S
H919 C903 0.961 . S
H920 C904 0.931 . S
H921 C909 0.900 1_545 S
H922 C910 0.956 . S
H923 C910 0.961 . S
H924 C910 0.961 . S
H925 C911 0.944 1_545 S
H926 C911 0.957 1_545 S
H927 C911 0.968 . S
C928 C929 1.391 . S
C928 C930 1.394 . S
C928 H944 0.931 . S
C929 C928 1.391 . S
C929 C933 1.376 . S
C930 C928 1.394 . S
C930 C931 1.369 . S
C930 C934 1.531 . S
C931 C930 1.369 . S
C931 C932 1.410 . S
C931 C939 1.503 . S
C932 C931 1.410 . S
C932 C933 1.392 . S
C932 C935 1.511 . S
C933 C929 1.376 . S
C933 C932 1.392 . S
C933 H945 0.929 . S
C934 C930 1.531 . S
C934 H946 0.960 . S
C934 H947 0.962 . S
C934 H948 0.960 . S
C935 C932 1.511 . S
C935 H949 0.961 . S
C935 H950 0.961 . S
C935 H951 0.961 . S
C936 C937 1.370 . S
C936 C938 1.363 . S
C936 H952 0.931 . S
C937 C936 1.370 . S
C937 C941 1.408 . S
C938 C936 1.363 . S
C938 C939 1.370 . S
C938 C942 1.524 . S
C939 C931 1.503 . S
C939 C938 1.370 . S
C939 C940 1.403 . S
C940 C939 1.403 . S
C940 C941 1.404 . S
C940 C943 1.539 . S
C941 C937 1.408 . S
C941 C940 1.404 . S
C941 H953 0.930 . S
C942 C938 1.524 . S
C942 H954 0.956 . S
C942 H955 0.961 . S
C942 H956 0.961 . S
C943 C940 1.539 . S
C943 H957 0.958 . S
C943 H958 0.961 . S
C943 H959 0.960 . S
H944 C928 0.931 . S
H945 C933 0.929 . S
H946 C934 0.960 . S
H947 C934 0.962 . S
H948 C934 0.960 . S
H949 C935 0.961 . S
H950 C935 0.961 . S
H951 C935 0.961 . S
H952 C936 0.931 . S
H953 C941 0.930 . S
H954 C942 0.956 . S
H955 C942 0.961 . S
H956 C942 0.961 . S
H957 C943 0.958 . S
H958 C943 0.961 . S
H959 C943 0.960 . S
C960 C961 1.391 . S
C960 C962 1.417 . S
C960 H976 0.931 . S
C961 C960 1.391 . S
C961 C965 1.376 . S
C962 C960 1.417 . S
C962 C963 1.367 1_554 S
C962 C966 1.508 1_554 S
C963 C962 1.367 1_556 S
C963 C964 1.390 1_556 S
C963 C971 1.523 . S
C964 C963 1.390 1_554 S
C964 C965 1.392 . S
C964 C967 1.511 . S
C965 C961 1.376 . S
C965 C964 1.392 . S
C965 H977 0.929 . S
C966 C962 1.508 1_556 S
C966 H978 0.960 . S
C966 H979 0.962 . S
C966 H980 0.960 . S
C967 C964 1.511 . S
C967 H981 0.961 . S
C967 H982 0.961 . S
C967 H983 0.961 . S
C968 C969 1.370 . S
C968 C970 1.363 . S
C968 H984 0.931 . S
C969 C968 1.370 . S
C969 C973 1.408 . S
C970 C968 1.363 . S
C970 C971 1.370 . S
C970 C974 1.524 . S
C971 C963 1.523 . S
C971 C970 1.370 . S
C971 C972 1.403 . S
C972 C971 1.403 . S
C972 C973 1.404 . S
C972 C975 1.539 . S
C973 C969 1.408 . S
C973 C972 1.404 . S
C973 H985 0.930 . S
C974 C970 1.524 . S
C974 H986 0.956 . S
C974 H987 0.961 1_556 S
C974 H988 0.961 . S
C975 C972 1.539 . S
C975 H989 0.958 . S
C975 H990 0.961 . S
C975 H991 0.960 . S
H976 C960 0.931 . S
H977 C965 0.929 . S
H978 C966 0.960 . S
H979 C966 0.962 . S
H980 C966 0.960 . S
H981 C967 0.961 . S
H982 C967 0.961 . S
H983 C967 0.961 . S
H984 C968 0.931 . S
H985 C973 0.930 . S
H986 C974 0.956 . S
H987 C974 0.961 1_554 S
H988 C974 0.961 . S
H989 C975 0.958 . S
H990 C975 0.961 . S
H991 C975 0.960 . S
C992 C993 1.391 . S
C992 C994 1.394 . S
C992 H1008 0.931 . S
C993 C992 1.391 . S
C993 C997 1.376 . S
C994 C992 1.394 . S
C994 C995 1.369 . S
C994 C998 1.531 . S
C995 C994 1.369 . S
C995 C996 1.410 . S
C995 C1003 1.503 . S
C996 C995 1.410 . S
C996 C997 1.392 . S
C996 C999 1.511 . S
C997 C993 1.376 . S
C997 C996 1.392 . S
C997 H1009 0.929 . S
C998 C994 1.531 . S
C998 H1010 0.960 . S
C998 H1011 0.962 . S
C998 H1012 0.960 . S
C999 C996 1.511 . S
C999 H1013 0.961 . S
C999 H1014 0.961 . S
C999 H1015 0.961 . S
C1000 C1001 1.370 . S
C1000 C1002 1.363 . S
C1000 H1016 0.931 . S
C1001 C1000 1.370 . S
C1001 C1005 1.408 . S
C1002 C1000 1.363 . S
C1002 C1003 1.370 . S
C1002 C1006 1.524 . S
C1003 C995 1.503 . S
C1003 C1002 1.370 . S
C1003 C1004 1.403 . S
C1004 C1003 1.403 . S
C1004 C1005 1.404 . S
C1004 C1007 1.539 . S
C1005 C1001 1.408 . S
C1005 C1004 1.404 . S
C1005 H1017 0.930 . S
C1006 C1002 1.524 . S
C1006 H1018 0.956 . S
C1006 H1019 0.961 . S
C1006 H1020 0.961 . S
C1007 C1004 1.539 . S
C1007 H1021 0.958 . S
C1007 H1022 0.961 . S
C1007 H1023 0.960 . S
H1008 C992 0.931 . S
H1009 C997 0.929 . S
H1010 C998 0.960 . S
H1011 C998 0.962 . S
H1012 C998 0.960 . S
H1013 C999 0.961 . S
H1014 C999 0.961 . S
H1015 C999 0.961 . S
H1016 C1000 0.931 . S
H1017 C1005 0.930 . S
H1018 C1006 0.956 . S
H1019 C1006 0.961 . S
H1020 C1006 0.961 . S
H1021 C1007 0.958 . S
H1022 C1007 0.961 . S
H1023 C1007 0.960 . S
C1024 C1025 1.391 . S
C1024 C1026 1.394 1_554 S
C1024 H1040 0.931 . S
C1025 C1024 1.391 . S
C1025 C1029 1.376 . S
C1026 C1024 1.394 1_556 S
C1026 C1027 1.369 . S
C1026 C1030 1.531 . S
C1027 C1026 1.369 . S
C1027 C1028 1.410 . S
C1027 C1035 1.503 . S
C1028 C1027 1.410 . S
C1028 C1029 1.392 1_556 S
C1028 C1031 1.511 . S
C1029 C1025 1.376 . S
C1029 C1028 1.392 1_554 S
C1029 H1041 0.929 . S
C1030 C1026 1.531 . S
C1030 H1042 0.960 . S
C1030 H1043 0.962 . S
C1030 H1044 0.960 . S
C1031 C1028 1.511 . S
C1031 H1045 0.961 . S
C1031 H1046 0.961 . S
C1031 H1047 0.961 . S
C1032 C1033 1.370 . S
C1032 C1034 1.363 . S
C1032 H1048 0.931 . S
C1033 C1032 1.370 . S
C1033 C1037 1.408 . S
C1034 C1032 1.363 . S
C1034 C1035 1.370 . S
C1034 C1038 1.524 . S
C1035 C1027 1.503 . S
C1035 C1034 1.370 . S
C1035 C1036 1.403 . S
C1036 C1035 1.403 . S
C1036 C1037 1.404 . S
C1036 C1039 1.539 . S
C1037 C1033 1.408 . S
C1037 C1036 1.404 . S
C1037 H1049 0.930 . S
C1038 C1034 1.524 . S
C1038 H1050 0.956 . S
C1038 H1051 0.961 . S
C1038 H1052 0.961 . S
C1039 C1036 1.539 . S
C1039 H1053 0.958 . S
C1039 H1054 0.961 . S
C1039 H1055 0.960 . S
H1040 C1024 0.931 . S
H1041 C1029 0.929 . S
H1042 C1030 0.960 . S
H1043 C1030 0.962 . S
H1044 C1030 0.960 . S
H1045 C1031 0.961 . S
H1046 C1031 0.961 . S
H1047 C1031 0.961 . S
H1048 C1032 0.931 . S
H1049 C1037 0.930 . S
H1050 C1038 0.956 . S
H1051 C1038 0.961 . S
H1052 C1038 0.961 . S
H1053 C1039 0.958 . S
H1054 C1039 0.961 . S
H1055 C1039 0.960 . S
C1056 C1057 1.391 . S
C1056 C1058 1.394 . S
C1056 H1072 0.931 . S
C1057 C1056 1.391 . S
C1057 C1061 1.376 . S
C1058 C1056 1.394 . S
C1058 C1059 1.369 . S
C1058 C1062 1.531 . S
C1059 C1058 1.369 . S
C1059 C1060 1.410 . S
C1059 C1067 1.503 . S
C1060 C1059 1.410 . S
C1060 C1061 1.392 . S
C1060 C1063 1.511 . S
C1061 C1057 1.376 . S
C1061 C1060 1.392 . S
C1061 H1073 0.929 . S
C1062 C1058 1.531 . S
C1062 H1074 0.960 . S
C1062 H1075 0.962 . S
C1062 H1076 0.960 . S
C1063 C1060 1.511 . S
C1063 H1077 0.961 . S
C1063 H1078 0.961 . S
C1063 H1079 0.961 . S
C1064 C1065 1.370 . S
C1064 C1066 1.363 . S
C1064 H1080 0.931 . S
C1065 C1064 1.370 . S
C1065 C1069 1.408 . S
C1066 C1064 1.363 . S
C1066 C1067 1.370 . S
C1066 C1070 1.524 . S
C1067 C1059 1.503 . S
C1067 C1066 1.370 . S
C1067 C1068 1.403 . S
C1068 C1067 1.403 . S
C1068 C1069 1.404 . S
C1068 C1071 1.539 . S
C1069 C1065 1.408 . S
C1069 C1068 1.404 . S
C1069 H1081 0.930 . S
C1070 C1066 1.524 . S
C1070 H1082 0.956 . S
C1070 H1083 0.961 . S
C1070 H1084 0.961 . S
C1071 C1068 1.539 . S
C1071 H1085 0.958 . S
C1071 H1086 0.961 . S
C1071 H1087 0.960 . S
H1072 C1056 0.931 . S
H1073 C1061 0.929 . S
H1074 C1062 0.960 . S
H1075 C1062 0.962 . S
H1076 C1062 0.960 . S
H1077 C1063 0.961 . S
H1078 C1063 0.961 . S
H1079 C1063 0.961 . S
H1080 C1064 0.931 . S
H1081 C1069 0.930 . S
H1082 C1070 0.956 . S
H1083 C1070 0.961 . S
H1084 C1070 0.961 . S
H1085 C1071 0.958 . S
H1086 C1071 0.961 . S
H1087 C1071 0.960 . S
C1088 C1089 1.391 . S
C1088 C1090 1.394 . S
C1088 H1104 0.931 . S
C1089 C1088 1.391 . S
C1089 C1093 1.376 . S
C1090 C1088 1.394 . S
C1090 C1091 1.369 . S
C1090 C1094 1.531 . S
C1091 C1090 1.369 . S
C1091 C1092 1.410 . S
C1091 C1099 1.503 . S
C1092 C1091 1.410 . S
C1092 C1093 1.392 . S
C1092 C1095 1.511 . S
C1093 C1089 1.376 . S
C1093 C1092 1.392 . S
C1093 H1105 0.929 . S
C1094 C1090 1.531 . S
C1094 H1106 0.960 . S
C1094 H1107 0.962 . S
C1094 H1108 0.960 . S
C1095 C1092 1.511 . S
C1095 H1109 0.961 . S
C1095 H1110 0.961 . S
C1095 H1111 0.961 . S
C1096 C1097 1.370 . S
C1096 C1098 1.363 . S
C1096 H1112 0.931 . S
C1097 C1096 1.370 . S
C1097 C1101 1.408 . S
C1098 C1096 1.363 . S
C1098 C1099 1.370 . S
C1098 C1102 1.524 . S
C1099 C1091 1.503 . S
C1099 C1098 1.370 . S
C1099 C1100 1.403 . S
C1100 C1099 1.403 . S
C1100 C1101 1.404 . S
C1100 C1103 1.539 . S
C1101 C1097 1.408 . S
C1101 C1100 1.404 . S
C1101 H1113 0.930 . S
C1102 C1098 1.524 . S
C1102 H1114 0.956 . S
C1102 H1115 0.961 . S
C1102 H1116 0.961 . S
C1103 C1100 1.539 . S
C1103 H1117 0.958 . S
C1103 H1118 0.961 . S
C1103 H1119 0.960 . S
H1104 C1088 0.931 . S
H1105 C1093 0.929 . S
H1106 C1094 0.960 . S
H1107 C1094 0.962 . S
H1108 C1094 0.960 . S
H1109 C1095 0.961 . S
H1110 C1095 0.961 . S
H1111 C1095 0.961 . S
H1112 C1096 0.931 . S
H1113 C1101 0.930 . S
H1114 C1102 0.956 . S
H1115 C1102 0.961 . S
H1116 C1102 0.961 . S
H1117 C1103 0.958 . S
H1118 C1103 0.961 . S
H1119 C1103 0.960 . S
C1120 C1121 1.391 . S
C1120 C1122 1.394 . S
C1120 H1136 0.931 . S
C1121 C1120 1.391 . S
C1121 C1125 1.376 . S
C1122 C1120 1.394 . S
C1122 C1123 1.369 . S
C1122 C1126 1.531 . S
C1123 C1122 1.369 . S
C1123 C1124 1.410 . S
C1123 C1131 1.503 . S
C1124 C1123 1.410 . S
C1124 C1125 1.392 . S
C1124 C1127 1.511 . S
C1125 C1121 1.376 . S
C1125 C1124 1.392 . S
C1125 H1137 0.929 . S
C1126 C1122 1.531 . S
C1126 H1138 0.960 . S
C1126 H1139 0.962 . S
C1126 H1140 0.960 . S
C1127 C1124 1.511 . S
C1127 H1141 0.961 . S
C1127 H1142 0.961 . S
C1127 H1143 0.961 . S
C1128 C1129 1.370 . S
C1128 C1130 1.363 . S
C1128 H1144 0.931 . S
C1129 C1128 1.370 . S
C1129 C1133 1.408 . S
C1130 C1128 1.363 . S
C1130 C1131 1.370 . S
C1130 C1134 1.524 . S
C1131 C1123 1.503 . S
C1131 C1130 1.370 . S
C1131 C1132 1.403 . S
C1132 C1131 1.403 . S
C1132 C1133 1.404 . S
C1132 C1135 1.539 . S
C1133 C1129 1.408 . S
C1133 C1132 1.404 . S
C1133 H1145 0.930 . S
C1134 C1130 1.524 . S
C1134 H1146 0.956 . S
C1134 H1147 0.961 . S
C1134 H1148 0.961 . S
C1135 C1132 1.539 . S
C1135 H1149 0.958 . S
C1135 H1150 0.961 . S
C1135 H1151 0.960 . S
H1136 C1120 0.931 . S
H1137 C1125 0.929 . S
H1138 C1126 0.960 . S
H1139 C1126 0.962 . S
H1140 C1126 0.960 . S
H1141 C1127 0.961 . S
H1142 C1127 0.961 . S
H1143 C1127 0.961 . S
H1144 C1128 0.931 . S
H1145 C1133 0.930 . S
H1146 C1134 0.956 . S
H1147 C1134 0.961 . S
H1148 C1134 0.961 . S
H1149 C1135 0.958 . S
H1150 C1135 0.961 . S
H1151 C1135 0.960 . S
C1152 C1153 1.391 . S
C1152 C1154 1.394 . S
C1152 H1168 0.931 . S
C1153 C1152 1.391 . S
C1153 C1157 1.376 . S
C1154 C1152 1.394 . S
C1154 C1155 1.369 . S
C1154 C1158 1.531 . S
C1155 C1154 1.369 . S
C1155 C1156 1.410 . S
C1155 C1163 1.503 . S
C1156 C1155 1.410 . S
C1156 C1157 1.392 . S
C1156 C1159 1.511 . S
C1157 C1153 1.376 . S
C1157 C1156 1.392 . S
C1157 H1169 0.929 . S
C1158 C1154 1.531 . S
C1158 H1170 0.960 . S
C1158 H1171 0.962 . S
C1158 H1172 0.960 . S
C1159 C1156 1.511 . S
C1159 H1173 0.961 . S
C1159 H1174 0.961 . S
C1159 H1175 0.961 . S
C1160 C1161 1.370 . S
C1160 C1162 1.363 . S
C1160 H1176 0.931 . S
C1161 C1160 1.370 . S
C1161 C1165 1.408 . S
C1162 C1160 1.363 . S
C1162 C1163 1.370 1_565 S
C1162 C1166 1.524 . S
C1163 C1155 1.503 . S
C1163 C1162 1.370 1_545 S
C1163 C1164 1.403 . S
C1164 C1163 1.403 . S
C1164 C1165 1.404 1_545 S
C1164 C1167 1.539 . S
C1165 C1161 1.408 . S
C1165 C1164 1.404 1_565 S
C1165 H1177 0.930 . S
C1166 C1162 1.524 . S
C1166 H1178 0.956 1_565 S
C1166 H1179 0.961 1_565 S
C1166 H1180 0.961 . S
C1167 C1164 1.539 . S
C1167 H1181 0.958 . S
C1167 H1182 0.961 1_455 S
C1167 H1183 0.960 . S
H1168 C1152 0.931 . S
H1169 C1157 0.929 . S
H1170 C1158 0.960 . S
H1171 C1158 0.962 . S
H1172 C1158 0.960 . S
H1173 C1159 0.961 . S
H1174 C1159 0.961 . S
H1175 C1159 0.961 . S
H1176 C1160 0.931 . S
H1177 C1165 0.930 . S
H1178 C1166 0.956 1_545 S
H1179 C1166 0.961 1_545 S
H1180 C1166 0.961 . S
H1181 C1167 0.958 . S
H1182 C1167 0.961 1_655 S
H1183 C1167 0.960 . S
C1184 C1185 1.391 . S
C1184 C1186 1.394 . S
C1184 H1200 0.931 . S
C1185 C1184 1.391 . S
C1185 C1189 1.376 . S
C1186 C1184 1.394 . S
C1186 C1187 1.369 . S
C1186 C1190 1.531 . S
C1187 C1186 1.369 . S
C1187 C1188 1.410 . S
C1187 C1195 1.503 . S
C1188 C1187 1.410 . S
C1188 C1189 1.392 . S
C1188 C1191 1.511 . S
C1189 C1185 1.376 . S
C1189 C1188 1.392 . S
C1189 H1201 0.929 . S
C1190 C1186 1.531 . S
C1190 H1202 0.960 . S
C1190 H1203 0.962 . S
C1190 H1204 0.960 . S
C1191 C1188 1.511 . S
C1191 H1205 0.961 . S
C1191 H1206 0.961 . S
C1191 H1207 0.961 . S
C1192 C1193 1.370 . S
C1192 C1194 1.363 . S
C1192 H1208 0.931 . S
C1193 C1192 1.370 . S
C1193 C1197 1.408 . S
C1194 C1192 1.363 . S
C1194 C1195 1.370 . S
C1194 C1198 1.524 . S
C1195 C1187 1.503 . S
C1195 C1194 1.370 . S
C1195 C1196 1.403 . S
C1196 C1195 1.403 . S
C1196 C1197 1.404 . S
C1196 C1199 1.539 . S
C1197 C1193 1.408 . S
C1197 C1196 1.404 . S
C1197 H1209 0.930 . S
C1198 C1194 1.524 . S
C1198 H1210 0.956 . S
C1198 H1211 0.961 . S
C1198 H1212 0.961 . S
C1199 C1196 1.539 . S
C1199 H1213 0.958 . S
C1199 H1214 0.961 . S
C1199 H1215 0.960 . S
H1200 C1184 0.931 . S
H1201 C1189 0.929 . S
H1202 C1190 0.960 . S
H1203 C1190 0.962 . S
H1204 C1190 0.960 . S
H1205 C1191 0.961 . S
H1206 C1191 0.961 . S
H1207 C1191 0.961 . S
H1208 C1192 0.931 . S
H1209 C1197 0.930 . S
H1210 C1198 0.956 . S
H1211 C1198 0.961 . S
H1212 C1198 0.961 . S
H1213 C1199 0.958 . S
H1214 C1199 0.961 . S
H1215 C1199 0.960 . S
C1216 C1217 1.391 . S
C1216 C1218 1.394 . S
C1216 H1232 0.931 . S
C1217 C1216 1.391 . S
C1217 C1221 1.376 . S
C1218 C1216 1.394 . S
C1218 C1219 1.369 . S
C1218 C1222 1.531 . S
C1219 C1218 1.369 . S
C1219 C1220 1.410 . S
C1219 C1227 1.503 . S
C1220 C1219 1.410 . S
C1220 C1221 1.392 . S
C1220 C1223 1.511 . S
C1221 C1217 1.376 . S
C1221 C1220 1.392 . S
C1221 H1233 0.929 . S
C1222 C1218 1.531 . S
C1222 H1234 0.960 . S
C1222 H1235 0.962 . S
C1222 H1236 0.960 . S
C1223 C1220 1.511 . S
C1223 H1237 0.961 . S
C1223 H1238 0.961 1_545 S
C1223 H1239 0.961 . S
C1224 C1225 1.370 . S
C1224 C1226 1.363 . S
C1224 H1240 0.931 . S
C1225 C1224 1.370 . S
C1225 C1229 1.408 . S
C1226 C1224 1.363 . S
C1226 C1227 1.370 1_565 S
C1226 C1230 1.524 . S
C1227 C1219 1.503 . S
C1227 C1226 1.370 1_545 S
C1227 C1228 1.403 1_545 S
C1228 C1227 1.403 1_565 S
C1228 C1229 1.404 . S
C1228 C1231 1.539 1_565 S
C1229 C1225 1.408 . S
C1229 C1228 1.404 . S
C1229 H1241 0.930 . S
C1230 C1226 1.524 . S
C1230 H1242 0.956 1_565 S
C1230 H1243 0.961 . S
C1230 H1244 0.961 . S
C1231 C1228 1.539 1_545 S
C1231 H1245 0.958 . S
C1231 H1246 0.961 . S
C1231 H1247 0.960 . S
H1232 C1216 0.931 . S
H1233 C1221 0.929 . S
H1234 C1222 0.960 . S
H1235 C1222 0.962 . S
H1236 C1222 0.960 . S
H1237 C1223 0.961 . S
H1238 C1223 0.961 1_565 S
H1239 C1223 0.961 . S
H1240 C1224 0.931 . S
H1241 C1229 0.930 . S
H1242 C1230 0.956 1_545 S
H1243 C1230 0.961 . S
H1244 C1230 0.961 . S
H1245 C1231 0.958 . S
H1246 C1231 0.961 . S
H1247 C1231 0.960 . S
C1248 C1249 1.391 . S
C1248 C1250 1.394 . S
C1248 H1264 0.931 . S
C1249 C1248 1.391 . S
C1249 C1253 1.376 . S
C1250 C1248 1.394 . S
C1250 C1251 1.369 . S
C1250 C1254 1.531 . S
C1251 C1250 1.369 . S
C1251 C1252 1.410 . S
C1251 C1259 1.503 . S
C1252 C1251 1.410 . S
C1252 C1253 1.392 . S
C1252 C1255 1.511 . S
C1253 C1249 1.376 . S
C1253 C1252 1.392 . S
C1253 H1265 0.929 . S
C1254 C1250 1.531 . S
C1254 H1266 0.960 . S
C1254 H1267 0.962 . S
C1254 H1268 0.960 . S
C1255 C1252 1.511 . S
C1255 H1269 0.961 . S
C1255 H1270 0.961 . S
C1255 H1271 0.961 . S
C1256 C1257 1.370 . S
C1256 C1258 1.363 . S
C1256 H1272 0.931 . S
C1257 C1256 1.370 . S
C1257 C1261 1.408 . S
C1258 C1256 1.363 . S
C1258 C1259 1.370 . S
C1258 C1262 1.524 . S
C1259 C1251 1.503 . S
C1259 C1258 1.370 . S
C1259 C1260 1.403 . S
C1260 C1259 1.403 . S
C1260 C1261 1.404 . S
C1260 C1263 1.539 . S
C1261 C1257 1.408 . S
C1261 C1260 1.404 . S
C1261 H1273 0.930 . S
C1262 C1258 1.524 . S
C1262 H1274 0.956 . S
C1262 H1275 0.961 . S
C1262 H1276 0.961 . S
C1263 C1260 1.539 . S
C1263 H1277 0.958 . S
C1263 H1278 0.961 . S
C1263 H1279 0.960 . S
H1264 C1248 0.931 . S
H1265 C1253 0.929 . S
H1266 C1254 0.960 . S
H1267 C1254 0.962 . S
H1268 C1254 0.960 . S
H1269 C1255 0.961 . S
H1270 C1255 0.961 . S
H1271 C1255 0.961 . S
H1272 C1256 0.931 . S
H1273 C1261 0.930 . S
H1274 C1262 0.956 . S
H1275 C1262 0.961 . S
H1276 C1262 0.961 . S
H1277 C1263 0.958 . S
H1278 C1263 0.961 . S
H1279 C1263 0.960 . S
C1280 C1281 1.391 . S
C1280 C1282 1.394 . S
C1280 H1296 0.931 . S
C1281 C1280 1.391 . S
C1281 C1285 1.376 . S
C1282 C1280 1.394 . S
C1282 C1283 1.369 . S
C1282 C1286 1.531 . S
C1283 C1282 1.369 . S
C1283 C1284 1.410 . S
C1283 C1291 1.503 . S
C1284 C1283 1.410 . S
C1284 C1285 1.392 . S
C1284 C1287 1.511 . S
C1285 C1281 1.376 . S
C1285 C1284 1.392 . S
C1285 H1297 0.929 . S
C1286 C1282 1.531 . S
C1286 H1298 0.960 . S
C1286 H1299 0.962 . S
C1286 H1300 0.960 . S
C1287 C1284 1.511 . S
C1287 H1301 0.961 . S
C1287 H1302 0.961 . S
C1287 H1303 0.961 . S
C1288 C1289 1.370 . S
C1288 C1290 1.363 . S
C1288 H1304 0.931 . S
C1289 C1288 1.370 . S
C1289 C1293 1.408 . S
C1290 C1288 1.363 . S
C1290 C1291 1.370 . S
C1290 C1294 1.524 . S
C1291 C1283 1.503 . S
C1291 C1290 1.370 . S
C1291 C1292 1.403 . S
C1292 C1291 1.403 . S
C1292 C1293 1.404 . S
C1292 C1295 1.539 . S
C1293 C1289 1.408 . S
C1293 C1292 1.404 . S
C1293 H1305 0.930 . S
C1294 C1290 1.524 . S
C1294 H1306 0.956 . S
C1294 H1307 0.961 . S
C1294 H1308 0.961 . S
C1295 C1292 1.539 . S
C1295 H1309 0.958 . S
C1295 H1310 0.961 . S
C1295 H1311 0.960 . S
H1296 C1280 0.931 . S
H1297 C1285 0.929 . S
H1298 C1286 0.960 . S
H1299 C1286 0.962 . S
H1300 C1286 0.960 . S
H1301 C1287 0.961 . S
H1302 C1287 0.961 . S
H1303 C1287 0.961 . S
H1304 C1288 0.931 . S
H1305 C1293 0.930 . S
H1306 C1294 0.956 . S
H1307 C1294 0.961 . S
H1308 C1294 0.961 . S
H1309 C1295 0.958 . S
H1310 C1295 0.961 . S
H1311 C1295 0.960 . S
C1312 C1313 1.391 . S
C1312 C1314 1.394 . S
C1312 H1328 0.931 . S
C1313 C1312 1.391 . S
C1313 C1317 1.376 . S
C1314 C1312 1.394 . S
C1314 C1315 1.369 . S
C1314 C1318 1.531 . S
C1315 C1314 1.369 . S
C1315 C1316 1.410 . S
C1315 C1323 1.503 . S
C1316 C1315 1.410 . S
C1316 C1317 1.392 . S
C1316 C1319 1.511 . S
C1317 C1313 1.376 . S
C1317 C1316 1.392 . S
C1317 H1329 0.929 . S
C1318 C1314 1.531 . S
C1318 H1330 0.960 . S
C1318 H1331 0.962 . S
C1318 H1332 0.960 . S
C1319 C1316 1.511 . S
C1319 H1333 0.961 . S
C1319 H1334 0.961 . S
C1319 H1335 0.961 . S
C1320 C1321 1.370 . S
C1320 C1322 1.363 . S
C1320 H1336 0.931 . S
C1321 C1320 1.370 . S
C1321 C1325 1.408 . S
C1322 C1320 1.363 . S
C1322 C1323 1.370 . S
C1322 C1326 1.524 . S
C1323 C1315 1.503 . S
C1323 C1322 1.370 . S
C1323 C1324 1.403 . S
C1324 C1323 1.403 . S
C1324 C1325 1.404 . S
C1324 C1327 1.539 . S
C1325 C1321 1.408 . S
C1325 C1324 1.404 . S
C1325 H1337 0.930 . S
C1326 C1322 1.524 . S
C1326 H1338 0.956 . S
C1326 H1339 0.961 . S
C1326 H1340 0.961 . S
C1327 C1324 1.539 . S
C1327 H1341 0.958 . S
C1327 H1342 0.961 . S
C1327 H1343 0.960 . S
H1328 C1312 0.931 . S
H1329 C1317 0.929 . S
H1330 C1318 0.960 . S
H1331 C1318 0.962 . S
H1332 C1318 0.960 . S
H1333 C1319 0.961 . S
H1334 C1319 0.961 . S
H1335 C1319 0.961 . S
H1336 C1320 0.931 . S
H1337 C1325 0.930 . S
H1338 C1326 0.956 . S
H1339 C1326 0.961 . S
H1340 C1326 0.961 . S
H1341 C1327 0.958 . S
H1342 C1327 0.961 . S
H1343 C1327 0.960 . S
C1344 C1345 1.391 . S
C1344 C1346 1.394 . S
C1344 H1360 0.931 . S
C1345 C1344 1.391 . S
C1345 C1349 1.376 . S
C1346 C1344 1.394 . S
C1346 C1347 1.369 . S
C1346 C1350 1.531 . S
C1347 C1346 1.369 . S
C1347 C1348 1.410 . S
C1347 C1355 1.503 . S
C1348 C1347 1.410 . S
C1348 C1349 1.392 . S
C1348 C1351 1.511 . S
C1349 C1345 1.376 . S
C1349 C1348 1.392 . S
C1349 H1361 0.929 . S
C1350 C1346 1.531 . S
C1350 H1362 0.960 . S
C1350 H1363 0.962 . S
C1350 H1364 0.960 . S
C1351 C1348 1.511 . S
C1351 H1365 0.961 . S
C1351 H1366 0.961 . S
C1351 H1367 0.961 . S
C1352 C1353 1.370 . S
C1352 C1354 1.363 . S
C1352 H1368 0.931 . S
C1353 C1352 1.370 . S
C1353 C1357 1.408 . S
C1354 C1352 1.363 . S
C1354 C1355 1.370 . S
C1354 C1358 1.524 . S
C1355 C1347 1.503 . S
C1355 C1354 1.370 . S
C1355 C1356 1.403 . S
C1356 C1355 1.403 . S
C1356 C1357 1.404 . S
C1356 C1359 1.539 . S
C1357 C1353 1.408 . S
C1357 C1356 1.404 . S
C1357 H1369 0.930 . S
C1358 C1354 1.524 . S
C1358 H1370 0.956 . S
C1358 H1371 0.961 . S
C1358 H1372 0.961 . S
C1359 C1356 1.539 . S
C1359 H1373 0.958 . S
C1359 H1374 0.961 . S
C1359 H1375 0.960 . S
H1360 C1344 0.931 . S
H1361 C1349 0.929 . S
H1362 C1350 0.960 . S
H1363 C1350 0.962 . S
H1364 C1350 0.960 . S
H1365 C1351 0.961 . S
H1366 C1351 0.961 . S
H1367 C1351 0.961 . S
H1368 C1352 0.931 . S
H1369 C1357 0.930 . S
H1370 C1358 0.956 . S
H1371 C1358 0.961 . S
H1372 C1358 0.961 . S
H1373 C1359 0.958 . S
H1374 C1359 0.961 . S
H1375 C1359 0.960 . S
C1376 C1377 1.391 . S
C1376 C1378 1.394 . S
C1376 H1392 0.931 . S
C1377 C1376 1.391 . S
C1377 C1381 1.376 . S
C1378 C1376 1.394 . S
C1378 C1379 1.369 . S
C1378 C1382 1.531 . S
C1379 C1378 1.369 . S
C1379 C1380 1.410 . S
C1379 C1387 1.503 . S
C1380 C1379 1.410 . S
C1380 C1381 1.392 . S
C1380 C1383 1.511 . S
C1381 C1377 1.376 . S
C1381 C1380 1.392 . S
C1381 H1393 0.929 . S
C1382 C1378 1.531 . S
C1382 H1394 0.960 . S
C1382 H1395 0.962 . S
C1382 H1396 0.960 . S
C1383 C1380 1.511 . S
C1383 H1397 0.961 . S
C1383 H1398 0.961 . S
C1383 H1399 0.961 . S
C1384 C1385 1.370 . S
C1384 C1386 1.363 . S
C1384 H1400 0.931 . S
C1385 C1384 1.370 . S
C1385 C1389 1.408 . S
C1386 C1384 1.363 . S
C1386 C1387 1.370 . S
C1386 C1390 1.524 . S
C1387 C1379 1.503 . S
C1387 C1386 1.370 . S
C1387 C1388 1.403 . S
C1388 C1387 1.403 . S
C1388 C1389 1.404 . S
C1388 C1391 1.539 . S
C1389 C1385 1.408 . S
C1389 C1388 1.404 . S
C1389 H1401 0.930 . S
C1390 C1386 1.524 . S
C1390 H1402 0.956 . S
C1390 H1403 0.961 . S
C1390 H1404 0.961 . S
C1391 C1388 1.539 . S
C1391 H1405 0.958 . S
C1391 H1406 0.961 . S
C1391 H1407 0.960 . S
H1392 C1376 0.931 . S
H1393 C1381 0.929 . S
H1394 C1382 0.960 . S
H1395 C1382 0.962 . S
H1396 C1382 0.960 . S
H1397 C1383 0.961 . S
H1398 C1383 0.961 . S
H1399 C1383 0.961 . S
H1400 C1384 0.931 . S
H1401 C1389 0.930 . S
H1402 C1390 0.956 . S
H1403 C1390 0.961 . S
H1404 C1390 0.961 . S
H1405 C1391 0.958 . S
H1406 C1391 0.961 . S
H1407 C1391 0.960 . S
C1408 C1409 1.391 . S
C1408 C1410 1.394 . S
C1408 H1424 0.931 . S
C1409 C1408 1.391 . S
C1409 C1413 1.376 . S
C1410 C1408 1.394 . S
C1410 C1411 1.369 . S
C1410 C1414 1.531 . S
C1411 C1410 1.369 . S
C1411 C1412 1.410 . S
C1411 C1419 1.503 . S
C1412 C1411 1.410 . S
C1412 C1413 1.392 . S
C1412 C1415 1.511 . S
C1413 C1409 1.376 . S
C1413 C1412 1.392 . S
C1413 H1425 0.929 . S
C1414 C1410 1.531 . S
C1414 H1426 0.960 . S
C1414 H1427 0.962 . S
C1414 H1428 0.960 . S
C1415 C1412 1.511 . S
C1415 H1429 0.961 . S
C1415 H1430 0.961 . S
C1415 H1431 0.961 . S
C1416 C1417 1.370 . S
C1416 C1418 1.363 . S
C1416 H1432 0.931 . S
C1417 C1416 1.370 . S
C1417 C1421 1.408 . S
C1418 C1416 1.363 . S
C1418 C1419 1.370 . S
C1418 C1422 1.524 . S
C1419 C1411 1.503 . S
C1419 C1418 1.370 . S
C1419 C1420 1.403 . S
C1420 C1419 1.403 . S
C1420 C1421 1.404 . S
C1420 C1423 1.539 . S
C1421 C1417 1.408 . S
C1421 C1420 1.404 . S
C1421 H1433 0.930 . S
C1422 C1418 1.524 . S
C1422 H1434 0.956 . S
C1422 H1435 0.961 . S
C1422 H1436 0.961 . S
C1423 C1420 1.539 . S
C1423 H1437 0.958 . S
C1423 H1438 0.961 . S
C1423 H1439 0.960 . S
H1424 C1408 0.931 . S
H1425 C1413 0.929 . S
H1426 C1414 0.960 . S
H1427 C1414 0.962 . S
H1428 C1414 0.960 . S
H1429 C1415 0.961 . S
H1430 C1415 0.961 . S
H1431 C1415 0.961 . S
H1432 C1416 0.931 . S
H1433 C1421 0.930 . S
H1434 C1422 0.956 . S
H1435 C1422 0.961 . S
H1436 C1422 0.961 . S
H1437 C1423 0.958 . S
H1438 C1423 0.961 . S
H1439 C1423 0.960 . S
C1440 C1441 1.391 . S
C1440 C1442 1.394 . S
C1440 H1456 0.931 . S
C1441 C1440 1.391 . S
C1441 C1445 1.376 . S
C1442 C1440 1.394 . S
C1442 C1443 1.369 . S
C1442 C1446 1.531 . S
C1443 C1442 1.369 . S
C1443 C1444 1.410 . S
C1443 C1451 1.503 1_455 S
C1444 C1443 1.410 . S
C1444 C1445 1.392 . S
C1444 C1447 1.511 1_455 S
C1445 C1441 1.376 . S
C1445 C1444 1.392 . S
C1445 H1457 0.929 . S
C1446 C1442 1.531 . S
C1446 H1458 0.950 1_554 S
C1446 H1459 0.962 . S
C1446 H1460 0.960 1_554 S
C1447 C1444 1.511 1_655 S
C1447 H1461 0.961 . S
C1447 H1462 0.961 . S
C1447 H1463 0.961 . S
C1448 C1449 1.370 . S
C1448 C1450 1.363 . S
C1448 H1464 0.931 . S
C1449 C1448 1.370 . S
C1449 C1453 1.408 . S
C1450 C1448 1.363 . S
C1450 C1451 1.370 . S
C1450 C1454 1.524 . S
C1451 C1443 1.503 1_655 S
C1451 C1450 1.370 . S
C1451 C1452 1.403 . S
C1452 C1451 1.403 . S
C1452 C1453 1.404 . S
C1452 C1455 1.539 . S
C1453 C1449 1.408 . S
C1453 C1452 1.404 . S
C1453 H1465 0.949 . S
C1454 C1450 1.524 . S
C1454 H1466 0.956 1_655 S
C1454 H1467 0.964 . S
C1454 H1468 0.961 . S
C1455 C1452 1.539 . S
C1455 H1469 0.958 1_554 S
C1455 H1470 0.961 1_554 S
C1455 H1471 0.960 . S
H1456 C1440 0.931 . S
H1457 C1445 0.929 . S
H1458 C1446 0.950 1_556 S
H1459 C1446 0.962 . S
H1460 C1446 0.960 1_556 S
H1461 C1447 0.961 . S
H1462 C1447 0.961 . S
H1463 C1447 0.961 . S
H1464 C1448 0.931 . S
H1465 C1453 0.949 . S
H1466 C1454 0.956 1_455 S
H1467 C1454 0.964 . S
H1468 C1454 0.961 . S
H1469 C1455 0.958 1_556 S
H1470 C1455 0.961 1_556 S
H1471 C1455 0.960 . S
C1472 C1473 1.391 . S
C1472 C1474 1.394 . S
C1472 H1488 0.931 . S
C1473 C1472 1.391 . S
C1473 C1477 1.376 . S
C1474 C1472 1.394 . S
C1474 C1475 1.369 . S
C1474 C1478 1.531 . S
C1475 C1474 1.369 . S
C1475 C1476 1.410 . S
C1475 C1483 1.503 . S
C1476 C1475 1.410 . S
C1476 C1477 1.392 . S
C1476 C1479 1.511 . S
C1477 C1473 1.376 . S
C1477 C1476 1.392 . S
C1477 H1489 0.929 . S
C1478 C1474 1.531 . S
C1478 H1490 0.960 . S
C1478 H1491 0.962 . S
C1478 H1492 0.960 . S
C1479 C1476 1.511 . S
C1479 H1493 0.961 . S
C1479 H1494 0.961 . S
C1479 H1495 0.961 . S
C1480 C1481 1.370 . S
C1480 C1482 1.363 . S
C1480 H1496 0.931 . S
C1481 C1480 1.370 . S
C1481 C1485 1.408 . S
C1482 C1480 1.363 . S
C1482 C1483 1.370 . S
C1482 C1486 1.524 . S
C1483 C1475 1.503 . S
C1483 C1482 1.370 . S
C1483 C1484 1.403 . S
C1484 C1483 1.403 . S
C1484 C1485 1.404 . S
C1484 C1487 1.539 . S
C1485 C1481 1.408 . S
C1485 C1484 1.404 . S
C1485 H1497 0.930 . S
C1486 C1482 1.524 . S
C1486 H1498 0.956 . S
C1486 H1499 0.961 . S
C1486 H1500 0.961 . S
C1487 C1484 1.539 . S
C1487 H1501 0.958 . S
C1487 H1502 0.961 . S
C1487 H1503 0.960 . S
H1488 C1472 0.931 . S
H1489 C1477 0.929 . S
H1490 C1478 0.960 . S
H1491 C1478 0.962 . S
H1492 C1478 0.960 . S
H1493 C1479 0.961 . S
H1494 C1479 0.961 . S
H1495 C1479 0.961 . S
H1496 C1480 0.931 . S
H1497 C1485 0.930 . S
H1498 C1486 0.956 . S
H1499 C1486 0.961 . S
H1500 C1486 0.961 . S
H1501 C1487 0.958 . S
H1502 C1487 0.961 . S
H1503 C1487 0.960 . S
C1504 C1505 1.391 . S
C1504 C1506 1.394 . S
C1504 H1520 0.931 . S
C1505 C1504 1.391 . S
C1505 C1509 1.376 . S
C1506 C1504 1.394 . S
C1506 C1507 1.369 . S
C1506 C1510 1.531 . S
C1507 C1506 1.369 . S
C1507 C1508 1.410 . S
C1507 C1515 1.503 . S
C1508 C1507 1.410 . S
C1508 C1509 1.392 . S
C1508 C1511 1.511 . S
C1509 C1505 1.376 . S
C1509 C1508 1.392 . S
C1509 H1521 0.929 . S
C1510 C1506 1.531 . S
C1510 H1522 0.960 . S
C1510 H1523 0.962 . S
C1510 H1524 0.960 . S
C1511 C1508 1.511 . S
C1511 H1525 0.961 . S
C1511 H1526 0.961 . S
C1511 H1527 0.961 . S
C1512 C1513 1.370 . S
C1512 C1514 1.363 . S
C1512 H1528 0.931 . S
C1513 C1512 1.370 . S
C1513 C1517 1.408 . S
C1514 C1512 1.363 . S
C1514 C1515 1.370 . S
C1514 C1518 1.524 . S
C1515 C1507 1.503 . S
C1515 C1514 1.370 . S
C1515 C1516 1.403 . S
C1516 C1515 1.403 . S
C1516 C1517 1.404 . S
C1516 C1519 1.539 . S
C1517 C1513 1.408 . S
C1517 C1516 1.404 . S
C1517 H1529 0.930 . S
C1518 C1514 1.524 . S
C1518 H1530 0.956 . S
C1518 H1531 0.961 . S
C1518 H1532 0.961 . S
C1519 C1516 1.539 . S
C1519 H1533 0.958 . S
C1519 H1534 0.961 . S
C1519 H1535 0.960 . S
H1520 C1504 0.931 . S
H1521 C1509 0.929 . S
H1522 C1510 0.960 . S
H1523 C1510 0.962 . S
H1524 C1510 0.960 . S
H1525 C1511 0.961 . S
H1526 C1511 0.961 . S
H1527 C1511 0.961 . S
H1528 C1512 0.931 . S
H1529 C1517 0.930 . S
H1530 C1518 0.956 . S
H1531 C1518 0.961 . S
H1532 C1518 0.961 . S
H1533 C1519 0.958 . S
H1534 C1519 0.961 . S
H1535 C1519 0.960 . S
C1536 C1537 1.391 . S
C1536 C1538 1.394 . S
C1536 H1552 0.931 . S
C1537 C1536 1.391 . S
C1537 C1541 1.376 . S
C1538 C1536 1.394 . S
C1538 C1539 1.369 . S
C1538 C1542 1.531 . S
C1539 C1538 1.369 . S
C1539 C1540 1.410 . S
C1539 C1547 1.503 . S
C1540 C1539 1.410 . S
C1540 C1541 1.392 . S
C1540 C1543 1.511 . S
C1541 C1537 1.376 . S
C1541 C1540 1.392 . S
C1541 H1553 0.929 . S
C1542 C1538 1.531 . S
C1542 H1554 0.960 . S
C1542 H1555 0.962 . S
C1542 H1556 0.960 . S
C1543 C1540 1.511 . S
C1543 H1557 0.961 . S
C1543 H1558 0.961 . S
C1543 H1559 0.961 . S
C1544 C1545 1.370 . S
C1544 C1546 1.363 . S
C1544 H1560 0.931 . S
C1545 C1544 1.370 . S
C1545 C1549 1.408 . S
C1546 C1544 1.363 . S
C1546 C1547 1.370 . S
C1546 C1550 1.524 . S
C1547 C1539 1.503 . S
C1547 C1546 1.370 . S
C1547 C1548 1.403 . S
C1548 C1547 1.403 . S
C1548 C1549 1.404 . S
C1548 C1551 1.539 . S
C1549 C1545 1.408 . S
C1549 C1548 1.404 . S
C1549 H1561 0.930 . S
C1550 C1546 1.524 . S
C1550 H1562 0.956 . S
C1550 H1563 0.961 . S
C1550 H1564 0.961 . S
C1551 C1548 1.539 . S
C1551 H1565 0.958 . S
C1551 H1566 0.961 . S
C1551 H1567 0.960 . S
H1552 C1536 0.931 . S
H1553 C1541 0.929 . S
H1554 C1542 0.960 . S
H1555 C1542 0.962 . S
H1556 C1542 0.960 . S
H1557 C1543 0.961 . S
H1558 C1543 0.961 . S
H1559 C1543 0.961 . S
H1560 C1544 0.931 . S
H1561 C1549 0.930 . S
H1562 C1550 0.956 . S
H1563 C1550 0.961 . S
H1564 C1550 0.961 . S
H1565 C1551 0.958 . S
H1566 C1551 0.961 . S
H1567 C1551 0.960 . S
C1568 C1569 1.391 . S
C1568 C1570 1.394 . S
C1568 H1584 0.931 . S
C1569 C1568 1.391 . S
C1569 C1573 1.376 . S
C1570 C1568 1.394 . S
C1570 C1571 1.369 . S
C1570 C1574 1.531 . S
C1571 C1570 1.369 . S
C1571 C1572 1.410 . S
C1571 C1579 1.503 . S
C1572 C1571 1.410 . S
C1572 C1573 1.392 . S
C1572 C1575 1.511 . S
C1573 C1569 1.376 . S
C1573 C1572 1.392 . S
C1573 H1585 0.929 . S
C1574 C1570 1.531 . S
C1574 H1586 0.960 . S
C1574 H1587 0.962 . S
C1574 H1588 0.960 . S
C1575 C1572 1.511 . S
C1575 H1589 0.961 . S
C1575 H1590 0.961 . S
C1575 H1591 0.961 1_556 S
C1576 C1577 1.370 . S
C1576 C1578 1.363 . S
C1576 H1592 0.931 . S
C1577 C1576 1.370 . S
C1577 C1581 1.408 . S
C1578 C1576 1.363 . S
C1578 C1579 1.370 . S
C1578 C1582 1.524 . S
C1579 C1571 1.503 . S
C1579 C1578 1.370 . S
C1579 C1580 1.403 . S
C1580 C1579 1.403 . S
C1580 C1581 1.404 . S
C1580 C1583 1.539 . S
C1581 C1577 1.408 . S
C1581 C1580 1.404 . S
C1581 H1593 0.930 . S
C1582 C1578 1.524 . S
C1582 H1594 0.956 . S
C1582 H1595 0.961 . S
C1582 H1596 0.961 . S
C1583 C1580 1.539 . S
C1583 H1597 0.958 . S
C1583 H1598 0.961 . S
C1583 H1599 0.960 . S
H1584 C1568 0.931 . S
H1585 C1573 0.929 . S
H1586 C1574 0.960 . S
H1587 C1574 0.962 . S
H1588 C1574 0.960 . S
H1589 C1575 0.961 . S
H1590 C1575 0.961 . S
H1591 C1575 0.961 1_554 S
H1592 C1576 0.931 . S
H1593 C1581 0.930 . S
H1594 C1582 0.956 . S
H1595 C1582 0.961 . S
H1596 C1582 0.961 . S
H1597 C1583 0.958 . S
H1598 C1583 0.961 . S
H1599 C1583 0.960 . S
C1600 C1601 1.391 . S
C1600 C1602 1.394 . S
C1600 H1616 0.931 . S
C1601 C1600 1.391 . S
C1601 C1605 1.376 . S
C1602 C1600 1.394 . S
C1602 C1603 1.369 . S
C1602 C1606 1.531 . S
C1603 C1602 1.369 . S
C1603 C1604 1.410 . S
C1603 C1611 1.498 1_655 S
C1604 C1603 1.410 . S
C1604 C1605 1.392 . S
C1604 C1607 1.511 . S
C1605 C1601 1.376 . S
C1605 C1604 1.392 . S
C1605 H1617 0.929 . S
C1606 C1602 1.531 . S
C1606 H1618 0.960 . S
C1606 H1619 0.962 . S
C1606 H1620 0.960 . S
C1607 C1604 1.511 . S
C1607 H1621 0.961 . S
C1607 H1622 0.961 . S
C1607 H1623 0.961 . S
C1608 C1609 1.370 . S
C1608 C1610 1.363 . S
C1608 H1624 0.931 . S
C1609 C1608 1.370 . S
C1609 C1613 1.408 . S
C1610 C1608 1.363 . S
C1610 C1611 1.375 . S
C1610 C1614 1.524 . S
C1611 C1603 1.498 1_455 S
C1611 C1610 1.375 . S
C1611 C1612 1.404 . S
C1612 C1611 1.404 . S
C1612 C1613 1.404 . S
C1612 C1615 1.539 1_455 S
C1613 C1609 1.408 . S
C1613 C1612 1.404 . S
C1613 H1625 0.930 . S
C1614 C1610 1.524 . S
C1614 H1626 0.956 . S
C1614 H1627 0.961 1_455 S
C1614 H1628 0.961 . S
C1615 C1612 1.539 1_655 S
C1615 H1629 0.958 . S
C1615 H1630 0.961 . S
C1615 H1631 0.960 . S
H1616 C1600 0.931 . S
H1617 C1605 0.929 . S
H1618 C1606 0.960 . S
H1619 C1606 0.962 . S
H1620 C1606 0.960 . S
H1621 C1607 0.961 . S
H1622 C1607 0.961 . S
H1623 C1607 0.961 . S
H1624 C1608 0.931 . S
H1625 C1613 0.930 . S
H1626 C1614 0.956 . S
H1627 C1614 0.961 1_655 S
H1628 C1614 0.961 . S
H1629 C1615 0.958 . S
H1630 C1615 0.961 . S
H1631 C1615 0.960 . S
C481 C3 1.603 . S
C489 C443 1.598 . S
C513 C375 1.696 . S
C521 C55 1.700 . S
C545 C83 1.579 . S
C553 C335 1.600 . S
C577 C135 1.724 . S
C585 C415 1.709 . S
C609 C163 1.977 . S
C617 C403 1.981 . S
C641 C203 1.439 . S
C649 C455 1.473 . S
C673 C363 2.026 . S
C681 C255 2.039 . S
C705 C283 1.593 . S
C713 C323 1.591 . S
C737 C123 1.391 . S
C745 C175 1.418 . S
C769 C15 1.493 . S
C777 C215 1.511 . S
C801 C43 1.757 1_655 S
C809 C243 1.763 . S
C833 C295 1.711 . S
C841 C95 1.707 . S
C865 C26 1.763 . S
C873 C322 1.689 . S
C897 C49 0.912 . S
C905 C402 0.899 . S
C929 C462 2.323 . S
C937 C106 2.264 . S
C961 C129 1.398 . S
C969 C362 1.327 . S
C993 C186 1.547 . S
C1001 C382 1.541 . S
C1025 C342 2.064 . S
C1033 C226 2.019 . S
C1057 C422 1.601 . S
C1065 C249 1.599 . S
C1089 C442 1.134 . S
C1097 C306 1.170 . S
C1121 C2 1.950 . S
C1129 C146 1.969 . S
C1153 C9 2.026 . S
C1161 C62 1.988 . S
C1185 C66 1.603 . S
C1193 C82 1.655 . S
C1217 C142 2.048 . S
C1225 C89 2.074 . S
C1249 C209 0.950 . S
C1257 C162 0.905 . S
C1281 C202 1.412 . S
C1289 C266 1.477 . S
C1313 C262 1.021 . S
C1321 C289 1.034 . S
C1345 C169 1.467 . S
C1353 C282 1.408 . S
C1377 C346 1.984 . S
C1385 C122 2.042 . S
C1409 C222 2.279 . S
C1417 C369 2.326 . S
C1441 C329 1.438 . S
C1449 C242 1.390 . S
C1473 C409 1.568 . S
C1481 C302 1.546 . S
C1505 C182 1.920 . S
C1513 C466 1.896 . S
C1537 C449 1.195 . S
C1545 C42 1.129 . S
C1569 C102 1.955 . S
C1577 C386 1.890 . S
C1601 C426 1.736 . S
C1609 C22 1.732 . S
