# Generated by pormake.
# Topology yft, (5)-cn, num edge types: 1
# Building blocks:
#     Node 0, Type 0, BuildingBlock: BEQFEK_clean_sbu_0, # of connection points: 5
#     Node 1, Type 0, BuildingBlock: BEQFEK_clean_sbu_0, # of connection points: 5
#     Node 2, Type 0, BuildingBlock: BEQFEK_clean_sbu_0, # of connection points: 5
#     Node 3, Type 0, BuildingBlock: BEQFEK_clean_sbu_0, # of connection points: 5
#     Node 4, Type 0, BuildingBlock: BEQFEK_clean_sbu_0, # of connection points: 5
#     Node 5, Type 0, BuildingBlock: BEQFEK_clean_sbu_0, # of connection points: 5
#     Node 6, Type 0, BuildingBlock: BEQFEK_clean_sbu_0, # of connection points: 5
#     Node 7, Type 0, BuildingBlock: BEQFEK_clean_sbu_0, # of connection points: 5
#     Node 8, Type 0, BuildingBlock: BEQFEK_clean_sbu_0, # of connection points: 5
#     Node 9, Type 0, BuildingBlock: BEQFEK_clean_sbu_0, # of connection points: 5
#     Node 10, Type 0, BuildingBlock: BEQFEK_clean_sbu_0, # of connection points: 5
#     Node 11, Type 0, BuildingBlock: BEQFEK_clean_sbu_0, # of connection points: 5
#     Node 12, Type 0, BuildingBlock: BEQFEK_clean_sbu_0, # of connection points: 5
#     Node 13, Type 0, BuildingBlock: BEQFEK_clean_sbu_0, # of connection points: 5
#     Node 14, Type 0, BuildingBlock: BEQFEK_clean_sbu_0, # of connection points: 5
#     Node 15, Type 0, BuildingBlock: BEQFEK_clean_sbu_0, # of connection points: 5
#     Node 16, Type 0, BuildingBlock: BEQFEK_clean_sbu_0, # of connection points: 5
#     Node 17, Type 0, BuildingBlock: BEQFEK_clean_sbu_0, # of connection points: 5
#     Node 18, Type 0, BuildingBlock: BEQFEK_clean_sbu_0, # of connection points: 5
#     Node 19, Type 0, BuildingBlock: BEQFEK_clean_sbu_0, # of connection points: 5
#     Node 20, Type 0, BuildingBlock: BEQFEK_clean_sbu_0, # of connection points: 5
#     Node 21, Type 0, BuildingBlock: BEQFEK_clean_sbu_0, # of connection points: 5
#     Node 22, Type 0, BuildingBlock: BEQFEK_clean_sbu_0, # of connection points: 5
#     Node 23, Type 0, BuildingBlock: BEQFEK_clean_sbu_0, # of connection points: 5
#     Node 24, Type 0, BuildingBlock: BEQFEK_clean_sbu_0, # of connection points: 5
#     Node 25, Type 0, BuildingBlock: BEQFEK_clean_sbu_0, # of connection points: 5
#     Node 26, Type 0, BuildingBlock: BEQFEK_clean_sbu_0, # of connection points: 5
#     Node 27, Type 0, BuildingBlock: BEQFEK_clean_sbu_0, # of connection points: 5
#     Node 28, Type 0, BuildingBlock: BEQFEK_clean_sbu_0, # of connection points: 5
#     Node 29, Type 0, BuildingBlock: BEQFEK_clean_sbu_0, # of connection points: 5
#     Node 30, Type 0, BuildingBlock: BEQFEK_clean_sbu_0, # of connection points: 5
#     Node 31, Type 0, BuildingBlock: BEQFEK_clean_sbu_0, # of connection points: 5
#     Edge 32, Type (0, 0), BuildingBlock: AJUNOK_clean_linker_0, # of connection points: 2
#     Edge 33, Type (0, 0), BuildingBlock: AJUNOK_clean_linker_0, # of connection points: 2
#     Edge 34, Type (0, 0), BuildingBlock: AJUNOK_clean_linker_0, # of connection points: 2
#     Edge 35, Type (0, 0), BuildingBlock: AJUNOK_clean_linker_0, # of connection points: 2
#     Edge 36, Type (0, 0), BuildingBlock: AJUNOK_clean_linker_0, # of connection points: 2
#     Edge 37, Type (0, 0), BuildingBlock: AJUNOK_clean_linker_0, # of connection points: 2
#     Edge 38, Type (0, 0), BuildingBlock: AJUNOK_clean_linker_0, # of connection points: 2
#     Edge 39, Type (0, 0), BuildingBlock: AJUNOK_clean_linker_0, # of connection points: 2
#     Edge 40, Type (0, 0), BuildingBlock: AJUNOK_clean_linker_0, # of connection points: 2
#     Edge 41, Type (0, 0), BuildingBlock: AJUNOK_clean_linker_0, # of connection points: 2
#     Edge 42, Type (0, 0), BuildingBlock: AJUNOK_clean_linker_0, # of connection points: 2
#     Edge 43, Type (0, 0), BuildingBlock: AJUNOK_clean_linker_0, # of connection points: 2
#     Edge 44, Type (0, 0), BuildingBlock: AJUNOK_clean_linker_0, # of connection points: 2
#     Edge 45, Type (0, 0), BuildingBlock: AJUNOK_clean_linker_0, # of connection points: 2
#     Edge 46, Type (0, 0), BuildingBlock: AJUNOK_clean_linker_0, # of connection points: 2
#     Edge 47, Type (0, 0), BuildingBlock: AJUNOK_clean_linker_0, # of connection points: 2
#     Edge 48, Type (0, 0), BuildingBlock: AJUNOK_clean_linker_0, # of connection points: 2
#     Edge 49, Type (0, 0), BuildingBlock: AJUNOK_clean_linker_0, # of connection points: 2
#     Edge 50, Type (0, 0), BuildingBlock: AJUNOK_clean_linker_0, # of connection points: 2
#     Edge 51, Type (0, 0), BuildingBlock: AJUNOK_clean_linker_0, # of connection points: 2
#     Edge 52, Type (0, 0), BuildingBlock: AJUNOK_clean_linker_0, # of connection points: 2
#     Edge 53, Type (0, 0), BuildingBlock: AJUNOK_clean_linker_0, # of connection points: 2
#     Edge 54, Type (0, 0), BuildingBlock: AJUNOK_clean_linker_0, # of connection points: 2
#     Edge 55, Type (0, 0), BuildingBlock: AJUNOK_clean_linker_0, # of connection points: 2
#     Edge 56, Type (0, 0), BuildingBlock: AJUNOK_clean_linker_0, # of connection points: 2
#     Edge 57, Type (0, 0), BuildingBlock: AJUNOK_clean_linker_0, # of connection points: 2
#     Edge 58, Type (0, 0), BuildingBlock: AJUNOK_clean_linker_0, # of connection points: 2
#     Edge 59, Type (0, 0), BuildingBlock: AJUNOK_clean_linker_0, # of connection points: 2
#     Edge 60, Type (0, 0), BuildingBlock: AJUNOK_clean_linker_0, # of connection points: 2
#     Edge 61, Type (0, 0), BuildingBlock: AJUNOK_clean_linker_0, # of connection points: 2
#     Edge 62, Type (0, 0), BuildingBlock: AJUNOK_clean_linker_0, # of connection points: 2
#     Edge 63, Type (0, 0), BuildingBlock: AJUNOK_clean_linker_0, # of connection points: 2
#     Edge 64, Type (0, 0), BuildingBlock: AJUNOK_clean_linker_0, # of connection points: 2
#     Edge 65, Type (0, 0), BuildingBlock: AJUNOK_clean_linker_0, # of connection points: 2
#     Edge 66, Type (0, 0), BuildingBlock: AJUNOK_clean_linker_0, # of connection points: 2
#     Edge 67, Type (0, 0), BuildingBlock: AJUNOK_clean_linker_0, # of connection points: 2
#     Edge 68, Type (0, 0), BuildingBlock: AJUNOK_clean_linker_0, # of connection points: 2
#     Edge 69, Type (0, 0), BuildingBlock: AJUNOK_clean_linker_0, # of connection points: 2
#     Edge 70, Type (0, 0), BuildingBlock: AJUNOK_clean_linker_0, # of connection points: 2
#     Edge 71, Type (0, 0), BuildingBlock: AJUNOK_clean_linker_0, # of connection points: 2
#     Edge 72, Type (0, 0), BuildingBlock: AJUNOK_clean_linker_0, # of connection points: 2
#     Edge 73, Type (0, 0), BuildingBlock: AJUNOK_clean_linker_0, # of connection points: 2
#     Edge 74, Type (0, 0), BuildingBlock: AJUNOK_clean_linker_0, # of connection points: 2
#     Edge 75, Type (0, 0), BuildingBlock: AJUNOK_clean_linker_0, # of connection points: 2
#     Edge 76, Type (0, 0), BuildingBlock: AJUNOK_clean_linker_0, # of connection points: 2
#     Edge 77, Type (0, 0), BuildingBlock: AJUNOK_clean_linker_0, # of connection points: 2
#     Edge 78, Type (0, 0), BuildingBlock: AJUNOK_clean_linker_0, # of connection points: 2
#     Edge 79, Type (0, 0), BuildingBlock: AJUNOK_clean_linker_0, # of connection points: 2
#     Edge 80, Type (0, 0), BuildingBlock: AJUNOK_clean_linker_0, # of connection points: 2
#     Edge 81, Type (0, 0), BuildingBlock: AJUNOK_clean_linker_0, # of connection points: 2
#     Edge 82, Type (0, 0), BuildingBlock: AJUNOK_clean_linker_0, # of connection points: 2
#     Edge 83, Type (0, 0), BuildingBlock: AJUNOK_clean_linker_0, # of connection points: 2
#     Edge 84, Type (0, 0), BuildingBlock: AJUNOK_clean_linker_0, # of connection points: 2
#     Edge 85, Type (0, 0), BuildingBlock: AJUNOK_clean_linker_0, # of connection points: 2
#     Edge 86, Type (0, 0), BuildingBlock: AJUNOK_clean_linker_0, # of connection points: 2
#     Edge 87, Type (0, 0), BuildingBlock: AJUNOK_clean_linker_0, # of connection points: 2
#     Edge 88, Type (0, 0), BuildingBlock: AJUNOK_clean_linker_0, # of connection points: 2
#     Edge 89, Type (0, 0), BuildingBlock: AJUNOK_clean_linker_0, # of connection points: 2
#     Edge 90, Type (0, 0), BuildingBlock: AJUNOK_clean_linker_0, # of connection points: 2
#     Edge 91, Type (0, 0), BuildingBlock: AJUNOK_clean_linker_0, # of connection points: 2
#     Edge 92, Type (0, 0), BuildingBlock: AJUNOK_clean_linker_0, # of connection points: 2
#     Edge 93, Type (0, 0), BuildingBlock: AJUNOK_clean_linker_0, # of connection points: 2
#     Edge 94, Type (0, 0), BuildingBlock: AJUNOK_clean_linker_0, # of connection points: 2
#     Edge 95, Type (0, 0), BuildingBlock: AJUNOK_clean_linker_0, # of connection points: 2
#     Edge 96, Type (0, 0), BuildingBlock: AJUNOK_clean_linker_0, # of connection points: 2
#     Edge 97, Type (0, 0), BuildingBlock: AJUNOK_clean_linker_0, # of connection points: 2
#     Edge 98, Type (0, 0), BuildingBlock: AJUNOK_clean_linker_0, # of connection points: 2
#     Edge 99, Type (0, 0), BuildingBlock: AJUNOK_clean_linker_0, # of connection points: 2
#     Edge 100, Type (0, 0), BuildingBlock: AJUNOK_clean_linker_0, # of connection points: 2
#     Edge 101, Type (0, 0), BuildingBlock: AJUNOK_clean_linker_0, # of connection points: 2
#     Edge 102, Type (0, 0), BuildingBlock: AJUNOK_clean_linker_0, # of connection points: 2
#     Edge 103, Type (0, 0), BuildingBlock: AJUNOK_clean_linker_0, # of connection points: 2
#     Edge 104, Type (0, 0), BuildingBlock: AJUNOK_clean_linker_0, # of connection points: 2
#     Edge 105, Type (0, 0), BuildingBlock: AJUNOK_clean_linker_0, # of connection points: 2
#     Edge 106, Type (0, 0), BuildingBlock: AJUNOK_clean_linker_0, # of connection points: 2
#     Edge 107, Type (0, 0), BuildingBlock: AJUNOK_clean_linker_0, # of connection points: 2
#     Edge 108, Type (0, 0), BuildingBlock: AJUNOK_clean_linker_0, # of connection points: 2
#     Edge 109, Type (0, 0), BuildingBlock: AJUNOK_clean_linker_0, # of connection points: 2
#     Edge 110, Type (0, 0), BuildingBlock: AJUNOK_clean_linker_0, # of connection points: 2
#     Edge 111, Type (0, 0), BuildingBlock: AJUNOK_clean_linker_0, # of connection points: 2
# Relax obj value: 0.359
# Max RMSD: 0.225
# Mean RMSD: 0.225
data_MOF--net-yft--node1-BEQFEK_clean_sbu_0--edge1-AJUNOK_clean_linker_0
_symmetry_space_group_name_H-M    P1
_symmetry_Int_Tables_number       1
_symmetry_cell_setting            triclinic
loop_
_symmetry_equiv_pos_as_xyz
'x, y, z'
_cell_length_a     38.49392
_cell_length_b     38.492328
_cell_length_c     59.155073
_cell_angle_alpha  90.006213
_cell_angle_beta   90.005869
_cell_angle_gamma 89.999427
loop_
_atom_site_label
_atom_site_type_symbol
_atom_site_fract_x
_atom_site_fract_y
_atom_site_fract_z
_atom_type_partial_charge
Co0 Co 0.37579 0.20814 0.18244 0.0
Co1 Co 0.31277 0.18072 0.1537 0.0
C2 C 0.3838 0.14693 0.15264 0.0
O3 O 0.39595 0.16781 0.16726 0.0
O4 O 0.35239 0.14907 0.14594 0.0
C5 C 0.43655 0.21223 0.21093 0.0
O6 O 0.43726 0.17827 0.20884 0.0
C7 C 0.25669 0.13021 0.14473 0.0
C8 C 0.22649 0.157 0.11819 0.0
C9 C 0.22787 0.12666 0.13074 0.0
N10 N 0.27135 0.16136 0.14077 0.0
N11 N 0.25314 0.17721 0.12488 0.0
C12 C 0.27154 0.10377 0.16056 0.0
H13 H 0.30028 0.10587 0.16093 0.0
H14 H 0.2619 0.10897 0.1779 0.0
H15 H 0.2637 0.0771 0.15555 0.0
C16 C 0.32469 0.20813 0.21803 0.0
N17 N 0.33479 0.19713 0.19755 0.0
N18 N 0.3074 0.18809 0.18558 0.0
C19 C 0.2787 0.19406 0.19809 0.0
C20 C 0.28884 0.20707 0.21902 0.0
C21 C 0.34836 0.22558 0.23459 0.0
H22 H 0.35641 0.25119 0.22775 0.0
H23 H 0.37196 0.20951 0.23704 0.0
H24 H 0.33538 0.22949 0.25115 0.0
O25 O 0.3656 0.24477 0.16012 0.0
O26 O 0.32177 0.22625 0.1388 0.0
H27 H 0.24248 0.20801 0.17212 0.0
H28 H 0.2239 0.20676 0.20029 0.0
C29 C 0.24265 0.19423 0.18859 0.0
H30 H 0.23422 0.1671 0.18556 0.0
H31 H 0.25913 0.2017 0.1184 0.0
O32 O 0.41143 0.22897 0.20226 0.0
C33 C 0.34421 0.24925 0.14398 0.0
Co34 Co 0.04156 0.12658 0.43256 0.0
Co35 Co 0.06963 0.06423 0.4035 0.0
C36 C 0.10329 0.13533 0.40333 0.0
O37 O 0.08202 0.14702 0.41785 0.0
O38 O 0.10128 0.10415 0.39612 0.0
C39 C 0.03691 0.18668 0.46163 0.0
O40 O 0.07093 0.18756 0.45993 0.0
C41 C 0.12022 0.00817 0.39451 0.0
C42 C 0.09344 0.97804 0.36792 0.0
C43 C 0.12373 0.97931 0.38054 0.0
N44 N 0.08914 0.02296 0.39046 0.0
N45 N 0.07331 0.00479 0.37454 0.0
C46 C 0.14659 0.02292 0.41042 0.0
H47 H 0.14468 0.05168 0.41071 0.0
H48 H 0.14115 0.01343 0.42776 0.0
H49 H 0.17326 0.01489 0.40555 0.0
C50 C 0.04142 0.07506 0.46781 0.0
N51 N 0.05256 0.08547 0.44744 0.0
N52 N 0.06186 0.0583 0.43534 0.0
C53 C 0.0559 0.02941 0.44767 0.0
C54 C 0.04265 0.03921 0.46861 0.0
C55 C 0.0238 0.09845 0.48446 0.0
H56 H 0.99823 0.10658 0.4776 0.0
H57 H 0.03982 0.12204 0.48713 0.0
H58 H 0.01979 0.08523 0.50094 0.0
O59 O 0.00526 0.11659 0.41001 0.0
O60 O 0.0242 0.07324 0.38846 0.0
H61 H 0.04256 0.99344 0.42141 0.0
H62 H 0.04338 0.97454 0.44949 0.0
C63 C 0.05604 0.99347 0.43799 0.0
H64 H 0.08326 0.98517 0.43513 0.0
H65 H 0.04886 0.01083 0.36803 0.0
O66 O 0.0204 0.16186 0.45246 0.0
C67 C 0.00103 0.09546 0.39371 0.0
Co68 Co 0.12508 0.79146 0.68243 0.0
Co69 Co 0.18666 0.81993 0.65279 0.0
C70 C 0.11546 0.85303 0.65292 0.0
O71 O 0.10424 0.83156 0.66747 0.0
O72 O 0.14659 0.85148 0.64559 0.0
C73 C 0.06558 0.78852 0.71179 0.0
O74 O 0.06648 0.82255 0.71031 0.0
C75 C 0.24198 0.87068 0.64177 0.0
C76 C 0.27175 0.84221 0.61581 0.0
C77 C 0.27021 0.87364 0.62719 0.0
N78 N 0.22763 0.83905 0.63905 0.0
N79 N 0.24564 0.82219 0.62351 0.0
C80 C 0.22772 0.89789 0.65725 0.0
H81 H 0.20005 0.89252 0.66117 0.0
H82 H 0.24252 0.89752 0.67334 0.0
H83 H 0.23047 0.92406 0.64957 0.0
C84 C 0.17735 0.792 0.7173 0.0
N85 N 0.16643 0.80296 0.69699 0.0
N86 N 0.19324 0.81251 0.68463 0.0
C87 C 0.22241 0.80691 0.69672 0.0
C88 C 0.21325 0.79362 0.71779 0.0
C89 C 0.15456 0.77289 0.73362 0.0
H90 H 0.14637 0.74788 0.72596 0.0
H91 H 0.13095 0.78851 0.73706 0.0
H92 H 0.16804 0.76753 0.74982 0.0
O93 O 0.13485 0.75479 0.66008 0.0
O94 O 0.17736 0.7743 0.63806 0.0
H95 H 0.25922 0.79259 0.67124 0.0
H96 H 0.27806 0.79903 0.69906 0.0
C97 C 0.25821 0.80843 0.6869 0.0
H98 H 0.26434 0.83564 0.68227 0.0
H99 H 0.23986 0.79712 0.61795 0.0
O100 O 0.0897 0.77097 0.70262 0.0
C101 C 0.15563 0.75082 0.64356 0.0
Co102 Co 0.45778 0.8754 0.93294 0.0
Co103 Co 0.43017 0.93822 0.90403 0.0
C104 C 0.39653 0.86713 0.90312 0.0
O105 O 0.41748 0.85511 0.91775 0.0
O106 O 0.39857 0.89853 0.89639 0.0
C107 C 0.46173 0.81448 0.96127 0.0
O108 O 0.42777 0.81392 0.95914 0.0
C109 C 0.37932 0.99388 0.89442 0.0
C110 C 0.40684 0.02463 0.86848 0.0
C111 C 0.37601 0.02281 0.88048 0.0
N112 N 0.41079 0.97958 0.89094 0.0
N113 N 0.42706 0.99812 0.8754 0.0
C114 C 0.35247 0.97869 0.90981 0.0
H115 H 0.35724 0.98794 0.9273 0.0
H116 H 0.32593 0.98662 0.90458 0.0
H117 H 0.35456 0.94995 0.90993 0.0
C118 C 0.45803 0.92685 0.96838 0.0
N119 N 0.44675 0.91654 0.94799 0.0
N120 N 0.43768 0.9438 0.9359 0.0
C121 C 0.44393 0.97261 0.94822 0.0
C122 C 0.45717 0.96276 0.96918 0.0
C123 C 0.47677 0.90339 0.98448 0.0
H124 H 0.50193 0.89548 0.97691 0.0
H125 H 0.46105 0.87968 0.98742 0.0
H126 H 0.48182 0.91629 0.00092 0.0
O127 O 0.4944 0.88555 0.91061 0.0
O128 O 0.47571 0.92911 0.88913 0.0
H129 H 0.45871 0.00946 0.92287 0.0
H130 H 0.45345 0.028 0.95088 0.0
C131 C 0.44322 0.00863 0.93868 0.0
H132 H 0.41609 0.01564 0.93438 0.0
H133 H 0.45187 0.99246 0.86932 0.0
O134 O 0.47857 0.83965 0.95275 0.0
C135 C 0.4988 0.9068 0.89439 0.0
Co136 Co 0.37565 0.7937 0.31499 0.0
Co137 Co 0.31342 0.8194 0.34506 0.0
C138 C 0.38436 0.85348 0.34597 0.0
O139 O 0.39614 0.83332 0.3308 0.0
O140 O 0.35313 0.85091 0.35297 0.0
C141 C 0.43696 0.79014 0.287 0.0
O142 O 0.43852 0.82386 0.29028 0.0
C143 C 0.25779 0.86952 0.3561 0.0
C144 C 0.22809 0.84096 0.38205 0.0
C145 C 0.22949 0.87236 0.37062 0.0
N146 N 0.27231 0.83799 0.35888 0.0
N147 N 0.25436 0.82106 0.37441 0.0
C148 C 0.27197 0.89674 0.3406 0.0
H149 H 0.29976 0.89166 0.33689 0.0
H150 H 0.25745 0.896 0.3244 0.0
H151 H 0.26879 0.92296 0.34813 0.0
C152 C 0.32352 0.79517 0.27997 0.0
N153 N 0.3342 0.80536 0.30052 0.0
N154 N 0.30715 0.81339 0.3131 0.0
C155 C 0.27811 0.80739 0.30097 0.0
C156 C 0.28757 0.79563 0.27958 0.0
C157 C 0.34678 0.77763 0.2632 0.0
H158 H 0.3546 0.75186 0.2699 0.0
H159 H 0.37056 0.79343 0.26072 0.0
H160 H 0.33373 0.77392 0.24666 0.0
O161 O 0.36596 0.756 0.33662 0.0
O162 O 0.32286 0.77321 0.35896 0.0
H163 H 0.24233 0.79049 0.3264 0.0
H164 H 0.22284 0.79697 0.29876 0.0
C165 C 0.24239 0.80687 0.31096 0.0
H166 H 0.23504 0.8336 0.316 0.0
H167 H 0.26027 0.79605 0.37999 0.0
O168 O 0.41097 0.77352 0.2946 0.0
C169 C 0.34501 0.75048 0.35285 0.0
Co170 Co 0.45822 0.12762 0.56464 0.0
Co171 Co 0.43034 0.06495 0.59351 0.0
C172 C 0.39713 0.13621 0.59459 0.0
O173 O 0.41816 0.14809 0.57998 0.0
O174 O 0.39891 0.10476 0.60127 0.0
C175 C 0.4622 0.18843 0.53626 0.0
O176 O 0.42825 0.18902 0.53844 0.0
C177 C 0.37956 0.00918 0.60275 0.0
C178 C 0.40655 0.97878 0.6291 0.0
C179 C 0.37604 0.98034 0.61673 0.0
N180 N 0.41084 0.02367 0.60655 0.0
N181 N 0.4268 0.00535 0.62234 0.0
C182 C 0.35302 0.02418 0.58706 0.0
H183 H 0.35509 0.05293 0.58683 0.0
H184 H 0.35813 0.01477 0.56965 0.0
H185 H 0.32638 0.01628 0.59209 0.0
C186 C 0.45774 0.07631 0.52912 0.0
N187 N 0.44682 0.08663 0.54958 0.0
N188 N 0.43756 0.05938 0.56161 0.0
C189 C 0.4433 0.03057 0.54916 0.0
C190 C 0.45634 0.04045 0.52818 0.0
C191 C 0.47576 0.09967 0.51264 0.0
H192 H 0.50134 0.10745 0.51965 0.0
H193 H 0.46003 0.12345 0.51001 0.0
H194 H 0.47982 0.08654 0.49614 0.0
O195 O 0.49493 0.11723 0.58687 0.0
O196 O 0.47602 0.07376 0.60832 0.0
H197 H 0.45741 0.99435 0.57509 0.0
H198 H 0.45527 0.97561 0.54698 0.0
C199 C 0.44325 0.99457 0.55875 0.0
H200 H 0.41609 0.98649 0.56207 0.0
H201 H 0.45141 0.01119 0.62868 0.0
O202 O 0.47905 0.16325 0.54477 0.0
C203 C 0.49924 0.09592 0.60306 0.0
Co204 Co 0.12402 0.20939 0.81356 0.0
Co205 Co 0.18577 0.18198 0.84347 0.0
C206 C 0.11466 0.14831 0.84348 0.0
O207 O 0.10328 0.16944 0.82876 0.0
O208 O 0.14578 0.15029 0.85081 0.0
C209 C 0.0639 0.21276 0.78472 0.0
O210 O 0.06407 0.17876 0.78656 0.0
C211 C 0.24166 0.13177 0.85449 0.0
C212 C 0.2706 0.1602 0.88087 0.0
C213 C 0.26966 0.12892 0.86928 0.0
N214 N 0.22684 0.16317 0.85732 0.0
N215 N 0.24438 0.18001 0.8731 0.0
C216 C 0.22799 0.10462 0.83875 0.0
H217 H 0.20032 0.10974 0.83465 0.0
H218 H 0.24308 0.10538 0.82278 0.0
H219 H 0.23089 0.07838 0.84629 0.0
C220 C 0.17628 0.20865 0.77877 0.0
N221 N 0.16541 0.19787 0.79912 0.0
N222 N 0.19232 0.18886 0.81156 0.0
C223 C 0.22147 0.19463 0.79946 0.0
C224 C 0.21216 0.20745 0.77831 0.0
C225 C 0.15333 0.22643 0.76194 0.0
H226 H 0.12962 0.21064 0.75914 0.0
H227 H 0.16687 0.23028 0.74555 0.0
H228 H 0.14535 0.2521 0.76872 0.0
O229 O 0.13378 0.24648 0.83557 0.0
O230 O 0.17635 0.22793 0.85788 0.0
H231 H 0.25705 0.20976 0.8255 0.0
H232 H 0.2766 0.20588 0.7977 0.0
C233 C 0.25716 0.19471 0.8095 0.0
H234 H 0.26478 0.16766 0.81359 0.0
H235 H 0.23818 0.20491 0.87878 0.0
O236 O 0.08876 0.22993 0.79334 0.0
C237 C 0.15461 0.25117 0.85197 0.0
Co238 Co 0.04294 0.87375 0.06506 0.0
Co239 Co 0.069 0.93608 0.0949 0.0
C240 C 0.10286 0.865 0.09592 0.0
O241 O 0.08258 0.85322 0.08082 0.0
O242 O 0.10044 0.89629 0.10285 0.0
C243 C 0.03897 0.81272 0.03673 0.0
O244 O 0.07279 0.81108 0.03951 0.0
C245 C 0.1191 0.99182 0.10604 0.0
C246 C 0.09005 0.02177 0.13165 0.0
C247 C 0.12165 0.02028 0.12045 0.0
N248 N 0.08753 0.97729 0.10866 0.0
N249 N 0.07033 0.99539 0.12398 0.0
C250 C 0.1466 0.97754 0.09079 0.0
H251 H 0.14157 0.94973 0.0871 0.0
H252 H 0.1462 0.99199 0.07457 0.0
H253 H 0.17267 0.98073 0.09854 0.0
C254 C 0.04429 0.92566 0.02991 0.0
N255 N 0.05455 0.91508 0.05047 0.0
N256 N 0.06292 0.94217 0.06293 0.0
C257 C 0.0572 0.97115 0.05068 0.0
C258 C 0.04519 0.9616 0.02936 0.0
C259 C 0.02629 0.9024 0.01333 0.0
H260 H 0.00077 0.89445 0.02036 0.0
H261 H 0.04209 0.87868 0.01062 0.0
H262 H 0.02201 0.91545 0.99685 0.0
O263 O 0.00539 0.88363 0.0867 0.0
O264 O 0.02279 0.92684 0.10888 0.0
H265 H 0.04082 0.00761 0.07584 0.0
H266 H 0.04799 0.0266 0.04814 0.0
C267 C 0.05735 0.007 0.06048 0.0
H268 H 0.08418 0.01384 0.0656 0.0
H269 H 0.04522 0.98953 0.1294 0.0
O270 O 0.02254 0.83843 0.04485 0.0
C271 C 0.99998 0.90471 0.10287 0.0
Co272 Co 0.62403 0.79447 0.81429 0.0
Co273 Co 0.6855 0.82238 0.84422 0.0
C274 C 0.61428 0.85573 0.84404 0.0
O275 O 0.60305 0.83449 0.82934 0.0
O276 O 0.64538 0.85393 0.85141 0.0
C277 C 0.56393 0.79093 0.78547 0.0
O278 O 0.5641 0.82493 0.78729 0.0
C279 C 0.74096 0.87301 0.85517 0.0
C280 C 0.77042 0.84478 0.88139 0.0
C281 C 0.76913 0.87604 0.8698 0.0
N282 N 0.72641 0.8415 0.85806 0.0
N283 N 0.74423 0.82479 0.87376 0.0
C284 C 0.72694 0.90002 0.83946 0.0
H285 H 0.69923 0.89481 0.83557 0.0
H286 H 0.74175 0.89921 0.82338 0.0
H287 H 0.7299 0.92632 0.84692 0.0
C288 C 0.67655 0.79539 0.77951 0.0
N289 N 0.66549 0.80609 0.79986 0.0
N290 N 0.69226 0.81518 0.8124 0.0
C291 C 0.72152 0.80938 0.80045 0.0
C292 C 0.71248 0.79666 0.77922 0.0
C293 C 0.65377 0.77679 0.76293 0.0
H294 H 0.64583 0.75141 0.77019 0.0
H295 H 0.63001 0.79236 0.75983 0.0
H296 H 0.66723 0.77218 0.74663 0.0
O297 O 0.63366 0.75762 0.83657 0.0
O298 O 0.67618 0.77663 0.85876 0.0
H299 H 0.75751 0.79419 0.82621 0.0
H300 H 0.77701 0.80012 0.79854 0.0
C301 C 0.75717 0.81001 0.81053 0.0
H302 H 0.76389 0.83707 0.81519 0.0
H303 H 0.73829 0.79983 0.87945 0.0
O304 O 0.58882 0.77377 0.79406 0.0
C305 C 0.65436 0.75331 0.8531 0.0
Co306 Co 0.95683 0.87229 0.56526 0.0
Co307 Co 0.93038 0.93523 0.59444 0.0
C308 C 0.89632 0.86435 0.5957 0.0
O309 O 0.9169 0.85219 0.58091 0.0
O310 O 0.89864 0.89578 0.60236 0.0
C311 C 0.96002 0.81167 0.53655 0.0
O312 O 0.92608 0.81114 0.53886 0.0
C313 C 0.88046 0.99141 0.60482 0.0
C314 C 0.90869 0.02077 0.63111 0.0
C315 C 0.8775 0.01963 0.61941 0.0
N316 N 0.91182 0.97665 0.60786 0.0
N317 N 0.92856 0.99443 0.62356 0.0
C318 C 0.85343 0.97743 0.58911 0.0
H319 H 0.85854 0.94967 0.58529 0.0
H320 H 0.85436 0.99216 0.57301 0.0
H321 H 0.82712 0.98052 0.59653 0.0
C322 C 0.95654 0.92365 0.52991 0.0
N323 N 0.94553 0.91342 0.55036 0.0
N324 N 0.93713 0.94079 0.56255 0.0
C325 C 0.94367 0.96957 0.55027 0.0
C326 C 0.95641 0.95956 0.52924 0.0
C327 C 0.9733 0.89989 0.51311 0.0
H328 H 0.99869 0.89095 0.51981 0.0
H329 H 0.95658 0.87677 0.51046 0.0
H330 H 0.97752 0.91314 0.49667 0.0
O331 O 0.99419 0.88226 0.58715 0.0
O332 O 0.97615 0.92586 0.60881 0.0
H333 H 0.95983 0.00504 0.5761 0.0
H334 H 0.95639 0.02438 0.54822 0.0
C335 C 0.94474 0.00537 0.56011 0.0
H336 H 0.91791 0.01376 0.56421 0.0
H337 H 0.95339 0.98828 0.62939 0.0
O338 O 0.97702 0.83665 0.54516 0.0
C339 C 0.99904 0.90351 0.60332 0.0
Co340 Co 0.87555 0.20714 0.3134 0.0
Co341 Co 0.81426 0.17949 0.34357 0.0
C342 C 0.88546 0.14616 0.34333 0.0
O343 O 0.89664 0.16729 0.32854 0.0
O344 O 0.8544 0.14803 0.35076 0.0
C345 C 0.9358 0.21125 0.28464 0.0
O346 O 0.93623 0.17727 0.28658 0.0
C347 C 0.75877 0.12907 0.35477 0.0
C348 C 0.7293 0.15772 0.3808 0.0
C349 C 0.73053 0.12632 0.36937 0.0
N350 N 0.7734 0.16056 0.35752 0.0
N351 N 0.75558 0.17753 0.3731 0.0
C352 C 0.7727 0.10185 0.33917 0.0
H353 H 0.80051 0.1068 0.33542 0.0
H354 H 0.7581 0.10278 0.32302 0.0
H355 H 0.76942 0.07561 0.34665 0.0
C356 C 0.82284 0.20663 0.2789 0.0
N357 N 0.83405 0.19541 0.29909 0.0
N358 N 0.80736 0.18643 0.31173 0.0
C359 C 0.77801 0.19271 0.29998 0.0
C360 C 0.78691 0.20589 0.27883 0.0
C361 C 0.84553 0.22551 0.26242 0.0
H362 H 0.85325 0.25091 0.26976 0.0
H363 H 0.8694 0.21013 0.25926 0.0
H364 H 0.83204 0.23013 0.24612 0.0
O365 O 0.86573 0.24417 0.33544 0.0
O366 O 0.82351 0.2254 0.35795 0.0
H367 H 0.74252 0.20831 0.32592 0.0
H368 H 0.72257 0.2024 0.29838 0.0
C369 C 0.7425 0.19239 0.31028 0.0
H370 H 0.73563 0.1654 0.31503 0.0
H371 H 0.76154 0.20256 0.37865 0.0
O372 O 0.91059 0.22803 0.29314 0.0
C373 C 0.84503 0.24876 0.35192 0.0
Co374 Co 0.54343 0.12592 0.06616 0.0
Co375 Co 0.56902 0.06363 0.09619 0.0
C376 C 0.60248 0.13497 0.09755 0.0
O377 O 0.58267 0.14669 0.08217 0.0
O378 O 0.59992 0.10369 0.10449 0.0
C379 C 0.5393 0.18664 0.03745 0.0
O380 O 0.57313 0.18845 0.04015 0.0
C381 C 0.61928 0.00806 0.10729 0.0
C382 C 0.5904 0.97796 0.1329 0.0
C383 C 0.62195 0.97954 0.12166 0.0
N384 N 0.58769 0.02251 0.10998 0.0
N385 N 0.57059 0.00433 0.12531 0.0
C386 C 0.64667 0.02246 0.09201 0.0
H387 H 0.64166 0.05032 0.08848 0.0
H388 H 0.64608 0.00821 0.07571 0.0
H389 H 0.67281 0.01912 0.09964 0.0
C390 C 0.5455 0.07408 0.03102 0.0
N391 N 0.5555 0.08466 0.05163 0.0
N392 N 0.56353 0.05756 0.06417 0.0
C393 C 0.55778 0.02858 0.05193 0.0
C394 C 0.54614 0.03813 0.03052 0.0
C395 C 0.52784 0.09738 0.01431 0.0
H396 H 0.50213 0.10523 0.0211 0.0
H397 H 0.54366 0.12114 0.01179 0.0
H398 H 0.52397 0.08439 0.99777 0.0
O399 O 0.50562 0.1158 0.08756 0.0
O400 O 0.52252 0.07248 0.10981 0.0
H401 H 0.54078 0.99247 0.07713 0.0
H402 H 0.54786 0.97324 0.04948 0.0
C403 C 0.5574 0.99278 0.0618 0.0
H404 H 0.58411 0.98561 0.067 0.0
H405 H 0.54547 0.01011 0.13077 0.0
O406 O 0.52298 0.16106 0.04583 0.0
C407 C 0.49986 0.09464 0.10363 0.0
Co408 Co 0.62459 0.20736 0.68332 0.0
Co409 Co 0.68617 0.17937 0.65362 0.0
C410 C 0.61479 0.14617 0.65368 0.0
O411 O 0.60348 0.1673 0.66842 0.0
O412 O 0.6459 0.14805 0.64635 0.0
C413 C 0.56472 0.21198 0.71252 0.0
O414 O 0.56379 0.17798 0.71069 0.0
C415 C 0.74154 0.12843 0.64372 0.0
C416 C 0.772 0.15583 0.61758 0.0
C417 C 0.7704 0.12513 0.62974 0.0
N418 N 0.72709 0.15979 0.64014 0.0
N419 N 0.74543 0.17598 0.62446 0.0
C420 C 0.72659 0.10171 0.65931 0.0
H421 H 0.69783 0.10353 0.65938 0.0
H422 H 0.73572 0.10689 0.67677 0.0
H423 H 0.73479 0.07515 0.6543 0.0
C424 C 0.67678 0.20637 0.71831 0.0
N425 N 0.66592 0.19577 0.69789 0.0
N426 N 0.69278 0.18671 0.68544 0.0
C427 C 0.72194 0.19246 0.69752 0.0
C428 C 0.71271 0.20505 0.71876 0.0
C429 C 0.65386 0.22489 0.73485 0.0
H430 H 0.64585 0.25023 0.72758 0.0
H431 H 0.63016 0.20921 0.73791 0.0
H432 H 0.66719 0.22957 0.75118 0.0
O433 O 0.63445 0.24399 0.66091 0.0
O434 O 0.67724 0.22504 0.63892 0.0
H435 H 0.7581 0.20701 0.67168 0.0
H436 H 0.77736 0.20225 0.69953 0.0
C437 C 0.75772 0.19177 0.68761 0.0
H438 H 0.76475 0.16461 0.68342 0.0
H439 H 0.73967 0.20074 0.61834 0.0
O440 O 0.58966 0.22849 0.70349 0.0
C441 C 0.6553 0.24831 0.64446 0.0
Co442 Co 0.54342 0.8737 0.43293 0.0
Co443 Co 0.56958 0.93603 0.40319 0.0
C444 C 0.60294 0.86471 0.40195 0.0
O445 O 0.58286 0.85294 0.41716 0.0
O446 O 0.60051 0.896 0.39505 0.0
C447 C 0.53888 0.8128 0.46139 0.0
O448 O 0.57273 0.81098 0.45878 0.0
C449 C 0.62024 0.99164 0.39376 0.0
C450 C 0.5936 0.02167 0.36708 0.0
C451 C 0.62394 0.02029 0.37964 0.0
N452 N 0.58903 0.97708 0.38985 0.0
N453 N 0.57327 0.99517 0.37387 0.0
C454 C 0.64651 0.97687 0.40973 0.0
H455 H 0.64448 0.94812 0.41007 0.0
H456 H 0.64103 0.98646 0.42705 0.0
H457 H 0.67323 0.98476 0.40488 0.0
C458 C 0.54437 0.92543 0.468 0.0
N459 N 0.55529 0.91483 0.4476 0.0
N460 N 0.56349 0.94197 0.43515 0.0
C461 C 0.55694 0.97097 0.44722 0.0
C462 C 0.54448 0.96135 0.4684 0.0
C463 C 0.52694 0.9021 0.48477 0.0
H464 H 0.50129 0.89394 0.47804 0.0
H465 H 0.54298 0.87853 0.48742 0.0
H466 H 0.52303 0.91547 0.50121 0.0
O467 O 0.50596 0.88413 0.41129 0.0
O468 O 0.52329 0.92751 0.3892 0.0
H469 H 0.54079 0.00554 0.42085 0.0
H470 H 0.54277 0.02548 0.44862 0.0
C471 C 0.5553 0.00654 0.43705 0.0
H472 H 0.58203 0.01558 0.43332 0.0
H473 H 0.54874 0.98924 0.36743 0.0
O474 O 0.52265 0.83849 0.45306 0.0
C475 C 0.50047 0.9054 0.39522 0.0
Co476 Co 0.87628 0.79338 0.18378 0.0
Co477 Co 0.81338 0.8194 0.15449 0.0
C478 C 0.8845 0.85331 0.15307 0.0
O479 O 0.8966 0.83319 0.16815 0.0
O480 O 0.85315 0.85068 0.14631 0.0
C481 C 0.9373 0.78897 0.21215 0.0
O482 O 0.9389 0.82286 0.20972 0.0
C483 C 0.75727 0.86975 0.14545 0.0
C484 C 0.72727 0.84312 0.11875 0.0
C485 C 0.7285 0.87335 0.13143 0.0
N486 N 0.77206 0.83869 0.14138 0.0
N487 N 0.75397 0.82293 0.12539 0.0
C488 C 0.77196 0.89604 0.16144 0.0
H489 H 0.76231 0.89057 0.17875 0.0
H490 H 0.76403 0.92274 0.15659 0.0
H491 H 0.80071 0.89405 0.16183 0.0
C492 C 0.82497 0.79379 0.21916 0.0
N493 N 0.8352 0.80469 0.19868 0.0
N494 N 0.80784 0.81301 0.18647 0.0
C495 C 0.77906 0.80669 0.19882 0.0
C496 C 0.78908 0.79416 0.21991 0.0
C497 C 0.84866 0.77673 0.23588 0.0
H498 H 0.85672 0.75096 0.22929 0.0
H499 H 0.87225 0.79286 0.23821 0.0
H500 H 0.83563 0.77316 0.25247 0.0
O501 O 0.86602 0.75613 0.16197 0.0
O502 O 0.82216 0.77327 0.14022 0.0
H503 H 0.74374 0.79156 0.17259 0.0
H504 H 0.72456 0.79255 0.2006 0.0
C505 C 0.74321 0.80547 0.18902 0.0
H506 H 0.73412 0.83235 0.18583 0.0
H507 H 0.76006 0.79852 0.11883 0.0
O508 O 0.91175 0.77265 0.20372 0.0
C509 C 0.84462 0.75062 0.14599 0.0
Co510 Co 0.95936 0.12777 0.93321 0.0
Co511 Co 0.93042 0.06639 0.90362 0.0
C512 C 0.89743 0.13775 0.90412 0.0
O513 O 0.91906 0.1489 0.9186 0.0
O514 O 0.89894 0.10665 0.89673 0.0
C515 C 0.96331 0.1873 0.96248 0.0
O516 O 0.92925 0.18661 0.96131 0.0
C517 C 0.87899 0.01135 0.89388 0.0
C518 C 0.90596 0.98067 0.86766 0.0
C519 C 0.87535 0.98252 0.8799 0.0
N520 N 0.91045 0.02555 0.89022 0.0
N521 N 0.92638 0.00708 0.87449 0.0
C522 C 0.85249 0.02649 0.90954 0.0
H523 H 0.8545 0.05524 0.90962 0.0
H524 H 0.85771 0.01732 0.92699 0.0
H525 H 0.82584 0.01849 0.90461 0.0
C526 C 0.95933 0.07531 0.96799 0.0
N527 N 0.94804 0.08638 0.94778 0.0
N528 N 0.93836 0.05964 0.93539 0.0
C529 C 0.9442 0.03038 0.94734 0.0
C530 C 0.95777 0.0394 0.96836 0.0
C531 C 0.97864 0.098 0.98427 0.0
H532 H 0.00366 0.10604 0.97656 0.0
H533 H 0.96317 0.1217 0.98775 0.0
H534 H 0.98401 0.08446 0.00045 0.0
O535 O 0.99558 0.1179 0.91058 0.0
O536 O 0.97591 0.07543 0.88856 0.0
H537 H 0.95766 0.99395 0.92142 0.0
H538 H 0.95289 0.97478 0.94928 0.0
C539 C 0.94264 0.99463 0.93742 0.0
H540 H 0.91529 0.98814 0.93339 0.0
H541 H 0.95114 0.01264 0.86829 0.0
O542 O 0.98049 0.16297 0.95325 0.0
C543 C 0.99944 0.09717 0.89402 0.0
Co544 Co 0.87776 0.70784 0.68446 0.0
Co545 Co 0.81598 0.67977 0.65494 0.0
C546 C 0.88754 0.64712 0.65442 0.0
O547 O 0.8989 0.66812 0.66923 0.0
O548 O 0.85634 0.64891 0.64725 0.0
C549 C 0.93804 0.71276 0.71331 0.0
O550 O 0.93879 0.67872 0.71176 0.0
C551 C 0.761 0.62843 0.64503 0.0
C552 C 0.73012 0.6558 0.61908 0.0
C553 C 0.73212 0.62497 0.63108 0.0
N554 N 0.77509 0.65999 0.64158 0.0
N555 N 0.75649 0.67617 0.62603 0.0
C556 C 0.77628 0.60172 0.66049 0.0
H557 H 0.80501 0.60387 0.66056 0.0
H558 H 0.76709 0.60661 0.67797 0.0
H559 H 0.76839 0.57512 0.65536 0.0
C560 C 0.82586 0.70734 0.71947 0.0
N561 N 0.8367 0.69595 0.69922 0.0
N562 N 0.8098 0.6867 0.68686 0.0
C563 C 0.78066 0.69289 0.69886 0.0
C564 C 0.78993 0.70636 0.71987 0.0
C565 C 0.84876 0.72662 0.73563 0.0
H566 H 0.85637 0.75184 0.72801 0.0
H567 H 0.87268 0.71132 0.7388 0.0
H568 H 0.83552 0.73161 0.75197 0.0
O569 O 0.86703 0.74461 0.66244 0.0
O570 O 0.82416 0.72579 0.64046 0.0
H571 H 0.74452 0.70774 0.67309 0.0
H572 H 0.72522 0.70243 0.70087 0.0
C573 C 0.74491 0.69221 0.68889 0.0
H574 H 0.73801 0.6651 0.68449 0.0
H575 H 0.76195 0.70105 0.62001 0.0
O576 O 0.913 0.72917 0.70432 0.0
C577 C 0.84579 0.7492 0.64625 0.0
Co578 Co 0.54441 0.62814 0.93439 0.0
Co579 Co 0.57063 0.56642 0.90409 0.0
C580 C 0.60447 0.63753 0.9038 0.0
O581 O 0.58403 0.64895 0.91891 0.0
O582 O 0.60201 0.60649 0.8964 0.0
C583 C 0.54031 0.68867 0.96314 0.0
O584 O 0.5742 0.69008 0.96068 0.0
C585 C 0.62054 0.51041 0.89307 0.0
C586 C 0.5922 0.4817 0.86654 0.0
C587 C 0.62336 0.48242 0.87827 0.0
N588 N 0.58927 0.52542 0.89011 0.0
N589 N 0.57247 0.50803 0.87425 0.0
C590 C 0.64755 0.52388 0.90898 0.0
H591 H 0.64275 0.55168 0.91287 0.0
H592 H 0.64618 0.50904 0.92503 0.0
H593 H 0.67391 0.5205 0.9017 0.0
C594 C 0.54504 0.57569 0.96894 0.0
N595 N 0.55612 0.58667 0.94868 0.0
N596 N 0.56437 0.55977 0.93601 0.0
C597 C 0.55765 0.53056 0.9478 0.0
C598 C 0.54504 0.53977 0.96903 0.0
C599 C 0.52748 0.59872 0.98583 0.0
H600 H 0.50191 0.60705 0.97906 0.0
H601 H 0.54353 0.62222 0.98874 0.0
H602 H 0.52339 0.58505 0.00215 0.0
O603 O 0.50688 0.61842 0.91268 0.0
O604 O 0.52443 0.57567 0.89018 0.0
H605 H 0.54068 0.49638 0.92146 0.0
H606 H 0.5444 0.47582 0.94895 0.0
C607 C 0.55605 0.49521 0.93732 0.0
H608 H 0.58271 0.48672 0.93288 0.0
H609 H 0.54766 0.51437 0.86849 0.0
O610 O 0.52387 0.66316 0.95476 0.0
C611 C 0.50153 0.59756 0.89637 0.0
Co612 Co 0.62252 0.29569 0.18458 0.0
Co613 Co 0.68455 0.32089 0.15427 0.0
C614 C 0.61341 0.35476 0.15318 0.0
O615 O 0.60171 0.33494 0.16856 0.0
O616 O 0.64464 0.35207 0.1462 0.0
C617 C 0.56161 0.29175 0.21299 0.0
O618 O 0.55971 0.32552 0.21002 0.0
C619 C 0.74039 0.37077 0.14312 0.0
C620 C 0.76964 0.34212 0.11699 0.0
C621 C 0.76861 0.37345 0.12852 0.0
N622 N 0.72557 0.33939 0.14029 0.0
N623 N 0.74325 0.32242 0.12465 0.0
C624 C 0.72658 0.398 0.15876 0.0
H625 H 0.69877 0.39313 0.16255 0.0
H626 H 0.74124 0.39703 0.17489 0.0
H627 H 0.72992 0.42424 0.15129 0.0
C628 C 0.67479 0.29738 0.21944 0.0
N629 N 0.66398 0.30763 0.19893 0.0
N630 N 0.69096 0.31543 0.18624 0.0
C631 C 0.72007 0.30923 0.19824 0.0
C632 C 0.71074 0.29753 0.21967 0.0
C633 C 0.65161 0.27981 0.23626 0.0
H634 H 0.6438 0.25402 0.22958 0.0
H635 H 0.62783 0.2956 0.23879 0.0
H636 H 0.66475 0.27614 0.25277 0.0
O637 O 0.63222 0.2577 0.1632 0.0
O638 O 0.67533 0.27438 0.14072 0.0
H639 H 0.75529 0.29176 0.17264 0.0
H640 H 0.77523 0.29807 0.20016 0.0
C641 C 0.75565 0.30819 0.18806 0.0
H642 H 0.76331 0.3348 0.18295 0.0
H643 H 0.73709 0.29748 0.11902 0.0
O644 O 0.58749 0.27543 0.20501 0.0
C645 C 0.65317 0.25179 0.14702 0.0
Co646 Co 0.95548 0.37345 0.4334 0.0
Co647 Co 0.9291 0.43565 0.40365 0.0
C648 C 0.89589 0.36433 0.40234 0.0
O649 O 0.91622 0.35265 0.41743 0.0
O650 O 0.89804 0.39569 0.39552 0.0
C651 C 0.95884 0.31262 0.46168 0.0
O652 O 0.92497 0.31184 0.45899 0.0
C653 C 0.87855 0.49118 0.39372 0.0
C654 C 0.90634 0.52199 0.36792 0.0
C655 C 0.87547 0.52023 0.37989 0.0
N656 N 0.90995 0.47676 0.39024 0.0
N657 N 0.92638 0.4953 0.37477 0.0
C658 C 0.85163 0.47606 0.40908 0.0
H659 H 0.8534 0.44729 0.40898 0.0
H660 H 0.85663 0.48492 0.42662 0.0
H661 H 0.82515 0.48437 0.40399 0.0
C662 C 0.95351 0.42506 0.46867 0.0
N663 N 0.94327 0.41451 0.4481 0.0
N664 N 0.93503 0.44162 0.43564 0.0
C665 C 0.94095 0.47059 0.44786 0.0
C666 C 0.9529 0.461 0.46919 0.0
C667 C 0.97142 0.40176 0.48526 0.0
H668 H 0.99709 0.39404 0.47836 0.0
H669 H 0.95571 0.37794 0.48781 0.0
H670 H 0.97538 0.41473 0.5018 0.0
O671 O 0.99314 0.38393 0.4119 0.0
O672 O 0.9754 0.42701 0.38971 0.0
H673 H 0.95727 0.5065 0.42232 0.0
H674 H 0.9518 0.5258 0.4501 0.0
C675 C 0.9414 0.5064 0.43799 0.0
H676 H 0.91457 0.51401 0.43336 0.0
H677 H 0.95122 0.48961 0.36876 0.0
O678 O 0.97578 0.33804 0.45361 0.0
C679 C 0.99842 0.40513 0.39577 0.0
Co680 Co 0.87674 0.294 0.81549 0.0
Co681 Co 0.81402 0.32164 0.8444 0.0
C682 C 0.88514 0.35528 0.84524 0.0
O683 O 0.89712 0.33436 0.83059 0.0
O684 O 0.85374 0.35324 0.85198 0.0
C685 C 0.93708 0.28957 0.78651 0.0
O686 O 0.93791 0.32359 0.78827 0.0
C687 C 0.75834 0.37246 0.85384 0.0
C688 C 0.72754 0.34506 0.87981 0.0
C689 C 0.72934 0.3758 0.8677 0.0
N690 N 0.77269 0.34105 0.85745 0.0
N691 N 0.75412 0.32485 0.87301 0.0
C692 C 0.77353 0.39921 0.83839 0.0
H693 H 0.76438 0.39428 0.8209 0.0
H694 H 0.76552 0.42578 0.8435 0.0
H695 H 0.80228 0.39719 0.83832 0.0
C696 C 0.82518 0.29329 0.78013 0.0
N697 N 0.83556 0.30484 0.80045 0.0
N698 N 0.80834 0.31398 0.81255 0.0
C699 C 0.77949 0.30758 0.80031 0.0
C700 C 0.78927 0.29411 0.7794 0.0
C701 C 0.84857 0.27433 0.7641 0.0
H702 H 0.85671 0.24937 0.77186 0.0
H703 H 0.87215 0.29012 0.7609 0.0
H704 H 0.83554 0.26884 0.74776 0.0
O705 O 0.86669 0.25749 0.8379 0.0
O706 O 0.82314 0.27618 0.85938 0.0
H707 H 0.74273 0.29301 0.82577 0.0
H708 H 0.72409 0.29805 0.79776 0.0
C709 C 0.74351 0.30838 0.8099 0.0
H710 H 0.73651 0.33554 0.81412 0.0
H711 H 0.75979 0.30009 0.87916 0.0
O712 O 0.9123 0.27301 0.79568 0.0
C713 C 0.84548 0.25312 0.85413 0.0
Co714 Co 0.95654 0.62598 0.06562 0.0
Co715 Co 0.92998 0.56355 0.09517 0.0
C716 C 0.89649 0.63479 0.09632 0.0
O717 O 0.91689 0.64662 0.08131 0.0
O718 O 0.89877 0.60346 0.10315 0.0
C719 C 0.96018 0.687 0.03747 0.0
O720 O 0.92631 0.68784 0.04012 0.0
C721 C 0.87905 0.50818 0.10471 0.0
C722 C 0.90625 0.4772 0.13068 0.0
C723 C 0.87556 0.47916 0.11853 0.0
N724 N 0.9105 0.52238 0.10838 0.0
N725 N 0.92659 0.50373 0.12395 0.0
C726 C 0.85244 0.52349 0.08921 0.0
H727 H 0.8545 0.55223 0.08922 0.0
H728 H 0.85749 0.51444 0.07171 0.0
H729 H 0.82582 0.51549 0.09421 0.0
C730 C 0.95515 0.57437 0.03027 0.0
N731 N 0.94477 0.58485 0.05083 0.0
N732 N 0.93643 0.55768 0.06321 0.0
C733 C 0.9424 0.52876 0.05094 0.0
C734 C 0.95446 0.53843 0.02966 0.0
C735 C 0.97308 0.59774 0.01373 0.0
H736 H 0.9987 0.60551 0.0207 0.0
H737 H 0.95734 0.62154 0.01117 0.0
H738 H 0.97716 0.5848 0.99719 0.0
O739 O 0.99386 0.61558 0.08741 0.0
O740 O 0.97606 0.57231 0.10945 0.0
H741 H 0.95819 0.49265 0.0765 0.0
H742 H 0.9532 0.47355 0.04863 0.0
C743 C 0.94261 0.49288 0.06072 0.0
H744 H 0.91568 0.4853 0.06511 0.0
H745 H 0.95136 0.50928 0.13012 0.0
O746 O 0.97705 0.6615 0.04554 0.0
C747 C 0.99902 0.59438 0.10356 0.0
Co748 Co 0.62261 0.70484 0.31481 0.0
Co749 Co 0.68524 0.67954 0.34458 0.0
C750 C 0.6143 0.64526 0.34582 0.0
O751 O 0.60227 0.66521 0.33062 0.0
O752 O 0.6456 0.64805 0.35268 0.0
C753 C 0.56137 0.70937 0.28652 0.0
O754 O 0.55912 0.67559 0.28938 0.0
C755 C 0.74147 0.62986 0.35514 0.0
C756 C 0.7705 0.65809 0.38157 0.0
C757 C 0.76962 0.62698 0.36978 0.0
N758 N 0.72651 0.66111 0.35823 0.0
N759 N 0.74409 0.67785 0.37403 0.0
C760 C 0.72777 0.60289 0.33928 0.0
H761 H 0.69994 0.60775 0.33552 0.0
H762 H 0.74245 0.60424 0.32317 0.0
H763 H 0.73117 0.57651 0.34654 0.0
C764 C 0.6744 0.70465 0.27982 0.0
N765 N 0.66393 0.69345 0.30018 0.0
N766 N 0.69118 0.68564 0.31265 0.0
C767 C 0.72009 0.69276 0.30064 0.0
C768 C 0.71032 0.7053 0.27951 0.0
C769 C 0.65072 0.7212 0.26288 0.0
H770 H 0.64183 0.74673 0.2694 0.0
H771 H 0.62756 0.70451 0.26031 0.0
H772 H 0.66407 0.72516 0.24645 0.0
O773 O 0.63254 0.74255 0.33637 0.0
O774 O 0.67607 0.7257 0.35846 0.0
H775 H 0.75446 0.71003 0.3268 0.0
H776 H 0.77463 0.70681 0.29916 0.0
C777 C 0.75559 0.6948 0.31089 0.0
H778 H 0.76451 0.66822 0.31518 0.0
H779 H 0.73778 0.70263 0.37988 0.0
O780 O 0.58735 0.72539 0.29463 0.0
C781 C 0.65375 0.74829 0.35242 0.0
Co782 Co 0.5454 0.37438 0.5635 0.0
Co783 Co 0.57241 0.43567 0.59385 0.0
C784 C 0.60567 0.36435 0.59389 0.0
O785 O 0.58502 0.35318 0.57882 0.0
O786 O 0.60353 0.39537 0.60135 0.0
C787 C 0.5409 0.31412 0.53456 0.0
O788 O 0.57482 0.31271 0.53682 0.0
C789 C 0.62293 0.49093 0.60522 0.0
C790 C 0.5946 0.52 0.63159 0.0
C791 C 0.62591 0.51884 0.62005 0.0
N792 N 0.5914 0.47637 0.60795 0.0
N793 N 0.57462 0.49396 0.62373 0.0
C794 C 0.65 0.47715 0.58946 0.0
H795 H 0.64484 0.44947 0.58544 0.0
H796 H 0.64915 0.49214 0.57345 0.0
H797 H 0.67628 0.48008 0.59695 0.0
C798 C 0.54603 0.42712 0.52906 0.0
N799 N 0.55723 0.4159 0.54926 0.0
N800 N 0.56595 0.44261 0.56197 0.0
C801 C 0.5595 0.47196 0.55026 0.0
C802 C 0.54648 0.46307 0.52907 0.0
C803 C 0.52732 0.40438 0.51252 0.0
H804 H 0.50188 0.39662 0.51977 0.0
H805 H 0.54278 0.38055 0.50941 0.0
H806 H 0.52279 0.41785 0.49621 0.0
O807 O 0.50811 0.3842 0.58536 0.0
O808 O 0.52626 0.42666 0.6079 0.0
H809 H 0.54339 0.50718 0.57624 0.0
H810 H 0.54942 0.52734 0.54877 0.0
C811 C 0.55946 0.50742 0.56066 0.0
H812 H 0.58634 0.51445 0.56555 0.0
H813 H 0.54963 0.48795 0.62932 0.0
O814 O 0.52455 0.33953 0.54314 0.0
C815 C 0.50311 0.405 0.60174 0.0
Co816 Co 0.12237 0.29352 0.31546 0.0
Co817 Co 0.18521 0.32006 0.34471 0.0
C818 C 0.11421 0.35396 0.34593 0.0
O819 O 0.10213 0.33342 0.33108 0.0
O820 O 0.14561 0.35167 0.35265 0.0
C821 C 0.06171 0.28957 0.28664 0.0
O822 O 0.06036 0.32348 0.28902 0.0
C823 C 0.24154 0.36982 0.35532 0.0
C824 C 0.27083 0.34115 0.38143 0.0
C825 C 0.26982 0.37247 0.36989 0.0
N826 N 0.22663 0.33849 0.35822 0.0
N827 N 0.24437 0.3215 0.37382 0.0
C828 C 0.22768 0.39708 0.33974 0.0
H829 H 0.19986 0.3922 0.33596 0.0
H830 H 0.24232 0.39616 0.32359 0.0
H831 H 0.23101 0.42331 0.34724 0.0
C832 C 0.17382 0.29382 0.28018 0.0
N833 N 0.16352 0.30491 0.3006 0.0
N834 N 0.19083 0.31339 0.31281 0.0
C835 C 0.21965 0.30684 0.30058 0.0
C836 C 0.20973 0.294 0.27956 0.0
C837 C 0.15015 0.27681 0.26342 0.0
H838 H 0.12694 0.29336 0.26073 0.0
H839 H 0.16343 0.27255 0.24699 0.0
H840 H 0.14137 0.25139 0.27019 0.0
O841 O 0.13241 0.25619 0.33732 0.0
O842 O 0.176 0.27421 0.35897 0.0
H843 H 0.25506 0.29052 0.32639 0.0
H844 H 0.2745 0.29428 0.29857 0.0
C845 C 0.25542 0.30577 0.31048 0.0
H846 H 0.26371 0.33258 0.3147 0.0
H847 H 0.23813 0.29662 0.37952 0.0
O848 O 0.08689 0.27304 0.29537 0.0
C849 C 0.1537 0.25129 0.35346 0.0
Co850 Co 0.45685 0.37334 0.06373 0.0
Co851 Co 0.42898 0.43546 0.09309 0.0
C852 C 0.39553 0.36426 0.09341 0.0
O853 O 0.41678 0.3527 0.07883 0.0
O854 O 0.39741 0.39546 0.10057 0.0
C855 C 0.46088 0.31263 0.03546 0.0
O856 O 0.42689 0.31252 0.03728 0.0
C857 C 0.37843 0.49148 0.10258 0.0
C858 C 0.4055 0.52122 0.12923 0.0
C859 C 0.37506 0.52011 0.11677 0.0
N860 N 0.40957 0.47666 0.10637 0.0
N861 N 0.42558 0.49461 0.12232 0.0
C862 C 0.35189 0.47699 0.08669 0.0
H863 H 0.35385 0.44825 0.08615 0.0
H864 H 0.3571 0.48684 0.0694 0.0
H865 H 0.32527 0.48489 0.09177 0.0
C866 C 0.45642 0.42503 0.02858 0.0
N867 N 0.44535 0.41444 0.04893 0.0
N868 N 0.43626 0.44153 0.06118 0.0
C869 C 0.44231 0.47052 0.04897 0.0
C870 C 0.45534 0.46091 0.02793 0.0
C871 C 0.4745 0.40184 0.01202 0.0
H872 H 0.50011 0.39409 0.019 0.0
H873 H 0.45884 0.37803 0.00931 0.0
H874 H 0.47852 0.41512 0.99556 0.0
O875 O 0.49358 0.38368 0.0859 0.0
O876 O 0.47475 0.42662 0.10783 0.0
H877 H 0.45675 0.50609 0.0752 0.0
H878 H 0.45484 0.52539 0.04724 0.0
C879 C 0.44262 0.50632 0.05885 0.0
H880 H 0.41554 0.51461 0.06223 0.0
H881 H 0.45011 0.48848 0.12868 0.0
O882 O 0.47782 0.33781 0.04388 0.0
C883 C 0.49808 0.40481 0.10216 0.0
Co884 Co 0.37676 0.70874 0.81588 0.0
Co885 Co 0.31414 0.68224 0.84526 0.0
C886 C 0.3855 0.64889 0.84664 0.0
O887 O 0.39738 0.66918 0.83159 0.0
O888 O 0.35414 0.65119 0.85342 0.0
C889 C 0.43748 0.71332 0.7872 0.0
O890 O 0.43893 0.67938 0.78938 0.0
C891 C 0.25848 0.63148 0.8547 0.0
C892 C 0.22796 0.6586 0.88094 0.0
C893 C 0.22959 0.62803 0.86864 0.0
N894 N 0.27294 0.6628 0.85844 0.0
N895 N 0.25455 0.67883 0.87417 0.0
C896 C 0.27345 0.60489 0.83904 0.0
H897 H 0.30219 0.60703 0.83873 0.0
H898 H 0.26391 0.60985 0.82164 0.0
H899 H 0.26563 0.57826 0.84415 0.0
C900 C 0.32555 0.70709 0.78033 0.0
N901 N 0.3358 0.69687 0.80097 0.0
N902 N 0.30852 0.68856 0.81326 0.0
C903 C 0.27972 0.6944 0.80083 0.0
C904 C 0.28963 0.7063 0.77956 0.0
C905 C 0.34908 0.72496 0.76386 0.0
H906 H 0.35694 0.75053 0.77087 0.0
H907 H 0.37281 0.70911 0.76133 0.0
H908 H 0.33629 0.72916 0.74729 0.0
O909 O 0.36614 0.74599 0.8376 0.0
O910 O 0.32262 0.72842 0.85948 0.0
H911 H 0.24331 0.71011 0.82624 0.0
H912 H 0.22453 0.70516 0.79826 0.0
C913 C 0.24374 0.69457 0.81043 0.0
H914 H 0.2361 0.66763 0.81477 0.0
H915 H 0.26033 0.70349 0.88045 0.0
O916 O 0.41216 0.72962 0.79593 0.0
C917 C 0.34477 0.7513 0.85363 0.0
Co918 Co 0.04284 0.62607 0.56391 0.0
Co919 Co 0.07091 0.56454 0.59367 0.0
C920 C 0.10469 0.63553 0.59308 0.0
O921 O 0.08336 0.64691 0.57849 0.0
O922 O 0.10274 0.60448 0.60051 0.0
C923 C 0.03809 0.68583 0.53454 0.0
O924 O 0.07211 0.68673 0.53618 0.0
C925 C 0.12143 0.50906 0.60464 0.0
C926 C 0.0932 0.47981 0.63097 0.0
C927 C 0.12445 0.48101 0.61936 0.0
N928 N 0.08994 0.52364 0.60751 0.0
N929 N 0.07322 0.50595 0.62326 0.0
C930 C 0.14845 0.52294 0.58888 0.0
H931 H 0.14324 0.55063 0.5849 0.0
H932 H 0.14761 0.508 0.57285 0.0
H933 H 0.17475 0.52003 0.59635 0.0
C934 C 0.04217 0.57332 0.52934 0.0
N935 N 0.05369 0.58441 0.54949 0.0
N936 N 0.06305 0.55766 0.56195 0.0
C937 C 0.05676 0.52837 0.55013 0.0
C938 C 0.04318 0.53739 0.52911 0.0
C939 C 0.02305 0.5961 0.51301 0.0
H940 H 0.99802 0.60426 0.52066 0.0
H941 H 0.03865 0.61972 0.50955 0.0
H942 H 0.01771 0.58256 0.49683 0.0
O943 O 0.00647 0.6169 0.58658 0.0
O944 O 0.02559 0.57424 0.6086 0.0
H945 H 0.04211 0.49232 0.57597 0.0
H946 H 0.04787 0.47283 0.54828 0.0
C947 C 0.05777 0.49274 0.56022 0.0
H948 H 0.08493 0.48622 0.56476 0.0
H949 H 0.04829 0.51196 0.62895 0.0
O950 O 0.02166 0.66097 0.54373 0.0
C951 C 0.00237 0.59628 0.60316 0.0
Co952 Co 0.12378 0.70669 0.18373 0.0
Co953 Co 0.18593 0.68017 0.15388 0.0
C954 C 0.11489 0.64641 0.15309 0.0
O955 O 0.1032 0.66697 0.16805 0.0
O956 O 0.14617 0.64862 0.14614 0.0
C957 C 0.06282 0.70999 0.21197 0.0
O958 O 0.06195 0.67615 0.20917 0.0
C959 C 0.24146 0.62988 0.14259 0.0
C960 C 0.27123 0.65878 0.11684 0.0
C961 C 0.26972 0.62717 0.12801 0.0
N962 N 0.22706 0.66153 0.14006 0.0
N963 N 0.24507 0.67865 0.12465 0.0
C964 C 0.22723 0.60245 0.15791 0.0
H965 H 0.19948 0.60761 0.16173 0.0
H966 H 0.24186 0.6028 0.17406 0.0
H967 H 0.2302 0.57636 0.15015 0.0
C968 C 0.17593 0.70615 0.21865 0.0
N969 N 0.16518 0.69515 0.19829 0.0
N970 N 0.19218 0.68658 0.18581 0.0
C971 C 0.22126 0.69286 0.19785 0.0
C972 C 0.21187 0.70566 0.21901 0.0
C973 C 0.15278 0.72456 0.23509 0.0
H974 H 0.14494 0.74998 0.22786 0.0
H975 H 0.12902 0.7089 0.23798 0.0
H976 H 0.16594 0.72907 0.25151 0.0
O977 O 0.13366 0.74419 0.16203 0.0
O978 O 0.17657 0.72628 0.13976 0.0
H979 H 0.25729 0.70914 0.17241 0.0
H980 H 0.27667 0.70241 0.20005 0.0
C981 C 0.25698 0.69278 0.18786 0.0
H982 H 0.26389 0.66592 0.18282 0.0
H983 H 0.23926 0.70379 0.11926 0.0
O984 O 0.08835 0.72691 0.20399 0.0
C985 C 0.15465 0.74929 0.14577 0.0
Co986 Co 0.04309 0.37526 0.933 0.0
Co987 Co 0.0698 0.43778 0.90359 0.0
C988 C 0.10334 0.36661 0.90236 0.0
O989 O 0.08282 0.35476 0.9173 0.0
O990 O 0.10119 0.39799 0.8956 0.0
C991 C 0.03939 0.31463 0.96169 0.0
O992 O 0.07335 0.31376 0.95948 0.0
C993 C 0.12016 0.4935 0.89285 0.0
C994 C 0.0913 0.52385 0.86736 0.0
C995 C 0.12286 0.52212 0.87858 0.0
N996 N 0.08856 0.47911 0.89011 0.0
N997 N 0.07146 0.49746 0.87486 0.0
C998 C 0.14756 0.47897 0.90808 0.0
H999 H 0.14244 0.45112 0.91161 0.0
H1000 H 0.14711 0.49323 0.92437 0.0
H1001 H 0.17367 0.48219 0.9004 0.0
C1002 C 0.04342 0.42693 0.96822 0.0
N1003 N 0.05457 0.41642 0.94784 0.0
N1004 N 0.06331 0.44358 0.93556 0.0
C1005 C 0.05707 0.4725 0.94776 0.0
C1006 C 0.04408 0.46286 0.96882 0.0
C1007 C 0.02473 0.40362 0.98444 0.0
H1008 H 0.99952 0.39568 0.97695 0.0
H1009 H 0.04045 0.37993 0.98745 0.0
H1010 H 0.01977 0.41668 0.00084 0.0
O1011 O 0.00576 0.3855 0.91128 0.0
O1012 O 0.02371 0.4288 0.88935 0.0
H1013 H 0.04116 0.50901 0.9225 0.0
H1014 H 0.04774 0.52792 0.95029 0.0
C1015 C 0.05739 0.50838 0.938 0.0
H1016 H 0.08431 0.51526 0.93312 0.0
H1017 H 0.04634 0.49176 0.86938 0.0
O1018 O 0.02264 0.33969 0.953 0.0
C1019 C 0.0007 0.40677 0.89516 0.0
Co1020 Co 0.37833 0.29407 0.68231 0.0
Co1021 Co 0.31577 0.32107 0.65308 0.0
C1022 C 0.38712 0.35417 0.65166 0.0
O1023 O 0.39898 0.33359 0.66655 0.0
O1024 O 0.35569 0.35219 0.64497 0.0
C1025 C 0.43896 0.29027 0.71089 0.0
O1026 O 0.43965 0.32421 0.70865 0.0
C1027 C 0.25996 0.37168 0.64377 0.0
C1028 C 0.22956 0.34458 0.61745 0.0
C1029 C 0.23109 0.37511 0.6298 0.0
N1030 N 0.27451 0.34042 0.63996 0.0
N1031 N 0.25619 0.3244 0.6242 0.0
C1032 C 0.27493 0.39821 0.65947 0.0
H1033 H 0.30369 0.39628 0.65961 0.0
H1034 H 0.26567 0.3929 0.67689 0.0
H1035 H 0.26686 0.42484 0.65454 0.0
C1036 C 0.32715 0.29506 0.71771 0.0
N1037 N 0.33748 0.30603 0.69727 0.0
N1038 N 0.31018 0.3145 0.68504 0.0
C1039 C 0.28135 0.30802 0.69729 0.0
C1040 C 0.29125 0.29534 0.71836 0.0
C1041 C 0.35069 0.27764 0.73436 0.0
H1042 H 0.37416 0.29384 0.73701 0.0
H1043 H 0.33748 0.27351 0.75083 0.0
H1044 H 0.35901 0.25212 0.72752 0.0
O1045 O 0.36751 0.25676 0.6606 0.0
O1046 O 0.32422 0.27504 0.63874 0.0
H1047 H 0.24614 0.2922 0.6712 0.0
H1048 H 0.22671 0.29451 0.6991 0.0
C1049 C 0.24559 0.30678 0.68738 0.0
H1050 H 0.23682 0.33361 0.68366 0.0
H1051 H 0.26205 0.29978 0.61788 0.0
O1052 O 0.41384 0.27344 0.70231 0.0
C1053 C 0.3461 0.25186 0.64452 0.0
Co1054 Co 0.45607 0.6259 0.43386 0.0
Co1055 Co 0.42981 0.56335 0.40429 0.0
C1056 C 0.39639 0.63459 0.40283 0.0
O1057 O 0.41663 0.64645 0.41792 0.0
O1058 O 0.39868 0.60321 0.39607 0.0
C1059 C 0.45953 0.6874 0.46157 0.0
O1060 O 0.42574 0.68842 0.45859 0.0
C1061 C 0.37931 0.50763 0.39454 0.0
C1062 C 0.40675 0.47721 0.36839 0.0
C1063 C 0.37604 0.47877 0.38055 0.0
N1064 N 0.41064 0.52213 0.39096 0.0
N1065 N 0.42688 0.5038 0.37529 0.0
C1066 C 0.35257 0.52255 0.41011 0.0
H1067 H 0.35452 0.55131 0.41032 0.0
H1068 H 0.35759 0.51321 0.42755 0.0
H1069 H 0.32601 0.51452 0.405 0.0
C1070 C 0.45462 0.5744 0.46921 0.0
N1071 N 0.44411 0.58483 0.44868 0.0
N1072 N 0.43597 0.55761 0.43627 0.0
C1073 C 0.44229 0.52872 0.44849 0.0
C1074 C 0.45435 0.53845 0.46976 0.0
C1075 C 0.47247 0.59786 0.48574 0.0
H1076 H 0.49819 0.60546 0.47886 0.0
H1077 H 0.45679 0.62173 0.48815 0.0
H1078 H 0.47631 0.58501 0.50233 0.0
O1079 O 0.49363 0.61541 0.41226 0.0
O1080 O 0.47599 0.57206 0.39023 0.0
H1081 H 0.45883 0.49304 0.42288 0.0
H1082 H 0.4539 0.47367 0.45068 0.0
C1083 C 0.44311 0.49293 0.43861 0.0
H1084 H 0.41634 0.48497 0.43408 0.0
H1085 H 0.4516 0.50963 0.36914 0.0
O1086 O 0.47639 0.66158 0.45393 0.0
C1087 C 0.49892 0.59412 0.39617 0.0
C1088 C 0.49757 0.28797 0.21906 0.0
C1089 C 0.53026 0.27171 0.2195 0.0
C1090 C 0.46695 0.26837 0.21842 0.0
C1091 C 0.46786 0.23177 0.21822 0.0
H1092 H 0.49552 0.31592 0.21739 0.0
H1093 H 0.44257 0.28211 0.21646 0.0
S1094 S 0.54655 0.17703 0.22523 0.0
N1095 N 0.56148 0.2172 0.22427 0.0
N1096 N 0.50393 0.18032 0.22297 0.0
C1097 C 0.50013 0.21535 0.2215 0.0
C1098 C 0.53136 0.23536 0.22215 0.0
C1099 C 0.03406 0.25058 0.46837 0.0
C1100 C 0.01741 0.21809 0.46857 0.0
C1101 C 0.01482 0.28144 0.46833 0.0
C1102 C 0.9782 0.28096 0.46852 0.0
H1103 H 0.06199 0.25233 0.46638 0.0
H1104 H 0.0288 0.3057 0.46649 0.0
S1105 S 0.92277 0.20269 0.47525 0.0
N1106 N 0.96273 0.18733 0.47357 0.0
N1107 N 0.92647 0.24534 0.47347 0.0
C1108 C 0.96149 0.24878 0.47158 0.0
C1109 C 0.98114 0.21732 0.47159 0.0
C1110 C 0.03319 0.73366 0.71969 0.0
C1111 C 0.03342 0.77024 0.71884 0.0
C1112 C 0.00197 0.71502 0.72016 0.0
C1113 C 0.96977 0.73225 0.7197 0.0
H1114 H 0.05724 0.71916 0.71844 0.0
H1115 H 0.00324 0.68695 0.71908 0.0
S1116 S 0.95612 0.82763 0.72293 0.0
N1117 N 0.9987 0.82296 0.72167 0.0
N1118 N 0.94003 0.78789 0.72258 0.0
C1119 C 0.96967 0.76874 0.72152 0.0
C1120 C 0.00151 0.78776 0.7211 0.0
C1121 C 0.53708 0.75278 0.96902 0.0
C1122 C 0.52056 0.72022 0.96957 0.0
C1123 C 0.51772 0.78356 0.96844 0.0
C1124 C 0.48111 0.78297 0.9684 0.0
H1125 H 0.56503 0.75459 0.96723 0.0
H1126 H 0.53164 0.80783 0.96641 0.0
S1127 S 0.42581 0.7047 0.97561 0.0
N1128 N 0.46585 0.68944 0.9745 0.0
N1129 N 0.42942 0.74729 0.97333 0.0
C1130 C 0.46447 0.75081 0.97173 0.0
C1131 C 0.48422 0.71942 0.97232 0.0
C1132 C 0.46707 0.73369 0.27988 0.0
C1133 C 0.4683 0.77029 0.28009 0.0
C1134 C 0.49752 0.7138 0.27971 0.0
C1135 C 0.53037 0.72974 0.27974 0.0
H1136 H 0.44251 0.72017 0.2815 0.0
H1137 H 0.49515 0.68587 0.28135 0.0
S1138 S 0.54773 0.82427 0.27417 0.0
N1139 N 0.50502 0.82138 0.27582 0.0
N1140 N 0.56225 0.78397 0.27539 0.0
C1141 C 0.5319 0.76609 0.2771 0.0
C1142 C 0.50084 0.78639 0.27729 0.0
C1143 C 0.53757 0.25006 0.52848 0.0
C1144 C 0.52108 0.28264 0.52807 0.0
C1145 C 0.51818 0.2193 0.52902 0.0
C1146 C 0.48157 0.21994 0.52914 0.0
H1147 H 0.56553 0.24821 0.53021 0.0
H1148 H 0.53208 0.19501 0.53096 0.0
S1149 S 0.42633 0.29833 0.52227 0.0
N1150 N 0.46639 0.31352 0.52334 0.0
N1151 N 0.4299 0.25571 0.52441 0.0
C1152 C 0.46495 0.25214 0.52593 0.0
C1153 C 0.48474 0.28351 0.5254 0.0
C1154 C 0.0318 0.26823 0.77823 0.0
C1155 C 0.03173 0.23162 0.77835 0.0
C1156 C 0.00074 0.28715 0.77867 0.0
C1157 C 0.96843 0.27015 0.77929 0.0
H1158 H 0.056 0.28249 0.77942 0.0
H1159 H 0.00228 0.31513 0.78031 0.0
S1160 S 0.95381 0.17515 0.774 0.0
N1161 N 0.99646 0.17939 0.77477 0.0
N1162 N 0.93808 0.21498 0.77555 0.0
C1163 C 0.96792 0.23379 0.77665 0.0
C1164 C 0.9996 0.21449 0.77616 0.0
C1165 C 0.03561 0.74872 0.03027 0.0
C1166 C 0.01914 0.78132 0.03005 0.0
C1167 C 0.01621 0.71795 0.03053 0.0
C1168 C 0.9796 0.7186 0.03056 0.0
H1169 H 0.06356 0.74682 0.03204 0.0
H1170 H 0.0301 0.69363 0.03234 0.0
S1171 S 0.92442 0.79709 0.02403 0.0
N1172 N 0.96447 0.81227 0.02534 0.0
N1173 N 0.92797 0.75444 0.02591 0.0
C1174 C 0.96301 0.75085 0.02753 0.0
C1175 C 0.98281 0.78222 0.02727 0.0
C1176 C 0.532 0.73547 0.7786 0.0
C1177 C 0.53173 0.77206 0.77914 0.0
C1178 C 0.50104 0.71637 0.77902 0.0
C1179 C 0.46864 0.73315 0.78005 0.0
H1180 H 0.5563 0.72132 0.77944 0.0
H1181 H 0.50277 0.68835 0.78029 0.0
S1182 S 0.45344 0.82826 0.77617 0.0
N1183 N 0.49613 0.82421 0.77655 0.0
N1184 N 0.43796 0.78831 0.77727 0.0
C1185 C 0.46791 0.7696 0.77788 0.0
C1186 C 0.49947 0.78907 0.77741 0.0
C1187 C 0.03516 0.74988 0.52855 0.0
C1188 C 0.01852 0.71739 0.52799 0.0
C1189 C 0.01589 0.78072 0.52916 0.0
C1190 C 0.97927 0.78022 0.52921 0.0
H1191 H 0.06311 0.75159 0.53038 0.0
H1192 H 0.02988 0.80493 0.53124 0.0
S1193 S 0.92379 0.70216 0.52171 0.0
N1194 N 0.96378 0.68677 0.5229 0.0
N1195 N 0.92749 0.74473 0.52408 0.0
C1196 C 0.96254 0.74814 0.52578 0.0
C1197 C 0.9822 0.7167 0.52518 0.0
C1198 C 0.96718 0.26725 0.2785 0.0
C1199 C 0.96769 0.23063 0.2783 0.0
C1200 C 0.99801 0.28653 0.27899 0.0
C1201 C 0.03053 0.26993 0.27933 0.0
H1202 H 0.94282 0.28119 0.27991 0.0
H1203 H 0.99614 0.31446 0.28089 0.0
S1204 S 0.04625 0.17522 0.27309 0.0
N1205 N 0.00355 0.17892 0.27409 0.0
N1206 N 0.0615 0.2152 0.27494 0.0
C1207 C 0.03145 0.23363 0.27635 0.0
C1208 C 1.00001 0.21396 0.27583 0.0
C1209 C 0.53593 0.25022 0.02936 0.0
C1210 C 0.51936 0.2177 0.03022 0.0
C1211 C 0.51665 0.28105 0.0289 0.0
C1212 C 0.48004 0.28056 0.02924 0.0
H1213 H 0.56392 0.25213 0.03079 0.0
H1214 H 0.53063 0.30544 0.02987 0.0
S1215 S 0.42439 0.20193 0.02579 0.0
N1216 N 0.46443 0.18669 0.02707 0.0
N1217 N 0.42817 0.24464 0.02629 0.0
C1218 C 0.46327 0.2482 0.02736 0.0
C1219 C 0.48294 0.21675 0.02784 0.0
C1220 C 0.50064 0.2149 0.71837 0.0
C1221 C 0.53315 0.23149 0.71912 0.0
C1222 C 0.46983 0.23421 0.71786 0.0
C1223 C 0.47038 0.27083 0.7181 0.0
H1224 H 0.4989 0.18699 0.71632 0.0
H1225 H 0.44562 0.22028 0.71562 0.0
S1226 S 0.54847 0.32608 0.72613 0.0
N1227 N 0.56382 0.2861 0.72466 0.0
N1228 N 0.5059 0.32247 0.72367 0.0
C1229 C 0.50246 0.28746 0.72169 0.0
C1230 C 0.53387 0.26775 0.72219 0.0
C1231 C 0.51565 0.71827 0.46842 0.0
C1232 C 0.47904 0.71907 0.46824 0.0
C1233 C 0.53518 0.74896 0.46842 0.0
C1234 C 0.51885 0.78163 0.46825 0.0
H1235 H 0.52945 0.69385 0.46692 0.0
H1236 H 0.56313 0.7469 0.46679 0.0
S1237 S 0.42414 0.79795 0.47374 0.0
N1238 N 0.42753 0.75525 0.47233 0.0
N1239 N 0.46427 0.81293 0.47243 0.0
C1240 C 0.48249 0.78276 0.47088 0.0
C1241 C 0.46256 0.75147 0.47087 0.0
C1242 C 0.03191 0.76602 0.21898 0.0
C1243 C 0.03119 0.72941 0.21881 0.0
C1244 C 0.00117 0.78547 0.21907 0.0
C1245 C 0.96855 0.76905 0.21898 0.0
H1246 H 0.05628 0.77988 0.21739 0.0
H1247 H 0.00314 0.81343 0.2174 0.0
S1248 S 0.9525 0.67432 0.2246 0.0
N1249 N 0.99518 0.6778 0.22305 0.0
N1250 N 0.93742 0.71441 0.2233 0.0
C1251 C 0.96753 0.7327 0.22165 0.0
C1252 C 0.99887 0.71285 0.22157 0.0
C1253 C 0.03728 0.25082 0.9691 0.0
C1254 C 0.02011 0.28306 0.96867 0.0
C1255 C 0.01855 0.21965 0.96925 0.0
C1256 C 0.98195 0.21951 0.96905 0.0
H1257 H 0.06528 0.24947 0.96754 0.0
H1258 H 0.03294 0.19554 0.96794 0.0
S1259 S 0.92495 0.29703 0.97363 0.0
N1260 N 0.9647 0.31301 0.97238 0.0
N1261 N 0.92947 0.25441 0.97262 0.0
C1262 C 0.96461 0.2515 0.97139 0.0
C1263 C 0.98372 0.2833 0.97119 0.0
C1264 C 0.46757 0.09993 0.13997 0.0
C1265 C 0.46709 0.09859 0.11626 0.0
C1266 C 0.43896 0.1129 0.152 0.0
C1267 C 0.40876 0.1242 0.14071 0.0
H1268 H 0.49112 0.0937 0.14915 0.0
H1269 H 0.44134 0.11614 0.17013 0.0
S1270 S 0.39287 0.12038 0.07891 0.0
N1271 N 0.43285 0.10559 0.08207 0.0
N1272 N 0.37877 0.12913 0.10465 0.0
C1273 C 0.40681 0.11963 0.11717 0.0
C1274 C 0.43614 0.10709 0.10493 0.0
C1275 C 0.14055 0.18814 0.35582 0.0
C1276 C 0.15003 0.21915 0.36681 0.0
C1277 C 0.12908 0.15922 0.36811 0.0
C1278 C 0.1259 0.1607 0.39175 0.0
H1279 H 0.1402 0.18686 0.33752 0.0
H1280 H 0.11975 0.13678 0.35885 0.0
S1281 S 0.15189 0.23416 0.42866 0.0
N1282 N 0.15951 0.2482 0.40275 0.0
N1283 N 0.13702 0.19413 0.42587 0.0
C1284 C 0.13799 0.19054 0.40303 0.0
C1285 C 0.15031 0.21975 0.39053 0.0
C1286 C 0.09132 0.87961 0.61797 0.0
C1287 C 0.08966 0.87546 0.64155 0.0
C1288 C 0.06234 0.89114 0.60575 0.0
C1289 C 0.03109 0.89972 0.61674 0.0
H1290 H 0.11401 0.87107 0.60867 0.0
H1291 H 0.0638 0.89155 0.58745 0.0
S1292 S 0.01529 0.89861 0.67851 0.0
N1293 N 0.05562 0.8846 0.67568 0.0
N1294 N 0.00144 0.90711 0.65267 0.0
C1295 C 0.03021 0.89894 0.64045 0.0
C1296 C 0.05947 0.88658 0.65288 0.0
C1297 C 0.35042 0.78289 0.89021 0.0
C1298 C 0.3484 0.78385 0.86653 0.0
C1299 C 0.3633 0.81144 0.90235 0.0
C1300 C 0.37386 0.84205 0.89121 0.0
H1301 H 0.34482 0.75904 0.89924 0.0
H1302 H 0.36706 0.80872 0.92042 0.0
S1303 S 0.36798 0.85916 0.82961 0.0
N1304 N 0.35391 0.8189 0.83258 0.0
N1305 N 0.37726 0.87287 0.85536 0.0
C1306 C 0.36857 0.84442 0.86775 0.0
C1307 C 0.35612 0.81516 0.85539 0.0
C1308 C 0.46864 0.89965 0.35876 0.0
C1309 C 0.46783 0.90163 0.38244 0.0
C1310 C 0.44004 0.88673 0.3467 0.0
C1311 C 0.40953 0.87603 0.35792 0.0
H1312 H 0.49239 0.90535 0.34966 0.0
H1313 H 0.44263 0.88308 0.32862 0.0
S1314 S 0.39277 0.88209 0.41957 0.0
N1315 N 0.433 0.89618 0.41648 0.0
N1316 N 0.37893 0.87267 0.39386 0.0
C1317 C 0.40731 0.88132 0.3814 0.0
C1318 C 0.43662 0.89386 0.39367 0.0
C1319 C 0.36506 0.19255 0.59551 0.0
C1320 C 0.37454 0.16143 0.60647 0.0
C1321 C 0.35239 0.22107 0.60775 0.0
C1322 C 0.34945 0.21954 0.63138 0.0
H1323 H 0.36954 0.19566 0.57754 0.0
H1324 H 0.34769 0.24527 0.59891 0.0
S1325 S 0.36542 0.14278 0.66773 0.0
N1326 N 0.37555 0.12954 0.642 0.0
N1327 N 0.35257 0.1835 0.66499 0.0
C1328 C 0.35594 0.18779 0.64228 0.0
C1329 C 0.36819 0.15856 0.62981 0.0
C1330 C 0.06272 0.10925 0.89092 0.0
C1331 C 0.03115 0.10092 0.88022 0.0
C1332 C 0.09136 0.12105 0.87848 0.0
C1333 C 0.08908 0.12571 0.85496 0.0
H1334 H 0.0647 0.10847 0.90919 0.0
H1335 H 0.1143 0.12938 0.88761 0.0
S1336 S 0.01379 0.10304 0.81863 0.0
N1337 N 0.00059 0.09413 0.84456 0.0
N1338 N 0.05417 0.11705 0.82114 0.0
C1339 C 0.0586 0.11473 0.84388 0.0
C1340 C 0.02965 0.10212 0.85653 0.0
C1341 C 0.14821 0.78038 0.10907 0.0
C1342 C 0.15081 0.78169 0.13272 0.0
C1343 C 0.13537 0.80887 0.09688 0.0
C1344 C 0.12535 0.83978 0.1079 0.0
H1345 H 0.15338 0.75634 0.10015 0.0
H1346 H 0.13125 0.8059 0.07886 0.0
S1347 S 0.1334 0.85793 0.16929 0.0
N1348 N 0.14677 0.8174 0.16646 0.0
N1349 N 0.12345 0.87128 0.14356 0.0
C1350 C 0.1313 0.84247 0.13129 0.0
C1351 C 0.14375 0.81326 0.14372 0.0
C1352 C 0.56207 0.89465 0.89142 0.0
C1353 C 0.53056 0.903 0.88067 0.0
C1354 C 0.59076 0.88287 0.87902 0.0
C1355 C 0.58857 0.87822 0.85549 0.0
H1356 H 0.56396 0.89541 0.90969 0.0
H1357 H 0.61367 0.87455 0.88818 0.0
S1358 S 0.51333 0.90068 0.81907 0.0
N1359 N 0.50007 0.90965 0.84498 0.0
N1360 N 0.55372 0.88673 0.82163 0.0
C1361 C 0.55811 0.88913 0.84437 0.0
C1362 C 0.52912 0.90174 0.85698 0.0
C1363 C 0.86352 0.80845 0.59699 0.0
C1364 C 0.87379 0.83942 0.60785 0.0
C1365 C 0.85099 0.78004 0.6094 0.0
C1366 C 0.84899 0.78151 0.63307 0.0
H1367 H 0.86731 0.80536 0.57895 0.0
H1368 H 0.84568 0.75593 0.60059 0.0
S1369 S 0.86733 0.85796 0.66926 0.0
N1370 N 0.87659 0.87116 0.64339 0.0
N1371 N 0.85383 0.81744 0.66667 0.0
C1372 C 0.85623 0.81317 0.6439 0.0
C1373 C 0.86836 0.84229 0.63128 0.0
C1374 C 0.90906 0.11925 0.37833 0.0
C1375 C 0.91119 0.12375 0.35479 0.0
C1376 C 0.93777 0.10757 0.39073 0.0
C1377 C 0.96927 0.09918 0.37998 0.0
H1378 H 0.88616 0.12761 0.38749 0.0
H1379 H 0.93592 0.10692 0.40901 0.0
S1380 S 0.98632 0.10101 0.31836 0.0
N1381 N 0.94594 0.11499 0.32092 0.0
N1382 N 0.99966 0.09224 0.34428 0.0
C1383 C 0.97065 0.10026 0.35629 0.0
C1384 C 0.94162 0.11276 0.34367 0.0
C1385 C 0.64871 0.21909 0.11073 0.0
C1386 C 0.64908 0.21892 0.13447 0.0
C1387 C 0.6362 0.19035 0.09863 0.0
C1388 C 0.6244 0.16027 0.10985 0.0
H1389 H 0.65547 0.24248 0.10154 0.0
H1390 H 0.63383 0.19247 0.08042 0.0
S1391 S 0.62559 0.14517 0.17179 0.0
N1392 N 0.64056 0.18508 0.16869 0.0
N1393 N 0.61787 0.13077 0.14597 0.0
C1394 C 0.62789 0.15866 0.13348 0.0
C1395 C 0.63997 0.18814 0.14579 0.0
C1396 C 0.59122 0.11976 0.6185 0.0
C1397 C 0.58914 0.12381 0.64208 0.0
C1398 C 0.5625 0.10821 0.60604 0.0
C1399 C 0.53106 0.09949 0.61677 0.0
H1400 H 0.61405 0.12839 0.60938 0.0
H1401 H 0.56429 0.10791 0.58776 0.0
S1402 S 0.51424 0.10011 0.67843 0.0
N1403 N 0.55455 0.11432 0.67593 0.0
N1404 N 0.50084 0.09176 0.65246 0.0
C1405 C 0.52977 0.10012 0.64047 0.0
C1406 C 0.55879 0.11252 0.65315 0.0
C1407 C 0.64878 0.78042 0.38883 0.0
C1408 C 0.64989 0.78099 0.36512 0.0
C1409 C 0.63623 0.8091 0.40097 0.0
C1410 C 0.62509 0.83947 0.38979 0.0
H1411 H 0.65493 0.75679 0.39795 0.0
H1412 H 0.63324 0.80669 0.41911 0.0
S1413 S 0.62874 0.85563 0.32799 0.0
N1414 N 0.64305 0.81546 0.33102 0.0
N1415 N 0.62025 0.86969 0.35378 0.0
C1416 C 0.62945 0.84146 0.36622 0.0
C1417 C 0.64159 0.81205 0.35388 0.0
C1418 C 0.93992 0.88694 0.15179 0.0
C1419 C 0.90944 0.87566 0.1408 0.0
C1420 C 0.96837 0.89966 0.13949 0.0
C1421 C 0.96746 0.90079 0.11578 0.0
H1422 H 0.94261 0.88392 0.16992 0.0
H1423 H 0.9921 0.9059 0.14847 0.0
S1424 S 0.89239 0.87918 0.0791 0.0
N1425 N 0.87874 0.87066 0.10498 0.0
N1426 N 0.93252 0.89373 0.08189 0.0
C1427 C 0.93626 0.89233 0.10473 0.0
C1428 C 0.90709 0.88004 0.11725 0.0
C1429 C 0.86924 0.16115 0.86946 0.0
C1430 C 0.87472 0.16351 0.89291 0.0
C1431 C 0.8572 0.1898 0.85713 0.0
C1432 C 0.84939 0.22144 0.8679 0.0
H1433 H 0.87711 0.13811 0.86026 0.0
H1434 H 0.85583 0.18779 0.83888 0.0
S1435 S 0.854 0.23922 0.92936 0.0
N1436 N 0.86761 0.19872 0.92676 0.0
N1437 N 0.84418 0.25229 0.90354 0.0
C1438 C 0.85149 0.22308 0.89154 0.0
C1439 C 0.86437 0.19413 0.90407 0.0
C1440 C 0.93929 0.6093 0.60646 0.0
C1441 C 0.9708 0.60042 0.61704 0.0
C1442 C 0.91077 0.62096 0.61906 0.0
C1443 C 0.91313 0.62495 0.64264 0.0
H1444 H 0.93725 0.60895 0.58819 0.0
H1445 H 0.88785 0.62965 0.61006 0.0
S1446 S 0.98835 0.60094 0.67862 0.0
N1447 N 0.00141 0.59255 0.65259 0.0
N1448 N 0.94808 0.61534 0.67631 0.0
C1449 C 0.94358 0.61359 0.65356 0.0
C1450 C 0.97239 0.60108 0.64074 0.0
C1451 C 0.62949 0.66142 0.86829 0.0
C1452 C 0.62663 0.66306 0.89195 0.0
C1453 C 0.64087 0.69022 0.85585 0.0
C1454 C 0.65054 0.72133 0.86666 0.0
H1455 H 0.6201 0.63889 0.85917 0.0
H1456 H 0.64034 0.68874 0.83756 0.0
S1457 S 0.6533 0.73678 0.92846 0.0
N1458 N 0.63832 0.69676 0.92589 0.0
N1459 N 0.66053 0.75063 0.90246 0.0
C1460 C 0.65109 0.72212 0.89038 0.0
C1461 C 0.63889 0.69301 0.90305 0.0
C1462 C 0.55692 0.38667 0.15164 0.0
C1463 C 0.58813 0.37683 0.14091 0.0
C1464 C 0.52852 0.39906 0.13916 0.0
C1465 C 0.53024 0.40141 0.11551 0.0
H1466 H 0.55367 0.38274 0.16966 0.0
H1467 H 0.50427 0.4041 0.14787 0.0
S1468 S 0.60732 0.38439 0.07962 0.0
N1469 N 0.6203 0.37488 0.1055 0.0
N1470 N 0.5666 0.39736 0.08208 0.0
C1471 C 0.56208 0.39455 0.1048 0.0
C1472 C 0.59118 0.38255 0.11751 0.0
C1473 C 0.85149 0.27936 0.38878 0.0
C1474 C 0.84871 0.28099 0.36515 0.0
C1475 C 0.86408 0.30783 0.40112 0.0
C1476 C 0.87366 0.339 0.39025 0.0
H1477 H 0.84664 0.25516 0.39758 0.0
H1478 H 0.86834 0.30465 0.41911 0.0
S1479 S 0.86492 0.35795 0.32901 0.0
N1480 N 0.85206 0.31723 0.33163 0.0
N1481 N 0.87492 0.37104 0.35479 0.0
C1482 C 0.86752 0.34196 0.36689 0.0
C1483 C 0.85532 0.31279 0.35433 0.0
C1484 C 0.94108 0.38808 0.8462 0.0
C1485 C 0.91023 0.3779 0.8572 0.0
C1486 C 0.96957 0.40086 0.85844 0.0
C1487 C 0.96829 0.40318 0.8821 0.0
H1488 H 0.94402 0.38409 0.82816 0.0
H1489 H 0.99358 0.40616 0.84952 0.0
S1490 S 0.89228 0.38489 0.91867 0.0
N1491 N 0.87886 0.37534 0.89289 0.0
N1492 N 0.93272 0.39851 0.91586 0.0
C1493 C 0.93677 0.39591 0.89309 0.0
C1494 C 0.90758 0.38354 0.88063 0.0
C1495 C 0.86331 0.69054 0.09724 0.0
C1496 C 0.87407 0.65997 0.10836 0.0
C1497 C 0.85037 0.71905 0.1094 0.0
C1498 C 0.84848 0.71809 0.13309 0.0
H1499 H 0.86688 0.69323 0.07916 0.0
H1500 H 0.84458 0.74285 0.10038 0.0
S1501 S 0.86861 0.6429 0.16999 0.0
N1502 N 0.87781 0.62921 0.14422 0.0
N1503 N 0.85437 0.68311 0.16703 0.0
C1504 C 0.85645 0.68684 0.14422 0.0
C1505 C 0.86896 0.65762 0.13184 0.0
C1506 C 0.53023 0.59934 0.35947 0.0
C1507 C 0.53138 0.59782 0.38317 0.0
C1508 C 0.55866 0.612 0.34713 0.0
C1509 C 0.58933 0.62288 0.35807 0.0
H1510 H 0.50635 0.59346 0.35056 0.0
H1511 H 0.55579 0.61532 0.32904 0.0
S1512 S 0.60706 0.61793 0.41964 0.0
N1513 N 0.56674 0.60389 0.41694 0.0
N1514 N 0.6205 0.62684 0.39378 0.0
C1515 C 0.59191 0.61803 0.38157 0.0
C1516 C 0.56276 0.60578 0.39413 0.0
C1517 C 0.64226 0.31147 0.6417 0.0
C1518 C 0.65156 0.28026 0.63089 0.0
C1519 C 0.63093 0.34031 0.62928 0.0
C1520 C 0.62771 0.3386 0.60564 0.0
H1521 H 0.64199 0.31301 0.66 0.0
H1522 H 0.62185 0.36294 0.63844 0.0
S1523 S 0.65322 0.26452 0.5691 0.0
N1524 N 0.66075 0.25072 0.59509 0.0
N1525 N 0.6386 0.30467 0.57169 0.0
C1526 C 0.63956 0.30851 0.59452 0.0
C1527 C 0.65172 0.27936 0.60717 0.0
C1528 C 0.03003 0.3999 0.35918 0.0
C1529 C 0.03099 0.4015 0.38288 0.0
C1530 C 0.05858 0.38723 0.34696 0.0
C1531 C 0.08918 0.37646 0.35801 0.0
H1532 H 0.00621 0.40569 0.35018 0.0
H1533 H 0.05586 0.3838 0.32886 0.0
S1534 S 0.10639 0.38152 0.41964 0.0
N1535 N 0.06609 0.39555 0.41678 0.0
N1536 N 0.12006 0.37258 0.39382 0.0
C1537 C 0.09156 0.38138 0.38151 0.0
C1538 C 0.0623 0.39362 0.39396 0.0
C1539 C 0.36849 0.34106 0.12849 0.0
C1540 C 0.37289 0.33881 0.10494 0.0
C1541 C 0.35666 0.31246 0.14095 0.0
C1542 C 0.348 0.28099 0.13024 0.0
H1543 H 0.37708 0.36393 0.1376 0.0
H1544 H 0.35612 0.31435 0.15922 0.0
S1545 S 0.34957 0.26369 0.06864 0.0
N1546 N 0.36381 0.304 0.07113 0.0
N1547 N 0.34077 0.25051 0.0946 0.0
C1548 C 0.34899 0.27952 0.10655 0.0
C1549 C 0.36166 0.30842 0.09388 0.0
C1550 C 0.44124 0.61581 0.84766 0.0
C1551 C 0.41067 0.62657 0.85876 0.0
C1552 C 0.46982 0.60312 0.85983 0.0
C1553 C 0.46895 0.60148 0.88353 0.0
H1554 H 0.44388 0.6192 0.82955 0.0
H1555 H 0.4936 0.5973 0.85079 0.0
S1556 S 0.39367 0.62134 0.92041 0.0
N1557 N 0.37992 0.63038 0.89463 0.0
N1558 N 0.43396 0.60732 0.91748 0.0
C1559 C 0.43768 0.60935 0.89466 0.0
C1560 C 0.40837 0.62164 0.88227 0.0
C1561 C 0.14355 0.68754 0.64051 0.0
C1562 C 0.15192 0.71908 0.6298 0.0
C1563 C 0.13186 0.65887 0.62807 0.0
C1564 C 0.12732 0.6611 0.60453 0.0
H1565 H 0.14421 0.68563 0.65878 0.0
H1566 H 0.12346 0.63597 0.6372 0.0
S1567 S 0.15024 0.73623 0.56818 0.0
N1568 N 0.159 0.74951 0.59412 0.0
N1569 N 0.13616 0.69588 0.57069 0.0
C1570 C 0.13836 0.69152 0.59345 0.0
C1571 C 0.1509 0.7205 0.6061 0.0
C1572 C 0.05866 0.61404 0.15235 0.0
C1573 C 0.08959 0.62382 0.14126 0.0
C1574 C 0.03012 0.60109 0.14023 0.0
C1575 C 0.03143 0.59815 0.1166 0.0
H1576 H 0.0557 0.61844 0.17034 0.0
H1577 H 0.00607 0.59613 0.14918 0.0
S1578 S 0.10765 0.61496 0.07992 0.0
N1579 N 0.12106 0.62518 0.10559 0.0
N1580 N 0.0671 0.60171 0.08283 0.0
C1581 C 0.063 0.605 0.10556 0.0
C1582 C 0.09225 0.61754 0.11791 0.0
C1583 C 0.13551 0.31027 0.90118 0.0
C1584 C 0.12573 0.34138 0.8903 0.0
C1585 C 0.1482 0.28184 0.88884 0.0
C1586 C 0.15086 0.28342 0.8652 0.0
H1587 H 0.13132 0.30712 0.91917 0.0
H1588 H 0.15322 0.25767 0.89765 0.0
S1589 S 0.13392 0.36019 0.82901 0.0
N1590 N 0.12405 0.3733 0.85481 0.0
N1591 N 0.14705 0.31955 0.83165 0.0
C1592 C 0.144 0.31516 0.85436 0.0
C1593 C 0.13172 0.3443 0.86693 0.0
C1594 C 0.47173 0.39932 0.63839 0.0
C1595 C 0.47062 0.40129 0.61471 0.0
C1596 C 0.44315 0.38676 0.65061 0.0
C1597 C 0.41236 0.37645 0.63958 0.0
H1598 H 0.49567 0.40477 0.64735 0.0
H1599 H 0.44595 0.38308 0.66868 0.0
S1600 S 0.39478 0.38266 0.57804 0.0
N1601 N 0.43523 0.39624 0.58088 0.0
N1602 N 0.3812 0.37343 0.60383 0.0
C1603 C 0.40987 0.38173 0.61612 0.0
C1604 C 0.43916 0.39388 0.60366 0.0
C1605 C 0.35059 0.71886 0.38944 0.0
C1606 C 0.34911 0.71795 0.36574 0.0
C1607 C 0.36329 0.69034 0.40168 0.0
C1608 C 0.37421 0.65977 0.39063 0.0
H1609 H 0.34459 0.74263 0.39845 0.0
H1610 H 0.36653 0.69301 0.41979 0.0
S1611 S 0.36972 0.64272 0.32896 0.0
N1612 N 0.3555 0.68296 0.33182 0.0
N1613 N 0.37852 0.62903 0.35479 0.0
C1614 C 0.36953 0.65746 0.3671 0.0
C1615 C 0.35726 0.68671 0.35465 0.0
C1616 C 0.16854 0.05871 0.10474 0.0
C1617 C 0.15087 0.04504 0.12356 0.0
C1618 C 0.19395 0.08459 0.10731 0.0
C1619 C 0.20302 0.09739 0.1288 0.0
H1620 H 0.16176 0.05043 0.08782 0.0
H1621 H 0.20634 0.09499 0.09232 0.0
S1622 S 0.16424 0.07059 0.18344 0.0
N1623 N 0.14423 0.04636 0.16443 0.0
N1624 N 0.19188 0.09499 0.16917 0.0
C1625 C 0.18588 0.0837 0.14776 0.0
C1626 C 0.15979 0.0576 0.14515 0.0
C1627 C 0.19121 0.91926 0.35476 0.0
C1628 C 0.20484 0.90171 0.37364 0.0
C1629 C 0.16552 0.94488 0.35724 0.0
C1630 C 0.15285 0.95426 0.3787 0.0
H1631 H 0.19938 0.91226 0.33786 0.0
H1632 H 0.15517 0.95718 0.34221 0.0
S1633 S 0.17952 0.91583 0.43348 0.0
N1634 N 0.20359 0.89548 0.41453 0.0
N1635 N 0.15526 0.94348 0.41911 0.0
C1636 C 0.16646 0.93721 0.39772 0.0
C1637 C 0.1924 0.91093 0.3952 0.0
C1638 C 0.30854 0.92066 0.64287 0.0
C1639 C 0.2947 0.90309 0.62406 0.0
C1640 C 0.33429 0.9462 0.64025 0.0
C1641 C 0.34677 0.9555 0.61873 0.0
H1642 H 0.30055 0.91368 0.65981 0.0
H1643 H 0.34487 0.95847 0.65523 0.0
S1644 S 0.31932 0.91715 0.56409 0.0
N1645 N 0.29543 0.89687 0.58316 0.0
N1646 N 0.34382 0.94474 0.57833 0.0
C1647 C 0.33286 0.93851 0.59978 0.0
C1648 C 0.30689 0.91229 0.60244 0.0
C1649 C 0.30872 0.08228 0.85383 0.0
C1650 C 0.29433 0.09963 0.87255 0.0
C1651 C 0.3346 0.05689 0.85663 0.0
C1652 C 0.34666 0.04753 0.87825 0.0
H1653 H 0.30104 0.08929 0.83683 0.0
H1654 H 0.34559 0.04478 0.84172 0.0
S1655 S 0.31773 0.08537 0.93271 0.0
N1656 N 0.29413 0.1056 0.91347 0.0
N1657 N 0.34274 0.05804 0.91864 0.0
C1658 C 0.33221 0.06433 0.8971 0.0
C1659 C 0.30612 0.09038 0.89426 0.0
C1660 C 0.83352 0.94825 0.85647 0.0
C1661 C 0.84602 0.95771 0.87797 0.0
C1662 C 0.80769 0.92276 0.85394 0.0
C1663 C 0.79377 0.90541 0.87281 0.0
H1664 H 0.84414 0.96036 0.84145 0.0
H1665 H 0.79968 0.91567 0.83703 0.0
S1666 S 0.81849 0.91986 0.93273 0.0
N1667 N 0.84308 0.94725 0.9184 0.0
N1668 N 0.79451 0.89952 0.91373 0.0
C1669 C 0.80601 0.91475 0.8944 0.0
C1670 C 0.83207 0.9409 0.89697 0.0
C1671 C 0.83069 0.05813 0.60363 0.0
C1672 C 0.84809 0.04419 0.62247 0.0
C1673 C 0.80502 0.08376 0.60622 0.0
C1674 C 0.79544 0.09603 0.62774 0.0
H1675 H 0.83785 0.05025 0.5867 0.0
H1676 H 0.79285 0.09439 0.59122 0.0
S1677 S 0.83339 0.06838 0.68245 0.0
N1678 N 0.85392 0.04468 0.6634 0.0
N1679 N 0.80587 0.09289 0.66817 0.0
C1680 C 0.81233 0.08208 0.64672 0.0
C1681 C 0.83866 0.05622 0.64409 0.0
C1682 C 0.666 0.05418 0.35621 0.0
C1683 C 0.65325 0.0451 0.3777 0.0
C1684 C 0.69194 0.07954 0.35363 0.0
C1685 C 0.70573 0.09711 0.37246 0.0
H1686 H 0.65553 0.04186 0.34121 0.0
H1687 H 0.70015 0.08635 0.33671 0.0
S1688 S 0.6803 0.0837 0.43235 0.0
N1689 N 0.65576 0.05619 0.41807 0.0
N1690 N 0.70457 0.10365 0.41334 0.0
C1691 C 0.69322 0.08817 0.39405 0.0
C1692 C 0.66703 0.06216 0.39666 0.0
C1693 C 0.69442 0.91555 0.10821 0.0
C1694 C 0.70351 0.90253 0.12963 0.0
C1695 C 0.66893 0.94138 0.10576 0.0
C1696 C 0.65121 0.95479 0.12465 0.0
H1697 H 0.70686 0.90537 0.09317 0.0
H1698 H 0.66215 0.94983 0.08888 0.0
S1699 S 0.66457 0.92851 0.18439 0.0
N1700 N 0.6923 0.90437 0.17 0.0
N1701 N 0.64452 0.95293 0.1655 0.0
C1702 C 0.66014 0.94198 0.14617 0.0
C1703 C 0.6863 0.91592 0.14865 0.0
C1704 C 0.67259 0.55771 0.60454 0.0
C1705 C 0.65528 0.54338 0.62329 0.0
C1706 C 0.69803 0.58353 0.6073 0.0
C1707 C 0.70747 0.59559 0.6289 0.0
H1708 H 0.6655 0.55004 0.58756 0.0
H1709 H 0.7101 0.59449 0.59237 0.0
S1710 S 0.66976 0.56679 0.68343 0.0
N1711 N 0.64943 0.5432 0.66422 0.0
N1712 N 0.69708 0.59174 0.66931 0.0
C1713 C 0.69072 0.58119 0.64779 0.0
C1714 C 0.66462 0.55515 0.64499 0.0
C1715 C 0.69509 0.41735 0.89133 0.0
C1716 C 0.70455 0.4051 0.86977 0.0
C1717 C 0.66973 0.44328 0.89397 0.0
C1718 C 0.65251 0.45755 0.87516 0.0
H1719 H 0.70713 0.40649 0.9063 0.0
H1720 H 0.66264 0.45112 0.91092 0.0
S1721 S 0.66698 0.43352 0.81512 0.0
N1722 N 0.69421 0.40861 0.82935 0.0
N1723 N 0.64671 0.45735 0.83423 0.0
C1724 C 0.66182 0.44552 0.85351 0.0
C1725 C 0.68785 0.41937 0.85083 0.0
C1726 C 0.83372 0.44493 0.14194 0.0
C1727 C 0.84619 0.45443 0.12045 0.0
C1728 C 0.80769 0.41965 0.14444 0.0
C1729 C 0.79354 0.40255 0.12554 0.0
H1730 H 0.84448 0.45688 0.15697 0.0
H1731 H 0.79966 0.41253 0.16135 0.0
S1732 S 0.8181 0.41717 0.06563 0.0
N1733 N 0.84298 0.44426 0.07999 0.0
N1734 N 0.79406 0.39689 0.08461 0.0
C1735 C 0.80577 0.4119 0.10396 0.0
C1736 C 0.83203 0.43785 0.10142 0.0
C1737 C 0.80847 0.58058 0.35388 0.0
C1738 C 0.79438 0.59773 0.37277 0.0
C1739 C 0.83421 0.55501 0.35641 0.0
C1740 C 0.84641 0.54529 0.37792 0.0
H1741 H 0.80062 0.58785 0.33696 0.0
H1742 H 0.84494 0.543 0.34139 0.0
S1743 S 0.81842 0.58263 0.43273 0.0
N1744 N 0.7947 0.60323 0.41371 0.0
N1745 N 0.8431 0.55534 0.41838 0.0
C1746 C 0.83234 0.56196 0.39694 0.0
C1747 C 0.80638 0.58819 0.39437 0.0
C1748 C 0.3086 0.41916 0.35425 0.0
C1749 C 0.2946 0.40167 0.37304 0.0
C1750 C 0.33444 0.4446 0.35691 0.0
C1751 C 0.34686 0.45386 0.37846 0.0
H1752 H 0.30059 0.41225 0.3373 0.0
H1753 H 0.34509 0.45687 0.34196 0.0
S1754 S 0.31916 0.41554 0.43304 0.0
N1755 N 0.29523 0.39538 0.41393 0.0
N1756 N 0.3438 0.44304 0.41885 0.0
C1757 C 0.33286 0.43687 0.39738 0.0
C1758 C 0.3068 0.41077 0.39468 0.0
C1759 C 0.33346 0.55407 0.14052 0.0
C1760 C 0.34595 0.54512 0.11894 0.0
C1761 C 0.30786 0.57972 0.14333 0.0
C1762 C 0.29417 0.59774 0.12466 0.0
H1763 H 0.3439 0.54142 0.15541 0.0
H1764 H 0.29984 0.58638 0.16032 0.0
S1765 S 0.31896 0.58479 0.06461 0.0
N1766 N 0.34324 0.55675 0.07864 0.0
N1767 N 0.29512 0.60482 0.08382 0.0
C1768 C 0.3064 0.58893 0.10297 0.0
C1769 C 0.33222 0.5626 0.10012 0.0
C1770 C 0.19553 0.58594 0.89196 0.0
C1771 C 0.20466 0.59884 0.87051 0.0
C1772 C 0.16998 0.56016 0.89444 0.0
C1773 C 0.15222 0.54675 0.87557 0.0
H1774 H 0.20797 0.59617 0.90698 0.0
H1775 H 0.16317 0.55178 0.91133 0.0
S1776 S 0.16572 0.57268 0.81578 0.0
N1777 N 0.19352 0.5968 0.83013 0.0
N1778 N 0.14557 0.54842 0.83471 0.0
C1779 C 0.16121 0.55942 0.85403 0.0
C1780 C 0.18745 0.58538 0.8515 0.0
C1781 C 0.1967 0.41662 0.60626 0.0
C1782 C 0.2062 0.40434 0.6278 0.0
C1783 C 0.17117 0.44237 0.60364 0.0
C1784 C 0.15383 0.45644 0.62247 0.0
H1785 H 0.20882 0.4059 0.59127 0.0
H1786 H 0.16404 0.45021 0.5867 0.0
S1787 S 0.16839 0.43234 0.68247 0.0
N1788 N 0.19578 0.40764 0.66822 0.0
N1789 N 0.14799 0.4561 0.66339 0.0
C1790 C 0.16321 0.44443 0.6441 0.0
C1791 C 0.18939 0.41843 0.64676 0.0
C1792 C 0.27069 0.26505 0.23326 0.0
C1793 C 0.26776 0.22863 0.23427 0.0
C1794 C 0.25232 0.28627 0.24832 0.0
C1795 C 0.23063 0.27156 0.26474 0.0
H1796 H 0.28735 0.27711 0.22076 0.0
H1797 H 0.25479 0.31424 0.247 0.0
S1798 S 0.21501 0.17774 0.27462 0.0
N1799 N 0.24217 0.17882 0.253 0.0
N1800 N 0.20772 0.21868 0.28158 0.0
C1801 C 0.22773 0.2352 0.26601 0.0
C1802 C 0.24626 0.21368 0.25062 0.0
C1803 C 0.96379 0.0024 0.49812 0.0
C1804 C 0.97869 0.98042 0.51431 0.0
C1805 C 0.98483 0.02089 0.48302 0.0
C1806 C 0.02125 0.01781 0.48376 0.0
H1807 H 0.93582 0.00504 0.49704 0.0
H1808 H 0.97262 0.0378 0.47073 0.0
S1809 S 0.07261 0.96431 0.52344 0.0
N1810 N 0.03177 0.95708 0.53064 0.0
N1811 N 0.07127 0.99175 0.50198 0.0
C1812 C 0.03639 0.996 0.49986 0.0
C1813 C 0.01505 0.97733 0.51529 0.0
C1814 C 0.2559 0.75977 0.77085 0.0
C1815 C 0.26873 0.72731 0.76384 0.0
C1816 C 0.23901 0.78186 0.75558 0.0
C1817 C 0.23487 0.77223 0.73286 0.0
H1818 H 0.25932 0.76824 0.78818 0.0
H1819 H 0.22879 0.80641 0.76158 0.0
S1820 S 0.2634 0.68978 0.70638 0.0
N1821 N 0.27618 0.68655 0.73296 0.0
N1822 N 0.244 0.72793 0.70419 0.0
C1823 C 0.24756 0.73985 0.72569 0.0
C1824 C 0.26467 0.7174 0.74123 0.0
C1825 C 0.46989 0.98805 0.00699 0.0
C1826 C 0.47928 0.98366 0.98426 0.0
C1827 C 0.49233 0.00473 0.02215 0.0
C1828 C 0.5249 0.01709 0.01501 0.0
H1829 H 0.44518 0.97834 0.01307 0.0
H1830 H 0.484 0.00847 0.03948 0.0
S1831 S 0.56201 0.01063 0.95748 0.0
N1832 N 0.52356 0.9918 0.95546 0.0
N1833 N 0.56561 0.02358 0.98401 0.0
C1834 C 0.53465 0.0126 0.9924 0.0
C1835 C 0.51184 0.99571 0.97697 0.0
C1836 C 0.25505 0.7412 0.27147 0.0
C1837 C 0.26653 0.77406 0.26425 0.0
C1838 C 0.23828 0.71855 0.25648 0.0
C1839 C 0.2329 0.72803 0.23385 0.0
H1840 H 0.25952 0.73283 0.28871 0.0
H1841 H 0.22924 0.69362 0.26262 0.0
S1842 S 0.25724 0.81152 0.20699 0.0
N1843 N 0.27113 0.81514 0.23332 0.0
N1844 N 0.23911 0.77272 0.20511 0.0
C1845 C 0.24406 0.76088 0.22651 0.0
C1846 C 0.26108 0.78388 0.24175 0.0
C1847 C 0.51451 0.02058 0.51537 0.0
C1848 C 0.47813 0.01919 0.51317 0.0
C1849 C 0.53611 0.00229 0.50049 0.0
C1850 C 0.52182 0.98229 0.48304 0.0
H1851 H 0.52625 0.03604 0.52864 0.0
H1852 H 0.56401 0.00355 0.50273 0.0
S1853 S 0.42834 0.97077 0.47 0.0
N1854 N 0.42884 0.99669 0.49228 0.0
N1855 N 0.46944 0.96229 0.46411 0.0
C1856 C 0.48553 0.98083 0.48062 0.0
C1857 C 0.46361 0.99931 0.49581 0.0
C1858 C 0.25013 0.28711 0.75038 0.0
C1859 C 0.27043 0.27271 0.73312 0.0
C1860 C 0.23193 0.26559 0.76536 0.0
C1861 C 0.2337 0.22918 0.76344 0.0
H1862 H 0.24854 0.31504 0.75239 0.0
H1863 H 0.21617 0.27741 0.77844 0.0
S1864 S 0.28292 0.17912 0.72079 0.0
N1865 N 0.29107 0.2202 0.71464 0.0
N1866 N 0.25684 0.17975 0.74298 0.0
C1867 C 0.25389 0.21456 0.74626 0.0
C1868 C 0.27228 0.23639 0.73098 0.0
C1869 C 0.99194 0.99593 0.02108 0.0
C1870 C 0.02418 0.98285 0.01385 0.0
C1871 C 0.96986 0.01326 0.006 0.0
C1872 C 0.97929 0.01762 0.98327 0.0
H1873 H 0.98361 0.99236 0.03842 0.0
H1874 H 0.94545 0.02359 0.01216 0.0
S1875 S 0.0612 0.98873 0.95627 0.0
N1876 N 0.06457 0.97551 0.98275 0.0
N1877 N 0.02323 0.00853 0.95437 0.0
C1878 C 0.01148 0.00475 0.97589 0.0
C1879 C 0.03391 0.98718 0.99122 0.0
C1880 C 0.76337 0.71994 0.75718 0.0
C1881 C 0.76863 0.72887 0.73445 0.0
C1882 C 0.74616 0.74271 0.77187 0.0
C1883 C 0.7341 0.77513 0.76424 0.0
H1884 H 0.77279 0.69533 0.76362 0.0
H1885 H 0.74175 0.73475 0.7892 0.0
S1886 S 0.74297 0.81116 0.70656 0.0
N1887 N 0.7618 0.77265 0.70517 0.0
N1888 N 0.72891 0.81526 0.73282 0.0
C1889 C 0.7395 0.78444 0.74164 0.0
C1890 C 0.75697 0.76132 0.7267 0.0
C1891 C 0.74256 0.24251 0.22716 0.0
C1892 C 0.73168 0.2754 0.2347 0.0
C1893 C 0.75945 0.21946 0.24181 0.0
C1894 C 0.76552 0.22856 0.26443 0.0
H1895 H 0.73759 0.23446 0.2099 0.0
H1896 H 0.76809 0.19454 0.23542 0.0
S1897 S 0.74276 0.31188 0.2921 0.0
N1898 N 0.72828 0.31606 0.26594 0.0
N1899 N 0.76049 0.27285 0.29353 0.0
C1900 C 0.75488 0.2614 0.27211 0.0
C1901 C 0.73775 0.28482 0.2572 0.0
C1902 C 0.74694 0.25848 0.72666 0.0
C1903 C 0.73424 0.22617 0.73404 0.0
C1904 C 0.76391 0.28097 0.74166 0.0
C1905 C 0.76829 0.27187 0.76445 0.0
H1906 H 0.74319 0.2666 0.7093 0.0
H1907 H 0.77383 0.3055 0.73542 0.0
S1908 S 0.74061 0.18979 0.79177 0.0
N1909 N 0.72747 0.18596 0.76529 0.0
N1910 N 0.75986 0.22806 0.79352 0.0
C1911 C 0.75598 0.23952 0.77194 0.0
C1912 C 0.73876 0.21668 0.75669 0.0
C1913 C 0.77201 0.73576 0.23402 0.0
C1914 C 0.76817 0.7721 0.23497 0.0
C1915 C 0.75365 0.71409 0.24882 0.0
C1916 C 0.73103 0.72826 0.26491 0.0
H1917 H 0.78935 0.72409 0.22175 0.0
H1918 H 0.75687 0.6862 0.24755 0.0
S1919 S 0.7128 0.82168 0.27456 0.0
N1920 N 0.7407 0.82126 0.25332 0.0
N1921 N 0.70631 0.78058 0.28142 0.0
C1922 C 0.72722 0.76454 0.26613 0.0
C1923 C 0.74574 0.78651 0.25101 0.0
C1924 C 0.51385 0.48069 0.01574 0.0
C1925 C 0.47753 0.48216 0.01317 0.0
C1926 C 0.53584 0.49882 0.00102 0.0
C1927 C 0.52202 0.5187 0.98335 0.0
H1928 H 0.52523 0.46529 0.02916 0.0
H1929 H 0.56369 0.49756 0.00357 0.0
S1930 S 0.4289 0.53046 0.96938 0.0
N1931 N 0.42879 0.50465 0.99172 0.0
N1932 N 0.47015 0.53877 0.96388 0.0
C1933 C 0.4858 0.52024 0.98057 0.0
C1934 C 0.46347 0.50194 0.99559 0.0
C1935 C 0.02998 0.51078 0.49178 0.0
C1936 C 0.02093 0.51589 0.51451 0.0
C1937 C 0.00722 0.49386 0.47695 0.0
C1938 C 0.97465 0.48197 0.48443 0.0
H1939 H 0.05463 0.52023 0.48543 0.0
H1940 H 0.01525 0.48966 0.45961 0.0
S1941 S 0.93844 0.49014 0.5421 0.0
N1942 N 0.97704 0.50876 0.54368 0.0
N1943 N 0.93437 0.4765 0.51574 0.0
C1944 C 0.96529 0.48704 0.50705 0.0
C1945 C 0.98843 0.50419 0.52214 0.0
C1946 C 0.03118 0.48873 0.00645 0.0
C1947 C 0.02179 0.48381 0.98376 0.0
C1948 C 0.00862 0.5055 0.02149 0.0
C1949 C 0.97593 0.51743 0.01426 0.0
H1950 H 0.05599 0.47935 0.01259 0.0
H1951 H 0.01692 0.50961 0.03878 0.0
S1952 S 0.93872 0.50944 0.95683 0.0
N1953 N 0.97734 0.49093 0.95494 0.0
N1954 N 0.93509 0.52294 0.98325 0.0
C1955 C 0.96618 0.51243 0.9917 0.0
C1956 C 0.9891 0.49542 0.9764 0.0
C1957 C 0.5096 0.50707 0.47733 0.0
C1958 C 0.47663 0.51776 0.48484 0.0
C1959 C 0.53276 0.49039 0.49202 0.0
C1960 C 0.52369 0.48433 0.51465 0.0
H1961 H 0.5176 0.512 0.46007 0.0
H1962 H 0.55773 0.48188 0.48564 0.0
S1963 S 0.4402 0.50665 0.54225 0.0
N1964 N 0.43596 0.52104 0.51607 0.0
N1965 N 0.47934 0.48917 0.54372 0.0
C1966 C 0.49078 0.4948 0.5223 0.0
C1967 C 0.46726 0.51173 0.50736 0.0
loop_
_geom_bond_atom_site_label_1
_geom_bond_atom_site_label_2
_geom_bond_distance
_geom_bond_site_symmetry_2
_ccdc_geom_bond_type
Co0 O3 1.970 . S
Co0 N17 1.989 . S
Co0 O25 1.967 . S
Co0 O32 1.920 . S
Co1 O4 1.966 . S
Co1 N10 2.022 . S
Co1 N18 1.993 . S
Co1 O26 1.941 . S
C2 O3 1.258 . S
C2 O4 1.263 . S
O3 Co0 1.970 . S
O3 C2 1.258 . S
O4 Co1 1.966 . S
O4 C2 1.263 . S
C5 O6 1.235 . S
C5 O32 1.289 . S
O6 C5 1.235 . S
C7 C9 1.400 . S
C7 N10 1.351 . S
C7 C12 1.501 . S
C8 C9 1.387 . S
C8 N11 1.341 . S
C9 C7 1.400 . S
C9 C8 1.387 . S
N10 Co1 2.022 . S
N10 C7 1.351 . S
N10 N11 1.365 . S
N11 C8 1.341 . S
N11 N10 1.365 . S
N11 H31 0.862 . S
C12 C7 1.501 . S
C12 H13 0.961 . S
C12 H14 0.961 . S
C12 H15 0.960 . S
H13 C12 0.961 . S
H14 C12 0.961 . S
H15 C12 0.960 . S
C16 N17 1.342 . S
C16 C20 1.401 . S
C16 C21 1.499 . S
N17 Co0 1.989 . S
N17 C16 1.342 . S
N17 N18 1.388 . S
N18 Co1 1.993 . S
N18 N17 1.388 . S
N18 C19 1.346 . S
C19 N18 1.346 . S
C19 C20 1.396 . S
C19 C29 1.510 . S
C20 C16 1.401 . S
C20 C19 1.396 . S
C21 C16 1.499 . S
C21 H22 0.959 . S
C21 H23 0.960 . S
C21 H24 0.961 . S
H22 C21 0.959 . S
H23 C21 0.960 . S
H24 C21 0.961 . S
O25 Co0 1.967 . S
O25 C33 1.258 . S
O26 Co1 1.941 . S
O26 C33 1.266 . S
H27 C29 0.959 . S
H28 C29 0.961 . S
C29 C19 1.510 . S
C29 H27 0.959 . S
C29 H28 0.961 . S
C29 H30 0.960 . S
H30 C29 0.960 . S
H31 N11 0.862 . S
O32 Co0 1.920 . S
O32 C5 1.289 . S
C33 O25 1.258 . S
C33 O26 1.266 . S
Co34 O37 1.970 . S
Co34 N51 1.989 . S
Co34 O59 1.967 . S
Co34 O66 1.920 . S
Co35 O38 1.966 . S
Co35 N44 2.022 . S
Co35 N52 1.993 . S
Co35 O60 1.941 . S
C36 O37 1.258 . S
C36 O38 1.263 . S
O37 Co34 1.970 . S
O37 C36 1.258 . S
O38 Co35 1.966 . S
O38 C36 1.263 . S
C39 O40 1.235 . S
C39 O66 1.289 . S
O40 C39 1.235 . S
C41 C43 1.370 1_545 S
C41 N44 1.351 . S
C41 C46 1.501 . S
C42 C43 1.402 . S
C42 N45 1.341 1_565 S
C43 C41 1.370 1_565 S
C43 C42 1.402 . S
N44 Co35 2.022 . S
N44 C41 1.351 . S
N44 N45 1.365 . S
N45 C42 1.341 1_545 S
N45 N44 1.365 . S
N45 H65 0.862 . S
C46 C41 1.501 . S
C46 H47 0.961 . S
C46 H48 0.961 . S
C46 H49 0.960 . S
H47 C46 0.961 . S
H48 C46 0.961 . S
H49 C46 0.960 . S
C50 N51 1.342 . S
C50 C54 1.401 . S
C50 C55 1.499 . S
N51 Co34 1.989 . S
N51 C50 1.342 . S
N51 N52 1.388 . S
N52 Co35 1.993 . S
N52 N51 1.388 . S
N52 C53 1.346 . S
C53 N52 1.346 . S
C53 C54 1.396 . S
C53 C63 1.510 . S
C54 C50 1.401 . S
C54 C53 1.396 . S
C55 C50 1.499 . S
C55 H56 0.959 . S
C55 H57 0.960 . S
C55 H58 0.961 . S
H56 C55 0.959 . S
H57 C55 0.960 . S
H58 C55 0.961 . S
O59 Co34 1.967 . S
O59 C67 1.258 . S
O60 Co35 1.941 . S
O60 C67 1.266 . S
H61 C63 0.959 1_565 S
H62 C63 0.961 . S
C63 C53 1.510 . S
C63 H61 0.959 1_545 S
C63 H62 0.961 . S
C63 H64 0.960 . S
H64 C63 0.960 . S
H65 N45 0.862 . S
O66 Co34 1.920 . S
O66 C39 1.289 . S
C67 O59 1.258 . S
C67 O60 1.266 . S
Co68 O71 1.970 . S
Co68 N85 1.989 . S
Co68 O93 1.967 . S
Co68 O100 1.920 . S
Co69 O72 1.966 . S
Co69 N78 2.022 . S
Co69 N86 1.993 . S
Co69 O94 1.941 . S
C70 O71 1.258 . S
C70 O72 1.263 . S
O71 Co68 1.970 . S
O71 C70 1.258 . S
O72 Co69 1.966 . S
O72 C70 1.263 . S
C73 O74 1.235 . S
C73 O100 1.289 . S
O74 C73 1.235 . S
C75 C77 1.400 . S
C75 N78 1.351 . S
C75 C80 1.501 . S
C76 C77 1.387 . S
C76 N79 1.341 . S
C77 C75 1.400 . S
C77 C76 1.387 . S
N78 Co69 2.022 . S
N78 C75 1.351 . S
N78 N79 1.365 . S
N79 C76 1.341 . S
N79 N78 1.365 . S
N79 H99 0.862 . S
C80 C75 1.501 . S
C80 H81 0.961 . S
C80 H82 0.961 . S
C80 H83 0.960 . S
H81 C80 0.961 . S
H82 C80 0.961 . S
H83 C80 0.960 . S
C84 N85 1.342 . S
C84 C88 1.401 . S
C84 C89 1.499 . S
N85 Co68 1.989 . S
N85 C84 1.342 . S
N85 N86 1.388 . S
N86 Co69 1.993 . S
N86 N85 1.388 . S
N86 C87 1.346 . S
C87 N86 1.346 . S
C87 C88 1.396 . S
C87 C97 1.510 . S
C88 C84 1.401 . S
C88 C87 1.396 . S
C89 C84 1.499 . S
C89 H90 0.959 . S
C89 H91 0.960 . S
C89 H92 0.961 . S
H90 C89 0.959 . S
H91 C89 0.960 . S
H92 C89 0.961 . S
O93 Co68 1.967 . S
O93 C101 1.258 . S
O94 Co69 1.941 . S
O94 C101 1.266 . S
H95 C97 0.959 . S
H96 C97 0.961 . S
C97 C87 1.510 . S
C97 H95 0.959 . S
C97 H96 0.961 . S
C97 H98 0.960 . S
H98 C97 0.960 . S
H99 N79 0.862 . S
O100 Co68 1.920 . S
O100 C73 1.289 . S
C101 O93 1.258 . S
C101 O94 1.266 . S
Co102 O105 1.970 . S
Co102 N119 1.989 . S
Co102 O127 1.967 . S
Co102 O134 1.920 . S
Co103 O106 1.966 . S
Co103 N112 2.022 . S
Co103 N120 1.993 . S
Co103 O128 1.941 . S
C104 O105 1.258 . S
C104 O106 1.263 . S
O105 Co102 1.970 . S
O105 C104 1.258 . S
O106 Co103 1.966 . S
O106 C104 1.263 . S
C107 O108 1.235 . S
C107 O134 1.289 . S
O108 C107 1.235 . S
C109 C111 1.369 1_565 S
C109 N112 1.351 . S
C109 C114 1.501 . S
C110 C111 1.403 . S
C110 N113 1.341 1_545 S
C111 C109 1.369 1_545 S
C111 C110 1.403 . S
N112 Co103 2.022 . S
N112 C109 1.351 . S
N112 N113 1.365 . S
N113 C110 1.341 1_565 S
N113 N112 1.365 . S
N113 H133 0.862 . S
C114 C109 1.501 . S
C114 H115 0.961 . S
C114 H116 0.961 . S
C114 H117 0.960 . S
H115 C114 0.961 . S
H116 C114 0.961 . S
H117 C114 0.960 . S
C118 N119 1.342 . S
C118 C122 1.401 . S
C118 C123 1.499 . S
N119 Co102 1.989 . S
N119 C118 1.342 . S
N119 N120 1.388 . S
N120 Co103 1.993 . S
N120 N119 1.388 . S
N120 C121 1.346 . S
C121 N120 1.346 . S
C121 C122 1.396 . S
C121 C131 1.510 . S
C122 C118 1.401 . S
C122 C121 1.396 . S
C123 C118 1.499 . S
C123 H124 0.959 . S
C123 H125 0.960 1_556 S
C123 H126 0.961 . S
H124 C123 0.959 . S
H125 C123 0.960 1_554 S
H126 C123 0.961 . S
O127 Co102 1.967 . S
O127 C135 1.258 . S
O128 Co103 1.941 . S
O128 C135 1.266 . S
H129 C131 0.959 1_545 S
H130 C131 0.961 . S
C131 C121 1.510 . S
C131 H129 0.959 1_565 S
C131 H130 0.961 . S
C131 H132 0.960 . S
H132 C131 0.960 . S
H133 N113 0.862 . S
O134 Co102 1.920 . S
O134 C107 1.289 . S
C135 O127 1.258 . S
C135 O128 1.266 . S
Co136 O139 1.970 . S
Co136 N153 1.989 . S
Co136 O161 1.967 . S
Co136 O168 1.920 . S
Co137 O140 1.966 . S
Co137 N146 2.022 . S
Co137 N154 1.993 . S
Co137 O162 1.941 . S
C138 O139 1.258 . S
C138 O140 1.263 . S
O139 Co136 1.970 . S
O139 C138 1.258 . S
O140 Co137 1.966 . S
O140 C138 1.263 . S
C141 O142 1.235 . S
C141 O168 1.289 . S
O142 C141 1.235 . S
C143 C145 1.400 . S
C143 N146 1.351 . S
C143 C148 1.501 . S
C144 C145 1.387 . S
C144 N147 1.341 . S
C145 C143 1.400 . S
C145 C144 1.387 . S
N146 Co137 2.022 . S
N146 C143 1.351 . S
N146 N147 1.365 . S
N147 C144 1.341 . S
N147 N146 1.365 . S
N147 H167 0.862 . S
C148 C143 1.501 . S
C148 H149 0.961 . S
C148 H150 0.961 . S
C148 H151 0.960 . S
H149 C148 0.961 . S
H150 C148 0.961 . S
H151 C148 0.960 . S
C152 N153 1.342 . S
C152 C156 1.401 . S
C152 C157 1.499 . S
N153 Co136 1.989 . S
N153 C152 1.342 . S
N153 N154 1.388 . S
N154 Co137 1.993 . S
N154 N153 1.388 . S
N154 C155 1.346 . S
C155 N154 1.346 . S
C155 C156 1.396 . S
C155 C165 1.510 . S
C156 C152 1.401 . S
C156 C155 1.396 . S
C157 C152 1.499 . S
C157 H158 0.959 . S
C157 H159 0.960 . S
C157 H160 0.961 . S
H158 C157 0.959 . S
H159 C157 0.960 . S
H160 C157 0.961 . S
O161 Co136 1.967 . S
O161 C169 1.258 . S
O162 Co137 1.941 . S
O162 C169 1.266 . S
H163 C165 0.959 . S
H164 C165 0.961 . S
C165 C155 1.510 . S
C165 H163 0.959 . S
C165 H164 0.961 . S
C165 H166 0.960 . S
H166 C165 0.960 . S
H167 N147 0.862 . S
O168 Co136 1.920 . S
O168 C141 1.289 . S
C169 O161 1.258 . S
C169 O162 1.266 . S
Co170 O173 1.970 . S
Co170 N187 1.989 . S
Co170 O195 1.967 . S
Co170 O202 1.920 . S
Co171 O174 1.966 . S
Co171 N180 2.022 . S
Co171 N188 1.993 . S
Co171 O196 1.941 . S
C172 O173 1.258 . S
C172 O174 1.263 . S
O173 Co170 1.970 . S
O173 C172 1.258 . S
O174 Co171 1.966 . S
O174 C172 1.263 . S
C175 O176 1.235 . S
C175 O202 1.289 . S
O176 C175 1.235 . S
C177 C179 1.370 1_545 S
C177 N180 1.351 . S
C177 C182 1.501 . S
C178 C179 1.402 . S
C178 N181 1.341 1_565 S
C179 C177 1.370 1_565 S
C179 C178 1.402 . S
N180 Co171 2.022 . S
N180 C177 1.351 . S
N180 N181 1.365 . S
N181 C178 1.341 1_545 S
N181 N180 1.365 . S
N181 H201 0.862 . S
C182 C177 1.501 . S
C182 H183 0.961 . S
C182 H184 0.961 . S
C182 H185 0.960 . S
H183 C182 0.961 . S
H184 C182 0.961 . S
H185 C182 0.960 . S
C186 N187 1.342 . S
C186 C190 1.401 . S
C186 C191 1.499 . S
N187 Co170 1.989 . S
N187 C186 1.342 . S
N187 N188 1.388 . S
N188 Co171 1.993 . S
N188 N187 1.388 . S
N188 C189 1.346 . S
C189 N188 1.346 . S
C189 C190 1.396 . S
C189 C199 1.510 . S
C190 C186 1.401 . S
C190 C189 1.396 . S
C191 C186 1.499 . S
C191 H192 0.959 . S
C191 H193 0.960 . S
C191 H194 0.961 . S
H192 C191 0.959 . S
H193 C191 0.960 . S
H194 C191 0.961 . S
O195 Co170 1.967 . S
O195 C203 1.258 . S
O196 Co171 1.941 . S
O196 C203 1.266 . S
H197 C199 0.959 1_565 S
H198 C199 0.961 . S
C199 C189 1.510 . S
C199 H197 0.959 1_545 S
C199 H198 0.961 . S
C199 H200 0.960 . S
H200 C199 0.960 . S
H201 N181 0.862 . S
O202 Co170 1.920 . S
O202 C175 1.289 . S
C203 O195 1.258 . S
C203 O196 1.266 . S
Co204 O207 1.970 . S
Co204 N221 1.989 . S
Co204 O229 1.967 . S
Co204 O236 1.920 . S
Co205 O208 1.966 . S
Co205 N214 2.022 . S
Co205 N222 1.993 . S
Co205 O230 1.941 . S
C206 O207 1.258 . S
C206 O208 1.263 . S
O207 Co204 1.970 . S
O207 C206 1.258 . S
O208 Co205 1.966 . S
O208 C206 1.263 . S
C209 O210 1.235 . S
C209 O236 1.289 . S
O210 C209 1.235 . S
C211 C213 1.400 . S
C211 N214 1.351 . S
C211 C216 1.501 . S
C212 C213 1.387 . S
C212 N215 1.341 . S
C213 C211 1.400 . S
C213 C212 1.387 . S
N214 Co205 2.022 . S
N214 C211 1.351 . S
N214 N215 1.365 . S
N215 C212 1.341 . S
N215 N214 1.365 . S
N215 H235 0.862 . S
C216 C211 1.501 . S
C216 H217 0.961 . S
C216 H218 0.961 . S
C216 H219 0.960 . S
H217 C216 0.961 . S
H218 C216 0.961 . S
H219 C216 0.960 . S
C220 N221 1.342 . S
C220 C224 1.401 . S
C220 C225 1.499 . S
N221 Co204 1.989 . S
N221 C220 1.342 . S
N221 N222 1.388 . S
N222 Co205 1.993 . S
N222 N221 1.388 . S
N222 C223 1.346 . S
C223 N222 1.346 . S
C223 C224 1.396 . S
C223 C233 1.510 . S
C224 C220 1.401 . S
C224 C223 1.396 . S
C225 C220 1.499 . S
C225 H226 0.959 . S
C225 H227 0.960 . S
C225 H228 0.961 . S
H226 C225 0.959 . S
H227 C225 0.960 . S
H228 C225 0.961 . S
O229 Co204 1.967 . S
O229 C237 1.258 . S
O230 Co205 1.941 . S
O230 C237 1.266 . S
H231 C233 0.959 . S
H232 C233 0.961 . S
C233 C223 1.510 . S
C233 H231 0.959 . S
C233 H232 0.961 . S
C233 H234 0.960 . S
H234 C233 0.960 . S
H235 N215 0.862 . S
O236 Co204 1.920 . S
O236 C209 1.289 . S
C237 O229 1.258 . S
C237 O230 1.266 . S
Co238 O241 1.970 . S
Co238 N255 1.989 . S
Co238 O263 1.967 . S
Co238 O270 1.920 . S
Co239 O242 1.966 . S
Co239 N248 2.022 . S
Co239 N256 1.993 . S
Co239 O264 1.941 . S
C240 O241 1.258 . S
C240 O242 1.263 . S
O241 Co238 1.970 . S
O241 C240 1.258 . S
O242 Co239 1.966 . S
O242 C240 1.263 . S
C243 O244 1.235 . S
C243 O270 1.289 . S
O244 C243 1.235 . S
C245 C247 1.370 1_565 S
C245 N248 1.351 . S
C245 C250 1.501 . S
C246 C247 1.403 . S
C246 N249 1.341 1_545 S
C247 C245 1.370 1_545 S
C247 C246 1.403 . S
N248 Co239 2.022 . S
N248 C245 1.351 . S
N248 N249 1.365 . S
N249 C246 1.341 1_565 S
N249 N248 1.365 . S
N249 H269 0.862 . S
C250 C245 1.501 . S
C250 H251 0.961 . S
C250 H252 0.961 . S
C250 H253 0.960 . S
H251 C250 0.961 . S
H252 C250 0.961 . S
H253 C250 0.960 . S
C254 N255 1.342 . S
C254 C258 1.401 . S
C254 C259 1.499 . S
N255 Co238 1.989 . S
N255 C254 1.342 . S
N255 N256 1.388 . S
N256 Co239 1.993 . S
N256 N255 1.388 . S
N256 C257 1.346 . S
C257 N256 1.346 . S
C257 C258 1.396 . S
C257 C267 1.510 . S
C258 C254 1.401 . S
C258 C257 1.396 . S
C259 C254 1.499 . S
C259 H260 0.959 . S
C259 H261 0.960 1_554 S
C259 H262 0.961 . S
H260 C259 0.959 . S
H261 C259 0.960 1_556 S
H262 C259 0.961 . S
O263 Co238 1.967 . S
O263 C271 1.258 . S
O264 Co239 1.941 . S
O264 C271 1.266 . S
H265 C267 0.959 1_545 S
H266 C267 0.961 . S
C267 C257 1.510 . S
C267 H265 0.959 1_565 S
C267 H266 0.961 . S
C267 H268 0.960 . S
H268 C267 0.960 . S
H269 N249 0.862 . S
O270 Co238 1.920 . S
O270 C243 1.289 . S
C271 O263 1.258 . S
C271 O264 1.266 . S
Co272 O275 1.970 . S
Co272 N289 1.989 . S
Co272 O297 1.967 . S
Co272 O304 1.920 . S
Co273 O276 1.966 . S
Co273 N282 2.022 . S
Co273 N290 1.993 . S
Co273 O298 1.941 . S
C274 O275 1.258 . S
C274 O276 1.263 . S
O275 Co272 1.970 . S
O275 C274 1.258 . S
O276 Co273 1.966 . S
O276 C274 1.263 . S
C277 O278 1.235 . S
C277 O304 1.289 . S
O278 C277 1.235 . S
C279 C281 1.400 . S
C279 N282 1.351 . S
C279 C284 1.501 . S
C280 C281 1.387 . S
C280 N283 1.341 . S
C281 C279 1.400 . S
C281 C280 1.387 . S
N282 Co273 2.022 . S
N282 C279 1.351 . S
N282 N283 1.365 . S
N283 C280 1.341 . S
N283 N282 1.365 . S
N283 H303 0.862 . S
C284 C279 1.501 . S
C284 H285 0.961 . S
C284 H286 0.961 . S
C284 H287 0.960 . S
H285 C284 0.961 . S
H286 C284 0.961 . S
H287 C284 0.960 . S
C288 N289 1.342 . S
C288 C292 1.401 . S
C288 C293 1.499 . S
N289 Co272 1.989 . S
N289 C288 1.342 . S
N289 N290 1.388 . S
N290 Co273 1.993 . S
N290 N289 1.388 . S
N290 C291 1.346 . S
C291 N290 1.346 . S
C291 C292 1.396 . S
C291 C301 1.510 . S
C292 C288 1.401 . S
C292 C291 1.396 . S
C293 C288 1.499 . S
C293 H294 0.959 . S
C293 H295 0.960 . S
C293 H296 0.961 . S
H294 C293 0.959 . S
H295 C293 0.960 . S
H296 C293 0.961 . S
O297 Co272 1.967 . S
O297 C305 1.258 . S
O298 Co273 1.941 . S
O298 C305 1.266 . S
H299 C301 0.959 . S
H300 C301 0.961 . S
C301 C291 1.510 . S
C301 H299 0.959 . S
C301 H300 0.961 . S
C301 H302 0.960 . S
H302 C301 0.960 . S
H303 N283 0.862 . S
O304 Co272 1.920 . S
O304 C277 1.289 . S
C305 O297 1.258 . S
C305 O298 1.266 . S
Co306 O309 1.970 . S
Co306 N323 1.989 . S
Co306 O331 1.967 . S
Co306 O338 1.920 . S
Co307 O310 1.966 . S
Co307 N316 2.022 . S
Co307 N324 1.993 . S
Co307 O332 1.941 . S
C308 O309 1.258 . S
C308 O310 1.263 . S
O309 Co306 1.970 . S
O309 C308 1.258 . S
O310 Co307 1.966 . S
O310 C308 1.263 . S
C311 O312 1.235 . S
C311 O338 1.289 . S
O312 C311 1.235 . S
C313 C315 1.370 1_565 S
C313 N316 1.351 . S
C313 C318 1.501 . S
C314 C315 1.402 . S
C314 N317 1.341 1_545 S
C315 C313 1.370 1_545 S
C315 C314 1.402 . S
N316 Co307 2.022 . S
N316 C313 1.351 . S
N316 N317 1.365 . S
N317 C314 1.341 1_565 S
N317 N316 1.365 . S
N317 H337 0.862 . S
C318 C313 1.501 . S
C318 H319 0.961 . S
C318 H320 0.961 . S
C318 H321 0.960 . S
H319 C318 0.961 . S
H320 C318 0.961 . S
H321 C318 0.960 . S
C322 N323 1.342 . S
C322 C326 1.401 . S
C322 C327 1.499 . S
N323 Co306 1.989 . S
N323 C322 1.342 . S
N323 N324 1.388 . S
N324 Co307 1.993 . S
N324 N323 1.388 . S
N324 C325 1.346 . S
C325 N324 1.346 . S
C325 C326 1.396 . S
C325 C335 1.510 . S
C326 C322 1.401 . S
C326 C325 1.396 . S
C327 C322 1.499 . S
C327 H328 0.959 . S
C327 H329 0.960 . S
C327 H330 0.961 . S
H328 C327 0.959 . S
H329 C327 0.960 . S
H330 C327 0.961 . S
O331 Co306 1.967 . S
O331 C339 1.258 . S
O332 Co307 1.941 . S
O332 C339 1.266 . S
H333 C335 0.959 1_545 S
H334 C335 0.961 . S
C335 C325 1.510 . S
C335 H333 0.959 1_565 S
C335 H334 0.961 . S
C335 H336 0.960 . S
H336 C335 0.960 . S
H337 N317 0.862 . S
O338 Co306 1.920 . S
O338 C311 1.289 . S
C339 O331 1.258 . S
C339 O332 1.266 . S
Co340 O343 1.970 . S
Co340 N357 1.989 . S
Co340 O365 1.967 . S
Co340 O372 1.920 . S
Co341 O344 1.966 . S
Co341 N350 2.022 . S
Co341 N358 1.993 . S
Co341 O366 1.941 . S
C342 O343 1.258 . S
C342 O344 1.263 . S
O343 Co340 1.970 . S
O343 C342 1.258 . S
O344 Co341 1.966 . S
O344 C342 1.263 . S
C345 O346 1.235 . S
C345 O372 1.289 . S
O346 C345 1.235 . S
C347 C349 1.400 . S
C347 N350 1.351 . S
C347 C352 1.501 . S
C348 C349 1.387 . S
C348 N351 1.341 . S
C349 C347 1.400 . S
C349 C348 1.387 . S
N350 Co341 2.022 . S
N350 C347 1.351 . S
N350 N351 1.365 . S
N351 C348 1.341 . S
N351 N350 1.365 . S
N351 H371 0.862 . S
C352 C347 1.501 . S
C352 H353 0.961 . S
C352 H354 0.961 . S
C352 H355 0.960 . S
H353 C352 0.961 . S
H354 C352 0.961 . S
H355 C352 0.960 . S
C356 N357 1.342 . S
C356 C360 1.401 . S
C356 C361 1.499 . S
N357 Co340 1.989 . S
N357 C356 1.342 . S
N357 N358 1.388 . S
N358 Co341 1.993 . S
N358 N357 1.388 . S
N358 C359 1.346 . S
C359 N358 1.346 . S
C359 C360 1.396 . S
C359 C369 1.510 . S
C360 C356 1.401 . S
C360 C359 1.396 . S
C361 C356 1.499 . S
C361 H362 0.959 . S
C361 H363 0.960 . S
C361 H364 0.961 . S
H362 C361 0.959 . S
H363 C361 0.960 . S
H364 C361 0.961 . S
O365 Co340 1.967 . S
O365 C373 1.258 . S
O366 Co341 1.941 . S
O366 C373 1.266 . S
H367 C369 0.959 . S
H368 C369 0.961 . S
C369 C359 1.510 . S
C369 H367 0.959 . S
C369 H368 0.961 . S
C369 H370 0.960 . S
H370 C369 0.960 . S
H371 N351 0.862 . S
O372 Co340 1.920 . S
O372 C345 1.289 . S
C373 O365 1.258 . S
C373 O366 1.266 . S
Co374 O377 1.970 . S
Co374 N391 1.989 . S
Co374 O399 1.967 . S
Co374 O406 1.920 . S
Co375 O378 1.966 . S
Co375 N384 2.022 . S
Co375 N392 1.993 . S
Co375 O400 1.941 . S
C376 O377 1.258 . S
C376 O378 1.263 . S
O377 Co374 1.970 . S
O377 C376 1.258 . S
O378 Co375 1.966 . S
O378 C376 1.263 . S
C379 O380 1.235 . S
C379 O406 1.289 . S
O380 C379 1.235 . S
C381 C383 1.369 1_545 S
C381 N384 1.351 . S
C381 C386 1.501 . S
C382 C383 1.403 . S
C382 N385 1.341 1_565 S
C383 C381 1.369 1_565 S
C383 C382 1.403 . S
N384 Co375 2.022 . S
N384 C381 1.351 . S
N384 N385 1.365 . S
N385 C382 1.341 1_545 S
N385 N384 1.365 . S
N385 H405 0.862 . S
C386 C381 1.501 . S
C386 H387 0.961 . S
C386 H388 0.961 . S
C386 H389 0.960 . S
H387 C386 0.961 . S
H388 C386 0.961 . S
H389 C386 0.960 . S
C390 N391 1.342 . S
C390 C394 1.401 . S
C390 C395 1.499 . S
N391 Co374 1.989 . S
N391 C390 1.342 . S
N391 N392 1.388 . S
N392 Co375 1.993 . S
N392 N391 1.388 . S
N392 C393 1.346 . S
C393 N392 1.346 . S
C393 C394 1.396 . S
C393 C403 1.510 . S
C394 C390 1.401 . S
C394 C393 1.396 . S
C395 C390 1.499 . S
C395 H396 0.959 . S
C395 H397 0.960 1_554 S
C395 H398 0.961 . S
H396 C395 0.959 . S
H397 C395 0.960 1_556 S
H398 C395 0.961 . S
O399 Co374 1.967 . S
O399 C407 1.258 . S
O400 Co375 1.941 . S
O400 C407 1.266 . S
H401 C403 0.959 1_565 S
H402 C403 0.961 . S
C403 C393 1.510 . S
C403 H401 0.959 1_545 S
C403 H402 0.961 . S
C403 H404 0.960 . S
H404 C403 0.960 . S
H405 N385 0.862 . S
O406 Co374 1.920 . S
O406 C379 1.289 . S
C407 O399 1.258 . S
C407 O400 1.266 . S
Co408 O411 1.970 . S
Co408 N425 1.989 . S
Co408 O433 1.967 . S
Co408 O440 1.920 . S
Co409 O412 1.966 . S
Co409 N418 2.022 . S
Co409 N426 1.993 . S
Co409 O434 1.941 . S
C410 O411 1.258 . S
C410 O412 1.263 . S
O411 Co408 1.970 . S
O411 C410 1.258 . S
O412 Co409 1.966 . S
O412 C410 1.263 . S
C413 O414 1.235 . S
C413 O440 1.289 . S
O414 C413 1.235 . S
C415 C417 1.400 . S
C415 N418 1.351 . S
C415 C420 1.501 . S
C416 C417 1.387 . S
C416 N419 1.341 . S
C417 C415 1.400 . S
C417 C416 1.387 . S
N418 Co409 2.022 . S
N418 C415 1.351 . S
N418 N419 1.365 . S
N419 C416 1.341 . S
N419 N418 1.365 . S
N419 H439 0.862 . S
C420 C415 1.501 . S
C420 H421 0.961 . S
C420 H422 0.961 . S
C420 H423 0.960 . S
H421 C420 0.961 . S
H422 C420 0.961 . S
H423 C420 0.960 . S
C424 N425 1.342 . S
C424 C428 1.401 . S
C424 C429 1.499 . S
N425 Co408 1.989 . S
N425 C424 1.342 . S
N425 N426 1.388 . S
N426 Co409 1.993 . S
N426 N425 1.388 . S
N426 C427 1.346 . S
C427 N426 1.346 . S
C427 C428 1.396 . S
C427 C437 1.510 . S
C428 C424 1.401 . S
C428 C427 1.396 . S
C429 C424 1.499 . S
C429 H430 0.959 . S
C429 H431 0.960 . S
C429 H432 0.961 . S
H430 C429 0.959 . S
H431 C429 0.960 . S
H432 C429 0.961 . S
O433 Co408 1.967 . S
O433 C441 1.258 . S
O434 Co409 1.941 . S
O434 C441 1.266 . S
H435 C437 0.959 . S
H436 C437 0.961 . S
C437 C427 1.510 . S
C437 H435 0.959 . S
C437 H436 0.961 . S
C437 H438 0.960 . S
H438 C437 0.960 . S
H439 N419 0.862 . S
O440 Co408 1.920 . S
O440 C413 1.289 . S
C441 O433 1.258 . S
C441 O434 1.266 . S
Co442 O445 1.970 . S
Co442 N459 1.989 . S
Co442 O467 1.967 . S
Co442 O474 1.920 . S
Co443 O446 1.966 . S
Co443 N452 2.022 . S
Co443 N460 1.993 . S
Co443 O468 1.941 . S
C444 O445 1.258 . S
C444 O446 1.263 . S
O445 Co442 1.970 . S
O445 C444 1.258 . S
O446 Co443 1.966 . S
O446 C444 1.263 . S
C447 O448 1.235 . S
C447 O474 1.289 . S
O448 C447 1.235 . S
C449 C451 1.370 1_565 S
C449 N452 1.351 . S
C449 C454 1.501 . S
C450 C451 1.402 . S
C450 N453 1.341 1_545 S
C451 C449 1.370 1_545 S
C451 C450 1.402 . S
N452 Co443 2.022 . S
N452 C449 1.351 . S
N452 N453 1.365 . S
N453 C450 1.341 1_565 S
N453 N452 1.365 . S
N453 H473 0.862 . S
C454 C449 1.501 . S
C454 H455 0.961 . S
C454 H456 0.961 . S
C454 H457 0.960 . S
H455 C454 0.961 . S
H456 C454 0.961 . S
H457 C454 0.960 . S
C458 N459 1.342 . S
C458 C462 1.401 . S
C458 C463 1.499 . S
N459 Co442 1.989 . S
N459 C458 1.342 . S
N459 N460 1.388 . S
N460 Co443 1.993 . S
N460 N459 1.388 . S
N460 C461 1.346 . S
C461 N460 1.346 . S
C461 C462 1.396 . S
C461 C471 1.510 . S
C462 C458 1.401 . S
C462 C461 1.396 . S
C463 C458 1.499 . S
C463 H464 0.959 . S
C463 H465 0.960 . S
C463 H466 0.961 . S
H464 C463 0.959 . S
H465 C463 0.960 . S
H466 C463 0.961 . S
O467 Co442 1.967 . S
O467 C475 1.258 . S
O468 Co443 1.941 . S
O468 C475 1.266 . S
H469 C471 0.959 1_545 S
H470 C471 0.961 . S
C471 C461 1.510 . S
C471 H469 0.959 1_565 S
C471 H470 0.961 . S
C471 H472 0.960 . S
H472 C471 0.960 . S
H473 N453 0.862 . S
O474 Co442 1.920 . S
O474 C447 1.289 . S
C475 O467 1.258 . S
C475 O468 1.266 . S
Co476 O479 1.970 . S
Co476 N493 1.989 . S
Co476 O501 1.967 . S
Co476 O508 1.920 . S
Co477 O480 1.966 . S
Co477 N486 2.022 . S
Co477 N494 1.993 . S
Co477 O502 1.941 . S
C478 O479 1.258 . S
C478 O480 1.263 . S
O479 Co476 1.970 . S
O479 C478 1.258 . S
O480 Co477 1.966 . S
O480 C478 1.263 . S
C481 O482 1.235 . S
C481 O508 1.289 . S
O482 C481 1.235 . S
C483 C485 1.400 . S
C483 N486 1.351 . S
C483 C488 1.501 . S
C484 C485 1.387 . S
C484 N487 1.341 . S
C485 C483 1.400 . S
C485 C484 1.387 . S
N486 Co477 2.022 . S
N486 C483 1.351 . S
N486 N487 1.365 . S
N487 C484 1.341 . S
N487 N486 1.365 . S
N487 H507 0.862 . S
C488 C483 1.501 . S
C488 H489 0.961 . S
C488 H490 0.961 . S
C488 H491 0.960 . S
H489 C488 0.961 . S
H490 C488 0.961 . S
H491 C488 0.960 . S
C492 N493 1.342 . S
C492 C496 1.401 . S
C492 C497 1.499 . S
N493 Co476 1.989 . S
N493 C492 1.342 . S
N493 N494 1.388 . S
N494 Co477 1.993 . S
N494 N493 1.388 . S
N494 C495 1.346 . S
C495 N494 1.346 . S
C495 C496 1.396 . S
C495 C505 1.510 . S
C496 C492 1.401 . S
C496 C495 1.396 . S
C497 C492 1.499 . S
C497 H498 0.959 . S
C497 H499 0.960 . S
C497 H500 0.961 . S
H498 C497 0.959 . S
H499 C497 0.960 . S
H500 C497 0.961 . S
O501 Co476 1.967 . S
O501 C509 1.258 . S
O502 Co477 1.941 . S
O502 C509 1.266 . S
H503 C505 0.959 . S
H504 C505 0.961 . S
C505 C495 1.510 . S
C505 H503 0.959 . S
C505 H504 0.961 . S
C505 H506 0.960 . S
H506 C505 0.960 . S
H507 N487 0.862 . S
O508 Co476 1.920 . S
O508 C481 1.289 . S
C509 O501 1.258 . S
C509 O502 1.266 . S
Co510 O513 1.970 . S
Co510 N527 1.989 . S
Co510 O535 1.967 . S
Co510 O542 1.920 . S
Co511 O514 1.966 . S
Co511 N520 2.022 . S
Co511 N528 1.993 . S
Co511 O536 1.941 . S
C512 O513 1.258 . S
C512 O514 1.263 . S
O513 Co510 1.970 . S
O513 C512 1.258 . S
O514 Co511 1.966 . S
O514 C512 1.263 . S
C515 O516 1.235 . S
C515 O542 1.289 . S
O516 C515 1.235 . S
C517 C519 1.370 1_545 S
C517 N520 1.351 . S
C517 C522 1.501 . S
C518 C519 1.403 . S
C518 N521 1.341 1_565 S
C519 C517 1.370 1_565 S
C519 C518 1.403 . S
N520 Co511 2.022 . S
N520 C517 1.351 . S
N520 N521 1.365 . S
N521 C518 1.341 1_545 S
N521 N520 1.365 . S
N521 H541 0.862 . S
C522 C517 1.501 . S
C522 H523 0.961 . S
C522 H524 0.961 . S
C522 H525 0.960 . S
H523 C522 0.961 . S
H524 C522 0.961 . S
H525 C522 0.960 . S
C526 N527 1.342 . S
C526 C530 1.401 . S
C526 C531 1.499 . S
N527 Co510 1.989 . S
N527 C526 1.342 . S
N527 N528 1.388 . S
N528 Co511 1.993 . S
N528 N527 1.388 . S
N528 C529 1.346 . S
C529 N528 1.346 . S
C529 C530 1.396 . S
C529 C539 1.510 . S
C530 C526 1.401 . S
C530 C529 1.396 . S
C531 C526 1.499 . S
C531 H532 0.959 . S
C531 H533 0.960 1_556 S
C531 H534 0.961 . S
H532 C531 0.959 . S
H533 C531 0.960 1_554 S
H534 C531 0.961 . S
O535 Co510 1.967 . S
O535 C543 1.258 . S
O536 Co511 1.941 . S
O536 C543 1.266 . S
H537 C539 0.959 1_565 S
H538 C539 0.961 . S
C539 C529 1.510 . S
C539 H537 0.959 1_545 S
C539 H538 0.961 . S
C539 H540 0.960 . S
H540 C539 0.960 . S
H541 N521 0.862 . S
O542 Co510 1.920 . S
O542 C515 1.289 . S
C543 O535 1.258 . S
C543 O536 1.266 . S
Co544 O547 1.970 . S
Co544 N561 1.989 . S
Co544 O569 1.967 . S
Co544 O576 1.920 . S
Co545 O548 1.966 . S
Co545 N554 2.022 . S
Co545 N562 1.993 . S
Co545 O570 1.941 . S
C546 O547 1.258 . S
C546 O548 1.263 . S
O547 Co544 1.970 . S
O547 C546 1.258 . S
O548 Co545 1.966 . S
O548 C546 1.263 . S
C549 O550 1.235 . S
C549 O576 1.289 . S
O550 C549 1.235 . S
C551 C553 1.400 . S
C551 N554 1.351 . S
C551 C556 1.501 . S
C552 C553 1.387 . S
C552 N555 1.341 . S
C553 C551 1.400 . S
C553 C552 1.387 . S
N554 Co545 2.022 . S
N554 C551 1.351 . S
N554 N555 1.365 . S
N555 C552 1.341 . S
N555 N554 1.365 . S
N555 H575 0.862 . S
C556 C551 1.501 . S
C556 H557 0.961 . S
C556 H558 0.961 . S
C556 H559 0.960 . S
H557 C556 0.961 . S
H558 C556 0.961 . S
H559 C556 0.960 . S
C560 N561 1.342 . S
C560 C564 1.401 . S
C560 C565 1.499 . S
N561 Co544 1.989 . S
N561 C560 1.342 . S
N561 N562 1.388 . S
N562 Co545 1.993 . S
N562 N561 1.388 . S
N562 C563 1.346 . S
C563 N562 1.346 . S
C563 C564 1.396 . S
C563 C573 1.510 . S
C564 C560 1.401 . S
C564 C563 1.396 . S
C565 C560 1.499 . S
C565 H566 0.959 . S
C565 H567 0.960 . S
C565 H568 0.961 . S
H566 C565 0.959 . S
H567 C565 0.960 . S
H568 C565 0.961 . S
O569 Co544 1.967 . S
O569 C577 1.258 . S
O570 Co545 1.941 . S
O570 C577 1.266 . S
H571 C573 0.959 . S
H572 C573 0.961 . S
C573 C563 1.510 . S
C573 H571 0.959 . S
C573 H572 0.961 . S
C573 H574 0.960 . S
H574 C573 0.960 . S
H575 N555 0.862 . S
O576 Co544 1.920 . S
O576 C549 1.289 . S
C577 O569 1.258 . S
C577 O570 1.266 . S
Co578 O581 1.970 . S
Co578 N595 1.989 . S
Co578 O603 1.967 . S
Co578 O610 1.920 . S
Co579 O582 1.966 . S
Co579 N588 2.022 . S
Co579 N596 1.993 . S
Co579 O604 1.941 . S
C580 O581 1.258 . S
C580 O582 1.263 . S
O581 Co578 1.970 . S
O581 C580 1.258 . S
O582 Co579 1.966 . S
O582 C580 1.263 . S
C583 O584 1.235 . S
C583 O610 1.289 . S
O584 C583 1.235 . S
C585 C587 1.400 . S
C585 N588 1.351 . S
C585 C590 1.501 . S
C586 C587 1.387 . S
C586 N589 1.341 . S
C587 C585 1.400 . S
C587 C586 1.387 . S
N588 Co579 2.022 . S
N588 C585 1.351 . S
N588 N589 1.365 . S
N589 C586 1.341 . S
N589 N588 1.365 . S
N589 H609 0.862 . S
C590 C585 1.501 . S
C590 H591 0.961 . S
C590 H592 0.961 . S
C590 H593 0.960 . S
H591 C590 0.961 . S
H592 C590 0.961 . S
H593 C590 0.960 . S
C594 N595 1.342 . S
C594 C598 1.401 . S
C594 C599 1.499 . S
N595 Co578 1.989 . S
N595 C594 1.342 . S
N595 N596 1.388 . S
N596 Co579 1.993 . S
N596 N595 1.388 . S
N596 C597 1.346 . S
C597 N596 1.346 . S
C597 C598 1.396 . S
C597 C607 1.510 . S
C598 C594 1.401 . S
C598 C597 1.396 . S
C599 C594 1.499 . S
C599 H600 0.959 . S
C599 H601 0.960 1_556 S
C599 H602 0.961 . S
H600 C599 0.959 . S
H601 C599 0.960 1_554 S
H602 C599 0.961 . S
O603 Co578 1.967 . S
O603 C611 1.258 . S
O604 Co579 1.941 . S
O604 C611 1.266 . S
H605 C607 0.959 . S
H606 C607 0.961 . S
C607 C597 1.510 . S
C607 H605 0.959 . S
C607 H606 0.961 . S
C607 H608 0.960 . S
H608 C607 0.960 . S
H609 N589 0.862 . S
O610 Co578 1.920 . S
O610 C583 1.289 . S
C611 O603 1.258 . S
C611 O604 1.266 . S
Co612 O615 1.970 . S
Co612 N629 1.989 . S
Co612 O637 1.967 . S
Co612 O644 1.920 . S
Co613 O616 1.966 . S
Co613 N622 2.022 . S
Co613 N630 1.993 . S
Co613 O638 1.941 . S
C614 O615 1.258 . S
C614 O616 1.263 . S
O615 Co612 1.970 . S
O615 C614 1.258 . S
O616 Co613 1.966 . S
O616 C614 1.263 . S
C617 O618 1.235 . S
C617 O644 1.289 . S
O618 C617 1.235 . S
C619 C621 1.400 . S
C619 N622 1.351 . S
C619 C624 1.501 . S
C620 C621 1.387 . S
C620 N623 1.341 . S
C621 C619 1.400 . S
C621 C620 1.387 . S
N622 Co613 2.022 . S
N622 C619 1.351 . S
N622 N623 1.365 . S
N623 C620 1.341 . S
N623 N622 1.365 . S
N623 H643 0.862 . S
C624 C619 1.501 . S
C624 H625 0.961 . S
C624 H626 0.961 . S
C624 H627 0.960 . S
H625 C624 0.961 . S
H626 C624 0.961 . S
H627 C624 0.960 . S
C628 N629 1.342 . S
C628 C632 1.401 . S
C628 C633 1.499 . S
N629 Co612 1.989 . S
N629 C628 1.342 . S
N629 N630 1.388 . S
N630 Co613 1.993 . S
N630 N629 1.388 . S
N630 C631 1.346 . S
C631 N630 1.346 . S
C631 C632 1.396 . S
C631 C641 1.510 . S
C632 C628 1.401 . S
C632 C631 1.396 . S
C633 C628 1.499 . S
C633 H634 0.959 . S
C633 H635 0.960 . S
C633 H636 0.961 . S
H634 C633 0.959 . S
H635 C633 0.960 . S
H636 C633 0.961 . S
O637 Co612 1.967 . S
O637 C645 1.258 . S
O638 Co613 1.941 . S
O638 C645 1.266 . S
H639 C641 0.959 . S
H640 C641 0.961 . S
C641 C631 1.510 . S
C641 H639 0.959 . S
C641 H640 0.961 . S
C641 H642 0.960 . S
H642 C641 0.960 . S
H643 N623 0.862 . S
O644 Co612 1.920 . S
O644 C617 1.289 . S
C645 O637 1.258 . S
C645 O638 1.266 . S
Co646 O649 1.970 . S
Co646 N663 1.989 . S
Co646 O671 1.967 . S
Co646 O678 1.920 . S
Co647 O650 1.966 . S
Co647 N656 2.022 . S
Co647 N664 1.993 . S
Co647 O672 1.941 . S
C648 O649 1.258 . S
C648 O650 1.263 . S
O649 Co646 1.970 . S
O649 C648 1.258 . S
O650 Co647 1.966 . S
O650 C648 1.263 . S
C651 O652 1.235 . S
C651 O678 1.289 . S
O652 C651 1.235 . S
C653 C655 1.400 . S
C653 N656 1.351 . S
C653 C658 1.501 . S
C654 C655 1.387 . S
C654 N657 1.341 . S
C655 C653 1.400 . S
C655 C654 1.387 . S
N656 Co647 2.022 . S
N656 C653 1.351 . S
N656 N657 1.365 . S
N657 C654 1.341 . S
N657 N656 1.365 . S
N657 H677 0.862 . S
C658 C653 1.501 . S
C658 H659 0.961 . S
C658 H660 0.961 . S
C658 H661 0.960 . S
H659 C658 0.961 . S
H660 C658 0.961 . S
H661 C658 0.960 . S
C662 N663 1.342 . S
C662 C666 1.401 . S
C662 C667 1.499 . S
N663 Co646 1.989 . S
N663 C662 1.342 . S
N663 N664 1.388 . S
N664 Co647 1.993 . S
N664 N663 1.388 . S
N664 C665 1.346 . S
C665 N664 1.346 . S
C665 C666 1.396 . S
C665 C675 1.510 . S
C666 C662 1.401 . S
C666 C665 1.396 . S
C667 C662 1.499 . S
C667 H668 0.959 . S
C667 H669 0.960 . S
C667 H670 0.961 . S
H668 C667 0.959 . S
H669 C667 0.960 . S
H670 C667 0.961 . S
O671 Co646 1.967 . S
O671 C679 1.258 . S
O672 Co647 1.941 . S
O672 C679 1.266 . S
H673 C675 0.959 . S
H674 C675 0.961 . S
C675 C665 1.510 . S
C675 H673 0.959 . S
C675 H674 0.961 . S
C675 H676 0.960 . S
H676 C675 0.960 . S
H677 N657 0.862 . S
O678 Co646 1.920 . S
O678 C651 1.289 . S
C679 O671 1.258 . S
C679 O672 1.266 . S
Co680 O683 1.970 . S
Co680 N697 1.989 . S
Co680 O705 1.967 . S
Co680 O712 1.920 . S
Co681 O684 1.966 . S
Co681 N690 2.022 . S
Co681 N698 1.993 . S
Co681 O706 1.941 . S
C682 O683 1.258 . S
C682 O684 1.263 . S
O683 Co680 1.970 . S
O683 C682 1.258 . S
O684 Co681 1.966 . S
O684 C682 1.263 . S
C685 O686 1.235 . S
C685 O712 1.289 . S
O686 C685 1.235 . S
C687 C689 1.400 . S
C687 N690 1.351 . S
C687 C692 1.501 . S
C688 C689 1.387 . S
C688 N691 1.341 . S
C689 C687 1.400 . S
C689 C688 1.387 . S
N690 Co681 2.022 . S
N690 C687 1.351 . S
N690 N691 1.365 . S
N691 C688 1.341 . S
N691 N690 1.365 . S
N691 H711 0.862 . S
C692 C687 1.501 . S
C692 H693 0.961 . S
C692 H694 0.961 . S
C692 H695 0.960 . S
H693 C692 0.961 . S
H694 C692 0.961 . S
H695 C692 0.960 . S
C696 N697 1.342 . S
C696 C700 1.401 . S
C696 C701 1.499 . S
N697 Co680 1.989 . S
N697 C696 1.342 . S
N697 N698 1.388 . S
N698 Co681 1.993 . S
N698 N697 1.388 . S
N698 C699 1.346 . S
C699 N698 1.346 . S
C699 C700 1.396 . S
C699 C709 1.510 . S
C700 C696 1.401 . S
C700 C699 1.396 . S
C701 C696 1.499 . S
C701 H702 0.959 . S
C701 H703 0.960 . S
C701 H704 0.961 . S
H702 C701 0.959 . S
H703 C701 0.960 . S
H704 C701 0.961 . S
O705 Co680 1.967 . S
O705 C713 1.258 . S
O706 Co681 1.941 . S
O706 C713 1.266 . S
H707 C709 0.959 . S
H708 C709 0.961 . S
C709 C699 1.510 . S
C709 H707 0.959 . S
C709 H708 0.961 . S
C709 H710 0.960 . S
H710 C709 0.960 . S
H711 N691 0.862 . S
O712 Co680 1.920 . S
O712 C685 1.289 . S
C713 O705 1.258 . S
C713 O706 1.266 . S
Co714 O717 1.970 . S
Co714 N731 1.989 . S
Co714 O739 1.967 . S
Co714 O746 1.920 . S
Co715 O718 1.966 . S
Co715 N724 2.022 . S
Co715 N732 1.993 . S
Co715 O740 1.941 . S
C716 O717 1.258 . S
C716 O718 1.263 . S
O717 Co714 1.970 . S
O717 C716 1.258 . S
O718 Co715 1.966 . S
O718 C716 1.263 . S
C719 O720 1.235 . S
C719 O746 1.289 . S
O720 C719 1.235 . S
C721 C723 1.400 . S
C721 N724 1.351 . S
C721 C726 1.501 . S
C722 C723 1.387 . S
C722 N725 1.341 . S
C723 C721 1.400 . S
C723 C722 1.387 . S
N724 Co715 2.022 . S
N724 C721 1.351 . S
N724 N725 1.365 . S
N725 C722 1.341 . S
N725 N724 1.365 . S
N725 H745 0.862 . S
C726 C721 1.501 . S
C726 H727 0.961 . S
C726 H728 0.961 . S
C726 H729 0.960 . S
H727 C726 0.961 . S
H728 C726 0.961 . S
H729 C726 0.960 . S
C730 N731 1.342 . S
C730 C734 1.401 . S
C730 C735 1.499 . S
N731 Co714 1.989 . S
N731 C730 1.342 . S
N731 N732 1.388 . S
N732 Co715 1.993 . S
N732 N731 1.388 . S
N732 C733 1.346 . S
C733 N732 1.346 . S
C733 C734 1.396 . S
C733 C743 1.510 . S
C734 C730 1.401 . S
C734 C733 1.396 . S
C735 C730 1.499 . S
C735 H736 0.959 . S
C735 H737 0.960 1_554 S
C735 H738 0.961 . S
H736 C735 0.959 . S
H737 C735 0.960 1_556 S
H738 C735 0.961 . S
O739 Co714 1.967 . S
O739 C747 1.258 . S
O740 Co715 1.941 . S
O740 C747 1.266 . S
H741 C743 0.959 . S
H742 C743 0.961 . S
C743 C733 1.510 . S
C743 H741 0.959 . S
C743 H742 0.961 . S
C743 H744 0.960 . S
H744 C743 0.960 . S
H745 N725 0.862 . S
O746 Co714 1.920 . S
O746 C719 1.289 . S
C747 O739 1.258 . S
C747 O740 1.266 . S
Co748 O751 1.970 . S
Co748 N765 1.989 . S
Co748 O773 1.967 . S
Co748 O780 1.920 . S
Co749 O752 1.966 . S
Co749 N758 2.022 . S
Co749 N766 1.993 . S
Co749 O774 1.941 . S
C750 O751 1.258 . S
C750 O752 1.263 . S
O751 Co748 1.970 . S
O751 C750 1.258 . S
O752 Co749 1.966 . S
O752 C750 1.263 . S
C753 O754 1.235 . S
C753 O780 1.289 . S
O754 C753 1.235 . S
C755 C757 1.400 . S
C755 N758 1.351 . S
C755 C760 1.501 . S
C756 C757 1.387 . S
C756 N759 1.341 . S
C757 C755 1.400 . S
C757 C756 1.387 . S
N758 Co749 2.022 . S
N758 C755 1.351 . S
N758 N759 1.365 . S
N759 C756 1.341 . S
N759 N758 1.365 . S
N759 H779 0.862 . S
C760 C755 1.501 . S
C760 H761 0.961 . S
C760 H762 0.961 . S
C760 H763 0.960 . S
H761 C760 0.961 . S
H762 C760 0.961 . S
H763 C760 0.960 . S
C764 N765 1.342 . S
C764 C768 1.401 . S
C764 C769 1.499 . S
N765 Co748 1.989 . S
N765 C764 1.342 . S
N765 N766 1.388 . S
N766 Co749 1.993 . S
N766 N765 1.388 . S
N766 C767 1.346 . S
C767 N766 1.346 . S
C767 C768 1.396 . S
C767 C777 1.510 . S
C768 C764 1.401 . S
C768 C767 1.396 . S
C769 C764 1.499 . S
C769 H770 0.959 . S
C769 H771 0.960 . S
C769 H772 0.961 . S
H770 C769 0.959 . S
H771 C769 0.960 . S
H772 C769 0.961 . S
O773 Co748 1.967 . S
O773 C781 1.258 . S
O774 Co749 1.941 . S
O774 C781 1.266 . S
H775 C777 0.959 . S
H776 C777 0.961 . S
C777 C767 1.510 . S
C777 H775 0.959 . S
C777 H776 0.961 . S
C777 H778 0.960 . S
H778 C777 0.960 . S
H779 N759 0.862 . S
O780 Co748 1.920 . S
O780 C753 1.289 . S
C781 O773 1.258 . S
C781 O774 1.266 . S
Co782 O785 1.970 . S
Co782 N799 1.989 . S
Co782 O807 1.967 . S
Co782 O814 1.920 . S
Co783 O786 1.966 . S
Co783 N792 2.022 . S
Co783 N800 1.993 . S
Co783 O808 1.941 . S
C784 O785 1.258 . S
C784 O786 1.263 . S
O785 Co782 1.970 . S
O785 C784 1.258 . S
O786 Co783 1.966 . S
O786 C784 1.263 . S
C787 O788 1.235 . S
C787 O814 1.289 . S
O788 C787 1.235 . S
C789 C791 1.400 . S
C789 N792 1.351 . S
C789 C794 1.501 . S
C790 C791 1.387 . S
C790 N793 1.341 . S
C791 C789 1.400 . S
C791 C790 1.387 . S
N792 Co783 2.022 . S
N792 C789 1.351 . S
N792 N793 1.365 . S
N793 C790 1.341 . S
N793 N792 1.365 . S
N793 H813 0.862 . S
C794 C789 1.501 . S
C794 H795 0.961 . S
C794 H796 0.961 . S
C794 H797 0.960 . S
H795 C794 0.961 . S
H796 C794 0.961 . S
H797 C794 0.960 . S
C798 N799 1.342 . S
C798 C802 1.401 . S
C798 C803 1.499 . S
N799 Co782 1.989 . S
N799 C798 1.342 . S
N799 N800 1.388 . S
N800 Co783 1.993 . S
N800 N799 1.388 . S
N800 C801 1.346 . S
C801 N800 1.346 . S
C801 C802 1.396 . S
C801 C811 1.510 . S
C802 C798 1.401 . S
C802 C801 1.396 . S
C803 C798 1.499 . S
C803 H804 0.959 . S
C803 H805 0.960 . S
C803 H806 0.961 . S
H804 C803 0.959 . S
H805 C803 0.960 . S
H806 C803 0.961 . S
O807 Co782 1.967 . S
O807 C815 1.258 . S
O808 Co783 1.941 . S
O808 C815 1.266 . S
H809 C811 0.959 . S
H810 C811 0.961 . S
C811 C801 1.510 . S
C811 H809 0.959 . S
C811 H810 0.961 . S
C811 H812 0.960 . S
H812 C811 0.960 . S
H813 N793 0.862 . S
O814 Co782 1.920 . S
O814 C787 1.289 . S
C815 O807 1.258 . S
C815 O808 1.266 . S
Co816 O819 1.970 . S
Co816 N833 1.989 . S
Co816 O841 1.967 . S
Co816 O848 1.920 . S
Co817 O820 1.966 . S
Co817 N826 2.022 . S
Co817 N834 1.993 . S
Co817 O842 1.941 . S
C818 O819 1.258 . S
C818 O820 1.263 . S
O819 Co816 1.970 . S
O819 C818 1.258 . S
O820 Co817 1.966 . S
O820 C818 1.263 . S
C821 O822 1.235 . S
C821 O848 1.289 . S
O822 C821 1.235 . S
C823 C825 1.400 . S
C823 N826 1.351 . S
C823 C828 1.501 . S
C824 C825 1.387 . S
C824 N827 1.341 . S
C825 C823 1.400 . S
C825 C824 1.387 . S
N826 Co817 2.022 . S
N826 C823 1.351 . S
N826 N827 1.365 . S
N827 C824 1.341 . S
N827 N826 1.365 . S
N827 H847 0.862 . S
C828 C823 1.501 . S
C828 H829 0.961 . S
C828 H830 0.961 . S
C828 H831 0.960 . S
H829 C828 0.961 . S
H830 C828 0.961 . S
H831 C828 0.960 . S
C832 N833 1.342 . S
C832 C836 1.401 . S
C832 C837 1.499 . S
N833 Co816 1.989 . S
N833 C832 1.342 . S
N833 N834 1.388 . S
N834 Co817 1.993 . S
N834 N833 1.388 . S
N834 C835 1.346 . S
C835 N834 1.346 . S
C835 C836 1.396 . S
C835 C845 1.510 . S
C836 C832 1.401 . S
C836 C835 1.396 . S
C837 C832 1.499 . S
C837 H838 0.959 . S
C837 H839 0.960 . S
C837 H840 0.961 . S
H838 C837 0.959 . S
H839 C837 0.960 . S
H840 C837 0.961 . S
O841 Co816 1.967 . S
O841 C849 1.258 . S
O842 Co817 1.941 . S
O842 C849 1.266 . S
H843 C845 0.959 . S
H844 C845 0.961 . S
C845 C835 1.510 . S
C845 H843 0.959 . S
C845 H844 0.961 . S
C845 H846 0.960 . S
H846 C845 0.960 . S
H847 N827 0.862 . S
O848 Co816 1.920 . S
O848 C821 1.289 . S
C849 O841 1.258 . S
C849 O842 1.266 . S
Co850 O853 1.970 . S
Co850 N867 1.989 . S
Co850 O875 1.967 . S
Co850 O882 1.920 . S
Co851 O854 1.966 . S
Co851 N860 2.022 . S
Co851 N868 1.993 . S
Co851 O876 1.941 . S
C852 O853 1.258 . S
C852 O854 1.263 . S
O853 Co850 1.970 . S
O853 C852 1.258 . S
O854 Co851 1.966 . S
O854 C852 1.263 . S
C855 O856 1.235 . S
C855 O882 1.289 . S
O856 C855 1.235 . S
C857 C859 1.400 . S
C857 N860 1.351 . S
C857 C862 1.501 . S
C858 C859 1.387 . S
C858 N861 1.341 . S
C859 C857 1.400 . S
C859 C858 1.387 . S
N860 Co851 2.022 . S
N860 C857 1.351 . S
N860 N861 1.365 . S
N861 C858 1.341 . S
N861 N860 1.365 . S
N861 H881 0.862 . S
C862 C857 1.501 . S
C862 H863 0.961 . S
C862 H864 0.961 . S
C862 H865 0.960 . S
H863 C862 0.961 . S
H864 C862 0.961 . S
H865 C862 0.960 . S
C866 N867 1.342 . S
C866 C870 1.401 . S
C866 C871 1.499 . S
N867 Co850 1.989 . S
N867 C866 1.342 . S
N867 N868 1.388 . S
N868 Co851 1.993 . S
N868 N867 1.388 . S
N868 C869 1.346 . S
C869 N868 1.346 . S
C869 C870 1.396 . S
C869 C879 1.510 . S
C870 C866 1.401 . S
C870 C869 1.396 . S
C871 C866 1.499 . S
C871 H872 0.959 . S
C871 H873 0.960 1_554 S
C871 H874 0.961 . S
H872 C871 0.959 . S
H873 C871 0.960 1_556 S
H874 C871 0.961 . S
O875 Co850 1.967 . S
O875 C883 1.258 . S
O876 Co851 1.941 . S
O876 C883 1.266 . S
H877 C879 0.959 . S
H878 C879 0.961 . S
C879 C869 1.510 . S
C879 H877 0.959 . S
C879 H878 0.961 . S
C879 H880 0.960 . S
H880 C879 0.960 . S
H881 N861 0.862 . S
O882 Co850 1.920 . S
O882 C855 1.289 . S
C883 O875 1.258 . S
C883 O876 1.266 . S
Co884 O887 1.970 . S
Co884 N901 1.989 . S
Co884 O909 1.967 . S
Co884 O916 1.920 . S
Co885 O888 1.966 . S
Co885 N894 2.022 . S
Co885 N902 1.993 . S
Co885 O910 1.941 . S
C886 O887 1.258 . S
C886 O888 1.263 . S
O887 Co884 1.970 . S
O887 C886 1.258 . S
O888 Co885 1.966 . S
O888 C886 1.263 . S
C889 O890 1.235 . S
C889 O916 1.289 . S
O890 C889 1.235 . S
C891 C893 1.400 . S
C891 N894 1.351 . S
C891 C896 1.501 . S
C892 C893 1.387 . S
C892 N895 1.341 . S
C893 C891 1.400 . S
C893 C892 1.387 . S
N894 Co885 2.022 . S
N894 C891 1.351 . S
N894 N895 1.365 . S
N895 C892 1.341 . S
N895 N894 1.365 . S
N895 H915 0.862 . S
C896 C891 1.501 . S
C896 H897 0.961 . S
C896 H898 0.961 . S
C896 H899 0.960 . S
H897 C896 0.961 . S
H898 C896 0.961 . S
H899 C896 0.960 . S
C900 N901 1.342 . S
C900 C904 1.401 . S
C900 C905 1.499 . S
N901 Co884 1.989 . S
N901 C900 1.342 . S
N901 N902 1.388 . S
N902 Co885 1.993 . S
N902 N901 1.388 . S
N902 C903 1.346 . S
C903 N902 1.346 . S
C903 C904 1.396 . S
C903 C913 1.510 . S
C904 C900 1.401 . S
C904 C903 1.396 . S
C905 C900 1.499 . S
C905 H906 0.959 . S
C905 H907 0.960 . S
C905 H908 0.961 . S
H906 C905 0.959 . S
H907 C905 0.960 . S
H908 C905 0.961 . S
O909 Co884 1.967 . S
O909 C917 1.258 . S
O910 Co885 1.941 . S
O910 C917 1.266 . S
H911 C913 0.959 . S
H912 C913 0.961 . S
C913 C903 1.510 . S
C913 H911 0.959 . S
C913 H912 0.961 . S
C913 H914 0.960 . S
H914 C913 0.960 . S
H915 N895 0.862 . S
O916 Co884 1.920 . S
O916 C889 1.289 . S
C917 O909 1.258 . S
C917 O910 1.266 . S
Co918 O921 1.970 . S
Co918 N935 1.989 . S
Co918 O943 1.967 . S
Co918 O950 1.920 . S
Co919 O922 1.966 . S
Co919 N928 2.022 . S
Co919 N936 1.993 . S
Co919 O944 1.941 . S
C920 O921 1.258 . S
C920 O922 1.263 . S
O921 Co918 1.970 . S
O921 C920 1.258 . S
O922 Co919 1.966 . S
O922 C920 1.263 . S
C923 O924 1.235 . S
C923 O950 1.289 . S
O924 C923 1.235 . S
C925 C927 1.400 . S
C925 N928 1.351 . S
C925 C930 1.501 . S
C926 C927 1.387 . S
C926 N929 1.341 . S
C927 C925 1.400 . S
C927 C926 1.387 . S
N928 Co919 2.022 . S
N928 C925 1.351 . S
N928 N929 1.365 . S
N929 C926 1.341 . S
N929 N928 1.365 . S
N929 H949 0.862 . S
C930 C925 1.501 . S
C930 H931 0.961 . S
C930 H932 0.961 . S
C930 H933 0.960 . S
H931 C930 0.961 . S
H932 C930 0.961 . S
H933 C930 0.960 . S
C934 N935 1.342 . S
C934 C938 1.401 . S
C934 C939 1.499 . S
N935 Co918 1.989 . S
N935 C934 1.342 . S
N935 N936 1.388 . S
N936 Co919 1.993 . S
N936 N935 1.388 . S
N936 C937 1.346 . S
C937 N936 1.346 . S
C937 C938 1.396 . S
C937 C947 1.510 . S
C938 C934 1.401 . S
C938 C937 1.396 . S
C939 C934 1.499 . S
C939 H940 0.959 . S
C939 H941 0.960 . S
C939 H942 0.961 . S
H940 C939 0.959 . S
H941 C939 0.960 . S
H942 C939 0.961 . S
O943 Co918 1.967 . S
O943 C951 1.258 . S
O944 Co919 1.941 . S
O944 C951 1.266 . S
H945 C947 0.959 . S
H946 C947 0.961 . S
C947 C937 1.510 . S
C947 H945 0.959 . S
C947 H946 0.961 . S
C947 H948 0.960 . S
H948 C947 0.960 . S
H949 N929 0.862 . S
O950 Co918 1.920 . S
O950 C923 1.289 . S
C951 O943 1.258 . S
C951 O944 1.266 . S
Co952 O955 1.970 . S
Co952 N969 1.989 . S
Co952 O977 1.967 . S
Co952 O984 1.920 . S
Co953 O956 1.966 . S
Co953 N962 2.022 . S
Co953 N970 1.993 . S
Co953 O978 1.941 . S
C954 O955 1.258 . S
C954 O956 1.263 . S
O955 Co952 1.970 . S
O955 C954 1.258 . S
O956 Co953 1.966 . S
O956 C954 1.263 . S
C957 O958 1.235 . S
C957 O984 1.289 . S
O958 C957 1.235 . S
C959 C961 1.400 . S
C959 N962 1.351 . S
C959 C964 1.501 . S
C960 C961 1.387 . S
C960 N963 1.341 . S
C961 C959 1.400 . S
C961 C960 1.387 . S
N962 Co953 2.022 . S
N962 C959 1.351 . S
N962 N963 1.365 . S
N963 C960 1.341 . S
N963 N962 1.365 . S
N963 H983 0.862 . S
C964 C959 1.501 . S
C964 H965 0.961 . S
C964 H966 0.961 . S
C964 H967 0.960 . S
H965 C964 0.961 . S
H966 C964 0.961 . S
H967 C964 0.960 . S
C968 N969 1.342 . S
C968 C972 1.401 . S
C968 C973 1.499 . S
N969 Co952 1.989 . S
N969 C968 1.342 . S
N969 N970 1.388 . S
N970 Co953 1.993 . S
N970 N969 1.388 . S
N970 C971 1.346 . S
C971 N970 1.346 . S
C971 C972 1.396 . S
C971 C981 1.510 . S
C972 C968 1.401 . S
C972 C971 1.396 . S
C973 C968 1.499 . S
C973 H974 0.959 . S
C973 H975 0.960 . S
C973 H976 0.961 . S
H974 C973 0.959 . S
H975 C973 0.960 . S
H976 C973 0.961 . S
O977 Co952 1.967 . S
O977 C985 1.258 . S
O978 Co953 1.941 . S
O978 C985 1.266 . S
H979 C981 0.959 . S
H980 C981 0.961 . S
C981 C971 1.510 . S
C981 H979 0.959 . S
C981 H980 0.961 . S
C981 H982 0.960 . S
H982 C981 0.960 . S
H983 N963 0.862 . S
O984 Co952 1.920 . S
O984 C957 1.289 . S
C985 O977 1.258 . S
C985 O978 1.266 . S
Co986 O989 1.970 . S
Co986 N1003 1.989 . S
Co986 O1011 1.967 . S
Co986 O1018 1.920 . S
Co987 O990 1.966 . S
Co987 N996 2.022 . S
Co987 N1004 1.993 . S
Co987 O1012 1.941 . S
C988 O989 1.258 . S
C988 O990 1.263 . S
O989 Co986 1.970 . S
O989 C988 1.258 . S
O990 Co987 1.966 . S
O990 C988 1.263 . S
C991 O992 1.235 . S
C991 O1018 1.289 . S
O992 C991 1.235 . S
C993 C995 1.400 . S
C993 N996 1.351 . S
C993 C998 1.501 . S
C994 C995 1.387 . S
C994 N997 1.341 . S
C995 C993 1.400 . S
C995 C994 1.387 . S
N996 Co987 2.022 . S
N996 C993 1.351 . S
N996 N997 1.365 . S
N997 C994 1.341 . S
N997 N996 1.365 . S
N997 H1017 0.862 . S
C998 C993 1.501 . S
C998 H999 0.961 . S
C998 H1000 0.961 . S
C998 H1001 0.960 . S
H999 C998 0.961 . S
H1000 C998 0.961 . S
H1001 C998 0.960 . S
C1002 N1003 1.342 . S
C1002 C1006 1.401 . S
C1002 C1007 1.499 . S
N1003 Co986 1.989 . S
N1003 C1002 1.342 . S
N1003 N1004 1.388 . S
N1004 Co987 1.993 . S
N1004 N1003 1.388 . S
N1004 C1005 1.346 . S
C1005 N1004 1.346 . S
C1005 C1006 1.396 . S
C1005 C1015 1.510 . S
C1006 C1002 1.401 . S
C1006 C1005 1.396 . S
C1007 C1002 1.499 . S
C1007 H1008 0.959 . S
C1007 H1009 0.960 1_556 S
C1007 H1010 0.961 . S
H1008 C1007 0.959 . S
H1009 C1007 0.960 1_554 S
H1010 C1007 0.961 . S
O1011 Co986 1.967 . S
O1011 C1019 1.258 . S
O1012 Co987 1.941 . S
O1012 C1019 1.266 . S
H1013 C1015 0.959 . S
H1014 C1015 0.961 . S
C1015 C1005 1.510 . S
C1015 H1013 0.959 . S
C1015 H1014 0.961 . S
C1015 H1016 0.960 . S
H1016 C1015 0.960 . S
H1017 N997 0.862 . S
O1018 Co986 1.920 . S
O1018 C991 1.289 . S
C1019 O1011 1.258 . S
C1019 O1012 1.266 . S
Co1020 O1023 1.970 . S
Co1020 N1037 1.989 . S
Co1020 O1045 1.967 . S
Co1020 O1052 1.920 . S
Co1021 O1024 1.966 . S
Co1021 N1030 2.022 . S
Co1021 N1038 1.993 . S
Co1021 O1046 1.941 . S
C1022 O1023 1.258 . S
C1022 O1024 1.263 . S
O1023 Co1020 1.970 . S
O1023 C1022 1.258 . S
O1024 Co1021 1.966 . S
O1024 C1022 1.263 . S
C1025 O1026 1.235 . S
C1025 O1052 1.289 . S
O1026 C1025 1.235 . S
C1027 C1029 1.400 . S
C1027 N1030 1.351 . S
C1027 C1032 1.501 . S
C1028 C1029 1.387 . S
C1028 N1031 1.341 . S
C1029 C1027 1.400 . S
C1029 C1028 1.387 . S
N1030 Co1021 2.022 . S
N1030 C1027 1.351 . S
N1030 N1031 1.365 . S
N1031 C1028 1.341 . S
N1031 N1030 1.365 . S
N1031 H1051 0.862 . S
C1032 C1027 1.501 . S
C1032 H1033 0.961 . S
C1032 H1034 0.961 . S
C1032 H1035 0.960 . S
H1033 C1032 0.961 . S
H1034 C1032 0.961 . S
H1035 C1032 0.960 . S
C1036 N1037 1.342 . S
C1036 C1040 1.401 . S
C1036 C1041 1.499 . S
N1037 Co1020 1.989 . S
N1037 C1036 1.342 . S
N1037 N1038 1.388 . S
N1038 Co1021 1.993 . S
N1038 N1037 1.388 . S
N1038 C1039 1.346 . S
C1039 N1038 1.346 . S
C1039 C1040 1.396 . S
C1039 C1049 1.510 . S
C1040 C1036 1.401 . S
C1040 C1039 1.396 . S
C1041 C1036 1.499 . S
C1041 H1042 0.959 . S
C1041 H1043 0.960 . S
C1041 H1044 0.961 . S
H1042 C1041 0.959 . S
H1043 C1041 0.960 . S
H1044 C1041 0.961 . S
O1045 Co1020 1.967 . S
O1045 C1053 1.258 . S
O1046 Co1021 1.941 . S
O1046 C1053 1.266 . S
H1047 C1049 0.959 . S
H1048 C1049 0.961 . S
C1049 C1039 1.510 . S
C1049 H1047 0.959 . S
C1049 H1048 0.961 . S
C1049 H1050 0.960 . S
H1050 C1049 0.960 . S
H1051 N1031 0.862 . S
O1052 Co1020 1.920 . S
O1052 C1025 1.289 . S
C1053 O1045 1.258 . S
C1053 O1046 1.266 . S
Co1054 O1057 1.970 . S
Co1054 N1071 1.989 . S
Co1054 O1079 1.967 . S
Co1054 O1086 1.920 . S
Co1055 O1058 1.966 . S
Co1055 N1064 2.022 . S
Co1055 N1072 1.993 . S
Co1055 O1080 1.941 . S
C1056 O1057 1.258 . S
C1056 O1058 1.263 . S
O1057 Co1054 1.970 . S
O1057 C1056 1.258 . S
O1058 Co1055 1.966 . S
O1058 C1056 1.263 . S
C1059 O1060 1.235 . S
C1059 O1086 1.289 . S
O1060 C1059 1.235 . S
C1061 C1063 1.400 . S
C1061 N1064 1.351 . S
C1061 C1066 1.501 . S
C1062 C1063 1.387 . S
C1062 N1065 1.341 . S
C1063 C1061 1.400 . S
C1063 C1062 1.387 . S
N1064 Co1055 2.022 . S
N1064 C1061 1.351 . S
N1064 N1065 1.365 . S
N1065 C1062 1.341 . S
N1065 N1064 1.365 . S
N1065 H1085 0.862 . S
C1066 C1061 1.501 . S
C1066 H1067 0.961 . S
C1066 H1068 0.961 . S
C1066 H1069 0.960 . S
H1067 C1066 0.961 . S
H1068 C1066 0.961 . S
H1069 C1066 0.960 . S
C1070 N1071 1.342 . S
C1070 C1074 1.401 . S
C1070 C1075 1.499 . S
N1071 Co1054 1.989 . S
N1071 C1070 1.342 . S
N1071 N1072 1.388 . S
N1072 Co1055 1.993 . S
N1072 N1071 1.388 . S
N1072 C1073 1.346 . S
C1073 N1072 1.346 . S
C1073 C1074 1.396 . S
C1073 C1083 1.510 . S
C1074 C1070 1.401 . S
C1074 C1073 1.396 . S
C1075 C1070 1.499 . S
C1075 H1076 0.959 . S
C1075 H1077 0.960 . S
C1075 H1078 0.961 . S
H1076 C1075 0.959 . S
H1077 C1075 0.960 . S
H1078 C1075 0.961 . S
O1079 Co1054 1.967 . S
O1079 C1087 1.258 . S
O1080 Co1055 1.941 . S
O1080 C1087 1.266 . S
H1081 C1083 0.959 . S
H1082 C1083 0.961 . S
C1083 C1073 1.510 . S
C1083 H1081 0.959 . S
C1083 H1082 0.961 . S
C1083 H1084 0.960 . S
H1084 C1083 0.960 . S
H1085 N1065 0.862 . S
O1086 Co1054 1.920 . S
O1086 C1059 1.289 . S
C1087 O1079 1.258 . S
C1087 O1080 1.266 . S
C1088 C1089 1.369 . S
C1088 C1090 1.419 . S
C1088 H1092 0.930 . S
C1089 C1088 1.369 . S
C1089 C1098 1.429 . S
C1090 C1088 1.419 . S
C1090 C1091 1.363 . S
C1090 H1093 0.929 . S
C1091 C1090 1.363 . S
C1091 C1097 1.428 . S
H1092 C1088 0.930 . S
H1093 C1090 0.929 . S
S1094 N1095 1.613 . S
S1094 N1096 1.610 . S
N1095 S1094 1.613 . S
N1095 C1098 1.350 . S
N1096 S1094 1.610 . S
N1096 C1097 1.351 . S
C1097 C1091 1.428 . S
C1097 N1096 1.351 . S
C1097 C1098 1.434 . S
C1098 C1089 1.429 . S
C1098 N1095 1.350 . S
C1098 C1097 1.434 . S
C1099 C1100 1.369 . S
C1099 C1101 1.419 . S
C1099 H1103 0.930 . S
C1100 C1099 1.369 . S
C1100 C1109 1.429 1_455 S
C1101 C1099 1.419 . S
C1101 C1102 1.363 1_455 S
C1101 H1104 0.929 . S
C1102 C1101 1.363 1_655 S
C1102 C1108 1.428 . S
H1103 C1099 0.930 . S
H1104 C1101 0.929 . S
S1105 N1106 1.613 . S
S1105 N1107 1.610 . S
N1106 S1105 1.613 . S
N1106 C1109 1.350 . S
N1107 S1105 1.610 . S
N1107 C1108 1.351 . S
C1108 C1102 1.428 . S
C1108 N1107 1.351 . S
C1108 C1109 1.434 . S
C1109 C1100 1.429 1_655 S
C1109 N1106 1.350 . S
C1109 C1108 1.434 . S
C1110 C1111 1.369 . S
C1110 C1112 1.419 1_455 S
C1110 H1114 0.930 . S
C1111 C1110 1.369 . S
C1111 C1120 1.429 . S
C1112 C1110 1.419 1_655 S
C1112 C1113 1.363 . S
C1112 H1115 0.929 . S
C1113 C1112 1.363 . S
C1113 C1119 1.428 . S
H1114 C1110 0.930 . S
H1115 C1112 0.929 . S
S1116 N1117 1.613 1_655 S
S1116 N1118 1.610 . S
N1117 S1116 1.613 1_455 S
N1117 C1120 1.350 . S
N1118 S1116 1.610 . S
N1118 C1119 1.351 . S
C1119 C1113 1.428 . S
C1119 N1118 1.351 . S
C1119 C1120 1.434 1_655 S
C1120 C1111 1.429 . S
C1120 N1117 1.350 . S
C1120 C1119 1.434 1_455 S
C1121 C1122 1.369 . S
C1121 C1123 1.419 . S
C1121 H1125 0.930 . S
C1122 C1121 1.369 . S
C1122 C1131 1.429 . S
C1123 C1121 1.419 . S
C1123 C1124 1.363 . S
C1123 H1126 0.929 . S
C1124 C1123 1.363 . S
C1124 C1130 1.428 . S
H1125 C1121 0.930 . S
H1126 C1123 0.929 . S
S1127 N1128 1.613 . S
S1127 N1129 1.610 . S
N1128 S1127 1.613 . S
N1128 C1131 1.350 1_554 S
N1129 S1127 1.610 . S
N1129 C1130 1.351 1_554 S
C1130 C1124 1.428 . S
C1130 N1129 1.351 1_556 S
C1130 C1131 1.434 . S
C1131 C1122 1.429 . S
C1131 N1128 1.350 1_556 S
C1131 C1130 1.434 . S
C1132 C1133 1.369 . S
C1132 C1134 1.419 . S
C1132 H1136 0.930 . S
C1133 C1132 1.369 . S
C1133 C1142 1.429 . S
C1134 C1132 1.419 . S
C1134 C1135 1.363 . S
C1134 H1137 0.929 . S
C1135 C1134 1.363 . S
C1135 C1141 1.428 . S
H1136 C1132 0.930 . S
H1137 C1134 0.929 . S
S1138 N1139 1.613 . S
S1138 N1140 1.610 . S
N1139 S1138 1.613 . S
N1139 C1142 1.350 . S
N1140 S1138 1.610 . S
N1140 C1141 1.351 . S
C1141 C1135 1.428 . S
C1141 N1140 1.351 . S
C1141 C1142 1.434 . S
C1142 C1133 1.429 . S
C1142 N1139 1.350 . S
C1142 C1141 1.434 . S
C1143 C1144 1.369 . S
C1143 C1145 1.419 . S
C1143 H1147 0.930 . S
C1144 C1143 1.369 . S
C1144 C1153 1.429 . S
C1145 C1143 1.419 . S
C1145 C1146 1.363 . S
C1145 H1148 0.929 . S
C1146 C1145 1.363 . S
C1146 C1152 1.428 . S
H1147 C1143 0.930 . S
H1148 C1145 0.929 . S
S1149 N1150 1.613 . S
S1149 N1151 1.610 . S
N1150 S1149 1.613 . S
N1150 C1153 1.350 . S
N1151 S1149 1.610 . S
N1151 C1152 1.351 . S
C1152 C1146 1.428 . S
C1152 N1151 1.351 . S
C1152 C1153 1.434 . S
C1153 C1144 1.429 . S
C1153 N1150 1.350 . S
C1153 C1152 1.434 . S
C1154 C1155 1.369 . S
C1154 C1156 1.419 1_455 S
C1154 H1158 0.930 . S
C1155 C1154 1.369 . S
C1155 C1164 1.429 . S
C1156 C1154 1.419 1_655 S
C1156 C1157 1.363 . S
C1156 H1159 0.929 . S
C1157 C1156 1.363 . S
C1157 C1163 1.428 . S
H1158 C1154 0.930 . S
H1159 C1156 0.929 . S
S1160 N1161 1.613 1_655 S
S1160 N1162 1.610 . S
N1161 S1160 1.613 1_455 S
N1161 C1164 1.350 . S
N1162 S1160 1.610 . S
N1162 C1163 1.351 . S
C1163 C1157 1.428 . S
C1163 N1162 1.351 . S
C1163 C1164 1.434 1_655 S
C1164 C1155 1.429 . S
C1164 N1161 1.350 . S
C1164 C1163 1.434 1_455 S
C1165 C1166 1.369 . S
C1165 C1167 1.419 . S
C1165 H1169 0.930 . S
C1166 C1165 1.369 . S
C1166 C1175 1.429 1_455 S
C1167 C1165 1.419 . S
C1167 C1168 1.363 1_455 S
C1167 H1170 0.929 . S
C1168 C1167 1.363 1_655 S
C1168 C1174 1.428 . S
H1169 C1165 0.930 . S
H1170 C1167 0.929 . S
S1171 N1172 1.613 1_556 S
S1171 N1173 1.594 1_556 S
N1172 S1171 1.613 1_554 S
N1172 C1175 1.350 . S
N1173 S1171 1.594 1_554 S
N1173 C1174 1.377 . S
C1174 C1168 1.428 . S
C1174 N1173 1.377 . S
C1174 C1175 1.434 . S
C1175 C1166 1.429 1_655 S
C1175 N1172 1.350 . S
C1175 C1174 1.434 . S
C1176 C1177 1.369 . S
C1176 C1178 1.419 . S
C1176 H1180 0.930 . S
C1177 C1176 1.369 . S
C1177 C1186 1.429 . S
C1178 C1176 1.419 . S
C1178 C1179 1.363 . S
C1178 H1181 0.929 . S
C1179 C1178 1.363 . S
C1179 C1185 1.428 . S
H1180 C1176 0.930 . S
H1181 C1178 0.929 . S
S1182 N1183 1.613 . S
S1182 N1184 1.610 . S
N1183 S1182 1.613 . S
N1183 C1186 1.350 . S
N1184 S1182 1.610 . S
N1184 C1185 1.351 . S
C1185 C1179 1.428 . S
C1185 N1184 1.351 . S
C1185 C1186 1.434 . S
C1186 C1177 1.429 . S
C1186 N1183 1.350 . S
C1186 C1185 1.434 . S
C1187 C1188 1.369 . S
C1187 C1189 1.419 . S
C1187 H1191 0.930 . S
C1188 C1187 1.369 . S
C1188 C1197 1.429 1_455 S
C1189 C1187 1.419 . S
C1189 C1190 1.363 1_455 S
C1189 H1192 0.929 . S
C1190 C1189 1.363 1_655 S
C1190 C1196 1.428 . S
H1191 C1187 0.930 . S
H1192 C1189 0.929 . S
S1193 N1194 1.613 . S
S1193 N1195 1.610 . S
N1194 S1193 1.613 . S
N1194 C1197 1.350 . S
N1195 S1193 1.610 . S
N1195 C1196 1.351 . S
C1196 C1190 1.428 . S
C1196 N1195 1.351 . S
C1196 C1197 1.434 . S
C1197 C1188 1.429 1_655 S
C1197 N1194 1.350 . S
C1197 C1196 1.434 . S
C1198 C1199 1.369 . S
C1198 C1200 1.419 1_655 S
C1198 H1202 0.930 . S
C1199 C1198 1.369 . S
C1199 C1208 1.429 . S
C1200 C1198 1.419 1_455 S
C1200 C1201 1.363 . S
C1200 H1203 0.929 . S
C1201 C1200 1.363 . S
C1201 C1207 1.428 . S
H1202 C1198 0.930 . S
H1203 C1200 0.929 . S
S1204 N1205 1.613 1_455 S
S1204 N1206 1.610 . S
N1205 S1204 1.613 1_655 S
N1205 C1208 1.350 . S
N1206 S1204 1.610 . S
N1206 C1207 1.351 . S
C1207 C1201 1.428 . S
C1207 N1206 1.351 . S
C1207 C1208 1.434 1_455 S
C1208 C1199 1.429 . S
C1208 N1205 1.350 . S
C1208 C1207 1.434 1_655 S
C1209 C1210 1.369 . S
C1209 C1211 1.419 . S
C1209 H1213 0.930 1_554 S
C1210 C1209 1.369 . S
C1210 C1219 1.429 . S
C1211 C1209 1.419 . S
C1211 C1212 1.363 . S
C1211 H1214 0.929 1_554 S
C1212 C1211 1.363 . S
C1212 C1218 1.428 . S
H1213 C1209 0.930 1_556 S
H1214 C1211 0.929 1_556 S
S1215 N1216 1.613 . S
S1215 N1217 1.610 . S
N1216 S1215 1.613 . S
N1216 C1219 1.350 . S
N1217 S1215 1.610 . S
N1217 C1218 1.351 . S
C1218 C1212 1.428 . S
C1218 N1217 1.351 . S
C1218 C1219 1.434 . S
C1219 C1210 1.429 . S
C1219 N1216 1.350 . S
C1219 C1218 1.434 . S
C1220 C1221 1.369 . S
C1220 C1222 1.419 . S
C1220 H1224 0.930 . S
C1221 C1220 1.369 . S
C1221 C1230 1.429 . S
C1222 C1220 1.419 . S
C1222 C1223 1.363 . S
C1222 H1225 0.929 . S
C1223 C1222 1.363 . S
C1223 C1229 1.428 . S
H1224 C1220 0.930 . S
H1225 C1222 0.929 . S
S1226 N1227 1.613 . S
S1226 N1228 1.610 . S
N1227 S1226 1.613 . S
N1227 C1230 1.350 . S
N1228 S1226 1.610 . S
N1228 C1229 1.351 . S
C1229 C1223 1.428 . S
C1229 N1228 1.351 . S
C1229 C1230 1.434 . S
C1230 C1221 1.429 . S
C1230 N1227 1.350 . S
C1230 C1229 1.434 . S
C1231 C1232 1.369 . S
C1231 C1233 1.419 . S
C1231 H1235 0.930 . S
C1232 C1231 1.369 . S
C1232 C1241 1.429 . S
C1233 C1231 1.419 . S
C1233 C1234 1.363 . S
C1233 H1236 0.929 . S
C1234 C1233 1.363 . S
C1234 C1240 1.428 . S
H1235 C1231 0.930 . S
H1236 C1233 0.929 . S
S1237 N1238 1.613 . S
S1237 N1239 1.610 . S
N1238 S1237 1.613 . S
N1238 C1241 1.350 . S
N1239 S1237 1.610 . S
N1239 C1240 1.351 . S
C1240 C1234 1.428 . S
C1240 N1239 1.351 . S
C1240 C1241 1.434 . S
C1241 C1232 1.429 . S
C1241 N1238 1.350 . S
C1241 C1240 1.434 . S
C1242 C1243 1.369 . S
C1242 C1244 1.419 1_455 S
C1242 H1246 0.930 . S
C1243 C1242 1.369 . S
C1243 C1252 1.429 . S
C1244 C1242 1.419 1_655 S
C1244 C1245 1.363 . S
C1244 H1247 0.929 . S
C1245 C1244 1.363 . S
C1245 C1251 1.428 . S
H1246 C1242 0.930 . S
H1247 C1244 0.929 . S
S1248 N1249 1.613 1_655 S
S1248 N1250 1.610 . S
N1249 S1248 1.613 1_455 S
N1249 C1252 1.350 . S
N1250 S1248 1.610 . S
N1250 C1251 1.351 . S
C1251 C1245 1.428 . S
C1251 N1250 1.351 . S
C1251 C1252 1.434 1_655 S
C1252 C1243 1.429 . S
C1252 N1249 1.350 . S
C1252 C1251 1.434 1_455 S
C1253 C1254 1.369 . S
C1253 C1255 1.419 . S
C1253 H1257 0.930 . S
C1254 C1253 1.369 . S
C1254 C1263 1.429 1_455 S
C1255 C1253 1.419 . S
C1255 C1256 1.363 1_455 S
C1255 H1258 0.929 . S
C1256 C1255 1.363 1_655 S
C1256 C1262 1.428 . S
H1257 C1253 0.930 . S
H1258 C1255 0.929 . S
S1259 N1260 1.613 . S
S1259 N1261 1.610 . S
N1260 S1259 1.613 . S
N1260 C1263 1.350 . S
N1261 S1259 1.610 . S
N1261 C1262 1.351 . S
C1262 C1256 1.428 . S
C1262 N1261 1.351 . S
C1262 C1263 1.434 . S
C1263 C1254 1.429 1_655 S
C1263 N1260 1.350 . S
C1263 C1262 1.434 . S
C1264 C1265 1.369 . S
C1264 C1266 1.419 . S
C1264 H1268 0.930 . S
C1265 C1264 1.369 . S
C1265 C1274 1.429 . S
C1266 C1264 1.419 . S
C1266 C1267 1.363 . S
C1266 H1269 0.929 . S
C1267 C1266 1.363 . S
C1267 C1273 1.428 . S
H1268 C1264 0.930 . S
H1269 C1266 0.929 . S
S1270 N1271 1.613 . S
S1270 N1272 1.610 . S
N1271 S1270 1.613 . S
N1271 C1274 1.350 . S
N1272 S1270 1.610 . S
N1272 C1273 1.351 . S
C1273 C1267 1.428 . S
C1273 N1272 1.351 . S
C1273 C1274 1.434 . S
C1274 C1265 1.429 . S
C1274 N1271 1.350 . S
C1274 C1273 1.434 . S
C1275 C1276 1.369 . S
C1275 C1277 1.419 . S
C1275 H1279 0.930 . S
C1276 C1275 1.369 . S
C1276 C1285 1.429 . S
C1277 C1275 1.419 . S
C1277 C1278 1.363 . S
C1277 H1280 0.929 . S
C1278 C1277 1.363 . S
C1278 C1284 1.428 . S
H1279 C1275 0.930 . S
H1280 C1277 0.929 . S
S1281 N1282 1.613 . S
S1281 N1283 1.610 . S
N1282 S1281 1.613 . S
N1282 C1285 1.350 . S
N1283 S1281 1.610 . S
N1283 C1284 1.351 . S
C1284 C1278 1.428 . S
C1284 N1283 1.351 . S
C1284 C1285 1.434 . S
C1285 C1276 1.429 . S
C1285 N1282 1.350 . S
C1285 C1284 1.434 . S
C1286 C1287 1.369 . S
C1286 C1288 1.419 . S
C1286 H1290 0.930 . S
C1287 C1286 1.369 . S
C1287 C1296 1.429 . S
C1288 C1286 1.419 . S
C1288 C1289 1.363 . S
C1288 H1291 0.929 . S
C1289 C1288 1.363 . S
C1289 C1295 1.428 . S
H1290 C1286 0.930 . S
H1291 C1288 0.929 . S
S1292 N1293 1.613 . S
S1292 N1294 1.610 1_455 S
N1293 S1292 1.613 . S
N1293 C1296 1.350 . S
N1294 S1292 1.610 1_655 S
N1294 C1295 1.351 1_655 S
C1295 C1289 1.428 . S
C1295 N1294 1.351 1_455 S
C1295 C1296 1.434 . S
C1296 C1287 1.429 . S
C1296 N1293 1.350 . S
C1296 C1295 1.434 . S
C1297 C1298 1.369 . S
C1297 C1299 1.419 . S
C1297 H1301 0.930 . S
C1298 C1297 1.369 . S
C1298 C1307 1.429 . S
C1299 C1297 1.419 . S
C1299 C1300 1.363 . S
C1299 H1302 0.929 . S
C1300 C1299 1.363 . S
C1300 C1306 1.428 . S
H1301 C1297 0.930 . S
H1302 C1299 0.929 . S
S1303 N1304 1.613 . S
S1303 N1305 1.610 . S
N1304 S1303 1.613 . S
N1304 C1307 1.350 . S
N1305 S1303 1.610 . S
N1305 C1306 1.351 . S
C1306 C1300 1.428 . S
C1306 N1305 1.351 . S
C1306 C1307 1.434 . S
C1307 C1298 1.429 . S
C1307 N1304 1.350 . S
C1307 C1306 1.434 . S
C1308 C1309 1.369 . S
C1308 C1310 1.419 . S
C1308 H1312 0.930 . S
C1309 C1308 1.369 . S
C1309 C1318 1.429 . S
C1310 C1308 1.419 . S
C1310 C1311 1.363 . S
C1310 H1313 0.929 . S
C1311 C1310 1.363 . S
C1311 C1317 1.428 . S
H1312 C1308 0.930 . S
H1313 C1310 0.929 . S
S1314 N1315 1.613 . S
S1314 N1316 1.610 . S
N1315 S1314 1.613 . S
N1315 C1318 1.350 . S
N1316 S1314 1.610 . S
N1316 C1317 1.351 . S
C1317 C1311 1.428 . S
C1317 N1316 1.351 . S
C1317 C1318 1.434 . S
C1318 C1309 1.429 . S
C1318 N1315 1.350 . S
C1318 C1317 1.434 . S
C1319 C1320 1.369 . S
C1319 C1321 1.419 . S
C1319 H1323 0.930 . S
C1320 C1319 1.369 . S
C1320 C1329 1.429 . S
C1321 C1319 1.419 . S
C1321 C1322 1.363 . S
C1321 H1324 0.929 . S
C1322 C1321 1.363 . S
C1322 C1328 1.428 . S
H1323 C1319 0.930 . S
H1324 C1321 0.929 . S
S1325 N1326 1.613 . S
S1325 N1327 1.610 . S
N1326 S1325 1.613 . S
N1326 C1329 1.350 . S
N1327 S1325 1.610 . S
N1327 C1328 1.351 . S
C1328 C1322 1.428 . S
C1328 N1327 1.351 . S
C1328 C1329 1.434 . S
C1329 C1320 1.429 . S
C1329 N1326 1.350 . S
C1329 C1328 1.434 . S
C1330 C1331 1.369 . S
C1330 C1332 1.419 . S
C1330 H1334 0.930 . S
C1331 C1330 1.369 . S
C1331 C1340 1.429 . S
C1332 C1330 1.419 . S
C1332 C1333 1.363 . S
C1332 H1335 0.929 . S
C1333 C1332 1.363 . S
C1333 C1339 1.428 . S
H1334 C1330 0.930 . S
H1335 C1332 0.929 . S
S1336 N1337 1.613 . S
S1336 N1338 1.610 1_655 S
N1337 S1336 1.613 . S
N1337 C1340 1.350 1_655 S
N1338 S1336 1.610 1_455 S
N1338 C1339 1.351 . S
C1339 C1333 1.428 . S
C1339 N1338 1.351 . S
C1339 C1340 1.434 . S
C1340 C1331 1.429 . S
C1340 N1337 1.350 1_455 S
C1340 C1339 1.434 . S
C1341 C1342 1.369 . S
C1341 C1343 1.419 . S
C1341 H1345 0.930 . S
C1342 C1341 1.369 . S
C1342 C1351 1.429 . S
C1343 C1341 1.419 . S
C1343 C1344 1.363 . S
C1343 H1346 0.929 . S
C1344 C1343 1.363 . S
C1344 C1350 1.428 . S
H1345 C1341 0.930 . S
H1346 C1343 0.929 . S
S1347 N1348 1.613 . S
S1347 N1349 1.610 . S
N1348 S1347 1.613 . S
N1348 C1351 1.350 . S
N1349 S1347 1.610 . S
N1349 C1350 1.351 . S
C1350 C1344 1.428 . S
C1350 N1349 1.351 . S
C1350 C1351 1.434 . S
C1351 C1342 1.429 . S
C1351 N1348 1.350 . S
C1351 C1350 1.434 . S
C1352 C1353 1.369 . S
C1352 C1354 1.419 . S
C1352 H1356 0.930 . S
C1353 C1352 1.369 . S
C1353 C1362 1.429 . S
C1354 C1352 1.419 . S
C1354 C1355 1.363 . S
C1354 H1357 0.929 . S
C1355 C1354 1.363 . S
C1355 C1361 1.428 . S
H1356 C1352 0.930 . S
H1357 C1354 0.929 . S
S1358 N1359 1.613 . S
S1358 N1360 1.610 . S
N1359 S1358 1.613 . S
N1359 C1362 1.350 . S
N1360 S1358 1.610 . S
N1360 C1361 1.351 . S
C1361 C1355 1.428 . S
C1361 N1360 1.351 . S
C1361 C1362 1.434 . S
C1362 C1353 1.429 . S
C1362 N1359 1.350 . S
C1362 C1361 1.434 . S
C1363 C1364 1.369 . S
C1363 C1365 1.419 . S
C1363 H1367 0.930 . S
C1364 C1363 1.369 . S
C1364 C1373 1.429 . S
C1365 C1363 1.419 . S
C1365 C1366 1.363 . S
C1365 H1368 0.929 . S
C1366 C1365 1.363 . S
C1366 C1372 1.428 . S
H1367 C1363 0.930 . S
H1368 C1365 0.929 . S
S1369 N1370 1.613 . S
S1369 N1371 1.610 . S
N1370 S1369 1.613 . S
N1370 C1373 1.350 . S
N1371 S1369 1.610 . S
N1371 C1372 1.351 . S
C1372 C1366 1.428 . S
C1372 N1371 1.351 . S
C1372 C1373 1.434 . S
C1373 C1364 1.429 . S
C1373 N1370 1.350 . S
C1373 C1372 1.434 . S
C1374 C1375 1.369 . S
C1374 C1376 1.419 . S
C1374 H1378 0.930 . S
C1375 C1374 1.369 . S
C1375 C1384 1.429 . S
C1376 C1374 1.419 . S
C1376 C1377 1.363 . S
C1376 H1379 0.929 . S
C1377 C1376 1.363 . S
C1377 C1383 1.428 . S
H1378 C1374 0.930 . S
H1379 C1376 0.929 . S
S1380 N1381 1.613 1_455 S
S1380 N1382 1.610 . S
N1381 S1380 1.613 1_655 S
N1381 C1384 1.350 . S
N1382 S1380 1.610 . S
N1382 C1383 1.351 1_455 S
C1383 C1377 1.428 . S
C1383 N1382 1.351 1_655 S
C1383 C1384 1.434 . S
C1384 C1375 1.429 . S
C1384 N1381 1.350 . S
C1384 C1383 1.434 . S
C1385 C1386 1.369 . S
C1385 C1387 1.419 . S
C1385 H1389 0.930 . S
C1386 C1385 1.369 . S
C1386 C1395 1.429 . S
C1387 C1385 1.419 . S
C1387 C1388 1.363 . S
C1387 H1390 0.929 . S
C1388 C1387 1.363 . S
C1388 C1394 1.428 . S
H1389 C1385 0.930 . S
H1390 C1387 0.929 . S
S1391 N1392 1.613 . S
S1391 N1393 1.610 . S
N1392 S1391 1.613 . S
N1392 C1395 1.350 . S
N1393 S1391 1.610 . S
N1393 C1394 1.351 . S
C1394 C1388 1.428 . S
C1394 N1393 1.351 . S
C1394 C1395 1.434 . S
C1395 C1386 1.429 . S
C1395 N1392 1.350 . S
C1395 C1394 1.434 . S
C1396 C1397 1.369 . S
C1396 C1398 1.419 . S
C1396 H1400 0.930 . S
C1397 C1396 1.369 . S
C1397 C1406 1.429 . S
C1398 C1396 1.419 . S
C1398 C1399 1.363 . S
C1398 H1401 0.929 . S
C1399 C1398 1.363 . S
C1399 C1405 1.428 . S
H1400 C1396 0.930 . S
H1401 C1398 0.929 . S
S1402 N1403 1.613 . S
S1402 N1404 1.610 . S
N1403 S1402 1.613 . S
N1403 C1406 1.350 . S
N1404 S1402 1.610 . S
N1404 C1405 1.351 . S
C1405 C1399 1.428 . S
C1405 N1404 1.351 . S
C1405 C1406 1.434 . S
C1406 C1397 1.429 . S
C1406 N1403 1.350 . S
C1406 C1405 1.434 . S
C1407 C1408 1.369 . S
C1407 C1409 1.419 . S
C1407 H1411 0.930 . S
C1408 C1407 1.369 . S
C1408 C1417 1.429 . S
C1409 C1407 1.419 . S
C1409 C1410 1.363 . S
C1409 H1412 0.929 . S
C1410 C1409 1.363 . S
C1410 C1416 1.428 . S
H1411 C1407 0.930 . S
H1412 C1409 0.929 . S
S1413 N1414 1.613 . S
S1413 N1415 1.610 . S
N1414 S1413 1.613 . S
N1414 C1417 1.350 . S
N1415 S1413 1.610 . S
N1415 C1416 1.351 . S
C1416 C1410 1.428 . S
C1416 N1415 1.351 . S
C1416 C1417 1.434 . S
C1417 C1408 1.429 . S
C1417 N1414 1.350 . S
C1417 C1416 1.434 . S
C1418 C1419 1.369 . S
C1418 C1420 1.419 . S
C1418 H1422 0.930 . S
C1419 C1418 1.369 . S
C1419 C1428 1.429 . S
C1420 C1418 1.419 . S
C1420 C1421 1.363 . S
C1420 H1423 0.929 1_655 S
C1421 C1420 1.363 . S
C1421 C1427 1.428 . S
H1422 C1418 0.930 . S
H1423 C1420 0.929 1_455 S
S1424 N1425 1.613 . S
S1424 N1426 1.610 . S
N1425 S1424 1.613 . S
N1425 C1428 1.350 . S
N1426 S1424 1.610 . S
N1426 C1427 1.351 . S
C1427 C1421 1.428 . S
C1427 N1426 1.351 . S
C1427 C1428 1.434 . S
C1428 C1419 1.429 . S
C1428 N1425 1.350 . S
C1428 C1427 1.434 . S
C1429 C1430 1.369 . S
C1429 C1431 1.419 . S
C1429 H1433 0.930 . S
C1430 C1429 1.369 . S
C1430 C1439 1.429 . S
C1431 C1429 1.419 . S
C1431 C1432 1.363 . S
C1431 H1434 0.929 . S
C1432 C1431 1.363 . S
C1432 C1438 1.428 . S
H1433 C1429 0.930 . S
H1434 C1431 0.929 . S
S1435 N1436 1.613 . S
S1435 N1437 1.610 . S
N1436 S1435 1.613 . S
N1436 C1439 1.350 . S
N1437 S1435 1.610 . S
N1437 C1438 1.351 . S
C1438 C1432 1.428 . S
C1438 N1437 1.351 . S
C1438 C1439 1.434 . S
C1439 C1430 1.429 . S
C1439 N1436 1.350 . S
C1439 C1438 1.434 . S
C1440 C1441 1.369 . S
C1440 C1442 1.419 . S
C1440 H1444 0.930 . S
C1441 C1440 1.369 . S
C1441 C1450 1.429 . S
C1442 C1440 1.419 . S
C1442 C1443 1.363 . S
C1442 H1445 0.929 . S
C1443 C1442 1.363 . S
C1443 C1449 1.428 . S
H1444 C1440 0.930 . S
H1445 C1442 0.929 . S
S1446 N1447 1.613 . S
S1446 N1448 1.610 . S
N1447 S1446 1.613 . S
N1447 C1450 1.350 . S
N1448 S1446 1.610 . S
N1448 C1449 1.351 . S
C1449 C1443 1.428 . S
C1449 N1448 1.351 . S
C1449 C1450 1.434 . S
C1450 C1441 1.429 . S
C1450 N1447 1.350 . S
C1450 C1449 1.434 . S
C1451 C1452 1.369 . S
C1451 C1453 1.419 . S
C1451 H1455 0.930 . S
C1452 C1451 1.369 . S
C1452 C1461 1.429 . S
C1453 C1451 1.419 . S
C1453 C1454 1.363 . S
C1453 H1456 0.929 . S
C1454 C1453 1.363 . S
C1454 C1460 1.428 . S
H1455 C1451 0.930 . S
H1456 C1453 0.929 . S
S1457 N1458 1.613 . S
S1457 N1459 1.610 . S
N1458 S1457 1.613 . S
N1458 C1461 1.350 . S
N1459 S1457 1.610 . S
N1459 C1460 1.351 . S
C1460 C1454 1.428 . S
C1460 N1459 1.351 . S
C1460 C1461 1.434 . S
C1461 C1452 1.429 . S
C1461 N1458 1.350 . S
C1461 C1460 1.434 . S
C1462 C1463 1.369 . S
C1462 C1464 1.419 . S
C1462 H1466 0.930 . S
C1463 C1462 1.369 . S
C1463 C1472 1.429 . S
C1464 C1462 1.419 . S
C1464 C1465 1.363 . S
C1464 H1467 0.929 . S
C1465 C1464 1.363 . S
C1465 C1471 1.428 . S
H1466 C1462 0.930 . S
H1467 C1464 0.929 . S
S1468 N1469 1.613 . S
S1468 N1470 1.610 . S
N1469 S1468 1.613 . S
N1469 C1472 1.350 . S
N1470 S1468 1.610 . S
N1470 C1471 1.351 . S
C1471 C1465 1.428 . S
C1471 N1470 1.351 . S
C1471 C1472 1.434 . S
C1472 C1463 1.429 . S
C1472 N1469 1.350 . S
C1472 C1471 1.434 . S
C1473 C1474 1.369 . S
C1473 C1475 1.419 . S
C1473 H1477 0.930 . S
C1474 C1473 1.369 . S
C1474 C1483 1.429 . S
C1475 C1473 1.419 . S
C1475 C1476 1.363 . S
C1475 H1478 0.929 . S
C1476 C1475 1.363 . S
C1476 C1482 1.428 . S
H1477 C1473 0.930 . S
H1478 C1475 0.929 . S
S1479 N1480 1.613 . S
S1479 N1481 1.610 . S
N1480 S1479 1.613 . S
N1480 C1483 1.350 . S
N1481 S1479 1.610 . S
N1481 C1482 1.351 . S
C1482 C1476 1.428 . S
C1482 N1481 1.351 . S
C1482 C1483 1.434 . S
C1483 C1474 1.429 . S
C1483 N1480 1.350 . S
C1483 C1482 1.434 . S
C1484 C1485 1.369 . S
C1484 C1486 1.419 . S
C1484 H1488 0.930 . S
C1485 C1484 1.369 . S
C1485 C1494 1.429 . S
C1486 C1484 1.419 . S
C1486 C1487 1.363 . S
C1486 H1489 0.929 1_655 S
C1487 C1486 1.363 . S
C1487 C1493 1.428 . S
H1488 C1484 0.930 . S
H1489 C1486 0.929 1_455 S
S1490 N1491 1.613 . S
S1490 N1492 1.610 . S
N1491 S1490 1.613 . S
N1491 C1494 1.350 . S
N1492 S1490 1.610 . S
N1492 C1493 1.351 . S
C1493 C1487 1.428 . S
C1493 N1492 1.351 . S
C1493 C1494 1.434 . S
C1494 C1485 1.429 . S
C1494 N1491 1.350 . S
C1494 C1493 1.434 . S
C1495 C1496 1.369 . S
C1495 C1497 1.419 . S
C1495 H1499 0.930 . S
C1496 C1495 1.369 . S
C1496 C1505 1.429 . S
C1497 C1495 1.419 . S
C1497 C1498 1.363 . S
C1497 H1500 0.929 . S
C1498 C1497 1.363 . S
C1498 C1504 1.428 . S
H1499 C1495 0.930 . S
H1500 C1497 0.929 . S
S1501 N1502 1.613 . S
S1501 N1503 1.610 . S
N1502 S1501 1.613 . S
N1502 C1505 1.350 . S
N1503 S1501 1.610 . S
N1503 C1504 1.351 . S
C1504 C1498 1.428 . S
C1504 N1503 1.351 . S
C1504 C1505 1.434 . S
C1505 C1496 1.429 . S
C1505 N1502 1.350 . S
C1505 C1504 1.434 . S
C1506 C1507 1.369 . S
C1506 C1508 1.419 . S
C1506 H1510 0.930 . S
C1507 C1506 1.369 . S
C1507 C1516 1.429 . S
C1508 C1506 1.419 . S
C1508 C1509 1.363 . S
C1508 H1511 0.929 . S
C1509 C1508 1.363 . S
C1509 C1515 1.428 . S
H1510 C1506 0.930 . S
H1511 C1508 0.929 . S
S1512 N1513 1.613 . S
S1512 N1514 1.610 . S
N1513 S1512 1.613 . S
N1513 C1516 1.350 . S
N1514 S1512 1.610 . S
N1514 C1515 1.351 . S
C1515 C1509 1.428 . S
C1515 N1514 1.351 . S
C1515 C1516 1.434 . S
C1516 C1507 1.429 . S
C1516 N1513 1.350 . S
C1516 C1515 1.434 . S
C1517 C1518 1.369 . S
C1517 C1519 1.419 . S
C1517 H1521 0.930 . S
C1518 C1517 1.369 . S
C1518 C1527 1.429 . S
C1519 C1517 1.419 . S
C1519 C1520 1.363 . S
C1519 H1522 0.929 . S
C1520 C1519 1.363 . S
C1520 C1526 1.428 . S
H1521 C1517 0.930 . S
H1522 C1519 0.929 . S
S1523 N1524 1.613 . S
S1523 N1525 1.610 . S
N1524 S1523 1.613 . S
N1524 C1527 1.350 . S
N1525 S1523 1.610 . S
N1525 C1526 1.351 . S
C1526 C1520 1.428 . S
C1526 N1525 1.351 . S
C1526 C1527 1.434 . S
C1527 C1518 1.429 . S
C1527 N1524 1.350 . S
C1527 C1526 1.434 . S
C1528 C1529 1.369 . S
C1528 C1530 1.419 . S
C1528 H1532 0.930 . S
C1529 C1528 1.369 . S
C1529 C1538 1.429 . S
C1530 C1528 1.419 . S
C1530 C1531 1.363 . S
C1530 H1533 0.929 . S
C1531 C1530 1.363 . S
C1531 C1537 1.428 . S
H1532 C1528 0.930 . S
H1533 C1530 0.929 . S
S1534 N1535 1.613 . S
S1534 N1536 1.610 . S
N1535 S1534 1.613 . S
N1535 C1538 1.350 . S
N1536 S1534 1.610 . S
N1536 C1537 1.351 . S
C1537 C1531 1.428 . S
C1537 N1536 1.351 . S
C1537 C1538 1.434 . S
C1538 C1529 1.429 . S
C1538 N1535 1.350 . S
C1538 C1537 1.434 . S
C1539 C1540 1.369 . S
C1539 C1541 1.419 . S
C1539 H1543 0.930 . S
C1540 C1539 1.369 . S
C1540 C1549 1.429 . S
C1541 C1539 1.419 . S
C1541 C1542 1.363 . S
C1541 H1544 0.929 . S
C1542 C1541 1.363 . S
C1542 C1548 1.428 . S
H1543 C1539 0.930 . S
H1544 C1541 0.929 . S
S1545 N1546 1.613 . S
S1545 N1547 1.610 . S
N1546 S1545 1.613 . S
N1546 C1549 1.350 . S
N1547 S1545 1.610 . S
N1547 C1548 1.351 . S
C1548 C1542 1.428 . S
C1548 N1547 1.351 . S
C1548 C1549 1.434 . S
C1549 C1540 1.429 . S
C1549 N1546 1.350 . S
C1549 C1548 1.434 . S
C1550 C1551 1.369 . S
C1550 C1552 1.419 . S
C1550 H1554 0.930 . S
C1551 C1550 1.369 . S
C1551 C1560 1.429 . S
C1552 C1550 1.419 . S
C1552 C1553 1.363 . S
C1552 H1555 0.929 . S
C1553 C1552 1.363 . S
C1553 C1559 1.428 . S
H1554 C1550 0.930 . S
H1555 C1552 0.929 . S
S1556 N1557 1.613 . S
S1556 N1558 1.610 . S
N1557 S1556 1.613 . S
N1557 C1560 1.350 . S
N1558 S1556 1.610 . S
N1558 C1559 1.351 . S
C1559 C1553 1.428 . S
C1559 N1558 1.351 . S
C1559 C1560 1.434 . S
C1560 C1551 1.429 . S
C1560 N1557 1.350 . S
C1560 C1559 1.434 . S
C1561 C1562 1.369 . S
C1561 C1563 1.419 . S
C1561 H1565 0.930 . S
C1562 C1561 1.369 . S
C1562 C1571 1.429 . S
C1563 C1561 1.419 . S
C1563 C1564 1.363 . S
C1563 H1566 0.929 . S
C1564 C1563 1.363 . S
C1564 C1570 1.428 . S
H1565 C1561 0.930 . S
H1566 C1563 0.929 . S
S1567 N1568 1.613 . S
S1567 N1569 1.610 . S
N1568 S1567 1.613 . S
N1568 C1571 1.350 . S
N1569 S1567 1.610 . S
N1569 C1570 1.351 . S
C1570 C1564 1.428 . S
C1570 N1569 1.351 . S
C1570 C1571 1.434 . S
C1571 C1562 1.429 . S
C1571 N1568 1.350 . S
C1571 C1570 1.434 . S
C1572 C1573 1.369 . S
C1572 C1574 1.419 . S
C1572 H1576 0.930 . S
C1573 C1572 1.369 . S
C1573 C1582 1.429 . S
C1574 C1572 1.419 . S
C1574 C1575 1.363 . S
C1574 H1577 0.929 . S
C1575 C1574 1.363 . S
C1575 C1581 1.428 . S
H1576 C1572 0.930 . S
H1577 C1574 0.929 . S
S1578 N1579 1.613 . S
S1578 N1580 1.610 . S
N1579 S1578 1.613 . S
N1579 C1582 1.350 . S
N1580 S1578 1.610 . S
N1580 C1581 1.351 . S
C1581 C1575 1.428 . S
C1581 N1580 1.351 . S
C1581 C1582 1.434 . S
C1582 C1573 1.429 . S
C1582 N1579 1.350 . S
C1582 C1581 1.434 . S
C1583 C1584 1.369 . S
C1583 C1585 1.419 . S
C1583 H1587 0.930 . S
C1584 C1583 1.369 . S
C1584 C1593 1.429 . S
C1585 C1583 1.419 . S
C1585 C1586 1.363 . S
C1585 H1588 0.929 . S
C1586 C1585 1.363 . S
C1586 C1592 1.428 . S
H1587 C1583 0.930 . S
H1588 C1585 0.929 . S
S1589 N1590 1.613 . S
S1589 N1591 1.610 . S
N1590 S1589 1.613 . S
N1590 C1593 1.350 . S
N1591 S1589 1.610 . S
N1591 C1592 1.351 . S
C1592 C1586 1.428 . S
C1592 N1591 1.351 . S
C1592 C1593 1.434 . S
C1593 C1584 1.429 . S
C1593 N1590 1.350 . S
C1593 C1592 1.434 . S
C1594 C1595 1.369 . S
C1594 C1596 1.419 . S
C1594 H1598 0.930 . S
C1595 C1594 1.369 . S
C1595 C1604 1.429 . S
C1596 C1594 1.419 . S
C1596 C1597 1.363 . S
C1596 H1599 0.929 . S
C1597 C1596 1.363 . S
C1597 C1603 1.428 . S
H1598 C1594 0.930 . S
H1599 C1596 0.929 . S
S1600 N1601 1.613 . S
S1600 N1602 1.610 . S
N1601 S1600 1.613 . S
N1601 C1604 1.350 . S
N1602 S1600 1.610 . S
N1602 C1603 1.351 . S
C1603 C1597 1.428 . S
C1603 N1602 1.351 . S
C1603 C1604 1.434 . S
C1604 C1595 1.429 . S
C1604 N1601 1.350 . S
C1604 C1603 1.434 . S
C1605 C1606 1.369 . S
C1605 C1607 1.419 . S
C1605 H1609 0.930 . S
C1606 C1605 1.369 . S
C1606 C1615 1.429 . S
C1607 C1605 1.419 . S
C1607 C1608 1.363 . S
C1607 H1610 0.929 . S
C1608 C1607 1.363 . S
C1608 C1614 1.428 . S
H1609 C1605 0.930 . S
H1610 C1607 0.929 . S
S1611 N1612 1.613 . S
S1611 N1613 1.610 . S
N1612 S1611 1.613 . S
N1612 C1615 1.350 . S
N1613 S1611 1.610 . S
N1613 C1614 1.351 . S
C1614 C1608 1.428 . S
C1614 N1613 1.351 . S
C1614 C1615 1.434 . S
C1615 C1606 1.429 . S
C1615 N1612 1.350 . S
C1615 C1614 1.434 . S
C1616 C1617 1.369 . S
C1616 C1618 1.419 . S
C1616 H1620 0.930 . S
C1617 C1616 1.369 . S
C1617 C1626 1.429 . S
C1618 C1616 1.419 . S
C1618 C1619 1.363 . S
C1618 H1621 0.929 . S
C1619 C1618 1.363 . S
C1619 C1625 1.428 . S
H1620 C1616 0.930 . S
H1621 C1618 0.929 . S
S1622 N1623 1.613 . S
S1622 N1624 1.610 1_565 S
N1623 S1622 1.613 . S
N1623 C1626 1.350 1_565 S
N1624 S1622 1.610 1_545 S
N1624 C1625 1.351 . S
C1625 C1619 1.428 . S
C1625 N1624 1.351 . S
C1625 C1626 1.434 . S
C1626 C1617 1.429 . S
C1626 N1623 1.350 1_545 S
C1626 C1625 1.434 . S
C1627 C1628 1.369 . S
C1627 C1629 1.419 . S
C1627 H1631 0.930 . S
C1628 C1627 1.369 . S
C1628 C1637 1.429 . S
C1629 C1627 1.419 . S
C1629 C1630 1.363 . S
C1629 H1632 0.929 . S
C1630 C1629 1.363 . S
C1630 C1636 1.428 . S
H1631 C1627 0.930 . S
H1632 C1629 0.929 . S
S1633 N1634 1.613 . S
S1633 N1635 1.610 . S
N1634 S1633 1.613 . S
N1634 C1637 1.350 . S
N1635 S1633 1.610 . S
N1635 C1636 1.351 . S
C1636 C1630 1.428 . S
C1636 N1635 1.351 . S
C1636 C1637 1.434 . S
C1637 C1628 1.429 . S
C1637 N1634 1.350 . S
C1637 C1636 1.434 . S
C1638 C1639 1.369 . S
C1638 C1640 1.419 . S
C1638 H1642 0.930 . S
C1639 C1638 1.369 . S
C1639 C1648 1.429 . S
C1640 C1638 1.419 . S
C1640 C1641 1.363 . S
C1640 H1643 0.929 . S
C1641 C1640 1.363 . S
C1641 C1647 1.428 . S
H1642 C1638 0.930 . S
H1643 C1640 0.929 . S
S1644 N1645 1.613 . S
S1644 N1646 1.610 . S
N1645 S1644 1.613 . S
N1645 C1648 1.350 . S
N1646 S1644 1.610 . S
N1646 C1647 1.351 . S
C1647 C1641 1.428 . S
C1647 N1646 1.351 . S
C1647 C1648 1.434 . S
C1648 C1639 1.429 . S
C1648 N1645 1.350 . S
C1648 C1647 1.434 . S
C1649 C1650 1.369 . S
C1649 C1651 1.419 . S
C1649 H1653 0.930 . S
C1650 C1649 1.369 . S
C1650 C1659 1.429 . S
C1651 C1649 1.419 . S
C1651 C1652 1.363 . S
C1651 H1654 0.929 . S
C1652 C1651 1.363 . S
C1652 C1658 1.428 . S
H1653 C1649 0.930 . S
H1654 C1651 0.929 . S
S1655 N1656 1.613 . S
S1655 N1657 1.610 . S
N1656 S1655 1.613 . S
N1656 C1659 1.350 . S
N1657 S1655 1.610 . S
N1657 C1658 1.351 . S
C1658 C1652 1.428 . S
C1658 N1657 1.351 . S
C1658 C1659 1.434 . S
C1659 C1650 1.429 . S
C1659 N1656 1.350 . S
C1659 C1658 1.434 . S
C1660 C1661 1.369 . S
C1660 C1662 1.419 . S
C1660 H1664 0.930 1_565 S
C1661 C1660 1.369 . S
C1661 C1670 1.429 . S
C1662 C1660 1.419 . S
C1662 C1663 1.363 . S
C1662 H1665 0.929 . S
C1663 C1662 1.363 . S
C1663 C1669 1.428 . S
H1664 C1660 0.930 1_545 S
H1665 C1662 0.929 . S
S1666 N1667 1.613 . S
S1666 N1668 1.610 . S
N1667 S1666 1.613 . S
N1667 C1670 1.350 . S
N1668 S1666 1.610 . S
N1668 C1669 1.351 . S
C1669 C1663 1.428 . S
C1669 N1668 1.351 . S
C1669 C1670 1.434 . S
C1670 C1661 1.429 . S
C1670 N1667 1.350 . S
C1670 C1669 1.434 . S
C1671 C1672 1.369 . S
C1671 C1673 1.419 . S
C1671 H1675 0.930 . S
C1672 C1671 1.369 . S
C1672 C1681 1.429 . S
C1673 C1671 1.419 . S
C1673 C1674 1.363 . S
C1673 H1676 0.929 . S
C1674 C1673 1.363 . S
C1674 C1680 1.428 . S
H1675 C1671 0.930 . S
H1676 C1673 0.929 . S
S1677 N1678 1.613 . S
S1677 N1679 1.610 1_565 S
N1678 S1677 1.613 . S
N1678 C1681 1.350 1_565 S
N1679 S1677 1.610 1_545 S
N1679 C1680 1.351 . S
C1680 C1674 1.428 . S
C1680 N1679 1.351 . S
C1680 C1681 1.434 . S
C1681 C1672 1.429 . S
C1681 N1678 1.350 1_545 S
C1681 C1680 1.434 . S
C1682 C1683 1.369 . S
C1682 C1684 1.419 . S
C1682 H1686 0.930 1_545 S
C1683 C1682 1.369 . S
C1683 C1692 1.429 . S
C1684 C1682 1.419 . S
C1684 C1685 1.363 . S
C1684 H1687 0.929 . S
C1685 C1684 1.363 . S
C1685 C1691 1.428 . S
H1686 C1682 0.930 1_565 S
H1687 C1684 0.929 . S
S1688 N1689 1.613 . S
S1688 N1690 1.610 . S
N1689 S1688 1.613 . S
N1689 C1692 1.350 . S
N1690 S1688 1.610 . S
N1690 C1691 1.351 . S
C1691 C1685 1.428 . S
C1691 N1690 1.351 . S
C1691 C1692 1.434 . S
C1692 C1683 1.429 . S
C1692 N1689 1.350 . S
C1692 C1691 1.434 . S
C1693 C1694 1.369 . S
C1693 C1695 1.419 . S
C1693 H1697 0.930 . S
C1694 C1693 1.369 . S
C1694 C1703 1.429 . S
C1695 C1693 1.419 . S
C1695 C1696 1.363 . S
C1695 H1698 0.929 . S
C1696 C1695 1.363 . S
C1696 C1702 1.428 . S
H1697 C1693 0.930 . S
H1698 C1695 0.929 . S
S1699 N1700 1.613 . S
S1699 N1701 1.610 . S
N1700 S1699 1.613 . S
N1700 C1703 1.350 . S
N1701 S1699 1.610 . S
N1701 C1702 1.351 . S
C1702 C1696 1.428 . S
C1702 N1701 1.351 . S
C1702 C1703 1.434 . S
C1703 C1694 1.429 . S
C1703 N1700 1.350 . S
C1703 C1702 1.434 . S
C1704 C1705 1.369 . S
C1704 C1706 1.419 . S
C1704 H1708 0.930 . S
C1705 C1704 1.369 . S
C1705 C1714 1.429 . S
C1706 C1704 1.419 . S
C1706 C1707 1.363 . S
C1706 H1709 0.929 . S
C1707 C1706 1.363 . S
C1707 C1713 1.428 . S
H1708 C1704 0.930 . S
H1709 C1706 0.929 . S
S1710 N1711 1.613 . S
S1710 N1712 1.610 . S
N1711 S1710 1.613 . S
N1711 C1714 1.350 . S
N1712 S1710 1.610 . S
N1712 C1713 1.351 . S
C1713 C1707 1.428 . S
C1713 N1712 1.351 . S
C1713 C1714 1.434 . S
C1714 C1705 1.429 . S
C1714 N1711 1.350 . S
C1714 C1713 1.434 . S
C1715 C1716 1.369 . S
C1715 C1717 1.419 . S
C1715 H1719 0.930 . S
C1716 C1715 1.369 . S
C1716 C1725 1.429 . S
C1717 C1715 1.419 . S
C1717 C1718 1.363 . S
C1717 H1720 0.929 . S
C1718 C1717 1.363 . S
C1718 C1724 1.428 . S
H1719 C1715 0.930 . S
H1720 C1717 0.929 . S
S1721 N1722 1.613 . S
S1721 N1723 1.610 . S
N1722 S1721 1.613 . S
N1722 C1725 1.350 . S
N1723 S1721 1.610 . S
N1723 C1724 1.351 . S
C1724 C1718 1.428 . S
C1724 N1723 1.351 . S
C1724 C1725 1.434 . S
C1725 C1716 1.429 . S
C1725 N1722 1.350 . S
C1725 C1724 1.434 . S
C1726 C1727 1.369 . S
C1726 C1728 1.419 . S
C1726 H1730 0.930 . S
C1727 C1726 1.369 . S
C1727 C1736 1.429 . S
C1728 C1726 1.419 . S
C1728 C1729 1.363 . S
C1728 H1731 0.929 . S
C1729 C1728 1.363 . S
C1729 C1735 1.428 . S
H1730 C1726 0.930 . S
H1731 C1728 0.929 . S
S1732 N1733 1.613 . S
S1732 N1734 1.610 . S
N1733 S1732 1.613 . S
N1733 C1736 1.350 . S
N1734 S1732 1.610 . S
N1734 C1735 1.351 . S
C1735 C1729 1.428 . S
C1735 N1734 1.351 . S
C1735 C1736 1.434 . S
C1736 C1727 1.429 . S
C1736 N1733 1.350 . S
C1736 C1735 1.434 . S
C1737 C1738 1.369 . S
C1737 C1739 1.419 . S
C1737 H1741 0.930 . S
C1738 C1737 1.369 . S
C1738 C1747 1.429 . S
C1739 C1737 1.419 . S
C1739 C1740 1.363 . S
C1739 H1742 0.929 . S
C1740 C1739 1.363 . S
C1740 C1746 1.428 . S
H1741 C1737 0.930 . S
H1742 C1739 0.929 . S
S1743 N1744 1.613 . S
S1743 N1745 1.610 . S
N1744 S1743 1.613 . S
N1744 C1747 1.350 . S
N1745 S1743 1.610 . S
N1745 C1746 1.351 . S
C1746 C1740 1.428 . S
C1746 N1745 1.351 . S
C1746 C1747 1.434 . S
C1747 C1738 1.429 . S
C1747 N1744 1.350 . S
C1747 C1746 1.434 . S
C1748 C1749 1.369 . S
C1748 C1750 1.419 . S
C1748 H1752 0.930 . S
C1749 C1748 1.369 . S
C1749 C1758 1.429 . S
C1750 C1748 1.419 . S
C1750 C1751 1.363 . S
C1750 H1753 0.929 . S
C1751 C1750 1.363 . S
C1751 C1757 1.428 . S
H1752 C1748 0.930 . S
H1753 C1750 0.929 . S
S1754 N1755 1.613 . S
S1754 N1756 1.610 . S
N1755 S1754 1.613 . S
N1755 C1758 1.350 . S
N1756 S1754 1.610 . S
N1756 C1757 1.351 . S
C1757 C1751 1.428 . S
C1757 N1756 1.351 . S
C1757 C1758 1.434 . S
C1758 C1749 1.429 . S
C1758 N1755 1.350 . S
C1758 C1757 1.434 . S
C1759 C1760 1.369 . S
C1759 C1761 1.419 . S
C1759 H1763 0.930 . S
C1760 C1759 1.369 . S
C1760 C1769 1.429 . S
C1761 C1759 1.419 . S
C1761 C1762 1.363 . S
C1761 H1764 0.929 . S
C1762 C1761 1.363 . S
C1762 C1768 1.428 . S
H1763 C1759 0.930 . S
H1764 C1761 0.929 . S
S1765 N1766 1.613 . S
S1765 N1767 1.610 . S
N1766 S1765 1.613 . S
N1766 C1769 1.350 . S
N1767 S1765 1.610 . S
N1767 C1768 1.351 . S
C1768 C1762 1.428 . S
C1768 N1767 1.351 . S
C1768 C1769 1.434 . S
C1769 C1760 1.429 . S
C1769 N1766 1.350 . S
C1769 C1768 1.434 . S
C1770 C1771 1.369 . S
C1770 C1772 1.419 . S
C1770 H1774 0.930 . S
C1771 C1770 1.369 . S
C1771 C1780 1.429 . S
C1772 C1770 1.419 . S
C1772 C1773 1.363 . S
C1772 H1775 0.929 . S
C1773 C1772 1.363 . S
C1773 C1779 1.428 . S
H1774 C1770 0.930 . S
H1775 C1772 0.929 . S
S1776 N1777 1.613 . S
S1776 N1778 1.610 . S
N1777 S1776 1.613 . S
N1777 C1780 1.350 . S
N1778 S1776 1.610 . S
N1778 C1779 1.351 . S
C1779 C1773 1.428 . S
C1779 N1778 1.351 . S
C1779 C1780 1.434 . S
C1780 C1771 1.429 . S
C1780 N1777 1.350 . S
C1780 C1779 1.434 . S
C1781 C1782 1.369 . S
C1781 C1783 1.419 . S
C1781 H1785 0.930 . S
C1782 C1781 1.369 . S
C1782 C1791 1.429 . S
C1783 C1781 1.419 . S
C1783 C1784 1.363 . S
C1783 H1786 0.929 . S
C1784 C1783 1.363 . S
C1784 C1790 1.428 . S
H1785 C1781 0.930 . S
H1786 C1783 0.929 . S
S1787 N1788 1.613 . S
S1787 N1789 1.610 . S
N1788 S1787 1.613 . S
N1788 C1791 1.350 . S
N1789 S1787 1.610 . S
N1789 C1790 1.351 . S
C1790 C1784 1.428 . S
C1790 N1789 1.351 . S
C1790 C1791 1.434 . S
C1791 C1782 1.429 . S
C1791 N1788 1.350 . S
C1791 C1790 1.434 . S
C1792 C1793 1.369 . S
C1792 C1794 1.419 . S
C1792 H1796 0.930 . S
C1793 C1792 1.369 . S
C1793 C1802 1.429 . S
C1794 C1792 1.419 . S
C1794 C1795 1.363 . S
C1794 H1797 0.929 . S
C1795 C1794 1.363 . S
C1795 C1801 1.428 . S
H1796 C1792 0.930 . S
H1797 C1794 0.929 . S
S1798 N1799 1.613 . S
S1798 N1800 1.610 . S
N1799 S1798 1.613 . S
N1799 C1802 1.350 . S
N1800 S1798 1.610 . S
N1800 C1801 1.351 . S
C1801 C1795 1.428 . S
C1801 N1800 1.351 . S
C1801 C1802 1.434 . S
C1802 C1793 1.429 . S
C1802 N1799 1.350 . S
C1802 C1801 1.434 . S
C1803 C1804 1.369 1_545 S
C1803 C1805 1.419 . S
C1803 H1807 0.930 . S
C1804 C1803 1.369 1_565 S
C1804 C1813 1.429 1_655 S
C1805 C1803 1.419 . S
C1805 C1806 1.363 1_655 S
C1805 H1808 0.929 . S
C1806 C1805 1.363 1_455 S
C1806 C1812 1.428 1_545 S
H1807 C1803 0.930 . S
H1808 C1805 0.929 . S
S1809 N1810 1.613 . S
S1809 N1811 1.610 . S
N1810 S1809 1.613 . S
N1810 C1813 1.350 . S
N1811 S1809 1.610 . S
N1811 C1812 1.351 . S
C1812 C1806 1.428 1_565 S
C1812 N1811 1.351 . S
C1812 C1813 1.434 . S
C1813 C1804 1.429 1_455 S
C1813 N1810 1.350 . S
C1813 C1812 1.434 . S
C1814 C1815 1.369 . S
C1814 C1816 1.419 . S
C1814 H1818 0.930 . S
C1815 C1814 1.369 . S
C1815 C1824 1.429 . S
C1816 C1814 1.419 . S
C1816 C1817 1.363 . S
C1816 H1819 0.929 . S
C1817 C1816 1.363 . S
C1817 C1823 1.428 . S
H1818 C1814 0.930 . S
H1819 C1816 0.929 . S
S1820 N1821 1.613 . S
S1820 N1822 1.610 . S
N1821 S1820 1.613 . S
N1821 C1824 1.350 . S
N1822 S1820 1.610 . S
N1822 C1823 1.351 . S
C1823 C1817 1.428 . S
C1823 N1822 1.351 . S
C1823 C1824 1.434 . S
C1824 C1815 1.429 . S
C1824 N1821 1.350 . S
C1824 C1823 1.434 . S
C1825 C1826 1.369 1_554 S
C1825 C1827 1.419 . S
C1825 H1829 0.930 . S
C1826 C1825 1.369 1_556 S
C1826 C1835 1.429 1_565 S
C1827 C1825 1.419 . S
C1827 C1828 1.363 1_565 S
C1827 H1830 0.929 . S
C1828 C1827 1.363 1_545 S
C1828 C1834 1.428 1_554 S
H1829 C1825 0.930 . S
H1830 C1827 0.929 . S
S1831 N1832 1.613 . S
S1831 N1833 1.610 . S
N1832 S1831 1.613 . S
N1832 C1835 1.350 . S
N1833 S1831 1.610 . S
N1833 C1834 1.351 . S
C1834 C1828 1.428 1_556 S
C1834 N1833 1.351 . S
C1834 C1835 1.434 . S
C1835 C1826 1.429 1_545 S
C1835 N1832 1.350 . S
C1835 C1834 1.434 . S
C1836 C1837 1.369 . S
C1836 C1838 1.419 . S
C1836 H1840 0.930 . S
C1837 C1836 1.369 . S
C1837 C1846 1.429 . S
C1838 C1836 1.419 . S
C1838 C1839 1.363 . S
C1838 H1841 0.929 . S
C1839 C1838 1.363 . S
C1839 C1845 1.428 . S
H1840 C1836 0.930 . S
H1841 C1838 0.929 . S
S1842 N1843 1.613 . S
S1842 N1844 1.610 . S
N1843 S1842 1.613 . S
N1843 C1846 1.350 . S
N1844 S1842 1.610 . S
N1844 C1845 1.351 . S
C1845 C1839 1.428 . S
C1845 N1844 1.351 . S
C1845 C1846 1.434 . S
C1846 C1837 1.429 . S
C1846 N1843 1.350 . S
C1846 C1845 1.434 . S
C1847 C1848 1.369 . S
C1847 C1849 1.419 . S
C1847 H1851 0.930 . S
C1848 C1847 1.369 . S
C1848 C1857 1.429 1_545 S
C1849 C1847 1.419 . S
C1849 C1850 1.363 1_545 S
C1849 H1852 0.929 . S
C1850 C1849 1.363 1_565 S
C1850 C1856 1.428 . S
H1851 C1847 0.930 . S
H1852 C1849 0.929 . S
S1853 N1854 1.613 . S
S1853 N1855 1.610 . S
N1854 S1853 1.613 . S
N1854 C1857 1.350 . S
N1855 S1853 1.610 . S
N1855 C1856 1.351 . S
C1856 C1850 1.428 . S
C1856 N1855 1.351 . S
C1856 C1857 1.434 . S
C1857 C1848 1.429 1_565 S
C1857 N1854 1.350 . S
C1857 C1856 1.434 . S
C1858 C1859 1.369 . S
C1858 C1860 1.419 . S
C1858 H1862 0.930 . S
C1859 C1858 1.369 . S
C1859 C1868 1.429 . S
C1860 C1858 1.419 . S
C1860 C1861 1.363 . S
C1860 H1863 0.929 . S
C1861 C1860 1.363 . S
C1861 C1867 1.428 . S
H1862 C1858 0.930 . S
H1863 C1860 0.929 . S
S1864 N1865 1.613 . S
S1864 N1866 1.610 . S
N1865 S1864 1.613 . S
N1865 C1868 1.350 . S
N1866 S1864 1.610 . S
N1866 C1867 1.351 . S
C1867 C1861 1.428 . S
C1867 N1866 1.351 . S
C1867 C1868 1.434 . S
C1868 C1859 1.429 . S
C1868 N1865 1.350 . S
C1868 C1867 1.434 . S
C1869 C1870 1.369 1_545 S
C1869 C1871 1.440 . S
C1869 H1873 0.930 . S
C1870 C1869 1.369 1_565 S
C1870 C1879 1.429 1_454 S
C1871 C1869 1.440 . S
C1871 C1872 1.340 1_454 S
C1871 H1874 0.932 . S
C1872 C1871 1.340 1_656 S
C1872 C1878 1.428 1_545 S
H1873 C1869 0.930 . S
H1874 C1871 0.932 . S
S1875 N1876 1.613 . S
S1875 N1877 1.610 . S
N1876 S1875 1.613 . S
N1876 C1879 1.350 . S
N1877 S1875 1.610 . S
N1877 C1878 1.351 . S
C1878 C1872 1.428 1_565 S
C1878 N1877 1.351 . S
C1878 C1879 1.434 . S
C1879 C1870 1.429 1_656 S
C1879 N1876 1.350 . S
C1879 C1878 1.434 . S
C1880 C1881 1.369 . S
C1880 C1882 1.419 . S
C1880 H1884 0.930 . S
C1881 C1880 1.369 . S
C1881 C1890 1.429 . S
C1882 C1880 1.419 . S
C1882 C1883 1.363 . S
C1882 H1885 0.929 . S
C1883 C1882 1.363 . S
C1883 C1889 1.428 . S
H1884 C1880 0.930 . S
H1885 C1882 0.929 . S
S1886 N1887 1.613 . S
S1886 N1888 1.610 . S
N1887 S1886 1.613 . S
N1887 C1890 1.350 . S
N1888 S1886 1.610 . S
N1888 C1889 1.351 . S
C1889 C1883 1.428 . S
C1889 N1888 1.351 . S
C1889 C1890 1.434 . S
C1890 C1881 1.429 . S
C1890 N1887 1.350 . S
C1890 C1889 1.434 . S
C1891 C1892 1.369 . S
C1891 C1893 1.419 . S
C1891 H1895 0.930 . S
C1892 C1891 1.369 . S
C1892 C1901 1.429 . S
C1893 C1891 1.419 . S
C1893 C1894 1.363 . S
C1893 H1896 0.929 . S
C1894 C1893 1.363 . S
C1894 C1900 1.428 . S
H1895 C1891 0.930 . S
H1896 C1893 0.929 . S
S1897 N1898 1.613 . S
S1897 N1899 1.610 . S
N1898 S1897 1.613 . S
N1898 C1901 1.350 . S
N1899 S1897 1.610 . S
N1899 C1900 1.351 . S
C1900 C1894 1.428 . S
C1900 N1899 1.351 . S
C1900 C1901 1.434 . S
C1901 C1892 1.429 . S
C1901 N1898 1.350 . S
C1901 C1900 1.434 . S
C1902 C1903 1.369 . S
C1902 C1904 1.419 . S
C1902 H1906 0.930 . S
C1903 C1902 1.369 . S
C1903 C1912 1.429 . S
C1904 C1902 1.419 . S
C1904 C1905 1.363 . S
C1904 H1907 0.929 . S
C1905 C1904 1.363 . S
C1905 C1911 1.428 . S
H1906 C1902 0.930 . S
H1907 C1904 0.929 . S
S1908 N1909 1.613 . S
S1908 N1910 1.610 . S
N1909 S1908 1.613 . S
N1909 C1912 1.350 . S
N1910 S1908 1.610 . S
N1910 C1911 1.351 . S
C1911 C1905 1.428 . S
C1911 N1910 1.351 . S
C1911 C1912 1.434 . S
C1912 C1903 1.429 . S
C1912 N1909 1.350 . S
C1912 C1911 1.434 . S
C1913 C1914 1.369 . S
C1913 C1915 1.419 . S
C1913 H1917 0.930 . S
C1914 C1913 1.369 . S
C1914 C1923 1.429 . S
C1915 C1913 1.419 . S
C1915 C1916 1.363 . S
C1915 H1918 0.929 . S
C1916 C1915 1.363 . S
C1916 C1922 1.428 . S
H1917 C1913 0.930 . S
H1918 C1915 0.929 . S
S1919 N1920 1.613 . S
S1919 N1921 1.610 . S
N1920 S1919 1.613 . S
N1920 C1923 1.350 . S
N1921 S1919 1.610 . S
N1921 C1922 1.351 . S
C1922 C1916 1.428 . S
C1922 N1921 1.351 . S
C1922 C1923 1.434 . S
C1923 C1914 1.429 . S
C1923 N1920 1.350 . S
C1923 C1922 1.434 . S
C1924 C1925 1.369 . S
C1924 C1926 1.419 1_554 S
C1924 H1928 0.930 . S
C1925 C1924 1.369 . S
C1925 C1934 1.429 . S
C1926 C1924 1.419 1_556 S
C1926 C1927 1.363 . S
C1926 H1929 0.929 . S
C1927 C1926 1.363 . S
C1927 C1933 1.428 . S
H1928 C1924 0.930 . S
H1929 C1926 0.929 . S
S1930 N1931 1.614 . S
S1930 N1932 1.610 1_554 S
N1931 S1930 1.614 . S
N1931 C1934 1.350 . S
N1932 S1930 1.610 1_556 S
N1932 C1933 1.351 . S
C1933 C1927 1.428 . S
C1933 N1932 1.351 . S
C1933 C1934 1.434 1_556 S
C1934 C1925 1.429 . S
C1934 N1931 1.350 . S
C1934 C1933 1.434 1_554 S
C1935 C1936 1.369 . S
C1935 C1937 1.419 1_455 S
C1935 H1939 0.930 . S
C1936 C1935 1.369 . S
C1936 C1945 1.429 . S
C1937 C1935 1.419 1_655 S
C1937 C1938 1.363 . S
C1937 H1940 0.929 . S
C1938 C1937 1.363 . S
C1938 C1944 1.428 . S
H1939 C1935 0.930 . S
H1940 C1937 0.929 . S
S1941 N1942 1.613 1_655 S
S1941 N1943 1.610 . S
N1942 S1941 1.613 1_455 S
N1942 C1945 1.350 . S
N1943 S1941 1.610 . S
N1943 C1944 1.351 . S
C1944 C1938 1.428 . S
C1944 N1943 1.351 . S
C1944 C1945 1.434 1_655 S
C1945 C1936 1.429 . S
C1945 N1942 1.350 . S
C1945 C1944 1.434 1_455 S
C1946 C1947 1.369 1_554 S
C1946 C1948 1.419 1_455 S
C1946 H1950 0.930 . S
C1947 C1946 1.369 1_556 S
C1947 C1956 1.429 . S
C1948 C1946 1.419 1_655 S
C1948 C1949 1.363 . S
C1948 H1951 0.929 . S
C1949 C1948 1.363 . S
C1949 C1955 1.428 1_554 S
H1950 C1946 0.930 . S
H1951 C1948 0.929 . S
S1952 N1953 1.613 1_655 S
S1952 N1954 1.610 . S
N1953 S1952 1.613 1_455 S
N1953 C1956 1.350 . S
N1954 S1952 1.610 . S
N1954 C1955 1.351 . S
C1955 C1949 1.428 1_556 S
C1955 N1954 1.351 . S
C1955 C1956 1.434 1_655 S
C1956 C1947 1.429 . S
C1956 N1953 1.350 . S
C1956 C1955 1.434 1_455 S
C1957 C1958 1.369 . S
C1957 C1959 1.419 . S
C1957 H1961 0.930 . S
C1958 C1957 1.369 . S
C1958 C1967 1.429 . S
C1959 C1957 1.419 . S
C1959 C1960 1.363 . S
C1959 H1962 0.929 . S
C1960 C1959 1.363 . S
C1960 C1966 1.428 . S
H1961 C1957 0.930 . S
H1962 C1959 0.929 . S
S1963 N1964 1.613 . S
S1963 N1965 1.610 . S
N1964 S1963 1.613 . S
N1964 C1967 1.350 . S
N1965 S1963 1.610 . S
N1965 C1966 1.351 . S
C1966 C1960 1.428 . S
C1966 N1965 1.351 . S
C1966 C1967 1.434 . S
C1967 C1958 1.429 . S
C1967 N1964 1.350 . S
C1967 C1966 1.434 . S
C1089 C617 0.915 . S
C1091 C5 0.913 . S
C1100 C39 0.914 . S
C1102 C651 0.913 . S
C1111 C73 0.915 . S
C1113 C549 0.922 . S
C1122 C583 0.924 . S
C1124 C107 0.920 . S
C1133 C141 0.922 . S
C1135 C753 0.922 . S
C1144 C787 0.921 . S
C1146 C175 0.914 . S
C1155 C209 0.920 . S
C1157 C685 0.923 . S
C1166 C243 0.924 . S
C1168 C719 0.916 . S
C1177 C277 0.912 . S
C1179 C889 0.916 . S
C1188 C923 0.919 . S
C1190 C311 0.913 . S
C1199 C345 0.913 . S
C1201 C821 0.921 . S
C1210 C379 0.918 . S
C1212 C855 0.913 . S
C1221 C413 0.924 . S
C1223 C1025 0.917 . S
C1232 C1059 0.912 . S
C1234 C447 0.916 . S
C1243 C957 0.911 . S
C1245 C481 0.918 . S
C1254 C991 0.921 . S
C1256 C515 0.914 . S
C1265 C407 1.475 . S
C1267 C2 1.420 . S
C1276 C849 1.476 . S
C1278 C36 1.420 . S
C1287 C70 1.416 . S
C1289 C339 1.475 1_455 S
C1298 C917 1.475 . S
C1300 C104 1.422 . S
C1309 C475 1.474 . S
C1311 C138 1.417 . S
C1320 C172 1.425 . S
C1322 C1053 1.476 . S
C1331 C543 1.476 1_455 S
C1333 C206 1.421 . S
C1342 C985 1.476 . S
C1344 C240 1.424 . S
C1353 C135 1.476 . S
C1355 C274 1.420 . S
C1364 C308 1.417 . S
C1366 C577 1.475 . S
C1375 C342 1.420 . S
C1377 C67 1.476 1_655 S
C1386 C645 1.474 . S
C1388 C376 1.418 . S
C1397 C410 1.417 . S
C1399 C203 1.475 . S
C1408 C781 1.474 . S
C1410 C444 1.419 . S
C1419 C478 1.421 . S
C1421 C271 1.475 1_655 S
C1430 C512 1.416 . S
C1432 C713 1.475 . S
C1441 C951 1.475 1_655 S
C1443 C546 1.417 . S
C1452 C580 1.418 . S
C1454 C305 1.476 . S
C1463 C614 1.425 . S
C1465 C883 1.476 . S
C1474 C373 1.476 . S
C1476 C648 1.424 . S
C1485 C682 1.425 . S
C1487 C1019 1.476 1_655 S
C1496 C716 1.421 . S
C1498 C509 1.475 . S
C1507 C1087 1.474 . S
C1509 C750 1.417 . S
C1518 C441 1.475 . S
C1520 C784 1.417 . S
C1529 C679 1.474 1_455 S
C1531 C818 1.418 . S
C1540 C852 1.425 . S
C1542 C33 1.476 . S
C1551 C886 1.424 . S
C1553 C611 1.476 . S
C1562 C101 1.476 . S
C1564 C920 1.422 . S
C1573 C954 1.424 . S
C1575 C747 1.476 1_455 S
C1584 C988 1.424 . S
C1586 C237 1.476 . S
C1595 C815 1.476 . S
C1597 C1022 1.423 . S
C1606 C169 1.474 . S
C1608 C1056 1.417 . S
C1617 C247 1.607 . S
C1619 C9 1.598 . S
C1628 C145 1.590 . S
C1630 C43 1.614 . S
C1639 C77 1.591 . S
C1641 C179 1.615 . S
C1650 C213 1.590 . S
C1652 C111 1.614 . S
C1661 C519 1.611 . S
C1663 C281 1.591 . S
C1672 C315 1.612 . S
C1674 C417 1.598 . S
C1683 C451 1.609 . S
C1685 C349 1.592 . S
C1694 C485 1.595 . S
C1696 C383 1.607 . S
C1705 C791 1.594 . S
C1707 C553 1.599 . S
C1716 C689 1.595 . S
C1718 C587 1.591 . S
C1727 C723 1.599 . S
C1729 C621 1.596 . S
C1738 C757 1.591 . S
C1740 C655 1.598 . S
C1749 C825 1.589 . S
C1751 C1063 1.595 . S
C1760 C859 1.594 . S
C1762 C961 1.591 . S
C1771 C893 1.591 . S
C1773 C995 1.593 . S
C1782 C1029 1.600 . S
C1784 C927 1.595 . S
C1793 C20 1.951 . S
C1795 C836 1.951 . S
C1804 C326 1.947 . S
C1806 C54 1.955 . S
C1815 C904 1.952 . S
C1817 C88 1.951 . S
C1826 C122 1.949 . S
C1828 C394 1.953 . S
C1837 C156 1.956 . S
C1839 C972 1.948 . S
C1848 C190 1.953 . S
C1850 C462 1.950 . S
C1859 C1040 1.948 . S
C1861 C224 1.954 . S
C1870 C258 1.953 . S
C1872 C530 1.950 . S
C1881 C564 1.950 . S
C1883 C292 1.953 . S
C1892 C632 1.956 . S
C1894 C360 1.948 . S
C1903 C428 1.956 . S
C1905 C700 1.948 . S
C1914 C496 1.956 . S
C1916 C768 1.948 . S
C1925 C870 1.955 . S
C1927 C598 1.949 . S
C1936 C938 1.948 . S
C1938 C666 1.955 . S
C1947 C1006 1.947 . S
C1949 C734 1.955 . S
C1958 C1074 1.956 . S
C1960 C802 1.948 . S
