# Generated by pormake.
# Topology bsn, (6)-cn, num edge types: 1
# Building blocks:
#     Node 0, Type 0, BuildingBlock: VOLQOD_clean_sbu_1, # of connection points: 6
#     Node 1, Type 0, BuildingBlock: VOLQOD_clean_sbu_1, # of connection points: 6
#     Node 2, Type 0, BuildingBlock: VOLQOD_clean_sbu_1, # of connection points: 6
#     Node 3, Type 0, BuildingBlock: VOLQOD_clean_sbu_1, # of connection points: 6
#     Edge 4, Type (0, 0), BuildingBlock: KIFKEQ_clean_linker_1, # of connection points: 2
#     Edge 5, Type (0, 0), BuildingBlock: KIFKEQ_clean_linker_1, # of connection points: 2
#     Edge 6, Type (0, 0), BuildingBlock: KIFKEQ_clean_linker_1, # of connection points: 2
#     Edge 7, Type (0, 0), BuildingBlock: KIFKEQ_clean_linker_1, # of connection points: 2
#     Edge 8, Type (0, 0), BuildingBlock: KIFKEQ_clean_linker_1, # of connection points: 2
#     Edge 9, Type (0, 0), BuildingBlock: KIFKEQ_clean_linker_1, # of connection points: 2
#     Edge 10, Type (0, 0), BuildingBlock: KIFKEQ_clean_linker_1, # of connection points: 2
#     Edge 11, Type (0, 0), BuildingBlock: KIFKEQ_clean_linker_1, # of connection points: 2
#     Edge 12, Type (0, 0), BuildingBlock: KIFKEQ_clean_linker_1, # of connection points: 2
#     Edge 13, Type (0, 0), BuildingBlock: KIFKEQ_clean_linker_1, # of connection points: 2
#     Edge 14, Type (0, 0), BuildingBlock: KIFKEQ_clean_linker_1, # of connection points: 2
#     Edge 15, Type (0, 0), BuildingBlock: KIFKEQ_clean_linker_1, # of connection points: 2
# Relax obj value: 0.019
# Max RMSD: 0.063
# Mean RMSD: 0.062
data_MOF--net-bsn--node1-VOLQOD_clean_sbu_1--edge1-KIFKEQ_clean_linker_1
_symmetry_space_group_name_H-M    P1
_symmetry_Int_Tables_number       1
_symmetry_cell_setting            triclinic
loop_
_symmetry_equiv_pos_as_xyz
'x, y, z'
_cell_length_a     33.44805
_cell_length_b     33.542958
_cell_length_c     17.391476
_cell_angle_alpha  90.013398
_cell_angle_beta   90.198701
_cell_angle_gamma 90.033727
loop_
_atom_site_label
_atom_site_type_symbol
_atom_site_fract_x
_atom_site_fract_y
_atom_site_fract_z
_atom_type_partial_charge
O0 O 0.03968 0.25809 0.5376 0.0
Zn1 Zn 0.04742 0.27349 0.42671 0.0
O2 O 0.00747 0.24821 0.36322 0.0
Zn3 Zn 0.03182 0.20743 0.2998 0.0
Zn4 Zn 0.9669 0.22491 0.42799 0.0
Zn5 Zn 0.98355 0.28774 0.29717 0.0
O6 O 0.01498 0.21504 0.18905 0.0
O7 O 0.00287 0.28034 0.1886 0.0
O8 O 0.10287 0.26185 0.38703 0.0
O9 O 0.09164 0.21496 0.29927 0.0
O10 O 0.01909 0.15188 0.3401 0.0
O11 O 0.97455 0.16584 0.43067 0.0
O12 O 0.91096 0.23623 0.38672 0.0
O13 O 0.03998 0.33261 0.4252 0.0
O14 O 0.92462 0.2782 0.29159 0.0
O15 O 0.99312 0.34385 0.33716 0.0
C16 C 0.00752 0.24998 0.5737 0.0
C17 C 0.0093 0.24772 0.15296 0.0
C18 C 0.99586 0.14082 0.39416 0.0
C19 C 0.11549 0.23797 0.33546 0.0
C20 C 0.89972 0.25749 0.32973 0.0
C21 C 0.01719 0.35642 0.38878 0.0
O22 O 0.97509 0.2417 0.53818 0.0
O23 O 0.03122 0.74038 0.43274 0.0
Zn24 Zn 0.0392 0.72437 0.54375 0.0
O25 O 0.99802 0.74753 0.60737 0.0
Zn26 Zn 0.02138 0.78767 0.67335 0.0
Zn27 Zn 0.95892 0.77171 0.54086 0.0
Zn28 Zn 0.97203 0.70709 0.66884 0.0
O29 O 0.00394 0.77896 0.78265 0.0
O30 O 0.98698 0.71466 0.78049 0.0
O31 O 0.09476 0.73718 0.58413 0.0
O32 O 0.08074 0.77996 0.67761 0.0
O33 O 0.01007 0.84361 0.63324 0.0
O34 O 0.96913 0.83034 0.53567 0.0
O35 O 0.90285 0.76312 0.58118 0.0
O36 O 0.03304 0.66499 0.54443 0.0
O37 O 0.91248 0.71494 0.66675 0.0
O38 O 0.985 0.65169 0.62874 0.0
C39 C 0.99832 0.74561 0.39665 0.0
C40 C 0.99524 0.74657 0.81735 0.0
C41 C 0.98945 0.85501 0.57537 0.0
C42 C 0.10587 0.75933 0.63988 0.0
C43 C 0.88938 0.73896 0.63144 0.0
C44 C 0.01044 0.64024 0.57884 0.0
O45 O 0.9657 0.75206 0.43235 0.0
O46 O 0.48992 0.71625 0.68907 0.0
Zn47 Zn 0.47337 0.70892 0.79986 0.0
O48 O 0.49863 0.74946 0.86291 0.0
Zn49 Zn 0.53984 0.7256 0.92652 0.0
Zn50 Zn 0.52214 0.78929 0.79683 0.0
Zn51 Zn 0.45894 0.77474 0.92669 0.0
O52 O 0.53122 0.74034 0.03789 0.0
O53 O 0.46728 0.7591 0.03716 0.0
O54 O 0.48578 0.65334 0.83994 0.0
O55 O 0.53407 0.66615 0.92445 0.0
O56 O 0.59553 0.73882 0.88698 0.0
O57 O 0.58123 0.78071 0.79198 0.0
O58 O 0.5121 0.84545 0.83629 0.0
O59 O 0.41368 0.71664 0.79956 0.0
O60 O 0.46622 0.83389 0.92545 0.0
O61 O 0.40308 0.76324 0.8879 0.0
C62 C 0.4962 0.74871 0.65266 0.0
C63 C 0.49913 0.74954 0.07331 0.0
C64 C 0.60647 0.76045 0.83045 0.0
C65 C 0.5113 0.64159 0.88969 0.0
C66 C 0.48843 0.85788 0.88839 0.0
C67 C 0.39009 0.73951 0.83625 0.0
O68 O 0.50305 0.78139 0.68797 0.0
O69 O 0.51705 0.21692 0.28053 0.0
Zn70 Zn 0.53211 0.20878 0.16925 0.0
O71 O 0.50676 0.24941 0.10659 0.0
Zn72 Zn 0.46572 0.22616 0.04182 0.0
Zn73 Zn 0.4826 0.28934 0.17151 0.0
Zn74 Zn 0.54666 0.27396 0.04223 0.0
O75 O 0.47383 0.24282 0.93139 0.0
O76 O 0.53902 0.25655 0.93224 0.0
O77 O 0.51882 0.15334 0.12925 0.0
O78 O 0.47211 0.16679 0.04174 0.0
O79 O 0.40984 0.23815 0.08125 0.0
O80 O 0.42345 0.28098 0.17496 0.0
O81 O 0.49348 0.34529 0.13152 0.0
O82 O 0.59182 0.21565 0.16838 0.0
O83 O 0.53889 0.33314 0.04159 0.0
O84 O 0.60253 0.26303 0.0818 0.0
C85 C 0.50875 0.24901 0.31666 0.0
C86 C 0.50654 0.24948 0.89597 0.0
C87 C 0.39852 0.26009 0.13696 0.0
C88 C 0.49408 0.14197 0.07764 0.0
C89 C 0.51692 0.35737 0.07865 0.0
C90 C 0.61547 0.2388 0.13255 0.0
O91 O 0.49998 0.28118 0.28122 0.0
H92 H 0.95845 0.41215 0.3652 0.0
H93 H 0.07583 0.39654 0.4654 0.0
H94 H 0.95676 0.48067 0.41399 0.0
H95 H 0.07408 0.46474 0.5135 0.0
H96 H 0.07165 0.60257 0.506 0.0
H97 H 0.0732 0.53445 0.45743 0.0
H98 H 0.95506 0.51386 0.5484 0.0
H99 H 0.95343 0.58229 0.59764 0.0
C100 C 0.98403 0.42346 0.39676 0.0
C101 C 0.01728 0.39896 0.41137 0.0
C102 C 0.98287 0.46247 0.42532 0.0
C103 C 0.0152 0.47785 0.46786 0.0
C104 C 0.04882 0.4537 0.48065 0.0
C105 C 0.04975 0.41463 0.45316 0.0
C106 C 0.04608 0.58348 0.51625 0.0
C107 C 0.01243 0.59781 0.55581 0.0
C108 C 0.04703 0.54447 0.48848 0.0
C109 C 0.01416 0.51902 0.49876 0.0
C110 C 0.98063 0.53307 0.53901 0.0
C111 C 0.97989 0.57204 0.56784 0.0
H112 H 0.67211 0.72856 0.90352 0.0
H113 H 0.636 0.78974 0.69595 0.0
H114 H 0.74022 0.72388 0.85437 0.0
H115 H 0.70314 0.78356 0.64567 0.0
H116 H 0.83631 0.79947 0.60523 0.0
H117 H 0.76907 0.80636 0.65642 0.0
H118 H 0.77881 0.68992 0.76142 0.0
H119 H 0.84671 0.68388 0.7129 0.0
C120 C 0.67868 0.74103 0.84753 0.0
C121 C 0.64857 0.75963 0.80393 0.0
C122 C 0.71766 0.73803 0.81891 0.0
C123 C 0.72731 0.75314 0.74567 0.0
C124 C 0.69718 0.77213 0.70271 0.0
C125 C 0.65847 0.77554 0.7316 0.0
C126 C 0.82395 0.77517 0.63858 0.0
C127 C 0.8469 0.74113 0.65493 0.0
C128 C 0.78529 0.77908 0.66799 0.0
C129 C 0.76839 0.7488 0.71364 0.0
C130 C 0.79105 0.71426 0.72808 0.0
C131 C 0.82988 0.71059 0.69948 0.0
H132 H 0.45916 0.41388 0.10359 0.0
H133 H 0.57508 0.39667 -0.00021 0.0
H134 H 0.45778 0.4824 0.05474 0.0
H135 H 0.57368 0.46492 0.95174 0.0
H136 H 0.57288 0.60312 0.96073 0.0
H137 H 0.57426 0.53481 0.00851 0.0
H138 H 0.45507 0.51561 0.92002 0.0
H139 H 0.45364 0.58416 0.87144 0.0
C140 C 0.48449 0.42483 0.07119 0.0
C141 C 0.51724 0.39987 0.05564 0.0
C142 C 0.48351 0.46385 0.04262 0.0
C143 C 0.51553 0.47882 -0.00088 0.0
C144 C 0.54866 0.4542 -0.01469 0.0
C145 C 0.54939 0.41511 0.01278 0.0
C146 C 0.54705 0.58428 0.95083 0.0
C147 C 0.51316 0.59905 0.91216 0.0
C148 C 0.5479 0.54516 0.97814 0.0
C149 C 0.51468 0.52005 0.96839 0.0
C150 C 0.48092 0.53453 0.92899 0.0
C151 C 0.48028 0.57359 0.90054 0.0
H152 H 0.83401 0.22699 0.40414 0.0
H153 H 0.87037 0.28387 0.19269 0.0
H154 H 0.76564 0.22243 0.35519 0.0
H155 H 0.80299 0.27776 0.14269 0.0
H156 H 0.67032 0.29716 0.10274 0.0
H157 H 0.73801 0.3027 0.15293 0.0
H158 H 0.72518 0.18828 0.2647 0.0
H159 H 0.65679 0.18365 0.2171 0.0
C160 C 0.82745 0.23847 0.34728 0.0
C161 C 0.85765 0.256 0.30266 0.0
C162 C 0.78832 0.23554 0.31882 0.0
C163 C 0.77863 0.24964 0.24472 0.0
C164 C 0.80896 0.26724 0.20045 0.0
C165 C 0.8478 0.27061 0.22918 0.0
C166 C 0.68207 0.27299 0.13738 0.0
C167 C 0.65812 0.23996 0.15583 0.0
C168 C 0.72101 0.27611 0.16619 0.0
C169 C 0.73722 0.24601 0.21334 0.0
C170 C 0.71353 0.21246 0.23004 0.0
C171 C 0.6744 0.20959 0.202 0.0
H172 H 0.33295 0.22876 0.06254 0.0
H173 H 0.36906 0.28748 0.2728 0.0
H174 H 0.26479 0.22348 0.11139 0.0
H175 H 0.30198 0.28057 0.32285 0.0
H176 H 0.16951 0.29719 0.36429 0.0
H177 H 0.23665 0.30391 0.3132 0.0
H178 H 0.22511 0.18916 0.20187 0.0
H179 H 0.15707 0.18342 0.25024 0.0
C180 C 0.32636 0.24055 0.11908 0.0
C181 C 0.35644 0.25875 0.16344 0.0
C182 C 0.28736 0.23717 0.14753 0.0
C183 C 0.2777 0.25146 0.22139 0.0
C184 C 0.30789 0.26986 0.26527 0.0
C185 C 0.34657 0.27371 0.23651 0.0
C186 C 0.18143 0.27319 0.32956 0.0
C187 C 0.15792 0.23974 0.3115 0.0
C188 C 0.22008 0.277 0.30023 0.0
C189 C 0.23651 0.24715 0.25299 0.0
C190 C 0.21327 0.21317 0.2366 0.0
C191 C 0.17437 0.20964 0.26509 0.0
H192 H 0.34817 0.68484 0.75149 0.0
H193 H 0.33591 0.79834 0.86644 0.0
H194 H 0.2798 0.69019 0.70406 0.0
H195 H 0.26829 0.80464 0.81632 0.0
H196 H 0.13551 0.78692 0.77599 0.0
H197 H 0.20294 0.78075 0.82588 0.0
H198 H 0.23984 0.72461 0.61384 0.0
H199 H 0.17148 0.72917 0.56518 0.0
C200 C 0.33084 0.71093 0.76672 0.0
C201 C 0.34746 0.74108 0.81302 0.0
C202 C 0.29173 0.71423 0.73879 0.0
C203 C 0.26842 0.74802 0.75562 0.0
C204 C 0.28497 0.77789 0.80293 0.0
C205 C 0.32387 0.77433 0.8317 0.0
C206 C 0.15802 0.77352 0.73958 0.0
C207 C 0.14803 0.75857 0.66642 0.0
C208 C 0.19689 0.7701 0.76823 0.0
C209 C 0.22707 0.75212 0.72416 0.0
C210 C 0.21728 0.73793 0.65016 0.0
C211 C 0.17815 0.74089 0.62183 0.0
H212 H 0.54693 0.9139 0.86535 0.0
H213 H 0.42959 0.8978 0.96385 0.0
H214 H 0.54832 0.98251 0.91388 0.0
H215 H 0.43099 0.96613 0.01153 0.0
H216 H 0.43327 0.10422 0.00272 0.0
H217 H 0.43193 0.03602 0.95433 0.0
H218 H 0.54956 0.0156 0.04919 0.0
H219 H 0.55094 0.08406 0.09842 0.0
C220 C 0.52129 0.92513 0.89645 0.0
C221 C 0.48814 0.90046 0.9107 0.0
C222 C 0.52227 0.96419 0.92485 0.0
C223 C 0.48986 0.97947 0.96681 0.0
C224 C 0.45632 0.95516 0.97917 0.0
C225 C 0.45558 0.91603 0.95191 0.0
C226 C 0.45876 0.08515 0.01386 0.0
C227 C 0.4922 0.09952 0.05456 0.0
C228 C 0.45793 0.04609 -0.01382 0.0
C229 C 0.49074 0.02067 -0.0024 0.0
C230 C 0.52405 0.03478 0.03893 0.0
C231 C 0.52465 0.07377 0.06775 0.0
H232 H 0.01548 0.92051 0.65633 0.0
H233 H 0.96655 0.88484 0.43638 0.0
H234 H 0.01815 0.98973 0.61159 0.0
H235 H 0.96959 0.95362 0.39209 0.0
H236 H 0.02413 0.07492 0.3177 0.0
H237 H 0.0237 0.00566 0.3625 0.0
H238 H 0.9663 0.04245 0.57275 0.0
H239 H 0.96635 0.11126 0.52837 0.0
C240 C 0.00531 0.92739 0.59865 0.0
C241 C 0.9906 0.89719 0.55018 0.0
C242 C 0.00678 0.96695 0.57311 0.0
C243 C 0.99421 0.97691 0.49827 0.0
C244 C 0.97984 0.94671 0.44973 0.0
C245 C 0.9778 0.90737 0.47552 0.0
C246 C 0.01135 0.06818 0.37334 0.0
C247 C 0.99509 0.09859 0.41917 0.0
C248 C 0.01105 0.02859 0.39889 0.0
C249 C 0.99511 0.01881 0.47123 0.0
C250 C 0.97914 0.04921 0.51715 0.0
C251 C 0.97889 0.08858 0.49125 0.0
H252 H 0.00172 0.18392 0.05613 0.0
H253 H 0.01795 0.3118 0.05763 0.0
H254 H 0.0014 0.18449 0.91558 0.0
H255 H 0.01796 0.31211 0.91721 0.0
H256 H 0.06235 0.28463 0.66947 0.0
H257 H 0.06317 0.28387 0.80997 0.0
H258 H 0.95491 0.21377 0.8105 0.0
H259 H 0.95374 0.21468 0.67002 0.0
C260 C 0.00538 0.21209 0.02654 0.0
C261 C 0.00981 0.24782 0.06797 0.0
C262 C 0.00498 0.2124 0.94621 0.0
C263 C 0.00964 0.24834 0.90583 0.0
C264 C 0.01457 0.28399 0.9471 0.0
C265 C 0.01435 0.28378 0.02739 0.0
C266 C 0.03872 0.26905 0.69952 0.0
C267 C 0.00795 0.24976 0.65869 0.0
C268 C 0.03913 0.26879 0.77984 0.0
C269 C 0.00914 0.24873 0.8208 0.0
C270 C 0.97853 0.2292 0.78013 0.0
C271 C 0.97776 0.22996 0.69983 0.0
H272 H 0.95994 0.69202 0.91228 0.0
H273 H 0.03109 0.79966 0.91454 0.0
H274 H 0.96078 0.69104 0.05289 0.0
H275 H 0.03208 0.79834 0.05488 0.0
H276 H 0.06212 0.75215 0.29965 0.0
H277 H 0.06123 0.75184 0.15916 0.0
H278 H 0.93314 0.73619 0.161 0.0
H279 H 0.93377 0.7368 0.30145 0.0
C280 C 0.9758 0.71539 0.94272 0.0
C281 C 0.99541 0.74595 0.90235 0.0
C282 C 0.9761 0.7149 0.02308 0.0
C283 C 0.99656 0.74457 0.06446 0.0
C284 C 0.01636 0.77495 0.02421 0.0
C285 C 0.01555 0.77581 0.94396 0.0
C286 C 0.03377 0.74854 0.27015 0.0
C287 C 0.998 0.74459 0.31166 0.0
C288 C 0.03328 0.74856 0.18983 0.0
C289 C 0.99712 0.74403 0.1495 0.0
C290 C 0.96144 0.73948 0.19084 0.0
C291 C 0.96182 0.74005 0.27115 0.0
H292 H 0.44535 0.78557 0.16833 0.0
H293 H 0.55189 0.71266 0.17047 0.0
H294 H 0.4445 0.785 0.30867 0.0
H295 H 0.55071 0.71196 0.31105 0.0
H296 H 0.50269 0.68436 0.5569 0.0
H297 H 0.50362 0.68438 0.41634 0.0
H298 H 0.4902 0.81236 0.4158 0.0
H299 H 0.48958 0.81258 0.55616 0.0
C300 C 0.46852 0.76935 0.1987 0.0
C301 C 0.49872 0.74918 0.15831 0.0
C302 C 0.46811 0.76921 0.27896 0.0
C303 C 0.49752 0.74844 0.32044 0.0
C304 C 0.52753 0.72798 0.28027 0.0
C305 C 0.52832 0.7286 0.19993 0.0
C306 C 0.49985 0.71249 0.52682 0.0
C307 C 0.49606 0.74847 0.56764 0.0
C308 C 0.50063 0.71249 0.44648 0.0
C309 C 0.49699 0.74837 0.40549 0.0
C310 C 0.4928 0.78427 0.44615 0.0
C311 C 0.49262 0.78437 0.52643 0.0
H312 H 0.54441 0.19518 0.41297 0.0
H313 H 0.47288 0.30249 0.41249 0.0
H314 H 0.54395 0.19507 0.55359 0.0
H315 H 0.47223 0.30201 0.55288 0.0
H316 H 0.44267 0.25585 0.79834 0.0
H317 H 0.44342 0.25555 0.65784 0.0
H318 H 0.57165 0.24127 0.66095 0.0
H319 H 0.57115 0.24194 0.80143 0.0
C320 C 0.52855 0.21866 0.44281 0.0
C321 C 0.50872 0.24887 0.40166 0.0
C322 C 0.52847 0.21867 0.52317 0.0
C323 C 0.50801 0.2485 0.56379 0.0
C324 C 0.48797 0.27853 0.52278 0.0
C325 C 0.48857 0.27889 0.44251 0.0
C326 C 0.47102 0.2526 0.7691 0.0
C327 C 0.50686 0.24898 0.81097 0.0
C328 C 0.47143 0.25262 0.68878 0.0
C329 C 0.50759 0.24838 0.64883 0.0
C330 C 0.54336 0.24433 0.69052 0.0
C331 C 0.54305 0.24494 0.77083 0.0
loop_
_geom_bond_atom_site_label_1
_geom_bond_atom_site_label_2
_geom_bond_distance
_geom_bond_site_symmetry_2
_ccdc_geom_bond_type
O0 Zn1 1.953 . S
O0 C16 1.225 . S
Zn1 O0 1.953 . S
Zn1 O2 1.949 . S
Zn1 O8 1.919 . S
Zn1 O13 1.924 . S
O2 Zn1 1.949 . S
O2 Zn3 1.923 . S
O2 Zn4 1.950 1_455 S
O2 Zn5 1.945 1_455 S
Zn3 O2 1.923 . S
Zn3 O6 1.933 . S
Zn3 O9 1.941 . S
Zn3 O10 1.965 . S
Zn4 O2 1.950 1_655 S
Zn4 O11 1.938 . S
Zn4 O12 1.906 . S
Zn4 O22 1.953 . S
Zn5 O2 1.945 1_655 S
Zn5 O7 1.932 . S
Zn5 O14 1.977 . S
Zn5 O15 1.910 . S
O6 Zn3 1.933 . S
O6 C17 1.226 . S
O7 Zn5 1.932 . S
O7 C17 1.307 1_655 S
O8 Zn1 1.919 . S
O8 C19 1.253 . S
O9 Zn3 1.941 . S
O9 C19 1.283 . S
O10 Zn3 1.965 . S
O10 C18 1.303 . S
O11 Zn4 1.938 . S
O11 C18 1.247 1_655 S
O12 Zn4 1.906 . S
O12 C20 1.304 . S
O13 Zn1 1.924 . S
O13 C21 1.311 . S
O14 Zn5 1.977 . S
O14 C20 1.272 . S
O15 Zn5 1.910 . S
O15 C21 1.231 1_655 S
C16 O0 1.225 . S
C16 O22 1.298 1_455 S
C17 O6 1.226 . S
C17 O7 1.307 1_455 S
C18 O10 1.303 . S
C18 O11 1.247 1_455 S
C19 O8 1.253 . S
C19 O9 1.283 . S
C20 O12 1.304 . S
C20 O14 1.272 . S
C21 O13 1.311 . S
C21 O15 1.231 1_455 S
O22 Zn4 1.953 . S
O22 C16 1.298 1_655 S
O23 Zn24 1.953 . S
O23 C39 1.225 . S
Zn24 O23 1.953 . S
Zn24 O25 1.949 . S
Zn24 O31 1.919 . S
Zn24 O36 1.924 . S
O25 Zn24 1.949 . S
O25 Zn26 1.923 . S
O25 Zn27 1.950 1_455 S
O25 Zn28 1.945 1_455 S
Zn26 O25 1.923 . S
Zn26 O29 1.933 . S
Zn26 O32 1.941 . S
Zn26 O33 1.965 . S
Zn27 O25 1.950 1_655 S
Zn27 O34 1.938 . S
Zn27 O35 1.906 . S
Zn27 O45 1.953 . S
Zn28 O25 1.945 1_655 S
Zn28 O30 1.932 . S
Zn28 O37 1.977 . S
Zn28 O38 1.910 . S
O29 Zn26 1.933 . S
O29 C40 1.226 . S
O30 Zn28 1.932 . S
O30 C40 1.307 1_655 S
O31 Zn24 1.919 . S
O31 C42 1.253 . S
O32 Zn26 1.941 . S
O32 C42 1.283 . S
O33 Zn26 1.965 . S
O33 C41 1.303 1_455 S
O34 Zn27 1.938 . S
O34 C41 1.247 . S
O35 Zn27 1.906 . S
O35 C43 1.304 . S
O36 Zn24 1.924 . S
O36 C44 1.311 . S
O37 Zn28 1.977 . S
O37 C43 1.272 . S
O38 Zn28 1.910 . S
O38 C44 1.231 1_655 S
C39 O23 1.225 . S
C39 O45 1.298 1_455 S
C40 O29 1.226 . S
C40 O30 1.307 1_455 S
C41 O33 1.303 1_655 S
C41 O34 1.247 . S
C42 O31 1.253 . S
C42 O32 1.283 . S
C43 O35 1.304 . S
C43 O37 1.272 . S
C44 O36 1.311 . S
C44 O38 1.231 1_455 S
O45 Zn27 1.953 . S
O45 C39 1.298 1_655 S
O46 Zn47 1.953 . S
O46 C62 1.225 . S
Zn47 O46 1.953 . S
Zn47 O48 1.949 . S
Zn47 O54 1.919 . S
Zn47 O59 1.924 . S
O48 Zn47 1.949 . S
O48 Zn49 1.923 . S
O48 Zn50 1.950 . S
O48 Zn51 1.945 . S
Zn49 O48 1.923 . S
Zn49 O52 1.933 1_556 S
Zn49 O55 1.941 . S
Zn49 O56 1.965 . S
Zn50 O48 1.950 . S
Zn50 O57 1.938 . S
Zn50 O58 1.906 . S
Zn50 O68 1.953 . S
Zn51 O48 1.945 . S
Zn51 O53 1.932 1_556 S
Zn51 O60 1.977 . S
Zn51 O61 1.910 . S
O52 Zn49 1.933 1_554 S
O52 C63 1.226 . S
O53 Zn51 1.932 1_554 S
O53 C63 1.307 . S
O54 Zn47 1.919 . S
O54 C65 1.253 . S
O55 Zn49 1.941 . S
O55 C65 1.283 . S
O56 Zn49 1.965 . S
O56 C64 1.303 . S
O57 Zn50 1.938 . S
O57 C64 1.247 . S
O58 Zn50 1.906 . S
O58 C66 1.304 . S
O59 Zn47 1.924 . S
O59 C67 1.311 . S
O60 Zn51 1.977 . S
O60 C66 1.272 . S
O61 Zn51 1.910 . S
O61 C67 1.231 . S
C62 O46 1.225 . S
C62 O68 1.298 . S
C63 O52 1.226 . S
C63 O53 1.307 . S
C64 O56 1.303 . S
C64 O57 1.247 . S
C65 O54 1.253 . S
C65 O55 1.283 . S
C66 O58 1.304 . S
C66 O60 1.272 . S
C67 O59 1.311 . S
C67 O61 1.231 . S
O68 Zn50 1.953 . S
O68 C62 1.298 . S
O69 Zn70 1.953 . S
O69 C85 1.225 . S
Zn70 O69 1.953 . S
Zn70 O71 1.949 . S
Zn70 O77 1.919 . S
Zn70 O82 1.924 . S
O71 Zn70 1.949 . S
O71 Zn72 1.923 . S
O71 Zn73 1.950 . S
O71 Zn74 1.945 . S
Zn72 O71 1.923 . S
Zn72 O75 1.933 1_554 S
Zn72 O78 1.941 . S
Zn72 O79 1.965 . S
Zn73 O71 1.950 . S
Zn73 O80 1.938 . S
Zn73 O81 1.906 . S
Zn73 O91 1.953 . S
Zn74 O71 1.945 . S
Zn74 O76 1.932 1_554 S
Zn74 O83 1.977 . S
Zn74 O84 1.910 . S
O75 Zn72 1.933 1_556 S
O75 C86 1.226 . S
O76 Zn74 1.932 1_556 S
O76 C86 1.307 . S
O77 Zn70 1.919 . S
O77 C88 1.253 . S
O78 Zn72 1.941 . S
O78 C88 1.283 . S
O79 Zn72 1.965 . S
O79 C87 1.303 . S
O80 Zn73 1.938 . S
O80 C87 1.247 . S
O81 Zn73 1.906 . S
O81 C89 1.304 . S
O82 Zn70 1.924 . S
O82 C90 1.311 . S
O83 Zn74 1.977 . S
O83 C89 1.272 . S
O84 Zn74 1.910 . S
O84 C90 1.231 . S
C85 O69 1.225 . S
C85 O91 1.298 . S
C86 O75 1.226 . S
C86 O76 1.307 . S
C87 O79 1.303 . S
C87 O80 1.247 . S
C88 O77 1.253 . S
C88 O78 1.283 . S
C89 O81 1.304 . S
C89 O83 1.272 . S
C90 O82 1.311 . S
C90 O84 1.231 . S
O91 Zn73 1.953 . S
O91 C85 1.298 . S
H92 C100 0.950 . S
H93 C105 0.950 . S
H94 C102 0.950 . S
H95 C104 0.950 . S
H96 C106 0.950 . S
H97 C108 0.950 . S
H98 C110 0.950 . S
H99 C111 0.950 . S
C100 H92 0.950 . S
C100 C101 1.386 1_655 S
C100 C102 1.391 . S
C101 C100 1.386 1_455 S
C101 C105 1.393 . S
C102 H94 0.950 . S
C102 C100 1.391 . S
C102 C103 1.400 1_655 S
C103 C102 1.400 1_455 S
C103 C104 1.398 . S
C103 C109 1.491 . S
C104 H95 0.950 . S
C104 C103 1.398 . S
C104 C105 1.391 . S
C105 H93 0.950 . S
C105 C101 1.393 . S
C105 C104 1.391 . S
C106 H96 0.950 . S
C106 C107 1.402 . S
C106 C108 1.391 . S
C107 C106 1.402 . S
C107 C111 1.377 1_455 S
C108 H97 0.950 . S
C108 C106 1.391 . S
C108 C109 1.400 . S
C109 C103 1.491 . S
C109 C108 1.400 . S
C109 C110 1.398 1_455 S
C110 H98 0.950 . S
C110 C109 1.398 1_655 S
C110 C111 1.391 . S
C111 H99 0.950 . S
C111 C107 1.377 1_655 S
C111 C110 1.391 . S
H112 C120 0.950 . S
H113 C125 0.950 . S
H114 C122 0.950 . S
H115 C124 0.950 . S
H116 C126 0.950 . S
H117 C128 0.950 . S
H118 C130 0.950 . S
H119 C131 0.950 . S
C120 H112 0.950 . S
C120 C121 1.386 . S
C120 C122 1.391 . S
C121 C120 1.386 . S
C121 C125 1.393 . S
C122 H114 0.950 . S
C122 C120 1.391 . S
C122 C123 1.400 . S
C123 C122 1.400 . S
C123 C124 1.398 . S
C123 C129 1.491 . S
C124 H115 0.950 . S
C124 C123 1.398 . S
C124 C125 1.391 . S
C125 H113 0.950 . S
C125 C121 1.393 . S
C125 C124 1.391 . S
C126 H116 0.950 . S
C126 C127 1.386 . S
C126 C128 1.391 . S
C127 C126 1.386 . S
C127 C131 1.393 . S
C128 H117 0.950 . S
C128 C126 1.391 . S
C128 C129 1.400 . S
C129 C123 1.491 . S
C129 C128 1.400 . S
C129 C130 1.398 . S
C130 H118 0.950 . S
C130 C129 1.398 . S
C130 C131 1.391 . S
C131 H119 0.950 . S
C131 C127 1.393 . S
C131 C130 1.391 . S
H132 C140 0.950 . S
H133 C145 0.950 1_556 S
H134 C142 0.950 . S
H135 C144 0.950 . S
H136 C146 0.950 . S
H137 C148 0.950 . S
H138 C150 0.950 . S
H139 C151 0.950 1_554 S
C140 H132 0.950 . S
C140 C141 1.386 . S
C140 C142 1.391 . S
C141 C140 1.386 . S
C141 C145 1.393 . S
C142 H134 0.950 . S
C142 C140 1.391 . S
C142 C143 1.400 . S
C143 C142 1.400 . S
C143 C144 1.398 1_554 S
C143 C149 1.491 1_554 S
C144 H135 0.950 . S
C144 C143 1.398 1_556 S
C144 C145 1.391 1_556 S
C145 H133 0.950 1_554 S
C145 C141 1.393 . S
C145 C144 1.391 1_554 S
C146 H136 0.950 . S
C146 C147 1.386 . S
C146 C148 1.391 . S
C147 C146 1.386 . S
C147 C151 1.393 . S
C148 H137 0.950 . S
C148 C146 1.391 . S
C148 C149 1.400 . S
C149 C143 1.491 1_556 S
C149 C148 1.400 . S
C149 C150 1.398 1_556 S
C150 H138 0.950 . S
C150 C149 1.398 1_554 S
C150 C151 1.391 1_554 S
C151 H139 0.950 1_556 S
C151 C147 1.393 . S
C151 C150 1.391 1_556 S
H152 C160 0.950 . S
H153 C165 0.950 . S
H154 C162 0.950 . S
H155 C164 0.950 . S
H156 C166 0.950 . S
H157 C168 0.950 . S
H158 C170 0.950 . S
H159 C171 0.950 . S
C160 H152 0.950 . S
C160 C161 1.386 . S
C160 C162 1.391 . S
C161 C160 1.386 . S
C161 C165 1.393 . S
C162 H154 0.950 . S
C162 C160 1.391 . S
C162 C163 1.400 . S
C163 C162 1.400 . S
C163 C164 1.398 . S
C163 C169 1.491 . S
C164 H155 0.950 . S
C164 C163 1.398 . S
C164 C165 1.391 . S
C165 H153 0.950 . S
C165 C161 1.393 . S
C165 C164 1.391 . S
C166 H156 0.950 . S
C166 C167 1.386 . S
C166 C168 1.391 . S
C167 C166 1.386 . S
C167 C171 1.393 . S
C168 H157 0.950 . S
C168 C166 1.391 . S
C168 C169 1.400 . S
C169 C163 1.491 . S
C169 C168 1.400 . S
C169 C170 1.398 . S
C170 H158 0.950 . S
C170 C169 1.398 . S
C170 C171 1.391 . S
C171 H159 0.950 . S
C171 C167 1.393 . S
C171 C170 1.391 . S
H172 C180 0.950 . S
H173 C185 0.950 . S
H174 C182 0.950 . S
H175 C184 0.950 . S
H176 C186 0.950 . S
H177 C188 0.950 . S
H178 C190 0.950 . S
H179 C191 0.950 . S
C180 H172 0.950 . S
C180 C181 1.386 . S
C180 C182 1.391 . S
C181 C180 1.386 . S
C181 C185 1.393 . S
C182 H174 0.950 . S
C182 C180 1.391 . S
C182 C183 1.400 . S
C183 C182 1.400 . S
C183 C184 1.398 . S
C183 C189 1.491 . S
C184 H175 0.950 . S
C184 C183 1.398 . S
C184 C185 1.391 . S
C185 H173 0.950 . S
C185 C181 1.393 . S
C185 C184 1.391 . S
C186 H176 0.950 . S
C186 C187 1.386 . S
C186 C188 1.391 . S
C187 C186 1.386 . S
C187 C191 1.393 . S
C188 H177 0.950 . S
C188 C186 1.391 . S
C188 C189 1.400 . S
C189 C183 1.491 . S
C189 C188 1.400 . S
C189 C190 1.398 . S
C190 H178 0.950 . S
C190 C189 1.398 . S
C190 C191 1.391 . S
C191 H179 0.950 . S
C191 C187 1.393 . S
C191 C190 1.391 . S
H192 C200 0.950 . S
H193 C205 0.950 . S
H194 C202 0.950 . S
H195 C204 0.950 . S
H196 C206 0.950 . S
H197 C208 0.950 . S
H198 C210 0.950 . S
H199 C211 0.950 . S
C200 H192 0.950 . S
C200 C201 1.386 . S
C200 C202 1.391 . S
C201 C200 1.386 . S
C201 C205 1.393 . S
C202 H194 0.950 . S
C202 C200 1.391 . S
C202 C203 1.400 . S
C203 C202 1.400 . S
C203 C204 1.398 . S
C203 C209 1.491 . S
C204 H195 0.950 . S
C204 C203 1.398 . S
C204 C205 1.391 . S
C205 H193 0.950 . S
C205 C201 1.393 . S
C205 C204 1.391 . S
C206 H196 0.950 . S
C206 C207 1.386 . S
C206 C208 1.391 . S
C207 C206 1.386 . S
C207 C211 1.393 . S
C208 H197 0.950 . S
C208 C206 1.391 . S
C208 C209 1.400 . S
C209 C203 1.491 . S
C209 C208 1.400 . S
C209 C210 1.398 . S
C210 H198 0.950 . S
C210 C209 1.398 . S
C210 C211 1.391 . S
C211 H199 0.950 . S
C211 C207 1.393 . S
C211 C210 1.391 . S
H212 C220 0.950 . S
H213 C225 0.950 . S
H214 C222 0.950 1_554 S
H215 C224 0.950 . S
H216 C226 0.950 . S
H217 C228 0.950 1_556 S
H218 C230 0.950 . S
H219 C231 0.950 . S
C220 H212 0.950 . S
C220 C221 1.386 . S
C220 C222 1.391 . S
C221 C220 1.386 . S
C221 C225 1.393 . S
C222 H214 0.950 1_556 S
C222 C220 1.391 . S
C222 C223 1.400 . S
C223 C222 1.400 . S
C223 C224 1.398 . S
C223 C229 1.491 1_566 S
C224 H215 0.950 . S
C224 C223 1.398 . S
C224 C225 1.391 . S
C225 H213 0.950 . S
C225 C221 1.393 . S
C225 C224 1.391 . S
C226 H216 0.950 . S
C226 C227 1.386 . S
C226 C228 1.391 . S
C227 C226 1.386 . S
C227 C231 1.393 . S
C228 H217 0.950 1_554 S
C228 C226 1.391 . S
C228 C229 1.400 . S
C229 C223 1.491 1_544 S
C229 C228 1.400 . S
C229 C230 1.398 . S
C230 H218 0.950 . S
C230 C229 1.398 . S
C230 C231 1.391 . S
C231 H219 0.950 . S
C231 C227 1.393 . S
C231 C230 1.391 . S
H232 C240 0.950 . S
H233 C245 0.950 . S
H234 C242 0.950 . S
H235 C244 0.950 . S
H236 C246 0.950 . S
H237 C248 0.950 . S
H238 C250 0.950 . S
H239 C251 0.950 . S
C240 H232 0.950 . S
C240 C241 1.386 1_655 S
C240 C242 1.391 . S
C241 C240 1.386 1_455 S
C241 C245 1.393 . S
C242 H234 0.950 . S
C242 C240 1.391 . S
C242 C243 1.400 1_655 S
C243 C242 1.400 1_455 S
C243 C244 1.398 . S
C243 C249 1.491 1_565 S
C244 H235 0.950 . S
C244 C243 1.398 . S
C244 C245 1.391 . S
C245 H233 0.950 . S
C245 C241 1.393 . S
C245 C244 1.391 . S
C246 H236 0.950 . S
C246 C247 1.386 . S
C246 C248 1.391 . S
C247 C246 1.386 . S
C247 C251 1.393 1_455 S
C248 H237 0.950 . S
C248 C246 1.391 . S
C248 C249 1.400 . S
C249 C243 1.491 1_545 S
C249 C248 1.400 . S
C249 C250 1.398 1_455 S
C250 H238 0.950 . S
C250 C249 1.398 1_655 S
C250 C251 1.391 . S
C251 H239 0.950 . S
C251 C247 1.393 1_655 S
C251 C250 1.391 . S
H252 C260 0.950 . S
H253 C265 0.950 . S
H254 C262 0.950 . S
H255 C264 0.950 . S
H256 C266 0.950 . S
H257 C268 0.950 . S
H258 C270 0.950 . S
H259 C271 0.950 . S
C260 H252 0.950 . S
C260 C261 1.386 1_655 S
C260 C262 1.391 1_554 S
C261 C260 1.386 1_455 S
C261 C265 1.393 . S
C262 H254 0.950 . S
C262 C260 1.391 1_556 S
C262 C263 1.400 1_655 S
C263 C262 1.400 1_455 S
C263 C264 1.398 . S
C263 C269 1.491 . S
C264 H255 0.950 . S
C264 C263 1.398 . S
C264 C265 1.391 1_556 S
C265 H253 0.950 . S
C265 C261 1.393 . S
C265 C264 1.391 1_554 S
C266 H256 0.950 . S
C266 C267 1.386 . S
C266 C268 1.391 . S
C267 C266 1.386 . S
C267 C271 1.393 1_455 S
C268 H257 0.950 . S
C268 C266 1.391 . S
C268 C269 1.400 . S
C269 C263 1.491 . S
C269 C268 1.400 . S
C269 C270 1.398 1_455 S
C270 H258 0.950 . S
C270 C269 1.398 1_655 S
C270 C271 1.391 . S
C271 H259 0.950 . S
C271 C267 1.393 1_655 S
C271 C270 1.391 . S
H272 C280 0.950 . S
H273 C285 0.950 . S
H274 C282 0.950 . S
H275 C284 0.950 . S
H276 C286 0.950 . S
H277 C288 0.950 . S
H278 C290 0.950 . S
H279 C291 0.950 . S
C280 H272 0.950 . S
C280 C281 1.386 1_655 S
C280 C282 1.391 1_556 S
C281 C280 1.386 1_455 S
C281 C285 1.393 . S
C282 H274 0.950 . S
C282 C280 1.391 1_554 S
C282 C283 1.400 1_655 S
C283 C282 1.400 1_455 S
C283 C284 1.398 . S
C283 C289 1.491 . S
C284 H275 0.950 . S
C284 C283 1.398 . S
C284 C285 1.391 1_554 S
C285 H273 0.950 . S
C285 C281 1.393 . S
C285 C284 1.391 1_556 S
C286 H276 0.950 . S
C286 C287 1.386 . S
C286 C288 1.391 . S
C287 C286 1.386 . S
C287 C291 1.393 1_455 S
C288 H277 0.950 . S
C288 C286 1.391 . S
C288 C289 1.400 . S
C289 C283 1.491 . S
C289 C288 1.400 . S
C289 C290 1.398 1_455 S
C290 H278 0.950 . S
C290 C289 1.398 1_655 S
C290 C291 1.391 . S
C291 H279 0.950 . S
C291 C287 1.393 1_655 S
C291 C290 1.391 . S
H292 C300 0.950 . S
H293 C305 0.950 . S
H294 C302 0.950 . S
H295 C304 0.950 . S
H296 C306 0.950 . S
H297 C308 0.950 . S
H298 C310 0.950 . S
H299 C311 0.950 . S
C300 H292 0.950 . S
C300 C301 1.386 . S
C300 C302 1.391 . S
C301 C300 1.386 . S
C301 C305 1.393 . S
C302 H294 0.950 . S
C302 C300 1.391 . S
C302 C303 1.400 . S
C303 C302 1.400 . S
C303 C304 1.398 . S
C303 C309 1.491 . S
C304 H295 0.950 . S
C304 C303 1.398 . S
C304 C305 1.391 . S
C305 H293 0.950 . S
C305 C301 1.393 . S
C305 C304 1.391 . S
C306 H296 0.950 . S
C306 C307 1.386 . S
C306 C308 1.391 . S
C307 C306 1.386 . S
C307 C311 1.393 . S
C308 H297 0.950 . S
C308 C306 1.391 . S
C308 C309 1.400 . S
C309 C303 1.491 . S
C309 C308 1.400 . S
C309 C310 1.398 . S
C310 H298 0.950 . S
C310 C309 1.398 . S
C310 C311 1.391 . S
C311 H299 0.950 . S
C311 C307 1.393 . S
C311 C310 1.391 . S
H312 C320 0.950 . S
H313 C325 0.950 . S
H314 C322 0.950 . S
H315 C324 0.950 . S
H316 C326 0.950 . S
H317 C328 0.950 . S
H318 C330 0.950 . S
H319 C331 0.950 . S
C320 H312 0.950 . S
C320 C321 1.386 . S
C320 C322 1.391 . S
C321 C320 1.386 . S
C321 C325 1.393 . S
C322 H314 0.950 . S
C322 C320 1.391 . S
C322 C323 1.400 . S
C323 C322 1.400 . S
C323 C324 1.398 . S
C323 C329 1.491 . S
C324 H315 0.950 . S
C324 C323 1.398 . S
C324 C325 1.391 . S
C325 H313 0.950 . S
C325 C321 1.393 . S
C325 C324 1.391 . S
C326 H316 0.950 . S
C326 C327 1.386 . S
C326 C328 1.391 . S
C327 C326 1.386 . S
C327 C331 1.393 . S
C328 H317 0.950 . S
C328 C326 1.391 . S
C328 C329 1.400 . S
C329 C323 1.491 . S
C329 C328 1.400 . S
C329 C330 1.398 . S
C330 H318 0.950 . S
C330 C329 1.398 . S
C330 C331 1.391 . S
C331 H319 0.950 . S
C331 C327 1.393 . S
C331 C330 1.391 . S
C101 C21 1.590 . S
C107 C44 1.594 . S
C121 C64 1.619 . S
C127 C43 1.632 . S
C141 C89 1.611 . S
C147 C65 1.614 . S
C161 C20 1.566 . S
C167 C90 1.568 . S
C181 C87 1.623 . S
C187 C19 1.637 . S
C201 C67 1.570 . S
C207 C42 1.569 . S
C221 C66 1.553 . S
C227 C88 1.549 . S
C241 C41 1.639 1_455 S
C247 C18 1.623 . S
C261 C17 1.282 . S
C267 C16 1.281 . S
C281 C40 1.282 . S
C287 C39 1.281 . S
C301 C63 1.282 . S
C307 C62 1.282 . S
C321 C85 1.281 . S
C327 C86 1.279 . S
