# Generated by pormake.
# Topology une, (4)-cn, num edge types: 1
# Building blocks:
#     Node 0, Type 0, BuildingBlock: AZAVOO_clean_sbu_0, # of connection points: 4
#     Node 1, Type 0, BuildingBlock: AZAVOO_clean_sbu_0, # of connection points: 4
#     Node 2, Type 0, BuildingBlock: AZAVOO_clean_sbu_0, # of connection points: 4
#     Node 3, Type 0, BuildingBlock: AZAVOO_clean_sbu_0, # of connection points: 4
#     Node 4, Type 0, BuildingBlock: AZAVOO_clean_sbu_0, # of connection points: 4
#     Node 5, Type 0, BuildingBlock: AZAVOO_clean_sbu_0, # of connection points: 4
#     Node 6, Type 0, BuildingBlock: AZAVOO_clean_sbu_0, # of connection points: 4
#     Node 7, Type 0, BuildingBlock: AZAVOO_clean_sbu_0, # of connection points: 4
#     Node 8, Type 0, BuildingBlock: AZAVOO_clean_sbu_0, # of connection points: 4
#     Node 9, Type 0, BuildingBlock: AZAVOO_clean_sbu_0, # of connection points: 4
#     Node 10, Type 0, BuildingBlock: AZAVOO_clean_sbu_0, # of connection points: 4
#     Node 11, Type 0, BuildingBlock: AZAVOO_clean_sbu_0, # of connection points: 4
#     Node 12, Type 0, BuildingBlock: AZAVOO_clean_sbu_0, # of connection points: 4
#     Node 13, Type 0, BuildingBlock: AZAVOO_clean_sbu_0, # of connection points: 4
#     Node 14, Type 0, BuildingBlock: AZAVOO_clean_sbu_0, # of connection points: 4
#     Node 15, Type 0, BuildingBlock: AZAVOO_clean_sbu_0, # of connection points: 4
#     Node 16, Type 0, BuildingBlock: AZAVOO_clean_sbu_0, # of connection points: 4
#     Node 17, Type 0, BuildingBlock: AZAVOO_clean_sbu_0, # of connection points: 4
#     Edge 18, Type (0, 0), BuildingBlock: TEMPAE_clean_linker_10, # of connection points: 2
#     Edge 19, Type (0, 0), BuildingBlock: TEMPAE_clean_linker_10, # of connection points: 2
#     Edge 20, Type (0, 0), BuildingBlock: TEMPAE_clean_linker_10, # of connection points: 2
#     Edge 21, Type (0, 0), BuildingBlock: TEMPAE_clean_linker_10, # of connection points: 2
#     Edge 22, Type (0, 0), BuildingBlock: TEMPAE_clean_linker_10, # of connection points: 2
#     Edge 23, Type (0, 0), BuildingBlock: TEMPAE_clean_linker_10, # of connection points: 2
#     Edge 24, Type (0, 0), BuildingBlock: TEMPAE_clean_linker_10, # of connection points: 2
#     Edge 25, Type (0, 0), BuildingBlock: TEMPAE_clean_linker_10, # of connection points: 2
#     Edge 26, Type (0, 0), BuildingBlock: TEMPAE_clean_linker_10, # of connection points: 2
#     Edge 27, Type (0, 0), BuildingBlock: TEMPAE_clean_linker_10, # of connection points: 2
#     Edge 28, Type (0, 0), BuildingBlock: TEMPAE_clean_linker_10, # of connection points: 2
#     Edge 29, Type (0, 0), BuildingBlock: TEMPAE_clean_linker_10, # of connection points: 2
#     Edge 30, Type (0, 0), BuildingBlock: TEMPAE_clean_linker_10, # of connection points: 2
#     Edge 31, Type (0, 0), BuildingBlock: TEMPAE_clean_linker_10, # of connection points: 2
#     Edge 32, Type (0, 0), BuildingBlock: TEMPAE_clean_linker_10, # of connection points: 2
#     Edge 33, Type (0, 0), BuildingBlock: TEMPAE_clean_linker_10, # of connection points: 2
#     Edge 34, Type (0, 0), BuildingBlock: TEMPAE_clean_linker_10, # of connection points: 2
#     Edge 35, Type (0, 0), BuildingBlock: TEMPAE_clean_linker_10, # of connection points: 2
#     Edge 36, Type (0, 0), BuildingBlock: TEMPAE_clean_linker_10, # of connection points: 2
#     Edge 37, Type (0, 0), BuildingBlock: TEMPAE_clean_linker_10, # of connection points: 2
#     Edge 38, Type (0, 0), BuildingBlock: TEMPAE_clean_linker_10, # of connection points: 2
#     Edge 39, Type (0, 0), BuildingBlock: TEMPAE_clean_linker_10, # of connection points: 2
#     Edge 40, Type (0, 0), BuildingBlock: TEMPAE_clean_linker_10, # of connection points: 2
#     Edge 41, Type (0, 0), BuildingBlock: TEMPAE_clean_linker_10, # of connection points: 2
#     Edge 42, Type (0, 0), BuildingBlock: TEMPAE_clean_linker_10, # of connection points: 2
#     Edge 43, Type (0, 0), BuildingBlock: TEMPAE_clean_linker_10, # of connection points: 2
#     Edge 44, Type (0, 0), BuildingBlock: TEMPAE_clean_linker_10, # of connection points: 2
#     Edge 45, Type (0, 0), BuildingBlock: TEMPAE_clean_linker_10, # of connection points: 2
#     Edge 46, Type (0, 0), BuildingBlock: TEMPAE_clean_linker_10, # of connection points: 2
#     Edge 47, Type (0, 0), BuildingBlock: TEMPAE_clean_linker_10, # of connection points: 2
#     Edge 48, Type (0, 0), BuildingBlock: TEMPAE_clean_linker_10, # of connection points: 2
#     Edge 49, Type (0, 0), BuildingBlock: TEMPAE_clean_linker_10, # of connection points: 2
#     Edge 50, Type (0, 0), BuildingBlock: TEMPAE_clean_linker_10, # of connection points: 2
#     Edge 51, Type (0, 0), BuildingBlock: TEMPAE_clean_linker_10, # of connection points: 2
#     Edge 52, Type (0, 0), BuildingBlock: TEMPAE_clean_linker_10, # of connection points: 2
#     Edge 53, Type (0, 0), BuildingBlock: TEMPAE_clean_linker_10, # of connection points: 2
# Relax obj value: 0.232
# Max RMSD: 0.200
# Mean RMSD: 0.182
data_MOF--net-une--node1-AZAVOO_clean_sbu_0--edge1-TEMPAE_clean_linker_10
_symmetry_space_group_name_H-M    P1
_symmetry_Int_Tables_number       1
_symmetry_cell_setting            triclinic
loop_
_symmetry_equiv_pos_as_xyz
'x, y, z'
_cell_length_a     36.987777
_cell_length_b     37.975922
_cell_length_c     56.393658
_cell_angle_alpha  90.562749
_cell_angle_beta   88.678367
_cell_angle_gamma 120.82482
loop_
_atom_site_label
_atom_site_type_symbol
_atom_site_fract_x
_atom_site_fract_y
_atom_site_fract_z
_atom_type_partial_charge
Mg0 Mg 0.3524 0.01565 0.07164 0.0
O1 O 0.31762 0.02723 0.04243 0.0
O2 O 0.28623 0.97286 0.0185 0.0
Mg3 Mg 0.30591 0.92841 0.03069 0.0
C4 C 0.29432 0.00847 0.02482 0.0
C5 C 0.37957 0.08337 0.10656 0.0
O6 O 0.36818 0.04959 0.11852 0.0
O7 O 0.40687 0.03087 0.04538 0.0
O8 O 0.37398 0.97698 0.02105 0.0
O9 O 0.29188 0.98391 0.09215 0.0
O10 O 0.31291 0.95274 0.06691 0.0
C11 C 0.4063 0.01096 0.02684 0.0
C12 C 0.28328 0.95155 0.08001 0.0
O13 O 0.38013 0.08174 0.08406 0.0
Mg14 Mg 0.98397 0.35421 0.06263 0.0
O15 O 0.95637 0.30634 0.0332 0.0
O16 O 0.00312 0.32368 0.00323 0.0
Mg17 Mg 0.05937 0.38615 0.01225 0.0
C18 C 0.96743 0.29913 0.01297 0.0
C19 C 0.92441 0.31552 0.10459 0.0
O20 O 0.96263 0.33411 0.11307 0.0
O21 O 0.969 0.39684 0.04124 0.0
O22 O 0.01561 0.4121 0.0113 0.0
O23 O 0.01437 0.32094 0.07608 0.0
O24 O 0.04485 0.37156 0.05004 0.0
C25 C 0.98587 0.41471 0.02146 0.0
C26 C 0.04488 0.3421 0.06114 0.0
O27 O 0.92022 0.32017 0.08269 0.0
Mg28 Mg 0.65856 0.66008 0.09844 0.0
O29 O 0.69971 0.67736 0.06464 0.0
O30 O 0.67127 0.69673 0.03681 0.0
Mg31 Mg 0.6114 0.69202 0.0526 0.0
C32 C 0.6999 0.69008 0.04372 0.0
C33 C 0.71827 0.65806 0.13343 0.0
O34 O 0.71096 0.68679 0.14074 0.0
O35 O 0.60996 0.59832 0.08061 0.0
O36 O 0.5822 0.62313 0.05545 0.0
O37 O 0.69387 0.72698 0.10869 0.0
O38 O 0.63569 0.69772 0.0882 0.0
C39 C 0.58322 0.59323 0.06481 0.0
C40 C 0.66669 0.73057 0.09665 0.0
O41 O 0.69849 0.63652 0.11553 0.0
Mg42 Mg 0.67514 0.94705 0.9393 0.0
O43 O 0.73729 0.0072 0.9443 0.0
O44 O 0.78813 0.99261 0.94851 0.0
Mg45 Mg 0.75947 0.92381 0.94393 0.0
C46 C 0.77565 0.01828 0.94783 0.0
C47 C 0.60301 0.95882 0.93897 0.0
O48 O 0.58947 0.91996 0.94318 0.0
O49 O 0.69201 0.94373 0.90036 0.0
O50 O 0.74233 0.92861 0.90584 0.0
O51 O 0.66726 0.93972 0.9784 0.0
O52 O 0.69868 0.91457 0.95612 0.0
C53 C 0.71958 0.9357 0.89226 0.0
C54 C 0.68791 0.92073 0.97691 0.0
O55 O 0.64142 0.98187 0.93279 0.0
Mg56 Mg 0.0343 0.74236 0.93811 0.0
O57 O 0.97163 0.74063 0.94392 0.0
O58 O 0.98771 0.80576 0.94685 0.0
Mg59 Mg 0.0583 0.84867 0.94119 0.0
C60 C 0.96087 0.76736 0.94739 0.0
C61 C 0.02575 0.66185 0.94058 0.0
O62 O 0.06481 0.69074 0.9446 0.0
O63 O 0.04015 0.76073 0.8987 0.0
O64 O 0.05647 0.82597 0.9031 0.0
O65 O 0.04124 0.74456 0.97706 0.0
O66 O 0.06736 0.79975 0.95441 0.0
C67 C 0.05001 0.79569 0.89004 0.0
C68 C 0.06095 0.78404 0.97532 0.0
O69 O 0.00064 0.67275 0.9332 0.0
Mg70 Mg 0.30063 0.29092 0.93528 0.0
O71 O 0.25 0.27757 0.96358 0.0
O72 O 0.25873 0.24721 0.99486 0.0
Mg73 Mg 0.31514 0.23954 0.9861 0.0
C74 C 0.23928 0.26206 0.98434 0.0
C75 C 0.27424 0.31592 0.89173 0.0
O76 O 0.29077 0.29407 0.88457 0.0
O77 O 0.34941 0.3459 0.9583 0.0
O78 O 0.35528 0.30896 0.98709 0.0
O79 O 0.26075 0.22681 0.92075 0.0
O80 O 0.30882 0.24468 0.94815 0.0
C81 C 0.36559 0.34342 0.97772 0.0
C82 C 0.28019 0.2166 0.93538 0.0
O83 O 0.27671 0.32548 0.9136 0.0
Mg84 Mg 0.03229 0.35327 0.41225 0.0
O85 O 0.99756 0.35821 0.3804 0.0
O86 O 0.97035 0.30106 0.3586 0.0
Mg87 Mg 0.98916 0.25927 0.37647 0.0
C88 C 0.97626 0.33669 0.3628 0.0
C89 C 0.03864 0.43828 0.41965 0.0
O90 O 0.0018 0.4179 0.40968 0.0
O91 O 0.08755 0.36568 0.38717 0.0
O92 O 0.05825 0.30573 0.3678 0.0
O93 O 0.97143 0.32389 0.43251 0.0
O94 O 0.99344 0.28973 0.41054 0.0
C95 C 0.08938 0.3415 0.3719 0.0
C96 C 0.96333 0.28998 0.42236 0.0
O97 O 0.06033 0.42116 0.42181 0.0
Mg98 Mg 0.66176 0.68581 0.39398 0.0
O99 O 0.6336 0.63778 0.36468 0.0
O100 O 0.68039 0.65385 0.33488 0.0
Mg101 Mg 0.73733 0.71594 0.34382 0.0
C102 C 0.64453 0.62988 0.34462 0.0
C103 C 0.6003 0.6467 0.43539 0.0
O104 O 0.63806 0.66311 0.44432 0.0
O105 O 0.64881 0.72969 0.37241 0.0
O106 O 0.6954 0.74411 0.34259 0.0
O107 O 0.69039 0.65116 0.40782 0.0
O108 O 0.72242 0.70141 0.38166 0.0
C109 C 0.66619 0.74766 0.35273 0.0
C110 C 0.72124 0.67146 0.39292 0.0
O111 O 0.59741 0.65309 0.41358 0.0
Mg112 Mg 0.32196 0.99045 0.42722 0.0
O113 O 0.36668 0.0111 0.39507 0.0
O114 O 0.34317 0.03473 0.36687 0.0
Mg115 Mg 0.28185 0.02901 0.38125 0.0
C116 C 0.37023 0.0265 0.37455 0.0
C117 C 0.35894 0.96265 0.46609 0.0
O118 O 0.33267 0.97 0.47813 0.0
O119 O 0.27479 0.93118 0.40686 0.0
O120 O 0.25096 0.95964 0.38166 0.0
O121 O 0.3568 0.05571 0.44032 0.0
O122 O 0.30097 0.02958 0.41773 0.0
C123 C 0.25006 0.92831 0.39035 0.0
C124 C 0.33113 0.06108 0.42781 0.0
O125 O 0.35973 0.96464 0.44355 0.0
Mg126 Mg 0.34409 0.28337 0.27217 0.0
O127 O 0.40868 0.33982 0.27794 0.0
O128 O 0.45622 0.32103 0.28265 0.0
Mg129 Mg 0.42231 0.25187 0.27698 0.0
C130 C 0.44619 0.34851 0.28187 0.0
C131 C 0.27834 0.30797 0.26489 0.0
O132 O 0.25644 0.26812 0.26149 0.0
O133 O 0.36138 0.28016 0.23323 0.0
O134 O 0.40847 0.26077 0.23885 0.0
O135 O 0.33499 0.27487 0.31124 0.0
O136 O 0.36273 0.2464 0.28869 0.0
C137 C 0.38782 0.27052 0.22522 0.0
C138 C 0.35281 0.2532 0.30955 0.0
O139 O 0.3181 0.32528 0.26608 0.0
Mg140 Mg 0.71555 0.08195 0.27807 0.0
O141 O 0.65325 0.08083 0.28493 0.0
O142 O 0.67065 0.14605 0.29016 0.0
Mg143 Mg 0.7414 0.18861 0.28523 0.0
C144 C 0.6432 0.10783 0.2895 0.0
C145 C 0.70689 0.0014 0.27848 0.0
O146 O 0.74582 0.03028 0.2828 0.0
O147 O 0.72107 0.10368 0.23912 0.0
O148 O 0.73865 0.16852 0.24666 0.0
O149 O 0.72331 0.08147 0.31711 0.0
O150 O 0.74937 0.13794 0.29571 0.0
C151 C 0.73156 0.13981 0.2321 0.0
C152 C 0.74355 0.12104 0.31618 0.0
O153 O 0.68159 0.01249 0.27166 0.0
Mg154 Mg 0.96805 0.60971 0.26867 0.0
O155 O 0.91889 0.59547 0.2979 0.0
O156 O 0.93249 0.57084 0.33006 0.0
Mg157 Mg 0.99128 0.56734 0.32057 0.0
C158 C 0.91036 0.58229 0.31918 0.0
C159 C 0.93595 0.63467 0.22566 0.0
O160 O 0.95656 0.61882 0.21532 0.0
O161 O 0.0154 0.66808 0.28971 0.0
O162 O 0.02689 0.63703 0.31981 0.0
O163 O 0.93174 0.54401 0.256 0.0
O164 O 0.98222 0.56799 0.28234 0.0
C165 C 0.03356 0.6694 0.30915 0.0
C166 C 0.95442 0.53755 0.27043 0.0
O167 O 0.93778 0.63924 0.24807 0.0
Mg168 Mg 0.68159 0.66635 0.74779 0.0
O169 O 0.64595 0.67605 0.71855 0.0
O170 O 0.61999 0.62348 0.6932 0.0
Mg171 Mg 0.6406 0.57995 0.70626 0.0
C172 C 0.62494 0.65768 0.70021 0.0
C173 C 0.70319 0.7351 0.78202 0.0
O174 O 0.69035 0.70214 0.79508 0.0
O175 O 0.73723 0.68463 0.72188 0.0
O176 O 0.70865 0.62975 0.698 0.0
O177 O 0.62055 0.63177 0.76769 0.0
O178 O 0.64487 0.60324 0.74264 0.0
C179 C 0.73922 0.66472 0.70401 0.0
C180 C 0.614 0.60018 0.75537 0.0
O181 O 0.70624 0.73213 0.75972 0.0
Mg182 Mg 0.30564 0.01215 0.72455 0.0
O183 O 0.27795 0.96421 0.69486 0.0
O184 O 0.32511 0.98096 0.66519 0.0
Mg185 Mg 0.38149 0.04329 0.6743 0.0
C186 C 0.28916 0.95669 0.67475 0.0
C187 C 0.22258 0.94099 0.74718 0.0
O188 O 0.23706 0.92062 0.73545 0.0
O189 O 0.29154 0.05519 0.70284 0.0
O190 O 0.33835 0.06991 0.67304 0.0
O191 O 0.33612 0.97918 0.73857 0.0
O192 O 0.3663 0.02905 0.71206 0.0
C193 C 0.30875 0.07292 0.68307 0.0
C194 C 0.36681 0.00032 0.7237 0.0
O195 O 0.24228 0.98 0.7455 0.0
Mg196 Mg 0.99031 0.31603 0.7582 0.0
O197 O 0.0332 0.33644 0.72471 0.0
O198 O 0.00917 0.35981 0.69638 0.0
Mg199 Mg 0.94489 0.34815 0.70907 0.0
C200 C 0.03661 0.35218 0.70422 0.0
C201 C 0.0723 0.32991 0.77938 0.0
O202 O 0.08298 0.36473 0.76887 0.0
O203 O 0.94718 0.25015 0.74123 0.0
O204 O 0.93347 0.28753 0.71863 0.0
O205 O 0.01894 0.38314 0.76838 0.0
O206 O 0.96336 0.35101 0.74613 0.0
C207 C 0.92672 0.25259 0.72402 0.0
C208 C 0.99152 0.38458 0.75537 0.0
O209 O 0.03474 0.29985 0.77713 0.0
Mg210 Mg 0.99295 0.60822 0.60087 0.0
O211 O 0.05658 0.6662 0.60647 0.0
O212 O 0.10612 0.64951 0.60909 0.0
Mg213 Mg 0.07437 0.58065 0.60265 0.0
C214 C 0.0947 0.67602 0.60948 0.0
C215 C 0.92376 0.62747 0.59692 0.0
O216 O 0.90432 0.58731 0.59535 0.0
O217 O 0.00883 0.60673 0.5617 0.0
O218 O 0.05776 0.589 0.56493 0.0
O219 O 0.98506 0.59807 0.63974 0.0
O220 O 0.0143 0.57243 0.61604 0.0
C221 C 0.03536 0.59827 0.55249 0.0
C222 C 0.0041 0.57761 0.63723 0.0
O223 O 0.96372 0.64755 0.59598 0.0
Mg224 Mg 0.3772 0.40616 0.603 0.0
O225 O 0.31609 0.40671 0.61029 0.0
O226 O 0.33469 0.47174 0.61749 0.0
Mg227 Mg 0.40581 0.51295 0.61329 0.0
C228 C 0.30669 0.43381 0.61585 0.0
C229 C 0.36362 0.3235 0.60093 0.0
O230 O 0.40345 0.35007 0.60498 0.0
O231 O 0.38485 0.43139 0.56476 0.0
O232 O 0.40416 0.49607 0.57412 0.0
O233 O 0.38293 0.40169 0.64184 0.0
O234 O 0.41168 0.46031 0.62229 0.0
C235 C 0.39683 0.46836 0.55875 0.0
C236 C 0.404 0.44128 0.6422 0.0
O237 O 0.34039 0.33745 0.5948 0.0
Mg238 Mg 0.62597 0.94374 0.60358 0.0
O239 O 0.57923 0.93621 0.63311 0.0
O240 O 0.59633 0.91937 0.66714 0.0
Mg241 Mg 0.65513 0.91532 0.65928 0.0
C242 C 0.57274 0.92769 0.65519 0.0
C243 C 0.57798 0.94571 0.56114 0.0
O244 O 0.58446 0.91522 0.55719 0.0
O245 O 0.67499 0.00669 0.61961 0.0
O246 O 0.68987 0.98393 0.6525 0.0
O247 O 0.58886 0.87544 0.59687 0.0
O248 O 0.6418 0.90612 0.62141 0.0
C249 C 0.69508 0.01293 0.63894 0.0
C250 C 0.61284 0.87284 0.61218 0.0
O251 O 0.59446 0.96817 0.57927 0.0
C252 C 0.442 0.02455 0.9875 0.0
C253 C 0.44466 0.02463 0.01224 0.0
C254 C 0.47316 0.0246 0.97285 0.0
C255 C 0.50676 0.02312 0.9833 0.0
C256 C 0.51177 0.02753 0.00822 0.0
C257 C 0.48067 0.02864 0.02245 0.0
C258 C 0.46759 0.02173 0.94635 0.0
C259 C 0.54711 0.02608 0.02009 0.0
C260 C 0.53602 0.94959 0.9558 0.0
C261 C 0.57665 0.97609 0.94661 0.0
C262 C 0.51284 0.96474 0.96726 0.0
C263 C 0.53024 0.00765 0.96917 0.0
C264 C 0.57007 0.03472 0.95854 0.0
C265 C 0.59307 0.01861 0.94754 0.0
C266 C 0.4704 0.93459 0.97827 0.0
C267 C 0.58917 0.0806 0.95959 0.0
H268 H 0.4141 0.02166 0.97965 0.0
H269 H 0.48247 0.02843 0.04161 0.0
H270 H 0.49836 0.04007 0.93689 0.0
H271 H 0.45379 0.98933 0.94073 0.0
H272 H 0.4462 0.03248 0.94083 0.0
H273 H 0.55035 0.03609 0.03889 0.0
H274 H 0.54076 0.99416 0.01963 0.0
H275 H 0.57746 0.04573 0.01054 0.0
H276 H 0.52287 0.91671 0.95501 0.0
H277 H 0.62444 0.03935 0.94044 0.0
H278 H 0.44563 0.93921 0.97086 0.0
H279 H 0.47081 0.93979 0.99769 0.0
H280 H 0.4615 0.9022 0.9752 0.0
H281 H 0.56507 0.08908 0.95648 0.0
H282 H 0.6153 0.09669 0.94637 0.0
H283 H 0.60192 0.09173 0.9775 0.0
C284 C 0.97066 0.44024 0.98498 0.0
C285 C 0.97312 0.44121 0.00977 0.0
C286 C 0.96993 0.47159 0.97248 0.0
C287 C 0.97265 0.50526 0.98506 0.0
C288 C 0.9713 0.50452 0.01024 0.0
C289 C 0.97127 0.47223 0.02236 0.0
C290 C 0.9704 0.4705 0.94571 0.0
C291 C 0.97414 0.53978 0.02435 0.0
C292 C 0.04059 0.60966 0.95632 0.0
C293 C 0.01082 0.61951 0.94902 0.0
C294 C 0.02835 0.57258 0.96786 0.0
C295 C 0.98505 0.54405 0.97206 0.0
C296 C 0.95457 0.55288 0.96388 0.0
C297 C 0.96782 0.59064 0.95249 0.0
C298 C 0.06205 0.5645 0.97611 0.0
C299 C 0.90814 0.523 0.96775 0.0
H300 H 0.97181 0.41605 0.97523 0.0
H301 H 0.97343 0.47315 0.04152 0.0
H302 H 0.94961 0.48072 0.93851 0.0
H303 H 0.00285 0.4918 0.93891 0.0
H304 H 0.96021 0.43931 0.93886 0.0
H305 H 0.96592 0.53177 0.04339 0.0
H306 H 0.0068 0.56638 0.02303 0.0
H307 H 0.953 0.54953 0.01711 0.0
H308 H 0.07387 0.63159 0.95365 0.0
H309 H 0.94458 0.59806 0.94705 0.0
H310 H 0.05765 0.53588 0.96798 0.0
H311 H 0.0595 0.56016 0.99564 0.0
H312 H 0.09432 0.58993 0.97151 0.0
H313 H 0.89986 0.49196 0.96159 0.0
H314 H 0.88842 0.53253 0.95838 0.0
H315 H 0.90023 0.52061 0.98699 0.0
C316 C 0.40393 0.37654 0.01474 0.0
C317 C 0.39708 0.38052 0.99072 0.0
C318 C 0.43498 0.4095 0.0276 0.0
C319 C 0.46021 0.44782 0.01631 0.0
C320 C 0.45347 0.45241 0.99212 0.0
C321 C 0.42178 0.41871 0.9796 0.0
C322 C 0.44051 0.40331 0.0534 0.0
C323 C 0.47985 0.49293 0.97951 0.0
C324 C 0.50962 0.54298 0.05493 0.0
C325 C 0.55136 0.55215 0.05638 0.0
C326 C 0.47968 0.5089 0.04226 0.0
C327 C 0.49184 0.4835 0.03036 0.0
C328 C 0.53369 0.49177 0.0324 0.0
C329 C 0.56304 0.52603 0.04553 0.0
C330 C 0.43529 0.50082 0.04103 0.0
C331 C 0.5478 0.46536 0.01996 0.0
H332 H 0.38481 0.34734 0.02369 0.0
H333 H 0.41693 0.42203 0.96107 0.0
H334 H 0.47341 0.41137 0.05642 0.0
H335 H 0.43444 0.42396 0.06464 0.0
H336 H 0.41899 0.37123 0.0594 0.0
H337 H 0.47178 0.49124 0.96052 0.0
H338 H 0.47534 0.51672 0.98828 0.0
H339 H 0.51372 0.50305 0.98069 0.0
H340 H 0.50076 0.5635 0.06314 0.0
H341 H 0.59555 0.53368 0.04617 0.0
H342 H 0.41246 0.46923 0.04723 0.0
H343 H 0.42781 0.50315 0.02239 0.0
H344 H 0.43062 0.52274 0.05195 0.0
H345 H 0.52725 0.43285 0.02537 0.0
H346 H 0.58096 0.4751 0.02382 0.0
H347 H 0.54484 0.46686 1.0005 0.0
C348 C 0.1406 0.3816 0.33945 0.0
C349 C 0.12837 0.35378 0.35829 0.0
C350 C 0.17028 0.38463 0.32226 0.0
C351 C 0.18775 0.35916 0.32415 0.0
C352 C 0.17779 0.33352 0.34429 0.0
C353 C 0.14788 0.33087 0.36098 0.0
C354 C 0.18017 0.41251 0.30119 0.0
C355 C 0.19611 0.3063 0.34729 0.0
C356 C 0.21283 0.30979 0.27314 0.0
C357 C 0.25668 0.32891 0.2746 0.0
C358 C 0.19013 0.32233 0.2876 0.0
C359 C 0.21183 0.3546 0.30403 0.0
C360 C 0.25639 0.3769 0.30372 0.0
C361 C 0.27838 0.36388 0.2889 0.0
C362 C 0.14263 0.29828 0.28693 0.0
C363 C 0.28075 0.41187 0.32066 0.0
H364 H 0.1248 0.39875 0.33723 0.0
H365 H 0.1379 0.30907 0.37548 0.0
H366 H 0.21394 0.4275 0.29589 0.0
H367 H 0.16145 0.39411 0.28591 0.0
H368 H 0.1722 0.43656 0.30492 0.0
H369 H 0.18855 0.29149 0.36505 0.0
H370 H 0.18335 0.28187 0.33361 0.0
H371 H 0.23083 0.32425 0.34478 0.0
H372 H 0.1959 0.28318 0.26185 0.0
H373 H 0.31235 0.37914 0.29003 0.0
H374 H 0.13003 0.31923 0.28714 0.0
H375 H 0.12987 0.27846 0.30293 0.0
H376 H 0.13096 0.27843 0.27099 0.0
H377 H 0.2665 0.43136 0.3224 0.0
H378 H 0.31424 0.43132 0.31489 0.0
H379 H 0.27984 0.3993 0.33849 0.0
C380 C 0.65132 0.80508 0.35474 0.0
C381 C 0.65502 0.77573 0.3414 0.0
C382 C 0.65174 0.83829 0.3435 0.0
C383 C 0.65523 0.84166 0.31839 0.0
C384 C 0.65461 0.80973 0.3049 0.0
C385 C 0.65501 0.77747 0.31657 0.0
C386 C 0.65246 0.87167 0.35857 0.0
C387 C 0.6573 0.81137 0.27815 0.0
C388 C 0.64957 0.92858 0.28819 0.0
C389 C 0.69246 0.95857 0.28583 0.0
C390 C 0.63666 0.88997 0.29839 0.0
C391 C 0.66734 0.88142 0.30659 0.0
C392 C 0.71059 0.9112 0.30358 0.0
C393 C 0.72251 0.94906 0.29314 0.0
C394 C 0.59029 0.85878 0.30096 0.0
C395 C 0.74453 0.90357 0.31195 0.0
H396 H 0.65153 0.80395 0.37393 0.0
H397 H 0.65748 0.75456 0.30619 0.0
H398 H 0.68478 0.89893 0.35824 0.0
H399 H 0.63113 0.88127 0.35143 0.0
H400 H 0.64312 0.8618 0.37731 0.0
H401 H 0.64872 0.78117 0.27033 0.0
H402 H 0.63632 0.82139 0.27098 0.0
H403 H 0.69 0.83406 0.27235 0.0
H404 H 0.62609 0.93566 0.28273 0.0
H405 H 0.75573 0.97181 0.29134 0.0
H406 H 0.58098 0.85406 0.32002 0.0
H407 H 0.58347 0.82876 0.29371 0.0
H408 H 0.57058 0.86851 0.29177 0.0
H409 H 0.74059 0.89717 0.33129 0.0
H410 H 0.77672 0.93006 0.30845 0.0
H411 H 0.7418 0.87623 0.30294 0.0
C412 C 0.06575 0.71004 0.34547 0.0
C413 C 0.06326 0.70884 0.32063 0.0
C414 C 0.09645 0.7449 0.35726 0.0
C415 C 0.12596 0.77956 0.34394 0.0
C416 C 0.12336 0.7789 0.31883 0.0
C417 C 0.09172 0.74358 0.30744 0.0
C418 C 0.09731 0.74455 0.38403 0.0
C419 C 0.15445 0.81527 0.30404 0.0
C420 C 0.17856 0.88261 0.37498 0.0
C421 C 0.21783 0.88812 0.3808 0.0
C422 C 0.14852 0.84746 0.36313 0.0
C423 C 0.15806 0.81707 0.35651 0.0
C424 C 0.19743 0.82202 0.36267 0.0
C425 C 0.22683 0.85744 0.37499 0.0
C426 C 0.10664 0.84305 0.35753 0.0
C427 C 0.20877 0.79033 0.35577 0.0
H428 H 0.04362 0.68332 0.35579 0.0
H429 H 0.09022 0.7426 0.28825 0.0
H430 H 0.12813 0.74985 0.38988 0.0
H431 H 0.09364 0.7698 0.39135 0.0
H432 H 0.07199 0.71512 0.39176 0.0
H433 H 0.14886 0.80966 0.28474 0.0
H434 H 0.15249 0.8426 0.30898 0.0
H435 H 0.18698 0.82267 0.30765 0.0
H436 H 0.17145 0.90626 0.37955 0.0
H437 H 0.25735 0.8619 0.37919 0.0
H438 H 0.08059 0.81433 0.36547 0.0
H439 H 0.10224 0.84092 0.33807 0.0
H440 H 0.10393 0.86921 0.36429 0.0
H441 H 0.18549 0.76017 0.3636 0.0
H442 H 0.24068 0.79879 0.36167 0.0
H443 H 0.2076 0.78652 0.33621 0.0
C444 C 0.92213 0.68648 0.61631 0.0
C445 C 0.90051 0.64688 0.60656 0.0
C446 C 0.90096 0.70084 0.63081 0.0
C447 C 0.85739 0.67484 0.63573 0.0
C448 C 0.83485 0.63652 0.62407 0.0
C449 C 0.85667 0.62315 0.60953 0.0
C450 C 0.92585 0.74241 0.64229 0.0
C451 C 0.78823 0.60791 0.62857 0.0
C452 C 0.80606 0.66737 0.69546 0.0
C453 C 0.77825 0.68052 0.68992 0.0
C454 C 0.83512 0.669 0.67845 0.0
C455 C 0.83619 0.68423 0.65543 0.0
C456 C 0.8111 0.70151 0.65064 0.0
C457 C 0.78183 0.69889 0.66791 0.0
C458 C 0.86134 0.65031 0.68437 0.0
C459 C 0.81217 0.71917 0.62662 0.0
H460 H 0.956 0.70529 0.61392 0.0
H461 H 0.83962 0.59281 0.60176 0.0
H462 H 0.90762 0.75824 0.64293 0.0
H463 H 0.93275 0.73858 0.66081 0.0
H464 H 0.95626 0.76222 0.63273 0.0
H465 H 0.77481 0.58086 0.61663 0.0
H466 H 0.78268 0.59684 0.64719 0.0
H467 H 0.7709 0.62426 0.6261 0.0
H468 H 0.80257 0.65253 0.7124 0.0
H469 H 0.75972 0.70848 0.6636 0.0
H470 H 0.89458 0.6708 0.6786 0.0
H471 H 0.84926 0.62087 0.67473 0.0
H472 H 0.86043 0.64419 0.70367 0.0
H473 H 0.84473 0.73627 0.61913 0.0
H474 H 0.79935 0.73999 0.62754 0.0
H475 H 0.7927 0.69386 0.61423 0.0
C476 C 0.30233 0.25429 0.61323 0.0
C477 C 0.34571 0.28034 0.60884 0.0
C478 C 0.28673 0.21616 0.6247 0.0
C479 C 0.31521 0.20411 0.63209 0.0
C480 C 0.35874 0.2296 0.62677 0.0
C481 C 0.3733 0.26707 0.61512 0.0
C482 C 0.24006 0.18954 0.62968 0.0
C483 C 0.39036 0.21805 0.63416 0.0
C484 C 0.29918 0.13347 0.68351 0.0
C485 C 0.29698 0.10014 0.67135 0.0
C486 C 0.30129 0.16641 0.67096 0.0
C487 C 0.30058 0.16546 0.64579 0.0
C488 C 0.29364 0.1297 0.63377 0.0
C489 C 0.29247 0.09772 0.64668 0.0
C490 C 0.30868 0.20392 0.6845 0.0
C491 C 0.29161 0.12675 0.60708 0.0
H492 H 0.28076 0.26433 0.60858 0.0
H493 H 0.40682 0.28679 0.61171 0.0
H494 H 0.22875 0.15734 0.62446 0.0
H495 H 0.23365 0.18955 0.64899 0.0
H496 H 0.22168 0.20049 0.62017 0.0
H497 H 0.42307 0.2412 0.62856 0.0
H498 H 0.38929 0.21476 0.65373 0.0
H499 H 0.3824 0.18806 0.62635 0.0
H500 H 0.30309 0.13555 0.70256 0.0
H501 H 0.29067 0.07183 0.63727 0.0
H502 H 0.28885 0.21552 0.67765 0.0
H503 H 0.34208 0.22863 0.68206 0.0
H504 H 0.30193 0.19762 0.70379 0.0
H505 H 0.27255 0.13921 0.60017 0.0
H506 H 0.27799 0.0946 0.60091 0.0
H507 H 0.32387 0.14524 0.59933 0.0
C508 C 0.71985 0.06774 0.66882 0.0
C509 C 0.72635 0.0544 0.64676 0.0
C510 C 0.75321 0.10044 0.6807 0.0
C511 C 0.79426 0.1197 0.67045 0.0
C512 C 0.80061 0.10757 0.64762 0.0
C513 C 0.76643 0.07496 0.63599 0.0
C514 C 0.74481 0.11321 0.70467 0.0
C515 C 0.84385 0.12766 0.63604 0.0
C516 C 0.87182 0.22527 0.69342 0.0
C517 C 0.89433 0.21731 0.71026 0.0
C518 C 0.83997 0.194 0.68016 0.0
C519 C 0.83013 0.15327 0.68348 0.0
C520 C 0.85305 0.14469 0.70003 0.0
C521 C 0.8849 0.1769 0.71338 0.0
C522 C 0.8161 0.20461 0.66303 0.0
C523 C 0.84344 0.10143 0.70378 0.0
H524 H 0.68893 0.05112 0.67732 0.0
H525 H 0.77159 0.06376 0.61924 0.0
H526 H 0.76188 0.10718 0.71847 0.0
H527 H 0.75672 0.14662 0.70483 0.0
H528 H 0.71075 0.09658 0.70957 0.0
H529 H 0.84312 0.11635 0.61771 0.0
H530 H 0.85804 0.16141 0.63542 0.0
H531 H 0.86477 0.12141 0.64673 0.0
H532 H 0.87853 0.25628 0.69069 0.0
H533 H 0.90212 0.17047 0.72622 0.0
H534 H 0.78249 0.18945 0.66871 0.0
H535 H 0.81724 0.19312 0.64504 0.0
H536 H 0.82885 0.23816 0.66188 0.0
H537 H 0.8108 0.08217 0.71088 0.0
H538 H 0.86542 0.09998 0.71628 0.0
H539 H 0.84528 0.0879 0.68658 0.0
C540 C 0.39146 0.155 0.10719 0.0
C541 C 0.38632 0.12053 0.11933 0.0
C542 C 0.39407 0.18855 0.11967 0.0
C543 C 0.39097 0.18722 0.14476 0.0
C544 C 0.38665 0.15282 0.157 0.0
C545 C 0.38461 0.12017 0.14417 0.0
C546 C 0.39893 0.22471 0.10597 0.0
C547 C 0.38345 0.15004 0.18378 0.0
C548 C 0.42894 0.27102 0.18984 0.0
C549 C 0.39041 0.26329 0.19969 0.0
C550 C 0.43027 0.25057 0.16932 0.0
C551 C 0.39206 0.22111 0.15886 0.0
C552 C 0.35375 0.21777 0.16677 0.0
C553 C 0.3534 0.2392 0.18715 0.0
C554 C 0.472 0.2564 0.16089 0.0
C555 C 0.3124 0.18739 0.1558 0.0
H556 H 0.39261 0.15547 0.08797 0.0
H557 H 0.38081 0.09382 0.15373 0.0
H558 H 0.36807 0.22293 0.10549 0.0
H559 H 0.42143 0.25406 0.11464 0.0
H560 H 0.40988 0.22517 0.0874 0.0
H561 H 0.37975 0.12095 0.19051 0.0
H562 H 0.41212 0.17597 0.19158 0.0
H563 H 0.35608 0.15221 0.19023 0.0
H564 H 0.45769 0.29016 0.1994 0.0
H565 H 0.32356 0.23328 0.19472 0.0
H566 H 0.47361 0.25525 0.14125 0.0
H567 H 0.47563 0.23127 0.16803 0.0
H568 H 0.49877 0.28605 0.16706 0.0
H569 H 0.31568 0.18731 0.13621 0.0
H570 H 0.28728 0.19417 0.16055 0.0
H571 H 0.30238 0.15613 0.16229 0.0
C572 C 0.89373 0.28695 0.14455 0.0
C573 C 0.88826 0.28655 0.12001 0.0
C574 C 0.86187 0.25792 0.15959 0.0
C575 C 0.82327 0.2273 0.14996 0.0
C576 C 0.81715 0.22692 0.12521 0.0
C577 C 0.84971 0.25666 0.1105 0.0
C578 C 0.86977 0.25995 0.18589 0.0
C579 C 0.77652 0.19476 0.11428 0.0
C580 C 0.76628 0.13911 0.19359 0.0
C581 C 0.74294 0.15226 0.20693 0.0
C582 C 0.78972 0.16108 0.17332 0.0
C583 C 0.78953 0.19676 0.16628 0.0
C584 C 0.7621 0.20711 0.17813 0.0
C585 C 0.73926 0.18482 0.19831 0.0
C586 C 0.81805 0.14856 0.16102 0.0
C587 C 0.76028 0.24445 0.17115 0.0
H588 H 0.9233 0.30993 0.1521 0.0
H589 H 0.84534 0.25586 0.09152 0.0
H590 H 0.84588 0.26389 0.19588 0.0
H591 H 0.86675 0.23082 0.19193 0.0
H592 H 0.90154 0.28562 0.19052 0.0
H593 H 0.77601 0.19951 0.09492 0.0
H594 H 0.77201 0.16391 0.11723 0.0
H595 H 0.74941 0.19498 0.12296 0.0
H596 H 0.76946 0.11413 0.2002 0.0
H597 H 0.72099 0.19493 0.20848 0.0
H598 H 0.85096 0.16928 0.16661 0.0
H599 H 0.81742 0.15136 0.14149 0.0
H600 H 0.80889 0.11657 0.16548 0.0
H601 H 0.78899 0.27244 0.17733 0.0
H602 H 0.73235 0.24407 0.17915 0.0
H603 H 0.75946 0.24668 0.1516 0.0
C604 C 0.91142 0.64636 0.18717 0.0
C605 C 0.906 0.64076 0.21182 0.0
C606 C 0.88149 0.64877 0.17347 0.0
C607 C 0.84467 0.64437 0.1846 0.0
C608 C 0.83901 0.63864 0.2095 0.0
C609 C 0.86999 0.63743 0.22284 0.0
C610 C 0.88936 0.65619 0.1471 0.0
C611 C 0.79992 0.63321 0.22201 0.0
C612 C 0.78464 0.6885 0.15586 0.0
C613 C 0.75125 0.65388 0.14521 0.0
C614 C 0.81574 0.68595 0.16814 0.0
C615 C 0.81292 0.64756 0.1704 0.0
C616 C 0.77944 0.61243 0.15952 0.0
C617 C 0.74924 0.61612 0.14673 0.0
C618 C 0.85144 0.72438 0.17886 0.0
C619 C 0.77491 0.5708 0.16193 0.0
H620 H 0.93919 0.64893 0.17857 0.0
H621 H 0.8653 0.63249 0.24184 0.0
H622 H 0.86368 0.63041 0.13726 0.0
H623 H 0.88938 0.68442 0.14219 0.0
H624 H 0.91984 0.65953 0.14123 0.0
H625 H 0.79941 0.62721 0.24129 0.0
H626 H 0.79791 0.66113 0.21973 0.0
H627 H 0.77145 0.6073 0.21401 0.0
H628 H 0.78663 0.71791 0.15449 0.0
H629 H 0.72336 0.58931 0.13861 0.0
H630 H 0.88215 0.72877 0.1726 0.0
H631 H 0.85016 0.72141 0.19845 0.0
H632 H 0.85035 0.75222 0.17432 0.0
H633 H 0.80373 0.57176 0.15503 0.0
H634 H 0.74736 0.54662 0.15229 0.0
H635 H 0.77129 0.56214 0.18095 0.0
C636 C 0.7585 0.93243 0.85682 0.0
C637 C 0.72075 0.92641 0.86691 0.0
C638 C 0.7582 0.90945 0.83717 0.0
C639 C 0.71917 0.8795 0.82774 0.0
C640 C 0.68176 0.87816 0.83549 0.0
C641 C 0.68299 0.90189 0.85508 0.0
C642 C 0.79905 0.91312 0.82884 0.0
C643 C 0.63964 0.84756 0.82541 0.0
C644 C 0.71564 0.8067 0.77946 0.0
C645 C 0.70992 0.77345 0.79316 0.0
C646 C 0.71902 0.84183 0.79029 0.0
C647 C 0.71634 0.84344 0.81532 0.0
C648 C 0.71122 0.81015 0.82915 0.0
C649 C 0.70816 0.77575 0.81792 0.0
C650 C 0.7243 0.87653 0.77492 0.0
C651 C 0.70854 0.81056 0.85595 0.0
H652 H 0.78788 0.95205 0.86574 0.0
H653 H 0.65376 0.89741 0.86273 0.0
H654 H 0.80207 0.88834 0.83706 0.0
H655 H 0.79973 0.90966 0.8093 0.0
H656 H 0.82664 0.94305 0.83394 0.0
H657 H 0.61555 0.85605 0.82948 0.0
H658 H 0.64217 0.84499 0.80591 0.0
H659 H 0.62868 0.81691 0.83325 0.0
H660 H 0.71672 0.80503 0.76028 0.0
H661 H 0.70388 0.75032 0.82865 0.0
H662 H 0.74733 0.90672 0.78254 0.0
H663 H 0.69369 0.87518 0.77396 0.0
H664 H 0.73476 0.8746 0.75658 0.0
H665 H 0.73764 0.83707 0.86299 0.0
H666 H 0.70437 0.78211 0.86402 0.0
H667 H 0.68166 0.81403 0.86176 0.0
C668 C 0.04928 0.82754 0.85179 0.0
C669 C 0.06246 0.80499 0.86478 0.0
C670 C 0.06931 0.84641 0.83019 0.0
C671 C 0.10465 0.8443 0.82201 0.0
C672 C 0.11668 0.81979 0.83451 0.0
C673 C 0.09493 0.79985 0.85555 0.0
C674 C 0.05418 0.87059 0.81691 0.0
C675 C 0.15476 0.81743 0.82681 0.0
C676 C 0.15569 0.87876 0.76064 0.0
C677 C 0.18851 0.91885 0.76511 0.0
C678 C 0.12659 0.85486 0.77864 0.0
C679 C 0.1316 0.87082 0.80192 0.0
C680 C 0.16419 0.91172 0.80635 0.0
C681 C 0.19176 0.93547 0.78778 0.0
C682 C 0.09131 0.81216 0.77289 0.0
C683 C 0.17146 0.92968 0.831 0.0
H684 H 0.02441 0.83185 0.85905 0.0
H685 H 0.10577 0.78321 0.86587 0.0
H686 H 0.07633 0.90386 0.8195 0.0
H687 H 0.05326 0.86436 0.7976 0.0
H688 H 0.02236 0.86326 0.82317 0.0
H689 H 0.15841 0.79513 0.83757 0.0
H690 H 0.15267 0.80855 0.80789 0.0
H691 H 0.18354 0.84812 0.8286 0.0
H692 H 0.15318 0.86585 0.74309 0.0
H693 H 0.21751 0.96621 0.79136 0.0
H694 H 0.06092 0.80709 0.78028 0.0
H695 H 0.09716 0.78921 0.78116 0.0
H696 H 0.08827 0.80648 0.75347 0.0
H697 H 0.14268 0.92869 0.83799 0.0
H698 H 0.19803 0.96195 0.83146 0.0
H699 H 0.17836 0.91112 0.84314 0.0
C700 C 0.22057 0.33608 0.88345 0.0
C701 C 0.24792 0.32308 0.87518 0.0
C702 C 0.19201 0.33792 0.86813 0.0
C703 C 0.19082 0.32654 0.844 0.0
C704 C 0.21923 0.31461 0.83546 0.0
C705 C 0.24734 0.31305 0.8511 0.0
C706 C 0.16247 0.35115 0.87787 0.0
C707 C 0.21938 0.30263 0.80985 0.0
C708 C 0.0916 0.29246 0.80846 0.0
C709 C 0.10272 0.3279 0.79533 0.0
C710 C 0.11981 0.29165 0.8245 0.0
C711 C 0.16004 0.32715 0.82755 0.0
C712 C 0.17145 0.36291 0.81428 0.0
C713 C 0.14279 0.36281 0.79834 0.0
C714 C 0.10657 0.25281 0.83822 0.0
C715 C 0.21398 0.40138 0.81693 0.0
H716 H 0.2206 0.34368 0.90202 0.0
H717 H 0.26839 0.30309 0.84449 0.0
H718 H 0.16607 0.37748 0.86749 0.0
H719 H 0.12939 0.32576 0.8761 0.0
H720 H 0.16812 0.36013 0.89684 0.0
H721 H 0.24404 0.29485 0.8059 0.0
H722 H 0.18826 0.27572 0.80553 0.0
H723 H 0.22471 0.32805 0.79798 0.0
H724 H 0.06073 0.26542 0.80635 0.0
H725 H 0.15181 0.39046 0.78836 0.0
H726 H 0.10815 0.25906 0.85754 0.0
H727 H 0.12855 0.24174 0.83411 0.0
H728 H 0.07409 0.22801 0.83406 0.0
H729 H 0.21852 0.41159 0.83569 0.0
H730 H 0.21775 0.4269 0.80563 0.0
H731 H 0.23933 0.39501 0.81211 0.0
C732 C 0.06766 0.48159 0.45549 0.0
C733 C 0.04893 0.47546 0.43337 0.0
C734 C 0.06789 0.51008 0.47157 0.0
C735 C 0.05045 0.53415 0.46498 0.0
C736 C 0.03559 0.5311 0.44171 0.0
C737 C 0.03407 0.50104 0.42633 0.0
C738 C 0.08339 0.51169 0.49635 0.0
C739 C 0.0189 0.55769 0.43349 0.0
C740 C 0.00031 0.55488 0.51808 0.0
C741 C 0.03478 0.59044 0.52697 0.0
C742 C 0.00389 0.53769 0.4967 0.0
C743 C 0.0425 0.55754 0.48361 0.0
C744 C 0.07552 0.59627 0.49114 0.0
C745 C 0.07174 0.61174 0.51319 0.0
C746 C 0.96805 0.49602 0.48962 0.0
C747 C 0.11608 0.61975 0.47695 0.0
H748 H 0.07895 0.46172 0.46103 0.0
H749 H 0.01987 0.49656 0.40911 0.0
H750 H 0.10773 0.54353 0.50092 0.0
H751 H 0.05688 0.50168 0.50934 0.0
H752 H 0.09698 0.49175 0.49841 0.0
H753 H 0.02054 0.56043 0.41385 0.0
H754 H 0.98543 0.54378 0.4392 0.0
H755 H 0.0367 0.58886 0.44129 0.0
H756 H 0.972 0.53824 0.52904 0.0
H757 H 0.09844 0.63923 0.52023 0.0
H758 H 0.97782 0.47298 0.49126 0.0
H759 H 0.95993 0.49626 0.47086 0.0
H760 H 0.93933 0.48602 0.50086 0.0
H761 H 0.13688 0.60753 0.48082 0.0
H762 H 0.13313 0.65286 0.48154 0.0
H763 H 0.11006 0.61641 0.45763 0.0
C764 C 0.52397 0.59062 0.44005 0.0
C765 C 0.5629 0.61808 0.45018 0.0
C766 C 0.48996 0.56111 0.4541 0.0
C767 C 0.495 0.55921 0.47881 0.0
C768 C 0.53402 0.58738 0.48909 0.0
C769 C 0.56731 0.61626 0.47469 0.0
C770 C 0.44891 0.53161 0.4425 0.0
C771 C 0.54085 0.58692 0.51538 0.0
C772 C 0.40934 0.51748 0.52631 0.0
C773 C 0.41001 0.48276 0.53397 0.0
C774 C 0.43375 0.54055 0.50669 0.0
C775 C 0.45974 0.52879 0.49445 0.0
C776 C 0.45695 0.49126 0.5005 0.0
C777 C 0.43196 0.46856 0.5202 0.0
C778 C 0.43508 0.57989 0.50076 0.0
C779 C 0.48367 0.47723 0.48776 0.0
H780 H 0.52037 0.59153 0.42109 0.0
H781 H 0.59716 0.63734 0.48273 0.0
H782 H 0.44207 0.49975 0.44471 0.0
H783 H 0.42264 0.53325 0.45124 0.0
H784 H 0.44948 0.53795 0.42327 0.0
H785 H 0.57312 0.61081 0.52056 0.0
H786 H 0.51789 0.59201 0.52555 0.0
H787 H 0.5355 0.55652 0.52066 0.0
H788 H 0.39214 0.52845 0.53678 0.0
H789 H 0.43282 0.44189 0.52605 0.0
H790 H 0.43514 0.58378 0.48129 0.0
H791 H 0.46454 0.60629 0.50757 0.0
H792 H 0.40797 0.58092 0.50886 0.0
H793 H 0.48396 0.48167 0.46833 0.0
H794 H 0.47234 0.44444 0.4914 0.0
H795 H 0.51661 0.49588 0.49378 0.0
C796 C 0.54537 0.98564 0.54678 0.0
C797 C 0.54822 0.95022 0.54604 0.0
C798 C 0.51582 0.98875 0.53301 0.0
C799 C 0.4879 0.95529 0.51861 0.0
C800 C 0.49083 0.91959 0.51779 0.0
C801 C 0.52114 0.91769 0.53129 0.0
C802 C 0.51424 0.02767 0.53399 0.0
C803 C 0.4612 0.8829 0.50309 0.0
C804 C 0.38366 0.9453 0.50261 0.0
C805 C 0.39092 0.9581 0.47885 0.0
C806 C 0.41485 0.94405 0.51569 0.0
C807 C 0.45469 0.95685 0.50493 0.0
C808 C 0.46222 0.9698 0.48093 0.0
C809 C 0.43007 0.9698 0.46808 0.0
C810 C 0.40512 0.929 0.54103 0.0
C811 C 0.50449 0.98432 0.46895 0.0
H812 H 0.56624 0.01092 0.55808 0.0
H813 H 0.52283 0.89002 0.53071 0.0
H814 H 0.51712 0.03992 0.51582 0.0
H815 H 0.48342 0.02107 0.54154 0.0
H816 H 0.53964 0.05171 0.54495 0.0
H817 H 0.46778 0.85753 0.50428 0.0
H818 H 0.42821 0.87127 0.50912 0.0
H819 H 0.46367 0.89188 0.4842 0.0
H820 H 0.35347 0.93623 0.51102 0.0
H821 H 0.43609 0.9803 0.44982 0.0
H822 H 0.42706 0.95353 0.55313 0.0
H823 H 0.40981 0.9026 0.5432 0.0
H824 H 0.37232 0.91935 0.54662 0.0
H825 H 0.52959 0.01026 0.47903 0.0
H826 H 0.50567 0.99443 0.45038 0.0
H827 H 0.51173 0.95937 0.46883 0.0
C828 C 0.23123 0.88374 0.06377 0.0
C829 C 0.23927 0.91947 0.07567 0.0
C830 C 0.19329 0.85956 0.05213 0.0
C831 C 0.16222 0.87081 0.05312 0.0
C832 C 0.16778 0.90334 0.06802 0.0
C833 C 0.20661 0.9277 0.07902 0.0
C834 C 0.18861 0.82483 0.03662 0.0
C835 C 0.13454 0.91498 0.07051 0.0
C836 C 0.11223 0.85062 0.99348 0.0
C837 C 0.0793 0.81003 0.99636 0.0
C838 C 0.13737 0.87252 0.01263 0.0
C839 C 0.12868 0.85349 0.03522 0.0
C840 C 0.09218 0.81453 0.0388 0.0
C841 C 0.06814 0.7929 0.01919 0.0
C842 C 0.17599 0.91408 0.00795 0.0
C843 C 0.08047 0.79414 0.06284 0.0
H844 H 0.25602 0.8766 0.06184 0.0
H845 H 0.21238 0.95496 0.08857 0.0
H846 H 0.158 0.79649 0.0403 0.0
H847 H 0.18922 0.83291 0.01769 0.0
H848 H 0.21419 0.81816 0.03927 0.0
H849 H 0.13788 0.93181 0.08732 0.0
H850 H 0.13794 0.93535 0.05559 0.0
H851 H 0.10241 0.88752 0.07 0.0
H852 H 0.12067 0.86415 0.9759 0.0
H853 H 0.04201 0.76178 0.02158 0.0
H854 H 0.20436 0.9112 0.00808 0.0
H855 H 0.17956 0.93627 0.02194 0.0
H856 H 0.17493 0.9268 0.99049 0.0
H857 H 0.09794 0.77801 0.06562 0.0
H858 H 0.04626 0.77111 0.06422 0.0
H859 H 0.08877 0.81699 0.07724 0.0
C860 C 0.06072 0.28625 0.05445 0.0
C861 C 0.0738 0.32802 0.05347 0.0
C862 C 0.08575 0.27172 0.04447 0.0
C863 C 0.12516 0.2998 0.03379 0.0
C864 C 0.13924 0.34223 0.03368 0.0
C865 C 0.1131 0.35575 0.04324 0.0
C866 C 0.06924 0.22619 0.04444 0.0
C867 C 0.18146 0.37328 0.02292 0.0
C868 C 0.20824 0.27088 0.02212 0.0
C869 C 0.20626 0.26572 0.99743 0.0
C870 C 0.18122 0.28089 0.03436 0.0
C871 C 0.15094 0.28489 0.02166 0.0
C872 C 0.14719 0.27729 0.99694 0.0
C873 C 0.17527 0.26832 0.98507 0.0
C874 C 0.18663 0.28939 0.06065 0.0
C875 C 0.11456 0.28018 0.98286 0.0
H876 H 0.03005 0.26465 0.06207 0.0
H877 H 0.12323 0.38805 0.0425 0.0
H878 H 0.06397 0.21475 0.02592 0.0
H879 H 0.09269 0.21977 0.05202 0.0
H880 H 0.03914 0.20868 0.05468 0.0
H881 H 0.18911 0.40531 0.02594 0.0
H882 H 0.20672 0.36955 0.0305 0.0
H883 H 0.18155 0.36814 0.00352 0.0
H884 H 0.23242 0.26928 0.03173 0.0
H885 H 0.17349 0.26411 0.966 0.0
H886 H 0.15601 0.27136 0.07026 0.0
H887 H 0.19803 0.32229 0.06389 0.0
H888 H 0.20946 0.28203 0.06822 0.0
H889 H 0.08299 0.26172 0.99145 0.0
H890 H 0.11299 0.26942 0.96431 0.0
H891 H 0.12215 0.31247 0.98241 0.0
C892 C 0.71628 0.80411 0.0859 0.0
C893 C 0.67505 0.77059 0.08804 0.0
C894 C 0.72515 0.838 0.07177 0.0
C895 C 0.69207 0.83758 0.05939 0.0
C896 C 0.64994 0.80581 0.06364 0.0
C897 C 0.64197 0.77297 0.07821 0.0
C898 C 0.77022 0.8723 0.06846 0.0
C899 C 0.61362 0.80406 0.05082 0.0
C900 C 0.69467 0.91945 0.02079 0.0
C901 C 0.69737 0.9051 0.99821 0.0
C902 C 0.6973 0.90029 0.04128 0.0
C903 C 0.70127 0.8653 0.03894 0.0
C904 C 0.70701 0.85257 0.01616 0.0
C905 C 0.7055 0.87303 0.99607 0.0
C906 C 0.693 0.91587 0.06527 0.0
C907 C 0.71103 0.81514 0.01285 0.0
H908 H 0.74195 0.80263 0.09376 0.0
H909 H 0.60992 0.74751 0.08041 0.0
H910 H 0.78377 0.86688 0.05205 0.0
H911 H 0.7722 0.90231 0.06657 0.0
H912 H 0.78978 0.87395 0.08357 0.0
H913 H 0.5826 0.77916 0.05766 0.0
H914 H 0.61451 0.83358 0.05252 0.0
H915 H 0.61623 0.79866 0.03164 0.0
H916 H 0.68917 0.9448 0.02248 0.0
H917 H 0.70786 0.86205 0.97861 0.0
H918 H 0.71334 0.91313 0.07839 0.0
H919 H 0.65993 0.89728 0.0718 0.0
H920 H 0.7013 0.94839 0.06436 0.0
H921 H 0.7363 0.81728 0.02407 0.0
H922 H 0.71811 0.81108 0.99412 0.0
H923 H 0.68115 0.7873 0.01848 0.0
C924 C 0.79498 0.09179 0.94992 0.0
C925 C 0.80596 0.06186 0.9531 0.0
C926 C 0.82175 0.13239 0.95721 0.0
C927 C 0.86007 0.14307 0.96815 0.0
C928 C 0.87213 0.11345 0.97052 0.0
C929 C 0.84504 0.07326 0.96283 0.0
C930 C 0.80824 0.16341 0.95407 0.0
C931 C 0.91267 0.12367 0.98227 0.0
C932 C 0.94585 0.25392 0.97714 0.0
C933 C 0.93854 0.26018 1.00092 0.0
C934 C 0.91976 0.21631 0.96594 0.0
C935 C 0.88598 0.18416 0.97894 0.0
C936 C 0.87798 0.19053 0.00278 0.0
C937 C 0.90421 0.22853 0.01344 0.0
C938 C 0.92879 0.2107 0.94039 0.0
C939 C 0.84243 0.15678 0.01727 0.0
H940 H 0.76503 0.08335 0.9422 0.0
H941 H 0.85385 0.05039 0.96535 0.0
H942 H 0.80109 0.17198 0.97167 0.0
H943 H 0.8341 0.19181 0.94574 0.0
H944 H 0.77985 0.15141 0.94301 0.0
H945 H 0.91876 0.09792 0.98132 0.0
H946 H 0.9397 0.15107 0.97383 0.0
H947 H 0.91126 0.13119 1.00121 0.0
H948 H 0.97214 0.27833 0.96729 0.0
H949 H 0.89838 0.23304 0.03183 0.0
H950 H 0.90001 0.19943 0.92979 0.0
H951 H 0.93808 0.18721 0.93922 0.0
H952 H 0.9544 0.23959 0.93229 0.0
H953 H 0.81208 0.14539 0.00826 0.0
H954 H 0.83974 0.16708 0.03539 0.0
H955 H 0.84751 0.13052 0.01886 0.0
C956 C 0.73136 0.70197 0.00263 0.0
C957 C 0.73486 0.69803 0.02707 0.0
C958 C 0.76474 0.71049 0.9868 0.0
C959 C 0.80274 0.71594 0.99569 0.0
C960 C 0.80629 0.71156 0.02029 0.0
C961 C 0.7722 0.70234 0.03565 0.0
C962 C 0.7596 0.71428 0.96064 0.0
C963 C 0.84654 0.71774 0.03051 0.0
C964 C 0.88698 0.71193 0.95807 0.0
C965 C 0.91725 0.75378 0.95569 0.0
C966 C 0.84825 0.69902 0.96983 0.0
C967 C 0.83989 0.72865 0.97965 0.0
C968 C 0.86919 0.77086 0.97606 0.0
C969 C 0.90731 0.78288 0.96397 0.0
C970 C 0.81734 0.6537 0.97288 0.0
C971 C 0.86161 0.80347 0.98636 0.0
H972 H 0.70247 0.69835 0.99584 0.0
H973 H 0.77525 0.69949 0.0545 0.0
H974 H 0.78154 0.74624 0.95469 0.0
H975 H 0.76775 0.69419 0.95032 0.0
H976 H 0.727 0.70602 0.95638 0.0
H977 H 0.84386 0.71235 0.04996 0.0
H978 H 0.85526 0.69668 0.02187 0.0
H979 H 0.87265 0.74952 0.0269 0.0
H980 H 0.89415 0.68917 0.9516 0.0
H981 H 0.93026 0.81531 0.96216 0.0
H982 H 0.78506 0.6463 0.96862 0.0
H983 H 0.81671 0.64488 0.99165 0.0
H984 H 0.82577 0.63483 0.96149 0.0
H985 H 0.83015 0.79764 0.98143 0.0
H986 H 0.8858 0.83477 0.9803 0.0
H987 H 0.86208 0.80255 0.00601 0.0
C988 C 0.22967 0.14639 0.95025 0.0
C989 C 0.26854 0.1741 0.93961 0.0
C990 C 0.22397 0.11117 0.96176 0.0
C991 C 0.25807 0.10418 0.9625 0.0
C992 C 0.29568 0.12994 0.94948 0.0
C993 C 0.30052 0.16483 0.93833 0.0
C994 C 0.18318 0.08395 0.97508 0.0
C995 C 0.33267 0.12338 0.94954 0.0
C996 C 0.28488 0.068 0.01768 0.0
C997 C 0.27831 0.02978 0.01044 0.0
C998 C 0.27522 0.09122 0.00282 0.0
C999 C 0.25834 0.07571 0.98021 0.0
C1000 C 0.24844 0.03579 0.97358 0.0
C1001 C 0.25886 0.01337 0.98872 0.0
C1002 C 0.28603 0.13366 0.01066 0.0
C1003 C 0.22962 0.0178 0.94988 0.0
H1004 H 0.20519 0.15406 0.95143 0.0
H1005 H 0.33062 0.18663 0.93014 0.0
H1006 H 0.17426 0.05129 0.97392 0.0
H1007 H 0.18708 0.09265 0.99409 0.0
H1008 H 0.15711 0.08719 0.96822 0.0
H1009 H 0.35725 0.14281 0.93613 0.0
H1010 H 0.34709 0.1311 0.9673 0.0
H1011 H 0.32226 0.09081 0.94596 0.0
H1012 H 0.29926 0.08067 0.03458 0.0
H1013 H 0.25342 0.98375 0.98299 0.0
H1014 H 0.25896 0.13805 0.0081 0.0
H1015 H 0.31278 0.15699 0.99967 0.0
H1016 H 0.29502 0.13947 0.02959 0.0
H1017 H 0.20602 0.02607 0.94496 0.0
H1018 H 0.21438 0.98385 0.94988 0.0
H1019 H 0.2549 0.0303 0.936 0.0
C1020 C 0.88647 0.26505 0.42051 0.0
C1021 C 0.91946 0.25704 0.41841 0.0
C1022 C 0.84801 0.23956 0.4094 0.0
C1023 C 0.84326 0.20623 0.39555 0.0
C1024 C 0.87442 0.19515 0.39606 0.0
C1025 C 0.91189 0.22036 0.40794 0.0
C1026 C 0.81438 0.25081 0.41047 0.0
C1027 C 0.87056 0.15959 0.38174 0.0
C1028 C 0.75059 0.12852 0.36019 0.0
C1029 C 0.76261 0.14598 0.33748 0.0
C1030 C 0.7741 0.14974 0.38006 0.0
C1031 C 0.81114 0.18847 0.37685 0.0
C1032 C 0.82132 0.20749 0.35421 0.0
C1033 C 0.79653 0.18616 0.33486 0.0
C1034 C 0.76074 0.12933 0.40406 0.0
C1035 C 0.86086 0.24853 0.3498 0.0
H1036 H 0.89175 0.29294 0.42907 0.0
H1037 H 0.93676 0.21324 0.40716 0.0
H1038 H 0.81734 0.26914 0.39456 0.0
H1039 H 0.78247 0.22296 0.41063 0.0
H1040 H 0.81753 0.2695 0.42642 0.0
H1041 H 0.89595 0.15315 0.38558 0.0
H1042 H 0.83976 0.13146 0.38539 0.0
H1043 H 0.87221 0.16659 0.36253 0.0
H1044 H 0.72381 0.09768 0.36233 0.0
H1045 H 0.80577 0.19986 0.31734 0.0
H1046 H 0.77015 0.15221 0.41854 0.0
H1047 H 0.77594 0.11107 0.40696 0.0
H1048 H 0.7261 0.10806 0.40517 0.0
H1049 H 0.86369 0.27139 0.36314 0.0
H1050 H 0.86184 0.26086 0.33186 0.0
H1051 H 0.88868 0.245 0.35141 0.0
C1052 C 0.84523 0.58664 0.32001 0.0
C1053 C 0.87733 0.58592 0.33235 0.0
C1054 C 0.81792 0.59703 0.3315 0.0
C1055 C 0.82344 0.60783 0.35581 0.0
C1056 C 0.85457 0.60537 0.36862 0.0
C1057 C 0.88091 0.59404 0.35677 0.0
C1058 C 0.78444 0.59829 0.31734 0.0
C1059 C 0.86176 0.6171 0.39447 0.0
C1060 C 0.78803 0.68209 0.37434 0.0
C1061 C 0.74923 0.65598 0.38564 0.0
C1062 C 0.8132 0.66701 0.36536 0.0
C1063 C 0.79873 0.6246 0.36725 0.0
C1064 C 0.75989 0.59821 0.37903 0.0
C1065 C 0.73579 0.61431 0.38831 0.0
C1066 C 0.85482 0.69633 0.35332 0.0
C1067 C 0.743 0.55273 0.38099 0.0
H1068 H 0.8422 0.5802 0.30115 0.0
H1069 H 0.90593 0.59394 0.36636 0.0
H1070 H 0.75344 0.58115 0.3267 0.0
H1071 H 0.79222 0.63051 0.31548 0.0
H1072 H 0.78152 0.58513 0.29932 0.0
H1073 H 0.88462 0.61012 0.40239 0.0
H1074 H 0.87403 0.65046 0.3963 0.0
H1075 H 0.83168 0.60081 0.40478 0.0
H1076 H 0.79854 0.71432 0.37231 0.0
H1077 H 0.70555 0.59389 0.39681 0.0
H1078 H 0.85363 0.68858 0.33422 0.0
H1079 H 0.88043 0.69343 0.36114 0.0
H1080 H 0.86291 0.72875 0.35487 0.0
H1081 H 0.73644 0.53892 0.36302 0.0
H1082 H 0.71355 0.53679 0.39193 0.0
H1083 H 0.76678 0.54708 0.38886 0.0
C1084 C 0.36661 0.20258 0.32843 0.0
C1085 C 0.36114 0.23631 0.33075 0.0
C1086 C 0.3683 0.18207 0.34847 0.0
C1087 C 0.36548 0.19635 0.37136 0.0
C1088 C 0.36379 0.2326 0.37377 0.0
C1089 C 0.3609 0.25184 0.35337 0.0
C1090 C 0.36973 0.14323 0.34505 0.0
C1091 C 0.36255 0.24976 0.39781 0.0
C1092 C 0.30721 0.10575 0.41191 0.0
C1093 C 0.34033 0.10199 0.42042 0.0
C1094 C 0.31508 0.13882 0.39758 0.0
C1095 C 0.35723 0.1693 0.39208 0.0
C1096 C 0.39072 0.16851 0.40324 0.0
C1097 C 0.38189 0.13446 0.41725 0.0
C1098 C 0.2783 0.13833 0.3861 0.0
C1099 C 0.43596 0.20144 0.39859 0.0
H1100 H 0.36704 0.19065 0.31095 0.0
H1101 H 0.35745 0.27842 0.35518 0.0
H1102 H 0.39561 0.14466 0.35535 0.0
H1103 H 0.33981 0.11654 0.35173 0.0
H1104 H 0.37432 0.13772 0.32614 0.0
H1105 H 0.37246 0.28271 0.39668 0.0
H1106 H 0.32994 0.23279 0.40521 0.0
H1107 H 0.38317 0.24626 0.41038 0.0
H1108 H 0.27501 0.08092 0.41477 0.0
H1109 H 0.4076 0.13177 0.42398 0.0
H1110 H 0.27831 0.13151 0.36691 0.0
H1111 H 0.28103 0.1687 0.38767 0.0
H1112 H 0.2476 0.11485 0.39409 0.0
H1113 H 0.44725 0.19486 0.38167 0.0
H1114 H 0.45662 0.2026 0.41294 0.0
H1115 H 0.43914 0.23201 0.3969 0.0
C1116 C 0.62398 0.58236 0.30982 0.0
C1117 C 0.61548 0.59052 0.33296 0.0
C1118 C 0.59775 0.54425 0.29915 0.0
C1119 C 0.56251 0.51356 0.31202 0.0
C1120 C 0.55343 0.52178 0.33523 0.0
C1121 C 0.57989 0.56021 0.34537 0.0
C1122 C 0.608 0.53663 0.27425 0.0
C1123 C 0.51622 0.48966 0.34957 0.0
C1124 C 0.4703 0.42319 0.28256 0.0
C1125 C 0.47828 0.39155 0.28711 0.0
C1126 C 0.49855 0.46357 0.28955 0.0
C1127 C 0.53537 0.47238 0.3016 0.0
C1128 C 0.54448 0.44096 0.3054 0.0
C1129 C 0.51591 0.40092 0.29798 0.0
C1130 C 0.48814 0.49646 0.28491 0.0
C1131 C 0.58336 0.44921 0.31835 0.0
H1132 H 0.65132 0.60566 0.30006 0.0
H1133 H 0.57311 0.56612 0.36328 0.0
H1134 H 0.61496 0.51149 0.27436 0.0
H1135 H 0.58045 0.52668 0.26277 0.0
H1136 H 0.63549 0.56431 0.26626 0.0
H1137 H 0.51329 0.50112 0.36729 0.0
H1138 H 0.48666 0.47936 0.3399 0.0
H1139 H 0.51935 0.4624 0.35209 0.0
H1140 H 0.44151 0.41629 0.27392 0.0
H1141 H 0.52233 0.37667 0.30156 0.0
H1142 H 0.51555 0.52363 0.27653 0.0
H1143 H 0.48102 0.50668 0.30197 0.0
H1144 H 0.46059 0.48552 0.27326 0.0
H1145 H 0.61187 0.47551 0.31016 0.0
H1146 H 0.58743 0.42218 0.31833 0.0
H1147 H 0.5812 0.45758 0.33702 0.0
C1148 C 0.56753 0.05298 0.29672 0.0
C1149 C 0.59922 0.09456 0.29686 0.0
C1150 C 0.52742 0.03991 0.30671 0.0
C1151 C 0.51908 0.06904 0.31733 0.0
C1152 C 0.55022 0.11119 0.31649 0.0
C1153 C 0.58972 0.12343 0.30613 0.0
C1154 C 0.49468 0.99475 0.30689 0.0
C1155 C 0.54277 0.14323 0.32781 0.0
C1156 C 0.40867 0.04415 0.3352 0.0
C1157 C 0.40742 0.03572 0.35948 0.0
C1158 C 0.44425 0.05363 0.32099 0.0
C1159 C 0.47961 0.05543 0.33141 0.0
C1160 C 0.47834 0.04656 0.35584 0.0
C1161 C 0.44221 0.03654 0.36952 0.0
C1162 C 0.44426 0.06232 0.29493 0.0
C1163 C 0.51566 0.04876 0.36772 0.0
H1164 H 0.57438 0.03044 0.28946 0.0
H1165 H 0.61381 0.15566 0.30629 0.0
H1166 H 0.48993 0.98266 0.32524 0.0
H1167 H 0.46399 0.98974 0.30098 0.0
H1168 H 0.50406 0.97681 0.2953 0.0
H1169 H 0.56899 0.17493 0.32403 0.0
H1170 H 0.51312 0.14011 0.32144 0.0
H1171 H 0.53933 0.13866 0.34732 0.0
H1172 H 0.38183 0.04331 0.32726 0.0
H1173 H 0.44164 0.03022 0.38827 0.0
H1174 H 0.45279 0.04291 0.28417 0.0
H1175 H 0.46834 0.09475 0.29105 0.0
H1176 H 0.41318 0.05664 0.2892 0.0
H1177 H 0.52457 0.02821 0.3586 0.0
H1178 H 0.50921 0.04 0.38676 0.0
H1179 H 0.54319 0.08042 0.36636 0.0
C1180 C 0.98346 0.49345 0.27807 0.0
C1181 C 0.94785 0.49668 0.27506 0.0
C1182 C 0.98014 0.45864 0.28841 0.0
C1183 C 0.94016 0.42649 0.29624 0.0
C1184 C 0.90353 0.42778 0.29102 0.0
C1185 C 0.90781 0.46313 0.28037 0.0
C1186 C 0.02004 0.45842 0.29327 0.0
C1187 C 0.86033 0.39371 0.29867 0.0
C1188 C 0.94933 0.34052 0.32303 0.0
C1189 C 0.95913 0.3545 0.34646 0.0
C1190 C 0.9389 0.36139 0.30664 0.0
C1191 C 0.93864 0.39705 0.31392 0.0
C1192 C 0.9448 0.40894 0.33805 0.0
C1193 C 0.95479 0.3874 0.35398 0.0
C1194 C 0.93134 0.34701 0.28124 0.0
C1195 C 0.94436 0.44653 0.34673 0.0
H1196 H 0.01437 0.51942 0.27368 0.0
H1197 H 0.88027 0.46577 0.27801 0.0
H1198 H 0.02659 0.46313 0.31252 0.0
H1199 H 0.01645 0.42846 0.28838 0.0
H1200 H 0.04769 0.483 0.28337 0.0
H1201 H 0.83534 0.39388 0.28821 0.0
H1202 H 0.8576 0.36332 0.29683 0.0
H1203 H 0.85474 0.39783 0.31764 0.0
H1204 H 0.95183 0.31457 0.31716 0.0
H1205 H 0.96066 0.39737 0.37222 0.0
H1206 H 0.96097 0.36494 0.27071 0.0
H1207 H 0.90705 0.35179 0.27324 0.0
H1208 H 0.92133 0.31405 0.27984 0.0
H1209 H 0.97202 0.47447 0.33914 0.0
H1210 H 0.9455 0.44913 0.36638 0.0
H1211 H 0.91568 0.44591 0.34077 0.0
C1212 C 0.45478 0.50443 0.66347 0.0
C1213 C 0.42124 0.46384 0.66443 0.0
C1214 C 0.47772 0.52376 0.68374 0.0
C1215 C 0.46615 0.50216 0.70559 0.0
C1216 C 0.42939 0.46286 0.70717 0.0
C1217 C 0.40767 0.4438 0.68642 0.0
C1218 C 0.51703 0.5655 0.68104 0.0
C1219 C 0.41464 0.43963 0.7303 0.0
C1220 C 0.56507 0.53221 0.73811 0.0
C1221 C 0.57082 0.56704 0.75019 0.0
C1222 C 0.52863 0.50787 0.72521 0.0
C1223 C 0.49677 0.51804 0.72509 0.0
C1224 C 0.49961 0.54919 0.74029 0.0
C1225 C 0.53698 0.57375 0.75258 0.0
C1226 C 0.52675 0.47457 0.70946 0.0
C1227 C 0.4653 0.5595 0.74156 0.0
H1228 H 0.46521 0.52013 0.64653 0.0
H1229 H 0.38113 0.41262 0.6873 0.0
H1230 H 0.51926 0.58625 0.69563 0.0
H1231 H 0.54494 0.56196 0.68181 0.0
H1232 H 0.51837 0.58033 0.66389 0.0
H1233 H 0.3802 0.41729 0.73031 0.0
H1234 H 0.43086 0.42221 0.73283 0.0
H1235 H 0.42191 0.46069 0.74558 0.0
H1236 H 0.59072 0.52619 0.73691 0.0
H1237 H 0.54093 0.60026 0.76227 0.0
H1238 H 0.53016 0.48417 0.69062 0.0
H1239 H 0.49592 0.44581 0.71163 0.0
H1240 H 0.55206 0.46803 0.71332 0.0
H1241 H 0.46902 0.57949 0.72635 0.0
H1242 H 0.46684 0.57614 0.75818 0.0
H1243 H 0.43372 0.53137 0.74052 0.0
C1244 C 0.54184 0.94062 0.69182 0.0
C1245 C 0.53903 0.93124 0.66756 0.0
C1246 C 0.5132 0.9496 0.70302 0.0
C1247 C 0.48063 0.94847 0.68972 0.0
C1248 C 0.47631 0.93686 0.66555 0.0
C1249 C 0.5058 0.92877 0.6547 0.0
C1250 C 0.5191 0.96233 0.72875 0.0
C1251 C 0.44149 0.9345 0.65087 0.0
C1252 C 0.38747 0.9472 0.72057 0.0
C1253 C 0.39756 0.98783 0.71728 0.0
C1254 C 0.41457 0.93399 0.71208 0.0
C1255 C 0.45291 0.96232 0.70047 0.0
C1256 C 0.46397 0.00377 0.69802 0.0
C1257 C 0.43595 0.01591 0.70625 0.0
C1258 C 0.40141 0.88943 0.71468 0.0
C1259 C 0.50491 0.0351 0.68612 0.0
H1260 H 0.56761 0.94286 0.70182 0.0
H1261 H 0.50328 0.92123 0.63599 0.0
H1262 H 0.5282 0.99502 0.73014 0.0
H1263 H 0.48916 0.94414 0.73896 0.0
H1264 H 0.54382 0.95852 0.73709 0.0
H1265 H 0.44021 0.9214 0.63299 0.0
H1266 H 0.41056 0.91546 0.66004 0.0
H1267 H 0.44636 0.96566 0.64868 0.0
H1268 H 0.35761 0.92531 0.72891 0.0
H1269 H 0.44391 0.0474 0.70381 0.0
H1270 H 0.42665 0.88665 0.72309 0.0
H1271 H 0.39638 0.87513 0.69688 0.0
H1272 H 0.37192 0.8719 0.72544 0.0
H1273 H 0.53177 0.03503 0.69444 0.0
H1274 H 0.51013 0.0666 0.68717 0.0
H1275 H 0.50494 0.02706 0.66716 0.0
C1276 C 0.03709 0.45855 0.74403 0.0
C1277 C 0.99707 0.42331 0.74624 0.0
C1278 C 0.0436 0.49124 0.72948 0.0
C1279 C 0.00945 0.48787 0.71668 0.0
C1280 C 0.96843 0.45383 0.72053 0.0
C1281 C 0.9627 0.42237 0.73563 0.0
C1282 C 0.08748 0.52781 0.72639 0.0
C1283 C 0.93115 0.44863 0.70704 0.0
C1284 C 0.00722 0.57043 0.68099 0.0
C1285 C 0.01265 0.55968 0.65789 0.0
C1286 C 0.00961 0.54948 0.70068 0.0
C1287 C 0.01671 0.51658 0.69704 0.0
C1288 C 0.02473 0.50727 0.67382 0.0
C1289 C 0.02294 0.52922 0.65453 0.0
C1290 C 0.00194 0.56091 0.7252 0.0
C1291 C 0.03198 0.47207 0.66915 0.0
H1292 H 0.06372 0.45944 0.75228 0.0
H1293 H 0.93155 0.39541 0.73771 0.0
H1294 H 0.10153 0.52498 0.70941 0.0
H1295 H 0.08681 0.55666 0.72564 0.0
H1296 H 0.10818 0.53002 0.74101 0.0
H1297 H 0.90098 0.42172 0.7133 0.0
H1298 H 0.92865 0.47642 0.70875 0.0
H1299 H 0.93556 0.44445 0.68789 0.0
H1300 H -0.00022 0.59434 0.68368 0.0
H1301 H 0.02729 0.52088 0.6367 0.0
H1302 H 0.02414 0.5606 0.73798 0.0
H1303 H 0.96955 0.53811 0.73139 0.0
H1304 H 0.00527 0.5917 0.72546 0.0
H1305 H 0.05695 0.47436 0.6807 0.0
H1306 H 0.04118 0.47107 0.65038 0.0
H1307 H 0.0027 0.44264 0.67341 0.0
C1308 C 0.22386 0.88732 0.67448 0.0
C1309 C 0.26028 0.91763 0.66267 0.0
C1310 C 0.19778 0.84906 0.66404 0.0
C1311 C 0.20789 0.84111 0.64102 0.0
C1312 C 0.24375 0.87195 0.62863 0.0
C1313 C 0.26972 0.90979 0.63967 0.0
C1314 C 0.15996 0.81677 0.67793 0.0
C1315 C 0.25501 0.86475 0.60387 0.0
C1316 C 0.16325 0.72885 0.62653 0.0
C1317 C 0.12595 0.71913 0.61515 0.0
C1318 C 0.19096 0.76884 0.63438 0.0
C1319 C 0.18145 0.79993 0.63039 0.0
C1320 C 0.14497 0.7908 0.61784 0.0
C1321 C 0.11744 0.7504 0.61053 0.0
C1322 C 0.22935 0.77734 0.64795 0.0
C1323 C 0.13425 0.82337 0.61288 0.0
H1324 H 0.21606 0.89305 0.69215 0.0
H1325 H 0.2976 0.9331 0.6303 0.0
H1326 H 0.13084 0.80665 0.66786 0.0
H1327 H 0.16294 0.78946 0.68057 0.0
H1328 H 0.15632 0.82799 0.69558 0.0
H1329 H 0.28251 0.8927 0.59612 0.0
H1330 H 0.26247 0.83995 0.60417 0.0
H1331 H 0.22779 0.85452 0.59208 0.0
H1332 H 0.16998 0.70484 0.63022 0.0
H1333 H 0.08888 0.74318 0.60151 0.0
H1334 H 0.22639 0.78575 0.6665 0.0
H1335 H 0.25809 0.80371 0.64 0.0
H1336 H 0.23361 0.75045 0.6483 0.0
H1337 H 0.12622 0.83325 0.62977 0.0
H1338 H 0.10719 0.81228 0.60084 0.0
H1339 H 0.16182 0.85079 0.60481 0.0
C1340 C 0.07368 0.36871 0.66459 0.0
C1341 C 0.07369 0.36178 0.68899 0.0
C1342 C 0.10886 0.37827 0.65005 0.0
C1343 C 0.14508 0.38159 0.66023 0.0
C1344 C 0.1451 0.37419 0.68479 0.0
C1345 C 0.10931 0.36408 0.69884 0.0
C1346 C 0.1075 0.38534 0.62387 0.0
C1347 C 0.18335 0.37794 0.69637 0.0
C1348 C 0.23167 0.37883 0.62434 0.0
C1349 C 0.26292 0.42057 0.62361 0.0
C1350 C 0.19218 0.36571 0.63517 0.0
C1351 C 0.18394 0.395 0.64563 0.0
C1352 C 0.21445 0.43725 0.64381 0.0
C1353 C 0.25342 0.44952 0.63272 0.0
C1354 C 0.1601 0.3204 0.63644 0.0
C1355 C 0.20691 0.46946 0.6548 0.0
H1356 H 0.0461 0.36655 0.65679 0.0
H1357 H 0.1096 0.35881 0.71767 0.0
H1358 H 0.13123 0.41758 0.61928 0.0
H1359 H 0.11569 0.36545 0.61337 0.0
H1360 H 0.07605 0.37909 0.61847 0.0
H1361 H 0.17791 0.37029 0.71558 0.0
H1362 H 0.19243 0.3573 0.68752 0.0
H1363 H 0.21039 0.40974 0.69431 0.0
H1364 H 0.23853 0.3562 0.61725 0.0
H1365 H 0.27715 0.48186 0.63217 0.0
H1366 H 0.12886 0.31439 0.63086 0.0
H1367 H 0.15651 0.30961 0.65503 0.0
H1368 H 0.16935 0.30207 0.62512 0.0
H1369 H 0.17667 0.46543 0.64881 0.0
H1370 H 0.23255 0.5011 0.65033 0.0
H1371 H 0.2046 0.46598 0.67439 0.0
C1372 C 0.60166 0.70825 0.69626 0.0
C1373 C 0.6084 0.67839 0.68587 0.0
C1374 C 0.59312 0.73331 0.68231 0.0
C1375 C 0.59213 0.72882 0.65734 0.0
C1376 C 0.59521 0.69635 0.64695 0.0
C1377 C 0.60305 0.67123 0.66141 0.0
C1378 C 0.58899 0.76697 0.69414 0.0
C1379 C 0.59428 0.69052 0.62042 0.0
C1380 C 0.56627 0.79872 0.62316 0.0
C1381 C 0.60653 0.83346 0.62045 0.0
C1382 C 0.56081 0.76325 0.6343 0.0
C1383 C 0.59655 0.76277 0.64239 0.0
C1384 C 0.63736 0.79702 0.63822 0.0
C1385 C 0.64175 0.83203 0.62752 0.0
C1386 C 0.51685 0.72746 0.63867 0.0
C1387 C 0.67644 0.79761 0.64616 0.0
H1388 H 0.60484 0.71325 0.71526 0.0
H1389 H 0.60785 0.64788 0.65332 0.0
H1390 H 0.6184 0.79686 0.69105 0.0
H1391 H 0.56278 0.76902 0.68647 0.0
H1392 H 0.58342 0.76209 0.71359 0.0
H1393 H 0.58839 0.6596 0.61557 0.0
H1394 H 0.56974 0.69492 0.61244 0.0
H1395 H 0.62513 0.71378 0.61253 0.0
H1396 H 0.53904 0.80001 0.61774 0.0
H1397 H 0.67294 0.85883 0.62514 0.0
H1398 H 0.50796 0.72698 0.65764 0.0
H1399 H 0.51526 0.69799 0.63485 0.0
H1400 H 0.49338 0.7295 0.62774 0.0
H1401 H 0.67699 0.79757 0.66583 0.0
H1402 H 0.70582 0.82505 0.63955 0.0
H1403 H 0.67629 0.76978 0.63984 0.0
loop_
_geom_bond_atom_site_label_1
_geom_bond_atom_site_label_2
_geom_bond_distance
_geom_bond_site_symmetry_2
_ccdc_geom_bond_type
Mg0 O1 2.028 . S
Mg0 O7 1.986 . S
Mg0 O9 2.114 1_545 S
Mg0 O10 2.251 1_545 S
Mg0 O13 2.010 . S
O1 Mg0 2.028 . S
O1 C4 1.250 . S
O2 Mg3 2.028 . S
O2 C4 1.248 . S
Mg3 O2 2.028 . S
Mg3 O8 2.032 . S
Mg3 O10 2.079 1_545 S
C4 O1 1.250 . S
C4 O2 1.248 . S
C5 O6 1.264 . S
C5 O13 1.249 . S
O6 C5 1.264 . S
O7 Mg0 1.986 . S
O7 C11 1.246 . S
O8 Mg3 2.032 . S
O8 C11 1.259 . S
O9 Mg0 2.114 1_565 S
O9 C12 1.252 . S
O10 Mg0 2.251 1_565 S
O10 Mg3 2.079 1_565 S
O10 C12 1.273 . S
C11 O7 1.246 . S
C11 O8 1.259 . S
C12 O9 1.252 . S
C12 O10 1.273 . S
O13 Mg0 2.010 . S
O13 C5 1.249 . S
Mg14 O15 2.028 . S
Mg14 O21 1.986 . S
Mg14 O23 2.114 1_655 S
Mg14 O24 2.251 1_655 S
Mg14 O27 2.010 . S
O15 Mg14 2.028 . S
O15 C18 1.250 . S
O16 Mg17 2.028 1_554 S
O16 C18 1.248 . S
Mg17 O16 2.028 1_556 S
Mg17 O22 2.032 1_556 S
Mg17 O24 2.079 1_656 S
C18 O15 1.250 . S
C18 O16 1.248 . S
C19 O20 1.264 . S
C19 O27 1.249 . S
O20 C19 1.264 . S
O21 Mg14 1.986 . S
O21 C25 1.246 . S
O22 Mg17 2.032 1_554 S
O22 C25 1.259 . S
O23 Mg14 2.114 1_455 S
O23 C26 1.252 . S
O24 Mg14 2.251 1_455 S
O24 Mg17 2.079 1_454 S
O24 C26 1.273 . S
C25 O21 1.246 . S
C25 O22 1.259 . S
C26 O23 1.252 . S
C26 O24 1.273 . S
O27 Mg14 2.010 . S
O27 C19 1.249 . S
Mg28 O29 2.028 . S
Mg28 O35 1.986 . S
Mg28 O37 2.114 . S
Mg28 O38 2.251 . S
Mg28 O41 2.010 . S
O29 Mg28 2.028 . S
O29 C32 1.250 . S
O30 Mg31 2.028 . S
O30 C32 1.248 . S
Mg31 O30 2.028 . S
Mg31 O36 2.032 . S
Mg31 O38 2.079 . S
C32 O29 1.250 . S
C32 O30 1.248 . S
C33 O34 1.264 . S
C33 O41 1.249 . S
O34 C33 1.264 . S
O35 Mg28 1.986 . S
O35 C39 1.246 . S
O36 Mg31 2.032 . S
O36 C39 1.259 . S
O37 Mg28 2.114 . S
O37 C40 1.252 . S
O38 Mg28 2.251 . S
O38 Mg31 2.079 . S
O38 C40 1.273 . S
C39 O35 1.246 . S
C39 O36 1.259 . S
C40 O37 1.252 . S
C40 O38 1.273 . S
O41 Mg28 2.010 . S
O41 C33 1.249 . S
Mg42 O43 2.028 1_565 S
Mg42 O49 1.986 . S
Mg42 O51 2.114 . S
Mg42 O52 2.251 . S
Mg42 O55 2.010 . S
O43 Mg42 2.028 1_545 S
O43 C46 1.250 . S
O44 Mg45 2.028 1_545 S
O44 C46 1.248 . S
Mg45 O44 2.028 1_565 S
Mg45 O50 2.032 . S
Mg45 O52 2.079 . S
C46 O43 1.250 . S
C46 O44 1.248 . S
C47 O48 1.264 . S
C47 O55 1.249 . S
O48 C47 1.264 . S
O49 Mg42 1.986 . S
O49 C53 1.246 . S
O50 Mg45 2.032 . S
O50 C53 1.259 . S
O51 Mg42 2.114 . S
O51 C54 1.252 . S
O52 Mg42 2.251 . S
O52 Mg45 2.079 . S
O52 C54 1.273 . S
C53 O49 1.246 . S
C53 O50 1.259 . S
C54 O51 1.252 . S
C54 O52 1.273 . S
O55 Mg42 2.010 . S
O55 C47 1.249 . S
Mg56 O57 2.028 1_455 S
Mg56 O63 1.986 . S
Mg56 O65 2.114 . S
Mg56 O66 2.251 . S
Mg56 O69 2.010 . S
O57 Mg56 2.028 1_655 S
O57 C60 1.250 . S
O58 Mg59 2.028 1_655 S
O58 C60 1.248 . S
Mg59 O58 2.028 1_455 S
Mg59 O64 2.032 . S
Mg59 O66 2.079 . S
C60 O57 1.250 . S
C60 O58 1.248 . S
C61 O62 1.264 . S
C61 O69 1.249 . S
O62 C61 1.264 . S
O63 Mg56 1.986 . S
O63 C67 1.246 . S
O64 Mg59 2.032 . S
O64 C67 1.259 . S
O65 Mg56 2.114 . S
O65 C68 1.252 . S
O66 Mg56 2.251 . S
O66 Mg59 2.079 . S
O66 C68 1.273 . S
C67 O63 1.246 . S
C67 O64 1.259 . S
C68 O65 1.252 . S
C68 O66 1.273 . S
O69 Mg56 2.010 . S
O69 C61 1.249 . S
Mg70 O71 2.028 . S
Mg70 O77 1.986 . S
Mg70 O79 2.114 . S
Mg70 O80 2.251 . S
Mg70 O83 2.010 . S
O71 Mg70 2.028 . S
O71 C74 1.250 . S
O72 Mg73 2.028 . S
O72 C74 1.248 . S
Mg73 O72 2.028 . S
Mg73 O78 2.032 . S
Mg73 O80 2.079 . S
C74 O71 1.250 . S
C74 O72 1.248 . S
C75 O76 1.264 . S
C75 O83 1.249 . S
O76 C75 1.264 . S
O77 Mg70 1.986 . S
O77 C81 1.246 . S
O78 Mg73 2.032 . S
O78 C81 1.259 . S
O79 Mg70 2.114 . S
O79 C82 1.252 . S
O80 Mg70 2.251 . S
O80 Mg73 2.079 . S
O80 C82 1.273 . S
C81 O77 1.246 . S
C81 O78 1.259 . S
C82 O79 1.252 . S
C82 O80 1.273 . S
O83 Mg70 2.010 . S
O83 C75 1.249 . S
Mg84 O85 2.028 . S
Mg84 O91 1.986 1_655 S
Mg84 O93 2.114 . S
Mg84 O94 2.251 . S
Mg84 O97 2.010 1_655 S
O85 Mg84 2.028 . S
O85 C88 1.250 . S
O86 Mg87 2.027 . S
O86 C88 1.248 . S
Mg87 O86 2.027 . S
Mg87 O92 2.034 1_655 S
Mg87 O94 2.078 . S
C88 O85 1.250 . S
C88 O86 1.248 . S
C89 O90 1.264 . S
C89 O97 1.249 1_655 S
O90 C89 1.264 . S
O91 Mg84 1.986 1_455 S
O91 C95 1.246 . S
O92 Mg87 2.034 1_455 S
O92 C95 1.259 . S
O93 Mg84 2.114 . S
O93 C96 1.252 . S
O94 Mg84 2.251 . S
O94 Mg87 2.078 . S
O94 C96 1.273 . S
C95 O91 1.246 . S
C95 O92 1.259 . S
C96 O93 1.252 . S
C96 O94 1.273 . S
O97 Mg84 2.010 1_455 S
O97 C89 1.249 1_455 S
Mg98 O99 2.028 . S
Mg98 O105 1.986 . S
Mg98 O107 2.114 . S
Mg98 O108 2.251 . S
Mg98 O111 2.010 . S
O99 Mg98 2.028 . S
O99 C102 1.250 . S
O100 Mg101 2.028 . S
O100 C102 1.248 . S
Mg101 O100 2.028 . S
Mg101 O106 2.032 . S
Mg101 O108 2.079 . S
C102 O99 1.250 . S
C102 O100 1.248 . S
C103 O104 1.264 . S
C103 O111 1.249 . S
O104 C103 1.264 . S
O105 Mg98 1.986 . S
O105 C109 1.246 . S
O106 Mg101 2.032 . S
O106 C109 1.259 . S
O107 Mg98 2.114 . S
O107 C110 1.252 . S
O108 Mg98 2.251 . S
O108 Mg101 2.079 . S
O108 C110 1.273 . S
C109 O105 1.246 . S
C109 O106 1.259 . S
C110 O107 1.252 . S
C110 O108 1.273 . S
O111 Mg98 2.010 . S
O111 C103 1.249 . S
Mg112 O113 2.028 . S
Mg112 O119 1.986 1_545 S
Mg112 O121 2.114 . S
Mg112 O122 2.251 . S
Mg112 O125 2.010 1_545 S
O113 Mg112 2.028 . S
O113 C116 1.250 . S
O114 Mg115 2.028 . S
O114 C116 1.248 . S
Mg115 O114 2.028 . S
Mg115 O120 2.032 1_545 S
Mg115 O122 2.079 . S
C116 O113 1.250 . S
C116 O114 1.248 . S
C117 O118 1.264 1_565 S
C117 O125 1.249 . S
O118 C117 1.264 1_545 S
O119 Mg112 1.986 1_565 S
O119 C123 1.246 . S
O120 Mg115 2.032 1_565 S
O120 C123 1.259 . S
O121 Mg112 2.114 . S
O121 C124 1.252 . S
O122 Mg112 2.251 . S
O122 Mg115 2.079 . S
O122 C124 1.273 . S
C123 O119 1.246 . S
C123 O120 1.259 . S
C124 O121 1.252 . S
C124 O122 1.273 . S
O125 Mg112 2.010 1_565 S
O125 C117 1.249 . S
Mg126 O127 2.028 . S
Mg126 O133 1.986 . S
Mg126 O135 2.114 . S
Mg126 O136 2.251 . S
Mg126 O139 2.010 . S
O127 Mg126 2.028 . S
O127 C130 1.250 . S
O128 Mg129 2.028 . S
O128 C130 1.248 . S
Mg129 O128 2.028 . S
Mg129 O134 2.032 . S
Mg129 O136 2.079 . S
C130 O127 1.250 . S
C130 O128 1.248 . S
C131 O132 1.264 . S
C131 O139 1.249 . S
O132 C131 1.264 . S
O133 Mg126 1.986 . S
O133 C137 1.246 . S
O134 Mg129 2.032 . S
O134 C137 1.259 . S
O135 Mg126 2.114 . S
O135 C138 1.252 . S
O136 Mg126 2.251 . S
O136 Mg129 2.079 . S
O136 C138 1.273 . S
C137 O133 1.246 . S
C137 O134 1.259 . S
C138 O135 1.252 . S
C138 O136 1.273 . S
O139 Mg126 2.010 . S
O139 C131 1.249 . S
Mg140 O141 2.028 . S
Mg140 O147 1.986 . S
Mg140 O149 2.114 . S
Mg140 O150 2.251 . S
Mg140 O153 2.010 1_545 S
O141 Mg140 2.028 . S
O141 C144 1.250 . S
O142 Mg143 2.028 . S
O142 C144 1.248 . S
Mg143 O142 2.028 . S
Mg143 O148 2.032 . S
Mg143 O150 2.079 . S
C144 O141 1.250 . S
C144 O142 1.248 . S
C145 O146 1.264 . S
C145 O153 1.249 . S
O146 C145 1.264 . S
O147 Mg140 1.986 . S
O147 C151 1.246 . S
O148 Mg143 2.032 . S
O148 C151 1.259 . S
O149 Mg140 2.114 . S
O149 C152 1.252 . S
O150 Mg140 2.251 . S
O150 Mg143 2.079 . S
O150 C152 1.273 . S
C151 O147 1.246 . S
C151 O148 1.259 . S
C152 O149 1.252 . S
C152 O150 1.273 . S
O153 Mg140 2.010 1_565 S
O153 C145 1.249 . S
Mg154 O155 2.028 . S
Mg154 O161 1.986 1_655 S
Mg154 O163 2.114 . S
Mg154 O164 2.251 . S
Mg154 O167 2.010 . S
O155 Mg154 2.028 . S
O155 C158 1.250 . S
O156 Mg157 2.028 . S
O156 C158 1.248 . S
Mg157 O156 2.028 . S
Mg157 O162 2.032 1_655 S
Mg157 O164 2.079 . S
C158 O155 1.250 . S
C158 O156 1.248 . S
C159 O160 1.264 . S
C159 O167 1.249 . S
O160 C159 1.264 . S
O161 Mg154 1.986 1_455 S
O161 C165 1.246 . S
O162 Mg157 2.032 1_455 S
O162 C165 1.259 . S
O163 Mg154 2.114 . S
O163 C166 1.252 . S
O164 Mg154 2.251 . S
O164 Mg157 2.079 . S
O164 C166 1.273 . S
C165 O161 1.246 . S
C165 O162 1.259 . S
C166 O163 1.252 . S
C166 O164 1.273 . S
O167 Mg154 2.010 . S
O167 C159 1.249 . S
Mg168 O169 2.028 . S
Mg168 O175 1.986 . S
Mg168 O177 2.114 . S
Mg168 O178 2.251 . S
Mg168 O181 2.010 . S
O169 Mg168 2.028 . S
O169 C172 1.250 . S
O170 Mg171 2.028 . S
O170 C172 1.248 . S
Mg171 O170 2.028 . S
Mg171 O176 2.032 . S
Mg171 O178 2.079 . S
C172 O169 1.250 . S
C172 O170 1.248 . S
C173 O174 1.264 . S
C173 O181 1.249 . S
O174 C173 1.264 . S
O175 Mg168 1.986 . S
O175 C179 1.246 . S
O176 Mg171 2.032 . S
O176 C179 1.259 . S
O177 Mg168 2.114 . S
O177 C180 1.252 . S
O178 Mg168 2.251 . S
O178 Mg171 2.079 . S
O178 C180 1.273 . S
C179 O175 1.246 . S
C179 O176 1.259 . S
C180 O177 1.252 . S
C180 O178 1.273 . S
O181 Mg168 2.010 . S
O181 C173 1.249 . S
Mg182 O183 2.028 . S
Mg182 O189 1.986 1_565 S
Mg182 O191 2.114 . S
Mg182 O192 2.251 . S
Mg182 O195 2.010 . S
O183 Mg182 2.028 . S
O183 C186 1.250 . S
O184 Mg185 2.028 . S
O184 C186 1.248 . S
Mg185 O184 2.028 . S
Mg185 O190 2.032 1_565 S
Mg185 O192 2.079 . S
C186 O183 1.250 . S
C186 O184 1.248 . S
C187 O188 1.264 . S
C187 O195 1.249 . S
O188 C187 1.264 . S
O189 Mg182 1.986 1_545 S
O189 C193 1.246 . S
O190 Mg185 2.032 1_545 S
O190 C193 1.259 . S
O191 Mg182 2.114 . S
O191 C194 1.252 . S
O192 Mg182 2.251 . S
O192 Mg185 2.079 . S
O192 C194 1.273 . S
C193 O189 1.246 . S
C193 O190 1.259 . S
C194 O191 1.252 . S
C194 O192 1.273 . S
O195 Mg182 2.010 . S
O195 C187 1.249 . S
Mg196 O197 2.028 . S
Mg196 O203 1.986 1_455 S
Mg196 O205 2.114 . S
Mg196 O206 2.251 . S
Mg196 O209 2.010 . S
O197 Mg196 2.028 . S
O197 C200 1.250 . S
O198 Mg199 2.028 . S
O198 C200 1.248 . S
Mg199 O198 2.028 . S
Mg199 O204 2.032 1_455 S
Mg199 O206 2.079 . S
C200 O197 1.250 . S
C200 O198 1.248 . S
C201 O202 1.264 . S
C201 O209 1.249 . S
O202 C201 1.264 . S
O203 Mg196 1.986 1_655 S
O203 C207 1.246 . S
O204 Mg199 2.032 1_655 S
O204 C207 1.259 . S
O205 Mg196 2.114 . S
O205 C208 1.252 . S
O206 Mg196 2.251 . S
O206 Mg199 2.079 . S
O206 C208 1.273 . S
C207 O203 1.246 . S
C207 O204 1.259 . S
C208 O205 1.252 . S
C208 O206 1.273 . S
O209 Mg196 2.010 . S
O209 C201 1.249 . S
Mg210 O211 2.028 1_655 S
Mg210 O217 1.986 . S
Mg210 O219 2.114 . S
Mg210 O220 2.251 1_655 S
Mg210 O223 2.010 . S
O211 Mg210 2.028 1_455 S
O211 C214 1.250 . S
O212 Mg213 2.028 . S
O212 C214 1.248 . S
Mg213 O212 2.028 . S
Mg213 O218 2.032 . S
Mg213 O220 2.079 . S
C214 O211 1.250 . S
C214 O212 1.248 . S
C215 O216 1.264 . S
C215 O223 1.249 . S
O216 C215 1.264 . S
O217 Mg210 1.986 . S
O217 C221 1.246 1_655 S
O218 Mg213 2.032 . S
O218 C221 1.259 . S
O219 Mg210 2.114 . S
O219 C222 1.252 1_655 S
O220 Mg210 2.251 1_455 S
O220 Mg213 2.079 . S
O220 C222 1.273 . S
C221 O217 1.246 1_455 S
C221 O218 1.259 . S
C222 O219 1.252 1_455 S
C222 O220 1.273 . S
O223 Mg210 2.010 . S
O223 C215 1.249 . S
Mg224 O225 2.028 . S
Mg224 O231 1.986 . S
Mg224 O233 2.114 . S
Mg224 O234 2.251 . S
Mg224 O237 2.010 . S
O225 Mg224 2.028 . S
O225 C228 1.250 . S
O226 Mg227 2.028 . S
O226 C228 1.248 . S
Mg227 O226 2.028 . S
Mg227 O232 2.032 . S
Mg227 O234 2.079 . S
C228 O225 1.250 . S
C228 O226 1.248 . S
C229 O230 1.264 . S
C229 O237 1.249 . S
O230 C229 1.264 . S
O231 Mg224 1.986 . S
O231 C235 1.246 . S
O232 Mg227 2.032 . S
O232 C235 1.259 . S
O233 Mg224 2.114 . S
O233 C236 1.252 . S
O234 Mg224 2.251 . S
O234 Mg227 2.079 . S
O234 C236 1.273 . S
C235 O231 1.246 . S
C235 O232 1.259 . S
C236 O233 1.252 . S
C236 O234 1.273 . S
O237 Mg224 2.010 . S
O237 C229 1.249 . S
Mg238 O239 2.028 . S
Mg238 O245 1.986 1_565 S
Mg238 O247 2.114 . S
Mg238 O248 2.251 . S
Mg238 O251 2.010 1_565 S
O239 Mg238 2.028 . S
O239 C242 1.250 . S
O240 Mg241 2.022 . S
O240 C242 1.248 . S
Mg241 O240 2.022 . S
Mg241 O246 2.022 1_565 S
Mg241 O248 2.088 . S
C242 O239 1.250 . S
C242 O240 1.248 . S
C243 O244 1.265 . S
C243 O251 1.250 1_565 S
O244 C243 1.265 . S
O245 Mg238 1.986 1_545 S
O245 C249 1.246 . S
O246 Mg241 2.022 1_545 S
O246 C249 1.259 . S
O247 Mg238 2.114 . S
O247 C250 1.252 . S
O248 Mg238 2.251 . S
O248 Mg241 2.088 . S
O248 C250 1.273 . S
C249 O245 1.246 . S
C249 O246 1.259 . S
C250 O247 1.252 . S
C250 O248 1.273 . S
O251 Mg238 2.010 1_545 S
O251 C243 1.250 1_545 S
C252 C253 1.391 . S
C252 C254 1.394 1_554 S
C252 H268 0.931 1_554 S
C253 C252 1.391 . S
C253 C257 1.376 . S
C254 C252 1.394 1_556 S
C254 C255 1.369 1_556 S
C254 C258 1.531 . S
C255 C254 1.369 1_554 S
C255 C256 1.410 . S
C255 C263 1.503 1_554 S
C256 C255 1.410 . S
C256 C257 1.392 . S
C256 C259 1.511 . S
C257 C253 1.376 . S
C257 C256 1.392 . S
C257 H269 0.929 . S
C258 C254 1.531 . S
C258 H270 0.960 . S
C258 H271 0.962 . S
C258 H272 0.960 . S
C259 C256 1.511 . S
C259 H273 0.961 . S
C259 H274 0.961 . S
C259 H275 0.961 . S
C260 C261 1.370 . S
C260 C262 1.363 . S
C260 H276 0.931 . S
C261 C260 1.370 . S
C261 C265 1.408 1_565 S
C262 C260 1.363 . S
C262 C263 1.370 1_565 S
C262 C266 1.531 . S
C263 C255 1.503 1_556 S
C263 C262 1.370 1_545 S
C263 C264 1.403 . S
C264 C263 1.403 . S
C264 C265 1.404 . S
C264 C267 1.539 . S
C265 C261 1.408 1_545 S
C265 C264 1.404 . S
C265 H277 0.930 . S
C266 C262 1.531 . S
C266 H278 0.969 . S
C266 H279 0.938 1_556 S
C266 H280 0.964 . S
C267 C264 1.539 . S
C267 H281 0.958 . S
C267 H282 0.961 . S
C267 H283 0.960 1_556 S
H268 C252 0.931 1_556 S
H269 C257 0.929 . S
H270 C258 0.960 . S
H271 C258 0.962 . S
H272 C258 0.960 . S
H273 C259 0.961 . S
H274 C259 0.961 . S
H275 C259 0.961 . S
H276 C260 0.931 . S
H277 C265 0.930 . S
H278 C266 0.969 . S
H279 C266 0.938 1_554 S
H280 C266 0.964 . S
H281 C267 0.958 . S
H282 C267 0.961 . S
H283 C267 0.960 1_554 S
C284 C285 1.374 1_455 S
C284 C286 1.392 . S
C284 H300 0.955 . S
C285 C284 1.374 1_655 S
C285 C289 1.376 . S
C286 C284 1.392 . S
C286 C287 1.368 1_454 S
C286 C290 1.525 1_554 S
C287 C286 1.368 1_656 S
C287 C288 1.404 1_556 S
C287 C295 1.509 . S
C288 C287 1.404 1_554 S
C288 C289 1.392 . S
C288 C291 1.511 . S
C289 C285 1.376 . S
C289 C288 1.392 . S
C289 H301 0.929 . S
C290 C286 1.525 1_556 S
C290 H302 0.960 . S
C290 H303 0.962 . S
C290 H304 0.960 . S
C291 C288 1.511 . S
C291 H305 0.961 . S
C291 H306 0.961 . S
C291 H307 0.961 1_554 S
C292 C293 1.370 . S
C292 C294 1.363 1_556 S
C292 H308 0.931 1_556 S
C293 C292 1.370 . S
C293 C297 1.408 1_455 S
C294 C292 1.363 1_554 S
C294 C295 1.370 1_454 S
C294 C298 1.524 . S
C295 C287 1.509 . S
C295 C294 1.370 1_656 S
C295 C296 1.403 . S
C296 C295 1.403 . S
C296 C297 1.404 . S
C296 C299 1.539 . S
C297 C293 1.408 1_655 S
C297 C296 1.404 . S
C297 H309 0.930 . S
C298 C294 1.524 . S
C298 H310 0.956 . S
C298 H311 0.961 1_455 S
C298 H312 0.961 . S
C299 C296 1.539 . S
C299 H313 0.958 . S
C299 H314 0.961 . S
C299 H315 0.960 . S
H300 C284 0.955 . S
H301 C289 0.929 . S
H302 C290 0.960 . S
H303 C290 0.962 . S
H304 C290 0.960 . S
H305 C291 0.961 . S
H306 C291 0.961 . S
H307 C291 0.961 1_556 S
H308 C292 0.931 1_554 S
H309 C297 0.930 . S
H310 C298 0.956 . S
H311 C298 0.961 1_655 S
H312 C298 0.961 . S
H313 C299 0.958 . S
H314 C299 0.961 . S
H315 C299 0.960 . S
C316 C317 1.391 . S
C316 C318 1.394 1_556 S
C316 H332 0.923 1_556 S
C317 C316 1.391 . S
C317 C321 1.376 . S
C318 C316 1.394 1_554 S
C318 C319 1.369 1_554 S
C318 C322 1.531 . S
C319 C318 1.369 1_556 S
C319 C320 1.410 . S
C319 C327 1.503 1_556 S
C320 C319 1.410 . S
C320 C321 1.392 . S
C320 C323 1.511 . S
C321 C317 1.376 . S
C321 C320 1.392 . S
C321 H333 0.929 . S
C322 C318 1.531 . S
C322 H334 0.960 . S
C322 H335 0.962 . S
C322 H336 0.960 . S
C323 C320 1.511 . S
C323 H337 0.961 . S
C323 H338 0.961 . S
C323 H339 0.961 . S
C324 C325 1.370 . S
C324 C326 1.363 . S
C324 H340 0.931 . S
C325 C324 1.370 . S
C325 C329 1.408 . S
C326 C324 1.363 . S
C326 C327 1.370 . S
C326 C330 1.524 1_554 S
C327 C319 1.503 1_554 S
C327 C326 1.370 . S
C327 C328 1.403 . S
C328 C327 1.403 . S
C328 C329 1.404 . S
C328 C331 1.539 . S
C329 C325 1.408 . S
C329 C328 1.404 . S
C329 H341 0.930 . S
C330 C326 1.524 1_556 S
C330 H342 0.956 1_556 S
C330 H343 0.961 . S
C330 H344 0.961 1_556 S
C331 C328 1.539 . S
C331 H345 0.958 . S
C331 H346 0.961 . S
C331 H347 0.960 1_554 S
H332 C316 0.923 1_554 S
H333 C321 0.929 . S
H334 C322 0.960 . S
H335 C322 0.962 . S
H336 C322 0.960 . S
H337 C323 0.961 . S
H338 C323 0.961 . S
H339 C323 0.961 . S
H340 C324 0.931 . S
H341 C329 0.930 . S
H342 C330 0.956 1_554 S
H343 C330 0.961 . S
H344 C330 0.961 1_554 S
H345 C331 0.958 . S
H346 C331 0.961 . S
H347 C331 0.960 1_556 S
C348 C349 1.391 . S
C348 C350 1.394 . S
C348 H364 0.931 . S
C349 C348 1.391 . S
C349 C353 1.376 . S
C350 C348 1.394 . S
C350 C351 1.369 . S
C350 C354 1.531 . S
C351 C350 1.369 . S
C351 C352 1.410 . S
C351 C359 1.503 . S
C352 C351 1.410 . S
C352 C353 1.392 . S
C352 C355 1.511 . S
C353 C349 1.376 . S
C353 C352 1.392 . S
C353 H365 0.929 . S
C354 C350 1.531 . S
C354 H366 0.960 . S
C354 H367 0.962 . S
C354 H368 0.960 . S
C355 C352 1.511 . S
C355 H369 0.961 . S
C355 H370 0.961 . S
C355 H371 0.961 . S
C356 C357 1.370 . S
C356 C358 1.363 . S
C356 H372 0.931 . S
C357 C356 1.370 . S
C357 C361 1.408 . S
C358 C356 1.363 . S
C358 C359 1.370 . S
C358 C362 1.524 . S
C359 C351 1.503 . S
C359 C358 1.370 . S
C359 C360 1.403 . S
C360 C359 1.403 . S
C360 C361 1.404 . S
C360 C363 1.539 . S
C361 C357 1.408 . S
C361 C360 1.404 . S
C361 H373 0.930 . S
C362 C358 1.524 . S
C362 H374 0.956 . S
C362 H375 0.961 . S
C362 H376 0.961 . S
C363 C360 1.539 . S
C363 H377 0.958 . S
C363 H378 0.961 . S
C363 H379 0.960 . S
H364 C348 0.931 . S
H365 C353 0.929 . S
H366 C354 0.960 . S
H367 C354 0.962 . S
H368 C354 0.960 . S
H369 C355 0.961 . S
H370 C355 0.961 . S
H371 C355 0.961 . S
H372 C356 0.931 . S
H373 C361 0.930 . S
H374 C362 0.956 . S
H375 C362 0.961 . S
H376 C362 0.961 . S
H377 C363 0.958 . S
H378 C363 0.961 . S
H379 C363 0.960 . S
C380 C381 1.391 . S
C380 C382 1.394 . S
C380 H396 0.931 . S
C381 C380 1.391 . S
C381 C385 1.376 . S
C382 C380 1.394 . S
C382 C383 1.369 . S
C382 C386 1.531 . S
C383 C382 1.369 . S
C383 C384 1.410 . S
C383 C391 1.503 . S
C384 C383 1.410 . S
C384 C385 1.392 . S
C384 C387 1.511 . S
C385 C381 1.376 . S
C385 C384 1.392 . S
C385 H397 0.929 . S
C386 C382 1.531 . S
C386 H398 0.960 . S
C386 H399 0.962 . S
C386 H400 0.960 . S
C387 C384 1.511 . S
C387 H401 0.961 . S
C387 H402 0.961 . S
C387 H403 0.961 . S
C388 C389 1.370 . S
C388 C390 1.363 . S
C388 H404 0.931 . S
C389 C388 1.370 . S
C389 C393 1.408 . S
C390 C388 1.363 . S
C390 C391 1.370 . S
C390 C394 1.524 . S
C391 C383 1.503 . S
C391 C390 1.370 . S
C391 C392 1.403 . S
C392 C391 1.403 . S
C392 C393 1.404 . S
C392 C395 1.539 . S
C393 C389 1.408 . S
C393 C392 1.404 . S
C393 H405 0.930 . S
C394 C390 1.524 . S
C394 H406 0.956 . S
C394 H407 0.961 . S
C394 H408 0.961 . S
C395 C392 1.539 . S
C395 H409 0.958 . S
C395 H410 0.961 . S
C395 H411 0.960 . S
H396 C380 0.931 . S
H397 C385 0.929 . S
H398 C386 0.960 . S
H399 C386 0.962 . S
H400 C386 0.960 . S
H401 C387 0.961 . S
H402 C387 0.961 . S
H403 C387 0.961 . S
H404 C388 0.931 . S
H405 C393 0.930 . S
H406 C394 0.956 . S
H407 C394 0.961 . S
H408 C394 0.961 . S
H409 C395 0.958 . S
H410 C395 0.961 . S
H411 C395 0.960 . S
C412 C413 1.391 . S
C412 C414 1.394 . S
C412 H428 0.931 . S
C413 C412 1.391 . S
C413 C417 1.376 . S
C414 C412 1.394 . S
C414 C415 1.369 . S
C414 C418 1.531 . S
C415 C414 1.369 . S
C415 C416 1.410 . S
C415 C423 1.503 . S
C416 C415 1.410 . S
C416 C417 1.392 . S
C416 C419 1.511 . S
C417 C413 1.376 . S
C417 C416 1.392 . S
C417 H429 0.929 . S
C418 C414 1.531 . S
C418 H430 0.960 . S
C418 H431 0.962 . S
C418 H432 0.960 . S
C419 C416 1.511 . S
C419 H433 0.961 . S
C419 H434 0.961 . S
C419 H435 0.961 . S
C420 C421 1.370 . S
C420 C422 1.363 . S
C420 H436 0.931 . S
C421 C420 1.370 . S
C421 C425 1.408 . S
C422 C420 1.363 . S
C422 C423 1.370 . S
C422 C426 1.524 . S
C423 C415 1.503 . S
C423 C422 1.370 . S
C423 C424 1.403 . S
C424 C423 1.403 . S
C424 C425 1.404 . S
C424 C427 1.539 . S
C425 C421 1.408 . S
C425 C424 1.404 . S
C425 H437 0.930 . S
C426 C422 1.524 . S
C426 H438 0.956 . S
C426 H439 0.961 . S
C426 H440 0.961 . S
C427 C424 1.539 . S
C427 H441 0.958 . S
C427 H442 0.961 . S
C427 H443 0.960 . S
H428 C412 0.931 . S
H429 C417 0.929 . S
H430 C418 0.960 . S
H431 C418 0.962 . S
H432 C418 0.960 . S
H433 C419 0.961 . S
H434 C419 0.961 . S
H435 C419 0.961 . S
H436 C420 0.931 . S
H437 C425 0.930 . S
H438 C426 0.956 . S
H439 C426 0.961 . S
H440 C426 0.961 . S
H441 C427 0.958 . S
H442 C427 0.961 . S
H443 C427 0.960 . S
C444 C445 1.391 . S
C444 C446 1.394 . S
C444 H460 0.931 . S
C445 C444 1.391 . S
C445 C449 1.376 . S
C446 C444 1.394 . S
C446 C447 1.369 . S
C446 C450 1.531 . S
C447 C446 1.369 . S
C447 C448 1.410 . S
C447 C455 1.503 . S
C448 C447 1.410 . S
C448 C449 1.392 . S
C448 C451 1.511 . S
C449 C445 1.376 . S
C449 C448 1.392 . S
C449 H461 0.929 . S
C450 C446 1.531 . S
C450 H462 0.960 . S
C450 H463 0.962 . S
C450 H464 0.960 . S
C451 C448 1.511 . S
C451 H465 0.961 . S
C451 H466 0.961 . S
C451 H467 0.961 . S
C452 C453 1.370 . S
C452 C454 1.363 . S
C452 H468 0.931 . S
C453 C452 1.370 . S
C453 C457 1.408 . S
C454 C452 1.363 . S
C454 C455 1.370 . S
C454 C458 1.524 . S
C455 C447 1.503 . S
C455 C454 1.370 . S
C455 C456 1.403 . S
C456 C455 1.403 . S
C456 C457 1.404 . S
C456 C459 1.539 . S
C457 C453 1.408 . S
C457 C456 1.404 . S
C457 H469 0.930 . S
C458 C454 1.524 . S
C458 H470 0.956 . S
C458 H471 0.961 . S
C458 H472 0.961 . S
C459 C456 1.539 . S
C459 H473 0.958 . S
C459 H474 0.961 . S
C459 H475 0.960 . S
H460 C444 0.931 . S
H461 C449 0.929 . S
H462 C450 0.960 . S
H463 C450 0.962 . S
H464 C450 0.960 . S
H465 C451 0.961 . S
H466 C451 0.961 . S
H467 C451 0.961 . S
H468 C452 0.931 . S
H469 C457 0.930 . S
H470 C458 0.956 . S
H471 C458 0.961 . S
H472 C458 0.961 . S
H473 C459 0.958 . S
H474 C459 0.961 . S
H475 C459 0.960 . S
C476 C477 1.391 . S
C476 C478 1.394 . S
C476 H492 0.931 . S
C477 C476 1.391 . S
C477 C481 1.376 . S
C478 C476 1.394 . S
C478 C479 1.369 . S
C478 C482 1.531 . S
C479 C478 1.369 . S
C479 C480 1.410 . S
C479 C487 1.503 . S
C480 C479 1.410 . S
C480 C481 1.392 . S
C480 C483 1.511 . S
C481 C477 1.376 . S
C481 C480 1.392 . S
C481 H493 0.929 . S
C482 C478 1.531 . S
C482 H494 0.960 . S
C482 H495 0.962 . S
C482 H496 0.960 . S
C483 C480 1.511 . S
C483 H497 0.961 . S
C483 H498 0.961 . S
C483 H499 0.961 . S
C484 C485 1.370 . S
C484 C486 1.363 . S
C484 H500 0.931 . S
C485 C484 1.370 . S
C485 C489 1.408 . S
C486 C484 1.363 . S
C486 C487 1.370 . S
C486 C490 1.524 . S
C487 C479 1.503 . S
C487 C486 1.370 . S
C487 C488 1.403 . S
C488 C487 1.403 . S
C488 C489 1.404 . S
C488 C491 1.539 . S
C489 C485 1.408 . S
C489 C488 1.404 . S
C489 H501 0.930 . S
C490 C486 1.524 . S
C490 H502 0.956 . S
C490 H503 0.961 . S
C490 H504 0.961 . S
C491 C488 1.539 . S
C491 H505 0.958 . S
C491 H506 0.961 . S
C491 H507 0.960 . S
H492 C476 0.931 . S
H493 C481 0.929 . S
H494 C482 0.960 . S
H495 C482 0.962 . S
H496 C482 0.960 . S
H497 C483 0.961 . S
H498 C483 0.961 . S
H499 C483 0.961 . S
H500 C484 0.931 . S
H501 C489 0.930 . S
H502 C490 0.956 . S
H503 C490 0.961 . S
H504 C490 0.961 . S
H505 C491 0.958 . S
H506 C491 0.961 . S
H507 C491 0.960 . S
C508 C509 1.391 . S
C508 C510 1.394 . S
C508 H524 0.931 . S
C509 C508 1.391 . S
C509 C513 1.376 . S
C510 C508 1.394 . S
C510 C511 1.369 . S
C510 C514 1.531 . S
C511 C510 1.369 . S
C511 C512 1.410 . S
C511 C519 1.503 . S
C512 C511 1.410 . S
C512 C513 1.392 . S
C512 C515 1.511 . S
C513 C509 1.376 . S
C513 C512 1.392 . S
C513 H525 0.929 . S
C514 C510 1.531 . S
C514 H526 0.960 . S
C514 H527 0.962 . S
C514 H528 0.960 . S
C515 C512 1.511 . S
C515 H529 0.961 . S
C515 H530 0.961 . S
C515 H531 0.961 . S
C516 C517 1.370 . S
C516 C518 1.363 . S
C516 H532 0.931 . S
C517 C516 1.370 . S
C517 C521 1.408 . S
C518 C516 1.363 . S
C518 C519 1.370 . S
C518 C522 1.524 . S
C519 C511 1.503 . S
C519 C518 1.370 . S
C519 C520 1.403 . S
C520 C519 1.403 . S
C520 C521 1.404 . S
C520 C523 1.539 . S
C521 C517 1.408 . S
C521 C520 1.404 . S
C521 H533 0.930 . S
C522 C518 1.524 . S
C522 H534 0.956 . S
C522 H535 0.961 . S
C522 H536 0.961 . S
C523 C520 1.539 . S
C523 H537 0.958 . S
C523 H538 0.961 . S
C523 H539 0.960 . S
H524 C508 0.931 . S
H525 C513 0.929 . S
H526 C514 0.960 . S
H527 C514 0.962 . S
H528 C514 0.960 . S
H529 C515 0.961 . S
H530 C515 0.961 . S
H531 C515 0.961 . S
H532 C516 0.931 . S
H533 C521 0.930 . S
H534 C522 0.956 . S
H535 C522 0.961 . S
H536 C522 0.961 . S
H537 C523 0.958 . S
H538 C523 0.961 . S
H539 C523 0.960 . S
C540 C541 1.391 . S
C540 C542 1.394 . S
C540 H556 0.931 . S
C541 C540 1.391 . S
C541 C545 1.376 . S
C542 C540 1.394 . S
C542 C543 1.369 . S
C542 C546 1.531 . S
C543 C542 1.369 . S
C543 C544 1.410 . S
C543 C551 1.503 . S
C544 C543 1.410 . S
C544 C545 1.392 . S
C544 C547 1.511 . S
C545 C541 1.376 . S
C545 C544 1.392 . S
C545 H557 0.929 . S
C546 C542 1.531 . S
C546 H558 0.960 . S
C546 H559 0.962 . S
C546 H560 0.960 . S
C547 C544 1.511 . S
C547 H561 0.961 . S
C547 H562 0.961 . S
C547 H563 0.961 . S
C548 C549 1.370 . S
C548 C550 1.363 . S
C548 H564 0.931 . S
C549 C548 1.370 . S
C549 C553 1.408 . S
C550 C548 1.363 . S
C550 C551 1.370 . S
C550 C554 1.524 . S
C551 C543 1.503 . S
C551 C550 1.370 . S
C551 C552 1.403 . S
C552 C551 1.403 . S
C552 C553 1.404 . S
C552 C555 1.539 . S
C553 C549 1.408 . S
C553 C552 1.404 . S
C553 H565 0.930 . S
C554 C550 1.524 . S
C554 H566 0.956 . S
C554 H567 0.961 . S
C554 H568 0.961 . S
C555 C552 1.539 . S
C555 H569 0.958 . S
C555 H570 0.961 . S
C555 H571 0.960 . S
H556 C540 0.931 . S
H557 C545 0.929 . S
H558 C546 0.960 . S
H559 C546 0.962 . S
H560 C546 0.960 . S
H561 C547 0.961 . S
H562 C547 0.961 . S
H563 C547 0.961 . S
H564 C548 0.931 . S
H565 C553 0.930 . S
H566 C554 0.956 . S
H567 C554 0.961 . S
H568 C554 0.961 . S
H569 C555 0.958 . S
H570 C555 0.961 . S
H571 C555 0.960 . S
C572 C573 1.391 . S
C572 C574 1.394 . S
C572 H588 0.931 . S
C573 C572 1.391 . S
C573 C577 1.376 . S
C574 C572 1.394 . S
C574 C575 1.369 . S
C574 C578 1.531 . S
C575 C574 1.369 . S
C575 C576 1.410 . S
C575 C583 1.503 . S
C576 C575 1.410 . S
C576 C577 1.392 . S
C576 C579 1.511 . S
C577 C573 1.376 . S
C577 C576 1.392 . S
C577 H589 0.929 . S
C578 C574 1.531 . S
C578 H590 0.960 . S
C578 H591 0.962 . S
C578 H592 0.960 . S
C579 C576 1.511 . S
C579 H593 0.961 . S
C579 H594 0.961 . S
C579 H595 0.961 . S
C580 C581 1.370 . S
C580 C582 1.363 . S
C580 H596 0.931 . S
C581 C580 1.370 . S
C581 C585 1.408 . S
C582 C580 1.363 . S
C582 C583 1.370 . S
C582 C586 1.524 . S
C583 C575 1.503 . S
C583 C582 1.370 . S
C583 C584 1.403 . S
C584 C583 1.403 . S
C584 C585 1.404 . S
C584 C587 1.539 . S
C585 C581 1.408 . S
C585 C584 1.404 . S
C585 H597 0.930 . S
C586 C582 1.524 . S
C586 H598 0.956 . S
C586 H599 0.961 . S
C586 H600 0.961 . S
C587 C584 1.539 . S
C587 H601 0.958 . S
C587 H602 0.961 . S
C587 H603 0.960 . S
H588 C572 0.931 . S
H589 C577 0.929 . S
H590 C578 0.960 . S
H591 C578 0.962 . S
H592 C578 0.960 . S
H593 C579 0.961 . S
H594 C579 0.961 . S
H595 C579 0.961 . S
H596 C580 0.931 . S
H597 C585 0.930 . S
H598 C586 0.956 . S
H599 C586 0.961 . S
H600 C586 0.961 . S
H601 C587 0.958 . S
H602 C587 0.961 . S
H603 C587 0.960 . S
C604 C605 1.391 . S
C604 C606 1.394 . S
C604 H620 0.931 . S
C605 C604 1.391 . S
C605 C609 1.376 . S
C606 C604 1.394 . S
C606 C607 1.369 . S
C606 C610 1.531 . S
C607 C606 1.369 . S
C607 C608 1.410 . S
C607 C615 1.503 . S
C608 C607 1.410 . S
C608 C609 1.392 . S
C608 C611 1.511 . S
C609 C605 1.376 . S
C609 C608 1.392 . S
C609 H621 0.929 . S
C610 C606 1.531 . S
C610 H622 0.960 . S
C610 H623 0.962 . S
C610 H624 0.960 . S
C611 C608 1.511 . S
C611 H625 0.961 . S
C611 H626 0.961 . S
C611 H627 0.961 . S
C612 C613 1.370 . S
C612 C614 1.363 . S
C612 H628 0.931 . S
C613 C612 1.370 . S
C613 C617 1.408 . S
C614 C612 1.363 . S
C614 C615 1.370 . S
C614 C618 1.524 . S
C615 C607 1.503 . S
C615 C614 1.370 . S
C615 C616 1.403 . S
C616 C615 1.403 . S
C616 C617 1.404 . S
C616 C619 1.539 . S
C617 C613 1.408 . S
C617 C616 1.404 . S
C617 H629 0.930 . S
C618 C614 1.524 . S
C618 H630 0.956 . S
C618 H631 0.961 . S
C618 H632 0.961 . S
C619 C616 1.539 . S
C619 H633 0.958 . S
C619 H634 0.961 . S
C619 H635 0.960 . S
H620 C604 0.931 . S
H621 C609 0.929 . S
H622 C610 0.960 . S
H623 C610 0.962 . S
H624 C610 0.960 . S
H625 C611 0.961 . S
H626 C611 0.961 . S
H627 C611 0.961 . S
H628 C612 0.931 . S
H629 C617 0.930 . S
H630 C618 0.956 . S
H631 C618 0.961 . S
H632 C618 0.961 . S
H633 C619 0.958 . S
H634 C619 0.961 . S
H635 C619 0.960 . S
C636 C637 1.391 . S
C636 C638 1.394 . S
C636 H652 0.931 . S
C637 C636 1.391 . S
C637 C641 1.376 . S
C638 C636 1.394 . S
C638 C639 1.369 . S
C638 C642 1.531 . S
C639 C638 1.369 . S
C639 C640 1.410 . S
C639 C647 1.503 . S
C640 C639 1.410 . S
C640 C641 1.392 . S
C640 C643 1.511 . S
C641 C637 1.376 . S
C641 C640 1.392 . S
C641 H653 0.929 . S
C642 C638 1.531 . S
C642 H654 0.960 . S
C642 H655 0.962 . S
C642 H656 0.960 . S
C643 C640 1.511 . S
C643 H657 0.961 . S
C643 H658 0.961 . S
C643 H659 0.961 . S
C644 C645 1.370 . S
C644 C646 1.363 . S
C644 H660 0.931 . S
C645 C644 1.370 . S
C645 C649 1.408 . S
C646 C644 1.363 . S
C646 C647 1.370 . S
C646 C650 1.524 . S
C647 C639 1.503 . S
C647 C646 1.370 . S
C647 C648 1.403 . S
C648 C647 1.403 . S
C648 C649 1.404 . S
C648 C651 1.539 . S
C649 C645 1.408 . S
C649 C648 1.404 . S
C649 H661 0.930 . S
C650 C646 1.524 . S
C650 H662 0.956 . S
C650 H663 0.961 . S
C650 H664 0.961 . S
C651 C648 1.539 . S
C651 H665 0.958 . S
C651 H666 0.961 . S
C651 H667 0.960 . S
H652 C636 0.931 . S
H653 C641 0.929 . S
H654 C642 0.960 . S
H655 C642 0.962 . S
H656 C642 0.960 . S
H657 C643 0.961 . S
H658 C643 0.961 . S
H659 C643 0.961 . S
H660 C644 0.931 . S
H661 C649 0.930 . S
H662 C650 0.956 . S
H663 C650 0.961 . S
H664 C650 0.961 . S
H665 C651 0.958 . S
H666 C651 0.961 . S
H667 C651 0.960 . S
C668 C669 1.391 . S
C668 C670 1.394 . S
C668 H684 0.931 . S
C669 C668 1.391 . S
C669 C673 1.376 . S
C670 C668 1.394 . S
C670 C671 1.369 . S
C670 C674 1.531 . S
C671 C670 1.369 . S
C671 C672 1.410 . S
C671 C679 1.503 . S
C672 C671 1.410 . S
C672 C673 1.392 . S
C672 C675 1.511 . S
C673 C669 1.376 . S
C673 C672 1.392 . S
C673 H685 0.929 . S
C674 C670 1.531 . S
C674 H686 0.960 . S
C674 H687 0.962 . S
C674 H688 0.960 . S
C675 C672 1.511 . S
C675 H689 0.961 . S
C675 H690 0.961 . S
C675 H691 0.961 . S
C676 C677 1.370 . S
C676 C678 1.363 . S
C676 H692 0.931 . S
C677 C676 1.370 . S
C677 C681 1.408 . S
C678 C676 1.363 . S
C678 C679 1.370 . S
C678 C682 1.524 . S
C679 C671 1.503 . S
C679 C678 1.370 . S
C679 C680 1.403 . S
C680 C679 1.403 . S
C680 C681 1.404 . S
C680 C683 1.539 . S
C681 C677 1.408 . S
C681 C680 1.404 . S
C681 H693 0.930 . S
C682 C678 1.524 . S
C682 H694 0.956 . S
C682 H695 0.961 . S
C682 H696 0.961 . S
C683 C680 1.539 . S
C683 H697 0.958 . S
C683 H698 0.961 . S
C683 H699 0.960 . S
H684 C668 0.931 . S
H685 C673 0.929 . S
H686 C674 0.960 . S
H687 C674 0.962 . S
H688 C674 0.960 . S
H689 C675 0.961 . S
H690 C675 0.961 . S
H691 C675 0.961 . S
H692 C676 0.931 . S
H693 C681 0.930 . S
H694 C682 0.956 . S
H695 C682 0.961 . S
H696 C682 0.961 . S
H697 C683 0.958 . S
H698 C683 0.961 . S
H699 C683 0.960 . S
C700 C701 1.391 . S
C700 C702 1.394 . S
C700 H716 0.931 . S
C701 C700 1.391 . S
C701 C705 1.376 . S
C702 C700 1.394 . S
C702 C703 1.369 . S
C702 C706 1.531 . S
C703 C702 1.369 . S
C703 C704 1.410 . S
C703 C711 1.503 . S
C704 C703 1.410 . S
C704 C705 1.392 . S
C704 C707 1.511 . S
C705 C701 1.376 . S
C705 C704 1.392 . S
C705 H717 0.929 . S
C706 C702 1.531 . S
C706 H718 0.960 . S
C706 H719 0.962 . S
C706 H720 0.960 . S
C707 C704 1.511 . S
C707 H721 0.961 . S
C707 H722 0.961 . S
C707 H723 0.961 . S
C708 C709 1.370 . S
C708 C710 1.363 . S
C708 H724 0.931 . S
C709 C708 1.370 . S
C709 C713 1.408 . S
C710 C708 1.363 . S
C710 C711 1.370 . S
C710 C714 1.524 . S
C711 C703 1.503 . S
C711 C710 1.370 . S
C711 C712 1.403 . S
C712 C711 1.403 . S
C712 C713 1.404 . S
C712 C715 1.539 . S
C713 C709 1.408 . S
C713 C712 1.404 . S
C713 H725 0.930 . S
C714 C710 1.524 . S
C714 H726 0.956 . S
C714 H727 0.961 . S
C714 H728 0.961 . S
C715 C712 1.539 . S
C715 H729 0.958 . S
C715 H730 0.961 . S
C715 H731 0.960 . S
H716 C700 0.931 . S
H717 C705 0.929 . S
H718 C706 0.960 . S
H719 C706 0.962 . S
H720 C706 0.960 . S
H721 C707 0.961 . S
H722 C707 0.961 . S
H723 C707 0.961 . S
H724 C708 0.931 . S
H725 C713 0.930 . S
H726 C714 0.956 . S
H727 C714 0.961 . S
H728 C714 0.961 . S
H729 C715 0.958 . S
H730 C715 0.961 . S
H731 C715 0.960 . S
C732 C733 1.391 1_455 S
C732 C734 1.394 . S
C732 H748 0.931 . S
C733 C732 1.391 1_655 S
C733 C737 1.376 . S
C734 C732 1.394 . S
C734 C735 1.354 1_455 S
C734 C738 1.531 . S
C735 C734 1.354 1_655 S
C735 C736 1.417 . S
C735 C743 1.509 1_655 S
C736 C735 1.417 . S
C736 C737 1.392 . S
C736 C739 1.511 . S
C737 C733 1.376 . S
C737 C736 1.392 . S
C737 H749 0.929 . S
C738 C734 1.531 . S
C738 H750 0.960 . S
C738 H751 0.962 . S
C738 H752 0.960 . S
C739 C736 1.511 . S
C739 H753 0.961 . S
C739 H754 0.961 . S
C739 H755 0.961 . S
C740 C741 1.370 . S
C740 C742 1.363 . S
C740 H756 0.931 . S
C741 C740 1.370 . S
C741 C745 1.408 1_455 S
C742 C740 1.363 . S
C742 C743 1.370 . S
C742 C746 1.524 . S
C743 C735 1.509 1_455 S
C743 C742 1.370 . S
C743 C744 1.403 1_455 S
C744 C743 1.403 1_655 S
C744 C745 1.404 . S
C744 C747 1.539 . S
C745 C741 1.408 1_655 S
C745 C744 1.404 . S
C745 H757 0.930 . S
C746 C742 1.524 . S
C746 H758 0.956 . S
C746 H759 0.961 . S
C746 H760 0.961 . S
C747 C744 1.539 . S
C747 H761 0.958 . S
C747 H762 0.961 . S
C747 H763 0.960 . S
H748 C732 0.931 . S
H749 C737 0.929 . S
H750 C738 0.960 . S
H751 C738 0.962 . S
H752 C738 0.960 . S
H753 C739 0.961 . S
H754 C739 0.961 . S
H755 C739 0.961 . S
H756 C740 0.931 . S
H757 C745 0.930 . S
H758 C746 0.956 . S
H759 C746 0.961 . S
H760 C746 0.961 . S
H761 C747 0.958 . S
H762 C747 0.961 . S
H763 C747 0.960 . S
C764 C765 1.391 . S
C764 C766 1.394 . S
C764 H780 0.931 . S
C765 C764 1.391 . S
C765 C769 1.376 . S
C766 C764 1.394 . S
C766 C767 1.369 . S
C766 C770 1.531 . S
C767 C766 1.369 . S
C767 C768 1.410 . S
C767 C775 1.503 . S
C768 C767 1.410 . S
C768 C769 1.392 . S
C768 C771 1.511 . S
C769 C765 1.376 . S
C769 C768 1.392 . S
C769 H781 0.929 . S
C770 C766 1.531 . S
C770 H782 0.960 . S
C770 H783 0.962 . S
C770 H784 0.960 . S
C771 C768 1.511 . S
C771 H785 0.961 . S
C771 H786 0.961 . S
C771 H787 0.961 . S
C772 C773 1.370 . S
C772 C774 1.363 . S
C772 H788 0.931 . S
C773 C772 1.370 . S
C773 C777 1.408 . S
C774 C772 1.363 . S
C774 C775 1.370 . S
C774 C778 1.524 . S
C775 C767 1.503 . S
C775 C774 1.370 . S
C775 C776 1.403 . S
C776 C775 1.403 . S
C776 C777 1.404 . S
C776 C779 1.539 . S
C777 C773 1.408 . S
C777 C776 1.404 . S
C777 H789 0.930 . S
C778 C774 1.524 . S
C778 H790 0.956 . S
C778 H791 0.961 . S
C778 H792 0.961 . S
C779 C776 1.539 . S
C779 H793 0.958 . S
C779 H794 0.961 . S
C779 H795 0.960 . S
H780 C764 0.931 . S
H781 C769 0.929 . S
H782 C770 0.960 . S
H783 C770 0.962 . S
H784 C770 0.960 . S
H785 C771 0.961 . S
H786 C771 0.961 . S
H787 C771 0.961 . S
H788 C772 0.931 . S
H789 C777 0.930 . S
H790 C778 0.956 . S
H791 C778 0.961 . S
H792 C778 0.961 . S
H793 C779 0.958 . S
H794 C779 0.961 . S
H795 C779 0.960 . S
C796 C797 1.391 . S
C796 C798 1.394 . S
C796 H812 0.931 . S
C797 C796 1.391 . S
C797 C801 1.376 1_545 S
C798 C796 1.394 . S
C798 C799 1.369 . S
C798 C802 1.531 . S
C799 C798 1.369 . S
C799 C800 1.410 1_545 S
C799 C807 1.503 . S
C800 C799 1.410 1_565 S
C800 C801 1.392 . S
C800 C803 1.511 . S
C801 C797 1.376 1_565 S
C801 C800 1.392 . S
C801 H813 0.929 . S
C802 C798 1.531 . S
C802 H814 0.960 . S
C802 H815 0.962 . S
C802 H816 0.960 . S
C803 C800 1.511 . S
C803 H817 0.961 . S
C803 H818 0.961 . S
C803 H819 0.961 . S
C804 C805 1.371 1_565 S
C804 C806 1.363 . S
C804 H820 0.931 . S
C805 C804 1.371 1_545 S
C805 C809 1.408 . S
C806 C804 1.363 . S
C806 C807 1.370 1_565 S
C806 C810 1.524 . S
C807 C799 1.503 . S
C807 C806 1.370 1_545 S
C807 C808 1.403 . S
C808 C807 1.403 . S
C808 C809 1.404 . S
C808 C811 1.539 . S
C809 C805 1.408 . S
C809 C808 1.404 . S
C809 H821 0.930 . S
C810 C806 1.524 . S
C810 H822 0.956 . S
C810 H823 0.961 . S
C810 H824 0.961 . S
C811 C808 1.539 . S
C811 H825 0.958 . S
C811 H826 0.961 . S
C811 H827 0.960 . S
H812 C796 0.931 . S
H813 C801 0.929 . S
H814 C802 0.960 . S
H815 C802 0.962 . S
H816 C802 0.960 . S
H817 C803 0.961 . S
H818 C803 0.961 . S
H819 C803 0.961 . S
H820 C804 0.931 . S
H821 C809 0.930 . S
H822 C810 0.956 . S
H823 C810 0.961 . S
H824 C810 0.961 . S
H825 C811 0.958 . S
H826 C811 0.961 . S
H827 C811 0.960 . S
C828 C829 1.391 . S
C828 C830 1.394 . S
C828 H844 0.931 . S
C829 C828 1.391 . S
C829 C833 1.376 . S
C830 C828 1.394 . S
C830 C831 1.369 . S
C830 C834 1.531 . S
C831 C830 1.369 . S
C831 C832 1.410 . S
C831 C839 1.503 . S
C832 C831 1.410 . S
C832 C833 1.392 . S
C832 C835 1.511 . S
C833 C829 1.376 . S
C833 C832 1.392 . S
C833 H845 0.929 . S
C834 C830 1.531 . S
C834 H846 0.960 . S
C834 H847 0.962 . S
C834 H848 0.960 . S
C835 C832 1.511 . S
C835 H849 0.971 . S
C835 H850 0.961 1_554 S
C835 H851 0.961 . S
C836 C837 1.370 . S
C836 C838 1.363 . S
C836 H852 0.931 . S
C837 C836 1.370 . S
C837 C841 1.408 1_556 S
C838 C836 1.363 . S
C838 C839 1.370 1_556 S
C838 C842 1.524 . S
C839 C831 1.503 . S
C839 C838 1.370 1_554 S
C839 C840 1.403 . S
C840 C839 1.403 . S
C840 C841 1.404 . S
C840 C843 1.539 . S
C841 C837 1.408 1_554 S
C841 C840 1.404 . S
C841 H853 0.930 . S
C842 C838 1.524 . S
C842 H854 0.956 . S
C842 H855 0.961 . S
C842 H856 0.961 . S
C843 C840 1.539 . S
C843 H857 0.958 . S
C843 H858 0.961 . S
C843 H859 0.960 . S
H844 C828 0.931 . S
H845 C833 0.929 . S
H846 C834 0.960 . S
H847 C834 0.962 . S
H848 C834 0.960 . S
H849 C835 0.971 . S
H850 C835 0.961 1_556 S
H851 C835 0.961 . S
H852 C836 0.931 . S
H853 C841 0.930 . S
H854 C842 0.956 . S
H855 C842 0.961 . S
H856 C842 0.961 . S
H857 C843 0.958 . S
H858 C843 0.961 . S
H859 C843 0.960 . S
C860 C861 1.391 . S
C860 C862 1.394 . S
C860 H876 0.931 . S
C861 C860 1.391 . S
C861 C865 1.376 . S
C862 C860 1.394 . S
C862 C863 1.369 . S
C862 C866 1.531 . S
C863 C862 1.369 . S
C863 C864 1.410 1_554 S
C863 C871 1.503 1_554 S
C864 C863 1.410 1_556 S
C864 C865 1.392 1_556 S
C864 C867 1.511 . S
C865 C861 1.376 . S
C865 C864 1.392 1_554 S
C865 H877 0.929 . S
C866 C862 1.531 . S
C866 H878 0.960 . S
C866 H879 0.962 . S
C866 H880 0.960 . S
C867 C864 1.511 . S
C867 H881 0.961 . S
C867 H882 0.961 . S
C867 H883 0.961 . S
C868 C869 1.370 . S
C868 C870 1.363 . S
C868 H884 0.931 . S
C869 C868 1.370 . S
C869 C873 1.408 . S
C870 C868 1.363 . S
C870 C871 1.370 . S
C870 C874 1.524 1_556 S
C871 C863 1.503 1_556 S
C871 C870 1.370 . S
C871 C872 1.403 . S
C872 C871 1.403 . S
C872 C873 1.404 . S
C872 C875 1.539 . S
C873 C869 1.408 . S
C873 C872 1.404 . S
C873 H885 0.930 . S
C874 C870 1.524 1_554 S
C874 H886 0.956 . S
C874 H887 0.961 . S
C874 H888 0.961 . S
C875 C872 1.539 . S
C875 H889 0.958 . S
C875 H890 0.961 . S
C875 H891 0.960 . S
H876 C860 0.931 . S
H877 C865 0.929 . S
H878 C866 0.960 . S
H879 C866 0.962 . S
H880 C866 0.960 . S
H881 C867 0.961 . S
H882 C867 0.961 . S
H883 C867 0.961 . S
H884 C868 0.931 . S
H885 C873 0.930 . S
H886 C874 0.956 . S
H887 C874 0.961 . S
H888 C874 0.961 . S
H889 C875 0.958 . S
H890 C875 0.961 . S
H891 C875 0.960 . S
C892 C893 1.391 . S
C892 C894 1.394 . S
C892 H908 0.931 . S
C893 C892 1.391 . S
C893 C897 1.376 . S
C894 C892 1.394 . S
C894 C895 1.369 . S
C894 C898 1.531 1_554 S
C895 C894 1.369 . S
C895 C896 1.410 . S
C895 C903 1.503 . S
C896 C895 1.410 . S
C896 C897 1.392 . S
C896 C899 1.511 . S
C897 C893 1.376 . S
C897 C896 1.392 . S
C897 H909 0.929 . S
C898 C894 1.531 1_556 S
C898 H910 0.960 . S
C898 H911 0.962 . S
C898 H912 0.960 . S
C899 C896 1.511 . S
C899 H913 0.961 . S
C899 H914 0.961 . S
C899 H915 0.961 . S
C900 C901 1.370 . S
C900 C902 1.363 1_556 S
C900 H916 0.931 . S
C901 C900 1.370 . S
C901 C905 1.408 . S
C902 C900 1.363 1_554 S
C902 C903 1.370 . S
C902 C906 1.524 . S
C903 C895 1.503 . S
C903 C902 1.370 . S
C903 C904 1.403 1_554 S
C904 C903 1.403 1_556 S
C904 C905 1.404 . S
C904 C907 1.539 . S
C905 C901 1.408 . S
C905 C904 1.404 . S
C905 H917 0.930 . S
C906 C902 1.524 . S
C906 H918 0.956 . S
C906 H919 0.961 . S
C906 H920 0.961 . S
C907 C904 1.539 . S
C907 H921 0.958 . S
C907 H922 0.961 . S
C907 H923 0.960 1_556 S
H908 C892 0.931 . S
H909 C897 0.929 . S
H910 C898 0.960 . S
H911 C898 0.962 . S
H912 C898 0.960 . S
H913 C899 0.961 . S
H914 C899 0.961 . S
H915 C899 0.961 . S
H916 C900 0.931 . S
H917 C905 0.930 . S
H918 C906 0.956 . S
H919 C906 0.961 . S
H920 C906 0.961 . S
H921 C907 0.958 . S
H922 C907 0.961 . S
H923 C907 0.960 1_554 S
C924 C925 1.391 . S
C924 C926 1.394 . S
C924 H940 0.931 . S
C925 C924 1.391 . S
C925 C929 1.376 . S
C926 C924 1.394 . S
C926 C927 1.369 . S
C926 C930 1.531 . S
C927 C926 1.369 . S
C927 C928 1.410 . S
C927 C935 1.503 . S
C928 C927 1.410 . S
C928 C929 1.392 . S
C928 C931 1.511 1_556 S
C929 C925 1.376 . S
C929 C928 1.392 . S
C929 H941 0.929 . S
C930 C926 1.531 . S
C930 H942 0.960 . S
C930 H943 0.962 . S
C930 H944 0.960 . S
C931 C928 1.511 1_554 S
C931 H945 0.961 . S
C931 H946 0.961 . S
C931 H947 0.961 . S
C932 C933 1.370 . S
C932 C934 1.376 . S
C932 H948 0.931 . S
C933 C932 1.370 . S
C933 C937 1.408 . S
C934 C932 1.376 . S
C934 C935 1.367 1_554 S
C934 C938 1.515 1_554 S
C935 C927 1.503 . S
C935 C934 1.367 1_556 S
C935 C936 1.403 1_556 S
C936 C935 1.403 1_554 S
C936 C937 1.404 . S
C936 C939 1.539 . S
C937 C933 1.408 . S
C937 C936 1.404 . S
C937 H949 0.930 . S
C938 C934 1.515 1_556 S
C938 H950 0.956 . S
C938 H951 0.961 . S
C938 H952 0.961 . S
C939 C936 1.539 . S
C939 H953 0.958 1_554 S
C939 H954 0.961 . S
C939 H955 0.960 . S
H940 C924 0.931 . S
H941 C929 0.929 . S
H942 C930 0.960 . S
H943 C930 0.962 . S
H944 C930 0.960 . S
H945 C931 0.961 . S
H946 C931 0.961 . S
H947 C931 0.961 . S
H948 C932 0.931 . S
H949 C937 0.930 . S
H950 C938 0.956 . S
H951 C938 0.961 . S
H952 C938 0.961 . S
H953 C939 0.958 1_556 S
H954 C939 0.961 . S
H955 C939 0.960 . S
C956 C957 1.391 . S
C956 C958 1.394 1_554 S
C956 H972 0.931 1_554 S
C957 C956 1.391 . S
C957 C961 1.376 . S
C958 C956 1.394 1_556 S
C958 C959 1.369 . S
C958 C962 1.531 . S
C959 C958 1.369 . S
C959 C960 1.410 1_556 S
C959 C967 1.503 . S
C960 C959 1.410 1_554 S
C960 C961 1.392 . S
C960 C963 1.511 . S
C961 C957 1.376 . S
C961 C960 1.392 . S
C961 H973 0.929 . S
C962 C958 1.531 . S
C962 H974 0.960 . S
C962 H975 0.962 . S
C962 H976 0.960 . S
C963 C960 1.511 . S
C963 H977 0.961 . S
C963 H978 0.961 . S
C963 H979 0.961 . S
C964 C965 1.370 . S
C964 C966 1.363 . S
C964 H980 0.931 . S
C965 C964 1.370 . S
C965 C969 1.408 . S
C966 C964 1.363 . S
C966 C967 1.370 . S
C966 C970 1.524 . S
C967 C959 1.503 . S
C967 C966 1.370 . S
C967 C968 1.403 . S
C968 C967 1.403 . S
C968 C969 1.404 . S
C968 C971 1.539 . S
C969 C965 1.408 . S
C969 C968 1.404 . S
C969 H981 0.930 . S
C970 C966 1.524 . S
C970 H982 0.956 . S
C970 H983 0.961 1_556 S
C970 H984 0.961 . S
C971 C968 1.539 . S
C971 H985 0.958 . S
C971 H986 0.961 . S
C971 H987 0.960 . S
H972 C956 0.931 1_556 S
H973 C961 0.929 . S
H974 C962 0.960 . S
H975 C962 0.962 . S
H976 C962 0.960 . S
H977 C963 0.961 . S
H978 C963 0.961 . S
H979 C963 0.961 . S
H980 C964 0.931 . S
H981 C969 0.930 . S
H982 C970 0.956 . S
H983 C970 0.961 1_554 S
H984 C970 0.961 . S
H985 C971 0.958 . S
H986 C971 0.961 . S
H987 C971 0.960 . S
C988 C989 1.391 . S
C988 C990 1.394 . S
C988 H1004 0.931 . S
C989 C988 1.391 . S
C989 C993 1.376 . S
C990 C988 1.394 . S
C990 C991 1.369 . S
C990 C994 1.531 1_556 S
C991 C990 1.369 . S
C991 C992 1.410 . S
C991 C999 1.503 . S
C992 C991 1.410 . S
C992 C993 1.392 . S
C992 C995 1.511 . S
C993 C989 1.376 . S
C993 C992 1.392 . S
C993 H1005 0.929 . S
C994 C990 1.531 1_554 S
C994 H1006 0.960 . S
C994 H1007 0.962 . S
C994 H1008 0.960 . S
C995 C992 1.511 . S
C995 H1009 0.961 . S
C995 H1010 0.961 . S
C995 H1011 0.961 . S
C996 C997 1.370 . S
C996 C998 1.363 . S
C996 H1012 0.931 . S
C997 C996 1.370 . S
C997 C1001 1.408 . S
C998 C996 1.363 . S
C998 C999 1.370 1_554 S
C998 C1002 1.524 . S
C999 C991 1.503 . S
C999 C998 1.370 1_556 S
C999 C1000 1.405 . S
C1000 C999 1.405 . S
C1000 C1001 1.382 1_556 S
C1000 C1003 1.561 . S
C1001 C997 1.408 . S
C1001 C1000 1.382 1_554 S
C1001 H1013 0.930 . S
C1002 C998 1.524 . S
C1002 H1014 0.956 . S
C1002 H1015 0.961 1_554 S
C1002 H1016 0.961 . S
C1003 C1000 1.561 . S
C1003 H1017 0.958 . S
C1003 H1018 0.961 . S
C1003 H1019 0.960 . S
H1004 C988 0.931 . S
H1005 C993 0.929 . S
H1006 C994 0.960 . S
H1007 C994 0.962 . S
H1008 C994 0.960 . S
H1009 C995 0.961 . S
H1010 C995 0.961 . S
H1011 C995 0.961 . S
H1012 C996 0.931 . S
H1013 C1001 0.930 . S
H1014 C1002 0.956 . S
H1015 C1002 0.961 1_556 S
H1016 C1002 0.961 . S
H1017 C1003 0.958 . S
H1018 C1003 0.961 . S
H1019 C1003 0.960 . S
C1020 C1021 1.391 . S
C1020 C1022 1.394 . S
C1020 H1036 0.931 . S
C1021 C1020 1.391 . S
C1021 C1025 1.376 . S
C1022 C1020 1.394 . S
C1022 C1023 1.369 . S
C1022 C1026 1.531 . S
C1023 C1022 1.369 . S
C1023 C1024 1.410 . S
C1023 C1031 1.503 . S
C1024 C1023 1.410 . S
C1024 C1025 1.392 . S
C1024 C1027 1.511 . S
C1025 C1021 1.376 . S
C1025 C1024 1.392 . S
C1025 H1037 0.929 . S
C1026 C1022 1.531 . S
C1026 H1038 0.960 . S
C1026 H1039 0.962 . S
C1026 H1040 0.960 . S
C1027 C1024 1.511 . S
C1027 H1041 0.961 . S
C1027 H1042 0.961 . S
C1027 H1043 0.961 . S
C1028 C1029 1.370 . S
C1028 C1030 1.363 . S
C1028 H1044 0.931 . S
C1029 C1028 1.370 . S
C1029 C1033 1.408 . S
C1030 C1028 1.363 . S
C1030 C1031 1.370 . S
C1030 C1034 1.524 . S
C1031 C1023 1.503 . S
C1031 C1030 1.370 . S
C1031 C1032 1.403 . S
C1032 C1031 1.403 . S
C1032 C1033 1.404 . S
C1032 C1035 1.539 . S
C1033 C1029 1.408 . S
C1033 C1032 1.404 . S
C1033 H1045 0.930 . S
C1034 C1030 1.524 . S
C1034 H1046 0.956 . S
C1034 H1047 0.961 . S
C1034 H1048 0.961 . S
C1035 C1032 1.539 . S
C1035 H1049 0.958 . S
C1035 H1050 0.961 . S
C1035 H1051 0.960 . S
H1036 C1020 0.931 . S
H1037 C1025 0.929 . S
H1038 C1026 0.960 . S
H1039 C1026 0.962 . S
H1040 C1026 0.960 . S
H1041 C1027 0.961 . S
H1042 C1027 0.961 . S
H1043 C1027 0.961 . S
H1044 C1028 0.931 . S
H1045 C1033 0.930 . S
H1046 C1034 0.956 . S
H1047 C1034 0.961 . S
H1048 C1034 0.961 . S
H1049 C1035 0.958 . S
H1050 C1035 0.961 . S
H1051 C1035 0.960 . S
C1052 C1053 1.391 . S
C1052 C1054 1.394 . S
C1052 H1068 0.931 . S
C1053 C1052 1.391 . S
C1053 C1057 1.376 . S
C1054 C1052 1.394 . S
C1054 C1055 1.369 . S
C1054 C1058 1.531 . S
C1055 C1054 1.369 . S
C1055 C1056 1.410 . S
C1055 C1063 1.503 . S
C1056 C1055 1.410 . S
C1056 C1057 1.392 . S
C1056 C1059 1.511 . S
C1057 C1053 1.376 . S
C1057 C1056 1.392 . S
C1057 H1069 0.929 . S
C1058 C1054 1.531 . S
C1058 H1070 0.960 . S
C1058 H1071 0.962 . S
C1058 H1072 0.960 . S
C1059 C1056 1.511 . S
C1059 H1073 0.961 . S
C1059 H1074 0.961 . S
C1059 H1075 0.961 . S
C1060 C1061 1.370 . S
C1060 C1062 1.363 . S
C1060 H1076 0.931 . S
C1061 C1060 1.370 . S
C1061 C1065 1.408 . S
C1062 C1060 1.363 . S
C1062 C1063 1.370 . S
C1062 C1066 1.524 . S
C1063 C1055 1.503 . S
C1063 C1062 1.370 . S
C1063 C1064 1.403 . S
C1064 C1063 1.403 . S
C1064 C1065 1.404 . S
C1064 C1067 1.539 . S
C1065 C1061 1.408 . S
C1065 C1064 1.404 . S
C1065 H1077 0.930 . S
C1066 C1062 1.524 . S
C1066 H1078 0.956 . S
C1066 H1079 0.961 . S
C1066 H1080 0.961 . S
C1067 C1064 1.539 . S
C1067 H1081 0.958 . S
C1067 H1082 0.961 . S
C1067 H1083 0.960 . S
H1068 C1052 0.931 . S
H1069 C1057 0.929 . S
H1070 C1058 0.960 . S
H1071 C1058 0.962 . S
H1072 C1058 0.960 . S
H1073 C1059 0.961 . S
H1074 C1059 0.961 . S
H1075 C1059 0.961 . S
H1076 C1060 0.931 . S
H1077 C1065 0.930 . S
H1078 C1066 0.956 . S
H1079 C1066 0.961 . S
H1080 C1066 0.961 . S
H1081 C1067 0.958 . S
H1082 C1067 0.961 . S
H1083 C1067 0.960 . S
C1084 C1085 1.391 . S
C1084 C1086 1.394 . S
C1084 H1100 0.931 . S
C1085 C1084 1.391 . S
C1085 C1089 1.376 . S
C1086 C1084 1.394 . S
C1086 C1087 1.369 . S
C1086 C1090 1.531 . S
C1087 C1086 1.369 . S
C1087 C1088 1.410 . S
C1087 C1095 1.503 . S
C1088 C1087 1.410 . S
C1088 C1089 1.392 . S
C1088 C1091 1.511 . S
C1089 C1085 1.376 . S
C1089 C1088 1.392 . S
C1089 H1101 0.929 . S
C1090 C1086 1.531 . S
C1090 H1102 0.960 . S
C1090 H1103 0.962 . S
C1090 H1104 0.960 . S
C1091 C1088 1.511 . S
C1091 H1105 0.961 . S
C1091 H1106 0.961 . S
C1091 H1107 0.961 . S
C1092 C1093 1.370 . S
C1092 C1094 1.363 . S
C1092 H1108 0.931 . S
C1093 C1092 1.370 . S
C1093 C1097 1.408 . S
C1094 C1092 1.363 . S
C1094 C1095 1.370 . S
C1094 C1098 1.524 . S
C1095 C1087 1.503 . S
C1095 C1094 1.370 . S
C1095 C1096 1.403 . S
C1096 C1095 1.403 . S
C1096 C1097 1.404 . S
C1096 C1099 1.539 . S
C1097 C1093 1.408 . S
C1097 C1096 1.404 . S
C1097 H1109 0.930 . S
C1098 C1094 1.524 . S
C1098 H1110 0.956 . S
C1098 H1111 0.961 . S
C1098 H1112 0.961 . S
C1099 C1096 1.539 . S
C1099 H1113 0.958 . S
C1099 H1114 0.961 . S
C1099 H1115 0.960 . S
H1100 C1084 0.931 . S
H1101 C1089 0.929 . S
H1102 C1090 0.960 . S
H1103 C1090 0.962 . S
H1104 C1090 0.960 . S
H1105 C1091 0.961 . S
H1106 C1091 0.961 . S
H1107 C1091 0.961 . S
H1108 C1092 0.931 . S
H1109 C1097 0.930 . S
H1110 C1098 0.956 . S
H1111 C1098 0.961 . S
H1112 C1098 0.961 . S
H1113 C1099 0.958 . S
H1114 C1099 0.961 . S
H1115 C1099 0.960 . S
C1116 C1117 1.391 . S
C1116 C1118 1.394 . S
C1116 H1132 0.931 . S
C1117 C1116 1.391 . S
C1117 C1121 1.376 . S
C1118 C1116 1.394 . S
C1118 C1119 1.369 . S
C1118 C1122 1.531 . S
C1119 C1118 1.369 . S
C1119 C1120 1.410 . S
C1119 C1127 1.503 . S
C1120 C1119 1.410 . S
C1120 C1121 1.392 . S
C1120 C1123 1.511 . S
C1121 C1117 1.376 . S
C1121 C1120 1.392 . S
C1121 H1133 0.929 . S
C1122 C1118 1.531 . S
C1122 H1134 0.960 . S
C1122 H1135 0.962 . S
C1122 H1136 0.960 . S
C1123 C1120 1.511 . S
C1123 H1137 0.961 . S
C1123 H1138 0.961 . S
C1123 H1139 0.961 . S
C1124 C1125 1.370 . S
C1124 C1126 1.363 . S
C1124 H1140 0.931 . S
C1125 C1124 1.370 . S
C1125 C1129 1.408 . S
C1126 C1124 1.363 . S
C1126 C1127 1.370 . S
C1126 C1130 1.524 . S
C1127 C1119 1.503 . S
C1127 C1126 1.370 . S
C1127 C1128 1.403 . S
C1128 C1127 1.403 . S
C1128 C1129 1.404 . S
C1128 C1131 1.539 . S
C1129 C1125 1.408 . S
C1129 C1128 1.404 . S
C1129 H1141 0.930 . S
C1130 C1126 1.524 . S
C1130 H1142 0.956 . S
C1130 H1143 0.961 . S
C1130 H1144 0.961 . S
C1131 C1128 1.539 . S
C1131 H1145 0.958 . S
C1131 H1146 0.961 . S
C1131 H1147 0.960 . S
H1132 C1116 0.931 . S
H1133 C1121 0.929 . S
H1134 C1122 0.960 . S
H1135 C1122 0.962 . S
H1136 C1122 0.960 . S
H1137 C1123 0.961 . S
H1138 C1123 0.961 . S
H1139 C1123 0.961 . S
H1140 C1124 0.931 . S
H1141 C1129 0.930 . S
H1142 C1130 0.956 . S
H1143 C1130 0.961 . S
H1144 C1130 0.961 . S
H1145 C1131 0.958 . S
H1146 C1131 0.961 . S
H1147 C1131 0.960 . S
C1148 C1149 1.391 . S
C1148 C1150 1.394 . S
C1148 H1164 0.931 . S
C1149 C1148 1.391 . S
C1149 C1153 1.376 . S
C1150 C1148 1.394 . S
C1150 C1151 1.369 . S
C1150 C1154 1.531 1_545 S
C1151 C1150 1.369 . S
C1151 C1152 1.410 . S
C1151 C1159 1.503 . S
C1152 C1151 1.410 . S
C1152 C1153 1.392 . S
C1152 C1155 1.511 . S
C1153 C1149 1.376 . S
C1153 C1152 1.392 . S
C1153 H1165 0.929 . S
C1154 C1150 1.531 1_565 S
C1154 H1166 0.960 1_565 S
C1154 H1167 0.962 . S
C1154 H1168 0.960 . S
C1155 C1152 1.511 . S
C1155 H1169 0.961 . S
C1155 H1170 0.961 . S
C1155 H1171 0.961 . S
C1156 C1157 1.370 1_565 S
C1156 C1158 1.363 . S
C1156 H1172 0.931 . S
C1157 C1156 1.370 1_545 S
C1157 C1161 1.408 . S
C1158 C1156 1.363 . S
C1158 C1159 1.370 1_565 S
C1158 C1162 1.524 . S
C1159 C1151 1.503 . S
C1159 C1158 1.370 1_545 S
C1159 C1160 1.403 . S
C1160 C1159 1.403 . S
C1160 C1161 1.404 . S
C1160 C1163 1.539 . S
C1161 C1157 1.408 . S
C1161 C1160 1.404 . S
C1161 H1173 0.930 . S
C1162 C1158 1.524 . S
C1162 H1174 0.956 . S
C1162 H1175 0.961 . S
C1162 H1176 0.961 . S
C1163 C1160 1.539 . S
C1163 H1177 0.958 . S
C1163 H1178 0.961 . S
C1163 H1179 0.960 . S
H1164 C1148 0.931 . S
H1165 C1153 0.929 . S
H1166 C1154 0.960 1_545 S
H1167 C1154 0.962 . S
H1168 C1154 0.960 . S
H1169 C1155 0.961 . S
H1170 C1155 0.961 . S
H1171 C1155 0.961 . S
H1172 C1156 0.931 . S
H1173 C1161 0.930 . S
H1174 C1162 0.956 . S
H1175 C1162 0.961 . S
H1176 C1162 0.961 . S
H1177 C1163 0.958 . S
H1178 C1163 0.961 . S
H1179 C1163 0.960 . S
C1180 C1181 1.391 . S
C1180 C1182 1.394 . S
C1180 H1196 0.931 1_655 S
C1181 C1180 1.391 . S
C1181 C1185 1.376 . S
C1182 C1180 1.394 . S
C1182 C1183 1.369 . S
C1182 C1186 1.531 1_655 S
C1183 C1182 1.369 . S
C1183 C1184 1.410 . S
C1183 C1191 1.503 . S
C1184 C1183 1.410 . S
C1184 C1185 1.392 . S
C1184 C1187 1.511 . S
C1185 C1181 1.376 . S
C1185 C1184 1.392 . S
C1185 H1197 0.929 . S
C1186 C1182 1.531 1_455 S
C1186 H1198 0.960 . S
C1186 H1199 0.962 . S
C1186 H1200 0.960 . S
C1187 C1184 1.511 . S
C1187 H1201 0.961 . S
C1187 H1202 0.961 . S
C1187 H1203 0.961 . S
C1188 C1189 1.370 1_455 S
C1188 C1190 1.363 . S
C1188 H1204 0.931 . S
C1189 C1188 1.370 1_655 S
C1189 C1193 1.408 . S
C1190 C1188 1.363 . S
C1190 C1191 1.370 1_455 S
C1190 C1194 1.524 . S
C1191 C1183 1.503 . S
C1191 C1190 1.370 1_655 S
C1191 C1192 1.403 . S
C1192 C1191 1.403 . S
C1192 C1193 1.404 . S
C1192 C1195 1.539 . S
C1193 C1189 1.408 . S
C1193 C1192 1.404 . S
C1193 H1205 0.930 . S
C1194 C1190 1.524 . S
C1194 H1206 0.956 . S
C1194 H1207 0.961 . S
C1194 H1208 0.961 . S
C1195 C1192 1.539 . S
C1195 H1209 0.958 . S
C1195 H1210 0.961 . S
C1195 H1211 0.960 . S
H1196 C1180 0.931 1_455 S
H1197 C1185 0.929 . S
H1198 C1186 0.960 . S
H1199 C1186 0.962 . S
H1200 C1186 0.960 . S
H1201 C1187 0.961 . S
H1202 C1187 0.961 . S
H1203 C1187 0.961 . S
H1204 C1188 0.931 . S
H1205 C1193 0.930 . S
H1206 C1194 0.956 . S
H1207 C1194 0.961 . S
H1208 C1194 0.961 . S
H1209 C1195 0.958 . S
H1210 C1195 0.961 . S
H1211 C1195 0.960 . S
C1212 C1213 1.391 . S
C1212 C1214 1.394 . S
C1212 H1228 0.931 . S
C1213 C1212 1.391 . S
C1213 C1217 1.376 . S
C1214 C1212 1.394 . S
C1214 C1215 1.369 . S
C1214 C1218 1.531 . S
C1215 C1214 1.369 . S
C1215 C1216 1.410 . S
C1215 C1223 1.503 . S
C1216 C1215 1.410 . S
C1216 C1217 1.392 . S
C1216 C1219 1.511 . S
C1217 C1213 1.376 . S
C1217 C1216 1.392 . S
C1217 H1229 0.929 . S
C1218 C1214 1.531 . S
C1218 H1230 0.960 . S
C1218 H1231 0.962 . S
C1218 H1232 0.960 . S
C1219 C1216 1.511 . S
C1219 H1233 0.961 . S
C1219 H1234 0.961 . S
C1219 H1235 0.961 . S
C1220 C1221 1.370 . S
C1220 C1222 1.363 . S
C1220 H1236 0.931 . S
C1221 C1220 1.370 . S
C1221 C1225 1.408 . S
C1222 C1220 1.363 . S
C1222 C1223 1.370 . S
C1222 C1226 1.524 . S
C1223 C1215 1.503 . S
C1223 C1222 1.370 . S
C1223 C1224 1.403 . S
C1224 C1223 1.403 . S
C1224 C1225 1.404 . S
C1224 C1227 1.539 . S
C1225 C1221 1.408 . S
C1225 C1224 1.404 . S
C1225 H1237 0.930 . S
C1226 C1222 1.524 . S
C1226 H1238 0.956 . S
C1226 H1239 0.961 . S
C1226 H1240 0.961 . S
C1227 C1224 1.539 . S
C1227 H1241 0.958 . S
C1227 H1242 0.961 . S
C1227 H1243 0.960 . S
H1228 C1212 0.931 . S
H1229 C1217 0.929 . S
H1230 C1218 0.960 . S
H1231 C1218 0.962 . S
H1232 C1218 0.960 . S
H1233 C1219 0.961 . S
H1234 C1219 0.961 . S
H1235 C1219 0.961 . S
H1236 C1220 0.931 . S
H1237 C1225 0.930 . S
H1238 C1226 0.956 . S
H1239 C1226 0.961 . S
H1240 C1226 0.961 . S
H1241 C1227 0.958 . S
H1242 C1227 0.961 . S
H1243 C1227 0.960 . S
C1244 C1245 1.391 1_545 S
C1244 C1246 1.394 . S
C1244 H1260 0.931 . S
C1245 C1244 1.391 1_565 S
C1245 C1249 1.376 . S
C1246 C1244 1.394 . S
C1246 C1247 1.369 1_545 S
C1246 C1250 1.531 . S
C1247 C1246 1.369 1_565 S
C1247 C1248 1.410 . S
C1247 C1255 1.503 . S
C1248 C1247 1.410 . S
C1248 C1249 1.392 . S
C1248 C1251 1.511 . S
C1249 C1245 1.376 . S
C1249 C1248 1.392 . S
C1249 H1261 0.929 . S
C1250 C1246 1.531 . S
C1250 H1262 0.960 . S
C1250 H1263 0.962 . S
C1250 H1264 0.960 . S
C1251 C1248 1.511 . S
C1251 H1265 0.961 . S
C1251 H1266 0.961 . S
C1251 H1267 0.961 . S
C1252 C1253 1.370 . S
C1252 C1254 1.363 . S
C1252 H1268 0.931 . S
C1253 C1252 1.370 . S
C1253 C1257 1.408 . S
C1254 C1252 1.363 . S
C1254 C1255 1.370 . S
C1254 C1258 1.524 . S
C1255 C1247 1.503 . S
C1255 C1254 1.370 . S
C1255 C1256 1.403 . S
C1256 C1255 1.403 . S
C1256 C1257 1.404 . S
C1256 C1259 1.539 1_565 S
C1257 C1253 1.408 . S
C1257 C1256 1.404 . S
C1257 H1269 0.930 . S
C1258 C1254 1.524 . S
C1258 H1270 0.956 . S
C1258 H1271 0.961 . S
C1258 H1272 0.961 . S
C1259 C1256 1.539 1_545 S
C1259 H1273 0.958 . S
C1259 H1274 0.961 . S
C1259 H1275 0.960 . S
H1260 C1244 0.931 . S
H1261 C1249 0.929 . S
H1262 C1250 0.960 . S
H1263 C1250 0.962 . S
H1264 C1250 0.960 . S
H1265 C1251 0.961 . S
H1266 C1251 0.961 . S
H1267 C1251 0.961 . S
H1268 C1252 0.931 . S
H1269 C1257 0.930 . S
H1270 C1258 0.956 . S
H1271 C1258 0.961 . S
H1272 C1258 0.961 . S
H1273 C1259 0.958 . S
H1274 C1259 0.961 . S
H1275 C1259 0.960 . S
C1276 C1277 1.391 . S
C1276 C1278 1.394 . S
C1276 H1292 0.931 . S
C1277 C1276 1.391 . S
C1277 C1281 1.376 . S
C1278 C1276 1.394 . S
C1278 C1279 1.369 . S
C1278 C1282 1.531 . S
C1279 C1278 1.369 . S
C1279 C1280 1.410 . S
C1279 C1287 1.503 . S
C1280 C1279 1.410 . S
C1280 C1281 1.392 . S
C1280 C1283 1.511 . S
C1281 C1277 1.376 . S
C1281 C1280 1.392 . S
C1281 H1293 0.929 . S
C1282 C1278 1.531 . S
C1282 H1294 0.960 . S
C1282 H1295 0.962 1_455 S
C1282 H1296 0.960 . S
C1283 C1280 1.511 . S
C1283 H1297 0.961 . S
C1283 H1298 0.961 . S
C1283 H1299 0.961 . S
C1284 C1285 1.370 1_655 S
C1284 C1286 1.363 . S
C1284 H1300 0.931 . S
C1285 C1284 1.370 1_455 S
C1285 C1289 1.408 . S
C1286 C1284 1.363 . S
C1286 C1287 1.370 1_655 S
C1286 C1290 1.524 . S
C1287 C1279 1.503 . S
C1287 C1286 1.370 1_455 S
C1287 C1288 1.403 . S
C1288 C1287 1.403 . S
C1288 C1289 1.404 . S
C1288 C1291 1.539 . S
C1289 C1285 1.408 . S
C1289 C1288 1.404 . S
C1289 H1301 0.930 . S
C1290 C1286 1.524 . S
C1290 H1302 0.956 . S
C1290 H1303 0.961 . S
C1290 H1304 0.961 . S
C1291 C1288 1.539 . S
C1291 H1305 0.958 . S
C1291 H1306 0.961 . S
C1291 H1307 0.960 . S
H1292 C1276 0.931 . S
H1293 C1281 0.929 . S
H1294 C1282 0.960 . S
H1295 C1282 0.962 1_655 S
H1296 C1282 0.960 . S
H1297 C1283 0.961 . S
H1298 C1283 0.961 . S
H1299 C1283 0.961 . S
H1300 C1284 0.931 . S
H1301 C1289 0.930 . S
H1302 C1290 0.956 . S
H1303 C1290 0.961 . S
H1304 C1290 0.961 . S
H1305 C1291 0.958 . S
H1306 C1291 0.961 . S
H1307 C1291 0.960 . S
C1308 C1309 1.391 . S
C1308 C1310 1.394 . S
C1308 H1324 0.931 . S
C1309 C1308 1.391 . S
C1309 C1313 1.376 . S
C1310 C1308 1.394 . S
C1310 C1311 1.369 . S
C1310 C1314 1.531 . S
C1311 C1310 1.369 . S
C1311 C1312 1.410 . S
C1311 C1319 1.503 . S
C1312 C1311 1.410 . S
C1312 C1313 1.392 . S
C1312 C1315 1.511 . S
C1313 C1309 1.376 . S
C1313 C1312 1.392 . S
C1313 H1325 0.929 . S
C1314 C1310 1.531 . S
C1314 H1326 0.960 . S
C1314 H1327 0.962 . S
C1314 H1328 0.960 . S
C1315 C1312 1.511 . S
C1315 H1329 0.961 . S
C1315 H1330 0.961 . S
C1315 H1331 0.961 . S
C1316 C1317 1.370 . S
C1316 C1318 1.363 . S
C1316 H1332 0.931 . S
C1317 C1316 1.370 . S
C1317 C1321 1.408 . S
C1318 C1316 1.363 . S
C1318 C1319 1.370 . S
C1318 C1322 1.524 . S
C1319 C1311 1.503 . S
C1319 C1318 1.370 . S
C1319 C1320 1.403 . S
C1320 C1319 1.403 . S
C1320 C1321 1.404 . S
C1320 C1323 1.539 . S
C1321 C1317 1.408 . S
C1321 C1320 1.404 . S
C1321 H1333 0.930 . S
C1322 C1318 1.524 . S
C1322 H1334 0.956 . S
C1322 H1335 0.961 . S
C1322 H1336 0.961 . S
C1323 C1320 1.539 . S
C1323 H1337 0.958 . S
C1323 H1338 0.961 . S
C1323 H1339 0.960 . S
H1324 C1308 0.931 . S
H1325 C1313 0.929 . S
H1326 C1314 0.960 . S
H1327 C1314 0.962 . S
H1328 C1314 0.960 . S
H1329 C1315 0.961 . S
H1330 C1315 0.961 . S
H1331 C1315 0.961 . S
H1332 C1316 0.931 . S
H1333 C1321 0.930 . S
H1334 C1322 0.956 . S
H1335 C1322 0.961 . S
H1336 C1322 0.961 . S
H1337 C1323 0.958 . S
H1338 C1323 0.961 . S
H1339 C1323 0.960 . S
C1340 C1341 1.391 . S
C1340 C1342 1.394 . S
C1340 H1356 0.931 . S
C1341 C1340 1.391 . S
C1341 C1345 1.376 . S
C1342 C1340 1.394 . S
C1342 C1343 1.369 . S
C1342 C1346 1.531 . S
C1343 C1342 1.369 . S
C1343 C1344 1.410 . S
C1343 C1351 1.503 . S
C1344 C1343 1.410 . S
C1344 C1345 1.392 . S
C1344 C1347 1.511 . S
C1345 C1341 1.376 . S
C1345 C1344 1.392 . S
C1345 H1357 0.929 . S
C1346 C1342 1.531 . S
C1346 H1358 0.960 . S
C1346 H1359 0.962 . S
C1346 H1360 0.960 . S
C1347 C1344 1.511 . S
C1347 H1361 0.961 . S
C1347 H1362 0.961 . S
C1347 H1363 0.961 . S
C1348 C1349 1.370 . S
C1348 C1350 1.363 . S
C1348 H1364 0.931 . S
C1349 C1348 1.370 . S
C1349 C1353 1.408 . S
C1350 C1348 1.363 . S
C1350 C1351 1.370 . S
C1350 C1354 1.524 . S
C1351 C1343 1.503 . S
C1351 C1350 1.370 . S
C1351 C1352 1.403 . S
C1352 C1351 1.403 . S
C1352 C1353 1.404 . S
C1352 C1355 1.539 . S
C1353 C1349 1.408 . S
C1353 C1352 1.404 . S
C1353 H1365 0.930 . S
C1354 C1350 1.524 . S
C1354 H1366 0.956 . S
C1354 H1367 0.961 . S
C1354 H1368 0.961 . S
C1355 C1352 1.539 . S
C1355 H1369 0.958 . S
C1355 H1370 0.961 . S
C1355 H1371 0.960 . S
H1356 C1340 0.931 . S
H1357 C1345 0.929 . S
H1358 C1346 0.960 . S
H1359 C1346 0.962 . S
H1360 C1346 0.960 . S
H1361 C1347 0.961 . S
H1362 C1347 0.961 . S
H1363 C1347 0.961 . S
H1364 C1348 0.931 . S
H1365 C1353 0.930 . S
H1366 C1354 0.956 . S
H1367 C1354 0.961 . S
H1368 C1354 0.961 . S
H1369 C1355 0.958 . S
H1370 C1355 0.961 . S
H1371 C1355 0.960 . S
C1372 C1373 1.391 . S
C1372 C1374 1.394 . S
C1372 H1388 0.931 . S
C1373 C1372 1.391 . S
C1373 C1377 1.376 . S
C1374 C1372 1.394 . S
C1374 C1375 1.369 . S
C1374 C1378 1.531 . S
C1375 C1374 1.369 . S
C1375 C1376 1.410 . S
C1375 C1383 1.503 . S
C1376 C1375 1.410 . S
C1376 C1377 1.392 . S
C1376 C1379 1.511 . S
C1377 C1373 1.376 . S
C1377 C1376 1.392 . S
C1377 H1389 0.929 . S
C1378 C1374 1.531 . S
C1378 H1390 0.960 . S
C1378 H1391 0.962 . S
C1378 H1392 0.960 . S
C1379 C1376 1.511 . S
C1379 H1393 0.961 . S
C1379 H1394 0.961 . S
C1379 H1395 0.961 . S
C1380 C1381 1.370 . S
C1380 C1382 1.363 . S
C1380 H1396 0.931 . S
C1381 C1380 1.370 . S
C1381 C1385 1.408 . S
C1382 C1380 1.363 . S
C1382 C1383 1.370 . S
C1382 C1386 1.524 . S
C1383 C1375 1.503 . S
C1383 C1382 1.370 . S
C1383 C1384 1.403 . S
C1384 C1383 1.403 . S
C1384 C1385 1.404 . S
C1384 C1387 1.539 . S
C1385 C1381 1.408 . S
C1385 C1384 1.404 . S
C1385 H1397 0.930 . S
C1386 C1382 1.524 . S
C1386 H1398 0.956 . S
C1386 H1399 0.961 . S
C1386 H1400 0.961 . S
C1387 C1384 1.539 . S
C1387 H1401 0.958 . S
C1387 H1402 0.961 . S
C1387 H1403 0.960 . S
H1388 C1372 0.931 . S
H1389 C1377 0.929 . S
H1390 C1378 0.960 . S
H1391 C1378 0.962 . S
H1392 C1378 0.960 . S
H1393 C1379 0.961 . S
H1394 C1379 0.961 . S
H1395 C1379 0.961 . S
H1396 C1380 0.931 . S
H1397 C1385 0.930 . S
H1398 C1386 0.956 . S
H1399 C1386 0.961 . S
H1400 C1386 0.961 . S
H1401 C1387 0.958 . S
H1402 C1387 0.961 . S
H1403 C1387 0.960 . S
C253 C11 1.535 . S
C261 C47 1.424 . S
C285 C25 1.640 . S
C293 C61 1.528 . S
C317 C81 1.561 . S
C325 C39 1.591 . S
C349 C95 1.509 . S
C357 C131 1.389 . S
C381 C109 1.650 . S
C389 C145 1.487 . S
C413 C165 1.512 . S
C421 C123 1.520 . S
C445 C215 1.396 . S
C453 C179 1.469 . S
C477 C229 1.502 . S
C485 C193 1.632 . S
C509 C249 1.493 . S
C517 C207 1.524 . S
C541 C5 1.674 . S
C549 C137 1.620 . S
C573 C19 1.730 . S
C581 C151 1.685 . S
C605 C159 1.746 . S
C613 C33 1.751 . S
C637 C53 1.583 . S
C645 C173 1.668 . S
C669 C67 1.657 . S
C677 C187 1.741 . S
C701 C75 1.760 . S
C709 C201 1.747 . S
C733 C89 1.723 . S
C741 C221 1.647 . S
C765 C103 1.816 . S
C773 C235 1.746 . S
C797 C243 1.646 1_545 S
C805 C117 1.670 1_545 S
C829 C12 0.686 . S
C837 C68 0.638 . S
C861 C26 0.683 . S
C869 C74 0.691 . S
C893 C40 0.621 . S
C901 C54 0.638 . S
C925 C46 0.589 . S
C933 C18 0.552 . S
C957 C32 0.552 . S
C965 C60 0.548 . S
C989 C82 0.609 . S
C997 C4 0.557 . S
C1021 C96 0.722 . S
C1029 C152 0.721 . S
C1053 C158 0.674 . S
C1061 C110 0.710 . S
C1085 C138 0.692 . S
C1093 C124 0.698 . S
C1117 C102 0.518 . S
C1125 C130 0.509 . S
C1149 C144 0.534 . S
C1157 C116 0.599 . S
C1181 C166 0.506 . S
C1189 C88 0.575 . S
C1213 C236 0.629 . S
C1221 C180 0.644 . S
C1245 C242 0.764 . S
C1253 C194 0.698 . S
C1277 C208 0.635 . S
C1285 C222 0.602 . S
C1309 C186 0.677 . S
C1317 C214 0.619 . S
C1341 C200 0.621 . S
C1349 C228 0.567 . S
C1373 C172 0.580 . S
C1381 C250 0.617 . S
