# Generated by pormake.
# Topology whj, (6)-cn, num edge types: 1
# Building blocks:
#     Node 0, Type 0, BuildingBlock: IZENUY_clean_sbu_0, # of connection points: 6
#     Node 1, Type 0, BuildingBlock: IZENUY_clean_sbu_0, # of connection points: 6
#     Node 2, Type 0, BuildingBlock: IZENUY_clean_sbu_0, # of connection points: 6
#     Node 3, Type 0, BuildingBlock: IZENUY_clean_sbu_0, # of connection points: 6
#     Node 4, Type 0, BuildingBlock: IZENUY_clean_sbu_0, # of connection points: 6
#     Node 5, Type 0, BuildingBlock: IZENUY_clean_sbu_0, # of connection points: 6
#     Node 6, Type 0, BuildingBlock: IZENUY_clean_sbu_0, # of connection points: 6
#     Node 7, Type 0, BuildingBlock: IZENUY_clean_sbu_0, # of connection points: 6
#     Node 8, Type 0, BuildingBlock: IZENUY_clean_sbu_0, # of connection points: 6
#     Node 9, Type 0, BuildingBlock: IZENUY_clean_sbu_0, # of connection points: 6
#     Node 10, Type 0, BuildingBlock: IZENUY_clean_sbu_0, # of connection points: 6
#     Node 11, Type 0, BuildingBlock: IZENUY_clean_sbu_0, # of connection points: 6
#     Node 12, Type 0, BuildingBlock: IZENUY_clean_sbu_0, # of connection points: 6
#     Node 13, Type 0, BuildingBlock: IZENUY_clean_sbu_0, # of connection points: 6
#     Node 14, Type 0, BuildingBlock: IZENUY_clean_sbu_0, # of connection points: 6
#     Node 15, Type 0, BuildingBlock: IZENUY_clean_sbu_0, # of connection points: 6
#     Edge 16, Type (0, 0), BuildingBlock: AJUNOK_clean_linker_0, # of connection points: 2
#     Edge 17, Type (0, 0), BuildingBlock: AJUNOK_clean_linker_0, # of connection points: 2
#     Edge 18, Type (0, 0), BuildingBlock: AJUNOK_clean_linker_0, # of connection points: 2
#     Edge 19, Type (0, 0), BuildingBlock: AJUNOK_clean_linker_0, # of connection points: 2
#     Edge 20, Type (0, 0), BuildingBlock: AJUNOK_clean_linker_0, # of connection points: 2
#     Edge 21, Type (0, 0), BuildingBlock: AJUNOK_clean_linker_0, # of connection points: 2
#     Edge 22, Type (0, 0), BuildingBlock: AJUNOK_clean_linker_0, # of connection points: 2
#     Edge 23, Type (0, 0), BuildingBlock: AJUNOK_clean_linker_0, # of connection points: 2
#     Edge 24, Type (0, 0), BuildingBlock: AJUNOK_clean_linker_0, # of connection points: 2
#     Edge 25, Type (0, 0), BuildingBlock: AJUNOK_clean_linker_0, # of connection points: 2
#     Edge 26, Type (0, 0), BuildingBlock: AJUNOK_clean_linker_0, # of connection points: 2
#     Edge 27, Type (0, 0), BuildingBlock: AJUNOK_clean_linker_0, # of connection points: 2
#     Edge 28, Type (0, 0), BuildingBlock: AJUNOK_clean_linker_0, # of connection points: 2
#     Edge 29, Type (0, 0), BuildingBlock: AJUNOK_clean_linker_0, # of connection points: 2
#     Edge 30, Type (0, 0), BuildingBlock: AJUNOK_clean_linker_0, # of connection points: 2
#     Edge 31, Type (0, 0), BuildingBlock: AJUNOK_clean_linker_0, # of connection points: 2
#     Edge 32, Type (0, 0), BuildingBlock: AJUNOK_clean_linker_0, # of connection points: 2
#     Edge 33, Type (0, 0), BuildingBlock: AJUNOK_clean_linker_0, # of connection points: 2
#     Edge 34, Type (0, 0), BuildingBlock: AJUNOK_clean_linker_0, # of connection points: 2
#     Edge 35, Type (0, 0), BuildingBlock: AJUNOK_clean_linker_0, # of connection points: 2
#     Edge 36, Type (0, 0), BuildingBlock: AJUNOK_clean_linker_0, # of connection points: 2
#     Edge 37, Type (0, 0), BuildingBlock: AJUNOK_clean_linker_0, # of connection points: 2
#     Edge 38, Type (0, 0), BuildingBlock: AJUNOK_clean_linker_0, # of connection points: 2
#     Edge 39, Type (0, 0), BuildingBlock: AJUNOK_clean_linker_0, # of connection points: 2
#     Edge 40, Type (0, 0), BuildingBlock: AJUNOK_clean_linker_0, # of connection points: 2
#     Edge 41, Type (0, 0), BuildingBlock: AJUNOK_clean_linker_0, # of connection points: 2
#     Edge 42, Type (0, 0), BuildingBlock: AJUNOK_clean_linker_0, # of connection points: 2
#     Edge 43, Type (0, 0), BuildingBlock: AJUNOK_clean_linker_0, # of connection points: 2
#     Edge 44, Type (0, 0), BuildingBlock: AJUNOK_clean_linker_0, # of connection points: 2
#     Edge 45, Type (0, 0), BuildingBlock: AJUNOK_clean_linker_0, # of connection points: 2
#     Edge 46, Type (0, 0), BuildingBlock: AJUNOK_clean_linker_0, # of connection points: 2
#     Edge 47, Type (0, 0), BuildingBlock: AJUNOK_clean_linker_0, # of connection points: 2
#     Edge 48, Type (0, 0), BuildingBlock: AJUNOK_clean_linker_0, # of connection points: 2
#     Edge 49, Type (0, 0), BuildingBlock: AJUNOK_clean_linker_0, # of connection points: 2
#     Edge 50, Type (0, 0), BuildingBlock: AJUNOK_clean_linker_0, # of connection points: 2
#     Edge 51, Type (0, 0), BuildingBlock: AJUNOK_clean_linker_0, # of connection points: 2
#     Edge 52, Type (0, 0), BuildingBlock: AJUNOK_clean_linker_0, # of connection points: 2
#     Edge 53, Type (0, 0), BuildingBlock: AJUNOK_clean_linker_0, # of connection points: 2
#     Edge 54, Type (0, 0), BuildingBlock: AJUNOK_clean_linker_0, # of connection points: 2
#     Edge 55, Type (0, 0), BuildingBlock: AJUNOK_clean_linker_0, # of connection points: 2
#     Edge 56, Type (0, 0), BuildingBlock: AJUNOK_clean_linker_0, # of connection points: 2
#     Edge 57, Type (0, 0), BuildingBlock: AJUNOK_clean_linker_0, # of connection points: 2
#     Edge 58, Type (0, 0), BuildingBlock: AJUNOK_clean_linker_0, # of connection points: 2
#     Edge 59, Type (0, 0), BuildingBlock: AJUNOK_clean_linker_0, # of connection points: 2
#     Edge 60, Type (0, 0), BuildingBlock: AJUNOK_clean_linker_0, # of connection points: 2
#     Edge 61, Type (0, 0), BuildingBlock: AJUNOK_clean_linker_0, # of connection points: 2
#     Edge 62, Type (0, 0), BuildingBlock: AJUNOK_clean_linker_0, # of connection points: 2
#     Edge 63, Type (0, 0), BuildingBlock: AJUNOK_clean_linker_0, # of connection points: 2
# Relax obj value: 0.269
# Max RMSD: 0.261
# Mean RMSD: 0.261
data_MOF--net-whj--node1-IZENUY_clean_sbu_0--edge1-AJUNOK_clean_linker_0
_symmetry_space_group_name_H-M    P1
_symmetry_Int_Tables_number       1
_symmetry_cell_setting            triclinic
loop_
_symmetry_equiv_pos_as_xyz
'x, y, z'
_cell_length_a     27.089438
_cell_length_b     27.14937
_cell_length_c     34.941232
_cell_angle_alpha  89.848116
_cell_angle_beta   89.894744
_cell_angle_gamma 90.054012
loop_
_atom_site_label
_atom_site_type_symbol
_atom_site_fract_x
_atom_site_fract_y
_atom_site_fract_z
_atom_type_partial_charge
Fe0 Fe 0.71681 1.01347 0.09315 0.0
Fe1 Fe 0.64024 0.08044 0.13094 0.0
O2 O 0.70227 0.06703 0.11946 0.0
Fe3 Fe 0.74951 0.10905 0.13278 0.0
O4 O 0.78976 0.09539 0.09187 0.0
O5 O 0.74396 0.04987 0.05438 0.0
O6 O 0.65898 1.01228 0.06546 0.0
C7 C 0.62734 0.04563 0.05924 0.0
C8 C 0.7947 1.02139 0.14804 0.0
O9 O 0.62277 0.08123 0.08162 0.0
C10 C 0.68201 0.11321 0.19579 0.0
O11 O 0.69015 0.97347 0.12958 0.0
O12 O 0.62142 1.01528 0.13684 0.0
O13 O 0.78088 0.06245 0.16181 0.0
O14 O 0.77661 1.00509 0.11697 0.0
C15 C 0.67695 0.16929 0.10338 0.0
O16 O 0.65434 0.08116 0.18116 0.0
O17 O 0.71726 0.13156 0.17637 0.0
C18 C 0.64552 0.97539 0.1402 0.0
O19 O 0.64736 0.14774 0.12598 0.0
O20 O 0.72171 0.15636 0.10275 0.0
C21 C 0.77869 0.0804 0.05871 0.0
Fe22 Fe 0.44779 0.74557 0.12842 0.0
Fe23 Fe 0.54102 0.70701 0.08756 0.0
O24 O 0.48849 0.69658 0.11656 0.0
Fe25 Fe 0.47491 0.63655 0.13269 0.0
O26 O 0.40741 0.64446 0.13027 0.0
O27 O 0.39787 0.71566 0.10242 0.0
O28 O 0.45908 0.78049 0.08424 0.0
C29 C 0.47264 0.76552 0.05158 0.0
C30 C 0.44661 0.68462 0.19568 0.0
O31 O 0.50313 0.73057 0.04843 0.0
C32 C 0.58077 0.63995 0.13706 0.0
O33 O 0.49693 0.7793 0.15309 0.0
O34 O 0.5518 0.76904 0.10667 0.0
O35 O 0.47849 0.65646 0.18149 0.0
O36 O 0.42755 0.7183 0.17505 0.0
C37 C 0.50591 0.61373 0.06222 0.0
O38 O 0.58273 0.68359 0.12426 0.0
O39 O 0.54005 0.61678 0.13693 0.0
C40 C 0.53728 0.79114 0.1367 0.0
O41 O 0.53947 0.64616 0.06426 0.0
O42 O 0.47023 0.61405 0.0849 0.0
C43 C 0.38443 0.67149 0.10671 0.0
Fe44 Fe 0.82817 0.44727 0.12846 0.0
Fe45 Fe 0.85587 0.54754 0.09256 0.0
O46 O 0.87118 0.4959 0.12124 0.0
Fe47 Fe 0.93177 0.49219 0.14089 0.0
O48 O 0.94481 0.43854 0.11199 0.0
O49 O 0.87553 0.3983 0.12356 0.0
O50 O 0.81793 0.43836 0.07768 0.0
C51 C 0.80659 0.47015 0.05308 0.0
C52 C 0.87474 0.44522 0.19802 0.0
O53 O 0.8137 0.51532 0.05976 0.0
C54 C 0.914 0.58867 0.15346 0.0
O55 O 0.77427 0.48968 0.13291 0.0
O56 O 0.8053 0.5642 0.12365 0.0
O57 O 0.9151 0.45417 0.18167 0.0
O58 O 0.83428 0.44956 0.18055 0.0
C59 C 0.95039 0.53182 0.06966 0.0
O60 O 0.89451 0.59028 0.12038 0.0
O61 O 0.92249 0.54752 0.16956 0.0
C62 C 0.7701 0.53659 0.134 0.0
O63 O 0.90587 0.53318 0.05917 0.0
O64 O 0.9614 0.52876 0.10429 0.0
C65 C 0.91843 0.40046 0.10847 0.0
Fe66 Fe 1.01059 0.84878 0.0946 0.0
Fe67 Fe 0.07181 0.92884 0.13393 0.0
O68 O 0.06495 0.8664 0.11927 0.0
Fe69 Fe 0.11238 0.82272 0.12816 0.0
O70 O 0.11799 0.80625 0.07802 0.0
O71 O 0.03935 0.80084 0.06488 0.0
O72 O 1.02337 0.89254 0.05606 0.0
C73 C 1.02984 0.93788 0.06212 0.0
C74 C 1.02191 0.76973 0.14295 0.0
O75 O 0.03542 0.95414 0.0954 0.0
C76 C 0.12033 0.87742 0.1933 0.0
O77 O 0.97081 0.89273 0.11996 0.0
O78 O 1.0173 0.92568 0.16478 0.0
O79 O 0.06862 0.77131 0.13819 0.0
O80 O 0.99479 0.80443 0.13123 0.0
C81 C 0.16264 0.90904 0.10233 0.0
O82 O 0.11084 0.91595 0.17478 0.0
O83 O 0.11262 0.83534 0.1794 0.0
C84 C 0.97497 0.91578 0.15135 0.0
O85 O 0.12517 0.93648 0.10358 0.0
O86 O 0.16306 0.86689 0.11841 0.0
C87 C 0.08383 0.79199 0.05645 0.0
Fe88 Fe 0.20801 0.04128 0.44811 0.0
Fe89 Fe 0.12684 0.98752 0.40349 0.0
O90 O 0.18938 0.99108 0.41901 0.0
Fe91 Fe 0.23167 0.94391 0.40666 0.0
O92 O 0.24726 0.93172 0.45568 0.0
O93 O 0.25382 1.00683 0.47729 0.0
O94 O 0.16243 1.02574 0.48458 0.0
C95 C 0.11706 1.02236 0.47735 0.0
C96 C 0.28807 0.03371 0.39995 0.0
O97 O 0.10175 1.02098 0.44355 0.0
C98 C 0.17739 0.94375 0.34141 0.0
O99 O 0.166 0.08522 0.42403 0.0
O100 O 0.13235 0.04435 0.37604 0.0
O101 O 0.28475 0.98682 0.40023 0.0
O102 O 0.25447 0.06013 0.41409 0.0
C103 C 0.14393 0.89419 0.43011 0.0
O104 O 0.13904 0.95178 0.36069 0.0
O105 O 0.21953 0.95026 0.35564 0.0
C106 C 0.1428 0.08476 0.39228 0.0
O107 O 0.11741 0.93221 0.43092 0.0
O108 O 0.18556 0.89385 0.41296 0.0
C109 C 0.2616 0.961 0.48096 0.0
Fe110 Fe 0.50957 0.20736 0.44497 0.0
Fe111 Fe 0.57838 0.13683 0.40227 0.0
O112 O 0.56415 0.19704 0.41832 0.0
Fe113 Fe 0.60598 0.2461 0.40853 0.0
O114 O 0.59312 0.27975 0.4529 0.0
O115 O 0.54408 0.23069 0.48585 0.0
O116 O 0.50965 0.14658 0.46838 0.0
C117 C 0.5427 0.11388 0.47189 0.0
C118 C 0.51757 0.29306 0.39733 0.0
O119 O 0.57948 0.11302 0.45005 0.0
C120 C 0.60791 0.18828 0.34023 0.0
O121 O 0.47069 0.18429 0.4064 0.0
O122 O 0.51369 0.1173 0.39581 0.0
O123 O 0.55914 0.28181 0.38285 0.0
O124 O 0.50017 0.26958 0.4258 0.0
C125 C 0.66817 0.17113 0.43051 0.0
O126 O 0.57778 0.15738 0.35348 0.0
O127 O 0.62749 0.22027 0.36203 0.0
C128 C 0.47332 0.1407 0.39386 0.0
O129 O 0.64595 0.14419 0.4066 0.0
O130 O 0.65381 0.2147 0.43556 0.0
C131 C 0.57555 0.26496 0.48448 0.0
Fe132 Fe 0.41958 0.58482 0.40231 0.0
Fe133 Fe 0.30985 0.61102 0.40819 0.0
O134 O 0.35995 0.57154 0.41996 0.0
Fe135 Fe 0.35065 0.52051 0.45047 0.0
O136 O 0.41234 0.52235 0.47216 0.0
O137 O 0.44454 0.59042 0.44943 0.0
O138 O 0.41104 0.6522 0.40429 0.0
C139 C 0.3844 0.67458 0.4285 0.0
C140 C 0.41457 0.47931 0.39875 0.0
O141 O 0.34008 0.66147 0.43294 0.0
C142 C 0.26595 0.52061 0.40248 0.0
O143 O 0.39802 0.5804 0.3539 0.0
O144 O 0.33529 0.63031 0.3609 0.0
O145 O 0.37217 0.47773 0.41402 0.0
O146 O 0.43882 0.51947 0.39821 0.0
C147 C 0.29312 0.58979 0.48588 0.0
O148 O 0.27616 0.56053 0.3849 0.0
O149 O 0.28786 0.50941 0.43339 0.0
C150 C 0.36771 0.61029 0.33972 0.0
O151 O 0.2763 0.60067 0.45315 0.0
O152 O 0.32885 0.56015 0.48918 0.0
C153 C 0.44439 0.55619 0.47338 0.0
Fe154 Fe 0.97908 0.42048 0.40517 0.0
Fe155 Fe 0.94445 0.31301 0.41039 0.0
O156 O 0.9887 0.35944 0.42107 0.0
Fe157 Fe 0.04167 0.34521 0.4484 0.0
O158 O 0.04616 0.40539 0.47167 0.0
O159 O 0.97901 0.44355 0.45323 0.0
O160 O 0.91145 0.41778 0.40962 0.0
C161 C 0.88619 0.39124 0.43215 0.0
C162 C 0.08374 0.40889 0.39743 0.0
O163 O 0.89719 0.34642 0.43682 0.0
C164 C 0.0313 0.26293 0.39909 0.0
O165 O 0.97825 0.40069 0.35614 0.0
O166 O 0.92451 0.34119 0.36415 0.0
O167 O 0.0827 0.36526 0.41016 0.0
O168 O 0.04516 0.43526 0.39877 0.0
C169 C 0.9709 0.29264 0.48705 0.0
O170 O 0.99042 0.27607 0.38443 0.0
O171 O 0.04698 0.28267 0.42958 0.0
C172 C 0.94399 0.37437 0.34319 0.0
O173 O 0.95482 0.27783 0.45498 0.0
O174 O 1.0042 0.32502 0.4888 0.0
C175 C 1.01483 0.43937 0.47567 0.0
Fe176 Fe 0.31815 0.95087 0.90792 0.0
Fe177 Fe 0.42779 0.97886 0.90506 0.0
O178 O 0.36684 0.99185 0.92015 0.0
Fe179 Fe 0.3552 0.04447 0.94847 0.0
O180 O 0.33122 1.00698 0.98771 0.0
O181 O 0.28277 0.9611 0.95199 0.0
O182 O 0.34814 0.90125 0.9337 0.0
C183 C 0.39231 0.88767 0.92989 0.0
C184 C 0.27121 0.03928 0.89921 0.0
O185 O 0.42072 0.9114 0.90771 0.0
C186 C 0.42252 0.08409 0.89879 0.0
O187 O 0.34581 0.93188 0.86147 0.0
O188 O 0.40941 0.98136 0.85577 0.0
O189 O 0.29323 0.05444 0.92897 0.0
O190 O 0.28386 0.99934 0.88308 0.0
C191 C 0.44821 1.011 0.97595 0.0
O192 O 0.44679 0.04414 0.90038 0.0
O193 O 0.37875 0.08568 0.91144 0.0
C194 C 0.37949 0.95145 0.84109 0.0
O195 O 0.44959 0.97524 0.95342 0.0
O196 O 0.41552 0.04402 0.97255 0.0
C197 C 0.29673 0.97588 0.98456 0.0
Fe198 Fe 0.57428 0.43273 0.90986 0.0
Fe199 Fe 0.51741 0.34878 0.94902 0.0
O200 O 0.56904 0.36923 0.9217 0.0
Fe201 Fe 0.61619 0.32758 0.90753 0.0
O202 O 0.66714 0.37217 0.91579 0.0
O203 O 0.62962 0.4382 0.93811 0.0
O204 O 0.54061 0.45457 0.95083 0.0
C205 C 0.53706 0.43603 0.98356 0.0
C206 C 0.61648 0.38769 0.84467 0.0
O207 O 0.53182 0.3904 0.98816 0.0
C208 C 0.52581 0.27197 0.89858 0.0
O209 O 0.51783 0.43149 0.88176 0.0
O210 O 0.47444 0.39337 0.92656 0.0
O211 O 0.61091 0.34417 0.85686 0.0
O212 O 0.60996 0.42373 0.86662 0.0
C213 C 0.59658 0.29214 0.98013 0.0
O214 O 0.49928 0.30563 0.91245 0.0
O215 O 0.57281 0.2754 0.89897 0.0
C216 C 0.47661 0.41999 0.89649 0.0
O217 O 0.55082 0.30055 0.97631 0.0
O218 O 0.62709 0.30813 0.95604 0.0
C219 C 0.66749 0.41149 0.93566 0.0
Fe220 Fe 0.23183 0.61157 0.90842 0.0
Fe221 Fe 0.12987 0.56152 0.90534 0.0
O222 O 0.19262 0.56101 0.91998 0.0
Fe223 Fe 0.21336 0.5104 0.94761 0.0
O224 O 0.25575 0.5453 0.97848 0.0
O225 O 0.25046 0.62122 0.95761 0.0
O226 O 0.18284 0.65775 0.91886 0.0
C227 C 0.1425 0.6528 0.93766 0.0
C228 C 0.29275 0.52508 0.89879 0.0
O229 O 0.11821 0.613 0.93659 0.0
C230 C 0.15216 0.46732 0.88895 0.0
O231 O 0.21713 0.6094 0.85694 0.0
O232 O 0.13789 0.6026 0.86537 0.0
O233 O 0.26171 0.49661 0.91417 0.0
O234 O 0.28657 0.57179 0.89842 0.0
C235 C 0.12072 0.51745 0.97599 0.0
O236 O 0.13948 0.50842 0.87447 0.0
O237 O 0.17513 0.46584 0.92082 0.0
C238 C 0.17369 0.61323 0.84423 0.0
O239 O 0.10657 0.52127 0.94221 0.0
O240 O 0.16583 0.52103 0.98397 0.0
C241 C 0.26342 0.59087 0.98288 0.0
Fe242 Fe 0.04451 0.20762 0.94988 0.0
Fe243 Fe 0.9503 0.24519 0.91006 0.0
O244 O 0.9916 0.19662 0.92181 0.0
Fe245 Fe 0.9785 0.13643 0.90592 0.0
O246 O 0.97415 0.11377 0.95376 0.0
O247 O 0.04325 0.14681 0.97405 0.0
O248 O 1.00773 0.23188 0.98933 0.0
C249 C 0.9775 0.2671 0.98648 0.0
C250 C 0.08375 0.14105 0.89989 0.0
O251 O 0.9618 0.28091 0.95402 0.0
C252 C 0.95066 0.18508 0.84281 0.0
O253 O 0.0547 0.26933 0.92966 0.0
O254 O 0.9985 0.27877 0.88425 0.0
O255 O 0.04366 0.11696 0.90143 0.0
O256 O 0.08544 0.1844 0.9128 0.0
C257 C 0.88858 0.1705 0.9326 0.0
O258 O 0.93005 0.2175 0.86373 0.0
O259 O 0.98208 0.15657 0.85717 0.0
C260 C 0.03972 0.2901 0.89914 0.0
O261 O 0.90165 0.2147 0.93695 0.0
O262 O 0.91098 0.14415 0.90835 0.0
C263 C 1.00926 0.11474 0.97691 0.0
Fe264 Fe 0.92122 0.08126 0.63435 0.0
Fe265 Fe 0.84687 1.02075 0.58822 0.0
O266 O 0.86039 0.07156 0.61813 0.0
Fe267 Fe 0.81352 0.11423 0.63117 0.0
O268 O 0.84606 0.16351 0.6058 0.0
O269 O 0.91737 0.14887 0.63275 0.0
O270 O 0.9445 0.08534 0.58658 0.0
C271 C 0.94147 0.05151 0.56249 0.0
C272 C 0.87399 0.11012 0.69807 0.0
O273 O 0.90728 1.01982 0.56408 0.0
C274 C 0.76416 1.02658 0.63873 0.0
O275 O 0.93714 1.01558 0.63799 0.0
O276 O 0.86874 0.97644 0.62379 0.0
O277 O 0.8418 0.13172 0.67768 0.0
O278 O 0.90116 0.07784 0.68328 0.0
C279 C 0.78887 0.09136 0.55444 0.0
O280 O 0.78484 1.01232 0.60807 0.0
O281 O 0.7774 0.06611 0.6554 0.0
C282 C 0.91182 0.97636 0.63779 0.0
O283 O 0.82396 0.06115 0.54989 0.0
O284 O 0.77732 0.10578 0.58763 0.0
C285 C 0.89091 0.17469 0.61066 0.0
Fe286 Fe 0.5436 0.84547 0.58785 0.0
Fe287 Fe 0.45016 0.81092 0.63037 0.0
O288 O 0.49076 0.85882 0.61566 0.0
Fe289 Fe 0.47691 0.92049 0.62734 0.0
O290 O 0.47339 0.93776 0.57794 0.0
O291 O 0.54298 0.90358 0.56068 0.0
O292 O 0.5058 0.81865 0.54992 0.0
C293 C 0.47507 0.78408 0.55466 0.0
C294 C 0.58218 0.91648 0.63472 0.0
O295 O 0.46163 0.77195 0.5882 0.0
C296 C 0.4491 0.87793 0.69367 0.0
O297 O 0.55383 0.7854 0.61064 0.0
O298 O 0.49891 0.77961 0.65732 0.0
O299 O 0.54205 0.94023 0.63128 0.0
O300 O 0.58473 0.87218 0.62358 0.0
C301 C 0.38641 0.88247 0.60392 0.0
O302 O 0.43018 0.84226 0.67521 0.0
O303 O 0.47916 0.90646 0.67743 0.0
C304 C 0.5396 0.76681 0.64219 0.0
O305 O 0.40042 0.83821 0.60278 0.0
O306 O 0.40941 0.91266 0.62488 0.0
C307 C 0.50871 0.93436 0.55498 0.0
Fe308 Fe 0.62725 0.48951 0.63205 0.0
Fe309 Fe 0.70966 0.54537 0.59019 0.0
O310 O 0.68965 0.49295 0.61635 0.0
Fe311 Fe 0.73111 0.44359 0.6253 0.0
O312 O 0.68392 0.39485 0.61935 0.0
O313 O 0.6167 0.43537 0.60324 0.0
O314 O 0.6026 0.52517 0.5927 0.0
C315 C 0.61914 0.53095 0.55938 0.0
C316 C 0.67912 0.44336 0.69247 0.0
O317 O 0.66469 0.5342 0.55276 0.0
C318 C 0.79014 0.53124 0.63545 0.0
O319 O 0.63296 0.5449 0.66121 0.0
O320 O 0.66834 0.58807 0.6153 0.0
O321 O 0.72114 0.4464 0.67691 0.0
O322 O 0.64014 0.45252 0.67421 0.0
C323 C 0.75862 0.46773 0.55167 0.0
O324 O 0.75562 0.55969 0.62569 0.0
O325 O 0.7857 0.48469 0.63157 0.0
C326 C 0.64491 0.58605 0.64676 0.0
O327 O 0.75498 0.51284 0.56008 0.0
O328 O 0.74366 0.43533 0.57473 0.0
C329 C 0.64218 0.39656 0.60279 0.0
Fe330 Fe 1.01362 0.70579 0.5892 0.0
Fe331 Fe 0.10707 0.74632 0.62841 0.0
O332 O 0.0674 0.69634 0.6169 0.0
Fe333 Fe 0.083 0.63609 0.63193 0.0
O334 O 0.08712 0.61473 0.58342 0.0
O335 O 1.0164 0.64601 0.56511 0.0
O336 O 0.04923 0.73091 0.54952 0.0
C337 C 0.0796 0.76601 0.55194 0.0
C338 C 0.97749 0.63648 0.63825 0.0
O339 O 0.09505 0.78072 0.58413 0.0
C340 C 0.109 0.68555 0.69556 0.0
O341 O 1.0015 0.76709 0.60857 0.0
O342 O 0.05759 0.77944 0.65339 0.0
O343 O 1.01867 0.61443 0.63654 0.0
O344 O 0.97396 0.68053 0.62665 0.0
C345 C 0.17275 0.67413 0.60677 0.0
O346 O 0.12753 0.71968 0.67501 0.0
O347 O 0.08009 0.65436 0.6812 0.0
C348 C 1.0166 0.79027 0.63773 0.0
O349 O 0.15753 0.71762 0.60232 0.0
O350 O 0.15014 0.64571 0.6295 0.0
C351 C 0.05141 0.61576 0.56065 0.0
C352 C 0.61498 0.13132 0.2424 0.0
C353 C 0.66487 0.1368 0.2318 0.0
C354 C 0.5965 0.15171 0.27607 0.0
C355 C 0.62696 0.17824 0.30119 0.0
H356 H 0.58959 0.11063 0.2247 0.0
H357 H 0.55811 0.14495 0.28317 0.0
S358 S 0.75956 0.20675 0.28575 0.0
N359 N 0.74386 0.17396 0.24788 0.0
N360 N 0.70913 0.21155 0.31218 0.0
C361 C 0.67644 0.18624 0.29031 0.0
C362 C 0.69538 0.16561 0.25547 0.0
C363 C 0.43103 0.61891 0.244 0.0
C364 C 0.42281 0.66782 0.23194 0.0
C365 C 0.40972 0.6001 0.27727 0.0
C366 C 0.3795 0.62922 0.30079 0.0
H367 H 0.45443 0.59434 0.22767 0.0
H368 H 0.41854 0.56253 0.28529 0.0
S369 S 0.34289 0.75866 0.2813 0.0
N370 N 0.3792 0.74422 0.24496 0.0
N371 N 0.33996 0.70905 0.30873 0.0
C372 C 0.36901 0.67766 0.28858 0.0
C373 C 0.39055 0.6969 0.254 0.0
C374 C 0.89729 0.3599 0.28152 0.0
C375 C 0.91846 0.39241 0.3082 0.0
C376 C 0.87781 0.3776 0.24665 0.0
C377 C 0.8778 0.42834 0.23801 0.0
H378 H 0.89832 0.32054 0.28663 0.0
H379 H 0.8657 0.35131 0.22536 0.0
S380 S 0.92172 0.5291 0.30039 0.0
N381 N 0.9327 0.47838 0.32509 0.0
N382 N 0.89635 0.51074 0.25996 0.0
C383 C 0.89548 0.46116 0.26556 0.0
C384 C 0.91565 0.44345 0.30059 0.0
C385 C 0.13298 0.88443 0.29987 0.0
C386 C 0.17109 0.91949 0.3041 0.0
C387 C 0.1196 0.86658 0.26379 0.0
C388 C 0.14352 0.88384 0.23086 0.0
H389 H 0.11186 0.8723 0.32454 0.0
H390 H 0.08808 0.84218 0.26144 0.0
S391 S 0.24923 0.97072 0.22672 0.0
N392 N 0.23578 0.9666 0.27277 0.0
N393 N 0.20995 0.93398 0.20459 0.0
C394 C 0.18389 0.91615 0.23489 0.0
C395 C 0.19798 0.93372 0.27169 0.0
C396 C 0.42865 0.95733 0.78119 0.0
C397 C 0.39186 0.93264 0.80224 0.0
C398 C 0.44724 0.93832 0.74713 0.0
C399 C 0.42957 0.89381 0.73161 0.0
H400 H 0.44431 0.9916 0.79142 0.0
H401 H 0.47583 0.95937 0.7328 0.0
S402 S 0.33162 0.81515 0.77434 0.0
N403 N 0.33738 0.86132 0.80474 0.0
N404 N 0.37162 0.82598 0.73956 0.0
C405 C 0.39185 0.86895 0.75173 0.0
C406 C 0.37305 0.88832 0.78711 0.0
C407 C 0.63124 0.44833 0.79254 0.0
C408 C 0.63524 0.39926 0.80564 0.0
C409 C 0.64938 0.46275 0.75688 0.0
C410 C 0.67278 0.42904 0.7327 0.0
H411 H 0.61297 0.47611 0.80966 0.0
H412 H 0.6434 0.50039 0.74751 0.0
S413 S 0.69349 0.29651 0.75234 0.0
N414 N 0.66535 0.3169 0.79122 0.0
N415 N 0.69916 0.34448 0.72341 0.0
C416 C 0.67802 0.38008 0.74518 0.0
C417 C 0.65922 0.36505 0.78179 0.0
C418 C 0.11105 0.63071 0.79424 0.0
C419 C 0.16083 0.63417 0.80597 0.0
C420 C 0.0947 0.65056 0.75979 0.0
C421 C 0.12708 0.67477 0.73473 0.0
H422 H 0.08381 0.61182 0.81165 0.0
H423 H 0.05623 0.64556 0.75219 0.0
S424 S 0.26095 0.69531 0.75097 0.0
N425 N 0.24244 0.66528 0.78967 0.0
N426 N 0.21156 0.70203 0.72373 0.0
C427 C 0.17688 0.67971 0.7459 0.0
C428 C 0.19381 0.65933 0.7816 0.0
C429 C 0.95225 0.13014 0.78609 0.0
C430 C 0.93047 0.17057 0.80481 0.0
C431 C 0.93216 0.11022 0.75296 0.0
C432 C 0.88969 0.13022 0.7358 0.0
H433 H 0.98508 0.11262 0.7974 0.0
H434 H 0.95105 0.07898 0.74048 0.0
S435 S 0.81863 0.23736 0.77215 0.0
N436 N 0.8637 0.23043 0.8035 0.0
N437 N 0.82661 0.19386 0.73973 0.0
C438 C 0.86755 0.17124 0.75363 0.0
C439 C 0.88784 0.19129 0.78825 0.0
C440 C 0.56744 0.98899 0.02866 0.0
C441 C 0.58593 0.03695 0.03323 0.0
C442 C 0.5218 0.98103 1.01114 0.0
C443 C 0.49311 1.02079 0.99803 0.0
H444 H 0.58727 0.95759 0.04008 0.0
H445 H 0.50865 0.94352 1.0081 0.0
S446 S 0.52814 0.153 0.99952 0.0
N447 N 0.57448 0.12432 0.02055 0.0
N448 N 0.48827 0.10949 0.98804 0.0
C449 C 0.51195 0.06882 1.00143 0.0
C450 C 0.55861 0.07683 0.01879 0.0
C451 C 0.47454 0.5377 0.03212 0.0
C452 C 0.51508 0.56687 0.043 0.0
C453 C 0.48145 0.49037 1.01771 0.0
C454 C 0.52904 0.47075 1.01414 0.0
H455 H 0.4373 0.55207 0.03393 0.0
H456 H 0.44985 0.47057 1.00654 0.0
S457 S 0.64669 0.5296 0.04217 0.0
N458 N 0.60409 0.57111 0.05204 0.0
N459 N 0.6168 0.48168 0.02462 0.0
C460 C 0.56955 0.49824 0.02678 0.0
C461 C 0.5627 0.54665 0.04105 0.0
C462 C 0.07813 0.55116 0.03215 0.0
C463 C 0.0817 0.51428 1.00441 0.0
C464 C 0.03367 0.55886 0.05144 0.0
C465 C 0.99159 0.53033 0.0431 0.0
H466 H 0.10891 0.57572 0.03752 0.0
H467 H 0.03209 0.58723 0.07319 0.0
S468 S 0.98354 0.42703 0.97463 0.0
N469 N 0.04081 0.44739 0.97064 0.0
N470 N 0.95699 0.46209 1.0073 0.0
C471 C 0.99503 0.49273 1.01604 0.0
C472 C 0.04033 0.48448 0.99673 0.0
C473 C 0.97427 0.04626 1.01474 0.0
C474 C 1.01613 0.0697 0.99926 0.0
C475 C 0.97785 0.99972 0.03154 0.0
C476 C 1.02313 0.97483 0.03259 0.0
H477 H 0.93859 0.06432 1.01418 0.0
H478 H 0.94564 0.98422 0.04559 0.0
S479 S 0.14253 1.01807 0.99313 0.0
N480 N 0.10351 0.06323 0.98376 0.0
N481 N 0.11012 0.9754 1.01581 0.0
C482 C 0.06485 0.99695 1.01611 0.0
C483 C 0.06143 0.04462 0.99936 0.0
C484 C 0.05637 0.07676 0.50615 0.0
C485 C 0.07989 0.0308 0.50628 0.0
C486 C 1.0101 0.08249 0.52297 0.0
C487 C 0.98589 0.04236 0.54005 0.0
H488 H 0.07269 0.10777 0.49112 0.0
H489 H 0.99272 0.11832 0.52202 0.0
S490 S 0.03314 0.91465 0.54858 0.0
N491 N 0.07667 0.94464 0.52484 0.0
N492 N 0.98951 0.95555 0.55757 0.0
C493 C 1.00943 0.99629 0.54091 0.0
C494 C 0.0567 0.99054 0.52382 0.0
C495 C 0.57274 0.04011 0.50654 0.0
C496 C 0.53287 0.06921 0.49421 0.0
C497 C 0.56481 0.99454 0.52404 0.0
C498 C 0.51672 0.97649 0.52951 0.0
H499 H 0.6104 0.05274 0.50275 0.0
H500 H 0.59645 0.97432 0.53463 0.0
S501 S 0.40013 0.03582 0.4985 0.0
N502 N 0.4438 0.07526 0.48622 0.0
N503 N 0.42893 0.98902 0.5188 0.0
C504 C 0.47661 1.00437 0.51611 0.0
C505 C 0.48464 0.051 0.49868 0.0
C506 C 0.55844 0.58514 0.52965 0.0
C507 C 0.58293 0.53966 0.5299 0.0
C508 C 0.51274 0.59006 0.51173 0.0
C509 C 0.48986 0.54917 0.49478 0.0
H510 H 0.57357 0.6163 0.54505 0.0
H511 H 0.49464 0.62567 0.51188 0.0
S512 S 0.54148 0.42344 0.48536 0.0
N513 N 0.5834 0.45418 0.50993 0.0
N514 N 0.49659 0.46297 0.47661 0.0
C515 C 0.5148 0.5039 0.49388 0.0
C516 C 0.56175 0.49928 0.51138 0.0
C517 C 0.99531 0.55305 0.53401 0.0
C518 C 0.04334 0.5722 0.5371 0.0
C519 C 0.98688 0.50834 0.51578 0.0
C520 C 1.02606 0.48163 0.4998 0.0
H521 H 0.9641 0.57202 0.54662 0.0
H522 H 0.9494 0.4946 0.51396 0.0
S523 S 0.1584 0.51711 0.4989 0.0
N524 N 0.13052 0.56184 0.52249 0.0
N525 N 0.11445 0.47777 0.48714 0.0
C526 C 0.07434 0.50025 0.50268 0.0
C527 C 0.08299 0.54573 0.52151 0.0
C528 C 0.64252 0.88278 0.14212 0.0
C529 C 0.61855 0.92816 0.14824 0.0
C530 C 0.61622 0.8382 0.14142 0.0
C531 C 0.56482 0.8366 0.14743 0.0
H532 H 0.68159 0.8817 0.13553 0.0
H533 H 0.63605 0.80482 0.13424 0.0
S534 S 0.48494 0.94357 0.16983 0.0
N535 N 0.54052 0.96769 0.16436 0.0
N536 N 0.49151 0.8837 0.16331 0.0
C537 C 0.54085 0.88094 0.15664 0.0
C538 C 0.56757 0.92667 0.15696 0.0
C539 C 0.67326 0.63785 0.14429 0.0
C540 C 0.62802 0.61234 0.14379 0.0
C541 C 0.71865 0.61282 0.14357 0.0
C542 C 0.72133 0.56087 0.14202 0.0
H543 H 0.6738 0.67775 0.14372 0.0
H544 H 0.75201 0.63482 0.14264 0.0
S545 S 0.61378 0.47595 0.14383 0.0
N546 N 0.58896 0.53143 0.14491 0.0
N547 N 0.67409 0.48471 0.14304 0.0
C548 C 0.67645 0.5347 0.14387 0.0
C549 C 0.63 0.56027 0.14489 0.0
C550 C 0.94469 0.7232 0.16006 0.0
C551 C 0.99664 0.72356 0.15624 0.0
C552 C 0.91805 0.67905 0.16365 0.0
C553 C 0.94208 0.63328 0.16463 0.0
H554 H 0.92383 0.75709 0.15766 0.0
H555 H 0.87808 0.68054 0.16294 0.0
S556 S 0.07743 0.61324 0.16095 0.0
N557 N 0.0712 0.67361 0.15758 0.0
N558 N 1.02095 0.5909 0.16517 0.0
C559 C 0.99406 0.63311 0.16448 0.0
C560 C 1.02137 0.67813 0.16016 0.0
C561 C 0.88438 0.91733 0.16197 0.0
C562 C 0.93003 0.94174 0.16504 0.0
C563 C 0.83983 0.94353 0.16088 0.0
C564 C 0.83895 0.99529 0.16284 0.0
H565 H 0.88334 0.87792 0.15714 0.0
H566 H 0.80606 0.92332 0.15537 0.0
S567 S 0.94772 0.0765 0.17571 0.0
N568 N 0.97125 1.02041 0.17398 0.0
N569 N 0.88729 0.06971 0.172 0.0
C570 C 0.88381 1.0199 0.16969 0.0
C571 C 0.92945 0.99308 0.17079 0.0
C572 C 0.06436 0.13009 0.37643 0.0
C573 C 0.11607 0.13051 0.38151 0.0
C574 C 0.0365 0.17405 0.37818 0.0
C575 C 0.05962 0.21968 0.38493 0.0
H576 H 0.04487 0.09534 0.37446 0.0
H577 H 0.99659 0.17171 0.37752 0.0
S578 S 0.19447 0.24113 0.393 0.0
N579 N 0.18927 0.18086 0.38853 0.0
N580 N 0.13768 0.26298 0.39107 0.0
C581 C 0.11155 0.22071 0.38627 0.0
C582 C 0.13958 0.17628 0.38479 0.0
C583 C 0.42565 0.06097 0.39222 0.0
C584 C 0.42681 0.11255 0.38661 0.0
C585 C 0.3808 0.03472 0.39359 0.0
C586 C 0.33523 0.05891 0.38924 0.0
H587 H 0.45939 0.04101 0.39818 0.0
H588 H 0.38182 0.99587 0.40067 0.0
S589 S 0.31852 0.19138 0.36553 0.0
N590 N 0.37871 0.18518 0.37092 0.0
N591 N 0.29477 0.13613 0.37293 0.0
C592 C 0.33625 0.1096 0.38013 0.0
C593 C 0.38183 0.1363 0.37897 0.0
C594 C 0.49209 0.42987 0.38612 0.0
C595 C 0.44004 0.43192 0.38891 0.0
C596 C 0.51749 0.38451 0.38509 0.0
C597 C 0.4918 0.33949 0.38667 0.0
H598 H 0.51371 0.4634 0.3874 0.0
H599 H 0.55746 0.3848 0.38607 0.0
S600 S 0.35589 0.32393 0.38571 0.0
N601 N 0.36407 0.38418 0.3868 0.0
N602 N 0.41171 0.29966 0.38547 0.0
C603 C 0.43996 0.34105 0.38594 0.0
C604 C 0.41413 0.38698 0.38684 0.0
C605 C 0.13458 0.48266 0.37688 0.0
C606 C 0.13245 0.43348 0.39031 0.0
C607 C 0.17887 0.51009 0.37765 0.0
C608 C 0.22264 0.48947 0.39213 0.0
H609 H 0.10122 0.50103 0.36753 0.0
H610 H 0.17794 0.54853 0.36931 0.0
S611 S 0.23862 0.36132 0.42743 0.0
N612 N 0.17982 0.36474 0.41571 0.0
N613 N 0.26211 0.41574 0.41698 0.0
C614 C 0.22172 0.43949 0.40312 0.0
C615 C 0.17698 0.41165 0.40224 0.0
C616 C 0.50114 0.13379 0.89343 0.0
C617 C 0.44918 0.13129 0.89039 0.0
C618 C 0.5264 0.17923 0.89301 0.0
C619 C 0.50085 0.22417 0.88934 0.0
H620 H 0.52236 0.10066 0.89862 0.0
H621 H 0.56582 0.17917 0.89813 0.0
S622 S 0.36586 0.23737 0.87308 0.0
N623 N 0.37409 0.17753 0.87837 0.0
N624 N 0.42115 0.26243 0.87715 0.0
C625 C 0.44941 0.22177 0.88302 0.0
C626 C 0.42374 0.1756 0.88367 0.0
C627 C 0.38568 0.52617 0.89181 0.0
C628 C 0.34027 0.5017 0.88678 0.0
C629 C 0.43071 0.49998 0.89137 0.0
C630 C 0.43182 0.44848 0.88609 0.0
H631 H 0.38626 0.56492 0.89911 0.0
H632 H 0.46443 0.51955 0.89819 0.0
S633 S 0.32455 0.36859 0.8651 0.0
N634 N 0.30052 0.42397 0.87061 0.0
N635 N 0.38459 0.37525 0.87141 0.0
C636 C 0.3873 0.42445 0.8781 0.0
C637 C 0.34175 0.45097 0.87786 0.0
C638 C 0.12028 0.33271 0.88984 0.0
C639 C 0.0687 0.33299 0.88505 0.0
C640 C 0.14823 0.37596 0.88631 0.0
C641 C 0.12578 0.42144 0.87802 0.0
H642 H 0.13889 0.2993 0.89879 0.0
H643 H 0.18722 0.37445 0.89313 0.0
S644 S 0.99254 0.44113 0.85851 0.0
N645 N 0.99686 0.38159 0.86775 0.0
N646 N 0.04926 0.46316 0.86137 0.0
C647 C 0.07484 0.42148 0.86971 0.0
C648 C 0.04629 0.37717 0.87323 0.0
C649 C 0.22173 0.11623 0.89304 0.0
C650 C 0.22444 0.06472 0.88909 0.0
C651 C 0.17624 0.14093 0.8936 0.0
C652 C 0.13118 0.11516 0.89085 0.0
H653 H 0.25509 0.13744 0.89771 0.0
H654 H 0.17652 0.18034 0.89838 0.0
S655 S 0.11832 0.97996 0.87693 0.0
N656 N 0.1785 0.98899 0.87959 0.0
N657 N 0.09284 0.03496 0.88082 0.0
C658 C 0.13357 0.06383 0.88435 0.0
C659 C 0.18017 0.03875 0.88345 0.0
C660 C 0.91257 0.88357 0.63908 0.0
C661 C 0.93686 0.92838 0.64658 0.0
C662 C 0.93807 0.83854 0.63951 0.0
C663 C 0.98898 0.83599 0.64776 0.0
H664 H 0.87409 0.88334 0.63068 0.0
H665 H 0.91817 0.80558 0.63132 0.0
S666 S 0.06889 0.94137 0.67424 0.0
N667 N 1.01425 0.96637 0.66655 0.0
N668 N 0.06173 0.88171 0.66707 0.0
C669 C 1.01294 0.8798 0.65828 0.0
C670 C 0.98703 0.9259 0.65772 0.0
C671 C 0.6283 0.99613 0.64616 0.0
C672 C 0.62847 0.94402 0.64473 0.0
C673 C 0.6725 1.02347 0.64848 0.0
C674 C 0.71855 0.99976 0.6497 0.0
H675 H 0.59403 1.01625 0.64308 0.0
H676 H 0.67074 0.06324 0.64627 0.0
S677 S 0.73998 0.86516 0.65295 0.0
N678 N 0.67941 0.87048 0.64961 0.0
N679 N 0.76176 0.9219 0.65352 0.0
C680 C 0.71912 0.94809 0.65131 0.0
C681 C 0.67436 0.92022 0.649 0.0
C682 C 0.54342 0.67883 0.66538 0.0
C683 C 0.56764 0.72337 0.65637 0.0
C684 C 0.56967 0.63391 0.66685 0.0
C685 C 0.62088 0.63235 0.65952 0.0
H686 H 0.50356 0.67795 0.66777 0.0
H687 H 0.54906 0.59995 0.67013 0.0
S688 S 0.70236 0.73956 0.64191 0.0
N689 N 0.64654 0.76353 0.64547 0.0
N690 N 0.69541 0.67982 0.64872 0.0
C691 C 0.64586 0.67721 0.65463 0.0
C692 C 0.61936 0.72252 0.65288 0.0
C693 C 0.88644 0.63115 0.65204 0.0
C694 C 0.93144 0.6071 0.64478 0.0
C695 C 0.84139 0.60545 0.65177 0.0
C696 C 0.83904 0.55449 0.64386 0.0
H697 H 0.88573 0.6706 0.65659 0.0
H698 H 0.8078 0.62635 0.65612 0.0
S699 S 0.94652 0.47328 0.62507 0.0
N700 N 0.971 0.52829 0.63168 0.0
N701 N 0.88645 0.48049 0.63063 0.0
C702 C 0.88398 0.52941 0.63859 0.0
C703 C 0.93003 0.55554 0.63913 0.0
C704 C 0.61286 0.22894 0.07769 0.0
C705 C 0.65753 0.20288 0.07294 0.0
C706 C 0.59255 0.25742 0.04766 0.0
C707 C 0.61587 0.26033 1.01163 0.0
H708 H 0.59346 0.22734 0.1048 0.0
H709 H 0.55869 0.27754 0.05279 0.0
S710 S 0.72913 0.19313 0.98245 0.0
N711 N 0.7217 0.17893 0.028 0.0
N712 N 0.68324 0.23053 0.97198 0.0
C713 C 0.6595 0.23306 1.00626 0.0
C714 C 0.68039 0.20492 0.03674 0.0
C715 C 0.29527 0.66103 0.02289 0.0
C716 C 0.29021 0.60978 1.01741 0.0
C717 C 0.32322 0.68046 0.05313 0.0
C718 C 0.34754 0.64975 0.07962 0.0
H719 H 0.27841 0.68674 1.0031 0.0
H720 H 0.32702 0.7201 0.05492 0.0
S721 S 0.34305 0.51283 0.08041 0.0
N722 N 0.30967 0.52861 0.04286 0.0
N723 N 0.36187 0.565 0.09968 0.0
C724 C 0.34088 0.5984 0.07569 0.0
C725 C 0.31245 0.57852 0.04468 0.0
C726 C 0.90156 0.32938 0.06433 0.0
C727 C 0.936 0.36047 0.08238 0.0
C728 C 0.91525 0.29906 0.03347 0.0
C729 C 0.96448 0.29646 0.02082 0.0
H730 H 0.86316 0.33027 0.07282 0.0
H731 H 0.88685 0.27822 0.01901 0.0
S732 S 0.07012 0.36675 0.05988 0.0
N733 N 1.02246 0.38497 0.08575 0.0
N734 N 0.04828 0.32552 0.02962 0.0
C735 C 0.9999 0.32492 0.03993 0.0
C736 C 0.98573 0.35729 0.07035 0.0
C737 C 0.25439 0.90897 0.02103 0.0
C738 C 0.26909 0.95864 0.01867 0.0
C739 C 0.22348 0.8922 0.05058 0.0
C740 C 0.20451 0.92489 0.07798 0.0
H741 H 0.26571 0.88309 0.9992 0.0
H742 H 0.21175 0.85408 0.05045 0.0
S743 S 0.23272 0.05822 0.08528 0.0
N744 N 0.26455 0.03976 0.04757 0.0
N745 N 0.20405 1.00884 0.10189 0.0
C746 C 0.22003 0.97434 0.07666 0.0
C747 C 0.25293 0.99108 0.0473 0.0
C748 C 0.16186 0.83602 0.48306 0.0
C749 C 0.12889 0.85267 0.45496 0.0
C750 C 0.14565 0.80715 0.5139 0.0
C751 C 0.09604 0.79243 0.51712 0.0
H752 H 0.19962 0.84852 0.48284 0.0
H753 H 0.1719 0.79754 0.53602 0.0
S754 S 0.99519 0.82418 0.44999 0.0
N755 N 0.04441 0.85167 0.43181 0.0
N756 N 1.01431 0.79487 0.48872 0.0
C757 C 0.06308 0.80649 0.4881 0.0
C758 C 0.07939 0.83728 0.45729 0.0
C759 C 0.77447 0.10789 0.48361 0.0
C760 C 0.75726 0.10781 0.5218 0.0
C761 C 0.74551 0.12751 0.45355 0.0
C762 C 0.69871 0.148 0.46086 0.0
H763 H 0.81093 0.09387 0.47706 0.0
H764 H 0.76024 0.12777 0.42471 0.0
S765 S 0.63392 0.15126 0.55447 0.0
N766 N 0.68778 0.12582 0.56395 0.0
N767 N 0.63501 0.16321 0.50819 0.0
C768 C 0.68057 0.14637 0.49849 0.0
C769 C 0.70938 0.1262 0.52875 0.0
C770 C 0.41367 0.72486 0.5272 0.0
C771 C 0.45404 0.75674 0.52124 0.0
C772 C 0.39093 0.70015 0.49681 0.0
C773 C 0.40776 0.70525 0.45886 0.0
H774 H 0.39871 0.7193 0.55566 0.0
H775 H 0.36033 0.67591 0.50341 0.0
S776 S 0.51336 0.78223 0.42723 0.0
N777 N 0.51044 0.79138 0.47392 0.0
N778 N 0.46839 0.7433 0.41698 0.0
C779 C 0.44868 0.73604 0.45231 0.0
C780 C 0.47151 0.76219 0.48334 0.0
C781 C 0.81227 0.38402 0.47508 0.0
C782 C 0.84723 0.41404 0.4565 0.0
C783 C 0.78188 0.40269 0.50417 0.0
C784 C 0.7857 0.45183 0.51659 0.0
H785 H 0.80965 0.34521 0.46821 0.0
H786 H 0.75637 0.3778 0.51806 0.0
S787 S 0.86545 0.54812 0.47289 0.0
N788 N 0.87899 0.49752 0.44898 0.0
N789 N 0.82298 0.53192 0.50445 0.0
C790 C 0.81771 0.48331 0.49621 0.0
C791 C 0.8482 0.46453 0.46605 0.0
C792 C 0.40302 0.80595 1.01763 0.0
C793 C 0.4526 0.79088 1.01733 0.0
C794 C 0.38321 0.83401 0.98773 0.0
C795 C 0.41238 0.84948 0.95647 0.0
H796 H 0.37938 0.79679 0.04168 0.0
H797 H 0.34517 0.84561 0.99027 0.0
S798 S 0.54418 0.81718 0.94103 0.0
N799 N 0.52997 0.79054 0.98217 0.0
N800 N 0.49335 0.84487 0.92626 0.0
C801 C 0.46175 0.83297 0.95507 0.0
C802 C 0.48169 0.80334 0.98539 0.0
C803 C 0.71957 0.47559 0.96759 0.0
C804 C 0.71121 0.42561 0.95893 0.0
C805 C 0.7529 0.48982 0.9963 0.0
C806 C 0.77852 0.45461 0.01826 0.0
H807 H 0.69841 0.504 0.95325 0.0
H808 H 0.7563 0.52867 1.00274 0.0
S809 S 0.77465 0.31906 1.00351 0.0
N810 N 0.7354 0.3411 0.97172 0.0
N811 N 0.79706 0.36745 0.02608 0.0
C812 C 0.77297 0.40462 1.00801 0.0
C813 C 0.73964 0.39023 0.97828 0.0
C814 C 0.14381 0.76109 1.00684 0.0
C815 C 0.09613 0.75995 0.02312 0.0
C816 C 0.15767 0.72841 0.97755 0.0
C817 C 0.12462 0.69269 0.96357 0.0
H818 H 0.1711 0.78686 1.01731 0.0
H819 H 0.1953 0.72977 0.96705 0.0
S820 S 0.99468 0.67514 0.99555 0.0
N821 N 1.0153 0.721 0.022 0.0
N822 N 0.04108 0.65965 0.9674 0.0
C823 C 0.07627 0.69219 0.97879 0.0
C824 C 0.06211 0.72573 1.00837 0.0
C825 C 0.83814 0.14122 0.03112 0.0
C826 C 0.80687 0.10043 0.02536 0.0
C827 C 0.86295 0.16385 1.00071 0.0
C828 C 0.85819 0.14682 0.96295 0.0
H829 H 0.84321 0.15657 0.05943 0.0
H830 H 0.8873 0.19427 1.00714 0.0
S831 S 0.78318 0.03993 0.93194 0.0
N832 N 0.77358 0.04301 0.97859 0.0
N833 N 0.82154 0.08536 0.92139 0.0
C834 C 0.8282 0.10535 0.95658 0.0
C835 C 0.80217 0.08236 0.98771 0.0
C836 C 0.98017 0.22777 0.53746 0.0
C837 C 0.95395 0.26796 0.52252 0.0
C838 C 0.9615 0.20056 0.56859 0.0
C839 C 0.91497 0.21124 0.58478 0.0
H840 H 1.01462 0.21647 0.52436 0.0
H841 H 0.9827 0.16946 0.57871 0.0
S842 S 0.83999 0.32163 0.5633 0.0
N843 N 0.88532 0.32396 0.53165 0.0
N844 N 0.84859 0.27086 0.58856 0.0
C845 C 0.8906 0.25382 0.57206 0.0
C846 C 0.91044 0.28251 0.5412 0.0
C847 C 0.33412 0.95052 0.5751 0.0
C848 C 0.34875 0.90057 0.57584 0.0
C849 C 0.30512 0.96979 0.54503 0.0
C850 C 0.29031 0.94023 0.514 0.0
H851 H 0.34628 0.97535 0.59736 0.0
H852 H 0.29534 1.00847 0.54568 0.0
S853 S 0.3175 0.80647 0.50265 0.0
N854 N 0.3433 0.82142 0.54366 0.0
N855 N 0.29273 0.85779 0.48647 0.0
C856 C 0.30411 0.88997 0.51487 0.0
C857 C 0.33218 0.87019 0.54589 0.0
C858 C 0.57384 0.3515 0.56926 0.0
C859 C 0.62426 0.35447 0.57931 0.0
C860 C 0.55736 0.31951 0.54037 0.0
C861 C 0.59095 0.2906 0.51971 0.0
H862 H 0.54716 0.37576 0.58257 0.0
H863 H 0.51873 0.31996 0.5324 0.0
S864 S 0.72466 0.27773 0.53856 0.0
N865 N 0.70597 0.31912 0.56999 0.0
N866 N 0.67544 0.26277 0.51351 0.0
C867 C 0.64065 0.29092 0.53086 0.0
C868 C 0.65718 0.32178 0.56131 0.0
C869 C 0.22395 0.68135 0.54736 0.0
C870 C 0.21102 0.65409 0.58025 0.0
C871 C 0.25165 0.66041 0.51772 0.0
C872 C 0.26877 0.61162 0.5199 0.0
H873 H 0.21052 0.71851 0.5434 0.0
H874 H 0.25893 0.68247 0.49242 0.0
S875 S 0.24971 0.52546 0.60099 0.0
N876 N 0.22051 0.5761 0.61408 0.0
N877 N 0.27399 0.53745 0.55857 0.0
C878 C 0.25902 0.58473 0.55346 0.0
C879 C 0.22982 0.60577 0.58354 0.0
loop_
_geom_bond_atom_site_label_1
_geom_bond_atom_site_label_2
_geom_bond_distance
_geom_bond_site_symmetry_2
_ccdc_geom_bond_type
Fe0 O2 1.918 1_565 S
Fe0 O5 1.997 1_565 S
Fe0 O6 2.002 . S
Fe0 O11 1.976 . S
Fe0 O14 1.996 . S
Fe1 O2 1.918 . S
Fe1 O9 1.997 . S
Fe1 O12 1.996 1_545 S
Fe1 O16 1.976 . S
Fe1 O19 2.002 . S
O2 Fe0 1.918 1_545 S
O2 Fe1 1.918 . S
O2 Fe3 1.918 . S
Fe3 O2 1.918 . S
Fe3 O4 2.002 . S
Fe3 O13 1.976 . S
Fe3 O17 1.996 . S
Fe3 O20 1.997 . S
O4 Fe3 2.002 . S
O4 C21 1.295 . S
O5 Fe0 1.997 1_545 S
O5 C21 1.235 . S
O6 Fe0 2.002 . S
O6 C7 1.295 1_565 S
C7 O6 1.295 1_545 S
C7 O9 1.235 . S
C8 O13 1.287 1_565 S
C8 O14 1.255 . S
O9 Fe1 1.997 . S
O9 C7 1.235 . S
C10 O16 1.287 . S
C10 O17 1.255 . S
O11 Fe0 1.976 . S
O11 C18 1.287 . S
O12 Fe1 1.996 1_565 S
O12 C18 1.255 . S
O13 Fe3 1.976 . S
O13 C8 1.287 1_545 S
O14 Fe0 1.996 . S
O14 C8 1.255 . S
C15 O19 1.295 . S
C15 O20 1.235 . S
O16 Fe1 1.976 . S
O16 C10 1.287 . S
O17 Fe3 1.996 . S
O17 C10 1.255 . S
C18 O11 1.287 . S
C18 O12 1.255 . S
O19 Fe1 2.002 . S
O19 C15 1.295 . S
O20 Fe3 1.997 . S
O20 C15 1.235 . S
C21 O4 1.295 . S
C21 O5 1.235 . S
Fe22 O24 1.918 . S
Fe22 O27 1.997 . S
Fe22 O28 2.002 . S
Fe22 O33 1.976 . S
Fe22 O36 1.996 . S
Fe23 O24 1.918 . S
Fe23 O31 1.997 . S
Fe23 O34 1.996 . S
Fe23 O38 1.976 . S
Fe23 O41 2.002 . S
O24 Fe22 1.918 . S
O24 Fe23 1.918 . S
O24 Fe25 1.918 . S
Fe25 O24 1.918 . S
Fe25 O26 2.002 . S
Fe25 O35 1.976 . S
Fe25 O39 1.996 . S
Fe25 O42 1.997 . S
O26 Fe25 2.002 . S
O26 C43 1.295 . S
O27 Fe22 1.997 . S
O27 C43 1.235 . S
O28 Fe22 2.002 . S
O28 C29 1.295 . S
C29 O28 1.295 . S
C29 O31 1.235 . S
C30 O35 1.287 . S
C30 O36 1.255 . S
O31 Fe23 1.997 . S
O31 C29 1.235 . S
C32 O38 1.287 . S
C32 O39 1.255 . S
O33 Fe22 1.976 . S
O33 C40 1.287 . S
O34 Fe23 1.996 . S
O34 C40 1.255 . S
O35 Fe25 1.976 . S
O35 C30 1.287 . S
O36 Fe22 1.996 . S
O36 C30 1.255 . S
C37 O41 1.295 . S
C37 O42 1.235 . S
O38 Fe23 1.976 . S
O38 C32 1.287 . S
O39 Fe25 1.996 . S
O39 C32 1.255 . S
C40 O33 1.287 . S
C40 O34 1.255 . S
O41 Fe23 2.002 . S
O41 C37 1.295 . S
O42 Fe25 1.997 . S
O42 C37 1.235 . S
C43 O26 1.295 . S
C43 O27 1.235 . S
Fe44 O46 1.918 . S
Fe44 O49 1.997 . S
Fe44 O50 2.002 . S
Fe44 O55 1.976 . S
Fe44 O58 1.996 . S
Fe45 O46 1.918 . S
Fe45 O53 1.997 . S
Fe45 O56 1.996 . S
Fe45 O60 1.976 . S
Fe45 O63 2.002 . S
O46 Fe44 1.918 . S
O46 Fe45 1.918 . S
O46 Fe47 1.918 . S
Fe47 O46 1.918 . S
Fe47 O48 2.002 . S
Fe47 O57 1.976 . S
Fe47 O61 1.996 . S
Fe47 O64 1.997 . S
O48 Fe47 2.002 . S
O48 C65 1.295 . S
O49 Fe44 1.997 . S
O49 C65 1.235 . S
O50 Fe44 2.002 . S
O50 C51 1.295 . S
C51 O50 1.295 . S
C51 O53 1.235 . S
C52 O57 1.287 . S
C52 O58 1.255 . S
O53 Fe45 1.997 . S
O53 C51 1.235 . S
C54 O60 1.287 . S
C54 O61 1.255 . S
O55 Fe44 1.976 . S
O55 C62 1.287 . S
O56 Fe45 1.996 . S
O56 C62 1.255 . S
O57 Fe47 1.976 . S
O57 C52 1.287 . S
O58 Fe44 1.996 . S
O58 C52 1.255 . S
C59 O63 1.295 . S
C59 O64 1.235 . S
O60 Fe45 1.976 . S
O60 C54 1.287 . S
O61 Fe47 1.996 . S
O61 C54 1.255 . S
C62 O55 1.287 . S
C62 O56 1.255 . S
O63 Fe45 2.002 . S
O63 C59 1.295 . S
O64 Fe47 1.997 . S
O64 C59 1.235 . S
C65 O48 1.295 . S
C65 O49 1.235 . S
Fe66 O68 1.918 1_655 S
Fe66 O71 1.997 1_655 S
Fe66 O72 2.002 . S
Fe66 O77 1.976 . S
Fe66 O80 1.996 . S
Fe67 O68 1.918 . S
Fe67 O75 1.997 . S
Fe67 O78 1.996 1_455 S
Fe67 O82 1.976 . S
Fe67 O85 2.002 . S
O68 Fe66 1.918 1_455 S
O68 Fe67 1.918 . S
O68 Fe69 1.918 . S
Fe69 O68 1.918 . S
Fe69 O70 2.002 . S
Fe69 O79 1.976 . S
Fe69 O83 1.996 . S
Fe69 O86 1.997 . S
O70 Fe69 2.002 . S
O70 C87 1.295 . S
O71 Fe66 1.997 1_455 S
O71 C87 1.235 . S
O72 Fe66 2.002 . S
O72 C73 1.295 1_655 S
C73 O72 1.295 1_455 S
C73 O75 1.235 . S
C74 O79 1.287 1_655 S
C74 O80 1.255 . S
O75 Fe67 1.997 . S
O75 C73 1.235 . S
C76 O82 1.287 . S
C76 O83 1.255 . S
O77 Fe66 1.976 . S
O77 C84 1.287 . S
O78 Fe67 1.996 1_655 S
O78 C84 1.255 . S
O79 Fe69 1.976 . S
O79 C74 1.287 1_455 S
O80 Fe66 1.996 . S
O80 C74 1.255 . S
C81 O85 1.295 . S
C81 O86 1.235 . S
O82 Fe67 1.976 . S
O82 C76 1.287 . S
O83 Fe69 1.996 . S
O83 C76 1.255 . S
C84 O77 1.287 . S
C84 O78 1.255 . S
O85 Fe67 2.002 . S
O85 C81 1.295 . S
O86 Fe69 1.997 . S
O86 C81 1.235 . S
C87 O70 1.295 . S
C87 O71 1.235 . S
Fe88 O90 1.918 1_545 S
Fe88 O93 1.997 1_545 S
Fe88 O94 2.002 . S
Fe88 O99 1.976 . S
Fe88 O102 1.996 . S
Fe89 O90 1.918 . S
Fe89 O97 1.997 . S
Fe89 O100 1.996 1_565 S
Fe89 O104 1.976 . S
Fe89 O107 2.002 . S
O90 Fe88 1.918 1_565 S
O90 Fe89 1.918 . S
O90 Fe91 1.918 . S
Fe91 O90 1.918 . S
Fe91 O92 2.002 . S
Fe91 O101 1.976 . S
Fe91 O105 1.996 . S
Fe91 O108 1.997 . S
O92 Fe91 2.002 . S
O92 C109 1.295 . S
O93 Fe88 1.997 1_565 S
O93 C109 1.235 . S
O94 Fe88 2.002 . S
O94 C95 1.295 1_545 S
C95 O94 1.295 1_565 S
C95 O97 1.235 . S
C96 O101 1.287 1_545 S
C96 O102 1.255 . S
O97 Fe89 1.997 . S
O97 C95 1.235 . S
C98 O104 1.287 . S
C98 O105 1.255 . S
O99 Fe88 1.976 . S
O99 C106 1.287 . S
O100 Fe89 1.996 1_545 S
O100 C106 1.255 . S
O101 Fe91 1.976 . S
O101 C96 1.287 1_565 S
O102 Fe88 1.996 . S
O102 C96 1.255 . S
C103 O107 1.295 . S
C103 O108 1.235 . S
O104 Fe89 1.976 . S
O104 C98 1.287 . S
O105 Fe91 1.996 . S
O105 C98 1.255 . S
C106 O99 1.287 . S
C106 O100 1.255 . S
O107 Fe89 2.002 . S
O107 C103 1.295 . S
O108 Fe91 1.997 . S
O108 C103 1.235 . S
C109 O92 1.295 . S
C109 O93 1.235 . S
Fe110 O112 1.918 . S
Fe110 O115 1.997 . S
Fe110 O116 2.002 . S
Fe110 O121 1.976 . S
Fe110 O124 1.996 . S
Fe111 O112 1.918 . S
Fe111 O119 1.997 . S
Fe111 O122 1.996 . S
Fe111 O126 1.976 . S
Fe111 O129 2.002 . S
O112 Fe110 1.918 . S
O112 Fe111 1.918 . S
O112 Fe113 1.918 . S
Fe113 O112 1.918 . S
Fe113 O114 2.002 . S
Fe113 O123 1.976 . S
Fe113 O127 1.996 . S
Fe113 O130 1.997 . S
O114 Fe113 2.002 . S
O114 C131 1.295 . S
O115 Fe110 1.997 . S
O115 C131 1.235 . S
O116 Fe110 2.002 . S
O116 C117 1.295 . S
C117 O116 1.295 . S
C117 O119 1.235 . S
C118 O123 1.287 . S
C118 O124 1.255 . S
O119 Fe111 1.997 . S
O119 C117 1.235 . S
C120 O126 1.287 . S
C120 O127 1.255 . S
O121 Fe110 1.976 . S
O121 C128 1.287 . S
O122 Fe111 1.996 . S
O122 C128 1.255 . S
O123 Fe113 1.976 . S
O123 C118 1.287 . S
O124 Fe110 1.996 . S
O124 C118 1.255 . S
C125 O129 1.295 . S
C125 O130 1.235 . S
O126 Fe111 1.976 . S
O126 C120 1.287 . S
O127 Fe113 1.996 . S
O127 C120 1.255 . S
C128 O121 1.287 . S
C128 O122 1.255 . S
O129 Fe111 2.002 . S
O129 C125 1.295 . S
O130 Fe113 1.997 . S
O130 C125 1.235 . S
C131 O114 1.295 . S
C131 O115 1.235 . S
Fe132 O134 1.918 . S
Fe132 O137 1.997 . S
Fe132 O138 2.002 . S
Fe132 O143 1.976 . S
Fe132 O146 1.996 . S
Fe133 O134 1.918 . S
Fe133 O141 1.997 . S
Fe133 O144 1.996 . S
Fe133 O148 1.976 . S
Fe133 O151 2.002 . S
O134 Fe132 1.918 . S
O134 Fe133 1.918 . S
O134 Fe135 1.918 . S
Fe135 O134 1.918 . S
Fe135 O136 2.002 . S
Fe135 O145 1.976 . S
Fe135 O149 1.996 . S
Fe135 O152 1.997 . S
O136 Fe135 2.002 . S
O136 C153 1.295 . S
O137 Fe132 1.997 . S
O137 C153 1.235 . S
O138 Fe132 2.002 . S
O138 C139 1.295 . S
C139 O138 1.295 . S
C139 O141 1.235 . S
C140 O145 1.287 . S
C140 O146 1.255 . S
O141 Fe133 1.997 . S
O141 C139 1.235 . S
C142 O148 1.287 . S
C142 O149 1.255 . S
O143 Fe132 1.976 . S
O143 C150 1.287 . S
O144 Fe133 1.996 . S
O144 C150 1.255 . S
O145 Fe135 1.976 . S
O145 C140 1.287 . S
O146 Fe132 1.996 . S
O146 C140 1.255 . S
C147 O151 1.295 . S
C147 O152 1.235 . S
O148 Fe133 1.976 . S
O148 C142 1.287 . S
O149 Fe135 1.996 . S
O149 C142 1.255 . S
C150 O143 1.287 . S
C150 O144 1.255 . S
O151 Fe133 2.002 . S
O151 C147 1.295 . S
O152 Fe135 1.997 . S
O152 C147 1.235 . S
C153 O136 1.295 . S
C153 O137 1.235 . S
Fe154 O156 1.918 . S
Fe154 O159 1.997 . S
Fe154 O160 2.002 . S
Fe154 O165 1.976 . S
Fe154 O168 1.996 1_655 S
Fe155 O156 1.918 . S
Fe155 O163 1.997 . S
Fe155 O166 1.996 . S
Fe155 O170 1.976 . S
Fe155 O173 2.002 . S
O156 Fe154 1.918 . S
O156 Fe155 1.918 . S
O156 Fe157 1.918 1_655 S
Fe157 O156 1.918 1_455 S
Fe157 O158 2.002 . S
Fe157 O167 1.976 . S
Fe157 O171 1.996 . S
Fe157 O174 1.997 1_455 S
O158 Fe157 2.002 . S
O158 C175 1.295 1_455 S
O159 Fe154 1.997 . S
O159 C175 1.235 . S
O160 Fe154 2.002 . S
O160 C161 1.295 . S
C161 O160 1.295 . S
C161 O163 1.235 . S
C162 O167 1.287 . S
C162 O168 1.255 . S
O163 Fe155 1.997 . S
O163 C161 1.235 . S
C164 O170 1.287 1_455 S
C164 O171 1.255 . S
O165 Fe154 1.976 . S
O165 C172 1.287 . S
O166 Fe155 1.996 . S
O166 C172 1.255 . S
O167 Fe157 1.976 . S
O167 C162 1.287 . S
O168 Fe154 1.996 1_455 S
O168 C162 1.255 . S
C169 O173 1.295 . S
C169 O174 1.235 . S
O170 Fe155 1.976 . S
O170 C164 1.287 1_655 S
O171 Fe157 1.996 . S
O171 C164 1.255 . S
C172 O165 1.287 . S
C172 O166 1.255 . S
O173 Fe155 2.002 . S
O173 C169 1.295 . S
O174 Fe157 1.997 1_655 S
O174 C169 1.235 . S
C175 O158 1.295 1_655 S
C175 O159 1.235 . S
Fe176 O178 1.918 . S
Fe176 O181 1.997 . S
Fe176 O182 2.002 . S
Fe176 O187 1.976 . S
Fe176 O190 1.996 . S
Fe177 O178 1.918 . S
Fe177 O185 1.997 . S
Fe177 O188 1.996 . S
Fe177 O192 1.976 1_565 S
Fe177 O195 2.002 . S
O178 Fe176 1.918 . S
O178 Fe177 1.918 . S
O178 Fe179 1.918 1_565 S
Fe179 O178 1.918 1_545 S
Fe179 O180 2.002 1_545 S
Fe179 O189 1.976 . S
Fe179 O193 1.996 . S
Fe179 O196 1.997 . S
O180 Fe179 2.002 1_565 S
O180 C197 1.295 . S
O181 Fe176 1.997 . S
O181 C197 1.235 . S
O182 Fe176 2.002 . S
O182 C183 1.295 . S
C183 O182 1.295 . S
C183 O185 1.235 . S
C184 O189 1.287 . S
C184 O190 1.255 1_545 S
O185 Fe177 1.997 . S
O185 C183 1.235 . S
C186 O192 1.287 . S
C186 O193 1.255 . S
O187 Fe176 1.976 . S
O187 C194 1.287 . S
O188 Fe177 1.996 . S
O188 C194 1.255 . S
O189 Fe179 1.976 . S
O189 C184 1.287 . S
O190 Fe176 1.996 . S
O190 C184 1.255 1_565 S
C191 O195 1.295 . S
C191 O196 1.235 1_565 S
O192 Fe177 1.976 1_545 S
O192 C186 1.287 . S
O193 Fe179 1.996 . S
O193 C186 1.255 . S
C194 O187 1.287 . S
C194 O188 1.255 . S
O195 Fe177 2.002 . S
O195 C191 1.295 . S
O196 Fe179 1.997 . S
O196 C191 1.235 1_545 S
C197 O180 1.295 . S
C197 O181 1.235 . S
Fe198 O200 1.918 . S
Fe198 O203 1.997 . S
Fe198 O204 2.002 . S
Fe198 O209 1.976 . S
Fe198 O212 1.996 . S
Fe199 O200 1.918 . S
Fe199 O207 1.997 . S
Fe199 O210 1.996 . S
Fe199 O214 1.976 . S
Fe199 O217 2.002 . S
O200 Fe198 1.918 . S
O200 Fe199 1.918 . S
O200 Fe201 1.918 . S
Fe201 O200 1.918 . S
Fe201 O202 2.002 . S
Fe201 O211 1.976 . S
Fe201 O215 1.996 . S
Fe201 O218 1.997 . S
O202 Fe201 2.002 . S
O202 C219 1.295 . S
O203 Fe198 1.997 . S
O203 C219 1.235 . S
O204 Fe198 2.002 . S
O204 C205 1.295 . S
C205 O204 1.295 . S
C205 O207 1.235 . S
C206 O211 1.287 . S
C206 O212 1.255 . S
O207 Fe199 1.997 . S
O207 C205 1.235 . S
C208 O214 1.287 . S
C208 O215 1.255 . S
O209 Fe198 1.976 . S
O209 C216 1.287 . S
O210 Fe199 1.996 . S
O210 C216 1.255 . S
O211 Fe201 1.976 . S
O211 C206 1.287 . S
O212 Fe198 1.996 . S
O212 C206 1.255 . S
C213 O217 1.295 . S
C213 O218 1.235 . S
O214 Fe199 1.976 . S
O214 C208 1.287 . S
O215 Fe201 1.996 . S
O215 C208 1.255 . S
C216 O209 1.287 . S
C216 O210 1.255 . S
O217 Fe199 2.002 . S
O217 C213 1.295 . S
O218 Fe201 1.997 . S
O218 C213 1.235 . S
C219 O202 1.295 . S
C219 O203 1.235 . S
Fe220 O222 1.918 . S
Fe220 O225 1.997 . S
Fe220 O226 2.002 . S
Fe220 O231 1.976 . S
Fe220 O234 1.996 . S
Fe221 O222 1.918 . S
Fe221 O229 1.997 . S
Fe221 O232 1.996 . S
Fe221 O236 1.976 . S
Fe221 O239 2.002 . S
O222 Fe220 1.918 . S
O222 Fe221 1.918 . S
O222 Fe223 1.918 . S
Fe223 O222 1.918 . S
Fe223 O224 2.002 . S
Fe223 O233 1.976 . S
Fe223 O237 1.996 . S
Fe223 O240 1.997 . S
O224 Fe223 2.002 . S
O224 C241 1.295 . S
O225 Fe220 1.997 . S
O225 C241 1.235 . S
O226 Fe220 2.002 . S
O226 C227 1.295 . S
C227 O226 1.295 . S
C227 O229 1.235 . S
C228 O233 1.287 . S
C228 O234 1.255 . S
O229 Fe221 1.997 . S
O229 C227 1.235 . S
C230 O236 1.287 . S
C230 O237 1.255 . S
O231 Fe220 1.976 . S
O231 C238 1.287 . S
O232 Fe221 1.996 . S
O232 C238 1.255 . S
O233 Fe223 1.976 . S
O233 C228 1.287 . S
O234 Fe220 1.996 . S
O234 C228 1.255 . S
C235 O239 1.295 . S
C235 O240 1.235 . S
O236 Fe221 1.976 . S
O236 C230 1.287 . S
O237 Fe223 1.996 . S
O237 C230 1.255 . S
C238 O231 1.287 . S
C238 O232 1.255 . S
O239 Fe221 2.002 . S
O239 C235 1.295 . S
O240 Fe223 1.997 . S
O240 C235 1.235 . S
C241 O224 1.295 . S
C241 O225 1.235 . S
Fe242 O244 1.918 1_455 S
Fe242 O247 1.997 . S
Fe242 O248 2.002 1_455 S
Fe242 O253 1.976 . S
Fe242 O256 1.996 . S
Fe243 O244 1.918 . S
Fe243 O251 1.997 . S
Fe243 O254 1.996 . S
Fe243 O258 1.976 . S
Fe243 O261 2.002 . S
O244 Fe242 1.918 1_655 S
O244 Fe243 1.918 . S
O244 Fe245 1.918 . S
Fe245 O244 1.918 . S
Fe245 O246 2.002 . S
Fe245 O255 1.976 1_655 S
Fe245 O259 1.996 . S
Fe245 O262 1.997 . S
O246 Fe245 2.002 . S
O246 C263 1.295 . S
O247 Fe242 1.997 . S
O247 C263 1.235 1_455 S
O248 Fe242 2.002 1_655 S
O248 C249 1.295 . S
C249 O248 1.295 . S
C249 O251 1.235 . S
C250 O255 1.287 . S
C250 O256 1.255 . S
O251 Fe243 1.997 . S
O251 C249 1.235 . S
C252 O258 1.287 . S
C252 O259 1.255 . S
O253 Fe242 1.976 . S
O253 C260 1.287 . S
O254 Fe243 1.996 . S
O254 C260 1.255 1_655 S
O255 Fe245 1.976 1_455 S
O255 C250 1.287 . S
O256 Fe242 1.996 . S
O256 C250 1.255 . S
C257 O261 1.295 . S
C257 O262 1.235 . S
O258 Fe243 1.976 . S
O258 C252 1.287 . S
O259 Fe245 1.996 . S
O259 C252 1.255 . S
C260 O253 1.287 . S
C260 O254 1.255 1_455 S
O261 Fe243 2.002 . S
O261 C257 1.295 . S
O262 Fe245 1.997 . S
O262 C257 1.235 . S
C263 O246 1.295 . S
C263 O247 1.235 1_655 S
Fe264 O266 1.918 . S
Fe264 O269 1.997 . S
Fe264 O270 2.002 . S
Fe264 O275 1.976 1_545 S
Fe264 O278 1.996 . S
Fe265 O266 1.918 1_565 S
Fe265 O273 1.997 . S
Fe265 O276 1.996 . S
Fe265 O280 1.976 . S
Fe265 O283 2.002 1_565 S
O266 Fe264 1.918 . S
O266 Fe265 1.918 1_545 S
O266 Fe267 1.918 . S
Fe267 O266 1.918 . S
Fe267 O268 2.002 . S
Fe267 O277 1.976 . S
Fe267 O281 1.996 . S
Fe267 O284 1.997 . S
O268 Fe267 2.002 . S
O268 C285 1.295 . S
O269 Fe264 1.997 . S
O269 C285 1.235 . S
O270 Fe264 2.002 . S
O270 C271 1.295 . S
C271 O270 1.295 . S
C271 O273 1.235 1_545 S
C272 O277 1.287 . S
C272 O278 1.255 . S
O273 Fe265 1.997 . S
O273 C271 1.235 1_565 S
C274 O280 1.287 . S
C274 O281 1.255 1_565 S
O275 Fe264 1.976 1_565 S
O275 C282 1.287 . S
O276 Fe265 1.996 . S
O276 C282 1.255 . S
O277 Fe267 1.976 . S
O277 C272 1.287 . S
O278 Fe264 1.996 . S
O278 C272 1.255 . S
C279 O283 1.295 . S
C279 O284 1.235 . S
O280 Fe265 1.976 . S
O280 C274 1.287 . S
O281 Fe267 1.996 . S
O281 C274 1.255 1_545 S
C282 O275 1.287 . S
C282 O276 1.255 . S
O283 Fe265 2.002 1_545 S
O283 C279 1.295 . S
O284 Fe267 1.997 . S
O284 C279 1.235 . S
C285 O268 1.295 . S
C285 O269 1.235 . S
Fe286 O288 1.918 . S
Fe286 O291 1.997 . S
Fe286 O292 2.002 . S
Fe286 O297 1.976 . S
Fe286 O300 1.996 . S
Fe287 O288 1.918 . S
Fe287 O295 1.997 . S
Fe287 O298 1.996 . S
Fe287 O302 1.976 . S
Fe287 O305 2.002 . S
O288 Fe286 1.918 . S
O288 Fe287 1.918 . S
O288 Fe289 1.918 . S
Fe289 O288 1.918 . S
Fe289 O290 2.002 . S
Fe289 O299 1.976 . S
Fe289 O303 1.996 . S
Fe289 O306 1.997 . S
O290 Fe289 2.002 . S
O290 C307 1.295 . S
O291 Fe286 1.997 . S
O291 C307 1.235 . S
O292 Fe286 2.002 . S
O292 C293 1.295 . S
C293 O292 1.295 . S
C293 O295 1.235 . S
C294 O299 1.287 . S
C294 O300 1.255 . S
O295 Fe287 1.997 . S
O295 C293 1.235 . S
C296 O302 1.287 . S
C296 O303 1.255 . S
O297 Fe286 1.976 . S
O297 C304 1.287 . S
O298 Fe287 1.996 . S
O298 C304 1.255 . S
O299 Fe289 1.976 . S
O299 C294 1.287 . S
O300 Fe286 1.996 . S
O300 C294 1.255 . S
C301 O305 1.295 . S
C301 O306 1.235 . S
O302 Fe287 1.976 . S
O302 C296 1.287 . S
O303 Fe289 1.996 . S
O303 C296 1.255 . S
C304 O297 1.287 . S
C304 O298 1.255 . S
O305 Fe287 2.002 . S
O305 C301 1.295 . S
O306 Fe289 1.997 . S
O306 C301 1.235 . S
C307 O290 1.295 . S
C307 O291 1.235 . S
Fe308 O310 1.918 . S
Fe308 O313 1.997 . S
Fe308 O314 2.002 . S
Fe308 O319 1.976 . S
Fe308 O322 1.996 . S
Fe309 O310 1.918 . S
Fe309 O317 1.997 . S
Fe309 O320 1.996 . S
Fe309 O324 1.976 . S
Fe309 O327 2.002 . S
O310 Fe308 1.918 . S
O310 Fe309 1.918 . S
O310 Fe311 1.918 . S
Fe311 O310 1.918 . S
Fe311 O312 2.002 . S
Fe311 O321 1.976 . S
Fe311 O325 1.996 . S
Fe311 O328 1.997 . S
O312 Fe311 2.002 . S
O312 C329 1.295 . S
O313 Fe308 1.997 . S
O313 C329 1.235 . S
O314 Fe308 2.002 . S
O314 C315 1.295 . S
C315 O314 1.295 . S
C315 O317 1.235 . S
C316 O321 1.287 . S
C316 O322 1.255 . S
O317 Fe309 1.997 . S
O317 C315 1.235 . S
C318 O324 1.287 . S
C318 O325 1.255 . S
O319 Fe308 1.976 . S
O319 C326 1.287 . S
O320 Fe309 1.996 . S
O320 C326 1.255 . S
O321 Fe311 1.976 . S
O321 C316 1.287 . S
O322 Fe308 1.996 . S
O322 C316 1.255 . S
C323 O327 1.295 . S
C323 O328 1.235 . S
O324 Fe309 1.976 . S
O324 C318 1.287 . S
O325 Fe311 1.996 . S
O325 C318 1.255 . S
C326 O319 1.287 . S
C326 O320 1.255 . S
O327 Fe309 2.002 . S
O327 C323 1.295 . S
O328 Fe311 1.997 . S
O328 C323 1.235 . S
C329 O312 1.295 . S
C329 O313 1.235 . S
Fe330 O332 1.918 1_655 S
Fe330 O335 1.997 . S
Fe330 O336 2.002 1_655 S
Fe330 O341 1.976 . S
Fe330 O344 1.996 . S
Fe331 O332 1.918 . S
Fe331 O339 1.997 . S
Fe331 O342 1.996 . S
Fe331 O346 1.976 . S
Fe331 O349 2.002 . S
O332 Fe330 1.918 1_455 S
O332 Fe331 1.918 . S
O332 Fe333 1.918 . S
Fe333 O332 1.918 . S
Fe333 O334 2.002 . S
Fe333 O343 1.976 1_455 S
Fe333 O347 1.996 . S
Fe333 O350 1.997 . S
O334 Fe333 2.002 . S
O334 C351 1.295 . S
O335 Fe330 1.997 . S
O335 C351 1.235 1_655 S
O336 Fe330 2.002 1_455 S
O336 C337 1.295 . S
C337 O336 1.295 . S
C337 O339 1.235 . S
C338 O343 1.287 . S
C338 O344 1.255 . S
O339 Fe331 1.997 . S
O339 C337 1.235 . S
C340 O346 1.287 . S
C340 O347 1.255 . S
O341 Fe330 1.976 . S
O341 C348 1.287 . S
O342 Fe331 1.996 . S
O342 C348 1.255 1_455 S
O343 Fe333 1.976 1_655 S
O343 C338 1.287 . S
O344 Fe330 1.996 . S
O344 C338 1.255 . S
C345 O349 1.295 . S
C345 O350 1.235 . S
O346 Fe331 1.976 . S
O346 C340 1.287 . S
O347 Fe333 1.996 . S
O347 C340 1.255 . S
C348 O341 1.287 . S
C348 O342 1.255 1_655 S
O349 Fe331 2.002 . S
O349 C345 1.295 . S
O350 Fe333 1.997 . S
O350 C345 1.235 . S
C351 O334 1.295 . S
C351 O335 1.235 1_455 S
C352 C353 1.369 . S
C352 C354 1.419 . S
C352 H356 0.930 . S
C353 C352 1.369 . S
C353 C362 1.429 . S
C354 C352 1.419 . S
C354 C355 1.363 . S
C354 H357 0.929 . S
C355 C354 1.363 . S
C355 C361 1.428 . S
H356 C352 0.930 . S
H357 C354 0.929 . S
S358 N359 1.613 . S
S358 N360 1.610 . S
N359 S358 1.613 . S
N359 C362 1.350 . S
N360 S358 1.610 . S
N360 C361 1.351 . S
C361 C355 1.428 . S
C361 N360 1.351 . S
C361 C362 1.434 . S
C362 C353 1.429 . S
C362 N359 1.350 . S
C362 C361 1.434 . S
C363 C364 1.369 . S
C363 C365 1.419 . S
C363 H367 0.930 . S
C364 C363 1.369 . S
C364 C373 1.429 . S
C365 C363 1.419 . S
C365 C366 1.363 . S
C365 H368 0.929 . S
C366 C365 1.363 . S
C366 C372 1.428 . S
H367 C363 0.930 . S
H368 C365 0.929 . S
S369 N370 1.613 . S
S369 N371 1.610 . S
N370 S369 1.613 . S
N370 C373 1.350 . S
N371 S369 1.610 . S
N371 C372 1.351 . S
C372 C366 1.428 . S
C372 N371 1.351 . S
C372 C373 1.434 . S
C373 C364 1.429 . S
C373 N370 1.350 . S
C373 C372 1.434 . S
C374 C375 1.369 . S
C374 C376 1.419 . S
C374 H378 0.930 . S
C375 C374 1.369 . S
C375 C384 1.429 . S
C376 C374 1.419 . S
C376 C377 1.363 . S
C376 H379 0.929 . S
C377 C376 1.363 . S
C377 C383 1.428 . S
H378 C374 0.930 . S
H379 C376 0.929 . S
S380 N381 1.613 1_455 S
S380 N382 1.610 1_455 S
N381 S380 1.613 1_655 S
N381 C384 1.350 . S
N382 S380 1.610 1_655 S
N382 C383 1.351 . S
C383 C377 1.428 . S
C383 N382 1.351 . S
C383 C384 1.434 . S
C384 C375 1.429 . S
C384 N381 1.350 . S
C384 C383 1.434 . S
C385 C386 1.369 . S
C385 C387 1.419 . S
C385 H389 0.930 . S
C386 C385 1.369 . S
C386 C395 1.429 . S
C387 C385 1.419 . S
C387 C388 1.363 . S
C387 H390 0.929 . S
C388 C387 1.363 . S
C388 C394 1.428 . S
H389 C385 0.930 . S
H390 C387 0.929 . S
S391 N392 1.613 . S
S391 N393 1.610 . S
N392 S391 1.613 . S
N392 C395 1.350 . S
N393 S391 1.610 . S
N393 C394 1.351 . S
C394 C388 1.428 . S
C394 N393 1.351 . S
C394 C395 1.434 . S
C395 C386 1.429 . S
C395 N392 1.350 . S
C395 C394 1.434 . S
C396 C397 1.369 . S
C396 C398 1.419 . S
C396 H400 0.930 . S
C397 C396 1.369 . S
C397 C406 1.429 . S
C398 C396 1.419 . S
C398 C399 1.363 . S
C398 H401 0.929 . S
C399 C398 1.363 . S
C399 C405 1.428 . S
H400 C396 0.930 . S
H401 C398 0.929 . S
S402 N403 1.613 . S
S402 N404 1.610 . S
N403 S402 1.613 . S
N403 C406 1.350 . S
N404 S402 1.610 . S
N404 C405 1.351 . S
C405 C399 1.428 . S
C405 N404 1.351 . S
C405 C406 1.434 . S
C406 C397 1.429 . S
C406 N403 1.350 . S
C406 C405 1.434 . S
C407 C408 1.369 . S
C407 C409 1.419 . S
C407 H411 0.930 . S
C408 C407 1.369 . S
C408 C417 1.429 . S
C409 C407 1.419 . S
C409 C410 1.363 . S
C409 H412 0.929 . S
C410 C409 1.363 . S
C410 C416 1.428 . S
H411 C407 0.930 . S
H412 C409 0.929 . S
S413 N414 1.613 . S
S413 N415 1.610 . S
N414 S413 1.613 . S
N414 C417 1.350 . S
N415 S413 1.610 . S
N415 C416 1.351 . S
C416 C410 1.428 . S
C416 N415 1.351 . S
C416 C417 1.434 . S
C417 C408 1.429 . S
C417 N414 1.350 . S
C417 C416 1.434 . S
C418 C419 1.369 . S
C418 C420 1.419 . S
C418 H422 0.930 . S
C419 C418 1.369 . S
C419 C428 1.429 . S
C420 C418 1.419 . S
C420 C421 1.363 . S
C420 H423 0.929 . S
C421 C420 1.363 . S
C421 C427 1.428 . S
H422 C418 0.930 . S
H423 C420 0.929 . S
S424 N425 1.613 . S
S424 N426 1.610 . S
N425 S424 1.613 . S
N425 C428 1.350 . S
N426 S424 1.610 . S
N426 C427 1.351 . S
C427 C421 1.428 . S
C427 N426 1.351 . S
C427 C428 1.434 . S
C428 C419 1.429 . S
C428 N425 1.350 . S
C428 C427 1.434 . S
C429 C430 1.369 . S
C429 C431 1.419 . S
C429 H433 0.930 . S
C430 C429 1.369 . S
C430 C439 1.429 . S
C431 C429 1.419 . S
C431 C432 1.363 . S
C431 H434 0.929 . S
C432 C431 1.363 . S
C432 C438 1.428 . S
H433 C429 0.930 . S
H434 C431 0.929 . S
S435 N436 1.613 . S
S435 N437 1.610 . S
N436 S435 1.613 . S
N436 C439 1.350 . S
N437 S435 1.610 . S
N437 C438 1.351 . S
C438 C432 1.428 . S
C438 N437 1.351 . S
C438 C439 1.434 . S
C439 C430 1.429 . S
C439 N436 1.350 . S
C439 C438 1.434 . S
C440 C441 1.369 1_566 S
C440 C442 1.419 . S
C440 H444 0.930 . S
C441 C440 1.369 1_544 S
C441 C450 1.429 . S
C442 C440 1.419 . S
C442 C443 1.363 . S
C442 H445 0.929 . S
C443 C442 1.363 . S
C443 C449 1.428 1_566 S
H444 C440 0.930 . S
H445 C442 0.929 . S
S446 N447 1.613 . S
S446 N448 1.610 . S
N447 S446 1.613 . S
N447 C450 1.350 . S
N448 S446 1.610 . S
N448 C449 1.351 . S
C449 C443 1.428 1_544 S
C449 N448 1.351 . S
C449 C450 1.434 . S
C450 C441 1.429 . S
C450 N447 1.350 . S
C450 C449 1.434 . S
C451 C452 1.369 . S
C451 C453 1.419 . S
C451 H455 0.930 . S
C452 C451 1.369 . S
C452 C461 1.429 1_554 S
C453 C451 1.419 . S
C453 C454 1.363 1_554 S
C453 H456 0.929 . S
C454 C453 1.363 1_556 S
C454 C460 1.428 . S
H455 C451 0.930 . S
H456 C453 0.929 . S
S457 N458 1.613 . S
S457 N459 1.610 . S
N458 S457 1.613 . S
N458 C461 1.350 . S
N459 S457 1.610 . S
N459 C460 1.351 . S
C460 C454 1.428 . S
C460 N459 1.351 . S
C460 C461 1.434 . S
C461 C452 1.429 1_556 S
C461 N458 1.350 . S
C461 C460 1.434 . S
C462 C463 1.369 . S
C462 C464 1.419 1_455 S
C462 H466 0.930 . S
C463 C462 1.369 . S
C463 C472 1.429 1_556 S
C464 C462 1.419 1_655 S
C464 C465 1.363 1_556 S
C464 H467 0.929 . S
C465 C464 1.363 1_554 S
C465 C471 1.428 . S
H466 C462 0.930 . S
H467 C464 0.929 . S
S468 N469 1.613 . S
S468 N470 1.610 1_455 S
N469 S468 1.613 . S
N469 C472 1.350 . S
N470 S468 1.610 1_655 S
N470 C471 1.351 . S
C471 C465 1.428 . S
C471 N470 1.351 . S
C471 C472 1.434 1_655 S
C472 C463 1.429 1_554 S
C472 N469 1.350 . S
C472 C471 1.434 1_455 S
C473 C474 1.369 . S
C473 C475 1.419 1_545 S
C473 H477 0.930 . S
C474 C473 1.369 . S
C474 C483 1.429 1_656 S
C475 C473 1.419 1_565 S
C475 C476 1.363 1_656 S
C475 H478 0.929 . S
C476 C475 1.363 1_454 S
C476 C482 1.428 . S
H477 C473 0.930 . S
H478 C475 0.929 . S
S479 N480 1.613 . S
S479 N481 1.610 1_545 S
N480 S479 1.613 . S
N480 C483 1.350 . S
N481 S479 1.610 1_565 S
N481 C482 1.351 . S
C482 C476 1.428 . S
C482 N481 1.351 . S
C482 C483 1.434 1_565 S
C483 C474 1.429 1_454 S
C483 N480 1.350 . S
C483 C482 1.434 1_545 S
C484 C485 1.369 1_545 S
C484 C486 1.419 1_455 S
C484 H488 0.930 . S
C485 C484 1.369 1_565 S
C485 C494 1.429 . S
C486 C484 1.419 1_655 S
C486 C487 1.363 . S
C486 H489 0.929 . S
C487 C486 1.363 . S
C487 C493 1.428 1_545 S
H488 C484 0.930 . S
H489 C486 0.929 . S
S490 N491 1.613 1_655 S
S490 N492 1.610 . S
N491 S490 1.613 1_455 S
N491 C494 1.350 . S
N492 S490 1.610 . S
N492 C493 1.351 . S
C493 C487 1.428 1_565 S
C493 N492 1.351 . S
C493 C494 1.434 1_655 S
C494 C485 1.429 . S
C494 N491 1.350 . S
C494 C493 1.434 1_455 S
C495 C496 1.369 . S
C495 C497 1.419 1_545 S
C495 H499 0.930 . S
C496 C495 1.369 . S
C496 C505 1.429 . S
C497 C495 1.419 1_565 S
C497 C498 1.363 . S
C497 H500 0.929 . S
C498 C497 1.363 . S
C498 C504 1.428 . S
H499 C495 0.930 . S
H500 C497 0.929 . S
S501 N502 1.613 . S
S501 N503 1.610 1_545 S
N502 S501 1.613 . S
N502 C505 1.350 . S
N503 S501 1.610 1_565 S
N503 C504 1.351 . S
C504 C498 1.428 . S
C504 N503 1.351 . S
C504 C505 1.434 1_565 S
C505 C496 1.429 . S
C505 N502 1.350 . S
C505 C504 1.434 1_545 S
C506 C507 1.369 . S
C506 C508 1.419 . S
C506 H510 0.930 . S
C507 C506 1.369 . S
C507 C516 1.429 . S
C508 C506 1.419 . S
C508 C509 1.363 . S
C508 H511 0.929 . S
C509 C508 1.363 . S
C509 C515 1.428 . S
H510 C506 0.930 . S
H511 C508 0.929 . S
S512 N513 1.613 . S
S512 N514 1.610 . S
N513 S512 1.613 . S
N513 C516 1.350 . S
N514 S512 1.610 . S
N514 C515 1.351 . S
C515 C509 1.428 . S
C515 N514 1.351 . S
C515 C516 1.434 . S
C516 C507 1.429 . S
C516 N513 1.350 . S
C516 C515 1.434 . S
C517 C518 1.369 1_655 S
C517 C519 1.419 . S
C517 H521 0.930 . S
C518 C517 1.369 1_455 S
C518 C527 1.429 . S
C519 C517 1.419 . S
C519 C520 1.363 . S
C519 H522 0.929 . S
C520 C519 1.363 . S
C520 C526 1.428 1_655 S
H521 C517 0.930 . S
H522 C519 0.929 . S
S523 N524 1.613 . S
S523 N525 1.610 . S
N524 S523 1.613 . S
N524 C527 1.350 . S
N525 S523 1.610 . S
N525 C526 1.351 . S
C526 C520 1.428 1_455 S
C526 N525 1.351 . S
C526 C527 1.434 . S
C527 C518 1.429 . S
C527 N524 1.350 . S
C527 C526 1.434 . S
C528 C529 1.369 . S
C528 C530 1.419 . S
C528 H532 0.930 . S
C529 C528 1.369 . S
C529 C538 1.429 . S
C530 C528 1.419 . S
C530 C531 1.363 . S
C530 H533 0.929 . S
C531 C530 1.363 . S
C531 C537 1.428 . S
H532 C528 0.930 . S
H533 C530 0.929 . S
S534 N535 1.613 . S
S534 N536 1.610 . S
N535 S534 1.613 . S
N535 C538 1.350 . S
N536 S534 1.610 . S
N536 C537 1.351 . S
C537 C531 1.428 . S
C537 N536 1.351 . S
C537 C538 1.434 . S
C538 C529 1.429 . S
C538 N535 1.350 . S
C538 C537 1.434 . S
C539 C540 1.369 . S
C539 C541 1.419 . S
C539 H543 0.930 . S
C540 C539 1.369 . S
C540 C549 1.429 . S
C541 C539 1.419 . S
C541 C542 1.363 . S
C541 H544 0.929 . S
C542 C541 1.363 . S
C542 C548 1.428 . S
H543 C539 0.930 . S
H544 C541 0.929 . S
S545 N546 1.613 . S
S545 N547 1.610 . S
N546 S545 1.613 . S
N546 C549 1.350 . S
N547 S545 1.610 . S
N547 C548 1.351 . S
C548 C542 1.428 . S
C548 N547 1.351 . S
C548 C549 1.434 . S
C549 C540 1.429 . S
C549 N546 1.350 . S
C549 C548 1.434 . S
C550 C551 1.369 . S
C550 C552 1.419 . S
C550 H554 0.930 . S
C551 C550 1.369 . S
C551 C560 1.429 . S
C552 C550 1.419 . S
C552 C553 1.363 . S
C552 H555 0.929 . S
C553 C552 1.363 . S
C553 C559 1.428 . S
H554 C550 0.930 . S
H555 C552 0.929 . S
S556 N557 1.613 . S
S556 N558 1.610 . S
N557 S556 1.613 . S
N557 C560 1.350 . S
N558 S556 1.610 . S
N558 C559 1.351 . S
C559 C553 1.428 . S
C559 N558 1.351 . S
C559 C560 1.434 . S
C560 C551 1.429 . S
C560 N557 1.350 . S
C560 C559 1.434 . S
C561 C562 1.369 . S
C561 C563 1.419 . S
C561 H565 0.930 . S
C562 C561 1.369 . S
C562 C571 1.429 . S
C563 C561 1.419 . S
C563 C564 1.363 . S
C563 H566 0.929 . S
C564 C563 1.363 . S
C564 C570 1.428 . S
H565 C561 0.930 . S
H566 C563 0.929 . S
S567 N568 1.613 . S
S567 N569 1.610 . S
N568 S567 1.613 . S
N568 C571 1.350 1_545 S
N569 S567 1.610 . S
N569 C570 1.351 1_545 S
C570 C564 1.428 . S
C570 N569 1.351 1_565 S
C570 C571 1.434 . S
C571 C562 1.429 . S
C571 N568 1.350 1_565 S
C571 C570 1.434 . S
C572 C573 1.369 . S
C572 C574 1.419 . S
C572 H576 0.930 . S
C573 C572 1.369 . S
C573 C582 1.429 . S
C574 C572 1.419 . S
C574 C575 1.363 . S
C574 H577 0.929 1_455 S
C575 C574 1.363 . S
C575 C581 1.428 . S
H576 C572 0.930 . S
H577 C574 0.929 1_655 S
S578 N579 1.613 . S
S578 N580 1.610 . S
N579 S578 1.613 . S
N579 C582 1.350 . S
N580 S578 1.610 . S
N580 C581 1.351 . S
C581 C575 1.428 . S
C581 N580 1.351 . S
C581 C582 1.434 . S
C582 C573 1.429 . S
C582 N579 1.350 . S
C582 C581 1.434 . S
C583 C584 1.369 . S
C583 C585 1.419 . S
C583 H587 0.930 . S
C584 C583 1.369 . S
C584 C593 1.429 . S
C585 C583 1.419 . S
C585 C586 1.363 . S
C585 H588 0.929 1_545 S
C586 C585 1.363 . S
C586 C592 1.428 . S
H587 C583 0.930 . S
H588 C585 0.929 1_565 S
S589 N590 1.613 . S
S589 N591 1.610 . S
N590 S589 1.613 . S
N590 C593 1.350 . S
N591 S589 1.610 . S
N591 C592 1.351 . S
C592 C586 1.428 . S
C592 N591 1.351 . S
C592 C593 1.434 . S
C593 C584 1.429 . S
C593 N590 1.350 . S
C593 C592 1.434 . S
C594 C595 1.369 . S
C594 C596 1.419 . S
C594 H598 0.930 . S
C595 C594 1.369 . S
C595 C604 1.429 . S
C596 C594 1.419 . S
C596 C597 1.363 . S
C596 H599 0.929 . S
C597 C596 1.363 . S
C597 C603 1.428 . S
H598 C594 0.930 . S
H599 C596 0.929 . S
S600 N601 1.613 . S
S600 N602 1.610 . S
N601 S600 1.613 . S
N601 C604 1.350 . S
N602 S600 1.610 . S
N602 C603 1.351 . S
C603 C597 1.428 . S
C603 N602 1.351 . S
C603 C604 1.434 . S
C604 C595 1.429 . S
C604 N601 1.350 . S
C604 C603 1.434 . S
C605 C606 1.369 . S
C605 C607 1.419 . S
C605 H609 0.930 . S
C606 C605 1.369 . S
C606 C615 1.429 . S
C607 C605 1.419 . S
C607 C608 1.363 . S
C607 H610 0.929 . S
C608 C607 1.363 . S
C608 C614 1.428 . S
H609 C605 0.930 . S
H610 C607 0.929 . S
S611 N612 1.613 . S
S611 N613 1.610 . S
N612 S611 1.613 . S
N612 C615 1.350 . S
N613 S611 1.610 . S
N613 C614 1.351 . S
C614 C608 1.428 . S
C614 N613 1.351 . S
C614 C615 1.434 . S
C615 C606 1.429 . S
C615 N612 1.350 . S
C615 C614 1.434 . S
C616 C617 1.369 . S
C616 C618 1.419 . S
C616 H620 0.930 . S
C617 C616 1.369 . S
C617 C626 1.429 . S
C618 C616 1.419 . S
C618 C619 1.363 . S
C618 H621 0.929 . S
C619 C618 1.363 . S
C619 C625 1.428 . S
H620 C616 0.930 . S
H621 C618 0.929 . S
S622 N623 1.613 . S
S622 N624 1.610 . S
N623 S622 1.613 . S
N623 C626 1.350 . S
N624 S622 1.610 . S
N624 C625 1.351 . S
C625 C619 1.428 . S
C625 N624 1.351 . S
C625 C626 1.434 . S
C626 C617 1.429 . S
C626 N623 1.350 . S
C626 C625 1.434 . S
C627 C628 1.369 . S
C627 C629 1.419 . S
C627 H631 0.930 . S
C628 C627 1.369 . S
C628 C637 1.429 . S
C629 C627 1.419 . S
C629 C630 1.363 . S
C629 H632 0.929 . S
C630 C629 1.363 . S
C630 C636 1.428 . S
H631 C627 0.930 . S
H632 C629 0.929 . S
S633 N634 1.613 . S
S633 N635 1.610 . S
N634 S633 1.613 . S
N634 C637 1.350 . S
N635 S633 1.610 . S
N635 C636 1.351 . S
C636 C630 1.428 . S
C636 N635 1.351 . S
C636 C637 1.434 . S
C637 C628 1.429 . S
C637 N634 1.350 . S
C637 C636 1.434 . S
C638 C639 1.369 . S
C638 C640 1.419 . S
C638 H642 0.930 . S
C639 C638 1.369 . S
C639 C648 1.429 . S
C640 C638 1.419 . S
C640 C641 1.363 . S
C640 H643 0.929 . S
C641 C640 1.363 . S
C641 C647 1.428 . S
H642 C638 0.930 . S
H643 C640 0.929 . S
S644 N645 1.613 . S
S644 N646 1.610 . S
N645 S644 1.613 . S
N645 C648 1.350 1_655 S
N646 S644 1.610 . S
N646 C647 1.351 1_655 S
C647 C641 1.428 . S
C647 N646 1.351 1_455 S
C647 C648 1.434 . S
C648 C639 1.429 . S
C648 N645 1.350 1_455 S
C648 C647 1.434 . S
C649 C650 1.369 . S
C649 C651 1.419 . S
C649 H653 0.930 . S
C650 C649 1.369 . S
C650 C659 1.429 . S
C651 C649 1.419 . S
C651 C652 1.363 . S
C651 H654 0.929 . S
C652 C651 1.363 . S
C652 C658 1.428 . S
H653 C649 0.930 . S
H654 C651 0.929 . S
S655 N656 1.613 . S
S655 N657 1.610 . S
N656 S655 1.613 . S
N656 C659 1.350 . S
N657 S655 1.610 . S
N657 C658 1.351 . S
C658 C652 1.428 . S
C658 N657 1.351 . S
C658 C659 1.434 . S
C659 C650 1.429 . S
C659 N656 1.350 . S
C659 C658 1.434 . S
C660 C661 1.369 . S
C660 C662 1.419 . S
C660 H664 0.930 . S
C661 C660 1.369 . S
C661 C670 1.429 . S
C662 C660 1.419 . S
C662 C663 1.363 . S
C662 H665 0.929 . S
C663 C662 1.363 . S
C663 C669 1.428 . S
H664 C660 0.930 . S
H665 C662 0.929 . S
S666 N667 1.613 . S
S666 N668 1.610 . S
N667 S666 1.613 . S
N667 C670 1.350 1_455 S
N668 S666 1.610 . S
N668 C669 1.351 1_455 S
C669 C663 1.428 . S
C669 N668 1.351 1_655 S
C669 C670 1.434 . S
C670 C661 1.429 . S
C670 N667 1.350 1_655 S
C670 C669 1.434 . S
C671 C672 1.369 . S
C671 C673 1.419 . S
C671 H675 0.930 . S
C672 C671 1.369 . S
C672 C681 1.429 . S
C673 C671 1.419 . S
C673 C674 1.363 . S
C673 H676 0.929 . S
C674 C673 1.363 . S
C674 C680 1.428 . S
H675 C671 0.930 . S
H676 C673 0.929 . S
S677 N678 1.613 1_545 S
S677 N679 1.610 . S
N678 S677 1.613 1_565 S
N678 C681 1.350 . S
N679 S677 1.610 . S
N679 C680 1.351 1_545 S
C680 C674 1.428 . S
C680 N679 1.351 1_565 S
C680 C681 1.434 . S
C681 C672 1.429 . S
C681 N678 1.350 . S
C681 C680 1.434 . S
C682 C683 1.369 . S
C682 C684 1.419 . S
C682 H686 0.930 . S
C683 C682 1.369 . S
C683 C692 1.429 . S
C684 C682 1.419 . S
C684 C685 1.363 . S
C684 H687 0.929 . S
C685 C684 1.363 . S
C685 C691 1.428 . S
H686 C682 0.930 . S
H687 C684 0.929 . S
S688 N689 1.613 . S
S688 N690 1.610 . S
N689 S688 1.613 . S
N689 C692 1.350 . S
N690 S688 1.610 . S
N690 C691 1.351 . S
C691 C685 1.428 . S
C691 N690 1.351 . S
C691 C692 1.434 . S
C692 C683 1.429 . S
C692 N689 1.350 . S
C692 C691 1.434 . S
C693 C694 1.369 . S
C693 C695 1.419 . S
C693 H697 0.930 . S
C694 C693 1.369 . S
C694 C703 1.429 . S
C695 C693 1.419 . S
C695 C696 1.363 . S
C695 H698 0.929 . S
C696 C695 1.363 . S
C696 C702 1.428 . S
H697 C693 0.930 . S
H698 C695 0.929 . S
S699 N700 1.613 . S
S699 N701 1.610 . S
N700 S699 1.613 . S
N700 C703 1.350 . S
N701 S699 1.610 . S
N701 C702 1.351 . S
C702 C696 1.428 . S
C702 N701 1.351 . S
C702 C703 1.434 . S
C703 C694 1.429 . S
C703 N700 1.350 . S
C703 C702 1.434 . S
C704 C705 1.369 . S
C704 C706 1.419 . S
C704 H708 0.930 . S
C705 C704 1.369 . S
C705 C714 1.429 . S
C706 C704 1.419 . S
C706 C707 1.363 . S
C706 H709 0.929 . S
C707 C706 1.363 . S
C707 C713 1.428 1_554 S
H708 C704 0.930 . S
H709 C706 0.929 . S
S710 N711 1.613 1_556 S
S710 N712 1.610 . S
N711 S710 1.613 1_554 S
N711 C714 1.350 . S
N712 S710 1.610 . S
N712 C713 1.351 . S
C713 C707 1.428 1_556 S
C713 N712 1.351 . S
C713 C714 1.434 1_556 S
C714 C705 1.429 . S
C714 N711 1.350 . S
C714 C713 1.434 1_554 S
C715 C716 1.369 1_556 S
C715 C717 1.419 1_556 S
C715 H719 0.930 . S
C716 C715 1.369 1_554 S
C716 C725 1.429 . S
C717 C715 1.419 1_554 S
C717 C718 1.363 . S
C717 H720 0.929 . S
C718 C717 1.363 . S
C718 C724 1.428 . S
H719 C715 0.930 . S
H720 C717 0.929 . S
S721 N722 1.613 . S
S721 N723 1.610 . S
N722 S721 1.613 . S
N722 C725 1.350 . S
N723 S721 1.610 . S
N723 C724 1.351 . S
C724 C718 1.428 . S
C724 N723 1.351 . S
C724 C725 1.434 . S
C725 C716 1.429 . S
C725 N722 1.350 . S
C725 C724 1.434 . S
C726 C727 1.369 . S
C726 C728 1.419 . S
C726 H730 0.930 . S
C727 C726 1.369 . S
C727 C736 1.429 . S
C728 C726 1.419 . S
C728 C729 1.363 . S
C728 H731 0.929 1_554 S
C729 C728 1.363 . S
C729 C735 1.428 . S
H730 C726 0.930 . S
H731 C728 0.929 1_556 S
S732 N733 1.613 . S
S732 N734 1.610 . S
N733 S732 1.613 . S
N733 C736 1.350 . S
N734 S732 1.610 . S
N734 C735 1.351 . S
C735 C729 1.428 . S
C735 N734 1.351 . S
C735 C736 1.434 . S
C736 C727 1.429 . S
C736 N733 1.350 . S
C736 C735 1.434 . S
C737 C738 1.369 . S
C737 C739 1.419 . S
C737 H741 0.930 . S
C738 C737 1.369 . S
C738 C747 1.429 . S
C739 C737 1.419 . S
C739 C740 1.363 . S
C739 H742 0.929 . S
C740 C739 1.363 . S
C740 C746 1.428 . S
H741 C737 0.930 . S
H742 C739 0.929 . S
S743 N744 1.613 1_544 S
S743 N745 1.610 1_545 S
N744 S743 1.613 1_566 S
N744 C747 1.350 1_556 S
N745 S743 1.610 1_565 S
N745 C746 1.351 . S
C746 C740 1.428 . S
C746 N745 1.351 . S
C746 C747 1.434 . S
C747 C738 1.429 . S
C747 N744 1.350 1_554 S
C747 C746 1.434 . S
C748 C749 1.369 . S
C748 C750 1.419 . S
C748 H752 0.930 . S
C749 C748 1.369 . S
C749 C758 1.429 . S
C750 C748 1.419 . S
C750 C751 1.363 . S
C750 H753 0.929 . S
C751 C750 1.363 . S
C751 C757 1.428 . S
H752 C748 0.930 . S
H753 C750 0.929 . S
S754 N755 1.613 1_655 S
S754 N756 1.610 . S
N755 S754 1.613 1_455 S
N755 C758 1.350 . S
N756 S754 1.610 . S
N756 C757 1.351 1_655 S
C757 C751 1.428 . S
C757 N756 1.351 1_455 S
C757 C758 1.434 . S
C758 C749 1.429 . S
C758 N755 1.350 . S
C758 C757 1.434 . S
C759 C760 1.369 . S
C759 C761 1.419 . S
C759 H763 0.930 . S
C760 C759 1.369 . S
C760 C769 1.429 . S
C761 C759 1.419 . S
C761 C762 1.363 . S
C761 H764 0.929 . S
C762 C761 1.363 . S
C762 C768 1.428 . S
H763 C759 0.930 . S
H764 C761 0.929 . S
S765 N766 1.613 . S
S765 N767 1.610 . S
N766 S765 1.613 . S
N766 C769 1.350 . S
N767 S765 1.610 . S
N767 C768 1.351 . S
C768 C762 1.428 . S
C768 N767 1.351 . S
C768 C769 1.434 . S
C769 C760 1.429 . S
C769 N766 1.350 . S
C769 C768 1.434 . S
C770 C771 1.369 . S
C770 C772 1.419 . S
C770 H774 0.930 . S
C771 C770 1.369 . S
C771 C780 1.429 . S
C772 C770 1.419 . S
C772 C773 1.363 . S
C772 H775 0.929 . S
C773 C772 1.363 . S
C773 C779 1.428 . S
H774 C770 0.930 . S
H775 C772 0.929 . S
S776 N777 1.613 . S
S776 N778 1.610 . S
N777 S776 1.613 . S
N777 C780 1.350 . S
N778 S776 1.610 . S
N778 C779 1.351 . S
C779 C773 1.428 . S
C779 N778 1.351 . S
C779 C780 1.434 . S
C780 C771 1.429 . S
C780 N777 1.350 . S
C780 C779 1.434 . S
C781 C782 1.369 . S
C781 C783 1.419 . S
C781 H785 0.930 . S
C782 C781 1.369 . S
C782 C791 1.429 . S
C783 C781 1.419 . S
C783 C784 1.363 . S
C783 H786 0.929 . S
C784 C783 1.363 . S
C784 C790 1.428 . S
H785 C781 0.930 . S
H786 C783 0.929 . S
S787 N788 1.613 . S
S787 N789 1.610 . S
N788 S787 1.613 . S
N788 C791 1.350 . S
N789 S787 1.610 . S
N789 C790 1.351 . S
C790 C784 1.428 . S
C790 N789 1.351 . S
C790 C791 1.434 . S
C791 C782 1.429 . S
C791 N788 1.350 . S
C791 C790 1.434 . S
C792 C793 1.369 . S
C792 C794 1.419 . S
C792 H796 0.930 . S
C793 C792 1.369 . S
C793 C802 1.428 1_556 S
C794 C792 1.419 . S
C794 C795 1.363 . S
C794 H797 0.929 . S
C795 C794 1.363 . S
C795 C801 1.428 . S
H796 C792 0.930 . S
H797 C794 0.929 . S
S798 N799 1.613 . S
S798 N800 1.610 1_554 S
N799 S798 1.613 . S
N799 C802 1.354 . S
N800 S798 1.610 1_556 S
N800 C801 1.351 . S
C801 C795 1.428 . S
C801 N800 1.351 . S
C801 C802 1.429 1_556 S
C802 C793 1.428 1_554 S
C802 N799 1.354 . S
C802 C801 1.429 1_554 S
C803 C804 1.369 . S
C803 C805 1.419 . S
C803 H807 0.930 . S
C804 C803 1.369 . S
C804 C813 1.429 . S
C805 C803 1.419 . S
C805 C806 1.363 . S
C805 H808 0.929 . S
C806 C805 1.363 . S
C806 C812 1.428 . S
H807 C803 0.930 . S
H808 C805 0.929 . S
S809 N810 1.613 1_554 S
S809 N811 1.610 . S
N810 S809 1.613 1_556 S
N810 C813 1.350 . S
N811 S809 1.610 . S
N811 C812 1.351 1_554 S
C812 C806 1.428 . S
C812 N811 1.351 1_556 S
C812 C813 1.434 . S
C813 C804 1.429 . S
C813 N810 1.350 . S
C813 C812 1.434 . S
C814 C815 1.369 . S
C814 C816 1.419 . S
C814 H818 0.930 . S
C815 C814 1.369 . S
C815 C824 1.429 . S
C816 C814 1.419 . S
C816 C817 1.363 . S
C816 H819 0.929 . S
C817 C816 1.363 . S
C817 C823 1.428 . S
H818 C814 0.930 . S
H819 C816 0.929 . S
S820 N821 1.613 . S
S820 N822 1.610 1_655 S
N821 S820 1.613 . S
N821 C824 1.350 1_655 S
N822 S820 1.610 1_455 S
N822 C823 1.351 . S
C823 C817 1.428 . S
C823 N822 1.351 . S
C823 C824 1.434 . S
C824 C815 1.429 . S
C824 N821 1.350 1_455 S
C824 C823 1.434 . S
C825 C826 1.368 1_554 S
C825 C827 1.407 1_554 S
C825 H829 0.943 . S
C826 C825 1.368 1_556 S
C826 C835 1.429 . S
C827 C825 1.407 1_556 S
C827 C828 1.363 . S
C827 H830 0.929 . S
C828 C827 1.363 . S
C828 C834 1.428 . S
H829 C825 0.943 . S
H830 C827 0.929 . S
S831 N832 1.613 . S
S831 N833 1.610 . S
N832 S831 1.613 . S
N832 C835 1.350 . S
N833 S831 1.610 . S
N833 C834 1.351 . S
C834 C828 1.428 . S
C834 N833 1.351 . S
C834 C835 1.434 . S
C835 C826 1.429 . S
C835 N832 1.350 . S
C835 C834 1.434 . S
C836 C837 1.369 . S
C836 C838 1.419 . S
C836 H840 0.930 . S
C837 C836 1.369 . S
C837 C846 1.429 . S
C838 C836 1.419 . S
C838 C839 1.363 . S
C838 H841 0.929 . S
C839 C838 1.363 . S
C839 C845 1.428 . S
H840 C836 0.930 . S
H841 C838 0.929 . S
S842 N843 1.613 . S
S842 N844 1.610 . S
N843 S842 1.613 . S
N843 C846 1.350 . S
N844 S842 1.610 . S
N844 C845 1.351 . S
C845 C839 1.428 . S
C845 N844 1.351 . S
C845 C846 1.434 . S
C846 C837 1.429 . S
C846 N843 1.350 . S
C846 C845 1.434 . S
C847 C848 1.369 . S
C847 C849 1.419 . S
C847 H851 0.930 . S
C848 C847 1.369 . S
C848 C857 1.429 . S
C849 C847 1.419 . S
C849 C850 1.363 . S
C849 H852 0.929 . S
C850 C849 1.363 . S
C850 C856 1.428 . S
H851 C847 0.930 . S
H852 C849 0.929 . S
S853 N854 1.613 . S
S853 N855 1.610 . S
N854 S853 1.613 . S
N854 C857 1.350 . S
N855 S853 1.610 . S
N855 C856 1.351 . S
C856 C850 1.428 . S
C856 N855 1.351 . S
C856 C857 1.434 . S
C857 C848 1.429 . S
C857 N854 1.350 . S
C857 C856 1.434 . S
C858 C859 1.369 . S
C858 C860 1.419 . S
C858 H862 0.930 . S
C859 C858 1.369 . S
C859 C868 1.429 . S
C860 C858 1.419 . S
C860 C861 1.363 . S
C860 H863 0.929 . S
C861 C860 1.363 . S
C861 C867 1.428 . S
H862 C858 0.930 . S
H863 C860 0.929 . S
S864 N865 1.613 . S
S864 N866 1.610 . S
N865 S864 1.613 . S
N865 C868 1.350 . S
N866 S864 1.610 . S
N866 C867 1.351 . S
C867 C861 1.428 . S
C867 N866 1.351 . S
C867 C868 1.434 . S
C868 C859 1.429 . S
C868 N865 1.350 . S
C868 C867 1.434 . S
C869 C870 1.369 . S
C869 C871 1.419 . S
C869 H873 0.930 . S
C870 C869 1.369 . S
C870 C879 1.429 . S
C871 C869 1.419 . S
C871 C872 1.363 . S
C871 H874 0.929 . S
C872 C871 1.363 . S
C872 C878 1.428 . S
H873 C869 0.930 . S
H874 C871 0.929 . S
S875 N876 1.613 . S
S875 N877 1.610 . S
N876 S875 1.613 . S
N876 C879 1.350 . S
N877 S875 1.610 . S
N877 C878 1.351 . S
C878 C872 1.428 . S
C878 N877 1.351 . S
C878 C879 1.434 . S
C879 C870 1.429 . S
C879 N876 1.350 . S
C879 C878 1.434 . S
C353 C10 1.407 . S
C355 C120 1.409 . S
C364 C30 1.408 . S
C366 C150 1.408 . S
C375 C172 1.409 . S
C377 C52 1.407 . S
C386 C98 1.409 . S
C388 C76 1.407 . S
C397 C194 1.400 . S
C399 C296 1.403 . S
C408 C206 1.404 . S
C410 C316 1.401 . S
C419 C238 1.403 . S
C421 C340 1.401 . S
C430 C252 1.400 . S
C432 C272 1.403 . S
C441 C7 1.070 . S
C443 C191 1.076 . S
C452 C37 1.085 . S
C454 C205 1.064 . S
C463 C235 1.071 . S
C465 C59 1.077 . S
C474 C263 1.070 . S
C476 C73 1.077 . S
C485 C95 1.075 . S
C487 C271 1.071 . S
C496 C117 1.087 . S
C498 C307 1.062 . S
C507 C315 1.064 . S
C509 C153 1.082 . S
C518 C351 1.077 . S
C520 C175 1.072 . S
C529 C18 1.601 . S
C531 C40 1.568 . S
C540 C32 1.601 . S
C542 C62 1.567 . S
C551 C74 1.570 . S
C553 C54 1.602 . S
C562 C84 1.602 . S
C564 C8 1.568 . S
C573 C106 1.599 . S
C575 C164 1.565 . S
C584 C128 1.599 . S
C586 C96 1.565 . S
C595 C140 1.602 . S
C597 C118 1.570 . S
C606 C162 1.599 . S
C608 C142 1.565 . S
C617 C186 1.590 . S
C619 C208 1.565 . S
C628 C228 1.568 . S
C630 C216 1.592 . S
C639 C260 1.568 . S
C641 C230 1.592 . S
C650 C184 1.569 . S
C652 C250 1.593 . S
C661 C282 1.589 . S
C663 C348 1.563 . S
C672 C294 1.588 . S
C674 C274 1.563 . S
C683 C304 1.565 . S
C685 C326 1.590 . S
C694 C338 1.589 . S
C696 C318 1.563 . S
C705 C15 1.627 . S
C707 C213 1.680 1_554 S
C716 C241 1.681 1_554 S
C718 C43 1.633 . S
C727 C65 1.634 . S
C729 C249 1.681 1_554 S
C738 C197 1.679 1_554 S
C740 C81 1.630 . S
C749 C103 1.629 . S
C751 C337 1.679 . S
C760 C279 1.679 . S
C762 C125 1.628 . S
C771 C293 1.681 . S
C773 C139 1.633 . S
C782 C161 1.629 . S
C784 C323 1.679 . S
C793 C29 1.681 1_556 S
C795 C183 1.626 . S
C804 C219 1.625 . S
C806 C51 1.682 1_556 S
C815 C87 1.680 1_556 S
C817 C227 1.629 . S
C826 C21 1.681 1_556 S
C828 C257 1.631 . S
C837 C169 1.683 . S
C839 C285 1.631 . S
C848 C301 1.631 . S
C850 C109 1.683 . S
C859 C329 1.625 . S
C861 C131 1.682 . S
C870 C345 1.633 . S
C872 C147 1.682 . S
