# Generated by pormake.
# Topology unp, (4)-cn, num edge types: 1
# Building blocks:
#     Node 0, Type 0, BuildingBlock: NAHDIM_clean_sbu_0, # of connection points: 4
#     Node 1, Type 0, BuildingBlock: NAHDIM_clean_sbu_0, # of connection points: 4
#     Node 2, Type 0, BuildingBlock: NAHDIM_clean_sbu_0, # of connection points: 4
#     Node 3, Type 0, BuildingBlock: NAHDIM_clean_sbu_0, # of connection points: 4
#     Node 4, Type 0, BuildingBlock: NAHDIM_clean_sbu_0, # of connection points: 4
#     Node 5, Type 0, BuildingBlock: NAHDIM_clean_sbu_0, # of connection points: 4
#     Node 6, Type 0, BuildingBlock: NAHDIM_clean_sbu_0, # of connection points: 4
#     Node 7, Type 0, BuildingBlock: NAHDIM_clean_sbu_0, # of connection points: 4
#     Node 8, Type 0, BuildingBlock: NAHDIM_clean_sbu_0, # of connection points: 4
#     Node 9, Type 0, BuildingBlock: NAHDIM_clean_sbu_0, # of connection points: 4
#     Node 10, Type 0, BuildingBlock: NAHDIM_clean_sbu_0, # of connection points: 4
#     Node 11, Type 0, BuildingBlock: NAHDIM_clean_sbu_0, # of connection points: 4
#     Node 12, Type 0, BuildingBlock: NAHDIM_clean_sbu_0, # of connection points: 4
#     Node 13, Type 0, BuildingBlock: NAHDIM_clean_sbu_0, # of connection points: 4
#     Node 14, Type 0, BuildingBlock: NAHDIM_clean_sbu_0, # of connection points: 4
#     Node 15, Type 0, BuildingBlock: NAHDIM_clean_sbu_0, # of connection points: 4
#     Node 16, Type 0, BuildingBlock: NAHDIM_clean_sbu_0, # of connection points: 4
#     Node 17, Type 0, BuildingBlock: NAHDIM_clean_sbu_0, # of connection points: 4
#     Edge 18, Type (0, 0), BuildingBlock: TEMPAE_clean_linker_10, # of connection points: 2
#     Edge 19, Type (0, 0), BuildingBlock: TEMPAE_clean_linker_10, # of connection points: 2
#     Edge 20, Type (0, 0), BuildingBlock: TEMPAE_clean_linker_10, # of connection points: 2
#     Edge 21, Type (0, 0), BuildingBlock: TEMPAE_clean_linker_10, # of connection points: 2
#     Edge 22, Type (0, 0), BuildingBlock: TEMPAE_clean_linker_10, # of connection points: 2
#     Edge 23, Type (0, 0), BuildingBlock: TEMPAE_clean_linker_10, # of connection points: 2
#     Edge 24, Type (0, 0), BuildingBlock: TEMPAE_clean_linker_10, # of connection points: 2
#     Edge 25, Type (0, 0), BuildingBlock: TEMPAE_clean_linker_10, # of connection points: 2
#     Edge 26, Type (0, 0), BuildingBlock: TEMPAE_clean_linker_10, # of connection points: 2
#     Edge 27, Type (0, 0), BuildingBlock: TEMPAE_clean_linker_10, # of connection points: 2
#     Edge 28, Type (0, 0), BuildingBlock: TEMPAE_clean_linker_10, # of connection points: 2
#     Edge 29, Type (0, 0), BuildingBlock: TEMPAE_clean_linker_10, # of connection points: 2
#     Edge 30, Type (0, 0), BuildingBlock: TEMPAE_clean_linker_10, # of connection points: 2
#     Edge 31, Type (0, 0), BuildingBlock: TEMPAE_clean_linker_10, # of connection points: 2
#     Edge 32, Type (0, 0), BuildingBlock: TEMPAE_clean_linker_10, # of connection points: 2
#     Edge 33, Type (0, 0), BuildingBlock: TEMPAE_clean_linker_10, # of connection points: 2
#     Edge 34, Type (0, 0), BuildingBlock: TEMPAE_clean_linker_10, # of connection points: 2
#     Edge 35, Type (0, 0), BuildingBlock: TEMPAE_clean_linker_10, # of connection points: 2
#     Edge 36, Type (0, 0), BuildingBlock: TEMPAE_clean_linker_10, # of connection points: 2
#     Edge 37, Type (0, 0), BuildingBlock: TEMPAE_clean_linker_10, # of connection points: 2
#     Edge 38, Type (0, 0), BuildingBlock: TEMPAE_clean_linker_10, # of connection points: 2
#     Edge 39, Type (0, 0), BuildingBlock: TEMPAE_clean_linker_10, # of connection points: 2
#     Edge 40, Type (0, 0), BuildingBlock: TEMPAE_clean_linker_10, # of connection points: 2
#     Edge 41, Type (0, 0), BuildingBlock: TEMPAE_clean_linker_10, # of connection points: 2
#     Edge 42, Type (0, 0), BuildingBlock: TEMPAE_clean_linker_10, # of connection points: 2
#     Edge 43, Type (0, 0), BuildingBlock: TEMPAE_clean_linker_10, # of connection points: 2
#     Edge 44, Type (0, 0), BuildingBlock: TEMPAE_clean_linker_10, # of connection points: 2
#     Edge 45, Type (0, 0), BuildingBlock: TEMPAE_clean_linker_10, # of connection points: 2
#     Edge 46, Type (0, 0), BuildingBlock: TEMPAE_clean_linker_10, # of connection points: 2
#     Edge 47, Type (0, 0), BuildingBlock: TEMPAE_clean_linker_10, # of connection points: 2
#     Edge 48, Type (0, 0), BuildingBlock: TEMPAE_clean_linker_10, # of connection points: 2
#     Edge 49, Type (0, 0), BuildingBlock: TEMPAE_clean_linker_10, # of connection points: 2
#     Edge 50, Type (0, 0), BuildingBlock: TEMPAE_clean_linker_10, # of connection points: 2
#     Edge 51, Type (0, 0), BuildingBlock: TEMPAE_clean_linker_10, # of connection points: 2
#     Edge 52, Type (0, 0), BuildingBlock: TEMPAE_clean_linker_10, # of connection points: 2
#     Edge 53, Type (0, 0), BuildingBlock: TEMPAE_clean_linker_10, # of connection points: 2
# Relax obj value: 0.394
# Max RMSD: 0.206
# Mean RMSD: 0.203
data_MOF--net-unp--node1-NAHDIM_clean_sbu_0--edge1-TEMPAE_clean_linker_10
_symmetry_space_group_name_H-M    P1
_symmetry_Int_Tables_number       1
_symmetry_cell_setting            triclinic
loop_
_symmetry_equiv_pos_as_xyz
'x, y, z'
_cell_length_a     46.856679
_cell_length_b     46.850611
_cell_length_c     63.162655
_cell_angle_alpha  90.17176
_cell_angle_beta   89.844585
_cell_angle_gamma 120.25878
loop_
_atom_site_label
_atom_site_type_symbol
_atom_site_fract_x
_atom_site_fract_y
_atom_site_fract_z
_atom_type_partial_charge
C0 C 0.23183 0.23037 0.12904 0.0
O1 O 0.22929 0.20273 0.12204 0.0
O2 O 0.16116 0.15492 0.12259 0.0
Zn3 Zn 0.17011 0.19831 0.11038 0.0
O4 O 0.18252 0.19819 0.08 0.0
C5 C 0.1134 0.19758 0.12918 0.0
O6 O 0.12886 0.19997 0.147 0.0
O7 O 0.20803 0.23551 0.12592 0.0
C8 C 0.20116 0.22398 0.06936 0.0
O9 O 0.21314 0.25315 0.07831 0.0
C10 C 0.13517 0.12894 0.11662 0.0
O11 O 0.11505 0.13171 0.10343 0.0
O12 O 0.12767 0.19904 0.11175 0.0
C13 C 0.78131 0.00016 0.15198 0.0
O14 O 0.81012 0.01377 0.16151 0.0
O15 O 0.85982 0.02666 0.12852 0.0
Zn16 Zn 0.81649 0.98838 0.11869 0.0
O17 O 0.81168 0.9941 0.08758 0.0
C18 C 0.82891 0.94298 0.14101 0.0
O19 O 0.83391 0.96376 0.1565 0.0
O20 O 0.77813 0.98685 0.13395 0.0
C21 C 0.83703 0.00888 0.07578 0.0
O22 O 0.86643 0.01946 0.08399 0.0
C23 C 0.86871 0.05701 0.12644 0.0
O24 O 0.84789 0.06504 0.11839 0.0
O25 O 0.81918 0.9474 0.1232 0.0
C26 C 0.99598 0.76943 0.12786 0.0
O27 O 0.97674 0.7677 0.11222 0.0
O28 O 0.98607 0.84502 0.12678 0.0
Zn29 Zn 0.02206 0.83595 0.11779 0.0
O30 O 0.01757 0.82584 0.08646 0.0
C31 C 0.06588 0.89356 0.1403 0.0
O32 O 0.04382 0.87745 0.15512 0.0
O33 O 0.01914 0.79761 0.13374 0.0
C34 C 0.99771 0.83034 0.07521 0.0
O35 O 0.98067 0.84242 0.08409 0.0
C36 C 0.95891 0.82761 0.1365 0.0
O37 O 0.95036 0.79761 0.1427 0.0
O38 O 0.06394 0.87875 0.12301 0.0
C39 C 0.22748 0.22962 0.85233 0.0
O40 O 0.19915 0.22669 0.85806 0.0
O41 O 0.15223 0.16033 0.86364 0.0
Zn42 Zn 0.19687 0.16831 0.87266 0.0
O43 O 0.20073 0.18012 0.90342 0.0
C44 C 0.18864 0.11109 0.85103 0.0
O45 O 0.18434 0.12622 0.83493 0.0
O46 O 0.23304 0.20639 0.85662 0.0
C47 C 0.22625 0.18907 0.91471 0.0
O48 O 0.25259 0.19058 0.90619 0.0
C49 C 0.12728 0.13569 0.87192 0.0
O50 O 0.13207 0.11653 0.88481 0.0
O51 O 0.19678 0.12572 0.86884 0.0
C52 C 0.77724 0.00458 0.8464 0.0
O53 O 0.79279 0.99226 0.83585 0.0
O54 O 0.82858 0.97786 0.86847 0.0
Zn55 Zn 0.82946 0.02024 0.87539 0.0
O56 O 0.82885 0.02118 0.90714 0.0
C57 C 0.89308 0.08081 0.87509 0.0
O58 O 0.88356 0.08548 0.89371 0.0
O59 O 0.78942 0.01958 0.86373 0.0
C60 C 0.81999 0.03712 0.91913 0.0
O61 O 0.81041 0.05657 0.91077 0.0
C62 C 0.85367 0.97738 0.87559 0.0
O63 O 0.87625 0.00343 0.88586 0.0
O64 O 0.87271 0.05656 0.86383 0.0
C65 C 0.00779 0.77068 0.87006 0.0
O66 O 0.026 0.78902 0.88589 0.0
O67 O 0.02046 0.85808 0.86538 0.0
Zn68 Zn 0.98267 0.81395 0.87455 0.0
O69 O 0.98518 0.81383 0.90627 0.0
C70 C 0.91699 0.80649 0.87709 0.0
O71 O 0.91523 0.79275 0.8955 0.0
O72 O 0.98626 0.7764 0.86214 0.0
C73 C 0.97194 0.78848 0.91809 0.0
O74 O 0.95413 0.75905 0.90955 0.0
C75 C 0.0489 0.86622 0.85812 0.0
O76 O 0.05705 0.84349 0.8551 0.0
O77 O 0.94188 0.81445 0.86526 0.0
C78 C 0.87401 0.56367 0.48981 0.0
O79 O 0.85908 0.53669 0.5013 0.0
O80 O 0.82288 0.48195 0.47207 0.0
Zn81 Zn 0.82517 0.52235 0.45939 0.0
O82 O 0.83492 0.52081 0.4286 0.0
C83 C 0.75834 0.49054 0.45313 0.0
O84 O 0.76823 0.4722 0.44339 0.0
O85 O 0.86221 0.56396 0.4718 0.0
C86 C 0.82672 0.53367 0.4139 0.0
O87 O 0.81182 0.55023 0.41873 0.0
C88 C 0.84371 0.47333 0.46693 0.0
O89 O 0.86914 0.49328 0.45512 0.0
O90 O 0.77987 0.5169 0.46225 0.0
C91 C 0.41109 0.31675 0.46183 0.0
O92 O 0.42449 0.333 0.44426 0.0
O93 O 0.50202 0.34569 0.46377 0.0
Zn94 Zn 0.46175 0.30337 0.45445 0.0
O95 O 0.45676 0.30651 0.42292 0.0
C96 C 0.5005 0.27478 0.45312 0.0
O97 O 0.51749 0.30284 0.44289 0.0
O98 O 0.42219 0.29939 0.46983 0.0
C99 C 0.45565 0.28635 0.409 0.0
O100 O 0.45648 0.2599 0.41484 0.0
C101 C 0.51402 0.37265 0.45355 0.0
O102 O 0.49802 0.3744 0.43702 0.0
O103 O 0.47227 0.2673 0.46051 0.0
C104 C 0.67171 0.09783 0.45539 0.0
O105 O 0.65681 0.09675 0.43758 0.0
O106 O 0.65033 0.16729 0.46125 0.0
Zn107 Zn 0.68945 0.16444 0.45077 0.0
O108 O 0.68449 0.15851 0.41916 0.0
C109 C 0.72873 0.23174 0.44729 0.0
O110 O 0.70427 0.22395 0.43405 0.0
O111 O 0.68935 0.12561 0.46442 0.0
C112 C 0.70781 0.1663 0.40602 0.0
O113 O 0.73819 0.1787 0.41299 0.0
C114 C 0.62243 0.15215 0.45205 0.0
O115 O 0.61828 0.1321 0.43626 0.0
O116 O 0.72943 0.20864 0.45737 0.0
C117 C 0.91411 0.56406 0.21325 0.0
O118 O 0.90348 0.56429 0.23247 0.0
O119 O 0.82321 0.49039 0.21004 0.0
Zn120 Zn 0.86729 0.4963 0.21836 0.0
O121 O 0.87074 0.50225 0.24992 0.0
C122 C 0.85487 0.4409 0.19281 0.0
O123 O 0.84966 0.45799 0.17844 0.0
O124 O 0.90318 0.53657 0.20369 0.0
C125 C 0.84623 0.48261 0.26126 0.0
O126 O 0.82051 0.45778 0.25211 0.0
C127 C 0.81212 0.50805 0.21764 0.0
O128 O 0.83077 0.53245 0.23054 0.0
O129 O 0.86566 0.45387 0.21086 0.0
C130 C 0.44376 0.36222 0.20474 0.0
O131 O 0.44537 0.36689 0.22531 0.0
O132 O 0.50447 0.31694 0.20128 0.0
Zn133 Zn 0.49986 0.35445 0.21265 0.0
O134 O 0.48503 0.34329 0.24302 0.0
C135 C 0.56638 0.38886 0.2212 0.0
O136 O 0.55524 0.36078 0.23138 0.0
O137 O 0.46588 0.35848 0.19561 0.0
C138 C 0.49753 0.36397 0.2581 0.0
O139 O 0.52045 0.39457 0.25399 0.0
C140 C 0.48201 0.28677 0.19989 0.0
O141 O 0.45154 0.27794 0.20524 0.0
O142 O 0.54588 0.39402 0.21119 0.0
C143 C 0.63401 0.08293 0.2 0.0
O144 O 0.61895 0.075 0.21844 0.0
O145 O 0.67283 0.1902 0.19924 0.0
Zn146 Zn 0.63802 0.14495 0.20873 0.0
O147 O 0.64704 0.14115 0.23933 0.0
C148 C 0.5839 0.14675 0.18848 0.0
O149 O 0.60049 0.14887 0.17118 0.0
O150 O 0.64223 0.1109 0.19202 0.0
C151 C 0.65464 0.16556 0.25152 0.0
O152 O 0.6553 0.19192 0.24383 0.0
C153 C 0.70209 0.19773 0.19424 0.0
O154 O 0.71017 0.17464 0.19418 0.0
O155 O 0.59419 0.14247 0.20611 0.0
C156 C 0.53842 0.89565 0.81326 0.0
O157 O 0.5196 0.86868 0.82414 0.0
O158 O 0.48682 0.81656 0.79189 0.0
Zn159 Zn 0.49246 0.85893 0.78007 0.0
O160 O 0.50347 0.86046 0.7491 0.0
C161 C 0.43346 0.84803 0.8008 0.0
O162 O 0.44879 0.84534 0.81739 0.0
O163 O 0.53022 0.89785 0.79445 0.0
C164 C 0.4936 0.83376 0.73878 0.0
O165 O 0.47521 0.80537 0.74837 0.0
C166 C 0.50955 0.80936 0.79291 0.0
O167 O 0.53968 0.83134 0.78703 0.0
O168 O 0.44862 0.85646 0.78318 0.0
C169 C 0.09199 0.64829 0.78621 0.0
O170 O 0.10233 0.65973 0.76706 0.0
O171 O 0.18341 0.66489 0.78913 0.0
Zn172 Zn 0.13897 0.62809 0.7798 0.0
O173 O 0.13668 0.63439 0.74859 0.0
C174 C 0.14564 0.57995 0.80355 0.0
O175 O 0.14776 0.59927 0.81933 0.0
O176 O 0.10323 0.63176 0.79524 0.0
C177 C 0.15807 0.63457 0.73612 0.0
O178 O 0.18025 0.628 0.74365 0.0
C179 C 0.19064 0.69465 0.79202 0.0
O180 O 0.16764 0.70259 0.78974 0.0
O181 O 0.139 0.58595 0.78517 0.0
C182 C 0.36923 0.45095 0.79011 0.0
O183 O 0.37619 0.45585 0.76982 0.0
O184 O 0.32773 0.5151 0.79853 0.0
Zn185 Zn 0.36285 0.50826 0.78528 0.0
O186 O 0.34994 0.49512 0.7548 0.0
C187 C 0.41555 0.567 0.80393 0.0
O188 O 0.40059 0.55188 0.82151 0.0
O189 O 0.36474 0.4717 0.80043 0.0
C190 C 0.33031 0.50207 0.74532 0.0
O191 O 0.31919 0.51913 0.75533 0.0
C192 C 0.29837 0.49196 0.80211 0.0
O193 O 0.29054 0.46123 0.79847 0.0
O194 O 0.40505 0.55187 0.78642 0.0
C195 C 0.56424 0.88652 0.53464 0.0
O196 O 0.54159 0.88397 0.54807 0.0
O197 O 0.48272 0.81793 0.5293 0.0
Zn198 Zn 0.52393 0.81929 0.53958 0.0
O199 O 0.52182 0.82141 0.57127 0.0
C200 C 0.52216 0.75689 0.5429 0.0
O201 O 0.53369 0.76766 0.56198 0.0
O202 O 0.56313 0.86025 0.52822 0.0
C203 C 0.546 0.83272 0.58404 0.0
O204 O 0.57599 0.84355 0.5767 0.0
C205 C 0.45574 0.79235 0.53448 0.0
O206 O 0.45686 0.76922 0.54554 0.0
O207 O 0.51997 0.77642 0.52997 0.0
C208 C 0.11542 0.68916 0.51081 0.0
O209 O 0.13048 0.67629 0.5003 0.0
O210 O 0.16698 0.66216 0.53147 0.0
Zn211 Zn 0.16659 0.70319 0.54063 0.0
O212 O 0.16024 0.69784 0.57209 0.0
C213 C 0.2247 0.74233 0.51619 0.0
O214 O 0.20698 0.72026 0.50173 0.0
O215 O 0.12791 0.70425 0.52806 0.0
C216 C 0.1822 0.71485 0.58575 0.0
O217 O 0.21066 0.73973 0.57951 0.0
C218 C 0.19144 0.66007 0.5381 0.0
O219 O 0.21435 0.68465 0.54924 0.0
O220 O 0.21103 0.74217 0.53363 0.0
C221 C 0.30806 0.42059 0.54429 0.0
O222 O 0.328 0.4429 0.55798 0.0
O223 O 0.32634 0.50338 0.53795 0.0
Zn224 Zn 0.28388 0.4634 0.54703 0.0
O225 O 0.28521 0.46602 0.57877 0.0
C226 C 0.2249 0.46836 0.54702 0.0
O227 O 0.22185 0.4571 0.56641 0.0
O228 O 0.28413 0.42294 0.53691 0.0
C229 C 0.27168 0.44241 0.59192 0.0
O230 O 0.25313 0.41202 0.58499 0.0
C231 C 0.32893 0.53091 0.54286 0.0
O232 O 0.30403 0.53091 0.55248 0.0
O233 O 0.24745 0.46951 0.53523 0.0
C234 C 0.41238 0.35211 0.17101 0.0
C235 C 0.41315 0.35393 0.19317 0.0
C236 C 0.38226 0.33748 0.16006 0.0
C237 C 0.35231 0.32385 0.17162 0.0
C238 C 0.35312 0.32819 0.19383 0.0
C239 C 0.38362 0.34348 0.20435 0.0
C240 C 0.38246 0.33407 0.13629 0.0
C241 C 0.32176 0.31385 0.20677 0.0
C242 C 0.27039 0.28774 0.14233 0.0
C243 C 0.26194 0.25456 0.1404 0.0
C244 C 0.29982 0.31085 0.15245 0.0
C245 C 0.32077 0.30023 0.16108 0.0
C246 C 0.3119 0.26659 0.15952 0.0
C247 C 0.28277 0.24428 0.14905 0.0
C248 C 0.30881 0.3466 0.15356 0.0
C249 C 0.33327 0.25411 0.16881 0.0
H250 H 0.43519 0.36061 0.16226 0.0
H251 H 0.38402 0.34494 0.22148 0.0
H252 H 0.3754 0.3083 0.13217 0.0
H253 H 0.36419 0.33933 0.12884 0.0
H254 H 0.40723 0.35091 0.12942 0.0
H255 H 0.32642 0.32393 0.22314 0.0
H256 H 0.30336 0.31878 0.19919 0.0
H257 H 0.31066 0.28663 0.20771 0.0
H258 H 0.25439 0.29578 0.13554 0.0
H259 H 0.2762 0.2186 0.14775 0.0
H260 H 0.33218 0.36211 0.14479 0.0
H261 H 0.31313 0.35529 0.17022 0.0
H262 H 0.28929 0.35064 0.14675 0.0
H263 H 0.35785 0.26649 0.16102 0.0
H264 H 0.32216 0.22698 0.16691 0.0
H265 H 0.33731 0.26017 0.18594 0.0
C266 C 0.76034 0.026 0.17759 0.0
C267 C 0.75427 0.00434 0.16062 0.0
C268 C 0.73653 0.03397 0.18402 0.0
C269 C 0.70579 0.01962 0.17337 0.0
C270 C 0.69869 0.9961 0.15715 0.0
C271 C 0.72312 0.98886 0.15087 0.0
C272 C 0.74506 0.05923 0.20139 0.0
C273 C 0.66597 0.97984 0.14571 0.0
C274 C 0.6421 0.03402 0.20087 0.0
C275 C 0.64734 0.06294 0.19079 0.0
C276 C 0.65948 0.01826 0.19452 0.0
C277 C 0.68276 0.03196 0.17785 0.0
C278 C 0.68648 0.05981 0.16672 0.0
C279 C 0.66858 0.07485 0.17325 0.0
C280 C 0.65436 0.98817 0.20646 0.0
C281 C 0.71102 0.07514 0.14881 0.0
H282 H 0.78427 0.03796 0.18527 0.0
H283 H 0.71811 0.97181 0.13788 0.0
H284 H 0.74648 0.0818 0.19473 0.0
H285 H 0.72548 0.0495 0.2137 0.0
H286 H 0.76905 0.06631 0.20906 0.0
H287 H 0.66252 0.95875 0.13574 0.0
H288 H 0.64523 0.97085 0.15716 0.0
H289 H 0.66461 0.99819 0.13535 0.0
H290 H 0.6255 0.02447 0.21432 0.0
H291 H 0.67261 0.09702 0.16525 0.0
H292 H 0.67608 0.99502 0.2167 0.0
H293 H 0.65216 0.96879 0.19533 0.0
H294 H 0.63195 0.97763 0.21662 0.0
H295 H 0.73649 0.08571 0.15508 0.0
H296 H 0.70905 0.09511 0.14074 0.0
H297 H 0.70728 0.0561 0.13692 0.0
C298 C 0.9483 0.59631 0.18212 0.0
C299 C 0.93403 0.59553 0.20181 0.0
C300 C 0.96336 0.62531 0.16996 0.0
C301 C 0.96341 0.65382 0.17752 0.0
C302 C 0.95055 0.65361 0.19785 0.0
C303 C 0.93633 0.62455 0.20983 0.0
C304 C 0.97766 0.62494 0.14859 0.0
C305 C 0.94969 0.68334 0.20636 0.0
C306 C 0.01283 0.73859 0.15234 0.0
C307 C 0.98884 0.73925 0.13947 0.0
C308 C 0.00546 0.7103 0.16412 0.0
C309 C 0.97314 0.68251 0.16335 0.0
C310 C 0.94905 0.6829 0.15008 0.0
C311 C 0.95732 0.71114 0.13812 0.0
C312 C 0.03195 0.7104 0.17771 0.0
C313 C 0.91412 0.65397 0.14911 0.0
H314 H 0.9469 0.57402 0.17595 0.0
H315 H 0.92541 0.62418 0.22505 0.0
H316 H 0.96124 0.62484 0.13594 0.0
H317 H 0.00219 0.64747 0.14645 0.0
H318 H 0.98033 0.60284 0.14648 0.0
H319 H 0.94117 0.67999 0.22307 0.0
H320 H 0.97451 0.70576 0.20535 0.0
H321 H 0.93269 0.68784 0.19659 0.0
H322 H 0.03733 0.76021 0.15324 0.0
H323 H 0.93865 0.71157 0.12825 0.0
H324 H 0.03347 0.68786 0.17465 0.0
H325 H 0.02562 0.71007 0.19468 0.0
H326 H 0.05662 0.73248 0.17482 0.0
H327 H 0.91425 0.63114 0.1446 0.0
H328 H 0.89859 0.65796 0.1376 0.0
H329 H 0.90245 0.64973 0.16498 0.0
C330 C 0.35092 0.39105 0.78669 0.0
C331 C 0.35927 0.4185 0.79968 0.0
C332 C 0.33409 0.35892 0.79496 0.0
C333 C 0.32589 0.3543 0.81675 0.0
C334 C 0.33728 0.38208 0.83027 0.0
C335 C 0.35369 0.4139 0.82154 0.0
C336 C 0.3224 0.32995 0.78002 0.0
C337 C 0.32963 0.3782 0.85367 0.0
C338 C 0.2435 0.28173 0.83306 0.0
C339 C 0.25275 0.26025 0.84196 0.0
C340 C 0.26709 0.31195 0.82429 0.0
C341 C 0.30087 0.32115 0.82467 0.0
C342 C 0.31038 0.2993 0.83323 0.0
C343 C 0.2861 0.26891 0.84169 0.0
C344 C 0.25584 0.33436 0.81502 0.0
C345 C 0.3462 0.30846 0.83405 0.0
H346 H 0.35534 0.39441 0.76978 0.0
H347 H 0.36055 0.43507 0.83171 0.0
H348 H 0.32603 0.31032 0.78702 0.0
H349 H 0.29555 0.31912 0.77711 0.0
H350 H 0.33545 0.33738 0.76455 0.0
H351 H 0.3447 0.40172 0.86245 0.0
H352 H 0.30315 0.37007 0.8561 0.0
H353 H 0.33406 0.35901 0.86055 0.0
H354 H 0.21772 0.27503 0.83305 0.0
H355 H 0.29336 0.25239 0.84865 0.0
H356 H 0.26483 0.34095 0.79849 0.0
H357 H 0.26647 0.35768 0.82425 0.0
H358 H 0.22851 0.32279 0.81504 0.0
H359 H 0.35778 0.31632 0.8182 0.0
H360 H 0.34924 0.28767 0.83962 0.0
H361 H 0.35987 0.32972 0.84494 0.0
C362 C 0.72667 0.97258 0.82444 0.0
C363 C 0.74362 0.9965 0.84008 0.0
C364 C 0.69316 0.96084 0.82044 0.0
C365 C 0.67633 0.97371 0.83215 0.0
C366 C 0.69381 -0.00061 0.84698 0.0
C367 C 0.72726 0.01035 0.8509 0.0
C368 C 0.67535 0.93333 0.8045 0.0
C369 C 0.67686 0.01421 0.85941 0.0
C370 C 0.59229 0.94841 0.80924 0.0
C371 C 0.57204 0.91957 0.82081 0.0
C372 C 0.62611 0.96789 0.81377 0.0
C373 C 0.63993 0.95799 0.83005 0.0
C374 C 0.61915 0.93031 0.84277 0.0
C375 C 0.58537 0.91156 0.83809 0.0
C376 C 0.64735 0.99774 0.80023 0.0
C377 C 0.63295 0.91892 0.86029 0.0
H378 H 0.73914 0.96183 0.81596 0.0
H379 H 0.74031 0.02909 0.86289 0.0
H380 H 0.65636 0.91074 0.8127 0.0
H381 H 0.66238 0.94025 0.79273 0.0
H382 H 0.69239 0.92729 0.79594 0.0
H383 H 0.6948 0.03706 0.86793 0.0
H384 H 0.6617 0.0201 0.84879 0.0
H385 H 0.65991 0.99604 0.87122 0.0
H386 H 0.58206 0.95499 0.79602 0.0
H387 H 0.56988 0.88944 0.84719 0.0
H388 H 0.66204 0.9919 0.78907 0.0
H389 H 0.66501 0.01889 0.81014 0.0
H390 H 0.63229 0.00538 0.79086 0.0
H391 H 0.64848 0.90958 0.85332 0.0
H392 H 0.61318 0.89889 0.86994 0.0
H393 H 0.64896 0.93983 0.87089 0.0
C394 C 0.05758 0.64491 0.8176 0.0
C395 C 0.07229 0.65945 0.79821 0.0
C396 C 0.04224 0.65817 0.83014 0.0
C397 C 0.04247 0.68704 0.82331 0.0
C398 C 0.0561 0.70094 0.80335 0.0
C399 C 0.07048 0.68674 0.79095 0.0
C400 C 0.02705 0.64213 0.85105 0.0
C401 C 0.05731 0.73204 0.79562 0.0
C402 C 0.99156 0.72141 0.84695 0.0
C403 C 0.01491 0.74643 0.86009 0.0
C404 C -0.0006 0.7002 0.83592 0.0
C405 C 0.03158 0.70484 0.83767 0.0
C406 C 0.05477 0.72925 0.85155 0.0
C407 C 0.046 0.74951 0.86278 0.0
C408 C 0.97375 0.6738 0.82173 0.0
C409 C 0.08955 0.73537 0.85357 0.0
H410 H 0.05865 0.62361 0.82318 0.0
H411 H 0.08181 0.69813 0.77599 0.0
H412 H 0.04281 0.65789 0.8642 0.0
H413 H 0.00236 0.63969 0.85296 0.0
H414 H 0.02443 0.6173 0.85257 0.0
H415 H 0.06741 0.73879 0.7793 0.0
H416 H 0.03225 0.72896 0.79585 0.0
H417 H 0.07306 0.7529 0.80636 0.0
H418 H 0.96734 0.71873 0.84505 0.0
H419 H 0.06413 0.76884 0.87291 0.0
H420 H 0.97292 0.64995 0.82419 0.0
H421 H 0.98041 0.68087 0.80492 0.0
H422 H 0.94871 0.67013 0.82458 0.0
H423 H 0.08909 0.71209 0.85747 0.0
H424 H 0.10395 0.75402 0.86595 0.0
H425 H 0.10264 0.74426 0.83822 0.0
C426 C 0.92394 0.61896 0.48295 0.0
C427 C 0.90769 0.59032 0.4954 0.0
C428 C 0.95788 0.64123 0.4854 0.0
C429 C 0.97593 0.63436 0.50043 0.0
C430 C 0.95917 0.60684 0.51409 0.0
C431 C 0.92518 0.58528 0.51151 0.0
C432 C 0.97473 0.67081 0.47096 0.0
C433 C 0.97755 0.59869 0.53036 0.0
C434 C 0.06393 0.65571 0.48991 0.0
C435 C 0.08123 0.68013 0.50522 0.0
C436 C 0.02978 0.6419 0.48737 0.0
C437 C 0.01262 0.65315 0.50024 0.0
C438 C 0.03037 0.67973 0.51444 0.0
C439 C 0.0645 0.6928 0.51688 0.0
C440 C 0.01175 0.61361 0.47199 0.0
C441 C 0.01306 0.69297 0.52801 0.0
H442 H 0.91048 0.62325 0.47063 0.0
H443 H 0.91279 0.56335 0.52129 0.0
H444 H 0.99272 0.69311 0.47988 0.0
H445 H 0.98865 0.6661 0.45854 0.0
H446 H 0.9567 0.67603 0.46305 0.0
H447 H 0.96056 0.57809 0.5409 0.0
H448 H 0.99401 0.59151 0.52221 0.0
H449 H 0.99336 0.62064 0.54027 0.0
H450 H 0.07668 0.64594 0.48072 0.0
H451 H 0.07779 0.71197 0.52857 0.0
H452 H 0.99569 0.6183 0.46143 0.0
H453 H 0.99556 0.59056 0.48087 0.0
H454 H 0.02896 0.6095 0.46205 0.0
H455 H 0.99467 0.69579 0.5186 0.0
H456 H 0.03075 0.7172 0.53523 0.0
H457 H -0.00049 0.67525 0.54096 0.0
C458 C 0.3482 0.40136 0.53859 0.0
C459 C 0.3165 0.39657 0.53538 0.0
C460 C 0.35886 0.3824 0.52763 0.0
C461 C 0.33699 0.35752 0.51347 0.0
C462 C 0.30403 0.35066 0.51153 0.0
C463 C 0.29425 0.3706 0.52233 0.0
C464 C 0.39435 0.39082 0.52999 0.0
C465 C 0.2797 0.32357 0.49714 0.0
C466 C 0.382 0.34835 0.46674 0.0
C467 C 0.38738 0.32298 0.47351 0.0
C468 C 0.364 0.35858 0.47913 0.0
C469 C 0.35037 0.34255 0.4986 0.0
C470 C 0.3534 0.31516 0.50475 0.0
C471 C 0.37226 0.30589 0.49222 0.0
C472 C 0.36165 0.38813 0.47205 0.0
C473 C 0.33826 0.2968 0.52507 0.0
H474 H 0.36549 0.42125 0.54875 0.0
H475 H 0.26952 0.36647 0.52004 0.0
H476 H 0.39559 0.36828 0.53342 0.0
H477 H 0.40778 0.40126 0.51491 0.0
H478 H 0.40739 0.40911 0.54282 0.0
H479 H 0.25385 0.31703 0.50061 0.0
H480 H 0.28525 0.33188 0.48044 0.0
H481 H 0.28174 0.30108 0.49867 0.0
H482 H 0.39335 0.36154 0.45222 0.0
H483 H 0.37596 0.28596 0.49741 0.0
H484 H 0.37549 0.40894 0.48325 0.0
H485 H 0.33557 0.3822 0.47217 0.0
H486 H 0.37188 0.39652 0.45591 0.0
H487 H 0.3533 0.31176 0.53869 0.0
H488 H 0.33716 0.27256 0.52547 0.0
H489 H 0.31294 0.29267 0.52718 0.0
C490 C 0.68064 0.06702 0.48461 0.0
C491 C 0.66397 0.06674 0.46613 0.0
C492 C 0.67027 0.03793 0.49629 0.0
C493 C 0.64224 0.00821 0.4895 0.0
C494 C 0.62653 0.00749 0.47024 0.0
C495 C 0.6378 0.03669 0.4587 0.0
C496 C 0.6882 0.0394 0.51644 0.0
C497 C 0.59634 0.97638 0.46253 0.0
C498 C 0.61305 0.92272 0.51169 0.0
C499 C 0.5877 0.91898 0.52532 0.0
C500 C 0.63279 0.9526 0.50094 0.0
C501 C 0.62649 0.97894 0.50361 0.0
C502 C 0.60208 0.97581 0.51818 0.0
C503 C 0.5832 0.94599 0.52898 0.0
C504 C 0.65923 0.9554 0.48596 0.0
C505 C 0.59436 0.00321 0.52136 0.0
H506 H 0.70116 0.09011 0.4903 0.0
H507 H 0.62489 0.03619 0.44436 0.0
H508 H 0.67312 0.03844 0.53028 0.0
H509 H 0.69192 0.01786 0.51754 0.0
H510 H 0.71262 0.06245 0.51752 0.0
H511 H 0.58848 0.9794 0.44652 0.0
H512 H 0.60118 0.95553 0.46206 0.0
H513 H 0.57554 0.96952 0.4737 0.0
H514 H 0.61691 0.90205 0.50899 0.0
H515 H 0.56381 0.9434 0.53959 0.0
H516 H 0.6823 0.97952 0.488 0.0
H517 H 0.65089 0.95412 0.46939 0.0
H518 H 0.66482 0.93524 0.48838 0.0
H519 H 0.61719 0.02674 0.52517 0.0
H520 H 0.57611 0.99762 0.53425 0.0
H521 H 0.58421 0.00709 0.50649 0.0
C522 C 0.0614 0.18518 0.14824 0.0
C523 C 0.0776 0.1861 0.12932 0.0
C524 C 0.02674 0.16894 0.14924 0.0
C525 C 0.00795 0.15276 0.13099 0.0
C526 C 0.02423 0.15546 0.11156 0.0
C527 C 0.05884 0.17237 0.11091 0.0
C528 C 0.01026 0.16736 0.17011 0.0
C529 C 0.00516 0.13834 0.09176 0.0
C530 C 0.92635 0.07291 0.13642 0.0
C531 C 0.90365 0.08251 0.13031 0.0
C532 C 0.96023 0.09588 0.13754 0.0
C533 C 0.97177 0.12944 0.13267 0.0
C534 C 0.94887 0.13969 0.12767 0.0
C535 C 0.91503 0.11604 0.12643 0.0
C536 C 0.98382 0.08384 0.14287 0.0
C537 C 0.96021 0.17535 0.12274 0.0
H538 H 0.07574 0.19604 0.16248 0.0
H539 H 0.07109 0.173 0.09619 0.0
H540 H 0.98935 0.17181 0.16782 0.0
H541 H 5e-05 0.14231 0.17699 0.0
H542 H 0.02783 0.18567 0.18166 0.0
H543 H 0.02131 0.14534 0.07754 0.0
H544 H 0.99302 0.11117 0.09386 0.0
H545 H 0.98543 0.14431 0.08885 0.0
H546 H 0.91783 0.04711 0.13959 0.0
H547 H 0.89764 0.12372 0.12183 0.0
H548 H 0.0001 0.09843 0.15617 0.0
H549 H -8e-05 0.08738 0.12903 0.0
H550 H 0.97074 0.05728 0.1473 0.0
H551 H 0.97825 0.19191 0.13475 0.0
H552 H 0.93926 0.18009 0.12215 0.0
H553 H 0.9729 0.18196 0.10716 0.0
C554 C 0.83891 0.89952 0.1256 0.0
C555 C 0.8401 0.91865 0.14308 0.0
C556 C 0.85464 0.88078 0.12614 0.0
C557 C 0.87189 0.88113 0.14459 0.0
C558 C 0.87109 0.8984 0.1628 0.0
C559 C 0.85519 0.91697 0.16183 0.0
C560 C 0.85479 0.86255 0.10642 0.0
C561 C 0.889 0.89919 0.18283 0.0
C562 C 0.90435 0.82132 0.14727 0.0
C563 C 0.93679 0.84124 0.13988 0.0
C564 C 0.88293 0.83402 0.14928 0.0
C565 C 0.89434 0.86736 0.14382 0.0
C566 C 0.92731 0.88774 0.13686 0.0
C567 C 0.94806 0.87444 0.13497 0.0
C568 C 0.84797 0.81166 0.15682 0.0
C569 C 0.94056 0.92351 0.13099 0.0
H570 H 0.82707 0.90042 0.11111 0.0
H571 H 0.85598 0.93142 0.17548 0.0
H572 H 0.87987 0.87535 0.0993 0.0
H573 H 0.84875 0.83705 0.11035 0.0
H574 H 0.83693 0.86129 0.09438 0.0
H575 H 0.88203 0.90955 0.19641 0.0
H576 H 0.88375 0.87402 0.18701 0.0
H577 H 0.91604 0.91471 0.18027 0.0
H578 H 0.89549 0.79565 0.1511 0.0
H579 H 0.97317 0.89013 0.12941 0.0
H580 H 0.83039 0.80835 0.14401 0.0
H581 H 0.84242 0.82306 0.17046 0.0
H582 H 0.8435 0.78694 0.16162 0.0
H583 H 0.9263 0.92506 0.11749 0.0
H584 H 0.9671 0.93625 0.1265 0.0
H585 H 0.93756 0.93702 0.14447 0.0
C586 C 0.09859 0.06771 0.11785 0.0
C587 C 0.12852 0.0959 0.12333 0.0
C588 C 0.09245 0.03602 0.12293 0.0
C589 C 0.11689 0.03237 0.13371 0.0
C590 C 0.14688 0.06072 0.13974 0.0
C591 C 0.15233 0.09222 0.13449 0.0
C592 C 0.05998 0.00637 0.11639 0.0
C593 C 0.17342 0.05774 0.15128 0.0
C594 C 0.08144 0.94736 0.1578 0.0
C595 C 0.08606 0.93008 0.14122 0.0
C596 C 0.09365 0.98147 0.15635 0.0
C597 C 0.111 0.99863 0.13794 0.0
C598 C 0.11852 0.98194 0.12212 0.0
C599 C 0.10597 0.94783 0.12396 0.0
C600 C 0.0854 0.99843 0.17367 0.0
C601 C 0.13736 -0.00053 0.10237 0.0
H602 H 0.07998 0.07034 0.10935 0.0
H603 H 0.17554 0.11391 0.13878 0.0
H604 H 0.06455 0.9908 0.10521 0.0
H605 H 0.04717 0.99095 0.13042 0.0
H606 H 0.04323 0.01351 0.10865 0.0
H607 H 0.19443 0.08219 0.15603 0.0
H608 H 0.16303 0.04231 0.16565 0.0
H609 H 0.18299 0.04521 0.14097 0.0
H610 H 0.06639 0.93395 0.17132 0.0
H611 H 0.11003 0.93476 0.11119 0.0
H612 H 0.06543 0.00275 0.16815 0.0
H613 H 0.10712 0.02286 0.17752 0.0
H614 H 0.07688 0.98335 0.18833 0.0
H615 H 0.12137 0.00471 0.09209 0.0
H616 H 0.14531 0.98441 0.09318 0.0
H617 H 0.15949 0.02348 0.1064 0.0
C618 C 0.06318 0.92516 0.85681 0.0
C619 C 0.07305 0.90161 0.85437 0.0
C620 C 0.08581 0.95897 0.85469 0.0
C621 C 0.11926 0.96965 0.84996 0.0
C622 C 0.12933 0.94606 0.84693 0.0
C623 C 0.10606 0.91224 0.84917 0.0
C624 C 0.07399 0.98331 0.85799 0.0
C625 C 0.16476 0.9566 0.8418 0.0
C626 C 0.16466 0.0581 0.83064 0.0
C627 C 0.17734 0.07537 0.84969 0.0
C628 C 0.14784 0.02342 0.83011 0.0
C629 C 0.14351 0.00569 0.84909 0.0
C630 C 0.15857 0.02302 0.86799 0.0
C631 C 0.17541 0.05767 0.86805 0.0
C632 C 0.13253 0.00583 0.80958 0.0
C633 C 0.15463 0.00505 0.88856 0.0
H634 H 0.03771 0.91724 0.8607 0.0
H635 H 0.11389 0.89421 0.84725 0.0
H636 H 0.08709 -0.00036 0.87164 0.0
H637 H 0.07975 -0.00069 0.84385 0.0
H638 H 0.04698 0.97089 0.86103 0.0
H639 H 0.16812 0.93519 0.83839 0.0
H640 H 0.17334 0.97335 0.82791 0.0
H641 H 0.18083 0.9706 0.85533 0.0
H642 H 0.16636 0.07156 0.81632 0.0
H643 H 0.18538 0.07078 0.88281 0.0
H644 H 0.10543 0.99572 0.81019 0.0
H645 H 0.13668 0.98474 0.80714 0.0
H646 H 0.1426 0.02265 0.79574 0.0
H647 H 0.12879 0.99422 0.89425 0.0
H648 H 0.17143 0.02173 0.90107 0.0
H649 H 0.15951 0.98442 0.88622 0.0
C650 C 0.06635 0.10224 0.87747 0.0
C651 C 0.09355 0.13003 0.86856 0.0
C652 C 0.03445 0.09756 0.87594 0.0
C653 C 0.02956 0.12127 0.86523 0.0
C654 C 0.05672 0.14889 0.85563 0.0
C655 C 0.08846 0.15296 0.85741 0.0
C656 C 0.00607 0.0676 0.88629 0.0
C657 C 0.05237 0.17452 0.84397 0.0
C658 C 0.93959 0.08802 0.85185 0.0
C659 C 0.92874 0.0976 0.86982 0.0
C660 C 0.97301 0.09768 0.84926 0.0
C661 C 0.99606 0.11739 0.86499 0.0
C662 C 0.98575 0.12958 0.88214 0.0
C663 C 0.95219 0.11959 0.88433 0.0
C664 C 0.98308 0.08451 0.83059 0.0
C665 C 0.00963 0.15091 0.89917 0.0
H666 H 0.07001 0.08429 0.88599 0.0
H667 H 0.10937 0.1745 0.85045 0.0
H668 H 0.99504 0.07556 0.8989 0.0
H669 H 0.98642 0.05329 0.87449 0.0
H670 H 0.01389 0.05098 0.89342 0.0
H671 H 0.07548 0.19316 0.83601 0.0
H672 H 0.0326 0.16252 0.83191 0.0
H673 H 0.04458 0.18751 0.85525 0.0
H674 H 0.92172 0.0713 0.84042 0.0
H675 H 0.94413 0.12743 0.89814 0.0
H676 H 0.98732 0.06443 0.836 0.0
H677 H 0.00653 0.10412 0.82358 0.0
H678 H 0.9638 0.0744 0.8181 0.0
H679 H 0.01661 0.13569 0.9089 0.0
H680 H 0.9988 0.16194 0.90978 0.0
H681 H 0.03261 0.1711 0.89204 0.0
C682 C 0.87502 0.82136 0.88852 0.0
C683 C 0.89566 0.82069 0.87264 0.0
C684 C 0.86187 0.84234 0.88688 0.0
C685 C 0.86945 0.86292 0.86889 0.0
C686 C 0.88699 0.85943 0.85177 0.0
C687 C 0.89991 0.83832 0.85384 0.0
C688 C 0.8429 0.84502 0.90539 0.0
C689 C 0.89516 0.88051 0.83216 0.0
C690 C 0.83232 0.91862 0.86409 0.0
C691 C 0.85746 0.94807 0.87304 0.0
C692 C 0.83578 0.89056 0.86241 0.0
C693 C 0.86502 0.89215 0.86985 0.0
C694 C 0.89059 0.92197 0.8786 0.0
C695 C 0.88648 0.94948 0.88008 0.0
C696 C 0.8081 0.8592 0.85293 0.0
C697 C 0.92231 0.92483 0.88662 0.0
H698 H 0.87118 0.80747 0.90298 0.0
H699 H 0.91532 0.8375 0.8413 0.0
H700 H 0.85927 0.8678 0.9145 0.0
H701 H 0.82146 0.8469 0.89989 0.0
H702 H 0.83393 0.82354 0.91623 0.0
H703 H 0.90298 0.87044 0.81885 0.0
H704 H 0.87367 0.8826 0.82702 0.0
H705 H 0.91568 0.90581 0.83575 0.0
H706 H 0.80982 0.91738 0.85861 0.0
H707 H 0.90611 0.97215 0.88691 0.0
H708 H 0.79789 0.8394 0.86505 0.0
H709 H 0.8176 0.85057 0.83977 0.0
H710 H 0.78775 0.86254 0.84686 0.0
H711 H 0.91678 0.90666 0.89948 0.0
H712 H 0.93984 0.94991 0.89281 0.0
H713 H 0.9347 0.91906 0.87369 0.0
C714 C 0.70019 0.45046 0.44331 0.0
C715 C 0.72267 0.47942 0.45402 0.0
C716 C 0.66613 0.43798 0.44471 0.0
C717 C 0.65408 0.45489 0.4571 0.0
C718 C 0.67657 0.48464 0.46753 0.0
C719 C 0.71072 0.49658 0.4659 0.0
C720 C 0.643 0.40616 0.43329 0.0
C721 C 0.66456 0.50335 0.48078 0.0
C722 C 0.56505 0.42518 0.44327 0.0
C723 C 0.54862 0.39888 0.45753 0.0
C724 C 0.59949 0.4459 0.44413 0.0
C725 C 0.61778 0.4401 0.4596 0.0
C726 C 0.60097 0.41569 0.47527 0.0
C727 C 0.56656 0.39537 0.47406 0.0
C728 C 0.61647 0.47195 0.4273 0.0
C729 C 0.6195 0.40886 0.49215 0.0
H730 H 0.70914 0.43711 0.434 0.0
H731 H 0.72797 0.51901 0.47418 0.0
H732 H 0.62701 0.38697 0.44492 0.0
H733 H 0.62658 0.41001 0.42252 0.0
H734 H 0.65644 0.3966 0.42383 0.0
H735 H 0.68518 0.52755 0.48626 0.0
H736 H 0.64688 0.50764 0.47165 0.0
H737 H 0.65117 0.48846 0.49486 0.0
H738 H 0.55135 0.42836 0.4306 0.0
H739 H 0.55402 0.37544 0.48535 0.0
H740 H 0.62762 0.46305 0.41536 0.0
H741 H 0.63672 0.49512 0.43421 0.0
H742 H 0.59894 0.47756 0.41907 0.0
H743 H 0.63159 0.39602 0.48492 0.0
H744 H 0.60288 0.39303 0.50501 0.0
H745 H 0.63919 0.43225 0.49919 0.0
C746 C 0.49808 0.22336 0.46714 0.0
C747 C 0.51414 0.25249 0.45517 0.0
C748 C 0.51162 0.20262 0.46904 0.0
C749 C 0.5417 0.21124 0.45861 0.0
C750 C 0.55785 0.24055 0.44647 0.0
C751 C 0.54394 0.26077 0.44495 0.0
C752 C 0.4939 0.17166 0.48222 0.0
C753 C 0.58993 0.25064 0.43501 0.0
C754 C 0.60188 0.18332 0.47327 0.0
C755 C 0.59731 0.16168 0.45653 0.0
C756 C 0.58184 0.19751 0.4753 0.0
C757 C 0.55685 0.19006 0.46012 0.0
C758 C 0.55038 0.16617 0.44424 0.0
C759 C 0.57063 0.15214 0.44269 0.0
C760 C 0.58925 0.22253 0.49265 0.0
C761 C 0.52399 0.15755 0.42774 0.0
H762 H 0.47508 0.21686 0.47511 0.0
H763 H 0.55654 0.28318 0.43563 0.0
H764 H 0.48775 0.14969 0.47234 0.0
H765 H 0.51029 0.17242 0.49512 0.0
H766 H 0.47076 0.16846 0.48933 0.0
H767 H 0.59912 0.27404 0.42605 0.0
H768 H 0.6092 0.25392 0.44653 0.0
H769 H 0.58656 0.23094 0.42377 0.0
H770 H 0.62216 0.19047 0.48423 0.0
H771 H 0.56672 0.13522 0.4298 0.0
H772 H 0.56609 0.21867 0.50008 0.0
H773 H 0.60212 0.24775 0.48577 0.0
H774 H 0.60529 0.22136 0.50513 0.0
H775 H 0.5008 0.15358 0.43517 0.0
H776 H 0.51859 0.13505 0.41864 0.0
H777 H 0.53238 0.17842 0.41648 0.0
C778 C 0.85361 0.42639 0.45997 0.0
C779 C 0.83524 0.43861 0.47009 0.0
C780 C 0.84158 0.39226 0.45869 0.0
C781 C 0.81049 0.36999 0.46772 0.0
C782 C 0.79351 0.38235 0.47976 0.0
C783 C 0.80613 0.41654 0.48083 0.0
C784 C 0.86071 0.38008 0.44604 0.0
C785 C 0.76042 0.35946 0.48981 0.0
C786 C 0.75281 0.29117 0.43849 0.0
C787 C 0.75286 0.26696 0.45145 0.0
C788 C 0.7725 0.32478 0.44324 0.0
C789 C 0.79289 0.33458 0.46143 0.0
C790 C 0.79434 0.31041 0.47405 0.0
C791 C 0.77422 0.27676 0.46891 0.0
C792 C 0.77036 0.34975 0.42923 0.0
C793 C 0.81601 0.31997 0.49344 0.0
H794 H 0.87637 0.44328 0.45186 0.0
H795 H 0.79201 0.42577 0.48898 0.0
H796 H 0.86016 0.35867 0.4539 0.0
H797 H 0.84914 0.37172 0.43022 0.0
H798 H 0.88685 0.39978 0.44373 0.0
H799 H 0.75286 0.37265 0.50112 0.0
H800 H 0.74132 0.34821 0.47727 0.0
H801 H 0.761 0.33907 0.49829 0.0
H802 H 0.73666 0.28384 0.42483 0.0
H803 H 0.77442 0.25815 0.47897 0.0
H804 H 0.79536 0.3687 0.42378 0.0
H805 H 0.75997 0.3627 0.43837 0.0
H806 H 0.75457 0.33814 0.41511 0.0
H807 H 0.84111 0.34083 0.48988 0.0
H808 H 0.81815 0.29897 0.49966 0.0
H809 H 0.8054 0.32837 0.50606 0.0
C810 C 0.75967 0.24169 0.18443 0.0
C811 C 0.72739 0.23275 0.19051 0.0
C812 C 0.78431 0.27509 0.18243 0.0
C813 C 0.77648 0.3 0.18684 0.0
C814 C 0.74373 0.29107 0.19242 0.0
C815 C 0.71959 0.25761 0.19407 0.0
C816 C 0.81884 0.28371 0.17614 0.0
C817 C 0.73436 0.31689 0.19734 0.0
C818 C 0.83848 0.38506 0.20718 0.0
C819 C 0.84114 0.40493 0.18985 0.0
C820 C 0.81921 0.35052 0.20596 0.0
C821 C 0.80256 0.3355 0.18688 0.0
C822 C 0.80757 0.35524 0.16878 0.0
C823 C 0.82671 0.38979 0.1705 0.0
C824 C 0.81451 0.33037 0.22564 0.0
C825 C 0.79078 0.3401 0.14803 0.0
H826 H 0.76585 0.22262 0.18154 0.0
H827 H 0.69473 0.25098 0.19874 0.0
H828 H 0.8279 0.30175 0.16293 0.0
H829 H 0.83586 0.29557 0.18967 0.0
H830 H 0.82013 0.2616 0.17121 0.0
H831 H 0.7076 0.30582 0.20085 0.0
H832 H 0.7486 0.33178 0.21123 0.0
H833 H 0.74068 0.33406 0.18379 0.0
H834 H 0.84972 0.39648 0.22216 0.0
H835 H 0.82895 0.40493 0.15695 0.0
H836 H 0.81767 0.30896 0.22199 0.0
H837 H 0.78898 0.32046 0.23171 0.0
H838 H 0.8321 0.34523 0.23839 0.0
H839 H 0.7927 0.31798 0.14427 0.0
H840 H 0.80149 0.35791 0.13472 0.0
H841 H 0.76412 0.33195 0.14927 0.0
C842 C 0.75694 0.47114 0.20131 0.0
C843 C 0.77693 0.49785 0.21462 0.0
C844 C 0.72261 0.45768 0.20083 0.0
C845 C 0.70791 0.47125 0.21399 0.0
C846 C 0.72815 0.49967 0.22631 0.0
C847 C 0.76248 0.51268 0.22647 0.0
C848 C 0.70191 0.42748 0.18735 0.0
C849 C 0.71341 0.51494 0.24047 0.0
C850 C 0.61609 0.43843 0.20583 0.0
C851 C 0.60232 0.41257 0.22058 0.0
C852 C 0.65057 0.45867 0.2039 0.0
C853 C 0.67151 0.45284 0.21708 0.0
C854 C 0.65762 0.42769 0.23259 0.0
C855 C 0.62326 0.40788 0.23412 0.0
C856 C 0.66455 0.48535 0.18725 0.0
C857 C 0.67907 0.42081 0.24708 0.0
H858 H 0.76793 0.45976 0.1919 0.0
H859 H 0.77776 0.53348 0.23669 0.0
H860 H 0.68816 0.40559 0.19773 0.0
H861 H 0.68342 0.43045 0.17818 0.0
H862 H 0.71718 0.42245 0.17615 0.0
H863 H 0.73242 0.53966 0.2464 0.0
H864 H 0.6941 0.5174 0.23194 0.0
H865 H 0.70142 0.49862 0.25429 0.0
H866 H 0.60002 0.44218 0.19533 0.0
H867 H 0.6128 0.38817 0.24571 0.0
H868 H 0.67663 0.47858 0.17465 0.0
H869 H 0.68373 0.50911 0.1942 0.0
H870 H 0.64516 0.48905 0.17986 0.0
H871 H 0.69343 0.41237 0.2376 0.0
H872 H 0.66439 0.40158 0.25906 0.0
H873 H 0.69707 0.44373 0.25546 0.0
C874 C 0.46746 0.22803 0.19308 0.0
C875 C 0.49134 0.2617 0.19464 0.0
C876 C 0.47679 0.20409 0.19004 0.0
C877 C 0.51076 0.2141 0.18886 0.0
C878 C 0.53484 0.24813 0.18967 0.0
C879 C 0.52483 0.27145 0.1924 0.0
C880 C 0.45042 0.16808 0.18883 0.0
C881 C 0.57136 0.25992 0.18858 0.0
C882 C 0.547 0.16257 0.20736 0.0
C883 C 0.55846 0.15668 0.18822 0.0
C884 C 0.52899 0.17904 0.20769 0.0
C885 C 0.52184 0.18943 0.18841 0.0
C886 C 0.53039 0.18057 0.16896 0.0
C887 C 0.54883 0.16446 0.16909 0.0
C888 C 0.52038 0.18801 0.2288 0.0
C889 C 0.52242 0.19042 0.14804 0.0
H890 H 0.44152 0.22031 0.19466 0.0
H891 H 0.54351 0.29738 0.19349 0.0
H892 H 0.45537 0.15577 0.17546 0.0
H893 H 0.45064 0.15538 0.20357 0.0
H894 H 0.42537 0.16475 0.18686 0.0
H895 H 0.58684 0.28731 0.18877 0.0
H896 H 0.57851 0.25005 0.20226 0.0
H897 H 0.57706 0.25056 0.17397 0.0
H898 H 0.55397 0.15634 0.22224 0.0
H899 H 0.55714 0.15956 0.15421 0.0
H900 H 0.49441 0.18247 0.22891 0.0
H901 H 0.53642 0.21495 0.23157 0.0
H902 H 0.52385 0.17463 0.24213 0.0
H903 H 0.49698 0.18644 0.14816 0.0
H904 H 0.5248 0.17637 0.13463 0.0
H905 H 0.53969 0.21713 0.14529 0.0
C906 C 0.25028 0.71224 0.79578 0.0
C907 C 0.22534 0.72045 0.79615 0.0
C908 C 0.28358 0.73658 0.79798 0.0
C909 C 0.29222 0.76998 0.80082 0.0
C910 C 0.26715 0.77835 0.80195 0.0
C911 C 0.23395 0.75347 0.79951 0.0
C912 C 0.30959 0.7266 0.79663 0.0
C913 C 0.27546 0.81365 0.80523 0.0
C914 C 0.37991 0.82264 0.8206 0.0
C915 C 0.39726 0.83436 0.80149 0.0
C916 C 0.34528 0.80361 0.82086 0.0
C917 C 0.3277 0.79597 0.80152 0.0
C918 C 0.34492 0.80989 0.7824 0.0
C919 C 0.3795 0.82908 0.78263 0.0
C920 C 0.32774 0.78973 0.84162 0.0
C921 C 0.32708 0.80235 0.76145 0.0
H922 H 0.24389 0.68681 0.79324 0.0
H923 H 0.21481 0.75999 0.79992 0.0
H924 H 0.32596 0.73882 0.78284 0.0
H925 H 0.32527 0.73485 0.81101 0.0
H926 H 0.29867 0.69945 0.79494 0.0
H927 H 0.25303 0.81565 0.80762 0.0
H928 H 0.29187 0.82453 0.81916 0.0
H929 H 0.28906 0.82867 0.79125 0.0
H930 H 0.39342 0.82692 0.83529 0.0
H931 H 0.39265 0.83823 0.76779 0.0
H932 H 0.31941 0.76299 0.84239 0.0
H933 H 0.30547 0.79221 0.84293 0.0
H934 H 0.34405 0.8022 0.85541 0.0
H935 H 0.31771 0.77609 0.75721 0.0
H936 H 0.34343 0.81811 0.74847 0.0
H937 H 0.30544 0.80589 0.76255 0.0
C938 C 0.23942 0.47537 0.80989 0.0
C939 C 0.27245 0.50027 0.80699 0.0
C940 C 0.21423 0.4832 0.81188 0.0
C941 C 0.22233 0.51662 0.81064 0.0
C942 C 0.25579 0.54189 0.80868 0.0
C943 C 0.28041 0.53342 0.80704 0.0
C944 C 0.17891 0.45565 0.81439 0.0
C945 C 0.26553 0.57788 0.80723 0.0
C946 C 0.16523 0.54372 0.78805 0.0
C947 C 0.15844 0.55697 0.80603 0.0
C948 C 0.18411 0.52825 0.78955 0.0
C949 C 0.19607 0.52552 0.80956 0.0
C950 C 0.1866 0.53594 0.828 0.0
C951 C 0.16803 0.55177 0.826 0.0
C952 C 0.19366 0.5175 0.76948 0.0
C953 C 0.19813 0.53267 0.84967 0.0
H954 H 0.23307 0.4497 0.81002 0.0
H955 H 0.30586 0.55287 0.80491 0.0
H956 H 0.16627 0.46179 0.82696 0.0
H957 H 0.16531 0.45247 0.79941 0.0
H958 H 0.17726 0.43178 0.81834 0.0
H959 H 0.29275 0.59457 0.80667 0.0
H960 H 0.25468 0.58194 0.79275 0.0
H961 H 0.25565 0.58493 0.821 0.0
H962 H 0.15769 0.54735 0.77255 0.0
H963 H 0.16251 0.56153 0.84002 0.0
H964 H 0.18972 0.49222 0.77124 0.0
H965 H 0.22035 0.53434 0.76628 0.0
H966 H 0.17941 0.51786 0.75556 0.0
H967 H 0.196 0.50813 0.85154 0.0
H968 H 0.18382 0.53608 0.86248 0.0
H969 H 0.22457 0.55169 0.85161 0.0
C970 C 0.52531 0.76618 0.79915 0.0
C971 C 0.50093 0.77514 0.79816 0.0
C972 C 0.51671 0.73303 0.802 0.0
C973 C 0.48296 0.70837 0.8036 0.0
C974 C 0.45839 0.71749 0.80343 0.0
C975 C 0.46769 0.75074 0.80085 0.0
C976 C 0.5436 0.72428 0.80251 0.0
C977 C 0.42207 0.69196 0.80501 0.0
C978 C 0.44888 0.62048 0.78481 0.0
C979 C 0.43917 0.60307 0.80399 0.0
C980 C 0.46534 0.6551 0.7845 0.0
C981 C 0.47266 0.67273 0.80385 0.0
C982 C 0.46565 0.65545 0.82327 0.0
C983 C 0.4488 0.62075 0.82312 0.0
C984 C 0.47237 0.67257 0.76344 0.0
C985 C 0.47375 0.67343 0.84421 0.0
H986 H 0.55107 0.78493 0.79723 0.0
H987 H 0.44865 0.7574 0.8002 0.0
H988 H 0.53969 0.70746 0.81594 0.0
H989 H 0.5428 0.71102 0.78775 0.0
H990 H 0.56856 0.74653 0.80394 0.0
H991 H 0.40619 0.70329 0.80547 0.0
H992 H 0.41466 0.67499 0.79121 0.0
H993 H 0.41725 0.6768 0.81947 0.0
H994 H 0.44184 0.60708 0.76994 0.0
H995 H 0.44178 0.60751 0.83802 0.0
H996 H 0.49809 0.69365 0.76289 0.0
H997 H 0.45566 0.68272 0.76135 0.0
H998 H 0.46861 0.65577 0.74994 0.0
H999 H 0.49889 0.69553 0.84388 0.0
H1000 H 0.47224 0.65728 0.85753 0.0
H1001 H 0.45602 0.68208 0.84732 0.0
C1002 C 0.49699 0.69849 0.55518 0.0
C1003 C 0.50288 0.72087 0.53873 0.0
C1004 C 0.47177 0.66537 0.55357 0.0
C1005 C 0.45225 0.65437 0.535 0.0
C1006 C 0.4605 0.67591 0.51749 0.0
C1007 C 0.48573 0.70897 0.51957 0.0
C1008 C 0.46396 0.6431 0.57255 0.0
C1009 C 0.44071 0.66498 0.49726 0.0
C1010 C 0.38825 0.56283 0.53123 0.0
C1011 C 0.36005 0.56243 0.53921 0.0
C1012 C 0.4184 0.59268 0.52918 0.0
C1013 C 0.42029 0.62266 0.53533 0.0
C1014 C 0.39164 0.62244 0.54278 0.0
C1015 C 0.36192 0.59237 0.5446 0.0
C1016 C 0.44834 0.59205 0.52095 0.0
C1017 C 0.39253 0.65393 0.54937 0.0
H1018 H 0.51037 0.70732 0.56996 0.0
H1019 H 0.49042 0.72596 0.50664 0.0
H1020 H 0.4411 0.63959 0.58027 0.0
H1021 H 0.45938 0.61839 0.56768 0.0
H1022 H 0.4842 0.65363 0.58441 0.0
H1023 H 0.45395 0.68213 0.48397 0.0
H1024 H 0.43497 0.63975 0.49269 0.0
H1025 H 0.41688 0.66423 0.49973 0.0
H1026 H 0.38696 0.53978 0.52698 0.0
H1027 H 0.34022 0.59234 0.55062 0.0
H1028 H 0.46682 0.59917 0.5338 0.0
H1029 H 0.46023 0.61029 0.50801 0.0
H1030 H 0.44207 0.56723 0.51497 0.0
H1031 H 0.40988 0.6655 0.56281 0.0
H1032 H 0.36785 0.64957 0.55427 0.0
H1033 H 0.40168 0.67191 0.53614 0.0
C1034 C 0.27685 0.75458 0.49764 0.0
C1035 C 0.26123 0.76007 0.51487 0.0
C1036 C 0.31047 0.76428 0.49849 0.0
C1037 C 0.32879 0.77982 0.51698 0.0
C1038 C 0.31394 0.78817 0.53357 0.0
C1039 C 0.28033 0.77827 0.53229 0.0
C1040 C 0.32553 0.75533 0.48034 0.0
C1041 C 0.3327 0.80497 0.5535 0.0
C1042 C 0.39417 0.75986 0.53414 0.0
C1043 C 0.42349 0.78896 0.52896 0.0
C1044 C 0.36328 0.7565 0.52996 0.0
C1045 C 0.3616 0.78289 0.52036 0.0
C1046 C 0.39106 0.8121 0.51468 0.0
C1047 C 0.42172 0.8148 0.51906 0.0
C1048 C 0.3324 0.72483 0.53619 0.0
C1049 C 0.39017 0.84064 0.50434 0.0
H1050 H 0.2624 0.74084 0.48401 0.0
H1051 H 0.26859 0.78296 0.54559 0.0
H1052 H 0.35054 0.77614 0.47651 0.0
H1053 H 0.32824 0.73398 0.48496 0.0
H1054 H 0.31 0.74848 0.46587 0.0
H1055 H 0.31923 0.8139 0.56349 0.0
H1056 H 0.33658 0.78725 0.56292 0.0
H1057 H 0.35741 0.82622 0.54961 0.0
H1058 H 0.39529 0.73969 0.54168 0.0
H1059 H 0.4443 0.83735 0.51498 0.0
H1060 H 0.31626 0.71362 0.52218 0.0
H1061 H 0.31816 0.7302 0.54801 0.0
H1062 H 0.33799 0.70638 0.54306 0.0
H1063 H 0.37446 0.83206 0.48996 0.0
H1064 H 0.41519 0.86087 0.49982 0.0
H1065 H 0.37896 0.85076 0.51534 0.0
C1066 C 0.21674 0.50457 0.52167 0.0
C1067 C 0.20929 0.48796 0.54116 0.0
C1068 C 0.20936 0.52969 0.51804 0.0
C1069 C 0.19431 0.5384 0.53429 0.0
C1070 C 0.18383 0.51954 0.55314 0.0
C1071 C 0.19132 0.49442 0.55631 0.0
C1072 C 0.22036 0.54879 0.49755 0.0
C1073 C 0.16748 0.52787 0.57082 0.0
C1074 C 0.22091 0.62857 0.54192 0.0
C1075 C 0.19302 0.62958 0.53503 0.0
C1076 C 0.22191 0.59923 0.54111 0.0
C1077 C 0.19435 0.5701 0.53316 0.0
C1078 C 0.16665 0.57121 0.52532 0.0
C1079 C 0.16628 0.601 0.52638 0.0
C1080 C 0.2521 0.5992 0.54948 0.0
C1081 C 0.13703 0.54074 0.51649 0.0
H1082 H 0.23024 0.49946 0.50973 0.0
H1083 H 0.18511 0.48147 0.57132 0.0
H1084 H 0.20126 0.55402 0.4915 0.0
H1085 H 0.24315 0.57288 0.50039 0.0
H1086 H 0.22577 0.53528 0.48517 0.0
H1087 H 0.15681 0.50823 0.58307 0.0
H1088 H 0.18601 0.55129 0.5785 0.0
H1089 H 0.14758 0.53169 0.56454 0.0
H1090 H 0.24182 0.65062 0.54843 0.0
H1091 H 0.14469 0.60164 0.52094 0.0
H1092 H 0.26218 0.58962 0.53726 0.0
H1093 H 0.24518 0.58257 0.56339 0.0
H1094 H 0.27194 0.62425 0.55432 0.0
H1095 H 0.14491 0.52843 0.50473 0.0
H1096 H 0.11922 0.54653 0.50884 0.0
H1097 H 0.1241 0.52282 0.52944 0.0
C1098 C 0.198 0.18953 0.03823 0.0
C1099 C 0.20859 0.22087 0.04696 0.0
C1100 C 0.2035 0.18581 0.01685 0.0
C1101 C 0.21983 0.2141 0.00381 0.0
C1102 C 0.23131 0.24589 0.01259 0.0
C1103 C 0.22561 0.24891 0.03411 0.0
C1104 C 0.19101 0.15148 0.00809 0.0
C1105 C 0.24875 0.27659 -0.00087 0.0
C1106 C 0.25181 0.20296 0.95086 0.0
C1107 C 0.22575 0.1972 0.93733 0.0
C1108 C 0.25066 0.2093 0.97252 0.0
C1109 C 0.22288 0.21002 0.98072 0.0
C1110 C 0.19693 0.20507 0.96702 0.0
C1111 C 0.19864 0.19864 0.94553 0.0
C1112 C 0.27873 0.21437 0.9867 0.0
C1113 C 0.16695 0.20581 0.97515 0.0
H1114 H 0.18505 0.16773 0.04807 0.0
H1115 H 0.23394 0.27322 0.04074 0.0
H1116 H 0.17154 0.14573 0.99612 0.0
H1117 H 0.21133 0.15011 -0.0 0.0
H1118 H 0.18056 0.13224 0.0206 0.0
H1119 H 0.25803 0.29957 0.00863 0.0
H1120 H 0.26988 0.27732 0.99066 0.0
H1121 H 0.23152 0.27616 0.98694 0.0
H1122 H 0.27286 0.20195 0.94464 0.0
H1123 H 0.17849 0.19447 0.93516 0.0
H1124 H 0.26962 0.19411 0.99848 0.0
H1125 H 0.28837 0.23785 0.99565 0.0
H1126 H 0.29939 0.21493 0.97767 0.0
H1127 H 0.15338 0.18545 0.98663 0.0
H1128 H 0.14974 0.20319 0.96223 0.0
H1129 H 0.17466 0.22935 0.98365 0.0
C1130 C 0.81772 0.05533 0.95618 0.0
C1131 C 0.82094 0.03366 0.94235 0.0
C1132 C 0.81959 0.0525 0.97821 0.0
C1133 C 0.82444 0.02721 0.98651 0.0
C1134 C 0.82717 0.00497 0.97262 0.0
C1135 C 0.82555 0.00856 0.95073 0.0
C1136 C 0.81686 0.07681 0.99259 0.0
C1137 C 0.83204 0.97747 0.98086 0.0
C1138 C 0.86162 0.03497 0.04095 0.0
C1139 C 0.83358 0.01444 0.05312 0.0
C1140 C 0.85886 0.04015 0.01938 0.0
C1141 C 0.82734 0.02417 0.00971 0.0
C1142 C 0.79888 0.00379 0.02195 0.0
C1143 C 0.80233 0.99927 0.04355 0.0
C1144 C 0.88976 0.06225 0.00686 0.0
C1145 C 0.7649 0.9861 0.01211 0.0
H1146 H 0.81423 0.07481 0.9498 0.0
H1147 H 0.82785 0.99156 0.94016 0.0
H1148 H 0.79626 0.06346 0.00398 0.0
H1149 H 0.83985 0.09074 0.00199 0.0
H1150 H 0.81261 0.09473 0.98366 0.0
H1151 H 0.83273 0.96168 0.96794 0.0
H1152 H 0.85551 0.98803 0.98985 0.0
H1153 H 0.81176 0.96164 0.99193 0.0
H1154 H 0.88582 0.047 0.04827 0.0
H1155 H 0.78054 0.98339 0.05285 0.0
H1156 H 0.88709 0.08164 -0.00141 0.0
H1157 H 0.89354 0.04754 0.99454 0.0
H1158 H 0.91213 0.07441 0.01701 0.0
H1159 H 0.75984 0.00404 0.00399 0.0
H1160 H 0.74514 0.97234 0.024 0.0
H1161 H 0.7637 0.96837 -4e-05 0.0
C1162 C 0.95767 0.76603 0.95498 0.0
C1163 C 0.97637 0.79257 0.94129 0.0
C1164 C 0.96098 0.77026 0.97703 0.0
C1165 C 0.98367 0.80168 0.9855 0.0
C1166 C 0.00313 0.82833 0.97175 0.0
C1167 C -0.00084 0.82348 0.94982 0.0
C1168 C 0.93971 0.74133 0.99127 0.0
C1169 C 0.02776 0.86217 0.98019 0.0
C1170 C 0.97038 0.82554 0.04046 0.0
C1171 C 0.99359 0.82197 0.0524 0.0
C1172 C 0.9664 0.81826 0.01876 0.0
C1173 C 0.98618 0.80727 0.00874 0.0
C1174 C 0.00933 0.80316 0.02073 0.0
C1175 C 0.01274 0.81052 0.04245 0.0
C1176 C 0.94139 0.8229 0.00649 0.0
C1177 C 0.03093 0.79159 0.01052 0.0
H1178 H 0.94002 0.74208 0.94848 0.0
H1179 H 0.01391 0.84408 0.93935 0.0
H1180 H 0.95541 0.73713 0.00247 0.0
H1181 H 0.92321 0.74687 0.00087 0.0
H1182 H 0.92425 0.71821 0.9822 0.0
H1183 H 0.04201 0.87988 0.96735 0.0
H1184 H 0.01469 0.87228 0.98945 0.0
H1185 H 0.04537 0.86041 0.99105 0.0
H1186 H 0.95536 0.83422 0.04803 0.0
H1187 H 0.03067 0.80763 0.05159 0.0
H1188 H 0.924 0.79969 0.99814 0.0
H1189 H 0.95417 0.84225 0.99427 0.0
H1190 H 0.92693 0.83022 0.01684 0.0
H1191 H 0.01544 0.76778 0.0022 0.0
H1192 H 0.04672 0.78833 0.02221 0.0
H1193 H 0.04712 0.8098 0.99847 0.0
C1194 C 0.87161 0.51769 0.29341 0.0
C1195 C 0.8453 0.48955 0.28404 0.0
C1196 C 0.87006 0.52575 0.31462 0.0
C1197 C 0.84153 0.50517 0.32674 0.0
C1198 C 0.81514 0.47643 0.3175 0.0
C1199 C 0.81734 0.46897 0.29625 0.0
C1200 C 0.89871 0.55655 0.32398 0.0
C1201 C 0.78436 0.45383 0.32997 0.0
C1202 C 0.84653 0.5088 0.38667 0.0
C1203 C 0.832 0.52791 0.39154 0.0
C1204 C 0.85018 0.50158 0.36563 0.0
C1205 C 0.83909 0.51379 0.34906 0.0
C1206 C 0.82495 0.53358 0.35381 0.0
C1207 C 0.82156 0.54041 0.37503 0.0
C1208 C 0.86539 0.48039 0.36117 0.0
C1209 C 0.81291 0.54707 0.3365 0.0
H1210 H 0.89329 0.53376 0.28407 0.0
H1211 H 0.7969 0.4472 0.28914 0.0
H1212 H 0.89034 0.57382 0.3291 0.0
H1213 H 0.90811 0.55016 0.33824 0.0
H1214 H 0.9194 0.56953 0.31257 0.0
H1215 H 0.76634 0.43211 0.32057 0.0
H1216 H 0.79097 0.44486 0.34434 0.0
H1217 H 0.77217 0.46764 0.33535 0.0
H1218 H 0.8547 0.49905 0.39933 0.0
H1219 H 0.81034 0.55519 0.37865 0.0
H1220 H 0.88693 0.49359 0.35043 0.0
H1221 H 0.84718 0.45735 0.35299 0.0
H1222 H 0.87363 0.47364 0.37583 0.0
H1223 H 0.83324 0.56184 0.32521 0.0
H1224 H 0.8034 0.56287 0.34282 0.0
H1225 H 0.79287 0.52638 0.32745 0.0
C1226 C 0.51026 0.37011 0.2967 0.0
C1227 C 0.48833 0.35282 0.28018 0.0
C1228 C 0.50307 0.3584 0.31756 0.0
C1229 C 0.4729 0.32912 0.32203 0.0
C1230 C 0.45017 0.31217 0.30551 0.0
C1231 C 0.45834 0.32403 0.28471 0.0
C1232 C 0.52819 0.37684 0.33472 0.0
C1233 C 0.41743 0.28132 0.30977 0.0
C1234 C 0.47042 0.28236 0.37158 0.0
C1235 C 0.45704 0.29473 0.38638 0.0
C1236 C 0.47522 0.29295 0.35045 0.0
C1237 C 0.46569 0.31585 0.34393 0.0
C1238 C 0.45081 0.32727 0.35862 0.0
C1239 C 0.44703 0.31687 0.37975 0.0
C1240 C 0.49172 0.28068 0.33532 0.0
C1241 C 0.43963 0.35109 0.35213 0.0
H1242 H 0.53358 0.39224 0.29323 0.0
H1243 H 0.44124 0.31074 0.27196 0.0
H1244 H 0.51698 0.38433 0.34747 0.0
H1245 H 0.53615 0.36042 0.34195 0.0
H1246 H 0.55039 0.39929 0.32862 0.0
H1247 H 0.40169 0.27223 0.2954 0.0
H1248 H 0.42164 0.26144 0.31563 0.0
H1249 H 0.40379 0.28617 0.32232 0.0
H1250 H 0.47842 0.26544 0.37669 0.0
H1251 H 0.43646 0.3263 0.39116 0.0
H1252 H 0.51548 0.3018 0.32976 0.0
H1253 H 0.47601 0.26938 0.32116 0.0
H1254 H 0.49672 0.26216 0.34273 0.0
H1255 H 0.46138 0.37517 0.34773 0.0
H1256 H 0.42598 0.35535 0.36499 0.0
H1257 H 0.42347 0.34158 0.33798 0.0
C1258 C 0.66806 0.15046 0.376 0.0
C1259 C 0.70069 0.1635 0.38304 0.0
C1260 C 0.66086 0.14952 0.35441 0.0
C1261 C 0.6869 0.16189 0.33946 0.0
C1262 C 0.71981 0.17428 0.34638 0.0
C1263 C 0.72633 0.17494 0.36812 0.0
C1264 C 0.62543 0.13607 0.34764 0.0
C1265 C 0.74819 0.18758 0.33085 0.0
C1266 C 0.6637 0.137 0.28202 0.0
C1267 C 0.66327 0.16465 0.27394 0.0
C1268 C 0.67187 0.13594 0.30325 0.0
C1269 C 0.67971 0.16313 0.3167 0.0
C1270 C 0.67958 0.1912 0.30859 0.0
C1271 C 0.67137 0.19162 0.28731 0.0
C1272 C 0.67178 0.1056 0.31136 0.0
C1273 C 0.68773 0.22065 0.32247 0.0
H1274 H 0.64804 0.14142 0.38739 0.0
H1275 H 0.75159 0.185 0.37343 0.0
H1276 H 0.6228 0.15591 0.34 0.0
H1277 H 0.6183 0.11612 0.33576 0.0
H1278 H 0.60792 0.12611 0.36117 0.0
H1279 H 0.77208 0.1947 0.33867 0.0
H1280 H 0.74344 0.16882 0.31849 0.0
H1281 H 0.75045 0.20959 0.32272 0.0
H1282 H 0.65758 0.11609 0.27177 0.0
H1283 H 0.67118 0.21311 0.28119 0.0
H1284 H 0.65311 0.09395 0.32412 0.0
H1285 H 0.69618 0.11264 0.31832 0.0
H1286 H 0.66616 0.087 0.2987 0.0
H1287 H 0.6697 0.21302 0.33568 0.0
H1288 H 0.68733 0.24088 0.3136 0.0
H1289 H 0.71256 0.23043 0.3296 0.0
C1290 C 0.56484 0.84089 0.62183 0.0
C1291 C 0.53998 0.83384 0.60695 0.0
C1292 C 0.55893 0.84156 0.64359 0.0
C1293 C 0.52755 0.83539 0.65054 0.0
C1294 C 0.50252 0.82863 0.63557 0.0
C1295 C 0.50898 0.82777 0.61398 0.0
C1296 C 0.58609 0.84854 0.65916 0.0
C1297 C 0.46883 0.8222 0.64234 0.0
C1298 C 0.49769 0.80543 0.70634 0.0
C1299 C 0.50316 0.83451 0.71637 0.0
C1300 C 0.50637 0.80556 0.68507 0.0
C1301 C 0.52051 0.83544 0.67348 0.0
C1302 C 0.5264 0.86495 0.68354 0.0
C1303 C 0.51781 0.86417 0.70493 0.0
C1304 C 0.49998 0.77364 0.67491 0.0
C1305 C 0.54112 0.8972 0.67161 0.0
H1306 H 0.58881 0.84553 0.6165 0.0
H1307 H 0.48966 0.8225 0.60259 0.0
H1308 H 0.59171 0.87049 0.66891 0.0
H1309 H 0.57781 0.82734 0.67014 0.0
H1310 H 0.60915 0.85303 0.65119 0.0
H1311 H 0.45236 0.81814 0.62865 0.0
H1312 H 0.4568 0.8001 0.65269 0.0
H1313 H 0.47135 0.84342 0.65172 0.0
H1314 H 0.48664 0.78246 0.71514 0.0
H1315 H 0.5221 0.88674 0.71258 0.0
H1316 H 0.52306 0.77686 0.66773 0.0
H1317 H 0.48168 0.76674 0.66197 0.0
H1318 H 0.49046 0.75293 0.68641 0.0
H1319 H 0.56509 0.90301 0.66444 0.0
H1320 H 0.54515 0.91816 0.68192 0.0
H1321 H 0.52445 0.89499 0.65846 0.0
C1322 C 0.19906 0.72424 0.62387 0.0
C1323 C 0.17696 0.70414 0.60813 0.0
C1324 C 0.19539 0.71327 0.6449 0.0
C1325 C 0.1693 0.68129 0.65019 0.0
C1326 C 0.14669 0.66107 0.63442 0.0
C1327 C 0.15066 0.67282 0.61362 0.0
C1328 C 0.21968 0.73571 0.6614 0.0
C1329 C 0.11876 0.62669 0.63941 0.0
C1330 C 0.17963 0.64063 0.69917 0.0
C1331 C 0.15983 0.64515 0.7139 0.0
C1332 C 0.18269 0.65201 0.6783 0.0
C1333 C 0.16591 0.66872 0.67215 0.0
C1334 C 0.1458 0.67326 0.68692 0.0
C1335 C 0.14279 0.6612 0.70759 0.0
C1336 C 0.20394 0.64625 0.66285 0.0
C1337 C 0.12782 0.69127 0.68099 0.0
H1338 H 0.21936 0.74849 0.61975 0.0
H1339 H 0.13357 0.65703 0.60152 0.0
H1340 H 0.2063 0.73915 0.67478 0.0
H1341 H 0.23346 0.7242 0.66791 0.0
H1342 H 0.23773 0.76035 0.6549 0.0
H1343 H 0.10304 0.61428 0.62538 0.0
H1344 H 0.12891 0.61133 0.64532 0.0
H1345 H 0.10296 0.62772 0.65215 0.0
H1346 H 0.19278 0.62818 0.70395 0.0
H1347 H 0.12763 0.66501 0.71894 0.0
H1348 H 0.22438 0.67027 0.65709 0.0
H1349 H 0.1891 0.63243 0.64885 0.0
H1350 H 0.21473 0.63217 0.67001 0.0
H1351 H 0.14583 0.71668 0.67565 0.0
H1352 H 0.1133 0.69289 0.69439 0.0
H1353 H 0.11082 0.67852 0.66758 0.0
C1354 C 0.26146 0.42476 0.62998 0.0
C1355 C 0.27833 0.44949 0.6148 0.0
C1356 C 0.26832 0.43148 0.65166 0.0
C1357 C 0.2928 0.46354 0.6582 0.0
C1358 C 0.30987 0.48856 0.64294 0.0
C1359 C 0.30232 0.48127 0.62146 0.0
C1360 C 0.24942 0.40432 0.66756 0.0
C1361 C 0.33631 0.52301 0.64928 0.0
C1362 C 0.29453 0.49429 0.71405 0.0
C1363 C 0.31986 0.49093 0.7233 0.0
C1364 C 0.28471 0.48444 0.69307 0.0
C1365 C 0.30083 0.47121 0.681 0.0
C1366 C 0.32605 0.46724 0.69033 0.0
C1367 C 0.33517 0.47702 0.71143 0.0
C1368 C 0.25753 0.48881 0.68369 0.0
C1369 C 0.34401 0.45351 0.67788 0.0
H1370 H 0.24286 0.40019 0.62495 0.0
H1371 H 0.3156 0.50054 0.60985 0.0
H1372 H 0.26677 0.39959 0.67674 0.0
H1373 H 0.23661 0.41207 0.67901 0.0
H1374 H 0.2308 0.38087 0.65992 0.0
H1375 H 0.34742 0.53957 0.63541 0.0
H1376 H 0.32577 0.53408 0.66005 0.0
H1377 H 0.35625 0.52195 0.65805 0.0
H1378 H 0.28237 0.50474 0.72318 0.0
H1379 H 0.35472 0.47428 0.71848 0.0
H1380 H 0.23804 0.46515 0.67681 0.0
H1381 H 0.26764 0.5071 0.67065 0.0
H1382 H 0.24602 0.49741 0.6956 0.0
H1383 H 0.32608 0.42913 0.67101 0.0
H1384 H 0.36196 0.45058 0.68774 0.0
H1385 H 0.35753 0.47024 0.66449 0.0
loop_
_geom_bond_atom_site_label_1
_geom_bond_atom_site_label_2
_geom_bond_distance
_geom_bond_site_symmetry_2
_ccdc_geom_bond_type
C0 O1 1.160 . S
C0 O7 1.185 . S
O1 C0 1.160 . S
O2 Zn3 1.899 . S
O2 C10 1.284 . S
Zn3 O2 1.899 . S
Zn3 O4 2.032 . S
Zn3 O7 2.086 . S
Zn3 O12 1.977 . S
O4 Zn3 2.032 . S
O4 C8 1.278 . S
C5 O6 1.203 . S
C5 O12 1.267 . S
O6 C5 1.203 . S
O7 C0 1.185 . S
O7 Zn3 2.086 . S
C8 O4 1.278 . S
C8 O9 1.211 . S
O9 C8 1.211 . S
C10 O2 1.284 . S
C10 O11 1.273 . S
O11 C10 1.273 . S
O12 Zn3 1.977 . S
O12 C5 1.267 . S
C13 O14 1.160 . S
C13 O20 1.185 1_545 S
O14 C13 1.160 . S
O15 Zn16 1.899 1_545 S
O15 C23 1.284 . S
Zn16 O15 1.899 1_565 S
Zn16 O17 2.032 1_565 S
Zn16 O20 2.086 . S
Zn16 O25 1.977 . S
O17 Zn16 2.032 1_545 S
O17 C21 1.278 1_545 S
C18 O19 1.203 . S
C18 O25 1.267 . S
O19 C18 1.203 . S
O20 C13 1.185 1_565 S
O20 Zn16 2.086 . S
C21 O17 1.278 1_565 S
C21 O22 1.211 . S
O22 C21 1.211 . S
C23 O15 1.284 . S
C23 O24 1.273 . S
O24 C23 1.273 . S
O25 Zn16 1.977 . S
O25 C18 1.267 . S
C26 O27 1.160 . S
C26 O33 1.185 1_655 S
O27 C26 1.160 . S
O28 Zn29 1.899 1_655 S
O28 C36 1.284 . S
Zn29 O28 1.899 1_455 S
Zn29 O30 2.032 1_455 S
Zn29 O33 2.086 . S
Zn29 O38 1.977 . S
O30 Zn29 2.032 1_655 S
O30 C34 1.278 1_655 S
C31 O32 1.203 . S
C31 O38 1.267 . S
O32 C31 1.203 . S
O33 C26 1.185 1_455 S
O33 Zn29 2.086 . S
C34 O30 1.278 1_455 S
C34 O35 1.211 . S
O35 C34 1.211 . S
C36 O28 1.284 . S
C36 O37 1.273 . S
O37 C36 1.273 . S
O38 Zn29 1.977 . S
O38 C31 1.267 . S
C39 O40 1.160 . S
C39 O46 1.185 . S
O40 C39 1.160 . S
O41 Zn42 1.899 . S
O41 C49 1.284 . S
Zn42 O41 1.899 . S
Zn42 O43 2.032 . S
Zn42 O46 2.086 . S
Zn42 O51 1.977 . S
O43 Zn42 2.032 . S
O43 C47 1.278 . S
C44 O45 1.203 . S
C44 O51 1.267 . S
O45 C44 1.203 . S
O46 C39 1.185 . S
O46 Zn42 2.086 . S
C47 O43 1.278 . S
C47 O48 1.211 . S
O48 C47 1.211 . S
C49 O41 1.284 . S
C49 O50 1.273 . S
O50 C49 1.273 . S
O51 Zn42 1.977 . S
O51 C44 1.267 . S
C52 O53 1.160 . S
C52 O59 1.185 1_565 S
O53 C52 1.160 . S
O54 Zn55 1.899 1_565 S
O54 C62 1.284 . S
Zn55 O54 1.899 1_545 S
Zn55 O56 2.032 1_545 S
Zn55 O59 2.086 . S
Zn55 O64 1.977 . S
O56 Zn55 2.032 1_565 S
O56 C60 1.278 1_565 S
C57 O58 1.203 . S
C57 O64 1.267 . S
O58 C57 1.203 . S
O59 C52 1.185 1_545 S
O59 Zn55 2.086 . S
C60 O56 1.278 1_545 S
C60 O61 1.211 . S
O61 C60 1.211 . S
C62 O54 1.284 . S
C62 O63 1.273 . S
O63 C62 1.273 . S
O64 Zn55 1.977 . S
O64 C57 1.267 . S
C65 O66 1.160 . S
C65 O72 1.185 1_455 S
O66 C65 1.160 . S
O67 Zn68 1.899 1_455 S
O67 C75 1.284 . S
Zn68 O67 1.899 1_655 S
Zn68 O69 2.032 1_655 S
Zn68 O72 2.086 . S
Zn68 O77 1.977 . S
O69 Zn68 2.032 1_455 S
O69 C73 1.278 1_455 S
C70 O71 1.203 . S
C70 O77 1.267 . S
O71 C70 1.203 . S
O72 C65 1.185 1_655 S
O72 Zn68 2.086 . S
C73 O69 1.278 1_655 S
C73 O74 1.211 . S
O74 C73 1.211 . S
C75 O67 1.284 . S
C75 O76 1.273 . S
O76 C75 1.273 . S
O77 Zn68 1.977 . S
O77 C70 1.267 . S
C78 O79 1.160 . S
C78 O85 1.185 . S
O79 C78 1.160 . S
O80 Zn81 1.899 . S
O80 C88 1.284 . S
Zn81 O80 1.899 . S
Zn81 O82 2.032 . S
Zn81 O85 2.086 . S
Zn81 O90 1.977 . S
O82 Zn81 2.032 . S
O82 C86 1.278 . S
C83 O84 1.203 . S
C83 O90 1.267 . S
O84 C83 1.203 . S
O85 C78 1.185 . S
O85 Zn81 2.086 . S
C86 O82 1.278 . S
C86 O87 1.211 . S
O87 C86 1.211 . S
C88 O80 1.284 . S
C88 O89 1.273 . S
O89 C88 1.273 . S
O90 Zn81 1.977 . S
O90 C83 1.267 . S
C91 O92 1.160 . S
C91 O98 1.185 . S
O92 C91 1.160 . S
O93 Zn94 1.899 . S
O93 C101 1.284 . S
Zn94 O93 1.899 . S
Zn94 O95 2.032 . S
Zn94 O98 2.086 . S
Zn94 O103 1.977 . S
O95 Zn94 2.032 . S
O95 C99 1.278 . S
C96 O97 1.203 . S
C96 O103 1.267 . S
O97 C96 1.203 . S
O98 C91 1.185 . S
O98 Zn94 2.086 . S
C99 O95 1.278 . S
C99 O100 1.211 . S
O100 C99 1.211 . S
C101 O93 1.284 . S
C101 O102 1.273 . S
O102 C101 1.273 . S
O103 Zn94 1.977 . S
O103 C96 1.267 . S
C104 O105 1.160 . S
C104 O111 1.185 . S
O105 C104 1.160 . S
O106 Zn107 1.899 . S
O106 C114 1.284 . S
Zn107 O106 1.899 . S
Zn107 O108 2.032 . S
Zn107 O111 2.086 . S
Zn107 O116 1.977 . S
O108 Zn107 2.032 . S
O108 C112 1.278 . S
C109 O110 1.203 . S
C109 O116 1.267 . S
O110 C109 1.203 . S
O111 C104 1.185 . S
O111 Zn107 2.086 . S
C112 O108 1.278 . S
C112 O113 1.211 . S
O113 C112 1.211 . S
C114 O106 1.284 . S
C114 O115 1.273 . S
O115 C114 1.273 . S
O116 Zn107 1.977 . S
O116 C109 1.267 . S
C117 O118 1.160 . S
C117 O124 1.185 . S
O118 C117 1.160 . S
O119 Zn120 1.899 . S
O119 C127 1.284 . S
Zn120 O119 1.899 . S
Zn120 O121 2.032 . S
Zn120 O124 2.086 . S
Zn120 O129 1.977 . S
O121 Zn120 2.032 . S
O121 C125 1.278 . S
C122 O123 1.203 . S
C122 O129 1.267 . S
O123 C122 1.203 . S
O124 C117 1.185 . S
O124 Zn120 2.086 . S
C125 O121 1.278 . S
C125 O126 1.211 . S
O126 C125 1.211 . S
C127 O119 1.284 . S
C127 O128 1.273 . S
O128 C127 1.273 . S
O129 Zn120 1.977 . S
O129 C122 1.267 . S
C130 O131 1.160 . S
C130 O137 1.185 . S
O131 C130 1.160 . S
O132 Zn133 1.899 . S
O132 C140 1.284 . S
Zn133 O132 1.899 . S
Zn133 O134 2.032 . S
Zn133 O137 2.086 . S
Zn133 O142 1.977 . S
O134 Zn133 2.032 . S
O134 C138 1.278 . S
C135 O136 1.203 . S
C135 O142 1.267 . S
O136 C135 1.203 . S
O137 C130 1.185 . S
O137 Zn133 2.086 . S
C138 O134 1.278 . S
C138 O139 1.211 . S
O139 C138 1.211 . S
C140 O132 1.284 . S
C140 O141 1.273 . S
O141 C140 1.273 . S
O142 Zn133 1.977 . S
O142 C135 1.267 . S
C143 O144 1.160 . S
C143 O150 1.185 . S
O144 C143 1.160 . S
O145 Zn146 1.899 . S
O145 C153 1.284 . S
Zn146 O145 1.899 . S
Zn146 O147 2.032 . S
Zn146 O150 2.086 . S
Zn146 O155 1.977 . S
O147 Zn146 2.032 . S
O147 C151 1.278 . S
C148 O149 1.203 . S
C148 O155 1.267 . S
O149 C148 1.203 . S
O150 C143 1.185 . S
O150 Zn146 2.086 . S
C151 O147 1.278 . S
C151 O152 1.211 . S
O152 C151 1.211 . S
C153 O145 1.284 . S
C153 O154 1.273 . S
O154 C153 1.273 . S
O155 Zn146 1.977 . S
O155 C148 1.267 . S
C156 O157 1.160 . S
C156 O163 1.185 . S
O157 C156 1.160 . S
O158 Zn159 1.899 . S
O158 C166 1.284 . S
Zn159 O158 1.899 . S
Zn159 O160 2.032 . S
Zn159 O163 2.086 . S
Zn159 O168 1.977 . S
O160 Zn159 2.032 . S
O160 C164 1.278 . S
C161 O162 1.203 . S
C161 O168 1.267 . S
O162 C161 1.203 . S
O163 C156 1.185 . S
O163 Zn159 2.086 . S
C164 O160 1.278 . S
C164 O165 1.211 . S
O165 C164 1.211 . S
C166 O158 1.284 . S
C166 O167 1.273 . S
O167 C166 1.273 . S
O168 Zn159 1.977 . S
O168 C161 1.267 . S
C169 O170 1.160 . S
C169 O176 1.185 . S
O170 C169 1.160 . S
O171 Zn172 1.899 . S
O171 C179 1.284 . S
Zn172 O171 1.899 . S
Zn172 O173 2.032 . S
Zn172 O176 2.086 . S
Zn172 O181 1.977 . S
O173 Zn172 2.032 . S
O173 C177 1.278 . S
C174 O175 1.203 . S
C174 O181 1.267 . S
O175 C174 1.203 . S
O176 C169 1.185 . S
O176 Zn172 2.086 . S
C177 O173 1.278 . S
C177 O178 1.211 . S
O178 C177 1.211 . S
C179 O171 1.284 . S
C179 O180 1.273 . S
O180 C179 1.273 . S
O181 Zn172 1.977 . S
O181 C174 1.267 . S
C182 O183 1.160 . S
C182 O189 1.185 . S
O183 C182 1.160 . S
O184 Zn185 1.899 . S
O184 C192 1.284 . S
Zn185 O184 1.899 . S
Zn185 O186 2.032 . S
Zn185 O189 2.086 . S
Zn185 O194 1.977 . S
O186 Zn185 2.032 . S
O186 C190 1.278 . S
C187 O188 1.203 . S
C187 O194 1.267 . S
O188 C187 1.203 . S
O189 C182 1.185 . S
O189 Zn185 2.086 . S
C190 O186 1.278 . S
C190 O191 1.211 . S
O191 C190 1.211 . S
C192 O184 1.284 . S
C192 O193 1.273 . S
O193 C192 1.273 . S
O194 Zn185 1.977 . S
O194 C187 1.267 . S
C195 O196 1.160 . S
C195 O202 1.185 . S
O196 C195 1.160 . S
O197 Zn198 1.899 . S
O197 C205 1.284 . S
Zn198 O197 1.899 . S
Zn198 O199 2.032 . S
Zn198 O202 2.086 . S
Zn198 O207 1.977 . S
O199 Zn198 2.032 . S
O199 C203 1.278 . S
C200 O201 1.203 . S
C200 O207 1.267 . S
O201 C200 1.203 . S
O202 C195 1.185 . S
O202 Zn198 2.086 . S
C203 O199 1.278 . S
C203 O204 1.211 . S
O204 C203 1.211 . S
C205 O197 1.284 . S
C205 O206 1.273 . S
O206 C205 1.273 . S
O207 Zn198 1.977 . S
O207 C200 1.267 . S
C208 O209 1.160 . S
C208 O215 1.185 . S
O209 C208 1.160 . S
O210 Zn211 1.899 . S
O210 C218 1.284 . S
Zn211 O210 1.899 . S
Zn211 O212 2.032 . S
Zn211 O215 2.086 . S
Zn211 O220 1.977 . S
O212 Zn211 2.032 . S
O212 C216 1.278 . S
C213 O214 1.203 . S
C213 O220 1.267 . S
O214 C213 1.203 . S
O215 C208 1.185 . S
O215 Zn211 2.086 . S
C216 O212 1.278 . S
C216 O217 1.211 . S
O217 C216 1.211 . S
C218 O210 1.284 . S
C218 O219 1.273 . S
O219 C218 1.273 . S
O220 Zn211 1.977 . S
O220 C213 1.267 . S
C221 O222 1.160 . S
C221 O228 1.185 . S
O222 C221 1.160 . S
O223 Zn224 1.899 . S
O223 C231 1.284 . S
Zn224 O223 1.899 . S
Zn224 O225 2.032 . S
Zn224 O228 2.086 . S
Zn224 O233 1.977 . S
O225 Zn224 2.032 . S
O225 C229 1.278 . S
C226 O227 1.203 . S
C226 O233 1.267 . S
O227 C226 1.203 . S
O228 C221 1.185 . S
O228 Zn224 2.086 . S
C229 O225 1.278 . S
C229 O230 1.211 . S
O230 C229 1.211 . S
C231 O223 1.284 . S
C231 O232 1.273 . S
O232 C231 1.273 . S
O233 Zn224 1.977 . S
O233 C226 1.267 . S
C234 C235 1.391 . S
C234 C236 1.394 . S
C234 H250 0.931 . S
C235 C234 1.391 . S
C235 C239 1.376 . S
C236 C234 1.394 . S
C236 C237 1.369 . S
C236 C240 1.531 . S
C237 C236 1.369 . S
C237 C238 1.410 . S
C237 C245 1.503 . S
C238 C237 1.410 . S
C238 C239 1.392 . S
C238 C241 1.511 . S
C239 C235 1.376 . S
C239 C238 1.392 . S
C239 H251 0.929 . S
C240 C236 1.531 . S
C240 H252 0.960 . S
C240 H253 0.962 . S
C240 H254 0.960 . S
C241 C238 1.511 . S
C241 H255 0.961 . S
C241 H256 0.961 . S
C241 H257 0.961 . S
C242 C243 1.370 . S
C242 C244 1.363 . S
C242 H258 0.931 . S
C243 C242 1.370 . S
C243 C247 1.408 . S
C244 C242 1.363 . S
C244 C245 1.370 . S
C244 C248 1.524 . S
C245 C237 1.503 . S
C245 C244 1.370 . S
C245 C246 1.403 . S
C246 C245 1.403 . S
C246 C247 1.404 . S
C246 C249 1.539 . S
C247 C243 1.408 . S
C247 C246 1.404 . S
C247 H259 0.930 . S
C248 C244 1.524 . S
C248 H260 0.956 . S
C248 H261 0.961 . S
C248 H262 0.961 . S
C249 C246 1.539 . S
C249 H263 0.958 . S
C249 H264 0.961 . S
C249 H265 0.960 . S
H250 C234 0.931 . S
H251 C239 0.929 . S
H252 C240 0.960 . S
H253 C240 0.962 . S
H254 C240 0.960 . S
H255 C241 0.961 . S
H256 C241 0.961 . S
H257 C241 0.961 . S
H258 C242 0.931 . S
H259 C247 0.930 . S
H260 C248 0.956 . S
H261 C248 0.961 . S
H262 C248 0.961 . S
H263 C249 0.958 . S
H264 C249 0.961 . S
H265 C249 0.960 . S
C266 C267 1.391 . S
C266 C268 1.394 . S
C266 H282 0.931 . S
C267 C266 1.391 . S
C267 C271 1.376 . S
C268 C266 1.394 . S
C268 C269 1.369 . S
C268 C272 1.531 . S
C269 C268 1.369 . S
C269 C270 1.410 . S
C269 C277 1.503 . S
C270 C269 1.410 . S
C270 C271 1.392 . S
C270 C273 1.511 . S
C271 C267 1.376 . S
C271 C270 1.392 . S
C271 H283 0.929 1_545 S
C272 C268 1.531 . S
C272 H284 0.960 . S
C272 H285 0.962 . S
C272 H286 0.960 . S
C273 C270 1.511 . S
C273 H287 0.961 1_545 S
C273 H288 0.961 . S
C273 H289 0.961 . S
C274 C275 1.370 . S
C274 C276 1.363 . S
C274 H290 0.931 . S
C275 C274 1.370 . S
C275 C279 1.408 . S
C276 C274 1.363 . S
C276 C277 1.370 . S
C276 C280 1.524 . S
C277 C269 1.503 . S
C277 C276 1.370 . S
C277 C278 1.403 . S
C278 C277 1.403 . S
C278 C279 1.404 . S
C278 C281 1.539 . S
C279 C275 1.408 . S
C279 C278 1.404 . S
C279 H291 0.930 . S
C280 C276 1.524 . S
C280 H292 0.956 . S
C280 H293 0.961 . S
C280 H294 0.961 . S
C281 C278 1.539 . S
C281 H295 0.958 . S
C281 H296 0.961 . S
C281 H297 0.960 . S
H282 C266 0.931 . S
H283 C271 0.929 1_565 S
H284 C272 0.960 . S
H285 C272 0.962 . S
H286 C272 0.960 . S
H287 C273 0.961 1_565 S
H288 C273 0.961 . S
H289 C273 0.961 . S
H290 C274 0.931 . S
H291 C279 0.930 . S
H292 C280 0.956 . S
H293 C280 0.961 . S
H294 C280 0.961 . S
H295 C281 0.958 . S
H296 C281 0.961 . S
H297 C281 0.960 . S
C298 C299 1.391 . S
C298 C300 1.394 . S
C298 H314 0.931 . S
C299 C298 1.391 . S
C299 C303 1.376 . S
C300 C298 1.394 . S
C300 C301 1.369 . S
C300 C304 1.531 . S
C301 C300 1.369 . S
C301 C302 1.410 . S
C301 C309 1.503 . S
C302 C301 1.410 . S
C302 C303 1.392 . S
C302 C305 1.511 . S
C303 C299 1.376 . S
C303 C302 1.392 . S
C303 H315 0.929 . S
C304 C300 1.531 . S
C304 H316 0.960 . S
C304 H317 0.962 . S
C304 H318 0.960 . S
C305 C302 1.511 . S
C305 H319 0.961 . S
C305 H320 0.961 . S
C305 H321 0.961 . S
C306 C307 1.370 . S
C306 C308 1.363 . S
C306 H322 0.931 . S
C307 C306 1.370 . S
C307 C311 1.408 . S
C308 C306 1.363 . S
C308 C309 1.370 . S
C308 C312 1.524 . S
C309 C301 1.503 . S
C309 C308 1.370 . S
C309 C310 1.403 . S
C310 C309 1.403 . S
C310 C311 1.404 . S
C310 C313 1.539 . S
C311 C307 1.408 . S
C311 C310 1.404 . S
C311 H323 0.930 . S
C312 C308 1.524 . S
C312 H324 0.956 . S
C312 H325 0.961 . S
C312 H326 0.961 . S
C313 C310 1.539 . S
C313 H327 0.958 . S
C313 H328 0.961 . S
C313 H329 0.960 . S
H314 C298 0.931 . S
H315 C303 0.929 . S
H316 C304 0.960 . S
H317 C304 0.962 . S
H318 C304 0.960 . S
H319 C305 0.961 . S
H320 C305 0.961 . S
H321 C305 0.961 . S
H322 C306 0.931 . S
H323 C311 0.930 . S
H324 C312 0.956 . S
H325 C312 0.961 . S
H326 C312 0.961 . S
H327 C313 0.958 . S
H328 C313 0.961 . S
H329 C313 0.960 . S
C330 C331 1.391 . S
C330 C332 1.394 . S
C330 H346 0.931 . S
C331 C330 1.391 . S
C331 C335 1.376 . S
C332 C330 1.394 . S
C332 C333 1.369 . S
C332 C336 1.531 . S
C333 C332 1.369 . S
C333 C334 1.410 . S
C333 C341 1.503 . S
C334 C333 1.410 . S
C334 C335 1.392 . S
C334 C337 1.511 . S
C335 C331 1.376 . S
C335 C334 1.392 . S
C335 H347 0.929 . S
C336 C332 1.531 . S
C336 H348 0.960 . S
C336 H349 0.962 . S
C336 H350 0.960 . S
C337 C334 1.511 . S
C337 H351 0.961 . S
C337 H352 0.961 . S
C337 H353 0.961 . S
C338 C339 1.370 . S
C338 C340 1.363 . S
C338 H354 0.931 . S
C339 C338 1.370 . S
C339 C343 1.408 . S
C340 C338 1.363 . S
C340 C341 1.370 . S
C340 C344 1.524 . S
C341 C333 1.503 . S
C341 C340 1.370 . S
C341 C342 1.403 . S
C342 C341 1.403 . S
C342 C343 1.404 . S
C342 C345 1.539 . S
C343 C339 1.408 . S
C343 C342 1.404 . S
C343 H355 0.930 . S
C344 C340 1.524 . S
C344 H356 0.956 . S
C344 H357 0.961 . S
C344 H358 0.961 . S
C345 C342 1.539 . S
C345 H359 0.958 . S
C345 H360 0.961 . S
C345 H361 0.960 . S
H346 C330 0.931 . S
H347 C335 0.929 . S
H348 C336 0.960 . S
H349 C336 0.962 . S
H350 C336 0.960 . S
H351 C337 0.961 . S
H352 C337 0.961 . S
H353 C337 0.961 . S
H354 C338 0.931 . S
H355 C343 0.930 . S
H356 C344 0.956 . S
H357 C344 0.961 . S
H358 C344 0.961 . S
H359 C345 0.958 . S
H360 C345 0.961 . S
H361 C345 0.960 . S
C362 C363 1.391 . S
C362 C364 1.394 . S
C362 H378 0.931 . S
C363 C362 1.391 . S
C363 C367 1.376 . S
C364 C362 1.394 . S
C364 C365 1.369 . S
C364 C368 1.531 . S
C365 C364 1.369 . S
C365 C366 1.410 . S
C365 C373 1.503 . S
C366 C365 1.410 . S
C366 C367 1.392 . S
C366 C369 1.511 . S
C367 C363 1.376 . S
C367 C366 1.392 . S
C367 H379 0.929 1_565 S
C368 C364 1.531 . S
C368 H380 0.960 . S
C368 H381 0.962 . S
C368 H382 0.960 . S
C369 C366 1.511 . S
C369 H383 0.961 1_565 S
C369 H384 0.961 . S
C369 H385 0.961 . S
C370 C371 1.370 . S
C370 C372 1.363 . S
C370 H386 0.931 . S
C371 C370 1.370 . S
C371 C375 1.408 . S
C372 C370 1.363 . S
C372 C373 1.370 . S
C372 C376 1.524 . S
C373 C365 1.503 . S
C373 C372 1.370 . S
C373 C374 1.403 . S
C374 C373 1.403 . S
C374 C375 1.404 . S
C374 C377 1.539 . S
C375 C371 1.408 . S
C375 C374 1.404 . S
C375 H387 0.930 . S
C376 C372 1.524 . S
C376 H388 0.956 . S
C376 H389 0.961 . S
C376 H390 0.961 . S
C377 C374 1.539 . S
C377 H391 0.958 . S
C377 H392 0.961 . S
C377 H393 0.960 . S
H378 C362 0.931 . S
H379 C367 0.929 1_545 S
H380 C368 0.960 . S
H381 C368 0.962 . S
H382 C368 0.960 . S
H383 C369 0.961 1_545 S
H384 C369 0.961 . S
H385 C369 0.961 . S
H386 C370 0.931 . S
H387 C375 0.930 . S
H388 C376 0.956 . S
H389 C376 0.961 . S
H390 C376 0.961 . S
H391 C377 0.958 . S
H392 C377 0.961 . S
H393 C377 0.960 . S
C394 C395 1.391 . S
C394 C396 1.394 . S
C394 H410 0.931 . S
C395 C394 1.391 . S
C395 C399 1.376 . S
C396 C394 1.394 . S
C396 C397 1.369 . S
C396 C400 1.531 . S
C397 C396 1.369 . S
C397 C398 1.410 . S
C397 C405 1.503 . S
C398 C397 1.410 . S
C398 C399 1.392 . S
C398 C401 1.511 . S
C399 C395 1.376 . S
C399 C398 1.392 . S
C399 H411 0.929 . S
C400 C396 1.531 . S
C400 H412 0.960 . S
C400 H413 0.962 . S
C400 H414 0.960 . S
C401 C398 1.511 . S
C401 H415 0.961 . S
C401 H416 0.961 . S
C401 H417 0.961 . S
C402 C403 1.370 . S
C402 C404 1.363 . S
C402 H418 0.931 1_455 S
C403 C402 1.370 . S
C403 C407 1.408 . S
C404 C402 1.363 . S
C404 C405 1.370 . S
C404 C408 1.524 . S
C405 C397 1.503 . S
C405 C404 1.370 . S
C405 C406 1.403 . S
C406 C405 1.403 . S
C406 C407 1.404 . S
C406 C409 1.539 . S
C407 C403 1.408 . S
C407 C406 1.404 . S
C407 H419 0.930 . S
C408 C404 1.524 . S
C408 H420 0.956 . S
C408 H421 0.961 . S
C408 H422 0.961 1_455 S
C409 C406 1.539 . S
C409 H423 0.958 . S
C409 H424 0.961 . S
C409 H425 0.960 . S
H410 C394 0.931 . S
H411 C399 0.929 . S
H412 C400 0.960 . S
H413 C400 0.962 . S
H414 C400 0.960 . S
H415 C401 0.961 . S
H416 C401 0.961 . S
H417 C401 0.961 . S
H418 C402 0.931 1_655 S
H419 C407 0.930 . S
H420 C408 0.956 . S
H421 C408 0.961 . S
H422 C408 0.961 1_655 S
H423 C409 0.958 . S
H424 C409 0.961 . S
H425 C409 0.960 . S
C426 C427 1.391 . S
C426 C428 1.394 . S
C426 H442 0.931 . S
C427 C426 1.391 . S
C427 C431 1.376 . S
C428 C426 1.394 . S
C428 C429 1.369 . S
C428 C432 1.531 . S
C429 C428 1.369 . S
C429 C430 1.410 . S
C429 C437 1.503 1_655 S
C430 C429 1.410 . S
C430 C431 1.392 . S
C430 C433 1.511 . S
C431 C427 1.376 . S
C431 C430 1.392 . S
C431 H443 0.929 . S
C432 C428 1.531 . S
C432 H444 0.960 1_655 S
C432 H445 0.962 1_655 S
C432 H446 0.960 . S
C433 C430 1.511 . S
C433 H447 0.961 . S
C433 H448 0.961 . S
C433 H449 0.961 . S
C434 C435 1.370 . S
C434 C436 1.363 . S
C434 H450 0.931 . S
C435 C434 1.370 . S
C435 C439 1.408 . S
C436 C434 1.363 . S
C436 C437 1.370 . S
C436 C440 1.524 . S
C437 C429 1.503 1_455 S
C437 C436 1.370 . S
C437 C438 1.403 . S
C438 C437 1.403 . S
C438 C439 1.404 . S
C438 C441 1.563 . S
C439 C435 1.408 . S
C439 C438 1.404 . S
C439 H451 0.930 . S
C440 C436 1.524 . S
C440 H452 0.956 . S
C440 H453 0.961 . S
C440 H454 0.961 . S
C441 C438 1.563 . S
C441 H455 0.949 . S
C441 H456 0.970 . S
C441 H457 0.942 1_455 S
H442 C426 0.931 . S
H443 C431 0.929 . S
H444 C432 0.960 1_455 S
H445 C432 0.962 1_455 S
H446 C432 0.960 . S
H447 C433 0.961 . S
H448 C433 0.961 . S
H449 C433 0.961 . S
H450 C434 0.931 . S
H451 C439 0.930 . S
H452 C440 0.956 . S
H453 C440 0.961 . S
H454 C440 0.961 . S
H455 C441 0.949 . S
H456 C441 0.970 . S
H457 C441 0.942 1_655 S
C458 C459 1.391 . S
C458 C460 1.394 . S
C458 H474 0.931 . S
C459 C458 1.391 . S
C459 C463 1.376 . S
C460 C458 1.394 . S
C460 C461 1.369 . S
C460 C464 1.531 . S
C461 C460 1.369 . S
C461 C462 1.410 . S
C461 C469 1.503 . S
C462 C461 1.410 . S
C462 C463 1.392 . S
C462 C465 1.511 . S
C463 C459 1.376 . S
C463 C462 1.392 . S
C463 H475 0.929 . S
C464 C460 1.531 . S
C464 H476 0.960 . S
C464 H477 0.962 . S
C464 H478 0.960 . S
C465 C462 1.511 . S
C465 H479 0.961 . S
C465 H480 0.961 . S
C465 H481 0.961 . S
C466 C467 1.370 . S
C466 C468 1.363 . S
C466 H482 0.931 . S
C467 C466 1.370 . S
C467 C471 1.408 . S
C468 C466 1.363 . S
C468 C469 1.370 . S
C468 C472 1.524 . S
C469 C461 1.503 . S
C469 C468 1.370 . S
C469 C470 1.403 . S
C470 C469 1.403 . S
C470 C471 1.404 . S
C470 C473 1.539 . S
C471 C467 1.408 . S
C471 C470 1.404 . S
C471 H483 0.930 . S
C472 C468 1.524 . S
C472 H484 0.956 . S
C472 H485 0.961 . S
C472 H486 0.961 . S
C473 C470 1.539 . S
C473 H487 0.958 . S
C473 H488 0.961 . S
C473 H489 0.960 . S
H474 C458 0.931 . S
H475 C463 0.929 . S
H476 C464 0.960 . S
H477 C464 0.962 . S
H478 C464 0.960 . S
H479 C465 0.961 . S
H480 C465 0.961 . S
H481 C465 0.961 . S
H482 C466 0.931 . S
H483 C471 0.930 . S
H484 C472 0.956 . S
H485 C472 0.961 . S
H486 C472 0.961 . S
H487 C473 0.958 . S
H488 C473 0.961 . S
H489 C473 0.960 . S
C490 C491 1.391 . S
C490 C492 1.394 . S
C490 H506 0.931 . S
C491 C490 1.391 . S
C491 C495 1.376 . S
C492 C490 1.394 . S
C492 C493 1.369 . S
C492 C496 1.531 . S
C493 C492 1.369 . S
C493 C494 1.410 . S
C493 C501 1.503 1_545 S
C494 C493 1.410 . S
C494 C495 1.392 . S
C494 C497 1.511 . S
C495 C491 1.376 . S
C495 C494 1.392 . S
C495 H507 0.929 . S
C496 C492 1.531 . S
C496 H508 0.960 . S
C496 H509 0.962 . S
C496 H510 0.960 . S
C497 C494 1.511 . S
C497 H511 0.961 . S
C497 H512 0.961 1_545 S
C497 H513 0.961 . S
C498 C499 1.370 . S
C498 C500 1.363 . S
C498 H514 0.931 . S
C499 C498 1.370 . S
C499 C503 1.408 . S
C500 C498 1.363 . S
C500 C501 1.370 . S
C500 C504 1.524 . S
C501 C493 1.503 1_565 S
C501 C500 1.370 . S
C501 C502 1.403 . S
C502 C501 1.403 . S
C502 C503 1.404 . S
C502 C505 1.550 . S
C503 C499 1.408 . S
C503 C502 1.404 . S
C503 H515 0.930 . S
C504 C500 1.524 . S
C504 H516 0.956 . S
C504 H517 0.961 . S
C504 H518 0.961 . S
C505 C502 1.550 . S
C505 H519 0.960 1_565 S
C505 H520 0.962 . S
C505 H521 0.947 1_565 S
H506 C490 0.931 . S
H507 C495 0.929 . S
H508 C496 0.960 . S
H509 C496 0.962 . S
H510 C496 0.960 . S
H511 C497 0.961 . S
H512 C497 0.961 1_565 S
H513 C497 0.961 . S
H514 C498 0.931 . S
H515 C503 0.930 . S
H516 C504 0.956 . S
H517 C504 0.961 . S
H518 C504 0.961 . S
H519 C505 0.960 1_545 S
H520 C505 0.962 . S
H521 C505 0.947 1_545 S
C522 C523 1.391 . S
C522 C524 1.394 . S
C522 H538 0.931 . S
C523 C522 1.391 . S
C523 C527 1.376 . S
C524 C522 1.394 . S
C524 C525 1.369 . S
C524 C528 1.531 . S
C525 C524 1.369 . S
C525 C526 1.410 . S
C525 C533 1.503 1_455 S
C526 C525 1.410 . S
C526 C527 1.392 . S
C526 C529 1.511 . S
C527 C523 1.376 . S
C527 C526 1.392 . S
C527 H539 0.929 . S
C528 C524 1.531 . S
C528 H540 0.960 1_455 S
C528 H541 0.962 . S
C528 H542 0.960 . S
C529 C526 1.511 . S
C529 H543 0.961 . S
C529 H544 0.961 . S
C529 H545 0.961 . S
C530 C531 1.370 . S
C530 C532 1.363 . S
C530 H546 0.931 . S
C531 C530 1.370 . S
C531 C535 1.408 . S
C532 C530 1.363 . S
C532 C533 1.370 . S
C532 C536 1.524 . S
C533 C525 1.503 1_655 S
C533 C532 1.370 . S
C533 C534 1.403 . S
C534 C533 1.403 . S
C534 C535 1.404 . S
C534 C537 1.539 . S
C535 C531 1.408 . S
C535 C534 1.404 . S
C535 H547 0.930 . S
C536 C532 1.524 . S
C536 H548 0.956 . S
C536 H549 0.962 1_655 S
C536 H550 0.961 . S
C537 C534 1.539 . S
C537 H551 0.958 . S
C537 H552 0.961 . S
C537 H553 0.960 1_655 S
H538 C522 0.931 . S
H539 C527 0.929 . S
H540 C528 0.960 1_655 S
H541 C528 0.962 . S
H542 C528 0.960 . S
H543 C529 0.961 . S
H544 C529 0.961 . S
H545 C529 0.961 . S
H546 C530 0.931 . S
H547 C535 0.930 . S
H548 C536 0.956 . S
H549 C536 0.962 1_455 S
H550 C536 0.961 . S
H551 C537 0.958 . S
H552 C537 0.961 . S
H553 C537 0.960 1_455 S
C554 C555 1.391 . S
C554 C556 1.394 . S
C554 H570 0.931 . S
C555 C554 1.391 . S
C555 C559 1.376 . S
C556 C554 1.394 . S
C556 C557 1.369 . S
C556 C560 1.531 . S
C557 C556 1.369 . S
C557 C558 1.410 . S
C557 C565 1.503 . S
C558 C557 1.410 . S
C558 C559 1.392 . S
C558 C561 1.511 . S
C559 C555 1.376 . S
C559 C558 1.392 . S
C559 H571 0.929 . S
C560 C556 1.531 . S
C560 H572 0.960 . S
C560 H573 0.962 . S
C560 H574 0.960 . S
C561 C558 1.511 . S
C561 H575 0.961 . S
C561 H576 0.961 . S
C561 H577 0.961 . S
C562 C563 1.370 . S
C562 C564 1.363 . S
C562 H578 0.931 . S
C563 C562 1.370 . S
C563 C567 1.408 . S
C564 C562 1.363 . S
C564 C565 1.370 . S
C564 C568 1.524 . S
C565 C557 1.503 . S
C565 C564 1.370 . S
C565 C566 1.403 . S
C566 C565 1.403 . S
C566 C567 1.404 . S
C566 C569 1.539 . S
C567 C563 1.408 . S
C567 C566 1.404 . S
C567 H579 0.930 . S
C568 C564 1.524 . S
C568 H580 0.956 . S
C568 H581 0.961 . S
C568 H582 0.961 . S
C569 C566 1.539 . S
C569 H583 0.958 . S
C569 H584 0.961 . S
C569 H585 0.960 . S
H570 C554 0.931 . S
H571 C559 0.929 . S
H572 C560 0.960 . S
H573 C560 0.962 . S
H574 C560 0.960 . S
H575 C561 0.961 . S
H576 C561 0.961 . S
H577 C561 0.961 . S
H578 C562 0.931 . S
H579 C567 0.930 . S
H580 C568 0.956 . S
H581 C568 0.961 . S
H582 C568 0.961 . S
H583 C569 0.958 . S
H584 C569 0.961 . S
H585 C569 0.960 . S
C586 C587 1.391 . S
C586 C588 1.394 . S
C586 H602 0.931 . S
C587 C586 1.391 . S
C587 C591 1.376 . S
C588 C586 1.394 . S
C588 C589 1.369 . S
C588 C592 1.531 . S
C589 C588 1.369 . S
C589 C590 1.410 . S
C589 C597 1.503 1_545 S
C590 C589 1.410 . S
C590 C591 1.392 . S
C590 C593 1.511 . S
C591 C587 1.376 . S
C591 C590 1.392 . S
C591 H603 0.929 . S
C592 C588 1.531 . S
C592 H604 0.960 1_545 S
C592 H605 0.962 . S
C592 H606 0.960 . S
C593 C590 1.511 . S
C593 H607 0.961 . S
C593 H608 0.961 . S
C593 H609 0.961 . S
C594 C595 1.370 . S
C594 C596 1.363 . S
C594 H610 0.931 . S
C595 C594 1.370 . S
C595 C599 1.408 . S
C596 C594 1.363 . S
C596 C597 1.370 . S
C596 C600 1.524 . S
C597 C589 1.503 1_565 S
C597 C596 1.370 . S
C597 C598 1.403 . S
C598 C597 1.403 . S
C598 C599 1.404 . S
C598 C601 1.539 . S
C599 C595 1.408 . S
C599 C598 1.404 . S
C599 H611 0.930 . S
C600 C596 1.524 . S
C600 H612 0.956 . S
C600 H613 0.961 . S
C600 H614 0.961 . S
C601 C598 1.539 . S
C601 H615 0.958 . S
C601 H616 0.961 . S
C601 H617 0.960 1_565 S
H602 C586 0.931 . S
H603 C591 0.929 . S
H604 C592 0.960 1_565 S
H605 C592 0.962 . S
H606 C592 0.960 . S
H607 C593 0.961 . S
H608 C593 0.961 . S
H609 C593 0.961 . S
H610 C594 0.931 . S
H611 C599 0.930 . S
H612 C600 0.956 . S
H613 C600 0.961 . S
H614 C600 0.961 . S
H615 C601 0.958 . S
H616 C601 0.961 . S
H617 C601 0.960 1_545 S
C618 C619 1.391 . S
C618 C620 1.394 . S
C618 H634 0.931 . S
C619 C618 1.391 . S
C619 C623 1.376 . S
C620 C618 1.394 . S
C620 C621 1.369 . S
C620 C624 1.531 . S
C621 C620 1.369 . S
C621 C622 1.410 . S
C621 C629 1.503 1_565 S
C622 C621 1.410 . S
C622 C623 1.392 . S
C622 C625 1.511 . S
C623 C619 1.376 . S
C623 C622 1.392 . S
C623 H635 0.929 . S
C624 C620 1.531 . S
C624 H636 0.960 1_565 S
C624 H637 0.962 . S
C624 H638 0.960 . S
C625 C622 1.511 . S
C625 H639 0.961 . S
C625 H640 0.961 . S
C625 H641 0.961 . S
C626 C627 1.370 . S
C626 C628 1.363 . S
C626 H642 0.931 . S
C627 C626 1.370 . S
C627 C631 1.408 . S
C628 C626 1.363 . S
C628 C629 1.370 . S
C628 C632 1.524 . S
C629 C621 1.503 1_545 S
C629 C628 1.370 . S
C629 C630 1.403 . S
C630 C629 1.403 . S
C630 C631 1.404 . S
C630 C633 1.539 . S
C631 C627 1.408 . S
C631 C630 1.404 . S
C631 H643 0.930 . S
C632 C628 1.524 . S
C632 H644 0.956 . S
C632 H645 0.961 1_545 S
C632 H646 0.961 . S
C633 C630 1.539 . S
C633 H647 0.958 . S
C633 H648 0.961 . S
C633 H649 0.960 . S
H634 C618 0.931 . S
H635 C623 0.929 . S
H636 C624 0.960 1_545 S
H637 C624 0.962 . S
H638 C624 0.960 . S
H639 C625 0.961 . S
H640 C625 0.961 . S
H641 C625 0.961 . S
H642 C626 0.931 . S
H643 C631 0.930 . S
H644 C632 0.956 . S
H645 C632 0.961 1_565 S
H646 C632 0.961 . S
H647 C633 0.958 . S
H648 C633 0.961 . S
H649 C633 0.960 . S
C650 C651 1.391 . S
C650 C652 1.394 . S
C650 H666 0.931 . S
C651 C650 1.391 . S
C651 C655 1.376 . S
C652 C650 1.394 . S
C652 C653 1.369 . S
C652 C656 1.531 . S
C653 C652 1.369 . S
C653 C654 1.410 . S
C653 C661 1.503 1_455 S
C654 C653 1.410 . S
C654 C655 1.392 . S
C654 C657 1.511 . S
C655 C651 1.376 . S
C655 C654 1.392 . S
C655 H667 0.929 . S
C656 C652 1.531 . S
C656 H668 0.960 1_455 S
C656 H669 0.962 . S
C656 H670 0.960 . S
C657 C654 1.511 . S
C657 H671 0.961 . S
C657 H672 0.961 . S
C657 H673 0.961 . S
C658 C659 1.370 . S
C658 C660 1.363 . S
C658 H674 0.931 . S
C659 C658 1.370 . S
C659 C663 1.408 . S
C660 C658 1.363 . S
C660 C661 1.370 . S
C660 C664 1.524 . S
C661 C653 1.503 1_655 S
C661 C660 1.370 . S
C661 C662 1.403 . S
C662 C661 1.403 . S
C662 C663 1.404 . S
C662 C665 1.539 . S
C663 C659 1.408 . S
C663 C662 1.404 . S
C663 H675 0.930 . S
C664 C660 1.524 . S
C664 H676 0.956 . S
C664 H677 0.961 . S
C664 H678 0.961 . S
C665 C662 1.539 . S
C665 H679 0.958 . S
C665 H680 0.961 . S
C665 H681 0.960 1_655 S
H666 C650 0.931 . S
H667 C655 0.929 . S
H668 C656 0.960 1_655 S
H669 C656 0.962 . S
H670 C656 0.960 . S
H671 C657 0.961 . S
H672 C657 0.961 . S
H673 C657 0.961 . S
H674 C658 0.931 . S
H675 C663 0.930 . S
H676 C664 0.956 . S
H677 C664 0.961 . S
H678 C664 0.961 . S
H679 C665 0.958 . S
H680 C665 0.961 . S
H681 C665 0.960 1_455 S
C682 C683 1.391 . S
C682 C684 1.394 . S
C682 H698 0.931 . S
C683 C682 1.391 . S
C683 C687 1.376 . S
C684 C682 1.394 . S
C684 C685 1.369 . S
C684 C688 1.531 . S
C685 C684 1.369 . S
C685 C686 1.410 . S
C685 C693 1.503 . S
C686 C685 1.410 . S
C686 C687 1.392 . S
C686 C689 1.511 . S
C687 C683 1.376 . S
C687 C686 1.392 . S
C687 H699 0.929 . S
C688 C684 1.531 . S
C688 H700 0.960 . S
C688 H701 0.962 . S
C688 H702 0.960 . S
C689 C686 1.511 . S
C689 H703 0.961 . S
C689 H704 0.961 . S
C689 H705 0.961 . S
C690 C691 1.370 . S
C690 C692 1.363 . S
C690 H706 0.931 . S
C691 C690 1.370 . S
C691 C695 1.408 . S
C692 C690 1.363 . S
C692 C693 1.370 . S
C692 C696 1.524 . S
C693 C685 1.503 . S
C693 C692 1.370 . S
C693 C694 1.403 . S
C694 C693 1.403 . S
C694 C695 1.404 . S
C694 C697 1.539 . S
C695 C691 1.408 . S
C695 C694 1.404 . S
C695 H707 0.930 . S
C696 C692 1.524 . S
C696 H708 0.956 . S
C696 H709 0.961 . S
C696 H710 0.961 . S
C697 C694 1.539 . S
C697 H711 0.958 . S
C697 H712 0.961 . S
C697 H713 0.960 . S
H698 C682 0.931 . S
H699 C687 0.929 . S
H700 C688 0.960 . S
H701 C688 0.962 . S
H702 C688 0.960 . S
H703 C689 0.961 . S
H704 C689 0.961 . S
H705 C689 0.961 . S
H706 C690 0.931 . S
H707 C695 0.930 . S
H708 C696 0.956 . S
H709 C696 0.961 . S
H710 C696 0.961 . S
H711 C697 0.958 . S
H712 C697 0.961 . S
H713 C697 0.960 . S
C714 C715 1.391 . S
C714 C716 1.394 . S
C714 H730 0.931 . S
C715 C714 1.391 . S
C715 C719 1.376 . S
C716 C714 1.394 . S
C716 C717 1.369 . S
C716 C720 1.531 . S
C717 C716 1.369 . S
C717 C718 1.410 . S
C717 C725 1.503 . S
C718 C717 1.410 . S
C718 C719 1.392 . S
C718 C721 1.511 . S
C719 C715 1.376 . S
C719 C718 1.392 . S
C719 H731 0.929 . S
C720 C716 1.531 . S
C720 H732 0.960 . S
C720 H733 0.962 . S
C720 H734 0.960 . S
C721 C718 1.511 . S
C721 H735 0.961 . S
C721 H736 0.961 . S
C721 H737 0.961 . S
C722 C723 1.370 . S
C722 C724 1.363 . S
C722 H738 0.931 . S
C723 C722 1.370 . S
C723 C727 1.408 . S
C724 C722 1.363 . S
C724 C725 1.370 . S
C724 C728 1.524 . S
C725 C717 1.503 . S
C725 C724 1.370 . S
C725 C726 1.403 . S
C726 C725 1.403 . S
C726 C727 1.404 . S
C726 C729 1.539 . S
C727 C723 1.408 . S
C727 C726 1.404 . S
C727 H739 0.930 . S
C728 C724 1.524 . S
C728 H740 0.956 . S
C728 H741 0.961 . S
C728 H742 0.961 . S
C729 C726 1.539 . S
C729 H743 0.958 . S
C729 H744 0.961 . S
C729 H745 0.960 . S
H730 C714 0.931 . S
H731 C719 0.929 . S
H732 C720 0.960 . S
H733 C720 0.962 . S
H734 C720 0.960 . S
H735 C721 0.961 . S
H736 C721 0.961 . S
H737 C721 0.961 . S
H738 C722 0.931 . S
H739 C727 0.930 . S
H740 C728 0.956 . S
H741 C728 0.961 . S
H742 C728 0.961 . S
H743 C729 0.958 . S
H744 C729 0.961 . S
H745 C729 0.960 . S
C746 C747 1.391 . S
C746 C748 1.394 . S
C746 H762 0.931 . S
C747 C746 1.391 . S
C747 C751 1.376 . S
C748 C746 1.394 . S
C748 C749 1.369 . S
C748 C752 1.531 . S
C749 C748 1.369 . S
C749 C750 1.410 . S
C749 C757 1.503 . S
C750 C749 1.410 . S
C750 C751 1.392 . S
C750 C753 1.511 . S
C751 C747 1.376 . S
C751 C750 1.392 . S
C751 H763 0.929 . S
C752 C748 1.531 . S
C752 H764 0.960 . S
C752 H765 0.962 . S
C752 H766 0.960 . S
C753 C750 1.511 . S
C753 H767 0.961 . S
C753 H768 0.961 . S
C753 H769 0.961 . S
C754 C755 1.370 . S
C754 C756 1.363 . S
C754 H770 0.931 . S
C755 C754 1.370 . S
C755 C759 1.408 . S
C756 C754 1.363 . S
C756 C757 1.370 . S
C756 C760 1.524 . S
C757 C749 1.503 . S
C757 C756 1.370 . S
C757 C758 1.403 . S
C758 C757 1.403 . S
C758 C759 1.404 . S
C758 C761 1.539 . S
C759 C755 1.408 . S
C759 C758 1.404 . S
C759 H771 0.930 . S
C760 C756 1.524 . S
C760 H772 0.956 . S
C760 H773 0.961 . S
C760 H774 0.961 . S
C761 C758 1.539 . S
C761 H775 0.958 . S
C761 H776 0.961 . S
C761 H777 0.960 . S
H762 C746 0.931 . S
H763 C751 0.929 . S
H764 C752 0.960 . S
H765 C752 0.962 . S
H766 C752 0.960 . S
H767 C753 0.961 . S
H768 C753 0.961 . S
H769 C753 0.961 . S
H770 C754 0.931 . S
H771 C759 0.930 . S
H772 C760 0.956 . S
H773 C760 0.961 . S
H774 C760 0.961 . S
H775 C761 0.958 . S
H776 C761 0.961 . S
H777 C761 0.960 . S
C778 C779 1.391 . S
C778 C780 1.394 . S
C778 H794 0.931 . S
C779 C778 1.391 . S
C779 C783 1.376 . S
C780 C778 1.394 . S
C780 C781 1.369 . S
C780 C784 1.531 . S
C781 C780 1.369 . S
C781 C782 1.410 . S
C781 C789 1.503 . S
C782 C781 1.410 . S
C782 C783 1.392 . S
C782 C785 1.511 . S
C783 C779 1.376 . S
C783 C782 1.392 . S
C783 H795 0.929 . S
C784 C780 1.531 . S
C784 H796 0.960 . S
C784 H797 0.962 . S
C784 H798 0.960 . S
C785 C782 1.511 . S
C785 H799 0.961 . S
C785 H800 0.961 . S
C785 H801 0.961 . S
C786 C787 1.370 . S
C786 C788 1.363 . S
C786 H802 0.931 . S
C787 C786 1.370 . S
C787 C791 1.408 . S
C788 C786 1.363 . S
C788 C789 1.370 . S
C788 C792 1.524 . S
C789 C781 1.503 . S
C789 C788 1.370 . S
C789 C790 1.403 . S
C790 C789 1.403 . S
C790 C791 1.404 . S
C790 C793 1.539 . S
C791 C787 1.408 . S
C791 C790 1.404 . S
C791 H803 0.930 . S
C792 C788 1.524 . S
C792 H804 0.956 . S
C792 H805 0.961 . S
C792 H806 0.961 . S
C793 C790 1.539 . S
C793 H807 0.958 . S
C793 H808 0.961 . S
C793 H809 0.960 . S
H794 C778 0.931 . S
H795 C783 0.929 . S
H796 C784 0.960 . S
H797 C784 0.962 . S
H798 C784 0.960 . S
H799 C785 0.961 . S
H800 C785 0.961 . S
H801 C785 0.961 . S
H802 C786 0.931 . S
H803 C791 0.930 . S
H804 C792 0.956 . S
H805 C792 0.961 . S
H806 C792 0.961 . S
H807 C793 0.958 . S
H808 C793 0.961 . S
H809 C793 0.960 . S
C810 C811 1.391 . S
C810 C812 1.394 . S
C810 H826 0.931 . S
C811 C810 1.391 . S
C811 C815 1.376 . S
C812 C810 1.394 . S
C812 C813 1.369 . S
C812 C816 1.531 . S
C813 C812 1.369 . S
C813 C814 1.410 . S
C813 C821 1.503 . S
C814 C813 1.410 . S
C814 C815 1.392 . S
C814 C817 1.511 . S
C815 C811 1.376 . S
C815 C814 1.392 . S
C815 H827 0.929 . S
C816 C812 1.531 . S
C816 H828 0.960 . S
C816 H829 0.962 . S
C816 H830 0.960 . S
C817 C814 1.511 . S
C817 H831 0.961 . S
C817 H832 0.961 . S
C817 H833 0.961 . S
C818 C819 1.370 . S
C818 C820 1.363 . S
C818 H834 0.931 . S
C819 C818 1.370 . S
C819 C823 1.408 . S
C820 C818 1.363 . S
C820 C821 1.370 . S
C820 C824 1.524 . S
C821 C813 1.503 . S
C821 C820 1.370 . S
C821 C822 1.403 . S
C822 C821 1.403 . S
C822 C823 1.404 . S
C822 C825 1.539 . S
C823 C819 1.408 . S
C823 C822 1.404 . S
C823 H835 0.930 . S
C824 C820 1.524 . S
C824 H836 0.956 . S
C824 H837 0.961 . S
C824 H838 0.961 . S
C825 C822 1.539 . S
C825 H839 0.958 . S
C825 H840 0.961 . S
C825 H841 0.960 . S
H826 C810 0.931 . S
H827 C815 0.929 . S
H828 C816 0.960 . S
H829 C816 0.962 . S
H830 C816 0.960 . S
H831 C817 0.961 . S
H832 C817 0.961 . S
H833 C817 0.961 . S
H834 C818 0.931 . S
H835 C823 0.930 . S
H836 C824 0.956 . S
H837 C824 0.961 . S
H838 C824 0.961 . S
H839 C825 0.958 . S
H840 C825 0.961 . S
H841 C825 0.960 . S
C842 C843 1.391 . S
C842 C844 1.394 . S
C842 H858 0.931 . S
C843 C842 1.391 . S
C843 C847 1.376 . S
C844 C842 1.394 . S
C844 C845 1.369 . S
C844 C848 1.531 . S
C845 C844 1.369 . S
C845 C846 1.410 . S
C845 C853 1.503 . S
C846 C845 1.410 . S
C846 C847 1.392 . S
C846 C849 1.511 . S
C847 C843 1.376 . S
C847 C846 1.392 . S
C847 H859 0.929 . S
C848 C844 1.531 . S
C848 H860 0.960 . S
C848 H861 0.962 . S
C848 H862 0.960 . S
C849 C846 1.511 . S
C849 H863 0.961 . S
C849 H864 0.961 . S
C849 H865 0.961 . S
C850 C851 1.370 . S
C850 C852 1.363 . S
C850 H866 0.931 . S
C851 C850 1.370 . S
C851 C855 1.408 . S
C852 C850 1.363 . S
C852 C853 1.370 . S
C852 C856 1.524 . S
C853 C845 1.503 . S
C853 C852 1.370 . S
C853 C854 1.403 . S
C854 C853 1.403 . S
C854 C855 1.404 . S
C854 C857 1.539 . S
C855 C851 1.408 . S
C855 C854 1.404 . S
C855 H867 0.930 . S
C856 C852 1.524 . S
C856 H868 0.956 . S
C856 H869 0.961 . S
C856 H870 0.961 . S
C857 C854 1.539 . S
C857 H871 0.958 . S
C857 H872 0.961 . S
C857 H873 0.960 . S
H858 C842 0.931 . S
H859 C847 0.929 . S
H860 C848 0.960 . S
H861 C848 0.962 . S
H862 C848 0.960 . S
H863 C849 0.961 . S
H864 C849 0.961 . S
H865 C849 0.961 . S
H866 C850 0.931 . S
H867 C855 0.930 . S
H868 C856 0.956 . S
H869 C856 0.961 . S
H870 C856 0.961 . S
H871 C857 0.958 . S
H872 C857 0.961 . S
H873 C857 0.960 . S
C874 C875 1.391 . S
C874 C876 1.394 . S
C874 H890 0.931 . S
C875 C874 1.391 . S
C875 C879 1.376 . S
C876 C874 1.394 . S
C876 C877 1.369 . S
C876 C880 1.531 . S
C877 C876 1.369 . S
C877 C878 1.410 . S
C877 C885 1.503 . S
C878 C877 1.410 . S
C878 C879 1.392 . S
C878 C881 1.511 . S
C879 C875 1.376 . S
C879 C878 1.392 . S
C879 H891 0.929 . S
C880 C876 1.531 . S
C880 H892 0.960 . S
C880 H893 0.962 . S
C880 H894 0.960 . S
C881 C878 1.511 . S
C881 H895 0.961 . S
C881 H896 0.961 . S
C881 H897 0.961 . S
C882 C883 1.370 . S
C882 C884 1.363 . S
C882 H898 0.931 . S
C883 C882 1.370 . S
C883 C887 1.408 . S
C884 C882 1.363 . S
C884 C885 1.370 . S
C884 C888 1.524 . S
C885 C877 1.503 . S
C885 C884 1.370 . S
C885 C886 1.403 . S
C886 C885 1.403 . S
C886 C887 1.404 . S
C886 C889 1.539 . S
C887 C883 1.408 . S
C887 C886 1.404 . S
C887 H899 0.930 . S
C888 C884 1.524 . S
C888 H900 0.956 . S
C888 H901 0.961 . S
C888 H902 0.961 . S
C889 C886 1.539 . S
C889 H903 0.958 . S
C889 H904 0.961 . S
C889 H905 0.960 . S
H890 C874 0.931 . S
H891 C879 0.929 . S
H892 C880 0.960 . S
H893 C880 0.962 . S
H894 C880 0.960 . S
H895 C881 0.961 . S
H896 C881 0.961 . S
H897 C881 0.961 . S
H898 C882 0.931 . S
H899 C887 0.930 . S
H900 C888 0.956 . S
H901 C888 0.961 . S
H902 C888 0.961 . S
H903 C889 0.958 . S
H904 C889 0.961 . S
H905 C889 0.960 . S
C906 C907 1.391 . S
C906 C908 1.394 . S
C906 H922 0.931 . S
C907 C906 1.391 . S
C907 C911 1.376 . S
C908 C906 1.394 . S
C908 C909 1.369 . S
C908 C912 1.531 . S
C909 C908 1.369 . S
C909 C910 1.410 . S
C909 C917 1.503 . S
C910 C909 1.410 . S
C910 C911 1.392 . S
C910 C913 1.511 . S
C911 C907 1.376 . S
C911 C910 1.392 . S
C911 H923 0.929 . S
C912 C908 1.531 . S
C912 H924 0.960 . S
C912 H925 0.962 . S
C912 H926 0.960 . S
C913 C910 1.511 . S
C913 H927 0.961 . S
C913 H928 0.961 . S
C913 H929 0.961 . S
C914 C915 1.370 . S
C914 C916 1.363 . S
C914 H930 0.931 . S
C915 C914 1.370 . S
C915 C919 1.408 . S
C916 C914 1.363 . S
C916 C917 1.370 . S
C916 C920 1.524 . S
C917 C909 1.503 . S
C917 C916 1.370 . S
C917 C918 1.403 . S
C918 C917 1.403 . S
C918 C919 1.404 . S
C918 C921 1.539 . S
C919 C915 1.408 . S
C919 C918 1.404 . S
C919 H931 0.930 . S
C920 C916 1.524 . S
C920 H932 0.956 . S
C920 H933 0.961 . S
C920 H934 0.961 . S
C921 C918 1.539 . S
C921 H935 0.958 . S
C921 H936 0.961 . S
C921 H937 0.960 . S
H922 C906 0.931 . S
H923 C911 0.929 . S
H924 C912 0.960 . S
H925 C912 0.962 . S
H926 C912 0.960 . S
H927 C913 0.961 . S
H928 C913 0.961 . S
H929 C913 0.961 . S
H930 C914 0.931 . S
H931 C919 0.930 . S
H932 C920 0.956 . S
H933 C920 0.961 . S
H934 C920 0.961 . S
H935 C921 0.958 . S
H936 C921 0.961 . S
H937 C921 0.960 . S
C938 C939 1.391 . S
C938 C940 1.394 . S
C938 H954 0.931 . S
C939 C938 1.391 . S
C939 C943 1.376 . S
C940 C938 1.394 . S
C940 C941 1.369 . S
C940 C944 1.531 . S
C941 C940 1.369 . S
C941 C942 1.410 . S
C941 C949 1.503 . S
C942 C941 1.410 . S
C942 C943 1.392 . S
C942 C945 1.511 . S
C943 C939 1.376 . S
C943 C942 1.392 . S
C943 H955 0.929 . S
C944 C940 1.531 . S
C944 H956 0.960 . S
C944 H957 0.962 . S
C944 H958 0.960 . S
C945 C942 1.511 . S
C945 H959 0.961 . S
C945 H960 0.961 . S
C945 H961 0.961 . S
C946 C947 1.370 . S
C946 C948 1.363 . S
C946 H962 0.931 . S
C947 C946 1.370 . S
C947 C951 1.408 . S
C948 C946 1.363 . S
C948 C949 1.370 . S
C948 C952 1.524 . S
C949 C941 1.503 . S
C949 C948 1.370 . S
C949 C950 1.403 . S
C950 C949 1.403 . S
C950 C951 1.404 . S
C950 C953 1.539 . S
C951 C947 1.408 . S
C951 C950 1.404 . S
C951 H963 0.930 . S
C952 C948 1.524 . S
C952 H964 0.956 . S
C952 H965 0.961 . S
C952 H966 0.961 . S
C953 C950 1.539 . S
C953 H967 0.958 . S
C953 H968 0.961 . S
C953 H969 0.960 . S
H954 C938 0.931 . S
H955 C943 0.929 . S
H956 C944 0.960 . S
H957 C944 0.962 . S
H958 C944 0.960 . S
H959 C945 0.961 . S
H960 C945 0.961 . S
H961 C945 0.961 . S
H962 C946 0.931 . S
H963 C951 0.930 . S
H964 C952 0.956 . S
H965 C952 0.961 . S
H966 C952 0.961 . S
H967 C953 0.958 . S
H968 C953 0.961 . S
H969 C953 0.960 . S
C970 C971 1.391 . S
C970 C972 1.394 . S
C970 H986 0.931 . S
C971 C970 1.391 . S
C971 C975 1.376 . S
C972 C970 1.394 . S
C972 C973 1.369 . S
C972 C976 1.531 . S
C973 C972 1.369 . S
C973 C974 1.410 . S
C973 C981 1.503 . S
C974 C973 1.410 . S
C974 C975 1.392 . S
C974 C977 1.511 . S
C975 C971 1.376 . S
C975 C974 1.392 . S
C975 H987 0.929 . S
C976 C972 1.531 . S
C976 H988 0.960 . S
C976 H989 0.962 . S
C976 H990 0.960 . S
C977 C974 1.511 . S
C977 H991 0.961 . S
C977 H992 0.961 . S
C977 H993 0.961 . S
C978 C979 1.370 . S
C978 C980 1.363 . S
C978 H994 0.931 . S
C979 C978 1.370 . S
C979 C983 1.408 . S
C980 C978 1.363 . S
C980 C981 1.370 . S
C980 C984 1.524 . S
C981 C973 1.503 . S
C981 C980 1.370 . S
C981 C982 1.403 . S
C982 C981 1.403 . S
C982 C983 1.404 . S
C982 C985 1.539 . S
C983 C979 1.408 . S
C983 C982 1.404 . S
C983 H995 0.930 . S
C984 C980 1.524 . S
C984 H996 0.956 . S
C984 H997 0.961 . S
C984 H998 0.961 . S
C985 C982 1.539 . S
C985 H999 0.958 . S
C985 H1000 0.961 . S
C985 H1001 0.960 . S
H986 C970 0.931 . S
H987 C975 0.929 . S
H988 C976 0.960 . S
H989 C976 0.962 . S
H990 C976 0.960 . S
H991 C977 0.961 . S
H992 C977 0.961 . S
H993 C977 0.961 . S
H994 C978 0.931 . S
H995 C983 0.930 . S
H996 C984 0.956 . S
H997 C984 0.961 . S
H998 C984 0.961 . S
H999 C985 0.958 . S
H1000 C985 0.961 . S
H1001 C985 0.960 . S
C1002 C1003 1.391 . S
C1002 C1004 1.394 . S
C1002 H1018 0.931 . S
C1003 C1002 1.391 . S
C1003 C1007 1.376 . S
C1004 C1002 1.394 . S
C1004 C1005 1.369 . S
C1004 C1008 1.531 . S
C1005 C1004 1.369 . S
C1005 C1006 1.410 . S
C1005 C1013 1.503 . S
C1006 C1005 1.410 . S
C1006 C1007 1.392 . S
C1006 C1009 1.511 . S
C1007 C1003 1.376 . S
C1007 C1006 1.392 . S
C1007 H1019 0.929 . S
C1008 C1004 1.531 . S
C1008 H1020 0.960 . S
C1008 H1021 0.962 . S
C1008 H1022 0.960 . S
C1009 C1006 1.511 . S
C1009 H1023 0.961 . S
C1009 H1024 0.961 . S
C1009 H1025 0.961 . S
C1010 C1011 1.370 . S
C1010 C1012 1.363 . S
C1010 H1026 0.931 . S
C1011 C1010 1.370 . S
C1011 C1015 1.408 . S
C1012 C1010 1.363 . S
C1012 C1013 1.370 . S
C1012 C1016 1.524 . S
C1013 C1005 1.503 . S
C1013 C1012 1.370 . S
C1013 C1014 1.403 . S
C1014 C1013 1.403 . S
C1014 C1015 1.404 . S
C1014 C1017 1.539 . S
C1015 C1011 1.408 . S
C1015 C1014 1.404 . S
C1015 H1027 0.930 . S
C1016 C1012 1.524 . S
C1016 H1028 0.956 . S
C1016 H1029 0.961 . S
C1016 H1030 0.961 . S
C1017 C1014 1.539 . S
C1017 H1031 0.958 . S
C1017 H1032 0.961 . S
C1017 H1033 0.960 . S
H1018 C1002 0.931 . S
H1019 C1007 0.929 . S
H1020 C1008 0.960 . S
H1021 C1008 0.962 . S
H1022 C1008 0.960 . S
H1023 C1009 0.961 . S
H1024 C1009 0.961 . S
H1025 C1009 0.961 . S
H1026 C1010 0.931 . S
H1027 C1015 0.930 . S
H1028 C1016 0.956 . S
H1029 C1016 0.961 . S
H1030 C1016 0.961 . S
H1031 C1017 0.958 . S
H1032 C1017 0.961 . S
H1033 C1017 0.960 . S
C1034 C1035 1.391 . S
C1034 C1036 1.394 . S
C1034 H1050 0.931 . S
C1035 C1034 1.391 . S
C1035 C1039 1.376 . S
C1036 C1034 1.394 . S
C1036 C1037 1.369 . S
C1036 C1040 1.531 . S
C1037 C1036 1.369 . S
C1037 C1038 1.410 . S
C1037 C1045 1.503 . S
C1038 C1037 1.410 . S
C1038 C1039 1.392 . S
C1038 C1041 1.511 . S
C1039 C1035 1.376 . S
C1039 C1038 1.392 . S
C1039 H1051 0.929 . S
C1040 C1036 1.531 . S
C1040 H1052 0.960 . S
C1040 H1053 0.962 . S
C1040 H1054 0.960 . S
C1041 C1038 1.511 . S
C1041 H1055 0.961 . S
C1041 H1056 0.961 . S
C1041 H1057 0.961 . S
C1042 C1043 1.370 . S
C1042 C1044 1.363 . S
C1042 H1058 0.931 . S
C1043 C1042 1.370 . S
C1043 C1047 1.408 . S
C1044 C1042 1.363 . S
C1044 C1045 1.370 . S
C1044 C1048 1.524 . S
C1045 C1037 1.503 . S
C1045 C1044 1.370 . S
C1045 C1046 1.403 . S
C1046 C1045 1.403 . S
C1046 C1047 1.404 . S
C1046 C1049 1.539 . S
C1047 C1043 1.408 . S
C1047 C1046 1.404 . S
C1047 H1059 0.930 . S
C1048 C1044 1.524 . S
C1048 H1060 0.956 . S
C1048 H1061 0.961 . S
C1048 H1062 0.961 . S
C1049 C1046 1.539 . S
C1049 H1063 0.958 . S
C1049 H1064 0.961 . S
C1049 H1065 0.960 . S
H1050 C1034 0.931 . S
H1051 C1039 0.929 . S
H1052 C1040 0.960 . S
H1053 C1040 0.962 . S
H1054 C1040 0.960 . S
H1055 C1041 0.961 . S
H1056 C1041 0.961 . S
H1057 C1041 0.961 . S
H1058 C1042 0.931 . S
H1059 C1047 0.930 . S
H1060 C1048 0.956 . S
H1061 C1048 0.961 . S
H1062 C1048 0.961 . S
H1063 C1049 0.958 . S
H1064 C1049 0.961 . S
H1065 C1049 0.960 . S
C1066 C1067 1.391 . S
C1066 C1068 1.394 . S
C1066 H1082 0.931 . S
C1067 C1066 1.391 . S
C1067 C1071 1.376 . S
C1068 C1066 1.394 . S
C1068 C1069 1.369 . S
C1068 C1072 1.531 . S
C1069 C1068 1.369 . S
C1069 C1070 1.410 . S
C1069 C1077 1.503 . S
C1070 C1069 1.410 . S
C1070 C1071 1.392 . S
C1070 C1073 1.511 . S
C1071 C1067 1.376 . S
C1071 C1070 1.392 . S
C1071 H1083 0.929 . S
C1072 C1068 1.531 . S
C1072 H1084 0.960 . S
C1072 H1085 0.962 . S
C1072 H1086 0.960 . S
C1073 C1070 1.511 . S
C1073 H1087 0.961 . S
C1073 H1088 0.961 . S
C1073 H1089 0.961 . S
C1074 C1075 1.370 . S
C1074 C1076 1.363 . S
C1074 H1090 0.931 . S
C1075 C1074 1.370 . S
C1075 C1079 1.408 . S
C1076 C1074 1.363 . S
C1076 C1077 1.370 . S
C1076 C1080 1.524 . S
C1077 C1069 1.503 . S
C1077 C1076 1.370 . S
C1077 C1078 1.403 . S
C1078 C1077 1.403 . S
C1078 C1079 1.404 . S
C1078 C1081 1.539 . S
C1079 C1075 1.408 . S
C1079 C1078 1.404 . S
C1079 H1091 0.930 . S
C1080 C1076 1.524 . S
C1080 H1092 0.956 . S
C1080 H1093 0.961 . S
C1080 H1094 0.961 . S
C1081 C1078 1.539 . S
C1081 H1095 0.958 . S
C1081 H1096 0.961 . S
C1081 H1097 0.960 . S
H1082 C1066 0.931 . S
H1083 C1071 0.929 . S
H1084 C1072 0.960 . S
H1085 C1072 0.962 . S
H1086 C1072 0.960 . S
H1087 C1073 0.961 . S
H1088 C1073 0.961 . S
H1089 C1073 0.961 . S
H1090 C1074 0.931 . S
H1091 C1079 0.930 . S
H1092 C1080 0.956 . S
H1093 C1080 0.961 . S
H1094 C1080 0.961 . S
H1095 C1081 0.958 . S
H1096 C1081 0.961 . S
H1097 C1081 0.960 . S
C1098 C1099 1.391 . S
C1098 C1100 1.394 . S
C1098 H1114 0.931 . S
C1099 C1098 1.391 . S
C1099 C1103 1.376 . S
C1100 C1098 1.394 . S
C1100 C1101 1.369 . S
C1100 C1104 1.531 . S
C1101 C1100 1.369 . S
C1101 C1102 1.410 . S
C1101 C1109 1.503 1_554 S
C1102 C1101 1.410 . S
C1102 C1103 1.392 . S
C1102 C1105 1.511 . S
C1103 C1099 1.376 . S
C1103 C1102 1.392 . S
C1103 H1115 0.929 . S
C1104 C1100 1.531 . S
C1104 H1116 0.960 1_554 S
C1104 H1117 0.962 . S
C1104 H1118 0.960 . S
C1105 C1102 1.511 . S
C1105 H1119 0.961 . S
C1105 H1120 0.961 1_554 S
C1105 H1121 0.961 . S
C1106 C1107 1.370 . S
C1106 C1108 1.363 . S
C1106 H1122 0.931 . S
C1107 C1106 1.370 . S
C1107 C1111 1.408 . S
C1108 C1106 1.363 . S
C1108 C1109 1.370 . S
C1108 C1112 1.524 . S
C1109 C1101 1.503 1_556 S
C1109 C1108 1.370 . S
C1109 C1110 1.403 . S
C1110 C1109 1.403 . S
C1110 C1111 1.404 . S
C1110 C1113 1.539 . S
C1111 C1107 1.408 . S
C1111 C1110 1.404 . S
C1111 H1123 0.930 . S
C1112 C1108 1.524 . S
C1112 H1124 0.956 1_556 S
C1112 H1125 0.961 1_556 S
C1112 H1126 0.961 . S
C1113 C1110 1.539 . S
C1113 H1127 0.958 . S
C1113 H1128 0.961 . S
C1113 H1129 0.960 . S
H1114 C1098 0.931 . S
H1115 C1103 0.929 . S
H1116 C1104 0.960 1_556 S
H1117 C1104 0.962 . S
H1118 C1104 0.960 . S
H1119 C1105 0.961 . S
H1120 C1105 0.961 1_556 S
H1121 C1105 0.961 . S
H1122 C1106 0.931 . S
H1123 C1111 0.930 . S
H1124 C1112 0.956 1_554 S
H1125 C1112 0.961 1_554 S
H1126 C1112 0.961 . S
H1127 C1113 0.958 . S
H1128 C1113 0.961 . S
H1129 C1113 0.960 . S
C1130 C1131 1.391 . S
C1130 C1132 1.394 . S
C1130 H1146 0.931 . S
C1131 C1130 1.391 . S
C1131 C1135 1.376 1_545 S
C1132 C1130 1.394 . S
C1132 C1133 1.358 1_545 S
C1132 C1136 1.531 . S
C1133 C1132 1.358 1_565 S
C1133 C1134 1.420 . S
C1133 C1141 1.504 1_556 S
C1134 C1133 1.420 . S
C1134 C1135 1.392 . S
C1134 C1137 1.511 . S
C1135 C1131 1.376 1_565 S
C1135 C1134 1.392 . S
C1135 H1147 0.929 . S
C1136 C1132 1.531 . S
C1136 H1148 0.960 1_556 S
C1136 H1149 0.962 . S
C1136 H1150 0.960 . S
C1137 C1134 1.511 . S
C1137 H1151 0.961 . S
C1137 H1152 0.961 . S
C1137 H1153 0.961 . S
C1138 C1139 1.370 1_545 S
C1138 C1140 1.363 . S
C1138 H1154 0.931 . S
C1139 C1138 1.370 1_565 S
C1139 C1143 1.408 . S
C1140 C1138 1.363 . S
C1140 C1141 1.370 1_545 S
C1140 C1144 1.524 . S
C1141 C1133 1.504 1_554 S
C1141 C1140 1.370 1_565 S
C1141 C1142 1.403 . S
C1142 C1141 1.403 . S
C1142 C1143 1.404 . S
C1142 C1145 1.539 . S
C1143 C1139 1.408 . S
C1143 C1142 1.404 . S
C1143 H1155 0.930 . S
C1144 C1140 1.524 . S
C1144 H1156 0.956 . S
C1144 H1157 0.961 1_544 S
C1144 H1158 0.961 . S
C1145 C1142 1.539 . S
C1145 H1159 0.958 1_565 S
C1145 H1160 0.961 . S
C1145 H1161 0.960 1_554 S
H1146 C1130 0.931 . S
H1147 C1135 0.929 . S
H1148 C1136 0.960 1_554 S
H1149 C1136 0.962 . S
H1150 C1136 0.960 . S
H1151 C1137 0.961 . S
H1152 C1137 0.961 . S
H1153 C1137 0.961 . S
H1154 C1138 0.931 . S
H1155 C1143 0.930 . S
H1156 C1144 0.956 . S
H1157 C1144 0.961 1_566 S
H1158 C1144 0.961 . S
H1159 C1145 0.958 1_545 S
H1160 C1145 0.961 . S
H1161 C1145 0.960 1_556 S
C1162 C1163 1.391 . S
C1162 C1164 1.394 . S
C1162 H1178 0.931 . S
C1163 C1162 1.391 . S
C1163 C1167 1.376 1_655 S
C1164 C1162 1.394 . S
C1164 C1165 1.369 . S
C1164 C1168 1.531 . S
C1165 C1164 1.369 . S
C1165 C1166 1.410 1_655 S
C1165 C1173 1.504 1_556 S
C1166 C1165 1.410 1_455 S
C1166 C1167 1.392 . S
C1166 C1169 1.511 . S
C1167 C1163 1.376 1_455 S
C1167 C1166 1.392 . S
C1167 H1179 0.929 . S
C1168 C1164 1.531 . S
C1168 H1180 0.960 1_556 S
C1168 H1181 0.962 . S
C1168 H1182 0.960 . S
C1169 C1166 1.511 . S
C1169 H1183 0.961 . S
C1169 H1184 0.961 1_556 S
C1169 H1185 0.961 . S
C1170 C1171 1.370 . S
C1170 C1172 1.363 . S
C1170 H1186 0.931 . S
C1171 C1170 1.370 . S
C1171 C1175 1.408 1_455 S
C1172 C1170 1.363 . S
C1172 C1173 1.375 1_455 S
C1172 C1176 1.524 . S
C1173 C1165 1.504 1_554 S
C1173 C1172 1.375 1_655 S
C1173 C1174 1.398 . S
C1174 C1173 1.398 . S
C1174 C1175 1.404 . S
C1174 C1177 1.539 . S
C1175 C1171 1.408 1_655 S
C1175 C1174 1.404 . S
C1175 H1187 0.930 . S
C1176 C1172 1.524 . S
C1176 H1188 0.956 1_455 S
C1176 H1189 0.961 1_554 S
C1176 H1190 0.961 . S
C1177 C1174 1.539 . S
C1177 H1191 0.958 . S
C1177 H1192 0.961 . S
C1177 H1193 0.960 . S
H1178 C1162 0.931 . S
H1179 C1167 0.929 . S
H1180 C1168 0.960 1_554 S
H1181 C1168 0.962 . S
H1182 C1168 0.960 . S
H1183 C1169 0.961 . S
H1184 C1169 0.961 1_554 S
H1185 C1169 0.961 . S
H1186 C1170 0.931 . S
H1187 C1175 0.930 . S
H1188 C1176 0.956 1_655 S
H1189 C1176 0.961 1_556 S
H1190 C1176 0.961 . S
H1191 C1177 0.958 . S
H1192 C1177 0.961 . S
H1193 C1177 0.960 . S
C1194 C1195 1.391 . S
C1194 C1196 1.394 . S
C1194 H1210 0.931 . S
C1195 C1194 1.391 . S
C1195 C1199 1.376 . S
C1196 C1194 1.394 . S
C1196 C1197 1.369 . S
C1196 C1200 1.531 . S
C1197 C1196 1.369 . S
C1197 C1198 1.410 . S
C1197 C1205 1.503 . S
C1198 C1197 1.410 . S
C1198 C1199 1.392 . S
C1198 C1201 1.511 . S
C1199 C1195 1.376 . S
C1199 C1198 1.392 . S
C1199 H1211 0.929 . S
C1200 C1196 1.531 . S
C1200 H1212 0.960 . S
C1200 H1213 0.962 . S
C1200 H1214 0.960 . S
C1201 C1198 1.511 . S
C1201 H1215 0.961 . S
C1201 H1216 0.961 . S
C1201 H1217 0.961 . S
C1202 C1203 1.370 . S
C1202 C1204 1.363 . S
C1202 H1218 0.931 . S
C1203 C1202 1.370 . S
C1203 C1207 1.408 . S
C1204 C1202 1.363 . S
C1204 C1205 1.370 . S
C1204 C1208 1.524 . S
C1205 C1197 1.503 . S
C1205 C1204 1.370 . S
C1205 C1206 1.403 . S
C1206 C1205 1.403 . S
C1206 C1207 1.404 . S
C1206 C1209 1.539 . S
C1207 C1203 1.408 . S
C1207 C1206 1.404 . S
C1207 H1219 0.930 . S
C1208 C1204 1.524 . S
C1208 H1220 0.956 . S
C1208 H1221 0.961 . S
C1208 H1222 0.961 . S
C1209 C1206 1.539 . S
C1209 H1223 0.958 . S
C1209 H1224 0.961 . S
C1209 H1225 0.960 . S
H1210 C1194 0.931 . S
H1211 C1199 0.929 . S
H1212 C1200 0.960 . S
H1213 C1200 0.962 . S
H1214 C1200 0.960 . S
H1215 C1201 0.961 . S
H1216 C1201 0.961 . S
H1217 C1201 0.961 . S
H1218 C1202 0.931 . S
H1219 C1207 0.930 . S
H1220 C1208 0.956 . S
H1221 C1208 0.961 . S
H1222 C1208 0.961 . S
H1223 C1209 0.958 . S
H1224 C1209 0.961 . S
H1225 C1209 0.960 . S
C1226 C1227 1.391 . S
C1226 C1228 1.394 . S
C1226 H1242 0.931 . S
C1227 C1226 1.391 . S
C1227 C1231 1.376 . S
C1228 C1226 1.394 . S
C1228 C1229 1.369 . S
C1228 C1232 1.531 . S
C1229 C1228 1.369 . S
C1229 C1230 1.410 . S
C1229 C1237 1.503 . S
C1230 C1229 1.410 . S
C1230 C1231 1.392 . S
C1230 C1233 1.511 . S
C1231 C1227 1.376 . S
C1231 C1230 1.392 . S
C1231 H1243 0.929 . S
C1232 C1228 1.531 . S
C1232 H1244 0.960 . S
C1232 H1245 0.962 . S
C1232 H1246 0.960 . S
C1233 C1230 1.511 . S
C1233 H1247 0.961 . S
C1233 H1248 0.961 . S
C1233 H1249 0.961 . S
C1234 C1235 1.370 . S
C1234 C1236 1.363 . S
C1234 H1250 0.931 . S
C1235 C1234 1.370 . S
C1235 C1239 1.408 . S
C1236 C1234 1.363 . S
C1236 C1237 1.370 . S
C1236 C1240 1.524 . S
C1237 C1229 1.503 . S
C1237 C1236 1.370 . S
C1237 C1238 1.403 . S
C1238 C1237 1.403 . S
C1238 C1239 1.404 . S
C1238 C1241 1.539 . S
C1239 C1235 1.408 . S
C1239 C1238 1.404 . S
C1239 H1251 0.930 . S
C1240 C1236 1.524 . S
C1240 H1252 0.956 . S
C1240 H1253 0.961 . S
C1240 H1254 0.961 . S
C1241 C1238 1.539 . S
C1241 H1255 0.958 . S
C1241 H1256 0.961 . S
C1241 H1257 0.960 . S
H1242 C1226 0.931 . S
H1243 C1231 0.929 . S
H1244 C1232 0.960 . S
H1245 C1232 0.962 . S
H1246 C1232 0.960 . S
H1247 C1233 0.961 . S
H1248 C1233 0.961 . S
H1249 C1233 0.961 . S
H1250 C1234 0.931 . S
H1251 C1239 0.930 . S
H1252 C1240 0.956 . S
H1253 C1240 0.961 . S
H1254 C1240 0.961 . S
H1255 C1241 0.958 . S
H1256 C1241 0.961 . S
H1257 C1241 0.960 . S
C1258 C1259 1.391 . S
C1258 C1260 1.394 . S
C1258 H1274 0.931 . S
C1259 C1258 1.391 . S
C1259 C1263 1.376 . S
C1260 C1258 1.394 . S
C1260 C1261 1.369 . S
C1260 C1264 1.531 . S
C1261 C1260 1.369 . S
C1261 C1262 1.410 . S
C1261 C1269 1.503 . S
C1262 C1261 1.410 . S
C1262 C1263 1.392 . S
C1262 C1265 1.511 . S
C1263 C1259 1.376 . S
C1263 C1262 1.392 . S
C1263 H1275 0.929 . S
C1264 C1260 1.531 . S
C1264 H1276 0.960 . S
C1264 H1277 0.962 . S
C1264 H1278 0.960 . S
C1265 C1262 1.511 . S
C1265 H1279 0.961 . S
C1265 H1280 0.961 . S
C1265 H1281 0.961 . S
C1266 C1267 1.370 . S
C1266 C1268 1.363 . S
C1266 H1282 0.931 . S
C1267 C1266 1.370 . S
C1267 C1271 1.408 . S
C1268 C1266 1.363 . S
C1268 C1269 1.370 . S
C1268 C1272 1.524 . S
C1269 C1261 1.503 . S
C1269 C1268 1.370 . S
C1269 C1270 1.403 . S
C1270 C1269 1.403 . S
C1270 C1271 1.404 . S
C1270 C1273 1.539 . S
C1271 C1267 1.408 . S
C1271 C1270 1.404 . S
C1271 H1283 0.930 . S
C1272 C1268 1.524 . S
C1272 H1284 0.956 . S
C1272 H1285 0.961 . S
C1272 H1286 0.961 . S
C1273 C1270 1.539 . S
C1273 H1287 0.958 . S
C1273 H1288 0.961 . S
C1273 H1289 0.960 . S
H1274 C1258 0.931 . S
H1275 C1263 0.929 . S
H1276 C1264 0.960 . S
H1277 C1264 0.962 . S
H1278 C1264 0.960 . S
H1279 C1265 0.961 . S
H1280 C1265 0.961 . S
H1281 C1265 0.961 . S
H1282 C1266 0.931 . S
H1283 C1271 0.930 . S
H1284 C1272 0.956 . S
H1285 C1272 0.961 . S
H1286 C1272 0.961 . S
H1287 C1273 0.958 . S
H1288 C1273 0.961 . S
H1289 C1273 0.960 . S
C1290 C1291 1.391 . S
C1290 C1292 1.394 . S
C1290 H1306 0.931 . S
C1291 C1290 1.391 . S
C1291 C1295 1.376 . S
C1292 C1290 1.394 . S
C1292 C1293 1.369 . S
C1292 C1296 1.531 . S
C1293 C1292 1.369 . S
C1293 C1294 1.410 . S
C1293 C1301 1.503 . S
C1294 C1293 1.410 . S
C1294 C1295 1.392 . S
C1294 C1297 1.511 . S
C1295 C1291 1.376 . S
C1295 C1294 1.392 . S
C1295 H1307 0.929 . S
C1296 C1292 1.531 . S
C1296 H1308 0.960 . S
C1296 H1309 0.962 . S
C1296 H1310 0.960 . S
C1297 C1294 1.511 . S
C1297 H1311 0.961 . S
C1297 H1312 0.961 . S
C1297 H1313 0.961 . S
C1298 C1299 1.370 . S
C1298 C1300 1.363 . S
C1298 H1314 0.931 . S
C1299 C1298 1.370 . S
C1299 C1303 1.408 . S
C1300 C1298 1.363 . S
C1300 C1301 1.370 . S
C1300 C1304 1.524 . S
C1301 C1293 1.503 . S
C1301 C1300 1.370 . S
C1301 C1302 1.403 . S
C1302 C1301 1.403 . S
C1302 C1303 1.404 . S
C1302 C1305 1.539 . S
C1303 C1299 1.408 . S
C1303 C1302 1.404 . S
C1303 H1315 0.930 . S
C1304 C1300 1.524 . S
C1304 H1316 0.956 . S
C1304 H1317 0.961 . S
C1304 H1318 0.961 . S
C1305 C1302 1.539 . S
C1305 H1319 0.958 . S
C1305 H1320 0.961 . S
C1305 H1321 0.960 . S
H1306 C1290 0.931 . S
H1307 C1295 0.929 . S
H1308 C1296 0.960 . S
H1309 C1296 0.962 . S
H1310 C1296 0.960 . S
H1311 C1297 0.961 . S
H1312 C1297 0.961 . S
H1313 C1297 0.961 . S
H1314 C1298 0.931 . S
H1315 C1303 0.930 . S
H1316 C1304 0.956 . S
H1317 C1304 0.961 . S
H1318 C1304 0.961 . S
H1319 C1305 0.958 . S
H1320 C1305 0.961 . S
H1321 C1305 0.960 . S
C1322 C1323 1.391 . S
C1322 C1324 1.394 . S
C1322 H1338 0.931 . S
C1323 C1322 1.391 . S
C1323 C1327 1.376 . S
C1324 C1322 1.394 . S
C1324 C1325 1.369 . S
C1324 C1328 1.531 . S
C1325 C1324 1.369 . S
C1325 C1326 1.410 . S
C1325 C1333 1.503 . S
C1326 C1325 1.410 . S
C1326 C1327 1.392 . S
C1326 C1329 1.511 . S
C1327 C1323 1.376 . S
C1327 C1326 1.392 . S
C1327 H1339 0.929 . S
C1328 C1324 1.531 . S
C1328 H1340 0.960 . S
C1328 H1341 0.962 . S
C1328 H1342 0.960 . S
C1329 C1326 1.511 . S
C1329 H1343 0.961 . S
C1329 H1344 0.961 . S
C1329 H1345 0.961 . S
C1330 C1331 1.370 . S
C1330 C1332 1.363 . S
C1330 H1346 0.931 . S
C1331 C1330 1.370 . S
C1331 C1335 1.408 . S
C1332 C1330 1.363 . S
C1332 C1333 1.370 . S
C1332 C1336 1.524 . S
C1333 C1325 1.503 . S
C1333 C1332 1.370 . S
C1333 C1334 1.403 . S
C1334 C1333 1.403 . S
C1334 C1335 1.404 . S
C1334 C1337 1.539 . S
C1335 C1331 1.408 . S
C1335 C1334 1.404 . S
C1335 H1347 0.930 . S
C1336 C1332 1.524 . S
C1336 H1348 0.956 . S
C1336 H1349 0.961 . S
C1336 H1350 0.961 . S
C1337 C1334 1.539 . S
C1337 H1351 0.958 . S
C1337 H1352 0.961 . S
C1337 H1353 0.960 . S
H1338 C1322 0.931 . S
H1339 C1327 0.929 . S
H1340 C1328 0.960 . S
H1341 C1328 0.962 . S
H1342 C1328 0.960 . S
H1343 C1329 0.961 . S
H1344 C1329 0.961 . S
H1345 C1329 0.961 . S
H1346 C1330 0.931 . S
H1347 C1335 0.930 . S
H1348 C1336 0.956 . S
H1349 C1336 0.961 . S
H1350 C1336 0.961 . S
H1351 C1337 0.958 . S
H1352 C1337 0.961 . S
H1353 C1337 0.960 . S
C1354 C1355 1.391 . S
C1354 C1356 1.394 . S
C1354 H1370 0.931 . S
C1355 C1354 1.391 . S
C1355 C1359 1.376 . S
C1356 C1354 1.394 . S
C1356 C1357 1.369 . S
C1356 C1360 1.531 . S
C1357 C1356 1.369 . S
C1357 C1358 1.410 . S
C1357 C1365 1.503 . S
C1358 C1357 1.410 . S
C1358 C1359 1.392 . S
C1358 C1361 1.511 . S
C1359 C1355 1.376 . S
C1359 C1358 1.392 . S
C1359 H1371 0.929 . S
C1360 C1356 1.531 . S
C1360 H1372 0.960 . S
C1360 H1373 0.962 . S
C1360 H1374 0.960 . S
C1361 C1358 1.511 . S
C1361 H1375 0.961 . S
C1361 H1376 0.961 . S
C1361 H1377 0.961 . S
C1362 C1363 1.370 . S
C1362 C1364 1.363 . S
C1362 H1378 0.931 . S
C1363 C1362 1.370 . S
C1363 C1367 1.408 . S
C1364 C1362 1.363 . S
C1364 C1365 1.370 . S
C1364 C1368 1.524 . S
C1365 C1357 1.503 . S
C1365 C1364 1.370 . S
C1365 C1366 1.403 . S
C1366 C1365 1.403 . S
C1366 C1367 1.404 . S
C1366 C1369 1.539 . S
C1367 C1363 1.408 . S
C1367 C1366 1.404 . S
C1367 H1379 0.930 . S
C1368 C1364 1.524 . S
C1368 H1380 0.956 . S
C1368 H1381 0.961 . S
C1368 H1382 0.961 . S
C1369 C1366 1.539 . S
C1369 H1383 0.958 . S
C1369 H1384 0.961 . S
C1369 H1385 0.960 . S
H1370 C1354 0.931 . S
H1371 C1359 0.929 . S
H1372 C1360 0.960 . S
H1373 C1360 0.962 . S
H1374 C1360 0.960 . S
H1375 C1361 0.961 . S
H1376 C1361 0.961 . S
H1377 C1361 0.961 . S
H1378 C1362 0.931 . S
H1379 C1367 0.930 . S
H1380 C1368 0.956 . S
H1381 C1368 0.961 . S
H1382 C1368 0.961 . S
H1383 C1369 0.958 . S
H1384 C1369 0.961 . S
H1385 C1369 0.960 . S
C235 C130 1.032 . S
C243 C0 1.044 . S
C267 C13 1.039 . S
C275 C143 1.048 . S
C299 C117 1.043 . S
C307 C26 1.050 . S
C331 C182 1.096 . S
C339 C39 1.080 . S
C363 C52 1.029 . S
C371 C156 1.046 . S
C395 C169 1.004 . S
C403 C65 1.035 . S
C427 C78 1.105 . S
C435 C208 1.085 . S
C459 C221 1.089 . S
C467 C91 1.085 . S
C491 C104 1.068 . S
C499 C195 1.065 . S
C523 C5 0.829 . S
C531 C23 0.952 . S
C555 C18 0.794 . S
C563 C36 0.956 . S
C587 C10 0.985 . S
C595 C31 0.927 . S
C619 C75 0.934 . S
C627 C44 0.874 . S
C651 C49 0.983 . S
C659 C57 0.926 . S
C683 C70 0.810 . S
C691 C62 0.943 . S
C715 C83 0.947 . S
C723 C101 1.003 . S
C747 C96 0.822 . S
C755 C114 0.964 . S
C779 C88 0.991 . S
C787 C109 0.923 . S
C811 C153 1.018 . S
C819 C122 0.891 . S
C843 C127 0.973 . S
C851 C135 0.848 . S
C875 C140 1.003 . S
C883 C148 0.887 . S
C907 C179 0.960 . S
C915 C161 0.886 . S
C939 C192 1.005 . S
C947 C174 0.896 . S
C971 C166 0.991 . S
C979 C187 0.868 . S
C1003 C200 0.822 . S
C1011 C231 0.978 . S
C1035 C213 0.953 . S
C1043 C205 0.991 . S
C1067 C226 0.967 . S
C1075 C218 0.986 . S
C1099 C8 1.466 . S
C1107 C47 1.493 . S
C1131 C60 1.504 . S
C1139 C21 1.482 . S
C1163 C73 1.497 . S
C1171 C34 1.491 . S
C1195 C125 1.517 . S
C1203 C86 1.497 . S
C1227 C138 1.488 . S
C1235 C99 1.497 . S
C1259 C112 1.461 . S
C1267 C151 1.489 . S
C1291 C203 1.520 . S
C1299 C164 1.501 . S
C1323 C216 1.494 . S
C1331 C177 1.506 . S
C1355 C229 1.509 . S
C1363 C190 1.495 . S
