# Generated by pormake.
# Topology sra, (4)-cn, num edge types: 1
# Building blocks:
#     Node 0, Type 0, BuildingBlock: ICAMEG_clean_sbu_1, # of connection points: 4
#     Node 1, Type 0, BuildingBlock: ICAMEG_clean_sbu_1, # of connection points: 4
#     Node 2, Type 0, BuildingBlock: ICAMEG_clean_sbu_1, # of connection points: 4
#     Node 3, Type 0, BuildingBlock: ICAMEG_clean_sbu_1, # of connection points: 4
#     Node 4, Type 0, BuildingBlock: ICAMEG_clean_sbu_1, # of connection points: 4
#     Node 5, Type 0, BuildingBlock: ICAMEG_clean_sbu_1, # of connection points: 4
#     Node 6, Type 0, BuildingBlock: ICAMEG_clean_sbu_1, # of connection points: 4
#     Node 7, Type 0, BuildingBlock: ICAMEG_clean_sbu_1, # of connection points: 4
#     Edge 8, Type (0, 0), BuildingBlock: OJICUG_clean_linker_0, # of connection points: 2
#     Edge 9, Type (0, 0), BuildingBlock: OJICUG_clean_linker_0, # of connection points: 2
#     Edge 10, Type (0, 0), BuildingBlock: OJICUG_clean_linker_0, # of connection points: 2
#     Edge 11, Type (0, 0), BuildingBlock: OJICUG_clean_linker_0, # of connection points: 2
#     Edge 12, Type (0, 0), BuildingBlock: OJICUG_clean_linker_0, # of connection points: 2
#     Edge 13, Type (0, 0), BuildingBlock: OJICUG_clean_linker_0, # of connection points: 2
#     Edge 14, Type (0, 0), BuildingBlock: OJICUG_clean_linker_0, # of connection points: 2
#     Edge 15, Type (0, 0), BuildingBlock: OJICUG_clean_linker_0, # of connection points: 2
#     Edge 16, Type (0, 0), BuildingBlock: OJICUG_clean_linker_0, # of connection points: 2
#     Edge 17, Type (0, 0), BuildingBlock: OJICUG_clean_linker_0, # of connection points: 2
#     Edge 18, Type (0, 0), BuildingBlock: OJICUG_clean_linker_0, # of connection points: 2
#     Edge 19, Type (0, 0), BuildingBlock: OJICUG_clean_linker_0, # of connection points: 2
#     Edge 20, Type (0, 0), BuildingBlock: OJICUG_clean_linker_0, # of connection points: 2
#     Edge 21, Type (0, 0), BuildingBlock: OJICUG_clean_linker_0, # of connection points: 2
#     Edge 22, Type (0, 0), BuildingBlock: OJICUG_clean_linker_0, # of connection points: 2
#     Edge 23, Type (0, 0), BuildingBlock: OJICUG_clean_linker_0, # of connection points: 2
# Relax obj value: 0.025
# Max RMSD: 0.060
# Mean RMSD: 0.060
data_MOF--net-sra--node1-ICAMEG_clean_sbu_1--edge1-OJICUG_clean_linker_0
_symmetry_space_group_name_H-M    P1
_symmetry_Int_Tables_number       1
_symmetry_cell_setting            triclinic
loop_
_symmetry_equiv_pos_as_xyz
'x, y, z'
_cell_length_a     22.390128
_cell_length_b     41.422129
_cell_length_c     23.17587
_cell_angle_alpha  89.975473
_cell_angle_beta   89.995251
_cell_angle_gamma 90.010756
loop_
_atom_site_label
_atom_site_type_symbol
_atom_site_fract_x
_atom_site_fract_y
_atom_site_fract_z
_atom_type_partial_charge
Co0 Co 0.02261 0.12729 0.24522 0.0
Co1 Co 0.96918 0.13699 0.10632 0.0
O2 O 0.02398 0.11774 0.16242 0.0
C3 C 0.14815 0.14601 0.22112 0.0
O4 O 0.12845 0.16794 0.18497 0.0
C5 C 0.95439 0.06622 0.08505 0.0
O6 O 0.9499 0.06204 0.14106 0.0
O7 O 0.89853 0.12603 0.15547 0.0
O8 O 0.93372 0.12748 0.24617 0.0
H9 H 0.79709 0.20665 0.04446 0.0
H10 H 0.09319 0.07192 0.20161 0.0
O11 O 0.11217 0.12701 0.24676 0.0
H12 H 0.94719 0.02485 0.33697 0.0
H13 H 0.09388 0.11559 0.45024 0.0
H14 H 0.95273 0.17115 0.32053 0.0
H15 H 0.95006 0.08361 0.32005 0.0
H16 H 0.09294 0.10357 0.34601 0.0
O17 O 0.96183 0.0945 0.06465 0.0
H18 H 0.86736 0.18241 0.11407 0.0
H19 H 0.95411 0.13176 0.97859 0.0
H20 H 0.9518 0.1837 0.42454 0.0
H21 H 0.09218 0.01303 0.21759 0.0
H22 H 0.02279 0.15583 0.49016 0.0
H23 H 0.01866 0.98913 0.28558 0.0
O24 O 0.02252 0.17484 0.2304 0.0
H25 H 0.16494 0.11406 0.00867 0.0
H26 H 0.00959 0.19608 0.0434 0.0
H27 H 0.09789 0.21026 0.98512 0.0
H28 H 0.17629 0.16903 0.96726 0.0
H29 H 0.07615 0.10105 0.06726 0.0
H30 H 0.88447 0.15522 0.90759 0.0
H31 H 0.80541 0.19306 0.94038 0.0
O32 O 0.97633 0.18008 0.14487 0.0
C33 C 0.89095 0.12538 0.21014 0.0
C34 C 0.83145 0.19026 0.02961 0.0
C35 C 0.88044 0.16135 0.95281 0.0
N36 N 0.91499 0.15585 0.05038 0.0
C37 C 0.87145 0.17653 0.06881 0.0
C38 C 0.91963 0.14807 0.99324 0.0
C39 C 0.83611 0.1826 0.97123 0.0
C40 C 0.06141 0.06171 0.23163 0.0
N41 N 0.02189 0.08119 0.26001 0.0
C42 C 0.0609 0.02835 0.24035 0.0
C43 C 0.01959 0.01495 0.27844 0.0
C44 C 0.97944 0.03498 0.30725 0.0
C45 C 0.98119 0.06823 0.29739 0.0
C46 C 0.06267 0.12785 0.4221 0.0
C47 C 0.98349 0.15877 0.34886 0.0
C48 C 0.062 0.12119 0.36303 0.0
N49 N 0.0225 0.13647 0.32729 0.0
C50 C 0.98287 0.16604 0.40769 0.0
C51 C 0.02275 0.15042 0.44448 0.0
C52 C 1.00029 0.19207 0.19008 0.0
C53 C 0.13106 0.13222 0.01609 0.0
C54 C 0.04367 0.17811 0.03621 0.0
C55 C 0.09349 0.18623 1.00296 0.0
C56 C 0.13743 0.16308 0.99292 0.0
N57 N 0.03769 0.14778 0.05875 0.0
C58 C 0.08061 0.12497 0.04912 0.0
Co59 Co 0.01872 0.39564 0.24648 0.0
Co60 Co 0.07119 0.3855 0.10684 0.0
O61 O 0.0175 0.40527 0.16352 0.0
C62 C 0.89306 0.37764 0.2215 0.0
O63 O 0.91262 0.3563 0.1842 0.0
C64 C 0.08819 0.45653 0.08731 0.0
O65 O 0.09006 0.46076 0.14343 0.0
O66 O 0.14249 0.3942 0.15678 0.0
O67 O 0.10741 0.39517 0.24749 0.0
H68 H 0.2382 0.31256 0.04428 0.0
H69 H 0.94838 0.45119 0.20317 0.0
O70 O 0.92918 0.39613 0.24809 0.0
H71 H 0.09513 0.49783 0.33816 0.0
H72 H 0.94765 0.40749 0.45154 0.0
H73 H 0.08814 0.35152 0.32179 0.0
H74 H 0.0919 0.4391 0.32106 0.0
H75 H 0.94867 0.41954 0.3473 0.0
O76 O 0.08221 0.42822 0.06666 0.0
H77 H 0.16855 0.33737 0.11384 0.0
H78 H 0.08897 0.39226 0.97946 0.0
H79 H 0.08897 0.33894 0.4258 0.0
H80 H 0.94975 0.51005 0.21936 0.0
H81 H 0.01833 0.36701 0.49144 0.0
H82 H 0.02364 0.53373 0.28717 0.0
O83 O 0.01842 0.34809 0.23175 0.0
H84 H 0.87714 0.41386 0.01048 0.0
H85 H 0.02899 0.32906 0.0379 0.0
H86 H 0.94054 0.31777 0.97778 0.0
H87 H 0.86387 0.3604 0.96367 0.0
H88 H 0.96604 0.42396 0.07069 0.0
H89 H 0.1581 0.3683 0.90858 0.0
H90 H 0.23324 0.32804 0.94083 0.0
O91 O 0.05931 0.3421 0.14357 0.0
C92 C 0.1502 0.39569 0.21138 0.0
C93 C 0.20554 0.33 0.02967 0.0
C94 C 0.16066 0.36134 0.95353 0.0
N95 N 0.12452 0.36608 0.0507 0.0
C96 C 0.16588 0.34405 0.06882 0.0
C97 C 0.12176 0.37491 0.99391 0.0
C98 C 0.20278 0.33873 0.97165 0.0
C99 C 0.98032 0.4613 0.23312 0.0
N100 N 0.01985 0.44173 0.26129 0.0
C101 C 0.98103 0.49465 0.24195 0.0
C102 C 0.02256 0.50793 0.27994 0.0
C103 C 0.06272 0.4878 0.30853 0.0
C104 C 0.06077 0.45457 0.29855 0.0
C105 C 0.97872 0.39514 0.42339 0.0
C106 C 0.05752 0.36399 0.35012 0.0
C107 C 0.97943 0.40182 0.36431 0.0
N108 N 0.01874 0.38642 0.32856 0.0
C109 C 0.05808 0.3567 0.40896 0.0
C110 C 0.0184 0.37244 0.44576 0.0
C111 C 0.03702 0.33066 0.19005 0.0
C112 C 0.91017 0.39507 0.01637 0.0
C113 C 0.99555 0.34761 0.03239 0.0
C114 C 0.9457 0.34114 0.99807 0.0
C115 C 0.90274 0.36507 0.99014 0.0
N116 N 1.00245 0.37704 0.05813 0.0
C117 C 0.96062 0.40066 0.05039 0.0
Co118 Co 0.0224 0.89575 0.7694 0.0
Co119 Co 0.97036 0.88537 0.90914 0.0
O120 O 0.02399 0.90514 0.8524 0.0
C121 C 0.14765 0.87729 0.79467 0.0
O122 O 0.12764 0.85625 0.83233 0.0
C123 C 0.95342 0.95633 0.92843 0.0
O124 O 0.95121 0.96043 0.87229 0.0
O125 O 0.89896 0.8942 0.85943 0.0
O126 O 0.93373 0.89574 0.76863 0.0
H127 H 0.80327 0.81252 0.97207 0.0
H128 H 0.09375 0.95084 0.81305 0.0
O129 O 0.11191 0.89578 0.76763 0.0
H130 H 0.94758 0.99858 0.67867 0.0
H131 H 0.09319 0.90782 0.56427 0.0
H132 H 0.95195 0.85223 0.69391 0.0
H133 H 0.9499 0.93978 0.69524 0.0
H134 H 0.09267 0.91956 0.66861 0.0
O135 O 0.95962 0.92808 0.94931 0.0
H136 H 0.87279 0.83734 0.90234 0.0
H137 H 0.95296 0.89206 0.03654 0.0
H138 H 0.9506 0.83998 0.5898 0.0
H139 H 0.09331 1.00975 0.7974 0.0
H140 H 0.02162 0.86786 0.52421 0.0
H141 H 0.01971 0.03399 0.72991 0.0
O142 O 0.02197 0.84814 0.78376 0.0
H143 H 0.16474 0.91344 1.00515 0.0
H144 H 0.0126 0.82877 0.97769 0.0
H145 H 0.1012 0.81732 0.03752 0.0
H146 H 0.17801 0.85988 0.05165 0.0
H147 H 0.07569 0.92372 0.94523 0.0
H148 H 0.88397 0.86809 0.1076 0.0
H149 H 0.8086 0.82791 0.07552 0.0
O150 O 0.98194 0.84202 0.87228 0.0
C151 C 0.89108 0.89612 0.8049 0.0
C152 C 0.83604 0.82993 0.98661 0.0
C153 C 0.88125 0.86116 0.06265 0.0
N154 N 0.91711 0.86596 0.96538 0.0
C155 C 0.87562 0.84398 0.94736 0.0
C156 C 0.92007 0.87474 0.02217 0.0
C157 C 0.839 0.83861 0.04463 0.0
C158 C 0.06194 0.96119 0.78324 0.0
N159 N 0.02205 0.94188 0.75495 0.0
C160 C 0.06175 0.99457 0.77472 0.0
C161 C 0.02039 1.00816 0.73691 0.0
C162 C 0.97988 0.98831 0.70818 0.0
C163 C 0.9813 0.95503 0.71785 0.0
C164 C 0.06195 0.89556 0.5924 0.0
C165 C 0.98274 0.86462 0.6656 0.0
C166 C 0.06153 0.90206 0.65153 0.0
N167 N 0.02201 0.88677 0.68725 0.0
C168 C 0.98188 0.85751 0.60671 0.0
C169 C 0.02177 0.87314 0.56994 0.0
C170 C 0.00365 0.83065 0.82552 0.0
C171 C 0.13164 0.89468 0.99926 0.0
C172 C 0.04609 0.84729 0.98322 0.0
C173 C 0.09603 0.84073 0.01737 0.0
C174 C 0.13907 0.86462 0.02531 0.0
N175 N 0.0392 0.87679 0.95766 0.0
C176 C 0.08111 0.90037 0.96541 0.0
Co177 Co 0.01846 0.62739 0.76913 0.0
Co178 Co 0.07205 0.63687 0.90798 0.0
O179 O 0.01731 0.61758 0.85187 0.0
C180 C 0.89258 0.64545 0.79316 0.0
O181 O 0.91187 0.66749 0.82929 0.0
C182 C 0.08709 0.56607 0.9296 0.0
O183 O 0.09169 0.56177 0.87363 0.0
O184 O 0.14269 0.62602 0.85874 0.0
O185 O 0.10736 0.62809 0.76812 0.0
H186 H 0.24398 0.70667 0.96976 0.0
H187 H 0.94887 0.5715 0.81224 0.0
O188 O 0.9289 0.62663 0.76761 0.0
H189 H 0.09572 0.52566 0.67649 0.0
H190 H 0.94734 0.6159 0.56404 0.0
H191 H 0.08746 0.67189 0.69416 0.0
H192 H 0.09183 0.58435 0.69397 0.0
H193 H 0.94855 0.60357 0.66817 0.0
O194 O 0.07952 0.59438 0.94975 0.0
H195 H 0.17377 0.68237 0.90017 0.0
H196 H 0.0871 0.63166 0.03572 0.0
H197 H 0.08811 0.68475 0.59024 0.0
H198 H 0.9509 0.51268 0.7957 0.0
H199 H 0.01765 0.65667 0.52442 0.0
H200 H 0.02483 0.4894 0.72751 0.0
O201 O 0.01775 0.67488 0.78435 0.0
H202 H 0.87628 0.6137 1.00551 0.0
H203 H 0.03148 0.69588 0.97096 0.0
H204 H 0.9431 0.70995 0.02918 0.0
H205 H 0.86477 0.66864 0.04694 0.0
H206 H 0.96516 0.60081 0.94698 0.0
H207 H 0.15666 0.65518 0.1067 0.0
H208 H 0.23565 0.69309 0.07386 0.0
O209 O 0.06477 0.67999 0.86945 0.0
C210 C 0.1502 0.62582 0.80404 0.0
C211 C 0.20965 0.69025 0.98463 0.0
C212 C 0.1607 0.66132 0.06147 0.0
N213 N 0.1262 0.65577 0.96389 0.0
C214 C 0.16969 0.67648 0.94545 0.0
C215 C 0.12155 0.64799 0.02105 0.0
C216 C 0.20499 0.6826 0.04302 0.0
C217 C 0.98083 0.56157 0.78214 0.0
N218 N 0.02002 0.58134 0.75395 0.0
C219 C 0.98191 0.52824 0.77311 0.0
C220 C 0.02347 0.51519 0.7349 0.0
C221 C 0.06328 0.53552 0.70629 0.0
C222 C 0.06096 0.56873 0.71647 0.0
C223 C 0.97833 0.62825 0.59227 0.0
C224 C 0.05693 0.65942 0.66573 0.0
C225 C 0.97915 0.62142 0.65128 0.0
N226 N 0.01836 0.63682 0.68713 0.0
C227 C 0.05738 0.66687 0.60696 0.0
C228 C 0.0178 0.65113 0.57006 0.0
C229 C 0.04029 0.69205 0.82456 0.0
C230 C 0.91013 0.6319 0.99813 0.0
C231 C 0.99743 0.67787 0.97811 0.0
C232 C 0.94757 0.68593 0.01132 0.0
C233 C 0.90367 0.66274 0.02131 0.0
N234 N 0.00351 0.64757 0.95556 0.0
C235 C 0.96062 0.62472 0.96514 0.0
Co236 Co 0.5219 0.62558 0.7449 0.0
Co237 Co 0.46952 0.63627 0.60534 0.0
O238 O 0.52314 0.61628 0.66185 0.0
C239 C 0.64731 0.64383 0.71959 0.0
O240 O 0.62743 0.66497 0.68205 0.0
C241 C 0.45103 0.56543 0.58588 0.0
O242 O 0.44845 0.56136 0.64202 0.0
O243 O 0.39818 0.6276 0.65525 0.0
O244 O 0.43323 0.6258 0.74592 0.0
H245 H 0.30304 0.70969 0.54318 0.0
H246 H 0.59254 0.57036 0.70076 0.0
O247 O 0.61145 0.62532 0.74647 0.0
H248 H 0.44641 0.52284 0.83549 0.0
H249 H 0.59314 0.61312 0.9498 0.0
H250 H 0.45207 0.66919 0.82072 0.0
H251 H 0.44924 0.58165 0.81915 0.0
H252 H 0.59221 0.60147 0.84543 0.0
O253 O 0.45815 0.59363 0.56504 0.0
H254 H 0.3725 0.68459 0.61262 0.0
H255 H 0.45165 0.62978 0.47797 0.0
H256 H 0.45114 0.68136 0.92487 0.0
H257 H 0.59156 0.51142 0.71617 0.0
H258 H 0.52208 0.65323 0.99018 0.0
H259 H 0.51798 0.4873 0.78384 0.0
O260 O 0.52187 0.6732 0.73072 0.0
H261 H 0.66323 0.60771 0.50855 0.0
H262 H 0.51222 0.69284 0.53696 0.0
H263 H 0.60076 0.7041 0.47692 0.0
H264 H 0.67701 0.66131 0.46231 0.0
H265 H 0.57424 0.59763 0.56869 0.0
H266 H 0.38272 0.65404 0.40721 0.0
H267 H 0.3079 0.69441 0.43966 0.0
O268 O 0.48169 0.67954 0.64232 0.0
C269 C 0.39046 0.6256 0.70979 0.0
C270 C 0.33557 0.69221 0.52848 0.0
C271 C 0.38021 0.66092 0.45219 0.0
N272 N 0.41631 0.65591 0.54933 0.0
C273 C 0.37512 0.67799 0.56756 0.0
C274 C 0.419 0.64719 0.4925 0.0
C275 C 0.33827 0.68359 0.47042 0.0
C276 C 0.56073 0.56005 0.73065 0.0
N277 N 0.52116 0.57943 0.75917 0.0
C278 C 0.56024 0.52666 0.73904 0.0
C279 C 0.51889 0.51314 0.77695 0.0
C280 C 0.47869 0.53306 0.80591 0.0
C281 C 0.48041 0.56634 0.79637 0.0
C282 C 0.56194 0.62549 0.9218 0.0
C283 C 0.48283 0.6567 0.8489 0.0
C284 C 0.56129 0.61904 0.86265 0.0
N285 N 0.52182 0.63446 0.82708 0.0
C286 C 0.4822 0.66376 0.90782 0.0
C287 C 0.52205 0.64799 0.94443 0.0
C288 C 0.50363 0.6908 0.68908 0.0
C289 C 0.63038 0.62657 0.51465 0.0
C290 C 0.54546 0.67422 0.53122 0.0
C291 C 0.59537 0.68067 0.49695 0.0
C292 C 0.63809 0.65665 0.48874 0.0
N293 N 0.53829 0.6447 0.55664 0.0
C294 C 0.57988 0.62099 0.54863 0.0
Co295 Co 0.51893 0.89391 0.7466 0.0
Co296 Co 0.57222 0.88471 0.60761 0.0
O297 O 0.51751 0.9038 0.66392 0.0
C298 C 0.39321 0.87578 0.72226 0.0
O299 O 0.41265 0.85396 0.6858 0.0
C300 C 0.58602 0.95562 0.58645 0.0
O301 O 0.59018 0.95986 0.64246 0.0
O302 O 0.64289 0.89563 0.65673 0.0
O303 O 0.60783 0.89338 0.74742 0.0
H304 H 0.74444 0.81535 0.5451 0.0
H305 H 0.44884 0.94971 0.7039 0.0
O306 O 0.4294 0.89449 0.74824 0.0
H307 H 0.59583 0.99569 0.83937 0.0
H308 H 0.44815 0.90505 0.95186 0.0
H309 H 0.58833 0.84945 0.82127 0.0
H310 H 0.59223 0.93702 0.82172 0.0
H311 H 0.44907 0.91748 0.84776 0.0
O312 O 0.57932 0.92728 0.56609 0.0
H313 H 0.6742 0.83938 0.61496 0.0
H314 H 0.58702 0.8902 0.47986 0.0
H315 H 0.58927 0.83649 0.92515 0.0
H316 H 0.45057 1.00852 0.72064 0.0
H317 H 0.51878 0.86438 0.9912 0.0
H318 H 0.52458 0.03186 0.78868 0.0
O319 O 0.51843 0.84644 0.73117 0.0
H320 H 0.37612 0.90766 0.51059 0.0
H321 H 0.53192 0.82574 0.54431 0.0
H322 H 0.44355 0.81161 0.48614 0.0
H323 H 0.36492 0.85278 0.46878 0.0
H324 H 0.46499 0.92061 0.56907 0.0
H325 H 0.65662 0.86694 0.40863 0.0
H326 H 0.73588 0.82912 0.4411 0.0
O327 O 0.56525 0.8415 0.64592 0.0
C328 C 0.65055 0.89579 0.7114 0.0
C329 C 0.70999 0.83173 0.5304 0.0
C330 C 0.66076 0.86073 0.45381 0.0
N331 N 0.62637 0.86601 0.55148 0.0
C332 C 0.67001 0.84534 0.56972 0.0
C333 C 0.62159 0.87389 0.49438 0.0
C334 C 0.7052 0.83949 0.47206 0.0
C335 C 0.48083 0.95967 0.73395 0.0
N336 N 0.52023 0.93994 0.76195 0.0
C337 C 0.48175 0.99299 0.74309 0.0
C338 C 0.52334 1.00608 0.78121 0.0
C339 C 0.56336 0.9858 0.80964 0.0
C340 C 0.56121 0.9526 0.79936 0.0
C341 C 0.47915 0.89278 0.92353 0.0
C342 C 0.55778 0.86184 0.8498 0.0
C343 C 0.4798 0.89967 0.86453 0.0
N344 N 0.51904 0.88438 0.82855 0.0
C345 C 0.5584 0.85433 0.90855 0.0
C346 C 0.51881 0.86997 0.94558 0.0
C347 C 0.54091 0.82935 0.69082 0.0
C348 C 0.4101 0.88952 0.51779 0.0
C349 C 0.49774 0.84369 0.53735 0.0
C350 C 0.44789 0.8356 0.50415 0.0
C351 C 0.40381 0.85872 0.4944 0.0
N352 N 0.50365 0.87396 0.5601 0.0
C353 C 0.46059 0.89674 0.55075 0.0
Co354 Co 0.52216 0.39536 0.27064 0.0
Co355 Co 0.46951 0.38455 0.41007 0.0
O356 O 0.52319 0.40462 0.3537 0.0
C357 C 0.64787 0.37721 0.29534 0.0
O358 O 0.62837 0.35552 0.33205 0.0
C359 C 0.45089 0.45536 0.42963 0.0
O360 O 0.44832 0.45945 0.37349 0.0
O361 O 0.39825 0.39322 0.36004 0.0
O362 O 0.43347 0.39489 0.26942 0.0
H363 H 0.30307 0.31095 0.47179 0.0
H364 H 0.59227 0.45074 0.31497 0.0
O365 O 0.61172 0.3959 0.26923 0.0
H366 H 0.44595 0.49796 0.18015 0.0
H367 H 0.59377 0.40813 0.06592 0.0
H368 H 0.45295 0.35155 0.19461 0.0
H369 H 0.44924 0.43914 0.19638 0.0
H370 H 0.59245 0.41973 0.1703 0.0
O371 O 0.45801 0.42716 0.45045 0.0
H372 H 0.3726 0.33616 0.40253 0.0
H373 H 0.45135 0.39096 0.53742 0.0
H374 H 0.45241 0.33943 0.09045 0.0
H375 H 0.59082 0.50967 0.29968 0.0
H376 H 0.52322 0.36781 0.02533 0.0
H377 H 0.51716 0.53365 0.23196 0.0
O378 O 0.52243 0.34773 0.28478 0.0
H379 H 0.66293 0.41318 0.50735 0.0
H380 H 0.51212 0.32797 0.47843 0.0
H381 H 0.60051 0.31674 0.53869 0.0
H382 H 0.67664 0.35957 0.55356 0.0
H383 H 0.57411 0.42323 0.44698 0.0
H384 H 0.38233 0.36659 0.60802 0.0
H385 H 0.30768 0.32617 0.57536 0.0
O386 O 0.48183 0.34131 0.37302 0.0
C387 C 0.39063 0.3951 0.30547 0.0
C388 C 0.33552 0.32846 0.48658 0.0
C389 C 0.37993 0.35973 0.56302 0.0
N390 N 0.41621 0.36484 0.46594 0.0
C391 C 0.37511 0.34273 0.4476 0.0
C392 C 0.41876 0.37353 0.5228 0.0
C393 C 0.33808 0.33704 0.54467 0.0
C394 C 0.56043 0.46097 0.28506 0.0
N395 N 0.52106 0.44151 0.25644 0.0
C396 C 0.55967 0.49437 0.27674 0.0
C397 C 0.51827 0.50781 0.2388 0.0
C398 C 0.47828 0.4878 0.20974 0.0
C399 C 0.48026 0.45451 0.21922 0.0
C400 C 0.56262 0.39565 0.09383 0.0
C401 C 0.48364 0.36416 0.16651 0.0
C402 C 0.56175 0.40207 0.15299 0.0
N403 N 0.52235 0.38651 0.18845 0.0
C404 C 0.48324 0.35712 0.10758 0.0
C405 C 0.52302 0.37303 0.07108 0.0
C406 C 0.50405 0.3301 0.32634 0.0
C407 C 0.63012 0.39431 0.50113 0.0
C408 C 0.54533 0.34661 0.48428 0.0
C409 C 0.59514 0.34017 0.51867 0.0
C410 C 0.63781 0.36422 0.52703 0.0
N411 N 0.53818 0.37613 0.45888 0.0
C412 C 0.57972 0.39986 0.46703 0.0
Co413 Co 0.5191 0.12701 0.26895 0.0
Co414 Co 0.57242 0.1362 0.40797 0.0
O415 O 0.51762 0.11716 0.35166 0.0
C416 C 0.3937 0.14533 0.29383 0.0
O417 O 0.41355 0.16669 0.33096 0.0
C418 C 0.58599 0.06528 0.42908 0.0
O419 O 0.59004 0.06104 0.37307 0.0
O420 O 0.64308 0.12524 0.35886 0.0
O421 O 0.608 0.12729 0.26816 0.0
H422 H 0.74492 0.20541 0.47042 0.0
H423 H 0.4485 0.07141 0.31173 0.0
O424 O 0.42958 0.1267 0.26727 0.0
H425 H 0.595 0.02501 0.17624 0.0
H426 H 0.44832 0.11602 0.06367 0.0
H427 H 0.58903 0.17123 0.19426 0.0
H428 H 0.59196 0.08369 0.19383 0.0
H429 H 0.44904 0.10362 0.16778 0.0
O430 O 0.57941 0.09362 0.44946 0.0
H431 H 0.67455 0.18146 0.4006 0.0
H432 H 0.58725 0.13069 0.5357 0.0
H433 H 0.59017 0.18416 0.09038 0.0
H434 H 0.44966 0.01259 0.29507 0.0
H435 H 0.51941 0.15647 0.02432 0.0
H436 H 0.52343 0.98903 0.22701 0.0
O437 O 0.519 0.17449 0.2843 0.0
H438 H 0.37628 0.11339 0.50505 0.0
H439 H 0.53232 0.1952 0.47127 0.0
H440 H 0.444 0.20939 0.52946 0.0
H441 H 0.36525 0.16827 0.54685 0.0
H442 H 0.4651 0.10037 0.44655 0.0
H443 H 0.65698 0.15386 0.60691 0.0
H444 H 0.73637 0.19161 0.57441 0.0
O445 O 0.56558 0.17942 0.36967 0.0
C446 C 0.65072 0.12494 0.30419 0.0
C447 C 0.71042 0.18905 0.48514 0.0
C448 C 0.66111 0.16008 0.56173 0.0
N449 N 0.62664 0.15486 0.46409 0.0
C450 C 0.67036 0.17549 0.44583 0.0
C451 C 0.62187 0.14697 0.52118 0.0
C452 C 0.70563 0.18128 0.54347 0.0
C453 C 0.48038 0.06136 0.28168 0.0
N454 N 0.51996 0.08097 0.25365 0.0
C455 C 0.48098 0.02803 0.27258 0.0
C456 C 0.52244 0.01482 0.23445 0.0
C457 C 0.56263 0.03499 0.20599 0.0
C458 C 0.5608 0.06819 0.21623 0.0
C459 C 0.47944 0.1282 0.092 0.0
C460 C 0.55836 0.15893 0.16573 0.0
C461 C 0.47997 0.12133 0.15101 0.0
N462 N 0.51935 0.13651 0.18699 0.0
C463 C 0.5591 0.16642 0.10698 0.0
C464 C 0.51935 0.1509 0.06995 0.0
C465 C 0.54143 0.19157 0.32469 0.0
C466 C 0.41032 0.1315 0.49784 0.0
C467 C 0.49809 0.17727 0.47824 0.0
C468 C 0.44826 0.1854 0.51145 0.0
C469 C 0.40412 0.16231 0.52123 0.0
N470 N 0.5039 0.147 0.45549 0.0
C471 C 0.46078 0.12425 0.46487 0.0
C472 C 0.04005 0.27704 0.24162 0.0
C473 C 0.02627 0.29544 0.19244 0.0
H474 H 0.0435 0.22969 0.27951 0.0
C475 C 1.00064 0.27999 0.14466 0.0
H476 H 0.05924 0.28849 0.27933 0.0
C477 C 0.99028 0.24681 0.14509 0.0
C478 C 0.00639 0.22786 0.193 0.0
H479 H 0.98765 0.29365 0.10699 0.0
H480 H 0.97027 0.23606 0.10719 0.0
C481 C 0.03088 0.24344 0.24167 0.0
C482 C 0.04028 0.77989 0.8704 0.0
C483 C 0.01426 0.79542 0.82289 0.0
H484 H 0.07096 0.73589 0.90742 0.0
C485 C 1.00004 0.77711 0.77374 0.0
H486 H 0.05361 0.79348 0.90803 0.0
C487 C 0.00917 0.74351 0.77348 0.0
C488 C 0.03408 0.72784 0.82188 0.0
H489 H 0.98055 0.78864 0.73624 0.0
H490 H 0.99623 0.72983 0.73567 0.0
C491 C 0.05062 0.74671 0.86974 0.0
C492 C 0.54043 0.7416 0.6444 0.0
C493 C 0.51449 0.726 0.69189 0.0
H494 H 0.57123 0.78565 0.60759 0.0
C495 C 0.50054 0.74422 0.74121 0.0
H496 H 0.55354 0.72807 0.60663 0.0
C497 C 0.50985 0.77781 0.74168 0.0
C498 C 0.53466 0.79355 0.6933 0.0
H499 H 0.48111 0.73265 0.7787 0.0
H500 H 0.49709 0.79142 0.77961 0.0
C501 C 0.55096 0.77477 0.64526 0.0
C502 C 0.50116 0.27668 0.2742 0.0
C503 C 0.51503 0.29491 0.32353 0.0
H504 H 0.49779 0.22948 0.23581 0.0
C505 C 0.54094 0.27933 0.37104 0.0
H506 H 0.48176 0.28824 0.23669 0.0
C507 C 0.5515 0.24617 0.37021 0.0
C508 C 0.53526 0.22737 0.32216 0.0
H509 H 0.55399 0.29287 0.40882 0.0
H510 H 0.57172 0.2353 0.4079 0.0
C511 C 0.5105 0.2431 0.27375 0.0
C512 C 0.30068 0.11616 0.26572 0.0
C513 C 0.33038 0.14532 0.27706 0.0
H514 H 0.21856 0.09357 0.24004 0.0
C515 C 0.30026 0.17466 0.26863 0.0
H516 H 0.32332 0.09327 0.27163 0.0
C517 C 0.2415 0.17485 0.24831 0.0
C518 C 0.21144 0.14569 0.23796 0.0
H519 H 0.32263 0.19744 0.27642 0.0
H520 H 0.21909 0.19776 0.242 0.0
C521 C 0.24117 0.11633 0.24744 0.0
C522 C 0.74111 0.34829 0.26815 0.0
C523 C 0.71111 0.37749 0.27828 0.0
H524 H 0.82208 0.3256 0.23989 0.0
C525 C 0.74078 0.40682 0.26829 0.0
H526 H 0.71873 0.3254 0.27487 0.0
C527 C 0.8002 0.40692 0.2497 0.0
C528 C 0.82982 0.37772 0.23855 0.0
H529 H 0.7182 0.4296 0.2755 0.0
H530 H 0.82282 0.42979 0.2434 0.0
C531 C 0.79975 0.34841 0.24751 0.0
C532 C 0.24101 0.90614 0.76666 0.0
C533 C 0.21096 0.87707 0.77796 0.0
H534 H 0.32344 0.92846 0.7411 0.0
C535 C 0.24071 0.84763 0.76954 0.0
H536 H 0.21864 0.9291 0.77257 0.0
C537 C 0.29948 0.84725 0.74927 0.0
C538 C 0.32991 0.87631 0.73899 0.0
H539 H 0.21805 0.82493 0.7773 0.0
H540 H 0.32163 0.82426 0.74295 0.0
C541 C 0.30054 0.90577 0.74845 0.0
C542 C 0.74055 0.61499 0.74816 0.0
C543 C 0.71058 0.64405 0.73655 0.0
H544 H 0.82283 0.59272 0.77425 0.0
C545 C 0.74033 0.67349 0.74495 0.0
H546 H 0.71819 0.59203 0.74228 0.0
C547 C 0.79899 0.67391 0.76551 0.0
C548 C 0.82935 0.64487 0.77612 0.0
H549 H 0.71773 0.69619 0.73697 0.0
H550 H 0.82111 0.69692 0.77179 0.0
C551 C 0.79999 0.61539 0.76666 0.0
C552 C 0.72167 0.8972 0.79533 0.0
C553 C 0.71211 0.89777 0.73517 0.0
H554 H 0.78505 0.89626 0.86454 0.0
C555 C 0.76196 0.89904 0.69849 0.0
H556 H 0.68444 0.89623 0.82512 0.0
C557 C 0.81979 0.89913 0.72129 0.0
C558 C 0.82938 0.89789 0.78141 0.0
H559 H 0.75646 0.89948 0.65206 0.0
H560 H 0.85701 0.89968 0.69146 0.0
C561 C 0.77952 0.89723 0.81814 0.0
C562 C 0.31942 0.62265 0.79364 0.0
C563 C 0.32882 0.62389 0.73348 0.0
H564 H 0.25631 0.62226 0.86306 0.0
C565 C 0.27885 0.62452 0.69692 0.0
H566 H 0.35673 0.62213 0.82335 0.0
C567 C 0.22107 0.62451 0.7199 0.0
C568 C 0.2117 0.62393 0.78009 0.0
H569 H 0.28424 0.62548 0.6505 0.0
H570 H 0.18375 0.62545 0.69022 0.0
C571 C 0.26166 0.62271 0.81661 0.0
C572 C 0.72169 0.12274 0.22023 0.0
C573 C 0.71227 0.12293 0.28041 0.0
H574 H 0.78487 0.12328 0.15086 0.0
C575 C 0.76223 0.12252 0.31702 0.0
H576 H 0.68439 0.12303 0.19049 0.0
C577 C 0.82001 0.12264 0.2941 0.0
C578 C 0.82942 0.12318 0.23392 0.0
H579 H 0.75683 0.12269 0.36347 0.0
H580 H 0.85732 0.12285 0.32383 0.0
C581 C 0.77947 0.12286 0.19731 0.0
C582 C 0.26181 0.39739 0.19855 0.0
C583 C 0.21184 0.39715 0.23514 0.0
H584 H 0.35691 0.39712 0.19176 0.0
C585 C 0.22127 0.39726 0.29534 0.0
H586 H 0.25641 0.39729 0.1521 0.0
C587 C 0.27905 0.39703 0.31829 0.0
C588 C 0.32902 0.3968 0.28169 0.0
H589 H 0.18397 0.39708 0.32508 0.0
H590 H 0.28444 0.39668 0.36473 0.0
C591 C 0.3196 0.39728 0.2215 0.0
C592 C 0.95308 0.04273 0.98476 0.0
C593 C 0.9523 0.03809 0.04501 0.0
H594 H 0.9537 0.02083 0.90088 0.0
C595 C 0.95049 1.00634 0.06635 0.0
H596 H 0.95442 0.06683 0.96666 0.0
C597 C 0.95021 0.97994 0.02852 0.0
C598 C 0.95145 0.98455 0.96828 0.0
H599 H 0.94995 1.0018 0.11238 0.0
H600 H 0.94936 0.95584 0.04667 0.0
C601 C 0.95252 0.01632 0.94691 0.0
C602 C 0.09137 0.50623 0.94891 0.0
C603 C 0.08925 0.53803 0.96992 0.0
H604 H 0.09276 0.45578 0.96908 0.0
C605 C 0.08823 0.54281 0.03013 0.0
H606 H 0.09211 0.50157 0.90292 0.0
C607 C 0.08883 0.51649 0.06825 0.0
C608 C 0.09019 0.48467 0.0472 0.0
H609 H 0.08665 0.56695 0.04801 0.0
H610 H 0.08745 0.52112 0.11422 0.0
C611 C 0.09169 0.47992 0.987 0.0
C612 C 0.44783 0.51532 0.44802 0.0
C613 C 0.44828 0.48358 0.46948 0.0
H614 H 0.44832 0.56585 0.46755 0.0
C615 C 0.44798 0.47902 0.52975 0.0
H616 H 0.44821 0.51981 0.40197 0.0
C617 C 0.44789 0.50547 0.56751 0.0
C618 C 0.44837 0.53721 0.54605 0.0
H619 H 0.44829 0.45494 0.54797 0.0
H620 H 0.4483 0.50098 0.61356 0.0
C621 C 0.448 0.54177 0.48577 0.0
C622 C 0.58758 0.97901 0.48608 0.0
C623 C 0.58752 0.98373 0.5463 0.0
H624 H 0.58741 1.00076 0.40207 0.0
C625 C 0.58789 0.01553 0.56745 0.0
H626 H 0.58733 0.95488 0.46811 0.0
C627 C 0.58773 0.04189 0.52945 0.0
C628 C 0.5875 0.03716 0.46923 0.0
H629 H 0.58771 0.02014 0.61346 0.0
H630 H 0.5876 0.06602 0.54742 0.0
C631 C 0.58773 1.00536 0.44807 0.0
loop_
_geom_bond_atom_site_label_1
_geom_bond_atom_site_label_2
_geom_bond_distance
_geom_bond_site_symmetry_2
_ccdc_geom_bond_type
Co0 O2 2.143 . S
Co0 O8 2.074 1_455 S
Co0 O11 2.093 . S
Co0 O24 2.097 . S
Co0 N41 2.151 . S
Co0 N49 2.214 . S
Co1 O2 2.160 1_655 S
Co1 O7 2.058 . S
Co1 O17 2.057 . S
Co1 O32 2.037 . S
Co1 N36 2.145 . S
Co1 N57 2.257 1_655 S
O2 Co0 2.143 . S
O2 Co1 2.160 1_455 S
C3 O4 1.278 . S
C3 O11 1.224 . S
O4 C3 1.278 . S
C5 O6 1.245 1_655 S
C5 O17 1.232 . S
O6 C5 1.245 1_455 S
O7 Co1 2.058 . S
O7 C33 1.269 . S
O8 Co0 2.074 1_655 S
O8 C33 1.257 . S
H9 C34 0.932 . S
H10 C40 0.930 . S
O11 Co0 2.093 . S
O11 C3 1.224 . S
H12 C44 0.929 . S
H13 C46 0.930 . S
H14 C47 0.930 . S
H15 C45 0.929 . S
H16 C48 0.928 . S
O17 Co1 2.057 . S
O17 C5 1.232 . S
H18 C37 0.929 . S
H19 C38 0.929 . S
H20 C50 0.931 . S
H21 C42 0.929 . S
H22 C51 0.930 . S
H23 C43 0.931 . S
O24 Co0 2.097 . S
O24 C52 1.214 . S
H25 C53 0.929 . S
H26 C54 0.929 . S
H27 C55 0.930 . S
H28 C56 0.929 . S
H29 C58 0.930 . S
H30 C35 0.930 . S
H31 C39 0.930 . S
O32 Co1 2.037 . S
O32 C52 1.234 1_655 S
C33 O7 1.269 . S
C33 O8 1.257 . S
C34 H9 0.932 . S
C34 C37 1.388 1_556 S
C34 C39 1.418 . S
C35 H30 0.930 . S
C35 C38 1.404 . S
C35 C39 1.353 . S
N36 Co1 2.145 . S
N36 C37 1.397 . S
N36 C38 1.334 1_554 S
C37 H18 0.929 . S
C37 C34 1.388 1_554 S
C37 N36 1.397 . S
C38 H19 0.929 . S
C38 C35 1.404 . S
C38 N36 1.334 1_556 S
C39 H31 0.930 . S
C39 C34 1.418 . S
C39 C35 1.353 . S
C40 H10 0.930 . S
C40 N41 1.330 . S
C40 C42 1.446 . S
N41 Co0 2.151 . S
N41 C40 1.330 . S
N41 C45 1.418 1_455 S
C42 H21 0.929 . S
C42 C40 1.446 . S
C42 C43 1.332 . S
C43 H23 0.931 . S
C43 C42 1.332 . S
C43 C44 1.267 1_455 S
C44 H12 0.929 . S
C44 C43 1.267 1_655 S
C44 C45 1.251 . S
C45 H15 0.929 . S
C45 N41 1.418 1_655 S
C45 C44 1.251 . S
C46 H13 0.930 . S
C46 C48 1.406 . S
C46 C51 1.261 1_455 S
C47 H14 0.930 . S
C47 N49 1.325 1_655 S
C47 C50 1.357 . S
C48 H16 0.928 . S
C48 C46 1.406 . S
C48 N49 1.261 . S
N49 Co0 2.214 . S
N49 C47 1.325 1_455 S
N49 C48 1.261 . S
C50 H20 0.931 . S
C50 C47 1.357 . S
C50 C51 1.312 . S
C51 H22 0.930 . S
C51 C46 1.261 1_655 S
C51 C50 1.312 . S
C52 O24 1.214 . S
C52 O32 1.234 1_455 S
C53 H25 0.929 . S
C53 C56 1.391 1_554 S
C53 C58 1.391 . S
C54 H26 0.929 . S
C54 C55 1.390 1_554 S
C54 N57 1.391 . S
C55 H27 0.930 . S
C55 C54 1.390 1_556 S
C55 C56 1.392 . S
C56 H28 0.929 . S
C56 C53 1.391 1_556 S
C56 C55 1.392 . S
N57 Co1 2.257 1_455 S
N57 C54 1.391 . S
N57 C58 1.388 . S
C58 H29 0.930 . S
C58 C53 1.391 . S
C58 N57 1.388 . S
Co59 O61 2.143 . S
Co59 O67 2.074 . S
Co59 O70 2.093 1_455 S
Co59 O83 2.097 . S
Co59 N100 2.151 . S
Co59 N108 2.214 . S
Co60 O61 2.160 . S
Co60 O66 2.058 . S
Co60 O76 2.057 . S
Co60 O91 2.037 . S
Co60 N95 2.145 . S
Co60 N116 2.257 1_455 S
O61 Co59 2.143 . S
O61 Co60 2.160 . S
C62 O63 1.278 . S
C62 O70 1.224 . S
O63 C62 1.278 . S
C64 O65 1.245 . S
C64 O76 1.232 . S
O65 C64 1.245 . S
O66 Co60 2.058 . S
O66 C92 1.269 . S
O67 Co59 2.074 . S
O67 C92 1.257 . S
H68 C93 0.932 . S
H69 C99 0.930 . S
O70 Co59 2.093 1_655 S
O70 C62 1.224 . S
H71 C103 0.929 . S
H72 C105 0.930 1_655 S
H73 C106 0.930 . S
H74 C104 0.929 . S
H75 C107 0.928 . S
O76 Co60 2.057 . S
O76 C64 1.232 . S
H77 C96 0.929 . S
H78 C97 0.929 . S
H79 C109 0.931 . S
H80 C101 0.929 . S
H81 C110 0.930 . S
H82 C102 0.931 . S
O83 Co59 2.097 . S
O83 C111 1.214 . S
H84 C112 0.929 . S
H85 C113 0.929 1_455 S
H86 C114 0.930 . S
H87 C115 0.929 . S
H88 C117 0.930 . S
H89 C94 0.930 . S
H90 C98 0.930 . S
O91 Co60 2.037 . S
O91 C111 1.234 . S
C92 O66 1.269 . S
C92 O67 1.257 . S
C93 H68 0.932 . S
C93 C96 1.388 1_556 S
C93 C98 1.418 . S
C94 H89 0.930 . S
C94 C97 1.404 . S
C94 C98 1.353 . S
N95 Co60 2.145 . S
N95 C96 1.397 . S
N95 C97 1.334 1_554 S
C96 H77 0.929 . S
C96 C93 1.388 1_554 S
C96 N95 1.397 . S
C97 H78 0.929 . S
C97 C94 1.404 . S
C97 N95 1.334 1_556 S
C98 H90 0.930 . S
C98 C93 1.418 . S
C98 C94 1.353 . S
C99 H69 0.930 . S
C99 N100 1.330 1_655 S
C99 C101 1.446 . S
N100 Co59 2.151 . S
N100 C99 1.330 1_455 S
N100 C104 1.418 . S
C101 H80 0.929 . S
C101 C99 1.446 . S
C101 C102 1.332 1_655 S
C102 H82 0.931 . S
C102 C101 1.332 1_455 S
C102 C103 1.267 . S
C103 H71 0.929 . S
C103 C102 1.267 . S
C103 C104 1.251 . S
C104 H74 0.929 . S
C104 N100 1.418 . S
C104 C103 1.251 . S
C105 H72 0.930 1_455 S
C105 C107 1.406 1_455 S
C105 C110 1.261 . S
C106 H73 0.930 . S
C106 N108 1.325 . S
C106 C109 1.357 . S
C107 H75 0.928 . S
C107 C105 1.406 1_655 S
C107 N108 1.261 1_655 S
N108 Co59 2.214 . S
N108 C106 1.325 . S
N108 C107 1.261 1_455 S
C109 H79 0.931 . S
C109 C106 1.357 . S
C109 C110 1.312 . S
C110 H81 0.930 . S
C110 C105 1.261 . S
C110 C109 1.312 . S
C111 O83 1.214 . S
C111 O91 1.234 . S
C112 H84 0.929 . S
C112 C115 1.391 1_554 S
C112 C117 1.391 . S
C113 H85 0.929 1_655 S
C113 C114 1.390 1_554 S
C113 N116 1.391 . S
C114 H86 0.930 . S
C114 C113 1.390 1_556 S
C114 C115 1.392 . S
C115 H87 0.929 . S
C115 C112 1.391 1_556 S
C115 C114 1.392 . S
N116 Co60 2.257 1_655 S
N116 C113 1.391 . S
N116 C117 1.388 . S
C117 H88 0.930 . S
C117 C112 1.391 . S
C117 N116 1.388 . S
Co118 O120 2.143 . S
Co118 O126 2.074 1_455 S
Co118 O129 2.093 . S
Co118 O142 2.097 . S
Co118 N159 2.151 . S
Co118 N167 2.214 . S
Co119 O120 2.160 1_655 S
Co119 O125 2.058 . S
Co119 O135 2.057 . S
Co119 O150 2.037 . S
Co119 N154 2.145 . S
Co119 N175 2.257 1_655 S
O120 Co118 2.143 . S
O120 Co119 2.160 1_455 S
C121 O122 1.278 . S
C121 O129 1.224 . S
O122 C121 1.278 . S
C123 O124 1.245 1_655 S
C123 O135 1.232 . S
O124 C123 1.245 1_455 S
O125 Co119 2.058 . S
O125 C151 1.269 . S
O126 Co118 2.074 1_655 S
O126 C151 1.257 . S
H127 C152 0.932 . S
H128 C158 0.930 . S
O129 Co118 2.093 . S
O129 C121 1.224 . S
H130 C162 0.929 . S
H131 C164 0.930 . S
H132 C165 0.930 . S
H133 C163 0.929 . S
H134 C166 0.928 . S
O135 Co119 2.057 . S
O135 C123 1.232 . S
H136 C155 0.929 . S
H137 C156 0.929 . S
H138 C168 0.931 . S
H139 C160 0.929 . S
H140 C169 0.930 . S
H141 C161 0.931 . S
O142 Co118 2.097 . S
O142 C170 1.214 . S
H143 C171 0.929 . S
H144 C172 0.929 . S
H145 C173 0.930 . S
H146 C174 0.929 . S
H147 C176 0.930 . S
H148 C153 0.930 . S
H149 C157 0.930 . S
O150 Co119 2.037 . S
O150 C170 1.234 1_655 S
C151 O125 1.269 . S
C151 O126 1.257 . S
C152 H127 0.932 . S
C152 C155 1.388 1_554 S
C152 C157 1.418 . S
C153 H148 0.930 . S
C153 C156 1.404 . S
C153 C157 1.353 . S
N154 Co119 2.145 . S
N154 C155 1.397 . S
N154 C156 1.334 1_556 S
C155 H136 0.929 . S
C155 C152 1.388 1_556 S
C155 N154 1.397 . S
C156 H137 0.929 . S
C156 C153 1.404 . S
C156 N154 1.334 1_554 S
C157 H149 0.930 . S
C157 C152 1.418 . S
C157 C153 1.353 . S
C158 H128 0.930 . S
C158 N159 1.330 . S
C158 C160 1.446 . S
N159 Co118 2.151 . S
N159 C158 1.330 . S
N159 C163 1.418 1_455 S
C160 H139 0.929 . S
C160 C158 1.446 . S
C160 C161 1.332 . S
C161 H141 0.931 . S
C161 C160 1.332 . S
C161 C162 1.267 1_455 S
C162 H130 0.929 . S
C162 C161 1.267 1_655 S
C162 C163 1.251 . S
C163 H133 0.929 . S
C163 N159 1.418 1_655 S
C163 C162 1.251 . S
C164 H131 0.930 . S
C164 C166 1.406 . S
C164 C169 1.261 1_455 S
C165 H132 0.930 . S
C165 N167 1.325 1_655 S
C165 C168 1.357 . S
C166 H134 0.928 . S
C166 C164 1.406 . S
C166 N167 1.261 . S
N167 Co118 2.214 . S
N167 C165 1.325 1_455 S
N167 C166 1.261 . S
C168 H138 0.931 . S
C168 C165 1.357 . S
C168 C169 1.312 . S
C169 H140 0.930 . S
C169 C164 1.261 1_655 S
C169 C168 1.312 . S
C170 O142 1.214 . S
C170 O150 1.234 1_455 S
C171 H143 0.929 . S
C171 C174 1.391 1_556 S
C171 C176 1.391 . S
C172 H144 0.929 . S
C172 C173 1.390 1_556 S
C172 N175 1.391 . S
C173 H145 0.930 . S
C173 C172 1.390 1_554 S
C173 C174 1.392 . S
C174 H146 0.929 . S
C174 C171 1.391 1_554 S
C174 C173 1.392 . S
N175 Co119 2.257 1_455 S
N175 C172 1.391 . S
N175 C176 1.388 . S
C176 H147 0.930 . S
C176 C171 1.391 . S
C176 N175 1.388 . S
Co177 O179 2.143 . S
Co177 O185 2.074 . S
Co177 O188 2.093 1_455 S
Co177 O201 2.097 . S
Co177 N218 2.151 . S
Co177 N226 2.214 . S
Co178 O179 2.160 . S
Co178 O184 2.058 . S
Co178 O194 2.057 . S
Co178 O209 2.037 . S
Co178 N213 2.145 . S
Co178 N234 2.257 1_455 S
O179 Co177 2.143 . S
O179 Co178 2.160 . S
C180 O181 1.278 . S
C180 O188 1.224 . S
O181 C180 1.278 . S
C182 O183 1.245 . S
C182 O194 1.232 . S
O183 C182 1.245 . S
O184 Co178 2.058 . S
O184 C210 1.269 . S
O185 Co177 2.074 . S
O185 C210 1.257 . S
H186 C211 0.932 . S
H187 C217 0.930 . S
O188 Co177 2.093 1_655 S
O188 C180 1.224 . S
H189 C221 0.929 . S
H190 C223 0.930 1_655 S
H191 C224 0.930 . S
H192 C222 0.929 . S
H193 C225 0.928 . S
O194 Co178 2.057 . S
O194 C182 1.232 . S
H195 C214 0.929 . S
H196 C215 0.929 . S
H197 C227 0.931 . S
H198 C219 0.929 . S
H199 C228 0.930 . S
H200 C220 0.931 . S
O201 Co177 2.097 . S
O201 C229 1.214 . S
H202 C230 0.929 . S
H203 C231 0.929 1_455 S
H204 C232 0.930 . S
H205 C233 0.929 . S
H206 C235 0.930 . S
H207 C212 0.930 . S
H208 C216 0.930 . S
O209 Co178 2.037 . S
O209 C229 1.234 . S
C210 O184 1.269 . S
C210 O185 1.257 . S
C211 H186 0.932 . S
C211 C214 1.388 1_554 S
C211 C216 1.418 . S
C212 H207 0.930 . S
C212 C215 1.404 . S
C212 C216 1.353 . S
N213 Co178 2.145 . S
N213 C214 1.397 . S
N213 C215 1.334 1_556 S
C214 H195 0.929 . S
C214 C211 1.388 1_556 S
C214 N213 1.397 . S
C215 H196 0.929 . S
C215 C212 1.404 . S
C215 N213 1.334 1_554 S
C216 H208 0.930 . S
C216 C211 1.418 . S
C216 C212 1.353 . S
C217 H187 0.930 . S
C217 N218 1.330 1_655 S
C217 C219 1.446 . S
N218 Co177 2.151 . S
N218 C217 1.330 1_455 S
N218 C222 1.418 . S
C219 H198 0.929 . S
C219 C217 1.446 . S
C219 C220 1.332 1_655 S
C220 H200 0.931 . S
C220 C219 1.332 1_455 S
C220 C221 1.267 . S
C221 H189 0.929 . S
C221 C220 1.267 . S
C221 C222 1.251 . S
C222 H192 0.929 . S
C222 N218 1.418 . S
C222 C221 1.251 . S
C223 H190 0.930 1_455 S
C223 C225 1.406 1_455 S
C223 C228 1.261 . S
C224 H191 0.930 . S
C224 N226 1.325 . S
C224 C227 1.357 . S
C225 H193 0.928 . S
C225 C223 1.406 1_655 S
C225 N226 1.261 1_655 S
N226 Co177 2.214 . S
N226 C224 1.325 . S
N226 C225 1.261 1_455 S
C227 H197 0.931 . S
C227 C224 1.357 . S
C227 C228 1.312 . S
C228 H199 0.930 . S
C228 C223 1.261 . S
C228 C227 1.312 . S
C229 O201 1.214 . S
C229 O209 1.234 . S
C230 H202 0.929 . S
C230 C233 1.391 1_556 S
C230 C235 1.391 . S
C231 H203 0.929 1_655 S
C231 C232 1.390 1_556 S
C231 N234 1.391 . S
C232 H204 0.930 . S
C232 C231 1.390 1_554 S
C232 C233 1.392 . S
C233 H205 0.929 . S
C233 C230 1.391 1_554 S
C233 C232 1.392 . S
N234 Co178 2.257 1_655 S
N234 C231 1.391 . S
N234 C235 1.388 . S
C235 H206 0.930 . S
C235 C230 1.391 . S
C235 N234 1.388 . S
Co236 O238 2.143 . S
Co236 O244 2.074 . S
Co236 O247 2.093 . S
Co236 O260 2.097 . S
Co236 N277 2.151 . S
Co236 N285 2.214 . S
Co237 O238 2.160 . S
Co237 O243 2.058 . S
Co237 O253 2.057 . S
Co237 O268 2.037 . S
Co237 N272 2.145 . S
Co237 N293 2.257 . S
O238 Co236 2.143 . S
O238 Co237 2.160 . S
C239 O240 1.278 . S
C239 O247 1.224 . S
O240 C239 1.278 . S
C241 O242 1.245 . S
C241 O253 1.232 . S
O242 C241 1.245 . S
O243 Co237 2.058 . S
O243 C269 1.269 . S
O244 Co236 2.074 . S
O244 C269 1.257 . S
H245 C270 0.930 . S
H246 C276 0.930 . S
O247 Co236 2.093 . S
O247 C239 1.224 . S
H248 C280 0.929 . S
H249 C282 0.930 . S
H250 C283 0.930 . S
H251 C281 0.929 . S
H252 C284 0.928 . S
O253 Co237 2.057 . S
O253 C241 1.232 . S
H254 C273 0.929 . S
H255 C274 0.929 . S
H256 C286 0.931 . S
H257 C278 0.929 . S
H258 C287 0.930 . S
H259 C279 0.931 . S
O260 Co236 2.097 . S
O260 C288 1.214 . S
H261 C289 0.929 . S
H262 C290 0.929 . S
H263 C291 0.930 . S
H264 C292 0.929 . S
H265 C294 0.930 . S
H266 C271 0.930 . S
H267 C275 0.930 . S
O268 Co237 2.037 . S
O268 C288 1.234 . S
C269 O243 1.269 . S
C269 O244 1.257 . S
C270 H245 0.930 . S
C270 C273 1.388 . S
C270 C275 1.418 . S
C271 H266 0.930 . S
C271 C274 1.404 . S
C271 C275 1.353 . S
N272 Co237 2.145 . S
N272 C273 1.397 . S
N272 C274 1.334 . S
C273 H254 0.929 . S
C273 C270 1.388 . S
C273 N272 1.397 . S
C274 H255 0.929 . S
C274 C271 1.404 . S
C274 N272 1.334 . S
C275 H267 0.930 . S
C275 C270 1.418 . S
C275 C271 1.353 . S
C276 H246 0.930 . S
C276 N277 1.330 . S
C276 C278 1.446 . S
N277 Co236 2.151 . S
N277 C276 1.330 . S
N277 C281 1.418 . S
C278 H257 0.929 . S
C278 C276 1.446 . S
C278 C279 1.332 . S
C279 H259 0.931 . S
C279 C278 1.332 . S
C279 C280 1.267 . S
C280 H248 0.929 . S
C280 C279 1.267 . S
C280 C281 1.251 . S
C281 H251 0.929 . S
C281 N277 1.418 . S
C281 C280 1.251 . S
C282 H249 0.930 . S
C282 C284 1.406 . S
C282 C287 1.261 . S
C283 H250 0.930 . S
C283 N285 1.325 . S
C283 C286 1.357 . S
C284 H252 0.928 . S
C284 C282 1.406 . S
C284 N285 1.261 . S
N285 Co236 2.214 . S
N285 C283 1.325 . S
N285 C284 1.261 . S
C286 H256 0.931 . S
C286 C283 1.357 . S
C286 C287 1.312 . S
C287 H258 0.930 . S
C287 C282 1.261 . S
C287 C286 1.312 . S
C288 O260 1.214 . S
C288 O268 1.234 . S
C289 H261 0.929 . S
C289 C292 1.391 . S
C289 C294 1.391 . S
C290 H262 0.929 . S
C290 C291 1.390 . S
C290 N293 1.391 . S
C291 H263 0.930 . S
C291 C290 1.390 . S
C291 C292 1.392 . S
C292 H264 0.929 . S
C292 C289 1.391 . S
C292 C291 1.392 . S
N293 Co237 2.257 . S
N293 C290 1.391 . S
N293 C294 1.388 . S
C294 H265 0.930 . S
C294 C289 1.391 . S
C294 N293 1.388 . S
Co295 O297 2.143 . S
Co295 O303 2.074 . S
Co295 O306 2.093 . S
Co295 O319 2.097 . S
Co295 N336 2.151 . S
Co295 N344 2.214 . S
Co296 O297 2.160 . S
Co296 O302 2.058 . S
Co296 O312 2.057 . S
Co296 O327 2.037 . S
Co296 N331 2.145 . S
Co296 N352 2.257 . S
O297 Co295 2.143 . S
O297 Co296 2.160 . S
C298 O299 1.278 . S
C298 O306 1.224 . S
O299 C298 1.278 . S
C300 O301 1.245 . S
C300 O312 1.232 . S
O301 C300 1.245 . S
O302 Co296 2.058 . S
O302 C328 1.269 . S
O303 Co295 2.074 . S
O303 C328 1.257 . S
H304 C329 0.930 . S
H305 C335 0.930 . S
O306 Co295 2.093 . S
O306 C298 1.224 . S
H307 C339 0.929 . S
H308 C341 0.930 . S
H309 C342 0.930 . S
H310 C340 0.929 . S
H311 C343 0.928 . S
O312 Co296 2.057 . S
O312 C300 1.232 . S
H313 C332 0.929 . S
H314 C333 0.929 . S
H315 C345 0.931 . S
H316 C337 0.929 . S
H317 C346 0.930 . S
H318 C338 0.931 . S
O319 Co295 2.097 . S
O319 C347 1.214 . S
H320 C348 0.929 . S
H321 C349 0.929 . S
H322 C350 0.930 . S
H323 C351 0.929 . S
H324 C353 0.930 . S
H325 C330 0.930 . S
H326 C334 0.930 . S
O327 Co296 2.037 . S
O327 C347 1.234 . S
C328 O302 1.269 . S
C328 O303 1.257 . S
C329 H304 0.930 . S
C329 C332 1.388 . S
C329 C334 1.418 . S
C330 H325 0.930 . S
C330 C333 1.404 . S
C330 C334 1.353 . S
N331 Co296 2.145 . S
N331 C332 1.397 . S
N331 C333 1.334 . S
C332 H313 0.929 . S
C332 C329 1.388 . S
C332 N331 1.397 . S
C333 H314 0.929 . S
C333 C330 1.404 . S
C333 N331 1.334 . S
C334 H326 0.930 . S
C334 C329 1.418 . S
C334 C330 1.353 . S
C335 H305 0.930 . S
C335 N336 1.330 . S
C335 C337 1.446 . S
N336 Co295 2.151 . S
N336 C335 1.330 . S
N336 C340 1.418 . S
C337 H316 0.929 . S
C337 C335 1.446 . S
C337 C338 1.332 . S
C338 H318 0.931 . S
C338 C337 1.332 . S
C338 C339 1.267 . S
C339 H307 0.929 . S
C339 C338 1.267 . S
C339 C340 1.251 . S
C340 H310 0.929 . S
C340 N336 1.418 . S
C340 C339 1.251 . S
C341 H308 0.930 . S
C341 C343 1.406 . S
C341 C346 1.261 . S
C342 H309 0.930 . S
C342 N344 1.325 . S
C342 C345 1.357 . S
C343 H311 0.928 . S
C343 C341 1.406 . S
C343 N344 1.261 . S
N344 Co295 2.214 . S
N344 C342 1.325 . S
N344 C343 1.261 . S
C345 H315 0.931 . S
C345 C342 1.357 . S
C345 C346 1.312 . S
C346 H317 0.930 . S
C346 C341 1.261 . S
C346 C345 1.312 . S
C347 O319 1.214 . S
C347 O327 1.234 . S
C348 H320 0.929 . S
C348 C351 1.391 . S
C348 C353 1.391 . S
C349 H321 0.929 . S
C349 C350 1.390 . S
C349 N352 1.391 . S
C350 H322 0.930 . S
C350 C349 1.390 . S
C350 C351 1.392 . S
C351 H323 0.929 . S
C351 C348 1.391 . S
C351 C350 1.392 . S
N352 Co296 2.257 . S
N352 C349 1.391 . S
N352 C353 1.388 . S
C353 H324 0.930 . S
C353 C348 1.391 . S
C353 N352 1.388 . S
Co354 O356 2.143 . S
Co354 O362 2.074 . S
Co354 O365 2.093 . S
Co354 O378 2.097 . S
Co354 N395 2.151 . S
Co354 N403 2.214 . S
Co355 O356 2.160 . S
Co355 O361 2.058 . S
Co355 O371 2.057 . S
Co355 O386 2.037 . S
Co355 N390 2.145 . S
Co355 N411 2.257 . S
O356 Co354 2.143 . S
O356 Co355 2.160 . S
C357 O358 1.278 . S
C357 O365 1.224 . S
O358 C357 1.278 . S
C359 O360 1.245 . S
C359 O371 1.232 . S
O360 C359 1.245 . S
O361 Co355 2.058 . S
O361 C387 1.269 . S
O362 Co354 2.074 . S
O362 C387 1.257 . S
H363 C388 0.930 . S
H364 C394 0.930 . S
O365 Co354 2.093 . S
O365 C357 1.224 . S
H366 C398 0.929 . S
H367 C400 0.930 . S
H368 C401 0.930 . S
H369 C399 0.929 . S
H370 C402 0.928 . S
O371 Co355 2.057 . S
O371 C359 1.232 . S
H372 C391 0.929 . S
H373 C392 0.929 . S
H374 C404 0.931 . S
H375 C396 0.929 . S
H376 C405 0.930 . S
H377 C397 0.931 . S
O378 Co354 2.097 . S
O378 C406 1.214 . S
H379 C407 0.929 . S
H380 C408 0.929 . S
H381 C409 0.930 . S
H382 C410 0.929 . S
H383 C412 0.930 . S
H384 C389 0.930 . S
H385 C393 0.930 . S
O386 Co355 2.037 . S
O386 C406 1.234 . S
C387 O361 1.269 . S
C387 O362 1.257 . S
C388 H363 0.930 . S
C388 C391 1.388 . S
C388 C393 1.418 . S
C389 H384 0.930 . S
C389 C392 1.404 . S
C389 C393 1.353 . S
N390 Co355 2.145 . S
N390 C391 1.397 . S
N390 C392 1.334 . S
C391 H372 0.929 . S
C391 C388 1.388 . S
C391 N390 1.397 . S
C392 H373 0.929 . S
C392 C389 1.404 . S
C392 N390 1.334 . S
C393 H385 0.930 . S
C393 C388 1.418 . S
C393 C389 1.353 . S
C394 H364 0.930 . S
C394 N395 1.330 . S
C394 C396 1.446 . S
N395 Co354 2.151 . S
N395 C394 1.330 . S
N395 C399 1.418 . S
C396 H375 0.929 . S
C396 C394 1.446 . S
C396 C397 1.332 . S
C397 H377 0.931 . S
C397 C396 1.332 . S
C397 C398 1.267 . S
C398 H366 0.929 . S
C398 C397 1.267 . S
C398 C399 1.251 . S
C399 H369 0.929 . S
C399 N395 1.418 . S
C399 C398 1.251 . S
C400 H367 0.930 . S
C400 C402 1.406 . S
C400 C405 1.261 . S
C401 H368 0.930 . S
C401 N403 1.325 . S
C401 C404 1.357 . S
C402 H370 0.928 . S
C402 C400 1.406 . S
C402 N403 1.261 . S
N403 Co354 2.214 . S
N403 C401 1.325 . S
N403 C402 1.261 . S
C404 H374 0.931 . S
C404 C401 1.357 . S
C404 C405 1.312 . S
C405 H376 0.930 . S
C405 C400 1.261 . S
C405 C404 1.312 . S
C406 O378 1.214 . S
C406 O386 1.234 . S
C407 H379 0.929 . S
C407 C410 1.391 . S
C407 C412 1.391 . S
C408 H380 0.929 . S
C408 C409 1.390 . S
C408 N411 1.391 . S
C409 H381 0.930 . S
C409 C408 1.390 . S
C409 C410 1.392 . S
C410 H382 0.929 . S
C410 C407 1.391 . S
C410 C409 1.392 . S
N411 Co355 2.257 . S
N411 C408 1.391 . S
N411 C412 1.388 . S
C412 H383 0.930 . S
C412 C407 1.391 . S
C412 N411 1.388 . S
Co413 O415 2.143 . S
Co413 O421 2.074 . S
Co413 O424 2.093 . S
Co413 O437 2.097 . S
Co413 N454 2.151 . S
Co413 N462 2.214 . S
Co414 O415 2.160 . S
Co414 O420 2.058 . S
Co414 O430 2.057 . S
Co414 O445 2.037 . S
Co414 N449 2.145 . S
Co414 N470 2.257 . S
O415 Co413 2.143 . S
O415 Co414 2.160 . S
C416 O417 1.278 . S
C416 O424 1.224 . S
O417 C416 1.278 . S
C418 O419 1.245 . S
C418 O430 1.232 . S
O419 C418 1.245 . S
O420 Co414 2.058 . S
O420 C446 1.269 . S
O421 Co413 2.074 . S
O421 C446 1.257 . S
H422 C447 0.930 . S
H423 C453 0.930 . S
O424 Co413 2.093 . S
O424 C416 1.224 . S
H425 C457 0.929 . S
H426 C459 0.930 . S
H427 C460 0.930 . S
H428 C458 0.929 . S
H429 C461 0.928 . S
O430 Co414 2.057 . S
O430 C418 1.232 . S
H431 C450 0.929 . S
H432 C451 0.929 . S
H433 C463 0.931 . S
H434 C455 0.929 . S
H435 C464 0.930 . S
H436 C456 0.931 . S
O437 Co413 2.097 . S
O437 C465 1.214 . S
H438 C466 0.929 . S
H439 C467 0.929 . S
H440 C468 0.930 . S
H441 C469 0.929 . S
H442 C471 0.930 . S
H443 C448 0.930 . S
H444 C452 0.930 . S
O445 Co414 2.037 . S
O445 C465 1.234 . S
C446 O420 1.269 . S
C446 O421 1.257 . S
C447 H422 0.930 . S
C447 C450 1.388 . S
C447 C452 1.418 . S
C448 H443 0.930 . S
C448 C451 1.404 . S
C448 C452 1.353 . S
N449 Co414 2.145 . S
N449 C450 1.397 . S
N449 C451 1.334 . S
C450 H431 0.929 . S
C450 C447 1.388 . S
C450 N449 1.397 . S
C451 H432 0.929 . S
C451 C448 1.404 . S
C451 N449 1.334 . S
C452 H444 0.930 . S
C452 C447 1.418 . S
C452 C448 1.353 . S
C453 H423 0.930 . S
C453 N454 1.330 . S
C453 C455 1.446 . S
N454 Co413 2.151 . S
N454 C453 1.330 . S
N454 C458 1.418 . S
C455 H434 0.929 . S
C455 C453 1.446 . S
C455 C456 1.332 . S
C456 H436 0.931 . S
C456 C455 1.332 . S
C456 C457 1.267 . S
C457 H425 0.929 . S
C457 C456 1.267 . S
C457 C458 1.251 . S
C458 H428 0.929 . S
C458 N454 1.418 . S
C458 C457 1.251 . S
C459 H426 0.930 . S
C459 C461 1.406 . S
C459 C464 1.261 . S
C460 H427 0.930 . S
C460 N462 1.325 . S
C460 C463 1.357 . S
C461 H429 0.928 . S
C461 C459 1.406 . S
C461 N462 1.261 . S
N462 Co413 2.214 . S
N462 C460 1.325 . S
N462 C461 1.261 . S
C463 H433 0.931 . S
C463 C460 1.357 . S
C463 C464 1.312 . S
C464 H435 0.930 . S
C464 C459 1.261 . S
C464 C463 1.312 . S
C465 O437 1.214 . S
C465 O445 1.234 . S
C466 H438 0.929 . S
C466 C469 1.391 . S
C466 C471 1.391 . S
C467 H439 0.929 . S
C467 C468 1.390 . S
C467 N470 1.391 . S
C468 H440 0.930 . S
C468 C467 1.390 . S
C468 C469 1.392 . S
C469 H441 0.929 . S
C469 C466 1.391 . S
C469 C468 1.392 . S
N470 Co414 2.257 . S
N470 C467 1.391 . S
N470 C471 1.388 . S
C471 H442 0.930 . S
C471 C466 1.391 . S
C471 N470 1.388 . S
C472 C473 1.387 . S
C472 H476 0.950 . S
C472 C481 1.390 . S
C473 C472 1.387 . S
C473 C475 1.387 . S
H474 C481 0.950 . S
C475 C473 1.387 . S
C475 C477 1.390 . S
C475 H479 0.950 . S
H476 C472 0.950 . S
C477 C475 1.390 . S
C477 C478 1.387 . S
C477 H480 0.950 . S
C478 C477 1.387 . S
C478 C481 1.387 . S
H479 C475 0.950 . S
H480 C477 0.950 . S
C481 C472 1.390 . S
C481 H474 0.950 . S
C481 C478 1.387 . S
C482 C483 1.387 . S
C482 H486 0.950 . S
C482 C491 1.390 . S
C483 C482 1.387 . S
C483 C485 1.387 . S
H484 C491 0.950 . S
C485 C483 1.387 . S
C485 C487 1.390 . S
C485 H489 0.950 . S
H486 C482 0.950 . S
C487 C485 1.390 . S
C487 C488 1.387 . S
C487 H490 0.950 . S
C488 C487 1.387 . S
C488 C491 1.387 . S
H489 C485 0.950 . S
H490 C487 0.950 . S
C491 C482 1.390 . S
C491 H484 0.950 . S
C491 C488 1.387 . S
C492 C493 1.387 . S
C492 H496 0.950 . S
C492 C501 1.390 . S
C493 C492 1.387 . S
C493 C495 1.387 . S
H494 C501 0.950 . S
C495 C493 1.387 . S
C495 C497 1.390 . S
C495 H499 0.950 . S
H496 C492 0.950 . S
C497 C495 1.390 . S
C497 C498 1.387 . S
C497 H500 0.950 . S
C498 C497 1.387 . S
C498 C501 1.387 . S
H499 C495 0.950 . S
H500 C497 0.950 . S
C501 C492 1.390 . S
C501 H494 0.950 . S
C501 C498 1.387 . S
C502 C503 1.387 . S
C502 H506 0.950 . S
C502 C511 1.390 . S
C503 C502 1.387 . S
C503 C505 1.387 . S
H504 C511 0.950 . S
C505 C503 1.387 . S
C505 C507 1.390 . S
C505 H509 0.950 . S
H506 C502 0.950 . S
C507 C505 1.390 . S
C507 C508 1.387 . S
C507 H510 0.950 . S
C508 C507 1.387 . S
C508 C511 1.387 . S
H509 C505 0.950 . S
H510 C507 0.950 . S
C511 C502 1.390 . S
C511 H504 0.950 . S
C511 C508 1.387 . S
C512 C513 1.387 . S
C512 H516 0.950 . S
C512 C521 1.390 . S
C513 C512 1.387 . S
C513 C515 1.387 . S
H514 C521 0.950 . S
C515 C513 1.387 . S
C515 C517 1.390 . S
C515 H519 0.950 . S
H516 C512 0.950 . S
C517 C515 1.390 . S
C517 C518 1.387 . S
C517 H520 0.950 . S
C518 C517 1.387 . S
C518 C521 1.387 . S
H519 C515 0.950 . S
H520 C517 0.950 . S
C521 C512 1.390 . S
C521 H514 0.950 . S
C521 C518 1.387 . S
C522 C523 1.387 . S
C522 H526 0.950 . S
C522 C531 1.390 . S
C523 C522 1.387 . S
C523 C525 1.387 . S
H524 C531 0.950 . S
C525 C523 1.387 . S
C525 C527 1.390 . S
C525 H529 0.950 . S
H526 C522 0.950 . S
C527 C525 1.390 . S
C527 C528 1.387 . S
C527 H530 0.950 . S
C528 C527 1.387 . S
C528 C531 1.387 . S
H529 C525 0.950 . S
H530 C527 0.950 . S
C531 C522 1.390 . S
C531 H524 0.950 . S
C531 C528 1.387 . S
C532 C533 1.387 . S
C532 H536 0.950 . S
C532 C541 1.390 . S
C533 C532 1.387 . S
C533 C535 1.387 . S
H534 C541 0.950 . S
C535 C533 1.387 . S
C535 C537 1.390 . S
C535 H539 0.950 . S
H536 C532 0.950 . S
C537 C535 1.390 . S
C537 C538 1.387 . S
C537 H540 0.950 . S
C538 C537 1.387 . S
C538 C541 1.387 . S
H539 C535 0.950 . S
H540 C537 0.950 . S
C541 C532 1.390 . S
C541 H534 0.950 . S
C541 C538 1.387 . S
C542 C543 1.387 . S
C542 H546 0.950 . S
C542 C551 1.390 . S
C543 C542 1.387 . S
C543 C545 1.387 . S
H544 C551 0.950 . S
C545 C543 1.387 . S
C545 C547 1.390 . S
C545 H549 0.950 . S
H546 C542 0.950 . S
C547 C545 1.390 . S
C547 C548 1.387 . S
C547 H550 0.950 . S
C548 C547 1.387 . S
C548 C551 1.387 . S
H549 C545 0.950 . S
H550 C547 0.950 . S
C551 C542 1.390 . S
C551 H544 0.950 . S
C551 C548 1.387 . S
C552 C553 1.387 . S
C552 H556 0.950 . S
C552 C561 1.390 . S
C553 C552 1.387 . S
C553 C555 1.387 . S
H554 C561 0.950 . S
C555 C553 1.387 . S
C555 C557 1.390 . S
C555 H559 0.950 . S
H556 C552 0.950 . S
C557 C555 1.390 . S
C557 C558 1.387 . S
C557 H560 0.950 . S
C558 C557 1.387 . S
C558 C561 1.387 . S
H559 C555 0.950 . S
H560 C557 0.950 . S
C561 C552 1.390 . S
C561 H554 0.950 . S
C561 C558 1.387 . S
C562 C563 1.387 . S
C562 H566 0.950 . S
C562 C571 1.390 . S
C563 C562 1.387 . S
C563 C565 1.387 . S
H564 C571 0.950 . S
C565 C563 1.387 . S
C565 C567 1.390 . S
C565 H569 0.950 . S
H566 C562 0.950 . S
C567 C565 1.390 . S
C567 C568 1.387 . S
C567 H570 0.950 . S
C568 C567 1.387 . S
C568 C571 1.387 . S
H569 C565 0.950 . S
H570 C567 0.950 . S
C571 C562 1.390 . S
C571 H564 0.950 . S
C571 C568 1.387 . S
C572 C573 1.387 . S
C572 H576 0.950 . S
C572 C581 1.390 . S
C573 C572 1.387 . S
C573 C575 1.387 . S
H574 C581 0.950 . S
C575 C573 1.387 . S
C575 C577 1.390 . S
C575 H579 0.950 . S
H576 C572 0.950 . S
C577 C575 1.390 . S
C577 C578 1.387 . S
C577 H580 0.950 . S
C578 C577 1.387 . S
C578 C581 1.387 . S
H579 C575 0.950 . S
H580 C577 0.950 . S
C581 C572 1.390 . S
C581 H574 0.950 . S
C581 C578 1.387 . S
C582 C583 1.387 . S
C582 H586 0.950 . S
C582 C591 1.390 . S
C583 C582 1.387 . S
C583 C585 1.387 . S
H584 C591 0.950 . S
C585 C583 1.387 . S
C585 C587 1.390 . S
C585 H589 0.950 . S
H586 C582 0.950 . S
C587 C585 1.390 . S
C587 C588 1.387 . S
C587 H590 0.950 . S
C588 C587 1.387 . S
C588 C591 1.387 . S
H589 C585 0.950 . S
H590 C587 0.950 . S
C591 C582 1.390 . S
C591 H584 0.950 . S
C591 C588 1.387 . S
C592 C593 1.380 1_455 S
C592 H596 0.950 . S
C592 C601 1.390 1_544 S
C593 C592 1.380 1_655 S
C593 C595 1.395 . S
H594 C601 0.950 . S
C595 C593 1.395 . S
C595 C597 1.390 1_544 S
C595 H599 0.950 . S
H596 C592 0.950 . S
C597 C595 1.390 1_566 S
C597 C598 1.395 . S
C597 H600 0.950 . S
C598 C597 1.395 . S
C598 C601 1.380 1_655 S
H599 C595 0.950 . S
H600 C597 0.950 . S
C601 C592 1.390 1_566 S
C601 H594 0.950 . S
C601 C598 1.380 1_455 S
C602 C603 1.387 . S
C602 H606 0.950 . S
C602 C611 1.390 1_556 S
C603 C602 1.387 . S
C603 C605 1.387 1_455 S
H604 C611 0.950 . S
C605 C603 1.387 1_655 S
C605 C607 1.390 1_556 S
C605 H609 0.950 . S
H606 C602 0.950 . S
C607 C605 1.390 1_554 S
C607 C608 1.387 1_655 S
C607 H610 0.950 . S
C608 C607 1.387 1_455 S
C608 C611 1.387 . S
H609 C605 0.950 . S
H610 C607 0.950 . S
C611 C602 1.390 1_554 S
C611 H604 0.950 . S
C611 C608 1.387 . S
C612 C613 1.387 . S
C612 H616 0.950 . S
C612 C621 1.390 . S
C613 C612 1.387 . S
C613 C615 1.387 . S
H614 C621 0.950 . S
C615 C613 1.387 . S
C615 C617 1.390 . S
C615 H619 0.950 . S
H616 C612 0.950 . S
C617 C615 1.390 . S
C617 C618 1.387 . S
C617 H620 0.950 . S
C618 C617 1.387 . S
C618 C621 1.387 . S
H619 C615 0.950 . S
H620 C617 0.950 . S
C621 C612 1.390 . S
C621 H614 0.950 . S
C621 C618 1.387 . S
C622 C623 1.387 . S
C622 H626 0.950 . S
C622 C631 1.390 1_565 S
C623 C622 1.387 . S
C623 C625 1.387 . S
H624 C631 0.950 . S
C625 C623 1.387 . S
C625 C627 1.390 1_565 S
C625 H629 0.950 . S
H626 C622 0.950 . S
C627 C625 1.390 1_545 S
C627 C628 1.387 . S
C627 H630 0.950 . S
C628 C627 1.387 . S
C628 C631 1.387 . S
H629 C625 0.950 . S
H630 C627 0.950 . S
C631 C622 1.390 1_545 S
C631 H624 0.950 . S
C631 C628 1.387 . S
C473 C111 1.523 . S
C478 C52 1.523 . S
C483 C170 1.521 . S
C488 C229 1.521 . S
C493 C288 1.521 . S
C498 C347 1.521 . S
C503 C406 1.523 . S
C508 C465 1.523 . S
C513 C416 1.289 . S
C518 C3 1.289 . S
C523 C357 1.289 . S
C528 C62 1.289 . S
C533 C121 1.289 . S
C538 C298 1.289 . S
C543 C239 1.289 . S
C548 C180 1.289 . S
C553 C328 1.688 . S
C558 C151 1.688 . S
C563 C269 1.688 . S
C568 C210 1.688 . S
C573 C446 1.689 . S
C578 C33 1.689 . S
C583 C92 1.688 . S
C588 C387 1.688 . S
C593 C5 1.492 . S
C598 C123 1.492 . S
C603 C182 1.491 . S
C608 C64 1.491 . S
C613 C359 1.492 . S
C618 C241 1.492 . S
C623 C300 1.491 . S
C628 C418 1.491 . S
