# Generated by pormake.
# Topology wjd, (6)-cn, num edge types: 1
# Building blocks:
#     Node 0, Type 0, BuildingBlock: KUMJIN_clean_sbu_0, # of connection points: 6
#     Node 1, Type 0, BuildingBlock: KUMJIN_clean_sbu_0, # of connection points: 6
#     Node 2, Type 0, BuildingBlock: KUMJIN_clean_sbu_0, # of connection points: 6
#     Node 3, Type 0, BuildingBlock: KUMJIN_clean_sbu_0, # of connection points: 6
#     Node 4, Type 0, BuildingBlock: KUMJIN_clean_sbu_0, # of connection points: 6
#     Node 5, Type 0, BuildingBlock: KUMJIN_clean_sbu_0, # of connection points: 6
#     Node 6, Type 0, BuildingBlock: KUMJIN_clean_sbu_0, # of connection points: 6
#     Node 7, Type 0, BuildingBlock: KUMJIN_clean_sbu_0, # of connection points: 6
#     Node 8, Type 0, BuildingBlock: KUMJIN_clean_sbu_0, # of connection points: 6
#     Node 9, Type 0, BuildingBlock: KUMJIN_clean_sbu_0, # of connection points: 6
#     Node 10, Type 0, BuildingBlock: KUMJIN_clean_sbu_0, # of connection points: 6
#     Node 11, Type 0, BuildingBlock: KUMJIN_clean_sbu_0, # of connection points: 6
#     Edge 12, Type (0, 0), BuildingBlock: EZIPEK_clean_linker_0, # of connection points: 2
#     Edge 13, Type (0, 0), BuildingBlock: EZIPEK_clean_linker_0, # of connection points: 2
#     Edge 14, Type (0, 0), BuildingBlock: EZIPEK_clean_linker_0, # of connection points: 2
#     Edge 15, Type (0, 0), BuildingBlock: EZIPEK_clean_linker_0, # of connection points: 2
#     Edge 16, Type (0, 0), BuildingBlock: EZIPEK_clean_linker_0, # of connection points: 2
#     Edge 17, Type (0, 0), BuildingBlock: EZIPEK_clean_linker_0, # of connection points: 2
#     Edge 18, Type (0, 0), BuildingBlock: EZIPEK_clean_linker_0, # of connection points: 2
#     Edge 19, Type (0, 0), BuildingBlock: EZIPEK_clean_linker_0, # of connection points: 2
#     Edge 20, Type (0, 0), BuildingBlock: EZIPEK_clean_linker_0, # of connection points: 2
#     Edge 21, Type (0, 0), BuildingBlock: EZIPEK_clean_linker_0, # of connection points: 2
#     Edge 22, Type (0, 0), BuildingBlock: EZIPEK_clean_linker_0, # of connection points: 2
#     Edge 23, Type (0, 0), BuildingBlock: EZIPEK_clean_linker_0, # of connection points: 2
#     Edge 24, Type (0, 0), BuildingBlock: EZIPEK_clean_linker_0, # of connection points: 2
#     Edge 25, Type (0, 0), BuildingBlock: EZIPEK_clean_linker_0, # of connection points: 2
#     Edge 26, Type (0, 0), BuildingBlock: EZIPEK_clean_linker_0, # of connection points: 2
#     Edge 27, Type (0, 0), BuildingBlock: EZIPEK_clean_linker_0, # of connection points: 2
#     Edge 28, Type (0, 0), BuildingBlock: EZIPEK_clean_linker_0, # of connection points: 2
#     Edge 29, Type (0, 0), BuildingBlock: EZIPEK_clean_linker_0, # of connection points: 2
#     Edge 30, Type (0, 0), BuildingBlock: EZIPEK_clean_linker_0, # of connection points: 2
#     Edge 31, Type (0, 0), BuildingBlock: EZIPEK_clean_linker_0, # of connection points: 2
#     Edge 32, Type (0, 0), BuildingBlock: EZIPEK_clean_linker_0, # of connection points: 2
#     Edge 33, Type (0, 0), BuildingBlock: EZIPEK_clean_linker_0, # of connection points: 2
#     Edge 34, Type (0, 0), BuildingBlock: EZIPEK_clean_linker_0, # of connection points: 2
#     Edge 35, Type (0, 0), BuildingBlock: EZIPEK_clean_linker_0, # of connection points: 2
#     Edge 36, Type (0, 0), BuildingBlock: EZIPEK_clean_linker_0, # of connection points: 2
#     Edge 37, Type (0, 0), BuildingBlock: EZIPEK_clean_linker_0, # of connection points: 2
#     Edge 38, Type (0, 0), BuildingBlock: EZIPEK_clean_linker_0, # of connection points: 2
#     Edge 39, Type (0, 0), BuildingBlock: EZIPEK_clean_linker_0, # of connection points: 2
#     Edge 40, Type (0, 0), BuildingBlock: EZIPEK_clean_linker_0, # of connection points: 2
#     Edge 41, Type (0, 0), BuildingBlock: EZIPEK_clean_linker_0, # of connection points: 2
#     Edge 42, Type (0, 0), BuildingBlock: EZIPEK_clean_linker_0, # of connection points: 2
#     Edge 43, Type (0, 0), BuildingBlock: EZIPEK_clean_linker_0, # of connection points: 2
#     Edge 44, Type (0, 0), BuildingBlock: EZIPEK_clean_linker_0, # of connection points: 2
#     Edge 45, Type (0, 0), BuildingBlock: EZIPEK_clean_linker_0, # of connection points: 2
#     Edge 46, Type (0, 0), BuildingBlock: EZIPEK_clean_linker_0, # of connection points: 2
#     Edge 47, Type (0, 0), BuildingBlock: EZIPEK_clean_linker_0, # of connection points: 2
# Relax obj value: 0.094
# Max RMSD: 0.225
# Mean RMSD: 0.225
data_MOF--net-wjd--node1-KUMJIN_clean_sbu_0--edge1-EZIPEK_clean_linker_0
_symmetry_space_group_name_H-M    P1
_symmetry_Int_Tables_number       1
_symmetry_cell_setting            triclinic
loop_
_symmetry_equiv_pos_as_xyz
'x, y, z'
_cell_length_a     30.966647
_cell_length_b     30.914331
_cell_length_c     40.680313
_cell_angle_alpha  89.974413
_cell_angle_beta   90.069169
_cell_angle_gamma 120.00376
loop_
_atom_site_label
_atom_site_type_symbol
_atom_site_fract_x
_atom_site_fract_y
_atom_site_fract_z
_atom_type_partial_charge
Eu0 Eu 0.38569 0.20096 0.09488 0.0
C1 C 0.36553 1.01266 0.16233 0.0
C2 C 0.39555 0.97959 0.11966 0.0
C3 C 0.40492 0.96388 0.1768 0.0
C4 C 0.37225 1.00704 0.12925 0.0
C5 C 0.38417 0.99312 0.18635 0.0
C6 C 0.41003 0.95662 0.14351 0.0
C7 C 0.36519 0.03674 0.2276 0.0
N8 N 0.34617 0.04188 0.17116 0.0
C9 C 0.34213 0.0505 0.2037 0.0
C10 C 0.38481 1.0065 0.21917 0.0
Eu11 Eu 0.32043 0.0757 0.12795 0.0
N12 N 0.36122 0.03267 0.10679 0.0
C13 C 0.37657 0.03503 0.07484 0.0
C14 C 0.40664 0.97851 0.08653 0.0
C15 C 0.39799 1.0072 0.06415 0.0
H16 H 0.32435 0.07144 0.21116 0.0
H17 H 0.4092 1.00919 0.03874 0.0
H18 H 0.42769 0.93534 0.13648 0.0
H19 H 0.36688 0.04858 0.25274 0.0
H20 H 0.37509 0.05996 0.0573 0.0
H21 H 0.30409 0.30796 0.14558 0.0
H22 H 0.42449 0.95793 0.07831 0.0
H23 H 0.41912 0.20734 0.0142 0.0
H24 H 0.35574 0.26851 0.14554 0.0
H25 H 0.38758 0.21458 0.96008 0.0
H26 H 0.41879 0.94821 0.19499 0.0
H27 H 0.25595 0.30336 0.09579 0.0
H28 H 0.23493 0.27689 0.03674 0.0
H29 H 0.40113 0.99445 0.2381 0.0
H30 H 0.25655 0.24894 0.98594 0.0
N31 N 0.33838 0.242 0.09671 0.0
C32 C 0.3358 0.26663 0.12377 0.0
C33 C 0.27945 0.28662 0.09564 0.0
C34 C 0.28481 0.26419 0.06728 0.0
C35 C 0.30652 0.28933 0.12372 0.0
C36 C 0.31638 0.2435 0.06832 0.0
H37 H 0.31688 0.22944 0.95678 0.0
N38 N 0.36393 0.21428 0.04119 0.0
C39 C 0.3701 0.21755 0.98233 0.0
C40 C 0.32887 0.22828 0.03973 0.0
C41 C 0.38781 0.21343 0.01304 0.0
C42 C 0.32977 0.22563 0.98056 0.0
C43 C 0.30962 0.2328 0.00941 0.0
O44 O 0.4569 0.25116 0.07033 0.0
O45 O 0.39025 0.13031 0.10002 0.0
O46 O 0.37018 0.12988 0.16753 0.0
O47 O 0.38089 0.2062 0.15158 0.0
O48 O 0.45061 0.19605 0.11489 0.0
O49 O 0.43557 0.27665 0.1132 0.0
O50 O 0.26073 0.05181 0.16369 0.0
O51 O 0.32071 0.14927 0.12436 0.0
O52 O 0.34289 0.13766 0.05296 0.0
O53 O 0.30124 0.05765 0.0761 0.0
O54 O 0.2578 0.08633 0.10833 0.0
O55 O 0.25281 1.00081 0.12358 0.0
C56 C 0.43464 0.1494 0.11133 0.0
C57 C 0.49022 0.33936 0.07619 0.0
C58 C 0.55445 0.42856 0.07567 0.0
C59 C 0.5348 0.37992 0.089 0.0
C60 C 0.52907 0.43574 0.04951 0.0
C61 C 0.46574 0.34807 0.05022 0.0
C62 C 0.48517 0.39588 0.03696 0.0
C63 C 0.38404 0.17678 0.17424 0.0
C64 C 0.46901 0.28846 0.09037 0.0
C65 C 0.27316 0.24712 0.00885 0.0
C66 C 0.26101 0.26322 0.03775 0.0
C67 C 0.27689 0.13306 0.11384 0.0
C68 C 0.18076 0.97448 0.16088 0.0
C69 C 0.14241 0.93754 0.14067 0.0
C70 C 0.09209 0.91208 0.15175 0.0
C71 C 0.08136 0.92394 0.18294 0.0
C72 C 0.16816 0.98376 0.19223 0.0
C73 C 0.11903 0.95873 0.20307 0.0
C74 C 0.31254 0.08721 0.05072 0.0
C75 C 0.23133 1.01032 0.148 0.0
H76 H 0.55435 0.37364 0.10887 0.0
H77 H 0.54375 0.47235 0.03848 0.0
H78 H 0.43157 0.31791 0.04013 0.0
H79 H 0.46619 0.40207 0.01671 0.0
H80 H 0.15123 0.9297 0.11642 0.0
H81 H 0.04344 0.90508 0.19214 0.0
H82 H 0.19619 1.01191 0.20814 0.0
H83 H 0.10997 0.96682 0.22714 0.0
Eu84 Eu 0.78299 0.72199 0.36442 0.0
C85 C 0.92989 0.67072 0.43807 0.0
C86 C 1.00165 0.70008 0.40202 0.0
C87 C 1.00672 0.67625 0.45808 0.0
C88 C 0.9515 0.68713 0.40734 0.0
C89 C 0.95746 0.66494 0.46368 0.0
C90 C 0.02897 0.69439 0.42748 0.0
C91 C 0.88493 0.63431 0.49834 0.0
N92 N 0.88149 0.65832 0.44253 0.0
C93 C 0.85862 0.63915 0.47204 0.0
C94 C 0.9343 0.64646 0.49398 0.0
Eu95 Eu 0.83649 0.64861 0.39314 0.0
N96 N 0.92341 0.68962 0.38252 0.0
C97 C 0.94391 0.70586 0.35216 0.0
C98 C 0.02281 0.71779 0.3711 0.0
C99 C 0.9938 0.72099 0.34613 0.0
H100 H 0.81901 0.62406 0.47484 0.0
H101 H 1.00937 0.73378 0.3219 0.0
H102 H 0.0673 0.7037 0.4237 0.0
H103 H 0.86632 0.61881 0.52147 0.0
H104 H 0.92222 0.70668 0.33218 0.0
H105 H 0.6152 0.63158 0.44236 0.0
H106 H 0.06131 0.72867 0.36618 0.0
H107 H 0.78516 0.72719 0.27925 0.0
H108 H 0.70138 0.69039 0.42984 0.0
H109 H 0.73449 0.67321 0.2343 0.0
H110 H 0.02817 0.67159 0.47741 0.0
H111 H 0.55708 0.58119 0.39824 0.0
H112 H 0.54184 0.5606 0.33868 0.0
H113 H 0.95406 0.6409 0.51405 0.0
H114 H 0.57405 0.57182 0.28235 0.0
N115 N 0.69653 0.672 0.37874 0.0
C116 C 0.67846 0.66814 0.41001 0.0
C117 C 0.59583 0.60688 0.39243 0.0
C118 C 0.61325 0.61299 0.36018 0.0
C119 C 0.62853 0.63501 0.41738 0.0
C120 C 0.66441 0.64626 0.35393 0.0
H121 H 0.64611 0.61087 0.24371 0.0
N122 N 0.73148 0.68556 0.31668 0.0
C123 C 0.71902 0.66752 0.25879 0.0
C124 C 0.68246 0.65282 0.32216 0.0
C125 C 0.74828 0.69678 0.28487 0.0
C126 C 0.66934 0.63222 0.26423 0.0
C127 C 0.64991 0.62597 0.29593 0.0
O128 O 0.79639 0.78274 0.33094 0.0
O129 O 0.85588 0.72202 0.37083 0.0
O130 O 0.81588 0.68399 0.43902 0.0
O131 O 0.7841 0.73274 0.41793 0.0
O132 O 0.85366 0.78326 0.38793 0.0
O133 O 0.77004 0.78294 0.38029 0.0
O134 O 0.80122 0.57478 0.41601 0.0
O135 O 0.76294 0.6475 0.3883 0.0
O136 O 0.82245 0.70831 0.32197 0.0
O137 O 0.8371 0.6444 0.33654 0.0
O138 O 0.7699 0.59169 0.3655 0.0
O139 O 0.85936 0.59395 0.37982 0.0
C140 C 0.88195 0.76433 0.3844 0.0
C141 C 0.77975 0.84884 0.34339 0.0
C142 C 0.8043 0.93762 0.34469 0.0
C143 C 0.8106 0.89776 0.35574 0.0
C144 C 0.76712 0.92758 0.32121 0.0
C145 C 0.74304 0.84007 0.32007 0.0
C146 C 0.73676 0.87931 0.30912 0.0
C147 C 0.79664 0.71452 0.44277 0.0
C148 C 0.78833 0.80795 0.35325 0.0
C149 C 0.59931 0.59284 0.30216 0.0
C150 C 0.58101 0.58646 0.3342 0.0
C151 C 0.73862 0.60535 0.37361 0.0
C152 C 0.84552 0.52924 0.41846 0.0
C153 C 0.86443 0.50228 0.40124 0.0
C154 C 0.87128 0.46543 0.41749 0.0
C155 C 0.86223 0.45881 0.45149 0.0
C156 C 0.83662 0.52093 0.45236 0.0
C157 C 0.84594 0.48687 0.46875 0.0
C158 C 0.83071 0.67166 0.31393 0.0
C159 C 0.82863 0.56019 0.4004 0.0
H160 H 0.83978 0.90494 0.37333 0.0
H161 H 0.762 0.9574 0.3118 0.0
H162 H 0.71966 0.80298 0.31005 0.0
H163 H 0.70859 0.87243 0.29086 0.0
H164 H 0.87056 0.50743 0.37496 0.0
H165 H 0.86661 0.43077 0.46468 0.0
H166 H 0.82056 0.53922 0.46619 0.0
H167 H 0.83856 0.48073 0.49484 0.0
Eu168 Eu 0.83868 0.19243 0.09177 0.0
C169 C 0.03525 0.35357 0.16206 0.0
C170 C 0.05843 0.42101 0.12316 0.0
C171 C 0.09092 0.43983 0.17863 0.0
C172 C 0.03265 0.36928 0.13058 0.0
C173 C 0.06806 0.38861 0.18534 0.0
C174 C 0.08515 0.45603 0.14778 0.0
C175 C 0.05764 0.31991 0.21899 0.0
N176 N 1.01039 0.304 0.16897 0.0
C177 C 0.02051 0.28703 0.19747 0.0
C178 C 0.08 0.37114 0.21363 0.0
Eu179 Eu 0.96499 0.24887 0.12545 0.0
N180 N 1.00937 0.33441 0.10662 0.0
C181 C 1.0143 0.34997 0.07449 0.0
C182 C 0.05961 0.43627 0.09077 0.0
C183 C 0.03876 0.40054 0.06626 0.0
H184 H 1.00073 0.24797 0.20389 0.0
H185 H 0.04129 0.41186 0.04081 0.0
H186 H 0.10441 0.49571 0.14252 0.0
H187 H 0.06645 0.30587 0.24086 0.0
H188 H 0.99895 0.32472 0.05429 0.0
H189 H 0.75313 0.02779 0.17045 0.0
H190 H 0.07878 0.47549 0.0842 0.0
H191 H 0.83105 0.20052 0.01036 0.0
H192 H 0.81299 0.11447 0.15594 0.0
H193 H 0.78212 0.14844 0.96395 0.0
H194 H 0.11482 0.46717 0.19666 0.0
H195 H 0.6981 0.96931 0.12757 0.0
H196 H 0.66854 0.95566 0.06909 0.0
H197 H 0.10667 0.3968 0.23134 0.0
H198 H 0.6748 0.98945 0.01345 0.0
N199 N 0.79408 0.10614 0.10536 0.0
C200 C 0.78945 0.08981 0.13703 0.0
C201 C 0.72516 1.00742 0.12105 0.0
C202 C 0.72933 0.02437 0.08872 0.0
C203 C 0.75578 0.04029 0.14529 0.0
C204 C 0.76548 0.07426 0.08146 0.0
H205 H 0.71774 0.0606 0.97395 0.0
N206 N 0.80566 0.14086 0.04436 0.0
C207 C 0.77942 0.1318 0.98782 0.0
C208 C 0.77114 0.09229 0.04993 0.0
C209 C 0.80942 0.16096 0.01382 0.0
C210 C 0.74292 0.08234 -0.0064 0.0
C211 C 0.73845 0.06191 0.02488 0.0
O212 O 0.79244 0.22325 0.07379 0.0
O213 O 0.90244 0.26551 0.11061 0.0
O214 O 0.91702 0.23911 0.1701 0.0
O215 O 0.83611 0.20044 0.14837 0.0
O216 O 0.87182 0.26451 0.06481 0.0
O217 O 0.76621 0.17305 0.11426 0.0
O218 O 0.9836 0.20381 0.15505 0.0
O219 O 0.89106 0.17775 0.11924 0.0
O220 O 0.89704 0.20142 0.04989 0.0
O221 O 0.97725 0.24842 0.07263 0.0
O222 O 0.95333 0.17637 0.10355 0.0
O223 O 0.04076 0.25593 0.12088 0.0
C224 C 0.9016 0.29349 0.08727 0.0
C225 C 0.70403 0.17126 0.07847 0.0
C226 C 0.61446 0.14473 0.07727 0.0
C227 C 0.66187 0.17035 0.09309 0.0
C228 C 0.60967 0.11924 0.04778 0.0
C229 C 0.69745 0.14743 0.04811 0.0
C230 C 0.65095 0.12096 0.03323 0.0
C231 C 0.86797 0.21838 0.17354 0.0
C232 C 0.75513 0.19794 0.09354 0.0
C233 C 0.70087 1.01293 0.0322 0.0
C234 C 0.69717 0.99376 0.06387 0.0
C235 C 0.90622 0.14971 0.10769 0.0
C236 C 0.05776 0.19795 0.15461 0.0
C237 C 0.10143 0.20491 0.13861 0.0
C238 C 0.12363 0.17644 0.14855 0.0
C239 C 0.10223 0.14222 0.17454 0.0
C240 C 0.03842 0.16412 0.18109 0.0
C241 C 0.06049 0.13666 0.19088 0.0
C242 C 0.94766 0.22649 0.04771 0.0
C243 C 0.02762 0.21991 0.14245 0.0
H244 H 0.66604 0.1902 0.11587 0.0
H245 H 0.57402 0.09956 0.03526 0.0
H246 H 0.72856 0.15019 0.03532 0.0
H247 H 0.64717 0.10266 0.00985 0.0
H248 H 0.11706 0.23082 0.11826 0.0
H249 H 0.11845 0.11998 0.18253 0.0
H250 H 1.00521 0.15777 0.19405 0.0
H251 H 0.04477 0.11047 0.21104 0.0
Eu252 Eu 0.31047 0.07284 0.36604 0.0
C253 C 0.33584 0.24007 0.4461 0.0
C254 C 0.29403 0.27576 0.41516 0.0
C255 C 0.28717 0.27028 0.47431 0.0
C256 C 0.32293 0.25208 0.41616 0.0
C257 C 0.32024 0.25175 0.47559 0.0
C258 C 0.27442 0.28269 0.44427 0.0
C259 C 0.37549 0.23145 0.50508 0.0
N260 N 0.36634 0.22027 0.4465 0.0
C261 C 0.38949 0.21992 0.47524 0.0
C262 C 0.33969 0.24612 0.50533 0.0
Eu263 Eu 0.38428 0.19889 0.39407 0.0
N264 N 0.33942 0.24182 0.38805 0.0
C265 C 0.33211 0.25829 0.35855 0.0
C266 C 0.28545 0.29159 0.38492 0.0
C267 C 0.30561 0.28379 0.35653 0.0
H268 H 0.41729 0.20865 0.47534 0.0
H269 H 0.29919 0.29567 0.33289 0.0
H270 H 0.25022 0.29862 0.44386 0.0
H271 H 0.39234 0.22908 0.52784 0.0
H272 H 0.34398 0.24961 0.33623 0.0
H273 H 0.42069 1.00333 0.43042 0.0
H274 H 0.26355 0.30999 0.38325 0.0
H275 H 0.2653 0.05075 0.2896 0.0
H276 H 0.3827 0.05493 0.42385 0.0
H277 H 0.24378 0.98517 0.24778 0.0
H278 H 0.27241 0.27688 0.49636 0.0
H279 H 0.41508 0.94641 0.38597 0.0
H280 H 0.38284 0.90985 0.33053 0.0
H281 H 0.32934 0.25525 0.52851 0.0
H282 H 0.33344 0.90351 0.28157 0.0
N283 N 0.3547 0.02909 0.37524 0.0
C284 C 0.37867 0.03029 0.40394 0.0
C285 C 0.39805 0.96937 0.3827 0.0
C286 C 0.3727 0.96717 0.35372 0.0
C287 C 0.40109 1.00117 0.40788 0.0
C288 C 0.3518 0.99844 0.35037 0.0
H289 H 0.2778 0.92808 0.2522 0.0
N290 N 0.30964 0.0298 0.31808 0.0
C291 C 0.26787 0.98876 0.26813 0.0
C292 C 0.32759 0.99789 0.32144 0.0
C293 C 0.28074 0.02626 0.29162 0.0
C294 C 0.287 0.95647 0.27079 0.0
C295 C 0.3186 0.96187 0.29704 0.0
O296 O 0.2335 0.03747 0.34777 0.0
O297 O 0.31456 0.14868 0.36752 0.0
O298 O 0.34449 0.14124 0.43893 0.0
O299 O 0.31077 0.06049 0.41863 0.0
O300 O 0.25243 0.08913 0.38704 0.0
O301 O 0.25379 1.00074 0.3853 0.0
O302 O 0.45651 0.24875 0.41772 0.0
O303 O 0.38497 0.12625 0.39081 0.0
O304 O 0.35014 0.11799 0.31989 0.0
O305 O 0.38249 0.20031 0.33748 0.0
O306 O 0.44462 0.18845 0.37161 0.0
O307 O 0.43463 0.27356 0.37471 0.0
C308 C 0.27219 0.13526 0.37989 0.0
C309 C 0.17914 0.95018 0.35549 0.0
C310 C 0.0919 0.8843 0.35413 0.0
C311 C 0.12924 0.93156 0.36505 0.0
C312 C 0.10464 0.85646 0.33316 0.0
C313 C 0.19132 0.92086 0.33566 0.0
C314 C 0.15416 0.87463 0.32409 0.0
C315 C 0.32012 0.0911 0.4429 0.0
C316 C 0.21788 0.99922 0.36754 0.0
C317 C 0.33923 0.93072 0.30036 0.0
C318 C 0.36708 0.9341 0.32832 0.0
C319 C 0.42823 0.14232 0.37799 0.0
C320 C 0.48946 0.33675 0.4111 0.0
C321 C 0.53378 0.37693 0.39802 0.0
C322 C 0.55225 0.42611 0.40996 0.0
C323 C 0.52602 0.43428 0.43506 0.0
C324 C 0.46451 0.34633 0.43628 0.0
C325 C 0.4827 0.39467 0.44818 0.0
C326 C 0.37384 0.16694 0.31405 0.0
C327 C 0.4684 0.28566 0.39739 0.0
H328 H 0.11956 0.95327 0.38125 0.0
H329 H 0.07633 0.82021 0.32436 0.0
H330 H 0.22947 0.93325 0.32953 0.0
H331 H 0.16389 0.85248 0.30845 0.0
H332 H 0.55382 0.37005 0.37881 0.0
H333 H 0.53973 0.47146 0.44493 0.0
H334 H 0.43082 0.31667 0.44678 0.0
H335 H 0.46313 0.40145 0.46772 0.0
Eu336 Eu 0.84284 0.65041 0.09071 0.0
C337 C 0.69894 0.70084 0.16793 0.0
C338 C 0.62098 0.64507 0.14036 0.0
C339 C 0.61964 0.67628 0.19477 0.0
C340 C 0.6737 0.67273 0.14066 0.0
C341 C 0.67189 0.70505 0.19448 0.0
C342 C 0.59428 0.64586 0.16792 0.0
C343 C 0.74963 0.76936 0.21726 0.0
N344 N 0.74961 0.72779 0.16725 0.0
C345 C 0.77488 0.76298 0.19095 0.0
C346 C 0.69791 0.73995 0.21921 0.0
Eu347 Eu 0.78875 0.72473 0.11777 0.0
N348 N 0.70035 0.67429 0.11381 0.0
C349 C 0.67613 0.64985 0.08577 0.0
C350 C 0.59645 0.6186 0.112 0.0
C351 C 0.62425 0.62134 0.08446 0.0
H352 H 0.81441 0.788 0.18889 0.0
H353 H 0.60588 0.60103 0.0623 0.0
H354 H 0.55389 0.62459 0.16817 0.0
H355 H 0.77005 0.79725 0.23589 0.0
H356 H 0.6965 0.64931 0.06487 0.0
H357 H 0.99474 0.66708 0.1685 0.0
H358 H 0.55614 0.5966 0.11094 0.0
H359 H 0.8567 0.66337 0.00561 0.0
H360 H 0.90761 0.63385 0.15153 0.0
H361 H 0.91889 0.72292 0.96714 0.0
H362 H 0.59843 0.67831 0.21527 0.0
H363 H 0.0632 0.73196 0.13504 0.0
H364 H 0.08965 0.78787 0.08531 0.0
H365 H 0.67841 0.74487 0.23967 0.0
H366 H 0.06726 0.80873 0.03187 0.0
N367 N 0.9259 0.67964 0.1087 0.0
C368 C 0.93689 0.66195 0.13645 0.0
C369 C 0.0249 0.71693 0.12717 0.0
C370 C 1.01353 0.73321 0.09806 0.0
C371 C 0.98639 0.68045 0.14614 0.0
C372 C 0.96306 0.71202 0.08874 0.0
H373 H 1.00347 0.78398 0.98708 0.0
N374 N 0.90261 0.69545 0.04829 0.0
C375 C 0.92812 0.7243 -0.00707 0.0
C376 C 0.95077 0.72202 0.0582 0.0
C377 C 0.89255 0.69127 0.01518 0.0
C378 C 0.97572 0.75851 0.00421 0.0
C379 C 0.98852 0.75518 0.03665 0.0
O380 O 0.82697 0.59188 0.05433 0.0
O381 O 0.76981 0.64912 0.09469 0.0
O382 O 0.79325 0.68943 0.16489 0.0
O383 O 0.84017 0.65233 0.14853 0.0
O384 O 0.77494 0.59015 0.11505 0.0
O385 O 0.85137 0.58502 0.10314 0.0
O386 O 0.82857 0.80426 0.1294 0.0
O387 O 0.8606 0.71993 0.11701 0.0
O388 O 0.81373 0.67996 0.04549 0.0
O389 O 0.7749 0.7225 0.06486 0.0
O390 O 0.86798 0.78672 0.10545 0.0
O391 O 0.76495 0.77418 0.09625 0.0
C392 C 0.74472 0.60599 0.10851 0.0
C393 C 0.83366 0.5171 0.06397 0.0
C394 C 0.85245 0.44842 0.06934 0.0
C395 C 0.85923 0.49532 0.08009 0.0
C396 C 0.81982 0.42412 0.04301 0.0
C397 C 0.80183 0.49136 0.03759 0.0
C398 C 0.79492 0.44537 0.02735 0.0
C399 C 0.81813 0.66608 0.17161 0.0
C400 C 0.8377 0.56548 0.07415 0.0
C401 C 0.03812 0.78148 0.04757 0.0
C402 C 0.05083 0.76963 0.07797 0.0
C403 C 0.89289 0.76437 0.10936 0.0
C404 C 0.78661 0.84973 0.12451 0.0
C405 C 0.8187 0.90093 0.11878 0.0
C406 C 0.80661 0.93618 0.13071 0.0
C407 C 0.76359 0.91985 0.14996 0.0
C408 C 0.74304 0.83395 0.14291 0.0
C409 C 0.73203 0.86903 0.15599 0.0
C410 C 0.7896 0.70578 0.04066 0.0
C411 C 0.79979 0.81387 0.11114 0.0
H412 H 0.8842 0.51458 0.10039 0.0
H413 H 0.81384 0.38839 0.03431 0.0
H414 H 0.78155 0.50657 0.02495 0.0
H415 H 0.77003 0.42602 0.00705 0.0
H416 H 0.85242 0.91331 0.10447 0.0
H417 H 0.75433 0.94644 0.16023 0.0
H418 H 0.71757 0.79472 0.14715 0.0
H419 H 0.69873 0.85677 0.17061 0.0
Eu420 Eu 0.9615 0.25171 0.36083 0.0
C421 C 0.76863 0.09436 0.43561 0.0
C422 C 0.72623 0.02603 0.3968 0.0
C423 C 0.69974 0.0143 0.45371 0.0
C424 C 0.76213 0.0762 0.40375 0.0
C425 C 0.73739 0.06326 0.46095 0.0
C426 C 0.69489 0.99538 0.42189 0.0
C427 C 0.78178 0.13121 0.499 0.0
N428 N 0.80411 0.14267 0.44159 0.0
C429 C 0.81045 0.16141 0.47294 0.0
C430 C 0.74396 0.08252 0.49274 0.0
Eu431 Eu 0.83388 0.19328 0.39333 0.0
N432 N 0.79105 0.10737 0.37957 0.0
C433 C 0.78768 0.08991 0.34834 0.0
C434 C 0.72228 1.00835 0.36467 0.0
C435 C 0.7536 0.04043 0.34041 0.0
H436 H 0.83431 0.20074 0.4779 0.0
H437 H 0.75146 0.02735 0.31548 0.0
H438 H 0.66655 0.95708 0.41688 0.0
H439 H 0.78654 0.14663 0.5235 0.0
H440 H 0.81303 0.11329 0.32968 0.0
H441 H 0.08156 0.41269 0.44007 0.0
H442 H 0.69552 0.97001 0.3584 0.0
H443 H 0.97196 0.26421 0.27634 0.0
H444 H 0.04112 0.32547 0.42255 0.0
H445 H 0.98088 0.32613 0.23554 0.0
H446 H 0.67477 0.99039 0.47276 0.0
H447 H 0.07329 0.47489 0.40717 0.0
H448 H 0.0485 0.49658 0.35399 0.0
H449 H 0.71976 0.06021 0.51259 0.0
H450 H 0.02353 0.47316 0.29652 0.0
N451 N 1.00682 0.33624 0.37993 0.0
C452 C 0.03527 0.35114 0.40795 0.0
C453 C 0.05481 0.43627 0.39921 0.0
C454 C 0.0309 0.42217 0.36881 0.0
C455 C 0.05902 0.40105 0.41809 0.0
C456 C 1.00844 0.37151 0.35925 0.0
H457 H 1.0025 0.41076 0.25171 0.0
N458 N 0.98024 0.31107 0.31751 0.0
C459 C 0.98676 0.33619 0.26105 0.0
C460 C 0.99469 0.35848 0.32695 0.0
C461 C 0.98038 0.30084 0.2847 0.0
C462 C 0.99737 0.38361 0.2704 0.0
C463 C 1.00269 0.39572 0.30365 0.0
O464 O 1.00575 0.24098 0.32357 0.0
O465 O 0.88831 0.17859 0.36696 0.0
O466 O 0.89282 0.21719 0.43709 0.0
O467 O 0.97194 0.24798 0.41432 0.0
O468 O 0.95201 0.17667 0.3764 0.0
O469 O 0.03495 0.25964 0.37255 0.0
O470 O 0.79076 0.21965 0.42152 0.0
O471 O 0.9054 0.26916 0.38662 0.0
O472 O 0.90722 0.22881 0.31755 0.0
O473 O 0.82582 0.19538 0.33688 0.0
O474 O 0.83769 0.25995 0.37171 0.0
O475 O 0.75725 0.17204 0.37928 0.0
C476 C 0.9044 0.15003 0.37631 0.0
C477 C 0.05541 0.20643 0.34126 0.0
C478 C 0.1144 0.17597 0.34957 0.0
C479 C 0.10135 0.21361 0.35384 0.0
C480 C 0.0811 0.13151 0.33341 0.0
C481 C 0.02394 0.16176 0.32449 0.0
C482 C 0.03629 0.12453 0.32098 0.0
C483 C 0.94229 0.23495 0.43968 0.0
C484 C 0.0408 0.24572 0.34348 0.0
C485 C 1.01871 0.44463 0.31401 0.0
C486 C 0.03282 0.4579 0.34669 0.0
C487 C 0.88387 0.29229 0.37451 0.0
C488 C 0.70036 0.17172 0.41923 0.0
C489 C 0.65766 0.16811 0.40326 0.0
C490 C 0.61042 0.14481 0.41926 0.0
C491 C 0.60652 0.12418 0.45062 0.0
C492 C 0.69476 0.15306 0.45125 0.0
C493 C 0.64836 0.12868 0.46651 0.0
C494 C 0.85902 0.21136 0.3126 0.0
C495 C 0.75068 0.19631 0.40314 0.0
H496 H 0.12696 0.24818 0.36616 0.0
H497 H 0.09037 0.10235 0.32983 0.0
H498 H 0.99003 0.15589 0.31327 0.0
H499 H 1.01136 0.09044 0.30799 0.0
H500 H 0.66134 0.18423 0.37906 0.0
H501 H 0.57111 0.10622 0.46343 0.0
H502 H 0.72644 0.15813 0.4649 0.0
H503 H 0.64502 0.11415 0.49116 0.0
Eu504 Eu 0.07067 0.30529 0.62354 0.0
C505 C 0.27012 0.35646 0.55215 0.0
C506 C 0.31307 0.33023 0.59019 0.0
C507 C 0.34462 0.35505 0.53478 0.0
C508 C 0.27499 0.34143 0.58342 0.0
C509 C 0.30453 0.36255 0.52737 0.0
C510 C 0.34849 0.3383 0.56599 0.0
C511 C 0.25628 0.38104 0.48913 0.0
N512 N 0.23203 0.36534 0.54601 0.0
C513 C 0.22488 0.37771 0.51489 0.0
C514 C 0.29742 0.37546 0.49569 0.0
Eu515 Eu 0.19703 0.37866 0.59421 0.0
N516 N 0.24196 0.33679 0.60699 0.0
C517 C 0.24287 0.31731 0.63709 0.0
C518 C 0.31473 0.31159 0.62118 0.0
C519 C 0.27878 0.30414 0.64448 0.0
H520 H 0.19781 0.38923 0.51006 0.0
H521 H 0.27905 0.28889 0.66839 0.0
H522 H 0.37862 0.33097 0.57101 0.0
H523 H 0.25082 0.39146 0.46473 0.0
H524 H 0.21576 0.31086 0.65568 0.0
H525 H 1.00947 0.41199 0.54737 0.0
H526 H 0.34317 0.30223 0.62719 0.0
H527 H 0.05501 0.28443 0.70779 0.0
H528 H 0.05121 0.36517 0.55948 0.0
H529 H 0.9991 0.28463 0.74966 0.0
H530 H 0.37185 0.36038 0.51616 0.0
H531 H 0.96753 0.43106 0.59184 0.0
H532 H 0.94205 0.42213 0.6505 0.0
H533 H 0.32332 0.38087 0.4761 0.0
H534 H 0.93822 0.38659 0.70506 0.0
N535 N 0.03291 0.35439 0.60994 0.0
C536 C 0.03193 0.37079 0.57891 0.0
C537 C 0.98566 0.40962 0.5972 0.0
C538 C 0.98584 0.39254 0.62893 0.0
C539 C 1.00881 0.39859 0.57205 0.0
C540 C 1.01064 0.36523 0.63481 0.0
H541 H 0.95554 0.33205 0.74105 0.0
N542 N 0.03719 0.32395 0.67161 0.0
C543 C 1.00279 0.3034 0.72648 0.0
C544 C 1.01135 0.34815 0.66613 0.0
C545 C 0.03446 0.30334 0.70217 0.0
C546 C 0.97824 0.33006 0.72151 0.0
C547 C 0.9833 0.35389 0.69147 0.0
O548 O 0.03419 0.24458 0.65672 0.0
O549 O 0.14419 0.30558 0.61697 0.0
O550 O 0.13777 0.34096 0.54941 0.0
O551 O 0.05649 0.29361 0.57027 0.0
O552 O 0.08137 0.24432 0.59973 0.0
O553 O 0.99495 0.23969 0.61233 0.0
O554 O 0.2403 0.45052 0.5681 0.0
O555 O 0.12512 0.38096 0.60014 0.0
O556 O 0.12153 0.33876 0.66815 0.0
O557 O 0.20386 0.37908 0.65004 0.0
O558 O 0.18889 0.43653 0.62182 0.0
O559 O 0.27119 0.43596 0.61134 0.0
C560 C 0.12867 0.26373 0.60274 0.0
C561 C 0.97659 0.1627 0.64173 0.0
C562 C 0.91999 0.07487 0.62818 0.0
C563 C 0.93562 0.12608 0.62349 0.0
C564 C 0.94731 0.06119 0.64905 0.0
C565 C 0.99774 0.1462 0.66605 0.0
C566 C 0.98526 0.09658 0.66836 0.0
C567 C 0.08778 0.30979 0.54555 0.0
C568 C 0.99429 0.21734 0.63981 0.0
C569 C 0.95914 0.38126 0.68572 0.0
C570 C 0.96111 0.40125 0.65465 0.0
C571 C 0.14366 0.42319 0.61505 0.0
C572 C 0.33078 0.49374 0.57327 0.0
C573 C 0.37342 0.53024 0.59102 0.0
C574 C 0.42194 0.55271 0.57661 0.0
C575 C 0.427 0.53584 0.54556 0.0
C576 C 0.33788 0.48309 0.54099 0.0
C577 C 0.38534 0.50218 0.52773 0.0
C578 C 0.17013 0.36395 0.67371 0.0
C579 C 0.27912 0.46753 0.58773 0.0
H580 H 0.91492 0.13688 0.6072 0.0
H581 H 0.93633 0.02223 0.65246 0.0
H582 H 0.02392 0.17158 0.684 0.0
H583 H 1.00356 0.08525 0.68627 0.0
H584 H 0.36873 0.54212 0.61514 0.0
H585 H 0.46331 0.55167 0.53401 0.0
H586 H 0.30655 0.46056 0.52564 0.0
H587 H 0.38973 0.49205 0.503 0.0
Eu588 Eu 0.20168 0.83383 0.89172 0.0
C589 C 0.35154 0.9793 0.81229 0.0
C590 C 0.42274 1.01156 0.84894 0.0
C591 C 0.43348 0.99973 0.79135 0.0
C592 C 0.37129 0.99368 0.84352 0.0
C593 C 0.38255 0.98142 0.78601 0.0
C594 C 0.45361 0.01517 0.82269 0.0
C595 C 0.31142 0.94865 0.75026 0.0
N596 N 0.30206 0.96175 0.80757 0.0
C597 C 0.28328 0.95103 0.77619 0.0
C598 C 0.36132 0.96382 0.75517 0.0
Eu599 Eu 0.25299 0.95431 0.85531 0.0
N600 N 0.34001 0.987 0.86893 0.0
C601 C 0.35863 0.99561 0.90034 0.0
C602 C 0.44163 0.02344 0.88084 0.0
C603 C 0.40926 0.01506 0.90669 0.0
H604 H 0.2463 0.94411 0.77065 0.0
H605 H 0.42284 0.02157 0.93177 0.0
H606 H 0.49294 0.02862 0.82656 0.0
H607 H 0.29527 0.93758 0.72604 0.0
H608 H 0.3348 0.98507 0.92117 0.0
H609 H 0.02262 0.73097 0.82897 0.0
H610 H 0.48071 0.03709 0.88592 0.0
H611 H 0.22927 0.84148 0.97266 0.0
H612 H 0.11178 0.78955 0.8335 0.0
H613 H 0.1862 0.80214 0.02424 0.0
H614 H 0.45756 1.00166 0.77142 0.0
H615 H 0.97375 0.68948 0.87877 0.0
H616 H 0.9726 0.67452 0.93919 0.0
H617 H 0.38352 0.9635 0.73469 0.0
H618 H 1.0173 0.69289 0.99179 0.0
N619 N 0.11404 0.78757 0.88556 0.0
C620 C 0.09111 0.77477 0.8556 0.0
C621 C 1.01298 0.717 0.881 0.0
C622 C 0.03691 0.72838 0.91156 0.0
C623 C 0.04028 0.74046 0.85289 0.0
C624 C 0.08803 0.76492 0.91323 0.0
H625 H 0.09618 0.74086 0.02368 0.0
N626 N 0.16267 0.81022 0.94392 0.0
C627 C 0.16502 0.79531 0.00176 0.0
C628 C 0.11288 0.7768 0.94322 0.0
C629 C 0.18908 0.81854 0.97253 0.0
C630 C 0.11411 0.76093 0.00138 0.0
C631 C 0.0874 0.75101 0.97196 0.0
O632 O 0.22969 0.79009 0.91822 0.0
O633 O 0.27573 0.90407 0.88331 0.0
O634 O 0.2072 0.89667 0.8168 0.0
O635 O 0.19905 0.82256 0.83515 0.0
O636 O 0.26541 0.83705 0.86491 0.0
O637 O 0.18038 0.75782 0.8767 0.0
O638 O 0.24937 1.0034 0.81666 0.0
O639 O 0.17969 0.88267 0.86482 0.0
O640 O 0.22961 0.90041 0.93323 0.0
O641 O 0.25169 0.9748 0.9065 0.0
O642 O 0.18293 0.94787 0.87816 0.0
O643 O 0.26015 0.02658 0.86774 0.0
C644 C 0.29789 0.88249 0.87036 0.0
C645 C 0.18224 0.69944 0.91376 0.0
C646 C 0.15957 0.61037 0.91126 0.0
C647 C 0.18586 0.65987 0.89839 0.0
C648 C 0.12913 0.60144 0.93896 0.0
C649 C 0.15359 0.68883 0.94231 0.0
C650 C 0.12677 0.64034 0.95451 0.0
C651 C 0.20171 0.85231 0.81079 0.0
C652 C 0.20618 0.75075 0.89919 0.0
C653 C 0.03699 0.71385 0.97012 0.0
C654 C 1.01161 0.70313 0.94014 0.0
C655 C 0.15393 0.90042 0.87677 0.0
C656 C 0.25099 0.08226 0.82978 0.0
C657 C 0.22383 0.09951 0.84867 0.0
C658 C 0.22275 0.14322 0.83893 0.0
C659 C 0.24934 0.16891 0.81072 0.0
C660 C 0.27632 0.10889 0.80167 0.0
C661 C 0.27567 0.15184 0.7923 0.0
C662 C 0.24535 0.95046 0.93361 0.0
C663 C 0.25299 0.03637 0.83802 0.0
H664 H 0.20909 0.66757 0.87682 0.0
H665 H 0.10833 0.56425 0.94933 0.0
H666 H 0.15188 0.71805 0.95532 0.0
H667 H 0.10431 0.63291 0.97641 0.0
H668 H 0.20288 0.07865 0.87003 0.0
H669 H 0.24881 0.20199 0.80247 0.0
H670 H 0.29714 0.09661 0.78701 0.0
H671 H 0.29544 0.17185 0.77042 0.0
Eu672 Eu 0.72591 0.77957 0.62263 0.0
C673 C 0.71673 0.93465 0.55487 0.0
C674 C 0.74067 1.00137 0.5944 0.0
C675 C 0.77567 0.02042 0.53958 0.0
C676 C 0.71488 0.95002 0.58639 0.0
C677 C 0.74479 0.97024 0.53067 0.0
C678 C 0.77288 0.03623 0.57131 0.0
C679 C 0.70473 0.90564 0.48987 0.0
N680 N 0.68806 0.88557 0.54723 0.0
C681 C 0.67795 0.87166 0.51488 0.0
C682 C 0.74002 0.95461 0.49811 0.0
Eu683 Eu 0.65088 0.8299 0.5925 0.0
N684 N 0.68485 0.91521 0.60849 0.0
C685 C 0.67139 0.93029 0.6364 0.0
C686 C 0.73211 0.0162 0.62498 0.0
C687 C 0.69595 0.98058 0.64561 0.0
H688 H 0.65046 0.83382 0.50822 0.0
H689 H 0.68675 0.99176 0.66856 0.0
H690 H 0.79456 0.07555 0.57739 0.0
H691 H 0.69845 0.89397 0.46439 0.0
H692 H 0.64213 0.90387 0.65224 0.0
H693 H 0.60681 0.59459 0.56692 0.0
H694 H 0.75125 0.05518 0.63213 0.0
H695 H 0.7714 0.80804 0.69913 0.0
H696 H 0.64925 0.68527 0.57002 0.0
H697 H 0.78688 0.76586 0.74546 0.0
H698 H 0.8002 0.04759 0.52175 0.0
H699 H 0.60901 0.54603 0.61448 0.0
H700 H 0.6384 0.54537 0.6716 0.0
H701 H 0.76119 0.98116 0.47922 0.0
H702 H 0.68729 0.59167 0.71998 0.0
N703 N 0.67923 0.69064 0.6177 0.0
C704 C 0.65327 0.66563 0.59024 0.0
C705 C 0.62879 0.58645 0.61567 0.0
C706 C 0.6549 0.61175 0.64394 0.0
C707 C 0.62778 0.61362 0.58874 0.0
C708 C 0.67953 0.66452 0.64443 0.0
H709 H 0.74493 0.67364 0.74687 0.0
N710 N 0.7256 0.74092 0.67292 0.0
C711 C 0.76319 0.74412 0.72525 0.0
C712 C 0.70443 0.69042 0.67248 0.0
C713 C 0.75466 0.7679 0.69888 0.0
C714 C 0.73953 0.6921 0.72593 0.0
C715 C 0.7091 0.66453 0.6996 0.0
O716 O 0.80016 0.83095 0.63885 0.0
O717 O 0.72228 0.85103 0.61687 0.0
O718 O 0.68572 0.80288 0.54851 0.0
O719 O 0.72509 0.76136 0.57013 0.0
O720 O 0.77866 0.84759 0.59269 0.0
O721 O 0.78799 0.76257 0.61564 0.0
O722 O 0.58785 0.80644 0.55839 0.0
O723 O 0.64999 0.75722 0.59936 0.0
O724 O 0.69093 0.79174 0.6687 0.0
O725 O 0.65006 0.8329 0.64941 0.0
O726 O 0.5923 0.76315 0.6195 0.0
O727 O 0.59 0.84518 0.6035 0.0
C728 C 0.76215 0.87674 0.60084 0.0
C729 C 0.8687 0.81801 0.64328 0.0
C730 C 0.95625 0.84043 0.63751 0.0
C731 C 0.90723 0.81783 0.62467 0.0
C732 C 0.96591 0.86237 0.66889 0.0
C733 C 0.87994 0.83967 0.67485 0.0
C734 C 0.92794 0.86132 0.68752 0.0
C735 C 0.71066 0.77725 0.5449 0.0
C736 C 0.82058 0.80609 0.62782 0.0
C737 C 0.68472 0.61216 0.69917 0.0
C738 C 0.65712 0.58581 0.67158 0.0
C739 C 0.60744 0.73219 0.61358 0.0
C740 C 0.51731 0.82043 0.56795 0.0
C741 C 0.49655 0.84507 0.58608 0.0
C742 C 0.44991 0.83975 0.57676 0.0
C743 C 0.42447 0.80924 0.54979 0.0
C744 C 0.49081 0.79082 0.54091 0.0
C745 C 0.44475 0.78507 0.53209 0.0
C746 C 0.66494 0.81453 0.67373 0.0
C747 C 0.56567 0.82388 0.57685 0.0
H748 H 0.8996 0.80169 0.60024 0.0
H749 H 1.0031 0.87957 0.67932 0.0
H750 H 0.85241 0.84251 0.68938 0.0
H751 H 0.93594 0.87826 0.71168 0.0
H752 H 0.51663 0.86869 0.60677 0.0
H753 H 0.38896 0.80477 0.54205 0.0
H754 H 0.50563 0.77174 0.52652 0.0
H755 H 0.42477 0.76197 0.51122 0.0
Eu756 Eu 0.2076 0.37614 0.89399 0.0
C757 C 0.05695 0.38894 0.81936 0.0
C758 C 0.02712 0.4264 0.85907 0.0
C759 C 0.02843 0.44591 0.80142 0.0
C760 C 0.04586 0.39401 0.85157 0.0
C761 C 0.05067 0.41716 0.79428 0.0
C762 C 1.01621 0.45013 0.83374 0.0
C763 C 0.09165 0.38952 0.7568 0.0
N764 N 0.0778 0.36019 0.81277 0.0
C765 C 0.09106 0.35729 0.78103 0.0
C766 C 0.06991 0.41845 0.76311 0.0
Eu767 Eu 0.08512 0.3142 0.85805 0.0
N768 N 0.05918 0.37267 0.87579 0.0
C769 C 0.06016 0.38795 0.90762 0.0
C770 C 0.02349 0.43734 0.89185 0.0
C771 C 0.04162 0.41927 0.91616 0.0
H772 H 0.10023 0.3295 0.7735 0.0
H773 H 0.04227 0.43011 0.94154 0.0
H774 H 1.00128 0.47442 0.83914 0.0
H775 H 0.10569 0.38944 0.73249 0.0
H776 H 0.07652 0.37759 0.92701 0.0
H777 H 0.30223 0.29448 0.82688 0.0
H778 H 1.0099 0.46237 0.89847 0.0
H779 H 0.19998 0.3904 0.97605 0.0
H780 H 0.24268 0.32336 0.83416 0.0
H781 H 0.24753 0.39337 0.02517 0.0
H782 H 0.02257 0.46684 0.78229 0.0
H783 H 0.35347 0.29622 0.87399 0.0
H784 H 0.37863 0.31942 0.93262 0.0
H785 H 0.06781 0.44131 0.74367 0.0
H786 H 0.36496 0.34787 0.9859 0.0
N787 N 0.2523 0.33348 0.88555 0.0
C788 C 0.26111 0.3205 0.8553 0.0
C789 C 0.325 0.30636 0.87759 0.0
C790 C 0.3176 0.32179 0.90834 0.0
C791 C 0.29615 0.3052 0.851 0.0
C792 C 0.27935 0.3337 0.91192 0.0
H793 H 0.31512 0.37333 0.02083 0.0
N794 N 0.23361 0.35985 0.94502 0.0
C795 C 0.25391 0.37999 0.00212 0.0
C796 C 0.2703 0.348 0.94235 0.0
C797 C 0.2258 0.3766 0.97435 0.0
C798 C 0.29221 0.36893 -0.00047 0.0
C799 C 0.30105 0.35302 0.96943 0.0
O800 O 0.24759 0.44558 0.92167 0.0
O801 O 0.14106 0.38566 0.88499 0.0
O802 O 0.14033 0.32335 0.81871 0.0
O803 O 0.21805 0.38394 0.83743 0.0
O804 O 0.20932 0.44046 0.86761 0.0
O805 O 0.28836 0.42936 0.88445 0.0
O806 O 0.03169 0.26668 0.82024 0.0
O807 O 0.15406 0.30699 0.86719 0.0
O808 O 0.14126 0.33526 0.93555 0.0
O809 O 0.06461 0.29438 0.90882 0.0
O810 O 0.08727 0.24594 0.87775 0.0
O811 O 1.01039 0.25161 0.87059 0.0
C812 C 0.16417 0.42952 0.87215 0.0
C813 C 0.33572 0.50971 0.91535 0.0
C814 C 0.42445 0.57651 0.90972 0.0
C815 C 0.38355 0.52905 0.9 0.0
C816 C 0.41651 0.60336 0.93445 0.0
C817 C 0.33041 0.53849 0.94007 0.0
C818 C 0.3702 0.58456 0.94941 0.0
C819 C 0.18656 0.35902 0.81312 0.0
C820 C 0.2901 0.46069 0.90668 0.0
C821 C 0.34057 0.34347 0.96548 0.0
C822 C 0.34837 0.32726 0.93515 0.0
C823 C 0.13445 0.2625 0.87778 0.0
C824 C 0.97893 0.18009 0.83509 0.0
C825 C 0.93984 0.14113 0.85417 0.0
C826 C 0.92469 0.08986 0.84804 0.0
C827 C 0.95095 0.07923 0.82422 0.0
C828 C 0.99921 0.16607 0.80911 0.0
C829 C 0.9868 0.11665 0.80458 0.0
C830 C 0.09024 0.30595 0.93574 0.0
C831 C 0.9985 0.2351 0.84077 0.0
H832 H 0.38893 0.50772 0.88097 0.0
H833 H 0.4467 0.63935 0.94239 0.0
H834 H 0.29505 0.52548 0.95241 0.0
H835 H 0.36507 0.60595 0.96851 0.0
H836 H 0.9208 0.15042 0.87277 0.0
H837 H 0.94123 0.04095 0.81925 0.0
H838 H 0.02549 0.19357 0.79216 0.0
H839 H 1.00437 0.1071 0.78511 0.0
Eu840 Eu 0.25779 0.96243 0.61969 0.0
C841 C 0.09986 0.7842 0.55179 0.0
C842 C 0.0366 0.73256 0.59122 0.0
C843 C 1.01215 0.74715 0.53766 0.0
C844 C 0.08711 0.76518 0.58312 0.0
C845 C 0.06245 0.77295 0.52825 0.0
C846 C 0.9991 0.7259 0.56899 0.0
C847 C 0.12589 0.80263 0.48633 0.0
N848 N 0.14863 0.80796 0.54324 0.0
C849 C 0.1616 0.81266 0.51068 0.0
C850 C 0.07637 0.78458 0.49551 0.0
Eu851 Eu 0.2068 0.83396 0.58745 0.0
N852 N 0.12424 0.77414 0.60448 0.0
C853 C 0.11355 0.74615 0.63262 0.0
C854 C 0.02547 0.70618 0.62079 0.0
C855 C 0.06423 0.71218 0.64123 0.0
H856 H 0.20008 0.82686 0.50364 0.0
H857 H 0.05616 0.69121 0.6639 0.0
H858 H 0.96006 0.70274 0.57525 0.0
H859 H 0.13647 0.80871 0.46066 0.0
H860 H 0.14263 0.75005 0.64908 0.0
H861 H 0.45186 0.06836 0.57742 0.0
H862 H 0.98724 0.68028 0.62768 0.0
H863 H 0.21599 0.99192 0.6865 0.0
H864 H 0.36141 0.02734 0.57174 0.0
H865 H 0.2469 0.03277 0.74038 0.0
H866 H 0.9831 0.74072 0.52023 0.0
H867 H 0.49009 0.08723 0.63272 0.0
H868 H 0.47844 0.09444 0.6931 0.0
H869 H 0.04814 0.77586 0.47728 0.0
H870 H 0.42216 0.08908 0.73755 0.0
N871 N 0.34653 1.0122 0.62295 0.0
C872 C 0.37662 0.03059 0.59596 0.0
C873 C 0.44986 0.0664 0.63029 0.0
C874 C 0.41896 0.05497 0.65775 0.0
C875 C 0.42849 0.05583 0.59909 0.0
C876 C 0.36674 0.02763 0.65315 0.0
H877 H 0.33656 0.06892 0.75451 0.0
N878 N 0.28587 1.00128 0.67166 0.0
C879 C 0.27216 0.03011 0.72324 0.0
C880 C 0.3353 0.02352 0.67825 0.0
C881 C 0.25454 1.00613 0.69299 0.0
C882 C 0.3226 0.05071 0.73109 0.0
C883 C 0.355 0.04821 0.70832 0.0
O884 O 0.21306 0.99926 0.61938 0.0
O885 O 0.19026 0.89286 0.60085 0.0
O886 O 0.21527 0.89136 0.54591 0.0
O887 O 0.28021 0.96308 0.56735 0.0
O888 O 0.17733 0.93413 0.63447 0.0
O889 O 0.27905 0.02933 0.58979 0.0
O890 O 0.23527 0.79452 0.5587 0.0
O891 O 0.27508 0.89872 0.61064 0.0
O892 O 0.24707 0.91818 0.66626 0.0
O893 O 0.20472 0.83619 0.6454 0.0
O894 O 0.28454 0.86949 0.56728 0.0
O895 O 0.20643 0.76625 0.60693 0.0
C896 C 0.15617 0.89312 0.61811 0.0
C897 C 0.25499 0.08563 0.61123 0.0
C898 C 0.23342 0.15156 0.61569 0.0
C899 C 0.22369 0.10507 0.60297 0.0
C900 C 0.27423 0.17781 0.63684 0.0
C901 C 0.29576 0.11284 0.63222 0.0
C902 C 0.30528 0.1587 0.64487 0.0
C903 C 0.25102 0.93917 0.54268 0.0
C904 C 0.24266 0.03538 0.60015 0.0
C905 C 0.40654 0.07137 0.71416 0.0
C906 C 0.43853 0.07417 0.68894 0.0
C907 C 0.30813 0.89944 0.5912 0.0
C908 C 0.21182 0.70851 0.56759 0.0
C909 C 0.1865 0.66298 0.5861 0.0
C910 C 0.18428 0.61817 0.57418 0.0
C911 C 0.20816 0.62097 0.5441 0.0
C912 C 0.23195 0.70733 0.53686 0.0
C913 C 0.23021 0.66428 0.52541 0.0
C914 C 0.22134 0.86906 0.6705 0.0
C915 C 0.22539 0.75956 0.58024 0.0
H916 H 0.19145 0.0838 0.58734 0.0
H917 H 0.28161 0.2128 0.64759 0.0
H918 H 0.31977 0.09824 0.63923 0.0
H919 H 0.33647 0.17922 0.66136 0.0
H920 H 0.16952 0.66265 0.60942 0.0
H921 H 0.20905 0.58876 0.53444 0.0
H922 H 0.25139 0.74068 0.52194 0.0
H923 H 0.24713 0.66477 0.50203 0.0
Eu924 Eu 0.65639 0.83372 0.89543 0.0
C925 C 0.65905 0.68612 0.82029 0.0
C926 C 0.63855 0.61767 0.8576 0.0
C927 C 0.59505 0.60174 0.80547 0.0
C928 C 0.66516 0.66922 0.85033 0.0
C929 C 0.62555 0.6521 0.79691 0.0
C930 C 0.60151 0.58451 0.83587 0.0
C931 C 0.66037 0.71801 0.75687 0.0
N932 N 0.68948 0.73491 0.81272 0.0
C933 C 0.69316 0.75021 0.78076 0.0
C934 C 0.62538 0.66917 0.76516 0.0
Eu935 Eu 0.73157 0.78885 0.85813 0.0
N936 N 0.70137 0.70231 0.87066 0.0
C937 C 0.7197 0.68463 0.89471 0.0
C938 C 0.65215 0.60064 0.88539 0.0
C939 C 0.69425 0.63402 0.90326 0.0
H940 H 0.72081 0.78759 0.77342 0.0
H941 H 0.70714 0.62087 0.92361 0.0
H942 H 0.5797 0.54504 0.84149 0.0
H943 H 0.66268 0.73059 0.73183 0.0
H944 H 0.75317 0.70947 0.90823 0.0
H945 H 0.69151 0.98712 0.81271 0.0
H946 H 0.63248 0.56143 0.89197 0.0
H947 H 0.66427 0.84258 0.97966 0.0
H948 H 0.65071 0.90041 0.83155 0.0
H949 H 0.7137 0.90608 0.02137 0.0
H950 H 0.56826 0.57539 0.78811 0.0
H951 H 0.75253 0.0548 0.84856 0.0
H952 H 0.79521 0.08064 0.90339 0.0
H953 H 0.60047 0.64429 0.74641 0.0
H954 H 0.8038 0.05759 0.95985 0.0
N955 N 0.69215 0.91698 0.87622 0.0
C956 C 0.67882 0.92876 0.84699 0.0
C957 C 0.73511 0.01637 0.8568 0.0
C958 C 0.74415 1.00452 0.88826 0.0
C959 C 0.70102 0.97834 0.83645 0.0
C960 C 0.72042 0.95381 0.89779 0.0
H961 H 0.77057 0.99357 0.0042 0.0
N962 N 0.69724 0.89226 0.93896 0.0
C963 C 0.71773 0.91618 -0.00439 0.0
C964 C 0.72352 0.94105 0.92992 0.0
C965 C 0.69046 0.8802 0.97175 0.0
C966 C 0.74962 0.9654 0.98599 0.0
C967 C 0.75131 0.97877 0.9531 0.0
O968 O 0.60573 0.84727 0.92547 0.0
O969 O 0.6511 0.76452 0.87335 0.0
O970 O 0.7116 0.82922 0.81946 0.0
O971 O 0.63749 0.81884 0.8396 0.0
O972 O 0.614 0.75651 0.91738 0.0
O973 O 0.58629 0.82551 0.87508 0.0
O974 O 0.78606 0.79836 0.81979 0.0
O975 O 0.72899 0.86015 0.86905 0.0
O976 O 0.693 0.80945 0.9378 0.0
O977 O 0.73052 0.77085 0.91093 0.0
O978 O 0.79026 0.85784 0.88502 0.0
O979 O 0.80686 0.80633 0.87097 0.0
C980 C 0.6216 0.7321 0.89438 0.0
C981 C 0.52275 0.82505 0.90971 0.0
C982 C 0.45105 0.83891 0.90688 0.0
C983 C 0.50021 0.85215 0.89755 0.0
C984 C 0.42554 0.79893 0.92889 0.0
C985 C 0.49612 0.78534 0.9315 0.0
C986 C 0.44789 0.77253 0.94105 0.0
C987 C 0.66777 0.82564 0.81447 0.0
C988 C 0.57529 0.84121 0.90164 0.0
C989 C 0.77957 0.02865 0.94282 0.0
C990 C 0.77519 0.0417 0.9106 0.0
C991 C 0.77166 0.88653 0.88245 0.0
C992 C 0.85861 0.7926 0.8352 0.0
C993 C 0.90683 0.8203 0.84924 0.0
C994 C 0.94355 0.80707 0.84295 0.0
C995 C 0.9313 0.76568 0.8228 0.0
C996 C 0.84725 0.75117 0.81542 0.0
C997 C 0.88349 0.73785 0.80934 0.0
C998 C 0.7188 0.78515 0.9379 0.0
C999 C 0.82176 0.80887 0.84093 0.0
H1000 H 0.52084 0.88347 0.88111 0.0
H1001 H 0.38803 0.78807 0.9367 0.0
H1002 H 0.51292 0.76469 0.94147 0.0
H1003 H 0.42772 0.74204 0.95811 0.0
H1004 H 0.91618 0.85277 0.86429 0.0
H1005 H 0.95906 0.75533 0.81709 0.0
H1006 H 0.81061 0.7294 0.80448 0.0
H1007 H 0.87468 0.70614 0.79374 0.0
C1008 C 0.17 0.16015 0.10315 0.0
C1009 C 0.17041 0.18162 0.13408 0.0
C1010 C 0.24204 0.17407 0.15136 0.0
C1011 C 0.24369 0.15455 0.12002 0.0
N1012 N 0.21462 0.13776 0.06386 0.0
N1013 N 0.21689 0.22478 0.18223 0.0
C1014 C 0.20937 0.15052 0.09516 0.0
C1015 C 0.21045 0.19448 0.15606 0.0
N1016 N 0.13076 0.14641 0.08221 0.0
N1017 N 0.26719 0.16966 0.17753 0.0
H1018 H 0.194 0.24021 0.18599 0.0
H1019 H 0.24783 0.23871 0.19773 0.0
H1020 H 0.2862 0.14996 0.17647 0.0
H1021 H 0.26375 0.17988 0.20137 0.0
H1022 H 0.12515 0.12515 0.06112 0.0
H1023 H 0.10222 0.15414 0.08683 0.0
H1024 H 0.19432 0.1393 0.04392 0.0
H1025 H 0.24279 0.13037 0.05717 0.0
C1026 C 1.00427 0.86617 0.34588 0.0
C1027 C 0.03945 0.86184 0.36555 0.0
C1028 C 0.97218 0.80341 0.40181 0.0
C1029 C 0.93643 0.79894 0.3783 0.0
N1030 N 0.91853 0.82957 0.32832 0.0
N1031 N 0.05786 0.82567 0.41177 0.0
C1032 C 0.95252 0.83189 0.35062 0.0
C1033 C 0.02372 0.8308 0.39363 0.0
N1034 N 0.02058 0.90315 0.32276 0.0
N1035 N 0.95718 0.78306 0.43234 0.0
H1036 H 0.09627 0.84703 0.40803 0.0
H1037 H 0.04716 0.7967 0.42832 0.0
H1038 H 0.91972 0.76311 0.43916 0.0
H1039 H 0.98206 0.78913 0.45143 0.0
H1040 H 0.99722 0.91205 0.30963 0.0
H1041 H 0.05836 0.92829 0.31883 0.0
H1042 H 0.92769 0.84961 0.30643 0.0
H1043 H 0.88099 0.80342 0.32995 0.0
C1044 C 0.88062 0.07551 0.14534 0.0
C1045 C 0.88315 0.09471 0.11306 0.0
C1046 C 0.84117 1.00906 0.09112 0.0
C1047 C 0.83849 0.99047 0.12343 0.0
N1048 N 0.87031 1.00597 0.17869 0.0
N1049 N 0.87689 0.08091 0.05447 0.0
C1050 C 0.86307 0.02381 0.14968 0.0
C1051 C 0.86744 0.06176 0.08562 0.0
N1052 N 0.89183 0.10578 0.17221 0.0
N1053 N 0.81732 0.97639 0.06596 0.0
H1054 H 0.89526 0.11907 0.04973 0.0
H1055 H 0.86998 0.05974 0.03323 0.0
H1056 H 0.79551 0.93791 0.06916 0.0
H1057 H 0.81748 0.98706 0.04183 0.0
H1058 H 0.8859 0.09268 0.1963 0.0
H1059 H 0.90093 0.1429 0.17071 0.0
H1060 H 0.89268 0.02898 0.19762 0.0
H1061 H 0.85838 0.96824 0.18241 0.0
C1062 C 0.23014 0.16706 0.34035 0.0
C1063 C 0.23859 0.15639 0.37303 0.0
C1064 C 0.16964 0.16856 0.39226 0.0
C1065 C 0.16328 0.18138 0.35989 0.0
N1066 N 0.19641 0.20686 0.30551 0.0
N1067 N 0.22156 0.15535 0.43095 0.0
C1068 C 0.19692 0.18563 0.33485 0.0
C1069 C 0.20979 0.15971 0.39924 0.0
N1070 N 0.25113 0.15666 0.31424 0.0
N1071 N 0.13598 0.16271 0.41601 0.0
H1072 H 0.25192 0.15108 0.43682 0.0
H1073 H 0.20527 0.16165 0.45138 0.0
H1074 H 0.10771 0.17114 0.41203 0.0
H1075 H 0.1344 0.14724 0.43902 0.0
H1076 H 0.24248 0.15951 0.28987 0.0
H1077 H 0.27313 0.1402 0.31665 0.0
H1078 H 0.22309 0.21541 0.28727 0.0
H1079 H 0.17239 0.22076 0.30103 0.0
C1080 C 0.02457 0.82316 0.15055 0.0
C1081 C 0.04944 0.86925 0.13385 0.0
C1082 C 0.97885 0.83685 0.09489 0.0
C1083 C 0.94929 0.79512 0.11586 0.0
N1084 N 0.94679 0.754 0.1671 0.0
N1085 N 0.04958 0.92119 0.08979 0.0
C1086 C 0.9731 0.78967 0.1445 0.0
C1087 C 0.02677 0.87621 0.10556 0.0
N1088 N 0.05041 0.81176 0.17291 0.0
N1089 N 0.9613 0.83861 0.06444 0.0
H1090 H 0.08479 0.9501 0.0965 0.0
H1091 H 0.03238 0.93078 0.07145 0.0
H1092 H 0.92729 0.81016 0.05572 0.0
H1093 H 0.98263 0.86503 0.0467 0.0
H1094 H 0.03566 0.77726 0.18459 0.0
H1095 H 0.0885 0.83515 0.17711 0.0
H1096 H 0.95994 0.75317 0.19056 0.0
H1097 H 0.91101 0.72634 0.16266 0.0
C1098 C 0.83263 1.00685 0.38749 0.0
C1099 C 0.83725 0.99078 0.35566 0.0
C1100 C 0.8831 0.07803 0.33741 0.0
C1101 C 0.88054 0.09486 0.36954 0.0
N1102 N 0.8606 0.07502 0.42679 0.0
N1103 N 0.88072 1.01199 0.30407 0.0
C1104 C 0.8583 0.05912 0.39521 0.0
C1105 C 0.86709 0.0268 0.33191 0.0
N1106 N 0.80126 0.97253 0.40971 0.0
N1107 N 0.89768 0.11024 0.31146 0.0
H1108 H 0.87035 0.97475 0.29971 0.0
H1109 H 0.90654 0.03714 0.28733 0.0
H1110 H 0.90959 0.14803 0.31407 0.0
H1111 H 0.89444 0.09863 0.28708 0.0
H1112 H 0.79126 0.98254 0.43145 0.0
H1113 H 0.78222 0.93417 0.40533 0.0
H1114 H 0.84983 0.05131 0.44708 0.0
H1115 H 0.87521 0.11257 0.43272 0.0
C1116 C 0.1651 0.16752 0.6333 0.0
C1117 C 0.19976 0.17234 0.60908 0.0
C1118 C 0.17916 0.22734 0.57695 0.0
C1119 C 0.15203 0.2306 0.60411 0.0
N1120 N 0.11144 0.1957 0.65558 0.0
N1121 N 0.23622 0.20109 0.5561 0.0
C1122 C 0.14248 0.19785 0.63137 0.0
C1123 C 0.2052 0.20009 0.58017 0.0
N1124 N 0.15284 0.13262 0.6576 0.0
N1125 N 0.17914 0.2495 0.54796 0.0
H1126 H 0.25505 0.18105 0.55739 0.0
H1127 H 0.244 0.22225 0.53504 0.0
H1128 H 0.16257 0.27143 0.54554 0.0
H1129 H 0.19288 0.24431 0.52591 0.0
H1130 H 0.12461 0.1231 0.67472 0.0
H1131 H 0.16853 0.10965 0.65919 0.0
H1132 H 0.10661 0.17774 0.678 0.0
H1133 H 0.09194 0.2146 0.6536 0.0
C1134 C 0.08425 0.89336 0.83973 0.0
C1135 C 0.09946 0.88074 0.8697 0.0
C1136 C 1.01134 0.8292 0.88574 0.0
C1137 C 0.99634 0.83824 0.85473 0.0
N1138 N 1.01688 0.89056 0.80699 0.0
N1139 N 0.07794 0.85541 0.92597 0.0
C1140 C 0.03244 0.87416 0.83324 0.0
C1141 C 0.06307 0.85448 0.89426 0.0
N1142 N 0.11925 0.92359 0.81734 0.0
N1143 N 0.97629 0.7954 0.90669 0.0
H1144 H 0.11542 0.87388 0.93288 0.0
H1145 H 0.05327 0.84138 0.94565 0.0
H1146 H 0.93815 0.77747 0.90165 0.0
H1147 H 0.98525 0.78323 0.92811 0.0
H1148 H 0.11109 0.93081 0.79387 0.0
H1149 H 0.15729 0.93981 0.82132 0.0
H1150 H 0.04052 0.92026 0.79196 0.0
H1151 H 0.9793 0.87722 0.80183 0.0
C1152 C 0.80766 0.95272 0.63772 0.0
C1153 C 0.7988 0.93134 0.60591 0.0
C1154 C 0.86788 1.01171 0.58524 0.0
C1155 C 0.87147 0.03315 0.61651 0.0
N1156 N 0.83477 0.02773 0.66945 0.0
N1157 N 0.82196 0.94131 0.5487 0.0
C1158 C 0.83695 1.00495 0.64129 0.0
C1159 C 0.82943 0.96132 0.57938 0.0
N1160 N 0.79505 0.92352 0.66507 0.0
N1161 N 0.90238 0.03896 0.56176 0.0
H1162 H 0.79442 0.90483 0.54425 0.0
H1163 H 0.83954 0.96139 0.52759 0.0
H1164 H 0.92903 0.07649 0.56521 0.0
H1165 H 0.90583 0.02444 0.53949 0.0
H1166 H 0.80871 0.93833 0.68833 0.0
H1167 H 0.77458 0.88478 0.66453 0.0
H1168 H 0.80831 1.00866 0.6877 0.0
H1169 H 0.85626 0.06634 0.67276 0.0
C1170 C 0.13747 0.19681 0.84149 0.0
C1171 C 0.15308 0.22658 0.87056 0.0
C1172 C 0.20495 0.18926 0.88458 0.0
C1173 C 0.19087 0.16154 0.85487 0.0
N1174 N 0.12901 0.12415 0.81261 0.0
N1175 N 0.18455 0.23362 0.92548 0.0
C1176 C 0.15203 0.16039 0.83595 0.0
C1177 C 0.18134 0.21717 0.89401 0.0
N1178 N 0.11044 0.20454 0.81823 0.0
N1179 N 0.2423 0.19095 0.90316 0.0
H1180 H 0.16805 0.25429 0.9329 0.0
H1181 H 0.19947 0.22273 0.94452 0.0
H1182 H 0.25986 0.1706 0.89743 0.0
H1183 H 0.25722 0.21498 0.92305 0.0
H1184 H 0.10285 0.18787 0.7951 0.0
H1185 H 0.10019 0.23163 0.82057 0.0
H1186 H 0.09696 0.11784 0.80014 0.0
H1187 H 0.13888 0.09686 0.80853 0.0
C1188 C 0.0695 0.83073 0.63863 0.0
C1189 C 0.10027 0.86512 0.61397 0.0
C1190 C 0.02767 0.87289 0.59666 0.0
C1191 C 0.99826 0.83805 0.62125 0.0
N1192 N 0.98612 0.77202 0.65754 0.0
N1193 N 0.10656 0.91573 0.56731 0.0
C1194 C 1.01754 0.81232 0.6388 0.0
C1195 C 0.07814 0.88412 0.59171 0.0
N1196 N 0.0901 0.81823 0.66367 0.0
N1197 N 1.00861 0.89796 0.57999 0.0
H1198 H 0.14455 0.92837 0.56545 0.0
H1199 H 0.0923 0.92745 0.54831 0.0
H1200 H 0.9717 0.88944 0.58277 0.0
H1201 H 0.02937 0.92808 0.56444 0.0
H1202 H 0.07103 0.80018 0.68503 0.0
H1203 H 0.12704 0.82786 0.66339 0.0
H1204 H 0.99743 0.75024 0.6704 0.0
H1205 H 0.94761 0.75784 0.65767 0.0
C1206 C 0.84326 1.01262 0.83808 0.0
C1207 C 0.87821 0.04484 0.86161 0.0
C1208 C 0.83832 0.97498 0.90168 0.0
C1209 C 0.80761 0.94186 0.8762 0.0
N1210 N 0.81035 0.92933 0.81818 0.0
N1211 N 0.91122 0.05531 0.91633 0.0
C1212 C 0.81715 0.96049 0.84371 0.0
C1213 C 0.87616 0.02571 0.8938 0.0
N1214 N 0.83803 0.03134 0.80896 0.0
N1215 N 0.83194 0.95769 0.93317 0.0
H1216 H 0.93766 0.09241 0.91135 0.0
H1217 H 0.9155 0.0429 0.93922 0.0
H1218 H 0.80429 0.92169 0.93945 0.0
H1219 H 0.85044 0.9799 0.95338 0.0
H1220 H 0.81183 1.00887 0.79144 0.0
H1221 H 0.85653 0.06964 0.8041 0.0
H1222 H 0.82361 0.94287 0.79464 0.0
H1223 H 0.79893 0.89179 0.82165 0.0
C1224 C 0.41615 0.16298 0.26164 0.0
C1225 C 0.39204 0.18444 0.27926 0.0
C1226 C 0.38547 0.22299 0.22783 0.0
C1227 C 0.39903 0.19239 0.20972 0.0
N1228 N 0.45502 0.16042 0.2104 0.0
N1229 N 0.38913 0.26078 0.28058 0.0
C1230 C 0.42269 0.17018 0.22703 0.0
C1231 C 0.38608 0.2219 0.263 0.0
N1232 N 0.43612 0.13917 0.27856 0.0
N1233 N 0.3767 0.25631 0.21179 0.0
H1234 H 0.40548 0.26925 0.30376 0.0
H1235 H 0.3857 0.28981 0.2704 0.0
H1236 H 0.39286 0.27 0.18904 0.0
H1237 H 0.35832 0.27335 0.22232 0.0
H1238 H 0.44987 0.11801 0.26771 0.0
H1239 H 0.44033 0.14291 0.30393 0.0
H1240 H 0.47546 0.14568 0.22101 0.0
H1241 H 0.46555 0.17337 0.1864 0.0
C1242 C 0.81054 0.62014 0.26052 0.0
C1243 C 0.83822 0.66637 0.2777 0.0
C1244 C 0.85647 0.71105 0.22503 0.0
C1245 C 0.82973 0.66515 0.2075 0.0
N1246 N 0.79109 0.5756 0.20826 0.0
N1247 N 0.90243 0.75269 0.27389 0.0
C1248 C 0.81044 0.61954 0.22515 0.0
C1249 C 0.86597 0.71063 0.25908 0.0
N1250 N 0.78172 0.57716 0.27764 0.0
N1251 N 0.87194 0.75574 0.20968 0.0
H1252 H 0.91121 0.75352 0.29857 0.0
H1253 H 0.92761 0.78458 0.261 0.0
H1254 H 0.88518 0.78931 0.22239 0.0
H1255 H 0.86864 0.75946 0.18454 0.0
H1256 H 0.7558 0.54376 0.26657 0.0
H1257 H 0.78145 0.57538 0.30316 0.0
H1258 H 0.78118 0.54155 0.21941 0.0
H1259 H 0.78884 0.57386 0.18267 0.0
C1260 C 0.87144 0.26351 0.2262 0.0
C1261 C 0.8491 0.21861 0.2078 0.0
C1262 C 0.81143 0.17152 0.2588 0.0
C1263 C 0.8442 0.21435 0.27745 0.0
N1264 N 0.88509 0.30372 0.27934 0.0
N1265 N 0.77501 0.13773 0.20536 0.0
C1266 C 0.86717 0.26126 0.26117 0.0
C1267 C 0.81225 0.17436 0.22359 0.0
N1268 N 0.8979 0.30818 0.21024 0.0
N1269 N 0.77747 0.12944 0.27465 0.0
H1270 H 0.76865 0.14398 0.18119 0.0
H1271 H 0.74633 0.1046 0.21497 0.0
H1272 H 0.76644 0.13131 0.29849 0.0
H1273 H 0.75816 0.09436 0.26368 0.0
H1274 H 0.91523 0.34286 0.22171 0.0
H1275 H 0.90362 0.31083 0.18497 0.0
H1276 H 0.89266 0.33806 0.26983 0.0
H1277 H 0.8922 0.30413 0.30432 0.0
C1278 C 0.17415 0.32156 0.72538 0.0
C1279 C 0.18672 0.36659 0.70869 0.0
C1280 C 0.21659 0.4121 0.76116 0.0
C1281 C 0.20221 0.3662 0.7777 0.0
N1282 N 0.18476 0.28139 0.77279 0.0
N1283 N 0.23118 0.45646 0.70911 0.0
C1284 C 0.1871 0.32254 0.75876 0.0
C1285 C 0.2122 0.41257 0.72602 0.0
N1286 N 0.14776 0.27698 0.70967 0.0
N1287 N 0.23114 0.4545 0.77905 0.0
H1288 H 0.22702 0.45779 0.68377 0.0
H1289 H 0.25421 0.49125 0.71971 0.0
H1290 H 0.23721 0.45618 0.8043 0.0
H1291 H 0.23534 0.48743 0.76913 0.0
H1292 H 0.13008 0.24265 0.72174 0.0
H1293 H 0.14114 0.27514 0.68469 0.0
H1294 H 0.17957 0.25038 0.75942 0.0
H1295 H 0.19262 0.28016 0.79739 0.0
C1296 C 0.16297 0.84998 0.75693 0.0
C1297 C 0.19235 0.83575 0.77536 0.0
C1298 C 0.22321 0.82206 0.72249 0.0
C1299 C 0.20572 0.85082 0.70568 0.0
N1300 N 0.16065 0.89612 0.71087 0.0
N1301 N 0.25123 0.80625 0.77468 0.0
C1302 C 0.17583 0.86555 0.724 0.0
C1303 C 0.22217 0.82031 0.75787 0.0
N1304 N 0.12304 0.84979 0.77112 0.0
N1305 N 0.24012 0.796 0.70499 0.0
H1306 H 0.24988 0.80251 0.80015 0.0
H1307 H 0.27821 0.80068 0.76332 0.0
H1308 H 0.23796 0.79384 0.67945 0.0
H1309 H 0.25022 0.77183 0.71589 0.0
H1310 H 0.09744 0.85541 0.75781 0.0
H1311 H 0.1128 0.83869 0.79532 0.0
H1312 H 0.14503 0.91321 0.72475 0.0
H1313 H 0.16618 0.90646 0.68662 0.0
C1314 C 0.61592 0.7854 0.72785 0.0
C1315 C 0.65554 0.82308 0.70905 0.0
C1316 C 0.69078 0.87144 0.75975 0.0
C1317 C 0.65509 0.83133 0.7791 0.0
N1318 N 0.57003 0.76478 0.77933 0.0
N1319 N 0.71459 0.9107 0.70651 0.0
C1320 C 0.61321 0.79254 0.76254 0.0
C1321 C 0.68798 0.86887 0.72484 0.0
N1322 N 0.58142 0.74246 0.71282 0.0
N1323 N 0.72787 0.91246 0.77475 0.0
H1324 H 0.71333 0.90939 0.68113 0.0
H1325 H 0.73339 0.94668 0.71621 0.0
H1326 H 0.72829 0.91757 0.79997 0.0
H1327 H 0.75857 0.94002 0.76219 0.0
H1328 H 0.5552 0.7112 0.72576 0.0
H1329 H 0.58093 0.7377 0.68742 0.0
H1330 H 0.53698 0.73836 0.76813 0.0
H1331 H 0.56599 0.77335 0.8035 0.0
C1332 C 0.23287 0.97485 -0.00695 0.0
C1333 C 0.26238 0.98614 0.96396 0.0
C1334 C 0.32483 0.06522 0.99184 0.0
C1335 C 0.29331 0.05738 0.01873 0.0
N1336 N 0.20969 1.0081 0.03984 0.0
N1337 N 0.32744 0.06142 0.93417 0.0
C1338 C 0.2451 1.01293 0.01786 0.0
C1339 C 0.30535 0.03677 0.96264 0.0
N1340 N 0.19172 0.9288 -0.0033 0.0
N1341 N 0.37446 0.0991 -0.0064 0.0
H1342 H 0.31808 0.04861 0.91052 0.0
H1343 H 0.35422 0.09937 0.93393 0.0
H1344 H 0.39096 0.1199 0.01447 0.0
H1345 H 0.39961 0.10217 0.97541 0.0
H1346 H 0.17242 0.91643 0.01883 0.0
H1347 H 0.17843 0.90208 0.97816 0.0
H1348 H 0.17279 0.97915 0.03907 0.0
H1349 H 0.21581 0.03642 0.05632 0.0
C1350 C 0.80137 0.78198 0.47988 0.0
C1351 C 0.78378 0.73007 0.47525 0.0
C1352 C 0.70752 0.71251 0.50553 0.0
C1353 C 0.72588 0.76383 0.51228 0.0
N1354 N 0.78315 0.84716 0.49599 0.0
N1355 N 0.7278 0.64775 0.49477 0.0
C1356 C 0.77145 0.7986 0.497 0.0
C1357 C 0.73911 0.69596 0.49146 0.0
N1358 N 0.84742 0.81533 0.46794 0.0
N1359 N 0.65812 0.67977 0.50994 0.0
H1360 H 0.75399 0.63739 0.48864 0.0
H1361 H 0.69702 0.62126 0.50797 0.0
H1362 H 0.63374 0.69231 0.51661 0.0
H1363 H 0.64114 0.64226 0.5032 0.0
H1364 H 0.86514 0.85366 0.47199 0.0
H1365 H 0.86975 0.80351 0.45628 0.0
H1366 H 0.81413 0.87555 0.48412 0.0
H1367 H 0.75713 0.85692 0.50364 0.0
C1368 C 0.06196 0.26084 0.99284 0.0
C1369 C 0.05406 0.28498 0.96559 0.0
C1370 C 0.97003 0.26139 0.98986 0.0
C1371 C 0.97771 0.23678 0.01621 0.0
N1372 N 0.02495 0.20054 0.03744 0.0
N1373 N 0.99349 0.30243 0.93871 0.0
C1374 C 0.02222 0.23326 0.01618 0.0
C1375 C 1.00571 0.2823 0.96413 0.0
N1376 N 0.10703 0.26354 -0.00344 0.0
N1377 N 0.92725 0.2638 0.98848 0.0
H1378 H 0.98903 0.28822 0.91509 0.0
H1379 H 0.9763 0.32371 0.9424 0.0
H1380 H 0.90549 0.2586 0.00891 0.0
H1381 H 0.91337 0.27161 0.96735 0.0
H1382 H 0.11743 0.25212 0.01776 0.0
H1383 H 0.1355 0.28039 0.97936 0.0
H1384 H 0.05375 0.19239 0.03755 0.0
H1385 H 0.99489 0.17671 0.05218 0.0
C1386 C 0.24934 0.03103 0.47958 0.0
C1387 C 0.30208 0.06267 0.47495 0.0
C1388 C 0.31282 0.99734 0.50153 0.0
C1389 C 0.26247 0.97024 0.51151 0.0
N1390 N 0.18026 0.95764 0.50537 0.0
N1391 N 0.3835 0.07871 0.49029 0.0
C1392 C 0.22995 0.9864 0.49939 0.0
C1393 C 0.33347 0.04679 0.48916 0.0
N1394 N 0.2177 0.04224 0.46331 0.0
N1395 N 0.33976 0.97368 0.50078 0.0
H1396 H 0.39841 0.116 0.48364 0.0
H1397 H 0.40808 0.0695 0.50163 0.0
H1398 H 0.32341 0.93584 0.50684 0.0
H1399 H 0.37557 0.99006 0.49084 0.0
H1400 H 0.17925 0.01879 0.46207 0.0
H1401 H 0.23088 0.07485 0.44975 0.0
H1402 H 0.15446 0.96927 0.50119 0.0
H1403 H 0.16523 0.9212 0.51409 0.0
C1404 C 0.7248 0.69768 -0.00012 0.0
C1405 C 0.77627 0.71927 0.00764 0.0
C1406 C 0.79048 0.79075 0.97223 0.0
C1407 C 0.73797 0.77146 0.96848 0.0
N1408 N 0.65693 0.71357 0.98936 0.0
N1409 N 0.85846 0.78963 0.00174 0.0
C1410 C 0.70575 0.72712 0.98564 0.0
C1411 C 0.80917 0.76675 -0.0063 0.0
N1412 N 0.69417 0.64786 0.00445 0.0
N1413 N 0.82277 0.83234 0.95511 0.0
H1414 H 0.87301 0.77104 0.015 0.0
H1415 H 0.88403 0.82674 -0.00374 0.0
H1416 H 0.81064 0.85339 0.94238 0.0
H1417 H 0.86074 0.84497 0.9529 0.0
H1418 H 0.65686 0.62912 -0.0028 0.0
H1419 H 0.7083 0.62532 0.01235 0.0
H1420 H 0.63274 0.6837 0.00424 0.0
H1421 H 0.64254 0.73515 0.97986 0.0
C1422 C 0.03727 0.31874 0.50037 0.0
C1423 C 0.06013 0.29223 0.51276 0.0
C1424 C 0.99786 0.22041 0.47936 0.0
C1425 C 0.97089 0.24557 0.4719 0.0
N1426 N 0.95775 0.31238 0.48854 0.0
N1427 N 0.05304 0.21114 0.5176 0.0
C1428 C 0.98822 0.29267 0.48676 0.0
C1429 C 0.03764 0.24094 0.50326 0.0
N1430 N 0.06346 0.36932 0.50004 0.0
N1431 N 0.98601 0.17709 0.46344 0.0
H1432 H 0.08199 0.22484 0.53458 0.0
H1433 H 0.03476 0.17256 0.51427 0.0
H1434 H 0.95635 0.16034 0.44697 0.0
H1435 H 1.00746 0.1598 0.46521 0.0
H1436 H 0.04838 0.39101 0.49199 0.0
H1437 H 0.10176 0.38776 0.50422 0.0
H1438 H 0.96786 0.34538 0.5013 0.0
H1439 H 0.9208 0.29236 0.48048 0.0
C1440 C 0.5403 0.11831 0.11543 0.0
C1441 C 0.56953 0.14703 0.08843 0.0
C1442 C 0.50133 0.16102 0.07161 0.0
C1443 C 0.4742 0.13757 0.10067 0.0
N1444 N 0.47399 0.10235 0.1534 0.0
N1445 N 0.58198 0.20521 0.04508 0.0
C1446 C 0.49538 0.11836 0.12341 0.0
C1447 C 0.55112 0.17113 0.06777 0.0
N1448 N 0.55475 0.09016 0.13311 0.0
N1449 N 0.47952 0.1743 0.04763 0.0
H1450 H 0.61921 0.21473 0.04231 0.0
H1451 H 0.57233 0.22774 0.03153 0.0
H1452 H 0.4437 0.16842 0.05035 0.0
H1453 H 0.49496 0.18671 0.02441 0.0
H1454 H 0.53203 0.06406 0.15061 0.0
H1455 H 0.58799 0.09035 0.12856 0.0
H1456 H 0.49025 0.09298 0.17249 0.0
H1457 H 0.44134 0.10198 0.15963 0.0
C1458 C 0.65436 0.53227 0.35818 0.0
C1459 C 0.68829 0.56233 0.38333 0.0
C1460 C 0.63968 0.49338 0.42227 0.0
C1461 C 0.60098 0.46944 0.39893 0.0
N1462 N 0.56952 0.46914 0.34467 0.0
N1463 N 0.7105 0.56937 0.44095 0.0
C1464 C 0.60774 0.48967 0.36682 0.0
C1465 C 0.67988 0.54235 0.41588 0.0
N1466 N 0.66739 0.54285 0.32589 0.0
N1467 N 0.63913 0.46824 0.45012 0.0
H1468 H 0.74101 0.60444 0.43763 0.0
H1469 H 0.70329 0.5583 0.46544 0.0
H1470 H 0.611 0.43173 0.45503 0.0
H1471 H 0.66912 0.481 0.46632 0.0
H1472 H 0.64638 0.51918 0.30678 0.0
H1473 H 0.70102 0.5733 0.31829 0.0
H1474 H 0.571 0.48536 0.32193 0.0
H1475 H 0.53499 0.43807 0.35003 0.0
C1476 C 0.87032 0.34947 0.11391 0.0
C1477 C 0.90096 0.34264 0.09025 0.0
C1478 C 0.91497 0.42064 0.06318 0.0
C1479 C 0.87926 0.42294 0.08336 0.0
N1480 N 0.82233 0.39003 0.12841 0.0
N1481 N 0.93647 0.3658 0.03544 0.0
C1482 C 0.85779 0.38819 0.10944 0.0
C1483 C 0.91957 0.37709 0.06327 0.0
N1484 N 0.84952 0.31672 0.13922 0.0
N1485 N 0.94278 0.45925 0.04228 0.0
H1486 H 0.93869 0.33366 0.03281 0.0
H1487 H 0.94398 0.38623 0.01372 0.0
H1488 H 0.93935 0.49117 0.04144 0.0
H1489 H 0.97237 0.46155 0.02866 0.0
H1490 H 0.83297 0.32285 0.15957 0.0
H1491 H 0.84996 0.28366 0.14051 0.0
H1492 H 0.79944 0.36249 0.14504 0.0
H1493 H 0.81445 0.41905 0.12651 0.0
C1494 C 0.49052 0.11141 0.37021 0.0
C1495 C 0.46885 0.13281 0.39075 0.0
C1496 C 0.54545 0.17034 0.42446 0.0
C1497 C 0.56493 0.14503 0.40608 0.0
N1498 N 0.55218 0.08506 0.36401 0.0
N1499 N 0.47231 0.17211 0.44244 0.0
C1500 C 0.5364 0.11377 0.37958 0.0
C1501 C 0.49535 0.15879 0.41947 0.0
N1502 N 0.46752 0.08916 0.34151 0.0
N1503 N 0.57549 0.20685 0.4462 0.0
H1504 H 0.43553 0.16338 0.43967 0.0
H1505 H 0.48766 0.18667 0.4654 0.0
H1506 H 0.61291 0.21753 0.44973 0.0
H1507 H 0.56494 0.23009 0.45792 0.0
H1508 H 0.48387 0.07831 0.32337 0.0
H1509 H 0.43241 0.08338 0.33551 0.0
H1510 H 0.53047 0.05734 0.34707 0.0
H1511 H 0.58578 0.08665 0.36973 0.0
C1512 C 0.64465 0.48962 0.06454 0.0
C1513 C 0.60366 0.47208 0.08628 0.0
C1514 C 0.65488 0.54326 0.12314 0.0
C1515 C 0.69323 0.56471 0.09901 0.0
N1516 N 0.72045 0.5595 0.04428 0.0
N1517 N 0.56756 0.48514 0.13499 0.0
C1518 C 0.68669 0.53818 0.06899 0.0
C1519 C 0.60818 0.49972 0.11529 0.0
N1520 N 0.64403 0.45908 0.04 0.0
N1521 N 0.66351 0.56361 0.15391 0.0
H1522 H 0.53349 0.45286 0.13053 0.0
H1523 H 0.56677 0.50681 0.15432 0.0
H1524 H 0.6966 0.59583 0.16031 0.0
H1525 H 0.63923 0.54685 0.17356 0.0
H1526 H 0.67501 0.4672 0.02563 0.0
H1527 H 0.61413 0.42306 0.03627 0.0
H1528 H 0.71547 0.54446 0.02075 0.0
H1529 H 0.75057 0.59524 0.04611 0.0
C1530 C 0.92259 0.42287 0.41228 0.0
C1531 C 0.88391 0.43016 0.39982 0.0
C1532 C 0.86082 0.35914 0.36267 0.0
C1533 C 0.89259 0.34502 0.38013 0.0
N1534 N 0.94379 0.36129 0.42867 0.0
N1535 N 0.8094 0.39727 0.36659 0.0
C1536 C 0.92139 0.37666 0.40659 0.0
C1537 C 0.85189 0.39692 0.37544 0.0
N1538 N 0.9597 0.45959 0.43068 0.0
N1539 N 0.83568 0.33461 0.33488 0.0
H1540 H 0.79884 0.4217 0.37628 0.0
H1541 H 0.78147 0.36956 0.35212 0.0
H1542 H 0.83018 0.30032 0.32718 0.0
H1543 H 0.82053 0.34966 0.31868 0.0
H1544 H 0.99068 0.45782 0.43885 0.0
H1545 H 0.96181 0.49394 0.43477 0.0
H1546 H 0.96068 0.38132 0.44998 0.0
H1547 H 0.94191 0.327 0.42732 0.0
C1548 C 0.16912 0.5564 0.62235 0.0
C1549 C 0.15731 0.56664 0.59042 0.0
C1550 C 0.13003 0.48018 0.57515 0.0
C1551 C 0.13622 0.46722 0.60761 0.0
N1552 N 0.15171 0.49334 0.66429 0.0
N1553 N 0.10562 0.52957 0.54257 0.0
C1554 C 0.15147 0.50537 0.63204 0.0
C1555 C 0.12906 0.52495 0.56959 0.0
N1556 N 0.20031 0.59463 0.6425 0.0
N1557 N 0.13308 0.45502 0.54874 0.0
H1558 H 0.10437 0.56215 0.53788 0.0
H1559 H 0.084 0.49937 0.52709 0.0
H1560 H 0.14127 0.42643 0.55086 0.0
H1561 H 0.13432 0.46773 0.52478 0.0
H1562 H 0.21435 0.58896 0.66437 0.0
H1563 H 0.21543 0.63203 0.63613 0.0
H1564 H 0.15959 0.51872 0.68338 0.0
H1565 H 0.13922 0.45668 0.67189 0.0
C1566 C 0.36619 0.89365 0.91143 0.0
C1567 C 0.34863 0.88934 0.87842 0.0
C1568 C 0.40655 0.85963 0.86202 0.0
C1569 C 0.42476 0.8659 0.89473 0.0
N1570 N 0.43382 0.90514 0.94721 0.0
N1571 N 0.35916 0.87587 0.82126 0.0
C1572 C 0.40887 0.88898 0.91808 0.0
C1573 C 0.37205 0.87585 0.85339 0.0
N1574 N 0.33984 0.89707 0.93714 0.0
N1575 N 0.41886 0.83449 0.83976 0.0
H1576 H 0.3313 0.88344 0.81413 0.0
H1577 H 0.37851 0.87207 0.8016 0.0
H1578 H 0.44394 0.82222 0.8449 0.0
H1579 H 0.40166 0.82267 0.81693 0.0
H1580 H 0.34807 0.89416 0.96161 0.0
H1581 H 0.30726 0.89825 0.9343 0.0
H1582 H 0.42659 0.92611 0.96408 0.0
H1583 H 0.46518 0.90212 0.95264 0.0
C1584 C 0.53992 0.67825 0.57311 0.0
C1585 C 0.56538 0.6815 0.60294 0.0
C1586 C 0.4947 0.59801 0.61771 0.0
C1587 C 0.46738 0.59884 0.58977 0.0
N1588 N 0.46006 0.64823 0.54667 0.0
N1589 N 0.56268 0.646 0.65612 0.0
C1590 C 0.48883 0.64182 0.56947 0.0
C1591 C 0.54136 0.64174 0.62604 0.0
N1592 N 0.56473 0.70904 0.54755 0.0
N1593 N 0.47697 0.5553 0.63575 0.0
H1594 H 0.59739 0.6763 0.6623 0.0
H1595 H 0.54484 0.62101 0.6753 0.0
H1596 H 0.44284 0.52345 0.63066 0.0
H1597 H 0.49756 0.55057 0.65424 0.0
H1598 H 0.54907 0.70539 0.52429 0.0
H1599 H 0.60264 0.73404 0.54854 0.0
H1600 H 0.47282 0.68089 0.533 0.0
H1601 H 0.42192 0.62321 0.54411 0.0
C1602 C 0.18041 0.54239 0.92137 0.0
C1603 C 0.16539 0.56736 0.89877 0.0
C1604 C 0.15418 0.50423 0.85735 0.0
C1605 C 0.15864 0.47381 0.88196 0.0
N1606 N 0.17014 0.4638 0.93989 0.0
N1607 N 0.1311 0.56694 0.8454 0.0
C1608 C 0.16991 0.49282 0.91471 0.0
C1609 C 0.15042 0.54694 0.8667 0.0
N1610 N 0.20648 0.56682 0.94893 0.0
N1611 N 0.15516 0.49352 0.82493 0.0
H1612 H 0.12725 0.59763 0.85136 0.0
H1613 H 0.11521 0.5504 0.82293 0.0
H1614 H 0.15836 0.46315 0.81708 0.0
H1615 H 0.15667 0.517 0.80603 0.0
H1616 H 0.22281 0.5524 0.96463 0.0
H1617 H 0.21682 0.6039 0.95386 0.0
H1618 H 0.17336 0.47446 0.96448 0.0
H1619 H 0.16217 0.42724 0.93673 0.0
C1620 C 0.39799 0.92556 0.5781 0.0
C1621 C 0.35678 0.90141 0.60014 0.0
C1622 C 0.38735 0.84385 0.61516 0.0
C1623 C 0.42731 0.86782 0.59253 0.0
N1624 N 0.48031 0.94213 0.56196 0.0
N1625 N 0.32505 0.84949 0.64806 0.0
C1626 C 0.43626 0.91284 0.57781 0.0
C1627 C 0.35587 0.86461 0.62159 0.0
N1628 N 0.39828 0.95731 0.55496 0.0
N1629 N 0.37812 0.80007 0.6294 0.0
H1630 H 0.30497 0.86696 0.65435 0.0
H1631 H 0.32516 0.82529 0.66583 0.0
H1632 H 0.40183 0.78549 0.62622 0.0
H1633 H 0.34595 0.77738 0.64285 0.0
H1634 H 0.42373 0.97153 0.53566 0.0
H1635 H 0.37012 0.9659 0.55398 0.0
H1636 H 0.4907 0.97763 0.55304 0.0
H1637 H 0.50844 0.93294 0.56094 0.0
C1638 C 0.56556 0.64272 0.91321 0.0
C1639 C 0.5785 0.67921 0.88808 0.0
C1640 C 0.49097 0.63298 0.86864 0.0
C1641 C 0.47706 0.60051 0.89615 0.0
N1642 N 0.50255 0.56497 0.93896 0.0
N1643 N 0.55721 0.69392 0.83416 0.0
C1644 C 0.51523 0.60203 0.91631 0.0
C1645 C 0.54239 0.6695 0.86331 0.0
N1646 N 0.60174 0.64799 0.93455 0.0
N1647 N 0.45464 0.63116 0.84867 0.0
H1648 H 0.5942 0.72024 0.82946 0.0
H1649 H 0.53407 0.68269 0.8136 0.0
H1650 H 0.41723 0.60373 0.85112 0.0
H1651 H 0.46139 0.65801 0.83082 0.0
H1652 H 0.59565 0.62571 0.95511 0.0
H1653 H 0.63881 0.67549 0.9311 0.0
H1654 H 0.52784 0.56146 0.95395 0.0
H1655 H 0.46612 0.53512 0.94105 0.0
loop_
_geom_bond_atom_site_label_1
_geom_bond_atom_site_label_2
_geom_bond_distance
_geom_bond_site_symmetry_2
_ccdc_geom_bond_type
Eu0 N31 2.657 . S
Eu0 N38 2.609 . S
Eu0 O44 2.558 . S
Eu0 O45 2.612 . S
Eu0 O47 2.339 . S
Eu0 O48 2.563 . S
Eu0 O49 2.419 . S
Eu0 O51 2.380 . S
Eu0 O52 2.432 . S
Eu0 C64 2.848 . S
C1 C4 1.429 . S
C1 C5 1.411 1_545 S
C1 N8 1.377 . S
C2 C4 1.420 1_565 S
C2 C6 1.423 . S
C2 C14 1.392 . S
C3 C5 1.420 . S
C3 C6 1.351 . S
C3 H26 0.931 . S
C4 C1 1.429 . S
C4 C2 1.420 1_545 S
C4 N12 1.362 . S
C5 C1 1.411 1_565 S
C5 C3 1.420 . S
C5 C10 1.389 1_565 S
C6 C2 1.423 . S
C6 C3 1.351 . S
C6 H18 0.930 . S
C7 C9 1.400 . S
C7 C10 1.408 . S
C7 H19 0.930 . S
N8 C1 1.377 . S
N8 C9 1.321 . S
N8 Eu11 2.609 . S
C9 C7 1.400 . S
C9 N8 1.321 . S
C9 H16 0.930 . S
C10 C5 1.389 1_545 S
C10 C7 1.408 . S
C10 H29 0.914 1_545 S
Eu11 N8 2.609 . S
Eu11 N12 2.657 . S
Eu11 O45 2.380 . S
Eu11 O46 2.432 . S
Eu11 O50 2.558 . S
Eu11 O51 2.612 . S
Eu11 O53 2.339 . S
Eu11 O54 2.563 . S
Eu11 O55 2.419 . S
Eu11 C75 2.848 1_545 S
N12 C4 1.362 . S
N12 Eu11 2.657 . S
N12 C13 1.334 . S
C13 N12 1.334 . S
C13 C15 1.413 . S
C13 H20 0.929 . S
C14 C2 1.392 . S
C14 C15 1.367 1_565 S
C14 H22 0.930 . S
C15 C13 1.413 . S
C15 C14 1.367 1_545 S
C15 H17 0.930 . S
H16 C9 0.930 . S
H17 C15 0.930 . S
H18 C6 0.930 . S
H19 C7 0.930 . S
H20 C13 0.929 . S
H21 C35 0.930 . S
H22 C14 0.930 . S
H23 C41 0.930 . S
H24 C32 0.929 . S
H25 C39 0.930 . S
H26 C3 0.931 . S
H27 C33 0.930 . S
H28 C66 0.930 . S
H29 C10 0.914 1_565 S
H30 C65 0.931 . S
N31 Eu0 2.657 . S
N31 C32 1.334 . S
N31 C36 1.362 . S
C32 H24 0.929 . S
C32 N31 1.334 . S
C32 C35 1.413 . S
C33 H27 0.930 . S
C33 C34 1.392 . S
C33 C35 1.367 . S
C34 C33 1.392 . S
C34 C36 1.420 . S
C34 C66 1.423 . S
C35 H21 0.930 . S
C35 C32 1.413 . S
C35 C33 1.367 . S
C36 N31 1.362 . S
C36 C34 1.420 . S
C36 C40 1.429 . S
H37 C42 0.930 . S
N38 Eu0 2.609 . S
N38 C40 1.377 . S
N38 C41 1.321 . S
C39 H25 0.930 . S
C39 C41 1.400 1_556 S
C39 C42 1.386 . S
C40 C36 1.429 . S
C40 N38 1.377 . S
C40 C43 1.411 . S
C41 H23 0.930 . S
C41 N38 1.321 . S
C41 C39 1.400 1_554 S
C42 H37 0.930 . S
C42 C39 1.386 . S
C42 C43 1.395 1_556 S
C43 C40 1.411 . S
C43 C42 1.395 1_554 S
C43 C65 1.420 . S
O44 Eu0 2.558 . S
O44 C64 1.257 . S
O45 Eu0 2.612 . S
O45 Eu11 2.380 . S
O45 C56 1.276 . S
O46 Eu11 2.432 . S
O46 C63 1.264 . S
O47 Eu0 2.339 . S
O47 C63 1.254 . S
O48 Eu0 2.563 . S
O48 C56 1.235 . S
O49 Eu0 2.419 . S
O49 C64 1.249 . S
O50 Eu11 2.558 . S
O50 C75 1.257 1_545 S
O51 Eu0 2.380 . S
O51 Eu11 2.612 . S
O51 C67 1.276 . S
O52 Eu0 2.432 . S
O52 C74 1.264 . S
O53 Eu11 2.339 . S
O53 C74 1.254 . S
O54 Eu11 2.563 . S
O54 C67 1.235 . S
O55 Eu11 2.419 . S
O55 C75 1.249 1_545 S
C56 O45 1.276 . S
C56 O48 1.235 . S
C57 C59 1.393 . S
C57 C61 1.395 . S
C57 C64 1.492 . S
C58 C59 1.392 . S
C58 C60 1.386 . S
C59 C57 1.393 . S
C59 C58 1.392 . S
C59 H76 0.930 . S
C60 C58 1.386 . S
C60 C62 1.395 . S
C60 H77 0.930 . S
C61 C57 1.395 . S
C61 C62 1.379 . S
C61 H78 0.930 . S
C62 C60 1.395 . S
C62 C61 1.379 . S
C62 H79 0.930 . S
C63 O46 1.264 . S
C63 O47 1.254 . S
C64 Eu0 2.848 . S
C64 O44 1.257 . S
C64 O49 1.249 . S
C64 C57 1.492 . S
C65 H30 0.931 . S
C65 C43 1.420 . S
C65 C66 1.351 . S
C66 H28 0.930 . S
C66 C34 1.423 . S
C66 C65 1.351 . S
C67 O51 1.276 . S
C67 O54 1.235 . S
C68 C69 1.393 . S
C68 C72 1.395 . S
C68 C75 1.492 . S
C69 C68 1.393 . S
C69 C70 1.392 . S
C69 H80 0.930 . S
C70 C69 1.392 . S
C70 C71 1.386 . S
C71 C70 1.386 . S
C71 C73 1.395 . S
C71 H81 0.930 . S
C72 C68 1.395 . S
C72 C73 1.379 . S
C72 H82 0.930 . S
C73 C71 1.395 . S
C73 C72 1.379 . S
C73 H83 0.930 . S
C74 O52 1.264 . S
C74 O53 1.254 . S
C75 Eu11 2.848 1_565 S
C75 O50 1.257 1_565 S
C75 O55 1.249 1_565 S
C75 C68 1.492 . S
H76 C59 0.930 . S
H77 C60 0.930 . S
H78 C61 0.930 . S
H79 C62 0.930 . S
H80 C69 0.930 . S
H81 C71 0.930 . S
H82 C72 0.930 . S
H83 C73 0.930 . S
Eu84 N115 2.657 . S
Eu84 N122 2.609 . S
Eu84 O128 2.558 . S
Eu84 O129 2.612 . S
Eu84 O131 2.339 . S
Eu84 O132 2.563 . S
Eu84 O133 2.419 . S
Eu84 O135 2.380 . S
Eu84 O136 2.432 . S
Eu84 C148 2.848 . S
C85 C88 1.429 . S
C85 C89 1.411 . S
C85 N92 1.377 . S
C86 C88 1.420 1_455 S
C86 C90 1.423 . S
C86 C98 1.392 . S
C87 C89 1.420 1_455 S
C87 C90 1.351 . S
C87 H110 0.931 . S
C88 C85 1.429 . S
C88 C86 1.420 1_655 S
C88 N96 1.362 . S
C89 C85 1.411 . S
C89 C87 1.420 1_655 S
C89 C94 1.395 . S
C90 C86 1.423 . S
C90 C87 1.351 . S
C90 H102 0.930 . S
C91 C93 1.400 . S
C91 C94 1.386 . S
C91 H103 0.930 . S
N92 C85 1.377 . S
N92 C93 1.321 . S
N92 Eu95 2.609 . S
C93 C91 1.400 . S
C93 N92 1.321 . S
C93 H100 0.930 . S
C94 C89 1.395 . S
C94 C91 1.386 . S
C94 H113 0.930 . S
Eu95 N92 2.609 . S
Eu95 N96 2.657 . S
Eu95 O129 2.380 . S
Eu95 O130 2.432 . S
Eu95 O134 2.558 . S
Eu95 O135 2.612 . S
Eu95 O137 2.339 . S
Eu95 O138 2.563 . S
Eu95 O139 2.419 . S
Eu95 C159 2.848 . S
N96 C88 1.362 . S
N96 Eu95 2.657 . S
N96 C97 1.334 . S
C97 N96 1.334 . S
C97 C99 1.413 1_655 S
C97 H104 0.929 . S
C98 C86 1.392 . S
C98 C99 1.367 . S
C98 H106 0.930 . S
C99 C97 1.413 1_455 S
C99 C98 1.367 . S
C99 H101 0.930 . S
H100 C93 0.930 . S
H101 C99 0.930 . S
H102 C90 0.930 . S
H103 C91 0.930 . S
H104 C97 0.929 . S
H105 C119 0.930 . S
H106 C98 0.930 . S
H107 C125 0.930 . S
H108 C116 0.929 . S
H109 C123 0.930 . S
H110 C87 0.931 . S
H111 C117 0.930 . S
H112 C150 0.930 . S
H113 C94 0.930 . S
H114 C149 0.931 . S
N115 Eu84 2.657 . S
N115 C116 1.334 . S
N115 C120 1.362 . S
C116 H108 0.929 . S
C116 N115 1.334 . S
C116 C119 1.413 . S
C117 H111 0.930 . S
C117 C118 1.392 . S
C117 C119 1.367 . S
C118 C117 1.392 . S
C118 C120 1.420 . S
C118 C150 1.423 . S
C119 H105 0.930 . S
C119 C116 1.413 . S
C119 C117 1.367 . S
C120 N115 1.362 . S
C120 C118 1.420 . S
C120 C124 1.429 . S
H121 C126 0.930 . S
N122 Eu84 2.609 . S
N122 C124 1.377 . S
N122 C125 1.321 . S
C123 H109 0.930 . S
C123 C125 1.400 . S
C123 C126 1.386 . S
C124 C120 1.429 . S
C124 N122 1.377 . S
C124 C127 1.411 . S
C125 H107 0.930 . S
C125 N122 1.321 . S
C125 C123 1.400 . S
C126 H121 0.930 . S
C126 C123 1.386 . S
C126 C127 1.395 . S
C127 C124 1.411 . S
C127 C126 1.395 . S
C127 C149 1.420 . S
O128 Eu84 2.558 . S
O128 C148 1.257 . S
O129 Eu84 2.612 . S
O129 Eu95 2.380 . S
O129 C140 1.276 . S
O130 Eu95 2.432 . S
O130 C147 1.264 . S
O131 Eu84 2.339 . S
O131 C147 1.254 . S
O132 Eu84 2.563 . S
O132 C140 1.235 . S
O133 Eu84 2.419 . S
O133 C148 1.249 . S
O134 Eu95 2.558 . S
O134 C159 1.257 . S
O135 Eu84 2.380 . S
O135 Eu95 2.612 . S
O135 C151 1.276 . S
O136 Eu84 2.432 . S
O136 C158 1.264 . S
O137 Eu95 2.339 . S
O137 C158 1.254 . S
O138 Eu95 2.563 . S
O138 C151 1.235 . S
O139 Eu95 2.419 . S
O139 C159 1.249 . S
C140 O129 1.276 . S
C140 O132 1.235 . S
C141 C143 1.393 . S
C141 C145 1.395 . S
C141 C148 1.492 . S
C142 C143 1.392 . S
C142 C144 1.386 . S
C143 C141 1.393 . S
C143 C142 1.392 . S
C143 H160 0.930 . S
C144 C142 1.386 . S
C144 C146 1.395 . S
C144 H161 0.930 . S
C145 C141 1.395 . S
C145 C146 1.379 . S
C145 H162 0.930 . S
C146 C144 1.395 . S
C146 C145 1.379 . S
C146 H163 0.930 . S
C147 O130 1.264 . S
C147 O131 1.254 . S
C148 Eu84 2.848 . S
C148 O128 1.257 . S
C148 O133 1.249 . S
C148 C141 1.492 . S
C149 H114 0.931 . S
C149 C127 1.420 . S
C149 C150 1.351 . S
C150 H112 0.930 . S
C150 C118 1.423 . S
C150 C149 1.351 . S
C151 O135 1.276 . S
C151 O138 1.235 . S
C152 C153 1.393 . S
C152 C156 1.395 . S
C152 C159 1.492 . S
C153 C152 1.393 . S
C153 C154 1.392 . S
C153 H164 0.930 . S
C154 C153 1.392 . S
C154 C155 1.386 . S
C155 C154 1.386 . S
C155 C157 1.395 . S
C155 H165 0.930 . S
C156 C152 1.395 . S
C156 C157 1.379 . S
C156 H166 0.930 . S
C157 C155 1.395 . S
C157 C156 1.379 . S
C157 H167 0.930 . S
C158 O136 1.264 . S
C158 O137 1.254 . S
C159 Eu95 2.848 . S
C159 O134 1.257 . S
C159 O139 1.249 . S
C159 C152 1.492 . S
H160 C143 0.930 . S
H161 C144 0.930 . S
H162 C145 0.930 . S
H163 C146 0.930 . S
H164 C153 0.930 . S
H165 C155 0.930 . S
H166 C156 0.930 . S
H167 C157 0.930 . S
Eu168 N199 2.657 . S
Eu168 N206 2.609 . S
Eu168 O212 2.558 . S
Eu168 O213 2.612 . S
Eu168 O215 2.339 . S
Eu168 O216 2.563 . S
Eu168 O217 2.419 . S
Eu168 O219 2.380 . S
Eu168 O220 2.432 . S
Eu168 C232 2.848 . S
C169 C172 1.429 . S
C169 C173 1.411 1_655 S
C169 N176 1.377 . S
C170 C172 1.420 1_455 S
C170 C174 1.423 . S
C170 C182 1.392 . S
C171 C173 1.420 . S
C171 C174 1.351 . S
C171 H194 0.931 . S
C172 C169 1.429 . S
C172 C170 1.420 1_655 S
C172 N180 1.362 . S
C173 C169 1.411 1_455 S
C173 C171 1.420 . S
C173 C178 1.398 1_455 S
C174 C170 1.423 . S
C174 C171 1.351 . S
C174 H186 0.930 . S
C175 C177 1.400 . S
C175 C178 1.388 . S
C175 H187 0.930 . S
N176 C169 1.377 . S
N176 C177 1.321 . S
N176 Eu179 2.609 . S
C177 C175 1.400 . S
C177 N176 1.321 . S
C177 H184 0.930 . S
C178 C173 1.398 1_655 S
C178 C175 1.388 . S
C178 H197 0.925 1_655 S
Eu179 N176 2.609 . S
Eu179 N180 2.657 . S
Eu179 O213 2.380 . S
Eu179 O214 2.432 . S
Eu179 O218 2.558 . S
Eu179 O219 2.612 . S
Eu179 O221 2.339 . S
Eu179 O222 2.563 . S
Eu179 O223 2.419 . S
Eu179 C243 2.848 1_655 S
N180 C172 1.362 . S
N180 Eu179 2.657 . S
N180 C181 1.334 . S
C181 N180 1.334 . S
C181 C183 1.413 . S
C181 H188 0.929 . S
C182 C170 1.392 . S
C182 C183 1.367 1_455 S
C182 H190 0.930 . S
C183 C181 1.413 . S
C183 C182 1.367 1_655 S
C183 H185 0.930 . S
H184 C177 0.930 . S
H185 C183 0.930 . S
H186 C174 0.930 . S
H187 C175 0.930 . S
H188 C181 0.929 . S
H189 C203 0.930 . S
H190 C182 0.930 . S
H191 C209 0.930 . S
H192 C200 0.929 . S
H193 C207 0.930 . S
H194 C171 0.931 . S
H195 C201 0.930 . S
H196 C234 0.930 . S
H197 C178 0.925 1_455 S
H198 C233 0.931 . S
N199 Eu168 2.657 . S
N199 C200 1.334 . S
N199 C204 1.362 . S
C200 H192 0.929 . S
C200 N199 1.334 . S
C200 C203 1.413 1_545 S
C201 H195 0.930 . S
C201 C202 1.392 . S
C201 C203 1.367 . S
C202 C201 1.392 . S
C202 C204 1.420 1_565 S
C202 C234 1.423 . S
C203 H189 0.930 . S
C203 C200 1.413 1_565 S
C203 C201 1.367 . S
C204 N199 1.362 . S
C204 C202 1.420 1_545 S
C204 C208 1.429 . S
H205 C210 0.930 . S
N206 Eu168 2.609 . S
N206 C208 1.377 . S
N206 C209 1.321 . S
C207 H193 0.930 . S
C207 C209 1.400 1_556 S
C207 C210 1.386 . S
C208 C204 1.429 . S
C208 N206 1.377 . S
C208 C211 1.411 . S
C209 H191 0.930 . S
C209 N206 1.321 . S
C209 C207 1.400 1_554 S
C210 H205 0.930 . S
C210 C207 1.386 . S
C210 C211 1.395 1_556 S
C211 C208 1.411 . S
C211 C210 1.395 1_554 S
C211 C233 1.420 1_545 S
O212 Eu168 2.558 . S
O212 C232 1.257 . S
O213 Eu168 2.612 . S
O213 Eu179 2.380 . S
O213 C224 1.276 . S
O214 Eu179 2.432 . S
O214 C231 1.264 . S
O215 Eu168 2.339 . S
O215 C231 1.254 . S
O216 Eu168 2.563 . S
O216 C224 1.235 . S
O217 Eu168 2.419 . S
O217 C232 1.249 . S
O218 Eu179 2.558 . S
O218 C243 1.257 1_655 S
O219 Eu168 2.380 . S
O219 Eu179 2.612 . S
O219 C235 1.276 . S
O220 Eu168 2.432 . S
O220 C242 1.264 . S
O221 Eu179 2.339 . S
O221 C242 1.254 . S
O222 Eu179 2.563 . S
O222 C235 1.235 . S
O223 Eu179 2.419 . S
O223 C243 1.249 1_655 S
C224 O213 1.276 . S
C224 O216 1.235 . S
C225 C227 1.393 . S
C225 C229 1.395 . S
C225 C232 1.492 . S
C226 C227 1.392 . S
C226 C228 1.386 . S
C227 C225 1.393 . S
C227 C226 1.392 . S
C227 H244 0.930 . S
C228 C226 1.386 . S
C228 C230 1.395 . S
C228 H245 0.930 . S
C229 C225 1.395 . S
C229 C230 1.379 . S
C229 H246 0.930 . S
C230 C228 1.395 . S
C230 C229 1.379 . S
C230 H247 0.930 . S
C231 O214 1.264 . S
C231 O215 1.254 . S
C232 Eu168 2.848 . S
C232 O212 1.257 . S
C232 O217 1.249 . S
C232 C225 1.492 . S
C233 H198 0.931 . S
C233 C211 1.420 1_565 S
C233 C234 1.351 . S
C234 H196 0.930 . S
C234 C202 1.423 . S
C234 C233 1.351 . S
C235 O219 1.276 . S
C235 O222 1.235 . S
C236 C237 1.393 . S
C236 C240 1.395 . S
C236 C243 1.492 . S
C237 C236 1.393 . S
C237 C238 1.392 . S
C237 H248 0.930 . S
C238 C237 1.392 . S
C238 C239 1.386 . S
C239 C238 1.386 . S
C239 C241 1.395 . S
C239 H249 0.930 . S
C240 C236 1.395 . S
C240 C241 1.379 . S
C240 H250 0.930 . S
C241 C239 1.395 . S
C241 C240 1.379 . S
C241 H251 0.930 . S
C242 O220 1.264 . S
C242 O221 1.254 . S
C243 Eu179 2.848 1_455 S
C243 O218 1.257 1_455 S
C243 O223 1.249 1_455 S
C243 C236 1.492 . S
H244 C227 0.930 . S
H245 C228 0.930 . S
H246 C229 0.930 . S
H247 C230 0.930 . S
H248 C237 0.930 . S
H249 C239 0.930 . S
H250 C240 0.930 . S
H251 C241 0.930 . S
Eu252 N283 2.657 . S
Eu252 N290 2.609 . S
Eu252 O296 2.558 . S
Eu252 O297 2.612 . S
Eu252 O299 2.339 . S
Eu252 O300 2.563 . S
Eu252 O301 2.419 . S
Eu252 O303 2.380 . S
Eu252 O304 2.432 . S
Eu252 C316 2.848 1_545 S
C253 C256 1.429 . S
C253 C257 1.411 . S
C253 N260 1.377 . S
C254 C256 1.420 . S
C254 C258 1.423 . S
C254 C266 1.392 . S
C255 C257 1.420 . S
C255 C258 1.351 . S
C255 H278 0.931 . S
C256 C253 1.429 . S
C256 C254 1.420 . S
C256 N264 1.362 . S
C257 C253 1.411 . S
C257 C255 1.420 . S
C257 C262 1.395 . S
C258 C254 1.423 . S
C258 C255 1.351 . S
C258 H270 0.930 . S
C259 C261 1.400 . S
C259 C262 1.386 . S
C259 H271 0.930 . S
N260 C253 1.377 . S
N260 C261 1.321 . S
N260 Eu263 2.609 . S
C261 C259 1.400 . S
C261 N260 1.321 . S
C261 H268 0.930 . S
C262 C257 1.395 . S
C262 C259 1.386 . S
C262 H281 0.930 . S
Eu263 N260 2.609 . S
Eu263 N264 2.657 . S
Eu263 O297 2.380 . S
Eu263 O298 2.432 . S
Eu263 O302 2.558 . S
Eu263 O303 2.612 . S
Eu263 O305 2.339 . S
Eu263 O306 2.563 . S
Eu263 O307 2.419 . S
Eu263 C327 2.848 . S
N264 C256 1.362 . S
N264 Eu263 2.657 . S
N264 C265 1.334 . S
C265 N264 1.334 . S
C265 C267 1.413 . S
C265 H272 0.929 . S
C266 C254 1.392 . S
C266 C267 1.367 . S
C266 H274 0.930 . S
C267 C265 1.413 . S
C267 C266 1.367 . S
C267 H269 0.930 . S
H268 C261 0.930 . S
H269 C267 0.930 . S
H270 C258 0.930 . S
H271 C259 0.930 . S
H272 C265 0.929 . S
H273 C287 0.930 . S
H274 C266 0.930 . S
H275 C293 0.930 . S
H276 C284 0.929 . S
H277 C291 0.930 . S
H278 C255 0.931 . S
H279 C285 0.930 . S
H280 C318 0.930 . S
H281 C262 0.930 . S
H282 C317 0.931 . S
N283 Eu252 2.657 . S
N283 C284 1.334 . S
N283 C288 1.362 . S
C284 H276 0.929 . S
C284 N283 1.334 . S
C284 C287 1.413 . S
C285 H279 0.930 . S
C285 C286 1.392 . S
C285 C287 1.367 1_565 S
C286 C285 1.392 . S
C286 C288 1.420 1_565 S
C286 C318 1.423 . S
C287 H273 0.930 . S
C287 C284 1.413 . S
C287 C285 1.367 1_545 S
C288 N283 1.362 . S
C288 C286 1.420 1_545 S
C288 C292 1.429 . S
H289 C294 0.914 1_565 S
N290 Eu252 2.609 . S
N290 C292 1.377 . S
N290 C293 1.321 . S
C291 H277 0.930 . S
C291 C293 1.400 . S
C291 C294 1.408 . S
C292 C288 1.429 . S
C292 N290 1.377 . S
C292 C295 1.411 1_545 S
C293 H275 0.930 . S
C293 N290 1.321 . S
C293 C291 1.400 . S
C294 H289 0.914 1_545 S
C294 C291 1.408 . S
C294 C295 1.389 1_545 S
C295 C292 1.411 1_565 S
C295 C294 1.389 1_565 S
C295 C317 1.420 . S
O296 Eu252 2.558 . S
O296 C316 1.257 1_545 S
O297 Eu252 2.612 . S
O297 Eu263 2.380 . S
O297 C308 1.276 . S
O298 Eu263 2.432 . S
O298 C315 1.264 . S
O299 Eu252 2.339 . S
O299 C315 1.254 . S
O300 Eu252 2.563 . S
O300 C308 1.235 . S
O301 Eu252 2.419 . S
O301 C316 1.249 1_545 S
O302 Eu263 2.558 . S
O302 C327 1.257 . S
O303 Eu252 2.380 . S
O303 Eu263 2.612 . S
O303 C319 1.276 . S
O304 Eu252 2.432 . S
O304 C326 1.264 . S
O305 Eu263 2.339 . S
O305 C326 1.254 . S
O306 Eu263 2.563 . S
O306 C319 1.235 . S
O307 Eu263 2.419 . S
O307 C327 1.249 . S
C308 O297 1.276 . S
C308 O300 1.235 . S
C309 C311 1.393 . S
C309 C313 1.395 . S
C309 C316 1.492 . S
C310 C311 1.392 . S
C310 C312 1.386 . S
C311 C309 1.393 . S
C311 C310 1.392 . S
C311 H328 0.930 . S
C312 C310 1.386 . S
C312 C314 1.395 . S
C312 H329 0.930 . S
C313 C309 1.395 . S
C313 C314 1.379 . S
C313 H330 0.930 . S
C314 C312 1.395 . S
C314 C313 1.379 . S
C314 H331 0.930 . S
C315 O298 1.264 . S
C315 O299 1.254 . S
C316 Eu252 2.848 1_565 S
C316 O296 1.257 1_565 S
C316 O301 1.249 1_565 S
C316 C309 1.492 . S
C317 H282 0.931 . S
C317 C295 1.420 . S
C317 C318 1.351 . S
C318 H280 0.930 . S
C318 C286 1.423 . S
C318 C317 1.351 . S
C319 O303 1.276 . S
C319 O306 1.235 . S
C320 C321 1.393 . S
C320 C324 1.395 . S
C320 C327 1.492 . S
C321 C320 1.393 . S
C321 C322 1.392 . S
C321 H332 0.930 . S
C322 C321 1.392 . S
C322 C323 1.386 . S
C323 C322 1.386 . S
C323 C325 1.395 . S
C323 H333 0.930 . S
C324 C320 1.395 . S
C324 C325 1.379 . S
C324 H334 0.930 . S
C325 C323 1.395 . S
C325 C324 1.379 . S
C325 H335 0.930 . S
C326 O304 1.264 . S
C326 O305 1.254 . S
C327 Eu263 2.848 . S
C327 O302 1.257 . S
C327 O307 1.249 . S
C327 C320 1.492 . S
H328 C311 0.930 . S
H329 C312 0.930 . S
H330 C313 0.930 . S
H331 C314 0.930 . S
H332 C321 0.930 . S
H333 C323 0.930 . S
H334 C324 0.930 . S
H335 C325 0.930 . S
Eu336 N367 2.657 . S
Eu336 N374 2.609 . S
Eu336 O380 2.558 . S
Eu336 O381 2.612 . S
Eu336 O383 2.339 . S
Eu336 O384 2.563 . S
Eu336 O385 2.419 . S
Eu336 O387 2.380 . S
Eu336 O388 2.432 . S
Eu336 C400 2.848 . S
C337 C340 1.429 . S
C337 C341 1.411 . S
C337 N344 1.377 . S
C338 C340 1.420 . S
C338 C342 1.423 . S
C338 C350 1.392 . S
C339 C341 1.420 . S
C339 C342 1.351 . S
C339 H362 0.931 . S
C340 C337 1.429 . S
C340 C338 1.420 . S
C340 N348 1.362 . S
C341 C337 1.411 . S
C341 C339 1.420 . S
C341 C346 1.395 . S
C342 C338 1.423 . S
C342 C339 1.351 . S
C342 H354 0.930 . S
C343 C345 1.400 . S
C343 C346 1.386 . S
C343 H355 0.930 . S
N344 C337 1.377 . S
N344 C345 1.321 . S
N344 Eu347 2.609 . S
C345 C343 1.400 . S
C345 N344 1.321 . S
C345 H352 0.930 . S
C346 C341 1.395 . S
C346 C343 1.386 . S
C346 H365 0.930 . S
Eu347 N344 2.609 . S
Eu347 N348 2.657 . S
Eu347 O381 2.380 . S
Eu347 O382 2.432 . S
Eu347 O386 2.558 . S
Eu347 O387 2.612 . S
Eu347 O389 2.339 . S
Eu347 O390 2.563 . S
Eu347 O391 2.419 . S
Eu347 C411 2.848 . S
N348 C340 1.362 . S
N348 Eu347 2.657 . S
N348 C349 1.334 . S
C349 N348 1.334 . S
C349 C351 1.413 . S
C349 H356 0.929 . S
C350 C338 1.392 . S
C350 C351 1.367 . S
C350 H358 0.930 . S
C351 C349 1.413 . S
C351 C350 1.367 . S
C351 H353 0.930 . S
H352 C345 0.930 . S
H353 C351 0.930 . S
H354 C342 0.930 . S
H355 C343 0.930 . S
H356 C349 0.929 . S
H357 C371 0.930 . S
H358 C350 0.930 . S
H359 C377 0.930 . S
H360 C368 0.929 . S
H361 C375 0.930 . S
H362 C339 0.931 . S
H363 C369 0.930 . S
H364 C402 0.930 . S
H365 C346 0.930 . S
H366 C401 0.931 . S
N367 Eu336 2.657 . S
N367 C368 1.334 . S
N367 C372 1.362 . S
C368 H360 0.929 . S
C368 N367 1.334 . S
C368 C371 1.413 1_655 S
C369 H363 0.930 . S
C369 C370 1.392 . S
C369 C371 1.367 . S
C370 C369 1.392 . S
C370 C372 1.420 1_455 S
C370 C402 1.423 . S
C371 H357 0.930 . S
C371 C368 1.413 1_455 S
C371 C369 1.367 . S
C372 N367 1.362 . S
C372 C370 1.420 1_655 S
C372 C376 1.429 . S
H373 C378 0.930 . S
N374 Eu336 2.609 . S
N374 C376 1.377 . S
N374 C377 1.321 . S
C375 H361 0.930 . S
C375 C377 1.400 1_556 S
C375 C378 1.386 . S
C376 C372 1.429 . S
C376 N374 1.377 . S
C376 C379 1.411 . S
C377 H359 0.930 . S
C377 N374 1.321 . S
C377 C375 1.400 1_554 S
C378 H373 0.930 . S
C378 C375 1.386 . S
C378 C379 1.395 1_556 S
C379 C376 1.411 . S
C379 C378 1.395 1_554 S
C379 C401 1.420 1_655 S
O380 Eu336 2.558 . S
O380 C400 1.257 . S
O381 Eu336 2.612 . S
O381 Eu347 2.380 . S
O381 C392 1.276 . S
O382 Eu347 2.432 . S
O382 C399 1.264 . S
O383 Eu336 2.339 . S
O383 C399 1.254 . S
O384 Eu336 2.563 . S
O384 C392 1.235 . S
O385 Eu336 2.419 . S
O385 C400 1.249 . S
O386 Eu347 2.558 . S
O386 C411 1.257 . S
O387 Eu336 2.380 . S
O387 Eu347 2.612 . S
O387 C403 1.276 . S
O388 Eu336 2.432 . S
O388 C410 1.264 . S
O389 Eu347 2.339 . S
O389 C410 1.254 . S
O390 Eu347 2.563 . S
O390 C403 1.235 . S
O391 Eu347 2.419 . S
O391 C411 1.249 . S
C392 O381 1.276 . S
C392 O384 1.235 . S
C393 C395 1.393 . S
C393 C397 1.395 . S
C393 C400 1.492 . S
C394 C395 1.392 . S
C394 C396 1.386 . S
C395 C393 1.393 . S
C395 C394 1.392 . S
C395 H412 0.930 . S
C396 C394 1.386 . S
C396 C398 1.395 . S
C396 H413 0.930 . S
C397 C393 1.395 . S
C397 C398 1.379 . S
C397 H414 0.930 . S
C398 C396 1.395 . S
C398 C397 1.379 . S
C398 H415 0.930 . S
C399 O382 1.264 . S
C399 O383 1.254 . S
C400 Eu336 2.848 . S
C400 O380 1.257 . S
C400 O385 1.249 . S
C400 C393 1.492 . S
C401 H366 0.931 . S
C401 C379 1.420 1_455 S
C401 C402 1.351 . S
C402 H364 0.930 . S
C402 C370 1.423 . S
C402 C401 1.351 . S
C403 O387 1.276 . S
C403 O390 1.235 . S
C404 C405 1.393 . S
C404 C408 1.395 . S
C404 C411 1.492 . S
C405 C404 1.393 . S
C405 C406 1.392 . S
C405 H416 0.930 . S
C406 C405 1.392 . S
C406 C407 1.386 . S
C407 C406 1.386 . S
C407 C409 1.395 . S
C407 H417 0.930 . S
C408 C404 1.395 . S
C408 C409 1.379 . S
C408 H418 0.930 . S
C409 C407 1.395 . S
C409 C408 1.379 . S
C409 H419 0.930 . S
C410 O388 1.264 . S
C410 O389 1.254 . S
C411 Eu347 2.848 . S
C411 O386 1.257 . S
C411 O391 1.249 . S
C411 C404 1.492 . S
H412 C395 0.930 . S
H413 C396 0.930 . S
H414 C397 0.930 . S
H415 C398 0.930 . S
H416 C405 0.930 . S
H417 C407 0.930 . S
H418 C408 0.930 . S
H419 C409 0.930 . S
Eu420 N451 2.657 . S
Eu420 N458 2.609 . S
Eu420 O464 2.558 . S
Eu420 O465 2.612 . S
Eu420 O467 2.339 . S
Eu420 O468 2.563 . S
Eu420 O469 2.419 . S
Eu420 O471 2.380 . S
Eu420 O472 2.432 . S
Eu420 C484 2.848 1_655 S
C421 C424 1.429 . S
C421 C425 1.411 . S
C421 N428 1.377 . S
C422 C424 1.420 1_565 S
C422 C426 1.423 . S
C422 C434 1.392 . S
C423 C425 1.420 1_565 S
C423 C426 1.351 . S
C423 H446 0.931 . S
C424 C421 1.429 . S
C424 C422 1.420 1_545 S
C424 N432 1.362 . S
C425 C421 1.411 . S
C425 C423 1.420 1_545 S
C425 C430 1.395 . S
C426 C422 1.423 . S
C426 C423 1.351 . S
C426 H438 0.930 . S
C427 C429 1.400 . S
C427 C430 1.386 . S
C427 H439 0.930 . S
N428 C421 1.377 . S
N428 C429 1.321 . S
N428 Eu431 2.609 . S
C429 C427 1.400 . S
C429 N428 1.321 . S
C429 H436 0.930 . S
C430 C425 1.395 . S
C430 C427 1.386 . S
C430 H449 0.930 . S
Eu431 N428 2.609 . S
Eu431 N432 2.657 . S
Eu431 O465 2.380 . S
Eu431 O466 2.432 . S
Eu431 O470 2.558 . S
Eu431 O471 2.612 . S
Eu431 O473 2.339 . S
Eu431 O474 2.563 . S
Eu431 O475 2.419 . S
Eu431 C495 2.848 . S
N432 C424 1.362 . S
N432 Eu431 2.657 . S
N432 C433 1.334 . S
C433 N432 1.334 . S
C433 C435 1.413 1_545 S
C433 H440 0.929 . S
C434 C422 1.392 . S
C434 C435 1.367 . S
C434 H442 0.930 . S
C435 C433 1.413 1_565 S
C435 C434 1.367 . S
C435 H437 0.930 . S
H436 C429 0.930 . S
H437 C435 0.930 . S
H438 C426 0.930 . S
H439 C427 0.930 . S
H440 C433 0.929 . S
H441 C455 0.930 . S
H442 C434 0.930 . S
H443 C461 0.930 . S
H444 C452 0.929 . S
H445 C459 0.930 . S
H446 C423 0.931 . S
H447 C453 0.930 . S
H448 C486 0.930 . S
H449 C430 0.930 . S
H450 C485 0.931 . S
N451 Eu420 2.657 . S
N451 C452 1.334 . S
N451 C456 1.362 . S
C452 H444 0.929 . S
C452 N451 1.334 . S
C452 C455 1.413 . S
C453 H447 0.930 . S
C453 C454 1.392 . S
C453 C455 1.367 1_455 S
C454 C453 1.392 . S
C454 C456 1.420 1_455 S
C454 C486 1.423 . S
C455 H441 0.930 . S
C455 C452 1.413 . S
C455 C453 1.367 1_655 S
C456 N451 1.362 . S
C456 C454 1.420 1_655 S
C456 C460 1.429 . S
H457 C462 0.925 1_455 S
N458 Eu420 2.609 . S
N458 C460 1.377 . S
N458 C461 1.321 . S
C459 H445 0.930 . S
C459 C461 1.400 . S
C459 C462 1.388 . S
C460 C456 1.429 . S
C460 N458 1.377 . S
C460 C463 1.411 1_655 S
C461 H443 0.930 . S
C461 N458 1.321 . S
C461 C459 1.400 . S
C462 H457 0.925 1_655 S
C462 C459 1.388 . S
C462 C463 1.398 1_655 S
C463 C460 1.411 1_455 S
C463 C462 1.398 1_455 S
C463 C485 1.420 . S
O464 Eu420 2.558 . S
O464 C484 1.257 1_655 S
O465 Eu420 2.612 . S
O465 Eu431 2.380 . S
O465 C476 1.276 . S
O466 Eu431 2.432 . S
O466 C483 1.264 . S
O467 Eu420 2.339 . S
O467 C483 1.254 . S
O468 Eu420 2.563 . S
O468 C476 1.235 . S
O469 Eu420 2.419 . S
O469 C484 1.249 1_655 S
O470 Eu431 2.558 . S
O470 C495 1.257 . S
O471 Eu420 2.380 . S
O471 Eu431 2.612 . S
O471 C487 1.276 . S
O472 Eu420 2.432 . S
O472 C494 1.264 . S
O473 Eu431 2.339 . S
O473 C494 1.254 . S
O474 Eu431 2.563 . S
O474 C487 1.235 . S
O475 Eu431 2.419 . S
O475 C495 1.249 . S
C476 O465 1.276 . S
C476 O468 1.235 . S
C477 C479 1.393 . S
C477 C481 1.395 . S
C477 C484 1.492 . S
C478 C479 1.392 . S
C478 C480 1.386 . S
C479 C477 1.393 . S
C479 C478 1.392 . S
C479 H496 0.930 . S
C480 C478 1.386 . S
C480 C482 1.395 . S
C480 H497 0.930 . S
C481 C477 1.395 . S
C481 C482 1.379 . S
C481 H498 0.930 . S
C482 C480 1.395 . S
C482 C481 1.379 . S
C482 H499 0.930 . S
C483 O466 1.264 . S
C483 O467 1.254 . S
C484 Eu420 2.848 1_455 S
C484 O464 1.257 1_455 S
C484 O469 1.249 1_455 S
C484 C477 1.492 . S
C485 H450 0.931 . S
C485 C463 1.420 . S
C485 C486 1.351 . S
C486 H448 0.930 . S
C486 C454 1.423 . S
C486 C485 1.351 . S
C487 O471 1.276 . S
C487 O474 1.235 . S
C488 C489 1.393 . S
C488 C492 1.395 . S
C488 C495 1.492 . S
C489 C488 1.393 . S
C489 C490 1.392 . S
C489 H500 0.930 . S
C490 C489 1.392 . S
C490 C491 1.386 . S
C491 C490 1.386 . S
C491 C493 1.395 . S
C491 H501 0.930 . S
C492 C488 1.395 . S
C492 C493 1.379 . S
C492 H502 0.930 . S
C493 C491 1.395 . S
C493 C492 1.379 . S
C493 H503 0.930 . S
C494 O472 1.264 . S
C494 O473 1.254 . S
C495 Eu431 2.848 . S
C495 O470 1.257 . S
C495 O475 1.249 . S
C495 C488 1.492 . S
H496 C479 0.930 . S
H497 C480 0.930 . S
H498 C481 0.930 . S
H499 C482 0.930 . S
H500 C489 0.930 . S
H501 C491 0.930 . S
H502 C492 0.930 . S
H503 C493 0.930 . S
Eu504 N535 2.657 . S
Eu504 N542 2.609 . S
Eu504 O548 2.558 . S
Eu504 O549 2.612 . S
Eu504 O551 2.339 . S
Eu504 O552 2.563 . S
Eu504 O553 2.419 . S
Eu504 O555 2.380 . S
Eu504 O556 2.432 . S
Eu504 C568 2.848 1_455 S
C505 C508 1.429 . S
C505 C509 1.411 . S
C505 N512 1.377 . S
C506 C508 1.420 . S
C506 C510 1.423 . S
C506 C518 1.392 . S
C507 C509 1.420 . S
C507 C510 1.351 . S
C507 H530 0.931 . S
C508 C505 1.429 . S
C508 C506 1.420 . S
C508 N516 1.362 . S
C509 C505 1.411 . S
C509 C507 1.420 . S
C509 C514 1.395 . S
C510 C506 1.423 . S
C510 C507 1.351 . S
C510 H522 0.930 . S
C511 C513 1.400 . S
C511 C514 1.386 . S
C511 H523 0.930 . S
N512 C505 1.377 . S
N512 C513 1.321 . S
N512 Eu515 2.609 . S
C513 C511 1.400 . S
C513 N512 1.321 . S
C513 H520 0.930 . S
C514 C509 1.395 . S
C514 C511 1.386 . S
C514 H533 0.930 . S
Eu515 N512 2.609 . S
Eu515 N516 2.657 . S
Eu515 O549 2.380 . S
Eu515 O550 2.432 . S
Eu515 O554 2.558 . S
Eu515 O555 2.612 . S
Eu515 O557 2.339 . S
Eu515 O558 2.563 . S
Eu515 O559 2.419 . S
Eu515 C579 2.848 . S
N516 C508 1.362 . S
N516 Eu515 2.657 . S
N516 C517 1.334 . S
C517 N516 1.334 . S
C517 C519 1.413 . S
C517 H524 0.929 . S
C518 C506 1.392 . S
C518 C519 1.367 . S
C518 H526 0.930 . S
C519 C517 1.413 . S
C519 C518 1.367 . S
C519 H521 0.930 . S
H520 C513 0.930 . S
H521 C519 0.930 . S
H522 C510 0.930 . S
H523 C511 0.930 . S
H524 C517 0.929 . S
H525 C539 0.930 . S
H526 C518 0.930 . S
H527 C545 0.930 . S
H528 C536 0.929 . S
H529 C543 0.930 . S
H530 C507 0.931 . S
H531 C537 0.930 . S
H532 C570 0.930 . S
H533 C514 0.930 . S
H534 C569 0.931 . S
N535 Eu504 2.657 . S
N535 C536 1.334 . S
N535 C540 1.362 . S
C536 H528 0.929 . S
C536 N535 1.334 . S
C536 C539 1.413 . S
C537 H531 0.930 . S
C537 C538 1.392 . S
C537 C539 1.367 1_655 S
C538 C537 1.392 . S
C538 C540 1.420 1_655 S
C538 C570 1.423 . S
C539 H525 0.930 . S
C539 C536 1.413 . S
C539 C537 1.367 1_455 S
C540 N535 1.362 . S
C540 C538 1.420 1_455 S
C540 C544 1.429 . S
H541 C546 0.914 1_655 S
N542 Eu504 2.609 . S
N542 C544 1.377 . S
N542 C545 1.321 . S
C543 H529 0.930 . S
C543 C545 1.400 . S
C543 C546 1.408 . S
C544 C540 1.429 . S
C544 N542 1.377 . S
C544 C547 1.411 1_455 S
C545 H527 0.930 . S
C545 N542 1.321 . S
C545 C543 1.400 . S
C546 H541 0.914 1_455 S
C546 C543 1.408 . S
C546 C547 1.389 1_455 S
C547 C544 1.411 1_655 S
C547 C546 1.389 1_655 S
C547 C569 1.420 . S
O548 Eu504 2.558 . S
O548 C568 1.257 1_455 S
O549 Eu504 2.612 . S
O549 Eu515 2.380 . S
O549 C560 1.276 . S
O550 Eu515 2.432 . S
O550 C567 1.264 . S
O551 Eu504 2.339 . S
O551 C567 1.254 . S
O552 Eu504 2.563 . S
O552 C560 1.235 . S
O553 Eu504 2.419 . S
O553 C568 1.249 1_455 S
O554 Eu515 2.558 . S
O554 C579 1.257 . S
O555 Eu504 2.380 . S
O555 Eu515 2.612 . S
O555 C571 1.276 . S
O556 Eu504 2.432 . S
O556 C578 1.264 . S
O557 Eu515 2.339 . S
O557 C578 1.254 . S
O558 Eu515 2.563 . S
O558 C571 1.235 . S
O559 Eu515 2.419 . S
O559 C579 1.249 . S
C560 O549 1.276 . S
C560 O552 1.235 . S
C561 C563 1.393 . S
C561 C565 1.395 . S
C561 C568 1.492 . S
C562 C563 1.392 . S
C562 C564 1.386 . S
C563 C561 1.393 . S
C563 C562 1.392 . S
C563 H580 0.930 . S
C564 C562 1.386 . S
C564 C566 1.395 . S
C564 H581 0.930 . S
C565 C561 1.395 . S
C565 C566 1.379 . S
C565 H582 0.930 . S
C566 C564 1.395 . S
C566 C565 1.379 . S
C566 H583 0.930 . S
C567 O550 1.264 . S
C567 O551 1.254 . S
C568 Eu504 2.848 1_655 S
C568 O548 1.257 1_655 S
C568 O553 1.249 1_655 S
C568 C561 1.492 . S
C569 H534 0.931 . S
C569 C547 1.420 . S
C569 C570 1.351 . S
C570 H532 0.930 . S
C570 C538 1.423 . S
C570 C569 1.351 . S
C571 O555 1.276 . S
C571 O558 1.235 . S
C572 C573 1.393 . S
C572 C576 1.395 . S
C572 C579 1.492 . S
C573 C572 1.393 . S
C573 C574 1.392 . S
C573 H584 0.930 . S
C574 C573 1.392 . S
C574 C575 1.386 . S
C575 C574 1.386 . S
C575 C577 1.395 . S
C575 H585 0.930 . S
C576 C572 1.395 . S
C576 C577 1.379 . S
C576 H586 0.930 . S
C577 C575 1.395 . S
C577 C576 1.379 . S
C577 H587 0.930 . S
C578 O556 1.264 . S
C578 O557 1.254 . S
C579 Eu515 2.848 . S
C579 O554 1.257 . S
C579 O559 1.249 . S
C579 C572 1.492 . S
H580 C563 0.930 . S
H581 C564 0.930 . S
H582 C565 0.930 . S
H583 C566 0.930 . S
H584 C573 0.930 . S
H585 C575 0.930 . S
H586 C576 0.930 . S
H587 C577 0.930 . S
Eu588 N619 2.657 . S
Eu588 N626 2.609 . S
Eu588 O632 2.558 . S
Eu588 O633 2.612 . S
Eu588 O635 2.339 . S
Eu588 O636 2.563 . S
Eu588 O637 2.419 . S
Eu588 O639 2.380 . S
Eu588 O640 2.432 . S
Eu588 C652 2.848 . S
C589 C592 1.429 . S
C589 C593 1.411 1_565 S
C589 N596 1.377 . S
C590 C592 1.420 1_545 S
C590 C594 1.423 . S
C590 C602 1.392 . S
C591 C593 1.420 . S
C591 C594 1.351 . S
C591 H614 0.931 . S
C592 C589 1.429 . S
C592 C590 1.420 1_565 S
C592 N600 1.362 . S
C593 C589 1.411 1_545 S
C593 C591 1.420 . S
C593 C598 1.398 1_545 S
C594 C590 1.423 . S
C594 C591 1.351 . S
C594 H606 0.930 . S
C595 C597 1.400 . S
C595 C598 1.388 . S
C595 H607 0.930 . S
N596 C589 1.377 . S
N596 C597 1.321 . S
N596 Eu599 2.609 . S
C597 C595 1.400 . S
C597 N596 1.321 . S
C597 H604 0.930 . S
C598 C593 1.398 1_565 S
C598 C595 1.388 . S
C598 H617 0.925 1_565 S
Eu599 N596 2.609 . S
Eu599 N600 2.657 . S
Eu599 O633 2.380 . S
Eu599 O634 2.432 . S
Eu599 O638 2.558 . S
Eu599 O639 2.612 . S
Eu599 O641 2.339 . S
Eu599 O642 2.563 . S
Eu599 O643 2.419 . S
Eu599 C663 2.848 1_565 S
N600 C592 1.362 . S
N600 Eu599 2.657 . S
N600 C601 1.334 . S
C601 N600 1.334 . S
C601 C603 1.413 . S
C601 H608 0.929 . S
C602 C590 1.392 . S
C602 C603 1.367 1_545 S
C602 H610 0.930 . S
C603 C601 1.413 . S
C603 C602 1.367 1_565 S
C603 H605 0.930 . S
H604 C597 0.930 . S
H605 C603 0.930 . S
H606 C594 0.930 . S
H607 C595 0.930 . S
H608 C601 0.929 . S
H609 C623 0.930 . S
H610 C602 0.930 . S
H611 C629 0.930 . S
H612 C620 0.929 . S
H613 C627 0.930 . S
H614 C591 0.931 . S
H615 C621 0.930 . S
H616 C654 0.930 . S
H617 C598 0.925 1_545 S
H618 C653 0.931 . S
N619 Eu588 2.657 . S
N619 C620 1.334 . S
N619 C624 1.362 . S
C620 H612 0.929 . S
C620 N619 1.334 . S
C620 C623 1.413 1_455 S
C621 H615 0.930 . S
C621 C622 1.392 . S
C621 C623 1.367 . S
C622 C621 1.392 . S
C622 C624 1.420 1_655 S
C622 C654 1.423 . S
C623 H609 0.930 . S
C623 C620 1.413 1_655 S
C623 C621 1.367 . S
C624 N619 1.362 . S
C624 C622 1.420 1_455 S
C624 C628 1.429 . S
H625 C630 0.930 . S
N626 Eu588 2.609 . S
N626 C628 1.377 . S
N626 C629 1.321 . S
C627 H613 0.930 . S
C627 C629 1.400 1_554 S
C627 C630 1.386 . S
C628 C624 1.429 . S
C628 N626 1.377 . S
C628 C631 1.411 . S
C629 H611 0.930 . S
C629 N626 1.321 . S
C629 C627 1.400 1_556 S
C630 H625 0.930 . S
C630 C627 1.386 . S
C630 C631 1.395 1_554 S
C631 C628 1.411 . S
C631 C630 1.395 1_556 S
C631 C653 1.420 1_455 S
O632 Eu588 2.558 . S
O632 C652 1.257 . S
O633 Eu588 2.612 . S
O633 Eu599 2.380 . S
O633 C644 1.276 . S
O634 Eu599 2.432 . S
O634 C651 1.264 . S
O635 Eu588 2.339 . S
O635 C651 1.254 . S
O636 Eu588 2.563 . S
O636 C644 1.235 . S
O637 Eu588 2.419 . S
O637 C652 1.249 . S
O638 Eu599 2.558 . S
O638 C663 1.257 1_565 S
O639 Eu588 2.380 . S
O639 Eu599 2.612 . S
O639 C655 1.276 . S
O640 Eu588 2.432 . S
O640 C662 1.264 . S
O641 Eu599 2.339 . S
O641 C662 1.254 . S
O642 Eu599 2.563 . S
O642 C655 1.235 . S
O643 Eu599 2.419 . S
O643 C663 1.249 1_565 S
C644 O633 1.276 . S
C644 O636 1.235 . S
C645 C647 1.393 . S
C645 C649 1.395 . S
C645 C652 1.492 . S
C646 C647 1.392 . S
C646 C648 1.386 . S
C647 C645 1.393 . S
C647 C646 1.392 . S
C647 H664 0.930 . S
C648 C646 1.386 . S
C648 C650 1.395 . S
C648 H665 0.930 . S
C649 C645 1.395 . S
C649 C650 1.379 . S
C649 H666 0.930 . S
C650 C648 1.395 . S
C650 C649 1.379 . S
C650 H667 0.930 . S
C651 O634 1.264 . S
C651 O635 1.254 . S
C652 Eu588 2.848 . S
C652 O632 1.257 . S
C652 O637 1.249 . S
C652 C645 1.492 . S
C653 H618 0.931 . S
C653 C631 1.420 1_655 S
C653 C654 1.351 . S
C654 H616 0.930 . S
C654 C622 1.423 . S
C654 C653 1.351 . S
C655 O639 1.276 . S
C655 O642 1.235 . S
C656 C657 1.393 . S
C656 C660 1.395 . S
C656 C663 1.492 . S
C657 C656 1.393 . S
C657 C658 1.392 . S
C657 H668 0.930 . S
C658 C657 1.392 . S
C658 C659 1.386 . S
C659 C658 1.386 . S
C659 C661 1.395 . S
C659 H669 0.930 . S
C660 C656 1.395 . S
C660 C661 1.379 . S
C660 H670 0.930 . S
C661 C659 1.395 . S
C661 C660 1.379 . S
C661 H671 0.930 . S
C662 O640 1.264 . S
C662 O641 1.254 . S
C663 Eu599 2.848 1_545 S
C663 O638 1.257 1_545 S
C663 O643 1.249 1_545 S
C663 C656 1.492 . S
H664 C647 0.930 . S
H665 C648 0.930 . S
H666 C649 0.930 . S
H667 C650 0.930 . S
H668 C657 0.930 . S
H669 C659 0.930 . S
H670 C660 0.930 . S
H671 C661 0.930 . S
Eu672 N703 2.657 . S
Eu672 N710 2.609 . S
Eu672 O716 2.558 . S
Eu672 O717 2.612 . S
Eu672 O719 2.339 . S
Eu672 O720 2.563 . S
Eu672 O721 2.419 . S
Eu672 O723 2.380 . S
Eu672 O724 2.432 . S
Eu672 C736 2.848 . S
C673 C676 1.429 . S
C673 C677 1.411 . S
C673 N680 1.377 . S
C674 C676 1.420 1_545 S
C674 C678 1.423 . S
C674 C686 1.392 . S
C675 C677 1.420 1_545 S
C675 C678 1.351 . S
C675 H698 0.931 . S
C676 C673 1.429 . S
C676 C674 1.420 1_565 S
C676 N684 1.362 . S
C677 C673 1.411 . S
C677 C675 1.420 1_565 S
C677 C682 1.395 . S
C678 C674 1.423 . S
C678 C675 1.351 . S
C678 H690 0.930 . S
C679 C681 1.400 . S
C679 C682 1.386 . S
C679 H691 0.930 . S
N680 C673 1.377 . S
N680 C681 1.321 . S
N680 Eu683 2.609 . S
C681 C679 1.400 . S
C681 N680 1.321 . S
C681 H688 0.930 . S
C682 C677 1.395 . S
C682 C679 1.386 . S
C682 H701 0.930 . S
Eu683 N680 2.609 . S
Eu683 N684 2.657 . S
Eu683 O717 2.380 . S
Eu683 O718 2.432 . S
Eu683 O722 2.558 . S
Eu683 O723 2.612 . S
Eu683 O725 2.339 . S
Eu683 O726 2.563 . S
Eu683 O727 2.419 . S
Eu683 C747 2.848 . S
N684 C676 1.362 . S
N684 Eu683 2.657 . S
N684 C685 1.334 . S
C685 N684 1.334 . S
C685 C687 1.413 1_565 S
C685 H692 0.929 . S
C686 C674 1.392 . S
C686 C687 1.367 . S
C686 H694 0.930 . S
C687 C685 1.413 1_545 S
C687 C686 1.367 . S
C687 H689 0.930 . S
H688 C681 0.930 . S
H689 C687 0.930 . S
H690 C678 0.930 . S
H691 C679 0.930 . S
H692 C685 0.929 . S
H693 C707 0.930 . S
H694 C686 0.930 . S
H695 C713 0.930 . S
H696 C704 0.929 . S
H697 C711 0.930 . S
H698 C675 0.931 . S
H699 C705 0.930 . S
H700 C738 0.930 . S
H701 C682 0.930 . S
H702 C737 0.931 . S
N703 Eu672 2.657 . S
N703 C704 1.334 . S
N703 C708 1.362 . S
C704 H696 0.929 . S
C704 N703 1.334 . S
C704 C707 1.413 . S
C705 H699 0.930 . S
C705 C706 1.392 . S
C705 C707 1.367 . S
C706 C705 1.392 . S
C706 C708 1.420 . S
C706 C738 1.423 . S
C707 H693 0.930 . S
C707 C704 1.413 . S
C707 C705 1.367 . S
C708 N703 1.362 . S
C708 C706 1.420 . S
C708 C712 1.429 . S
H709 C714 0.930 . S
N710 Eu672 2.609 . S
N710 C712 1.377 . S
N710 C713 1.321 . S
C711 H697 0.930 . S
C711 C713 1.400 . S
C711 C714 1.386 . S
C712 C708 1.429 . S
C712 N710 1.377 . S
C712 C715 1.411 . S
C713 H695 0.930 . S
C713 N710 1.321 . S
C713 C711 1.400 . S
C714 H709 0.930 . S
C714 C711 1.386 . S
C714 C715 1.395 . S
C715 C712 1.411 . S
C715 C714 1.395 . S
C715 C737 1.420 . S
O716 Eu672 2.558 . S
O716 C736 1.257 . S
O717 Eu672 2.612 . S
O717 Eu683 2.380 . S
O717 C728 1.276 . S
O718 Eu683 2.432 . S
O718 C735 1.264 . S
O719 Eu672 2.339 . S
O719 C735 1.254 . S
O720 Eu672 2.563 . S
O720 C728 1.235 . S
O721 Eu672 2.419 . S
O721 C736 1.249 . S
O722 Eu683 2.558 . S
O722 C747 1.257 . S
O723 Eu672 2.380 . S
O723 Eu683 2.612 . S
O723 C739 1.276 . S
O724 Eu672 2.432 . S
O724 C746 1.264 . S
O725 Eu683 2.339 . S
O725 C746 1.254 . S
O726 Eu683 2.563 . S
O726 C739 1.235 . S
O727 Eu683 2.419 . S
O727 C747 1.249 . S
C728 O717 1.276 . S
C728 O720 1.235 . S
C729 C731 1.393 . S
C729 C733 1.395 . S
C729 C736 1.492 . S
C730 C731 1.392 . S
C730 C732 1.386 . S
C731 C729 1.393 . S
C731 C730 1.392 . S
C731 H748 0.930 . S
C732 C730 1.386 . S
C732 C734 1.395 . S
C732 H749 0.930 . S
C733 C729 1.395 . S
C733 C734 1.379 . S
C733 H750 0.930 . S
C734 C732 1.395 . S
C734 C733 1.379 . S
C734 H751 0.930 . S
C735 O718 1.264 . S
C735 O719 1.254 . S
C736 Eu672 2.848 . S
C736 O716 1.257 . S
C736 O721 1.249 . S
C736 C729 1.492 . S
C737 H702 0.931 . S
C737 C715 1.420 . S
C737 C738 1.351 . S
C738 H700 0.930 . S
C738 C706 1.423 . S
C738 C737 1.351 . S
C739 O723 1.276 . S
C739 O726 1.235 . S
C740 C741 1.393 . S
C740 C744 1.395 . S
C740 C747 1.492 . S
C741 C740 1.393 . S
C741 C742 1.392 . S
C741 H752 0.930 . S
C742 C741 1.392 . S
C742 C743 1.386 . S
C743 C742 1.386 . S
C743 C745 1.395 . S
C743 H753 0.930 . S
C744 C740 1.395 . S
C744 C745 1.379 . S
C744 H754 0.930 . S
C745 C743 1.395 . S
C745 C744 1.379 . S
C745 H755 0.930 . S
C746 O724 1.264 . S
C746 O725 1.254 . S
C747 Eu683 2.848 . S
C747 O722 1.257 . S
C747 O727 1.249 . S
C747 C740 1.492 . S
H748 C731 0.930 . S
H749 C732 0.930 . S
H750 C733 0.930 . S
H751 C734 0.930 . S
H752 C741 0.930 . S
H753 C743 0.930 . S
H754 C744 0.930 . S
H755 C745 0.930 . S
Eu756 N787 2.657 . S
Eu756 N794 2.609 . S
Eu756 O800 2.558 . S
Eu756 O801 2.612 . S
Eu756 O803 2.339 . S
Eu756 O804 2.563 . S
Eu756 O805 2.419 . S
Eu756 O807 2.380 . S
Eu756 O808 2.432 . S
Eu756 C820 2.848 . S
C757 C760 1.429 . S
C757 C761 1.411 1_455 S
C757 N764 1.377 . S
C758 C760 1.420 1_655 S
C758 C762 1.423 . S
C758 C770 1.392 . S
C759 C761 1.420 . S
C759 C762 1.351 . S
C759 H782 0.931 . S
C760 C757 1.429 . S
C760 C758 1.420 1_455 S
C760 N768 1.362 . S
C761 C757 1.411 1_655 S
C761 C759 1.420 . S
C761 C766 1.389 1_655 S
C762 C758 1.423 . S
C762 C759 1.351 . S
C762 H774 0.930 . S
C763 C765 1.400 . S
C763 C766 1.408 . S
C763 H775 0.930 . S
N764 C757 1.377 . S
N764 C765 1.321 . S
N764 Eu767 2.609 . S
C765 C763 1.400 . S
C765 N764 1.321 . S
C765 H772 0.930 . S
C766 C761 1.389 1_455 S
C766 C763 1.408 . S
C766 H785 0.914 1_455 S
Eu767 N764 2.609 . S
Eu767 N768 2.657 . S
Eu767 O801 2.380 . S
Eu767 O802 2.432 . S
Eu767 O806 2.558 . S
Eu767 O807 2.612 . S
Eu767 O809 2.339 . S
Eu767 O810 2.563 . S
Eu767 O811 2.419 . S
Eu767 C831 2.848 1_455 S
N768 C760 1.362 . S
N768 Eu767 2.657 . S
N768 C769 1.334 . S
C769 N768 1.334 . S
C769 C771 1.413 . S
C769 H776 0.929 . S
C770 C758 1.392 . S
C770 C771 1.367 1_655 S
C770 H778 0.930 . S
C771 C769 1.413 . S
C771 C770 1.367 1_455 S
C771 H773 0.930 . S
H772 C765 0.930 . S
H773 C771 0.930 . S
H774 C762 0.930 . S
H775 C763 0.930 . S
H776 C769 0.929 . S
H777 C791 0.930 . S
H778 C770 0.930 . S
H779 C797 0.930 . S
H780 C788 0.929 . S
H781 C795 0.930 . S
H782 C759 0.931 . S
H783 C789 0.930 . S
H784 C822 0.930 . S
H785 C766 0.914 1_655 S
H786 C821 0.931 . S
N787 Eu756 2.657 . S
N787 C788 1.334 . S
N787 C792 1.362 . S
C788 H780 0.929 . S
C788 N787 1.334 . S
C788 C791 1.413 . S
C789 H783 0.930 . S
C789 C790 1.392 . S
C789 C791 1.367 . S
C790 C789 1.392 . S
C790 C792 1.420 . S
C790 C822 1.423 . S
C791 H777 0.930 . S
C791 C788 1.413 . S
C791 C789 1.367 . S
C792 N787 1.362 . S
C792 C790 1.420 . S
C792 C796 1.429 . S
H793 C798 0.930 . S
N794 Eu756 2.609 . S
N794 C796 1.377 . S
N794 C797 1.321 . S
C795 H781 0.930 . S
C795 C797 1.400 1_554 S
C795 C798 1.386 . S
C796 C792 1.429 . S
C796 N794 1.377 . S
C796 C799 1.411 . S
C797 H779 0.930 . S
C797 N794 1.321 . S
C797 C795 1.400 1_556 S
C798 H793 0.930 . S
C798 C795 1.386 . S
C798 C799 1.395 1_554 S
C799 C796 1.411 . S
C799 C798 1.395 1_556 S
C799 C821 1.420 . S
O800 Eu756 2.558 . S
O800 C820 1.257 . S
O801 Eu756 2.612 . S
O801 Eu767 2.380 . S
O801 C812 1.276 . S
O802 Eu767 2.432 . S
O802 C819 1.264 . S
O803 Eu756 2.339 . S
O803 C819 1.254 . S
O804 Eu756 2.563 . S
O804 C812 1.235 . S
O805 Eu756 2.419 . S
O805 C820 1.249 . S
O806 Eu767 2.558 . S
O806 C831 1.257 1_455 S
O807 Eu756 2.380 . S
O807 Eu767 2.612 . S
O807 C823 1.276 . S
O808 Eu756 2.432 . S
O808 C830 1.264 . S
O809 Eu767 2.339 . S
O809 C830 1.254 . S
O810 Eu767 2.563 . S
O810 C823 1.235 . S
O811 Eu767 2.419 . S
O811 C831 1.249 1_455 S
C812 O801 1.276 . S
C812 O804 1.235 . S
C813 C815 1.393 . S
C813 C817 1.395 . S
C813 C820 1.492 . S
C814 C815 1.392 . S
C814 C816 1.386 . S
C815 C813 1.393 . S
C815 C814 1.392 . S
C815 H832 0.930 . S
C816 C814 1.386 . S
C816 C818 1.395 . S
C816 H833 0.930 . S
C817 C813 1.395 . S
C817 C818 1.379 . S
C817 H834 0.930 . S
C818 C816 1.395 . S
C818 C817 1.379 . S
C818 H835 0.930 . S
C819 O802 1.264 . S
C819 O803 1.254 . S
C820 Eu756 2.848 . S
C820 O800 1.257 . S
C820 O805 1.249 . S
C820 C813 1.492 . S
C821 H786 0.931 . S
C821 C799 1.420 . S
C821 C822 1.351 . S
C822 H784 0.930 . S
C822 C790 1.423 . S
C822 C821 1.351 . S
C823 O807 1.276 . S
C823 O810 1.235 . S
C824 C825 1.393 . S
C824 C828 1.395 . S
C824 C831 1.492 . S
C825 C824 1.393 . S
C825 C826 1.392 . S
C825 H836 0.930 . S
C826 C825 1.392 . S
C826 C827 1.386 . S
C827 C826 1.386 . S
C827 C829 1.395 . S
C827 H837 0.930 . S
C828 C824 1.395 . S
C828 C829 1.379 . S
C828 H838 0.930 . S
C829 C827 1.395 . S
C829 C828 1.379 . S
C829 H839 0.930 . S
C830 O808 1.264 . S
C830 O809 1.254 . S
C831 Eu767 2.848 1_655 S
C831 O806 1.257 1_655 S
C831 O811 1.249 1_655 S
C831 C824 1.492 . S
H832 C815 0.930 . S
H833 C816 0.930 . S
H834 C817 0.930 . S
H835 C818 0.930 . S
H836 C825 0.930 . S
H837 C827 0.930 . S
H838 C828 0.930 . S
H839 C829 0.930 . S
Eu840 N871 2.657 . S
Eu840 N878 2.609 . S
Eu840 O884 2.558 . S
Eu840 O885 2.612 . S
Eu840 O887 2.339 . S
Eu840 O888 2.563 . S
Eu840 O889 2.419 . S
Eu840 O891 2.380 . S
Eu840 O892 2.432 . S
Eu840 C904 2.848 1_565 S
C841 C844 1.429 . S
C841 C845 1.411 . S
C841 N848 1.377 . S
C842 C844 1.420 1_655 S
C842 C846 1.423 . S
C842 C854 1.392 . S
C843 C845 1.420 1_655 S
C843 C846 1.351 . S
C843 H866 0.931 . S
C844 C841 1.429 . S
C844 C842 1.420 1_455 S
C844 N852 1.362 . S
C845 C841 1.411 . S
C845 C843 1.420 1_455 S
C845 C850 1.395 . S
C846 C842 1.423 . S
C846 C843 1.351 . S
C846 H858 0.930 . S
C847 C849 1.400 . S
C847 C850 1.386 . S
C847 H859 0.930 . S
N848 C841 1.377 . S
N848 C849 1.321 . S
N848 Eu851 2.609 . S
C849 C847 1.400 . S
C849 N848 1.321 . S
C849 H856 0.930 . S
C850 C845 1.395 . S
C850 C847 1.386 . S
C850 H869 0.930 . S
Eu851 N848 2.609 . S
Eu851 N852 2.657 . S
Eu851 O885 2.380 . S
Eu851 O886 2.432 . S
Eu851 O890 2.558 . S
Eu851 O891 2.612 . S
Eu851 O893 2.339 . S
Eu851 O894 2.563 . S
Eu851 O895 2.419 . S
Eu851 C915 2.848 . S
N852 C844 1.362 . S
N852 Eu851 2.657 . S
N852 C853 1.334 . S
C853 N852 1.334 . S
C853 C855 1.413 1_455 S
C853 H860 0.929 . S
C854 C842 1.392 . S
C854 C855 1.367 . S
C854 H862 0.930 . S
C855 C853 1.413 1_655 S
C855 C854 1.367 . S
C855 H857 0.930 . S
H856 C849 0.930 . S
H857 C855 0.930 . S
H858 C846 0.930 . S
H859 C847 0.930 . S
H860 C853 0.929 . S
H861 C875 0.930 . S
H862 C854 0.930 . S
H863 C881 0.930 . S
H864 C872 0.929 . S
H865 C879 0.930 . S
H866 C843 0.931 . S
H867 C873 0.930 . S
H868 C906 0.930 . S
H869 C850 0.930 . S
H870 C905 0.931 . S
N871 Eu840 2.657 . S
N871 C872 1.334 . S
N871 C876 1.362 . S
C872 H864 0.929 . S
C872 N871 1.334 . S
C872 C875 1.413 . S
C873 H867 0.930 . S
C873 C874 1.392 . S
C873 C875 1.367 1_545 S
C874 C873 1.392 . S
C874 C876 1.420 1_545 S
C874 C906 1.423 . S
C875 H861 0.930 . S
C875 C872 1.413 . S
C875 C873 1.367 1_565 S
C876 N871 1.362 . S
C876 C874 1.420 1_565 S
C876 C880 1.429 . S
H877 C882 0.925 1_545 S
N878 Eu840 2.609 . S
N878 C880 1.377 . S
N878 C881 1.321 . S
C879 H865 0.930 . S
C879 C881 1.400 . S
C879 C882 1.388 . S
C880 C876 1.429 . S
C880 N878 1.377 . S
C880 C883 1.411 1_565 S
C881 H863 0.930 . S
C881 N878 1.321 . S
C881 C879 1.400 . S
C882 H877 0.925 1_565 S
C882 C879 1.388 . S
C882 C883 1.398 1_565 S
C883 C880 1.411 1_545 S
C883 C882 1.398 1_545 S
C883 C905 1.420 . S
O884 Eu840 2.558 . S
O884 C904 1.257 1_565 S
O885 Eu840 2.612 . S
O885 Eu851 2.380 . S
O885 C896 1.276 . S
O886 Eu851 2.432 . S
O886 C903 1.264 . S
O887 Eu840 2.339 . S
O887 C903 1.254 . S
O888 Eu840 2.563 . S
O888 C896 1.235 . S
O889 Eu840 2.419 . S
O889 C904 1.249 1_565 S
O890 Eu851 2.558 . S
O890 C915 1.257 . S
O891 Eu840 2.380 . S
O891 Eu851 2.612 . S
O891 C907 1.276 . S
O892 Eu840 2.432 . S
O892 C914 1.264 . S
O893 Eu851 2.339 . S
O893 C914 1.254 . S
O894 Eu851 2.563 . S
O894 C907 1.235 . S
O895 Eu851 2.419 . S
O895 C915 1.249 . S
C896 O885 1.276 . S
C896 O888 1.235 . S
C897 C899 1.393 . S
C897 C901 1.395 . S
C897 C904 1.492 . S
C898 C899 1.392 . S
C898 C900 1.386 . S
C899 C897 1.393 . S
C899 C898 1.392 . S
C899 H916 0.930 . S
C900 C898 1.386 . S
C900 C902 1.395 . S
C900 H917 0.930 . S
C901 C897 1.395 . S
C901 C902 1.379 . S
C901 H918 0.930 . S
C902 C900 1.395 . S
C902 C901 1.379 . S
C902 H919 0.930 . S
C903 O886 1.264 . S
C903 O887 1.254 . S
C904 Eu840 2.848 1_545 S
C904 O884 1.257 1_545 S
C904 O889 1.249 1_545 S
C904 C897 1.492 . S
C905 H870 0.931 . S
C905 C883 1.420 . S
C905 C906 1.351 . S
C906 H868 0.930 . S
C906 C874 1.423 . S
C906 C905 1.351 . S
C907 O891 1.276 . S
C907 O894 1.235 . S
C908 C909 1.393 . S
C908 C912 1.395 . S
C908 C915 1.492 . S
C909 C908 1.393 . S
C909 C910 1.392 . S
C909 H920 0.930 . S
C910 C909 1.392 . S
C910 C911 1.386 . S
C911 C910 1.386 . S
C911 C913 1.395 . S
C911 H921 0.930 . S
C912 C908 1.395 . S
C912 C913 1.379 . S
C912 H922 0.930 . S
C913 C911 1.395 . S
C913 C912 1.379 . S
C913 H923 0.930 . S
C914 O892 1.264 . S
C914 O893 1.254 . S
C915 Eu851 2.848 . S
C915 O890 1.257 . S
C915 O895 1.249 . S
C915 C908 1.492 . S
H916 C899 0.930 . S
H917 C900 0.930 . S
H918 C901 0.930 . S
H919 C902 0.930 . S
H920 C909 0.930 . S
H921 C911 0.930 . S
H922 C912 0.930 . S
H923 C913 0.930 . S
Eu924 N955 2.657 . S
Eu924 N962 2.609 . S
Eu924 O968 2.558 . S
Eu924 O969 2.612 . S
Eu924 O971 2.339 . S
Eu924 O972 2.563 . S
Eu924 O973 2.419 . S
Eu924 O975 2.380 . S
Eu924 O976 2.432 . S
Eu924 C988 2.848 . S
C925 C928 1.429 . S
C925 C929 1.411 . S
C925 N932 1.377 . S
C926 C928 1.420 . S
C926 C930 1.423 . S
C926 C938 1.392 . S
C927 C929 1.420 . S
C927 C930 1.351 . S
C927 H950 0.931 . S
C928 C925 1.429 . S
C928 C926 1.420 . S
C928 N936 1.362 . S
C929 C925 1.411 . S
C929 C927 1.420 . S
C929 C934 1.395 . S
C930 C926 1.423 . S
C930 C927 1.351 . S
C930 H942 0.930 . S
C931 C933 1.400 . S
C931 C934 1.386 . S
C931 H943 0.930 . S
N932 C925 1.377 . S
N932 C933 1.321 . S
N932 Eu935 2.609 . S
C933 C931 1.400 . S
C933 N932 1.321 . S
C933 H940 0.930 . S
C934 C929 1.395 . S
C934 C931 1.386 . S
C934 H953 0.930 . S
Eu935 N932 2.609 . S
Eu935 N936 2.657 . S
Eu935 O969 2.380 . S
Eu935 O970 2.432 . S
Eu935 O974 2.558 . S
Eu935 O975 2.612 . S
Eu935 O977 2.339 . S
Eu935 O978 2.563 . S
Eu935 O979 2.419 . S
Eu935 C999 2.848 . S
N936 C928 1.362 . S
N936 Eu935 2.657 . S
N936 C937 1.334 . S
C937 N936 1.334 . S
C937 C939 1.413 . S
C937 H944 0.929 . S
C938 C926 1.392 . S
C938 C939 1.367 . S
C938 H946 0.930 . S
C939 C937 1.413 . S
C939 C938 1.367 . S
C939 H941 0.930 . S
H940 C933 0.930 . S
H941 C939 0.930 . S
H942 C930 0.930 . S
H943 C931 0.930 . S
H944 C937 0.929 . S
H945 C959 0.930 . S
H946 C938 0.930 . S
H947 C965 0.930 . S
H948 C956 0.929 . S
H949 C963 0.930 . S
H950 C927 0.931 . S
H951 C957 0.930 . S
H952 C990 0.930 . S
H953 C934 0.930 . S
H954 C989 0.931 . S
N955 Eu924 2.657 . S
N955 C956 1.334 . S
N955 C960 1.362 . S
C956 H948 0.929 . S
C956 N955 1.334 . S
C956 C959 1.413 1_565 S
C957 H951 0.930 . S
C957 C958 1.392 . S
C957 C959 1.367 . S
C958 C957 1.392 . S
C958 C960 1.420 1_545 S
C958 C990 1.423 . S
C959 H945 0.930 . S
C959 C956 1.413 1_545 S
C959 C957 1.367 . S
C960 N955 1.362 . S
C960 C958 1.420 1_565 S
C960 C964 1.429 . S
H961 C966 0.930 . S
N962 Eu924 2.609 . S
N962 C964 1.377 . S
N962 C965 1.321 . S
C963 H949 0.930 . S
C963 C965 1.400 1_554 S
C963 C966 1.386 . S
C964 C960 1.429 . S
C964 N962 1.377 . S
C964 C967 1.411 . S
C965 H947 0.930 . S
C965 N962 1.321 . S
C965 C963 1.400 1_556 S
C966 H961 0.930 . S
C966 C963 1.386 . S
C966 C967 1.395 1_554 S
C967 C964 1.411 . S
C967 C966 1.395 1_556 S
C967 C989 1.420 1_565 S
O968 Eu924 2.558 . S
O968 C988 1.257 . S
O969 Eu924 2.612 . S
O969 Eu935 2.380 . S
O969 C980 1.276 . S
O970 Eu935 2.432 . S
O970 C987 1.264 . S
O971 Eu924 2.339 . S
O971 C987 1.254 . S
O972 Eu924 2.563 . S
O972 C980 1.235 . S
O973 Eu924 2.419 . S
O973 C988 1.249 . S
O974 Eu935 2.558 . S
O974 C999 1.257 . S
O975 Eu924 2.380 . S
O975 Eu935 2.612 . S
O975 C991 1.276 . S
O976 Eu924 2.432 . S
O976 C998 1.264 . S
O977 Eu935 2.339 . S
O977 C998 1.254 . S
O978 Eu935 2.563 . S
O978 C991 1.235 . S
O979 Eu935 2.419 . S
O979 C999 1.249 . S
C980 O969 1.276 . S
C980 O972 1.235 . S
C981 C983 1.393 . S
C981 C985 1.395 . S
C981 C988 1.492 . S
C982 C983 1.392 . S
C982 C984 1.386 . S
C983 C981 1.393 . S
C983 C982 1.392 . S
C983 H1000 0.930 . S
C984 C982 1.386 . S
C984 C986 1.395 . S
C984 H1001 0.930 . S
C985 C981 1.395 . S
C985 C986 1.379 . S
C985 H1002 0.930 . S
C986 C984 1.395 . S
C986 C985 1.379 . S
C986 H1003 0.930 . S
C987 O970 1.264 . S
C987 O971 1.254 . S
C988 Eu924 2.848 . S
C988 O968 1.257 . S
C988 O973 1.249 . S
C988 C981 1.492 . S
C989 H954 0.931 . S
C989 C967 1.420 1_545 S
C989 C990 1.351 . S
C990 H952 0.930 . S
C990 C958 1.423 . S
C990 C989 1.351 . S
C991 O975 1.276 . S
C991 O978 1.235 . S
C992 C993 1.393 . S
C992 C996 1.395 . S
C992 C999 1.492 . S
C993 C992 1.393 . S
C993 C994 1.392 . S
C993 H1004 0.930 . S
C994 C993 1.392 . S
C994 C995 1.386 . S
C995 C994 1.386 . S
C995 C997 1.395 . S
C995 H1005 0.930 . S
C996 C992 1.395 . S
C996 C997 1.379 . S
C996 H1006 0.930 . S
C997 C995 1.395 . S
C997 C996 1.379 . S
C997 H1007 0.930 . S
C998 O976 1.264 . S
C998 O977 1.254 . S
C999 Eu935 2.848 . S
C999 O974 1.257 . S
C999 O979 1.249 . S
C999 C992 1.492 . S
H1000 C983 0.930 . S
H1001 C984 0.930 . S
H1002 C985 0.930 . S
H1003 C986 0.930 . S
H1004 C993 0.930 . S
H1005 C995 0.930 . S
H1006 C996 0.930 . S
H1007 C997 0.930 . S
C1008 C1009 1.363 . S
C1008 C1014 1.379 . S
C1008 N1016 1.356 . S
C1009 C1008 1.363 . S
C1009 C1015 1.363 . S
C1010 C1011 1.363 . S
C1010 C1015 1.379 . S
C1010 N1017 1.356 . S
C1011 C1010 1.363 . S
C1011 C1014 1.363 . S
N1012 C1014 1.356 . S
N1012 H1024 0.984 . S
N1012 H1025 0.985 . S
N1013 C1015 1.356 . S
N1013 H1018 0.984 . S
N1013 H1019 0.985 . S
C1014 C1008 1.379 . S
C1014 C1011 1.363 . S
C1014 N1012 1.356 . S
C1015 C1009 1.363 . S
C1015 C1010 1.379 . S
C1015 N1013 1.356 . S
N1016 C1008 1.356 . S
N1016 H1022 0.984 . S
N1016 H1023 0.984 . S
N1017 C1010 1.356 . S
N1017 H1020 0.984 . S
N1017 H1021 0.985 . S
H1018 N1013 0.984 . S
H1019 N1013 0.985 . S
H1020 N1017 0.984 . S
H1021 N1017 0.985 . S
H1022 N1016 0.984 . S
H1023 N1016 0.984 . S
H1024 N1012 0.984 . S
H1025 N1012 0.985 . S
C1026 C1027 1.363 . S
C1026 C1032 1.379 1_455 S
C1026 N1034 1.356 . S
C1027 C1026 1.363 . S
C1027 C1033 1.363 . S
C1028 C1029 1.363 . S
C1028 C1033 1.379 1_655 S
C1028 N1035 1.356 . S
C1029 C1028 1.363 . S
C1029 C1032 1.363 . S
N1030 C1032 1.356 . S
N1030 H1042 0.984 . S
N1030 H1043 0.985 . S
N1031 C1033 1.356 . S
N1031 H1036 0.984 . S
N1031 H1037 0.985 . S
C1032 C1026 1.379 1_655 S
C1032 C1029 1.363 . S
C1032 N1030 1.356 . S
C1033 C1027 1.363 . S
C1033 C1028 1.379 1_455 S
C1033 N1031 1.356 . S
N1034 C1026 1.356 . S
N1034 H1040 0.984 . S
N1034 H1041 0.984 . S
N1035 C1028 1.356 . S
N1035 H1038 0.984 . S
N1035 H1039 0.985 . S
H1036 N1031 0.984 . S
H1037 N1031 0.985 . S
H1038 N1035 0.984 . S
H1039 N1035 0.985 . S
H1040 N1034 0.984 . S
H1041 N1034 0.984 . S
H1042 N1030 0.984 . S
H1043 N1030 0.985 . S
C1044 C1045 1.363 . S
C1044 C1050 1.379 1_545 S
C1044 N1052 1.356 . S
C1045 C1044 1.363 . S
C1045 C1051 1.363 . S
C1046 C1047 1.363 . S
C1046 C1051 1.379 1_565 S
C1046 N1053 1.356 . S
C1047 C1046 1.363 . S
C1047 C1050 1.363 . S
N1048 C1050 1.356 . S
N1048 H1060 0.984 . S
N1048 H1061 0.985 . S
N1049 C1051 1.356 . S
N1049 H1054 0.984 . S
N1049 H1055 0.985 . S
C1050 C1044 1.379 1_565 S
C1050 C1047 1.363 . S
C1050 N1048 1.356 . S
C1051 C1045 1.363 . S
C1051 C1046 1.379 1_545 S
C1051 N1049 1.356 . S
N1052 C1044 1.356 . S
N1052 H1058 0.984 . S
N1052 H1059 0.984 . S
N1053 C1046 1.356 . S
N1053 H1056 0.984 . S
N1053 H1057 0.985 . S
H1054 N1049 0.984 . S
H1055 N1049 0.985 . S
H1056 N1053 0.984 . S
H1057 N1053 0.985 . S
H1058 N1052 0.984 . S
H1059 N1052 0.984 . S
H1060 N1048 0.984 . S
H1061 N1048 0.985 . S
C1062 C1063 1.363 . S
C1062 C1068 1.379 . S
C1062 N1070 1.356 . S
C1063 C1062 1.363 . S
C1063 C1069 1.363 . S
C1064 C1065 1.363 . S
C1064 C1069 1.379 . S
C1064 N1071 1.356 . S
C1065 C1064 1.363 . S
C1065 C1068 1.363 . S
N1066 C1068 1.356 . S
N1066 H1078 0.984 . S
N1066 H1079 0.985 . S
N1067 C1069 1.356 . S
N1067 H1072 0.984 . S
N1067 H1073 0.985 . S
C1068 C1062 1.379 . S
C1068 C1065 1.363 . S
C1068 N1066 1.356 . S
C1069 C1063 1.363 . S
C1069 C1064 1.379 . S
C1069 N1067 1.356 . S
N1070 C1062 1.356 . S
N1070 H1076 0.984 . S
N1070 H1077 0.984 . S
N1071 C1064 1.356 . S
N1071 H1074 0.984 . S
N1071 H1075 0.985 . S
H1072 N1067 0.984 . S
H1073 N1067 0.985 . S
H1074 N1071 0.984 . S
H1075 N1071 0.985 . S
H1076 N1070 0.984 . S
H1077 N1070 0.984 . S
H1078 N1066 0.984 . S
H1079 N1066 0.985 . S
C1080 C1081 1.363 . S
C1080 C1086 1.379 1_455 S
C1080 N1088 1.356 . S
C1081 C1080 1.363 . S
C1081 C1087 1.363 . S
C1082 C1083 1.363 . S
C1082 C1087 1.379 1_655 S
C1082 N1089 1.356 . S
C1083 C1082 1.363 . S
C1083 C1086 1.363 . S
N1084 C1086 1.356 . S
N1084 H1096 0.984 . S
N1084 H1097 0.985 . S
N1085 C1087 1.356 . S
N1085 H1090 0.984 . S
N1085 H1091 0.985 . S
C1086 C1080 1.379 1_655 S
C1086 C1083 1.363 . S
C1086 N1084 1.356 . S
C1087 C1081 1.363 . S
C1087 C1082 1.379 1_455 S
C1087 N1085 1.356 . S
N1088 C1080 1.356 . S
N1088 H1094 0.984 . S
N1088 H1095 0.984 . S
N1089 C1082 1.356 . S
N1089 H1092 0.984 . S
N1089 H1093 0.985 . S
H1090 N1085 0.984 . S
H1091 N1085 0.985 . S
H1092 N1089 0.984 . S
H1093 N1089 0.985 . S
H1094 N1088 0.984 . S
H1095 N1088 0.984 . S
H1096 N1084 0.984 . S
H1097 N1084 0.985 . S
C1098 C1099 1.363 . S
C1098 C1104 1.379 1_565 S
C1098 N1106 1.356 . S
C1099 C1098 1.363 . S
C1099 C1105 1.363 . S
C1100 C1101 1.363 . S
C1100 C1105 1.379 1_545 S
C1100 N1107 1.356 . S
C1101 C1100 1.363 . S
C1101 C1104 1.363 . S
N1102 C1104 1.356 . S
N1102 H1114 0.984 . S
N1102 H1115 0.985 . S
N1103 C1105 1.356 . S
N1103 H1108 0.984 . S
N1103 H1109 0.985 . S
C1104 C1098 1.379 1_545 S
C1104 C1101 1.363 . S
C1104 N1102 1.356 . S
C1105 C1099 1.363 . S
C1105 C1100 1.379 1_565 S
C1105 N1103 1.356 . S
N1106 C1098 1.356 . S
N1106 H1112 0.984 . S
N1106 H1113 0.984 . S
N1107 C1100 1.356 . S
N1107 H1110 0.984 . S
N1107 H1111 0.985 . S
H1108 N1103 0.984 . S
H1109 N1103 0.985 . S
H1110 N1107 0.984 . S
H1111 N1107 0.985 . S
H1112 N1106 0.984 . S
H1113 N1106 0.984 . S
H1114 N1102 0.984 . S
H1115 N1102 0.985 . S
C1116 C1117 1.363 . S
C1116 C1122 1.379 . S
C1116 N1124 1.356 . S
C1117 C1116 1.363 . S
C1117 C1123 1.363 . S
C1118 C1119 1.363 . S
C1118 C1123 1.379 . S
C1118 N1125 1.356 . S
C1119 C1118 1.363 . S
C1119 C1122 1.363 . S
N1120 C1122 1.356 . S
N1120 H1132 0.984 . S
N1120 H1133 0.985 . S
N1121 C1123 1.356 . S
N1121 H1126 0.984 . S
N1121 H1127 0.985 . S
C1122 C1116 1.379 . S
C1122 C1119 1.363 . S
C1122 N1120 1.356 . S
C1123 C1117 1.363 . S
C1123 C1118 1.379 . S
C1123 N1121 1.356 . S
N1124 C1116 1.356 . S
N1124 H1130 0.984 . S
N1124 H1131 0.984 . S
N1125 C1118 1.356 . S
N1125 H1128 0.984 . S
N1125 H1129 0.985 . S
H1126 N1121 0.984 . S
H1127 N1121 0.985 . S
H1128 N1125 0.984 . S
H1129 N1125 0.985 . S
H1130 N1124 0.984 . S
H1131 N1124 0.984 . S
H1132 N1120 0.984 . S
H1133 N1120 0.985 . S
C1134 C1135 1.363 . S
C1134 C1140 1.379 1_455 S
C1134 N1142 1.356 . S
C1135 C1134 1.363 . S
C1135 C1141 1.363 . S
C1136 C1137 1.363 . S
C1136 C1141 1.379 1_655 S
C1136 N1143 1.356 . S
C1137 C1136 1.363 . S
C1137 C1140 1.363 . S
N1138 C1140 1.356 . S
N1138 H1150 0.984 . S
N1138 H1151 0.985 . S
N1139 C1141 1.356 . S
N1139 H1144 0.984 . S
N1139 H1145 0.985 . S
C1140 C1134 1.379 1_655 S
C1140 C1137 1.363 . S
C1140 N1138 1.356 . S
C1141 C1135 1.363 . S
C1141 C1136 1.379 1_455 S
C1141 N1139 1.356 . S
N1142 C1134 1.356 . S
N1142 H1148 0.984 . S
N1142 H1149 0.984 . S
N1143 C1136 1.356 . S
N1143 H1146 0.984 . S
N1143 H1147 0.985 . S
H1144 N1139 0.984 . S
H1145 N1139 0.985 . S
H1146 N1143 0.984 . S
H1147 N1143 0.985 . S
H1148 N1142 0.984 . S
H1149 N1142 0.984 . S
H1150 N1138 0.984 . S
H1151 N1138 0.985 . S
C1152 C1153 1.363 . S
C1152 C1158 1.379 1_565 S
C1152 N1160 1.356 . S
C1153 C1152 1.363 . S
C1153 C1159 1.363 . S
C1154 C1155 1.363 . S
C1154 C1159 1.379 1_545 S
C1154 N1161 1.356 . S
C1155 C1154 1.363 . S
C1155 C1158 1.363 . S
N1156 C1158 1.356 . S
N1156 H1168 0.984 . S
N1156 H1169 0.985 . S
N1157 C1159 1.356 . S
N1157 H1162 0.984 . S
N1157 H1163 0.985 . S
C1158 C1152 1.379 1_545 S
C1158 C1155 1.363 . S
C1158 N1156 1.356 . S
C1159 C1153 1.363 . S
C1159 C1154 1.379 1_565 S
C1159 N1157 1.356 . S
N1160 C1152 1.356 . S
N1160 H1166 0.984 . S
N1160 H1167 0.984 . S
N1161 C1154 1.356 . S
N1161 H1164 0.984 . S
N1161 H1165 0.985 . S
H1162 N1157 0.984 . S
H1163 N1157 0.985 . S
H1164 N1161 0.984 . S
H1165 N1161 0.985 . S
H1166 N1160 0.984 . S
H1167 N1160 0.984 . S
H1168 N1156 0.984 . S
H1169 N1156 0.985 . S
C1170 C1171 1.363 . S
C1170 C1176 1.379 . S
C1170 N1178 1.356 . S
C1171 C1170 1.363 . S
C1171 C1177 1.363 . S
C1172 C1173 1.363 . S
C1172 C1177 1.379 . S
C1172 N1179 1.356 . S
C1173 C1172 1.363 . S
C1173 C1176 1.363 . S
N1174 C1176 1.356 . S
N1174 H1186 0.984 . S
N1174 H1187 0.985 . S
N1175 C1177 1.356 . S
N1175 H1180 0.984 . S
N1175 H1181 0.985 . S
C1176 C1170 1.379 . S
C1176 C1173 1.363 . S
C1176 N1174 1.356 . S
C1177 C1171 1.363 . S
C1177 C1172 1.379 . S
C1177 N1175 1.356 . S
N1178 C1170 1.356 . S
N1178 H1184 0.984 . S
N1178 H1185 0.984 . S
N1179 C1172 1.356 . S
N1179 H1182 0.984 . S
N1179 H1183 0.985 . S
H1180 N1175 0.984 . S
H1181 N1175 0.985 . S
H1182 N1179 0.984 . S
H1183 N1179 0.985 . S
H1184 N1178 0.984 . S
H1185 N1178 0.984 . S
H1186 N1174 0.984 . S
H1187 N1174 0.985 . S
C1188 C1189 1.363 . S
C1188 C1194 1.379 1_455 S
C1188 N1196 1.356 . S
C1189 C1188 1.363 . S
C1189 C1195 1.363 . S
C1190 C1191 1.363 . S
C1190 C1195 1.379 1_655 S
C1190 N1197 1.356 . S
C1191 C1190 1.363 . S
C1191 C1194 1.363 . S
N1192 C1194 1.356 . S
N1192 H1204 0.984 . S
N1192 H1205 0.985 . S
N1193 C1195 1.356 . S
N1193 H1198 0.984 . S
N1193 H1199 0.985 . S
C1194 C1188 1.379 1_655 S
C1194 C1191 1.363 . S
C1194 N1192 1.356 . S
C1195 C1189 1.363 . S
C1195 C1190 1.379 1_455 S
C1195 N1193 1.356 . S
N1196 C1188 1.356 . S
N1196 H1202 0.984 . S
N1196 H1203 0.984 . S
N1197 C1190 1.356 . S
N1197 H1200 0.984 . S
N1197 H1201 0.985 . S
H1198 N1193 0.984 . S
H1199 N1193 0.985 . S
H1200 N1197 0.984 . S
H1201 N1197 0.985 . S
H1202 N1196 0.984 . S
H1203 N1196 0.984 . S
H1204 N1192 0.984 . S
H1205 N1192 0.985 . S
C1206 C1207 1.363 . S
C1206 C1212 1.379 1_545 S
C1206 N1214 1.356 . S
C1207 C1206 1.363 . S
C1207 C1213 1.363 . S
C1208 C1209 1.363 . S
C1208 C1213 1.379 1_565 S
C1208 N1215 1.356 . S
C1209 C1208 1.363 . S
C1209 C1212 1.363 . S
N1210 C1212 1.356 . S
N1210 H1222 0.984 . S
N1210 H1223 0.985 . S
N1211 C1213 1.356 . S
N1211 H1216 0.984 . S
N1211 H1217 0.985 . S
C1212 C1206 1.379 1_565 S
C1212 C1209 1.363 . S
C1212 N1210 1.356 . S
C1213 C1207 1.363 . S
C1213 C1208 1.379 1_545 S
C1213 N1211 1.356 . S
N1214 C1206 1.356 . S
N1214 H1220 0.984 . S
N1214 H1221 0.984 . S
N1215 C1208 1.356 . S
N1215 H1218 0.984 . S
N1215 H1219 0.985 . S
H1216 N1211 0.984 . S
H1217 N1211 0.985 . S
H1218 N1215 0.984 . S
H1219 N1215 0.985 . S
H1220 N1214 0.984 . S
H1221 N1214 0.984 . S
H1222 N1210 0.984 . S
H1223 N1210 0.985 . S
C1224 C1225 1.363 . S
C1224 C1230 1.379 . S
C1224 N1232 1.356 . S
C1225 C1224 1.363 . S
C1225 C1231 1.363 . S
C1226 C1227 1.363 . S
C1226 C1231 1.379 . S
C1226 N1233 1.356 . S
C1227 C1226 1.363 . S
C1227 C1230 1.363 . S
N1228 C1230 1.356 . S
N1228 H1240 0.984 . S
N1228 H1241 0.985 . S
N1229 C1231 1.356 . S
N1229 H1234 0.984 . S
N1229 H1235 0.985 . S
C1230 C1224 1.379 . S
C1230 C1227 1.363 . S
C1230 N1228 1.356 . S
C1231 C1225 1.363 . S
C1231 C1226 1.379 . S
C1231 N1229 1.356 . S
N1232 C1224 1.356 . S
N1232 H1238 0.984 . S
N1232 H1239 0.984 . S
N1233 C1226 1.356 . S
N1233 H1236 0.984 . S
N1233 H1237 0.985 . S
H1234 N1229 0.984 . S
H1235 N1229 0.985 . S
H1236 N1233 0.984 . S
H1237 N1233 0.985 . S
H1238 N1232 0.984 . S
H1239 N1232 0.984 . S
H1240 N1228 0.984 . S
H1241 N1228 0.985 . S
C1242 C1243 1.363 . S
C1242 C1248 1.379 . S
C1242 N1250 1.356 . S
C1243 C1242 1.363 . S
C1243 C1249 1.363 . S
C1244 C1245 1.363 . S
C1244 C1249 1.379 . S
C1244 N1251 1.356 . S
C1245 C1244 1.363 . S
C1245 C1248 1.363 . S
N1246 C1248 1.356 . S
N1246 H1258 0.984 . S
N1246 H1259 0.985 . S
N1247 C1249 1.356 . S
N1247 H1252 0.984 . S
N1247 H1253 0.985 . S
C1248 C1242 1.379 . S
C1248 C1245 1.363 . S
C1248 N1246 1.356 . S
C1249 C1243 1.363 . S
C1249 C1244 1.379 . S
C1249 N1247 1.356 . S
N1250 C1242 1.356 . S
N1250 H1256 0.984 . S
N1250 H1257 0.984 . S
N1251 C1244 1.356 . S
N1251 H1254 0.984 . S
N1251 H1255 0.985 . S
H1252 N1247 0.984 . S
H1253 N1247 0.985 . S
H1254 N1251 0.984 . S
H1255 N1251 0.985 . S
H1256 N1250 0.984 . S
H1257 N1250 0.984 . S
H1258 N1246 0.984 . S
H1259 N1246 0.985 . S
C1260 C1261 1.363 . S
C1260 C1266 1.379 . S
C1260 N1268 1.356 . S
C1261 C1260 1.363 . S
C1261 C1267 1.363 . S
C1262 C1263 1.363 . S
C1262 C1267 1.379 . S
C1262 N1269 1.356 . S
C1263 C1262 1.363 . S
C1263 C1266 1.363 . S
N1264 C1266 1.356 . S
N1264 H1276 0.984 . S
N1264 H1277 0.985 . S
N1265 C1267 1.356 . S
N1265 H1270 0.984 . S
N1265 H1271 0.985 . S
C1266 C1260 1.379 . S
C1266 C1263 1.363 . S
C1266 N1264 1.356 . S
C1267 C1261 1.363 . S
C1267 C1262 1.379 . S
C1267 N1265 1.356 . S
N1268 C1260 1.356 . S
N1268 H1274 0.984 . S
N1268 H1275 0.984 . S
N1269 C1262 1.356 . S
N1269 H1272 0.984 . S
N1269 H1273 0.985 . S
H1270 N1265 0.984 . S
H1271 N1265 0.985 . S
H1272 N1269 0.984 . S
H1273 N1269 0.985 . S
H1274 N1268 0.984 . S
H1275 N1268 0.984 . S
H1276 N1264 0.984 . S
H1277 N1264 0.985 . S
C1278 C1279 1.363 . S
C1278 C1284 1.379 . S
C1278 N1286 1.356 . S
C1279 C1278 1.363 . S
C1279 C1285 1.363 . S
C1280 C1281 1.363 . S
C1280 C1285 1.379 . S
C1280 N1287 1.356 . S
C1281 C1280 1.363 . S
C1281 C1284 1.363 . S
N1282 C1284 1.356 . S
N1282 H1294 0.984 . S
N1282 H1295 0.985 . S
N1283 C1285 1.356 . S
N1283 H1288 0.984 . S
N1283 H1289 0.985 . S
C1284 C1278 1.379 . S
C1284 C1281 1.363 . S
C1284 N1282 1.356 . S
C1285 C1279 1.363 . S
C1285 C1280 1.379 . S
C1285 N1283 1.356 . S
N1286 C1278 1.356 . S
N1286 H1292 0.984 . S
N1286 H1293 0.984 . S
N1287 C1280 1.356 . S
N1287 H1290 0.984 . S
N1287 H1291 0.985 . S
H1288 N1283 0.984 . S
H1289 N1283 0.985 . S
H1290 N1287 0.984 . S
H1291 N1287 0.985 . S
H1292 N1286 0.984 . S
H1293 N1286 0.984 . S
H1294 N1282 0.984 . S
H1295 N1282 0.985 . S
C1296 C1297 1.363 . S
C1296 C1302 1.379 . S
C1296 N1304 1.356 . S
C1297 C1296 1.363 . S
C1297 C1303 1.363 . S
C1298 C1299 1.363 . S
C1298 C1303 1.379 . S
C1298 N1305 1.356 . S
C1299 C1298 1.363 . S
C1299 C1302 1.363 . S
N1300 C1302 1.356 . S
N1300 H1312 0.984 . S
N1300 H1313 0.985 . S
N1301 C1303 1.356 . S
N1301 H1306 0.984 . S
N1301 H1307 0.985 . S
C1302 C1296 1.379 . S
C1302 C1299 1.363 . S
C1302 N1300 1.356 . S
C1303 C1297 1.363 . S
C1303 C1298 1.379 . S
C1303 N1301 1.356 . S
N1304 C1296 1.356 . S
N1304 H1310 0.984 . S
N1304 H1311 0.984 . S
N1305 C1298 1.356 . S
N1305 H1308 0.984 . S
N1305 H1309 0.985 . S
H1306 N1301 0.984 . S
H1307 N1301 0.985 . S
H1308 N1305 0.984 . S
H1309 N1305 0.985 . S
H1310 N1304 0.984 . S
H1311 N1304 0.984 . S
H1312 N1300 0.984 . S
H1313 N1300 0.985 . S
C1314 C1315 1.363 . S
C1314 C1320 1.379 . S
C1314 N1322 1.356 . S
C1315 C1314 1.363 . S
C1315 C1321 1.363 . S
C1316 C1317 1.363 . S
C1316 C1321 1.379 . S
C1316 N1323 1.356 . S
C1317 C1316 1.363 . S
C1317 C1320 1.363 . S
N1318 C1320 1.356 . S
N1318 H1330 0.984 . S
N1318 H1331 0.985 . S
N1319 C1321 1.356 . S
N1319 H1324 0.984 . S
N1319 H1325 0.985 . S
C1320 C1314 1.379 . S
C1320 C1317 1.363 . S
C1320 N1318 1.356 . S
C1321 C1315 1.363 . S
C1321 C1316 1.379 . S
C1321 N1319 1.356 . S
N1322 C1314 1.356 . S
N1322 H1328 0.984 . S
N1322 H1329 0.984 . S
N1323 C1316 1.356 . S
N1323 H1326 0.984 . S
N1323 H1327 0.985 . S
H1324 N1319 0.984 . S
H1325 N1319 0.985 . S
H1326 N1323 0.984 . S
H1327 N1323 0.985 . S
H1328 N1322 0.984 . S
H1329 N1322 0.984 . S
H1330 N1318 0.984 . S
H1331 N1318 0.985 . S
C1332 C1333 1.363 1_554 S
C1332 C1338 1.379 1_565 S
C1332 N1340 1.356 . S
C1333 C1332 1.363 1_556 S
C1333 C1339 1.363 . S
C1334 C1335 1.363 1_556 S
C1334 C1339 1.379 1_545 S
C1334 N1341 1.356 . S
C1335 C1334 1.363 1_554 S
C1335 C1338 1.363 . S
N1336 C1338 1.356 . S
N1336 H1348 0.984 . S
N1336 H1349 0.985 . S
N1337 C1339 1.356 . S
N1337 H1342 0.984 . S
N1337 H1343 0.985 . S
C1338 C1332 1.379 1_545 S
C1338 C1335 1.363 . S
C1338 N1336 1.356 . S
C1339 C1333 1.363 . S
C1339 C1334 1.379 1_565 S
C1339 N1337 1.356 . S
N1340 C1332 1.356 . S
N1340 H1346 0.984 . S
N1340 H1347 0.984 . S
N1341 C1334 1.356 . S
N1341 H1344 0.984 . S
N1341 H1345 0.985 . S
H1342 N1337 0.984 . S
H1343 N1337 0.985 . S
H1344 N1341 0.984 . S
H1345 N1341 0.985 . S
H1346 N1340 0.984 . S
H1347 N1340 0.984 . S
H1348 N1336 0.984 . S
H1349 N1336 0.985 . S
C1350 C1351 1.363 . S
C1350 C1356 1.379 . S
C1350 N1358 1.356 . S
C1351 C1350 1.363 . S
C1351 C1357 1.363 . S
C1352 C1353 1.363 . S
C1352 C1357 1.379 . S
C1352 N1359 1.356 . S
C1353 C1352 1.363 . S
C1353 C1356 1.363 . S
N1354 C1356 1.356 . S
N1354 H1366 0.984 . S
N1354 H1367 0.985 . S
N1355 C1357 1.356 . S
N1355 H1360 0.984 . S
N1355 H1361 0.985 . S
C1356 C1350 1.379 . S
C1356 C1353 1.363 . S
C1356 N1354 1.356 . S
C1357 C1351 1.363 . S
C1357 C1352 1.379 . S
C1357 N1355 1.356 . S
N1358 C1350 1.356 . S
N1358 H1364 0.984 . S
N1358 H1365 0.984 . S
N1359 C1352 1.356 . S
N1359 H1362 0.984 . S
N1359 H1363 0.985 . S
H1360 N1355 0.984 . S
H1361 N1355 0.985 . S
H1362 N1359 0.984 . S
H1363 N1359 0.985 . S
H1364 N1358 0.984 . S
H1365 N1358 0.984 . S
H1366 N1354 0.984 . S
H1367 N1354 0.985 . S
C1368 C1369 1.363 1_554 S
C1368 C1374 1.379 1_455 S
C1368 N1376 1.356 . S
C1369 C1368 1.363 1_556 S
C1369 C1375 1.363 . S
C1370 C1371 1.363 1_556 S
C1370 C1375 1.379 1_655 S
C1370 N1377 1.356 . S
C1371 C1370 1.363 1_554 S
C1371 C1374 1.363 . S
N1372 C1374 1.356 . S
N1372 H1384 0.984 . S
N1372 H1385 0.985 . S
N1373 C1375 1.356 . S
N1373 H1378 0.984 . S
N1373 H1379 0.985 . S
C1374 C1368 1.379 1_655 S
C1374 C1371 1.363 . S
C1374 N1372 1.356 . S
C1375 C1369 1.363 . S
C1375 C1370 1.379 1_455 S
C1375 N1373 1.356 . S
N1376 C1368 1.356 . S
N1376 H1382 0.984 . S
N1376 H1383 0.984 . S
N1377 C1370 1.356 . S
N1377 H1380 0.984 . S
N1377 H1381 0.985 . S
H1378 N1373 0.984 . S
H1379 N1373 0.985 . S
H1380 N1377 0.984 . S
H1381 N1377 0.985 . S
H1382 N1376 0.984 . S
H1383 N1376 0.984 . S
H1384 N1372 0.984 . S
H1385 N1372 0.985 . S
C1386 C1387 1.363 . S
C1386 C1392 1.379 1_545 S
C1386 N1394 1.356 . S
C1387 C1386 1.363 . S
C1387 C1393 1.363 . S
C1388 C1389 1.363 . S
C1388 C1393 1.379 1_565 S
C1388 N1395 1.356 . S
C1389 C1388 1.363 . S
C1389 C1392 1.363 . S
N1390 C1392 1.356 . S
N1390 H1402 0.984 . S
N1390 H1403 0.985 . S
N1391 C1393 1.356 . S
N1391 H1396 0.984 . S
N1391 H1397 0.985 . S
C1392 C1386 1.379 1_565 S
C1392 C1389 1.363 . S
C1392 N1390 1.356 . S
C1393 C1387 1.363 . S
C1393 C1388 1.379 1_545 S
C1393 N1391 1.356 . S
N1394 C1386 1.356 . S
N1394 H1400 0.984 . S
N1394 H1401 0.984 . S
N1395 C1388 1.356 . S
N1395 H1398 0.984 . S
N1395 H1399 0.985 . S
H1396 N1391 0.984 . S
H1397 N1391 0.985 . S
H1398 N1395 0.984 . S
H1399 N1395 0.985 . S
H1400 N1394 0.984 . S
H1401 N1394 0.984 . S
H1402 N1390 0.984 . S
H1403 N1390 0.985 . S
C1404 C1405 1.363 . S
C1404 C1410 1.379 1_554 S
C1404 N1412 1.356 . S
C1405 C1404 1.363 . S
C1405 C1411 1.363 . S
C1406 C1407 1.363 . S
C1406 C1411 1.379 1_556 S
C1406 N1413 1.356 . S
C1407 C1406 1.363 . S
C1407 C1410 1.363 . S
N1408 C1410 1.356 . S
N1408 H1420 0.984 . S
N1408 H1421 0.985 . S
N1409 C1411 1.356 . S
N1409 H1414 0.984 . S
N1409 H1415 0.985 . S
C1410 C1404 1.379 1_556 S
C1410 C1407 1.363 . S
C1410 N1408 1.356 . S
C1411 C1405 1.363 . S
C1411 C1406 1.379 1_554 S
C1411 N1409 1.356 . S
N1412 C1404 1.356 . S
N1412 H1418 0.984 . S
N1412 H1419 0.984 . S
N1413 C1406 1.356 . S
N1413 H1416 0.984 . S
N1413 H1417 0.985 . S
H1414 N1409 0.984 . S
H1415 N1409 0.985 . S
H1416 N1413 0.984 . S
H1417 N1413 0.985 . S
H1418 N1412 0.984 . S
H1419 N1412 0.984 . S
H1420 N1408 0.984 . S
H1421 N1408 0.985 . S
C1422 C1423 1.363 . S
C1422 C1428 1.379 1_455 S
C1422 N1430 1.356 . S
C1423 C1422 1.363 . S
C1423 C1429 1.363 . S
C1424 C1425 1.363 . S
C1424 C1429 1.379 1_655 S
C1424 N1431 1.356 . S
C1425 C1424 1.363 . S
C1425 C1428 1.363 . S
N1426 C1428 1.356 . S
N1426 H1438 0.984 . S
N1426 H1439 0.985 . S
N1427 C1429 1.356 . S
N1427 H1432 0.984 . S
N1427 H1433 0.985 . S
C1428 C1422 1.379 1_655 S
C1428 C1425 1.363 . S
C1428 N1426 1.356 . S
C1429 C1423 1.363 . S
C1429 C1424 1.379 1_455 S
C1429 N1427 1.356 . S
N1430 C1422 1.356 . S
N1430 H1436 0.984 . S
N1430 H1437 0.984 . S
N1431 C1424 1.356 . S
N1431 H1434 0.984 . S
N1431 H1435 0.985 . S
H1432 N1427 0.984 . S
H1433 N1427 0.985 . S
H1434 N1431 0.984 . S
H1435 N1431 0.985 . S
H1436 N1430 0.984 . S
H1437 N1430 0.984 . S
H1438 N1426 0.984 . S
H1439 N1426 0.985 . S
C1440 C1441 1.363 . S
C1440 C1446 1.379 . S
C1440 N1448 1.356 . S
C1441 C1440 1.363 . S
C1441 C1447 1.363 . S
C1442 C1443 1.363 . S
C1442 C1447 1.379 . S
C1442 N1449 1.356 . S
C1443 C1442 1.363 . S
C1443 C1446 1.363 . S
N1444 C1446 1.356 . S
N1444 H1456 0.984 . S
N1444 H1457 0.985 . S
N1445 C1447 1.356 . S
N1445 H1450 0.984 . S
N1445 H1451 0.985 . S
C1446 C1440 1.379 . S
C1446 C1443 1.363 . S
C1446 N1444 1.356 . S
C1447 C1441 1.363 . S
C1447 C1442 1.379 . S
C1447 N1445 1.356 . S
N1448 C1440 1.356 . S
N1448 H1454 0.984 . S
N1448 H1455 0.984 . S
N1449 C1442 1.356 . S
N1449 H1452 0.984 . S
N1449 H1453 0.985 . S
H1450 N1445 0.984 . S
H1451 N1445 0.985 . S
H1452 N1449 0.984 . S
H1453 N1449 0.985 . S
H1454 N1448 0.984 . S
H1455 N1448 0.984 . S
H1456 N1444 0.984 . S
H1457 N1444 0.985 . S
C1458 C1459 1.363 . S
C1458 C1464 1.379 . S
C1458 N1466 1.356 . S
C1459 C1458 1.363 . S
C1459 C1465 1.363 . S
C1460 C1461 1.363 . S
C1460 C1465 1.379 . S
C1460 N1467 1.356 . S
C1461 C1460 1.363 . S
C1461 C1464 1.363 . S
N1462 C1464 1.356 . S
N1462 H1474 0.984 . S
N1462 H1475 0.985 . S
N1463 C1465 1.356 . S
N1463 H1468 0.984 . S
N1463 H1469 0.985 . S
C1464 C1458 1.379 . S
C1464 C1461 1.363 . S
C1464 N1462 1.356 . S
C1465 C1459 1.363 . S
C1465 C1460 1.379 . S
C1465 N1463 1.356 . S
N1466 C1458 1.356 . S
N1466 H1472 0.984 . S
N1466 H1473 0.984 . S
N1467 C1460 1.356 . S
N1467 H1470 0.984 . S
N1467 H1471 0.985 . S
H1468 N1463 0.984 . S
H1469 N1463 0.985 . S
H1470 N1467 0.984 . S
H1471 N1467 0.985 . S
H1472 N1466 0.984 . S
H1473 N1466 0.984 . S
H1474 N1462 0.984 . S
H1475 N1462 0.985 . S
C1476 C1477 1.363 . S
C1476 C1482 1.379 . S
C1476 N1484 1.356 . S
C1477 C1476 1.363 . S
C1477 C1483 1.363 . S
C1478 C1479 1.363 . S
C1478 C1483 1.379 . S
C1478 N1485 1.356 . S
C1479 C1478 1.363 . S
C1479 C1482 1.363 . S
N1480 C1482 1.356 . S
N1480 H1492 0.984 . S
N1480 H1493 0.985 . S
N1481 C1483 1.356 . S
N1481 H1486 0.984 . S
N1481 H1487 0.985 . S
C1482 C1476 1.379 . S
C1482 C1479 1.363 . S
C1482 N1480 1.356 . S
C1483 C1477 1.363 . S
C1483 C1478 1.379 . S
C1483 N1481 1.356 . S
N1484 C1476 1.356 . S
N1484 H1490 0.984 . S
N1484 H1491 0.984 . S
N1485 C1478 1.356 . S
N1485 H1488 0.984 . S
N1485 H1489 0.985 . S
H1486 N1481 0.984 . S
H1487 N1481 0.985 . S
H1488 N1485 0.984 . S
H1489 N1485 0.985 . S
H1490 N1484 0.984 . S
H1491 N1484 0.984 . S
H1492 N1480 0.984 . S
H1493 N1480 0.985 . S
C1494 C1495 1.363 . S
C1494 C1500 1.379 . S
C1494 N1502 1.356 . S
C1495 C1494 1.363 . S
C1495 C1501 1.363 . S
C1496 C1497 1.363 . S
C1496 C1501 1.379 . S
C1496 N1503 1.356 . S
C1497 C1496 1.363 . S
C1497 C1500 1.363 . S
N1498 C1500 1.356 . S
N1498 H1510 0.984 . S
N1498 H1511 0.985 . S
N1499 C1501 1.356 . S
N1499 H1504 0.984 . S
N1499 H1505 0.985 . S
C1500 C1494 1.379 . S
C1500 C1497 1.363 . S
C1500 N1498 1.356 . S
C1501 C1495 1.363 . S
C1501 C1496 1.379 . S
C1501 N1499 1.356 . S
N1502 C1494 1.356 . S
N1502 H1508 0.984 . S
N1502 H1509 0.984 . S
N1503 C1496 1.356 . S
N1503 H1506 0.984 . S
N1503 H1507 0.985 . S
H1504 N1499 0.984 . S
H1505 N1499 0.985 . S
H1506 N1503 0.984 . S
H1507 N1503 0.985 . S
H1508 N1502 0.984 . S
H1509 N1502 0.984 . S
H1510 N1498 0.984 . S
H1511 N1498 0.985 . S
C1512 C1513 1.363 . S
C1512 C1518 1.379 . S
C1512 N1520 1.356 . S
C1513 C1512 1.363 . S
C1513 C1519 1.363 . S
C1514 C1515 1.363 . S
C1514 C1519 1.379 . S
C1514 N1521 1.356 . S
C1515 C1514 1.363 . S
C1515 C1518 1.363 . S
N1516 C1518 1.356 . S
N1516 H1528 0.984 . S
N1516 H1529 0.985 . S
N1517 C1519 1.356 . S
N1517 H1522 0.984 . S
N1517 H1523 0.985 . S
C1518 C1512 1.379 . S
C1518 C1515 1.363 . S
C1518 N1516 1.356 . S
C1519 C1513 1.363 . S
C1519 C1514 1.379 . S
C1519 N1517 1.356 . S
N1520 C1512 1.356 . S
N1520 H1526 0.984 . S
N1520 H1527 0.984 . S
N1521 C1514 1.356 . S
N1521 H1524 0.984 . S
N1521 H1525 0.985 . S
H1522 N1517 0.984 . S
H1523 N1517 0.985 . S
H1524 N1521 0.984 . S
H1525 N1521 0.985 . S
H1526 N1520 0.984 . S
H1527 N1520 0.984 . S
H1528 N1516 0.984 . S
H1529 N1516 0.985 . S
C1530 C1531 1.363 . S
C1530 C1536 1.379 . S
C1530 N1538 1.356 . S
C1531 C1530 1.363 . S
C1531 C1537 1.363 . S
C1532 C1533 1.363 . S
C1532 C1537 1.379 . S
C1532 N1539 1.356 . S
C1533 C1532 1.363 . S
C1533 C1536 1.363 . S
N1534 C1536 1.356 . S
N1534 H1546 0.984 . S
N1534 H1547 0.985 . S
N1535 C1537 1.356 . S
N1535 H1540 0.984 . S
N1535 H1541 0.985 . S
C1536 C1530 1.379 . S
C1536 C1533 1.363 . S
C1536 N1534 1.356 . S
C1537 C1531 1.363 . S
C1537 C1532 1.379 . S
C1537 N1535 1.356 . S
N1538 C1530 1.356 . S
N1538 H1544 0.984 . S
N1538 H1545 0.984 . S
N1539 C1532 1.356 . S
N1539 H1542 0.984 . S
N1539 H1543 0.985 . S
H1540 N1535 0.984 . S
H1541 N1535 0.985 . S
H1542 N1539 0.984 . S
H1543 N1539 0.985 . S
H1544 N1538 0.984 . S
H1545 N1538 0.984 . S
H1546 N1534 0.984 . S
H1547 N1534 0.985 . S
C1548 C1549 1.363 . S
C1548 C1554 1.379 . S
C1548 N1556 1.356 . S
C1549 C1548 1.363 . S
C1549 C1555 1.363 . S
C1550 C1551 1.363 . S
C1550 C1555 1.379 . S
C1550 N1557 1.356 . S
C1551 C1550 1.363 . S
C1551 C1554 1.363 . S
N1552 C1554 1.356 . S
N1552 H1564 0.984 . S
N1552 H1565 0.985 . S
N1553 C1555 1.356 . S
N1553 H1558 0.984 . S
N1553 H1559 0.985 . S
C1554 C1548 1.379 . S
C1554 C1551 1.363 . S
C1554 N1552 1.356 . S
C1555 C1549 1.363 . S
C1555 C1550 1.379 . S
C1555 N1553 1.356 . S
N1556 C1548 1.356 . S
N1556 H1562 0.984 . S
N1556 H1563 0.984 . S
N1557 C1550 1.356 . S
N1557 H1560 0.984 . S
N1557 H1561 0.985 . S
H1558 N1553 0.984 . S
H1559 N1553 0.985 . S
H1560 N1557 0.984 . S
H1561 N1557 0.985 . S
H1562 N1556 0.984 . S
H1563 N1556 0.984 . S
H1564 N1552 0.984 . S
H1565 N1552 0.985 . S
C1566 C1567 1.363 . S
C1566 C1572 1.379 . S
C1566 N1574 1.356 . S
C1567 C1566 1.363 . S
C1567 C1573 1.363 . S
C1568 C1569 1.363 . S
C1568 C1573 1.379 . S
C1568 N1575 1.356 . S
C1569 C1568 1.363 . S
C1569 C1572 1.363 . S
N1570 C1572 1.356 . S
N1570 H1582 0.984 . S
N1570 H1583 0.985 . S
N1571 C1573 1.356 . S
N1571 H1576 0.984 . S
N1571 H1577 0.985 . S
C1572 C1566 1.379 . S
C1572 C1569 1.363 . S
C1572 N1570 1.356 . S
C1573 C1567 1.363 . S
C1573 C1568 1.379 . S
C1573 N1571 1.356 . S
N1574 C1566 1.356 . S
N1574 H1580 0.984 . S
N1574 H1581 0.984 . S
N1575 C1568 1.356 . S
N1575 H1578 0.984 . S
N1575 H1579 0.985 . S
H1576 N1571 0.984 . S
H1577 N1571 0.985 . S
H1578 N1575 0.984 . S
H1579 N1575 0.985 . S
H1580 N1574 0.984 . S
H1581 N1574 0.984 . S
H1582 N1570 0.984 . S
H1583 N1570 0.985 . S
C1584 C1585 1.363 . S
C1584 C1590 1.379 . S
C1584 N1592 1.356 . S
C1585 C1584 1.363 . S
C1585 C1591 1.363 . S
C1586 C1587 1.363 . S
C1586 C1591 1.379 . S
C1586 N1593 1.356 . S
C1587 C1586 1.363 . S
C1587 C1590 1.363 . S
N1588 C1590 1.356 . S
N1588 H1600 0.984 . S
N1588 H1601 0.985 . S
N1589 C1591 1.356 . S
N1589 H1594 0.984 . S
N1589 H1595 0.985 . S
C1590 C1584 1.379 . S
C1590 C1587 1.363 . S
C1590 N1588 1.356 . S
C1591 C1585 1.363 . S
C1591 C1586 1.379 . S
C1591 N1589 1.356 . S
N1592 C1584 1.356 . S
N1592 H1598 0.984 . S
N1592 H1599 0.984 . S
N1593 C1586 1.356 . S
N1593 H1596 0.984 . S
N1593 H1597 0.985 . S
H1594 N1589 0.984 . S
H1595 N1589 0.985 . S
H1596 N1593 0.984 . S
H1597 N1593 0.985 . S
H1598 N1592 0.984 . S
H1599 N1592 0.984 . S
H1600 N1588 0.984 . S
H1601 N1588 0.985 . S
C1602 C1603 1.363 . S
C1602 C1608 1.379 . S
C1602 N1610 1.356 . S
C1603 C1602 1.363 . S
C1603 C1609 1.363 . S
C1604 C1605 1.363 . S
C1604 C1609 1.379 . S
C1604 N1611 1.356 . S
C1605 C1604 1.363 . S
C1605 C1608 1.363 . S
N1606 C1608 1.356 . S
N1606 H1618 0.984 . S
N1606 H1619 0.985 . S
N1607 C1609 1.356 . S
N1607 H1612 0.984 . S
N1607 H1613 0.985 . S
C1608 C1602 1.379 . S
C1608 C1605 1.363 . S
C1608 N1606 1.356 . S
C1609 C1603 1.363 . S
C1609 C1604 1.379 . S
C1609 N1607 1.356 . S
N1610 C1602 1.356 . S
N1610 H1616 0.984 . S
N1610 H1617 0.984 . S
N1611 C1604 1.356 . S
N1611 H1614 0.984 . S
N1611 H1615 0.985 . S
H1612 N1607 0.984 . S
H1613 N1607 0.985 . S
H1614 N1611 0.984 . S
H1615 N1611 0.985 . S
H1616 N1610 0.984 . S
H1617 N1610 0.984 . S
H1618 N1606 0.984 . S
H1619 N1606 0.985 . S
C1620 C1621 1.363 . S
C1620 C1626 1.379 . S
C1620 N1628 1.356 . S
C1621 C1620 1.363 . S
C1621 C1627 1.363 . S
C1622 C1623 1.363 . S
C1622 C1627 1.379 . S
C1622 N1629 1.356 . S
C1623 C1622 1.363 . S
C1623 C1626 1.363 . S
N1624 C1626 1.356 . S
N1624 H1636 0.984 . S
N1624 H1637 0.985 . S
N1625 C1627 1.356 . S
N1625 H1630 0.984 . S
N1625 H1631 0.985 . S
C1626 C1620 1.379 . S
C1626 C1623 1.363 . S
C1626 N1624 1.356 . S
C1627 C1621 1.363 . S
C1627 C1622 1.379 . S
C1627 N1625 1.356 . S
N1628 C1620 1.356 . S
N1628 H1634 0.984 . S
N1628 H1635 0.984 . S
N1629 C1622 1.356 . S
N1629 H1632 0.984 . S
N1629 H1633 0.985 . S
H1630 N1625 0.984 . S
H1631 N1625 0.985 . S
H1632 N1629 0.984 . S
H1633 N1629 0.985 . S
H1634 N1628 0.984 . S
H1635 N1628 0.984 . S
H1636 N1624 0.984 . S
H1637 N1624 0.985 . S
C1638 C1639 1.363 . S
C1638 C1644 1.379 . S
C1638 N1646 1.356 . S
C1639 C1638 1.363 . S
C1639 C1645 1.363 . S
C1640 C1641 1.363 . S
C1640 C1645 1.379 . S
C1640 N1647 1.356 . S
C1641 C1640 1.363 . S
C1641 C1644 1.363 . S
N1642 C1644 1.356 . S
N1642 H1654 0.984 . S
N1642 H1655 0.985 . S
N1643 C1645 1.356 . S
N1643 H1648 0.984 . S
N1643 H1649 0.985 . S
C1644 C1638 1.379 . S
C1644 C1641 1.363 . S
C1644 N1642 1.356 . S
C1645 C1639 1.363 . S
C1645 C1640 1.379 . S
C1645 N1643 1.356 . S
N1646 C1638 1.356 . S
N1646 H1652 0.984 . S
N1646 H1653 0.984 . S
N1647 C1640 1.356 . S
N1647 H1650 0.984 . S
N1647 H1651 0.985 . S
H1648 N1643 0.984 . S
H1649 N1643 0.985 . S
H1650 N1647 0.984 . S
H1651 N1647 0.985 . S
H1652 N1646 0.984 . S
H1653 N1646 0.984 . S
H1654 N1642 0.984 . S
H1655 N1642 0.985 . S
C1009 C238 1.287 . S
C1011 C67 1.363 . S
C1027 C310 1.287 . S
C1029 C140 1.363 . S
C1045 C235 1.363 . S
C1047 C406 1.287 . S
C1063 C308 1.363 . S
C1065 C478 1.287 . S
C1081 C70 1.287 . S
C1083 C403 1.363 . S
C1099 C142 1.287 . S
C1101 C476 1.363 . S
C1117 C898 1.287 . S
C1119 C560 1.363 . S
C1135 C655 1.363 . S
C1137 C994 1.287 . S
C1153 C728 1.363 . S
C1155 C562 1.287 . S
C1171 C823 1.363 . S
C1173 C658 1.287 . S
C1189 C896 1.363 . S
C1191 C730 1.287 . S
C1207 C826 1.287 . S
C1209 C991 1.363 . S
C1225 C326 1.905 . S
C1227 C63 1.905 . S
C1243 C158 1.905 . S
C1245 C399 1.905 . S
C1261 C231 1.905 . S
C1263 C494 1.905 . S
C1279 C578 1.905 . S
C1281 C819 1.905 . S
C1297 C651 1.905 . S
C1299 C914 1.905 . S
C1315 C746 1.905 . S
C1317 C987 1.905 . S
C1333 C662 2.213 . S
C1335 C74 2.213 . S
C1351 C147 2.213 . S
C1353 C735 2.213 . S
C1369 C830 2.213 . S
C1371 C242 2.213 . S
C1387 C315 2.213 . S
C1389 C903 2.213 . S
C1405 C410 2.213 . S
C1407 C998 2.213 . S
C1423 C567 2.213 . S
C1425 C483 2.213 . S
C1441 C226 1.335 . S
C1443 C56 1.400 . S
C1459 C151 1.400 . S
C1461 C322 1.335 . S
C1477 C224 1.400 . S
C1479 C394 1.335 . S
C1495 C319 1.400 . S
C1497 C490 1.335 . S
C1513 C58 1.335 . S
C1515 C392 1.400 . S
C1531 C154 1.335 . S
C1533 C487 1.400 . S
C1549 C910 1.335 . S
C1551 C571 1.400 . S
C1567 C644 1.400 . S
C1569 C982 1.335 . S
C1585 C739 1.400 . S
C1587 C574 1.335 . S
C1603 C646 1.335 . S
C1605 C812 1.400 . S
C1621 C907 1.400 . S
C1623 C742 1.335 . S
C1639 C980 1.400 . S
C1641 C814 1.335 . S
