# Generated by pormake.
# Topology vmg, (6)-cn, num edge types: 1
# Building blocks:
#     Node 0, Type 0, BuildingBlock: IZENUY_clean_sbu_0, # of connection points: 6
#     Node 1, Type 0, BuildingBlock: IZENUY_clean_sbu_0, # of connection points: 6
#     Node 2, Type 0, BuildingBlock: IZENUY_clean_sbu_0, # of connection points: 6
#     Node 3, Type 0, BuildingBlock: IZENUY_clean_sbu_0, # of connection points: 6
#     Node 4, Type 0, BuildingBlock: IZENUY_clean_sbu_0, # of connection points: 6
#     Node 5, Type 0, BuildingBlock: IZENUY_clean_sbu_0, # of connection points: 6
#     Node 6, Type 0, BuildingBlock: IZENUY_clean_sbu_0, # of connection points: 6
#     Node 7, Type 0, BuildingBlock: IZENUY_clean_sbu_0, # of connection points: 6
#     Edge 8, Type (0, 0), BuildingBlock: ZUJKAS_clean_linker_0, # of connection points: 2
#     Edge 9, Type (0, 0), BuildingBlock: ZUJKAS_clean_linker_0, # of connection points: 2
#     Edge 10, Type (0, 0), BuildingBlock: ZUJKAS_clean_linker_0, # of connection points: 2
#     Edge 11, Type (0, 0), BuildingBlock: ZUJKAS_clean_linker_0, # of connection points: 2
#     Edge 12, Type (0, 0), BuildingBlock: ZUJKAS_clean_linker_0, # of connection points: 2
#     Edge 13, Type (0, 0), BuildingBlock: ZUJKAS_clean_linker_0, # of connection points: 2
#     Edge 14, Type (0, 0), BuildingBlock: ZUJKAS_clean_linker_0, # of connection points: 2
#     Edge 15, Type (0, 0), BuildingBlock: ZUJKAS_clean_linker_0, # of connection points: 2
#     Edge 16, Type (0, 0), BuildingBlock: ZUJKAS_clean_linker_0, # of connection points: 2
#     Edge 17, Type (0, 0), BuildingBlock: ZUJKAS_clean_linker_0, # of connection points: 2
#     Edge 18, Type (0, 0), BuildingBlock: ZUJKAS_clean_linker_0, # of connection points: 2
#     Edge 19, Type (0, 0), BuildingBlock: ZUJKAS_clean_linker_0, # of connection points: 2
#     Edge 20, Type (0, 0), BuildingBlock: ZUJKAS_clean_linker_0, # of connection points: 2
#     Edge 21, Type (0, 0), BuildingBlock: ZUJKAS_clean_linker_0, # of connection points: 2
#     Edge 22, Type (0, 0), BuildingBlock: ZUJKAS_clean_linker_0, # of connection points: 2
#     Edge 23, Type (0, 0), BuildingBlock: ZUJKAS_clean_linker_0, # of connection points: 2
#     Edge 24, Type (0, 0), BuildingBlock: ZUJKAS_clean_linker_0, # of connection points: 2
#     Edge 25, Type (0, 0), BuildingBlock: ZUJKAS_clean_linker_0, # of connection points: 2
#     Edge 26, Type (0, 0), BuildingBlock: ZUJKAS_clean_linker_0, # of connection points: 2
#     Edge 27, Type (0, 0), BuildingBlock: ZUJKAS_clean_linker_0, # of connection points: 2
#     Edge 28, Type (0, 0), BuildingBlock: ZUJKAS_clean_linker_0, # of connection points: 2
#     Edge 29, Type (0, 0), BuildingBlock: ZUJKAS_clean_linker_0, # of connection points: 2
#     Edge 30, Type (0, 0), BuildingBlock: ZUJKAS_clean_linker_0, # of connection points: 2
#     Edge 31, Type (0, 0), BuildingBlock: ZUJKAS_clean_linker_0, # of connection points: 2
# Relax obj value: 0.255
# Max RMSD: 0.237
# Mean RMSD: 0.237
data_MOF--net-vmg--node1-IZENUY_clean_sbu_0--edge1-ZUJKAS_clean_linker_0
_symmetry_space_group_name_H-M    P1
_symmetry_Int_Tables_number       1
_symmetry_cell_setting            triclinic
loop_
_symmetry_equiv_pos_as_xyz
'x, y, z'
_cell_length_a     36.214599
_cell_length_b     57.217828
_cell_length_c     34.107126
_cell_angle_alpha  89.987238
_cell_angle_beta   101.44688
_cell_angle_gamma 90.049594
loop_
_atom_site_label
_atom_site_type_symbol
_atom_site_fract_x
_atom_site_fract_y
_atom_site_fract_z
_atom_type_partial_charge
Fe0 Fe 0.23979 0.39131 0.1743 0.0
Fe1 Fe 0.18346 0.40108 0.09627 0.0
O2 O 0.21998 0.41065 0.13523 0.0
Fe3 Fe 0.23599 0.43981 0.13539 0.0
O4 O 0.22192 0.44543 0.18207 0.0
O5 O 0.24846 0.41434 0.21356 0.0
O6 O 0.19468 0.38703 0.18816 0.0
C7 C 0.16482 0.38064 0.16512 0.0
C8 C 0.30326 0.41401 0.16446 0.0
O9 O 0.16274 0.38041 0.12755 0.0
C10 C 0.22724 0.43136 0.05634 0.0
O11 O 0.23427 0.36495 0.14172 0.0
O12 O 0.2134 0.37909 0.08137 0.0
O13 O 0.28482 0.43301 0.16038 0.0
O14 O 0.28639 0.39467 0.16337 0.0
C15 C 0.15706 0.44411 0.10883 0.0
O16 O 0.19697 0.42039 0.05777 0.0
O17 O 0.25048 0.43588 0.08813 0.0
C18 C 0.22927 0.36302 0.10381 0.0
O19 O 0.15147 0.42244 0.10924 0.0
O20 O 0.19005 0.45209 0.11083 0.0
C21 C 0.23329 0.43436 0.21401 0.0
Fe22 Fe 0.76474 0.44105 0.37166 0.0
Fe23 Fe 0.76266 0.39286 0.33198 0.0
O24 O 0.78152 0.41208 0.37155 0.0
Fe25 Fe 0.81771 0.40261 0.41084 0.0
O26 O 0.84945 0.42463 0.39912 0.0
O27 O 0.80993 0.45365 0.39808 0.0
O28 O 0.7798 0.44732 0.32552 0.0
C29 C 0.76881 0.43636 0.29329 0.0
C30 C 0.77166 0.43144 0.45025 0.0
O31 O 0.75415 0.41614 0.29331 0.0
C32 C 0.77265 0.36409 0.40176 0.0
O33 O 0.71645 0.43396 0.34529 0.0
O34 O 0.71566 0.39564 0.34214 0.0
O35 O 0.80266 0.42123 0.44927 0.0
O36 O 0.74907 0.4363 0.41815 0.0
C37 C 0.83798 0.38292 0.34218 0.0
O38 O 0.76814 0.36625 0.36394 0.0
O39 O 0.78813 0.38006 0.42465 0.0
C40 C 0.69837 0.41482 0.3409 0.0
O41 O 0.80822 0.38914 0.31883 0.0
O42 O 0.83962 0.38256 0.37967 0.0
C43 C 0.84334 0.44615 0.40146 0.0
Fe44 Fe 0.75717 0.57112 0.87168 0.0
Fe45 Fe 0.75851 0.61897 0.83126 0.0
O46 O 0.7759 0.59962 0.87114 0.0
Fe47 Fe 0.81254 0.60856 0.91046 0.0
O48 O 0.84297 0.58581 0.8989 0.0
O49 O 0.80171 0.55763 0.89752 0.0
O50 O 0.77126 0.56397 0.82549 0.0
C51 C 0.76127 0.57482 0.79302 0.0
C52 C 0.76517 0.58111 0.95028 0.0
O53 O 0.74881 0.59563 0.79264 0.0
C54 C 0.76963 0.64792 0.90087 0.0
O55 O 0.70937 0.57927 0.84566 0.0
O56 O 0.71141 0.61751 0.8411 0.0
O57 O 0.79666 0.59055 0.949 0.0
O58 O 0.74218 0.57655 0.91833 0.0
C59 C 0.83411 0.62742 0.84197 0.0
O60 O 0.76538 0.64563 0.86308 0.0
O61 O 0.78411 0.63178 0.92397 0.0
C62 C 0.69281 0.59887 0.84054 0.0
O63 O 0.80429 0.6215 0.81846 0.0
O64 O 0.83559 0.62795 0.87939 0.0
C65 C 0.83546 0.5644 0.90017 0.0
Fe66 Fe 0.22895 0.61812 0.66916 0.0
Fe67 Fe 0.18126 0.60127 0.58931 0.0
O68 O 0.21785 0.59644 0.63143 0.0
Fe69 Fe 0.24285 0.56967 0.63646 0.0
O70 O 0.2512 0.56915 0.6909 0.0
O71 O 0.21791 0.59818 0.70738 0.0
O72 O 0.18075 0.62931 0.66357 0.0
C73 C 0.14975 0.61932 0.64973 0.0
C74 C 0.30041 0.60004 0.66226 0.0
O75 O 0.147 0.60513 0.62105 0.0
C76 C 0.23209 0.57884 0.5532 0.0
O77 O 0.24038 0.63935 0.63336 0.0
O78 O 0.18981 0.63276 0.58701 0.0
O79 O 0.28715 0.58459 0.63689 0.0
O80 O 0.27921 0.61083 0.68159 0.0
C81 C 0.17069 0.55453 0.60985 0.0
O82 O 0.21275 0.59714 0.55427 0.0
O83 O 0.23907 0.56521 0.5829 0.0
C84 C 0.2184 0.64511 0.60114 0.0
O85 O 0.16627 0.5708 0.58437 0.0
O86 O 0.20004 0.55303 0.63669 0.0
C87 C 0.23226 0.57809 0.71437 0.0
Fe88 Fe 0.73716 0.89178 0.17356 0.0
Fe89 Fe 0.67986 0.90334 0.09731 0.0
O90 O 0.71839 0.91171 0.13506 0.0
Fe91 Fe 0.73744 0.94011 0.13404 0.0
O92 O 0.72724 0.94704 0.18211 0.0
O93 O 0.74882 0.91447 0.21295 0.0
O94 O 0.69236 0.8892 0.18889 0.0
C95 C 0.66184 0.88337 0.16655 0.0
C96 C 0.8021 0.91178 0.16076 0.0
O97 O 0.65896 0.88315 0.12896 0.0
C98 C 0.72394 0.93137 0.05476 0.0
O99 O 0.72854 0.86568 0.14046 0.0
O100 O 0.7071 0.88047 0.08062 0.0
O101 O 0.78583 0.93147 0.15645 0.0
O102 O 0.78347 0.89323 0.1614 0.0
C103 C 0.65855 0.94726 0.11163 0.0
O104 O 0.69283 0.92218 0.05812 0.0
O105 O 0.74897 0.93507 0.08544 0.0
C106 C 0.72264 0.86405 0.10244 0.0
O107 O 0.65089 0.92583 0.11246 0.0
O108 O 0.69204 0.95395 0.11195 0.0
C109 C 0.73816 0.93561 0.2138 0.0
Fe110 Fe 0.26016 0.93803 0.3697 0.0
Fe111 Fe 0.25984 0.88991 0.33005 0.0
O112 O 0.27757 0.9092 0.36993 0.0
Fe113 Fe 0.31321 0.89982 0.40993 0.0
O114 O 0.34503 0.92193 0.39894 0.0
O115 O 0.305 0.9509 0.396 0.0
O116 O 0.2753 0.94454 0.32376 0.0
C117 C 0.26478 0.93374 0.29133 0.0
C118 C 0.26645 0.92873 0.44839 0.0
O119 O 0.25134 0.91316 0.29113 0.0
C120 C 0.26886 0.86104 0.39966 0.0
O121 O 0.21229 0.9305 0.34314 0.0
O122 O 0.21258 0.89218 0.33933 0.0
O123 O 0.29746 0.91842 0.44798 0.0
O124 O 0.24416 0.93332 0.416 0.0
C125 C 0.3351 0.8803 0.34197 0.0
O126 O 0.26541 0.86329 0.36195 0.0
O127 O 0.28335 0.87711 0.42297 0.0
C128 C 0.19484 0.91116 0.33838 0.0
O129 O 0.3058 0.88665 0.31802 0.0
O130 O 0.336 0.87989 0.37934 0.0
C131 C 0.33848 0.94348 0.39955 0.0
Fe132 Fe 0.26 0.06961 0.86812 0.0
Fe133 Fe 0.25879 0.11819 0.82979 0.0
O134 O 0.27734 0.0985 0.86875 0.0
Fe135 Fe 0.31386 0.10747 0.90811 0.0
O136 O 0.34508 0.08561 0.89515 0.0
O137 O 0.30519 0.05662 0.89302 0.0
O138 O 0.27425 0.06374 0.8215 0.0
C139 C 0.26355 0.075 0.78959 0.0
C140 C 0.26829 0.0781 0.94727 0.0
O141 O 0.2494 0.09533 0.79021 0.0
C142 C 0.26969 0.14624 0.90057 0.0
O143 O 0.21174 0.07728 0.84279 0.0
O144 O 0.21203 0.11563 0.84035 0.0
O145 O 0.2992 0.08836 0.9461 0.0
O146 O 0.24516 0.07375 0.9153 0.0
C147 C 0.33402 0.12787 0.84002 0.0
O148 O 0.26513 0.14444 0.86266 0.0
O149 O 0.28462 0.12989 0.92295 0.0
C150 C 0.19429 0.09662 0.83909 0.0
O151 O 0.30427 0.12176 0.81651 0.0
O152 O 0.33569 0.1279 0.8775 0.0
C153 C 0.33856 0.06405 0.89551 0.0
Fe154 Fe 0.73714 0.12009 0.67349 0.0
Fe155 Fe 0.6799 0.10891 0.59693 0.0
O156 O 0.71811 0.10027 0.63486 0.0
Fe157 Fe 0.73655 0.07174 0.63387 0.0
O158 O 0.72607 0.0649 0.68189 0.0
O159 O 0.74826 0.09733 0.71284 0.0
O160 O 0.69222 0.12293 0.68855 0.0
C161 C 0.66187 0.12889 0.66604 0.0
C162 C 0.80181 0.09961 0.66096 0.0
O163 O 0.65932 0.12927 0.6285 0.0
C164 C 0.72349 0.08045 0.55461 0.0
O165 O 0.72918 0.14625 0.64043 0.0
O166 O 0.7078 0.13155 0.58049 0.0
O167 O 0.78508 0.08006 0.65641 0.0
O168 O 0.78359 0.11831 0.66164 0.0
C169 C 0.65748 0.06516 0.611 0.0
O170 O 0.69259 0.08993 0.55784 0.0
O171 O 0.74838 0.07666 0.58536 0.0
C172 C 0.72352 0.1479 0.60241 0.0
O173 O 0.65026 0.08665 0.61178 0.0
O174 O 0.69088 0.05821 0.61164 0.0
C175 C 0.7373 0.07624 0.71363 0.0
H176 H 0.65187 0.45291 0.32559 0.0
H177 H 0.58442 0.45322 0.29666 0.0
H178 H 0.58347 0.37788 0.29488 0.0
H179 H 0.6507 0.37733 0.32421 0.0
H180 H 0.55053 0.43438 0.2227 0.0
H181 H 0.49322 0.39336 0.34544 0.0
H182 H 0.54043 0.40503 0.35275 0.0
H183 H 0.53 0.37678 0.33017 0.0
C184 C 0.63725 0.43638 0.31963 0.0
C185 C 0.6568 0.41509 0.32726 0.0
C186 C 0.5987 0.43661 0.30296 0.0
C187 C 0.57885 0.41559 0.29392 0.0
C188 C 0.59806 0.39431 0.30226 0.0
H189 H 0.35165 0.37685 0.17994 0.0
H190 H 0.41898 0.3778 0.20893 0.0
C191 C 0.63659 0.39405 0.3189 0.0
C192 C 0.53857 0.41589 0.27376 0.0
H193 H 0.45099 0.39741 0.28286 0.0
C194 C 0.52869 0.42645 0.23594 0.0
C195 C 0.51018 0.40545 0.29103 0.0
C196 C 0.51883 0.3947 0.33224 0.0
C197 C 0.49129 0.42641 0.21456 0.0
C198 C 0.46295 0.41585 0.23175 0.0
C199 C 0.4728 0.4054 0.26965 0.0
C200 C 0.42279 0.41552 0.21116 0.0
C201 C 0.4826 0.43715 0.17335 0.0
C202 C 0.40263 0.43643 0.20236 0.0
C203 C 0.36408 0.43598 0.18564 0.0
C204 C 0.34487 0.41458 0.1777 0.0
C205 C 0.36545 0.39366 0.18564 0.0
C206 C 0.40396 0.39415 0.20233 0.0
H207 H 0.50831 0.43897 0.16043 0.0
H208 H 0.4616 0.42651 0.15268 0.0
H209 H 0.47058 0.45485 0.17528 0.0
H210 H 0.41644 0.45313 0.20954 0.0
H211 H 0.34915 0.45242 0.18013 0.0
H212 H 0.64914 0.63734 0.81744 0.0
H213 H 0.58216 0.6382 0.78711 0.0
H214 H 0.57573 0.5635 0.80083 0.0
H215 H 0.64286 0.56234 0.83127 0.0
H216 H 0.54915 0.61187 0.71529 0.0
H217 H 0.4861 0.59104 0.84726 0.0
H218 H 0.53351 0.60213 0.85198 0.0
H219 H 0.5234 0.5721 0.83884 0.0
C220 C 0.63347 0.62109 0.81455 0.0
C221 C 0.65144 0.59973 0.82667 0.0
C222 C 0.59523 0.62164 0.79708 0.0
C223 C 0.57417 0.60094 0.79184 0.0
C224 C 0.59157 0.57969 0.80498 0.0
H225 H 0.35617 0.57424 0.63871 0.0
H226 H 0.42369 0.57534 0.66769 0.0
C227 C 0.62991 0.57907 0.82232 0.0
C228 C 0.53438 0.6015 0.77091 0.0
H229 H 0.44457 0.5929 0.78439 0.0
C230 C 0.52621 0.60774 0.7303 0.0
C231 C 0.50473 0.59625 0.79081 0.0
C232 C 0.51213 0.59016 0.83471 0.0
C233 C 0.48892 0.60869 0.70888 0.0
C234 C 0.45929 0.60312 0.72866 0.0
C235 C 0.46749 0.59705 0.76934 0.0
C236 C 0.41939 0.60392 0.70807 0.0
C237 C 0.4814 0.616 0.66553 0.0
C238 C 0.39488 0.6198 0.72092 0.0
C239 C 0.35644 0.61923 0.70454 0.0
C240 C 0.34169 0.60259 0.67519 0.0
C241 C 0.36659 0.58728 0.66122 0.0
C242 C 0.40517 0.5879 0.67766 0.0
H243 H 0.5065 0.62423 0.65707 0.0
H244 H 0.47364 0.60038 0.64638 0.0
H245 H 0.4575 0.62849 0.65915 0.0
H246 H 0.40542 0.63231 0.74432 0.0
H247 H 0.33814 0.63138 0.71584 0.0
H248 H 0.14824 0.87316 0.32339 0.0
H249 H 0.08143 0.87292 0.29195 0.0
H250 H 0.08094 0.94826 0.28977 0.0
H251 H 0.14782 0.94878 0.32091 0.0
H252 H 0.01786 0.89456 0.31593 0.0
H253 H 0.04398 0.9286 0.17119 0.0
H254 H 0.081 0.91671 0.20933 0.0
H255 H 0.06378 0.94576 0.21441 0.0
C256 C 0.1339 0.88971 0.31656 0.0
C257 C 0.1535 0.911 0.32423 0.0
C258 C 0.09575 0.88951 0.29859 0.0
C259 C 0.07663 0.91055 0.28785 0.0
C260 C 0.09554 0.93184 0.29715 0.0
H261 H 0.85144 0.94851 0.172 0.0
H262 H 0.91872 0.94724 0.20098 0.0
C263 C 0.13367 0.93208 0.31519 0.0
C264 C 0.03707 0.9102 0.26619 0.0
H265 H 0.98021 0.92478 0.17731 0.0
C266 C 0.00956 0.90105 0.28557 0.0
C267 C 0.02658 0.91865 0.22658 0.0
C268 C 0.05535 0.92782 0.20391 0.0
C269 C 0.97148 0.90064 0.26665 0.0
C270 C 0.96094 0.90917 0.22706 0.0
C271 C 0.98851 0.9182 0.20761 0.0
C272 C 0.92118 0.90956 0.2059 0.0
C273 C 0.94274 0.89167 0.28956 0.0
C274 C 0.90074 0.88871 0.19767 0.0
C275 C 0.86225 0.88934 0.18115 0.0
C276 C 0.84365 0.91086 0.17245 0.0
C277 C 0.8648 0.93164 0.17857 0.0
C278 C 0.90325 0.93098 0.19516 0.0
H279 H 0.95424 0.89092 0.32225 0.0
H280 H 0.91722 0.90289 0.28426 0.0
H281 H 0.93409 0.87374 0.27922 0.0
H282 H 0.91437 0.87199 0.20495 0.0
H283 H 0.8469 0.87299 0.17645 0.0
H284 H 0.14781 0.1347 0.82772 0.0
H285 H 0.08084 0.13549 0.79741 0.0
H286 H 0.0798 0.06028 0.78927 0.0
H287 H 0.14698 0.05925 0.81925 0.0
H288 H 0.0496 0.08377 0.71663 0.0
H289 H 0.98801 0.11661 0.84285 0.0
H290 H 0.02652 0.13368 0.83224 0.0
H291 H 0.0347 0.1042 0.84998 0.0
C292 C 0.13328 0.11828 0.82006 0.0
C293 C 0.15283 0.0969 0.82578 0.0
C294 C 0.09495 0.11878 0.80289 0.0
C295 C 0.07541 0.09794 0.79136 0.0
C296 C 0.09447 0.07654 0.79808 0.0
H297 H 0.85029 0.06253 0.66906 0.0
H298 H 0.9176 0.06281 0.69756 0.0
C299 C 0.13281 0.076 0.81535 0.0
C300 C 0.03573 0.0986 0.76991 0.0
H301 H 0.94738 0.11506 0.77916 0.0
C302 C 0.02716 0.09049 0.7303 0.0
C303 C 0.00672 0.10758 0.78781 0.0
C304 C 0.01425 0.11584 0.83067 0.0
C305 C 0.99026 0.09136 0.70788 0.0
C306 C 0.9612 0.1002 0.72586 0.0
C307 C 0.96981 0.1084 0.76542 0.0
C308 C 0.92135 0.10036 0.7048 0.0
C309 C 0.98283 0.08319 0.66497 0.0
C310 C 0.90116 0.12141 0.6993 0.0
C311 C 0.86256 0.12133 0.68317 0.0
C312 C 0.84342 0.10014 0.67259 0.0
C313 C 0.8641 0.07917 0.6768 0.0
C314 C 0.90266 0.07928 0.69294 0.0
H315 H 0.00895 0.08323 0.65251 0.0
H316 H 0.97188 0.06502 0.66346 0.0
H317 H 0.96147 0.09437 0.64586 0.0
H318 H 0.91513 0.13785 0.70837 0.0
H319 H 0.84754 0.1378 0.68031 0.0
H320 H 0.22674 0.35517 0.02449 0.0
H321 H 0.23388 0.31828 0.9913 0.0
H322 H 0.25758 0.28327 0.10547 0.0
H323 H 0.24981 0.32033 0.13926 0.0
H324 H 0.29371 0.28768 0.99815 0.0
H325 H 0.17026 0.24486 0.04203 0.0
H326 H 0.17891 0.27586 0.04759 0.0
H327 H 0.2051 0.25573 0.08296 0.0
C328 C 0.23355 0.33969 0.04277 0.0
C329 C 0.23728 0.34074 0.08465 0.0
C330 C 0.2377 0.31858 0.02362 0.0
C331 C 0.24556 0.29791 0.04574 0.0
C332 C 0.2507 0.29893 0.08769 0.0
H333 H 0.27266 0.15415 0.97995 0.0
H334 H 0.26609 0.1911 0.01322 0.0
C335 C 0.24656 0.32016 0.10701 0.0
C336 C 0.24791 0.27544 0.02444 0.0
H337 H 0.20657 0.22175 0.00643 0.0
C338 C 0.27464 0.27326 0.99992 0.0
C339 C 0.22284 0.2567 0.02654 0.0
C340 C 0.1924 0.25836 0.05089 0.0
C341 C 0.27746 0.25273 0.97805 0.0
C342 C 0.25239 0.23399 0.98015 0.0
C343 C 0.22566 0.23617 0.00467 0.0
C344 C 0.25467 0.21151 0.95881 0.0
C345 C 0.30789 0.25106 0.9537 0.0
C346 C 0.24955 0.21052 0.91686 0.0
C347 C 0.25337 0.18926 0.8975 0.0
C348 C 0.26229 0.16862 0.91981 0.0
C349 C 0.2661 0.16967 0.9617 0.0
C350 C 0.26228 0.19082 0.98089 0.0
H351 H 0.33009 0.26453 0.96262 0.0
H352 H 0.32133 0.23354 0.95691 0.0
H353 H 0.29521 0.25376 0.92164 0.0
H354 H 0.24285 0.2262 0.89911 0.0
H355 H 0.25007 0.18908 0.86524 0.0
H356 H 0.7507 0.32179 0.36538 0.0
H357 H 0.74043 0.28481 0.39838 0.0
H358 H 0.76562 0.31904 0.51319 0.0
H359 H 0.77524 0.35577 0.48089 0.0
H360 H 0.79262 0.2606 0.45596 0.0
H361 H 0.66786 0.2853 0.51802 0.0
H362 H 0.68327 0.30206 0.47936 0.0
H363 H 0.70624 0.30553 0.53087 0.0
C364 C 0.75354 0.32148 0.39758 0.0
C365 C 0.76379 0.34181 0.42038 0.0
C366 C 0.74778 0.30034 0.41641 0.0
C367 C 0.75174 0.29923 0.45824 0.0
C368 C 0.76159 0.31953 0.48087 0.0
H369 H 0.74555 0.19063 0.63688 0.0
H370 H 0.75441 0.22728 0.60228 0.0
C371 C 0.76736 0.34055 0.46223 0.0
C372 C 0.74756 0.27676 0.47882 0.0
H373 H 0.70018 0.25066 0.54435 0.0
C374 C 0.77217 0.25834 0.47498 0.0
C375 C 0.72111 0.2739 0.50396 0.0
C376 C 0.69287 0.29266 0.50806 0.0
C377 C 0.77158 0.23733 0.49623 0.0
C378 C 0.74527 0.23452 0.52154 0.0
C379 C 0.72056 0.2529 0.52525 0.0
C380 C 0.74169 0.21224 0.5429 0.0
C381 C 0.79971 0.2185 0.49206 0.0
C382 C 0.73149 0.19171 0.52104 0.0
C383 C 0.72647 0.17087 0.54061 0.0
C384 C 0.73123 0.17004 0.58261 0.0
C385 C 0.74178 0.19061 0.60458 0.0
C386 C 0.74675 0.21157 0.58484 0.0
H387 H 0.82433 0.22569 0.48112 0.0
H388 H 0.80996 0.2095 0.52101 0.0
H389 H 0.78595 0.20532 0.47006 0.0
H390 H 0.7267 0.19187 0.48867 0.0
H391 H 0.71833 0.15543 0.52258 0.0
H392 H 0.71689 0.85648 0.02255 0.0
H393 H 0.72438 0.8199 0.98858 0.0
H394 H 0.75263 0.78462 0.10228 0.0
H395 H 0.74465 0.82135 0.1369 0.0
H396 H 0.78637 0.79053 0.99441 0.0
H397 H 0.66582 0.74503 0.03966 0.0
H398 H 0.67289 0.77619 0.04503 0.0
H399 H 0.70038 0.75653 0.08027 0.0
C400 C 0.7247 0.84099 0.04055 0.0
C401 C 0.72978 0.84186 0.08257 0.0
C402 C 0.72905 0.82007 0.02096 0.0
C403 C 0.73844 0.79945 0.04278 0.0
C404 C 0.74462 0.80026 0.0848 0.0
H405 H 0.77313 0.6568 0.97996 0.0
H406 H 0.76467 0.69386 0.01179 0.0
C407 C 0.74031 0.82129 0.10456 0.0
C408 C 0.74154 0.77722 0.02117 0.0
H409 H 0.7031 0.72276 0.00385 0.0
C410 C 0.76813 0.77571 0.99638 0.0
C411 C 0.71751 0.75799 0.02356 0.0
C412 C 0.68729 0.75897 0.04826 0.0
C413 C 0.77196 0.75528 0.97465 0.0
C414 C 0.74804 0.736 0.97718 0.0
C415 C 0.7213 0.73759 1.0018 0.0
C416 C 0.75185 0.7135 0.95661 0.0
C417 C 0.8023 0.75428 0.9501 0.0
C418 C 0.74674 0.71204 0.9147 0.0
C419 C 0.75171 0.69069 0.89613 0.0
C420 C 0.76175 0.67046 0.91923 0.0
C421 C 0.76572 0.67199 0.9611 0.0
C422 C 0.7608 0.69321 0.97948 0.0
H423 H 0.82355 0.76837 0.95845 0.0
H424 H 0.81696 0.73715 0.95376 0.0
H425 H 0.78927 0.75646 0.91801 0.0
H426 H 0.73905 0.7274 0.89638 0.0
H427 H 0.74823 0.69011 0.86387 0.0
H428 H 0.17277 0.66372 0.53523 0.0
H429 H 0.18158 0.69957 0.49977 0.0
H430 H 0.28533 0.713 0.58338 0.0
H431 H 0.27692 0.67677 0.61927 0.0
H432 H 0.18716 0.74516 0.52908 0.0
H433 H 0.31525 0.71942 0.47306 0.0
H434 H 0.28602 0.69847 0.49232 0.0
H435 H 0.31861 0.71635 0.52611 0.0
C436 C 0.1976 0.67419 0.54624 0.0
C437 C 0.22417 0.66726 0.58026 0.0
C438 C 0.20254 0.69474 0.52582 0.0
C439 C 0.23428 0.70886 0.53858 0.0
C440 C 0.2609 0.70216 0.57259 0.0
H441 H 0.26456 0.85289 0.47734 0.0
H442 H 0.25477 0.8158 0.50884 0.0
C443 C 0.25592 0.68153 0.59324 0.0
C444 C 0.2386 0.73085 0.51666 0.0
H445 H 0.29465 0.75864 0.46152 0.0
C446 C 0.21065 0.74809 0.51429 0.0
C447 C 0.26891 0.7345 0.49679 0.0
C448 C 0.2988 0.71616 0.49677 0.0
C449 C 0.21257 0.76904 0.49329 0.0
C450 C 0.24346 0.773 0.47443 0.0
C451 C 0.27105 0.75559 0.47609 0.0
C452 C 0.24839 0.79554 0.45441 0.0
C453 C 0.18133 0.78671 0.49117 0.0
C454 C 0.24838 0.7965 0.41322 0.0
C455 C 0.25395 0.81784 0.39489 0.0
C456 C 0.26015 0.83851 0.41762 0.0
C457 C 0.25989 0.83737 0.45882 0.0
C458 C 0.25414 0.81616 0.47695 0.0
H459 H 0.15533 0.77865 0.49782 0.0
H460 H 0.19057 0.80065 0.51359 0.0
H461 H 0.17449 0.79498 0.46115 0.0
H462 H 0.24411 0.78074 0.3953 0.0
H463 H 0.25417 0.81806 0.36318 0.0
H464 H 0.90894 0.57072 0.8961 0.0
H465 H 0.96285 0.54871 0.93212 0.0
H466 H 0.88767 0.50062 0.9744 0.0
H467 H 0.8334 0.52243 0.93808 0.0
H468 H 0.97452 0.54416 0.01627 0.0
H469 H 0.96735 0.45784 0.94013 0.0
H470 H 0.94344 0.48341 0.91653 0.0
H471 H 0.92429 0.46761 0.9534 0.0
C472 C 0.90385 0.55512 0.91228 0.0
C473 C 0.86701 0.54836 0.91455 0.0
C474 C 0.93465 0.54263 0.93287 0.0
C475 C 0.92913 0.52313 0.95588 0.0
C476 C 0.8924 0.51548 0.95634 0.0
H477 H 0.08488 0.43489 0.11518 0.0
H478 H 0.02843 0.45594 0.08267 0.0
C479 C 0.86146 0.52793 0.93556 0.0
C480 C 0.96175 0.51236 0.98241 0.0
H481 H 0.01206 0.4619 1.00054 0.0
C482 C 0.98285 0.52618 0.01285 0.0
C483 C 0.97214 0.4889 0.97793 0.0
C484 C 0.95087 0.47356 0.94507 0.0
C485 C 0.01424 0.5171 0.03913 0.0
C486 C 0.02496 0.49373 0.03431 0.0
C487 C 0.00359 0.47983 0.00415 0.0
C488 C 0.05897 0.4834 0.05925 0.0
C489 C 0.03533 0.53247 0.07205 0.0
C490 C 0.09477 0.49237 0.05784 0.0
C491 C 0.12713 0.48048 0.07662 0.0
C492 C 0.12399 0.45929 0.09652 0.0
C493 C 0.0881 0.45111 0.09979 0.0
C494 C 0.05586 0.46306 0.08123 0.0
H495 H 0.01771 0.5473 0.07861 0.0
H496 H 0.04495 0.52233 0.09997 0.0
H497 H 0.06053 0.53984 0.06257 0.0
H498 H 0.0977 0.50786 0.04045 0.0
H499 H 0.1544 0.48708 0.07336 0.0
H500 H 0.10753 0.55584 0.63981 0.0
H501 H 0.0492 0.53468 0.61242 0.0
H502 H 0.10856 0.49393 0.5383 0.0
H503 H 0.16678 0.51513 0.56572 0.0
H504 H 0.02267 0.53937 0.52919 0.0
H505 H 0.03619 0.44602 0.57372 0.0
H506 H 0.06421 0.46884 0.60187 0.0
H507 H 0.07639 0.4577 0.55685 0.0
C508 C 0.10836 0.54151 0.61922 0.0
C509 C 0.14143 0.53665 0.60529 0.0
C510 C 0.07509 0.5296 0.60339 0.0
C511 C 0.07467 0.51269 0.57353 0.0
C512 C 0.10849 0.50658 0.56192 0.0
H513 H 0.9162 0.44111 0.39427 0.0
H514 H 0.97133 0.45954 0.43573 0.0
C515 C 0.14173 0.51857 0.57766 0.0
C516 C 0.03842 0.50448 0.54968 0.0
H517 H 0.98819 0.45543 0.51717 0.0
C518 C 0.01477 0.52105 0.52692 0.0
C519 C 0.02856 0.4806 0.54661 0.0
C520 C 0.05248 0.46225 0.57131 0.0
C521 C 0.98209 0.51426 0.49992 0.0
C522 C 0.97255 0.49031 0.49627 0.0
C523 C 0.99574 0.4738 0.51983 0.0
C524 C 0.93905 0.48178 0.4677 0.0
C525 C 0.95898 0.53269 0.47446 0.0
C526 C 0.90265 0.4888 0.47101 0.0
C527 C 0.87108 0.47859 0.44682 0.0
C528 C 0.87555 0.46092 0.41953 0.0
C529 C 0.912 0.45474 0.41499 0.0
C530 C 0.94347 0.46512 0.43883 0.0
H531 H 0.97528 0.54904 0.47328 0.0
H532 H 0.94883 0.52631 0.44344 0.0
H533 H 0.93405 0.537 0.48744 0.0
H534 H 0.89861 0.50131 0.49361 0.0
H535 H 0.84332 0.48336 0.45147 0.0
H536 H 0.58556 0.94065 0.11771 0.0
H537 H 0.5311 0.96208 0.08152 0.0
H538 H 0.60497 0.0116 0.04057 0.0
H539 H 0.65981 0.99005 0.0762 0.0
H540 H 0.50573 0.00926 0.07849 0.0
H541 H 0.54648 0.97978 0.93749 0.0
H542 H 0.56738 0.96781 0.98575 0.0
H543 H 0.58182 0.996 0.9711 0.0
C544 C 0.59024 0.95641 0.10173 0.0
C545 C 0.62687 0.96344 0.09907 0.0
C546 C 0.55913 0.9686 0.08114 0.0
C547 C 0.56424 0.98796 0.05767 0.0
C548 C 0.60069 0.99636 0.05799 0.0
H549 H 0.41173 0.07203 0.89183 0.0
H550 H 0.46654 0.05127 0.92893 0.0
C551 C 0.63192 0.98416 0.07863 0.0
C552 C 0.53155 0.99788 0.03016 0.0
H553 H 0.49237 1.00361 0.93105 0.0
C554 C 0.50272 0.00808 0.04626 0.0
C555 C 0.5278 0.99596 0.98819 0.0
C556 C 0.55731 0.98413 0.96945 0.0
C557 C 0.4703 0.01689 0.02134 0.0
C558 C 0.46658 0.01499 0.97939 0.0
C559 C 0.49541 0.00481 0.96328 0.0
C560 C 0.43381 0.02479 0.95187 0.0
C561 C 0.44064 0.02859 0.04001 0.0
C562 C 0.39755 0.01589 0.95091 0.0
C563 C 0.36613 0.02767 0.92967 0.0
C564 C 0.3708 0.04849 0.90933 0.0
C565 C 0.40734 0.05616 0.90766 0.0
C566 C 0.43864 0.04435 0.92877 0.0
H567 H 0.45125 0.03276 0.07208 0.0
H568 H 0.43072 0.04499 0.0239 0.0
H569 H 0.41607 0.01673 0.03792 0.0
H570 H 0.39352 1.00051 0.96812 0.0
H571 H 0.3383 0.02134 0.93141 0.0
H572 H 0.41222 0.93532 0.39876 0.0
H573 H 0.46637 0.9569 0.43544 0.0
H574 H 0.3919 0.00823 0.47033 0.0
H575 H 0.33732 0.98658 0.43402 0.0
H576 H 0.49106 1.00436 0.43346 0.0
H577 H 0.4504 0.97984 0.57706 0.0
H578 H 0.43011 0.96603 0.53014 0.0
H579 H 0.41492 0.99468 0.54142 0.0
C580 C 0.40736 0.95143 0.41366 0.0
C581 C 0.37057 0.95911 0.41408 0.0
C582 C 0.43829 0.9637 0.43454 0.0
C583 C 0.43289 0.98376 0.4562 0.0
C584 C 0.39639 0.99248 0.45427 0.0
H585 H 0.58418 0.07264 0.61521 0.0
H586 H 0.52969 0.05073 0.58014 0.0
C587 C 0.36534 0.98023 0.43325 0.0
C588 C 0.46543 0.99453 0.4828 0.0
H589 H 0.50443 1.0036 0.58119 0.0
C590 C 0.49408 1.00423 0.46575 0.0
C591 C 0.46914 0.99406 0.52487 0.0
C592 C 0.43971 0.98294 0.54464 0.0
C593 C 0.5263 0.01393 0.48976 0.0
C594 C 0.53008 0.0134 0.53184 0.0
C595 C 0.50139 1.00374 0.5489 0.0
C596 C 0.5628 0.02403 0.55839 0.0
C597 C 0.55563 0.02513 0.46991 0.0
C598 C 0.59925 0.01544 0.55945 0.0
C599 C 0.63049 0.02791 0.57945 0.0
C600 C 0.62551 0.04911 0.59854 0.0
C601 C 0.58885 0.05651 0.60029 0.0
C602 C 0.55771 0.04403 0.58034 0.0
H603 H 0.54467 0.02852 0.43762 0.0
H604 H 0.5656 0.04189 0.48472 0.0
H605 H 0.58023 0.01327 0.4725 0.0
H606 H 0.60352 0.99972 0.54323 0.0
H607 H 0.65839 0.02173 0.57772 0.0
H608 H 0.16321 0.37265 0.2437 0.0
H609 H 0.10804 0.3677 0.27393 0.0
H610 H 0.03583 0.37082 0.15719 0.0
H611 H 0.0911 0.37544 0.1265 0.0
H612 H 0.05202 0.39985 0.2702 0.0
H613 H 0.99159 0.31557 0.20735 0.0
H614 H 0.03899 0.32456 0.20534 0.0
H615 H -0.00038 0.33622 0.17028 0.0
C616 C 0.13567 0.37183 0.22427 0.0
C617 C 0.13165 0.37437 0.18258 0.0
C618 C 0.10411 0.36904 0.24168 0.0
C619 C 0.06775 0.36868 0.2179 0.0
C620 C 0.06362 0.37054 0.17614 0.0
H621 H 0.84232 0.37933 0.26326 0.0
H622 H 0.89864 0.37422 0.23502 0.0
C623 C 0.09528 0.37323 0.15861 0.0
C624 C 0.03432 0.36836 0.23721 0.0
H625 H 0.95316 0.33872 0.24138 0.0
C626 C 0.03059 0.38635 0.26418 0.0
C627 C 0.00625 0.35081 0.22921 0.0
C628 C 0.00936 0.33057 0.20175 0.0
C629 C -0.00073 0.38759 0.28266 0.0
C630 C 0.97111 0.37011 0.27456 0.0
C631 C 0.97486 0.35204 0.24773 0.0
C632 C 0.93673 0.371 0.29222 0.0
C633 C 0.996 0.40805 0.3097 0.0
C634 C 0.9392 0.37019 0.33385 0.0
C635 C 0.90693 0.37313 0.35023 0.0
C636 C 0.87154 0.37682 0.32524 0.0
C637 C 0.86905 0.37658 0.2835 0.0
C638 C 0.90126 0.37364 0.26721 0.0
H639 H 0.01522 0.42258 0.30547 0.0
H640 H 0.96669 0.41483 0.30422 0.0
H641 H 0.00355 0.40229 0.34134 0.0
H642 H 0.96622 0.36776 0.35371 0.0
H643 H 0.90993 0.3732 0.38246 0.0
H644 H 0.14425 0.65107 0.70832 0.0
H645 H 0.0919 0.65616 0.74311 0.0
H646 H 0.02838 0.6034 0.66828 0.0
H647 H 0.08051 0.59814 0.63316 0.0
H648 H 0.01288 0.66725 0.71164 0.0
H649 H 0.03465 0.58053 0.78609 0.0
H650 H 0.07014 0.59449 0.76367 0.0
H651 H 0.03074 0.58014 0.73271 0.0
C652 C 0.11903 0.64067 0.69894 0.0
C653 C 0.11668 0.62409 0.66805 0.0
C654 C 0.08917 0.64363 0.7189 0.0
C655 C 0.05659 0.62993 0.70861 0.0
C656 C 0.05358 0.61391 0.67699 0.0
H657 H 0.83691 0.63693 0.76427 0.0
H658 H 0.89284 0.64038 0.73489 0.0
C659 C 0.08333 0.61102 0.65684 0.0
C660 C 0.0261 0.63199 0.73157 0.0
H661 H 0.97967 0.6014 0.79287 0.0
C662 C 0.00568 0.65293 0.72958 0.0
C663 C 0.01731 0.6134 0.75547 0.0
C664 C 0.0395 0.59091 0.76004 0.0
C665 C 0.97572 0.65547 0.74984 0.0
C666 C 0.96594 0.63652 0.77241 0.0
C667 C 0.98719 0.61587 0.77545 0.0
C668 C 0.9324 0.63715 0.79115 0.0
C669 C 0.95473 0.67836 0.74692 0.0
C670 C 0.93609 0.63427 0.83264 0.0
C671 C 0.90407 0.63234 0.84965 0.0
C672 C 0.86786 0.63292 0.8253 0.0
C673 C 0.86437 0.63647 0.7839 0.0
C674 C 0.89632 0.63857 0.76703 0.0
H675 H 0.97168 0.69288 0.73795 0.0
H676 H 0.92844 0.6768 0.72396 0.0
H677 H 0.94689 0.68287 0.77586 0.0
H678 H 0.96376 0.63295 0.8517 0.0
H679 H 0.90772 0.62938 0.88155 0.0
H680 H 0.33839 0.87112 0.26431 0.0
H681 H 0.39448 0.86619 0.23573 0.0
H682 H 0.46455 0.87148 0.35341 0.0
H683 H 0.40829 0.87609 0.3825 0.0
H684 H 0.44937 0.89956 0.24041 0.0
H685 H 0.51158 0.81617 0.30561 0.0
H686 H 0.46355 0.82445 0.30607 0.0
H687 H 0.50174 0.83692 0.3417 0.0
C688 C 0.36566 0.87079 0.28431 0.0
C689 C 0.36884 0.87399 0.32576 0.0
C690 C 0.39772 0.86798 0.26786 0.0
C691 C 0.43371 0.86829 0.2924 0.0
C692 C 0.43703 0.8707 0.33396 0.0
H693 H 0.65901 0.88133 0.24604 0.0
H694 H 0.60344 0.876 0.27562 0.0
C695 C 0.40484 0.8734 0.35055 0.0
C696 C 0.46752 0.86831 0.27389 0.0
H697 H 0.54938 0.83931 0.27087 0.0
C698 C 0.47109 0.88627 0.24683 0.0
C699 C 0.49593 0.85105 0.28252 0.0
C700 C 0.49299 0.83092 0.31029 0.0
C701 C 0.50249 0.88768 0.2286 0.0
C702 C 0.53088 0.87041 0.23712 0.0
C703 C 0.52744 0.85245 0.26424 0.0
C704 C 0.56488 0.87129 0.21905 0.0
C705 C 0.50552 0.90802 0.20119 0.0
C706 C 0.5618 0.86973 0.17744 0.0
C707 C 0.59354 0.87278 0.16033 0.0
C708 C 0.629 0.87735 0.18459 0.0
C709 C 0.63217 0.87787 0.22641 0.0
C710 C 0.60044 0.87481 0.24344 0.0
H711 H 0.48607 0.92246 0.20512 0.0
H712 H 0.53472 0.91498 0.20658 0.0
H713 H 0.4981 0.90205 0.16966 0.0
H714 H 0.53467 0.86665 0.15813 0.0
H715 H 0.59007 0.87222 0.12807 0.0
H716 H 0.65823 0.13078 0.74535 0.0
H717 H 0.60208 0.13543 0.77422 0.0
H718 H 0.53421 0.14443 0.6562 0.0
H719 H 0.59017 0.13957 0.62687 0.0
H720 H 0.54675 0.17166 0.76854 0.0
H721 H 0.48666 0.08774 0.70256 0.0
H722 H 0.53523 0.0958 0.70482 0.0
H723 H 0.4987 0.10836 0.66739 0.0
C724 C 0.63147 0.13404 0.72547 0.0
C725 C 0.62872 0.13466 0.68371 0.0
C726 C 0.5994 0.13671 0.74208 0.0
C727 C 0.56394 0.13992 0.71733 0.0
C728 C 0.56127 0.1416 0.67579 0.0
H729 H 0.33672 0.13631 0.76184 0.0
H730 H 0.39252 0.14193 0.7329 0.0
C731 C 0.59334 0.13895 0.6591 0.0
C732 C 0.52963 0.14032 0.73491 0.0
H733 H 0.44899 0.10997 0.7376 0.0
C734 C 0.52529 0.15822 0.76179 0.0
C735 C 0.50185 0.12266 0.7262 0.0
C736 C 0.50582 0.10241 0.69896 0.0
C737 C 0.49352 0.15914 0.7797 0.0
C738 C 0.46577 0.14145 0.771 0.0
C739 C 0.47018 0.12358 0.7441 0.0
C740 C 0.43195 0.14083 0.78952 0.0
C741 C 0.48963 0.17924 0.80719 0.0
C742 C 0.43548 0.13868 0.83114 0.0
C743 C 0.40349 0.13559 0.84792 0.0
C744 C 0.36744 0.13434 0.82329 0.0
C745 C 0.36402 0.13718 0.78173 0.0
C746 C 0.39591 0.14038 0.76508 0.0
H747 H 0.50739 0.19437 0.80215 0.0
H748 H 0.45988 0.1851 0.80306 0.0
H749 H 0.4989 0.1735 0.83868 0.0
H750 H 0.46304 0.13846 0.85055 0.0
H751 H 0.40717 0.13319 0.87996 0.0
H752 H 0.18146 0.42861 0.98188 0.0
H753 H 0.18243 0.45399 0.92424 0.0
H754 H 0.27976 0.48989 0.99067 0.0
H755 H 0.27989 0.46423 0.04757 0.0
H756 H 0.17344 0.5007 0.91862 0.0
H757 H 0.31355 0.47789 0.88794 0.0
H758 H 0.29122 0.46087 0.92118 0.0
H759 H 0.31606 0.48737 0.93848 0.0
C760 C 0.20359 0.44156 0.9839 0.0
C761 C 0.23073 0.44421 0.01937 0.0
C762 C 0.20393 0.45619 0.95102 0.0
C763 C 0.23137 0.47376 0.95291 0.0
C764 C 0.25882 0.47616 0.98803 0.0
H765 H 0.21403 0.59339 0.78539 0.0
H766 H 0.21244 0.56957 0.84526 0.0
C767 C 0.25877 0.46142 0.02068 0.0
C768 C 0.23056 0.49013 0.91883 0.0
H769 H 0.28419 0.51172 0.85535 0.0
C770 C 0.19759 0.50304 0.90463 0.0
C771 C 0.26203 0.49316 0.90048 0.0
C772 C 0.29756 0.47892 0.91252 0.0
C773 C 0.1952 0.51881 0.87253 0.0
C774 C 0.22695 0.52215 0.85478 0.0
C775 C 0.25997 0.50936 0.86924 0.0
C776 C 0.22584 0.53702 0.81876 0.0
C777 C 0.1584 0.53117 0.85714 0.0
C778 C 0.2341 0.52676 0.78424 0.0
C779 C 0.23561 0.54026 0.75067 0.0
C780 C 0.22875 0.56447 0.75047 0.0
C781 C 0.21946 0.5748 0.78465 0.0
C782 C 0.21834 0.56118 0.81874 0.0
H783 H 0.13459 0.5228 0.86798 0.0
H784 H 0.16063 0.54954 0.86777 0.0
H785 H 0.15181 0.53138 0.82393 0.0
H786 H 0.23973 0.50819 0.78334 0.0
H787 H 0.24229 0.53159 0.72471 0.0
H788 H 0.70856 0.45364 0.46413 0.0
H789 H 0.70369 0.47903 0.52055 0.0
H790 H 0.81792 0.46206 0.57665 0.0
H791 H 0.82328 0.43678 0.52025 0.0
H792 H 0.71393 0.47088 0.60366 0.0
H793 H 0.81854 0.53408 0.56721 0.0
H794 H 0.79704 0.51175 0.53266 0.0
H795 H 0.83512 0.50446 0.57317 0.0
C796 C 0.73252 0.45503 0.48871 0.0
C797 C 0.76642 0.44328 0.48746 0.0
C798 C 0.72969 0.46961 0.52087 0.0
C799 C 0.76073 0.47286 0.55226 0.0
C800 C 0.7939 0.46019 0.55225 0.0
H801 H 0.78221 0.52958 0.78582 0.0
H802 H 0.77918 0.5068 0.72521 0.0
C803 C 0.79675 0.44553 0.52017 0.0
C804 C 0.75863 0.48984 0.58462 0.0
H805 H 0.79906 0.53961 0.62935 0.0
C806 C 0.73234 0.48599 0.60911 0.0
C807 C 0.78221 0.50979 0.59118 0.0
C808 C 0.8096 0.51547 0.56447 0.0
C809 C 0.73009 0.50104 0.64105 0.0
C810 C 0.7549 0.52035 0.64879 0.0
C811 C 0.78018 0.52474 0.62338 0.0
C812 C 0.75705 0.53491 0.68508 0.0
C813 C 0.70146 0.49606 0.66663 0.0
C814 C 0.74646 0.55857 0.68256 0.0
C815 C 0.74805 0.57185 0.71749 0.0
C816 C 0.76063 0.56165 0.75535 0.0
C817 C 0.77208 0.53808 0.75734 0.0
C818 C 0.77028 0.52491 0.72267 0.0
H819 H 0.67856 0.48445 0.6511 0.0
H820 H 0.71562 0.48721 0.69454 0.0
H821 H 0.68881 0.51253 0.67507 0.0
H822 H 0.73646 0.56663 0.65367 0.0
H823 H 0.73918 0.58995 0.71487 0.0
H824 H 0.72472 0.42832 0.21904 0.0
H825 H 0.72148 0.45232 0.15859 0.0
H826 H 0.80937 0.4969 0.22213 0.0
H827 H 0.81273 0.47328 0.28227 0.0
H828 H 0.70761 0.50431 0.15663 0.0
H829 H 0.84257 0.47858 0.11475 0.0
H830 H 0.81882 0.46038 0.14534 0.0
H831 H 0.8453 0.48542 0.1667 0.0
C832 C 0.74371 0.44302 0.21987 0.0
C833 C 0.76893 0.44894 0.25541 0.0
C834 C 0.74169 0.45676 0.18546 0.0
C835 C 0.76533 0.47628 0.18598 0.0
C836 C 0.79115 0.48179 0.22106 0.0
H837 H 0.81101 0.58355 0.02443 0.0
H838 H 0.80781 0.55929 0.08266 0.0
C839 C 0.79291 0.4683 0.25542 0.0
C840 C 0.7622 0.49172 0.15067 0.0
H841 H 0.81181 0.51197 0.0825 0.0
C842 C 0.73014 0.50587 0.14005 0.0
C843 C 0.79187 0.49382 0.12956 0.0
C844 C 0.82652 0.47864 0.13934 0.0
C845 C 0.72744 0.52261 0.10945 0.0
C846 C 0.75728 0.52485 0.08845 0.0
C847 C 0.78907 0.51039 0.09879 0.0
C848 C 0.75617 0.54175 0.0552 0.0
C849 C 0.69325 0.53824 0.10084 0.0
C850 C 0.72767 0.54041 0.02078 0.0
C851 C 0.72919 0.55444 0.98757 0.0
C852 C 0.75961 0.56984 0.98788 0.0
C853 C 0.7872 0.5719 0.0231 0.0
C854 C 0.78552 0.55796 0.05637 0.0
H855 H 0.67888 0.53912 0.12672 0.0
H856 H 0.70093 0.55625 0.09329 0.0
H857 H 0.67285 0.53112 0.07497 0.0
H858 H 0.70514 0.52776 0.01883 0.0
H859 H 0.70751 0.55228 0.96095 0.0
H860 H 0.27926 0.42825 0.28808 0.0
H861 H 0.28164 0.45316 0.34745 0.0
H862 H 0.18869 0.4938 0.28348 0.0
H863 H 0.1859 0.46917 0.22486 0.0
H864 H 0.2936 0.50287 0.34884 0.0
H865 H 0.15752 0.48009 0.39027 0.0
H866 H 0.17951 0.46179 0.35835 0.0
H867 H 0.15326 0.48724 0.33832 0.0
C868 C 0.25889 0.44219 0.28711 0.0
C869 C 0.23246 0.44678 0.25184 0.0
C870 C 0.26041 0.45647 0.32085 0.0
C871 C 0.23513 0.4752 0.31989 0.0
C872 C 0.20807 0.47926 0.28511 0.0
H873 H 0.1921 0.58672 0.47716 0.0
H874 H 0.19621 0.56365 0.41749 0.0
C875 C 0.20668 0.4652 0.25154 0.0
C876 C 0.23803 0.49159 0.35399 0.0
H877 H 0.18724 0.51508 0.41852 0.0
C878 C 0.27055 0.50541 0.36443 0.0
C879 C 0.20772 0.49502 0.37388 0.0
C880 C 0.17266 0.48011 0.36494 0.0
C881 C 0.27322 0.52296 0.39368 0.0
C882 C 0.24273 0.52653 0.41327 0.0
C883 C 0.21037 0.51256 0.40304 0.0
C884 C 0.24455 0.54349 0.44646 0.0
C885 C 0.30827 0.53785 0.40273 0.0
C886 C 0.27108 0.54033 0.48201 0.0
C887 C 0.26884 0.55347 0.51589 0.0
C888 C 0.23991 0.56997 0.51499 0.0
C889 C 0.21492 0.57432 0.47863 0.0
C890 C 0.21706 0.56102 0.44466 0.0
H891 H 0.32367 0.5377 0.37761 0.0
H892 H 0.30136 0.55621 0.40896 0.0
H893 H 0.32743 0.53084 0.42961 0.0
H894 H 0.29212 0.52669 0.48434 0.0
H895 H 0.28846 0.54972 0.54354 0.0
H896 H 0.66666 0.94586 0.99525 0.0
H897 H 0.67112 0.97084 0.93846 0.0
H898 H 0.7924 0.96971 0.9723 0.0
H899 H 0.78804 0.94543 0.03038 0.0
H900 H 0.76861 0.01286 0.95566 0.0
H901 H 0.69691 0.95544 0.83346 0.0
H902 H 0.66775 0.96132 0.86904 0.0
H903 H 0.71099 0.94523 0.88423 0.0
C904 C 0.69434 0.95048 0.99016 0.0
C905 C 0.72705 0.94344 0.01711 0.0
C906 C 0.69685 0.9648 0.95758 0.0
C907 C 0.73212 0.9719 0.95059 0.0
C908 C 0.76487 0.96444 0.97697 0.0
H909 H 0.76144 0.03184 0.72697 0.0
H910 H 0.76288 0.00816 0.78659 0.0
C911 C 0.76236 0.95043 0.00999 0.0
C912 C 0.73478 0.98792 0.91685 0.0
H913 H 0.70572 0.99509 0.81613 0.0
C914 C 0.75511 0.0089 0.92507 0.0
C915 C 0.71744 0.98271 0.87687 0.0
C916 C 0.6974 0.95984 0.86529 0.0
C917 C 0.75843 0.02481 0.89451 0.0
C918 C 0.73995 0.01997 0.85475 0.0
C919 C 0.71966 0.99897 0.84662 0.0
C920 C 0.74258 0.03562 0.82051 0.0
C921 C 0.78253 0.0463 0.90505 0.0
C922 C 0.73153 0.05925 0.81983 0.0
C923 C 0.73151 0.07307 0.78578 0.0
C924 C 0.74158 0.06325 0.75167 0.0
C925 C 0.75328 0.03982 0.75279 0.0
C926 C 0.75405 0.02624 0.78685 0.0
H927 H 0.80303 0.04404 0.9337 0.0
H928 H 0.79832 0.05058 0.8812 0.0
H929 H 0.7642 0.06136 0.90859 0.0
H930 H 0.72173 0.0668 0.84501 0.0
H931 H 0.72198 0.09103 0.78542 0.0
H932 H 0.21822 0.08211 0.71533 0.0
H933 H 0.21434 0.05719 0.65577 0.0
H934 H 0.3059 0.01512 0.71881 0.0
H935 H 0.30948 0.03943 0.77804 0.0
H936 H 0.26664 0.04456 0.60878 0.0
H937 H 0.22321 0.96681 0.68521 0.0
H938 H 0.22302 0.99592 0.70555 0.0
H939 H 0.2662 0.97952 0.71192 0.0
C940 C 0.23774 0.0677 0.71622 0.0
C941 C 0.26378 0.06253 0.75154 0.0
C942 C 0.23541 0.05343 0.68229 0.0
C943 C 0.25911 0.03387 0.68327 0.0
C944 C 0.28653 0.02963 0.71775 0.0
H945 H 0.31296 0.92877 0.52259 0.0
H946 H 0.3083 0.95396 0.5795 0.0
C947 C 0.28867 0.04366 0.75153 0.0
C948 C 0.25533 0.01757 0.64876 0.0
H949 H 0.24345 0.95978 0.62362 0.0
C950 C 0.26109 0.02609 0.61185 0.0
C951 C 0.24801 0.99343 0.65277 0.0
C952 C 0.23937 0.98339 0.69089 0.0
C953 C 0.26114 0.01097 0.57935 0.0
C954 C 0.25497 0.98677 0.58384 0.0
C955 C 0.24844 0.97832 0.62041 0.0
C956 C 0.25579 0.96998 0.55091 0.0
C957 C 0.26889 0.02079 0.54073 0.0
C958 C 0.22706 0.97005 0.51668 0.0
C959 C 0.2294 0.95555 0.48427 0.0
C960 C 0.26069 0.94075 0.48537 0.0
C961 C 0.2885 0.93991 0.52063 0.0
C962 C 0.28598 0.95436 0.55315 0.0
H963 H 0.27885 0.03919 0.54403 0.0
H964 H 0.2904 0.01007 0.52992 0.0
H965 H 0.24266 0.02021 0.51752 0.0
H966 H 0.20327 0.98177 0.51464 0.0
H967 H 0.20736 0.95665 0.45774 0.0
H968 H 0.23942 0.91918 0.21327 0.0
H969 H 0.23637 0.94251 0.15205 0.0
H970 H 0.28549 1.00115 0.22307 0.0
H971 H 0.28889 0.97831 0.28373 0.0
H972 H 0.21616 0.01057 0.16378 0.0
H973 H 0.32887 0.96559 0.10255 0.0
H974 H 0.29321 0.94782 0.11799 0.0
H975 H 0.32598 0.9637 0.15473 0.0
C976 C 0.24981 0.93697 0.21577 0.0
C977 C 0.2643 0.94681 0.25353 0.0
C978 C 0.24807 0.95027 0.1808 0.0
C979 C 0.26073 0.97356 0.18313 0.0
C980 C 0.27548 0.98325 0.22063 0.0
H981 H 0.32068 0.07259 0.01656 0.0
H982 H 0.31616 0.04741 0.07335 0.0
C983 C 0.27743 0.97006 0.25534 0.0
C984 C 0.25829 0.98831 0.14692 0.0
H985 H 0.29958 0.99796 0.06663 0.0
C986 C 0.23407 0.00771 0.14224 0.0
C987 C 0.28207 0.98465 0.11929 0.0
C988 C 0.30924 0.96442 0.12372 0.0
C989 C 0.2333 0.02372 0.11082 0.0
C990 C 0.25727 0.02016 0.08332 0.0
C991 C 0.28121 1.00062 0.08777 0.0
C992 C 0.25863 0.0368 0.05023 0.0
C993 C 0.20774 0.04472 0.10799 0.0
C994 C 0.22753 0.03951 0.0187 0.0
C995 C 0.22996 0.05393 0.98615 0.0
C996 C 0.2636 0.06593 0.98447 0.0
C997 C 0.29424 0.0638 0.01689 0.0
C998 C 0.29183 0.04926 0.04929 0.0
H999 H 0.19672 0.04738 0.13583 0.0
H1000 H 0.22285 0.06078 0.10182 0.0
H1001 H 0.1834 0.04219 0.08289 0.0
H1002 H 0.20176 0.02988 0.01865 0.0
H1003 H 0.20587 0.05507 0.96168 0.0
H1004 H 0.66564 0.06503 0.49661 0.0
H1005 H 0.66943 0.03896 0.44099 0.0
H1006 H 0.79084 0.04134 0.47211 0.0
H1007 H 0.78716 0.06663 0.52916 0.0
H1008 H 0.6959 0.04238 0.37656 0.0
H1009 H 0.77573 0.97241 0.46827 0.0
H1010 H 0.75625 0.99701 0.49021 0.0
H1011 H 0.80063 0.99967 0.47429 0.0
C1012 C 0.69319 0.06026 0.49136 0.0
C1013 C 0.72614 0.06787 0.51734 0.0
C1014 C 0.69532 0.0452 0.45964 0.0
C1015 C 0.73042 0.03761 0.45289 0.0
C1016 C 0.76341 0.04623 0.4775 0.0
H1017 H 0.76082 0.98028 0.22806 0.0
H1018 H 0.76 1.00362 0.28763 0.0
C1019 C 0.7613 0.06096 0.50975 0.0
C1020 C 0.73223 0.02095 0.41978 0.0
H1021 H 0.77068 0.96923 0.39747 0.0
C1022 C 0.71209 0.02633 0.38129 0.0
C1023 C 0.75257 0.99965 0.42593 0.0
C1024 C 0.77215 0.9917 0.46699 0.0
C1025 C 0.71244 0.01141 0.34874 0.0
C1026 C 0.73479 0.99091 0.35437 0.0
C1027 C 0.75408 0.98513 0.39301 0.0
C1028 C 0.73911 0.97572 0.3202 0.0
C1029 C 0.68824 0.01766 0.30876 0.0
C1030 C 0.73015 0.95176 0.31966 0.0
C1031 C 0.73157 0.93812 0.28576 0.0
C1032 C 0.74161 0.94839 0.25196 0.0
C1033 C 0.75234 0.97203 0.25347 0.0
C1034 C 0.75162 0.98544 0.28739 0.0
H1035 H 0.66404 0.02881 0.3124 0.0
H1036 H 0.70535 0.02771 0.29096 0.0
H1037 H 0.67713 1.0018 0.29164 0.0
H1038 H 0.72085 0.94382 0.34486 0.0
H1039 H 0.72316 0.91993 0.28525 0.0
loop_
_geom_bond_atom_site_label_1
_geom_bond_atom_site_label_2
_geom_bond_distance
_geom_bond_site_symmetry_2
_ccdc_geom_bond_type
Fe0 O2 1.918 . S
Fe0 O5 1.997 . S
Fe0 O6 2.002 . S
Fe0 O11 1.976 . S
Fe0 O14 1.996 . S
Fe1 O2 1.918 . S
Fe1 O9 1.997 . S
Fe1 O12 1.996 . S
Fe1 O16 1.976 . S
Fe1 O19 2.002 . S
O2 Fe0 1.918 . S
O2 Fe1 1.918 . S
O2 Fe3 1.918 . S
Fe3 O2 1.918 . S
Fe3 O4 2.002 . S
Fe3 O13 1.976 . S
Fe3 O17 1.996 . S
Fe3 O20 1.997 . S
O4 Fe3 2.002 . S
O4 C21 1.295 . S
O5 Fe0 1.997 . S
O5 C21 1.235 . S
O6 Fe0 2.002 . S
O6 C7 1.295 . S
C7 O6 1.295 . S
C7 O9 1.235 . S
C8 O13 1.287 . S
C8 O14 1.255 . S
O9 Fe1 1.997 . S
O9 C7 1.235 . S
C10 O16 1.287 . S
C10 O17 1.255 . S
O11 Fe0 1.976 . S
O11 C18 1.287 . S
O12 Fe1 1.996 . S
O12 C18 1.255 . S
O13 Fe3 1.976 . S
O13 C8 1.287 . S
O14 Fe0 1.996 . S
O14 C8 1.255 . S
C15 O19 1.295 . S
C15 O20 1.235 . S
O16 Fe1 1.976 . S
O16 C10 1.287 . S
O17 Fe3 1.996 . S
O17 C10 1.255 . S
C18 O11 1.287 . S
C18 O12 1.255 . S
O19 Fe1 2.002 . S
O19 C15 1.295 . S
O20 Fe3 1.997 . S
O20 C15 1.235 . S
C21 O4 1.295 . S
C21 O5 1.235 . S
Fe22 O24 1.918 . S
Fe22 O27 1.997 . S
Fe22 O28 2.002 . S
Fe22 O33 1.976 . S
Fe22 O36 1.996 . S
Fe23 O24 1.918 . S
Fe23 O31 1.997 . S
Fe23 O34 1.996 . S
Fe23 O38 1.976 . S
Fe23 O41 2.002 . S
O24 Fe22 1.918 . S
O24 Fe23 1.918 . S
O24 Fe25 1.918 . S
Fe25 O24 1.918 . S
Fe25 O26 2.002 . S
Fe25 O35 1.976 . S
Fe25 O39 1.996 . S
Fe25 O42 1.997 . S
O26 Fe25 2.002 . S
O26 C43 1.295 . S
O27 Fe22 1.997 . S
O27 C43 1.235 . S
O28 Fe22 2.002 . S
O28 C29 1.295 . S
C29 O28 1.295 . S
C29 O31 1.235 . S
C30 O35 1.287 . S
C30 O36 1.255 . S
O31 Fe23 1.997 . S
O31 C29 1.235 . S
C32 O38 1.287 . S
C32 O39 1.255 . S
O33 Fe22 1.976 . S
O33 C40 1.287 . S
O34 Fe23 1.996 . S
O34 C40 1.255 . S
O35 Fe25 1.976 . S
O35 C30 1.287 . S
O36 Fe22 1.996 . S
O36 C30 1.255 . S
C37 O41 1.295 . S
C37 O42 1.235 . S
O38 Fe23 1.976 . S
O38 C32 1.287 . S
O39 Fe25 1.996 . S
O39 C32 1.255 . S
C40 O33 1.287 . S
C40 O34 1.255 . S
O41 Fe23 2.002 . S
O41 C37 1.295 . S
O42 Fe25 1.997 . S
O42 C37 1.235 . S
C43 O26 1.295 . S
C43 O27 1.235 . S
Fe44 O46 1.918 . S
Fe44 O49 1.997 . S
Fe44 O50 2.002 . S
Fe44 O55 1.976 . S
Fe44 O58 1.996 . S
Fe45 O46 1.918 . S
Fe45 O53 1.997 . S
Fe45 O56 1.996 . S
Fe45 O60 1.976 . S
Fe45 O63 2.002 . S
O46 Fe44 1.918 . S
O46 Fe45 1.918 . S
O46 Fe47 1.918 . S
Fe47 O46 1.918 . S
Fe47 O48 2.002 . S
Fe47 O57 1.976 . S
Fe47 O61 1.996 . S
Fe47 O64 1.997 . S
O48 Fe47 2.002 . S
O48 C65 1.295 . S
O49 Fe44 1.997 . S
O49 C65 1.235 . S
O50 Fe44 2.002 . S
O50 C51 1.295 . S
C51 O50 1.295 . S
C51 O53 1.235 . S
C52 O57 1.287 . S
C52 O58 1.255 . S
O53 Fe45 1.997 . S
O53 C51 1.235 . S
C54 O60 1.287 . S
C54 O61 1.255 . S
O55 Fe44 1.976 . S
O55 C62 1.287 . S
O56 Fe45 1.996 . S
O56 C62 1.255 . S
O57 Fe47 1.976 . S
O57 C52 1.287 . S
O58 Fe44 1.996 . S
O58 C52 1.255 . S
C59 O63 1.295 . S
C59 O64 1.235 . S
O60 Fe45 1.976 . S
O60 C54 1.287 . S
O61 Fe47 1.996 . S
O61 C54 1.255 . S
C62 O55 1.287 . S
C62 O56 1.255 . S
O63 Fe45 2.002 . S
O63 C59 1.295 . S
O64 Fe47 1.997 . S
O64 C59 1.235 . S
C65 O48 1.295 . S
C65 O49 1.235 . S
Fe66 O68 1.918 . S
Fe66 O71 1.997 . S
Fe66 O72 2.002 . S
Fe66 O77 1.976 . S
Fe66 O80 1.996 . S
Fe67 O68 1.918 . S
Fe67 O75 1.997 . S
Fe67 O78 1.996 . S
Fe67 O82 1.976 . S
Fe67 O85 2.002 . S
O68 Fe66 1.918 . S
O68 Fe67 1.918 . S
O68 Fe69 1.918 . S
Fe69 O68 1.918 . S
Fe69 O70 2.002 . S
Fe69 O79 1.976 . S
Fe69 O83 1.996 . S
Fe69 O86 1.997 . S
O70 Fe69 2.002 . S
O70 C87 1.295 . S
O71 Fe66 1.997 . S
O71 C87 1.235 . S
O72 Fe66 2.002 . S
O72 C73 1.295 . S
C73 O72 1.295 . S
C73 O75 1.235 . S
C74 O79 1.287 . S
C74 O80 1.255 . S
O75 Fe67 1.997 . S
O75 C73 1.235 . S
C76 O82 1.287 . S
C76 O83 1.255 . S
O77 Fe66 1.976 . S
O77 C84 1.287 . S
O78 Fe67 1.996 . S
O78 C84 1.255 . S
O79 Fe69 1.976 . S
O79 C74 1.287 . S
O80 Fe66 1.996 . S
O80 C74 1.255 . S
C81 O85 1.295 . S
C81 O86 1.235 . S
O82 Fe67 1.976 . S
O82 C76 1.287 . S
O83 Fe69 1.996 . S
O83 C76 1.255 . S
C84 O77 1.287 . S
C84 O78 1.255 . S
O85 Fe67 2.002 . S
O85 C81 1.295 . S
O86 Fe69 1.997 . S
O86 C81 1.235 . S
C87 O70 1.295 . S
C87 O71 1.235 . S
Fe88 O90 1.918 . S
Fe88 O93 1.997 . S
Fe88 O94 2.002 . S
Fe88 O99 1.976 . S
Fe88 O102 1.996 . S
Fe89 O90 1.918 . S
Fe89 O97 1.997 . S
Fe89 O100 1.996 . S
Fe89 O104 1.976 . S
Fe89 O107 2.002 . S
O90 Fe88 1.918 . S
O90 Fe89 1.918 . S
O90 Fe91 1.918 . S
Fe91 O90 1.918 . S
Fe91 O92 2.002 . S
Fe91 O101 1.976 . S
Fe91 O105 1.996 . S
Fe91 O108 1.997 . S
O92 Fe91 2.002 . S
O92 C109 1.295 . S
O93 Fe88 1.997 . S
O93 C109 1.235 . S
O94 Fe88 2.002 . S
O94 C95 1.295 . S
C95 O94 1.295 . S
C95 O97 1.235 . S
C96 O101 1.287 . S
C96 O102 1.255 . S
O97 Fe89 1.997 . S
O97 C95 1.235 . S
C98 O104 1.287 . S
C98 O105 1.255 . S
O99 Fe88 1.976 . S
O99 C106 1.287 . S
O100 Fe89 1.996 . S
O100 C106 1.255 . S
O101 Fe91 1.976 . S
O101 C96 1.287 . S
O102 Fe88 1.996 . S
O102 C96 1.255 . S
C103 O107 1.295 . S
C103 O108 1.235 . S
O104 Fe89 1.976 . S
O104 C98 1.287 . S
O105 Fe91 1.996 . S
O105 C98 1.255 . S
C106 O99 1.287 . S
C106 O100 1.255 . S
O107 Fe89 2.002 . S
O107 C103 1.295 . S
O108 Fe91 1.997 . S
O108 C103 1.235 . S
C109 O92 1.295 . S
C109 O93 1.235 . S
Fe110 O112 1.918 . S
Fe110 O115 1.997 . S
Fe110 O116 2.002 . S
Fe110 O121 1.976 . S
Fe110 O124 1.996 . S
Fe111 O112 1.918 . S
Fe111 O119 1.997 . S
Fe111 O122 1.996 . S
Fe111 O126 1.976 . S
Fe111 O129 2.002 . S
O112 Fe110 1.918 . S
O112 Fe111 1.918 . S
O112 Fe113 1.918 . S
Fe113 O112 1.918 . S
Fe113 O114 2.002 . S
Fe113 O123 1.976 . S
Fe113 O127 1.996 . S
Fe113 O130 1.997 . S
O114 Fe113 2.002 . S
O114 C131 1.295 . S
O115 Fe110 1.997 . S
O115 C131 1.235 . S
O116 Fe110 2.002 . S
O116 C117 1.295 . S
C117 O116 1.295 . S
C117 O119 1.235 . S
C118 O123 1.287 . S
C118 O124 1.255 . S
O119 Fe111 1.997 . S
O119 C117 1.235 . S
C120 O126 1.287 . S
C120 O127 1.255 . S
O121 Fe110 1.976 . S
O121 C128 1.287 . S
O122 Fe111 1.996 . S
O122 C128 1.255 . S
O123 Fe113 1.976 . S
O123 C118 1.287 . S
O124 Fe110 1.996 . S
O124 C118 1.255 . S
C125 O129 1.295 . S
C125 O130 1.235 . S
O126 Fe111 1.976 . S
O126 C120 1.287 . S
O127 Fe113 1.996 . S
O127 C120 1.255 . S
C128 O121 1.287 . S
C128 O122 1.255 . S
O129 Fe111 2.002 . S
O129 C125 1.295 . S
O130 Fe113 1.997 . S
O130 C125 1.235 . S
C131 O114 1.295 . S
C131 O115 1.235 . S
Fe132 O134 1.918 . S
Fe132 O137 1.997 . S
Fe132 O138 2.002 . S
Fe132 O143 1.976 . S
Fe132 O146 1.996 . S
Fe133 O134 1.918 . S
Fe133 O141 1.997 . S
Fe133 O144 1.996 . S
Fe133 O148 1.976 . S
Fe133 O151 2.002 . S
O134 Fe132 1.918 . S
O134 Fe133 1.918 . S
O134 Fe135 1.918 . S
Fe135 O134 1.918 . S
Fe135 O136 2.002 . S
Fe135 O145 1.976 . S
Fe135 O149 1.996 . S
Fe135 O152 1.997 . S
O136 Fe135 2.002 . S
O136 C153 1.295 . S
O137 Fe132 1.997 . S
O137 C153 1.235 . S
O138 Fe132 2.002 . S
O138 C139 1.295 . S
C139 O138 1.295 . S
C139 O141 1.235 . S
C140 O145 1.287 . S
C140 O146 1.255 . S
O141 Fe133 1.997 . S
O141 C139 1.235 . S
C142 O148 1.287 . S
C142 O149 1.255 . S
O143 Fe132 1.976 . S
O143 C150 1.287 . S
O144 Fe133 1.996 . S
O144 C150 1.255 . S
O145 Fe135 1.976 . S
O145 C140 1.287 . S
O146 Fe132 1.996 . S
O146 C140 1.255 . S
C147 O151 1.295 . S
C147 O152 1.235 . S
O148 Fe133 1.976 . S
O148 C142 1.287 . S
O149 Fe135 1.996 . S
O149 C142 1.255 . S
C150 O143 1.287 . S
C150 O144 1.255 . S
O151 Fe133 2.002 . S
O151 C147 1.295 . S
O152 Fe135 1.997 . S
O152 C147 1.235 . S
C153 O136 1.295 . S
C153 O137 1.235 . S
Fe154 O156 1.918 . S
Fe154 O159 1.997 . S
Fe154 O160 2.002 . S
Fe154 O165 1.976 . S
Fe154 O168 1.996 . S
Fe155 O156 1.918 . S
Fe155 O163 1.997 . S
Fe155 O166 1.996 . S
Fe155 O170 1.976 . S
Fe155 O173 2.002 . S
O156 Fe154 1.918 . S
O156 Fe155 1.918 . S
O156 Fe157 1.918 . S
Fe157 O156 1.918 . S
Fe157 O158 2.002 . S
Fe157 O167 1.976 . S
Fe157 O171 1.996 . S
Fe157 O174 1.997 . S
O158 Fe157 2.002 . S
O158 C175 1.295 . S
O159 Fe154 1.997 . S
O159 C175 1.235 . S
O160 Fe154 2.002 . S
O160 C161 1.295 . S
C161 O160 1.295 . S
C161 O163 1.235 . S
C162 O167 1.287 . S
C162 O168 1.255 . S
O163 Fe155 1.997 . S
O163 C161 1.235 . S
C164 O170 1.287 . S
C164 O171 1.255 . S
O165 Fe154 1.976 . S
O165 C172 1.287 . S
O166 Fe155 1.996 . S
O166 C172 1.255 . S
O167 Fe157 1.976 . S
O167 C162 1.287 . S
O168 Fe154 1.996 . S
O168 C162 1.255 . S
C169 O173 1.295 . S
C169 O174 1.235 . S
O170 Fe155 1.976 . S
O170 C164 1.287 . S
O171 Fe157 1.996 . S
O171 C164 1.255 . S
C172 O165 1.287 . S
C172 O166 1.255 . S
O173 Fe155 2.002 . S
O173 C169 1.295 . S
O174 Fe157 1.997 . S
O174 C169 1.235 . S
C175 O158 1.295 . S
C175 O159 1.235 . S
H176 C184 0.929 . S
H177 C186 0.930 . S
H178 C188 0.930 . S
H179 C191 0.929 . S
H180 C194 0.930 . S
H181 C196 0.960 . S
H182 C196 0.960 . S
H183 C196 0.960 . S
C184 H176 0.929 . S
C184 C185 1.377 . S
C184 C186 1.384 . S
C185 C184 1.377 . S
C185 C191 1.390 . S
C186 H177 0.930 . S
C186 C184 1.384 . S
C186 C187 1.372 . S
C187 C186 1.372 . S
C187 C188 1.400 . S
C187 C192 1.490 . S
C188 H178 0.930 . S
C188 C187 1.400 . S
C188 C191 1.386 . S
H189 C205 0.930 . S
H190 C206 0.931 . S
C191 H179 0.929 . S
C191 C185 1.390 . S
C191 C188 1.386 . S
C192 C187 1.490 . S
C192 C194 1.395 . S
C192 C195 1.403 . S
H193 C199 0.930 . S
C194 H180 0.930 . S
C194 C192 1.395 . S
C194 C197 1.403 . S
C195 C192 1.403 . S
C195 C196 1.524 . S
C195 C199 1.400 . S
C196 H181 0.960 . S
C196 H182 0.960 . S
C196 H183 0.960 . S
C196 C195 1.524 . S
C197 C194 1.403 . S
C197 C198 1.392 . S
C197 C201 1.495 . S
C198 C197 1.392 . S
C198 C199 1.385 . S
C198 C200 1.478 . S
C199 H193 0.930 . S
C199 C195 1.400 . S
C199 C198 1.385 . S
C200 C198 1.478 . S
C200 C202 1.381 . S
C200 C206 1.383 . S
C201 C197 1.495 . S
C201 H207 0.959 . S
C201 H208 0.961 . S
C201 H209 0.960 . S
C202 C200 1.381 . S
C202 C203 1.394 . S
C202 H210 0.930 . S
C203 C202 1.394 . S
C203 C204 1.383 . S
C203 H211 0.929 . S
C204 C203 1.383 . S
C204 C205 1.377 . S
C205 H189 0.930 . S
C205 C204 1.377 . S
C205 C206 1.379 . S
C206 H190 0.931 . S
C206 C200 1.383 . S
C206 C205 1.379 . S
H207 C201 0.959 . S
H208 C201 0.961 . S
H209 C201 0.960 . S
H210 C202 0.930 . S
H211 C203 0.929 . S
H212 C220 0.929 . S
H213 C222 0.930 . S
H214 C224 0.930 . S
H215 C227 0.929 . S
H216 C230 0.930 . S
H217 C232 0.960 . S
H218 C232 0.960 . S
H219 C232 0.960 . S
C220 H212 0.929 . S
C220 C221 1.377 . S
C220 C222 1.384 . S
C221 C220 1.377 . S
C221 C227 1.390 . S
C222 H213 0.930 . S
C222 C220 1.384 . S
C222 C223 1.372 . S
C223 C222 1.372 . S
C223 C224 1.400 . S
C223 C228 1.490 . S
C224 H214 0.930 . S
C224 C223 1.400 . S
C224 C227 1.386 . S
H225 C241 0.930 . S
H226 C242 0.931 . S
C227 H215 0.929 . S
C227 C221 1.390 . S
C227 C224 1.386 . S
C228 C223 1.490 . S
C228 C230 1.395 . S
C228 C231 1.403 . S
H229 C235 0.930 . S
C230 H216 0.930 . S
C230 C228 1.395 . S
C230 C233 1.403 . S
C231 C228 1.403 . S
C231 C232 1.524 . S
C231 C235 1.400 . S
C232 H217 0.960 . S
C232 H218 0.960 . S
C232 H219 0.960 . S
C232 C231 1.524 . S
C233 C230 1.403 . S
C233 C234 1.392 . S
C233 C237 1.495 . S
C234 C233 1.392 . S
C234 C235 1.385 . S
C234 C236 1.478 . S
C235 H229 0.930 . S
C235 C231 1.400 . S
C235 C234 1.385 . S
C236 C234 1.478 . S
C236 C238 1.381 . S
C236 C242 1.383 . S
C237 C233 1.495 . S
C237 H243 0.959 . S
C237 H244 0.961 . S
C237 H245 0.960 . S
C238 C236 1.381 . S
C238 C239 1.394 . S
C238 H246 0.930 . S
C239 C238 1.394 . S
C239 C240 1.383 . S
C239 H247 0.929 . S
C240 C239 1.383 . S
C240 C241 1.377 . S
C241 H225 0.930 . S
C241 C240 1.377 . S
C241 C242 1.379 . S
C242 H226 0.931 . S
C242 C236 1.383 . S
C242 C241 1.379 . S
H243 C237 0.959 . S
H244 C237 0.961 . S
H245 C237 0.960 . S
H246 C238 0.930 . S
H247 C239 0.929 . S
H248 C256 0.929 . S
H249 C258 0.930 . S
H250 C260 0.930 . S
H251 C263 0.929 . S
H252 C266 0.930 . S
H253 C268 0.960 . S
H254 C268 0.960 . S
H255 C268 0.960 . S
C256 H248 0.929 . S
C256 C257 1.377 . S
C256 C258 1.384 . S
C257 C256 1.377 . S
C257 C263 1.390 . S
C258 H249 0.930 . S
C258 C256 1.384 . S
C258 C259 1.372 . S
C259 C258 1.372 . S
C259 C260 1.400 . S
C259 C264 1.490 . S
C260 H250 0.930 . S
C260 C259 1.400 . S
C260 C263 1.386 . S
H261 C277 0.930 . S
H262 C278 0.931 . S
C263 H251 0.929 . S
C263 C257 1.390 . S
C263 C260 1.386 . S
C264 C259 1.490 . S
C264 C266 1.395 . S
C264 C267 1.403 . S
H265 C271 0.930 . S
C266 H252 0.930 . S
C266 C264 1.395 . S
C266 C269 1.403 1_455 S
C267 C264 1.403 . S
C267 C268 1.524 . S
C267 C271 1.400 1_455 S
C268 H253 0.960 . S
C268 H254 0.960 . S
C268 H255 0.960 . S
C268 C267 1.524 . S
C269 C266 1.403 1_655 S
C269 C270 1.392 . S
C269 C273 1.495 . S
C270 C269 1.392 . S
C270 C271 1.385 . S
C270 C272 1.478 . S
C271 H265 0.930 . S
C271 C267 1.400 1_655 S
C271 C270 1.385 . S
C272 C270 1.478 . S
C272 C274 1.381 . S
C272 C278 1.383 . S
C273 C269 1.495 . S
C273 H279 0.959 . S
C273 H280 0.961 . S
C273 H281 0.960 . S
C274 C272 1.381 . S
C274 C275 1.394 . S
C274 H282 0.930 . S
C275 C274 1.394 . S
C275 C276 1.383 . S
C275 H283 0.929 . S
C276 C275 1.383 . S
C276 C277 1.377 . S
C277 H261 0.930 . S
C277 C276 1.377 . S
C277 C278 1.379 . S
C278 H262 0.931 . S
C278 C272 1.383 . S
C278 C277 1.379 . S
H279 C273 0.959 . S
H280 C273 0.961 . S
H281 C273 0.960 . S
H282 C274 0.930 . S
H283 C275 0.929 . S
H284 C292 0.929 . S
H285 C294 0.930 . S
H286 C296 0.930 . S
H287 C299 0.929 . S
H288 C302 0.930 . S
H289 C304 0.960 1_655 S
H290 C304 0.960 . S
H291 C304 0.960 . S
C292 H284 0.929 . S
C292 C293 1.377 . S
C292 C294 1.384 . S
C293 C292 1.377 . S
C293 C299 1.390 . S
C294 H285 0.930 . S
C294 C292 1.384 . S
C294 C295 1.372 . S
C295 C294 1.372 . S
C295 C296 1.400 . S
C295 C300 1.490 . S
C296 H286 0.930 . S
C296 C295 1.400 . S
C296 C299 1.386 . S
H297 C313 0.930 . S
H298 C314 0.931 . S
C299 H287 0.929 . S
C299 C293 1.390 . S
C299 C296 1.386 . S
C300 C295 1.490 . S
C300 C302 1.395 . S
C300 C303 1.403 . S
H301 C307 0.930 . S
C302 H288 0.930 . S
C302 C300 1.395 . S
C302 C305 1.403 1_455 S
C303 C300 1.403 . S
C303 C304 1.524 . S
C303 C307 1.400 1_455 S
C304 H289 0.960 1_455 S
C304 H290 0.960 . S
C304 H291 0.960 . S
C304 C303 1.524 . S
C305 C302 1.403 1_655 S
C305 C306 1.392 . S
C305 C309 1.495 . S
C306 C305 1.392 . S
C306 C307 1.385 . S
C306 C308 1.478 . S
C307 H301 0.930 . S
C307 C303 1.400 1_655 S
C307 C306 1.385 . S
C308 C306 1.478 . S
C308 C310 1.381 . S
C308 C314 1.383 . S
C309 C305 1.495 . S
C309 H315 0.959 1_655 S
C309 H316 0.961 . S
C309 H317 0.960 . S
C310 C308 1.381 . S
C310 C311 1.394 . S
C310 H318 0.930 . S
C311 C310 1.394 . S
C311 C312 1.383 . S
C311 H319 0.929 . S
C312 C311 1.383 . S
C312 C313 1.377 . S
C313 H297 0.930 . S
C313 C312 1.377 . S
C313 C314 1.379 . S
C314 H298 0.931 . S
C314 C308 1.383 . S
C314 C313 1.379 . S
H315 C309 0.959 1_455 S
H316 C309 0.961 . S
H317 C309 0.960 . S
H318 C310 0.930 . S
H319 C311 0.929 . S
H320 C328 0.929 . S
H321 C330 0.930 1_556 S
H322 C332 0.930 . S
H323 C335 0.929 . S
H324 C338 0.930 . S
H325 C340 0.960 . S
H326 C340 0.960 . S
H327 C340 0.960 . S
C328 H320 0.929 . S
C328 C329 1.377 . S
C328 C330 1.384 . S
C329 C328 1.377 . S
C329 C335 1.390 . S
C330 H321 0.930 1_554 S
C330 C328 1.384 . S
C330 C331 1.372 . S
C331 C330 1.372 . S
C331 C332 1.400 . S
C331 C336 1.490 . S
C332 H322 0.930 . S
C332 C331 1.400 . S
C332 C335 1.386 . S
H333 C349 0.930 . S
H334 C350 0.931 1_554 S
C335 H323 0.929 . S
C335 C329 1.390 . S
C335 C332 1.386 . S
C336 C331 1.490 . S
C336 C338 1.395 1_554 S
C336 C339 1.403 . S
H337 C343 0.930 . S
C338 H324 0.930 . S
C338 C336 1.395 1_556 S
C338 C341 1.403 . S
C339 C336 1.403 . S
C339 C340 1.524 . S
C339 C343 1.400 . S
C340 H325 0.960 . S
C340 H326 0.960 . S
C340 H327 0.960 . S
C340 C339 1.524 . S
C341 C338 1.403 . S
C341 C342 1.392 . S
C341 C345 1.495 . S
C342 C341 1.392 . S
C342 C343 1.385 1_556 S
C342 C344 1.478 . S
C343 H337 0.930 . S
C343 C339 1.400 . S
C343 C342 1.385 1_554 S
C344 C342 1.478 . S
C344 C346 1.381 . S
C344 C350 1.383 . S
C345 C341 1.495 . S
C345 H351 0.959 . S
C345 H352 0.961 . S
C345 H353 0.960 . S
C346 C344 1.381 . S
C346 C347 1.394 . S
C346 H354 0.930 . S
C347 C346 1.394 . S
C347 C348 1.383 . S
C347 H355 0.929 . S
C348 C347 1.383 . S
C348 C349 1.377 . S
C349 H333 0.930 . S
C349 C348 1.377 . S
C349 C350 1.379 . S
C350 H334 0.931 1_556 S
C350 C344 1.383 . S
C350 C349 1.379 . S
H351 C345 0.959 . S
H352 C345 0.961 . S
H353 C345 0.960 . S
H354 C346 0.930 . S
H355 C347 0.929 . S
H356 C364 0.929 . S
H357 C366 0.930 . S
H358 C368 0.930 . S
H359 C371 0.929 . S
H360 C374 0.930 . S
H361 C376 0.960 . S
H362 C376 0.960 . S
H363 C376 0.960 . S
C364 H356 0.929 . S
C364 C365 1.377 . S
C364 C366 1.384 . S
C365 C364 1.377 . S
C365 C371 1.390 . S
C366 H357 0.930 . S
C366 C364 1.384 . S
C366 C367 1.372 . S
C367 C366 1.372 . S
C367 C368 1.400 . S
C367 C372 1.490 . S
C368 H358 0.930 . S
C368 C367 1.400 . S
C368 C371 1.386 . S
H369 C385 0.930 . S
H370 C386 0.931 . S
C371 H359 0.929 . S
C371 C365 1.390 . S
C371 C368 1.386 . S
C372 C367 1.490 . S
C372 C374 1.395 . S
C372 C375 1.403 . S
H373 C379 0.930 . S
C374 H360 0.930 . S
C374 C372 1.395 . S
C374 C377 1.403 . S
C375 C372 1.403 . S
C375 C376 1.524 . S
C375 C379 1.400 . S
C376 H361 0.960 . S
C376 H362 0.960 . S
C376 H363 0.960 . S
C376 C375 1.524 . S
C377 C374 1.403 . S
C377 C378 1.392 . S
C377 C381 1.495 . S
C378 C377 1.392 . S
C378 C379 1.385 . S
C378 C380 1.478 . S
C379 H373 0.930 . S
C379 C375 1.400 . S
C379 C378 1.385 . S
C380 C378 1.478 . S
C380 C382 1.381 . S
C380 C386 1.383 . S
C381 C377 1.495 . S
C381 H387 0.959 . S
C381 H388 0.961 . S
C381 H389 0.960 . S
C382 C380 1.381 . S
C382 C383 1.394 . S
C382 H390 0.930 . S
C383 C382 1.394 . S
C383 C384 1.383 . S
C383 H391 0.929 . S
C384 C383 1.383 . S
C384 C385 1.377 . S
C385 H369 0.930 . S
C385 C384 1.377 . S
C385 C386 1.379 . S
C386 H370 0.931 . S
C386 C380 1.383 . S
C386 C385 1.379 . S
H387 C381 0.959 . S
H388 C381 0.961 . S
H389 C381 0.960 . S
H390 C382 0.930 . S
H391 C383 0.929 . S
H392 C400 0.929 . S
H393 C402 0.930 1_556 S
H394 C404 0.930 . S
H395 C407 0.929 . S
H396 C410 0.930 . S
H397 C412 0.960 . S
H398 C412 0.960 . S
H399 C412 0.960 . S
C400 H392 0.929 . S
C400 C401 1.377 . S
C400 C402 1.384 . S
C401 C400 1.377 . S
C401 C407 1.390 . S
C402 H393 0.930 1_554 S
C402 C400 1.384 . S
C402 C403 1.372 . S
C403 C402 1.372 . S
C403 C404 1.400 . S
C403 C408 1.490 . S
C404 H394 0.930 . S
C404 C403 1.400 . S
C404 C407 1.386 . S
H405 C421 0.930 . S
H406 C422 0.931 1_554 S
C407 H395 0.929 . S
C407 C401 1.390 . S
C407 C404 1.386 . S
C408 C403 1.490 . S
C408 C410 1.399 . S
C408 C411 1.403 . S
H409 C415 0.930 . S
C410 H396 0.930 . S
C410 C408 1.399 . S
C410 C413 1.399 1_554 S
C411 C408 1.403 . S
C411 C412 1.524 . S
C411 C415 1.400 1_554 S
C412 H397 0.960 . S
C412 H398 0.960 . S
C412 H399 0.960 . S
C412 C411 1.524 . S
C413 C410 1.399 1_556 S
C413 C414 1.392 . S
C413 C417 1.495 . S
C414 C413 1.392 . S
C414 C415 1.385 . S
C414 C416 1.478 . S
C415 H409 0.930 . S
C415 C411 1.400 1_556 S
C415 C414 1.385 . S
C416 C414 1.478 . S
C416 C418 1.381 . S
C416 C422 1.383 . S
C417 C413 1.495 . S
C417 H423 0.959 . S
C417 H424 0.961 . S
C417 H425 0.960 . S
C418 C416 1.381 . S
C418 C419 1.394 . S
C418 H426 0.930 . S
C419 C418 1.394 . S
C419 C420 1.383 . S
C419 H427 0.929 . S
C420 C419 1.383 . S
C420 C421 1.377 . S
C421 H405 0.930 . S
C421 C420 1.377 . S
C421 C422 1.379 . S
C422 H406 0.931 1_556 S
C422 C416 1.383 . S
C422 C421 1.379 . S
H423 C417 0.959 . S
H424 C417 0.961 . S
H425 C417 0.960 . S
H426 C418 0.930 . S
H427 C419 0.929 . S
H428 C436 0.929 . S
H429 C438 0.930 . S
H430 C440 0.930 . S
H431 C443 0.929 . S
H432 C446 0.930 . S
H433 C448 0.960 . S
H434 C448 0.960 . S
H435 C448 0.960 . S
C436 H428 0.929 . S
C436 C437 1.377 . S
C436 C438 1.384 . S
C437 C436 1.377 . S
C437 C443 1.390 . S
C438 H429 0.930 . S
C438 C436 1.384 . S
C438 C439 1.372 . S
C439 C438 1.372 . S
C439 C440 1.400 . S
C439 C444 1.490 . S
C440 H430 0.930 . S
C440 C439 1.400 . S
C440 C443 1.386 . S
H441 C457 0.930 . S
H442 C458 0.931 . S
C443 H431 0.929 . S
C443 C437 1.390 . S
C443 C440 1.386 . S
C444 C439 1.490 . S
C444 C446 1.395 . S
C444 C447 1.403 . S
H445 C451 0.930 . S
C446 H432 0.930 . S
C446 C444 1.395 . S
C446 C449 1.403 . S
C447 C444 1.403 . S
C447 C448 1.524 . S
C447 C451 1.400 . S
C448 H433 0.960 . S
C448 H434 0.960 . S
C448 H435 0.960 . S
C448 C447 1.524 . S
C449 C446 1.403 . S
C449 C450 1.392 . S
C449 C453 1.495 . S
C450 C449 1.392 . S
C450 C451 1.385 . S
C450 C452 1.478 . S
C451 H445 0.930 . S
C451 C447 1.400 . S
C451 C450 1.385 . S
C452 C450 1.478 . S
C452 C454 1.381 . S
C452 C458 1.383 . S
C453 C449 1.495 . S
C453 H459 0.959 . S
C453 H460 0.961 . S
C453 H461 0.960 . S
C454 C452 1.381 . S
C454 C455 1.394 . S
C454 H462 0.930 . S
C455 C454 1.394 . S
C455 C456 1.383 . S
C455 H463 0.929 . S
C456 C455 1.383 . S
C456 C457 1.377 . S
C457 H441 0.930 . S
C457 C456 1.377 . S
C457 C458 1.379 . S
C458 H442 0.931 . S
C458 C452 1.383 . S
C458 C457 1.379 . S
H459 C453 0.959 . S
H460 C453 0.961 . S
H461 C453 0.960 . S
H462 C454 0.930 . S
H463 C455 0.929 . S
H464 C472 0.929 . S
H465 C474 0.930 . S
H466 C476 0.930 1_554 S
H467 C479 0.929 . S
H468 C482 0.930 . S
H469 C484 0.960 . S
H470 C484 0.960 1_556 S
H471 C484 0.960 . S
C472 H464 0.929 . S
C472 C473 1.377 . S
C472 C474 1.384 . S
C473 C472 1.377 . S
C473 C479 1.390 . S
C474 H465 0.930 . S
C474 C472 1.384 . S
C474 C475 1.372 . S
C475 C474 1.372 . S
C475 C476 1.400 . S
C475 C480 1.490 . S
C476 H466 0.930 1_556 S
C476 C475 1.400 . S
C476 C479 1.386 . S
H477 C493 0.930 . S
H478 C494 0.931 . S
C479 H467 0.929 . S
C479 C473 1.390 . S
C479 C476 1.386 . S
C480 C475 1.490 . S
C480 C482 1.399 . S
C480 C483 1.403 1_556 S
H481 C487 0.930 . S
C482 H468 0.930 . S
C482 C480 1.399 . S
C482 C485 1.399 1_655 S
C483 C480 1.403 1_554 S
C483 C484 1.524 . S
C483 C487 1.400 1_655 S
C484 H469 0.960 . S
C484 H470 0.960 1_554 S
C484 H471 0.960 . S
C484 C483 1.524 . S
C485 C482 1.399 1_455 S
C485 C486 1.392 1_556 S
C485 C489 1.495 . S
C486 C485 1.392 1_554 S
C486 C487 1.385 . S
C486 C488 1.478 . S
C487 H481 0.930 . S
C487 C483 1.400 1_455 S
C487 C486 1.385 . S
C488 C486 1.478 . S
C488 C490 1.381 . S
C488 C494 1.383 . S
C489 C485 1.495 . S
C489 H495 0.959 . S
C489 H496 0.961 . S
C489 H497 0.960 . S
C490 C488 1.381 . S
C490 C491 1.394 . S
C490 H498 0.930 1_554 S
C491 C490 1.394 . S
C491 C492 1.383 . S
C491 H499 0.929 . S
C492 C491 1.383 . S
C492 C493 1.377 . S
C493 H477 0.930 . S
C493 C492 1.377 . S
C493 C494 1.379 . S
C494 H478 0.931 . S
C494 C488 1.383 . S
C494 C493 1.379 . S
H495 C489 0.959 . S
H496 C489 0.961 . S
H497 C489 0.960 . S
H498 C490 0.930 1_556 S
H499 C491 0.929 . S
H500 C508 0.929 . S
H501 C510 0.930 . S
H502 C512 0.930 . S
H503 C515 0.929 . S
H504 C518 0.930 . S
H505 C520 0.960 . S
H506 C520 0.960 . S
H507 C520 0.960 . S
C508 H500 0.929 . S
C508 C509 1.377 . S
C508 C510 1.384 . S
C509 C508 1.377 . S
C509 C515 1.390 . S
C510 H501 0.930 . S
C510 C508 1.384 . S
C510 C511 1.372 . S
C511 C510 1.372 . S
C511 C512 1.400 . S
C511 C516 1.490 . S
C512 H502 0.930 . S
C512 C511 1.400 . S
C512 C515 1.386 . S
H513 C529 0.930 . S
H514 C530 0.931 . S
C515 H503 0.929 . S
C515 C509 1.390 . S
C515 C512 1.386 . S
C516 C511 1.490 . S
C516 C518 1.395 . S
C516 C519 1.403 . S
H517 C523 0.930 . S
C518 H504 0.930 . S
C518 C516 1.395 . S
C518 C521 1.403 1_455 S
C519 C516 1.403 . S
C519 C520 1.524 . S
C519 C523 1.400 1_455 S
C520 H505 0.960 . S
C520 H506 0.960 . S
C520 H507 0.960 . S
C520 C519 1.524 . S
C521 C518 1.403 1_655 S
C521 C522 1.392 . S
C521 C525 1.495 . S
C522 C521 1.392 . S
C522 C523 1.385 . S
C522 C524 1.478 . S
C523 H517 0.930 . S
C523 C519 1.400 1_655 S
C523 C522 1.385 . S
C524 C522 1.478 . S
C524 C526 1.381 . S
C524 C530 1.383 . S
C525 C521 1.495 . S
C525 H531 0.959 . S
C525 H532 0.961 . S
C525 H533 0.960 . S
C526 C524 1.381 . S
C526 C527 1.394 . S
C526 H534 0.930 . S
C527 C526 1.394 . S
C527 C528 1.383 . S
C527 H535 0.929 . S
C528 C527 1.383 . S
C528 C529 1.377 . S
C529 H513 0.930 . S
C529 C528 1.377 . S
C529 C530 1.379 . S
C530 H514 0.931 . S
C530 C524 1.383 . S
C530 C529 1.379 . S
H531 C525 0.959 . S
H532 C525 0.961 . S
H533 C525 0.960 . S
H534 C526 0.930 . S
H535 C527 0.929 . S
H536 C544 0.929 . S
H537 C546 0.930 . S
H538 C548 0.930 . S
H539 C551 0.929 . S
H540 C554 0.930 . S
H541 C556 0.960 . S
H542 C556 0.960 . S
H543 C556 0.960 . S
C544 H536 0.929 . S
C544 C545 1.377 . S
C544 C546 1.384 . S
C545 C544 1.377 . S
C545 C551 1.390 . S
C546 H537 0.930 . S
C546 C544 1.384 . S
C546 C547 1.372 . S
C547 C546 1.372 . S
C547 C548 1.400 . S
C547 C552 1.490 . S
C548 H538 0.930 . S
C548 C547 1.400 . S
C548 C551 1.386 . S
H549 C565 0.930 . S
H550 C566 0.931 . S
C551 H539 0.929 . S
C551 C545 1.390 . S
C551 C548 1.386 . S
C552 C547 1.490 . S
C552 C554 1.395 1_565 S
C552 C555 1.403 1_554 S
H553 C559 0.930 . S
C554 H540 0.930 . S
C554 C552 1.395 1_545 S
C554 C557 1.403 . S
C555 C552 1.403 1_556 S
C555 C556 1.524 . S
C555 C559 1.400 . S
C556 H541 0.960 . S
C556 H542 0.960 . S
C556 H543 0.960 . S
C556 C555 1.524 . S
C557 C554 1.403 . S
C557 C558 1.392 1_554 S
C557 C561 1.495 . S
C558 C557 1.392 1_556 S
C558 C559 1.385 1_545 S
C558 C560 1.478 . S
C559 H553 0.930 . S
C559 C555 1.400 . S
C559 C558 1.385 1_565 S
C560 C558 1.478 . S
C560 C562 1.381 . S
C560 C566 1.383 . S
C561 C557 1.495 . S
C561 H567 0.959 . S
C561 H568 0.961 . S
C561 H569 0.960 . S
C562 C560 1.381 . S
C562 C563 1.394 . S
C562 H570 0.930 . S
C563 C562 1.394 . S
C563 C564 1.383 . S
C563 H571 0.929 . S
C564 C563 1.383 . S
C564 C565 1.377 . S
C565 H549 0.930 . S
C565 C564 1.377 . S
C565 C566 1.379 . S
C566 H550 0.931 . S
C566 C560 1.383 . S
C566 C565 1.379 . S
H567 C561 0.959 . S
H568 C561 0.961 . S
H569 C561 0.960 . S
H570 C562 0.930 . S
H571 C563 0.929 . S
H572 C580 0.929 . S
H573 C582 0.930 . S
H574 C584 0.930 . S
H575 C587 0.929 . S
H576 C590 0.930 . S
H577 C592 0.960 . S
H578 C592 0.960 . S
H579 C592 0.960 . S
C580 H572 0.929 . S
C580 C581 1.377 . S
C580 C582 1.384 . S
C581 C580 1.377 . S
C581 C587 1.390 . S
C582 H573 0.930 . S
C582 C580 1.384 . S
C582 C583 1.372 . S
C583 C582 1.372 . S
C583 C584 1.400 . S
C583 C588 1.490 . S
C584 H574 0.930 . S
C584 C583 1.400 . S
C584 C587 1.386 . S
H585 C601 0.930 . S
H586 C602 0.931 . S
C587 H575 0.929 . S
C587 C581 1.390 . S
C587 C584 1.386 . S
C588 C583 1.490 . S
C588 C590 1.395 1_565 S
C588 C591 1.403 . S
H589 C595 0.930 . S
C590 H576 0.930 . S
C590 C588 1.395 1_545 S
C590 C593 1.403 . S
C591 C588 1.403 . S
C591 C592 1.524 . S
C591 C595 1.400 . S
C592 H577 0.960 . S
C592 H578 0.960 . S
C592 H579 0.960 . S
C592 C591 1.524 . S
C593 C590 1.403 . S
C593 C594 1.392 . S
C593 C597 1.495 . S
C594 C593 1.392 . S
C594 C595 1.385 1_545 S
C594 C596 1.478 . S
C595 H589 0.930 . S
C595 C591 1.400 . S
C595 C594 1.385 1_565 S
C596 C594 1.478 . S
C596 C598 1.381 . S
C596 C602 1.383 . S
C597 C593 1.495 . S
C597 H603 0.959 . S
C597 H604 0.961 . S
C597 H605 0.960 . S
C598 C596 1.381 . S
C598 C599 1.394 . S
C598 H606 0.930 . S
C599 C598 1.394 . S
C599 C600 1.383 . S
C599 H607 0.929 . S
C600 C599 1.383 . S
C600 C601 1.377 . S
C601 H585 0.930 . S
C601 C600 1.377 . S
C601 C602 1.379 . S
C602 H586 0.931 . S
C602 C596 1.383 . S
C602 C601 1.379 . S
H603 C597 0.959 . S
H604 C597 0.961 . S
H605 C597 0.960 . S
H606 C598 0.930 . S
H607 C599 0.929 . S
H608 C616 0.929 . S
H609 C618 0.930 . S
H610 C620 0.930 . S
H611 C623 0.929 . S
H612 C626 0.930 . S
H613 C628 0.960 . S
H614 C628 0.960 . S
H615 C628 0.960 . S
C616 H608 0.929 . S
C616 C617 1.377 . S
C616 C618 1.384 . S
C617 C616 1.377 . S
C617 C623 1.390 . S
C618 H609 0.930 . S
C618 C616 1.384 . S
C618 C619 1.372 . S
C619 C618 1.372 . S
C619 C620 1.400 . S
C619 C624 1.490 . S
C620 H610 0.930 . S
C620 C619 1.400 . S
C620 C623 1.386 . S
H621 C637 0.930 . S
H622 C638 0.931 . S
C623 H611 0.929 . S
C623 C617 1.390 . S
C623 C620 1.386 . S
C624 C619 1.490 . S
C624 C626 1.395 . S
C624 C627 1.403 1_455 S
H625 C631 0.930 . S
C626 H612 0.930 . S
C626 C624 1.395 . S
C626 C629 1.403 . S
C627 C624 1.403 1_655 S
C627 C628 1.524 . S
C627 C631 1.400 . S
C628 H613 0.960 . S
C628 H614 0.960 . S
C628 H615 0.960 . S
C628 C627 1.524 . S
C629 C626 1.403 . S
C629 C630 1.392 1_455 S
C629 C633 1.495 . S
C630 C629 1.392 1_655 S
C630 C631 1.385 . S
C630 C632 1.478 . S
C631 H625 0.930 . S
C631 C627 1.400 . S
C631 C630 1.385 . S
C632 C630 1.478 . S
C632 C634 1.381 . S
C632 C638 1.383 . S
C633 C629 1.495 . S
C633 H639 0.959 . S
C633 H640 0.961 . S
C633 H641 0.960 . S
C634 C632 1.381 . S
C634 C635 1.394 . S
C634 H642 0.930 . S
C635 C634 1.394 . S
C635 C636 1.383 . S
C635 H643 0.929 . S
C636 C635 1.383 . S
C636 C637 1.377 . S
C637 H621 0.930 . S
C637 C636 1.377 . S
C637 C638 1.379 . S
C638 H622 0.931 . S
C638 C632 1.383 . S
C638 C637 1.379 . S
H639 C633 0.959 . S
H640 C633 0.961 . S
H641 C633 0.960 . S
H642 C634 0.930 . S
H643 C635 0.929 . S
H644 C652 0.929 . S
H645 C654 0.930 . S
H646 C656 0.930 . S
H647 C659 0.929 . S
H648 C662 0.930 . S
H649 C664 0.960 . S
H650 C664 0.960 . S
H651 C664 0.960 . S
C652 H644 0.929 . S
C652 C653 1.377 . S
C652 C654 1.384 . S
C653 C652 1.377 . S
C653 C659 1.390 . S
C654 H645 0.930 . S
C654 C652 1.384 . S
C654 C655 1.372 . S
C655 C654 1.372 . S
C655 C656 1.400 . S
C655 C660 1.490 . S
C656 H646 0.930 . S
C656 C655 1.400 . S
C656 C659 1.386 . S
H657 C673 0.930 . S
H658 C674 0.931 . S
C659 H647 0.929 . S
C659 C653 1.390 . S
C659 C656 1.386 . S
C660 C655 1.490 . S
C660 C662 1.395 . S
C660 C663 1.403 . S
H661 C667 0.930 . S
C662 H648 0.930 . S
C662 C660 1.395 . S
C662 C665 1.403 1_455 S
C663 C660 1.403 . S
C663 C664 1.524 . S
C663 C667 1.400 1_455 S
C664 H649 0.960 . S
C664 H650 0.960 . S
C664 H651 0.960 . S
C664 C663 1.524 . S
C665 C662 1.403 1_655 S
C665 C666 1.392 . S
C665 C669 1.495 . S
C666 C665 1.392 . S
C666 C667 1.385 . S
C666 C668 1.478 . S
C667 H661 0.930 . S
C667 C663 1.400 1_655 S
C667 C666 1.385 . S
C668 C666 1.478 . S
C668 C670 1.381 . S
C668 C674 1.383 . S
C669 C665 1.495 . S
C669 H675 0.959 . S
C669 H676 0.961 . S
C669 H677 0.960 . S
C670 C668 1.381 . S
C670 C671 1.394 . S
C670 H678 0.930 . S
C671 C670 1.394 . S
C671 C672 1.383 . S
C671 H679 0.929 . S
C672 C671 1.383 . S
C672 C673 1.377 . S
C673 H657 0.930 . S
C673 C672 1.377 . S
C673 C674 1.379 . S
C674 H658 0.931 . S
C674 C668 1.383 . S
C674 C673 1.379 . S
H675 C669 0.959 . S
H676 C669 0.961 . S
H677 C669 0.960 . S
H678 C670 0.930 . S
H679 C671 0.929 . S
H680 C688 0.929 . S
H681 C690 0.930 . S
H682 C692 0.930 . S
H683 C695 0.929 . S
H684 C698 0.930 . S
H685 C700 0.960 . S
H686 C700 0.960 . S
H687 C700 0.960 . S
C688 H680 0.929 . S
C688 C689 1.377 . S
C688 C690 1.384 . S
C689 C688 1.377 . S
C689 C695 1.390 . S
C690 H681 0.930 . S
C690 C688 1.384 . S
C690 C691 1.372 . S
C691 C690 1.372 . S
C691 C692 1.400 . S
C691 C696 1.490 . S
C692 H682 0.930 . S
C692 C691 1.400 . S
C692 C695 1.386 . S
H693 C709 0.930 . S
H694 C710 0.931 . S
C695 H683 0.929 . S
C695 C689 1.390 . S
C695 C692 1.386 . S
C696 C691 1.490 . S
C696 C698 1.395 . S
C696 C699 1.403 . S
H697 C703 0.930 . S
C698 H684 0.930 . S
C698 C696 1.395 . S
C698 C701 1.403 . S
C699 C696 1.403 . S
C699 C700 1.524 . S
C699 C703 1.400 . S
C700 H685 0.960 . S
C700 H686 0.960 . S
C700 H687 0.960 . S
C700 C699 1.524 . S
C701 C698 1.403 . S
C701 C702 1.392 . S
C701 C705 1.495 . S
C702 C701 1.392 . S
C702 C703 1.385 . S
C702 C704 1.478 . S
C703 H697 0.930 . S
C703 C699 1.400 . S
C703 C702 1.385 . S
C704 C702 1.478 . S
C704 C706 1.381 . S
C704 C710 1.383 . S
C705 C701 1.495 . S
C705 H711 0.959 . S
C705 H712 0.961 . S
C705 H713 0.960 . S
C706 C704 1.381 . S
C706 C707 1.394 . S
C706 H714 0.930 . S
C707 C706 1.394 . S
C707 C708 1.383 . S
C707 H715 0.929 . S
C708 C707 1.383 . S
C708 C709 1.377 . S
C709 H693 0.930 . S
C709 C708 1.377 . S
C709 C710 1.379 . S
C710 H694 0.931 . S
C710 C704 1.383 . S
C710 C709 1.379 . S
H711 C705 0.959 . S
H712 C705 0.961 . S
H713 C705 0.960 . S
H714 C706 0.930 . S
H715 C707 0.929 . S
H716 C724 0.929 . S
H717 C726 0.930 . S
H718 C728 0.930 . S
H719 C731 0.929 . S
H720 C734 0.930 . S
H721 C736 0.960 . S
H722 C736 0.960 . S
H723 C736 0.960 . S
C724 H716 0.929 . S
C724 C725 1.377 . S
C724 C726 1.384 . S
C725 C724 1.377 . S
C725 C731 1.390 . S
C726 H717 0.930 . S
C726 C724 1.384 . S
C726 C727 1.372 . S
C727 C726 1.372 . S
C727 C728 1.400 . S
C727 C732 1.490 . S
C728 H718 0.930 . S
C728 C727 1.400 . S
C728 C731 1.386 . S
H729 C745 0.930 . S
H730 C746 0.931 . S
C731 H719 0.929 . S
C731 C725 1.390 . S
C731 C728 1.386 . S
C732 C727 1.490 . S
C732 C734 1.395 . S
C732 C735 1.403 . S
H733 C739 0.930 . S
C734 H720 0.930 . S
C734 C732 1.395 . S
C734 C737 1.403 . S
C735 C732 1.403 . S
C735 C736 1.524 . S
C735 C739 1.400 . S
C736 H721 0.960 . S
C736 H722 0.960 . S
C736 H723 0.960 . S
C736 C735 1.524 . S
C737 C734 1.403 . S
C737 C738 1.392 . S
C737 C741 1.495 . S
C738 C737 1.392 . S
C738 C739 1.385 . S
C738 C740 1.478 . S
C739 H733 0.930 . S
C739 C735 1.400 . S
C739 C738 1.385 . S
C740 C738 1.478 . S
C740 C742 1.381 . S
C740 C746 1.383 . S
C741 C737 1.495 . S
C741 H747 0.959 . S
C741 H748 0.961 . S
C741 H749 0.960 . S
C742 C740 1.381 . S
C742 C743 1.394 . S
C742 H750 0.930 . S
C743 C742 1.394 . S
C743 C744 1.383 . S
C743 H751 0.929 . S
C744 C743 1.383 . S
C744 C745 1.377 . S
C745 H729 0.930 . S
C745 C744 1.377 . S
C745 C746 1.379 . S
C746 H730 0.931 . S
C746 C740 1.383 . S
C746 C745 1.379 . S
H747 C741 0.959 . S
H748 C741 0.961 . S
H749 C741 0.960 . S
H750 C742 0.930 . S
H751 C743 0.929 . S
H752 C760 0.929 . S
H753 C762 0.930 . S
H754 C764 0.930 . S
H755 C767 0.929 1_554 S
H756 C770 0.930 . S
H757 C772 0.960 . S
H758 C772 0.960 . S
H759 C772 0.960 . S
C760 H752 0.929 . S
C760 C761 1.377 1_556 S
C760 C762 1.384 . S
C761 C760 1.377 1_554 S
C761 C767 1.390 1_554 S
C762 H753 0.930 . S
C762 C760 1.384 . S
C762 C763 1.372 . S
C763 C762 1.372 . S
C763 C764 1.400 . S
C763 C768 1.490 . S
C764 H754 0.930 . S
C764 C763 1.400 . S
C764 C767 1.386 . S
H765 C781 0.930 . S
H766 C782 0.931 . S
C767 H755 0.929 1_556 S
C767 C761 1.390 1_556 S
C767 C764 1.386 . S
C768 C763 1.490 . S
C768 C770 1.395 . S
C768 C771 1.403 . S
H769 C775 0.930 . S
C770 H756 0.930 . S
C770 C768 1.395 . S
C770 C773 1.403 . S
C771 C768 1.403 . S
C771 C772 1.524 . S
C771 C775 1.400 . S
C772 H757 0.960 . S
C772 H758 0.960 . S
C772 H759 0.960 . S
C772 C771 1.524 . S
C773 C770 1.403 . S
C773 C774 1.392 . S
C773 C777 1.495 . S
C774 C773 1.392 . S
C774 C775 1.385 . S
C774 C776 1.478 . S
C775 H769 0.930 . S
C775 C771 1.400 . S
C775 C774 1.385 . S
C776 C774 1.478 . S
C776 C778 1.381 . S
C776 C782 1.383 . S
C777 C773 1.495 . S
C777 H783 0.959 . S
C777 H784 0.961 . S
C777 H785 0.960 . S
C778 C776 1.381 . S
C778 C779 1.394 . S
C778 H786 0.930 . S
C779 C778 1.394 . S
C779 C780 1.383 . S
C779 H787 0.929 . S
C780 C779 1.383 . S
C780 C781 1.377 . S
C781 H765 0.930 . S
C781 C780 1.377 . S
C781 C782 1.379 . S
C782 H766 0.931 . S
C782 C776 1.383 . S
C782 C781 1.379 . S
H783 C777 0.959 . S
H784 C777 0.961 . S
H785 C777 0.960 . S
H786 C778 0.930 . S
H787 C779 0.929 . S
H788 C796 0.929 . S
H789 C798 0.930 . S
H790 C800 0.930 . S
H791 C803 0.929 . S
H792 C806 0.930 . S
H793 C808 0.960 . S
H794 C808 0.960 . S
H795 C808 0.960 . S
C796 H788 0.929 . S
C796 C797 1.377 . S
C796 C798 1.384 . S
C797 C796 1.377 . S
C797 C803 1.390 . S
C798 H789 0.930 . S
C798 C796 1.384 . S
C798 C799 1.372 . S
C799 C798 1.372 . S
C799 C800 1.400 . S
C799 C804 1.490 . S
C800 H790 0.930 . S
C800 C799 1.400 . S
C800 C803 1.386 . S
H801 C817 0.930 . S
H802 C818 0.931 . S
C803 H791 0.929 . S
C803 C797 1.390 . S
C803 C800 1.386 . S
C804 C799 1.490 . S
C804 C806 1.395 . S
C804 C807 1.403 . S
H805 C811 0.930 . S
C806 H792 0.930 . S
C806 C804 1.395 . S
C806 C809 1.403 . S
C807 C804 1.403 . S
C807 C808 1.524 . S
C807 C811 1.400 . S
C808 H793 0.960 . S
C808 H794 0.960 . S
C808 H795 0.960 . S
C808 C807 1.524 . S
C809 C806 1.403 . S
C809 C810 1.392 . S
C809 C813 1.495 . S
C810 C809 1.392 . S
C810 C811 1.385 . S
C810 C812 1.478 . S
C811 H805 0.930 . S
C811 C807 1.400 . S
C811 C810 1.385 . S
C812 C810 1.478 . S
C812 C814 1.381 . S
C812 C818 1.383 . S
C813 C809 1.495 . S
C813 H819 0.959 . S
C813 H820 0.961 . S
C813 H821 0.960 . S
C814 C812 1.381 . S
C814 C815 1.394 . S
C814 H822 0.930 . S
C815 C814 1.394 . S
C815 C816 1.383 . S
C815 H823 0.929 . S
C816 C815 1.383 . S
C816 C817 1.377 . S
C817 H801 0.930 . S
C817 C816 1.377 . S
C817 C818 1.379 . S
C818 H802 0.931 . S
C818 C812 1.383 . S
C818 C817 1.379 . S
H819 C813 0.959 . S
H820 C813 0.961 . S
H821 C813 0.960 . S
H822 C814 0.930 . S
H823 C815 0.929 . S
H824 C832 0.929 . S
H825 C834 0.930 . S
H826 C836 0.930 . S
H827 C839 0.929 . S
H828 C842 0.930 . S
H829 C844 0.960 . S
H830 C844 0.960 . S
H831 C844 0.960 . S
C832 H824 0.929 . S
C832 C833 1.377 . S
C832 C834 1.384 . S
C833 C832 1.377 . S
C833 C839 1.390 . S
C834 H825 0.930 . S
C834 C832 1.384 . S
C834 C835 1.372 . S
C835 C834 1.372 . S
C835 C836 1.400 . S
C835 C840 1.490 . S
C836 H826 0.930 . S
C836 C835 1.400 . S
C836 C839 1.386 . S
H837 C853 0.930 . S
H838 C854 0.931 . S
C839 H827 0.929 . S
C839 C833 1.390 . S
C839 C836 1.386 . S
C840 C835 1.490 . S
C840 C842 1.395 . S
C840 C843 1.403 . S
H841 C847 0.930 . S
C842 H828 0.930 . S
C842 C840 1.395 . S
C842 C845 1.403 . S
C843 C840 1.403 . S
C843 C844 1.524 . S
C843 C847 1.400 . S
C844 H829 0.960 . S
C844 H830 0.960 . S
C844 H831 0.960 . S
C844 C843 1.524 . S
C845 C842 1.403 . S
C845 C846 1.392 . S
C845 C849 1.495 . S
C846 C845 1.392 . S
C846 C847 1.385 . S
C846 C848 1.478 . S
C847 H841 0.930 . S
C847 C843 1.400 . S
C847 C846 1.385 . S
C848 C846 1.478 . S
C848 C850 1.381 . S
C848 C854 1.383 . S
C849 C845 1.495 . S
C849 H855 0.959 . S
C849 H856 0.961 . S
C849 H857 0.960 . S
C850 C848 1.381 . S
C850 C851 1.394 1_554 S
C850 H858 0.930 . S
C851 C850 1.394 1_556 S
C851 C852 1.383 . S
C851 H859 0.929 . S
C852 C851 1.383 . S
C852 C853 1.377 1_556 S
C853 H837 0.930 . S
C853 C852 1.377 1_554 S
C853 C854 1.379 . S
C854 H838 0.931 . S
C854 C848 1.383 . S
C854 C853 1.379 . S
H855 C849 0.959 . S
H856 C849 0.961 . S
H857 C849 0.960 . S
H858 C850 0.930 . S
H859 C851 0.929 . S
H860 C868 0.929 . S
H861 C870 0.930 . S
H862 C872 0.930 . S
H863 C875 0.929 . S
H864 C878 0.930 . S
H865 C880 0.960 . S
H866 C880 0.960 . S
H867 C880 0.960 . S
C868 H860 0.929 . S
C868 C869 1.377 . S
C868 C870 1.384 . S
C869 C868 1.377 . S
C869 C875 1.390 . S
C870 H861 0.930 . S
C870 C868 1.384 . S
C870 C871 1.372 . S
C871 C870 1.372 . S
C871 C872 1.400 . S
C871 C876 1.490 . S
C872 H862 0.930 . S
C872 C871 1.400 . S
C872 C875 1.386 . S
H873 C889 0.930 . S
H874 C890 0.931 . S
C875 H863 0.929 . S
C875 C869 1.390 . S
C875 C872 1.386 . S
C876 C871 1.490 . S
C876 C878 1.395 . S
C876 C879 1.403 . S
H877 C883 0.930 . S
C878 H864 0.930 . S
C878 C876 1.395 . S
C878 C881 1.403 . S
C879 C876 1.403 . S
C879 C880 1.524 . S
C879 C883 1.400 . S
C880 H865 0.960 . S
C880 H866 0.960 . S
C880 H867 0.960 . S
C880 C879 1.524 . S
C881 C878 1.403 . S
C881 C882 1.392 . S
C881 C885 1.495 . S
C882 C881 1.392 . S
C882 C883 1.385 . S
C882 C884 1.478 . S
C883 H877 0.930 . S
C883 C879 1.400 . S
C883 C882 1.385 . S
C884 C882 1.478 . S
C884 C886 1.381 . S
C884 C890 1.383 . S
C885 C881 1.495 . S
C885 H891 0.959 . S
C885 H892 0.961 . S
C885 H893 0.960 . S
C886 C884 1.381 . S
C886 C887 1.394 . S
C886 H894 0.930 . S
C887 C886 1.394 . S
C887 C888 1.383 . S
C887 H895 0.929 . S
C888 C887 1.383 . S
C888 C889 1.377 . S
C889 H873 0.930 . S
C889 C888 1.377 . S
C889 C890 1.379 . S
C890 H874 0.931 . S
C890 C884 1.383 . S
C890 C889 1.379 . S
H891 C885 0.959 . S
H892 C885 0.961 . S
H893 C885 0.960 . S
H894 C886 0.930 . S
H895 C887 0.929 . S
H896 C904 0.929 1_554 S
H897 C906 0.930 . S
H898 C908 0.930 . S
H899 C911 0.929 . S
H900 C914 0.930 . S
H901 C916 0.960 . S
H902 C916 0.960 . S
H903 C916 0.960 . S
C904 H896 0.929 1_556 S
C904 C905 1.377 1_556 S
C904 C906 1.384 . S
C905 C904 1.377 1_554 S
C905 C911 1.390 1_554 S
C906 H897 0.930 . S
C906 C904 1.384 . S
C906 C907 1.372 . S
C907 C906 1.372 . S
C907 C908 1.400 . S
C907 C912 1.490 . S
C908 H898 0.930 . S
C908 C907 1.400 . S
C908 C911 1.386 . S
H909 C925 0.930 . S
H910 C926 0.931 . S
C911 H899 0.929 . S
C911 C905 1.390 1_556 S
C911 C908 1.386 . S
C912 C907 1.490 . S
C912 C914 1.395 1_565 S
C912 C915 1.403 . S
H913 C919 0.930 . S
C914 H900 0.930 . S
C914 C912 1.395 1_545 S
C914 C917 1.403 . S
C915 C912 1.403 . S
C915 C916 1.524 . S
C915 C919 1.400 . S
C916 H901 0.960 . S
C916 H902 0.960 . S
C916 H903 0.960 . S
C916 C915 1.524 . S
C917 C914 1.403 . S
C917 C918 1.392 . S
C917 C921 1.495 . S
C918 C917 1.392 . S
C918 C919 1.385 1_545 S
C918 C920 1.478 . S
C919 H913 0.930 . S
C919 C915 1.400 . S
C919 C918 1.385 1_565 S
C920 C918 1.478 . S
C920 C922 1.381 . S
C920 C926 1.383 . S
C921 C917 1.495 . S
C921 H927 0.959 . S
C921 H928 0.961 . S
C921 H929 0.960 . S
C922 C920 1.381 . S
C922 C923 1.394 . S
C922 H930 0.930 . S
C923 C922 1.394 . S
C923 C924 1.383 . S
C923 H931 0.929 . S
C924 C923 1.383 . S
C924 C925 1.377 . S
C925 H909 0.930 . S
C925 C924 1.377 . S
C925 C926 1.379 . S
C926 H910 0.931 . S
C926 C920 1.383 . S
C926 C925 1.379 . S
H927 C921 0.959 . S
H928 C921 0.961 . S
H929 C921 0.960 . S
H930 C922 0.930 . S
H931 C923 0.929 . S
H932 C940 0.929 . S
H933 C942 0.930 . S
H934 C944 0.930 . S
H935 C947 0.929 . S
H936 C950 0.930 . S
H937 C952 0.960 . S
H938 C952 0.960 . S
H939 C952 0.960 . S
C940 H932 0.929 . S
C940 C941 1.377 . S
C940 C942 1.384 . S
C941 C940 1.377 . S
C941 C947 1.390 . S
C942 H933 0.930 . S
C942 C940 1.384 . S
C942 C943 1.372 . S
C943 C942 1.372 . S
C943 C944 1.400 . S
C943 C948 1.490 . S
C944 H934 0.930 . S
C944 C943 1.400 . S
C944 C947 1.386 . S
H945 C961 0.930 . S
H946 C962 0.931 . S
C947 H935 0.929 . S
C947 C941 1.390 . S
C947 C944 1.386 . S
C948 C943 1.490 . S
C948 C950 1.395 . S
C948 C951 1.403 1_545 S
H949 C955 0.930 . S
C950 H936 0.930 . S
C950 C948 1.395 . S
C950 C953 1.403 . S
C951 C948 1.403 1_565 S
C951 C952 1.524 . S
C951 C955 1.400 . S
C952 H937 0.960 . S
C952 H938 0.960 . S
C952 H939 0.960 . S
C952 C951 1.524 . S
C953 C950 1.403 . S
C953 C954 1.392 1_545 S
C953 C957 1.495 . S
C954 C953 1.392 1_565 S
C954 C955 1.385 . S
C954 C956 1.478 . S
C955 H949 0.930 . S
C955 C951 1.400 . S
C955 C954 1.385 . S
C956 C954 1.478 . S
C956 C958 1.381 . S
C956 C962 1.383 . S
C957 C953 1.495 . S
C957 H963 0.959 . S
C957 H964 0.961 . S
C957 H965 0.988 . S
C958 C956 1.381 . S
C958 C959 1.394 . S
C958 H966 0.930 . S
C959 C958 1.394 . S
C959 C960 1.383 . S
C959 H967 0.929 . S
C960 C959 1.383 . S
C960 C961 1.377 . S
C961 H945 0.930 . S
C961 C960 1.377 . S
C961 C962 1.379 . S
C962 H946 0.931 . S
C962 C956 1.383 . S
C962 C961 1.379 . S
H963 C957 0.959 . S
H964 C957 0.961 . S
H965 C957 0.988 . S
H966 C958 0.930 . S
H967 C959 0.929 . S
H968 C976 0.929 . S
H969 C978 0.930 . S
H970 C980 0.930 . S
H971 C983 0.929 . S
H972 C986 0.930 . S
H973 C988 0.960 . S
H974 C988 0.960 . S
H975 C988 0.960 . S
C976 H968 0.929 . S
C976 C977 1.377 . S
C976 C978 1.384 . S
C977 C976 1.377 . S
C977 C983 1.390 . S
C978 H969 0.930 . S
C978 C976 1.384 . S
C978 C979 1.372 . S
C979 C978 1.372 . S
C979 C980 1.400 . S
C979 C984 1.490 . S
C980 H970 0.930 . S
C980 C979 1.400 . S
C980 C983 1.386 . S
H981 C997 0.930 . S
H982 C998 0.931 . S
C983 H971 0.929 . S
C983 C977 1.390 . S
C983 C980 1.386 . S
C984 C979 1.490 . S
C984 C986 1.395 1_565 S
C984 C987 1.403 . S
H985 C991 0.940 . S
C986 H972 0.930 . S
C986 C984 1.395 1_545 S
C986 C989 1.403 . S
C987 C984 1.403 . S
C987 C988 1.524 . S
C987 C991 1.400 1_565 S
C988 H973 0.960 . S
C988 H974 0.960 . S
C988 H975 0.960 . S
C988 C987 1.524 . S
C989 C986 1.403 . S
C989 C990 1.392 . S
C989 C993 1.495 . S
C990 C989 1.392 . S
C990 C991 1.385 . S
C990 C992 1.478 . S
C991 H985 0.940 . S
C991 C987 1.400 1_545 S
C991 C990 1.385 . S
C992 C990 1.478 . S
C992 C994 1.381 . S
C992 C998 1.383 . S
C993 C989 1.495 . S
C993 H999 0.959 . S
C993 H1000 0.961 . S
C993 H1001 0.960 . S
C994 C992 1.381 . S
C994 C995 1.394 . S
C994 H1002 0.930 . S
C995 C994 1.394 . S
C995 C996 1.383 1_554 S
C995 H1003 0.929 1_554 S
C996 C995 1.383 1_556 S
C996 C997 1.377 1_556 S
C997 H981 0.930 . S
C997 C996 1.377 1_554 S
C997 C998 1.379 . S
C998 H982 0.931 . S
C998 C992 1.383 . S
C998 C997 1.379 . S
H999 C993 0.959 . S
H1000 C993 0.961 . S
H1001 C993 0.960 . S
H1002 C994 0.930 . S
H1003 C995 0.929 1_556 S
H1004 C1012 0.929 . S
H1005 C1014 0.930 . S
H1006 C1016 0.930 . S
H1007 C1019 0.929 . S
H1008 C1022 0.930 . S
H1009 C1024 0.960 . S
H1010 C1024 0.960 . S
H1011 C1024 0.960 . S
C1012 H1004 0.929 . S
C1012 C1013 1.377 . S
C1012 C1014 1.384 . S
C1013 C1012 1.377 . S
C1013 C1019 1.390 . S
C1014 H1005 0.930 . S
C1014 C1012 1.384 . S
C1014 C1015 1.372 . S
C1015 C1014 1.372 . S
C1015 C1016 1.400 . S
C1015 C1020 1.490 . S
C1016 H1006 0.930 . S
C1016 C1015 1.400 . S
C1016 C1019 1.386 . S
H1017 C1033 0.930 . S
H1018 C1034 0.931 1_545 S
C1019 H1007 0.929 . S
C1019 C1013 1.390 . S
C1019 C1016 1.386 . S
C1020 C1015 1.490 . S
C1020 C1022 1.395 . S
C1020 C1023 1.403 . S
H1021 C1027 0.930 . S
C1022 H1008 0.930 . S
C1022 C1020 1.395 . S
C1022 C1025 1.403 . S
C1023 C1020 1.403 . S
C1023 C1024 1.524 . S
C1023 C1027 1.400 1_545 S
C1024 H1009 0.960 . S
C1024 H1010 0.960 . S
C1024 H1011 0.960 . S
C1024 C1023 1.524 . S
C1025 C1022 1.403 . S
C1025 C1026 1.392 1_545 S
C1025 C1029 1.495 . S
C1026 C1025 1.392 1_565 S
C1026 C1027 1.385 . S
C1026 C1028 1.478 . S
C1027 H1021 0.930 . S
C1027 C1023 1.400 1_565 S
C1027 C1026 1.385 . S
C1028 C1026 1.478 . S
C1028 C1030 1.381 . S
C1028 C1034 1.383 . S
C1029 C1025 1.495 . S
C1029 H1035 0.959 . S
C1029 H1036 0.961 . S
C1029 H1037 0.960 1_545 S
C1030 C1028 1.381 . S
C1030 C1031 1.394 . S
C1030 H1038 0.930 . S
C1031 C1030 1.394 . S
C1031 C1032 1.383 . S
C1031 H1039 0.929 . S
C1032 C1031 1.383 . S
C1032 C1033 1.377 . S
C1033 H1017 0.930 . S
C1033 C1032 1.377 . S
C1033 C1034 1.379 . S
C1034 H1018 0.931 1_565 S
C1034 C1028 1.383 . S
C1034 C1033 1.379 . S
H1035 C1029 0.959 . S
H1036 C1029 0.961 . S
H1037 C1029 0.960 1_565 S
H1038 C1030 0.930 . S
H1039 C1031 0.929 . S
C185 C40 1.311 . S
C204 C8 1.322 . S
C221 C62 1.310 . S
C240 C74 1.321 . S
C257 C128 1.308 . S
C276 C96 1.291 . S
C293 C150 1.310 . S
C312 C162 1.321 . S
C329 C18 1.624 . S
C348 C142 1.626 . S
C365 C32 1.625 . S
C384 C172 1.611 . S
C401 C106 1.624 . S
C420 C54 1.623 . S
C437 C84 1.623 . S
C456 C120 1.618 . S
C473 C65 0.818 . S
C492 C15 0.816 . S
C509 C81 0.816 . S
C528 C43 0.851 . S
C545 C103 0.804 . S
C564 C153 0.767 . S
C581 C131 0.803 . S
C600 C169 0.770 . S
C617 C7 1.438 . S
C636 C37 1.437 . S
C653 C73 1.433 . S
C672 C59 1.442 . S
C689 C125 1.437 . S
C708 C95 1.427 . S
C725 C161 1.432 . S
C744 C147 1.446 . S
C761 C10 1.177 . S
C780 C87 1.201 . S
C797 C30 1.171 . S
C816 C51 1.195 . S
C833 C29 1.208 . S
C852 C52 1.201 . S
C869 C21 1.208 . S
C888 C76 1.203 . S
C905 C98 1.172 . S
C924 C175 1.210 . S
C941 C139 1.205 . S
C960 C118 1.154 . S
C977 C117 1.208 . S
C996 C140 1.203 . S
C1013 C164 1.168 . S
C1032 C109 1.209 . S
