# Generated by pormake.
# Topology smm, (6)-cn, num edge types: 1
# Building blocks:
#     Node 0, Type 0, BuildingBlock: BETFEN_clean_sbu_0, # of connection points: 6
#     Node 1, Type 0, BuildingBlock: BETFEN_clean_sbu_0, # of connection points: 6
#     Node 2, Type 0, BuildingBlock: BETFEN_clean_sbu_0, # of connection points: 6
#     Node 3, Type 0, BuildingBlock: BETFEN_clean_sbu_0, # of connection points: 6
#     Node 4, Type 0, BuildingBlock: BETFEN_clean_sbu_0, # of connection points: 6
#     Node 5, Type 0, BuildingBlock: BETFEN_clean_sbu_0, # of connection points: 6
#     Node 6, Type 0, BuildingBlock: BETFEN_clean_sbu_0, # of connection points: 6
#     Node 7, Type 0, BuildingBlock: BETFEN_clean_sbu_0, # of connection points: 6
#     Node 8, Type 0, BuildingBlock: BETFEN_clean_sbu_0, # of connection points: 6
#     Edge 9, Type (0, 0), None
#     Edge 10, Type (0, 0), None
#     Edge 11, Type (0, 0), None
#     Edge 12, Type (0, 0), None
#     Edge 13, Type (0, 0), None
#     Edge 14, Type (0, 0), None
#     Edge 15, Type (0, 0), None
#     Edge 16, Type (0, 0), None
#     Edge 17, Type (0, 0), None
#     Edge 18, Type (0, 0), None
#     Edge 19, Type (0, 0), None
#     Edge 20, Type (0, 0), None
#     Edge 21, Type (0, 0), None
#     Edge 22, Type (0, 0), None
#     Edge 23, Type (0, 0), None
#     Edge 24, Type (0, 0), None
#     Edge 25, Type (0, 0), None
#     Edge 26, Type (0, 0), None
#     Edge 27, Type (0, 0), None
#     Edge 28, Type (0, 0), None
#     Edge 29, Type (0, 0), None
#     Edge 30, Type (0, 0), None
#     Edge 31, Type (0, 0), None
#     Edge 32, Type (0, 0), None
#     Edge 33, Type (0, 0), None
#     Edge 34, Type (0, 0), None
#     Edge 35, Type (0, 0), None
# Relax obj value: 0.266
# Max RMSD: 0.273
# Mean RMSD: 0.233
data_MOF--net-smm--node1-BETFEN_clean_sbu_0--edge1-none
_symmetry_space_group_name_H-M    P1
_symmetry_Int_Tables_number       1
_symmetry_cell_setting            triclinic
loop_
_symmetry_equiv_pos_as_xyz
'x, y, z'
_cell_length_a     32.871342
_cell_length_b     48.099553
_cell_length_c     6.4537988
_cell_angle_alpha  93.009184
_cell_angle_beta   96.417671
_cell_angle_gamma 125.7445
loop_
_atom_site_label
_atom_site_type_symbol
_atom_site_fract_x
_atom_site_fract_y
_atom_site_fract_z
_atom_type_partial_charge
Pr0 Pr 0.19769 0.31323 0.10444 0.0
Pr1 Pr 1.09166 0.25117 -0.0161 0.0
C2 C 0.29245 0.3718 0.12975 0.0
C3 C 0.32884 0.40747 0.08981 0.0
C4 C 0.37089 0.43101 0.24763 0.0
C5 C 0.41087 0.46306 0.20363 0.0
C6 C 0.40968 0.47185 0.00069 0.0
C7 C 0.36662 0.44895 0.84484 0.0
C8 C 0.32637 0.41693 0.88899 0.0
C9 C 0.15395 0.28618 0.45585 0.0
C10 C 1.10385 0.32552 0.01714 0.0
C11 C 1.01427 0.18482 -0.00922 0.0
C12 C 1.01621 0.1544 -0.00713 0.0
C13 C 1.00482 0.13309 0.80482 0.0
C14 C 1.01312 0.10751 0.80377 0.0
C15 C 1.03322 0.10242 -0.00922 0.0
C16 C 1.04297 0.12303 0.17978 0.0
C17 C 1.03445 0.14844 0.18093 0.0
C18 C 0.13453 0.27707 0.63212 0.0
C19 C 0.18672 0.24016 0.05788 0.0
O20 O 0.26858 0.34718 0.96823 0.0
O21 O 0.26596 0.36578 0.28025 0.0
O22 O 0.13193 0.28908 0.29429 0.0
O23 O 0.19974 0.29671 0.43975 0.0
O24 O 1.06982 0.29126 0.00706 0.0
O25 O 0.15318 0.33892 0.03263 0.0
O26 O 1.03794 0.20804 0.16028 0.0
O27 O 1.02109 0.19892 0.81743 0.0
O28 O 0.15727 0.27488 0.79543 0.0
O29 O 1.08812 0.26582 0.64559 0.0
O30 O 0.22001 0.2742 0.09789 0.0
O31 O 0.13755 0.22635 0.0175 0.0
H32 H 0.37392 0.42391 0.40213 0.0
H33 H 0.44388 0.48039 0.32464 0.0
H34 H 0.36455 0.45566 0.68835 0.0
H35 H 0.29433 0.39915 0.76433 0.0
H36 H 0.99065 0.13675 0.65691 0.0
H37 H 1.00415 0.09193 0.65513 0.0
H38 H 1.05912 0.12057 0.32708 0.0
H39 H 1.04392 0.16424 0.32941 0.0
Pr40 Pr 1.07393 0.89217 0.96742 0.0
Pr41 Pr 1.07603 0.94909 0.02124 0.0
C42 C 1.04992 0.82425 0.97281 0.0
C43 C 1.03058 0.78437 0.97707 0.0
C44 C 1.05858 0.77073 0.93801 0.0
C45 C 1.03806 0.734 0.93199 0.0
C46 C 0.9874 0.70725 0.96395 0.0
C47 C 0.96013 0.72128 0.00417 0.0
C48 C 0.98055 0.7576 0.01129 0.0
C49 C 1.07043 0.91193 0.58119 0.0
C50 C 0.96209 0.88626 0.97881 0.0
C51 C 1.10096 1.01373 0.00269 0.0
C52 C 1.07939 1.03381 -0.00401 0.0
C53 C 1.05924 1.03825 0.16537 0.0
C54 C 1.04297 1.05958 0.16143 0.0
C55 C 1.04636 1.07714 -0.01186 0.0
C56 C 1.06489 1.07157 0.81599 0.0
C57 C 1.08156 1.05053 0.82087 0.0
C58 C 1.0706 0.9228 0.39875 0.0
C59 C 0.17348 0.99039 -0.01698 0.0
O60 O 1.01929 0.83302 -0.01457 0.0
O61 O 1.096 0.85231 0.9667 0.0
O62 O 1.04341 0.91016 0.71222 0.0
O63 O 1.09877 0.90226 0.64225 0.0
O64 O 0.98869 0.91936 0.97204 0.0
O65 O 0.98599 0.87122 -0.01292 0.0
O66 O 1.08826 0.99184 0.83608 0.0
O67 O 1.10548 1.00265 0.17817 0.0
O68 O 1.10058 0.92667 0.27851 0.0
O69 O 1.043 0.93275 0.33209 0.0
O70 O 0.15834 0.95673 0.00706 0.0
O71 O 0.15591 0.95888 0.00328 0.0
H72 H 1.09697 0.78857 0.90848 0.0
H73 H 1.06233 0.72661 0.89864 0.0
H74 H 0.92137 0.7037 0.03062 0.0
H75 H 0.95606 0.76476 0.04479 0.0
H76 H 1.05658 1.0256 0.30243 0.0
H77 H 1.02779 1.0623 0.29507 0.0
H78 H 1.06894 1.08478 0.6806 0.0
H79 H 1.0974 1.04801 0.68891 0.0
Pr80 Pr 0.35561 1.08318 0.03999 0.0
Pr81 Pr 0.30228 0.11893 -0.00927 0.0
C82 C 0.42359 1.06775 0.05159 0.0
C83 C 0.46051 1.05857 0.07332 0.0
C84 C 0.46937 1.04779 0.26067 0.0
C85 C 0.50298 1.0386 0.28486 0.0
C86 C 0.53017 1.04062 0.1251 0.0
C87 C 0.52275 1.05244 0.93944 0.0
C88 C 0.48824 1.06121 0.91358 0.0
C89 C 0.33194 0.09717 0.41875 0.0
C90 C 0.42875 0.17289 -0.00677 0.0
C91 C 0.24746 0.14492 0.04051 0.0
C92 C 0.23485 0.1709 0.03293 0.0
C93 C 0.26873 0.20574 0.13178 0.0
C94 C 0.25379 0.22824 0.13779 0.0
C95 C 0.20398 0.21665 0.04961 0.0
C96 C 0.17039 0.18185 0.95063 0.0
C97 C 0.18567 0.15973 0.9411 0.0
C98 C 0.32466 0.10491 0.60839 0.0
C99 C 0.22942 1.02552 -0.00319 0.0
O100 O 0.39356 1.06185 0.87644 0.0
O101 O 0.41656 1.08039 0.21629 0.0
O102 O 0.34895 0.11764 0.28165 0.0
O103 O 0.32705 1.06893 0.36335 0.0
O104 O 0.38829 0.17267 0.0056 0.0
O105 O 0.42242 0.14265 -0.006 0.0
O106 O 0.28443 0.15089 0.18246 0.0
O107 O 0.23849 0.12443 0.87188 0.0
O108 O 0.3086 1.08459 0.74673 0.0
O109 O 0.32799 0.13268 0.66193 0.0
O110 O 0.27152 1.02752 -0.01002 0.0
O111 O 0.23404 1.05572 0.00623 0.0
H112 H 0.44899 1.04541 0.38729 0.0
H113 H 0.50663 1.02883 0.42781 0.0
H114 H 0.54182 1.05337 0.81082 0.0
H115 H 0.48303 1.06987 0.76822 0.0
H116 H 0.30681 0.21564 0.20673 0.0
H117 H 0.28117 0.25465 0.21558 0.0
H118 H 0.13192 0.17153 0.87865 0.0
H119 H 0.15845 0.13339 0.86369 0.0
Pr120 Pr 0.84989 0.58404 0.82989 0.0
Pr121 Pr 0.94028 0.58388 0.93301 0.0
C122 C 0.77406 0.58985 0.83826 0.0
C123 C 0.77336 0.60897 0.01594 0.0
C124 C 0.73561 0.61394 0.0203 0.0
C125 C 0.73952 0.63457 0.19352 0.0
C126 C 0.78155 0.65034 0.35844 0.0
C127 C 0.81808 0.64419 0.35402 0.0
C128 C 0.81358 0.62329 0.18576 0.0
C129 C 0.88777 0.58262 0.47131 0.0
C130 C 0.96004 0.66571 0.9489 0.0
C131 C 1.00218 0.56258 0.91224 0.0
C132 C 1.01233 0.53571 0.9576 0.0
C133 C 1.06161 0.54635 0.04667 0.0
C134 C 1.07334 0.52232 0.07231 0.0
C135 C 1.03636 0.48617 0.01066 0.0
C136 C 0.9868 0.47548 0.92412 0.0
C137 C 0.97516 0.49956 0.89738 0.0
C138 C 0.90546 0.58677 0.29289 0.0
C139 C 0.81438 0.50494 0.86173 0.0
O140 O 0.77053 0.56257 0.88519 0.0
O141 O 0.81142 0.60909 0.73741 0.0
O142 O 0.91539 0.60038 0.64567 0.0
O143 O 0.8396 0.56406 0.47759 0.0
O144 O 0.98184 0.64881 0.9266 0.0
O145 O 0.91038 0.64548 0.95329 0.0
O146 O 0.96461 0.55406 0.76315 0.0
O147 O 1.01014 0.58525 0.06486 0.0
O148 O 0.87697 0.56869 0.11954 0.0
O149 O 0.95386 0.60482 0.28593 0.0
O150 O 0.79825 0.52342 0.80936 0.0
O151 O 0.86513 0.52159 0.91367 0.0
H152 H 0.70407 0.60251 0.89019 0.0
H153 H 0.71098 0.63916 0.19552 0.0
H154 H 0.85041 0.65572 0.48069 0.0
H155 H 0.84213 0.61866 0.18691 0.0
H156 H 1.09184 0.57369 0.09349 0.0
H157 H 1.11195 0.53229 0.13936 0.0
H158 H 0.95669 0.44822 0.87337 0.0
H159 H 0.93683 0.48974 0.8265 0.0
Pr160 Pr 0.59666 0.22619 0.91711 0.0
Pr161 Pr 0.59947 0.2884 0.97508 0.0
C162 C 0.59408 0.16965 0.8645 0.0
C163 C 0.63464 0.16637 0.84053 0.0
C164 C 0.62262 0.13436 0.76349 0.0
C165 C 0.66109 0.13012 0.77 0.0
C166 C 0.71209 0.15805 0.85344 0.0
C167 C 0.72439 0.19098 0.90904 0.0
C168 C 0.68577 0.19509 0.90215 0.0
C169 C 0.60062 0.25449 0.54352 0.0
C170 C 0.48461 0.20532 -0.01815 0.0
C171 C 0.6419 0.35812 0.96343 0.0
C172 C 0.68828 0.39394 0.92046 0.0
C173 C 0.68077 0.41456 0.79716 0.0
C174 C 0.72143 0.44915 0.77504 0.0
C175 C 0.77285 0.46573 0.87323 0.0
C176 C 0.78093 0.44486 -0.00714 0.0
C177 C 0.7398 0.41009 0.01697 0.0
C178 C 0.59834 0.2641 0.35461 0.0
C179 C 0.7074 0.29281 0.00488 0.0
O180 O 0.58144 0.18078 0.7085 0.0
O181 O 0.59816 0.1843 0.04977 0.0
O182 O 0.5723 0.25062 0.67408 0.0
O183 O 0.62957 0.24552 0.60706 0.0
O184 O 0.50439 0.239 0.95713 0.0
O185 O 0.51544 0.19644 -0.00776 0.0
O186 O 0.60792 0.33317 0.8098 0.0
O187 O 0.6472 0.34529 0.12907 0.0
O188 O 0.62472 0.26571 0.21895 0.0
O189 O 0.57216 0.27571 0.29867 0.0
O190 O 0.68091 0.26287 0.0704 0.0
O191 O 0.6828 0.30486 0.9214 0.0
H192 H 0.5834 0.11233 0.70895 0.0
H193 H 0.65006 0.10422 0.72713 0.0
H194 H 0.76328 0.2129 0.97172 0.0
H195 H 0.69573 0.22029 0.95566 0.0
H196 H 0.64256 0.40422 0.7211 0.0
H197 H 0.71199 0.46332 0.68168 0.0
H198 H 0.81893 0.45575 0.07454 0.0
H199 H 0.74844 0.39606 0.11588 0.0
Pr200 Pr 0.12398 0.43422 0.07617 0.0
Pr201 Pr 1.01273 0.37634 0.02088 0.0
C202 C 0.22588 0.47591 0.22279 0.0
C203 C 0.27462 0.50797 0.33599 0.0
C204 C 0.28676 0.54082 0.31693 0.0
C205 C 0.33521 0.57078 0.40479 0.0
C206 C 0.37298 0.56879 0.51366 0.0
C207 C 0.36023 0.53586 0.53863 0.0
C208 C 0.31156 0.50579 0.45033 0.0
C209 C 1.07834 0.41131 0.65123 0.0
C210 C 1.08861 0.35057 0.02133 0.0
C211 C 0.90931 0.33406 0.91047 0.0
C212 C 0.86107 0.32844 0.95229 0.0
C213 C 0.83662 0.30952 0.11294 0.0
C214 C 0.78824 0.29996 0.13579 0.0
C215 C 0.76238 0.30893 -0.00077 0.0
C216 C 0.78752 0.32918 0.84401 0.0
C217 C 0.83612 0.33862 0.81994 0.0
C218 C 1.05882 0.39997 0.44576 0.0
C219 C 1.04923 0.46006 0.03194 0.0
O220 O 0.19277 0.45328 0.33001 0.0
O221 O 0.20487 0.47702 0.04175 0.0
O222 O 1.06898 0.39148 0.78969 0.0
O223 O 1.11277 0.44371 0.72761 0.0
O224 O 1.04053 0.33981 0.97096 0.0
O225 O 0.12517 0.38433 0.07703 0.0
O226 O 0.93918 0.35925 0.80773 0.0
O227 O 0.93472 0.32921 0.05607 0.0
O228 O 1.06751 0.41941 0.30585 0.0
O229 O 1.0249 0.36762 0.37057 0.0
O230 O 1.09673 0.47079 0.09839 0.0
O231 O 1.01255 0.42618 -0.01938 0.0
H232 H 0.25923 0.54336 0.22969 0.0
H233 H 0.34336 0.59564 0.3829 0.0
H234 H 0.38821 0.53326 0.62065 0.0
H235 H 0.30327 0.48071 0.46603 0.0
H236 H 0.85401 0.30088 0.21725 0.0
H237 H 0.77022 0.28436 0.25721 0.0
H238 H 0.7686 0.33618 0.73422 0.0
H239 H 0.85334 0.35282 0.69266 0.0
Pr240 Pr 0.65385 1.0179 0.23938 0.0
Pr241 Pr 0.55039 0.95381 0.13163 0.0
C242 C 0.7465 1.07813 0.25211 0.0
C243 C 0.76422 0.10771 0.13681 0.0
C244 C 0.77919 0.13912 0.24637 0.0
C245 C 0.77076 0.16043 0.14234 0.0
C246 C 0.74809 0.15039 0.92826 0.0
C247 C 0.74536 0.12386 0.81172 0.0
C248 C 0.75275 0.10214 0.91551 0.0
C249 C 0.61174 0.99145 0.598 0.0
C250 C 0.5565 1.02344 0.14075 0.0
C251 C 0.45746 0.89599 0.14332 0.0
C252 C 0.43098 0.85862 0.12358 0.0
C253 C 0.39135 0.8372 0.9528 0.0
C254 C 0.37639 0.80381 0.89442 0.0
C255 C 0.40133 0.79206 0.00666 0.0
C256 C 0.43497 0.81156 0.196 0.0
C257 C 0.44973 0.84474 0.25488 0.0
C258 C 0.59192 0.981 0.77306 0.0
C259 C 0.64648 0.94598 0.19467 0.0
O260 O 0.73131 1.04916 0.14157 0.0
O261 O 0.71548 1.07342 0.3796 0.0
O262 O 0.58903 0.99324 0.43468 0.0
O263 O 0.65806 1.00343 0.58176 0.0
O264 O 0.5297 0.99184 0.1859 0.0
O265 O 0.60458 1.03852 0.11669 0.0
O266 O 0.49274 0.91444 0.31036 0.0
O267 O 0.47065 0.90979 0.97088 0.0
O268 O 0.61513 0.97917 0.93466 0.0
O269 O 0.54533 0.96857 0.79022 0.0
O270 O 0.67669 0.98008 0.2274 0.0
O271 O 0.59619 0.92891 0.16242 0.0
H272 H 0.7903 0.14465 0.41619 0.0
H273 H 0.7745 0.18138 0.2364 0.0
H274 H 0.72918 0.11663 0.64631 0.0
H275 H 0.74267 1.07869 0.82517 0.0
H276 H 0.37568 0.84737 0.85278 0.0
H277 H 0.35009 0.78891 0.74818 0.0
H278 H 0.45533 0.80328 0.28273 0.0
H279 H 0.47961 0.8605 0.39052 0.0
Pr280 Pr 0.54955 0.64545 0.68326 0.0
Pr281 Pr 0.5062 0.68371 0.70351 0.0
C282 C 0.56811 0.59917 0.75126 0.0
C283 C 0.53449 0.56673 0.83679 0.0
C284 C 0.51616 0.53491 0.72085 0.0
C285 C 0.47626 0.50395 0.77765 0.0
C286 C 0.45403 0.5044 0.95013 0.0
C287 C 0.47404 0.53605 0.07263 0.0
C288 C 0.51369 0.56697 0.01576 0.0
C289 C 0.53482 0.66302 0.29206 0.0
C290 C 0.42561 0.60118 0.58698 0.0
C291 C 0.46002 0.71406 0.63665 0.0
C292 C 0.44378 0.73308 0.73397 0.0
C293 C 0.42468 0.72538 0.92349 0.0
C294 C 0.4059 0.7423 0.00495 0.0
C295 C 0.40642 0.76709 0.89814 0.0
C296 C 0.42405 0.77379 0.70543 0.0
C297 C 0.44275 0.75691 0.6243 0.0
C298 C 0.52314 0.66709 0.09748 0.0
C299 C 0.63264 0.73131 0.79034 0.0
O300 O 0.58963 0.62783 0.88093 0.0
O301 O 0.5497 0.60031 0.56433 0.0
O302 O 0.50426 0.65223 0.41922 0.0
O303 O 0.57556 0.66541 0.36276 0.0
O304 O 0.43721 0.63002 0.52402 0.0
O305 O 0.46225 0.6016 0.69765 0.0
O306 O 0.50837 0.73019 0.62604 0.0
O307 O 0.43725 0.68243 0.67691 0.0
O308 O 0.55296 0.67763 0.96789 0.0
O309 O 0.48257 0.66478 0.02885 0.0
O310 O 0.6259 0.70125 0.78035 0.0
O311 O 0.59344 0.73261 0.74732 0.0
H312 H 0.53119 0.53409 0.5814 0.0
H313 H 0.46221 0.47959 0.68572 0.0
H314 H 0.45764 0.53695 0.2072 0.0
H315 H 0.52631 0.59109 0.10653 0.0
H316 H 0.42468 0.70659 0.00904 0.0
H317 H 0.39286 0.73712 0.15468 0.0
H318 H 0.42632 0.79366 0.62429 0.0
H319 H 0.45718 0.76277 0.47766 0.0
Pr320 Pr 0.79993 0.79311 0.0249 0.0
Pr321 Pr 0.78872 0.84797 -0.00751 0.0
C322 C 0.81593 0.74492 0.04644 0.0
C323 C 0.8077 0.71907 0.8834 0.0
C324 C 0.75915 0.68751 0.81934 0.0
C325 C 0.74996 0.66523 0.64449 0.0
C326 C 0.78934 0.67419 0.53409 0.0
C327 C 0.83783 0.70552 0.59903 0.0
C328 C 0.84702 0.72766 0.773 0.0
C329 C 0.79433 0.8176 0.4095 0.0
C330 C 0.90568 0.86547 -0.01692 0.0
C331 C 0.76449 0.89292 0.06295 0.0
C332 C 0.72961 0.90213 0.11307 0.0
C333 C 0.67934 0.88506 0.00321 0.0
C334 C 0.65052 0.89762 0.03843 0.0
C335 C 0.67157 0.92794 0.18153 0.0
C336 C 0.72111 0.94408 0.2952 0.0
C337 C 0.74935 0.93132 0.26261 0.0
C338 C 0.79805 0.82834 0.60682 0.0
C339 C 0.68641 0.76285 0.8494 0.0
O340 O 0.77485 0.74034 0.09222 0.0
O341 O 0.85205 0.77717 0.03167 0.0
O342 O 0.82079 0.83693 0.28339 0.0
O343 O 0.76681 0.7853 0.33415 0.0
O344 O 0.88118 0.87943 0.01969 0.0
O345 O 0.88074 0.8319 0.95382 0.0
O346 O 0.78638 0.88598 0.21169 0.0
O347 O 0.75665 0.87677 0.87716 0.0
O348 O 0.77216 0.80736 0.72924 0.0
O349 O 0.8215 0.86077 0.68151 0.0
O350 O 0.72086 0.75829 0.81834 0.0
O351 O 0.70169 0.79372 0.94408 0.0
H352 H 0.728 0.68032 0.90122 0.0
H353 H 0.71248 0.64091 0.59736 0.0
H354 H 0.86862 0.71307 0.51374 0.0
H355 H 0.88443 0.75208 0.81592 0.0
H356 H 0.66284 0.86262 0.88564 0.0
H357 H 0.61287 0.88467 0.94565 0.0
H358 H 0.73889 0.96745 0.40638 0.0
H359 H 0.78783 0.94529 0.34932 0.0
loop_
_geom_bond_atom_site_label_1
_geom_bond_atom_site_label_2
_geom_bond_distance
_geom_bond_site_symmetry_2
_ccdc_geom_bond_type
Pr0 C2 2.880 . S
Pr0 O20 2.562 . S
Pr0 O21 2.490 . S
Pr0 O22 2.695 . S
Pr0 O23 2.512 . S
Pr0 O25 2.437 . S
Pr0 O28 2.436 1_554 S
Pr0 O30 2.438 . S
Pr1 C11 2.880 . S
Pr1 O22 2.436 1_655 S
Pr1 O24 2.438 . S
Pr1 O26 2.562 . S
Pr1 O27 2.490 1_554 S
Pr1 O28 2.695 1_654 S
Pr1 O29 2.512 1_654 S
Pr1 O31 2.437 1_655 S
C2 Pr0 2.880 . S
C2 C3 1.491 . S
C2 O20 1.254 . S
C2 O21 1.225 . S
C3 C2 1.491 . S
C3 C4 1.392 . S
C3 C8 1.356 . S
C4 C3 1.392 . S
C4 C5 1.368 . S
C4 H32 0.929 . S
C5 C4 1.368 . S
C5 C6 1.386 . S
C5 H33 0.929 . S
C6 C5 1.386 . S
C6 C7 1.373 . S
C7 C6 1.373 . S
C7 C8 1.409 . S
C7 H34 0.931 1_554 S
C8 C3 1.356 . S
C8 C7 1.409 . S
C8 H35 0.930 1_554 S
C9 O22 1.270 . S
C9 O23 1.248 . S
C10 O24 1.267 1_455 S
C10 O25 1.278 . S
C11 Pr1 2.880 . S
C11 C12 1.491 . S
C11 O26 1.254 . S
C11 O27 1.225 1_554 S
C12 C11 1.491 . S
C12 C13 1.392 1_554 S
C12 C17 1.356 . S
C13 C12 1.392 1_556 S
C13 C14 1.368 1_545 S
C13 H36 0.929 . S
C14 C13 1.368 1_565 S
C14 C15 1.386 1_556 S
C14 H37 0.929 . S
C15 C14 1.386 1_554 S
C15 C16 1.373 1_565 S
C16 C15 1.373 1_545 S
C16 C17 1.409 . S
C16 H38 0.931 . S
C17 C12 1.356 . S
C17 C16 1.409 . S
C17 H39 0.930 . S
C18 O28 1.270 . S
C18 O29 1.248 . S
C19 O30 1.267 . S
C19 O31 1.278 . S
O20 Pr0 2.562 . S
O20 C2 1.254 . S
O21 Pr0 2.490 . S
O21 C2 1.225 . S
O22 Pr0 2.695 . S
O22 Pr1 2.436 1_455 S
O22 C9 1.270 . S
O23 Pr0 2.512 . S
O23 C9 1.248 . S
O24 Pr1 2.438 . S
O24 C10 1.267 1_655 S
O25 Pr0 2.437 . S
O25 C10 1.278 . S
O26 Pr1 2.562 . S
O26 C11 1.254 . S
O27 Pr1 2.490 1_556 S
O27 C11 1.225 1_556 S
O28 Pr0 2.436 1_556 S
O28 Pr1 2.695 1_456 S
O28 C18 1.270 . S
O29 Pr1 2.512 1_456 S
O29 C18 1.248 . S
O30 Pr0 2.438 . S
O30 C19 1.267 . S
O31 Pr1 2.437 1_455 S
O31 C19 1.278 . S
H32 C4 0.929 . S
H33 C5 0.929 . S
H34 C7 0.931 1_556 S
H35 C8 0.930 1_556 S
H36 C13 0.929 . S
H37 C14 0.929 . S
H38 C16 0.931 . S
H39 C17 0.930 . S
Pr40 C42 2.880 . S
Pr40 O60 2.562 1_556 S
Pr40 O61 2.490 . S
Pr40 O62 2.695 . S
Pr40 O63 2.512 . S
Pr40 O65 2.437 . S
Pr40 O68 2.436 1_556 S
Pr40 O70 2.438 1_656 S
Pr41 C51 2.880 . S
Pr41 O62 2.436 1_554 S
Pr41 O64 2.438 1_554 S
Pr41 O66 2.562 1_554 S
Pr41 O67 2.490 . S
Pr41 O68 2.695 . S
Pr41 O69 2.512 . S
Pr41 O71 2.437 . S
C42 Pr40 2.880 . S
C42 C43 1.491 . S
C42 O60 1.254 1_556 S
C42 O61 1.225 . S
C43 C42 1.491 . S
C43 C44 1.392 . S
C43 C48 1.356 1_556 S
C44 C43 1.392 . S
C44 C45 1.368 . S
C44 H72 0.929 . S
C45 C44 1.368 . S
C45 C46 1.386 . S
C45 H73 0.929 . S
C46 C45 1.386 . S
C46 C47 1.373 1_556 S
C47 C46 1.373 1_554 S
C47 C48 1.409 . S
C47 H74 0.931 . S
C48 C43 1.356 1_554 S
C48 C47 1.409 . S
C48 H75 0.930 . S
C49 O62 1.270 . S
C49 O63 1.248 . S
C50 O64 1.267 . S
C50 O65 1.278 . S
C51 Pr41 2.880 . S
C51 C52 1.491 . S
C51 O66 1.254 1_554 S
C51 O67 1.225 . S
C52 C51 1.491 . S
C52 C53 1.392 . S
C52 C57 1.356 1_554 S
C53 C52 1.392 . S
C53 C54 1.368 . S
C53 H76 0.929 . S
C54 C53 1.368 . S
C54 C55 1.386 1_655 S
C54 H77 0.929 . S
C55 C54 1.386 1_455 S
C55 C56 1.373 1_554 S
C56 C55 1.373 1_556 S
C56 C57 1.409 1_455 S
C56 H78 0.931 . S
C57 C52 1.356 1_556 S
C57 C56 1.409 1_655 S
C57 H79 0.930 . S
C58 O68 1.270 . S
C58 O69 1.248 . S
C59 O70 1.267 . S
C59 O71 1.278 1_455 S
O60 Pr40 2.562 1_554 S
O60 C42 1.254 1_554 S
O61 Pr40 2.490 . S
O61 C42 1.225 . S
O62 Pr40 2.695 . S
O62 Pr41 2.436 1_556 S
O62 C49 1.270 . S
O63 Pr40 2.512 . S
O63 C49 1.248 . S
O64 Pr41 2.438 1_556 S
O64 C50 1.267 . S
O65 Pr40 2.437 . S
O65 C50 1.278 . S
O66 Pr41 2.562 1_556 S
O66 C51 1.254 1_556 S
O67 Pr41 2.490 . S
O67 C51 1.225 . S
O68 Pr40 2.436 1_554 S
O68 Pr41 2.695 . S
O68 C58 1.270 . S
O69 Pr41 2.512 . S
O69 C58 1.248 . S
O70 Pr40 2.438 1_454 S
O70 C59 1.267 . S
O71 Pr41 2.437 . S
O71 C59 1.278 1_655 S
H72 C44 0.929 . S
H73 C45 0.929 . S
H74 C47 0.931 . S
H75 C48 0.930 . S
H76 C53 0.929 . S
H77 C54 0.929 . S
H78 C56 0.931 . S
H79 C57 0.930 . S
Pr80 C82 2.880 1_554 S
Pr80 O100 2.562 1_554 S
Pr80 O101 2.490 . S
Pr80 O102 2.695 1_565 S
Pr80 O103 2.512 . S
Pr80 O105 2.437 1_565 S
Pr80 O108 2.436 1_564 S
Pr80 O110 2.438 1_554 S
Pr81 C91 2.880 1_556 S
Pr81 O102 2.436 1_556 S
Pr81 O104 2.438 1_556 S
Pr81 O106 2.562 1_556 S
Pr81 O107 2.490 . S
Pr81 O108 2.695 . S
Pr81 O109 2.512 . S
Pr81 O111 2.437 1_545 S
C82 Pr80 2.880 1_556 S
C82 C83 1.491 . S
C82 O100 1.254 . S
C82 O101 1.225 1_556 S
C83 C82 1.491 . S
C83 C84 1.392 1_556 S
C83 C88 1.356 . S
C84 C83 1.392 1_554 S
C84 C85 1.368 . S
C84 H112 0.929 . S
C85 C84 1.368 . S
C85 C86 1.386 1_554 S
C85 H113 0.929 . S
C86 C85 1.386 1_556 S
C86 C87 1.373 . S
C87 C86 1.373 . S
C87 C88 1.409 . S
C87 H114 0.931 . S
C88 C83 1.356 . S
C88 C87 1.409 . S
C88 H115 0.930 . S
C89 O102 1.270 . S
C89 O103 1.248 1_545 S
C90 O104 1.267 . S
C90 O105 1.278 . S
C91 Pr81 2.880 1_554 S
C91 C92 1.491 . S
C91 O106 1.254 . S
C91 O107 1.225 1_554 S
C92 C91 1.491 . S
C92 C93 1.392 1_554 S
C92 C97 1.356 . S
C93 C92 1.392 1_556 S
C93 C94 1.368 . S
C93 H116 0.929 . S
C94 C93 1.368 . S
C94 C95 1.386 1_556 S
C94 H117 0.929 . S
C95 C94 1.386 1_554 S
C95 C96 1.373 . S
C96 C95 1.373 . S
C96 C97 1.409 . S
C96 H118 0.931 . S
C97 C92 1.356 . S
C97 C96 1.409 . S
C97 H119 0.930 . S
C98 O108 1.270 . S
C98 O109 1.248 . S
C99 O110 1.267 . S
C99 O111 1.278 . S
O100 Pr80 2.562 1_556 S
O100 C82 1.254 . S
O101 Pr80 2.490 . S
O101 C82 1.225 1_554 S
O102 Pr80 2.695 1_545 S
O102 Pr81 2.436 1_554 S
O102 C89 1.270 . S
O103 Pr80 2.512 . S
O103 C89 1.248 1_565 S
O104 Pr81 2.438 1_554 S
O104 C90 1.267 . S
O105 Pr80 2.437 1_545 S
O105 C90 1.278 . S
O106 Pr81 2.562 1_554 S
O106 C91 1.254 . S
O107 Pr81 2.490 . S
O107 C91 1.225 1_556 S
O108 Pr80 2.436 1_546 S
O108 Pr81 2.695 . S
O108 C98 1.270 . S
O109 Pr81 2.512 . S
O109 C98 1.248 . S
O110 Pr80 2.438 1_556 S
O110 C99 1.267 . S
O111 Pr81 2.437 1_565 S
O111 C99 1.278 . S
H112 C84 0.929 . S
H113 C85 0.929 . S
H114 C87 0.931 . S
H115 C88 0.930 . S
H116 C93 0.929 . S
H117 C94 0.929 . S
H118 C96 0.931 . S
H119 C97 0.930 . S
Pr120 C122 2.880 1_556 S
Pr120 O140 2.562 1_556 S
Pr120 O141 2.490 . S
Pr120 O142 2.695 . S
Pr120 O143 2.512 . S
Pr120 O145 2.437 . S
Pr120 O148 2.436 1_556 S
Pr120 O150 2.438 . S
Pr121 C131 2.880 1_554 S
Pr121 O142 2.436 1_554 S
Pr121 O144 2.438 . S
Pr121 O146 2.562 1_554 S
Pr121 O147 2.490 . S
Pr121 O148 2.695 . S
Pr121 O149 2.512 . S
Pr121 O151 2.437 . S
C122 Pr120 2.880 1_554 S
C122 C123 1.491 . S
C122 O140 1.254 . S
C122 O141 1.225 1_554 S
C123 C122 1.491 . S
C123 C124 1.392 1_554 S
C123 C128 1.356 . S
C124 C123 1.392 1_556 S
C124 C125 1.368 . S
C124 H152 0.929 . S
C125 C124 1.368 . S
C125 C126 1.386 1_556 S
C125 H153 0.929 . S
C126 C125 1.386 1_554 S
C126 C127 1.373 . S
C127 C126 1.373 . S
C127 C128 1.409 . S
C127 H154 0.931 . S
C128 C123 1.356 . S
C128 C127 1.409 . S
C128 H155 0.930 . S
C129 O142 1.270 . S
C129 O143 1.248 . S
C130 O144 1.267 . S
C130 O145 1.278 1_554 S
C131 Pr121 2.880 1_556 S
C131 C132 1.491 . S
C131 O146 1.254 . S
C131 O147 1.225 1_556 S
C132 C131 1.491 . S
C132 C133 1.392 1_556 S
C132 C137 1.356 . S
C133 C132 1.392 1_554 S
C133 C134 1.368 . S
C133 H156 0.929 . S
C134 C133 1.368 . S
C134 C135 1.386 1_554 S
C134 H157 0.929 . S
C135 C134 1.386 1_556 S
C135 C136 1.373 . S
C136 C135 1.373 . S
C136 C137 1.409 . S
C136 H158 0.931 . S
C137 C132 1.356 . S
C137 C136 1.409 . S
C137 H159 0.930 . S
C138 O148 1.270 . S
C138 O149 1.248 . S
C139 O150 1.267 . S
C139 O151 1.278 1_556 S
O140 Pr120 2.562 1_554 S
O140 C122 1.254 . S
O141 Pr120 2.490 . S
O141 C122 1.225 1_556 S
O142 Pr120 2.695 . S
O142 Pr121 2.436 1_556 S
O142 C129 1.270 . S
O143 Pr120 2.512 . S
O143 C129 1.248 . S
O144 Pr121 2.438 . S
O144 C130 1.267 . S
O145 Pr120 2.437 . S
O145 C130 1.278 1_556 S
O146 Pr121 2.562 1_556 S
O146 C131 1.254 . S
O147 Pr121 2.490 . S
O147 C131 1.225 1_554 S
O148 Pr120 2.436 1_554 S
O148 Pr121 2.695 . S
O148 C138 1.270 . S
O149 Pr121 2.512 . S
O149 C138 1.248 . S
O150 Pr120 2.438 . S
O150 C139 1.267 . S
O151 Pr121 2.437 . S
O151 C139 1.278 1_554 S
H152 C124 0.929 . S
H153 C125 0.929 . S
H154 C127 0.931 . S
H155 C128 0.930 . S
H156 C133 0.929 . S
H157 C134 0.929 . S
H158 C136 0.931 . S
H159 C137 0.930 . S
Pr160 C162 2.880 . S
Pr160 O180 2.562 . S
Pr160 O181 2.490 1_554 S
Pr160 O182 2.695 1_554 S
Pr160 O183 2.512 1_554 S
Pr160 O185 2.437 1_554 S
Pr160 O188 2.436 . S
Pr160 O190 2.438 . S
Pr161 C171 2.880 . S
Pr161 O182 2.436 . S
Pr161 O184 2.438 . S
Pr161 O186 2.562 . S
Pr161 O187 2.490 1_556 S
Pr161 O188 2.695 1_556 S
Pr161 O189 2.512 1_556 S
Pr161 O191 2.437 1_556 S
C162 Pr160 2.880 . S
C162 C163 1.491 . S
C162 O180 1.254 . S
C162 O181 1.225 1_554 S
C163 C162 1.491 . S
C163 C164 1.392 1_554 S
C163 C168 1.356 . S
C164 C163 1.392 1_556 S
C164 C165 1.368 . S
C164 H192 0.929 . S
C165 C164 1.368 . S
C165 C166 1.386 1_556 S
C165 H193 0.929 . S
C166 C165 1.386 1_554 S
C166 C167 1.373 . S
C167 C166 1.373 . S
C167 C168 1.409 . S
C167 H194 0.931 . S
C168 C163 1.356 . S
C168 C167 1.409 . S
C168 H195 0.930 . S
C169 O182 1.270 . S
C169 O183 1.248 . S
C170 O184 1.267 . S
C170 O185 1.278 . S
C171 Pr161 2.880 . S
C171 C172 1.491 . S
C171 O186 1.254 . S
C171 O187 1.225 1_556 S
C172 C171 1.491 . S
C172 C173 1.392 1_556 S
C172 C177 1.356 . S
C173 C172 1.392 1_554 S
C173 C174 1.368 . S
C173 H196 0.929 . S
C174 C173 1.368 . S
C174 C175 1.386 1_554 S
C174 H197 0.929 . S
C175 C174 1.386 1_556 S
C175 C176 1.373 . S
C176 C175 1.373 . S
C176 C177 1.409 . S
C176 H198 0.931 . S
C177 C172 1.356 . S
C177 C176 1.409 . S
C177 H199 0.930 . S
C178 O188 1.270 . S
C178 O189 1.248 . S
C179 O190 1.267 . S
C179 O191 1.278 . S
O180 Pr160 2.562 . S
O180 C162 1.254 . S
O181 Pr160 2.490 1_556 S
O181 C162 1.225 1_556 S
O182 Pr160 2.695 1_556 S
O182 Pr161 2.436 . S
O182 C169 1.270 . S
O183 Pr160 2.512 1_556 S
O183 C169 1.248 . S
O184 Pr161 2.438 . S
O184 C170 1.267 . S
O185 Pr160 2.437 1_556 S
O185 C170 1.278 . S
O186 Pr161 2.562 . S
O186 C171 1.254 . S
O187 Pr161 2.490 1_554 S
O187 C171 1.225 1_554 S
O188 Pr160 2.436 . S
O188 Pr161 2.695 1_554 S
O188 C178 1.270 . S
O189 Pr161 2.512 1_554 S
O189 C178 1.248 . S
O190 Pr160 2.438 . S
O190 C179 1.267 . S
O191 Pr161 2.437 1_554 S
O191 C179 1.278 . S
H192 C164 0.929 . S
H193 C165 0.929 . S
H194 C167 0.931 . S
H195 C168 0.930 . S
H196 C173 0.929 . S
H197 C174 0.929 . S
H198 C176 0.931 . S
H199 C177 0.930 . S
Pr200 C202 2.880 . S
Pr200 O220 2.562 . S
Pr200 O221 2.490 . S
Pr200 O222 2.695 1_454 S
Pr200 O223 2.512 1_554 S
Pr200 O225 2.437 . S
Pr200 O228 2.436 1_455 S
Pr200 O230 2.438 1_455 S
Pr201 C211 2.880 1_554 S
Pr201 O222 2.436 1_554 S
Pr201 O224 2.438 . S
Pr201 O226 2.562 1_554 S
Pr201 O227 2.490 . S
Pr201 O228 2.695 . S
Pr201 O229 2.512 . S
Pr201 O231 2.437 . S
C202 Pr200 2.880 . S
C202 C203 1.491 . S
C202 O220 1.254 . S
C202 O221 1.225 . S
C203 C202 1.491 . S
C203 C204 1.392 . S
C203 C208 1.356 . S
C204 C203 1.392 . S
C204 C205 1.368 . S
C204 H232 0.929 . S
C205 C204 1.368 . S
C205 C206 1.386 . S
C205 H233 0.929 . S
C206 C205 1.386 . S
C206 C207 1.373 . S
C207 C206 1.373 . S
C207 C208 1.409 . S
C207 H234 0.931 . S
C208 C203 1.356 . S
C208 C207 1.409 . S
C208 H235 0.930 . S
C209 O222 1.270 . S
C209 O223 1.248 1_655 S
C210 O224 1.267 1_455 S
C210 O225 1.278 . S
C211 Pr201 2.880 1_556 S
C211 C212 1.491 . S
C211 O226 1.254 . S
C211 O227 1.225 1_556 S
C212 C211 1.491 . S
C212 C213 1.392 . S
C212 C217 1.356 . S
C213 C212 1.392 . S
C213 C214 1.368 . S
C213 H236 0.929 1_556 S
C214 C213 1.368 . S
C214 C215 1.386 . S
C214 H237 0.929 . S
C215 C214 1.386 . S
C215 C216 1.373 . S
C216 C215 1.373 . S
C216 C217 1.409 . S
C216 H238 0.931 . S
C217 C212 1.356 . S
C217 C216 1.409 . S
C217 H239 0.930 . S
C218 O228 1.270 . S
C218 O229 1.248 . S
C219 O230 1.267 . S
C219 O231 1.278 . S
O220 Pr200 2.562 . S
O220 C202 1.254 . S
O221 Pr200 2.490 . S
O221 C202 1.225 . S
O222 Pr200 2.695 1_656 S
O222 Pr201 2.436 1_556 S
O222 C209 1.270 . S
O223 Pr200 2.512 1_556 S
O223 C209 1.248 1_455 S
O224 Pr201 2.438 . S
O224 C210 1.267 1_655 S
O225 Pr200 2.437 . S
O225 C210 1.278 . S
O226 Pr201 2.562 1_556 S
O226 C211 1.254 . S
O227 Pr201 2.490 . S
O227 C211 1.225 1_554 S
O228 Pr200 2.436 1_655 S
O228 Pr201 2.695 . S
O228 C218 1.270 . S
O229 Pr201 2.512 . S
O229 C218 1.248 . S
O230 Pr200 2.438 1_655 S
O230 C219 1.267 . S
O231 Pr201 2.437 . S
O231 C219 1.278 . S
H232 C204 0.929 . S
H233 C205 0.929 . S
H234 C207 0.931 . S
H235 C208 0.930 . S
H236 C213 0.929 1_554 S
H237 C214 0.929 . S
H238 C216 0.931 . S
H239 C217 0.930 . S
Pr240 C242 2.880 . S
Pr240 O260 2.562 1_554 S
Pr240 O261 2.490 . S
Pr240 O262 2.695 . S
Pr240 O263 2.512 . S
Pr240 O265 2.437 . S
Pr240 O268 2.436 1_554 S
Pr240 O270 2.438 . S
Pr241 C251 2.880 . S
Pr241 O262 2.436 1_556 S
Pr241 O264 2.438 . S
Pr241 O266 2.562 1_556 S
Pr241 O267 2.490 . S
Pr241 O268 2.695 . S
Pr241 O269 2.512 . S
Pr241 O271 2.437 . S
C242 Pr240 2.880 . S
C242 C243 1.491 1_565 S
C242 O260 1.254 1_554 S
C242 O261 1.225 . S
C243 C242 1.491 1_545 S
C243 C244 1.392 . S
C243 C248 1.356 1_554 S
C244 C243 1.392 . S
C244 C245 1.368 . S
C244 H272 0.929 . S
C245 C244 1.368 . S
C245 C246 1.386 1_554 S
C245 H273 0.929 . S
C246 C245 1.386 1_556 S
C246 C247 1.373 . S
C247 C246 1.373 . S
C247 C248 1.409 . S
C247 H274 0.931 . S
C248 C243 1.356 1_556 S
C248 C247 1.409 . S
C248 H275 0.930 . S
C249 O262 1.270 . S
C249 O263 1.248 . S
C250 O264 1.267 . S
C250 O265 1.278 1_556 S
C251 Pr241 2.880 . S
C251 C252 1.491 . S
C251 O266 1.254 1_556 S
C251 O267 1.225 . S
C252 C251 1.491 . S
C252 C253 1.392 . S
C252 C257 1.356 1_556 S
C253 C252 1.392 . S
C253 C254 1.368 . S
C253 H276 0.929 . S
C254 C253 1.368 . S
C254 C255 1.386 1_556 S
C254 H277 0.929 . S
C255 C254 1.386 1_554 S
C255 C256 1.373 . S
C256 C255 1.373 . S
C256 C257 1.409 . S
C256 H278 0.931 . S
C257 C252 1.356 1_554 S
C257 C256 1.409 . S
C257 H279 0.930 . S
C258 O268 1.270 . S
C258 O269 1.248 . S
C259 O270 1.267 . S
C259 O271 1.278 1_554 S
O260 Pr240 2.562 1_556 S
O260 C242 1.254 1_556 S
O261 Pr240 2.490 . S
O261 C242 1.225 . S
O262 Pr240 2.695 . S
O262 Pr241 2.436 1_554 S
O262 C249 1.270 . S
O263 Pr240 2.512 . S
O263 C249 1.248 . S
O264 Pr241 2.438 . S
O264 C250 1.267 . S
O265 Pr240 2.437 . S
O265 C250 1.278 1_554 S
O266 Pr241 2.562 1_554 S
O266 C251 1.254 1_554 S
O267 Pr241 2.490 . S
O267 C251 1.225 . S
O268 Pr240 2.436 1_556 S
O268 Pr241 2.695 . S
O268 C258 1.270 . S
O269 Pr241 2.512 . S
O269 C258 1.248 . S
O270 Pr240 2.438 . S
O270 C259 1.267 . S
O271 Pr241 2.437 . S
O271 C259 1.278 1_556 S
H272 C244 0.929 . S
H273 C245 0.929 . S
H274 C247 0.931 . S
H275 C248 0.930 . S
H276 C253 0.929 . S
H277 C254 0.929 . S
H278 C256 0.931 . S
H279 C257 0.930 . S
Pr280 C282 2.880 . S
Pr280 O300 2.562 1_556 S
Pr280 O301 2.490 . S
Pr280 O302 2.695 . S
Pr280 O303 2.512 . S
Pr280 O305 2.437 . S
Pr280 O308 2.436 1_556 S
Pr280 O310 2.438 1_556 S
Pr281 C291 2.880 . S
Pr281 O302 2.436 1_554 S
Pr281 O304 2.438 1_554 S
Pr281 O306 2.562 1_554 S
Pr281 O307 2.490 . S
Pr281 O308 2.695 . S
Pr281 O309 2.512 . S
Pr281 O311 2.437 . S
C282 Pr280 2.880 . S
C282 C283 1.491 . S
C282 O300 1.254 1_556 S
C282 O301 1.225 . S
C283 C282 1.491 . S
C283 C284 1.392 . S
C283 C288 1.356 1_556 S
C284 C283 1.392 . S
C284 C285 1.368 . S
C284 H312 0.929 . S
C285 C284 1.368 . S
C285 C286 1.386 . S
C285 H313 0.929 . S
C286 C285 1.386 . S
C286 C287 1.373 1_556 S
C287 C286 1.373 1_554 S
C287 C288 1.409 . S
C287 H314 0.931 . S
C288 C283 1.356 1_554 S
C288 C287 1.409 . S
C288 H315 0.930 . S
C289 O302 1.270 . S
C289 O303 1.248 . S
C290 O304 1.267 . S
C290 O305 1.278 . S
C291 Pr281 2.880 . S
C291 C292 1.491 . S
C291 O306 1.254 1_554 S
C291 O307 1.225 . S
C292 C291 1.491 . S
C292 C293 1.392 . S
C292 C297 1.356 1_554 S
C293 C292 1.392 . S
C293 C294 1.368 . S
C293 H316 0.929 . S
C294 C293 1.368 . S
C294 C295 1.386 . S
C294 H317 0.929 . S
C295 C294 1.386 . S
C295 C296 1.373 1_554 S
C296 C295 1.373 1_556 S
C296 C297 1.409 . S
C296 H318 0.931 . S
C297 C292 1.356 1_556 S
C297 C296 1.409 . S
C297 H319 0.930 . S
C298 O308 1.270 . S
C298 O309 1.248 . S
C299 O310 1.267 . S
C299 O311 1.278 . S
O300 Pr280 2.562 1_554 S
O300 C282 1.254 1_554 S
O301 Pr280 2.490 . S
O301 C282 1.225 . S
O302 Pr280 2.695 . S
O302 Pr281 2.436 1_556 S
O302 C289 1.270 . S
O303 Pr280 2.512 . S
O303 C289 1.248 . S
O304 Pr281 2.438 1_556 S
O304 C290 1.267 . S
O305 Pr280 2.437 . S
O305 C290 1.278 . S
O306 Pr281 2.562 1_556 S
O306 C291 1.254 1_556 S
O307 Pr281 2.490 . S
O307 C291 1.225 . S
O308 Pr280 2.436 1_554 S
O308 Pr281 2.695 . S
O308 C298 1.270 . S
O309 Pr281 2.512 . S
O309 C298 1.248 . S
O310 Pr280 2.438 1_554 S
O310 C299 1.267 . S
O311 Pr281 2.437 . S
O311 C299 1.278 . S
H312 C284 0.929 . S
H313 C285 0.929 . S
H314 C287 0.931 . S
H315 C288 0.930 . S
H316 C293 0.929 . S
H317 C294 0.929 . S
H318 C296 0.931 . S
H319 C297 0.930 . S
Pr320 C322 2.880 . S
Pr320 O340 2.562 . S
Pr320 O341 2.490 . S
Pr320 O342 2.695 1_556 S
Pr320 O343 2.512 1_556 S
Pr320 O345 2.437 . S
Pr320 O348 2.436 . S
Pr320 O350 2.438 . S
Pr321 C331 2.880 1_556 S
Pr321 O342 2.436 1_556 S
Pr321 O344 2.438 . S
Pr321 O346 2.562 1_556 S
Pr321 O347 2.490 . S
Pr321 O348 2.695 . S
Pr321 O349 2.512 . S
Pr321 O351 2.437 . S
C322 Pr320 2.880 . S
C322 C323 1.491 . S
C322 O340 1.254 . S
C322 O341 1.225 . S
C323 C322 1.491 . S
C323 C324 1.392 . S
C323 C328 1.356 . S
C324 C323 1.392 . S
C324 C325 1.368 . S
C324 H352 0.929 1_556 S
C325 C324 1.368 . S
C325 C326 1.386 . S
C325 H353 0.929 . S
C326 C325 1.386 . S
C326 C327 1.373 . S
C327 C326 1.373 . S
C327 C328 1.409 . S
C327 H354 0.931 . S
C328 C323 1.356 . S
C328 C327 1.409 . S
C328 H355 0.930 . S
C329 O342 1.270 . S
C329 O343 1.248 . S
C330 O344 1.267 . S
C330 O345 1.278 . S
C331 Pr321 2.880 1_554 S
C331 C332 1.491 . S
C331 O346 1.254 . S
C331 O347 1.225 1_554 S
C332 C331 1.491 . S
C332 C333 1.392 1_554 S
C332 C337 1.356 . S
C333 C332 1.392 1_556 S
C333 C334 1.368 . S
C333 H356 0.929 . S
C334 C333 1.368 . S
C334 C335 1.386 1_556 S
C334 H357 0.929 . S
C335 C334 1.386 1_554 S
C335 C336 1.373 . S
C336 C335 1.373 . S
C336 C337 1.409 . S
C336 H358 0.931 . S
C337 C332 1.356 . S
C337 C336 1.409 . S
C337 H359 0.930 . S
C338 O348 1.270 . S
C338 O349 1.248 . S
C339 O350 1.267 . S
C339 O351 1.278 . S
O340 Pr320 2.562 . S
O340 C322 1.254 . S
O341 Pr320 2.490 . S
O341 C322 1.225 . S
O342 Pr320 2.695 1_554 S
O342 Pr321 2.436 1_554 S
O342 C329 1.270 . S
O343 Pr320 2.512 1_554 S
O343 C329 1.248 . S
O344 Pr321 2.438 . S
O344 C330 1.267 . S
O345 Pr320 2.437 . S
O345 C330 1.278 . S
O346 Pr321 2.562 1_554 S
O346 C331 1.254 . S
O347 Pr321 2.490 . S
O347 C331 1.225 1_556 S
O348 Pr320 2.436 . S
O348 Pr321 2.695 . S
O348 C338 1.270 . S
O349 Pr321 2.512 . S
O349 C338 1.248 . S
O350 Pr320 2.438 . S
O350 C339 1.267 . S
O351 Pr321 2.437 . S
O351 C339 1.278 . S
H352 C324 0.929 1_554 S
H353 C325 0.929 . S
H354 C327 0.931 . S
H355 C328 0.930 . S
H356 C333 0.929 . S
H357 C334 0.929 . S
H358 C336 0.931 . S
H359 C337 0.930 . S
C6 C286 3.797 1_554 S
C50 C330 4.196 . S
C86 C250 2.651 . S
C170 C90 5.249 1_556 S
C210 C10 4.958 . S
C46 C130 3.854 1_556 S
C290 C206 5.073 . S
C326 C126 3.884 . S
C166 C246 4.384 1_554 S
C95 C19 4.166 . S
C55 C15 3.360 1_455 S
C59 C99 5.881 1_554 S
C135 C219 2.841 1_556 S
C139 C175 2.979 . S
C179 C215 2.910 1_554 S
C335 C259 4.036 . S
C295 C255 2.770 . S
C339 C299 3.959 1_556 S
C18 C9 1.516 . S
C49 C58 1.314 . S
C98 C89 1.268 . S
C138 C129 1.709 . S
C178 C169 1.930 . S
C218 C209 1.206 . S
C258 C249 1.714 . S
C298 C289 1.545 . S
C338 C329 1.554 . S
