# Generated by pormake.
# Topology lcy-e, (6)-cn, num edge types: 1
# Building blocks:
#     Node 0, Type 0, BuildingBlock: VOLQOD_clean_sbu_1, # of connection points: 6
#     Node 1, Type 0, BuildingBlock: VOLQOD_clean_sbu_1, # of connection points: 6
#     Node 2, Type 0, BuildingBlock: VOLQOD_clean_sbu_1, # of connection points: 6
#     Node 3, Type 0, BuildingBlock: VOLQOD_clean_sbu_1, # of connection points: 6
#     Node 4, Type 0, BuildingBlock: VOLQOD_clean_sbu_1, # of connection points: 6
#     Node 5, Type 0, BuildingBlock: VOLQOD_clean_sbu_1, # of connection points: 6
#     Node 6, Type 0, BuildingBlock: VOLQOD_clean_sbu_1, # of connection points: 6
#     Node 7, Type 0, BuildingBlock: VOLQOD_clean_sbu_1, # of connection points: 6
#     Node 8, Type 0, BuildingBlock: VOLQOD_clean_sbu_1, # of connection points: 6
#     Node 9, Type 0, BuildingBlock: VOLQOD_clean_sbu_1, # of connection points: 6
#     Node 10, Type 0, BuildingBlock: VOLQOD_clean_sbu_1, # of connection points: 6
#     Node 11, Type 0, BuildingBlock: VOLQOD_clean_sbu_1, # of connection points: 6
#     Edge 12, Type (0, 0), BuildingBlock: KIFKEQ_clean_linker_1, # of connection points: 2
#     Edge 13, Type (0, 0), BuildingBlock: KIFKEQ_clean_linker_1, # of connection points: 2
#     Edge 14, Type (0, 0), BuildingBlock: KIFKEQ_clean_linker_1, # of connection points: 2
#     Edge 15, Type (0, 0), BuildingBlock: KIFKEQ_clean_linker_1, # of connection points: 2
#     Edge 16, Type (0, 0), BuildingBlock: KIFKEQ_clean_linker_1, # of connection points: 2
#     Edge 17, Type (0, 0), BuildingBlock: KIFKEQ_clean_linker_1, # of connection points: 2
#     Edge 18, Type (0, 0), BuildingBlock: KIFKEQ_clean_linker_1, # of connection points: 2
#     Edge 19, Type (0, 0), BuildingBlock: KIFKEQ_clean_linker_1, # of connection points: 2
#     Edge 20, Type (0, 0), BuildingBlock: KIFKEQ_clean_linker_1, # of connection points: 2
#     Edge 21, Type (0, 0), BuildingBlock: KIFKEQ_clean_linker_1, # of connection points: 2
#     Edge 22, Type (0, 0), BuildingBlock: KIFKEQ_clean_linker_1, # of connection points: 2
#     Edge 23, Type (0, 0), BuildingBlock: KIFKEQ_clean_linker_1, # of connection points: 2
#     Edge 24, Type (0, 0), BuildingBlock: KIFKEQ_clean_linker_1, # of connection points: 2
#     Edge 25, Type (0, 0), BuildingBlock: KIFKEQ_clean_linker_1, # of connection points: 2
#     Edge 26, Type (0, 0), BuildingBlock: KIFKEQ_clean_linker_1, # of connection points: 2
#     Edge 27, Type (0, 0), BuildingBlock: KIFKEQ_clean_linker_1, # of connection points: 2
#     Edge 28, Type (0, 0), BuildingBlock: KIFKEQ_clean_linker_1, # of connection points: 2
#     Edge 29, Type (0, 0), BuildingBlock: KIFKEQ_clean_linker_1, # of connection points: 2
#     Edge 30, Type (0, 0), BuildingBlock: KIFKEQ_clean_linker_1, # of connection points: 2
#     Edge 31, Type (0, 0), BuildingBlock: KIFKEQ_clean_linker_1, # of connection points: 2
#     Edge 32, Type (0, 0), BuildingBlock: KIFKEQ_clean_linker_1, # of connection points: 2
#     Edge 33, Type (0, 0), BuildingBlock: KIFKEQ_clean_linker_1, # of connection points: 2
#     Edge 34, Type (0, 0), BuildingBlock: KIFKEQ_clean_linker_1, # of connection points: 2
#     Edge 35, Type (0, 0), BuildingBlock: KIFKEQ_clean_linker_1, # of connection points: 2
#     Edge 36, Type (0, 0), BuildingBlock: KIFKEQ_clean_linker_1, # of connection points: 2
#     Edge 37, Type (0, 0), BuildingBlock: KIFKEQ_clean_linker_1, # of connection points: 2
#     Edge 38, Type (0, 0), BuildingBlock: KIFKEQ_clean_linker_1, # of connection points: 2
#     Edge 39, Type (0, 0), BuildingBlock: KIFKEQ_clean_linker_1, # of connection points: 2
#     Edge 40, Type (0, 0), BuildingBlock: KIFKEQ_clean_linker_1, # of connection points: 2
#     Edge 41, Type (0, 0), BuildingBlock: KIFKEQ_clean_linker_1, # of connection points: 2
#     Edge 42, Type (0, 0), BuildingBlock: KIFKEQ_clean_linker_1, # of connection points: 2
#     Edge 43, Type (0, 0), BuildingBlock: KIFKEQ_clean_linker_1, # of connection points: 2
#     Edge 44, Type (0, 0), BuildingBlock: KIFKEQ_clean_linker_1, # of connection points: 2
#     Edge 45, Type (0, 0), BuildingBlock: KIFKEQ_clean_linker_1, # of connection points: 2
#     Edge 46, Type (0, 0), BuildingBlock: KIFKEQ_clean_linker_1, # of connection points: 2
#     Edge 47, Type (0, 0), BuildingBlock: KIFKEQ_clean_linker_1, # of connection points: 2
# Relax obj value: 0.403
# Max RMSD: 0.291
# Mean RMSD: 0.282
data_MOF--net-lcy-e--node1-VOLQOD_clean_sbu_1--edge1-KIFKEQ_clean_linker_1
_symmetry_space_group_name_H-M    P1
_symmetry_Int_Tables_number       1
_symmetry_cell_setting            triclinic
loop_
_symmetry_equiv_pos_as_xyz
'x, y, z'
_cell_length_a     38.403741
_cell_length_b     38.440168
_cell_length_c     38.590179
_cell_angle_alpha  90.334651
_cell_angle_beta   90.468118
_cell_angle_gamma 90.368746
loop_
_atom_site_label
_atom_site_type_symbol
_atom_site_fract_x
_atom_site_fract_y
_atom_site_fract_z
_atom_type_partial_charge
O0 O 0.24156 0.15171 0.44621 0.0
Zn1 Zn 0.20241 0.16079 0.4797 0.0
O2 O 0.15947 0.16716 0.45338 0.0
Zn3 Zn 0.13805 0.21111 0.46349 0.0
Zn4 Zn 0.1661 0.16184 0.40435 0.0
Zn5 Zn 0.12749 0.1321 0.46664 0.0
O6 O 0.0966 0.20566 0.49459 0.0
O7 O 0.09798 0.1491 0.5056 0.0
O8 O 0.21476 0.20493 0.50677 0.0
O9 O 0.17172 0.23989 0.49073 0.0
O10 O 0.12762 0.23807 0.42027 0.0
O11 O 0.15763 0.20766 0.38162 0.0
O12 O 0.13108 0.12914 0.38205 0.0
O13 O 0.19818 0.11796 0.51068 0.0
O14 O 0.09703 0.11787 0.42686 0.0
O15 O 0.15358 0.0915 0.48403 0.0
C16 C 0.24221 0.14547 0.41373 0.0
C17 C 0.08641 0.1794 0.51186 0.0
C18 C 0.1401 0.23441 0.38999 0.0
C19 C 0.2001 0.23467 0.50705 0.0
C20 C 0.1032 0.11649 0.39455 0.0
C21 C 0.17937 0.09099 0.50488 0.0
O22 O 0.21485 0.1469 0.39489 0.0
O23 O 0.04281 0.75341 0.6575 0.0
Zn24 Zn 0.0015 0.78569 0.66075 0.0
O25 O 0.01819 0.83321 0.66817 0.0
Zn26 Zn -0.00134 0.8537 0.70921 0.0
Zn27 Zn 0.06804 0.83582 0.66934 0.0
Zn28 Zn 0.00403 0.86083 0.6301 0.0
O29 O 0.95797 0.88443 0.69738 0.0
O30 O 0.9579 0.88331 0.63983 0.0
O31 O 0.97426 0.76935 0.70297 0.0
O32 O 0.97948 0.81543 0.73781 0.0
O33 O 0.03521 0.87806 0.73848 0.0
O34 O 0.08334 0.85859 0.71339 0.0
O35 O 0.08776 0.8667 0.63265 0.0
O36 O 0.97422 0.78249 0.61498 0.0
O37 O 0.0406 0.89655 0.6183 0.0
O38 O -0.00366 0.82964 0.58981 0.0
C39 C 0.07556 0.75817 0.66094 0.0
C40 C 0.94381 0.89177 0.66837 0.0
C41 C 0.06826 0.8757 0.73721 0.0
C42 C 0.96996 0.78408 0.73239 0.0
C43 C 0.07354 0.89273 0.61826 0.0
C44 C 0.97995 0.80081 0.58806 0.0
O45 O 0.08848 0.78838 0.66607 0.0
O46 O 0.39106 0.85257 0.95157 0.0
Zn47 Zn 0.36076 0.82084 0.98063 0.0
O48 O 0.31282 0.83633 0.97768 0.0
Zn49 Zn 0.29049 0.83471 0.02239 0.0
Zn50 Zn 0.31045 0.88212 0.95853 0.0
Zn51 Zn 0.28899 0.8072 0.94545 0.0
O52 O 0.25068 0.79899 0.02266 0.0
O53 O 0.25923 0.77456 0.97108 0.0
O54 O 0.37656 0.81709 0.0313 0.0
O55 O 0.32522 0.81847 0.05769 0.0
O56 O 0.27912 0.88396 0.03844 0.0
O57 O 0.30509 0.91534 -0.00255 0.0
O58 O 0.26889 0.88848 0.92739 0.0
O59 O 0.36575 0.77418 0.95621 0.0
O60 O 0.2559 0.83345 0.91559 0.0
O61 O 0.32272 0.77962 0.91766 0.0
C62 C 0.38368 0.87761 0.93124 0.0
C63 C 0.24409 0.77517 0.00024 0.0
C64 C 0.29002 0.91307 0.02667 0.0
C65 C 0.3581 0.81448 0.05861 0.0
C66 C 0.2501 0.86574 0.91207 0.0
C67 C 0.35074 0.76525 0.92788 0.0
O68 O 0.35347 0.89114 0.93076 0.0
O69 O 0.43409 0.09718 0.16088 0.0
Zn70 Zn 0.46974 0.12704 0.18582 0.0
O71 O 0.47505 0.17169 0.1629 0.0
Zn72 Zn 0.52336 0.18149 0.1518 0.0
Zn73 Zn 0.44827 0.17119 0.1208 0.0
Zn74 Zn 0.45732 0.2081 0.19176 0.0
O75 O 0.54321 0.22171 0.18058 0.0
O76 O 0.49656 0.23504 0.21149 0.0
O77 O 0.51583 0.10211 0.18967 0.0
O78 O 0.55146 0.14078 0.16588 0.0
O79 O 0.53099 0.18392 0.09991 0.0
O80 O 0.4801 0.16279 0.08134 0.0
O81 O 0.42488 0.21672 0.11274 0.0
O82 O 0.4493 0.13366 0.23311 0.0
O83 O 0.42876 0.24175 0.16457 0.0
O84 O 0.43133 0.18854 0.23217 0.0
C85 C 0.4114 0.10449 0.13782 0.0
C86 C 0.52862 0.23905 0.20468 0.0
C87 C 0.51169 0.17117 0.07584 0.0
C88 C 0.54614 0.11152 0.18011 0.0
C89 C 0.41897 0.24216 0.133 0.0
C90 C 0.4329 0.15891 0.24673 0.0
O91 O 0.4123 0.13323 0.12161 0.0
O92 O 0.70964 0.25567 0.48393 0.0
Zn93 Zn 0.66476 0.27775 0.49573 0.0
O94 O 0.67392 0.3247 0.51014 0.0
Zn95 Zn 0.67288 0.32554 0.55968 0.0
Zn96 Zn 0.71868 0.3404 0.49154 0.0
Zn97 Zn 0.63678 0.35311 0.49313 0.0
O98 O 0.63142 0.35108 0.57745 0.0
O99 O 0.60191 0.36563 0.53008 0.0
O100 O 0.64397 0.24882 0.5337 0.0
O101 O 0.66715 0.2774 0.57852 0.0
O102 O 0.71613 0.3482 0.57799 0.0
O103 O 0.74917 0.35696 0.53157 0.0
O104 O 0.71109 0.38244 0.45966 0.0
O105 O 0.63621 0.2773 0.45193 0.0
O106 O 0.65691 0.39648 0.47466 0.0
O107 O 0.61477 0.33076 0.45124 0.0
C108 C 0.73809 0.26696 0.47158 0.0
C109 C 0.60475 0.36421 0.56298 0.0
C110 C 0.74414 0.35905 0.56415 0.0
C111 C 0.65148 0.25083 0.56588 0.0
C112 C 0.68533 0.40336 0.45946 0.0
C113 C 0.61825 0.30088 0.43734 0.0
O114 O 0.74447 0.2995 0.46867 0.0
O115 O 0.95292 0.22785 0.83184 0.0
Zn116 Zn 0.99116 0.26155 0.81833 0.0
O117 O 0.97226 0.30832 0.81605 0.0
Zn118 Zn 0.98796 0.3319 0.7758 0.0
Zn119 Zn 0.92299 0.3083 0.81706 0.0
Zn120 Zn 0.98901 0.33254 0.85611 0.0
O121 O 0.03019 0.36091 0.78719 0.0
O122 O 0.03437 0.35736 0.84454 0.0
O123 O 0.00859 0.24659 0.77093 0.0
O124 O 0.00403 0.29641 0.74232 0.0
O125 O 0.94861 0.35666 0.7514 0.0
O126 O 0.90461 0.32486 0.7716 0.0
O127 O 0.90533 0.34276 0.85138 0.0
O128 O 0.02944 0.26207 0.85539 0.0
O129 O 0.95293 0.36518 0.87587 0.0
O130 O 2e-05 0.29625 0.89087 0.0
C131 C 0.92014 0.23182 0.835 0.0
C132 C 0.04673 0.3668 0.81543 0.0
C133 C 0.91674 0.34703 0.75032 0.0
C134 C 0.01139 0.26424 0.74318 0.0
C135 C 0.91993 0.36443 0.87192 0.0
C136 C 0.02451 0.27487 0.88553 0.0
O137 O 0.9055 0.26096 0.82954 0.0
O138 O 0.88255 0.64455 0.04863 0.0
Zn139 Zn 0.85181 0.67373 0.01822 0.0
O140 O 0.80542 0.65275 0.0136 0.0
Zn141 Zn 0.79546 0.64101 0.96523 0.0
Zn142 Zn 0.80257 0.61187 0.04282 0.0
Zn143 Zn 0.77073 0.68493 0.02898 0.0
O144 O 0.7556 0.66943 0.94486 0.0
O145 O 0.74488 0.70444 0.9894 0.0
O146 O 0.87415 0.681 0.97136 0.0
O147 O 0.83572 0.65543 0.93613 0.0
O148 O 0.79137 0.58889 0.95892 0.0
O149 O 0.80208 0.56966 0.01221 0.0
O150 O 0.76001 0.61191 0.0735 0.0
O151 O 0.84952 0.71926 0.04401 0.0
O152 O 0.73622 0.66264 0.06021 0.0
O153 O 0.793 0.72452 0.05445 0.0
C154 C 0.8756 0.62127 0.07094 0.0
C155 C 0.74003 0.69554 0.95799 0.0
C156 C 0.79701 0.56402 0.97998 0.0
C157 C 0.86442 0.67145 0.94106 0.0
C158 C 0.73569 0.63406 0.07657 0.0
C159 C 0.82422 0.73541 0.05764 0.0
O160 O 0.84522 0.608 0.07311 0.0
O161 O 0.5441 0.60199 0.34475 0.0
Zn162 Zn 0.51241 0.63308 0.31712 0.0
O163 O 0.50833 0.67767 0.34071 0.0
Zn164 Zn 0.45982 0.69169 0.34422 0.0
Zn165 Zn 0.53047 0.67682 0.38577 0.0
Zn166 Zn 0.53308 0.7108 0.31368 0.0
O167 O 0.44846 0.73143 0.31029 0.0
O168 O 0.49939 0.73543 0.28365 0.0
O169 O 0.46498 0.61088 0.30834 0.0
O170 O 0.42989 0.65259 0.32688 0.0
O171 O 0.44562 0.69647 0.39512 0.0
O172 O 0.49304 0.67565 0.42124 0.0
O173 O 0.55976 0.72003 0.39481 0.0
O174 O 0.53773 0.63799 0.27182 0.0
O175 O 0.55779 0.7458 0.34353 0.0
O176 O 0.56698 0.68702 0.28227 0.0
C177 C 0.56254 0.6064 0.37207 0.0
C178 C 0.46725 0.74289 0.28552 0.0
C179 C 0.46143 0.68551 0.42224 0.0
C180 C 0.43446 0.62262 0.31364 0.0
C181 C 0.56711 0.74558 0.37524 0.0
C182 C 0.56233 0.65912 0.26482 0.0
O183 O 0.56057 0.6341 0.39029 0.0
O184 O 0.14588 0.44897 0.21186 0.0
Zn185 Zn 0.15625 0.48878 0.17908 0.0
O186 O 0.16794 0.47024 0.13339 0.0
Zn187 Zn 0.21103 0.48917 0.11687 0.0
Zn188 Zn 0.17121 0.42088 0.13424 0.0
Zn189 Zn 0.13218 0.48161 0.10077 0.0
O190 O 0.20248 0.52737 0.08283 0.0
O191 O 0.14489 0.52598 0.07652 0.0
O192 O 0.19784 0.51561 0.19974 0.0
O193 O 0.23583 0.51063 0.15686 0.0
O194 O 0.24299 0.45229 0.0985 0.0
O195 O 0.21927 0.40596 0.12358 0.0
O196 O 0.14344 0.39842 0.09697 0.0
O197 O 0.11125 0.51675 0.17528 0.0
O198 O 0.12323 0.44242 0.0661 0.0
O199 O 0.08934 0.49207 0.12726 0.0
C200 C 0.14617 0.41607 0.20755 0.0
C201 C 0.17434 0.54015 0.07093 0.0
C202 C 0.24357 0.42019 0.10639 0.0
C203 C 0.22831 0.52033 0.18744 0.0
C204 C 0.12803 0.4099 0.07023 0.0
C205 C 0.0857 0.5102 0.15473 0.0
O206 O 0.15542 0.40226 0.1791 0.0
O207 O 0.72394 0.97112 0.76377 0.0
Zn208 Zn 0.70494 0.98246 0.8098 0.0
O209 O 0.65811 -0.00132 0.80235 0.0
Zn210 Zn 0.65773 0.04833 0.80723 0.0
Zn211 Zn 0.64025 0.98374 0.7565 0.0
Zn212 Zn 0.63026 0.98005 0.83871 0.0
O213 O 0.63084 0.0642 0.84838 0.0
O214 O 0.61905 0.0151 0.87592 0.0
O215 O 0.73692 0.01971 0.82996 0.0
O216 O 0.70573 0.06606 0.81595 0.0
O217 O 0.63864 0.07055 0.7648 0.0
O218 O 0.62801 0.02652 0.7285 0.0
O219 O 0.59481 0.95538 0.76183 0.0
O220 O 0.70515 0.93777 0.83711 0.0
O221 O 0.58584 0.9648 0.81819 0.0
O222 O 0.65148 0.93678 0.8579 0.0
C223 C 0.71164 0.9612 0.73467 0.0
C224 C 0.61892 0.0482 0.87449 0.0
C225 C 0.62835 0.05897 0.73548 0.0
C226 C 0.7338 0.05258 0.82714 0.0
C227 C 0.57558 0.95391 0.7887 0.0
C228 C 0.68118 0.92281 0.85429 0.0
O229 O 0.67892 0.9602 0.72837 0.0
O230 O 0.84719 0.93161 0.40521 0.0
Zn231 Zn 0.81315 0.96246 0.37986 0.0
O232 O 0.82269 0.95884 0.33042 0.0
Zn233 Zn 0.8258 0.00406 0.3092 0.0
Zn234 Zn 0.86519 0.93411 0.32129 0.0
Zn235 Zn 0.78588 0.93229 0.30971 0.0
O236 O 0.78612 0.01135 0.27517 0.0
O237 O 0.75442 0.96359 0.2837 0.0
O238 O 0.81467 0.01319 0.39615 0.0
O239 O 0.82112 0.04058 0.34596 0.0
O240 O 0.87367 0.01294 0.28964 0.0
O241 O 0.90309 0.96823 0.31114 0.0
O242 O 0.86074 0.9026 0.2795 0.0
O243 O 0.76628 0.94084 0.39196 0.0
O244 O 0.80333 0.89847 0.27509 0.0
O245 O 0.75833 0.90742 0.34528 0.0
C246 C 0.8689 0.90877 0.39498 0.0
C247 C 0.75849 0.99334 0.27002 0.0
C248 C 0.90238 -0.00231 0.29621 0.0
C249 C 0.81756 0.04123 0.37872 0.0
C250 C 0.83353 0.8902 0.26488 0.0
C251 C 0.75076 0.91596 0.37615 0.0
O252 O 0.87732 0.90591 0.3632 0.0
O253 O 0.3278 0.54864 0.62057 0.0
Zn254 Zn 0.29992 0.51858 0.65338 0.0
O255 O 0.32499 0.51227 0.69735 0.0
Zn256 Zn 0.33289 0.46304 0.70649 0.0
Zn257 Zn 0.36869 0.5376 0.69588 0.0
Zn258 Zn 0.29856 0.53093 0.73516 0.0
O259 O 0.30448 0.4453 0.74751 0.0
O260 O 0.27576 0.49316 0.76174 0.0
O261 O 0.28896 0.47215 0.63025 0.0
O262 O 0.31371 0.43531 0.6669 0.0
O263 O 0.38462 0.4519 0.70657 0.0
O264 O 0.40686 0.50306 0.69118 0.0
O265 O 0.37742 0.56661 0.73893 0.0
O266 O 0.25573 0.54564 0.66131 0.0
O267 O 0.32833 0.5588 0.76787 0.0
O268 O 0.26061 0.56105 0.71675 0.0
C269 C 0.354 0.56867 0.62546 0.0
C270 C 0.28105 0.46075 0.76505 0.0
C271 C 0.41032 0.47066 0.6969 0.0
C272 C 0.2969 0.44124 0.63907 0.0
C273 C 0.35884 0.57161 0.76566 0.0
C274 C 0.24514 0.5628 0.68751 0.0
O275 O 0.37083 0.56869 0.65405 0.0
H276 H 0.17135 0.29807 0.51916 0.0
H277 H 0.26491 0.2388 0.5378 0.0
H278 H 0.19697 0.34765 0.54907 0.0
H279 H 0.29103 0.28918 0.56726 0.0
H280 H 0.30609 0.37237 0.65295 0.0
H281 H 0.28466 0.32258 0.62007 0.0
H282 H 0.24147 0.39154 0.54308 0.0
H283 H 0.26217 0.44171 0.57658 0.0
C284 C 0.19754 0.29563 0.52947 0.0
C285 C 0.21609 0.26437 0.52606 0.0
C286 C 0.21234 0.32428 0.54639 0.0
C287 C 0.24617 0.32255 0.56028 0.0
C288 C 0.26479 0.29127 0.55705 0.0
C289 C 0.24987 0.26242 0.54014 0.0
C290 C 0.29219 0.37705 0.62891 0.0
C291 C 0.2856 0.41114 0.61755 0.0
C292 C 0.28012 0.34838 0.60992 0.0
C293 C 0.26124 0.35303 0.57902 0.0
C294 C 0.25547 0.38708 0.5671 0.0
C295 C 0.26746 0.41584 0.5862 0.0
H296 H 0.72716 0.89839 0.70517 0.0
H297 H 0.75574 0.00704 0.70685 0.0
H298 H 0.7835 0.88436 0.67885 0.0
H299 H 0.81179 0.99316 0.68102 0.0
H300 H 0.91655 0.93621 0.7158 0.0
H301 H 0.85626 0.95549 0.71977 0.0
H302 H 0.83054 0.89908 0.62589 0.0
H303 H 0.89143 0.88048 0.62125 0.0
C304 C 0.7447 0.91934 0.69818 0.0
C305 C 0.73727 0.95375 0.70771 0.0
C306 C 0.77694 0.91137 0.68336 0.0
C307 C 0.80197 0.93773 0.67837 0.0
C308 C 0.79295 0.97244 0.68476 0.0
C309 C 0.76085 0.98037 0.69928 0.0
C310 C 0.89823 0.92853 0.69562 0.0
C311 C 0.90865 0.90704 0.66817 0.0
C312 C 0.8638 0.9396 0.69782 0.0
C313 C 0.83892 0.92879 0.67304 0.0
C314 C 0.84935 0.90781 0.64518 0.0
C315 C 0.88412 0.89741 0.64249 0.0
H316 H 0.2178 0.7271 0.95513 0.0
H317 H 0.21933 0.75501 0.06391 0.0
H318 H 0.19301 0.67065 0.96916 0.0
H319 H 0.19349 0.69821 0.07763 0.0
H320 H 0.22537 0.5654 0.02966 0.0
H321 H 0.23266 0.62542 0.01026 0.0
H322 H 0.13558 0.65324 0.05826 0.0
H323 H 0.12756 0.59271 0.07681 0.0
C324 C 0.21204 0.7216 0.98199 0.0
C325 C 0.22129 0.74528 0.00855 0.0
C326 C 0.19772 0.6893 0.98987 0.0
C327 C 0.19176 0.68025 0.02437 0.0
C328 C 0.19783 0.70492 0.05078 0.0
C329 C 0.21261 0.73731 0.04293 0.0
C330 C 0.2052 0.58413 0.03531 0.0
C331 C 0.17585 0.57451 0.05447 0.0
C332 C 0.20936 0.61835 0.02429 0.0
C333 C 0.18467 0.64365 0.03297 0.0
C334 C 0.15485 0.634 0.05135 0.0
C335 C 0.15021 0.59946 0.06163 0.0
H336 H 0.55055 0.05571 0.22372 0.0
H337 H 0.61064 0.11733 0.15204 0.0
H338 H 0.60316 0.02446 0.24031 0.0
H339 H 0.66286 0.0857 0.16809 0.0
H340 H 0.69967 0.95949 0.24803 0.0
H341 H 0.64837 0.9846 0.22086 0.0
H342 H 0.69931 0.08516 0.21996 0.0
H343 H 0.75097 0.05996 0.24657 0.0
C344 C 0.57481 0.06211 0.21105 0.0
C345 C 0.57655 0.08928 0.18698 0.0
C346 C 0.60492 0.04415 0.22043 0.0
C347 C 0.6372 0.05295 0.20574 0.0
C348 C 0.6385 0.07885 0.18034 0.0
C349 C 0.60852 0.09686 0.1711 0.0
C350 C 0.70013 0.98689 0.24168 0.0
C351 C 0.72929 0.00785 0.24977 0.0
C352 C 0.67065 0.00126 0.22625 0.0
C353 C 0.66969 0.03686 0.2186 0.0
C354 C 0.6994 0.05752 0.22526 0.0
C355 C 0.72896 0.04313 0.24063 0.0
H356 H 0.76004 0.25421 0.40591 0.0
H357 H 0.76956 0.21893 0.5113 0.0
H358 H 0.78625 0.20024 0.38541 0.0
H359 H 0.7975 0.16572 0.4914 0.0
H360 H 0.84189 0.10342 0.35513 0.0
H361 H 0.83252 0.16103 0.37967 0.0
H362 H 0.77682 0.11467 0.46491 0.0
H363 H 0.78762 0.05702 0.44101 0.0
C364 C 0.76929 0.23552 0.42472 0.0
C365 C 0.76311 0.24063 0.46009 0.0
C366 C 0.78424 0.20446 0.41308 0.0
C367 C 0.79353 0.17813 0.43671 0.0
C368 C 0.78987 0.18485 0.47236 0.0
C369 C 0.77441 0.21556 0.48386 0.0
C370 C 0.82805 0.10554 0.3794 0.0
C371 C 0.81522 0.07565 0.39601 0.0
C372 C 0.8225 0.13865 0.39338 0.0
C373 C 0.80358 0.14279 0.42414 0.0
C374 C 0.79198 0.11269 0.44146 0.0
C375 C 0.79796 0.07951 0.42769 0.0
H376 H 0.0911 0.38593 0.86899 0.0
H377 H 0.08487 0.37765 0.75727 0.0
H378 H 0.15251 0.40355 0.86454 0.0
H379 H 0.14568 0.3944 0.7532 0.0
H380 H 0.24071 0.48296 0.81856 0.0
H381 H 0.18558 0.45702 0.83664 0.0
H382 H 0.20506 0.3678 0.77145 0.0
H383 H 0.26035 0.39353 0.75348 0.0
C384 C 0.10264 0.38807 0.84357 0.0
C385 C 0.08288 0.3806 0.81349 0.0
C386 C 0.13781 0.39789 0.84109 0.0
C387 C 0.15396 0.39965 0.80857 0.0
C388 C 0.13412 0.39252 0.77865 0.0
C389 C 0.09906 0.38335 0.78103 0.0
C390 C 0.23385 0.4572 0.80908 0.0
C391 C 0.25468 0.44046 0.78427 0.0
C392 C 0.20228 0.44238 0.81947 0.0
C393 C 0.19081 0.41077 0.80491 0.0
C394 C 0.21318 0.39246 0.78272 0.0
C395 C 0.24499 0.40704 0.77269 0.0
H396 H 0.63302 0.87992 0.8839 0.0
H397 H 0.74097 0.88422 0.85314 0.0
H398 H 0.64042 0.81996 0.90206 0.0
H399 H 0.74856 0.82441 0.87225 0.0
H400 H 0.7513 0.7106 0.8898 0.0
H401 H 0.73291 0.76371 0.86038 0.0
H402 H 0.66952 0.79064 0.94847 0.0
H403 H 0.68721 0.73758 0.97722 0.0
C404 C 0.65846 0.86822 0.8813 0.0
C405 C 0.68653 0.88708 0.86738 0.0
C406 C 0.66263 0.83375 0.89161 0.0
C407 C 0.69501 0.81729 0.88844 0.0
C408 C 0.72307 0.83607 0.8744 0.0
C409 C 0.71886 0.87055 0.86392 0.0
C410 C 0.73231 0.72719 0.90215 0.0
C411 C 0.72088 0.72017 0.93588 0.0
C412 C 0.72223 0.75787 0.88559 0.0
C413 C 0.70038 0.78178 0.90242 0.0
C414 C 0.68633 0.77287 0.9347 0.0
C415 C 0.69648 0.74241 0.95123 0.0
H416 H 0.36611 0.63783 0.32521 0.0
H417 H 0.43226 0.56275 0.27466 0.0
H418 H 0.31512 0.61107 0.29805 0.0
H419 H 0.38098 0.53561 0.248 0.0
H420 H 0.29391 0.5365 0.16685 0.0
H421 H 0.34244 0.55705 0.20177 0.0
H422 H 0.2771 0.55846 0.29232 0.0
H423 H 0.22766 0.53778 0.25697 0.0
C424 C 0.36977 0.61523 0.30878 0.0
C425 C 0.4034 0.60278 0.30164 0.0
C426 C 0.34044 0.59977 0.29342 0.0
C427 C 0.34408 0.57158 0.27053 0.0
C428 C 0.37746 0.55776 0.26507 0.0
C429 C 0.40683 0.57317 0.2805 0.0
C430 C 0.28961 0.54114 0.1942 0.0
C431 C 0.25676 0.53535 0.2091 0.0
C432 C 0.31767 0.55261 0.2143 0.0
C433 C 0.3138 0.55875 0.2499 0.0
C434 C 0.28085 0.55382 0.2649 0.0
C435 C 0.25256 0.54209 0.24467 0.0
H436 H 0.50737 0.29436 0.24257 0.0
H437 H 0.59588 0.22795 0.22525 0.0
H438 H 0.5322 0.31319 0.29761 0.0
H439 H 0.62143 0.24756 0.28027 0.0
H440 H 0.61856 0.2404 0.39965 0.0
H441 H 0.6033 0.23264 0.33876 0.0
H442 H 0.5764 0.3414 0.33206 0.0
H443 H 0.59078 0.34903 0.39319 0.0
C444 C 0.53288 0.28488 0.24994 0.0
C445 C 0.54947 0.25933 0.22994 0.0
C446 C 0.54714 0.29567 0.28155 0.0
C447 C 0.57835 0.28116 0.29374 0.0
C448 C 0.59687 0.25851 0.2719 0.0
C449 C 0.58256 0.24773 0.24013 0.0
C450 C 0.60909 0.2626 0.3853 0.0
C451 C 0.60556 0.29523 0.40144 0.0
C452 C 0.6009 0.25829 0.35022 0.0
C453 C 0.58913 0.28654 0.33041 0.0
C454 C 0.5853 0.3191 0.34661 0.0
C455 C 0.59333 0.32339 0.38174 0.0
H456 H 0.08324 0.13871 0.56945 0.0
H457 H 0.04385 0.23407 0.52575 0.0
H458 H 0.06206 0.15611 0.62627 0.0
H459 H 0.02134 0.25078 0.58219 0.0
H460 H 0.04131 0.29563 0.68843 0.0
H461 H 0.05309 0.27109 0.6319 0.0
H462 H 0.01552 0.17084 0.66612 0.0
H463 H 0.00452 0.19558 0.72374 0.0
C464 C 0.06897 0.16283 0.57174 0.0
C465 C 0.06574 0.18539 0.54334 0.0
C466 C 0.05681 0.17278 0.60434 0.0
C467 C 0.0409 0.20526 0.60892 0.0
C468 C 0.03456 0.22609 0.5797 0.0
C469 C 0.04715 0.21642 0.5473 0.0
C470 C 0.03567 0.26829 0.68403 0.0
C471 C 0.0218 0.24755 0.71042 0.0
C472 C 0.04203 0.25429 0.65144 0.0
C473 C 0.03434 0.21922 0.64417 0.0
C474 C 0.02156 0.19801 0.6709 0.0
C475 C 0.01542 0.21208 0.70387 0.0
H476 H 0.95433 0.80946 0.7963 0.0
H477 H 0.95259 0.71447 0.73566 0.0
H478 H 0.93301 0.77807 0.84603 0.0
H479 H 0.93141 0.6827 0.78625 0.0
H480 H 0.85111 0.6551 0.8732 0.0
H481 H 0.8789 0.6792 0.82223 0.0
H482 H 0.95209 0.73492 0.88793 0.0
H483 H 0.92379 0.71144 0.93916 0.0
C484 C 0.94949 0.78179 0.79353 0.0
C485 C 0.95523 0.7645 0.76187 0.0
C486 C 0.93757 0.76371 0.82228 0.0
C487 C 0.93103 0.7278 0.82028 0.0
C488 C 0.93623 0.71041 0.78856 0.0
C489 C 0.94829 0.72859 0.7596 0.0
C490 C 0.87343 0.67214 0.87687 0.0
C491 C 0.88487 0.68178 0.91036 0.0
C492 C 0.88949 0.68577 0.84755 0.0
C493 C 0.91737 0.70933 0.85104 0.0
C494 C 0.93018 0.71733 0.88445 0.0
C495 C 0.9141 0.70371 0.91381 0.0
H496 H 0.3992 0.76435 0.2762 0.0
H497 H 0.4993 0.76196 0.2259 0.0
H498 H 0.37289 0.7865 0.22293 0.0
H499 H 0.47308 0.78147 0.17274 0.0
H500 H 0.4233 0.83309 0.08164 0.0
H501 H 0.44863 0.82312 0.13885 0.0
H502 H 0.35535 0.76746 0.16873 0.0
H503 H 0.32952 0.77968 0.11252 0.0
C504 C 0.41564 0.76879 0.25396 0.0
C505 C 0.45133 0.76113 0.25547 0.0
C506 C 0.40051 0.78108 0.22317 0.0
C507 C 0.42062 0.78543 0.19298 0.0
C508 C 0.45656 0.77911 0.1952 0.0
C509 C 0.47169 0.76754 0.22596 0.0
C510 C 0.40835 0.81872 0.10054 0.0
C511 C 0.37456 0.80701 0.09256 0.0
C512 C 0.42284 0.81286 0.13342 0.0
C513 C 0.40422 0.79429 0.15882 0.0
C514 C 0.37037 0.78253 0.15049 0.0
C515 C 0.35564 0.78914 0.11798 0.0
H516 H 0.15886 0.23276 0.32225 0.0
H517 H 0.11042 0.29866 0.39902 0.0
H518 H 0.15396 0.27871 0.27996 0.0
H519 H 0.10493 0.34485 0.35594 0.0
H520 H 0.15209 0.42773 0.27751 0.0
H521 H 0.14476 0.38444 0.32331 0.0
H522 H 0.10967 0.30915 0.24688 0.0
H523 H 0.11797 0.35175 0.20139 0.0
C524 C 0.14682 0.25695 0.33005 0.0
C525 C 0.13507 0.26203 0.36405 0.0
C526 C 0.14375 0.28324 0.30567 0.0
C527 C 0.12876 0.31526 0.31457 0.0
C528 C 0.11668 0.32042 0.34845 0.0
C529 C 0.11968 0.29394 0.37299 0.0
C530 C 0.14223 0.40209 0.27075 0.0
C531 C 0.13632 0.39275 0.23596 0.0
C532 C 0.13791 0.37739 0.29689 0.0
C533 C 0.12732 0.34325 0.28848 0.0
C534 C 0.11874 0.33499 0.25398 0.0
C535 C 0.12344 0.35939 0.22797 0.0
H536 H 0.00842 0.80212 0.52451 0.0
H537 H 0.91129 0.78649 0.57767 0.0
H538 H 0.97702 0.81861 0.47237 0.0
H539 H 0.87941 0.80266 0.52512 0.0
H540 H 0.91342 0.85467 0.38284 0.0
H541 H 0.93568 0.81272 0.42459 0.0
H542 H 0.87755 0.86335 0.50571 0.0
H543 H 0.85486 0.90473 0.46414 0.0
C544 C 0.98024 0.8003 0.52432 0.0
C545 C 0.96219 0.79349 0.55503 0.0
C546 C 0.96216 0.80987 0.49445 0.0
C547 C 0.92575 0.81295 0.49499 0.0
C548 C 0.90756 0.80124 0.52427 0.0
C549 C 0.92573 0.79143 0.55418 0.0
C550 C 0.90526 0.85675 0.40957 0.0
C551 C 0.88275 0.88343 0.42024 0.0
C552 C 0.91786 0.83256 0.4334 0.0
C553 C 0.90816 0.83448 0.46838 0.0
C554 C 0.88494 0.86059 0.47881 0.0
C555 C 0.87238 0.88475 0.45505 0.0
H556 H 0.33858 0.57258 0.83305 0.0
H557 H 0.40644 0.62445 0.76074 0.0
H558 H 0.34936 0.61869 0.87549 0.0
H559 H 0.41683 0.67093 0.80326 0.0
H560 H 0.35232 0.7627 0.85803 0.0
H561 H 0.36726 0.71314 0.82159 0.0
H562 H 0.39518 0.65437 0.91259 0.0
H563 H 0.3809 0.70471 0.94929 0.0
C564 C 0.35648 0.59341 0.82657 0.0
C565 C 0.37122 0.59527 0.79342 0.0
C566 C 0.3629 0.61961 0.85099 0.0
C567 C 0.38375 0.64838 0.84249 0.0
C568 C 0.4006 0.64897 0.81032 0.0
C569 C 0.39465 0.6224 0.78606 0.0
C570 C 0.36245 0.73948 0.87018 0.0
C571 C 0.36517 0.73724 0.90637 0.0
C572 C 0.37131 0.71126 0.84934 0.0
C573 C 0.38239 0.68001 0.86434 0.0
C574 C 0.3868 0.67829 0.9005 0.0
C575 C 0.37867 0.70696 0.92139 0.0
H576 H 0.57972 0.17816 0.05513 0.0
H577 H 0.4788 0.14008 0.02091 0.0
H578 H 0.60639 0.15069 0.00456 0.0
H579 H 0.50562 0.11256 0.97107 0.0
H580 H 0.5745 0.02576 0.92458 0.0
H581 H 0.54857 0.0603 0.97087 0.0
H582 H 0.60441 0.15124 0.93603 0.0
H583 H 0.6302 0.11688 0.88938 0.0
C584 C 0.56315 0.16461 0.03657 0.0
C585 C 0.52719 0.16096 0.04234 0.0
C586 C 0.57843 0.14888 0.00771 0.0
C587 C 0.55804 0.12906 0.98446 0.0
C588 C 0.52192 0.12722 0.98905 0.0
C589 C 0.50661 0.14319 0.01753 0.0
C590 C 0.58135 0.05307 0.92684 0.0
C591 C 0.60426 0.06864 0.90331 0.0
C592 C 0.56636 0.07285 0.95315 0.0
C593 C 0.57439 0.10841 0.95671 0.0
C594 C 0.59787 0.12386 0.93374 0.0
C595 C 0.61246 0.10421 0.90705 0.0
H596 H 0.66392 0.24696 0.63525 0.0
H597 H 0.61781 0.18945 0.54963 0.0
H598 H 0.65042 0.19956 0.67391 0.0
H599 H 0.60348 0.14186 0.58897 0.0
H600 H 0.60417 0.12458 0.74424 0.0
H601 H 0.60238 0.17054 0.70119 0.0
H602 H 0.63437 0.09735 0.62237 0.0
H603 H 0.63493 0.05099 0.6654 0.0
C604 C 0.65056 0.22432 0.62468 0.0
C605 C 0.64203 0.22201 0.58928 0.0
C606 C 0.64248 0.19721 0.647 0.0
C607 C 0.6255 0.16707 0.63461 0.0
C608 C 0.61667 0.16473 0.59924 0.0
C609 C 0.62481 0.192 0.57677 0.0
C610 C 0.61004 0.11816 0.71755 0.0
C611 C 0.62023 0.08441 0.70822 0.0
C612 C 0.60921 0.14449 0.69294 0.0
C613 C 0.6191 0.13776 0.65858 0.0
C614 C 0.62658 0.10337 0.64863 0.0
C615 C 0.62696 0.07682 0.67327 0.0
H616 H 0.1103 0.42277 0.00258 0.0
H617 H 0.12365 0.33947 0.07625 0.0
H618 H 0.0958 0.37996 0.95756 0.0
H619 H 0.10927 0.29694 0.03126 0.0
H620 H 0.02001 0.25603 0.95255 0.0
H621 H 0.05292 0.28468 -0.00107 0.0
H622 H 0.12227 0.32925 0.92337 0.0
H623 H 0.08948 0.29997 0.87701 0.0
C624 C 0.11013 0.39542 0.00916 0.0
C625 C 0.11783 0.38457 0.043 0.0
C626 C 0.1024 0.37089 0.9833 0.0
C627 C 0.10192 0.33513 0.99092 0.0
C628 C 0.10967 0.32431 0.0247 0.0
C629 C 0.11771 0.34874 0.05043 0.0
C630 C 0.04364 0.27009 0.94615 0.0
C631 C 0.05245 0.2757 0.91144 0.0
C632 C 0.06227 0.28682 0.97261 0.0
C633 C 0.08959 0.30979 0.96455 0.0
C634 C 0.10099 0.312 0.93013 0.0
C635 C 0.08268 0.29471 0.90369 0.0
H636 H 0.89006 0.88096 0.22272 0.0
H637 H 0.78307 0.84883 0.23708 0.0
H638 H 0.8915 0.84833 0.16801 0.0
H639 H 0.78477 0.816 0.18341 0.0
H640 H 0.78042 0.78804 0.07392 0.0
H641 H 0.78648 0.82874 0.12215 0.0
H642 H 0.88896 0.78842 0.14462 0.0
H643 H 0.88333 0.74843 0.09544 0.0
C644 C 0.86706 0.8666 0.21444 0.0
C645 C 0.83635 0.86767 0.234 0.0
C646 C 0.86787 0.84805 0.18313 0.0
C647 C 0.838 0.8303 0.17105 0.0
C648 C 0.80786 0.83035 0.19142 0.0
C649 C 0.807 0.8489 0.2224 0.0
C650 C 0.80456 0.78846 0.08866 0.0
C651 C 0.83117 0.76478 0.08136 0.0
C652 C 0.80796 0.81155 0.11641 0.0
C653 C 0.83778 0.81101 0.13775 0.0
C654 C 0.86564 0.78936 0.12869 0.0
C655 C 0.86241 0.76648 0.10053 0.0
H656 H 0.39968 0.62336 0.63011 0.0
H657 H 0.3341 0.56735 0.55707 0.0
H658 H 0.4211 0.65988 0.58351 0.0
H659 H 0.35648 0.60305 0.51018 0.0
H660 H 0.39056 0.68115 0.43162 0.0
H661 H 0.36063 0.659 0.48279 0.0
H662 H 0.45943 0.65192 0.53667 0.0
H663 H 0.48882 0.6749 0.48646 0.0
C664 C 0.38982 0.61881 0.60409 0.0
C665 C 0.36549 0.59211 0.59729 0.0
C666 C 0.40216 0.63975 0.57731 0.0
C667 C 0.39081 0.63429 0.54293 0.0
C668 C 0.36552 0.60837 0.53634 0.0
C669 C 0.3529 0.58763 0.56322 0.0
C670 C 0.40567 0.67581 0.45478 0.0
C671 C 0.44212 0.6795 0.45482 0.0
C672 C 0.38859 0.6627 0.48397 0.0
C673 C 0.40762 0.65317 0.51378 0.0
C674 C 0.44376 0.65918 0.51444 0.0
C675 C 0.46073 0.67222 0.48542 0.0
H676 H 0.30649 0.16902 0.43391 0.0
H677 H 0.25328 0.10877 0.35455 0.0
H678 H 0.35984 0.1678 0.39955 0.0
H679 H 0.30654 0.10715 0.32068 0.0
H680 H 0.40854 0.20761 0.29199 0.0
H681 H 0.36824 0.1982 0.33963 0.0
H682 H 0.37118 0.08745 0.32085 0.0
H683 H 0.41181 0.09667 0.27334 0.0
C684 C 0.30648 0.15472 0.40963 0.0
C685 C 0.27574 0.13931 0.39662 0.0
C686 C 0.3369 0.15414 0.39001 0.0
C687 C 0.33713 0.13748 0.35754 0.0
C688 C 0.30709 0.11991 0.34579 0.0
C689 C 0.27658 0.12106 0.36503 0.0
C690 C 0.40114 0.18121 0.29846 0.0
C691 C 0.41294 0.15292 0.27867 0.0
C692 C 0.37835 0.17582 0.32591 0.0
C693 C 0.36663 0.14211 0.33372 0.0
C694 C 0.37986 0.11367 0.3152 0.0
C695 C 0.40309 0.119 0.28807 0.0
H696 H 0.18544 0.02468 0.48251 0.0
H697 H 0.17684 0.08774 0.57481 0.0
H698 H 0.16732 0.97337 0.51501 0.0
H699 H 0.15774 0.03652 0.60723 0.0
H700 H 0.05803 0.96116 0.61052 0.0
H701 H 0.09586 0.00731 0.58897 0.0
H702 H 0.17758 0.9328 0.57173 0.0
H703 H 0.13996 0.88641 0.59416 0.0
C704 C 0.18133 0.0271 0.51016 0.0
C705 C 0.18261 0.05989 0.52634 0.0
C706 C 0.17084 -0.00214 0.52869 0.0
C707 C 0.16076 0.00129 0.56338 0.0
C708 C 0.16535 0.03342 0.58042 0.0
C709 C 0.17659 0.06256 0.56204 0.0
C710 C 0.08405 0.95458 0.60218 0.0
C711 C 0.09599 0.92019 0.60377 0.0
C712 C 0.10584 0.98104 0.59035 0.0
C713 C 0.13973 0.97353 0.57931 0.0
C714 C 0.15166 0.93915 0.58053 0.0
C715 C 0.1301 0.91273 0.59313 0.0
H716 H 0.05159 0.8819 0.80549 0.0
H717 H 0.13426 0.90048 0.73254 0.0
H718 H 0.09299 0.89009 0.85349 0.0
H719 H 0.17534 0.90904 0.78035 0.0
H720 H 0.24158 0.92667 0.87663 0.0
H721 H 0.19285 0.94172 0.838 0.0
H722 H 0.1422 0.84445 0.86267 0.0
H723 H 0.1907 0.8292 0.9004 0.0
C724 C 0.07825 0.88908 0.79978 0.0
C725 C 0.09 0.88996 0.76547 0.0
C726 C 0.10187 0.89368 0.82717 0.0
C727 C 0.13729 0.89984 0.82046 0.0
C728 C 0.14814 0.90451 0.78618 0.0
C729 C 0.12471 0.89933 0.75886 0.0
C730 C 0.21976 0.90882 0.87404 0.0
C731 C 0.22004 0.87657 0.89097 0.0
C732 C 0.19195 0.91748 0.85216 0.0
C733 C 0.16375 0.89437 0.84774 0.0
C734 C 0.16335 0.86298 0.8661 0.0
C735 C 0.19134 0.85404 0.88727 0.0
H736 H 0.3506 0.11591 0.10265 0.0
H737 H 0.4093 0.03544 0.15406 0.0
H738 H 0.3077 0.07279 0.08363 0.0
H739 H 0.36727 0.99218 0.13396 0.0
H740 H 0.29084 0.91642 0.09759 0.0
H741 H 0.31 0.96649 0.13231 0.0
H742 H 0.31137 0.02956 0.0399 0.0
H743 H 0.2914 0.98022 0.00585 0.0
C744 C 0.35426 0.08903 0.11003 0.0
C745 C 0.38373 0.07893 0.12921 0.0
C746 C 0.32962 0.06433 0.09921 0.0
C747 C 0.33419 0.02894 0.1069 0.0
C748 C 0.3626 0.01923 0.12789 0.0
C749 C 0.38701 0.044 0.13908 0.0
C750 C 0.29386 0.94139 0.08507 0.0
C751 C 0.29037 0.94434 0.04895 0.0
C752 C 0.30521 0.96996 0.10486 0.0
C753 C 0.31308 0.00181 0.08878 0.0
C754 C 0.30558 0.00556 0.05329 0.0
C755 C 0.29432 0.97713 0.03362 0.0
H756 H 0.84623 0.34488 0.75006 0.0
H757 H 0.93389 0.37941 0.68937 0.0
H758 H 0.80706 0.35935 0.70313 0.0
H759 H 0.89407 0.39478 0.64199 0.0
H760 H 0.81427 0.3519 0.55606 0.0
H761 H 0.85869 0.36008 0.60108 0.0
H762 H 0.78135 0.40423 0.66888 0.0
H763 H 0.73686 0.39454 0.62448 0.0
C764 C 0.85711 0.35616 0.72683 0.0
C765 C 0.89319 0.36056 0.72324 0.0
C766 C 0.83454 0.3649 0.69998 0.0
C767 C 0.84742 0.37832 0.66878 0.0
C768 C 0.88343 0.38429 0.66567 0.0
C769 C 0.90616 0.37564 0.6928 0.0
C770 C 0.80708 0.3642 0.58027 0.0
C771 C 0.77213 0.37182 0.58725 0.0
C772 C 0.83252 0.36907 0.60601 0.0
C773 C 0.82333 0.38206 0.63883 0.0
C774 C 0.78902 0.39327 0.64419 0.0
C775 C 0.76358 0.38781 0.61879 0.0
H776 H 0.85154 0.37878 0.85921 0.0
H777 H 0.9382 0.40776 0.92582 0.0
H778 H 0.81553 0.42253 0.88718 0.0
H779 H 0.90191 0.45151 0.95381 0.0
H780 H 0.82114 0.50772 0.01558 0.0
H781 H 0.84733 0.45572 0.99105 0.0
H782 H 0.81749 0.48878 0.88838 0.0
H783 H 0.79135 0.54109 0.91271 0.0
C784 C 0.86286 0.39425 0.88003 0.0
C785 C 0.89784 0.38988 0.89023 0.0
C786 C 0.84219 0.41934 0.89592 0.0
C787 C 0.8559 0.44027 0.92265 0.0
C788 C 0.89057 0.43538 0.9335 0.0
C789 C 0.91142 0.41054 0.91731 0.0
C790 C 0.81934 0.50362 0.98783 0.0
C791 C 0.80456 0.52891 0.96605 0.0
C792 C 0.83462 0.47392 0.97383 0.0
C793 C 0.83497 0.46862 0.93785 0.0
C794 C 0.81761 0.4923 0.91626 0.0
C795 C 0.80262 0.52225 0.93021 0.0
H796 H 0.74011 0.60161 0.13904 0.0
H797 H 0.66854 0.65512 0.07119 0.0
H798 H 0.6965 0.60264 0.18516 0.0
H799 H 0.62476 0.65513 0.11691 0.0
H800 H 0.63016 0.67882 0.25983 0.0
H801 H 0.67081 0.6649 0.21342 0.0
H802 H 0.59013 0.60695 0.15971 0.0
H803 H 0.54945 0.61996 0.20675 0.0
C804 C 0.71473 0.61258 0.13368 0.0
C805 C 0.70764 0.62843 0.10173 0.0
C806 C 0.68996 0.6133 0.16002 0.0
C807 C 0.65752 0.62901 0.15436 0.0
C808 C 0.64958 0.64271 0.12168 0.0
C809 C 0.6746 0.64278 0.09567 0.0
C810 C 0.62113 0.66298 0.23821 0.0
C811 C 0.58666 0.65059 0.23674 0.0
C812 C 0.64443 0.65478 0.21192 0.0
C813 C 0.63348 0.63468 0.18336 0.0
C814 C 0.59906 0.62231 0.18171 0.0
C815 C 0.57591 0.62979 0.20849 0.0
H816 H 0.70752 0.46828 0.47748 0.0
H817 H 0.65853 0.40868 0.39556 0.0
H818 H 0.68532 0.52199 0.45202 0.0
H819 H 0.63478 0.4614 0.37097 0.0
H820 H 0.5896 0.59267 0.43627 0.0
H821 H 0.62979 0.54658 0.45209 0.0
H822 H 0.63573 0.51512 0.34447 0.0
H823 H 0.59396 0.55992 0.32922 0.0
C824 C 0.69333 0.46694 0.45312 0.0
C825 C 0.68519 0.43464 0.43801 0.0
C826 C 0.6799 0.49755 0.43891 0.0
C827 C 0.65745 0.49616 0.40983 0.0
C828 C 0.65212 0.46388 0.3931 0.0
C829 C 0.66592 0.43349 0.40705 0.0
C830 C 0.59959 0.57589 0.41606 0.0
C831 C 0.5881 0.57943 0.38166 0.0
C832 C 0.62306 0.54968 0.425 0.0
C833 C 0.63615 0.52684 0.3996 0.0
C834 C 0.62573 0.53159 0.36491 0.0
C835 C 0.60173 0.55729 0.35612 0.0
H836 H 0.2416 0.35257 0.08756 0.0
H837 H 0.31214 0.43913 0.10412 0.0
H838 H 0.29067 0.3132 0.08355 0.0
H839 H 0.36174 0.39936 0.1004 0.0
H840 H 0.38321 0.24778 0.07177 0.0
H841 H 0.3463 0.29589 0.05345 0.0
H842 H 0.37524 0.35321 0.14599 0.0
H843 H 0.41212 0.30543 0.16432 0.0
C844 C 0.26776 0.36322 0.08946 0.0
C845 C 0.27329 0.39862 0.09668 0.0
C846 C 0.29584 0.34077 0.08682 0.0
C847 C 0.32991 0.35329 0.09189 0.0
C848 C 0.33561 0.38918 0.09652 0.0
C849 C 0.30738 0.41185 0.09857 0.0
C850 C 0.38217 0.2709 0.08789 0.0
C851 C 0.39993 0.27256 0.11985 0.0
C852 C 0.3612 0.29843 0.0773 0.0
C853 C 0.35797 0.32812 0.09834 0.0
C854 C 0.37762 0.33076 0.12907 0.0
C855 C 0.39832 0.30317 0.13981 0.0
H856 H 0.92818 0.16383 0.81576 0.0
H857 H 0.86191 0.23266 0.87394 0.0
H858 H 0.8849 0.11722 0.82106 0.0
H859 H 0.8196 0.1859 0.88087 0.0
H860 H 0.7325 0.12307 0.82967 0.0
H861 H 0.78043 0.16284 0.83887 0.0
H862 H 0.85007 0.07637 0.85479 0.0
H863 H 0.80149 0.03581 0.84438 0.0
C864 C 0.90483 0.16859 0.83057 0.0
C865 C 0.8979 0.20191 0.84381 0.0
C866 C 0.88013 0.14189 0.83378 0.0
C867 C 0.84844 0.14809 0.85074 0.0
C868 C 0.84325 0.18058 0.86674 0.0
C869 C 0.8675 0.20733 0.86291 0.0
C870 C 0.75789 0.11229 0.83538 0.0
C871 C 0.76315 0.07617 0.83604 0.0
C872 C 0.78544 0.13524 0.84108 0.0
C873 C 0.81912 0.12285 0.84789 0.0
C874 C 0.82443 0.0867 0.84945 0.0
C875 C 0.79662 0.06351 0.84365 0.0
H876 H 0.02277 0.48078 0.14318 0.0
H877 H 0.07228 0.57681 0.17554 0.0
H878 H 0.96833 0.51116 0.13376 0.0
H879 H 0.01731 0.60766 0.16619 0.0
H880 H 0.9429 0.64461 0.07521 0.0
H881 H 0.9904 0.62009 0.10893 0.0
H882 H 0.91927 0.54593 0.15409 0.0
H883 H 0.87164 0.57008 0.11988 0.0
C884 C 0.02154 0.50826 0.14949 0.0
C885 C 0.05164 0.5266 0.15972 0.0
C886 C 0.9903 0.52568 0.14425 0.0
C887 C 0.98866 0.56191 0.14877 0.0
C888 C 0.018 0.57976 0.16213 0.0
C889 C 0.04931 0.56213 0.1678 0.0
C890 C 0.93722 0.62336 0.09263 0.0
C891 C 0.90359 0.60884 0.09427 0.0
C892 C 0.96441 0.6096 0.11235 0.0
C893 C 0.95859 0.581 0.13411 0.0
C894 C 0.92457 0.56779 0.1373 0.0
C895 C 0.89733 0.58159 0.11762 0.0
H896 H 0.75403 0.84815 0.39185 0.0
H897 H 0.68674 0.93734 0.3969 0.0
H898 H 0.70509 0.80995 0.40505 0.0
H899 H 0.63714 0.89897 0.40976 0.0
H900 H 0.56937 0.81157 0.35056 0.0
H901 H 0.61146 0.85692 0.36527 0.0
H902 H 0.65576 0.79129 0.44442 0.0
H903 H 0.61323 0.74564 0.42976 0.0
C904 C 0.72889 0.85958 0.39716 0.0
C905 C 0.72387 0.89544 0.39347 0.0
C906 C 0.7009 0.83779 0.40486 0.0
C907 C 0.66727 0.85149 0.40824 0.0
C908 C 0.66282 0.88779 0.40721 0.0
C909 C 0.69108 0.90971 0.40005 0.0
C910 C 0.58758 0.80707 0.37163 0.0
C911 C 0.58846 0.77486 0.38859 0.0
C912 C 0.61142 0.83324 0.38035 0.0
C913 C 0.63695 0.82757 0.40593 0.0
C914 C 0.63636 0.79625 0.42455 0.0
C915 C 0.61208 0.77018 0.41615 0.0
H916 H 0.59074 0.34743 0.63009 0.0
H917 H 0.55592 0.41267 0.54597 0.0
H918 H 0.54587 0.37207 0.66748 0.0
H919 H 0.51156 0.4376 0.58363 0.0
H920 H 0.4683 0.50262 0.67163 0.0
H921 H 0.51629 0.47544 0.64131 0.0
H922 H 0.47562 0.37393 0.6665 0.0
H923 H 0.42671 0.401 0.69657 0.0
C924 C 0.57354 0.36704 0.61961 0.0
C925 C 0.57688 0.37824 0.58511 0.0
C926 C 0.54786 0.38097 0.64098 0.0
C927 C 0.52559 0.40684 0.62844 0.0
C928 C 0.52874 0.41788 0.59394 0.0
C929 C 0.55394 0.4035 0.57237 0.0
C930 C 0.46972 0.47449 0.67138 0.0
C931 C 0.44325 0.454 0.68615 0.0
C932 C 0.49716 0.459 0.65379 0.0
C933 C 0.49915 0.42271 0.65108 0.0
C934 C 0.47445 0.40204 0.66817 0.0
C935 C 0.44656 0.41756 0.68545 0.0
H936 H 0.22172 0.6094 0.73523 0.0
H937 H 0.20279 0.5723 0.63064 0.0
H938 H 0.17876 0.65477 0.72677 0.0
H939 H 0.15936 0.61802 0.62248 0.0
H940 H 0.06047 0.69019 0.64374 0.0
H941 H 0.09912 0.63993 0.64928 0.0
H942 H 0.18199 0.70771 0.68523 0.0
H943 H 0.14403 0.75768 0.67958 0.0
C944 C 0.20812 0.61059 0.71057 0.0
C945 C 0.21601 0.58744 0.68345 0.0
C946 C 0.18361 0.63668 0.70575 0.0
C947 C 0.1662 0.64001 0.67387 0.0
C948 C 0.17255 0.61587 0.64729 0.0
C949 C 0.19745 0.58986 0.65197 0.0
C950 C 0.08703 0.69435 0.65254 0.0
C951 C 0.09911 0.72791 0.66141 0.0
C952 C 0.10906 0.66565 0.65561 0.0
C953 C 0.14325 0.67008 0.66806 0.0
C954 C 0.15553 0.70364 0.67604 0.0
C955 C 0.1338 0.73225 0.67259 0.0
H956 H 0.37292 0.92004 0.8755 0.0
H957 H 0.45195 0.85828 0.92592 0.0
H958 H 0.41321 0.93337 0.82899 0.0
H959 H 0.49256 0.87255 0.88005 0.0
H960 H 0.55864 0.88556 0.79088 0.0
H961 H 0.50686 0.86374 0.8203 0.0
H962 H 0.4641 0.96751 0.82024 0.0
H963 H 0.51522 0.98856 0.79002 0.0
C964 C 0.39903 0.90962 0.87693 0.0
C965 C 0.40927 0.88829 0.90469 0.0
C966 C 0.42209 0.91715 0.8501 0.0
C967 C 0.45606 0.90374 0.85044 0.0
C968 C 0.46633 0.88261 0.87835 0.0
C969 C 0.4432 0.87487 0.90504 0.0
C970 C 0.53708 0.90307 0.79518 0.0
C971 C 0.5406 0.9386 0.78791 0.0
C972 C 0.5078 0.89084 0.81282 0.0
C973 C 0.48181 0.91409 0.82367 0.0
C974 C 0.48349 0.94878 0.81239 0.0
C975 C 0.51266 0.96088 0.79465 0.0
H976 H 0.96851 0.97188 0.29736 0.0
H977 H 0.91094 0.06778 0.28856 0.0
H978 H 0.02128 0.00506 0.31106 0.0
H979 H 0.96373 0.10067 0.30258 0.0
H980 H 0.03366 0.11708 0.4043 0.0
H981 H 0.98842 0.09234 0.36703 0.0
H982 H 0.06631 0.05777 0.29476 0.0
H983 H 0.11212 0.08364 0.33196 0.0
C984 C 0.96738 3e-05 0.29708 0.0
C985 C 0.93541 0.0172 0.29276 0.0
C986 C -0.00235 0.01898 0.30471 0.0
C987 C -0.00378 0.05526 0.30838 0.0
C988 C 0.96525 0.07263 0.30008 0.0
C989 C 0.93508 0.05375 0.29202 0.0
C990 C 0.04119 0.10445 0.38036 0.0
C991 C 0.07634 0.10194 0.37112 0.0
C992 C 0.01529 0.09072 0.35882 0.0
C993 C 0.02399 0.07361 0.3279 0.0
C994 C 0.0591 0.07121 0.31836 0.0
C995 C 0.08514 0.08581 0.33962 0.0
loop_
_geom_bond_atom_site_label_1
_geom_bond_atom_site_label_2
_geom_bond_distance
_geom_bond_site_symmetry_2
_ccdc_geom_bond_type
O0 Zn1 1.953 . S
O0 C16 1.225 . S
Zn1 O0 1.953 . S
Zn1 O2 1.949 . S
Zn1 O8 1.919 . S
Zn1 O13 1.924 . S
O2 Zn1 1.949 . S
O2 Zn3 1.923 . S
O2 Zn4 1.950 . S
O2 Zn5 1.945 . S
Zn3 O2 1.923 . S
Zn3 O6 1.933 . S
Zn3 O9 1.941 . S
Zn3 O10 1.965 . S
Zn4 O2 1.950 . S
Zn4 O11 1.938 . S
Zn4 O12 1.906 . S
Zn4 O22 1.953 . S
Zn5 O2 1.945 . S
Zn5 O7 1.932 . S
Zn5 O14 1.977 . S
Zn5 O15 1.910 . S
O6 Zn3 1.933 . S
O6 C17 1.226 . S
O7 Zn5 1.932 . S
O7 C17 1.307 . S
O8 Zn1 1.919 . S
O8 C19 1.253 . S
O9 Zn3 1.941 . S
O9 C19 1.283 . S
O10 Zn3 1.965 . S
O10 C18 1.303 . S
O11 Zn4 1.938 . S
O11 C18 1.247 . S
O12 Zn4 1.906 . S
O12 C20 1.304 . S
O13 Zn1 1.924 . S
O13 C21 1.311 . S
O14 Zn5 1.977 . S
O14 C20 1.272 . S
O15 Zn5 1.910 . S
O15 C21 1.231 . S
C16 O0 1.225 . S
C16 O22 1.298 . S
C17 O6 1.226 . S
C17 O7 1.307 . S
C18 O10 1.303 . S
C18 O11 1.247 . S
C19 O8 1.253 . S
C19 O9 1.283 . S
C20 O12 1.304 . S
C20 O14 1.272 . S
C21 O13 1.311 . S
C21 O15 1.231 . S
O22 Zn4 1.953 . S
O22 C16 1.298 . S
O23 Zn24 1.953 . S
O23 C39 1.225 . S
Zn24 O23 1.953 . S
Zn24 O25 1.949 . S
Zn24 O31 1.919 . S
Zn24 O36 1.924 1_455 S
O25 Zn24 1.949 . S
O25 Zn26 1.923 . S
O25 Zn27 1.950 . S
O25 Zn28 1.945 . S
Zn26 O25 1.923 . S
Zn26 O29 1.933 . S
Zn26 O32 1.941 . S
Zn26 O33 1.965 . S
Zn27 O25 1.950 . S
Zn27 O34 1.938 . S
Zn27 O35 1.906 . S
Zn27 O45 1.953 . S
Zn28 O25 1.945 . S
Zn28 O30 1.932 1_455 S
Zn28 O37 1.977 . S
Zn28 O38 1.910 1_455 S
O29 Zn26 1.933 . S
O29 C40 1.226 1_455 S
O30 Zn28 1.932 1_655 S
O30 C40 1.307 . S
O31 Zn24 1.919 . S
O31 C42 1.256 . S
O32 Zn26 1.941 . S
O32 C42 1.293 . S
O33 Zn26 1.965 . S
O33 C41 1.303 . S
O34 Zn27 1.938 . S
O34 C41 1.247 . S
O35 Zn27 1.906 . S
O35 C43 1.304 . S
O36 Zn24 1.924 1_655 S
O36 C44 1.311 . S
O37 Zn28 1.977 . S
O37 C43 1.272 . S
O38 Zn28 1.910 1_655 S
O38 C44 1.231 . S
C39 O23 1.225 . S
C39 O45 1.298 . S
C40 O29 1.226 1_655 S
C40 O30 1.307 . S
C41 O33 1.303 . S
C41 O34 1.247 . S
C42 O31 1.256 . S
C42 O32 1.293 . S
C43 O35 1.304 . S
C43 O37 1.272 . S
C44 O36 1.311 . S
C44 O38 1.231 . S
O45 Zn27 1.953 . S
O45 C39 1.298 . S
O46 Zn47 1.953 . S
O46 C62 1.225 . S
Zn47 O46 1.953 . S
Zn47 O48 1.949 . S
Zn47 O54 1.919 . S
Zn47 O59 1.924 . S
O48 Zn47 1.949 . S
O48 Zn49 1.923 1_556 S
O48 Zn50 1.950 . S
O48 Zn51 1.945 . S
Zn49 O48 1.923 1_554 S
Zn49 O52 1.933 . S
Zn49 O55 1.941 . S
Zn49 O56 1.965 . S
Zn50 O48 1.950 . S
Zn50 O57 1.938 . S
Zn50 O58 1.906 . S
Zn50 O68 1.953 . S
Zn51 O48 1.945 . S
Zn51 O53 1.932 . S
Zn51 O60 1.977 . S
Zn51 O61 1.910 . S
O52 Zn49 1.933 . S
O52 C63 1.226 1_554 S
O53 Zn51 1.932 . S
O53 C63 1.307 . S
O54 Zn47 1.919 . S
O54 C65 1.253 1_556 S
O55 Zn49 1.941 . S
O55 C65 1.283 . S
O56 Zn49 1.965 . S
O56 C64 1.303 . S
O57 Zn50 1.938 . S
O57 C64 1.247 1_556 S
O58 Zn50 1.906 . S
O58 C66 1.304 . S
O59 Zn47 1.924 . S
O59 C67 1.311 . S
O60 Zn51 1.977 . S
O60 C66 1.272 . S
O61 Zn51 1.910 . S
O61 C67 1.231 . S
C62 O46 1.225 . S
C62 O68 1.298 . S
C63 O52 1.226 1_556 S
C63 O53 1.307 . S
C64 O56 1.303 . S
C64 O57 1.247 1_554 S
C65 O54 1.253 1_554 S
C65 O55 1.283 . S
C66 O58 1.304 . S
C66 O60 1.272 . S
C67 O59 1.311 . S
C67 O61 1.231 . S
O68 Zn50 1.953 . S
O68 C62 1.298 . S
O69 Zn70 1.953 . S
O69 C85 1.225 . S
Zn70 O69 1.953 . S
Zn70 O71 1.949 . S
Zn70 O77 1.919 . S
Zn70 O82 1.924 . S
O71 Zn70 1.949 . S
O71 Zn72 1.923 . S
O71 Zn73 1.950 . S
O71 Zn74 1.945 . S
Zn72 O71 1.923 . S
Zn72 O75 1.933 . S
Zn72 O78 1.941 . S
Zn72 O79 1.965 . S
Zn73 O71 1.950 . S
Zn73 O80 1.938 . S
Zn73 O81 1.906 . S
Zn73 O91 1.953 . S
Zn74 O71 1.945 . S
Zn74 O76 1.932 . S
Zn74 O83 1.977 . S
Zn74 O84 1.910 . S
O75 Zn72 1.933 . S
O75 C86 1.226 . S
O76 Zn74 1.932 . S
O76 C86 1.307 . S
O77 Zn70 1.919 . S
O77 C88 1.253 . S
O78 Zn72 1.941 . S
O78 C88 1.283 . S
O79 Zn72 1.965 . S
O79 C87 1.303 . S
O80 Zn73 1.938 . S
O80 C87 1.247 . S
O81 Zn73 1.906 . S
O81 C89 1.304 . S
O82 Zn70 1.924 . S
O82 C90 1.311 . S
O83 Zn74 1.977 . S
O83 C89 1.272 . S
O84 Zn74 1.910 . S
O84 C90 1.231 . S
C85 O69 1.225 . S
C85 O91 1.298 . S
C86 O75 1.226 . S
C86 O76 1.307 . S
C87 O79 1.303 . S
C87 O80 1.247 . S
C88 O77 1.253 . S
C88 O78 1.283 . S
C89 O81 1.304 . S
C89 O83 1.272 . S
C90 O82 1.311 . S
C90 O84 1.231 . S
O91 Zn73 1.953 . S
O91 C85 1.298 . S
O92 Zn93 1.953 . S
O92 C108 1.225 . S
Zn93 O92 1.953 . S
Zn93 O94 1.949 . S
Zn93 O100 1.919 . S
Zn93 O105 1.924 . S
O94 Zn93 1.949 . S
O94 Zn95 1.923 . S
O94 Zn96 1.950 . S
O94 Zn97 1.945 . S
Zn95 O94 1.923 . S
Zn95 O98 1.933 . S
Zn95 O101 1.941 . S
Zn95 O102 1.965 . S
Zn96 O94 1.950 . S
Zn96 O103 1.938 . S
Zn96 O104 1.906 . S
Zn96 O114 1.953 . S
Zn97 O94 1.945 . S
Zn97 O99 1.932 . S
Zn97 O106 1.977 . S
Zn97 O107 1.910 . S
O98 Zn95 1.933 . S
O98 C109 1.226 . S
O99 Zn97 1.932 . S
O99 C109 1.307 . S
O100 Zn93 1.919 . S
O100 C111 1.253 . S
O101 Zn95 1.941 . S
O101 C111 1.283 . S
O102 Zn95 1.965 . S
O102 C110 1.303 . S
O103 Zn96 1.938 . S
O103 C110 1.247 . S
O104 Zn96 1.906 . S
O104 C112 1.304 . S
O105 Zn93 1.924 . S
O105 C113 1.311 . S
O106 Zn97 1.977 . S
O106 C112 1.272 . S
O107 Zn97 1.910 . S
O107 C113 1.231 . S
C108 O92 1.225 . S
C108 O114 1.298 . S
C109 O98 1.226 . S
C109 O99 1.307 . S
C110 O102 1.303 . S
C110 O103 1.247 . S
C111 O100 1.253 . S
C111 O101 1.283 . S
C112 O104 1.304 . S
C112 O106 1.272 . S
C113 O105 1.311 . S
C113 O107 1.231 . S
O114 Zn96 1.953 . S
O114 C108 1.298 . S
O115 Zn116 1.953 . S
O115 C131 1.225 . S
Zn116 O115 1.953 . S
Zn116 O117 1.949 . S
Zn116 O123 1.919 . S
Zn116 O128 1.942 . S
O117 Zn116 1.949 . S
O117 Zn118 1.923 . S
O117 Zn119 1.950 . S
O117 Zn120 1.945 . S
Zn118 O117 1.923 . S
Zn118 O121 1.933 . S
Zn118 O124 1.941 . S
Zn118 O125 1.965 . S
Zn119 O117 1.950 . S
Zn119 O126 1.938 . S
Zn119 O127 1.906 . S
Zn119 O137 1.953 . S
Zn120 O117 1.945 . S
Zn120 O122 1.932 1_655 S
Zn120 O129 1.977 . S
Zn120 O130 1.910 1_655 S
O121 Zn118 1.933 . S
O121 C132 1.226 1_655 S
O122 Zn120 1.932 1_455 S
O122 C132 1.307 . S
O123 Zn116 1.919 . S
O123 C134 1.253 . S
O124 Zn118 1.941 . S
O124 C134 1.283 . S
O125 Zn118 1.965 . S
O125 C133 1.303 . S
O126 Zn119 1.938 . S
O126 C133 1.247 . S
O127 Zn119 1.906 . S
O127 C135 1.304 . S
O128 Zn116 1.942 . S
O128 C136 1.303 1_655 S
O129 Zn120 1.977 . S
O129 C135 1.272 . S
O130 Zn120 1.910 1_455 S
O130 C136 1.231 . S
C131 O115 1.225 . S
C131 O137 1.298 . S
C132 O121 1.226 1_455 S
C132 O122 1.307 . S
C133 O125 1.303 . S
C133 O126 1.247 . S
C134 O123 1.253 . S
C134 O124 1.283 . S
C135 O127 1.304 . S
C135 O129 1.272 . S
C136 O128 1.303 1_455 S
C136 O130 1.231 . S
O137 Zn119 1.953 . S
O137 C131 1.298 . S
O138 Zn139 1.953 . S
O138 C154 1.225 . S
Zn139 O138 1.953 . S
Zn139 O140 1.949 . S
Zn139 O146 1.919 . S
Zn139 O151 1.924 . S
O140 Zn139 1.949 . S
O140 Zn141 1.923 1_554 S
O140 Zn142 1.950 . S
O140 Zn143 1.945 . S
Zn141 O140 1.923 1_556 S
Zn141 O144 1.933 . S
Zn141 O147 1.941 . S
Zn141 O148 1.965 . S
Zn142 O140 1.950 . S
Zn142 O149 1.938 . S
Zn142 O150 1.906 . S
Zn142 O160 1.953 . S
Zn143 O140 1.945 . S
Zn143 O145 1.932 . S
Zn143 O152 1.977 . S
Zn143 O153 1.910 . S
O144 Zn141 1.933 . S
O144 C155 1.226 . S
O145 Zn143 1.932 . S
O145 C155 1.307 1_554 S
O146 Zn139 1.919 . S
O146 C157 1.253 1_554 S
O147 Zn141 1.941 . S
O147 C157 1.283 . S
O148 Zn141 1.965 . S
O148 C156 1.303 . S
O149 Zn142 1.938 . S
O149 C156 1.247 1_554 S
O150 Zn142 1.906 . S
O150 C158 1.304 . S
O151 Zn139 1.924 . S
O151 C159 1.311 . S
O152 Zn143 1.977 . S
O152 C158 1.272 . S
O153 Zn143 1.910 . S
O153 C159 1.231 . S
C154 O138 1.225 . S
C154 O160 1.298 . S
C155 O144 1.226 . S
C155 O145 1.307 1_556 S
C156 O148 1.303 . S
C156 O149 1.247 1_556 S
C157 O146 1.253 1_556 S
C157 O147 1.283 . S
C158 O150 1.304 . S
C158 O152 1.272 . S
C159 O151 1.311 . S
C159 O153 1.231 . S
O160 Zn142 1.953 . S
O160 C154 1.298 . S
O161 Zn162 1.953 . S
O161 C177 1.225 . S
Zn162 O161 1.953 . S
Zn162 O163 1.949 . S
Zn162 O169 1.919 . S
Zn162 O174 1.924 . S
O163 Zn162 1.949 . S
O163 Zn164 1.923 . S
O163 Zn165 1.950 . S
O163 Zn166 1.945 . S
Zn164 O163 1.923 . S
Zn164 O167 1.933 . S
Zn164 O170 1.941 . S
Zn164 O171 1.965 . S
Zn165 O163 1.950 . S
Zn165 O172 1.938 . S
Zn165 O173 1.906 . S
Zn165 O183 1.953 . S
Zn166 O163 1.945 . S
Zn166 O168 1.932 . S
Zn166 O175 1.977 . S
Zn166 O176 1.910 . S
O167 Zn164 1.933 . S
O167 C178 1.226 . S
O168 Zn166 1.932 . S
O168 C178 1.307 . S
O169 Zn162 1.919 . S
O169 C180 1.253 . S
O170 Zn164 1.941 . S
O170 C180 1.283 . S
O171 Zn164 1.965 . S
O171 C179 1.303 . S
O172 Zn165 1.938 . S
O172 C179 1.247 . S
O173 Zn165 1.906 . S
O173 C181 1.304 . S
O174 Zn162 1.924 . S
O174 C182 1.311 . S
O175 Zn166 1.977 . S
O175 C181 1.272 . S
O176 Zn166 1.910 . S
O176 C182 1.231 . S
C177 O161 1.225 . S
C177 O183 1.298 . S
C178 O167 1.226 . S
C178 O168 1.307 . S
C179 O171 1.303 . S
C179 O172 1.247 . S
C180 O169 1.253 . S
C180 O170 1.283 . S
C181 O173 1.304 . S
C181 O175 1.272 . S
C182 O174 1.311 . S
C182 O176 1.231 . S
O183 Zn165 1.953 . S
O183 C177 1.298 . S
O184 Zn185 1.953 . S
O184 C200 1.225 . S
Zn185 O184 1.953 . S
Zn185 O186 1.949 . S
Zn185 O192 1.919 . S
Zn185 O197 1.924 . S
O186 Zn185 1.949 . S
O186 Zn187 1.923 . S
O186 Zn188 1.950 . S
O186 Zn189 1.945 . S
Zn187 O186 1.923 . S
Zn187 O190 1.933 . S
Zn187 O193 1.941 . S
Zn187 O194 1.965 . S
Zn188 O186 1.950 . S
Zn188 O195 1.938 . S
Zn188 O196 1.906 . S
Zn188 O206 1.953 . S
Zn189 O186 1.945 . S
Zn189 O191 1.932 . S
Zn189 O198 1.977 . S
Zn189 O199 1.910 . S
O190 Zn187 1.933 . S
O190 C201 1.226 . S
O191 Zn189 1.932 . S
O191 C201 1.307 . S
O192 Zn185 1.919 . S
O192 C203 1.253 . S
O193 Zn187 1.941 . S
O193 C203 1.283 . S
O194 Zn187 1.965 . S
O194 C202 1.303 . S
O195 Zn188 1.938 . S
O195 C202 1.247 . S
O196 Zn188 1.906 . S
O196 C204 1.304 . S
O197 Zn185 1.924 . S
O197 C205 1.311 . S
O198 Zn189 1.977 . S
O198 C204 1.272 . S
O199 Zn189 1.910 . S
O199 C205 1.231 . S
C200 O184 1.225 . S
C200 O206 1.298 . S
C201 O190 1.226 . S
C201 O191 1.307 . S
C202 O194 1.303 . S
C202 O195 1.247 . S
C203 O192 1.253 . S
C203 O193 1.283 . S
C204 O196 1.304 . S
C204 O198 1.272 . S
C205 O197 1.311 . S
C205 O199 1.231 . S
O206 Zn188 1.953 . S
O206 C200 1.298 . S
O207 Zn208 1.953 . S
O207 C223 1.225 . S
Zn208 O207 1.953 . S
Zn208 O209 1.949 . S
Zn208 O215 1.919 . S
Zn208 O220 1.924 . S
O209 Zn208 1.949 . S
O209 Zn210 1.923 . S
O209 Zn211 1.950 . S
O209 Zn212 1.945 . S
Zn210 O209 1.923 . S
Zn210 O213 1.933 . S
Zn210 O216 1.941 . S
Zn210 O217 1.965 . S
Zn211 O209 1.950 . S
Zn211 O218 1.938 . S
Zn211 O219 1.906 1_545 S
Zn211 O229 1.953 1_545 S
Zn212 O209 1.945 . S
Zn212 O214 1.932 . S
Zn212 O221 1.977 1_545 S
Zn212 O222 1.910 1_545 S
O213 Zn210 1.933 . S
O213 C224 1.226 . S
O214 Zn212 1.932 . S
O214 C224 1.307 . S
O215 Zn208 1.919 . S
O215 C226 1.253 . S
O216 Zn210 1.941 . S
O216 C226 1.283 . S
O217 Zn210 1.965 . S
O217 C225 1.303 . S
O218 Zn211 1.938 . S
O218 C225 1.247 . S
O219 Zn211 1.906 1_565 S
O219 C227 1.304 . S
O220 Zn208 1.924 . S
O220 C228 1.311 1_545 S
O221 Zn212 1.977 1_565 S
O221 C227 1.272 . S
O222 Zn212 1.910 1_565 S
O222 C228 1.231 . S
C223 O207 1.225 . S
C223 O229 1.298 1_545 S
C224 O213 1.226 . S
C224 O214 1.307 . S
C225 O217 1.303 . S
C225 O218 1.247 . S
C226 O215 1.253 . S
C226 O216 1.283 . S
C227 O219 1.304 . S
C227 O221 1.272 . S
C228 O220 1.311 1_565 S
C228 O222 1.231 . S
O229 Zn211 1.953 1_565 S
O229 C223 1.298 1_565 S
O230 Zn231 1.953 . S
O230 C246 1.225 . S
Zn231 O230 1.953 . S
Zn231 O232 1.949 . S
Zn231 O238 1.919 . S
Zn231 O243 1.924 . S
O232 Zn231 1.949 . S
O232 Zn233 1.923 1_565 S
O232 Zn234 1.950 . S
O232 Zn235 1.945 . S
Zn233 O232 1.923 1_545 S
Zn233 O236 1.933 . S
Zn233 O239 1.941 . S
Zn233 O240 1.965 . S
Zn234 O232 1.950 . S
Zn234 O241 1.938 . S
Zn234 O242 1.906 . S
Zn234 O252 1.953 . S
Zn235 O232 1.945 . S
Zn235 O237 1.932 . S
Zn235 O244 1.977 . S
Zn235 O245 1.910 . S
O236 Zn233 1.933 . S
O236 C247 1.226 1_545 S
O237 Zn235 1.932 . S
O237 C247 1.307 . S
O238 Zn231 1.919 . S
O238 C249 1.253 1_565 S
O239 Zn233 1.941 . S
O239 C249 1.283 . S
O240 Zn233 1.965 . S
O240 C248 1.303 . S
O241 Zn234 1.938 . S
O241 C248 1.247 1_565 S
O242 Zn234 1.906 . S
O242 C250 1.304 . S
O243 Zn231 1.924 . S
O243 C251 1.311 . S
O244 Zn235 1.977 . S
O244 C250 1.272 . S
O245 Zn235 1.910 . S
O245 C251 1.231 . S
C246 O230 1.225 . S
C246 O252 1.298 . S
C247 O236 1.226 1_565 S
C247 O237 1.307 . S
C248 O240 1.303 . S
C248 O241 1.247 1_545 S
C249 O238 1.253 1_545 S
C249 O239 1.283 . S
C250 O242 1.304 . S
C250 O244 1.272 . S
C251 O243 1.311 . S
C251 O245 1.231 . S
O252 Zn234 1.953 . S
O252 C246 1.298 . S
O253 Zn254 1.953 . S
O253 C269 1.225 . S
Zn254 O253 1.953 . S
Zn254 O255 1.949 . S
Zn254 O261 1.919 . S
Zn254 O266 1.924 . S
O255 Zn254 1.949 . S
O255 Zn256 1.923 . S
O255 Zn257 1.950 . S
O255 Zn258 1.945 . S
Zn256 O255 1.923 . S
Zn256 O259 1.933 . S
Zn256 O262 1.941 . S
Zn256 O263 1.965 . S
Zn257 O255 1.950 . S
Zn257 O264 1.938 . S
Zn257 O265 1.906 . S
Zn257 O275 1.953 . S
Zn258 O255 1.945 . S
Zn258 O260 1.932 . S
Zn258 O267 1.977 . S
Zn258 O268 1.910 . S
O259 Zn256 1.933 . S
O259 C270 1.226 . S
O260 Zn258 1.932 . S
O260 C270 1.307 . S
O261 Zn254 1.919 . S
O261 C272 1.253 . S
O262 Zn256 1.941 . S
O262 C272 1.283 . S
O263 Zn256 1.965 . S
O263 C271 1.303 . S
O264 Zn257 1.938 . S
O264 C271 1.247 . S
O265 Zn257 1.906 . S
O265 C273 1.304 . S
O266 Zn254 1.924 . S
O266 C274 1.311 . S
O267 Zn258 1.977 . S
O267 C273 1.272 . S
O268 Zn258 1.910 . S
O268 C274 1.231 . S
C269 O253 1.225 . S
C269 O275 1.298 . S
C270 O259 1.226 . S
C270 O260 1.307 . S
C271 O263 1.303 . S
C271 O264 1.247 . S
C272 O261 1.253 . S
C272 O262 1.283 . S
C273 O265 1.304 . S
C273 O267 1.272 . S
C274 O266 1.311 . S
C274 O268 1.231 . S
O275 Zn257 1.953 . S
O275 C269 1.298 . S
H276 C284 0.950 . S
H277 C289 0.950 . S
H278 C286 0.950 . S
H279 C288 0.950 . S
H280 C290 0.950 . S
H281 C292 0.950 . S
H282 C294 0.950 . S
H283 C295 0.950 . S
C284 H276 0.950 . S
C284 C285 1.386 . S
C284 C286 1.391 . S
C285 C284 1.386 . S
C285 C289 1.393 . S
C286 H278 0.950 . S
C286 C284 1.391 . S
C286 C287 1.400 . S
C287 C286 1.400 . S
C287 C288 1.398 . S
C287 C293 1.491 . S
C288 H279 0.950 . S
C288 C287 1.398 . S
C288 C289 1.391 . S
C289 H277 0.950 . S
C289 C285 1.393 . S
C289 C288 1.391 . S
C290 H280 0.950 . S
C290 C291 1.386 . S
C290 C292 1.391 . S
C291 C290 1.386 . S
C291 C295 1.393 . S
C292 H281 0.950 . S
C292 C290 1.391 . S
C292 C293 1.400 . S
C293 C287 1.491 . S
C293 C292 1.400 . S
C293 C294 1.398 . S
C294 H282 0.950 . S
C294 C293 1.398 . S
C294 C295 1.391 . S
C295 H283 0.950 . S
C295 C291 1.393 . S
C295 C294 1.391 . S
H296 C304 0.950 . S
H297 C309 0.950 . S
H298 C306 0.950 . S
H299 C308 0.950 . S
H300 C310 0.950 . S
H301 C312 0.950 1_545 S
H302 C314 0.950 . S
H303 C315 0.950 . S
C304 H296 0.950 . S
C304 C305 1.386 . S
C304 C306 1.391 . S
C305 C304 1.386 . S
C305 C309 1.393 1_565 S
C306 H298 0.950 . S
C306 C304 1.391 . S
C306 C307 1.400 . S
C307 C306 1.400 . S
C307 C308 1.398 1_565 S
C307 C313 1.491 . S
C308 H299 0.950 . S
C308 C307 1.398 1_545 S
C308 C309 1.391 . S
C309 H297 0.950 . S
C309 C305 1.393 1_545 S
C309 C308 1.391 . S
C310 H300 0.950 . S
C310 C311 1.386 . S
C310 C312 1.391 . S
C311 C310 1.386 . S
C311 C315 1.393 . S
C312 H301 0.950 1_565 S
C312 C310 1.391 . S
C312 C313 1.400 . S
C313 C307 1.491 . S
C313 C312 1.400 . S
C313 C314 1.398 . S
C314 H302 0.950 . S
C314 C313 1.398 . S
C314 C315 1.391 . S
C315 H303 0.950 . S
C315 C311 1.393 . S
C315 C314 1.391 . S
H316 C324 0.950 . S
H317 C329 0.950 . S
H318 C326 0.950 . S
H319 C328 0.950 . S
H320 C330 0.950 . S
H321 C332 0.950 . S
H322 C334 0.950 1_556 S
H323 C335 0.950 . S
C324 H316 0.950 . S
C324 C325 1.386 1_556 S
C324 C326 1.391 . S
C325 C324 1.386 1_554 S
C325 C329 1.393 . S
C326 H318 0.950 . S
C326 C324 1.391 . S
C326 C327 1.400 1_556 S
C327 C326 1.400 1_554 S
C327 C328 1.398 . S
C327 C333 1.491 . S
C328 H319 0.950 . S
C328 C327 1.398 . S
C328 C329 1.391 . S
C329 H317 0.950 . S
C329 C325 1.393 . S
C329 C328 1.391 . S
C330 H320 0.950 . S
C330 C331 1.386 . S
C330 C332 1.391 . S
C331 C330 1.386 . S
C331 C335 1.393 . S
C332 H321 0.950 . S
C332 C330 1.391 . S
C332 C333 1.400 . S
C333 C327 1.491 . S
C333 C332 1.400 . S
C333 C334 1.398 . S
C334 H322 0.950 1_554 S
C334 C333 1.398 . S
C334 C335 1.391 . S
C335 H323 0.950 . S
C335 C331 1.393 . S
C335 C334 1.391 . S
H336 C344 0.950 . S
H337 C349 0.950 . S
H338 C346 0.950 . S
H339 C348 0.950 . S
H340 C350 0.950 . S
H341 C352 0.950 . S
H342 C354 0.950 . S
H343 C355 0.950 . S
C344 H336 0.950 . S
C344 C345 1.386 . S
C344 C346 1.391 . S
C345 C344 1.386 . S
C345 C349 1.393 . S
C346 H338 0.950 . S
C346 C344 1.391 . S
C346 C347 1.400 . S
C347 C346 1.400 . S
C347 C348 1.398 . S
C347 C353 1.491 . S
C348 H339 0.950 . S
C348 C347 1.398 . S
C348 C349 1.391 . S
C349 H337 0.950 . S
C349 C345 1.393 . S
C349 C348 1.391 . S
C350 H340 0.950 . S
C350 C351 1.386 . S
C350 C352 1.391 . S
C351 C350 1.386 . S
C351 C355 1.393 . S
C352 H341 0.950 . S
C352 C350 1.391 . S
C352 C353 1.400 . S
C353 C347 1.491 . S
C353 C352 1.400 . S
C353 C354 1.398 . S
C354 H342 0.950 . S
C354 C353 1.398 . S
C354 C355 1.391 . S
C355 H343 0.950 . S
C355 C351 1.393 . S
C355 C354 1.391 . S
H356 C364 0.950 . S
H357 C369 0.950 . S
H358 C366 0.950 . S
H359 C368 0.950 . S
H360 C370 0.950 . S
H361 C372 0.950 . S
H362 C374 0.950 . S
H363 C375 0.950 . S
C364 H356 0.950 . S
C364 C365 1.386 . S
C364 C366 1.391 . S
C365 C364 1.386 . S
C365 C369 1.393 . S
C366 H358 0.950 . S
C366 C364 1.391 . S
C366 C367 1.400 . S
C367 C366 1.400 . S
C367 C368 1.398 . S
C367 C373 1.491 . S
C368 H359 0.950 . S
C368 C367 1.398 . S
C368 C369 1.391 . S
C369 H357 0.950 . S
C369 C365 1.393 . S
C369 C368 1.391 . S
C370 H360 0.950 . S
C370 C371 1.386 . S
C370 C372 1.391 . S
C371 C370 1.386 . S
C371 C375 1.393 . S
C372 H361 0.950 . S
C372 C370 1.391 . S
C372 C373 1.400 . S
C373 C367 1.491 . S
C373 C372 1.400 . S
C373 C374 1.398 . S
C374 H362 0.950 . S
C374 C373 1.398 . S
C374 C375 1.391 . S
C375 H363 0.950 . S
C375 C371 1.393 . S
C375 C374 1.391 . S
H376 C384 0.950 . S
H377 C389 0.950 . S
H378 C386 0.950 . S
H379 C388 0.950 . S
H380 C390 0.950 . S
H381 C392 0.950 . S
H382 C394 0.950 . S
H383 C395 0.950 . S
C384 H376 0.950 . S
C384 C385 1.386 . S
C384 C386 1.391 . S
C385 C384 1.386 . S
C385 C389 1.393 . S
C386 H378 0.950 . S
C386 C384 1.391 . S
C386 C387 1.400 . S
C387 C386 1.400 . S
C387 C388 1.398 . S
C387 C393 1.491 . S
C388 H379 0.950 . S
C388 C387 1.398 . S
C388 C389 1.391 . S
C389 H377 0.950 . S
C389 C385 1.393 . S
C389 C388 1.391 . S
C390 H380 0.950 . S
C390 C391 1.386 . S
C390 C392 1.391 . S
C391 C390 1.386 . S
C391 C395 1.393 . S
C392 H381 0.950 . S
C392 C390 1.391 . S
C392 C393 1.400 . S
C393 C387 1.491 . S
C393 C392 1.400 . S
C393 C394 1.398 . S
C394 H382 0.950 . S
C394 C393 1.398 . S
C394 C395 1.391 . S
C395 H383 0.950 . S
C395 C391 1.393 . S
C395 C394 1.391 . S
H396 C404 0.950 . S
H397 C409 0.950 . S
H398 C406 0.950 . S
H399 C408 0.950 . S
H400 C410 0.950 . S
H401 C412 0.950 . S
H402 C414 0.950 . S
H403 C415 0.950 1_554 S
C404 H396 0.950 . S
C404 C405 1.386 . S
C404 C406 1.391 . S
C405 C404 1.386 . S
C405 C409 1.393 . S
C406 H398 0.950 . S
C406 C404 1.391 . S
C406 C407 1.400 . S
C407 C406 1.400 . S
C407 C408 1.398 . S
C407 C413 1.491 . S
C408 H399 0.950 . S
C408 C407 1.398 . S
C408 C409 1.391 . S
C409 H397 0.950 . S
C409 C405 1.393 . S
C409 C408 1.391 . S
C410 H400 0.950 . S
C410 C411 1.386 . S
C410 C412 1.391 . S
C411 C410 1.386 . S
C411 C415 1.393 . S
C412 H401 0.950 . S
C412 C410 1.391 . S
C412 C413 1.400 . S
C413 C407 1.491 . S
C413 C412 1.400 . S
C413 C414 1.398 . S
C414 H402 0.950 . S
C414 C413 1.398 . S
C414 C415 1.391 . S
C415 H403 0.950 1_556 S
C415 C411 1.393 . S
C415 C414 1.391 . S
H416 C424 0.950 . S
H417 C429 0.950 . S
H418 C426 0.950 . S
H419 C428 0.950 . S
H420 C430 0.950 . S
H421 C432 0.950 . S
H422 C434 0.950 . S
H423 C435 0.950 . S
C424 H416 0.950 . S
C424 C425 1.386 . S
C424 C426 1.391 . S
C425 C424 1.386 . S
C425 C429 1.393 . S
C426 H418 0.950 . S
C426 C424 1.391 . S
C426 C427 1.400 . S
C427 C426 1.400 . S
C427 C428 1.398 . S
C427 C433 1.491 . S
C428 H419 0.950 . S
C428 C427 1.398 . S
C428 C429 1.391 . S
C429 H417 0.950 . S
C429 C425 1.393 . S
C429 C428 1.391 . S
C430 H420 0.950 . S
C430 C431 1.386 . S
C430 C432 1.391 . S
C431 C430 1.386 . S
C431 C435 1.393 . S
C432 H421 0.950 . S
C432 C430 1.391 . S
C432 C433 1.400 . S
C433 C427 1.491 . S
C433 C432 1.400 . S
C433 C434 1.398 . S
C434 H422 0.950 . S
C434 C433 1.398 . S
C434 C435 1.391 . S
C435 H423 0.950 . S
C435 C431 1.393 . S
C435 C434 1.391 . S
H436 C444 0.950 . S
H437 C449 0.950 . S
H438 C446 0.950 . S
H439 C448 0.950 . S
H440 C450 0.950 . S
H441 C452 0.950 . S
H442 C454 0.950 . S
H443 C455 0.950 . S
C444 H436 0.950 . S
C444 C445 1.386 . S
C444 C446 1.391 . S
C445 C444 1.386 . S
C445 C449 1.393 . S
C446 H438 0.950 . S
C446 C444 1.391 . S
C446 C447 1.400 . S
C447 C446 1.400 . S
C447 C448 1.398 . S
C447 C453 1.491 . S
C448 H439 0.950 . S
C448 C447 1.398 . S
C448 C449 1.391 . S
C449 H437 0.950 . S
C449 C445 1.393 . S
C449 C448 1.391 . S
C450 H440 0.950 . S
C450 C451 1.386 . S
C450 C452 1.391 . S
C451 C450 1.386 . S
C451 C455 1.393 . S
C452 H441 0.950 . S
C452 C450 1.391 . S
C452 C453 1.400 . S
C453 C447 1.491 . S
C453 C452 1.400 . S
C453 C454 1.398 . S
C454 H442 0.950 . S
C454 C453 1.398 . S
C454 C455 1.391 . S
C455 H443 0.950 . S
C455 C451 1.393 . S
C455 C454 1.391 . S
H456 C464 0.950 . S
H457 C469 0.950 . S
H458 C466 0.950 . S
H459 C468 0.950 . S
H460 C470 0.950 . S
H461 C472 0.950 . S
H462 C474 0.950 . S
H463 C475 0.950 . S
C464 H456 0.950 . S
C464 C465 1.386 . S
C464 C466 1.391 . S
C465 C464 1.386 . S
C465 C469 1.393 . S
C466 H458 0.950 . S
C466 C464 1.391 . S
C466 C467 1.400 . S
C467 C466 1.400 . S
C467 C468 1.398 . S
C467 C473 1.491 . S
C468 H459 0.950 . S
C468 C467 1.398 . S
C468 C469 1.391 . S
C469 H457 0.950 . S
C469 C465 1.393 . S
C469 C468 1.391 . S
C470 H460 0.950 . S
C470 C471 1.386 . S
C470 C472 1.391 . S
C471 C470 1.386 . S
C471 C475 1.393 . S
C472 H461 0.950 . S
C472 C470 1.391 . S
C472 C473 1.400 . S
C473 C467 1.491 . S
C473 C472 1.400 . S
C473 C474 1.398 . S
C474 H462 0.950 . S
C474 C473 1.398 . S
C474 C475 1.391 . S
C475 H463 0.950 . S
C475 C471 1.393 . S
C475 C474 1.391 . S
H476 C484 0.950 . S
H477 C489 0.950 . S
H478 C486 0.950 . S
H479 C488 0.950 . S
H480 C490 0.950 . S
H481 C492 0.950 . S
H482 C494 0.950 . S
H483 C495 0.950 . S
C484 H476 0.950 . S
C484 C485 1.386 . S
C484 C486 1.391 . S
C485 C484 1.386 . S
C485 C489 1.393 . S
C486 H478 0.950 . S
C486 C484 1.391 . S
C486 C487 1.400 . S
C487 C486 1.400 . S
C487 C488 1.398 . S
C487 C493 1.491 . S
C488 H479 0.950 . S
C488 C487 1.398 . S
C488 C489 1.391 . S
C489 H477 0.950 . S
C489 C485 1.393 . S
C489 C488 1.391 . S
C490 H480 0.950 . S
C490 C491 1.386 . S
C490 C492 1.391 . S
C491 C490 1.386 . S
C491 C495 1.393 . S
C492 H481 0.950 . S
C492 C490 1.391 . S
C492 C493 1.400 . S
C493 C487 1.491 . S
C493 C492 1.400 . S
C493 C494 1.398 . S
C494 H482 0.950 . S
C494 C493 1.398 . S
C494 C495 1.391 . S
C495 H483 0.950 . S
C495 C491 1.393 . S
C495 C494 1.391 . S
H496 C504 0.950 . S
H497 C509 0.950 . S
H498 C506 0.950 . S
H499 C508 0.950 . S
H500 C510 0.950 . S
H501 C512 0.950 . S
H502 C514 0.950 . S
H503 C515 0.950 . S
C504 H496 0.950 . S
C504 C505 1.386 . S
C504 C506 1.391 . S
C505 C504 1.386 . S
C505 C509 1.393 . S
C506 H498 0.950 . S
C506 C504 1.391 . S
C506 C507 1.400 . S
C507 C506 1.400 . S
C507 C508 1.398 . S
C507 C513 1.491 . S
C508 H499 0.950 . S
C508 C507 1.398 . S
C508 C509 1.391 . S
C509 H497 0.950 . S
C509 C505 1.393 . S
C509 C508 1.391 . S
C510 H500 0.950 . S
C510 C511 1.386 . S
C510 C512 1.391 . S
C511 C510 1.386 . S
C511 C515 1.393 . S
C512 H501 0.950 . S
C512 C510 1.391 . S
C512 C513 1.400 . S
C513 C507 1.491 . S
C513 C512 1.400 . S
C513 C514 1.398 . S
C514 H502 0.950 . S
C514 C513 1.398 . S
C514 C515 1.391 . S
C515 H503 0.950 . S
C515 C511 1.393 . S
C515 C514 1.391 . S
H516 C524 0.950 . S
H517 C529 0.950 . S
H518 C526 0.950 . S
H519 C528 0.950 . S
H520 C530 0.950 . S
H521 C532 0.950 . S
H522 C534 0.950 . S
H523 C535 0.950 . S
C524 H516 0.950 . S
C524 C525 1.386 . S
C524 C526 1.391 . S
C525 C524 1.386 . S
C525 C529 1.393 . S
C526 H518 0.950 . S
C526 C524 1.391 . S
C526 C527 1.400 . S
C527 C526 1.400 . S
C527 C528 1.398 . S
C527 C533 1.491 . S
C528 H519 0.950 . S
C528 C527 1.398 . S
C528 C529 1.391 . S
C529 H517 0.950 . S
C529 C525 1.393 . S
C529 C528 1.391 . S
C530 H520 0.950 . S
C530 C531 1.386 . S
C530 C532 1.391 . S
C531 C530 1.386 . S
C531 C535 1.393 . S
C532 H521 0.950 . S
C532 C530 1.391 . S
C532 C533 1.400 . S
C533 C527 1.491 . S
C533 C532 1.400 . S
C533 C534 1.398 . S
C534 H522 0.950 . S
C534 C533 1.398 . S
C534 C535 1.391 . S
C535 H523 0.950 . S
C535 C531 1.393 . S
C535 C534 1.391 . S
H536 C544 0.950 . S
H537 C549 0.950 . S
H538 C546 0.950 . S
H539 C548 0.950 . S
H540 C550 0.950 . S
H541 C552 0.950 . S
H542 C554 0.950 . S
H543 C555 0.950 . S
C544 H536 0.950 . S
C544 C545 1.386 . S
C544 C546 1.391 . S
C545 C544 1.386 . S
C545 C549 1.393 . S
C546 H538 0.950 . S
C546 C544 1.391 . S
C546 C547 1.400 . S
C547 C546 1.400 . S
C547 C548 1.398 . S
C547 C553 1.491 . S
C548 H539 0.950 . S
C548 C547 1.398 . S
C548 C549 1.391 . S
C549 H537 0.950 . S
C549 C545 1.393 . S
C549 C548 1.391 . S
C550 H540 0.950 . S
C550 C551 1.386 . S
C550 C552 1.391 . S
C551 C550 1.386 . S
C551 C555 1.393 . S
C552 H541 0.950 . S
C552 C550 1.391 . S
C552 C553 1.400 . S
C553 C547 1.491 . S
C553 C552 1.400 . S
C553 C554 1.398 . S
C554 H542 0.950 . S
C554 C553 1.398 . S
C554 C555 1.391 . S
C555 H543 0.950 . S
C555 C551 1.393 . S
C555 C554 1.391 . S
H556 C564 0.950 . S
H557 C569 0.950 . S
H558 C566 0.950 . S
H559 C568 0.950 . S
H560 C570 0.950 . S
H561 C572 0.950 . S
H562 C574 0.950 . S
H563 C575 0.950 . S
C564 H556 0.950 . S
C564 C565 1.386 . S
C564 C566 1.391 . S
C565 C564 1.386 . S
C565 C569 1.393 . S
C566 H558 0.950 . S
C566 C564 1.391 . S
C566 C567 1.400 . S
C567 C566 1.400 . S
C567 C568 1.398 . S
C567 C573 1.491 . S
C568 H559 0.950 . S
C568 C567 1.398 . S
C568 C569 1.391 . S
C569 H557 0.950 . S
C569 C565 1.393 . S
C569 C568 1.391 . S
C570 H560 0.950 . S
C570 C571 1.386 . S
C570 C572 1.391 . S
C571 C570 1.386 . S
C571 C575 1.393 . S
C572 H561 0.950 . S
C572 C570 1.391 . S
C572 C573 1.400 . S
C573 C567 1.491 . S
C573 C572 1.400 . S
C573 C574 1.398 . S
C574 H562 0.950 . S
C574 C573 1.398 . S
C574 C575 1.391 . S
C575 H563 0.950 . S
C575 C571 1.393 . S
C575 C574 1.391 . S
H576 C584 0.950 . S
H577 C589 0.950 . S
H578 C586 0.950 . S
H579 C588 0.950 . S
H580 C590 0.950 . S
H581 C592 0.950 . S
H582 C594 0.950 . S
H583 C595 0.950 . S
C584 H576 0.950 . S
C584 C585 1.386 . S
C584 C586 1.391 . S
C585 C584 1.386 . S
C585 C589 1.393 . S
C586 H578 0.950 . S
C586 C584 1.391 . S
C586 C587 1.400 . S
C587 C586 1.400 . S
C587 C588 1.398 . S
C587 C593 1.491 . S
C588 H579 0.950 . S
C588 C587 1.398 . S
C588 C589 1.391 . S
C589 H577 0.950 . S
C589 C585 1.393 . S
C589 C588 1.391 . S
C590 H580 0.950 . S
C590 C591 1.386 . S
C590 C592 1.391 . S
C591 C590 1.386 . S
C591 C595 1.393 . S
C592 H581 0.950 . S
C592 C590 1.391 . S
C592 C593 1.400 1_556 S
C593 C587 1.491 . S
C593 C592 1.400 1_554 S
C593 C594 1.398 . S
C594 H582 0.950 . S
C594 C593 1.398 . S
C594 C595 1.391 1_554 S
C595 H583 0.950 . S
C595 C591 1.393 . S
C595 C594 1.391 1_556 S
H596 C604 0.950 . S
H597 C609 0.950 . S
H598 C606 0.950 . S
H599 C608 0.950 . S
H600 C610 0.950 . S
H601 C612 0.950 . S
H602 C614 0.950 . S
H603 C615 0.950 . S
C604 H596 0.950 . S
C604 C605 1.386 . S
C604 C606 1.391 . S
C605 C604 1.386 . S
C605 C609 1.393 . S
C606 H598 0.950 . S
C606 C604 1.391 . S
C606 C607 1.400 . S
C607 C606 1.400 . S
C607 C608 1.398 . S
C607 C613 1.491 . S
C608 H599 0.950 . S
C608 C607 1.398 . S
C608 C609 1.391 . S
C609 H597 0.950 . S
C609 C605 1.393 . S
C609 C608 1.391 . S
C610 H600 0.950 . S
C610 C611 1.386 . S
C610 C612 1.391 . S
C611 C610 1.386 . S
C611 C615 1.393 . S
C612 H601 0.950 . S
C612 C610 1.391 . S
C612 C613 1.400 . S
C613 C607 1.491 . S
C613 C612 1.400 . S
C613 C614 1.398 . S
C614 H602 0.950 . S
C614 C613 1.398 . S
C614 C615 1.391 . S
C615 H603 0.950 . S
C615 C611 1.393 . S
C615 C614 1.391 . S
H616 C624 0.950 1_556 S
H617 C629 0.950 . S
H618 C626 0.950 . S
H619 C628 0.950 . S
H620 C630 0.950 . S
H621 C632 0.950 . S
H622 C634 0.950 . S
H623 C635 0.950 . S
C624 H616 0.950 1_554 S
C624 C625 1.386 . S
C624 C626 1.391 1_554 S
C625 C624 1.386 . S
C625 C629 1.393 . S
C626 H618 0.950 . S
C626 C624 1.391 1_556 S
C626 C627 1.400 . S
C627 C626 1.400 . S
C627 C628 1.398 1_556 S
C627 C633 1.491 . S
C628 H619 0.950 . S
C628 C627 1.398 1_554 S
C628 C629 1.391 . S
C629 H617 0.950 . S
C629 C625 1.393 . S
C629 C628 1.391 . S
C630 H620 0.950 . S
C630 C631 1.386 . S
C630 C632 1.391 . S
C631 C630 1.386 . S
C631 C635 1.393 . S
C632 H621 0.950 . S
C632 C630 1.391 . S
C632 C633 1.400 . S
C633 C627 1.491 . S
C633 C632 1.400 . S
C633 C634 1.398 . S
C634 H622 0.950 . S
C634 C633 1.398 . S
C634 C635 1.391 . S
C635 H623 0.950 . S
C635 C631 1.393 . S
C635 C634 1.391 . S
H636 C644 0.950 . S
H637 C649 0.950 . S
H638 C646 0.950 . S
H639 C648 0.950 . S
H640 C650 0.950 . S
H641 C652 0.950 . S
H642 C654 0.950 . S
H643 C655 0.950 . S
C644 H636 0.950 . S
C644 C645 1.386 . S
C644 C646 1.391 . S
C645 C644 1.386 . S
C645 C649 1.393 . S
C646 H638 0.950 . S
C646 C644 1.391 . S
C646 C647 1.400 . S
C647 C646 1.400 . S
C647 C648 1.398 . S
C647 C653 1.491 . S
C648 H639 0.950 . S
C648 C647 1.398 . S
C648 C649 1.391 . S
C649 H637 0.950 . S
C649 C645 1.393 . S
C649 C648 1.391 . S
C650 H640 0.950 . S
C650 C651 1.386 . S
C650 C652 1.391 . S
C651 C650 1.386 . S
C651 C655 1.393 . S
C652 H641 0.950 . S
C652 C650 1.391 . S
C652 C653 1.400 . S
C653 C647 1.491 . S
C653 C652 1.400 . S
C653 C654 1.398 . S
C654 H642 0.950 . S
C654 C653 1.398 . S
C654 C655 1.391 . S
C655 H643 0.950 . S
C655 C651 1.393 . S
C655 C654 1.391 . S
H656 C664 0.950 . S
H657 C669 0.950 . S
H658 C666 0.950 . S
H659 C668 0.950 . S
H660 C670 0.950 . S
H661 C672 0.950 . S
H662 C674 0.950 . S
H663 C675 0.950 . S
C664 H656 0.950 . S
C664 C665 1.386 . S
C664 C666 1.391 . S
C665 C664 1.386 . S
C665 C669 1.393 . S
C666 H658 0.950 . S
C666 C664 1.391 . S
C666 C667 1.400 . S
C667 C666 1.400 . S
C667 C668 1.398 . S
C667 C673 1.491 . S
C668 H659 0.950 . S
C668 C667 1.398 . S
C668 C669 1.391 . S
C669 H657 0.950 . S
C669 C665 1.393 . S
C669 C668 1.391 . S
C670 H660 0.950 . S
C670 C671 1.386 . S
C670 C672 1.391 . S
C671 C670 1.386 . S
C671 C675 1.393 . S
C672 H661 0.950 . S
C672 C670 1.391 . S
C672 C673 1.400 . S
C673 C667 1.491 . S
C673 C672 1.400 . S
C673 C674 1.398 . S
C674 H662 0.950 . S
C674 C673 1.398 . S
C674 C675 1.391 . S
C675 H663 0.950 . S
C675 C671 1.393 . S
C675 C674 1.391 . S
H676 C684 0.950 . S
H677 C689 0.950 . S
H678 C686 0.950 . S
H679 C688 0.950 . S
H680 C690 0.950 . S
H681 C692 0.950 . S
H682 C694 0.950 . S
H683 C695 0.950 . S
C684 H676 0.950 . S
C684 C685 1.386 . S
C684 C686 1.391 . S
C685 C684 1.386 . S
C685 C689 1.393 . S
C686 H678 0.950 . S
C686 C684 1.391 . S
C686 C687 1.400 . S
C687 C686 1.400 . S
C687 C688 1.398 . S
C687 C693 1.491 . S
C688 H679 0.950 . S
C688 C687 1.398 . S
C688 C689 1.391 . S
C689 H677 0.950 . S
C689 C685 1.393 . S
C689 C688 1.391 . S
C690 H680 0.950 . S
C690 C691 1.386 . S
C690 C692 1.391 . S
C691 C690 1.386 . S
C691 C695 1.393 . S
C692 H681 0.950 . S
C692 C690 1.391 . S
C692 C693 1.400 . S
C693 C687 1.491 . S
C693 C692 1.400 . S
C693 C694 1.398 . S
C694 H682 0.950 . S
C694 C693 1.398 . S
C694 C695 1.391 . S
C695 H683 0.950 . S
C695 C691 1.393 . S
C695 C694 1.391 . S
H696 C704 0.950 . S
H697 C709 0.950 . S
H698 C706 0.950 . S
H699 C708 0.950 . S
H700 C710 0.950 . S
H701 C712 0.950 . S
H702 C714 0.950 . S
H703 C715 0.950 . S
C704 H696 0.950 . S
C704 C705 1.386 . S
C704 C706 1.391 . S
C705 C704 1.386 . S
C705 C709 1.393 . S
C706 H698 0.950 . S
C706 C704 1.391 . S
C706 C707 1.400 . S
C707 C706 1.400 . S
C707 C708 1.398 . S
C707 C713 1.491 . S
C708 H699 0.950 . S
C708 C707 1.398 . S
C708 C709 1.391 . S
C709 H697 0.950 . S
C709 C705 1.393 . S
C709 C708 1.391 . S
C710 H700 0.950 . S
C710 C711 1.386 . S
C710 C712 1.391 1_565 S
C711 C710 1.386 . S
C711 C715 1.393 . S
C712 H701 0.950 . S
C712 C710 1.391 1_545 S
C712 C713 1.400 . S
C713 C707 1.491 . S
C713 C712 1.400 . S
C713 C714 1.398 1_545 S
C714 H702 0.950 . S
C714 C713 1.398 1_565 S
C714 C715 1.391 . S
C715 H703 0.950 . S
C715 C711 1.393 . S
C715 C714 1.391 . S
H716 C724 0.950 . S
H717 C729 0.950 . S
H718 C726 0.950 . S
H719 C728 0.950 . S
H720 C730 0.950 . S
H721 C732 0.950 . S
H722 C734 0.950 . S
H723 C735 0.950 . S
C724 H716 0.950 . S
C724 C725 1.386 . S
C724 C726 1.391 . S
C725 C724 1.386 . S
C725 C729 1.393 . S
C726 H718 0.950 . S
C726 C724 1.391 . S
C726 C727 1.400 . S
C727 C726 1.400 . S
C727 C728 1.398 . S
C727 C733 1.491 . S
C728 H719 0.950 . S
C728 C727 1.398 . S
C728 C729 1.391 . S
C729 H717 0.950 . S
C729 C725 1.393 . S
C729 C728 1.391 . S
C730 H720 0.950 . S
C730 C731 1.386 . S
C730 C732 1.391 . S
C731 C730 1.386 . S
C731 C735 1.393 . S
C732 H721 0.950 . S
C732 C730 1.391 . S
C732 C733 1.400 . S
C733 C727 1.491 . S
C733 C732 1.400 . S
C733 C734 1.398 . S
C734 H722 0.950 . S
C734 C733 1.398 . S
C734 C735 1.391 . S
C735 H723 0.950 . S
C735 C731 1.393 . S
C735 C734 1.391 . S
H736 C744 0.950 . S
H737 C749 0.950 . S
H738 C746 0.950 . S
H739 C748 0.950 . S
H740 C750 0.950 . S
H741 C752 0.950 . S
H742 C754 0.950 . S
H743 C755 0.950 1_556 S
C744 H736 0.950 . S
C744 C745 1.386 . S
C744 C746 1.391 . S
C745 C744 1.386 . S
C745 C749 1.393 . S
C746 H738 0.950 . S
C746 C744 1.391 . S
C746 C747 1.400 1_545 S
C747 C746 1.400 1_565 S
C747 C748 1.398 . S
C747 C753 1.491 . S
C748 H739 0.950 . S
C748 C747 1.398 . S
C748 C749 1.391 1_565 S
C749 H737 0.950 . S
C749 C745 1.393 . S
C749 C748 1.391 1_545 S
C750 H740 0.950 . S
C750 C751 1.386 . S
C750 C752 1.391 . S
C751 C750 1.386 . S
C751 C755 1.393 . S
C752 H741 0.950 . S
C752 C750 1.391 . S
C752 C753 1.400 . S
C753 C747 1.491 . S
C753 C752 1.400 . S
C753 C754 1.398 . S
C754 H742 0.950 . S
C754 C753 1.398 . S
C754 C755 1.391 . S
C755 H743 0.950 1_554 S
C755 C751 1.393 . S
C755 C754 1.391 . S
H756 C764 0.950 . S
H757 C769 0.950 . S
H758 C766 0.950 . S
H759 C768 0.950 . S
H760 C770 0.950 . S
H761 C772 0.950 . S
H762 C774 0.950 . S
H763 C775 0.950 . S
C764 H756 0.950 . S
C764 C765 1.386 . S
C764 C766 1.391 . S
C765 C764 1.386 . S
C765 C769 1.393 . S
C766 H758 0.950 . S
C766 C764 1.391 . S
C766 C767 1.400 . S
C767 C766 1.400 . S
C767 C768 1.398 . S
C767 C773 1.491 . S
C768 H759 0.950 . S
C768 C767 1.398 . S
C768 C769 1.391 . S
C769 H757 0.950 . S
C769 C765 1.393 . S
C769 C768 1.391 . S
C770 H760 0.950 . S
C770 C771 1.386 . S
C770 C772 1.391 . S
C771 C770 1.386 . S
C771 C775 1.393 . S
C772 H761 0.950 . S
C772 C770 1.391 . S
C772 C773 1.400 . S
C773 C767 1.491 . S
C773 C772 1.400 . S
C773 C774 1.398 . S
C774 H762 0.950 . S
C774 C773 1.398 . S
C774 C775 1.391 . S
C775 H763 0.950 . S
C775 C771 1.393 . S
C775 C774 1.391 . S
H776 C784 0.950 . S
H777 C789 0.950 . S
H778 C786 0.950 . S
H779 C788 0.950 . S
H780 C790 0.950 . S
H781 C792 0.950 . S
H782 C794 0.950 . S
H783 C795 0.950 . S
C784 H776 0.950 . S
C784 C785 1.386 . S
C784 C786 1.391 . S
C785 C784 1.386 . S
C785 C789 1.393 . S
C786 H778 0.950 . S
C786 C784 1.391 . S
C786 C787 1.400 . S
C787 C786 1.400 . S
C787 C788 1.398 . S
C787 C793 1.491 . S
C788 H779 0.950 . S
C788 C787 1.398 . S
C788 C789 1.391 . S
C789 H777 0.950 . S
C789 C785 1.393 . S
C789 C788 1.391 . S
C790 H780 0.950 . S
C790 C791 1.386 . S
C790 C792 1.391 . S
C791 C790 1.386 . S
C791 C795 1.393 . S
C792 H781 0.950 . S
C792 C790 1.391 . S
C792 C793 1.400 . S
C793 C787 1.491 . S
C793 C792 1.400 . S
C793 C794 1.398 . S
C794 H782 0.950 . S
C794 C793 1.398 . S
C794 C795 1.391 . S
C795 H783 0.950 . S
C795 C791 1.393 . S
C795 C794 1.391 . S
H796 C804 0.950 . S
H797 C809 0.950 . S
H798 C806 0.950 . S
H799 C808 0.950 . S
H800 C810 0.950 . S
H801 C812 0.950 . S
H802 C814 0.950 . S
H803 C815 0.950 . S
C804 H796 0.950 . S
C804 C805 1.386 . S
C804 C806 1.391 . S
C805 C804 1.386 . S
C805 C809 1.393 . S
C806 H798 0.950 . S
C806 C804 1.391 . S
C806 C807 1.400 . S
C807 C806 1.400 . S
C807 C808 1.398 . S
C807 C813 1.491 . S
C808 H799 0.950 . S
C808 C807 1.398 . S
C808 C809 1.391 . S
C809 H797 0.950 . S
C809 C805 1.393 . S
C809 C808 1.391 . S
C810 H800 0.950 . S
C810 C811 1.386 . S
C810 C812 1.391 . S
C811 C810 1.386 . S
C811 C815 1.393 . S
C812 H801 0.950 . S
C812 C810 1.391 . S
C812 C813 1.400 . S
C813 C807 1.491 . S
C813 C812 1.400 . S
C813 C814 1.398 . S
C814 H802 0.950 . S
C814 C813 1.398 . S
C814 C815 1.391 . S
C815 H803 0.950 . S
C815 C811 1.393 . S
C815 C814 1.391 . S
H816 C824 0.950 . S
H817 C829 0.950 . S
H818 C826 0.950 . S
H819 C828 0.950 . S
H820 C830 0.950 . S
H821 C832 0.950 . S
H822 C834 0.950 . S
H823 C835 0.950 . S
C824 H816 0.950 . S
C824 C825 1.386 . S
C824 C826 1.391 . S
C825 C824 1.386 . S
C825 C829 1.393 . S
C826 H818 0.950 . S
C826 C824 1.391 . S
C826 C827 1.400 . S
C827 C826 1.400 . S
C827 C828 1.398 . S
C827 C833 1.491 . S
C828 H819 0.950 . S
C828 C827 1.398 . S
C828 C829 1.391 . S
C829 H817 0.950 . S
C829 C825 1.393 . S
C829 C828 1.391 . S
C830 H820 0.950 . S
C830 C831 1.386 . S
C830 C832 1.391 . S
C831 C830 1.386 . S
C831 C835 1.393 . S
C832 H821 0.950 . S
C832 C830 1.391 . S
C832 C833 1.400 . S
C833 C827 1.491 . S
C833 C832 1.400 . S
C833 C834 1.398 . S
C834 H822 0.950 . S
C834 C833 1.398 . S
C834 C835 1.391 . S
C835 H823 0.950 . S
C835 C831 1.393 . S
C835 C834 1.391 . S
H836 C844 0.950 . S
H837 C849 0.950 . S
H838 C846 0.950 . S
H839 C848 0.950 . S
H840 C850 0.950 . S
H841 C852 0.950 . S
H842 C854 0.950 . S
H843 C855 0.950 . S
C844 H836 0.950 . S
C844 C845 1.386 . S
C844 C846 1.391 . S
C845 C844 1.386 . S
C845 C849 1.393 . S
C846 H838 0.950 . S
C846 C844 1.391 . S
C846 C847 1.400 . S
C847 C846 1.400 . S
C847 C848 1.398 . S
C847 C853 1.491 . S
C848 H839 0.950 . S
C848 C847 1.398 . S
C848 C849 1.391 . S
C849 H837 0.950 . S
C849 C845 1.393 . S
C849 C848 1.391 . S
C850 H840 0.950 . S
C850 C851 1.386 . S
C850 C852 1.391 . S
C851 C850 1.386 . S
C851 C855 1.393 . S
C852 H841 0.950 . S
C852 C850 1.391 . S
C852 C853 1.400 . S
C853 C847 1.491 . S
C853 C852 1.400 . S
C853 C854 1.398 . S
C854 H842 0.950 . S
C854 C853 1.398 . S
C854 C855 1.391 . S
C855 H843 0.950 . S
C855 C851 1.393 . S
C855 C854 1.391 . S
H856 C864 0.950 . S
H857 C869 0.950 . S
H858 C866 0.950 . S
H859 C868 0.950 . S
H860 C870 0.950 . S
H861 C872 0.950 . S
H862 C874 0.950 . S
H863 C875 0.950 . S
C864 H856 0.950 . S
C864 C865 1.386 . S
C864 C866 1.391 . S
C865 C864 1.386 . S
C865 C869 1.393 . S
C866 H858 0.950 . S
C866 C864 1.391 . S
C866 C867 1.400 . S
C867 C866 1.400 . S
C867 C868 1.398 . S
C867 C873 1.491 . S
C868 H859 0.950 . S
C868 C867 1.398 . S
C868 C869 1.391 . S
C869 H857 0.950 . S
C869 C865 1.393 . S
C869 C868 1.391 . S
C870 H860 0.950 . S
C870 C871 1.386 . S
C870 C872 1.391 . S
C871 C870 1.386 . S
C871 C875 1.393 . S
C872 H861 0.950 . S
C872 C870 1.391 . S
C872 C873 1.400 . S
C873 C867 1.491 . S
C873 C872 1.400 . S
C873 C874 1.398 . S
C874 H862 0.950 . S
C874 C873 1.398 . S
C874 C875 1.391 . S
C875 H863 0.950 . S
C875 C871 1.393 . S
C875 C874 1.391 . S
H876 C884 0.950 . S
H877 C889 0.950 . S
H878 C886 0.950 . S
H879 C888 0.950 . S
H880 C890 0.950 . S
H881 C892 0.950 . S
H882 C894 0.950 . S
H883 C895 0.950 . S
C884 H876 0.950 . S
C884 C885 1.386 . S
C884 C886 1.391 . S
C885 C884 1.386 . S
C885 C889 1.393 . S
C886 H878 0.950 . S
C886 C884 1.391 . S
C886 C887 1.400 . S
C887 C886 1.400 . S
C887 C888 1.398 . S
C887 C893 1.491 . S
C888 H879 0.950 . S
C888 C887 1.398 . S
C888 C889 1.391 . S
C889 H877 0.950 . S
C889 C885 1.393 . S
C889 C888 1.391 . S
C890 H880 0.950 . S
C890 C891 1.386 . S
C890 C892 1.391 1_655 S
C891 C890 1.386 . S
C891 C895 1.393 . S
C892 H881 0.950 . S
C892 C890 1.391 1_455 S
C892 C893 1.400 . S
C893 C887 1.491 . S
C893 C892 1.400 . S
C893 C894 1.398 1_455 S
C894 H882 0.950 . S
C894 C893 1.398 1_655 S
C894 C895 1.391 . S
C895 H883 0.950 . S
C895 C891 1.393 . S
C895 C894 1.391 . S
H896 C904 0.950 . S
H897 C909 0.950 . S
H898 C906 0.950 . S
H899 C908 0.950 . S
H900 C910 0.950 . S
H901 C912 0.950 . S
H902 C914 0.950 . S
H903 C915 0.950 . S
C904 H896 0.950 . S
C904 C905 1.386 . S
C904 C906 1.391 . S
C905 C904 1.386 . S
C905 C909 1.393 . S
C906 H898 0.950 . S
C906 C904 1.391 . S
C906 C907 1.400 . S
C907 C906 1.400 . S
C907 C908 1.398 . S
C907 C913 1.491 . S
C908 H899 0.950 . S
C908 C907 1.398 . S
C908 C909 1.391 . S
C909 H897 0.950 . S
C909 C905 1.393 . S
C909 C908 1.391 . S
C910 H900 0.950 . S
C910 C911 1.386 . S
C910 C912 1.391 . S
C911 C910 1.386 . S
C911 C915 1.393 . S
C912 H901 0.950 . S
C912 C910 1.391 . S
C912 C913 1.400 . S
C913 C907 1.491 . S
C913 C912 1.400 . S
C913 C914 1.398 . S
C914 H902 0.950 . S
C914 C913 1.398 . S
C914 C915 1.391 . S
C915 H903 0.950 . S
C915 C911 1.393 . S
C915 C914 1.391 . S
H916 C924 0.950 . S
H917 C929 0.950 . S
H918 C926 0.950 . S
H919 C928 0.950 . S
H920 C930 0.950 . S
H921 C932 0.950 . S
H922 C934 0.950 . S
H923 C935 0.950 . S
C924 H916 0.950 . S
C924 C925 1.386 . S
C924 C926 1.391 . S
C925 C924 1.386 . S
C925 C929 1.393 . S
C926 H918 0.950 . S
C926 C924 1.391 . S
C926 C927 1.400 . S
C927 C926 1.400 . S
C927 C928 1.398 . S
C927 C933 1.491 . S
C928 H919 0.950 . S
C928 C927 1.398 . S
C928 C929 1.391 . S
C929 H917 0.950 . S
C929 C925 1.393 . S
C929 C928 1.391 . S
C930 H920 0.950 . S
C930 C931 1.386 . S
C930 C932 1.391 . S
C931 C930 1.386 . S
C931 C935 1.393 . S
C932 H921 0.950 . S
C932 C930 1.391 . S
C932 C933 1.400 . S
C933 C927 1.491 . S
C933 C932 1.400 . S
C933 C934 1.398 . S
C934 H922 0.950 . S
C934 C933 1.398 . S
C934 C935 1.391 . S
C935 H923 0.950 . S
C935 C931 1.393 . S
C935 C934 1.391 . S
H936 C944 0.950 . S
H937 C949 0.950 . S
H938 C946 0.950 . S
H939 C948 0.950 . S
H940 C950 0.950 . S
H941 C952 0.950 . S
H942 C954 0.950 . S
H943 C955 0.950 . S
C944 H936 0.950 . S
C944 C945 1.386 . S
C944 C946 1.391 . S
C945 C944 1.386 . S
C945 C949 1.393 . S
C946 H938 0.950 . S
C946 C944 1.391 . S
C946 C947 1.400 . S
C947 C946 1.400 . S
C947 C948 1.398 . S
C947 C953 1.491 . S
C948 H939 0.950 . S
C948 C947 1.398 . S
C948 C949 1.391 . S
C949 H937 0.950 . S
C949 C945 1.393 . S
C949 C948 1.391 . S
C950 H940 0.950 . S
C950 C951 1.386 . S
C950 C952 1.391 . S
C951 C950 1.386 . S
C951 C955 1.393 . S
C952 H941 0.950 . S
C952 C950 1.391 . S
C952 C953 1.400 . S
C953 C947 1.491 . S
C953 C952 1.400 . S
C953 C954 1.398 . S
C954 H942 0.950 . S
C954 C953 1.398 . S
C954 C955 1.391 . S
C955 H943 0.950 . S
C955 C951 1.393 . S
C955 C954 1.391 . S
H956 C964 0.950 . S
H957 C969 0.950 . S
H958 C966 0.950 . S
H959 C968 0.950 . S
H960 C970 0.950 . S
H961 C972 0.950 . S
H962 C974 0.950 . S
H963 C975 0.950 1_545 S
C964 H956 0.950 . S
C964 C965 1.386 . S
C964 C966 1.391 . S
C965 C964 1.386 . S
C965 C969 1.393 . S
C966 H958 0.950 . S
C966 C964 1.391 . S
C966 C967 1.400 . S
C967 C966 1.400 . S
C967 C968 1.398 . S
C967 C973 1.491 . S
C968 H959 0.950 . S
C968 C967 1.398 . S
C968 C969 1.391 . S
C969 H957 0.950 . S
C969 C965 1.393 . S
C969 C968 1.391 . S
C970 H960 0.950 . S
C970 C971 1.386 . S
C970 C972 1.391 . S
C971 C970 1.386 . S
C971 C975 1.393 . S
C972 H961 0.950 . S
C972 C970 1.391 . S
C972 C973 1.400 . S
C973 C967 1.491 . S
C973 C972 1.400 . S
C973 C974 1.398 . S
C974 H962 0.950 . S
C974 C973 1.398 . S
C974 C975 1.391 . S
C975 H963 0.950 1_565 S
C975 C971 1.393 . S
C975 C974 1.391 . S
H976 C984 0.950 1_565 S
H977 C989 0.950 . S
H978 C986 0.950 . S
H979 C988 0.950 . S
H980 C990 0.949 1_655 S
H981 C992 0.950 . S
H982 C994 0.950 . S
H983 C995 0.950 . S
C984 H976 0.950 1_545 S
C984 C985 1.386 . S
C984 C986 1.391 . S
C985 C984 1.386 . S
C985 C989 1.393 . S
C986 H978 0.950 . S
C986 C984 1.391 . S
C986 C987 1.400 . S
C987 C986 1.400 . S
C987 C988 1.398 . S
C987 C993 1.491 . S
C988 H979 0.950 . S
C988 C987 1.398 . S
C988 C989 1.391 . S
C989 H977 0.950 . S
C989 C985 1.393 . S
C989 C988 1.391 . S
C990 H980 0.949 1_455 S
C990 C991 1.386 . S
C990 C992 1.391 1_455 S
C991 C990 1.386 . S
C991 C995 1.393 . S
C992 H981 0.950 . S
C992 C990 1.391 1_655 S
C992 C993 1.400 . S
C993 C987 1.491 . S
C993 C992 1.400 . S
C993 C994 1.398 1_655 S
C994 H982 0.950 . S
C994 C993 1.398 1_455 S
C994 C995 1.391 . S
C995 H983 0.950 . S
C995 C991 1.393 . S
C995 C994 1.391 . S
C285 C19 1.328 . S
C291 C272 1.333 . S
C305 C223 1.596 1_565 S
C311 C40 1.635 . S
C325 C63 1.394 1_554 S
C331 C201 1.412 . S
C345 C88 1.407 . S
C351 C247 1.413 1_545 S
C365 C108 1.379 . S
C371 C249 1.398 . S
C385 C132 1.490 . S
C391 C270 1.483 . S
C405 C228 1.480 . S
C411 C155 1.433 . S
C425 C180 1.313 . S
C431 C203 1.312 . S
C445 C86 1.223 . S
C451 C113 1.268 . S
C465 C17 1.346 . S
C471 C134 1.316 1_455 S
C485 C42 1.434 1_655 S
C491 C157 1.442 . S
C505 C178 1.342 . S
C511 C65 1.339 . S
C525 C18 1.043 . S
C531 C200 1.038 . S
C545 C44 0.988 . S
C551 C246 1.009 . S
C565 C273 0.932 . S
C571 C67 0.898 . S
C585 C87 0.977 . S
C591 C224 0.979 . S
C605 C111 1.056 . S
C611 C225 1.123 . S
C625 C204 1.062 . S
C631 C136 0.997 . S
C645 C250 1.034 . S
C651 C159 1.033 . S
C665 C269 1.045 . S
C671 C179 1.055 . S
C685 C16 1.277 . S
C691 C90 1.211 . S
C705 C21 1.050 . S
C711 C43 1.090 . S
C725 C41 0.904 . S
C731 C66 0.901 . S
C745 C85 0.968 . S
C751 C64 0.976 . S
C765 C133 0.968 . S
C771 C110 0.966 . S
C785 C135 0.938 . S
C791 C156 0.968 . S
C805 C158 1.125 . S
C811 C182 1.109 . S
C825 C112 1.067 . S
C831 C177 1.080 . S
C845 C202 1.002 . S
C851 C89 0.996 . S
C865 C131 1.119 . S
C871 C226 1.034 . S
C885 C205 1.152 . S
C891 C154 1.198 . S
C905 C251 1.008 . S
C911 C181 1.008 . S
C925 C109 1.106 . S
C931 C271 1.105 . S
C945 C274 1.039 . S
C951 C39 1.037 . S
C965 C62 0.987 . S
C971 C227 1.003 . S
C985 C248 0.826 . S
C991 C20 0.822 . S
