# Generated by pormake.
# Topology twt, (3)-cn, num edge types: 1
# Building blocks:
#     Node 0, Type 0, BuildingBlock: WUSLED_clean_sbu_0, # of connection points: 3
#     Node 1, Type 0, BuildingBlock: WUSLED_clean_sbu_0, # of connection points: 3
#     Node 2, Type 0, BuildingBlock: WUSLED_clean_sbu_0, # of connection points: 3
#     Node 3, Type 0, BuildingBlock: WUSLED_clean_sbu_0, # of connection points: 3
#     Node 4, Type 0, BuildingBlock: WUSLED_clean_sbu_0, # of connection points: 3
#     Node 5, Type 0, BuildingBlock: WUSLED_clean_sbu_0, # of connection points: 3
#     Edge 6, Type (0, 0), BuildingBlock: TEMPAE_clean_linker_10, # of connection points: 2
#     Edge 7, Type (0, 0), BuildingBlock: TEMPAE_clean_linker_10, # of connection points: 2
#     Edge 8, Type (0, 0), BuildingBlock: TEMPAE_clean_linker_10, # of connection points: 2
#     Edge 9, Type (0, 0), BuildingBlock: TEMPAE_clean_linker_10, # of connection points: 2
#     Edge 10, Type (0, 0), BuildingBlock: TEMPAE_clean_linker_10, # of connection points: 2
#     Edge 11, Type (0, 0), BuildingBlock: TEMPAE_clean_linker_10, # of connection points: 2
#     Edge 12, Type (0, 0), BuildingBlock: TEMPAE_clean_linker_10, # of connection points: 2
#     Edge 13, Type (0, 0), BuildingBlock: TEMPAE_clean_linker_10, # of connection points: 2
#     Edge 14, Type (0, 0), BuildingBlock: TEMPAE_clean_linker_10, # of connection points: 2
# Relax obj value: 0.000
# Max RMSD: 0.004
# Mean RMSD: 0.004
data_MOF--net-twt--node1-WUSLED_clean_sbu_0--edge1-TEMPAE_clean_linker_10
_symmetry_space_group_name_H-M    P1
_symmetry_Int_Tables_number       1
_symmetry_cell_setting            triclinic
loop_
_symmetry_equiv_pos_as_xyz
'x, y, z'
_cell_length_a     67.469893
_cell_length_b     67.560479
_cell_length_c     17.891466
_cell_angle_alpha  89.998275
_cell_angle_beta   89.865099
_cell_angle_gamma 119.58548
loop_
_atom_site_label
_atom_site_type_symbol
_atom_site_fract_x
_atom_site_fract_y
_atom_site_fract_z
_atom_type_partial_charge
C0 C 0.64611 0.28546 0.31332 0.0
C1 C 0.6671 0.30517 0.29992 0.0
C2 C 0.65272 0.32875 0.35514 0.0
C3 C 0.67036 0.32661 0.3205 0.0
C4 C 0.63187 0.30884 0.36939 0.0
C5 C 0.62862 0.28747 0.34859 0.0
U6 U 0.66593 0.24236 0.26556 0.0
O7 O 0.64995 0.20592 0.29347 0.0
O8 O 0.65436 0.21669 0.17613 0.0
C9 C 0.64583 0.1995 0.22323 0.0
C10 C 0.64188 0.26273 0.29004 0.0
C11 C 0.62265 0.18093 0.20662 0.0
C12 C 0.58184 0.16617 0.19302 0.0
C13 C 0.60367 0.18421 0.20939 0.0
C14 C 0.59778 0.14147 0.17114 0.0
C15 C 0.57861 0.14454 0.17381 0.0
C16 C 0.61953 0.15947 0.18738 0.0
C17 C 0.72982 0.26092 0.27785 0.0
C18 C 0.74561 0.23603 0.25326 0.0
C19 C 0.77061 0.27534 0.28786 0.0
C20 C 0.75183 0.27877 0.29264 0.0
C21 C 0.76779 0.25394 0.26811 0.0
C22 C 0.72679 0.2395 0.25801 0.0
C23 C 0.71039 0.26507 0.28415 0.0
O24 O 0.64966 0.26149 0.22376 0.0
O25 O 0.64535 0.25083 0.34125 0.0
O26 O 0.69589 0.25424 0.33851 0.0
O27 O 0.70037 0.26498 0.22114 0.0
H28 H 0.68088 0.30401 0.27289 0.0
H29 H 0.68656 0.34153 0.30795 0.0
H30 H 0.61804 0.30973 0.39711 0.0
H31 H 0.61234 0.27247 0.35981 0.0
H32 H 0.56746 0.16909 0.19632 0.0
H33 H 0.60575 0.20067 0.22429 0.0
H34 H 0.59604 0.12521 0.15545 0.0
H35 H 0.63398 0.15664 0.18466 0.0
H36 H 0.74283 0.21939 0.2372 0.0
H37 H 0.78733 0.28942 0.30083 0.0
H38 H 0.75449 0.2954 0.30834 0.0
H39 H 0.7099 0.2255 0.24627 0.0
C40 C 0.60399 0.55403 0.64182 0.0
C41 C 0.60787 0.57119 0.69368 0.0
C42 C 0.56789 0.56138 0.6869 0.0
C43 C 0.58996 0.57476 0.71624 0.0
C44 C 0.56421 0.54439 0.63445 0.0
C45 C 0.58206 0.54075 0.61233 0.0
U46 U 0.66668 0.57252 0.59728 0.0
O47 O 0.68629 0.55521 0.62193 0.0
O48 O 0.68082 0.56148 0.50551 0.0
C49 C 0.68876 0.55178 0.551 0.0
C50 C 0.62232 0.54941 0.61825 0.0
C51 C 0.68368 0.52858 0.53063 0.0
C52 C 0.65955 0.48738 0.53525 0.0
C53 C 0.66363 0.50922 0.55438 0.0
C54 C 0.69537 0.50406 0.46779 0.0
C55 C 0.6754 0.48453 0.49169 0.0
C56 C 0.69944 0.52582 0.48711 0.0
C57 C 0.71237 0.63583 0.61662 0.0
C58 C 0.75321 0.65088 0.60193 0.0
C59 C 0.73834 0.67666 0.61972 0.0
C60 C 0.71622 0.65811 0.62355 0.0
C61 C 0.75716 0.67332 0.60887 0.0
C62 C 0.731 0.63228 0.6056 0.0
C63 C 0.68883 0.61669 0.62132 0.0
O64 O 0.63176 0.55783 0.55309 0.0
O65 O 0.6372 0.55169 0.6697 0.0
O66 O 0.68479 0.60151 0.67373 0.0
O67 O 0.6791 0.60755 0.55733 0.0
H68 H 0.6247 0.58178 0.71687 0.0
H69 H 0.59343 0.58816 0.75606 0.0
H70 H 0.5474 0.53362 0.61137 0.0
H71 H 0.57869 0.5274 0.57237 0.0
H72 H 0.64389 0.47274 0.55391 0.0
H73 H 0.65118 0.511 0.58777 0.0
H74 H 0.70808 0.50254 0.43511 0.0
H75 H 0.71505 0.54054 0.4684 0.0
H76 H 0.76727 0.6477 0.5928 0.0
H77 H 0.74073 0.69363 0.6264 0.0
H78 H 0.70206 0.66117 0.63228 0.0
H79 H 0.72835 0.61518 0.59983 0.0
C80 C 0.29451 0.50992 0.99097 0.0
C81 C 0.27748 0.51438 0.01707 0.0
C82 C 0.25156 0.47368 0.03548 0.0
C83 C 0.25618 0.49642 0.03912 0.0
C84 C 0.26875 0.46942 0.00893 0.0
C85 C 0.28998 0.48735 0.98698 0.0
U86 U 0.33725 0.57275 0.94751 0.0
O87 O 0.3739 0.59256 0.97211 0.0
O88 O 0.36228 0.58717 0.85564 0.0
C89 C 0.3798 0.59504 0.90115 0.0
C90 C 0.31707 0.52842 0.96744 0.0
C91 C 0.39819 0.59021 0.88021 0.0
C92 C 0.4194 0.57001 0.89759 0.0
C93 C 0.40116 0.57345 0.91683 0.0
C94 C 0.43162 0.59964 0.80394 0.0
C95 C 0.43499 0.58318 0.84119 0.0
C96 C 0.41348 0.60312 0.82339 0.0
C97 C 0.31884 0.61816 0.96893 0.0
C98 C 0.34381 0.65869 0.94745 0.0
C99 C 0.30419 0.64447 0.98012 0.0
C100 C 0.30083 0.62233 0.98356 0.0
C101 C 0.32571 0.66296 0.96193 0.0
C102 C 0.34039 0.63646 0.9508 0.0
C103 C 0.31469 0.59462 0.97292 0.0
O104 O 0.31772 0.53795 0.90279 0.0
O105 O 0.32919 0.54324 0.01932 0.0
O106 O 0.32592 0.59052 0.02496 0.0
O107 O 0.31427 0.58503 0.90861 0.0
H108 H 0.28068 0.53173 0.02055 0.0
H109 H 0.24344 0.50036 0.05993 0.0
H110 H 0.26572 0.45217 0.00415 0.0
H111 H 0.30289 0.48357 0.96663 0.0
H112 H 0.42153 0.55732 0.92796 0.0
H113 H 0.38955 0.56322 0.96082 0.0
H114 H 0.44295 0.6098 0.75929 0.0
H115 H 0.41145 0.61607 0.79419 0.0
H116 H 0.36054 0.67248 0.93257 0.0
H117 H 0.28997 0.64713 0.99272 0.0
H118 H 0.28409 0.60842 -0.00211 0.0
H119 H 0.35451 0.63355 0.93912 0.0
C120 C 1.0273 0.19904 0.30944 0.0
C121 C 1.00506 0.1805 0.3139 0.0
C122 C 1.01993 0.15539 0.34967 0.0
C123 C 1.00141 0.15886 0.33385 0.0
C124 C 0.04215 0.17415 0.34551 0.0
C125 C 0.04576 0.19571 0.32558 0.0
U126 U 1.00829 0.243 0.26479 0.0
O127 O 1.02467 0.27925 0.29638 0.0
O128 O 1.02089 0.26955 0.17806 0.0
C129 C 1.02954 0.28627 0.2268 0.0
C130 C 1.03174 0.22195 0.28803 0.0
C131 C 0.05307 0.30468 0.21226 0.0
C132 C 0.09165 0.31821 0.16614 0.0
C133 C 0.06978 0.30024 0.18265 0.0
C134 C 0.08052 0.34521 0.21018 0.0
C135 C 0.09726 0.34095 0.17938 0.0
C136 C 0.05868 0.32727 0.2263 0.0
C137 C 0.94459 0.2257 0.27283 0.0
C138 C 0.92811 0.25037 0.28955 0.0
C139 C 0.90471 0.21202 0.2432 0.0
C140 C 0.92342 0.20843 0.24733 0.0
C141 C 0.90675 0.23297 0.26483 0.0
C142 C 0.94687 0.24681 0.29327 0.0
C143 C 0.96369 0.22096 0.27964 0.0
O144 O 1.02432 0.22372 0.22185 0.0
O145 O 1.02794 0.2334 0.3401 0.0
O146 O 0.97778 0.23078 0.33563 0.0
O147 O 0.97411 0.22131 0.21709 0.0
H148 H 0.99058 0.18275 0.30164 0.0
H149 H 0.9841 0.14478 0.33578 0.0
H150 H 0.05679 0.17225 0.35846 0.0
H151 H 0.06304 0.20984 0.32279 0.0
H152 H 0.1042 0.31431 0.14333 0.0
H153 H 0.06588 0.28291 0.17171 0.0
H154 H 0.08413 0.36248 0.22029 0.0
H155 H 0.04602 0.33108 0.24891 0.0
H156 H 0.93034 0.2668 0.30573 0.0
H157 H 0.88849 0.19817 0.22468 0.0
H158 H 0.92126 0.19201 0.23145 0.0
H159 H 0.96308 0.26046 0.31267 0.0
C160 C 0.06904 0.93181 0.6407 0.0
C161 C 0.06523 0.91388 0.68903 0.0
C162 C 0.10582 0.92571 0.68676 0.0
C163 C 0.08345 0.91088 0.71194 0.0
C164 C 0.10938 0.94341 0.63741 0.0
C165 C 0.0912 0.94643 0.61483 0.0
U166 U 1.0061 0.91229 0.59635 0.0
O167 O 0.986 0.92903 0.6226 0.0
O168 O 0.99179 0.92341 0.50578 0.0
C169 C 0.98344 0.93259 0.55194 0.0
C170 C 0.0504 0.93596 0.61751 0.0
C171 C 0.98808 0.95571 0.53263 0.0
C172 C 1.01392 0.99639 0.51827 0.0
C173 C 1.01005 0.97464 0.53774 0.0
C174 C 0.97391 0.98045 0.48859 0.0
C175 C 0.99588 0.99955 0.49314 0.0
C176 C 0.97008 0.95879 0.50811 0.0
C177 C 0.96072 0.84883 0.61307 0.0
C178 C 0.91962 0.83306 0.62201 0.0
C179 C 0.93513 0.80835 0.59361 0.0
C180 C 0.95721 0.82702 0.597 0.0
C181 C 0.91604 0.81109 0.60647 0.0
C182 C 0.94175 0.85177 0.62502 0.0
C183 C 0.98428 0.86801 0.61832 0.0
O184 O 0.04116 0.92764 0.55221 0.0
O185 O 0.03532 0.93314 0.66917 0.0
O186 O 0.98829 0.8829 0.6717 0.0
O187 O 0.99416 0.8775 0.55466 0.0
H188 H 0.04823 0.90234 0.7096 0.0
H189 H 0.08006 0.89719 0.75044 0.0
H190 H 0.12622 0.95489 0.61566 0.0
H191 H 0.09449 0.9603 0.57721 0.0
H192 H 1.03108 1.01066 0.52179 0.0
H193 H 1.02419 0.97257 0.55642 0.0
H194 H 0.95956 0.98225 0.47067 0.0
H195 H 0.95299 0.94439 0.50403 0.0
H196 H 0.9053 0.83581 0.63132 0.0
H197 H 0.93304 0.79167 0.58236 0.0
H198 H 0.97161 0.82437 0.58773 0.0
H199 H 0.94405 0.86849 0.63703 0.0
C200 C 0.38042 0.97633 0.99299 0.0
C201 C 0.39984 0.97386 0.98706 0.0
C202 C 0.42359 1.01213 0.03715 0.0
C203 C 0.42125 0.99163 0.00875 0.0
C204 C 0.40398 1.01433 0.0437 0.0
C205 C 0.38265 0.99663 0.02178 0.0
U206 U 0.33682 0.91411 0.94458 0.0
O207 O 0.30001 0.8948 0.96801 0.0
O208 O 0.31215 0.90084 0.85188 0.0
C209 C 0.29445 0.89293 0.89691 0.0
C210 C 0.35779 0.95829 0.96819 0.0
C211 C 0.27636 0.89823 0.87612 0.0
C212 C 0.25452 0.91764 0.89718 0.0
C213 C 0.2725 0.91384 0.91665 0.0
C214 C 0.24434 0.89067 0.79569 0.0
C215 C 0.24017 0.90604 0.83654 0.0
C216 C 0.26219 0.88679 0.8154 0.0
C217 C 0.35362 0.86731 0.96179 0.0
C218 C 0.32885 0.82649 0.97858 0.0
C219 C 0.36765 0.84103 0.93558 0.0
C220 C 0.37115 0.86323 0.93858 0.0
C221 C 0.34651 0.82237 0.95608 0.0
C222 C 0.33234 0.84874 0.98116 0.0
C223 C 0.35828 0.89107 0.96748 0.0
O224 O 0.35708 0.94916 0.90266 0.0
O225 O 0.34521 0.94321 0.01902 0.0
O226 O 0.34735 0.89537 0.0203 0.0
O227 O 0.35934 0.90134 0.90401 0.0
H228 H 0.39847 0.95827 0.96531 0.0
H229 H 0.43594 0.98925 0.00378 0.0
H230 H 0.40516 0.02994 0.06442 0.0
H231 H 0.36787 0.99889 0.02663 0.0
H232 H 0.25195 0.92978 0.92928 0.0
H233 H 0.28326 0.92298 0.96356 0.0
H234 H 0.23348 0.88124 0.74931 0.0
H235 H 0.26478 0.87461 0.78356 0.0
H236 H 0.31228 0.8125 0.99386 0.0
H237 H 0.38168 0.83852 0.91879 0.0
H238 H 0.38772 0.8773 0.92361 0.0
H239 H 0.31847 0.85141 -0.00117 0.0
C240 C 0.63815 0.35654 0.36543 0.0
C241 C 0.6559 0.3516 0.37568 0.0
C242 C 0.6408 0.37789 0.38464 0.0
C243 C 0.66176 0.39489 0.41459 0.0
C244 C 0.67976 0.39007 0.425 0.0
C245 C 0.67662 0.36852 0.40557 0.0
C246 C 0.62118 0.38231 0.37247 0.0
C247 C 0.70238 0.4077 0.45674 0.0
C248 C 0.67652 0.45696 0.39954 0.0
C249 C 0.67133 0.46136 0.47157 0.0
C250 C 0.67342 0.43544 0.38025 0.0
C251 C 0.66492 0.41778 0.43422 0.0
C252 C 0.65948 0.42203 0.50686 0.0
C253 C 0.66272 0.44373 0.52461 0.0
C254 C 0.67931 0.43162 0.30206 0.0
C255 C 0.65042 0.40371 0.56609 0.0
H256 H 0.6222 0.34377 0.34129 0.0
H257 H 0.69034 0.36484 0.41471 0.0
H258 H 0.61649 0.38725 0.42597 0.0
H259 H 0.62635 0.39672 0.33304 0.0
H260 H 0.60587 0.36721 0.34978 0.0
H261 H 0.71466 0.4013 0.46149 0.0
H262 H 0.71002 0.42308 0.42071 0.0
H263 H 0.69983 0.41302 0.51296 0.0
H264 H 0.68286 0.47035 0.35782 0.0
H265 H 0.65892 0.44701 0.58064 0.0
H266 H 0.66408 0.41755 0.27505 0.0
H267 H 0.69257 0.42646 0.30425 0.0
H268 H 0.68567 0.44707 0.26653 0.0
H269 H 0.63453 0.38871 0.54632 0.0
H270 H 0.64678 0.40964 0.61961 0.0
H271 H 0.66297 0.39794 0.57677 0.0
C272 C 0.54558 0.56823 0.78665 0.0
C273 C 0.5487 0.56498 0.71096 0.0
C274 C 0.52724 0.5711 0.81012 0.0
C275 C 0.51167 0.57087 0.75662 0.0
C276 C 0.51483 0.56777 0.68009 0.0
C277 C 0.53323 0.5648 0.65827 0.0
C278 C 0.52441 0.57421 0.89227 0.0
C279 C 0.49879 0.56764 0.62113 0.0
C280 C 0.45235 0.55811 0.81829 0.0
C281 C 0.45477 0.57997 0.82136 0.0
C282 C 0.47077 0.55492 0.79827 0.0
C283 C 0.49215 0.57402 0.78045 0.0
C284 C 0.49477 0.59612 0.78403 0.0
C285 C 0.47613 0.59883 0.80465 0.0
C286 C 0.46726 0.53107 0.79534 0.0
C287 C 0.51726 0.61695 0.76553 0.0
H288 H 0.55728 0.56811 0.82783 0.0
H289 H 0.53566 0.56259 0.59959 0.0
H290 H 0.52474 0.5906 0.90147 0.0
H291 H 0.50761 0.56048 0.9121 0.0
H292 H 0.53797 0.57399 0.9268 0.0
H293 H 0.5036 0.56504 0.56403 0.0
H294 H 0.48116 0.55391 0.6331 0.0
H295 H 0.49866 0.584 0.62221 0.0
H296 H 0.43591 0.5434 0.83018 0.0
H297 H 0.47836 0.61582 0.80815 0.0
H298 H 0.47982 0.52973 0.83185 0.0
H299 H 0.47016 0.52708 0.73756 0.0
H300 H 0.44983 0.51808 0.81322 0.0
H301 H 0.5308 0.61784 0.80274 0.0
H302 H 0.51656 0.63296 0.77143 0.0
H303 H 0.52229 0.61579 0.7073 0.0
C304 C 0.22755 0.43595 0.09925 0.0
C305 C 0.22893 0.45442 0.05886 0.0
C306 C 0.20639 0.4174 0.12003 0.0
C307 C 0.18601 0.41725 0.10017 0.0
C308 C 0.18726 0.43592 0.06001 0.0
C309 C 0.20866 0.45425 0.03989 0.0
C310 C 0.20585 0.39792 0.16311 0.0
C311 C 0.16595 0.43643 0.03764 0.0
C312 C 0.13086 0.36028 0.09223 0.0
C313 C 0.12029 0.36023 0.15997 0.0
C314 C 0.15221 0.37868 0.07215 0.0
C315 C 0.16338 0.39751 0.12104 0.0
C316 C 0.15292 0.39747 0.1898 0.0
C317 C 0.13153 0.37888 0.20835 0.0
C318 C 0.16272 0.37806 -0.00179 0.0
C319 C 0.1643 0.41711 0.24377 0.0
H320 H 0.24308 0.43605 0.11524 0.0
H321 H 0.2095 0.46827 0.00794 0.0
H322 H 0.19681 0.39561 0.21705 0.0
H323 H 0.19626 0.38186 0.13117 0.0
H324 H 0.2232 0.40068 0.17468 0.0
H325 H 0.16981 0.45231 0.00742 0.0
H326 H 0.1553 0.42168 0.00116 0.0
H327 H 0.15565 0.43493 0.08795 0.0
H328 H 0.12219 0.34611 0.05405 0.0
H329 H 0.12364 0.37888 0.26121 0.0
H330 H 0.1797 0.37964 0.00744 0.0
H331 H 0.16537 0.39273 0.96321 0.0
H332 H 0.15195 0.36212 0.96676 0.0
H333 H 0.18123 0.41957 0.26008 0.0
H334 H 0.154 0.41442 0.29518 0.0
H335 H 0.16721 0.43306 0.21641 0.0
C336 C 0.98903 0.0253 0.40846 0.0
C337 C 0.99982 0.02258 0.47156 0.0
C338 C 0.99213 0.04675 0.38817 0.0
C339 C 1.0064 0.06608 0.43186 0.0
C340 C 1.01746 0.06352 0.49535 0.0
C341 C 1.01406 0.04184 0.51437 0.0
C342 C 0.98012 0.04873 0.31985 0.0
C343 C 1.03279 0.08367 0.54348 0.0
C344 C 1.03073 0.1247 0.34214 0.0
C345 C 1.01625 0.13237 0.37026 0.0
C346 C 1.02777 0.10326 0.36186 0.0
C347 C 1.00983 0.08899 0.41085 0.0
C348 C 0.99507 0.09654 0.4392 0.0
C349 C 0.99845 0.1181 0.41861 0.0
C350 C 0.04383 0.09586 0.33008 0.0
C351 C 0.97575 0.08186 0.49159 0.0
H352 H 0.97828 1.01063 0.37431 0.0
H353 H 1.02225 0.03991 0.56367 0.0
H354 H 0.96897 0.05583 0.33566 0.0
H355 H 0.9928 0.06066 0.27906 0.0
H356 H 0.96954 0.03207 0.29193 0.0
H357 H 0.04024 0.07888 0.59072 0.0
H358 H 0.04689 0.09679 0.50921 0.0
H359 H 1.02305 0.09157 0.56643 0.0
H360 H 0.04431 0.13541 0.30385 0.0
H361 H 0.98734 0.12393 0.44142 0.0
H362 H 0.03411 0.07996 0.29744 0.0
H363 H 0.05246 0.09208 0.37611 0.0
H364 H 0.05704 0.10901 0.29322 0.0
H365 H 0.96409 0.0654 0.46437 0.0
H366 H 0.96575 0.09016 0.50863 0.0
H367 H 0.98255 0.07797 0.54252 0.0
C368 C 0.1231 0.90113 0.71895 0.0
C369 C 0.12541 0.92287 0.7118 0.0
C370 C 0.14157 0.89832 0.74099 0.0
C371 C 0.16298 0.91772 0.756 0.0
C372 C 0.16539 0.93969 0.74955 0.0
C373 C 0.14661 0.94199 0.72785 0.0
C374 C 0.13825 0.87459 0.74732 0.0
C375 C 0.18788 0.96081 0.76506 0.0
C376 C 0.20647 0.91057 0.87173 0.0
C377 C 0.22073 0.90965 0.81622 0.0
C378 C 0.18763 0.91318 0.85304 0.0
C379 C 0.18297 0.91505 0.77697 0.0
C380 C 0.19745 0.91438 0.72076 0.0
C381 C 0.21608 0.91165 0.74101 0.0
C382 C 0.17257 0.91368 0.91466 0.0
C383 C 0.19325 0.91653 0.63907 0.0
H384 H 0.10692 0.88624 0.7059 0.0
H385 H 0.14853 0.95886 0.7239 0.0
H386 H 0.1496 0.87247 0.70705 0.0
H387 H 0.14303 0.87185 0.80411 0.0
H388 H 0.12038 0.86126 0.73616 0.0
H389 H 0.18693 0.97666 0.75809 0.0
H390 H 0.19348 0.96027 0.82291 0.0
H391 H 0.20117 0.96153 0.72671 0.0
H392 H 0.20975 0.90876 0.9299 0.0
H393 H 0.22717 0.91125 0.6978 0.0
H394 H 0.15489 0.89949 0.90718 0.0
H395 H 0.17193 0.92976 0.91196 0.0
H396 H 0.1786 0.91222 0.97104 0.0
H397 H 0.17612 0.90264 0.62288 0.0
H398 H 0.20616 0.91582 0.60221 0.0
H399 H 0.19351 0.93286 0.62905 0.0
C400 C 0.46562 0.03733 0.01397 0.0
C401 C 0.44639 0.03131 0.05894 0.0
C402 C 0.48706 0.05575 0.0328 0.0
C403 C 0.48942 0.06849 0.09838 0.0
C404 C 0.47012 0.06241 0.1443 0.0
C405 C 0.44888 0.04395 0.12403 0.0
C406 C 0.50717 0.0617 0.98216 0.0
C407 C 0.4719 0.07542 0.21492 0.0
C408 C 0.54876 0.10315 0.18207 0.0
C409 C 0.55546 0.1252 0.15618 0.0
C410 C 0.52733 0.08461 0.16407 0.0
C411 C 0.5121 0.08812 0.11904 0.0
C412 C 0.51863 0.11036 0.09334 0.0
C413 C 0.54019 0.12861 0.11224 0.0
C414 C 0.52102 0.06123 0.19302 0.0
C415 C 0.50293 0.11485 0.04512 0.0
H416 H 0.46383 0.02789 0.96311 0.0
H417 H 0.4342 0.03927 0.15965 0.0
H418 H 0.51427 0.0794 0.96136 0.0
H419 H 0.52088 0.06091 0.01386 0.0
H420 H 0.50255 0.05008 0.93339 0.0
H421 H 0.45531 0.06852 0.24463 0.0
H422 H 0.48448 0.07481 0.25331 0.0
H423 H 0.47813 0.09358 0.20147 0.0
H424 H 0.56027 0.10037 0.217 0.0
H425 H 0.54527 0.1455 0.09121 0.0
H426 H 0.51756 0.04943 0.14548 0.0
H427 H 0.50517 0.05431 0.22679 0.0
H428 H 0.53467 0.06137 0.22799 0.0
H429 H 0.49913 0.10489 0.99262 0.0
H430 H 0.51038 0.13315 0.03061 0.0
H431 H 0.48648 0.10917 0.07444 0.0
C432 C 0.87141 0.22856 0.20228 0.0
C433 C 0.88654 0.23641 0.26294 0.0
C434 C 0.85199 0.23118 0.20069 0.0
C435 C 0.84746 0.24183 0.2614 0.0
C436 C 0.86271 0.24988 0.32266 0.0
C437 C 0.88205 0.24713 0.32261 0.0
C438 C 0.8363 0.22252 0.13405 0.0
C439 C 0.85847 0.26124 0.38866 0.0
C440 C 0.80858 0.26718 0.23268 0.0
C441 C 0.78795 0.2504 0.26392 0.0
C442 C 0.82797 0.26452 0.23085 0.0
C443 C 0.82679 0.24458 0.26094 0.0
C444 C 0.80596 0.22743 0.29163 0.0
C445 C 0.78681 0.23053 0.29271 0.0
C446 C 0.84978 0.28315 0.19721 0.0
C447 C 0.80398 0.20593 0.32439 0.0
H448 H 0.87488 0.2205 0.15554 0.0
H449 H 0.89346 0.25298 0.37015 0.0
H450 H 0.81892 0.20961 0.15229 0.0
H451 H 0.83494 0.23669 0.10787 0.0
H452 H 0.84229 0.21477 0.09115 0.0
H453 H 0.87199 0.26664 0.43176 0.0
H454 H 0.85757 0.27641 0.36974 0.0
H455 H 0.84182 0.24939 0.41482 0.0
H456 H 0.80956 0.28243 0.20922 0.0
H457 H 0.77106 0.21759 0.31773 0.0
H458 H 0.85557 0.27619 0.15121 0.0
H459 H 0.86343 0.28999 0.24002 0.0
H460 H 0.84779 0.29742 0.17489 0.0
H461 H 0.8088 0.19708 0.28194 0.0
H462 H 0.78646 0.194 0.34456 0.0
H463 H 0.81596 0.21023 0.37187 0.0
C464 C 0.79878 0.69275 0.64264 0.0
C465 C 0.78073 0.69325 0.60551 0.0
C466 C 0.82088 0.71174 0.64209 0.0
C467 C 0.82511 0.73175 0.60331 0.0
C468 C 0.80704 0.73226 0.56491 0.0
C469 C 0.78512 0.71305 0.5665 0.0
C470 C 0.83965 0.7105 0.68391 0.0
C471 C 0.81082 0.75316 0.52245 0.0
C472 C 0.87648 0.78821 0.65956 0.0
C473 C 0.89257 0.79101 0.60469 0.0
C474 C 0.85451 0.76904 0.65979 0.0
C475 C 0.84837 0.75224 0.60359 0.0
C476 C 0.86446 0.75506 0.54767 0.0
C477 C 0.88634 0.77435 0.54899 0.0
C478 C 0.83792 0.76666 0.72061 0.0
C479 C 0.85857 0.73768 0.48642 0.0
H480 H 0.79554 0.67765 0.67362 0.0
H481 H 0.77138 0.7135 0.5367 0.0
H482 H 0.85394 0.71407 0.64536 0.0
H483 H 0.84649 0.7237 0.7282 0.0
H484 H 0.83369 0.69359 0.71023 0.0
H485 H 0.79508 0.75072 0.49453 0.0
H486 H 0.81689 0.76785 0.56111 0.0
H487 H 0.82425 0.75766 0.47943 0.0
H488 H 0.88121 0.80083 0.70334 0.0
H489 H 0.89855 0.7765 0.50584 0.0
H490 H 0.83266 0.75075 0.75261 0.0
H491 H 0.82231 0.76538 0.69554 0.0
H492 H 0.84528 0.78123 0.7601 0.0
H493 H 0.85378 0.72083 0.51111 0.0
H494 H 0.87295 0.74242 0.44684 0.0
H495 H 0.84363 0.73574 0.45459 0.0
C496 C 0.31255 0.69061 0.9261 0.0
C497 C 0.32915 0.68654 0.95848 0.0
C498 C 0.31518 0.71259 0.92429 0.0
C499 C 0.3349 0.73105 0.95564 0.0
C500 C 0.35183 0.72713 0.98779 0.0
C501 C 0.34877 0.70496 0.98874 0.0
C502 C 0.29679 0.71603 0.88905 0.0
C503 C 0.37307 0.74632 0.02202 0.0
C504 C 0.35148 0.79145 0.89572 0.0
C505 C 0.34311 0.7988 0.95519 0.0
C506 C 0.34886 0.76947 0.895 0.0
C507 C 0.3377 0.75443 0.95538 0.0
C508 C 0.32916 0.76172 0.01547 0.0
C509 C 0.33191 0.78375 0.01455 0.0
C510 C 0.35805 0.76233 0.82957 0.0
C511 C 0.31726 0.74628 0.0811 0.0
H512 H 0.29749 0.67658 0.90155 0.0
H513 H 0.36156 0.70198 0.01465 0.0
H514 H 0.2897 0.72297 0.93099 0.0
H515 H 0.3041 0.72866 0.84306 0.0
H516 H 0.28262 0.69997 0.86631 0.0
H517 H 0.38477 0.74053 0.04381 0.0
H518 H 0.38236 0.75988 0.97989 0.0
H519 H 0.36836 0.75405 0.06859 0.0
H520 H 0.35991 0.80285 0.84921 0.0
H521 H 0.32565 0.78938 0.06118 0.0
H522 H 0.34406 0.74701 0.80269 0.0
H523 H 0.37079 0.75767 0.84929 0.0
H524 H 0.36621 0.77597 0.78684 0.0
H525 H 0.30219 0.73042 0.06152 0.0
H526 H 0.31156 0.75447 0.12333 0.0
H527 H 0.32888 0.74131 0.10854 0.0
loop_
_geom_bond_atom_site_label_1
_geom_bond_atom_site_label_2
_geom_bond_distance
_geom_bond_site_symmetry_2
_ccdc_geom_bond_type
C0 C1 1.264 . S
C0 C5 1.479 . S
C0 C10 1.465 . S
C1 C0 1.264 . S
C1 C3 1.339 . S
C1 H28 0.931 . S
C2 C3 1.395 . S
C2 C4 1.320 . S
C3 C1 1.339 . S
C3 C2 1.395 . S
C3 H29 0.929 . S
C4 C2 1.320 . S
C4 C5 1.405 . S
C4 H30 0.930 . S
C5 C0 1.479 . S
C5 C4 1.405 . S
C5 H31 0.931 . S
U6 O7 2.454 . S
U6 O8 2.458 . S
U6 C9 2.984 . S
U6 C10 2.847 . S
U6 C23 2.882 . S
U6 O24 2.441 . S
U6 O25 2.420 . S
U6 O26 2.455 . S
U6 O27 2.449 . S
O7 U6 2.454 . S
O7 C9 1.353 . S
O8 U6 2.458 . S
O8 C9 1.286 . S
C9 U6 2.984 . S
C9 O7 1.353 . S
C9 O8 1.286 . S
C9 C11 1.363 . S
C10 C0 1.465 . S
C10 U6 2.847 . S
C10 O24 1.249 . S
C10 O25 1.202 . S
C11 C9 1.363 . S
C11 C13 1.408 . S
C11 C16 1.342 . S
C12 C13 1.310 . S
C12 C15 1.461 . S
C12 H32 0.932 . S
C13 C11 1.408 . S
C13 C12 1.310 . S
C13 H33 0.930 . S
C14 C15 1.474 . S
C14 C16 1.285 . S
C14 H34 0.929 . S
C15 C12 1.461 . S
C15 C14 1.474 . S
C16 C11 1.342 . S
C16 C14 1.285 . S
C16 H35 0.930 . S
C17 C20 1.424 . S
C17 C22 1.245 . S
C17 C23 1.428 . S
C18 C21 1.260 . S
C18 C22 1.477 . S
C18 H36 0.932 . S
C19 C20 1.384 . S
C19 C21 1.479 . S
C19 H37 0.929 . S
C20 C17 1.424 . S
C20 C19 1.384 . S
C20 H38 0.928 . S
C21 C18 1.260 . S
C21 C19 1.479 . S
C22 C17 1.245 . S
C22 C18 1.477 . S
C22 H39 0.932 . S
C23 U6 2.882 . S
C23 C17 1.428 . S
C23 O26 1.301 . S
C23 O27 1.282 . S
O24 U6 2.441 . S
O24 C10 1.249 . S
O25 U6 2.420 . S
O25 C10 1.202 . S
O26 U6 2.455 . S
O26 C23 1.301 . S
O27 U6 2.449 . S
O27 C23 1.282 . S
H28 C1 0.931 . S
H29 C3 0.929 . S
H30 C4 0.930 . S
H31 C5 0.931 . S
H32 C12 0.932 . S
H33 C13 0.930 . S
H34 C14 0.929 . S
H35 C16 0.930 . S
H36 C18 0.932 . S
H37 C19 0.929 . S
H38 C20 0.928 . S
H39 C22 0.932 . S
C40 C41 1.264 . S
C40 C45 1.479 . S
C40 C50 1.465 . S
C41 C40 1.264 . S
C41 C43 1.339 . S
C41 H68 0.931 . S
C42 C43 1.395 . S
C42 C44 1.320 . S
C43 C41 1.339 . S
C43 C42 1.395 . S
C43 H69 0.929 . S
C44 C42 1.320 . S
C44 C45 1.405 . S
C44 H70 0.930 . S
C45 C40 1.479 . S
C45 C44 1.405 . S
C45 H71 0.931 . S
U46 O47 2.454 . S
U46 O48 2.458 . S
U46 C49 2.984 . S
U46 C50 2.847 . S
U46 C63 2.882 . S
U46 O64 2.441 . S
U46 O65 2.420 . S
U46 O66 2.455 . S
U46 O67 2.449 . S
O47 U46 2.454 . S
O47 C49 1.353 . S
O48 U46 2.458 . S
O48 C49 1.286 . S
C49 U46 2.984 . S
C49 O47 1.353 . S
C49 O48 1.286 . S
C49 C51 1.363 . S
C50 C40 1.465 . S
C50 U46 2.847 . S
C50 O64 1.249 . S
C50 O65 1.202 . S
C51 C49 1.363 . S
C51 C53 1.408 . S
C51 C56 1.342 . S
C52 C53 1.310 . S
C52 C55 1.461 . S
C52 H72 0.932 . S
C53 C51 1.408 . S
C53 C52 1.310 . S
C53 H73 0.930 . S
C54 C55 1.474 . S
C54 C56 1.285 . S
C54 H74 0.929 . S
C55 C52 1.461 . S
C55 C54 1.474 . S
C56 C51 1.342 . S
C56 C54 1.285 . S
C56 H75 0.930 . S
C57 C60 1.424 . S
C57 C62 1.245 . S
C57 C63 1.428 . S
C58 C61 1.260 . S
C58 C62 1.477 . S
C58 H76 0.932 . S
C59 C60 1.384 . S
C59 C61 1.479 . S
C59 H77 0.929 . S
C60 C57 1.424 . S
C60 C59 1.384 . S
C60 H78 0.928 . S
C61 C58 1.260 . S
C61 C59 1.479 . S
C62 C57 1.245 . S
C62 C58 1.477 . S
C62 H79 0.932 . S
C63 U46 2.882 . S
C63 C57 1.428 . S
C63 O66 1.301 . S
C63 O67 1.282 . S
O64 U46 2.441 . S
O64 C50 1.249 . S
O65 U46 2.420 . S
O65 C50 1.202 . S
O66 U46 2.455 . S
O66 C63 1.301 . S
O67 U46 2.449 . S
O67 C63 1.282 . S
H68 C41 0.931 . S
H69 C43 0.929 . S
H70 C44 0.930 . S
H71 C45 0.931 . S
H72 C52 0.932 . S
H73 C53 0.930 . S
H74 C54 0.929 . S
H75 C56 0.930 . S
H76 C58 0.932 . S
H77 C59 0.929 . S
H78 C60 0.928 . S
H79 C62 0.932 . S
C80 C81 1.264 . S
C80 C85 1.479 . S
C80 C90 1.465 . S
C81 C80 1.264 . S
C81 C83 1.339 . S
C81 H108 0.931 . S
C82 C83 1.395 . S
C82 C84 1.320 . S
C83 C81 1.339 . S
C83 C82 1.395 . S
C83 H109 0.929 . S
C84 C82 1.320 . S
C84 C85 1.405 . S
C84 H110 0.930 . S
C85 C80 1.479 . S
C85 C84 1.405 . S
C85 H111 0.931 . S
U86 O87 2.454 1_554 S
U86 O88 2.458 1_554 S
U86 C89 2.984 1_554 S
U86 C90 2.847 . S
U86 C103 2.882 . S
U86 O104 2.441 . S
U86 O105 2.420 . S
U86 O106 2.454 1_554 S
U86 O107 2.449 . S
O87 U86 2.454 1_556 S
O87 C89 1.353 . S
O88 U86 2.458 1_556 S
O88 C89 1.286 . S
C89 U86 2.984 1_556 S
C89 O87 1.353 . S
C89 O88 1.286 . S
C89 C91 1.363 . S
C90 C80 1.465 . S
C90 U86 2.847 . S
C90 O104 1.249 . S
C90 O105 1.202 . S
C91 C89 1.363 . S
C91 C93 1.408 . S
C91 C96 1.342 . S
C92 C93 1.310 . S
C92 C95 1.461 . S
C92 H112 0.932 . S
C93 C91 1.408 . S
C93 C92 1.310 . S
C93 H113 0.930 . S
C94 C95 1.474 . S
C94 C96 1.285 . S
C94 H114 0.929 . S
C95 C92 1.461 . S
C95 C94 1.474 . S
C96 C91 1.342 . S
C96 C94 1.285 . S
C96 H115 0.930 . S
C97 C100 1.424 . S
C97 C102 1.245 1_554 S
C97 C103 1.428 . S
C98 C101 1.260 . S
C98 C102 1.477 . S
C98 H116 0.932 . S
C99 C100 1.384 . S
C99 C101 1.479 1_554 S
C99 H117 0.929 . S
C100 C97 1.424 . S
C100 C99 1.384 . S
C100 H118 0.928 . S
C101 C98 1.260 . S
C101 C99 1.479 1_556 S
C102 C97 1.245 1_556 S
C102 C98 1.477 . S
C102 H119 0.932 . S
C103 U86 2.882 . S
C103 C97 1.428 . S
C103 O106 1.298 1_554 S
C103 O107 1.282 . S
O104 U86 2.441 . S
O104 C90 1.249 . S
O105 U86 2.420 . S
O105 C90 1.202 . S
O106 U86 2.454 1_556 S
O106 C103 1.298 1_556 S
O107 U86 2.449 . S
O107 C103 1.282 . S
H108 C81 0.931 . S
H109 C83 0.929 . S
H110 C84 0.930 . S
H111 C85 0.931 . S
H112 C92 0.932 . S
H113 C93 0.930 . S
H114 C94 0.929 . S
H115 C96 0.930 . S
H116 C98 0.932 . S
H117 C99 0.929 . S
H118 C100 0.928 . S
H119 C102 0.932 . S
C120 C121 1.264 . S
C120 C125 1.479 . S
C120 C130 1.465 . S
C121 C120 1.264 . S
C121 C123 1.339 . S
C121 H148 0.931 . S
C122 C123 1.395 . S
C122 C124 1.320 . S
C123 C121 1.339 . S
C123 C122 1.395 . S
C123 H149 0.929 . S
C124 C122 1.320 . S
C124 C125 1.405 . S
C124 H150 0.930 1_655 S
C125 C120 1.479 . S
C125 C124 1.405 . S
C125 H151 0.931 1_655 S
U126 O127 2.454 1_655 S
U126 O128 2.458 . S
U126 C129 2.984 1_655 S
U126 C130 2.847 . S
U126 C143 2.882 . S
U126 O144 2.441 . S
U126 O145 2.420 . S
U126 O146 2.455 . S
U126 O147 2.449 . S
O127 U126 2.454 1_455 S
O127 C129 1.353 . S
O128 U126 2.458 . S
O128 C129 1.286 1_655 S
C129 U126 2.984 1_455 S
C129 O127 1.353 . S
C129 O128 1.286 1_455 S
C129 C131 1.363 . S
C130 C120 1.465 . S
C130 U126 2.847 . S
C130 O144 1.249 . S
C130 O145 1.202 . S
C131 C129 1.363 . S
C131 C133 1.408 . S
C131 C136 1.342 . S
C132 C133 1.310 . S
C132 C135 1.461 . S
C132 H152 0.932 . S
C133 C131 1.408 . S
C133 C132 1.310 . S
C133 H153 0.930 . S
C134 C135 1.474 . S
C134 C136 1.285 . S
C134 H154 0.929 . S
C135 C132 1.461 . S
C135 C134 1.474 . S
C136 C131 1.342 . S
C136 C134 1.285 . S
C136 H155 0.930 . S
C137 C140 1.424 . S
C137 C142 1.245 . S
C137 C143 1.428 . S
C138 C141 1.260 . S
C138 C142 1.477 . S
C138 H156 0.932 . S
C139 C140 1.384 . S
C139 C141 1.479 . S
C139 H157 0.929 . S
C140 C137 1.424 . S
C140 C139 1.384 . S
C140 H158 0.928 . S
C141 C138 1.260 . S
C141 C139 1.479 . S
C142 C137 1.245 . S
C142 C138 1.477 . S
C142 H159 0.932 . S
C143 U126 2.882 . S
C143 C137 1.428 . S
C143 O146 1.301 . S
C143 O147 1.282 . S
O144 U126 2.441 . S
O144 C130 1.249 . S
O145 U126 2.420 . S
O145 C130 1.202 . S
O146 U126 2.455 . S
O146 C143 1.301 . S
O147 U126 2.449 . S
O147 C143 1.282 . S
H148 C121 0.931 . S
H149 C123 0.929 . S
H150 C124 0.930 1_455 S
H151 C125 0.931 1_455 S
H152 C132 0.932 . S
H153 C133 0.930 . S
H154 C134 0.929 . S
H155 C136 0.930 . S
H156 C138 0.932 . S
H157 C139 0.929 . S
H158 C140 0.928 . S
H159 C142 0.932 . S
C160 C161 1.264 . S
C160 C165 1.479 . S
C160 C170 1.465 . S
C161 C160 1.264 . S
C161 C163 1.339 . S
C161 H188 0.931 . S
C162 C163 1.395 . S
C162 C164 1.320 . S
C163 C161 1.339 . S
C163 C162 1.395 . S
C163 H189 0.929 . S
C164 C162 1.320 . S
C164 C165 1.405 . S
C164 H190 0.930 . S
C165 C160 1.479 . S
C165 C164 1.405 . S
C165 H191 0.931 . S
U166 O167 2.454 . S
U166 O168 2.458 . S
U166 C169 2.984 . S
U166 C170 2.847 1_655 S
U166 C183 2.882 . S
U166 O184 2.441 1_655 S
U166 O185 2.420 . S
U166 O186 2.455 . S
U166 O187 2.449 . S
O167 U166 2.454 . S
O167 C169 1.353 . S
O168 U166 2.458 . S
O168 C169 1.286 . S
C169 U166 2.984 . S
C169 O167 1.353 . S
C169 O168 1.286 . S
C169 C171 1.363 . S
C170 C160 1.465 . S
C170 U166 2.847 1_455 S
C170 O184 1.249 . S
C170 O185 1.202 1_455 S
C171 C169 1.363 . S
C171 C173 1.408 . S
C171 C176 1.342 . S
C172 C173 1.310 . S
C172 C175 1.461 . S
C172 H192 0.932 1_665 S
C173 C171 1.408 . S
C173 C172 1.310 . S
C173 H193 0.930 1_655 S
C174 C175 1.474 . S
C174 C176 1.285 . S
C174 H194 0.929 . S
C175 C172 1.461 . S
C175 C174 1.474 . S
C176 C171 1.342 . S
C176 C174 1.285 . S
C176 H195 0.930 . S
C177 C180 1.424 . S
C177 C182 1.245 . S
C177 C183 1.428 . S
C178 C181 1.260 . S
C178 C182 1.477 . S
C178 H196 0.932 . S
C179 C180 1.384 . S
C179 C181 1.479 . S
C179 H197 0.929 . S
C180 C177 1.424 . S
C180 C179 1.384 . S
C180 H198 0.928 . S
C181 C178 1.260 . S
C181 C179 1.479 . S
C182 C177 1.245 . S
C182 C178 1.477 . S
C182 H199 0.932 . S
C183 U166 2.882 . S
C183 C177 1.428 . S
C183 O186 1.301 . S
C183 O187 1.282 . S
O184 U166 2.441 1_455 S
O184 C170 1.249 . S
O185 U166 2.420 . S
O185 C170 1.202 1_655 S
O186 U166 2.455 . S
O186 C183 1.301 . S
O187 U166 2.449 . S
O187 C183 1.282 . S
H188 C161 0.931 . S
H189 C163 0.929 . S
H190 C164 0.930 . S
H191 C165 0.931 . S
H192 C172 0.932 1_445 S
H193 C173 0.930 1_455 S
H194 C174 0.929 . S
H195 C176 0.930 . S
H196 C178 0.932 . S
H197 C179 0.929 . S
H198 C180 0.928 . S
H199 C182 0.932 . S
C200 C201 1.264 . S
C200 C205 1.479 . S
C200 C210 1.465 . S
C201 C200 1.264 . S
C201 C203 1.339 . S
C201 H228 0.931 . S
C202 C203 1.395 . S
C202 C204 1.320 . S
C203 C201 1.339 . S
C203 C202 1.395 . S
C203 H229 0.929 . S
C204 C202 1.320 . S
C204 C205 1.405 . S
C204 H230 0.936 1_565 S
C205 C200 1.479 . S
C205 C204 1.405 . S
C205 H231 0.931 . S
U206 O207 2.454 1_554 S
U206 O208 2.458 1_554 S
U206 C209 2.984 1_554 S
U206 C210 2.847 . S
U206 C223 2.882 . S
U206 O224 2.441 . S
U206 O225 2.420 . S
U206 O226 2.455 . S
U206 O227 2.449 . S
O207 U206 2.454 1_556 S
O207 C209 1.353 . S
O208 U206 2.458 1_556 S
O208 C209 1.286 . S
C209 U206 2.984 1_556 S
C209 O207 1.353 . S
C209 O208 1.286 . S
C209 C211 1.363 . S
C210 C200 1.465 . S
C210 U206 2.847 . S
C210 O224 1.249 . S
C210 O225 1.202 . S
C211 C209 1.363 . S
C211 C213 1.408 . S
C211 C216 1.342 . S
C212 C213 1.310 . S
C212 C215 1.461 . S
C212 H232 0.932 . S
C213 C211 1.408 . S
C213 C212 1.310 . S
C213 H233 0.930 . S
C214 C215 1.474 . S
C214 C216 1.285 . S
C214 H234 0.929 . S
C215 C212 1.461 . S
C215 C214 1.474 . S
C216 C211 1.342 . S
C216 C214 1.285 . S
C216 H235 0.930 . S
C217 C220 1.424 . S
C217 C222 1.245 1_554 S
C217 C223 1.428 . S
C218 C221 1.260 . S
C218 C222 1.477 . S
C218 H236 0.932 . S
C219 C220 1.384 . S
C219 C221 1.479 1_554 S
C219 H237 0.929 . S
C220 C217 1.424 . S
C220 C219 1.384 . S
C220 H238 0.928 . S
C221 C218 1.260 . S
C221 C219 1.479 1_556 S
C222 C217 1.245 1_556 S
C222 C218 1.477 . S
C222 H239 0.932 . S
C223 U206 2.882 . S
C223 C217 1.428 . S
C223 O226 1.302 . S
C223 O227 1.282 . S
O224 U206 2.441 . S
O224 C210 1.249 . S
O225 U206 2.420 . S
O225 C210 1.202 . S
O226 U206 2.455 . S
O226 C223 1.302 . S
O227 U206 2.449 . S
O227 C223 1.282 . S
H228 C201 0.931 . S
H229 C203 0.929 . S
H230 C204 0.936 1_545 S
H231 C205 0.931 . S
H232 C212 0.932 . S
H233 C213 0.930 . S
H234 C214 0.929 . S
H235 C216 0.930 . S
H236 C218 0.932 . S
H237 C219 0.929 . S
H238 C220 0.928 . S
H239 C222 0.932 . S
C240 C241 1.391 . S
C240 C242 1.394 . S
C240 H256 0.931 . S
C241 C240 1.391 . S
C241 C245 1.376 . S
C242 C240 1.394 . S
C242 C243 1.369 . S
C242 C246 1.531 . S
C243 C242 1.369 . S
C243 C244 1.410 . S
C243 C251 1.503 . S
C244 C243 1.410 . S
C244 C245 1.392 . S
C244 C247 1.511 . S
C245 C241 1.376 . S
C245 C244 1.392 . S
C245 H257 0.929 . S
C246 C242 1.531 . S
C246 H258 0.960 . S
C246 H259 0.962 . S
C246 H260 0.960 . S
C247 C244 1.511 . S
C247 H261 0.961 . S
C247 H262 0.961 . S
C247 H263 0.961 . S
C248 C249 1.370 . S
C248 C250 1.363 . S
C248 H264 0.931 . S
C249 C248 1.370 . S
C249 C253 1.408 . S
C250 C248 1.363 . S
C250 C251 1.370 . S
C250 C254 1.524 . S
C251 C243 1.503 . S
C251 C250 1.370 . S
C251 C252 1.403 . S
C252 C251 1.403 . S
C252 C253 1.404 . S
C252 C255 1.539 . S
C253 C249 1.408 . S
C253 C252 1.404 . S
C253 H265 0.930 . S
C254 C250 1.524 . S
C254 H266 0.956 . S
C254 H267 0.961 . S
C254 H268 0.961 . S
C255 C252 1.539 . S
C255 H269 0.958 . S
C255 H270 0.961 . S
C255 H271 0.960 . S
H256 C240 0.931 . S
H257 C245 0.929 . S
H258 C246 0.960 . S
H259 C246 0.962 . S
H260 C246 0.960 . S
H261 C247 0.961 . S
H262 C247 0.961 . S
H263 C247 0.961 . S
H264 C248 0.931 . S
H265 C253 0.930 . S
H266 C254 0.956 . S
H267 C254 0.961 . S
H268 C254 0.961 . S
H269 C255 0.958 . S
H270 C255 0.961 . S
H271 C255 0.960 . S
C272 C273 1.391 . S
C272 C274 1.394 . S
C272 H288 0.931 . S
C273 C272 1.391 . S
C273 C277 1.376 . S
C274 C272 1.394 . S
C274 C275 1.369 . S
C274 C278 1.531 . S
C275 C274 1.369 . S
C275 C276 1.410 . S
C275 C283 1.503 . S
C276 C275 1.410 . S
C276 C277 1.392 . S
C276 C279 1.511 . S
C277 C273 1.376 . S
C277 C276 1.392 . S
C277 H289 0.929 . S
C278 C274 1.531 . S
C278 H290 0.960 . S
C278 H291 0.962 . S
C278 H292 0.960 . S
C279 C276 1.511 . S
C279 H293 0.961 . S
C279 H294 0.961 . S
C279 H295 0.961 . S
C280 C281 1.370 . S
C280 C282 1.363 . S
C280 H296 0.931 . S
C281 C280 1.370 . S
C281 C285 1.408 . S
C282 C280 1.363 . S
C282 C283 1.370 . S
C282 C286 1.524 . S
C283 C275 1.503 . S
C283 C282 1.370 . S
C283 C284 1.403 . S
C284 C283 1.403 . S
C284 C285 1.404 . S
C284 C287 1.539 . S
C285 C281 1.408 . S
C285 C284 1.404 . S
C285 H297 0.930 . S
C286 C282 1.524 . S
C286 H298 0.956 . S
C286 H299 0.961 . S
C286 H300 0.961 . S
C287 C284 1.539 . S
C287 H301 0.958 . S
C287 H302 0.961 . S
C287 H303 0.960 . S
H288 C272 0.931 . S
H289 C277 0.929 . S
H290 C278 0.960 . S
H291 C278 0.962 . S
H292 C278 0.960 . S
H293 C279 0.961 . S
H294 C279 0.961 . S
H295 C279 0.961 . S
H296 C280 0.931 . S
H297 C285 0.930 . S
H298 C286 0.956 . S
H299 C286 0.961 . S
H300 C286 0.961 . S
H301 C287 0.958 . S
H302 C287 0.961 . S
H303 C287 0.960 . S
C304 C305 1.391 . S
C304 C306 1.394 . S
C304 H320 0.931 . S
C305 C304 1.391 . S
C305 C309 1.376 . S
C306 C304 1.394 . S
C306 C307 1.369 . S
C306 C310 1.531 . S
C307 C306 1.369 . S
C307 C308 1.410 . S
C307 C315 1.503 . S
C308 C307 1.410 . S
C308 C309 1.392 . S
C308 C311 1.511 . S
C309 C305 1.376 . S
C309 C308 1.392 . S
C309 H321 0.929 . S
C310 C306 1.531 . S
C310 H322 0.960 . S
C310 H323 0.962 . S
C310 H324 0.960 . S
C311 C308 1.511 . S
C311 H325 0.961 . S
C311 H326 0.961 . S
C311 H327 0.961 . S
C312 C313 1.370 . S
C312 C314 1.363 . S
C312 H328 0.931 . S
C313 C312 1.370 . S
C313 C317 1.408 . S
C314 C312 1.363 . S
C314 C315 1.370 . S
C314 C318 1.524 1_554 S
C315 C307 1.503 . S
C315 C314 1.370 . S
C315 C316 1.403 . S
C316 C315 1.403 . S
C316 C317 1.404 . S
C316 C319 1.539 . S
C317 C313 1.408 . S
C317 C316 1.404 . S
C317 H329 0.930 . S
C318 C314 1.524 1_556 S
C318 H330 0.956 . S
C318 H331 0.961 . S
C318 H332 0.961 . S
C319 C316 1.539 . S
C319 H333 0.958 . S
C319 H334 0.961 . S
C319 H335 0.960 . S
H320 C304 0.931 . S
H321 C309 0.929 . S
H322 C310 0.960 . S
H323 C310 0.962 . S
H324 C310 0.960 . S
H325 C311 0.961 . S
H326 C311 0.961 . S
H327 C311 0.961 . S
H328 C312 0.931 . S
H329 C317 0.930 . S
H330 C318 0.956 . S
H331 C318 0.961 . S
H332 C318 0.961 . S
H333 C319 0.958 . S
H334 C319 0.961 . S
H335 C319 0.960 . S
C336 C337 1.391 . S
C336 C338 1.394 . S
C336 H352 0.931 1_545 S
C337 C336 1.391 . S
C337 C341 1.376 . S
C338 C336 1.394 . S
C338 C339 1.369 . S
C338 C342 1.531 . S
C339 C338 1.369 . S
C339 C340 1.410 . S
C339 C347 1.503 . S
C340 C339 1.410 . S
C340 C341 1.392 . S
C340 C343 1.511 . S
C341 C337 1.376 . S
C341 C340 1.392 . S
C341 H353 0.929 . S
C342 C338 1.531 . S
C342 H354 0.960 . S
C342 H355 0.962 . S
C342 H356 0.960 . S
C343 C340 1.511 . S
C343 H357 0.961 1_655 S
C343 H358 0.961 . S
C343 H359 0.961 . S
C344 C345 1.370 . S
C344 C346 1.363 . S
C344 H360 0.931 . S
C345 C344 1.370 . S
C345 C349 1.408 . S
C346 C344 1.363 . S
C346 C347 1.370 . S
C346 C350 1.524 1_655 S
C347 C339 1.503 . S
C347 C346 1.370 . S
C347 C348 1.403 . S
C348 C347 1.403 . S
C348 C349 1.404 . S
C348 C351 1.539 . S
C349 C345 1.408 . S
C349 C348 1.404 . S
C349 H361 0.930 . S
C350 C346 1.524 1_455 S
C350 H362 0.956 1_455 S
C350 H363 0.961 . S
C350 H364 0.961 . S
C351 C348 1.539 . S
C351 H365 0.958 . S
C351 H366 0.961 . S
C351 H367 0.960 . S
H352 C336 0.931 1_565 S
H353 C341 0.929 . S
H354 C342 0.960 . S
H355 C342 0.962 . S
H356 C342 0.960 . S
H357 C343 0.961 1_455 S
H358 C343 0.961 . S
H359 C343 0.961 . S
H360 C344 0.931 . S
H361 C349 0.930 . S
H362 C350 0.956 1_655 S
H363 C350 0.961 . S
H364 C350 0.961 . S
H365 C351 0.958 . S
H366 C351 0.961 . S
H367 C351 0.960 . S
C368 C369 1.391 . S
C368 C370 1.394 . S
C368 H384 0.931 . S
C369 C368 1.391 . S
C369 C373 1.376 . S
C370 C368 1.394 . S
C370 C371 1.369 . S
C370 C374 1.531 . S
C371 C370 1.369 . S
C371 C372 1.410 . S
C371 C379 1.503 . S
C372 C371 1.410 . S
C372 C373 1.392 . S
C372 C375 1.511 . S
C373 C369 1.376 . S
C373 C372 1.392 . S
C373 H385 0.929 . S
C374 C370 1.531 . S
C374 H386 0.960 . S
C374 H387 0.962 . S
C374 H388 0.960 . S
C375 C372 1.511 . S
C375 H389 0.961 . S
C375 H390 0.961 . S
C375 H391 0.961 . S
C376 C377 1.370 . S
C376 C378 1.363 . S
C376 H392 0.931 . S
C377 C376 1.370 . S
C377 C381 1.408 . S
C378 C376 1.363 . S
C378 C379 1.370 . S
C378 C382 1.524 . S
C379 C371 1.503 . S
C379 C378 1.370 . S
C379 C380 1.403 . S
C380 C379 1.403 . S
C380 C381 1.404 . S
C380 C383 1.539 . S
C381 C377 1.408 . S
C381 C380 1.404 . S
C381 H393 0.930 . S
C382 C378 1.524 . S
C382 H394 0.956 . S
C382 H395 0.961 . S
C382 H396 0.961 . S
C383 C380 1.539 . S
C383 H397 0.958 . S
C383 H398 0.961 . S
C383 H399 0.960 . S
H384 C368 0.931 . S
H385 C373 0.929 . S
H386 C374 0.960 . S
H387 C374 0.962 . S
H388 C374 0.960 . S
H389 C375 0.961 . S
H390 C375 0.961 . S
H391 C375 0.961 . S
H392 C376 0.931 . S
H393 C381 0.930 . S
H394 C382 0.956 . S
H395 C382 0.961 . S
H396 C382 0.961 . S
H397 C383 0.958 . S
H398 C383 0.961 . S
H399 C383 0.960 . S
C400 C401 1.391 . S
C400 C402 1.394 . S
C400 H416 0.931 1_554 S
C401 C400 1.391 . S
C401 C405 1.376 . S
C402 C400 1.394 . S
C402 C403 1.369 . S
C402 C406 1.531 1_554 S
C403 C402 1.369 . S
C403 C404 1.410 . S
C403 C411 1.503 . S
C404 C403 1.410 . S
C404 C405 1.392 . S
C404 C407 1.511 . S
C405 C401 1.376 . S
C405 C404 1.392 . S
C405 H417 0.929 . S
C406 C402 1.531 1_556 S
C406 H418 0.960 . S
C406 H419 0.962 . S
C406 H420 0.960 . S
C407 C404 1.511 . S
C407 H421 0.961 . S
C407 H422 0.961 . S
C407 H423 0.961 . S
C408 C409 1.370 . S
C408 C410 1.363 . S
C408 H424 0.931 . S
C409 C408 1.370 . S
C409 C413 1.408 . S
C410 C408 1.363 . S
C410 C411 1.370 . S
C410 C414 1.524 . S
C411 C403 1.503 . S
C411 C410 1.370 . S
C411 C412 1.403 . S
C412 C411 1.403 . S
C412 C413 1.404 . S
C412 C415 1.539 . S
C413 C409 1.408 . S
C413 C412 1.404 . S
C413 H425 0.930 . S
C414 C410 1.524 . S
C414 H426 0.956 . S
C414 H427 0.961 . S
C414 H428 0.961 . S
C415 C412 1.539 . S
C415 H429 0.958 1_554 S
C415 H430 0.961 . S
C415 H431 0.960 . S
H416 C400 0.931 1_556 S
H417 C405 0.929 . S
H418 C406 0.960 . S
H419 C406 0.962 . S
H420 C406 0.960 . S
H421 C407 0.961 . S
H422 C407 0.961 . S
H423 C407 0.961 . S
H424 C408 0.931 . S
H425 C413 0.930 . S
H426 C414 0.956 . S
H427 C414 0.961 . S
H428 C414 0.961 . S
H429 C415 0.958 1_556 S
H430 C415 0.961 . S
H431 C415 0.960 . S
C432 C433 1.391 . S
C432 C434 1.394 . S
C432 H448 0.931 . S
C433 C432 1.391 . S
C433 C437 1.376 . S
C434 C432 1.394 . S
C434 C435 1.369 . S
C434 C438 1.531 . S
C435 C434 1.369 . S
C435 C436 1.410 . S
C435 C443 1.503 . S
C436 C435 1.410 . S
C436 C437 1.392 . S
C436 C439 1.511 . S
C437 C433 1.376 . S
C437 C436 1.392 . S
C437 H449 0.929 . S
C438 C434 1.531 . S
C438 H450 0.960 . S
C438 H451 0.962 . S
C438 H452 0.960 . S
C439 C436 1.511 . S
C439 H453 0.961 . S
C439 H454 0.961 . S
C439 H455 0.961 . S
C440 C441 1.370 . S
C440 C442 1.363 . S
C440 H456 0.931 . S
C441 C440 1.370 . S
C441 C445 1.408 . S
C442 C440 1.363 . S
C442 C443 1.370 . S
C442 C446 1.524 . S
C443 C435 1.503 . S
C443 C442 1.370 . S
C443 C444 1.403 . S
C444 C443 1.403 . S
C444 C445 1.404 . S
C444 C447 1.539 . S
C445 C441 1.408 . S
C445 C444 1.404 . S
C445 H457 0.930 . S
C446 C442 1.524 . S
C446 H458 0.956 . S
C446 H459 0.961 . S
C446 H460 0.961 . S
C447 C444 1.539 . S
C447 H461 0.958 . S
C447 H462 0.961 . S
C447 H463 0.960 . S
H448 C432 0.931 . S
H449 C437 0.929 . S
H450 C438 0.960 . S
H451 C438 0.962 . S
H452 C438 0.960 . S
H453 C439 0.961 . S
H454 C439 0.961 . S
H455 C439 0.961 . S
H456 C440 0.931 . S
H457 C445 0.930 . S
H458 C446 0.956 . S
H459 C446 0.961 . S
H460 C446 0.961 . S
H461 C447 0.958 . S
H462 C447 0.961 . S
H463 C447 0.960 . S
C464 C465 1.391 . S
C464 C466 1.394 . S
C464 H480 0.931 . S
C465 C464 1.391 . S
C465 C469 1.376 . S
C466 C464 1.394 . S
C466 C467 1.369 . S
C466 C470 1.531 . S
C467 C466 1.369 . S
C467 C468 1.410 . S
C467 C475 1.503 . S
C468 C467 1.410 . S
C468 C469 1.392 . S
C468 C471 1.511 . S
C469 C465 1.376 . S
C469 C468 1.392 . S
C469 H481 0.929 . S
C470 C466 1.531 . S
C470 H482 0.960 . S
C470 H483 0.962 . S
C470 H484 0.960 . S
C471 C468 1.511 . S
C471 H485 0.961 . S
C471 H486 0.961 . S
C471 H487 0.961 . S
C472 C473 1.370 . S
C472 C474 1.363 . S
C472 H488 0.931 . S
C473 C472 1.370 . S
C473 C477 1.408 . S
C474 C472 1.363 . S
C474 C475 1.370 . S
C474 C478 1.524 . S
C475 C467 1.503 . S
C475 C474 1.370 . S
C475 C476 1.403 . S
C476 C475 1.403 . S
C476 C477 1.404 . S
C476 C479 1.539 . S
C477 C473 1.408 . S
C477 C476 1.404 . S
C477 H489 0.930 . S
C478 C474 1.524 . S
C478 H490 0.956 . S
C478 H491 0.961 . S
C478 H492 0.961 . S
C479 C476 1.539 . S
C479 H493 0.958 . S
C479 H494 0.961 . S
C479 H495 0.960 . S
H480 C464 0.931 . S
H481 C469 0.929 . S
H482 C470 0.960 . S
H483 C470 0.962 . S
H484 C470 0.960 . S
H485 C471 0.961 . S
H486 C471 0.961 . S
H487 C471 0.961 . S
H488 C472 0.931 . S
H489 C477 0.930 . S
H490 C478 0.956 . S
H491 C478 0.961 . S
H492 C478 0.961 . S
H493 C479 0.958 . S
H494 C479 0.961 . S
H495 C479 0.960 . S
C496 C497 1.391 . S
C496 C498 1.394 . S
C496 H512 0.931 . S
C497 C496 1.391 . S
C497 C501 1.376 1_556 S
C498 C496 1.394 . S
C498 C499 1.369 . S
C498 C502 1.531 . S
C499 C498 1.369 . S
C499 C500 1.410 1_556 S
C499 C507 1.503 . S
C500 C499 1.410 1_554 S
C500 C501 1.392 . S
C500 C503 1.511 . S
C501 C497 1.376 1_554 S
C501 C500 1.392 . S
C501 H513 0.929 . S
C502 C498 1.531 . S
C502 H514 0.960 . S
C502 H515 0.962 . S
C502 H516 0.960 . S
C503 C500 1.511 . S
C503 H517 0.961 . S
C503 H518 0.961 . S
C503 H519 0.961 . S
C504 C505 1.370 . S
C504 C506 1.363 . S
C504 H520 0.931 . S
C505 C504 1.370 . S
C505 C509 1.408 1_556 S
C506 C504 1.363 . S
C506 C507 1.370 . S
C506 C510 1.524 . S
C507 C499 1.503 . S
C507 C506 1.370 . S
C507 C508 1.403 1_556 S
C508 C507 1.403 1_554 S
C508 C509 1.404 . S
C508 C511 1.539 . S
C509 C505 1.408 1_554 S
C509 C508 1.404 . S
C509 H521 0.930 . S
C510 C506 1.524 . S
C510 H522 0.956 . S
C510 H523 0.961 . S
C510 H524 0.961 . S
C511 C508 1.539 . S
C511 H525 0.958 . S
C511 H526 0.961 . S
C511 H527 0.960 . S
H512 C496 0.931 . S
H513 C501 0.929 . S
H514 C502 0.960 . S
H515 C502 0.962 . S
H516 C502 0.960 . S
H517 C503 0.961 . S
H518 C503 0.961 . S
H519 C503 0.961 . S
H520 C504 0.931 . S
H521 C509 0.930 . S
H522 C510 0.956 . S
H523 C510 0.961 . S
H524 C510 0.961 . S
H525 C511 0.958 . S
H526 C511 0.961 . S
H527 C511 0.960 . S
C241 C2 1.464 . S
C249 C55 1.501 . S
C273 C42 1.495 . S
C281 C95 1.504 . S
C305 C82 1.493 . S
C313 C135 1.506 . S
C337 C175 1.497 1_545 S
C345 C122 1.483 . S
C369 C162 1.499 . S
C377 C215 1.504 . S
C401 C202 1.494 1_545 S
C409 C15 1.509 . S
C433 C141 1.484 . S
C441 C21 1.485 . S
C465 C61 1.493 . S
C473 C181 1.491 . S
C497 C101 1.482 . S
C505 C221 1.493 . S
