# Generated by pormake.
# Topology uov, (4)-cn, num edge types: 1
# Building blocks:
#     Node 0, Type 0, BuildingBlock: UXUYUI_clean_sbu_0, # of connection points: 4
#     Node 1, Type 0, BuildingBlock: UXUYUI_clean_sbu_0, # of connection points: 4
#     Node 2, Type 0, BuildingBlock: UXUYUI_clean_sbu_0, # of connection points: 4
#     Node 3, Type 0, BuildingBlock: UXUYUI_clean_sbu_0, # of connection points: 4
#     Node 4, Type 0, BuildingBlock: UXUYUI_clean_sbu_0, # of connection points: 4
#     Node 5, Type 0, BuildingBlock: UXUYUI_clean_sbu_0, # of connection points: 4
#     Node 6, Type 0, BuildingBlock: UXUYUI_clean_sbu_0, # of connection points: 4
#     Node 7, Type 0, BuildingBlock: UXUYUI_clean_sbu_0, # of connection points: 4
#     Edge 8, Type (0, 0), None
#     Edge 9, Type (0, 0), None
#     Edge 10, Type (0, 0), None
#     Edge 11, Type (0, 0), None
#     Edge 12, Type (0, 0), None
#     Edge 13, Type (0, 0), None
#     Edge 14, Type (0, 0), None
#     Edge 15, Type (0, 0), None
#     Edge 16, Type (0, 0), None
#     Edge 17, Type (0, 0), None
#     Edge 18, Type (0, 0), None
#     Edge 19, Type (0, 0), None
#     Edge 20, Type (0, 0), None
#     Edge 21, Type (0, 0), None
#     Edge 22, Type (0, 0), None
#     Edge 23, Type (0, 0), None
# Relax obj value: 0.339
# Max RMSD: 0.266
# Mean RMSD: 0.265
data_MOF--net-uov--node1-UXUYUI_clean_sbu_0--edge1-none
_symmetry_space_group_name_H-M    P1
_symmetry_Int_Tables_number       1
_symmetry_cell_setting            triclinic
loop_
_symmetry_equiv_pos_as_xyz
'x, y, z'
_cell_length_a     27.404801
_cell_length_b     27.40477
_cell_length_c     38.920191
_cell_angle_alpha  90.000074
_cell_angle_beta   89.998967
_cell_angle_gamma 90.276781
loop_
_atom_site_label
_atom_site_type_symbol
_atom_site_fract_x
_atom_site_fract_y
_atom_site_fract_z
_atom_type_partial_charge
Li0 Li 0.03797 0.2206 0.64648 0.0
Li1 Li 0.02118 0.30316 0.62213 0.0
Li2 Li 0.97342 0.2351 0.60511 0.0
Li3 Li 0.0557 0.23975 0.58611 0.0
C4 C 0.93458 0.24739 0.66428 0.0
N5 N 0.84361 0.2156 0.6854 0.0
C6 C 0.89436 0.27833 0.66183 0.0
C7 C 0.92862 0.20034 0.67753 0.0
C8 C 0.84863 0.26155 0.67262 0.0
C9 C 0.88231 0.18495 0.68808 0.0
C10 C 0.11442 0.28695 0.65346 0.0
C11 C 0.19374 0.30287 0.67793 0.0
N12 N 0.17205 0.32072 0.70671 0.0
C13 C 0.09289 0.3054 0.68328 0.0
C14 C 0.16523 0.28558 0.65074 0.0
C15 C 0.12266 0.32233 0.70991 0.0
C16 C 0.08847 0.14324 0.67793 0.0
N17 N 0.06267 0.18426 0.6849 0.0
C18 C 0.07996 0.17595 0.7449 0.0
C19 C 0.05741 0.20048 0.71768 0.0
C20 C 0.10726 0.13331 0.73862 0.0
C21 C 0.11038 0.11674 0.70442 0.0
H22 H 0.09275 0.1315 0.65162 0.0
H23 H 0.0368 0.23328 0.72264 0.0
C24 C 0.97253 0.39139 0.62071 0.0
N25 N 0.01681 0.37235 0.62865 0.0
C26 C 0.96504 0.44172 0.62174 0.0
C27 C 0.04888 0.45226 0.63943 0.0
C28 C 0.05496 0.40169 0.6375 0.0
C29 C 0.00349 0.47313 0.63123 0.0
H30 H 0.94334 0.36741 0.61251 0.0
H31 H 0.09044 0.38624 0.64235 0.0
C32 C 0.01555 0.14708 0.58006 0.0
N33 N 0.00549 0.07816 0.52853 0.0
C34 C 0.99376 0.15954 0.54878 0.0
C35 C 0.0321 0.09941 0.58507 0.0
C36 C 0.98885 0.12418 0.52313 0.0
C37 C 0.02687 0.06519 0.55868 0.0
C38 C 0.01933 0.31955 0.55242 0.0
C39 C 0.99007 0.33508 0.52515 0.0
C40 C 0.066 0.33958 0.55657 0.0
C41 C 0.00788 0.37057 0.50258 0.0
C42 C 0.08245 0.37504 0.53348 0.0
N43 N 0.0533 0.38968 0.50719 0.0
C44 C 0.88748 0.2515 0.56917 0.0
C45 C 0.89329 0.17084 0.59077 0.0
C46 C 0.84964 0.23778 0.54718 0.0
N47 N 0.90995 0.21756 0.58902 0.0
C48 C 0.85543 0.15551 0.56921 0.0
C49 C 0.83486 0.1887 0.54579 0.0
H50 H 0.90148 0.28843 0.56846 0.0
H51 H 0.91227 0.1445 0.6065 0.0
C52 C 0.1411 0.20151 0.55843 0.0
N53 N 0.09798 0.22216 0.54967 0.0
C54 C 0.16792 0.1759 0.53398 0.0
C55 C 0.10657 0.19542 0.49157 0.0
C56 C 0.08146 0.22154 0.51672 0.0
C57 C 0.14937 0.17035 0.50045 0.0
H58 H 0.15302 0.20222 0.58493 0.0
H59 H 0.04669 0.23777 0.51052 0.0
O60 O 0.97942 0.26257 0.65308 0.0
O61 O 0.08615 0.26921 0.62728 0.0
O62 O 0.02168 0.18135 0.60542 0.0
O63 O 0.00201 0.28489 0.57472 0.0
H64 H 0.89832 0.31479 0.65155 0.0
H65 H 0.95932 0.17578 0.6793 0.0
H66 H 0.81713 0.28503 0.67078 0.0
H67 H 0.87711 0.14857 0.69828 0.0
H68 H 0.23313 0.30204 0.67618 0.0
H69 H 0.05363 0.30687 0.68578 0.0
H70 H 0.18243 0.27121 0.62786 0.0
H71 H 0.10648 0.33675 0.73312 0.0
H72 H 0.07691 0.19134 0.77038 0.0
H73 H 0.12974 0.08374 0.69785 0.0
H74 H 0.92981 0.45577 0.61416 0.0
H75 H 0.07965 0.47465 0.64708 0.0
H76 H 0.98113 0.19626 0.54416 0.0
H77 H 0.04896 0.08886 0.60903 0.0
H78 H 0.97206 0.13342 0.49884 0.0
H79 H 0.03987 0.02831 0.56218 0.0
H80 H 0.95399 0.31979 0.52139 0.0
H81 H 0.08938 0.3281 0.57735 0.0
H82 H 0.98559 0.38292 0.48138 0.0
H83 H 0.11842 0.39091 0.53646 0.0
H84 H 0.83431 0.26458 0.52987 0.0
H85 H 0.84552 0.11721 0.56876 0.0
H86 H 0.20143 0.15835 0.54181 0.0
H87 H 0.09056 0.19198 0.46626 0.0
Li88 Li 0.23273 0.00644 0.40992 0.0
Li89 Li 0.30583 0.96846 0.3895 0.0
Li90 Li 0.22362 0.94485 0.36453 0.0
Li91 Li 0.24899 0.92201 0.42452 0.0
C92 C 0.24323 0.05101 0.34711 0.0
N93 N 0.21158 0.1358 0.31596 0.0
C94 C 0.27179 0.09336 0.3486 0.0
C95 C 0.19872 0.05172 0.32956 0.0
C96 C 0.25511 0.13589 0.33275 0.0
C97 C 0.18332 0.09495 0.31404 0.0
C98 C 0.32757 0.99415 0.45405 0.0
C99 C 0.40526 0.97512 0.47978 0.0
N100 N 0.4128 0.02338 0.48612 0.0
C101 C 0.33592 0.04353 0.46104 0.0
C102 C 0.36232 0.9596 0.46372 0.0
C103 C 0.37928 0.05757 0.47722 0.0
C104 C 0.20705 0.05477 0.46736 0.0
N105 N 0.20666 0.06217 0.43286 0.0
C106 C 0.17093 0.14089 0.44069 0.0
C107 C 0.18875 0.1041 0.41914 0.0
C108 C 0.17106 0.13403 0.47655 0.0
C109 C 0.18924 0.08999 0.48965 0.0
H110 H 0.2206 0.02077 0.47762 0.0
H111 H 0.18773 0.10906 0.39169 0.0
C112 C 0.40255 0.94258 0.36954 0.0
N113 N 0.37329 0.97967 0.37987 0.0
C114 C 0.45279 0.95019 0.36587 0.0
C115 C 0.44156 0.03409 0.38303 0.0
C116 C 0.39158 0.02508 0.38568 0.0
C117 C 0.47325 0.99624 0.37344 0.0
H118 H 0.38703 0.90687 0.36477 0.0
H119 H 0.36755 0.05399 0.39373 0.0
C120 C 0.14457 0.96735 0.42134 0.0
N121 N 0.06042 0.00549 0.44959 0.0
C122 C 0.13392 0.95991 0.4561 0.0
C123 C 0.11215 0.99376 0.40089 0.0
C124 C 0.09127 0.97961 0.46992 0.0
C125 C 0.06986 0.01284 0.41566 0.0
C126 C 0.28401 0.85271 0.38459 0.0
C127 C 0.25085 0.82036 0.3694 0.0
C128 C 0.32159 0.8346 0.40515 0.0
C129 C 0.25551 0.77034 0.37541 0.0
C130 C 0.32499 0.78434 0.41057 0.0
N131 N 0.29214 0.75352 0.39574 0.0
C132 C 0.21102 0.92479 0.29364 0.0
C133 C 0.14472 0.90078 0.32899 0.0
C134 C 0.18799 0.90506 0.26469 0.0
N135 N 0.18929 0.92202 0.32496 0.0
C136 C 0.12047 0.8804 0.30078 0.0
C137 C 0.14227 0.88197 0.26808 0.0
H138 H 0.2467 0.94153 0.29128 0.0
H139 H 0.12844 0.89881 0.35427 0.0
C140 C 0.25107 0.89015 0.49323 0.0
N141 N 0.23717 0.87724 0.46091 0.0
C142 C 0.23073 0.86668 0.52175 0.0
C143 C 0.18452 0.81517 0.48309 0.0
C144 C 0.20538 0.83989 0.45536 0.0
C145 C 0.19573 0.82976 0.51685 0.0
H146 H 0.27491 0.92117 0.49702 0.0
H147 H 0.19312 0.83195 0.42956 0.0
O148 O 0.25936 0.00882 0.36195 0.0
O149 O 0.28571 0.97973 0.4377 0.0
O150 O 0.18662 0.94912 0.40746 0.0
O151 O 0.27971 0.90184 0.37936 0.0
H152 H 0.30638 0.09351 0.36192 0.0
H153 H 0.17626 0.01931 0.32791 0.0
H154 H 0.27676 0.16896 0.33382 0.0
H155 H 0.1489 0.09603 0.30045 0.0
H156 H 0.43261 0.9488 0.48719 0.0
H157 H 0.3096 0.07083 0.45355 0.0
H158 H 0.35626 0.92125 0.45875 0.0
H159 H 0.38639 0.09569 0.48255 0.0
H160 H 0.1571 0.17415 0.42938 0.0
H161 H 0.18857 0.08196 0.51688 0.0
H162 H 0.4753 0.92004 0.35761 0.0
H163 H 0.45517 0.06997 0.38976 0.0
H164 H 0.15854 0.93965 0.47238 0.0
H165 H 0.11965 0.99963 0.37392 0.0
H166 H 0.08277 0.97445 0.49682 0.0
H167 H 0.04453 0.03351 0.40016 0.0
H168 H 0.22163 0.8337 0.35333 0.0
H169 H 0.3478 0.85909 0.41683 0.0
H170 H 0.22996 0.74489 0.36397 0.0
H171 H 0.35378 0.76983 0.42656 0.0
H172 H 0.2065 0.90657 0.24014 0.0
H173 H 0.0851 0.86344 0.30456 0.0
H174 H 0.2402 0.87912 0.54732 0.0
H175 H 0.15684 0.78774 0.47809 0.0
Li176 Li 0.96228 0.77974 0.64646 0.0
Li177 Li 0.97907 0.69719 0.62209 0.0
Li178 Li 0.02687 0.76526 0.60513 0.0
Li179 Li 0.94461 0.76064 0.58607 0.0
C180 C 0.06564 0.75289 0.66431 0.0
N181 N 0.15661 0.7846 0.68548 0.0
C182 C 0.10585 0.72193 0.66185 0.0
C183 C 0.07162 0.79992 0.67759 0.0
C184 C 0.15157 0.73867 0.67266 0.0
C185 C 0.11793 0.81527 0.68816 0.0
C186 C 0.88574 0.71346 0.65334 0.0
C187 C 0.80633 0.69766 0.67771 0.0
N188 N 0.82792 0.67976 0.70652 0.0
C189 C 0.90716 0.69496 0.68319 0.0
C190 C 0.83495 0.71492 0.65056 0.0
C191 C 0.8773 0.67807 0.70978 0.0
C192 C 0.91181 0.85713 0.67792 0.0
N193 N 0.93755 0.81607 0.68488 0.0
C194 C 0.92018 0.82431 0.74487 0.0
C195 C 0.94274 0.79979 0.71765 0.0
C196 C 0.89296 0.867 0.73861 0.0
C197 C 0.8899 0.88362 0.70441 0.0
H198 H 0.90759 0.86892 0.65161 0.0
H199 H 0.96331 0.76696 0.72261 0.0
C200 C 0.02768 0.60894 0.62067 0.0
N201 N 0.98342 0.62799 0.6286 0.0
C202 C 0.03517 0.55861 0.62171 0.0
C203 C 0.95133 0.5481 0.63941 0.0
C204 C 0.94526 0.59867 0.63746 0.0
C205 C 0.99673 0.52721 0.63121 0.0
H206 H 0.05689 0.63292 0.61246 0.0
H207 H 0.90978 0.61412 0.64231 0.0
C208 C 0.98483 0.8533 0.58008 0.0
N209 N 0.99503 0.92224 0.52857 0.0
C210 C 0.00662 0.84083 0.5488 0.0
C211 C 0.96833 0.90098 0.58509 0.0
C212 C 0.01161 0.87619 0.52316 0.0
C213 C 0.97363 0.93522 0.55872 0.0
C214 C 0.98102 0.68085 0.55237 0.0
C215 C 0.01029 0.66536 0.52511 0.0
C216 C 0.93434 0.66081 0.5565 0.0
C217 C 0.9925 0.62989 0.50251 0.0
C218 C 0.91791 0.62538 0.53338 0.0
N219 N 0.94708 0.61077 0.50709 0.0
C220 C 0.11285 0.74886 0.56923 0.0
C221 C 0.10703 0.8295 0.59086 0.0
C222 C 0.15072 0.76259 0.54726 0.0
N223 N 0.09037 0.78278 0.58908 0.0
C224 C 0.14492 0.84484 0.56932 0.0
C225 C 0.1655 0.81166 0.54589 0.0
H226 H 0.09884 0.71193 0.5685 0.0
H227 H 0.08804 0.85584 0.60659 0.0
C228 C 0.85927 0.79895 0.55834 0.0
N229 N 0.90239 0.77827 0.5496 0.0
C230 C 0.8325 0.82457 0.53387 0.0
C231 C 0.89387 0.805 0.4915 0.0
C232 C 0.91895 0.77887 0.51666 0.0
C233 C 0.85107 0.8301 0.50035 0.0
H234 H 0.84733 0.79826 0.58483 0.0
H235 H 0.95371 0.76262 0.51048 0.0
O236 O 0.0208 0.73775 0.65308 0.0
O237 O 0.91411 0.73117 0.62721 0.0
O238 O 0.97863 0.81902 0.60543 0.0
O239 O 0.99831 0.71549 0.5747 0.0
H240 H 0.10187 0.68548 0.65155 0.0
H241 H 0.04093 0.82449 0.67936 0.0
H242 H 0.18306 0.71516 0.67082 0.0
H243 H 0.12315 0.85164 0.69838 0.0
H244 H 0.76695 0.69856 0.67591 0.0
H245 H 0.94642 0.69343 0.68574 0.0
H246 H 0.81782 0.72931 0.62766 0.0
H247 H 0.89339 0.66362 0.733 0.0
H248 H 0.92318 0.80888 0.77035 0.0
H249 H 0.87059 0.91666 0.69786 0.0
H250 H 0.07041 0.54456 0.61413 0.0
H251 H 0.92056 0.52571 0.64706 0.0
H252 H 0.01922 0.80409 0.54418 0.0
H253 H 0.95146 0.91154 0.60905 0.0
H254 H 0.02841 0.86695 0.49888 0.0
H255 H 0.96067 0.97211 0.56222 0.0
H256 H 0.04638 0.68066 0.52137 0.0
H257 H 0.91094 0.67226 0.57728 0.0
H258 H 0.01481 0.61757 0.48131 0.0
H259 H 0.88194 0.6095 0.53634 0.0
H260 H 0.16606 0.73579 0.52995 0.0
H261 H 0.15484 0.88314 0.56888 0.0
H262 H 0.79898 0.84214 0.54169 0.0
H263 H 0.90989 0.80841 0.46619 0.0
Li264 Li 0.77687 0.05555 0.36437 0.0
Li265 Li 0.75149 0.0784 0.42436 0.0
Li266 Li 0.76778 0.99397 0.40976 0.0
Li267 Li 0.69467 0.03193 0.38934 0.0
C268 C 0.85593 0.0331 0.42119 0.0
N269 N 0.94009 0.99502 0.44944 0.0
C270 C 0.86657 0.04056 0.45595 0.0
C271 C 0.88836 0.0067 0.40074 0.0
C272 C 0.90923 0.02089 0.46977 0.0
C273 C 0.93067 0.98765 0.41552 0.0
C274 C 0.71648 0.14769 0.38444 0.0
C275 C 0.67553 0.21605 0.41045 0.0
N276 N 0.70838 0.24687 0.39561 0.0
C277 C 0.74963 0.18004 0.36924 0.0
C278 C 0.67892 0.1658 0.40502 0.0
C279 C 0.74499 0.23006 0.37527 0.0
C280 C 0.78949 0.07559 0.29347 0.0
N281 N 0.8112 0.07839 0.3248 0.0
C282 C 0.88003 0.12001 0.30062 0.0
C283 C 0.85577 0.09964 0.32883 0.0
C284 C 0.85824 0.11842 0.26792 0.0
C285 C 0.81253 0.09531 0.26453 0.0
H286 H 0.75382 0.05884 0.29111 0.0
H287 H 0.87203 0.10163 0.35412 0.0
C288 C 0.74936 0.11024 0.49307 0.0
N289 N 0.76328 0.12316 0.46076 0.0
C290 C 0.76967 0.13369 0.5216 0.0
C291 C 0.81591 0.18522 0.48298 0.0
C292 C 0.79507 0.16051 0.45523 0.0
C293 C 0.80466 0.17061 0.51672 0.0
H294 H 0.72551 0.07921 0.49684 0.0
H295 H 0.80735 0.16847 0.42944 0.0
C296 C 0.7573 0.94938 0.34695 0.0
N297 N 0.78899 0.86462 0.31581 0.0
C298 C 0.72875 0.90703 0.34844 0.0
C299 C 0.80182 0.9487 0.32943 0.0
C300 C 0.74546 0.86451 0.33259 0.0
C301 C 0.81725 0.90547 0.3139 0.0
C302 C 0.67293 0.00622 0.45389 0.0
C303 C 0.66461 0.95683 0.46087 0.0
C304 C 0.63815 0.04074 0.46355 0.0
C305 C 0.62125 0.94275 0.47704 0.0
C306 C 0.59521 0.02518 0.4796 0.0
N307 N 0.58771 0.97692 0.48594 0.0
C308 C 0.79347 0.94568 0.46721 0.0
C309 C 0.81174 0.89631 0.41901 0.0
C310 C 0.81126 0.91047 0.48952 0.0
N311 N 0.79385 0.93825 0.43272 0.0
C312 C 0.82955 0.85953 0.44058 0.0
C313 C 0.82942 0.86641 0.47644 0.0
H314 H 0.77993 0.97969 0.47747 0.0
H315 H 0.81276 0.89132 0.39156 0.0
C316 C 0.59791 0.05781 0.36946 0.0
N317 N 0.6272 0.02071 0.37973 0.0
C318 C 0.54767 0.0502 0.36583 0.0
C319 C 0.55894 0.96628 0.38293 0.0
C320 C 0.60893 0.97529 0.38553 0.0
C321 C 0.52723 0.00414 0.37341 0.0
H322 H 0.61342 0.09353 0.36469 0.0
H323 H 0.63298 0.94637 0.39354 0.0
O324 O 0.81387 0.0513 0.4073 0.0
O325 O 0.72077 0.09856 0.3792 0.0
O326 O 0.74114 0.99157 0.3618 0.0
O327 O 0.71479 0.02067 0.43754 0.0
H328 H 0.84194 0.06081 0.47222 0.0
H329 H 0.88086 0.00082 0.37378 0.0
H330 H 0.91773 0.02606 0.49667 0.0
H331 H 0.956 0.96699 0.40002 0.0
H332 H 0.64676 0.23056 0.42645 0.0
H333 H 0.77884 0.16669 0.35316 0.0
H334 H 0.65271 0.14131 0.4167 0.0
H335 H 0.77053 0.2555 0.36382 0.0
H336 H 0.91538 0.13699 0.30441 0.0
H337 H 0.79403 0.09378 0.23997 0.0
H338 H 0.76017 0.12124 0.54716 0.0
H339 H 0.84358 0.21266 0.47799 0.0
H340 H 0.69415 0.90687 0.36174 0.0
H341 H 0.82427 0.98111 0.32778 0.0
H342 H 0.72381 0.83143 0.33364 0.0
H343 H 0.85167 0.90441 0.30033 0.0
H344 H 0.69095 0.92954 0.45337 0.0
H345 H 0.64418 0.0791 0.45859 0.0
H346 H 0.61417 0.90463 0.48236 0.0
H347 H 0.56785 0.05148 0.48702 0.0
H348 H 0.81193 0.91852 0.51674 0.0
H349 H 0.84336 0.82625 0.42928 0.0
H350 H 0.52514 0.08035 0.35762 0.0
H351 H 0.54535 0.93039 0.38965 0.0
Li352 Li 0.92208 0.24895 0.08135 0.0
Li353 Li 0.94495 0.22358 0.14134 0.0
Li354 Li 0.96851 0.3058 0.11637 0.0
Li355 Li 0.00652 0.23272 0.09594 0.0
C356 C 0.85277 0.28393 0.12129 0.0
N357 N 0.75358 0.292 0.11014 0.0
C358 C 0.82044 0.25076 0.13649 0.0
C359 C 0.83465 0.32149 0.10072 0.0
C360 C 0.77041 0.25539 0.13047 0.0
C361 C 0.78439 0.32487 0.0953 0.0
C362 C 0.96745 0.14454 0.0845 0.0
C363 C 0.01296 0.06984 0.09013 0.0
N364 N 0.00561 0.06044 0.0562 0.0
C365 C 0.96001 0.13393 0.04973 0.0
C366 C 0.99388 0.11211 0.10493 0.0
C367 C 0.97971 0.0913 0.03589 0.0
C368 C 0.89017 0.25106 0.01265 0.0
N369 N 0.8773 0.23712 0.04497 0.0
C370 C 0.81523 0.18448 0.02278 0.0
C371 C 0.83997 0.20531 0.05051 0.0
C372 C 0.82978 0.19574 0.98903 0.0
C373 C 0.86669 0.23075 0.98413 0.0
H374 H 0.92119 0.27493 0.00886 0.0
H375 H 0.83205 0.19303 0.07631 0.0
C376 C 0.92489 0.21098 0.21223 0.0
N377 N 0.92213 0.18924 0.18091 0.0
C378 C 0.90516 0.18795 0.24118 0.0
C379 C 0.88052 0.12042 0.2051 0.0
C380 C 0.9009 0.14466 0.17689 0.0
C381 C 0.88207 0.14223 0.23779 0.0
H382 H 0.94162 0.24666 0.21458 0.0
H383 H 0.89893 0.12838 0.1516 0.0
C384 C 0.99419 0.32757 0.05183 0.0
N385 N 0.02343 0.41281 0.01978 0.0
C386 C 0.04358 0.33593 0.04485 0.0
C387 C 0.95965 0.36231 0.04216 0.0
C388 C 0.05762 0.3793 0.02868 0.0
C389 C 0.97517 0.40527 0.02612 0.0
C390 C 0.05109 0.24322 0.15877 0.0
C391 C 0.09342 0.27181 0.15733 0.0
C392 C 0.05179 0.19868 0.17627 0.0
C393 C 0.13593 0.25512 0.17319 0.0
C394 C 0.09502 0.18327 0.1918 0.0
N395 N 0.13585 0.21156 0.18994 0.0
C396 C 0.94259 0.40252 0.13631 0.0
C397 C 0.02511 0.39156 0.12021 0.0
C398 C 0.95019 0.45276 0.13998 0.0
N399 N 0.97969 0.37326 0.126 0.0
C400 C 0.03411 0.44154 0.12286 0.0
C401 C 0.99624 0.47323 0.13242 0.0
H402 H 0.90688 0.38699 0.14107 0.0
H403 H 0.05403 0.36752 0.11217 0.0
C404 C 0.05484 0.20707 0.03849 0.0
N405 N 0.06227 0.2067 0.07299 0.0
C406 C 0.09007 0.18929 0.01619 0.0
C407 C 0.14104 0.17109 0.06514 0.0
C408 C 0.10423 0.18887 0.0867 0.0
C409 C 0.13415 0.17119 0.02928 0.0
H410 H 0.02082 0.22057 0.02824 0.0
H411 H 0.10922 0.18787 0.11415 0.0
O412 O 0.9019 0.27965 0.12652 0.0
O413 O 0.94922 0.18658 0.0984 0.0
O414 O 0.97978 0.28569 0.06817 0.0
O415 O 0.0089 0.25935 0.14391 0.0
H416 H 0.8338 0.22155 0.15256 0.0
H417 H 0.85912 0.34771 0.08904 0.0
H418 H 0.74498 0.22983 0.14192 0.0
H419 H 0.76987 0.35364 0.07931 0.0
H420 H 0.03365 0.0445 0.10561 0.0
H421 H 0.93973 0.15856 0.03347 0.0
H422 H 0.99976 0.11959 0.1319 0.0
H423 H 0.97454 0.08282 0.00898 0.0
H424 H 0.78781 0.15679 0.02779 0.0
H425 H 0.8791 0.24026 0.95856 0.0
H426 H 0.90666 0.20648 0.26573 0.0
H427 H 0.86356 0.08505 0.20132 0.0
H428 H 0.07088 0.30961 0.05234 0.0
H429 H 0.92129 0.35625 0.04713 0.0
H430 H 0.09574 0.38641 0.02336 0.0
H431 H 0.94885 0.43262 0.01871 0.0
H432 H 0.09355 0.30643 0.14405 0.0
H433 H 0.0194 0.17619 0.17788 0.0
H434 H 0.16899 0.2768 0.17217 0.0
H435 H 0.0961 0.14883 0.20536 0.0
H436 H 0.92003 0.47527 0.14822 0.0
H437 H 0.06999 0.45515 0.11614 0.0
H438 H 0.08202 0.1886 0.98897 0.0
H439 H 0.17433 0.15732 0.07644 0.0
Li440 Li 0.23981 0.05582 0.91971 0.0
Li441 Li 0.23508 0.97352 0.90077 0.0
Li442 Li 0.30315 0.02122 0.88368 0.0
Li443 Li 0.22058 0.03803 0.85937 0.0
C444 C 0.31965 0.01945 0.95337 0.0
N445 N 0.3899 0.05345 0.9985 0.0
C446 C 0.3353 0.99018 0.98059 0.0
C447 C 0.33962 0.06615 0.94921 0.0
C448 C 0.37086 0.008 0.00311 0.0
C449 C 0.37514 0.08261 0.97225 0.0
C450 C 0.14715 0.01569 0.92587 0.0
C451 C 0.06532 0.02704 0.94736 0.0
N452 N 0.07836 0.00567 0.9775 0.0
C453 C 0.15969 0.99393 0.95715 0.0
C454 C 0.09947 0.03225 0.92093 0.0
C455 C 0.1244 0.98904 0.98285 0.0
C456 C 0.20158 0.14124 0.94737 0.0
N457 N 0.22228 0.09815 0.95615 0.0
C458 C 0.19561 0.10677 0.01426 0.0
C459 C 0.22172 0.08166 0.98911 0.0
C460 C 0.17047 0.14953 0.00537 0.0
C461 C 0.17597 0.16805 0.97183 0.0
H462 H 0.20223 0.15313 0.92087 0.0
H463 H 0.23799 0.04691 0.99531 0.0
C464 C 0.25148 0.88759 0.93673 0.0
N465 N 0.21754 0.91007 0.91689 0.0
C466 C 0.23777 0.84974 0.95871 0.0
C467 C 0.15549 0.85555 0.93672 0.0
C468 C 0.17081 0.89343 0.91516 0.0
C469 C 0.18869 0.83496 0.96012 0.0
H470 H 0.28841 0.90158 0.93742 0.0
H471 H 0.14446 0.91241 0.89944 0.0
C472 C 0.28694 0.11439 0.85227 0.0
N473 N 0.32065 0.17184 0.7989 0.0
C474 C 0.30551 0.09277 0.82252 0.0
C475 C 0.28542 0.16521 0.85486 0.0
C476 C 0.32241 0.12244 0.79583 0.0
C477 C 0.30268 0.19363 0.82761 0.0
C478 C 0.2472 0.93464 0.84159 0.0
C479 C 0.27806 0.89435 0.844 0.0
C480 C 0.2001 0.92878 0.82839 0.0
C481 C 0.26116 0.84866 0.83322 0.0
C482 C 0.18459 0.88251 0.81786 0.0
N483 N 0.21517 0.84374 0.82049 0.0
C484 C 0.39136 0.97251 0.88497 0.0
C485 C 0.40168 0.05502 0.8684 0.0
C486 C 0.44169 0.96502 0.88394 0.0
N487 N 0.37233 0.01683 0.87714 0.0
C488 C 0.45225 0.04895 0.86648 0.0
C489 C 0.47311 0.00351 0.87458 0.0
H490 H 0.36736 0.94327 0.89309 0.0
H491 H 0.38624 0.09053 0.86364 0.0
C492 C 0.14314 0.08843 0.82792 0.0
N493 N 0.18421 0.0627 0.82095 0.0
C494 C 0.11665 0.11033 0.80142 0.0
C495 C 0.17597 0.08007 0.76096 0.0
C496 C 0.20049 0.05752 0.78818 0.0
C497 C 0.13328 0.10729 0.76723 0.0
H498 H 0.13136 0.09265 0.85422 0.0
H499 H 0.23332 0.03696 0.78322 0.0
O500 O 0.28494 0.00212 0.93111 0.0
O501 O 0.18136 0.02181 0.90047 0.0
O502 O 0.26923 0.08621 0.8785 0.0
O503 O 0.2625 0.97944 0.85278 0.0
H504 H 0.32007 0.95408 0.98436 0.0
H505 H 0.32804 0.08954 0.92846 0.0
H506 H 0.3833 0.9857 0.02428 0.0
H507 H 0.39096 0.1186 0.96926 0.0
H508 H 0.02843 0.04004 0.94391 0.0
H509 H 0.19642 0.9813 0.96172 0.0
H510 H 0.08886 0.04909 0.89697 0.0
H511 H 0.13371 0.97227 0.00713 0.0
H512 H 0.19222 0.09078 0.03958 0.0
H513 H 0.15837 0.20154 0.964 0.0
H514 H 0.26459 0.83439 0.97601 0.0
H515 H 0.11719 0.84564 0.93718 0.0
H516 H 0.30708 0.05349 0.82011 0.0
H517 H 0.27097 0.18249 0.87768 0.0
H518 H 0.33691 0.10619 0.77268 0.0
H519 H 0.30173 0.23302 0.82926 0.0
H520 H 0.31455 0.89823 0.85423 0.0
H521 H 0.1756 0.95953 0.82666 0.0
H522 H 0.28458 0.81711 0.83503 0.0
H523 H 0.14818 0.87738 0.80771 0.0
H524 H 0.45572 0.92974 0.89145 0.0
H525 H 0.47466 0.07976 0.85893 0.0
H526 H 0.0836 0.12963 0.80798 0.0
H527 H 0.1914 0.07708 0.73548 0.0
Li528 Li 0.99399 0.76777 0.09609 0.0
Li529 Li 0.03193 0.69464 0.11651 0.0
Li530 Li 0.05556 0.77683 0.1415 0.0
Li531 Li 0.07842 0.75147 0.08151 0.0
C532 C 0.94937 0.75727 0.15888 0.0
N533 N 0.86457 0.78895 0.18999 0.0
C534 C 0.907 0.72873 0.15735 0.0
C535 C 0.94867 0.80176 0.17644 0.0
C536 C 0.86447 0.74543 0.17318 0.0
C537 C 0.90542 0.81718 0.19194 0.0
C538 C 0.00625 0.67292 0.05196 0.0
C539 C 0.02523 0.59522 0.02624 0.0
N540 N 0.97697 0.58772 0.01988 0.0
C541 C 0.95686 0.66461 0.04496 0.0
C542 C 0.04077 0.63815 0.0423 0.0
C543 C 0.94279 0.62126 0.02878 0.0
C544 C 0.94574 0.79349 0.03864 0.0
N545 N 0.93829 0.79387 0.07313 0.0
C546 C 0.85959 0.82963 0.06526 0.0
C547 C 0.89636 0.81179 0.08683 0.0
C548 C 0.86649 0.82949 0.0294 0.0
C549 C 0.91054 0.81131 0.01633 0.0
H550 H 0.97974 0.77993 0.02839 0.0
H551 H 0.89137 0.81282 0.11428 0.0
C552 C 0.05779 0.5979 0.13641 0.0
N553 N 0.0207 0.62718 0.12612 0.0
C554 C 0.05019 0.54765 0.14004 0.0
C555 C 0.96628 0.55891 0.1229 0.0
C556 C 0.97529 0.6089 0.1203 0.0
C557 C 0.00414 0.52721 0.13245 0.0
H558 H 0.0935 0.61341 0.14119 0.0
H559 H 0.94638 0.63295 0.11227 0.0
C560 C 0.03314 0.85592 0.0847 0.0
N561 N 0.99508 0.94012 0.05648 0.0
C562 C 0.04061 0.8666 0.04995 0.0
C563 C 0.00673 0.88834 0.10516 0.0
C564 C 0.02096 0.90928 0.03614 0.0
C565 C 0.98769 0.93066 0.09039 0.0
C566 C 0.14769 0.71643 0.12144 0.0
C567 C 0.18004 0.74958 0.13665 0.0
C568 C 0.1658 0.67887 0.10087 0.0
C569 C 0.23006 0.74492 0.13064 0.0
C570 C 0.21606 0.67547 0.09545 0.0
N571 N 0.24688 0.70831 0.1103 0.0
C572 C 0.07561 0.78942 0.2124 0.0
C573 C 0.09964 0.85572 0.17705 0.0
C574 C 0.09534 0.81245 0.24134 0.0
N575 N 0.07839 0.81115 0.18107 0.0
C576 C 0.12002 0.87996 0.20526 0.0
C577 C 0.11845 0.85816 0.23795 0.0
H578 H 0.05886 0.75375 0.21475 0.0
H579 H 0.10162 0.87199 0.15176 0.0
C580 C 0.11026 0.74938 0.01281 0.0
N581 N 0.12319 0.76328 0.04512 0.0
C582 C 0.1337 0.76973 0.98428 0.0
C583 C 0.18525 0.81593 0.02292 0.0
C584 C 0.16055 0.79507 0.05066 0.0
C585 C 0.17063 0.80473 0.98917 0.0
H586 H 0.07923 0.72554 0.00903 0.0
H587 H 0.16851 0.80731 0.07646 0.0
O588 O 0.99157 0.74112 0.14406 0.0
O589 O 0.02069 0.71478 0.06831 0.0
O590 O 0.05133 0.81385 0.09857 0.0
O591 O 0.09856 0.72073 0.12667 0.0
H592 H 0.90685 0.69416 0.14402 0.0
H593 H 0.98109 0.8242 0.17812 0.0
H594 H 0.83138 0.7238 0.17209 0.0
H595 H 0.90436 0.85159 0.20554 0.0
H596 H 0.05153 0.56785 0.01883 0.0
H597 H 0.92958 0.69095 0.05245 0.0
H598 H 0.07913 0.64418 0.04727 0.0
H599 H 0.90468 0.61418 0.02344 0.0
H600 H 0.82632 0.84346 0.07656 0.0
H601 H 0.9186 0.81198 0.9891 0.0
H602 H 0.08034 0.52513 0.14827 0.0
H603 H 0.9304 0.54531 0.11617 0.0
H604 H 0.06088 0.84198 0.03367 0.0
H605 H 0.00083 0.88081 0.13211 0.0
H606 H 0.02615 0.9178 0.00924 0.0
H607 H 0.96703 0.95598 0.1059 0.0
H608 H 0.16669 0.77879 0.15273 0.0
H609 H 0.14132 0.65267 0.08917 0.0
H610 H 0.2555 0.77047 0.1421 0.0
H611 H 0.23057 0.6467 0.07946 0.0
H612 H 0.09382 0.79393 0.2659 0.0
H613 H 0.137 0.91532 0.20148 0.0
H614 H 0.12124 0.76026 0.95871 0.0
H615 H 0.21269 0.8436 0.02792 0.0
Li616 Li 0.76523 0.02695 0.90071 0.0
Li617 Li 0.76068 0.9447 0.91978 0.0
Li618 Li 0.77973 0.96237 0.85937 0.0
Li619 Li 0.69718 0.97913 0.88377 0.0
C620 C 0.85334 0.98495 0.92571 0.0
N621 N 0.92238 0.99517 0.97714 0.0
C622 C 0.84092 0.00672 0.957 0.0
C623 C 0.90103 0.96849 0.92064 0.0
C624 C 0.87633 0.01172 0.9826 0.0
C625 C 0.93531 0.9738 0.94698 0.0
C626 C 0.6809 0.98106 0.9535 0.0
C627 C 0.62543 0.91795 0.9725 0.0
N628 N 0.6109 0.94709 0.99883 0.0
C629 C 0.66548 0.0103 0.98081 0.0
C630 C 0.66082 0.9344 0.94936 0.0
C631 C 0.63005 0.99249 0.00344 0.0
C632 C 0.74884 0.1129 0.93664 0.0
N633 N 0.78275 0.09045 0.91676 0.0
C634 C 0.84481 0.145 0.93652 0.0
C635 C 0.82946 0.10714 0.91497 0.0
C636 C 0.81165 0.16555 0.95997 0.0
C637 C 0.76258 0.15075 0.95862 0.0
H638 H 0.71192 0.09888 0.93738 0.0
H639 H 0.85578 0.08817 0.89921 0.0
C640 C 0.79903 0.85937 0.9475 0.0
N641 N 0.77836 0.90249 0.95624 0.0
C642 C 0.82465 0.83259 0.97196 0.0
C643 C 0.8051 0.89397 0.01434 0.0
C644 C 0.77897 0.91905 0.98918 0.0
C645 C 0.83019 0.85117 0.00548 0.0
H646 H 0.79833 0.84743 0.92101 0.0
H647 H 0.76272 0.95381 0.99537 0.0
C648 C 0.75274 0.06575 0.84155 0.0
N649 N 0.78426 0.15681 0.82044 0.0
C650 C 0.72172 0.1059 0.84409 0.0
C651 C 0.79973 0.07182 0.82822 0.0
C652 C 0.73836 0.15167 0.8333 0.0
C653 C 0.81499 0.11818 0.81768 0.0
C654 C 0.7135 0.88575 0.85255 0.0
C655 C 0.69507 0.90708 0.82266 0.0
C656 C 0.71492 0.83496 0.85542 0.0
C657 C 0.67821 0.87715 0.7961 0.0
C658 C 0.69769 0.80627 0.82829 0.0
N659 N 0.67986 0.82778 0.79944 0.0
C660 C 0.85706 0.91184 0.82791 0.0
C661 C 0.7998 0.94289 0.78817 0.0
C662 C 0.88354 0.88991 0.80142 0.0
N663 N 0.81604 0.93764 0.82095 0.0
C664 C 0.82431 0.92032 0.76095 0.0
C665 C 0.86695 0.89302 0.76722 0.0
H666 H 0.86882 0.90757 0.85422 0.0
H667 H 0.767 0.9635 0.78321 0.0
C668 C 0.6089 0.02767 0.88531 0.0
N669 N 0.62797 0.98345 0.87727 0.0
C670 C 0.55857 0.03515 0.88425 0.0
C671 C 0.5481 0.95141 0.86632 0.0
C672 C 0.59866 0.94533 0.86829 0.0
C673 C 0.52719 0.99676 0.87462 0.0
H674 H 0.63286 0.05683 0.8936 0.0
H675 H 0.61413 0.90988 0.86336 0.0
O676 O 0.81901 0.97875 0.90039 0.0
O677 O 0.7155 0.99837 0.93116 0.0
O678 O 0.73769 0.02087 0.85276 0.0
O679 O 0.73119 0.91418 0.87865 0.0
H680 H 0.80419 0.0193 0.96166 0.0
H681 H 0.91154 0.95164 0.89666 0.0
H682 H 0.86713 0.02851 0.0069 0.0
H683 H 0.97221 0.96088 0.94343 0.0
H684 H 0.60952 0.882 0.96953 0.0
H685 H 0.68081 0.04637 0.98457 0.0
H686 H 0.67221 0.91104 0.92855 0.0
H687 H 0.61779 0.01477 0.02467 0.0
H688 H 0.8831 0.15493 0.93694 0.0
H689 H 0.7358 0.16607 0.97596 0.0
H690 H 0.84222 0.79908 0.96415 0.0
H691 H 0.80853 0.90999 0.03965 0.0
H692 H 0.6853 0.10184 0.85443 0.0
H693 H 0.82434 0.04117 0.82639 0.0
H694 H 0.71482 0.18312 0.8352 0.0
H695 H 0.85132 0.12347 0.80743 0.0
H696 H 0.69356 0.94634 0.82005 0.0
H697 H 0.72927 0.8179 0.87836 0.0
H698 H 0.66381 0.89318 0.77284 0.0
H699 H 0.69856 0.7669 0.83016 0.0
H700 H 0.91654 0.87055 0.80798 0.0
H701 H 0.80891 0.92336 0.73547 0.0
H702 H 0.54451 0.07034 0.89191 0.0
H703 H 0.52573 0.92067 0.85857 0.0
loop_
_geom_bond_atom_site_label_1
_geom_bond_atom_site_label_2
_geom_bond_distance
_geom_bond_site_symmetry_2
_ccdc_geom_bond_type
Li0 N17 1.990 . S
Li0 O60 1.956 1_455 S
Li0 O61 1.970 . S
Li0 O62 1.961 . S
Li1 N25 1.990 . S
Li1 O60 1.970 1_455 S
Li1 O61 1.956 . S
Li1 O63 1.961 . S
Li2 N47 1.990 . S
Li2 O60 1.961 . S
Li2 O62 1.956 1_655 S
Li2 O63 1.970 1_655 S
Li3 N53 1.990 . S
Li3 O61 1.961 . S
Li3 O62 1.970 . S
Li3 O63 1.956 . S
C4 C6 1.348 . S
C4 C7 1.356 . S
C4 O60 1.325 . S
N5 C8 1.314 . S
N5 C9 1.279 . S
C6 C4 1.348 . S
C6 C8 1.353 . S
C6 H64 0.929 . S
C7 C4 1.356 . S
C7 C9 1.358 . S
C7 H65 0.930 . S
C8 N5 1.314 . S
C8 C6 1.353 . S
C8 H66 0.930 . S
C9 N5 1.279 . S
C9 C7 1.358 . S
C9 H67 0.930 . S
C10 C13 1.348 . S
C10 C14 1.356 . S
C10 O61 1.325 . S
C11 N12 1.279 . S
C11 C14 1.358 . S
C11 H68 0.930 . S
N12 C11 1.279 . S
N12 C15 1.314 . S
C13 C10 1.348 . S
C13 C15 1.353 . S
C13 H69 0.929 . S
C14 C10 1.356 . S
C14 C11 1.358 . S
C14 H70 0.930 . S
C15 N12 1.314 . S
C15 C13 1.353 . S
C15 H71 0.930 . S
C16 N17 1.314 . S
C16 C21 1.353 . S
C16 H22 0.930 . S
N17 Li0 1.990 . S
N17 C16 1.314 . S
N17 C19 1.279 . S
C18 C19 1.358 . S
C18 C20 1.356 . S
C18 H72 0.930 . S
C19 N17 1.279 . S
C19 C18 1.358 . S
C19 H23 0.930 . S
C20 C18 1.356 . S
C20 C21 1.348 . S
C21 C16 1.353 . S
C21 C20 1.348 . S
C21 H73 0.929 . S
H22 C16 0.930 . S
H23 C19 0.930 . S
C24 N25 1.314 . S
C24 C26 1.353 . S
C24 H30 0.930 1_455 S
N25 Li1 1.990 . S
N25 C24 1.314 . S
N25 C28 1.279 . S
C26 C24 1.353 . S
C26 C29 1.348 . S
C26 H74 0.929 1_455 S
C27 C28 1.358 . S
C27 C29 1.356 . S
C27 H75 0.930 . S
C28 N25 1.279 . S
C28 C27 1.358 . S
C28 H31 0.930 . S
C29 C26 1.348 . S
C29 C27 1.356 . S
H30 C24 0.930 1_655 S
H31 C28 0.930 . S
C32 C34 1.348 . S
C32 C35 1.356 . S
C32 O62 1.325 . S
N33 C36 1.314 . S
N33 C37 1.279 . S
C34 C32 1.348 . S
C34 C36 1.353 . S
C34 H76 0.929 . S
C35 C32 1.356 . S
C35 C37 1.358 . S
C35 H77 0.930 . S
C36 N33 1.314 . S
C36 C34 1.353 . S
C36 H78 0.930 . S
C37 N33 1.279 . S
C37 C35 1.358 . S
C37 H79 0.930 . S
C38 C39 1.348 1_455 S
C38 C40 1.356 . S
C38 O63 1.325 . S
C39 C38 1.348 1_655 S
C39 C41 1.353 . S
C39 H80 0.929 . S
C40 C38 1.356 . S
C40 C42 1.358 . S
C40 H81 0.930 . S
C41 C39 1.353 . S
C41 N43 1.314 1_655 S
C41 H82 0.930 . S
C42 C40 1.358 . S
C42 N43 1.279 . S
C42 H83 0.930 . S
N43 C41 1.314 1_455 S
N43 C42 1.279 . S
C44 C46 1.353 . S
C44 N47 1.314 . S
C44 H50 0.930 . S
C45 N47 1.279 . S
C45 C48 1.358 . S
C45 H51 0.930 . S
C46 C44 1.353 . S
C46 C49 1.348 . S
C46 H84 0.929 . S
N47 Li2 1.990 . S
N47 C44 1.314 . S
N47 C45 1.279 . S
C48 C45 1.358 . S
C48 C49 1.356 . S
C48 H85 0.930 . S
C49 C46 1.348 . S
C49 C48 1.356 . S
H50 C44 0.930 . S
H51 C45 0.930 . S
C52 N53 1.314 . S
C52 C54 1.353 . S
C52 H58 0.930 . S
N53 Li3 1.990 . S
N53 C52 1.314 . S
N53 C56 1.279 . S
C54 C52 1.353 . S
C54 C57 1.348 . S
C54 H86 0.929 . S
C55 C56 1.358 . S
C55 C57 1.356 . S
C55 H87 0.930 . S
C56 N53 1.279 . S
C56 C55 1.358 . S
C56 H59 0.930 . S
C57 C54 1.348 . S
C57 C55 1.356 . S
H58 C52 0.930 . S
H59 C56 0.930 . S
O60 Li0 1.956 1_655 S
O60 Li1 1.970 1_655 S
O60 Li2 1.961 . S
O60 C4 1.325 . S
O61 Li0 1.970 . S
O61 Li1 1.956 . S
O61 Li3 1.961 . S
O61 C10 1.325 . S
O62 Li0 1.961 . S
O62 Li2 1.956 1_455 S
O62 Li3 1.970 . S
O62 C32 1.325 . S
O63 Li1 1.961 . S
O63 Li2 1.970 1_455 S
O63 Li3 1.956 . S
O63 C38 1.325 . S
H64 C6 0.929 . S
H65 C7 0.930 . S
H66 C8 0.930 . S
H67 C9 0.930 . S
H68 C11 0.930 . S
H69 C13 0.929 . S
H70 C14 0.930 . S
H71 C15 0.930 . S
H72 C18 0.930 . S
H73 C21 0.929 . S
H74 C26 0.929 1_655 S
H75 C27 0.930 . S
H76 C34 0.929 . S
H77 C35 0.930 . S
H78 C36 0.930 . S
H79 C37 0.930 . S
H80 C39 0.929 . S
H81 C40 0.930 . S
H82 C41 0.930 . S
H83 C42 0.930 . S
H84 C46 0.929 . S
H85 C48 0.930 . S
H86 C54 0.929 . S
H87 C55 0.930 . S
Li88 N105 1.990 . S
Li88 O148 1.956 . S
Li88 O149 1.970 1_545 S
Li88 O150 1.961 1_545 S
Li89 N113 1.990 . S
Li89 O148 1.970 1_565 S
Li89 O149 1.956 . S
Li89 O151 1.961 . S
Li90 N135 1.990 . S
Li90 O148 1.961 1_565 S
Li90 O150 1.956 . S
Li90 O151 1.970 . S
Li91 N141 1.990 . S
Li91 O149 1.961 . S
Li91 O150 1.970 . S
Li91 O151 1.956 . S
C92 C94 1.348 . S
C92 C95 1.356 . S
C92 O148 1.325 . S
N93 C96 1.314 . S
N93 C97 1.279 . S
C94 C92 1.348 . S
C94 C96 1.353 . S
C94 H152 0.929 . S
C95 C92 1.356 . S
C95 C97 1.358 . S
C95 H153 0.930 . S
C96 N93 1.314 . S
C96 C94 1.353 . S
C96 H154 0.930 . S
C97 N93 1.279 . S
C97 C95 1.358 . S
C97 H155 0.930 . S
C98 C101 1.348 1_565 S
C98 C102 1.356 . S
C98 O149 1.325 . S
C99 N100 1.276 1_565 S
C99 C102 1.358 . S
C99 H156 0.930 . S
N100 C99 1.276 1_545 S
N100 C103 1.317 . S
C101 C98 1.348 1_545 S
C101 C103 1.353 . S
C101 H157 0.929 . S
C102 C98 1.356 . S
C102 C99 1.358 . S
C102 H158 0.930 . S
C103 N100 1.317 . S
C103 C101 1.353 . S
C103 H159 0.930 . S
C104 N105 1.314 . S
C104 C109 1.353 . S
C104 H110 0.930 . S
N105 Li88 1.990 . S
N105 C104 1.314 . S
N105 C107 1.279 . S
C106 C107 1.358 . S
C106 C108 1.356 . S
C106 H160 0.930 . S
C107 N105 1.279 . S
C107 C106 1.358 . S
C107 H111 0.930 . S
C108 C106 1.356 . S
C108 C109 1.348 . S
C109 C104 1.353 . S
C109 C108 1.348 . S
C109 H161 0.929 . S
H110 C104 0.930 . S
H111 C107 0.930 . S
C112 N113 1.314 . S
C112 C114 1.353 . S
C112 H118 0.930 . S
N113 Li89 1.990 . S
N113 C112 1.314 . S
N113 C116 1.279 . S
C114 C112 1.353 . S
C114 C117 1.348 . S
C114 H162 0.929 . S
C115 C116 1.358 . S
C115 C117 1.356 . S
C115 H163 0.930 . S
C116 N113 1.279 . S
C116 C115 1.358 . S
C116 H119 0.930 . S
C117 C114 1.348 . S
C117 C115 1.356 . S
H118 C112 0.930 . S
H119 C116 0.930 . S
C120 C122 1.348 . S
C120 C123 1.356 . S
C120 O150 1.325 . S
N121 C124 1.314 . S
N121 C125 1.279 . S
C122 C120 1.348 . S
C122 C124 1.353 . S
C122 H164 0.929 . S
C123 C120 1.356 . S
C123 C125 1.358 . S
C123 H165 0.930 1_565 S
C124 N121 1.314 . S
C124 C122 1.353 . S
C124 H166 0.930 . S
C125 N121 1.279 . S
C125 C123 1.358 . S
C125 H167 0.930 1_565 S
C126 C127 1.348 . S
C126 C128 1.356 . S
C126 O151 1.325 . S
C127 C126 1.348 . S
C127 C129 1.353 . S
C127 H168 0.929 . S
C128 C126 1.356 . S
C128 C130 1.358 . S
C128 H169 0.930 . S
C129 C127 1.353 . S
C129 N131 1.314 . S
C129 H170 0.930 . S
C130 C128 1.358 . S
C130 N131 1.279 . S
C130 H171 0.930 . S
N131 C129 1.314 . S
N131 C130 1.279 . S
C132 C134 1.353 . S
C132 N135 1.314 . S
C132 H138 0.930 . S
C133 N135 1.279 . S
C133 C136 1.358 . S
C133 H139 0.930 . S
C134 C132 1.353 . S
C134 C137 1.348 . S
C134 H172 0.929 . S
N135 Li90 1.990 . S
N135 C132 1.314 . S
N135 C133 1.279 . S
C136 C133 1.358 . S
C136 C137 1.356 . S
C136 H173 0.930 . S
C137 C134 1.348 . S
C137 C136 1.356 . S
H138 C132 0.930 . S
H139 C133 0.930 . S
C140 N141 1.314 . S
C140 C142 1.353 . S
C140 H146 0.930 . S
N141 Li91 1.990 . S
N141 C140 1.314 . S
N141 C144 1.279 . S
C142 C140 1.353 . S
C142 C145 1.348 . S
C142 H174 0.929 . S
C143 C144 1.358 . S
C143 C145 1.356 . S
C143 H175 0.930 . S
C144 N141 1.279 . S
C144 C143 1.358 . S
C144 H147 0.930 . S
C145 C142 1.348 . S
C145 C143 1.356 . S
H146 C140 0.930 . S
H147 C144 0.930 . S
O148 Li88 1.956 . S
O148 Li89 1.970 1_545 S
O148 Li90 1.961 1_545 S
O148 C92 1.325 . S
O149 Li88 1.970 1_565 S
O149 Li89 1.956 . S
O149 Li91 1.961 . S
O149 C98 1.325 . S
O150 Li88 1.961 1_565 S
O150 Li90 1.956 . S
O150 Li91 1.970 . S
O150 C120 1.325 . S
O151 Li89 1.961 . S
O151 Li90 1.970 . S
O151 Li91 1.956 . S
O151 C126 1.325 . S
H152 C94 0.929 . S
H153 C95 0.930 . S
H154 C96 0.930 . S
H155 C97 0.930 . S
H156 C99 0.930 . S
H157 C101 0.929 . S
H158 C102 0.930 . S
H159 C103 0.930 . S
H160 C106 0.930 . S
H161 C109 0.929 . S
H162 C114 0.929 . S
H163 C115 0.930 . S
H164 C122 0.929 . S
H165 C123 0.930 1_545 S
H166 C124 0.930 . S
H167 C125 0.930 1_545 S
H168 C127 0.929 . S
H169 C128 0.930 . S
H170 C129 0.930 . S
H171 C130 0.930 . S
H172 C134 0.929 . S
H173 C136 0.930 . S
H174 C142 0.929 . S
H175 C143 0.930 . S
Li176 N193 1.990 . S
Li176 O236 1.956 1_655 S
Li176 O237 1.970 . S
Li176 O238 1.961 . S
Li177 N201 1.990 . S
Li177 O236 1.970 1_655 S
Li177 O237 1.956 . S
Li177 O239 1.961 . S
Li178 N223 1.990 . S
Li178 O236 1.961 . S
Li178 O238 1.956 1_455 S
Li178 O239 1.970 1_455 S
Li179 N229 1.990 . S
Li179 O237 1.961 . S
Li179 O238 1.970 . S
Li179 O239 1.956 . S
C180 C182 1.348 . S
C180 C183 1.356 . S
C180 O236 1.325 . S
N181 C184 1.314 . S
N181 C185 1.279 . S
C182 C180 1.348 . S
C182 C184 1.353 . S
C182 H240 0.929 . S
C183 C180 1.356 . S
C183 C185 1.358 . S
C183 H241 0.930 . S
C184 N181 1.314 . S
C184 C182 1.353 . S
C184 H242 0.930 . S
C185 N181 1.279 . S
C185 C183 1.358 . S
C185 H243 0.930 . S
C186 C189 1.348 . S
C186 C190 1.356 . S
C186 O237 1.325 . S
C187 N188 1.279 . S
C187 C190 1.358 . S
C187 H244 0.930 . S
N188 C187 1.279 . S
N188 C191 1.314 . S
C189 C186 1.348 . S
C189 C191 1.353 . S
C189 H245 0.929 . S
C190 C186 1.356 . S
C190 C187 1.358 . S
C190 H246 0.930 . S
C191 N188 1.314 . S
C191 C189 1.353 . S
C191 H247 0.930 . S
C192 N193 1.314 . S
C192 C197 1.353 . S
C192 H198 0.930 . S
N193 Li176 1.990 . S
N193 C192 1.314 . S
N193 C195 1.279 . S
C194 C195 1.358 . S
C194 C196 1.356 . S
C194 H248 0.930 . S
C195 N193 1.279 . S
C195 C194 1.358 . S
C195 H199 0.930 . S
C196 C194 1.356 . S
C196 C197 1.348 . S
C197 C192 1.353 . S
C197 C196 1.348 . S
C197 H249 0.929 . S
H198 C192 0.930 . S
H199 C195 0.930 . S
C200 N201 1.314 . S
C200 C202 1.353 . S
C200 H206 0.930 1_655 S
N201 Li177 1.990 . S
N201 C200 1.314 . S
N201 C204 1.279 . S
C202 C200 1.353 . S
C202 C205 1.348 . S
C202 H250 0.929 1_655 S
C203 C204 1.358 . S
C203 C205 1.356 . S
C203 H251 0.930 . S
C204 N201 1.279 . S
C204 C203 1.358 . S
C204 H207 0.930 . S
C205 C202 1.348 . S
C205 C203 1.356 . S
H206 C200 0.930 1_455 S
H207 C204 0.930 . S
C208 C210 1.348 . S
C208 C211 1.356 . S
C208 O238 1.325 . S
N209 C212 1.314 . S
N209 C213 1.279 . S
C210 C208 1.348 . S
C210 C212 1.353 . S
C210 H252 0.929 . S
C211 C208 1.356 . S
C211 C213 1.358 . S
C211 H253 0.930 . S
C212 N209 1.314 . S
C212 C210 1.353 . S
C212 H254 0.930 . S
C213 N209 1.279 . S
C213 C211 1.358 . S
C213 H255 0.930 . S
C214 C215 1.348 1_655 S
C214 C216 1.356 . S
C214 O239 1.325 . S
C215 C214 1.348 1_455 S
C215 C217 1.353 . S
C215 H256 0.929 . S
C216 C214 1.356 . S
C216 C218 1.358 . S
C216 H257 0.930 . S
C217 C215 1.353 . S
C217 N219 1.314 1_455 S
C217 H258 0.930 . S
C218 C216 1.358 . S
C218 N219 1.279 . S
C218 H259 0.930 . S
N219 C217 1.314 1_655 S
N219 C218 1.279 . S
C220 C222 1.353 . S
C220 N223 1.314 . S
C220 H226 0.930 . S
C221 N223 1.279 . S
C221 C224 1.358 . S
C221 H227 0.930 . S
C222 C220 1.353 . S
C222 C225 1.348 . S
C222 H260 0.929 . S
N223 Li178 1.990 . S
N223 C220 1.314 . S
N223 C221 1.279 . S
C224 C221 1.358 . S
C224 C225 1.356 . S
C224 H261 0.930 . S
C225 C222 1.348 . S
C225 C224 1.356 . S
H226 C220 0.930 . S
H227 C221 0.930 . S
C228 N229 1.314 . S
C228 C230 1.353 . S
C228 H234 0.930 . S
N229 Li179 1.990 . S
N229 C228 1.314 . S
N229 C232 1.279 . S
C230 C228 1.353 . S
C230 C233 1.348 . S
C230 H262 0.929 . S
C231 C232 1.358 . S
C231 C233 1.356 . S
C231 H263 0.930 . S
C232 N229 1.279 . S
C232 C231 1.358 . S
C232 H235 0.930 . S
C233 C230 1.348 . S
C233 C231 1.356 . S
H234 C228 0.930 . S
H235 C232 0.930 . S
O236 Li176 1.956 1_455 S
O236 Li177 1.970 1_455 S
O236 Li178 1.961 . S
O236 C180 1.325 . S
O237 Li176 1.970 . S
O237 Li177 1.956 . S
O237 Li179 1.961 . S
O237 C186 1.325 . S
O238 Li176 1.961 . S
O238 Li178 1.956 1_655 S
O238 Li179 1.970 . S
O238 C208 1.325 . S
O239 Li177 1.961 . S
O239 Li178 1.970 1_655 S
O239 Li179 1.956 . S
O239 C214 1.325 . S
H240 C182 0.929 . S
H241 C183 0.930 . S
H242 C184 0.930 . S
H243 C185 0.930 . S
H244 C187 0.930 . S
H245 C189 0.929 . S
H246 C190 0.930 . S
H247 C191 0.930 . S
H248 C194 0.930 . S
H249 C197 0.929 . S
H250 C202 0.929 1_455 S
H251 C203 0.930 . S
H252 C210 0.929 . S
H253 C211 0.930 . S
H254 C212 0.930 . S
H255 C213 0.930 . S
H256 C215 0.929 . S
H257 C216 0.930 . S
H258 C217 0.930 . S
H259 C218 0.930 . S
H260 C222 0.929 . S
H261 C224 0.930 . S
H262 C230 0.929 . S
H263 C231 0.930 . S
Li264 N281 1.990 . S
Li264 O324 1.956 . S
Li264 O325 1.970 . S
Li264 O326 1.961 1_545 S
Li265 N289 1.990 . S
Li265 O324 1.970 . S
Li265 O325 1.956 . S
Li265 O327 1.961 . S
Li266 N311 1.990 . S
Li266 O324 1.961 1_565 S
Li266 O326 1.956 . S
Li266 O327 1.970 1_565 S
Li267 N317 1.990 . S
Li267 O325 1.961 . S
Li267 O326 1.970 1_545 S
Li267 O327 1.956 . S
C268 C270 1.348 . S
C268 C271 1.356 . S
C268 O324 1.325 . S
N269 C272 1.314 . S
N269 C273 1.279 . S
C270 C268 1.348 . S
C270 C272 1.353 . S
C270 H328 0.929 . S
C271 C268 1.356 . S
C271 C273 1.358 . S
C271 H329 0.930 1_545 S
C272 N269 1.314 . S
C272 C270 1.353 . S
C272 H330 0.930 . S
C273 N269 1.279 . S
C273 C271 1.358 . S
C273 H331 0.930 1_545 S
C274 C277 1.348 . S
C274 C278 1.356 . S
C274 O325 1.325 . S
C275 N276 1.279 . S
C275 C278 1.358 . S
C275 H332 0.930 . S
N276 C275 1.279 . S
N276 C279 1.314 . S
C277 C274 1.348 . S
C277 C279 1.353 . S
C277 H333 0.929 . S
C278 C274 1.356 . S
C278 C275 1.358 . S
C278 H334 0.930 . S
C279 N276 1.314 . S
C279 C277 1.353 . S
C279 H335 0.930 . S
C280 N281 1.314 . S
C280 C285 1.353 . S
C280 H286 0.930 . S
N281 Li264 1.990 . S
N281 C280 1.314 . S
N281 C283 1.279 . S
C282 C283 1.358 . S
C282 C284 1.356 . S
C282 H336 0.930 . S
C283 N281 1.279 . S
C283 C282 1.358 . S
C283 H287 0.930 . S
C284 C282 1.356 . S
C284 C285 1.348 . S
C285 C280 1.353 . S
C285 C284 1.348 . S
C285 H337 0.929 . S
H286 C280 0.930 . S
H287 C283 0.930 . S
C288 N289 1.314 . S
C288 C290 1.353 . S
C288 H294 0.930 . S
N289 Li265 1.990 . S
N289 C288 1.314 . S
N289 C292 1.279 . S
C290 C288 1.353 . S
C290 C293 1.348 . S
C290 H338 0.929 . S
C291 C292 1.358 . S
C291 C293 1.356 . S
C291 H339 0.930 . S
C292 N289 1.279 . S
C292 C291 1.358 . S
C292 H295 0.930 . S
C293 C290 1.348 . S
C293 C291 1.356 . S
H294 C288 0.930 . S
H295 C292 0.930 . S
C296 C298 1.348 . S
C296 C299 1.356 . S
C296 O326 1.325 . S
N297 C300 1.314 . S
N297 C301 1.279 . S
C298 C296 1.348 . S
C298 C300 1.353 . S
C298 H340 0.929 . S
C299 C296 1.356 . S
C299 C301 1.358 . S
C299 H341 0.930 . S
C300 N297 1.314 . S
C300 C298 1.353 . S
C300 H342 0.930 . S
C301 N297 1.279 . S
C301 C299 1.358 . S
C301 H343 0.930 . S
C302 C303 1.348 1_545 S
C302 C304 1.356 . S
C302 O327 1.325 . S
C303 C302 1.348 1_565 S
C303 C305 1.353 . S
C303 H344 0.929 . S
C304 C302 1.356 . S
C304 C306 1.358 . S
C304 H345 0.930 . S
C305 C303 1.353 . S
C305 N307 1.317 . S
C305 H346 0.930 . S
C306 C304 1.358 . S
C306 N307 1.276 1_545 S
C306 H347 0.930 . S
N307 C305 1.317 . S
N307 C306 1.276 1_565 S
C308 C310 1.353 . S
C308 N311 1.314 . S
C308 H314 0.930 . S
C309 N311 1.279 . S
C309 C312 1.358 . S
C309 H315 0.930 . S
C310 C308 1.353 . S
C310 C313 1.348 . S
C310 H348 0.929 . S
N311 Li266 1.990 . S
N311 C308 1.314 . S
N311 C309 1.279 . S
C312 C309 1.358 . S
C312 C313 1.356 . S
C312 H349 0.930 . S
C313 C310 1.348 . S
C313 C312 1.356 . S
H314 C308 0.930 . S
H315 C309 0.930 . S
C316 N317 1.314 . S
C316 C318 1.353 . S
C316 H322 0.930 . S
N317 Li267 1.990 . S
N317 C316 1.314 . S
N317 C320 1.279 . S
C318 C316 1.353 . S
C318 C321 1.348 . S
C318 H350 0.929 . S
C319 C320 1.358 . S
C319 C321 1.356 . S
C319 H351 0.930 . S
C320 N317 1.279 . S
C320 C319 1.358 . S
C320 H323 0.930 . S
C321 C318 1.348 . S
C321 C319 1.356 . S
H322 C316 0.930 . S
H323 C320 0.930 . S
O324 Li264 1.956 . S
O324 Li265 1.970 . S
O324 Li266 1.961 1_545 S
O324 C268 1.325 . S
O325 Li264 1.970 . S
O325 Li265 1.956 . S
O325 Li267 1.961 . S
O325 C274 1.325 . S
O326 Li264 1.961 1_565 S
O326 Li266 1.956 . S
O326 Li267 1.970 1_565 S
O326 C296 1.325 . S
O327 Li265 1.961 . S
O327 Li266 1.970 1_545 S
O327 Li267 1.956 . S
O327 C302 1.325 . S
H328 C270 0.929 . S
H329 C271 0.930 1_565 S
H330 C272 0.930 . S
H331 C273 0.930 1_565 S
H332 C275 0.930 . S
H333 C277 0.929 . S
H334 C278 0.930 . S
H335 C279 0.930 . S
H336 C282 0.930 . S
H337 C285 0.929 . S
H338 C290 0.929 . S
H339 C291 0.930 . S
H340 C298 0.929 . S
H341 C299 0.930 . S
H342 C300 0.930 . S
H343 C301 0.930 . S
H344 C303 0.929 . S
H345 C304 0.930 . S
H346 C305 0.930 . S
H347 C306 0.930 . S
H348 C310 0.929 . S
H349 C312 0.930 . S
H350 C318 0.929 . S
H351 C319 0.930 . S
Li352 N369 1.990 . S
Li352 O412 1.956 . S
Li352 O413 1.970 . S
Li352 O414 1.961 . S
Li353 N377 1.990 . S
Li353 O412 1.970 . S
Li353 O413 1.956 . S
Li353 O415 1.961 1_655 S
Li354 N399 1.990 . S
Li354 O412 1.961 . S
Li354 O414 1.956 . S
Li354 O415 1.970 1_655 S
Li355 N405 1.990 . S
Li355 O413 1.961 1_455 S
Li355 O414 1.970 1_455 S
Li355 O415 1.956 . S
C356 C358 1.348 . S
C356 C359 1.356 . S
C356 O412 1.325 . S
N357 C360 1.314 . S
N357 C361 1.279 . S
C358 C356 1.348 . S
C358 C360 1.353 . S
C358 H416 0.929 . S
C359 C356 1.356 . S
C359 C361 1.358 . S
C359 H417 0.930 . S
C360 N357 1.314 . S
C360 C358 1.353 . S
C360 H418 0.930 . S
C361 N357 1.279 . S
C361 C359 1.358 . S
C361 H419 0.930 . S
C362 C365 1.348 . S
C362 C366 1.356 . S
C362 O413 1.325 . S
C363 N364 1.279 . S
C363 C366 1.358 . S
C363 H420 0.930 1_655 S
N364 C363 1.279 . S
N364 C367 1.314 . S
C365 C362 1.348 . S
C365 C367 1.353 . S
C365 H421 0.929 . S
C366 C362 1.356 . S
C366 C363 1.358 . S
C366 H422 0.930 1_655 S
C367 N364 1.314 . S
C367 C365 1.353 . S
C367 H423 0.930 . S
C368 N369 1.314 . S
C368 C373 1.353 1_554 S
C368 H374 0.930 . S
N369 Li352 1.990 . S
N369 C368 1.314 . S
N369 C371 1.279 . S
C370 C371 1.358 . S
C370 C372 1.356 1_554 S
C370 H424 0.930 . S
C371 N369 1.279 . S
C371 C370 1.358 . S
C371 H375 0.930 . S
C372 C370 1.356 1_556 S
C372 C373 1.348 . S
C373 C368 1.353 1_556 S
C373 C372 1.348 . S
C373 H425 0.929 . S
H374 C368 0.930 . S
H375 C371 0.930 . S
C376 N377 1.314 . S
C376 C378 1.353 . S
C376 H382 0.930 . S
N377 Li353 1.990 . S
N377 C376 1.314 . S
N377 C380 1.279 . S
C378 C376 1.353 . S
C378 C381 1.348 . S
C378 H426 0.929 . S
C379 C380 1.358 . S
C379 C381 1.356 . S
C379 H427 0.930 . S
C380 N377 1.279 . S
C380 C379 1.358 . S
C380 H383 0.930 . S
C381 C378 1.348 . S
C381 C379 1.356 . S
H382 C376 0.930 . S
H383 C380 0.930 . S
C384 C386 1.348 1_655 S
C384 C387 1.356 . S
C384 O414 1.325 . S
N385 C388 1.317 . S
N385 C389 1.276 1_455 S
C386 C384 1.348 1_455 S
C386 C388 1.353 1_554 S
C386 H428 0.929 . S
C387 C384 1.356 . S
C387 C389 1.358 1_554 S
C387 H429 0.930 . S
C388 N385 1.317 . S
C388 C386 1.353 1_556 S
C388 H430 0.930 . S
C389 N385 1.276 1_655 S
C389 C387 1.358 1_556 S
C389 H431 0.930 . S
C390 C391 1.348 . S
C390 C392 1.356 . S
C390 O415 1.325 . S
C391 C390 1.348 . S
C391 C393 1.353 . S
C391 H432 0.929 . S
C392 C390 1.356 . S
C392 C394 1.358 . S
C392 H433 0.930 . S
C393 C391 1.353 . S
C393 N395 1.314 . S
C393 H434 0.930 . S
C394 C392 1.358 . S
C394 N395 1.279 . S
C394 H435 0.930 . S
N395 C393 1.314 . S
N395 C394 1.279 . S
C396 C398 1.353 . S
C396 N399 1.314 . S
C396 H402 0.930 . S
C397 N399 1.279 . S
C397 C400 1.358 . S
C397 H403 0.930 . S
C398 C396 1.353 . S
C398 C401 1.348 . S
C398 H436 0.929 . S
N399 Li354 1.990 . S
N399 C396 1.314 . S
N399 C397 1.279 . S
C400 C397 1.358 . S
C400 C401 1.356 . S
C400 H437 0.930 . S
C401 C398 1.348 . S
C401 C400 1.356 . S
H402 C396 0.930 . S
H403 C397 0.930 . S
C404 N405 1.314 . S
C404 C406 1.353 . S
C404 H410 0.930 . S
N405 Li355 1.990 . S
N405 C404 1.314 . S
N405 C408 1.279 . S
C406 C404 1.353 . S
C406 C409 1.348 . S
C406 H438 0.929 . S
C407 C408 1.358 . S
C407 C409 1.356 . S
C407 H439 0.930 . S
C408 N405 1.279 . S
C408 C407 1.358 . S
C408 H411 0.930 . S
C409 C406 1.348 . S
C409 C407 1.356 . S
H410 C404 0.930 . S
H411 C408 0.930 . S
O412 Li352 1.956 . S
O412 Li353 1.970 . S
O412 Li354 1.961 . S
O412 C356 1.325 . S
O413 Li352 1.970 . S
O413 Li353 1.956 . S
O413 Li355 1.961 1_655 S
O413 C362 1.325 . S
O414 Li352 1.961 . S
O414 Li354 1.956 . S
O414 Li355 1.970 1_655 S
O414 C384 1.325 . S
O415 Li353 1.961 1_455 S
O415 Li354 1.970 1_455 S
O415 Li355 1.956 . S
O415 C390 1.325 . S
H416 C358 0.929 . S
H417 C359 0.930 . S
H418 C360 0.930 . S
H419 C361 0.930 . S
H420 C363 0.930 1_455 S
H421 C365 0.929 . S
H422 C366 0.930 1_455 S
H423 C367 0.930 . S
H424 C370 0.930 . S
H425 C373 0.929 . S
H426 C378 0.929 . S
H427 C379 0.930 . S
H428 C386 0.929 . S
H429 C387 0.930 . S
H430 C388 0.930 . S
H431 C389 0.930 . S
H432 C391 0.929 . S
H433 C392 0.930 . S
H434 C393 0.930 . S
H435 C394 0.930 . S
H436 C398 0.929 . S
H437 C400 0.930 . S
H438 C406 0.929 . S
H439 C407 0.930 . S
Li440 N457 1.990 . S
Li440 O500 1.956 . S
Li440 O501 1.970 . S
Li440 O502 1.961 . S
Li441 N465 1.990 . S
Li441 O500 1.970 1_565 S
Li441 O501 1.956 1_565 S
Li441 O503 1.961 . S
Li442 N487 1.990 . S
Li442 O500 1.961 . S
Li442 O502 1.956 . S
Li442 O503 1.970 1_545 S
Li443 N493 1.990 . S
Li443 O501 1.961 . S
Li443 O502 1.970 . S
Li443 O503 1.956 1_545 S
C444 C446 1.348 1_545 S
C444 C447 1.356 . S
C444 O500 1.325 . S
N445 C448 1.314 1_545 S
N445 C449 1.279 . S
C446 C444 1.348 1_565 S
C446 C448 1.353 1_556 S
C446 H504 0.929 . S
C447 C444 1.356 . S
C447 C449 1.358 1_556 S
C447 H505 0.930 . S
C448 N445 1.314 1_565 S
C448 C446 1.353 1_554 S
C448 H506 0.930 . S
C449 N445 1.279 . S
C449 C447 1.358 1_554 S
C449 H507 0.930 . S
C450 C453 1.348 . S
C450 C454 1.356 . S
C450 O501 1.325 . S
C451 N452 1.279 . S
C451 C454 1.358 . S
C451 H508 0.930 . S
N452 C451 1.279 . S
N452 C455 1.314 . S
C453 C450 1.348 . S
C453 C455 1.353 . S
C453 H509 0.929 . S
C454 C450 1.356 . S
C454 C451 1.358 . S
C454 H510 0.930 . S
C455 N452 1.314 . S
C455 C453 1.353 . S
C455 H511 0.930 . S
C456 N457 1.314 . S
C456 C461 1.353 . S
C456 H462 0.930 . S
N457 Li440 1.990 . S
N457 C456 1.314 . S
N457 C459 1.279 . S
C458 C459 1.358 1_554 S
C458 C460 1.356 . S
C458 H512 0.930 . S
C459 N457 1.279 . S
C459 C458 1.358 1_556 S
C459 H463 0.930 1_556 S
C460 C458 1.356 . S
C460 C461 1.348 1_554 S
C461 C456 1.353 . S
C461 C460 1.348 1_556 S
C461 H513 0.929 . S
H462 C456 0.930 . S
H463 C459 0.930 1_554 S
C464 N465 1.314 . S
C464 C466 1.353 . S
C464 H470 0.930 . S
N465 Li441 1.990 . S
N465 C464 1.314 . S
N465 C468 1.279 . S
C466 C464 1.353 . S
C466 C469 1.348 . S
C466 H514 0.929 . S
C467 C468 1.358 . S
C467 C469 1.356 . S
C467 H515 0.930 . S
C468 N465 1.279 . S
C468 C467 1.358 . S
C468 H471 0.930 . S
C469 C466 1.348 . S
C469 C467 1.356 . S
H470 C464 0.930 . S
H471 C468 0.930 . S
C472 C474 1.348 . S
C472 C475 1.356 . S
C472 O502 1.325 . S
N473 C476 1.314 . S
N473 C477 1.279 . S
C474 C472 1.348 . S
C474 C476 1.353 . S
C474 H516 0.929 . S
C475 C472 1.356 . S
C475 C477 1.358 . S
C475 H517 0.930 . S
C476 N473 1.314 . S
C476 C474 1.353 . S
C476 H518 0.930 . S
C477 N473 1.279 . S
C477 C475 1.358 . S
C477 H519 0.930 . S
C478 C479 1.348 . S
C478 C480 1.356 . S
C478 O503 1.325 . S
C479 C478 1.348 . S
C479 C481 1.353 . S
C479 H520 0.929 . S
C480 C478 1.356 . S
C480 C482 1.358 . S
C480 H521 0.930 . S
C481 C479 1.353 . S
C481 N483 1.314 . S
C481 H522 0.930 . S
C482 C480 1.358 . S
C482 N483 1.279 . S
C482 H523 0.930 . S
N483 C481 1.314 . S
N483 C482 1.279 . S
C484 C486 1.353 . S
C484 N487 1.314 . S
C484 H490 0.930 1_545 S
C485 N487 1.279 . S
C485 C488 1.358 . S
C485 H491 0.930 . S
C486 C484 1.353 . S
C486 C489 1.348 . S
C486 H524 0.929 1_545 S
N487 Li442 1.990 . S
N487 C484 1.314 . S
N487 C485 1.279 . S
C488 C485 1.358 . S
C488 C489 1.356 . S
C488 H525 0.930 . S
C489 C486 1.348 . S
C489 C488 1.356 . S
H490 C484 0.930 1_565 S
H491 C485 0.930 . S
C492 N493 1.314 . S
C492 C494 1.353 . S
C492 H498 0.930 . S
N493 Li443 1.990 . S
N493 C492 1.314 . S
N493 C496 1.279 . S
C494 C492 1.353 . S
C494 C497 1.348 . S
C494 H526 0.929 . S
C495 C496 1.358 . S
C495 C497 1.356 . S
C495 H527 0.930 . S
C496 N493 1.279 . S
C496 C495 1.358 . S
C496 H499 0.930 . S
C497 C494 1.348 . S
C497 C495 1.356 . S
H498 C492 0.930 . S
H499 C496 0.930 . S
O500 Li440 1.956 . S
O500 Li441 1.970 1_545 S
O500 Li442 1.961 . S
O500 C444 1.325 . S
O501 Li440 1.970 . S
O501 Li441 1.956 1_545 S
O501 Li443 1.961 . S
O501 C450 1.325 . S
O502 Li440 1.961 . S
O502 Li442 1.956 . S
O502 Li443 1.970 . S
O502 C472 1.325 . S
O503 Li441 1.961 . S
O503 Li442 1.970 1_565 S
O503 Li443 1.956 1_565 S
O503 C478 1.325 . S
H504 C446 0.929 . S
H505 C447 0.930 . S
H506 C448 0.930 . S
H507 C449 0.930 . S
H508 C451 0.930 . S
H509 C453 0.929 . S
H510 C454 0.930 . S
H511 C455 0.930 . S
H512 C458 0.930 . S
H513 C461 0.929 . S
H514 C466 0.929 . S
H515 C467 0.930 . S
H516 C474 0.929 . S
H517 C475 0.930 . S
H518 C476 0.930 . S
H519 C477 0.930 . S
H520 C479 0.929 . S
H521 C480 0.930 . S
H522 C481 0.930 . S
H523 C482 0.930 . S
H524 C486 0.929 1_565 S
H525 C488 0.930 . S
H526 C494 0.929 . S
H527 C495 0.930 . S
Li528 N545 1.990 . S
Li528 O588 1.956 . S
Li528 O589 1.970 1_655 S
Li528 O590 1.961 1_655 S
Li529 N553 1.990 . S
Li529 O588 1.970 1_455 S
Li529 O589 1.956 . S
Li529 O591 1.961 . S
Li530 N575 1.990 . S
Li530 O588 1.961 1_455 S
Li530 O590 1.956 . S
Li530 O591 1.970 . S
Li531 N581 1.990 . S
Li531 O589 1.961 . S
Li531 O590 1.970 . S
Li531 O591 1.956 . S
C532 C534 1.348 . S
C532 C535 1.356 . S
C532 O588 1.325 . S
N533 C536 1.314 . S
N533 C537 1.279 . S
C534 C532 1.348 . S
C534 C536 1.353 . S
C534 H592 0.929 . S
C535 C532 1.356 . S
C535 C537 1.358 . S
C535 H593 0.930 . S
C536 N533 1.314 . S
C536 C534 1.353 . S
C536 H594 0.930 . S
C537 N533 1.279 . S
C537 C535 1.358 . S
C537 H595 0.930 . S
C538 C541 1.348 1_455 S
C538 C542 1.356 . S
C538 O589 1.325 . S
C539 N540 1.276 1_455 S
C539 C542 1.358 1_556 S
C539 H596 0.930 . S
N540 C539 1.276 1_655 S
N540 C543 1.317 . S
C541 C538 1.348 1_655 S
C541 C543 1.353 1_554 S
C541 H597 0.929 . S
C542 C538 1.356 . S
C542 C539 1.358 1_554 S
C542 H598 0.930 . S
C543 N540 1.317 . S
C543 C541 1.353 1_556 S
C543 H599 0.930 . S
C544 N545 1.314 . S
C544 C549 1.353 . S
C544 H550 0.930 . S
N545 Li528 1.990 . S
N545 C544 1.314 . S
N545 C547 1.279 . S
C546 C547 1.358 . S
C546 C548 1.356 . S
C546 H600 0.930 . S
C547 N545 1.279 . S
C547 C546 1.358 . S
C547 H551 0.930 . S
C548 C546 1.356 . S
C548 C549 1.348 . S
C549 C544 1.353 . S
C549 C548 1.348 . S
C549 H601 0.929 . S
H550 C544 0.930 . S
H551 C547 0.930 . S
C552 N553 1.314 . S
C552 C554 1.353 . S
C552 H558 0.930 . S
N553 Li529 1.990 . S
N553 C552 1.314 . S
N553 C556 1.279 . S
C554 C552 1.353 . S
C554 C557 1.348 . S
C554 H602 0.929 . S
C555 C556 1.358 . S
C555 C557 1.356 . S
C555 H603 0.930 . S
C556 N553 1.279 . S
C556 C555 1.358 . S
C556 H559 0.930 . S
C557 C554 1.348 . S
C557 C555 1.356 . S
H558 C552 0.930 . S
H559 C556 0.930 . S
C560 C562 1.348 . S
C560 C563 1.356 . S
C560 O590 1.325 . S
N561 C564 1.314 . S
N561 C565 1.279 . S
C562 C560 1.348 . S
C562 C564 1.353 . S
C562 H604 0.929 . S
C563 C560 1.356 . S
C563 C565 1.358 . S
C563 H605 0.930 1_455 S
C564 N561 1.314 . S
C564 C562 1.353 . S
C564 H606 0.930 . S
C565 N561 1.279 . S
C565 C563 1.358 . S
C565 H607 0.930 1_455 S
C566 C567 1.348 . S
C566 C568 1.356 . S
C566 O591 1.325 . S
C567 C566 1.348 . S
C567 C569 1.353 . S
C567 H608 0.929 . S
C568 C566 1.356 . S
C568 C570 1.358 . S
C568 H609 0.930 . S
C569 C567 1.353 . S
C569 N571 1.314 . S
C569 H610 0.930 . S
C570 C568 1.358 . S
C570 N571 1.279 . S
C570 H611 0.930 . S
N571 C569 1.314 . S
N571 C570 1.279 . S
C572 C574 1.353 . S
C572 N575 1.314 . S
C572 H578 0.930 . S
C573 N575 1.279 . S
C573 C576 1.358 . S
C573 H579 0.930 . S
C574 C572 1.353 . S
C574 C577 1.348 . S
C574 H612 0.929 . S
N575 Li530 1.990 . S
N575 C572 1.314 . S
N575 C573 1.279 . S
C576 C573 1.358 . S
C576 C577 1.356 . S
C576 H613 0.930 . S
C577 C574 1.348 . S
C577 C576 1.356 . S
H578 C572 0.930 . S
H579 C573 0.930 . S
C580 N581 1.314 . S
C580 C582 1.353 1_554 S
C580 H586 0.930 . S
N581 Li531 1.990 . S
N581 C580 1.314 . S
N581 C584 1.279 . S
C582 C580 1.353 1_556 S
C582 C585 1.348 . S
C582 H614 0.929 . S
C583 C584 1.358 . S
C583 C585 1.356 1_554 S
C583 H615 0.930 . S
C584 N581 1.279 . S
C584 C583 1.358 . S
C584 H587 0.930 . S
C585 C582 1.348 . S
C585 C583 1.356 1_556 S
H586 C580 0.930 . S
H587 C584 0.930 . S
O588 Li528 1.956 . S
O588 Li529 1.970 1_655 S
O588 Li530 1.961 1_655 S
O588 C532 1.325 . S
O589 Li528 1.970 1_455 S
O589 Li529 1.956 . S
O589 Li531 1.961 . S
O589 C538 1.325 . S
O590 Li528 1.961 1_455 S
O590 Li530 1.956 . S
O590 Li531 1.970 . S
O590 C560 1.325 . S
O591 Li529 1.961 . S
O591 Li530 1.970 . S
O591 Li531 1.956 . S
O591 C566 1.325 . S
H592 C534 0.929 . S
H593 C535 0.930 . S
H594 C536 0.930 . S
H595 C537 0.930 . S
H596 C539 0.930 . S
H597 C541 0.929 . S
H598 C542 0.930 . S
H599 C543 0.930 . S
H600 C546 0.930 . S
H601 C549 0.929 . S
H602 C554 0.929 . S
H603 C555 0.930 . S
H604 C562 0.929 . S
H605 C563 0.930 1_655 S
H606 C564 0.930 . S
H607 C565 0.930 1_655 S
H608 C567 0.929 . S
H609 C568 0.930 . S
H610 C569 0.930 . S
H611 C570 0.930 . S
H612 C574 0.929 . S
H613 C576 0.930 . S
H614 C582 0.929 . S
H615 C583 0.930 . S
Li616 N633 1.990 . S
Li616 O676 1.956 1_545 S
Li616 O677 1.970 1_545 S
Li616 O678 1.961 . S
Li617 N641 1.990 . S
Li617 O676 1.970 . S
Li617 O677 1.956 . S
Li617 O679 1.961 . S
Li618 N663 1.990 . S
Li618 O676 1.961 . S
Li618 O678 1.956 1_565 S
Li618 O679 1.970 . S
Li619 N669 1.990 . S
Li619 O677 1.961 . S
Li619 O678 1.970 1_565 S
Li619 O679 1.956 . S
C620 C622 1.348 . S
C620 C623 1.356 . S
C620 O676 1.325 . S
N621 C624 1.314 . S
N621 C625 1.279 . S
C622 C620 1.348 . S
C622 C624 1.353 . S
C622 H680 0.929 . S
C623 C620 1.356 . S
C623 C625 1.358 . S
C623 H681 0.930 . S
C624 N621 1.314 . S
C624 C622 1.353 . S
C624 H682 0.930 . S
C625 N621 1.279 . S
C625 C623 1.358 . S
C625 H683 0.930 . S
C626 C629 1.348 1_565 S
C626 C630 1.356 . S
C626 O677 1.325 . S
C627 N628 1.279 . S
C627 C630 1.358 1_554 S
C627 H684 0.930 . S
N628 C627 1.279 . S
N628 C631 1.314 1_565 S
C629 C626 1.348 1_545 S
C629 C631 1.353 1_556 S
C629 H685 0.929 . S
C630 C626 1.356 . S
C630 C627 1.358 1_556 S
C630 H686 0.930 . S
C631 N628 1.314 1_545 S
C631 C629 1.353 1_554 S
C631 H687 0.930 . S
C632 N633 1.314 . S
C632 C637 1.353 . S
C632 H638 0.930 . S
N633 Li616 1.990 . S
N633 C632 1.314 . S
N633 C635 1.279 . S
C634 C635 1.358 . S
C634 C636 1.356 . S
C634 H688 0.930 . S
C635 N633 1.279 . S
C635 C634 1.358 . S
C635 H639 0.930 . S
C636 C634 1.356 . S
C636 C637 1.348 . S
C637 C632 1.353 . S
C637 C636 1.348 . S
C637 H689 0.929 . S
H638 C632 0.930 . S
H639 C635 0.930 . S
C640 N641 1.314 . S
C640 C642 1.353 . S
C640 H646 0.930 . S
N641 Li617 1.990 . S
N641 C640 1.314 . S
N641 C644 1.279 . S
C642 C640 1.353 . S
C642 C645 1.348 1_556 S
C642 H690 0.929 . S
C643 C644 1.358 1_554 S
C643 C645 1.356 . S
C643 H691 0.930 . S
C644 N641 1.279 . S
C644 C643 1.358 1_556 S
C644 H647 0.930 1_556 S
C645 C642 1.348 1_554 S
C645 C643 1.356 . S
H646 C640 0.930 . S
H647 C644 0.930 1_554 S
C648 C650 1.348 . S
C648 C651 1.356 . S
C648 O678 1.325 . S
N649 C652 1.314 . S
N649 C653 1.279 . S
C650 C648 1.348 . S
C650 C652 1.353 . S
C650 H692 0.929 . S
C651 C648 1.356 . S
C651 C653 1.358 . S
C651 H693 0.930 . S
C652 N649 1.314 . S
C652 C650 1.353 . S
C652 H694 0.930 . S
C653 N649 1.279 . S
C653 C651 1.358 . S
C653 H695 0.930 . S
C654 C655 1.348 . S
C654 C656 1.356 . S
C654 O679 1.325 . S
C655 C654 1.348 . S
C655 C657 1.353 . S
C655 H696 0.929 . S
C656 C654 1.356 . S
C656 C658 1.358 . S
C656 H697 0.930 . S
C657 C655 1.353 . S
C657 N659 1.314 . S
C657 H698 0.930 . S
C658 C656 1.358 . S
C658 N659 1.279 . S
C658 H699 0.930 . S
N659 C657 1.314 . S
N659 C658 1.279 . S
C660 C662 1.353 . S
C660 N663 1.314 . S
C660 H666 0.930 . S
C661 N663 1.279 . S
C661 C664 1.358 . S
C661 H667 0.930 . S
C662 C660 1.353 . S
C662 C665 1.348 . S
C662 H700 0.929 . S
N663 Li618 1.990 . S
N663 C660 1.314 . S
N663 C661 1.279 . S
C664 C661 1.358 . S
C664 C665 1.356 . S
C664 H701 0.930 . S
C665 C662 1.348 . S
C665 C664 1.356 . S
H666 C660 0.930 . S
H667 C661 0.930 . S
C668 N669 1.314 . S
C668 C670 1.353 . S
C668 H674 0.930 1_565 S
N669 Li619 1.990 . S
N669 C668 1.314 . S
N669 C672 1.279 . S
C670 C668 1.353 . S
C670 C673 1.348 . S
C670 H702 0.929 1_565 S
C671 C672 1.358 . S
C671 C673 1.356 . S
C671 H703 0.930 . S
C672 N669 1.279 . S
C672 C671 1.358 . S
C672 H675 0.930 . S
C673 C670 1.348 . S
C673 C671 1.356 . S
H674 C668 0.930 1_545 S
H675 C672 0.930 . S
O676 Li616 1.956 1_565 S
O676 Li617 1.970 . S
O676 Li618 1.961 . S
O676 C620 1.325 . S
O677 Li616 1.970 1_565 S
O677 Li617 1.956 . S
O677 Li619 1.961 . S
O677 C626 1.325 . S
O678 Li616 1.961 . S
O678 Li618 1.956 1_545 S
O678 Li619 1.970 1_545 S
O678 C648 1.325 . S
O679 Li617 1.961 . S
O679 Li618 1.970 . S
O679 Li619 1.956 . S
O679 C654 1.325 . S
H680 C622 0.929 . S
H681 C623 0.930 . S
H682 C624 0.930 . S
H683 C625 0.930 . S
H684 C627 0.930 . S
H685 C629 0.929 . S
H686 C630 0.930 . S
H687 C631 0.930 . S
H688 C634 0.930 . S
H689 C637 0.929 . S
H690 C642 0.929 . S
H691 C643 0.930 . S
H692 C650 0.929 . S
H693 C651 0.930 . S
H694 C652 0.930 . S
H695 C653 0.930 . S
H696 C655 0.929 . S
H697 C656 0.930 . S
H698 C657 0.930 . S
H699 C658 0.930 . S
H700 C662 0.929 . S
H701 C664 0.930 . S
H702 C670 0.929 1_545 S
H703 C671 0.930 . S
C205 C29 2.035 1_655 S
C321 C117 1.973 1_545 S
C401 C557 1.973 1_655 S
C489 C673 2.035 1_545 S
C108 C57 1.961 . S
C145 C225 1.968 . S
C313 C233 1.961 . S
C293 C49 1.968 . S
C636 C372 1.968 . S
C460 C409 1.961 . S
C585 C469 1.968 . S
C645 C548 1.961 . S
C20 C497 3.605 . S
C577 C137 3.588 . S
C196 C665 3.605 . S
C284 C381 3.588 . S
