# Generated by pormake.
# Topology uns, (4)-cn, num edge types: 1
# Building blocks:
#     Node 0, Type 0, BuildingBlock: NAWXER_clean_sbu_0, # of connection points: 4
#     Node 1, Type 0, BuildingBlock: NAWXER_clean_sbu_0, # of connection points: 4
#     Node 2, Type 0, BuildingBlock: NAWXER_clean_sbu_0, # of connection points: 4
#     Node 3, Type 0, BuildingBlock: NAWXER_clean_sbu_0, # of connection points: 4
#     Node 4, Type 0, BuildingBlock: NAWXER_clean_sbu_0, # of connection points: 4
#     Node 5, Type 0, BuildingBlock: NAWXER_clean_sbu_0, # of connection points: 4
#     Node 6, Type 0, BuildingBlock: NAWXER_clean_sbu_0, # of connection points: 4
#     Node 7, Type 0, BuildingBlock: NAWXER_clean_sbu_0, # of connection points: 4
#     Node 8, Type 0, BuildingBlock: NAWXER_clean_sbu_0, # of connection points: 4
#     Node 9, Type 0, BuildingBlock: NAWXER_clean_sbu_0, # of connection points: 4
#     Node 10, Type 0, BuildingBlock: NAWXER_clean_sbu_0, # of connection points: 4
#     Node 11, Type 0, BuildingBlock: NAWXER_clean_sbu_0, # of connection points: 4
#     Node 12, Type 0, BuildingBlock: NAWXER_clean_sbu_0, # of connection points: 4
#     Node 13, Type 0, BuildingBlock: NAWXER_clean_sbu_0, # of connection points: 4
#     Node 14, Type 0, BuildingBlock: NAWXER_clean_sbu_0, # of connection points: 4
#     Node 15, Type 0, BuildingBlock: NAWXER_clean_sbu_0, # of connection points: 4
#     Node 16, Type 0, BuildingBlock: NAWXER_clean_sbu_0, # of connection points: 4
#     Node 17, Type 0, BuildingBlock: NAWXER_clean_sbu_0, # of connection points: 4
#     Node 18, Type 0, BuildingBlock: NAWXER_clean_sbu_0, # of connection points: 4
#     Node 19, Type 0, BuildingBlock: NAWXER_clean_sbu_0, # of connection points: 4
#     Node 20, Type 0, BuildingBlock: NAWXER_clean_sbu_0, # of connection points: 4
#     Node 21, Type 0, BuildingBlock: NAWXER_clean_sbu_0, # of connection points: 4
#     Node 22, Type 0, BuildingBlock: NAWXER_clean_sbu_0, # of connection points: 4
#     Node 23, Type 0, BuildingBlock: NAWXER_clean_sbu_0, # of connection points: 4
#     Node 24, Type 0, BuildingBlock: NAWXER_clean_sbu_0, # of connection points: 4
#     Node 25, Type 0, BuildingBlock: NAWXER_clean_sbu_0, # of connection points: 4
#     Node 26, Type 0, BuildingBlock: NAWXER_clean_sbu_0, # of connection points: 4
#     Node 27, Type 0, BuildingBlock: NAWXER_clean_sbu_0, # of connection points: 4
#     Node 28, Type 0, BuildingBlock: NAWXER_clean_sbu_0, # of connection points: 4
#     Node 29, Type 0, BuildingBlock: NAWXER_clean_sbu_0, # of connection points: 4
#     Node 30, Type 0, BuildingBlock: NAWXER_clean_sbu_0, # of connection points: 4
#     Node 31, Type 0, BuildingBlock: NAWXER_clean_sbu_0, # of connection points: 4
#     Node 32, Type 0, BuildingBlock: NAWXER_clean_sbu_0, # of connection points: 4
#     Node 33, Type 0, BuildingBlock: NAWXER_clean_sbu_0, # of connection points: 4
#     Node 34, Type 0, BuildingBlock: NAWXER_clean_sbu_0, # of connection points: 4
#     Node 35, Type 0, BuildingBlock: NAWXER_clean_sbu_0, # of connection points: 4
#     Edge 36, Type (0, 0), BuildingBlock: EZIPEK_clean_linker_0, # of connection points: 2
#     Edge 37, Type (0, 0), BuildingBlock: EZIPEK_clean_linker_0, # of connection points: 2
#     Edge 38, Type (0, 0), BuildingBlock: EZIPEK_clean_linker_0, # of connection points: 2
#     Edge 39, Type (0, 0), BuildingBlock: EZIPEK_clean_linker_0, # of connection points: 2
#     Edge 40, Type (0, 0), BuildingBlock: EZIPEK_clean_linker_0, # of connection points: 2
#     Edge 41, Type (0, 0), BuildingBlock: EZIPEK_clean_linker_0, # of connection points: 2
#     Edge 42, Type (0, 0), BuildingBlock: EZIPEK_clean_linker_0, # of connection points: 2
#     Edge 43, Type (0, 0), BuildingBlock: EZIPEK_clean_linker_0, # of connection points: 2
#     Edge 44, Type (0, 0), BuildingBlock: EZIPEK_clean_linker_0, # of connection points: 2
#     Edge 45, Type (0, 0), BuildingBlock: EZIPEK_clean_linker_0, # of connection points: 2
#     Edge 46, Type (0, 0), BuildingBlock: EZIPEK_clean_linker_0, # of connection points: 2
#     Edge 47, Type (0, 0), BuildingBlock: EZIPEK_clean_linker_0, # of connection points: 2
#     Edge 48, Type (0, 0), BuildingBlock: EZIPEK_clean_linker_0, # of connection points: 2
#     Edge 49, Type (0, 0), BuildingBlock: EZIPEK_clean_linker_0, # of connection points: 2
#     Edge 50, Type (0, 0), BuildingBlock: EZIPEK_clean_linker_0, # of connection points: 2
#     Edge 51, Type (0, 0), BuildingBlock: EZIPEK_clean_linker_0, # of connection points: 2
#     Edge 52, Type (0, 0), BuildingBlock: EZIPEK_clean_linker_0, # of connection points: 2
#     Edge 53, Type (0, 0), BuildingBlock: EZIPEK_clean_linker_0, # of connection points: 2
#     Edge 54, Type (0, 0), BuildingBlock: EZIPEK_clean_linker_0, # of connection points: 2
#     Edge 55, Type (0, 0), BuildingBlock: EZIPEK_clean_linker_0, # of connection points: 2
#     Edge 56, Type (0, 0), BuildingBlock: EZIPEK_clean_linker_0, # of connection points: 2
#     Edge 57, Type (0, 0), BuildingBlock: EZIPEK_clean_linker_0, # of connection points: 2
#     Edge 58, Type (0, 0), BuildingBlock: EZIPEK_clean_linker_0, # of connection points: 2
#     Edge 59, Type (0, 0), BuildingBlock: EZIPEK_clean_linker_0, # of connection points: 2
#     Edge 60, Type (0, 0), BuildingBlock: EZIPEK_clean_linker_0, # of connection points: 2
#     Edge 61, Type (0, 0), BuildingBlock: EZIPEK_clean_linker_0, # of connection points: 2
#     Edge 62, Type (0, 0), BuildingBlock: EZIPEK_clean_linker_0, # of connection points: 2
#     Edge 63, Type (0, 0), BuildingBlock: EZIPEK_clean_linker_0, # of connection points: 2
#     Edge 64, Type (0, 0), BuildingBlock: EZIPEK_clean_linker_0, # of connection points: 2
#     Edge 65, Type (0, 0), BuildingBlock: EZIPEK_clean_linker_0, # of connection points: 2
#     Edge 66, Type (0, 0), BuildingBlock: EZIPEK_clean_linker_0, # of connection points: 2
#     Edge 67, Type (0, 0), BuildingBlock: EZIPEK_clean_linker_0, # of connection points: 2
#     Edge 68, Type (0, 0), BuildingBlock: EZIPEK_clean_linker_0, # of connection points: 2
#     Edge 69, Type (0, 0), BuildingBlock: EZIPEK_clean_linker_0, # of connection points: 2
#     Edge 70, Type (0, 0), BuildingBlock: EZIPEK_clean_linker_0, # of connection points: 2
#     Edge 71, Type (0, 0), BuildingBlock: EZIPEK_clean_linker_0, # of connection points: 2
#     Edge 72, Type (0, 0), BuildingBlock: EZIPEK_clean_linker_0, # of connection points: 2
#     Edge 73, Type (0, 0), BuildingBlock: EZIPEK_clean_linker_0, # of connection points: 2
#     Edge 74, Type (0, 0), BuildingBlock: EZIPEK_clean_linker_0, # of connection points: 2
#     Edge 75, Type (0, 0), BuildingBlock: EZIPEK_clean_linker_0, # of connection points: 2
#     Edge 76, Type (0, 0), BuildingBlock: EZIPEK_clean_linker_0, # of connection points: 2
#     Edge 77, Type (0, 0), BuildingBlock: EZIPEK_clean_linker_0, # of connection points: 2
#     Edge 78, Type (0, 0), BuildingBlock: EZIPEK_clean_linker_0, # of connection points: 2
#     Edge 79, Type (0, 0), BuildingBlock: EZIPEK_clean_linker_0, # of connection points: 2
#     Edge 80, Type (0, 0), BuildingBlock: EZIPEK_clean_linker_0, # of connection points: 2
#     Edge 81, Type (0, 0), BuildingBlock: EZIPEK_clean_linker_0, # of connection points: 2
#     Edge 82, Type (0, 0), BuildingBlock: EZIPEK_clean_linker_0, # of connection points: 2
#     Edge 83, Type (0, 0), BuildingBlock: EZIPEK_clean_linker_0, # of connection points: 2
#     Edge 84, Type (0, 0), BuildingBlock: EZIPEK_clean_linker_0, # of connection points: 2
#     Edge 85, Type (0, 0), BuildingBlock: EZIPEK_clean_linker_0, # of connection points: 2
#     Edge 86, Type (0, 0), BuildingBlock: EZIPEK_clean_linker_0, # of connection points: 2
#     Edge 87, Type (0, 0), BuildingBlock: EZIPEK_clean_linker_0, # of connection points: 2
#     Edge 88, Type (0, 0), BuildingBlock: EZIPEK_clean_linker_0, # of connection points: 2
#     Edge 89, Type (0, 0), BuildingBlock: EZIPEK_clean_linker_0, # of connection points: 2
#     Edge 90, Type (0, 0), BuildingBlock: EZIPEK_clean_linker_0, # of connection points: 2
#     Edge 91, Type (0, 0), BuildingBlock: EZIPEK_clean_linker_0, # of connection points: 2
#     Edge 92, Type (0, 0), BuildingBlock: EZIPEK_clean_linker_0, # of connection points: 2
#     Edge 93, Type (0, 0), BuildingBlock: EZIPEK_clean_linker_0, # of connection points: 2
#     Edge 94, Type (0, 0), BuildingBlock: EZIPEK_clean_linker_0, # of connection points: 2
#     Edge 95, Type (0, 0), BuildingBlock: EZIPEK_clean_linker_0, # of connection points: 2
#     Edge 96, Type (0, 0), BuildingBlock: EZIPEK_clean_linker_0, # of connection points: 2
#     Edge 97, Type (0, 0), BuildingBlock: EZIPEK_clean_linker_0, # of connection points: 2
#     Edge 98, Type (0, 0), BuildingBlock: EZIPEK_clean_linker_0, # of connection points: 2
#     Edge 99, Type (0, 0), BuildingBlock: EZIPEK_clean_linker_0, # of connection points: 2
#     Edge 100, Type (0, 0), BuildingBlock: EZIPEK_clean_linker_0, # of connection points: 2
#     Edge 101, Type (0, 0), BuildingBlock: EZIPEK_clean_linker_0, # of connection points: 2
#     Edge 102, Type (0, 0), BuildingBlock: EZIPEK_clean_linker_0, # of connection points: 2
#     Edge 103, Type (0, 0), BuildingBlock: EZIPEK_clean_linker_0, # of connection points: 2
#     Edge 104, Type (0, 0), BuildingBlock: EZIPEK_clean_linker_0, # of connection points: 2
#     Edge 105, Type (0, 0), BuildingBlock: EZIPEK_clean_linker_0, # of connection points: 2
#     Edge 106, Type (0, 0), BuildingBlock: EZIPEK_clean_linker_0, # of connection points: 2
#     Edge 107, Type (0, 0), BuildingBlock: EZIPEK_clean_linker_0, # of connection points: 2
# Relax obj value: 0.008
# Max RMSD: 0.156
# Mean RMSD: 0.156
data_MOF--net-uns--node1-NAWXER_clean_sbu_0--edge1-EZIPEK_clean_linker_0
_symmetry_space_group_name_H-M    P1
_symmetry_Int_Tables_number       1
_symmetry_cell_setting            triclinic
loop_
_symmetry_equiv_pos_as_xyz
'x, y, z'
_cell_length_a     44.026693
_cell_length_b     44.017509
_cell_length_c     33.377192
_cell_angle_alpha  90.13128
_cell_angle_beta   89.982474
_cell_angle_gamma 120.02014
loop_
_atom_site_label
_atom_site_type_symbol
_atom_site_fract_x
_atom_site_fract_y
_atom_site_fract_z
_atom_type_partial_charge
C0 C 0.28417 0.17772 0.12412 0.0
C1 C 0.19981 0.19974 0.05173 0.0
O2 O 0.25473 0.17251 0.13703 0.0
Zn3 Zn 0.2399 0.1858 0.08814 0.0
O4 O 0.29362 0.18863 0.08832 0.0
Zn5 Zn 0.27489 0.20496 0.03878 0.0
O6 O 0.31182 0.25368 0.03745 0.0
O7 O 0.27562 0.2417 0.08803 0.0
O8 O 0.22822 0.20884 0.03224 0.0
O9 O 0.19475 0.18373 0.08492 0.0
O10 O 0.23408 0.14577 0.04667 0.0
O11 O 0.27096 0.17229 0.99697 0.0
C12 C 0.30237 0.26411 0.06814 0.0
C13 C 0.24738 0.14417 0.01312 0.0
C14 C 0.81433 0.00842 0.04888 0.0
C15 C 0.83709 0.11686 0.11759 0.0
O16 O 0.8314 0.02092 0.08123 0.0
Zn17 Zn 0.82992 0.06459 0.08256 0.0
O18 O 0.80508 0.02713 0.02849 0.0
Zn19 Zn 0.80983 0.07818 0.03246 0.0
O20 O 0.84175 0.10584 0.99005 0.0
O21 O 0.86929 0.09755 0.0402 0.0
O22 O 0.82456 0.11379 0.08222 0.0
O23 O 0.84487 0.09433 0.13022 0.0
O24 O 0.77382 0.04564 0.08284 0.0
O25 O 0.7617 0.06594 0.02814 0.0
C26 C 0.87018 0.11138 0.00617 0.0
C27 C 0.75157 0.04842 0.0605 0.0
C28 C 0.90086 0.76266 0.01196 0.0
C29 C 0.96755 0.70747 0.06024 0.0
O30 O 0.90634 0.74041 0.99384 0.0
Zn31 Zn 0.93485 0.73496 0.03453 0.0
O32 O 0.91492 0.77424 0.04637 0.0
Zn33 Zn 0.94916 0.76709 0.08638 0.0
O34 O 0.99149 0.81288 0.08652 0.0
O35 O 0.98492 0.78271 0.03119 0.0
O36 O 0.97074 0.73269 0.08243 0.0
O37 O 0.94815 0.69923 0.02921 0.0
O38 O 0.89925 0.71251 0.08338 0.0
O39 O 0.92104 0.74882 0.13469 0.0
C40 C 1.00338 0.81005 0.05282 0.0
C41 C 0.8975 0.71971 0.12015 0.0
C42 C 0.14861 0.24644 0.49404 0.0
C43 C 0.26708 0.3067 0.43937 0.0
O44 O 0.17649 0.27089 0.50956 0.0
Zn45 Zn 0.2082 0.27679 0.46663 0.0
O46 O 0.14971 0.23429 0.45947 0.0
Zn47 Zn 0.18938 0.24414 0.41554 0.0
O48 O 0.18948 0.20033 0.41312 0.0
O49 O 0.21267 0.23021 0.46897 0.0
O50 O 0.24518 0.2819 0.41644 0.0
O51 O 0.25628 0.31334 0.47173 0.0
O52 O 0.19238 0.29771 0.41807 0.0
O53 O 0.17371 0.25883 0.36895 0.0
C54 C 0.20453 0.20347 0.44659 0.0
C55 C 0.18037 0.28856 0.38243 0.0
C56 C 0.80766 0.00645 0.45744 0.0
C57 C 0.72898 0.90402 0.37651 0.0
O58 O 0.81101 1.00019 0.421 0.0
Zn59 Zn 0.76944 0.95448 0.4167 0.0
O60 O 0.78139 0.98337 0.47746 0.0
Zn61 Zn 0.73423 0.93413 0.4657 0.0
O62 O 0.73698 0.902 0.50295 0.0
O63 O 0.77851 0.92151 0.457 0.0
O64 O 0.71731 0.90294 0.41197 0.0
O65 O 0.75879 0.92934 0.36637 0.0
O66 O 0.72977 0.96875 0.41757 0.0
O67 O 0.69797 0.94681 0.47215 0.0
C68 C 0.76386 0.90259 0.48807 0.0
C69 C 0.70466 0.96484 0.44028 0.0
C70 C 0.00956 0.81179 0.43986 0.0
C71 C 0.11852 0.83174 0.37702 0.0
O72 O 0.01972 0.82236 0.40432 0.0
Zn73 Zn 0.06515 0.82461 0.40732 0.0
O74 O 0.02987 0.80723 0.46334 0.0
Zn75 Zn 0.07766 0.80675 0.46079 0.0
O76 O 0.10567 0.83971 0.50187 0.0
O77 O 0.09619 0.86525 0.45015 0.0
O78 O 0.11449 0.82003 0.41286 0.0
O79 O 0.09632 0.83884 0.36168 0.0
O80 O 0.04829 0.76994 0.40807 0.0
O81 O 0.06041 0.75692 0.46736 0.0
C82 C 0.11007 0.86734 0.4846 0.0
C83 C 0.04709 0.74711 0.43261 0.0
C84 C 0.76364 0.86622 0.98839 0.0
C85 C 0.7017 0.74405 0.93908 0.0
O86 O 0.77574 0.86203 0.95512 0.0
Zn87 Zn 0.76498 0.82006 0.91403 0.0
O88 O 0.73868 0.83962 0.00546 0.0
Zn89 Zn 0.73222 0.80448 0.96557 0.0
O90 O 0.77856 0.79925 0.97044 0.0
O91 O 0.80841 0.81894 0.91394 0.0
O92 O 0.69421 0.75607 0.96995 0.0
O93 O 0.72775 0.76512 0.91742 0.0
O94 O 0.74851 0.83238 0.86558 0.0
O95 O 0.7124 0.82004 0.91645 0.0
C96 C 0.80508 0.80557 0.94854 0.0
C97 C 0.72017 0.82899 0.87984 0.0
C98 C 0.205 0.00579 0.94875 0.0
C99 C 0.17855 0.896 0.88165 0.0
O100 O 0.21085 0.98551 0.97104 0.0
Zn101 Zn 0.20486 0.93367 0.96677 0.0
O102 O 0.19145 0.9955 0.91421 0.0
Zn103 Zn 0.18855 0.95021 0.91547 0.0
O104 O 0.14758 0.92184 0.9575 0.0
O105 O 0.16927 0.90454 0.00578 0.0
O106 O 0.17183 0.91923 0.86885 0.0
O107 O 0.19111 0.89901 0.91688 0.0
O108 O 0.25266 0.94421 0.97332 0.0
O109 O 0.24338 0.96548 0.91758 0.0
C110 C 0.14305 0.9045 0.98981 0.0
C111 C 0.26424 0.96138 0.94086 0.0
C112 C 0.10889 0.24752 0.98352 0.0
C113 C 0.0508 0.31109 0.93535 0.0
O114 O 0.09167 0.23467 0.95104 0.0
Zn115 Zn 0.06301 0.24719 0.90898 0.0
O116 O 0.10895 0.27384 0.99929 0.0
Zn117 Zn 0.07968 0.28011 0.96026 0.0
O118 O 0.02799 0.23374 0.96445 0.0
O119 O 0.0182 0.20443 0.90741 0.0
O120 O 0.06894 0.31729 0.96718 0.0
O121 O 0.04661 0.286 0.9121 0.0
O122 O 0.09337 0.26179 0.86188 0.0
O123 O 0.11393 0.30118 0.9102 0.0
C124 C 0.00794 0.20746 0.94204 0.0
C125 C 0.11659 0.29175 0.87472 0.0
C126 C 0.87063 0.76906 0.50224 0.0
C127 C 0.74985 0.70662 0.55001 0.0
O128 O 0.86758 0.77992 0.53677 0.0
Zn129 Zn 0.82651 0.76804 0.57854 0.0
O130 O 0.84373 0.74483 0.48491 0.0
Zn131 Zn 0.80921 0.7372 0.5258 0.0
O132 O 0.80487 0.7838 0.5253 0.0
O133 O 0.82638 0.81207 0.58219 0.0
O134 O 0.76119 0.70206 0.51678 0.0
O135 O 0.77082 0.72991 0.57501 0.0
O136 O 0.84118 0.75124 0.62396 0.0
O137 O 0.8209 0.7129 0.57463 0.0
C138 C 0.812 0.80986 0.54845 0.0
C139 C 0.83345 0.72125 0.61012 0.0
C140 C 0.28669 0.11325 0.61844 0.0
C141 C 0.20425 0.00653 0.54695 0.0
O142 O 0.29707 0.11197 0.58292 0.0
Zn143 Zn 0.27776 0.0774 0.5319 0.0
O144 O 0.25674 0.08932 0.63026 0.0
Zn145 Zn 0.24384 0.06129 0.58181 0.0
O146 O 0.28216 0.04406 0.58051 0.0
O147 O 0.31469 0.06663 0.5264 0.0
O148 O 0.20011 0.01711 0.58086 0.0
O149 O 0.23152 0.02624 0.52594 0.0
O150 O 0.27327 0.10538 0.4907 0.0
O151 O 0.23589 0.09387 0.54025 0.0
C152 C 0.30755 0.04813 0.55792 0.0
C153 C 0.24913 0.10894 0.50678 0.0
C154 C 0.90105 0.1753 0.6275 0.0
C155 C 0.01051 0.19948 0.56077 0.0
O156 O 0.90478 0.18825 0.59229 0.0
Zn157 Zn 0.94203 0.20453 0.54384 0.0
O158 O 0.92383 0.16843 0.64167 0.0
Zn159 Zn 0.95457 0.18436 0.59546 0.0
O160 O 0.97019 0.23872 0.59874 0.0
O161 O 0.95829 0.2543 0.54105 0.0
O162 O 0.99985 0.18559 0.59504 0.0
O163 O 0.99084 0.20654 0.53928 0.0
O164 O 0.91438 0.17282 0.50122 0.0
O165 O 0.92239 0.14555 0.55218 0.0
C166 C 0.97122 0.26262 0.5762 0.0
C167 C 0.90881 0.14454 0.51791 0.0
C168 C 0.96207 0.51591 0.45066 0.0
C169 C 0.87261 0.53796 0.39233 0.0
O170 O 0.93506 0.51357 0.46753 0.0
Zn171 Zn 0.91579 0.52494 0.42164 0.0
O172 O 0.96719 0.52375 0.41343 0.0
Zn173 Zn 0.9437 0.53873 0.36669 0.0
O174 O 0.97999 0.58695 0.35699 0.0
O175 O 0.95351 0.57952 0.41537 0.0
O176 O 0.89715 0.54353 0.36754 0.0
O177 O 0.87248 0.52612 0.42707 0.0
O178 O 0.90193 0.48178 0.38103 0.0
O179 O 0.93391 0.50313 0.32637 0.0
C180 C 0.97629 0.59961 0.3897 0.0
C181 C 0.91083 0.47701 0.34595 0.0
C182 C 0.47541 0.3353 0.38437 0.0
C183 C 0.49999 0.44322 0.45397 0.0
O184 O 0.48932 0.34577 0.41868 0.0
Zn185 Zn 0.49032 0.39025 0.41859 0.0
O186 O 0.46841 0.35509 0.36275 0.0
Zn187 Zn 0.47358 0.40636 0.36768 0.0
O188 O 0.50683 0.43342 0.32653 0.0
O189 O 0.5316 0.4217 0.37708 0.0
O190 O 0.48903 0.44174 0.41805 0.0
O191 O 0.50513 0.41899 0.46681 0.0
O192 O 0.43495 0.37361 0.41611 0.0
O193 O 0.42589 0.39601 0.36137 0.0
C194 C 0.53409 0.43633 0.34313 0.0
C195 C 0.41401 0.37783 0.39304 0.0
C196 C 0.5675 0.09101 0.33007 0.0
C197 C 0.62957 0.03528 0.38923 0.0
O198 O 0.57191 0.06714 0.31432 0.0
Zn199 Zn 0.59901 0.06286 0.35724 0.0
O200 O 0.58136 0.10382 0.36427 0.0
Zn201 Zn 0.61276 0.09658 0.40822 0.0
O202 O 0.65838 0.13959 0.4079 0.0
O203 O 0.64754 0.11041 0.35128 0.0
O204 O 0.62909 0.05871 0.41142 0.0
O205 O 0.61493 0.02866 0.35493 0.0
O206 O 0.56233 0.04314 0.4062 0.0
O207 O 0.58271 0.08305 0.4546 0.0
C208 C 0.66823 0.13664 0.37298 0.0
C209 C 0.55938 0.05324 0.44133 0.0
C210 C 0.81018 0.5791 0.82523 0.0
C211 C 0.9309 0.63558 0.77514 0.0
O212 O 0.83797 0.60235 0.84223 0.0
Zn213 Zn 0.8716 0.60757 0.80097 0.0
O214 O 0.81214 0.56739 0.79074 0.0
Zn215 Zn 0.85249 0.57657 0.74849 0.0
O216 O 0.85033 0.53134 0.745 0.0
O217 O 0.87251 0.55904 0.80207 0.0
O218 O 0.90869 0.61265 0.75072 0.0
O219 O 0.9207 0.64109 0.80866 0.0
O220 O 0.86081 0.63266 0.75222 0.0
O221 O 0.83882 0.59431 0.70301 0.0
C222 C 0.86415 0.53269 0.77889 0.0
C223 C 0.84789 0.62465 0.71686 0.0
C224 C 0.37287 0.29579 0.77887 0.0
C225 C 0.4305 0.23134 0.82204 0.0
O226 O 0.36695 0.27801 0.81081 0.0
Zn227 Zn 0.40226 0.26509 0.80193 0.0
O228 O 0.39681 0.29901 0.75445 0.0
Zn229 Zn 0.43379 0.28049 0.74958 0.0
O230 O 0.4172 0.25294 0.70085 0.0
O231 O 0.37992 0.23064 0.7514 0.0
O232 O 0.44179 0.2461 0.78797 0.0
O233 O 0.40822 0.23613 0.841 0.0
O234 O 0.44932 0.31515 0.80645 0.0
O235 O 0.47899 0.3238 0.75048 0.0
C236 C 0.38803 0.22919 0.71487 0.0
C237 C 0.47636 0.33453 0.78501 0.0
C238 C 0.77585 0.19681 0.82475 0.0
C239 C 0.71198 0.0768 0.77234 0.0
O240 O 0.77026 0.1688 0.84206 0.0
Zn241 Zn 0.74237 0.13552 0.80025 0.0
O242 O 0.76211 0.19501 0.79039 0.0
Zn243 Zn 0.72938 0.155 0.74861 0.0
O244 O 0.68599 0.15692 0.74855 0.0
O245 O 0.69198 0.13187 0.80259 0.0
O246 O 0.71023 0.09919 0.74935 0.0
O247 O 0.72858 0.0866 0.80541 0.0
O248 O 0.77853 0.1496 0.75149 0.0
O249 O 0.75933 0.16854 0.70159 0.0
C250 C 0.67345 0.14077 0.78134 0.0
C251 C 0.78189 0.16142 0.71578 0.0
C252 C 0.43248 0.19633 0.32284 0.0
C253 C 0.37182 0.07454 0.27937 0.0
O254 O 0.44208 0.19333 0.28749 0.0
Zn255 Zn 0.43037 0.15086 0.2467 0.0
O256 O 0.41089 0.16912 0.34192 0.0
Zn257 Zn 0.40286 0.13473 0.30125 0.0
O258 O 0.45048 0.13168 0.2986 0.0
O259 O 0.47449 0.15199 0.23939 0.0
O260 O 0.36847 0.08673 0.31257 0.0
O261 O 0.39359 0.09504 0.25296 0.0
O262 O 0.41138 0.16263 0.20133 0.0
O263 O 0.37646 0.14632 0.25417 0.0
C264 C 0.47502 0.139 0.2731 0.0
C265 C 0.38282 0.15654 0.21764 0.0
C266 C 0.86166 0.33686 0.28414 0.0
C267 C 0.84897 0.23413 0.21018 0.0
O268 O 0.87023 0.31762 0.30453 0.0
Zn269 Zn 0.87075 0.26926 0.29793 0.0
O270 O 0.85254 0.32836 0.24788 0.0
Zn271 Zn 0.85496 0.28548 0.24623 0.0
O272 O 0.81277 0.25067 0.28512 0.0
O273 O 0.8367 0.23955 0.3371 0.0
O274 O 0.84323 0.25792 0.19708 0.0
O275 O 0.85866 0.2353 0.24665 0.0
O276 O 0.9191 0.28257 0.30653 0.0
O277 O 0.91051 0.3047 0.25132 0.0
C278 C 0.80958 0.23532 0.31874 0.0
C279 C 0.93137 0.3012 0.27526 0.0
C280 C 0.77619 0.57976 0.33031 0.0
C281 C 0.71202 0.63297 0.27001 0.0
O282 O 0.76286 0.56645 0.29611 0.0
Zn283 Zn 0.73086 0.57245 0.25182 0.0
O284 O 0.77038 0.60279 0.34576 0.0
Zn285 Zn 0.74239 0.60562 0.30262 0.0
O286 O 0.69375 0.558 0.3069 0.0
O287 O 0.68629 0.52799 0.25133 0.0
O288 O 0.72494 0.63823 0.30521 0.0
O289 O 0.71358 0.61008 0.24785 0.0
O290 O 0.76144 0.58731 0.20568 0.0
O291 O 0.77932 0.62744 0.25371 0.0
C292 C 0.67478 0.53108 0.28513 0.0
C293 C 0.78316 0.6179 0.21861 0.0
C294 C 0.49589 0.05025 0.95051 0.0
C295 C 0.47292 0.13457 0.88167 0.0
O296 O 0.48679 0.04205 0.91395 0.0
Zn297 Zn 0.47056 0.06116 0.86478 0.0
O298 O 0.49946 0.07879 0.96441 0.0
Zn299 Zn 0.48708 0.09458 0.91594 0.0
O300 O 0.43224 0.05776 0.91338 0.0
O301 O 0.42194 0.02342 0.86116 0.0
O302 O 0.48667 0.1381 0.9161 0.0
O303 O 0.46598 0.10779 0.85984 0.0
O304 O 0.50485 0.06674 0.82441 0.0
O305 O 0.52824 0.10425 0.87442 0.0
C306 C 0.41066 0.03157 0.89215 0.0
C307 C 0.53178 0.09168 0.84114 0.0
C308 C 0.95476 0.44628 0.95126 0.0
C309 C 0.87151 0.33703 0.88402 0.0
O310 O 0.9638 0.44426 0.9154 0.0
Zn311 Zn 0.94282 0.41001 0.86517 0.0
O312 O 0.92508 0.4227 0.9642 0.0
Zn313 Zn 0.91051 0.39271 0.91663 0.0
O314 O 0.95032 0.37768 0.91271 0.0
O315 O 0.98083 0.40054 0.85741 0.0
O316 O 0.86862 0.34733 0.91868 0.0
O317 O 0.89717 0.35749 0.86116 0.0
O318 O 0.93567 0.43923 0.82701 0.0
O319 O 0.89652 0.42071 0.87503 0.0
C320 C 0.97542 0.38254 0.88915 0.0
C321 C 0.90904 0.43844 0.84284 0.0
C322 C 0.56388 0.51171 0.95998 0.0
C323 C 0.67211 0.53655 0.89092 0.0
O324 O 0.56516 0.5221 0.92395 0.0
Zn325 Zn 0.59893 0.53497 0.87337 0.0
O326 O 0.58829 0.50693 0.97302 0.0
Zn327 Zn 0.61739 0.52159 0.92509 0.0
O328 O 0.63213 0.57607 0.92014 0.0
O329 O 0.60931 0.58268 0.86423 0.0
O330 O 0.66343 0.52632 0.92685 0.0
O331 O 0.65032 0.53973 0.86811 0.0
O332 O 0.56931 0.49859 0.83589 0.0
O333 O 0.58856 0.47857 0.88404 0.0
C334 C 0.62746 0.59586 0.8958 0.0
C335 C 0.57041 0.47303 0.852 0.0
C336 C 0.57891 0.80985 0.67472 0.0
C337 C 0.63801 0.93174 0.72144 0.0
O338 O 0.60231 0.83699 0.65691 0.0
Zn339 Zn 0.60851 0.87199 0.69669 0.0
O340 O 0.56733 0.81303 0.70872 0.0
Zn341 Zn 0.57615 0.85493 0.74842 0.0
O342 O 0.53145 0.85395 0.74785 0.0
O343 O 0.56207 0.8761 0.69271 0.0
O344 O 0.61383 0.91047 0.74526 0.0
O345 O 0.64405 0.92048 0.68896 0.0
O346 O 0.63043 0.85929 0.74705 0.0
O347 O 0.59196 0.84239 0.79651 0.0
C348 C 0.53483 0.86832 0.71388 0.0
C349 C 0.6216 0.84862 0.78312 0.0
C350 C 0.07731 0.708 0.7269 0.0
C351 C 0.19923 0.77364 0.67686 0.0
O352 O 0.08719 0.72394 0.69347 0.0
Zn353 Zn 0.1375 0.74121 0.69955 0.0
O354 O 0.10017 0.7081 0.75059 0.0
Zn355 Zn 0.1548 0.72554 0.75121 0.0
O356 O 0.16962 0.75604 0.79826 0.0
O357 O 0.15031 0.77571 0.7494 0.0
O358 O 0.19537 0.75598 0.7088 0.0
O359 O 0.17236 0.7728 0.6614 0.0
O360 O 0.13856 0.69336 0.69253 0.0
O361 O 0.15287 0.68032 0.75062 0.0
C362 C 0.16256 0.77888 0.78485 0.0
C363 C 0.14322 0.67211 0.71433 0.0
C364 C 0.30455 0.37319 0.73039 0.0
C365 C 0.24316 0.4284 0.6677 0.0
O366 O 0.29113 0.36699 0.69541 0.0
Zn367 Zn 0.27544 0.4013 0.69624 0.0
O368 O 0.30355 0.39672 0.75189 0.0
Zn369 Zn 0.28794 0.43534 0.7466 0.0
O370 O 0.25704 0.42215 0.79236 0.0
O371 O 0.23788 0.38175 0.74451 0.0
O372 O 0.25691 0.442 0.70165 0.0
O373 O 0.24802 0.40458 0.65267 0.0
O374 O 0.32489 0.44824 0.69136 0.0
O375 O 0.33342 0.47866 0.74679 0.0
C376 C 0.23414 0.39211 0.77914 0.0
C377 C 0.34465 0.47494 0.71308 0.0
C378 C 0.48374 0.91298 0.15728 0.0
C379 C 0.60484 0.97309 0.10781 0.0
O380 O 0.51063 0.93798 0.17396 0.0
Zn381 Zn 0.54479 0.94334 0.13396 0.0
O382 O 0.4873 0.90033 0.12407 0.0
Zn383 Zn 0.52868 0.91044 0.08258 0.0
O384 O 0.52876 0.86681 0.08168 0.0
O385 O 0.54889 0.89631 0.13855 0.0
O386 O 0.58359 0.94711 0.08606 0.0
O387 O 0.59316 0.98089 0.1387 0.0
O388 O 0.529 0.96302 0.08493 0.0
O389 O 0.51667 0.92664 0.03419 0.0
C390 C 0.54196 0.86974 0.11631 0.0
C391 C 0.52012 0.95507 0.04827 0.0
C392 C 0.14377 0.67085 0.11455 0.0
C393 C 0.05745 0.56388 0.04546 0.0
O394 O 0.14781 0.65865 0.08169 0.0
Zn395 Zn 0.10239 0.61582 0.08049 0.0
O396 O 0.11573 0.65238 0.13493 0.0
Zn397 Zn 0.06893 0.60181 0.13084 0.0
O398 O 0.07356 0.57385 0.17273 0.0
O399 O 0.10934 0.58293 0.12226 0.0
O400 O 0.04795 0.56647 0.08098 0.0
O401 O 0.08765 0.58664 0.03281 0.0
O402 O 0.06565 0.6354 0.08126 0.0
O403 O 0.03341 0.61469 0.136 0.0
C404 C 0.09677 0.56893 0.15631 0.0
C405 C 0.04083 0.63267 0.10399 0.0
C406 C 0.37859 0.41124 0.11653 0.0
C407 C 0.44021 0.53291 0.16555 0.0
O408 O 0.39561 0.42221 0.14925 0.0
Zn409 Zn 0.40882 0.47089 0.14239 0.0
O410 O 0.37626 0.43293 0.09288 0.0
Zn411 Zn 0.39405 0.48839 0.09064 0.0
O412 O 0.42533 0.50391 0.04456 0.0
O413 O 0.44369 0.48311 0.09297 0.0
O414 O 0.42327 0.52894 0.13298 0.0
O415 O 0.43876 0.50612 0.18175 0.0
O416 O 0.35791 0.46725 0.1453 0.0
O417 O 0.34986 0.48767 0.08814 0.0
C418 C 0.44754 0.49594 0.05777 0.0
C419 C 0.33868 0.47418 0.12245 0.0
C420 C 0.05618 0.49158 0.55083 0.0
C421 C 0.14706 0.47199 0.6094 0.0
O422 O 0.05154 0.4846 0.58831 0.0
Zn423 Zn 0.07661 0.47182 0.63563 0.0
O424 O 0.08332 0.49422 0.53392 0.0
Zn425 Zn 0.10347 0.48485 0.58038 0.0
O426 O 0.06581 0.43015 0.58853 0.0
O427 O 0.04054 0.42443 0.64746 0.0
O428 O 0.14703 0.48405 0.57487 0.0
O429 O 0.12276 0.46651 0.63446 0.0
O430 O 0.08665 0.5079 0.67488 0.0
O431 O 0.11621 0.52934 0.61871 0.0
C432 C 0.04354 0.41085 0.61511 0.0
C433 C 0.1078 0.5341 0.65404 0.0
C434 C 0.54035 0.67092 0.61484 0.0
C435 C 0.51643 0.56239 0.54536 0.0
O436 O 0.5468 0.65065 0.63602 0.0
Zn437 Zn 0.54574 0.60219 0.62968 0.0
O438 O 0.52704 0.661 0.58009 0.0
Zn439 Zn 0.52539 0.61574 0.57874 0.0
O440 O 0.48686 0.58438 0.62255 0.0
O441 O 0.51389 0.57385 0.67183 0.0
O442 O 0.50938 0.58526 0.53195 0.0
O443 O 0.52944 0.56576 0.58051 0.0
O444 O 0.59594 0.61897 0.63211 0.0
O445 O 0.57972 0.6325 0.57566 0.0
C446 C 0.48581 0.57014 0.65634 0.0
C447 C 0.60387 0.63355 0.59779 0.0
C448 C 0.4392 0.9114 0.64902 0.0
C449 C 0.37857 0.97223 0.60256 0.0
O450 O 0.42158 0.89788 0.61694 0.0
Zn451 Zn 0.39143 0.90889 0.57551 0.0
O452 O 0.43867 0.9374 0.66481 0.0
Zn453 Zn 0.40836 0.94219 0.6263 0.0
O454 O 0.35718 0.89518 0.63135 0.0
O455 O 0.34743 0.86529 0.57491 0.0
O456 O 0.39729 0.97877 0.63392 0.0
O457 O 0.37407 0.94704 0.57923 0.0
O458 O 0.42097 0.92343 0.52781 0.0
O459 O 0.4417 0.96336 0.57552 0.0
C460 C 0.33716 0.8684 0.6095 0.0
C461 C 0.44402 0.95368 0.54007 0.0
C462 C 0.16403 0.39137 0.2917 0.0
C463 C 0.1411 0.47515 0.2213 0.0
O464 O 0.15287 0.38178 0.25587 0.0
Zn465 Zn 0.13812 0.40159 0.20541 0.0
O466 O 0.17018 0.42119 0.30438 0.0
Zn467 Zn 0.1559 0.43523 0.25596 0.0
O468 O 0.10032 0.39748 0.25414 0.0
O469 O 0.09013 0.36483 0.2 0.0
O470 O 0.15574 0.47918 0.25523 0.0
O471 O 0.1335 0.44793 0.20006 0.0
O472 O 0.17118 0.40626 0.1645 0.0
O473 O 0.1967 0.4432 0.21465 0.0
C474 C 0.07884 0.37216 0.23153 0.0
C475 C 0.19882 0.43017 0.18108 0.0
C476 C 0.63317 0.7849 0.27993 0.0
C477 C 0.53939 0.67315 0.2247 0.0
O478 O 0.63749 0.78017 0.24303 0.0
Zn479 Zn 0.61249 0.74021 0.19848 0.0
O480 O 0.60608 0.76172 0.29828 0.0
Zn481 Zn 0.58474 0.7295 0.25357 0.0
O482 O 0.6201 0.70937 0.24905 0.0
O483 O 0.64721 0.72611 0.19066 0.0
O484 O 0.53904 0.6866 0.25837 0.0
O485 O 0.56513 0.69055 0.20078 0.0
O486 O 0.6036 0.76514 0.15671 0.0
O487 O 0.57449 0.76081 0.21229 0.0
C488 C 0.64257 0.71034 0.22394 0.0
C489 C 0.58325 0.77231 0.17644 0.0
C490 C 0.23718 0.84544 0.28833 0.0
C491 C 0.34369 0.86611 0.2198 0.0
O492 O 0.2394 0.85705 0.25265 0.0
Zn493 Zn 0.27433 0.87097 0.20239 0.0
O494 O 0.26032 0.83871 0.30133 0.0
Zn495 Zn 0.28878 0.85227 0.25338 0.0
O496 O 0.30654 0.9077 0.25267 0.0
O497 O 0.28794 0.9197 0.19649 0.0
O498 O 0.33209 0.85096 0.25324 0.0
O499 O 0.32469 0.87441 0.19851 0.0
O500 O 0.2451 0.8377 0.1615 0.0
O501 O 0.25634 0.8122 0.21145 0.0
C502 C 0.3043 0.92981 0.22966 0.0
C503 C 0.24112 0.80995 0.17793 0.0
C504 C 0.29958 0.13786 0.16207 0.0
C505 C 0.30851 0.17228 0.14999 0.0
C506 C 0.36454 0.19631 0.1861 0.0
C507 C 0.35705 0.16182 0.19479 0.0
N508 N 0.3206 0.09947 0.18546 0.0
N509 N 0.35279 0.23368 0.14389 0.0
C510 C 0.3253 0.13244 0.18149 0.0
C511 C 0.34196 0.20135 0.16005 0.0
N512 N 0.2668 0.11026 0.15436 0.0
N513 N 0.39275 0.22433 0.20365 0.0
H514 H 0.33742 0.23895 0.1247 0.0
H515 H 0.37831 0.25465 0.1466 0.0
H516 H 0.41001 0.22169 0.2228 0.0
H517 H 0.39722 0.24989 0.20217 0.0
H518 H 0.25745 0.08534 0.16642 0.0
H519 H 0.24799 0.11267 0.13792 0.0
H520 H 0.29977 0.07717 0.17269 0.0
H521 H 0.33933 0.09473 0.1986 0.0
C522 C 0.82203 0.14099 0.17824 0.0
C523 C 0.84214 0.14704 0.1428 0.0
C524 C 0.86558 0.21076 0.14978 0.0
C525 C 0.84431 0.20444 0.18431 0.0
N526 N 0.7969 0.16374 0.22624 0.0
N527 N 0.88246 0.18699 0.09377 0.0
C528 C 0.82119 0.16959 0.19723 0.0
C529 C 0.86364 0.18178 0.12823 0.0
N530 N 0.80363 0.10793 0.19388 0.0
N531 N 0.88861 0.24449 0.13847 0.0
H532 H 0.88512 0.16718 0.07991 0.0
H533 H 0.8948 0.21053 0.07809 0.0
H534 H 0.88969 0.26633 0.15203 0.0
H535 H 0.90795 0.25134 0.11684 0.0
H536 H 0.79202 0.10252 0.22209 0.0
H537 H 0.80182 0.08586 0.18001 0.0
H538 H 0.79456 0.18393 0.23957 0.0
H539 H 0.77679 0.13895 0.23437 0.0
C540 C 0.81405 0.67598 0.18319 0.0
C541 C 0.81202 0.64355 0.19274 0.0
C542 C 0.86366 0.65948 0.15111 0.0
C543 C 0.86812 0.69357 0.14527 0.0
N544 N 0.84887 0.73532 0.15814 0.0
N545 N 0.83849 0.6071 0.19209 0.0
C546 C 0.84387 0.70223 0.16237 0.0
C547 C 0.83774 0.63596 0.17832 0.0
N548 N 0.78647 0.68093 0.19194 0.0
N549 N 0.88372 0.64912 0.13037 0.0
H550 H 0.82024 0.58943 0.21243 0.0
H551 H 0.85908 0.60245 0.1864 0.0
H552 H 0.90361 0.66526 0.11076 0.0
H553 H 0.87866 0.62333 0.12998 0.0
H554 H 0.78461 0.70237 0.18212 0.0
H555 H 0.76361 0.6619 0.2057 0.0
H556 H 0.83487 0.74453 0.17432 0.0
H557 H 0.86834 0.75442 0.14008 0.0
C558 C 0.15065 0.3237 0.3712 0.0
C559 C 0.17471 0.31332 0.35769 0.0
C560 C 0.19428 0.35698 0.30375 0.0
C561 C 0.1701 0.36724 0.31711 0.0
N562 N 0.12898 0.36462 0.3667 0.0
N563 N 0.21545 0.31569 0.30765 0.0
C564 C 0.1494 0.35189 0.35185 0.0
C565 C 0.19536 0.32866 0.32291 0.0
N566 N 0.12733 0.30483 0.40085 0.0
N567 N 0.21777 0.37595 0.27427 0.0
H568 H 0.21788 0.29575 0.32125 0.0
H569 H 0.22788 0.32278 0.27994 0.0
H570 H 0.21864 0.39773 0.26078 0.0
H571 H 0.23854 0.37249 0.26559 0.0
H572 H 0.10674 0.30843 0.40989 0.0
H573 H 0.12648 0.28302 0.41422 0.0
H574 H 0.11624 0.35742 0.39422 0.0
H575 H 0.12649 0.38444 0.35287 0.0
C576 C 0.64731 0.83923 0.31946 0.0
C577 C 0.65905 0.81803 0.30042 0.0
C578 C 0.71807 0.85535 0.32847 0.0
C579 C 0.70633 0.87648 0.34729 0.0
N580 N 0.6633 0.89491 0.35114 0.0
N581 N 0.70885 0.8136 0.27635 0.0
C582 C 0.67188 0.8702 0.3401 0.0
C583 C 0.69541 0.82848 0.30148 0.0
N584 N 0.61279 0.83024 0.31721 0.0
N585 N 0.75027 0.8597 0.33766 0.0
H586 H 0.69411 0.79412 0.25561 0.0
H587 H 0.73566 0.82318 0.27307 0.0
H588 H 0.76824 0.87961 0.35628 0.0
H589 H 0.75812 0.84184 0.32931 0.0
H590 H 0.60171 0.84157 0.33509 0.0
H591 H 0.59475 0.81058 0.29833 0.0
H592 H 0.63982 0.89371 0.34338 0.0
H593 H 0.68121 0.91866 0.3645 0.0
C594 C 0.17774 0.86944 0.34653 0.0
C595 C 0.14873 0.83559 0.35367 0.0
C596 C 0.18097 0.8084 0.32553 0.0
C597 C 0.20848 0.84212 0.31445 0.0
N598 N 0.2336 0.90504 0.31341 0.0
N599 N 0.12026 0.77275 0.346 0.0
C600 C 0.20696 0.87275 0.32462 0.0
C601 C 0.14973 0.80501 0.34227 0.0
N602 N 0.17797 0.8983 0.36226 0.0
N603 N 0.1848 0.77967 0.32041 0.0
H604 H 0.09676 0.76927 0.35767 0.0
H605 H 0.11797 0.74973 0.3344 0.0
H606 H 0.20703 0.78097 0.30769 0.0
H607 H 0.16731 0.75495 0.33175 0.0
H608 H 0.19984 0.92339 0.36221 0.0
H609 H 0.15685 0.89687 0.37807 0.0
H610 H 0.23212 0.92788 0.31499 0.0
H611 H 0.25702 0.90891 0.30109 0.0
C612 C 0.6801 0.8728 0.81719 0.0
C613 C 0.64639 0.84377 0.80874 0.0
C614 C 0.65992 0.80591 0.84958 0.0
C615 C 0.6951 0.83402 0.85454 0.0
N616 N 0.73974 0.89361 0.8394 0.0
N617 N 0.60677 0.78132 0.80983 0.0
C618 C 0.70559 0.86722 0.83694 0.0
C619 C 0.63695 0.80996 0.82306 0.0
N620 N 0.68714 0.906 0.80817 0.0
N621 N 0.64797 0.77534 0.87046 0.0
H622 H 0.58935 0.78306 0.79008 0.0
H623 H 0.60066 0.75559 0.81534 0.0
H624 H 0.66353 0.77014 0.88938 0.0
H625 H 0.62159 0.75602 0.87159 0.0
H626 H 0.70981 0.92862 0.81724 0.0
H627 H 0.66877 0.91116 0.79487 0.0
H628 H 0.74974 0.91681 0.82312 0.0
H629 H 0.75884 0.89163 0.8557 0.0
C630 C 0.19091 0.87238 0.81858 0.0
C631 C 0.17337 0.86596 0.85607 0.0
C632 C 0.1474 0.80228 0.84571 0.0
C633 C 0.16706 0.80881 0.80995 0.0
N634 N 0.20984 0.84981 0.76348 0.0
N635 N 0.13822 0.82477 0.90787 0.0
C636 C 0.18921 0.84379 0.79653 0.0
C637 C 0.15274 0.83092 0.87044 0.0
N638 N 0.20959 0.90586 0.80407 0.0
N639 N 0.12195 0.76876 0.85486 0.0
H640 H 0.13878 0.8442 0.92615 0.0
H641 H 0.12734 0.80049 0.92202 0.0
H642 H 0.11673 0.74704 0.83732 0.0
H643 H 0.10371 0.76267 0.87773 0.0
H644 H 0.21855 0.91182 0.7747 0.0
H645 H 0.21509 0.92809 0.82067 0.0
H646 H 0.23003 0.87444 0.75503 0.0
H647 H 0.20847 0.8298 0.74555 0.0
C648 C 0.18166 0.32959 0.86335 0.0
C649 C 0.14669 0.31649 0.84932 0.0
C650 C 0.16944 0.35672 0.79184 0.0
C651 C 0.20418 0.36755 0.80435 0.0
N652 N 0.24361 0.35948 0.84724 0.0
N653 N 0.10725 0.31509 0.79791 0.0
C654 C 0.21039 0.35279 0.83889 0.0
C655 C 0.14058 0.32913 0.8127 0.0
N656 N 0.18769 0.32017 0.90024 0.0
N657 N 0.16407 0.37395 0.76102 0.0
H658 H 0.08501 0.29682 0.8133 0.0
H659 H 0.10161 0.32001 0.76917 0.0
H660 H 0.1846 0.39455 0.74551 0.0
H661 H 0.13956 0.37008 0.7529 0.0
H662 H 0.21217 0.33254 0.91412 0.0
H663 H 0.16802 0.30163 0.91845 0.0
H664 H 0.2492 0.34602 0.86895 0.0
H665 H 0.26547 0.37631 0.83019 0.0
C666 C 0.82237 0.69002 0.67586 0.0
C667 C 0.83604 0.69514 0.63637 0.0
C668 C 0.85991 0.65635 0.65124 0.0
C669 C 0.8463 0.6514 0.69077 0.0
N670 N 0.82456 0.6732 0.74395 0.0
N671 N 0.85996 0.67535 0.58346 0.0
C672 C 0.83049 0.67102 0.70413 0.0
C673 C 0.85253 0.67608 0.6231 0.0
N674 N 0.79899 0.70077 0.68553 0.0
N675 N 0.88264 0.64477 0.6416 0.0
H676 H 0.85528 0.68886 0.56118 0.0
H677 H 0.86761 0.65828 0.57166 0.0
H678 H 0.89074 0.63239 0.66208 0.0
H679 H 0.89697 0.6512 0.61507 0.0
H680 H 0.78482 0.69405 0.7122 0.0
H681 H 0.79019 0.7125 0.66501 0.0
H682 H 0.81697 0.69045 0.75533 0.0
H683 H 0.83104 0.66131 0.76652 0.0
C684 C 0.35382 0.16502 0.69935 0.0
C685 C 0.3626 0.1998 0.68946 0.0
C686 C 0.32026 0.1777 0.63402 0.0
C687 C 0.31026 0.14276 0.64513 0.0
N688 N 0.31277 0.10275 0.69268 0.0
N689 N 0.35013 0.23932 0.65255 0.0
C690 C 0.32546 0.13629 0.67926 0.0
C691 C 0.34483 0.20622 0.65806 0.0
N692 N 0.37366 0.15954 0.7268 0.0
N693 N 0.30608 0.18358 0.60052 0.0
H694 H 0.36786 0.26087 0.66955 0.0
H695 H 0.33512 0.24512 0.63332 0.0
H696 H 0.28553 0.16348 0.58442 0.0
H697 H 0.31559 0.20823 0.58766 0.0
H698 H 0.37116 0.13512 0.7323 0.0
H699 H 0.39494 0.17995 0.74169 0.0
H700 H 0.32003 0.09673 0.7199 0.0
H701 H 0.29288 0.08079 0.67826 0.0
C702 C 0.83679 0.14263 0.64256 0.0
C703 C 0.8709 0.17056 0.65184 0.0
C704 C 0.84649 0.19295 0.7024 0.0
C705 C 0.81219 0.16613 0.69166 0.0
N706 N 0.7737 0.11701 0.64988 0.0
N707 N 0.90854 0.22497 0.68617 0.0
C708 C 0.80705 0.14148 0.66109 0.0
C709 C 0.87588 0.19636 0.68074 0.0
N710 N 0.8331 0.11671 0.61688 0.0
N711 N 0.85094 0.21502 0.73361 0.0
H712 H 0.93087 0.22797 0.67168 0.0
H713 H 0.91337 0.24686 0.70303 0.0
H714 H 0.83005 0.21516 0.74819 0.0
H715 H 0.87517 0.23207 0.74648 0.0
H716 H 0.80948 0.09388 0.61119 0.0
H717 H 0.85441 0.11681 0.60305 0.0
H718 H 0.7678 0.10054 0.62518 0.0
H719 H 0.75137 0.1144 0.66396 0.0
C720 C 0.97256 0.4788 0.49953 0.0
C721 C 0.98672 0.50854 0.47398 0.0
C722 C 0.04537 0.52844 0.50226 0.0
C723 C 0.03133 0.49858 0.52748 0.0
N724 N 0.97942 0.4505 0.55786 0.0
N725 N 0.03903 0.55599 0.44314 0.0
C726 C 0.99435 0.47522 0.52845 0.0
C727 C 0.02377 0.53171 0.47293 0.0
N728 N 0.93878 0.45226 0.49379 0.0
N729 N 0.07884 0.5554 0.50865 0.0
H730 H 0.02546 0.55989 0.42025 0.0
H731 H 0.06603 0.57011 0.43843 0.0
H732 H 0.09481 0.55524 0.53163 0.0
H733 H 0.08922 0.57975 0.49476 0.0
H734 H 0.92814 0.42792 0.50774 0.0
H735 H 0.92252 0.45271 0.47137 0.0
H736 H 0.95249 0.43617 0.56292 0.0
H737 H 0.99336 0.44634 0.5801 0.0
C738 C 0.48365 0.46849 0.51232 0.0
C739 C 0.50646 0.47351 0.47974 0.0
C740 C 0.53666 0.53736 0.49079 0.0
C741 C 0.51144 0.53234 0.52041 0.0
N742 N 0.4581 0.49409 0.5557 0.0
N743 N 0.55464 0.51227 0.4373 0.0
C744 C 0.4842 0.49813 0.53023 0.0
C745 C 0.5329 0.50789 0.46872 0.0
N746 N 0.46191 0.4355 0.52669 0.0
N747 N 0.56499 0.57009 0.48498 0.0
H748 H 0.55503 0.49129 0.42319 0.0
H749 H 0.57149 0.53645 0.42431 0.0
H750 H 0.56819 0.59235 0.4999 0.0
H751 H 0.58648 0.57509 0.46732 0.0
H752 H 0.44739 0.4305 0.55293 0.0
H753 H 0.46055 0.41308 0.51439 0.0
H754 H 0.43547 0.47015 0.56092 0.0
H755 H 0.45754 0.51531 0.56895 0.0
C756 C 0.53694 0.01482 0.50186 0.0
C757 C 0.52992 0.02863 0.46706 0.0
C758 C 0.46658 0.9899 0.47706 0.0
C759 C 0.47355 0.97837 0.51399 0.0
N760 N 0.51573 0.98417 0.56454 0.0
N761 N 0.48869 0.03337 0.42388 0.0
C762 C 0.50881 0.99224 0.52735 0.0
C763 C 0.49488 0.01713 0.45515 0.0
N764 N 0.57034 0.02171 0.5095 0.0
N765 N 0.43297 0.97519 0.46298 0.0
H766 H 0.50876 0.05357 0.40742 0.0
H767 H 0.46393 0.02908 0.41625 0.0
H768 H 0.41107 0.95731 0.47917 0.0
H769 H 0.42674 0.97919 0.43411 0.0
H770 H 0.5764 0.00886 0.53154 0.0
H771 H 0.59177 0.03784 0.49148 0.0
H772 H 0.5405 0.99722 0.57772 0.0
H773 H 0.49657 0.96624 0.58372 0.0
C774 C 0.47587 0.98973 0.97811 0.0
C775 C 0.50185 0.02603 0.97611 0.0
C776 C 0.54009 0.01566 0.02087 0.0
C777 C 0.51414 0.97934 0.0228 0.0
N778 N 0.4548 0.93322 0.00983 0.0
N779 N 0.56128 0.07206 0.98884 0.0
C780 C 0.48153 0.96667 0.00277 0.0
C781 C 0.53448 0.03868 0.99609 0.0
N782 N 0.44584 0.97686 0.95579 0.0
N783 N 0.57004 0.02856 0.04334 0.0
H784 H 0.55876 0.08997 0.97086 0.0
H785 H 0.58715 0.08137 0.99757 0.0
H786 H 0.57745 0.01297 0.05906 0.0
H787 H 0.58693 0.05518 0.04851 0.0
H788 H 0.42892 0.95026 0.95056 0.0
H789 H 0.43833 0.99248 0.94029 0.0
H790 H 0.42891 0.92388 0.00117 0.0
H791 H 0.4574 0.9152 0.02749 0.0
C792 C 0.99198 0.51118 0.96289 0.0
C793 C 0.97968 0.47634 0.97668 0.0
C794 C 0.0208 0.49919 0.03345 0.0
C795 C 0.03265 0.53394 0.02 0.0
N796 N 0.03305 0.57363 0.97001 0.0
N797 N 0.97926 0.4369 0.02721 0.0
C798 C 0.01929 0.54011 0.98411 0.0
C799 C 0.9931 0.47028 0.01268 0.0
N800 N 0.976 0.51661 0.93073 0.0
N801 N 0.03784 0.49385 0.06459 0.0
H802 H 0.96081 0.41467 0.01184 0.0
H803 H 0.98447 0.43103 0.05566 0.0
H804 H 0.05913 0.51429 0.07943 0.0
H805 H 0.0333 0.46934 0.07367 0.0
H806 H 0.98058 0.54106 0.92142 0.0
H807 H 0.95585 0.49628 0.91455 0.0
H808 H 0.02785 0.57992 0.9418 0.0
H809 H 0.05151 0.5957 0.98563 0.0
C810 C 0.54096 0.52543 0.02253 0.0
C811 C 0.53421 0.50646 0.98605 0.0
C812 C 0.47075 0.48278 0.99502 0.0
C813 C 0.4774 0.50018 0.03267 0.0
N814 N 0.51869 0.53394 0.08521 0.0
N815 N 0.49275 0.46303 0.9402 0.0
C816 C 0.51242 0.52008 0.04737 0.0
C817 C 0.49912 0.48421 0.97289 0.0
N818 N 0.57456 0.55024 0.03244 0.0
N819 N 0.43723 0.46444 0.98044 0.0
H820 H 0.51258 0.46344 0.92285 0.0
H821 H 0.46795 0.443 0.93188 0.0
H822 H 0.41512 0.45907 0.99714 0.0
H823 H 0.43121 0.45571 0.95095 0.0
H824 H 0.58075 0.56825 0.05566 0.0
H825 H 0.5964 0.55523 0.01541 0.0
H826 H 0.54287 0.54412 0.09953 0.0
H827 H 0.49942 0.53341 0.10369 0.0
C828 C 0.25181 0.06669 0.96749 0.0
C829 C 0.21564 0.04175 0.96296 0.0
C830 C 0.20042 0.08527 0.98682 0.0
C831 C 0.23649 0.10922 0.99478 0.0
N832 N 0.29569 0.11968 0.00042 0.0
N833 N 0.15515 0.02515 0.97329 0.0
C834 C 0.26203 0.0992 0.987 0.0
C835 C 0.18981 0.0505 0.97381 0.0
N836 N 0.27649 0.05963 0.95232 0.0
N837 N 0.17632 0.096 0.99066 0.0
H838 H 0.14637 0.99954 0.96355 0.0
H839 H 0.13528 0.02862 0.98537 0.0
H840 H 0.18273 0.1208 0.00105 0.0
H841 H 0.15049 0.08135 0.98073 0.0
H842 H 0.30309 0.07821 0.95077 0.0
H843 H 0.27006 0.03613 0.93786 0.0
H844 H 0.3144 0.11181 0.99959 0.0
H845 H 0.30417 0.14307 0.01609 0.0
C846 C 0.96327 0.14738 0.96646 0.0
C847 C 0.972 0.182 0.95589 0.0
C848 C 0.9143 0.17066 0.97892 0.0
C849 C 0.90459 0.13525 0.98707 0.0
N850 N 0.91743 0.08813 0.98198 0.0
N851 N 0.95379 0.2246 0.94432 0.0
C852 C 0.92843 0.1231 0.97896 0.0
C853 C 0.94688 0.19303 0.95981 0.0
N854 N 0.98862 0.13809 0.966 0.0
N855 N 0.89334 0.18359 0.99132 0.0
H856 H 0.9773 0.24168 0.93001 0.0
H857 H 0.9351 0.23243 0.94227 0.0
H858 H 0.86947 0.16847 0.0059 0.0
H859 H 0.90105 0.21014 0.99051 0.0
H860 H 0.98503 0.11463 0.97778 0.0
H861 H 0.01428 0.15503 0.95661 0.0
H862 H 0.93225 0.07705 0.97239 0.0
H863 H 0.89213 0.06956 0.99084 0.0
C864 C 0.84167 0.74832 0.98497 0.0
C865 C 0.87679 0.77392 0.99464 0.0
C866 C 0.86438 0.82076 0.97578 0.0
C867 C 0.83039 0.795 0.96293 0.0
N868 N 0.78864 0.7344 0.94851 0.0
N869 N 0.92308 0.83455 0.99467 0.0
C870 C 0.81964 0.75881 0.96553 0.0
C871 C 0.88855 0.81019 0.98884 0.0
N872 N 0.82861 0.7142 0.99644 0.0
N873 N 0.87313 0.85526 0.97689 0.0
H874 H 0.9414 0.82813 0.00516 0.0
H875 H 0.93419 0.86076 0.98636 0.0
H876 H 0.85632 0.86397 0.96698 0.0
H877 H 0.89586 0.8749 0.99035 0.0
H878 H 0.80219 0.6952 0.9942 0.0
H879 H 0.84335 0.70549 0.01197 0.0
H880 H 0.78115 0.708 0.94553 0.0
H881 H 0.77181 0.74101 0.93394 0.0
C882 C 0.06912 0.24743 0.53689 0.0
C883 C 0.04687 0.21138 0.54664 0.0
C884 C 0.09361 0.19928 0.52681 0.0
C885 C 0.11427 0.23454 0.5137 0.0
N886 N 0.11975 0.29096 0.5005 0.0
N887 N 0.03592 0.15197 0.54585 0.0
C888 C 0.1016 0.25833 0.51742 0.0
C889 C 0.05865 0.18701 0.54053 0.0
N890 N 0.05967 0.27164 0.54713 0.0
N891 N 0.10775 0.17781 0.52697 0.0
H892 H 0.01015 0.14202 0.55555 0.0
H893 H 0.0416 0.13251 0.53767 0.0
H894 H 0.13316 0.18599 0.51704 0.0
H895 H 0.09551 0.15299 0.53991 0.0
H896 H 0.07673 0.29863 0.546 0.0
H897 H 0.03562 0.26498 0.55983 0.0
H898 H 0.10954 0.30767 0.4974 0.0
H899 H 0.14389 0.30043 0.48628 0.0
C900 C 0.80718 0.84647 0.49416 0.0
C901 C 0.80277 0.83661 0.53509 0.0
C902 C 0.77877 0.87565 0.5468 0.0
C903 C 0.77729 0.88004 0.50477 0.0
N904 N 0.78088 0.85942 0.43852 0.0
N905 N 0.77621 0.83639 0.59885 0.0
C906 C 0.78899 0.86266 0.47836 0.0
C907 C 0.7864 0.84975 0.56121 0.0
N908 N 0.82937 0.8412 0.47039 0.0
N909 N 0.77416 0.89679 0.57312 0.0
H910 H 0.77907 0.8159 0.61007 0.0
H911 H 0.76129 0.84306 0.61725 0.0
H912 H 0.77065 0.91746 0.56399 0.0
H913 H 0.77798 0.89634 0.60389 0.0
H914 H 0.83514 0.85032 0.44099 0.0
H915 H 0.84527 0.83191 0.48168 0.0
H916 H 0.78685 0.84462 0.41898 0.0
H917 H 0.76409 0.86719 0.42626 0.0
C918 C 0.14377 0.95994 0.52493 0.0
C919 C 0.17935 0.97037 0.5329 0.0
C920 C 0.16974 0.91393 0.50727 0.0
C921 C 0.13354 0.90236 0.50244 0.0
N922 N 0.08473 0.91193 0.51237 0.0
N923 N 0.22429 0.95455 0.53994 0.0
C924 C 0.12013 0.9247 0.5129 0.0
C925 C 0.19179 0.94656 0.52644 0.0
N926 N 0.1329 0.98405 0.52723 0.0
N927 N 0.1835 0.89458 0.49186 0.0
H928 H 0.24096 0.97775 0.55509 0.0
H929 H 0.23329 0.93671 0.53979 0.0
H930 H 0.16846 0.87075 0.477 0.0
H931 H 0.21034 0.90372 0.49042 0.0
H932 H 0.10836 0.97911 0.51751 0.0
H933 H 0.14944 0.01005 0.53586 0.0
H934 H 0.07303 0.92569 0.5236 0.0
H935 H 0.0667 0.88626 0.50383 0.0
C936 C 0.78348 0.90961 0.04652 0.0
C937 C 0.77731 0.90248 0.00484 0.0
C938 C 0.80324 0.96558 0.99277 0.0
C939 C 0.80388 0.97211 0.03457 0.0
N940 N 0.78538 0.94688 0.10083 0.0
N941 N 0.77187 0.92407 0.9401 0.0
C942 C 0.79157 0.94322 0.06151 0.0
C943 C 0.78455 0.93057 0.97839 0.0
N944 N 0.78276 0.88493 0.07183 0.0
N945 N 0.8212 0.99256 0.96656 0.0
H946 H 0.75498 0.89888 0.92932 0.0
H947 H 0.77427 0.94386 0.92097 0.0
H948 H 0.83722 0.01844 0.97582 0.0
H949 H 0.82357 0.98847 0.93621 0.0
H950 H 0.79018 0.8902 0.10184 0.0
H951 H 0.7787 0.86069 0.06197 0.0
H952 H 0.77339 0.92564 0.12037 0.0
H953 H 0.78814 0.96997 0.11286 0.0
C954 C 0.07754 0.86408 0.98052 0.0
C955 C 0.10689 0.88265 0.00656 0.0
C956 C 0.06854 0.85258 0.06388 0.0
C957 C 0.03871 0.83739 0.03817 0.0
N958 N 0.01499 0.83836 0.97315 0.0
N959 N 0.1269 0.90183 0.07431 0.0
C960 C 0.04327 0.84626 0.9969 0.0
C961 C 0.10138 0.87917 0.04867 0.0
N962 N 0.08188 0.86125 0.94038 0.0
N963 N 0.06646 0.84046 0.102 0.0
H964 H 0.15044 0.92306 0.06446 0.0
H965 H 0.12283 0.90203 0.10506 0.0
H966 H 0.04383 0.81948 0.11389 0.0
H967 H 0.08845 0.84868 0.12021 0.0
H968 H 0.06117 0.84481 0.92156 0.0
H969 H 0.10609 0.8716 0.92633 0.0
H970 H 0.01745 0.84743 0.94382 0.0
H971 H 0.98943 0.82634 0.98399 0.0
C972 C 0.14904 0.22181 0.9762 0.0
C973 C 0.12997 0.23268 0.00128 0.0
C974 C 0.15796 0.22344 0.06011 0.0
C975 C 0.17376 0.20886 0.03529 0.0
N976 N 0.17527 0.18529 0.97027 0.0
N977 N 0.10888 0.23314 0.06807 0.0
C978 C 0.16643 0.20525 0.99356 0.0
C979 C 0.13215 0.23025 0.04355 0.0
N980 N 0.15259 0.22885 0.93605 0.0
N981 N 0.16878 0.23283 0.09879 0.0
H982 H 0.08812 0.23579 0.05721 0.0
H983 H 0.10765 0.22855 0.09881 0.0
H984 H 0.18912 0.23064 0.11172 0.0
H985 H 0.16024 0.2466 0.11656 0.0
H986 H 0.16959 0.22486 0.91795 0.0
H987 H 0.14199 0.24213 0.92126 0.0
H988 H 0.16711 0.17889 0.9406 0.0
H989 H 0.18724 0.1719 0.98164 0.0
C990 C 0.91989 0.80569 0.45407 0.0
C991 C 0.90611 0.78106 0.48577 0.0
C992 C 0.95632 0.77226 0.48098 0.0
C993 C 0.97325 0.80096 0.45388 0.0
N994 N 0.9728 0.85007 0.42174 0.0
N995 N 0.91702 0.74905 0.53706 0.0
C996 C 0.95547 0.81911 0.4421 0.0
C997 C 0.9262 0.76705 0.50176 0.0
N998 N 0.89925 0.81645 0.43559 0.0
N999 N 0.96741 0.74847 0.48551 0.0
H1000 H 0.89601 0.74598 0.55436 0.0
H1001 H 0.93282 0.74092 0.55131 0.0
H1002 H 0.98717 0.7486 0.46835 0.0
H1003 H 0.95366 0.72572 0.50253 0.0
H1004 H 0.90701 0.83194 0.4099 0.0
H1005 H 0.87328 0.80728 0.44396 0.0
H1006 H 0.96167 0.86563 0.41567 0.0
H1007 H 0.99943 0.8623 0.41497 0.0
C1008 C 0.25194 0.19009 0.46307 0.0
C1009 C 0.21562 0.17811 0.45866 0.0
C1010 C 0.20181 0.11911 0.47926 0.0
C1011 C 0.23776 0.13231 0.48852 0.0
N1012 N 0.29633 0.18205 0.49586 0.0
N1013 N 0.15541 0.13246 0.46695 0.0
C1014 C 0.26271 0.16823 0.48204 0.0
C1015 C 0.19033 0.14287 0.46774 0.0
N1016 N 0.27623 0.22203 0.44806 0.0
N1017 N 0.17886 0.08377 0.48027 0.0
H1018 H 0.14604 0.14907 0.45848 0.0
H1019 H 0.13592 0.10828 0.47766 0.0
H1020 H 0.18649 0.06557 0.48785 0.0
H1021 H 0.15309 0.07224 0.47007 0.0
H1022 H 0.30296 0.23059 0.44672 0.0
H1023 H 0.26939 0.23851 0.43312 0.0
H1024 H 0.31434 0.20886 0.49611 0.0
H1025 H 0.30542 0.16733 0.51069 0.0
C1026 C 0.87031 0.05318 0.47171 0.0
C1027 C 0.83371 0.0407 0.47613 0.0
C1028 C 0.84709 0.09786 0.50419 0.0
C1029 C 0.88343 0.10989 0.50071 0.0
N1030 N 0.93041 0.09865 0.486 0.0
N1031 N 0.78821 0.04873 0.50737 0.0
C1032 C 0.89526 0.0874 0.48583 0.0
C1033 C 0.82232 0.06222 0.49555 0.0
N1034 N 0.88121 0.03198 0.45464 0.0
N1035 N 0.83601 0.12064 0.51555 0.0
H1036 H 0.76825 0.02328 0.50189 0.0
H1037 H 0.77994 0.06199 0.52633 0.0
H1038 H 0.85296 0.14639 0.52462 0.0
H1039 H 0.81008 0.11489 0.51309 0.0
H1040 H 0.90681 0.0407 0.44528 0.0
H1041 H 0.86438 0.00535 0.44914 0.0
H1042 H 0.94092 0.08257 0.48005 0.0
H1043 H 0.9494 0.12412 0.49403 0.0
C1044 C 0.89693 0.41479 0.3541 0.0
C1045 C 0.89554 0.44058 0.33003 0.0
C1046 C 0.86157 0.39517 0.27929 0.0
C1047 C 0.86598 0.37036 0.30223 0.0
N1048 N 0.86833 0.35337 0.37042 0.0
N1049 N 0.87593 0.4558 0.26982 0.0
C1050 C 0.87789 0.37912 0.34237 0.0
C1051 C 0.87766 0.43091 0.29256 0.0
N1052 N 0.91799 0.42436 0.38725 0.0
N1053 N 0.8388 0.38381 0.24763 0.0
H1054 H 0.88428 0.48116 0.28006 0.0
H1055 H 0.86764 0.45201 0.24012 0.0
H1056 H 0.82164 0.35731 0.242 0.0
H1057 H 0.83288 0.39986 0.23049 0.0
H1058 H 0.92241 0.4067 0.40342 0.0
H1059 H 0.93416 0.4504 0.39591 0.0
H1060 H 0.87424 0.35866 0.40078 0.0
H1061 H 0.84972 0.32725 0.36461 0.0
C1062 C 0.59109 0.44624 0.31392 0.0
C1063 C 0.56924 0.45984 0.32582 0.0
C1064 C 0.61502 0.51901 0.30676 0.0
C1065 C 0.63819 0.50604 0.29812 0.0
N1066 N 0.65008 0.45821 0.29903 0.0
N1067 N 0.562 0.50975 0.33939 0.0
C1068 C 0.62665 0.46981 0.30295 0.0
C1069 C 0.58154 0.49633 0.32358 0.0
N1070 N 0.57751 0.41072 0.31215 0.0
N1071 N 0.62451 0.55292 0.29792 0.0
H1072 H 0.53716 0.49432 0.35178 0.0
H1073 H 0.57154 0.53647 0.34355 0.0
H1074 H 0.64923 0.57121 0.28761 0.0
H1075 H 0.60704 0.56237 0.29789 0.0
H1076 H 0.59082 0.39894 0.29985 0.0
H1077 H 0.55163 0.39282 0.31994 0.0
H1078 H 0.64435 0.43292 0.3064 0.0
H1079 H 0.67635 0.47472 0.29157 0.0
C1080 C 0.558 0.14057 0.30908 0.0
C1081 C 0.54584 0.1039 0.31003 0.0
C1082 C 0.49236 0.09307 0.27511 0.0
C1083 C 0.50145 0.12842 0.28154 0.0
N1084 N 0.54249 0.18626 0.30577 0.0
N1085 N 0.49789 0.04455 0.29953 0.0
C1086 C 0.53425 0.15239 0.29875 0.0
C1087 C 0.51222 0.07988 0.29409 0.0
N1088 N 0.59253 0.16412 0.31645 0.0
N1089 N 0.46492 0.07215 0.25054 0.0
H1090 H 0.51001 0.03342 0.31586 0.0
H1091 H 0.47219 0.02641 0.2915 0.0
H1092 H 0.44974 0.08101 0.23622 0.0
H1093 H 0.45945 0.04722 0.24152 0.0
H1094 H 0.60348 0.1911 0.31288 0.0
H1095 H 0.61113 0.15653 0.32184 0.0
H1096 H 0.56419 0.20389 0.32255 0.0
H1097 H 0.52638 0.19607 0.29671 0.0
C1098 C 0.72548 0.52848 0.88541 0.0
C1099 C 0.70817 0.54757 0.87583 0.0
C1100 C 0.75574 0.58362 0.82939 0.0
C1101 C 0.77519 0.568 0.84299 0.0
N1102 N 0.78124 0.52998 0.89012 0.0
N1103 N 0.71433 0.60145 0.84886 0.0
C1104 C 0.76098 0.54192 0.87316 0.0
C1105 C 0.72543 0.57753 0.85072 0.0
N1106 N 0.70774 0.49669 0.90405 0.0
N1107 N 0.76564 0.60378 0.7957 0.0
H1108 H 0.69464 0.60023 0.86728 0.0
H1109 H 0.72792 0.62498 0.83315 0.0
H1110 H 0.78651 0.60709 0.77796 0.0
H1111 H 0.75055 0.61349 0.78301 0.0
H1112 H 0.71841 0.48049 0.90837 0.0
H1113 H 0.68116 0.48465 0.91109 0.0
H1114 H 0.77315 0.51321 0.91473 0.0
H1115 H 0.80733 0.53956 0.88198 0.0
C1116 C 0.47796 0.21854 0.84351 0.0
C1117 C 0.44173 0.20691 0.83775 0.0
C1118 C 0.42633 0.1492 0.86485 0.0
C1119 C 0.46249 0.15993 0.8676 0.0
N1120 N 0.52284 0.20273 0.85443 0.0
N1121 N 0.38202 0.15878 0.83428 0.0
C1122 C 0.48838 0.19408 0.85562 0.0
C1123 C 0.41603 0.17159 0.84615 0.0
N1124 N 0.50238 0.25315 0.83855 0.0
N1125 N 0.40178 0.11798 0.88116 0.0
H1126 H 0.37342 0.17386 0.81929 0.0
H1127 H 0.36305 0.13229 0.83556 0.0
H1128 H 0.40825 0.10091 0.89536 0.0
H1129 H 0.37539 0.11053 0.88399 0.0
H1130 H 0.52855 0.26406 0.84699 0.0
H1131 H 0.49606 0.27168 0.82857 0.0
H1132 H 0.54257 0.22571 0.8416 0.0
H1133 H 0.53144 0.18563 0.86354 0.0
C1134 C 0.81135 0.29088 0.86126 0.0
C1135 C 0.84648 0.30067 0.8707 0.0
C1136 C 0.83559 0.24257 0.84949 0.0
C1137 C 0.79975 0.23187 0.84267 0.0
N1138 N 0.75209 0.24384 0.84795 0.0
N1139 N 0.8905 0.28414 0.88117 0.0
C1140 C 0.78723 0.2555 0.85023 0.0
C1141 C 0.85815 0.27599 0.86697 0.0
N1142 N 0.80138 0.31573 0.86136 0.0
N1143 N 0.84864 0.22164 0.83733 0.0
H1144 H 0.90779 0.30831 0.89415 0.0
H1145 H 0.89897 0.26595 0.88343 0.0
H1146 H 0.8333 0.19715 0.82398 0.0
H1147 H 0.87531 0.22984 0.8371 0.0
H1148 H 0.77737 0.3113 0.85035 0.0
H1149 H 0.81822 0.34179 0.86958 0.0
H1150 H 0.74078 0.25851 0.85734 0.0
H1151 H 0.73371 0.21824 0.83978 0.0
C1152 C 0.41875 0.24281 0.34371 0.0
C1153 C 0.44374 0.23163 0.33962 0.0
C1154 C 0.4903 0.2893 0.36289 0.0
C1155 C 0.46473 0.29931 0.37021 0.0
N1156 N 0.40372 0.28304 0.37537 0.0
N1157 N 0.50216 0.24178 0.35069 0.0
C1158 C 0.42868 0.27534 0.36279 0.0
C1159 C 0.47926 0.25421 0.35072 0.0
N1160 N 0.38585 0.22302 0.32789 0.0
N1161 N 0.52516 0.31367 0.36596 0.0
H1162 H 0.49483 0.21623 0.34204 0.0
H1163 H 0.52747 0.25569 0.36232 0.0
H1164 H 0.53421 0.33958 0.37467 0.0
H1165 H 0.54511 0.30906 0.3568 0.0
H1166 H 0.36789 0.23179 0.32585 0.0
H1167 H 0.3775 0.1991 0.31339 0.0
H1168 H 0.37692 0.26506 0.3746 0.0
H1169 H 0.40978 0.30622 0.39031 0.0
C1170 C 0.72642 0.14983 0.34253 0.0
C1171 C 0.70418 0.16216 0.35795 0.0
C1172 C 0.75132 0.22316 0.34626 0.0
C1173 C 0.774 0.21059 0.33422 0.0
N1174 N 0.78512 0.16257 0.3258 0.0
N1175 N 0.69503 0.21059 0.37358 0.0
C1176 C 0.76213 0.17417 0.33393 0.0
C1177 C 0.71664 0.1989 0.35973 0.0
N1178 N 0.71359 0.11498 0.33453 0.0
N1179 N 0.7629 0.25834 0.3442 0.0
H1180 H 0.6683 0.19407 0.37863 0.0
H1181 H 0.70344 0.2366 0.38086 0.0
H1182 H 0.78868 0.27695 0.33697 0.0
H1183 H 0.74695 0.26931 0.34798 0.0
H1184 H 0.72704 0.10571 0.31741 0.0
H1185 H 0.68871 0.09493 0.34199 0.0
H1186 H 0.77959 0.13702 0.33135 0.0
H1187 H 0.81077 0.17881 0.31607 0.0
C1188 C 0.85724 0.58444 0.37817 0.0
C1189 C 0.84638 0.54828 0.38112 0.0
C1190 C 0.78737 0.53323 0.35858 0.0
C1191 C 0.79971 0.56924 0.3504 0.0
N1192 N 0.84836 0.6287 0.34635 0.0
N1193 N 0.80217 0.48781 0.37108 0.0
C1194 C 0.83511 0.59483 0.35888 0.0
C1195 C 0.81163 0.52249 0.37071 0.0
N1196 N 0.88849 0.6089 0.39459 0.0
N1197 N 0.75231 0.50947 0.35583 0.0
H1198 H 0.81904 0.47904 0.3806 0.0
H1199 H 0.77857 0.46798 0.35941 0.0
H1200 H 0.73377 0.51652 0.34778 0.0
H1201 H 0.74119 0.48349 0.36505 0.0
H1202 H 0.89619 0.63539 0.39708 0.0
H1203 H 0.90523 0.60222 0.40927 0.0
H1204 H 0.87494 0.6474 0.34766 0.0
H1205 H 0.83352 0.63745 0.33112 0.0
C1206 C 0.57483 0.11044 0.7829 0.0
C1207 C 0.56776 0.10462 0.82458 0.0
C1208 C 0.63072 0.13044 0.83696 0.0
C1209 C 0.63725 0.1308 0.79522 0.0
N1210 N 0.61191 0.1115 0.72898 0.0
N1211 N 0.58922 0.09886 0.88927 0.0
C1212 C 0.60837 0.11825 0.76814 0.0
C1213 C 0.59577 0.11173 0.85112 0.0
N1214 N 0.55018 0.10959 0.7574 0.0
N1215 N 0.6576 0.14858 0.86333 0.0
H1216 H 0.564 0.0817 0.89966 0.0
H1217 H 0.609 0.10129 0.90848 0.0
H1218 H 0.68346 0.16468 0.85423 0.0
H1219 H 0.65339 0.15101 0.89363 0.0
H1220 H 0.55546 0.11675 0.72735 0.0
H1221 H 0.52596 0.10565 0.7671 0.0
H1222 H 0.59063 0.09939 0.70943 0.0
H1223 H 0.63488 0.11387 0.71718 0.0
C1224 C 0.87863 0.47472 0.85043 0.0
C1225 C 0.89361 0.45924 0.82539 0.0
C1226 C 0.88877 0.4918 0.7682 0.0
C1227 C 0.87092 0.50434 0.7926 0.0
N1228 N 0.83808 0.49659 0.85313 0.0
N1229 N 0.90062 0.44441 0.75736 0.0
C1230 C 0.86233 0.49212 0.83246 0.0
C1231 C 0.89494 0.46511 0.78328 0.0
N1232 N 0.88165 0.47528 0.89121 0.0
N1233 N 0.90148 0.50627 0.73151 0.0
H1234 H 0.90208 0.42259 0.76667 0.0
H1235 H 0.89914 0.44617 0.72635 0.0
H1236 H 0.89896 0.5268 0.71976 0.0
H1237 H 0.91764 0.50016 0.71462 0.0
H1238 H 0.87381 0.48931 0.90956 0.0
H1239 H 0.89558 0.46583 0.90681 0.0
H1240 H 0.82876 0.48556 0.88125 0.0
H1241 H 0.82418 0.5074 0.83991 0.0
C1242 C 0.54542 0.43229 0.7924 0.0
C1243 C 0.5496 0.43681 0.83465 0.0
C1244 C 0.51344 0.37284 0.84194 0.0
C1245 C 0.50366 0.36947 0.80091 0.0
N1246 N 0.50551 0.39906 0.73902 0.0
N1247 N 0.53057 0.4098 0.90036 0.0
C1248 C 0.51842 0.39998 0.77649 0.0
C1249 C 0.5319 0.40668 0.85972 0.0
N1250 N 0.56785 0.4583 0.76722 0.0
N1251 N 0.50588 0.34383 0.86406 0.0
H1252 H 0.54218 0.43347 0.91577 0.0
H1253 H 0.51447 0.38863 0.91869 0.0
H1254 H 0.49333 0.31858 0.85218 0.0
H1255 H 0.51566 0.34532 0.89289 0.0
H1256 H 0.5674 0.45497 0.73624 0.0
H1257 H 0.58958 0.48133 0.77746 0.0
H1258 H 0.51349 0.4216 0.72191 0.0
H1259 H 0.48414 0.37684 0.72685 0.0
C1260 C 0.52428 0.71694 0.63219 0.0
C1261 C 0.54986 0.7063 0.63081 0.0
C1262 C 0.59283 0.76209 0.6626 0.0
C1263 C 0.56862 0.77424 0.65943 0.0
N1264 N 0.51165 0.76427 0.64026 0.0
N1265 N 0.60992 0.72019 0.64225 0.0
C1266 C 0.53442 0.75191 0.64396 0.0
C1267 C 0.58447 0.72919 0.64552 0.0
N1268 N 0.48985 0.69298 0.62471 0.0
N1269 N 0.62326 0.78124 0.68383 0.0
H1270 H 0.60525 0.69575 0.63278 0.0
H1271 H 0.63651 0.7379 0.64654 0.0
H1272 H 0.63057 0.80554 0.69677 0.0
H1273 H 0.63982 0.77173 0.69187 0.0
H1274 H 0.46935 0.69794 0.62929 0.0
H1275 H 0.48116 0.66682 0.61755 0.0
H1276 H 0.48812 0.75131 0.62448 0.0
H1277 H 0.51734 0.78866 0.65129 0.0
C1278 C 0.26576 0.81224 0.68372 0.0
C1279 C 0.23509 0.79568 0.65901 0.0
C1280 C 0.27145 0.82813 0.60127 0.0
C1281 C 0.30222 0.84144 0.62518 0.0
N1282 N 0.32848 0.83588 0.68615 0.0
N1283 N 0.21279 0.77955 0.59129 0.0
C1284 C 0.29932 0.83023 0.66543 0.0
C1285 C 0.23909 0.80108 0.61685 0.0
N1286 N 0.26352 0.81295 0.72453 0.0
N1287 N 0.27238 0.84217 0.56453 0.0
H1288 H 0.18993 0.75739 0.60091 0.0
H1289 H 0.2158 0.78104 0.56025 0.0
H1290 H 0.29489 0.86332 0.55263 0.0
H1291 H 0.24976 0.83526 0.54793 0.0
H1292 H 0.28534 0.82795 0.74263 0.0
H1293 H 0.2402 0.80238 0.74046 0.0
H1294 H 0.32715 0.82528 0.71444 0.0
H1295 H 0.35338 0.84735 0.67325 0.0
C1296 C 0.1835 0.41399 0.64245 0.0
C1297 C 0.21958 0.43901 0.64801 0.0
C1298 C 0.20851 0.48623 0.62726 0.0
C1299 C 0.17291 0.46092 0.6198 0.0
N1300 N 0.12852 0.40024 0.61093 0.0
N1301 N 0.26788 0.49776 0.63857 0.0
C1302 C 0.16105 0.42464 0.62451 0.0
C1303 C 0.23253 0.47483 0.63824 0.0
N1304 N 0.17009 0.3805 0.65642 0.0
N1305 N 0.21906 0.52115 0.62544 0.0
H1306 H 0.28615 0.49018 0.64599 0.0
H1307 H 0.27929 0.52341 0.62809 0.0
H1308 H 0.20231 0.53037 0.61699 0.0
H1309 H 0.2436 0.5409 0.635 0.0
H1310 H 0.14331 0.3625 0.65761 0.0
H1311 H 0.18529 0.37149 0.67028 0.0
H1312 H 0.11975 0.37345 0.60979 0.0
H1313 H 0.11155 0.40703 0.59705 0.0
C1314 C 0.40884 0.88931 0.23143 0.0
C1315 C 0.37934 0.87534 0.20522 0.0
C1316 C 0.41916 0.89114 0.14815 0.0
C1317 C 0.44791 0.89988 0.17426 0.0
N1318 N 0.46694 0.8978 0.24173 0.0
N1319 N 0.35694 0.85337 0.13879 0.0
C1320 C 0.44187 0.89609 0.21626 0.0
C1321 C 0.38462 0.87314 0.16363 0.0
N1322 N 0.40632 0.89826 0.26999 0.0
N1323 N 0.42456 0.902 0.1092 0.0
H1324 H 0.33139 0.83765 0.14926 0.0
H1325 H 0.36025 0.84927 0.10869 0.0
H1326 H 0.44939 0.91903 0.09774 0.0
H1327 H 0.40415 0.89819 0.09018 0.0
H1328 H 0.42811 0.9114 0.28867 0.0
H1329 H 0.38366 0.89661 0.28182 0.0
H1330 H 0.46233 0.8923 0.27222 0.0
H1331 H 0.49062 0.90051 0.23182 0.0
C1332 C 0.15551 0.53488 0.19637 0.0
C1333 C 0.13008 0.50017 0.20726 0.0
C1334 C 0.08303 0.51005 0.1832 0.0
C1335 C 0.10816 0.54563 0.1751 0.0
N1336 N 0.16782 0.59354 0.17966 0.0
N1337 N 0.06943 0.45691 0.21891 0.0
C1338 C 0.1443 0.55851 0.18329 0.0
C1339 C 0.09377 0.48841 0.20298 0.0
N1340 N 0.19032 0.54484 0.19699 0.0
N1341 N 0.04922 0.49628 0.17009 0.0
H1342 H 0.07622 0.44055 0.23421 0.0
H1343 H 0.04277 0.44859 0.22047 0.0
H1344 H 0.04021 0.51085 0.15479 0.0
H1345 H 0.03089 0.46957 0.17092 0.0
H1346 H 0.20991 0.56833 0.18492 0.0
H1347 H 0.19951 0.52843 0.20686 0.0
H1348 H 0.19372 0.60519 0.18944 0.0
H1349 H 0.16076 0.6116 0.16983 0.0
C1350 C 0.50037 0.63242 0.17088 0.0
C1351 C 0.5106 0.63773 0.21178 0.0
C1352 C 0.46822 0.57541 0.22386 0.0
C1353 C 0.46355 0.56911 0.18185 0.0
N1354 N 0.48448 0.59281 0.11518 0.0
N1355 N 0.50853 0.61106 0.27597 0.0
C1356 C 0.48208 0.59791 0.15522 0.0
C1357 C 0.49562 0.6084 0.23814 0.0
N1358 N 0.50751 0.66022 0.14674 0.0
N1359 N 0.44595 0.5506 0.25028 0.0
H1360 H 0.52981 0.63384 0.28725 0.0
H1361 H 0.50049 0.58937 0.29459 0.0
H1362 H 0.42419 0.5271 0.24121 0.0
H1363 H 0.44667 0.55529 0.28099 0.0
H1364 H 0.49763 0.65713 0.11769 0.0
H1365 H 0.51957 0.68595 0.15713 0.0
H1366 H 0.50067 0.61322 0.09596 0.0
H1367 H 0.47432 0.56832 0.10174 0.0
C1368 C 0.10475 0.61748 0.67326 0.0
C1369 C 0.13528 0.63733 0.69744 0.0
C1370 C 0.14723 0.58832 0.69432 0.0
C1371 C 0.11842 0.57008 0.66796 0.0
N1372 N 0.07454 0.57061 0.62518 0.0
N1373 N 0.19024 0.64464 0.7219 0.0
C1374 C 0.09883 0.58579 0.6551 0.0
C1375 C 0.15781 0.62354 0.7056 0.0
N1376 N 0.08 0.62741 0.66918 0.0
N1377 N 0.16448 0.57202 0.70863 0.0
H1378 H 0.2 0.67115 0.72811 0.0
H1379 H 0.209 0.637 0.72506 0.0
H1380 H 0.15829 0.54683 0.69967 0.0
H1381 H 0.18314 0.58247 0.7314 0.0
H1382 H 0.05536 0.61122 0.65664 0.0
H1383 H 0.08202 0.65004 0.68136 0.0
H1384 H 0.06291 0.58325 0.61089 0.0
H1385 H 0.06822 0.54669 0.61206 0.0
C1386 C 0.40366 0.48633 0.68802 0.0
C1387 C 0.38135 0.49968 0.69977 0.0
C1388 C 0.43011 0.55984 0.68921 0.0
C1389 C 0.45112 0.54621 0.67442 0.0
N1390 N 0.45641 0.49655 0.65369 0.0
N1391 N 0.37159 0.54884 0.70454 0.0
C1392 C 0.43757 0.5095 0.6724 0.0
C1393 C 0.39418 0.53642 0.69876 0.0
N1394 N 0.39306 0.45158 0.69276 0.0
N1395 N 0.44476 0.59522 0.69469 0.0
H1396 H 0.3449 0.53254 0.71012 0.0
H1397 H 0.37845 0.5749 0.70005 0.0
H1398 H 0.47089 0.61301 0.68774 0.0
H1399 H 0.43205 0.60669 0.70922 0.0
H1400 H 0.40996 0.44153 0.69049 0.0
H1401 H 0.36806 0.43284 0.70183 0.0
H1402 H 0.44601 0.47021 0.64618 0.0
H1403 H 0.48166 0.5124 0.6425 0.0
C1404 C 0.49253 0.89128 0.7236 0.0
C1405 C 0.50809 0.8768 0.69827 0.0
C1406 C 0.48087 0.88782 0.64018 0.0
C1407 C 0.46172 0.89802 0.66598 0.0
N1408 N 0.44239 0.89895 0.7336 0.0
N1409 N 0.50812 0.85246 0.63314 0.0
C1410 C 0.4654 0.89656 0.70814 0.0
C1411 C 0.49947 0.87231 0.65683 0.0
N1412 N 0.50478 0.90207 0.76159 0.0
N1413 N 0.48329 0.89447 0.59995 0.0
H1414 H 0.52093 0.83975 0.64392 0.0
H1415 H 0.49902 0.84544 0.60383 0.0
H1416 H 0.47175 0.90703 0.58554 0.0
H1417 H 0.50031 0.89096 0.58131 0.0
H1418 H 0.49615 0.91566 0.77956 0.0
H1419 H 0.52632 0.9014 0.77343 0.0
H1420 H 0.44245 0.89509 0.76441 0.0
H1421 H 0.42072 0.90039 0.72361 0.0
C1422 C 0.2565 0.47703 0.15323 0.0
C1423 C 0.23381 0.4413 0.16345 0.0
C1424 C 0.27805 0.42689 0.14058 0.0
C1425 C 0.30221 0.46313 0.13485 0.0
N1426 N 0.31616 0.52338 0.14001 0.0
N1427 N 0.22515 0.3831 0.17329 0.0
C1428 C 0.29187 0.48844 0.14215 0.0
C1429 C 0.24509 0.4164 0.15872 0.0
N1430 N 0.2439 0.49981 0.15296 0.0
N1431 N 0.2861 0.40232 0.12741 0.0
H1432 H 0.20093 0.37418 0.18714 0.0
H1433 H 0.23406 0.36524 0.17504 0.0
H1434 H 0.30961 0.40886 0.11308 0.0
H1435 H 0.26816 0.3755 0.12699 0.0
H1436 H 0.25801 0.52531 0.142 0.0
H1437 H 0.21804 0.49221 0.16037 0.0
H1438 H 0.31125 0.54312 0.14929 0.0
H1439 H 0.34221 0.53265 0.13183 0.0
C1440 C 0.52608 0.81105 0.14527 0.0
C1441 C 0.55193 0.84399 0.13006 0.0
C1442 C 0.59819 0.83092 0.1479 0.0
C1443 C 0.57222 0.79663 0.15983 0.0
N1444 N 0.51109 0.75248 0.16612 0.0
N1445 N 0.6118 0.8832 0.11028 0.0
C1446 C 0.53602 0.78626 0.15755 0.0
C1447 C 0.58776 0.85327 0.12937 0.0
N1448 N 0.49223 0.80397 0.14921 0.0
N1449 N 0.63277 0.84303 0.15651 0.0
H1450 H 0.60523 0.90038 0.09651 0.0
H1451 H 0.63758 0.88938 0.10492 0.0
H1452 H 0.64163 0.82816 0.17148 0.0
H1453 H 0.65236 0.86904 0.15257 0.0
H1454 H 0.47288 0.78222 0.16437 0.0
H1455 H 0.48395 0.82124 0.13978 0.0
H1456 H 0.48445 0.74211 0.16045 0.0
H1457 H 0.5172 0.73389 0.17644 0.0
C1458 C 0.21617 0.76789 0.11893 0.0
C1459 C 0.21675 0.77464 0.16063 0.0
C1460 C 0.17583 0.71223 0.17165 0.0
C1461 C 0.17059 0.70638 0.12967 0.0
N1462 N 0.18015 0.73291 0.06374 0.0
N1463 N 0.18726 0.75401 0.22433 0.0
C1464 C 0.18925 0.73534 0.10322 0.0
C1465 C 0.19377 0.74705 0.18639 0.0
N1466 N 0.24166 0.79184 0.09434 0.0
N1467 N 0.16479 0.68484 0.19772 0.0
H1468 H 0.19693 0.77945 0.2351 0.0
H1469 H 0.16847 0.73471 0.24287 0.0
H1470 H 0.15384 0.65887 0.18841 0.0
H1471 H 0.17068 0.68849 0.22823 0.0
H1472 H 0.24386 0.78655 0.06435 0.0
H1473 H 0.26273 0.81525 0.10482 0.0
H1474 H 0.19125 0.75445 0.04455 0.0
H1475 H 0.15874 0.71094 0.05127 0.0
C1476 C 0.32405 0.3114 0.1226 0.0
C1477 C 0.32202 0.30183 0.08122 0.0
C1478 C 0.36296 0.36359 0.06552 0.0
C1479 C 0.36056 0.37346 0.10536 0.0
N1480 N 0.33006 0.35642 0.16877 0.0
N1481 N 0.33131 0.32264 0.01254 0.0
C1482 C 0.33862 0.34733 0.1331 0.0
C1483 C 0.33919 0.32897 0.05236 0.0
N1484 N 0.31358 0.28696 0.15241 0.0
N1485 N 0.38833 0.38691 0.04031 0.0
H1486 H 0.31107 0.29893 0.00158 0.0
H1487 H 0.34149 0.34253 0.99114 0.0
H1488 H 0.40753 0.41193 0.04947 0.0
H1489 H 0.39268 0.37983 0.01195 0.0
H1490 H 0.31823 0.29387 0.18261 0.0
H1491 H 0.30401 0.26038 0.14776 0.0
H1492 H 0.3112 0.33802 0.18801 0.0
H1493 H 0.33855 0.3823 0.17705 0.0
C1494 C 0.65197 0.99793 0.05447 0.0
C1495 C 0.64253 0.99381 0.09586 0.0
C1496 C 0.70458 0.03173 0.1127 0.0
C1497 C 0.71405 0.0305 0.07233 0.0
N1498 N 0.69569 1.00335 0.00703 0.0
N1499 N 0.66273 0.99954 0.16462 0.0
C1500 C 0.68749 0.01101 0.04378 0.0
C1501 C 0.66959 0.00872 0.1252 0.0
N1502 N 0.62771 0.99082 0.02505 0.0
N1503 N 0.7285 0.0555 0.13893 0.0
H1504 H 0.63836 0.98017 0.17499 0.0
H1505 H 0.6825 0.00792 0.18615 0.0
H1506 H 0.75373 0.07442 0.13023 0.0
H1507 H 0.72182 0.05908 0.16783 0.0
H1508 H 0.63463 0.99666 0.99499 0.0
H1509 H 0.60166 0.98331 0.03055 0.0
H1510 H 0.67662 0.98638 0.98684 0.0
H1511 H 0.72115 0.0103 0.9986 0.0
C1512 C 0.99237 0.68384 0.11269 0.0
C1513 C 0.98613 0.688 0.07155 0.0
C1514 C 0.01035 0.65041 0.053 0.0
C1515 C 0.02148 0.65116 0.09306 0.0
N1516 N 0.03139 0.67793 0.15866 0.0
N1517 N 1.00028 0.68327 0.00233 0.0
C1518 C 0.01495 0.67059 0.12227 0.0
C1519 C 0.99822 0.67355 0.04152 0.0
N1520 N 0.9759 0.69089 0.14299 0.0
N1521 N 0.01016 0.62692 0.02609 0.0
H1522 H 0.99543 0.70295 0.99277 0.0
H1523 H 0.01149 0.67517 0.98027 0.0
H1524 H 0.01649 0.60787 0.03405 0.0
H1525 H 0.99959 0.62369 0.99739 0.0
H1526 H 0.97753 0.68483 0.17282 0.0
H1527 H 0.95742 0.69865 0.13864 0.0
H1528 H 0.0298 0.69489 0.17933 0.0
H1529 H 0.04985 0.6707 0.16628 0.0
C1530 C 0.33175 0.33787 0.45693 0.0
C1531 C 0.30479 0.32709 0.42778 0.0
C1532 C 0.3493 0.34675 0.37498 0.0
C1533 C 0.37631 0.36185 0.40426 0.0
N1534 N 0.39112 0.38197 0.47277 0.0
N1535 N 0.29033 0.33312 0.35939 0.0
C1536 C 0.36695 0.36054 0.44521 0.0
C1537 C 0.31423 0.33508 0.38682 0.0
N1538 N 0.32449 0.32536 0.49521 0.0
N1539 N 0.35638 0.3418 0.33646 0.0
H1540 H 0.26544 0.32821 0.36761 0.0
H1541 H 0.29695 0.34111 0.32973 0.0
H1542 H 0.3811 0.34718 0.32691 0.0
H1543 H 0.33664 0.3283 0.31531 0.0
H1544 H 0.34417 0.33086 0.51617 0.0
H1545 H 0.29963 0.30618 0.50458 0.0
H1546 H 0.38458 0.3834 0.50249 0.0
H1547 H 0.41619 0.40158 0.46461 0.0
C1548 C 0.62972 0.98 0.40852 0.0
C1549 C 0.64825 0.01705 0.40365 0.0
C1550 C 0.70301 0.01967 0.42455 0.0
C1551 C 0.68468 0.98262 0.42935 0.0
N1552 N 0.63185 0.9267 0.42114 0.0
N1553 N 0.70065 0.07287 0.41751 0.0
C1554 C 0.64824 0.96255 0.42048 0.0
C1555 C 0.68427 0.03707 0.4147 0.0
N1556 N 0.59401 0.96182 0.4042 0.0
N1557 N 0.7388 0.03847 0.42774 0.0
H1558 H 0.68936 0.08774 0.4094 0.0
H1559 H 0.72489 0.08811 0.43134 0.0
H1560 H 0.75403 0.02783 0.43688 0.0
H1561 H 0.75398 0.06434 0.41819 0.0
H1562 H 0.57816 0.93548 0.41145 0.0
H1563 H 0.57951 0.97375 0.3964 0.0
H1564 H 0.60662 0.91023 0.41039 0.0
H1565 H 0.64436 0.91298 0.42986 0.0
C1566 C 0.99901 0.69451 0.39569 0.0
C1567 C 0.02988 0.70954 0.42002 0.0
C1568 C 0.02426 0.65154 0.42605 0.0
C1569 C 0.99641 0.63775 0.3979 0.0
N1570 N 0.96166 0.64796 0.34979 0.0
N1571 N 0.0774 0.70322 0.44727 0.0
C1572 C 0.98547 0.65995 0.38043 0.0
C1573 C 0.04418 0.68834 0.43204 0.0
N1574 N 0.98096 0.71187 0.38926 0.0
N1575 N 0.0313 0.62961 0.44787 0.0
H1576 H 0.09419 0.73026 0.44903 0.0
H1577 H 0.08976 0.68878 0.45331 0.0
H1578 H 0.01635 0.60245 0.44537 0.0
H1579 H 0.04939 0.63833 0.47131 0.0
H1580 H 0.95645 0.70022 0.37542 0.0
H1581 H 0.98797 0.73623 0.40152 0.0
H1582 H 0.95562 0.66429 0.33322 0.0
H1583 H 0.95006 0.62236 0.33879 0.0
C1584 C 0.6421 0.64439 0.94514 0.0
C1585 C 0.64352 0.63391 0.90529 0.0
C1586 C 0.67661 0.69583 0.88617 0.0
C1587 C 0.68079 0.70608 0.92743 0.0
N1588 N 0.67456 0.68679 0.99657 0.0
N1589 N 0.66955 0.65082 0.8394 0.0
C1590 C 0.66541 0.67948 0.95715 0.0
C1591 C 0.66279 0.6599 0.87612 0.0
N1592 N 0.61794 0.62113 0.97143 0.0
N1593 N 0.68442 0.71972 0.85619 0.0
H1594 H 0.66117 0.62505 0.83085 0.0
H1595 H 0.68679 0.66932 0.81898 0.0
H1596 H 0.69303 0.74612 0.86098 0.0
H1597 H 0.67834 0.71238 0.82624 0.0
H1598 H 0.61425 0.62846 -5e-05 0.0
H1599 H 0.59884 0.59587 0.96288 0.0
H1600 H 0.66575 0.66729 0.01841 0.0
H1601 H 0.69438 0.71107 0.00671 0.0
C1602 C 0.32876 0.99617 0.95737 0.0
C1603 C 0.30169 0.97694 0.92927 0.0
C1604 C 0.34557 0.9964 0.8758 0.0
C1605 C 0.37302 0.01134 0.90468 0.0
N1606 N 0.3885 0.01517 0.97534 0.0
N1607 N 0.28597 0.95053 0.86341 0.0
C1608 C 0.36403 0.00813 0.94621 0.0
C1609 C 0.31058 0.97443 0.88898 0.0
N1610 N 0.32138 0.00479 0.99403 0.0
N1611 N 0.35208 0.00472 0.83613 0.0
H1612 H 0.26061 0.93237 0.8726 0.0
H1613 H 0.2921 0.94602 0.83463 0.0
H1614 H 0.37649 0.02345 0.82515 0.0
H1615 H 0.33208 0.99639 0.81491 0.0
H1616 H 0.34092 0.02174 0.01379 0.0
H1617 H 0.2962 0.99855 0.00282 0.0
H1618 H 0.3819 0.01001 0.00555 0.0
H1619 H 0.41431 0.02195 0.96949 0.0
C1620 C 0.01917 0.34424 0.95321 0.0
C1621 C 0.03467 0.33268 0.92406 0.0
C1622 C 0.00994 0.35231 0.87105 0.0
C1623 C 0.99807 0.36755 0.9002 0.0
N1624 N 1.00383 0.38846 0.96846 0.0
N1625 N 0.05487 0.33803 0.85558 0.0
C1626 C 1.00653 0.36678 0.94117 0.0
C1627 C 0.0332 0.3405 0.88302 0.0
N1628 N 0.01455 0.33252 0.9918 0.0
N1629 N 0.99789 0.34721 0.83253 0.0
H1630 H 0.0746 0.3327 0.86372 0.0
H1631 H 0.05628 0.34591 0.82587 0.0
H1632 H 0.97876 0.35281 0.82279 0.0
H1633 H 1.00394 0.33346 0.81154 0.0
H1634 H 1.00068 0.33839 0.0128 0.0
H1635 H 0.0206 0.31373 0.00161 0.0
H1636 H 0.01213 0.39038 0.9981 0.0
H1637 H 0.9979 0.40772 0.96018 0.0
C1638 C 0.69673 0.65245 0.57484 0.0
C1639 C 0.712 0.68688 0.55916 0.0
C1640 C 0.65605 0.68596 0.56568 0.0
C1641 C 0.64077 0.65166 0.58293 0.0
N1642 N 0.64366 0.59878 0.59247 0.0
N1643 N 0.70845 0.73826 0.54293 0.0
C1644 C 0.66039 0.63399 0.58458 0.0
C1645 C 0.69218 0.70397 0.55515 0.0
N1646 N 0.7174 0.63799 0.58205 0.0
N1647 N 0.63609 0.70112 0.5578 0.0
H1648 H 0.73409 0.75163 0.53214 0.0
H1649 H 0.69756 0.75439 0.54568 0.0
H1650 H 0.61029 0.69118 0.56673 0.0
H1651 H 0.64435 0.72308 0.5397 0.0
H1652 H 0.70909 0.61498 0.59825 0.0
H1653 H 0.7439 0.65036 0.57435 0.0
H1654 H 0.65559 0.58357 0.58997 0.0
H1655 H 0.61672 0.58372 0.59735 0.0
C1656 C 0.33642 0.02963 0.6098 0.0
C1657 C 0.32813 0.03101 0.56897 0.0
C1658 C 0.3611 1.00202 0.55077 0.0
C1659 C 0.36271 0.99405 0.5917 0.0
N1660 N 0.34369 0.99442 0.65985 0.0
N1661 N 0.32593 0.00991 0.50122 0.0
C1662 C 0.34815 0.00624 0.62131 0.0
C1663 C 0.3386 0.01484 0.53946 0.0
N1664 N 0.33453 0.05154 0.63741 0.0
N1665 N 0.38205 0.99889 0.52284 0.0
H1666 H 0.30708 0.01614 0.49208 0.0
H1667 H 0.33104 0.99562 0.47999 0.0
H1668 H 0.40148 0.993 0.53046 0.0
H1669 H 0.38327 0.00684 0.49318 0.0
H1670 H 0.34284 0.05307 0.66698 0.0
H1671 H 0.32918 0.07128 0.62946 0.0
H1672 H 0.33051 1.00081 0.68126 0.0
H1673 H 0.34914 0.9751 0.66925 0.0
C1674 C 0.03148 0.35018 0.63024 0.0
C1675 C 0.02302 0.37253 0.60852 0.0
C1676 C 0.97499 0.32147 0.57571 0.0
C1677 C 0.98757 0.29969 0.59097 0.0
N1678 N 0.03256 0.29617 0.63065 0.0
N1679 N 0.99107 0.37981 0.55411 0.0
C1680 C 0.01683 0.31456 0.6181 0.0
C1681 C 0.99615 0.35834 0.57923 0.0
N1682 N 0.05411 0.36301 0.66201 0.0
N1683 N 0.94208 0.30711 0.55969 0.0
H1684 H 0.00692 0.40697 0.55466 0.0
H1685 H 0.97364 0.37036 0.53004 0.0
H1686 H 0.92417 0.28025 0.56038 0.0
H1687 H 0.93102 0.32219 0.55096 0.0
H1688 H 0.0577 0.34693 0.68203 0.0
H1689 H 0.06735 0.38939 0.67032 0.0
H1690 H 0.05677 0.30801 0.64517 0.0
H1691 H 0.02401 0.27008 0.62427 0.0
C1692 C 0.98743 0.63623 0.76467 0.0
C1693 C 0.96859 0.65455 0.76438 0.0
C1694 C 0.02085 0.70786 0.74048 0.0
C1695 C 0.03965 0.68934 0.73929 0.0
N1696 N 0.04245 0.63716 0.75613 0.0
N1697 N 0.96466 0.70537 0.7462 0.0
C1698 C 0.02336 0.65384 0.75295 0.0
C1699 C 0.98459 0.68974 0.75084 0.0
N1700 N 0.97043 0.60143 0.77488 0.0
N1701 N 0.03826 0.74339 0.73462 0.0
H1702 H 0.93823 0.69323 0.7542 0.0
H1703 H 0.97341 0.7292 0.73162 0.0
H1704 H 0.06503 0.75805 0.72855 0.0
H1705 H 0.0271 0.75905 0.73961 0.0
H1706 H 0.98045 0.58475 0.77019 0.0
H1707 H 0.945 0.58827 0.78634 0.0
H1708 H 0.03389 0.61353 0.77102 0.0
H1709 H 0.06801 0.64749 0.74597 0.0
C1710 C 0.30283 0.31594 0.74286 0.0
C1711 C 0.321 0.35315 0.74663 0.0
C1712 C 0.37119 0.35151 0.7772 0.0
C1713 C 0.35388 0.31483 0.77051 0.0
N1714 N 0.30569 0.26228 0.74275 0.0
N1715 N 0.36961 0.40548 0.77669 0.0
C1716 C 0.32027 0.29703 0.75245 0.0
C1717 C 0.35431 0.37074 0.76653 0.0
N1718 N 0.26798 0.29837 0.73299 0.0
N1719 N 0.40474 0.3683 0.79195 0.0
H1720 H 0.36071 0.42224 0.76794 0.0
H1721 H 0.39054 0.41788 0.79655 0.0
H1722 H 0.41713 0.35505 0.80276 0.0
H1723 H 0.42135 0.39537 0.79136 0.0
H1724 H 0.25232 0.27118 0.73375 0.0
H1725 H 0.25349 0.3109 0.72844 0.0
H1726 H 0.28353 0.24884 0.72475 0.0
H1727 H 0.31724 0.24734 0.75023 0.0
C1728 C 0.69462 0.98669 0.7386 0.0
C1729 C 0.65782 0.96951 0.73202 0.0
C1730 C 0.65644 0.02133 0.7566 0.0
C1731 C 0.69352 0.03944 0.76022 0.0
N1732 N 0.74871 0.04193 0.74804 0.0
N1733 N 0.60483 0.97273 0.72671 0.0
C1734 C 0.71289 0.02285 0.74941 0.0
C1735 C 0.63903 0.98749 0.73876 0.0
N1736 N 0.71192 0.9682 0.73615 0.0
N1737 N 0.63774 0.03602 0.77142 0.0
H1738 H 0.59143 0.94838 0.71247 0.0
H1739 H 0.5908 0.98601 0.7271 0.0
H1740 H 0.64952 0.0606 0.78519 0.0
H1741 H 0.61049 0.02258 0.77348 0.0
H1742 H 0.73783 0.97825 0.74525 0.0
H1743 H 0.69963 0.94179 0.72805 0.0
H1744 H 0.76411 0.03234 0.73602 0.0
H1745 H 0.76301 0.06841 0.75592 0.0
C1746 C 0.30071 0.98409 0.24498 0.0
C1747 C 0.3208 0.96694 0.24265 0.0
C1748 C 0.37013 0.01741 0.27507 0.0
C1749 C 0.3523 0.03646 0.27143 0.0
N1750 N 0.30087 0.03905 0.25264 0.0
N1751 N 0.37697 0.96993 0.24929 0.0
C1752 C 0.31758 0.0201 0.25634 0.0
C1753 C 0.35612 0.98424 0.25622 0.0
N1754 N 0.26531 0.96563 0.2384 0.0
N1755 N 0.39996 0.03059 0.29762 0.0
H1756 H 0.36844 0.94654 0.23358 0.0
H1757 H 0.40379 0.98314 0.25537 0.0
H1758 H 0.41078 0.05483 0.31215 0.0
H1759 H 0.41182 0.01597 0.30508 0.0
H1760 H 0.2488 0.97577 0.24373 0.0
H1761 H 0.25171 0.93901 0.2312 0.0
H1762 H 0.27728 0.03003 0.23732 0.0
H1763 H 0.31167 0.06475 0.26316 0.0
C1764 C 0.99582 0.33285 0.29456 0.0
C1765 C 0.96925 0.31748 0.26483 0.0
C1766 C 0.01449 0.34078 0.21289 0.0
C1767 C 0.04103 0.35197 0.24258 0.0
N1768 N 0.05473 0.34711 0.31169 0.0
N1769 N 0.9555 0.29622 0.1966 0.0
C1770 C 0.0311 0.34458 0.28352 0.0
C1771 C 0.97918 0.31824 0.22419 0.0
N1772 N 0.98806 0.33781 0.33277 0.0
N1773 N 0.02226 0.35269 0.17441 0.0
H1774 H 0.93044 0.2765 0.20464 0.0
H1775 H 0.96252 0.29439 0.16721 0.0
H1776 H 0.04727 0.37168 0.16521 0.0
H1777 H 1.00286 0.34686 0.15296 0.0
H1778 H 0.00741 0.35156 0.35423 0.0
H1779 H 0.96306 0.33204 0.34171 0.0
H1780 H 0.04776 0.33948 0.34139 0.0
H1781 H 0.07983 0.35221 0.30424 0.0
C1782 C 0.66691 0.6388 0.22673 0.0
C1783 C 0.69578 0.65351 0.25437 0.0
C1784 C 0.68769 0.70421 0.26355 0.0
C1785 C 0.66157 0.69141 0.23337 0.0
N1786 N 0.6306 0.64947 0.1808 0.0
N1787 N 0.74117 0.70695 0.28513 0.0
C1788 C 0.65287 0.65986 0.21294 0.0
C1789 C 0.70845 0.68824 0.26868 0.0
N1790 N 0.65108 0.60439 0.21512 0.0
N1791 N 0.69248 0.73116 0.28796 0.0
H1792 H 0.75899 0.69789 0.28539 0.0
H1793 H 0.75229 0.7333 0.29318 0.0
H1794 H 0.67666 0.74247 0.28654 0.0
H1795 H 0.70946 0.73937 0.31247 0.0
H1796 H 0.6272 0.59188 0.19991 0.0
H1797 H 0.65921 0.58683 0.22301 0.0
H1798 H 0.62699 0.62923 0.16158 0.0
H1799 H 0.61771 0.66264 0.17141 0.0
loop_
_geom_bond_atom_site_label_1
_geom_bond_atom_site_label_2
_geom_bond_distance
_geom_bond_site_symmetry_2
_ccdc_geom_bond_type
C0 O2 1.247 . S
C0 O4 1.258 . S
C1 O8 1.247 . S
C1 O9 1.258 . S
O2 C0 1.247 . S
O2 Zn3 2.028 . S
Zn3 O2 2.028 . S
Zn3 O7 2.035 . S
Zn3 O9 2.035 . S
Zn3 O10 2.028 . S
O4 C0 1.258 . S
O4 Zn5 2.035 . S
Zn5 O4 2.035 . S
Zn5 O6 2.028 . S
Zn5 O8 2.028 . S
Zn5 O11 2.035 . S
O6 Zn5 2.028 . S
O6 C12 1.247 . S
O7 Zn3 2.035 . S
O7 C12 1.258 . S
O8 C1 1.247 . S
O8 Zn5 2.028 . S
O9 C1 1.258 . S
O9 Zn3 2.035 . S
O10 Zn3 2.028 . S
O10 C13 1.247 . S
O11 Zn5 2.035 . S
O11 C13 1.258 . S
C12 O6 1.247 . S
C12 O7 1.258 . S
C13 O10 1.247 . S
C13 O11 1.258 . S
C14 O16 1.247 . S
C14 O18 1.258 . S
C15 O22 1.247 . S
C15 O23 1.258 . S
O16 C14 1.247 . S
O16 Zn17 2.028 . S
Zn17 O16 2.028 . S
Zn17 O21 2.035 . S
Zn17 O23 2.035 . S
Zn17 O24 2.028 . S
O18 C14 1.258 . S
O18 Zn19 2.035 . S
Zn19 O18 2.035 . S
Zn19 O20 2.028 . S
Zn19 O22 2.028 . S
Zn19 O25 2.035 . S
O20 Zn19 2.028 . S
O20 C26 1.247 . S
O21 Zn17 2.035 . S
O21 C26 1.258 . S
O22 C15 1.247 . S
O22 Zn19 2.028 . S
O23 C15 1.258 . S
O23 Zn17 2.035 . S
O24 Zn17 2.028 . S
O24 C27 1.247 . S
O25 Zn19 2.035 . S
O25 C27 1.258 . S
C26 O20 1.247 . S
C26 O21 1.258 . S
C27 O24 1.247 . S
C27 O25 1.258 . S
C28 O30 1.247 . S
C28 O32 1.258 . S
C29 O36 1.247 . S
C29 O37 1.258 . S
O30 C28 1.247 . S
O30 Zn31 2.028 . S
Zn31 O30 2.028 . S
Zn31 O35 2.035 . S
Zn31 O37 2.035 . S
Zn31 O38 2.028 . S
O32 C28 1.258 . S
O32 Zn33 2.035 . S
Zn33 O32 2.035 . S
Zn33 O34 2.028 . S
Zn33 O36 2.028 . S
Zn33 O39 2.035 . S
O34 Zn33 2.028 . S
O34 C40 1.247 . S
O35 Zn31 2.035 . S
O35 C40 1.258 . S
O36 C29 1.247 . S
O36 Zn33 2.028 . S
O37 C29 1.258 . S
O37 Zn31 2.035 . S
O38 Zn31 2.028 . S
O38 C41 1.247 . S
O39 Zn33 2.035 . S
O39 C41 1.258 . S
C40 O34 1.247 . S
C40 O35 1.258 . S
C41 O38 1.247 . S
C41 O39 1.258 . S
C42 O44 1.247 . S
C42 O46 1.258 . S
C43 O50 1.247 . S
C43 O51 1.258 . S
O44 C42 1.247 . S
O44 Zn45 2.028 . S
Zn45 O44 2.028 . S
Zn45 O49 2.035 . S
Zn45 O51 2.035 . S
Zn45 O52 2.028 . S
O46 C42 1.258 . S
O46 Zn47 2.035 . S
Zn47 O46 2.035 . S
Zn47 O48 2.028 . S
Zn47 O50 2.028 . S
Zn47 O53 2.035 . S
O48 Zn47 2.028 . S
O48 C54 1.247 . S
O49 Zn45 2.035 . S
O49 C54 1.258 . S
O50 C43 1.247 . S
O50 Zn47 2.028 . S
O51 C43 1.258 . S
O51 Zn45 2.035 . S
O52 Zn45 2.028 . S
O52 C55 1.247 . S
O53 Zn47 2.035 . S
O53 C55 1.258 . S
C54 O48 1.247 . S
C54 O49 1.258 . S
C55 O52 1.247 . S
C55 O53 1.258 . S
C56 O58 1.247 . S
C56 O60 1.258 . S
C57 O64 1.247 . S
C57 O65 1.258 . S
O58 C56 1.247 . S
O58 Zn59 2.028 . S
Zn59 O58 2.028 . S
Zn59 O63 2.035 . S
Zn59 O65 2.035 . S
Zn59 O66 2.028 . S
O60 C56 1.258 . S
O60 Zn61 2.035 . S
Zn61 O60 2.035 . S
Zn61 O62 2.028 . S
Zn61 O64 2.028 . S
Zn61 O67 2.035 . S
O62 Zn61 2.028 . S
O62 C68 1.247 . S
O63 Zn59 2.035 . S
O63 C68 1.258 . S
O64 C57 1.247 . S
O64 Zn61 2.028 . S
O65 C57 1.258 . S
O65 Zn59 2.035 . S
O66 Zn59 2.028 . S
O66 C69 1.247 . S
O67 Zn61 2.035 . S
O67 C69 1.258 . S
C68 O62 1.247 . S
C68 O63 1.258 . S
C69 O66 1.247 . S
C69 O67 1.258 . S
C70 O72 1.247 . S
C70 O74 1.258 . S
C71 O78 1.247 . S
C71 O79 1.258 . S
O72 C70 1.247 . S
O72 Zn73 2.028 . S
Zn73 O72 2.028 . S
Zn73 O77 2.035 . S
Zn73 O79 2.035 . S
Zn73 O80 2.028 . S
O74 C70 1.258 . S
O74 Zn75 2.035 . S
Zn75 O74 2.035 . S
Zn75 O76 2.028 . S
Zn75 O78 2.028 . S
Zn75 O81 2.035 . S
O76 Zn75 2.028 . S
O76 C82 1.247 . S
O77 Zn73 2.035 . S
O77 C82 1.258 . S
O78 C71 1.247 . S
O78 Zn75 2.028 . S
O79 C71 1.258 . S
O79 Zn73 2.035 . S
O80 Zn73 2.028 . S
O80 C83 1.247 . S
O81 Zn75 2.035 . S
O81 C83 1.258 . S
C82 O76 1.247 . S
C82 O77 1.258 . S
C83 O80 1.247 . S
C83 O81 1.258 . S
C84 O86 1.247 . S
C84 O88 1.258 . S
C85 O92 1.247 . S
C85 O93 1.258 . S
O86 C84 1.247 . S
O86 Zn87 2.028 . S
Zn87 O86 2.028 . S
Zn87 O91 2.035 . S
Zn87 O93 2.035 . S
Zn87 O94 2.028 . S
O88 C84 1.258 . S
O88 Zn89 2.035 . S
Zn89 O88 2.035 . S
Zn89 O90 2.028 . S
Zn89 O92 2.028 . S
Zn89 O95 2.035 . S
O90 Zn89 2.028 . S
O90 C96 1.247 . S
O91 Zn87 2.035 . S
O91 C96 1.258 . S
O92 C85 1.247 . S
O92 Zn89 2.028 . S
O93 C85 1.258 . S
O93 Zn87 2.035 . S
O94 Zn87 2.028 . S
O94 C97 1.247 . S
O95 Zn89 2.035 . S
O95 C97 1.258 . S
C96 O90 1.247 . S
C96 O91 1.258 . S
C97 O94 1.247 . S
C97 O95 1.258 . S
C98 O100 1.247 . S
C98 O102 1.258 . S
C99 O106 1.247 . S
C99 O107 1.258 . S
O100 C98 1.247 . S
O100 Zn101 2.028 . S
Zn101 O100 2.028 . S
Zn101 O105 2.035 . S
Zn101 O107 2.035 . S
Zn101 O108 2.028 . S
O102 C98 1.258 . S
O102 Zn103 2.035 . S
Zn103 O102 2.035 . S
Zn103 O104 2.028 . S
Zn103 O106 2.028 . S
Zn103 O109 2.035 . S
O104 Zn103 2.028 . S
O104 C110 1.247 . S
O105 Zn101 2.035 . S
O105 C110 1.258 . S
O106 C99 1.247 . S
O106 Zn103 2.028 . S
O107 C99 1.258 . S
O107 Zn101 2.035 . S
O108 Zn101 2.028 . S
O108 C111 1.247 . S
O109 Zn103 2.035 . S
O109 C111 1.258 . S
C110 O104 1.247 . S
C110 O105 1.258 . S
C111 O108 1.247 . S
C111 O109 1.258 . S
C112 O114 1.247 . S
C112 O116 1.258 . S
C113 O120 1.247 . S
C113 O121 1.258 . S
O114 C112 1.247 . S
O114 Zn115 2.028 . S
Zn115 O114 2.028 . S
Zn115 O119 2.035 . S
Zn115 O121 2.035 . S
Zn115 O122 2.028 . S
O116 C112 1.258 . S
O116 Zn117 2.035 . S
Zn117 O116 2.035 . S
Zn117 O118 2.028 . S
Zn117 O120 2.028 . S
Zn117 O123 2.035 . S
O118 Zn117 2.028 . S
O118 C124 1.247 . S
O119 Zn115 2.035 . S
O119 C124 1.258 . S
O120 C113 1.247 . S
O120 Zn117 2.028 . S
O121 C113 1.258 . S
O121 Zn115 2.035 . S
O122 Zn115 2.028 . S
O122 C125 1.247 . S
O123 Zn117 2.035 . S
O123 C125 1.258 . S
C124 O118 1.247 . S
C124 O119 1.258 . S
C125 O122 1.247 . S
C125 O123 1.258 . S
C126 O128 1.247 . S
C126 O130 1.258 . S
C127 O134 1.247 . S
C127 O135 1.258 . S
O128 C126 1.247 . S
O128 Zn129 2.028 . S
Zn129 O128 2.028 . S
Zn129 O133 2.035 . S
Zn129 O135 2.035 . S
Zn129 O136 2.028 . S
O130 C126 1.258 . S
O130 Zn131 2.035 . S
Zn131 O130 2.035 . S
Zn131 O132 2.028 . S
Zn131 O134 2.028 . S
Zn131 O137 2.035 . S
O132 Zn131 2.028 . S
O132 C138 1.247 . S
O133 Zn129 2.035 . S
O133 C138 1.258 . S
O134 C127 1.247 . S
O134 Zn131 2.028 . S
O135 C127 1.258 . S
O135 Zn129 2.035 . S
O136 Zn129 2.028 . S
O136 C139 1.247 . S
O137 Zn131 2.035 . S
O137 C139 1.258 . S
C138 O132 1.247 . S
C138 O133 1.258 . S
C139 O136 1.247 . S
C139 O137 1.258 . S
C140 O142 1.247 . S
C140 O144 1.258 . S
C141 O148 1.247 . S
C141 O149 1.258 . S
O142 C140 1.247 . S
O142 Zn143 2.028 . S
Zn143 O142 2.028 . S
Zn143 O147 2.035 . S
Zn143 O149 2.035 . S
Zn143 O150 2.028 . S
O144 C140 1.258 . S
O144 Zn145 2.035 . S
Zn145 O144 2.035 . S
Zn145 O146 2.028 . S
Zn145 O148 2.028 . S
Zn145 O151 2.035 . S
O146 Zn145 2.028 . S
O146 C152 1.247 . S
O147 Zn143 2.035 . S
O147 C152 1.258 . S
O148 C141 1.247 . S
O148 Zn145 2.028 . S
O149 C141 1.258 . S
O149 Zn143 2.035 . S
O150 Zn143 2.028 . S
O150 C153 1.247 . S
O151 Zn145 2.035 . S
O151 C153 1.258 . S
C152 O146 1.247 . S
C152 O147 1.258 . S
C153 O150 1.247 . S
C153 O151 1.258 . S
C154 O156 1.247 . S
C154 O158 1.258 . S
C155 O162 1.247 . S
C155 O163 1.258 . S
O156 C154 1.247 . S
O156 Zn157 2.028 . S
Zn157 O156 2.028 . S
Zn157 O161 2.035 . S
Zn157 O163 2.035 . S
Zn157 O164 2.028 . S
O158 C154 1.258 . S
O158 Zn159 2.035 . S
Zn159 O158 2.035 . S
Zn159 O160 2.028 . S
Zn159 O162 2.028 . S
Zn159 O165 2.035 . S
O160 Zn159 2.028 . S
O160 C166 1.247 . S
O161 Zn157 2.035 . S
O161 C166 1.258 . S
O162 C155 1.247 . S
O162 Zn159 2.028 . S
O163 C155 1.258 . S
O163 Zn157 2.035 . S
O164 Zn157 2.028 . S
O164 C167 1.247 . S
O165 Zn159 2.035 . S
O165 C167 1.258 . S
C166 O160 1.247 . S
C166 O161 1.258 . S
C167 O164 1.247 . S
C167 O165 1.258 . S
C168 O170 1.247 . S
C168 O172 1.258 . S
C169 O176 1.247 . S
C169 O177 1.258 . S
O170 C168 1.247 . S
O170 Zn171 2.028 . S
Zn171 O170 2.028 . S
Zn171 O175 2.035 . S
Zn171 O177 2.035 . S
Zn171 O178 2.028 . S
O172 C168 1.258 . S
O172 Zn173 2.035 . S
Zn173 O172 2.035 . S
Zn173 O174 2.028 . S
Zn173 O176 2.028 . S
Zn173 O179 2.035 . S
O174 Zn173 2.028 . S
O174 C180 1.247 . S
O175 Zn171 2.035 . S
O175 C180 1.258 . S
O176 C169 1.247 . S
O176 Zn173 2.028 . S
O177 C169 1.258 . S
O177 Zn171 2.035 . S
O178 Zn171 2.028 . S
O178 C181 1.247 . S
O179 Zn173 2.035 . S
O179 C181 1.258 . S
C180 O174 1.247 . S
C180 O175 1.258 . S
C181 O178 1.247 . S
C181 O179 1.258 . S
C182 O184 1.247 . S
C182 O186 1.258 . S
C183 O190 1.247 . S
C183 O191 1.258 . S
O184 C182 1.247 . S
O184 Zn185 2.028 . S
Zn185 O184 2.028 . S
Zn185 O189 2.035 . S
Zn185 O191 2.035 . S
Zn185 O192 2.028 . S
O186 C182 1.258 . S
O186 Zn187 2.035 . S
Zn187 O186 2.035 . S
Zn187 O188 2.028 . S
Zn187 O190 2.028 . S
Zn187 O193 2.035 . S
O188 Zn187 2.028 . S
O188 C194 1.247 . S
O189 Zn185 2.035 . S
O189 C194 1.258 . S
O190 C183 1.247 . S
O190 Zn187 2.028 . S
O191 C183 1.258 . S
O191 Zn185 2.035 . S
O192 Zn185 2.028 . S
O192 C195 1.247 . S
O193 Zn187 2.035 . S
O193 C195 1.258 . S
C194 O188 1.247 . S
C194 O189 1.258 . S
C195 O192 1.247 . S
C195 O193 1.258 . S
C196 O198 1.247 . S
C196 O200 1.258 . S
C197 O204 1.247 . S
C197 O205 1.258 . S
O198 C196 1.247 . S
O198 Zn199 2.028 . S
Zn199 O198 2.028 . S
Zn199 O203 2.035 . S
Zn199 O205 2.035 . S
Zn199 O206 2.028 . S
O200 C196 1.258 . S
O200 Zn201 2.035 . S
Zn201 O200 2.035 . S
Zn201 O202 2.028 . S
Zn201 O204 2.028 . S
Zn201 O207 2.035 . S
O202 Zn201 2.028 . S
O202 C208 1.247 . S
O203 Zn199 2.035 . S
O203 C208 1.258 . S
O204 C197 1.247 . S
O204 Zn201 2.028 . S
O205 C197 1.258 . S
O205 Zn199 2.035 . S
O206 Zn199 2.028 . S
O206 C209 1.247 . S
O207 Zn201 2.035 . S
O207 C209 1.258 . S
C208 O202 1.247 . S
C208 O203 1.258 . S
C209 O206 1.247 . S
C209 O207 1.258 . S
C210 O212 1.247 . S
C210 O214 1.258 . S
C211 O218 1.247 . S
C211 O219 1.258 . S
O212 C210 1.247 . S
O212 Zn213 2.028 . S
Zn213 O212 2.028 . S
Zn213 O217 2.035 . S
Zn213 O219 2.035 . S
Zn213 O220 2.028 . S
O214 C210 1.258 . S
O214 Zn215 2.035 . S
Zn215 O214 2.035 . S
Zn215 O216 2.028 . S
Zn215 O218 2.028 . S
Zn215 O221 2.035 . S
O216 Zn215 2.028 . S
O216 C222 1.247 . S
O217 Zn213 2.035 . S
O217 C222 1.258 . S
O218 C211 1.247 . S
O218 Zn215 2.028 . S
O219 C211 1.258 . S
O219 Zn213 2.035 . S
O220 Zn213 2.028 . S
O220 C223 1.247 . S
O221 Zn215 2.035 . S
O221 C223 1.258 . S
C222 O216 1.247 . S
C222 O217 1.258 . S
C223 O220 1.247 . S
C223 O221 1.258 . S
C224 O226 1.247 . S
C224 O228 1.258 . S
C225 O232 1.247 . S
C225 O233 1.258 . S
O226 C224 1.247 . S
O226 Zn227 2.028 . S
Zn227 O226 2.028 . S
Zn227 O231 2.035 . S
Zn227 O233 2.035 . S
Zn227 O234 2.028 . S
O228 C224 1.258 . S
O228 Zn229 2.035 . S
Zn229 O228 2.035 . S
Zn229 O230 2.028 . S
Zn229 O232 2.028 . S
Zn229 O235 2.035 . S
O230 Zn229 2.028 . S
O230 C236 1.247 . S
O231 Zn227 2.035 . S
O231 C236 1.258 . S
O232 C225 1.247 . S
O232 Zn229 2.028 . S
O233 C225 1.258 . S
O233 Zn227 2.035 . S
O234 Zn227 2.028 . S
O234 C237 1.247 . S
O235 Zn229 2.035 . S
O235 C237 1.258 . S
C236 O230 1.247 . S
C236 O231 1.258 . S
C237 O234 1.247 . S
C237 O235 1.258 . S
C238 O240 1.247 . S
C238 O242 1.258 . S
C239 O246 1.247 . S
C239 O247 1.258 . S
O240 C238 1.247 . S
O240 Zn241 2.028 . S
Zn241 O240 2.028 . S
Zn241 O245 2.035 . S
Zn241 O247 2.035 . S
Zn241 O248 2.028 . S
O242 C238 1.258 . S
O242 Zn243 2.035 . S
Zn243 O242 2.035 . S
Zn243 O244 2.028 . S
Zn243 O246 2.028 . S
Zn243 O249 2.035 . S
O244 Zn243 2.028 . S
O244 C250 1.247 . S
O245 Zn241 2.035 . S
O245 C250 1.258 . S
O246 C239 1.247 . S
O246 Zn243 2.028 . S
O247 C239 1.258 . S
O247 Zn241 2.035 . S
O248 Zn241 2.028 . S
O248 C251 1.247 . S
O249 Zn243 2.035 . S
O249 C251 1.258 . S
C250 O244 1.247 . S
C250 O245 1.258 . S
C251 O248 1.247 . S
C251 O249 1.258 . S
C252 O254 1.247 . S
C252 O256 1.258 . S
C253 O260 1.247 . S
C253 O261 1.258 . S
O254 C252 1.247 . S
O254 Zn255 2.028 . S
Zn255 O254 2.028 . S
Zn255 O259 2.035 . S
Zn255 O261 2.035 . S
Zn255 O262 2.028 . S
O256 C252 1.258 . S
O256 Zn257 2.035 . S
Zn257 O256 2.035 . S
Zn257 O258 2.028 . S
Zn257 O260 2.028 . S
Zn257 O263 2.035 . S
O258 Zn257 2.028 . S
O258 C264 1.247 . S
O259 Zn255 2.035 . S
O259 C264 1.258 . S
O260 C253 1.247 . S
O260 Zn257 2.028 . S
O261 C253 1.258 . S
O261 Zn255 2.035 . S
O262 Zn255 2.028 . S
O262 C265 1.247 . S
O263 Zn257 2.035 . S
O263 C265 1.258 . S
C264 O258 1.247 . S
C264 O259 1.258 . S
C265 O262 1.247 . S
C265 O263 1.258 . S
C266 O268 1.247 . S
C266 O270 1.258 . S
C267 O274 1.247 . S
C267 O275 1.258 . S
O268 C266 1.247 . S
O268 Zn269 2.028 . S
Zn269 O268 2.028 . S
Zn269 O273 2.035 . S
Zn269 O275 2.035 . S
Zn269 O276 2.028 . S
O270 C266 1.258 . S
O270 Zn271 2.035 . S
Zn271 O270 2.035 . S
Zn271 O272 2.028 . S
Zn271 O274 2.028 . S
Zn271 O277 2.035 . S
O272 Zn271 2.028 . S
O272 C278 1.247 . S
O273 Zn269 2.035 . S
O273 C278 1.258 . S
O274 C267 1.247 . S
O274 Zn271 2.028 . S
O275 C267 1.258 . S
O275 Zn269 2.035 . S
O276 Zn269 2.028 . S
O276 C279 1.247 . S
O277 Zn271 2.035 . S
O277 C279 1.258 . S
C278 O272 1.247 . S
C278 O273 1.258 . S
C279 O276 1.247 . S
C279 O277 1.258 . S
C280 O282 1.247 . S
C280 O284 1.258 . S
C281 O288 1.247 . S
C281 O289 1.258 . S
O282 C280 1.247 . S
O282 Zn283 2.028 . S
Zn283 O282 2.028 . S
Zn283 O287 2.035 . S
Zn283 O289 2.035 . S
Zn283 O290 2.028 . S
O284 C280 1.258 . S
O284 Zn285 2.035 . S
Zn285 O284 2.035 . S
Zn285 O286 2.028 . S
Zn285 O288 2.028 . S
Zn285 O291 2.035 . S
O286 Zn285 2.028 . S
O286 C292 1.247 . S
O287 Zn283 2.035 . S
O287 C292 1.258 . S
O288 C281 1.247 . S
O288 Zn285 2.028 . S
O289 C281 1.258 . S
O289 Zn283 2.035 . S
O290 Zn283 2.028 . S
O290 C293 1.247 . S
O291 Zn285 2.035 . S
O291 C293 1.258 . S
C292 O286 1.247 . S
C292 O287 1.258 . S
C293 O290 1.247 . S
C293 O291 1.258 . S
C294 O296 1.247 . S
C294 O298 1.258 . S
C295 O302 1.247 . S
C295 O303 1.258 . S
O296 C294 1.247 . S
O296 Zn297 2.028 . S
Zn297 O296 2.028 . S
Zn297 O301 2.035 . S
Zn297 O303 2.035 . S
Zn297 O304 2.028 . S
O298 C294 1.258 . S
O298 Zn299 2.035 . S
Zn299 O298 2.035 . S
Zn299 O300 2.028 . S
Zn299 O302 2.028 . S
Zn299 O305 2.035 . S
O300 Zn299 2.028 . S
O300 C306 1.247 . S
O301 Zn297 2.035 . S
O301 C306 1.258 . S
O302 C295 1.247 . S
O302 Zn299 2.028 . S
O303 C295 1.258 . S
O303 Zn297 2.035 . S
O304 Zn297 2.028 . S
O304 C307 1.247 . S
O305 Zn299 2.035 . S
O305 C307 1.258 . S
C306 O300 1.247 . S
C306 O301 1.258 . S
C307 O304 1.247 . S
C307 O305 1.258 . S
C308 O310 1.247 . S
C308 O312 1.258 . S
C309 O316 1.247 . S
C309 O317 1.258 . S
O310 C308 1.247 . S
O310 Zn311 2.028 . S
Zn311 O310 2.028 . S
Zn311 O315 2.035 . S
Zn311 O317 2.035 . S
Zn311 O318 2.028 . S
O312 C308 1.258 . S
O312 Zn313 2.035 . S
Zn313 O312 2.035 . S
Zn313 O314 2.028 . S
Zn313 O316 2.028 . S
Zn313 O319 2.035 . S
O314 Zn313 2.028 . S
O314 C320 1.247 . S
O315 Zn311 2.035 . S
O315 C320 1.258 . S
O316 C309 1.247 . S
O316 Zn313 2.028 . S
O317 C309 1.258 . S
O317 Zn311 2.035 . S
O318 Zn311 2.028 . S
O318 C321 1.247 . S
O319 Zn313 2.035 . S
O319 C321 1.258 . S
C320 O314 1.247 . S
C320 O315 1.258 . S
C321 O318 1.247 . S
C321 O319 1.258 . S
C322 O324 1.247 . S
C322 O326 1.258 . S
C323 O330 1.247 . S
C323 O331 1.258 . S
O324 C322 1.247 . S
O324 Zn325 2.028 . S
Zn325 O324 2.028 . S
Zn325 O329 2.035 . S
Zn325 O331 2.035 . S
Zn325 O332 2.028 . S
O326 C322 1.258 . S
O326 Zn327 2.035 . S
Zn327 O326 2.035 . S
Zn327 O328 2.028 . S
Zn327 O330 2.028 . S
Zn327 O333 2.035 . S
O328 Zn327 2.028 . S
O328 C334 1.247 . S
O329 Zn325 2.035 . S
O329 C334 1.258 . S
O330 C323 1.247 . S
O330 Zn327 2.028 . S
O331 C323 1.258 . S
O331 Zn325 2.035 . S
O332 Zn325 2.028 . S
O332 C335 1.247 . S
O333 Zn327 2.035 . S
O333 C335 1.258 . S
C334 O328 1.247 . S
C334 O329 1.258 . S
C335 O332 1.247 . S
C335 O333 1.258 . S
C336 O338 1.247 . S
C336 O340 1.258 . S
C337 O344 1.247 . S
C337 O345 1.258 . S
O338 C336 1.247 . S
O338 Zn339 2.028 . S
Zn339 O338 2.028 . S
Zn339 O343 2.035 . S
Zn339 O345 2.035 . S
Zn339 O346 2.028 . S
O340 C336 1.258 . S
O340 Zn341 2.035 . S
Zn341 O340 2.035 . S
Zn341 O342 2.028 . S
Zn341 O344 2.028 . S
Zn341 O347 2.035 . S
O342 Zn341 2.028 . S
O342 C348 1.247 . S
O343 Zn339 2.035 . S
O343 C348 1.258 . S
O344 C337 1.247 . S
O344 Zn341 2.028 . S
O345 C337 1.258 . S
O345 Zn339 2.035 . S
O346 Zn339 2.028 . S
O346 C349 1.247 . S
O347 Zn341 2.035 . S
O347 C349 1.258 . S
C348 O342 1.247 . S
C348 O343 1.258 . S
C349 O346 1.247 . S
C349 O347 1.258 . S
C350 O352 1.247 . S
C350 O354 1.258 . S
C351 O358 1.247 . S
C351 O359 1.258 . S
O352 C350 1.247 . S
O352 Zn353 2.028 . S
Zn353 O352 2.028 . S
Zn353 O357 2.035 . S
Zn353 O359 2.035 . S
Zn353 O360 2.028 . S
O354 C350 1.258 . S
O354 Zn355 2.035 . S
Zn355 O354 2.035 . S
Zn355 O356 2.028 . S
Zn355 O358 2.028 . S
Zn355 O361 2.035 . S
O356 Zn355 2.028 . S
O356 C362 1.247 . S
O357 Zn353 2.035 . S
O357 C362 1.258 . S
O358 C351 1.247 . S
O358 Zn355 2.028 . S
O359 C351 1.258 . S
O359 Zn353 2.035 . S
O360 Zn353 2.028 . S
O360 C363 1.247 . S
O361 Zn355 2.035 . S
O361 C363 1.258 . S
C362 O356 1.247 . S
C362 O357 1.258 . S
C363 O360 1.247 . S
C363 O361 1.258 . S
C364 O366 1.247 . S
C364 O368 1.258 . S
C365 O372 1.247 . S
C365 O373 1.258 . S
O366 C364 1.247 . S
O366 Zn367 2.028 . S
Zn367 O366 2.028 . S
Zn367 O371 2.035 . S
Zn367 O373 2.035 . S
Zn367 O374 2.028 . S
O368 C364 1.258 . S
O368 Zn369 2.035 . S
Zn369 O368 2.035 . S
Zn369 O370 2.028 . S
Zn369 O372 2.028 . S
Zn369 O375 2.035 . S
O370 Zn369 2.028 . S
O370 C376 1.247 . S
O371 Zn367 2.035 . S
O371 C376 1.258 . S
O372 C365 1.247 . S
O372 Zn369 2.028 . S
O373 C365 1.258 . S
O373 Zn367 2.035 . S
O374 Zn367 2.028 . S
O374 C377 1.247 . S
O375 Zn369 2.035 . S
O375 C377 1.258 . S
C376 O370 1.247 . S
C376 O371 1.258 . S
C377 O374 1.247 . S
C377 O375 1.258 . S
C378 O380 1.247 . S
C378 O382 1.258 . S
C379 O386 1.247 . S
C379 O387 1.258 . S
O380 C378 1.247 . S
O380 Zn381 2.028 . S
Zn381 O380 2.028 . S
Zn381 O385 2.035 . S
Zn381 O387 2.035 . S
Zn381 O388 2.028 . S
O382 C378 1.258 . S
O382 Zn383 2.035 . S
Zn383 O382 2.035 . S
Zn383 O384 2.028 . S
Zn383 O386 2.028 . S
Zn383 O389 2.035 . S
O384 Zn383 2.028 . S
O384 C390 1.247 . S
O385 Zn381 2.035 . S
O385 C390 1.258 . S
O386 C379 1.247 . S
O386 Zn383 2.028 . S
O387 C379 1.258 . S
O387 Zn381 2.035 . S
O388 Zn381 2.028 . S
O388 C391 1.247 . S
O389 Zn383 2.035 . S
O389 C391 1.258 . S
C390 O384 1.247 . S
C390 O385 1.258 . S
C391 O388 1.247 . S
C391 O389 1.258 . S
C392 O394 1.247 . S
C392 O396 1.258 . S
C393 O400 1.247 . S
C393 O401 1.258 . S
O394 C392 1.247 . S
O394 Zn395 2.028 . S
Zn395 O394 2.028 . S
Zn395 O399 2.035 . S
Zn395 O401 2.035 . S
Zn395 O402 2.028 . S
O396 C392 1.258 . S
O396 Zn397 2.035 . S
Zn397 O396 2.035 . S
Zn397 O398 2.028 . S
Zn397 O400 2.028 . S
Zn397 O403 2.035 . S
O398 Zn397 2.028 . S
O398 C404 1.247 . S
O399 Zn395 2.035 . S
O399 C404 1.258 . S
O400 C393 1.247 . S
O400 Zn397 2.028 . S
O401 C393 1.258 . S
O401 Zn395 2.035 . S
O402 Zn395 2.028 . S
O402 C405 1.247 . S
O403 Zn397 2.035 . S
O403 C405 1.258 . S
C404 O398 1.247 . S
C404 O399 1.258 . S
C405 O402 1.247 . S
C405 O403 1.258 . S
C406 O408 1.247 . S
C406 O410 1.258 . S
C407 O414 1.247 . S
C407 O415 1.258 . S
O408 C406 1.247 . S
O408 Zn409 2.028 . S
Zn409 O408 2.028 . S
Zn409 O413 2.035 . S
Zn409 O415 2.035 . S
Zn409 O416 2.028 . S
O410 C406 1.258 . S
O410 Zn411 2.035 . S
Zn411 O410 2.035 . S
Zn411 O412 2.028 . S
Zn411 O414 2.028 . S
Zn411 O417 2.035 . S
O412 Zn411 2.028 . S
O412 C418 1.247 . S
O413 Zn409 2.035 . S
O413 C418 1.258 . S
O414 C407 1.247 . S
O414 Zn411 2.028 . S
O415 C407 1.258 . S
O415 Zn409 2.035 . S
O416 Zn409 2.028 . S
O416 C419 1.247 . S
O417 Zn411 2.035 . S
O417 C419 1.258 . S
C418 O412 1.247 . S
C418 O413 1.258 . S
C419 O416 1.247 . S
C419 O417 1.258 . S
C420 O422 1.247 . S
C420 O424 1.258 . S
C421 O428 1.247 . S
C421 O429 1.258 . S
O422 C420 1.247 . S
O422 Zn423 2.028 . S
Zn423 O422 2.028 . S
Zn423 O427 2.035 . S
Zn423 O429 2.035 . S
Zn423 O430 2.028 . S
O424 C420 1.258 . S
O424 Zn425 2.035 . S
Zn425 O424 2.035 . S
Zn425 O426 2.028 . S
Zn425 O428 2.028 . S
Zn425 O431 2.035 . S
O426 Zn425 2.028 . S
O426 C432 1.247 . S
O427 Zn423 2.035 . S
O427 C432 1.258 . S
O428 C421 1.247 . S
O428 Zn425 2.028 . S
O429 C421 1.258 . S
O429 Zn423 2.035 . S
O430 Zn423 2.028 . S
O430 C433 1.247 . S
O431 Zn425 2.035 . S
O431 C433 1.258 . S
C432 O426 1.247 . S
C432 O427 1.258 . S
C433 O430 1.247 . S
C433 O431 1.258 . S
C434 O436 1.247 . S
C434 O438 1.258 . S
C435 O442 1.247 . S
C435 O443 1.258 . S
O436 C434 1.247 . S
O436 Zn437 2.028 . S
Zn437 O436 2.028 . S
Zn437 O441 2.035 . S
Zn437 O443 2.035 . S
Zn437 O444 2.028 . S
O438 C434 1.258 . S
O438 Zn439 2.035 . S
Zn439 O438 2.035 . S
Zn439 O440 2.028 . S
Zn439 O442 2.028 . S
Zn439 O445 2.035 . S
O440 Zn439 2.028 . S
O440 C446 1.247 . S
O441 Zn437 2.035 . S
O441 C446 1.258 . S
O442 C435 1.247 . S
O442 Zn439 2.028 . S
O443 C435 1.258 . S
O443 Zn437 2.035 . S
O444 Zn437 2.028 . S
O444 C447 1.247 . S
O445 Zn439 2.035 . S
O445 C447 1.258 . S
C446 O440 1.247 . S
C446 O441 1.258 . S
C447 O444 1.247 . S
C447 O445 1.258 . S
C448 O450 1.247 . S
C448 O452 1.258 . S
C449 O456 1.247 . S
C449 O457 1.258 . S
O450 C448 1.247 . S
O450 Zn451 2.028 . S
Zn451 O450 2.028 . S
Zn451 O455 2.035 . S
Zn451 O457 2.035 . S
Zn451 O458 2.028 . S
O452 C448 1.258 . S
O452 Zn453 2.035 . S
Zn453 O452 2.035 . S
Zn453 O454 2.028 . S
Zn453 O456 2.028 . S
Zn453 O459 2.035 . S
O454 Zn453 2.028 . S
O454 C460 1.247 . S
O455 Zn451 2.035 . S
O455 C460 1.258 . S
O456 C449 1.247 . S
O456 Zn453 2.028 . S
O457 C449 1.258 . S
O457 Zn451 2.035 . S
O458 Zn451 2.028 . S
O458 C461 1.247 . S
O459 Zn453 2.035 . S
O459 C461 1.258 . S
C460 O454 1.247 . S
C460 O455 1.258 . S
C461 O458 1.247 . S
C461 O459 1.258 . S
C462 O464 1.247 . S
C462 O466 1.258 . S
C463 O470 1.247 . S
C463 O471 1.258 . S
O464 C462 1.247 . S
O464 Zn465 2.028 . S
Zn465 O464 2.028 . S
Zn465 O469 2.035 . S
Zn465 O471 2.035 . S
Zn465 O472 2.028 . S
O466 C462 1.258 . S
O466 Zn467 2.035 . S
Zn467 O466 2.035 . S
Zn467 O468 2.028 . S
Zn467 O470 2.028 . S
Zn467 O473 2.035 . S
O468 Zn467 2.028 . S
O468 C474 1.247 . S
O469 Zn465 2.035 . S
O469 C474 1.258 . S
O470 C463 1.247 . S
O470 Zn467 2.028 . S
O471 C463 1.258 . S
O471 Zn465 2.035 . S
O472 Zn465 2.028 . S
O472 C475 1.247 . S
O473 Zn467 2.035 . S
O473 C475 1.258 . S
C474 O468 1.247 . S
C474 O469 1.258 . S
C475 O472 1.247 . S
C475 O473 1.258 . S
C476 O478 1.247 . S
C476 O480 1.258 . S
C477 O484 1.247 . S
C477 O485 1.258 . S
O478 C476 1.247 . S
O478 Zn479 2.028 . S
Zn479 O478 2.028 . S
Zn479 O483 2.035 . S
Zn479 O485 2.035 . S
Zn479 O486 2.028 . S
O480 C476 1.258 . S
O480 Zn481 2.035 . S
Zn481 O480 2.035 . S
Zn481 O482 2.028 . S
Zn481 O484 2.028 . S
Zn481 O487 2.035 . S
O482 Zn481 2.028 . S
O482 C488 1.247 . S
O483 Zn479 2.035 . S
O483 C488 1.258 . S
O484 C477 1.247 . S
O484 Zn481 2.028 . S
O485 C477 1.258 . S
O485 Zn479 2.035 . S
O486 Zn479 2.028 . S
O486 C489 1.247 . S
O487 Zn481 2.035 . S
O487 C489 1.258 . S
C488 O482 1.247 . S
C488 O483 1.258 . S
C489 O486 1.247 . S
C489 O487 1.258 . S
C490 O492 1.247 . S
C490 O494 1.258 . S
C491 O498 1.247 . S
C491 O499 1.258 . S
O492 C490 1.247 . S
O492 Zn493 2.028 . S
Zn493 O492 2.028 . S
Zn493 O497 2.035 . S
Zn493 O499 2.035 . S
Zn493 O500 2.028 . S
O494 C490 1.258 . S
O494 Zn495 2.035 . S
Zn495 O494 2.035 . S
Zn495 O496 2.028 . S
Zn495 O498 2.028 . S
Zn495 O501 2.035 . S
O496 Zn495 2.028 . S
O496 C502 1.247 . S
O497 Zn493 2.035 . S
O497 C502 1.258 . S
O498 C491 1.247 . S
O498 Zn495 2.028 . S
O499 C491 1.258 . S
O499 Zn493 2.035 . S
O500 Zn493 2.028 . S
O500 C503 1.247 . S
O501 Zn495 2.035 . S
O501 C503 1.258 . S
C502 O496 1.247 . S
C502 O497 1.258 . S
C503 O500 1.247 . S
C503 O501 1.258 . S
C504 C505 1.363 . S
C504 C510 1.379 . S
C504 N512 1.356 . S
C505 C504 1.363 . S
C505 C511 1.363 . S
C506 C507 1.363 . S
C506 C511 1.379 . S
C506 N513 1.356 . S
C507 C506 1.363 . S
C507 C510 1.363 . S
N508 C510 1.356 . S
N508 H520 0.984 . S
N508 H521 0.985 . S
N509 C511 1.356 . S
N509 H514 0.984 . S
N509 H515 0.985 . S
C510 C504 1.379 . S
C510 C507 1.363 . S
C510 N508 1.356 . S
C511 C505 1.363 . S
C511 C506 1.379 . S
C511 N509 1.356 . S
N512 C504 1.356 . S
N512 H518 0.984 . S
N512 H519 0.984 . S
N513 C506 1.356 . S
N513 H516 0.984 . S
N513 H517 0.985 . S
H514 N509 0.984 . S
H515 N509 0.985 . S
H516 N513 0.984 . S
H517 N513 0.985 . S
H518 N512 0.984 . S
H519 N512 0.984 . S
H520 N508 0.984 . S
H521 N508 0.985 . S
C522 C523 1.363 . S
C522 C528 1.379 . S
C522 N530 1.356 . S
C523 C522 1.363 . S
C523 C529 1.363 . S
C524 C525 1.363 . S
C524 C529 1.379 . S
C524 N531 1.356 . S
C525 C524 1.363 . S
C525 C528 1.363 . S
N526 C528 1.356 . S
N526 H538 0.984 . S
N526 H539 0.985 . S
N527 C529 1.356 . S
N527 H532 0.984 . S
N527 H533 0.985 . S
C528 C522 1.379 . S
C528 C525 1.363 . S
C528 N526 1.356 . S
C529 C523 1.363 . S
C529 C524 1.379 . S
C529 N527 1.356 . S
N530 C522 1.356 . S
N530 H536 0.984 . S
N530 H537 0.984 . S
N531 C524 1.356 . S
N531 H534 0.984 . S
N531 H535 0.985 . S
H532 N527 0.984 . S
H533 N527 0.985 . S
H534 N531 0.984 . S
H535 N531 0.985 . S
H536 N530 0.984 . S
H537 N530 0.984 . S
H538 N526 0.984 . S
H539 N526 0.985 . S
C540 C541 1.363 . S
C540 C546 1.379 . S
C540 N548 1.356 . S
C541 C540 1.363 . S
C541 C547 1.363 . S
C542 C543 1.363 . S
C542 C547 1.379 . S
C542 N549 1.356 . S
C543 C542 1.363 . S
C543 C546 1.363 . S
N544 C546 1.356 . S
N544 H556 0.984 . S
N544 H557 0.985 . S
N545 C547 1.356 . S
N545 H550 0.984 . S
N545 H551 0.985 . S
C546 C540 1.379 . S
C546 C543 1.363 . S
C546 N544 1.356 . S
C547 C541 1.363 . S
C547 C542 1.379 . S
C547 N545 1.356 . S
N548 C540 1.356 . S
N548 H554 0.984 . S
N548 H555 0.984 . S
N549 C542 1.356 . S
N549 H552 0.984 . S
N549 H553 0.985 . S
H550 N545 0.984 . S
H551 N545 0.985 . S
H552 N549 0.984 . S
H553 N549 0.985 . S
H554 N548 0.984 . S
H555 N548 0.984 . S
H556 N544 0.984 . S
H557 N544 0.985 . S
C558 C559 1.363 . S
C558 C564 1.379 . S
C558 N566 1.356 . S
C559 C558 1.363 . S
C559 C565 1.363 . S
C560 C561 1.363 . S
C560 C565 1.379 . S
C560 N567 1.356 . S
C561 C560 1.363 . S
C561 C564 1.363 . S
N562 C564 1.356 . S
N562 H574 0.984 . S
N562 H575 0.985 . S
N563 C565 1.356 . S
N563 H568 0.984 . S
N563 H569 0.985 . S
C564 C558 1.379 . S
C564 C561 1.363 . S
C564 N562 1.356 . S
C565 C559 1.363 . S
C565 C560 1.379 . S
C565 N563 1.356 . S
N566 C558 1.356 . S
N566 H572 0.984 . S
N566 H573 0.984 . S
N567 C560 1.356 . S
N567 H570 0.984 . S
N567 H571 0.985 . S
H568 N563 0.984 . S
H569 N563 0.985 . S
H570 N567 0.984 . S
H571 N567 0.985 . S
H572 N566 0.984 . S
H573 N566 0.984 . S
H574 N562 0.984 . S
H575 N562 0.985 . S
C576 C577 1.363 . S
C576 C582 1.379 . S
C576 N584 1.356 . S
C577 C576 1.363 . S
C577 C583 1.363 . S
C578 C579 1.363 . S
C578 C583 1.379 . S
C578 N585 1.356 . S
C579 C578 1.363 . S
C579 C582 1.363 . S
N580 C582 1.356 . S
N580 H592 0.984 . S
N580 H593 0.985 . S
N581 C583 1.356 . S
N581 H586 0.984 . S
N581 H587 0.985 . S
C582 C576 1.379 . S
C582 C579 1.363 . S
C582 N580 1.356 . S
C583 C577 1.363 . S
C583 C578 1.379 . S
C583 N581 1.356 . S
N584 C576 1.356 . S
N584 H590 0.984 . S
N584 H591 0.984 . S
N585 C578 1.356 . S
N585 H588 0.984 . S
N585 H589 0.985 . S
H586 N581 0.984 . S
H587 N581 0.985 . S
H588 N585 0.984 . S
H589 N585 0.985 . S
H590 N584 0.984 . S
H591 N584 0.984 . S
H592 N580 0.984 . S
H593 N580 0.985 . S
C594 C595 1.363 . S
C594 C600 1.379 . S
C594 N602 1.356 . S
C595 C594 1.363 . S
C595 C601 1.363 . S
C596 C597 1.363 . S
C596 C601 1.379 . S
C596 N603 1.356 . S
C597 C596 1.363 . S
C597 C600 1.363 . S
N598 C600 1.356 . S
N598 H610 0.984 . S
N598 H611 0.985 . S
N599 C601 1.356 . S
N599 H604 0.984 . S
N599 H605 0.985 . S
C600 C594 1.379 . S
C600 C597 1.363 . S
C600 N598 1.356 . S
C601 C595 1.363 . S
C601 C596 1.379 . S
C601 N599 1.356 . S
N602 C594 1.356 . S
N602 H608 0.984 . S
N602 H609 0.984 . S
N603 C596 1.356 . S
N603 H606 0.984 . S
N603 H607 0.985 . S
H604 N599 0.984 . S
H605 N599 0.985 . S
H606 N603 0.984 . S
H607 N603 0.985 . S
H608 N602 0.984 . S
H609 N602 0.984 . S
H610 N598 0.984 . S
H611 N598 0.985 . S
C612 C613 1.363 . S
C612 C618 1.379 . S
C612 N620 1.356 . S
C613 C612 1.363 . S
C613 C619 1.363 . S
C614 C615 1.363 . S
C614 C619 1.379 . S
C614 N621 1.356 . S
C615 C614 1.363 . S
C615 C618 1.363 . S
N616 C618 1.356 . S
N616 H628 0.984 . S
N616 H629 0.985 . S
N617 C619 1.356 . S
N617 H622 0.984 . S
N617 H623 0.985 . S
C618 C612 1.379 . S
C618 C615 1.363 . S
C618 N616 1.356 . S
C619 C613 1.363 . S
C619 C614 1.379 . S
C619 N617 1.356 . S
N620 C612 1.356 . S
N620 H626 0.984 . S
N620 H627 0.984 . S
N621 C614 1.356 . S
N621 H624 0.984 . S
N621 H625 0.985 . S
H622 N617 0.984 . S
H623 N617 0.985 . S
H624 N621 0.984 . S
H625 N621 0.985 . S
H626 N620 0.984 . S
H627 N620 0.984 . S
H628 N616 0.984 . S
H629 N616 0.985 . S
C630 C631 1.363 . S
C630 C636 1.379 . S
C630 N638 1.356 . S
C631 C630 1.363 . S
C631 C637 1.363 . S
C632 C633 1.363 . S
C632 C637 1.379 . S
C632 N639 1.356 . S
C633 C632 1.363 . S
C633 C636 1.363 . S
N634 C636 1.356 . S
N634 H646 0.984 . S
N634 H647 0.985 . S
N635 C637 1.356 . S
N635 H640 0.984 . S
N635 H641 0.985 . S
C636 C630 1.379 . S
C636 C633 1.363 . S
C636 N634 1.356 . S
C637 C631 1.363 . S
C637 C632 1.379 . S
C637 N635 1.356 . S
N638 C630 1.356 . S
N638 H644 0.984 . S
N638 H645 0.984 . S
N639 C632 1.356 . S
N639 H642 0.984 . S
N639 H643 0.985 . S
H640 N635 0.984 . S
H641 N635 0.985 . S
H642 N639 0.984 . S
H643 N639 0.985 . S
H644 N638 0.984 . S
H645 N638 0.984 . S
H646 N634 0.984 . S
H647 N634 0.985 . S
C648 C649 1.363 . S
C648 C654 1.379 . S
C648 N656 1.356 . S
C649 C648 1.363 . S
C649 C655 1.363 . S
C650 C651 1.363 . S
C650 C655 1.379 . S
C650 N657 1.356 . S
C651 C650 1.363 . S
C651 C654 1.363 . S
N652 C654 1.356 . S
N652 H664 0.984 . S
N652 H665 0.985 . S
N653 C655 1.356 . S
N653 H658 0.984 . S
N653 H659 0.985 . S
C654 C648 1.379 . S
C654 C651 1.363 . S
C654 N652 1.356 . S
C655 C649 1.363 . S
C655 C650 1.379 . S
C655 N653 1.356 . S
N656 C648 1.356 . S
N656 H662 0.984 . S
N656 H663 0.984 . S
N657 C650 1.356 . S
N657 H660 0.984 . S
N657 H661 0.985 . S
H658 N653 0.984 . S
H659 N653 0.985 . S
H660 N657 0.984 . S
H661 N657 0.985 . S
H662 N656 0.984 . S
H663 N656 0.984 . S
H664 N652 0.984 . S
H665 N652 0.985 . S
C666 C667 1.363 . S
C666 C672 1.379 . S
C666 N674 1.356 . S
C667 C666 1.363 . S
C667 C673 1.363 . S
C668 C669 1.363 . S
C668 C673 1.379 . S
C668 N675 1.356 . S
C669 C668 1.363 . S
C669 C672 1.363 . S
N670 C672 1.356 . S
N670 H682 0.984 . S
N670 H683 0.985 . S
N671 C673 1.356 . S
N671 H676 0.984 . S
N671 H677 0.985 . S
C672 C666 1.379 . S
C672 C669 1.363 . S
C672 N670 1.356 . S
C673 C667 1.363 . S
C673 C668 1.379 . S
C673 N671 1.356 . S
N674 C666 1.356 . S
N674 H680 0.984 . S
N674 H681 0.984 . S
N675 C668 1.356 . S
N675 H678 0.984 . S
N675 H679 0.985 . S
H676 N671 0.984 . S
H677 N671 0.985 . S
H678 N675 0.984 . S
H679 N675 0.985 . S
H680 N674 0.984 . S
H681 N674 0.984 . S
H682 N670 0.984 . S
H683 N670 0.985 . S
C684 C685 1.363 . S
C684 C690 1.379 . S
C684 N692 1.356 . S
C685 C684 1.363 . S
C685 C691 1.363 . S
C686 C687 1.363 . S
C686 C691 1.379 . S
C686 N693 1.356 . S
C687 C686 1.363 . S
C687 C690 1.363 . S
N688 C690 1.356 . S
N688 H700 0.984 . S
N688 H701 0.985 . S
N689 C691 1.356 . S
N689 H694 0.984 . S
N689 H695 0.985 . S
C690 C684 1.379 . S
C690 C687 1.363 . S
C690 N688 1.356 . S
C691 C685 1.363 . S
C691 C686 1.379 . S
C691 N689 1.356 . S
N692 C684 1.356 . S
N692 H698 0.984 . S
N692 H699 0.984 . S
N693 C686 1.356 . S
N693 H696 0.984 . S
N693 H697 0.985 . S
H694 N689 0.984 . S
H695 N689 0.985 . S
H696 N693 0.984 . S
H697 N693 0.985 . S
H698 N692 0.984 . S
H699 N692 0.984 . S
H700 N688 0.984 . S
H701 N688 0.985 . S
C702 C703 1.363 . S
C702 C708 1.379 . S
C702 N710 1.356 . S
C703 C702 1.363 . S
C703 C709 1.363 . S
C704 C705 1.363 . S
C704 C709 1.379 . S
C704 N711 1.356 . S
C705 C704 1.363 . S
C705 C708 1.363 . S
N706 C708 1.356 . S
N706 H718 0.984 . S
N706 H719 0.985 . S
N707 C709 1.356 . S
N707 H712 0.984 . S
N707 H713 0.985 . S
C708 C702 1.379 . S
C708 C705 1.363 . S
C708 N706 1.356 . S
C709 C703 1.363 . S
C709 C704 1.379 . S
C709 N707 1.356 . S
N710 C702 1.356 . S
N710 H716 0.984 . S
N710 H717 0.984 . S
N711 C704 1.356 . S
N711 H714 0.984 . S
N711 H715 0.985 . S
H712 N707 0.984 . S
H713 N707 0.985 . S
H714 N711 0.984 . S
H715 N711 0.985 . S
H716 N710 0.984 . S
H717 N710 0.984 . S
H718 N706 0.984 . S
H719 N706 0.985 . S
C720 C721 1.363 . S
C720 C726 1.379 . S
C720 N728 1.356 . S
C721 C720 1.363 . S
C721 C727 1.363 1_655 S
C722 C723 1.363 . S
C722 C727 1.379 . S
C722 N729 1.356 . S
C723 C722 1.363 . S
C723 C726 1.363 1_455 S
N724 C726 1.356 . S
N724 H736 0.984 . S
N724 H737 0.985 1_655 S
N725 C727 1.356 . S
N725 H730 0.984 1_455 S
N725 H731 0.985 . S
C726 C720 1.379 . S
C726 C723 1.363 1_655 S
C726 N724 1.356 . S
C727 C721 1.363 1_455 S
C727 C722 1.379 . S
C727 N725 1.356 . S
N728 C720 1.356 . S
N728 H734 0.984 . S
N728 H735 0.984 . S
N729 C722 1.356 . S
N729 H732 0.984 . S
N729 H733 0.985 . S
H730 N725 0.984 1_655 S
H731 N725 0.985 . S
H732 N729 0.984 . S
H733 N729 0.985 . S
H734 N728 0.984 . S
H735 N728 0.984 . S
H736 N724 0.984 . S
H737 N724 0.985 1_455 S
C738 C739 1.363 . S
C738 C744 1.379 . S
C738 N746 1.356 . S
C739 C738 1.363 . S
C739 C745 1.363 . S
C740 C741 1.363 . S
C740 C745 1.379 . S
C740 N747 1.356 . S
C741 C740 1.363 . S
C741 C744 1.363 . S
N742 C744 1.356 . S
N742 H754 0.984 . S
N742 H755 0.985 . S
N743 C745 1.356 . S
N743 H748 0.984 . S
N743 H749 0.985 . S
C744 C738 1.379 . S
C744 C741 1.363 . S
C744 N742 1.356 . S
C745 C739 1.363 . S
C745 C740 1.379 . S
C745 N743 1.356 . S
N746 C738 1.356 . S
N746 H752 0.984 . S
N746 H753 0.984 . S
N747 C740 1.356 . S
N747 H750 0.984 . S
N747 H751 0.985 . S
H748 N743 0.984 . S
H749 N743 0.985 . S
H750 N747 0.984 . S
H751 N747 0.985 . S
H752 N746 0.984 . S
H753 N746 0.984 . S
H754 N742 0.984 . S
H755 N742 0.985 . S
C756 C757 1.363 . S
C756 C762 1.379 1_545 S
C756 N764 1.356 . S
C757 C756 1.363 . S
C757 C763 1.363 . S
C758 C759 1.363 . S
C758 C763 1.379 1_565 S
C758 N765 1.356 . S
C759 C758 1.363 . S
C759 C762 1.363 . S
N760 C762 1.356 . S
N760 H772 0.984 . S
N760 H773 0.985 . S
N761 C763 1.356 . S
N761 H766 0.984 . S
N761 H767 0.985 . S
C762 C756 1.379 1_565 S
C762 C759 1.363 . S
C762 N760 1.356 . S
C763 C757 1.363 . S
C763 C758 1.379 1_545 S
C763 N761 1.356 . S
N764 C756 1.356 . S
N764 H770 0.984 . S
N764 H771 0.984 . S
N765 C758 1.356 . S
N765 H768 0.984 . S
N765 H769 0.985 . S
H766 N761 0.984 . S
H767 N761 0.985 . S
H768 N765 0.984 . S
H769 N765 0.985 . S
H770 N764 0.984 . S
H771 N764 0.984 . S
H772 N760 0.984 . S
H773 N760 0.985 . S
C774 C775 1.363 1_565 S
C774 C780 1.379 1_556 S
C774 N782 1.356 . S
C775 C774 1.363 1_545 S
C775 C781 1.363 . S
C776 C777 1.363 1_545 S
C776 C781 1.379 1_554 S
C776 N783 1.356 . S
C777 C776 1.363 1_565 S
C777 C780 1.363 . S
N778 C780 1.356 . S
N778 H790 0.984 . S
N778 H791 0.985 . S
N779 C781 1.356 . S
N779 H784 0.984 . S
N779 H785 0.985 . S
C780 C774 1.379 1_554 S
C780 C777 1.363 . S
C780 N778 1.356 . S
C781 C775 1.363 . S
C781 C776 1.379 1_556 S
C781 N779 1.356 . S
N782 C774 1.356 . S
N782 H788 0.984 . S
N782 H789 0.984 1_565 S
N783 C776 1.356 . S
N783 H786 0.984 1_545 S
N783 H787 0.985 . S
H784 N779 0.984 . S
H785 N779 0.985 . S
H786 N783 0.984 1_565 S
H787 N783 0.985 . S
H788 N782 0.984 . S
H789 N782 0.984 1_545 S
H790 N778 0.984 . S
H791 N778 0.985 . S
C792 C793 1.363 1_455 S
C792 C798 1.379 . S
C792 N800 1.356 . S
C793 C792 1.363 1_655 S
C793 C799 1.363 1_556 S
C794 C795 1.363 1_655 S
C794 C799 1.379 . S
C794 N801 1.356 . S
C795 C794 1.363 1_455 S
C795 C798 1.363 1_554 S
N796 C798 1.356 . S
N796 H808 0.984 . S
N796 H809 0.985 1_556 S
N797 C799 1.356 . S
N797 H802 0.984 1_554 S
N797 H803 0.985 . S
C798 C792 1.379 . S
C798 C795 1.363 1_556 S
C798 N796 1.356 . S
C799 C793 1.363 1_554 S
C799 C794 1.379 . S
C799 N797 1.356 . S
N800 C792 1.356 . S
N800 H806 0.984 . S
N800 H807 0.984 1_455 S
N801 C794 1.356 . S
N801 H804 0.984 1_655 S
N801 H805 0.985 . S
H802 N797 0.984 1_556 S
H803 N797 0.985 . S
H804 N801 0.984 1_455 S
H805 N801 0.985 . S
H806 N800 0.984 . S
H807 N800 0.984 1_655 S
H808 N796 0.984 . S
H809 N796 0.985 1_554 S
C810 C811 1.363 1_554 S
C810 C816 1.379 . S
C810 N818 1.356 1_554 S
C811 C810 1.363 1_556 S
C811 C817 1.363 . S
C812 C813 1.363 1_556 S
C812 C817 1.379 . S
C812 N819 1.356 1_556 S
C813 C812 1.363 1_554 S
C813 C816 1.363 . S
N814 C816 1.356 . S
N814 H826 0.984 . S
N814 H827 0.985 . S
N815 C817 1.356 . S
N815 H820 0.984 . S
N815 H821 0.985 . S
C816 C810 1.379 . S
C816 C813 1.363 . S
C816 N814 1.356 . S
C817 C811 1.363 . S
C817 C812 1.379 . S
C817 N815 1.356 . S
N818 C810 1.356 1_556 S
N818 H824 0.984 1_556 S
N818 H825 0.984 . S
N819 C812 1.356 1_554 S
N819 H822 0.984 . S
N819 H823 0.985 1_554 S
H820 N815 0.984 . S
H821 N815 0.985 . S
H822 N819 0.984 . S
H823 N819 0.985 1_556 S
H824 N818 0.984 1_554 S
H825 N818 0.984 . S
H826 N814 0.984 . S
H827 N814 0.985 . S
C828 C829 1.363 1_554 S
C828 C834 1.379 . S
C828 N836 1.356 . S
C829 C828 1.363 1_556 S
C829 C835 1.363 . S
C830 C831 1.363 . S
C830 C835 1.379 1_554 S
C830 N837 1.356 . S
C831 C830 1.363 . S
C831 C834 1.363 . S
N832 C834 1.356 . S
N832 H844 0.984 . S
N832 H845 0.985 . S
N833 C835 1.356 . S
N833 H838 0.984 1_545 S
N833 H839 0.985 . S
C834 C828 1.379 . S
C834 C831 1.363 . S
C834 N832 1.356 . S
C835 C829 1.363 . S
C835 C830 1.379 1_556 S
C835 N833 1.356 . S
N836 C828 1.356 . S
N836 H842 0.984 . S
N836 H843 0.984 1_554 S
N837 C830 1.356 . S
N837 H840 0.984 . S
N837 H841 0.985 . S
H838 N833 0.984 1_565 S
H839 N833 0.985 . S
H840 N837 0.984 . S
H841 N837 0.985 . S
H842 N836 0.984 . S
H843 N836 0.984 1_556 S
H844 N832 0.984 . S
H845 N832 0.985 . S
C846 C847 1.363 1_554 S
C846 C852 1.379 . S
C846 N854 1.390 1_554 S
C847 C846 1.363 1_556 S
C847 C853 1.363 . S
C848 C849 1.363 . S
C848 C853 1.379 1_554 S
C848 N855 1.356 . S
C849 C848 1.363 . S
C849 C852 1.363 . S
N850 C852 1.356 . S
N850 H862 0.984 . S
N850 H863 0.985 . S
N851 C853 1.356 . S
N851 H856 0.984 . S
N851 H857 0.985 . S
C852 C846 1.379 . S
C852 C849 1.363 . S
C852 N850 1.356 . S
C853 C847 1.363 . S
C853 C848 1.379 1_556 S
C853 N851 1.356 . S
N854 C846 1.390 1_556 S
N854 H860 0.955 1_656 S
N854 H861 0.977 1_655 S
N855 C848 1.356 . S
N855 H858 0.984 . S
N855 H859 0.985 . S
H856 N851 0.984 . S
H857 N851 0.985 . S
H858 N855 0.984 . S
H859 N855 0.985 . S
H860 N854 0.955 1_454 S
H861 N854 0.977 1_455 S
H862 N850 0.984 . S
H863 N850 0.985 . S
C864 C865 1.363 . S
C864 C870 1.379 1_554 S
C864 N872 1.356 . S
C865 C864 1.363 . S
C865 C871 1.363 . S
C866 C867 1.363 1_554 S
C866 C871 1.379 . S
C866 N873 1.356 . S
C867 C866 1.363 1_556 S
C867 C870 1.363 . S
N868 C870 1.356 . S
N868 H880 0.984 . S
N868 H881 0.985 . S
N869 C871 1.356 . S
N869 H874 0.984 . S
N869 H875 0.985 . S
C870 C864 1.379 1_556 S
C870 C867 1.363 . S
C870 N868 1.356 . S
C871 C865 1.363 . S
C871 C866 1.379 . S
C871 N869 1.356 . S
N872 C864 1.356 . S
N872 H878 0.984 1_554 S
N872 H879 0.984 . S
N873 C866 1.356 . S
N873 H876 0.984 1_554 S
N873 H877 0.985 . S
H874 N869 0.984 . S
H875 N869 0.985 . S
H876 N873 0.984 1_556 S
H877 N873 0.985 . S
H878 N872 0.984 1_556 S
H879 N872 0.984 . S
H880 N868 0.984 . S
H881 N868 0.985 . S
C882 C883 1.363 . S
C882 C888 1.379 . S
C882 N890 1.356 . S
C883 C882 1.363 . S
C883 C889 1.363 . S
C884 C885 1.363 . S
C884 C889 1.379 . S
C884 N891 1.356 . S
C885 C884 1.363 . S
C885 C888 1.363 . S
N886 C888 1.356 . S
N886 H898 0.984 . S
N886 H899 0.985 . S
N887 C889 1.356 . S
N887 H892 0.984 1_455 S
N887 H893 0.985 . S
C888 C882 1.379 . S
C888 C885 1.363 . S
C888 N886 1.356 . S
C889 C883 1.363 . S
C889 C884 1.379 . S
C889 N887 1.356 . S
N890 C882 1.356 . S
N890 H896 0.984 . S
N890 H897 0.984 . S
N891 C884 1.356 . S
N891 H894 0.984 . S
N891 H895 0.985 . S
H892 N887 0.984 1_655 S
H893 N887 0.985 . S
H894 N891 0.984 . S
H895 N891 0.985 . S
H896 N890 0.984 . S
H897 N890 0.984 . S
H898 N886 0.984 . S
H899 N886 0.985 . S
C900 C901 1.363 . S
C900 C906 1.379 . S
C900 N908 1.356 . S
C901 C900 1.363 . S
C901 C907 1.363 . S
C902 C903 1.363 . S
C902 C907 1.379 . S
C902 N909 1.356 . S
C903 C902 1.363 . S
C903 C906 1.363 . S
N904 C906 1.356 . S
N904 H916 0.984 . S
N904 H917 0.985 . S
N905 C907 1.356 . S
N905 H910 0.984 . S
N905 H911 0.985 . S
C906 C900 1.379 . S
C906 C903 1.363 . S
C906 N904 1.356 . S
C907 C901 1.363 . S
C907 C902 1.379 . S
C907 N905 1.356 . S
N908 C900 1.356 . S
N908 H914 0.984 . S
N908 H915 0.984 . S
N909 C902 1.356 . S
N909 H912 0.984 . S
N909 H913 0.985 . S
H910 N905 0.984 . S
H911 N905 0.985 . S
H912 N909 0.984 . S
H913 N909 0.985 . S
H914 N908 0.984 . S
H915 N908 0.984 . S
H916 N904 0.984 . S
H917 N904 0.985 . S
C918 C919 1.363 . S
C918 C924 1.379 . S
C918 N926 1.356 . S
C919 C918 1.363 . S
C919 C925 1.363 . S
C920 C921 1.363 . S
C920 C925 1.379 . S
C920 N927 1.356 . S
C921 C920 1.363 . S
C921 C924 1.363 . S
N922 C924 1.356 . S
N922 H934 0.984 . S
N922 H935 0.985 . S
N923 C925 1.356 . S
N923 H928 0.984 . S
N923 H929 0.985 . S
C924 C918 1.379 . S
C924 C921 1.363 . S
C924 N922 1.356 . S
C925 C919 1.363 . S
C925 C920 1.379 . S
C925 N923 1.356 . S
N926 C918 1.356 . S
N926 H932 0.984 . S
N926 H933 0.984 1_565 S
N927 C920 1.356 . S
N927 H930 0.984 . S
N927 H931 0.985 . S
H928 N923 0.984 . S
H929 N923 0.985 . S
H930 N927 0.984 . S
H931 N927 0.985 . S
H932 N926 0.984 . S
H933 N926 0.984 1_545 S
H934 N922 0.984 . S
H935 N922 0.985 . S
C936 C937 1.363 1_554 S
C936 C942 1.379 . S
C936 N944 1.356 . S
C937 C936 1.363 1_556 S
C937 C943 1.363 . S
C938 C939 1.363 1_556 S
C938 C943 1.379 . S
C938 N945 1.356 1_565 S
C939 C938 1.363 1_554 S
C939 C942 1.363 . S
N940 C942 1.356 . S
N940 H952 0.984 . S
N940 H953 0.985 . S
N941 C943 1.356 . S
N941 H946 0.984 . S
N941 H947 0.985 . S
C942 C936 1.379 . S
C942 C939 1.363 . S
C942 N940 1.356 . S
C943 C937 1.363 . S
C943 C938 1.379 . S
C943 N941 1.356 . S
N944 C936 1.356 . S
N944 H950 0.984 . S
N944 H951 0.984 1_554 S
N945 C938 1.356 1_545 S
N945 H948 0.984 . S
N945 H949 0.985 . S
H946 N941 0.984 . S
H947 N941 0.985 . S
H948 N945 0.984 . S
H949 N945 0.985 . S
H950 N944 0.984 . S
H951 N944 0.984 1_556 S
H952 N940 0.984 . S
H953 N940 0.985 . S
C954 C955 1.363 . S
C954 C960 1.379 . S
C954 N962 1.356 . S
C955 C954 1.363 . S
C955 C961 1.363 1_556 S
C956 C957 1.363 . S
C956 C961 1.379 . S
C956 N963 1.356 . S
C957 C956 1.363 . S
C957 C960 1.363 1_554 S
N958 C960 1.356 1_655 S
N958 H970 0.984 . S
N958 H971 0.985 . S
N959 C961 1.356 . S
N959 H964 0.984 1_554 S
N959 H965 0.985 . S
C960 C954 1.379 . S
C960 C957 1.363 1_556 S
C960 N958 1.356 1_455 S
C961 C955 1.363 1_554 S
C961 C956 1.379 . S
C961 N959 1.356 . S
N962 C954 1.356 . S
N962 H968 0.984 . S
N962 H969 0.984 . S
N963 C956 1.356 . S
N963 H966 0.984 . S
N963 H967 0.985 . S
H964 N959 0.984 1_556 S
H965 N959 0.985 . S
H966 N963 0.984 . S
H967 N963 0.985 . S
H968 N962 0.984 . S
H969 N962 0.984 . S
H970 N958 0.984 . S
H971 N958 0.985 . S
C972 C973 1.363 . S
C972 C978 1.379 . S
C972 N980 1.356 . S
C973 C972 1.363 . S
C973 C979 1.363 1_556 S
C974 C975 1.363 . S
C974 C979 1.379 . S
C974 N981 1.356 . S
C975 C974 1.363 . S
C975 C978 1.363 1_554 S
N976 C978 1.356 . S
N976 H988 0.984 . S
N976 H989 0.985 . S
N977 C979 1.356 . S
N977 H982 0.984 1_554 S
N977 H983 0.985 . S
C978 C972 1.379 . S
C978 C975 1.363 1_556 S
C978 N976 1.356 . S
C979 C973 1.363 1_554 S
C979 C974 1.379 . S
C979 N977 1.356 . S
N980 C972 1.356 . S
N980 H986 0.984 . S
N980 H987 0.984 . S
N981 C974 1.356 . S
N981 H984 0.984 . S
N981 H985 0.985 . S
H982 N977 0.984 1_556 S
H983 N977 0.985 . S
H984 N981 0.984 . S
H985 N981 0.985 . S
H986 N980 0.984 . S
H987 N980 0.984 . S
H988 N976 0.984 . S
H989 N976 0.985 . S
C990 C991 1.363 . S
C990 C996 1.379 . S
C990 N998 1.356 . S
C991 C990 1.363 . S
C991 C997 1.363 . S
C992 C993 1.363 . S
C992 C997 1.379 . S
C992 N999 1.356 . S
C993 C992 1.363 . S
C993 C996 1.363 . S
N994 C996 1.356 . S
N994 H1006 0.984 . S
N994 H1007 0.985 . S
N995 C997 1.356 . S
N995 H1000 0.984 . S
N995 H1001 0.985 . S
C996 C990 1.379 . S
C996 C993 1.363 . S
C996 N994 1.356 . S
C997 C991 1.363 . S
C997 C992 1.379 . S
C997 N995 1.356 . S
N998 C990 1.356 . S
N998 H1004 0.984 . S
N998 H1005 0.984 . S
N999 C992 1.356 . S
N999 H1002 0.984 . S
N999 H1003 0.985 . S
H1000 N995 0.984 . S
H1001 N995 0.985 . S
H1002 N999 0.984 . S
H1003 N999 0.985 . S
H1004 N998 0.984 . S
H1005 N998 0.984 . S
H1006 N994 0.984 . S
H1007 N994 0.985 . S
C1008 C1009 1.363 . S
C1008 C1014 1.379 . S
C1008 N1016 1.356 . S
C1009 C1008 1.363 . S
C1009 C1015 1.363 . S
C1010 C1011 1.363 . S
C1010 C1015 1.379 . S
C1010 N1017 1.356 . S
C1011 C1010 1.363 . S
C1011 C1014 1.363 . S
N1012 C1014 1.356 . S
N1012 H1024 0.984 . S
N1012 H1025 0.985 . S
N1013 C1015 1.356 . S
N1013 H1018 0.984 . S
N1013 H1019 0.985 . S
C1014 C1008 1.379 . S
C1014 C1011 1.363 . S
C1014 N1012 1.356 . S
C1015 C1009 1.363 . S
C1015 C1010 1.379 . S
C1015 N1013 1.356 . S
N1016 C1008 1.356 . S
N1016 H1022 0.984 . S
N1016 H1023 0.984 . S
N1017 C1010 1.356 . S
N1017 H1020 0.984 . S
N1017 H1021 0.985 . S
H1018 N1013 0.984 . S
H1019 N1013 0.985 . S
H1020 N1017 0.984 . S
H1021 N1017 0.985 . S
H1022 N1016 0.984 . S
H1023 N1016 0.984 . S
H1024 N1012 0.984 . S
H1025 N1012 0.985 . S
C1026 C1027 1.363 . S
C1026 C1032 1.379 . S
C1026 N1034 1.356 . S
C1027 C1026 1.363 . S
C1027 C1033 1.363 . S
C1028 C1029 1.363 . S
C1028 C1033 1.379 . S
C1028 N1035 1.356 . S
C1029 C1028 1.363 . S
C1029 C1032 1.363 . S
N1030 C1032 1.356 . S
N1030 H1042 0.984 . S
N1030 H1043 0.985 . S
N1031 C1033 1.356 . S
N1031 H1036 0.984 . S
N1031 H1037 0.985 . S
C1032 C1026 1.379 . S
C1032 C1029 1.363 . S
C1032 N1030 1.356 . S
C1033 C1027 1.363 . S
C1033 C1028 1.379 . S
C1033 N1031 1.356 . S
N1034 C1026 1.356 . S
N1034 H1040 0.984 . S
N1034 H1041 0.984 1_545 S
N1035 C1028 1.356 . S
N1035 H1038 0.984 . S
N1035 H1039 0.985 . S
H1036 N1031 0.984 . S
H1037 N1031 0.985 . S
H1038 N1035 0.984 . S
H1039 N1035 0.985 . S
H1040 N1034 0.984 . S
H1041 N1034 0.984 1_565 S
H1042 N1030 0.984 . S
H1043 N1030 0.985 . S
C1044 C1045 1.363 . S
C1044 C1050 1.379 . S
C1044 N1052 1.356 . S
C1045 C1044 1.363 . S
C1045 C1051 1.363 . S
C1046 C1047 1.363 . S
C1046 C1051 1.379 . S
C1046 N1053 1.356 . S
C1047 C1046 1.363 . S
C1047 C1050 1.363 . S
N1048 C1050 1.356 . S
N1048 H1060 0.984 . S
N1048 H1061 0.985 . S
N1049 C1051 1.356 . S
N1049 H1054 0.984 . S
N1049 H1055 0.985 . S
C1050 C1044 1.379 . S
C1050 C1047 1.363 . S
C1050 N1048 1.356 . S
C1051 C1045 1.363 . S
C1051 C1046 1.379 . S
C1051 N1049 1.356 . S
N1052 C1044 1.356 . S
N1052 H1058 0.984 . S
N1052 H1059 0.984 . S
N1053 C1046 1.356 . S
N1053 H1056 0.984 . S
N1053 H1057 0.985 . S
H1054 N1049 0.984 . S
H1055 N1049 0.985 . S
H1056 N1053 0.984 . S
H1057 N1053 0.985 . S
H1058 N1052 0.984 . S
H1059 N1052 0.984 . S
H1060 N1048 0.984 . S
H1061 N1048 0.985 . S
C1062 C1063 1.363 . S
C1062 C1068 1.379 . S
C1062 N1070 1.356 . S
C1063 C1062 1.363 . S
C1063 C1069 1.363 . S
C1064 C1065 1.363 . S
C1064 C1069 1.379 . S
C1064 N1071 1.356 . S
C1065 C1064 1.363 . S
C1065 C1068 1.363 . S
N1066 C1068 1.356 . S
N1066 H1078 0.984 . S
N1066 H1079 0.985 . S
N1067 C1069 1.356 . S
N1067 H1072 0.984 . S
N1067 H1073 0.985 . S
C1068 C1062 1.379 . S
C1068 C1065 1.363 . S
C1068 N1066 1.356 . S
C1069 C1063 1.363 . S
C1069 C1064 1.379 . S
C1069 N1067 1.356 . S
N1070 C1062 1.356 . S
N1070 H1076 0.984 . S
N1070 H1077 0.984 . S
N1071 C1064 1.356 . S
N1071 H1074 0.984 . S
N1071 H1075 0.985 . S
H1072 N1067 0.984 . S
H1073 N1067 0.985 . S
H1074 N1071 0.984 . S
H1075 N1071 0.985 . S
H1076 N1070 0.984 . S
H1077 N1070 0.984 . S
H1078 N1066 0.984 . S
H1079 N1066 0.985 . S
C1080 C1081 1.363 . S
C1080 C1086 1.379 . S
C1080 N1088 1.356 . S
C1081 C1080 1.363 . S
C1081 C1087 1.363 . S
C1082 C1083 1.363 . S
C1082 C1087 1.379 . S
C1082 N1089 1.356 . S
C1083 C1082 1.363 . S
C1083 C1086 1.363 . S
N1084 C1086 1.356 . S
N1084 H1096 0.984 . S
N1084 H1097 0.985 . S
N1085 C1087 1.356 . S
N1085 H1090 0.984 . S
N1085 H1091 0.985 . S
C1086 C1080 1.379 . S
C1086 C1083 1.363 . S
C1086 N1084 1.356 . S
C1087 C1081 1.363 . S
C1087 C1082 1.379 . S
C1087 N1085 1.356 . S
N1088 C1080 1.356 . S
N1088 H1094 0.984 . S
N1088 H1095 0.984 . S
N1089 C1082 1.356 . S
N1089 H1092 0.984 . S
N1089 H1093 0.985 . S
H1090 N1085 0.984 . S
H1091 N1085 0.985 . S
H1092 N1089 0.984 . S
H1093 N1089 0.985 . S
H1094 N1088 0.984 . S
H1095 N1088 0.984 . S
H1096 N1084 0.984 . S
H1097 N1084 0.985 . S
C1098 C1099 1.363 . S
C1098 C1104 1.379 . S
C1098 N1106 1.356 . S
C1099 C1098 1.363 . S
C1099 C1105 1.363 . S
C1100 C1101 1.363 . S
C1100 C1105 1.379 . S
C1100 N1107 1.356 . S
C1101 C1100 1.363 . S
C1101 C1104 1.363 . S
N1102 C1104 1.356 . S
N1102 H1114 0.984 . S
N1102 H1115 0.985 . S
N1103 C1105 1.356 . S
N1103 H1108 0.984 . S
N1103 H1109 0.985 . S
C1104 C1098 1.379 . S
C1104 C1101 1.363 . S
C1104 N1102 1.356 . S
C1105 C1099 1.363 . S
C1105 C1100 1.379 . S
C1105 N1103 1.356 . S
N1106 C1098 1.356 . S
N1106 H1112 0.984 . S
N1106 H1113 0.984 . S
N1107 C1100 1.356 . S
N1107 H1110 0.984 . S
N1107 H1111 0.985 . S
H1108 N1103 0.984 . S
H1109 N1103 0.985 . S
H1110 N1107 0.984 . S
H1111 N1107 0.985 . S
H1112 N1106 0.984 . S
H1113 N1106 0.984 . S
H1114 N1102 0.984 . S
H1115 N1102 0.985 . S
C1116 C1117 1.363 . S
C1116 C1122 1.379 . S
C1116 N1124 1.356 . S
C1117 C1116 1.363 . S
C1117 C1123 1.363 . S
C1118 C1119 1.363 . S
C1118 C1123 1.379 . S
C1118 N1125 1.356 . S
C1119 C1118 1.363 . S
C1119 C1122 1.363 . S
N1120 C1122 1.356 . S
N1120 H1132 0.984 . S
N1120 H1133 0.985 . S
N1121 C1123 1.356 . S
N1121 H1126 0.984 . S
N1121 H1127 0.985 . S
C1122 C1116 1.379 . S
C1122 C1119 1.363 . S
C1122 N1120 1.356 . S
C1123 C1117 1.363 . S
C1123 C1118 1.379 . S
C1123 N1121 1.356 . S
N1124 C1116 1.356 . S
N1124 H1130 0.984 . S
N1124 H1131 0.984 . S
N1125 C1118 1.356 . S
N1125 H1128 0.984 . S
N1125 H1129 0.985 . S
H1126 N1121 0.984 . S
H1127 N1121 0.985 . S
H1128 N1125 0.984 . S
H1129 N1125 0.985 . S
H1130 N1124 0.984 . S
H1131 N1124 0.984 . S
H1132 N1120 0.984 . S
H1133 N1120 0.985 . S
C1134 C1135 1.363 . S
C1134 C1140 1.379 . S
C1134 N1142 1.356 . S
C1135 C1134 1.363 . S
C1135 C1141 1.363 . S
C1136 C1137 1.363 . S
C1136 C1141 1.379 . S
C1136 N1143 1.356 . S
C1137 C1136 1.363 . S
C1137 C1140 1.363 . S
N1138 C1140 1.356 . S
N1138 H1150 0.984 . S
N1138 H1151 0.985 . S
N1139 C1141 1.356 . S
N1139 H1144 0.984 . S
N1139 H1145 0.985 . S
C1140 C1134 1.379 . S
C1140 C1137 1.363 . S
C1140 N1138 1.356 . S
C1141 C1135 1.363 . S
C1141 C1136 1.379 . S
C1141 N1139 1.356 . S
N1142 C1134 1.356 . S
N1142 H1148 0.984 . S
N1142 H1149 0.984 . S
N1143 C1136 1.356 . S
N1143 H1146 0.984 . S
N1143 H1147 0.985 . S
H1144 N1139 0.984 . S
H1145 N1139 0.985 . S
H1146 N1143 0.984 . S
H1147 N1143 0.985 . S
H1148 N1142 0.984 . S
H1149 N1142 0.984 . S
H1150 N1138 0.984 . S
H1151 N1138 0.985 . S
C1152 C1153 1.363 . S
C1152 C1158 1.379 . S
C1152 N1160 1.356 . S
C1153 C1152 1.363 . S
C1153 C1159 1.363 . S
C1154 C1155 1.363 . S
C1154 C1159 1.379 . S
C1154 N1161 1.356 . S
C1155 C1154 1.363 . S
C1155 C1158 1.363 . S
N1156 C1158 1.356 . S
N1156 H1168 0.984 . S
N1156 H1169 0.985 . S
N1157 C1159 1.356 . S
N1157 H1162 0.984 . S
N1157 H1163 0.985 . S
C1158 C1152 1.379 . S
C1158 C1155 1.363 . S
C1158 N1156 1.356 . S
C1159 C1153 1.363 . S
C1159 C1154 1.379 . S
C1159 N1157 1.356 . S
N1160 C1152 1.356 . S
N1160 H1166 0.984 . S
N1160 H1167 0.984 . S
N1161 C1154 1.356 . S
N1161 H1164 0.984 . S
N1161 H1165 0.985 . S
H1162 N1157 0.984 . S
H1163 N1157 0.985 . S
H1164 N1161 0.984 . S
H1165 N1161 0.985 . S
H1166 N1160 0.984 . S
H1167 N1160 0.984 . S
H1168 N1156 0.984 . S
H1169 N1156 0.985 . S
C1170 C1171 1.363 . S
C1170 C1176 1.379 . S
C1170 N1178 1.356 . S
C1171 C1170 1.363 . S
C1171 C1177 1.363 . S
C1172 C1173 1.363 . S
C1172 C1177 1.379 . S
C1172 N1179 1.356 . S
C1173 C1172 1.363 . S
C1173 C1176 1.363 . S
N1174 C1176 1.356 . S
N1174 H1186 0.984 . S
N1174 H1187 0.985 . S
N1175 C1177 1.356 . S
N1175 H1180 0.984 . S
N1175 H1181 0.985 . S
C1176 C1170 1.379 . S
C1176 C1173 1.363 . S
C1176 N1174 1.356 . S
C1177 C1171 1.363 . S
C1177 C1172 1.379 . S
C1177 N1175 1.356 . S
N1178 C1170 1.356 . S
N1178 H1184 0.984 . S
N1178 H1185 0.984 . S
N1179 C1172 1.356 . S
N1179 H1182 0.984 . S
N1179 H1183 0.985 . S
H1180 N1175 0.984 . S
H1181 N1175 0.985 . S
H1182 N1179 0.984 . S
H1183 N1179 0.985 . S
H1184 N1178 0.984 . S
H1185 N1178 0.984 . S
H1186 N1174 0.984 . S
H1187 N1174 0.985 . S
C1188 C1189 1.363 . S
C1188 C1194 1.379 . S
C1188 N1196 1.356 . S
C1189 C1188 1.363 . S
C1189 C1195 1.363 . S
C1190 C1191 1.363 . S
C1190 C1195 1.379 . S
C1190 N1197 1.356 . S
C1191 C1190 1.363 . S
C1191 C1194 1.363 . S
N1192 C1194 1.356 . S
N1192 H1204 0.984 . S
N1192 H1205 0.985 . S
N1193 C1195 1.356 . S
N1193 H1198 0.984 . S
N1193 H1199 0.985 . S
C1194 C1188 1.379 . S
C1194 C1191 1.363 . S
C1194 N1192 1.356 . S
C1195 C1189 1.363 . S
C1195 C1190 1.379 . S
C1195 N1193 1.356 . S
N1196 C1188 1.356 . S
N1196 H1202 0.984 . S
N1196 H1203 0.984 . S
N1197 C1190 1.356 . S
N1197 H1200 0.984 . S
N1197 H1201 0.985 . S
H1198 N1193 0.984 . S
H1199 N1193 0.985 . S
H1200 N1197 0.984 . S
H1201 N1197 0.985 . S
H1202 N1196 0.984 . S
H1203 N1196 0.984 . S
H1204 N1192 0.984 . S
H1205 N1192 0.985 . S
C1206 C1207 1.363 . S
C1206 C1212 1.379 . S
C1206 N1214 1.356 . S
C1207 C1206 1.363 . S
C1207 C1213 1.363 . S
C1208 C1209 1.363 . S
C1208 C1213 1.379 . S
C1208 N1215 1.356 . S
C1209 C1208 1.363 . S
C1209 C1212 1.363 . S
N1210 C1212 1.356 . S
N1210 H1222 0.984 . S
N1210 H1223 0.985 . S
N1211 C1213 1.356 . S
N1211 H1216 0.984 . S
N1211 H1217 0.985 . S
C1212 C1206 1.379 . S
C1212 C1209 1.363 . S
C1212 N1210 1.356 . S
C1213 C1207 1.363 . S
C1213 C1208 1.379 . S
C1213 N1211 1.356 . S
N1214 C1206 1.356 . S
N1214 H1220 0.984 . S
N1214 H1221 0.984 . S
N1215 C1208 1.356 . S
N1215 H1218 0.984 . S
N1215 H1219 0.985 . S
H1216 N1211 0.984 . S
H1217 N1211 0.985 . S
H1218 N1215 0.984 . S
H1219 N1215 0.985 . S
H1220 N1214 0.984 . S
H1221 N1214 0.984 . S
H1222 N1210 0.984 . S
H1223 N1210 0.985 . S
C1224 C1225 1.363 . S
C1224 C1230 1.379 . S
C1224 N1232 1.356 . S
C1225 C1224 1.363 . S
C1225 C1231 1.363 . S
C1226 C1227 1.363 . S
C1226 C1231 1.379 . S
C1226 N1233 1.356 . S
C1227 C1226 1.363 . S
C1227 C1230 1.363 . S
N1228 C1230 1.356 . S
N1228 H1240 0.984 . S
N1228 H1241 0.985 . S
N1229 C1231 1.356 . S
N1229 H1234 0.984 . S
N1229 H1235 0.985 . S
C1230 C1224 1.379 . S
C1230 C1227 1.363 . S
C1230 N1228 1.356 . S
C1231 C1225 1.363 . S
C1231 C1226 1.379 . S
C1231 N1229 1.356 . S
N1232 C1224 1.356 . S
N1232 H1238 0.984 . S
N1232 H1239 0.984 . S
N1233 C1226 1.356 . S
N1233 H1236 0.984 . S
N1233 H1237 0.985 . S
H1234 N1229 0.984 . S
H1235 N1229 0.985 . S
H1236 N1233 0.984 . S
H1237 N1233 0.985 . S
H1238 N1232 0.984 . S
H1239 N1232 0.984 . S
H1240 N1228 0.984 . S
H1241 N1228 0.985 . S
C1242 C1243 1.363 . S
C1242 C1248 1.379 . S
C1242 N1250 1.356 . S
C1243 C1242 1.363 . S
C1243 C1249 1.363 . S
C1244 C1245 1.363 . S
C1244 C1249 1.379 . S
C1244 N1251 1.356 . S
C1245 C1244 1.363 . S
C1245 C1248 1.363 . S
N1246 C1248 1.356 . S
N1246 H1258 0.984 . S
N1246 H1259 0.985 . S
N1247 C1249 1.356 . S
N1247 H1252 0.984 . S
N1247 H1253 0.985 . S
C1248 C1242 1.379 . S
C1248 C1245 1.363 . S
C1248 N1246 1.356 . S
C1249 C1243 1.363 . S
C1249 C1244 1.379 . S
C1249 N1247 1.356 . S
N1250 C1242 1.356 . S
N1250 H1256 0.984 . S
N1250 H1257 0.984 . S
N1251 C1244 1.356 . S
N1251 H1254 0.984 . S
N1251 H1255 0.985 . S
H1252 N1247 0.984 . S
H1253 N1247 0.985 . S
H1254 N1251 0.984 . S
H1255 N1251 0.985 . S
H1256 N1250 0.984 . S
H1257 N1250 0.984 . S
H1258 N1246 0.984 . S
H1259 N1246 0.985 . S
C1260 C1261 1.363 . S
C1260 C1266 1.379 . S
C1260 N1268 1.356 . S
C1261 C1260 1.363 . S
C1261 C1267 1.363 . S
C1262 C1263 1.363 . S
C1262 C1267 1.379 . S
C1262 N1269 1.356 . S
C1263 C1262 1.363 . S
C1263 C1266 1.363 . S
N1264 C1266 1.356 . S
N1264 H1276 0.984 . S
N1264 H1277 0.985 . S
N1265 C1267 1.356 . S
N1265 H1270 0.984 . S
N1265 H1271 0.985 . S
C1266 C1260 1.379 . S
C1266 C1263 1.363 . S
C1266 N1264 1.356 . S
C1267 C1261 1.363 . S
C1267 C1262 1.379 . S
C1267 N1265 1.356 . S
N1268 C1260 1.356 . S
N1268 H1274 0.984 . S
N1268 H1275 0.984 . S
N1269 C1262 1.356 . S
N1269 H1272 0.984 . S
N1269 H1273 0.985 . S
H1270 N1265 0.984 . S
H1271 N1265 0.985 . S
H1272 N1269 0.984 . S
H1273 N1269 0.985 . S
H1274 N1268 0.984 . S
H1275 N1268 0.984 . S
H1276 N1264 0.984 . S
H1277 N1264 0.985 . S
C1278 C1279 1.363 . S
C1278 C1284 1.379 . S
C1278 N1286 1.356 . S
C1279 C1278 1.363 . S
C1279 C1285 1.363 . S
C1280 C1281 1.363 . S
C1280 C1285 1.379 . S
C1280 N1287 1.356 . S
C1281 C1280 1.363 . S
C1281 C1284 1.363 . S
N1282 C1284 1.356 . S
N1282 H1294 0.984 . S
N1282 H1295 0.985 . S
N1283 C1285 1.356 . S
N1283 H1288 0.984 . S
N1283 H1289 0.985 . S
C1284 C1278 1.379 . S
C1284 C1281 1.363 . S
C1284 N1282 1.356 . S
C1285 C1279 1.363 . S
C1285 C1280 1.379 . S
C1285 N1283 1.356 . S
N1286 C1278 1.356 . S
N1286 H1292 0.984 . S
N1286 H1293 0.984 . S
N1287 C1280 1.356 . S
N1287 H1290 0.984 . S
N1287 H1291 0.985 . S
H1288 N1283 0.984 . S
H1289 N1283 0.985 . S
H1290 N1287 0.984 . S
H1291 N1287 0.985 . S
H1292 N1286 0.984 . S
H1293 N1286 0.984 . S
H1294 N1282 0.984 . S
H1295 N1282 0.985 . S
C1296 C1297 1.363 . S
C1296 C1302 1.379 . S
C1296 N1304 1.356 . S
C1297 C1296 1.363 . S
C1297 C1303 1.363 . S
C1298 C1299 1.363 . S
C1298 C1303 1.379 . S
C1298 N1305 1.356 . S
C1299 C1298 1.363 . S
C1299 C1302 1.363 . S
N1300 C1302 1.356 . S
N1300 H1312 0.984 . S
N1300 H1313 0.985 . S
N1301 C1303 1.356 . S
N1301 H1306 0.984 . S
N1301 H1307 0.985 . S
C1302 C1296 1.379 . S
C1302 C1299 1.363 . S
C1302 N1300 1.356 . S
C1303 C1297 1.363 . S
C1303 C1298 1.379 . S
C1303 N1301 1.356 . S
N1304 C1296 1.356 . S
N1304 H1310 0.984 . S
N1304 H1311 0.984 . S
N1305 C1298 1.356 . S
N1305 H1308 0.984 . S
N1305 H1309 0.985 . S
H1306 N1301 0.984 . S
H1307 N1301 0.985 . S
H1308 N1305 0.984 . S
H1309 N1305 0.985 . S
H1310 N1304 0.984 . S
H1311 N1304 0.984 . S
H1312 N1300 0.984 . S
H1313 N1300 0.985 . S
C1314 C1315 1.363 . S
C1314 C1320 1.379 . S
C1314 N1322 1.356 . S
C1315 C1314 1.363 . S
C1315 C1321 1.363 . S
C1316 C1317 1.363 . S
C1316 C1321 1.379 . S
C1316 N1323 1.356 . S
C1317 C1316 1.363 . S
C1317 C1320 1.363 . S
N1318 C1320 1.356 . S
N1318 H1330 0.984 . S
N1318 H1331 0.985 . S
N1319 C1321 1.356 . S
N1319 H1324 0.984 . S
N1319 H1325 0.985 . S
C1320 C1314 1.379 . S
C1320 C1317 1.363 . S
C1320 N1318 1.356 . S
C1321 C1315 1.363 . S
C1321 C1316 1.379 . S
C1321 N1319 1.356 . S
N1322 C1314 1.356 . S
N1322 H1328 0.984 . S
N1322 H1329 0.984 . S
N1323 C1316 1.356 . S
N1323 H1326 0.984 . S
N1323 H1327 0.985 . S
H1324 N1319 0.984 . S
H1325 N1319 0.985 . S
H1326 N1323 0.984 . S
H1327 N1323 0.985 . S
H1328 N1322 0.984 . S
H1329 N1322 0.984 . S
H1330 N1318 0.984 . S
H1331 N1318 0.985 . S
C1332 C1333 1.363 . S
C1332 C1338 1.379 . S
C1332 N1340 1.356 . S
C1333 C1332 1.363 . S
C1333 C1339 1.363 . S
C1334 C1335 1.363 . S
C1334 C1339 1.379 . S
C1334 N1341 1.356 . S
C1335 C1334 1.363 . S
C1335 C1338 1.363 . S
N1336 C1338 1.356 . S
N1336 H1348 0.984 . S
N1336 H1349 0.985 . S
N1337 C1339 1.356 . S
N1337 H1342 0.984 . S
N1337 H1343 0.985 . S
C1338 C1332 1.379 . S
C1338 C1335 1.363 . S
C1338 N1336 1.356 . S
C1339 C1333 1.363 . S
C1339 C1334 1.379 . S
C1339 N1337 1.356 . S
N1340 C1332 1.356 . S
N1340 H1346 0.984 . S
N1340 H1347 0.984 . S
N1341 C1334 1.356 . S
N1341 H1344 0.984 . S
N1341 H1345 0.985 . S
H1342 N1337 0.984 . S
H1343 N1337 0.985 . S
H1344 N1341 0.984 . S
H1345 N1341 0.985 . S
H1346 N1340 0.984 . S
H1347 N1340 0.984 . S
H1348 N1336 0.984 . S
H1349 N1336 0.985 . S
C1350 C1351 1.363 . S
C1350 C1356 1.379 . S
C1350 N1358 1.356 . S
C1351 C1350 1.363 . S
C1351 C1357 1.363 . S
C1352 C1353 1.363 . S
C1352 C1357 1.379 . S
C1352 N1359 1.356 . S
C1353 C1352 1.363 . S
C1353 C1356 1.363 . S
N1354 C1356 1.356 . S
N1354 H1366 0.984 . S
N1354 H1367 0.985 . S
N1355 C1357 1.356 . S
N1355 H1360 0.984 . S
N1355 H1361 0.985 . S
C1356 C1350 1.379 . S
C1356 C1353 1.363 . S
C1356 N1354 1.356 . S
C1357 C1351 1.363 . S
C1357 C1352 1.379 . S
C1357 N1355 1.356 . S
N1358 C1350 1.356 . S
N1358 H1364 0.984 . S
N1358 H1365 0.984 . S
N1359 C1352 1.356 . S
N1359 H1362 0.984 . S
N1359 H1363 0.985 . S
H1360 N1355 0.984 . S
H1361 N1355 0.985 . S
H1362 N1359 0.984 . S
H1363 N1359 0.985 . S
H1364 N1358 0.984 . S
H1365 N1358 0.984 . S
H1366 N1354 0.984 . S
H1367 N1354 0.985 . S
C1368 C1369 1.363 . S
C1368 C1374 1.379 . S
C1368 N1376 1.356 . S
C1369 C1368 1.363 . S
C1369 C1375 1.363 . S
C1370 C1371 1.363 . S
C1370 C1375 1.379 . S
C1370 N1377 1.356 . S
C1371 C1370 1.363 . S
C1371 C1374 1.363 . S
N1372 C1374 1.356 . S
N1372 H1384 0.984 . S
N1372 H1385 0.985 . S
N1373 C1375 1.356 . S
N1373 H1378 0.984 . S
N1373 H1379 0.985 . S
C1374 C1368 1.379 . S
C1374 C1371 1.363 . S
C1374 N1372 1.356 . S
C1375 C1369 1.363 . S
C1375 C1370 1.379 . S
C1375 N1373 1.356 . S
N1376 C1368 1.356 . S
N1376 H1382 0.984 . S
N1376 H1383 0.984 . S
N1377 C1370 1.356 . S
N1377 H1380 0.984 . S
N1377 H1381 0.985 . S
H1378 N1373 0.984 . S
H1379 N1373 0.985 . S
H1380 N1377 0.984 . S
H1381 N1377 0.985 . S
H1382 N1376 0.984 . S
H1383 N1376 0.984 . S
H1384 N1372 0.984 . S
H1385 N1372 0.985 . S
C1386 C1387 1.363 . S
C1386 C1392 1.379 . S
C1386 N1394 1.356 . S
C1387 C1386 1.363 . S
C1387 C1393 1.363 . S
C1388 C1389 1.363 . S
C1388 C1393 1.379 . S
C1388 N1395 1.356 . S
C1389 C1388 1.363 . S
C1389 C1392 1.363 . S
N1390 C1392 1.356 . S
N1390 H1402 0.984 . S
N1390 H1403 0.985 . S
N1391 C1393 1.356 . S
N1391 H1396 0.984 . S
N1391 H1397 0.985 . S
C1392 C1386 1.379 . S
C1392 C1389 1.363 . S
C1392 N1390 1.356 . S
C1393 C1387 1.363 . S
C1393 C1388 1.379 . S
C1393 N1391 1.356 . S
N1394 C1386 1.356 . S
N1394 H1400 0.984 . S
N1394 H1401 0.984 . S
N1395 C1388 1.356 . S
N1395 H1398 0.984 . S
N1395 H1399 0.985 . S
H1396 N1391 0.984 . S
H1397 N1391 0.985 . S
H1398 N1395 0.984 . S
H1399 N1395 0.985 . S
H1400 N1394 0.984 . S
H1401 N1394 0.984 . S
H1402 N1390 0.984 . S
H1403 N1390 0.985 . S
C1404 C1405 1.363 . S
C1404 C1410 1.379 . S
C1404 N1412 1.356 . S
C1405 C1404 1.363 . S
C1405 C1411 1.363 . S
C1406 C1407 1.363 . S
C1406 C1411 1.379 . S
C1406 N1413 1.356 . S
C1407 C1406 1.363 . S
C1407 C1410 1.363 . S
N1408 C1410 1.356 . S
N1408 H1420 0.984 . S
N1408 H1421 0.985 . S
N1409 C1411 1.356 . S
N1409 H1414 0.984 . S
N1409 H1415 0.985 . S
C1410 C1404 1.379 . S
C1410 C1407 1.363 . S
C1410 N1408 1.356 . S
C1411 C1405 1.363 . S
C1411 C1406 1.379 . S
C1411 N1409 1.356 . S
N1412 C1404 1.356 . S
N1412 H1418 0.984 . S
N1412 H1419 0.984 . S
N1413 C1406 1.356 . S
N1413 H1416 0.984 . S
N1413 H1417 0.985 . S
H1414 N1409 0.984 . S
H1415 N1409 0.985 . S
H1416 N1413 0.984 . S
H1417 N1413 0.985 . S
H1418 N1412 0.984 . S
H1419 N1412 0.984 . S
H1420 N1408 0.984 . S
H1421 N1408 0.985 . S
C1422 C1423 1.363 . S
C1422 C1428 1.379 . S
C1422 N1430 1.356 . S
C1423 C1422 1.363 . S
C1423 C1429 1.363 . S
C1424 C1425 1.363 . S
C1424 C1429 1.379 . S
C1424 N1431 1.356 . S
C1425 C1424 1.363 . S
C1425 C1428 1.363 . S
N1426 C1428 1.356 . S
N1426 H1438 0.984 . S
N1426 H1439 0.985 . S
N1427 C1429 1.356 . S
N1427 H1432 0.984 . S
N1427 H1433 0.985 . S
C1428 C1422 1.379 . S
C1428 C1425 1.363 . S
C1428 N1426 1.356 . S
C1429 C1423 1.363 . S
C1429 C1424 1.379 . S
C1429 N1427 1.356 . S
N1430 C1422 1.356 . S
N1430 H1436 0.984 . S
N1430 H1437 0.984 . S
N1431 C1424 1.356 . S
N1431 H1434 0.984 . S
N1431 H1435 0.985 . S
H1432 N1427 0.984 . S
H1433 N1427 0.985 . S
H1434 N1431 0.984 . S
H1435 N1431 0.985 . S
H1436 N1430 0.984 . S
H1437 N1430 0.984 . S
H1438 N1426 0.984 . S
H1439 N1426 0.985 . S
C1440 C1441 1.363 . S
C1440 C1446 1.379 . S
C1440 N1448 1.356 . S
C1441 C1440 1.363 . S
C1441 C1447 1.363 . S
C1442 C1443 1.363 . S
C1442 C1447 1.379 . S
C1442 N1449 1.356 . S
C1443 C1442 1.363 . S
C1443 C1446 1.363 . S
N1444 C1446 1.356 . S
N1444 H1456 0.984 . S
N1444 H1457 0.985 . S
N1445 C1447 1.356 . S
N1445 H1450 0.984 . S
N1445 H1451 0.985 . S
C1446 C1440 1.379 . S
C1446 C1443 1.363 . S
C1446 N1444 1.356 . S
C1447 C1441 1.363 . S
C1447 C1442 1.379 . S
C1447 N1445 1.356 . S
N1448 C1440 1.356 . S
N1448 H1454 0.984 . S
N1448 H1455 0.984 . S
N1449 C1442 1.356 . S
N1449 H1452 0.984 . S
N1449 H1453 0.985 . S
H1450 N1445 0.984 . S
H1451 N1445 0.985 . S
H1452 N1449 0.984 . S
H1453 N1449 0.985 . S
H1454 N1448 0.984 . S
H1455 N1448 0.984 . S
H1456 N1444 0.984 . S
H1457 N1444 0.985 . S
C1458 C1459 1.363 . S
C1458 C1464 1.379 . S
C1458 N1466 1.356 . S
C1459 C1458 1.363 . S
C1459 C1465 1.363 . S
C1460 C1461 1.363 . S
C1460 C1465 1.379 . S
C1460 N1467 1.356 . S
C1461 C1460 1.363 . S
C1461 C1464 1.363 . S
N1462 C1464 1.356 . S
N1462 H1474 0.984 . S
N1462 H1475 0.985 . S
N1463 C1465 1.356 . S
N1463 H1468 0.984 . S
N1463 H1469 0.985 . S
C1464 C1458 1.379 . S
C1464 C1461 1.363 . S
C1464 N1462 1.356 . S
C1465 C1459 1.363 . S
C1465 C1460 1.379 . S
C1465 N1463 1.356 . S
N1466 C1458 1.356 . S
N1466 H1472 0.984 . S
N1466 H1473 0.984 . S
N1467 C1460 1.356 . S
N1467 H1470 0.984 . S
N1467 H1471 0.985 . S
H1468 N1463 0.984 . S
H1469 N1463 0.985 . S
H1470 N1467 0.984 . S
H1471 N1467 0.985 . S
H1472 N1466 0.984 . S
H1473 N1466 0.984 . S
H1474 N1462 0.984 . S
H1475 N1462 0.985 . S
C1476 C1477 1.363 . S
C1476 C1482 1.379 . S
C1476 N1484 1.356 . S
C1477 C1476 1.363 . S
C1477 C1483 1.363 . S
C1478 C1479 1.363 . S
C1478 C1483 1.379 . S
C1478 N1485 1.356 . S
C1479 C1478 1.363 . S
C1479 C1482 1.363 . S
N1480 C1482 1.356 . S
N1480 H1492 0.984 . S
N1480 H1493 0.985 . S
N1481 C1483 1.356 . S
N1481 H1486 0.984 . S
N1481 H1487 0.985 . S
C1482 C1476 1.379 . S
C1482 C1479 1.363 . S
C1482 N1480 1.356 . S
C1483 C1477 1.363 . S
C1483 C1478 1.379 . S
C1483 N1481 1.356 . S
N1484 C1476 1.356 . S
N1484 H1490 0.984 . S
N1484 H1491 0.984 . S
N1485 C1478 1.356 . S
N1485 H1488 0.984 . S
N1485 H1489 0.985 1_554 S
H1486 N1481 0.984 . S
H1487 N1481 0.985 . S
H1488 N1485 0.984 . S
H1489 N1485 0.985 1_556 S
H1490 N1484 0.984 . S
H1491 N1484 0.984 . S
H1492 N1480 0.984 . S
H1493 N1480 0.985 . S
C1494 C1495 1.363 . S
C1494 C1500 1.379 . S
C1494 N1502 1.356 . S
C1495 C1494 1.363 . S
C1495 C1501 1.363 . S
C1496 C1497 1.363 . S
C1496 C1501 1.379 . S
C1496 N1503 1.356 . S
C1497 C1496 1.363 . S
C1497 C1500 1.363 . S
N1498 C1500 1.356 1_545 S
N1498 H1510 0.984 . S
N1498 H1511 0.985 . S
N1499 C1501 1.356 . S
N1499 H1504 0.984 . S
N1499 H1505 0.985 . S
C1500 C1494 1.379 . S
C1500 C1497 1.363 . S
C1500 N1498 1.356 1_565 S
C1501 C1495 1.363 . S
C1501 C1496 1.379 . S
C1501 N1499 1.356 . S
N1502 C1494 1.356 . S
N1502 H1508 0.984 1_554 S
N1502 H1509 0.984 . S
N1503 C1496 1.356 . S
N1503 H1506 0.984 . S
N1503 H1507 0.985 . S
H1504 N1499 0.984 . S
H1505 N1499 0.985 . S
H1506 N1503 0.984 . S
H1507 N1503 0.985 . S
H1508 N1502 0.984 1_556 S
H1509 N1502 0.984 . S
H1510 N1498 0.984 . S
H1511 N1498 0.985 . S
C1512 C1513 1.363 . S
C1512 C1518 1.379 . S
C1512 N1520 1.356 . S
C1513 C1512 1.363 . S
C1513 C1519 1.363 . S
C1514 C1515 1.363 . S
C1514 C1519 1.379 . S
C1514 N1521 1.356 . S
C1515 C1514 1.363 . S
C1515 C1518 1.363 . S
N1516 C1518 1.356 . S
N1516 H1528 0.984 . S
N1516 H1529 0.985 . S
N1517 C1519 1.356 1_655 S
N1517 H1522 0.984 . S
N1517 H1523 0.985 . S
C1518 C1512 1.379 . S
C1518 C1515 1.363 . S
C1518 N1516 1.356 . S
C1519 C1513 1.363 . S
C1519 C1514 1.379 . S
C1519 N1517 1.356 1_455 S
N1520 C1512 1.356 . S
N1520 H1526 0.984 . S
N1520 H1527 0.984 . S
N1521 C1514 1.356 . S
N1521 H1524 0.984 . S
N1521 H1525 0.985 1_554 S
H1522 N1517 0.984 . S
H1523 N1517 0.985 . S
H1524 N1521 0.984 . S
H1525 N1521 0.985 1_556 S
H1526 N1520 0.984 . S
H1527 N1520 0.984 . S
H1528 N1516 0.984 . S
H1529 N1516 0.985 . S
C1530 C1531 1.363 . S
C1530 C1536 1.379 . S
C1530 N1538 1.356 . S
C1531 C1530 1.363 . S
C1531 C1537 1.363 . S
C1532 C1533 1.363 . S
C1532 C1537 1.379 . S
C1532 N1539 1.356 . S
C1533 C1532 1.363 . S
C1533 C1536 1.363 . S
N1534 C1536 1.356 . S
N1534 H1546 0.984 . S
N1534 H1547 0.985 . S
N1535 C1537 1.356 . S
N1535 H1540 0.984 . S
N1535 H1541 0.985 . S
C1536 C1530 1.379 . S
C1536 C1533 1.363 . S
C1536 N1534 1.356 . S
C1537 C1531 1.363 . S
C1537 C1532 1.379 . S
C1537 N1535 1.356 . S
N1538 C1530 1.356 . S
N1538 H1544 0.984 . S
N1538 H1545 0.984 . S
N1539 C1532 1.356 . S
N1539 H1542 0.984 . S
N1539 H1543 0.985 . S
H1540 N1535 0.984 . S
H1541 N1535 0.985 . S
H1542 N1539 0.984 . S
H1543 N1539 0.985 . S
H1544 N1538 0.984 . S
H1545 N1538 0.984 . S
H1546 N1534 0.984 . S
H1547 N1534 0.985 . S
C1548 C1549 1.363 . S
C1548 C1554 1.379 1_545 S
C1548 N1556 1.356 . S
C1549 C1548 1.363 . S
C1549 C1555 1.363 . S
C1550 C1551 1.363 . S
C1550 C1555 1.379 . S
C1550 N1557 1.356 . S
C1551 C1550 1.363 . S
C1551 C1554 1.363 1_545 S
N1552 C1554 1.356 . S
N1552 H1564 0.984 . S
N1552 H1565 0.985 . S
N1553 C1555 1.356 . S
N1553 H1558 0.984 . S
N1553 H1559 0.985 . S
C1554 C1548 1.379 1_565 S
C1554 C1551 1.363 1_565 S
C1554 N1552 1.356 . S
C1555 C1549 1.363 . S
C1555 C1550 1.379 . S
C1555 N1553 1.356 . S
N1556 C1548 1.356 . S
N1556 H1562 0.984 1_545 S
N1556 H1563 0.984 . S
N1557 C1550 1.356 . S
N1557 H1560 0.984 . S
N1557 H1561 0.985 . S
H1558 N1553 0.984 . S
H1559 N1553 0.985 . S
H1560 N1557 0.984 . S
H1561 N1557 0.985 . S
H1562 N1556 0.984 1_565 S
H1563 N1556 0.984 . S
H1564 N1552 0.984 . S
H1565 N1552 0.985 . S
C1566 C1567 1.363 . S
C1566 C1572 1.379 . S
C1566 N1574 1.356 . S
C1567 C1566 1.363 . S
C1567 C1573 1.362 1_655 S
C1568 C1569 1.363 . S
C1568 C1573 1.379 1_655 S
C1568 N1575 1.356 . S
C1569 C1568 1.363 . S
C1569 C1572 1.363 . S
N1570 C1572 1.356 . S
N1570 H1582 0.984 . S
N1570 H1583 0.985 . S
N1571 C1573 1.357 . S
N1571 H1576 0.984 . S
N1571 H1577 0.985 . S
C1572 C1566 1.379 . S
C1572 C1569 1.363 . S
C1572 N1570 1.356 . S
C1573 C1567 1.362 1_455 S
C1573 C1568 1.379 1_455 S
C1573 N1571 1.357 . S
N1574 C1566 1.356 . S
N1574 H1580 0.984 . S
N1574 H1581 0.984 . S
N1575 C1568 1.356 . S
N1575 H1578 0.984 . S
N1575 H1579 0.985 1_655 S
H1576 N1571 0.984 . S
H1577 N1571 0.985 . S
H1578 N1575 0.984 . S
H1579 N1575 0.985 1_455 S
H1580 N1574 0.984 . S
H1581 N1574 0.984 . S
H1582 N1570 0.984 . S
H1583 N1570 0.985 . S
C1584 C1585 1.363 . S
C1584 C1590 1.379 . S
C1584 N1592 1.356 . S
C1585 C1584 1.363 . S
C1585 C1591 1.363 . S
C1586 C1587 1.363 . S
C1586 C1591 1.379 . S
C1586 N1593 1.356 . S
C1587 C1586 1.363 . S
C1587 C1590 1.363 . S
N1588 C1590 1.356 . S
N1588 H1600 0.984 . S
N1588 H1601 0.985 . S
N1589 C1591 1.356 . S
N1589 H1594 0.984 . S
N1589 H1595 0.985 . S
C1590 C1584 1.379 . S
C1590 C1587 1.363 . S
C1590 N1588 1.356 . S
C1591 C1585 1.363 . S
C1591 C1586 1.379 . S
C1591 N1589 1.356 . S
N1592 C1584 1.356 . S
N1592 H1598 0.984 1_556 S
N1592 H1599 0.984 . S
N1593 C1586 1.356 . S
N1593 H1596 0.984 . S
N1593 H1597 0.985 . S
H1594 N1589 0.984 . S
H1595 N1589 0.985 . S
H1596 N1593 0.984 . S
H1597 N1593 0.985 . S
H1598 N1592 0.984 1_554 S
H1599 N1592 0.984 . S
H1600 N1588 0.984 . S
H1601 N1588 0.985 . S
C1602 C1603 1.363 . S
C1602 C1608 1.379 . S
C1602 N1610 1.356 1_545 S
C1603 C1602 1.363 . S
C1603 C1609 1.363 . S
C1604 C1605 1.363 . S
C1604 C1609 1.379 . S
C1604 N1611 1.356 . S
C1605 C1604 1.363 . S
C1605 C1608 1.363 . S
N1606 C1608 1.356 . S
N1606 H1618 0.984 1_556 S
N1606 H1619 0.985 . S
N1607 C1609 1.356 . S
N1607 H1612 0.984 . S
N1607 H1613 0.985 . S
C1608 C1602 1.379 . S
C1608 C1605 1.363 . S
C1608 N1606 1.356 . S
C1609 C1603 1.363 . S
C1609 C1604 1.379 . S
C1609 N1607 1.356 . S
N1610 C1602 1.356 1_565 S
N1610 H1616 0.984 . S
N1610 H1617 0.984 . S
N1611 C1604 1.356 . S
N1611 H1614 0.984 . S
N1611 H1615 0.985 . S
H1612 N1607 0.984 . S
H1613 N1607 0.985 . S
H1614 N1611 0.984 . S
H1615 N1611 0.985 . S
H1616 N1610 0.984 . S
H1617 N1610 0.984 . S
H1618 N1606 0.984 1_554 S
H1619 N1606 0.985 . S
C1620 C1621 1.363 . S
C1620 C1626 1.379 . S
C1620 N1628 1.356 1_655 S
C1621 C1620 1.363 . S
C1621 C1627 1.363 . S
C1622 C1623 1.363 . S
C1622 C1627 1.379 . S
C1622 N1629 1.356 . S
C1623 C1622 1.363 . S
C1623 C1626 1.363 . S
N1624 C1626 1.356 . S
N1624 H1636 0.984 1_556 S
N1624 H1637 0.985 . S
N1625 C1627 1.356 . S
N1625 H1630 0.984 . S
N1625 H1631 0.985 . S
C1626 C1620 1.379 . S
C1626 C1623 1.363 . S
C1626 N1624 1.356 . S
C1627 C1621 1.363 . S
C1627 C1622 1.379 . S
C1627 N1625 1.356 . S
N1628 C1620 1.356 1_455 S
N1628 H1634 0.984 . S
N1628 H1635 0.984 . S
N1629 C1622 1.356 . S
N1629 H1632 0.984 . S
N1629 H1633 0.985 . S
H1630 N1625 0.984 . S
H1631 N1625 0.985 . S
H1632 N1629 0.984 . S
H1633 N1629 0.985 . S
H1634 N1628 0.984 . S
H1635 N1628 0.984 . S
H1636 N1624 0.984 1_554 S
H1637 N1624 0.985 . S
C1638 C1639 1.363 . S
C1638 C1644 1.379 . S
C1638 N1646 1.356 . S
C1639 C1638 1.363 . S
C1639 C1645 1.363 . S
C1640 C1641 1.363 . S
C1640 C1645 1.379 . S
C1640 N1647 1.356 . S
C1641 C1640 1.363 . S
C1641 C1644 1.363 . S
N1642 C1644 1.356 . S
N1642 H1654 0.984 . S
N1642 H1655 0.985 . S
N1643 C1645 1.356 . S
N1643 H1648 0.984 . S
N1643 H1649 0.985 . S
C1644 C1638 1.379 . S
C1644 C1641 1.363 . S
C1644 N1642 1.356 . S
C1645 C1639 1.363 . S
C1645 C1640 1.379 . S
C1645 N1643 1.356 . S
N1646 C1638 1.356 . S
N1646 H1652 0.984 . S
N1646 H1653 0.984 . S
N1647 C1640 1.356 . S
N1647 H1650 0.984 . S
N1647 H1651 0.985 . S
H1648 N1643 0.984 . S
H1649 N1643 0.985 . S
H1650 N1647 0.984 . S
H1651 N1647 0.985 . S
H1652 N1646 0.984 . S
H1653 N1646 0.984 . S
H1654 N1642 0.984 . S
H1655 N1642 0.985 . S
C1656 C1657 1.363 . S
C1656 C1662 1.379 . S
C1656 N1664 1.356 . S
C1657 C1656 1.363 . S
C1657 C1663 1.363 . S
C1658 C1659 1.363 . S
C1658 C1663 1.379 . S
C1658 N1665 1.356 . S
C1659 C1658 1.363 . S
C1659 C1662 1.363 . S
N1660 C1662 1.356 . S
N1660 H1672 0.984 . S
N1660 H1673 0.985 . S
N1661 C1663 1.356 1_545 S
N1661 H1666 0.984 . S
N1661 H1667 0.985 . S
C1662 C1656 1.379 . S
C1662 C1659 1.363 . S
C1662 N1660 1.356 . S
C1663 C1657 1.363 . S
C1663 C1658 1.379 . S
C1663 N1661 1.356 1_565 S
N1664 C1656 1.356 . S
N1664 H1670 0.984 . S
N1664 H1671 0.984 . S
N1665 C1658 1.356 . S
N1665 H1668 0.984 . S
N1665 H1669 0.985 . S
H1666 N1661 0.984 . S
H1667 N1661 0.985 . S
H1668 N1665 0.984 . S
H1669 N1665 0.985 . S
H1670 N1664 0.984 . S
H1671 N1664 0.984 . S
H1672 N1660 0.984 . S
H1673 N1660 0.985 . S
C1674 C1675 1.363 . S
C1674 C1680 1.379 . S
C1674 N1682 1.356 . S
C1675 C1674 1.363 . S
C1675 C1681 1.363 . S
C1676 C1677 1.363 1_655 S
C1676 C1681 1.379 1_655 S
C1676 N1683 1.356 . S
C1677 C1676 1.363 1_455 S
C1677 C1680 1.363 . S
N1678 C1680 1.356 . S
N1678 H1690 0.984 . S
N1678 H1691 0.985 . S
N1679 C1681 1.356 . S
N1679 H1684 0.984 . S
N1679 H1685 0.985 1_455 S
C1680 C1674 1.379 . S
C1680 C1677 1.363 . S
C1680 N1678 1.356 . S
C1681 C1675 1.363 . S
C1681 C1676 1.379 1_455 S
C1681 N1679 1.356 . S
N1682 C1674 1.356 . S
N1682 H1688 0.984 . S
N1682 H1689 0.984 . S
N1683 C1676 1.356 . S
N1683 H1686 0.984 . S
N1683 H1687 0.985 . S
H1684 N1679 0.984 . S
H1685 N1679 0.985 1_655 S
H1686 N1683 0.984 . S
H1687 N1683 0.985 . S
H1688 N1682 0.984 . S
H1689 N1682 0.984 . S
H1690 N1678 0.984 . S
H1691 N1678 0.985 . S
C1692 C1693 1.363 . S
C1692 C1698 1.379 1_655 S
C1692 N1700 1.356 . S
C1693 C1692 1.363 . S
C1693 C1699 1.363 . S
C1694 C1695 1.363 . S
C1694 C1699 1.379 1_455 S
C1694 N1701 1.356 . S
C1695 C1694 1.363 . S
C1695 C1698 1.363 . S
N1696 C1698 1.356 . S
N1696 H1708 0.984 . S
N1696 H1709 0.985 . S
N1697 C1699 1.356 . S
N1697 H1702 0.984 . S
N1697 H1703 0.985 . S
C1698 C1692 1.379 1_455 S
C1698 C1695 1.363 . S
C1698 N1696 1.356 . S
C1699 C1693 1.363 . S
C1699 C1694 1.379 1_655 S
C1699 N1697 1.356 . S
N1700 C1692 1.356 . S
N1700 H1706 0.984 . S
N1700 H1707 0.984 . S
N1701 C1694 1.356 . S
N1701 H1704 0.984 . S
N1701 H1705 0.985 . S
H1702 N1697 0.984 . S
H1703 N1697 0.985 . S
H1704 N1701 0.984 . S
H1705 N1701 0.985 . S
H1706 N1700 0.984 . S
H1707 N1700 0.984 . S
H1708 N1696 0.984 . S
H1709 N1696 0.985 . S
C1710 C1711 1.363 . S
C1710 C1716 1.379 . S
C1710 N1718 1.356 . S
C1711 C1710 1.363 . S
C1711 C1717 1.363 . S
C1712 C1713 1.363 . S
C1712 C1717 1.379 . S
C1712 N1719 1.356 . S
C1713 C1712 1.363 . S
C1713 C1716 1.363 . S
N1714 C1716 1.356 . S
N1714 H1726 0.984 . S
N1714 H1727 0.985 . S
N1715 C1717 1.356 . S
N1715 H1720 0.984 . S
N1715 H1721 0.985 . S
C1716 C1710 1.379 . S
C1716 C1713 1.363 . S
C1716 N1714 1.356 . S
C1717 C1711 1.363 . S
C1717 C1712 1.379 . S
C1717 N1715 1.356 . S
N1718 C1710 1.356 . S
N1718 H1724 0.984 . S
N1718 H1725 0.984 . S
N1719 C1712 1.356 . S
N1719 H1722 0.984 . S
N1719 H1723 0.985 . S
H1720 N1715 0.984 . S
H1721 N1715 0.985 . S
H1722 N1719 0.984 . S
H1723 N1719 0.985 . S
H1724 N1718 0.984 . S
H1725 N1718 0.984 . S
H1726 N1714 0.984 . S
H1727 N1714 0.985 . S
C1728 C1729 1.363 . S
C1728 C1734 1.379 1_565 S
C1728 N1736 1.356 . S
C1729 C1728 1.363 . S
C1729 C1735 1.363 . S
C1730 C1731 1.363 . S
C1730 C1735 1.379 1_545 S
C1730 N1737 1.356 . S
C1731 C1730 1.363 . S
C1731 C1734 1.363 . S
N1732 C1734 1.356 . S
N1732 H1744 0.984 . S
N1732 H1745 0.985 . S
N1733 C1735 1.356 . S
N1733 H1738 0.984 . S
N1733 H1739 0.985 . S
C1734 C1728 1.379 1_545 S
C1734 C1731 1.363 . S
C1734 N1732 1.356 . S
C1735 C1729 1.363 . S
C1735 C1730 1.379 1_565 S
C1735 N1733 1.356 . S
N1736 C1728 1.356 . S
N1736 H1742 0.984 . S
N1736 H1743 0.984 . S
N1737 C1730 1.356 . S
N1737 H1740 0.984 . S
N1737 H1741 0.985 . S
H1738 N1733 0.984 . S
H1739 N1733 0.985 . S
H1740 N1737 0.984 . S
H1741 N1737 0.985 . S
H1742 N1736 0.984 . S
H1743 N1736 0.984 . S
H1744 N1732 0.984 . S
H1745 N1732 0.985 . S
C1746 C1747 1.363 . S
C1746 C1752 1.379 1_565 S
C1746 N1754 1.356 . S
C1747 C1746 1.363 . S
C1747 C1753 1.363 . S
C1748 C1749 1.363 . S
C1748 C1753 1.379 1_545 S
C1748 N1755 1.356 . S
C1749 C1748 1.363 . S
C1749 C1752 1.363 . S
N1750 C1752 1.356 . S
N1750 H1762 0.984 . S
N1750 H1763 0.985 . S
N1751 C1753 1.356 . S
N1751 H1756 0.984 . S
N1751 H1757 0.985 . S
C1752 C1746 1.379 1_545 S
C1752 C1749 1.363 . S
C1752 N1750 1.356 . S
C1753 C1747 1.363 . S
C1753 C1748 1.379 1_565 S
C1753 N1751 1.356 . S
N1754 C1746 1.356 . S
N1754 H1760 0.984 . S
N1754 H1761 0.984 . S
N1755 C1748 1.356 . S
N1755 H1758 0.984 . S
N1755 H1759 0.985 . S
H1756 N1751 0.984 . S
H1757 N1751 0.985 . S
H1758 N1755 0.984 . S
H1759 N1755 0.985 . S
H1760 N1754 0.984 . S
H1761 N1754 0.984 . S
H1762 N1750 0.984 . S
H1763 N1750 0.985 . S
C1764 C1765 1.363 . S
C1764 C1770 1.379 1_655 S
C1764 N1772 1.356 . S
C1765 C1764 1.363 . S
C1765 C1771 1.363 . S
C1766 C1767 1.363 . S
C1766 C1771 1.379 1_455 S
C1766 N1773 1.356 . S
C1767 C1766 1.363 . S
C1767 C1770 1.363 . S
N1768 C1770 1.356 . S
N1768 H1780 0.984 . S
N1768 H1781 0.985 . S
N1769 C1771 1.356 . S
N1769 H1774 0.984 . S
N1769 H1775 0.985 . S
C1770 C1764 1.379 1_455 S
C1770 C1767 1.363 . S
C1770 N1768 1.356 . S
C1771 C1765 1.363 . S
C1771 C1766 1.379 1_655 S
C1771 N1769 1.356 . S
N1772 C1764 1.356 . S
N1772 H1778 0.984 . S
N1772 H1779 0.984 . S
N1773 C1766 1.356 . S
N1773 H1776 0.984 . S
N1773 H1777 0.985 . S
H1774 N1769 0.984 . S
H1775 N1769 0.985 . S
H1776 N1773 0.984 . S
H1777 N1773 0.985 . S
H1778 N1772 0.984 . S
H1779 N1772 0.984 . S
H1780 N1768 0.984 . S
H1781 N1768 0.985 . S
C1782 C1783 1.363 . S
C1782 C1788 1.379 . S
C1782 N1790 1.356 . S
C1783 C1782 1.363 . S
C1783 C1789 1.363 . S
C1784 C1785 1.363 . S
C1784 C1789 1.379 . S
C1784 N1791 1.356 . S
C1785 C1784 1.363 . S
C1785 C1788 1.363 . S
N1786 C1788 1.356 . S
N1786 H1798 0.984 . S
N1786 H1799 0.985 . S
N1787 C1789 1.356 . S
N1787 H1792 0.984 . S
N1787 H1793 0.985 . S
C1788 C1782 1.379 . S
C1788 C1785 1.363 . S
C1788 N1786 1.356 . S
C1789 C1783 1.363 . S
C1789 C1784 1.379 . S
C1789 N1787 1.356 . S
N1790 C1782 1.356 . S
N1790 H1796 0.984 . S
N1790 H1797 0.984 . S
N1791 C1784 1.356 . S
N1791 H1794 0.984 . S
N1791 H1795 0.985 . S
H1792 N1787 0.984 . S
H1793 N1787 0.985 . S
H1794 N1791 0.984 . S
H1795 N1791 0.985 . S
H1796 N1790 0.984 . S
H1797 N1790 0.984 . S
H1798 N1786 0.984 . S
H1799 N1786 0.985 . S
C505 C0 1.541 . S
C507 C265 1.541 . S
C523 C15 1.542 . S
C525 C267 1.541 . S
C541 C293 1.541 . S
C543 C41 1.542 . S
C559 C55 1.542 . S
C561 C462 1.542 . S
C577 C476 1.542 . S
C579 C57 1.542 . S
C595 C71 1.542 . S
C597 C490 1.542 . S
C613 C349 1.542 . S
C615 C97 1.541 . S
C631 C99 1.541 . S
C633 C362 1.541 . S
C649 C125 1.541 . S
C651 C376 1.541 . S
C667 C139 1.541 . S
C669 C223 1.542 . S
C685 C236 1.541 . S
C687 C140 1.542 . S
C703 C154 1.542 . S
C705 C251 1.542 . S
C721 C168 1.541 . S
C723 C420 1.542 . S
C739 C183 1.541 . S
C741 C435 1.541 . S
C757 C209 1.542 . S
C759 C461 1.541 . S
C775 C294 1.542 . S
C777 C391 1.542 . S
C793 C308 1.542 . S
C795 C393 1.542 . S
C811 C322 1.542 . S
C813 C418 1.541 . S
C829 C98 1.613 1_545 S
C831 C13 1.590 . S
C847 C124 1.613 1_655 S
C849 C26 1.588 . S
C865 C28 1.589 . S
C867 C96 1.613 . S
C883 C155 1.613 1_455 S
C885 C42 1.588 . S
C901 C138 1.613 . S
C903 C68 1.589 . S
C919 C141 1.613 1_565 S
C921 C82 1.588 . S
C937 C84 1.590 . S
C939 C14 1.613 1_565 S
C955 C110 1.590 . S
C957 C40 1.613 1_455 S
C973 C112 1.591 . S
C975 C1 1.613 . S
C991 C126 1.590 . S
C993 C70 1.613 1_655 S
C1009 C54 1.613 . S
C1011 C153 1.589 . S
C1027 C56 1.613 1_545 S
C1029 C167 1.588 . S
C1045 C181 1.590 . S
C1047 C266 1.613 . S
C1063 C194 1.588 . S
C1065 C292 1.613 . S
C1081 C196 1.588 . S
C1083 C264 1.613 . S
C1099 C323 1.613 . S
C1101 C210 1.588 . S
C1117 C225 1.591 . S
C1119 C295 1.613 . S
C1135 C309 1.613 . S
C1137 C238 1.588 . S
C1153 C252 1.590 . S
C1155 C182 1.613 . S
C1171 C208 1.613 . S
C1173 C278 1.590 . S
C1189 C169 1.613 . S
C1191 C280 1.591 . S
C1207 C307 1.588 . S
C1209 C250 1.613 . S
C1225 C321 1.588 . S
C1227 C222 1.613 . S
C1243 C335 1.588 . S
C1245 C237 1.613 . S
C1261 C434 1.613 . S
C1263 C336 1.588 . S
C1279 C351 1.590 . S
C1281 C460 1.613 . S
C1297 C365 1.591 . S
C1299 C421 1.613 . S
C1315 C491 1.613 . S
C1317 C378 1.588 . S
C1333 C463 1.613 . S
C1335 C404 1.588 . S
C1351 C477 1.613 . S
C1353 C407 1.590 . S
C1369 C363 1.613 . S
C1371 C433 1.588 . S
C1387 C377 1.613 . S
C1389 C446 1.590 . S
C1405 C348 1.613 . S
C1407 C448 1.590 . S
C1423 C475 1.588 . S
C1425 C419 1.613 . S
C1441 C390 1.613 . S
C1443 C489 1.589 . S
C1459 C503 1.588 . S
C1461 C392 1.613 . S
C1477 C12 1.722 . S
C1479 C406 1.722 . S
C1495 C379 1.725 . S
C1497 C27 1.725 1_565 S
C1513 C29 1.725 1_455 S
C1515 C405 1.725 . S
C1531 C43 1.725 . S
C1533 C195 1.725 . S
C1549 C197 1.725 . S
C1551 C69 1.725 1_545 S
C1567 C83 1.725 1_655 S
C1569 C180 1.722 . S
C1585 C334 1.725 . S
C1587 C85 1.722 . S
C1603 C111 1.722 1_545 S
C1605 C306 1.725 . S
C1621 C113 1.722 1_655 S
C1623 C320 1.725 . S
C1639 C127 1.722 . S
C1641 C447 1.722 . S
C1657 C152 1.725 1_565 S
C1659 C449 1.722 . S
C1675 C432 1.725 . S
C1677 C166 1.725 1_455 S
C1693 C211 1.725 . S
C1695 C350 1.722 . S
C1711 C364 1.722 . S
C1713 C224 1.722 . S
C1729 C337 1.725 . S
C1731 C239 1.725 . S
C1747 C502 1.725 . S
C1749 C253 1.722 . S
C1765 C279 1.722 . S
C1767 C474 1.725 . S
C1783 C281 1.722 . S
C1785 C488 1.725 . S
