# Generated by pormake.
# Topology lcy-e, (6)-cn, num edge types: 1
# Building blocks:
#     Node 0, Type 0, BuildingBlock: BETDEL_clean_sbu_0, # of connection points: 6
#     Node 1, Type 0, BuildingBlock: BETDEL_clean_sbu_0, # of connection points: 6
#     Node 2, Type 0, BuildingBlock: BETDEL_clean_sbu_0, # of connection points: 6
#     Node 3, Type 0, BuildingBlock: BETDEL_clean_sbu_0, # of connection points: 6
#     Node 4, Type 0, BuildingBlock: BETDEL_clean_sbu_0, # of connection points: 6
#     Node 5, Type 0, BuildingBlock: BETDEL_clean_sbu_0, # of connection points: 6
#     Node 6, Type 0, BuildingBlock: BETDEL_clean_sbu_0, # of connection points: 6
#     Node 7, Type 0, BuildingBlock: BETDEL_clean_sbu_0, # of connection points: 6
#     Node 8, Type 0, BuildingBlock: BETDEL_clean_sbu_0, # of connection points: 6
#     Node 9, Type 0, BuildingBlock: BETDEL_clean_sbu_0, # of connection points: 6
#     Node 10, Type 0, BuildingBlock: BETDEL_clean_sbu_0, # of connection points: 6
#     Node 11, Type 0, BuildingBlock: BETDEL_clean_sbu_0, # of connection points: 6
#     Edge 12, Type (0, 0), BuildingBlock: XIVTED_clean_linker_0, # of connection points: 2
#     Edge 13, Type (0, 0), BuildingBlock: XIVTED_clean_linker_0, # of connection points: 2
#     Edge 14, Type (0, 0), BuildingBlock: XIVTED_clean_linker_0, # of connection points: 2
#     Edge 15, Type (0, 0), BuildingBlock: XIVTED_clean_linker_0, # of connection points: 2
#     Edge 16, Type (0, 0), BuildingBlock: XIVTED_clean_linker_0, # of connection points: 2
#     Edge 17, Type (0, 0), BuildingBlock: XIVTED_clean_linker_0, # of connection points: 2
#     Edge 18, Type (0, 0), BuildingBlock: XIVTED_clean_linker_0, # of connection points: 2
#     Edge 19, Type (0, 0), BuildingBlock: XIVTED_clean_linker_0, # of connection points: 2
#     Edge 20, Type (0, 0), BuildingBlock: XIVTED_clean_linker_0, # of connection points: 2
#     Edge 21, Type (0, 0), BuildingBlock: XIVTED_clean_linker_0, # of connection points: 2
#     Edge 22, Type (0, 0), BuildingBlock: XIVTED_clean_linker_0, # of connection points: 2
#     Edge 23, Type (0, 0), BuildingBlock: XIVTED_clean_linker_0, # of connection points: 2
#     Edge 24, Type (0, 0), BuildingBlock: XIVTED_clean_linker_0, # of connection points: 2
#     Edge 25, Type (0, 0), BuildingBlock: XIVTED_clean_linker_0, # of connection points: 2
#     Edge 26, Type (0, 0), BuildingBlock: XIVTED_clean_linker_0, # of connection points: 2
#     Edge 27, Type (0, 0), BuildingBlock: XIVTED_clean_linker_0, # of connection points: 2
#     Edge 28, Type (0, 0), BuildingBlock: XIVTED_clean_linker_0, # of connection points: 2
#     Edge 29, Type (0, 0), BuildingBlock: XIVTED_clean_linker_0, # of connection points: 2
#     Edge 30, Type (0, 0), BuildingBlock: XIVTED_clean_linker_0, # of connection points: 2
#     Edge 31, Type (0, 0), BuildingBlock: XIVTED_clean_linker_0, # of connection points: 2
#     Edge 32, Type (0, 0), BuildingBlock: XIVTED_clean_linker_0, # of connection points: 2
#     Edge 33, Type (0, 0), BuildingBlock: XIVTED_clean_linker_0, # of connection points: 2
#     Edge 34, Type (0, 0), BuildingBlock: XIVTED_clean_linker_0, # of connection points: 2
#     Edge 35, Type (0, 0), BuildingBlock: XIVTED_clean_linker_0, # of connection points: 2
#     Edge 36, Type (0, 0), BuildingBlock: XIVTED_clean_linker_0, # of connection points: 2
#     Edge 37, Type (0, 0), BuildingBlock: XIVTED_clean_linker_0, # of connection points: 2
#     Edge 38, Type (0, 0), BuildingBlock: XIVTED_clean_linker_0, # of connection points: 2
#     Edge 39, Type (0, 0), BuildingBlock: XIVTED_clean_linker_0, # of connection points: 2
#     Edge 40, Type (0, 0), BuildingBlock: XIVTED_clean_linker_0, # of connection points: 2
#     Edge 41, Type (0, 0), BuildingBlock: XIVTED_clean_linker_0, # of connection points: 2
#     Edge 42, Type (0, 0), BuildingBlock: XIVTED_clean_linker_0, # of connection points: 2
#     Edge 43, Type (0, 0), BuildingBlock: XIVTED_clean_linker_0, # of connection points: 2
#     Edge 44, Type (0, 0), BuildingBlock: XIVTED_clean_linker_0, # of connection points: 2
#     Edge 45, Type (0, 0), BuildingBlock: XIVTED_clean_linker_0, # of connection points: 2
#     Edge 46, Type (0, 0), BuildingBlock: XIVTED_clean_linker_0, # of connection points: 2
#     Edge 47, Type (0, 0), BuildingBlock: XIVTED_clean_linker_0, # of connection points: 2
# Relax obj value: 0.223
# Max RMSD: 0.280
# Mean RMSD: 0.269
data_MOF--net-lcy-e--node1-BETDEL_clean_sbu_0--edge1-XIVTED_clean_linker_0
_symmetry_space_group_name_H-M    P1
_symmetry_Int_Tables_number       1
_symmetry_cell_setting            triclinic
loop_
_symmetry_equiv_pos_as_xyz
'x, y, z'
_cell_length_a     37.855556
_cell_length_b     36.761809
_cell_length_c     38.8042
_cell_angle_alpha  89.940643
_cell_angle_beta   91.294525
_cell_angle_gamma 88.552998
loop_
_atom_site_label
_atom_site_type_symbol
_atom_site_fract_x
_atom_site_fract_y
_atom_site_fract_z
_atom_type_partial_charge
Dy0 Dy 0.12225 0.25953 0.45537 0.0
C1 C 0.1351 0.12745 0.53236 0.0
C2 C 0.12768 0.32057 0.41602 0.0
Dy3 Dy 0.14072 0.19214 0.49851 0.0
O4 O 0.09878 0.30296 0.42026 0.0
O5 O 0.15317 0.3055 0.4343 0.0
O6 O 0.06979 0.23954 0.44065 0.0
O7 O 0.11181 0.20127 0.44901 0.0
C8 C 0.0787 0.20533 0.44325 0.0
C9 C 0.17912 0.25186 0.51171 0.0
O10 O 0.17594 0.17816 0.45546 0.0
O11 O 0.1689 0.2339 0.42766 0.0
O12 O 0.15351 0.15458 0.54355 0.0
O13 O 0.12046 0.13564 0.50279 0.0
O14 O 0.19235 0.21896 0.51532 0.0
O15 O 0.1469 0.25015 0.50458 0.0
O16 O 0.0945 0.27381 0.50483 0.0
O17 O 0.09217 0.21425 0.52396 0.0
C18 C 0.18458 0.20127 0.43116 0.0
C19 C 0.08203 0.24889 0.52611 0.0
Dy20 Dy 0.99662 0.8557 0.68617 0.0
C21 C 0.11528 0.8569 0.77947 0.0
C22 C 0.9439 0.86782 0.63841 0.0
Dy23 Dy 0.05719 0.8675 0.73744 0.0
O24 O 0.95915 0.83641 0.64481 0.0
O25 O 0.95611 0.89208 0.65952 0.0
O26 O 0.01814 0.80149 0.67207 0.0
O27 O 0.05359 0.84276 0.68603 0.0
C28 C 0.05083 0.80939 0.67851 0.0
C29 C 0.9985 0.91022 0.74566 0.0
O30 O 0.07734 0.90144 0.69523 0.0
O31 O 0.02439 0.90388 0.66412 0.0
O32 O 0.09701 0.8872 0.77666 0.0
O33 O 0.10175 0.83243 0.75945 0.0
O34 O 0.02988 0.92021 0.75533 0.0
O35 O 0.00062 0.87767 0.73697 0.0
O36 O 0.9758 0.82675 0.73259 0.0
O37 O 0.03067 0.81905 0.75973 0.0
C38 C 0.05691 0.91529 0.67024 0.0
C39 C 0.99672 0.81121 0.75678 0.0
Dy40 Dy 0.36073 0.80168 0.00219 0.0
C41 C 0.37256 0.70944 0.87911 0.0
C42 C 0.36734 0.85201 0.05251 0.0
Dy43 Dy 0.37131 0.74337 0.94128 0.0
O44 O 0.36639 0.85838 0.01967 0.0
O45 O 0.36492 0.81719 0.05862 0.0
O46 O 0.31419 0.83268 0.97743 0.0
O47 O 0.33833 0.78995 0.95242 0.0
C48 C 0.31401 0.81355 0.94945 0.0
C49 C 0.40372 0.72903 0.00263 0.0
O50 O 0.40586 0.78775 0.92447 0.0
O51 O 0.41057 0.81889 0.97659 0.0
O52 O 0.39708 0.70586 0.90301 0.0
O53 O 0.34722 0.73086 0.88949 0.0
O54 O 0.39307 0.70366 0.98161 0.0
O55 O 0.39903 0.75962 0.98846 0.0
O56 O 0.33076 0.75294 0.01994 0.0
O57 O 0.32225 0.72573 0.96582 0.0
C58 C 0.4206 0.81249 0.94447 0.0
C59 C 0.31579 0.72847 0.9992 0.0
Dy60 Dy 0.51359 0.12008 0.19543 0.0
C61 C 0.39191 0.1349 0.28398 0.0
C62 C 0.55253 0.10508 0.13838 0.0
Dy63 Dy 0.45276 0.11957 0.24961 0.0
O64 O 0.51875 0.11141 0.13887 0.0
O65 O 0.56602 0.10756 0.1696 0.0
O66 O 0.49887 0.17803 0.18349 0.0
O67 O 0.45954 0.14208 0.1982 0.0
C68 C 0.46589 0.17466 0.19084 0.0
C69 C 0.51278 0.08332 0.26842 0.0
O70 O 0.43248 0.07655 0.2148 0.0
O71 O 0.48334 0.06997 0.18216 0.0
O72 O 0.40896 0.10366 0.28477 0.0
O73 O 0.40804 0.15747 0.26432 0.0
O74 O 0.4911 0.0977 0.29051 0.0
O75 O 0.49947 0.0863 0.23854 0.0
O76 O 0.53883 0.1485 0.24086 0.0
O77 O 0.48476 0.16787 0.26284 0.0
C78 C 0.45125 0.05993 0.19086 0.0
C79 C 0.51969 0.16894 0.26222 0.0
Dy80 Dy 0.63071 0.26125 0.56286 0.0
C81 C 0.62718 0.38027 0.4632 0.0
C82 C 0.63276 0.20368 0.60706 0.0
Dy83 Dy 0.63876 0.32143 0.50553 0.0
O84 O 0.60555 0.22567 0.60221 0.0
O85 O 0.65799 0.21218 0.58655 0.0
O86 O 0.61637 0.3058 0.59972 0.0
O87 O 0.60298 0.31182 0.54796 0.0
C88 C 0.60177 0.32736 0.57678 0.0
C89 C 0.67891 0.25974 0.5002 0.0
O90 O 0.67642 0.3395 0.54649 0.0
O91 O 0.68502 0.28273 0.57205 0.0
O92 O 0.63494 0.34735 0.45297 0.0
O93 O 0.62634 0.38116 0.49668 0.0
O94 O 0.68884 0.29061 0.48745 0.0
O95 O 0.64859 0.26417 0.51127 0.0
O96 O 0.59398 0.2409 0.52055 0.0
O97 O 0.58971 0.29416 0.4874 0.0
C98 C 0.69486 0.31658 0.56656 0.0
C99 C 0.58047 0.26027 0.49398 0.0
Dy100 Dy 0.94733 0.38884 0.75591 0.0
C101 C 0.02265 0.3585 0.8834 0.0
C102 C 0.91108 0.3874 0.69457 0.0
Dy103 Dy 0.99103 0.36107 0.81972 0.0
O104 O 0.91097 0.41481 0.71574 0.0
O105 O 0.93176 0.36148 0.70658 0.0
O106 O 0.93092 0.43977 0.78227 0.0
O107 O 0.94126 0.39195 0.81152 0.0
C108 C 0.93546 0.42598 0.81297 0.0
C109 C 0.00373 0.32834 0.75894 0.0
O110 O 0.94425 0.32803 0.82729 0.0
O111 O 0.91731 0.33963 0.7738 0.0
O112 O 0.03049 0.33671 0.85812 0.0
O113 O 0.99784 0.38144 0.87374 0.0
O114 O 0.00741 0.31096 0.78816 0.0
O115 O 0.99683 0.36104 0.7648 0.0
O116 O 0.99823 0.41846 0.7486 0.0
O117 O 0.02115 0.4099 0.80433 0.0
C118 C 0.91977 0.32148 0.80352 0.0
C119 C 0.02221 0.42512 0.77338 0.0
Dy120 Dy 0.87098 0.74906 0.05712 0.0
C121 C 0.86866 0.61846 0.97662 0.0
C122 C 0.86177 0.80921 0.0971 0.0
Dy123 Dy 0.85793 0.68283 0.00966 0.0
O124 O 0.89182 0.79214 0.09278 0.0
O125 O 0.83709 0.79384 0.07905 0.0
O126 O 0.92197 0.7239 0.07596 0.0
O127 O 0.8797 0.69032 0.06173 0.0
C128 C 0.91193 0.69084 0.07081 0.0
C129 C 0.82006 0.74435 0.99473 0.0
O130 O 0.82133 0.66861 0.05089 0.0
O131 O 0.82022 0.72568 0.0766 0.0
O132 O 0.84149 0.64028 0.97126 0.0
O133 O 0.88985 0.63194 0.99972 0.0
O134 O 0.80883 0.71224 0.98641 0.0
O135 O 0.85107 0.74111 0.00594 0.0
O136 O 0.90065 0.76492 0.0096 0.0
O137 O 0.90684 0.70639 0.98771 0.0
C138 C 0.80717 0.69272 0.07205 0.0
C139 C 0.91564 0.74108 0.98813 0.0
Dy140 Dy 0.54086 0.62187 0.24081 0.0
C141 C 0.46548 0.62177 0.36518 0.0
C142 C 0.5812 0.63225 0.18439 0.0
Dy143 Dy 0.49629 0.63561 0.30401 0.0
O144 O 0.57892 0.60173 0.20101 0.0
O145 O 0.56005 0.65653 0.19765 0.0
O146 O 0.55882 0.5679 0.25995 0.0
O147 O 0.5486 0.60976 0.29607 0.0
C148 C 0.55601 0.57603 0.29231 0.0
C149 C 0.47774 0.67542 0.247 0.0
O150 O 0.53828 0.67387 0.31836 0.0
O151 O 0.56583 0.67131 0.26559 0.0
O152 O 0.45943 0.65102 0.34682 0.0
O153 O 0.48801 0.60045 0.35005 0.0
O154 O 0.47164 0.68674 0.27817 0.0
O155 O 0.4889 0.6433 0.24906 0.0
O156 O 0.49152 0.5911 0.2254 0.0
O157 O 0.46966 0.58745 0.28061 0.0
C158 C 0.56154 0.68596 0.29659 0.0
C159 C 0.4689 0.57752 0.24778 0.0
Dy160 Dy 0.23554 0.42282 0.12412 0.0
C161 C 0.11162 0.51614 0.11295 0.0
C162 C 0.28782 0.37258 0.13797 0.0
Dy163 Dy 0.17265 0.47747 0.12774 0.0
O164 O 0.29297 0.40719 0.1339 0.0
O165 O 0.25459 0.36575 0.13397 0.0
O166 O 0.21499 0.40089 0.07502 0.0
O167 O 0.17851 0.42034 0.11181 0.0
C168 C 0.18206 0.40806 0.08149 0.0
C169 C 0.23171 0.49568 0.16396 0.0
O170 O 0.15755 0.43673 0.16653 0.0
O171 O 0.21531 0.41833 0.17795 0.0
O172 O 0.1244 0.50991 0.1438 0.0
O173 O 0.13234 0.50166 0.0903 0.0
O174 O 0.2005 0.50818 0.17196 0.0
O175 O 0.2288 0.47922 0.13615 0.0
O176 O 0.25327 0.46451 0.08616 0.0
O177 O 0.19824 0.49349 0.07844 0.0
C178 C 0.18185 0.42127 0.18702 0.0
C179 C 0.23182 0.48856 0.06996 0.0
Dy180 Dy 0.68316 0.98298 0.85257 0.0
C181 C 0.76782 0.10979 0.85236 0.0
C182 C 0.64109 0.92581 0.86581 0.0
Dy183 Dy 0.73196 0.04789 0.86371 0.0
O184 O 0.64317 0.94174 0.83602 0.0
O185 O 0.66288 0.94031 0.88772 0.0
O186 O 0.66523 0.00354 0.80139 0.0
O187 O 0.67905 0.04116 0.84055 0.0
C188 C 0.67081 0.03735 0.80886 0.0
C189 C 0.74588 0.98812 0.90273 0.0
O190 O 0.69275 0.06467 0.90243 0.0
O191 O 0.6617 0.01091 0.90029 0.0
O192 O 0.77763 0.08446 0.87419 0.0
O193 O 0.73835 0.10145 0.83698 0.0
O194 O 0.75327 0.02068 0.91347 0.0
O195 O 0.7355 0.98997 0.87207 0.0
O196 O 0.73186 0.96372 0.82389 0.0
O197 O 0.75446 0.02126 0.81663 0.0
C198 C 0.66887 0.04281 0.9147 0.0
C199 C 0.75429 0.98611 0.809 0.0
Dy200 Dy 0.7618 0.9468 0.3816 0.0
C201 C 0.88491 0.03723 0.37873 0.0
C202 C 0.71385 0.89354 0.36984 0.0
Dy203 Dy 0.82416 0.99912 0.37078 0.0
O204 O 0.74788 0.88915 0.37147 0.0
O205 O 0.70523 0.9276 0.37572 0.0
O206 O 0.78532 0.92696 0.43089 0.0
O207 O 0.81897 0.94394 0.39116 0.0
C208 C 0.81735 0.93427 0.42245 0.0
C209 C 0.7628 0.01551 0.33634 0.0
O210 O 0.83704 0.95859 0.33098 0.0
O211 O 0.77967 0.93835 0.32683 0.0
O212 O 0.85705 0.04805 0.36102 0.0
O213 O 0.87963 0.00551 0.3921 0.0
O214 O 0.79341 0.02406 0.32443 0.0
O215 O 0.7674 0.00212 0.36566 0.0
O216 O 0.74652 0.99208 0.41845 0.0
O217 O 0.80226 0.01784 0.42102 0.0
C218 C 0.81201 0.94074 0.3146 0.0
C219 C 0.76941 0.01562 0.43201 0.0
Dy220 Dy 0.3223 0.49291 0.63991 0.0
C221 C 0.23401 0.62008 0.6267 0.0
C222 C 0.36719 0.43443 0.6333 0.0
Dy223 Dy 0.27423 0.5576 0.62305 0.0
O224 O 0.36206 0.45224 0.6617 0.0
O225 O 0.34628 0.44744 0.60911 0.0
O226 O 0.33983 0.51597 0.68945 0.0
O227 O 0.32701 0.55185 0.64801 0.0
C228 C 0.33533 0.54958 0.67987 0.0
C229 C 0.26161 0.4958 0.58724 0.0
O230 O 0.31791 0.57383 0.59034 0.0
O231 O 0.34603 0.51722 0.59212 0.0
O232 O 0.23075 0.59552 0.6029 0.0
O233 O 0.25898 0.61041 0.64837 0.0
O234 O 0.25598 0.52806 0.57417 0.0
O235 O 0.27015 0.49889 0.61832 0.0
O236 O 0.2742 0.47821 0.6702 0.0
O237 O 0.2518 0.53729 0.67176 0.0
C238 C 0.34182 0.55045 0.57892 0.0
C239 C 0.25174 0.50321 0.6826 0.0
H240 H 0.2451 0.26435 0.54126 0.0
H241 H 0.22555 0.48173 0.52627 0.0
H242 H 0.15169 0.31949 0.49957 0.0
H243 H 0.27977 0.42874 0.61218 0.0
H244 H 0.20949 0.42143 0.50395 0.0
H245 H 0.26951 0.32426 0.55595 0.0
C246 C 0.23005 0.28892 0.53468 0.0
C247 C 0.19646 0.2869 0.51891 0.0
C248 C 0.22538 0.42317 0.52743 0.0
C249 C 0.22427 0.35504 0.5349 0.0
C250 C 0.23457 0.45748 0.54007 0.0
C251 C 0.25405 0.46023 0.57105 0.0
C252 C 0.23641 0.39153 0.54556 0.0
C253 C 0.26493 0.42789 0.58806 0.0
C254 C 0.24389 0.32299 0.54307 0.0
C255 C 0.1779 0.31965 0.51122 0.0
N256 N 0.25604 0.39493 0.5751 0.0
N257 N 0.19205 0.35225 0.51911 0.0
H258 H 0.79459 0.0205 0.76223 0.0
H259 H 0.95872 0.88337 0.79584 0.0
H260 H 0.78792 0.91993 0.81874 0.0
H261 H 0.961 0.96993 0.72122 0.0
H262 H 0.8969 0.89909 0.807 0.0
H263 H 0.85511 0.00354 0.74677 0.0
C264 C 0.80557 0.99438 0.77063 0.0
C265 C 0.78612 0.97154 0.79176 0.0
C266 C 0.91087 0.91498 0.78842 0.0
C267 C 0.85585 0.95255 0.77512 0.0
C268 C 0.94624 0.90627 0.78238 0.0
C269 C 0.96493 0.92577 0.75802 0.0
C270 C 0.89391 0.94349 0.76989 0.0
C271 C 0.94761 0.95484 0.7408 0.0
C272 C 0.84024 0.98489 0.76206 0.0
C273 C 0.80174 0.93818 0.80212 0.0
N274 N 0.91296 0.96284 0.74702 0.0
N275 N 0.83585 0.92995 0.79413 0.0
H276 H 0.33042 0.69256 0.05951 0.0
H277 H 0.19982 0.53094 0.02009 0.0
H278 H 0.26041 0.69322 0.97028 0.0
H279 H 0.29732 0.51664 0.07885 0.0
H280 H 0.21758 0.59215 0.00418 0.0
H281 H 0.31165 0.63093 0.07321 0.0
C282 C 0.31024 0.68019 0.04349 0.0
C283 C 0.29689 0.69783 0.01377 0.0
C284 C 0.23534 0.57534 0.02006 0.0
C285 C 0.27605 0.62743 0.02865 0.0
C286 C 0.22546 0.54027 0.02873 0.0
C287 C 0.24713 0.5187 0.05079 0.0
C288 C 0.26674 0.58909 0.03413 0.0
C289 C 0.27989 0.53224 0.06162 0.0
C290 C 0.30007 0.64483 0.0509 0.0
C291 C 0.27125 0.68041 0.99348 0.0
N292 N 0.28841 0.56689 0.05373 0.0
N293 N 0.26176 0.64606 0.00119 0.0
H294 H 0.56457 0.06208 0.22377 0.0
H295 H 0.70816 0.03409 0.37616 0.0
H296 H 0.54491 0.07898 0.33162 0.0
H297 H 0.73687 0.02672 0.26943 0.0
H298 H 0.64818 0.05013 0.35878 0.0
H299 H 0.627 0.0478 0.23828 0.0
C300 C 0.57342 0.0627 0.25047 0.0
C301 C 0.54971 0.07197 0.27656 0.0
C302 C 0.66735 0.04519 0.33892 0.0
C303 C 0.62067 0.05562 0.29329 0.0
C304 C 0.7018 0.03588 0.34887 0.0
C305 C 0.72754 0.02875 0.32419 0.0
C306 C 0.65801 0.04721 0.30381 0.0
C307 C 0.71776 0.03215 0.28923 0.0
C308 C 0.60899 0.05466 0.2587 0.0
C309 C 0.56229 0.07201 0.31073 0.0
N310 N 0.68352 0.04089 0.27998 0.0
N311 N 0.59684 0.06406 0.31804 0.0
H312 H 0.64868 0.19608 0.51501 0.0
H313 H 0.80969 0.06672 0.46407 0.0
H314 H 0.74505 0.23906 0.47604 0.0
H315 H 0.70104 0.03663 0.44742 0.0
H316 H 0.78943 0.12626 0.4843 0.0
H317 H 0.67122 0.13472 0.50514 0.0
C318 C 0.67479 0.1927 0.50453 0.0
C319 C 0.6949 0.22293 0.49597 0.0
C320 C 0.77011 0.1064 0.47665 0.0
C321 C 0.72102 0.15215 0.48517 0.0
C322 C 0.7815 0.0722 0.46536 0.0
C323 C 0.75698 0.0466 0.45342 0.0
C324 C 0.73393 0.11492 0.47686 0.0
C325 C 0.72089 0.05538 0.45623 0.0
C326 C 0.68753 0.15751 0.4989 0.0
C327 C 0.72863 0.21656 0.48276 0.0
N328 N 0.71044 0.08896 0.46746 0.0
N329 N 0.74074 0.1817 0.47775 0.0
H330 H 0.03422 0.47479 0.72221 0.0
H331 H 0.23785 0.43709 0.71298 0.0
H332 H 0.0869 0.41129 0.80273 0.0
H333 H 0.19431 0.54587 0.69714 0.0
H334 H 0.18159 0.42015 0.73873 0.0
H335 H 0.0923 0.49524 0.70383 0.0
C336 C 0.05786 0.46558 0.73622 0.0
C337 C 0.05575 0.44175 0.76422 0.0
C338 C 0.18486 0.44777 0.72982 0.0
C339 C 0.12167 0.46362 0.74269 0.0
C340 C 0.21683 0.45742 0.71527 0.0
C341 C 0.22087 0.49284 0.70277 0.0
C342 C 0.15677 0.47347 0.73083 0.0
C343 C 0.19261 0.51816 0.70628 0.0
C344 C 0.09084 0.47709 0.72574 0.0
C345 C 0.08726 0.43015 0.78131 0.0
N346 N 0.1616 0.50781 0.71939 0.0
N347 N 0.11901 0.44076 0.76994 0.0
H348 H 0.72888 0.92151 0.87901 0.0
H349 H 0.84335 0.81019 0.01474 0.0
H350 H 0.77763 0.97411 0.9666 0.0
H351 H 0.76021 0.76056 0.9549 0.0
H352 H 0.82046 0.87003 0.99764 0.0
H353 H 0.74068 0.86271 0.90581 0.0
C354 C 0.74168 0.92079 0.90421 0.0
C355 C 0.75201 0.95295 0.92073 0.0
C356 C 0.8068 0.84617 0.98867 0.0
C357 C 0.76657 0.88503 0.95124 0.0
C358 C 0.81979 0.81186 0.99847 0.0
C359 C 0.80349 0.78024 0.98642 0.0
C360 C 0.77776 0.84909 0.96581 0.0
C361 C 0.77349 0.78421 0.96484 0.0
C362 C 0.74839 0.88703 0.91949 0.0
C363 C 0.76913 0.95003 0.95304 0.0
N364 N 0.76185 0.81808 0.95478 0.0
N365 N 0.77631 0.91654 0.9671 0.0
H366 H 0.44958 0.55802 0.18141 0.0
H367 H 0.24744 0.53104 0.22525 0.0
H368 H 0.41374 0.55562 0.2863 0.0
H369 H 0.29551 0.48334 0.13568 0.0
H370 H 0.30685 0.54765 0.24658 0.0
H371 H 0.39154 0.53664 0.16198 0.0
C372 C 0.42986 0.55247 0.20038 0.0
C373 C 0.43672 0.5587 0.23551 0.0
C374 C 0.30414 0.53345 0.22227 0.0
C375 C 0.37002 0.53543 0.21342 0.0
C376 C 0.27034 0.52413 0.21013 0.0
C377 C 0.26649 0.50596 0.1786 0.0
C378 C 0.33393 0.52507 0.20234 0.0
C379 C 0.29708 0.49749 0.16001 0.0
C380 C 0.39667 0.54052 0.18928 0.0
C381 C 0.40983 0.55136 0.2589 0.0
N382 N 0.32936 0.50736 0.17195 0.0
N383 N 0.37759 0.54062 0.24742 0.0
H384 H 0.49819 0.2334 0.28887 0.0
H385 H 0.59514 0.19186 0.47026 0.0
H386 H 0.57601 0.14688 0.30334 0.0
H387 H 0.53047 0.2879 0.44922 0.0
H388 H 0.58418 0.17142 0.41098 0.0
H389 H 0.5096 0.25352 0.34778 0.0
C390 C 0.51854 0.21932 0.30423 0.0
C391 C 0.53607 0.18833 0.29137 0.0
C392 C 0.57191 0.19666 0.41954 0.0
C393 C 0.54816 0.21013 0.35944 0.0
C394 C 0.57746 0.20792 0.45362 0.0
C395 C 0.56352 0.24156 0.46468 0.0
C396 C 0.55213 0.21915 0.39659 0.0
C397 C 0.54157 0.26172 0.44174 0.0
C398 C 0.52464 0.23042 0.33807 0.0
C399 C 0.56192 0.17085 0.31237 0.0
N400 N 0.53685 0.25039 0.40872 0.0
N401 N 0.56678 0.18159 0.3457 0.0
H402 H 0.05501 0.20464 0.57524 0.0
H403 H 0.0061 0.36884 0.70096 0.0
H404 H 0.06524 0.318 0.54885 0.0
H405 H 0.01841 0.25793 0.73657 0.0
H406 H 0.01927 0.34929 0.64302 0.0
H407 H 0.03266 0.22258 0.63133 0.0
C408 C 0.0521 0.23338 0.58095 0.0
C409 C 0.0624 0.2599 0.55723 0.0
C410 C 0.01908 0.32909 0.66334 0.0
C411 C 0.03687 0.28044 0.62177 0.0
C412 C 0.0115 0.3402 0.69662 0.0
C413 C 0.01122 0.31497 0.72383 0.0
C414 C 0.02659 0.2923 0.65683 0.0
C415 C 0.01846 0.27827 0.71638 0.0
C416 C 0.03949 0.2435 0.61316 0.0
C417 C 0.05774 0.2966 0.56621 0.0
N418 N 0.02594 0.26798 0.68348 0.0
N419 N 0.04555 0.30576 0.59785 0.0
H420 H 0.93064 0.82187 0.78275 0.0
H421 H 0.96885 0.70686 0.95397 0.0
H422 H 0.0289 0.76198 0.80036 0.0
H423 H 0.90074 0.80267 0.95102 0.0
H424 H 0.98728 0.72037 0.89526 0.0
H425 H 0.91288 0.80601 0.84114 0.0
C426 C 0.94802 0.80451 0.7985 0.0
C427 C 0.9814 0.79341 0.78686 0.0
C428 C 0.96873 0.73872 0.90769 0.0
C429 C 0.96149 0.77564 0.85353 0.0
C430 C 0.95854 0.73126 0.94124 0.0
C431 C 0.93368 0.75399 0.95742 0.0
C432 C 0.9532 0.76855 0.88996 0.0
C433 C 0.92051 0.78488 0.93966 0.0
C434 C 0.93813 0.796 0.83198 0.0
C435 C 0.003 0.77123 0.80847 0.0
N436 N 0.93004 0.79099 0.90661 0.0
N437 N 0.99276 0.76318 0.84085 0.0
H438 H 0.43213 0.63845 0.20683 0.0
H439 H 0.42969 0.77887 0.04856 0.0
H440 H 0.48395 0.74127 0.21339 0.0
H441 H 0.3992 0.66693 0.04092 0.0
H442 H 0.44357 0.76958 0.11021 0.0
H443 H 0.41228 0.65307 0.14823 0.0
C444 C 0.43881 0.6645 0.19604 0.0
C445 C 0.45965 0.68873 0.21502 0.0
C446 C 0.43385 0.74708 0.09504 0.0
C447 C 0.43752 0.70552 0.14723 0.0
C448 C 0.42592 0.75234 0.05988 0.0
C449 C 0.4133 0.72358 0.0396 0.0
C450 C 0.42889 0.71286 0.11007 0.0
C451 C 0.40903 0.68979 0.05551 0.0
C452 C 0.42765 0.67275 0.16242 0.0
C453 C 0.46754 0.72208 0.19975 0.0
N454 N 0.41668 0.68543 0.08972 0.0
N455 N 0.4567 0.72942 0.16655 0.0
H456 H 0.18907 0.3523 0.39922 0.0
H457 H 0.11552 0.41686 0.21362 0.0
H458 H 0.07962 0.34503 0.3672 0.0
H459 H 0.22616 0.40083 0.24049 0.0
H460 H 0.10065 0.40005 0.27251 0.0
H461 H 0.20147 0.3819 0.34459 0.0
C462 C 0.16749 0.3577 0.38096 0.0
C463 C 0.13337 0.34592 0.38745 0.0
C464 C 0.12815 0.40031 0.26546 0.0
C465 C 0.14743 0.37904 0.32473 0.0
C466 C 0.13668 0.40976 0.23184 0.0
C467 C 0.17214 0.40993 0.22201 0.0
C468 C 0.1553 0.39128 0.28944 0.0
C469 C 0.19845 0.40071 0.24677 0.0
C470 C 0.17463 0.37429 0.34967 0.0
C471 C 0.10634 0.35358 0.36302 0.0
N472 N 0.18949 0.39177 0.27931 0.0
N473 N 0.11403 0.36929 0.33246 0.0
H474 H 0.92217 0.82097 0.58835 0.0
H475 H 0.85739 0.98075 0.4597 0.0
H476 H 0.92346 0.93497 0.6145 0.0
H477 H 0.8411 0.86709 0.44 0.0
H478 H 0.89105 0.96429 0.51242 0.0
H479 H 0.89851 0.83711 0.53103 0.0
C480 C 0.91693 0.84937 0.58216 0.0
C481 C 0.92442 0.87669 0.60617 0.0
C482 C 0.88087 0.94288 0.49614 0.0
C483 C 0.89835 0.89542 0.54051 0.0
C484 C 0.86231 0.95227 0.46578 0.0
C485 C 0.84724 0.9251 0.44545 0.0
C486 C 0.88389 0.90612 0.50611 0.0
C487 C 0.85301 0.88866 0.4549 0.0
C488 C 0.9038 0.8586 0.54936 0.0
C489 C 0.91767 0.91308 0.59677 0.0
N490 N 0.87062 0.88018 0.48478 0.0
N491 N 0.90511 0.92143 0.56458 0.0
H492 H 0.31717 0.62304 0.67761 0.0
H493 H 0.42056 0.65923 0.85608 0.0
H494 H 0.3826 0.54358 0.73254 0.0
H495 H 0.32557 0.7192 0.82536 0.0
H496 H 0.41799 0.62608 0.80146 0.0
H497 H 0.33106 0.66791 0.72277 0.0
C498 C 0.33466 0.61519 0.69884 0.0
C499 C 0.34782 0.57936 0.70199 0.0
C500 C 0.39791 0.64677 0.80655 0.0
C501 C 0.36463 0.63024 0.75267 0.0
C502 C 0.39935 0.66559 0.83767 0.0
C503 C 0.37291 0.69141 0.84532 0.0
C504 C 0.3699 0.65397 0.78293 0.0
C505 C 0.34618 0.69902 0.8205 0.0
C506 C 0.34263 0.64071 0.72449 0.0
C507 C 0.3712 0.57074 0.72952 0.0
N508 N 0.34516 0.68013 0.79041 0.0
N509 N 0.37868 0.59589 0.75385 0.0
H510 H 0.52303 0.07678 0.08074 0.0
H511 H 0.69101 0.09184 0.96322 0.0
H512 H 0.62354 0.10941 0.1233 0.0
H513 H 0.60777 0.0166 0.94134 0.0
H514 H 0.66432 0.10569 0.01879 0.0
H515 H 0.55141 0.06126 0.0267 0.0
C516 C 0.55119 0.08067 0.0787 0.0
C517 C 0.57099 0.09446 0.10654 0.0
C518 C 0.65193 0.08619 0.00178 0.0
C519 C 0.60359 0.07716 0.04432 0.0
C520 C 0.66691 0.0785 0.96988 0.0
C521 C 0.65147 0.05316 0.94735 0.0
C522 C 0.6209 0.06897 0.01106 0.0
C523 C 0.62055 0.03637 0.95774 0.0
C524 C 0.56735 0.07166 0.04783 0.0
C525 C 0.60738 0.09875 0.10247 0.0
N526 N 0.60616 0.04478 0.98867 0.0
N527 N 0.62252 0.09048 0.07172 0.0
H528 H 0.68246 0.1494 0.61431 0.0
H529 H 0.64492 0.10817 0.81234 0.0
H530 H 0.59527 0.20105 0.6665 0.0
H531 H 0.69316 0.02998 0.7441 0.0
H532 H 0.63536 0.14999 0.76284 0.0
H533 H 0.69467 0.1115 0.66533 0.0
C534 C 0.66568 0.15246 0.63643 0.0
C535 C 0.63758 0.178 0.63613 0.0
C536 C 0.64831 0.12376 0.75895 0.0
C537 C 0.65203 0.13562 0.6949 0.0
C538 C 0.65409 0.10021 0.78714 0.0
C539 C 0.66972 0.06573 0.78205 0.0
C540 C 0.65899 0.11278 0.72594 0.0
C541 C 0.68082 0.05633 0.74894 0.0
C542 C 0.67275 0.13101 0.66556 0.0
C543 C 0.61688 0.18124 0.6656 0.0
N544 N 0.6753 0.07969 0.72219 0.0
N545 N 0.62467 0.16046 0.69399 0.0
H546 H 0.11184 0.43049 0.07848 0.0
H547 H 0.07755 0.3149 0.90634 0.0
H548 H 0.18778 0.35744 0.03179 0.0
H549 H 0.00968 0.4047 0.93677 0.0
H550 H 0.11193 0.32164 0.95992 0.0
H551 H 0.06793 0.41334 0.03382 0.0
C552 C 0.11905 0.41059 0.05915 0.0
C553 C 0.15349 0.39578 0.05835 0.0
C554 C 0.08932 0.33971 0.95505 0.0
C555 C 0.1039 0.37584 0.00797 0.0
C556 C 0.06972 0.33578 0.92452 0.0
C557 C 0.04115 0.35957 0.91708 0.0
C558 C 0.08034 0.36772 0.97818 0.0
C559 C 0.03184 0.38604 0.94154 0.0
C560 C 0.09414 0.40086 0.03374 0.0
C561 C 0.16163 0.36994 0.03301 0.0
N562 N 0.05163 0.38968 0.97093 0.0
N563 N 0.13712 0.36094 0.00881 0.0
H564 H 0.87631 0.93392 0.28419 0.0
H565 H 0.79843 0.83969 0.11427 0.0
H566 H 0.76569 0.91198 0.26734 0.0
H567 H 0.90956 0.83956 0.14149 0.0
H568 H 0.78609 0.87616 0.16544 0.0
H569 H 0.88885 0.90802 0.22779 0.0
C570 C 0.85462 0.92371 0.26864 0.0
C571 C 0.81989 0.92489 0.28063 0.0
C572 C 0.81322 0.86849 0.16003 0.0
C573 C 0.83412 0.8955 0.21593 0.0
C574 C 0.82029 0.84792 0.13074 0.0
C575 C 0.85502 0.83643 0.12397 0.0
C576 C 0.84111 0.87763 0.18257 0.0
C577 C 0.8824 0.84778 0.146 0.0
C578 C 0.86184 0.90897 0.23642 0.0
C579 C 0.79288 0.91135 0.25928 0.0
N580 N 0.87483 0.86755 0.17457 0.0
N581 N 0.80059 0.89717 0.22795 0.0
H582 H 0.39272 0.51044 0.54523 0.0
H583 H 0.41787 0.66316 0.40104 0.0
H584 H 0.34025 0.61617 0.54596 0.0
H585 H 0.47608 0.56076 0.4039 0.0
H586 H 0.39011 0.64693 0.45518 0.0
H587 H 0.42501 0.52891 0.49447 0.0
C588 C 0.38815 0.53758 0.53491 0.0
C589 C 0.36358 0.56169 0.5498 0.0
C590 C 0.40906 0.62806 0.44403 0.0
C591 C 0.40022 0.58291 0.49164 0.0
C592 C 0.42482 0.63733 0.41317 0.0
C593 C 0.44908 0.61318 0.39808 0.0
C594 C 0.4176 0.59435 0.45972 0.0
C595 C 0.45734 0.58007 0.41474 0.0
C596 C 0.40655 0.54811 0.50589 0.0
C597 C 0.35878 0.59655 0.5353 0.0
N598 N 0.44152 0.57155 0.44462 0.0
N599 N 0.37677 0.60602 0.50696 0.0
H600 H 0.22059 0.13572 0.42814 0.0
H601 H 0.35392 0.19903 0.28342 0.0
H602 H 0.21471 0.24191 0.38038 0.0
H603 H 0.35705 0.09201 0.32914 0.0
H604 H 0.30213 0.21488 0.31757 0.0
H605 H 0.26953 0.11895 0.3911 0.0
C606 C 0.22945 0.15555 0.40979 0.0
C607 C 0.21339 0.19039 0.40753 0.0
C608 C 0.31403 0.18788 0.32008 0.0
C609 C 0.26987 0.17121 0.36488 0.0
C610 C 0.3436 0.17882 0.30059 0.0
C611 C 0.35981 0.14417 0.30355 0.0
C612 C 0.30058 0.16213 0.34281 0.0
C613 C 0.34535 0.11904 0.32612 0.0
C614 C 0.2575 0.14589 0.38859 0.0
C615 C 0.22617 0.21476 0.38311 0.0
N616 N 0.31665 0.12854 0.34495 0.0
N617 N 0.2537 0.20475 0.36286 0.0
H618 H 0.16114 0.10642 0.59608 0.0
H619 H 0.02924 0.94131 0.60904 0.0
H620 H 0.09253 0.07273 0.51242 0.0
H621 H 0.11576 0.95597 0.68172 0.0
H622 H 0.05106 0.99101 0.57439 0.0
H623 H 0.14437 0.05266 0.62902 0.0
C624 C 0.14285 0.08751 0.58457 0.0
C625 C 0.12811 0.09394 0.55161 0.0
C626 C 0.06542 0.98323 0.59782 0.0
C627 C 0.10856 0.03295 0.58902 0.0
C628 C 0.05289 0.95491 0.61769 0.0
C629 C 0.07067 0.94446 0.64837 0.0
C630 C 0.09572 0.00162 0.60885 0.0
C631 C 0.10127 0.96304 0.6582 0.0
C632 C 0.13327 0.05691 0.60332 0.0
C633 C 0.10445 0.06877 0.53782 0.0
N634 N 0.1127 0.99091 0.63862 0.0
N635 N 0.09521 0.03955 0.55668 0.0
H636 H 0.14636 0.90609 0.82196 0.0
H637 H 0.28974 0.76372 0.90202 0.0
H638 H 0.15493 0.79435 0.78875 0.0
H639 H 0.27825 0.87561 0.9336 0.0
H640 H 0.24327 0.77444 0.85764 0.0
H641 H 0.19721 0.89565 0.86082 0.0
C642 C 0.15906 0.87936 0.82285 0.0
C643 C 0.14645 0.851 0.80233 0.0
C644 C 0.25124 0.79672 0.87404 0.0
C645 C 0.20463 0.83869 0.84675 0.0
C646 C 0.27805 0.79067 0.89901 0.0
C647 C 0.28814 0.81896 0.92096 0.0
C648 C 0.23453 0.83128 0.87133 0.0
C649 C 0.2712 0.85308 0.91707 0.0
C650 C 0.18811 0.87336 0.84501 0.0
C651 C 0.16387 0.81689 0.80433 0.0
N652 N 0.24525 0.85827 0.89282 0.0
N653 N 0.19207 0.8116 0.82628 0.0
H654 H 0.46511 0.03749 0.12618 0.0
H655 H 0.381 0.84702 0.12289 0.0
H656 H 0.4046 0.01045 0.21526 0.0
H657 H 0.3672 0.92342 0.03875 0.0
H658 H 0.39879 0.89798 0.16072 0.0
H659 H 0.44094 0.98522 0.09606 0.0
C660 C 0.44683 0.02042 0.13943 0.0
C661 C 0.43655 0.02832 0.17307 0.0
C662 C 0.39124 0.90325 0.13406 0.0
C663 C 0.40935 0.96842 0.13899 0.0
C664 C 0.38118 0.87442 0.11262 0.0
C665 C 0.37318 0.88112 0.07768 0.0
C666 C 0.39372 0.93824 0.11987 0.0
C667 C 0.37371 0.91696 0.06541 0.0
C668 C 0.43304 0.99076 0.12225 0.0
C669 C 0.41275 0.00533 0.18911 0.0
N670 N 0.3844 0.94405 0.08633 0.0
N671 N 0.39996 0.97601 0.17192 0.0
H672 H 0.85839 0.43463 0.6722 0.0
H673 H 0.74943 0.27378 0.59163 0.0
H674 H 0.90307 0.32722 0.65503 0.0
H675 H 0.71763 0.38623 0.57537 0.0
H676 H 0.80567 0.29353 0.61595 0.0
H677 H 0.80711 0.41901 0.63592 0.0
C678 C 0.85776 0.4081 0.66011 0.0
C679 C 0.88468 0.382 0.66682 0.0
C680 C 0.7865 0.31392 0.60686 0.0
C681 C 0.82609 0.36375 0.62625 0.0
C682 C 0.75424 0.30266 0.59329 0.0
C683 C 0.72873 0.32842 0.58172 0.0
C684 C 0.79316 0.35123 0.6094 0.0
C685 C 0.73658 0.36548 0.58408 0.0
C686 C 0.82847 0.39914 0.63958 0.0
C687 C 0.88267 0.34801 0.65068 0.0
N688 N 0.76803 0.37583 0.598 0.0
N689 N 0.85355 0.33963 0.6316 0.0
H690 H 0.86886 0.45093 0.82278 0.0
H691 H 0.92622 0.57303 0.98365 0.0
H692 H 0.9729 0.44663 0.87003 0.0
H693 H 0.82715 0.58663 0.92742 0.0
H694 H 0.93995 0.51907 0.94915 0.0
H695 H 0.84921 0.49264 0.868 0.0
C696 C 0.88726 0.45814 0.84331 0.0
C697 C 0.92228 0.44504 0.84331 0.0
C698 C 0.91507 0.53365 0.94455 0.0
C699 C 0.90052 0.49327 0.89435 0.0
C700 C 0.90724 0.56441 0.9642 0.0
C701 C 0.87571 0.58439 0.95797 0.0
C702 C 0.89117 0.5229 0.91854 0.0
C703 C 0.85189 0.57206 0.93273 0.0
C704 C 0.87616 0.48202 0.86895 0.0
C705 C 0.94543 0.4554 0.86989 0.0
N706 N 0.86024 0.54221 0.91371 0.0
N707 N 0.93422 0.47927 0.89427 0.0
H708 H 0.77954 0.62518 0.07891 0.0
H709 H 0.59935 0.69892 0.16063 0.0
H710 H 0.75914 0.73821 0.10343 0.0
H711 H 0.63034 0.58527 0.15772 0.0
H712 H 0.65434 0.7139 0.13242 0.0
H713 H 0.72243 0.61021 0.10232 0.0
C714 C 0.76316 0.64686 0.08943 0.0
C715 C 0.77423 0.68303 0.08928 0.0
C716 C 0.64895 0.68566 0.13765 0.0
C717 C 0.70845 0.66605 0.11567 0.0
C718 C 0.61742 0.67706 0.1534 0.0
C719 C 0.61041 0.64081 0.16152 0.0
C720 C 0.67349 0.65776 0.12985 0.0
C721 C 0.63479 0.61357 0.15187 0.0
C722 C 0.73048 0.63827 0.10271 0.0
C723 C 0.75182 0.70993 0.10325 0.0
N724 N 0.66537 0.62261 0.13669 0.0
N725 N 0.7199 0.70091 0.11572 0.0
H726 H 0.6078 0.45061 0.48021 0.0
H727 H 0.56944 0.50472 0.28283 0.0
H728 H 0.62524 0.38013 0.39318 0.0
H729 H 0.56378 0.58505 0.36365 0.0
H730 H 0.58705 0.45891 0.32488 0.0
H731 H 0.58987 0.50018 0.44019 0.0
C732 C 0.60805 0.44565 0.45271 0.0
C733 C 0.61803 0.41122 0.43993 0.0
C734 C 0.58209 0.48646 0.33372 0.0
C735 C 0.59736 0.46747 0.39424 0.0
C736 C 0.57192 0.51282 0.3096 0.0
C737 C 0.56532 0.54897 0.31962 0.0
C738 C 0.58577 0.49586 0.3686 0.0
C739 C 0.5687 0.55751 0.35481 0.0
C740 C 0.59778 0.47391 0.42994 0.0
C741 C 0.61778 0.40619 0.40418 0.0
N742 N 0.57878 0.53107 0.37815 0.0
N743 N 0.60754 0.43387 0.38272 0.0
H744 H 0.35923 0.38075 0.14683 0.0
H745 H 0.39405 0.1702 0.19377 0.0
H746 H 0.27742 0.30134 0.15089 0.0
H747 H 0.4775 0.24604 0.17883 0.0
H748 H 0.3505 0.21956 0.18343 0.0
H749 H 0.40303 0.33303 0.16305 0.0
C750 C 0.35058 0.35328 0.15112 0.0
C751 C 0.31486 0.34478 0.14737 0.0
C752 C 0.37835 0.22545 0.18254 0.0
C753 C 0.36435 0.29041 0.16605 0.0
C754 C 0.40313 0.19734 0.1886 0.0
C755 C 0.43926 0.20419 0.18699 0.0
C756 C 0.38989 0.26053 0.17478 0.0
C757 C 0.44978 0.2397 0.18007 0.0
C758 C 0.37547 0.32611 0.1604 0.0
C759 C 0.30482 0.30892 0.15335 0.0
N760 N 0.42519 0.26658 0.17407 0.0
N761 N 0.32944 0.28304 0.16237 0.0
H762 H 0.91814 0.28005 0.86157 0.0
H763 H 0.75452 0.16078 0.8021 0.0
H764 H 0.86448 0.29632 0.76305 0.0
H765 H 0.8267 0.13286 0.88616 0.0
H766 H 0.7897 0.21433 0.78985 0.0
H767 H 0.87963 0.23035 0.87358 0.0
C768 C 0.89816 0.27331 0.84237 0.0
C769 C 0.89476 0.29241 0.81106 0.0
C770 C 0.79774 0.19647 0.81096 0.0
C771 C 0.8503 0.23491 0.8249 0.0
C772 C 0.77769 0.16606 0.81802 0.0
C773 C 0.78787 0.14253 0.84517 0.0
C774 C 0.82786 0.20337 0.83145 0.0
C775 C 0.81803 0.15036 0.86499 0.0
C776 C 0.87616 0.24471 0.84931 0.0
C777 C 0.86812 0.28228 0.78745 0.0
N778 N 0.83693 0.18015 0.85776 0.0
N779 N 0.84687 0.25407 0.79484 0.0
H780 H 0.05719 0.53328 0.15558 0.0
H781 H 0.97372 0.68582 0.03791 0.0
H782 H 0.09189 0.54657 0.05133 0.0
H783 H 0.90705 0.6262 0.10522 0.0
H784 H 0.01979 0.63824 0.04498 0.0
H785 H 0.00406 0.57065 0.14128 0.0
C786 C 0.05351 0.54398 0.12969 0.0
C787 C 0.07891 0.53717 0.10461 0.0
C788 C 0.99489 0.63525 0.05778 0.0
C789 C 0.01884 0.57991 0.08833 0.0
C790 C 0.96872 0.66231 0.05379 0.0
C791 C 0.93679 0.6596 0.07098 0.0
C792 C 0.98949 0.60598 0.0801 0.0
C793 C 0.93139 0.62889 0.09141 0.0
C794 C 0.02317 0.56498 0.12151 0.0
C795 C 0.07291 0.55135 0.07139 0.0
N796 N 0.95788 0.60346 0.09603 0.0
N797 N 0.04373 0.57258 0.06433 0.0
H798 H 0.73286 0.83038 0.33918 0.0
H799 H 0.54692 0.73668 0.34624 0.0
H800 H 0.64114 0.88951 0.37541 0.0
H801 H 0.62473 0.70751 0.27084 0.0
H802 H 0.58241 0.7888 0.36338 0.0
H803 H 0.69518 0.78108 0.3204 0.0
C804 C 0.7047 0.83294 0.34331 0.0
C805 C 0.69009 0.86409 0.35898 0.0
C806 C 0.59159 0.77103 0.34303 0.0
C807 C 0.64674 0.80732 0.33766 0.0
C808 C 0.57153 0.74112 0.33336 0.0
C809 C 0.58298 0.71749 0.30716 0.0
C810 C 0.6237 0.777 0.32689 0.0
C811 C 0.61489 0.72491 0.29116 0.0
C812 C 0.6832 0.80482 0.33237 0.0
C813 C 0.65341 0.86595 0.36343 0.0
N814 N 0.63428 0.75377 0.30152 0.0
N815 N 0.63293 0.83773 0.35309 0.0
H816 H 0.58155 0.34892 0.64091 0.0
H817 H 0.38783 0.40668 0.57186 0.0
H818 H 0.55171 0.35737 0.53313 0.0
H819 H 0.42081 0.41582 0.6786 0.0
H820 H 0.44709 0.38439 0.55801 0.0
H821 H 0.5232 0.37336 0.65585 0.0
C822 C 0.56298 0.35669 0.62039 0.0
C823 C 0.57122 0.35072 0.58577 0.0
C824 C 0.44134 0.39099 0.58453 0.0
C825 C 0.50434 0.37769 0.60263 0.0
C826 C 0.40738 0.40322 0.5925 0.0
C827 C 0.39956 0.4131 0.62639 0.0
C828 C 0.46756 0.38857 0.61067 0.0
C829 C 0.42585 0.40838 0.65214 0.0
C830 C 0.52958 0.37027 0.62893 0.0
C831 C 0.54629 0.36128 0.56018 0.0
N832 N 0.45885 0.39666 0.64371 0.0
N833 N 0.51375 0.37379 0.56915 0.0
H834 H 0.24112 0.67536 0.673 0.0
H835 H 0.04561 0.74829 0.6405 0.0
H836 H 0.17429 0.63801 0.58947 0.0
H837 H 0.12229 0.81474 0.69287 0.0
H838 H 0.09264 0.70613 0.62422 0.0
H839 H 0.19877 0.72572 0.68293 0.0
C840 C 0.2177 0.67804 0.65654 0.0
C841 C 0.21087 0.65245 0.63058 0.0
C842 C 0.09936 0.73001 0.63907 0.0
C843 C 0.16251 0.7094 0.64197 0.0
C844 C 0.07247 0.75404 0.64858 0.0
C845 C 0.08011 0.78493 0.66826 0.0
C846 C 0.13423 0.7364 0.64981 0.0
C847 C 0.11539 0.79109 0.67781 0.0
C848 C 0.19369 0.70677 0.66215 0.0
C849 C 0.18037 0.65709 0.60986 0.0
N850 N 0.14128 0.7667 0.66882 0.0
N851 N 0.15706 0.68477 0.61629 0.0
H852 H 0.44191 0.81724 0.87784 0.0
H853 H 0.62867 0.8998 0.92978 0.0
H854 H 0.47202 0.84693 0.98187 0.0
H855 H 0.58722 0.90008 0.82529 0.0
H856 H 0.5748 0.87137 0.94875 0.0
H857 H 0.49757 0.84079 0.85768 0.0
C858 C 0.46012 0.82894 0.89643 0.0
C859 C 0.4523 0.83016 0.93162 0.0
C860 C 0.5776 0.87736 0.92163 0.0
C861 C 0.51622 0.85654 0.90874 0.0
C862 C 0.60845 0.89324 0.91074 0.0
C863 C 0.61219 0.9024 0.87596 0.0
C864 C 0.55042 0.87045 0.89751 0.0
C865 C 0.58526 0.89342 0.85235 0.0
C866 C 0.4919 0.84228 0.88488 0.0
C867 C 0.47684 0.84565 0.9545 0.0
N868 N 0.55531 0.87809 0.8636 0.0
N869 N 0.50784 0.85802 0.94268 0.0
H870 H 0.89703 0.10454 0.35365 0.0
H871 H 0.08725 0.12967 0.44356 0.0
H872 H 0.945 0.01941 0.41686 0.0
H873 H 0.01326 0.21687 0.41643 0.0
H874 H 0.0422 0.0855 0.42557 0.0
H875 H 0.9474 0.14266 0.36655 0.0
C876 C 0.91833 0.09381 0.37011 0.0
C877 C 0.91673 0.059 0.38451 0.0
C878 C 0.03614 0.11438 0.42362 0.0
C879 C 0.97455 0.10254 0.39954 0.0
C880 C 0.06172 0.1395 0.43396 0.0
C881 C 0.0539 0.177 0.43191 0.0
C882 C 0.00314 0.12714 0.41048 0.0
C883 C 0.02057 0.18829 0.41871 0.0
C884 C 0.94706 0.11558 0.37754 0.0
C885 C 0.94523 0.04629 0.40546 0.0
N886 N 0.99665 0.16359 0.40846 0.0
N887 N 0.97302 0.06817 0.41256 0.0
loop_
_geom_bond_atom_site_label_1
_geom_bond_atom_site_label_2
_geom_bond_distance
_geom_bond_site_symmetry_2
_ccdc_geom_bond_type
Dy0 O4 2.398 . S
Dy0 O5 2.491 . S
Dy0 O6 2.403 . S
Dy0 O7 2.664 . S
Dy0 O11 2.326 . S
Dy0 O15 2.310 . S
Dy0 O16 2.351 . S
C1 O12 1.185 . S
C1 O13 1.355 . S
C2 O4 1.185 . S
C2 O5 1.355 . S
Dy3 O7 2.310 . S
Dy3 O10 2.351 . S
Dy3 O12 2.398 . S
Dy3 O13 2.491 . S
Dy3 O14 2.403 . S
Dy3 O15 2.664 . S
Dy3 O17 2.326 . S
O4 Dy0 2.398 . S
O4 C2 1.185 . S
O5 Dy0 2.491 . S
O5 C2 1.355 . S
O6 Dy0 2.403 . S
O6 C8 1.254 . S
O7 Dy0 2.664 . S
O7 Dy3 2.310 . S
O7 C8 1.268 . S
C8 O6 1.254 . S
C8 O7 1.268 . S
C9 O14 1.254 . S
C9 O15 1.268 . S
O10 Dy3 2.351 . S
O10 C18 1.249 . S
O11 Dy0 2.326 . S
O11 C18 1.267 . S
O12 C1 1.185 . S
O12 Dy3 2.398 . S
O13 C1 1.355 . S
O13 Dy3 2.491 . S
O14 Dy3 2.403 . S
O14 C9 1.254 . S
O15 Dy0 2.310 . S
O15 Dy3 2.664 . S
O15 C9 1.268 . S
O16 Dy0 2.351 . S
O16 C19 1.249 . S
O17 Dy3 2.326 . S
O17 C19 1.267 . S
C18 O10 1.249 . S
C18 O11 1.267 . S
C19 O16 1.249 . S
C19 O17 1.267 . S
Dy20 O24 2.398 . S
Dy20 O25 2.491 . S
Dy20 O26 2.403 1_655 S
Dy20 O27 2.664 1_655 S
Dy20 O31 2.326 1_655 S
Dy20 O35 2.310 . S
Dy20 O36 2.351 . S
C21 O32 1.185 . S
C21 O33 1.355 . S
C22 O24 1.185 . S
C22 O25 1.355 . S
Dy23 O27 2.310 . S
Dy23 O30 2.351 . S
Dy23 O32 2.398 . S
Dy23 O33 2.491 . S
Dy23 O34 2.403 . S
Dy23 O35 2.664 1_455 S
Dy23 O37 2.326 . S
O24 Dy20 2.398 . S
O24 C22 1.185 . S
O25 Dy20 2.491 . S
O25 C22 1.355 . S
O26 Dy20 2.403 1_455 S
O26 C28 1.254 . S
O27 Dy20 2.664 1_455 S
O27 Dy23 2.310 . S
O27 C28 1.268 . S
C28 O26 1.254 . S
C28 O27 1.268 . S
C29 O34 1.254 1_655 S
C29 O35 1.268 . S
O30 Dy23 2.351 . S
O30 C38 1.249 . S
O31 Dy20 2.326 1_455 S
O31 C38 1.267 . S
O32 C21 1.185 . S
O32 Dy23 2.398 . S
O33 C21 1.355 . S
O33 Dy23 2.491 . S
O34 Dy23 2.403 . S
O34 C29 1.254 1_455 S
O35 Dy20 2.310 . S
O35 Dy23 2.664 1_655 S
O35 C29 1.268 . S
O36 Dy20 2.351 . S
O36 C39 1.249 1_655 S
O37 Dy23 2.326 . S
O37 C39 1.267 . S
C38 O30 1.249 . S
C38 O31 1.267 . S
C39 O36 1.249 1_455 S
C39 O37 1.267 . S
Dy40 O44 2.398 . S
Dy40 O45 2.491 . S
Dy40 O46 2.403 1_554 S
Dy40 O47 2.664 1_554 S
Dy40 O51 2.326 1_554 S
Dy40 O55 2.310 1_554 S
Dy40 O56 2.351 . S
C41 O52 1.185 . S
C41 O53 1.355 . S
C42 O44 1.185 . S
C42 O45 1.355 . S
Dy43 O47 2.310 . S
Dy43 O50 2.351 . S
Dy43 O52 2.398 . S
Dy43 O53 2.491 . S
Dy43 O54 2.403 . S
Dy43 O55 2.664 . S
Dy43 O57 2.326 . S
O44 Dy40 2.398 . S
O44 C42 1.185 . S
O45 Dy40 2.491 . S
O45 C42 1.355 . S
O46 Dy40 2.403 1_556 S
O46 C48 1.254 . S
O47 Dy40 2.664 1_556 S
O47 Dy43 2.310 . S
O47 C48 1.268 . S
C48 O46 1.254 . S
C48 O47 1.268 . S
C49 O54 1.254 1_554 S
C49 O55 1.268 1_554 S
O50 Dy43 2.351 . S
O50 C58 1.249 . S
O51 Dy40 2.326 1_556 S
O51 C58 1.267 . S
O52 C41 1.185 . S
O52 Dy43 2.398 . S
O53 C41 1.355 . S
O53 Dy43 2.491 . S
O54 Dy43 2.403 . S
O54 C49 1.254 1_556 S
O55 Dy40 2.310 1_556 S
O55 Dy43 2.664 . S
O55 C49 1.268 1_556 S
O56 Dy40 2.351 . S
O56 C59 1.249 1_554 S
O57 Dy43 2.326 . S
O57 C59 1.267 . S
C58 O50 1.249 . S
C58 O51 1.267 . S
C59 O56 1.249 1_556 S
C59 O57 1.267 . S
Dy60 O64 2.398 . S
Dy60 O65 2.491 . S
Dy60 O66 2.403 . S
Dy60 O67 2.664 . S
Dy60 O71 2.326 . S
Dy60 O75 2.310 . S
Dy60 O76 2.351 . S
C61 O72 1.185 . S
C61 O73 1.355 . S
C62 O64 1.185 . S
C62 O65 1.355 . S
Dy63 O67 2.310 . S
Dy63 O70 2.351 . S
Dy63 O72 2.398 . S
Dy63 O73 2.491 . S
Dy63 O74 2.403 . S
Dy63 O75 2.664 . S
Dy63 O77 2.326 . S
O64 Dy60 2.398 . S
O64 C62 1.185 . S
O65 Dy60 2.491 . S
O65 C62 1.355 . S
O66 Dy60 2.403 . S
O66 C68 1.254 . S
O67 Dy60 2.664 . S
O67 Dy63 2.310 . S
O67 C68 1.268 . S
C68 O66 1.254 . S
C68 O67 1.268 . S
C69 O74 1.254 . S
C69 O75 1.268 . S
O70 Dy63 2.351 . S
O70 C78 1.249 . S
O71 Dy60 2.326 . S
O71 C78 1.267 . S
O72 C61 1.185 . S
O72 Dy63 2.398 . S
O73 C61 1.355 . S
O73 Dy63 2.491 . S
O74 Dy63 2.403 . S
O74 C69 1.254 . S
O75 Dy60 2.310 . S
O75 Dy63 2.664 . S
O75 C69 1.268 . S
O76 Dy60 2.351 . S
O76 C79 1.249 . S
O77 Dy63 2.326 . S
O77 C79 1.267 . S
C78 O70 1.249 . S
C78 O71 1.267 . S
C79 O76 1.249 . S
C79 O77 1.267 . S
Dy80 O84 2.398 . S
Dy80 O85 2.491 . S
Dy80 O86 2.403 . S
Dy80 O87 2.664 . S
Dy80 O91 2.326 . S
Dy80 O95 2.310 . S
Dy80 O96 2.351 . S
C81 O92 1.185 . S
C81 O93 1.355 . S
C82 O84 1.185 . S
C82 O85 1.355 . S
Dy83 O87 2.310 . S
Dy83 O90 2.351 . S
Dy83 O92 2.398 . S
Dy83 O93 2.491 . S
Dy83 O94 2.403 . S
Dy83 O95 2.664 . S
Dy83 O97 2.326 . S
O84 Dy80 2.398 . S
O84 C82 1.185 . S
O85 Dy80 2.491 . S
O85 C82 1.355 . S
O86 Dy80 2.403 . S
O86 C88 1.254 . S
O87 Dy80 2.664 . S
O87 Dy83 2.310 . S
O87 C88 1.268 . S
C88 O86 1.254 . S
C88 O87 1.268 . S
C89 O94 1.254 . S
C89 O95 1.268 . S
O90 Dy83 2.351 . S
O90 C98 1.249 . S
O91 Dy80 2.326 . S
O91 C98 1.267 . S
O92 C81 1.185 . S
O92 Dy83 2.398 . S
O93 C81 1.355 . S
O93 Dy83 2.491 . S
O94 Dy83 2.403 . S
O94 C89 1.254 . S
O95 Dy80 2.310 . S
O95 Dy83 2.664 . S
O95 C89 1.268 . S
O96 Dy80 2.351 . S
O96 C99 1.249 . S
O97 Dy83 2.326 . S
O97 C99 1.267 . S
C98 O90 1.249 . S
C98 O91 1.267 . S
C99 O96 1.249 . S
C99 O97 1.267 . S
Dy100 O104 2.398 . S
Dy100 O105 2.491 . S
Dy100 O106 2.403 . S
Dy100 O107 2.664 . S
Dy100 O111 2.326 . S
Dy100 O115 2.310 . S
Dy100 O116 2.351 1_655 S
C101 O112 1.185 . S
C101 O113 1.355 . S
C102 O104 1.185 . S
C102 O105 1.355 . S
Dy103 O107 2.310 1_455 S
Dy103 O110 2.351 1_455 S
Dy103 O112 2.398 . S
Dy103 O113 2.491 . S
Dy103 O114 2.403 . S
Dy103 O115 2.664 1_455 S
Dy103 O117 2.326 . S
O104 Dy100 2.398 . S
O104 C102 1.185 . S
O105 Dy100 2.491 . S
O105 C102 1.355 . S
O106 Dy100 2.403 . S
O106 C108 1.254 . S
O107 Dy100 2.664 . S
O107 Dy103 2.310 1_655 S
O107 C108 1.268 . S
C108 O106 1.254 . S
C108 O107 1.268 . S
C109 O114 1.254 . S
C109 O115 1.268 1_455 S
O110 Dy103 2.351 1_655 S
O110 C118 1.249 . S
O111 Dy100 2.326 . S
O111 C118 1.267 . S
O112 C101 1.185 . S
O112 Dy103 2.398 . S
O113 C101 1.355 . S
O113 Dy103 2.491 . S
O114 Dy103 2.403 . S
O114 C109 1.254 . S
O115 Dy100 2.310 . S
O115 Dy103 2.664 1_655 S
O115 C109 1.268 1_655 S
O116 Dy100 2.351 1_455 S
O116 C119 1.249 . S
O117 Dy103 2.326 . S
O117 C119 1.267 . S
C118 O110 1.249 . S
C118 O111 1.267 . S
C119 O116 1.249 . S
C119 O117 1.267 . S
Dy120 O124 2.398 . S
Dy120 O125 2.491 . S
Dy120 O126 2.403 . S
Dy120 O127 2.664 . S
Dy120 O131 2.326 . S
Dy120 O135 2.310 . S
Dy120 O136 2.351 . S
C121 O132 1.185 . S
C121 O133 1.355 . S
C122 O124 1.185 . S
C122 O125 1.355 . S
Dy123 O127 2.310 . S
Dy123 O130 2.351 . S
Dy123 O132 2.398 1_554 S
Dy123 O133 2.491 1_554 S
Dy123 O134 2.403 1_554 S
Dy123 O135 2.664 . S
Dy123 O137 2.326 1_554 S
O124 Dy120 2.398 . S
O124 C122 1.185 . S
O125 Dy120 2.491 . S
O125 C122 1.355 . S
O126 Dy120 2.403 . S
O126 C128 1.254 . S
O127 Dy120 2.664 . S
O127 Dy123 2.310 . S
O127 C128 1.268 . S
C128 O126 1.254 . S
C128 O127 1.268 . S
C129 O134 1.249 1_554 S
C129 O135 1.274 . S
O130 Dy123 2.351 . S
O130 C138 1.249 . S
O131 Dy120 2.326 . S
O131 C138 1.267 . S
O132 C121 1.185 . S
O132 Dy123 2.398 1_556 S
O133 C121 1.355 . S
O133 Dy123 2.491 1_556 S
O134 Dy123 2.403 1_556 S
O134 C129 1.249 1_556 S
O135 Dy120 2.310 . S
O135 Dy123 2.664 . S
O135 C129 1.274 . S
O136 Dy120 2.351 . S
O136 C139 1.249 1_554 S
O137 Dy123 2.326 1_556 S
O137 C139 1.267 . S
C138 O130 1.249 . S
C138 O131 1.267 . S
C139 O136 1.249 1_556 S
C139 O137 1.267 . S
Dy140 O144 2.398 . S
Dy140 O145 2.491 . S
Dy140 O146 2.403 . S
Dy140 O147 2.664 . S
Dy140 O151 2.326 . S
Dy140 O155 2.310 . S
Dy140 O156 2.351 . S
C141 O152 1.185 . S
C141 O153 1.355 . S
C142 O144 1.185 . S
C142 O145 1.355 . S
Dy143 O147 2.310 . S
Dy143 O150 2.351 . S
Dy143 O152 2.398 . S
Dy143 O153 2.491 . S
Dy143 O154 2.403 . S
Dy143 O155 2.664 . S
Dy143 O157 2.326 . S
O144 Dy140 2.398 . S
O144 C142 1.185 . S
O145 Dy140 2.491 . S
O145 C142 1.355 . S
O146 Dy140 2.403 . S
O146 C148 1.254 . S
O147 Dy140 2.664 . S
O147 Dy143 2.310 . S
O147 C148 1.268 . S
C148 O146 1.254 . S
C148 O147 1.268 . S
C149 O154 1.254 . S
C149 O155 1.268 . S
O150 Dy143 2.351 . S
O150 C158 1.249 . S
O151 Dy140 2.326 . S
O151 C158 1.267 . S
O152 C141 1.185 . S
O152 Dy143 2.398 . S
O153 C141 1.355 . S
O153 Dy143 2.491 . S
O154 Dy143 2.403 . S
O154 C149 1.254 . S
O155 Dy140 2.310 . S
O155 Dy143 2.664 . S
O155 C149 1.268 . S
O156 Dy140 2.351 . S
O156 C159 1.249 . S
O157 Dy143 2.326 . S
O157 C159 1.267 . S
C158 O150 1.249 . S
C158 O151 1.267 . S
C159 O156 1.249 . S
C159 O157 1.267 . S
Dy160 O164 2.398 . S
Dy160 O165 2.491 . S
Dy160 O166 2.403 . S
Dy160 O167 2.664 . S
Dy160 O171 2.326 . S
Dy160 O175 2.310 . S
Dy160 O176 2.351 . S
C161 O172 1.185 . S
C161 O173 1.355 . S
C162 O164 1.185 . S
C162 O165 1.355 . S
Dy163 O167 2.310 . S
Dy163 O170 2.351 . S
Dy163 O172 2.398 . S
Dy163 O173 2.491 . S
Dy163 O174 2.403 . S
Dy163 O175 2.664 . S
Dy163 O177 2.326 . S
O164 Dy160 2.398 . S
O164 C162 1.185 . S
O165 Dy160 2.491 . S
O165 C162 1.355 . S
O166 Dy160 2.403 . S
O166 C168 1.254 . S
O167 Dy160 2.664 . S
O167 Dy163 2.310 . S
O167 C168 1.268 . S
C168 O166 1.254 . S
C168 O167 1.268 . S
C169 O174 1.254 . S
C169 O175 1.268 . S
O170 Dy163 2.351 . S
O170 C178 1.249 . S
O171 Dy160 2.326 . S
O171 C178 1.267 . S
O172 C161 1.185 . S
O172 Dy163 2.398 . S
O173 C161 1.355 . S
O173 Dy163 2.491 . S
O174 Dy163 2.403 . S
O174 C169 1.254 . S
O175 Dy160 2.310 . S
O175 Dy163 2.664 . S
O175 C169 1.268 . S
O176 Dy160 2.351 . S
O176 C179 1.249 . S
O177 Dy163 2.326 . S
O177 C179 1.267 . S
C178 O170 1.249 . S
C178 O171 1.267 . S
C179 O176 1.249 . S
C179 O177 1.267 . S
Dy180 O184 2.398 . S
Dy180 O185 2.491 . S
Dy180 O186 2.403 1_565 S
Dy180 O187 2.664 1_565 S
Dy180 O191 2.326 1_565 S
Dy180 O195 2.310 1_565 S
Dy180 O196 2.351 . S
C181 O192 1.185 . S
C181 O193 1.355 . S
C182 O184 1.185 . S
C182 O185 1.355 . S
Dy183 O187 2.310 . S
Dy183 O190 2.351 . S
Dy183 O192 2.398 . S
Dy183 O193 2.491 . S
Dy183 O194 2.403 . S
Dy183 O195 2.664 . S
Dy183 O197 2.326 . S
O184 Dy180 2.398 . S
O184 C182 1.185 . S
O185 Dy180 2.491 . S
O185 C182 1.355 . S
O186 Dy180 2.403 1_545 S
O186 C188 1.254 . S
O187 Dy180 2.664 1_545 S
O187 Dy183 2.310 . S
O187 C188 1.268 . S
C188 O186 1.254 . S
C188 O187 1.268 . S
C189 O194 1.254 1_565 S
C189 O195 1.268 1_565 S
O190 Dy183 2.351 . S
O190 C198 1.249 . S
O191 Dy180 2.326 1_545 S
O191 C198 1.267 . S
O192 C181 1.185 . S
O192 Dy183 2.398 . S
O193 C181 1.355 . S
O193 Dy183 2.491 . S
O194 Dy183 2.403 . S
O194 C189 1.254 1_545 S
O195 Dy180 2.310 1_545 S
O195 Dy183 2.664 . S
O195 C189 1.268 1_545 S
O196 Dy180 2.351 . S
O196 C199 1.249 1_565 S
O197 Dy183 2.326 . S
O197 C199 1.267 . S
C198 O190 1.249 . S
C198 O191 1.267 . S
C199 O196 1.249 1_545 S
C199 O197 1.267 . S
Dy200 O204 2.398 . S
Dy200 O205 2.491 . S
Dy200 O206 2.403 . S
Dy200 O207 2.664 . S
Dy200 O211 2.326 . S
Dy200 O215 2.310 . S
Dy200 O216 2.350 . S
C201 O212 1.185 . S
C201 O213 1.355 . S
C202 O204 1.185 . S
C202 O205 1.355 . S
Dy203 O207 2.310 1_545 S
Dy203 O210 2.351 1_545 S
Dy203 O212 2.398 . S
Dy203 O213 2.491 . S
Dy203 O214 2.403 . S
Dy203 O215 2.664 1_545 S
Dy203 O217 2.326 . S
O204 Dy200 2.398 . S
O204 C202 1.185 . S
O205 Dy200 2.491 . S
O205 C202 1.355 . S
O206 Dy200 2.403 . S
O206 C208 1.254 . S
O207 Dy200 2.664 . S
O207 Dy203 2.310 1_565 S
O207 C208 1.268 . S
C208 O206 1.254 . S
C208 O207 1.268 . S
C209 O214 1.254 . S
C209 O215 1.268 1_545 S
O210 Dy203 2.351 1_565 S
O210 C218 1.249 . S
O211 Dy200 2.326 . S
O211 C218 1.267 . S
O212 C201 1.185 . S
O212 Dy203 2.398 . S
O213 C201 1.355 . S
O213 Dy203 2.491 . S
O214 Dy203 2.403 . S
O214 C209 1.254 . S
O215 Dy200 2.310 . S
O215 Dy203 2.664 1_565 S
O215 C209 1.268 1_565 S
O216 Dy200 2.350 . S
O216 C219 1.251 1_565 S
O217 Dy203 2.326 . S
O217 C219 1.267 . S
C218 O210 1.249 . S
C218 O211 1.267 . S
C219 O216 1.251 1_545 S
C219 O217 1.267 . S
Dy220 O224 2.398 . S
Dy220 O225 2.491 . S
Dy220 O226 2.403 . S
Dy220 O227 2.664 . S
Dy220 O231 2.326 . S
Dy220 O235 2.310 . S
Dy220 O236 2.351 . S
C221 O232 1.185 . S
C221 O233 1.355 . S
C222 O224 1.185 . S
C222 O225 1.355 . S
Dy223 O227 2.310 . S
Dy223 O230 2.351 . S
Dy223 O232 2.398 . S
Dy223 O233 2.491 . S
Dy223 O234 2.403 . S
Dy223 O235 2.664 . S
Dy223 O237 2.326 . S
O224 Dy220 2.398 . S
O224 C222 1.185 . S
O225 Dy220 2.491 . S
O225 C222 1.355 . S
O226 Dy220 2.403 . S
O226 C228 1.254 . S
O227 Dy220 2.664 . S
O227 Dy223 2.310 . S
O227 C228 1.268 . S
C228 O226 1.254 . S
C228 O227 1.268 . S
C229 O234 1.254 . S
C229 O235 1.268 . S
O230 Dy223 2.351 . S
O230 C238 1.249 . S
O231 Dy220 2.326 . S
O231 C238 1.267 . S
O232 C221 1.185 . S
O232 Dy223 2.398 . S
O233 C221 1.355 . S
O233 Dy223 2.491 . S
O234 Dy223 2.403 . S
O234 C229 1.254 . S
O235 Dy220 2.310 . S
O235 Dy223 2.664 . S
O235 C229 1.268 . S
O236 Dy220 2.351 . S
O236 C239 1.249 . S
O237 Dy223 2.326 . S
O237 C239 1.267 . S
C238 O230 1.249 . S
C238 O231 1.267 . S
C239 O236 1.249 . S
C239 O237 1.267 . S
H240 C246 0.930 . S
H241 C250 0.930 . S
H242 C255 0.929 . S
H243 C253 0.929 . S
H244 C248 0.929 . S
H245 C254 0.929 . S
C246 H240 0.930 . S
C246 C247 1.367 . S
C246 C254 1.378 . S
C247 C246 1.367 . S
C247 C255 1.433 . S
C248 H244 0.929 . S
C248 C250 1.378 . S
C248 C252 1.350 . S
C249 C252 1.463 . S
C249 C254 1.350 . S
C249 N257 1.427 . S
C250 H241 0.930 . S
C250 C248 1.378 . S
C250 C251 1.367 . S
C251 C250 1.367 . S
C251 C253 1.433 . S
C252 C248 1.350 . S
C252 C249 1.463 . S
C252 N256 1.427 . S
C253 H243 0.929 . S
C253 C251 1.433 . S
C253 N256 1.384 . S
C254 H245 0.929 . S
C254 C246 1.378 . S
C254 C249 1.350 . S
C255 H242 0.929 . S
C255 C247 1.433 . S
C255 N257 1.384 . S
N256 C252 1.427 . S
N256 C253 1.384 . S
N257 C249 1.427 . S
N257 C255 1.384 . S
H258 C264 0.930 . S
H259 C268 0.930 . S
H260 C273 0.929 . S
H261 C271 0.929 . S
H262 C266 0.929 . S
H263 C272 0.929 . S
C264 H258 0.930 . S
C264 C265 1.366 1_545 S
C264 C272 1.378 1_545 S
C265 C264 1.366 1_565 S
C265 C273 1.438 . S
C266 H262 0.929 . S
C266 C268 1.378 . S
C266 C270 1.350 . S
C267 C270 1.463 . S
C267 C272 1.350 . S
C267 N275 1.427 . S
C268 H259 0.930 . S
C268 C266 1.378 . S
C268 C269 1.367 . S
C269 C268 1.367 . S
C269 C271 1.433 . S
C270 C266 1.350 . S
C270 C267 1.463 . S
C270 N274 1.427 . S
C271 H261 0.929 . S
C271 C269 1.433 . S
C271 N274 1.384 . S
C272 H263 0.929 . S
C272 C264 1.378 1_565 S
C272 C267 1.350 . S
C273 H260 0.929 . S
C273 C265 1.438 . S
C273 N275 1.384 . S
N274 C270 1.427 . S
N274 C271 1.384 . S
N275 C267 1.427 . S
N275 C273 1.384 . S
H276 C282 0.930 . S
H277 C286 0.930 . S
H278 C291 0.929 . S
H279 C289 0.929 . S
H280 C284 0.929 1_556 S
H281 C290 0.929 . S
C282 H276 0.930 . S
C282 C283 1.367 1_554 S
C282 C290 1.378 . S
C283 C282 1.367 1_556 S
C283 C291 1.433 . S
C284 H280 0.929 1_554 S
C284 C286 1.378 . S
C284 C288 1.350 . S
C285 C288 1.463 . S
C285 C290 1.350 . S
C285 N293 1.427 1_554 S
C286 H277 0.930 . S
C286 C284 1.378 . S
C286 C287 1.367 . S
C287 C286 1.367 . S
C287 C289 1.433 . S
C288 C284 1.350 . S
C288 C285 1.463 . S
C288 N292 1.427 . S
C289 H279 0.929 . S
C289 C287 1.433 . S
C289 N292 1.384 . S
C290 H281 0.929 . S
C290 C282 1.378 . S
C290 C285 1.350 . S
C291 H278 0.929 . S
C291 C283 1.433 . S
C291 N293 1.384 . S
N292 C288 1.427 . S
N292 C289 1.384 . S
N293 C285 1.427 1_556 S
N293 C291 1.384 . S
H294 C300 0.930 . S
H295 C304 0.930 . S
H296 C309 0.929 . S
H297 C307 0.929 . S
H298 C302 0.929 . S
H299 C308 0.929 . S
C300 H294 0.930 . S
C300 C301 1.367 . S
C300 C308 1.378 . S
C301 C300 1.367 . S
C301 C309 1.433 . S
C302 H298 0.929 . S
C302 C304 1.378 . S
C302 C306 1.350 . S
C303 C306 1.463 . S
C303 C308 1.350 . S
C303 N311 1.427 . S
C304 H295 0.930 . S
C304 C302 1.378 . S
C304 C305 1.367 . S
C305 C304 1.367 . S
C305 C307 1.433 . S
C306 C302 1.350 . S
C306 C303 1.463 . S
C306 N310 1.427 . S
C307 H297 0.929 . S
C307 C305 1.433 . S
C307 N310 1.384 . S
C308 H299 0.929 . S
C308 C300 1.378 . S
C308 C303 1.350 . S
C309 H296 0.929 . S
C309 C301 1.433 . S
C309 N311 1.384 . S
N310 C306 1.427 . S
N310 C307 1.384 . S
N311 C303 1.427 . S
N311 C309 1.384 . S
H312 C318 0.930 . S
H313 C322 0.930 . S
H314 C327 0.929 . S
H315 C325 0.929 . S
H316 C320 0.929 . S
H317 C326 0.929 . S
C318 H312 0.930 . S
C318 C319 1.367 . S
C318 C326 1.378 . S
C319 C318 1.367 . S
C319 C327 1.433 . S
C320 H316 0.929 . S
C320 C322 1.378 . S
C320 C324 1.350 . S
C321 C324 1.463 . S
C321 C326 1.350 . S
C321 N329 1.427 . S
C322 H313 0.930 . S
C322 C320 1.378 . S
C322 C323 1.367 . S
C323 C322 1.367 . S
C323 C325 1.433 . S
C324 C320 1.350 . S
C324 C321 1.463 . S
C324 N328 1.427 . S
C325 H315 0.929 . S
C325 C323 1.433 . S
C325 N328 1.384 . S
C326 H317 0.929 . S
C326 C318 1.378 . S
C326 C321 1.350 . S
C327 H314 0.929 . S
C327 C319 1.433 . S
C327 N329 1.384 . S
N328 C324 1.427 . S
N328 C325 1.384 . S
N329 C321 1.427 . S
N329 C327 1.384 . S
H330 C336 0.930 . S
H331 C340 0.930 . S
H332 C345 0.929 . S
H333 C343 0.929 . S
H334 C338 0.929 . S
H335 C344 0.929 . S
C336 H330 0.930 . S
C336 C337 1.367 . S
C336 C344 1.378 . S
C337 C336 1.367 . S
C337 C345 1.433 . S
C338 H334 0.929 . S
C338 C340 1.378 . S
C338 C342 1.350 . S
C339 C342 1.463 . S
C339 C344 1.350 . S
C339 N347 1.427 . S
C340 H331 0.930 . S
C340 C338 1.378 . S
C340 C341 1.367 . S
C341 C340 1.367 . S
C341 C343 1.433 . S
C342 C338 1.350 . S
C342 C339 1.463 . S
C342 N346 1.427 . S
C343 H333 0.929 . S
C343 C341 1.433 . S
C343 N346 1.384 . S
C344 H335 0.929 . S
C344 C336 1.378 . S
C344 C339 1.350 . S
C345 H332 0.929 . S
C345 C337 1.433 . S
C345 N347 1.384 . S
N346 C342 1.427 . S
N346 C343 1.384 . S
N347 C339 1.427 . S
N347 C345 1.384 . S
H348 C354 0.930 . S
H349 C358 0.930 . S
H350 C363 0.929 . S
H351 C361 0.929 . S
H352 C356 0.929 . S
H353 C362 0.929 . S
C354 H348 0.930 . S
C354 C355 1.367 . S
C354 C362 1.378 . S
C355 C354 1.367 . S
C355 C363 1.433 . S
C356 H352 0.929 . S
C356 C358 1.378 . S
C356 C360 1.350 1_554 S
C357 C360 1.463 . S
C357 C362 1.350 . S
C357 N365 1.427 . S
C358 H349 0.930 . S
C358 C356 1.378 . S
C358 C359 1.367 1_554 S
C359 C358 1.367 1_556 S
C359 C361 1.433 . S
C360 C356 1.350 1_556 S
C360 C357 1.463 . S
C360 N364 1.427 . S
C361 H351 0.929 . S
C361 C359 1.433 . S
C361 N364 1.384 . S
C362 H353 0.929 . S
C362 C354 1.378 . S
C362 C357 1.350 . S
C363 H350 0.929 . S
C363 C355 1.433 . S
C363 N365 1.384 . S
N364 C360 1.427 . S
N364 C361 1.384 . S
N365 C357 1.427 . S
N365 C363 1.384 . S
H366 C372 0.930 . S
H367 C376 0.930 . S
H368 C381 0.929 . S
H369 C379 0.929 . S
H370 C374 0.929 . S
H371 C380 0.929 . S
C372 H366 0.930 . S
C372 C373 1.367 . S
C372 C380 1.378 . S
C373 C372 1.367 . S
C373 C381 1.433 . S
C374 H370 0.929 . S
C374 C376 1.378 . S
C374 C378 1.350 . S
C375 C378 1.463 . S
C375 C380 1.350 . S
C375 N383 1.427 . S
C376 H367 0.930 . S
C376 C374 1.378 . S
C376 C377 1.367 . S
C377 C376 1.367 . S
C377 C379 1.433 . S
C378 C374 1.350 . S
C378 C375 1.463 . S
C378 N382 1.427 . S
C379 H369 0.929 . S
C379 C377 1.433 . S
C379 N382 1.384 . S
C380 H371 0.929 . S
C380 C372 1.378 . S
C380 C375 1.350 . S
C381 H368 0.929 . S
C381 C373 1.433 . S
C381 N383 1.384 . S
N382 C378 1.427 . S
N382 C379 1.384 . S
N383 C375 1.427 . S
N383 C381 1.384 . S
H384 C390 0.930 . S
H385 C394 0.930 . S
H386 C399 0.929 . S
H387 C397 0.929 . S
H388 C392 0.929 . S
H389 C398 0.929 . S
C390 H384 0.930 . S
C390 C391 1.367 . S
C390 C398 1.378 . S
C391 C390 1.367 . S
C391 C399 1.433 . S
C392 H388 0.929 . S
C392 C394 1.378 . S
C392 C396 1.350 . S
C393 C396 1.463 . S
C393 C398 1.350 . S
C393 N401 1.427 . S
C394 H385 0.930 . S
C394 C392 1.378 . S
C394 C395 1.367 . S
C395 C394 1.367 . S
C395 C397 1.433 . S
C396 C392 1.350 . S
C396 C393 1.463 . S
C396 N400 1.427 . S
C397 H387 0.929 . S
C397 C395 1.433 . S
C397 N400 1.384 . S
C398 H389 0.929 . S
C398 C390 1.378 . S
C398 C393 1.350 . S
C399 H386 0.929 . S
C399 C391 1.433 . S
C399 N401 1.384 . S
N400 C396 1.427 . S
N400 C397 1.384 . S
N401 C393 1.427 . S
N401 C399 1.384 . S
H402 C408 0.930 . S
H403 C412 0.930 . S
H404 C417 0.929 . S
H405 C415 0.929 . S
H406 C410 0.929 . S
H407 C416 0.929 . S
C408 H402 0.930 . S
C408 C409 1.367 . S
C408 C416 1.378 . S
C409 C408 1.367 . S
C409 C417 1.433 . S
C410 H406 0.929 . S
C410 C412 1.378 . S
C410 C414 1.350 . S
C411 C414 1.463 . S
C411 C416 1.350 . S
C411 N419 1.427 . S
C412 H403 0.930 . S
C412 C410 1.378 . S
C412 C413 1.367 . S
C413 C412 1.367 . S
C413 C415 1.433 . S
C414 C410 1.350 . S
C414 C411 1.463 . S
C414 N418 1.427 . S
C415 H405 0.929 . S
C415 C413 1.433 . S
C415 N418 1.384 . S
C416 H407 0.929 . S
C416 C408 1.378 . S
C416 C411 1.350 . S
C417 H404 0.929 . S
C417 C409 1.433 . S
C417 N419 1.384 . S
N418 C414 1.427 . S
N418 C415 1.384 . S
N419 C411 1.427 . S
N419 C417 1.384 . S
H420 C426 0.930 . S
H421 C430 0.930 . S
H422 C435 0.929 . S
H423 C433 0.929 . S
H424 C428 0.929 . S
H425 C434 0.929 . S
C426 H420 0.930 . S
C426 C427 1.367 . S
C426 C434 1.378 . S
C427 C426 1.367 . S
C427 C435 1.433 1_655 S
C428 H424 0.929 . S
C428 C430 1.378 . S
C428 C432 1.350 . S
C429 C432 1.463 . S
C429 C434 1.350 . S
C429 N437 1.427 . S
C430 H421 0.930 . S
C430 C428 1.378 . S
C430 C431 1.367 . S
C431 C430 1.367 . S
C431 C433 1.433 . S
C432 C428 1.350 . S
C432 C429 1.463 . S
C432 N436 1.427 . S
C433 H423 0.929 . S
C433 C431 1.433 . S
C433 N436 1.384 . S
C434 H425 0.929 . S
C434 C426 1.378 . S
C434 C429 1.350 . S
C435 H422 0.929 . S
C435 C427 1.433 1_455 S
C435 N437 1.384 1_455 S
N436 C432 1.427 . S
N436 C433 1.384 . S
N437 C429 1.427 . S
N437 C435 1.384 1_655 S
H438 C444 0.930 . S
H439 C448 0.930 . S
H440 C453 0.929 . S
H441 C451 0.929 . S
H442 C446 0.929 . S
H443 C452 0.929 . S
C444 H438 0.930 . S
C444 C445 1.367 . S
C444 C452 1.378 . S
C445 C444 1.367 . S
C445 C453 1.433 . S
C446 H442 0.929 . S
C446 C448 1.378 . S
C446 C450 1.350 . S
C447 C450 1.463 . S
C447 C452 1.350 . S
C447 N455 1.427 . S
C448 H439 0.930 . S
C448 C446 1.378 . S
C448 C449 1.367 . S
C449 C448 1.367 . S
C449 C451 1.433 . S
C450 C446 1.350 . S
C450 C447 1.463 . S
C450 N454 1.427 . S
C451 H441 0.929 . S
C451 C449 1.433 . S
C451 N454 1.384 . S
C452 H443 0.929 . S
C452 C444 1.378 . S
C452 C447 1.350 . S
C453 H440 0.929 . S
C453 C445 1.433 . S
C453 N455 1.384 . S
N454 C450 1.427 . S
N454 C451 1.384 . S
N455 C447 1.427 . S
N455 C453 1.384 . S
H456 C462 0.930 . S
H457 C466 0.930 . S
H458 C471 0.929 . S
H459 C469 0.929 . S
H460 C464 0.929 . S
H461 C470 0.929 . S
C462 H456 0.930 . S
C462 C463 1.367 . S
C462 C470 1.378 . S
C463 C462 1.367 . S
C463 C471 1.433 . S
C464 H460 0.929 . S
C464 C466 1.378 . S
C464 C468 1.350 . S
C465 C468 1.463 . S
C465 C470 1.350 . S
C465 N473 1.427 . S
C466 H457 0.930 . S
C466 C464 1.378 . S
C466 C467 1.367 . S
C467 C466 1.367 . S
C467 C469 1.433 . S
C468 C464 1.350 . S
C468 C465 1.463 . S
C468 N472 1.427 . S
C469 H459 0.929 . S
C469 C467 1.433 . S
C469 N472 1.384 . S
C470 H461 0.929 . S
C470 C462 1.378 . S
C470 C465 1.350 . S
C471 H458 0.929 . S
C471 C463 1.433 . S
C471 N473 1.384 . S
N472 C468 1.427 . S
N472 C469 1.384 . S
N473 C465 1.427 . S
N473 C471 1.384 . S
H474 C480 0.930 . S
H475 C484 0.930 . S
H476 C489 0.929 . S
H477 C487 0.929 . S
H478 C482 0.929 . S
H479 C488 0.929 . S
C480 H474 0.930 . S
C480 C481 1.367 . S
C480 C488 1.378 . S
C481 C480 1.367 . S
C481 C489 1.433 . S
C482 H478 0.929 . S
C482 C484 1.378 . S
C482 C486 1.350 . S
C483 C486 1.463 . S
C483 C488 1.350 . S
C483 N491 1.427 . S
C484 H475 0.930 . S
C484 C482 1.378 . S
C484 C485 1.367 . S
C485 C484 1.367 . S
C485 C487 1.433 . S
C486 C482 1.350 . S
C486 C483 1.463 . S
C486 N490 1.427 . S
C487 H477 0.929 . S
C487 C485 1.433 . S
C487 N490 1.384 . S
C488 H479 0.929 . S
C488 C480 1.378 . S
C488 C483 1.350 . S
C489 H476 0.929 . S
C489 C481 1.433 . S
C489 N491 1.384 . S
N490 C486 1.427 . S
N490 C487 1.384 . S
N491 C483 1.427 . S
N491 C489 1.384 . S
H492 C498 0.930 . S
H493 C502 0.930 . S
H494 C507 0.929 . S
H495 C505 0.929 . S
H496 C500 0.929 . S
H497 C506 0.929 . S
C498 H492 0.930 . S
C498 C499 1.367 . S
C498 C506 1.378 . S
C499 C498 1.367 . S
C499 C507 1.433 . S
C500 H496 0.929 . S
C500 C502 1.378 . S
C500 C504 1.350 . S
C501 C504 1.463 . S
C501 C506 1.350 . S
C501 N509 1.427 . S
C502 H493 0.930 . S
C502 C500 1.378 . S
C502 C503 1.367 . S
C503 C502 1.367 . S
C503 C505 1.433 . S
C504 C500 1.350 . S
C504 C501 1.463 . S
C504 N508 1.427 . S
C505 H495 0.929 . S
C505 C503 1.433 . S
C505 N508 1.384 . S
C506 H497 0.929 . S
C506 C498 1.378 . S
C506 C501 1.350 . S
C507 H494 0.929 . S
C507 C499 1.433 . S
C507 N509 1.384 . S
N508 C504 1.427 . S
N508 C505 1.384 . S
N509 C501 1.427 . S
N509 C507 1.384 . S
H510 C516 0.930 . S
H511 C520 0.930 . S
H512 C525 0.929 . S
H513 C523 0.929 . S
H514 C518 0.913 1_554 S
H515 C524 0.929 . S
C516 H510 0.930 . S
C516 C517 1.367 . S
C516 C524 1.378 . S
C517 C516 1.367 . S
C517 C525 1.433 . S
C518 H514 0.913 1_556 S
C518 C520 1.395 . S
C518 C522 1.349 1_556 S
C519 C522 1.463 . S
C519 C524 1.350 . S
C519 N527 1.427 . S
C520 H511 0.930 . S
C520 C518 1.395 . S
C520 C521 1.367 . S
C521 C520 1.367 . S
C521 C523 1.433 . S
C522 C518 1.349 1_554 S
C522 C519 1.463 . S
C522 N526 1.427 1_554 S
C523 H513 0.929 . S
C523 C521 1.433 . S
C523 N526 1.384 . S
C524 H515 0.929 . S
C524 C516 1.378 . S
C524 C519 1.350 . S
C525 H512 0.929 . S
C525 C517 1.433 . S
C525 N527 1.384 . S
N526 C522 1.427 1_556 S
N526 C523 1.384 . S
N527 C519 1.427 . S
N527 C525 1.384 . S
H528 C534 0.930 . S
H529 C538 0.930 . S
H530 C543 0.929 . S
H531 C541 0.929 . S
H532 C536 0.929 . S
H533 C542 0.929 . S
C534 H528 0.930 . S
C534 C535 1.367 . S
C534 C542 1.378 . S
C535 C534 1.367 . S
C535 C543 1.433 . S
C536 H532 0.929 . S
C536 C538 1.378 . S
C536 C540 1.350 . S
C537 C540 1.463 . S
C537 C542 1.350 . S
C537 N545 1.427 . S
C538 H529 0.930 . S
C538 C536 1.378 . S
C538 C539 1.367 . S
C539 C538 1.367 . S
C539 C541 1.433 . S
C540 C536 1.350 . S
C540 C537 1.463 . S
C540 N544 1.427 . S
C541 H531 0.929 . S
C541 C539 1.433 . S
C541 N544 1.384 . S
C542 H533 0.929 . S
C542 C534 1.378 . S
C542 C537 1.350 . S
C543 H530 0.929 . S
C543 C535 1.433 . S
C543 N545 1.384 . S
N544 C540 1.427 . S
N544 C541 1.384 . S
N545 C537 1.427 . S
N545 C543 1.384 . S
H546 C552 0.930 . S
H547 C556 0.930 . S
H548 C561 0.929 . S
H549 C559 0.929 . S
H550 C554 0.929 . S
H551 C560 0.929 . S
C552 H546 0.930 . S
C552 C553 1.367 . S
C552 C560 1.378 1_554 S
C553 C552 1.367 . S
C553 C561 1.433 . S
C554 H550 0.929 . S
C554 C556 1.378 . S
C554 C558 1.350 . S
C555 C558 1.463 . S
C555 C560 1.350 . S
C555 N563 1.427 1_556 S
C556 H547 0.930 . S
C556 C554 1.378 . S
C556 C557 1.367 . S
C557 C556 1.367 . S
C557 C559 1.433 . S
C558 C554 1.350 . S
C558 C555 1.463 . S
C558 N562 1.427 . S
C559 H549 0.929 . S
C559 C557 1.433 . S
C559 N562 1.384 . S
C560 H551 0.929 . S
C560 C552 1.378 1_556 S
C560 C555 1.350 . S
C561 H548 0.929 . S
C561 C553 1.433 . S
C561 N563 1.384 . S
N562 C558 1.427 . S
N562 C559 1.384 . S
N563 C555 1.427 1_554 S
N563 C561 1.384 . S
H564 C570 0.930 . S
H565 C574 0.930 . S
H566 C579 0.929 . S
H567 C577 0.929 . S
H568 C572 0.929 . S
H569 C578 0.929 . S
C570 H564 0.930 . S
C570 C571 1.367 . S
C570 C578 1.378 . S
C571 C570 1.367 . S
C571 C579 1.433 . S
C572 H568 0.929 . S
C572 C574 1.378 . S
C572 C576 1.350 . S
C573 C576 1.463 . S
C573 C578 1.350 . S
C573 N581 1.427 . S
C574 H565 0.930 . S
C574 C572 1.378 . S
C574 C575 1.367 . S
C575 C574 1.367 . S
C575 C577 1.433 . S
C576 C572 1.350 . S
C576 C573 1.463 . S
C576 N580 1.427 . S
C577 H567 0.929 . S
C577 C575 1.433 . S
C577 N580 1.384 . S
C578 H569 0.929 . S
C578 C570 1.378 . S
C578 C573 1.350 . S
C579 H566 0.929 . S
C579 C571 1.433 . S
C579 N581 1.384 . S
N580 C576 1.427 . S
N580 C577 1.384 . S
N581 C573 1.427 . S
N581 C579 1.384 . S
H582 C588 0.930 . S
H583 C592 0.930 . S
H584 C597 0.929 . S
H585 C595 0.929 . S
H586 C590 0.929 . S
H587 C596 0.929 . S
C588 H582 0.930 . S
C588 C589 1.367 . S
C588 C596 1.378 . S
C589 C588 1.367 . S
C589 C597 1.433 . S
C590 H586 0.929 . S
C590 C592 1.378 . S
C590 C594 1.350 . S
C591 C594 1.463 . S
C591 C596 1.350 . S
C591 N599 1.427 . S
C592 H583 0.930 . S
C592 C590 1.378 . S
C592 C593 1.367 . S
C593 C592 1.367 . S
C593 C595 1.433 . S
C594 C590 1.350 . S
C594 C591 1.463 . S
C594 N598 1.427 . S
C595 H585 0.929 . S
C595 C593 1.433 . S
C595 N598 1.384 . S
C596 H587 0.929 . S
C596 C588 1.378 . S
C596 C591 1.350 . S
C597 H584 0.929 . S
C597 C589 1.433 . S
C597 N599 1.384 . S
N598 C594 1.427 . S
N598 C595 1.384 . S
N599 C591 1.427 . S
N599 C597 1.384 . S
H600 C606 0.930 . S
H601 C610 0.930 . S
H602 C615 0.929 . S
H603 C613 0.929 . S
H604 C608 0.929 . S
H605 C614 0.929 . S
C606 H600 0.930 . S
C606 C607 1.367 . S
C606 C614 1.378 . S
C607 C606 1.367 . S
C607 C615 1.433 . S
C608 H604 0.929 . S
C608 C610 1.378 . S
C608 C612 1.350 . S
C609 C612 1.463 . S
C609 C614 1.350 . S
C609 N617 1.427 . S
C610 H601 0.930 . S
C610 C608 1.378 . S
C610 C611 1.367 . S
C611 C610 1.367 . S
C611 C613 1.433 . S
C612 C608 1.350 . S
C612 C609 1.463 . S
C612 N616 1.427 . S
C613 H603 0.929 . S
C613 C611 1.433 . S
C613 N616 1.384 . S
C614 H605 0.929 . S
C614 C606 1.378 . S
C614 C609 1.350 . S
C615 H602 0.929 . S
C615 C607 1.433 . S
C615 N617 1.384 . S
N616 C612 1.427 . S
N616 C613 1.384 . S
N617 C609 1.427 . S
N617 C615 1.384 . S
H618 C624 0.930 . S
H619 C628 0.930 . S
H620 C633 0.929 . S
H621 C631 0.929 . S
H622 C626 0.929 . S
H623 C632 0.929 . S
C624 H618 0.930 . S
C624 C625 1.367 . S
C624 C632 1.378 . S
C625 C624 1.367 . S
C625 C633 1.433 . S
C626 H622 0.929 . S
C626 C628 1.378 . S
C626 C630 1.350 1_565 S
C627 C630 1.463 . S
C627 C632 1.350 . S
C627 N635 1.427 . S
C628 H619 0.930 . S
C628 C626 1.378 . S
C628 C629 1.367 . S
C629 C628 1.367 . S
C629 C631 1.433 . S
C630 C626 1.350 1_545 S
C630 C627 1.463 . S
C630 N634 1.427 . S
C631 H621 0.929 . S
C631 C629 1.433 . S
C631 N634 1.384 1_565 S
C632 H623 0.929 . S
C632 C624 1.378 . S
C632 C627 1.350 . S
C633 H620 0.929 . S
C633 C625 1.433 . S
C633 N635 1.384 . S
N634 C630 1.427 . S
N634 C631 1.384 1_545 S
N635 C627 1.427 . S
N635 C633 1.384 . S
H636 C642 0.930 . S
H637 C646 0.930 . S
H638 C651 0.929 . S
H639 C649 0.929 . S
H640 C644 0.929 . S
H641 C650 0.929 . S
C642 H636 0.930 . S
C642 C643 1.367 . S
C642 C650 1.378 . S
C643 C642 1.367 . S
C643 C651 1.433 . S
C644 H640 0.929 . S
C644 C646 1.378 . S
C644 C648 1.350 . S
C645 C648 1.463 . S
C645 C650 1.350 . S
C645 N653 1.427 . S
C646 H637 0.930 . S
C646 C644 1.378 . S
C646 C647 1.367 . S
C647 C646 1.367 . S
C647 C649 1.433 . S
C648 C644 1.350 . S
C648 C645 1.463 . S
C648 N652 1.427 . S
C649 H639 0.929 . S
C649 C647 1.433 . S
C649 N652 1.384 . S
C650 H641 0.929 . S
C650 C642 1.378 . S
C650 C645 1.350 . S
C651 H638 0.929 . S
C651 C643 1.433 . S
C651 N653 1.384 . S
N652 C648 1.427 . S
N652 C649 1.384 . S
N653 C645 1.427 . S
N653 C651 1.384 . S
H654 C660 0.930 . S
H655 C664 0.930 . S
H656 C669 0.929 . S
H657 C667 0.929 . S
H658 C662 0.929 . S
H659 C668 0.929 . S
C660 H654 0.930 . S
C660 C661 1.367 . S
C660 C668 1.378 . S
C661 C660 1.367 . S
C661 C669 1.433 . S
C662 H658 0.929 . S
C662 C664 1.378 . S
C662 C666 1.350 . S
C663 C666 1.443 1_545 S
C663 C668 1.367 . S
C663 N671 1.429 . S
C664 H655 0.930 . S
C664 C662 1.378 . S
C664 C665 1.367 . S
C665 C664 1.367 . S
C665 C667 1.433 . S
C666 C662 1.350 . S
C666 C663 1.443 1_565 S
C666 N670 1.427 . S
C667 H657 0.929 . S
C667 C665 1.433 . S
C667 N670 1.384 . S
C668 H659 0.929 . S
C668 C660 1.378 . S
C668 C663 1.367 . S
C669 H656 0.929 . S
C669 C661 1.433 . S
C669 N671 1.384 . S
N670 C666 1.427 . S
N670 C667 1.384 . S
N671 C663 1.429 . S
N671 C669 1.384 . S
H672 C678 0.930 . S
H673 C682 0.930 . S
H674 C687 0.929 . S
H675 C685 0.929 . S
H676 C680 0.929 . S
H677 C686 0.929 . S
C678 H672 0.930 . S
C678 C679 1.367 . S
C678 C686 1.378 . S
C679 C678 1.367 . S
C679 C687 1.433 . S
C680 H676 0.929 . S
C680 C682 1.378 . S
C680 C684 1.350 . S
C681 C684 1.463 . S
C681 C686 1.350 . S
C681 N689 1.427 . S
C682 H673 0.930 . S
C682 C680 1.378 . S
C682 C683 1.367 . S
C683 C682 1.367 . S
C683 C685 1.433 . S
C684 C680 1.350 . S
C684 C681 1.463 . S
C684 N688 1.427 . S
C685 H675 0.929 . S
C685 C683 1.433 . S
C685 N688 1.384 . S
C686 H677 0.929 . S
C686 C678 1.378 . S
C686 C681 1.350 . S
C687 H674 0.929 . S
C687 C679 1.433 . S
C687 N689 1.384 . S
N688 C684 1.427 . S
N688 C685 1.384 . S
N689 C681 1.427 . S
N689 C687 1.384 . S
H690 C696 0.930 . S
H691 C700 0.930 . S
H692 C705 0.929 . S
H693 C703 0.929 . S
H694 C698 0.929 . S
H695 C704 0.929 . S
C696 H690 0.930 . S
C696 C697 1.367 . S
C696 C704 1.378 . S
C697 C696 1.367 . S
C697 C705 1.433 . S
C698 H694 0.929 . S
C698 C700 1.378 . S
C698 C702 1.350 . S
C699 C702 1.463 . S
C699 C704 1.350 . S
C699 N707 1.427 . S
C700 H691 0.930 . S
C700 C698 1.378 . S
C700 C701 1.367 . S
C701 C700 1.367 . S
C701 C703 1.433 . S
C702 C698 1.350 . S
C702 C699 1.463 . S
C702 N706 1.427 . S
C703 H693 0.929 . S
C703 C701 1.433 . S
C703 N706 1.384 . S
C704 H695 0.929 . S
C704 C696 1.378 . S
C704 C699 1.350 . S
C705 H692 0.929 . S
C705 C697 1.433 . S
C705 N707 1.384 . S
N706 C702 1.427 . S
N706 C703 1.384 . S
N707 C699 1.427 . S
N707 C705 1.384 . S
H708 C714 0.930 . S
H709 C718 0.930 . S
H710 C723 0.929 . S
H711 C721 0.929 . S
H712 C716 0.929 . S
H713 C722 0.929 . S
C714 H708 0.930 . S
C714 C715 1.367 . S
C714 C722 1.378 . S
C715 C714 1.367 . S
C715 C723 1.433 . S
C716 H712 0.929 . S
C716 C718 1.378 . S
C716 C720 1.350 . S
C717 C720 1.463 . S
C717 C722 1.350 . S
C717 N725 1.427 . S
C718 H709 0.930 . S
C718 C716 1.378 . S
C718 C719 1.367 . S
C719 C718 1.367 . S
C719 C721 1.433 . S
C720 C716 1.350 . S
C720 C717 1.463 . S
C720 N724 1.427 . S
C721 H711 0.929 . S
C721 C719 1.433 . S
C721 N724 1.384 . S
C722 H713 0.929 . S
C722 C714 1.378 . S
C722 C717 1.350 . S
C723 H710 0.929 . S
C723 C715 1.433 . S
C723 N725 1.384 . S
N724 C720 1.427 . S
N724 C721 1.384 . S
N725 C717 1.427 . S
N725 C723 1.384 . S
H726 C732 0.930 . S
H727 C736 0.930 . S
H728 C741 0.929 . S
H729 C739 0.929 . S
H730 C734 0.929 . S
H731 C740 0.929 . S
C732 H726 0.930 . S
C732 C733 1.367 . S
C732 C740 1.378 . S
C733 C732 1.367 . S
C733 C741 1.433 . S
C734 H730 0.929 . S
C734 C736 1.378 . S
C734 C738 1.350 . S
C735 C738 1.463 . S
C735 C740 1.350 . S
C735 N743 1.427 . S
C736 H727 0.930 . S
C736 C734 1.378 . S
C736 C737 1.367 . S
C737 C736 1.367 . S
C737 C739 1.433 . S
C738 C734 1.350 . S
C738 C735 1.463 . S
C738 N742 1.427 . S
C739 H729 0.929 . S
C739 C737 1.433 . S
C739 N742 1.384 . S
C740 H731 0.929 . S
C740 C732 1.378 . S
C740 C735 1.350 . S
C741 H728 0.929 . S
C741 C733 1.433 . S
C741 N743 1.384 . S
N742 C738 1.427 . S
N742 C739 1.384 . S
N743 C735 1.427 . S
N743 C741 1.384 . S
H744 C750 0.930 . S
H745 C754 0.930 . S
H746 C759 0.929 . S
H747 C757 0.929 . S
H748 C752 0.929 . S
H749 C758 0.929 . S
C750 H744 0.930 . S
C750 C751 1.367 . S
C750 C758 1.378 . S
C751 C750 1.367 . S
C751 C759 1.433 . S
C752 H748 0.929 . S
C752 C754 1.378 . S
C752 C756 1.350 . S
C753 C756 1.463 . S
C753 C758 1.350 . S
C753 N761 1.427 . S
C754 H745 0.930 . S
C754 C752 1.378 . S
C754 C755 1.367 . S
C755 C754 1.367 . S
C755 C757 1.433 . S
C756 C752 1.350 . S
C756 C753 1.463 . S
C756 N760 1.427 . S
C757 H747 0.929 . S
C757 C755 1.433 . S
C757 N760 1.384 . S
C758 H749 0.929 . S
C758 C750 1.378 . S
C758 C753 1.350 . S
C759 H746 0.929 . S
C759 C751 1.433 . S
C759 N761 1.384 . S
N760 C756 1.427 . S
N760 C757 1.384 . S
N761 C753 1.427 . S
N761 C759 1.384 . S
H762 C768 0.930 . S
H763 C772 0.930 . S
H764 C777 0.929 . S
H765 C775 0.929 . S
H766 C770 0.929 . S
H767 C776 0.929 . S
C768 H762 0.930 . S
C768 C769 1.367 . S
C768 C776 1.378 . S
C769 C768 1.367 . S
C769 C777 1.433 . S
C770 H766 0.929 . S
C770 C772 1.378 . S
C770 C774 1.350 . S
C771 C774 1.463 . S
C771 C776 1.350 . S
C771 N779 1.427 . S
C772 H763 0.930 . S
C772 C770 1.378 . S
C772 C773 1.367 . S
C773 C772 1.367 . S
C773 C775 1.433 . S
C774 C770 1.350 . S
C774 C771 1.463 . S
C774 N778 1.427 . S
C775 H765 0.929 . S
C775 C773 1.433 . S
C775 N778 1.384 . S
C776 H767 0.929 . S
C776 C768 1.378 . S
C776 C771 1.350 . S
C777 H764 0.929 . S
C777 C769 1.433 . S
C777 N779 1.384 . S
N778 C774 1.427 . S
N778 C775 1.384 . S
N779 C771 1.427 . S
N779 C777 1.384 . S
H780 C786 0.930 . S
H781 C790 0.930 . S
H782 C795 0.929 . S
H783 C793 0.929 . S
H784 C788 0.929 . S
H785 C794 0.929 . S
C786 H780 0.930 . S
C786 C787 1.367 . S
C786 C794 1.378 . S
C787 C786 1.367 . S
C787 C795 1.433 . S
C788 H784 0.929 . S
C788 C790 1.378 1_455 S
C788 C792 1.350 . S
C789 C792 1.463 . S
C789 C794 1.350 . S
C789 N797 1.427 . S
C790 H781 0.930 . S
C790 C788 1.378 1_655 S
C790 C791 1.367 . S
C791 C790 1.367 . S
C791 C793 1.433 . S
C792 C788 1.350 . S
C792 C789 1.463 . S
C792 N796 1.449 . S
C793 H783 0.929 . S
C793 C791 1.433 . S
C793 N796 1.356 1_655 S
C794 H785 0.929 . S
C794 C786 1.378 . S
C794 C789 1.350 . S
C795 H782 0.929 . S
C795 C787 1.433 . S
C795 N797 1.384 . S
N796 C792 1.449 . S
N796 C793 1.356 1_455 S
N797 C789 1.427 . S
N797 C795 1.384 . S
H798 C804 0.930 . S
H799 C808 0.930 . S
H800 C813 0.929 . S
H801 C811 0.929 . S
H802 C806 0.929 . S
H803 C812 0.929 . S
C804 H798 0.930 . S
C804 C805 1.367 . S
C804 C812 1.378 . S
C805 C804 1.367 . S
C805 C813 1.433 . S
C806 H802 0.929 . S
C806 C808 1.378 . S
C806 C810 1.350 . S
C807 C810 1.463 . S
C807 C812 1.350 . S
C807 N815 1.427 . S
C808 H799 0.930 . S
C808 C806 1.378 . S
C808 C809 1.367 . S
C809 C808 1.367 . S
C809 C811 1.433 . S
C810 C806 1.350 . S
C810 C807 1.463 . S
C810 N814 1.427 . S
C811 H801 0.929 . S
C811 C809 1.433 . S
C811 N814 1.384 . S
C812 H803 0.929 . S
C812 C804 1.378 . S
C812 C807 1.350 . S
C813 H800 0.929 . S
C813 C805 1.433 . S
C813 N815 1.384 . S
N814 C810 1.427 . S
N814 C811 1.384 . S
N815 C807 1.427 . S
N815 C813 1.384 . S
H816 C822 0.930 . S
H817 C826 0.930 . S
H818 C831 0.929 . S
H819 C829 0.929 . S
H820 C824 0.929 . S
H821 C830 0.929 . S
C822 H816 0.930 . S
C822 C823 1.367 . S
C822 C830 1.378 . S
C823 C822 1.367 . S
C823 C831 1.433 . S
C824 H820 0.929 . S
C824 C826 1.378 . S
C824 C828 1.350 . S
C825 C828 1.463 . S
C825 C830 1.350 . S
C825 N833 1.427 . S
C826 H817 0.930 . S
C826 C824 1.378 . S
C826 C827 1.367 . S
C827 C826 1.367 . S
C827 C829 1.433 . S
C828 C824 1.350 . S
C828 C825 1.463 . S
C828 N832 1.427 . S
C829 H819 0.929 . S
C829 C827 1.433 . S
C829 N832 1.384 . S
C830 H821 0.929 . S
C830 C822 1.378 . S
C830 C825 1.350 . S
C831 H818 0.929 . S
C831 C823 1.433 . S
C831 N833 1.384 . S
N832 C828 1.427 . S
N832 C829 1.384 . S
N833 C825 1.427 . S
N833 C831 1.384 . S
H834 C840 0.930 . S
H835 C844 0.930 . S
H836 C849 0.929 . S
H837 C847 0.929 . S
H838 C842 0.929 . S
H839 C848 0.929 . S
C840 H834 0.930 . S
C840 C841 1.367 . S
C840 C848 1.378 . S
C841 C840 1.367 . S
C841 C849 1.433 . S
C842 H838 0.929 . S
C842 C844 1.378 . S
C842 C846 1.350 . S
C843 C846 1.463 . S
C843 C848 1.350 . S
C843 N851 1.427 . S
C844 H835 0.930 . S
C844 C842 1.378 . S
C844 C845 1.367 . S
C845 C844 1.367 . S
C845 C847 1.433 . S
C846 C842 1.350 . S
C846 C843 1.463 . S
C846 N850 1.427 . S
C847 H837 0.929 . S
C847 C845 1.433 . S
C847 N850 1.384 . S
C848 H839 0.929 . S
C848 C840 1.378 . S
C848 C843 1.350 . S
C849 H836 0.929 . S
C849 C841 1.433 . S
C849 N851 1.384 . S
N850 C846 1.427 . S
N850 C847 1.384 . S
N851 C843 1.427 . S
N851 C849 1.384 . S
H852 C858 0.930 . S
H853 C862 0.930 . S
H854 C867 0.929 . S
H855 C865 0.929 . S
H856 C860 0.929 . S
H857 C866 0.929 . S
C858 H852 0.930 . S
C858 C859 1.367 . S
C858 C866 1.378 . S
C859 C858 1.367 . S
C859 C867 1.433 . S
C860 H856 0.929 . S
C860 C862 1.378 . S
C860 C864 1.350 . S
C861 C864 1.463 . S
C861 C866 1.350 . S
C861 N869 1.427 . S
C862 H853 0.930 . S
C862 C860 1.378 . S
C862 C863 1.367 . S
C863 C862 1.367 . S
C863 C865 1.433 . S
C864 C860 1.350 . S
C864 C861 1.463 . S
C864 N868 1.427 . S
C865 H855 0.929 . S
C865 C863 1.433 . S
C865 N868 1.384 . S
C866 H857 0.929 . S
C866 C858 1.378 . S
C866 C861 1.350 . S
C867 H854 0.929 . S
C867 C859 1.433 . S
C867 N869 1.384 . S
N868 C864 1.427 . S
N868 C865 1.384 . S
N869 C861 1.427 . S
N869 C867 1.384 . S
H870 C876 0.930 . S
H871 C880 0.930 . S
H872 C885 0.929 . S
H873 C883 0.929 . S
H874 C878 0.929 1_655 S
H875 C884 0.929 . S
C876 H870 0.930 . S
C876 C877 1.367 . S
C876 C884 1.378 . S
C877 C876 1.367 . S
C877 C885 1.433 . S
C878 H874 0.929 1_455 S
C878 C880 1.378 . S
C878 C882 1.350 1_455 S
C879 C882 1.463 . S
C879 C884 1.350 . S
C879 N887 1.427 . S
C880 H871 0.930 . S
C880 C878 1.378 . S
C880 C881 1.367 . S
C881 C880 1.367 . S
C881 C883 1.433 . S
C882 C878 1.350 1_655 S
C882 C879 1.463 . S
C882 N886 1.427 1_655 S
C883 H873 0.929 . S
C883 C881 1.433 . S
C883 N886 1.384 . S
C884 H875 0.929 . S
C884 C876 1.378 . S
C884 C879 1.350 . S
C885 H872 0.929 . S
C885 C877 1.433 . S
C885 N887 1.384 . S
N886 C882 1.427 1_455 S
N886 C883 1.384 . S
N887 C879 1.427 . S
N887 C885 1.384 . S
C247 C9 1.272 . S
C251 C229 1.275 . S
C265 C199 1.449 1_565 S
C269 C29 1.511 . S
C283 C59 1.295 . S
C287 C179 1.300 . S
C301 C69 1.770 . S
C305 C209 1.764 . S
C319 C89 1.556 . S
C323 C219 1.503 . S
C337 C119 1.266 . S
C341 C239 1.272 . S
C355 C189 1.616 . S
C359 C129 1.626 1_556 S
C373 C159 1.440 . S
C377 C169 1.543 . S
C391 C79 1.643 . S
C395 C99 1.647 . S
C409 C19 1.442 . S
C413 C109 1.514 . S
C427 C39 1.335 1_655 S
C431 C139 1.342 . S
C445 C149 1.675 . S
C449 C49 1.681 . S
C463 C2 1.614 . S
C467 C178 1.589 . S
C481 C22 1.524 . S
C485 C208 1.465 . S
C499 C228 1.536 . S
C503 C41 1.522 . S
C517 C62 1.390 . S
C521 C198 1.376 . S
C535 C82 1.325 . S
C539 C188 1.307 . S
C553 C168 1.258 . S
C557 C101 1.261 . S
C571 C218 1.235 . S
C575 C122 1.245 . S
C589 C238 2.123 . S
C593 C141 2.022 . S
C607 C18 1.666 . S
C611 C61 1.596 . S
C625 C1 1.561 . S
C629 C38 1.615 . S
C643 C21 1.349 . S
C647 C48 1.365 . S
C661 C78 1.342 . S
C665 C42 1.353 . S
C679 C102 1.365 . S
C683 C98 1.374 . S
C697 C108 1.578 . S
C701 C121 1.586 . S
C715 C138 1.537 . S
C719 C142 1.553 . S
C733 C81 1.165 . S
C737 C148 1.164 . S
C751 C162 0.727 . S
C755 C68 0.742 . S
C769 C118 1.317 . S
C773 C181 1.274 . S
C787 C161 1.258 . S
C791 C128 1.269 . S
C805 C202 1.567 . S
C809 C158 1.565 . S
C823 C88 1.121 . S
C827 C222 1.158 . S
C841 C221 1.444 . S
C845 C28 1.449 . S
C859 C58 1.458 . S
C863 C182 1.477 . S
C877 C201 1.442 . S
C881 C8 1.442 . S
