# Generated by pormake.
# Topology uot, (4)-cn, num edge types: 1
# Building blocks:
#     Node 0, Type 0, BuildingBlock: ICAMEG_clean_sbu_1, # of connection points: 4
#     Node 1, Type 0, BuildingBlock: ICAMEG_clean_sbu_1, # of connection points: 4
#     Node 2, Type 0, BuildingBlock: ICAMEG_clean_sbu_1, # of connection points: 4
#     Node 3, Type 0, BuildingBlock: ICAMEG_clean_sbu_1, # of connection points: 4
#     Node 4, Type 0, BuildingBlock: ICAMEG_clean_sbu_1, # of connection points: 4
#     Node 5, Type 0, BuildingBlock: ICAMEG_clean_sbu_1, # of connection points: 4
#     Node 6, Type 0, BuildingBlock: ICAMEG_clean_sbu_1, # of connection points: 4
#     Node 7, Type 0, BuildingBlock: ICAMEG_clean_sbu_1, # of connection points: 4
#     Node 8, Type 0, BuildingBlock: ICAMEG_clean_sbu_1, # of connection points: 4
#     Node 9, Type 0, BuildingBlock: ICAMEG_clean_sbu_1, # of connection points: 4
#     Node 10, Type 0, BuildingBlock: ICAMEG_clean_sbu_1, # of connection points: 4
#     Node 11, Type 0, BuildingBlock: ICAMEG_clean_sbu_1, # of connection points: 4
#     Node 12, Type 0, BuildingBlock: ICAMEG_clean_sbu_1, # of connection points: 4
#     Node 13, Type 0, BuildingBlock: ICAMEG_clean_sbu_1, # of connection points: 4
#     Node 14, Type 0, BuildingBlock: ICAMEG_clean_sbu_1, # of connection points: 4
#     Node 15, Type 0, BuildingBlock: ICAMEG_clean_sbu_1, # of connection points: 4
#     Edge 16, Type (0, 0), BuildingBlock: TEMPAE_clean_linker_10, # of connection points: 2
#     Edge 17, Type (0, 0), BuildingBlock: TEMPAE_clean_linker_10, # of connection points: 2
#     Edge 18, Type (0, 0), BuildingBlock: TEMPAE_clean_linker_10, # of connection points: 2
#     Edge 19, Type (0, 0), BuildingBlock: TEMPAE_clean_linker_10, # of connection points: 2
#     Edge 20, Type (0, 0), BuildingBlock: TEMPAE_clean_linker_10, # of connection points: 2
#     Edge 21, Type (0, 0), BuildingBlock: TEMPAE_clean_linker_10, # of connection points: 2
#     Edge 22, Type (0, 0), BuildingBlock: TEMPAE_clean_linker_10, # of connection points: 2
#     Edge 23, Type (0, 0), BuildingBlock: TEMPAE_clean_linker_10, # of connection points: 2
#     Edge 24, Type (0, 0), BuildingBlock: TEMPAE_clean_linker_10, # of connection points: 2
#     Edge 25, Type (0, 0), BuildingBlock: TEMPAE_clean_linker_10, # of connection points: 2
#     Edge 26, Type (0, 0), BuildingBlock: TEMPAE_clean_linker_10, # of connection points: 2
#     Edge 27, Type (0, 0), BuildingBlock: TEMPAE_clean_linker_10, # of connection points: 2
#     Edge 28, Type (0, 0), BuildingBlock: TEMPAE_clean_linker_10, # of connection points: 2
#     Edge 29, Type (0, 0), BuildingBlock: TEMPAE_clean_linker_10, # of connection points: 2
#     Edge 30, Type (0, 0), BuildingBlock: TEMPAE_clean_linker_10, # of connection points: 2
#     Edge 31, Type (0, 0), BuildingBlock: TEMPAE_clean_linker_10, # of connection points: 2
#     Edge 32, Type (0, 0), BuildingBlock: TEMPAE_clean_linker_10, # of connection points: 2
#     Edge 33, Type (0, 0), BuildingBlock: TEMPAE_clean_linker_10, # of connection points: 2
#     Edge 34, Type (0, 0), BuildingBlock: TEMPAE_clean_linker_10, # of connection points: 2
#     Edge 35, Type (0, 0), BuildingBlock: TEMPAE_clean_linker_10, # of connection points: 2
#     Edge 36, Type (0, 0), BuildingBlock: TEMPAE_clean_linker_10, # of connection points: 2
#     Edge 37, Type (0, 0), BuildingBlock: TEMPAE_clean_linker_10, # of connection points: 2
#     Edge 38, Type (0, 0), BuildingBlock: TEMPAE_clean_linker_10, # of connection points: 2
#     Edge 39, Type (0, 0), BuildingBlock: TEMPAE_clean_linker_10, # of connection points: 2
#     Edge 40, Type (0, 0), BuildingBlock: TEMPAE_clean_linker_10, # of connection points: 2
#     Edge 41, Type (0, 0), BuildingBlock: TEMPAE_clean_linker_10, # of connection points: 2
#     Edge 42, Type (0, 0), BuildingBlock: TEMPAE_clean_linker_10, # of connection points: 2
#     Edge 43, Type (0, 0), BuildingBlock: TEMPAE_clean_linker_10, # of connection points: 2
#     Edge 44, Type (0, 0), BuildingBlock: TEMPAE_clean_linker_10, # of connection points: 2
#     Edge 45, Type (0, 0), BuildingBlock: TEMPAE_clean_linker_10, # of connection points: 2
#     Edge 46, Type (0, 0), BuildingBlock: TEMPAE_clean_linker_10, # of connection points: 2
#     Edge 47, Type (0, 0), BuildingBlock: TEMPAE_clean_linker_10, # of connection points: 2
# Relax obj value: 0.031
# Max RMSD: 0.052
# Mean RMSD: 0.052
data_MOF--net-uot--node1-ICAMEG_clean_sbu_1--edge1-TEMPAE_clean_linker_10
_symmetry_space_group_name_H-M    P1
_symmetry_Int_Tables_number       1
_symmetry_cell_setting            triclinic
loop_
_symmetry_equiv_pos_as_xyz
'x, y, z'
_cell_length_a     47.389624
_cell_length_b     47.392164
_cell_length_c     46.926338
_cell_angle_alpha  89.97415
_cell_angle_beta   90.018365
_cell_angle_gamma 89.985032
loop_
_atom_site_label
_atom_site_type_symbol
_atom_site_fract_x
_atom_site_fract_y
_atom_site_fract_z
_atom_type_partial_charge
Co0 Co 0.1537 0.43603 0.35601 0.0
Co1 Co 0.20575 0.43008 0.30513 0.0
O2 O 0.19204 0.42589 0.34432 0.0
C3 C 0.18827 0.46732 0.39861 0.0
O4 O 0.20315 0.478 0.37761 0.0
C5 C 0.2205 0.37101 0.32075 0.0
O6 O 0.19605 0.36894 0.33369 0.0
O7 O 0.17269 0.40878 0.28988 0.0
O8 O 0.13779 0.42214 0.3192 0.0
H9 H 0.19649 0.45268 0.20094 0.0
H10 H 0.18835 0.40071 0.39471 0.0
O11 O 0.16831 0.4501 0.39341 0.0
H12 H 0.10497 0.34286 0.37154 0.0
H13 H 0.0734 0.44413 0.42583 0.0
H14 H 0.10506 0.46377 0.32772 0.0
H15 H 0.11002 0.39082 0.35182 0.0
H16 H 0.12125 0.43068 0.41026 0.0
O17 O 0.22754 0.39387 0.30837 0.0
H18 H 0.17976 0.44757 0.25044 0.0
H19 H 0.26126 0.42065 0.27662 0.0
H20 H 0.05698 0.47737 0.34232 0.0
H21 H 0.18395 0.35297 0.41519 0.0
H22 H 0.04086 0.46756 0.39171 0.0
H23 H 0.14207 0.32366 0.40354 0.0
O24 O 0.15781 0.47439 0.33922 0.0
H25 H 0.28644 0.44686 0.37246 0.0
H26 H 0.23416 0.48425 0.28981 0.0
H27 H 0.27411 0.51135 0.30938 0.0
H28 H 0.3006 0.49264 0.35099 0.0
H29 H 0.24616 0.42059 0.35234 0.0
H30 H 0.27878 0.42519 0.22734 0.0
H31 H 0.24633 0.44143 0.18912 0.0
O32 O 0.18468 0.4665 0.30063 0.0
C33 C 0.14661 0.4104 0.29644 0.0
C34 C 0.21086 0.44567 0.21741 0.0
C35 C 0.25703 0.4302 0.23223 0.0
N36 N 0.21956 0.43403 0.26642 0.0
C37 C 0.20153 0.44281 0.2455 0.0
C38 C 0.24697 0.4276 0.26008 0.0
C39 C 0.23882 0.43932 0.2108 0.0
C40 C 0.16991 0.3882 0.3898 0.0
N41 N 0.14944 0.39858 0.37215 0.0
C42 C 0.1676 0.36113 0.40135 0.0
C43 C 0.14413 0.34468 0.39476 0.0
C44 C 0.12331 0.35542 0.37678 0.0
C45 C 0.12635 0.38257 0.36559 0.0
C46 C 0.08016 0.44846 0.40424 0.0
C47 C 0.09815 0.45925 0.34919 0.0
C48 C 0.10725 0.44094 0.39531 0.0
N49 N 0.11587 0.44622 0.36803 0.0
C50 C 0.07092 0.46708 0.35736 0.0
C51 C 0.0619 0.4616 0.38508 0.0
C52 C 0.16863 0.48225 0.31562 0.0
C53 C 0.2751 0.45521 0.35429 0.0
C54 C 0.24547 0.47604 0.30799 0.0
C55 C 0.26814 0.49143 0.31893 0.0
C56 C 0.28301 0.48091 0.34226 0.0
N57 N 0.23786 0.45084 0.31989 0.0
C58 C 0.25234 0.44039 0.34276 0.0
Co59 Co 0.4358 0.8471 0.64394 0.0
Co60 Co 0.43 0.79576 0.69553 0.0
O61 O 0.42583 0.80887 0.65614 0.0
C62 C 0.46739 0.81228 0.60179 0.0
O63 O 0.47828 0.79778 0.62297 0.0
C64 C 0.37085 0.78092 0.68059 0.0
O65 O 0.36861 0.80554 0.66798 0.0
O66 O 0.40837 0.82886 0.71015 0.0
O67 O 0.42183 0.86347 0.68051 0.0
H68 H 0.45216 0.80666 0.79964 0.0
H69 H 0.40053 0.81171 0.60594 0.0
O70 O 0.44991 0.83208 0.60673 0.0
H71 H 0.34236 0.89522 0.62785 0.0
H72 H 0.44346 0.92654 0.57303 0.0
H73 H 0.46347 0.89614 0.67149 0.0
H74 H 0.39044 0.89072 0.64743 0.0
H75 H 0.43021 0.87885 0.58927 0.0
O76 O 0.39393 0.77372 0.69247 0.0
H77 H 0.44709 0.82264 0.74987 0.0
H78 H 0.42086 0.74061 0.72486 0.0
H79 H 0.47687 0.94409 0.65622 0.0
H80 H 0.35267 0.81552 0.58563 0.0
H81 H 0.46687 0.95957 0.60665 0.0
H82 H 0.3232 0.85747 0.59666 0.0
O83 O 0.47419 0.84333 0.66077 0.0
H84 H 0.44759 0.71413 0.62964 0.0
H85 H 0.4844 0.76806 0.71142 0.0
H86 H 0.51186 0.728 0.6926 0.0
H87 H 0.49344 0.70069 0.65143 0.0
H88 H 0.42094 0.75453 0.64901 0.0
H89 H 0.42536 0.72382 0.77441 0.0
H90 H 0.44124 0.75692 0.81218 0.0
O91 O 0.46628 0.81714 0.69984 0.0
C92 C 0.40988 0.85485 0.70324 0.0
C93 C 0.4453 0.79202 0.78336 0.0
C94 C 0.43022 0.74553 0.76921 0.0
N95 N 0.43389 0.78254 0.73446 0.0
C96 C 0.44247 0.80092 0.75513 0.0
C97 C 0.42765 0.75518 0.7412 0.0
C98 C 0.43915 0.76411 0.79039 0.0
C99 C 0.38795 0.83018 0.61057 0.0
N100 N 0.39831 0.85099 0.62778 0.0
C101 C 0.36082 0.83215 0.59912 0.0
C102 C 0.34427 0.85567 0.60536 0.0
C103 C 0.355 0.87684 0.62288 0.0
C104 C 0.38221 0.87413 0.63399 0.0
C105 C 0.44787 0.92007 0.5947 0.0
C106 C 0.45886 0.90278 0.64995 0.0
C107 C 0.44046 0.89307 0.60401 0.0
N108 N 0.44584 0.8848 0.63139 0.0
C109 C 0.46658 0.92993 0.64139 0.0
C110 C 0.46099 0.93859 0.61357 0.0
C111 C 0.48205 0.83294 0.68457 0.0
C112 C 0.45581 0.72583 0.64762 0.0
C113 C 0.47631 0.75637 0.69343 0.0
C114 C 0.49191 0.73365 0.68292 0.0
C115 C 0.48155 0.71832 0.65983 0.0
N116 N 0.45106 0.76359 0.68136 0.0
C117 C 0.44077 0.74867 0.65873 0.0
Co118 Co 0.85463 0.56892 0.3562 0.0
Co119 Co 0.80147 0.57528 0.30626 0.0
O120 O 0.816 0.57923 0.34529 0.0
C121 C 0.81972 0.53873 0.39952 0.0
O122 O 0.80144 0.53207 0.37961 0.0
C123 C 0.78735 0.63458 0.32202 0.0
O124 O 0.81181 0.6365 0.33498 0.0
O125 O 0.83442 0.59627 0.29029 0.0
O126 O 0.86972 0.58357 0.31941 0.0
H127 H 0.80856 0.55267 0.20192 0.0
H128 H 0.82052 0.60332 0.39606 0.0
O129 O 0.84119 0.55376 0.39362 0.0
H130 H 0.90311 0.66211 0.37242 0.0
H131 H 0.93653 0.56005 0.42408 0.0
H132 H 0.90269 0.54178 0.32643 0.0
H133 H 0.89803 0.61443 0.35204 0.0
H134 H 0.88831 0.5736 0.40978 0.0
O135 O 0.78011 0.61173 0.30977 0.0
H136 H 0.82625 0.55758 0.2511 0.0
H137 H 0.7455 0.58522 0.27877 0.0
H138 H 0.95114 0.52812 0.33975 0.0
H139 H 0.82493 0.65077 0.41719 0.0
H140 H 0.96835 0.53724 0.3889 0.0
H141 H 0.86641 0.68055 0.4053 0.0
O142 O 0.85026 0.53083 0.33901 0.0
H143 H 0.72132 0.55984 0.37454 0.0
H144 H 0.77241 0.52123 0.29176 0.0
H145 H 0.73237 0.49472 0.31195 0.0
H146 H 0.70647 0.51405 0.35362 0.0
H147 H 0.7617 0.58549 0.35384 0.0
H148 H 0.72702 0.58088 0.22983 0.0
H149 H 0.75861 0.56438 0.19102 0.0
O150 O 0.82206 0.53864 0.30137 0.0
C151 C 0.86057 0.59504 0.29664 0.0
C152 C 0.79456 0.5598 0.21866 0.0
C153 C 0.74881 0.57567 0.23432 0.0
N154 N 0.78688 0.57148 0.26782 0.0
C155 C 0.80444 0.56255 0.24656 0.0
C156 C 0.75942 0.57815 0.26197 0.0
C157 C 0.76654 0.5664 0.21255 0.0
C158 C 0.83879 0.61604 0.39105 0.0
N159 N 0.85902 0.60608 0.37292 0.0
C160 C 0.8411 0.64294 0.40297 0.0
C161 C 0.86436 0.65965 0.39624 0.0
C162 C 0.88494 0.64933 0.37777 0.0
C163 C 0.8819 0.62235 0.36622 0.0
C164 C 0.9293 0.55603 0.40258 0.0
C165 C 0.91008 0.546 0.3478 0.0
C166 C 0.902 0.56362 0.39437 0.0
N167 N 0.89276 0.55869 0.36722 0.0
C168 C 0.93751 0.53814 0.35525 0.0
C169 C 0.94714 0.54323 0.38283 0.0
C170 C 0.83864 0.52293 0.31583 0.0
C171 C 0.73239 0.55122 0.35635 0.0
C172 C 0.76138 0.52969 0.30999 0.0
C173 C 0.73864 0.51464 0.32127 0.0
C174 C 0.72411 0.52551 0.34463 0.0
N175 N 0.76938 0.55489 0.3216 0.0
C176 C 0.75521 0.56571 0.34447 0.0
Co177 Co 0.56334 0.15065 0.64804 0.0
Co178 Co 0.57232 0.20377 0.69738 0.0
O179 O 0.5748 0.18893 0.65853 0.0
C180 C 0.53332 0.18737 0.60668 0.0
O181 O 0.52921 0.20578 0.62711 0.0
C182 C 0.63327 0.21559 0.68559 0.0
O183 O 0.63798 0.18839 0.68317 0.0
O184 O 0.59322 0.17048 0.71292 0.0
O185 O 0.57923 0.13531 0.68419 0.0
H186 H 0.55405 0.19849 0.80272 0.0
H187 H 0.59727 0.18475 0.60776 0.0
O188 O 0.54682 0.16463 0.61137 0.0
H189 H 0.65467 0.10021 0.62774 0.0
H190 H 0.54984 0.06931 0.58036 0.0
H191 H 0.5368 0.10294 0.67891 0.0
H192 H 0.60779 0.10605 0.64977 0.0
H193 H 0.56489 0.11721 0.59418 0.0
O194 O 0.60861 0.22478 0.69117 0.0
H195 H 0.5566 0.18002 0.75366 0.0
H196 H 0.58436 0.25986 0.72354 0.0
H197 H 0.52165 0.05482 0.66608 0.0
H198 H 0.64397 0.17967 0.5851 0.0
H199 H 0.52814 0.03771 0.61648 0.0
H200 H 0.67302 0.13716 0.59509 0.0
O201 O 0.52611 0.15568 0.66678 0.0
H202 H 0.55543 0.28442 0.62986 0.0
H203 H 0.519 0.2332 0.7136 0.0
H204 H 0.49229 0.27368 0.69456 0.0
H205 H 0.51055 0.29966 0.65244 0.0
H206 H 0.58122 0.24352 0.64932 0.0
H207 H 0.58235 0.27912 0.77232 0.0
H208 H 0.56699 0.24838 0.81229 0.0
O209 O 0.53572 0.1836 0.70419 0.0
C210 C 0.59149 0.14434 0.70659 0.0
C211 C 0.56069 0.21212 0.78546 0.0
C212 C 0.57662 0.25736 0.76841 0.0
N213 N 0.57042 0.21889 0.73573 0.0
C214 C 0.56211 0.2018 0.75763 0.0
C215 C 0.57778 0.24631 0.74084 0.0
C216 C 0.56799 0.2401 0.79083 0.0
C217 C 0.60971 0.1661 0.61202 0.0
N218 N 0.59975 0.14564 0.62989 0.0
C219 C 0.63617 0.16338 0.59921 0.0
C220 C 0.65247 0.13954 0.60486 0.0
C221 C 0.64219 0.1188 0.62318 0.0
C222 C 0.61565 0.12225 0.63563 0.0
C223 C 0.54696 0.07649 0.60206 0.0
C224 C 0.53988 0.09558 0.65733 0.0
C225 C 0.55541 0.10361 0.61 0.0
N226 N 0.55196 0.11277 0.63739 0.0
C227 C 0.53118 0.06834 0.65017 0.0
C228 C 0.5348 0.05877 0.62233 0.0
C229 C 0.5193 0.16722 0.69033 0.0
C230 C 0.54729 0.27331 0.64826 0.0
C231 C 0.52696 0.24422 0.69512 0.0
C232 C 0.51181 0.26723 0.68451 0.0
C233 C 0.52208 0.28182 0.66091 0.0
N234 N 0.55165 0.23598 0.6826 0.0
C235 C 0.56188 0.25022 0.65947 0.0
Co236 Co 0.15126 0.56597 0.64485 0.0
Co237 Co 0.20485 0.5717 0.69371 0.0
O238 O 0.18962 0.57659 0.65539 0.0
C239 C 0.18576 0.53694 0.60097 0.0
O240 O 0.20141 0.52679 0.62167 0.0
C241 C 0.21774 0.63289 0.68485 0.0
O242 O 0.19059 0.63818 0.68335 0.0
O243 O 0.17214 0.59244 0.71069 0.0
O244 O 0.13639 0.57865 0.68256 0.0
H245 H 0.20059 0.54795 0.79798 0.0
H246 H 0.18448 0.60354 0.60713 0.0
O247 O 0.16506 0.55314 0.60664 0.0
H248 H 0.09992 0.65832 0.63344 0.0
H249 H 0.06894 0.55781 0.57748 0.0
H250 H 0.10416 0.53659 0.67403 0.0
H251 H 0.10641 0.60974 0.65113 0.0
H252 H 0.117 0.57188 0.59184 0.0
O253 O 0.22661 0.60783 0.689 0.0
H254 H 0.18152 0.5535 0.7494 0.0
H255 H 0.26151 0.58122 0.71969 0.0
H256 H 0.05591 0.52234 0.66065 0.0
H257 H 0.17873 0.652 0.58878 0.0
H258 H 0.038 0.53295 0.61205 0.0
H259 H 0.13622 0.67974 0.60198 0.0
O260 O 0.15677 0.52731 0.6605 0.0
H261 H 0.28286 0.55563 0.62301 0.0
H262 H 0.23372 0.51731 0.70715 0.0
H263 H 0.27289 0.49042 0.68575 0.0
H264 H 0.29779 0.5096 0.64339 0.0
H265 H 0.24337 0.58167 0.64491 0.0
H266 H 0.28138 0.57623 0.76802 0.0
H267 H 0.25087 0.55937 0.80755 0.0
O268 O 0.18401 0.5352 0.69883 0.0
C269 C 0.14584 0.59033 0.70511 0.0
C270 C 0.21412 0.55525 0.78093 0.0
C271 C 0.25945 0.57116 0.76412 0.0
N272 N 0.22043 0.56748 0.7317 0.0
C273 C 0.20346 0.55836 0.75335 0.0
C274 C 0.24807 0.57401 0.73681 0.0
C275 C 0.24232 0.56168 0.78628 0.0
C276 C 0.16582 0.61541 0.61277 0.0
N277 N 0.14573 0.60377 0.63002 0.0
C278 C 0.16272 0.64287 0.6024 0.0
C279 C 0.13888 0.65843 0.60984 0.0
C280 C 0.11851 0.64643 0.6275 0.0
C281 C 0.12233 0.61893 0.63749 0.0
C282 C 0.07648 0.55313 0.59874 0.0
C283 C 0.09646 0.54145 0.65291 0.0
C284 C 0.10369 0.561 0.60697 0.0
N285 N 0.11329 0.55527 0.63383 0.0
C286 C 0.06914 0.53326 0.64543 0.0
C287 C 0.05912 0.53919 0.61815 0.0
C288 C 0.16802 0.51933 0.68387 0.0
C289 C 0.27222 0.54708 0.64151 0.0
C290 C 0.24435 0.52574 0.68866 0.0
C291 C 0.26658 0.51046 0.67667 0.0
C292 C 0.28056 0.52124 0.65293 0.0
N293 N 0.23631 0.55108 0.67736 0.0
C294 C 0.24992 0.56179 0.65407 0.0
Co295 Co 0.57037 0.85186 0.3579 0.0
Co296 Co 0.57658 0.79866 0.3086 0.0
O297 O 0.58089 0.81355 0.34712 0.0
C298 C 0.5402 0.817 0.40073 0.0
O299 O 0.53056 0.80155 0.37964 0.0
C300 C 0.63756 0.78602 0.3187 0.0
O301 O 0.64239 0.81319 0.3212 0.0
O302 O 0.59745 0.83153 0.29209 0.0
O303 O 0.58402 0.86702 0.32072 0.0
H304 H 0.55416 0.8037 0.20406 0.0
H305 H 0.60674 0.81778 0.39609 0.0
O306 O 0.55654 0.83773 0.39563 0.0
H307 H 0.66295 0.90205 0.37206 0.0
H308 H 0.56149 0.93339 0.4261 0.0
H309 H 0.5422 0.89968 0.32863 0.0
H310 H 0.61473 0.89629 0.35316 0.0
H311 H 0.5754 0.88537 0.41147 0.0
O312 O 0.61274 0.77697 0.31359 0.0
H313 H 0.55905 0.8224 0.25285 0.0
H314 H 0.58656 0.74224 0.28235 0.0
H315 H 0.52815 0.94791 0.34228 0.0
H316 H 0.65482 0.82278 0.41564 0.0
H317 H 0.53778 0.96506 0.39134 0.0
H318 H 0.68328 0.86514 0.40359 0.0
O319 O 0.53202 0.84701 0.34127 0.0
H320 H 0.55981 0.72003 0.37847 0.0
H321 H 0.5224 0.76986 0.29429 0.0
H322 H 0.49531 0.73051 0.31508 0.0
H323 H 0.51403 0.70526 0.35746 0.0
H324 H 0.58607 0.7597 0.35718 0.0
H325 H 0.58222 0.72273 0.23381 0.0
H326 H 0.56579 0.75352 0.1943 0.0
O327 O 0.54013 0.81954 0.30315 0.0
C328 C 0.59565 0.85777 0.29806 0.0
C329 C 0.56126 0.79005 0.22112 0.0
C330 C 0.57705 0.74462 0.23781 0.0
N331 N 0.57289 0.78338 0.27045 0.0
C332 C 0.564 0.8005 0.2488 0.0
C333 C 0.57954 0.7558 0.26523 0.0
C334 C 0.56782 0.7619 0.21565 0.0
C335 C 0.61892 0.83638 0.39095 0.0
N336 N 0.60788 0.85679 0.37367 0.0
C337 C 0.64616 0.83905 0.402 0.0
C338 C 0.66213 0.86281 0.3952 0.0
C339 C 0.65075 0.88352 0.3775 0.0
C340 C 0.62345 0.88011 0.36683 0.0
C341 C 0.55723 0.92618 0.40465 0.0
C342 C 0.54664 0.90704 0.34996 0.0
C343 C 0.56501 0.899 0.39626 0.0
N344 N 0.55982 0.88981 0.36915 0.0
C345 C 0.53855 0.93435 0.35759 0.0
C346 C 0.54394 0.94394 0.38513 0.0
C347 C 0.52429 0.83584 0.31779 0.0
C348 C 0.55147 0.73082 0.35997 0.0
C349 C 0.53063 0.75908 0.3128 0.0
C350 C 0.51523 0.73675 0.32443 0.0
C351 C 0.52576 0.72257 0.3482 0.0
N352 N 0.55583 0.76704 0.32445 0.0
C353 C 0.56629 0.75323 0.34775 0.0
Co354 Co 0.84206 0.43659 0.64732 0.0
Co355 Co 0.79447 0.42748 0.70238 0.0
O356 O 0.80492 0.4259 0.662 0.0
C357 C 0.82538 0.47908 0.60394 0.0
O358 O 0.83948 0.49776 0.61889 0.0
C359 C 0.78074 0.36881 0.68494 0.0
O360 O 0.8046 0.36822 0.67078 0.0
O361 O 0.82919 0.40644 0.71357 0.0
O362 O 0.86143 0.4196 0.68111 0.0
H363 H 0.8118 0.44419 0.80665 0.0
H364 H 0.803 0.40475 0.60983 0.0
O365 O 0.82322 0.45369 0.61284 0.0
H366 H 0.88734 0.34451 0.61939 0.0
H367 H 0.91535 0.44896 0.57053 0.0
H368 H 0.89352 0.46204 0.67241 0.0
H369 H 0.88517 0.39083 0.64321 0.0
H370 H 0.86911 0.43466 0.58984 0.0
O371 O 0.77354 0.39084 0.69868 0.0
H372 H 0.82445 0.44257 0.75569 0.0
H373 H 0.74184 0.41463 0.73479 0.0
H374 H 0.94007 0.47649 0.65405 0.0
H375 H 0.80443 0.35872 0.58538 0.0
H376 H 0.95123 0.47 0.60274 0.0
H377 H 0.84679 0.32821 0.59017 0.0
O378 O 0.8402 0.47321 0.66791 0.0
H379 H 0.70747 0.44521 0.64384 0.0
H380 H 0.76621 0.47987 0.72318 0.0
H381 H 0.72373 0.50652 0.70914 0.0
H382 H 0.69397 0.48915 0.66925 0.0
H383 H 0.75032 0.41937 0.65842 0.0
H384 H 0.72838 0.41568 0.78555 0.0
H385 H 0.76345 0.43066 0.82186 0.0
O386 O 0.81487 0.46417 0.70728 0.0
C387 C 0.85451 0.4075 0.70439 0.0
C388 C 0.7963 0.43771 0.79102 0.0
C389 C 0.74949 0.42168 0.77918 0.0
N390 N 0.78384 0.42874 0.74227 0.0
C391 C 0.80331 0.43684 0.76213 0.0
C392 C 0.75726 0.42106 0.75048 0.0
C393 C 0.76918 0.43009 0.79954 0.0
C394 C 0.82165 0.39175 0.61174 0.0
N395 N 0.84403 0.40055 0.6278 0.0
C396 C 0.82227 0.36564 0.59796 0.0
C397 C 0.84602 0.34851 0.60071 0.0
C398 C 0.86877 0.35763 0.61712 0.0
C399 C 0.86739 0.38385 0.63063 0.0
C400 C 0.91076 0.45185 0.59293 0.0
C401 C 0.89827 0.45902 0.65009 0.0
C402 C 0.88461 0.44381 0.60398 0.0
N403 N 0.87867 0.44739 0.63226 0.0
C404 C 0.92464 0.46729 0.6398 0.0
C405 C 0.93088 0.46366 0.61102 0.0
C406 C 0.83049 0.48026 0.69222 0.0
C407 C 0.72024 0.45296 0.66128 0.0
C408 C 0.75348 0.47227 0.70569 0.0
C409 C 0.72939 0.4874 0.6979 0.0
C410 C 0.71269 0.47763 0.67553 0.0
N411 N 0.7607 0.44805 0.69167 0.0
C412 C 0.74448 0.43838 0.66967 0.0
Co413 Co 0.44283 0.15877 0.35947 0.0
Co414 Co 0.43281 0.2093 0.30763 0.0
O415 O 0.4307 0.1964 0.34727 0.0
C416 C 0.46149 0.19891 0.40614 0.0
O417 O 0.45095 0.22079 0.39279 0.0
C418 C 0.3722 0.22166 0.3201 0.0
O419 O 0.36794 0.19463 0.3245 0.0
O420 O 0.41152 0.17549 0.29434 0.0
O421 O 0.42735 0.14169 0.32377 0.0
H422 H 0.44952 0.19844 0.20248 0.0
H423 H 0.40505 0.19394 0.39633 0.0
O424 O 0.45942 0.17409 0.39588 0.0
H425 H 0.35414 0.10458 0.38142 0.0
H426 H 0.45836 0.08004 0.42995 0.0
H427 H 0.47063 0.11074 0.3303 0.0
H428 H 0.40101 0.11197 0.36004 0.0
H429 H 0.44205 0.12706 0.41448 0.0
O430 O 0.39659 0.23074 0.31323 0.0
H431 H 0.44754 0.18254 0.25248 0.0
H432 H 0.42069 0.26402 0.27867 0.0
H433 H 0.48702 0.06348 0.34479 0.0
H434 H 0.35849 0.1873 0.41832 0.0
H435 H 0.48092 0.04785 0.39495 0.0
H436 H 0.3326 0.14235 0.41095 0.0
O437 O 0.48004 0.16418 0.34088 0.0
H438 H 0.45042 0.2946 0.36882 0.0
H439 H 0.48653 0.23682 0.28948 0.0
H440 H 0.51364 0.27826 0.30544 0.0
H441 H 0.49556 0.30756 0.34533 0.0
H442 H 0.42422 0.25269 0.3525 0.0
H443 H 0.42214 0.28073 0.2289 0.0
H444 H 0.43675 0.24786 0.19042 0.0
O445 O 0.46925 0.18852 0.30134 0.0
C446 C 0.41406 0.14965 0.30154 0.0
C447 C 0.4432 0.21298 0.21906 0.0
C448 C 0.4278 0.25916 0.2339 0.0
N449 N 0.43422 0.22239 0.2685 0.0
C450 C 0.44212 0.20413 0.24743 0.0
C451 C 0.42696 0.24956 0.26203 0.0
C452 C 0.43601 0.24071 0.21231 0.0
C453 C 0.39434 0.17414 0.39337 0.0
N454 N 0.40625 0.15316 0.37744 0.0
C455 C 0.36777 0.17057 0.40573 0.0
C456 C 0.35322 0.14538 0.40153 0.0
C457 C 0.3653 0.12419 0.38498 0.0
C458 C 0.3919 0.12851 0.37295 0.0
C459 C 0.46107 0.08658 0.40802 0.0
C460 C 0.46771 0.10402 0.35212 0.0
C461 C 0.45194 0.1132 0.39915 0.0
N462 N 0.45516 0.12154 0.37145 0.0
C463 C 0.47712 0.07726 0.36022 0.0
C464 C 0.47372 0.06852 0.38837 0.0
C465 C 0.4863 0.1738 0.31632 0.0
C466 C 0.45854 0.28199 0.35144 0.0
C467 C 0.4787 0.24919 0.30711 0.0
C468 C 0.49406 0.27277 0.31593 0.0
C469 C 0.48388 0.28923 0.33828 0.0
N470 N 0.45392 0.24213 0.32022 0.0
C471 C 0.44375 0.25826 0.34204 0.0
Co472 Co 0.65144 0.93322 0.85671 0.0
Co473 Co 0.70484 0.92795 0.80755 0.0
O474 O 0.68983 0.923 0.84594 0.0
C475 C 0.68573 0.96326 0.89997 0.0
O476 O 0.70099 0.9735 0.87902 0.0
C477 C 0.71796 0.8669 0.81671 0.0
O478 O 0.69083 0.86163 0.81865 0.0
O479 O 0.67214 0.90711 0.79064 0.0
O480 O 0.63647 0.92013 0.81924 0.0
H481 H 0.70006 0.95183 0.70333 0.0
H482 H 0.68544 0.89638 0.89449 0.0
O483 O 0.66538 0.94652 0.89467 0.0
H484 H 0.60147 0.84028 0.86916 0.0
H485 H 0.5696 0.94077 0.9247 0.0
H486 H 0.60372 0.96185 0.82774 0.0
H487 H 0.60717 0.8888 0.85105 0.0
H488 H 0.61771 0.92721 0.91003 0.0
O489 O 0.72675 0.89191 0.81216 0.0
H490 H 0.68121 0.94615 0.75198 0.0
H491 H 0.76142 0.91863 0.78136 0.0
H492 H 0.5554 0.97557 0.84142 0.0
H493 H 0.68049 0.84799 0.91326 0.0
H494 H 0.53804 0.96504 0.89022 0.0
H495 H 0.63828 0.81959 0.90056 0.0
O496 O 0.65627 0.97183 0.84075 0.0
H497 H 0.78301 0.94428 0.87806 0.0
H498 H 0.7335 0.98242 0.79402 0.0
H499 H 0.77262 0.00944 0.81533 0.0
H500 H 0.79771 0.99035 0.85764 0.0
H501 H 0.74356 0.91811 0.85626 0.0
H502 H 0.78107 0.92375 0.73296 0.0
H503 H 0.75033 0.94058 0.69357 0.0
O504 O 0.68384 0.96437 0.80256 0.0
C505 C 0.64586 0.9088 0.79649 0.0
C506 C 0.71368 0.94455 0.72033 0.0
C507 C 0.75914 0.92876 0.73695 0.0
N508 N 0.72024 0.93226 0.76951 0.0
C509 C 0.70315 0.94137 0.74794 0.0
C510 C 0.74788 0.92583 0.76429 0.0
C511 C 0.74189 0.93821 0.71486 0.0
C512 C 0.66691 0.88422 0.88906 0.0
N513 N 0.64655 0.89546 0.87186 0.0
C514 C 0.66427 0.85681 0.89967 0.0
C515 C 0.64059 0.84087 0.89251 0.0
C516 C 0.61994 0.85246 0.87489 0.0
C517 C 0.62331 0.87993 0.86465 0.0
C518 C 0.57689 0.94541 0.90335 0.0
C519 C 0.59625 0.957 0.84894 0.0
C520 C 0.60413 0.93783 0.89494 0.0
N521 N 0.61342 0.9435 0.86797 0.0
C522 C 0.5689 0.96491 0.8566 0.0
C523 C 0.55919 0.95902 0.88399 0.0
C524 C 0.66756 0.97999 0.81748 0.0
C525 C 0.77228 0.95279 0.85959 0.0
C526 C 0.74421 0.97403 0.81249 0.0
C527 C 0.76641 0.98939 0.82442 0.0
C528 C 0.7805 0.97865 0.84814 0.0
N529 N 0.73629 0.94866 0.82382 0.0
C530 C 0.75 0.93801 0.84708 0.0
Co531 Co 0.93617 0.34915 0.14416 0.0
Co532 Co 0.93015 0.29798 0.19593 0.0
O533 O 0.92594 0.31105 0.15652 0.0
C534 C 0.9672 0.31391 0.10187 0.0
O535 O 0.97822 0.29941 0.12298 0.0
C536 C 0.8709 0.28366 0.18099 0.0
O537 O 0.86891 0.30825 0.16828 0.0
O538 O 0.90902 0.33137 0.21066 0.0
O539 O 0.9225 0.36571 0.18073 0.0
H540 H 0.95294 0.30883 0.29991 0.0
H541 H 0.90047 0.31396 0.10637 0.0
O542 O 0.94997 0.3339 0.10693 0.0
H543 H 0.84311 0.39804 0.12823 0.0
H544 H 0.94429 0.42828 0.07294 0.0
H545 H 0.96418 0.39812 0.17151 0.0
H546 H 0.89119 0.39315 0.14771 0.0
H547 H 0.93073 0.38074 0.08938 0.0
O548 O 0.89384 0.27633 0.19305 0.0
H549 H 0.94785 0.32476 0.25013 0.0
H550 H 0.92049 0.24301 0.22541 0.0
H551 H 0.97789 0.44591 0.15603 0.0
H552 H 0.8526 0.31816 0.08616 0.0
H553 H 0.96796 0.46127 0.10641 0.0
H554 H 0.82353 0.36039 0.09716 0.0
O555 O 0.97459 0.34513 0.16088 0.0
H556 H 0.94652 0.21608 0.13005 0.0
H557 H 0.98425 0.26963 0.21165 0.0
H558 H 0.01116 0.22923 0.19278 0.0
H559 H 0.99227 0.2021 0.15171 0.0
H560 H 0.92044 0.25683 0.14946 0.0
H561 H 0.92501 0.22627 0.27499 0.0
H562 H 0.94146 0.25925 0.31261 0.0
O563 O 0.96665 0.31898 0.19999 0.0
C564 C 0.91076 0.35733 0.20365 0.0
C565 C 0.94583 0.29423 0.2837 0.0
C566 C 0.93012 0.2479 0.26971 0.0
N567 N 0.93409 0.28479 0.23486 0.0
C568 C 0.94299 0.30311 0.25546 0.0
C569 C 0.92754 0.25752 0.24169 0.0
C570 C 0.93936 0.26642 0.29081 0.0
C571 C 0.88807 0.33255 0.11099 0.0
N572 N 0.89865 0.35331 0.12813 0.0
C573 C 0.86093 0.33475 0.0996 0.0
C574 C 0.84461 0.35842 0.10582 0.0
C575 C 0.85557 0.37954 0.12328 0.0
C576 C 0.88278 0.3766 0.13433 0.0
C577 C 0.94868 0.42185 0.09463 0.0
C578 C 0.95962 0.4047 0.14993 0.0
C579 C 0.9411 0.39494 0.10405 0.0
N580 N 0.94646 0.38673 0.13145 0.0
C581 C 0.96751 0.43177 0.14127 0.0
C582 C 0.96195 0.44036 0.11342 0.0
C583 C 0.98245 0.3347 0.18468 0.0
C584 C 0.95495 0.2277 0.14799 0.0
C585 C 0.97596 0.25804 0.1937 0.0
C586 C 0.99125 0.23511 0.18316 0.0
C587 C 0.98063 0.21989 0.16013 0.0
N588 N 0.95077 0.26555 0.1817 0.0
C589 C 0.94023 0.25073 0.15912 0.0
Co590 Co 0.3449 0.06148 0.85936 0.0
Co591 Co 0.29515 0.07118 0.80619 0.0
O592 O 0.30706 0.07272 0.84637 0.0
C593 C 0.30449 0.03889 0.90408 0.0
O594 O 0.28235 0.04818 0.8902 0.0
C595 C 0.28084 0.12969 0.82415 0.0
O596 O 0.30472 0.13059 0.83828 0.0
O597 O 0.32905 0.09284 0.79398 0.0
O598 O 0.36238 0.07881 0.82481 0.0
H599 H 0.30939 0.05509 0.70135 0.0
H600 H 0.3077 0.09554 0.89772 0.0
O601 O 0.32938 0.04298 0.89467 0.0
H602 H 0.39435 0.1517 0.88592 0.0
H603 H 0.42225 0.04671 0.93155 0.0
H604 H 0.39473 0.03644 0.83074 0.0
H605 H 0.38952 0.10558 0.86224 0.0
H606 H 0.37508 0.06171 0.91528 0.0
O607 O 0.27385 0.10756 0.81049 0.0
H608 H 0.32366 0.05681 0.75187 0.0
H609 H 0.24126 0.08318 0.77553 0.0
H610 H 0.44219 0.02141 0.84605 0.0
H611 H 0.31183 0.14125 0.92206 0.0
H612 H 0.45622 0.02651 0.8968 0.0
H613 H 0.35538 0.1698 0.9162 0.0
O614 O 0.34158 0.02475 0.83934 0.0
H615 H 0.20855 0.05352 0.86534 0.0
H616 H 0.2678 0.0177 0.78697 0.0
H617 H 0.22592 0.99066 0.80187 0.0
H618 H 0.19589 0.00859 0.84128 0.0
H619 H 0.25092 0.07965 0.85004 0.0
H620 H 0.22617 0.08199 0.72524 0.0
H621 H 0.26033 0.06775 0.68776 0.0
O622 O 0.31597 0.03477 0.80041 0.0
C623 C 0.35466 0.09155 0.80218 0.0
C624 C 0.29429 0.06124 0.7175 0.0
C625 C 0.24759 0.07637 0.7309 0.0
N626 N 0.28326 0.06986 0.76665 0.0
C627 C 0.30222 0.06217 0.74615 0.0
C628 C 0.25627 0.07706 0.75934 0.0
C629 C 0.26677 0.06837 0.70988 0.0
C630 C 0.32694 0.1074 0.89545 0.0
N631 N 0.3485 0.09748 0.87893 0.0
C632 C 0.32906 0.13349 0.90912 0.0
C633 C 0.35346 0.14953 0.90576 0.0
C634 C 0.37532 0.1394 0.88877 0.0
C635 C 0.37243 0.11324 0.87538 0.0
C636 C 0.41641 0.04446 0.90937 0.0
C637 C 0.40075 0.03893 0.85282 0.0
C638 C 0.38971 0.05286 0.90004 0.0
N639 N 0.38224 0.0502 0.87202 0.0
C640 C 0.42762 0.03029 0.86138 0.0
C641 C 0.43547 0.03313 0.88986 0.0
C642 C 0.33157 0.01823 0.81502 0.0
C643 C 0.22147 0.04547 0.84815 0.0
C644 C 0.25508 0.02547 0.80437 0.0
C645 C 0.23127 0.01015 0.8126 0.0
C646 C 0.2144 0.02025 0.83467 0.0
N647 N 0.26195 0.05014 0.81777 0.0
C648 C 0.24544 0.06023 0.83933 0.0
Co649 Co 0.0706 0.65573 0.14394 0.0
Co650 Co 0.07605 0.70713 0.19562 0.0
O651 O 0.0808 0.69383 0.15635 0.0
C652 C 0.04034 0.69148 0.10155 0.0
O653 O 0.03006 0.70647 0.12267 0.0
C654 C 0.13566 0.7211 0.18152 0.0
O655 O 0.13762 0.6968 0.16828 0.0
O656 O 0.0966 0.6736 0.21092 0.0
O657 O 0.08405 0.63921 0.18064 0.0
H658 H 0.05121 0.69696 0.29918 0.0
H659 H 0.10648 0.69086 0.10626 0.0
O660 O 0.05696 0.67097 0.1066 0.0
H661 H 0.1638 0.6069 0.12876 0.0
H662 H 0.06308 0.57655 0.07278 0.0
H663 H 0.04247 0.60674 0.17114 0.0
H664 H 0.11562 0.6118 0.14795 0.0
H665 H 0.07644 0.62412 0.08925 0.0
O666 O 0.11263 0.72838 0.19343 0.0
H667 H 0.05709 0.68076 0.2496 0.0
H668 H 0.08571 0.76213 0.22501 0.0
H669 H 0.02895 0.55891 0.15564 0.0
H670 H 0.15445 0.68663 0.08633 0.0
H671 H 0.03925 0.54353 0.10612 0.0
H672 H 0.1835 0.64446 0.09766 0.0
O673 O 0.03204 0.65971 0.16033 0.0
H674 H 0.06182 0.78886 0.12895 0.0
H675 H 0.022 0.73617 0.21013 0.0
H676 H 0.99587 0.77674 0.19046 0.0
H677 H 0.01581 0.80343 0.14958 0.0
H678 H 0.0871 0.74796 0.14914 0.0
H679 H 0.08042 0.77914 0.2744 0.0
H680 H 0.06293 0.74648 0.31185 0.0
O681 O 0.03928 0.68654 0.19908 0.0
C682 C 0.09521 0.64765 0.20385 0.0
C683 C 0.05877 0.71142 0.28304 0.0
C684 C 0.07519 0.75753 0.26913 0.0
N685 N 0.07153 0.72053 0.2344 0.0
C686 C 0.06206 0.70238 0.25491 0.0
C687 C 0.07822 0.74776 0.24122 0.0
C688 C 0.06537 0.73919 0.29013 0.0
C689 C 0.11887 0.6723 0.11101 0.0
N690 N 0.10822 0.65158 0.12818 0.0
C691 C 0.14607 0.67008 0.09978 0.0
C692 C 0.16238 0.64644 0.10619 0.0
C693 C 0.15135 0.62537 0.12367 0.0
C694 C 0.12408 0.62832 0.13456 0.0
C695 C 0.05853 0.58298 0.09442 0.0
C696 C 0.04718 0.60015 0.14961 0.0
C697 C 0.06599 0.60991 0.10385 0.0
N698 N 0.06043 0.61813 0.1312 0.0
C699 C 0.0394 0.57306 0.14093 0.0
C700 C 0.04516 0.56446 0.11314 0.0
C701 C 0.02377 0.67055 0.18378 0.0
C702 C 0.05293 0.77743 0.14679 0.0
C703 C 0.03073 0.74757 0.19226 0.0
C704 C 0.01589 0.77059 0.18127 0.0
C705 C 0.0271 0.78557 0.15835 0.0
N706 N 0.05606 0.73972 0.18082 0.0
C707 C 0.0672 0.75432 0.15837 0.0
Co708 Co 0.65233 0.0675 0.14395 0.0
Co709 Co 0.70626 0.07357 0.19247 0.0
O710 O 0.69087 0.07783 0.15414 0.0
C711 C 0.68616 0.03664 0.10088 0.0
O712 O 0.70163 0.02668 0.12182 0.0
C713 C 0.71909 0.13443 0.18216 0.0
O714 O 0.69193 0.13941 0.17988 0.0
O715 O 0.67377 0.0948 0.20924 0.0
O716 O 0.63773 0.08139 0.18127 0.0
H717 H 0.70241 0.05155 0.29714 0.0
H718 H 0.68604 0.10353 0.10515 0.0
O719 O 0.66586 0.05346 0.10613 0.0
H720 H 0.60244 0.16034 0.13017 0.0
H721 H 0.56979 0.05888 0.07691 0.0
H722 H 0.60485 0.03955 0.17392 0.0
H723 H 0.6082 0.11214 0.14914 0.0
H724 H 0.61808 0.07259 0.09085 0.0
O725 O 0.72808 0.10956 0.18712 0.0
H726 H 0.68312 0.05641 0.24857 0.0
H727 H 0.76308 0.08328 0.218 0.0
H728 H 0.55637 0.0257 0.16098 0.0
H729 H 0.68102 0.15157 0.08551 0.0
H730 H 0.53854 0.03536 0.11215 0.0
H731 H 0.639 0.18033 0.09806 0.0
O732 O 0.65724 0.02918 0.16061 0.0
H733 H 0.78385 0.05602 0.12168 0.0
H734 H 0.73497 0.01928 0.20668 0.0
H735 H 0.7739 0.99187 0.18552 0.0
H736 H 0.79867 0.01025 0.14272 0.0
H737 H 0.7446 0.0826 0.14336 0.0
H738 H 0.78318 0.07897 0.26631 0.0
H739 H 0.75279 0.06288 0.30626 0.0
O740 O 0.68529 0.03725 0.19832 0.0
C741 C 0.64745 0.09324 0.20361 0.0
C742 C 0.71589 0.0585 0.2799 0.0
C743 C 0.76121 0.07393 0.2626 0.0
N744 N 0.722 0.06992 0.23045 0.0
C745 C 0.7051 0.06123 0.25233 0.0
C746 C 0.74969 0.0764 0.23531 0.0
C747 C 0.74415 0.06489 0.285 0.0
C748 C 0.66759 0.11584 0.11051 0.0
N749 N 0.64736 0.10498 0.12811 0.0
C750 C 0.66491 0.14306 0.09941 0.0
C751 C 0.64134 0.1592 0.10649 0.0
C752 C 0.62083 0.148 0.12451 0.0
C753 C 0.62423 0.12071 0.13522 0.0
C754 C 0.57729 0.05462 0.09827 0.0
C755 C 0.59718 0.04402 0.1527 0.0
C756 C 0.60463 0.06229 0.10627 0.0
N757 N 0.61418 0.05711 0.13326 0.0
C758 C 0.56973 0.03604 0.14547 0.0
C759 C 0.55976 0.04143 0.11806 0.0
C760 C 0.6688 0.0214 0.18389 0.0
C761 C 0.77326 0.04781 0.14036 0.0
C762 C 0.74554 0.02736 0.18799 0.0
C763 C 0.76764 0.01178 0.17615 0.0
C764 C 0.78154 0.02212 0.15215 0.0
N765 N 0.73755 0.05255 0.17632 0.0
C766 C 0.75109 0.06282 0.15279 0.0
Co767 Co 0.06687 0.35097 0.85618 0.0
Co768 Co 0.07367 0.29713 0.80774 0.0
O769 O 0.07745 0.31247 0.84613 0.0
C770 C 0.03652 0.31677 0.89951 0.0
O771 O 0.02685 0.30095 0.87872 0.0
C772 C 0.13428 0.284 0.81929 0.0
O773 O 0.13937 0.31112 0.82173 0.0
O774 O 0.09512 0.32962 0.79122 0.0
O775 O 0.08084 0.36552 0.81888 0.0
H776 H 0.0531 0.30107 0.70277 0.0
H777 H 0.10294 0.31748 0.8952 0.0
O778 O 0.05278 0.33746 0.89403 0.0
H779 H 0.15932 0.4014 0.87033 0.0
H780 H 0.05742 0.43359 0.92295 0.0
H781 H 0.03905 0.39835 0.82585 0.0
H782 H 0.11126 0.39534 0.85112 0.0
H783 H 0.07142 0.38533 0.90923 0.0
O784 O 0.10949 0.2752 0.81363 0.0
H785 H 0.0573 0.32033 0.7514 0.0
H786 H 0.08363 0.2403 0.78236 0.0
H787 H 0.0249 0.4468 0.83857 0.0
H788 H 0.15085 0.32281 0.91507 0.0
H789 H 0.03407 0.46472 0.88745 0.0
H790 H 0.17939 0.365 0.9026 0.0
O791 O 0.02866 0.34583 0.83925 0.0
H792 H 0.05504 0.21958 0.87836 0.0
H793 H 0.01959 0.26845 0.79276 0.0
H794 H 0.99184 0.22957 0.81357 0.0
H795 H 0.00958 0.2048 0.85666 0.0
H796 H 0.08195 0.25879 0.85704 0.0
H797 H 0.07997 0.22024 0.734 0.0
H798 H 0.06449 0.25068 0.69382 0.0
O799 O 0.0375 0.31821 0.80139 0.0
C800 C 0.09303 0.35596 0.79666 0.0
C801 C 0.05979 0.28757 0.72011 0.0
C802 C 0.07491 0.24222 0.73764 0.0
N803 N 0.0705 0.28141 0.76973 0.0
C804 C 0.06214 0.29834 0.74771 0.0
C805 C 0.07701 0.25371 0.76496 0.0
C806 C 0.06621 0.25931 0.71511 0.0
C807 C 0.11515 0.33601 0.88987 0.0
N808 N 0.10425 0.35615 0.87218 0.0
C809 C 0.1423 0.33886 0.9011 0.0
C810 C 0.15832 0.36252 0.89407 0.0
C811 C 0.14707 0.38295 0.87596 0.0
C812 C 0.11986 0.37937 0.86511 0.0
C813 C 0.05335 0.42604 0.90157 0.0
C814 C 0.04327 0.40604 0.8471 0.0
C815 C 0.06118 0.39872 0.8937 0.0
N816 N 0.05623 0.3891 0.8667 0.0
C817 C 0.03514 0.43347 0.85421 0.0
C818 C 0.04027 0.4435 0.88164 0.0
C819 C 0.02138 0.33458 0.81564 0.0
C820 C 0.04711 0.23017 0.85955 0.0
C821 C 0.02737 0.25789 0.81159 0.0
C822 C 0.01161 0.23582 0.82323 0.0
C823 C 0.02159 0.22191 0.84739 0.0
N824 N 0.05239 0.26587 0.82363 0.0
C825 C 0.06231 0.25232 0.84731 0.0
Co826 Co 0.34981 0.94081 0.14924 0.0
Co827 Co 0.29917 0.93126 0.20118 0.0
O828 O 0.31206 0.92918 0.16155 0.0
C829 C 0.30962 0.96161 0.10354 0.0
O830 O 0.28767 0.95296 0.11806 0.0
C831 C 0.28675 0.87074 0.18841 0.0
O832 O 0.31377 0.86641 0.18405 0.0
O833 O 0.33297 0.90997 0.21462 0.0
O834 O 0.36681 0.92475 0.18473 0.0
H835 H 0.30996 0.94806 0.30634 0.0
H836 H 0.3138 0.90473 0.11184 0.0
O837 O 0.3346 0.95797 0.11298 0.0
H838 H 0.40165 0.85098 0.12621 0.0
H839 H 0.42843 0.95543 0.07851 0.0
H840 H 0.3985 0.96747 0.1784 0.0
H841 H 0.39558 0.8978 0.14819 0.0
H842 H 0.38121 0.93987 0.09407 0.0
O843 O 0.27773 0.89508 0.19552 0.0
H844 H 0.32588 0.94607 0.25635 0.0
H845 H 0.24444 0.91912 0.23009 0.0
H846 H 0.44597 0.98309 0.16381 0.0
H847 H 0.31909 0.8582 0.08928 0.0
H848 H 0.46121 0.97711 0.11353 0.0
H849 H 0.36328 0.83091 0.0964 0.0
O850 O 0.34518 0.97793 0.16826 0.0
H851 H 0.21358 0.94867 0.14021 0.0
H852 H 0.27169 0.98504 0.21921 0.0
H853 H 0.23014 0.01206 0.20336 0.0
H854 H 0.20066 0.99385 0.16364 0.0
H855 H 0.25566 0.92261 0.15636 0.0
H856 H 0.22771 0.92059 0.27983 0.0
H857 H 0.26054 0.93526 0.31834 0.0
O858 O 0.31997 0.96766 0.20742 0.0
C859 C 0.3588 0.91197 0.20725 0.0
C860 C 0.29543 0.94172 0.28973 0.0
C861 C 0.24928 0.92627 0.27486 0.0
N862 N 0.28606 0.9327 0.2403 0.0
C863 C 0.3043 0.94062 0.26138 0.0
C864 C 0.25889 0.92541 0.24674 0.0
C865 C 0.26771 0.93451 0.29646 0.0
C866 C 0.33325 0.89333 0.11472 0.0
N867 N 0.35455 0.90437 0.13087 0.0
C868 C 0.33606 0.86682 0.10203 0.0
C869 C 0.36083 0.85149 0.10608 0.0
C870 C 0.38237 0.86274 0.1228 0.0
C871 C 0.37879 0.88929 0.13518 0.0
C872 C 0.42205 0.95809 0.10049 0.0
C873 C 0.40504 0.96461 0.15652 0.0
C874 C 0.39532 0.94938 0.10941 0.0
N875 N 0.38719 0.95255 0.13718 0.0
C876 C 0.43192 0.97358 0.14837 0.0
C877 C 0.44044 0.97024 0.12015 0.0
C878 C 0.33524 0.98439 0.19265 0.0
C879 C 0.22626 0.95685 0.15752 0.0
C880 C 0.25927 0.97716 0.20163 0.0
C881 C 0.23561 0.99247 0.19289 0.0
C882 C 0.21905 0.98221 0.17065 0.0
N883 N 0.26631 0.95236 0.18856 0.0
C884 C 0.25007 0.94211 0.16685 0.0
Co885 Co 0.93712 0.65418 0.85891 0.0
Co886 Co 0.93065 0.70458 0.80647 0.0
O887 O 0.92689 0.69216 0.84613 0.0
C888 C 0.9683 0.69028 0.90032 0.0
O889 O 0.97857 0.70481 0.87887 0.0
C890 C 0.87159 0.71943 0.82163 0.0
O891 O 0.86957 0.69496 0.83458 0.0
O892 O 0.90896 0.6712 0.79267 0.0
O893 O 0.92292 0.63714 0.82273 0.0
H894 H 0.95178 0.6919 0.70236 0.0
H895 H 0.90195 0.69009 0.8965 0.0
O896 O 0.95142 0.66988 0.89577 0.0
H897 H 0.84402 0.60597 0.87648 0.0
H898 H 0.94564 0.57594 0.93108 0.0
H899 H 0.96473 0.60477 0.83197 0.0
H900 H 0.89195 0.61031 0.85652 0.0
H901 H 0.93209 0.62332 0.91415 0.0
O902 O 0.89454 0.72658 0.8095 0.0
H903 H 0.94726 0.67678 0.75245 0.0
H904 H 0.92107 0.75918 0.77626 0.0
H905 H 0.97842 0.55712 0.84794 0.0
H906 H 0.85424 0.68644 0.91718 0.0
H907 H 0.96888 0.54243 0.89784 0.0
H908 H 0.82489 0.64419 0.9071 0.0
O909 O 0.97538 0.65783 0.84174 0.0
H910 H 0.94861 0.78746 0.87063 0.0
H911 H 0.98485 0.73204 0.78963 0.0
H912 H 0.01238 0.7725 0.80745 0.0
H913 H 0.99425 0.80056 0.84823 0.0
H914 H 0.92189 0.74666 0.85227 0.0
H915 H 0.92502 0.77512 0.72637 0.0
H916 H 0.9406 0.74139 0.68905 0.0
O917 O 0.96692 0.68316 0.8022 0.0
C918 C 0.91065 0.64533 0.8 0.0
C919 C 0.94505 0.70681 0.71844 0.0
C920 C 0.93 0.75351 0.73192 0.0
N921 N 0.93412 0.71712 0.76728 0.0
C922 C 0.94253 0.69839 0.74685 0.0
C923 C 0.92773 0.74435 0.76012 0.0
C924 C 0.93875 0.73458 0.71099 0.0
C925 C 0.88943 0.67149 0.89229 0.0
N926 N 0.89976 0.65041 0.87539 0.0
C927 C 0.86238 0.6696 0.90394 0.0
C928 C 0.8459 0.64592 0.89824 0.0
C929 C 0.85661 0.62448 0.88103 0.0
C930 C 0.88373 0.6271 0.86971 0.0
C931 C 0.94985 0.58207 0.90927 0.0
C932 C 0.96034 0.59847 0.85366 0.0
C933 C 0.94228 0.60889 0.89958 0.0
N934 N 0.94741 0.61673 0.87202 0.0
C935 C 0.96821 0.57149 0.86261 0.0
C936 C 0.96288 0.56327 0.89061 0.0
C937 C 0.98291 0.6677 0.8176 0.0
C938 C 0.95671 0.77544 0.85282 0.0
C939 C 0.97689 0.74406 0.80745 0.0
C940 C 0.99253 0.767 0.8174 0.0
C941 C 0.98233 0.78275 0.84026 0.0
N942 N 0.95176 0.73704 0.81986 0.0
C943 C 0.94163 0.75238 0.84227 0.0
C944 C 0.25866 0.34281 0.2978 0.0
C945 C 0.2406 0.34713 0.32103 0.0
C946 C 0.27871 0.32098 0.298 0.0
C947 C 0.28148 0.30367 0.32247 0.0
C948 C 0.26322 0.30795 0.34602 0.0
C949 C 0.24265 0.32935 0.34481 0.0
C950 C 0.29713 0.31666 0.27212 0.0
C951 C 0.26607 0.29059 0.37284 0.0
C952 C 0.32103 0.23397 0.3151 0.0
C953 C 0.34857 0.24195 0.32241 0.0
C954 C 0.29888 0.25376 0.31519 0.0
C955 C 0.30427 0.28194 0.32372 0.0
C956 C 0.33188 0.28976 0.33219 0.0
C957 C 0.35376 0.26981 0.33097 0.0
C958 C 0.26997 0.24478 0.30518 0.0
C959 C 0.33842 0.31932 0.34222 0.0
H960 H 0.25697 0.35644 0.2793 0.0
H961 H 0.22886 0.33286 0.36291 0.0
H962 H 0.31943 0.32129 0.27754 0.0
H963 H 0.29613 0.29433 0.26509 0.0
H964 H 0.2908 0.33041 0.25403 0.0
H965 H 0.24995 0.2962 0.38906 0.0
H966 H 0.2641 0.26781 0.36783 0.0
H967 H 0.28733 0.29384 0.3822 0.0
H968 H 0.317 0.21249 0.30826 0.0
H969 H 0.375 0.276 0.33685 0.0
H970 H 0.26401 0.2571 0.28598 0.0
H971 H 0.25399 0.24929 0.32181 0.0
H972 H 0.26908 0.22196 0.29986 0.0
H973 H 0.33563 0.33442 0.32437 0.0
H974 H 0.36033 0.32132 0.3504 0.0
H975 H 0.32354 0.32561 0.35934 0.0
C976 C 0.32716 0.76066 0.6585 0.0
C977 C 0.34673 0.76107 0.68091 0.0
C978 C 0.30517 0.7407 0.65794 0.0
C979 C 0.3022 0.72131 0.68076 0.0
C980 C 0.32143 0.72231 0.70386 0.0
C981 C 0.3437 0.74186 0.70342 0.0
C982 C 0.28565 0.7398 0.63253 0.0
C983 C 0.31864 0.70257 0.72898 0.0
C984 C 0.23208 0.68334 0.6918 0.0
C985 C 0.23854 0.65607 0.68226 0.0
C986 C 0.25251 0.70489 0.69128 0.0
C987 C 0.27973 0.69923 0.68012 0.0
C988 C 0.28594 0.67196 0.66947 0.0
C989 C 0.26544 0.65062 0.6711 0.0
C990 C 0.24529 0.73341 0.70359 0.0
C991 C 0.31438 0.66518 0.65668 0.0
H992 H 0.32959 0.77534 0.64095 0.0
H993 H 0.35867 0.74227 0.72091 0.0
H994 H 0.28736 0.71896 0.62189 0.0
H995 H 0.26343 0.74226 0.63951 0.0
H996 H 0.29053 0.75655 0.61671 0.0
H997 H 0.33408 0.7074 0.74612 0.0
H998 H 0.29703 0.70389 0.73798 0.0
H999 H 0.32198 0.68048 0.72194 0.0
H1000 H 0.21138 0.68755 0.70064 0.0
H1001 H 0.27044 0.62961 0.66348 0.0
H1002 H 0.24894 0.75018 0.68752 0.0
H1003 H 0.25932 0.73795 0.72196 0.0
H1004 H 0.22303 0.73463 0.71087 0.0
H1005 H 0.3197 0.68077 0.63987 0.0
H1006 H 0.31505 0.64369 0.64725 0.0
H1007 H 0.33095 0.66662 0.67331 0.0
C1008 C 0.68842 0.7727 0.31276 0.0
C1009 C 0.661 0.76549 0.32127 0.0
C1010 C 0.7103 0.75261 0.31324 0.0
C1011 C 0.70481 0.72495 0.32332 0.0
C1012 C 0.67735 0.71796 0.33296 0.0
C1013 C 0.65571 0.73815 0.33138 0.0
C1014 C 0.73903 0.76069 0.302 0.0
C1015 C 0.67071 0.689 0.3446 0.0
C1016 C 0.74887 0.66237 0.29896 0.0
C1017 C 0.76751 0.65873 0.32188 0.0
C1018 C 0.72911 0.68444 0.29875 0.0
C1019 C 0.72726 0.70283 0.32247 0.0
C1020 C 0.74611 0.6993 0.34567 0.0
C1021 C 0.76634 0.67754 0.34489 0.0
C1022 C 0.70999 0.68788 0.27322 0.0
C1023 C 0.7443 0.71789 0.37171 0.0
H1024 H 0.69253 0.79376 0.30474 0.0
H1025 H 0.63457 0.73257 0.33821 0.0
H1026 H 0.75543 0.75668 0.31837 0.0
H1027 H 0.74426 0.74744 0.28324 0.0
H1028 H 0.74009 0.78323 0.29558 0.0
H1029 H 0.64901 0.6877 0.35345 0.0
H1030 H 0.67281 0.67304 0.32745 0.0
H1031 H 0.68598 0.68332 0.3616 0.0
H1032 H 0.74987 0.64798 0.28102 0.0
H1033 H 0.78057 0.67462 0.36275 0.0
H1034 H 0.71115 0.70984 0.26509 0.0
H1035 H 0.68778 0.68391 0.27952 0.0
H1036 H 0.71554 0.67319 0.25565 0.0
H1037 H 0.74645 0.74039 0.36557 0.0
H1038 H 0.76081 0.71277 0.38771 0.0
H1039 H 0.72328 0.71541 0.38182 0.0
C1040 C 0.65111 0.26359 0.67329 0.0
C1041 C 0.65668 0.23608 0.68276 0.0
C1042 C 0.67257 0.28396 0.67202 0.0
C1043 C 0.70015 0.27693 0.68126 0.0
C1044 C 0.70599 0.24904 0.69049 0.0
C1045 C 0.68424 0.22881 0.69073 0.0
C1046 C 0.66556 0.3132 0.66133 0.0
C1047 C 0.7349 0.24089 0.7012 0.0
C1048 C 0.7605 0.32617 0.66087 0.0
C1049 C 0.7615 0.34422 0.68451 0.0
C1050 C 0.74082 0.30398 0.65955 0.0
C1051 C 0.72229 0.29927 0.68279 0.0
C1052 C 0.72398 0.31687 0.70712 0.0
C1053 C 0.74325 0.33936 0.7075 0.0
C1054 C 0.73917 0.28621 0.63292 0.0
C1055 C 0.70514 0.31221 0.73265 0.0
H1056 H 0.62986 0.26924 0.66688 0.0
H1057 H 0.68856 0.20762 0.69826 0.0
H1058 H 0.6675 0.32862 0.679 0.0
H1059 H 0.6807 0.31961 0.6445 0.0
H1060 H 0.64382 0.31453 0.65256 0.0
H1061 H 0.73633 0.21809 0.70655 0.0
H1062 H 0.75115 0.2459 0.68497 0.0
H1063 H 0.74002 0.25334 0.72055 0.0
H1064 H 0.77444 0.33002 0.64296 0.0
H1065 H 0.74412 0.35315 0.72592 0.0
H1066 H 0.71812 0.28883 0.62288 0.0
H1067 H 0.74154 0.26355 0.63831 0.0
H1068 H 0.75562 0.29201 0.6171 0.0
H1069 H 0.68283 0.31607 0.72666 0.0
H1070 H 0.71061 0.32633 0.75071 0.0
H1071 H 0.7067 0.28999 0.73996 0.0
C1072 C 0.73232 0.81638 0.81032 0.0
C1073 C 0.73883 0.84379 0.8194 0.0
C1074 C 0.7528 0.79487 0.81095 0.0
C1075 C 0.78012 0.80073 0.82176 0.0
C1076 C 0.78638 0.82816 0.83196 0.0
C1077 C 0.76582 0.84943 0.83022 0.0
C1078 C 0.74553 0.76616 0.79912 0.0
C1079 C 0.81494 0.83516 0.84437 0.0
C1080 C 0.82801 0.73979 0.84381 0.0
C1081 C 0.84737 0.73915 0.82124 0.0
C1082 C 0.80592 0.75965 0.84428 0.0
C1083 C 0.80264 0.77869 0.8212 0.0
C1084 C 0.82165 0.77744 0.79794 0.0
C1085 C 0.84402 0.75801 0.79846 0.0
C1086 C 0.78665 0.76084 0.86985 0.0
C1087 C 0.81852 0.79681 0.77256 0.0
H1088 H 0.71153 0.81201 0.80175 0.0
H1089 H 0.77086 0.87056 0.83749 0.0
H1090 H 0.75936 0.7614 0.78066 0.0
H1091 H 0.7494 0.74962 0.81538 0.0
H1092 H 0.72318 0.7648 0.7921 0.0
H1093 H 0.81565 0.85677 0.8535 0.0
H1094 H 0.82047 0.8198 0.86134 0.0
H1095 H 0.83134 0.83352 0.8276 0.0
H1096 H 0.83069 0.72538 0.86155 0.0
H1097 H 0.85883 0.75741 0.78085 0.0
H1098 H 0.76437 0.75827 0.86311 0.0
H1099 H 0.78842 0.78182 0.88021 0.0
H1100 H 0.79172 0.7443 0.88583 0.0
H1101 H 0.79681 0.79532 0.76382 0.0
H1102 H 0.83378 0.79175 0.75532 0.0
H1103 H 0.82188 0.819 0.77923 0.0
C1104 C 0.767 0.1525 0.16965 0.0
C1105 C 0.73969 0.1578 0.17982 0.0
C1106 C 0.7873 0.17405 0.16843 0.0
C1107 C 0.78044 0.20138 0.1785 0.0
C1108 C 0.75281 0.20689 0.18863 0.0
C1109 C 0.73261 0.18512 0.18874 0.0
C1110 C 0.81624 0.16742 0.15673 0.0
C1111 C 0.74487 0.23548 0.2003 0.0
C1112 C 0.84318 0.24486 0.2035 0.0
C1113 C 0.8468 0.26382 0.18087 0.0
C1114 C 0.82106 0.22514 0.20342 0.0
C1115 C 0.80265 0.2237 0.17968 0.0
C1116 C 0.8062 0.24286 0.15674 0.0
C1117 C 0.82799 0.26301 0.15783 0.0
C1118 C 0.81759 0.20567 0.22867 0.0
C1119 C 0.78759 0.24147 0.13068 0.0
H1120 H 0.77248 0.13144 0.16252 0.0
H1121 H 0.71158 0.18922 0.19683 0.0
H1122 H 0.822 0.1829 0.13996 0.0
H1123 H 0.8322 0.16919 0.17393 0.0
H1124 H 0.81744 0.14585 0.14756 0.0
H1125 H 0.72234 0.23657 0.20674 0.0
H1126 H 0.75817 0.24037 0.21914 0.0
H1127 H 0.74895 0.2521 0.18418 0.0
H1128 H 0.85758 0.24557 0.22145 0.0
H1129 H 0.83092 0.27749 0.14018 0.0
H1130 H 0.82145 0.18355 0.22204 0.0
H1131 H 0.79564 0.20682 0.23684 0.0
H1132 H 0.83232 0.21091 0.24631 0.0
H1133 H 0.78995 0.22056 0.1203 0.0
H1134 H 0.7928 0.25814 0.11488 0.0
H1135 H 0.76511 0.24368 0.13684 0.0
C1136 C 0.18514 0.27004 0.81503 0.0
C1137 C 0.15735 0.26316 0.82251 0.0
C1138 C 0.20667 0.24958 0.81593 0.0
C1139 C 0.20037 0.22185 0.82534 0.0
C1140 C 0.17253 0.2152 0.83403 0.0
C1141 C 0.1513 0.23579 0.8321 0.0
C1142 C 0.23587 0.25732 0.80576 0.0
C1143 C 0.16501 0.18616 0.8449 0.0
C1144 C 0.24366 0.15888 0.80073 0.0
C1145 C 0.2615 0.15423 0.8241 0.0
C1146 C 0.22444 0.18142 0.80049 0.0
C1147 C 0.22235 0.19929 0.82459 0.0
C1148 C 0.24041 0.19475 0.84825 0.0
C1149 C 0.2601 0.1725 0.84754 0.0
C1150 C 0.20612 0.18589 0.77453 0.0
C1151 C 0.23831 0.2128 0.87465 0.0
H1152 H 0.18985 0.29112 0.80744 0.0
H1153 H 0.12988 0.23045 0.83815 0.0
H1154 H 0.25171 0.25246 0.82246 0.0
H1155 H 0.24134 0.2445 0.78676 0.0
H1156 H 0.2376 0.28001 0.80006 0.0
H1157 H 0.14307 0.18514 0.85317 0.0
H1158 H 0.16722 0.17051 0.82748 0.0
H1159 H 0.17972 0.17982 0.86217 0.0
H1160 H 0.24486 0.14493 0.78245 0.0
H1161 H 0.27372 0.16882 0.86573 0.0
H1162 H 0.20803 0.20799 0.76694 0.0
H1163 H 0.18367 0.18232 0.78011 0.0
H1164 H 0.21182 0.17148 0.75677 0.0
H1165 H 0.24107 0.23538 0.86908 0.0
H1166 H 0.2543 0.20698 0.89094 0.0
H1167 H 0.21699 0.21053 0.88416 0.0
C1168 C 0.23868 0.85291 0.17631 0.0
C1169 C 0.26631 0.84732 0.18536 0.0
C1170 C 0.21859 0.83124 0.17423 0.0
C1171 C 0.22601 0.80342 0.18237 0.0
C1172 C 0.25396 0.79762 0.19142 0.0
C1173 C 0.27393 0.81959 0.19235 0.0
C1174 C 0.1893 0.83822 0.16367 0.0
C1175 C 0.26249 0.76847 0.2011 0.0
C1176 C 0.164 0.75821 0.20596 0.0
C1177 C 0.15991 0.74071 0.18225 0.0
C1178 C 0.18615 0.77787 0.20669 0.0
C1179 C 0.20405 0.78083 0.18271 0.0
C1180 C 0.20005 0.7631 0.15871 0.0
C1181 C 0.17829 0.74289 0.15897 0.0
C1182 C 0.19014 0.79572 0.23304 0.0
C1183 C 0.21806 0.76619 0.13237 0.0
H1184 H 0.23278 0.8743 0.17067 0.0
H1185 H 0.29523 0.81526 0.19956 0.0
H1186 H 0.18326 0.82372 0.14614 0.0
H1187 H 0.1738 0.83526 0.18111 0.0
H1188 H 0.18765 0.8603 0.15585 0.0
H1189 H 0.28519 0.76727 0.20689 0.0
H1190 H 0.24973 0.76228 0.21992 0.0
H1191 H 0.25817 0.75282 0.18409 0.0
H1192 H 0.1499 0.75641 0.22407 0.0
H1193 H 0.17498 0.72953 0.14052 0.0
H1194 H 0.1858 0.81817 0.22798 0.0
H1195 H 0.21232 0.79437 0.24049 0.0
H1196 H 0.17599 0.78916 0.25071 0.0
H1197 H 0.21518 0.78761 0.12324 0.0
H1198 H 0.21271 0.75035 0.11578 0.0
H1199 H 0.24071 0.76397 0.1379 0.0
C1200 C 0.13749 0.5252 0.31461 0.0
C1201 C 0.16074 0.51027 0.3038 0.0
C1202 C 0.12762 0.54979 0.3011 0.0
C1203 C 0.14157 0.55993 0.27644 0.0
C1204 C 0.16604 0.54593 0.26648 0.0
C1205 C 0.17518 0.52121 0.28011 0.0
C1206 C 0.10129 0.56393 0.31223 0.0
C1207 C 0.18173 0.55617 0.24045 0.0
C1208 C 0.09936 0.59731 0.21911 0.0
C1209 C 0.1066 0.62573 0.22337 0.0
C1210 C 0.11004 0.57595 0.23669 0.0
C1211 C 0.12882 0.58297 0.25904 0.0
C1212 C 0.13605 0.61161 0.26377 0.0
C1213 C 0.12471 0.63271 0.24598 0.0
C1214 C 0.10148 0.54574 0.23104 0.0
C1215 C 0.15624 0.61985 0.28721 0.0
H1216 H 0.12616 0.51701 0.33288 0.0
H1217 H 0.19324 0.51002 0.27161 0.0
H1218 H 0.10459 0.58701 0.31424 0.0
H1219 H 0.08377 0.56068 0.29688 0.0
H1220 H 0.09474 0.55539 0.33326 0.0
H1221 H 0.20215 0.54502 0.23749 0.0
H1222 H 0.1686 0.55269 0.22119 0.0
H1223 H 0.18588 0.57916 0.24201 0.0
H1224 H 0.0852 0.59161 0.20192 0.0
H1225 H 0.13044 0.65458 0.24946 0.0
H1226 H 0.09254 0.53618 0.25064 0.0
H1227 H 0.12029 0.53314 0.22502 0.0
H1228 H 0.08562 0.54399 0.21369 0.0
H1229 H 0.14872 0.61157 0.30797 0.0
H1230 H 0.15879 0.64309 0.28892 0.0
H1231 H 0.17722 0.61028 0.28312 0.0
C1232 C 0.5255 0.86344 0.68438 0.0
C1233 C 0.51009 0.84102 0.69626 0.0
C1234 C 0.55017 0.87354 0.69756 0.0
C1235 C 0.55984 0.86076 0.72306 0.0
C1236 C 0.54535 0.83706 0.73415 0.0
C1237 C 0.52063 0.82761 0.72074 0.0
C1238 C 0.56488 0.89898 0.68514 0.0
C1239 C 0.555 0.82266 0.76116 0.0
C1240 C 0.63203 0.87815 0.75476 0.0
C1241 C 0.62462 0.89736 0.77625 0.0
C1242 C 0.61131 0.86638 0.73678 0.0
C1243 C 0.58264 0.87425 0.74022 0.0
C1244 C 0.57526 0.89427 0.76129 0.0
C1245 C 0.59623 0.90541 0.77904 0.0
C1246 C 0.61994 0.84496 0.71465 0.0
C1247 C 0.54503 0.90354 0.76558 0.0
H1248 H 0.51765 0.87396 0.66546 0.0
H1249 H 0.50909 0.81017 0.73008 0.0
H1250 H 0.56139 0.91747 0.69922 0.0
H1251 H 0.58797 0.89536 0.68398 0.0
H1252 H 0.55695 0.90426 0.6635 0.0
H1253 H 0.54354 0.80258 0.76507 0.0
H1254 H 0.57795 0.81815 0.76021 0.0
H1255 H 0.55139 0.83686 0.7796 0.0
H1256 H 0.65389 0.8718 0.75243 0.0
H1257 H 0.5902 0.92046 0.7953 0.0
H1258 H 0.61189 0.85124 0.69338 0.0
H1259 H 0.61043 0.8242 0.71986 0.0
H1260 H 0.64321 0.84243 0.7134 0.0
H1261 H 0.53611 0.91148 0.74524 0.0
H1262 H 0.54304 0.92037 0.78193 0.0
H1263 H 0.53202 0.88527 0.77235 0.0
C1264 C 0.88147 0.37237 0.24589 0.0
C1265 C 0.89918 0.37932 0.22296 0.0
C1266 C 0.87019 0.39352 0.26364 0.0
C1267 C 0.87708 0.42218 0.25853 0.0
C1268 C 0.89535 0.4292 0.23577 0.0
C1269 C 0.90599 0.40779 0.21825 0.0
C1270 C 0.85055 0.38528 0.28754 0.0
C1271 C 0.90352 0.45944 0.2297 0.0
C1272 C 0.83115 0.4839 0.2806 0.0
C1273 C 0.84621 0.49492 0.30384 0.0
C1274 C 0.83995 0.45915 0.26682 0.0
C1275 C 0.8647 0.44521 0.27617 0.0
C1276 C 0.8793 0.45544 0.3004 0.0
C1277 C 0.86977 0.48005 0.31407 0.0
C1278 C 0.82358 0.4488 0.24127 0.0
C1279 C 0.90596 0.4414 0.31085 0.0
H1280 H 0.87607 0.35048 0.24972 0.0
H1281 H 0.91981 0.41351 0.2008 0.0
H1282 H 0.85863 0.39346 0.30813 0.0
H1283 H 0.82951 0.39495 0.28402 0.0
H1284 H 0.84795 0.36205 0.28927 0.0
H1285 H 0.91885 0.46123 0.21188 0.0
H1286 H 0.88446 0.47189 0.22417 0.0
H1287 H 0.91296 0.46916 0.24898 0.0
H1288 H 0.81284 0.49505 0.27256 0.0
H1289 H 0.88159 0.4883 0.332 0.0
H1290 H 0.81958 0.4258 0.24299 0.0
H1291 H 0.83616 0.45231 0.22164 0.0
H1292 H 0.80304 0.45986 0.23885 0.0
H1293 H 0.90276 0.41832 0.3131 0.0
H1294 H 0.9131 0.45004 0.33165 0.0
H1295 H 0.92304 0.44459 0.295 0.0
C1296 C 0.47646 0.13627 0.69338 0.0
C1297 C 0.49181 0.15958 0.70344 0.0
C1298 C 0.45235 0.12661 0.70779 0.0
C1299 C 0.44306 0.14085 0.73259 0.0
C1300 C 0.4575 0.1653 0.74193 0.0
C1301 C 0.48181 0.17423 0.72741 0.0
C1302 C 0.43778 0.10024 0.69734 0.0
C1303 C 0.44805 0.18131 0.76805 0.0
C1304 C 0.3702 0.12348 0.76225 0.0
C1305 C 0.37697 0.1047 0.78437 0.0
C1306 C 0.39146 0.13568 0.74532 0.0
C1307 C 0.42007 0.12857 0.75035 0.0
C1308 C 0.42698 0.10953 0.77252 0.0
C1309 C 0.40543 0.09804 0.78934 0.0
C1310 C 0.38335 0.15622 0.72214 0.0
C1311 C 0.45718 0.10108 0.77839 0.0
H1312 H 0.48392 0.12477 0.67491 0.0
H1313 H 0.49336 0.19233 0.73531 0.0
H1314 H 0.44064 0.08307 0.71317 0.0
H1315 H 0.41477 0.10393 0.69515 0.0
H1316 H 0.4462 0.09295 0.67651 0.0
H1317 H 0.45951 0.2016 0.7706 0.0
H1318 H 0.42508 0.18573 0.76695 0.0
H1319 H 0.45177 0.16828 0.78733 0.0
H1320 H 0.34831 0.12882 0.75829 0.0
H1321 H 0.41098 0.08347 0.80623 0.0
H1322 H 0.3905 0.14821 0.70114 0.0
H1323 H 0.39404 0.17674 0.72573 0.0
H1324 H 0.36021 0.15986 0.7212 0.0
H1325 H 0.46669 0.09169 0.75898 0.0
H1326 H 0.45893 0.08559 0.79608 0.0
H1327 H 0.46985 0.11998 0.78395 0.0
C1328 C 0.13809 0.47553 0.68402 0.0
C1329 C 0.16058 0.49111 0.69552 0.0
C1330 C 0.12838 0.4508 0.69738 0.0
C1331 C 0.14162 0.44127 0.72268 0.0
C1332 C 0.16547 0.45586 0.7333 0.0
C1333 C 0.17455 0.48063 0.71971 0.0
C1334 C 0.10279 0.43597 0.68545 0.0
C1335 C 0.18035 0.44635 0.7601 0.0
C1336 C 0.09722 0.40556 0.77929 0.0
C1337 C 0.1049 0.37706 0.77652 0.0
C1338 C 0.10852 0.42635 0.76145 0.0
C1339 C 0.12831 0.41869 0.74026 0.0
C1340 C 0.13591 0.38994 0.73691 0.0
C1341 C 0.124 0.36939 0.75501 0.0
C1342 C 0.09957 0.45669 0.76567 0.0
C1343 C 0.15707 0.38102 0.71465 0.0
H1344 H 0.12716 0.48331 0.66531 0.0
H1345 H 0.19209 0.49228 0.72871 0.0
H1346 H 0.10637 0.41287 0.68449 0.0
H1347 H 0.08448 0.43964 0.6997 0.0
H1348 H 0.09725 0.44367 0.66379 0.0
H1349 H 0.20057 0.45772 0.76348 0.0
H1350 H 0.16655 0.45022 0.77879 0.0
H1351 H 0.1847 0.42336 0.75928 0.0
H1352 H 0.0823 0.41182 0.79559 0.0
H1353 H 0.13007 0.34746 0.75267 0.0
H1354 H 0.09131 0.4655 0.74541 0.0
H1355 H 0.11805 0.46962 0.77197 0.0
H1356 H 0.08304 0.45894 0.78232 0.0
H1357 H 0.1505 0.38876 0.69334 0.0
H1358 H 0.15962 0.35773 0.7137 0.0
H1359 H 0.17789 0.39063 0.71943 0.0
C1360 C 0.40949 0.90621 0.22095 0.0
C1361 C 0.38102 0.89941 0.2257 0.0
C1362 C 0.43101 0.89489 0.23797 0.0
C1363 C 0.42409 0.87594 0.2602 0.0
C1364 C 0.39545 0.86891 0.26521 0.0
C1365 C 0.37422 0.88087 0.24801 0.0
C1366 C 0.46122 0.90322 0.23203 0.0
C1367 C 0.38731 0.84852 0.28851 0.0
C1368 C 0.48567 0.82938 0.2818 0.0
C1369 C 0.49642 0.84379 0.3056 0.0
C1370 C 0.46115 0.83866 0.26786 0.0
C1371 C 0.44716 0.86321 0.27762 0.0
C1372 C 0.45714 0.87716 0.30234 0.0
C1373 C 0.48151 0.86717 0.31615 0.0
C1374 C 0.45105 0.82295 0.24179 0.0
C1375 C 0.44304 0.90359 0.31328 0.0
H1376 H 0.41509 0.92061 0.20393 0.0
H1377 H 0.35233 0.87544 0.25185 0.0
H1378 H 0.47094 0.91228 0.2515 0.0
H1379 H 0.4737 0.8843 0.22612 0.0
H1380 H 0.46296 0.91892 0.21454 0.0
H1381 H 0.3641 0.84552 0.28994 0.0
H1382 H 0.39734 0.82773 0.28458 0.0
H1383 H 0.39516 0.85622 0.30937 0.0
H1384 H 0.49685 0.8112 0.27351 0.0
H1385 H 0.48954 0.87849 0.3345 0.0
H1386 H 0.4546 0.83608 0.22254 0.0
H1387 H 0.42805 0.8188 0.24325 0.0
H1388 H 0.46222 0.80254 0.2389 0.0
H1389 H 0.4461 0.92095 0.29771 0.0
H1390 H 0.4517 0.9104 0.33417 0.0
H1391 H 0.41998 0.90024 0.31552 0.0
C1392 C 0.82644 0.51808 0.72938 0.0
C1393 C 0.83924 0.50782 0.70447 0.0
C1394 C 0.83635 0.54261 0.74284 0.0
C1395 C 0.85991 0.55706 0.73139 0.0
C1396 C 0.87223 0.5475 0.70566 0.0
C1397 C 0.86164 0.52312 0.69241 0.0
C1398 C 0.8224 0.55228 0.77007 0.0
C1399 C 0.89758 0.5621 0.69293 0.0
C1400 C 0.87817 0.63 0.76041 0.0
C1401 C 0.8981 0.62326 0.78148 0.0
C1402 C 0.8656 0.60874 0.74373 0.0
C1403 C 0.87346 0.58019 0.74798 0.0
C1404 C 0.894 0.5734 0.76877 0.0
C1405 C 0.90589 0.59493 0.78531 0.0
C1406 C 0.84355 0.61673 0.72197 0.0
C1407 C 0.9033 0.54329 0.77377 0.0
H1408 H 0.80904 0.50659 0.73884 0.0
H1409 H 0.87171 0.51546 0.67319 0.0
H1410 H 0.83698 0.54891 0.78826 0.0
H1411 H 0.8177 0.57519 0.76903 0.0
H1412 H 0.80249 0.54069 0.77443 0.0
H1413 H 0.90302 0.5537 0.67152 0.0
H1414 H 0.89373 0.58511 0.69113 0.0
H1415 H 0.91606 0.55919 0.70716 0.0
H1416 H 0.87197 0.65181 0.75733 0.0
H1417 H 0.92144 0.58944 0.80132 0.0
H1418 H 0.82315 0.60664 0.7275 0.0
H1419 H 0.84972 0.60883 0.70061 0.0
H1420 H 0.84035 0.63992 0.72068 0.0
H1421 H 0.88511 0.53043 0.78101 0.0
H1422 H 0.9203 0.54171 0.79001 0.0
H1423 H 0.91105 0.5339 0.75359 0.0
C1424 C 0.63415 0.12687 0.243 0.0
C1425 C 0.62656 0.10573 0.22352 0.0
C1426 C 0.61368 0.1398 0.26042 0.0
C1427 C 0.58512 0.13109 0.25853 0.0
C1428 C 0.57758 0.10921 0.2395 0.0
C1429 C 0.5983 0.09697 0.22219 0.0
C1430 C 0.62245 0.16323 0.2803 0.0
C1431 C 0.54748 0.09896 0.23703 0.0
C1432 C 0.53052 0.14456 0.31619 0.0
C1433 C 0.51385 0.16566 0.30356 0.0
C1434 C 0.5547 0.13408 0.30247 0.0
C1435 C 0.56265 0.14516 0.27563 0.0
C1436 C 0.54689 0.16759 0.26357 0.0
C1437 C 0.52263 0.17744 0.27757 0.0
C1438 C 0.57074 0.10998 0.31594 0.0
C1439 C 0.55477 0.18018 0.2351 0.0
H1440 H 0.65592 0.13382 0.24408 0.0
H1441 H 0.59221 0.08045 0.20746 0.0
H1442 H 0.61187 0.18315 0.27395 0.0
H1443 H 0.61565 0.15837 0.30238 0.0
H1444 H 0.64563 0.16669 0.2802 0.0
H1445 H 0.54536 0.08094 0.22204 0.0
H1446 H 0.53952 0.09231 0.25822 0.0
H1447 H 0.53374 0.11638 0.22946 0.0
H1448 H 0.52405 0.1353 0.33627 0.0
H1449 H 0.51008 0.19385 0.26764 0.0
H1450 H 0.59372 0.11441 0.31595 0.0
H1451 H 0.56738 0.09051 0.30326 0.0
H1452 H 0.56384 0.10588 0.33819 0.0
H1453 H 0.57758 0.18539 0.23457 0.0
H1454 H 0.54249 0.19958 0.23028 0.0
H1455 H 0.55076 0.16454 0.21798 0.0
C1456 C 0.63687 0.02323 0.81706 0.0
C1457 C 0.6599 0.00818 0.80593 0.0
C1458 C 0.62705 0.04794 0.80376 0.0
C1459 C 0.64076 0.05803 0.77896 0.0
C1460 C 0.6651 0.04397 0.76875 0.0
C1461 C 0.67425 0.01917 0.78222 0.0
C1462 C 0.60089 0.06215 0.8152 0.0
C1463 C 0.68052 0.05415 0.74253 0.0
C1464 C 0.59698 0.09426 0.72215 0.0
C1465 C 0.60386 0.12284 0.72598 0.0
C1466 C 0.60842 0.07323 0.73962 0.0
C1467 C 0.62757 0.08074 0.76146 0.0
C1468 C 0.63452 0.10952 0.76574 0.0
C1469 C 0.62244 0.13029 0.74803 0.0
C1470 C 0.60018 0.04284 0.73444 0.0
C1471 C 0.65505 0.11827 0.78867 0.0
H1472 H 0.62564 0.01504 0.8354 0.0
H1473 H 0.69219 0.00791 0.77352 0.0
H1474 H 0.60412 0.08527 0.81681 0.0
H1475 H 0.58308 0.05859 0.80026 0.0
H1476 H 0.59478 0.05389 0.83648 0.0
H1477 H 0.70102 0.04317 0.73954 0.0
H1478 H 0.66729 0.05033 0.7234 0.0
H1479 H 0.68443 0.07719 0.74382 0.0
H1480 H 0.58251 0.08814 0.70538 0.0
H1481 H 0.62791 0.15228 0.75117 0.0
H1482 H 0.59155 0.03342 0.75425 0.0
H1483 H 0.61907 0.03039 0.72837 0.0
H1484 H 0.58416 0.04068 0.71728 0.0
H1485 H 0.64792 0.11029 0.8097 0.0
H1486 H 0.65748 0.14155 0.78995 0.0
H1487 H 0.67602 0.10876 0.7844 0.0
C1488 C 0.1323 0.38007 0.25469 0.0
C1489 C 0.125 0.39863 0.2768 0.0
C1490 C 0.11145 0.36837 0.23685 0.0
C1491 C 0.08274 0.37569 0.24102 0.0
C1492 C 0.07541 0.39494 0.26283 0.0
C1493 C 0.09652 0.40599 0.28048 0.0
C1494 C 0.12003 0.3477 0.21398 0.0
C1495 C 0.04512 0.4036 0.26788 0.0
C1496 C 0.02547 0.36574 0.18515 0.0
C1497 C 0.01046 0.34275 0.1964 0.0
C1498 C 0.04999 0.37588 0.1986 0.0
C1499 C 0.05993 0.36249 0.22366 0.0
C1500 C 0.04587 0.33824 0.23407 0.0
C1501 C 0.02126 0.32881 0.22046 0.0
C1502 C 0.0642 0.40195 0.18696 0.0
C1503 C 0.0559 0.32315 0.26056 0.0
H1504 H 0.15422 0.37426 0.25167 0.0
H1505 H 0.09056 0.4205 0.29726 0.0
H1506 H 0.11054 0.32677 0.21848 0.0
H1507 H 0.11191 0.3547 0.19296 0.0
H1508 H 0.1433 0.34523 0.21256 0.0
H1509 H 0.04313 0.41985 0.28481 0.0
H1510 H 0.03579 0.41207 0.24794 0.0
H1511 H 0.03246 0.38492 0.27419 0.0
H1512 H 0.0174 0.37668 0.16657 0.0
H1513 H 0.01001 0.31094 0.2293 0.0
H1514 H 0.08732 0.39866 0.18535 0.0
H1515 H 0.06069 0.41985 0.20178 0.0
H1516 H 0.05593 0.40793 0.16564 0.0
H1517 H 0.07891 0.31901 0.25933 0.0
H1518 H 0.04476 0.30278 0.26388 0.0
H1519 H 0.05219 0.3367 0.27946 0.0
C1520 C 0.32719 0.98141 0.77685 0.0
C1521 C 0.33997 0.99084 0.80211 0.0
C1522 C 0.33683 0.95711 0.7628 0.0
C1523 C 0.36011 0.942 0.774 0.0
C1524 C 0.37242 0.95072 0.80005 0.0
C1525 C 0.3621 0.9749 0.81388 0.0
C1526 C 0.32291 0.94837 0.73523 0.0
C1527 C 0.39748 0.93541 0.81254 0.0
C1528 C 0.37747 0.86958 0.74311 0.0
C1529 C 0.39758 0.87658 0.72233 0.0
C1530 C 0.36513 0.89058 0.7603 0.0
C1531 C 0.37342 0.91911 0.75688 0.0
C1532 C 0.39416 0.92614 0.73639 0.0
C1533 C 0.4058 0.90489 0.71931 0.0
C1534 C 0.34284 0.88235 0.78171 0.0
C1535 C 0.40394 0.95622 0.73227 0.0
H1536 H 0.31003 0.99341 0.76756 0.0
H1537 H 0.37218 0.98192 0.83336 0.0
H1538 H 0.33765 0.95201 0.71723 0.0
H1539 H 0.31788 0.92551 0.7356 0.0
H1540 H 0.30319 0.96037 0.73105 0.0
H1541 H 0.40293 0.94317 0.83419 0.0
H1542 H 0.39328 0.91242 0.81372 0.0
H1543 H 0.41608 0.93839 0.79849 0.0
H1544 H 0.37095 0.84779 0.74555 0.0
H1545 H 0.42149 0.91056 0.70354 0.0
H1546 H 0.32262 0.89287 0.77631 0.0
H1547 H 0.34899 0.8896 0.8033 0.0
H1548 H 0.33931 0.85918 0.78235 0.0
H1549 H 0.38598 0.96955 0.72527 0.0
H1550 H 0.42106 0.95797 0.71619 0.0
H1551 H 0.4117 0.96496 0.75275 0.0
C1552 C 0.91061 0.60082 0.28098 0.0
C1553 C 0.88191 0.60695 0.27677 0.0
C1554 C 0.93146 0.61188 0.26304 0.0
C1555 C 0.92362 0.62989 0.24032 0.0
C1556 C 0.89471 0.63602 0.23564 0.0
C1557 C 0.87414 0.62434 0.25383 0.0
C1558 C 0.962 0.60453 0.2687 0.0
C1559 C 0.8856 0.65534 0.21179 0.0
C1560 C 0.98408 0.67741 0.21834 0.0
C1561 C 0.9956 0.66262 0.19518 0.0
C1562 C 0.95943 0.66808 0.23193 0.0
C1563 C 0.94612 0.64303 0.2225 0.0
C1564 C 0.95675 0.62878 0.19824 0.0
C1565 C 0.98124 0.63886 0.18472 0.0
C1566 C 0.94864 0.68413 0.2575 0.0
C1567 C 0.94338 0.60183 0.18768 0.0
H1568 H 0.91698 0.58726 0.29843 0.0
H1569 H 0.85205 0.6292 0.25036 0.0
H1570 H 0.97177 0.59549 0.24926 0.0
H1571 H 0.97395 0.62391 0.27421 0.0
H1572 H 0.96443 0.58915 0.28641 0.0
H1573 H 0.86227 0.65703 0.21016 0.0
H1574 H 0.89443 0.67674 0.21531 0.0
H1575 H 0.89402 0.64764 0.19115 0.0
H1576 H 0.99481 0.69588 0.22653 0.0
H1577 H 0.98988 0.62727 0.16684 0.0
H1578 H 0.9527 0.67171 0.27713 0.0
H1579 H 0.92551 0.68735 0.25591 0.0
H1580 H 0.95902 0.70503 0.25981 0.0
H1581 H 0.94736 0.58468 0.20328 0.0
H1582 H 0.95195 0.59522 0.16668 0.0
H1583 H 0.92018 0.60433 0.18581 0.0
C1584 C 0.67577 0.98291 0.2199 0.0
C1585 C 0.6613 0.99339 0.19601 0.0
C1586 C 0.66686 0.95824 0.23379 0.0
C1587 C 0.64267 0.94376 0.22381 0.0
C1588 C 0.62882 0.95336 0.19887 0.0
C1589 C 0.63837 0.97797 0.18518 0.0
C1590 C 0.68241 0.94862 0.26016 0.0
C1591 C 0.60282 0.93869 0.18765 0.0
C1592 C 0.62574 0.87164 0.25591 0.0
C1593 C 0.6072 0.87912 0.27799 0.0
C1594 C 0.63728 0.89234 0.23776 0.0
C1595 C 0.62984 0.92107 0.24161 0.0
C1596 C 0.61064 0.92856 0.26341 0.0
C1597 C 0.59973 0.90761 0.28132 0.0
C1598 C 0.65784 0.88359 0.21487 0.0
C1599 C 0.60186 0.95887 0.26815 0.0
H1600 H 0.69362 0.99445 0.22839 0.0
H1601 H 0.62704 0.98576 0.16672 0.0
H1602 H 0.66908 0.95242 0.27921 0.0
H1603 H 0.68673 0.92564 0.25913 0.0
H1604 H 0.70271 0.95998 0.26307 0.0
H1605 H 0.59658 0.9466 0.16627 0.0
H1606 H 0.60636 0.91559 0.18633 0.0
H1607 H 0.58499 0.9422 0.20256 0.0
H1608 H 0.63165 0.84971 0.25316 0.0
H1609 H 0.58524 0.91372 0.29807 0.0
H1610 H 0.67874 0.8933 0.21907 0.0
H1611 H 0.65063 0.89137 0.19379 0.0
H1612 H 0.66047 0.86033 0.21376 0.0
H1613 H 0.62054 0.97173 0.27403 0.0
H1614 H 0.58581 0.961 0.28527 0.0
H1615 H 0.59306 0.96787 0.24821 0.0
C1616 C 0.87127 0.37719 0.74511 0.0
C1617 C 0.8774 0.39502 0.72202 0.0
C1618 C 0.89296 0.36586 0.76212 0.0
C1619 C 0.92142 0.37288 0.75619 0.0
C1620 C 0.9277 0.39099 0.73305 0.0
C1621 C 0.90571 0.40162 0.71616 0.0
C1622 C 0.88547 0.34627 0.78633 0.0
C1623 C 0.95772 0.3993 0.72616 0.0
C1624 C 0.97897 0.36626 0.81238 0.0
C1625 C 0.99377 0.34241 0.80283 0.0
C1626 C 0.9548 0.37593 0.79798 0.0
C1627 C 0.94486 0.3611 0.77376 0.0
C1628 C 0.95882 0.33618 0.76496 0.0
C1629 C 0.98319 0.3273 0.7794 0.0
C1630 C 0.94075 0.4028 0.80784 0.0
C1631 C 0.94869 0.3195 0.73952 0.0
H1632 H 0.84951 0.37191 0.74981 0.0
H1633 H 0.91077 0.4155 0.69853 0.0
H1634 H 0.89598 0.32557 0.78323 0.0
H1635 H 0.89326 0.35505 0.80678 0.0
H1636 H 0.86235 0.34278 0.78807 0.0
H1637 H 0.95897 0.41422 0.70794 0.0
H1638 H 0.96768 0.40931 0.74502 0.0
H1639 H 0.97028 0.38025 0.72091 0.0
H1640 H 0.98691 0.37813 0.83041 0.0
H1641 H 0.99432 0.30878 0.77185 0.0
H1642 H 0.91779 0.39939 0.8108 0.0
H1643 H 0.94328 0.41936 0.7913 0.0
H1644 H 0.94982 0.41076 0.82814 0.0
H1645 H 0.92576 0.31515 0.74134 0.0
H1646 H 0.96006 0.29912 0.73722 0.0
H1647 H 0.95191 0.33201 0.7198 0.0
C1648 C 0.40955 0.09915 0.28697 0.0
C1649 C 0.40127 0.12738 0.28341 0.0
C1650 C 0.39769 0.07751 0.27054 0.0
C1651 C 0.37667 0.08408 0.25017 0.0
C1652 C 0.36819 0.1125 0.24632 0.0
C1653 C 0.38074 0.13388 0.26286 0.0
C1654 C 0.40765 0.04755 0.2751 0.0
C1655 C 0.34559 0.12025 0.22504 0.0
C1656 C 0.36547 0.02789 0.19354 0.0
C1657 C 0.34349 0.01187 0.20546 0.0
C1658 C 0.37574 0.05214 0.20726 0.0
C1659 C 0.36351 0.06089 0.23333 0.0
C1660 C 0.34037 0.04569 0.24469 0.0
C1661 C 0.3308 0.02129 0.23076 0.0
C1662 C 0.40067 0.06753 0.19461 0.0
C1663 C 0.32652 0.05449 0.27226 0.0
H1664 H 0.42553 0.09384 0.30261 0.0
H1665 H 0.37413 0.1556 0.26001 0.0
H1666 H 0.38978 0.03421 0.28228 0.0
H1667 H 0.41546 0.03858 0.25473 0.0
H1668 H 0.42479 0.04612 0.2912 0.0
H1669 H 0.34157 0.14334 0.22437 0.0
H1670 H 0.35179 0.11311 0.20342 0.0
H1671 H 0.32562 0.10931 0.23052 0.0
H1672 H 0.37548 0.02089 0.17403 0.0
H1673 H 0.31375 0.00922 0.24015 0.0
H1674 H 0.41928 0.06495 0.20875 0.0
H1675 H 0.39621 0.09045 0.19309 0.0
H1676 H 0.40625 0.05952 0.17309 0.0
H1677 H 0.34137 0.05111 0.29022 0.0
H1678 H 0.30693 0.04235 0.27661 0.0
H1679 H 0.32128 0.0773 0.27175 0.0
C1680 C 0.13212 0.6214 0.74655 0.0
C1681 C 0.12467 0.60183 0.72541 0.0
C1682 C 0.11147 0.63332 0.76451 0.0
C1683 C 0.08283 0.62523 0.76143 0.0
C1684 C 0.07541 0.60484 0.74073 0.0
C1685 C 0.09631 0.59354 0.72298 0.0
C1686 C 0.12015 0.65513 0.78622 0.0
C1687 C 0.04521 0.59534 0.73683 0.0
C1688 C 0.0263 0.63706 0.81774 0.0
C1689 C 0.01078 0.65933 0.80569 0.0
C1690 C 0.05076 0.62663 0.80439 0.0
C1691 C 0.0601 0.63893 0.77853 0.0
C1692 C 0.04547 0.66245 0.7672 0.0
C1693 C 0.02098 0.67223 0.78078 0.0
C1694 C 0.06561 0.60141 0.81708 0.0
C1695 C 0.05478 0.67635 0.7398 0.0
H1696 H 0.15394 0.62795 0.74859 0.0
H1697 H 0.09026 0.57822 0.70698 0.0
H1698 H 0.1105 0.67577 0.78074 0.0
H1699 H 0.1123 0.64917 0.80766 0.0
H1700 H 0.14342 0.6578 0.78726 0.0
H1701 H 0.0432 0.5782 0.72081 0.0
H1702 H 0.03648 0.58773 0.75737 0.0
H1703 H 0.03204 0.61342 0.72982 0.0
H1704 H 0.01871 0.62691 0.83696 0.0
H1705 H 0.00934 0.68954 0.7713 0.0
H1706 H 0.0887 0.6051 0.81804 0.0
H1707 H 0.06208 0.58271 0.8033 0.0
H1708 H 0.05785 0.59642 0.83885 0.0
H1709 H 0.07771 0.681 0.74045 0.0
H1710 H 0.04316 0.69628 0.73557 0.0
H1711 H 0.05109 0.66175 0.72169 0.0
C1712 C 0.21164 0.50849 0.56404 0.0
C1713 C 0.19082 0.52841 0.57095 0.0
C1714 C 0.2149 0.49877 0.53589 0.0
C1715 C 0.1969 0.5092 0.5142 0.0
C1716 C 0.17661 0.5301 0.52088 0.0
C1717 C 0.17384 0.53944 0.5491 0.0
C1718 C 0.23686 0.47657 0.52959 0.0
C1719 C 0.15698 0.54182 0.49843 0.0
C1720 C 0.21151 0.49864 0.43504 0.0
C1721 C 0.19297 0.47648 0.4285 0.0
C1722 C 0.21391 0.50889 0.4631 0.0
C1723 C 0.19739 0.49668 0.48505 0.0
C1724 C 0.17952 0.4736 0.47872 0.0
C1725 C 0.17756 0.4638 0.45062 0.0
C1726 C 0.2333 0.53344 0.46905 0.0
C1727 C 0.16156 0.45992 0.50145 0.0
H1728 H 0.22497 0.49995 0.58072 0.0
H1729 H 0.15783 0.555 0.55411 0.0
H1730 H 0.22628 0.45645 0.52394 0.0
H1731 H 0.24987 0.48294 0.51102 0.0
H1732 H 0.251 0.4727 0.54807 0.0
H1733 H 0.1437 0.55932 0.50667 0.0
H1734 H 0.16924 0.54966 0.47992 0.0
H1735 H 0.14288 0.52483 0.49057 0.0
H1736 H 0.22357 0.5085 0.41814 0.0
H1737 H 0.16336 0.44648 0.44591 0.0
H1738 H 0.24718 0.52865 0.48747 0.0
H1739 H 0.2206 0.55227 0.47478 0.0
H1740 H 0.24669 0.53878 0.45038 0.0
H1741 H 0.17484 0.45346 0.5198 0.0
H1742 H 0.1501 0.44108 0.49341 0.0
H1743 H 0.14583 0.47533 0.5095 0.0
C1744 C 0.51158 0.7902 0.43688 0.0
C1745 C 0.53103 0.81162 0.43049 0.0
C1746 C 0.50137 0.7865 0.46479 0.0
C1747 C 0.51078 0.80469 0.48678 0.0
C1748 C 0.53115 0.82566 0.48063 0.0
C1749 C 0.54104 0.82883 0.45265 0.0
C1750 C 0.47977 0.76381 0.47054 0.0
C1751 C 0.54174 0.84555 0.5034 0.0
C1752 C 0.46385 0.82247 0.54967 0.0
C1753 C 0.4768 0.80755 0.57199 0.0
C1754 C 0.47402 0.82075 0.52168 0.0
C1755 C 0.49775 0.80362 0.51568 0.0
C1756 C 0.51018 0.78749 0.53781 0.0
C1757 C 0.49956 0.78964 0.56574 0.0
C1758 C 0.46007 0.83829 0.49876 0.0
C1759 C 0.5354 0.76886 0.5322 0.0
H1760 H 0.50385 0.77668 0.41996 0.0
H1761 H 0.55621 0.84532 0.44806 0.0
H1762 H 0.48622 0.75087 0.48915 0.0
H1763 H 0.45922 0.77369 0.47588 0.0
H1764 H 0.47671 0.74968 0.45192 0.0
H1765 H 0.55889 0.85952 0.49555 0.0
H1766 H 0.52411 0.85896 0.51104 0.0
H1767 H 0.54971 0.83345 0.52197 0.0
H1768 H 0.44607 0.83616 0.55415 0.0
H1769 H 0.50963 0.77795 0.58279 0.0
H1770 H 0.45445 0.82487 0.48025 0.0
H1771 H 0.47503 0.85462 0.49107 0.0
H1772 H 0.44067 0.84899 0.5065 0.0
H1773 H 0.53141 0.75502 0.51357 0.0
H1774 H 0.54076 0.75547 0.55087 0.0
H1775 H 0.55396 0.78216 0.52698 0.0
C1776 C 0.84051 0.52531 0.4463 0.0
C1777 C 0.81652 0.52807 0.42901 0.0
C1778 C 0.83842 0.51592 0.47453 0.0
C1779 C 0.81156 0.50965 0.48612 0.0
C1780 C 0.78719 0.51221 0.46876 0.0
C1781 C 0.78999 0.52111 0.44024 0.0
C1782 C 0.86504 0.51298 0.49203 0.0
C1783 C 0.75818 0.5062 0.48052 0.0
C1784 C 0.81506 0.46535 0.5535 0.0
C1785 C 0.81657 0.48632 0.57454 0.0
C1786 C 0.81179 0.47249 0.52461 0.0
C1787 C 0.8094 0.50124 0.51667 0.0
C1788 C 0.80875 0.52229 0.53809 0.0
C1789 C 0.81266 0.5146 0.56673 0.0
C1790 C 0.81304 0.44942 0.50248 0.0
C1791 C 0.80565 0.55313 0.53063 0.0
H1792 H 0.86112 0.53032 0.43766 0.0
H1793 H 0.77139 0.52332 0.42697 0.0
H1794 H 0.86446 0.52789 0.51024 0.0
H1795 H 0.86654 0.49135 0.50097 0.0
H1796 H 0.88437 0.51726 0.47936 0.0
H1797 H 0.74147 0.50826 0.46404 0.0
H1798 H 0.75737 0.48457 0.48953 0.0
H1799 H 0.75349 0.52106 0.49815 0.0
H1800 H 0.8182 0.44344 0.55937 0.0
H1801 H 0.81355 0.53087 0.58294 0.0
H1802 H 0.8334 0.45077 0.49087 0.0
H1803 H 0.79593 0.45203 0.48657 0.0
H1804 H 0.81133 0.42808 0.51214 0.0
H1805 H 0.82535 0.56076 0.52045 0.0
H1806 H 0.80144 0.56632 0.54973 0.0
H1807 H 0.78825 0.55619 0.51512 0.0
C1808 C 0.45669 0.21436 0.45653 0.0
C1809 C 0.47309 0.20221 0.43499 0.0
C1810 C 0.46602 0.21427 0.48496 0.0
C1811 C 0.49279 0.20269 0.49165 0.0
C1812 C 0.51002 0.1918 0.46955 0.0
C1813 C 0.49965 0.19109 0.44154 0.0
C1814 C 0.44657 0.22507 0.50798 0.0
C1815 C 0.53906 0.18013 0.47559 0.0
C1816 C 0.52547 0.21811 0.56419 0.0
C1817 C 0.52159 0.19226 0.57807 0.0
C1818 C 0.51626 0.22192 0.53594 0.0
C1819 C 0.50186 0.1997 0.52189 0.0
C1820 C 0.49693 0.17396 0.53642 0.0
C1821 C 0.50742 0.17035 0.56412 0.0
C1822 C 0.52286 0.24923 0.52081 0.0
C1823 C 0.48081 0.15009 0.52264 0.0
H1824 H 0.43595 0.22257 0.45134 0.0
H1825 H 0.51224 0.18172 0.42473 0.0
H1826 H 0.44035 0.20733 0.52209 0.0
H1827 H 0.45754 0.24086 0.52144 0.0
H1828 H 0.42715 0.23483 0.4991 0.0
H1829 H 0.55108 0.17589 0.45573 0.0
H1830 H 0.55129 0.19512 0.48893 0.0
H1831 H 0.53723 0.16012 0.4877 0.0
H1832 H 0.53672 0.23491 0.57502 0.0
H1833 H 0.50433 0.15041 0.57505 0.0
H1834 H 0.50322 0.25901 0.51259 0.0
H1835 H 0.5366 0.24491 0.50216 0.0
H1836 H 0.5337 0.26463 0.53491 0.0
H1837 H 0.46038 0.15791 0.51417 0.0
H1838 H 0.47657 0.13255 0.53776 0.0
H1839 H 0.49299 0.14159 0.50439 0.0
C1840 C 0.7105 0.00591 0.06478 0.0
C1841 C 0.69083 0.02714 0.07112 0.0
C1842 C 0.7132 0.99531 0.03691 0.0
C1843 C 0.69584 0.00622 0.01493 0.0
C1844 C 0.67675 0.02838 0.02102 0.0
C1845 C 0.67449 0.03855 0.04897 0.0
C1846 C 0.73388 0.97176 0.03121 0.0
C1847 C 0.65787 0.04066 0.99822 0.0
C1848 C 0.71034 0.99365 0.93615 0.0
C1849 C 0.6906 0.97251 0.92977 0.0
C1850 C 0.71315 0.00413 0.96406 0.0
C1851 C 0.69583 0.99318 0.98604 0.0
C1852 C 0.67671 0.97106 0.97991 0.0
C1853 C 0.67435 0.96101 0.95192 0.0
C1854 C 0.73386 0.02765 0.96979 0.0
C1855 C 0.65788 0.95874 0.00271 0.0
H1856 H 0.72331 0.99705 0.08171 0.0
H1857 H 0.65939 0.05512 0.05355 0.0
H1858 H 0.72219 0.95218 0.02583 0.0
H1859 H 0.74737 0.97701 0.01263 0.0
H1860 H 0.74765 0.96742 0.04987 0.0
H1861 H 0.64548 0.05899 0.00603 0.0
H1862 H 0.67063 0.0475 0.97965 0.0
H1863 H 0.64295 0.02428 0.99059 0.0
H1864 H 0.72309 0.00258 0.91923 0.0
H1865 H 0.65919 0.9445 0.94731 0.0
H1866 H 0.74733 0.02238 0.98839 0.0
H1867 H 0.72219 0.04724 0.97513 0.0
H1868 H 0.74765 0.03195 0.95115 0.0
H1869 H 0.67066 0.95193 0.02129 0.0
H1870 H 0.64553 0.94038 0.99489 0.0
H1871 H 0.64292 0.97509 0.01033 0.0
C1872 C 0.00845 0.29027 0.93635 0.0
C1873 C 0.0277 0.31171 0.92945 0.0
C1874 C 0.9987 0.28678 0.96447 0.0
C1875 C 0.0084 0.30521 0.98614 0.0
C1876 C 0.02856 0.32622 0.97944 0.0
C1877 C 0.03796 0.32918 0.95128 0.0
C1878 C 0.97733 0.26403 0.9708 0.0
C1879 C 0.03944 0.34636 0.00185 0.0
C1880 C 0.9626 0.32346 0.04973 0.0
C1881 C 0.97605 0.30885 0.07195 0.0
C1882 C 0.97221 0.32144 0.02156 0.0
C1883 C 0.99588 0.30433 0.01528 0.0
C1884 C 0.00881 0.28849 0.03734 0.0
C1885 C 0.99873 0.29093 0.06546 0.0
C1886 C 0.95775 0.33867 0.99872 0.0
C1887 C 0.03399 0.26991 0.03145 0.0
H1888 H 1.00052 0.27655 0.91969 0.0
H1889 H 0.053 0.34568 0.94629 0.0
H1890 H 0.98418 0.25128 0.98939 0.0
H1891 H 0.95683 0.27386 0.97644 0.0
H1892 H 0.974 0.24974 0.95234 0.0
H1893 H 0.05636 0.36036 0.99357 0.0
H1894 H 0.02186 0.35973 0.00971 0.0
H1895 H 0.04782 0.33446 0.02037 0.0
H1896 H 0.94486 0.33714 0.0544 0.0
H1897 H 0.00919 0.27948 0.08245 0.0
H1898 H 0.95189 0.32504 0.98044 0.0
H1899 H 0.97246 0.35501 0.9906 0.0
H1900 H 0.93843 0.34933 0.0067 0.0
H1901 H 0.02973 0.25589 0.01301 0.0
H1902 H 0.03971 0.25669 0.05014 0.0
H1903 H 0.05241 0.28322 0.0258 0.0
C1904 C 0.31871 0.00343 0.94042 0.0
C1905 C 0.30124 0.02593 0.93246 0.0
C1906 C 0.31774 0.99225 0.96809 0.0
C1907 C 0.29967 0.00464 0.98861 0.0
C1908 C 0.28174 0.02723 0.98055 0.0
C1909 C 0.28239 0.0373 0.95236 0.0
C1910 C 0.33653 0.96757 0.9755 0.0
C1911 C 0.26288 0.04162 0.00201 0.0
C1912 C 0.28445 0.96381 0.0568 0.0
C1913 C 0.30575 0.97384 0.07486 0.0
C1914 C 0.28205 0.97374 0.02866 0.0
C1915 C 0.30079 0.99489 0.01879 0.0
C1916 C 0.32162 0.00584 0.03741 0.0
C1917 C 0.32419 0.99478 0.06505 0.0
C1918 C 0.26021 0.96085 0.0092 0.0
C1919 C 0.34146 0.02898 0.02804 0.0
H1920 H 0.33325 0.99462 0.92494 0.0
H1921 H 0.26917 0.05497 0.94626 0.0
H1922 H 0.35299 0.97437 0.99083 0.0
H1923 H 0.32403 0.95068 0.98595 0.0
H1924 H 0.34713 0.95859 0.95644 0.0
H1925 H 0.24943 0.05814 0.99211 0.0
H1926 H 0.24905 0.02597 0.01266 0.0
H1927 H 0.27602 0.05157 0.01881 0.0
H1928 H 0.27037 0.94739 0.0643 0.0
H1929 H 0.34057 0.00265 0.0791 0.0
H1930 H 0.27088 0.95025 0.99107 0.0
H1931 H 0.24644 0.9775 1.00012 0.0
H1932 H 0.24677 0.94514 0.02036 0.0
H1933 H 0.35561 0.02102 0.01103 0.0
H1934 H 0.35469 0.03692 0.04586 0.0
H1935 H 0.32933 0.0469 0.01899 0.0
C1936 C 0.99885 0.71557 0.93606 0.0
C1937 C 0.97749 0.69595 0.93004 0.0
C1938 C 0.00921 0.71892 0.96399 0.0
C1939 C 0.99798 0.70223 0.98634 0.0
C1940 C 0.97562 0.6833 0.98054 0.0
C1941 C 0.96564 0.68045 0.95257 0.0
C1942 C 0.03292 0.73949 0.96937 0.0
C1943 C 0.96301 0.66505 0.00368 0.0
C1944 C 0.04281 0.68045 0.04954 0.0
C1945 C 0.03136 0.69675 0.07168 0.0
C1946 C 0.03294 0.68296 0.02149 0.0
C1947 C 0.0111 0.70238 0.01523 0.0
C1948 C 1.0003 0.71985 0.03717 0.0
C1949 C 0.01053 0.71681 0.06518 0.0
C1950 C 0.04505 0.66387 0.9988 0.0
C1951 C 0.97716 0.74094 0.03128 0.0
H1952 H 0.00804 0.72775 0.91885 0.0
H1953 H 0.94893 0.66543 0.94829 0.0
H1954 H 0.02793 0.75312 0.98791 0.0
H1955 H 0.05248 0.72771 0.97461 0.0
H1956 H 0.03715 0.75311 0.95057 0.0
H1957 H 0.94449 0.65282 0.99607 0.0
H1958 H 0.97915 0.64998 0.01159 0.0
H1959 H 0.95637 0.67823 0.02201 0.0
H1960 H 0.0591 0.66506 0.05419 0.0
H1961 H 1.00166 0.72962 0.08208 0.0
H1962 H 0.05203 0.67645 0.98016 0.0
H1963 H 0.02851 0.64907 0.99125 0.0
H1964 H 0.06325 0.65131 0.00671 0.0
H1965 H 0.98253 0.75402 0.01243 0.0
H1966 H 0.9733 0.75509 0.04975 0.0
H1967 H 0.95729 0.7296 0.0263 0.0
loop_
_geom_bond_atom_site_label_1
_geom_bond_atom_site_label_2
_geom_bond_distance
_geom_bond_site_symmetry_2
_ccdc_geom_bond_type
Co0 O2 2.143 . S
Co0 O8 2.074 . S
Co0 O11 2.093 . S
Co0 O24 2.097 . S
Co0 N41 2.151 . S
Co0 N49 2.214 . S
Co1 O2 2.160 . S
Co1 O7 2.058 . S
Co1 O17 2.057 . S
Co1 O32 2.037 . S
Co1 N36 2.145 . S
Co1 N57 2.257 . S
O2 Co0 2.143 . S
O2 Co1 2.160 . S
C3 O4 1.278 . S
C3 O11 1.224 . S
O4 C3 1.278 . S
C5 O6 1.245 . S
C5 O17 1.232 . S
O6 C5 1.245 . S
O7 Co1 2.058 . S
O7 C33 1.269 . S
O8 Co0 2.074 . S
O8 C33 1.257 . S
H9 C34 0.930 . S
H10 C40 0.930 . S
O11 Co0 2.093 . S
O11 C3 1.224 . S
H12 C44 0.929 . S
H13 C46 0.930 . S
H14 C47 0.930 . S
H15 C45 0.929 . S
H16 C48 0.928 . S
O17 Co1 2.057 . S
O17 C5 1.232 . S
H18 C37 0.929 . S
H19 C38 0.929 . S
H20 C50 0.931 . S
H21 C42 0.929 . S
H22 C51 0.930 . S
H23 C43 0.931 . S
O24 Co0 2.097 . S
O24 C52 1.214 . S
H25 C53 0.929 . S
H26 C54 0.929 . S
H27 C55 0.930 . S
H28 C56 0.929 . S
H29 C58 0.930 . S
H30 C35 0.930 . S
H31 C39 0.930 . S
O32 Co1 2.037 . S
O32 C52 1.234 . S
C33 O7 1.269 . S
C33 O8 1.257 . S
C34 H9 0.930 . S
C34 C37 1.388 . S
C34 C39 1.418 . S
C35 H30 0.930 . S
C35 C38 1.404 . S
C35 C39 1.353 . S
N36 Co1 2.145 . S
N36 C37 1.397 . S
N36 C38 1.334 . S
C37 H18 0.929 . S
C37 C34 1.388 . S
C37 N36 1.397 . S
C38 H19 0.929 . S
C38 C35 1.404 . S
C38 N36 1.334 . S
C39 H31 0.930 . S
C39 C34 1.418 . S
C39 C35 1.353 . S
C40 H10 0.930 . S
C40 N41 1.330 . S
C40 C42 1.446 . S
N41 Co0 2.151 . S
N41 C40 1.330 . S
N41 C45 1.418 . S
C42 H21 0.929 . S
C42 C40 1.446 . S
C42 C43 1.332 . S
C43 H23 0.931 . S
C43 C42 1.332 . S
C43 C44 1.267 . S
C44 H12 0.929 . S
C44 C43 1.267 . S
C44 C45 1.251 . S
C45 H15 0.929 . S
C45 N41 1.418 . S
C45 C44 1.251 . S
C46 H13 0.930 . S
C46 C48 1.406 . S
C46 C51 1.261 . S
C47 H14 0.930 . S
C47 N49 1.325 . S
C47 C50 1.357 . S
C48 H16 0.928 . S
C48 C46 1.406 . S
C48 N49 1.261 . S
N49 Co0 2.214 . S
N49 C47 1.325 . S
N49 C48 1.261 . S
C50 H20 0.931 . S
C50 C47 1.357 . S
C50 C51 1.312 . S
C51 H22 0.930 . S
C51 C46 1.261 . S
C51 C50 1.312 . S
C52 O24 1.214 . S
C52 O32 1.234 . S
C53 H25 0.929 . S
C53 C56 1.391 . S
C53 C58 1.391 . S
C54 H26 0.929 . S
C54 C55 1.390 . S
C54 N57 1.391 . S
C55 H27 0.930 . S
C55 C54 1.390 . S
C55 C56 1.392 . S
C56 H28 0.929 . S
C56 C53 1.391 . S
C56 C55 1.392 . S
N57 Co1 2.257 . S
N57 C54 1.391 . S
N57 C58 1.388 . S
C58 H29 0.930 . S
C58 C53 1.391 . S
C58 N57 1.388 . S
Co59 O61 2.143 . S
Co59 O67 2.074 . S
Co59 O70 2.093 . S
Co59 O83 2.097 . S
Co59 N100 2.151 . S
Co59 N108 2.214 . S
Co60 O61 2.160 . S
Co60 O66 2.058 . S
Co60 O76 2.057 . S
Co60 O91 2.037 . S
Co60 N95 2.145 . S
Co60 N116 2.257 . S
O61 Co59 2.143 . S
O61 Co60 2.160 . S
C62 O63 1.278 . S
C62 O70 1.224 . S
O63 C62 1.278 . S
C64 O65 1.245 . S
C64 O76 1.232 . S
O65 C64 1.245 . S
O66 Co60 2.058 . S
O66 C92 1.269 . S
O67 Co59 2.074 . S
O67 C92 1.257 . S
H68 C93 0.930 . S
H69 C99 0.930 . S
O70 Co59 2.093 . S
O70 C62 1.224 . S
H71 C103 0.929 . S
H72 C105 0.930 . S
H73 C106 0.930 . S
H74 C104 0.929 . S
H75 C107 0.928 . S
O76 Co60 2.057 . S
O76 C64 1.232 . S
H77 C96 0.929 . S
H78 C97 0.929 . S
H79 C109 0.931 . S
H80 C101 0.929 . S
H81 C110 0.930 . S
H82 C102 0.931 . S
O83 Co59 2.097 . S
O83 C111 1.214 . S
H84 C112 0.929 . S
H85 C113 0.929 . S
H86 C114 0.930 . S
H87 C115 0.929 . S
H88 C117 0.930 . S
H89 C94 0.930 . S
H90 C98 0.930 . S
O91 Co60 2.037 . S
O91 C111 1.234 . S
C92 O66 1.269 . S
C92 O67 1.257 . S
C93 H68 0.930 . S
C93 C96 1.388 . S
C93 C98 1.418 . S
C94 H89 0.930 . S
C94 C97 1.404 . S
C94 C98 1.353 . S
N95 Co60 2.145 . S
N95 C96 1.397 . S
N95 C97 1.334 . S
C96 H77 0.929 . S
C96 C93 1.388 . S
C96 N95 1.397 . S
C97 H78 0.929 . S
C97 C94 1.404 . S
C97 N95 1.334 . S
C98 H90 0.930 . S
C98 C93 1.418 . S
C98 C94 1.353 . S
C99 H69 0.930 . S
C99 N100 1.330 . S
C99 C101 1.446 . S
N100 Co59 2.151 . S
N100 C99 1.330 . S
N100 C104 1.418 . S
C101 H80 0.929 . S
C101 C99 1.446 . S
C101 C102 1.332 . S
C102 H82 0.931 . S
C102 C101 1.332 . S
C102 C103 1.267 . S
C103 H71 0.929 . S
C103 C102 1.267 . S
C103 C104 1.251 . S
C104 H74 0.929 . S
C104 N100 1.418 . S
C104 C103 1.251 . S
C105 H72 0.930 . S
C105 C107 1.406 . S
C105 C110 1.261 . S
C106 H73 0.930 . S
C106 N108 1.325 . S
C106 C109 1.357 . S
C107 H75 0.928 . S
C107 C105 1.406 . S
C107 N108 1.261 . S
N108 Co59 2.214 . S
N108 C106 1.325 . S
N108 C107 1.261 . S
C109 H79 0.931 . S
C109 C106 1.357 . S
C109 C110 1.312 . S
C110 H81 0.930 . S
C110 C105 1.261 . S
C110 C109 1.312 . S
C111 O83 1.214 . S
C111 O91 1.234 . S
C112 H84 0.929 . S
C112 C115 1.391 . S
C112 C117 1.391 . S
C113 H85 0.929 . S
C113 C114 1.390 . S
C113 N116 1.391 . S
C114 H86 0.930 . S
C114 C113 1.390 . S
C114 C115 1.392 . S
C115 H87 0.929 . S
C115 C112 1.391 . S
C115 C114 1.392 . S
N116 Co60 2.257 . S
N116 C113 1.391 . S
N116 C117 1.388 . S
C117 H88 0.930 . S
C117 C112 1.391 . S
C117 N116 1.388 . S
Co118 O120 2.143 . S
Co118 O126 2.074 . S
Co118 O129 2.093 . S
Co118 O142 2.097 . S
Co118 N159 2.151 . S
Co118 N167 2.214 . S
Co119 O120 2.160 . S
Co119 O125 2.058 . S
Co119 O135 2.057 . S
Co119 O150 2.037 . S
Co119 N154 2.145 . S
Co119 N175 2.257 . S
O120 Co118 2.143 . S
O120 Co119 2.160 . S
C121 O122 1.278 . S
C121 O129 1.224 . S
O122 C121 1.278 . S
C123 O124 1.245 . S
C123 O135 1.232 . S
O124 C123 1.245 . S
O125 Co119 2.058 . S
O125 C151 1.269 . S
O126 Co118 2.074 . S
O126 C151 1.257 . S
H127 C152 0.930 . S
H128 C158 0.930 . S
O129 Co118 2.093 . S
O129 C121 1.224 . S
H130 C162 0.929 . S
H131 C164 0.930 . S
H132 C165 0.930 . S
H133 C163 0.929 . S
H134 C166 0.928 . S
O135 Co119 2.057 . S
O135 C123 1.232 . S
H136 C155 0.929 . S
H137 C156 0.929 . S
H138 C168 0.931 . S
H139 C160 0.929 . S
H140 C169 0.930 . S
H141 C161 0.931 . S
O142 Co118 2.097 . S
O142 C170 1.214 . S
H143 C171 0.929 . S
H144 C172 0.929 . S
H145 C173 0.930 . S
H146 C174 0.929 . S
H147 C176 0.930 . S
H148 C153 0.930 . S
H149 C157 0.930 . S
O150 Co119 2.037 . S
O150 C170 1.234 . S
C151 O125 1.269 . S
C151 O126 1.257 . S
C152 H127 0.930 . S
C152 C155 1.388 . S
C152 C157 1.418 . S
C153 H148 0.930 . S
C153 C156 1.404 . S
C153 C157 1.353 . S
N154 Co119 2.145 . S
N154 C155 1.397 . S
N154 C156 1.334 . S
C155 H136 0.929 . S
C155 C152 1.388 . S
C155 N154 1.397 . S
C156 H137 0.929 . S
C156 C153 1.404 . S
C156 N154 1.334 . S
C157 H149 0.930 . S
C157 C152 1.418 . S
C157 C153 1.353 . S
C158 H128 0.930 . S
C158 N159 1.330 . S
C158 C160 1.446 . S
N159 Co118 2.151 . S
N159 C158 1.330 . S
N159 C163 1.418 . S
C160 H139 0.929 . S
C160 C158 1.446 . S
C160 C161 1.332 . S
C161 H141 0.931 . S
C161 C160 1.332 . S
C161 C162 1.267 . S
C162 H130 0.929 . S
C162 C161 1.267 . S
C162 C163 1.251 . S
C163 H133 0.929 . S
C163 N159 1.418 . S
C163 C162 1.251 . S
C164 H131 0.930 . S
C164 C166 1.406 . S
C164 C169 1.261 . S
C165 H132 0.930 . S
C165 N167 1.325 . S
C165 C168 1.357 . S
C166 H134 0.928 . S
C166 C164 1.406 . S
C166 N167 1.261 . S
N167 Co118 2.214 . S
N167 C165 1.325 . S
N167 C166 1.261 . S
C168 H138 0.931 . S
C168 C165 1.357 . S
C168 C169 1.312 . S
C169 H140 0.930 . S
C169 C164 1.261 . S
C169 C168 1.312 . S
C170 O142 1.214 . S
C170 O150 1.234 . S
C171 H143 0.929 . S
C171 C174 1.391 . S
C171 C176 1.391 . S
C172 H144 0.929 . S
C172 C173 1.390 . S
C172 N175 1.391 . S
C173 H145 0.930 . S
C173 C172 1.390 . S
C173 C174 1.392 . S
C174 H146 0.929 . S
C174 C171 1.391 . S
C174 C173 1.392 . S
N175 Co119 2.257 . S
N175 C172 1.391 . S
N175 C176 1.388 . S
C176 H147 0.930 . S
C176 C171 1.391 . S
C176 N175 1.388 . S
Co177 O179 2.143 . S
Co177 O185 2.074 . S
Co177 O188 2.093 . S
Co177 O201 2.097 . S
Co177 N218 2.151 . S
Co177 N226 2.214 . S
Co178 O179 2.160 . S
Co178 O184 2.058 . S
Co178 O194 2.057 . S
Co178 O209 2.037 . S
Co178 N213 2.145 . S
Co178 N234 2.257 . S
O179 Co177 2.143 . S
O179 Co178 2.160 . S
C180 O181 1.278 . S
C180 O188 1.224 . S
O181 C180 1.278 . S
C182 O183 1.245 . S
C182 O194 1.232 . S
O183 C182 1.245 . S
O184 Co178 2.058 . S
O184 C210 1.269 . S
O185 Co177 2.074 . S
O185 C210 1.257 . S
H186 C211 0.930 . S
H187 C217 0.930 . S
O188 Co177 2.093 . S
O188 C180 1.224 . S
H189 C221 0.929 . S
H190 C223 0.930 . S
H191 C224 0.930 . S
H192 C222 0.929 . S
H193 C225 0.928 . S
O194 Co178 2.057 . S
O194 C182 1.232 . S
H195 C214 0.929 . S
H196 C215 0.929 . S
H197 C227 0.931 . S
H198 C219 0.929 . S
H199 C228 0.930 . S
H200 C220 0.931 . S
O201 Co177 2.097 . S
O201 C229 1.214 . S
H202 C230 0.929 . S
H203 C231 0.929 . S
H204 C232 0.930 . S
H205 C233 0.929 . S
H206 C235 0.930 . S
H207 C212 0.930 . S
H208 C216 0.930 . S
O209 Co178 2.037 . S
O209 C229 1.234 . S
C210 O184 1.269 . S
C210 O185 1.257 . S
C211 H186 0.930 . S
C211 C214 1.388 . S
C211 C216 1.418 . S
C212 H207 0.930 . S
C212 C215 1.404 . S
C212 C216 1.353 . S
N213 Co178 2.145 . S
N213 C214 1.397 . S
N213 C215 1.334 . S
C214 H195 0.929 . S
C214 C211 1.388 . S
C214 N213 1.397 . S
C215 H196 0.929 . S
C215 C212 1.404 . S
C215 N213 1.334 . S
C216 H208 0.930 . S
C216 C211 1.418 . S
C216 C212 1.353 . S
C217 H187 0.930 . S
C217 N218 1.330 . S
C217 C219 1.446 . S
N218 Co177 2.151 . S
N218 C217 1.330 . S
N218 C222 1.418 . S
C219 H198 0.929 . S
C219 C217 1.446 . S
C219 C220 1.332 . S
C220 H200 0.931 . S
C220 C219 1.332 . S
C220 C221 1.267 . S
C221 H189 0.929 . S
C221 C220 1.267 . S
C221 C222 1.251 . S
C222 H192 0.929 . S
C222 N218 1.418 . S
C222 C221 1.251 . S
C223 H190 0.930 . S
C223 C225 1.406 . S
C223 C228 1.261 . S
C224 H191 0.930 . S
C224 N226 1.325 . S
C224 C227 1.357 . S
C225 H193 0.928 . S
C225 C223 1.406 . S
C225 N226 1.261 . S
N226 Co177 2.214 . S
N226 C224 1.325 . S
N226 C225 1.261 . S
C227 H197 0.931 . S
C227 C224 1.357 . S
C227 C228 1.312 . S
C228 H199 0.930 . S
C228 C223 1.261 . S
C228 C227 1.312 . S
C229 O201 1.214 . S
C229 O209 1.234 . S
C230 H202 0.929 . S
C230 C233 1.391 . S
C230 C235 1.391 . S
C231 H203 0.929 . S
C231 C232 1.390 . S
C231 N234 1.391 . S
C232 H204 0.930 . S
C232 C231 1.390 . S
C232 C233 1.392 . S
C233 H205 0.929 . S
C233 C230 1.391 . S
C233 C232 1.392 . S
N234 Co178 2.257 . S
N234 C231 1.391 . S
N234 C235 1.388 . S
C235 H206 0.930 . S
C235 C230 1.391 . S
C235 N234 1.388 . S
Co236 O238 2.143 . S
Co236 O244 2.074 . S
Co236 O247 2.093 . S
Co236 O260 2.097 . S
Co236 N277 2.151 . S
Co236 N285 2.214 . S
Co237 O238 2.160 . S
Co237 O243 2.058 . S
Co237 O253 2.057 . S
Co237 O268 2.037 . S
Co237 N272 2.145 . S
Co237 N293 2.257 . S
O238 Co236 2.143 . S
O238 Co237 2.160 . S
C239 O240 1.278 . S
C239 O247 1.224 . S
O240 C239 1.278 . S
C241 O242 1.245 . S
C241 O253 1.232 . S
O242 C241 1.245 . S
O243 Co237 2.058 . S
O243 C269 1.269 . S
O244 Co236 2.074 . S
O244 C269 1.257 . S
H245 C270 0.930 . S
H246 C276 0.930 . S
O247 Co236 2.093 . S
O247 C239 1.224 . S
H248 C280 0.929 . S
H249 C282 0.930 . S
H250 C283 0.930 . S
H251 C281 0.929 . S
H252 C284 0.928 . S
O253 Co237 2.057 . S
O253 C241 1.232 . S
H254 C273 0.929 . S
H255 C274 0.929 . S
H256 C286 0.931 . S
H257 C278 0.929 . S
H258 C287 0.930 . S
H259 C279 0.931 . S
O260 Co236 2.097 . S
O260 C288 1.214 . S
H261 C289 0.929 . S
H262 C290 0.929 . S
H263 C291 0.930 . S
H264 C292 0.929 . S
H265 C294 0.930 . S
H266 C271 0.930 . S
H267 C275 0.930 . S
O268 Co237 2.037 . S
O268 C288 1.234 . S
C269 O243 1.269 . S
C269 O244 1.257 . S
C270 H245 0.930 . S
C270 C273 1.388 . S
C270 C275 1.418 . S
C271 H266 0.930 . S
C271 C274 1.404 . S
C271 C275 1.353 . S
N272 Co237 2.145 . S
N272 C273 1.397 . S
N272 C274 1.334 . S
C273 H254 0.929 . S
C273 C270 1.388 . S
C273 N272 1.397 . S
C274 H255 0.929 . S
C274 C271 1.404 . S
C274 N272 1.334 . S
C275 H267 0.930 . S
C275 C270 1.418 . S
C275 C271 1.353 . S
C276 H246 0.930 . S
C276 N277 1.330 . S
C276 C278 1.446 . S
N277 Co236 2.151 . S
N277 C276 1.330 . S
N277 C281 1.418 . S
C278 H257 0.929 . S
C278 C276 1.446 . S
C278 C279 1.332 . S
C279 H259 0.931 . S
C279 C278 1.332 . S
C279 C280 1.267 . S
C280 H248 0.929 . S
C280 C279 1.267 . S
C280 C281 1.251 . S
C281 H251 0.929 . S
C281 N277 1.418 . S
C281 C280 1.251 . S
C282 H249 0.930 . S
C282 C284 1.406 . S
C282 C287 1.261 . S
C283 H250 0.930 . S
C283 N285 1.325 . S
C283 C286 1.357 . S
C284 H252 0.928 . S
C284 C282 1.406 . S
C284 N285 1.261 . S
N285 Co236 2.214 . S
N285 C283 1.325 . S
N285 C284 1.261 . S
C286 H256 0.931 . S
C286 C283 1.357 . S
C286 C287 1.312 . S
C287 H258 0.930 . S
C287 C282 1.261 . S
C287 C286 1.312 . S
C288 O260 1.214 . S
C288 O268 1.234 . S
C289 H261 0.929 . S
C289 C292 1.391 . S
C289 C294 1.391 . S
C290 H262 0.929 . S
C290 C291 1.390 . S
C290 N293 1.391 . S
C291 H263 0.930 . S
C291 C290 1.390 . S
C291 C292 1.392 . S
C292 H264 0.929 . S
C292 C289 1.391 . S
C292 C291 1.392 . S
N293 Co237 2.257 . S
N293 C290 1.391 . S
N293 C294 1.388 . S
C294 H265 0.930 . S
C294 C289 1.391 . S
C294 N293 1.388 . S
Co295 O297 2.143 . S
Co295 O303 2.074 . S
Co295 O306 2.093 . S
Co295 O319 2.097 . S
Co295 N336 2.151 . S
Co295 N344 2.214 . S
Co296 O297 2.160 . S
Co296 O302 2.058 . S
Co296 O312 2.057 . S
Co296 O327 2.037 . S
Co296 N331 2.145 . S
Co296 N352 2.257 . S
O297 Co295 2.143 . S
O297 Co296 2.160 . S
C298 O299 1.278 . S
C298 O306 1.224 . S
O299 C298 1.278 . S
C300 O301 1.245 . S
C300 O312 1.232 . S
O301 C300 1.245 . S
O302 Co296 2.058 . S
O302 C328 1.269 . S
O303 Co295 2.074 . S
O303 C328 1.257 . S
H304 C329 0.930 . S
H305 C335 0.930 . S
O306 Co295 2.093 . S
O306 C298 1.224 . S
H307 C339 0.929 . S
H308 C341 0.930 . S
H309 C342 0.930 . S
H310 C340 0.929 . S
H311 C343 0.928 . S
O312 Co296 2.057 . S
O312 C300 1.232 . S
H313 C332 0.929 . S
H314 C333 0.929 . S
H315 C345 0.931 . S
H316 C337 0.929 . S
H317 C346 0.930 . S
H318 C338 0.931 . S
O319 Co295 2.097 . S
O319 C347 1.214 . S
H320 C348 0.929 . S
H321 C349 0.929 . S
H322 C350 0.930 . S
H323 C351 0.929 . S
H324 C353 0.930 . S
H325 C330 0.930 . S
H326 C334 0.930 . S
O327 Co296 2.037 . S
O327 C347 1.234 . S
C328 O302 1.269 . S
C328 O303 1.257 . S
C329 H304 0.930 . S
C329 C332 1.388 . S
C329 C334 1.418 . S
C330 H325 0.930 . S
C330 C333 1.404 . S
C330 C334 1.353 . S
N331 Co296 2.145 . S
N331 C332 1.397 . S
N331 C333 1.334 . S
C332 H313 0.929 . S
C332 C329 1.388 . S
C332 N331 1.397 . S
C333 H314 0.929 . S
C333 C330 1.404 . S
C333 N331 1.334 . S
C334 H326 0.930 . S
C334 C329 1.418 . S
C334 C330 1.353 . S
C335 H305 0.930 . S
C335 N336 1.330 . S
C335 C337 1.446 . S
N336 Co295 2.151 . S
N336 C335 1.330 . S
N336 C340 1.418 . S
C337 H316 0.929 . S
C337 C335 1.446 . S
C337 C338 1.332 . S
C338 H318 0.931 . S
C338 C337 1.332 . S
C338 C339 1.267 . S
C339 H307 0.929 . S
C339 C338 1.267 . S
C339 C340 1.251 . S
C340 H310 0.929 . S
C340 N336 1.418 . S
C340 C339 1.251 . S
C341 H308 0.930 . S
C341 C343 1.406 . S
C341 C346 1.261 . S
C342 H309 0.930 . S
C342 N344 1.325 . S
C342 C345 1.357 . S
C343 H311 0.928 . S
C343 C341 1.406 . S
C343 N344 1.261 . S
N344 Co295 2.214 . S
N344 C342 1.325 . S
N344 C343 1.261 . S
C345 H315 0.931 . S
C345 C342 1.357 . S
C345 C346 1.312 . S
C346 H317 0.930 . S
C346 C341 1.261 . S
C346 C345 1.312 . S
C347 O319 1.214 . S
C347 O327 1.234 . S
C348 H320 0.929 . S
C348 C351 1.391 . S
C348 C353 1.391 . S
C349 H321 0.929 . S
C349 C350 1.390 . S
C349 N352 1.391 . S
C350 H322 0.930 . S
C350 C349 1.390 . S
C350 C351 1.392 . S
C351 H323 0.929 . S
C351 C348 1.391 . S
C351 C350 1.392 . S
N352 Co296 2.257 . S
N352 C349 1.391 . S
N352 C353 1.388 . S
C353 H324 0.930 . S
C353 C348 1.391 . S
C353 N352 1.388 . S
Co354 O356 2.143 . S
Co354 O362 2.074 . S
Co354 O365 2.093 . S
Co354 O378 2.097 . S
Co354 N395 2.151 . S
Co354 N403 2.214 . S
Co355 O356 2.160 . S
Co355 O361 2.058 . S
Co355 O371 2.057 . S
Co355 O386 2.037 . S
Co355 N390 2.145 . S
Co355 N411 2.257 . S
O356 Co354 2.143 . S
O356 Co355 2.160 . S
C357 O358 1.278 . S
C357 O365 1.224 . S
O358 C357 1.278 . S
C359 O360 1.245 . S
C359 O371 1.232 . S
O360 C359 1.245 . S
O361 Co355 2.058 . S
O361 C387 1.269 . S
O362 Co354 2.074 . S
O362 C387 1.257 . S
H363 C388 0.930 . S
H364 C394 0.930 . S
O365 Co354 2.093 . S
O365 C357 1.224 . S
H366 C398 0.929 . S
H367 C400 0.930 . S
H368 C401 0.930 . S
H369 C399 0.929 . S
H370 C402 0.928 . S
O371 Co355 2.057 . S
O371 C359 1.232 . S
H372 C391 0.929 . S
H373 C392 0.929 . S
H374 C404 0.931 . S
H375 C396 0.929 . S
H376 C405 0.930 . S
H377 C397 0.931 . S
O378 Co354 2.097 . S
O378 C406 1.214 . S
H379 C407 0.929 . S
H380 C408 0.929 . S
H381 C409 0.930 . S
H382 C410 0.929 . S
H383 C412 0.930 . S
H384 C389 0.930 . S
H385 C393 0.930 . S
O386 Co355 2.037 . S
O386 C406 1.234 . S
C387 O361 1.269 . S
C387 O362 1.257 . S
C388 H363 0.930 . S
C388 C391 1.388 . S
C388 C393 1.418 . S
C389 H384 0.930 . S
C389 C392 1.404 . S
C389 C393 1.353 . S
N390 Co355 2.145 . S
N390 C391 1.397 . S
N390 C392 1.334 . S
C391 H372 0.929 . S
C391 C388 1.388 . S
C391 N390 1.397 . S
C392 H373 0.929 . S
C392 C389 1.404 . S
C392 N390 1.334 . S
C393 H385 0.930 . S
C393 C388 1.418 . S
C393 C389 1.353 . S
C394 H364 0.930 . S
C394 N395 1.330 . S
C394 C396 1.446 . S
N395 Co354 2.151 . S
N395 C394 1.330 . S
N395 C399 1.418 . S
C396 H375 0.929 . S
C396 C394 1.446 . S
C396 C397 1.332 . S
C397 H377 0.931 . S
C397 C396 1.332 . S
C397 C398 1.267 . S
C398 H366 0.929 . S
C398 C397 1.267 . S
C398 C399 1.251 . S
C399 H369 0.929 . S
C399 N395 1.418 . S
C399 C398 1.251 . S
C400 H367 0.930 . S
C400 C402 1.406 . S
C400 C405 1.261 . S
C401 H368 0.930 . S
C401 N403 1.325 . S
C401 C404 1.357 . S
C402 H370 0.928 . S
C402 C400 1.406 . S
C402 N403 1.261 . S
N403 Co354 2.214 . S
N403 C401 1.325 . S
N403 C402 1.261 . S
C404 H374 0.931 . S
C404 C401 1.357 . S
C404 C405 1.312 . S
C405 H376 0.930 . S
C405 C400 1.261 . S
C405 C404 1.312 . S
C406 O378 1.214 . S
C406 O386 1.234 . S
C407 H379 0.929 . S
C407 C410 1.391 . S
C407 C412 1.391 . S
C408 H380 0.929 . S
C408 C409 1.390 . S
C408 N411 1.391 . S
C409 H381 0.930 . S
C409 C408 1.390 . S
C409 C410 1.392 . S
C410 H382 0.929 . S
C410 C407 1.391 . S
C410 C409 1.392 . S
N411 Co355 2.257 . S
N411 C408 1.391 . S
N411 C412 1.388 . S
C412 H383 0.930 . S
C412 C407 1.391 . S
C412 N411 1.388 . S
Co413 O415 2.143 . S
Co413 O421 2.074 . S
Co413 O424 2.093 . S
Co413 O437 2.097 . S
Co413 N454 2.151 . S
Co413 N462 2.214 . S
Co414 O415 2.160 . S
Co414 O420 2.058 . S
Co414 O430 2.057 . S
Co414 O445 2.037 . S
Co414 N449 2.145 . S
Co414 N470 2.257 . S
O415 Co413 2.143 . S
O415 Co414 2.160 . S
C416 O417 1.278 . S
C416 O424 1.224 . S
O417 C416 1.278 . S
C418 O419 1.245 . S
C418 O430 1.232 . S
O419 C418 1.245 . S
O420 Co414 2.058 . S
O420 C446 1.269 . S
O421 Co413 2.074 . S
O421 C446 1.257 . S
H422 C447 0.930 . S
H423 C453 0.930 . S
O424 Co413 2.093 . S
O424 C416 1.224 . S
H425 C457 0.929 . S
H426 C459 0.930 . S
H427 C460 0.930 . S
H428 C458 0.929 . S
H429 C461 0.928 . S
O430 Co414 2.057 . S
O430 C418 1.232 . S
H431 C450 0.929 . S
H432 C451 0.929 . S
H433 C463 0.931 . S
H434 C455 0.929 . S
H435 C464 0.930 . S
H436 C456 0.931 . S
O437 Co413 2.097 . S
O437 C465 1.214 . S
H438 C466 0.929 . S
H439 C467 0.929 . S
H440 C468 0.930 . S
H441 C469 0.929 . S
H442 C471 0.930 . S
H443 C448 0.930 . S
H444 C452 0.930 . S
O445 Co414 2.037 . S
O445 C465 1.234 . S
C446 O420 1.269 . S
C446 O421 1.257 . S
C447 H422 0.930 . S
C447 C450 1.388 . S
C447 C452 1.418 . S
C448 H443 0.930 . S
C448 C451 1.404 . S
C448 C452 1.353 . S
N449 Co414 2.145 . S
N449 C450 1.397 . S
N449 C451 1.334 . S
C450 H431 0.929 . S
C450 C447 1.388 . S
C450 N449 1.397 . S
C451 H432 0.929 . S
C451 C448 1.404 . S
C451 N449 1.334 . S
C452 H444 0.930 . S
C452 C447 1.418 . S
C452 C448 1.353 . S
C453 H423 0.930 . S
C453 N454 1.330 . S
C453 C455 1.446 . S
N454 Co413 2.151 . S
N454 C453 1.330 . S
N454 C458 1.418 . S
C455 H434 0.929 . S
C455 C453 1.446 . S
C455 C456 1.332 . S
C456 H436 0.931 . S
C456 C455 1.332 . S
C456 C457 1.267 . S
C457 H425 0.929 . S
C457 C456 1.267 . S
C457 C458 1.251 . S
C458 H428 0.929 . S
C458 N454 1.418 . S
C458 C457 1.251 . S
C459 H426 0.930 . S
C459 C461 1.406 . S
C459 C464 1.261 . S
C460 H427 0.930 . S
C460 N462 1.325 . S
C460 C463 1.357 . S
C461 H429 0.928 . S
C461 C459 1.406 . S
C461 N462 1.261 . S
N462 Co413 2.214 . S
N462 C460 1.325 . S
N462 C461 1.261 . S
C463 H433 0.931 . S
C463 C460 1.357 . S
C463 C464 1.312 . S
C464 H435 0.930 . S
C464 C459 1.261 . S
C464 C463 1.312 . S
C465 O437 1.214 . S
C465 O445 1.234 . S
C466 H438 0.929 . S
C466 C469 1.391 . S
C466 C471 1.391 . S
C467 H439 0.929 . S
C467 C468 1.390 . S
C467 N470 1.391 . S
C468 H440 0.930 . S
C468 C467 1.390 . S
C468 C469 1.392 . S
C469 H441 0.929 . S
C469 C466 1.391 . S
C469 C468 1.392 . S
N470 Co414 2.257 . S
N470 C467 1.391 . S
N470 C471 1.388 . S
C471 H442 0.930 . S
C471 C466 1.391 . S
C471 N470 1.388 . S
Co472 O474 2.143 . S
Co472 O480 2.074 . S
Co472 O483 2.093 . S
Co472 O496 2.097 . S
Co472 N513 2.151 . S
Co472 N521 2.214 . S
Co473 O474 2.160 . S
Co473 O479 2.058 . S
Co473 O489 2.057 . S
Co473 O504 2.037 . S
Co473 N508 2.145 . S
Co473 N529 2.257 . S
O474 Co472 2.143 . S
O474 Co473 2.160 . S
C475 O476 1.278 . S
C475 O483 1.224 . S
O476 C475 1.278 . S
C477 O478 1.245 . S
C477 O489 1.232 . S
O478 C477 1.245 . S
O479 Co473 2.058 . S
O479 C505 1.269 . S
O480 Co472 2.074 . S
O480 C505 1.257 . S
H481 C506 0.930 . S
H482 C512 0.930 . S
O483 Co472 2.093 . S
O483 C475 1.224 . S
H484 C516 0.929 . S
H485 C518 0.930 . S
H486 C519 0.930 . S
H487 C517 0.929 . S
H488 C520 0.928 . S
O489 Co473 2.057 . S
O489 C477 1.232 . S
H490 C509 0.929 . S
H491 C510 0.929 . S
H492 C522 0.931 . S
H493 C514 0.929 . S
H494 C523 0.930 . S
H495 C515 0.931 . S
O496 Co472 2.097 . S
O496 C524 1.214 . S
H497 C525 0.929 . S
H498 C526 0.929 . S
H499 C527 0.930 . S
H500 C528 0.929 . S
H501 C530 0.930 . S
H502 C507 0.930 . S
H503 C511 0.930 . S
O504 Co473 2.037 . S
O504 C524 1.234 . S
C505 O479 1.269 . S
C505 O480 1.257 . S
C506 H481 0.930 . S
C506 C509 1.388 . S
C506 C511 1.418 . S
C507 H502 0.930 . S
C507 C510 1.404 . S
C507 C511 1.353 . S
N508 Co473 2.145 . S
N508 C509 1.397 . S
N508 C510 1.334 . S
C509 H490 0.929 . S
C509 C506 1.388 . S
C509 N508 1.397 . S
C510 H491 0.929 . S
C510 C507 1.404 . S
C510 N508 1.334 . S
C511 H503 0.930 . S
C511 C506 1.418 . S
C511 C507 1.353 . S
C512 H482 0.930 . S
C512 N513 1.330 . S
C512 C514 1.446 . S
N513 Co472 2.151 . S
N513 C512 1.330 . S
N513 C517 1.418 . S
C514 H493 0.929 . S
C514 C512 1.446 . S
C514 C515 1.332 . S
C515 H495 0.931 . S
C515 C514 1.332 . S
C515 C516 1.267 . S
C516 H484 0.929 . S
C516 C515 1.267 . S
C516 C517 1.251 . S
C517 H487 0.929 . S
C517 N513 1.418 . S
C517 C516 1.251 . S
C518 H485 0.930 . S
C518 C520 1.406 . S
C518 C523 1.261 . S
C519 H486 0.930 . S
C519 N521 1.325 . S
C519 C522 1.357 . S
C520 H488 0.928 . S
C520 C518 1.406 . S
C520 N521 1.261 . S
N521 Co472 2.214 . S
N521 C519 1.325 . S
N521 C520 1.261 . S
C522 H492 0.931 . S
C522 C519 1.357 . S
C522 C523 1.312 . S
C523 H494 0.930 . S
C523 C518 1.261 . S
C523 C522 1.312 . S
C524 O496 1.214 . S
C524 O504 1.234 . S
C525 H497 0.929 . S
C525 C528 1.391 1_565 S
C525 C530 1.391 . S
C526 H498 0.929 . S
C526 C527 1.390 1_565 S
C526 N529 1.391 . S
C527 H499 0.930 . S
C527 C526 1.390 1_545 S
C527 C528 1.392 . S
C528 H500 0.929 . S
C528 C525 1.391 1_545 S
C528 C527 1.392 . S
N529 Co473 2.257 . S
N529 C526 1.391 . S
N529 C530 1.388 . S
C530 H501 0.930 . S
C530 C525 1.391 . S
C530 N529 1.388 . S
Co531 O533 2.143 . S
Co531 O539 2.074 . S
Co531 O542 2.093 . S
Co531 O555 2.097 . S
Co531 N572 2.151 . S
Co531 N580 2.214 . S
Co532 O533 2.160 . S
Co532 O538 2.058 . S
Co532 O548 2.057 . S
Co532 O563 2.037 . S
Co532 N567 2.145 . S
Co532 N588 2.257 . S
O533 Co531 2.143 . S
O533 Co532 2.160 . S
C534 O535 1.278 . S
C534 O542 1.224 . S
O535 C534 1.278 . S
C536 O537 1.245 . S
C536 O548 1.232 . S
O537 C536 1.245 . S
O538 Co532 2.058 . S
O538 C564 1.269 . S
O539 Co531 2.074 . S
O539 C564 1.257 . S
H540 C565 0.930 . S
H541 C571 0.930 . S
O542 Co531 2.093 . S
O542 C534 1.224 . S
H543 C575 0.929 . S
H544 C577 0.930 . S
H545 C578 0.930 . S
H546 C576 0.929 . S
H547 C579 0.928 . S
O548 Co532 2.057 . S
O548 C536 1.232 . S
H549 C568 0.929 . S
H550 C569 0.929 . S
H551 C581 0.931 . S
H552 C573 0.929 . S
H553 C582 0.930 . S
H554 C574 0.931 . S
O555 Co531 2.097 . S
O555 C583 1.214 . S
H556 C584 0.929 . S
H557 C585 0.929 . S
H558 C586 0.930 . S
H559 C587 0.929 . S
H560 C589 0.930 . S
H561 C566 0.930 . S
H562 C570 0.930 . S
O563 Co532 2.037 . S
O563 C583 1.234 . S
C564 O538 1.269 . S
C564 O539 1.257 . S
C565 H540 0.930 . S
C565 C568 1.388 . S
C565 C570 1.418 . S
C566 H561 0.930 . S
C566 C569 1.404 . S
C566 C570 1.353 . S
N567 Co532 2.145 . S
N567 C568 1.397 . S
N567 C569 1.334 . S
C568 H549 0.929 . S
C568 C565 1.388 . S
C568 N567 1.397 . S
C569 H550 0.929 . S
C569 C566 1.404 . S
C569 N567 1.334 . S
C570 H562 0.930 . S
C570 C565 1.418 . S
C570 C566 1.353 . S
C571 H541 0.930 . S
C571 N572 1.330 . S
C571 C573 1.446 . S
N572 Co531 2.151 . S
N572 C571 1.330 . S
N572 C576 1.418 . S
C573 H552 0.929 . S
C573 C571 1.446 . S
C573 C574 1.332 . S
C574 H554 0.931 . S
C574 C573 1.332 . S
C574 C575 1.267 . S
C575 H543 0.929 . S
C575 C574 1.267 . S
C575 C576 1.251 . S
C576 H546 0.929 . S
C576 N572 1.418 . S
C576 C575 1.251 . S
C577 H544 0.930 . S
C577 C579 1.406 . S
C577 C582 1.261 . S
C578 H545 0.930 . S
C578 N580 1.325 . S
C578 C581 1.357 . S
C579 H547 0.928 . S
C579 C577 1.406 . S
C579 N580 1.261 . S
N580 Co531 2.214 . S
N580 C578 1.325 . S
N580 C579 1.261 . S
C581 H551 0.931 . S
C581 C578 1.357 . S
C581 C582 1.312 . S
C582 H553 0.930 . S
C582 C577 1.261 . S
C582 C581 1.312 . S
C583 O555 1.214 . S
C583 O563 1.234 . S
C584 H556 0.929 . S
C584 C587 1.391 1_655 S
C584 C589 1.391 . S
C585 H557 0.929 . S
C585 C586 1.390 1_655 S
C585 N588 1.391 . S
C586 H558 0.930 . S
C586 C585 1.390 1_455 S
C586 C587 1.392 . S
C587 H559 0.929 . S
C587 C584 1.391 1_455 S
C587 C586 1.392 . S
N588 Co532 2.257 . S
N588 C585 1.391 . S
N588 C589 1.388 . S
C589 H560 0.930 . S
C589 C584 1.391 . S
C589 N588 1.388 . S
Co590 O592 2.143 . S
Co590 O598 2.074 . S
Co590 O601 2.093 . S
Co590 O614 2.097 . S
Co590 N631 2.151 . S
Co590 N639 2.214 . S
Co591 O592 2.160 . S
Co591 O597 2.058 . S
Co591 O607 2.057 . S
Co591 O622 2.037 . S
Co591 N626 2.145 . S
Co591 N647 2.257 . S
O592 Co590 2.143 . S
O592 Co591 2.160 . S
C593 O594 1.278 . S
C593 O601 1.224 . S
O594 C593 1.278 . S
C595 O596 1.245 . S
C595 O607 1.232 . S
O596 C595 1.245 . S
O597 Co591 2.058 . S
O597 C623 1.269 . S
O598 Co590 2.074 . S
O598 C623 1.257 . S
H599 C624 0.930 . S
H600 C630 0.930 . S
O601 Co590 2.093 . S
O601 C593 1.224 . S
H602 C634 0.929 . S
H603 C636 0.930 . S
H604 C637 0.930 . S
H605 C635 0.929 . S
H606 C638 0.928 . S
O607 Co591 2.057 . S
O607 C595 1.232 . S
H608 C627 0.929 . S
H609 C628 0.929 . S
H610 C640 0.931 . S
H611 C632 0.929 . S
H612 C641 0.930 . S
H613 C633 0.931 . S
O614 Co590 2.097 . S
O614 C642 1.214 . S
H615 C643 0.929 . S
H616 C644 0.929 . S
H617 C645 0.930 . S
H618 C646 0.929 . S
H619 C648 0.930 . S
H620 C625 0.930 . S
H621 C629 0.930 . S
O622 Co591 2.037 . S
O622 C642 1.234 . S
C623 O597 1.269 . S
C623 O598 1.257 . S
C624 H599 0.930 . S
C624 C627 1.388 . S
C624 C629 1.418 . S
C625 H620 0.930 . S
C625 C628 1.404 . S
C625 C629 1.353 . S
N626 Co591 2.145 . S
N626 C627 1.397 . S
N626 C628 1.334 . S
C627 H608 0.929 . S
C627 C624 1.388 . S
C627 N626 1.397 . S
C628 H609 0.929 . S
C628 C625 1.404 . S
C628 N626 1.334 . S
C629 H621 0.930 . S
C629 C624 1.418 . S
C629 C625 1.353 . S
C630 H600 0.930 . S
C630 N631 1.330 . S
C630 C632 1.446 . S
N631 Co590 2.151 . S
N631 C630 1.330 . S
N631 C635 1.418 . S
C632 H611 0.929 . S
C632 C630 1.446 . S
C632 C633 1.332 . S
C633 H613 0.931 . S
C633 C632 1.332 . S
C633 C634 1.267 . S
C634 H602 0.929 . S
C634 C633 1.267 . S
C634 C635 1.251 . S
C635 H605 0.929 . S
C635 N631 1.418 . S
C635 C634 1.251 . S
C636 H603 0.930 . S
C636 C638 1.406 . S
C636 C641 1.261 . S
C637 H604 0.930 . S
C637 N639 1.325 . S
C637 C640 1.357 . S
C638 H606 0.928 . S
C638 C636 1.406 . S
C638 N639 1.261 . S
N639 Co590 2.214 . S
N639 C637 1.325 . S
N639 C638 1.261 . S
C640 H610 0.931 . S
C640 C637 1.357 . S
C640 C641 1.312 . S
C641 H612 0.930 . S
C641 C636 1.261 . S
C641 C640 1.312 . S
C642 O614 1.214 . S
C642 O622 1.234 . S
C643 H615 0.929 . S
C643 C646 1.391 1_545 S
C643 C648 1.391 . S
C644 H616 0.929 . S
C644 C645 1.390 1_545 S
C644 N647 1.391 . S
C645 H617 0.930 . S
C645 C644 1.390 1_565 S
C645 C646 1.392 . S
C646 H618 0.929 . S
C646 C643 1.391 1_565 S
C646 C645 1.392 . S
N647 Co591 2.257 . S
N647 C644 1.391 . S
N647 C648 1.388 . S
C648 H619 0.930 . S
C648 C643 1.391 . S
C648 N647 1.388 . S
Co649 O651 2.143 . S
Co649 O657 2.074 . S
Co649 O660 2.093 . S
Co649 O673 2.097 . S
Co649 N690 2.151 . S
Co649 N698 2.214 . S
Co650 O651 2.160 . S
Co650 O656 2.058 . S
Co650 O666 2.057 . S
Co650 O681 2.037 . S
Co650 N685 2.145 . S
Co650 N706 2.257 . S
O651 Co649 2.143 . S
O651 Co650 2.160 . S
C652 O653 1.278 . S
C652 O660 1.224 . S
O653 C652 1.278 . S
C654 O655 1.245 . S
C654 O666 1.232 . S
O655 C654 1.245 . S
O656 Co650 2.058 . S
O656 C682 1.269 . S
O657 Co649 2.074 . S
O657 C682 1.257 . S
H658 C683 0.930 . S
H659 C689 0.930 . S
O660 Co649 2.093 . S
O660 C652 1.224 . S
H661 C693 0.929 . S
H662 C695 0.930 . S
H663 C696 0.930 . S
H664 C694 0.929 . S
H665 C697 0.928 . S
O666 Co650 2.057 . S
O666 C654 1.232 . S
H667 C686 0.929 . S
H668 C687 0.929 . S
H669 C699 0.931 . S
H670 C691 0.929 . S
H671 C700 0.930 . S
H672 C692 0.931 . S
O673 Co649 2.097 . S
O673 C701 1.214 . S
H674 C702 0.929 . S
H675 C703 0.929 . S
H676 C704 0.930 . S
H677 C705 0.929 . S
H678 C707 0.930 . S
H679 C684 0.930 . S
H680 C688 0.930 . S
O681 Co650 2.037 . S
O681 C701 1.234 . S
C682 O656 1.269 . S
C682 O657 1.257 . S
C683 H658 0.930 . S
C683 C686 1.388 . S
C683 C688 1.418 . S
C684 H679 0.930 . S
C684 C687 1.404 . S
C684 C688 1.353 . S
N685 Co650 2.145 . S
N685 C686 1.397 . S
N685 C687 1.334 . S
C686 H667 0.929 . S
C686 C683 1.388 . S
C686 N685 1.397 . S
C687 H668 0.929 . S
C687 C684 1.404 . S
C687 N685 1.334 . S
C688 H680 0.930 . S
C688 C683 1.418 . S
C688 C684 1.353 . S
C689 H659 0.930 . S
C689 N690 1.330 . S
C689 C691 1.446 . S
N690 Co649 2.151 . S
N690 C689 1.330 . S
N690 C694 1.418 . S
C691 H670 0.929 . S
C691 C689 1.446 . S
C691 C692 1.332 . S
C692 H672 0.931 . S
C692 C691 1.332 . S
C692 C693 1.267 . S
C693 H661 0.929 . S
C693 C692 1.267 . S
C693 C694 1.251 . S
C694 H664 0.929 . S
C694 N690 1.418 . S
C694 C693 1.251 . S
C695 H662 0.930 . S
C695 C697 1.406 . S
C695 C700 1.261 . S
C696 H663 0.930 . S
C696 N698 1.325 . S
C696 C699 1.357 . S
C697 H665 0.928 . S
C697 C695 1.406 . S
C697 N698 1.261 . S
N698 Co649 2.214 . S
N698 C696 1.325 . S
N698 C697 1.261 . S
C699 H669 0.931 . S
C699 C696 1.357 . S
C699 C700 1.312 . S
C700 H671 0.930 . S
C700 C695 1.261 . S
C700 C699 1.312 . S
C701 O673 1.214 . S
C701 O681 1.234 . S
C702 H674 0.929 . S
C702 C705 1.391 1_455 S
C702 C707 1.391 . S
C703 H675 0.929 . S
C703 C704 1.390 1_455 S
C703 N706 1.391 . S
C704 H676 0.930 . S
C704 C703 1.390 1_655 S
C704 C705 1.392 . S
C705 H677 0.929 . S
C705 C702 1.391 1_655 S
C705 C704 1.392 . S
N706 Co650 2.257 . S
N706 C703 1.391 . S
N706 C707 1.388 . S
C707 H678 0.930 . S
C707 C702 1.391 . S
C707 N706 1.388 . S
Co708 O710 2.143 . S
Co708 O716 2.074 . S
Co708 O719 2.093 . S
Co708 O732 2.097 . S
Co708 N749 2.151 . S
Co708 N757 2.214 . S
Co709 O710 2.160 . S
Co709 O715 2.058 . S
Co709 O725 2.057 . S
Co709 O740 2.037 . S
Co709 N744 2.145 . S
Co709 N765 2.257 . S
O710 Co708 2.143 . S
O710 Co709 2.160 . S
C711 O712 1.278 . S
C711 O719 1.224 . S
O712 C711 1.278 . S
C713 O714 1.245 . S
C713 O725 1.232 . S
O714 C713 1.245 . S
O715 Co709 2.058 . S
O715 C741 1.269 . S
O716 Co708 2.074 . S
O716 C741 1.257 . S
H717 C742 0.930 . S
H718 C748 0.930 . S
O719 Co708 2.093 . S
O719 C711 1.224 . S
H720 C752 0.929 . S
H721 C754 0.930 . S
H722 C755 0.930 . S
H723 C753 0.929 . S
H724 C756 0.928 . S
O725 Co709 2.057 . S
O725 C713 1.232 . S
H726 C745 0.929 . S
H727 C746 0.929 . S
H728 C758 0.931 . S
H729 C750 0.929 . S
H730 C759 0.930 . S
H731 C751 0.931 . S
O732 Co708 2.097 . S
O732 C760 1.214 . S
H733 C761 0.929 . S
H734 C762 0.929 . S
H735 C763 0.930 . S
H736 C764 0.929 . S
H737 C766 0.930 . S
H738 C743 0.930 . S
H739 C747 0.930 . S
O740 Co709 2.037 . S
O740 C760 1.234 . S
C741 O715 1.269 . S
C741 O716 1.257 . S
C742 H717 0.930 . S
C742 C745 1.388 . S
C742 C747 1.418 . S
C743 H738 0.930 . S
C743 C746 1.404 . S
C743 C747 1.353 . S
N744 Co709 2.145 . S
N744 C745 1.397 . S
N744 C746 1.334 . S
C745 H726 0.929 . S
C745 C742 1.388 . S
C745 N744 1.397 . S
C746 H727 0.929 . S
C746 C743 1.404 . S
C746 N744 1.334 . S
C747 H739 0.930 . S
C747 C742 1.418 . S
C747 C743 1.353 . S
C748 H718 0.930 . S
C748 N749 1.330 . S
C748 C750 1.446 . S
N749 Co708 2.151 . S
N749 C748 1.330 . S
N749 C753 1.418 . S
C750 H729 0.929 . S
C750 C748 1.446 . S
C750 C751 1.332 . S
C751 H731 0.931 . S
C751 C750 1.332 . S
C751 C752 1.267 . S
C752 H720 0.929 . S
C752 C751 1.267 . S
C752 C753 1.251 . S
C753 H723 0.929 . S
C753 N749 1.418 . S
C753 C752 1.251 . S
C754 H721 0.930 . S
C754 C756 1.406 . S
C754 C759 1.261 . S
C755 H722 0.930 . S
C755 N757 1.325 . S
C755 C758 1.357 . S
C756 H724 0.928 . S
C756 C754 1.406 . S
C756 N757 1.261 . S
N757 Co708 2.214 . S
N757 C755 1.325 . S
N757 C756 1.261 . S
C758 H728 0.931 . S
C758 C755 1.357 . S
C758 C759 1.312 . S
C759 H730 0.930 . S
C759 C754 1.261 . S
C759 C758 1.312 . S
C760 O732 1.214 . S
C760 O740 1.234 . S
C761 H733 0.929 . S
C761 C764 1.391 1_545 S
C761 C766 1.391 . S
C762 H734 0.929 . S
C762 C763 1.390 1_545 S
C762 N765 1.391 . S
C763 H735 0.930 . S
C763 C762 1.390 1_565 S
C763 C764 1.392 . S
C764 H736 0.929 . S
C764 C761 1.391 1_565 S
C764 C763 1.392 . S
N765 Co709 2.257 . S
N765 C762 1.391 . S
N765 C766 1.388 . S
C766 H737 0.930 . S
C766 C761 1.391 . S
C766 N765 1.388 . S
Co767 O769 2.143 . S
Co767 O775 2.074 . S
Co767 O778 2.093 . S
Co767 O791 2.097 . S
Co767 N808 2.151 . S
Co767 N816 2.214 . S
Co768 O769 2.160 . S
Co768 O774 2.058 . S
Co768 O784 2.057 . S
Co768 O799 2.037 . S
Co768 N803 2.145 . S
Co768 N824 2.257 . S
O769 Co767 2.143 . S
O769 Co768 2.160 . S
C770 O771 1.278 . S
C770 O778 1.224 . S
O771 C770 1.278 . S
C772 O773 1.245 . S
C772 O784 1.232 . S
O773 C772 1.245 . S
O774 Co768 2.058 . S
O774 C800 1.269 . S
O775 Co767 2.074 . S
O775 C800 1.257 . S
H776 C801 0.930 . S
H777 C807 0.930 . S
O778 Co767 2.093 . S
O778 C770 1.224 . S
H779 C811 0.929 . S
H780 C813 0.930 . S
H781 C814 0.930 . S
H782 C812 0.929 . S
H783 C815 0.928 . S
O784 Co768 2.057 . S
O784 C772 1.232 . S
H785 C804 0.929 . S
H786 C805 0.929 . S
H787 C817 0.931 . S
H788 C809 0.929 . S
H789 C818 0.930 . S
H790 C810 0.931 . S
O791 Co767 2.097 . S
O791 C819 1.214 . S
H792 C820 0.929 . S
H793 C821 0.929 . S
H794 C822 0.930 . S
H795 C823 0.929 . S
H796 C825 0.930 . S
H797 C802 0.930 . S
H798 C806 0.930 . S
O799 Co768 2.037 . S
O799 C819 1.234 . S
C800 O774 1.269 . S
C800 O775 1.257 . S
C801 H776 0.930 . S
C801 C804 1.388 . S
C801 C806 1.418 . S
C802 H797 0.930 . S
C802 C805 1.404 . S
C802 C806 1.353 . S
N803 Co768 2.145 . S
N803 C804 1.397 . S
N803 C805 1.334 . S
C804 H785 0.929 . S
C804 C801 1.388 . S
C804 N803 1.397 . S
C805 H786 0.929 . S
C805 C802 1.404 . S
C805 N803 1.334 . S
C806 H798 0.930 . S
C806 C801 1.418 . S
C806 C802 1.353 . S
C807 H777 0.930 . S
C807 N808 1.330 . S
C807 C809 1.446 . S
N808 Co767 2.151 . S
N808 C807 1.330 . S
N808 C812 1.418 . S
C809 H788 0.929 . S
C809 C807 1.446 . S
C809 C810 1.332 . S
C810 H790 0.931 . S
C810 C809 1.332 . S
C810 C811 1.267 . S
C811 H779 0.929 . S
C811 C810 1.267 . S
C811 C812 1.251 . S
C812 H782 0.929 . S
C812 N808 1.418 . S
C812 C811 1.251 . S
C813 H780 0.930 . S
C813 C815 1.406 . S
C813 C818 1.261 . S
C814 H781 0.930 . S
C814 N816 1.325 . S
C814 C817 1.357 . S
C815 H783 0.928 . S
C815 C813 1.406 . S
C815 N816 1.261 . S
N816 Co767 2.214 . S
N816 C814 1.325 . S
N816 C815 1.261 . S
C817 H787 0.931 . S
C817 C814 1.357 . S
C817 C818 1.312 . S
C818 H789 0.930 . S
C818 C813 1.261 . S
C818 C817 1.312 . S
C819 O791 1.214 . S
C819 O799 1.234 . S
C820 H792 0.929 . S
C820 C823 1.391 1_455 S
C820 C825 1.391 . S
C821 H793 0.929 . S
C821 C822 1.390 1_455 S
C821 N824 1.391 . S
C822 H794 0.930 . S
C822 C821 1.390 1_655 S
C822 C823 1.392 . S
C823 H795 0.929 . S
C823 C820 1.391 1_655 S
C823 C822 1.392 . S
N824 Co768 2.257 . S
N824 C821 1.391 . S
N824 C825 1.388 . S
C825 H796 0.930 . S
C825 C820 1.391 . S
C825 N824 1.388 . S
Co826 O828 2.143 . S
Co826 O834 2.074 . S
Co826 O837 2.093 . S
Co826 O850 2.097 . S
Co826 N867 2.151 . S
Co826 N875 2.214 . S
Co827 O828 2.160 . S
Co827 O833 2.058 . S
Co827 O843 2.057 . S
Co827 O858 2.037 . S
Co827 N862 2.145 . S
Co827 N883 2.257 . S
O828 Co826 2.143 . S
O828 Co827 2.160 . S
C829 O830 1.278 . S
C829 O837 1.224 . S
O830 C829 1.278 . S
C831 O832 1.245 . S
C831 O843 1.232 . S
O832 C831 1.245 . S
O833 Co827 2.058 . S
O833 C859 1.269 . S
O834 Co826 2.074 . S
O834 C859 1.257 . S
H835 C860 0.930 . S
H836 C866 0.930 . S
O837 Co826 2.093 . S
O837 C829 1.224 . S
H838 C870 0.929 . S
H839 C872 0.930 . S
H840 C873 0.930 . S
H841 C871 0.929 . S
H842 C874 0.928 . S
O843 Co827 2.057 . S
O843 C831 1.232 . S
H844 C863 0.929 . S
H845 C864 0.929 . S
H846 C876 0.931 . S
H847 C868 0.929 . S
H848 C877 0.930 . S
H849 C869 0.931 . S
O850 Co826 2.097 . S
O850 C878 1.214 . S
H851 C879 0.929 . S
H852 C880 0.929 . S
H853 C881 0.930 . S
H854 C882 0.929 . S
H855 C884 0.930 . S
H856 C861 0.930 . S
H857 C865 0.930 . S
O858 Co827 2.037 . S
O858 C878 1.234 . S
C859 O833 1.269 . S
C859 O834 1.257 . S
C860 H835 0.930 . S
C860 C863 1.388 . S
C860 C865 1.418 . S
C861 H856 0.930 . S
C861 C864 1.404 . S
C861 C865 1.353 . S
N862 Co827 2.145 . S
N862 C863 1.397 . S
N862 C864 1.334 . S
C863 H844 0.929 . S
C863 C860 1.388 . S
C863 N862 1.397 . S
C864 H845 0.929 . S
C864 C861 1.404 . S
C864 N862 1.334 . S
C865 H857 0.930 . S
C865 C860 1.418 . S
C865 C861 1.353 . S
C866 H836 0.930 . S
C866 N867 1.330 . S
C866 C868 1.446 . S
N867 Co826 2.151 . S
N867 C866 1.330 . S
N867 C871 1.418 . S
C868 H847 0.929 . S
C868 C866 1.446 . S
C868 C869 1.332 . S
C869 H849 0.931 . S
C869 C868 1.332 . S
C869 C870 1.267 . S
C870 H838 0.929 . S
C870 C869 1.267 . S
C870 C871 1.251 . S
C871 H841 0.929 . S
C871 N867 1.418 . S
C871 C870 1.251 . S
C872 H839 0.930 . S
C872 C874 1.406 . S
C872 C877 1.261 . S
C873 H840 0.930 . S
C873 N875 1.325 . S
C873 C876 1.357 . S
C874 H842 0.928 . S
C874 C872 1.406 . S
C874 N875 1.261 . S
N875 Co826 2.214 . S
N875 C873 1.325 . S
N875 C874 1.261 . S
C876 H846 0.931 . S
C876 C873 1.357 . S
C876 C877 1.312 . S
C877 H848 0.930 . S
C877 C872 1.261 . S
C877 C876 1.312 . S
C878 O850 1.214 . S
C878 O858 1.234 . S
C879 H851 0.929 . S
C879 C882 1.391 1_565 S
C879 C884 1.391 . S
C880 H852 0.929 . S
C880 C881 1.390 1_565 S
C880 N883 1.391 . S
C881 H853 0.930 . S
C881 C880 1.390 1_545 S
C881 C882 1.392 . S
C882 H854 0.929 . S
C882 C879 1.391 1_545 S
C882 C881 1.392 . S
N883 Co827 2.257 . S
N883 C880 1.391 . S
N883 C884 1.388 . S
C884 H855 0.930 . S
C884 C879 1.391 . S
C884 N883 1.388 . S
Co885 O887 2.143 . S
Co885 O893 2.074 . S
Co885 O896 2.093 . S
Co885 O909 2.097 . S
Co885 N926 2.151 . S
Co885 N934 2.214 . S
Co886 O887 2.160 . S
Co886 O892 2.058 . S
Co886 O902 2.057 . S
Co886 O917 2.037 . S
Co886 N921 2.145 . S
Co886 N942 2.257 . S
O887 Co885 2.143 . S
O887 Co886 2.160 . S
C888 O889 1.278 . S
C888 O896 1.224 . S
O889 C888 1.278 . S
C890 O891 1.245 . S
C890 O902 1.232 . S
O891 C890 1.245 . S
O892 Co886 2.058 . S
O892 C918 1.269 . S
O893 Co885 2.074 . S
O893 C918 1.257 . S
H894 C919 0.930 . S
H895 C925 0.930 . S
O896 Co885 2.093 . S
O896 C888 1.224 . S
H897 C929 0.929 . S
H898 C931 0.930 . S
H899 C932 0.930 . S
H900 C930 0.929 . S
H901 C933 0.928 . S
O902 Co886 2.057 . S
O902 C890 1.232 . S
H903 C922 0.929 . S
H904 C923 0.929 . S
H905 C935 0.931 . S
H906 C927 0.929 . S
H907 C936 0.930 . S
H908 C928 0.931 . S
O909 Co885 2.097 . S
O909 C937 1.214 . S
H910 C938 0.929 . S
H911 C939 0.929 . S
H912 C940 0.930 . S
H913 C941 0.929 . S
H914 C943 0.930 . S
H915 C920 0.930 . S
H916 C924 0.930 . S
O917 Co886 2.037 . S
O917 C937 1.234 . S
C918 O892 1.269 . S
C918 O893 1.257 . S
C919 H894 0.930 . S
C919 C922 1.388 . S
C919 C924 1.418 . S
C920 H915 0.930 . S
C920 C923 1.404 . S
C920 C924 1.353 . S
N921 Co886 2.145 . S
N921 C922 1.397 . S
N921 C923 1.334 . S
C922 H903 0.929 . S
C922 C919 1.388 . S
C922 N921 1.397 . S
C923 H904 0.929 . S
C923 C920 1.404 . S
C923 N921 1.334 . S
C924 H916 0.930 . S
C924 C919 1.418 . S
C924 C920 1.353 . S
C925 H895 0.930 . S
C925 N926 1.330 . S
C925 C927 1.446 . S
N926 Co885 2.151 . S
N926 C925 1.330 . S
N926 C930 1.418 . S
C927 H906 0.929 . S
C927 C925 1.446 . S
C927 C928 1.332 . S
C928 H908 0.931 . S
C928 C927 1.332 . S
C928 C929 1.267 . S
C929 H897 0.929 . S
C929 C928 1.267 . S
C929 C930 1.251 . S
C930 H900 0.929 . S
C930 N926 1.418 . S
C930 C929 1.251 . S
C931 H898 0.930 . S
C931 C933 1.406 . S
C931 C936 1.261 . S
C932 H899 0.930 . S
C932 N934 1.325 . S
C932 C935 1.357 . S
C933 H901 0.928 . S
C933 C931 1.406 . S
C933 N934 1.261 . S
N934 Co885 2.214 . S
N934 C932 1.325 . S
N934 C933 1.261 . S
C935 H905 0.931 . S
C935 C932 1.357 . S
C935 C936 1.312 . S
C936 H907 0.930 . S
C936 C931 1.261 . S
C936 C935 1.312 . S
C937 O909 1.214 . S
C937 O917 1.234 . S
C938 H910 0.929 . S
C938 C941 1.391 1_655 S
C938 C943 1.391 . S
C939 H911 0.929 . S
C939 C940 1.390 1_655 S
C939 N942 1.391 . S
C940 H912 0.930 . S
C940 C939 1.390 1_455 S
C940 C941 1.392 . S
C941 H913 0.929 . S
C941 C938 1.391 1_455 S
C941 C940 1.392 . S
N942 Co886 2.257 . S
N942 C939 1.391 . S
N942 C943 1.388 . S
C943 H914 0.930 . S
C943 C938 1.391 . S
C943 N942 1.388 . S
C944 C945 1.391 . S
C944 C946 1.394 . S
C944 H960 0.931 . S
C945 C944 1.391 . S
C945 C949 1.376 . S
C946 C944 1.394 . S
C946 C947 1.369 . S
C946 C950 1.531 . S
C947 C946 1.369 . S
C947 C948 1.410 . S
C947 C955 1.503 . S
C948 C947 1.410 . S
C948 C949 1.392 . S
C948 C951 1.511 . S
C949 C945 1.376 . S
C949 C948 1.392 . S
C949 H961 0.929 . S
C950 C946 1.531 . S
C950 H962 0.960 . S
C950 H963 0.962 . S
C950 H964 0.960 . S
C951 C948 1.511 . S
C951 H965 0.961 . S
C951 H966 0.961 . S
C951 H967 0.961 . S
C952 C953 1.370 . S
C952 C954 1.363 . S
C952 H968 0.931 . S
C953 C952 1.370 . S
C953 C957 1.408 . S
C954 C952 1.363 . S
C954 C955 1.370 . S
C954 C958 1.524 . S
C955 C947 1.503 . S
C955 C954 1.370 . S
C955 C956 1.403 . S
C956 C955 1.403 . S
C956 C957 1.404 . S
C956 C959 1.539 . S
C957 C953 1.408 . S
C957 C956 1.404 . S
C957 H969 0.930 . S
C958 C954 1.524 . S
C958 H970 0.956 . S
C958 H971 0.961 . S
C958 H972 0.961 . S
C959 C956 1.539 . S
C959 H973 0.958 . S
C959 H974 0.961 . S
C959 H975 0.960 . S
H960 C944 0.931 . S
H961 C949 0.929 . S
H962 C950 0.960 . S
H963 C950 0.962 . S
H964 C950 0.960 . S
H965 C951 0.961 . S
H966 C951 0.961 . S
H967 C951 0.961 . S
H968 C952 0.931 . S
H969 C957 0.930 . S
H970 C958 0.956 . S
H971 C958 0.961 . S
H972 C958 0.961 . S
H973 C959 0.958 . S
H974 C959 0.961 . S
H975 C959 0.960 . S
C976 C977 1.391 . S
C976 C978 1.394 . S
C976 H992 0.931 . S
C977 C976 1.391 . S
C977 C981 1.376 . S
C978 C976 1.394 . S
C978 C979 1.369 . S
C978 C982 1.531 . S
C979 C978 1.369 . S
C979 C980 1.410 . S
C979 C987 1.503 . S
C980 C979 1.410 . S
C980 C981 1.392 . S
C980 C983 1.511 . S
C981 C977 1.376 . S
C981 C980 1.392 . S
C981 H993 0.929 . S
C982 C978 1.531 . S
C982 H994 0.960 . S
C982 H995 0.962 . S
C982 H996 0.960 . S
C983 C980 1.511 . S
C983 H997 0.961 . S
C983 H998 0.961 . S
C983 H999 0.961 . S
C984 C985 1.370 . S
C984 C986 1.363 . S
C984 H1000 0.931 . S
C985 C984 1.370 . S
C985 C989 1.408 . S
C986 C984 1.363 . S
C986 C987 1.370 . S
C986 C990 1.524 . S
C987 C979 1.503 . S
C987 C986 1.370 . S
C987 C988 1.403 . S
C988 C987 1.403 . S
C988 C989 1.404 . S
C988 C991 1.539 . S
C989 C985 1.408 . S
C989 C988 1.404 . S
C989 H1001 0.930 . S
C990 C986 1.524 . S
C990 H1002 0.956 . S
C990 H1003 0.961 . S
C990 H1004 0.961 . S
C991 C988 1.539 . S
C991 H1005 0.958 . S
C991 H1006 0.961 . S
C991 H1007 0.960 . S
H992 C976 0.931 . S
H993 C981 0.929 . S
H994 C982 0.960 . S
H995 C982 0.962 . S
H996 C982 0.960 . S
H997 C983 0.961 . S
H998 C983 0.961 . S
H999 C983 0.961 . S
H1000 C984 0.931 . S
H1001 C989 0.930 . S
H1002 C990 0.956 . S
H1003 C990 0.961 . S
H1004 C990 0.961 . S
H1005 C991 0.958 . S
H1006 C991 0.961 . S
H1007 C991 0.960 . S
C1008 C1009 1.391 . S
C1008 C1010 1.394 . S
C1008 H1024 0.931 . S
C1009 C1008 1.391 . S
C1009 C1013 1.376 . S
C1010 C1008 1.394 . S
C1010 C1011 1.369 . S
C1010 C1014 1.531 . S
C1011 C1010 1.369 . S
C1011 C1012 1.410 . S
C1011 C1019 1.503 . S
C1012 C1011 1.410 . S
C1012 C1013 1.392 . S
C1012 C1015 1.511 . S
C1013 C1009 1.376 . S
C1013 C1012 1.392 . S
C1013 H1025 0.929 . S
C1014 C1010 1.531 . S
C1014 H1026 0.960 . S
C1014 H1027 0.962 . S
C1014 H1028 0.960 . S
C1015 C1012 1.511 . S
C1015 H1029 0.961 . S
C1015 H1030 0.961 . S
C1015 H1031 0.961 . S
C1016 C1017 1.370 . S
C1016 C1018 1.363 . S
C1016 H1032 0.931 . S
C1017 C1016 1.370 . S
C1017 C1021 1.408 . S
C1018 C1016 1.363 . S
C1018 C1019 1.370 . S
C1018 C1022 1.524 . S
C1019 C1011 1.503 . S
C1019 C1018 1.370 . S
C1019 C1020 1.403 . S
C1020 C1019 1.403 . S
C1020 C1021 1.404 . S
C1020 C1023 1.539 . S
C1021 C1017 1.408 . S
C1021 C1020 1.404 . S
C1021 H1033 0.930 . S
C1022 C1018 1.524 . S
C1022 H1034 0.956 . S
C1022 H1035 0.961 . S
C1022 H1036 0.961 . S
C1023 C1020 1.539 . S
C1023 H1037 0.958 . S
C1023 H1038 0.961 . S
C1023 H1039 0.960 . S
H1024 C1008 0.931 . S
H1025 C1013 0.929 . S
H1026 C1014 0.960 . S
H1027 C1014 0.962 . S
H1028 C1014 0.960 . S
H1029 C1015 0.961 . S
H1030 C1015 0.961 . S
H1031 C1015 0.961 . S
H1032 C1016 0.931 . S
H1033 C1021 0.930 . S
H1034 C1022 0.956 . S
H1035 C1022 0.961 . S
H1036 C1022 0.961 . S
H1037 C1023 0.958 . S
H1038 C1023 0.961 . S
H1039 C1023 0.960 . S
C1040 C1041 1.391 . S
C1040 C1042 1.394 . S
C1040 H1056 0.931 . S
C1041 C1040 1.391 . S
C1041 C1045 1.376 . S
C1042 C1040 1.394 . S
C1042 C1043 1.369 . S
C1042 C1046 1.531 . S
C1043 C1042 1.369 . S
C1043 C1044 1.410 . S
C1043 C1051 1.503 . S
C1044 C1043 1.410 . S
C1044 C1045 1.392 . S
C1044 C1047 1.511 . S
C1045 C1041 1.376 . S
C1045 C1044 1.392 . S
C1045 H1057 0.929 . S
C1046 C1042 1.531 . S
C1046 H1058 0.960 . S
C1046 H1059 0.962 . S
C1046 H1060 0.960 . S
C1047 C1044 1.511 . S
C1047 H1061 0.961 . S
C1047 H1062 0.961 . S
C1047 H1063 0.961 . S
C1048 C1049 1.370 . S
C1048 C1050 1.363 . S
C1048 H1064 0.931 . S
C1049 C1048 1.370 . S
C1049 C1053 1.408 . S
C1050 C1048 1.363 . S
C1050 C1051 1.370 . S
C1050 C1054 1.524 . S
C1051 C1043 1.503 . S
C1051 C1050 1.370 . S
C1051 C1052 1.403 . S
C1052 C1051 1.403 . S
C1052 C1053 1.404 . S
C1052 C1055 1.539 . S
C1053 C1049 1.408 . S
C1053 C1052 1.404 . S
C1053 H1065 0.930 . S
C1054 C1050 1.524 . S
C1054 H1066 0.956 . S
C1054 H1067 0.961 . S
C1054 H1068 0.961 . S
C1055 C1052 1.539 . S
C1055 H1069 0.958 . S
C1055 H1070 0.961 . S
C1055 H1071 0.960 . S
H1056 C1040 0.931 . S
H1057 C1045 0.929 . S
H1058 C1046 0.960 . S
H1059 C1046 0.962 . S
H1060 C1046 0.960 . S
H1061 C1047 0.961 . S
H1062 C1047 0.961 . S
H1063 C1047 0.961 . S
H1064 C1048 0.931 . S
H1065 C1053 0.930 . S
H1066 C1054 0.956 . S
H1067 C1054 0.961 . S
H1068 C1054 0.961 . S
H1069 C1055 0.958 . S
H1070 C1055 0.961 . S
H1071 C1055 0.960 . S
C1072 C1073 1.391 . S
C1072 C1074 1.394 . S
C1072 H1088 0.931 . S
C1073 C1072 1.391 . S
C1073 C1077 1.376 . S
C1074 C1072 1.394 . S
C1074 C1075 1.369 . S
C1074 C1078 1.531 . S
C1075 C1074 1.369 . S
C1075 C1076 1.410 . S
C1075 C1083 1.503 . S
C1076 C1075 1.410 . S
C1076 C1077 1.392 . S
C1076 C1079 1.511 . S
C1077 C1073 1.376 . S
C1077 C1076 1.392 . S
C1077 H1089 0.929 . S
C1078 C1074 1.531 . S
C1078 H1090 0.960 . S
C1078 H1091 0.962 . S
C1078 H1092 0.960 . S
C1079 C1076 1.511 . S
C1079 H1093 0.961 . S
C1079 H1094 0.961 . S
C1079 H1095 0.961 . S
C1080 C1081 1.370 . S
C1080 C1082 1.363 . S
C1080 H1096 0.931 . S
C1081 C1080 1.370 . S
C1081 C1085 1.408 . S
C1082 C1080 1.363 . S
C1082 C1083 1.370 . S
C1082 C1086 1.524 . S
C1083 C1075 1.503 . S
C1083 C1082 1.370 . S
C1083 C1084 1.403 . S
C1084 C1083 1.403 . S
C1084 C1085 1.404 . S
C1084 C1087 1.539 . S
C1085 C1081 1.408 . S
C1085 C1084 1.404 . S
C1085 H1097 0.930 . S
C1086 C1082 1.524 . S
C1086 H1098 0.956 . S
C1086 H1099 0.961 . S
C1086 H1100 0.961 . S
C1087 C1084 1.539 . S
C1087 H1101 0.958 . S
C1087 H1102 0.961 . S
C1087 H1103 0.960 . S
H1088 C1072 0.931 . S
H1089 C1077 0.929 . S
H1090 C1078 0.960 . S
H1091 C1078 0.962 . S
H1092 C1078 0.960 . S
H1093 C1079 0.961 . S
H1094 C1079 0.961 . S
H1095 C1079 0.961 . S
H1096 C1080 0.931 . S
H1097 C1085 0.930 . S
H1098 C1086 0.956 . S
H1099 C1086 0.961 . S
H1100 C1086 0.961 . S
H1101 C1087 0.958 . S
H1102 C1087 0.961 . S
H1103 C1087 0.960 . S
C1104 C1105 1.391 . S
C1104 C1106 1.394 . S
C1104 H1120 0.931 . S
C1105 C1104 1.391 . S
C1105 C1109 1.376 . S
C1106 C1104 1.394 . S
C1106 C1107 1.369 . S
C1106 C1110 1.531 . S
C1107 C1106 1.369 . S
C1107 C1108 1.410 . S
C1107 C1115 1.503 . S
C1108 C1107 1.410 . S
C1108 C1109 1.392 . S
C1108 C1111 1.511 . S
C1109 C1105 1.376 . S
C1109 C1108 1.392 . S
C1109 H1121 0.929 . S
C1110 C1106 1.531 . S
C1110 H1122 0.960 . S
C1110 H1123 0.962 . S
C1110 H1124 0.960 . S
C1111 C1108 1.511 . S
C1111 H1125 0.961 . S
C1111 H1126 0.961 . S
C1111 H1127 0.961 . S
C1112 C1113 1.370 . S
C1112 C1114 1.363 . S
C1112 H1128 0.931 . S
C1113 C1112 1.370 . S
C1113 C1117 1.408 . S
C1114 C1112 1.363 . S
C1114 C1115 1.370 . S
C1114 C1118 1.524 . S
C1115 C1107 1.503 . S
C1115 C1114 1.370 . S
C1115 C1116 1.403 . S
C1116 C1115 1.403 . S
C1116 C1117 1.404 . S
C1116 C1119 1.539 . S
C1117 C1113 1.408 . S
C1117 C1116 1.404 . S
C1117 H1129 0.930 . S
C1118 C1114 1.524 . S
C1118 H1130 0.956 . S
C1118 H1131 0.961 . S
C1118 H1132 0.961 . S
C1119 C1116 1.539 . S
C1119 H1133 0.958 . S
C1119 H1134 0.961 . S
C1119 H1135 0.960 . S
H1120 C1104 0.931 . S
H1121 C1109 0.929 . S
H1122 C1110 0.960 . S
H1123 C1110 0.962 . S
H1124 C1110 0.960 . S
H1125 C1111 0.961 . S
H1126 C1111 0.961 . S
H1127 C1111 0.961 . S
H1128 C1112 0.931 . S
H1129 C1117 0.930 . S
H1130 C1118 0.956 . S
H1131 C1118 0.961 . S
H1132 C1118 0.961 . S
H1133 C1119 0.958 . S
H1134 C1119 0.961 . S
H1135 C1119 0.960 . S
C1136 C1137 1.391 . S
C1136 C1138 1.394 . S
C1136 H1152 0.931 . S
C1137 C1136 1.391 . S
C1137 C1141 1.376 . S
C1138 C1136 1.394 . S
C1138 C1139 1.369 . S
C1138 C1142 1.531 . S
C1139 C1138 1.369 . S
C1139 C1140 1.410 . S
C1139 C1147 1.503 . S
C1140 C1139 1.410 . S
C1140 C1141 1.392 . S
C1140 C1143 1.511 . S
C1141 C1137 1.376 . S
C1141 C1140 1.392 . S
C1141 H1153 0.929 . S
C1142 C1138 1.531 . S
C1142 H1154 0.960 . S
C1142 H1155 0.962 . S
C1142 H1156 0.960 . S
C1143 C1140 1.511 . S
C1143 H1157 0.961 . S
C1143 H1158 0.961 . S
C1143 H1159 0.961 . S
C1144 C1145 1.370 . S
C1144 C1146 1.363 . S
C1144 H1160 0.931 . S
C1145 C1144 1.370 . S
C1145 C1149 1.408 . S
C1146 C1144 1.363 . S
C1146 C1147 1.370 . S
C1146 C1150 1.524 . S
C1147 C1139 1.503 . S
C1147 C1146 1.370 . S
C1147 C1148 1.403 . S
C1148 C1147 1.403 . S
C1148 C1149 1.404 . S
C1148 C1151 1.539 . S
C1149 C1145 1.408 . S
C1149 C1148 1.404 . S
C1149 H1161 0.930 . S
C1150 C1146 1.524 . S
C1150 H1162 0.956 . S
C1150 H1163 0.961 . S
C1150 H1164 0.961 . S
C1151 C1148 1.539 . S
C1151 H1165 0.958 . S
C1151 H1166 0.961 . S
C1151 H1167 0.960 . S
H1152 C1136 0.931 . S
H1153 C1141 0.929 . S
H1154 C1142 0.960 . S
H1155 C1142 0.962 . S
H1156 C1142 0.960 . S
H1157 C1143 0.961 . S
H1158 C1143 0.961 . S
H1159 C1143 0.961 . S
H1160 C1144 0.931 . S
H1161 C1149 0.930 . S
H1162 C1150 0.956 . S
H1163 C1150 0.961 . S
H1164 C1150 0.961 . S
H1165 C1151 0.958 . S
H1166 C1151 0.961 . S
H1167 C1151 0.960 . S
C1168 C1169 1.391 . S
C1168 C1170 1.394 . S
C1168 H1184 0.931 . S
C1169 C1168 1.391 . S
C1169 C1173 1.376 . S
C1170 C1168 1.394 . S
C1170 C1171 1.369 . S
C1170 C1174 1.531 . S
C1171 C1170 1.369 . S
C1171 C1172 1.410 . S
C1171 C1179 1.503 . S
C1172 C1171 1.410 . S
C1172 C1173 1.392 . S
C1172 C1175 1.511 . S
C1173 C1169 1.376 . S
C1173 C1172 1.392 . S
C1173 H1185 0.929 . S
C1174 C1170 1.531 . S
C1174 H1186 0.960 . S
C1174 H1187 0.962 . S
C1174 H1188 0.960 . S
C1175 C1172 1.511 . S
C1175 H1189 0.961 . S
C1175 H1190 0.961 . S
C1175 H1191 0.961 . S
C1176 C1177 1.370 . S
C1176 C1178 1.363 . S
C1176 H1192 0.931 . S
C1177 C1176 1.370 . S
C1177 C1181 1.408 . S
C1178 C1176 1.363 . S
C1178 C1179 1.370 . S
C1178 C1182 1.524 . S
C1179 C1171 1.503 . S
C1179 C1178 1.370 . S
C1179 C1180 1.403 . S
C1180 C1179 1.403 . S
C1180 C1181 1.404 . S
C1180 C1183 1.539 . S
C1181 C1177 1.408 . S
C1181 C1180 1.404 . S
C1181 H1193 0.930 . S
C1182 C1178 1.524 . S
C1182 H1194 0.956 . S
C1182 H1195 0.961 . S
C1182 H1196 0.961 . S
C1183 C1180 1.539 . S
C1183 H1197 0.958 . S
C1183 H1198 0.961 . S
C1183 H1199 0.960 . S
H1184 C1168 0.931 . S
H1185 C1173 0.929 . S
H1186 C1174 0.960 . S
H1187 C1174 0.962 . S
H1188 C1174 0.960 . S
H1189 C1175 0.961 . S
H1190 C1175 0.961 . S
H1191 C1175 0.961 . S
H1192 C1176 0.931 . S
H1193 C1181 0.930 . S
H1194 C1182 0.956 . S
H1195 C1182 0.961 . S
H1196 C1182 0.961 . S
H1197 C1183 0.958 . S
H1198 C1183 0.961 . S
H1199 C1183 0.960 . S
C1200 C1201 1.391 . S
C1200 C1202 1.394 . S
C1200 H1216 0.931 . S
C1201 C1200 1.391 . S
C1201 C1205 1.376 . S
C1202 C1200 1.394 . S
C1202 C1203 1.369 . S
C1202 C1206 1.531 . S
C1203 C1202 1.369 . S
C1203 C1204 1.410 . S
C1203 C1211 1.503 . S
C1204 C1203 1.410 . S
C1204 C1205 1.392 . S
C1204 C1207 1.511 . S
C1205 C1201 1.376 . S
C1205 C1204 1.392 . S
C1205 H1217 0.929 . S
C1206 C1202 1.531 . S
C1206 H1218 0.960 . S
C1206 H1219 0.962 . S
C1206 H1220 0.960 . S
C1207 C1204 1.511 . S
C1207 H1221 0.961 . S
C1207 H1222 0.961 . S
C1207 H1223 0.961 . S
C1208 C1209 1.370 . S
C1208 C1210 1.363 . S
C1208 H1224 0.931 . S
C1209 C1208 1.370 . S
C1209 C1213 1.408 . S
C1210 C1208 1.363 . S
C1210 C1211 1.370 . S
C1210 C1214 1.524 . S
C1211 C1203 1.503 . S
C1211 C1210 1.370 . S
C1211 C1212 1.403 . S
C1212 C1211 1.403 . S
C1212 C1213 1.404 . S
C1212 C1215 1.539 . S
C1213 C1209 1.408 . S
C1213 C1212 1.404 . S
C1213 H1225 0.930 . S
C1214 C1210 1.524 . S
C1214 H1226 0.956 . S
C1214 H1227 0.961 . S
C1214 H1228 0.961 . S
C1215 C1212 1.539 . S
C1215 H1229 0.958 . S
C1215 H1230 0.961 . S
C1215 H1231 0.960 . S
H1216 C1200 0.931 . S
H1217 C1205 0.929 . S
H1218 C1206 0.960 . S
H1219 C1206 0.962 . S
H1220 C1206 0.960 . S
H1221 C1207 0.961 . S
H1222 C1207 0.961 . S
H1223 C1207 0.961 . S
H1224 C1208 0.931 . S
H1225 C1213 0.930 . S
H1226 C1214 0.956 . S
H1227 C1214 0.961 . S
H1228 C1214 0.961 . S
H1229 C1215 0.958 . S
H1230 C1215 0.961 . S
H1231 C1215 0.960 . S
C1232 C1233 1.391 . S
C1232 C1234 1.394 . S
C1232 H1248 0.931 . S
C1233 C1232 1.391 . S
C1233 C1237 1.376 . S
C1234 C1232 1.394 . S
C1234 C1235 1.369 . S
C1234 C1238 1.531 . S
C1235 C1234 1.369 . S
C1235 C1236 1.410 . S
C1235 C1243 1.503 . S
C1236 C1235 1.410 . S
C1236 C1237 1.392 . S
C1236 C1239 1.511 . S
C1237 C1233 1.376 . S
C1237 C1236 1.392 . S
C1237 H1249 0.929 . S
C1238 C1234 1.531 . S
C1238 H1250 0.960 . S
C1238 H1251 0.962 . S
C1238 H1252 0.960 . S
C1239 C1236 1.511 . S
C1239 H1253 0.961 . S
C1239 H1254 0.961 . S
C1239 H1255 0.961 . S
C1240 C1241 1.370 . S
C1240 C1242 1.363 . S
C1240 H1256 0.931 . S
C1241 C1240 1.370 . S
C1241 C1245 1.408 . S
C1242 C1240 1.363 . S
C1242 C1243 1.370 . S
C1242 C1246 1.524 . S
C1243 C1235 1.503 . S
C1243 C1242 1.370 . S
C1243 C1244 1.403 . S
C1244 C1243 1.403 . S
C1244 C1245 1.404 . S
C1244 C1247 1.539 . S
C1245 C1241 1.408 . S
C1245 C1244 1.404 . S
C1245 H1257 0.930 . S
C1246 C1242 1.524 . S
C1246 H1258 0.956 . S
C1246 H1259 0.961 . S
C1246 H1260 0.961 . S
C1247 C1244 1.539 . S
C1247 H1261 0.958 . S
C1247 H1262 0.961 . S
C1247 H1263 0.960 . S
H1248 C1232 0.931 . S
H1249 C1237 0.929 . S
H1250 C1238 0.960 . S
H1251 C1238 0.962 . S
H1252 C1238 0.960 . S
H1253 C1239 0.961 . S
H1254 C1239 0.961 . S
H1255 C1239 0.961 . S
H1256 C1240 0.931 . S
H1257 C1245 0.930 . S
H1258 C1246 0.956 . S
H1259 C1246 0.961 . S
H1260 C1246 0.961 . S
H1261 C1247 0.958 . S
H1262 C1247 0.961 . S
H1263 C1247 0.960 . S
C1264 C1265 1.391 . S
C1264 C1266 1.394 . S
C1264 H1280 0.931 . S
C1265 C1264 1.391 . S
C1265 C1269 1.376 . S
C1266 C1264 1.394 . S
C1266 C1267 1.369 . S
C1266 C1270 1.531 . S
C1267 C1266 1.369 . S
C1267 C1268 1.410 . S
C1267 C1275 1.503 . S
C1268 C1267 1.410 . S
C1268 C1269 1.392 . S
C1268 C1271 1.511 . S
C1269 C1265 1.376 . S
C1269 C1268 1.392 . S
C1269 H1281 0.929 . S
C1270 C1266 1.531 . S
C1270 H1282 0.960 . S
C1270 H1283 0.962 . S
C1270 H1284 0.960 . S
C1271 C1268 1.511 . S
C1271 H1285 0.961 . S
C1271 H1286 0.961 . S
C1271 H1287 0.961 . S
C1272 C1273 1.370 . S
C1272 C1274 1.363 . S
C1272 H1288 0.931 . S
C1273 C1272 1.370 . S
C1273 C1277 1.408 . S
C1274 C1272 1.363 . S
C1274 C1275 1.370 . S
C1274 C1278 1.524 . S
C1275 C1267 1.503 . S
C1275 C1274 1.370 . S
C1275 C1276 1.403 . S
C1276 C1275 1.403 . S
C1276 C1277 1.404 . S
C1276 C1279 1.539 . S
C1277 C1273 1.408 . S
C1277 C1276 1.404 . S
C1277 H1289 0.930 . S
C1278 C1274 1.524 . S
C1278 H1290 0.956 . S
C1278 H1291 0.961 . S
C1278 H1292 0.961 . S
C1279 C1276 1.539 . S
C1279 H1293 0.958 . S
C1279 H1294 0.961 . S
C1279 H1295 0.960 . S
H1280 C1264 0.931 . S
H1281 C1269 0.929 . S
H1282 C1270 0.960 . S
H1283 C1270 0.962 . S
H1284 C1270 0.960 . S
H1285 C1271 0.961 . S
H1286 C1271 0.961 . S
H1287 C1271 0.961 . S
H1288 C1272 0.931 . S
H1289 C1277 0.930 . S
H1290 C1278 0.956 . S
H1291 C1278 0.961 . S
H1292 C1278 0.961 . S
H1293 C1279 0.958 . S
H1294 C1279 0.961 . S
H1295 C1279 0.960 . S
C1296 C1297 1.391 . S
C1296 C1298 1.394 . S
C1296 H1312 0.931 . S
C1297 C1296 1.391 . S
C1297 C1301 1.376 . S
C1298 C1296 1.394 . S
C1298 C1299 1.369 . S
C1298 C1302 1.531 . S
C1299 C1298 1.369 . S
C1299 C1300 1.410 . S
C1299 C1307 1.503 . S
C1300 C1299 1.410 . S
C1300 C1301 1.392 . S
C1300 C1303 1.511 . S
C1301 C1297 1.376 . S
C1301 C1300 1.392 . S
C1301 H1313 0.929 . S
C1302 C1298 1.531 . S
C1302 H1314 0.960 . S
C1302 H1315 0.962 . S
C1302 H1316 0.960 . S
C1303 C1300 1.511 . S
C1303 H1317 0.961 . S
C1303 H1318 0.961 . S
C1303 H1319 0.961 . S
C1304 C1305 1.370 . S
C1304 C1306 1.363 . S
C1304 H1320 0.931 . S
C1305 C1304 1.370 . S
C1305 C1309 1.408 . S
C1306 C1304 1.363 . S
C1306 C1307 1.370 . S
C1306 C1310 1.524 . S
C1307 C1299 1.503 . S
C1307 C1306 1.370 . S
C1307 C1308 1.403 . S
C1308 C1307 1.403 . S
C1308 C1309 1.404 . S
C1308 C1311 1.539 . S
C1309 C1305 1.408 . S
C1309 C1308 1.404 . S
C1309 H1321 0.930 . S
C1310 C1306 1.524 . S
C1310 H1322 0.956 . S
C1310 H1323 0.961 . S
C1310 H1324 0.961 . S
C1311 C1308 1.539 . S
C1311 H1325 0.958 . S
C1311 H1326 0.961 . S
C1311 H1327 0.960 . S
H1312 C1296 0.931 . S
H1313 C1301 0.929 . S
H1314 C1302 0.960 . S
H1315 C1302 0.962 . S
H1316 C1302 0.960 . S
H1317 C1303 0.961 . S
H1318 C1303 0.961 . S
H1319 C1303 0.961 . S
H1320 C1304 0.931 . S
H1321 C1309 0.930 . S
H1322 C1310 0.956 . S
H1323 C1310 0.961 . S
H1324 C1310 0.961 . S
H1325 C1311 0.958 . S
H1326 C1311 0.961 . S
H1327 C1311 0.960 . S
C1328 C1329 1.391 . S
C1328 C1330 1.394 . S
C1328 H1344 0.931 . S
C1329 C1328 1.391 . S
C1329 C1333 1.376 . S
C1330 C1328 1.394 . S
C1330 C1331 1.369 . S
C1330 C1334 1.531 . S
C1331 C1330 1.369 . S
C1331 C1332 1.410 . S
C1331 C1339 1.503 . S
C1332 C1331 1.410 . S
C1332 C1333 1.392 . S
C1332 C1335 1.511 . S
C1333 C1329 1.376 . S
C1333 C1332 1.392 . S
C1333 H1345 0.929 . S
C1334 C1330 1.531 . S
C1334 H1346 0.960 . S
C1334 H1347 0.962 . S
C1334 H1348 0.960 . S
C1335 C1332 1.511 . S
C1335 H1349 0.961 . S
C1335 H1350 0.961 . S
C1335 H1351 0.961 . S
C1336 C1337 1.370 . S
C1336 C1338 1.363 . S
C1336 H1352 0.931 . S
C1337 C1336 1.370 . S
C1337 C1341 1.408 . S
C1338 C1336 1.363 . S
C1338 C1339 1.370 . S
C1338 C1342 1.524 . S
C1339 C1331 1.503 . S
C1339 C1338 1.370 . S
C1339 C1340 1.403 . S
C1340 C1339 1.403 . S
C1340 C1341 1.404 . S
C1340 C1343 1.539 . S
C1341 C1337 1.408 . S
C1341 C1340 1.404 . S
C1341 H1353 0.930 . S
C1342 C1338 1.524 . S
C1342 H1354 0.956 . S
C1342 H1355 0.961 . S
C1342 H1356 0.961 . S
C1343 C1340 1.539 . S
C1343 H1357 0.958 . S
C1343 H1358 0.961 . S
C1343 H1359 0.960 . S
H1344 C1328 0.931 . S
H1345 C1333 0.929 . S
H1346 C1334 0.960 . S
H1347 C1334 0.962 . S
H1348 C1334 0.960 . S
H1349 C1335 0.961 . S
H1350 C1335 0.961 . S
H1351 C1335 0.961 . S
H1352 C1336 0.931 . S
H1353 C1341 0.930 . S
H1354 C1342 0.956 . S
H1355 C1342 0.961 . S
H1356 C1342 0.961 . S
H1357 C1343 0.958 . S
H1358 C1343 0.961 . S
H1359 C1343 0.960 . S
C1360 C1361 1.391 . S
C1360 C1362 1.394 . S
C1360 H1376 0.931 . S
C1361 C1360 1.391 . S
C1361 C1365 1.376 . S
C1362 C1360 1.394 . S
C1362 C1363 1.369 . S
C1362 C1366 1.531 . S
C1363 C1362 1.369 . S
C1363 C1364 1.410 . S
C1363 C1371 1.503 . S
C1364 C1363 1.410 . S
C1364 C1365 1.392 . S
C1364 C1367 1.511 . S
C1365 C1361 1.376 . S
C1365 C1364 1.392 . S
C1365 H1377 0.929 . S
C1366 C1362 1.531 . S
C1366 H1378 0.960 . S
C1366 H1379 0.962 . S
C1366 H1380 0.960 . S
C1367 C1364 1.511 . S
C1367 H1381 0.961 . S
C1367 H1382 0.961 . S
C1367 H1383 0.961 . S
C1368 C1369 1.370 . S
C1368 C1370 1.363 . S
C1368 H1384 0.931 . S
C1369 C1368 1.370 . S
C1369 C1373 1.408 . S
C1370 C1368 1.363 . S
C1370 C1371 1.370 . S
C1370 C1374 1.524 . S
C1371 C1363 1.503 . S
C1371 C1370 1.370 . S
C1371 C1372 1.403 . S
C1372 C1371 1.403 . S
C1372 C1373 1.404 . S
C1372 C1375 1.539 . S
C1373 C1369 1.408 . S
C1373 C1372 1.404 . S
C1373 H1385 0.930 . S
C1374 C1370 1.524 . S
C1374 H1386 0.956 . S
C1374 H1387 0.961 . S
C1374 H1388 0.961 . S
C1375 C1372 1.539 . S
C1375 H1389 0.958 . S
C1375 H1390 0.961 . S
C1375 H1391 0.960 . S
H1376 C1360 0.931 . S
H1377 C1365 0.929 . S
H1378 C1366 0.960 . S
H1379 C1366 0.962 . S
H1380 C1366 0.960 . S
H1381 C1367 0.961 . S
H1382 C1367 0.961 . S
H1383 C1367 0.961 . S
H1384 C1368 0.931 . S
H1385 C1373 0.930 . S
H1386 C1374 0.956 . S
H1387 C1374 0.961 . S
H1388 C1374 0.961 . S
H1389 C1375 0.958 . S
H1390 C1375 0.961 . S
H1391 C1375 0.960 . S
C1392 C1393 1.391 . S
C1392 C1394 1.394 . S
C1392 H1408 0.931 . S
C1393 C1392 1.391 . S
C1393 C1397 1.376 . S
C1394 C1392 1.394 . S
C1394 C1395 1.369 . S
C1394 C1398 1.531 . S
C1395 C1394 1.369 . S
C1395 C1396 1.410 . S
C1395 C1403 1.503 . S
C1396 C1395 1.410 . S
C1396 C1397 1.392 . S
C1396 C1399 1.511 . S
C1397 C1393 1.376 . S
C1397 C1396 1.392 . S
C1397 H1409 0.929 . S
C1398 C1394 1.531 . S
C1398 H1410 0.960 . S
C1398 H1411 0.962 . S
C1398 H1412 0.960 . S
C1399 C1396 1.511 . S
C1399 H1413 0.961 . S
C1399 H1414 0.961 . S
C1399 H1415 0.961 . S
C1400 C1401 1.370 . S
C1400 C1402 1.363 . S
C1400 H1416 0.931 . S
C1401 C1400 1.370 . S
C1401 C1405 1.408 . S
C1402 C1400 1.363 . S
C1402 C1403 1.370 . S
C1402 C1406 1.524 . S
C1403 C1395 1.503 . S
C1403 C1402 1.370 . S
C1403 C1404 1.403 . S
C1404 C1403 1.403 . S
C1404 C1405 1.404 . S
C1404 C1407 1.539 . S
C1405 C1401 1.408 . S
C1405 C1404 1.404 . S
C1405 H1417 0.930 . S
C1406 C1402 1.524 . S
C1406 H1418 0.956 . S
C1406 H1419 0.961 . S
C1406 H1420 0.961 . S
C1407 C1404 1.539 . S
C1407 H1421 0.958 . S
C1407 H1422 0.961 . S
C1407 H1423 0.960 . S
H1408 C1392 0.931 . S
H1409 C1397 0.929 . S
H1410 C1398 0.960 . S
H1411 C1398 0.962 . S
H1412 C1398 0.960 . S
H1413 C1399 0.961 . S
H1414 C1399 0.961 . S
H1415 C1399 0.961 . S
H1416 C1400 0.931 . S
H1417 C1405 0.930 . S
H1418 C1406 0.956 . S
H1419 C1406 0.961 . S
H1420 C1406 0.961 . S
H1421 C1407 0.958 . S
H1422 C1407 0.961 . S
H1423 C1407 0.960 . S
C1424 C1425 1.391 . S
C1424 C1426 1.394 . S
C1424 H1440 0.931 . S
C1425 C1424 1.391 . S
C1425 C1429 1.376 . S
C1426 C1424 1.394 . S
C1426 C1427 1.369 . S
C1426 C1430 1.531 . S
C1427 C1426 1.369 . S
C1427 C1428 1.410 . S
C1427 C1435 1.503 . S
C1428 C1427 1.410 . S
C1428 C1429 1.392 . S
C1428 C1431 1.511 . S
C1429 C1425 1.376 . S
C1429 C1428 1.392 . S
C1429 H1441 0.929 . S
C1430 C1426 1.531 . S
C1430 H1442 0.960 . S
C1430 H1443 0.962 . S
C1430 H1444 0.960 . S
C1431 C1428 1.511 . S
C1431 H1445 0.961 . S
C1431 H1446 0.961 . S
C1431 H1447 0.961 . S
C1432 C1433 1.370 . S
C1432 C1434 1.363 . S
C1432 H1448 0.931 . S
C1433 C1432 1.370 . S
C1433 C1437 1.408 . S
C1434 C1432 1.363 . S
C1434 C1435 1.370 . S
C1434 C1438 1.524 . S
C1435 C1427 1.503 . S
C1435 C1434 1.370 . S
C1435 C1436 1.403 . S
C1436 C1435 1.403 . S
C1436 C1437 1.404 . S
C1436 C1439 1.539 . S
C1437 C1433 1.408 . S
C1437 C1436 1.404 . S
C1437 H1449 0.930 . S
C1438 C1434 1.524 . S
C1438 H1450 0.956 . S
C1438 H1451 0.961 . S
C1438 H1452 0.961 . S
C1439 C1436 1.539 . S
C1439 H1453 0.958 . S
C1439 H1454 0.961 . S
C1439 H1455 0.960 . S
H1440 C1424 0.931 . S
H1441 C1429 0.929 . S
H1442 C1430 0.960 . S
H1443 C1430 0.962 . S
H1444 C1430 0.960 . S
H1445 C1431 0.961 . S
H1446 C1431 0.961 . S
H1447 C1431 0.961 . S
H1448 C1432 0.931 . S
H1449 C1437 0.930 . S
H1450 C1438 0.956 . S
H1451 C1438 0.961 . S
H1452 C1438 0.961 . S
H1453 C1439 0.958 . S
H1454 C1439 0.961 . S
H1455 C1439 0.960 . S
C1456 C1457 1.391 . S
C1456 C1458 1.394 . S
C1456 H1472 0.931 . S
C1457 C1456 1.391 . S
C1457 C1461 1.376 . S
C1458 C1456 1.394 . S
C1458 C1459 1.369 . S
C1458 C1462 1.531 . S
C1459 C1458 1.369 . S
C1459 C1460 1.410 . S
C1459 C1467 1.503 . S
C1460 C1459 1.410 . S
C1460 C1461 1.392 . S
C1460 C1463 1.511 . S
C1461 C1457 1.376 . S
C1461 C1460 1.392 . S
C1461 H1473 0.929 . S
C1462 C1458 1.531 . S
C1462 H1474 0.960 . S
C1462 H1475 0.962 . S
C1462 H1476 0.960 . S
C1463 C1460 1.511 . S
C1463 H1477 0.961 . S
C1463 H1478 0.961 . S
C1463 H1479 0.961 . S
C1464 C1465 1.370 . S
C1464 C1466 1.363 . S
C1464 H1480 0.931 . S
C1465 C1464 1.370 . S
C1465 C1469 1.408 . S
C1466 C1464 1.363 . S
C1466 C1467 1.370 . S
C1466 C1470 1.524 . S
C1467 C1459 1.503 . S
C1467 C1466 1.370 . S
C1467 C1468 1.403 . S
C1468 C1467 1.403 . S
C1468 C1469 1.404 . S
C1468 C1471 1.539 . S
C1469 C1465 1.408 . S
C1469 C1468 1.404 . S
C1469 H1481 0.930 . S
C1470 C1466 1.524 . S
C1470 H1482 0.956 . S
C1470 H1483 0.961 . S
C1470 H1484 0.961 . S
C1471 C1468 1.539 . S
C1471 H1485 0.958 . S
C1471 H1486 0.961 . S
C1471 H1487 0.960 . S
H1472 C1456 0.931 . S
H1473 C1461 0.929 . S
H1474 C1462 0.960 . S
H1475 C1462 0.962 . S
H1476 C1462 0.960 . S
H1477 C1463 0.961 . S
H1478 C1463 0.961 . S
H1479 C1463 0.961 . S
H1480 C1464 0.931 . S
H1481 C1469 0.930 . S
H1482 C1470 0.956 . S
H1483 C1470 0.961 . S
H1484 C1470 0.961 . S
H1485 C1471 0.958 . S
H1486 C1471 0.961 . S
H1487 C1471 0.960 . S
C1488 C1489 1.391 . S
C1488 C1490 1.394 . S
C1488 H1504 0.931 . S
C1489 C1488 1.391 . S
C1489 C1493 1.376 . S
C1490 C1488 1.394 . S
C1490 C1491 1.369 . S
C1490 C1494 1.531 . S
C1491 C1490 1.369 . S
C1491 C1492 1.410 . S
C1491 C1499 1.503 . S
C1492 C1491 1.410 . S
C1492 C1493 1.392 . S
C1492 C1495 1.511 . S
C1493 C1489 1.376 . S
C1493 C1492 1.392 . S
C1493 H1505 0.929 . S
C1494 C1490 1.531 . S
C1494 H1506 0.960 . S
C1494 H1507 0.962 . S
C1494 H1508 0.960 . S
C1495 C1492 1.511 . S
C1495 H1509 0.961 . S
C1495 H1510 0.961 . S
C1495 H1511 0.961 . S
C1496 C1497 1.370 . S
C1496 C1498 1.363 . S
C1496 H1512 0.931 . S
C1497 C1496 1.370 . S
C1497 C1501 1.408 . S
C1498 C1496 1.363 . S
C1498 C1499 1.370 . S
C1498 C1502 1.524 . S
C1499 C1491 1.503 . S
C1499 C1498 1.370 . S
C1499 C1500 1.403 . S
C1500 C1499 1.403 . S
C1500 C1501 1.404 . S
C1500 C1503 1.539 . S
C1501 C1497 1.408 . S
C1501 C1500 1.404 . S
C1501 H1513 0.930 . S
C1502 C1498 1.524 . S
C1502 H1514 0.956 . S
C1502 H1515 0.961 . S
C1502 H1516 0.961 . S
C1503 C1500 1.539 . S
C1503 H1517 0.958 . S
C1503 H1518 0.961 . S
C1503 H1519 0.960 . S
H1504 C1488 0.931 . S
H1505 C1493 0.929 . S
H1506 C1494 0.960 . S
H1507 C1494 0.962 . S
H1508 C1494 0.960 . S
H1509 C1495 0.961 . S
H1510 C1495 0.961 . S
H1511 C1495 0.961 . S
H1512 C1496 0.931 . S
H1513 C1501 0.930 . S
H1514 C1502 0.956 . S
H1515 C1502 0.961 . S
H1516 C1502 0.961 . S
H1517 C1503 0.958 . S
H1518 C1503 0.961 . S
H1519 C1503 0.960 . S
C1520 C1521 1.391 . S
C1520 C1522 1.394 . S
C1520 H1536 0.931 1_565 S
C1521 C1520 1.391 . S
C1521 C1525 1.376 . S
C1522 C1520 1.394 . S
C1522 C1523 1.369 . S
C1522 C1526 1.531 . S
C1523 C1522 1.369 . S
C1523 C1524 1.410 . S
C1523 C1531 1.503 . S
C1524 C1523 1.410 . S
C1524 C1525 1.392 . S
C1524 C1527 1.511 . S
C1525 C1521 1.376 . S
C1525 C1524 1.392 . S
C1525 H1537 0.929 . S
C1526 C1522 1.531 . S
C1526 H1538 0.960 . S
C1526 H1539 0.962 . S
C1526 H1540 0.960 . S
C1527 C1524 1.511 . S
C1527 H1541 0.961 . S
C1527 H1542 0.961 . S
C1527 H1543 0.961 . S
C1528 C1529 1.370 . S
C1528 C1530 1.363 . S
C1528 H1544 0.931 . S
C1529 C1528 1.370 . S
C1529 C1533 1.408 . S
C1530 C1528 1.363 . S
C1530 C1531 1.370 . S
C1530 C1534 1.524 . S
C1531 C1523 1.503 . S
C1531 C1530 1.370 . S
C1531 C1532 1.403 . S
C1532 C1531 1.403 . S
C1532 C1533 1.404 . S
C1532 C1535 1.539 . S
C1533 C1529 1.408 . S
C1533 C1532 1.404 . S
C1533 H1545 0.930 . S
C1534 C1530 1.524 . S
C1534 H1546 0.956 . S
C1534 H1547 0.961 . S
C1534 H1548 0.961 . S
C1535 C1532 1.539 . S
C1535 H1549 0.958 . S
C1535 H1550 0.961 . S
C1535 H1551 0.960 . S
H1536 C1520 0.931 1_545 S
H1537 C1525 0.929 . S
H1538 C1526 0.960 . S
H1539 C1526 0.962 . S
H1540 C1526 0.960 . S
H1541 C1527 0.961 . S
H1542 C1527 0.961 . S
H1543 C1527 0.961 . S
H1544 C1528 0.931 . S
H1545 C1533 0.930 . S
H1546 C1534 0.956 . S
H1547 C1534 0.961 . S
H1548 C1534 0.961 . S
H1549 C1535 0.958 . S
H1550 C1535 0.961 . S
H1551 C1535 0.960 . S
C1552 C1553 1.391 . S
C1552 C1554 1.394 . S
C1552 H1568 0.931 . S
C1553 C1552 1.391 . S
C1553 C1557 1.376 . S
C1554 C1552 1.394 . S
C1554 C1555 1.369 . S
C1554 C1558 1.531 . S
C1555 C1554 1.369 . S
C1555 C1556 1.410 . S
C1555 C1563 1.503 . S
C1556 C1555 1.410 . S
C1556 C1557 1.392 . S
C1556 C1559 1.511 . S
C1557 C1553 1.376 . S
C1557 C1556 1.392 . S
C1557 H1569 0.929 . S
C1558 C1554 1.531 . S
C1558 H1570 0.960 . S
C1558 H1571 0.962 . S
C1558 H1572 0.960 . S
C1559 C1556 1.511 . S
C1559 H1573 0.961 . S
C1559 H1574 0.961 . S
C1559 H1575 0.961 . S
C1560 C1561 1.370 . S
C1560 C1562 1.363 . S
C1560 H1576 0.931 . S
C1561 C1560 1.370 . S
C1561 C1565 1.408 . S
C1562 C1560 1.363 . S
C1562 C1563 1.370 . S
C1562 C1566 1.524 . S
C1563 C1555 1.503 . S
C1563 C1562 1.370 . S
C1563 C1564 1.403 . S
C1564 C1563 1.403 . S
C1564 C1565 1.404 . S
C1564 C1567 1.539 . S
C1565 C1561 1.408 . S
C1565 C1564 1.404 . S
C1565 H1577 0.930 1_655 S
C1566 C1562 1.524 . S
C1566 H1578 0.956 . S
C1566 H1579 0.961 . S
C1566 H1580 0.961 . S
C1567 C1564 1.539 . S
C1567 H1581 0.958 . S
C1567 H1582 0.961 . S
C1567 H1583 0.960 . S
H1568 C1552 0.931 . S
H1569 C1557 0.929 . S
H1570 C1558 0.960 . S
H1571 C1558 0.962 . S
H1572 C1558 0.960 . S
H1573 C1559 0.961 . S
H1574 C1559 0.961 . S
H1575 C1559 0.961 . S
H1576 C1560 0.931 . S
H1577 C1565 0.930 1_455 S
H1578 C1566 0.956 . S
H1579 C1566 0.961 . S
H1580 C1566 0.961 . S
H1581 C1567 0.958 . S
H1582 C1567 0.961 . S
H1583 C1567 0.960 . S
C1584 C1585 1.391 . S
C1584 C1586 1.394 . S
C1584 H1600 0.931 . S
C1585 C1584 1.391 . S
C1585 C1589 1.376 . S
C1586 C1584 1.394 . S
C1586 C1587 1.369 . S
C1586 C1590 1.531 . S
C1587 C1586 1.369 . S
C1587 C1588 1.410 . S
C1587 C1595 1.503 . S
C1588 C1587 1.410 . S
C1588 C1589 1.392 . S
C1588 C1591 1.511 . S
C1589 C1585 1.376 . S
C1589 C1588 1.392 . S
C1589 H1601 0.929 . S
C1590 C1586 1.531 . S
C1590 H1602 0.960 . S
C1590 H1603 0.962 . S
C1590 H1604 0.960 . S
C1591 C1588 1.511 . S
C1591 H1605 0.961 . S
C1591 H1606 0.961 . S
C1591 H1607 0.961 . S
C1592 C1593 1.370 . S
C1592 C1594 1.363 . S
C1592 H1608 0.931 . S
C1593 C1592 1.370 . S
C1593 C1597 1.408 . S
C1594 C1592 1.363 . S
C1594 C1595 1.370 . S
C1594 C1598 1.524 . S
C1595 C1587 1.503 . S
C1595 C1594 1.370 . S
C1595 C1596 1.403 . S
C1596 C1595 1.403 . S
C1596 C1597 1.404 . S
C1596 C1599 1.539 . S
C1597 C1593 1.408 . S
C1597 C1596 1.404 . S
C1597 H1609 0.930 . S
C1598 C1594 1.524 . S
C1598 H1610 0.956 . S
C1598 H1611 0.961 . S
C1598 H1612 0.961 . S
C1599 C1596 1.539 . S
C1599 H1613 0.958 . S
C1599 H1614 0.961 . S
C1599 H1615 0.960 . S
H1600 C1584 0.931 . S
H1601 C1589 0.929 . S
H1602 C1590 0.960 . S
H1603 C1590 0.962 . S
H1604 C1590 0.960 . S
H1605 C1591 0.961 . S
H1606 C1591 0.961 . S
H1607 C1591 0.961 . S
H1608 C1592 0.931 . S
H1609 C1597 0.930 . S
H1610 C1598 0.956 . S
H1611 C1598 0.961 . S
H1612 C1598 0.961 . S
H1613 C1599 0.958 . S
H1614 C1599 0.961 . S
H1615 C1599 0.960 . S
C1616 C1617 1.391 . S
C1616 C1618 1.394 . S
C1616 H1632 0.931 . S
C1617 C1616 1.391 . S
C1617 C1621 1.376 . S
C1618 C1616 1.394 . S
C1618 C1619 1.369 . S
C1618 C1622 1.531 . S
C1619 C1618 1.369 . S
C1619 C1620 1.410 . S
C1619 C1627 1.503 . S
C1620 C1619 1.410 . S
C1620 C1621 1.392 . S
C1620 C1623 1.511 . S
C1621 C1617 1.376 . S
C1621 C1620 1.392 . S
C1621 H1633 0.929 . S
C1622 C1618 1.531 . S
C1622 H1634 0.960 . S
C1622 H1635 0.962 . S
C1622 H1636 0.960 . S
C1623 C1620 1.511 . S
C1623 H1637 0.961 . S
C1623 H1638 0.961 . S
C1623 H1639 0.961 . S
C1624 C1625 1.370 . S
C1624 C1626 1.363 . S
C1624 H1640 0.931 . S
C1625 C1624 1.370 . S
C1625 C1629 1.408 . S
C1626 C1624 1.363 . S
C1626 C1627 1.370 . S
C1626 C1630 1.524 . S
C1627 C1619 1.503 . S
C1627 C1626 1.370 . S
C1627 C1628 1.403 . S
C1628 C1627 1.403 . S
C1628 C1629 1.404 . S
C1628 C1631 1.539 . S
C1629 C1625 1.408 . S
C1629 C1628 1.404 . S
C1629 H1641 0.930 1_655 S
C1630 C1626 1.524 . S
C1630 H1642 0.956 . S
C1630 H1643 0.961 . S
C1630 H1644 0.961 . S
C1631 C1628 1.539 . S
C1631 H1645 0.958 . S
C1631 H1646 0.961 . S
C1631 H1647 0.960 . S
H1632 C1616 0.931 . S
H1633 C1621 0.929 . S
H1634 C1622 0.960 . S
H1635 C1622 0.962 . S
H1636 C1622 0.960 . S
H1637 C1623 0.961 . S
H1638 C1623 0.961 . S
H1639 C1623 0.961 . S
H1640 C1624 0.931 . S
H1641 C1629 0.930 1_455 S
H1642 C1630 0.956 . S
H1643 C1630 0.961 . S
H1644 C1630 0.961 . S
H1645 C1631 0.958 . S
H1646 C1631 0.961 . S
H1647 C1631 0.960 . S
C1648 C1649 1.391 . S
C1648 C1650 1.394 . S
C1648 H1664 0.931 . S
C1649 C1648 1.391 . S
C1649 C1653 1.376 . S
C1650 C1648 1.394 . S
C1650 C1651 1.369 . S
C1650 C1654 1.531 . S
C1651 C1650 1.369 . S
C1651 C1652 1.410 . S
C1651 C1659 1.503 . S
C1652 C1651 1.410 . S
C1652 C1653 1.392 . S
C1652 C1655 1.511 . S
C1653 C1649 1.376 . S
C1653 C1652 1.392 . S
C1653 H1665 0.929 . S
C1654 C1650 1.531 . S
C1654 H1666 0.960 . S
C1654 H1667 0.962 . S
C1654 H1668 0.960 . S
C1655 C1652 1.511 . S
C1655 H1669 0.961 . S
C1655 H1670 0.961 . S
C1655 H1671 0.961 . S
C1656 C1657 1.370 . S
C1656 C1658 1.363 . S
C1656 H1672 0.931 . S
C1657 C1656 1.370 . S
C1657 C1661 1.408 . S
C1658 C1656 1.363 . S
C1658 C1659 1.370 . S
C1658 C1662 1.524 . S
C1659 C1651 1.503 . S
C1659 C1658 1.370 . S
C1659 C1660 1.403 . S
C1660 C1659 1.403 . S
C1660 C1661 1.404 . S
C1660 C1663 1.539 . S
C1661 C1657 1.408 . S
C1661 C1660 1.404 . S
C1661 H1673 0.930 . S
C1662 C1658 1.524 . S
C1662 H1674 0.956 . S
C1662 H1675 0.961 . S
C1662 H1676 0.961 . S
C1663 C1660 1.539 . S
C1663 H1677 0.958 . S
C1663 H1678 0.961 . S
C1663 H1679 0.960 . S
H1664 C1648 0.931 . S
H1665 C1653 0.929 . S
H1666 C1654 0.960 . S
H1667 C1654 0.962 . S
H1668 C1654 0.960 . S
H1669 C1655 0.961 . S
H1670 C1655 0.961 . S
H1671 C1655 0.961 . S
H1672 C1656 0.931 . S
H1673 C1661 0.930 . S
H1674 C1662 0.956 . S
H1675 C1662 0.961 . S
H1676 C1662 0.961 . S
H1677 C1663 0.958 . S
H1678 C1663 0.961 . S
H1679 C1663 0.960 . S
C1680 C1681 1.391 . S
C1680 C1682 1.394 . S
C1680 H1696 0.931 . S
C1681 C1680 1.391 . S
C1681 C1685 1.376 . S
C1682 C1680 1.394 . S
C1682 C1683 1.369 . S
C1682 C1686 1.531 . S
C1683 C1682 1.369 . S
C1683 C1684 1.410 . S
C1683 C1691 1.503 . S
C1684 C1683 1.410 . S
C1684 C1685 1.392 . S
C1684 C1687 1.511 . S
C1685 C1681 1.376 . S
C1685 C1684 1.392 . S
C1685 H1697 0.929 . S
C1686 C1682 1.531 . S
C1686 H1698 0.960 . S
C1686 H1699 0.962 . S
C1686 H1700 0.960 . S
C1687 C1684 1.511 . S
C1687 H1701 0.961 . S
C1687 H1702 0.961 . S
C1687 H1703 0.961 . S
C1688 C1689 1.370 . S
C1688 C1690 1.363 . S
C1688 H1704 0.931 . S
C1689 C1688 1.370 . S
C1689 C1693 1.408 . S
C1690 C1688 1.363 . S
C1690 C1691 1.370 . S
C1690 C1694 1.524 . S
C1691 C1683 1.503 . S
C1691 C1690 1.370 . S
C1691 C1692 1.403 . S
C1692 C1691 1.403 . S
C1692 C1693 1.404 . S
C1692 C1695 1.539 . S
C1693 C1689 1.408 . S
C1693 C1692 1.404 . S
C1693 H1705 0.930 . S
C1694 C1690 1.524 . S
C1694 H1706 0.956 . S
C1694 H1707 0.961 . S
C1694 H1708 0.961 . S
C1695 C1692 1.539 . S
C1695 H1709 0.958 . S
C1695 H1710 0.961 . S
C1695 H1711 0.960 . S
H1696 C1680 0.931 . S
H1697 C1685 0.929 . S
H1698 C1686 0.960 . S
H1699 C1686 0.962 . S
H1700 C1686 0.960 . S
H1701 C1687 0.961 . S
H1702 C1687 0.961 . S
H1703 C1687 0.961 . S
H1704 C1688 0.931 . S
H1705 C1693 0.930 . S
H1706 C1694 0.956 . S
H1707 C1694 0.961 . S
H1708 C1694 0.961 . S
H1709 C1695 0.958 . S
H1710 C1695 0.961 . S
H1711 C1695 0.960 . S
C1712 C1713 1.391 . S
C1712 C1714 1.394 . S
C1712 H1728 0.931 . S
C1713 C1712 1.391 . S
C1713 C1717 1.376 . S
C1714 C1712 1.394 . S
C1714 C1715 1.369 . S
C1714 C1718 1.531 . S
C1715 C1714 1.369 . S
C1715 C1716 1.410 . S
C1715 C1723 1.503 . S
C1716 C1715 1.410 . S
C1716 C1717 1.392 . S
C1716 C1719 1.511 . S
C1717 C1713 1.376 . S
C1717 C1716 1.392 . S
C1717 H1729 0.929 . S
C1718 C1714 1.531 . S
C1718 H1730 0.960 . S
C1718 H1731 0.962 . S
C1718 H1732 0.960 . S
C1719 C1716 1.511 . S
C1719 H1733 0.961 . S
C1719 H1734 0.961 . S
C1719 H1735 0.961 . S
C1720 C1721 1.370 . S
C1720 C1722 1.363 . S
C1720 H1736 0.931 . S
C1721 C1720 1.370 . S
C1721 C1725 1.408 . S
C1722 C1720 1.363 . S
C1722 C1723 1.370 . S
C1722 C1726 1.524 . S
C1723 C1715 1.503 . S
C1723 C1722 1.370 . S
C1723 C1724 1.403 . S
C1724 C1723 1.403 . S
C1724 C1725 1.404 . S
C1724 C1727 1.539 . S
C1725 C1721 1.408 . S
C1725 C1724 1.404 . S
C1725 H1737 0.930 . S
C1726 C1722 1.524 . S
C1726 H1738 0.956 . S
C1726 H1739 0.961 . S
C1726 H1740 0.961 . S
C1727 C1724 1.539 . S
C1727 H1741 0.958 . S
C1727 H1742 0.961 . S
C1727 H1743 0.960 . S
H1728 C1712 0.931 . S
H1729 C1717 0.929 . S
H1730 C1718 0.960 . S
H1731 C1718 0.962 . S
H1732 C1718 0.960 . S
H1733 C1719 0.961 . S
H1734 C1719 0.961 . S
H1735 C1719 0.961 . S
H1736 C1720 0.931 . S
H1737 C1725 0.930 . S
H1738 C1726 0.956 . S
H1739 C1726 0.961 . S
H1740 C1726 0.961 . S
H1741 C1727 0.958 . S
H1742 C1727 0.961 . S
H1743 C1727 0.960 . S
C1744 C1745 1.391 . S
C1744 C1746 1.394 . S
C1744 H1760 0.931 . S
C1745 C1744 1.391 . S
C1745 C1749 1.376 . S
C1746 C1744 1.394 . S
C1746 C1747 1.369 . S
C1746 C1750 1.531 . S
C1747 C1746 1.369 . S
C1747 C1748 1.410 . S
C1747 C1755 1.503 . S
C1748 C1747 1.410 . S
C1748 C1749 1.392 . S
C1748 C1751 1.511 . S
C1749 C1745 1.376 . S
C1749 C1748 1.392 . S
C1749 H1761 0.929 . S
C1750 C1746 1.531 . S
C1750 H1762 0.960 . S
C1750 H1763 0.962 . S
C1750 H1764 0.960 . S
C1751 C1748 1.511 . S
C1751 H1765 0.961 . S
C1751 H1766 0.961 . S
C1751 H1767 0.961 . S
C1752 C1753 1.370 . S
C1752 C1754 1.363 . S
C1752 H1768 0.931 . S
C1753 C1752 1.370 . S
C1753 C1757 1.408 . S
C1754 C1752 1.363 . S
C1754 C1755 1.370 . S
C1754 C1758 1.524 . S
C1755 C1747 1.503 . S
C1755 C1754 1.370 . S
C1755 C1756 1.403 . S
C1756 C1755 1.403 . S
C1756 C1757 1.404 . S
C1756 C1759 1.539 . S
C1757 C1753 1.408 . S
C1757 C1756 1.404 . S
C1757 H1769 0.930 . S
C1758 C1754 1.524 . S
C1758 H1770 0.956 . S
C1758 H1771 0.961 . S
C1758 H1772 0.961 . S
C1759 C1756 1.539 . S
C1759 H1773 0.958 . S
C1759 H1774 0.961 . S
C1759 H1775 0.960 . S
H1760 C1744 0.931 . S
H1761 C1749 0.929 . S
H1762 C1750 0.960 . S
H1763 C1750 0.962 . S
H1764 C1750 0.960 . S
H1765 C1751 0.961 . S
H1766 C1751 0.961 . S
H1767 C1751 0.961 . S
H1768 C1752 0.931 . S
H1769 C1757 0.930 . S
H1770 C1758 0.956 . S
H1771 C1758 0.961 . S
H1772 C1758 0.961 . S
H1773 C1759 0.958 . S
H1774 C1759 0.961 . S
H1775 C1759 0.960 . S
C1776 C1777 1.391 . S
C1776 C1778 1.394 . S
C1776 H1792 0.931 . S
C1777 C1776 1.391 . S
C1777 C1781 1.376 . S
C1778 C1776 1.394 . S
C1778 C1779 1.369 . S
C1778 C1782 1.531 . S
C1779 C1778 1.369 . S
C1779 C1780 1.410 . S
C1779 C1787 1.503 . S
C1780 C1779 1.410 . S
C1780 C1781 1.392 . S
C1780 C1783 1.511 . S
C1781 C1777 1.376 . S
C1781 C1780 1.392 . S
C1781 H1793 0.929 . S
C1782 C1778 1.531 . S
C1782 H1794 0.960 . S
C1782 H1795 0.962 . S
C1782 H1796 0.960 . S
C1783 C1780 1.511 . S
C1783 H1797 0.961 . S
C1783 H1798 0.961 . S
C1783 H1799 0.961 . S
C1784 C1785 1.370 . S
C1784 C1786 1.363 . S
C1784 H1800 0.931 . S
C1785 C1784 1.370 . S
C1785 C1789 1.408 . S
C1786 C1784 1.363 . S
C1786 C1787 1.370 . S
C1786 C1790 1.524 . S
C1787 C1779 1.503 . S
C1787 C1786 1.370 . S
C1787 C1788 1.403 . S
C1788 C1787 1.403 . S
C1788 C1789 1.404 . S
C1788 C1791 1.539 . S
C1789 C1785 1.408 . S
C1789 C1788 1.404 . S
C1789 H1801 0.930 . S
C1790 C1786 1.524 . S
C1790 H1802 0.956 . S
C1790 H1803 0.961 . S
C1790 H1804 0.961 . S
C1791 C1788 1.539 . S
C1791 H1805 0.958 . S
C1791 H1806 0.961 . S
C1791 H1807 0.960 . S
H1792 C1776 0.931 . S
H1793 C1781 0.929 . S
H1794 C1782 0.960 . S
H1795 C1782 0.962 . S
H1796 C1782 0.960 . S
H1797 C1783 0.961 . S
H1798 C1783 0.961 . S
H1799 C1783 0.961 . S
H1800 C1784 0.931 . S
H1801 C1789 0.930 . S
H1802 C1790 0.956 . S
H1803 C1790 0.961 . S
H1804 C1790 0.961 . S
H1805 C1791 0.958 . S
H1806 C1791 0.961 . S
H1807 C1791 0.960 . S
C1808 C1809 1.391 . S
C1808 C1810 1.394 . S
C1808 H1824 0.931 . S
C1809 C1808 1.391 . S
C1809 C1813 1.376 . S
C1810 C1808 1.394 . S
C1810 C1811 1.369 . S
C1810 C1814 1.531 . S
C1811 C1810 1.369 . S
C1811 C1812 1.410 . S
C1811 C1819 1.503 . S
C1812 C1811 1.410 . S
C1812 C1813 1.392 . S
C1812 C1815 1.511 . S
C1813 C1809 1.376 . S
C1813 C1812 1.392 . S
C1813 H1825 0.929 . S
C1814 C1810 1.531 . S
C1814 H1826 0.960 . S
C1814 H1827 0.962 . S
C1814 H1828 0.960 . S
C1815 C1812 1.511 . S
C1815 H1829 0.961 . S
C1815 H1830 0.961 . S
C1815 H1831 0.961 . S
C1816 C1817 1.370 . S
C1816 C1818 1.363 . S
C1816 H1832 0.931 . S
C1817 C1816 1.370 . S
C1817 C1821 1.408 . S
C1818 C1816 1.363 . S
C1818 C1819 1.370 . S
C1818 C1822 1.524 . S
C1819 C1811 1.503 . S
C1819 C1818 1.370 . S
C1819 C1820 1.403 . S
C1820 C1819 1.403 . S
C1820 C1821 1.404 . S
C1820 C1823 1.539 . S
C1821 C1817 1.408 . S
C1821 C1820 1.404 . S
C1821 H1833 0.930 . S
C1822 C1818 1.524 . S
C1822 H1834 0.956 . S
C1822 H1835 0.961 . S
C1822 H1836 0.961 . S
C1823 C1820 1.539 . S
C1823 H1837 0.958 . S
C1823 H1838 0.961 . S
C1823 H1839 0.960 . S
H1824 C1808 0.931 . S
H1825 C1813 0.929 . S
H1826 C1814 0.960 . S
H1827 C1814 0.962 . S
H1828 C1814 0.960 . S
H1829 C1815 0.961 . S
H1830 C1815 0.961 . S
H1831 C1815 0.961 . S
H1832 C1816 0.931 . S
H1833 C1821 0.930 . S
H1834 C1822 0.956 . S
H1835 C1822 0.961 . S
H1836 C1822 0.961 . S
H1837 C1823 0.958 . S
H1838 C1823 0.961 . S
H1839 C1823 0.960 . S
C1840 C1841 1.391 1_565 S
C1840 C1842 1.394 . S
C1840 H1856 0.931 . S
C1841 C1840 1.391 1_545 S
C1841 C1845 1.376 . S
C1842 C1840 1.394 . S
C1842 C1843 1.379 . S
C1842 C1846 1.531 . S
C1843 C1842 1.379 . S
C1843 C1844 1.393 1_565 S
C1843 C1851 1.509 1_554 S
C1844 C1843 1.393 1_545 S
C1844 C1845 1.392 . S
C1844 C1847 1.511 . S
C1845 C1841 1.376 . S
C1845 C1844 1.392 . S
C1845 H1857 0.929 . S
C1846 C1842 1.531 . S
C1846 H1858 0.960 . S
C1846 H1859 0.962 . S
C1846 H1860 0.960 . S
C1847 C1844 1.511 . S
C1847 H1861 0.961 . S
C1847 H1862 0.961 1_554 S
C1847 H1863 0.961 . S
C1848 C1849 1.374 . S
C1848 C1850 1.362 1_565 S
C1848 H1864 0.928 1_565 S
C1849 C1848 1.374 . S
C1849 C1853 1.408 . S
C1850 C1848 1.362 1_545 S
C1850 C1851 1.370 1_545 S
C1850 C1854 1.524 . S
C1851 C1843 1.509 1_556 S
C1851 C1850 1.370 1_565 S
C1851 C1852 1.403 . S
C1852 C1851 1.403 . S
C1852 C1853 1.404 . S
C1852 C1855 1.539 . S
C1853 C1849 1.408 . S
C1853 C1852 1.404 . S
C1853 H1865 0.930 . S
C1854 C1850 1.524 . S
C1854 H1866 0.956 . S
C1854 H1867 0.961 . S
C1854 H1868 0.961 . S
C1855 C1852 1.539 . S
C1855 H1869 0.950 1_556 S
C1855 H1870 0.961 . S
C1855 H1871 0.960 1_556 S
H1856 C1840 0.931 . S
H1857 C1845 0.929 . S
H1858 C1846 0.960 . S
H1859 C1846 0.962 . S
H1860 C1846 0.960 . S
H1861 C1847 0.961 . S
H1862 C1847 0.961 1_556 S
H1863 C1847 0.961 . S
H1864 C1848 0.928 1_545 S
H1865 C1853 0.930 . S
H1866 C1854 0.956 . S
H1867 C1854 0.961 . S
H1868 C1854 0.961 . S
H1869 C1855 0.950 1_554 S
H1870 C1855 0.961 . S
H1871 C1855 0.960 1_554 S
C1872 C1873 1.391 . S
C1872 C1874 1.394 . S
C1872 H1888 0.931 . S
C1873 C1872 1.391 . S
C1873 C1877 1.376 . S
C1874 C1872 1.394 . S
C1874 C1875 1.369 . S
C1874 C1878 1.531 . S
C1875 C1874 1.369 . S
C1875 C1876 1.410 . S
C1875 C1883 1.508 1_556 S
C1876 C1875 1.410 . S
C1876 C1877 1.392 . S
C1876 C1879 1.511 . S
C1877 C1873 1.376 . S
C1877 C1876 1.392 . S
C1877 H1889 0.929 . S
C1878 C1874 1.531 . S
C1878 H1890 0.960 1_556 S
C1878 H1891 0.962 1_455 S
C1878 H1892 0.960 . S
C1879 C1876 1.511 . S
C1879 H1893 0.961 . S
C1879 H1894 0.942 1_456 S
C1879 H1895 0.961 . S
C1880 C1881 1.370 . S
C1880 C1882 1.363 . S
C1880 H1896 0.931 . S
C1881 C1880 1.370 . S
C1881 C1885 1.408 1_655 S
C1882 C1880 1.363 . S
C1882 C1883 1.356 1_655 S
C1882 C1886 1.524 1_554 S
C1883 C1875 1.508 1_554 S
C1883 C1882 1.356 1_455 S
C1883 C1884 1.412 . S
C1884 C1883 1.412 . S
C1884 C1885 1.404 . S
C1884 C1887 1.539 . S
C1885 C1881 1.408 1_455 S
C1885 C1884 1.404 . S
C1885 H1897 0.930 . S
C1886 C1882 1.524 1_556 S
C1886 H1898 0.956 . S
C1886 H1899 0.961 . S
C1886 H1900 0.961 1_556 S
C1887 C1884 1.539 . S
C1887 H1901 0.958 . S
C1887 H1902 0.961 . S
C1887 H1903 0.960 . S
H1888 C1872 0.931 . S
H1889 C1877 0.929 . S
H1890 C1878 0.960 1_554 S
H1891 C1878 0.962 1_655 S
H1892 C1878 0.960 . S
H1893 C1879 0.961 . S
H1894 C1879 0.942 1_654 S
H1895 C1879 0.961 . S
H1896 C1880 0.931 . S
H1897 C1885 0.930 . S
H1898 C1886 0.956 . S
H1899 C1886 0.961 . S
H1900 C1886 0.961 1_554 S
H1901 C1887 0.958 . S
H1902 C1887 0.961 . S
H1903 C1887 0.960 . S
C1904 C1905 1.391 1_565 S
C1904 C1906 1.394 . S
C1904 H1920 0.931 . S
C1905 C1904 1.391 1_545 S
C1905 C1909 1.376 . S
C1906 C1904 1.394 . S
C1906 C1907 1.369 1_565 S
C1906 C1910 1.531 . S
C1907 C1906 1.369 1_545 S
C1907 C1908 1.410 . S
C1907 C1915 1.503 1_546 S
C1908 C1907 1.410 . S
C1908 C1909 1.392 . S
C1908 C1911 1.520 . S
C1909 C1905 1.376 . S
C1909 C1908 1.392 . S
C1909 H1921 0.929 . S
C1910 C1906 1.531 . S
C1910 H1922 0.960 . S
C1910 H1923 0.962 . S
C1910 H1924 0.960 . S
C1911 C1908 1.520 . S
C1911 H1925 0.966 . S
C1911 H1926 0.951 1_556 S
C1911 H1927 0.957 1_556 S
C1912 C1913 1.370 . S
C1912 C1914 1.363 . S
C1912 H1928 0.931 . S
C1913 C1912 1.370 . S
C1913 C1917 1.408 . S
C1914 C1912 1.363 . S
C1914 C1915 1.370 . S
C1914 C1918 1.524 . S
C1915 C1907 1.503 1_564 S
C1915 C1914 1.370 . S
C1915 C1916 1.400 1_565 S
C1916 C1915 1.400 1_545 S
C1916 C1917 1.398 1_545 S
C1916 C1919 1.550 . S
C1917 C1913 1.408 . S
C1917 C1916 1.398 1_565 S
C1917 H1929 0.930 . S
C1918 C1914 1.524 . S
C1918 H1930 0.956 1_554 S
C1918 H1931 0.984 1_554 S
C1918 H1932 0.961 . S
C1919 C1916 1.550 . S
C1919 H1933 0.958 . S
C1919 H1934 0.961 . S
C1919 H1935 0.960 . S
H1920 C1904 0.931 . S
H1921 C1909 0.929 . S
H1922 C1910 0.960 . S
H1923 C1910 0.962 . S
H1924 C1910 0.960 . S
H1925 C1911 0.966 . S
H1926 C1911 0.951 1_554 S
H1927 C1911 0.957 1_554 S
H1928 C1912 0.931 . S
H1929 C1917 0.930 . S
H1930 C1918 0.956 1_556 S
H1931 C1918 0.984 1_556 S
H1932 C1918 0.961 . S
H1933 C1919 0.958 . S
H1934 C1919 0.961 . S
H1935 C1919 0.960 . S
C1936 C1937 1.391 . S
C1936 C1938 1.394 1_655 S
C1936 H1952 0.931 1_655 S
C1937 C1936 1.391 . S
C1937 C1941 1.376 . S
C1938 C1936 1.394 1_455 S
C1938 C1939 1.369 1_455 S
C1938 C1942 1.531 . S
C1939 C1938 1.369 1_655 S
C1939 C1940 1.410 . S
C1939 C1947 1.492 1_656 S
C1940 C1939 1.410 . S
C1940 C1941 1.392 . S
C1940 C1943 1.511 . S
C1941 C1937 1.376 . S
C1941 C1940 1.392 . S
C1941 H1953 0.929 . S
C1942 C1938 1.531 . S
C1942 H1954 0.960 . S
C1942 H1955 0.962 . S
C1942 H1956 0.960 . S
C1943 C1940 1.511 . S
C1943 H1957 0.961 . S
C1943 H1958 0.961 1_556 S
C1943 H1959 0.961 1_556 S
C1944 C1945 1.370 . S
C1944 C1946 1.363 . S
C1944 H1960 0.931 . S
C1945 C1944 1.370 . S
C1945 C1949 1.408 1_455 S
C1946 C1944 1.363 . S
C1946 C1947 1.400 . S
C1946 C1950 1.524 . S
C1947 C1939 1.492 1_454 S
C1947 C1946 1.400 . S
C1947 C1948 1.386 1_455 S
C1948 C1947 1.386 1_655 S
C1948 C1949 1.404 . S
C1948 C1951 1.539 . S
C1949 C1945 1.408 1_655 S
C1949 C1948 1.404 . S
C1949 H1961 0.930 . S
C1950 C1946 1.524 . S
C1950 H1962 0.956 1_554 S
C1950 H1963 0.961 1_554 S
C1950 H1964 0.961 . S
C1951 C1948 1.539 . S
C1951 H1965 0.958 . S
C1951 H1966 0.961 . S
C1951 H1967 0.960 . S
H1952 C1936 0.931 1_455 S
H1953 C1941 0.929 . S
H1954 C1942 0.960 . S
H1955 C1942 0.962 . S
H1956 C1942 0.960 . S
H1957 C1943 0.961 . S
H1958 C1943 0.961 1_554 S
H1959 C1943 0.961 1_554 S
H1960 C1944 0.931 . S
H1961 C1949 0.930 . S
H1962 C1950 0.956 1_556 S
H1963 C1950 0.961 1_556 S
H1964 C1950 0.961 . S
H1965 C1951 0.958 . S
H1966 C1951 0.961 . S
H1967 C1951 0.960 . S
C945 C5 1.370 . S
C953 C418 1.371 . S
C977 C64 1.372 . S
C985 C241 1.372 . S
C1009 C300 1.363 . S
C1017 C123 1.368 . S
C1041 C182 1.365 . S
C1049 C359 1.368 . S
C1073 C477 1.366 . S
C1081 C890 1.369 . S
C1105 C713 1.368 . S
C1113 C536 1.369 . S
C1137 C772 1.368 . S
C1145 C595 1.370 . S
C1169 C831 1.371 . S
C1177 C654 1.370 . S
C1201 C52 1.519 . S
C1209 C682 1.527 . S
C1233 C111 1.524 . S
C1241 C505 1.522 . S
C1265 C564 1.512 . S
C1273 C170 1.524 . S
C1297 C229 1.517 . S
C1305 C623 1.520 . S
C1329 C288 1.527 . S
C1337 C800 1.526 . S
C1361 C859 1.521 . S
C1369 C347 1.522 . S
C1393 C406 1.526 . S
C1401 C918 1.522 . S
C1425 C741 1.512 . S
C1433 C465 1.524 . S
C1457 C524 1.519 1_545 S
C1465 C210 1.527 . S
C1489 C33 1.519 . S
C1497 C583 1.527 1_455 S
C1521 C642 1.514 1_565 S
C1529 C92 1.524 . S
C1553 C151 1.512 . S
C1561 C701 1.523 1_655 S
C1585 C760 1.518 1_565 S
C1593 C328 1.521 . S
C1617 C387 1.513 . S
C1625 C819 1.525 1_655 S
C1649 C446 1.521 . S
C1657 C878 1.528 1_545 S
C1681 C269 1.518 . S
C1689 C937 1.527 1_455 S
C1713 C239 1.618 . S
C1721 C3 1.631 . S
C1745 C298 1.631 . S
C1753 C62 1.629 . S
C1777 C121 1.631 . S
C1785 C357 1.631 . S
C1809 C416 1.619 . S
C1817 C180 1.628 . S
C1841 C711 1.617 . S
C1849 C475 1.630 . S
C1873 C770 1.633 . S
C1881 C534 1.630 . S
C1905 C593 1.620 . S
C1913 C829 1.628 . S
C1937 C888 1.640 . S
C1945 C652 1.634 . S
