# Generated by pormake.
# Topology uoy, (4)-cn, num edge types: 1
# Building blocks:
#     Node 0, Type 0, BuildingBlock: TATPOV_clean_sbu_0, # of connection points: 4
#     Node 1, Type 0, BuildingBlock: TATPOV_clean_sbu_0, # of connection points: 4
#     Node 2, Type 0, BuildingBlock: TATPOV_clean_sbu_0, # of connection points: 4
#     Node 3, Type 0, BuildingBlock: TATPOV_clean_sbu_0, # of connection points: 4
#     Node 4, Type 0, BuildingBlock: TATPOV_clean_sbu_0, # of connection points: 4
#     Node 5, Type 0, BuildingBlock: TATPOV_clean_sbu_0, # of connection points: 4
#     Node 6, Type 0, BuildingBlock: TATPOV_clean_sbu_0, # of connection points: 4
#     Node 7, Type 0, BuildingBlock: TATPOV_clean_sbu_0, # of connection points: 4
#     Node 8, Type 0, BuildingBlock: TATPOV_clean_sbu_0, # of connection points: 4
#     Node 9, Type 0, BuildingBlock: TATPOV_clean_sbu_0, # of connection points: 4
#     Node 10, Type 0, BuildingBlock: TATPOV_clean_sbu_0, # of connection points: 4
#     Node 11, Type 0, BuildingBlock: TATPOV_clean_sbu_0, # of connection points: 4
#     Node 12, Type 0, BuildingBlock: TATPOV_clean_sbu_0, # of connection points: 4
#     Node 13, Type 0, BuildingBlock: TATPOV_clean_sbu_0, # of connection points: 4
#     Node 14, Type 0, BuildingBlock: TATPOV_clean_sbu_0, # of connection points: 4
#     Node 15, Type 0, BuildingBlock: TATPOV_clean_sbu_0, # of connection points: 4
#     Edge 16, Type (0, 0), BuildingBlock: OJICUG_clean_linker_0, # of connection points: 2
#     Edge 17, Type (0, 0), BuildingBlock: OJICUG_clean_linker_0, # of connection points: 2
#     Edge 18, Type (0, 0), BuildingBlock: OJICUG_clean_linker_0, # of connection points: 2
#     Edge 19, Type (0, 0), BuildingBlock: OJICUG_clean_linker_0, # of connection points: 2
#     Edge 20, Type (0, 0), BuildingBlock: OJICUG_clean_linker_0, # of connection points: 2
#     Edge 21, Type (0, 0), BuildingBlock: OJICUG_clean_linker_0, # of connection points: 2
#     Edge 22, Type (0, 0), BuildingBlock: OJICUG_clean_linker_0, # of connection points: 2
#     Edge 23, Type (0, 0), BuildingBlock: OJICUG_clean_linker_0, # of connection points: 2
#     Edge 24, Type (0, 0), BuildingBlock: OJICUG_clean_linker_0, # of connection points: 2
#     Edge 25, Type (0, 0), BuildingBlock: OJICUG_clean_linker_0, # of connection points: 2
#     Edge 26, Type (0, 0), BuildingBlock: OJICUG_clean_linker_0, # of connection points: 2
#     Edge 27, Type (0, 0), BuildingBlock: OJICUG_clean_linker_0, # of connection points: 2
#     Edge 28, Type (0, 0), BuildingBlock: OJICUG_clean_linker_0, # of connection points: 2
#     Edge 29, Type (0, 0), BuildingBlock: OJICUG_clean_linker_0, # of connection points: 2
#     Edge 30, Type (0, 0), BuildingBlock: OJICUG_clean_linker_0, # of connection points: 2
#     Edge 31, Type (0, 0), BuildingBlock: OJICUG_clean_linker_0, # of connection points: 2
#     Edge 32, Type (0, 0), BuildingBlock: OJICUG_clean_linker_0, # of connection points: 2
#     Edge 33, Type (0, 0), BuildingBlock: OJICUG_clean_linker_0, # of connection points: 2
#     Edge 34, Type (0, 0), BuildingBlock: OJICUG_clean_linker_0, # of connection points: 2
#     Edge 35, Type (0, 0), BuildingBlock: OJICUG_clean_linker_0, # of connection points: 2
#     Edge 36, Type (0, 0), BuildingBlock: OJICUG_clean_linker_0, # of connection points: 2
#     Edge 37, Type (0, 0), BuildingBlock: OJICUG_clean_linker_0, # of connection points: 2
#     Edge 38, Type (0, 0), BuildingBlock: OJICUG_clean_linker_0, # of connection points: 2
#     Edge 39, Type (0, 0), BuildingBlock: OJICUG_clean_linker_0, # of connection points: 2
#     Edge 40, Type (0, 0), BuildingBlock: OJICUG_clean_linker_0, # of connection points: 2
#     Edge 41, Type (0, 0), BuildingBlock: OJICUG_clean_linker_0, # of connection points: 2
#     Edge 42, Type (0, 0), BuildingBlock: OJICUG_clean_linker_0, # of connection points: 2
#     Edge 43, Type (0, 0), BuildingBlock: OJICUG_clean_linker_0, # of connection points: 2
#     Edge 44, Type (0, 0), BuildingBlock: OJICUG_clean_linker_0, # of connection points: 2
#     Edge 45, Type (0, 0), BuildingBlock: OJICUG_clean_linker_0, # of connection points: 2
#     Edge 46, Type (0, 0), BuildingBlock: OJICUG_clean_linker_0, # of connection points: 2
#     Edge 47, Type (0, 0), BuildingBlock: OJICUG_clean_linker_0, # of connection points: 2
# Relax obj value: 0.091
# Max RMSD: 0.152
# Mean RMSD: 0.152
data_MOF--net-uoy--node1-TATPOV_clean_sbu_0--edge1-OJICUG_clean_linker_0
_symmetry_space_group_name_H-M    P1
_symmetry_Int_Tables_number       1
_symmetry_cell_setting            triclinic
loop_
_symmetry_equiv_pos_as_xyz
'x, y, z'
_cell_length_a     19.425967
_cell_length_b     19.427114
_cell_length_c     82.448305
_cell_angle_alpha  90.12034
_cell_angle_beta   90.019684
_cell_angle_gamma 90.066447
loop_
_atom_site_label
_atom_site_type_symbol
_atom_site_fract_x
_atom_site_fract_y
_atom_site_fract_z
_atom_type_partial_charge
Zn0 Zn 0.34621 0.26313 0.15579 0.0
Zn1 Zn 0.25025 0.16187 0.15604 0.0
O2 O 0.23415 0.22047 0.17632 0.0
O3 O 0.3093 0.30487 0.1766 0.0
O4 O 0.16744 0.09997 0.15614 0.0
O5 O 0.3132 0.29418 0.13357 0.0
O6 O 0.24485 0.20377 0.13347 0.0
C7 C 0.25966 0.27331 0.18321 0.0
C8 C 0.39824 0.11958 0.15832 0.0
O9 O 0.3351 0.10172 0.15817 0.0
O10 O 0.41473 0.18276 0.15733 0.0
C11 C 0.14056 0.07896 0.16928 0.0
O12 O 0.17158 0.09212 0.1831 0.0
C13 C 0.27071 0.25549 0.12628 0.0
Zn14 Zn 0.78019 0.85341 0.40329 0.0
Zn15 Zn 0.8822 0.75788 0.4042 0.0
O16 O 0.81962 0.73936 0.42364 0.0
O17 O 0.73556 0.81473 0.42357 0.0
O18 O 0.94557 0.67641 0.40494 0.0
O19 O 0.75354 0.81954 0.38078 0.0
O20 O 0.8442 0.75163 0.38125 0.0
C21 C 0.76561 0.7641 0.43012 0.0
C22 C 0.92248 0.90681 0.40723 0.0
O23 O 0.94059 0.84379 0.40711 0.0
O24 O 0.85943 0.92295 0.4057 0.0
C25 C 0.96457 0.65033 0.41833 0.0
O26 O 0.94833 0.68152 0.43195 0.0
C27 C 0.79316 0.77721 0.37375 0.0
Zn28 Zn 0.17098 0.26327 0.65573 0.0
Zn29 Zn 0.2666 0.36565 0.65604 0.0
O30 O 0.28509 0.306 0.67593 0.0
O31 O 0.20996 0.22158 0.67634 0.0
O32 O 0.34834 0.42892 0.65615 0.0
O33 O 0.20419 0.23372 0.63337 0.0
O34 O 0.27206 0.32455 0.63342 0.0
C35 C 0.26044 0.25273 0.68274 0.0
C36 C 0.11786 0.40623 0.65855 0.0
O37 O 0.1809 0.42441 0.65843 0.0
O38 O 0.10168 0.34297 0.65749 0.0
C39 C 0.37581 0.44932 0.6693 0.0
O40 O 0.34593 0.43469 0.68316 0.0
C41 C 0.24637 0.27285 0.62614 0.0
Zn42 Zn 0.7568 0.67745 0.90379 0.0
Zn43 Zn 0.65461 0.77291 0.90421 0.0
O44 O 0.71604 0.79194 0.92382 0.0
O45 O 0.80045 0.71701 0.92415 0.0
O46 O 0.59153 0.85464 0.90475 0.0
O47 O 0.78439 0.70993 0.88126 0.0
O48 O 0.69359 0.77768 0.88136 0.0
C49 C 0.76969 0.76769 0.93054 0.0
C50 C 0.61416 0.62428 0.9074 0.0
O51 O 0.596 0.68727 0.9071 0.0
O52 O 0.6773 0.60812 0.90611 0.0
C53 C 0.57141 0.88017 0.91814 0.0
O54 O 0.58619 0.8482 0.93172 0.0
C55 C 0.74489 0.75166 0.87403 0.0
Zn56 Zn 0.34807 0.27472 0.02774 0.0
Zn57 Zn 0.25242 0.37639 0.02703 0.0
O58 O 0.23465 0.31473 0.00734 0.0
O59 O 0.30989 0.23057 0.00731 0.0
O60 O 0.17045 0.43916 0.02638 0.0
O61 O 0.31472 0.24707 0.05019 0.0
O62 O 0.24668 0.33762 0.04991 0.0
C63 C 0.25958 0.26107 0.00073 0.0
C64 C 0.40098 0.41739 0.02408 0.0
O65 O 0.33793 0.4354 0.02426 0.0
O66 O 0.41725 0.35434 0.02548 0.0
C67 C 0.14478 0.45885 0.01299 0.0
O68 O 0.17665 0.44374 -0.0006 0.0
C69 C 0.27246 0.28645 0.05731 0.0
Zn70 Zn 0.76951 0.84601 0.27511 0.0
Zn71 Zn 0.66786 0.75017 0.27516 0.0
O72 O 0.72598 0.7329 0.25491 0.0
O73 O 0.81051 0.80783 0.25433 0.0
O74 O 0.60566 0.6676 0.27518 0.0
O75 O 0.80083 0.8138 0.29738 0.0
O76 O 0.71027 0.74563 0.29768 0.0
C77 C 0.77868 0.75783 0.2479 0.0
C78 C 0.62596 0.89825 0.27269 0.0
O79 O 0.608 0.83516 0.27295 0.0
O80 O 0.68922 0.91467 0.27354 0.0
C81 C 0.58395 0.64103 0.26204 0.0
O82 O 0.59651 0.6723 0.24824 0.0
C83 C 0.7622 0.77174 0.30478 0.0
Zn84 Zn 0.1738 0.25591 0.52726 0.0
Zn85 Zn 0.26909 0.1533 0.52686 0.0
O86 O 0.28934 0.2154 0.5075 0.0
O87 O 0.21436 0.29975 0.50707 0.0
O88 O 0.35031 0.08959 0.52631 0.0
O89 O 0.20625 0.28267 0.54988 0.0
O90 O 0.27382 0.19171 0.54977 0.0
C91 C 0.26552 0.2693 0.50083 0.0
C92 C 0.12014 0.11361 0.52345 0.0
O93 O 0.18309 0.09532 0.52378 0.0
O94 O 0.1041 0.17678 0.52477 0.0
C95 C 0.37584 0.06973 0.51291 0.0
O96 O 0.34412 0.0852 0.49932 0.0
C97 C 0.2478 0.24299 0.55712 0.0
Zn98 Zn 0.76474 0.67357 0.77549 0.0
Zn99 Zn 0.86678 0.76927 0.77505 0.0
O100 O 0.80678 0.78696 0.75512 0.0
O101 O 0.72248 0.71167 0.75487 0.0
O102 O 0.92975 0.85123 0.77488 0.0
O103 O 0.73533 0.70714 0.79783 0.0
O104 O 0.82607 0.7751 0.79771 0.0
C105 C 0.75344 0.76194 0.74837 0.0
C106 C 0.90774 0.62065 0.77262 0.0
O107 O 0.92583 0.68372 0.77269 0.0
O108 O 0.84453 0.60441 0.77374 0.0
C109 C 0.94976 0.87873 0.76172 0.0
O110 O 0.93487 0.84878 0.74786 0.0
C111 C 0.77451 0.74951 0.80502 0.0
Zn112 Zn 0.85083 0.75543 0.65355 0.0
Zn113 Zn 0.75503 0.65363 0.65414 0.0
O114 O 0.73698 0.71531 0.67379 0.0
O115 O 0.8123 0.79956 0.67394 0.0
O116 O 0.67294 0.59087 0.65473 0.0
O117 O 0.81794 0.78297 0.63105 0.0
O118 O 0.74982 0.69232 0.63126 0.0
C119 C 0.76177 0.76901 0.68044 0.0
C120 C 0.90345 0.61272 0.65719 0.0
O121 O 0.84037 0.59467 0.65697 0.0
O122 O 0.91983 0.6758 0.65584 0.0
C123 C 0.64728 0.57111 0.66811 0.0
O124 O 0.67929 0.58608 0.68171 0.0
C125 C 0.77583 0.74347 0.62388 0.0
Zn126 Zn 0.2646 0.35634 0.90563 0.0
Zn127 Zn 0.36646 0.26077 0.90614 0.0
O128 O 0.30632 0.24308 0.92605 0.0
O129 O 0.22211 0.31829 0.92623 0.0
O130 O 0.42935 0.17884 0.90632 0.0
O131 O 0.2352 0.32279 0.88329 0.0
O132 O 0.32587 0.25494 0.88345 0.0
C133 C 0.25294 0.26811 0.93277 0.0
C134 C 0.40762 0.40944 0.90856 0.0
O135 O 0.42565 0.34639 0.90852 0.0
O136 O 0.34443 0.42558 0.90741 0.0
C137 C 0.44922 0.1512 0.91947 0.0
O138 O 0.43419 0.18093 0.93334 0.0
C139 C 0.27438 0.28048 0.87611 0.0
Zn140 Zn 0.66643 0.77102 0.1537 0.0
Zn141 Zn 0.76181 0.87394 0.15439 0.0
O142 O 0.7822 0.81117 0.17361 0.0
O143 O 0.70698 0.72683 0.17387 0.0
O144 O 0.84282 0.93803 0.15504 0.0
O145 O 0.69949 0.7451 0.13107 0.0
O146 O 0.76705 0.83622 0.13145 0.0
C147 C 0.75829 0.75701 0.18016 0.0
C148 C 0.61269 0.91306 0.15767 0.0
O149 O 0.67566 0.93145 0.15748 0.0
O150 O 0.59663 0.84991 0.15623 0.0
C151 C 0.86911 0.95708 0.16843 0.0
O152 O 0.83827 0.94052 0.18205 0.0
C153 C 0.74125 0.7851 0.12397 0.0
Zn154 Zn 0.27232 0.17451 0.40607 0.0
Zn155 Zn 0.17035 0.27006 0.4061 0.0
O156 O 0.22945 0.28832 0.42615 0.0
O157 O 0.31394 0.2135 0.42672 0.0
O158 O 0.10779 0.35224 0.4061 0.0
O159 O 0.30257 0.20663 0.38371 0.0
O160 O 0.21183 0.27439 0.38351 0.0
C161 C 0.28247 0.26379 0.43309 0.0
C162 C 0.129 0.12167 0.4087 0.0
O163 O 0.11095 0.1847 0.40847 0.0
O164 O 0.19226 0.10548 0.40778 0.0
C165 C 0.08682 0.37932 0.41924 0.0
O166 O 0.10041 0.34881 0.43307 0.0
C167 C 0.26353 0.24837 0.37634 0.0
Zn168 Zn 0.85267 0.76374 0.52546 0.0
Zn169 Zn 0.75694 0.86517 0.52491 0.0
O170 O 0.74038 0.80559 0.5048 0.0
O171 O 0.81554 0.72133 0.50473 0.0
O172 O 0.67451 0.92743 0.52473 0.0
O173 O 0.81918 0.73367 0.54771 0.0
O174 O 0.75112 0.82415 0.54755 0.0
C175 C 0.7658 0.75242 0.49806 0.0
C176 C 0.90527 0.90705 0.52267 0.0
O177 O 0.84219 0.92495 0.5227 0.0
O178 O 0.92155 0.84389 0.52381 0.0
C179 C 0.64683 0.94744 0.51159 0.0
O180 O 0.67675 0.93295 0.49772 0.0
C181 C 0.7767 0.77268 0.55487 0.0
Zn182 Zn 0.2569 0.35336 0.77736 0.0
Zn183 Zn 0.15471 0.2577 0.77688 0.0
O184 O 0.21611 0.23886 0.75729 0.0
O185 O 0.30052 0.31398 0.757 0.0
O186 O 0.09163 0.17586 0.77634 0.0
O187 O 0.2845 0.32082 0.79989 0.0
O188 O 0.1937 0.25286 0.79974 0.0
C189 C 0.26978 0.26325 0.75059 0.0
C190 C 0.11424 0.40623 0.77375 0.0
O191 O 0.09607 0.3432 0.77402 0.0
O192 O 0.17738 0.42252 0.77506 0.0
C193 C 0.07155 0.1502 0.76296 0.0
O194 O 0.08634 0.18211 0.74937 0.0
C195 C 0.245 0.27893 0.80709 0.0
Zn196 Zn 0.66912 0.76688 0.02522 0.0
Zn197 Zn 0.76456 0.66457 0.025 0.0
O198 O 0.78349 0.72446 0.00516 0.0
O199 O 0.70852 0.80885 0.00469 0.0
O200 O 0.84628 0.60142 0.02494 0.0
O201 O 0.70179 0.79626 0.04764 0.0
O202 O 0.76943 0.70542 0.04765 0.0
C203 C 0.7591 0.77779 -0.00166 0.0
C204 C 0.6158 0.62389 0.02235 0.0
O205 O 0.67881 0.60574 0.02251 0.0
O206 O 0.59973 0.68715 0.02339 0.0
C207 C 0.87374 0.58105 0.01179 0.0
O208 O 0.84388 0.59568 -0.00207 0.0
C209 C 0.74362 0.75702 0.05492 0.0
Zn210 Zn 0.2774 0.16623 0.27775 0.0
Zn211 Zn 0.37989 0.26176 0.27678 0.0
O212 O 0.3167 0.281 0.25751 0.0
O213 O 0.23256 0.20553 0.25754 0.0
O214 O 0.44368 0.343 0.27603 0.0
O215 O 0.25166 0.20012 0.30032 0.0
O216 O 0.34258 0.26788 0.29975 0.0
C217 C 0.26244 0.2565 0.25106 0.0
C218 C 0.41946 0.1127 0.2737 0.0
O219 O 0.43772 0.17571 0.27378 0.0
O220 O 0.3564 0.09657 0.27527 0.0
C221 C 0.46211 0.36956 0.26265 0.0
O222 O 0.44504 0.33895 0.249 0.0
C223 C 0.29166 0.24233 0.30731 0.0
C224 C 0.25798 0.21282 0.08183 0.0
C225 C 0.26046 0.27845 0.07482 0.0
H226 H 0.25664 0.15445 0.10382 0.0
C227 C 0.25889 0.33695 0.08488 0.0
H228 H 0.25923 0.16708 0.07429 0.0
C229 C 0.2596 0.32983 0.10174 0.0
C230 C 0.2594 0.26414 0.10875 0.0
H231 H 0.26135 0.38815 0.07972 0.0
H232 H 0.2622 0.3755 0.10928 0.0
C233 C 0.25621 0.20574 0.09868 0.0
C234 C 0.84382 0.76286 0.34624 0.0
C235 C 0.7853 0.76451 0.35626 0.0
H236 H 0.88236 0.76509 0.32186 0.0
C237 C 0.7197 0.76117 0.34922 0.0
H238 H 0.895 0.76595 0.35143 0.0
C239 C 0.71263 0.75842 0.33238 0.0
C240 C 0.77101 0.76146 0.32233 0.0
H241 H 0.67394 0.76245 0.35673 0.0
H242 H 0.66133 0.75817 0.32722 0.0
C243 C 0.83671 0.76257 0.32938 0.0
C244 C 0.26058 0.31627 0.58181 0.0
C245 C 0.2586 0.25075 0.57468 0.0
H246 H 0.26079 0.37427 0.60391 0.0
C247 C 0.25962 0.19208 0.58463 0.0
H248 H 0.25971 0.36213 0.57436 0.0
C249 C 0.25806 0.19892 0.60149 0.0
C250 C 0.2579 0.2645 0.60862 0.0
H251 H 0.25751 0.14096 0.57937 0.0
H252 H 0.25522 0.15312 0.60894 0.0
C253 C 0.26146 0.32307 0.59867 0.0
C254 C 0.70079 0.76207 0.82964 0.0
C255 C 0.76634 0.7614 0.82254 0.0
H256 H 0.64289 0.76208 0.85174 0.0
C257 C 0.82497 0.76469 0.83251 0.0
H258 H 0.65495 0.75944 0.82218 0.0
C259 C 0.81822 0.764 0.84937 0.0
C260 C 0.75271 0.76248 0.85648 0.0
H261 H 0.87615 0.76363 0.82729 0.0
H262 H 0.8641 0.76287 0.85684 0.0
C263 C 0.69402 0.76384 0.84651 0.0
C264 C 0.76168 0.82323 0.58237 0.0
C265 C 0.76486 0.76456 0.57239 0.0
H266 H 0.764 0.86251 0.6067 0.0
C267 C 0.76437 0.69906 0.57949 0.0
H268 H 0.76262 0.87438 0.57716 0.0
C269 C 0.76295 0.69238 0.59636 0.0
C270 C 0.76449 0.75112 0.60634 0.0
H271 H 0.76693 0.65318 0.57202 0.0
H272 H 0.76487 0.64129 0.60159 0.0
C273 C 0.76273 0.81658 0.59923 0.0
C274 C 0.20079 0.26782 0.85146 0.0
C275 C 0.26631 0.26867 0.85859 0.0
H276 H 0.14296 0.26784 0.82935 0.0
C277 C 0.32498 0.26574 0.84863 0.0
H278 H 0.15491 0.27018 0.85891 0.0
C279 C 0.31828 0.2666 0.83177 0.0
C280 C 0.25279 0.26795 0.82464 0.0
H281 H 0.37613 0.26695 0.85387 0.0
H282 H 0.36419 0.26802 0.82432 0.0
C283 C 0.19408 0.26623 0.83459 0.0
C284 C 0.75411 0.83031 0.0797 0.0
C285 C 0.75426 0.76492 0.07248 0.0
H286 H 0.75234 0.8877 0.1019 0.0
C287 C 0.75702 0.70608 0.08236 0.0
H288 H 0.75184 0.8763 0.07231 0.0
C289 C 0.75508 0.71244 0.09922 0.0
C290 C 0.75282 0.77777 0.10644 0.0
H291 H 0.75653 0.65502 0.07705 0.0
H292 H 0.75366 0.66639 0.1066 0.0
C293 C 0.75462 0.8367 0.09658 0.0
C294 C 0.33697 0.25744 0.35158 0.0
C295 C 0.27157 0.25833 0.35876 0.0
H296 H 0.39436 0.25412 0.32942 0.0
C297 C 0.21276 0.2609 0.34884 0.0
H298 H 0.38295 0.25528 0.359 0.0
C299 C 0.21913 0.25799 0.33198 0.0
C300 C 0.28445 0.25493 0.32481 0.0
H301 H 0.16168 0.26096 0.35411 0.0
H302 H 0.17307 0.25641 0.32458 0.0
C303 C 0.34339 0.25698 0.3347 0.0
C304 C 0.19476 0.24463 0.20849 0.0
C305 C 0.24205 0.28735 0.20037 0.0
H306 H 0.16336 0.20175 0.23117 0.0
C307 C 0.28252 0.33302 0.20956 0.0
H308 H 0.16147 0.21006 0.20178 0.0
C309 C 0.28318 0.32861 0.22647 0.0
C310 C 0.24363 0.27827 0.23444 0.0
H311 H 0.3185 0.36764 0.20372 0.0
H312 H 0.31935 0.36036 0.23312 0.0
C313 C 0.19569 0.23996 0.22539 0.0
C314 C 0.78769 0.69398 0.45497 0.0
C315 C 0.74755 0.7434 0.44687 0.0
H316 H 0.82425 0.65703 0.4778 0.0
C317 C 0.69991 0.78217 0.45587 0.0
H318 H 0.82368 0.66193 0.44836 0.0
C319 C 0.69983 0.7789 0.47279 0.0
C320 C 0.74765 0.73713 0.48097 0.0
H321 H 0.66715 0.81969 0.44999 0.0
H322 H 0.66673 0.81381 0.47942 0.0
C323 C 0.78786 0.69096 0.47189 0.0
C324 C 0.32999 0.27868 0.70753 0.0
C325 C 0.28093 0.23707 0.69964 0.0
H326 H 0.36594 0.31903 0.73014 0.0
C327 C 0.24211 0.19052 0.70892 0.0
H328 H 0.36214 0.31383 0.70072 0.0
C329 C 0.24481 0.19306 0.72584 0.0
C330 C 0.28603 0.24246 0.73373 0.0
H331 H 0.20489 0.15666 0.70322 0.0
H332 H 0.20977 0.16077 0.73265 0.0
C333 C 0.33241 0.28151 0.72445 0.0
C334 C 0.82918 0.7521 -0.02635 0.0
C335 C 0.78004 0.79363 -0.01851 0.0
H336 H 0.86547 0.71191 0.95106 0.0
C337 C 0.74154 0.84028 -0.02782 0.0
H338 H 0.86108 0.71688 -0.01952 0.0
C339 C 0.74458 0.83788 0.95526 0.0
C340 C 0.78581 0.78851 0.94741 0.0
H341 H 0.70429 0.8741 -0.02216 0.0
H342 H 0.70975 0.87022 0.94842 0.0
C343 C 0.83193 0.74941 0.95673 0.0
C344 C 0.19113 0.28536 -0.02429 0.0
C345 C 0.23999 0.24447 -0.0162 0.0
H346 H 0.15601 0.32436 0.95295 0.0
C347 C 0.27968 0.19797 -0.02531 0.0
H348 H 0.15841 0.32051 -0.01761 0.0
C349 C 0.27788 0.19982 0.95775 0.0
C350 C 0.23664 0.2484 0.94968 0.0
H351 H 0.31685 0.1647 -0.01947 0.0
H352 H 0.31346 0.16755 0.95109 0.0
C353 C 0.18958 0.28746 0.95878 0.0
C354 C 0.8373 0.779 0.22139 0.0
C355 C 0.79208 0.73907 0.23077 0.0
H356 H 0.86336 0.81459 0.19768 0.0
C357 C 0.74903 0.69126 0.22288 0.0
H358 H 0.87218 0.81533 0.22706 0.0
C359 C 0.74343 0.69129 0.20599 0.0
C360 C 0.78118 0.73881 0.19674 0.0
H361 H 0.71482 0.65833 0.22975 0.0
H362 H 0.70491 0.65867 0.20037 0.0
C363 C 0.832 0.77874 0.20449 0.0
C364 C 0.25469 0.33229 0.45792 0.0
C365 C 0.29693 0.28366 0.4501 0.0
H366 H 0.21206 0.36675 0.48042 0.0
C367 C 0.34243 0.24424 0.45952 0.0
H368 H 0.22033 0.36488 0.45102 0.0
C369 C 0.33809 0.24579 0.47642 0.0
C370 C 0.28796 0.2865 0.48416 0.0
H371 H 0.37673 0.20732 0.45389 0.0
H372 H 0.36955 0.21027 0.48329 0.0
C373 C 0.25007 0.33355 0.47483 0.0
C374 C 0.69262 0.7446 0.70534 0.0
C375 C 0.7417 0.78562 0.69733 0.0
H376 H 0.65694 0.70548 0.72805 0.0
C377 C 0.78109 0.83226 0.7065 0.0
H378 H 0.66011 0.70935 0.69861 0.0
C379 C 0.77882 0.83043 0.72343 0.0
C380 C 0.73742 0.78169 0.73144 0.0
H381 H 0.81839 0.86564 0.70072 0.0
H382 H 0.81418 0.86282 0.73016 0.0
C383 C 0.69063 0.7425 0.72226 0.0
C384 C 0.03774 0.03408 0.15431 0.0
C385 C 0.07171 0.04646 0.16908 0.0
H386 H 0.94694 0.99696 0.14251 0.0
C387 C 0.03783 0.03064 0.18367 0.0
H388 H 0.06225 0.04602 0.14285 0.0
C389 C 0.9714 1.00296 0.18347 0.0
C390 C 0.93757 0.99036 0.16869 0.0
H391 H 0.06239 0.03999 0.19526 0.0
H392 H 0.94691 0.99086 0.19492 0.0
C393 C 0.97144 1.0063 0.15411 0.0
C394 C 0.03843 0.48216 0.4336 0.0
C395 C 0.05405 0.44796 0.41902 0.0
H396 H 0.99877 0.57324 0.44483 0.0
C397 C 0.04128 0.48147 0.40423 0.0
H398 H 0.04807 0.45796 0.4452 0.0
C399 C 1.01339 0.54767 0.40402 0.0
C400 C 0.99773 0.58188 0.4186 0.0
H401 H 0.05304 0.45672 0.39278 0.0
H402 H 1.0038 0.57183 0.39241 0.0
C403 C 1.01065 0.54847 0.43339 0.0
C404 C 0.4794 0.49677 0.68357 0.0
C405 C 0.44442 0.48231 0.66903 0.0
H406 H 0.57125 0.53532 0.69469 0.0
C407 C 0.4772 0.49624 0.6542 0.0
H408 H 0.45577 0.48624 0.6952 0.0
C409 C 0.54351 0.524 0.65391 0.0
C410 C 0.57856 0.53836 0.66844 0.0
H411 H 0.45181 0.48541 0.64277 0.0
H412 H 0.56712 0.53443 0.64227 0.0
C413 C 0.54583 0.52443 0.68328 0.0
C414 C 0.49654 0.05003 0.90431 0.0
C415 C 0.48221 0.08266 0.91916 0.0
H416 H 0.53518 0.96034 0.89233 0.0
C417 C 0.49636 0.04763 0.93368 0.0
H418 H 0.48596 0.07546 0.8929 0.0
C419 C 0.52413 0.98131 0.93335 0.0
C420 C 0.53849 0.94873 0.91849 0.0
H421 H 0.48553 0.07115 0.94532 0.0
H422 H 0.5348 0.95587 0.94475 0.0
C423 C 0.52441 0.98383 0.90398 0.0
C424 C 0.04344 0.50564 -0.00217 0.0
C425 C 0.07619 0.49173 0.01266 0.0
H426 H 0.95347 0.54391 -0.0141 0.0
C427 C 0.04126 0.50626 0.0272 0.0
H428 H 0.06875 0.49463 -0.01359 0.0
C429 C 0.97506 0.53414 0.0269 0.0
C430 C 0.94226 0.54802 0.01207 0.0
H431 H 0.0649 0.49586 0.03884 0.0
H432 H 0.94978 0.54508 0.03833 0.0
C433 C 0.97712 0.53341 -0.00247 0.0
C434 C 0.53967 0.53793 0.27692 0.0
C435 C 0.5514 0.5722 0.26218 0.0
H436 H 0.50309 0.44688 0.28863 0.0
C437 C 0.53493 0.53863 0.24757 0.0
H438 H 0.55213 0.56219 0.2884 0.0
C439 C 0.50726 0.4722 0.2477 0.0
C440 C 0.49532 0.43806 0.26244 0.0
H441 H 0.54377 0.56343 0.236 0.0
H442 H 0.49466 0.44794 0.23623 0.0
C443 C 0.5119 0.47163 0.27705 0.0
C444 C 0.54534 0.99392 0.52675 0.0
C445 C 0.57818 0.9802 0.5119 0.0
H446 H 0.45551 0.03214 0.53872 0.0
C447 C 0.54332 0.9949 0.49738 0.0
H448 H 0.57061 0.98289 0.53816 0.0
C449 C 0.47702 0.02269 0.4977 0.0
C450 C 0.44427 0.03654 0.51255 0.0
H451 H 0.567 0.98453 0.48573 0.0
H452 H 0.45173 0.03386 0.48629 0.0
C453 C 0.47915 0.02181 0.52707 0.0
C454 C 0.02446 0.04876 0.74778 0.0
C455 C 0.03871 0.08152 0.76262 0.0
H456 H 0.98603 0.95866 0.73584 0.0
C457 C 0.02466 0.0465 0.77715 0.0
H458 H 0.03511 0.07415 0.73637 0.0
C459 C 0.9969 0.98019 0.77684 0.0
C460 C 0.98267 0.94738 0.762 0.0
H461 H 0.03535 0.07014 0.78879 0.0
H462 H 0.98634 0.95483 0.78826 0.0
C463 C 0.9968 0.98233 0.74747 0.0
C464 C 0.57449 0.0361 0.15938 0.0
C465 C 0.55778 0.96572 0.15888 0.0
H466 H 0.53749 0.13969 0.15962 0.0
C467 C 0.48799 0.94631 0.15889 0.0
H468 H 0.62768 0.05292 0.15941 0.0
C469 C 0.43615 0.99616 0.15903 0.0
C470 C 0.45292 0.06657 0.15912 0.0
H471 H 0.47325 0.89254 0.15856 0.0
H472 H 0.38296 0.97942 0.15879 0.0
C473 C 0.52269 0.08593 0.15948 0.0
C474 C 0.95581 0.03145 0.40875 0.0
C475 C 0.97521 0.96171 0.40859 0.0
H476 H 0.9889 0.13653 0.40899 0.0
C477 C 0.04557 0.94512 0.40923 0.0
H478 H 0.90207 0.04611 0.40832 0.0
C479 C 0.0954 0.99704 0.4096 0.0
C480 C 0.07605 0.06678 0.40936 0.0
H481 H 0.06234 0.89197 0.40917 0.0
H482 H 0.14917 0.98238 0.40982 0.0
C483 C 1.00565 0.08337 0.40914 0.0
C484 C 0.07973 0.52951 0.65922 0.0
C485 C 0.063 0.4591 0.65923 0.0
H486 H 0.04272 0.63309 0.6586 0.0
C487 C 0.99321 0.43971 0.65927 0.0
H488 H 0.13292 0.54629 0.65922 0.0
C489 C 0.94139 0.48955 0.65892 0.0
C490 C 0.95816 0.55992 0.6585 0.0
H491 H 0.97844 0.38594 0.65932 0.0
H492 H 0.8882 0.47277 0.65872 0.0
C493 C 0.02792 0.57933 0.65884 0.0
C494 C 0.53095 0.44778 0.90934 0.0
C495 C 0.46054 0.46436 0.90929 0.0
H496 H 0.63457 0.48505 0.90881 0.0
C497 C 0.44117 0.5341 0.90933 0.0
H498 H 0.54772 0.39463 0.90934 0.0
C499 C 0.491 0.58602 0.90905 0.0
C500 C 0.56139 0.56942 0.90868 0.0
H501 H 0.38739 0.54877 0.90935 0.0
H502 H 0.47421 0.63916 0.90884 0.0
C503 C 0.5808 0.49971 0.90902 0.0
C504 C 0.57741 0.50059 0.02186 0.0
C505 C 0.56083 0.57099 0.02173 0.0
H506 H 0.5402 0.39703 0.02268 0.0
C507 C 0.49108 0.59036 0.02169 0.0
H508 H 0.63057 0.48382 0.02187 0.0
C509 C 0.43916 0.54053 0.02215 0.0
C510 C 0.45579 0.47017 0.02269 0.0
H511 H 0.47642 0.64413 0.02155 0.0
H512 H 0.38601 0.5573 0.02235 0.0
C513 C 0.52551 0.45077 0.02235 0.0
C514 C 0.45273 0.98804 0.27245 0.0
C515 C 0.47213 0.05782 0.27244 0.0
H516 H 0.48583 0.88302 0.27248 0.0
C517 C 0.54249 0.07454 0.27179 0.0
H518 H 0.39897 0.97329 0.2729 0.0
C519 C 0.59232 0.02273 0.27157 0.0
C520 C 0.57297 0.95296 0.27197 0.0
H521 H 0.55929 0.12773 0.27172 0.0
H522 H 0.64608 0.03752 0.27132 0.0
C523 C 0.50257 0.93621 0.2722 0.0
C524 C 0.94351 0.03042 0.52181 0.0
C525 C 0.96012 0.96001 0.52187 0.0
H526 H 0.98081 0.13405 0.5222 0.0
C527 C 0.02986 0.94065 0.52171 0.0
H528 H 0.89035 0.04716 0.52189 0.0
C529 C 0.08178 0.99049 0.52186 0.0
C530 C 0.06519 0.06088 0.52221 0.0
H531 H 0.04454 0.88688 0.5217 0.0
H532 H 0.13492 0.9737 0.52199 0.0
C533 C 0.99545 0.08028 0.52199 0.0
C534 C 0.03105 0.58255 0.77185 0.0
C535 C 0.96064 0.56583 0.77189 0.0
H536 H 0.13466 0.54551 0.77237 0.0
C537 C 0.94124 0.49605 0.77183 0.0
H538 H 0.04783 0.63574 0.77186 0.0
C539 C 0.99107 0.44423 0.77211 0.0
C540 C 0.06147 0.46098 0.77248 0.0
H541 H 0.88746 0.48128 0.77182 0.0
H542 H 0.97427 0.39106 0.77231 0.0
C543 C 0.08089 0.53074 0.77216 0.0
loop_
_geom_bond_atom_site_label_1
_geom_bond_atom_site_label_2
_geom_bond_distance
_geom_bond_site_symmetry_2
_ccdc_geom_bond_type
Zn0 O3 2.031 . S
Zn0 O5 2.049 . S
Zn0 O10 2.067 . S
Zn1 O2 1.962 . S
Zn1 O4 1.986 . S
Zn1 O6 1.996 . S
Zn1 O9 1.943 . S
O2 Zn1 1.962 . S
O2 C7 1.254 . S
O3 Zn0 2.031 . S
O3 C7 1.269 . S
O4 Zn1 1.986 . S
O4 C11 1.262 . S
O5 Zn0 2.049 . S
O5 C13 1.260 . S
O6 Zn1 1.996 . S
O6 C13 1.257 . S
C7 O2 1.254 . S
C7 O3 1.269 . S
C8 O9 1.249 . S
C8 O10 1.270 . S
O9 Zn1 1.943 . S
O9 C8 1.249 . S
O10 Zn0 2.067 . S
O10 C8 1.270 . S
C11 O4 1.262 . S
C11 O12 1.232 . S
O12 C11 1.232 . S
C13 O5 1.260 . S
C13 O6 1.257 . S
Zn14 O17 2.031 . S
Zn14 O19 2.049 . S
Zn14 O24 2.067 . S
Zn15 O16 1.962 . S
Zn15 O18 1.986 . S
Zn15 O20 1.996 . S
Zn15 O23 1.943 . S
O16 Zn15 1.962 . S
O16 C21 1.254 . S
O17 Zn14 2.031 . S
O17 C21 1.269 . S
O18 Zn15 1.986 . S
O18 C25 1.262 . S
O19 Zn14 2.049 . S
O19 C27 1.260 . S
O20 Zn15 1.996 . S
O20 C27 1.257 . S
C21 O16 1.254 . S
C21 O17 1.269 . S
C22 O23 1.249 . S
C22 O24 1.270 . S
O23 Zn15 1.943 . S
O23 C22 1.249 . S
O24 Zn14 2.067 . S
O24 C22 1.270 . S
C25 O18 1.262 . S
C25 O26 1.232 . S
O26 C25 1.232 . S
C27 O19 1.260 . S
C27 O20 1.257 . S
Zn28 O31 2.031 . S
Zn28 O33 2.049 . S
Zn28 O38 2.067 . S
Zn29 O30 1.962 . S
Zn29 O32 1.986 . S
Zn29 O34 1.996 . S
Zn29 O37 1.943 . S
O30 Zn29 1.962 . S
O30 C35 1.254 . S
O31 Zn28 2.031 . S
O31 C35 1.269 . S
O32 Zn29 1.986 . S
O32 C39 1.262 . S
O33 Zn28 2.049 . S
O33 C41 1.260 . S
O34 Zn29 1.996 . S
O34 C41 1.257 . S
C35 O30 1.254 . S
C35 O31 1.269 . S
C36 O37 1.249 . S
C36 O38 1.270 . S
O37 Zn29 1.943 . S
O37 C36 1.249 . S
O38 Zn28 2.067 . S
O38 C36 1.270 . S
C39 O32 1.262 . S
C39 O40 1.232 . S
O40 C39 1.232 . S
C41 O33 1.260 . S
C41 O34 1.257 . S
Zn42 O45 2.031 . S
Zn42 O47 2.049 . S
Zn42 O52 2.067 . S
Zn43 O44 1.962 . S
Zn43 O46 1.986 . S
Zn43 O48 1.996 . S
Zn43 O51 1.943 . S
O44 Zn43 1.962 . S
O44 C49 1.254 . S
O45 Zn42 2.031 . S
O45 C49 1.269 . S
O46 Zn43 1.986 . S
O46 C53 1.262 . S
O47 Zn42 2.049 . S
O47 C55 1.260 . S
O48 Zn43 1.996 . S
O48 C55 1.257 . S
C49 O44 1.254 . S
C49 O45 1.269 . S
C50 O51 1.249 . S
C50 O52 1.270 . S
O51 Zn43 1.943 . S
O51 C50 1.249 . S
O52 Zn42 2.067 . S
O52 C50 1.270 . S
C53 O46 1.262 . S
C53 O54 1.232 . S
O54 C53 1.232 . S
C55 O47 1.260 . S
C55 O48 1.257 . S
Zn56 O59 2.031 . S
Zn56 O61 2.049 . S
Zn56 O66 2.067 . S
Zn57 O58 1.962 . S
Zn57 O60 1.986 . S
Zn57 O62 1.996 . S
Zn57 O65 1.943 . S
O58 Zn57 1.962 . S
O58 C63 1.254 . S
O59 Zn56 2.031 . S
O59 C63 1.269 . S
O60 Zn57 1.986 . S
O60 C67 1.262 . S
O61 Zn56 2.049 . S
O61 C69 1.260 . S
O62 Zn57 1.996 . S
O62 C69 1.257 . S
C63 O58 1.254 . S
C63 O59 1.269 . S
C64 O65 1.249 . S
C64 O66 1.270 . S
O65 Zn57 1.943 . S
O65 C64 1.249 . S
O66 Zn56 2.067 . S
O66 C64 1.270 . S
C67 O60 1.262 . S
C67 O68 1.232 . S
O68 C67 1.232 . S
C69 O61 1.260 . S
C69 O62 1.257 . S
Zn70 O73 2.031 . S
Zn70 O75 2.049 . S
Zn70 O80 2.067 . S
Zn71 O72 1.962 . S
Zn71 O74 1.986 . S
Zn71 O76 1.996 . S
Zn71 O79 1.943 . S
O72 Zn71 1.962 . S
O72 C77 1.254 . S
O73 Zn70 2.031 . S
O73 C77 1.269 . S
O74 Zn71 1.986 . S
O74 C81 1.262 . S
O75 Zn70 2.049 . S
O75 C83 1.260 . S
O76 Zn71 1.996 . S
O76 C83 1.257 . S
C77 O72 1.254 . S
C77 O73 1.269 . S
C78 O79 1.249 . S
C78 O80 1.270 . S
O79 Zn71 1.943 . S
O79 C78 1.249 . S
O80 Zn70 2.067 . S
O80 C78 1.270 . S
C81 O74 1.262 . S
C81 O82 1.232 . S
O82 C81 1.232 . S
C83 O75 1.260 . S
C83 O76 1.257 . S
Zn84 O87 2.031 . S
Zn84 O89 2.049 . S
Zn84 O94 2.067 . S
Zn85 O86 1.962 . S
Zn85 O88 1.986 . S
Zn85 O90 1.996 . S
Zn85 O93 1.943 . S
O86 Zn85 1.962 . S
O86 C91 1.254 . S
O87 Zn84 2.031 . S
O87 C91 1.269 . S
O88 Zn85 1.986 . S
O88 C95 1.262 . S
O89 Zn84 2.049 . S
O89 C97 1.260 . S
O90 Zn85 1.996 . S
O90 C97 1.257 . S
C91 O86 1.254 . S
C91 O87 1.269 . S
C92 O93 1.249 . S
C92 O94 1.270 . S
O93 Zn85 1.943 . S
O93 C92 1.249 . S
O94 Zn84 2.067 . S
O94 C92 1.270 . S
C95 O88 1.262 . S
C95 O96 1.232 . S
O96 C95 1.232 . S
C97 O89 1.260 . S
C97 O90 1.257 . S
Zn98 O101 2.031 . S
Zn98 O103 2.049 . S
Zn98 O108 2.067 . S
Zn99 O100 1.962 . S
Zn99 O102 1.986 . S
Zn99 O104 1.996 . S
Zn99 O107 1.943 . S
O100 Zn99 1.962 . S
O100 C105 1.254 . S
O101 Zn98 2.031 . S
O101 C105 1.269 . S
O102 Zn99 1.986 . S
O102 C109 1.262 . S
O103 Zn98 2.049 . S
O103 C111 1.260 . S
O104 Zn99 1.996 . S
O104 C111 1.257 . S
C105 O100 1.254 . S
C105 O101 1.269 . S
C106 O107 1.249 . S
C106 O108 1.270 . S
O107 Zn99 1.943 . S
O107 C106 1.249 . S
O108 Zn98 2.067 . S
O108 C106 1.270 . S
C109 O102 1.262 . S
C109 O110 1.232 . S
O110 C109 1.232 . S
C111 O103 1.260 . S
C111 O104 1.257 . S
Zn112 O115 2.031 . S
Zn112 O117 2.049 . S
Zn112 O122 2.067 . S
Zn113 O114 1.962 . S
Zn113 O116 1.986 . S
Zn113 O118 1.996 . S
Zn113 O121 1.943 . S
O114 Zn113 1.962 . S
O114 C119 1.254 . S
O115 Zn112 2.031 . S
O115 C119 1.269 . S
O116 Zn113 1.986 . S
O116 C123 1.262 . S
O117 Zn112 2.049 . S
O117 C125 1.260 . S
O118 Zn113 1.996 . S
O118 C125 1.257 . S
C119 O114 1.254 . S
C119 O115 1.269 . S
C120 O121 1.249 . S
C120 O122 1.270 . S
O121 Zn113 1.943 . S
O121 C120 1.249 . S
O122 Zn112 2.067 . S
O122 C120 1.270 . S
C123 O116 1.262 . S
C123 O124 1.232 . S
O124 C123 1.232 . S
C125 O117 1.260 . S
C125 O118 1.257 . S
Zn126 O129 2.031 . S
Zn126 O131 2.049 . S
Zn126 O136 2.067 . S
Zn127 O128 1.962 . S
Zn127 O130 1.986 . S
Zn127 O132 1.996 . S
Zn127 O135 1.943 . S
O128 Zn127 1.962 . S
O128 C133 1.254 . S
O129 Zn126 2.031 . S
O129 C133 1.269 . S
O130 Zn127 1.986 . S
O130 C137 1.262 . S
O131 Zn126 2.049 . S
O131 C139 1.260 . S
O132 Zn127 1.996 . S
O132 C139 1.257 . S
C133 O128 1.254 . S
C133 O129 1.269 . S
C134 O135 1.249 . S
C134 O136 1.270 . S
O135 Zn127 1.943 . S
O135 C134 1.249 . S
O136 Zn126 2.067 . S
O136 C134 1.270 . S
C137 O130 1.262 . S
C137 O138 1.232 . S
O138 C137 1.232 . S
C139 O131 1.260 . S
C139 O132 1.257 . S
Zn140 O143 2.031 . S
Zn140 O145 2.049 . S
Zn140 O150 2.067 . S
Zn141 O142 1.962 . S
Zn141 O144 1.986 . S
Zn141 O146 1.996 . S
Zn141 O149 1.943 . S
O142 Zn141 1.962 . S
O142 C147 1.254 . S
O143 Zn140 2.031 . S
O143 C147 1.269 . S
O144 Zn141 1.986 . S
O144 C151 1.262 . S
O145 Zn140 2.049 . S
O145 C153 1.260 . S
O146 Zn141 1.996 . S
O146 C153 1.257 . S
C147 O142 1.254 . S
C147 O143 1.269 . S
C148 O149 1.249 . S
C148 O150 1.270 . S
O149 Zn141 1.943 . S
O149 C148 1.249 . S
O150 Zn140 2.067 . S
O150 C148 1.270 . S
C151 O144 1.262 . S
C151 O152 1.232 . S
O152 C151 1.232 . S
C153 O145 1.260 . S
C153 O146 1.257 . S
Zn154 O157 2.031 . S
Zn154 O159 2.049 . S
Zn154 O164 2.067 . S
Zn155 O156 1.962 . S
Zn155 O158 1.986 . S
Zn155 O160 1.996 . S
Zn155 O163 1.943 . S
O156 Zn155 1.962 . S
O156 C161 1.254 . S
O157 Zn154 2.031 . S
O157 C161 1.269 . S
O158 Zn155 1.986 . S
O158 C165 1.262 . S
O159 Zn154 2.049 . S
O159 C167 1.260 . S
O160 Zn155 1.996 . S
O160 C167 1.257 . S
C161 O156 1.254 . S
C161 O157 1.269 . S
C162 O163 1.249 . S
C162 O164 1.270 . S
O163 Zn155 1.943 . S
O163 C162 1.249 . S
O164 Zn154 2.067 . S
O164 C162 1.270 . S
C165 O158 1.262 . S
C165 O166 1.232 . S
O166 C165 1.232 . S
C167 O159 1.260 . S
C167 O160 1.257 . S
Zn168 O171 2.031 . S
Zn168 O173 2.049 . S
Zn168 O178 2.067 . S
Zn169 O170 1.962 . S
Zn169 O172 1.986 . S
Zn169 O174 1.996 . S
Zn169 O177 1.943 . S
O170 Zn169 1.962 . S
O170 C175 1.254 . S
O171 Zn168 2.031 . S
O171 C175 1.269 . S
O172 Zn169 1.986 . S
O172 C179 1.262 . S
O173 Zn168 2.049 . S
O173 C181 1.260 . S
O174 Zn169 1.996 . S
O174 C181 1.257 . S
C175 O170 1.254 . S
C175 O171 1.269 . S
C176 O177 1.249 . S
C176 O178 1.270 . S
O177 Zn169 1.943 . S
O177 C176 1.249 . S
O178 Zn168 2.067 . S
O178 C176 1.270 . S
C179 O172 1.262 . S
C179 O180 1.232 . S
O180 C179 1.232 . S
C181 O173 1.260 . S
C181 O174 1.257 . S
Zn182 O185 2.031 . S
Zn182 O187 2.049 . S
Zn182 O192 2.067 . S
Zn183 O184 1.962 . S
Zn183 O186 1.986 . S
Zn183 O188 1.996 . S
Zn183 O191 1.943 . S
O184 Zn183 1.962 . S
O184 C189 1.254 . S
O185 Zn182 2.031 . S
O185 C189 1.269 . S
O186 Zn183 1.986 . S
O186 C193 1.262 . S
O187 Zn182 2.049 . S
O187 C195 1.260 . S
O188 Zn183 1.996 . S
O188 C195 1.257 . S
C189 O184 1.254 . S
C189 O185 1.269 . S
C190 O191 1.249 . S
C190 O192 1.270 . S
O191 Zn183 1.943 . S
O191 C190 1.249 . S
O192 Zn182 2.067 . S
O192 C190 1.270 . S
C193 O186 1.262 . S
C193 O194 1.232 . S
O194 C193 1.232 . S
C195 O187 1.260 . S
C195 O188 1.257 . S
Zn196 O199 2.031 . S
Zn196 O201 2.049 . S
Zn196 O206 2.067 . S
Zn197 O198 1.962 . S
Zn197 O200 1.986 . S
Zn197 O202 1.996 . S
Zn197 O205 1.943 . S
O198 Zn197 1.962 . S
O198 C203 1.254 . S
O199 Zn196 2.031 . S
O199 C203 1.269 . S
O200 Zn197 1.986 . S
O200 C207 1.262 . S
O201 Zn196 2.049 . S
O201 C209 1.260 . S
O202 Zn197 1.996 . S
O202 C209 1.257 . S
C203 O198 1.254 . S
C203 O199 1.269 . S
C204 O205 1.249 . S
C204 O206 1.270 . S
O205 Zn197 1.943 . S
O205 C204 1.249 . S
O206 Zn196 2.067 . S
O206 C204 1.270 . S
C207 O200 1.262 . S
C207 O208 1.232 . S
O208 C207 1.232 . S
C209 O201 1.260 . S
C209 O202 1.257 . S
Zn210 O213 2.031 . S
Zn210 O215 2.049 . S
Zn210 O220 2.067 . S
Zn211 O212 1.962 . S
Zn211 O214 1.986 . S
Zn211 O216 1.996 . S
Zn211 O219 1.943 . S
O212 Zn211 1.962 . S
O212 C217 1.254 . S
O213 Zn210 2.031 . S
O213 C217 1.269 . S
O214 Zn211 1.986 . S
O214 C221 1.262 . S
O215 Zn210 2.049 . S
O215 C223 1.260 . S
O216 Zn211 1.996 . S
O216 C223 1.257 . S
C217 O212 1.254 . S
C217 O213 1.269 . S
C218 O219 1.249 . S
C218 O220 1.270 . S
O219 Zn211 1.943 . S
O219 C218 1.249 . S
O220 Zn210 2.067 . S
O220 C218 1.270 . S
C221 O214 1.262 . S
C221 O222 1.232 . S
O222 C221 1.232 . S
C223 O215 1.260 . S
C223 O216 1.257 . S
C224 C225 1.387 . S
C224 H228 0.950 . S
C224 C233 1.390 . S
C225 C224 1.387 . S
C225 C227 1.387 . S
H226 C233 0.950 . S
C227 C225 1.387 . S
C227 C229 1.390 . S
C227 H231 0.950 . S
H228 C224 0.950 . S
C229 C227 1.390 . S
C229 C230 1.387 . S
C229 H232 0.950 . S
C230 C229 1.387 . S
C230 C233 1.387 . S
H231 C227 0.950 . S
H232 C229 0.950 . S
C233 C224 1.390 . S
C233 H226 0.950 . S
C233 C230 1.387 . S
C234 C235 1.387 . S
C234 H238 0.950 . S
C234 C243 1.390 . S
C235 C234 1.387 . S
C235 C237 1.387 . S
H236 C243 0.950 . S
C237 C235 1.387 . S
C237 C239 1.390 . S
C237 H241 0.950 . S
H238 C234 0.950 . S
C239 C237 1.390 . S
C239 C240 1.387 . S
C239 H242 0.950 . S
C240 C239 1.387 . S
C240 C243 1.387 . S
H241 C237 0.950 . S
H242 C239 0.950 . S
C243 C234 1.390 . S
C243 H236 0.950 . S
C243 C240 1.387 . S
C244 C245 1.387 . S
C244 H248 0.950 . S
C244 C253 1.390 . S
C245 C244 1.387 . S
C245 C247 1.387 . S
H246 C253 0.950 . S
C247 C245 1.387 . S
C247 C249 1.390 . S
C247 H251 0.950 . S
H248 C244 0.950 . S
C249 C247 1.390 . S
C249 C250 1.387 . S
C249 H252 0.950 . S
C250 C249 1.387 . S
C250 C253 1.387 . S
H251 C247 0.950 . S
H252 C249 0.950 . S
C253 C244 1.390 . S
C253 H246 0.950 . S
C253 C250 1.387 . S
C254 C255 1.387 . S
C254 H258 0.950 . S
C254 C263 1.390 . S
C255 C254 1.387 . S
C255 C257 1.387 . S
H256 C263 0.950 . S
C257 C255 1.387 . S
C257 C259 1.390 . S
C257 H261 0.950 . S
H258 C254 0.950 . S
C259 C257 1.390 . S
C259 C260 1.387 . S
C259 H262 0.950 . S
C260 C259 1.387 . S
C260 C263 1.387 . S
H261 C257 0.950 . S
H262 C259 0.950 . S
C263 C254 1.390 . S
C263 H256 0.950 . S
C263 C260 1.387 . S
C264 C265 1.387 . S
C264 H268 0.950 . S
C264 C273 1.390 . S
C265 C264 1.387 . S
C265 C267 1.387 . S
H266 C273 0.950 . S
C267 C265 1.387 . S
C267 C269 1.390 . S
C267 H271 0.950 . S
H268 C264 0.950 . S
C269 C267 1.390 . S
C269 C270 1.387 . S
C269 H272 0.950 . S
C270 C269 1.387 . S
C270 C273 1.387 . S
H271 C267 0.950 . S
H272 C269 0.950 . S
C273 C264 1.390 . S
C273 H266 0.950 . S
C273 C270 1.387 . S
C274 C275 1.387 . S
C274 H278 0.950 . S
C274 C283 1.390 . S
C275 C274 1.387 . S
C275 C277 1.387 . S
H276 C283 0.950 . S
C277 C275 1.387 . S
C277 C279 1.390 . S
C277 H281 0.950 . S
H278 C274 0.950 . S
C279 C277 1.390 . S
C279 C280 1.387 . S
C279 H282 0.950 . S
C280 C279 1.387 . S
C280 C283 1.387 . S
H281 C277 0.950 . S
H282 C279 0.950 . S
C283 C274 1.390 . S
C283 H276 0.950 . S
C283 C280 1.387 . S
C284 C285 1.387 . S
C284 H288 0.950 . S
C284 C293 1.390 . S
C285 C284 1.387 . S
C285 C287 1.387 . S
H286 C293 0.950 . S
C287 C285 1.387 . S
C287 C289 1.390 . S
C287 H291 0.950 . S
H288 C284 0.950 . S
C289 C287 1.390 . S
C289 C290 1.387 . S
C289 H292 0.950 . S
C290 C289 1.387 . S
C290 C293 1.387 . S
H291 C287 0.950 . S
H292 C289 0.950 . S
C293 C284 1.390 . S
C293 H286 0.950 . S
C293 C290 1.387 . S
C294 C295 1.387 . S
C294 H298 0.950 . S
C294 C303 1.390 . S
C295 C294 1.387 . S
C295 C297 1.387 . S
H296 C303 0.950 . S
C297 C295 1.387 . S
C297 C299 1.390 . S
C297 H301 0.950 . S
H298 C294 0.950 . S
C299 C297 1.390 . S
C299 C300 1.387 . S
C299 H302 0.950 . S
C300 C299 1.387 . S
C300 C303 1.387 . S
H301 C297 0.950 . S
H302 C299 0.950 . S
C303 C294 1.390 . S
C303 H296 0.950 . S
C303 C300 1.387 . S
C304 C305 1.387 . S
C304 H308 0.950 . S
C304 C313 1.390 . S
C305 C304 1.387 . S
C305 C307 1.387 . S
H306 C313 0.950 . S
C307 C305 1.387 . S
C307 C309 1.390 . S
C307 H311 0.950 . S
H308 C304 0.950 . S
C309 C307 1.390 . S
C309 C310 1.387 . S
C309 H312 0.950 . S
C310 C309 1.387 . S
C310 C313 1.387 . S
H311 C307 0.950 . S
H312 C309 0.950 . S
C313 C304 1.390 . S
C313 H306 0.950 . S
C313 C310 1.387 . S
C314 C315 1.387 . S
C314 H318 0.950 . S
C314 C323 1.390 . S
C315 C314 1.387 . S
C315 C317 1.387 . S
H316 C323 0.950 . S
C317 C315 1.387 . S
C317 C319 1.390 . S
C317 H321 0.950 . S
H318 C314 0.950 . S
C319 C317 1.390 . S
C319 C320 1.387 . S
C319 H322 0.950 . S
C320 C319 1.387 . S
C320 C323 1.387 . S
H321 C317 0.950 . S
H322 C319 0.950 . S
C323 C314 1.390 . S
C323 H316 0.950 . S
C323 C320 1.387 . S
C324 C325 1.387 . S
C324 H328 0.950 . S
C324 C333 1.390 . S
C325 C324 1.387 . S
C325 C327 1.387 . S
H326 C333 0.950 . S
C327 C325 1.387 . S
C327 C329 1.390 . S
C327 H331 0.950 . S
H328 C324 0.950 . S
C329 C327 1.390 . S
C329 C330 1.387 . S
C329 H332 0.950 . S
C330 C329 1.387 . S
C330 C333 1.387 . S
H331 C327 0.950 . S
H332 C329 0.950 . S
C333 C324 1.390 . S
C333 H326 0.950 . S
C333 C330 1.387 . S
C334 C335 1.387 . S
C334 H338 0.950 . S
C334 C343 1.390 1_554 S
C335 C334 1.387 . S
C335 C337 1.387 . S
H336 C343 0.950 . S
C337 C335 1.387 . S
C337 C339 1.390 1_554 S
C337 H341 0.950 . S
H338 C334 0.950 . S
C339 C337 1.390 1_556 S
C339 C340 1.387 . S
C339 H342 0.950 . S
C340 C339 1.387 . S
C340 C343 1.387 . S
H341 C337 0.950 . S
H342 C339 0.950 . S
C343 C334 1.390 1_556 S
C343 H336 0.950 . S
C343 C340 1.387 . S
C344 C345 1.387 . S
C344 H348 0.950 . S
C344 C353 1.390 1_554 S
C345 C344 1.387 . S
C345 C347 1.387 . S
H346 C353 0.950 . S
C347 C345 1.387 . S
C347 C349 1.390 1_554 S
C347 H351 0.950 . S
H348 C344 0.950 . S
C349 C347 1.390 1_556 S
C349 C350 1.387 . S
C349 H352 0.950 . S
C350 C349 1.387 . S
C350 C353 1.387 . S
H351 C347 0.950 . S
H352 C349 0.950 . S
C353 C344 1.390 1_556 S
C353 H346 0.950 . S
C353 C350 1.387 . S
C354 C355 1.387 . S
C354 H358 0.950 . S
C354 C363 1.390 . S
C355 C354 1.387 . S
C355 C357 1.387 . S
H356 C363 0.950 . S
C357 C355 1.387 . S
C357 C359 1.390 . S
C357 H361 0.950 . S
H358 C354 0.950 . S
C359 C357 1.390 . S
C359 C360 1.387 . S
C359 H362 0.950 . S
C360 C359 1.387 . S
C360 C363 1.387 . S
H361 C357 0.950 . S
H362 C359 0.950 . S
C363 C354 1.390 . S
C363 H356 0.950 . S
C363 C360 1.387 . S
C364 C365 1.387 . S
C364 H368 0.950 . S
C364 C373 1.390 . S
C365 C364 1.387 . S
C365 C367 1.387 . S
H366 C373 0.950 . S
C367 C365 1.387 . S
C367 C369 1.390 . S
C367 H371 0.950 . S
H368 C364 0.950 . S
C369 C367 1.390 . S
C369 C370 1.387 . S
C369 H372 0.950 . S
C370 C369 1.387 . S
C370 C373 1.387 . S
H371 C367 0.950 . S
H372 C369 0.950 . S
C373 C364 1.390 . S
C373 H366 0.950 . S
C373 C370 1.387 . S
C374 C375 1.387 . S
C374 H378 0.950 . S
C374 C383 1.390 . S
C375 C374 1.387 . S
C375 C377 1.387 . S
H376 C383 0.950 . S
C377 C375 1.387 . S
C377 C379 1.390 . S
C377 H381 0.950 . S
H378 C374 0.950 . S
C379 C377 1.390 . S
C379 C380 1.387 . S
C379 H382 0.950 . S
C380 C379 1.387 . S
C380 C383 1.387 . S
H381 C377 0.950 . S
H382 C379 0.950 . S
C383 C374 1.390 . S
C383 H376 0.950 . S
C383 C380 1.387 . S
C384 C385 1.387 . S
C384 H388 0.950 . S
C384 C393 1.390 1_445 S
C385 C384 1.387 . S
C385 C387 1.387 . S
H386 C393 0.950 . S
C387 C385 1.387 . S
C387 C389 1.390 1_445 S
C387 H391 0.950 . S
H388 C384 0.950 . S
C389 C387 1.390 1_665 S
C389 C390 1.387 . S
C389 H392 0.950 . S
C390 C389 1.387 . S
C390 C393 1.387 . S
H391 C387 0.950 . S
H392 C389 0.950 . S
C393 C384 1.390 1_665 S
C393 H386 0.950 . S
C393 C390 1.387 . S
C394 C395 1.387 . S
C394 H398 0.950 . S
C394 C403 1.390 1_455 S
C395 C394 1.387 . S
C395 C397 1.387 . S
H396 C403 0.950 . S
C397 C395 1.387 . S
C397 C399 1.390 1_455 S
C397 H401 0.950 . S
H398 C394 0.950 . S
C399 C397 1.390 1_655 S
C399 C400 1.387 . S
C399 H402 0.950 . S
C400 C399 1.387 . S
C400 C403 1.387 . S
H401 C397 0.950 . S
H402 C399 0.950 . S
C403 C394 1.390 1_655 S
C403 H396 0.950 . S
C403 C400 1.387 . S
C404 C405 1.387 . S
C404 H408 0.950 . S
C404 C413 1.390 . S
C405 C404 1.387 . S
C405 C407 1.387 . S
H406 C413 0.950 . S
C407 C405 1.387 . S
C407 C409 1.390 . S
C407 H411 0.950 . S
H408 C404 0.950 . S
C409 C407 1.390 . S
C409 C410 1.387 . S
C409 H412 0.950 . S
C410 C409 1.387 . S
C410 C413 1.387 . S
H411 C407 0.950 . S
H412 C409 0.950 . S
C413 C404 1.390 . S
C413 H406 0.950 . S
C413 C410 1.387 . S
C414 C415 1.387 . S
C414 H418 0.950 . S
C414 C423 1.390 1_545 S
C415 C414 1.387 . S
C415 C417 1.387 . S
H416 C423 0.950 . S
C417 C415 1.387 . S
C417 C419 1.390 1_545 S
C417 H421 0.950 . S
H418 C414 0.950 . S
C419 C417 1.390 1_565 S
C419 C420 1.387 . S
C419 H422 0.950 . S
C420 C419 1.387 . S
C420 C423 1.387 . S
H421 C417 0.950 . S
H422 C419 0.950 . S
C423 C414 1.390 1_565 S
C423 H416 0.950 . S
C423 C420 1.387 . S
C424 C425 1.387 . S
C424 H428 0.950 . S
C424 C433 1.390 1_455 S
C425 C424 1.387 . S
C425 C427 1.387 . S
H426 C433 0.950 . S
C427 C425 1.387 . S
C427 C429 1.390 1_455 S
C427 H431 0.950 . S
H428 C424 0.950 . S
C429 C427 1.390 1_655 S
C429 C430 1.387 . S
C429 H432 0.950 . S
C430 C429 1.387 . S
C430 C433 1.387 . S
H431 C427 0.950 . S
H432 C429 0.950 . S
C433 C424 1.390 1_655 S
C433 H426 0.950 . S
C433 C430 1.387 . S
C434 C435 1.387 . S
C434 H438 0.950 . S
C434 C443 1.390 . S
C435 C434 1.387 . S
C435 C437 1.387 . S
H436 C443 0.950 . S
C437 C435 1.387 . S
C437 C439 1.390 . S
C437 H441 0.950 . S
H438 C434 0.950 . S
C439 C437 1.390 . S
C439 C440 1.387 . S
C439 H442 0.950 . S
C440 C439 1.387 . S
C440 C443 1.387 . S
H441 C437 0.950 . S
H442 C439 0.950 . S
C443 C434 1.390 . S
C443 H436 0.950 . S
C443 C440 1.387 . S
C444 C445 1.387 . S
C444 H448 0.950 . S
C444 C453 1.390 1_565 S
C445 C444 1.387 . S
C445 C447 1.387 . S
H446 C453 0.950 . S
C447 C445 1.387 . S
C447 C449 1.390 1_565 S
C447 H451 0.950 . S
H448 C444 0.950 . S
C449 C447 1.390 1_545 S
C449 C450 1.387 . S
C449 H452 0.950 . S
C450 C449 1.387 . S
C450 C453 1.387 . S
H451 C447 0.950 . S
H452 C449 0.950 . S
C453 C444 1.390 1_545 S
C453 H446 0.950 . S
C453 C450 1.387 . S
C454 C455 1.387 . S
C454 H458 0.950 . S
C454 C463 1.390 1_445 S
C455 C454 1.387 . S
C455 C457 1.387 . S
H456 C463 0.950 . S
C457 C455 1.387 . S
C457 C459 1.390 1_445 S
C457 H461 0.950 . S
H458 C454 0.950 . S
C459 C457 1.390 1_665 S
C459 C460 1.387 . S
C459 H462 0.950 . S
C460 C459 1.387 . S
C460 C463 1.387 . S
H461 C457 0.950 . S
H462 C459 0.950 . S
C463 C454 1.390 1_665 S
C463 H456 0.950 . S
C463 C460 1.387 . S
C464 C465 1.387 . S
C464 H468 0.950 . S
C464 C473 1.390 1_565 S
C465 C464 1.387 . S
C465 C467 1.387 . S
H466 C473 0.950 . S
C467 C465 1.387 . S
C467 C469 1.390 1_565 S
C467 H471 0.950 . S
H468 C464 0.950 . S
C469 C467 1.390 1_545 S
C469 C470 1.387 . S
C469 H472 0.950 . S
C470 C469 1.387 . S
C470 C473 1.387 . S
H471 C467 0.950 . S
H472 C469 0.950 . S
C473 C464 1.390 1_545 S
C473 H466 0.950 . S
C473 C470 1.387 . S
C474 C475 1.387 . S
C474 H478 0.950 . S
C474 C483 1.390 1_665 S
C475 C474 1.387 . S
C475 C477 1.387 . S
H476 C483 0.950 . S
C477 C475 1.387 . S
C477 C479 1.390 1_665 S
C477 H481 0.950 . S
H478 C474 0.950 . S
C479 C477 1.390 1_445 S
C479 C480 1.387 . S
C479 H482 0.950 . S
C480 C479 1.387 . S
C480 C483 1.387 . S
H481 C477 0.950 . S
H482 C479 0.950 . S
C483 C474 1.390 1_445 S
C483 H476 0.950 . S
C483 C480 1.387 . S
C484 C485 1.387 . S
C484 H488 0.950 . S
C484 C493 1.390 1_455 S
C485 C484 1.387 . S
C485 C487 1.387 . S
H486 C493 0.950 . S
C487 C485 1.387 . S
C487 C489 1.390 1_455 S
C487 H491 0.950 . S
H488 C484 0.950 . S
C489 C487 1.390 1_655 S
C489 C490 1.387 . S
C489 H492 0.950 . S
C490 C489 1.387 . S
C490 C493 1.387 . S
H491 C487 0.950 . S
H492 C489 0.950 . S
C493 C484 1.390 1_655 S
C493 H486 0.950 . S
C493 C490 1.387 . S
C494 C495 1.387 . S
C494 H498 0.950 . S
C494 C503 1.390 . S
C495 C494 1.387 . S
C495 C497 1.387 . S
H496 C503 0.950 . S
C497 C495 1.387 . S
C497 C499 1.390 . S
C497 H501 0.950 . S
H498 C494 0.950 . S
C499 C497 1.390 . S
C499 C500 1.387 . S
C499 H502 0.950 . S
C500 C499 1.387 . S
C500 C503 1.387 . S
H501 C497 0.950 . S
H502 C499 0.950 . S
C503 C494 1.390 . S
C503 H496 0.950 . S
C503 C500 1.387 . S
C504 C505 1.387 . S
C504 H508 0.950 . S
C504 C513 1.390 . S
C505 C504 1.387 . S
C505 C507 1.387 . S
H506 C513 0.950 . S
C507 C505 1.387 . S
C507 C509 1.390 . S
C507 H511 0.950 . S
H508 C504 0.950 . S
C509 C507 1.390 . S
C509 C510 1.387 . S
C509 H512 0.950 . S
C510 C509 1.387 . S
C510 C513 1.387 . S
H511 C507 0.950 . S
H512 C509 0.950 . S
C513 C504 1.390 . S
C513 H506 0.950 . S
C513 C510 1.387 . S
C514 C515 1.387 . S
C514 H518 0.950 . S
C514 C523 1.390 1_545 S
C515 C514 1.387 . S
C515 C517 1.387 . S
H516 C523 0.950 . S
C517 C515 1.387 . S
C517 C519 1.390 1_545 S
C517 H521 0.950 . S
H518 C514 0.950 . S
C519 C517 1.390 1_565 S
C519 C520 1.387 . S
C519 H522 0.950 . S
C520 C519 1.387 . S
C520 C523 1.387 . S
H521 C517 0.950 . S
H522 C519 0.950 . S
C523 C514 1.390 1_565 S
C523 H516 0.950 . S
C523 C520 1.387 . S
C524 C525 1.387 . S
C524 H528 0.950 . S
C524 C533 1.390 1_665 S
C525 C524 1.387 . S
C525 C527 1.387 . S
H526 C533 0.950 . S
C527 C525 1.387 . S
C527 C529 1.390 1_665 S
C527 H531 0.950 . S
H528 C524 0.950 . S
C529 C527 1.390 1_445 S
C529 C530 1.387 . S
C529 H532 0.950 . S
C530 C529 1.387 . S
C530 C533 1.387 . S
H531 C527 0.950 . S
H532 C529 0.950 . S
C533 C524 1.390 1_445 S
C533 H526 0.950 . S
C533 C530 1.387 . S
C534 C535 1.387 . S
C534 H538 0.950 . S
C534 C543 1.390 1_655 S
C535 C534 1.387 . S
C535 C537 1.387 . S
H536 C543 0.950 . S
C537 C535 1.387 . S
C537 C539 1.390 1_655 S
C537 H541 0.950 . S
H538 C534 0.950 . S
C539 C537 1.390 1_455 S
C539 C540 1.387 . S
C539 H542 0.950 . S
C540 C539 1.387 . S
C540 C543 1.387 . S
H541 C537 0.950 . S
H542 C539 0.950 . S
C543 C534 1.390 1_455 S
C543 H536 0.950 . S
C543 C540 1.387 . S
C225 C69 1.258 . S
C230 C13 1.258 . S
C235 C27 1.258 . S
C240 C83 1.258 . S
C245 C97 1.258 . S
C250 C41 1.258 . S
C255 C111 1.258 . S
C260 C55 1.258 . S
C265 C181 1.258 . S
C270 C125 1.258 . S
C275 C139 1.258 . S
C280 C195 1.258 . S
C285 C209 1.258 . S
C290 C153 1.258 . S
C295 C167 1.258 . S
C300 C223 1.258 . S
C305 C7 1.334 . S
C310 C217 1.334 . S
C315 C21 1.335 . S
C320 C175 1.334 . S
C325 C35 1.335 . S
C330 C189 1.334 . S
C335 C203 1.335 . S
C340 C49 1.334 . S
C345 C63 1.335 . S
C350 C133 1.334 . S
C355 C77 1.334 . S
C360 C147 1.335 . S
C365 C161 1.335 . S
C370 C91 1.334 . S
C375 C119 1.335 . S
C380 C105 1.334 . S
C385 C11 1.493 . S
C390 C151 1.493 . S
C395 C165 1.495 . S
C400 C25 1.495 . S
C405 C39 1.495 . S
C410 C123 1.495 . S
C415 C137 1.493 . S
C420 C53 1.493 . S
C425 C67 1.494 . S
C430 C207 1.494 . S
C435 C81 1.493 . S
C440 C221 1.493 . S
C445 C179 1.493 . S
C450 C95 1.493 . S
C455 C193 1.495 . S
C460 C109 1.494 . S
C465 C148 1.466 . S
C470 C8 1.466 . S
C475 C22 1.466 . S
C480 C162 1.466 . S
C485 C36 1.466 . S
C490 C120 1.466 . S
C495 C134 1.466 . S
C500 C50 1.466 . S
C505 C204 1.466 . S
C510 C64 1.466 . S
C515 C218 1.470 . S
C520 C78 1.470 . S
C525 C176 1.466 . S
C530 C92 1.466 . S
C535 C106 1.466 . S
C540 C190 1.466 . S
