# Generated by pormake.
# Topology umo, (4)-cn, num edge types: 1
# Building blocks:
#     Node 0, Type 0, BuildingBlock: CEKHIL_clean_sbu_0, # of connection points: 4
#     Node 1, Type 0, BuildingBlock: CEKHIL_clean_sbu_0, # of connection points: 4
#     Node 2, Type 0, BuildingBlock: CEKHIL_clean_sbu_0, # of connection points: 4
#     Node 3, Type 0, BuildingBlock: CEKHIL_clean_sbu_0, # of connection points: 4
#     Node 4, Type 0, BuildingBlock: CEKHIL_clean_sbu_0, # of connection points: 4
#     Node 5, Type 0, BuildingBlock: CEKHIL_clean_sbu_0, # of connection points: 4
#     Node 6, Type 0, BuildingBlock: CEKHIL_clean_sbu_0, # of connection points: 4
#     Node 7, Type 0, BuildingBlock: CEKHIL_clean_sbu_0, # of connection points: 4
#     Node 8, Type 0, BuildingBlock: CEKHIL_clean_sbu_0, # of connection points: 4
#     Node 9, Type 0, BuildingBlock: CEKHIL_clean_sbu_0, # of connection points: 4
#     Node 10, Type 0, BuildingBlock: CEKHIL_clean_sbu_0, # of connection points: 4
#     Node 11, Type 0, BuildingBlock: CEKHIL_clean_sbu_0, # of connection points: 4
#     Edge 12, Type (0, 0), BuildingBlock: XUDNAN_clean_linker_2, # of connection points: 2
#     Edge 13, Type (0, 0), BuildingBlock: XUDNAN_clean_linker_2, # of connection points: 2
#     Edge 14, Type (0, 0), BuildingBlock: XUDNAN_clean_linker_2, # of connection points: 2
#     Edge 15, Type (0, 0), BuildingBlock: XUDNAN_clean_linker_2, # of connection points: 2
#     Edge 16, Type (0, 0), BuildingBlock: XUDNAN_clean_linker_2, # of connection points: 2
#     Edge 17, Type (0, 0), BuildingBlock: XUDNAN_clean_linker_2, # of connection points: 2
#     Edge 18, Type (0, 0), BuildingBlock: XUDNAN_clean_linker_2, # of connection points: 2
#     Edge 19, Type (0, 0), BuildingBlock: XUDNAN_clean_linker_2, # of connection points: 2
#     Edge 20, Type (0, 0), BuildingBlock: XUDNAN_clean_linker_2, # of connection points: 2
#     Edge 21, Type (0, 0), BuildingBlock: XUDNAN_clean_linker_2, # of connection points: 2
#     Edge 22, Type (0, 0), BuildingBlock: XUDNAN_clean_linker_2, # of connection points: 2
#     Edge 23, Type (0, 0), BuildingBlock: XUDNAN_clean_linker_2, # of connection points: 2
#     Edge 24, Type (0, 0), BuildingBlock: XUDNAN_clean_linker_2, # of connection points: 2
#     Edge 25, Type (0, 0), BuildingBlock: XUDNAN_clean_linker_2, # of connection points: 2
#     Edge 26, Type (0, 0), BuildingBlock: XUDNAN_clean_linker_2, # of connection points: 2
#     Edge 27, Type (0, 0), BuildingBlock: XUDNAN_clean_linker_2, # of connection points: 2
#     Edge 28, Type (0, 0), BuildingBlock: XUDNAN_clean_linker_2, # of connection points: 2
#     Edge 29, Type (0, 0), BuildingBlock: XUDNAN_clean_linker_2, # of connection points: 2
#     Edge 30, Type (0, 0), BuildingBlock: XUDNAN_clean_linker_2, # of connection points: 2
#     Edge 31, Type (0, 0), BuildingBlock: XUDNAN_clean_linker_2, # of connection points: 2
#     Edge 32, Type (0, 0), BuildingBlock: XUDNAN_clean_linker_2, # of connection points: 2
#     Edge 33, Type (0, 0), BuildingBlock: XUDNAN_clean_linker_2, # of connection points: 2
#     Edge 34, Type (0, 0), BuildingBlock: XUDNAN_clean_linker_2, # of connection points: 2
#     Edge 35, Type (0, 0), BuildingBlock: XUDNAN_clean_linker_2, # of connection points: 2
# Relax obj value: 0.181
# Max RMSD: 0.256
# Mean RMSD: 0.255
data_MOF--net-umo--node1-CEKHIL_clean_sbu_0--edge1-XUDNAN_clean_linker_2
_symmetry_space_group_name_H-M    P1
_symmetry_Int_Tables_number       1
_symmetry_cell_setting            triclinic
loop_
_symmetry_equiv_pos_as_xyz
'x, y, z'
_cell_length_a     48.234769
_cell_length_b     48.214119
_cell_length_c     35.926236
_cell_angle_alpha  89.997626
_cell_angle_beta   90.109344
_cell_angle_gamma 120.01346
loop_
_atom_site_label
_atom_site_type_symbol
_atom_site_fract_x
_atom_site_fract_y
_atom_site_fract_z
_atom_type_partial_charge
Co0 Co 0.14255 0.53189 0.38268 0.0
O1 O 0.09861 0.50187 0.3739 0.0
O2 O 0.11927 0.55464 0.37483 0.0
C3 C 0.16391 0.51076 0.34357 0.0
O4 O 0.18718 0.56918 0.39122 0.0
Co5 Co 0.18147 0.50458 0.42157 0.0
O6 O 0.21728 0.54794 0.40979 0.0
C7 C 0.14274 0.5226 0.46755 0.0
C8 C 0.0942 0.52621 0.37151 0.0
C9 C 0.21412 0.5718 0.40072 0.0
O10 O 0.13447 0.53146 0.43787 0.0
O11 O 0.1601 0.50941 0.46737 0.0
O12 O 0.15348 0.52912 0.33105 0.0
O13 O 0.15663 0.502 0.37796 0.0
Co14 Co 0.61321 0.14652 0.56449 0.0
O15 O 0.60811 0.10473 0.55923 0.0
O16 O 0.56907 0.11623 0.55374 0.0
C17 C 0.657 0.17262 0.52773 0.0
O18 O 0.60947 0.18642 0.56627 0.0
Co19 Co 0.67304 0.20133 0.60245 0.0
O20 O 0.6592 0.22778 0.57465 0.0
C21 C 0.61791 0.15704 0.64888 0.0
C22 C 0.57828 0.09513 0.55175 0.0
C23 C 0.62985 0.21648 0.56615 0.0
O24 O 0.60398 0.14014 0.61978 0.0
O25 O 0.64569 0.18218 0.64803 0.0
O26 O 0.62854 0.15663 0.51345 0.0
O27 O 0.65854 0.16929 0.56341 0.0
Co28 Co 0.4736 0.63476 0.72737 0.0
O29 O 0.5081 0.62599 0.72729 0.0
O30 O 0.45675 0.58951 0.72028 0.0
C31 C 0.49591 0.67653 0.6875 0.0
O32 O 0.43178 0.6347 0.7239 0.0
Co33 Co 0.48212 0.69718 0.75984 0.0
O34 O 0.44245 0.6852 0.73179 0.0
C35 C 0.46602 0.64349 0.81081 0.0
C36 C 0.48646 0.59639 0.72093 0.0
C37 C 0.4236 0.65621 0.72259 0.0
O38 O 0.46798 0.6278 0.78298 0.0
O39 O 0.47122 0.67217 0.80791 0.0
O40 O 0.48174 0.64725 0.67564 0.0
O41 O 0.49968 0.68021 0.7234 0.0
Co42 Co 0.84012 0.45586 0.89339 0.0
O43 O 0.88324 0.49033 0.89312 0.0
O44 O 0.86821 0.43949 0.88132 0.0
C45 C 0.81841 0.4796 0.85924 0.0
O46 O 0.79795 0.41445 0.89035 0.0
Co47 Co 0.78904 0.46489 0.93448 0.0
O48 O 0.75968 0.42606 0.90545 0.0
C49 C 0.83033 0.44848 0.97834 0.0
C50 C 0.89116 0.46907 0.88443 0.0
C51 C 0.76849 0.407 0.8927 0.0
O52 O 0.84365 0.44762 0.94775 0.0
O53 O 0.8089 0.45674 0.97974 0.0
O54 O 0.83324 0.46659 0.84332 0.0
O55 O 0.82095 0.48168 0.89526 0.0
Co56 Co 0.36755 0.82992 0.06101 0.0
O57 O 0.37255 0.8718 0.06239 0.0
O58 O 0.41237 0.86134 0.06538 0.0
C59 C 0.33374 0.81215 0.01117 0.0
O60 O 0.37213 0.79056 0.06005 0.0
Co61 Co 0.30035 0.77082 0.07526 0.0
O62 O 0.32424 0.74743 0.07293 0.0
C63 C 0.34359 0.80449 0.13928 0.0
C64 C 0.40315 0.88245 0.06392 0.0
C65 C 0.3543 0.76074 0.06746 0.0
O66 O 0.36417 0.82587 0.11718 0.0
O67 O 0.31632 0.78185 0.1281 0.0
O68 O 0.36442 0.82952 1.00679 0.0
O69 O 0.32402 0.80871 0.04531 0.0
Co70 Co 0.52199 0.36416 0.23543 0.0
O71 O 0.48136 0.35993 0.24628 0.0
O72 O 0.52358 0.40441 0.226 0.0
C73 C 0.50272 0.31939 0.20029 0.0
O74 O 0.56708 0.37633 0.21997 0.0
Co75 Co 0.53685 0.31394 0.26707 0.0
O76 O 0.57038 0.33186 0.2282 0.0
C77 C 0.54664 0.36721 0.31543 0.0
C78 C 0.49329 0.3891 0.23455 0.0
C79 C 0.58101 0.35988 0.21503 0.0
O80 O 0.53733 0.3779 0.28819 0.0
O81 O 0.54658 0.34064 0.31379 0.0
O82 O 0.50676 0.34597 0.18665 0.0
O83 O 0.50674 0.31926 0.23611 0.0
Co84 Co 0.47012 0.82905 0.44663 0.0
O85 O 0.5033 0.87293 0.44364 0.0
O86 O 0.45159 0.85616 0.45086 0.0
C87 C 0.49439 0.81305 0.48871 0.0
O88 O 0.42947 0.78659 0.45225 0.0
Co89 Co 0.48167 0.77439 0.42136 0.0
O90 O 0.44059 0.74682 0.44714 0.0
C91 C 0.45866 0.8047 0.3667 0.0
C92 C 0.48083 0.8799 0.44885 0.0
C93 C 0.4212 0.75688 0.45391 0.0
O94 O 0.46277 0.82618 0.39081 0.0
O95 O 0.46508 0.7824 0.37337 0.0
O96 O 0.47953 0.82787 0.49914 0.0
O97 O 0.4976 0.81178 0.45299 0.0
Co98 Co 0.63325 0.47021 0.63152 0.0
O99 O 0.62568 0.50526 0.63617 0.0
O100 O 0.5877 0.45416 0.63277 0.0
C101 C 0.67049 0.4857 0.67724 0.0
O102 O 0.63215 0.428 0.62703 0.0
Co103 Co 0.7002 0.48447 0.6051 0.0
O104 O 0.68136 0.43772 0.61125 0.0
C105 C 0.6519 0.47611 0.5491 0.0
C106 C 0.59542 0.484 0.63659 0.0
C107 C 0.65191 0.4186 0.61836 0.0
O108 O 0.63227 0.47199 0.57546 0.0
O109 O 0.68086 0.48294 0.5547 0.0
O110 O 0.64019 0.47075 0.68479 0.0
O111 O 0.67771 0.49434 0.64277 0.0
Co112 Co 0.15726 0.63091 0.78136 0.0
O113 O 0.11567 0.61974 0.79877 0.0
O114 O 0.13349 0.58555 0.79165 0.0
C115 C 0.18483 0.67423 0.81829 0.0
O116 O 0.19889 0.63414 0.76532 0.0
Co117 Co 0.1965 0.69377 0.73831 0.0
O118 O 0.23122 0.68364 0.74313 0.0
C119 C 0.15086 0.63602 0.69695 0.0
C120 C 0.1106 0.59074 0.80178 0.0
C121 C 0.22585 0.65588 0.75226 0.0
O122 O 0.14164 0.62145 0.7283 0.0
O123 O 0.17232 0.66565 0.69452 0.0
O124 O 0.17477 0.64551 0.8306 0.0
O125 O 0.17467 0.676 0.78527 0.0
Co126 Co 0.51731 0.15268 0.96331 0.0
O127 O 0.48436 0.11106 0.97754 0.0
O128 O 0.53537 0.12511 0.97005 0.0
C129 C 0.5041 0.17965 1.00469 0.0
O130 O 0.55785 0.19352 0.9496 0.0
Co131 Co 0.4989 0.19953 0.92846 0.0
O132 O 0.54515 0.23046 0.93184 0.0
C133 C 0.5083 0.15546 0.87978 0.0
C134 C 0.50645 0.10326 0.97915 0.0
C135 C 0.56564 0.22179 0.93843 0.0
O136 O 0.51009 0.14081 0.90878 0.0
O137 O 0.50377 0.17942 0.88154 0.0
O138 O 0.52166 0.16749 0.01435 0.0
O139 O 0.49215 0.17244 0.97132 0.0
Co140 Co 0.35832 0.52194 0.12452 0.0
O141 O 0.35012 0.47889 0.12044 0.0
O142 O 0.39801 0.52174 0.12888 0.0
C143 C 0.31887 0.51039 0.16637 0.0
O144 O 0.37622 0.56959 0.13151 0.0
Co145 Co 0.30974 0.54118 0.10025 0.0
O146 O 0.3341 0.57682 0.13558 0.0
C147 C 0.35432 0.54074 0.04424 0.0
C148 C 0.38052 0.49074 0.12657 0.0
C149 C 0.36384 0.58692 0.13969 0.0
O150 O 0.36465 0.52877 0.06897 0.0
O151 O 0.33215 0.54732 0.05089 0.0
O152 O 0.34652 0.51472 0.17656 0.0
O153 O 0.31451 0.51051 0.13065 0.0
Co154 Co 0.82174 0.37151 0.30098 0.0
O155 O 0.86324 0.38421 0.32037 0.0
O156 O 0.84666 0.41789 0.30408 0.0
C157 C 0.79448 0.33284 0.34422 0.0
O158 O 0.78068 0.36713 0.28029 0.0
Co159 Co 0.78253 0.30362 0.26849 0.0
O160 O 0.75454 0.31986 0.2503 0.0
C161 C 0.82939 0.35485 0.22065 0.0
C162 C 0.86926 0.41351 0.31747 0.0
C163 C 0.75851 0.34733 0.2584 0.0
O164 O 0.83687 0.37428 0.24818 0.0
O165 O 0.80959 0.3248 0.22327 0.0
O166 O 0.80413 0.36271 0.35096 0.0
O167 O 0.80437 0.3273 0.31305 0.0
H168 H 0.27546 0.58609 0.4133 0.0
H169 H 0.21593 0.62977 0.40234 0.0
H170 H 0.26173 0.68181 0.42196 0.0
H171 H 0.31697 0.62834 0.49525 0.0
H172 H 0.35445 0.63189 0.48114 0.0
H173 H 0.31723 0.59832 0.46556 0.0
H174 H 0.33487 0.61214 0.3966 0.0
H175 H 0.37245 0.64507 0.41207 0.0
H176 H 0.34793 0.65203 0.37977 0.0
H177 H 0.31427 0.72876 0.44323 0.0
H178 H 0.37084 0.76824 0.45593 0.0
H179 H 0.39385 0.69186 0.45529 0.0
C180 C 0.27195 0.60657 0.41467 0.0
C181 C 0.24212 0.60388 0.40632 0.0
C182 C 0.23869 0.63136 0.40835 0.0
C183 C 0.26441 0.66088 0.4199 0.0
C184 C 0.29311 0.66226 0.42938 0.0
C185 C 0.29704 0.63588 0.4264 0.0
C186 C 0.33033 0.64353 0.43732 0.0
C187 C 0.32968 0.62438 0.47187 0.0
C188 C 0.3474 0.63788 0.40448 0.0
C189 C 0.34488 0.67863 0.44621 0.0
C190 C 0.323 0.68898 0.44199 0.0
C191 C 0.33157 0.72092 0.4468 0.0
C192 C 0.36375 0.74312 0.45425 0.0
C193 C 0.38683 0.73313 0.45641 0.0
C194 C 0.37685 0.70028 0.45398 0.0
H195 H 0.6605 0.274 0.53269 0.0
H196 H 0.57529 0.21095 0.59533 0.0
H197 H 0.56649 0.25625 0.60846 0.0
H198 H 0.69113 0.33241 0.591 0.0
H199 H 0.70714 0.36588 0.55934 0.0
H200 H 0.70126 0.32796 0.54391 0.0
H201 H 0.66541 0.32668 0.48967 0.0
H202 H 0.67142 0.36516 0.504 0.0
H203 H 0.63143 0.3316 0.49898 0.0
H204 H 0.57507 0.30998 0.62782 0.0
H205 H 0.59699 0.36692 0.6455 0.0
H206 H 0.67737 0.39372 0.57133 0.0
C207 C 0.63909 0.26956 0.54743 0.0
C208 C 0.6185 0.23936 0.56291 0.0
C209 C 0.59097 0.23402 0.58274 0.0
C210 C 0.58589 0.25963 0.59045 0.0
C211 C 0.60818 0.28991 0.57728 0.0
C212 C 0.63373 0.29476 0.55515 0.0
C213 C 0.65683 0.3299 0.5489 0.0
C214 C 0.69107 0.33956 0.56158 0.0
C215 C 0.65622 0.33887 0.50796 0.0
C216 C 0.64199 0.34404 0.57378 0.0
C217 C 0.61348 0.32085 0.58908 0.0
C218 C 0.59696 0.32842 0.61528 0.0
C219 C 0.60974 0.36065 0.62552 0.0
C220 C 0.6391 0.3845 0.61024 0.0
C221 C 0.65513 0.37593 0.58396 0.0
H222 H 0.28569 0.69568 0.72539 0.0
H223 H 0.22269 0.59778 0.76174 0.0
H224 H 0.26471 0.58457 0.7468 0.0
H225 H 0.32498 0.67694 0.64926 0.0
H226 H 0.36323 0.71186 0.65893 0.0
H227 H 0.32682 0.71254 0.66791 0.0
H228 H 0.34411 0.72866 0.73664 0.0
H229 H 0.38066 0.72856 0.72763 0.0
H230 H 0.35468 0.70429 0.76467 0.0
H231 H 0.31504 0.58352 0.73353 0.0
H232 H 0.3713 0.59631 0.72993 0.0
H233 H 0.40027 0.69461 0.70154 0.0
C234 C 0.28046 0.67133 0.72987 0.0
C235 C 0.25092 0.64776 0.74468 0.0
C236 C 0.24523 0.61628 0.75045 0.0
C237 C 0.26876 0.60843 0.74165 0.0
C238 C 0.29757 0.63227 0.72683 0.0
C239 C 0.30349 0.66311 0.72118 0.0
C240 C 0.33739 0.68524 0.70858 0.0
C241 C 0.33813 0.69734 0.6688 0.0
C242 C 0.35525 0.71331 0.73603 0.0
C243 C 0.35013 0.66238 0.70972 0.0
C244 C 0.32665 0.63173 0.71934 0.0
C245 C 0.33353 0.60726 0.72536 0.0
C246 C 0.36551 0.61472 0.72313 0.0
C247 C 0.38998 0.64648 0.7156 0.0
C248 C 0.38195 0.67012 0.70721 0.0
H249 H 0.70791 0.38614 0.86928 0.0
H250 H 0.77261 0.35332 0.90458 0.0
H251 H 0.72678 0.29862 0.9125 0.0
H252 H 0.65344 0.34991 0.93291 0.0
H253 H 0.61806 0.33825 0.90526 0.0
H254 H 0.65548 0.37203 0.89152 0.0
H255 H 0.65185 0.34665 0.82679 0.0
H256 H 0.61364 0.3131 0.83977 0.0
H257 H 0.64525 0.30645 0.82381 0.0
H258 H 0.67391 0.25189 0.93086 0.0
H259 H 0.6182 0.21476 0.95045 0.0
H260 H 0.58896 0.27921 0.90343 0.0
C261 C 0.71245 0.36705 0.877 0.0
C262 C 0.74351 0.37369 0.88635 0.0
C263 C 0.74887 0.34847 0.89684 0.0
C264 C 0.72299 0.31738 0.90154 0.0
C265 C 0.69225 0.31204 0.89471 0.0
C266 C 0.68698 0.33601 0.88155 0.0
C267 C 0.65178 0.32542 0.88068 0.0
C268 C 0.64429 0.34772 0.904 0.0
C269 C 0.63993 0.32273 0.84036 0.0
C270 C 0.63832 0.29285 0.89833 0.0
C271 C 0.66179 0.28513 0.90547 0.0
C272 C 0.65517 0.25729 0.92451 0.0
C273 C 0.62358 0.23657 0.93592 0.0
C274 C 0.59926 0.24417 0.92866 0.0
C275 C 0.60694 0.27266 0.90953 0.0
H276 H 0.34214 0.72801 0.13073 0.0
H277 H 0.40247 0.75531 0.03303 0.0
H278 H 0.42644 0.72324 0.05575 0.0
H279 H 0.40223 0.72215 0.19669 0.0
H280 H 0.36962 0.68887 0.22032 0.0
H281 H 0.36434 0.72062 0.20158 0.0
H282 H 0.31515 0.67929 0.16351 0.0
H283 H 0.31993 0.64778 0.18274 0.0
H284 H 0.31943 0.65202 0.13289 0.0
H285 H 0.4335 0.67934 0.08092 0.0
H286 H 0.41748 0.62431 0.09964 0.0
H287 H 0.35422 0.6269 0.18284 0.0
C288 C 0.36075 0.7275 0.11441 0.0
C289 C 0.37003 0.74312 0.07982 0.0
C290 C 0.39488 0.74291 0.05942 0.0
C291 C 0.40889 0.72525 0.07247 0.0
C292 C 0.39852 0.70921 0.10652 0.0
C293 C 0.37516 0.71059 0.12736 0.0
C294 C 0.36431 0.68763 0.15975 0.0
C295 C 0.37583 0.70591 0.19678 0.0
C296 C 0.32758 0.66536 0.15962 0.0
C297 C 0.38202 0.66995 0.15114 0.0
C298 C 0.4031 0.68393 0.12166 0.0
C299 C 0.41794 0.66876 0.10468 0.0
C300 C 0.40886 0.63748 0.11569 0.0
C301 C 0.3846 0.62172 0.14263 0.0
C302 C 0.37323 0.63901 0.16268 0.0
H303 H 0.73882 0.38845 0.28301 0.0
H304 H 0.73384 0.32986 0.18893 0.0
H305 H 0.69799 0.34423 0.15633 0.0
H306 H 0.66177 0.36348 0.28777 0.0
H307 H 0.66444 0.40097 0.30033 0.0
H308 H 0.69706 0.39449 0.31058 0.0
H309 H 0.73517 0.44606 0.27391 0.0
H310 H 0.70207 0.45212 0.26284 0.0
H311 H 0.72638 0.45009 0.22608 0.0
H312 H 0.65311 0.35131 0.14194 0.0
H313 H 0.60021 0.34635 0.15036 0.0
H314 H 0.63342 0.40291 0.25085 0.0
C315 C 0.73082 0.37952 0.25509 0.0
C316 C 0.73865 0.35783 0.23862 0.0
C317 C 0.72757 0.34611 0.20231 0.0
C318 C 0.7077 0.35465 0.18326 0.0
C319 C 0.69923 0.37511 0.20074 0.0
C320 C 0.71051 0.38754 0.23587 0.0
C321 C 0.69308 0.40375 0.2514 0.0
C322 C 0.67819 0.3898 0.28972 0.0
C323 C 0.71552 0.44017 0.25367 0.0
C324 C 0.66788 0.39527 0.22145 0.0
C325 C 0.67286 0.3801 0.19157 0.0
C326 C 0.64956 0.36432 0.1642 0.0
C327 C 0.6196 0.36175 0.16896 0.0
C328 C 0.61354 0.3752 0.20056 0.0
C329 C 0.63844 0.39397 0.22558 0.0
H330 H 0.17692 0.65094 0.62649 0.0
H331 H 0.10003 0.57492 0.69013 0.0
H332 H 0.0879 0.53783 0.63742 0.0
H333 H 0.13727 0.62644 0.53387 0.0
H334 H 0.17443 0.63707 0.51079 0.0
H335 H 0.17448 0.65849 0.55192 0.0
H336 H 0.21501 0.64522 0.5829 0.0
H337 H 0.21464 0.62331 0.54218 0.0
H338 H 0.20509 0.604 0.58703 0.0
H339 H 0.08841 0.50696 0.5804 0.0
H340 H 0.09846 0.4869 0.52104 0.0
H341 H 0.17367 0.58299 0.49429 0.0
C342 C 0.15683 0.62682 0.62895 0.0
C343 C 0.13934 0.61606 0.66257 0.0
C344 C 0.11375 0.58394 0.66474 0.0
C345 C 0.1067 0.56257 0.63492 0.0
C346 C 0.12526 0.57358 0.60284 0.0
C347 C 0.14947 0.60512 0.59942 0.0
C348 C 0.16694 0.61049 0.56273 0.0
C349 C 0.16303 0.63454 0.53839 0.0
C350 C 0.20252 0.62139 0.56911 0.0
C351 C 0.14911 0.57703 0.54635 0.0
C352 C 0.1252 0.55598 0.5699 0.0
C353 C 0.10673 0.52335 0.56149 0.0
C354 C 0.11264 0.51209 0.52794 0.0
C355 C 0.13662 0.53349 0.50333 0.0
C356 C 0.15496 0.56628 0.51267 0.0
H357 H 0.61798 0.19908 0.69966 0.0
H358 H 0.57467 0.09757 0.67626 0.0
H359 H 0.54071 0.08542 0.7325 0.0
H360 H 0.61764 0.19503 0.80052 0.0
H361 H 0.60742 0.226 0.80601 0.0
H362 H 0.62975 0.22602 0.7659 0.0
H363 H 0.58688 0.22666 0.72285 0.0
H364 H 0.56422 0.22618 0.76287 0.0
H365 H 0.54558 0.19574 0.72753 0.0
H366 H 0.51275 0.0849 0.79347 0.0
H367 H 0.49124 0.09621 0.85068 0.0
H368 H 0.54866 0.19798 0.82891 0.0
C369 C 0.60181 0.17425 0.70679 0.0
C370 C 0.59944 0.14919 0.68408 0.0
C371 C 0.57715 0.11708 0.69359 0.0
C372 C 0.55776 0.11 0.72541 0.0
C373 C 0.5604 0.13533 0.74695 0.0
C374 C 0.58173 0.16684 0.73778 0.0
C375 C 0.57875 0.18981 0.76405 0.0
C376 C 0.61025 0.21042 0.78539 0.0
C377 C 0.56822 0.21083 0.74307 0.0
C378 C 0.55258 0.16637 0.78967 0.0
C379 C 0.54255 0.13504 0.77977 0.0
C380 C 0.52005 0.10935 0.80102 0.0
C381 C 0.50784 0.11593 0.83334 0.0
C382 C 0.5175 0.14787 0.8435 0.0
C383 C 0.53991 0.17327 0.82104 0.0
H384 H 0.36011 0.58797 0.99646 0.0
H385 H 0.38785 0.51573 0.01023 0.0
H386 H 0.42034 0.53487 0.95292 0.0
H387 H 0.35584 0.58602 0.89509 0.0
H388 H 0.37236 0.6287 0.89114 0.0
H389 H 0.34978 0.60789 0.93185 0.0
H390 H 0.3977 0.64616 0.97356 0.0
H391 H 0.42058 0.6668 0.93296 0.0
H392 H 0.43637 0.64996 0.96583 0.0
H393 H 0.44986 0.56194 0.89374 0.0
H394 H 0.47412 0.59485 0.83754 0.0
H395 H 0.43013 0.65182 0.86443 0.0
C396 C 0.3725 0.57575 0.98704 0.0
C397 C 0.37101 0.54998 1.00766 0.0
C398 C 0.38837 0.53529 0.99482 0.0
C399 C 0.40697 0.54607 0.96232 0.0
C400 C 0.4084 0.57189 0.94309 0.0
C401 C 0.39163 0.58656 0.95496 0.0
C402 C 0.39817 0.61458 0.92997 0.0
C403 C 0.3672 0.60895 0.91088 0.0
C404 C 0.41415 0.64625 0.9519 0.0
C405 C 0.42116 0.61336 0.90212 0.0
C406 C 0.42657 0.58841 0.91005 0.0
C407 C 0.44596 0.58168 0.88745 0.0
C408 C 0.45973 0.60057 0.85562 0.0
C409 C 0.45449 0.62625 0.84683 0.0
C410 C 0.43524 0.63287 0.87081 0.0
H411 H 0.81823 0.40027 0.1932 0.0
H412 H 0.857 0.33946 0.16306 0.0
H413 H 0.86606 0.36101 0.09858 0.0
H414 H 0.77383 0.38622 0.11075 0.0
H415 H 0.77891 0.42583 0.10806 0.0
H416 H 0.77989 0.40923 0.15257 0.0
H417 H 0.8357 0.45821 0.16616 0.0
H418 H 0.83496 0.47521 0.12175 0.0
H419 H 0.86783 0.46905 0.13348 0.0
H420 H 0.86949 0.38858 0.03732 0.0
H421 H 0.86172 0.41449 0.98243 0.0
H422 H 0.81573 0.45357 0.0517 0.0
C423 C 0.82952 0.39223 0.17322 0.0
C424 C 0.83799 0.36906 0.18314 0.0
C425 C 0.8511 0.35775 0.15601 0.0
C426 C 0.85629 0.36988 0.11947 0.0
C427 C 0.84747 0.39265 0.11051 0.0
C428 C 0.83394 0.40335 0.13656 0.0
C429 C 0.82328 0.42515 0.11912 0.0
C430 C 0.78682 0.41074 0.12284 0.0
C431 C 0.84154 0.45891 0.13614 0.0
C432 C 0.83295 0.42518 0.079 0.0
C433 C 0.84737 0.40675 0.0748 0.0
C434 C 0.85824 0.40305 0.04034 0.0
C435 C 0.85379 0.41804 0.00927 0.0
C436 C 0.83808 0.43619 0.01255 0.0
C437 C 0.82786 0.43997 0.04813 0.0
H438 H 0.39775 0.84894 0.17838 0.0
H439 H 0.31341 0.75433 0.18742 0.0
H440 H 0.33427 0.74528 0.24564 0.0
H441 H 0.45391 0.82888 0.21207 0.0
H442 H 0.47729 0.8648 0.239 0.0
H443 H 0.45531 0.86563 0.19883 0.0
H444 H 0.42582 0.8873 0.23906 0.0
H445 H 0.44811 0.88709 0.27928 0.0
H446 H 0.40496 0.86588 0.2804 0.0
H447 H 0.36668 0.74284 0.29752 0.0
H448 H 0.40461 0.75114 0.34811 0.0
H449 H 0.46658 0.84896 0.31146 0.0
C450 C 0.38329 0.82665 0.19308 0.0
C451 C 0.35376 0.80243 0.178 0.0
C452 C 0.33586 0.77349 0.19818 0.0
C453 C 0.34763 0.76795 0.23131 0.0
C454 C 0.37717 0.79171 0.24459 0.0
C455 C 0.39444 0.82086 0.22686 0.0
C456 C 0.42555 0.84222 0.24769 0.0
C457 C 0.45474 0.85089 0.22291 0.0
C458 C 0.42613 0.87241 0.26249 0.0
C459 C 0.42324 0.82017 0.27936 0.0
C460 C 0.39527 0.79099 0.27643 0.0
C461 C 0.38838 0.76576 0.30054 0.0
C462 C 0.41024 0.77062 0.32896 0.0
C463 C 0.43851 0.80061 0.33365 0.0
C464 C 0.44508 0.82583 0.30856 0.0
H465 H 0.55312 0.35096 0.38776 0.0
H466 H 0.57471 0.43226 0.31695 0.0
H467 H 0.6041 0.46907 0.36854 0.0
H468 H 0.54062 0.3863 0.4722 0.0
H469 H 0.55771 0.36895 0.50247 0.0
H470 H 0.53802 0.3488 0.45999 0.0
H471 H 0.58923 0.3482 0.43972 0.0
H472 H 0.60911 0.36866 0.48195 0.0
H473 H 0.62678 0.38537 0.43746 0.0
H474 H 0.63476 0.49764 0.42676 0.0
H475 H 0.6591 0.51498 0.48964 0.0
H476 H 0.61469 0.41571 0.52383 0.0
C477 C 0.56378 0.37649 0.38324 0.0
C478 C 0.56148 0.38861 0.34819 0.0
C479 C 0.57577 0.42225 0.34355 0.0
C480 C 0.59276 0.44345 0.37266 0.0
C481 C 0.5949 0.4308 0.40667 0.0
C482 C 0.58032 0.39808 0.41236 0.0
C483 C 0.58558 0.3908 0.452 0.0
C484 C 0.55358 0.37264 0.47289 0.0
C485 C 0.60376 0.37215 0.45279 0.0
C486 C 0.606 0.42445 0.46727 0.0
C487 C 0.6113 0.44725 0.44065 0.0
C488 C 0.63046 0.48001 0.44797 0.0
C489 C 0.64425 0.48969 0.48358 0.0
C490 C 0.63847 0.46666 0.5113 0.0
C491 C 0.61916 0.43373 0.50299 0.0
H492 H 0.90973 0.40962 0.36577 0.0
H493 H 0.90014 0.47645 0.29378 0.0
H494 H 0.95675 0.51747 0.30696 0.0
H495 H 0.96621 0.46911 0.43441 0.0
H496 H 0.98727 0.44722 0.43927 0.0
H497 H 0.94496 0.42616 0.42925 0.0
H498 H 0.95504 0.40058 0.37105 0.0
H499 H -0.00279 0.4216 0.38071 0.0
H500 H 0.98285 0.42621 0.33608 0.0
H501 H 0.0173 0.548 0.32169 0.0
H502 H 0.07388 0.56372 0.33569 0.0
H503 H 0.04093 0.47532 0.39689 0.0
C504 C 0.91926 0.43315 0.35342 0.0
C505 C 0.9008 0.43999 0.32877 0.0
C506 C 0.91401 0.47094 0.31304 0.0
C507 C 0.94606 0.49431 0.32039 0.0
C508 C 0.96407 0.48629 0.34398 0.0
C509 C 0.95079 0.45645 0.36055 0.0
C510 C 0.97529 0.45204 0.38172 0.0
C511 C 0.96799 0.44843 0.42365 0.0
C512 C 0.97774 0.42344 0.36645 0.0
C513 C 0.00489 0.48347 0.3732 0.0
C514 C -0.0018 0.50338 0.35204 0.0
C515 C 0.02265 0.53278 0.33879 0.0
C516 C 0.05464 0.54156 0.34681 0.0
C517 C 0.06149 0.52058 0.36715 0.0
C518 C 0.03627 0.49175 0.38118 0.0
H519 H 0.54021 0.9311 0.45911 0.0
H520 H 0.43944 0.90259 0.46022 0.0
H521 H 0.45328 0.95582 0.48533 0.0
H522 H 0.55884 0.96958 0.54417 0.0
H523 H 0.59815 0.00118 0.5311 0.0
H524 H 0.58091 0.96289 0.50825 0.0
H525 H 0.58809 0.99001 0.44389 0.0
H526 H 0.60605 0.02852 0.46646 0.0
H527 H 0.57197 0.01616 0.43626 0.0
H528 H 0.47843 0.01111 0.51472 0.0
H529 H 0.51291 0.06422 0.54379 0.0
H530 H 0.59602 0.05345 0.52611 0.0
C531 C 0.52106 0.93627 0.46365 0.0
C532 C 0.48879 0.91289 0.45751 0.0
C533 C 0.46438 0.92036 0.4645 0.0
C534 C 0.472 0.95044 0.47884 0.0
C535 C 0.50406 0.97254 0.48599 0.0
C536 C 0.52818 0.96583 0.47831 0.0
C537 C 0.56048 0.99253 0.4908 0.0
C538 C 0.57545 0.98083 0.52033 0.0
C539 C 0.58296 0.00771 0.45736 0.0
C540 C 0.55076 0.01514 0.50737 0.0
C541 C 0.51823 0.00348 0.50403 0.0
C542 C 0.50395 0.0205 0.51737 0.0
C543 C 0.52363 0.05048 0.53398 0.0
C544 C 0.55699 0.06267 0.53745 0.0
C545 C 0.57052 0.04456 0.52427 0.0
H546 H 0.54528 0.60912 0.69936 0.0
H547 H 0.44855 0.5308 0.71709 0.0
H548 H 0.46476 0.49244 0.69408 0.0
H549 H 0.55811 0.57904 0.61408 0.0
H550 H 0.59984 0.5936 0.62373 0.0
H551 H 0.58052 0.61425 0.64247 0.0
H552 H 0.59744 0.60833 0.7093 0.0
H553 H 0.6172 0.58813 0.69071 0.0
H554 H 0.58712 0.56912 0.72622 0.0
H555 H 0.49299 0.46299 0.66978 0.0
H556 H 0.53062 0.4454 0.64829 0.0
H557 H 0.60685 0.54463 0.64417 0.0
C558 C 0.52752 0.58387 0.6989 0.0
C559 C 0.4958 0.57277 0.71037 0.0
C560 C 0.47309 0.53964 0.70861 0.0
C561 C 0.48204 0.51778 0.69545 0.0
C562 C 0.51355 0.5297 0.68375 0.0
C563 C 0.53583 0.56202 0.68534 0.0
C564 C 0.56799 0.56918 0.67074 0.0
C565 C 0.57713 0.59026 0.63567 0.0
C566 C 0.59395 0.58457 0.70105 0.0
C567 C 0.56071 0.53573 0.66148 0.0
C568 C 0.52922 0.51316 0.66888 0.0
C569 C 0.51763 0.4805 0.66363 0.0
C570 C 0.53908 0.47074 0.65132 0.0
C571 C 0.57157 0.49369 0.64454 0.0
C572 C 0.58213 0.52651 0.64896 0.0
H573 H 0.06904 0.5993 0.84324 0.0
H574 H 0.0837 0.52542 0.79428 0.0
H575 H 0.03001 0.48399 0.81659 0.0
H576 H 0.02397 0.55336 0.92547 0.0
H577 H -0.00154 0.57073 0.92413 0.0
H578 H 0.03919 0.59344 0.90797 0.0
H579 H 0.01904 0.60194 0.84431 0.0
H580 H 0.97838 0.57932 0.86021 0.0
H581 H 0.99018 0.56757 0.8182 0.0
H582 H 0.97189 0.45185 0.83828 0.0
H583 H 0.91578 0.4323 0.85762 0.0
H584 H 0.94214 0.52846 0.89304 0.0
C585 C 0.06119 0.57437 0.83759 0.0
C586 C 0.08021 0.56539 0.81696 0.0
C587 C 0.06929 0.53261 0.81022 0.0
C588 C 0.03897 0.50902 0.82282 0.0
C589 C 0.02047 0.51883 0.84257 0.0
C590 C 0.03145 0.55078 0.85019 0.0
C591 C 0.00664 0.55573 0.86969 0.0
C592 C 0.01773 0.56909 0.90916 0.0
C593 C -0.00194 0.5774 0.84672 0.0
C594 C 0.97938 0.52168 0.87071 0.0
C595 C 0.98769 0.50054 0.85538 0.0
C596 C 0.96531 0.46811 0.85093 0.0
C597 C 0.93356 0.45724 0.86192 0.0
C598 C 0.92476 0.47892 0.87682 0.0
C599 C 0.94818 0.51127 0.88195 0.0
H600 H 0.44787 0.05543 0.99905 0.0
H601 H 0.54717 0.07935 0.99071 0.0
H602 H 0.53261 0.02611 0.01693 0.0
H603 H 0.43021 0.01296 0.08541 0.0
H604 H 0.39012 0.98375 0.07138 0.0
H605 H 0.40881 0.02372 0.05266 0.0
H606 H 0.3991 0.00095 0.98545 0.0
H607 H 0.37996 0.96095 1.00394 0.0
H608 H 0.41333 0.97411 0.97257 0.0
H609 H 0.50568 0.96882 0.04229 0.0
H610 H 0.46892 0.91259 0.06105 0.0
H611 H 0.38873 0.92947 0.05398 0.0
C612 C 0.4667 0.04964 1.00269 0.0
C613 C 0.49864 0.07143 0.99289 0.0
C614 C 0.52249 0.06284 0.99801 0.0
C615 C 0.51447 0.03281 0.01305 0.0
C616 C 0.48264 0.01202 0.02286 0.0
C617 C 0.45921 0.02017 0.01768 0.0
C618 C 0.42661 0.99363 0.02918 0.0
C619 C 0.41317 0.00416 0.06159 0.0
C620 C 0.4034 0.98171 0.9958 0.0
C621 C 0.43514 0.96896 0.04149 0.0
C622 C 0.46751 0.97984 0.03783 0.0
C623 C 0.48036 0.9602 0.0456 0.0
C624 C 0.45936 0.92839 0.05635 0.0
C625 C 0.42605 0.9168 0.05913 0.0
C626 C 0.41411 0.9377 0.05254 0.0
H627 H 0.44315 0.5076 0.1402 0.0
H628 H 0.34605 0.42664 0.139 0.0
H629 H 0.36473 0.39336 0.16964 0.0
H630 H 0.4822 0.45968 0.12185 0.0
H631 H 0.51587 0.48445 0.15147 0.0
H632 H 0.49504 0.50154 0.12767 0.0
H633 H 0.48601 0.5216 0.19093 0.0
H634 H 0.50604 0.50381 0.21504 0.0
H635 H 0.46582 0.49323 0.22786 0.0
H636 H 0.39185 0.37088 0.20646 0.0
H637 H 0.4284 0.35561 0.23534 0.0
H638 H 0.50925 0.44939 0.20941 0.0
C639 C 0.42599 0.48267 0.14564 0.0
C640 C 0.39313 0.46973 0.13741 0.0
C641 C 0.37134 0.43706 0.14498 0.0
C642 C 0.38165 0.418 0.16268 0.0
C643 C 0.41386 0.43187 0.172 0.0
C644 C 0.43596 0.46309 0.16281 0.0
C645 C 0.46931 0.47168 0.17558 0.0
C646 C 0.49194 0.4798 0.14215 0.0
C647 C 0.48256 0.49921 0.20404 0.0
C648 C 0.46229 0.44045 0.19371 0.0
C649 C 0.43002 0.41814 0.19185 0.0
C650 C 0.41727 0.3879 0.20762 0.0
C651 C 0.43826 0.37961 0.22427 0.0
C652 C 0.47173 0.40126 0.2244 0.0
C653 C 0.4838 0.43237 0.20969 0.0
H654 H 0.18272 0.52877 0.27147 0.0
H655 H 0.19453 0.47807 0.36441 0.0
H656 H 0.23304 0.46985 0.32733 0.0
H657 H 0.18817 0.47987 0.19743 0.0
H658 H 0.21022 0.51351 0.16682 0.0
H659 H 0.18248 0.51404 0.19994 0.0
H660 H 0.2276 0.56752 0.22705 0.0
H661 H 0.25548 0.56716 0.19407 0.0
H662 H 0.26414 0.56989 0.24319 0.0
H663 H 0.27299 0.47068 0.28203 0.0
H664 H 0.31067 0.47897 0.23125 0.0
H665 H 0.27184 0.52745 0.16615 0.0
C666 C 0.1931 0.51559 0.28392 0.0
C667 C 0.18549 0.50391 0.32088 0.0
C668 C 0.19984 0.48707 0.33617 0.0
C669 C 0.22175 0.48231 0.31529 0.0
C670 C 0.22891 0.4944 0.27909 0.0
C671 C 0.21492 0.51057 0.26343 0.0
C672 C 0.22753 0.52205 0.22438 0.0
C673 C 0.20048 0.50643 0.19543 0.0
C674 C 0.2447 0.55883 0.22206 0.0
C675 C 0.25102 0.50998 0.22051 0.0
C676 C 0.25146 0.4942 0.25252 0.0
C677 C 0.27252 0.4826 0.25671 0.0
C678 C 0.29388 0.48749 0.22771 0.0
C679 C 0.29391 0.50351 0.19462 0.0
C680 C 0.27186 0.51453 0.19079 0.0
H681 H 0.73979 0.27333 0.34339 0.0
H682 H 0.81775 0.33994 0.41398 0.0
H683 H 0.79361 0.30368 0.46766 0.0
H684 H 0.67955 0.25469 0.41036 0.0
H685 H 0.65532 0.21314 0.39747 0.0
H686 H 0.68074 0.24207 0.36343 0.0
H687 H 0.70829 0.20868 0.35056 0.0
H688 H 0.68287 0.17959 0.38458 0.0
H689 H 0.72578 0.19833 0.38867 0.0
H690 H 0.75956 0.26184 0.51467 0.0
H691 H 0.7164 0.21894 0.55212 0.0
H692 H 0.65891 0.18077 0.45216 0.0
C693 C 0.75205 0.27974 0.36998 0.0
C694 C 0.78086 0.30909 0.37457 0.0
C695 C 0.79578 0.31736 0.40997 0.0
C696 C 0.7823 0.2969 0.44057 0.0
C697 C 0.75358 0.26835 0.4355 0.0
C698 C 0.73848 0.25979 0.40116 0.0
C699 C 0.70634 0.22923 0.40418 0.0
C700 C 0.67887 0.23515 0.39322 0.0
C701 C 0.7058 0.20237 0.3806 0.0
C702 C 0.70565 0.22224 0.4455 0.0
C703 C 0.73333 0.24484 0.46296 0.0
C704 C 0.73783 0.24388 0.50125 0.0
C705 C 0.71321 0.21941 0.52233 0.0
C706 C 0.68429 0.1965 0.50516 0.0
C707 C 0.68078 0.19786 0.46615 0.0
H708 H 0.4809 0.72454 0.68147 0.0
H709 H 0.53492 0.68537 0.62978 0.0
H710 H 0.54488 0.72006 0.575 0.0
H711 H 0.44069 0.7236 0.60143 0.0
H712 H 0.43999 0.76001 0.6105 0.0
H713 H 0.44208 0.73694 0.64863 0.0
H714 H 0.49369 0.78648 0.67285 0.0
H715 H 0.49155 0.80994 0.63505 0.0
H716 H 0.52734 0.80759 0.64202 0.0
H717 H 0.54258 0.75305 0.52233 0.0
H718 H 0.53034 0.78416 0.47698 0.0
H719 H 0.47698 0.80136 0.56207 0.0
C720 C 0.49596 0.72435 0.65934 0.0
C721 C 0.50792 0.70295 0.66022 0.0
C722 C 0.52624 0.70221 0.62991 0.0
C723 C 0.53188 0.72171 0.59862 0.0
C724 C 0.51875 0.74168 0.59782 0.0
C725 C 0.50139 0.74339 0.62751 0.0
C726 C 0.48713 0.76433 0.61794 0.0
C727 C 0.4503 0.74506 0.61973 0.0
C728 C 0.50076 0.79384 0.64349 0.0
C729 C 0.49878 0.77364 0.57819 0.0
C730 C 0.51709 0.76044 0.56715 0.0
C731 C 0.52875 0.764 0.53087 0.0
C732 C 0.5216 0.7816 0.50523 0.0
C733 C 0.50302 0.79547 0.516 0.0
C734 C 0.4917 0.7915 0.55308 0.0
H735 H 0.8114 0.47768 0.78357 0.0
H736 H 0.77703 0.49875 0.88524 0.0
H737 H 0.73876 0.50762 0.84831 0.0
H738 H 0.80406 0.53572 0.7236 0.0
H739 H 0.79117 0.50924 0.68394 0.0
H740 H 0.81762 0.50726 0.71799 0.0
H741 H 0.77765 0.44679 0.72745 0.0
H742 H 0.7511 0.44857 0.69352 0.0
H743 H 0.73675 0.43391 0.73972 0.0
H744 H 0.70076 0.50861 0.80124 0.0
H745 H 0.66637 0.50293 0.74751 0.0
H746 H 0.72649 0.48324 0.67554 0.0
C747 C 0.79619 0.48468 0.79809 0.0
C748 C 0.79727 0.48766 0.83737 0.0
C749 C 0.77676 0.49654 0.85523 0.0
C750 C 0.75497 0.50162 0.83445 0.0
C751 C 0.75424 0.49805 0.79581 0.0
C752 C 0.77447 0.49 0.77776 0.0
C753 C 0.7678 0.48607 0.73618 0.0
C754 C 0.7969 0.51107 0.71413 0.0
C755 C 0.75772 0.4518 0.72349 0.0
C756 C 0.74013 0.49248 0.73365 0.0
C757 C 0.7328 0.49943 0.76843 0.0
C758 C 0.70667 0.50379 0.77384 0.0
C759 C 0.68726 0.50048 0.74316 0.0
C760 C 0.69415 0.49322 0.70735 0.0
C761 C 0.72128 0.48973 0.70241 0.0
H762 H 0.27632 0.75546 1.00716 0.0
H763 H 0.34301 0.83724 0.94161 0.0
H764 H 0.30922 0.81354 0.88577 0.0
H765 H 0.26336 0.69825 0.93811 0.0
H766 H 0.2217 0.67203 0.94893 0.0
H767 H 0.24884 0.69732 0.98456 0.0
H768 H 0.2125 0.72172 0.99686 0.0
H769 H 0.18525 0.6965 0.96114 0.0
H770 H 0.20217 0.73931 0.95887 0.0
H771 H 0.26897 0.77943 0.83589 0.0
H772 H 0.22857 0.7357 0.796 0.0
H773 H 0.19053 0.67526 0.89348 0.0
C774 C 0.28336 0.76862 0.98121 0.0
C775 C 0.31201 0.79836 0.97875 0.0
C776 C 0.32102 0.81447 0.94408 0.0
C777 C 0.30191 0.80127 0.91224 0.0
C778 C 0.27398 0.77168 0.91533 0.0
C779 C 0.26488 0.75542 0.9489 0.0
C780 C 0.2355 0.72265 0.944 0.0
C781 C 0.2428 0.696 0.95451 0.0
C782 C 0.20718 0.7199 0.96656 0.0
C783 C 0.22978 0.7229 0.90251 0.0
C784 C 0.25181 0.75156 0.88647 0.0
C785 C 0.2515 0.75692 0.84822 0.0
C786 C 0.22844 0.73207 0.82576 0.0
C787 C 0.20649 0.70217 0.84161 0.0
C788 C 0.20704 0.69789 0.88052 0.0
H789 H 0.52893 0.28031 0.19111 0.0
H790 H 0.45474 0.29832 0.15062 0.0
H791 H 0.44471 0.26202 0.09756 0.0
H792 H 0.5617 0.28315 0.10467 0.0
H793 H 0.57132 0.25204 0.11296 0.0
H794 H 0.56922 0.27487 0.15138 0.0
H795 H 0.52719 0.22275 0.18399 0.0
H796 H 0.52959 0.19963 0.146 0.0
H797 H 0.49141 0.19487 0.15922 0.0
H798 H 0.4475 0.22972 0.04454 0.0
H799 H 0.45996 0.19959 0.99806 0.0
H800 H 0.53285 0.20304 0.07205 0.0
C801 C 0.50973 0.27551 0.17193 0.0
C802 C 0.49212 0.29156 0.17532 0.0
C803 C 0.46805 0.28573 0.14879 0.0
C804 C 0.4623 0.2653 0.11845 0.0
C805 C 0.48097 0.25092 0.11481 0.0
C806 C 0.50393 0.25537 0.14105 0.0
C807 C 0.52246 0.23919 0.12878 0.0
C808 C 0.55829 0.26378 0.12418 0.0
C809 C 0.51735 0.21252 0.15612 0.0
C810 C 0.50667 0.22548 0.09147 0.0
C811 C 0.48276 0.23247 0.08394 0.0
C812 C 0.46584 0.22365 0.05036 0.0
C813 C 0.47319 0.20673 0.02401 0.0
C814 C 0.49719 0.19879 0.03146 0.0
C815 C 0.51413 0.20847 0.06563 0.0
loop_
_geom_bond_atom_site_label_1
_geom_bond_atom_site_label_2
_geom_bond_distance
_geom_bond_site_symmetry_2
_ccdc_geom_bond_type
Co0 O1 2.216 . S
Co0 O2 2.091 . S
Co0 O4 2.004 . S
Co0 O10 2.021 . S
Co0 O12 2.137 . S
Co0 O13 2.244 . S
O1 Co0 2.216 . S
O1 C8 1.247 . S
O2 Co0 2.091 . S
O2 C8 1.261 . S
C3 O12 1.247 . S
C3 O13 1.272 . S
O4 Co0 2.004 . S
O4 C9 1.259 . S
Co5 O6 2.061 . S
Co5 O11 2.052 . S
Co5 O13 2.135 . S
O6 Co5 2.061 . S
O6 C9 1.235 . S
C7 O10 1.238 . S
C7 O11 1.241 . S
C8 O1 1.247 . S
C8 O2 1.261 . S
C9 O4 1.259 . S
C9 O6 1.235 . S
O10 Co0 2.021 . S
O10 C7 1.238 . S
O11 Co5 2.052 . S
O11 C7 1.241 . S
O12 Co0 2.137 . S
O12 C3 1.247 . S
O13 Co0 2.244 . S
O13 C3 1.272 . S
O13 Co5 2.135 . S
Co14 O15 2.216 . S
Co14 O16 2.091 . S
Co14 O18 2.004 . S
Co14 O24 2.021 . S
Co14 O26 2.137 . S
Co14 O27 2.244 . S
O15 Co14 2.216 . S
O15 C22 1.247 . S
O16 Co14 2.091 . S
O16 C22 1.261 . S
C17 O26 1.247 . S
C17 O27 1.272 . S
O18 Co14 2.004 . S
O18 C23 1.259 . S
Co19 O20 2.061 . S
Co19 O25 2.052 . S
Co19 O27 2.135 . S
O20 Co19 2.061 . S
O20 C23 1.235 . S
C21 O24 1.238 . S
C21 O25 1.241 . S
C22 O15 1.247 . S
C22 O16 1.261 . S
C23 O18 1.259 . S
C23 O20 1.235 . S
O24 Co14 2.021 . S
O24 C21 1.238 . S
O25 Co19 2.052 . S
O25 C21 1.241 . S
O26 Co14 2.137 . S
O26 C17 1.247 . S
O27 Co14 2.244 . S
O27 C17 1.272 . S
O27 Co19 2.135 . S
Co28 O29 2.216 . S
Co28 O30 2.091 . S
Co28 O32 2.004 . S
Co28 O38 2.021 . S
Co28 O40 2.137 . S
Co28 O41 2.244 . S
O29 Co28 2.216 . S
O29 C36 1.247 . S
O30 Co28 2.091 . S
O30 C36 1.261 . S
C31 O40 1.247 . S
C31 O41 1.272 . S
O32 Co28 2.004 . S
O32 C37 1.259 . S
Co33 O34 2.061 . S
Co33 O39 2.052 . S
Co33 O41 2.135 . S
O34 Co33 2.061 . S
O34 C37 1.235 . S
C35 O38 1.238 . S
C35 O39 1.241 . S
C36 O29 1.247 . S
C36 O30 1.261 . S
C37 O32 1.259 . S
C37 O34 1.235 . S
O38 Co28 2.021 . S
O38 C35 1.238 . S
O39 Co33 2.052 . S
O39 C35 1.241 . S
O40 Co28 2.137 . S
O40 C31 1.247 . S
O41 Co28 2.244 . S
O41 C31 1.272 . S
O41 Co33 2.135 . S
Co42 O43 2.216 . S
Co42 O44 2.091 . S
Co42 O46 2.004 . S
Co42 O52 2.021 . S
Co42 O54 2.137 . S
Co42 O55 2.244 . S
O43 Co42 2.216 . S
O43 C50 1.247 . S
O44 Co42 2.091 . S
O44 C50 1.261 . S
C45 O54 1.247 . S
C45 O55 1.272 . S
O46 Co42 2.004 . S
O46 C51 1.259 . S
Co47 O48 2.061 . S
Co47 O53 2.052 . S
Co47 O55 2.135 . S
O48 Co47 2.061 . S
O48 C51 1.235 . S
C49 O52 1.238 . S
C49 O53 1.241 . S
C50 O43 1.247 . S
C50 O44 1.261 . S
C51 O46 1.259 . S
C51 O48 1.235 . S
O52 Co42 2.021 . S
O52 C49 1.238 . S
O53 Co47 2.052 . S
O53 C49 1.241 . S
O54 Co42 2.137 . S
O54 C45 1.247 . S
O55 Co42 2.244 . S
O55 C45 1.272 . S
O55 Co47 2.135 . S
Co56 O57 2.216 . S
Co56 O58 2.091 . S
Co56 O60 2.004 . S
Co56 O66 2.021 . S
Co56 O68 2.137 . S
Co56 O69 2.244 . S
O57 Co56 2.216 . S
O57 C64 1.247 . S
O58 Co56 2.091 . S
O58 C64 1.261 . S
C59 O68 1.247 . S
C59 O69 1.272 . S
O60 Co56 2.004 . S
O60 C65 1.259 . S
Co61 O62 2.061 . S
Co61 O67 2.052 . S
Co61 O69 2.135 . S
O62 Co61 2.061 . S
O62 C65 1.235 . S
C63 O66 1.238 . S
C63 O67 1.241 . S
C64 O57 1.247 . S
C64 O58 1.261 . S
C65 O60 1.259 . S
C65 O62 1.235 . S
O66 Co56 2.021 . S
O66 C63 1.238 . S
O67 Co61 2.052 . S
O67 C63 1.241 . S
O68 Co56 2.137 . S
O68 C59 1.247 . S
O69 Co56 2.244 . S
O69 C59 1.272 . S
O69 Co61 2.135 . S
Co70 O71 2.216 . S
Co70 O72 2.091 . S
Co70 O74 2.004 . S
Co70 O80 2.021 . S
Co70 O82 2.137 . S
Co70 O83 2.244 . S
O71 Co70 2.216 . S
O71 C78 1.247 . S
O72 Co70 2.091 . S
O72 C78 1.261 . S
C73 O82 1.247 . S
C73 O83 1.272 . S
O74 Co70 2.004 . S
O74 C79 1.259 . S
Co75 O76 2.061 . S
Co75 O81 2.052 . S
Co75 O83 2.135 . S
O76 Co75 2.061 . S
O76 C79 1.235 . S
C77 O80 1.238 . S
C77 O81 1.241 . S
C78 O71 1.247 . S
C78 O72 1.261 . S
C79 O74 1.259 . S
C79 O76 1.235 . S
O80 Co70 2.021 . S
O80 C77 1.238 . S
O81 Co75 2.052 . S
O81 C77 1.241 . S
O82 Co70 2.137 . S
O82 C73 1.247 . S
O83 Co70 2.244 . S
O83 C73 1.272 . S
O83 Co75 2.135 . S
Co84 O85 2.216 . S
Co84 O86 2.091 . S
Co84 O88 2.004 . S
Co84 O94 2.021 . S
Co84 O96 2.137 . S
Co84 O97 2.244 . S
O85 Co84 2.216 . S
O85 C92 1.247 . S
O86 Co84 2.091 . S
O86 C92 1.261 . S
C87 O96 1.247 . S
C87 O97 1.272 . S
O88 Co84 2.004 . S
O88 C93 1.259 . S
Co89 O90 2.061 . S
Co89 O95 2.052 . S
Co89 O97 2.135 . S
O90 Co89 2.061 . S
O90 C93 1.235 . S
C91 O94 1.238 . S
C91 O95 1.241 . S
C92 O85 1.247 . S
C92 O86 1.261 . S
C93 O88 1.259 . S
C93 O90 1.235 . S
O94 Co84 2.021 . S
O94 C91 1.238 . S
O95 Co89 2.052 . S
O95 C91 1.241 . S
O96 Co84 2.137 . S
O96 C87 1.247 . S
O97 Co84 2.244 . S
O97 C87 1.272 . S
O97 Co89 2.135 . S
Co98 O99 2.216 . S
Co98 O100 2.091 . S
Co98 O102 2.004 . S
Co98 O108 2.021 . S
Co98 O110 2.137 . S
Co98 O111 2.244 . S
O99 Co98 2.216 . S
O99 C106 1.247 . S
O100 Co98 2.091 . S
O100 C106 1.261 . S
C101 O110 1.247 . S
C101 O111 1.272 . S
O102 Co98 2.004 . S
O102 C107 1.259 . S
Co103 O104 2.061 . S
Co103 O109 2.052 . S
Co103 O111 2.135 . S
O104 Co103 2.061 . S
O104 C107 1.235 . S
C105 O108 1.238 . S
C105 O109 1.241 . S
C106 O99 1.247 . S
C106 O100 1.261 . S
C107 O102 1.259 . S
C107 O104 1.235 . S
O108 Co98 2.021 . S
O108 C105 1.238 . S
O109 Co103 2.052 . S
O109 C105 1.241 . S
O110 Co98 2.137 . S
O110 C101 1.247 . S
O111 Co98 2.244 . S
O111 C101 1.272 . S
O111 Co103 2.135 . S
Co112 O113 2.216 . S
Co112 O114 2.091 . S
Co112 O116 2.004 . S
Co112 O122 2.021 . S
Co112 O124 2.137 . S
Co112 O125 2.244 . S
O113 Co112 2.216 . S
O113 C120 1.247 . S
O114 Co112 2.091 . S
O114 C120 1.261 . S
C115 O124 1.247 . S
C115 O125 1.272 . S
O116 Co112 2.004 . S
O116 C121 1.259 . S
Co117 O118 2.061 . S
Co117 O123 2.052 . S
Co117 O125 2.135 . S
O118 Co117 2.061 . S
O118 C121 1.235 . S
C119 O122 1.238 . S
C119 O123 1.241 . S
C120 O113 1.247 . S
C120 O114 1.261 . S
C121 O116 1.259 . S
C121 O118 1.235 . S
O122 Co112 2.021 . S
O122 C119 1.238 . S
O123 Co117 2.052 . S
O123 C119 1.241 . S
O124 Co112 2.137 . S
O124 C115 1.247 . S
O125 Co112 2.244 . S
O125 C115 1.272 . S
O125 Co117 2.135 . S
Co126 O127 2.216 . S
Co126 O128 2.091 . S
Co126 O130 2.004 . S
Co126 O136 2.021 . S
Co126 O138 2.137 . S
Co126 O139 2.244 . S
O127 Co126 2.216 . S
O127 C134 1.247 . S
O128 Co126 2.091 . S
O128 C134 1.261 . S
C129 O138 1.247 . S
C129 O139 1.272 . S
O130 Co126 2.004 . S
O130 C135 1.259 . S
Co131 O132 2.061 . S
Co131 O137 2.052 . S
Co131 O139 2.135 . S
O132 Co131 2.061 . S
O132 C135 1.235 . S
C133 O136 1.238 . S
C133 O137 1.241 . S
C134 O127 1.247 . S
C134 O128 1.261 . S
C135 O130 1.259 . S
C135 O132 1.235 . S
O136 Co126 2.021 . S
O136 C133 1.238 . S
O137 Co131 2.052 . S
O137 C133 1.241 . S
O138 Co126 2.137 . S
O138 C129 1.247 . S
O139 Co126 2.244 . S
O139 C129 1.272 . S
O139 Co131 2.135 . S
Co140 O141 2.216 . S
Co140 O142 2.091 . S
Co140 O144 2.004 . S
Co140 O150 2.021 . S
Co140 O152 2.137 . S
Co140 O153 2.244 . S
O141 Co140 2.216 . S
O141 C148 1.247 . S
O142 Co140 2.091 . S
O142 C148 1.261 . S
C143 O152 1.247 . S
C143 O153 1.272 . S
O144 Co140 2.004 . S
O144 C149 1.259 . S
Co145 O146 2.061 . S
Co145 O151 2.052 . S
Co145 O153 2.135 . S
O146 Co145 2.061 . S
O146 C149 1.235 . S
C147 O150 1.238 . S
C147 O151 1.241 . S
C148 O141 1.247 . S
C148 O142 1.261 . S
C149 O144 1.259 . S
C149 O146 1.235 . S
O150 Co140 2.021 . S
O150 C147 1.238 . S
O151 Co145 2.052 . S
O151 C147 1.241 . S
O152 Co140 2.137 . S
O152 C143 1.247 . S
O153 Co140 2.244 . S
O153 C143 1.272 . S
O153 Co145 2.135 . S
Co154 O155 2.216 . S
Co154 O156 2.091 . S
Co154 O158 2.004 . S
Co154 O164 2.021 . S
Co154 O166 2.137 . S
Co154 O167 2.244 . S
O155 Co154 2.216 . S
O155 C162 1.247 . S
O156 Co154 2.091 . S
O156 C162 1.261 . S
C157 O166 1.247 . S
C157 O167 1.272 . S
O158 Co154 2.004 . S
O158 C163 1.259 . S
Co159 O160 2.061 . S
Co159 O165 2.052 . S
Co159 O167 2.135 . S
O160 Co159 2.061 . S
O160 C163 1.235 . S
C161 O164 1.238 . S
C161 O165 1.241 . S
C162 O155 1.247 . S
C162 O156 1.261 . S
C163 O158 1.259 . S
C163 O160 1.235 . S
O164 Co154 2.021 . S
O164 C161 1.238 . S
O165 Co159 2.052 . S
O165 C161 1.241 . S
O166 Co154 2.137 . S
O166 C157 1.247 . S
O167 Co154 2.244 . S
O167 C157 1.272 . S
O167 Co159 2.135 . S
H168 C180 0.930 . S
H169 C182 0.930 . S
H170 C183 0.930 . S
H171 C187 0.959 . S
H172 C187 0.959 . S
H173 C187 0.961 . S
H174 C188 0.960 . S
H175 C188 0.961 . S
H176 C188 0.959 . S
H177 C191 0.929 . S
H178 C192 0.931 . S
H179 C194 0.930 . S
C180 H168 0.930 . S
C180 C181 1.399 . S
C180 C185 1.399 . S
C181 C180 1.399 . S
C181 C182 1.376 . S
C182 H169 0.930 . S
C182 C181 1.376 . S
C182 C183 1.388 . S
C183 H170 0.930 . S
C183 C182 1.388 . S
C183 C184 1.390 . S
C184 C183 1.390 . S
C184 C185 1.394 . S
C184 C190 1.465 . S
C185 C180 1.399 . S
C185 C184 1.394 . S
C185 C186 1.516 . S
C186 C185 1.516 . S
C186 C187 1.502 . S
C186 C188 1.561 . S
C186 C189 1.526 . S
C187 H171 0.959 . S
C187 H172 0.959 . S
C187 H173 0.961 . S
C187 C186 1.502 . S
C188 H174 0.960 . S
C188 H175 0.961 . S
C188 H176 0.959 . S
C188 C186 1.561 . S
C189 C186 1.526 . S
C189 C190 1.396 . S
C189 C194 1.390 . S
C190 C184 1.465 . S
C190 C189 1.396 . S
C190 C191 1.399 . S
C191 H177 0.929 . S
C191 C190 1.399 . S
C191 C192 1.385 . S
C192 H178 0.931 . S
C192 C191 1.385 . S
C192 C193 1.389 . S
C193 C192 1.389 . S
C193 C194 1.387 . S
C194 H179 0.930 . S
C194 C189 1.390 . S
C194 C193 1.387 . S
H195 C207 0.930 . S
H196 C209 0.930 . S
H197 C210 0.930 . S
H198 C214 0.959 . S
H199 C214 0.959 . S
H200 C214 0.961 . S
H201 C215 0.960 . S
H202 C215 0.961 . S
H203 C215 0.959 . S
H204 C218 0.929 . S
H205 C219 0.931 . S
H206 C221 0.930 . S
C207 H195 0.930 . S
C207 C208 1.399 . S
C207 C212 1.399 . S
C208 C207 1.399 . S
C208 C209 1.376 . S
C209 H196 0.930 . S
C209 C208 1.376 . S
C209 C210 1.388 . S
C210 H197 0.930 . S
C210 C209 1.388 . S
C210 C211 1.390 . S
C211 C210 1.390 . S
C211 C212 1.394 . S
C211 C217 1.465 . S
C212 C207 1.399 . S
C212 C211 1.394 . S
C212 C213 1.516 . S
C213 C212 1.516 . S
C213 C214 1.502 . S
C213 C215 1.561 . S
C213 C216 1.526 . S
C214 H198 0.959 . S
C214 H199 0.959 . S
C214 H200 0.961 . S
C214 C213 1.502 . S
C215 H201 0.960 . S
C215 H202 0.961 . S
C215 H203 0.959 . S
C215 C213 1.561 . S
C216 C213 1.526 . S
C216 C217 1.396 . S
C216 C221 1.390 . S
C217 C211 1.465 . S
C217 C216 1.396 . S
C217 C218 1.399 . S
C218 H204 0.929 . S
C218 C217 1.399 . S
C218 C219 1.385 . S
C219 H205 0.931 . S
C219 C218 1.385 . S
C219 C220 1.389 . S
C220 C219 1.389 . S
C220 C221 1.387 . S
C221 H206 0.930 . S
C221 C216 1.390 . S
C221 C220 1.387 . S
H222 C234 0.930 . S
H223 C236 0.930 . S
H224 C237 0.930 . S
H225 C241 0.959 . S
H226 C241 0.959 . S
H227 C241 0.961 . S
H228 C242 0.960 . S
H229 C242 0.961 . S
H230 C242 0.959 . S
H231 C245 0.929 . S
H232 C246 0.931 . S
H233 C248 0.930 . S
C234 H222 0.930 . S
C234 C235 1.399 . S
C234 C239 1.399 . S
C235 C234 1.399 . S
C235 C236 1.376 . S
C236 H223 0.930 . S
C236 C235 1.376 . S
C236 C237 1.388 . S
C237 H224 0.930 . S
C237 C236 1.388 . S
C237 C238 1.390 . S
C238 C237 1.390 . S
C238 C239 1.394 . S
C238 C244 1.465 . S
C239 C234 1.399 . S
C239 C238 1.394 . S
C239 C240 1.516 . S
C240 C239 1.516 . S
C240 C241 1.502 . S
C240 C242 1.561 . S
C240 C243 1.526 . S
C241 H225 0.959 . S
C241 H226 0.959 . S
C241 H227 0.961 . S
C241 C240 1.502 . S
C242 H228 0.960 . S
C242 H229 0.961 . S
C242 H230 0.959 . S
C242 C240 1.561 . S
C243 C240 1.526 . S
C243 C244 1.396 . S
C243 C248 1.390 . S
C244 C238 1.465 . S
C244 C243 1.396 . S
C244 C245 1.399 . S
C245 H231 0.929 . S
C245 C244 1.399 . S
C245 C246 1.385 . S
C246 H232 0.931 . S
C246 C245 1.385 . S
C246 C247 1.389 . S
C247 C246 1.389 . S
C247 C248 1.387 . S
C248 H233 0.930 . S
C248 C243 1.390 . S
C248 C247 1.387 . S
H249 C261 0.930 . S
H250 C263 0.930 . S
H251 C264 0.930 . S
H252 C268 0.959 . S
H253 C268 0.959 . S
H254 C268 0.961 . S
H255 C269 0.960 . S
H256 C269 0.961 . S
H257 C269 0.959 . S
H258 C272 0.929 . S
H259 C273 0.931 . S
H260 C275 0.930 . S
C261 H249 0.930 . S
C261 C262 1.399 . S
C261 C266 1.399 . S
C262 C261 1.399 . S
C262 C263 1.376 . S
C263 H250 0.930 . S
C263 C262 1.376 . S
C263 C264 1.388 . S
C264 H251 0.930 . S
C264 C263 1.388 . S
C264 C265 1.390 . S
C265 C264 1.390 . S
C265 C266 1.394 . S
C265 C271 1.465 . S
C266 C261 1.399 . S
C266 C265 1.394 . S
C266 C267 1.516 . S
C267 C266 1.516 . S
C267 C268 1.502 . S
C267 C269 1.561 . S
C267 C270 1.526 . S
C268 H252 0.959 . S
C268 H253 0.959 . S
C268 H254 0.961 . S
C268 C267 1.502 . S
C269 H255 0.960 . S
C269 H256 0.961 . S
C269 H257 0.959 . S
C269 C267 1.561 . S
C270 C267 1.526 . S
C270 C271 1.396 . S
C270 C275 1.390 . S
C271 C265 1.465 . S
C271 C270 1.396 . S
C271 C272 1.399 . S
C272 H258 0.929 . S
C272 C271 1.399 . S
C272 C273 1.385 . S
C273 H259 0.931 . S
C273 C272 1.385 . S
C273 C274 1.389 . S
C274 C273 1.389 . S
C274 C275 1.387 . S
C275 H260 0.930 . S
C275 C270 1.390 . S
C275 C274 1.387 . S
H276 C288 0.930 . S
H277 C290 0.930 . S
H278 C291 0.930 . S
H279 C295 0.959 . S
H280 C295 0.959 . S
H281 C295 0.961 . S
H282 C296 0.960 . S
H283 C296 0.961 . S
H284 C296 0.959 . S
H285 C299 0.929 . S
H286 C300 0.931 . S
H287 C302 0.930 . S
C288 H276 0.930 . S
C288 C289 1.399 . S
C288 C293 1.399 . S
C289 C288 1.399 . S
C289 C290 1.376 . S
C290 H277 0.930 . S
C290 C289 1.376 . S
C290 C291 1.388 . S
C291 H278 0.930 . S
C291 C290 1.388 . S
C291 C292 1.390 . S
C292 C291 1.390 . S
C292 C293 1.394 . S
C292 C298 1.465 . S
C293 C288 1.399 . S
C293 C292 1.394 . S
C293 C294 1.516 . S
C294 C293 1.516 . S
C294 C295 1.502 . S
C294 C296 1.561 . S
C294 C297 1.526 . S
C295 H279 0.959 . S
C295 H280 0.959 . S
C295 H281 0.961 . S
C295 C294 1.502 . S
C296 H282 0.960 . S
C296 H283 0.961 . S
C296 H284 0.959 . S
C296 C294 1.561 . S
C297 C294 1.526 . S
C297 C298 1.396 . S
C297 C302 1.390 . S
C298 C292 1.465 . S
C298 C297 1.396 . S
C298 C299 1.399 . S
C299 H285 0.929 . S
C299 C298 1.399 . S
C299 C300 1.385 . S
C300 H286 0.931 . S
C300 C299 1.385 . S
C300 C301 1.389 . S
C301 C300 1.389 . S
C301 C302 1.387 . S
C302 H287 0.930 . S
C302 C297 1.390 . S
C302 C301 1.387 . S
H303 C315 0.930 . S
H304 C317 0.930 . S
H305 C318 0.930 . S
H306 C322 0.959 . S
H307 C322 0.959 . S
H308 C322 0.961 . S
H309 C323 0.960 . S
H310 C323 0.961 . S
H311 C323 0.959 . S
H312 C326 0.929 . S
H313 C327 0.931 . S
H314 C329 0.930 . S
C315 H303 0.930 . S
C315 C316 1.399 . S
C315 C320 1.399 . S
C316 C315 1.399 . S
C316 C317 1.376 . S
C317 H304 0.930 . S
C317 C316 1.376 . S
C317 C318 1.388 . S
C318 H305 0.930 . S
C318 C317 1.388 . S
C318 C319 1.390 . S
C319 C318 1.390 . S
C319 C320 1.394 . S
C319 C325 1.465 . S
C320 C315 1.399 . S
C320 C319 1.394 . S
C320 C321 1.516 . S
C321 C320 1.516 . S
C321 C322 1.502 . S
C321 C323 1.561 . S
C321 C324 1.526 . S
C322 H306 0.959 . S
C322 H307 0.959 . S
C322 H308 0.961 . S
C322 C321 1.502 . S
C323 H309 0.960 . S
C323 H310 0.961 . S
C323 H311 0.959 . S
C323 C321 1.561 . S
C324 C321 1.526 . S
C324 C325 1.396 . S
C324 C329 1.390 . S
C325 C319 1.465 . S
C325 C324 1.396 . S
C325 C326 1.399 . S
C326 H312 0.929 . S
C326 C325 1.399 . S
C326 C327 1.385 . S
C327 H313 0.931 . S
C327 C326 1.385 . S
C327 C328 1.389 . S
C328 C327 1.389 . S
C328 C329 1.387 . S
C329 H314 0.930 . S
C329 C324 1.390 . S
C329 C328 1.387 . S
H330 C342 0.930 . S
H331 C344 0.930 . S
H332 C345 0.930 . S
H333 C349 0.959 . S
H334 C349 0.959 . S
H335 C349 0.961 . S
H336 C350 0.960 . S
H337 C350 0.961 . S
H338 C350 0.959 . S
H339 C353 0.929 . S
H340 C354 0.931 . S
H341 C356 0.930 . S
C342 H330 0.930 . S
C342 C343 1.399 . S
C342 C347 1.399 . S
C343 C342 1.399 . S
C343 C344 1.376 . S
C344 H331 0.930 . S
C344 C343 1.376 . S
C344 C345 1.388 . S
C345 H332 0.930 . S
C345 C344 1.388 . S
C345 C346 1.390 . S
C346 C345 1.390 . S
C346 C347 1.394 . S
C346 C352 1.465 . S
C347 C342 1.399 . S
C347 C346 1.394 . S
C347 C348 1.516 . S
C348 C347 1.516 . S
C348 C349 1.502 . S
C348 C350 1.561 . S
C348 C351 1.526 . S
C349 H333 0.959 . S
C349 H334 0.959 . S
C349 H335 0.961 . S
C349 C348 1.502 . S
C350 H336 0.960 . S
C350 H337 0.961 . S
C350 H338 0.959 . S
C350 C348 1.561 . S
C351 C348 1.526 . S
C351 C352 1.396 . S
C351 C356 1.390 . S
C352 C346 1.465 . S
C352 C351 1.396 . S
C352 C353 1.399 . S
C353 H339 0.929 . S
C353 C352 1.399 . S
C353 C354 1.385 . S
C354 H340 0.931 . S
C354 C353 1.385 . S
C354 C355 1.389 . S
C355 C354 1.389 . S
C355 C356 1.387 . S
C356 H341 0.930 . S
C356 C351 1.390 . S
C356 C355 1.387 . S
H357 C369 0.930 . S
H358 C371 0.930 . S
H359 C372 0.930 . S
H360 C376 0.959 . S
H361 C376 0.959 . S
H362 C376 0.961 . S
H363 C377 0.960 . S
H364 C377 0.961 . S
H365 C377 0.959 . S
H366 C380 0.929 . S
H367 C381 0.931 . S
H368 C383 0.930 . S
C369 H357 0.930 . S
C369 C370 1.399 . S
C369 C374 1.399 . S
C370 C369 1.399 . S
C370 C371 1.376 . S
C371 H358 0.930 . S
C371 C370 1.376 . S
C371 C372 1.388 . S
C372 H359 0.930 . S
C372 C371 1.388 . S
C372 C373 1.390 . S
C373 C372 1.390 . S
C373 C374 1.394 . S
C373 C379 1.465 . S
C374 C369 1.399 . S
C374 C373 1.394 . S
C374 C375 1.516 . S
C375 C374 1.516 . S
C375 C376 1.502 . S
C375 C377 1.561 . S
C375 C378 1.526 . S
C376 H360 0.959 . S
C376 H361 0.959 . S
C376 H362 0.961 . S
C376 C375 1.502 . S
C377 H363 0.960 . S
C377 H364 0.961 . S
C377 H365 0.959 . S
C377 C375 1.561 . S
C378 C375 1.526 . S
C378 C379 1.396 . S
C378 C383 1.390 . S
C379 C373 1.465 . S
C379 C378 1.396 . S
C379 C380 1.399 . S
C380 H366 0.929 . S
C380 C379 1.399 . S
C380 C381 1.385 . S
C381 H367 0.931 . S
C381 C380 1.385 . S
C381 C382 1.389 . S
C382 C381 1.389 . S
C382 C383 1.387 . S
C383 H368 0.930 . S
C383 C378 1.390 . S
C383 C382 1.387 . S
H384 C396 0.930 . S
H385 C398 0.930 . S
H386 C399 0.930 . S
H387 C403 0.959 . S
H388 C403 0.959 . S
H389 C403 0.961 . S
H390 C404 0.960 . S
H391 C404 0.961 . S
H392 C404 0.959 . S
H393 C407 0.929 . S
H394 C408 0.931 . S
H395 C410 0.930 . S
C396 H384 0.930 . S
C396 C397 1.399 . S
C396 C401 1.399 . S
C397 C396 1.399 . S
C397 C398 1.376 1_556 S
C398 H385 0.930 . S
C398 C397 1.376 1_554 S
C398 C399 1.388 1_554 S
C399 H386 0.930 . S
C399 C398 1.388 1_556 S
C399 C400 1.390 . S
C400 C399 1.390 . S
C400 C401 1.394 . S
C400 C406 1.465 . S
C401 C396 1.399 . S
C401 C400 1.394 . S
C401 C402 1.516 . S
C402 C401 1.516 . S
C402 C403 1.502 . S
C402 C404 1.561 . S
C402 C405 1.526 . S
C403 H387 0.959 . S
C403 H388 0.959 . S
C403 H389 0.961 . S
C403 C402 1.502 . S
C404 H390 0.960 . S
C404 H391 0.961 . S
C404 H392 0.959 . S
C404 C402 1.561 . S
C405 C402 1.526 . S
C405 C406 1.396 . S
C405 C410 1.390 . S
C406 C400 1.465 . S
C406 C405 1.396 . S
C406 C407 1.399 . S
C407 H393 0.929 . S
C407 C406 1.399 . S
C407 C408 1.385 . S
C408 H394 0.931 . S
C408 C407 1.385 . S
C408 C409 1.389 . S
C409 C408 1.389 . S
C409 C410 1.387 . S
C410 H395 0.930 . S
C410 C405 1.390 . S
C410 C409 1.387 . S
H411 C423 0.930 . S
H412 C425 0.930 . S
H413 C426 0.930 . S
H414 C430 0.959 . S
H415 C430 0.959 . S
H416 C430 0.961 . S
H417 C431 0.960 . S
H418 C431 0.961 . S
H419 C431 0.959 . S
H420 C434 0.929 . S
H421 C435 0.931 . S
H422 C437 0.930 . S
C423 H411 0.930 . S
C423 C424 1.399 . S
C423 C428 1.399 . S
C424 C423 1.399 . S
C424 C425 1.376 . S
C425 H412 0.930 . S
C425 C424 1.376 . S
C425 C426 1.388 . S
C426 H413 0.930 . S
C426 C425 1.388 . S
C426 C427 1.390 . S
C427 C426 1.390 . S
C427 C428 1.394 . S
C427 C433 1.465 . S
C428 C423 1.399 . S
C428 C427 1.394 . S
C428 C429 1.516 . S
C429 C428 1.516 . S
C429 C430 1.502 . S
C429 C431 1.561 . S
C429 C432 1.526 . S
C430 H414 0.959 . S
C430 H415 0.959 . S
C430 H416 0.961 . S
C430 C429 1.502 . S
C431 H417 0.960 . S
C431 H418 0.961 . S
C431 H419 0.959 . S
C431 C429 1.561 . S
C432 C429 1.526 . S
C432 C433 1.396 . S
C432 C437 1.390 . S
C433 C427 1.465 . S
C433 C432 1.396 . S
C433 C434 1.399 . S
C434 H420 0.929 . S
C434 C433 1.399 . S
C434 C435 1.385 1_554 S
C435 H421 0.931 . S
C435 C434 1.385 1_556 S
C435 C436 1.389 1_556 S
C436 C435 1.389 1_554 S
C436 C437 1.387 . S
C437 H422 0.930 . S
C437 C432 1.390 . S
C437 C436 1.387 . S
H438 C450 0.930 . S
H439 C452 0.930 . S
H440 C453 0.930 . S
H441 C457 0.959 . S
H442 C457 0.959 . S
H443 C457 0.961 . S
H444 C458 0.960 . S
H445 C458 0.961 . S
H446 C458 0.959 . S
H447 C461 0.929 . S
H448 C462 0.931 . S
H449 C464 0.930 . S
C450 H438 0.930 . S
C450 C451 1.399 . S
C450 C455 1.399 . S
C451 C450 1.399 . S
C451 C452 1.376 . S
C452 H439 0.930 . S
C452 C451 1.376 . S
C452 C453 1.388 . S
C453 H440 0.930 . S
C453 C452 1.388 . S
C453 C454 1.390 . S
C454 C453 1.390 . S
C454 C455 1.394 . S
C454 C460 1.465 . S
C455 C450 1.399 . S
C455 C454 1.394 . S
C455 C456 1.516 . S
C456 C455 1.516 . S
C456 C457 1.502 . S
C456 C458 1.561 . S
C456 C459 1.526 . S
C457 H441 0.959 . S
C457 H442 0.959 . S
C457 H443 0.961 . S
C457 C456 1.502 . S
C458 H444 0.960 . S
C458 H445 0.961 . S
C458 H446 0.959 . S
C458 C456 1.561 . S
C459 C456 1.526 . S
C459 C460 1.396 . S
C459 C464 1.390 . S
C460 C454 1.465 . S
C460 C459 1.396 . S
C460 C461 1.399 . S
C461 H447 0.929 . S
C461 C460 1.399 . S
C461 C462 1.385 . S
C462 H448 0.931 . S
C462 C461 1.385 . S
C462 C463 1.389 . S
C463 C462 1.389 . S
C463 C464 1.387 . S
C464 H449 0.930 . S
C464 C459 1.390 . S
C464 C463 1.387 . S
H465 C477 0.930 . S
H466 C479 0.930 . S
H467 C480 0.930 . S
H468 C484 0.959 . S
H469 C484 0.959 . S
H470 C484 0.961 . S
H471 C485 0.960 . S
H472 C485 0.961 . S
H473 C485 0.959 . S
H474 C488 0.929 . S
H475 C489 0.931 . S
H476 C491 0.930 . S
C477 H465 0.930 . S
C477 C478 1.399 . S
C477 C482 1.399 . S
C478 C477 1.399 . S
C478 C479 1.376 . S
C479 H466 0.930 . S
C479 C478 1.376 . S
C479 C480 1.388 . S
C480 H467 0.930 . S
C480 C479 1.388 . S
C480 C481 1.390 . S
C481 C480 1.390 . S
C481 C482 1.394 . S
C481 C487 1.465 . S
C482 C477 1.399 . S
C482 C481 1.394 . S
C482 C483 1.516 . S
C483 C482 1.516 . S
C483 C484 1.502 . S
C483 C485 1.561 . S
C483 C486 1.526 . S
C484 H468 0.959 . S
C484 H469 0.959 . S
C484 H470 0.961 . S
C484 C483 1.502 . S
C485 H471 0.960 . S
C485 H472 0.961 . S
C485 H473 0.959 . S
C485 C483 1.561 . S
C486 C483 1.526 . S
C486 C487 1.396 . S
C486 C491 1.390 . S
C487 C481 1.465 . S
C487 C486 1.396 . S
C487 C488 1.399 . S
C488 H474 0.929 . S
C488 C487 1.399 . S
C488 C489 1.385 . S
C489 H475 0.931 . S
C489 C488 1.385 . S
C489 C490 1.389 . S
C490 C489 1.389 . S
C490 C491 1.387 . S
C491 H476 0.930 . S
C491 C486 1.390 . S
C491 C490 1.387 . S
H492 C504 0.930 . S
H493 C506 0.930 . S
H494 C507 0.930 . S
H495 C511 0.959 . S
H496 C511 0.959 . S
H497 C511 0.961 . S
H498 C512 0.960 . S
H499 C512 0.961 . S
H500 C512 0.959 . S
H501 C515 0.929 . S
H502 C516 0.931 . S
H503 C518 0.930 . S
C504 H492 0.930 . S
C504 C505 1.399 . S
C504 C509 1.399 . S
C505 C504 1.399 . S
C505 C506 1.376 . S
C506 H493 0.930 . S
C506 C505 1.376 . S
C506 C507 1.388 . S
C507 H494 0.930 . S
C507 C506 1.388 . S
C507 C508 1.390 . S
C508 C507 1.390 . S
C508 C509 1.394 . S
C508 C514 1.465 1_655 S
C509 C504 1.399 . S
C509 C508 1.394 . S
C509 C510 1.516 . S
C510 C509 1.516 . S
C510 C511 1.502 . S
C510 C512 1.561 . S
C510 C513 1.526 1_655 S
C511 H495 0.959 . S
C511 H496 0.959 . S
C511 H497 0.961 . S
C511 C510 1.502 . S
C512 H498 0.960 . S
C512 H499 0.961 . S
C512 H500 0.959 . S
C512 C510 1.561 . S
C513 C510 1.526 1_455 S
C513 C514 1.396 . S
C513 C518 1.390 . S
C514 C508 1.465 1_455 S
C514 C513 1.396 . S
C514 C515 1.399 . S
C515 H501 0.929 . S
C515 C514 1.399 . S
C515 C516 1.385 . S
C516 H502 0.931 . S
C516 C515 1.385 . S
C516 C517 1.389 . S
C517 C516 1.389 . S
C517 C518 1.387 . S
C518 H503 0.930 . S
C518 C513 1.390 . S
C518 C517 1.387 . S
H519 C531 0.930 . S
H520 C533 0.930 . S
H521 C534 0.930 . S
H522 C538 0.959 . S
H523 C538 0.959 . S
H524 C538 0.961 . S
H525 C539 0.960 . S
H526 C539 0.961 . S
H527 C539 0.959 . S
H528 C542 0.929 . S
H529 C543 0.931 . S
H530 C545 0.930 . S
C531 H519 0.930 . S
C531 C532 1.399 . S
C531 C536 1.399 . S
C532 C531 1.399 . S
C532 C533 1.376 . S
C533 H520 0.930 . S
C533 C532 1.376 . S
C533 C534 1.388 . S
C534 H521 0.930 . S
C534 C533 1.388 . S
C534 C535 1.390 . S
C535 C534 1.390 . S
C535 C536 1.394 . S
C535 C541 1.465 1_565 S
C536 C531 1.399 . S
C536 C535 1.394 . S
C536 C537 1.516 1_565 S
C537 C536 1.516 1_545 S
C537 C538 1.502 . S
C537 C539 1.561 . S
C537 C540 1.526 . S
C538 H522 0.959 . S
C538 H523 0.959 . S
C538 H524 0.961 . S
C538 C537 1.502 . S
C539 H525 0.960 . S
C539 H526 0.961 . S
C539 H527 0.959 . S
C539 C537 1.561 . S
C540 C537 1.526 . S
C540 C541 1.396 . S
C540 C545 1.390 . S
C541 C535 1.465 1_545 S
C541 C540 1.396 . S
C541 C542 1.399 . S
C542 H528 0.929 . S
C542 C541 1.399 . S
C542 C543 1.385 . S
C543 H529 0.931 . S
C543 C542 1.385 . S
C543 C544 1.389 . S
C544 C543 1.389 . S
C544 C545 1.387 . S
C545 H530 0.930 . S
C545 C540 1.390 . S
C545 C544 1.387 . S
H546 C558 0.930 . S
H547 C560 0.930 . S
H548 C561 0.930 . S
H549 C565 0.959 . S
H550 C565 0.959 . S
H551 C565 0.961 . S
H552 C566 0.960 . S
H553 C566 0.961 . S
H554 C566 0.959 . S
H555 C569 0.929 . S
H556 C570 0.931 . S
H557 C572 0.930 . S
C558 H546 0.930 . S
C558 C559 1.399 . S
C558 C563 1.399 . S
C559 C558 1.399 . S
C559 C560 1.376 . S
C560 H547 0.930 . S
C560 C559 1.376 . S
C560 C561 1.388 . S
C561 H548 0.930 . S
C561 C560 1.388 . S
C561 C562 1.390 . S
C562 C561 1.390 . S
C562 C563 1.394 . S
C562 C568 1.465 . S
C563 C558 1.399 . S
C563 C562 1.394 . S
C563 C564 1.516 . S
C564 C563 1.516 . S
C564 C565 1.502 . S
C564 C566 1.561 . S
C564 C567 1.526 . S
C565 H549 0.959 . S
C565 H550 0.959 . S
C565 H551 0.961 . S
C565 C564 1.502 . S
C566 H552 0.960 . S
C566 H553 0.961 . S
C566 H554 0.959 . S
C566 C564 1.561 . S
C567 C564 1.526 . S
C567 C568 1.396 . S
C567 C572 1.390 . S
C568 C562 1.465 . S
C568 C567 1.396 . S
C568 C569 1.399 . S
C569 H555 0.929 . S
C569 C568 1.399 . S
C569 C570 1.385 . S
C570 H556 0.931 . S
C570 C569 1.385 . S
C570 C571 1.389 . S
C571 C570 1.389 . S
C571 C572 1.387 . S
C572 H557 0.930 . S
C572 C567 1.390 . S
C572 C571 1.387 . S
H573 C585 0.930 . S
H574 C587 0.930 . S
H575 C588 0.930 . S
H576 C592 0.959 . S
H577 C592 0.959 . S
H578 C592 0.961 . S
H579 C593 0.960 . S
H580 C593 0.966 . S
H581 C593 0.959 . S
H582 C596 0.929 . S
H583 C597 0.931 . S
H584 C599 0.930 . S
C585 H573 0.930 . S
C585 C586 1.399 . S
C585 C590 1.399 . S
C586 C585 1.399 . S
C586 C587 1.376 . S
C587 H574 0.930 . S
C587 C586 1.376 . S
C587 C588 1.388 . S
C588 H575 0.930 . S
C588 C587 1.388 . S
C588 C589 1.390 . S
C589 C588 1.390 . S
C589 C590 1.394 . S
C589 C595 1.465 1_455 S
C590 C585 1.399 . S
C590 C589 1.394 . S
C590 C591 1.516 . S
C591 C590 1.516 . S
C591 C592 1.502 . S
C591 C593 1.561 . S
C591 C594 1.526 1_455 S
C592 H576 0.959 . S
C592 H577 0.959 . S
C592 H578 0.961 . S
C592 C591 1.502 . S
C593 H579 0.960 . S
C593 H580 0.966 . S
C593 H581 0.959 . S
C593 C591 1.561 . S
C594 C591 1.526 1_655 S
C594 C595 1.396 . S
C594 C599 1.390 . S
C595 C589 1.465 1_655 S
C595 C594 1.396 . S
C595 C596 1.399 . S
C596 H582 0.929 . S
C596 C595 1.399 . S
C596 C597 1.385 . S
C597 H583 0.931 . S
C597 C596 1.385 . S
C597 C598 1.389 . S
C598 C597 1.389 . S
C598 C599 1.387 . S
C599 H584 0.930 . S
C599 C594 1.390 . S
C599 C598 1.387 . S
H600 C612 0.930 . S
H601 C614 0.930 . S
H602 C615 0.930 . S
H603 C619 0.959 . S
H604 C619 0.959 . S
H605 C619 0.961 . S
H606 C620 0.960 . S
H607 C620 0.961 . S
H608 C620 0.959 . S
H609 C623 0.929 . S
H610 C624 0.931 . S
H611 C626 0.916 1_556 S
C612 H600 0.930 . S
C612 C613 1.399 . S
C612 C617 1.399 . S
C613 C612 1.399 . S
C613 C614 1.376 1_556 S
C614 H601 0.930 . S
C614 C613 1.376 1_554 S
C614 C615 1.388 . S
C615 H602 0.930 . S
C615 C614 1.388 . S
C615 C616 1.390 . S
C616 C615 1.390 . S
C616 C617 1.394 1_554 S
C616 C622 1.465 1_545 S
C617 C612 1.399 . S
C617 C616 1.394 1_556 S
C617 C618 1.516 1_545 S
C618 C617 1.516 1_565 S
C618 C619 1.502 . S
C618 C620 1.561 . S
C618 C621 1.526 . S
C619 H603 0.959 . S
C619 H604 0.959 . S
C619 H605 0.961 . S
C619 C618 1.502 . S
C620 H606 0.960 . S
C620 H607 0.961 . S
C620 H608 0.959 . S
C620 C618 1.561 . S
C621 C618 1.526 . S
C621 C622 1.396 1_556 S
C621 C626 1.387 1_556 S
C622 C616 1.465 1_565 S
C622 C621 1.396 1_554 S
C622 C623 1.399 . S
C623 H609 0.929 . S
C623 C622 1.399 . S
C623 C624 1.385 . S
C624 H610 0.931 . S
C624 C623 1.385 . S
C624 C625 1.389 . S
C625 C624 1.389 . S
C625 C626 1.404 . S
C626 H611 0.916 1_554 S
C626 C621 1.387 1_554 S
C626 C625 1.404 . S
H627 C639 0.930 . S
H628 C641 0.930 . S
H629 C642 0.930 . S
H630 C646 0.959 . S
H631 C646 0.959 . S
H632 C646 0.961 . S
H633 C647 0.960 . S
H634 C647 0.961 . S
H635 C647 0.959 . S
H636 C650 0.929 . S
H637 C651 0.931 . S
H638 C653 0.930 . S
C639 H627 0.930 . S
C639 C640 1.399 . S
C639 C644 1.399 . S
C640 C639 1.399 . S
C640 C641 1.376 . S
C641 H628 0.930 . S
C641 C640 1.376 . S
C641 C642 1.388 . S
C642 H629 0.930 . S
C642 C641 1.388 . S
C642 C643 1.390 . S
C643 C642 1.390 . S
C643 C644 1.394 . S
C643 C649 1.465 . S
C644 C639 1.399 . S
C644 C643 1.394 . S
C644 C645 1.516 . S
C645 C644 1.516 . S
C645 C646 1.502 . S
C645 C647 1.561 . S
C645 C648 1.526 . S
C646 H630 0.959 . S
C646 H631 0.959 . S
C646 H632 0.961 . S
C646 C645 1.502 . S
C647 H633 0.960 . S
C647 H634 0.961 . S
C647 H635 0.959 . S
C647 C645 1.561 . S
C648 C645 1.526 . S
C648 C649 1.396 . S
C648 C653 1.390 . S
C649 C643 1.465 . S
C649 C648 1.396 . S
C649 C650 1.399 . S
C650 H636 0.929 . S
C650 C649 1.399 . S
C650 C651 1.385 . S
C651 H637 0.931 . S
C651 C650 1.385 . S
C651 C652 1.389 . S
C652 C651 1.389 . S
C652 C653 1.387 . S
C653 H638 0.930 . S
C653 C648 1.390 . S
C653 C652 1.387 . S
H654 C666 0.930 . S
H655 C668 0.930 . S
H656 C669 0.930 . S
H657 C673 0.959 . S
H658 C673 0.959 . S
H659 C673 0.961 . S
H660 C674 0.960 . S
H661 C674 0.961 . S
H662 C674 0.959 . S
H663 C677 0.929 . S
H664 C678 0.931 . S
H665 C680 0.930 . S
C666 H654 0.930 . S
C666 C667 1.399 . S
C666 C671 1.399 . S
C667 C666 1.399 . S
C667 C668 1.376 . S
C668 H655 0.930 . S
C668 C667 1.376 . S
C668 C669 1.388 . S
C669 H656 0.930 . S
C669 C668 1.388 . S
C669 C670 1.390 . S
C670 C669 1.390 . S
C670 C671 1.394 . S
C670 C676 1.465 . S
C671 C666 1.399 . S
C671 C670 1.394 . S
C671 C672 1.516 . S
C672 C671 1.516 . S
C672 C673 1.502 . S
C672 C674 1.561 . S
C672 C675 1.526 . S
C673 H657 0.959 . S
C673 H658 0.959 . S
C673 H659 0.961 . S
C673 C672 1.502 . S
C674 H660 0.960 . S
C674 H661 0.961 . S
C674 H662 0.959 . S
C674 C672 1.561 . S
C675 C672 1.526 . S
C675 C676 1.396 . S
C675 C680 1.390 . S
C676 C670 1.465 . S
C676 C675 1.396 . S
C676 C677 1.399 . S
C677 H663 0.929 . S
C677 C676 1.399 . S
C677 C678 1.385 . S
C678 H664 0.931 . S
C678 C677 1.385 . S
C678 C679 1.389 . S
C679 C678 1.389 . S
C679 C680 1.387 . S
C680 H665 0.930 . S
C680 C675 1.390 . S
C680 C679 1.387 . S
H681 C693 0.930 . S
H682 C695 0.930 . S
H683 C696 0.930 . S
H684 C700 0.959 . S
H685 C700 0.959 . S
H686 C700 0.961 . S
H687 C701 0.960 . S
H688 C701 0.961 . S
H689 C701 0.959 . S
H690 C704 0.929 . S
H691 C705 0.931 . S
H692 C707 0.930 . S
C693 H681 0.930 . S
C693 C694 1.399 . S
C693 C698 1.399 . S
C694 C693 1.399 . S
C694 C695 1.376 . S
C695 H682 0.930 . S
C695 C694 1.376 . S
C695 C696 1.388 . S
C696 H683 0.930 . S
C696 C695 1.388 . S
C696 C697 1.390 . S
C697 C696 1.390 . S
C697 C698 1.394 . S
C697 C703 1.465 . S
C698 C693 1.399 . S
C698 C697 1.394 . S
C698 C699 1.516 . S
C699 C698 1.516 . S
C699 C700 1.502 . S
C699 C701 1.561 . S
C699 C702 1.526 . S
C700 H684 0.959 . S
C700 H685 0.959 . S
C700 H686 0.961 . S
C700 C699 1.502 . S
C701 H687 0.960 . S
C701 H688 0.961 . S
C701 H689 0.959 . S
C701 C699 1.561 . S
C702 C699 1.526 . S
C702 C703 1.396 . S
C702 C707 1.390 . S
C703 C697 1.465 . S
C703 C702 1.396 . S
C703 C704 1.399 . S
C704 H690 0.929 . S
C704 C703 1.399 . S
C704 C705 1.385 . S
C705 H691 0.931 . S
C705 C704 1.385 . S
C705 C706 1.389 . S
C706 C705 1.389 . S
C706 C707 1.387 . S
C707 H692 0.930 . S
C707 C702 1.390 . S
C707 C706 1.387 . S
H708 C720 0.930 . S
H709 C722 0.930 . S
H710 C723 0.930 . S
H711 C727 0.959 . S
H712 C727 0.959 . S
H713 C727 0.961 . S
H714 C728 0.960 . S
H715 C728 0.961 . S
H716 C728 0.959 . S
H717 C731 0.929 . S
H718 C732 0.931 . S
H719 C734 0.930 . S
C720 H708 0.930 . S
C720 C721 1.399 . S
C720 C725 1.399 . S
C721 C720 1.399 . S
C721 C722 1.376 . S
C722 H709 0.930 . S
C722 C721 1.376 . S
C722 C723 1.388 . S
C723 H710 0.930 . S
C723 C722 1.388 . S
C723 C724 1.390 . S
C724 C723 1.390 . S
C724 C725 1.394 . S
C724 C730 1.465 . S
C725 C720 1.399 . S
C725 C724 1.394 . S
C725 C726 1.516 . S
C726 C725 1.516 . S
C726 C727 1.502 . S
C726 C728 1.561 . S
C726 C729 1.526 . S
C727 H711 0.959 . S
C727 H712 0.959 . S
C727 H713 0.961 . S
C727 C726 1.502 . S
C728 H714 0.960 . S
C728 H715 0.961 . S
C728 H716 0.959 . S
C728 C726 1.561 . S
C729 C726 1.526 . S
C729 C730 1.396 . S
C729 C734 1.390 . S
C730 C724 1.465 . S
C730 C729 1.396 . S
C730 C731 1.399 . S
C731 H717 0.929 . S
C731 C730 1.399 . S
C731 C732 1.385 . S
C732 H718 0.931 . S
C732 C731 1.385 . S
C732 C733 1.389 . S
C733 C732 1.389 . S
C733 C734 1.387 . S
C734 H719 0.930 . S
C734 C729 1.390 . S
C734 C733 1.387 . S
H735 C747 0.930 . S
H736 C749 0.930 . S
H737 C750 0.930 . S
H738 C754 0.959 . S
H739 C754 0.959 . S
H740 C754 0.961 . S
H741 C755 0.960 . S
H742 C755 0.961 . S
H743 C755 0.959 . S
H744 C758 0.929 . S
H745 C759 0.931 . S
H746 C761 0.930 . S
C747 H735 0.930 . S
C747 C748 1.399 . S
C747 C752 1.399 . S
C748 C747 1.399 . S
C748 C749 1.376 . S
C749 H736 0.930 . S
C749 C748 1.376 . S
C749 C750 1.388 . S
C750 H737 0.930 . S
C750 C749 1.388 . S
C750 C751 1.390 . S
C751 C750 1.390 . S
C751 C752 1.394 . S
C751 C757 1.465 . S
C752 C747 1.399 . S
C752 C751 1.394 . S
C752 C753 1.516 . S
C753 C752 1.516 . S
C753 C754 1.502 . S
C753 C755 1.561 . S
C753 C756 1.526 . S
C754 H738 0.959 . S
C754 H739 0.959 . S
C754 H740 0.961 . S
C754 C753 1.502 . S
C755 H741 0.960 . S
C755 H742 0.961 . S
C755 H743 0.959 . S
C755 C753 1.561 . S
C756 C753 1.526 . S
C756 C757 1.396 . S
C756 C761 1.390 . S
C757 C751 1.465 . S
C757 C756 1.396 . S
C757 C758 1.399 . S
C758 H744 0.929 . S
C758 C757 1.399 . S
C758 C759 1.385 . S
C759 H745 0.931 . S
C759 C758 1.385 . S
C759 C760 1.389 . S
C760 C759 1.389 . S
C760 C761 1.387 . S
C761 H746 0.930 . S
C761 C756 1.390 . S
C761 C760 1.387 . S
H762 C774 0.930 . S
H763 C776 0.930 . S
H764 C777 0.930 . S
H765 C781 0.959 . S
H766 C781 0.959 . S
H767 C781 0.961 . S
H768 C782 0.960 . S
H769 C782 0.961 . S
H770 C782 0.959 . S
H771 C785 0.929 . S
H772 C786 0.931 . S
H773 C788 0.930 . S
C774 H762 0.930 . S
C774 C775 1.399 . S
C774 C779 1.399 . S
C775 C774 1.399 . S
C775 C776 1.376 . S
C776 H763 0.930 . S
C776 C775 1.376 . S
C776 C777 1.388 . S
C777 H764 0.930 . S
C777 C776 1.388 . S
C777 C778 1.390 . S
C778 C777 1.390 . S
C778 C779 1.394 . S
C778 C784 1.465 . S
C779 C774 1.399 . S
C779 C778 1.394 . S
C779 C780 1.516 . S
C780 C779 1.516 . S
C780 C781 1.502 . S
C780 C782 1.561 . S
C780 C783 1.526 . S
C781 H765 0.959 . S
C781 H766 0.959 . S
C781 H767 0.961 . S
C781 C780 1.502 . S
C782 H768 0.960 . S
C782 H769 0.961 . S
C782 H770 0.959 . S
C782 C780 1.561 . S
C783 C780 1.526 . S
C783 C784 1.396 . S
C783 C788 1.390 . S
C784 C778 1.465 . S
C784 C783 1.396 . S
C784 C785 1.399 . S
C785 H771 0.929 . S
C785 C784 1.399 . S
C785 C786 1.385 . S
C786 H772 0.931 . S
C786 C785 1.385 . S
C786 C787 1.389 . S
C787 C786 1.389 . S
C787 C788 1.387 . S
C788 H773 0.930 . S
C788 C783 1.390 . S
C788 C787 1.387 . S
H789 C801 0.930 . S
H790 C803 0.930 . S
H791 C804 0.930 . S
H792 C808 0.959 . S
H793 C808 0.959 . S
H794 C808 0.961 . S
H795 C809 0.960 . S
H796 C809 0.961 . S
H797 C809 0.959 . S
H798 C812 0.929 . S
H799 C813 0.931 . S
H800 C815 0.930 . S
C801 H789 0.930 . S
C801 C802 1.399 . S
C801 C806 1.399 . S
C802 C801 1.399 . S
C802 C803 1.376 . S
C803 H790 0.930 . S
C803 C802 1.376 . S
C803 C804 1.388 . S
C804 H791 0.930 . S
C804 C803 1.388 . S
C804 C805 1.390 . S
C805 C804 1.390 . S
C805 C806 1.394 . S
C805 C811 1.465 . S
C806 C801 1.399 . S
C806 C805 1.394 . S
C806 C807 1.516 . S
C807 C806 1.516 . S
C807 C808 1.502 . S
C807 C809 1.561 . S
C807 C810 1.526 . S
C808 H792 0.959 . S
C808 H793 0.959 . S
C808 H794 0.961 . S
C808 C807 1.502 . S
C809 H795 0.960 . S
C809 H796 0.961 . S
C809 H797 0.959 . S
C809 C807 1.561 . S
C810 C807 1.526 . S
C810 C811 1.396 . S
C810 C815 1.390 . S
C811 C805 1.465 . S
C811 C810 1.396 . S
C811 C812 1.399 . S
C812 H798 0.929 . S
C812 C811 1.399 . S
C812 C813 1.385 1_554 S
C813 H799 0.931 . S
C813 C812 1.385 1_556 S
C813 C814 1.389 1_556 S
C814 C813 1.389 1_554 S
C814 C815 1.387 . S
C815 H800 0.930 . S
C815 C810 1.390 . S
C815 C814 1.387 . S
C181 C9 0.857 . S
C193 C93 0.834 . S
C208 C23 0.804 . S
C220 C107 0.840 . S
C235 C121 0.856 . S
C247 C37 0.831 . S
C262 C51 0.815 . S
C274 C135 0.847 . S
C289 C65 0.761 . S
C301 C149 0.730 . S
C316 C163 0.725 . S
C328 C79 0.755 . S
C343 C119 1.432 . S
C355 C7 1.510 . S
C370 C21 1.472 . S
C382 C133 1.510 . S
C397 C147 1.431 1_556 S
C409 C35 1.509 . S
C424 C161 1.499 . S
C436 C49 1.419 1_554 S
C451 C63 1.460 . S
C463 C91 1.416 . S
C478 C77 1.412 . S
C490 C105 1.486 . S
C505 C162 1.364 . S
C517 C8 1.350 . S
C532 C92 1.352 . S
C544 C22 1.366 . S
C559 C36 1.366 . S
C571 C106 1.351 . S
C586 C120 1.366 . S
C598 C50 1.351 . S
C613 C134 1.353 . S
C625 C64 1.366 . S
C640 C148 1.358 . S
C652 C78 1.352 . S
C667 C3 1.537 . S
C679 C143 1.511 . S
C694 C157 1.484 . S
C706 C17 1.519 . S
C721 C31 1.531 . S
C733 C87 1.537 . S
C748 C45 1.498 . S
C760 C101 1.469 . S
C775 C59 1.525 1_556 S
C787 C115 1.539 . S
C802 C73 1.506 . S
C814 C129 1.534 1_554 S
