# Generated by pormake.
# Topology vbm, (6)-cn, num edge types: 1
# Building blocks:
#     Node 0, Type 0, BuildingBlock: BETDAH_clean_sbu_0, # of connection points: 6
#     Node 1, Type 0, BuildingBlock: BETDAH_clean_sbu_0, # of connection points: 6
#     Node 2, Type 0, BuildingBlock: BETDAH_clean_sbu_0, # of connection points: 6
#     Node 3, Type 0, BuildingBlock: BETDAH_clean_sbu_0, # of connection points: 6
#     Node 4, Type 0, BuildingBlock: BETDAH_clean_sbu_0, # of connection points: 6
#     Node 5, Type 0, BuildingBlock: BETDAH_clean_sbu_0, # of connection points: 6
#     Node 6, Type 0, BuildingBlock: BETDAH_clean_sbu_0, # of connection points: 6
#     Node 7, Type 0, BuildingBlock: BETDAH_clean_sbu_0, # of connection points: 6
#     Node 8, Type 0, BuildingBlock: BETDAH_clean_sbu_0, # of connection points: 6
#     Node 9, Type 0, BuildingBlock: BETDAH_clean_sbu_0, # of connection points: 6
#     Node 10, Type 0, BuildingBlock: BETDAH_clean_sbu_0, # of connection points: 6
#     Node 11, Type 0, BuildingBlock: BETDAH_clean_sbu_0, # of connection points: 6
#     Node 12, Type 0, BuildingBlock: BETDAH_clean_sbu_0, # of connection points: 6
#     Node 13, Type 0, BuildingBlock: BETDAH_clean_sbu_0, # of connection points: 6
#     Node 14, Type 0, BuildingBlock: BETDAH_clean_sbu_0, # of connection points: 6
#     Node 15, Type 0, BuildingBlock: BETDAH_clean_sbu_0, # of connection points: 6
#     Edge 16, Type (0, 0), BuildingBlock: EZIPEK_clean_linker_0, # of connection points: 2
#     Edge 17, Type (0, 0), BuildingBlock: EZIPEK_clean_linker_0, # of connection points: 2
#     Edge 18, Type (0, 0), BuildingBlock: EZIPEK_clean_linker_0, # of connection points: 2
#     Edge 19, Type (0, 0), BuildingBlock: EZIPEK_clean_linker_0, # of connection points: 2
#     Edge 20, Type (0, 0), BuildingBlock: EZIPEK_clean_linker_0, # of connection points: 2
#     Edge 21, Type (0, 0), BuildingBlock: EZIPEK_clean_linker_0, # of connection points: 2
#     Edge 22, Type (0, 0), BuildingBlock: EZIPEK_clean_linker_0, # of connection points: 2
#     Edge 23, Type (0, 0), BuildingBlock: EZIPEK_clean_linker_0, # of connection points: 2
#     Edge 24, Type (0, 0), BuildingBlock: EZIPEK_clean_linker_0, # of connection points: 2
#     Edge 25, Type (0, 0), BuildingBlock: EZIPEK_clean_linker_0, # of connection points: 2
#     Edge 26, Type (0, 0), BuildingBlock: EZIPEK_clean_linker_0, # of connection points: 2
#     Edge 27, Type (0, 0), BuildingBlock: EZIPEK_clean_linker_0, # of connection points: 2
#     Edge 28, Type (0, 0), BuildingBlock: EZIPEK_clean_linker_0, # of connection points: 2
#     Edge 29, Type (0, 0), BuildingBlock: EZIPEK_clean_linker_0, # of connection points: 2
#     Edge 30, Type (0, 0), BuildingBlock: EZIPEK_clean_linker_0, # of connection points: 2
#     Edge 31, Type (0, 0), BuildingBlock: EZIPEK_clean_linker_0, # of connection points: 2
#     Edge 32, Type (0, 0), BuildingBlock: EZIPEK_clean_linker_0, # of connection points: 2
#     Edge 33, Type (0, 0), BuildingBlock: EZIPEK_clean_linker_0, # of connection points: 2
#     Edge 34, Type (0, 0), BuildingBlock: EZIPEK_clean_linker_0, # of connection points: 2
#     Edge 35, Type (0, 0), BuildingBlock: EZIPEK_clean_linker_0, # of connection points: 2
#     Edge 36, Type (0, 0), BuildingBlock: EZIPEK_clean_linker_0, # of connection points: 2
#     Edge 37, Type (0, 0), BuildingBlock: EZIPEK_clean_linker_0, # of connection points: 2
#     Edge 38, Type (0, 0), BuildingBlock: EZIPEK_clean_linker_0, # of connection points: 2
#     Edge 39, Type (0, 0), BuildingBlock: EZIPEK_clean_linker_0, # of connection points: 2
#     Edge 40, Type (0, 0), BuildingBlock: EZIPEK_clean_linker_0, # of connection points: 2
#     Edge 41, Type (0, 0), BuildingBlock: EZIPEK_clean_linker_0, # of connection points: 2
#     Edge 42, Type (0, 0), BuildingBlock: EZIPEK_clean_linker_0, # of connection points: 2
#     Edge 43, Type (0, 0), BuildingBlock: EZIPEK_clean_linker_0, # of connection points: 2
#     Edge 44, Type (0, 0), BuildingBlock: EZIPEK_clean_linker_0, # of connection points: 2
#     Edge 45, Type (0, 0), BuildingBlock: EZIPEK_clean_linker_0, # of connection points: 2
#     Edge 46, Type (0, 0), BuildingBlock: EZIPEK_clean_linker_0, # of connection points: 2
#     Edge 47, Type (0, 0), BuildingBlock: EZIPEK_clean_linker_0, # of connection points: 2
#     Edge 48, Type (0, 0), BuildingBlock: EZIPEK_clean_linker_0, # of connection points: 2
#     Edge 49, Type (0, 0), BuildingBlock: EZIPEK_clean_linker_0, # of connection points: 2
#     Edge 50, Type (0, 0), BuildingBlock: EZIPEK_clean_linker_0, # of connection points: 2
#     Edge 51, Type (0, 0), BuildingBlock: EZIPEK_clean_linker_0, # of connection points: 2
#     Edge 52, Type (0, 0), BuildingBlock: EZIPEK_clean_linker_0, # of connection points: 2
#     Edge 53, Type (0, 0), BuildingBlock: EZIPEK_clean_linker_0, # of connection points: 2
#     Edge 54, Type (0, 0), BuildingBlock: EZIPEK_clean_linker_0, # of connection points: 2
#     Edge 55, Type (0, 0), BuildingBlock: EZIPEK_clean_linker_0, # of connection points: 2
#     Edge 56, Type (0, 0), BuildingBlock: EZIPEK_clean_linker_0, # of connection points: 2
#     Edge 57, Type (0, 0), BuildingBlock: EZIPEK_clean_linker_0, # of connection points: 2
#     Edge 58, Type (0, 0), BuildingBlock: EZIPEK_clean_linker_0, # of connection points: 2
#     Edge 59, Type (0, 0), BuildingBlock: EZIPEK_clean_linker_0, # of connection points: 2
#     Edge 60, Type (0, 0), BuildingBlock: EZIPEK_clean_linker_0, # of connection points: 2
#     Edge 61, Type (0, 0), BuildingBlock: EZIPEK_clean_linker_0, # of connection points: 2
#     Edge 62, Type (0, 0), BuildingBlock: EZIPEK_clean_linker_0, # of connection points: 2
#     Edge 63, Type (0, 0), BuildingBlock: EZIPEK_clean_linker_0, # of connection points: 2
# Relax obj value: 0.065
# Max RMSD: 0.151
# Mean RMSD: 0.151
data_MOF--net-vbm--node1-BETDAH_clean_sbu_0--edge1-EZIPEK_clean_linker_0
_symmetry_space_group_name_H-M    P1
_symmetry_Int_Tables_number       1
_symmetry_cell_setting            triclinic
loop_
_symmetry_equiv_pos_as_xyz
'x, y, z'
_cell_length_a     39.203003
_cell_length_b     21.454971
_cell_length_c     40.294636
_cell_angle_alpha  89.598293
_cell_angle_beta   90.109692
_cell_angle_gamma 89.895726
loop_
_atom_site_label
_atom_site_type_symbol
_atom_site_fract_x
_atom_site_fract_y
_atom_site_fract_z
_atom_type_partial_charge
Ho0 Ho 0.13411 0.08485 0.14584 0.0
Ho1 Ho 0.09593 0.20647 0.15351 0.0
C2 C 0.05114 0.08676 0.14795 0.0
C3 C 0.15894 0.97253 0.15126 0.0
C4 C 0.14942 0.90601 0.14826 0.0
C5 C 0.11685 0.88418 0.15712 0.0
C6 C 0.1095 0.82017 0.15625 0.0
C7 C 0.13455 0.7771 0.14644 0.0
C8 C 0.16687 0.79905 0.13712 0.0
C9 C 0.17423 0.8629 0.13807 0.0
C10 C 0.1233 0.14828 0.08756 0.0
C11 C 0.17727 0.20784 0.15291 0.0
C12 C 0.07187 0.31944 0.15003 0.0
C13 C 0.08353 0.38486 0.14795 0.0
C14 C 0.11762 0.40163 0.15409 0.0
C15 C 0.12739 0.46461 0.15338 0.0
C16 C 0.1032 0.51159 0.1466 0.0
C17 C 0.0693 0.49453 0.14015 0.0
C18 C 0.05958 0.43178 0.14082 0.0
C19 C 0.10602 0.14142 0.21159 0.0
O20 O 0.07939 0.05369 0.15183 0.0
O21 O 0.05102 0.14755 0.1437 0.0
O22 O 0.16039 1.0057 0.12401 0.0
O23 O 0.14561 1.00349 0.17583 0.0
O24 O 0.15069 0.11719 0.09506 0.0
O25 O 0.10223 0.1421 0.11117 0.0
O26 O 0.14923 0.2378 0.14479 0.0
O27 O 0.17772 0.14741 0.1593 0.0
O28 O 0.07798 0.28986 0.17784 0.0
O29 O 0.07697 0.28441 0.12407 0.0
O30 O 0.07868 0.17215 0.20358 0.0
O31 O 0.12719 0.14791 0.18807 0.0
H32 H 0.09728 0.91642 0.16515 0.0
H33 H 0.0844 0.80413 0.16352 0.0
H34 H 0.18654 0.76663 0.12953 0.0
H35 H 0.19957 0.87858 0.13134 0.0
H36 H 0.13652 0.3662 0.15975 0.0
H37 H 0.15369 0.47679 0.15839 0.0
H38 H 0.05027 0.52995 0.13487 0.0
H39 H 0.03316 0.41989 0.13611 0.0
Ho40 Ho 0.83249 0.99374 0.15373 0.0
Ho41 Ho 0.87091 0.87373 0.15825 0.0
C42 C 0.91578 0.99078 0.14855 0.0
C43 C 0.80966 0.10609 0.16353 0.0
C44 C 0.81962 0.17255 0.15926 0.0
C45 C 0.83539 0.20477 0.18546 0.0
C46 C 0.84232 0.26858 0.18268 0.0
C47 C 0.83343 0.30168 0.15378 0.0
C48 C 0.81789 0.26984 0.12747 0.0
C49 C 0.81093 0.20593 0.13021 0.0
C50 C 0.83987 0.93788 0.09377 0.0
C51 C 0.78999 0.86958 0.15604 0.0
C52 C 0.8936 0.75995 0.1557 0.0
C53 C 0.88041 0.69506 0.15373 0.0
C54 C 0.88172 0.66244 0.12356 0.0
C55 C 0.87239 0.59946 0.12215 0.0
C56 C 0.8618 0.56773 0.15092 0.0
C57 C 0.85978 0.60033 0.18092 0.0
C58 C 0.86903 0.66329 0.18235 0.0
C59 C 0.86325 0.93584 0.21727 0.0
O60 O 0.88801 1.02392 0.15492 0.0
O61 O 0.91511 0.93036 0.14398 0.0
O62 O 0.80301 0.07378 0.13693 0.0
O63 O 0.8263 0.07343 0.18573 0.0
O64 O 0.81365 0.97022 0.10295 0.0
O65 O 0.8624 0.94024 0.11641 0.0
O66 O 0.81838 0.84196 0.14754 0.0
O67 O 0.78901 0.92865 0.16507 0.0
O68 O 0.88845 0.79012 0.18329 0.0
O69 O 0.88996 0.79579 0.12954 0.0
O70 O 0.8911 0.90968 0.20701 0.0
O71 O 0.84078 0.92839 0.19501 0.0
H72 H 0.84189 0.18091 0.20841 0.0
H73 H 0.85428 0.29238 0.20327 0.0
H74 H 0.81081 0.29465 0.10498 0.0
H75 H 0.79827 0.18292 0.10978 0.0
H76 H 0.89069 0.68524 0.10116 0.0
H77 H 0.87417 0.57504 0.09877 0.0
H78 H 0.85175 0.57661 0.20339 0.0
H79 H 0.86798 0.68657 0.20609 0.0
Ho80 Ho 0.13424 1.00192 0.3879 0.0
Ho81 Ho 0.10192 0.87664 0.37372 0.0
C82 C 0.05312 0.98518 0.39219 0.0
C83 C 0.16293 0.11045 0.38284 0.0
C84 C 0.15494 0.17716 0.38831 0.0
C85 C 0.12352 0.20308 0.37833 0.0
C86 C 0.11795 0.26751 0.3802 0.0
C87 C 0.14359 0.30715 0.39219 0.0
C88 C 0.17453 0.28108 0.40324 0.0
C89 C 0.18018 0.21667 0.4012 0.0
C90 C 0.1133 0.94269 0.44431 0.0
C91 C 0.18265 0.88043 0.38182 0.0
C92 C 0.08226 0.76199 0.36698 0.0
C93 C 0.09391 0.69739 0.37324 0.0
C94 C 0.11665 0.68205 0.39911 0.0
C95 C 0.12674 0.61983 0.40428 0.0
C96 C 0.11436 0.57242 0.38356 0.0
C97 C 0.09198 0.58808 0.3576 0.0
C98 C 0.08184 0.64994 0.35254 0.0
C99 C 0.10417 0.96005 0.32157 0.0
O100 O 0.0778 1.02354 0.38259 0.0
O101 O 0.05856 0.92538 0.39667 0.0
O102 O 0.16634 0.07439 0.40899 0.0
O103 O 0.14656 0.08321 0.35862 0.0
O104 O 0.11227 1.00229 0.43889 0.0
O105 O 0.12676 0.91649 0.41917 0.0
O106 O 0.15525 0.84605 0.37892 0.0
O107 O 0.18176 0.94195 0.38466 0.0
O108 O 0.09865 0.79314 0.34406 0.0
O109 O 0.07465 0.79624 0.39272 0.0
O110 O 0.079 0.92279 0.32749 0.0
O111 O 0.12702 0.94884 0.34275 0.0
H112 H 0.10356 0.1738 0.3683 0.0
H113 H 0.09388 0.28666 0.37165 0.0
H114 H 0.19459 0.31081 0.41266 0.0
H115 H 0.20461 0.19786 0.40893 0.0
H116 H 0.1265 0.718 0.41524 0.0
H117 H 0.14416 0.60864 0.42436 0.0
H118 H 0.08226 0.55225 0.34132 0.0
H119 H 0.06442 0.66078 0.33238 0.0
Ho120 Ho 0.83348 0.07114 0.39428 0.0
Ho121 Ho 0.8742 0.18935 0.38204 0.0
C122 C 0.91674 0.07222 0.40324 0.0
C123 C 0.80998 0.95814 0.39006 0.0
C124 C 0.82186 0.89211 0.38982 0.0
C125 C 0.83554 0.86516 0.36093 0.0
C126 C 0.84352 0.80142 0.36007 0.0
C127 C 0.83806 0.76323 0.38803 0.0
C128 C 0.82499 0.79015 0.41704 0.0
C129 C 0.8168 0.85377 0.41786 0.0
C130 C 0.83996 0.14169 0.4497 0.0
C131 C 0.79291 0.19636 0.38281 0.0
C132 C 0.89724 0.30267 0.37809 0.0
C133 C 0.88487 0.36818 0.38093 0.0
C134 C 0.89512 0.40478 0.40801 0.0
C135 C 0.88627 0.46805 0.40964 0.0
C136 C 0.86725 0.49636 0.38406 0.0
C137 C 0.85647 0.4598 0.35722 0.0
C138 C 0.86513 0.3964 0.35567 0.0
C139 C 0.86856 0.11014 0.32928 0.0
O140 O 0.88868 0.0399 0.39702 0.0
O141 O 0.91714 0.13347 0.40118 0.0
O142 O 0.81224 0.98865 0.41794 0.0
O143 O 0.81741 0.99307 0.36436 0.0
O144 O 0.81308 0.10965 0.44184 0.0
O145 O 0.86276 0.13361 0.42771 0.0
O146 O 0.8216 0.22447 0.39011 0.0
O147 O 0.79101 0.13541 0.37853 0.0
O148 O 0.88692 0.27058 0.35252 0.0
O149 O 0.89852 0.26892 0.40525 0.0
O150 O 0.89554 0.14269 0.33597 0.0
O151 O 0.84557 0.12463 0.34977 0.0
H152 H 0.83951 0.89295 0.33873 0.0
H153 H 0.85357 0.78166 0.33743 0.0
H154 H 0.82057 0.76161 0.43888 0.0
H155 H 0.80588 0.87274 0.44031 0.0
H156 H 0.91061 0.38474 0.42767 0.0
H157 H 0.89487 0.49534 0.43056 0.0
H158 H 0.8418 0.48063 0.33721 0.0
H159 H 0.85691 0.36994 0.33432 0.0
Ho160 Ho 0.8652 0.86969 0.88668 0.0
Ho161 Ho 0.82602 0.9895 0.89104 0.0
C162 C 0.78442 0.86465 0.88752 0.0
C163 C 0.88818 0.75609 0.88996 0.0
C164 C 0.87522 0.69113 0.89196 0.0
C165 C 0.88848 0.65043 0.91624 0.0
C166 C 0.87911 0.58742 0.91688 0.0
C167 C 0.85647 0.56369 0.89306 0.0
C168 C 0.84246 0.60459 0.86926 0.0
C169 C 0.85164 0.66778 0.86876 0.0
C170 C 0.85704 0.93256 0.82763 0.0
C171 C 0.90946 0.9875 0.89551 0.0
C172 C 0.80287 0.10188 0.88087 0.0
C173 C 0.81248 0.16856 0.88428 0.0
C174 C 0.81666 0.2052 0.85548 0.0
C175 C 0.82383 0.26895 0.85768 0.0
C176 C 0.82676 0.29762 0.88874 0.0
C177 C 0.82268 0.26132 0.91763 0.0
C178 C 0.81558 0.19734 0.91545 0.0
C179 C 0.83526 0.9326 0.95109 0.0
O180 O 0.8127 0.83742 0.89701 0.0
O181 O 0.78319 0.92406 0.87878 0.0
O182 O 0.88315 0.78656 0.8622 0.0
O183 O 0.88403 0.79129 0.916 0.0
O184 O 0.88494 0.90598 0.83777 0.0
O185 O 0.83467 0.92498 0.84993 0.0
O186 O 0.88132 1.02019 0.88972 0.0
O187 O 0.90935 0.92688 0.89999 0.0
O188 O 0.79664 0.06931 0.90772 0.0
O189 O 0.81956 0.06976 0.8588 0.0
O190 O 0.8082 0.96326 0.94209 0.0
O191 O 0.85701 0.93634 0.92794 0.0
H192 H 0.90674 0.66712 0.93432 0.0
H193 H 0.89018 0.55675 0.93547 0.0
H194 H 0.8249 0.5873 0.8507 0.0
H195 H 0.84083 0.69793 0.84979 0.0
H196 H 0.81404 0.18457 0.83114 0.0
H197 H 0.82689 0.29609 0.83511 0.0
H198 H 0.82489 0.28261 0.94183 0.0
H199 H 0.81227 0.17067 0.93813 0.0
Ho200 Ho 0.09526 0.19052 0.87325 0.0
Ho201 Ho 0.12727 0.07129 0.89361 0.0
C202 C 0.17483 0.18823 0.8847 0.0
C203 C 0.0763 0.30402 0.85987 0.0
C204 C 0.08654 0.3697 0.86521 0.0
C205 C 0.08474 0.39763 0.89668 0.0
C206 C 0.09173 0.46126 0.90035 0.0
C207 C 0.10058 0.4979 0.87268 0.0
C208 C 0.10299 0.46996 0.84142 0.0
C209 C 0.09595 0.40652 0.83772 0.0
C210 C 0.10105 0.10393 0.82345 0.0
C211 C 0.04485 0.08655 0.89067 0.0
C212 C 0.14833 0.95695 0.89979 0.0
C213 C 0.13785 0.89148 0.89521 0.0
C214 C 0.12226 0.8707 0.86582 0.0
C215 C 0.11519 0.80719 0.86156 0.0
C216 C 0.12351 0.76382 0.88663 0.0
C217 C 0.13843 0.78485 0.91615 0.0
C218 C 0.14559 0.84807 0.92035 0.0
C219 C 0.12063 0.14999 0.94611 0.0
O220 O 0.14689 0.22095 0.88825 0.0
O221 O 0.17424 0.12704 0.88154 0.0
O222 O 0.09571 0.27087 0.84046 0.0
O223 O 0.06508 0.27196 0.88529 0.0
O224 O 0.07546 0.14109 0.82731 0.0
O225 O 0.12313 0.11674 0.8452 0.0
O226 O 0.07111 0.04841 0.8862 0.0
O227 O 0.04885 0.14689 0.8927 0.0
O228 O 0.13357 0.98773 0.92362 0.0
O229 O 0.15315 0.99111 0.87323 0.0
O230 O 0.14648 0.11396 0.94056 0.0
O231 O 0.09892 0.14264 0.92293 0.0
H232 H 0.07739 0.37073 0.91834 0.0
H233 H 0.08975 0.48216 0.92466 0.0
H234 H 0.10974 0.49757 0.81981 0.0
H235 H 0.09721 0.38642 0.81315 0.0
H236 H 0.11603 0.90323 0.84602 0.0
H237 H 0.10362 0.79173 0.83862 0.0
H238 H 0.14498 0.75209 0.93574 0.0
H239 H 0.15775 0.86301 0.94311 0.0
Ho240 Ho 0.8721 0.18961 0.66293 0.0
Ho241 Ho 0.83701 0.0713 0.64544 0.0
C242 C 0.79207 0.19182 0.65476 0.0
C243 C 0.89248 0.30319 0.67276 0.0
C244 C 0.88079 0.36862 0.66795 0.0
C245 C 0.88733 0.40107 0.63815 0.0
C246 C 0.87919 0.46446 0.63501 0.0
C247 C 0.8646 0.49674 0.66166 0.0
C248 C 0.85749 0.46438 0.69121 0.0
C249 C 0.86554 0.40102 0.69436 0.0
C250 C 0.86448 0.10573 0.71437 0.0
C251 C 0.92027 0.081 0.64642 0.0
C252 C 0.8139 0.95807 0.64217 0.0
C253 C 0.82458 0.89202 0.64528 0.0
C254 C 0.83919 0.86788 0.67463 0.0
C255 C 0.84631 0.804 0.67761 0.0
C256 C 0.83907 0.76338 0.6513 0.0
C257 C 0.82508 0.78766 0.62185 0.0
C258 C 0.81779 0.8513 0.61894 0.0
C259 C 0.84383 0.14901 0.59201 0.0
O260 O 0.82038 0.22239 0.64926 0.0
O261 O 0.79174 0.13068 0.65899 0.0
O262 O 0.87646 0.26969 0.69495 0.0
O263 O 0.90032 0.27095 0.64641 0.0
O264 O 0.89097 0.1405 0.7098 0.0
O265 O 0.84276 0.11953 0.69238 0.0
O266 O 0.89317 0.0448 0.65105 0.0
O267 O 0.91765 0.14172 0.64433 0.0
O268 O 0.82514 0.98923 0.6165 0.0
O269 O 0.81321 0.99168 0.66909 0.0
O270 O 0.8173 0.11523 0.59864 0.0
O271 O 0.86603 0.13948 0.61458 0.0
H272 H 0.89941 0.37789 0.61746 0.0
H273 H 0.88493 0.48872 0.61203 0.0
H274 H 0.84632 0.48854 0.71207 0.0
H275 H 0.86052 0.37777 0.71779 0.0
H276 H 0.84465 0.89802 0.69543 0.0
H277 H 0.85716 0.7861 0.70052 0.0
H278 H 0.81935 0.75711 0.60129 0.0
H279 H 0.80627 0.86863 0.5962 0.0
Ho280 Ho 0.10302 0.86091 0.65357 0.0
Ho281 Ho 0.13719 0.98501 0.64416 0.0
C282 C 0.18424 0.86216 0.64826 0.0
C283 C 0.08234 0.74599 0.6552 0.0
C284 C 0.09296 0.6815 0.64661 0.0
C285 C 0.12237 0.65344 0.66037 0.0
C286 C 0.12924 0.58993 0.65522 0.0
C287 C 0.10695 0.55349 0.63615 0.0
C288 C 0.07832 0.58198 0.62149 0.0
C289 C 0.07136 0.64519 0.62675 0.0
C290 C 0.10758 0.93208 0.71013 0.0
C291 C 0.05578 0.97625 0.64354 0.0
C292 C 0.16513 0.09415 0.64978 0.0
C293 C 0.15456 0.16026 0.64423 0.0
C294 C 0.13055 0.18895 0.66496 0.0
C295 C 0.12088 0.25113 0.65986 0.0
C296 C 0.13324 0.28677 0.63267 0.0
C297 C 0.16046 0.25935 0.61464 0.0
C298 C 0.17021 0.19691 0.61972 0.0
C299 C 0.11388 0.93452 0.58611 0.0
O300 O 0.15624 0.8289 0.64872 0.0
O301 O 0.18423 0.92394 0.64736 0.0
O302 O 0.09823 0.77315 0.67972 0.0
O303 O 0.07524 0.78459 0.6308 0.0
O304 O 0.08106 0.9007 0.70089 0.0
O305 O 0.13005 0.92509 0.68804 0.0
O306 O 0.08227 1.01005 0.6528 0.0
O307 O 0.05879 0.91688 0.63625 0.0
O308 O 0.16929 0.05882 0.62369 0.0
O309 O 0.1499 0.06453 0.674 0.0
O310 O 0.11238 0.9929 0.59403 0.0
O311 O 0.12827 0.90533 0.60982 0.0
H312 H 0.13956 0.68003 0.67584 0.0
H313 H 0.15147 0.56888 0.66675 0.0
H314 H 0.06076 0.55472 0.60674 0.0
H315 H 0.04842 0.66531 0.61608 0.0
H316 H 0.11939 0.16376 0.68564 0.0
H317 H 0.10406 0.27088 0.67818 0.0
H318 H 0.17553 0.28544 0.59712 0.0
H319 H 0.19054 0.17759 0.60477 0.0
Ho320 Ho 0.63176 0.57602 0.14503 0.0
Ho321 Ho 0.60091 0.70234 0.15303 0.0
C322 C 0.55075 0.5943 0.14302 0.0
C323 C 0.66044 0.46764 0.15219 0.0
C324 C 0.65426 0.4015 0.14458 0.0
C325 C 0.67312 0.35586 0.16172 0.0
C326 C 0.66564 0.29262 0.1578 0.0
C327 C 0.63922 0.27397 0.13656 0.0
C328 C 0.62086 0.31949 0.11866 0.0
C329 C 0.62823 0.383 0.12276 0.0
C330 C 0.61064 0.62635 0.08594 0.0
C331 C 0.68088 0.69654 0.14914 0.0
C332 C 0.58111 0.8177 0.15522 0.0
C333 C 0.59207 0.88173 0.14636 0.0
C334 C 0.62471 0.90415 0.15462 0.0
C335 C 0.6327 0.96734 0.15012 0.0
C336 C 0.60828 1.00898 0.13719 0.0
C337 C 0.57625 0.98606 0.12758 0.0
C338 C 0.56822 0.92303 0.13222 0.0
C339 C 0.60553 0.63018 0.21035 0.0
O340 O 0.57554 0.55798 0.15461 0.0
O341 O 0.55681 0.65135 0.13311 0.0
O342 O 0.66703 0.5055 0.12739 0.0
O343 O 0.63964 0.49209 0.17383 0.0
O344 O 0.60846 0.56824 0.09449 0.0
O345 O 0.62511 0.65568 0.1094 0.0
O346 O 0.65389 0.73167 0.1452 0.0
O347 O 0.67929 0.63501 0.15182 0.0
O348 O 0.59776 0.78953 0.17915 0.0
O349 O 0.57303 0.78009 0.13101 0.0
O350 O 0.57936 0.66267 0.20126 0.0
O351 O 0.62732 0.63683 0.1878 0.0
H352 H 0.69309 0.36925 0.17887 0.0
H353 H 0.67996 0.25822 0.17189 0.0
H354 H 0.60026 0.30591 0.10229 0.0
H355 H 0.61315 0.4176 0.10959 0.0
H356 H 0.64367 0.87339 0.16553 0.0
H357 H 0.65755 0.98415 0.15766 0.0
H358 H 0.55709 1.01744 0.11757 0.0
H359 H 0.54288 0.90694 0.12579 0.0
Ho360 Ho 0.33018 0.50476 0.15223 0.0
Ho361 Ho 0.36917 0.38374 0.16421 0.0
C362 C 0.41362 0.50208 0.14839 0.0
C363 C 0.30692 0.61775 0.15739 0.0
C364 C 0.31768 0.68382 0.15431 0.0
C365 C 0.34383 0.7088 0.17417 0.0
C366 C 0.35132 0.77265 0.17281 0.0
C367 C 0.33281 0.81265 0.15165 0.0
C368 C 0.30719 0.78762 0.13136 0.0
C369 C 0.29964 0.72387 0.13277 0.0
C370 C 0.33907 0.43696 0.09608 0.0
C371 C 0.28746 0.38099 0.15934 0.0
C372 C 0.39228 0.27031 0.16608 0.0
C373 C 0.38058 0.20498 0.16208 0.0
C374 C 0.36792 0.18232 0.13174 0.0
C375 C 0.35886 0.11935 0.12857 0.0
C376 C 0.3623 0.07814 0.15564 0.0
C377 C 0.37451 0.10084 0.18596 0.0
C378 C 0.38365 0.16351 0.1891 0.0
C379 C 0.36417 0.45974 0.21814 0.0
O380 O 0.38507 0.53517 0.14818 0.0
O381 O 0.41402 0.44091 0.15147 0.0
O382 O 0.30506 0.5853 0.13013 0.0
O383 O 0.31898 0.58522 0.18238 0.0
O384 O 0.31228 0.4701 0.10304 0.0
O385 O 0.36077 0.44322 0.11931 0.0
O386 O 0.31632 0.35139 0.15443 0.0
O387 O 0.28601 0.44188 0.16393 0.0
O388 O 0.38085 0.29983 0.19206 0.0
O389 O 0.39395 0.30618 0.13969 0.0
O390 O 0.38937 0.42236 0.21224 0.0
O391 O 0.34111 0.44942 0.1967 0.0
H392 H 0.35807 0.67936 0.1912 0.0
H393 H 0.3712 0.79109 0.18864 0.0
H394 H 0.29263 0.81768 0.11489 0.0
H395 H 0.27918 0.70601 0.11746 0.0
H396 H 0.36535 0.21291 0.1104 0.0
H397 H 0.34945 0.10261 0.10497 0.0
H398 H 0.37738 0.06976 0.20709 0.0
H399 H 0.39355 0.17951 0.21267 0.0
Ho400 Ho 0.63529 0.49304 0.38513 0.0
Ho401 Ho 0.60141 0.3679 0.37436 0.0
C402 C 0.55401 0.47809 0.39226 0.0
C403 C 0.66423 0.6006 0.37682 0.0
C404 C 0.6568 0.6679 0.38133 0.0
C405 C 0.65398 0.70655 0.35312 0.0
C406 C 0.64738 0.77028 0.3563 0.0
C407 C 0.64375 0.7969 0.38777 0.0
C408 C 0.64682 0.75878 0.41611 0.0
C409 C 0.6533 0.69472 0.41295 0.0
C410 C 0.61632 0.43757 0.44308 0.0
C411 C 0.68259 0.37013 0.37897 0.0
C412 C 0.5819 0.25268 0.37098 0.0
C413 C 0.59513 0.18874 0.37766 0.0
C414 C 0.58354 0.15468 0.40539 0.0
C415 C 0.59292 0.0921 0.40992 0.0
C416 C 0.61379 0.06219 0.38661 0.0
C417 C 0.62619 0.09642 0.35942 0.0
C418 C 0.61697 0.159 0.35495 0.0
C419 C 0.60232 0.44833 0.32082 0.0
O420 O 0.57872 0.51505 0.38116 0.0
O421 O 0.55938 0.41885 0.39847 0.0
O422 O 0.66891 0.56563 0.40323 0.0
O423 O 0.64648 0.57248 0.35384 0.0
O424 O 0.6154 0.49697 0.43687 0.0
O425 O 0.62856 0.40971 0.41791 0.0
O426 O 0.6548 0.33643 0.37738 0.0
O427 O 0.68227 0.43177 0.38117 0.0
O428 O 0.59541 0.28347 0.34617 0.0
O429 O 0.57557 0.28839 0.39649 0.0
O430 O 0.57716 0.41192 0.32811 0.0
O431 O 0.62587 0.43752 0.34132 0.0
H432 H 0.65684 0.68734 0.32847 0.0
H433 H 0.64504 0.79894 0.33416 0.0
H434 H 0.64399 0.77857 0.44061 0.0
H435 H 0.6555 0.66636 0.43519 0.0
H436 H 0.56645 0.17593 0.42314 0.0
H437 H 0.58305 0.06641 0.43104 0.0
H438 H 0.64227 0.07415 0.34114 0.0
H439 H 0.62624 0.18346 0.33318 0.0
Ho440 Ho 0.33526 0.5841 0.39459 0.0
Ho441 Ho 0.37608 0.70529 0.38667 0.0
C442 C 0.41905 0.58323 0.39839 0.0
C443 C 0.31235 0.47211 0.38503 0.0
C444 C 0.32294 0.40568 0.38801 0.0
C445 C 0.32717 0.37021 0.35906 0.0
C446 C 0.33495 0.30656 0.36102 0.0
C447 C 0.33851 0.27686 0.39197 0.0
C448 C 0.33456 0.31207 0.42099 0.0
C449 C 0.32679 0.37589 0.41906 0.0
C450 C 0.34353 0.64658 0.45219 0.0
C451 C 0.29456 0.71044 0.38571 0.0
C452 C 0.39965 0.81798 0.39061 0.0
C453 C 0.38697 0.88299 0.39347 0.0
C454 C 0.40197 0.92299 0.41675 0.0
C455 C 0.39282 0.98613 0.41786 0.0
C456 C 0.36865 1.01064 0.39551 0.0
C457 C 0.35293 0.97041 0.37277 0.0
C458 C 0.36189 0.90713 0.37181 0.0
C459 C 0.36841 0.63657 0.33029 0.0
O460 O 0.38996 0.55192 0.39883 0.0
O461 O 0.42041 0.64451 0.39652 0.0
O462 O 0.30702 0.50363 0.41225 0.0
O463 O 0.3275 0.50544 0.36211 0.0
O464 O 0.31651 0.61503 0.44418 0.0
O465 O 0.36585 0.64144 0.42945 0.0
O466 O 0.32301 0.73894 0.3935 0.0
O467 O 0.29303 0.64984 0.38008 0.0
O468 O 0.39369 0.78944 0.36264 0.0
O469 O 0.39608 0.78123 0.41645 0.0
O470 O 0.39435 0.67204 0.33657 0.0
O471 O 0.34646 0.6453 0.35277 0.0
H472 H 0.32401 0.39161 0.33481 0.0
H473 H 0.3379 0.28026 0.33835 0.0
H474 H 0.33725 0.29 0.44511 0.0
H475 H 0.32347 0.4016 0.44186 0.0
H476 H 0.4214 0.90567 0.43362 0.0
H477 H 0.40521 1.01628 0.43564 0.0
H478 H 0.33417 0.98829 0.35535 0.0
H479 H 0.34977 0.87752 0.35363 0.0
Ho480 Ho 0.36643 0.36272 0.8889 0.0
Ho481 Ho 0.32998 0.48217 0.89341 0.0
C482 C 0.28582 0.35937 0.89024 0.0
C483 C 0.38981 0.2495 0.89292 0.0
C484 C 0.37723 0.18427 0.89349 0.0
C485 C 0.37913 0.14937 0.92312 0.0
C486 C 0.37011 0.08631 0.92371 0.0
C487 C 0.35922 0.0568 0.89461 0.0
C488 C 0.35661 0.09162 0.86509 0.0
C489 C 0.36556 0.15481 0.86449 0.0
C490 C 0.35742 0.42432 0.82906 0.0
C491 C 0.41314 0.47581 0.89529 0.0
C492 C 0.30718 0.59566 0.88661 0.0
C493 C 0.31791 0.66174 0.8897 0.0
C494 C 0.33256 0.69346 0.86254 0.0
C495 C 0.33964 0.75725 0.86434 0.0
C496 C 0.33202 0.7907 0.89318 0.0
C497 C 0.31774 0.7593 0.92046 0.0
C498 C 0.31064 0.69544 0.91871 0.0
C499 C 0.33885 0.42525 0.95367 0.0
O500 O 0.31391 0.33076 0.89915 0.0
O501 O 0.28559 0.41909 0.88184 0.0
O502 O 0.38745 0.28091 0.86513 0.0
O503 O 0.38272 0.28366 0.91868 0.0
O504 O 0.38502 0.39681 0.83894 0.0
O505 O 0.33557 0.41801 0.85191 0.0
O506 O 0.38597 0.50859 0.88599 0.0
O507 O 0.41023 0.41807 0.90538 0.0
O508 O 0.30393 0.56273 0.91375 0.0
O509 O 0.32058 0.56336 0.86264 0.0
O510 O 0.3115 0.45406 0.94403 0.0
O511 O 0.36076 0.42925 0.93065 0.0
H512 H 0.3883 0.17056 0.94577 0.0
H513 H 0.37233 0.06012 0.9467 0.0
H514 H 0.3483 0.06951 0.84238 0.0
H515 H 0.36396 0.18013 0.84119 0.0
H516 H 0.33796 0.66933 0.83961 0.0
H517 H 0.35063 0.7808 0.84303 0.0
H518 H 0.31167 0.78445 0.94291 0.0
H519 H 0.29885 0.67273 0.93985 0.0
Ho520 Ho 0.59703 0.69023 0.87502 0.0
Ho521 Ho 0.63136 0.56385 0.88723 0.0
C522 C 0.67836 0.6861 0.88038 0.0
C523 C 0.57748 0.80585 0.87311 0.0
C524 C 0.59047 0.86986 0.87875 0.0
C525 C 0.60649 0.88758 0.90854 0.0
C526 C 0.61706 0.94951 0.91316 0.0
C527 C 0.61186 0.99446 0.88806 0.0
C528 C 0.59638 0.97647 0.85824 0.0
C529 C 0.58574 0.91492 0.85368 0.0
C530 C 0.59781 0.6125 0.82123 0.0
C531 C 0.54987 0.57369 0.88859 0.0
C532 C 0.66142 0.4566 0.88178 0.0
C533 C 0.65343 0.38945 0.8867 0.0
C534 C 0.62528 0.36156 0.87094 0.0
C535 C 0.61973 0.29723 0.87369 0.0
C536 C 0.64207 0.25943 0.89229 0.0
C537 C 0.66971 0.28732 0.90871 0.0
C538 C 0.67538 0.35169 0.90584 0.0
C539 C 0.60873 0.61948 0.94381 0.0
O540 O 0.65085 0.71968 0.87542 0.0
O541 O 0.67798 0.62518 0.88569 0.0
O542 O 0.59015 0.77642 0.84764 0.0
O543 O 0.57282 0.76916 0.89886 0.0
O544 O 0.57432 0.65314 0.82756 0.0
O545 O 0.62117 0.61954 0.84263 0.0
O546 O 0.57651 0.53753 0.88291 0.0
O547 O 0.5525 0.63466 0.89192 0.0
O548 O 0.66389 0.49129 0.90828 0.0
O549 O 0.64582 0.48524 0.85726 0.0
O550 O 0.6073 0.56023 0.93753 0.0
O551 O 0.62266 0.64672 0.91917 0.0
H552 H 0.61058 0.85386 0.92829 0.0
H553 H 0.62902 0.96253 0.93634 0.0
H554 H 0.59215 1.01037 0.8386 0.0
H555 H 0.57343 0.90256 0.83055 0.0
H556 H 0.60779 0.38921 0.85606 0.0
H557 H 0.59817 0.27673 0.86096 0.0
H558 H 0.68716 0.25908 0.92332 0.0
H559 H 0.69723 0.37188 0.91821 0.0
Ho560 Ho 0.37318 0.68456 0.66589 0.0
Ho561 Ho 0.33843 0.56653 0.64671 0.0
C562 C 0.29343 0.68723 0.65476 0.0
C563 C 0.39301 0.79766 0.67806 0.0
C564 C 0.38226 0.86345 0.67259 0.0
C565 C 0.38416 0.89224 0.64113 0.0
C566 C 0.37655 0.9558 0.63727 0.0
C567 C 0.36699 0.99171 0.66476 0.0
C568 C 0.36449 0.96292 0.69602 0.0
C569 C 0.37212 0.89951 0.6999 0.0
C570 C 0.36634 0.59792 0.71585 0.0
C571 C 0.4213 0.577 0.6463 0.0
C572 C 0.31586 0.45293 0.64296 0.0
C573 C 0.32683 0.38697 0.64599 0.0
C574 C 0.34379 0.36388 0.67436 0.0
C575 C 0.35117 0.30005 0.67743 0.0
C576 C 0.3418 0.25843 0.65221 0.0
C577 C 0.32551 0.28172 0.62366 0.0
C578 C 0.31804 0.34531 0.62064 0.0
C579 C 0.34595 0.64596 0.59404 0.0
O580 O 0.32204 0.7176 0.6506 0.0
O581 O 0.29272 0.62604 0.6588 0.0
O582 O 0.37453 0.76438 0.69845 0.0
O583 O 0.40332 0.76556 0.65247 0.0
O584 O 0.3929 0.63271 0.7115 0.0
O585 O 0.34427 0.61275 0.69436 0.0
O586 O 0.39463 0.53997 0.65117 0.0
O587 O 0.41827 0.63787 0.64591 0.0
O588 O 0.32712 0.48452 0.61745 0.0
O589 O 0.31482 0.48628 0.66998 0.0
O590 O 0.31966 0.61081 0.59956 0.0
O591 O 0.36764 0.63629 0.61701 0.0
H592 H 0.39207 0.86605 0.61958 0.0
H593 H 0.37862 0.97725 0.61294 0.0
H594 H 0.35719 0.98984 0.71752 0.0
H595 H 0.37071 0.87888 0.72448 0.0
H596 H 0.35087 0.39483 0.69435 0.0
H597 H 0.36382 0.28297 0.69964 0.0
H598 H 0.31813 0.25044 0.60393 0.0
H599 H 0.30477 0.36185 0.59865 0.0
Ho600 Ho 0.59978 0.36732 0.65116 0.0
Ho601 Ho 0.63781 0.49066 0.64264 0.0
C602 C 0.68182 0.36538 0.65128 0.0
C603 C 0.57959 0.25199 0.65326 0.0
C604 C 0.59335 0.18777 0.64849 0.0
C605 C 0.58086 0.15053 0.62258 0.0
C606 C 0.59073 0.08783 0.61986 0.0
C607 C 0.61308 0.06077 0.6432 0.0
C608 C 0.62632 0.09822 0.66859 0.0
C609 C 0.61664 0.16099 0.67121 0.0
C610 C 0.59932 0.44461 0.70503 0.0
C611 C 0.55697 0.48597 0.63139 0.0
C612 C 0.66703 0.59746 0.65259 0.0
C613 C 0.65919 0.66522 0.64898 0.0
C614 C 0.65489 0.7015 0.67765 0.0
C615 C 0.64788 0.76543 0.67528 0.0
C616 C 0.64524 0.79485 0.64416 0.0
C617 C 0.64977 0.75909 0.61539 0.0
C618 C 0.6567 0.69487 0.61774 0.0
C619 C 0.61835 0.43862 0.58399 0.0
O620 O 0.65316 0.3339 0.65224 0.0
O621 O 0.68321 0.42678 0.64814 0.0
O622 O 0.59041 0.28281 0.67909 0.0
O623 O 0.57607 0.2878 0.62703 0.0
O624 O 0.57394 0.40993 0.69604 0.0
O625 O 0.62394 0.43408 0.68569 0.0
O626 O 0.58259 0.51743 0.64451 0.0
O627 O 0.55892 0.42499 0.62779 0.0
O628 O 0.67175 0.56435 0.62574 0.0
O629 O 0.64961 0.56727 0.67521 0.0
O630 O 0.61888 0.4979 0.59029 0.0
O631 O 0.6296 0.40931 0.60933 0.0
H632 H 0.56272 0.16949 0.60486 0.0
H633 H 0.58018 0.05987 0.60007 0.0
H634 H 0.64358 0.07842 0.68687 0.0
H635 H 0.62677 0.18798 0.69157 0.0
H636 H 0.65695 0.6803 0.70207 0.0
H637 H 0.64445 0.79205 0.69778 0.0
H638 H 0.64777 0.78086 0.59113 0.0
H639 H 0.66005 0.66857 0.59514 0.0
C640 C 0.23092 0.25145 0.13085 0.0
C641 C 0.20776 0.24626 0.1574 0.0
C642 C 0.23539 0.33355 0.18567 0.0
C643 C 0.25636 0.34249 0.15741 0.0
N644 N 0.26769 0.32041 0.0999 0.0
N645 N 0.18488 0.28508 0.20884 0.0
C646 C 0.25228 0.3043 0.12906 0.0
C647 C 0.20907 0.28821 0.18449 0.0
N648 N 0.23254 0.20588 0.10739 0.0
N649 N 0.24148 0.36625 0.21402 0.0
H650 H 0.1667 0.24967 0.21005 0.0
H651 H 0.18178 0.31916 0.22687 0.0
H652 H 0.25978 0.40115 0.21543 0.0
H653 H 0.22981 0.35635 0.23664 0.0
H654 H 0.25121 0.20456 0.08904 0.0
H655 H 0.21719 0.16622 0.10826 0.0
H656 H 0.26334 0.29743 0.0776 0.0
H657 H 0.28161 0.3614 0.09728 0.0
C658 C 0.74799 0.80891 0.12405 0.0
C659 C 0.75944 0.83024 0.15536 0.0
C660 C 0.7225 0.75491 0.18338 0.0
C661 C 0.71309 0.73065 0.15199 0.0
N662 N 0.72089 0.72628 0.09297 0.0
N663 N 0.76231 0.81754 0.21481 0.0
C664 C 0.72731 0.75501 0.12247 0.0
C665 C 0.74801 0.8016 0.18509 0.0
N666 N 0.7562 0.84149 0.09594 0.0
N667 N 0.70602 0.73514 0.21138 0.0
H668 H 0.78022 0.85312 0.21713 0.0
H669 H 0.758 0.793 0.23679 0.0
H670 H 0.68801 0.69949 0.21115 0.0
H671 H 0.70872 0.75644 0.23438 0.0
H672 H 0.74637 0.83162 0.07255 0.0
H673 H 0.77037 0.88248 0.09659 0.0
H674 H 0.73281 0.73821 0.07075 0.0
H675 H 0.70593 0.68629 0.09149 0.0
C676 C 0.24032 0.75088 0.40881 0.0
C677 C 0.26431 0.75055 0.38267 0.0
C678 C 0.23733 0.84285 0.35751 0.0
C679 C 0.21465 0.84511 0.38475 0.0
N680 N 0.19793 0.8095 0.43917 0.0
N681 N 0.28862 0.79851 0.33376 0.0
C682 C 0.21727 0.80152 0.41129 0.0
C683 C 0.26373 0.79741 0.35751 0.0
N684 N 0.23934 0.70246 0.43104 0.0
N685 N 0.23256 0.88207 0.331 0.0
H686 H 0.30678 0.76323 0.33134 0.0
H687 H 0.29227 0.83563 0.31738 0.0
H688 H 0.21424 0.91739 0.33079 0.0
H689 H 0.24547 0.8778 0.30858 0.0
H690 H 0.22021 0.69672 0.44866 0.0
H691 H 0.25608 0.66476 0.4301 0.0
H692 H 0.20096 0.78337 0.46084 0.0
H693 H 0.18078 0.84629 0.4417 0.0
C694 C 0.73899 0.23887 0.40578 0.0
C695 C 0.76285 0.23711 0.37953 0.0
C696 C 0.73659 0.32997 0.3541 0.0
C697 C 0.71436 0.33391 0.38162 0.0
N698 N 0.69876 0.30108 0.43681 0.0
N699 N 0.78749 0.28405 0.33046 0.0
C700 C 0.717 0.29101 0.40846 0.0
C701 C 0.76262 0.28377 0.35422 0.0
N702 N 0.73705 0.19046 0.42792 0.0
N703 N 0.7318 0.3684 0.32728 0.0
H704 H 0.80545 0.24839 0.3282 0.0
H705 H 0.79136 0.32098 0.314 0.0
H706 H 0.71373 0.40415 0.32694 0.0
H707 H 0.7444 0.36289 0.30476 0.0
H708 H 0.71791 0.18626 0.44566 0.0
H709 H 0.75265 0.15125 0.42658 0.0
H710 H 0.70202 0.27525 0.45856 0.0
H711 H 0.68267 0.33942 0.43962 0.0
C712 C 0.72828 0.73759 0.85516 0.0
C713 C 0.70973 0.72226 0.88408 0.0
C714 C 0.73853 0.80463 0.915 0.0
C715 C 0.75467 0.8238 0.88521 0.0
N716 N 0.76385 0.81295 0.82641 0.0
N717 N 0.69499 0.74136 0.94115 0.0
C718 C 0.74917 0.79156 0.85505 0.0
C719 C 0.71447 0.75553 0.91402 0.0
N720 N 0.72606 0.69975 0.8281 0.0
N721 N 0.74692 0.83247 0.94433 0.0
H722 H 0.67885 0.70285 0.94197 0.0
H723 H 0.69373 0.76884 0.9623 0.0
H724 H 0.76273 0.8714 0.94563 0.0
H725 H 0.73959 0.81548 0.9675 0.0
H726 H 0.74077 0.70502 0.8068 0.0
H727 H 0.71141 0.65919 0.82824 0.0
H728 H 0.75869 0.79501 0.80301 0.0
H729 H 0.77953 0.85212 0.82566 0.0
C730 C 0.23941 0.30807 0.85744 0.0
C731 C 0.25519 0.31997 0.88845 0.0
C732 C 0.22595 0.23012 0.91288 0.0
C733 C 0.20668 0.22397 0.88347 0.0
N734 N 0.19172 0.26154 0.82871 0.0
N735 N 0.25872 0.29983 0.94734 0.0
C736 C 0.21238 0.26439 0.85602 0.0
C737 C 0.24703 0.28308 0.9167 0.0
N738 N 0.25142 0.33532 0.82906 0.0
N739 N 0.22428 0.18524 0.937 0.0
H740 H 0.27314 0.34 0.95112 0.0
H741 H 0.25118 0.2778 0.96924 0.0
H742 H 0.20968 0.14505 0.9343 0.0
H743 H 0.23995 0.1848 0.95791 0.0
H744 H 0.24312 0.323 0.80542 0.0
H745 H 0.27196 0.36593 0.82881 0.0
H746 H 0.19201 0.29493 0.80981 0.0
H747 H 0.17287 0.22773 0.82595 0.0
C748 C 0.71637 0.28304 0.62519 0.0
C749 C 0.71288 0.32697 0.65111 0.0
C750 C 0.75945 0.27693 0.68166 0.0
C751 C 0.76101 0.23011 0.65686 0.0
N752 N 0.73712 0.18173 0.60833 0.0
N753 N 0.72806 0.36318 0.70559 0.0
C754 C 0.73815 0.23088 0.62969 0.0
C755 C 0.73373 0.32352 0.67976 0.0
N756 N 0.69949 0.29252 0.59584 0.0
N757 N 0.78297 0.27717 0.70678 0.0
H758 H 0.71052 0.39969 0.7043 0.0
H759 H 0.73945 0.35821 0.72882 0.0
H760 H 0.80041 0.241 0.71056 0.0
H761 H 0.78622 0.31425 0.72301 0.0
H762 H 0.7034 0.26559 0.57478 0.0
H763 H 0.68406 0.33144 0.59149 0.0
H764 H 0.71876 0.17698 0.58982 0.0
H765 H 0.75261 0.14256 0.61112 0.0
C766 C 0.22019 0.78186 0.62226 0.0
C767 C 0.21601 0.82547 0.64821 0.0
C768 C 0.26048 0.77272 0.68057 0.0
C769 C 0.26254 0.72618 0.6557 0.0
N770 N 0.24061 0.68002 0.60575 0.0
N771 N 0.22969 0.86052 0.70329 0.0
C772 C 0.24114 0.72868 0.62743 0.0
C773 C 0.2357 0.82076 0.67763 0.0
N774 N 0.2045 0.7924 0.5924 0.0
N775 N 0.28269 0.77126 0.7068 0.0
H776 H 0.21333 0.89853 0.70112 0.0
H777 H 0.23975 0.85459 0.72703 0.0
H778 H 0.29911 0.73384 0.71139 0.0
H779 H 0.28589 0.80802 0.72324 0.0
H780 H 0.20885 0.76568 0.57136 0.0
H781 H 0.1896 0.83195 0.58783 0.0
H782 H 0.22338 0.67658 0.58616 0.0
H783 H 0.25532 0.64002 0.60922 0.0
C784 C 0.07929 0.05346 0.29016 0.0
C785 C 0.10593 1.00879 0.29431 0.0
C786 C 0.13791 0.06205 0.24922 0.0
C787 C 0.10975 0.10258 0.24324 0.0
N788 N 0.06419 0.15676 0.27098 0.0
N789 N 0.15886 0.96584 0.27412 0.0
C790 C 0.08333 0.10394 0.26733 0.0
C791 C 0.13498 1.01232 0.27308 0.0
N792 N 0.04957 0.0479 0.30753 0.0
N793 N 0.16857 0.0746 0.23468 0.0
H794 H 0.15735 0.92782 0.29029 0.0
H795 H 0.17832 0.96146 0.25674 0.0
H796 H 0.17292 0.11527 0.22118 0.0
H797 H 0.19091 0.05019 0.24002 0.0
H798 H 0.02785 0.07414 0.30205 0.0
H799 H 0.04531 1.01383 0.32539 0.0
H800 H 0.04655 0.16276 0.29 0.0
H801 H 0.06992 0.19835 0.25871 0.0
C802 C 0.89135 1.0158 0.2977 0.0
C803 C 0.86551 0.06194 0.3021 0.0
C804 C 0.83265 1.01314 0.25648 0.0
C805 C 0.86037 0.97233 0.24955 0.0
N806 N 0.90626 0.91496 0.27533 0.0
N807 N 0.81368 0.10957 0.28153 0.0
C808 C 0.88712 0.96822 0.27339 0.0
C809 C 0.83653 0.06142 0.28063 0.0
N810 N 0.92045 1.01723 0.31636 0.0
N811 N 0.80156 1.00277 0.24229 0.0
H812 H 0.81587 0.14693 0.29775 0.0
H813 H 0.79459 0.11596 0.2638 0.0
H814 H 0.79647 0.96392 0.22788 0.0
H815 H 0.7796 1.02728 0.24867 0.0
H816 H 0.94216 0.99142 0.31061 0.0
H817 H 0.9241 0.04692 0.33626 0.0
H818 H 0.92397 0.90608 0.29408 0.0
H819 H 0.90066 0.87536 0.26153 0.0
C820 C 0.83102 0.05798 0.76271 0.0
C821 C 0.86031 0.05756 0.74176 0.0
C822 C 0.8805 0.96305 0.77128 0.0
C823 C 0.85399 0.9686 0.79502 0.0
N824 N 0.7957 1.00189 0.80224 0.0
N825 N 0.91527 1.01173 0.72934 0.0
C826 C 0.82673 1.01051 0.78767 0.0
C827 C 0.88565 1.01072 0.74702 0.0
N828 N 0.80831 0.10625 0.76047 0.0
N829 N 0.89864 0.90868 0.76951 0.0
H830 H 0.9198 0.04292 0.71019 0.0
H831 H 0.93645 0.98453 0.73546 0.0
H832 H 0.89231 0.86924 0.78344 0.0
H833 H 0.91611 0.89911 0.75077 0.0
H834 H 0.78899 0.11371 0.7777 0.0
H835 H 0.8107 0.14255 0.74334 0.0
H836 H 0.77394 1.02705 0.7957 0.0
H837 H 0.79039 0.96395 0.81751 0.0
C838 C 0.13341 0.05798 0.77429 0.0
C839 C 0.10462 0.05688 0.79579 0.0
C840 C 0.0839 0.9634 0.76647 0.0
C841 C 0.11021 0.96902 0.74237 0.0
N842 N 0.16824 1.00357 0.73425 0.0
N843 N 0.04938 1.01251 0.80831 0.0
C844 C 0.13739 1.01125 0.74926 0.0
C845 C 0.07902 1.01085 0.79063 0.0
N846 N 0.15589 0.10646 0.77603 0.0
N847 N 0.06577 0.90917 0.76881 0.0
H848 H 0.04478 0.04428 0.82702 0.0
H849 H 0.02812 0.98566 0.80237 0.0
H850 H 0.07215 0.86943 0.75546 0.0
H851 H 0.0484 0.89991 0.78774 0.0
H852 H 0.17473 0.11473 0.75836 0.0
H853 H 0.1536 0.14232 0.79316 0.0
H854 H 0.19004 1.02832 0.74079 0.0
H855 H 0.17348 0.96699 0.71839 0.0
C856 C 0.57713 0.54079 0.28857 0.0
C857 C 0.60356 0.49573 0.29285 0.0
C858 C 0.63555 0.54694 0.24722 0.0
C859 C 0.60788 0.58908 0.24138 0.0
N860 N 0.56184 0.64344 0.26843 0.0
N861 N 0.65502 0.44929 0.27157 0.0
C862 C 0.58116 0.59069 0.26526 0.0
C863 C 0.63212 0.49746 0.27109 0.0
N864 N 0.54764 0.53612 0.30636 0.0
N865 N 0.66635 0.55695 0.23235 0.0
H866 H 0.6531 0.4113 0.28772 0.0
H867 H 0.67378 0.44333 0.2536 0.0
H868 H 0.67155 0.59561 0.21764 0.0
H869 H 0.68832 0.53182 0.23821 0.0
H870 H 0.52584 0.56216 0.30092 0.0
H871 H 0.54365 0.50276 0.32464 0.0
H872 H 0.54403 0.64981 0.28725 0.0
H873 H 0.56745 0.6849 0.25602 0.0
C874 C 0.39678 0.56432 0.28856 0.0
C875 C 0.36639 0.59116 0.30164 0.0
C876 C 0.33357 0.52665 0.26216 0.0
C877 C 0.36411 0.50718 0.24603 0.0
N878 N 0.425 0.52509 0.24005 0.0
N879 N 0.30583 0.60798 0.29365 0.0
C880 C 0.3957 0.53125 0.25806 0.0
C881 C 0.33474 0.57529 0.28637 0.0
N882 N 0.42687 0.56753 0.30564 0.0
N883 N 0.30351 0.49703 0.25592 0.0
H884 H 0.30557 0.64622 0.3094 0.0
H885 H 0.28295 0.60177 0.28088 0.0
H886 H 0.30171 0.45878 0.24037 0.0
H887 H 0.28131 0.50565 0.26936 0.0
H888 H 0.44863 0.54295 0.29861 0.0
H889 H 0.42928 0.58708 0.32902 0.0
H890 H 0.44765 0.54756 0.24634 0.0
H891 H 0.42597 0.50533 0.21664 0.0
C892 C 0.32848 0.50617 0.79014 0.0
C893 C 0.35468 0.46151 0.79669 0.0
C894 C 0.38628 0.50162 0.74796 0.0
C895 C 0.36193 0.5503 0.74338 0.0
N896 N 0.31208 0.60379 0.76368 0.0
N897 N 0.3976 0.39868 0.77025 0.0
C898 C 0.33336 0.55329 0.76513 0.0
C899 C 0.3806 0.45421 0.77235 0.0
N900 N 0.29772 0.50093 0.80564 0.0
N901 N 0.41549 0.50077 0.72956 0.0
H902 H 0.39089 0.35975 0.7844 0.0
H903 H 0.41444 0.38795 0.75114 0.0
H904 H 0.42057 0.53243 0.71064 0.0
H905 H 0.43608 0.47161 0.73496 0.0
H906 H 0.27644 0.52761 0.79931 0.0
H907 H 0.29201 0.46494 0.82197 0.0
H908 H 0.29365 0.61311 0.78157 0.0
H909 H 0.315 0.63999 0.74657 0.0
C910 C 0.62971 0.54611 0.77821 0.0
C911 C 0.59845 0.57067 0.79081 0.0
C912 C 0.56913 0.52161 0.74309 0.0
C913 C 0.5993 0.48865 0.7343 0.0
N914 N 0.65656 0.45926 0.75059 0.0
N915 N 0.53635 0.56938 0.78658 0.0
C916 C 0.62909 0.49791 0.75389 0.0
C917 C 0.5676 0.555 0.77363 0.0
N918 N 0.66026 0.5708 0.78764 0.0
N919 N 0.5419 0.52327 0.72191 0.0
H920 H 0.5325 0.5903 0.8094 0.0
H921 H 0.51358 0.55248 0.77678 0.0
H922 H 0.54172 0.50184 0.6989 0.0
H923 H 0.52076 0.55181 0.72556 0.0
H924 H 0.68334 0.55737 0.77702 0.0
H925 H 0.66235 0.61056 0.80209 0.0
H926 H 0.67759 0.46099 0.76644 0.0
H927 H 0.6566 0.4207 0.73505 0.0
C928 C 0.14027 0.20166 0.99829 0.0
C929 C 0.11368 0.17009 0.98138 0.0
C930 C 0.0853 0.15356 0.03555 0.0
C931 C 0.116 0.16958 0.0523 0.0
N932 N 0.1704 0.22096 0.04997 0.0
N933 N 0.05858 0.11964 0.98459 0.0
C934 C 0.14266 0.19783 0.03366 0.0
C935 C 0.08522 0.14805 1.00011 0.0
N936 N 0.16283 0.23649 0.98025 0.0
N937 N 0.05586 0.14595 0.0531 0.0
H938 H 0.05507 0.12075 0.95909 0.0
H939 H 0.04023 0.09359 0.99716 0.0
H940 H 0.05416 0.15523 0.0783 0.0
H941 H 0.03214 0.13907 0.04205 0.0
H942 H 0.18158 0.26456 0.99065 0.0
H943 H 0.16047 0.242 0.9546 0.0
H944 H 0.1929 0.2344 0.03828 0.0
H945 H 0.17085 0.22594 0.0757 0.0
C946 C 0.83945 0.87379 1.00537 0.0
C947 C 0.84468 0.9297 0.98706 0.0
C948 C 0.857 0.9855 0.03904 0.0
C949 C 0.84745 0.93164 0.05754 0.0
N950 N 0.83122 0.82372 0.05925 0.0
N951 N 0.85958 0.03862 0.98556 0.0
C952 C 0.83965 0.87522 0.04091 0.0
C953 C 0.8544 0.98526 1.00366 0.0
N954 N 0.83422 0.81947 0.98859 0.0
N955 N 0.86834 0.03707 0.05549 0.0
H956 H 0.85972 0.03961 0.95969 0.0
H957 H 0.8625 0.08262 0.99581 0.0
H958 H 0.86946 0.03956 0.0813 0.0
H959 H 0.87899 0.07587 0.04392 0.0
H960 H 0.83265 0.77578 0.9998 0.0
H961 H 0.83364 0.81759 0.96273 0.0
H962 H 0.8215 0.78278 0.04936 0.0
H963 H 0.83314 0.82262 0.08505 0.0
C964 C 0.08979 0.89436 0.49705 0.0
C965 C 0.11773 0.92082 0.47955 0.0
C966 C 0.14738 0.93922 0.53269 0.0
C967 C 0.11812 0.91789 0.5502 0.0
N968 N 0.06575 0.86033 0.54996 0.0
N969 N 0.1761 0.95546 0.4798 0.0
C970 C 0.09073 0.89038 0.53257 0.0
C971 C 0.14761 0.93857 0.49719 0.0
N972 N 0.0618 0.87541 0.47964 0.0
N973 N 0.17437 0.9626 0.55016 0.0
H974 H 0.17679 0.95689 0.45396 0.0
H975 H 0.1998 0.9637 0.49051 0.0
H976 H 0.17603 0.9597 0.57595 0.0
H977 H 0.19479 0.98623 0.53954 0.0
H978 H 0.03876 0.86263 0.49047 0.0
H979 H 0.06156 0.87383 0.4538 0.0
H980 H 0.04608 0.83517 0.53909 0.0
H981 H 0.06632 0.85666 0.57578 0.0
C982 C 0.82506 0.19893 0.53814 0.0
C983 C 0.85069 0.16612 0.55626 0.0
C984 C 0.87232 0.12291 0.50405 0.0
C985 C 0.84691 0.15591 0.48562 0.0
N986 N 0.80409 0.23648 0.48469 0.0
N987 N 0.90669 0.11945 0.55395 0.0
C988 C 0.82497 0.19776 0.5026 0.0
C989 C 0.87706 0.1359 0.53841 0.0
N990 N 0.80023 0.23003 0.5551 0.0
N991 N 0.89002 0.07513 0.48989 0.0
H992 H 0.91219 0.1325 0.57817 0.0
H993 H 0.92758 0.10112 0.54135 0.0
H994 H 0.8857 0.0599 0.46583 0.0
H995 H 0.90626 0.04586 0.50336 0.0
H996 H 0.77825 0.24795 0.54405 0.0
H997 H 0.80128 0.23602 0.58077 0.0
H998 H 0.78951 0.27178 0.4952 0.0
H999 H 0.8036 0.23681 0.4588 0.0
C1000 C 0.58755 0.67082 0.03188 0.0
C1001 C 0.61468 0.64216 0.04981 0.0
C1002 C 0.64267 0.61502 0.99705 0.0
C1003 C 0.61406 0.63881 0.9792 0.0
N1004 N 0.56398 0.70312 0.97837 0.0
N1005 N 0.67149 0.59947 0.05005 0.0
C1006 C 0.58806 0.67147 0.99631 0.0
C1007 C 0.64346 0.61866 0.03246 0.0
N1008 N 0.56065 0.69513 0.04899 0.0
N1009 N 0.6685 0.58666 0.98004 0.0
H1010 H 0.67245 0.59986 0.07589 0.0
H1011 H 0.69467 0.58723 0.03941 0.0
H1012 H 0.67004 0.58753 0.95422 0.0
H1013 H 0.68803 0.56103 0.9911 0.0
H1014 H 0.53804 0.71024 0.03801 0.0
H1015 H 0.56077 0.69876 0.07476 0.0
H1016 H 0.54554 0.73196 0.98869 0.0
H1017 H 0.56413 0.70391 0.9525 0.0
C1018 C 0.34293 0.36866 1.00886 0.0
C1019 C 0.34777 0.42407 0.98985 0.0
C1020 C 0.35759 0.48293 0.04135 0.0
C1021 C 0.34861 0.42939 0.06033 0.0
N1022 N 0.34109 0.31869 0.06353 0.0
N1023 N 0.35987 0.53414 0.98744 0.0
C1024 C 0.34399 0.37124 0.04441 0.0
C1025 C 0.35587 0.48099 1.00598 0.0
N1026 N 0.33583 0.31433 0.99275 0.0
N1027 N 0.36817 0.53551 0.05733 0.0
H1028 H 0.36003 0.53434 0.96158 0.0
H1029 H 0.36136 0.5787 0.99733 0.0
H1030 H 0.3694 0.53867 0.08309 0.0
H1031 H 0.37849 0.57426 0.04542 0.0
H1032 H 0.32895 0.27293 1.00447 0.0
H1033 H 0.33606 0.31102 0.96694 0.0
H1034 H 0.33928 0.27373 0.05427 0.0
H1035 H 0.34262 0.31997 0.08938 0.0
C1036 C 0.59469 0.38917 0.49645 0.0
C1037 C 0.62177 0.41692 0.47832 0.0
C1038 C 0.65195 0.43881 0.53071 0.0
C1039 C 0.62304 0.41773 0.5488 0.0
N1040 N 0.5721 0.35621 0.55003 0.0
N1041 N 0.67972 0.45355 0.47716 0.0
C1042 C 0.59613 0.3872 0.53193 0.0
C1043 C 0.65171 0.43657 0.49524 0.0
N1044 N 0.567 0.36718 0.47965 0.0
N1045 N 0.6791 0.4629 0.54765 0.0
H1046 H 0.68008 0.45263 0.45129 0.0
H1047 H 0.70334 0.46434 0.48735 0.0
H1048 H 0.68098 0.46062 0.57347 0.0
H1049 H 0.69953 0.48578 0.5366 0.0
H1050 H 0.54438 0.35325 0.49092 0.0
H1051 H 0.56661 0.364 0.45387 0.0
H1052 H 0.55296 0.3288 0.53982 0.0
H1053 H 0.5731 0.35441 0.57582 0.0
C1054 C 0.32886 0.70042 0.54097 0.0
C1055 C 0.35367 0.66511 0.55879 0.0
C1056 C 0.37574 0.62466 0.5061 0.0
C1057 C 0.35085 0.65957 0.48807 0.0
N1058 N 0.30901 0.7418 0.48792 0.0
N1059 N 0.40902 0.61592 0.55652 0.0
C1060 C 0.32921 0.7013 0.50545 0.0
C1061 C 0.37993 0.63482 0.54079 0.0
N1062 N 0.30438 0.73193 0.55819 0.0
N1063 N 0.39355 0.57799 0.49105 0.0
H1064 H 0.4142 0.62711 0.58104 0.0
H1065 H 0.42993 0.5975 0.54398 0.0
H1066 H 0.39027 0.56602 0.46629 0.0
H1067 H 0.40913 0.5469 0.50408 0.0
H1068 H 0.28284 0.7518 0.54725 0.0
H1069 H 0.30531 0.73645 0.58393 0.0
H1070 H 0.29467 0.77702 0.49879 0.0
H1071 H 0.30889 0.74358 0.46203 0.0
C1072 C 0.96438 0.03839 0.17854 0.0
C1073 C 0.94934 1.02045 0.14802 0.0
C1074 C 0.00363 0.03389 0.11905 0.0
C1075 C 0.01801 0.05554 0.14899 0.0
N1076 N 0.0146 0.07516 0.20756 0.0
N1077 N 0.95244 1.00575 0.08884 0.0
C1078 C -0.00094 0.05679 0.17888 0.0
C1079 C 0.96841 1.01934 0.11813 0.0
N1080 N 0.9459 0.03499 0.20731 0.0
N1081 N 0.02404 1.02565 0.09192 0.0
H1082 H 0.92666 0.99427 0.08747 0.0
H1083 H 0.96382 1.00994 0.06564 0.0
H1084 H 0.05017 0.03484 0.09231 0.0
H1085 H 0.01603 1.00517 0.06993 0.0
H1086 H 0.95606 0.04057 0.23095 0.0
H1087 H 0.91998 1.02465 0.20788 0.0
H1088 H 0.00191 0.08553 0.22948 0.0
H1089 H 0.04094 0.07967 0.20935 0.0
C1090 C 0.95698 0.98336 0.39425 0.0
C1091 C 0.94968 0.04019 0.41008 0.0
C1092 C 0.01083 0.05576 0.42033 0.0
C1093 C 0.01784 1.00741 0.39733 0.0
N1094 N -0.00366 0.92996 0.35891 0.0
N1095 N 0.96841 0.12173 0.44653 0.0
C1096 C -0.00943 0.97239 0.3834 0.0
C1097 C 0.97636 0.07362 0.42586 0.0
N1098 N 0.93257 0.93845 0.39101 0.0
N1099 N 0.03678 0.08276 0.43777 0.0
H1100 H 0.94361 0.12912 0.45503 0.0
H1101 H -0.01407 0.15413 0.45523 0.0
H1102 H 0.06233 0.07233 0.43399 0.0
H1103 H 0.03322 0.11336 0.45737 0.0
H1104 H 0.93763 0.89456 0.38121 0.0
H1105 H 0.90917 0.94072 0.40313 0.0
H1106 H 0.97668 0.9084 0.34587 0.0
H1107 H 0.02033 0.92109 0.34913 0.0
C1108 C 8e-05 1.02307 0.91901 0.0
C1109 C 0.00987 0.0623 0.89222 0.0
C1110 C 0.95322 0.0527 0.86748 0.0
C1111 C 0.94261 1.01852 0.89573 0.0
N1112 N 0.95308 0.98372 0.95188 0.0
N1113 N -0.00725 0.12717 0.84523 0.0
C1114 C 0.96522 1.00731 0.92258 0.0
C1115 C -0.01449 0.08149 0.86793 0.0
N1116 N 0.02383 1.00095 0.94103 0.0
N1117 N 0.93362 0.05464 0.83934 0.0
H1118 H 0.0162 0.14913 0.84338 0.0
H1119 H 0.97424 0.14722 0.82989 0.0
H1120 H 0.90996 1.03303 0.83728 0.0
H1121 H 0.94239 0.07251 0.81681 0.0
H1122 H 0.01844 0.96687 0.9588 0.0
H1123 H 0.04953 1.01308 0.94017 0.0
H1124 H 0.96777 0.98019 0.97338 0.0
H1125 H 0.92732 0.97382 0.95567 0.0
C1126 C 0.96442 1.01421 0.61908 0.0
C1127 C 0.95486 0.05394 0.64548 0.0
C1128 C 0.01036 0.03797 0.67179 0.0
C1129 C 0.02137 1.00414 0.64373 0.0
N1130 N 0.01139 0.97288 0.58708 0.0
N1131 N 0.97286 0.11703 0.69233 0.0
C1132 C -0.00094 0.99547 0.61634 0.0
C1133 C 0.97909 0.07032 0.67026 0.0
N1134 N 0.94079 0.99541 0.59629 0.0
N1135 N 0.02862 0.03672 0.70073 0.0
H1136 H 0.95032 0.14226 0.6932 0.0
H1137 H -0.00838 0.1347 0.70803 0.0
H1138 H 0.05107 1.01158 0.70379 0.0
H1139 H 0.0194 0.0549 0.72291 0.0
H1140 H 0.9457 0.96116 0.57872 0.0
H1141 H 0.91556 1.01085 0.59627 0.0
H1142 H -0.00299 0.97097 0.56535 0.0
H1143 H 0.03711 0.96268 0.58347 0.0
C1144 C 0.45598 0.58595 0.16262 0.0
C1145 C 0.44673 0.53322 0.14353 0.0
C1146 C 0.50507 0.52283 0.12273 0.0
C1147 C 0.51491 0.57356 0.14288 0.0
N1148 N 0.50029 0.6547 0.18195 0.0
N1149 N 0.45855 0.46788 0.0965 0.0
C1150 C 0.49035 0.60642 0.16217 0.0
C1151 C 0.47019 0.50625 0.12103 0.0
N1152 N 0.43201 0.61752 0.18065 0.0
N1153 N 0.52899 0.48991 0.10547 0.0
H1154 H 0.4327 0.45833 0.09303 0.0
H1155 H 0.47375 0.45151 0.07727 0.0
H1156 H 0.5546 0.5024 0.10443 0.0
H1157 H 0.52389 0.44765 0.09393 0.0
H1158 H 0.43552 0.66215 0.18995 0.0
H1159 H 0.40769 0.60106 0.18574 0.0
H1160 H 0.48581 0.67251 0.2013 0.0
H1161 H 0.5237 0.67665 0.18001 0.0
C1162 C 0.45811 0.4965 0.38008 0.0
C1163 C 0.45184 0.54926 0.40037 0.0
C1164 C 0.51189 0.55201 0.41739 0.0
C1165 C 0.51871 0.50146 0.3959 0.0
N1166 N 0.49875 0.42562 0.35595 0.0
N1167 N 0.46947 0.6121 0.44673 0.0
C1168 C 0.49178 0.47259 0.37776 0.0
C1169 C 0.47784 0.57283 0.42137 0.0
N1170 N 0.43207 0.4685 0.36309 0.0
N1171 N 0.53797 0.58089 0.43375 0.0
H1172 H 0.4445 0.6259 0.45165 0.0
H1173 H 0.48647 0.62556 0.46521 0.0
H1174 H 0.56293 0.5645 0.43379 0.0
H1175 H 0.53529 0.6234 0.44579 0.0
H1176 H 0.43332 0.42323 0.35406 0.0
H1177 H 0.40847 0.48873 0.35841 0.0
H1178 H 0.48199 0.41042 0.33769 0.0
H1179 H 0.52212 0.40332 0.35425 0.0
C1180 C 0.45749 0.55244 0.91307 0.0
C1181 C 0.44784 0.50166 0.89288 0.0
C1182 C 0.50524 0.49782 0.86909 0.0
C1183 C 0.51565 0.54529 0.8913 0.0
N1184 N 0.50427 0.60102 0.94198 0.0
N1185 N 0.46567 0.41545 0.85793 0.0
C1186 C 0.49247 0.5682 0.91539 0.0
C1187 C 0.47263 0.47096 0.87295 0.0
N1188 N 0.43363 0.58462 0.93075 0.0
N1189 N 0.52546 0.47952 0.84327 0.0
H1190 H 0.44209 0.39389 0.85829 0.0
H1191 H 0.48448 0.38747 0.84743 0.0
H1192 H 0.54971 0.49659 0.83851 0.0
H1193 H 0.51669 0.45148 0.82404 0.0
H1194 H 0.43911 0.62602 0.94304 0.0
H1195 H 0.40789 0.57285 0.93111 0.0
H1196 H 0.48887 0.61433 0.96176 0.0
H1197 H 0.5302 0.60743 0.94648 0.0
C1198 C 0.46195 0.50673 0.61562 0.0
C1199 C 0.45583 0.55184 0.64064 0.0
C1200 C 0.51669 0.57335 0.6433 0.0
C1201 C 0.52342 0.51759 0.62617 0.0
N1202 N 0.50303 0.44079 0.58764 0.0
N1203 N 0.47894 0.62134 0.68228 0.0
C1204 C 0.49611 0.48677 0.60985 0.0
C1205 C 0.48368 0.58313 0.65569 0.0
N1206 N 0.43581 0.48627 0.596 0.0
N1207 N 0.54099 0.61848 0.64626 0.0
H1208 H 0.4555 0.62635 0.69406 0.0
H1209 H 0.49914 0.64222 0.69486 0.0
H1210 H 0.56372 0.6172 0.63288 0.0
H1211 H 0.53613 0.66144 0.65727 0.0
H1212 H 0.43921 0.45801 0.5754 0.0
H1213 H 0.41072 0.50159 0.59837 0.0
H1214 H 0.48485 0.4098 0.5787 0.0
H1215 H 0.52734 0.43496 0.57772 0.0
C1216 C 0.12805 0.67444 0.17672 0.0
C1217 C 0.12719 0.70872 0.14644 0.0
C1218 C 0.11542 0.61209 0.11599 0.0
C1219 C 0.11296 0.57899 0.14656 0.0
N1220 N 0.11237 0.57993 0.20639 0.0
N1221 N 0.1159 0.71237 0.08766 0.0
C1222 C 0.11815 0.6105 0.17705 0.0
C1223 C 0.11978 0.67808 0.11615 0.0
N1224 N 0.1392 0.70264 0.20506 0.0
N1225 N 0.11453 0.58008 0.08678 0.0
H1226 H 0.11928 0.76057 0.08675 0.0
H1227 H 0.10677 0.69401 0.06552 0.0
H1228 H 0.11141 0.53185 0.08573 0.0
H1229 H 0.11978 0.60029 0.0638 0.0
H1230 H 0.14412 0.67863 0.2271 0.0
H1231 H 0.14622 0.74948 0.2059 0.0
H1232 H 0.11188 0.60202 0.22931 0.0
H1233 H 0.10539 0.53309 0.20772 0.0
C1234 C 0.81326 0.41346 0.15532 0.0
C1235 C 0.8403 0.36997 0.15132 0.0
C1236 C 0.8815 0.45595 0.14831 0.0
C1237 C 0.85425 0.49956 0.15008 0.0
N1238 N 0.79385 0.52059 0.14961 0.0
N1239 N 0.89912 0.34938 0.13795 0.0
C1240 C 0.81998 0.47848 0.15193 0.0
C1241 C 0.87414 0.39116 0.14602 0.0
N1242 N 0.78138 0.39271 0.1635 0.0
N1243 N 0.91449 0.47629 0.15014 0.0
H1244 H 0.89472 0.30158 0.13617 0.0
H1245 H 0.92343 0.36245 0.13022 0.0
H1246 H 0.92101 0.52327 0.15176 0.0
H1247 H 0.93534 0.4465 0.15278 0.0
H1248 H 0.76148 0.42208 0.17036 0.0
H1249 H 0.77539 0.34555 0.16591 0.0
H1250 H 0.76834 0.50793 0.14725 0.0
H1251 H 0.79785 0.56848 0.14725 0.0
C1252 C 0.11532 0.40357 0.41494 0.0
C1253 C 0.13831 0.37621 0.39203 0.0
C1254 C 0.15057 0.47993 0.36857 0.0
C1255 C 0.12454 0.50593 0.38862 0.0
N1256 N 0.07978 0.49236 0.42893 0.0
N1257 N 0.17498 0.38689 0.34429 0.0
C1258 C 0.10637 0.46774 0.41143 0.0
C1259 C 0.1554 0.41409 0.36824 0.0
N1260 N 0.1027 0.36848 0.44055 0.0
N1261 N 0.17097 0.51841 0.35013 0.0
H1262 H 0.17906 0.33893 0.34301 0.0
H1263 H 0.18497 0.41114 0.32407 0.0
H1264 H 0.16788 0.56672 0.34956 0.0
H1265 H 0.19272 0.50323 0.33777 0.0
H1266 H 0.08866 0.38698 0.46006 0.0
H1267 H 0.10877 0.32148 0.44389 0.0
H1268 H 0.06291 0.46557 0.44292 0.0
H1269 H 0.07312 0.53942 0.42775 0.0
C1270 C 0.88645 0.60864 0.38067 0.0
C1271 C 0.85962 0.5648 0.38485 0.0
C1272 C 0.81827 0.65105 0.38746 0.0
C1273 C 0.8455 0.69476 0.3868 0.0
N1274 N 0.90599 0.71474 0.38848 0.0
N1275 N 0.80061 0.54427 0.39763 0.0
C1276 C 0.87975 0.67341 0.38497 0.0
C1277 C 0.82566 0.58604 0.38973 0.0
N1278 N 0.91813 0.58863 0.37139 0.0
N1279 N 0.78533 0.67152 0.38474 0.0
H1280 H 0.80502 0.49644 0.39968 0.0
H1281 H 0.77619 0.55743 0.40498 0.0
H1282 H 0.77888 0.71857 0.38269 0.0
H1283 H 0.76463 0.6418 0.38151 0.0
H1284 H 0.93771 0.61877 0.36447 0.0
H1285 H 0.92401 0.5418 0.36759 0.0
H1286 H 0.93139 0.70116 0.391 0.0
H1287 H 0.90219 0.7624 0.39188 0.0
C1288 C 0.86803 0.38727 0.8848 0.0
C1289 C 0.83437 0.36575 0.89078 0.0
C1290 C 0.81572 0.47347 0.9011 0.0
C1291 C 0.84866 0.49543 0.89221 0.0
N1292 N 0.90446 0.47412 0.86974 0.0
N1293 N 0.77485 0.38866 0.89953 0.0
C1294 C 0.87438 0.45251 0.88249 0.0
C1295 C 0.80782 0.40897 0.89754 0.0
N1296 N 0.89414 0.34528 0.88212 0.0
N1297 N 0.79232 0.51391 0.91398 0.0
H1298 H 0.7681 0.34181 0.89753 0.0
H1299 H 0.75396 0.41862 0.90045 0.0
H1300 H 0.79719 0.56132 0.91703 0.0
H1301 H 0.7692 0.49977 0.92422 0.0
H1302 H 0.91975 0.35804 0.88146 0.0
H1303 H 0.89047 0.29717 0.88344 0.0
H1304 H 0.92268 0.44543 0.85888 0.0
H1305 H 0.90998 0.52145 0.8672 0.0
C1306 C 0.07809 0.60717 0.87871 0.0
C1307 C 0.10641 0.56612 0.87615 0.0
C1308 C 0.14545 0.65544 0.87626 0.0
C1309 C 0.11738 0.69592 0.88196 0.0
N1310 N 0.05753 0.71001 0.89346 0.0
N1311 N 0.16722 0.54947 0.87711 0.0
C1312 C 0.0838 0.67172 0.88445 0.0
C1313 C 0.14018 0.58981 0.87619 0.0
N1314 N 0.04573 0.5847 0.87471 0.0
N1315 N 0.17698 0.67991 0.86993 0.0
H1316 H 0.16434 0.50115 0.87681 0.0
H1317 H 0.19233 0.56353 0.88088 0.0
H1318 H 0.1818 0.72771 0.86966 0.0
H1319 H 0.19771 0.65339 0.86216 0.0
H1320 H 0.02429 0.61316 0.87256 0.0
H1321 H 0.04048 0.53766 0.87081 0.0
H1322 H 0.03323 0.69393 0.89937 0.0
H1323 H 0.06064 0.75759 0.89764 0.0
C1324 C 0.8178 0.65305 0.65725 0.0
C1325 C 0.84565 0.69509 0.65459 0.0
C1326 C 0.88578 0.60752 0.65979 0.0
C1327 C 0.85799 0.56512 0.65913 0.0
N1328 N 0.79777 0.54658 0.65214 0.0
N1329 N 0.90606 0.71195 0.6478 0.0
C1330 C 0.82402 0.58764 0.65646 0.0
C1331 C 0.87965 0.67221 0.65437 0.0
N1332 N 0.78549 0.67564 0.6616 0.0
N1333 N 0.91793 0.58622 0.66671 0.0
H1334 H 0.90264 0.7596 0.64365 0.0
H1335 H 0.93096 0.69698 0.64363 0.0
H1336 H 0.92349 0.53926 0.67092 0.0
H1337 H 0.93855 0.61554 0.67115 0.0
H1338 H 0.76462 0.64752 0.66717 0.0
H1339 H 0.77994 0.72317 0.66254 0.0
H1340 H 0.77294 0.56027 0.64643 0.0
H1341 H 0.80133 0.4984 0.65148 0.0
C1342 C 0.13586 0.395 0.60313 0.0
C1343 C 0.12036 0.35364 0.62635 0.0
C1344 C 0.09058 0.44317 0.65075 0.0
C1345 C 0.11202 0.48468 0.63286 0.0
N1346 N 0.15527 0.49983 0.59104 0.0
N1347 N 0.06439 0.34166 0.65007 0.0
C1348 C 0.13482 0.46051 0.60881 0.0
C1349 C 0.09218 0.37825 0.64417 0.0
N1350 N 0.1451 0.37349 0.57268 0.0
N1351 N 0.06906 0.46525 0.67457 0.0
H1352 H 0.0625 0.29681 0.64034 0.0
H1353 H 0.04179 0.3586 0.66022 0.0
H1354 H 0.0671 0.51245 0.68035 0.0
H1355 H 0.05545 0.43585 0.69042 0.0
H1356 H 0.15391 0.40235 0.55364 0.0
H1357 H 0.13817 0.32898 0.56486 0.0
H1358 H 0.17468 0.48374 0.57564 0.0
H1359 H 0.15437 0.54818 0.5935 0.0
C1360 C 0.63746 0.10225 0.11131 0.0
C1361 C 0.61535 0.07734 0.13592 0.0
C1362 C 0.60512 0.18273 0.15737 0.0
C1363 C 0.6297 0.20677 0.13488 0.0
N1364 N 0.67188 0.18968 0.0925 0.0
N1365 N 0.58188 0.092 0.18546 0.0
C1366 C 0.64658 0.16656 0.11236 0.0
C1367 C 0.60004 0.11715 0.1597 0.0
N1368 N 0.64892 0.06472 0.0864 0.0
N1369 N 0.58634 0.22274 0.17632 0.0
H1370 H 0.57766 0.04427 0.18822 0.0
H1371 H 0.57336 0.11768 0.20565 0.0
H1372 H 0.59002 0.27088 0.1761 0.0
H1373 H 0.56532 0.20895 0.19028 0.0
H1374 H 0.66217 0.08112 0.06577 0.0
H1375 H 0.64286 1.01748 0.085 0.0
H1376 H 0.68796 0.16182 0.07838 0.0
H1377 H 0.67828 0.23685 0.09171 0.0
C1378 C 0.36983 0.90435 0.13613 0.0
C1379 C 0.33972 0.88112 0.15132 0.0
C1380 C 0.32207 0.98823 0.16444 0.0
C1381 C 0.35379 1.01067 0.15243 0.0
N1382 N 0.40973 0.99009 0.13025 0.0
N1383 N 0.28913 0.8996 0.18384 0.0
C1384 C 0.37817 0.96871 0.1391 0.0
C1385 C 0.31626 0.92276 0.16642 0.0
N1386 N 0.38995 0.86516 0.11802 0.0
N1387 N 0.29725 1.02968 0.17339 0.0
H1388 H 0.28402 0.85205 0.18597 0.0
H1389 H 0.27323 0.92695 0.19844 0.0
H1390 H 0.30079 0.07786 0.17257 0.0
H1391 H 0.2723 1.01674 0.17892 0.0
H1392 H 0.41019 0.88033 0.10339 0.0
H1393 H 0.38468 0.81782 0.11534 0.0
H1394 H 0.42998 0.96095 0.12409 0.0
H1395 H 0.41652 0.03702 0.13132 0.0
C1396 C 0.59499 0.95028 0.38211 0.0
C1397 C 0.62109 0.99401 0.38943 0.0
C1398 C 0.66235 0.90831 0.39613 0.0
C1399 C 0.63578 0.86464 0.3906 0.0
N1400 N 0.57581 0.84289 0.38473 0.0
N1401 N 0.67802 1.01499 0.409 0.0
C1402 C 0.60176 0.88537 0.38562 0.0
C1403 C 0.65435 0.97306 0.39811 0.0
N1404 N 0.56417 0.97064 0.37026 0.0
N1405 N 0.69536 0.88802 0.3984 0.0
H1406 H 0.67299 0.06263 0.41074 0.0
H1407 H 0.7016 1.00225 0.41886 0.0
H1408 H 0.70205 0.84095 0.39786 0.0
H1409 H 0.71632 0.91775 0.39857 0.0
H1410 H 0.54555 0.941 0.3609 0.0
H1411 H 0.55815 1.01767 0.36712 0.0
H1412 H 0.55012 0.85525 0.38483 0.0
H1413 H 0.57986 0.79495 0.38683 0.0
C1414 C 0.38591 0.12193 0.38368 0.0
C1415 C 0.36087 0.07898 0.39503 0.0
C1416 C 0.3203 0.16545 0.40227 0.0
C1417 C 0.34634 0.2087 0.3938 0.0
N1418 N 0.40553 0.22909 0.38195 0.0
N1419 N 0.30607 0.06048 0.42029 0.0
C1420 C 0.37963 0.18717 0.3861 0.0
C1421 C 0.32853 0.10094 0.40577 0.0
N1422 N 0.41517 0.10041 0.3693 0.0
N1423 N 0.28745 0.18571 0.4059 0.0
H1424 H 0.31122 1.01308 0.42338 0.0
H1425 H 0.28363 0.07464 0.43181 0.0
H1426 H 0.28044 0.2325 0.40374 0.0
H1427 H 0.26673 0.15574 0.40832 0.0
H1428 H 0.43266 0.12923 0.35731 0.0
H1429 H 0.42059 0.05311 0.36662 0.0
H1430 H 0.43106 0.2162 0.37993 0.0
H1431 H 0.40192 0.27718 0.38344 0.0
C1432 C 0.31135 0.902 0.89091 0.0
C1433 C 0.33873 0.85898 0.89455 0.0
C1434 C 0.37956 0.94551 0.89588 0.0
C1435 C 0.35202 0.98861 0.89477 0.0
N1436 N 0.29155 1.0087 0.89659 0.0
N1437 N 0.3981 0.83919 0.90623 0.0
C1438 C 0.31782 0.96706 0.89381 0.0
C1439 C 0.37264 0.88061 0.89869 0.0
N1440 N 0.27936 0.88074 0.88363 0.0
N1441 N 0.41236 0.96649 0.89306 0.0
H1442 H 0.39402 0.79128 0.90834 0.0
H1443 H 0.42259 0.85259 0.91318 0.0
H1444 H 0.41853 1.01363 0.89098 0.0
H1445 H 0.43327 0.93714 0.88998 0.0
H1446 H 0.25912 0.90983 0.87707 0.0
H1447 H 0.27356 0.83349 0.88161 0.0
H1448 H 0.26619 0.99555 0.89967 0.0
H1449 H 0.29534 0.05666 0.89852 0.0
C1450 C 0.65823 0.14926 0.87654 0.0
C1451 C 0.63646 0.19049 0.89414 0.0
C1452 C 0.59939 0.10247 0.90939 0.0
C1453 C 0.62181 0.06104 0.89279 0.0
N1454 N 0.67597 0.04243 0.86658 0.0
N1455 N 0.59069 0.20494 0.93318 0.0
C1456 C 0.65236 0.08373 0.87829 0.0
C1457 C 0.60834 0.16657 0.91237 0.0
N1458 N 0.68355 0.17287 0.85685 0.0
N1459 N 0.56893 0.08099 0.92129 0.0
H1460 H 0.59667 0.25196 0.93609 0.0
H1461 H 0.57221 0.18918 0.94973 0.0
H1462 H 0.56185 0.03419 0.92037 0.0
H1463 H 0.54968 0.11002 0.93002 0.0
H1464 H 0.69784 0.14593 0.84057 0.0
H1465 H 0.68866 0.22041 0.85479 0.0
H1466 H 0.70033 0.05533 0.85892 0.0
H1467 H 0.67229 0.99428 0.86726 0.0
C1468 C 0.32657 0.08315 0.66166 0.0
C1469 C 0.36052 0.06004 0.66114 0.0
C1470 C 0.38205 0.16648 0.65239 0.0
C1471 C 0.34839 0.1901 0.65579 0.0
N1472 N 0.28918 0.17227 0.6689 0.0
N1473 N 0.42104 0.08002 0.66135 0.0
C1474 C 0.32077 0.14874 0.66186 0.0
C1475 C 0.38842 0.10183 0.65797 0.0
N1476 N 0.29983 0.04232 0.66103 0.0
N1477 N 0.40778 0.20548 0.64272 0.0
H1478 H 0.42678 1.03303 0.66521 0.0
H1479 H 0.44227 0.10893 0.66305 0.0
H1480 H 0.40417 0.25307 0.6385 0.0
H1481 H 0.43203 0.18998 0.63619 0.0
H1482 H 0.27456 0.05605 0.65771 0.0
H1483 H 0.3031 0.99405 0.66107 0.0
H1484 H 0.26885 0.14499 0.67699 0.0
H1485 H 0.28396 0.21995 0.66942 0.0
C1486 C 0.66307 0.90739 0.63612 0.0
C1487 C 0.6369 0.86294 0.64203 0.0
C1488 C 0.59573 0.94803 0.6505 0.0
C1489 C 0.62125 0.99246 0.64214 0.0
N1490 N 0.67779 1.01423 0.62178 0.0
N1491 N 0.57715 0.84023 0.64895 0.0
C1492 C 0.65456 0.97203 0.63347 0.0
C1493 C 0.60286 0.88314 0.64743 0.0
N1494 N 0.69624 0.88801 0.6341 0.0
N1495 N 0.56511 0.96773 0.66283 0.0
H1496 H 0.58139 0.79236 0.64706 0.0
H1497 H 0.5514 0.85219 0.64914 0.0
H1498 H 0.55894 1.01464 0.66586 0.0
H1499 H 0.54695 0.93767 0.67284 0.0
H1500 H 0.71692 0.91838 0.63363 0.0
H1501 H 0.70335 0.84117 0.63539 0.0
H1502 H 0.7013 1.00173 0.61183 0.0
H1503 H 0.67245 0.06171 0.61944 0.0
loop_
_geom_bond_atom_site_label_1
_geom_bond_atom_site_label_2
_geom_bond_distance
_geom_bond_site_symmetry_2
_ccdc_geom_bond_type
Ho0 C3 2.811 1_545 S
Ho0 O20 2.322 . S
Ho0 O22 2.378 1_545 S
Ho0 O23 2.524 1_545 S
Ho0 O24 2.381 . S
Ho0 O25 2.669 . S
Ho0 O27 2.346 . S
Ho0 O31 2.305 . S
Ho1 C12 2.811 . S
Ho1 O21 2.346 . S
Ho1 O25 2.305 . S
Ho1 O26 2.322 . S
Ho1 O28 2.378 . S
Ho1 O29 2.524 . S
Ho1 O30 2.381 . S
Ho1 O31 2.669 . S
C2 O20 1.259 . S
C2 O21 1.268 . S
C3 Ho0 2.811 1_565 S
C3 C4 1.488 . S
C3 O22 1.215 . S
C3 O23 1.289 . S
C4 C3 1.488 . S
C4 C5 1.348 . S
C4 C9 1.413 . S
C5 C4 1.348 . S
C5 C6 1.442 . S
C5 H32 0.930 . S
C6 C5 1.442 . S
C6 C7 1.381 . S
C6 H33 0.931 . S
C7 C6 1.381 . S
C7 C8 1.321 . S
C8 C7 1.321 . S
C8 C9 1.403 . S
C8 H34 0.934 . S
C9 C4 1.413 . S
C9 C8 1.403 . S
C9 H35 0.930 . S
C10 O24 1.275 . S
C10 O25 1.256 . S
C11 O26 1.259 . S
C11 O27 1.268 . S
C12 Ho1 2.811 . S
C12 C13 1.488 . S
C12 O28 1.215 . S
C12 O29 1.289 . S
C13 C12 1.488 . S
C13 C14 1.348 . S
C13 C18 1.413 . S
C14 C13 1.348 . S
C14 C15 1.442 . S
C14 H36 0.930 . S
C15 C14 1.442 . S
C15 C16 1.381 . S
C15 H37 0.931 . S
C16 C15 1.381 . S
C16 C17 1.321 . S
C17 C16 1.321 . S
C17 C18 1.403 . S
C17 H38 0.934 . S
C18 C13 1.413 . S
C18 C17 1.403 . S
C18 H39 0.930 . S
C19 O30 1.275 . S
C19 O31 1.256 . S
O20 Ho0 2.322 . S
O20 C2 1.259 . S
O21 Ho1 2.346 . S
O21 C2 1.268 . S
O22 Ho0 2.378 1_565 S
O22 C3 1.215 . S
O23 Ho0 2.524 1_565 S
O23 C3 1.289 . S
O24 Ho0 2.381 . S
O24 C10 1.275 . S
O25 Ho0 2.669 . S
O25 Ho1 2.305 . S
O25 C10 1.256 . S
O26 Ho1 2.322 . S
O26 C11 1.259 . S
O27 Ho0 2.346 . S
O27 C11 1.268 . S
O28 Ho1 2.378 . S
O28 C12 1.215 . S
O29 Ho1 2.524 . S
O29 C12 1.289 . S
O30 Ho1 2.381 . S
O30 C19 1.275 . S
O31 Ho0 2.305 . S
O31 Ho1 2.669 . S
O31 C19 1.256 . S
H32 C5 0.930 . S
H33 C6 0.931 . S
H34 C8 0.934 . S
H35 C9 0.930 . S
H36 C14 0.930 . S
H37 C15 0.931 . S
H38 C17 0.934 . S
H39 C18 0.930 . S
Ho40 C43 2.811 1_565 S
Ho40 O60 2.322 . S
Ho40 O62 2.378 1_565 S
Ho40 O63 2.524 1_565 S
Ho40 O64 2.381 . S
Ho40 O65 2.669 . S
Ho40 O67 2.346 . S
Ho40 O71 2.305 . S
Ho41 C52 2.811 . S
Ho41 O61 2.346 . S
Ho41 O65 2.305 . S
Ho41 O66 2.322 . S
Ho41 O68 2.378 . S
Ho41 O69 2.524 . S
Ho41 O70 2.381 . S
Ho41 O71 2.669 . S
C42 O60 1.259 . S
C42 O61 1.268 . S
C43 Ho40 2.811 1_545 S
C43 C44 1.488 . S
C43 O62 1.215 . S
C43 O63 1.289 . S
C44 C43 1.488 . S
C44 C45 1.348 . S
C44 C49 1.413 . S
C45 C44 1.348 . S
C45 C46 1.442 . S
C45 H72 0.930 . S
C46 C45 1.442 . S
C46 C47 1.381 . S
C46 H73 0.931 . S
C47 C46 1.381 . S
C47 C48 1.321 . S
C48 C47 1.321 . S
C48 C49 1.403 . S
C48 H74 0.934 . S
C49 C44 1.413 . S
C49 C48 1.403 . S
C49 H75 0.930 . S
C50 O64 1.275 . S
C50 O65 1.256 . S
C51 O66 1.259 . S
C51 O67 1.268 . S
C52 Ho41 2.811 . S
C52 C53 1.488 . S
C52 O68 1.215 . S
C52 O69 1.289 . S
C53 C52 1.488 . S
C53 C54 1.348 . S
C53 C58 1.413 . S
C54 C53 1.348 . S
C54 C55 1.442 . S
C54 H76 0.930 . S
C55 C54 1.442 . S
C55 C56 1.381 . S
C55 H77 0.931 . S
C56 C55 1.381 . S
C56 C57 1.321 . S
C57 C56 1.321 . S
C57 C58 1.403 . S
C57 H78 0.934 . S
C58 C53 1.413 . S
C58 C57 1.403 . S
C58 H79 0.930 . S
C59 O70 1.275 . S
C59 O71 1.256 . S
O60 Ho40 2.322 . S
O60 C42 1.259 . S
O61 Ho41 2.346 . S
O61 C42 1.268 . S
O62 Ho40 2.378 1_545 S
O62 C43 1.215 . S
O63 Ho40 2.524 1_545 S
O63 C43 1.289 . S
O64 Ho40 2.381 . S
O64 C50 1.275 . S
O65 Ho40 2.669 . S
O65 Ho41 2.305 . S
O65 C50 1.256 . S
O66 Ho41 2.322 . S
O66 C51 1.259 . S
O67 Ho40 2.346 . S
O67 C51 1.268 . S
O68 Ho41 2.378 . S
O68 C52 1.215 . S
O69 Ho41 2.524 . S
O69 C52 1.289 . S
O70 Ho41 2.381 . S
O70 C59 1.275 . S
O71 Ho40 2.305 . S
O71 Ho41 2.669 . S
O71 C59 1.256 . S
H72 C45 0.930 . S
H73 C46 0.931 . S
H74 C48 0.934 . S
H75 C49 0.930 . S
H76 C54 0.930 . S
H77 C55 0.931 . S
H78 C57 0.934 . S
H79 C58 0.930 . S
Ho80 C83 2.811 1_565 S
Ho80 O100 2.322 . S
Ho80 O102 2.378 1_565 S
Ho80 O103 2.524 1_565 S
Ho80 O104 2.381 . S
Ho80 O105 2.669 . S
Ho80 O107 2.346 . S
Ho80 O111 2.305 . S
Ho81 C92 2.811 . S
Ho81 O101 2.346 . S
Ho81 O105 2.305 . S
Ho81 O106 2.322 . S
Ho81 O108 2.378 . S
Ho81 O109 2.524 . S
Ho81 O110 2.381 . S
Ho81 O111 2.669 . S
C82 O100 1.259 . S
C82 O101 1.268 . S
C83 Ho80 2.811 1_545 S
C83 C84 1.488 . S
C83 O102 1.215 . S
C83 O103 1.289 . S
C84 C83 1.488 . S
C84 C85 1.348 . S
C84 C89 1.413 . S
C85 C84 1.348 . S
C85 C86 1.442 . S
C85 H112 0.930 . S
C86 C85 1.442 . S
C86 C87 1.381 . S
C86 H113 0.931 . S
C87 C86 1.381 . S
C87 C88 1.321 . S
C88 C87 1.321 . S
C88 C89 1.403 . S
C88 H114 0.934 . S
C89 C84 1.413 . S
C89 C88 1.403 . S
C89 H115 0.930 . S
C90 O104 1.275 . S
C90 O105 1.256 . S
C91 O106 1.259 . S
C91 O107 1.268 . S
C92 Ho81 2.811 . S
C92 C93 1.488 . S
C92 O108 1.215 . S
C92 O109 1.289 . S
C93 C92 1.488 . S
C93 C94 1.348 . S
C93 C98 1.413 . S
C94 C93 1.348 . S
C94 C95 1.442 . S
C94 H116 0.930 . S
C95 C94 1.442 . S
C95 C96 1.381 . S
C95 H117 0.931 . S
C96 C95 1.381 . S
C96 C97 1.321 . S
C97 C96 1.321 . S
C97 C98 1.403 . S
C97 H118 0.934 . S
C98 C93 1.413 . S
C98 C97 1.403 . S
C98 H119 0.930 . S
C99 O110 1.275 . S
C99 O111 1.256 . S
O100 Ho80 2.322 . S
O100 C82 1.259 . S
O101 Ho81 2.346 . S
O101 C82 1.268 . S
O102 Ho80 2.378 1_545 S
O102 C83 1.215 . S
O103 Ho80 2.524 1_545 S
O103 C83 1.289 . S
O104 Ho80 2.381 . S
O104 C90 1.275 . S
O105 Ho80 2.669 . S
O105 Ho81 2.305 . S
O105 C90 1.256 . S
O106 Ho81 2.322 . S
O106 C91 1.259 . S
O107 Ho80 2.346 . S
O107 C91 1.268 . S
O108 Ho81 2.378 . S
O108 C92 1.215 . S
O109 Ho81 2.524 . S
O109 C92 1.289 . S
O110 Ho81 2.381 . S
O110 C99 1.275 . S
O111 Ho80 2.305 . S
O111 Ho81 2.669 . S
O111 C99 1.256 . S
H112 C85 0.930 . S
H113 C86 0.931 . S
H114 C88 0.934 . S
H115 C89 0.930 . S
H116 C94 0.930 . S
H117 C95 0.931 . S
H118 C97 0.934 . S
H119 C98 0.930 . S
Ho120 C123 2.811 1_545 S
Ho120 O140 2.322 . S
Ho120 O142 2.378 1_545 S
Ho120 O143 2.524 1_545 S
Ho120 O144 2.381 . S
Ho120 O145 2.669 . S
Ho120 O147 2.346 . S
Ho120 O151 2.305 . S
Ho121 C132 2.811 . S
Ho121 O141 2.346 . S
Ho121 O145 2.305 . S
Ho121 O146 2.322 . S
Ho121 O148 2.378 . S
Ho121 O149 2.524 . S
Ho121 O150 2.381 . S
Ho121 O151 2.669 . S
C122 O140 1.259 . S
C122 O141 1.268 . S
C123 Ho120 2.811 1_565 S
C123 C124 1.488 . S
C123 O142 1.215 . S
C123 O143 1.289 . S
C124 C123 1.488 . S
C124 C125 1.348 . S
C124 C129 1.413 . S
C125 C124 1.348 . S
C125 C126 1.442 . S
C125 H152 0.930 . S
C126 C125 1.442 . S
C126 C127 1.381 . S
C126 H153 0.931 . S
C127 C126 1.381 . S
C127 C128 1.321 . S
C128 C127 1.321 . S
C128 C129 1.403 . S
C128 H154 0.934 . S
C129 C124 1.413 . S
C129 C128 1.403 . S
C129 H155 0.930 . S
C130 O144 1.275 . S
C130 O145 1.256 . S
C131 O146 1.259 . S
C131 O147 1.268 . S
C132 Ho121 2.811 . S
C132 C133 1.488 . S
C132 O148 1.215 . S
C132 O149 1.289 . S
C133 C132 1.488 . S
C133 C134 1.348 . S
C133 C138 1.413 . S
C134 C133 1.348 . S
C134 C135 1.442 . S
C134 H156 0.930 . S
C135 C134 1.442 . S
C135 C136 1.381 . S
C135 H157 0.931 . S
C136 C135 1.381 . S
C136 C137 1.321 . S
C137 C136 1.321 . S
C137 C138 1.403 . S
C137 H158 0.934 . S
C138 C133 1.413 . S
C138 C137 1.403 . S
C138 H159 0.930 . S
C139 O150 1.275 . S
C139 O151 1.256 . S
O140 Ho120 2.322 . S
O140 C122 1.259 . S
O141 Ho121 2.346 . S
O141 C122 1.268 . S
O142 Ho120 2.378 1_565 S
O142 C123 1.215 . S
O143 Ho120 2.524 1_565 S
O143 C123 1.289 . S
O144 Ho120 2.381 . S
O144 C130 1.275 . S
O145 Ho120 2.669 . S
O145 Ho121 2.305 . S
O145 C130 1.256 . S
O146 Ho121 2.322 . S
O146 C131 1.259 . S
O147 Ho120 2.346 . S
O147 C131 1.268 . S
O148 Ho121 2.378 . S
O148 C132 1.215 . S
O149 Ho121 2.524 . S
O149 C132 1.289 . S
O150 Ho121 2.381 . S
O150 C139 1.275 . S
O151 Ho120 2.305 . S
O151 Ho121 2.669 . S
O151 C139 1.256 . S
H152 C125 0.930 . S
H153 C126 0.931 . S
H154 C128 0.934 . S
H155 C129 0.930 . S
H156 C134 0.930 . S
H157 C135 0.931 . S
H158 C137 0.934 . S
H159 C138 0.930 . S
Ho160 C163 2.811 . S
Ho160 O180 2.322 . S
Ho160 O182 2.378 . S
Ho160 O183 2.524 . S
Ho160 O184 2.381 . S
Ho160 O185 2.669 . S
Ho160 O187 2.346 . S
Ho160 O191 2.305 . S
Ho161 C172 2.811 1_565 S
Ho161 O181 2.346 . S
Ho161 O185 2.305 . S
Ho161 O186 2.322 . S
Ho161 O188 2.378 1_565 S
Ho161 O189 2.524 1_565 S
Ho161 O190 2.381 . S
Ho161 O191 2.669 . S
C162 O180 1.259 . S
C162 O181 1.268 . S
C163 Ho160 2.811 . S
C163 C164 1.488 . S
C163 O182 1.215 . S
C163 O183 1.289 . S
C164 C163 1.488 . S
C164 C165 1.348 . S
C164 C169 1.413 . S
C165 C164 1.348 . S
C165 C166 1.442 . S
C165 H192 0.930 . S
C166 C165 1.442 . S
C166 C167 1.381 . S
C166 H193 0.931 . S
C167 C166 1.381 . S
C167 C168 1.321 . S
C168 C167 1.321 . S
C168 C169 1.403 . S
C168 H194 0.934 . S
C169 C164 1.413 . S
C169 C168 1.403 . S
C169 H195 0.930 . S
C170 O184 1.275 . S
C170 O185 1.256 . S
C171 O186 1.259 . S
C171 O187 1.268 . S
C172 Ho161 2.811 1_545 S
C172 C173 1.488 . S
C172 O188 1.215 . S
C172 O189 1.289 . S
C173 C172 1.488 . S
C173 C174 1.348 . S
C173 C178 1.413 . S
C174 C173 1.348 . S
C174 C175 1.442 . S
C174 H196 0.930 . S
C175 C174 1.442 . S
C175 C176 1.381 . S
C175 H197 0.931 . S
C176 C175 1.381 . S
C176 C177 1.321 . S
C177 C176 1.321 . S
C177 C178 1.403 . S
C177 H198 0.934 . S
C178 C173 1.413 . S
C178 C177 1.403 . S
C178 H199 0.930 . S
C179 O190 1.275 . S
C179 O191 1.256 . S
O180 Ho160 2.322 . S
O180 C162 1.259 . S
O181 Ho161 2.346 . S
O181 C162 1.268 . S
O182 Ho160 2.378 . S
O182 C163 1.215 . S
O183 Ho160 2.524 . S
O183 C163 1.289 . S
O184 Ho160 2.381 . S
O184 C170 1.275 . S
O185 Ho160 2.669 . S
O185 Ho161 2.305 . S
O185 C170 1.256 . S
O186 Ho161 2.322 . S
O186 C171 1.259 . S
O187 Ho160 2.346 . S
O187 C171 1.268 . S
O188 Ho161 2.378 1_545 S
O188 C172 1.215 . S
O189 Ho161 2.524 1_545 S
O189 C172 1.289 . S
O190 Ho161 2.381 . S
O190 C179 1.275 . S
O191 Ho160 2.305 . S
O191 Ho161 2.669 . S
O191 C179 1.256 . S
H192 C165 0.930 . S
H193 C166 0.931 . S
H194 C168 0.934 . S
H195 C169 0.930 . S
H196 C174 0.930 . S
H197 C175 0.931 . S
H198 C177 0.934 . S
H199 C178 0.930 . S
Ho200 C203 2.811 . S
Ho200 O220 2.322 . S
Ho200 O222 2.378 . S
Ho200 O223 2.524 . S
Ho200 O224 2.381 . S
Ho200 O225 2.669 . S
Ho200 O227 2.346 . S
Ho200 O231 2.305 . S
Ho201 C212 2.811 1_545 S
Ho201 O221 2.346 . S
Ho201 O225 2.305 . S
Ho201 O226 2.322 . S
Ho201 O228 2.378 1_545 S
Ho201 O229 2.524 1_545 S
Ho201 O230 2.381 . S
Ho201 O231 2.669 . S
C202 O220 1.259 . S
C202 O221 1.268 . S
C203 Ho200 2.811 . S
C203 C204 1.488 . S
C203 O222 1.215 . S
C203 O223 1.289 . S
C204 C203 1.488 . S
C204 C205 1.348 . S
C204 C209 1.413 . S
C205 C204 1.348 . S
C205 C206 1.442 . S
C205 H232 0.930 . S
C206 C205 1.442 . S
C206 C207 1.381 . S
C206 H233 0.931 . S
C207 C206 1.381 . S
C207 C208 1.321 . S
C208 C207 1.321 . S
C208 C209 1.403 . S
C208 H234 0.934 . S
C209 C204 1.413 . S
C209 C208 1.403 . S
C209 H235 0.930 . S
C210 O224 1.275 . S
C210 O225 1.256 . S
C211 O226 1.259 . S
C211 O227 1.268 . S
C212 Ho201 2.811 1_565 S
C212 C213 1.488 . S
C212 O228 1.215 . S
C212 O229 1.289 . S
C213 C212 1.488 . S
C213 C214 1.348 . S
C213 C218 1.413 . S
C214 C213 1.348 . S
C214 C215 1.442 . S
C214 H236 0.930 . S
C215 C214 1.442 . S
C215 C216 1.381 . S
C215 H237 0.931 . S
C216 C215 1.381 . S
C216 C217 1.321 . S
C217 C216 1.321 . S
C217 C218 1.403 . S
C217 H238 0.934 . S
C218 C213 1.413 . S
C218 C217 1.403 . S
C218 H239 0.930 . S
C219 O230 1.275 . S
C219 O231 1.256 . S
O220 Ho200 2.322 . S
O220 C202 1.259 . S
O221 Ho201 2.346 . S
O221 C202 1.268 . S
O222 Ho200 2.378 . S
O222 C203 1.215 . S
O223 Ho200 2.524 . S
O223 C203 1.289 . S
O224 Ho200 2.381 . S
O224 C210 1.275 . S
O225 Ho200 2.669 . S
O225 Ho201 2.305 . S
O225 C210 1.256 . S
O226 Ho201 2.322 . S
O226 C211 1.259 . S
O227 Ho200 2.346 . S
O227 C211 1.268 . S
O228 Ho201 2.378 1_565 S
O228 C212 1.215 . S
O229 Ho201 2.524 1_565 S
O229 C212 1.289 . S
O230 Ho201 2.381 . S
O230 C219 1.275 . S
O231 Ho200 2.305 . S
O231 Ho201 2.669 . S
O231 C219 1.256 . S
H232 C205 0.930 . S
H233 C206 0.931 . S
H234 C208 0.934 . S
H235 C209 0.930 . S
H236 C214 0.930 . S
H237 C215 0.931 . S
H238 C217 0.934 . S
H239 C218 0.930 . S
Ho240 C243 2.811 . S
Ho240 O260 2.322 . S
Ho240 O262 2.378 . S
Ho240 O263 2.524 . S
Ho240 O264 2.381 . S
Ho240 O265 2.669 . S
Ho240 O267 2.346 . S
Ho240 O271 2.305 . S
Ho241 C252 2.811 1_545 S
Ho241 O261 2.346 . S
Ho241 O265 2.305 . S
Ho241 O266 2.322 . S
Ho241 O268 2.378 1_545 S
Ho241 O269 2.524 1_545 S
Ho241 O270 2.381 . S
Ho241 O271 2.669 . S
C242 O260 1.259 . S
C242 O261 1.268 . S
C243 Ho240 2.811 . S
C243 C244 1.488 . S
C243 O262 1.215 . S
C243 O263 1.289 . S
C244 C243 1.488 . S
C244 C245 1.348 . S
C244 C249 1.413 . S
C245 C244 1.348 . S
C245 C246 1.442 . S
C245 H272 0.930 . S
C246 C245 1.442 . S
C246 C247 1.381 . S
C246 H273 0.931 . S
C247 C246 1.381 . S
C247 C248 1.321 . S
C248 C247 1.321 . S
C248 C249 1.403 . S
C248 H274 0.934 . S
C249 C244 1.413 . S
C249 C248 1.403 . S
C249 H275 0.930 . S
C250 O264 1.275 . S
C250 O265 1.256 . S
C251 O266 1.259 . S
C251 O267 1.268 . S
C252 Ho241 2.811 1_565 S
C252 C253 1.488 . S
C252 O268 1.215 . S
C252 O269 1.289 . S
C253 C252 1.488 . S
C253 C254 1.348 . S
C253 C258 1.413 . S
C254 C253 1.348 . S
C254 C255 1.442 . S
C254 H276 0.930 . S
C255 C254 1.442 . S
C255 C256 1.381 . S
C255 H277 0.931 . S
C256 C255 1.381 . S
C256 C257 1.321 . S
C257 C256 1.321 . S
C257 C258 1.403 . S
C257 H278 0.934 . S
C258 C253 1.413 . S
C258 C257 1.403 . S
C258 H279 0.930 . S
C259 O270 1.275 . S
C259 O271 1.256 . S
O260 Ho240 2.322 . S
O260 C242 1.259 . S
O261 Ho241 2.346 . S
O261 C242 1.268 . S
O262 Ho240 2.378 . S
O262 C243 1.215 . S
O263 Ho240 2.524 . S
O263 C243 1.289 . S
O264 Ho240 2.381 . S
O264 C250 1.275 . S
O265 Ho240 2.669 . S
O265 Ho241 2.305 . S
O265 C250 1.256 . S
O266 Ho241 2.322 . S
O266 C251 1.259 . S
O267 Ho240 2.346 . S
O267 C251 1.268 . S
O268 Ho241 2.378 1_565 S
O268 C252 1.215 . S
O269 Ho241 2.524 1_565 S
O269 C252 1.289 . S
O270 Ho241 2.381 . S
O270 C259 1.275 . S
O271 Ho240 2.305 . S
O271 Ho241 2.669 . S
O271 C259 1.256 . S
H272 C245 0.930 . S
H273 C246 0.931 . S
H274 C248 0.934 . S
H275 C249 0.930 . S
H276 C254 0.930 . S
H277 C255 0.931 . S
H278 C257 0.934 . S
H279 C258 0.930 . S
Ho280 C283 2.811 . S
Ho280 O300 2.322 . S
Ho280 O302 2.378 . S
Ho280 O303 2.524 . S
Ho280 O304 2.381 . S
Ho280 O305 2.669 . S
Ho280 O307 2.346 . S
Ho280 O311 2.305 . S
Ho281 C292 2.811 1_565 S
Ho281 O301 2.346 . S
Ho281 O305 2.305 . S
Ho281 O306 2.322 . S
Ho281 O308 2.378 1_565 S
Ho281 O309 2.524 1_565 S
Ho281 O310 2.381 . S
Ho281 O311 2.669 . S
C282 O300 1.259 . S
C282 O301 1.268 . S
C283 Ho280 2.811 . S
C283 C284 1.488 . S
C283 O302 1.215 . S
C283 O303 1.289 . S
C284 C283 1.488 . S
C284 C285 1.348 . S
C284 C289 1.413 . S
C285 C284 1.348 . S
C285 C286 1.442 . S
C285 H312 0.930 . S
C286 C285 1.442 . S
C286 C287 1.381 . S
C286 H313 0.931 . S
C287 C286 1.381 . S
C287 C288 1.321 . S
C288 C287 1.321 . S
C288 C289 1.403 . S
C288 H314 0.934 . S
C289 C284 1.413 . S
C289 C288 1.403 . S
C289 H315 0.930 . S
C290 O304 1.275 . S
C290 O305 1.256 . S
C291 O306 1.259 . S
C291 O307 1.268 . S
C292 Ho281 2.811 1_545 S
C292 C293 1.488 . S
C292 O308 1.215 . S
C292 O309 1.289 . S
C293 C292 1.488 . S
C293 C294 1.348 . S
C293 C298 1.413 . S
C294 C293 1.348 . S
C294 C295 1.442 . S
C294 H316 0.930 . S
C295 C294 1.442 . S
C295 C296 1.381 . S
C295 H317 0.931 . S
C296 C295 1.381 . S
C296 C297 1.321 . S
C297 C296 1.321 . S
C297 C298 1.403 . S
C297 H318 0.934 . S
C298 C293 1.413 . S
C298 C297 1.403 . S
C298 H319 0.930 . S
C299 O310 1.275 . S
C299 O311 1.256 . S
O300 Ho280 2.322 . S
O300 C282 1.259 . S
O301 Ho281 2.346 . S
O301 C282 1.268 . S
O302 Ho280 2.378 . S
O302 C283 1.215 . S
O303 Ho280 2.524 . S
O303 C283 1.289 . S
O304 Ho280 2.381 . S
O304 C290 1.275 . S
O305 Ho280 2.669 . S
O305 Ho281 2.305 . S
O305 C290 1.256 . S
O306 Ho281 2.322 . S
O306 C291 1.259 . S
O307 Ho280 2.346 . S
O307 C291 1.268 . S
O308 Ho281 2.378 1_545 S
O308 C292 1.215 . S
O309 Ho281 2.524 1_545 S
O309 C292 1.289 . S
O310 Ho281 2.381 . S
O310 C299 1.275 . S
O311 Ho280 2.305 . S
O311 Ho281 2.669 . S
O311 C299 1.256 . S
H312 C285 0.930 . S
H313 C286 0.931 . S
H314 C288 0.934 . S
H315 C289 0.930 . S
H316 C294 0.930 . S
H317 C295 0.931 . S
H318 C297 0.934 . S
H319 C298 0.930 . S
Ho320 C323 2.811 . S
Ho320 O340 2.322 . S
Ho320 O342 2.378 . S
Ho320 O343 2.524 . S
Ho320 O344 2.381 . S
Ho320 O345 2.669 . S
Ho320 O347 2.346 . S
Ho320 O351 2.305 . S
Ho321 C332 2.811 . S
Ho321 O341 2.346 . S
Ho321 O345 2.305 . S
Ho321 O346 2.322 . S
Ho321 O348 2.378 . S
Ho321 O349 2.524 . S
Ho321 O350 2.381 . S
Ho321 O351 2.669 . S
C322 O340 1.259 . S
C322 O341 1.268 . S
C323 Ho320 2.811 . S
C323 C324 1.488 . S
C323 O342 1.215 . S
C323 O343 1.289 . S
C324 C323 1.488 . S
C324 C325 1.348 . S
C324 C329 1.413 . S
C325 C324 1.348 . S
C325 C326 1.442 . S
C325 H352 0.930 . S
C326 C325 1.442 . S
C326 C327 1.381 . S
C326 H353 0.931 . S
C327 C326 1.381 . S
C327 C328 1.321 . S
C328 C327 1.321 . S
C328 C329 1.403 . S
C328 H354 0.934 . S
C329 C324 1.413 . S
C329 C328 1.403 . S
C329 H355 0.930 . S
C330 O344 1.275 . S
C330 O345 1.256 . S
C331 O346 1.259 . S
C331 O347 1.268 . S
C332 Ho321 2.811 . S
C332 C333 1.488 . S
C332 O348 1.215 . S
C332 O349 1.289 . S
C333 C332 1.488 . S
C333 C334 1.348 . S
C333 C338 1.413 . S
C334 C333 1.348 . S
C334 C335 1.442 . S
C334 H356 0.930 . S
C335 C334 1.442 . S
C335 C336 1.381 . S
C335 H357 0.931 . S
C336 C335 1.381 . S
C336 C337 1.321 . S
C337 C336 1.321 . S
C337 C338 1.403 . S
C337 H358 0.934 . S
C338 C333 1.413 . S
C338 C337 1.403 . S
C338 H359 0.930 . S
C339 O350 1.275 . S
C339 O351 1.256 . S
O340 Ho320 2.322 . S
O340 C322 1.259 . S
O341 Ho321 2.346 . S
O341 C322 1.268 . S
O342 Ho320 2.378 . S
O342 C323 1.215 . S
O343 Ho320 2.524 . S
O343 C323 1.289 . S
O344 Ho320 2.381 . S
O344 C330 1.275 . S
O345 Ho320 2.669 . S
O345 Ho321 2.305 . S
O345 C330 1.256 . S
O346 Ho321 2.322 . S
O346 C331 1.259 . S
O347 Ho320 2.346 . S
O347 C331 1.268 . S
O348 Ho321 2.378 . S
O348 C332 1.215 . S
O349 Ho321 2.524 . S
O349 C332 1.289 . S
O350 Ho321 2.381 . S
O350 C339 1.275 . S
O351 Ho320 2.305 . S
O351 Ho321 2.669 . S
O351 C339 1.256 . S
H352 C325 0.930 . S
H353 C326 0.931 . S
H354 C328 0.934 . S
H355 C329 0.930 . S
H356 C334 0.930 . S
H357 C335 0.931 . S
H358 C337 0.934 . S
H359 C338 0.930 . S
Ho360 C363 2.811 . S
Ho360 O380 2.322 . S
Ho360 O382 2.378 . S
Ho360 O383 2.524 . S
Ho360 O384 2.381 . S
Ho360 O385 2.669 . S
Ho360 O387 2.346 . S
Ho360 O391 2.305 . S
Ho361 C372 2.811 . S
Ho361 O381 2.346 . S
Ho361 O385 2.305 . S
Ho361 O386 2.322 . S
Ho361 O388 2.378 . S
Ho361 O389 2.524 . S
Ho361 O390 2.381 . S
Ho361 O391 2.669 . S
C362 O380 1.259 . S
C362 O381 1.268 . S
C363 Ho360 2.811 . S
C363 C364 1.488 . S
C363 O382 1.215 . S
C363 O383 1.289 . S
C364 C363 1.488 . S
C364 C365 1.348 . S
C364 C369 1.413 . S
C365 C364 1.348 . S
C365 C366 1.442 . S
C365 H392 0.930 . S
C366 C365 1.442 . S
C366 C367 1.381 . S
C366 H393 0.931 . S
C367 C366 1.381 . S
C367 C368 1.321 . S
C368 C367 1.321 . S
C368 C369 1.403 . S
C368 H394 0.934 . S
C369 C364 1.413 . S
C369 C368 1.403 . S
C369 H395 0.930 . S
C370 O384 1.275 . S
C370 O385 1.256 . S
C371 O386 1.259 . S
C371 O387 1.268 . S
C372 Ho361 2.811 . S
C372 C373 1.488 . S
C372 O388 1.215 . S
C372 O389 1.289 . S
C373 C372 1.488 . S
C373 C374 1.348 . S
C373 C378 1.413 . S
C374 C373 1.348 . S
C374 C375 1.442 . S
C374 H396 0.930 . S
C375 C374 1.442 . S
C375 C376 1.381 . S
C375 H397 0.931 . S
C376 C375 1.381 . S
C376 C377 1.321 . S
C377 C376 1.321 . S
C377 C378 1.403 . S
C377 H398 0.934 . S
C378 C373 1.413 . S
C378 C377 1.403 . S
C378 H399 0.930 . S
C379 O390 1.275 . S
C379 O391 1.256 . S
O380 Ho360 2.322 . S
O380 C362 1.259 . S
O381 Ho361 2.346 . S
O381 C362 1.268 . S
O382 Ho360 2.378 . S
O382 C363 1.215 . S
O383 Ho360 2.524 . S
O383 C363 1.289 . S
O384 Ho360 2.381 . S
O384 C370 1.275 . S
O385 Ho360 2.669 . S
O385 Ho361 2.305 . S
O385 C370 1.256 . S
O386 Ho361 2.322 . S
O386 C371 1.259 . S
O387 Ho360 2.346 . S
O387 C371 1.268 . S
O388 Ho361 2.378 . S
O388 C372 1.215 . S
O389 Ho361 2.524 . S
O389 C372 1.289 . S
O390 Ho361 2.381 . S
O390 C379 1.275 . S
O391 Ho360 2.305 . S
O391 Ho361 2.669 . S
O391 C379 1.256 . S
H392 C365 0.930 . S
H393 C366 0.931 . S
H394 C368 0.934 . S
H395 C369 0.930 . S
H396 C374 0.930 . S
H397 C375 0.931 . S
H398 C377 0.934 . S
H399 C378 0.930 . S
Ho400 C403 2.811 . S
Ho400 O420 2.322 . S
Ho400 O422 2.378 . S
Ho400 O423 2.524 . S
Ho400 O424 2.381 . S
Ho400 O425 2.669 . S
Ho400 O427 2.346 . S
Ho400 O431 2.305 . S
Ho401 C412 2.811 . S
Ho401 O421 2.346 . S
Ho401 O425 2.305 . S
Ho401 O426 2.322 . S
Ho401 O428 2.378 . S
Ho401 O429 2.524 . S
Ho401 O430 2.381 . S
Ho401 O431 2.669 . S
C402 O420 1.259 . S
C402 O421 1.268 . S
C403 Ho400 2.811 . S
C403 C404 1.488 . S
C403 O422 1.215 . S
C403 O423 1.289 . S
C404 C403 1.488 . S
C404 C405 1.348 . S
C404 C409 1.413 . S
C405 C404 1.348 . S
C405 C406 1.442 . S
C405 H432 0.930 . S
C406 C405 1.442 . S
C406 C407 1.381 . S
C406 H433 0.931 . S
C407 C406 1.381 . S
C407 C408 1.321 . S
C408 C407 1.321 . S
C408 C409 1.403 . S
C408 H434 0.934 . S
C409 C404 1.413 . S
C409 C408 1.403 . S
C409 H435 0.930 . S
C410 O424 1.275 . S
C410 O425 1.256 . S
C411 O426 1.259 . S
C411 O427 1.268 . S
C412 Ho401 2.811 . S
C412 C413 1.488 . S
C412 O428 1.215 . S
C412 O429 1.289 . S
C413 C412 1.488 . S
C413 C414 1.348 . S
C413 C418 1.413 . S
C414 C413 1.348 . S
C414 C415 1.442 . S
C414 H436 0.930 . S
C415 C414 1.442 . S
C415 C416 1.381 . S
C415 H437 0.931 . S
C416 C415 1.381 . S
C416 C417 1.321 . S
C417 C416 1.321 . S
C417 C418 1.403 . S
C417 H438 0.934 . S
C418 C413 1.413 . S
C418 C417 1.403 . S
C418 H439 0.930 . S
C419 O430 1.275 . S
C419 O431 1.256 . S
O420 Ho400 2.322 . S
O420 C402 1.259 . S
O421 Ho401 2.346 . S
O421 C402 1.268 . S
O422 Ho400 2.378 . S
O422 C403 1.215 . S
O423 Ho400 2.524 . S
O423 C403 1.289 . S
O424 Ho400 2.381 . S
O424 C410 1.275 . S
O425 Ho400 2.669 . S
O425 Ho401 2.305 . S
O425 C410 1.256 . S
O426 Ho401 2.322 . S
O426 C411 1.259 . S
O427 Ho400 2.346 . S
O427 C411 1.268 . S
O428 Ho401 2.378 . S
O428 C412 1.215 . S
O429 Ho401 2.524 . S
O429 C412 1.289 . S
O430 Ho401 2.381 . S
O430 C419 1.275 . S
O431 Ho400 2.305 . S
O431 Ho401 2.669 . S
O431 C419 1.256 . S
H432 C405 0.930 . S
H433 C406 0.931 . S
H434 C408 0.934 . S
H435 C409 0.930 . S
H436 C414 0.930 . S
H437 C415 0.931 . S
H438 C417 0.934 . S
H439 C418 0.930 . S
Ho440 C443 2.811 . S
Ho440 O460 2.322 . S
Ho440 O462 2.378 . S
Ho440 O463 2.524 . S
Ho440 O464 2.381 . S
Ho440 O465 2.669 . S
Ho440 O467 2.346 . S
Ho440 O471 2.305 . S
Ho441 C452 2.811 . S
Ho441 O461 2.346 . S
Ho441 O465 2.305 . S
Ho441 O466 2.322 . S
Ho441 O468 2.378 . S
Ho441 O469 2.524 . S
Ho441 O470 2.381 . S
Ho441 O471 2.669 . S
C442 O460 1.259 . S
C442 O461 1.268 . S
C443 Ho440 2.811 . S
C443 C444 1.488 . S
C443 O462 1.215 . S
C443 O463 1.289 . S
C444 C443 1.488 . S
C444 C445 1.348 . S
C444 C449 1.413 . S
C445 C444 1.348 . S
C445 C446 1.442 . S
C445 H472 0.930 . S
C446 C445 1.442 . S
C446 C447 1.381 . S
C446 H473 0.931 . S
C447 C446 1.381 . S
C447 C448 1.321 . S
C448 C447 1.321 . S
C448 C449 1.403 . S
C448 H474 0.934 . S
C449 C444 1.413 . S
C449 C448 1.403 . S
C449 H475 0.930 . S
C450 O464 1.275 . S
C450 O465 1.256 . S
C451 O466 1.259 . S
C451 O467 1.268 . S
C452 Ho441 2.811 . S
C452 C453 1.488 . S
C452 O468 1.215 . S
C452 O469 1.289 . S
C453 C452 1.488 . S
C453 C454 1.348 . S
C453 C458 1.413 . S
C454 C453 1.348 . S
C454 C455 1.442 . S
C454 H476 0.930 . S
C455 C454 1.442 . S
C455 C456 1.381 . S
C455 H477 0.931 . S
C456 C455 1.381 . S
C456 C457 1.321 . S
C457 C456 1.321 . S
C457 C458 1.403 . S
C457 H478 0.934 . S
C458 C453 1.413 . S
C458 C457 1.403 . S
C458 H479 0.930 . S
C459 O470 1.275 . S
C459 O471 1.256 . S
O460 Ho440 2.322 . S
O460 C442 1.259 . S
O461 Ho441 2.346 . S
O461 C442 1.268 . S
O462 Ho440 2.378 . S
O462 C443 1.215 . S
O463 Ho440 2.524 . S
O463 C443 1.289 . S
O464 Ho440 2.381 . S
O464 C450 1.275 . S
O465 Ho440 2.669 . S
O465 Ho441 2.305 . S
O465 C450 1.256 . S
O466 Ho441 2.322 . S
O466 C451 1.259 . S
O467 Ho440 2.346 . S
O467 C451 1.268 . S
O468 Ho441 2.378 . S
O468 C452 1.215 . S
O469 Ho441 2.524 . S
O469 C452 1.289 . S
O470 Ho441 2.381 . S
O470 C459 1.275 . S
O471 Ho440 2.305 . S
O471 Ho441 2.669 . S
O471 C459 1.256 . S
H472 C445 0.930 . S
H473 C446 0.931 . S
H474 C448 0.934 . S
H475 C449 0.930 . S
H476 C454 0.930 . S
H477 C455 0.931 . S
H478 C457 0.934 . S
H479 C458 0.930 . S
Ho480 C483 2.811 . S
Ho480 O500 2.322 . S
Ho480 O502 2.378 . S
Ho480 O503 2.524 . S
Ho480 O504 2.381 . S
Ho480 O505 2.669 . S
Ho480 O507 2.346 . S
Ho480 O511 2.305 . S
Ho481 C492 2.811 . S
Ho481 O501 2.346 . S
Ho481 O505 2.305 . S
Ho481 O506 2.322 . S
Ho481 O508 2.378 . S
Ho481 O509 2.524 . S
Ho481 O510 2.381 . S
Ho481 O511 2.669 . S
C482 O500 1.259 . S
C482 O501 1.268 . S
C483 Ho480 2.811 . S
C483 C484 1.488 . S
C483 O502 1.215 . S
C483 O503 1.289 . S
C484 C483 1.488 . S
C484 C485 1.348 . S
C484 C489 1.413 . S
C485 C484 1.348 . S
C485 C486 1.442 . S
C485 H512 0.930 . S
C486 C485 1.442 . S
C486 C487 1.381 . S
C486 H513 0.931 . S
C487 C486 1.381 . S
C487 C488 1.321 . S
C488 C487 1.321 . S
C488 C489 1.403 . S
C488 H514 0.934 . S
C489 C484 1.413 . S
C489 C488 1.403 . S
C489 H515 0.930 . S
C490 O504 1.275 . S
C490 O505 1.256 . S
C491 O506 1.259 . S
C491 O507 1.268 . S
C492 Ho481 2.811 . S
C492 C493 1.488 . S
C492 O508 1.215 . S
C492 O509 1.289 . S
C493 C492 1.488 . S
C493 C494 1.348 . S
C493 C498 1.413 . S
C494 C493 1.348 . S
C494 C495 1.442 . S
C494 H516 0.930 . S
C495 C494 1.442 . S
C495 C496 1.381 . S
C495 H517 0.931 . S
C496 C495 1.381 . S
C496 C497 1.321 . S
C497 C496 1.321 . S
C497 C498 1.403 . S
C497 H518 0.934 . S
C498 C493 1.413 . S
C498 C497 1.403 . S
C498 H519 0.930 . S
C499 O510 1.275 . S
C499 O511 1.256 . S
O500 Ho480 2.322 . S
O500 C482 1.259 . S
O501 Ho481 2.346 . S
O501 C482 1.268 . S
O502 Ho480 2.378 . S
O502 C483 1.215 . S
O503 Ho480 2.524 . S
O503 C483 1.289 . S
O504 Ho480 2.381 . S
O504 C490 1.275 . S
O505 Ho480 2.669 . S
O505 Ho481 2.305 . S
O505 C490 1.256 . S
O506 Ho481 2.322 . S
O506 C491 1.259 . S
O507 Ho480 2.346 . S
O507 C491 1.268 . S
O508 Ho481 2.378 . S
O508 C492 1.215 . S
O509 Ho481 2.524 . S
O509 C492 1.289 . S
O510 Ho481 2.381 . S
O510 C499 1.275 . S
O511 Ho480 2.305 . S
O511 Ho481 2.669 . S
O511 C499 1.256 . S
H512 C485 0.930 . S
H513 C486 0.931 . S
H514 C488 0.934 . S
H515 C489 0.930 . S
H516 C494 0.930 . S
H517 C495 0.931 . S
H518 C497 0.934 . S
H519 C498 0.930 . S
Ho520 C523 2.811 . S
Ho520 O540 2.322 . S
Ho520 O542 2.378 . S
Ho520 O543 2.524 . S
Ho520 O544 2.381 . S
Ho520 O545 2.669 . S
Ho520 O547 2.346 . S
Ho520 O551 2.305 . S
Ho521 C532 2.811 . S
Ho521 O541 2.346 . S
Ho521 O545 2.305 . S
Ho521 O546 2.322 . S
Ho521 O548 2.378 . S
Ho521 O549 2.524 . S
Ho521 O550 2.381 . S
Ho521 O551 2.669 . S
C522 O540 1.259 . S
C522 O541 1.268 . S
C523 Ho520 2.811 . S
C523 C524 1.488 . S
C523 O542 1.215 . S
C523 O543 1.289 . S
C524 C523 1.488 . S
C524 C525 1.348 . S
C524 C529 1.413 . S
C525 C524 1.348 . S
C525 C526 1.442 . S
C525 H552 0.930 . S
C526 C525 1.442 . S
C526 C527 1.381 . S
C526 H553 0.931 . S
C527 C526 1.381 . S
C527 C528 1.321 . S
C528 C527 1.321 . S
C528 C529 1.403 . S
C528 H554 0.934 . S
C529 C524 1.413 . S
C529 C528 1.403 . S
C529 H555 0.930 . S
C530 O544 1.275 . S
C530 O545 1.256 . S
C531 O546 1.259 . S
C531 O547 1.268 . S
C532 Ho521 2.811 . S
C532 C533 1.488 . S
C532 O548 1.215 . S
C532 O549 1.289 . S
C533 C532 1.488 . S
C533 C534 1.348 . S
C533 C538 1.413 . S
C534 C533 1.348 . S
C534 C535 1.442 . S
C534 H556 0.930 . S
C535 C534 1.442 . S
C535 C536 1.381 . S
C535 H557 0.931 . S
C536 C535 1.381 . S
C536 C537 1.321 . S
C537 C536 1.321 . S
C537 C538 1.403 . S
C537 H558 0.934 . S
C538 C533 1.413 . S
C538 C537 1.403 . S
C538 H559 0.930 . S
C539 O550 1.275 . S
C539 O551 1.256 . S
O540 Ho520 2.322 . S
O540 C522 1.259 . S
O541 Ho521 2.346 . S
O541 C522 1.268 . S
O542 Ho520 2.378 . S
O542 C523 1.215 . S
O543 Ho520 2.524 . S
O543 C523 1.289 . S
O544 Ho520 2.381 . S
O544 C530 1.275 . S
O545 Ho520 2.669 . S
O545 Ho521 2.305 . S
O545 C530 1.256 . S
O546 Ho521 2.322 . S
O546 C531 1.259 . S
O547 Ho520 2.346 . S
O547 C531 1.268 . S
O548 Ho521 2.378 . S
O548 C532 1.215 . S
O549 Ho521 2.524 . S
O549 C532 1.289 . S
O550 Ho521 2.381 . S
O550 C539 1.275 . S
O551 Ho520 2.305 . S
O551 Ho521 2.669 . S
O551 C539 1.256 . S
H552 C525 0.930 . S
H553 C526 0.931 . S
H554 C528 0.934 . S
H555 C529 0.930 . S
H556 C534 0.930 . S
H557 C535 0.931 . S
H558 C537 0.934 . S
H559 C538 0.930 . S
Ho560 C563 2.811 . S
Ho560 O580 2.322 . S
Ho560 O582 2.378 . S
Ho560 O583 2.524 . S
Ho560 O584 2.381 . S
Ho560 O585 2.669 . S
Ho560 O587 2.346 . S
Ho560 O591 2.305 . S
Ho561 C572 2.811 . S
Ho561 O581 2.346 . S
Ho561 O585 2.305 . S
Ho561 O586 2.322 . S
Ho561 O588 2.378 . S
Ho561 O589 2.524 . S
Ho561 O590 2.381 . S
Ho561 O591 2.669 . S
C562 O580 1.259 . S
C562 O581 1.268 . S
C563 Ho560 2.811 . S
C563 C564 1.488 . S
C563 O582 1.215 . S
C563 O583 1.289 . S
C564 C563 1.488 . S
C564 C565 1.348 . S
C564 C569 1.413 . S
C565 C564 1.348 . S
C565 C566 1.442 . S
C565 H592 0.930 . S
C566 C565 1.442 . S
C566 C567 1.381 . S
C566 H593 0.931 . S
C567 C566 1.381 . S
C567 C568 1.321 . S
C568 C567 1.321 . S
C568 C569 1.403 . S
C568 H594 0.934 . S
C569 C564 1.413 . S
C569 C568 1.403 . S
C569 H595 0.930 . S
C570 O584 1.275 . S
C570 O585 1.256 . S
C571 O586 1.259 . S
C571 O587 1.268 . S
C572 Ho561 2.811 . S
C572 C573 1.488 . S
C572 O588 1.215 . S
C572 O589 1.289 . S
C573 C572 1.488 . S
C573 C574 1.348 . S
C573 C578 1.413 . S
C574 C573 1.348 . S
C574 C575 1.442 . S
C574 H596 0.930 . S
C575 C574 1.442 . S
C575 C576 1.381 . S
C575 H597 0.931 . S
C576 C575 1.381 . S
C576 C577 1.321 . S
C577 C576 1.321 . S
C577 C578 1.403 . S
C577 H598 0.934 . S
C578 C573 1.413 . S
C578 C577 1.403 . S
C578 H599 0.930 . S
C579 O590 1.275 . S
C579 O591 1.256 . S
O580 Ho560 2.322 . S
O580 C562 1.259 . S
O581 Ho561 2.346 . S
O581 C562 1.268 . S
O582 Ho560 2.378 . S
O582 C563 1.215 . S
O583 Ho560 2.524 . S
O583 C563 1.289 . S
O584 Ho560 2.381 . S
O584 C570 1.275 . S
O585 Ho560 2.669 . S
O585 Ho561 2.305 . S
O585 C570 1.256 . S
O586 Ho561 2.322 . S
O586 C571 1.259 . S
O587 Ho560 2.346 . S
O587 C571 1.268 . S
O588 Ho561 2.378 . S
O588 C572 1.215 . S
O589 Ho561 2.524 . S
O589 C572 1.289 . S
O590 Ho561 2.381 . S
O590 C579 1.275 . S
O591 Ho560 2.305 . S
O591 Ho561 2.669 . S
O591 C579 1.256 . S
H592 C565 0.930 . S
H593 C566 0.931 . S
H594 C568 0.934 . S
H595 C569 0.930 . S
H596 C574 0.930 . S
H597 C575 0.931 . S
H598 C577 0.934 . S
H599 C578 0.930 . S
Ho600 C603 2.811 . S
Ho600 O620 2.322 . S
Ho600 O622 2.378 . S
Ho600 O623 2.524 . S
Ho600 O624 2.381 . S
Ho600 O625 2.669 . S
Ho600 O627 2.346 . S
Ho600 O631 2.305 . S
Ho601 C612 2.811 . S
Ho601 O621 2.346 . S
Ho601 O625 2.305 . S
Ho601 O626 2.322 . S
Ho601 O628 2.378 . S
Ho601 O629 2.524 . S
Ho601 O630 2.381 . S
Ho601 O631 2.669 . S
C602 O620 1.259 . S
C602 O621 1.268 . S
C603 Ho600 2.811 . S
C603 C604 1.488 . S
C603 O622 1.215 . S
C603 O623 1.289 . S
C604 C603 1.488 . S
C604 C605 1.348 . S
C604 C609 1.413 . S
C605 C604 1.348 . S
C605 C606 1.442 . S
C605 H632 0.930 . S
C606 C605 1.442 . S
C606 C607 1.381 . S
C606 H633 0.931 . S
C607 C606 1.381 . S
C607 C608 1.321 . S
C608 C607 1.321 . S
C608 C609 1.403 . S
C608 H634 0.934 . S
C609 C604 1.413 . S
C609 C608 1.403 . S
C609 H635 0.930 . S
C610 O624 1.275 . S
C610 O625 1.256 . S
C611 O626 1.259 . S
C611 O627 1.268 . S
C612 Ho601 2.811 . S
C612 C613 1.488 . S
C612 O628 1.215 . S
C612 O629 1.289 . S
C613 C612 1.488 . S
C613 C614 1.348 . S
C613 C618 1.413 . S
C614 C613 1.348 . S
C614 C615 1.442 . S
C614 H636 0.930 . S
C615 C614 1.442 . S
C615 C616 1.381 . S
C615 H637 0.931 . S
C616 C615 1.381 . S
C616 C617 1.321 . S
C617 C616 1.321 . S
C617 C618 1.403 . S
C617 H638 0.934 . S
C618 C613 1.413 . S
C618 C617 1.403 . S
C618 H639 0.930 . S
C619 O630 1.275 . S
C619 O631 1.256 . S
O620 Ho600 2.322 . S
O620 C602 1.259 . S
O621 Ho601 2.346 . S
O621 C602 1.268 . S
O622 Ho600 2.378 . S
O622 C603 1.215 . S
O623 Ho600 2.524 . S
O623 C603 1.289 . S
O624 Ho600 2.381 . S
O624 C610 1.275 . S
O625 Ho600 2.669 . S
O625 Ho601 2.305 . S
O625 C610 1.256 . S
O626 Ho601 2.322 . S
O626 C611 1.259 . S
O627 Ho600 2.346 . S
O627 C611 1.268 . S
O628 Ho601 2.378 . S
O628 C612 1.215 . S
O629 Ho601 2.524 . S
O629 C612 1.289 . S
O630 Ho601 2.381 . S
O630 C619 1.275 . S
O631 Ho600 2.305 . S
O631 Ho601 2.669 . S
O631 C619 1.256 . S
H632 C605 0.930 . S
H633 C606 0.931 . S
H634 C608 0.934 . S
H635 C609 0.930 . S
H636 C614 0.930 . S
H637 C615 0.931 . S
H638 C617 0.934 . S
H639 C618 0.930 . S
C640 C641 1.363 . S
C640 C646 1.379 . S
C640 N648 1.356 . S
C641 C640 1.363 . S
C641 C647 1.363 . S
C642 C643 1.363 . S
C642 C647 1.379 . S
C642 N649 1.356 . S
C643 C642 1.363 . S
C643 C646 1.363 . S
N644 C646 1.356 . S
N644 H656 0.984 . S
N644 H657 0.985 . S
N645 C647 1.356 . S
N645 H650 0.984 . S
N645 H651 0.985 . S
C646 C640 1.379 . S
C646 C643 1.363 . S
C646 N644 1.356 . S
C647 C641 1.363 . S
C647 C642 1.379 . S
C647 N645 1.356 . S
N648 C640 1.356 . S
N648 H654 0.984 . S
N648 H655 0.984 . S
N649 C642 1.356 . S
N649 H652 0.984 . S
N649 H653 0.985 . S
H650 N645 0.984 . S
H651 N645 0.985 . S
H652 N649 0.984 . S
H653 N649 0.985 . S
H654 N648 0.984 . S
H655 N648 0.984 . S
H656 N644 0.984 . S
H657 N644 0.985 . S
C658 C659 1.363 . S
C658 C664 1.379 . S
C658 N666 1.356 . S
C659 C658 1.363 . S
C659 C665 1.363 . S
C660 C661 1.363 . S
C660 C665 1.379 . S
C660 N667 1.356 . S
C661 C660 1.363 . S
C661 C664 1.363 . S
N662 C664 1.356 . S
N662 H674 0.984 . S
N662 H675 0.985 . S
N663 C665 1.356 . S
N663 H668 0.984 . S
N663 H669 0.985 . S
C664 C658 1.379 . S
C664 C661 1.363 . S
C664 N662 1.356 . S
C665 C659 1.363 . S
C665 C660 1.379 . S
C665 N663 1.356 . S
N666 C658 1.356 . S
N666 H672 0.984 . S
N666 H673 0.984 . S
N667 C660 1.356 . S
N667 H670 0.984 . S
N667 H671 0.985 . S
H668 N663 0.984 . S
H669 N663 0.985 . S
H670 N667 0.984 . S
H671 N667 0.985 . S
H672 N666 0.984 . S
H673 N666 0.984 . S
H674 N662 0.984 . S
H675 N662 0.985 . S
C676 C677 1.363 . S
C676 C682 1.379 . S
C676 N684 1.356 . S
C677 C676 1.363 . S
C677 C683 1.363 . S
C678 C679 1.363 . S
C678 C683 1.379 . S
C678 N685 1.356 . S
C679 C678 1.363 . S
C679 C682 1.363 . S
N680 C682 1.356 . S
N680 H692 0.984 . S
N680 H693 0.985 . S
N681 C683 1.356 . S
N681 H686 0.984 . S
N681 H687 0.985 . S
C682 C676 1.379 . S
C682 C679 1.363 . S
C682 N680 1.356 . S
C683 C677 1.363 . S
C683 C678 1.379 . S
C683 N681 1.356 . S
N684 C676 1.356 . S
N684 H690 0.984 . S
N684 H691 0.984 . S
N685 C678 1.356 . S
N685 H688 0.984 . S
N685 H689 0.985 . S
H686 N681 0.984 . S
H687 N681 0.985 . S
H688 N685 0.984 . S
H689 N685 0.985 . S
H690 N684 0.984 . S
H691 N684 0.984 . S
H692 N680 0.984 . S
H693 N680 0.985 . S
C694 C695 1.363 . S
C694 C700 1.379 . S
C694 N702 1.356 . S
C695 C694 1.363 . S
C695 C701 1.363 . S
C696 C697 1.363 . S
C696 C701 1.379 . S
C696 N703 1.356 . S
C697 C696 1.363 . S
C697 C700 1.363 . S
N698 C700 1.356 . S
N698 H710 0.984 . S
N698 H711 0.985 . S
N699 C701 1.356 . S
N699 H704 0.984 . S
N699 H705 0.985 . S
C700 C694 1.379 . S
C700 C697 1.363 . S
C700 N698 1.356 . S
C701 C695 1.363 . S
C701 C696 1.379 . S
C701 N699 1.356 . S
N702 C694 1.356 . S
N702 H708 0.984 . S
N702 H709 0.984 . S
N703 C696 1.356 . S
N703 H706 0.984 . S
N703 H707 0.985 . S
H704 N699 0.984 . S
H705 N699 0.985 . S
H706 N703 0.984 . S
H707 N703 0.985 . S
H708 N702 0.984 . S
H709 N702 0.984 . S
H710 N698 0.984 . S
H711 N698 0.985 . S
C712 C713 1.363 . S
C712 C718 1.379 . S
C712 N720 1.356 . S
C713 C712 1.363 . S
C713 C719 1.363 . S
C714 C715 1.363 . S
C714 C719 1.379 . S
C714 N721 1.356 . S
C715 C714 1.363 . S
C715 C718 1.363 . S
N716 C718 1.356 . S
N716 H728 0.984 . S
N716 H729 0.985 . S
N717 C719 1.356 . S
N717 H722 0.984 . S
N717 H723 0.985 . S
C718 C712 1.379 . S
C718 C715 1.363 . S
C718 N716 1.356 . S
C719 C713 1.363 . S
C719 C714 1.379 . S
C719 N717 1.356 . S
N720 C712 1.356 . S
N720 H726 0.984 . S
N720 H727 0.984 . S
N721 C714 1.356 . S
N721 H724 0.984 . S
N721 H725 0.985 . S
H722 N717 0.984 . S
H723 N717 0.985 . S
H724 N721 0.984 . S
H725 N721 0.985 . S
H726 N720 0.984 . S
H727 N720 0.984 . S
H728 N716 0.984 . S
H729 N716 0.985 . S
C730 C731 1.363 . S
C730 C736 1.379 . S
C730 N738 1.356 . S
C731 C730 1.363 . S
C731 C737 1.363 . S
C732 C733 1.363 . S
C732 C737 1.379 . S
C732 N739 1.356 . S
C733 C732 1.363 . S
C733 C736 1.363 . S
N734 C736 1.356 . S
N734 H746 0.984 . S
N734 H747 0.985 . S
N735 C737 1.356 . S
N735 H740 0.984 . S
N735 H741 0.985 . S
C736 C730 1.379 . S
C736 C733 1.363 . S
C736 N734 1.356 . S
C737 C731 1.363 . S
C737 C732 1.379 . S
C737 N735 1.356 . S
N738 C730 1.356 . S
N738 H744 0.984 . S
N738 H745 0.984 . S
N739 C732 1.356 . S
N739 H742 0.984 . S
N739 H743 0.985 . S
H740 N735 0.984 . S
H741 N735 0.985 . S
H742 N739 0.984 . S
H743 N739 0.985 . S
H744 N738 0.984 . S
H745 N738 0.984 . S
H746 N734 0.984 . S
H747 N734 0.985 . S
C748 C749 1.363 . S
C748 C754 1.379 . S
C748 N756 1.356 . S
C749 C748 1.363 . S
C749 C755 1.363 . S
C750 C751 1.363 . S
C750 C755 1.379 . S
C750 N757 1.356 . S
C751 C750 1.363 . S
C751 C754 1.363 . S
N752 C754 1.356 . S
N752 H764 0.984 . S
N752 H765 0.985 . S
N753 C755 1.356 . S
N753 H758 0.984 . S
N753 H759 0.985 . S
C754 C748 1.379 . S
C754 C751 1.363 . S
C754 N752 1.356 . S
C755 C749 1.363 . S
C755 C750 1.379 . S
C755 N753 1.356 . S
N756 C748 1.356 . S
N756 H762 0.984 . S
N756 H763 0.984 . S
N757 C750 1.356 . S
N757 H760 0.984 . S
N757 H761 0.985 . S
H758 N753 0.984 . S
H759 N753 0.985 . S
H760 N757 0.984 . S
H761 N757 0.985 . S
H762 N756 0.984 . S
H763 N756 0.984 . S
H764 N752 0.984 . S
H765 N752 0.985 . S
C766 C767 1.363 . S
C766 C772 1.379 . S
C766 N774 1.356 . S
C767 C766 1.363 . S
C767 C773 1.363 . S
C768 C769 1.363 . S
C768 C773 1.379 . S
C768 N775 1.356 . S
C769 C768 1.363 . S
C769 C772 1.363 . S
N770 C772 1.356 . S
N770 H782 0.984 . S
N770 H783 0.985 . S
N771 C773 1.356 . S
N771 H776 0.984 . S
N771 H777 0.985 . S
C772 C766 1.379 . S
C772 C769 1.363 . S
C772 N770 1.356 . S
C773 C767 1.363 . S
C773 C768 1.379 . S
C773 N771 1.356 . S
N774 C766 1.356 . S
N774 H780 0.984 . S
N774 H781 0.984 . S
N775 C768 1.356 . S
N775 H778 0.984 . S
N775 H779 0.985 . S
H776 N771 0.984 . S
H777 N771 0.985 . S
H778 N775 0.984 . S
H779 N775 0.985 . S
H780 N774 0.984 . S
H781 N774 0.984 . S
H782 N770 0.984 . S
H783 N770 0.985 . S
C784 C785 1.351 1_545 S
C784 C790 1.391 . S
C784 N792 1.353 1_545 S
C785 C784 1.351 1_565 S
C785 C791 1.363 . S
C786 C787 1.351 1_565 S
C786 C791 1.391 . S
C786 N793 1.353 1_565 S
C787 C786 1.351 1_545 S
C787 C790 1.363 . S
N788 C790 1.356 . S
N788 H800 0.984 . S
N788 H801 0.985 . S
N789 C791 1.356 . S
N789 H794 0.984 . S
N789 H795 0.985 . S
C790 C784 1.391 . S
C790 C787 1.363 . S
C790 N788 1.356 . S
C791 C785 1.363 . S
C791 C786 1.391 . S
C791 N789 1.356 . S
N792 C784 1.353 1_565 S
N792 H798 0.984 1_565 S
N792 H799 0.984 . S
N793 C786 1.353 1_545 S
N793 H796 0.984 . S
N793 H797 0.985 1_545 S
H794 N789 0.984 . S
H795 N789 0.985 . S
H796 N793 0.984 . S
H797 N793 0.985 1_565 S
H798 N792 0.984 1_545 S
H799 N792 0.984 . S
H800 N788 0.984 . S
H801 N788 0.985 . S
C802 C803 1.363 1_565 S
C802 C808 1.379 . S
C802 N810 1.356 . S
C803 C802 1.363 1_545 S
C803 C809 1.363 . S
C804 C805 1.363 1_545 S
C804 C809 1.379 . S
C804 N811 1.356 . S
C805 C804 1.363 1_565 S
C805 C808 1.363 . S
N806 C808 1.356 . S
N806 H818 0.984 . S
N806 H819 0.985 . S
N807 C809 1.356 . S
N807 H812 0.984 . S
N807 H813 0.985 . S
C808 C802 1.379 . S
C808 C805 1.363 . S
C808 N806 1.356 . S
C809 C803 1.363 . S
C809 C804 1.379 . S
C809 N807 1.356 . S
N810 C802 1.356 . S
N810 H816 0.984 . S
N810 H817 0.984 1_565 S
N811 C804 1.356 . S
N811 H814 0.984 1_545 S
N811 H815 0.985 . S
H812 N807 0.984 . S
H813 N807 0.985 . S
H814 N811 0.984 1_565 S
H815 N811 0.985 . S
H816 N810 0.984 . S
H817 N810 0.984 1_545 S
H818 N806 0.984 . S
H819 N806 0.985 . S
C820 C821 1.363 . S
C820 C826 1.379 . S
C820 N828 1.356 . S
C821 C820 1.363 . S
C821 C827 1.363 1_545 S
C822 C823 1.363 . S
C822 C827 1.379 . S
C822 N829 1.356 . S
C823 C822 1.363 . S
C823 C826 1.363 1_565 S
N824 C826 1.356 . S
N824 H836 0.984 . S
N824 H837 0.985 1_545 S
N825 C827 1.356 . S
N825 H830 0.984 1_565 S
N825 H831 0.985 . S
C826 C820 1.379 . S
C826 C823 1.363 1_545 S
C826 N824 1.356 . S
C827 C821 1.363 1_565 S
C827 C822 1.379 . S
C827 N825 1.356 . S
N828 C820 1.356 . S
N828 H834 0.984 . S
N828 H835 0.984 . S
N829 C822 1.356 . S
N829 H832 0.984 . S
N829 H833 0.985 . S
H830 N825 0.984 1_545 S
H831 N825 0.985 . S
H832 N829 0.984 . S
H833 N829 0.985 . S
H834 N828 0.984 . S
H835 N828 0.984 . S
H836 N824 0.984 . S
H837 N824 0.985 1_565 S
C838 C839 1.363 . S
C838 C844 1.379 . S
C838 N846 1.356 . S
C839 C838 1.363 . S
C839 C845 1.363 1_545 S
C840 C841 1.363 . S
C840 C845 1.379 . S
C840 N847 1.356 . S
C841 C840 1.363 . S
C841 C844 1.363 1_565 S
N842 C844 1.356 . S
N842 H854 0.984 . S
N842 H855 0.985 1_545 S
N843 C845 1.356 . S
N843 H848 0.984 1_565 S
N843 H849 0.985 . S
C844 C838 1.379 . S
C844 C841 1.363 1_545 S
C844 N842 1.356 . S
C845 C839 1.363 1_565 S
C845 C840 1.379 . S
C845 N843 1.356 . S
N846 C838 1.356 . S
N846 H852 0.984 . S
N846 H853 0.984 . S
N847 C840 1.356 . S
N847 H850 0.984 . S
N847 H851 0.985 . S
H848 N843 0.984 1_545 S
H849 N843 0.985 . S
H850 N847 0.984 . S
H851 N847 0.985 . S
H852 N846 0.984 . S
H853 N846 0.984 . S
H854 N842 0.984 . S
H855 N842 0.985 1_565 S
C856 C857 1.363 . S
C856 C862 1.379 . S
C856 N864 1.356 . S
C857 C856 1.363 . S
C857 C863 1.363 . S
C858 C859 1.363 . S
C858 C863 1.379 . S
C858 N865 1.356 . S
C859 C858 1.363 . S
C859 C862 1.363 . S
N860 C862 1.356 . S
N860 H872 0.984 . S
N860 H873 0.985 . S
N861 C863 1.356 . S
N861 H866 0.984 . S
N861 H867 0.985 . S
C862 C856 1.379 . S
C862 C859 1.363 . S
C862 N860 1.356 . S
C863 C857 1.363 . S
C863 C858 1.379 . S
C863 N861 1.356 . S
N864 C856 1.356 . S
N864 H870 0.984 . S
N864 H871 0.984 . S
N865 C858 1.356 . S
N865 H868 0.984 . S
N865 H869 0.985 . S
H866 N861 0.984 . S
H867 N861 0.985 . S
H868 N865 0.984 . S
H869 N865 0.985 . S
H870 N864 0.984 . S
H871 N864 0.984 . S
H872 N860 0.984 . S
H873 N860 0.985 . S
C874 C875 1.363 . S
C874 C880 1.379 . S
C874 N882 1.356 . S
C875 C874 1.363 . S
C875 C881 1.363 . S
C876 C877 1.363 . S
C876 C881 1.379 . S
C876 N883 1.356 . S
C877 C876 1.363 . S
C877 C880 1.363 . S
N878 C880 1.356 . S
N878 H890 0.984 . S
N878 H891 0.985 . S
N879 C881 1.356 . S
N879 H884 0.984 . S
N879 H885 0.985 . S
C880 C874 1.379 . S
C880 C877 1.363 . S
C880 N878 1.356 . S
C881 C875 1.363 . S
C881 C876 1.379 . S
C881 N879 1.356 . S
N882 C874 1.356 . S
N882 H888 0.984 . S
N882 H889 0.984 . S
N883 C876 1.356 . S
N883 H886 0.984 . S
N883 H887 0.985 . S
H884 N879 0.984 . S
H885 N879 0.985 . S
H886 N883 0.984 . S
H887 N883 0.985 . S
H888 N882 0.984 . S
H889 N882 0.984 . S
H890 N878 0.984 . S
H891 N878 0.985 . S
C892 C893 1.363 . S
C892 C898 1.379 . S
C892 N900 1.356 . S
C893 C892 1.363 . S
C893 C899 1.363 . S
C894 C895 1.363 . S
C894 C899 1.379 . S
C894 N901 1.356 . S
C895 C894 1.363 . S
C895 C898 1.363 . S
N896 C898 1.356 . S
N896 H908 0.984 . S
N896 H909 0.985 . S
N897 C899 1.356 . S
N897 H902 0.984 . S
N897 H903 0.985 . S
C898 C892 1.379 . S
C898 C895 1.363 . S
C898 N896 1.356 . S
C899 C893 1.363 . S
C899 C894 1.379 . S
C899 N897 1.356 . S
N900 C892 1.356 . S
N900 H906 0.984 . S
N900 H907 0.984 . S
N901 C894 1.356 . S
N901 H904 0.984 . S
N901 H905 0.985 . S
H902 N897 0.984 . S
H903 N897 0.985 . S
H904 N901 0.984 . S
H905 N901 0.985 . S
H906 N900 0.984 . S
H907 N900 0.984 . S
H908 N896 0.984 . S
H909 N896 0.985 . S
C910 C911 1.363 . S
C910 C916 1.379 . S
C910 N918 1.356 . S
C911 C910 1.363 . S
C911 C917 1.363 . S
C912 C913 1.363 . S
C912 C917 1.379 . S
C912 N919 1.356 . S
C913 C912 1.363 . S
C913 C916 1.363 . S
N914 C916 1.356 . S
N914 H926 0.984 . S
N914 H927 0.985 . S
N915 C917 1.356 . S
N915 H920 0.984 . S
N915 H921 0.985 . S
C916 C910 1.379 . S
C916 C913 1.363 . S
C916 N914 1.356 . S
C917 C911 1.363 . S
C917 C912 1.379 . S
C917 N915 1.356 . S
N918 C910 1.356 . S
N918 H924 0.984 . S
N918 H925 0.984 . S
N919 C912 1.356 . S
N919 H922 0.984 . S
N919 H923 0.985 . S
H920 N915 0.984 . S
H921 N915 0.985 . S
H922 N919 0.984 . S
H923 N919 0.985 . S
H924 N918 0.984 . S
H925 N918 0.984 . S
H926 N914 0.984 . S
H927 N914 0.985 . S
C928 C929 1.363 . S
C928 C934 1.379 1_556 S
C928 N936 1.356 . S
C929 C928 1.363 . S
C929 C935 1.363 . S
C930 C931 1.363 . S
C930 C935 1.379 1_554 S
C930 N937 1.356 . S
C931 C930 1.363 . S
C931 C934 1.363 . S
N932 C934 1.356 . S
N932 H944 0.984 . S
N932 H945 0.985 . S
N933 C935 1.356 . S
N933 H938 0.984 . S
N933 H939 0.985 . S
C934 C928 1.379 1_554 S
C934 C931 1.363 . S
C934 N932 1.356 . S
C935 C929 1.363 . S
C935 C930 1.379 1_556 S
C935 N933 1.356 . S
N936 C928 1.356 . S
N936 H942 0.984 . S
N936 H943 0.984 . S
N937 C930 1.356 . S
N937 H940 0.984 . S
N937 H941 0.985 . S
H938 N933 0.984 . S
H939 N933 0.985 . S
H940 N937 0.984 . S
H941 N937 0.985 . S
H942 N936 0.984 . S
H943 N936 0.984 . S
H944 N932 0.984 . S
H945 N932 0.985 . S
C946 C947 1.363 . S
C946 C952 1.379 1_556 S
C946 N954 1.356 . S
C947 C946 1.363 . S
C947 C953 1.363 . S
C948 C949 1.363 . S
C948 C953 1.379 1_554 S
C948 N955 1.356 . S
C949 C948 1.363 . S
C949 C952 1.363 . S
N950 C952 1.356 . S
N950 H962 0.984 . S
N950 H963 0.985 . S
N951 C953 1.356 . S
N951 H956 0.984 . S
N951 H957 0.985 . S
C952 C946 1.379 1_554 S
C952 C949 1.363 . S
C952 N950 1.356 . S
C953 C947 1.363 . S
C953 C948 1.379 1_556 S
C953 N951 1.356 . S
N954 C946 1.356 . S
N954 H960 0.984 . S
N954 H961 0.984 . S
N955 C948 1.356 . S
N955 H958 0.984 . S
N955 H959 0.985 . S
H956 N951 0.984 . S
H957 N951 0.985 . S
H958 N955 0.984 . S
H959 N955 0.985 . S
H960 N954 0.984 . S
H961 N954 0.984 . S
H962 N950 0.984 . S
H963 N950 0.985 . S
C964 C965 1.363 . S
C964 C970 1.379 . S
C964 N972 1.356 . S
C965 C964 1.363 . S
C965 C971 1.363 . S
C966 C967 1.363 . S
C966 C971 1.379 . S
C966 N973 1.356 . S
C967 C966 1.363 . S
C967 C970 1.363 . S
N968 C970 1.356 . S
N968 H980 0.984 . S
N968 H981 0.985 . S
N969 C971 1.356 . S
N969 H974 0.984 . S
N969 H975 0.985 . S
C970 C964 1.379 . S
C970 C967 1.363 . S
C970 N968 1.356 . S
C971 C965 1.363 . S
C971 C966 1.379 . S
C971 N969 1.356 . S
N972 C964 1.356 . S
N972 H978 0.984 . S
N972 H979 0.984 . S
N973 C966 1.356 . S
N973 H976 0.984 . S
N973 H977 0.985 . S
H974 N969 0.984 . S
H975 N969 0.985 . S
H976 N973 0.984 . S
H977 N973 0.985 . S
H978 N972 0.984 . S
H979 N972 0.984 . S
H980 N968 0.984 . S
H981 N968 0.985 . S
C982 C983 1.363 . S
C982 C988 1.379 . S
C982 N990 1.356 . S
C983 C982 1.363 . S
C983 C989 1.363 . S
C984 C985 1.363 . S
C984 C989 1.379 . S
C984 N991 1.356 . S
C985 C984 1.363 . S
C985 C988 1.363 . S
N986 C988 1.356 . S
N986 H998 0.984 . S
N986 H999 0.985 . S
N987 C989 1.356 . S
N987 H992 0.984 . S
N987 H993 0.985 . S
C988 C982 1.379 . S
C988 C985 1.363 . S
C988 N986 1.356 . S
C989 C983 1.363 . S
C989 C984 1.379 . S
C989 N987 1.356 . S
N990 C982 1.356 . S
N990 H996 0.984 . S
N990 H997 0.984 . S
N991 C984 1.356 . S
N991 H994 0.984 . S
N991 H995 0.985 . S
H992 N987 0.984 . S
H993 N987 0.985 . S
H994 N991 0.984 . S
H995 N991 0.985 . S
H996 N990 0.984 . S
H997 N990 0.984 . S
H998 N986 0.984 . S
H999 N986 0.985 . S
C1000 C1001 1.363 . S
C1000 C1006 1.379 1_554 S
C1000 N1008 1.356 . S
C1001 C1000 1.363 . S
C1001 C1007 1.363 . S
C1002 C1003 1.363 . S
C1002 C1007 1.379 1_556 S
C1002 N1009 1.356 . S
C1003 C1002 1.363 . S
C1003 C1006 1.363 . S
N1004 C1006 1.356 . S
N1004 H1016 0.984 . S
N1004 H1017 0.985 . S
N1005 C1007 1.356 . S
N1005 H1010 0.984 . S
N1005 H1011 0.985 . S
C1006 C1000 1.379 1_556 S
C1006 C1003 1.363 . S
C1006 N1004 1.356 . S
C1007 C1001 1.363 . S
C1007 C1002 1.379 1_554 S
C1007 N1005 1.356 . S
N1008 C1000 1.356 . S
N1008 H1014 0.984 . S
N1008 H1015 0.984 . S
N1009 C1002 1.356 . S
N1009 H1012 0.984 . S
N1009 H1013 0.985 . S
H1010 N1005 0.984 . S
H1011 N1005 0.985 . S
H1012 N1009 0.984 . S
H1013 N1009 0.985 . S
H1014 N1008 0.984 . S
H1015 N1008 0.984 . S
H1016 N1004 0.984 . S
H1017 N1004 0.985 . S
C1018 C1019 1.363 . S
C1018 C1024 1.379 1_556 S
C1018 N1026 1.356 . S
C1019 C1018 1.363 . S
C1019 C1025 1.363 . S
C1020 C1021 1.363 . S
C1020 C1025 1.379 1_554 S
C1020 N1027 1.356 . S
C1021 C1020 1.363 . S
C1021 C1024 1.363 . S
N1022 C1024 1.356 . S
N1022 H1034 0.984 . S
N1022 H1035 0.985 . S
N1023 C1025 1.356 . S
N1023 H1028 0.984 . S
N1023 H1029 0.985 . S
C1024 C1018 1.379 1_554 S
C1024 C1021 1.363 . S
C1024 N1022 1.356 . S
C1025 C1019 1.363 . S
C1025 C1020 1.379 1_556 S
C1025 N1023 1.356 . S
N1026 C1018 1.356 . S
N1026 H1032 0.984 . S
N1026 H1033 0.984 . S
N1027 C1020 1.356 . S
N1027 H1030 0.984 . S
N1027 H1031 0.985 . S
H1028 N1023 0.984 . S
H1029 N1023 0.985 . S
H1030 N1027 0.984 . S
H1031 N1027 0.985 . S
H1032 N1026 0.984 . S
H1033 N1026 0.984 . S
H1034 N1022 0.984 . S
H1035 N1022 0.985 . S
C1036 C1037 1.363 . S
C1036 C1042 1.379 . S
C1036 N1044 1.356 . S
C1037 C1036 1.363 . S
C1037 C1043 1.363 . S
C1038 C1039 1.363 . S
C1038 C1043 1.379 . S
C1038 N1045 1.356 . S
C1039 C1038 1.363 . S
C1039 C1042 1.363 . S
N1040 C1042 1.356 . S
N1040 H1052 0.984 . S
N1040 H1053 0.985 . S
N1041 C1043 1.356 . S
N1041 H1046 0.984 . S
N1041 H1047 0.985 . S
C1042 C1036 1.379 . S
C1042 C1039 1.363 . S
C1042 N1040 1.356 . S
C1043 C1037 1.363 . S
C1043 C1038 1.379 . S
C1043 N1041 1.356 . S
N1044 C1036 1.356 . S
N1044 H1050 0.984 . S
N1044 H1051 0.984 . S
N1045 C1038 1.356 . S
N1045 H1048 0.984 . S
N1045 H1049 0.985 . S
H1046 N1041 0.984 . S
H1047 N1041 0.985 . S
H1048 N1045 0.984 . S
H1049 N1045 0.985 . S
H1050 N1044 0.984 . S
H1051 N1044 0.984 . S
H1052 N1040 0.984 . S
H1053 N1040 0.985 . S
C1054 C1055 1.363 . S
C1054 C1060 1.379 . S
C1054 N1062 1.356 . S
C1055 C1054 1.363 . S
C1055 C1061 1.363 . S
C1056 C1057 1.363 . S
C1056 C1061 1.379 . S
C1056 N1063 1.356 . S
C1057 C1056 1.363 . S
C1057 C1060 1.363 . S
N1058 C1060 1.356 . S
N1058 H1070 0.984 . S
N1058 H1071 0.985 . S
N1059 C1061 1.356 . S
N1059 H1064 0.984 . S
N1059 H1065 0.985 . S
C1060 C1054 1.379 . S
C1060 C1057 1.363 . S
C1060 N1058 1.356 . S
C1061 C1055 1.363 . S
C1061 C1056 1.379 . S
C1061 N1059 1.356 . S
N1062 C1054 1.356 . S
N1062 H1068 0.984 . S
N1062 H1069 0.984 . S
N1063 C1056 1.356 . S
N1063 H1066 0.984 . S
N1063 H1067 0.985 . S
H1064 N1059 0.984 . S
H1065 N1059 0.985 . S
H1066 N1063 0.984 . S
H1067 N1063 0.985 . S
H1068 N1062 0.984 . S
H1069 N1062 0.984 . S
H1070 N1058 0.984 . S
H1071 N1058 0.985 . S
C1072 C1073 1.363 1_545 S
C1072 C1078 1.379 1_655 S
C1072 N1080 1.356 . S
C1073 C1072 1.363 1_565 S
C1073 C1079 1.363 . S
C1074 C1075 1.363 1_565 S
C1074 C1079 1.379 1_455 S
C1074 N1081 1.356 . S
C1075 C1074 1.363 1_545 S
C1075 C1078 1.363 . S
N1076 C1078 1.356 . S
N1076 H1088 0.984 . S
N1076 H1089 0.985 . S
N1077 C1079 1.356 . S
N1077 H1082 0.984 . S
N1077 H1083 0.985 . S
C1078 C1072 1.379 1_455 S
C1078 C1075 1.363 . S
C1078 N1076 1.356 . S
C1079 C1073 1.363 . S
C1079 C1074 1.379 1_655 S
C1079 N1077 1.356 . S
N1080 C1072 1.356 . S
N1080 H1086 0.984 . S
N1080 H1087 0.984 . S
N1081 C1074 1.356 . S
N1081 H1084 0.984 . S
N1081 H1085 0.985 . S
H1082 N1077 0.984 . S
H1083 N1077 0.985 . S
H1084 N1081 0.984 . S
H1085 N1081 0.985 . S
H1086 N1080 0.984 . S
H1087 N1080 0.984 . S
H1088 N1076 0.984 . S
H1089 N1076 0.985 . S
C1090 C1091 1.363 1_565 S
C1090 C1096 1.379 1_655 S
C1090 N1098 1.356 . S
C1091 C1090 1.363 1_545 S
C1091 C1097 1.363 . S
C1092 C1093 1.363 1_545 S
C1092 C1097 1.379 1_455 S
C1092 N1099 1.356 . S
C1093 C1092 1.363 1_565 S
C1093 C1096 1.363 . S
N1094 C1096 1.356 . S
N1094 H1106 0.984 . S
N1094 H1107 0.985 . S
N1095 C1097 1.356 . S
N1095 H1100 0.984 . S
N1095 H1101 0.985 . S
C1096 C1090 1.379 1_455 S
C1096 C1093 1.363 . S
C1096 N1094 1.356 . S
C1097 C1091 1.363 . S
C1097 C1092 1.379 1_655 S
C1097 N1095 1.356 . S
N1098 C1090 1.356 . S
N1098 H1104 0.984 . S
N1098 H1105 0.984 . S
N1099 C1092 1.356 . S
N1099 H1102 0.984 . S
N1099 H1103 0.985 . S
H1100 N1095 0.984 . S
H1101 N1095 0.985 . S
H1102 N1099 0.984 . S
H1103 N1099 0.985 . S
H1104 N1098 0.984 . S
H1105 N1098 0.984 . S
H1106 N1094 0.984 . S
H1107 N1094 0.985 . S
C1108 C1109 1.363 1_565 S
C1108 C1114 1.379 1_455 S
C1108 N1116 1.356 . S
C1109 C1108 1.363 1_545 S
C1109 C1115 1.363 . S
C1110 C1111 1.363 1_545 S
C1110 C1115 1.379 1_655 S
C1110 N1117 1.356 . S
C1111 C1110 1.363 1_565 S
C1111 C1114 1.363 . S
N1112 C1114 1.356 . S
N1112 H1124 0.984 . S
N1112 H1125 0.985 . S
N1113 C1115 1.356 . S
N1113 H1118 0.984 . S
N1113 H1119 0.985 . S
C1114 C1108 1.379 1_655 S
C1114 C1111 1.363 . S
C1114 N1112 1.356 . S
C1115 C1109 1.363 . S
C1115 C1110 1.379 1_455 S
C1115 N1113 1.356 . S
N1116 C1108 1.356 . S
N1116 H1122 0.984 . S
N1116 H1123 0.984 . S
N1117 C1110 1.356 . S
N1117 H1120 0.984 . S
N1117 H1121 0.985 . S
H1118 N1113 0.984 . S
H1119 N1113 0.985 . S
H1120 N1117 0.984 . S
H1121 N1117 0.985 . S
H1122 N1116 0.984 . S
H1123 N1116 0.984 . S
H1124 N1112 0.984 . S
H1125 N1112 0.985 . S
C1126 C1127 1.363 1_565 S
C1126 C1132 1.379 1_655 S
C1126 N1134 1.356 . S
C1127 C1126 1.363 1_545 S
C1127 C1133 1.363 . S
C1128 C1129 1.363 1_545 S
C1128 C1133 1.379 1_455 S
C1128 N1135 1.356 . S
C1129 C1128 1.363 1_565 S
C1129 C1132 1.363 . S
N1130 C1132 1.356 . S
N1130 H1142 0.984 . S
N1130 H1143 0.985 . S
N1131 C1133 1.356 . S
N1131 H1136 0.984 . S
N1131 H1137 0.985 . S
C1132 C1126 1.379 1_455 S
C1132 C1129 1.363 . S
C1132 N1130 1.356 . S
C1133 C1127 1.363 . S
C1133 C1128 1.379 1_655 S
C1133 N1131 1.356 . S
N1134 C1126 1.356 . S
N1134 H1140 0.984 . S
N1134 H1141 0.984 . S
N1135 C1128 1.356 . S
N1135 H1138 0.984 . S
N1135 H1139 0.985 . S
H1136 N1131 0.984 . S
H1137 N1131 0.985 . S
H1138 N1135 0.984 . S
H1139 N1135 0.985 . S
H1140 N1134 0.984 . S
H1141 N1134 0.984 . S
H1142 N1130 0.984 . S
H1143 N1130 0.985 . S
C1144 C1145 1.363 . S
C1144 C1150 1.379 . S
C1144 N1152 1.356 . S
C1145 C1144 1.363 . S
C1145 C1151 1.363 . S
C1146 C1147 1.363 . S
C1146 C1151 1.379 . S
C1146 N1153 1.356 . S
C1147 C1146 1.363 . S
C1147 C1150 1.363 . S
N1148 C1150 1.356 . S
N1148 H1160 0.984 . S
N1148 H1161 0.985 . S
N1149 C1151 1.356 . S
N1149 H1154 0.984 . S
N1149 H1155 0.985 . S
C1150 C1144 1.379 . S
C1150 C1147 1.363 . S
C1150 N1148 1.356 . S
C1151 C1145 1.363 . S
C1151 C1146 1.379 . S
C1151 N1149 1.356 . S
N1152 C1144 1.356 . S
N1152 H1158 0.984 . S
N1152 H1159 0.984 . S
N1153 C1146 1.356 . S
N1153 H1156 0.984 . S
N1153 H1157 0.985 . S
H1154 N1149 0.984 . S
H1155 N1149 0.985 . S
H1156 N1153 0.984 . S
H1157 N1153 0.985 . S
H1158 N1152 0.984 . S
H1159 N1152 0.984 . S
H1160 N1148 0.984 . S
H1161 N1148 0.985 . S
C1162 C1163 1.363 . S
C1162 C1168 1.379 . S
C1162 N1170 1.356 . S
C1163 C1162 1.363 . S
C1163 C1169 1.363 . S
C1164 C1165 1.363 . S
C1164 C1169 1.379 . S
C1164 N1171 1.356 . S
C1165 C1164 1.363 . S
C1165 C1168 1.363 . S
N1166 C1168 1.356 . S
N1166 H1178 0.984 . S
N1166 H1179 0.985 . S
N1167 C1169 1.356 . S
N1167 H1172 0.984 . S
N1167 H1173 0.985 . S
C1168 C1162 1.379 . S
C1168 C1165 1.363 . S
C1168 N1166 1.356 . S
C1169 C1163 1.363 . S
C1169 C1164 1.379 . S
C1169 N1167 1.356 . S
N1170 C1162 1.356 . S
N1170 H1176 0.984 . S
N1170 H1177 0.984 . S
N1171 C1164 1.356 . S
N1171 H1174 0.984 . S
N1171 H1175 0.985 . S
H1172 N1167 0.984 . S
H1173 N1167 0.985 . S
H1174 N1171 0.984 . S
H1175 N1171 0.985 . S
H1176 N1170 0.984 . S
H1177 N1170 0.984 . S
H1178 N1166 0.984 . S
H1179 N1166 0.985 . S
C1180 C1181 1.363 . S
C1180 C1186 1.379 . S
C1180 N1188 1.356 . S
C1181 C1180 1.363 . S
C1181 C1187 1.363 . S
C1182 C1183 1.363 . S
C1182 C1187 1.379 . S
C1182 N1189 1.356 . S
C1183 C1182 1.363 . S
C1183 C1186 1.363 . S
N1184 C1186 1.356 . S
N1184 H1196 0.984 . S
N1184 H1197 0.985 . S
N1185 C1187 1.356 . S
N1185 H1190 0.984 . S
N1185 H1191 0.985 . S
C1186 C1180 1.379 . S
C1186 C1183 1.363 . S
C1186 N1184 1.356 . S
C1187 C1181 1.363 . S
C1187 C1182 1.379 . S
C1187 N1185 1.356 . S
N1188 C1180 1.356 . S
N1188 H1194 0.984 . S
N1188 H1195 0.984 . S
N1189 C1182 1.356 . S
N1189 H1192 0.984 . S
N1189 H1193 0.985 . S
H1190 N1185 0.984 . S
H1191 N1185 0.985 . S
H1192 N1189 0.984 . S
H1193 N1189 0.985 . S
H1194 N1188 0.984 . S
H1195 N1188 0.984 . S
H1196 N1184 0.984 . S
H1197 N1184 0.985 . S
C1198 C1199 1.363 . S
C1198 C1204 1.379 . S
C1198 N1206 1.356 . S
C1199 C1198 1.363 . S
C1199 C1205 1.363 . S
C1200 C1201 1.363 . S
C1200 C1205 1.379 . S
C1200 N1207 1.356 . S
C1201 C1200 1.363 . S
C1201 C1204 1.363 . S
N1202 C1204 1.356 . S
N1202 H1214 0.984 . S
N1202 H1215 0.985 . S
N1203 C1205 1.356 . S
N1203 H1208 0.984 . S
N1203 H1209 0.985 . S
C1204 C1198 1.379 . S
C1204 C1201 1.363 . S
C1204 N1202 1.356 . S
C1205 C1199 1.363 . S
C1205 C1200 1.379 . S
C1205 N1203 1.356 . S
N1206 C1198 1.356 . S
N1206 H1212 0.984 . S
N1206 H1213 0.984 . S
N1207 C1200 1.356 . S
N1207 H1210 0.984 . S
N1207 H1211 0.985 . S
H1208 N1203 0.984 . S
H1209 N1203 0.985 . S
H1210 N1207 0.984 . S
H1211 N1207 0.985 . S
H1212 N1206 0.984 . S
H1213 N1206 0.984 . S
H1214 N1202 0.984 . S
H1215 N1202 0.985 . S
C1216 C1217 1.363 . S
C1216 C1222 1.379 . S
C1216 N1224 1.356 . S
C1217 C1216 1.363 . S
C1217 C1223 1.363 . S
C1218 C1219 1.363 . S
C1218 C1223 1.379 . S
C1218 N1225 1.356 . S
C1219 C1218 1.363 . S
C1219 C1222 1.363 . S
N1220 C1222 1.356 . S
N1220 H1232 0.984 . S
N1220 H1233 0.985 . S
N1221 C1223 1.356 . S
N1221 H1226 0.984 . S
N1221 H1227 0.985 . S
C1222 C1216 1.379 . S
C1222 C1219 1.363 . S
C1222 N1220 1.356 . S
C1223 C1217 1.363 . S
C1223 C1218 1.379 . S
C1223 N1221 1.356 . S
N1224 C1216 1.356 . S
N1224 H1230 0.984 . S
N1224 H1231 0.984 . S
N1225 C1218 1.356 . S
N1225 H1228 0.984 . S
N1225 H1229 0.985 . S
H1226 N1221 0.984 . S
H1227 N1221 0.985 . S
H1228 N1225 0.984 . S
H1229 N1225 0.985 . S
H1230 N1224 0.984 . S
H1231 N1224 0.984 . S
H1232 N1220 0.984 . S
H1233 N1220 0.985 . S
C1234 C1235 1.363 . S
C1234 C1240 1.379 . S
C1234 N1242 1.356 . S
C1235 C1234 1.363 . S
C1235 C1241 1.363 . S
C1236 C1237 1.363 . S
C1236 C1241 1.379 . S
C1236 N1243 1.356 . S
C1237 C1236 1.363 . S
C1237 C1240 1.363 . S
N1238 C1240 1.356 . S
N1238 H1250 0.984 . S
N1238 H1251 0.985 . S
N1239 C1241 1.356 . S
N1239 H1244 0.984 . S
N1239 H1245 0.985 . S
C1240 C1234 1.379 . S
C1240 C1237 1.363 . S
C1240 N1238 1.356 . S
C1241 C1235 1.363 . S
C1241 C1236 1.379 . S
C1241 N1239 1.356 . S
N1242 C1234 1.356 . S
N1242 H1248 0.984 . S
N1242 H1249 0.984 . S
N1243 C1236 1.356 . S
N1243 H1246 0.984 . S
N1243 H1247 0.985 . S
H1244 N1239 0.984 . S
H1245 N1239 0.985 . S
H1246 N1243 0.984 . S
H1247 N1243 0.985 . S
H1248 N1242 0.984 . S
H1249 N1242 0.984 . S
H1250 N1238 0.984 . S
H1251 N1238 0.985 . S
C1252 C1253 1.363 . S
C1252 C1258 1.379 . S
C1252 N1260 1.356 . S
C1253 C1252 1.363 . S
C1253 C1259 1.363 . S
C1254 C1255 1.363 . S
C1254 C1259 1.379 . S
C1254 N1261 1.356 . S
C1255 C1254 1.363 . S
C1255 C1258 1.363 . S
N1256 C1258 1.356 . S
N1256 H1268 0.984 . S
N1256 H1269 0.985 . S
N1257 C1259 1.356 . S
N1257 H1262 0.984 . S
N1257 H1263 0.985 . S
C1258 C1252 1.379 . S
C1258 C1255 1.363 . S
C1258 N1256 1.356 . S
C1259 C1253 1.363 . S
C1259 C1254 1.379 . S
C1259 N1257 1.356 . S
N1260 C1252 1.356 . S
N1260 H1266 0.984 . S
N1260 H1267 0.984 . S
N1261 C1254 1.356 . S
N1261 H1264 0.984 . S
N1261 H1265 0.985 . S
H1262 N1257 0.984 . S
H1263 N1257 0.985 . S
H1264 N1261 0.984 . S
H1265 N1261 0.985 . S
H1266 N1260 0.984 . S
H1267 N1260 0.984 . S
H1268 N1256 0.984 . S
H1269 N1256 0.985 . S
C1270 C1271 1.363 . S
C1270 C1276 1.379 . S
C1270 N1278 1.356 . S
C1271 C1270 1.363 . S
C1271 C1277 1.363 . S
C1272 C1273 1.363 . S
C1272 C1277 1.379 . S
C1272 N1279 1.356 . S
C1273 C1272 1.363 . S
C1273 C1276 1.363 . S
N1274 C1276 1.356 . S
N1274 H1286 0.984 . S
N1274 H1287 0.985 . S
N1275 C1277 1.356 . S
N1275 H1280 0.984 . S
N1275 H1281 0.985 . S
C1276 C1270 1.379 . S
C1276 C1273 1.363 . S
C1276 N1274 1.356 . S
C1277 C1271 1.363 . S
C1277 C1272 1.379 . S
C1277 N1275 1.356 . S
N1278 C1270 1.356 . S
N1278 H1284 0.984 . S
N1278 H1285 0.984 . S
N1279 C1272 1.356 . S
N1279 H1282 0.984 . S
N1279 H1283 0.985 . S
H1280 N1275 0.984 . S
H1281 N1275 0.985 . S
H1282 N1279 0.984 . S
H1283 N1279 0.985 . S
H1284 N1278 0.984 . S
H1285 N1278 0.984 . S
H1286 N1274 0.984 . S
H1287 N1274 0.985 . S
C1288 C1289 1.363 . S
C1288 C1294 1.379 . S
C1288 N1296 1.356 . S
C1289 C1288 1.363 . S
C1289 C1295 1.363 . S
C1290 C1291 1.363 . S
C1290 C1295 1.379 . S
C1290 N1297 1.356 . S
C1291 C1290 1.363 . S
C1291 C1294 1.363 . S
N1292 C1294 1.356 . S
N1292 H1304 0.984 . S
N1292 H1305 0.985 . S
N1293 C1295 1.356 . S
N1293 H1298 0.984 . S
N1293 H1299 0.985 . S
C1294 C1288 1.379 . S
C1294 C1291 1.363 . S
C1294 N1292 1.356 . S
C1295 C1289 1.363 . S
C1295 C1290 1.379 . S
C1295 N1293 1.356 . S
N1296 C1288 1.356 . S
N1296 H1302 0.984 . S
N1296 H1303 0.984 . S
N1297 C1290 1.356 . S
N1297 H1300 0.984 . S
N1297 H1301 0.985 . S
H1298 N1293 0.984 . S
H1299 N1293 0.985 . S
H1300 N1297 0.984 . S
H1301 N1297 0.985 . S
H1302 N1296 0.984 . S
H1303 N1296 0.984 . S
H1304 N1292 0.984 . S
H1305 N1292 0.985 . S
C1306 C1307 1.363 . S
C1306 C1312 1.379 . S
C1306 N1314 1.356 . S
C1307 C1306 1.363 . S
C1307 C1313 1.363 . S
C1308 C1309 1.363 . S
C1308 C1313 1.379 . S
C1308 N1315 1.356 . S
C1309 C1308 1.363 . S
C1309 C1312 1.363 . S
N1310 C1312 1.356 . S
N1310 H1322 0.984 . S
N1310 H1323 0.985 . S
N1311 C1313 1.356 . S
N1311 H1316 0.984 . S
N1311 H1317 0.985 . S
C1312 C1306 1.379 . S
C1312 C1309 1.363 . S
C1312 N1310 1.356 . S
C1313 C1307 1.363 . S
C1313 C1308 1.379 . S
C1313 N1311 1.356 . S
N1314 C1306 1.356 . S
N1314 H1320 0.984 . S
N1314 H1321 0.984 . S
N1315 C1308 1.356 . S
N1315 H1318 0.984 . S
N1315 H1319 0.985 . S
H1316 N1311 0.984 . S
H1317 N1311 0.985 . S
H1318 N1315 0.984 . S
H1319 N1315 0.985 . S
H1320 N1314 0.984 . S
H1321 N1314 0.984 . S
H1322 N1310 0.984 . S
H1323 N1310 0.985 . S
C1324 C1325 1.363 . S
C1324 C1330 1.379 . S
C1324 N1332 1.356 . S
C1325 C1324 1.363 . S
C1325 C1331 1.363 . S
C1326 C1327 1.363 . S
C1326 C1331 1.379 . S
C1326 N1333 1.356 . S
C1327 C1326 1.363 . S
C1327 C1330 1.363 . S
N1328 C1330 1.356 . S
N1328 H1340 0.984 . S
N1328 H1341 0.985 . S
N1329 C1331 1.356 . S
N1329 H1334 0.984 . S
N1329 H1335 0.985 . S
C1330 C1324 1.379 . S
C1330 C1327 1.363 . S
C1330 N1328 1.356 . S
C1331 C1325 1.363 . S
C1331 C1326 1.379 . S
C1331 N1329 1.356 . S
N1332 C1324 1.356 . S
N1332 H1338 0.984 . S
N1332 H1339 0.984 . S
N1333 C1326 1.356 . S
N1333 H1336 0.984 . S
N1333 H1337 0.985 . S
H1334 N1329 0.984 . S
H1335 N1329 0.985 . S
H1336 N1333 0.984 . S
H1337 N1333 0.985 . S
H1338 N1332 0.984 . S
H1339 N1332 0.984 . S
H1340 N1328 0.984 . S
H1341 N1328 0.985 . S
C1342 C1343 1.363 . S
C1342 C1348 1.379 . S
C1342 N1350 1.356 . S
C1343 C1342 1.363 . S
C1343 C1349 1.363 . S
C1344 C1345 1.363 . S
C1344 C1349 1.379 . S
C1344 N1351 1.356 . S
C1345 C1344 1.363 . S
C1345 C1348 1.363 . S
N1346 C1348 1.356 . S
N1346 H1358 0.984 . S
N1346 H1359 0.985 . S
N1347 C1349 1.356 . S
N1347 H1352 0.984 . S
N1347 H1353 0.985 . S
C1348 C1342 1.379 . S
C1348 C1345 1.363 . S
C1348 N1346 1.356 . S
C1349 C1343 1.363 . S
C1349 C1344 1.379 . S
C1349 N1347 1.356 . S
N1350 C1342 1.356 . S
N1350 H1356 0.984 . S
N1350 H1357 0.984 . S
N1351 C1344 1.356 . S
N1351 H1354 0.984 . S
N1351 H1355 0.985 . S
H1352 N1347 0.984 . S
H1353 N1347 0.985 . S
H1354 N1351 0.984 . S
H1355 N1351 0.985 . S
H1356 N1350 0.984 . S
H1357 N1350 0.984 . S
H1358 N1346 0.984 . S
H1359 N1346 0.985 . S
C1360 C1361 1.363 . S
C1360 C1366 1.379 . S
C1360 N1368 1.356 . S
C1361 C1360 1.363 . S
C1361 C1367 1.363 . S
C1362 C1363 1.363 . S
C1362 C1367 1.379 . S
C1362 N1369 1.356 . S
C1363 C1362 1.363 . S
C1363 C1366 1.363 . S
N1364 C1366 1.356 . S
N1364 H1376 0.984 . S
N1364 H1377 0.985 . S
N1365 C1367 1.356 . S
N1365 H1370 0.984 1_545 S
N1365 H1371 0.985 . S
C1366 C1360 1.379 . S
C1366 C1363 1.363 . S
C1366 N1364 1.356 . S
C1367 C1361 1.363 . S
C1367 C1362 1.379 . S
C1367 N1365 1.356 . S
N1368 C1360 1.356 . S
N1368 H1374 0.984 . S
N1368 H1375 0.984 1_545 S
N1369 C1362 1.356 . S
N1369 H1372 0.984 . S
N1369 H1373 0.985 . S
H1370 N1365 0.984 1_565 S
H1371 N1365 0.985 . S
H1372 N1369 0.984 . S
H1373 N1369 0.985 . S
H1374 N1368 0.984 . S
H1375 N1368 0.984 1_565 S
H1376 N1364 0.984 . S
H1377 N1364 0.985 . S
C1378 C1379 1.363 . S
C1378 C1384 1.379 . S
C1378 N1386 1.356 . S
C1379 C1378 1.363 . S
C1379 C1385 1.363 . S
C1380 C1381 1.363 . S
C1380 C1385 1.379 . S
C1380 N1387 1.356 . S
C1381 C1380 1.363 . S
C1381 C1384 1.363 . S
N1382 C1384 1.356 1_545 S
N1382 H1394 0.984 . S
N1382 H1395 0.985 . S
N1383 C1385 1.356 . S
N1383 H1388 0.984 . S
N1383 H1389 0.985 . S
C1384 C1378 1.379 . S
C1384 C1381 1.363 . S
C1384 N1382 1.356 1_565 S
C1385 C1379 1.363 . S
C1385 C1380 1.379 . S
C1385 N1383 1.356 . S
N1386 C1378 1.356 . S
N1386 H1392 0.984 . S
N1386 H1393 0.984 . S
N1387 C1380 1.356 . S
N1387 H1390 0.984 . S
N1387 H1391 0.985 . S
H1388 N1383 0.984 . S
H1389 N1383 0.985 . S
H1390 N1387 0.984 . S
H1391 N1387 0.985 . S
H1392 N1386 0.984 . S
H1393 N1386 0.984 . S
H1394 N1382 0.984 . S
H1395 N1382 0.985 . S
C1396 C1397 1.363 . S
C1396 C1402 1.379 . S
C1396 N1404 1.356 . S
C1397 C1396 1.363 . S
C1397 C1403 1.363 . S
C1398 C1399 1.363 . S
C1398 C1403 1.379 . S
C1398 N1405 1.356 . S
C1399 C1398 1.363 . S
C1399 C1402 1.363 . S
N1400 C1402 1.356 . S
N1400 H1412 0.984 . S
N1400 H1413 0.985 . S
N1401 C1403 1.356 . S
N1401 H1406 0.984 1_565 S
N1401 H1407 0.985 . S
C1402 C1396 1.379 . S
C1402 C1399 1.363 . S
C1402 N1400 1.356 . S
C1403 C1397 1.363 . S
C1403 C1398 1.379 . S
C1403 N1401 1.356 . S
N1404 C1396 1.356 . S
N1404 H1410 0.984 . S
N1404 H1411 0.984 1_565 S
N1405 C1398 1.356 . S
N1405 H1408 0.984 . S
N1405 H1409 0.985 . S
H1406 N1401 0.984 1_545 S
H1407 N1401 0.985 . S
H1408 N1405 0.984 . S
H1409 N1405 0.985 . S
H1410 N1404 0.984 . S
H1411 N1404 0.984 1_545 S
H1412 N1400 0.984 . S
H1413 N1400 0.985 . S
C1414 C1415 1.363 . S
C1414 C1420 1.379 . S
C1414 N1422 1.356 . S
C1415 C1414 1.363 . S
C1415 C1421 1.363 . S
C1416 C1417 1.363 . S
C1416 C1421 1.379 . S
C1416 N1423 1.356 . S
C1417 C1416 1.363 . S
C1417 C1420 1.363 . S
N1418 C1420 1.356 . S
N1418 H1430 0.984 . S
N1418 H1431 0.985 . S
N1419 C1421 1.356 . S
N1419 H1424 0.984 1_545 S
N1419 H1425 0.985 . S
C1420 C1414 1.379 . S
C1420 C1417 1.363 . S
C1420 N1418 1.356 . S
C1421 C1415 1.363 . S
C1421 C1416 1.379 . S
C1421 N1419 1.356 . S
N1422 C1414 1.356 . S
N1422 H1428 0.984 . S
N1422 H1429 0.984 1_545 S
N1423 C1416 1.356 . S
N1423 H1426 0.984 . S
N1423 H1427 0.985 . S
H1424 N1419 0.984 1_565 S
H1425 N1419 0.985 . S
H1426 N1423 0.984 . S
H1427 N1423 0.985 . S
H1428 N1422 0.984 . S
H1429 N1422 0.984 1_565 S
H1430 N1418 0.984 . S
H1431 N1418 0.985 . S
C1432 C1433 1.363 . S
C1432 C1438 1.379 . S
C1432 N1440 1.356 . S
C1433 C1432 1.363 . S
C1433 C1439 1.363 . S
C1434 C1435 1.363 . S
C1434 C1439 1.379 . S
C1434 N1441 1.356 1_565 S
C1435 C1434 1.363 . S
C1435 C1438 1.363 . S
N1436 C1438 1.356 . S
N1436 H1448 0.984 . S
N1436 H1449 0.985 . S
N1437 C1439 1.356 . S
N1437 H1442 0.984 . S
N1437 H1443 0.985 . S
C1438 C1432 1.379 . S
C1438 C1435 1.363 . S
C1438 N1436 1.356 . S
C1439 C1433 1.363 . S
C1439 C1434 1.379 . S
C1439 N1437 1.356 . S
N1440 C1432 1.356 . S
N1440 H1446 0.984 . S
N1440 H1447 0.984 . S
N1441 C1434 1.356 1_545 S
N1441 H1444 0.984 . S
N1441 H1445 0.985 . S
H1442 N1437 0.984 . S
H1443 N1437 0.985 . S
H1444 N1441 0.984 . S
H1445 N1441 0.985 . S
H1446 N1440 0.984 . S
H1447 N1440 0.984 . S
H1448 N1436 0.984 . S
H1449 N1436 0.985 . S
C1450 C1451 1.363 . S
C1450 C1456 1.379 . S
C1450 N1458 1.356 . S
C1451 C1450 1.363 . S
C1451 C1457 1.363 . S
C1452 C1453 1.363 . S
C1452 C1457 1.379 . S
C1452 N1459 1.356 1_545 S
C1453 C1452 1.363 . S
C1453 C1456 1.363 . S
N1454 C1456 1.356 . S
N1454 H1466 0.984 . S
N1454 H1467 0.977 1_545 S
N1455 C1457 1.356 . S
N1455 H1460 0.984 . S
N1455 H1461 0.985 . S
C1456 C1450 1.379 . S
C1456 C1453 1.363 . S
C1456 N1454 1.356 . S
C1457 C1451 1.363 . S
C1457 C1452 1.379 . S
C1457 N1455 1.356 . S
N1458 C1450 1.356 . S
N1458 H1464 0.984 . S
N1458 H1465 0.984 . S
N1459 C1452 1.356 1_565 S
N1459 H1462 0.984 . S
N1459 H1463 0.985 . S
H1460 N1455 0.984 . S
H1461 N1455 0.985 . S
H1462 N1459 0.984 . S
H1463 N1459 0.985 . S
H1464 N1458 0.984 . S
H1465 N1458 0.984 . S
H1466 N1454 0.984 . S
H1467 N1454 0.977 1_565 S
C1468 C1469 1.363 . S
C1468 C1474 1.379 . S
C1468 N1476 1.356 . S
C1469 C1468 1.363 . S
C1469 C1475 1.363 . S
C1470 C1471 1.363 . S
C1470 C1475 1.379 . S
C1470 N1477 1.356 . S
C1471 C1470 1.363 . S
C1471 C1474 1.363 . S
N1472 C1474 1.356 . S
N1472 H1484 0.984 . S
N1472 H1485 0.985 . S
N1473 C1475 1.356 1_565 S
N1473 H1478 0.984 . S
N1473 H1479 0.985 . S
C1474 C1468 1.379 . S
C1474 C1471 1.363 . S
C1474 N1472 1.356 . S
C1475 C1469 1.363 . S
C1475 C1470 1.379 . S
C1475 N1473 1.356 1_545 S
N1476 C1468 1.356 . S
N1476 H1482 0.984 . S
N1476 H1483 0.984 . S
N1477 C1470 1.356 . S
N1477 H1480 0.984 . S
N1477 H1481 0.985 . S
H1478 N1473 0.984 . S
H1479 N1473 0.985 . S
H1480 N1477 0.984 . S
H1481 N1477 0.985 . S
H1482 N1476 0.984 . S
H1483 N1476 0.984 . S
H1484 N1472 0.984 . S
H1485 N1472 0.985 . S
C1486 C1487 1.363 . S
C1486 C1492 1.379 . S
C1486 N1494 1.356 . S
C1487 C1486 1.363 . S
C1487 C1493 1.363 . S
C1488 C1489 1.363 . S
C1488 C1493 1.379 . S
C1488 N1495 1.356 . S
C1489 C1488 1.363 . S
C1489 C1492 1.363 . S
N1490 C1492 1.356 . S
N1490 H1502 0.984 . S
N1490 H1503 0.985 1_565 S
N1491 C1493 1.356 . S
N1491 H1496 0.984 . S
N1491 H1497 0.985 . S
C1492 C1486 1.379 . S
C1492 C1489 1.363 . S
C1492 N1490 1.356 . S
C1493 C1487 1.363 . S
C1493 C1488 1.379 . S
C1493 N1491 1.356 . S
N1494 C1486 1.356 . S
N1494 H1500 0.984 . S
N1494 H1501 0.984 . S
N1495 C1488 1.356 . S
N1495 H1498 0.984 1_565 S
N1495 H1499 0.985 . S
H1496 N1491 0.984 . S
H1497 N1491 0.985 . S
H1498 N1495 0.984 1_545 S
H1499 N1495 0.985 . S
H1500 N1494 0.984 . S
H1501 N1494 0.984 . S
H1502 N1490 0.984 . S
H1503 N1490 0.985 1_545 S
C641 C11 1.607 . S
C643 C371 1.607 . S
C659 C51 1.607 . S
C661 C331 1.607 . S
C677 C451 1.607 . S
C679 C91 1.607 . S
C695 C131 1.607 . S
C697 C411 1.607 . S
C713 C522 1.607 . S
C715 C162 1.607 . S
C731 C482 1.607 . S
C733 C202 1.607 . S
C749 C602 1.607 . S
C751 C242 1.607 . S
C767 C282 1.607 . S
C769 C562 1.607 . S
C785 C99 1.778 . S
C787 C19 1.778 . S
C803 C139 1.778 . S
C805 C59 1.778 . S
C821 C250 1.778 . S
C823 C170 1.778 . S
C839 C210 1.778 . S
C841 C290 1.778 . S
C857 C419 1.778 . S
C859 C339 1.778 . S
C875 C459 1.778 . S
C877 C379 1.778 . S
C893 C490 1.778 . S
C895 C570 1.778 . S
C911 C530 1.778 . S
C913 C610 1.778 . S
C929 C219 1.529 . S
C931 C10 1.529 . S
C947 C179 1.529 . S
C949 C50 1.529 . S
C965 C90 1.529 . S
C967 C299 1.529 . S
C983 C259 1.529 . S
C985 C130 1.529 . S
C1001 C330 1.529 . S
C1003 C539 1.529 . S
C1019 C499 1.529 . S
C1021 C370 1.529 . S
C1037 C410 1.529 . S
C1039 C619 1.529 . S
C1055 C579 1.529 . S
C1057 C450 1.529 . S
C1073 C42 1.635 . S
C1075 C2 1.635 . S
C1091 C122 1.635 . S
C1093 C82 1.635 . S
C1109 C211 1.635 . S
C1111 C171 1.635 . S
C1127 C251 1.635 . S
C1129 C291 1.635 . S
C1145 C362 1.635 . S
C1147 C322 1.635 . S
C1163 C442 1.635 . S
C1165 C402 1.635 . S
C1181 C491 1.635 . S
C1183 C531 1.635 . S
C1199 C571 1.635 . S
C1201 C611 1.635 . S
C1217 C7 1.526 . S
C1219 C16 1.526 . S
C1235 C47 1.526 . S
C1237 C56 1.526 . S
C1253 C87 1.526 . S
C1255 C96 1.526 . S
C1271 C136 1.526 . S
C1273 C127 1.526 . S
C1289 C176 1.526 . S
C1291 C167 1.526 . S
C1307 C207 1.526 . S
C1309 C216 1.526 . S
C1325 C256 1.526 . S
C1327 C247 1.526 . S
C1343 C296 1.526 . S
C1345 C287 1.526 . S
C1361 C336 1.526 1_545 S
C1363 C327 1.526 . S
C1379 C367 1.526 . S
C1381 C376 1.526 1_565 S
C1397 C416 1.526 1_565 S
C1399 C407 1.526 . S
C1415 C456 1.526 1_545 S
C1417 C447 1.526 . S
C1433 C496 1.526 . S
C1435 C487 1.526 1_565 S
C1451 C536 1.526 . S
C1453 C527 1.526 1_545 S
C1469 C567 1.526 1_545 S
C1471 C576 1.526 . S
C1487 C616 1.526 . S
C1489 C607 1.526 1_565 S
