# Generated by pormake.
# Topology zfy, (5)-cn, num edge types: 1
# Building blocks:
#     Node 0, Type 0, BuildingBlock: XOMCOT_clean_sbu_1, # of connection points: 5
#     Node 1, Type 0, BuildingBlock: XOMCOT_clean_sbu_1, # of connection points: 5
#     Node 2, Type 0, BuildingBlock: XOMCOT_clean_sbu_1, # of connection points: 5
#     Node 3, Type 0, BuildingBlock: XOMCOT_clean_sbu_1, # of connection points: 5
#     Node 4, Type 0, BuildingBlock: XOMCOT_clean_sbu_1, # of connection points: 5
#     Node 5, Type 0, BuildingBlock: XOMCOT_clean_sbu_1, # of connection points: 5
#     Node 6, Type 0, BuildingBlock: XOMCOT_clean_sbu_1, # of connection points: 5
#     Node 7, Type 0, BuildingBlock: XOMCOT_clean_sbu_1, # of connection points: 5
#     Node 8, Type 0, BuildingBlock: XOMCOT_clean_sbu_1, # of connection points: 5
#     Node 9, Type 0, BuildingBlock: XOMCOT_clean_sbu_1, # of connection points: 5
#     Node 10, Type 0, BuildingBlock: XOMCOT_clean_sbu_1, # of connection points: 5
#     Node 11, Type 0, BuildingBlock: XOMCOT_clean_sbu_1, # of connection points: 5
#     Node 12, Type 0, BuildingBlock: XOMCOT_clean_sbu_1, # of connection points: 5
#     Node 13, Type 0, BuildingBlock: XOMCOT_clean_sbu_1, # of connection points: 5
#     Node 14, Type 0, BuildingBlock: XOMCOT_clean_sbu_1, # of connection points: 5
#     Node 15, Type 0, BuildingBlock: XOMCOT_clean_sbu_1, # of connection points: 5
#     Edge 16, Type (0, 0), BuildingBlock: XUDNAN_clean_linker_2, # of connection points: 2
#     Edge 17, Type (0, 0), BuildingBlock: XUDNAN_clean_linker_2, # of connection points: 2
#     Edge 18, Type (0, 0), BuildingBlock: XUDNAN_clean_linker_2, # of connection points: 2
#     Edge 19, Type (0, 0), BuildingBlock: XUDNAN_clean_linker_2, # of connection points: 2
#     Edge 20, Type (0, 0), BuildingBlock: XUDNAN_clean_linker_2, # of connection points: 2
#     Edge 21, Type (0, 0), BuildingBlock: XUDNAN_clean_linker_2, # of connection points: 2
#     Edge 22, Type (0, 0), BuildingBlock: XUDNAN_clean_linker_2, # of connection points: 2
#     Edge 23, Type (0, 0), BuildingBlock: XUDNAN_clean_linker_2, # of connection points: 2
#     Edge 24, Type (0, 0), BuildingBlock: XUDNAN_clean_linker_2, # of connection points: 2
#     Edge 25, Type (0, 0), BuildingBlock: XUDNAN_clean_linker_2, # of connection points: 2
#     Edge 26, Type (0, 0), BuildingBlock: XUDNAN_clean_linker_2, # of connection points: 2
#     Edge 27, Type (0, 0), BuildingBlock: XUDNAN_clean_linker_2, # of connection points: 2
#     Edge 28, Type (0, 0), BuildingBlock: XUDNAN_clean_linker_2, # of connection points: 2
#     Edge 29, Type (0, 0), BuildingBlock: XUDNAN_clean_linker_2, # of connection points: 2
#     Edge 30, Type (0, 0), BuildingBlock: XUDNAN_clean_linker_2, # of connection points: 2
#     Edge 31, Type (0, 0), BuildingBlock: XUDNAN_clean_linker_2, # of connection points: 2
#     Edge 32, Type (0, 0), BuildingBlock: XUDNAN_clean_linker_2, # of connection points: 2
#     Edge 33, Type (0, 0), BuildingBlock: XUDNAN_clean_linker_2, # of connection points: 2
#     Edge 34, Type (0, 0), BuildingBlock: XUDNAN_clean_linker_2, # of connection points: 2
#     Edge 35, Type (0, 0), BuildingBlock: XUDNAN_clean_linker_2, # of connection points: 2
#     Edge 36, Type (0, 0), BuildingBlock: XUDNAN_clean_linker_2, # of connection points: 2
#     Edge 37, Type (0, 0), BuildingBlock: XUDNAN_clean_linker_2, # of connection points: 2
#     Edge 38, Type (0, 0), BuildingBlock: XUDNAN_clean_linker_2, # of connection points: 2
#     Edge 39, Type (0, 0), BuildingBlock: XUDNAN_clean_linker_2, # of connection points: 2
#     Edge 40, Type (0, 0), BuildingBlock: XUDNAN_clean_linker_2, # of connection points: 2
#     Edge 41, Type (0, 0), BuildingBlock: XUDNAN_clean_linker_2, # of connection points: 2
#     Edge 42, Type (0, 0), BuildingBlock: XUDNAN_clean_linker_2, # of connection points: 2
#     Edge 43, Type (0, 0), BuildingBlock: XUDNAN_clean_linker_2, # of connection points: 2
#     Edge 44, Type (0, 0), BuildingBlock: XUDNAN_clean_linker_2, # of connection points: 2
#     Edge 45, Type (0, 0), BuildingBlock: XUDNAN_clean_linker_2, # of connection points: 2
#     Edge 46, Type (0, 0), BuildingBlock: XUDNAN_clean_linker_2, # of connection points: 2
#     Edge 47, Type (0, 0), BuildingBlock: XUDNAN_clean_linker_2, # of connection points: 2
#     Edge 48, Type (0, 0), BuildingBlock: XUDNAN_clean_linker_2, # of connection points: 2
#     Edge 49, Type (0, 0), BuildingBlock: XUDNAN_clean_linker_2, # of connection points: 2
#     Edge 50, Type (0, 0), BuildingBlock: XUDNAN_clean_linker_2, # of connection points: 2
#     Edge 51, Type (0, 0), BuildingBlock: XUDNAN_clean_linker_2, # of connection points: 2
#     Edge 52, Type (0, 0), BuildingBlock: XUDNAN_clean_linker_2, # of connection points: 2
#     Edge 53, Type (0, 0), BuildingBlock: XUDNAN_clean_linker_2, # of connection points: 2
#     Edge 54, Type (0, 0), BuildingBlock: XUDNAN_clean_linker_2, # of connection points: 2
#     Edge 55, Type (0, 0), BuildingBlock: XUDNAN_clean_linker_2, # of connection points: 2
# Relax obj value: 0.139
# Max RMSD: 0.187
# Mean RMSD: 0.187
data_MOF--net-zfy--node1-XOMCOT_clean_sbu_1--edge1-XUDNAN_clean_linker_2
_symmetry_space_group_name_H-M    P1
_symmetry_Int_Tables_number       1
_symmetry_cell_setting            triclinic
loop_
_symmetry_equiv_pos_as_xyz
'x, y, z'
_cell_length_a     50.687993
_cell_length_b     50.578511
_cell_length_c     31.39056
_cell_angle_alpha  89.842376
_cell_angle_beta   90.101512
_cell_angle_gamma 89.965403
loop_
_atom_site_label
_atom_site_type_symbol
_atom_site_fract_x
_atom_site_fract_y
_atom_site_fract_z
_atom_type_partial_charge
C0 C 0.28323 0.25773 0.07217 0.0
C1 C 0.27496 0.26493 0.11215 0.0
N2 N 0.28305 0.24644 0.14027 0.0
N3 N 0.29628 0.23449 0.07406 0.0
C4 C 0.29628 0.22849 0.11629 0.0
H5 H 0.27961 0.26878 0.04325 0.0
Co6 Co 0.31158 0.21866 1.02458 0.0
C7 C 0.32476 0.17399 0.08427 0.0
O8 O 0.29971 0.16884 0.09101 0.0
N9 N 0.32715 0.20454 0.97536 0.0
C10 C 0.33364 0.19125 0.90868 0.0
C11 C 0.3155 0.20127 0.93702 0.0
C12 C 0.35257 0.19723 0.96919 0.0
N13 N 0.35695 0.18893 0.92894 0.0
O14 O 0.34031 0.24335 0.02788 0.0
H15 H 0.29511 0.20594 0.93015 0.0
H16 H 0.36761 0.19809 0.99368 0.0
O17 O 0.33142 0.19317 0.05982 0.0
C18 C 0.33599 0.26334 1.00402 0.0
O19 O 0.31352 0.26462 0.9832 0.0
N20 N 0.28208 0.1954 1.01778 0.0
C21 C 0.23758 0.16568 0.99548 0.0
C22 C 0.26275 0.1543 0.99439 0.0
C23 C 0.28479 0.16951 1.00564 0.0
C24 C 0.25761 0.20674 1.01762 0.0
C25 C 0.2351 0.19211 1.0076 0.0
H26 H 0.30416 0.16066 1.00352 0.0
H27 H 0.25529 0.22756 1.02347 0.0
H28 H 0.30623 0.21165 0.1296 0.0
H29 H 0.26404 0.28269 0.11955 0.0
H30 H 0.33019 0.18663 0.87548 0.0
H31 H 0.26535 0.13395 0.98461 0.0
H32 H 0.21596 0.20166 1.00779 0.0
C33 C 0.52207 0.52628 0.31769 0.0
C34 C 0.5162 0.5182 0.35854 0.0
N35 N 0.53157 0.53172 0.38597 0.0
N36 N 0.54098 0.54497 0.31898 0.0
C37 C 0.54637 0.54786 0.36104 0.0
H38 H 0.51359 0.51846 0.28872 0.0
Co39 Co 0.55653 0.56028 0.2704 0.0
C40 C 0.60706 0.58372 0.30055 0.0
O41 O 0.61848 0.57593 0.2652 0.0
N42 N 0.57173 0.5762 0.22079 0.0
C43 C 0.59073 0.58478 0.15813 0.0
C44 C 0.58125 0.56532 0.18453 0.0
C45 C 0.57521 0.60261 0.21467 0.0
N46 N 0.58688 0.60822 0.17704 0.0
O47 O 0.53286 0.58998 0.27381 0.0
H48 H 0.58171 0.54464 0.1768 0.0
H49 H 0.57012 0.61744 0.23804 0.0
O50 O 0.58261 0.57858 0.30668 0.0
C51 C 0.5112 0.58559 0.25429 0.0
O52 O 0.507 0.56183 0.23891 0.0
N53 N 0.57761 0.52957 0.26486 0.0
C54 C 0.6058 0.48337 0.24518 0.0
C55 C 0.6123 0.49878 0.28116 0.0
C56 C 0.59789 0.5217 0.29057 0.0
C57 C 0.56859 0.51289 0.23411 0.0
C58 C 0.58285 0.49036 0.22258 0.0
H59 H 0.60305 0.53289 0.3186 0.0
H60 H 0.55101 0.51811 0.21636 0.0
H61 H 0.56105 0.56134 0.3732 0.0
H62 H 0.50234 0.50282 0.36712 0.0
H63 H 0.59971 0.58193 0.1272 0.0
H64 H 0.62844 0.49342 0.30204 0.0
H65 H 0.57624 0.47934 0.19513 0.0
C66 C 0.25659 0.788 0.55268 0.0
C67 C 0.26622 0.77766 0.59013 0.0
N68 N 0.24642 0.77675 0.61855 0.0
N69 N 0.23088 0.79434 0.55749 0.0
C70 C 0.22503 0.78636 0.59773 0.0
H71 H 0.26803 0.79155 0.52423 0.0
Co72 Co 0.21018 0.81297 0.51687 0.0
C73 C 0.20038 0.84663 0.59734 0.0
O74 O 0.22225 0.84109 0.61805 0.0
N75 N 0.18934 0.8321 0.47713 0.0
C76 C 0.17051 0.86758 0.44796 0.0
C77 C 0.19056 0.85871 0.47347 0.0
C78 C 0.16809 0.82528 0.45303 0.0
N79 N 0.15623 0.84666 0.43526 0.0
O80 O 0.1813 0.78847 0.52523 0.0
H81 H 0.2041 0.8713 0.4906 0.0
H82 H 0.16037 0.80541 0.45089 0.0
O83 O 0.19592 0.83658 0.56067 0.0
C84 C 0.18583 0.76582 0.50874 0.0
O85 O 0.20941 0.7612 0.49309 0.0
N86 N 0.23944 0.83496 0.50382 0.0
C87 C 0.28432 0.86018 0.47085 0.0
C88 C 0.27393 0.8674 0.51069 0.0
C89 C 0.25141 0.85459 0.52662 0.0
C90 C 0.24928 0.82779 0.46515 0.0
C91 C 0.27156 0.84006 0.44811 0.0
H92 H 0.24378 0.86077 0.55683 0.0
H93 H 0.23983 0.81203 0.44759 0.0
H94 H 0.20593 0.78915 0.61241 0.0
H95 H 0.28643 0.77188 0.59643 0.0
H96 H 0.16586 0.88806 0.44112 0.0
H97 H 0.28291 0.88304 0.52919 0.0
H98 H 0.27898 0.8334 0.41765 0.0
C99 C 0.99365 0.49462 0.79975 0.0
C100 C 1.00468 0.50423 0.83662 0.0
N101 N 0.99512 0.49034 0.86999 0.0
N102 N 0.97723 0.47458 0.80933 0.0
C103 C 0.97856 0.47236 0.85234 0.0
H104 H 0.99723 0.5019 0.76785 0.0
Co105 Co 0.95729 0.45583 0.76902 0.0
C106 C 0.92872 0.42278 0.83209 0.0
O107 O 0.94461 0.40268 0.82571 0.0
N108 N 0.93676 0.43684 0.72927 0.0
C109 C 0.90091 0.42126 0.69717 0.0
C110 C 0.91034 0.43938 0.72571 0.0
C111 C 0.94289 0.41673 0.7025 0.0
N112 N 0.92132 0.40688 0.68246 0.0
O113 O 0.97997 0.42557 0.77641 0.0
H114 H 0.89838 0.45285 0.74413 0.0
H115 H 0.96263 0.40903 0.6985 0.0
O116 O 0.93262 0.44464 0.81273 0.0
C117 C 1.00087 0.42973 0.75479 0.0
O118 O 1.00291 0.45209 0.73366 0.0
N119 N 0.93751 0.48653 0.75801 0.0
C120 C 0.91262 0.53327 0.73193 0.0
C121 C 0.90845 0.52288 0.77303 0.0
C122 C 0.92132 0.49953 0.78568 0.0
C123 C 0.94205 0.49648 0.71836 0.0
C124 C 0.92973 0.51964 0.70458 0.0
H125 H 0.9185 0.49211 0.81766 0.0
H126 H 0.95535 0.4862 0.69716 0.0
H127 H 0.96721 0.45815 0.87038 0.0
H128 H 0.01878 0.52023 0.83834 0.0
H129 H 0.88032 0.41806 0.68966 0.0
H130 H 0.89575 0.53294 0.79548 0.0
H131 H 0.93338 0.52659 0.67247 0.0
C132 C 0.71508 0.75996 0.96988 0.0
C133 C 0.72349 0.75528 0.92902 0.0
N134 N 0.73005 0.77852 0.91117 0.0
N135 N 0.71586 0.78618 0.97788 0.0
C136 C 0.72546 0.79699 0.94142 0.0
H137 H 0.70872 0.74495 0.99205 0.0
Co138 Co 0.70431 0.80251 0.02855 0.0
C139 C 0.66342 0.83318 0.97909 0.0
O140 O 0.64422 0.81644 0.98692 0.0
N141 N 0.69276 0.81825 0.07906 0.0
C142 C 0.69025 0.82789 0.14798 0.0
C143 C 0.7061 0.81795 0.11626 0.0
C144 C 0.66885 0.82841 0.08892 0.0
N145 N 0.66678 0.83439 0.13071 0.0
O146 O 0.67375 0.77979 0.0306 0.0
H147 H 0.72579 0.81008 0.12035 0.0
H148 H 0.65272 0.83002 0.06654 0.0
O149 O 0.68642 0.82909 0.99426 0.0
C150 C 0.67811 0.76061 0.0562 0.0
O151 O 0.70167 0.75844 0.07342 0.0
N152 N 0.73496 0.82336 0.03036 0.0
C153 C 0.77877 0.85138 0.06012 0.0
C154 C 0.75636 0.8647 0.04461 0.0
C155 C 0.73454 0.85036 0.03028 0.0
C156 C 0.75728 0.81007 0.04185 0.0
C157 C 0.77947 0.8237 0.05682 0.0
H158 H 0.71673 0.86105 1.02249 0.0
H159 H 0.75709 0.78869 0.04278 0.0
H160 H 0.72854 0.81798 0.93684 0.0
H161 H 0.72497 0.73619 0.91366 0.0
H162 H 0.69548 0.82982 0.18127 0.0
H163 H 0.75506 0.88606 0.04584 0.0
H164 H 0.79616 0.81251 0.0687 0.0
C165 C 0.50584 0.49321 0.76091 0.0
C166 C 0.51891 0.50405 0.7267 0.0
N167 N 0.50967 0.4929 0.69064 0.0
N168 N 0.48839 0.47516 0.74685 0.0
C169 C 0.49112 0.47543 0.70384 0.0
H170 H 0.50847 0.49856 0.79397 0.0
Co171 Co 0.46504 0.45662 0.78234 0.0
C172 C 0.43681 0.42269 0.72222 0.0
O173 O 0.44499 0.40215 0.74429 0.0
N174 N 0.4409 0.43802 0.81764 0.0
C175 C 0.40229 0.42354 0.84178 0.0
C176 C 0.41447 0.4407 0.81438 0.0
C177 C 0.44421 0.41894 0.84769 0.0
N178 N 0.42093 0.40973 0.8629 0.0
O179 O 0.48791 0.4261 0.78045 0.0
H180 H 0.4045 0.45368 0.79216 0.0
H181 H 0.46322 0.41158 0.85785 0.0
O182 O 0.44429 0.44583 0.73297 0.0
C183 C 0.50403 0.4291 0.81151 0.0
O184 O 0.50181 0.45061 0.83464 0.0
N185 N 0.44524 0.48737 0.78911 0.0
C186 C 0.41917 0.53321 0.81461 0.0
C187 C 0.41675 0.52396 0.77252 0.0
C188 C 0.4301 0.5008 0.76024 0.0
C189 C 0.44856 0.49671 0.82934 0.0
C190 C 0.43569 0.51942 0.84279 0.0
H191 H 0.4282 0.49367 0.72796 0.0
H192 H 0.46121 0.48615 0.85134 0.0
H193 H 0.47974 0.46309 0.68256 0.0
H194 H 0.53361 0.51953 0.72833 0.0
H195 H 0.3812 0.4207 0.84435 0.0
H196 H 0.40438 0.53423 0.74968 0.0
H197 H 0.43878 0.5262 0.87512 0.0
C198 C 0.78413 0.24685 0.49364 0.0
C199 C 0.77567 0.25319 0.45327 0.0
N200 N 0.78695 0.23638 0.42549 0.0
N201 N 0.8008 0.2261 0.49192 0.0
C202 C 0.80214 0.22014 0.44985 0.0
H203 H 0.77836 0.25684 0.52255 0.0
Co204 Co 0.81654 0.21087 0.54073 0.0
C205 C 0.84014 0.15951 0.50985 0.0
O206 O 0.83591 0.14748 0.54637 0.0
N207 N 0.83231 0.19665 0.59071 0.0
C208 C 0.83948 0.18758 0.65928 0.0
C209 C 0.8209 0.19455 0.62945 0.0
C210 C 0.85814 0.19101 0.59823 0.0
N211 N 0.86295 0.18543 0.63976 0.0
O212 O 0.84702 0.23314 0.53382 0.0
H213 H 0.80059 0.19891 0.63665 0.0
H214 H 0.87332 0.19212 0.57407 0.0
O215 O 0.83293 0.18357 0.50487 0.0
C216 C 0.84315 0.25502 0.55291 0.0
O217 O 0.82024 0.259 0.57129 0.0
N218 N 0.78517 0.19149 0.55026 0.0
C219 C 0.7363 0.17166 0.5775 0.0
C220 C 0.75281 0.15663 0.55081 0.0
C221 C 0.77709 0.16708 0.53695 0.0
C222 C 0.76871 0.20672 0.57412 0.0
C223 C 0.74456 0.19719 0.5885 0.0
H224 H 0.78898 0.15553 0.51555 0.0
H225 H 0.77503 0.22623 0.58375 0.0
H226 H 0.81377 0.20402 0.43735 0.0
H227 H 0.76255 0.26931 0.44511 0.0
H228 H 0.83603 0.18473 0.69301 0.0
H229 H 0.74696 0.13709 0.54046 0.0
H230 H 0.73289 0.20958 0.60929 0.0
C231 C 0.04303 0.59678 0.19019 0.0
C232 C 0.03573 0.58756 0.15111 0.0
N233 N 0.03714 0.56104 0.15164 0.0
N234 N 0.04891 0.57643 0.21662 0.0
C235 C 0.045 0.55466 0.1918 0.0
H236 H 0.04491 0.61747 0.19808 0.0
Co237 Co 0.06214 0.58433 0.27274 0.0
C238 C 0.10548 0.59706 0.21465 0.0
O239 O 0.10333 0.57314 0.19881 0.0
N240 N 0.07506 0.59383 0.32683 0.0
C241 C 0.08885 0.5951 0.39425 0.0
C242 C 0.07922 0.57909 0.36217 0.0
C243 C 0.0817 0.61871 0.33854 0.0
N244 N 0.09014 0.62001 0.37926 0.0
O245 O 0.04006 0.61528 0.27472 0.0
H246 H 0.07548 0.5581 0.36461 0.0
H247 H 0.08047 0.63565 0.31747 0.0
O248 O 0.09078 0.60418 0.24569 0.0
C249 C 0.01657 0.60892 0.28486 0.0
O250 O 1.0108 0.58367 0.28823 0.0
N251 N 0.0816 0.55244 0.27564 0.0
C252 C 0.10171 0.50469 0.30775 0.0
C253 C 0.11852 0.52623 0.29972 0.0
C254 C 0.10799 0.55015 0.28427 0.0
C255 C 0.06529 0.53141 0.28205 0.0
C256 C 0.07493 0.50733 0.29721 0.0
H257 H 0.12064 0.56732 0.2829 0.0
H258 H 0.04422 0.53391 0.27826 0.0
H259 H 0.04891 0.53461 0.20192 0.0
H260 H 0.03006 0.59967 0.12412 0.0
H261 H 0.09395 0.58904 0.42633 0.0
H262 H 0.13918 0.5253 0.30842 0.0
H263 H 0.06118 0.49132 0.30288 0.0
C264 C 0.77195 0.74879 0.54594 0.0
C265 C 0.76198 0.75953 0.58286 0.0
N266 N 0.78029 0.75698 0.6137 0.0
N267 N 0.79629 0.73906 0.55365 0.0
C268 C 0.80098 0.7447 0.59515 0.0
H269 H 0.76173 0.74731 0.51577 0.0
Co270 Co 0.81674 0.71905 0.51585 0.0
C271 C 0.85194 0.69017 0.57383 0.0
O272 O 0.87205 0.70031 0.55312 0.0
N273 N 0.83746 0.69828 0.47844 0.0
C274 C 0.8545 0.66222 0.44878 0.0
C275 C 0.83624 0.67161 0.47704 0.0
C276 C 0.85696 0.70459 0.45063 0.0
N277 N 0.86762 0.68292 0.43212 0.0
O278 O 0.84535 0.74391 0.52237 0.0
H279 H 0.82344 0.65952 0.49652 0.0
H280 H 0.86357 0.72453 0.44442 0.0
O281 O 0.82849 0.6967 0.56311 0.0
C282 C 0.8414 0.76177 0.49415 0.0
O283 O 0.8202 0.75978 0.47019 0.0
N284 N 0.78762 0.69716 0.50509 0.0
C285 C 0.74367 0.66896 0.47636 0.0
C286 C 0.75265 0.6662 0.51864 0.0
C287 C 0.7748 0.68058 0.53251 0.0
C288 C 0.7787 0.70058 0.46452 0.0
C289 C 0.75697 0.68663 0.44946 0.0
H290 H 0.78151 0.67852 0.56506 0.0
H291 H 0.78868 0.71435 0.44362 0.0
H292 H 0.81872 0.73888 0.61198 0.0
H293 H 0.74261 0.7682 0.58695 0.0
H294 H 0.8586 0.6416 0.44247 0.0
H295 H 0.74285 0.6529 0.54057 0.0
H296 H 0.75041 0.69001 0.41704 0.0
C297 C 0.03243 0.02592 0.79813 0.0
C298 C 0.01869 0.01591 0.83229 0.0
N299 N 0.01573 0.0352 0.86135 0.0
N300 N 0.03889 0.05138 0.8057 0.0
C301 C 0.0273 0.05678 0.84376 0.0
H302 H 0.0384 0.01478 0.77045 0.0
Co303 Co 0.06206 0.07244 0.77188 0.0
C304 C 0.08843 0.07434 0.85964 0.0
O305 O 0.07771 0.05247 0.87408 0.0
N306 N 0.08538 0.09371 0.73875 0.0
C307 C 0.12377 0.10944 0.71565 0.0
C308 C 0.11182 0.09069 0.74044 0.0
C309 C 0.08185 0.11494 0.71257 0.0
N310 N 0.10505 0.12505 0.69827 0.0
O311 O 0.03855 0.10211 0.77867 0.0
H312 H 0.12205 0.07606 0.75941 0.0
H313 H 0.06279 0.12342 0.70528 0.0
O314 O 0.08338 0.08261 0.82193 0.0
C315 C 0.02211 0.09974 0.74791 0.0
O316 O 0.02488 0.07943 0.72227 0.0
N317 N 0.08289 0.04236 0.75935 0.0
C318 C 0.10444 0.99602 0.72517 0.0
C319 C 0.11015 1.00362 0.76727 0.0
C320 C 0.09911 0.02695 0.7839 0.0
C321 C 0.0781 0.0357 0.71805 0.0
C322 C 0.0887 1.01287 0.70034 0.0
H323 H 0.1034 0.03209 0.81635 0.0
H324 H 0.06535 0.04806 0.69882 0.0
H325 H 0.02948 0.07548 0.8601 0.0
H326 H 0.0123 0.99563 0.83626 0.0
H327 H 0.14483 0.11139 0.71121 0.0
H328 H 0.12231 0.99126 0.78757 0.0
H329 H 0.08427 1.00835 0.66739 0.0
C330 C 0.73356 0.25982 0.05465 0.0
C331 C 0.7455 0.24733 0.08822 0.0
N332 N 0.73939 0.26031 0.1242 0.0
N333 N 0.72007 0.2812 0.06823 0.0
C334 C 0.7231 0.28017 0.11145 0.0
H335 H 0.73483 0.25351 1.02189 0.0
Co336 Co 0.70147 0.30162 1.02613 0.0
C337 C 0.7013 0.33937 0.09779 0.0
O338 O 0.72693 0.33551 0.09944 0.0
N339 N 0.68335 0.31932 0.98234 0.0
C340 C 0.6748 0.32848 0.91443 0.0
C341 C 0.69353 0.31979 0.94267 0.0
C342 C 0.65811 0.32781 0.9774 0.0
N343 N 0.65247 0.33338 0.93607 0.0
O344 O 0.67147 0.27866 0.03266 0.0
H345 H 0.71296 0.31266 0.93439 0.0
H346 H 0.64367 0.32789 1.00277 0.0
O347 O 0.68759 0.32674 0.07001 0.0
C348 C 0.67244 0.25987 1.00562 0.0
O349 O 0.69277 0.25843 0.97989 0.0
N350 N 0.73155 0.32353 1.01521 0.0
C351 C 0.77333 0.35453 0.9836 0.0
C352 C 0.75006 0.36625 0.99886 0.0
C353 C 0.72921 0.35047 1.013 0.0
C354 C 0.75403 0.3118 1.00063 0.0
C355 C 0.77506 0.32681 0.98494 0.0
H356 H 0.71078 0.36 1.02092 0.0
H357 H 0.75527 0.29065 0.99812 0.0
H358 H 0.71362 0.29348 0.13344 0.0
H359 H 0.75766 0.2298 0.08606 0.0
H360 H 0.67706 0.33008 0.88022 0.0
H361 H 0.74745 0.38748 0.99892 0.0
H362 H 0.7919 0.31649 0.97191 0.0
C363 C 0.51483 0.99093 0.30084 0.0
C364 C 0.52567 0.99874 0.33872 0.0
N365 N 0.51058 0.98948 0.3707 0.0
N366 N 0.49284 0.97677 0.30831 0.0
C367 C 0.49055 0.97629 0.35143 0.0
H368 H 0.52273 0.99499 0.26954 0.0
Co369 Co 0.47494 0.96217 0.26193 0.0
C370 C 0.42472 0.93888 0.29401 0.0
O371 O 0.41341 0.94517 0.25767 0.0
N372 N 0.45827 0.94745 0.21308 0.0
C373 C 0.44537 0.94123 0.14592 0.0
C374 C 0.45283 0.95963 0.17566 0.0
C375 C 0.45394 0.92146 0.2049 0.0
N376 N 0.44616 0.91722 0.16428 0.0
O377 O 0.49773 0.93174 0.26448 0.0
H378 H 0.45516 0.98039 0.16906 0.0
H379 H 0.45754 0.90581 0.22779 0.0
O380 O 0.44895 0.94509 0.30046 0.0
C381 C 0.51505 0.93372 0.23513 0.0
O382 O 0.51456 0.95478 0.2105 0.0
N383 N 0.45527 0.99366 0.25687 0.0
C384 C 0.43301 0.04243 0.23483 0.0
C385 C 0.42061 0.02576 0.26463 0.0
C386 C 0.43239 1.00159 0.27598 0.0
C387 C 0.46843 1.01056 0.2306 0.0
C388 C 0.45758 0.03473 0.21867 0.0
H389 H 0.42302 0.98963 0.29999 0.0
H390 H 0.48704 1.0045 0.21694 0.0
H391 H 0.47513 0.96586 0.36833 0.0
H392 H 0.5435 1.0103 0.34246 0.0
H393 H 0.44017 0.94517 0.11305 0.0
H394 H 0.40206 0.03136 0.27908 0.0
H395 H 0.46797 0.04676 0.19557 0.0
C396 C 0.24765 0.29385 0.50575 0.0
C397 C 0.25886 0.27977 0.47314 0.0
N398 N 0.24186 0.2794 0.44014 0.0
N399 N 0.22369 0.30271 0.4936 0.0
C400 C 0.22046 0.29307 0.45362 0.0
H401 H 0.25658 0.29759 0.53644 0.0
Co402 Co 0.20198 0.32305 0.52965 0.0
C403 C 0.19091 0.35251 0.44404 0.0
O404 O 0.21183 0.3455 0.42218 0.0
N405 N 0.18033 0.34351 0.56565 0.0
C406 C 0.16113 0.37924 0.59262 0.0
C407 C 0.17927 0.37016 0.56388 0.0
C408 C 0.16233 0.33684 0.59578 0.0
N409 N 0.15041 0.35834 0.6128 0.0
O410 O 0.17431 0.29672 0.52511 0.0
H411 H 0.19062 0.38232 0.54226 0.0
H412 H 0.15787 0.31672 0.60495 0.0
O413 O 0.18756 0.34406 0.48213 0.0
C414 C 0.18069 0.27939 0.55308 0.0
O415 O 0.20277 0.28317 0.57428 0.0
N416 N 0.2303 0.34659 0.53957 0.0
C417 C 0.27643 0.37203 0.56672 0.0
C418 C 0.26679 0.37565 0.52507 0.0
C419 C 0.24371 0.3626 0.51198 0.0
C420 C 0.23901 0.34356 0.5804 0.0
C421 C 0.26182 0.35612 0.59466 0.0
H422 H 0.23736 0.36486 0.47957 0.0
H423 H 0.22848 0.33056 0.60185 0.0
H424 H 0.20277 0.29588 0.43481 0.0
H425 H 0.27838 0.27107 0.47332 0.0
H426 H 0.15557 0.39971 0.59715 0.0
H427 H 0.2775 0.38765 0.50231 0.0
H428 H 0.26809 0.35308 0.6273 0.0
C429 C 1.00447 0.96475 0.21512 0.0
C430 C 1.00937 0.97341 0.17443 0.0
N431 N 0.98638 0.98066 0.15648 0.0
N432 N 0.97835 0.966 0.2232 0.0
C433 C 0.96779 0.9762 0.18677 0.0
H434 H 0.01928 0.95794 0.23734 0.0
Co435 Co 0.96323 0.95441 0.27542 0.0
C436 C 0.93432 0.91985 0.21478 0.0
O437 O 0.95637 0.90985 0.19991 0.0
N438 N 0.94888 0.94265 0.32735 0.0
C439 C 0.94153 0.9395 0.39695 0.0
C440 C 0.95039 0.95568 0.36469 0.0
C441 C 0.93894 0.91861 0.33763 0.0
N442 N 0.93441 0.91612 0.37994 0.0
O443 O 0.98568 0.92319 0.27553 0.0
H444 H 0.9584 0.97536 0.36837 0.0
H445 H 0.93648 0.90275 0.31487 0.0
O446 O 0.93509 0.93696 0.24453 0.0
C447 C 1.00373 0.92726 0.30326 0.0
O448 O 1.00481 0.95073 0.3211 0.0
N449 N 0.94292 0.98561 0.27924 0.0
C450 C 0.91812 0.03123 0.30981 0.0
C451 C 0.90392 1.00765 0.30448 0.0
C452 C 0.91663 0.98508 0.28889 0.0
C453 C 0.95675 1.00865 0.28237 0.0
C454 C 0.94464 0.03179 0.29705 0.0
H455 H 0.90591 0.96665 0.28828 0.0
H456 H 0.97774 1.0087 0.27623 0.0
H457 H 0.94692 0.97983 0.18229 0.0
H458 H 0.02851 0.97464 0.15928 0.0
H459 H 0.94078 0.94443 0.43046 0.0
H460 H 0.88342 1.00638 0.31398 0.0
H461 H 0.9564 0.04948 0.3011 0.0
C462 C 0.3169 0.77006 0.97571 0.0
C463 C 0.30745 0.77688 0.93603 0.0
N464 N 0.29967 0.7547 0.91605 0.0
N465 N 0.31549 0.7436 0.98071 0.0
C466 C 0.30464 0.73479 0.94383 0.0
H467 H 0.32446 0.78363 0.9993 0.0
Co468 Co 0.32734 0.72456 0.0286 0.0
C469 C 0.34577 0.67268 0.99514 0.0
O470 O 0.33888 0.66113 0.03096 0.0
N471 N 0.33975 0.70547 0.0775 0.0
C472 C 0.34289 0.68256 0.13818 0.0
C473 C 0.32587 0.69451 0.10985 0.0
C474 C 0.36529 0.70014 0.08763 0.0
N475 N 0.36767 0.68623 0.12424 0.0
O476 O 0.35991 0.74426 0.02787 0.0
H477 H 0.3047 0.69476 0.11304 0.0
H478 H 0.38187 0.70579 0.06795 0.0
O479 O 0.34191 0.69751 0.99021 0.0
C480 C 0.359 0.76071 0.0587 0.0
O481 O 0.33778 0.76104 0.08272 0.0
N482 N 0.29412 0.70851 0.03256 0.0
C483 C 0.24401 0.69193 0.05811 0.0
C484 C 0.25885 0.67693 0.02895 0.0
C485 C 0.28387 0.68575 1.01609 0.0
C486 C 0.27908 0.7243 0.05781 0.0
C487 C 0.25427 0.71628 0.07149 0.0
H488 H 0.29473 0.67413 0.99341 0.0
H489 H 0.28722 0.74265 0.06957 0.0
H490 H 0.30093 0.71415 0.93711 0.0
H491 H 0.3061 0.79668 0.92301 0.0
H492 H 0.33746 0.67219 0.16708 0.0
H493 H 0.25135 0.65846 1.01652 0.0
H494 H 0.24393 0.7286 0.09412 0.0
C495 C 0.51012 0.03799 0.73928 0.0
C496 C 0.50394 0.02882 0.69926 0.0
N497 N 0.52332 0.03606 0.67253 0.0
N498 N 0.53352 0.05081 0.73848 0.0
C499 C 0.54067 0.04973 0.69683 0.0
H500 H 0.49847 0.03476 0.76759 0.0
Co501 Co 0.54864 0.06654 0.78829 0.0
C502 C 0.59506 0.07705 0.7307 0.0
O503 O 0.59886 0.05157 0.72546 0.0
N504 N 0.56195 0.08244 0.83777 0.0
C505 C 0.57321 0.08958 0.90528 0.0
C506 C 0.56375 0.07124 0.87675 0.0
C507 C 0.56959 0.10782 0.84363 0.0
N508 N 0.57667 0.11259 0.88442 0.0
O509 O 0.52469 0.09596 0.7827 0.0
H510 H 0.55832 0.05104 0.88396 0.0
H511 H 0.56974 0.12257 0.81859 0.0
O512 O 0.57573 0.08523 0.75359 0.0
C513 C 0.50396 0.09242 0.80507 0.0
O514 O 0.50106 0.06982 0.8252 0.0
N515 N 0.57093 0.03651 0.79795 0.0
C516 C 0.59901 0.99217 0.82792 0.0
C517 C 0.61089 0.01724 0.82606 0.0
C518 C 0.59652 0.03909 0.81139 0.0
C519 C 0.55908 1.01229 0.79982 0.0
C520 C 0.57281 0.98991 0.81391 0.0
H521 H 0.60569 0.05837 0.81242 0.0
H522 H 0.53845 1.01021 0.79243 0.0
H523 H 0.55781 0.05921 0.68368 0.0
H524 H 0.48694 0.01698 0.69083 0.0
H525 H 0.57659 0.08651 0.939 0.0
H526 H 0.6308 0.0203 0.83757 0.0
H527 H 0.56266 0.97109 0.81463 0.0
H528 H 0.45068 0.08855 0.80812 0.0
H529 H 0.51494 0.14372 0.82659 0.0
H530 H 0.48381 0.17577 0.85903 0.0
H531 H 0.39963 0.13951 0.78253 0.0
H532 H 0.37422 0.12087 0.8092 0.0
H533 H 0.4013 0.10392 0.78407 0.0
H534 H 0.41163 0.08019 0.85542 0.0
H535 H 0.385 0.09744 0.88102 0.0
H536 H 0.41794 0.09961 0.90242 0.0
H537 H 0.44623 0.19854 0.89967 0.0
H538 H 0.40447 0.21314 0.9338 0.0
H539 H 0.36452 0.14452 0.88306 0.0
C540 C 0.45799 0.10776 0.81772 0.0
C541 C 0.48508 0.11389 0.81447 0.0
C542 C 0.49414 0.13895 0.82803 0.0
C543 C 0.47662 0.15712 0.84685 0.0
C544 C 0.45007 0.15008 0.85093 0.0
C545 C 0.4407 0.12626 0.83556 0.0
C546 C 0.41149 0.12305 0.84439 0.0
C547 C 0.39573 0.12177 0.80256 0.0
C548 C 0.40623 0.09863 0.87248 0.0
C549 C 0.40592 0.1484 0.86826 0.0
C550 C 0.42843 0.16367 0.87216 0.0
C551 C 0.42842 0.18699 0.89594 0.0
C552 C 0.40476 0.19503 0.91548 0.0
C553 C 0.3814 0.18004 0.91057 0.0
C554 C 0.38207 0.1565 0.88659 0.0
H555 H 0.6332 0.61949 0.13922 0.0
H556 H 0.559 0.65413 0.17806 0.0
H557 H 0.57246 0.69702 0.14569 0.0
H558 H 0.67264 0.67631 0.16289 0.0
H559 H 0.69483 0.67093 0.11895 0.0
H560 H 0.67831 0.64331 0.14336 0.0
H561 H 0.6595 0.62984 0.06968 0.0
H562 H 0.67567 0.65768 0.04514 0.0
H563 H 0.64054 0.65346 0.03925 0.0
H564 H 0.59471 0.73621 0.10641 0.0
H565 H 0.62564 0.76885 0.07437 0.0
H566 H 0.68561 0.70807 0.0661 0.0
C567 C 0.61976 0.63611 0.14066 0.0
C568 C 0.59499 0.63357 0.16065 0.0
C569 C 0.57809 0.65582 0.16286 0.0
C570 C 0.58551 0.68011 0.14429 0.0
C571 C 0.61005 0.68184 0.12421 0.0
C572 C 0.62706 0.66045 0.12308 0.0
C573 C 0.65296 0.66756 0.1022 0.0
C574 C 0.67604 0.66435 0.13373 0.0
C575 C 0.65741 0.65116 0.06166 0.0
C576 C 0.64802 0.69632 0.09157 0.0
C577 C 0.62303 0.70424 0.10373 0.0
C578 C 0.6143 0.73015 0.09686 0.0
C579 C 0.63184 0.74849 0.07831 0.0
C580 C 0.65785 0.74085 0.06764 0.0
C581 C 0.66575 0.71437 0.07383 0.0
H582 H 0.11657 0.87872 0.45749 0.0
H583 H 0.1395 0.82005 0.36482 0.0
H584 H 0.09921 0.83038 0.32218 0.0
H585 H 0.04383 0.86919 0.44876 0.0
H586 H 0.03798 0.90407 0.45562 0.0
H587 H 0.06604 0.88865 0.48082 0.0
H588 H 0.09697 0.92264 0.44434 0.0
H589 H 0.06915 0.93798 0.4188 0.0
H590 H 0.09626 0.92602 0.38715 0.0
H591 H 0.05819 0.85252 0.28544 0.0
H592 H 0.02233 0.88268 0.26074 0.0
H593 H 0.02835 0.92595 0.3793 0.0
C594 C 0.1127 0.86757 0.42876 0.0
C595 C 0.13095 0.84857 0.41437 0.0
C596 C 0.12548 0.83445 0.37652 0.0
C597 C 0.10272 0.84031 0.35215 0.0
C598 C 0.08554 0.86004 0.36655 0.0
C599 C 0.09025 0.8731 0.40451 0.0
C600 C 0.07039 0.89482 0.4121 0.0
C601 C 0.05356 0.88881 0.45167 0.0
C602 C 0.08401 0.92195 0.41578 0.0
C603 C 0.05423 0.89283 0.3718 0.0
C604 C 0.06277 0.8725 0.3459 0.0
C605 C 0.05124 0.86823 0.3059 0.0
C606 C 0.03087 0.88539 0.29207 0.0
C607 C 0.02265 0.90673 0.31797 0.0
C608 C 0.03424 0.90992 0.35855 0.0
H609 H 0.88299 0.39743 0.6243 0.0
H610 H 0.95407 0.36388 0.67922 0.0
H611 H 0.94582 0.32222 0.64008 0.0
H612 H 0.84465 0.3428 0.63907 0.0
H613 H 0.82549 0.3468 0.59104 0.0
H614 H 0.84016 0.37515 0.61588 0.0
H615 H 0.86406 0.38673 0.54528 0.0
H616 H 0.84948 0.35822 0.5202 0.0
H617 H 0.8848 0.36237 0.52019 0.0
H618 H 0.92574 0.28176 0.60233 0.0
H619 H 0.89525 0.24741 0.57447 0.0
H620 H 0.83687 0.30781 0.54839 0.0
C621 C 0.89712 0.38153 0.62767 0.0
C622 C 0.91915 0.38402 0.65502 0.0
C623 C 0.93722 0.36268 0.6581 0.0
C624 C 0.93264 0.33887 0.63599 0.0
C625 C 0.91004 0.33679 0.6106 0.0
C626 C 0.8927 0.35775 0.60631 0.0
C627 C 0.86829 0.34995 0.58161 0.0
C628 C 0.84319 0.3539 0.60852 0.0
C629 C 0.86657 0.36523 0.5393 0.0
C630 C 0.87393 0.321 0.57411 0.0
C631 C 0.89838 0.31375 0.58998 0.0
C632 C 0.90681 0.2874 0.58913 0.0
C633 C 0.88949 0.26802 0.57299 0.0
C634 C 0.86394 0.27513 0.5588 0.0
C635 C 0.8565 0.30198 0.55838 0.0
H636 H 0.62947 0.86767 0.09927 0.0
H637 H 0.65223 0.82374 0.21225 0.0
H638 H 0.61358 0.84165 0.25057 0.0
H639 H 0.60956 0.92545 0.15265 0.0
H640 H 0.58237 0.93252 0.11732 0.0
H641 H 0.61048 0.91445 0.09808 0.0
H642 H 0.57987 0.8763 0.07414 0.0
H643 H 0.55158 0.8942 0.09344 0.0
H644 H 0.558 0.86112 0.11226 0.0
H645 H 0.57256 0.8658 0.27728 0.0
H646 H 0.53521 0.89648 0.29086 0.0
H647 H 0.5407 0.92496 0.16074 0.0
C648 C 0.62607 0.8615 0.13184 0.0
C649 C 0.64383 0.84426 0.15272 0.0
C650 C 0.63901 0.83709 0.19571 0.0
C651 C 0.61698 0.847 0.21764 0.0
C652 C 0.59995 0.86413 0.19619 0.0
C653 C 0.60436 0.87139 0.15427 0.0
C654 C 0.58414 0.89136 0.13918 0.0
C655 C 0.59744 0.91749 0.12606 0.0
C656 C 0.56741 0.88006 0.10259 0.0
C657 C 0.56796 0.89456 0.17934 0.0
C658 C 0.57702 0.87842 0.21176 0.0
C659 C 0.56526 0.87847 0.25203 0.0
C660 C 0.54403 0.89584 0.25948 0.0
C661 C 0.53518 0.91315 0.22698 0.0
C662 C 0.54712 0.91207 0.18635 0.0
H663 H 0.32681 0.31526 0.99101 0.0
H664 H 0.38976 0.25744 0.9959 0.0
H665 H 0.42096 0.29093 0.96724 0.0
H666 H 0.34233 0.34262 0.8955 0.0
H667 H 0.33406 0.37621 0.9091 0.0
H668 H 0.31826 0.34927 0.93633 0.0
H669 H 0.33381 0.36773 1.00912 0.0
H670 H 0.34941 0.39504 0.98213 0.0
H671 H 0.36834 0.37438 1.01772 0.0
H672 H 0.44304 0.32937 0.92667 0.0
H673 H 0.45399 0.36863 0.88292 0.0
H674 H 0.37657 0.40125 0.90933 0.0
C675 C 0.34738 0.30991 0.98734 0.0
C676 C 0.35602 0.28395 0.99596 0.0
C677 C 0.38293 0.27744 0.99022 0.0
C678 C 0.4007 0.29631 0.97374 0.0
C679 C 0.39127 0.32163 0.96411 0.0
C680 C 0.36527 0.32851 0.97162 0.0
C681 C 0.35927 0.35617 0.95605 0.0
C682 C 0.33719 0.35603 0.92225 0.0
C683 C 0.3523 0.37441 0.99349 0.0
C684 C 0.38556 0.36351 0.93678 0.0
C685 C 0.40394 0.34356 0.9419 0.0
C686 C 0.42892 0.34531 0.92336 0.0
C687 C 0.43502 0.36778 0.89859 0.0
C688 C 0.41615 0.38818 0.89236 0.0
C689 C 0.39144 0.38607 0.91287 0.0
H690 H 0.99577 0.1056 0.6731 0.0
H691 H 0.9998 0.13712 0.80132 0.0
H692 H 0.96105 0.16566 0.78538 0.0
H693 H 0.97505 0.16708 0.61989 0.0
H694 H 0.95398 0.14971 0.58307 0.0
H695 H 0.98321 0.13389 0.60375 0.0
H696 H 0.95487 0.09469 0.63077 0.0
H697 H 0.92559 0.11039 0.61036 0.0
H698 H 0.92743 0.10107 0.66575 0.0
H699 H 0.91899 0.1872 0.75681 0.0
H700 H 0.87865 0.20095 0.71831 0.0
H701 H 0.90312 0.15565 0.60833 0.0
C702 C 0.98878 0.11873 0.69784 0.0
C703 C 1.00078 0.11908 0.73862 0.0
C704 C 0.99102 0.13663 0.76986 0.0
C705 C 0.969 0.15284 0.76102 0.0
C706 C 0.95732 0.1515 0.72064 0.0
C707 C 0.96713 0.13505 0.68945 0.0
C708 C 0.95056 0.13628 0.64919 0.0
C709 C 0.96666 0.14741 0.61176 0.0
C710 C 0.93892 0.10899 0.63842 0.0
C711 C 0.92929 0.15547 0.66281 0.0
C712 C 0.93359 0.16415 0.70405 0.0
C713 C 0.91568 0.18074 0.7244 0.0
C714 C 0.89275 0.18833 0.70234 0.0
C715 C 0.88779 0.17943 0.66026 0.0
C716 C 0.90662 0.16315 0.64011 0.0
H717 H 0.1354 0.62678 0.42374 0.0
H718 H 0.06343 0.66609 0.38491 0.0
H719 H 0.07759 0.70672 0.42285 0.0
H720 H 0.14376 0.65848 0.52817 0.0
H721 H 0.17901 0.66143 0.52239 0.0
H722 H 0.1617 0.63464 0.49693 0.0
H723 H 0.18102 0.64858 0.42384 0.0
H724 H 0.19855 0.67517 0.44915 0.0
H725 H 0.17651 0.68207 0.40537 0.0
H726 H 0.10064 0.74362 0.46422 0.0
H727 H 0.13293 0.77513 0.49481 0.0
H728 H 0.19126 0.71252 0.50084 0.0
C729 C 0.12251 0.64386 0.42401 0.0
C730 C 0.09818 0.64334 0.4021 0.0
C731 C 0.08207 0.6662 0.40183 0.0
C732 C 0.0899 0.68923 0.42349 0.0
C733 C 0.11411 0.68921 0.44477 0.0
C734 C 0.13036 0.66719 0.44456 0.0
C735 C 0.15659 0.67309 0.46572 0.0
C736 C 0.16048 0.65588 0.50568 0.0
C737 C 0.17951 0.66952 0.43413 0.0
C738 C 0.15276 0.70191 0.4774 0.0
C739 C 0.12791 0.71073 0.46608 0.0
C740 C 0.12014 0.73687 0.4732 0.0
C741 C 0.13855 0.75463 0.49084 0.0
C742 C 0.16462 0.74631 0.50011 0.0
C743 C 0.17144 0.71944 0.49421 0.0
H744 H 0.87616 0.64526 0.37292 0.0
H745 H 0.9101 0.71597 0.42797 0.0
H746 H 0.95112 0.70843 0.3868 0.0
H747 H 0.93132 0.60674 0.38214 0.0
H748 H 0.92639 0.58869 0.33334 0.0
H749 H 0.89857 0.60253 0.36074 0.0
H750 H 0.88511 0.62816 0.29242 0.0
H751 H 0.91297 0.61433 0.26469 0.0
H752 H 0.90866 0.64967 0.26691 0.0
H753 H 0.99086 0.68901 0.34672 0.0
H754 H 0.02442 0.65985 0.31356 0.0
H755 H 0.96362 0.60196 0.28689 0.0
C756 C 0.89202 0.65946 0.37578 0.0
C757 C 0.88992 0.68118 0.40371 0.0
C758 C 0.91112 0.69936 0.40637 0.0
C759 C 0.93452 0.69517 0.38316 0.0
C760 C 0.93625 0.67289 0.35706 0.0
C761 C 0.91535 0.65552 0.35306 0.0
C762 C 0.92265 0.63173 0.32653 0.0
C763 C 0.91956 0.60592 0.35224 0.0
C764 C 0.90638 0.63094 0.28518 0.0
C765 C 0.95129 0.63778 0.31752 0.0
C766 C 0.95882 0.6618 0.3346 0.0
C767 C 0.98499 0.67042 0.3326 0.0
C768 C 1.00392 0.6538 0.31358 0.0
C769 C 0.99656 0.62873 0.29747 0.0
C770 C 0.96981 0.6211 0.29863 0.0
H771 H 0.15011 0.15409 0.6953 0.0
H772 H 0.07109 0.14983 0.64255 0.0
H773 H 0.08093 0.18897 0.59722 0.0
H774 H 0.15584 0.22378 0.69846 0.0
H775 H 0.1903 0.22339 0.68438 0.0
H776 H 0.17614 0.19577 0.71239 0.0
H777 H 0.19229 0.16417 0.65292 0.0
H778 H 0.20642 0.19172 0.62463 0.0
H779 H 0.18291 0.17052 0.59841 0.0
H780 H 0.10141 0.23016 0.55657 0.0
H781 H 0.12901 0.26712 0.52859 0.0
H782 H 0.19392 0.2402 0.6078 0.0
C783 C 0.13479 0.1609 0.67395 0.0
C784 C 0.10985 0.14841 0.6724 0.0
C785 C 0.09034 0.15896 0.64461 0.0
C786 C 0.09584 0.18115 0.61853 0.0
C787 C 0.12095 0.19259 0.62051 0.0
C788 C 0.13998 0.18262 0.64777 0.0
C789 C 0.16548 0.19786 0.6447 0.0
C790 C 0.17232 0.21098 0.68752 0.0
C791 C 0.1881 0.18 0.62924 0.0
C792 C 0.15809 0.21815 0.61144 0.0
C793 C 0.13238 0.21514 0.59759 0.0
C794 C 0.12158 0.23246 0.56727 0.0
C795 C 0.1374 0.25335 0.55136 0.0
C796 C 0.16371 0.25664 0.56578 0.0
C797 C 0.17395 0.23846 0.59583 0.0
H798 H 0.5332 0.42886 0.88438 0.0
H799 H 0.51926 0.38346 0.7694 0.0
H800 H 0.55345 0.35126 0.79264 0.0
H801 H 0.60186 0.42188 0.88752 0.0
H802 H 0.60386 0.41943 0.94474 0.0
H803 H 0.57716 0.43739 0.92031 0.0
H804 H 0.54344 0.40817 0.9607 0.0
H805 H 0.57009 0.39002 0.98519 0.0
H806 H 0.54502 0.37272 0.95551 0.0
H807 H 0.59183 0.32627 0.82636 0.0
H808 H 0.63087 0.31076 0.86669 0.0
H809 H 0.61859 0.3721 0.96043 0.0
C810 C 0.53709 0.41206 0.86402 0.0
C811 C 0.52356 0.40874 0.82484 0.0
C812 C 0.52933 0.38641 0.79947 0.0
C813 C 0.54867 0.36802 0.81253 0.0
C814 C 0.56176 0.37213 0.85124 0.0
C815 C 0.55605 0.39357 0.87668 0.0
C816 C 0.5735 0.39427 0.91599 0.0
C817 C 0.59008 0.41975 0.91718 0.0
C818 C 0.55702 0.3911 0.95676 0.0
C819 C 0.59058 0.37019 0.90836 0.0
C820 C 0.58337 0.35757 0.87098 0.0
C821 C 0.59734 0.33583 0.85586 0.0
C822 C 0.61949 0.32718 0.87892 0.0
C823 C 0.62752 0.34013 0.91679 0.0
C824 C 0.61248 0.36153 0.93214 0.0
H825 H 0.42053 0.87514 0.19801 0.0
H826 H 0.45872 0.90365 0.08351 0.0
H827 H 0.44561 0.86291 0.04558 0.0
H828 H 0.43449 0.80329 0.18207 0.0
H829 H 0.40259 0.79381 0.20225 0.0
H830 H 0.41853 0.82318 0.22204 0.0
H831 H 0.37738 0.85096 0.20175 0.0
H832 H 0.36136 0.82176 0.182 0.0
H833 H 0.36527 0.85014 0.14772 0.0
H834 H 0.42456 0.82074 1.01819 0.0
H835 H 0.39494 0.78278 1.00315 0.0
H836 H 0.36989 0.7828 0.13512 0.0
C837 C 0.42674 0.87237 0.16535 0.0
C838 C 0.44075 0.89238 0.14372 0.0
C839 C 0.4479 0.88853 0.10056 0.0
C840 C 0.44072 0.86537 0.07888 0.0
C841 C 0.42635 0.84622 0.10079 0.0
C842 C 0.41943 0.8495 0.14312 0.0
C843 C 0.40162 0.82738 0.15813 0.0
C844 C 0.41512 0.81094 0.1932 0.0
C845 C 0.37483 0.83822 0.17326 0.0
C846 C 0.39888 0.81167 0.11734 0.0
C847 C 0.41373 0.82243 0.08479 0.0
C848 C 0.41311 0.81195 0.0436 0.0
C849 C 0.39635 0.79035 0.03531 0.0
C850 C 0.3802 0.77991 0.06793 0.0
C851 C 0.38209 0.79036 0.10955 0.0
H852 H 0.14119 0.39774 0.66863 0.0
H853 H 0.11105 0.32232 0.62543 0.0
H854 H 0.07115 0.32864 0.66992 0.0
H855 H 0.11222 0.39637 0.77824 0.0
H856 H 0.10534 0.43132 0.77609 0.0
H857 H 0.13344 0.41807 0.74819 0.0
H858 H 0.11642 0.43892 0.67772 0.0
H859 H 0.08848 0.45225 0.70535 0.0
H860 H 0.08351 0.43136 0.65961 0.0
H861 H 0.03119 0.34718 0.71073 0.0
H862 H 0.99604 0.37628 0.73972 0.0
H863 H 0.05291 0.43946 0.75355 0.0
C864 C 0.12646 0.38227 0.66916 0.0
C865 C 0.12924 0.35957 0.6435 0.0
C866 C 0.10953 0.33974 0.64524 0.0
C867 C 0.08677 0.34321 0.67041 0.0
C868 C 0.08422 0.36644 0.69409 0.0
C869 C 0.10379 0.3855 0.69382 0.0
C870 C 0.09543 0.41005 0.7176 0.0
C871 C 0.11263 0.41418 0.7574 0.0
C872 C 0.09598 0.43456 0.68832 0.0
C873 C 0.06758 0.4025 0.72963 0.0
C874 C 0.0615 0.37707 0.71688 0.0
C875 C 0.03599 0.36689 0.72163 0.0
C876 C 0.01616 0.38344 0.73838 0.0
C877 C 0.02197 0.40992 0.74932 0.0
C878 C 0.04813 0.41911 0.74611 0.0
H879 H 0.89937 0.87917 0.35265 0.0
H880 H 0.9491 0.90068 0.45946 0.0
H881 H 0.93277 0.862 0.49989 0.0
H882 H 0.84427 0.85929 0.4141 0.0
H883 H 0.83519 0.83239 0.37952 0.0
H884 H 0.8523 0.86062 0.3582 0.0
H885 H 0.88883 0.82988 0.3286 0.0
H886 H 0.87179 0.80153 0.34986 0.0
H887 H 0.90571 0.80751 0.36421 0.0
H888 H 0.90984 0.82058 0.52942 0.0
H889 H 0.88058 0.78246 0.54593 0.0
H890 H 0.84536 0.78966 0.4204 0.0
C891 C 0.90709 0.8755 0.3843 0.0
C892 C 0.92554 0.89295 0.40284 0.0
C893 C 0.93478 0.88773 0.44472 0.0
C894 C 0.92575 0.86568 0.46784 0.0
C895 C 0.90733 0.849 0.44881 0.0
C896 C 0.89804 0.85376 0.40799 0.0
C897 C 0.87727 0.83372 0.39553 0.0
C898 C 0.85069 0.84733 0.38631 0.0
C899 C 0.88646 0.81718 0.35729 0.0
C900 C 0.87607 0.81717 0.43578 0.0
C901 C 0.89376 0.82595 0.46606 0.0
C902 C 0.89592 0.81357 0.50586 0.0
C903 C 0.8793 0.79191 0.515 0.0
C904 C 0.86056 0.7832 0.48469 0.0
C905 C 0.85929 0.79594 0.44452 0.0
H906 H 0.45844 0.58084 0.24128 0.0
H907 H 0.52195 0.63815 0.23928 0.0
H908 H 0.49164 0.67124 0.20716 0.0
H909 H 0.43036 0.597 0.14364 0.0
H910 H 0.39662 0.59256 0.16018 0.0
H911 H 0.42257 0.57441 0.18634 0.0
H912 H 0.40801 0.59302 0.25946 0.0
H913 H 0.38171 0.61093 0.23361 0.0
H914 H 0.40517 0.62827 0.26646 0.0
H915 H 0.45506 0.69608 0.1667 0.0
H916 H 0.41444 0.71208 0.1305 0.0
H917 H 0.3749 0.63891 0.16294 0.0
C918 C 0.46581 0.60056 0.23502 0.0
C919 C 0.49248 0.60701 0.24295 0.0
C920 C 0.50148 0.63293 0.23403 0.0
C921 C 0.48444 0.65176 0.21548 0.0
C922 C 0.45839 0.64445 0.20683 0.0
C923 C 0.44902 0.6196 0.21724 0.0
C924 C 0.42045 0.61628 0.20408 0.0
C925 C 0.41734 0.59373 0.17164 0.0
C926 C 0.40279 0.61187 0.24324 0.0
C927 C 0.41524 0.64292 0.18371 0.0
C928 C 0.43735 0.65891 0.18526 0.0
C929 C 0.43755 0.68385 0.16601 0.0
C930 C 0.41452 0.69271 0.14526 0.0
C931 C 0.39153 0.67682 0.14433 0.0
C932 C 0.39204 0.65165 0.16387 0.0
H933 H 0.61837 0.11985 0.93671 0.0
H934 H 0.55452 0.16082 0.87297 0.0
H935 H 0.56868 0.20301 0.90622 0.0
H936 H 0.61928 0.15809 0.03521 0.0
H937 H 0.65478 0.15819 0.03866 0.0
H938 H 0.63798 0.131 1.0134 0.0
H939 H 0.6653 0.13824 0.94458 0.0
H940 H 0.68244 0.16507 0.96992 0.0
H941 H 0.66569 0.17047 0.91993 0.0
H942 H 0.59086 0.241 0.94595 0.0
H943 H 0.62289 0.27219 0.97832 0.0
H944 H 0.67379 0.20653 1.0114 0.0
C945 C 0.60726 0.13772 0.93026 0.0
C946 C 0.58523 0.1372 0.90274 0.0
C947 C 0.57146 0.16095 0.89401 0.0
C948 C 0.57923 0.18487 0.91307 0.0
C949 C 0.60104 0.18472 0.94033 0.0
C950 C 0.61513 0.16179 0.94823 0.0
C951 C 0.63935 0.16724 0.97511 0.0
C952 C 0.63774 0.15277 1.01815 0.0
C953 C 0.66468 0.15983 0.95093 0.0
C954 C 0.63693 0.19687 0.9808 0.0
C955 C 0.61436 0.20657 0.96146 0.0
C956 C 0.60843 0.23356 0.96151 0.0
C957 C 0.62653 0.25112 0.98038 0.0
C958 C 0.65035 0.24158 0.99821 0.0
C959 C 0.65532 0.21414 0.99901 0.0
H960 H 0.25155 0.27995 0.18718 0.0
H961 H 0.30401 0.21218 0.19942 0.0
H962 H 0.29623 0.21164 0.2764 0.0
H963 H 0.27273 0.31236 0.28185 0.0
H964 H 0.24038 0.32453 0.29533 0.0
H965 H 0.24886 0.31883 0.24045 0.0
H966 H 0.20843 0.28792 0.23255 0.0
H967 H 0.19993 0.2934 0.28755 0.0
H968 H 0.20474 0.26021 0.26828 0.0
H969 H 0.2843 0.21917 0.35292 0.0
H970 H 0.27029 0.23544 0.42338 0.0
H971 H 0.22612 0.29861 0.36269 0.0
C972 C 0.26155 0.2649 0.20558 0.0
C973 C 0.27848 0.24606 0.18607 0.0
C974 C 0.29081 0.2268 0.21248 0.0
C975 C 0.28652 0.22629 0.25667 0.0
C976 C 0.26981 0.24512 0.27449 0.0
C977 C 0.25757 0.26413 0.24983 0.0
C978 C 0.24128 0.28273 0.27724 0.0
C979 C 0.25143 0.3113 0.27349 0.0
C980 C 0.21185 0.28095 0.26571 0.0
C981 C 0.24656 0.27137 0.32125 0.0
C982 C 0.26294 0.24956 0.3188 0.0
C983 C 0.2714 0.23617 0.35517 0.0
C984 C 0.26339 0.24559 0.39509 0.0
C985 C 0.24708 0.26826 0.39863 0.0
C986 C 0.2382 0.28099 0.36102 0.0
H987 H 0.48072 0.48797 0.61708 0.0
H988 H 0.55718 0.51218 0.66565 0.0
H989 H 0.57072 0.52514 0.59327 0.0
H990 H 0.50482 0.46077 0.51725 0.0
H991 H 0.47688 0.47219 0.48673 0.0
H992 H 0.47313 0.46456 0.54249 0.0
H993 H 0.45465 0.51155 0.55576 0.0
H994 H 0.45844 0.51938 0.50009 0.0
H995 H 0.47378 0.53994 0.53986 0.0
H996 H 0.57603 0.5362 0.5156 0.0
H997 H 0.57311 0.5432 0.43803 0.0
H998 H 0.49332 0.51198 0.43885 0.0
C999 C 0.50041 0.49571 0.61248 0.0
C1000 C 0.51778 0.49916 0.64748 0.0
C1001 C 0.54329 0.50969 0.63979 0.0
C1002 C 0.55125 0.51701 0.59862 0.0
C1003 C 0.53358 0.5137 0.56504 0.0
C1004 C 0.50872 0.50319 0.5714 0.0
C1005 C 0.49354 0.5019 0.52966 0.0
C1006 C 0.4867 0.47314 0.51837 0.0
C1007 C 0.46863 0.51923 0.53147 0.0
C1008 C 0.51377 0.51329 0.49898 0.0
C1009 C 0.53669 0.52001 0.52012 0.0
C1010 C 0.55814 0.53102 0.49871 0.0
C1011 C 0.55621 0.53512 0.45451 0.0
C1012 C 0.53299 0.52823 0.43184 0.0
C1013 C 0.51149 0.51724 0.45479 0.0
H1014 H 0.28445 0.79427 0.67177 0.0
H1015 H 0.2144 0.74556 0.66633 0.0
H1016 H 0.22087 0.73308 0.74241 0.0
H1017 H 0.32323 0.75332 0.74053 0.0
H1018 H 0.33737 0.78059 0.76952 0.0
H1019 H 0.32725 0.78502 0.71494 0.0
H1020 H 0.29719 0.82409 0.73702 0.0
H1021 H 0.30735 0.8199 0.79163 0.0
H1022 H 0.2728 0.81919 0.77801 0.0
H1023 H 0.23733 0.7242 0.81902 0.0
H1024 H 0.25844 0.72434 0.89055 0.0
H1025 H 0.31552 0.78166 0.84602 0.0
C1026 C 0.27053 0.78093 0.68668 0.0
C1027 C 0.24908 0.77058 0.66326 0.0
C1028 C 0.23093 0.75362 0.68388 0.0
C1029 C 0.23458 0.74638 0.72692 0.0
C1030 C 0.25621 0.7567 0.74903 0.0
C1031 C 0.27357 0.77403 0.72966 0.0
C1032 C 0.29459 0.78334 0.76054 0.0
C1033 C 0.32224 0.77506 0.74547 0.0
C1034 C 0.29287 0.81341 0.76719 0.0
C1035 C 0.28661 0.76839 0.80035 0.0
C1036 C 0.26466 0.75281 0.79308 0.0
C1037 C 0.25435 0.73655 0.82503 0.0
C1038 C 0.26652 0.7366 0.86544 0.0
C1039 C 0.28844 0.75314 0.8738 0.0
C1040 C 0.29858 0.76908 0.84062 0.0
H1041 H 0.01701 0.53433 0.90591 0.0
H1042 H 0.98608 0.45663 0.93711 0.0
H1043 H 0.99521 0.46497 1.01327 0.0
H1044 H 0.07026 0.53383 0.98294 0.0
H1045 H 0.06694 0.56863 0.9939 0.0
H1046 H 0.05835 0.55598 0.94213 0.0
H1047 H 1.01162 0.57639 0.94903 0.0
H1048 H 0.02005 0.58908 1.00077 0.0
H1049 H 0.99157 0.56811 0.99453 0.0
H1050 H 1.00716 0.4833 0.08817 0.0
H1051 H 0.01929 0.50997 0.15169 0.0
H1052 H 0.04392 0.57383 0.06841 0.0
C1053 C 0.01245 0.51873 0.92828 0.0
C1054 C 1.00081 0.49471 0.91481 0.0
C1055 C 0.99476 0.47532 0.94614 0.0
C1056 C 1.00006 0.47981 0.98965 0.0
C1057 C 1.01158 0.50375 1.00157 0.0
C1058 C 0.01772 0.5228 0.97154 0.0
C1059 C 0.02945 0.54713 0.99202 0.0
C1060 C 0.05794 0.55164 0.97685 0.0
C1061 C 0.01213 0.57161 0.98359 0.0
C1062 C 0.0287 0.53906 0.03842 0.0
C1063 C 0.01846 0.51397 0.04364 0.0
C1064 C 0.01533 0.50292 0.08424 0.0
C1065 C 0.0224 0.51812 0.12018 0.0
C1066 C 0.03234 0.54413 0.11527 0.0
C1067 C 0.03595 0.55426 0.07361 0.0
H1068 H 0.73836 0.74637 0.66405 0.0
H1069 H 0.81558 0.78277 0.66336 0.0
H1070 H 0.80982 0.79563 0.73916 0.0
H1071 H 0.70548 0.79237 0.73444 0.0
H1072 H 0.68702 0.76699 0.76161 0.0
H1073 H 0.69663 0.76242 0.70689 0.0
H1074 H 0.71993 0.71847 0.72688 0.0
H1075 H 0.71022 0.7228 0.78154 0.0
H1076 H 0.74454 0.71834 0.76843 0.0
H1077 H 0.7945 0.80528 0.81557 0.0
H1078 H 0.77412 0.805 0.88761 0.0
H1079 H 0.70891 0.75888 0.83898 0.0
C1080 C 0.7539 0.75727 0.67988 0.0
C1081 C 0.77728 0.76395 0.65794 0.0
C1082 C 0.79753 0.7776 0.67978 0.0
C1083 C 0.79432 0.78509 0.72265 0.0
C1084 C 0.7709 0.77833 0.7434 0.0
C1085 C 0.75126 0.76428 0.72284 0.0
C1086 C 0.72885 0.75765 0.7529 0.0
C1087 C 0.70297 0.77064 0.73807 0.0
C1088 C 0.72572 0.72753 0.75772 0.0
C1089 C 0.73887 0.7701 0.79367 0.0
C1090 C 0.7629 0.78243 0.78748 0.0
C1091 C 0.77574 0.79557 0.82069 0.0
C1092 C 0.76402 0.79551 0.86137 0.0
C1093 C 0.74004 0.78195 0.86858 0.0
C1094 C 0.72727 0.76938 0.83413 0.0
H1095 H 0.71835 0.27291 0.20252 0.0
H1096 H 0.78563 0.23548 0.14192 0.0
H1097 H 0.80406 0.22447 0.21193 0.0
H1098 H 0.75559 0.30166 0.28973 0.0
H1099 H 0.73003 0.29636 0.32867 0.0
H1100 H 0.72147 0.3011 0.27345 0.0
H1101 H 0.696 0.25673 0.27391 0.0
H1102 H 0.70455 0.25183 0.3291 0.0
H1103 H 0.71273 0.22692 0.29035 0.0
H1104 H 0.8158 0.21717 0.2884 0.0
H1105 H 0.82045 0.21562 0.36654 0.0
H1106 H 0.74616 0.25774 0.37917 0.0
C1107 C 0.73698 0.2625 0.20395 0.0
C1108 C 0.75015 0.25472 0.16618 0.0
C1109 C 0.77459 0.2411 0.1699 0.0
C1110 C 0.78545 0.23488 0.20974 0.0
C1111 C 0.77187 0.24247 0.24613 0.0
C1112 C 0.74824 0.25609 0.24378 0.0
C1113 C 0.73798 0.26208 0.28819 0.0
C1114 C 0.73617 0.29209 0.29543 0.0
C1115 C 0.71123 0.24858 0.29583 0.0
C1116 C 0.75954 0.24972 0.31556 0.0
C1117 C 0.77885 0.23847 0.29056 0.0
C1118 C 0.80077 0.22589 0.30838 0.0
C1119 C 0.80316 0.22494 0.35295 0.0
C1120 C 0.78378 0.23653 0.37953 0.0
C1121 C 0.7616 0.24894 0.36017 0.0
H1122 H 1.00886 0.96134 0.08513 0.0
H1123 H 0.9585 0.02401 0.13147 0.0
H1124 H 0.95957 0.04529 0.05988 0.0
H1125 H 0.04997 0.99992 1.02009 0.0
H1126 H 0.05276 0.97581 0.97816 0.0
H1127 H 0.04666 0.96519 0.03201 0.0
H1128 H 1.00473 0.9402 1.00738 0.0
H1129 H 1.01086 0.95052 0.95333 0.0
H1130 H 0.97959 0.95771 0.97798 0.0
H1131 H 0.97081 0.06191 0.98347 0.0
H1132 H 0.98601 0.0689 0.90891 0.0
H1133 H 0.02651 0.99357 0.91301 0.0
C1134 C 0.99772 0.97933 0.07993 0.0
C1135 C 0.98355 0.99106 0.11374 0.0
C1136 C 0.9692 0.01459 0.10584 0.0
C1137 C 0.96991 0.02686 0.06536 0.0
C1138 C 0.98467 0.01507 0.0329 0.0
C1139 C 0.99784 0.99147 0.0397 0.0
C1140 C 0.01228 0.98261 0.99998 0.0
C1141 C 0.04218 0.98079 1.00807 0.0
C1142 C 1.00119 0.9562 0.98371 0.0
C1143 C 1.00569 1.00508 0.96978 0.0
C1144 C 0.98995 0.02382 0.98923 0.0
C1145 C 0.98274 0.04707 0.96788 0.0
C1146 C 0.99153 0.05098 0.92565 0.0
C1147 C 1.00702 0.0316 0.90491 0.0
C1148 C 0.01414 1.00845 0.9276 0.0
H1149 H 0.47598 0.99739 0.43665 0.0
H1150 H 0.55894 0.98859 0.40626 0.0
H1151 H 0.57079 0.99906 0.48034 0.0
H1152 H 0.48332 0.052 0.50649 0.0
H1153 H 0.45875 0.0415 0.54437 0.0
H1154 H 0.45615 0.03158 0.48946 0.0
H1155 H 0.45469 0.98239 0.51236 0.0
H1156 H 0.45701 0.99218 0.5674 0.0
H1157 H 0.48061 0.96925 0.54565 0.0
H1158 H 0.57432 0.01359 0.55555 0.0
H1159 H 0.56905 0.0279 0.63003 0.0
H1160 H 0.48396 0.02693 0.6145 0.0
C1161 C 0.49655 0.99716 0.44597 0.0
C1162 C 0.51657 0.99236 0.4155 0.0
C1163 C 0.54331 0.99257 0.4288 0.0
C1164 C 0.55026 0.99842 0.47089 0.0
C1165 C 0.53024 1.0039 0.49979 0.0
C1166 C 0.50391 1.00303 0.48825 0.0
C1167 C 0.48652 1.01042 0.52584 0.0
C1168 C 0.47022 0.03536 0.51593 0.0
C1169 C 0.46865 0.98717 0.53857 0.0
C1170 C 0.50725 0.01583 0.55986 0.0
C1171 C 0.53232 1.01199 0.54393 0.0
C1172 C 0.55478 0.0165 0.56853 0.0
C1173 C 0.55159 0.02488 0.61076 0.0
C1174 C 0.52613 0.02862 0.62829 0.0
C1175 C 0.50368 0.02401 0.60225 0.0
H1176 H 0.13379 0.09992 0.83499 0.0
H1177 H 0.08687 0.07955 0.94568 0.0
H1178 H 0.11983 0.1009 0.99242 0.0
H1179 H 0.19622 0.08605 0.88471 0.0
H1180 H 0.21353 0.11245 0.85809 0.0
H1181 H 0.18546 0.09718 0.83291 0.0
H1182 H 0.16283 0.14286 0.82537 0.0
H1183 H 0.19089 0.15833 0.85026 0.0
H1184 H 0.15834 0.16314 0.87196 0.0
H1185 H 0.15746 0.12498 0.02706 0.0
H1186 H 0.19854 0.14833 0.04755 0.0
H1187 H 0.22296 0.15005 0.9154 0.0
C1188 C 0.13035 0.10032 0.86902 0.0
C1189 C 0.10766 0.08841 0.88681 0.0
C1190 C 0.10409 0.08868 0.93151 0.0
C1191 C 0.12268 0.10076 0.95827 0.0
C1192 C 0.14501 0.11206 0.93988 0.0
C1193 C 0.14907 0.11176 0.89633 0.0
C1194 C 0.17544 0.1241 0.88503 0.0
C1195 C 0.19374 0.10373 0.86394 0.0
C1196 C 0.17164 0.14856 0.85647 0.0
C1197 C 0.18539 0.13167 0.92896 0.0
C1198 C 0.16742 0.1247 0.96011 0.0
C1199 C 0.17179 0.13031 1.00302 0.0
C1200 C 0.19511 0.14349 1.01441 0.0
C1201 C 0.21387 0.15051 0.98311 0.0
C1202 C 0.20901 0.14442 0.93991 0.0
H1203 H 0.59315 0.43891 0.19551 0.0
H1204 H 0.65929 0.47742 0.25882 0.0
H1205 H 0.6887 0.44288 0.23269 0.0
H1206 H 0.61514 0.37086 0.20747 0.0
H1207 H 0.60484 0.36127 0.15474 0.0
H1208 H 0.58763 0.38729 0.1823 0.0
H1209 H 0.59607 0.41903 0.11893 0.0
H1210 H 0.61326 0.39313 0.09117 0.0
H1211 H 0.62937 0.42432 0.10073 0.0
H1212 H 0.71175 0.40581 0.19858 0.0
H1213 H 0.72808 0.36968 0.15431 0.0
H1214 H 0.64885 0.35632 0.10555 0.0
C1215 C 0.61376 0.44037 0.20403 0.0
C1216 C 0.62337 0.46117 0.23038 0.0
C1217 C 0.65072 0.46157 0.24038 0.0
C1218 C 0.66787 0.44205 0.22519 0.0
C1219 C 0.65773 0.42226 0.19921 0.0
C1220 C 0.63142 0.42133 0.18822 0.0
C1221 C 0.62623 0.39882 0.15712 0.0
C1222 C 0.60734 0.37835 0.17658 0.0
C1223 C 0.6156 0.40947 0.11446 0.0
C1224 C 0.65386 0.38748 0.15218 0.0
C1225 C 0.67151 0.40123 0.17738 0.0
C1226 C 0.69815 0.39491 0.17866 0.0
C1227 C 0.70721 0.37422 0.15318 0.0
C1228 C 0.68984 0.36001 0.12607 0.0
C1229 C 0.66266 0.36669 0.12587 0.0
H1230 H 0.29338 0.87479 0.38775 0.0
H1231 H 0.32977 0.87501 0.51295 0.0
H1232 H 0.37013 0.89478 0.482 0.0
H1233 H 0.35136 0.85698 0.32922 0.0
H1234 H 0.34337 0.87771 0.28423 0.0
H1235 H 0.31738 0.86411 0.31661 0.0
H1236 H 0.29899 0.91121 0.32987 0.0
H1237 H 0.32483 0.92494 0.29736 0.0
H1238 H 0.32046 0.93631 0.35126 0.0
H1239 H 0.40749 0.91373 0.4356 0.0
H1240 H 0.4367 0.93191 0.37935 0.0
H1241 H 0.3751 0.91859 0.28567 0.0
C1242 C 0.30985 0.87882 0.40875 0.0
C1243 C 0.30833 0.87321 0.45287 0.0
C1244 C 0.33027 0.87934 0.47916 0.0
C1245 C 0.35338 0.8904 0.46179 0.0
C1246 C 0.35428 0.89534 0.41804 0.0
C1247 C 0.33296 0.88984 0.392 0.0
C1248 C 0.33865 0.89708 0.34611 0.0
C1249 C 0.33763 0.8725 0.31736 0.0
C1250 C 0.3196 0.91867 0.33024 0.0
C1251 C 0.36651 0.90751 0.35022 0.0
C1252 C 0.37535 0.9063 0.39184 0.0
C1253 C 0.40067 0.9148 0.40295 0.0
C1254 C 0.41718 0.92503 0.37078 0.0
C1255 C 0.40824 0.92681 0.32806 0.0
C1256 C 0.3826 0.91769 0.31797 0.0
H1257 H 0.89832 0.66441 0.59163 0.0
H1258 H 0.81561 0.66676 0.62691 0.0
H1259 H 0.82263 0.62865 0.67522 0.0
H1260 H 0.90367 0.59526 0.58733 0.0
H1261 H 0.93676 0.59395 0.60837 0.0
H1262 H 0.92574 0.62282 0.57982 0.0
H1263 H 0.93791 0.65226 0.64436 0.0
H1264 H 0.9491 0.62345 0.6731 0.0
H1265 H 0.92438 0.6447 0.69606 0.0
H1266 H 0.83848 0.58823 0.71677 0.0
H1267 H 0.86133 0.54895 0.74614 0.0
H1268 H 0.9335 0.57346 0.68327 0.0
C1269 C 0.88173 0.65726 0.61004 0.0
C1270 C 0.85642 0.66875 0.60559 0.0
C1271 C 0.83521 0.6584 0.62982 0.0
C1272 C 0.83902 0.63675 0.65742 0.0
C1273 C 0.86417 0.62564 0.6605 0.0
C1274 C 0.88516 0.63563 0.63748 0.0
C1275 C 0.90988 0.61931 0.64455 0.0
C1276 C 0.91957 0.60711 0.60252 0.0
C1277 C 0.9316 0.63592 0.66579 0.0
C1278 C 0.89947 0.59832 0.67463 0.0
C1279 C 0.87314 0.60239 0.68384 0.0
C1280 C 0.85916 0.58502 0.71002 0.0
C1281 C 0.87236 0.56281 0.72677 0.0
C1282 C 0.89924 0.55798 0.71706 0.0
C1283 C 0.9129 0.57632 0.69105 0.0
H1284 H 0.83306 0.84338 0.06058 0.0
H1285 H 0.77136 0.89174 0.11645 0.0
H1286 H 0.80441 0.91443 0.16045 0.0
H1287 H 0.87056 0.83476 0.15648 0.0
H1288 H 0.90229 0.83666 0.13082 0.0
H1289 H 0.87406 0.82474 0.1017 0.0
H1290 H 0.88175 0.86031 0.04352 0.0
H1291 H 0.91009 0.87225 0.07236 0.0
H1292 H 0.88372 0.89463 0.05854 0.0
H1293 H 0.84321 0.93069 0.20084 0.0
H1294 H 0.8861 0.94106 0.2332 0.0
H1295 H 0.92375 0.88257 0.15244 0.0
C1296 C 0.82653 0.85883 0.08191 0.0
C1297 C 0.79951 0.86595 0.08443 0.0
C1298 C 0.7919 0.8863 0.11291 0.0
C1299 C 0.81053 0.89919 0.13845 0.0
C1300 C 0.83684 0.89161 0.13537 0.0
C1301 C 0.84497 0.87204 0.10772 0.0
C1302 C 0.87456 0.86764 0.11126 0.0
C1303 C 0.88072 0.83926 0.12595 0.0
C1304 C 0.88834 0.8741 0.0689 0.0
C1305 C 0.88166 0.88764 0.14546 0.0
C1306 C 0.85951 0.90116 0.15885 0.0
C1307 C 0.86074 0.92033 0.1905 0.0
C1308 C 0.88529 0.92603 0.20882 0.0
C1309 C 0.90846 0.9127 0.19551 0.0
C1310 C 0.90649 0.89318 0.16335 0.0
H1311 H 0.39295 0.53826 0.88976 0.0
H1312 H 0.41368 0.58191 0.7756 0.0
H1313 H 0.395 0.62271 0.80744 0.0
H1314 H 0.33175 0.5737 0.91406 0.0
H1315 H 0.33776 0.57214 0.97062 0.0
H1316 H 0.35001 0.54638 0.93642 0.0
H1317 H 0.39727 0.55422 0.9655 0.0
H1318 H 0.38524 0.58016 0.99941 0.0
H1319 H 0.41149 0.58682 0.96225 0.0
H1320 H 0.37719 0.65975 0.85595 0.0
H1321 H 0.36065 0.68834 0.91421 0.0
H1322 H 0.35338 0.61931 0.99579 0.0
C1323 C 0.39331 0.55633 0.87116 0.0
C1324 C 0.40485 0.55696 0.83026 0.0
C1325 C 0.40471 0.58094 0.80684 0.0
C1326 C 0.39429 0.60421 0.8248 0.0
C1327 C 0.38391 0.60304 0.86599 0.0
C1328 C 0.38316 0.57955 0.88857 0.0
C1329 C 0.3723 0.58342 0.93292 0.0
C1330 C 0.34641 0.568 0.93883 0.0
C1331 C 0.3928 0.5757 0.96701 0.0
C1332 C 0.36749 0.61289 0.93233 0.0
C1333 C 0.37407 0.62398 0.89349 0.0
C1334 C 0.3718 0.65116 0.88632 0.0
C1335 C 0.36249 0.66726 0.91964 0.0
C1336 C 0.35573 0.65613 0.95965 0.0
C1337 C 0.3583 0.62856 0.96568 0.0
H1338 H 0.7254 0.12097 0.6058 0.0
H1339 H 0.68965 0.19839 0.58961 0.0
H1340 H 0.64987 0.18292 0.6271 0.0
H1341 H 0.66397 0.08337 0.58972 0.0
H1342 H 0.67292 0.05862 0.62856 0.0
H1343 H 0.69823 0.07562 0.59901 0.0
H1344 H 0.72024 0.08982 0.6699 0.0
H1345 H 0.69484 0.07315 0.69965 0.0
H1346 H 0.70117 0.10775 0.70872 0.0
H1347 H 0.61502 0.15994 0.67162 0.0
H1348 H 0.58627 0.12969 0.7129 0.0
H1349 H 0.6436 0.0668 0.69651 0.0
C1350 C 0.70902 0.13454 0.60928 0.0
C1351 C 0.71097 0.16106 0.59508 0.0
C1352 C 0.68903 0.17816 0.60091 0.0
C1353 C 0.66622 0.16952 0.62204 0.0
C1354 C 0.6653 0.14356 0.63679 0.0
C1355 C 0.68593 0.12617 0.63003 0.0
C1356 C 0.67997 0.09931 0.64931 0.0
C1357 C 0.67869 0.07797 0.61457 0.0
C1358 C 0.70026 0.0921 0.68395 0.0
C1359 C 0.65298 0.10445 0.6684 0.0
C1360 C 0.64488 0.13012 0.66107 0.0
C1361 C 0.62103 0.13968 0.67711 0.0
C1362 C 0.60487 0.12242 0.70071 0.0
C1363 C 0.61253 0.09583 0.7077 0.0
C1364 C 0.63699 0.08692 0.69135 0.0
H1365 H 0.14768 0.4755 0.29682 0.0
H1366 H 0.07689 0.48031 0.37404 0.0
H1367 H 0.09119 0.44125 0.4149 0.0
H1368 H 0.15067 0.40366 0.2929 0.0
H1369 H 0.18614 0.40229 0.29655 0.0
H1370 H 0.17032 0.43054 0.27246 0.0
H1371 H 0.1945 0.46156 0.32515 0.0
H1372 H 0.21045 0.43342 0.34928 0.0
H1373 H 0.19148 0.45582 0.38164 0.0
H1374 H 0.11353 0.40273 0.44944 0.0
H1375 H 0.1425 0.36675 0.47482 0.0
H1376 H 0.19871 0.38554 0.37498 0.0
C1377 C 0.13522 0.46829 0.3223 0.0
C1378 C 0.11095 0.48086 0.33175 0.0
C1379 C 0.09525 0.47077 0.36546 0.0
C1380 C 0.10328 0.44864 0.3891 0.0
C1381 C 0.1271 0.43659 0.37879 0.0
C1382 C 0.14287 0.44595 0.34618 0.0
C1383 C 0.16767 0.42926 0.34208 0.0
C1384 C 0.16875 0.41563 0.2984 0.0
C1385 C 0.19249 0.44602 0.35002 0.0
C1386 C 0.1634 0.40928 0.37768 0.0
C1387 C 0.13987 0.41395 0.39844 0.0
C1388 C 0.13192 0.39874 0.43323 0.0
C1389 C 0.14853 0.37832 0.44743 0.0
C1390 C 0.17281 0.37309 0.42677 0.0
C1391 C 0.18014 0.38874 0.39117 0.0
H1392 H 0.65911 0.59773 0.29591 0.0
H1393 H 0.59202 0.59853 0.38161 0.0
H1394 H 0.62003 0.61835 0.43775 0.0
H1395 H 0.70855 0.58148 0.37404 0.0
H1396 H 0.73321 0.60249 0.35028 0.0
H1397 H 0.70792 0.58792 0.31752 0.0
H1398 H 0.69441 0.63439 0.29011 0.0
H1399 H 0.71974 0.64909 0.32256 0.0
H1400 H 0.68599 0.65979 0.32792 0.0
H1401 H 0.65623 0.63869 0.48472 0.0
H1402 H 0.69599 0.65968 0.5159 0.0
H1403 H 0.73862 0.64495 0.39864 0.0
C1404 C 0.6502 0.60199 0.32647 0.0
C1405 C 0.62331 0.59638 0.33431 0.0
C1406 C 0.61255 0.6025 0.37478 0.0
C1407 C 0.62835 0.61374 0.40692 0.0
C1408 C 0.65487 0.61881 0.39812 0.0
C1409 C 0.6656 0.61322 0.35871 0.0
C1410 C 0.69438 0.62107 0.35664 0.0
C1411 C 0.71205 0.59679 0.34919 0.0
C1412 C 0.69888 0.64235 0.32228 0.0
C1413 C 0.69823 0.63214 0.40095 0.0
C1414 C 0.67534 0.63055 0.42464 0.0
C1415 C 0.67426 0.63994 0.4664 0.0
C1416 C 0.69699 0.65168 0.48398 0.0
C1417 C 0.72043 0.65408 0.45973 0.0
C1418 C 0.72097 0.64372 0.41793 0.0
H1419 H 0.15348 0.97204 0.7336 0.0
H1420 H 0.07643 0.96197 0.67517 0.0
H1421 H 0.09222 0.92207 0.63859 0.0
H1422 H 0.1914 0.9521 0.64515 0.0
H1423 H 0.21597 0.93438 0.67546 0.0
H1424 H 0.19844 0.96151 0.69936 0.0
H1425 H 0.18344 0.93101 0.76115 0.0
H1426 H 0.20108 0.9038 0.73755 0.0
H1427 H 0.16642 0.90063 0.74923 0.0
H1428 H 0.11699 0.8857 0.60327 0.0
H1429 H 0.14862 0.85294 0.57543 0.0
H1430 H 0.20925 0.88429 0.65906 0.0
C1431 C 0.13981 0.96116 0.71374 0.0
C1432 C 0.11378 0.97047 0.70687 0.0
C1433 C 0.09662 0.95568 0.68028 0.0
C1434 C 0.10534 0.93283 0.65952 0.0
C1435 C 0.13123 0.92462 0.666 0.0
C1436 C 0.14817 0.93806 0.69285 0.0
C1437 C 0.17524 0.92514 0.69331 0.0
C1438 C 0.19651 0.94444 0.67736 0.0
C1439 C 0.18193 0.91451 0.73797 0.0
C1440 C 0.1709 0.90273 0.66195 0.0
C1441 C 0.14536 0.90287 0.64658 0.0
C1442 C 0.13694 0.8851 0.61554 0.0
C1443 C 0.15508 0.86662 0.59981 0.0
C1444 C 0.18132 0.86584 0.61535 0.0
C1445 C 0.18921 0.88409 0.64706 0.0
H1446 H 0.82711 0.34399 0.9791 0.0
H1447 H 0.76821 0.40187 0.94013 0.0
H1448 H 0.80261 0.42766 0.90439 0.0
H1449 H 0.88278 0.38902 0.99206 0.0
H1450 H 0.90604 0.36624 0.96898 0.0
H1451 H 0.87752 0.35389 0.99687 0.0
H1452 H 0.86395 0.32694 0.93026 0.0
H1453 H 0.89242 0.33913 0.90225 0.0
H1454 H 0.85996 0.34368 0.87986 0.0
H1455 H 0.84274 0.44628 0.86918 0.0
H1456 H 0.88496 0.4544 0.83261 0.0
H1457 H 0.91714 0.38263 0.88842 0.0
C1458 C 0.82125 0.36207 0.9632 0.0
C1459 C 0.79466 0.37085 0.96346 0.0
C1460 C 0.78833 0.39486 0.9421 0.0
C1461 C 0.80779 0.40968 0.92121 0.0
C1462 C 0.83357 0.40023 0.92127 0.0
C1463 C 0.84032 0.37686 0.94135 0.0
C1464 C 0.86902 0.36994 0.93343 0.0
C1465 C 0.88477 0.36977 0.97533 0.0
C1466 C 0.87147 0.34335 0.91005 0.0
C1467 C 0.87718 0.39285 0.90512 0.0
C1468 C 0.85655 0.41034 0.8992 0.0
C1469 C 0.85909 0.43279 0.87373 0.0
C1470 C 0.88322 0.43727 0.85318 0.0
C1471 C 0.90442 0.41918 0.85766 0.0
C1472 C 0.90134 0.39685 0.88441 0.0
H1473 H 0.38079 0.05025 0.21427 0.0
H1474 H 0.45651 0.09023 0.21787 0.0
H1475 H 0.43692 0.12869 0.18109 0.0
H1476 H 0.36176 0.07107 0.11276 0.0
H1477 H 0.32738 0.07576 0.12525 0.0
H1478 H 0.34666 0.05212 0.15489 0.0
H1479 H 0.33426 0.07533 0.22557 0.0
H1480 H 0.3146 0.09885 0.1962 0.0
H1481 H 0.34029 0.11026 0.23142 0.0
H1482 H 0.41013 0.16102 0.13757 0.0
H1483 H 0.37692 0.18655 0.09674 0.0
H1484 H 0.31836 0.12636 0.12441 0.0
C1485 C 0.3931 0.06736 0.2084 0.0
C1486 C 0.42026 0.06708 0.21876 0.0
C1487 C 0.43575 0.08976 0.2097 0.0
C1488 C 0.42478 0.11178 0.18895 0.0
C1489 C 0.39818 0.11103 0.17788 0.0
C1490 C 0.38243 0.0896 0.18791 0.0
C1491 C 0.35459 0.09347 0.17137 0.0
C1492 C 0.34718 0.07182 0.13916 0.0
C1493 C 0.33476 0.09455 0.20835 0.0
C1494 C 0.35731 0.12017 0.14982 0.0
C1495 C 0.38261 0.12996 0.15382 0.0
C1496 C 0.39014 0.15374 0.13475 0.0
C1497 C 0.3712 0.16803 0.11143 0.0
C1498 C 0.34501 0.15857 0.10765 0.0
C1499 C 0.33812 0.1343 0.12714 0.0
H1500 H 0.31484 0.34895 0.61601 0.0
H1501 H 0.29557 0.4221 0.55047 0.0
H1502 H 0.33658 0.44229 0.57844 0.0
H1503 H 0.33896 0.37812 0.71011 0.0
H1504 H 0.36463 0.35397 0.71838 0.0
H1505 H 0.33504 0.34494 0.69024 0.0
H1506 H 0.3631 0.32957 0.62591 0.0
H1507 H 0.39281 0.33864 0.65386 0.0
H1508 H 0.38615 0.35223 0.6018 0.0
H1509 H 0.37838 0.45542 0.61885 0.0
H1510 H 0.41682 0.46004 0.66697 0.0
H1511 H 0.40812 0.37802 0.70538 0.0
C1512 C 0.31919 0.36923 0.60741 0.0
C1513 C 0.30184 0.38397 0.58114 0.0
C1514 C 0.30861 0.41031 0.57021 0.0
C1515 C 0.33184 0.42197 0.58608 0.0
C1516 C 0.34824 0.40696 0.61253 0.0
C1517 C 0.34221 0.38108 0.62286 0.0
C1518 C 0.36241 0.3694 0.65313 0.0
C1519 C 0.34949 0.36113 0.69546 0.0
C1520 C 0.37698 0.34608 0.63243 0.0
C1521 C 0.38054 0.39288 0.65902 0.0
C1522 C 0.37218 0.41435 0.63521 0.0
C1523 C 0.3852 0.43862 0.63725 0.0
C1524 C 0.40703 0.44107 0.66472 0.0
C1525 C 0.41565 0.41937 0.68985 0.0
C1526 C 0.40234 0.39492 0.68625 0.0
H1527 H 0.84745 0.1058 0.50296 0.0
H1528 H 0.85981 0.17955 0.43492 0.0
H1529 H 0.8801 0.1549 0.37544 0.0
H1530 H 0.90745 0.07409 0.4718 0.0
H1531 H 0.89271 0.04184 0.4665 0.0
H1532 H 0.87908 0.06535 0.5034 0.0
H1533 H 0.8334 0.06096 0.46691 0.0
H1534 H 0.84691 0.03748 0.42981 0.0
H1535 H 0.83052 0.06677 0.4104 0.0
H1536 H 0.9011 0.12193 0.32449 0.0
H1537 H 0.91902 0.0834 0.28536 0.0
H1538 H 0.89106 0.03125 0.38535 0.0
C1539 C 0.85442 0.11681 0.47559 0.0
C1540 C 0.85208 0.14469 0.47378 0.0
C1541 C 0.86131 0.15823 0.43712 0.0
C1542 C 0.87291 0.14438 0.40315 0.0
C1543 C 0.87494 0.11692 0.40602 0.0
C1544 C 0.86576 0.10328 0.44122 0.0
C1545 C 0.8701 0.07376 0.43638 0.0
C1546 C 0.88842 0.06314 0.47161 0.0
C1547 C 0.84366 0.05887 0.43583 0.0
C1548 C 0.88337 0.07289 0.39316 0.0
C1549 C 0.88613 0.09799 0.37621 0.0
C1550 C 0.89879 0.10219 0.33732 0.0
C1551 C 0.90895 0.08022 0.31534 0.0
C1552 C 0.90614 0.05432 0.33199 0.0
C1553 C 0.89301 0.05074 0.37134 0.0
H1554 H 0.15116 0.58574 0.17263 0.0
H1555 H 0.10056 0.65085 0.20987 0.0
H1556 H 0.12897 0.68187 0.16951 0.0
H1557 H 0.21232 0.622 0.1827 0.0
H1558 H 0.22761 0.60549 0.1383 0.0
H1559 H 0.20283 0.58871 0.16921 0.0
H1560 H 0.17587 0.58037 0.1003 0.0
H1561 H 0.20037 0.59753 0.06929 0.0
H1562 H 0.16639 0.60801 0.06726 0.0
H1563 H 0.16167 0.70516 0.12193 0.0
H1564 H 0.19985 0.72052 0.08029 0.0
H1565 H 0.23118 0.64054 0.07933 0.0
C1566 C 0.14612 0.60656 0.17237 0.0
C1567 C 0.12364 0.61597 0.19412 0.0
C1568 C 0.1178 0.64333 0.19354 0.0
C1569 C 0.13368 0.66101 0.17043 0.0
C1570 C 0.15548 0.651 0.14869 0.0
C1571 C 0.16202 0.6245 0.1502 0.0
C1572 C 0.18723 0.61899 0.1259 0.0
C1573 C 0.20877 0.60817 0.15582 0.0
C1574 C 0.18214 0.60011 0.08847 0.0
C1575 C 0.19383 0.64655 0.11026 0.0
C1576 C 0.17505 0.66463 0.12319 0.0
C1577 C 0.1767 0.69125 0.1122 0.0
C1578 C 0.19859 0.69978 0.08864 0.0
C1579 C 0.21891 0.68189 0.07696 0.0
C1580 C 0.21603 0.65478 0.08726 0.0
H1581 H 0.57903 0.95136 0.87712 0.0
H1582 H 0.65177 0.98003 0.82044 0.0
H1583 H 0.67589 0.9427 0.85292 0.0
H1584 H 0.6066 0.92851 0.97512 0.0
H1585 H 0.58598 0.89957 0.97847 0.0
H1586 H 0.5743 0.92862 0.95099 0.0
H1587 H 0.566 0.90089 0.88299 0.0
H1588 H 0.57754 0.87171 0.91032 0.0
H1589 H 0.59257 0.88166 0.86081 0.0
H1590 H 0.69248 0.90307 0.89363 0.0
H1591 H 0.69994 0.86278 0.93656 0.0
H1592 H 0.61607 0.8582 0.96322 0.0
C1593 C 0.59996 0.94967 0.87086 0.0
C1594 C 0.61342 0.96889 0.84614 0.0
C1595 C 0.64097 0.96596 0.83972 0.0
C1596 C 0.65486 0.94469 0.85786 0.0
C1597 C 0.64097 0.92628 0.88215 0.0
C1598 C 0.6141 0.92842 0.88842 0.0
C1599 C 0.60387 0.90586 0.91576 0.0
C1600 C 0.59199 0.91627 0.95755 0.0
C1601 C 0.58381 0.88903 0.89098 0.0
C1602 C 0.6292 0.89069 0.92391 0.0
C1603 C 0.6504 0.90294 0.90449 0.0
C1604 C 0.67599 0.8932 0.90867 0.0
C1605 C 0.68003 0.87032 0.93322 0.0
C1606 C 0.65858 0.8572 0.95299 0.0
C1607 C 0.63282 0.86756 0.94804 0.0
loop_
_geom_bond_atom_site_label_1
_geom_bond_atom_site_label_2
_geom_bond_distance
_geom_bond_site_symmetry_2
_ccdc_geom_bond_type
C0 C1 1.351 . S
C0 N3 1.368 . S
C0 H5 0.931 . S
C1 C0 1.351 . S
C1 N2 1.373 . S
C1 H29 0.930 . S
N2 C1 1.373 . S
N2 C4 1.340 . S
N3 C0 1.368 . S
N3 C4 1.321 . S
N3 Co6 2.135 . S
C4 N2 1.340 . S
C4 N3 1.321 . S
C4 H28 0.930 . S
H5 C0 0.931 . S
Co6 N3 2.135 . S
Co6 N9 2.121 1_554 S
Co6 O14 2.055 . S
Co6 O17 2.039 . S
Co6 N20 2.140 1_554 S
C7 O8 1.227 . S
C7 O17 1.265 . S
O8 C7 1.227 . S
N9 Co6 2.121 1_556 S
N9 C11 1.375 . S
N9 C12 1.313 . S
C10 C11 1.338 . S
C10 N13 1.377 . S
C10 H30 0.930 . S
C11 N9 1.375 . S
C11 C10 1.338 . S
C11 H15 0.931 . S
C12 N9 1.313 . S
C12 N13 1.344 . S
C12 H16 0.930 . S
N13 C10 1.377 . S
N13 C12 1.344 . S
O14 Co6 2.055 . S
O14 C18 1.253 1_554 S
H15 C11 0.931 . S
H16 C12 0.930 . S
O17 Co6 2.039 . S
O17 C7 1.265 . S
C18 O14 1.253 1_556 S
C18 O19 1.227 . S
O19 C18 1.227 . S
N20 Co6 2.140 1_556 S
N20 C23 1.346 1_556 S
N20 C24 1.345 . S
C21 C22 1.376 1_556 S
C21 C25 1.391 . S
C22 C21 1.376 1_554 S
C22 C23 1.374 . S
C22 H31 0.936 . S
C23 N20 1.346 1_554 S
C23 C22 1.374 . S
C23 H26 0.928 . S
C24 N20 1.345 . S
C24 C25 1.371 . S
C24 H27 0.931 . S
C25 C21 1.391 . S
C25 C24 1.371 . S
C25 H32 0.930 . S
H26 C23 0.928 . S
H27 C24 0.931 . S
H28 C4 0.930 . S
H29 C1 0.930 . S
H30 C10 0.930 . S
H31 C22 0.936 . S
H32 C25 0.930 . S
C33 C34 1.351 . S
C33 N36 1.368 . S
C33 H38 0.931 . S
C34 C33 1.351 . S
C34 N35 1.373 . S
C34 H62 0.930 . S
N35 C34 1.373 . S
N35 C37 1.340 . S
N36 C33 1.368 . S
N36 C37 1.321 . S
N36 Co39 2.135 . S
C37 N35 1.340 . S
C37 N36 1.321 . S
C37 H61 0.930 . S
H38 C33 0.931 . S
Co39 N36 2.135 . S
Co39 N42 2.121 . S
Co39 O47 2.055 . S
Co39 O50 2.039 . S
Co39 N53 2.140 . S
C40 O41 1.227 . S
C40 O50 1.265 . S
O41 C40 1.227 . S
N42 Co39 2.121 . S
N42 C44 1.375 . S
N42 C45 1.313 . S
C43 C44 1.338 . S
C43 N46 1.377 . S
C43 H63 0.930 . S
C44 N42 1.375 . S
C44 C43 1.338 . S
C44 H48 0.931 . S
C45 N42 1.313 . S
C45 N46 1.344 . S
C45 H49 0.930 . S
N46 C43 1.377 . S
N46 C45 1.344 . S
O47 Co39 2.055 . S
O47 C51 1.253 . S
H48 C44 0.931 . S
H49 C45 0.930 . S
O50 Co39 2.039 . S
O50 C40 1.265 . S
C51 O47 1.253 . S
C51 O52 1.227 . S
O52 C51 1.227 . S
N53 Co39 2.140 . S
N53 C56 1.346 . S
N53 C57 1.345 . S
C54 C55 1.387 . S
C54 C58 1.391 . S
C55 C54 1.387 . S
C55 C56 1.369 . S
C55 H64 0.929 . S
C56 N53 1.346 . S
C56 C55 1.369 . S
C56 H59 0.928 . S
C57 N53 1.345 . S
C57 C58 1.371 . S
C57 H60 0.931 . S
C58 C54 1.391 . S
C58 C57 1.371 . S
C58 H65 0.930 . S
H59 C56 0.928 . S
H60 C57 0.931 . S
H61 C37 0.930 . S
H62 C34 0.930 . S
H63 C43 0.930 . S
H64 C55 0.929 . S
H65 C58 0.930 . S
C66 C67 1.351 . S
C66 N69 1.368 . S
C66 H71 0.931 . S
C67 C66 1.351 . S
C67 N68 1.373 . S
C67 H95 0.930 . S
N68 C67 1.373 . S
N68 C70 1.340 . S
N69 C66 1.368 . S
N69 C70 1.321 . S
N69 Co72 2.135 . S
C70 N68 1.340 . S
C70 N69 1.321 . S
C70 H94 0.930 . S
H71 C66 0.931 . S
Co72 N69 2.135 . S
Co72 N75 2.121 . S
Co72 O80 2.055 . S
Co72 O83 2.039 . S
Co72 N86 2.140 . S
C73 O74 1.227 . S
C73 O83 1.265 . S
O74 C73 1.227 . S
N75 Co72 2.121 . S
N75 C77 1.375 . S
N75 C78 1.313 . S
C76 C77 1.338 . S
C76 N79 1.377 . S
C76 H96 0.930 . S
C77 N75 1.375 . S
C77 C76 1.338 . S
C77 H81 0.931 . S
C78 N75 1.313 . S
C78 N79 1.344 . S
C78 H82 0.930 . S
N79 C76 1.377 . S
N79 C78 1.344 . S
O80 Co72 2.055 . S
O80 C84 1.253 . S
H81 C77 0.931 . S
H82 C78 0.930 . S
O83 Co72 2.039 . S
O83 C73 1.265 . S
C84 O80 1.253 . S
C84 O85 1.227 . S
O85 C84 1.227 . S
N86 Co72 2.140 . S
N86 C89 1.346 . S
N86 C90 1.345 . S
C87 C88 1.387 . S
C87 C91 1.391 . S
C88 C87 1.387 . S
C88 C89 1.369 . S
C88 H97 0.929 . S
C89 N86 1.346 . S
C89 C88 1.369 . S
C89 H92 0.928 . S
C90 N86 1.345 . S
C90 C91 1.371 . S
C90 H93 0.931 . S
C91 C87 1.391 . S
C91 C90 1.371 . S
C91 H98 0.930 . S
H92 C89 0.928 . S
H93 C90 0.931 . S
H94 C70 0.930 . S
H95 C67 0.930 . S
H96 C76 0.930 . S
H97 C88 0.929 . S
H98 C91 0.930 . S
C99 C100 1.351 . S
C99 N102 1.368 . S
C99 H104 0.931 . S
C100 C99 1.351 . S
C100 N101 1.373 . S
C100 H128 0.930 1_655 S
N101 C100 1.373 . S
N101 C103 1.340 . S
N102 C99 1.368 . S
N102 C103 1.321 . S
N102 Co105 2.135 . S
C103 N101 1.340 . S
C103 N102 1.321 . S
C103 H127 0.930 . S
H104 C99 0.931 . S
Co105 N102 2.135 . S
Co105 N108 2.121 . S
Co105 O113 2.055 . S
Co105 O116 2.039 . S
Co105 N119 2.140 . S
C106 O107 1.227 . S
C106 O116 1.265 . S
O107 C106 1.227 . S
N108 Co105 2.121 . S
N108 C110 1.375 . S
N108 C111 1.313 . S
C109 C110 1.338 . S
C109 N112 1.377 . S
C109 H129 0.930 . S
C110 N108 1.375 . S
C110 C109 1.338 . S
C110 H114 0.931 . S
C111 N108 1.313 . S
C111 N112 1.344 . S
C111 H115 0.930 . S
N112 C109 1.377 . S
N112 C111 1.344 . S
O113 Co105 2.055 . S
O113 C117 1.253 . S
H114 C110 0.931 . S
H115 C111 0.930 . S
O116 Co105 2.039 . S
O116 C106 1.265 . S
C117 O113 1.253 . S
C117 O118 1.227 . S
O118 C117 1.227 . S
N119 Co105 2.140 . S
N119 C122 1.346 . S
N119 C123 1.345 . S
C120 C121 1.387 . S
C120 C124 1.391 . S
C121 C120 1.387 . S
C121 C122 1.369 . S
C121 H130 0.929 . S
C122 N119 1.346 . S
C122 C121 1.369 . S
C122 H125 0.928 . S
C123 N119 1.345 . S
C123 C124 1.371 . S
C123 H126 0.931 . S
C124 C120 1.391 . S
C124 C123 1.371 . S
C124 H131 0.930 . S
H125 C122 0.928 . S
H126 C123 0.931 . S
H127 C103 0.930 . S
H128 C100 0.930 1_455 S
H129 C109 0.930 . S
H130 C121 0.929 . S
H131 C124 0.930 . S
C132 C133 1.351 . S
C132 N135 1.368 . S
C132 H137 0.931 . S
C133 C132 1.351 . S
C133 N134 1.373 . S
C133 H161 0.930 . S
N134 C133 1.373 . S
N134 C136 1.340 . S
N135 C132 1.368 . S
N135 C136 1.321 . S
N135 Co138 2.135 . S
C136 N134 1.340 . S
C136 N135 1.321 . S
C136 H160 0.930 . S
H137 C132 0.931 . S
Co138 N135 2.135 . S
Co138 N141 2.121 1_556 S
Co138 O146 2.055 . S
Co138 O149 2.039 . S
Co138 N152 2.140 1_556 S
C139 O140 1.227 . S
C139 O149 1.265 . S
O140 C139 1.227 . S
N141 Co138 2.121 1_554 S
N141 C143 1.375 . S
N141 C144 1.313 . S
C142 C143 1.338 . S
C142 N145 1.377 . S
C142 H162 0.930 . S
C143 N141 1.375 . S
C143 C142 1.338 . S
C143 H147 0.931 . S
C144 N141 1.313 . S
C144 N145 1.344 . S
C144 H148 0.930 . S
N145 C142 1.377 . S
N145 C144 1.344 . S
O146 Co138 2.055 . S
O146 C150 1.253 1_556 S
H147 C143 0.931 . S
H148 C144 0.930 . S
O149 Co138 2.039 . S
O149 C139 1.265 . S
C150 O146 1.253 1_554 S
C150 O151 1.227 . S
O151 C150 1.227 . S
N152 Co138 2.140 1_554 S
N152 C155 1.346 1_554 S
N152 C156 1.345 . S
C153 C154 1.376 1_554 S
C153 C157 1.391 . S
C154 C153 1.376 1_556 S
C154 C155 1.374 . S
C154 H163 0.936 . S
C155 N152 1.346 1_556 S
C155 C154 1.374 . S
C155 H158 0.928 . S
C156 N152 1.345 . S
C156 C157 1.371 . S
C156 H159 0.931 . S
C157 C153 1.391 . S
C157 C156 1.371 . S
C157 H164 0.930 . S
H158 C155 0.928 . S
H159 C156 0.931 . S
H160 C136 0.930 . S
H161 C133 0.930 . S
H162 C142 0.930 . S
H163 C154 0.936 . S
H164 C157 0.930 . S
C165 C166 1.351 . S
C165 N168 1.368 . S
C165 H170 0.931 . S
C166 C165 1.351 . S
C166 N167 1.373 . S
C166 H194 0.930 . S
N167 C166 1.373 . S
N167 C169 1.340 . S
N168 C165 1.368 . S
N168 C169 1.321 . S
N168 Co171 2.135 . S
C169 N167 1.340 . S
C169 N168 1.321 . S
C169 H193 0.930 . S
H170 C165 0.931 . S
Co171 N168 2.135 . S
Co171 N174 2.121 . S
Co171 O179 2.055 . S
Co171 O182 2.039 . S
Co171 N185 2.140 . S
C172 O173 1.227 . S
C172 O182 1.265 . S
O173 C172 1.227 . S
N174 Co171 2.121 . S
N174 C176 1.375 . S
N174 C177 1.313 . S
C175 C176 1.338 . S
C175 N178 1.377 . S
C175 H195 0.930 . S
C176 N174 1.375 . S
C176 C175 1.338 . S
C176 H180 0.931 . S
C177 N174 1.313 . S
C177 N178 1.344 . S
C177 H181 0.930 . S
N178 C175 1.377 . S
N178 C177 1.344 . S
O179 Co171 2.055 . S
O179 C183 1.253 . S
H180 C176 0.931 . S
H181 C177 0.930 . S
O182 Co171 2.039 . S
O182 C172 1.265 . S
C183 O179 1.253 . S
C183 O184 1.227 . S
O184 C183 1.227 . S
N185 Co171 2.140 . S
N185 C188 1.346 . S
N185 C189 1.345 . S
C186 C187 1.387 . S
C186 C190 1.391 . S
C187 C186 1.387 . S
C187 C188 1.369 . S
C187 H196 0.929 . S
C188 N185 1.346 . S
C188 C187 1.369 . S
C188 H191 0.928 . S
C189 N185 1.345 . S
C189 C190 1.371 . S
C189 H192 0.931 . S
C190 C186 1.391 . S
C190 C189 1.371 . S
C190 H197 0.930 . S
H191 C188 0.928 . S
H192 C189 0.931 . S
H193 C169 0.930 . S
H194 C166 0.930 . S
H195 C175 0.930 . S
H196 C187 0.929 . S
H197 C190 0.930 . S
C198 C199 1.351 . S
C198 N201 1.368 . S
C198 H203 0.931 . S
C199 C198 1.351 . S
C199 N200 1.373 . S
C199 H227 0.930 . S
N200 C199 1.373 . S
N200 C202 1.340 . S
N201 C198 1.368 . S
N201 C202 1.321 . S
N201 Co204 2.135 . S
C202 N200 1.340 . S
C202 N201 1.321 . S
C202 H226 0.930 . S
H203 C198 0.931 . S
Co204 N201 2.135 . S
Co204 N207 2.121 . S
Co204 O212 2.055 . S
Co204 O215 2.039 . S
Co204 N218 2.140 . S
C205 O206 1.227 . S
C205 O215 1.265 . S
O206 C205 1.227 . S
N207 Co204 2.121 . S
N207 C209 1.375 . S
N207 C210 1.313 . S
C208 C209 1.338 . S
C208 N211 1.377 . S
C208 H228 0.930 . S
C209 N207 1.375 . S
C209 C208 1.338 . S
C209 H213 0.931 . S
C210 N207 1.313 . S
C210 N211 1.344 . S
C210 H214 0.930 . S
N211 C208 1.377 . S
N211 C210 1.344 . S
O212 Co204 2.055 . S
O212 C216 1.253 . S
H213 C209 0.931 . S
H214 C210 0.930 . S
O215 Co204 2.039 . S
O215 C205 1.265 . S
C216 O212 1.253 . S
C216 O217 1.227 . S
O217 C216 1.227 . S
N218 Co204 2.140 . S
N218 C221 1.346 . S
N218 C222 1.345 . S
C219 C220 1.387 . S
C219 C223 1.391 . S
C220 C219 1.387 . S
C220 C221 1.369 . S
C220 H229 0.929 . S
C221 N218 1.346 . S
C221 C220 1.369 . S
C221 H224 0.928 . S
C222 N218 1.345 . S
C222 C223 1.371 . S
C222 H225 0.931 . S
C223 C219 1.391 . S
C223 C222 1.371 . S
C223 H230 0.930 . S
H224 C221 0.928 . S
H225 C222 0.931 . S
H226 C202 0.930 . S
H227 C199 0.930 . S
H228 C208 0.930 . S
H229 C220 0.929 . S
H230 C223 0.930 . S
C231 C232 1.351 . S
C231 N234 1.368 . S
C231 H236 0.931 . S
C232 C231 1.351 . S
C232 N233 1.373 . S
C232 H260 0.930 1_455 S
N233 C232 1.373 . S
N233 C235 1.340 . S
N234 C231 1.368 . S
N234 C235 1.321 . S
N234 Co237 2.135 . S
C235 N233 1.340 . S
C235 N234 1.321 . S
C235 H259 0.930 . S
H236 C231 0.931 . S
Co237 N234 2.135 . S
Co237 N240 2.121 . S
Co237 O245 2.055 . S
Co237 O248 2.039 . S
Co237 N251 2.140 . S
C238 O239 1.227 . S
C238 O248 1.265 . S
O239 C238 1.227 . S
N240 Co237 2.121 . S
N240 C242 1.375 . S
N240 C243 1.313 . S
C241 C242 1.338 . S
C241 N244 1.377 . S
C241 H261 0.930 . S
C242 N240 1.375 . S
C242 C241 1.338 . S
C242 H246 0.931 . S
C243 N240 1.313 . S
C243 N244 1.344 . S
C243 H247 0.930 . S
N244 C241 1.377 . S
N244 C243 1.344 . S
O245 Co237 2.055 . S
O245 C249 1.253 . S
H246 C242 0.931 . S
H247 C243 0.930 . S
O248 Co237 2.039 . S
O248 C238 1.265 . S
C249 O245 1.253 . S
C249 O250 1.227 . S
O250 C249 1.227 . S
N251 Co237 2.140 . S
N251 C254 1.346 . S
N251 C255 1.345 . S
C252 C253 1.387 . S
C252 C256 1.391 . S
C253 C252 1.387 . S
C253 C254 1.369 . S
C253 H262 0.929 . S
C254 N251 1.346 . S
C254 C253 1.369 . S
C254 H257 0.928 . S
C255 N251 1.345 . S
C255 C256 1.371 . S
C255 H258 0.931 . S
C256 C252 1.391 . S
C256 C255 1.371 . S
C256 H263 0.930 . S
H257 C254 0.928 . S
H258 C255 0.931 . S
H259 C235 0.930 . S
H260 C232 0.930 1_655 S
H261 C241 0.930 . S
H262 C253 0.929 . S
H263 C256 0.930 . S
C264 C265 1.351 . S
C264 N267 1.368 . S
C264 H269 0.931 . S
C265 C264 1.351 . S
C265 N266 1.373 . S
C265 H293 0.930 . S
N266 C265 1.373 . S
N266 C268 1.340 . S
N267 C264 1.368 . S
N267 C268 1.321 . S
N267 Co270 2.135 . S
C268 N266 1.340 . S
C268 N267 1.321 . S
C268 H292 0.930 . S
H269 C264 0.931 . S
Co270 N267 2.135 . S
Co270 N273 2.121 . S
Co270 O278 2.055 . S
Co270 O281 2.039 . S
Co270 N284 2.140 . S
C271 O272 1.227 . S
C271 O281 1.265 . S
O272 C271 1.227 . S
N273 Co270 2.121 . S
N273 C275 1.375 . S
N273 C276 1.313 . S
C274 C275 1.338 . S
C274 N277 1.377 . S
C274 H294 0.930 . S
C275 N273 1.375 . S
C275 C274 1.338 . S
C275 H279 0.931 . S
C276 N273 1.313 . S
C276 N277 1.344 . S
C276 H280 0.930 . S
N277 C274 1.377 . S
N277 C276 1.344 . S
O278 Co270 2.055 . S
O278 C282 1.253 . S
H279 C275 0.931 . S
H280 C276 0.930 . S
O281 Co270 2.039 . S
O281 C271 1.265 . S
C282 O278 1.253 . S
C282 O283 1.227 . S
O283 C282 1.227 . S
N284 Co270 2.140 . S
N284 C287 1.346 . S
N284 C288 1.345 . S
C285 C286 1.387 . S
C285 C289 1.391 . S
C286 C285 1.387 . S
C286 C287 1.369 . S
C286 H295 0.929 . S
C287 N284 1.346 . S
C287 C286 1.369 . S
C287 H290 0.928 . S
C288 N284 1.345 . S
C288 C289 1.371 . S
C288 H291 0.931 . S
C289 C285 1.391 . S
C289 C288 1.371 . S
C289 H296 0.930 . S
H290 C287 0.928 . S
H291 C288 0.931 . S
H292 C268 0.930 . S
H293 C265 0.930 . S
H294 C274 0.930 . S
H295 C286 0.929 . S
H296 C289 0.930 . S
C297 C298 1.351 . S
C297 N300 1.368 . S
C297 H302 0.931 . S
C298 C297 1.351 . S
C298 N299 1.373 . S
C298 H326 0.930 1_455 S
N299 C298 1.373 . S
N299 C301 1.340 . S
N300 C297 1.368 . S
N300 C301 1.321 . S
N300 Co303 2.135 . S
C301 N299 1.340 . S
C301 N300 1.321 . S
C301 H325 0.930 . S
H302 C297 0.931 . S
Co303 N300 2.135 . S
Co303 N306 2.121 . S
Co303 O311 2.055 . S
Co303 O314 2.039 . S
Co303 N317 2.140 . S
C304 O305 1.227 . S
C304 O314 1.265 . S
O305 C304 1.227 . S
N306 Co303 2.121 . S
N306 C308 1.375 . S
N306 C309 1.313 . S
C307 C308 1.338 . S
C307 N310 1.377 . S
C307 H327 0.930 . S
C308 N306 1.375 . S
C308 C307 1.338 . S
C308 H312 0.931 . S
C309 N306 1.313 . S
C309 N310 1.344 . S
C309 H313 0.930 . S
N310 C307 1.377 . S
N310 C309 1.344 . S
O311 Co303 2.055 . S
O311 C315 1.253 . S
H312 C308 0.931 . S
H313 C309 0.930 . S
O314 Co303 2.039 . S
O314 C304 1.265 . S
C315 O311 1.253 . S
C315 O316 1.227 . S
O316 C315 1.227 . S
N317 Co303 2.140 . S
N317 C320 1.346 . S
N317 C321 1.345 . S
C318 C319 1.387 . S
C318 C322 1.391 . S
C319 C318 1.387 . S
C319 C320 1.369 . S
C319 H328 0.929 1_545 S
C320 N317 1.346 . S
C320 C319 1.369 . S
C320 H323 0.928 . S
C321 N317 1.345 . S
C321 C322 1.371 . S
C321 H324 0.931 . S
C322 C318 1.391 . S
C322 C321 1.371 . S
C322 H329 0.930 . S
H323 C320 0.928 . S
H324 C321 0.931 . S
H325 C301 0.930 . S
H326 C298 0.930 1_655 S
H327 C307 0.930 . S
H328 C319 0.929 1_565 S
H329 C322 0.930 . S
C330 C331 1.351 . S
C330 N333 1.368 . S
C330 H335 0.931 . S
C331 C330 1.351 . S
C331 N332 1.373 . S
C331 H359 0.930 . S
N332 C331 1.373 . S
N332 C334 1.340 . S
N333 C330 1.368 . S
N333 C334 1.321 . S
N333 Co336 2.135 . S
C334 N332 1.340 . S
C334 N333 1.321 . S
C334 H358 0.930 . S
H335 C330 0.931 . S
Co336 N333 2.135 . S
Co336 N339 2.121 1_554 S
Co336 O344 2.055 . S
Co336 O347 2.039 . S
Co336 N350 2.140 1_554 S
C337 O338 1.227 . S
C337 O347 1.265 . S
O338 C337 1.227 . S
N339 Co336 2.121 1_556 S
N339 C341 1.375 . S
N339 C342 1.313 . S
C340 C341 1.338 . S
C340 N343 1.377 . S
C340 H360 0.930 . S
C341 N339 1.375 . S
C341 C340 1.338 . S
C341 H345 0.931 . S
C342 N339 1.313 . S
C342 N343 1.344 . S
C342 H346 0.930 . S
N343 C340 1.377 . S
N343 C342 1.344 . S
O344 Co336 2.055 . S
O344 C348 1.253 1_554 S
H345 C341 0.931 . S
H346 C342 0.930 . S
O347 Co336 2.039 . S
O347 C337 1.265 . S
C348 O344 1.253 1_556 S
C348 O349 1.227 . S
O349 C348 1.227 . S
N350 Co336 2.140 1_556 S
N350 C353 1.346 1_556 S
N350 C354 1.345 . S
C351 C352 1.376 1_556 S
C351 C355 1.391 . S
C352 C351 1.376 1_554 S
C352 C353 1.374 . S
C352 H361 0.936 . S
C353 N350 1.346 1_554 S
C353 C352 1.374 . S
C353 H356 0.928 . S
C354 N350 1.345 . S
C354 C355 1.371 . S
C354 H357 0.931 . S
C355 C351 1.391 . S
C355 C354 1.371 . S
C355 H362 0.930 . S
H356 C353 0.928 . S
H357 C354 0.931 . S
H358 C334 0.930 . S
H359 C331 0.930 . S
H360 C340 0.930 . S
H361 C352 0.936 . S
H362 C355 0.930 . S
C363 C364 1.351 . S
C363 N366 1.368 . S
C363 H368 0.931 . S
C364 C363 1.351 . S
C364 N365 1.373 . S
C364 H392 0.930 . S
N365 C364 1.373 . S
N365 C367 1.340 . S
N366 C363 1.368 . S
N366 C367 1.321 . S
N366 Co369 2.135 . S
C367 N365 1.340 . S
C367 N366 1.321 . S
C367 H391 0.930 . S
H368 C363 0.931 . S
Co369 N366 2.135 . S
Co369 N372 2.121 . S
Co369 O377 2.055 . S
Co369 O380 2.039 . S
Co369 N383 2.140 . S
C370 O371 1.227 . S
C370 O380 1.265 . S
O371 C370 1.227 . S
N372 Co369 2.121 . S
N372 C374 1.375 . S
N372 C375 1.313 . S
C373 C374 1.338 . S
C373 N376 1.377 . S
C373 H393 0.930 . S
C374 N372 1.375 . S
C374 C373 1.338 . S
C374 H378 0.931 . S
C375 N372 1.313 . S
C375 N376 1.344 . S
C375 H379 0.930 . S
N376 C373 1.377 . S
N376 C375 1.344 . S
O377 Co369 2.055 . S
O377 C381 1.253 . S
H378 C374 0.931 . S
H379 C375 0.930 . S
O380 Co369 2.039 . S
O380 C370 1.265 . S
C381 O377 1.253 . S
C381 O382 1.227 . S
O382 C381 1.227 . S
N383 Co369 2.140 . S
N383 C386 1.346 . S
N383 C387 1.345 . S
C384 C385 1.387 . S
C384 C388 1.391 . S
C385 C384 1.387 . S
C385 C386 1.369 . S
C385 H394 0.929 1_565 S
C386 N383 1.346 . S
C386 C385 1.369 . S
C386 H389 0.928 . S
C387 N383 1.345 . S
C387 C388 1.371 . S
C387 H390 0.931 . S
C388 C384 1.391 . S
C388 C387 1.371 . S
C388 H395 0.930 . S
H389 C386 0.928 . S
H390 C387 0.931 . S
H391 C367 0.930 . S
H392 C364 0.930 . S
H393 C373 0.930 . S
H394 C385 0.929 1_545 S
H395 C388 0.930 . S
C396 C397 1.351 . S
C396 N399 1.368 . S
C396 H401 0.931 . S
C397 C396 1.351 . S
C397 N398 1.373 . S
C397 H425 0.930 . S
N398 C397 1.373 . S
N398 C400 1.340 . S
N399 C396 1.368 . S
N399 C400 1.321 . S
N399 Co402 2.135 . S
C400 N398 1.340 . S
C400 N399 1.321 . S
C400 H424 0.930 . S
H401 C396 0.931 . S
Co402 N399 2.135 . S
Co402 N405 2.121 . S
Co402 O410 2.055 . S
Co402 O413 2.039 . S
Co402 N416 2.140 . S
C403 O404 1.227 . S
C403 O413 1.265 . S
O404 C403 1.227 . S
N405 Co402 2.121 . S
N405 C407 1.375 . S
N405 C408 1.313 . S
C406 C407 1.338 . S
C406 N409 1.377 . S
C406 H426 0.930 . S
C407 N405 1.375 . S
C407 C406 1.338 . S
C407 H411 0.931 . S
C408 N405 1.313 . S
C408 N409 1.344 . S
C408 H412 0.930 . S
N409 C406 1.377 . S
N409 C408 1.344 . S
O410 Co402 2.055 . S
O410 C414 1.253 . S
H411 C407 0.931 . S
H412 C408 0.930 . S
O413 Co402 2.039 . S
O413 C403 1.265 . S
C414 O410 1.253 . S
C414 O415 1.227 . S
O415 C414 1.227 . S
N416 Co402 2.140 . S
N416 C419 1.346 . S
N416 C420 1.345 . S
C417 C418 1.387 . S
C417 C421 1.391 . S
C418 C417 1.387 . S
C418 C419 1.369 . S
C418 H427 0.929 . S
C419 N416 1.346 . S
C419 C418 1.369 . S
C419 H422 0.928 . S
C420 N416 1.345 . S
C420 C421 1.371 . S
C420 H423 0.931 . S
C421 C417 1.391 . S
C421 C420 1.371 . S
C421 H428 0.930 . S
H422 C419 0.928 . S
H423 C420 0.931 . S
H424 C400 0.930 . S
H425 C397 0.930 . S
H426 C406 0.930 . S
H427 C418 0.929 . S
H428 C421 0.930 . S
C429 C430 1.351 . S
C429 N432 1.368 . S
C429 H434 0.931 . S
C430 C429 1.351 . S
C430 N431 1.373 . S
C430 H458 0.930 1_655 S
N431 C430 1.373 . S
N431 C433 1.340 . S
N432 C429 1.368 . S
N432 C433 1.321 . S
N432 Co435 2.135 . S
C433 N431 1.340 . S
C433 N432 1.321 . S
C433 H457 0.930 . S
H434 C429 0.931 . S
Co435 N432 2.135 . S
Co435 N438 2.121 . S
Co435 O443 2.055 . S
Co435 O446 2.039 . S
Co435 N449 2.140 . S
C436 O437 1.227 . S
C436 O446 1.265 . S
O437 C436 1.227 . S
N438 Co435 2.121 . S
N438 C440 1.375 . S
N438 C441 1.313 . S
C439 C440 1.338 . S
C439 N442 1.377 . S
C439 H459 0.930 . S
C440 N438 1.375 . S
C440 C439 1.338 . S
C440 H444 0.931 . S
C441 N438 1.313 . S
C441 N442 1.344 . S
C441 H445 0.930 . S
N442 C439 1.377 . S
N442 C441 1.344 . S
O443 Co435 2.055 . S
O443 C447 1.253 . S
H444 C440 0.931 . S
H445 C441 0.930 . S
O446 Co435 2.039 . S
O446 C436 1.265 . S
C447 O443 1.253 . S
C447 O448 1.227 . S
O448 C447 1.227 . S
N449 Co435 2.140 . S
N449 C452 1.346 . S
N449 C453 1.345 . S
C450 C451 1.387 . S
C450 C454 1.391 . S
C451 C450 1.387 . S
C451 C452 1.369 . S
C451 H460 0.929 1_565 S
C452 N449 1.346 . S
C452 C451 1.369 . S
C452 H455 0.928 . S
C453 N449 1.345 . S
C453 C454 1.371 . S
C453 H456 0.931 . S
C454 C450 1.391 . S
C454 C453 1.371 . S
C454 H461 0.930 . S
H455 C452 0.928 . S
H456 C453 0.931 . S
H457 C433 0.930 . S
H458 C430 0.930 1_455 S
H459 C439 0.930 . S
H460 C451 0.929 1_545 S
H461 C454 0.930 . S
C462 C463 1.351 . S
C462 N465 1.368 . S
C462 H467 0.931 . S
C463 C462 1.351 . S
C463 N464 1.373 . S
C463 H491 0.930 . S
N464 C463 1.373 . S
N464 C466 1.340 . S
N465 C462 1.368 . S
N465 C466 1.321 . S
N465 Co468 2.135 . S
C466 N464 1.340 . S
C466 N465 1.321 . S
C466 H490 0.930 . S
H467 C462 0.931 . S
Co468 N465 2.135 . S
Co468 N471 2.121 1_556 S
Co468 O476 2.055 . S
Co468 O479 2.039 . S
Co468 N482 2.140 1_556 S
C469 O470 1.227 . S
C469 O479 1.265 . S
O470 C469 1.227 . S
N471 Co468 2.121 1_554 S
N471 C473 1.375 . S
N471 C474 1.313 . S
C472 C473 1.338 . S
C472 N475 1.377 . S
C472 H492 0.930 . S
C473 N471 1.375 . S
C473 C472 1.338 . S
C473 H477 0.931 . S
C474 N471 1.313 . S
C474 N475 1.344 . S
C474 H478 0.930 . S
N475 C472 1.377 . S
N475 C474 1.344 . S
O476 Co468 2.055 . S
O476 C480 1.253 1_556 S
H477 C473 0.931 . S
H478 C474 0.930 . S
O479 Co468 2.039 . S
O479 C469 1.265 . S
C480 O476 1.253 1_554 S
C480 O481 1.227 . S
O481 C480 1.227 . S
N482 Co468 2.140 1_554 S
N482 C485 1.346 1_554 S
N482 C486 1.345 . S
C483 C484 1.376 1_554 S
C483 C487 1.391 . S
C484 C483 1.376 1_556 S
C484 C485 1.374 . S
C484 H493 0.936 . S
C485 N482 1.346 1_556 S
C485 C484 1.374 . S
C485 H488 0.928 . S
C486 N482 1.345 . S
C486 C487 1.371 . S
C486 H489 0.931 . S
C487 C483 1.391 . S
C487 C486 1.371 . S
C487 H494 0.930 . S
H488 C485 0.928 . S
H489 C486 0.931 . S
H490 C466 0.930 . S
H491 C463 0.930 . S
H492 C472 0.930 . S
H493 C484 0.936 . S
H494 C487 0.930 . S
C495 C496 1.351 . S
C495 N498 1.368 . S
C495 H500 0.931 . S
C496 C495 1.351 . S
C496 N497 1.373 . S
C496 H524 0.930 . S
N497 C496 1.373 . S
N497 C499 1.340 . S
N498 C495 1.368 . S
N498 C499 1.321 . S
N498 Co501 2.135 . S
C499 N497 1.340 . S
C499 N498 1.321 . S
C499 H523 0.930 . S
H500 C495 0.931 . S
Co501 N498 2.135 . S
Co501 N504 2.121 . S
Co501 O509 2.055 . S
Co501 O512 2.039 . S
Co501 N515 2.140 . S
C502 O503 1.227 . S
C502 O512 1.265 . S
O503 C502 1.227 . S
N504 Co501 2.121 . S
N504 C506 1.375 . S
N504 C507 1.313 . S
C505 C506 1.338 . S
C505 N508 1.377 . S
C505 H525 0.930 . S
C506 N504 1.375 . S
C506 C505 1.338 . S
C506 H510 0.931 . S
C507 N504 1.313 . S
C507 N508 1.344 . S
C507 H511 0.930 . S
N508 C505 1.377 . S
N508 C507 1.344 . S
O509 Co501 2.055 . S
O509 C513 1.253 . S
H510 C506 0.931 . S
H511 C507 0.930 . S
O512 Co501 2.039 . S
O512 C502 1.265 . S
C513 O509 1.253 . S
C513 O514 1.227 . S
O514 C513 1.227 . S
N515 Co501 2.140 . S
N515 C518 1.346 . S
N515 C519 1.345 . S
C516 C517 1.387 . S
C516 C520 1.391 . S
C517 C516 1.387 . S
C517 C518 1.369 . S
C517 H526 0.929 1_545 S
C518 N515 1.346 . S
C518 C517 1.369 . S
C518 H521 0.928 . S
C519 N515 1.345 . S
C519 C520 1.371 . S
C519 H522 0.931 . S
C520 C516 1.391 . S
C520 C519 1.371 . S
C520 H527 0.930 . S
H521 C518 0.928 . S
H522 C519 0.931 . S
H523 C499 0.930 . S
H524 C496 0.930 . S
H525 C505 0.930 . S
H526 C517 0.929 1_565 S
H527 C520 0.930 . S
H528 C540 0.930 . S
H529 C542 0.930 . S
H530 C543 0.930 . S
H531 C547 0.959 . S
H532 C547 0.959 . S
H533 C547 0.961 . S
H534 C548 0.960 . S
H535 C548 0.961 . S
H536 C548 0.959 . S
H537 C551 0.929 . S
H538 C552 0.931 . S
H539 C554 0.930 . S
C540 H528 0.930 . S
C540 C541 1.399 . S
C540 C545 1.399 . S
C541 C540 1.399 . S
C541 C542 1.376 . S
C542 H529 0.930 . S
C542 C541 1.376 . S
C542 C543 1.388 . S
C543 H530 0.930 . S
C543 C542 1.388 . S
C543 C544 1.390 . S
C544 C543 1.390 . S
C544 C545 1.394 . S
C544 C550 1.465 . S
C545 C540 1.399 . S
C545 C544 1.394 . S
C545 C546 1.516 . S
C546 C545 1.516 . S
C546 C547 1.502 . S
C546 C548 1.561 . S
C546 C549 1.526 . S
C547 H531 0.959 . S
C547 H532 0.959 . S
C547 H533 0.961 . S
C547 C546 1.502 . S
C548 H534 0.960 . S
C548 H535 0.961 . S
C548 H536 0.959 . S
C548 C546 1.561 . S
C549 C546 1.526 . S
C549 C550 1.396 . S
C549 C554 1.390 . S
C550 C544 1.465 . S
C550 C549 1.396 . S
C550 C551 1.399 . S
C551 H537 0.929 . S
C551 C550 1.399 . S
C551 C552 1.385 . S
C552 H538 0.931 . S
C552 C551 1.385 . S
C552 C553 1.389 . S
C553 C552 1.389 . S
C553 C554 1.387 . S
C554 H539 0.930 . S
C554 C549 1.390 . S
C554 C553 1.387 . S
H555 C567 0.930 . S
H556 C569 0.930 . S
H557 C570 0.930 . S
H558 C574 0.959 . S
H559 C574 0.959 . S
H560 C574 0.961 . S
H561 C575 0.960 . S
H562 C575 0.961 1_556 S
H563 C575 0.959 . S
H564 C578 0.929 . S
H565 C579 0.931 . S
H566 C581 0.930 . S
C567 H555 0.930 . S
C567 C568 1.399 . S
C567 C572 1.399 . S
C568 C567 1.399 . S
C568 C569 1.376 . S
C569 H556 0.930 . S
C569 C568 1.376 . S
C569 C570 1.388 . S
C570 H557 0.930 . S
C570 C569 1.388 . S
C570 C571 1.390 . S
C571 C570 1.390 . S
C571 C572 1.394 . S
C571 C577 1.465 . S
C572 C567 1.399 . S
C572 C571 1.394 . S
C572 C573 1.516 . S
C573 C572 1.516 . S
C573 C574 1.502 . S
C573 C575 1.561 . S
C573 C576 1.526 . S
C574 H558 0.959 . S
C574 H559 0.959 . S
C574 H560 0.961 . S
C574 C573 1.502 . S
C575 H561 0.960 . S
C575 H562 0.961 1_554 S
C575 H563 0.959 . S
C575 C573 1.561 . S
C576 C573 1.526 . S
C576 C577 1.396 . S
C576 C581 1.390 . S
C577 C571 1.465 . S
C577 C576 1.396 . S
C577 C578 1.399 . S
C578 H564 0.929 . S
C578 C577 1.399 . S
C578 C579 1.385 . S
C579 H565 0.931 . S
C579 C578 1.385 . S
C579 C580 1.389 . S
C580 C579 1.389 . S
C580 C581 1.387 . S
C581 H566 0.930 . S
C581 C576 1.390 . S
C581 C580 1.387 . S
H582 C594 0.930 . S
H583 C596 0.930 . S
H584 C597 0.930 . S
H585 C601 0.959 . S
H586 C601 0.959 . S
H587 C601 0.961 . S
H588 C602 0.960 . S
H589 C602 0.961 . S
H590 C602 0.959 . S
H591 C605 0.929 . S
H592 C606 0.931 . S
H593 C608 0.930 . S
C594 H582 0.930 . S
C594 C595 1.399 . S
C594 C599 1.399 . S
C595 C594 1.399 . S
C595 C596 1.376 . S
C596 H583 0.930 . S
C596 C595 1.376 . S
C596 C597 1.388 . S
C597 H584 0.930 . S
C597 C596 1.388 . S
C597 C598 1.390 . S
C598 C597 1.390 . S
C598 C599 1.394 . S
C598 C604 1.465 . S
C599 C594 1.399 . S
C599 C598 1.394 . S
C599 C600 1.516 . S
C600 C599 1.516 . S
C600 C601 1.502 . S
C600 C602 1.561 . S
C600 C603 1.526 . S
C601 H585 0.959 . S
C601 H586 0.959 . S
C601 H587 0.961 . S
C601 C600 1.502 . S
C602 H588 0.960 . S
C602 H589 0.961 . S
C602 H590 0.959 . S
C602 C600 1.561 . S
C603 C600 1.526 . S
C603 C604 1.396 . S
C603 C608 1.390 . S
C604 C598 1.465 . S
C604 C603 1.396 . S
C604 C605 1.399 . S
C605 H591 0.929 . S
C605 C604 1.399 . S
C605 C606 1.385 . S
C606 H592 0.931 . S
C606 C605 1.385 . S
C606 C607 1.389 . S
C607 C606 1.389 . S
C607 C608 1.387 . S
C608 H593 0.930 . S
C608 C603 1.390 . S
C608 C607 1.387 . S
H609 C621 0.930 . S
H610 C623 0.930 . S
H611 C624 0.930 . S
H612 C628 0.959 . S
H613 C628 0.959 . S
H614 C628 0.961 . S
H615 C629 0.960 . S
H616 C629 0.961 . S
H617 C629 0.959 . S
H618 C632 0.929 . S
H619 C633 0.931 . S
H620 C635 0.930 . S
C621 H609 0.930 . S
C621 C622 1.399 . S
C621 C626 1.399 . S
C622 C621 1.399 . S
C622 C623 1.376 . S
C623 H610 0.930 . S
C623 C622 1.376 . S
C623 C624 1.388 . S
C624 H611 0.930 . S
C624 C623 1.388 . S
C624 C625 1.390 . S
C625 C624 1.390 . S
C625 C626 1.394 . S
C625 C631 1.465 . S
C626 C621 1.399 . S
C626 C625 1.394 . S
C626 C627 1.516 . S
C627 C626 1.516 . S
C627 C628 1.502 . S
C627 C629 1.561 . S
C627 C630 1.526 . S
C628 H612 0.959 . S
C628 H613 0.959 . S
C628 H614 0.961 . S
C628 C627 1.502 . S
C629 H615 0.960 . S
C629 H616 0.961 . S
C629 H617 0.959 . S
C629 C627 1.561 . S
C630 C627 1.526 . S
C630 C631 1.396 . S
C630 C635 1.390 . S
C631 C625 1.465 . S
C631 C630 1.396 . S
C631 C632 1.399 . S
C632 H618 0.929 . S
C632 C631 1.399 . S
C632 C633 1.385 . S
C633 H619 0.931 . S
C633 C632 1.385 . S
C633 C634 1.389 . S
C634 C633 1.389 . S
C634 C635 1.387 . S
C635 H620 0.930 . S
C635 C630 1.390 . S
C635 C634 1.387 . S
H636 C648 0.930 . S
H637 C650 0.930 . S
H638 C651 0.930 . S
H639 C655 0.959 . S
H640 C655 0.959 . S
H641 C655 0.961 . S
H642 C656 0.960 . S
H643 C656 0.961 . S
H644 C656 0.959 . S
H645 C659 0.929 . S
H646 C660 0.931 . S
H647 C662 0.930 . S
C648 H636 0.930 . S
C648 C649 1.399 . S
C648 C653 1.399 . S
C649 C648 1.399 . S
C649 C650 1.376 . S
C650 H637 0.930 . S
C650 C649 1.376 . S
C650 C651 1.388 . S
C651 H638 0.930 . S
C651 C650 1.388 . S
C651 C652 1.390 . S
C652 C651 1.390 . S
C652 C653 1.394 . S
C652 C658 1.465 . S
C653 C648 1.399 . S
C653 C652 1.394 . S
C653 C654 1.516 . S
C654 C653 1.516 . S
C654 C655 1.502 . S
C654 C656 1.561 . S
C654 C657 1.526 . S
C655 H639 0.959 . S
C655 H640 0.959 . S
C655 H641 0.961 . S
C655 C654 1.502 . S
C656 H642 0.960 . S
C656 H643 0.961 . S
C656 H644 0.959 . S
C656 C654 1.561 . S
C657 C654 1.526 . S
C657 C658 1.396 . S
C657 C662 1.390 . S
C658 C652 1.465 . S
C658 C657 1.396 . S
C658 C659 1.399 . S
C659 H645 0.929 . S
C659 C658 1.399 . S
C659 C660 1.385 . S
C660 H646 0.931 . S
C660 C659 1.385 . S
C660 C661 1.389 . S
C661 C660 1.389 . S
C661 C662 1.387 . S
C662 H647 0.930 . S
C662 C657 1.390 . S
C662 C661 1.387 . S
H663 C675 0.930 1_554 S
H664 C677 0.930 . S
H665 C678 0.930 . S
H666 C682 0.959 . S
H667 C682 0.959 . S
H668 C682 0.961 1_554 S
H669 C683 0.960 . S
H670 C683 0.961 . S
H671 C683 0.959 . S
H672 C686 0.929 . S
H673 C687 0.931 . S
H674 C689 0.930 . S
C675 H663 0.930 1_556 S
C675 C676 1.399 . S
C675 C680 1.399 . S
C676 C675 1.399 . S
C676 C677 1.376 . S
C677 H664 0.930 . S
C677 C676 1.376 . S
C677 C678 1.388 . S
C678 H665 0.930 . S
C678 C677 1.388 . S
C678 C679 1.390 . S
C679 C678 1.390 . S
C679 C680 1.394 . S
C679 C685 1.465 . S
C680 C675 1.399 . S
C680 C679 1.394 . S
C680 C681 1.516 . S
C681 C680 1.516 . S
C681 C682 1.502 . S
C681 C683 1.561 . S
C681 C684 1.526 . S
C682 H666 0.959 . S
C682 H667 0.959 . S
C682 H668 0.961 1_556 S
C682 C681 1.502 . S
C683 H669 0.960 . S
C683 H670 0.961 . S
C683 H671 0.959 . S
C683 C681 1.561 . S
C684 C681 1.526 . S
C684 C685 1.396 . S
C684 C689 1.390 . S
C685 C679 1.465 . S
C685 C684 1.396 . S
C685 C686 1.399 . S
C686 H672 0.929 . S
C686 C685 1.399 . S
C686 C687 1.385 . S
C687 H673 0.931 . S
C687 C686 1.385 . S
C687 C688 1.389 . S
C688 C687 1.389 . S
C688 C689 1.387 . S
C689 H674 0.930 . S
C689 C684 1.390 . S
C689 C688 1.387 . S
H690 C702 0.930 . S
H691 C704 0.930 . S
H692 C705 0.930 . S
H693 C709 0.959 . S
H694 C709 0.959 . S
H695 C709 0.961 . S
H696 C710 0.960 . S
H697 C710 0.961 . S
H698 C710 0.959 . S
H699 C713 0.929 . S
H700 C714 0.931 . S
H701 C716 0.930 . S
C702 H690 0.930 . S
C702 C703 1.399 . S
C702 C707 1.399 . S
C703 C702 1.399 . S
C703 C704 1.376 . S
C704 H691 0.930 . S
C704 C703 1.376 . S
C704 C705 1.388 . S
C705 H692 0.930 . S
C705 C704 1.388 . S
C705 C706 1.390 . S
C706 C705 1.390 . S
C706 C707 1.394 . S
C706 C712 1.465 . S
C707 C702 1.399 . S
C707 C706 1.394 . S
C707 C708 1.516 . S
C708 C707 1.516 . S
C708 C709 1.502 . S
C708 C710 1.561 . S
C708 C711 1.526 . S
C709 H693 0.959 . S
C709 H694 0.959 . S
C709 H695 0.961 . S
C709 C708 1.502 . S
C710 H696 0.960 . S
C710 H697 0.961 . S
C710 H698 0.959 . S
C710 C708 1.561 . S
C711 C708 1.526 . S
C711 C712 1.396 . S
C711 C716 1.390 . S
C712 C706 1.465 . S
C712 C711 1.396 . S
C712 C713 1.399 . S
C713 H699 0.929 . S
C713 C712 1.399 . S
C713 C714 1.385 . S
C714 H700 0.931 . S
C714 C713 1.385 . S
C714 C715 1.389 . S
C715 C714 1.389 . S
C715 C716 1.387 . S
C716 H701 0.930 . S
C716 C711 1.390 . S
C716 C715 1.387 . S
H717 C729 0.930 . S
H718 C731 0.930 . S
H719 C732 0.930 . S
H720 C736 0.959 . S
H721 C736 0.959 . S
H722 C736 0.961 . S
H723 C737 0.960 . S
H724 C737 0.961 . S
H725 C737 0.959 . S
H726 C740 0.929 . S
H727 C741 0.931 . S
H728 C743 0.930 . S
C729 H717 0.930 . S
C729 C730 1.399 . S
C729 C734 1.399 . S
C730 C729 1.399 . S
C730 C731 1.376 . S
C731 H718 0.930 . S
C731 C730 1.376 . S
C731 C732 1.388 . S
C732 H719 0.930 . S
C732 C731 1.388 . S
C732 C733 1.390 . S
C733 C732 1.390 . S
C733 C734 1.394 . S
C733 C739 1.465 . S
C734 C729 1.399 . S
C734 C733 1.394 . S
C734 C735 1.516 . S
C735 C734 1.516 . S
C735 C736 1.502 . S
C735 C737 1.561 . S
C735 C738 1.526 . S
C736 H720 0.959 . S
C736 H721 0.959 . S
C736 H722 0.961 . S
C736 C735 1.502 . S
C737 H723 0.960 . S
C737 H724 0.961 . S
C737 H725 0.959 . S
C737 C735 1.561 . S
C738 C735 1.526 . S
C738 C739 1.396 . S
C738 C743 1.390 . S
C739 C733 1.465 . S
C739 C738 1.396 . S
C739 C740 1.399 . S
C740 H726 0.929 . S
C740 C739 1.399 . S
C740 C741 1.385 . S
C741 H727 0.931 . S
C741 C740 1.385 . S
C741 C742 1.389 . S
C742 C741 1.389 . S
C742 C743 1.387 . S
C743 H728 0.930 . S
C743 C738 1.390 . S
C743 C742 1.387 . S
H744 C756 0.930 . S
H745 C758 0.930 . S
H746 C759 0.930 . S
H747 C763 0.959 . S
H748 C763 0.959 . S
H749 C763 0.961 . S
H750 C764 0.960 . S
H751 C764 0.961 . S
H752 C764 0.959 . S
H753 C767 0.929 . S
H754 C768 0.931 . S
H755 C770 0.930 . S
C756 H744 0.930 . S
C756 C757 1.399 . S
C756 C761 1.399 . S
C757 C756 1.399 . S
C757 C758 1.376 . S
C758 H745 0.930 . S
C758 C757 1.376 . S
C758 C759 1.388 . S
C759 H746 0.930 . S
C759 C758 1.388 . S
C759 C760 1.390 . S
C760 C759 1.390 . S
C760 C761 1.394 . S
C760 C766 1.465 . S
C761 C756 1.399 . S
C761 C760 1.394 . S
C761 C762 1.516 . S
C762 C761 1.516 . S
C762 C763 1.502 . S
C762 C764 1.561 . S
C762 C765 1.526 . S
C763 H747 0.959 . S
C763 H748 0.959 . S
C763 H749 0.961 . S
C763 C762 1.502 . S
C764 H750 0.960 . S
C764 H751 0.961 . S
C764 H752 0.959 . S
C764 C762 1.561 . S
C765 C762 1.526 . S
C765 C766 1.396 . S
C765 C770 1.390 . S
C766 C760 1.465 . S
C766 C765 1.396 . S
C766 C767 1.399 . S
C767 H753 0.929 . S
C767 C766 1.399 . S
C767 C768 1.385 1_655 S
C768 H754 0.931 . S
C768 C767 1.385 1_455 S
C768 C769 1.389 1_455 S
C769 C768 1.389 1_655 S
C769 C770 1.387 . S
C770 H755 0.930 . S
C770 C765 1.390 . S
C770 C769 1.387 . S
H771 C783 0.930 . S
H772 C785 0.930 . S
H773 C786 0.930 . S
H774 C790 0.959 . S
H775 C790 0.959 . S
H776 C790 0.961 . S
H777 C791 0.960 . S
H778 C791 0.961 . S
H779 C791 0.959 . S
H780 C794 0.929 . S
H781 C795 0.931 . S
H782 C797 0.930 . S
C783 H771 0.930 . S
C783 C784 1.399 . S
C783 C788 1.399 . S
C784 C783 1.399 . S
C784 C785 1.376 . S
C785 H772 0.930 . S
C785 C784 1.376 . S
C785 C786 1.388 . S
C786 H773 0.930 . S
C786 C785 1.388 . S
C786 C787 1.390 . S
C787 C786 1.390 . S
C787 C788 1.394 . S
C787 C793 1.465 . S
C788 C783 1.399 . S
C788 C787 1.394 . S
C788 C789 1.516 . S
C789 C788 1.516 . S
C789 C790 1.502 . S
C789 C791 1.561 . S
C789 C792 1.526 . S
C790 H774 0.959 . S
C790 H775 0.959 . S
C790 H776 0.961 . S
C790 C789 1.502 . S
C791 H777 0.960 . S
C791 H778 0.961 . S
C791 H779 0.959 . S
C791 C789 1.561 . S
C792 C789 1.526 . S
C792 C793 1.396 . S
C792 C797 1.390 . S
C793 C787 1.465 . S
C793 C792 1.396 . S
C793 C794 1.399 . S
C794 H780 0.929 . S
C794 C793 1.399 . S
C794 C795 1.385 . S
C795 H781 0.931 . S
C795 C794 1.385 . S
C795 C796 1.389 . S
C796 C795 1.389 . S
C796 C797 1.387 . S
C797 H782 0.930 . S
C797 C792 1.390 . S
C797 C796 1.387 . S
H798 C810 0.930 . S
H799 C812 0.930 . S
H800 C813 0.930 . S
H801 C817 0.959 . S
H802 C817 0.959 . S
H803 C817 0.961 . S
H804 C818 0.960 . S
H805 C818 0.961 . S
H806 C818 0.959 . S
H807 C821 0.929 . S
H808 C822 0.931 . S
H809 C824 0.930 . S
C810 H798 0.930 . S
C810 C811 1.399 . S
C810 C815 1.399 . S
C811 C810 1.399 . S
C811 C812 1.376 . S
C812 H799 0.930 . S
C812 C811 1.376 . S
C812 C813 1.388 . S
C813 H800 0.930 . S
C813 C812 1.388 . S
C813 C814 1.390 . S
C814 C813 1.390 . S
C814 C815 1.394 . S
C814 C820 1.465 . S
C815 C810 1.399 . S
C815 C814 1.394 . S
C815 C816 1.516 . S
C816 C815 1.516 . S
C816 C817 1.502 . S
C816 C818 1.561 . S
C816 C819 1.526 . S
C817 H801 0.959 . S
C817 H802 0.959 . S
C817 H803 0.961 . S
C817 C816 1.502 . S
C818 H804 0.960 . S
C818 H805 0.961 . S
C818 H806 0.959 . S
C818 C816 1.561 . S
C819 C816 1.526 . S
C819 C820 1.396 . S
C819 C824 1.390 . S
C820 C814 1.465 . S
C820 C819 1.396 . S
C820 C821 1.399 . S
C821 H807 0.929 . S
C821 C820 1.399 . S
C821 C822 1.385 . S
C822 H808 0.931 . S
C822 C821 1.385 . S
C822 C823 1.389 . S
C823 C822 1.389 . S
C823 C824 1.387 . S
C824 H809 0.930 . S
C824 C819 1.390 . S
C824 C823 1.387 . S
H825 C837 0.930 . S
H826 C839 0.930 . S
H827 C840 0.930 . S
H828 C844 0.959 . S
H829 C844 0.959 . S
H830 C844 0.961 . S
H831 C845 0.960 . S
H832 C845 0.961 . S
H833 C845 0.959 . S
H834 C848 0.929 . S
H835 C849 0.931 1_556 S
H836 C851 0.930 . S
C837 H825 0.930 . S
C837 C838 1.399 . S
C837 C842 1.399 . S
C838 C837 1.399 . S
C838 C839 1.376 . S
C839 H826 0.930 . S
C839 C838 1.376 . S
C839 C840 1.388 . S
C840 H827 0.930 . S
C840 C839 1.388 . S
C840 C841 1.390 . S
C841 C840 1.390 . S
C841 C842 1.394 . S
C841 C847 1.465 . S
C842 C837 1.399 . S
C842 C841 1.394 . S
C842 C843 1.516 . S
C843 C842 1.516 . S
C843 C844 1.502 . S
C843 C845 1.561 . S
C843 C846 1.526 . S
C844 H828 0.959 . S
C844 H829 0.959 . S
C844 H830 0.961 . S
C844 C843 1.502 . S
C845 H831 0.960 . S
C845 H832 0.961 . S
C845 H833 0.959 . S
C845 C843 1.561 . S
C846 C843 1.526 . S
C846 C847 1.396 . S
C846 C851 1.390 . S
C847 C841 1.465 . S
C847 C846 1.396 . S
C847 C848 1.399 . S
C848 H834 0.929 . S
C848 C847 1.399 . S
C848 C849 1.385 . S
C849 H835 0.931 1_554 S
C849 C848 1.385 . S
C849 C850 1.389 . S
C850 C849 1.389 . S
C850 C851 1.387 . S
C851 H836 0.930 . S
C851 C846 1.390 . S
C851 C850 1.387 . S
H852 C864 0.930 . S
H853 C866 0.930 . S
H854 C867 0.930 . S
H855 C871 0.959 . S
H856 C871 0.959 . S
H857 C871 0.961 . S
H858 C872 0.960 . S
H859 C872 0.961 . S
H860 C872 0.959 . S
H861 C875 0.929 . S
H862 C876 0.931 1_655 S
H863 C878 0.930 . S
C864 H852 0.930 . S
C864 C865 1.399 . S
C864 C869 1.399 . S
C865 C864 1.399 . S
C865 C866 1.376 . S
C866 H853 0.930 . S
C866 C865 1.376 . S
C866 C867 1.388 . S
C867 H854 0.930 . S
C867 C866 1.388 . S
C867 C868 1.390 . S
C868 C867 1.390 . S
C868 C869 1.394 . S
C868 C874 1.465 . S
C869 C864 1.399 . S
C869 C868 1.394 . S
C869 C870 1.516 . S
C870 C869 1.516 . S
C870 C871 1.502 . S
C870 C872 1.561 . S
C870 C873 1.526 . S
C871 H855 0.959 . S
C871 H856 0.959 . S
C871 H857 0.961 . S
C871 C870 1.502 . S
C872 H858 0.960 . S
C872 H859 0.961 . S
C872 H860 0.959 . S
C872 C870 1.561 . S
C873 C870 1.526 . S
C873 C874 1.396 . S
C873 C878 1.390 . S
C874 C868 1.465 . S
C874 C873 1.396 . S
C874 C875 1.399 . S
C875 H861 0.929 . S
C875 C874 1.399 . S
C875 C876 1.385 . S
C876 H862 0.931 1_455 S
C876 C875 1.385 . S
C876 C877 1.389 . S
C877 C876 1.389 . S
C877 C878 1.387 . S
C878 H863 0.930 . S
C878 C873 1.390 . S
C878 C877 1.387 . S
H879 C891 0.930 . S
H880 C893 0.930 . S
H881 C894 0.930 . S
H882 C898 0.959 . S
H883 C898 0.959 . S
H884 C898 0.961 . S
H885 C899 0.960 . S
H886 C899 0.961 . S
H887 C899 0.959 . S
H888 C902 0.929 . S
H889 C903 0.931 . S
H890 C905 0.930 . S
C891 H879 0.930 . S
C891 C892 1.399 . S
C891 C896 1.399 . S
C892 C891 1.399 . S
C892 C893 1.376 . S
C893 H880 0.930 . S
C893 C892 1.376 . S
C893 C894 1.388 . S
C894 H881 0.930 . S
C894 C893 1.388 . S
C894 C895 1.390 . S
C895 C894 1.390 . S
C895 C896 1.394 . S
C895 C901 1.465 . S
C896 C891 1.399 . S
C896 C895 1.394 . S
C896 C897 1.516 . S
C897 C896 1.516 . S
C897 C898 1.502 . S
C897 C899 1.561 . S
C897 C900 1.526 . S
C898 H882 0.959 . S
C898 H883 0.959 . S
C898 H884 0.961 . S
C898 C897 1.502 . S
C899 H885 0.960 . S
C899 H886 0.961 . S
C899 H887 0.959 . S
C899 C897 1.561 . S
C900 C897 1.526 . S
C900 C901 1.396 . S
C900 C905 1.390 . S
C901 C895 1.465 . S
C901 C900 1.396 . S
C901 C902 1.399 . S
C902 H888 0.929 . S
C902 C901 1.399 . S
C902 C903 1.385 . S
C903 H889 0.931 . S
C903 C902 1.385 . S
C903 C904 1.389 . S
C904 C903 1.389 . S
C904 C905 1.387 . S
C905 H890 0.930 . S
C905 C900 1.390 . S
C905 C904 1.387 . S
H906 C918 0.930 . S
H907 C920 0.930 . S
H908 C921 0.930 . S
H909 C925 0.959 . S
H910 C925 0.959 . S
H911 C925 0.961 . S
H912 C926 0.960 . S
H913 C926 0.961 . S
H914 C926 0.959 . S
H915 C929 0.929 . S
H916 C930 0.931 . S
H917 C932 0.930 . S
C918 H906 0.930 . S
C918 C919 1.399 . S
C918 C923 1.399 . S
C919 C918 1.399 . S
C919 C920 1.376 . S
C920 H907 0.930 . S
C920 C919 1.376 . S
C920 C921 1.388 . S
C921 H908 0.930 . S
C921 C920 1.388 . S
C921 C922 1.390 . S
C922 C921 1.390 . S
C922 C923 1.394 . S
C922 C928 1.465 . S
C923 C918 1.399 . S
C923 C922 1.394 . S
C923 C924 1.516 . S
C924 C923 1.516 . S
C924 C925 1.502 . S
C924 C926 1.561 . S
C924 C927 1.526 . S
C925 H909 0.959 . S
C925 H910 0.959 . S
C925 H911 0.961 . S
C925 C924 1.502 . S
C926 H912 0.960 . S
C926 H913 0.961 . S
C926 H914 0.959 . S
C926 C924 1.561 . S
C927 C924 1.526 . S
C927 C928 1.396 . S
C927 C932 1.390 . S
C928 C922 1.465 . S
C928 C927 1.396 . S
C928 C929 1.399 . S
C929 H915 0.929 . S
C929 C928 1.399 . S
C929 C930 1.385 . S
C930 H916 0.931 . S
C930 C929 1.385 . S
C930 C931 1.389 . S
C931 C930 1.389 . S
C931 C932 1.387 . S
C932 H917 0.930 . S
C932 C927 1.390 . S
C932 C931 1.387 . S
H933 C945 0.930 . S
H934 C947 0.930 . S
H935 C948 0.930 . S
H936 C952 0.959 . S
H937 C952 0.959 1_554 S
H938 C952 0.961 . S
H939 C953 0.960 . S
H940 C953 0.961 . S
H941 C953 0.959 . S
H942 C956 0.929 . S
H943 C957 0.931 . S
H944 C959 0.930 1_554 S
C945 H933 0.930 . S
C945 C946 1.399 . S
C945 C950 1.399 . S
C946 C945 1.399 . S
C946 C947 1.376 . S
C947 H934 0.930 . S
C947 C946 1.376 . S
C947 C948 1.388 . S
C948 H935 0.930 . S
C948 C947 1.388 . S
C948 C949 1.390 . S
C949 C948 1.390 . S
C949 C950 1.394 . S
C949 C955 1.465 . S
C950 C945 1.399 . S
C950 C949 1.394 . S
C950 C951 1.516 . S
C951 C950 1.516 . S
C951 C952 1.502 . S
C951 C953 1.561 . S
C951 C954 1.526 . S
C952 H936 0.959 . S
C952 H937 0.959 1_556 S
C952 H938 0.961 . S
C952 C951 1.502 . S
C953 H939 0.960 . S
C953 H940 0.961 . S
C953 H941 0.959 . S
C953 C951 1.561 . S
C954 C951 1.526 . S
C954 C955 1.396 . S
C954 C959 1.390 . S
C955 C949 1.465 . S
C955 C954 1.396 . S
C955 C956 1.399 . S
C956 H942 0.929 . S
C956 C955 1.399 . S
C956 C957 1.385 . S
C957 H943 0.931 . S
C957 C956 1.385 . S
C957 C958 1.389 . S
C958 C957 1.389 . S
C958 C959 1.387 . S
C959 H944 0.930 1_556 S
C959 C954 1.390 . S
C959 C958 1.387 . S
H960 C972 0.930 . S
H961 C974 0.930 . S
H962 C975 0.930 . S
H963 C979 0.959 . S
H964 C979 0.959 . S
H965 C979 0.961 . S
H966 C980 0.960 . S
H967 C980 0.961 . S
H968 C980 0.959 . S
H969 C983 0.929 . S
H970 C984 0.931 . S
H971 C986 0.930 . S
C972 H960 0.930 . S
C972 C973 1.399 . S
C972 C977 1.399 . S
C973 C972 1.399 . S
C973 C974 1.376 . S
C974 H961 0.930 . S
C974 C973 1.376 . S
C974 C975 1.388 . S
C975 H962 0.930 . S
C975 C974 1.388 . S
C975 C976 1.390 . S
C976 C975 1.390 . S
C976 C977 1.394 . S
C976 C982 1.465 . S
C977 C972 1.399 . S
C977 C976 1.394 . S
C977 C978 1.516 . S
C978 C977 1.516 . S
C978 C979 1.502 . S
C978 C980 1.561 . S
C978 C981 1.526 . S
C979 H963 0.959 . S
C979 H964 0.959 . S
C979 H965 0.961 . S
C979 C978 1.502 . S
C980 H966 0.960 . S
C980 H967 0.961 . S
C980 H968 0.959 . S
C980 C978 1.561 . S
C981 C978 1.526 . S
C981 C982 1.396 . S
C981 C986 1.390 . S
C982 C976 1.465 . S
C982 C981 1.396 . S
C982 C983 1.399 . S
C983 H969 0.929 . S
C983 C982 1.399 . S
C983 C984 1.385 . S
C984 H970 0.931 . S
C984 C983 1.385 . S
C984 C985 1.389 . S
C985 C984 1.389 . S
C985 C986 1.387 . S
C986 H971 0.930 . S
C986 C981 1.390 . S
C986 C985 1.387 . S
H987 C999 0.930 . S
H988 C1001 0.930 . S
H989 C1002 0.930 . S
H990 C1006 0.959 . S
H991 C1006 0.959 . S
H992 C1006 0.961 . S
H993 C1007 0.960 . S
H994 C1007 0.961 . S
H995 C1007 0.959 . S
H996 C1010 0.929 . S
H997 C1011 0.931 . S
H998 C1013 0.930 . S
C999 H987 0.930 . S
C999 C1000 1.399 . S
C999 C1004 1.399 . S
C1000 C999 1.399 . S
C1000 C1001 1.376 . S
C1001 H988 0.930 . S
C1001 C1000 1.376 . S
C1001 C1002 1.388 . S
C1002 H989 0.930 . S
C1002 C1001 1.388 . S
C1002 C1003 1.390 . S
C1003 C1002 1.390 . S
C1003 C1004 1.394 . S
C1003 C1009 1.465 . S
C1004 C999 1.399 . S
C1004 C1003 1.394 . S
C1004 C1005 1.516 . S
C1005 C1004 1.516 . S
C1005 C1006 1.502 . S
C1005 C1007 1.561 . S
C1005 C1008 1.526 . S
C1006 H990 0.959 . S
C1006 H991 0.959 . S
C1006 H992 0.961 . S
C1006 C1005 1.502 . S
C1007 H993 0.960 . S
C1007 H994 0.961 . S
C1007 H995 0.959 . S
C1007 C1005 1.561 . S
C1008 C1005 1.526 . S
C1008 C1009 1.396 . S
C1008 C1013 1.390 . S
C1009 C1003 1.465 . S
C1009 C1008 1.396 . S
C1009 C1010 1.399 . S
C1010 H996 0.929 . S
C1010 C1009 1.399 . S
C1010 C1011 1.385 . S
C1011 H997 0.931 . S
C1011 C1010 1.385 . S
C1011 C1012 1.389 . S
C1012 C1011 1.389 . S
C1012 C1013 1.387 . S
C1013 H998 0.930 . S
C1013 C1008 1.390 . S
C1013 C1012 1.387 . S
H1014 C1026 0.930 . S
H1015 C1028 0.930 . S
H1016 C1029 0.930 . S
H1017 C1033 0.959 . S
H1018 C1033 0.959 . S
H1019 C1033 0.961 . S
H1020 C1034 0.960 . S
H1021 C1034 0.961 . S
H1022 C1034 0.959 . S
H1023 C1037 0.929 . S
H1024 C1038 0.931 . S
H1025 C1040 0.930 . S
C1026 H1014 0.930 . S
C1026 C1027 1.399 . S
C1026 C1031 1.399 . S
C1027 C1026 1.399 . S
C1027 C1028 1.376 . S
C1028 H1015 0.930 . S
C1028 C1027 1.376 . S
C1028 C1029 1.388 . S
C1029 H1016 0.930 . S
C1029 C1028 1.388 . S
C1029 C1030 1.390 . S
C1030 C1029 1.390 . S
C1030 C1031 1.394 . S
C1030 C1036 1.465 . S
C1031 C1026 1.399 . S
C1031 C1030 1.394 . S
C1031 C1032 1.516 . S
C1032 C1031 1.516 . S
C1032 C1033 1.502 . S
C1032 C1034 1.561 . S
C1032 C1035 1.526 . S
C1033 H1017 0.959 . S
C1033 H1018 0.959 . S
C1033 H1019 0.961 . S
C1033 C1032 1.502 . S
C1034 H1020 0.960 . S
C1034 H1021 0.961 . S
C1034 H1022 0.959 . S
C1034 C1032 1.561 . S
C1035 C1032 1.526 . S
C1035 C1036 1.396 . S
C1035 C1040 1.390 . S
C1036 C1030 1.465 . S
C1036 C1035 1.396 . S
C1036 C1037 1.399 . S
C1037 H1023 0.929 . S
C1037 C1036 1.399 . S
C1037 C1038 1.385 . S
C1038 H1024 0.931 . S
C1038 C1037 1.385 . S
C1038 C1039 1.389 . S
C1039 C1038 1.389 . S
C1039 C1040 1.387 . S
C1040 H1025 0.930 . S
C1040 C1035 1.390 . S
C1040 C1039 1.387 . S
H1041 C1053 0.930 . S
H1042 C1055 0.930 . S
H1043 C1056 0.930 . S
H1044 C1060 0.959 . S
H1045 C1060 0.959 . S
H1046 C1060 0.961 . S
H1047 C1061 0.960 . S
H1048 C1061 0.961 1_554 S
H1049 C1061 0.959 1_554 S
H1050 C1064 0.929 . S
H1051 C1065 0.931 . S
H1052 C1067 0.930 . S
C1053 H1041 0.930 . S
C1053 C1054 1.399 . S
C1053 C1058 1.399 . S
C1054 C1053 1.399 . S
C1054 C1055 1.376 . S
C1055 H1042 0.930 . S
C1055 C1054 1.376 . S
C1055 C1056 1.388 . S
C1056 H1043 0.930 . S
C1056 C1055 1.388 . S
C1056 C1057 1.390 . S
C1057 C1056 1.390 . S
C1057 C1058 1.394 . S
C1057 C1063 1.465 1_656 S
C1058 C1053 1.399 . S
C1058 C1057 1.394 . S
C1058 C1059 1.523 . S
C1059 C1058 1.523 . S
C1059 C1060 1.486 1_655 S
C1059 C1061 1.578 . S
C1059 C1062 1.520 1_656 S
C1060 H1044 0.959 . S
C1060 H1045 0.959 . S
C1060 H1046 0.961 . S
C1060 C1059 1.486 1_455 S
C1061 H1047 0.960 . S
C1061 H1048 0.961 1_556 S
C1061 H1049 0.959 1_556 S
C1061 C1059 1.578 . S
C1062 C1059 1.520 1_454 S
C1062 C1063 1.396 . S
C1062 C1067 1.390 . S
C1063 C1057 1.465 1_454 S
C1063 C1062 1.396 . S
C1063 C1064 1.399 . S
C1064 H1050 0.929 . S
C1064 C1063 1.399 . S
C1064 C1065 1.385 . S
C1065 H1051 0.931 . S
C1065 C1064 1.385 . S
C1065 C1066 1.389 . S
C1066 C1065 1.389 . S
C1066 C1067 1.387 . S
C1067 H1052 0.930 . S
C1067 C1062 1.390 . S
C1067 C1066 1.387 . S
H1068 C1080 0.930 . S
H1069 C1082 0.930 . S
H1070 C1083 0.930 . S
H1071 C1087 0.959 . S
H1072 C1087 0.959 . S
H1073 C1087 0.961 . S
H1074 C1088 0.960 . S
H1075 C1088 0.961 . S
H1076 C1088 0.959 . S
H1077 C1091 0.929 . S
H1078 C1092 0.931 . S
H1079 C1094 0.930 . S
C1080 H1068 0.930 . S
C1080 C1081 1.399 . S
C1080 C1085 1.399 . S
C1081 C1080 1.399 . S
C1081 C1082 1.376 . S
C1082 H1069 0.930 . S
C1082 C1081 1.376 . S
C1082 C1083 1.388 . S
C1083 H1070 0.930 . S
C1083 C1082 1.388 . S
C1083 C1084 1.390 . S
C1084 C1083 1.390 . S
C1084 C1085 1.394 . S
C1084 C1090 1.465 . S
C1085 C1080 1.399 . S
C1085 C1084 1.394 . S
C1085 C1086 1.516 . S
C1086 C1085 1.516 . S
C1086 C1087 1.502 . S
C1086 C1088 1.561 . S
C1086 C1089 1.526 . S
C1087 H1071 0.959 . S
C1087 H1072 0.959 . S
C1087 H1073 0.961 . S
C1087 C1086 1.502 . S
C1088 H1074 0.960 . S
C1088 H1075 0.961 . S
C1088 H1076 0.959 . S
C1088 C1086 1.561 . S
C1089 C1086 1.526 . S
C1089 C1090 1.396 . S
C1089 C1094 1.390 . S
C1090 C1084 1.465 . S
C1090 C1089 1.396 . S
C1090 C1091 1.399 . S
C1091 H1077 0.929 . S
C1091 C1090 1.399 . S
C1091 C1092 1.385 . S
C1092 H1078 0.931 . S
C1092 C1091 1.385 . S
C1092 C1093 1.389 . S
C1093 C1092 1.389 . S
C1093 C1094 1.387 . S
C1094 H1079 0.930 . S
C1094 C1089 1.390 . S
C1094 C1093 1.387 . S
H1095 C1107 0.930 . S
H1096 C1109 0.930 . S
H1097 C1110 0.930 . S
H1098 C1114 0.959 . S
H1099 C1114 0.959 . S
H1100 C1114 0.961 . S
H1101 C1115 0.960 . S
H1102 C1115 0.961 . S
H1103 C1115 0.959 . S
H1104 C1118 0.929 . S
H1105 C1119 0.931 . S
H1106 C1121 0.930 . S
C1107 H1095 0.930 . S
C1107 C1108 1.399 . S
C1107 C1112 1.399 . S
C1108 C1107 1.399 . S
C1108 C1109 1.376 . S
C1109 H1096 0.930 . S
C1109 C1108 1.376 . S
C1109 C1110 1.388 . S
C1110 H1097 0.930 . S
C1110 C1109 1.388 . S
C1110 C1111 1.390 . S
C1111 C1110 1.390 . S
C1111 C1112 1.394 . S
C1111 C1117 1.465 . S
C1112 C1107 1.399 . S
C1112 C1111 1.394 . S
C1112 C1113 1.516 . S
C1113 C1112 1.516 . S
C1113 C1114 1.502 . S
C1113 C1115 1.561 . S
C1113 C1116 1.526 . S
C1114 H1098 0.959 . S
C1114 H1099 0.959 . S
C1114 H1100 0.961 . S
C1114 C1113 1.502 . S
C1115 H1101 0.960 . S
C1115 H1102 0.961 . S
C1115 H1103 0.959 . S
C1115 C1113 1.561 . S
C1116 C1113 1.526 . S
C1116 C1117 1.396 . S
C1116 C1121 1.390 . S
C1117 C1111 1.465 . S
C1117 C1116 1.396 . S
C1117 C1118 1.399 . S
C1118 H1104 0.929 . S
C1118 C1117 1.399 . S
C1118 C1119 1.385 . S
C1119 H1105 0.931 . S
C1119 C1118 1.385 . S
C1119 C1120 1.389 . S
C1120 C1119 1.389 . S
C1120 C1121 1.387 . S
C1121 H1106 0.930 . S
C1121 C1116 1.390 . S
C1121 C1120 1.387 . S
H1122 C1134 0.931 1_455 S
H1123 C1136 0.930 . S
H1124 C1137 0.930 . S
H1125 C1141 0.959 . S
H1126 C1141 0.959 1_556 S
H1127 C1141 0.961 . S
H1128 C1142 0.960 . S
H1129 C1142 0.961 . S
H1130 C1142 0.959 1_655 S
H1131 C1145 0.929 . S
H1132 C1146 0.931 . S
H1133 C1148 0.914 1_565 S
C1134 H1122 0.931 1_655 S
C1134 C1135 1.399 . S
C1134 C1139 1.399 . S
C1135 C1134 1.399 . S
C1135 C1136 1.376 1_565 S
C1136 H1123 0.930 . S
C1136 C1135 1.376 1_545 S
C1136 C1137 1.388 . S
C1137 H1124 0.930 . S
C1137 C1136 1.388 . S
C1137 C1138 1.390 . S
C1138 C1137 1.390 . S
C1138 C1139 1.394 1_545 S
C1138 C1144 1.465 1_554 S
C1139 C1134 1.399 . S
C1139 C1138 1.394 1_565 S
C1139 C1140 1.516 1_654 S
C1140 C1139 1.516 1_456 S
C1140 C1141 1.502 1_556 S
C1140 C1142 1.561 . S
C1140 C1143 1.526 . S
C1141 H1125 0.959 . S
C1141 H1126 0.959 1_554 S
C1141 H1127 0.961 . S
C1141 C1140 1.502 1_554 S
C1142 H1128 0.960 . S
C1142 H1129 0.961 . S
C1142 H1130 0.959 1_455 S
C1142 C1140 1.561 . S
C1143 C1140 1.526 . S
C1143 C1144 1.396 1_465 S
C1143 C1148 1.386 1_565 S
C1144 C1138 1.465 1_556 S
C1144 C1143 1.396 1_645 S
C1144 C1145 1.399 . S
C1145 H1131 0.929 . S
C1145 C1144 1.399 . S
C1145 C1146 1.385 1_655 S
C1146 H1132 0.931 . S
C1146 C1145 1.385 1_455 S
C1146 C1147 1.389 . S
C1147 C1146 1.389 . S
C1147 C1148 1.407 . S
C1148 H1133 0.914 1_545 S
C1148 C1143 1.386 1_545 S
C1148 C1147 1.407 . S
H1149 C1161 0.930 . S
H1150 C1163 0.930 . S
H1151 C1164 0.930 . S
H1152 C1168 0.959 . S
H1153 C1168 0.959 . S
H1154 C1168 0.961 . S
H1155 C1169 0.960 . S
H1156 C1169 0.961 . S
H1157 C1169 0.959 . S
H1158 C1172 0.930 1_565 S
H1159 C1173 0.931 . S
H1160 C1175 0.930 . S
C1161 H1149 0.930 . S
C1161 C1162 1.399 . S
C1161 C1166 1.399 . S
C1162 C1161 1.399 . S
C1162 C1163 1.376 . S
C1163 H1150 0.930 . S
C1163 C1162 1.376 . S
C1163 C1164 1.388 . S
C1164 H1151 0.930 . S
C1164 C1163 1.388 . S
C1164 C1165 1.390 . S
C1165 C1164 1.390 . S
C1165 C1166 1.394 . S
C1165 C1171 1.455 1_565 S
C1166 C1161 1.399 . S
C1166 C1165 1.394 . S
C1166 C1167 1.516 1_565 S
C1167 C1166 1.516 1_545 S
C1167 C1168 1.501 . S
C1167 C1169 1.562 1_545 S
C1167 C1170 1.526 . S
C1168 H1152 0.959 . S
C1168 H1153 0.959 . S
C1168 H1154 0.961 . S
C1168 C1167 1.501 . S
C1169 H1155 0.960 . S
C1169 H1156 0.961 . S
C1169 H1157 0.959 . S
C1169 C1167 1.562 1_565 S
C1170 C1167 1.526 . S
C1170 C1171 1.403 . S
C1170 C1175 1.390 . S
C1171 C1165 1.455 1_545 S
C1171 C1170 1.403 . S
C1171 C1172 1.403 . S
C1172 H1158 0.930 1_545 S
C1172 C1171 1.403 . S
C1172 C1173 1.385 . S
C1173 H1159 0.931 . S
C1173 C1172 1.385 . S
C1173 C1174 1.389 . S
C1174 C1173 1.389 . S
C1174 C1175 1.387 . S
C1175 H1160 0.930 . S
C1175 C1170 1.390 . S
C1175 C1174 1.387 . S
H1176 C1188 0.930 . S
H1177 C1190 0.930 . S
H1178 C1191 0.930 . S
H1179 C1195 0.959 . S
H1180 C1195 0.959 . S
H1181 C1195 0.961 . S
H1182 C1196 0.960 . S
H1183 C1196 0.961 . S
H1184 C1196 0.959 . S
H1185 C1199 0.929 . S
H1186 C1200 0.931 . S
H1187 C1202 0.930 . S
C1188 H1176 0.930 . S
C1188 C1189 1.399 . S
C1188 C1193 1.399 . S
C1189 C1188 1.399 . S
C1189 C1190 1.376 . S
C1190 H1177 0.930 . S
C1190 C1189 1.376 . S
C1190 C1191 1.388 . S
C1191 H1178 0.930 . S
C1191 C1190 1.388 . S
C1191 C1192 1.390 . S
C1192 C1191 1.390 . S
C1192 C1193 1.394 . S
C1192 C1198 1.465 . S
C1193 C1188 1.399 . S
C1193 C1192 1.394 . S
C1193 C1194 1.516 . S
C1194 C1193 1.516 . S
C1194 C1195 1.502 . S
C1194 C1196 1.561 . S
C1194 C1197 1.526 . S
C1195 H1179 0.959 . S
C1195 H1180 0.959 . S
C1195 H1181 0.961 . S
C1195 C1194 1.502 . S
C1196 H1182 0.960 . S
C1196 H1183 0.961 . S
C1196 H1184 0.959 . S
C1196 C1194 1.561 . S
C1197 C1194 1.526 . S
C1197 C1198 1.396 . S
C1197 C1202 1.390 . S
C1198 C1192 1.465 . S
C1198 C1197 1.396 . S
C1198 C1199 1.399 . S
C1199 H1185 0.929 . S
C1199 C1198 1.399 . S
C1199 C1200 1.385 . S
C1200 H1186 0.931 . S
C1200 C1199 1.385 . S
C1200 C1201 1.389 . S
C1201 C1200 1.389 . S
C1201 C1202 1.387 . S
C1202 H1187 0.930 . S
C1202 C1197 1.390 . S
C1202 C1201 1.387 . S
H1203 C1215 0.930 . S
H1204 C1217 0.930 . S
H1205 C1218 0.930 . S
H1206 C1222 0.959 . S
H1207 C1222 0.959 . S
H1208 C1222 0.961 . S
H1209 C1223 0.960 . S
H1210 C1223 0.961 . S
H1211 C1223 0.959 . S
H1212 C1226 0.929 . S
H1213 C1227 0.931 . S
H1214 C1229 0.930 . S
C1215 H1203 0.930 . S
C1215 C1216 1.399 . S
C1215 C1220 1.399 . S
C1216 C1215 1.399 . S
C1216 C1217 1.376 . S
C1217 H1204 0.930 . S
C1217 C1216 1.376 . S
C1217 C1218 1.388 . S
C1218 H1205 0.930 . S
C1218 C1217 1.388 . S
C1218 C1219 1.390 . S
C1219 C1218 1.390 . S
C1219 C1220 1.394 . S
C1219 C1225 1.465 . S
C1220 C1215 1.399 . S
C1220 C1219 1.394 . S
C1220 C1221 1.516 . S
C1221 C1220 1.516 . S
C1221 C1222 1.502 . S
C1221 C1223 1.561 . S
C1221 C1224 1.526 . S
C1222 H1206 0.959 . S
C1222 H1207 0.959 . S
C1222 H1208 0.961 . S
C1222 C1221 1.502 . S
C1223 H1209 0.960 . S
C1223 H1210 0.961 . S
C1223 H1211 0.959 . S
C1223 C1221 1.561 . S
C1224 C1221 1.526 . S
C1224 C1225 1.396 . S
C1224 C1229 1.390 . S
C1225 C1219 1.465 . S
C1225 C1224 1.396 . S
C1225 C1226 1.399 . S
C1226 H1212 0.929 . S
C1226 C1225 1.399 . S
C1226 C1227 1.385 . S
C1227 H1213 0.931 . S
C1227 C1226 1.385 . S
C1227 C1228 1.389 . S
C1228 C1227 1.389 . S
C1228 C1229 1.387 . S
C1229 H1214 0.930 . S
C1229 C1224 1.390 . S
C1229 C1228 1.387 . S
H1230 C1242 0.930 . S
H1231 C1244 0.930 . S
H1232 C1245 0.930 . S
H1233 C1249 0.959 . S
H1234 C1249 0.959 . S
H1235 C1249 0.961 . S
H1236 C1250 0.960 . S
H1237 C1250 0.961 . S
H1238 C1250 0.959 . S
H1239 C1253 0.929 . S
H1240 C1254 0.931 . S
H1241 C1256 0.930 . S
C1242 H1230 0.930 . S
C1242 C1243 1.399 . S
C1242 C1247 1.399 . S
C1243 C1242 1.399 . S
C1243 C1244 1.376 . S
C1244 H1231 0.930 . S
C1244 C1243 1.376 . S
C1244 C1245 1.388 . S
C1245 H1232 0.930 . S
C1245 C1244 1.388 . S
C1245 C1246 1.390 . S
C1246 C1245 1.390 . S
C1246 C1247 1.394 . S
C1246 C1252 1.465 . S
C1247 C1242 1.399 . S
C1247 C1246 1.394 . S
C1247 C1248 1.516 . S
C1248 C1247 1.516 . S
C1248 C1249 1.502 . S
C1248 C1250 1.561 . S
C1248 C1251 1.526 . S
C1249 H1233 0.959 . S
C1249 H1234 0.959 . S
C1249 H1235 0.961 . S
C1249 C1248 1.502 . S
C1250 H1236 0.960 . S
C1250 H1237 0.961 . S
C1250 H1238 0.959 . S
C1250 C1248 1.561 . S
C1251 C1248 1.526 . S
C1251 C1252 1.396 . S
C1251 C1256 1.390 . S
C1252 C1246 1.465 . S
C1252 C1251 1.396 . S
C1252 C1253 1.399 . S
C1253 H1239 0.929 . S
C1253 C1252 1.399 . S
C1253 C1254 1.385 . S
C1254 H1240 0.931 . S
C1254 C1253 1.385 . S
C1254 C1255 1.389 . S
C1255 C1254 1.389 . S
C1255 C1256 1.387 . S
C1256 H1241 0.930 . S
C1256 C1251 1.390 . S
C1256 C1255 1.387 . S
H1257 C1269 0.930 . S
H1258 C1271 0.930 . S
H1259 C1272 0.930 . S
H1260 C1276 0.959 . S
H1261 C1276 0.959 . S
H1262 C1276 0.961 . S
H1263 C1277 0.960 . S
H1264 C1277 0.961 . S
H1265 C1277 0.959 . S
H1266 C1280 0.929 . S
H1267 C1281 0.931 . S
H1268 C1283 0.930 . S
C1269 H1257 0.930 . S
C1269 C1270 1.399 . S
C1269 C1274 1.399 . S
C1270 C1269 1.399 . S
C1270 C1271 1.376 . S
C1271 H1258 0.930 . S
C1271 C1270 1.376 . S
C1271 C1272 1.388 . S
C1272 H1259 0.930 . S
C1272 C1271 1.388 . S
C1272 C1273 1.390 . S
C1273 C1272 1.390 . S
C1273 C1274 1.394 . S
C1273 C1279 1.465 . S
C1274 C1269 1.399 . S
C1274 C1273 1.394 . S
C1274 C1275 1.516 . S
C1275 C1274 1.516 . S
C1275 C1276 1.502 . S
C1275 C1277 1.561 . S
C1275 C1278 1.526 . S
C1276 H1260 0.959 . S
C1276 H1261 0.959 . S
C1276 H1262 0.961 . S
C1276 C1275 1.502 . S
C1277 H1263 0.960 . S
C1277 H1264 0.961 . S
C1277 H1265 0.959 . S
C1277 C1275 1.561 . S
C1278 C1275 1.526 . S
C1278 C1279 1.396 . S
C1278 C1283 1.390 . S
C1279 C1273 1.465 . S
C1279 C1278 1.396 . S
C1279 C1280 1.399 . S
C1280 H1266 0.929 . S
C1280 C1279 1.399 . S
C1280 C1281 1.385 . S
C1281 H1267 0.931 . S
C1281 C1280 1.385 . S
C1281 C1282 1.389 . S
C1282 C1281 1.389 . S
C1282 C1283 1.387 . S
C1283 H1268 0.930 . S
C1283 C1278 1.390 . S
C1283 C1282 1.387 . S
H1284 C1296 0.930 . S
H1285 C1298 0.930 . S
H1286 C1299 0.930 . S
H1287 C1303 0.959 . S
H1288 C1303 0.959 . S
H1289 C1303 0.961 . S
H1290 C1304 0.960 . S
H1291 C1304 0.961 . S
H1292 C1304 0.959 . S
H1293 C1307 0.929 . S
H1294 C1308 0.931 . S
H1295 C1310 0.930 . S
C1296 H1284 0.930 . S
C1296 C1297 1.399 . S
C1296 C1301 1.399 . S
C1297 C1296 1.399 . S
C1297 C1298 1.376 . S
C1298 H1285 0.930 . S
C1298 C1297 1.376 . S
C1298 C1299 1.388 . S
C1299 H1286 0.930 . S
C1299 C1298 1.388 . S
C1299 C1300 1.390 . S
C1300 C1299 1.390 . S
C1300 C1301 1.394 . S
C1300 C1306 1.465 . S
C1301 C1296 1.399 . S
C1301 C1300 1.394 . S
C1301 C1302 1.516 . S
C1302 C1301 1.516 . S
C1302 C1303 1.502 . S
C1302 C1304 1.561 . S
C1302 C1305 1.526 . S
C1303 H1287 0.959 . S
C1303 H1288 0.959 . S
C1303 H1289 0.961 . S
C1303 C1302 1.502 . S
C1304 H1290 0.960 . S
C1304 H1291 0.961 . S
C1304 H1292 0.959 . S
C1304 C1302 1.561 . S
C1305 C1302 1.526 . S
C1305 C1306 1.396 . S
C1305 C1310 1.390 . S
C1306 C1300 1.465 . S
C1306 C1305 1.396 . S
C1306 C1307 1.399 . S
C1307 H1293 0.929 . S
C1307 C1306 1.399 . S
C1307 C1308 1.385 . S
C1308 H1294 0.931 . S
C1308 C1307 1.385 . S
C1308 C1309 1.389 . S
C1309 C1308 1.389 . S
C1309 C1310 1.387 . S
C1310 H1295 0.930 . S
C1310 C1305 1.390 . S
C1310 C1309 1.387 . S
H1311 C1323 0.930 . S
H1312 C1325 0.930 . S
H1313 C1326 0.930 . S
H1314 C1330 0.959 . S
H1315 C1330 0.959 . S
H1316 C1330 0.961 . S
H1317 C1331 0.960 . S
H1318 C1331 0.961 . S
H1319 C1331 0.959 . S
H1320 C1334 0.929 . S
H1321 C1335 0.931 . S
H1322 C1337 0.930 . S
C1323 H1311 0.930 . S
C1323 C1324 1.399 . S
C1323 C1328 1.399 . S
C1324 C1323 1.399 . S
C1324 C1325 1.376 . S
C1325 H1312 0.930 . S
C1325 C1324 1.376 . S
C1325 C1326 1.388 . S
C1326 H1313 0.930 . S
C1326 C1325 1.388 . S
C1326 C1327 1.390 . S
C1327 C1326 1.390 . S
C1327 C1328 1.394 . S
C1327 C1333 1.465 . S
C1328 C1323 1.399 . S
C1328 C1327 1.394 . S
C1328 C1329 1.516 . S
C1329 C1328 1.516 . S
C1329 C1330 1.502 . S
C1329 C1331 1.561 . S
C1329 C1332 1.526 . S
C1330 H1314 0.959 . S
C1330 H1315 0.959 . S
C1330 H1316 0.961 . S
C1330 C1329 1.502 . S
C1331 H1317 0.960 . S
C1331 H1318 0.961 . S
C1331 H1319 0.959 . S
C1331 C1329 1.561 . S
C1332 C1329 1.526 . S
C1332 C1333 1.396 . S
C1332 C1337 1.390 . S
C1333 C1327 1.465 . S
C1333 C1332 1.396 . S
C1333 C1334 1.399 . S
C1334 H1320 0.929 . S
C1334 C1333 1.399 . S
C1334 C1335 1.385 . S
C1335 H1321 0.931 . S
C1335 C1334 1.385 . S
C1335 C1336 1.389 . S
C1336 C1335 1.389 . S
C1336 C1337 1.387 . S
C1337 H1322 0.930 . S
C1337 C1332 1.390 . S
C1337 C1336 1.387 . S
H1338 C1350 0.930 . S
H1339 C1352 0.930 . S
H1340 C1353 0.930 . S
H1341 C1357 0.959 . S
H1342 C1357 0.959 . S
H1343 C1357 0.961 . S
H1344 C1358 0.960 . S
H1345 C1358 0.961 . S
H1346 C1358 0.959 . S
H1347 C1361 0.929 . S
H1348 C1362 0.931 . S
H1349 C1364 0.930 . S
C1350 H1338 0.930 . S
C1350 C1351 1.399 . S
C1350 C1355 1.399 . S
C1351 C1350 1.399 . S
C1351 C1352 1.376 . S
C1352 H1339 0.930 . S
C1352 C1351 1.376 . S
C1352 C1353 1.388 . S
C1353 H1340 0.930 . S
C1353 C1352 1.388 . S
C1353 C1354 1.390 . S
C1354 C1353 1.390 . S
C1354 C1355 1.394 . S
C1354 C1360 1.465 . S
C1355 C1350 1.399 . S
C1355 C1354 1.394 . S
C1355 C1356 1.516 . S
C1356 C1355 1.516 . S
C1356 C1357 1.502 . S
C1356 C1358 1.561 . S
C1356 C1359 1.526 . S
C1357 H1341 0.959 . S
C1357 H1342 0.959 . S
C1357 H1343 0.961 . S
C1357 C1356 1.502 . S
C1358 H1344 0.960 . S
C1358 H1345 0.961 . S
C1358 H1346 0.959 . S
C1358 C1356 1.561 . S
C1359 C1356 1.526 . S
C1359 C1360 1.396 . S
C1359 C1364 1.390 . S
C1360 C1354 1.465 . S
C1360 C1359 1.396 . S
C1360 C1361 1.399 . S
C1361 H1347 0.929 . S
C1361 C1360 1.399 . S
C1361 C1362 1.385 . S
C1362 H1348 0.931 . S
C1362 C1361 1.385 . S
C1362 C1363 1.389 . S
C1363 C1362 1.389 . S
C1363 C1364 1.387 . S
C1364 H1349 0.930 . S
C1364 C1359 1.390 . S
C1364 C1363 1.387 . S
H1365 C1377 0.930 . S
H1366 C1379 0.930 . S
H1367 C1380 0.930 . S
H1368 C1384 0.959 . S
H1369 C1384 0.959 . S
H1370 C1384 0.961 . S
H1371 C1385 0.960 . S
H1372 C1385 0.961 . S
H1373 C1385 0.959 . S
H1374 C1388 0.929 . S
H1375 C1389 0.931 . S
H1376 C1391 0.930 . S
C1377 H1365 0.930 . S
C1377 C1378 1.399 . S
C1377 C1382 1.399 . S
C1378 C1377 1.399 . S
C1378 C1379 1.376 . S
C1379 H1366 0.930 . S
C1379 C1378 1.376 . S
C1379 C1380 1.388 . S
C1380 H1367 0.930 . S
C1380 C1379 1.388 . S
C1380 C1381 1.390 . S
C1381 C1380 1.390 . S
C1381 C1382 1.394 . S
C1381 C1387 1.465 . S
C1382 C1377 1.399 . S
C1382 C1381 1.394 . S
C1382 C1383 1.516 . S
C1383 C1382 1.516 . S
C1383 C1384 1.502 . S
C1383 C1385 1.561 . S
C1383 C1386 1.526 . S
C1384 H1368 0.959 . S
C1384 H1369 0.959 . S
C1384 H1370 0.961 . S
C1384 C1383 1.502 . S
C1385 H1371 0.960 . S
C1385 H1372 0.961 . S
C1385 H1373 0.959 . S
C1385 C1383 1.561 . S
C1386 C1383 1.526 . S
C1386 C1387 1.396 . S
C1386 C1391 1.390 . S
C1387 C1381 1.465 . S
C1387 C1386 1.396 . S
C1387 C1388 1.399 . S
C1388 H1374 0.929 . S
C1388 C1387 1.399 . S
C1388 C1389 1.385 . S
C1389 H1375 0.931 . S
C1389 C1388 1.385 . S
C1389 C1390 1.389 . S
C1390 C1389 1.389 . S
C1390 C1391 1.387 . S
C1391 H1376 0.930 . S
C1391 C1386 1.390 . S
C1391 C1390 1.387 . S
H1392 C1404 0.930 . S
H1393 C1406 0.930 . S
H1394 C1407 0.930 . S
H1395 C1411 0.959 . S
H1396 C1411 0.959 . S
H1397 C1411 0.961 . S
H1398 C1412 0.960 . S
H1399 C1412 0.961 . S
H1400 C1412 0.959 . S
H1401 C1415 0.929 . S
H1402 C1416 0.931 . S
H1403 C1418 0.930 . S
C1404 H1392 0.930 . S
C1404 C1405 1.399 . S
C1404 C1409 1.399 . S
C1405 C1404 1.399 . S
C1405 C1406 1.376 . S
C1406 H1393 0.930 . S
C1406 C1405 1.376 . S
C1406 C1407 1.388 . S
C1407 H1394 0.930 . S
C1407 C1406 1.388 . S
C1407 C1408 1.390 . S
C1408 C1407 1.390 . S
C1408 C1409 1.394 . S
C1408 C1414 1.465 . S
C1409 C1404 1.399 . S
C1409 C1408 1.394 . S
C1409 C1410 1.516 . S
C1410 C1409 1.516 . S
C1410 C1411 1.502 . S
C1410 C1412 1.561 . S
C1410 C1413 1.526 . S
C1411 H1395 0.959 . S
C1411 H1396 0.959 . S
C1411 H1397 0.961 . S
C1411 C1410 1.502 . S
C1412 H1398 0.960 . S
C1412 H1399 0.961 . S
C1412 H1400 0.959 . S
C1412 C1410 1.561 . S
C1413 C1410 1.526 . S
C1413 C1414 1.396 . S
C1413 C1418 1.390 . S
C1414 C1408 1.465 . S
C1414 C1413 1.396 . S
C1414 C1415 1.399 . S
C1415 H1401 0.929 . S
C1415 C1414 1.399 . S
C1415 C1416 1.385 . S
C1416 H1402 0.931 . S
C1416 C1415 1.385 . S
C1416 C1417 1.389 . S
C1417 C1416 1.389 . S
C1417 C1418 1.387 . S
C1418 H1403 0.930 . S
C1418 C1413 1.390 . S
C1418 C1417 1.387 . S
H1419 C1431 0.930 . S
H1420 C1433 0.930 . S
H1421 C1434 0.930 . S
H1422 C1438 0.959 . S
H1423 C1438 0.959 . S
H1424 C1438 0.961 . S
H1425 C1439 0.960 . S
H1426 C1439 0.961 . S
H1427 C1439 0.959 . S
H1428 C1442 0.929 . S
H1429 C1443 0.931 . S
H1430 C1445 0.930 . S
C1431 H1419 0.930 . S
C1431 C1432 1.399 . S
C1431 C1436 1.399 . S
C1432 C1431 1.399 . S
C1432 C1433 1.376 . S
C1433 H1420 0.930 . S
C1433 C1432 1.376 . S
C1433 C1434 1.388 . S
C1434 H1421 0.930 . S
C1434 C1433 1.388 . S
C1434 C1435 1.390 . S
C1435 C1434 1.390 . S
C1435 C1436 1.394 . S
C1435 C1441 1.465 . S
C1436 C1431 1.399 . S
C1436 C1435 1.394 . S
C1436 C1437 1.516 . S
C1437 C1436 1.516 . S
C1437 C1438 1.502 . S
C1437 C1439 1.561 . S
C1437 C1440 1.526 . S
C1438 H1422 0.959 . S
C1438 H1423 0.959 . S
C1438 H1424 0.961 . S
C1438 C1437 1.502 . S
C1439 H1425 0.960 . S
C1439 H1426 0.961 . S
C1439 H1427 0.959 . S
C1439 C1437 1.561 . S
C1440 C1437 1.526 . S
C1440 C1441 1.396 . S
C1440 C1445 1.390 . S
C1441 C1435 1.465 . S
C1441 C1440 1.396 . S
C1441 C1442 1.399 . S
C1442 H1428 0.929 . S
C1442 C1441 1.399 . S
C1442 C1443 1.385 . S
C1443 H1429 0.931 . S
C1443 C1442 1.385 . S
C1443 C1444 1.389 . S
C1444 C1443 1.389 . S
C1444 C1445 1.387 . S
C1445 H1430 0.930 . S
C1445 C1440 1.390 . S
C1445 C1444 1.387 . S
H1446 C1458 0.930 . S
H1447 C1460 0.930 . S
H1448 C1461 0.930 . S
H1449 C1465 0.959 . S
H1450 C1465 0.959 . S
H1451 C1465 0.961 . S
H1452 C1466 0.960 . S
H1453 C1466 0.961 . S
H1454 C1466 0.959 . S
H1455 C1469 0.929 . S
H1456 C1470 0.931 . S
H1457 C1472 0.930 . S
C1458 H1446 0.930 . S
C1458 C1459 1.399 . S
C1458 C1463 1.399 . S
C1459 C1458 1.399 . S
C1459 C1460 1.376 . S
C1460 H1447 0.930 . S
C1460 C1459 1.376 . S
C1460 C1461 1.388 . S
C1461 H1448 0.930 . S
C1461 C1460 1.388 . S
C1461 C1462 1.390 . S
C1462 C1461 1.390 . S
C1462 C1463 1.394 . S
C1462 C1468 1.465 . S
C1463 C1458 1.399 . S
C1463 C1462 1.394 . S
C1463 C1464 1.516 . S
C1464 C1463 1.516 . S
C1464 C1465 1.502 . S
C1464 C1466 1.561 . S
C1464 C1467 1.526 . S
C1465 H1449 0.959 . S
C1465 H1450 0.959 . S
C1465 H1451 0.961 . S
C1465 C1464 1.502 . S
C1466 H1452 0.960 . S
C1466 H1453 0.961 . S
C1466 H1454 0.959 . S
C1466 C1464 1.561 . S
C1467 C1464 1.526 . S
C1467 C1468 1.396 . S
C1467 C1472 1.390 . S
C1468 C1462 1.465 . S
C1468 C1467 1.396 . S
C1468 C1469 1.399 . S
C1469 H1455 0.929 . S
C1469 C1468 1.399 . S
C1469 C1470 1.385 . S
C1470 H1456 0.931 . S
C1470 C1469 1.385 . S
C1470 C1471 1.389 . S
C1471 C1470 1.389 . S
C1471 C1472 1.387 . S
C1472 H1457 0.930 . S
C1472 C1467 1.390 . S
C1472 C1471 1.387 . S
H1473 C1485 0.930 . S
H1474 C1487 0.930 . S
H1475 C1488 0.930 . S
H1476 C1492 0.959 . S
H1477 C1492 0.959 . S
H1478 C1492 0.961 . S
H1479 C1493 0.960 . S
H1480 C1493 0.961 . S
H1481 C1493 0.959 . S
H1482 C1496 0.929 . S
H1483 C1497 0.931 . S
H1484 C1499 0.930 . S
C1485 H1473 0.930 . S
C1485 C1486 1.399 . S
C1485 C1490 1.399 . S
C1486 C1485 1.399 . S
C1486 C1487 1.376 . S
C1487 H1474 0.930 . S
C1487 C1486 1.376 . S
C1487 C1488 1.388 . S
C1488 H1475 0.930 . S
C1488 C1487 1.388 . S
C1488 C1489 1.390 . S
C1489 C1488 1.390 . S
C1489 C1490 1.394 . S
C1489 C1495 1.465 . S
C1490 C1485 1.399 . S
C1490 C1489 1.394 . S
C1490 C1491 1.516 . S
C1491 C1490 1.516 . S
C1491 C1492 1.502 . S
C1491 C1493 1.561 . S
C1491 C1494 1.526 . S
C1492 H1476 0.959 . S
C1492 H1477 0.959 . S
C1492 H1478 0.961 . S
C1492 C1491 1.502 . S
C1493 H1479 0.960 . S
C1493 H1480 0.961 . S
C1493 H1481 0.959 . S
C1493 C1491 1.561 . S
C1494 C1491 1.526 . S
C1494 C1495 1.396 . S
C1494 C1499 1.390 . S
C1495 C1489 1.465 . S
C1495 C1494 1.396 . S
C1495 C1496 1.399 . S
C1496 H1482 0.929 . S
C1496 C1495 1.399 . S
C1496 C1497 1.385 . S
C1497 H1483 0.931 . S
C1497 C1496 1.385 . S
C1497 C1498 1.389 . S
C1498 C1497 1.389 . S
C1498 C1499 1.387 . S
C1499 H1484 0.930 . S
C1499 C1494 1.390 . S
C1499 C1498 1.387 . S
H1500 C1512 0.930 . S
H1501 C1514 0.930 . S
H1502 C1515 0.930 . S
H1503 C1519 0.959 . S
H1504 C1519 0.959 . S
H1505 C1519 0.961 . S
H1506 C1520 0.960 . S
H1507 C1520 0.961 . S
H1508 C1520 0.959 . S
H1509 C1523 0.929 . S
H1510 C1524 0.931 . S
H1511 C1526 0.930 . S
C1512 H1500 0.930 . S
C1512 C1513 1.399 . S
C1512 C1517 1.399 . S
C1513 C1512 1.399 . S
C1513 C1514 1.376 . S
C1514 H1501 0.930 . S
C1514 C1513 1.376 . S
C1514 C1515 1.388 . S
C1515 H1502 0.930 . S
C1515 C1514 1.388 . S
C1515 C1516 1.390 . S
C1516 C1515 1.390 . S
C1516 C1517 1.394 . S
C1516 C1522 1.465 . S
C1517 C1512 1.399 . S
C1517 C1516 1.394 . S
C1517 C1518 1.516 . S
C1518 C1517 1.516 . S
C1518 C1519 1.502 . S
C1518 C1520 1.561 . S
C1518 C1521 1.526 . S
C1519 H1503 0.959 . S
C1519 H1504 0.959 . S
C1519 H1505 0.961 . S
C1519 C1518 1.502 . S
C1520 H1506 0.960 . S
C1520 H1507 0.961 . S
C1520 H1508 0.959 . S
C1520 C1518 1.561 . S
C1521 C1518 1.526 . S
C1521 C1522 1.396 . S
C1521 C1526 1.390 . S
C1522 C1516 1.465 . S
C1522 C1521 1.396 . S
C1522 C1523 1.399 . S
C1523 H1509 0.929 . S
C1523 C1522 1.399 . S
C1523 C1524 1.385 . S
C1524 H1510 0.931 . S
C1524 C1523 1.385 . S
C1524 C1525 1.389 . S
C1525 C1524 1.389 . S
C1525 C1526 1.387 . S
C1526 H1511 0.930 . S
C1526 C1521 1.390 . S
C1526 C1525 1.387 . S
H1527 C1539 0.930 . S
H1528 C1541 0.930 . S
H1529 C1542 0.930 . S
H1530 C1546 0.959 . S
H1531 C1546 0.959 . S
H1532 C1546 0.961 . S
H1533 C1547 0.960 . S
H1534 C1547 0.961 . S
H1535 C1547 0.959 . S
H1536 C1550 0.929 . S
H1537 C1551 0.931 . S
H1538 C1553 0.930 . S
C1539 H1527 0.930 . S
C1539 C1540 1.399 . S
C1539 C1544 1.399 . S
C1540 C1539 1.399 . S
C1540 C1541 1.376 . S
C1541 H1528 0.930 . S
C1541 C1540 1.376 . S
C1541 C1542 1.388 . S
C1542 H1529 0.930 . S
C1542 C1541 1.388 . S
C1542 C1543 1.390 . S
C1543 C1542 1.390 . S
C1543 C1544 1.394 . S
C1543 C1549 1.465 . S
C1544 C1539 1.399 . S
C1544 C1543 1.394 . S
C1544 C1545 1.516 . S
C1545 C1544 1.516 . S
C1545 C1546 1.502 . S
C1545 C1547 1.561 . S
C1545 C1548 1.526 . S
C1546 H1530 0.959 . S
C1546 H1531 0.959 . S
C1546 H1532 0.961 . S
C1546 C1545 1.502 . S
C1547 H1533 0.960 . S
C1547 H1534 0.961 . S
C1547 H1535 0.959 . S
C1547 C1545 1.561 . S
C1548 C1545 1.526 . S
C1548 C1549 1.396 . S
C1548 C1553 1.390 . S
C1549 C1543 1.465 . S
C1549 C1548 1.396 . S
C1549 C1550 1.399 . S
C1550 H1536 0.929 . S
C1550 C1549 1.399 . S
C1550 C1551 1.385 . S
C1551 H1537 0.931 . S
C1551 C1550 1.385 . S
C1551 C1552 1.389 . S
C1552 C1551 1.389 . S
C1552 C1553 1.387 . S
C1553 H1538 0.930 . S
C1553 C1548 1.390 . S
C1553 C1552 1.387 . S
H1554 C1566 0.930 . S
H1555 C1568 0.930 . S
H1556 C1569 0.930 . S
H1557 C1573 0.959 . S
H1558 C1573 0.959 . S
H1559 C1573 0.961 . S
H1560 C1574 0.960 . S
H1561 C1574 0.961 . S
H1562 C1574 0.959 . S
H1563 C1577 0.929 . S
H1564 C1578 0.931 . S
H1565 C1580 0.930 . S
C1566 H1554 0.930 . S
C1566 C1567 1.399 . S
C1566 C1571 1.399 . S
C1567 C1566 1.399 . S
C1567 C1568 1.376 . S
C1568 H1555 0.930 . S
C1568 C1567 1.376 . S
C1568 C1569 1.388 . S
C1569 H1556 0.930 . S
C1569 C1568 1.388 . S
C1569 C1570 1.390 . S
C1570 C1569 1.390 . S
C1570 C1571 1.394 . S
C1570 C1576 1.465 . S
C1571 C1566 1.399 . S
C1571 C1570 1.394 . S
C1571 C1572 1.516 . S
C1572 C1571 1.516 . S
C1572 C1573 1.502 . S
C1572 C1574 1.561 . S
C1572 C1575 1.526 . S
C1573 H1557 0.959 . S
C1573 H1558 0.959 . S
C1573 H1559 0.961 . S
C1573 C1572 1.502 . S
C1574 H1560 0.960 . S
C1574 H1561 0.961 . S
C1574 H1562 0.959 . S
C1574 C1572 1.561 . S
C1575 C1572 1.526 . S
C1575 C1576 1.396 . S
C1575 C1580 1.390 . S
C1576 C1570 1.465 . S
C1576 C1575 1.396 . S
C1576 C1577 1.399 . S
C1577 H1563 0.929 . S
C1577 C1576 1.399 . S
C1577 C1578 1.385 . S
C1578 H1564 0.931 . S
C1578 C1577 1.385 . S
C1578 C1579 1.389 . S
C1579 C1578 1.389 . S
C1579 C1580 1.387 . S
C1580 H1565 0.930 . S
C1580 C1575 1.390 . S
C1580 C1579 1.387 . S
H1581 C1593 0.930 . S
H1582 C1595 0.930 . S
H1583 C1596 0.930 . S
H1584 C1600 0.959 . S
H1585 C1600 0.959 . S
H1586 C1600 0.961 . S
H1587 C1601 0.960 . S
H1588 C1601 0.961 . S
H1589 C1601 0.959 . S
H1590 C1604 0.929 . S
H1591 C1605 0.931 . S
H1592 C1607 0.930 . S
C1593 H1581 0.930 . S
C1593 C1594 1.399 . S
C1593 C1598 1.399 . S
C1594 C1593 1.399 . S
C1594 C1595 1.376 . S
C1595 H1582 0.930 . S
C1595 C1594 1.376 . S
C1595 C1596 1.388 . S
C1596 H1583 0.930 . S
C1596 C1595 1.388 . S
C1596 C1597 1.390 . S
C1597 C1596 1.390 . S
C1597 C1598 1.394 . S
C1597 C1603 1.465 . S
C1598 C1593 1.399 . S
C1598 C1597 1.394 . S
C1598 C1599 1.516 . S
C1599 C1598 1.516 . S
C1599 C1600 1.502 . S
C1599 C1601 1.561 . S
C1599 C1602 1.526 . S
C1600 H1584 0.959 . S
C1600 H1585 0.959 . S
C1600 H1586 0.961 . S
C1600 C1599 1.502 . S
C1601 H1587 0.960 . S
C1601 H1588 0.961 . S
C1601 H1589 0.959 . S
C1601 C1599 1.561 . S
C1602 C1599 1.526 . S
C1602 C1603 1.396 . S
C1602 C1607 1.390 . S
C1603 C1597 1.465 . S
C1603 C1602 1.396 . S
C1603 C1604 1.399 . S
C1604 H1590 0.929 . S
C1604 C1603 1.399 . S
C1604 C1605 1.385 . S
C1605 H1591 0.931 . S
C1605 C1604 1.385 . S
C1605 C1606 1.389 . S
C1606 C1605 1.389 . S
C1606 C1607 1.387 . S
C1607 H1592 0.930 . S
C1607 C1602 1.390 . S
C1607 C1606 1.387 . S
C541 C513 1.428 . S
C553 N13 1.373 . S
C568 N46 1.417 . S
C580 C150 1.431 . S
C595 N79 1.449 . S
C607 C447 1.466 1_455 S
C622 N112 1.436 . S
C634 C216 1.444 . S
C649 N145 1.395 . S
C661 C381 1.433 . S
C676 C18 1.420 . S
C688 N178 1.377 . S
C703 C315 1.425 1_655 S
C715 N211 1.383 . S
C730 N244 1.418 . S
C742 C84 1.447 . S
C757 N277 1.407 . S
C769 C249 1.426 1_655 S
C784 N310 1.415 . S
C796 C414 1.459 . S
C811 C183 1.437 . S
C823 N343 1.382 . S
C838 N376 1.401 . S
C850 C480 1.452 . S
C865 N409 1.419 . S
C877 C117 1.447 1_455 S
C892 N442 1.450 . S
C904 C282 1.467 . S
C919 C51 1.459 . S
C931 N475 1.438 . S
C946 N508 1.372 . S
C958 C348 1.419 . S
C973 N2 1.593 . S
C985 N398 1.643 . S
C1000 N167 1.620 . S
C1012 N35 1.619 . S
C1027 N68 1.591 . S
C1039 N464 1.644 . S
C1054 N101 1.617 . S
C1066 N233 1.623 . S
C1081 N266 1.593 . S
C1093 N134 1.643 . S
C1108 N332 1.625 . S
C1120 N200 1.597 . S
C1135 N431 1.647 . S
C1147 N299 1.585 . S
C1162 N365 1.582 . S
C1174 N497 1.644 . S
C1189 C304 1.291 . S
C1201 C21 1.323 . S
C1216 C54 1.318 . S
C1228 C337 1.281 . S
C1243 C87 1.319 . S
C1255 C370 1.326 . S
C1270 C271 1.275 . S
C1282 C120 1.319 . S
C1297 C153 1.318 . S
C1309 C436 1.299 . S
C1324 C186 1.322 . S
C1336 C469 1.329 . S
C1351 C219 1.319 . S
C1363 C502 1.280 . S
C1378 C252 1.318 . S
C1390 C403 1.275 . S
C1405 C40 1.330 . S
C1417 C285 1.322 . S
C1432 C318 1.322 1_565 S
C1444 C73 1.285 . S
C1459 C351 1.319 . S
C1471 C106 1.275 . S
C1486 C384 1.322 1_545 S
C1498 C7 1.286 . S
C1513 C417 1.317 . S
C1525 C172 1.277 . S
C1540 C205 1.319 . S
C1552 C450 1.320 1_545 S
C1567 C238 1.310 . S
C1579 C483 1.323 . S
C1594 C516 1.318 1_565 S
C1606 C139 1.292 . S
