# Generated by pormake.
# Topology wme, (6)-cn, num edge types: 1
# Building blocks:
#     Node 0, Type 0, BuildingBlock: CUWYAW_clean_sbu_0, # of connection points: 6
#     Node 1, Type 0, BuildingBlock: CUWYAW_clean_sbu_0, # of connection points: 6
#     Node 2, Type 0, BuildingBlock: CUWYAW_clean_sbu_0, # of connection points: 6
#     Node 3, Type 0, BuildingBlock: CUWYAW_clean_sbu_0, # of connection points: 6
#     Node 4, Type 0, BuildingBlock: CUWYAW_clean_sbu_0, # of connection points: 6
#     Node 5, Type 0, BuildingBlock: CUWYAW_clean_sbu_0, # of connection points: 6
#     Node 6, Type 0, BuildingBlock: CUWYAW_clean_sbu_0, # of connection points: 6
#     Node 7, Type 0, BuildingBlock: CUWYAW_clean_sbu_0, # of connection points: 6
#     Node 8, Type 0, BuildingBlock: CUWYAW_clean_sbu_0, # of connection points: 6
#     Node 9, Type 0, BuildingBlock: CUWYAW_clean_sbu_0, # of connection points: 6
#     Node 10, Type 0, BuildingBlock: CUWYAW_clean_sbu_0, # of connection points: 6
#     Node 11, Type 0, BuildingBlock: CUWYAW_clean_sbu_0, # of connection points: 6
#     Edge 12, Type (0, 0), None
#     Edge 13, Type (0, 0), None
#     Edge 14, Type (0, 0), None
#     Edge 15, Type (0, 0), None
#     Edge 16, Type (0, 0), None
#     Edge 17, Type (0, 0), None
#     Edge 18, Type (0, 0), None
#     Edge 19, Type (0, 0), None
#     Edge 20, Type (0, 0), None
#     Edge 21, Type (0, 0), None
#     Edge 22, Type (0, 0), None
#     Edge 23, Type (0, 0), None
#     Edge 24, Type (0, 0), None
#     Edge 25, Type (0, 0), None
#     Edge 26, Type (0, 0), None
#     Edge 27, Type (0, 0), None
#     Edge 28, Type (0, 0), None
#     Edge 29, Type (0, 0), None
#     Edge 30, Type (0, 0), None
#     Edge 31, Type (0, 0), None
#     Edge 32, Type (0, 0), None
#     Edge 33, Type (0, 0), None
#     Edge 34, Type (0, 0), None
#     Edge 35, Type (0, 0), None
#     Edge 36, Type (0, 0), None
#     Edge 37, Type (0, 0), None
#     Edge 38, Type (0, 0), None
#     Edge 39, Type (0, 0), None
#     Edge 40, Type (0, 0), None
#     Edge 41, Type (0, 0), None
#     Edge 42, Type (0, 0), None
#     Edge 43, Type (0, 0), None
#     Edge 44, Type (0, 0), None
#     Edge 45, Type (0, 0), None
#     Edge 46, Type (0, 0), None
#     Edge 47, Type (0, 0), None
# Relax obj value: 0.114
# Max RMSD: 0.266
# Mean RMSD: 0.266
data_MOF--net-wme--node1-CUWYAW_clean_sbu_0--edge1-none
_symmetry_space_group_name_H-M    P1
_symmetry_Int_Tables_number       1
_symmetry_cell_setting            triclinic
loop_
_symmetry_equiv_pos_as_xyz
'x, y, z'
_cell_length_a     22.383106
_cell_length_b     22.354649
_cell_length_c     21.986879
_cell_angle_alpha  89.942563
_cell_angle_beta   90.107842
_cell_angle_gamma 119.96191
loop_
_atom_site_label
_atom_site_type_symbol
_atom_site_fract_x
_atom_site_fract_y
_atom_site_fract_z
_atom_type_partial_charge
C0 C 0.36491 0.2637 0.15024 0.0
Eu1 Eu 0.34544 0.3636 0.11591 0.0
C2 C 0.32883 0.19033 0.13053 0.0
C3 C 0.25949 0.14333 0.14559 0.0
C4 C 0.22737 0.07437 0.12533 0.0
C5 C 0.26347 1.05206 0.08814 0.0
C6 C 0.33115 0.10076 0.07024 0.0
C7 C 0.36356 0.16821 0.09188 0.0
C8 C 0.30485 0.43853 0.18205 0.0
C9 C 0.18354 0.29331 0.07412 0.0
C10 C 0.27231 0.52376 -0.01249 0.0
Eu11 Eu 0.30342 0.43641 0.03418 0.0
C12 C 0.24952 0.56654 0.02089 0.0
C13 C 0.18831 0.56561 0.0047 0.0
C14 C 0.16782 0.60732 0.03573 0.0
C15 C 0.20874 0.65122 0.08275 0.0
C16 C 0.26742 0.64864 0.10141 0.0
C17 C 0.2873 0.60644 0.07125 0.0
C18 C 0.36646 0.36918 -0.02015 0.0
C19 C 0.44753 0.52348 0.09717 0.0
O20 O 0.40183 0.30815 0.10821 0.0
O21 O 0.33074 0.28515 0.18325 0.0
O22 O 0.35767 0.43098 0.19484 0.0
O23 O 0.27586 0.40651 0.133 0.0
O24 O 0.23405 0.28116 0.08834 0.0
O25 O 0.19842 0.35515 0.05753 0.0
O26 O 0.33602 0.53846 -0.00335 0.0
O27 O 0.2292 0.4573 -0.0124 0.0
O28 O 0.31348 0.3698 0.95624 0.0
O29 O 0.38266 0.40543 0.02609 0.0
O30 O 0.38945 0.52235 0.08618 0.0
O31 O 0.44758 0.46461 0.10411 0.0
H32 H 0.23041 0.15944 0.17368 0.0
H33 H 0.17548 1.03843 0.14022 0.0
H34 H 0.36078 0.08625 0.04103 0.0
H35 H 0.4163 0.20328 0.0782 0.0
H36 H 0.15776 0.53448 -0.03327 0.0
H37 H 0.12332 0.60966 0.01978 0.0
H38 H 0.30063 0.68294 0.13679 0.0
H39 H 0.33382 0.60724 0.08615 0.0
C40 C 0.16558 0.33293 0.64928 0.0
Eu41 Eu 1.04616 0.31351 0.61545 0.0
C42 C 0.20304 0.29702 0.6297 0.0
C43 C 0.18087 0.22757 0.64471 0.0
C44 C 0.21796 0.19569 0.62461 0.0
C45 C 0.27653 0.23222 0.58772 0.0
C46 C 0.29546 0.30003 0.56995 0.0
C47 C 0.26008 0.33215 0.59135 0.0
C48 C 0.93138 0.27347 0.68223 0.0
C49 C 0.95358 0.1514 0.57428 0.0
C50 C 0.81215 0.24072 0.48833 0.0
Eu51 Eu 0.93076 0.27177 0.53439 0.0
C52 C 0.74655 0.21709 0.52173 0.0
C53 C 0.68614 0.15689 0.50398 0.0
C54 C 0.62381 0.13581 0.53482 0.0
C55 C 0.6208 0.17522 0.58316 0.0
C56 C 0.68211 0.23282 0.60326 0.0
C57 C 0.74436 0.25316 0.57334 0.0
C58 C 1.06053 0.3345 0.47932 0.0
C59 C 0.98871 0.41613 0.59718 0.0
O60 O 0.15781 0.36969 0.60712 0.0
O61 O 0.11017 0.29869 0.68245 0.0
O62 O 0.9919 0.3262 0.6947 0.0
O63 O 0.93389 0.24429 0.63316 0.0
O64 O 1.01647 0.20179 0.58792 0.0
O65 O 0.90671 0.1666 0.55819 0.0
O66 O 0.86087 0.30444 0.4981 0.0
O67 O 0.83575 0.19779 0.48766 0.0
O68 O 1.00666 0.28173 0.45588 0.0
O69 O 1.04093 0.35077 0.52575 0.0
O70 O 0.9316 0.35813 0.58643 0.0
O71 O 1.04747 0.4159 0.60371 0.0
H72 H 0.13563 0.19824 0.67265 0.0
H73 H 0.20213 0.14365 0.6394 0.0
H74 H 0.33974 0.32993 0.541 0.0
H75 H 0.27766 0.38499 0.57776 0.0
H76 H 0.68674 0.12773 0.46494 0.0
H77 H 0.57692 0.09229 0.51773 0.0
H78 H 0.68099 0.26496 0.63963 0.0
H79 H 0.79018 0.29884 0.58937 0.0
C80 C 0.89826 0.13344 0.14904 0.0
Eu81 Eu 0.7975 1.01397 0.1161 0.0
C82 C 0.97146 0.17061 0.12911 0.0
C83 C 1.0188 0.14872 0.14467 0.0
C84 C 1.0877 0.18582 0.12453 0.0
C85 C 0.1096 0.2441 0.08707 0.0
C86 C 1.06064 0.26261 0.06867 0.0
C87 C 0.99322 0.22726 0.0901 0.0
C88 C 0.72078 0.8995 0.18279 0.0
C89 C 0.86428 0.91779 0.07868 0.0
C90 C 0.63628 0.78072 -0.01212 0.0
Eu91 Eu 0.72366 0.89886 0.03464 0.0
C92 C 0.59412 0.71504 0.02131 0.0
C93 C 0.59423 0.65457 0.00417 0.0
C94 C 0.55287 0.59226 0.03517 0.0
C95 C 0.51016 0.58939 0.08312 0.0
C96 C 0.51359 0.65077 0.10268 0.0
C97 C 0.55551 0.71296 0.07256 0.0
C98 C 0.79245 1.02905 -0.02002 0.0
C99 C 0.6377 0.95776 0.09678 0.0
O100 O 0.85362 0.12569 0.10705 0.0
O101 O 0.877 0.0781 0.18253 0.0
O102 O 0.72972 0.96057 0.19513 0.0
O103 O 0.75242 0.90139 0.13392 0.0
O104 O 0.87826 0.98149 0.09125 0.0
O105 O 0.80235 0.87235 0.0611 0.0
O106 O 0.62146 0.82962 -0.0024 0.0
O107 O 0.70271 0.80414 -0.01266 0.0
O108 O 0.79112 0.97499 0.95665 0.0
O109 O 0.75612 1.0094 0.02608 0.0
O110 O 0.63789 0.90038 0.08527 0.0
O111 O 0.69691 1.01617 0.10419 0.0
H112 H 1.00302 0.10372 0.17308 0.0
H113 H 0.12396 0.17029 0.13979 0.0
H114 H 1.07492 0.30663 0.03925 0.0
H115 H 0.95792 0.24461 0.07607 0.0
H116 H 0.62437 0.6551 -0.0345 0.0
H117 H 0.54975 0.54529 0.01849 0.0
H118 H 0.48013 0.64973 0.13875 0.0
H119 H 0.55543 0.75884 0.08818 0.0
C120 C 0.82831 0.86566 0.64941 0.0
Eu121 Eu 0.84758 0.76551 0.61558 0.0
C122 C 0.86409 0.93903 0.62964 0.0
C123 C 0.93348 0.98624 0.64456 0.0
C124 C 0.96524 1.05521 0.62432 0.0
C125 C 0.92862 0.07734 0.5874 0.0
C126 C 0.86086 1.02853 0.56971 0.0
C127 C 0.82888 0.96102 0.59123 0.0
C128 C 0.8878 0.69028 0.68198 0.0
C129 C 1.00946 0.83509 0.57434 0.0
C130 C 0.92022 0.60497 0.48759 0.0
Eu131 Eu 0.88922 0.6923 0.53412 0.0
C132 C 0.94378 0.56282 0.52108 0.0
C133 C 1.00388 0.56243 0.50348 0.0
C134 C 1.02495 0.52115 0.53457 0.0
C135 C 0.98567 0.47895 0.58304 0.0
C136 C 0.92822 0.48288 0.60302 0.0
C137 C 0.90786 0.52478 0.57282 0.0
C138 C 0.82622 0.75965 0.47966 0.0
C139 C 0.74515 0.60552 0.59699 0.0
O140 O 0.79131 0.82109 0.60744 0.0
O141 O 0.8627 0.8444 0.68251 0.0
O142 O 0.83515 0.69812 0.69461 0.0
O143 O 0.91684 0.72224 0.63298 0.0
O144 O 0.95913 0.84758 0.58819 0.0
O145 O 0.99431 0.77312 0.558 0.0
O146 O 0.85656 0.59002 0.49723 0.0
O147 O 0.96308 0.67149 0.4871 0.0
O148 O 0.87908 0.75897 0.45607 0.0
O149 O 0.81014 0.72344 0.5259 0.0
O150 O 0.80308 0.60644 0.58591 0.0
O151 O 0.7453 0.6645 0.60392 0.0
H152 H 0.96287 0.97029 0.67255 0.0
H153 H 1.01724 0.09136 0.63905 0.0
H154 H 0.83091 1.04299 0.54075 0.0
H155 H 0.77607 0.92581 0.57771 0.0
H156 H 1.03298 0.5921 0.4644 0.0
H157 H 1.06836 0.51758 0.5176 0.0
H158 H 0.8962 0.44979 0.63949 0.0
H159 H 0.86229 0.5251 0.58876 0.0
C160 C 1.02674 0.79326 0.15169 0.0
Eu161 Eu 0.1466 0.81546 0.11588 0.0
C162 C 0.98722 0.82804 0.13575 0.0
C163 C 1.01476 0.9001 0.14062 0.0
C164 C 0.9764 0.931 0.12109 0.0
C165 C 0.91079 0.89039 0.09493 0.0
C166 C 0.88485 0.81866 0.0891 0.0
C167 C 0.92204 0.7881 0.10975 0.0
C168 C 0.26228 0.85632 0.18195 0.0
C169 C 0.23825 0.97795 0.07489 0.0
C170 C 0.3806 0.89032 -0.01176 0.0
Eu171 Eu 0.26184 0.85817 0.03425 0.0
C172 C 0.44626 0.914 0.02177 0.0
C173 C 0.50682 0.97379 0.0037 0.0
C174 C 0.56922 0.99469 0.03456 0.0
C175 C 0.57214 0.95551 0.08322 0.0
C176 C 0.5107 0.89845 0.1037 0.0
C177 C 0.44838 0.8783 0.07377 0.0
C178 C 0.13173 0.79473 -0.02037 0.0
C179 C 0.20519 0.71381 0.09674 0.0
O180 O 1.03496 0.75978 0.10689 0.0
O181 O 1.08248 0.82696 0.18472 0.0
O182 O 0.20222 0.80302 0.19443 0.0
O183 O 0.2589 0.88534 0.13305 0.0
O184 O 0.17576 0.92746 0.08952 0.0
O185 O 0.28493 0.96303 0.05774 0.0
O186 O 0.33215 0.8264 -0.00242 0.0
O187 O 0.35664 0.93295 -0.01207 0.0
O188 O 0.18526 0.84759 0.95595 0.0
O189 O 0.15178 0.77868 0.02602 0.0
O190 O 0.262 0.77205 0.08597 0.0
O191 O 0.14623 0.71355 0.10356 0.0
H192 H 1.06555 0.93237 0.15981 0.0
H193 H 0.99772 0.98608 0.12685 0.0
H194 H 0.83456 0.78494 0.06947 0.0
H195 H 0.89996 0.73279 0.10462 0.0
H196 H 0.50628 1.00271 -0.03562 0.0
H197 H 0.61622 1.03776 0.01722 0.0
H198 H 0.51174 0.86647 0.14032 0.0
H199 H 0.40245 0.83298 0.09005 0.0
C200 C 0.29513 0.99487 0.64914 0.0
Eu201 Eu 0.39508 0.11442 0.61559 0.0
C202 C 0.22178 0.95748 0.62944 0.0
C203 C 0.17461 0.97959 0.64475 0.0
C204 C 0.10565 0.94256 0.62461 0.0
C205 C 1.08347 0.88408 0.58741 0.0
C206 C 0.13223 0.86523 0.56934 0.0
C207 C 0.19974 0.90057 0.59075 0.0
C208 C 0.47018 0.22945 0.68229 0.0
C209 C 0.32552 0.20719 0.57468 0.0
C210 C 0.55514 0.34838 0.48807 0.0
Eu211 Eu 0.46811 0.22982 0.53441 0.0
C212 C 0.59765 0.41399 0.52152 0.0
C213 C 0.59722 0.47445 0.50479 0.0
C214 C 0.63893 0.53674 0.53574 0.0
C215 C 0.68233 0.53961 0.58322 0.0
C216 C 0.67921 0.47822 0.60244 0.0
C217 C 0.63697 0.41604 0.57236 0.0
C218 C 0.40068 0.09977 0.47961 0.0
C219 C 0.55495 0.1721 0.59706 0.0
O220 O 0.33953 1.00261 0.60705 0.0
O221 O 0.31645 1.05032 0.68245 0.0
O222 O 0.46236 0.16884 0.69478 0.0
O223 O 0.43825 0.22688 0.63329 0.0
O224 O 0.31307 0.14425 0.58833 0.0
O225 O 0.3874 0.25407 0.55852 0.0
O226 O 0.57005 0.29945 0.49727 0.0
O227 O 0.48873 0.32495 0.48798 0.0
O228 O 0.40121 0.15347 0.45628 0.0
O229 O 0.43698 0.11957 0.52583 0.0
O230 O 0.55397 0.22921 0.58615 0.0
O231 O 0.4961 0.11324 0.60379 0.0
H232 H 0.19059 1.02474 0.67297 0.0
H233 H 1.06954 0.95834 0.63964 0.0
H234 H 0.11773 0.82101 0.54015 0.0
H235 H 0.23491 0.88303 0.57692 0.0
H236 H 0.56654 0.47393 0.46645 0.0
H237 H 0.64175 0.58369 0.51935 0.0
H238 H 0.71316 0.47923 0.63816 0.0
H239 H 0.63734 0.37019 0.58766 0.0
C240 C 0.88801 0.80278 0.27469 0.0
Eu241 Eu 0.79327 0.82628 0.31624 0.0
C242 C 0.96053 0.83114 0.29245 0.0
C243 C 0.98189 0.78634 0.31485 0.0
C244 C 1.04995 0.81185 0.33269 0.0
C245 C 0.09853 0.88273 0.32753 0.0
C246 C 1.07691 0.92809 0.30658 0.0
C247 C 1.00817 0.90253 0.28958 0.0
C248 C 0.71956 0.8583 0.23548 0.0
C249 C 0.85935 0.98894 0.34117 0.0
C250 C 0.64904 0.8999 0.4421 0.0
Eu251 Eu 0.72423 0.86464 0.37936 0.0
C252 C 0.59945 0.91807 0.41446 0.0
C253 C 0.59178 0.97277 0.43673 0.0
C254 C 0.5455 0.98973 0.40865 0.0
C255 C 0.50576 0.95175 0.35835 0.0
C256 C 0.51563 0.89897 0.3349 0.0
C257 C 0.5623 0.88289 0.36207 0.0
C258 C 0.77709 0.77876 0.45156 0.0
C259 C 0.63729 0.71653 0.33989 0.0
O260 O 0.87208 0.84551 0.24913 0.0
O261 O 0.84235 0.76297 0.31467 0.0
O262 O 0.72657 0.80431 0.23121 0.0
O263 O 0.74811 0.89072 0.28313 0.0
O264 O 0.87501 0.93969 0.33435 0.0
O265 O 0.79541 0.97147 0.35135 0.0
O266 O 0.63359 0.8354 0.4358 0.0
O267 O 0.7141 0.943 0.43087 0.0
O268 O 0.79849 0.83476 0.41963 0.0
O269 O 0.79652 0.8337 0.41962 0.0
O270 O 0.63546 0.77354 0.33663 0.0
O271 O 0.69854 0.72195 0.34162 0.0
H272 H 0.94593 0.7314 0.3183 0.0
H273 H 1.06471 0.77533 0.34907 0.0
H274 H 0.11308 0.98278 0.30211 0.0
H275 H 0.99279 0.93853 0.27315 0.0
H276 H 0.62041 1.00121 0.4765 0.0
H277 H 0.53755 1.02954 0.42827 0.0
H278 H 0.48508 0.86815 0.29673 0.0
H279 H 0.56804 0.84163 0.34259 0.0
C280 C 0.15208 0.85706 0.77505 0.0
Eu281 Eu 1.03333 0.76242 0.81573 0.0
C282 C 0.19651 0.92929 0.79331 0.0
C283 C 0.17139 0.97581 0.79597 0.0
C284 C 0.21486 1.04444 0.81316 0.0
C285 C 0.28354 0.06694 0.82893 0.0
C286 C 0.30739 1.01933 0.82874 0.0
C287 C 0.26443 0.95138 0.81066 0.0
C288 C 0.92809 0.68916 0.73449 0.0
C289 C 0.93629 0.82794 0.84012 0.0
C290 C 0.81477 0.61773 0.9409 0.0
Eu291 Eu 0.92552 0.69262 0.87846 0.0
C292 C 0.74692 0.56888 0.91315 0.0
C293 C 0.6847 0.56001 0.93679 0.0
C294 C 0.62133 0.51386 0.90895 0.0
C295 C 0.61931 0.47553 0.8575 0.0
C296 C 0.68178 0.48677 0.83265 0.0
C297 C 0.74467 0.53334 0.8596 0.0
C298 C 1.06371 0.74549 0.95136 0.0
C299 C 0.98715 0.60606 0.83933 0.0
O300 O 0.14554 0.81089 0.81489 0.0
O301 O 1.09379 0.84195 0.7493 0.0
O302 O 0.98914 0.6965 0.73018 0.0
O303 O 0.92399 0.71725 0.78229 0.0
O304 O 1.00128 0.84397 0.83381 0.0
O305 O 0.88996 0.76373 0.84972 0.0
O306 O 0.86319 0.60153 0.93434 0.0
O307 O 0.83742 0.68307 0.92995 0.0
O308 O 1.02929 0.76689 0.91912 0.0
O309 O 1.02839 0.76494 0.91911 0.0
O310 O 0.92824 0.60392 0.83595 0.0
O311 O 1.04276 0.66749 0.84117 0.0
H312 H 0.11867 0.95971 0.78355 0.0
H313 H 0.19509 0.07985 0.81306 0.0
H314 H 0.36007 1.03481 0.84095 0.0
H315 H 0.28444 0.91612 0.80985 0.0
H316 H 0.68508 0.58747 -0.02255 0.0
H317 H 0.57374 0.50476 0.92968 0.0
H318 H 0.68184 0.45725 0.79358 0.0
H319 H 0.79159 0.54018 0.83911 0.0
C320 C 0.36041 0.12187 0.27555 0.0
Eu321 Eu 0.33475 1.00222 0.31567 0.0
C322 C 0.33233 0.16606 0.29372 0.0
C323 C 0.26071 0.14058 0.29607 0.0
C324 C 0.23516 0.1837 0.31324 0.0
C325 C 0.28093 0.2524 0.32936 0.0
C326 C 0.35238 0.27657 0.32962 0.0
C327 C 0.37776 0.23394 0.31153 0.0
C328 C 0.30288 0.89694 0.23457 0.0
C329 C 0.17172 0.90605 0.33917 0.0
C330 C 0.25835 0.78226 0.44044 0.0
Eu331 Eu 0.29509 0.89364 0.3783 0.0
C332 C 0.23959 0.71455 0.41245 0.0
C333 C 0.18709 0.65198 0.43643 0.0
C334 C 0.17025 0.58874 0.40848 0.0
C335 C 0.20617 0.5872 0.35662 0.0
C336 C 0.25658 0.64999 0.33147 0.0
C337 C 0.27242 0.71276 0.3585 0.0
C338 C 0.38097 1.03137 0.45154 0.0
C339 C 0.4433 0.95416 0.34 0.0
O340 O 0.39903 0.11452 0.31592 0.0
O341 O 0.31775 1.06399 0.24888 0.0
O342 O 0.35679 0.95792 0.23044 0.0
O343 O 0.27018 0.89304 0.28193 0.0
O344 O 0.22116 0.97087 0.33233 0.0
O345 O 0.18882 0.85922 0.34958 0.0
O346 O 0.32301 0.83068 0.43442 0.0
O347 O 0.21595 0.80516 0.42914 0.0
O348 O 0.32537 0.99763 0.419 0.0
O349 O 0.32639 0.99669 0.41899 0.0
O350 O 0.3862 0.89558 0.33633 0.0
O351 O 0.43832 1.01032 0.34159 0.0
H352 H 0.22443 0.08788 0.2833 0.0
H353 H 0.18002 0.1637 0.31277 0.0
H354 H 0.38925 0.32927 0.34215 0.0
H355 H 0.43299 0.25418 0.31107 0.0
H356 H 0.16046 0.65201 0.47747 0.0
H357 H 0.13246 0.54088 0.42943 0.0
H358 H 0.28587 0.65041 0.29211 0.0
H359 H 0.31187 0.75996 0.33778 0.0
C360 C 0.30388 0.32713 0.77522 0.0
Eu361 Eu 0.39852 0.30288 0.81611 0.0
C362 C 0.23169 0.29919 0.79329 0.0
C363 C 0.20951 0.3449 0.81087 0.0
C364 C 0.14161 0.3198 0.82883 0.0
C365 C 1.09412 0.24833 0.82864 0.0
C366 C 0.11671 0.20224 0.81263 0.0
C367 C 0.1853 0.22751 0.79558 0.0
C368 C 0.47139 0.27072 0.73486 0.0
C369 C 0.33298 0.14018 0.84088 0.0
C370 C 0.54382 0.22929 0.94119 0.0
Eu371 Eu 0.46822 0.26466 0.87882 0.0
C372 C 0.59288 0.21065 0.91339 0.0
C373 C 0.60179 0.15708 0.93676 0.0
C374 C 0.6479 0.13995 0.90878 0.0
C375 C 0.68623 0.17663 0.85752 0.0
C376 C 0.67508 0.22822 0.83299 0.0
C377 C 0.6285 0.24441 0.86003 0.0
C378 C 0.41559 0.35026 0.9516 0.0
C379 C 0.55471 0.41273 0.83936 0.0
O380 O 0.31917 0.28409 0.74946 0.0
O381 O 0.34987 0.36659 0.81519 0.0
O382 O 0.46421 0.32462 0.73061 0.0
O383 O 0.44343 0.23845 0.78267 0.0
O384 O 0.31706 0.18931 0.83424 0.0
O385 O 0.39706 0.15786 0.85076 0.0
O386 O 0.55951 0.29383 0.93461 0.0
O387 O 0.4786 0.18635 0.93035 0.0
O388 O 0.39415 0.29437 0.91951 0.0
O389 O 0.39611 0.29542 0.9195 0.0
O390 O 0.55662 0.3558 0.8359 0.0
O391 O 0.49343 0.40719 0.84135 0.0
H392 H 0.24466 0.40017 0.81037 0.0
H393 H 0.12608 0.35693 0.84125 0.0
H394 H 1.08139 0.14708 0.81223 0.0
H395 H 0.20148 0.19099 0.78296 0.0
H396 H 0.57438 0.12975 -0.02268 0.0
H397 H 0.65698 0.10121 0.92923 0.0
H398 H 0.70463 0.2581 0.79409 0.0
H399 H 0.62171 0.28473 0.83976 0.0
C400 C 1.04081 0.27159 0.27453 0.0
Eu401 Eu 0.15938 0.36657 0.31552 0.0
C402 C 0.99625 0.19949 0.29305 0.0
C403 C 1.02112 0.15276 0.29596 0.0
C404 C 0.97749 0.08424 0.31332 0.0
C405 C 0.90892 1.06207 0.32906 0.0
C406 C 0.88534 0.10989 0.32866 0.0
C407 C 0.92845 0.17773 0.31037 0.0
C408 C 0.26452 0.43966 0.2344 0.0
C409 C 0.25676 0.30159 0.34105 0.0
C410 C 0.37725 0.51205 0.44123 0.0
Eu411 Eu 0.26669 0.43667 0.37848 0.0
C412 C 0.4451 0.5608 0.41357 0.0
C413 C 0.50733 0.56973 0.4375 0.0
C414 C 0.57069 0.61571 0.40971 0.0
C415 C 0.5727 0.65378 0.35801 0.0
C416 C 0.51024 0.64251 0.3329 0.0
C417 C 0.44736 0.5961 0.35981 0.0
C418 C 0.12822 0.38376 0.45061 0.0
C419 C 0.20494 0.52287 0.33839 0.0
O420 O 1.04718 0.31804 0.31389 0.0
O421 O 0.09923 0.28651 0.24932 0.0
O422 O 0.20342 0.43218 0.22983 0.0
O423 O 0.26878 0.41189 0.28243 0.0
O424 O 0.19171 0.28531 0.33434 0.0
O425 O 0.30285 0.36588 0.35062 0.0
O426 O 0.32876 0.5281 0.43412 0.0
O427 O 0.35471 0.44666 0.43071 0.0
O428 O 0.16293 0.36233 0.41899 0.0
O429 O 0.16382 0.36429 0.41896 0.0
O430 O 0.26391 0.52516 0.33536 0.0
O431 O 0.14946 0.46135 0.34024 0.0
H432 H 1.07375 0.16861 0.28359 0.0
H433 H 0.99701 1.04862 0.31336 0.0
H434 H 0.83275 0.09464 0.34081 0.0
H435 H 0.90863 0.21314 0.30937 0.0
H436 H 0.50695 0.54247 0.47835 0.0
H437 H 0.6183 0.62491 0.43065 0.0
H438 H 0.51019 0.67187 0.29365 0.0
H439 H 0.40044 0.58922 0.3391 0.0
C440 C 0.83384 1.00894 0.77482 0.0
Eu441 Eu 0.85841 0.12785 0.8159 0.0
C442 C 0.86169 0.96446 0.79282 0.0
C443 C 0.816 0.89642 0.80999 0.0
C444 C 0.84105 0.85343 0.82794 0.0
C445 C 0.91245 0.87739 0.82818 0.0
C446 C 0.9585 0.94618 0.81259 0.0
C447 C 0.93327 0.98968 0.79552 0.0
C448 C 0.89037 0.23323 0.7348 0.0
C449 C 1.02097 0.22454 0.84051 0.0
C450 C 0.93273 0.34623 0.94141 0.0
Eu451 Eu 0.89678 0.23541 0.87877 0.0
C452 C 0.95169 0.41408 0.91357 0.0
C453 C 1.00394 0.47655 0.93803 0.0
C454 C 1.02106 0.53991 0.91011 0.0
C455 C 0.9857 0.54166 0.85779 0.0
C456 C 0.93553 0.47899 0.83221 0.0
C457 C 0.9194 0.41612 0.85922 0.0
C458 C 0.81119 0.09694 0.95123 0.0
C459 C 0.74889 0.17468 0.83934 0.0
O460 O 0.87684 0.0673 0.74909 0.0
O461 O 0.79458 1.01552 0.81485 0.0
O462 O 0.8365 0.17224 0.73052 0.0
O463 O 0.92275 0.23727 0.78255 0.0
O464 O 0.97189 0.15956 0.83384 0.0
O465 O 1.0033 0.27099 0.85044 0.0
O466 O 0.86816 0.29779 0.9347 0.0
O467 O 0.97531 0.32348 0.93056 0.0
O468 O 0.86709 0.13138 0.9193 0.0
O469 O 0.86602 0.13229 0.91929 0.0
O470 O 0.8058 0.23342 0.83609 0.0
O471 O 0.75433 0.11878 0.84115 0.0
H472 H 0.76079 0.87634 0.80915 0.0
H473 H 0.80396 0.80065 0.84001 0.0
H474 H 1.01361 0.96601 0.81253 0.0
H475 H 0.96977 1.04249 0.78324 0.0
H476 H 1.03018 0.47634 -0.02063 0.0
H477 H 1.05862 0.58768 0.93142 0.0
H478 H 0.90666 0.47875 0.79248 0.0
H479 H 0.88019 0.36901 0.83814 0.0
loop_
_geom_bond_atom_site_label_1
_geom_bond_atom_site_label_2
_geom_bond_distance
_geom_bond_site_symmetry_2
_ccdc_geom_bond_type
C0 Eu1 2.835 . S
C0 C2 1.500 . S
C0 O20 1.257 . S
C0 O21 1.260 . S
Eu1 C0 2.835 . S
Eu1 O20 2.473 . S
Eu1 O21 2.480 . S
Eu1 O22 2.430 . S
Eu1 O23 2.670 . S
Eu1 O24 2.394 . S
Eu1 O29 2.355 . S
Eu1 O31 2.374 . S
C2 C0 1.500 . S
C2 C3 1.377 . S
C2 C7 1.377 . S
C3 C2 1.377 . S
C3 C4 1.395 . S
C3 H32 0.931 . S
C4 C3 1.395 . S
C4 C5 1.383 1_545 S
C4 H33 0.931 1_545 S
C5 C4 1.383 1_565 S
C5 C6 1.394 1_565 S
C6 C5 1.394 1_545 S
C6 C7 1.378 . S
C6 H34 0.931 1_545 S
C7 C2 1.377 . S
C7 C6 1.378 . S
C7 H35 0.931 . S
C8 O22 1.259 . S
C8 O23 1.270 . S
C9 O24 1.251 . S
C9 O25 1.251 . S
C10 Eu11 2.835 . S
C10 C12 1.500 . S
C10 O26 1.257 . S
C10 O27 1.260 1_554 S
Eu11 C10 2.835 . S
Eu11 O23 2.355 . S
Eu11 O25 2.374 . S
Eu11 O26 2.473 . S
Eu11 O27 2.480 1_554 S
Eu11 O28 2.430 1_554 S
Eu11 O29 2.670 . S
Eu11 O30 2.394 . S
C12 C10 1.500 . S
C12 C13 1.377 1_554 S
C12 C17 1.377 . S
C13 C12 1.377 1_556 S
C13 C14 1.395 . S
C13 H36 0.931 . S
C14 C13 1.395 . S
C14 C15 1.383 1_556 S
C14 H37 0.931 . S
C15 C14 1.383 1_554 S
C15 C16 1.394 . S
C16 C15 1.394 . S
C16 C17 1.378 . S
C16 H38 0.931 . S
C17 C12 1.377 . S
C17 C16 1.378 . S
C17 H39 0.931 . S
C18 O28 1.259 . S
C18 O29 1.270 1_556 S
C19 O30 1.251 . S
C19 O31 1.251 . S
O20 C0 1.257 . S
O20 Eu1 2.473 . S
O21 C0 1.260 . S
O21 Eu1 2.480 . S
O22 Eu1 2.430 . S
O22 C8 1.259 . S
O23 Eu1 2.670 . S
O23 C8 1.270 . S
O23 Eu11 2.355 . S
O24 Eu1 2.394 . S
O24 C9 1.251 . S
O25 C9 1.251 . S
O25 Eu11 2.374 . S
O26 C10 1.257 . S
O26 Eu11 2.473 . S
O27 C10 1.260 1_556 S
O27 Eu11 2.480 1_556 S
O28 Eu11 2.430 1_556 S
O28 C18 1.259 . S
O29 Eu1 2.355 . S
O29 Eu11 2.670 . S
O29 C18 1.270 1_554 S
O30 Eu11 2.394 . S
O30 C19 1.251 . S
O31 Eu1 2.374 . S
O31 C19 1.251 . S
H32 C3 0.931 . S
H33 C4 0.931 1_565 S
H34 C6 0.931 1_565 S
H35 C7 0.931 . S
H36 C13 0.931 . S
H37 C14 0.931 . S
H38 C16 0.931 . S
H39 C17 0.931 . S
C40 Eu41 2.835 1_455 S
C40 C42 1.500 . S
C40 O60 1.257 . S
C40 O61 1.260 . S
Eu41 C40 2.835 1_655 S
Eu41 O60 2.473 1_655 S
Eu41 O61 2.480 1_655 S
Eu41 O62 2.430 . S
Eu41 O63 2.670 . S
Eu41 O64 2.394 . S
Eu41 O69 2.355 . S
Eu41 O71 2.374 . S
C42 C40 1.500 . S
C42 C43 1.377 . S
C42 C47 1.377 . S
C43 C42 1.377 . S
C43 C44 1.395 . S
C43 H72 0.931 . S
C44 C43 1.395 . S
C44 C45 1.383 . S
C44 H73 0.931 . S
C45 C44 1.383 . S
C45 C46 1.394 . S
C46 C45 1.394 . S
C46 C47 1.378 . S
C46 H74 0.931 . S
C47 C42 1.377 . S
C47 C46 1.378 . S
C47 H75 0.931 . S
C48 O62 1.259 . S
C48 O63 1.270 . S
C49 O64 1.251 . S
C49 O65 1.251 . S
C50 Eu51 2.835 . S
C50 C52 1.500 . S
C50 O66 1.257 . S
C50 O67 1.260 . S
Eu51 C50 2.835 . S
Eu51 O63 2.355 . S
Eu51 O65 2.374 . S
Eu51 O66 2.473 . S
Eu51 O67 2.480 . S
Eu51 O68 2.430 . S
Eu51 O69 2.670 . S
Eu51 O70 2.394 . S
C52 C50 1.500 . S
C52 C53 1.377 . S
C52 C57 1.377 . S
C53 C52 1.377 . S
C53 C54 1.395 . S
C53 H76 0.931 . S
C54 C53 1.395 . S
C54 C55 1.383 . S
C54 H77 0.931 . S
C55 C54 1.383 . S
C55 C56 1.394 . S
C56 C55 1.394 . S
C56 C57 1.378 . S
C56 H78 0.931 . S
C57 C52 1.377 . S
C57 C56 1.378 . S
C57 H79 0.931 . S
C58 O68 1.259 . S
C58 O69 1.270 . S
C59 O70 1.251 . S
C59 O71 1.251 . S
O60 C40 1.257 . S
O60 Eu41 2.473 1_455 S
O61 C40 1.260 . S
O61 Eu41 2.480 1_455 S
O62 Eu41 2.430 . S
O62 C48 1.259 . S
O63 Eu41 2.670 . S
O63 C48 1.270 . S
O63 Eu51 2.355 . S
O64 Eu41 2.394 . S
O64 C49 1.251 . S
O65 C49 1.251 . S
O65 Eu51 2.374 . S
O66 C50 1.257 . S
O66 Eu51 2.473 . S
O67 C50 1.260 . S
O67 Eu51 2.480 . S
O68 Eu51 2.430 . S
O68 C58 1.259 . S
O69 Eu41 2.355 . S
O69 Eu51 2.670 . S
O69 C58 1.270 . S
O70 Eu51 2.394 . S
O70 C59 1.251 . S
O71 Eu41 2.374 . S
O71 C59 1.251 . S
H72 C43 0.931 . S
H73 C44 0.931 . S
H74 C46 0.931 . S
H75 C47 0.931 . S
H76 C53 0.931 . S
H77 C54 0.931 . S
H78 C56 0.931 . S
H79 C57 0.931 . S
C80 Eu81 2.835 1_545 S
C80 C82 1.500 . S
C80 O100 1.257 . S
C80 O101 1.260 . S
Eu81 C80 2.835 1_565 S
Eu81 O100 2.473 1_565 S
Eu81 O101 2.480 1_565 S
Eu81 O102 2.430 . S
Eu81 O103 2.670 . S
Eu81 O104 2.394 . S
Eu81 O109 2.355 . S
Eu81 O111 2.374 . S
C82 C80 1.500 . S
C82 C83 1.377 . S
C82 C87 1.377 . S
C83 C82 1.377 . S
C83 C84 1.395 . S
C83 H112 0.931 . S
C84 C83 1.395 . S
C84 C85 1.383 1_655 S
C84 H113 0.931 1_655 S
C85 C84 1.383 1_455 S
C85 C86 1.394 1_455 S
C86 C85 1.394 1_655 S
C86 C87 1.378 . S
C86 H114 0.931 1_655 S
C87 C82 1.377 . S
C87 C86 1.378 . S
C87 H115 0.931 . S
C88 O102 1.259 . S
C88 O103 1.270 . S
C89 O104 1.251 . S
C89 O105 1.251 . S
C90 Eu91 2.835 . S
C90 C92 1.500 . S
C90 O106 1.257 . S
C90 O107 1.260 1_554 S
Eu91 C90 2.835 . S
Eu91 O103 2.355 . S
Eu91 O105 2.374 . S
Eu91 O106 2.473 . S
Eu91 O107 2.480 1_554 S
Eu91 O108 2.430 1_554 S
Eu91 O109 2.670 . S
Eu91 O110 2.394 . S
C92 C90 1.500 . S
C92 C93 1.377 1_554 S
C92 C97 1.377 . S
C93 C92 1.377 1_556 S
C93 C94 1.395 . S
C93 H116 0.931 . S
C94 C93 1.395 . S
C94 C95 1.383 1_556 S
C94 H117 0.931 . S
C95 C94 1.383 1_554 S
C95 C96 1.394 . S
C96 C95 1.394 . S
C96 C97 1.378 . S
C96 H118 0.931 . S
C97 C92 1.377 . S
C97 C96 1.378 . S
C97 H119 0.931 . S
C98 O108 1.259 . S
C98 O109 1.270 1_556 S
C99 O110 1.251 . S
C99 O111 1.251 . S
O100 C80 1.257 . S
O100 Eu81 2.473 1_545 S
O101 C80 1.260 . S
O101 Eu81 2.480 1_545 S
O102 Eu81 2.430 . S
O102 C88 1.259 . S
O103 Eu81 2.670 . S
O103 C88 1.270 . S
O103 Eu91 2.355 . S
O104 Eu81 2.394 . S
O104 C89 1.251 . S
O105 C89 1.251 . S
O105 Eu91 2.374 . S
O106 C90 1.257 . S
O106 Eu91 2.473 . S
O107 C90 1.260 1_556 S
O107 Eu91 2.480 1_556 S
O108 Eu91 2.430 1_556 S
O108 C98 1.259 . S
O109 Eu81 2.355 . S
O109 Eu91 2.670 . S
O109 C98 1.270 1_554 S
O110 Eu91 2.394 . S
O110 C99 1.251 . S
O111 Eu81 2.374 . S
O111 C99 1.251 . S
H112 C83 0.931 . S
H113 C84 0.931 1_455 S
H114 C86 0.931 1_455 S
H115 C87 0.931 . S
H116 C93 0.931 . S
H117 C94 0.931 . S
H118 C96 0.931 . S
H119 C97 0.931 . S
C120 Eu121 2.835 . S
C120 C122 1.500 . S
C120 O140 1.257 . S
C120 O141 1.260 . S
Eu121 C120 2.835 . S
Eu121 O140 2.473 . S
Eu121 O141 2.480 . S
Eu121 O142 2.430 . S
Eu121 O143 2.670 . S
Eu121 O144 2.394 . S
Eu121 O149 2.355 . S
Eu121 O151 2.374 . S
C122 C120 1.500 . S
C122 C123 1.377 . S
C122 C127 1.377 . S
C123 C122 1.377 . S
C123 C124 1.395 . S
C123 H152 0.931 . S
C124 C123 1.395 . S
C124 C125 1.383 1_565 S
C124 H153 0.931 1_565 S
C125 C124 1.383 1_545 S
C125 C126 1.394 1_545 S
C126 C125 1.394 1_565 S
C126 C127 1.378 . S
C126 H154 0.931 1_565 S
C127 C122 1.377 . S
C127 C126 1.378 . S
C127 H155 0.931 . S
C128 O142 1.259 . S
C128 O143 1.270 . S
C129 O144 1.251 . S
C129 O145 1.251 . S
C130 Eu131 2.835 . S
C130 C132 1.500 . S
C130 O146 1.257 . S
C130 O147 1.260 . S
Eu131 C130 2.835 . S
Eu131 O143 2.355 . S
Eu131 O145 2.374 . S
Eu131 O146 2.473 . S
Eu131 O147 2.480 . S
Eu131 O148 2.430 . S
Eu131 O149 2.670 . S
Eu131 O150 2.394 . S
C132 C130 1.500 . S
C132 C133 1.377 . S
C132 C137 1.377 . S
C133 C132 1.377 . S
C133 C134 1.395 . S
C133 H156 0.931 . S
C134 C133 1.395 . S
C134 C135 1.383 . S
C134 H157 0.931 . S
C135 C134 1.383 . S
C135 C136 1.394 . S
C136 C135 1.394 . S
C136 C137 1.378 . S
C136 H158 0.931 . S
C137 C132 1.377 . S
C137 C136 1.378 . S
C137 H159 0.931 . S
C138 O148 1.259 . S
C138 O149 1.270 . S
C139 O150 1.251 . S
C139 O151 1.251 . S
O140 C120 1.257 . S
O140 Eu121 2.473 . S
O141 C120 1.260 . S
O141 Eu121 2.480 . S
O142 Eu121 2.430 . S
O142 C128 1.259 . S
O143 Eu121 2.670 . S
O143 C128 1.270 . S
O143 Eu131 2.355 . S
O144 Eu121 2.394 . S
O144 C129 1.251 . S
O145 C129 1.251 . S
O145 Eu131 2.374 . S
O146 C130 1.257 . S
O146 Eu131 2.473 . S
O147 C130 1.260 . S
O147 Eu131 2.480 . S
O148 Eu131 2.430 . S
O148 C138 1.259 . S
O149 Eu121 2.355 . S
O149 Eu131 2.670 . S
O149 C138 1.270 . S
O150 Eu131 2.394 . S
O150 C139 1.251 . S
O151 Eu121 2.374 . S
O151 C139 1.251 . S
H152 C123 0.931 . S
H153 C124 0.931 1_545 S
H154 C126 0.931 1_545 S
H155 C127 0.931 . S
H156 C133 0.931 . S
H157 C134 0.931 . S
H158 C136 0.931 . S
H159 C137 0.931 . S
C160 Eu161 2.835 1_655 S
C160 C162 1.500 . S
C160 O180 1.257 . S
C160 O181 1.260 . S
Eu161 C160 2.835 1_455 S
Eu161 O180 2.473 1_455 S
Eu161 O181 2.480 1_455 S
Eu161 O182 2.430 . S
Eu161 O183 2.670 . S
Eu161 O184 2.394 . S
Eu161 O189 2.355 . S
Eu161 O191 2.374 . S
C162 C160 1.500 . S
C162 C163 1.377 . S
C162 C167 1.377 . S
C163 C162 1.377 . S
C163 C164 1.395 . S
C163 H192 0.931 . S
C164 C163 1.395 . S
C164 C165 1.383 . S
C164 H193 0.931 . S
C165 C164 1.383 . S
C165 C166 1.394 . S
C166 C165 1.394 . S
C166 C167 1.378 . S
C166 H194 0.931 . S
C167 C162 1.377 . S
C167 C166 1.378 . S
C167 H195 0.931 . S
C168 O182 1.259 . S
C168 O183 1.270 . S
C169 O184 1.251 . S
C169 O185 1.251 . S
C170 Eu171 2.835 . S
C170 C172 1.500 . S
C170 O186 1.257 . S
C170 O187 1.260 1_554 S
Eu171 C170 2.835 . S
Eu171 O183 2.355 . S
Eu171 O185 2.374 . S
Eu171 O186 2.473 . S
Eu171 O187 2.480 1_554 S
Eu171 O188 2.430 1_554 S
Eu171 O189 2.670 . S
Eu171 O190 2.394 . S
C172 C170 1.500 . S
C172 C173 1.377 1_554 S
C172 C177 1.377 . S
C173 C172 1.377 1_556 S
C173 C174 1.395 . S
C173 H196 0.931 . S
C174 C173 1.395 . S
C174 C175 1.383 1_556 S
C174 H197 0.931 . S
C175 C174 1.383 1_554 S
C175 C176 1.394 . S
C176 C175 1.394 . S
C176 C177 1.378 . S
C176 H198 0.931 . S
C177 C172 1.377 . S
C177 C176 1.378 . S
C177 H199 0.931 . S
C178 O188 1.259 . S
C178 O189 1.270 1_556 S
C179 O190 1.251 . S
C179 O191 1.251 . S
O180 C160 1.257 . S
O180 Eu161 2.473 1_655 S
O181 C160 1.260 . S
O181 Eu161 2.480 1_655 S
O182 Eu161 2.430 . S
O182 C168 1.259 . S
O183 Eu161 2.670 . S
O183 C168 1.270 . S
O183 Eu171 2.355 . S
O184 Eu161 2.394 . S
O184 C169 1.251 . S
O185 C169 1.251 . S
O185 Eu171 2.374 . S
O186 C170 1.257 . S
O186 Eu171 2.473 . S
O187 C170 1.260 1_556 S
O187 Eu171 2.480 1_556 S
O188 Eu171 2.430 1_556 S
O188 C178 1.259 . S
O189 Eu161 2.355 . S
O189 Eu171 2.670 . S
O189 C178 1.270 1_554 S
O190 Eu171 2.394 . S
O190 C179 1.251 . S
O191 Eu161 2.374 . S
O191 C179 1.251 . S
H192 C163 0.931 . S
H193 C164 0.931 . S
H194 C166 0.931 . S
H195 C167 0.931 . S
H196 C173 0.931 . S
H197 C174 0.931 . S
H198 C176 0.931 . S
H199 C177 0.931 . S
C200 Eu201 2.835 1_565 S
C200 C202 1.500 . S
C200 O220 1.257 . S
C200 O221 1.260 . S
Eu201 C200 2.835 1_545 S
Eu201 O220 2.473 1_545 S
Eu201 O221 2.480 1_545 S
Eu201 O222 2.430 . S
Eu201 O223 2.670 . S
Eu201 O224 2.394 . S
Eu201 O229 2.355 . S
Eu201 O231 2.374 . S
C202 C200 1.500 . S
C202 C203 1.377 . S
C202 C207 1.377 . S
C203 C202 1.377 . S
C203 C204 1.395 . S
C203 H232 0.931 . S
C204 C203 1.395 . S
C204 C205 1.383 1_455 S
C204 H233 0.931 1_455 S
C205 C204 1.383 1_655 S
C205 C206 1.394 1_655 S
C206 C205 1.394 1_455 S
C206 C207 1.378 . S
C206 H234 0.931 1_455 S
C207 C202 1.377 . S
C207 C206 1.378 . S
C207 H235 0.931 . S
C208 O222 1.259 . S
C208 O223 1.270 . S
C209 O224 1.251 . S
C209 O225 1.251 . S
C210 Eu211 2.835 . S
C210 C212 1.500 . S
C210 O226 1.257 . S
C210 O227 1.260 . S
Eu211 C210 2.835 . S
Eu211 O223 2.355 . S
Eu211 O225 2.374 . S
Eu211 O226 2.473 . S
Eu211 O227 2.480 . S
Eu211 O228 2.430 . S
Eu211 O229 2.670 . S
Eu211 O230 2.394 . S
C212 C210 1.500 . S
C212 C213 1.377 . S
C212 C217 1.377 . S
C213 C212 1.377 . S
C213 C214 1.395 . S
C213 H236 0.931 . S
C214 C213 1.395 . S
C214 C215 1.383 . S
C214 H237 0.931 . S
C215 C214 1.383 . S
C215 C216 1.394 . S
C216 C215 1.394 . S
C216 C217 1.378 . S
C216 H238 0.931 . S
C217 C212 1.377 . S
C217 C216 1.378 . S
C217 H239 0.931 . S
C218 O228 1.259 . S
C218 O229 1.270 . S
C219 O230 1.251 . S
C219 O231 1.251 . S
O220 C200 1.257 . S
O220 Eu201 2.473 1_565 S
O221 C200 1.260 . S
O221 Eu201 2.480 1_565 S
O222 Eu201 2.430 . S
O222 C208 1.259 . S
O223 Eu201 2.670 . S
O223 C208 1.270 . S
O223 Eu211 2.355 . S
O224 Eu201 2.394 . S
O224 C209 1.251 . S
O225 C209 1.251 . S
O225 Eu211 2.374 . S
O226 C210 1.257 . S
O226 Eu211 2.473 . S
O227 C210 1.260 . S
O227 Eu211 2.480 . S
O228 Eu211 2.430 . S
O228 C218 1.259 . S
O229 Eu201 2.355 . S
O229 Eu211 2.670 . S
O229 C218 1.270 . S
O230 Eu211 2.394 . S
O230 C219 1.251 . S
O231 Eu201 2.374 . S
O231 C219 1.251 . S
H232 C203 0.931 . S
H233 C204 0.931 1_655 S
H234 C206 0.931 1_655 S
H235 C207 0.931 . S
H236 C213 0.931 . S
H237 C214 0.931 . S
H238 C216 0.931 . S
H239 C217 0.931 . S
C240 Eu241 2.835 . S
C240 C242 1.500 . S
C240 O260 1.257 . S
C240 O261 1.260 . S
Eu241 C240 2.835 . S
Eu241 O260 2.473 . S
Eu241 O261 2.480 . S
Eu241 O262 2.430 . S
Eu241 O263 2.670 . S
Eu241 O264 2.394 . S
Eu241 O269 2.355 . S
Eu241 O271 2.374 . S
C242 C240 1.500 . S
C242 C243 1.377 . S
C242 C247 1.377 . S
C243 C242 1.377 . S
C243 C244 1.395 . S
C243 H272 0.931 . S
C244 C243 1.395 . S
C244 C245 1.383 1_655 S
C244 H273 0.931 1_655 S
C245 C244 1.383 1_455 S
C245 C246 1.394 1_455 S
C246 C245 1.394 1_655 S
C246 C247 1.378 . S
C246 H274 0.931 1_655 S
C247 C242 1.377 . S
C247 C246 1.378 . S
C247 H275 0.931 . S
C248 O262 1.259 . S
C248 O263 1.270 . S
C249 O264 1.251 . S
C249 O265 1.251 . S
C250 Eu251 2.835 . S
C250 C252 1.500 . S
C250 O266 1.257 . S
C250 O267 1.260 . S
Eu251 C250 2.835 . S
Eu251 O263 2.355 . S
Eu251 O265 2.374 . S
Eu251 O266 2.473 . S
Eu251 O267 2.480 . S
Eu251 O268 2.430 . S
Eu251 O269 2.670 . S
Eu251 O270 2.394 . S
C252 C250 1.500 . S
C252 C253 1.377 . S
C252 C257 1.377 . S
C253 C252 1.377 . S
C253 C254 1.395 . S
C253 H276 0.931 . S
C254 C253 1.395 . S
C254 C255 1.383 . S
C254 H277 0.931 . S
C255 C254 1.383 . S
C255 C256 1.394 . S
C256 C255 1.394 . S
C256 C257 1.378 . S
C256 H278 0.931 . S
C257 C252 1.377 . S
C257 C256 1.378 . S
C257 H279 0.931 . S
C258 O268 1.259 . S
C258 O269 1.270 . S
C259 O270 1.251 . S
C259 O271 1.251 . S
O260 C240 1.257 . S
O260 Eu241 2.473 . S
O261 C240 1.260 . S
O261 Eu241 2.480 . S
O262 Eu241 2.430 . S
O262 C248 1.259 . S
O263 Eu241 2.670 . S
O263 C248 1.270 . S
O263 Eu251 2.355 . S
O264 Eu241 2.394 . S
O264 C249 1.251 . S
O265 C249 1.251 . S
O265 Eu251 2.374 . S
O266 C250 1.257 . S
O266 Eu251 2.473 . S
O267 C250 1.260 . S
O267 Eu251 2.480 . S
O268 Eu251 2.430 . S
O268 C258 1.259 . S
O269 Eu241 2.355 . S
O269 Eu251 2.670 . S
O269 C258 1.270 . S
O270 Eu251 2.394 . S
O270 C259 1.251 . S
O271 Eu241 2.374 . S
O271 C259 1.251 . S
H272 C243 0.931 . S
H273 C244 0.931 1_455 S
H274 C246 0.931 1_455 S
H275 C247 0.931 . S
H276 C253 0.931 . S
H277 C254 0.931 . S
H278 C256 0.931 . S
H279 C257 0.931 . S
C280 Eu281 2.835 1_455 S
C280 C282 1.500 . S
C280 O300 1.257 . S
C280 O301 1.260 . S
Eu281 C280 2.835 1_655 S
Eu281 O300 2.473 1_655 S
Eu281 O301 2.480 1_655 S
Eu281 O302 2.430 . S
Eu281 O303 2.670 . S
Eu281 O304 2.394 . S
Eu281 O309 2.355 . S
Eu281 O311 2.374 . S
C282 C280 1.500 . S
C282 C283 1.377 . S
C282 C287 1.377 . S
C283 C282 1.377 . S
C283 C284 1.395 . S
C283 H312 0.931 . S
C284 C283 1.395 . S
C284 C285 1.383 1_565 S
C284 H313 0.931 1_565 S
C285 C284 1.383 1_545 S
C285 C286 1.394 1_545 S
C286 C285 1.394 1_565 S
C286 C287 1.378 . S
C286 H314 0.931 1_565 S
C287 C282 1.377 . S
C287 C286 1.378 . S
C287 H315 0.931 . S
C288 O302 1.259 . S
C288 O303 1.270 . S
C289 O304 1.251 . S
C289 O305 1.251 . S
C290 Eu291 2.835 . S
C290 C292 1.500 . S
C290 O306 1.257 . S
C290 O307 1.260 1_556 S
Eu291 C290 2.835 . S
Eu291 O303 2.355 . S
Eu291 O305 2.374 . S
Eu291 O306 2.473 . S
Eu291 O307 2.480 1_556 S
Eu291 O308 2.430 1_556 S
Eu291 O309 2.670 . S
Eu291 O310 2.394 . S
C292 C290 1.500 . S
C292 C293 1.377 1_556 S
C292 C297 1.377 . S
C293 C292 1.377 1_554 S
C293 C294 1.395 . S
C293 H316 0.931 . S
C294 C293 1.395 . S
C294 C295 1.383 1_554 S
C294 H317 0.931 . S
C295 C294 1.383 1_556 S
C295 C296 1.394 . S
C296 C295 1.394 . S
C296 C297 1.378 . S
C296 H318 0.931 . S
C297 C292 1.377 . S
C297 C296 1.378 . S
C297 H319 0.931 . S
C298 O308 1.259 . S
C298 O309 1.270 1_554 S
C299 O310 1.251 . S
C299 O311 1.251 . S
O300 C280 1.257 . S
O300 Eu281 2.473 1_455 S
O301 C280 1.260 . S
O301 Eu281 2.480 1_455 S
O302 Eu281 2.430 . S
O302 C288 1.259 . S
O303 Eu281 2.670 . S
O303 C288 1.270 . S
O303 Eu291 2.355 . S
O304 Eu281 2.394 . S
O304 C289 1.251 . S
O305 C289 1.251 . S
O305 Eu291 2.374 . S
O306 C290 1.257 . S
O306 Eu291 2.473 . S
O307 C290 1.260 1_554 S
O307 Eu291 2.480 1_554 S
O308 Eu291 2.430 1_554 S
O308 C298 1.259 . S
O309 Eu281 2.355 . S
O309 Eu291 2.670 . S
O309 C298 1.270 1_556 S
O310 Eu291 2.394 . S
O310 C299 1.251 . S
O311 Eu281 2.374 . S
O311 C299 1.251 . S
H312 C283 0.931 . S
H313 C284 0.931 1_545 S
H314 C286 0.931 1_545 S
H315 C287 0.931 . S
H316 C293 0.931 . S
H317 C294 0.931 . S
H318 C296 0.931 . S
H319 C297 0.931 . S
C320 Eu321 2.835 1_545 S
C320 C322 1.500 . S
C320 O340 1.257 . S
C320 O341 1.260 . S
Eu321 C320 2.835 1_565 S
Eu321 O340 2.473 1_565 S
Eu321 O341 2.480 1_565 S
Eu321 O342 2.430 . S
Eu321 O343 2.670 . S
Eu321 O344 2.394 . S
Eu321 O349 2.355 . S
Eu321 O351 2.374 . S
C322 C320 1.500 . S
C322 C323 1.377 . S
C322 C327 1.377 . S
C323 C322 1.377 . S
C323 C324 1.395 . S
C323 H352 0.931 . S
C324 C323 1.395 . S
C324 C325 1.383 . S
C324 H353 0.931 . S
C325 C324 1.383 . S
C325 C326 1.394 . S
C326 C325 1.394 . S
C326 C327 1.378 . S
C326 H354 0.931 . S
C327 C322 1.377 . S
C327 C326 1.378 . S
C327 H355 0.931 . S
C328 O342 1.259 . S
C328 O343 1.270 . S
C329 O344 1.251 . S
C329 O345 1.251 . S
C330 Eu331 2.835 . S
C330 C332 1.500 . S
C330 O346 1.257 . S
C330 O347 1.260 . S
Eu331 C330 2.835 . S
Eu331 O343 2.355 . S
Eu331 O345 2.374 . S
Eu331 O346 2.473 . S
Eu331 O347 2.480 . S
Eu331 O348 2.430 . S
Eu331 O349 2.670 . S
Eu331 O350 2.394 . S
C332 C330 1.500 . S
C332 C333 1.377 . S
C332 C337 1.377 . S
C333 C332 1.377 . S
C333 C334 1.395 . S
C333 H356 0.931 . S
C334 C333 1.395 . S
C334 C335 1.383 . S
C334 H357 0.931 . S
C335 C334 1.383 . S
C335 C336 1.394 . S
C336 C335 1.394 . S
C336 C337 1.378 . S
C336 H358 0.931 . S
C337 C332 1.377 . S
C337 C336 1.378 . S
C337 H359 0.931 . S
C338 O348 1.259 . S
C338 O349 1.270 . S
C339 O350 1.251 . S
C339 O351 1.251 . S
O340 C320 1.257 . S
O340 Eu321 2.473 1_545 S
O341 C320 1.260 . S
O341 Eu321 2.480 1_545 S
O342 Eu321 2.430 . S
O342 C328 1.259 . S
O343 Eu321 2.670 . S
O343 C328 1.270 . S
O343 Eu331 2.355 . S
O344 Eu321 2.394 . S
O344 C329 1.251 . S
O345 C329 1.251 . S
O345 Eu331 2.374 . S
O346 C330 1.257 . S
O346 Eu331 2.473 . S
O347 C330 1.260 . S
O347 Eu331 2.480 . S
O348 Eu331 2.430 . S
O348 C338 1.259 . S
O349 Eu321 2.355 . S
O349 Eu331 2.670 . S
O349 C338 1.270 . S
O350 Eu331 2.394 . S
O350 C339 1.251 . S
O351 Eu321 2.374 . S
O351 C339 1.251 . S
H352 C323 0.931 . S
H353 C324 0.931 . S
H354 C326 0.931 . S
H355 C327 0.931 . S
H356 C333 0.931 . S
H357 C334 0.931 . S
H358 C336 0.931 . S
H359 C337 0.931 . S
C360 Eu361 2.835 . S
C360 C362 1.500 . S
C360 O380 1.257 . S
C360 O381 1.260 . S
Eu361 C360 2.835 . S
Eu361 O380 2.473 . S
Eu361 O381 2.480 . S
Eu361 O382 2.430 . S
Eu361 O383 2.670 . S
Eu361 O384 2.394 . S
Eu361 O389 2.355 . S
Eu361 O391 2.374 . S
C362 C360 1.500 . S
C362 C363 1.377 . S
C362 C367 1.377 . S
C363 C362 1.377 . S
C363 C364 1.395 . S
C363 H392 0.931 . S
C364 C363 1.395 . S
C364 C365 1.383 1_455 S
C364 H393 0.931 1_455 S
C365 C364 1.383 1_655 S
C365 C366 1.394 1_655 S
C366 C365 1.394 1_455 S
C366 C367 1.378 . S
C366 H394 0.931 1_455 S
C367 C362 1.377 . S
C367 C366 1.378 . S
C367 H395 0.931 . S
C368 O382 1.259 . S
C368 O383 1.270 . S
C369 O384 1.251 . S
C369 O385 1.251 . S
C370 Eu371 2.835 . S
C370 C372 1.500 . S
C370 O386 1.257 . S
C370 O387 1.260 1_556 S
Eu371 C370 2.835 . S
Eu371 O383 2.355 . S
Eu371 O385 2.374 . S
Eu371 O386 2.473 . S
Eu371 O387 2.480 1_556 S
Eu371 O388 2.430 1_556 S
Eu371 O389 2.670 . S
Eu371 O390 2.394 . S
C372 C370 1.500 . S
C372 C373 1.377 1_556 S
C372 C377 1.377 . S
C373 C372 1.377 1_554 S
C373 C374 1.395 . S
C373 H396 0.931 . S
C374 C373 1.395 . S
C374 C375 1.383 1_554 S
C374 H397 0.931 . S
C375 C374 1.383 1_556 S
C375 C376 1.394 . S
C376 C375 1.394 . S
C376 C377 1.378 . S
C376 H398 0.931 . S
C377 C372 1.377 . S
C377 C376 1.378 . S
C377 H399 0.931 . S
C378 O388 1.259 . S
C378 O389 1.270 1_554 S
C379 O390 1.251 . S
C379 O391 1.251 . S
O380 C360 1.257 . S
O380 Eu361 2.473 . S
O381 C360 1.260 . S
O381 Eu361 2.480 . S
O382 Eu361 2.430 . S
O382 C368 1.259 . S
O383 Eu361 2.670 . S
O383 C368 1.270 . S
O383 Eu371 2.355 . S
O384 Eu361 2.394 . S
O384 C369 1.251 . S
O385 C369 1.251 . S
O385 Eu371 2.374 . S
O386 C370 1.257 . S
O386 Eu371 2.473 . S
O387 C370 1.260 1_554 S
O387 Eu371 2.480 1_554 S
O388 Eu371 2.430 1_554 S
O388 C378 1.259 . S
O389 Eu361 2.355 . S
O389 Eu371 2.670 . S
O389 C378 1.270 1_556 S
O390 Eu371 2.394 . S
O390 C379 1.251 . S
O391 Eu361 2.374 . S
O391 C379 1.251 . S
H392 C363 0.931 . S
H393 C364 0.931 1_655 S
H394 C366 0.931 1_655 S
H395 C367 0.931 . S
H396 C373 0.931 . S
H397 C374 0.931 . S
H398 C376 0.931 . S
H399 C377 0.931 . S
C400 Eu401 2.835 1_655 S
C400 C402 1.500 . S
C400 O420 1.257 . S
C400 O421 1.260 . S
Eu401 C400 2.835 1_455 S
Eu401 O420 2.473 1_455 S
Eu401 O421 2.480 1_455 S
Eu401 O422 2.430 . S
Eu401 O423 2.670 . S
Eu401 O424 2.394 . S
Eu401 O429 2.355 . S
Eu401 O431 2.374 . S
C402 C400 1.500 . S
C402 C403 1.377 . S
C402 C407 1.377 . S
C403 C402 1.377 . S
C403 C404 1.395 . S
C403 H432 0.931 . S
C404 C403 1.395 . S
C404 C405 1.383 1_545 S
C404 H433 0.931 1_545 S
C405 C404 1.383 1_565 S
C405 C406 1.394 1_565 S
C406 C405 1.394 1_545 S
C406 C407 1.378 . S
C406 H434 0.931 1_545 S
C407 C402 1.377 . S
C407 C406 1.378 . S
C407 H435 0.931 . S
C408 O422 1.259 . S
C408 O423 1.270 . S
C409 O424 1.251 . S
C409 O425 1.251 . S
C410 Eu411 2.835 . S
C410 C412 1.500 . S
C410 O426 1.257 . S
C410 O427 1.260 . S
Eu411 C410 2.835 . S
Eu411 O423 2.355 . S
Eu411 O425 2.374 . S
Eu411 O426 2.473 . S
Eu411 O427 2.480 . S
Eu411 O428 2.430 . S
Eu411 O429 2.670 . S
Eu411 O430 2.394 . S
C412 C410 1.500 . S
C412 C413 1.377 . S
C412 C417 1.377 . S
C413 C412 1.377 . S
C413 C414 1.395 . S
C413 H436 0.931 . S
C414 C413 1.395 . S
C414 C415 1.383 . S
C414 H437 0.931 . S
C415 C414 1.383 . S
C415 C416 1.394 . S
C416 C415 1.394 . S
C416 C417 1.378 . S
C416 H438 0.931 . S
C417 C412 1.377 . S
C417 C416 1.378 . S
C417 H439 0.931 . S
C418 O428 1.259 . S
C418 O429 1.270 . S
C419 O430 1.251 . S
C419 O431 1.251 . S
O420 C400 1.257 . S
O420 Eu401 2.473 1_655 S
O421 C400 1.260 . S
O421 Eu401 2.480 1_655 S
O422 Eu401 2.430 . S
O422 C408 1.259 . S
O423 Eu401 2.670 . S
O423 C408 1.270 . S
O423 Eu411 2.355 . S
O424 Eu401 2.394 . S
O424 C409 1.251 . S
O425 C409 1.251 . S
O425 Eu411 2.374 . S
O426 C410 1.257 . S
O426 Eu411 2.473 . S
O427 C410 1.260 . S
O427 Eu411 2.480 . S
O428 Eu411 2.430 . S
O428 C418 1.259 . S
O429 Eu401 2.355 . S
O429 Eu411 2.670 . S
O429 C418 1.270 . S
O430 Eu411 2.394 . S
O430 C419 1.251 . S
O431 Eu401 2.374 . S
O431 C419 1.251 . S
H432 C403 0.931 . S
H433 C404 0.931 1_565 S
H434 C406 0.931 1_565 S
H435 C407 0.931 . S
H436 C413 0.931 . S
H437 C414 0.931 . S
H438 C416 0.931 . S
H439 C417 0.931 . S
C440 Eu441 2.835 1_565 S
C440 C442 1.500 . S
C440 O460 1.257 . S
C440 O461 1.260 . S
Eu441 C440 2.835 1_545 S
Eu441 O460 2.473 1_545 S
Eu441 O461 2.480 1_545 S
Eu441 O462 2.430 . S
Eu441 O463 2.670 . S
Eu441 O464 2.394 . S
Eu441 O469 2.355 . S
Eu441 O471 2.374 . S
C442 C440 1.500 . S
C442 C443 1.377 . S
C442 C447 1.377 . S
C443 C442 1.377 . S
C443 C444 1.395 . S
C443 H472 0.931 . S
C444 C443 1.395 . S
C444 C445 1.383 . S
C444 H473 0.931 . S
C445 C444 1.383 . S
C445 C446 1.394 . S
C446 C445 1.394 . S
C446 C447 1.378 . S
C446 H474 0.931 . S
C447 C442 1.377 . S
C447 C446 1.378 . S
C447 H475 0.931 . S
C448 O462 1.259 . S
C448 O463 1.270 . S
C449 O464 1.251 . S
C449 O465 1.251 . S
C450 Eu451 2.835 . S
C450 C452 1.500 . S
C450 O466 1.257 . S
C450 O467 1.260 1_556 S
Eu451 C450 2.835 . S
Eu451 O463 2.355 . S
Eu451 O465 2.374 . S
Eu451 O466 2.473 . S
Eu451 O467 2.480 1_556 S
Eu451 O468 2.430 1_556 S
Eu451 O469 2.670 . S
Eu451 O470 2.394 . S
C452 C450 1.500 . S
C452 C453 1.377 1_556 S
C452 C457 1.377 . S
C453 C452 1.377 1_554 S
C453 C454 1.395 . S
C453 H476 0.931 . S
C454 C453 1.395 . S
C454 C455 1.383 1_554 S
C454 H477 0.931 . S
C455 C454 1.383 1_556 S
C455 C456 1.394 . S
C456 C455 1.394 . S
C456 C457 1.378 . S
C456 H478 0.931 . S
C457 C452 1.377 . S
C457 C456 1.378 . S
C457 H479 0.931 . S
C458 O468 1.259 . S
C458 O469 1.270 1_554 S
C459 O470 1.251 . S
C459 O471 1.251 . S
O460 C440 1.257 . S
O460 Eu441 2.473 1_565 S
O461 C440 1.260 . S
O461 Eu441 2.480 1_565 S
O462 Eu441 2.430 . S
O462 C448 1.259 . S
O463 Eu441 2.670 . S
O463 C448 1.270 . S
O463 Eu451 2.355 . S
O464 Eu441 2.394 . S
O464 C449 1.251 . S
O465 C449 1.251 . S
O465 Eu451 2.374 . S
O466 C450 1.257 . S
O466 Eu451 2.473 . S
O467 C450 1.260 1_554 S
O467 Eu451 2.480 1_554 S
O468 Eu451 2.430 1_554 S
O468 C458 1.259 . S
O469 Eu441 2.355 . S
O469 Eu451 2.670 . S
O469 C458 1.270 1_556 S
O470 Eu451 2.394 . S
O470 C459 1.251 . S
O471 Eu441 2.374 . S
O471 C459 1.251 . S
H472 C443 0.931 . S
H473 C444 0.931 . S
H474 C446 0.931 . S
H475 C447 0.931 . S
H476 C453 0.931 . S
H477 C454 0.931 . S
H478 C456 0.931 . S
H479 C457 0.931 . S
C169 C5 2.009 . S
C209 C45 2.009 . S
C85 C9 2.008 . S
C125 C49 2.009 . S
C165 C89 2.009 . S
C129 C205 2.008 . S
C329 C245 2.009 . S
C285 C369 2.008 . S
C409 C325 2.009 . S
C365 C449 2.009 . S
C405 C249 2.008 . S
C289 C445 2.009 . S
C179 C15 2.855 . S
C55 C219 2.856 . S
C95 C19 2.856 . S
C135 C59 2.855 . S
C99 C175 2.856 . S
C139 C215 2.856 . S
C339 C255 2.855 . S
C295 C379 2.856 . S
C335 C419 2.856 . S
C459 C375 2.855 . S
C415 C259 2.856 . S
C299 C455 2.856 . S
C408 C8 1.546 . S
C48 C448 1.547 . S
C88 C248 1.546 . S
C128 C288 1.546 . S
C168 C328 1.547 . S
C368 C208 1.546 . S
C378 C18 4.665 1_554 S
C418 C58 4.665 1_455 S
C98 C458 4.665 1_566 S
C138 C258 4.665 . S
C298 C178 4.665 1_654 S
C338 C218 4.665 1_565 S
