# Generated by pormake.
# Topology upc, (4)-cn, num edge types: 1
# Building blocks:
#     Node 0, Type 0, BuildingBlock: CEKHIL_clean_sbu_0, # of connection points: 4
#     Node 1, Type 0, BuildingBlock: CEKHIL_clean_sbu_0, # of connection points: 4
#     Node 2, Type 0, BuildingBlock: CEKHIL_clean_sbu_0, # of connection points: 4
#     Node 3, Type 0, BuildingBlock: CEKHIL_clean_sbu_0, # of connection points: 4
#     Node 4, Type 0, BuildingBlock: CEKHIL_clean_sbu_0, # of connection points: 4
#     Node 5, Type 0, BuildingBlock: CEKHIL_clean_sbu_0, # of connection points: 4
#     Node 6, Type 0, BuildingBlock: CEKHIL_clean_sbu_0, # of connection points: 4
#     Node 7, Type 0, BuildingBlock: CEKHIL_clean_sbu_0, # of connection points: 4
#     Node 8, Type 0, BuildingBlock: CEKHIL_clean_sbu_0, # of connection points: 4
#     Node 9, Type 0, BuildingBlock: CEKHIL_clean_sbu_0, # of connection points: 4
#     Node 10, Type 0, BuildingBlock: CEKHIL_clean_sbu_0, # of connection points: 4
#     Node 11, Type 0, BuildingBlock: CEKHIL_clean_sbu_0, # of connection points: 4
#     Node 12, Type 0, BuildingBlock: CEKHIL_clean_sbu_0, # of connection points: 4
#     Node 13, Type 0, BuildingBlock: CEKHIL_clean_sbu_0, # of connection points: 4
#     Node 14, Type 0, BuildingBlock: CEKHIL_clean_sbu_0, # of connection points: 4
#     Node 15, Type 0, BuildingBlock: CEKHIL_clean_sbu_0, # of connection points: 4
#     Edge 16, Type (0, 0), BuildingBlock: CIFDUS_clean_linker_0, # of connection points: 2
#     Edge 17, Type (0, 0), BuildingBlock: CIFDUS_clean_linker_0, # of connection points: 2
#     Edge 18, Type (0, 0), BuildingBlock: CIFDUS_clean_linker_0, # of connection points: 2
#     Edge 19, Type (0, 0), BuildingBlock: CIFDUS_clean_linker_0, # of connection points: 2
#     Edge 20, Type (0, 0), BuildingBlock: CIFDUS_clean_linker_0, # of connection points: 2
#     Edge 21, Type (0, 0), BuildingBlock: CIFDUS_clean_linker_0, # of connection points: 2
#     Edge 22, Type (0, 0), BuildingBlock: CIFDUS_clean_linker_0, # of connection points: 2
#     Edge 23, Type (0, 0), BuildingBlock: CIFDUS_clean_linker_0, # of connection points: 2
#     Edge 24, Type (0, 0), BuildingBlock: CIFDUS_clean_linker_0, # of connection points: 2
#     Edge 25, Type (0, 0), BuildingBlock: CIFDUS_clean_linker_0, # of connection points: 2
#     Edge 26, Type (0, 0), BuildingBlock: CIFDUS_clean_linker_0, # of connection points: 2
#     Edge 27, Type (0, 0), BuildingBlock: CIFDUS_clean_linker_0, # of connection points: 2
#     Edge 28, Type (0, 0), BuildingBlock: CIFDUS_clean_linker_0, # of connection points: 2
#     Edge 29, Type (0, 0), BuildingBlock: CIFDUS_clean_linker_0, # of connection points: 2
#     Edge 30, Type (0, 0), BuildingBlock: CIFDUS_clean_linker_0, # of connection points: 2
#     Edge 31, Type (0, 0), BuildingBlock: CIFDUS_clean_linker_0, # of connection points: 2
#     Edge 32, Type (0, 0), BuildingBlock: CIFDUS_clean_linker_0, # of connection points: 2
#     Edge 33, Type (0, 0), BuildingBlock: CIFDUS_clean_linker_0, # of connection points: 2
#     Edge 34, Type (0, 0), BuildingBlock: CIFDUS_clean_linker_0, # of connection points: 2
#     Edge 35, Type (0, 0), BuildingBlock: CIFDUS_clean_linker_0, # of connection points: 2
#     Edge 36, Type (0, 0), BuildingBlock: CIFDUS_clean_linker_0, # of connection points: 2
#     Edge 37, Type (0, 0), BuildingBlock: CIFDUS_clean_linker_0, # of connection points: 2
#     Edge 38, Type (0, 0), BuildingBlock: CIFDUS_clean_linker_0, # of connection points: 2
#     Edge 39, Type (0, 0), BuildingBlock: CIFDUS_clean_linker_0, # of connection points: 2
#     Edge 40, Type (0, 0), BuildingBlock: CIFDUS_clean_linker_0, # of connection points: 2
#     Edge 41, Type (0, 0), BuildingBlock: CIFDUS_clean_linker_0, # of connection points: 2
#     Edge 42, Type (0, 0), BuildingBlock: CIFDUS_clean_linker_0, # of connection points: 2
#     Edge 43, Type (0, 0), BuildingBlock: CIFDUS_clean_linker_0, # of connection points: 2
#     Edge 44, Type (0, 0), BuildingBlock: CIFDUS_clean_linker_0, # of connection points: 2
#     Edge 45, Type (0, 0), BuildingBlock: CIFDUS_clean_linker_0, # of connection points: 2
#     Edge 46, Type (0, 0), BuildingBlock: CIFDUS_clean_linker_0, # of connection points: 2
#     Edge 47, Type (0, 0), BuildingBlock: CIFDUS_clean_linker_0, # of connection points: 2
# Relax obj value: 0.268
# Max RMSD: 0.291
# Mean RMSD: 0.291
data_MOF--net-upc--node1-CEKHIL_clean_sbu_0--edge1-CIFDUS_clean_linker_0
_symmetry_space_group_name_H-M    P1
_symmetry_Int_Tables_number       1
_symmetry_cell_setting            triclinic
loop_
_symmetry_equiv_pos_as_xyz
'x, y, z'
_cell_length_a     29.018714
_cell_length_b     28.975963
_cell_length_c     38.084854
_cell_angle_alpha  89.9798
_cell_angle_beta   90.102666
_cell_angle_gamma 90.164328
loop_
_atom_site_label
_atom_site_type_symbol
_atom_site_fract_x
_atom_site_fract_y
_atom_site_fract_z
_atom_type_partial_charge
Co0 Co 0.09373 0.59754 0.11992 0.0
O1 O 0.0935 0.55931 0.07837 0.0
O2 O 0.03136 0.5867 0.10478 0.0
C3 C 0.14824 0.64996 0.10471 0.0
O4 O 0.07952 0.63948 0.16088 0.0
Co5 Co 0.17952 0.59966 0.16834 0.0
O6 O 0.14509 0.64968 0.19173 0.0
C7 C 0.11327 0.52411 0.17709 0.0
C8 C 0.04882 0.56276 0.07925 0.0
C9 C 0.10285 0.65841 0.1856 0.0
O10 O 0.08963 0.54112 0.15152 0.0
O11 O 0.15159 0.54138 0.18736 0.0
O12 O 0.10663 0.65254 0.09232 0.0
O13 O 0.15778 0.61158 0.1208 0.0
Co14 Co 0.91642 0.1278 0.11976 0.0
O15 O 0.95853 0.123 0.08095 0.0
O16 O 0.92136 0.06439 0.10559 0.0
C17 C 0.87377 0.1879 0.10014 0.0
O18 O 0.86885 0.11872 0.15795 0.0
Co19 Co 0.91634 0.21179 0.16881 0.0
O20 O 0.8527 0.18982 0.17767 0.0
C21 C 0.98428 0.13904 0.1818 0.0
C22 C 0.9497 0.07897 0.08165 0.0
C23 C 0.84262 0.14736 0.17385 0.0
O24 O 0.96848 0.11807 0.15451 0.0
O25 O 0.96859 0.17788 0.19232 0.0
O26 O 0.86698 0.14639 0.08841 0.0
O27 O 0.91035 0.19309 0.11965 0.0
Co28 Co 0.39037 0.90758 0.12117 0.0
O29 O 0.38864 0.9459 0.07963 0.0
O30 O 0.45187 0.91889 0.10502 0.0
C31 C 0.3358 0.85472 0.10686 0.0
O32 O 0.40726 0.86581 0.16145 0.0
Co33 Co 0.30748 0.90295 0.1719 0.0
O34 O 0.34428 0.85403 0.19471 0.0
C35 C 0.37324 0.97931 0.17976 0.0
C36 C 0.43338 0.94254 0.07974 0.0
C37 C 0.38626 0.84645 0.18704 0.0
O38 O 0.39527 0.96378 0.15291 0.0
O39 O 0.33609 0.96082 0.19116 0.0
O40 O 0.37697 0.85261 0.09372 0.0
O41 O 0.32648 0.89274 0.12348 0.0
Co42 Co 0.59691 0.39833 0.10989 0.0
O43 O 0.55626 0.39962 0.06989 0.0
O44 O 0.58935 0.46091 0.09414 0.0
C45 C 0.64354 0.33979 0.09313 0.0
O46 O 0.64208 0.41124 0.14896 0.0
Co47 Co 0.59841 0.31397 0.1597 0.0
O48 O 0.65542 0.34408 0.17688 0.0
C49 C 0.52728 0.38449 0.17034 0.0
C50 C 0.56279 0.44405 0.0698 0.0
C51 C 0.66444 0.38635 0.17084 0.0
O52 O 0.54308 0.40641 0.14343 0.0
O53 O 0.5437 0.34591 0.1808 0.0
O54 O 0.64909 0.38105 0.08052 0.0
O55 O 0.60612 0.33364 0.11121 0.0
Co56 Co 0.12597 0.91886 0.37877 0.0
O57 O 0.13367 0.95911 0.41875 0.0
O58 O 0.0676 0.92798 0.40138 0.0
C59 C 0.1852 0.86984 0.38889 0.0
O60 O 0.1043 0.87432 0.34142 0.0
Co61 Co 0.19974 0.91587 0.32041 0.0
O62 O 0.16281 0.86271 0.3037 0.0
C63 C 0.13091 0.98994 0.3182 0.0
C64 C 0.08971 0.95349 0.42387 0.0
C65 C 0.12259 0.85375 0.31518 0.0
O66 O 0.11305 0.97351 0.34659 0.0
O67 O 0.16719 0.97308 0.30418 0.0
O68 O 0.14666 0.86577 0.40582 0.0
O69 O 0.18946 0.90736 0.37048 0.0
Co70 Co 0.59624 0.09804 0.37189 0.0
O71 O 0.56438 0.09568 0.41584 0.0
O72 O 0.58637 0.03452 0.3852 0.0
C73 C 0.6511 0.15068 0.38579 0.0
O74 O 0.6313 0.08748 0.3268 0.0
Co75 Co 0.59058 0.18921 0.32963 0.0
O76 O 0.6358 0.15674 0.30007 0.0
C77 C 0.51659 0.12122 0.32088 0.0
C78 C 0.56651 0.05108 0.41307 0.0
C79 C 0.64542 0.11392 0.30202 0.0
O80 O 0.53587 0.09657 0.34487 0.0
O81 O 0.53231 0.16047 0.31119 0.0
O82 O 0.65497 0.1079 0.39537 0.0
O83 O 0.6108 0.16195 0.37362 0.0
Co84 Co 0.38525 0.5843 0.37789 0.0
O85 O 0.37887 0.5414 0.41633 0.0
O86 O 0.44438 0.57382 0.39927 0.0
C87 C 0.32597 0.63228 0.39041 0.0
O88 O 0.40562 0.63112 0.34189 0.0
Co89 Co 0.30892 0.59043 0.32099 0.0
O90 O 0.34558 0.64445 0.30572 0.0
C91 C 0.37911 0.51812 0.31434 0.0
C92 C 0.42301 0.54651 0.4209 0.0
C93 C 0.38622 0.6529 0.31667 0.0
O94 O 0.39741 0.53206 0.34338 0.0
O95 O 0.34233 0.53567 0.30155 0.0
O96 O 0.36486 0.63566 0.4071 0.0
O97 O 0.32162 0.59584 0.3709 0.0
Co98 Co 0.90718 0.39353 0.37781 0.0
O99 O 0.94456 0.39295 0.41971 0.0
O100 O 0.91785 0.45565 0.39326 0.0
C101 C 0.85445 0.3391 0.3922 0.0
O102 O 0.86626 0.40861 0.33662 0.0
Co103 Co 0.90498 0.30824 0.32882 0.0
O104 O 0.85573 0.34355 0.30519 0.0
C105 C 0.97945 0.37594 0.31993 0.0
C106 C 0.941 0.43769 0.41904 0.0
C107 C 0.84754 0.38586 0.31157 0.0
O108 O 0.96372 0.39811 0.34664 0.0
O109 O 0.9617 0.33817 0.30888 0.0
O110 O 0.85194 0.38059 0.40484 0.0
O111 O 0.89291 0.3295 0.37638 0.0
Co112 Co 0.87838 0.40659 0.87587 0.0
O113 O 0.87879 0.44478 0.91743 0.0
O114 O 0.94038 0.4131 0.89314 0.0
C115 C 0.81905 0.35913 0.88935 0.0
O116 O 0.89232 0.36367 0.83549 0.0
Co117 Co 0.79593 0.40824 0.824 0.0
O118 O 0.82874 0.35586 0.80201 0.0
C119 C 0.86533 0.48175 0.81922 0.0
C120 C 0.92314 0.43837 0.918 0.0
C121 C 0.86998 0.34526 0.81003 0.0
O122 O 0.88766 0.46269 0.84465 0.0
O123 O 0.8266 0.46658 0.80796 0.0
O124 O 0.85962 0.35252 0.90287 0.0
O125 O 0.81393 0.39775 0.87258 0.0
Co126 Co 0.10026 0.89538 0.88436 0.0
O127 O 0.06237 0.8977 0.92593 0.0
O128 O 0.09273 0.95825 0.89873 0.0
C129 C 0.14924 0.83846 0.90047 0.0
O130 O 0.14193 0.90787 0.8431 0.0
Co131 Co 0.09877 0.80858 0.83641 0.0
O132 O 0.14249 0.84531 0.80803 0.0
C133 C 0.02571 0.87746 0.82787 0.0
C134 C 0.06821 0.94223 0.92448 0.0
C135 C 0.15489 0.88632 0.81552 0.0
O136 O 0.04407 0.90132 0.85281 0.0
O137 O 0.04111 0.83817 0.81818 0.0
O138 O 0.15434 0.88006 0.91248 0.0
O139 O 0.11106 0.83095 0.8836 0.0
Co140 Co 0.60263 0.0846 0.87123 0.0
O141 O 0.60072 0.04764 0.91317 0.0
O142 O 0.5401 0.08012 0.88782 0.0
C143 C 0.66265 0.131 0.88519 0.0
O144 O 0.59109 0.12676 0.82988 0.0
Co145 Co 0.68649 0.07779 0.82138 0.0
O146 O 0.65597 0.13014 0.79755 0.0
C147 C 0.61374 0.0078 0.8156 0.0
C148 C 0.5566 0.05528 0.9133 0.0
C149 C 0.61501 0.14291 0.8044 0.0
O150 O 0.5921 0.02808 0.84072 0.0
O151 O 0.65331 0.02104 0.80472 0.0
O152 O 0.62186 0.13868 0.89778 0.0
O153 O 0.66752 0.09176 0.86919 0.0
Co154 Co 0.41255 0.61105 0.86317 0.0
O155 O 0.45004 0.61241 0.90514 0.0
O156 O 0.4187 0.5498 0.88151 0.0
C157 C 0.36458 0.6705 0.87527 0.0
O158 O 0.37084 0.59497 0.82254 0.0
Co159 Co 0.41563 0.69118 0.80937 0.0
O160 O 0.37357 0.65121 0.78184 0.0
C161 C 0.48844 0.62163 0.80688 0.0
C162 C 0.44339 0.56797 0.90638 0.0
C163 C 0.35965 0.61207 0.79272 0.0
O164 O 0.46893 0.60059 0.83271 0.0
O165 O 0.47393 0.66 0.79461 0.0
O166 O 0.35846 0.63039 0.88966 0.0
O167 O 0.40294 0.67543 0.85814 0.0
Co168 Co 0.88618 0.07546 0.62102 0.0
O169 O 0.88248 0.03234 0.58279 0.0
O170 O 0.94674 0.06576 0.60155 0.0
C171 C 0.82725 0.12194 0.60561 0.0
O172 O 0.90286 0.12324 0.65784 0.0
Co173 Co 0.80576 0.07966 0.67446 0.0
O174 O 0.83928 0.13523 0.69055 0.0
C175 C 0.87661 0.00868 0.68386 0.0
C176 C 0.9266 0.0383 0.57926 0.0
C177 C 0.88049 0.14491 0.68171 0.0
O178 O 0.89684 0.02359 0.65596 0.0
O179 O 0.83864 0.02527 0.6952 0.0
O180 O 0.86718 0.12587 0.59065 0.0
O181 O 0.82202 0.08566 0.62522 0.0
Co182 Co 0.4021 0.88665 0.61354 0.0
O183 O 0.44382 0.88402 0.57421 0.0
O184 O 0.41657 0.948 0.59842 0.0
C185 C 0.34954 0.83362 0.59633 0.0
O186 O 0.35734 0.90398 0.65189 0.0
Co187 Co 0.3908 0.80332 0.6636 0.0
O188 O 0.33453 0.8374 0.67698 0.0
C189 C 0.46832 0.86666 0.67518 0.0
C190 C 0.44191 0.92889 0.57445 0.0
C191 C 0.33025 0.88052 0.67154 0.0
O192 O 0.45544 0.88942 0.64786 0.0
O193 O 0.44771 0.8302 0.6859 0.0
O194 O 0.34963 0.87489 0.58305 0.0
O195 O 0.38573 0.82339 0.61492 0.0
Co196 Co 0.62913 0.40717 0.61079 0.0
O197 O 0.63483 0.44898 0.5717 0.0
O198 O 0.56949 0.41736 0.58999 0.0
C199 C 0.68785 0.35915 0.59821 0.0
O200 O 0.60977 0.36118 0.64801 0.0
Co201 Co 0.70667 0.40238 0.66688 0.0
O202 O 0.67115 0.34798 0.68293 0.0
C203 C 0.63807 0.47618 0.67219 0.0
C204 C 0.59058 0.44407 0.56775 0.0
C205 C 0.63015 0.33939 0.67286 0.0
O206 O 0.61838 0.46051 0.64426 0.0
O207 O 0.67498 0.45894 0.68501 0.0
O208 O 0.64857 0.35522 0.58209 0.0
O209 O 0.69271 0.39601 0.61718 0.0
Co210 Co 0.08086 0.60713 0.62841 0.0
O211 O 0.04769 0.60655 0.58463 0.0
O212 O 0.06894 0.54442 0.61449 0.0
C213 C 0.13667 0.65836 0.61433 0.0
O214 O 0.11694 0.59342 0.67259 0.0
Co215 Co 0.08217 0.69526 0.67401 0.0
O216 O 0.1232 0.65852 0.70452 0.0
C217 C 0.00458 0.63108 0.68138 0.0
C218 C 0.04911 0.56181 0.5869 0.0
C219 C 0.13123 0.61588 0.69948 0.0
O220 O 0.02142 0.60693 0.65616 0.0
O221 O 0.023 0.66857 0.69227 0.0
O222 O 0.13896 0.61571 0.60422 0.0
O223 O 0.09749 0.67074 0.62785 0.0
H224 H 0.24267 0.65617 0.10886 0.0
H225 H 0.11955 0.73887 0.10449 0.0
H226 H 0.16552 0.80932 0.10728 0.0
H227 H 0.2414 0.84845 0.10917 0.0
H228 H 0.36467 0.76589 0.10755 0.0
H229 H 0.31864 0.69533 0.10895 0.0
C230 C 0.22603 0.68963 0.10859 0.0
C231 C 0.17771 0.69207 0.1065 0.0
C232 C 0.25291 0.73043 0.10903 0.0
C233 C 0.15669 0.73582 0.10591 0.0
C234 C 0.18299 0.77631 0.10756 0.0
C235 C 0.25805 0.81499 0.10926 0.0
C236 C 0.30641 0.81258 0.10831 0.0
C237 C 0.2312 0.77419 0.10886 0.0
C238 C 0.32748 0.76885 0.10811 0.0
C239 C 0.30116 0.72834 0.10895 0.0
H240 H 0.78274 0.1722 0.09019 0.0
H241 H 0.88114 0.28238 0.10441 0.0
H242 H 0.81865 0.33926 0.10064 0.0
H243 H 0.73554 0.35715 0.09416 0.0
H244 H 0.63685 0.24585 0.09078 0.0
H245 H 0.69984 0.1896 0.08933 0.0
C246 C 0.79064 0.20871 0.09226 0.0
C247 C 0.83668 0.22308 0.09724 0.0
C248 C 0.75433 0.24082 0.09208 0.0
C249 C 0.84609 0.27043 0.10053 0.0
C250 C 0.81034 0.30289 0.0984 0.0
C251 C 0.72789 0.32056 0.09331 0.0
C252 C 0.68158 0.30563 0.09234 0.0
C253 C 0.76427 0.28843 0.09438 0.0
C254 C 0.67213 0.25814 0.09142 0.0
C255 C 0.70815 0.22605 0.09055 0.0
H256 H 0.16447 0.77873 0.38969 0.0
H257 H 0.27933 0.87295 0.38378 0.0
H258 H 0.33309 0.8076 0.38492 0.0
H259 H 0.34704 0.72352 0.38981 0.0
H260 H 0.23196 0.62934 0.38732 0.0
H261 H 0.17831 0.69471 0.38733 0.0
C262 C 0.20128 0.78493 0.38839 0.0
C263 C 0.21799 0.83064 0.38709 0.0
C264 C 0.23173 0.74717 0.38778 0.0
C265 C 0.2657 0.83815 0.38495 0.0
C266 C 0.29637 0.80078 0.38571 0.0
C267 C 0.31021 0.71738 0.389 0.0
C268 C 0.29339 0.67167 0.38897 0.0
C269 C 0.27976 0.75516 0.38748 0.0
C270 C 0.24565 0.66416 0.38753 0.0
C271 C 0.21505 0.70153 0.38757 0.0
H272 H 0.84818 0.24554 0.38152 0.0
H273 H 0.76566 0.3671 0.39809 0.0
H274 H 0.69543 0.32097 0.39532 0.0
H275 H 0.65657 0.24517 0.39001 0.0
H276 H 0.73938 0.12304 0.37742 0.0
H277 H 0.80941 0.16974 0.37665 0.0
C278 C 0.81481 0.26182 0.38449 0.0
C279 C 0.8124 0.30967 0.39024 0.0
C280 C 0.7742 0.23482 0.38362 0.0
C281 C 0.76875 0.33024 0.39405 0.0
C282 C 0.72837 0.30388 0.39235 0.0
C283 C 0.68995 0.22895 0.38692 0.0
C284 C 0.69264 0.1807 0.38393 0.0
C285 C 0.73054 0.25603 0.38742 0.0
C286 C 0.73626 0.16012 0.38014 0.0
C287 C 0.77647 0.18681 0.37962 0.0
H288 H 0.83428 0.26659 0.88942 0.0
H289 H 0.72566 0.36769 0.88572 0.0
H290 H 0.66783 0.30589 0.88456 0.0
H291 H 0.64821 0.22319 0.88541 0.0
H292 H 0.75657 0.12178 0.88376 0.0
H293 H 0.81464 0.18354 0.88594 0.0
C294 C 0.79791 0.27503 0.88853 0.0
C295 C 0.78414 0.32167 0.88827 0.0
C296 C 0.76496 0.23927 0.88683 0.0
C297 C 0.73702 0.33212 0.88622 0.0
C298 C 0.70401 0.29679 0.88556 0.0
C299 C 0.68457 0.2146 0.88563 0.0
C300 C 0.69816 0.16794 0.885 0.0
C301 C 0.71757 0.25027 0.88602 0.0
C302 C 0.74532 0.15738 0.88443 0.0
C303 C 0.77845 0.19269 0.88576 0.0
H304 H 0.32909 0.72102 0.92851 0.0
H305 H 0.3116 0.69151 0.81854 0.0
H306 H 0.24061 0.73657 0.81725 0.0
H307 H 0.18268 0.78422 0.84778 0.0
H308 H 0.20454 0.82099 0.95611 0.0
H309 H 0.27384 0.77302 0.95807 0.0
C310 C 0.31006 0.72527 0.90419 0.0
C311 C 0.32598 0.70365 0.8735 0.0
C312 C 0.2695 0.75195 0.9036 0.0
C313 C 0.30073 0.70866 0.84226 0.0
C314 C 0.25976 0.73407 0.84164 0.0
C315 C 0.20239 0.78137 0.87183 0.0
C316 C 0.18808 0.80543 0.90195 0.0
C317 C 0.24359 0.75564 0.87221 0.0
C318 C 0.21458 0.80222 0.93276 0.0
C319 C 0.25437 0.77507 0.93381 0.0
H320 H 0.66634 0.26823 0.59729 0.0
H321 H 0.78154 0.362 0.60406 0.0
H322 H 0.83488 0.29645 0.6059 0.0
H323 H 0.84835 0.21256 0.60422 0.0
H324 H 0.73294 0.11875 0.60639 0.0
H325 H 0.67953 0.18425 0.60264 0.0
C326 C 0.70312 0.27424 0.59935 0.0
C327 C 0.72017 0.31981 0.60009 0.0
C328 C 0.73324 0.23644 0.60197 0.0
C329 C 0.76777 0.32723 0.6032 0.0
C330 C 0.79816 0.28979 0.60425 0.0
C331 C 0.81149 0.20651 0.60416 0.0
C332 C 0.79448 0.16097 0.60521 0.0
C333 C 0.78125 0.24429 0.60345 0.0
C334 C 0.74671 0.15352 0.60546 0.0
C335 C 0.71629 0.19092 0.60325 0.0
H336 H 0.14734 0.74951 0.59697 0.0
H337 H 0.22161 0.62997 0.63293 0.0
H338 H 0.29393 0.6731 0.63167 0.0
H339 H 0.33706 0.74447 0.61841 0.0
H340 H 0.26382 0.86185 0.57693 0.0
H341 H 0.19103 0.82025 0.58176 0.0
C342 C 0.17935 0.73326 0.60485 0.0
C343 C 0.17909 0.68686 0.61549 0.0
C344 C 0.22138 0.75779 0.60253 0.0
C345 C 0.22092 0.66581 0.62494 0.0
C346 C 0.26238 0.69039 0.62404 0.0
C347 C 0.3052 0.76078 0.61025 0.0
C348 C 0.30614 0.80619 0.59727 0.0
C349 C 0.26322 0.73629 0.61248 0.0
C350 C 0.26439 0.82678 0.58677 0.0
C351 C 0.22251 0.8031 0.58971 0.0
H352 H 0.98844 0.37271 0.24909 0.0
H353 H 0.04964 0.43226 0.34192 0.0
H354 H 0.10104 0.47905 0.30535 0.0
H355 H 0.12273 0.50897 0.24713 0.0
H356 H 0.05507 0.45572 0.15466 0.0
H357 H 0.01241 0.40033 0.19077 0.0
C358 C 0.0138 0.39511 0.26133 0.0
C359 C 0.01553 0.39861 0.29824 0.0
C360 C 0.04177 0.42344 0.2401 0.0
C361 C 0.04778 0.42873 0.31363 0.0
C362 C 0.07703 0.45563 0.2927 0.0
C363 C 0.09939 0.48455 0.23479 0.0
C364 C 0.09238 0.48626 0.19816 0.0
C365 C 0.07354 0.45413 0.25591 0.0
C366 C 0.0612 0.45507 0.18272 0.0
C367 C 0.0367 0.42348 0.2034 0.0
H368 H 0.99355 0.13699 0.25317 0.0
H369 H 0.05458 0.08604 0.15765 0.0
H370 H 0.10871 0.0395 0.19173 0.0
H371 H 0.13448 0.00831 0.24825 0.0
H372 H 0.06885 0.0529 0.3439 0.0
H373 H 0.0211 0.10692 0.3104 0.0
C374 C 0.01929 0.11631 0.2399 0.0
C375 C 0.02026 0.11526 0.20288 0.0
C376 C 0.04926 0.08815 0.25974 0.0
C377 C 0.05316 0.08753 0.18605 0.0
C378 C 0.08407 0.06083 0.20555 0.0
C379 C 0.11034 0.0304 0.26194 0.0
C380 C 0.1056 0.02665 0.29868 0.0
C381 C 0.08186 0.06015 0.24237 0.0
C382 C 0.07337 0.05504 0.31572 0.0
C383 C 0.04595 0.0859 0.29652 0.0
H384 H 0.50157 0.12878 0.25084 0.0
H385 H 0.4486 0.06335 0.34417 0.0
H386 H 0.39469 0.01807 0.30846 0.0
H387 H 0.36884 0.99095 0.25042 0.0
H388 H 0.42861 0.04978 0.15691 0.0
H389 H 0.47328 0.10395 0.1928 0.0
C390 C 0.47738 0.10547 0.26343 0.0
C391 C 0.47869 0.09987 0.30019 0.0
C392 C 0.44806 0.07795 0.24256 0.0
C393 C 0.44804 0.06854 0.31599 0.0
C394 C 0.41738 0.04249 0.29554 0.0
C395 C 0.39085 0.01634 0.23785 0.0
C396 C 0.39505 0.01656 0.20095 0.0
C397 C 0.41793 0.04601 0.25875 0.0
C398 C 0.42461 0.04897 0.18518 0.0
C399 C 0.45026 0.07986 0.20573 0.0
H400 H 0.51573 0.37825 0.24108 0.0
H401 H 0.45924 0.44302 0.14861 0.0
H402 H 0.40502 0.48621 0.18507 0.0
H403 H 0.3777 0.5099 0.24333 0.0
H404 H 0.43937 0.45111 0.33622 0.0
H405 H 0.48726 0.40105 0.29958 0.0
C406 C 0.491 0.40122 0.22886 0.0
C407 C 0.49128 0.40707 0.19207 0.0
C408 C 0.46105 0.42725 0.25014 0.0
C409 C 0.45969 0.43778 0.17678 0.0
C410 C 0.42873 0.46254 0.19765 0.0
C411 C 0.401 0.48554 0.25564 0.0
C412 C 0.40455 0.48399 0.29258 0.0
C413 C 0.42963 0.45814 0.23438 0.0
C414 C 0.43577 0.45292 0.30794 0.0
C415 C 0.46325 0.42437 0.28696 0.0
H416 H 0.99602 0.63167 0.75198 0.0
H417 H 0.93079 0.58119 0.65768 0.0
H418 H 0.87733 0.53495 0.69297 0.0
H419 H 0.85544 0.50213 0.75009 0.0
H420 H 0.92728 0.54547 0.84376 0.0
H421 H 0.97171 0.60143 0.80942 0.0
C422 C 0.96924 0.61152 0.73922 0.0
C423 C 0.96688 0.6103 0.70228 0.0
C424 C 0.9403 0.58323 0.75963 0.0
C425 C 0.93296 0.58297 0.68606 0.0
C426 C 0.90263 0.55634 0.70623 0.0
C427 C 0.88014 0.5245 0.76313 0.0
C428 C 0.88787 0.51979 0.79951 0.0
C429 C 0.90686 0.55519 0.74298 0.0
C430 C 0.92068 0.5484 0.81584 0.0
C431 C 0.94612 0.58034 0.79619 0.0
H432 H 0.01102 0.86802 0.75795 0.0
H433 H 0.95876 0.93703 0.84988 0.0
H434 H 0.90385 0.9797 0.81339 0.0
H435 H 0.8756 0.0023 0.75491 0.0
H436 H 0.93417 0.93958 0.66257 0.0
H437 H 0.98145 0.88926 0.69957 0.0
C438 C 0.98695 0.8917 0.77009 0.0
C439 C 0.98861 0.89899 0.80666 0.0
C440 C 0.95687 0.9175 0.74876 0.0
C441 C 0.95801 0.93067 0.82185 0.0
C442 C 0.92672 0.95514 0.80097 0.0
C443 C 0.89805 0.97696 0.74289 0.0
C444 C 0.90104 0.97436 0.706 0.0
C445 C 0.92649 0.94953 0.76433 0.0
C446 C 0.93112 0.94214 0.69085 0.0
C447 C 0.95822 0.91346 0.71202 0.0
H448 H 0.62322 0.98709 0.74653 0.0
H449 H 0.54762 0.94786 0.83932 0.0
H450 H 0.49977 0.89545 0.80428 0.0
H451 H 0.47428 0.86703 0.74635 0.0
H452 H 0.54461 0.91339 0.65309 0.0
H453 H 0.59992 0.95629 0.68912 0.0
C454 C 0.59693 0.96633 0.75925 0.0
C455 C 0.58923 0.97118 0.79558 0.0
C456 C 0.56834 0.93777 0.7387 0.0
C457 C 0.55433 0.94472 0.81145 0.0
C458 C 0.52688 0.91485 0.79139 0.0
C459 C 0.50237 0.88569 0.734 0.0
C460 C 0.50561 0.88671 0.6971 0.0
C461 C 0.53283 0.91194 0.75486 0.0
C462 C 0.54151 0.91194 0.68142 0.0
C463 C 0.57303 0.9366 0.70202 0.0
H464 H 0.63637 0.48664 0.74294 0.0
H465 H 0.58456 0.54615 0.6469 0.0
H466 H 0.53796 0.60057 0.68071 0.0
H467 H 0.5068 0.62637 0.73728 0.0
H468 H 0.55203 0.56102 0.83305 0.0
H469 H 0.60668 0.514 0.79975 0.0
C470 C 0.61556 0.51214 0.72942 0.0
C471 C 0.61421 0.51266 0.69243 0.0
C472 C 0.58745 0.54202 0.74904 0.0
C473 C 0.58627 0.54517 0.67531 0.0
C474 C 0.55956 0.57619 0.69464 0.0
C475 C 0.5293 0.60252 0.75096 0.0
C476 C 0.52569 0.59751 0.78766 0.0
C477 C 0.55917 0.5743 0.73149 0.0
C478 C 0.55429 0.56564 0.80487 0.0
C479 C 0.58542 0.53868 0.78581 0.0
H480 H 0.09047 0.66055 0.25523 0.0
H481 H 0.07211 0.73965 0.16055 0.0
H482 H 0.06719 0.81086 0.19483 0.0
H483 H 0.08768 0.85036 0.24999 0.0
H484 H 0.10543 0.77112 0.34467 0.0
H485 H 0.09007 0.69966 0.3125 0.0
C486 C 0.0833 0.69326 0.24246 0.0
C487 C 0.08224 0.69564 0.20577 0.0
C488 C 0.08123 0.73377 0.26228 0.0
C489 C 0.07298 0.73761 0.18895 0.0
C490 C 0.07067 0.77822 0.20848 0.0
C491 C 0.08621 0.81749 0.26362 0.0
C492 C 0.09822 0.81518 0.29917 0.0
C493 C 0.07766 0.77684 0.2449 0.0
C494 C 0.09637 0.77303 0.31712 0.0
C495 C 0.0879 0.73232 0.29872 0.0
H496 H 0.82727 0.08178 0.22302 0.0
H497 H 0.75994 0.17963 0.15515 0.0
H498 H 0.68641 0.16446 0.18322 0.0
H499 H 0.64626 0.13748 0.2347 0.0
H500 H 0.71572 0.052 0.31057 0.0
H501 H 0.78275 0.04626 0.27164 0.0
C502 C 0.79604 0.09859 0.21402 0.0
C503 C 0.79835 0.13154 0.18714 0.0
C504 C 0.75446 0.09203 0.23208 0.0
C505 C 0.7584 0.15389 0.1756 0.0
C506 C 0.7165 0.14538 0.19178 0.0
C507 C 0.67565 0.11651 0.24217 0.0
C508 C 0.677 0.09614 0.27544 0.0
C509 C 0.71476 0.11649 0.22115 0.0
C510 C 0.7144 0.06818 0.28494 0.0
C511 C 0.75286 0.06551 0.26294 0.0
H512 H 0.41882 0.65659 0.25119 0.0
H513 H 0.40447 0.73547 0.34626 0.0
H514 H 0.4134 0.80737 0.31332 0.0
H515 H 0.4044 0.84562 0.25603 0.0
H516 H 0.41866 0.76663 0.16094 0.0
H517 H 0.43207 0.69646 0.19514 0.0
C518 C 0.4199 0.68957 0.26469 0.0
C519 C 0.41015 0.69157 0.30059 0.0
C520 C 0.4243 0.7304 0.24549 0.0
C521 C 0.41157 0.73381 0.3184 0.0
C522 C 0.4163 0.77476 0.29956 0.0
C523 C 0.41238 0.81327 0.24305 0.0
C524 C 0.40979 0.81033 0.20646 0.0
C525 C 0.41948 0.77334 0.26286 0.0
C526 C 0.42037 0.76896 0.1893 0.0
C527 C 0.42768 0.72896 0.2088 0.0
H528 H 0.66375 0.41826 0.23662 0.0
H529 H 0.7509 0.39706 0.14676 0.0
H530 H 0.81961 0.40546 0.18339 0.0
H531 H 0.85247 0.4003 0.24258 0.0
H532 H 0.76546 0.41894 0.33289 0.0
H533 H 0.69868 0.43163 0.29468 0.0
C534 C 0.69793 0.41744 0.22509 0.0
C535 C 0.70306 0.40658 0.18956 0.0
C536 C 0.73692 0.42138 0.24646 0.0
C537 C 0.74685 0.40524 0.17428 0.0
C538 C 0.78594 0.40978 0.19522 0.0
C539 C 0.81912 0.40898 0.2536 0.0
C540 C 0.81299 0.4083 0.28998 0.0
C541 C 0.78118 0.41508 0.23159 0.0
C542 C 0.77027 0.41952 0.30468 0.0
C543 C 0.73222 0.42628 0.28291 0.0
H544 H 0.90517 0.15147 0.74918 0.0
H545 H 0.89868 0.22776 0.65233 0.0
H546 H 0.90169 0.30062 0.68469 0.0
H547 H 0.8886 0.3406 0.74097 0.0
H548 H 0.89637 0.26415 0.8378 0.0
H549 H 0.91133 0.19294 0.80527 0.0
C550 C 0.90662 0.18416 0.73528 0.0
C551 C 0.90123 0.18491 0.69876 0.0
C552 C 0.90769 0.22556 0.75411 0.0
C553 C 0.90279 0.2269 0.68057 0.0
C554 C 0.90402 0.26842 0.69908 0.0
C555 C 0.89514 0.30849 0.75476 0.0
C556 C 0.89091 0.3068 0.79135 0.0
C557 C 0.90371 0.26798 0.7359 0.0
C558 C 0.89955 0.26563 0.80947 0.0
C559 C 0.90783 0.22505 0.79092 0.0
H560 H 0.33257 0.92422 0.73339 0.0
H561 H 0.243 0.884 0.64845 0.0
H562 H 0.1756 0.89356 0.68603 0.0
H563 H 0.14613 0.89321 0.74605 0.0
H564 H 0.23592 0.92784 0.83232 0.0
H565 H 0.2995 0.94194 0.79139 0.0
C566 C 0.29802 0.9198 0.72293 0.0
C567 C 0.29201 0.90335 0.68869 0.0
C568 C 0.25987 0.92343 0.74514 0.0
C569 C 0.24771 0.89688 0.67492 0.0
C570 C 0.2094 0.90188 0.69645 0.0
C571 C 0.17929 0.9054 0.75558 0.0
C572 C 0.18727 0.90861 0.79172 0.0
C573 C 0.21553 0.91204 0.73211 0.0
C574 C 0.22965 0.92498 0.80435 0.0
C575 C 0.26592 0.93264 0.78103 0.0
H576 H 0.60357 0.14587 0.73454 0.0
H577 H 0.58793 0.22558 0.82919 0.0
H578 H 0.58158 0.29653 0.79463 0.0
H579 H 0.59825 0.33586 0.73874 0.0
H580 H 0.6131 0.2561 0.64413 0.0
H581 H 0.60101 0.18465 0.67709 0.0
C582 C 0.597 0.17869 0.7473 0.0
C583 C 0.59668 0.18125 0.784 0.0
C584 C 0.59383 0.21904 0.72732 0.0
C585 C 0.5881 0.22337 0.80078 0.0
C586 C 0.58491 0.26382 0.78109 0.0
C587 C 0.59682 0.30284 0.72533 0.0
C588 C 0.60697 0.30051 0.68947 0.0
C589 C 0.59025 0.2622 0.74452 0.0
C590 C 0.60538 0.25811 0.67187 0.0
C591 C 0.59882 0.21739 0.69073 0.0
H592 H 0.27521 0.59594 0.81633 0.0
H593 H 0.36151 0.58286 0.72505 0.0
H594 H 0.29368 0.56787 0.68832 0.0
H595 H 0.21054 0.57713 0.68081 0.0
H596 H 0.12596 0.60888 0.77031 0.0
H597 H 0.19148 0.59624 0.80969 0.0
C598 C 0.27897 0.58792 0.78863 0.0
C599 C 0.32257 0.5901 0.77308 0.0
C600 C 0.23983 0.5832 0.76753 0.0
C601 C 0.32782 0.581 0.7372 0.0
C602 C 0.28915 0.57277 0.71632 0.0
C603 C 0.20639 0.57962 0.70904 0.0
C604 C 0.16421 0.59397 0.72298 0.0
C605 C 0.24496 0.57649 0.73091 0.0
C606 C 0.15855 0.59775 0.75939 0.0
C607 C 0.19599 0.59095 0.78173 0.0
H608 H 0.07549 0.51209 0.02269 0.0
H609 H 0.95508 0.56544 0.07503 0.0
H610 H 0.9056 0.53184 0.02984 0.0
H611 H 0.89641 0.48787 0.97512 0.0
H612 H 0.01678 0.43424 0.9229 0.0
H613 H 0.06624 0.46741 0.96829 0.0
C614 C 0.03842 0.51628 0.02425 0.0
C615 C 0.01906 0.54128 0.05218 0.0
C616 C 0.0101 0.49691 -0.00187 0.0
C617 C 0.97094 0.54637 0.05381 0.0
C618 C 0.94256 0.5272 0.02795 0.0
C619 C 0.93346 0.48347 0.97366 0.0
C620 C 0.95283 0.45869 0.94563 0.0
C621 C 0.96176 0.50253 -7e-05 0.0
C622 C 0.00092 0.45318 0.94419 0.0
C623 C 0.02928 0.47213 0.97015 0.0
H624 H 0.01748 0.91926 0.98196 0.0
H625 H 0.07562 0.03576 0.92673 0.0
H626 H 0.04503 0.08814 0.9709 0.0
H627 H 0.0016 0.1011 0.025 0.0
H628 H 0.94256 0.98509 0.08018 0.0
H629 H 0.97387 0.93232 0.03635 0.0
C630 C 0.02337 0.9561 0.97959 0.0
C631 C 0.04874 0.97355 0.95111 0.0
C632 C 0.00568 0.98614 0.00511 0.0
C633 C 0.05616 0.02139 0.9484 0.0
C634 C 0.03874 0.05143 0.97366 0.0
C635 C 0.99574 0.06426 0.02752 0.0
C636 C 0.96987 0.04703 0.05578 0.0
C637 C 0.0135 0.03419 0.00212 0.0
C638 C 0.96238 0.99923 0.05862 0.0
C639 C 0.98022 0.96902 0.03356 0.0
H640 H 0.40518 0.98929 0.02138 0.0
H641 H 0.52682 0.94146 0.0756 0.0
H642 H 0.57538 0.97186 0.02888 0.0
H643 H 0.58356 0.01086 0.97235 0.0
H644 H 0.46267 0.05945 0.91771 0.0
H645 H 0.41362 0.02982 0.9648 0.0
C646 C 0.44231 0.98573 0.02301 0.0
C647 C 0.46229 0.96308 0.0519 0.0
C648 C 0.47019 0.00321 0.99592 0.0
C649 C 0.51049 0.95869 0.05364 0.0
C650 C 0.53836 0.97601 0.0269 0.0
C651 C 0.54648 0.01492 0.97068 0.0
C652 C 0.52679 0.03715 0.94154 0.0
C653 C 0.51859 0.99806 -0.00215 0.0
C654 C 0.47869 0.04239 0.93988 0.0
C655 C 0.45061 0.02548 0.9668 0.0
H656 H 0.4937 0.59569 0.96309 0.0
H657 H 0.43556 0.4749 0.91336 0.0
H658 H 0.46633 0.4262 0.95993 0.0
H659 H 0.51039 0.41753 0.01434 0.0
H660 H 0.56912 0.5378 0.06429 0.0
H661 H 0.53729 0.58701 0.01819 0.0
C662 C 0.48782 0.55872 0.96246 0.0
C663 C 0.46249 0.53899 0.93476 0.0
C664 C 0.50561 0.53078 0.98939 0.0
C665 C 0.45502 0.49102 0.93435 0.0
C666 C 0.47256 0.46308 0.96099 0.0
C667 C 0.5161 0.45452 0.01523 0.0
C668 C 0.54209 0.47395 0.04265 0.0
C669 C 0.49796 0.48256 0.98859 0.0
C670 C 0.54923 0.52195 0.04341 0.0
C671 C 0.5311 0.55013 0.01705 0.0
H672 H 0.00144 0.93895 0.44393 0.0
H673 H 0.12516 0.01267 0.47299 0.0
H674 H 0.08612 0.04431 0.52448 0.0
H675 H 0.0164 0.05148 0.56091 0.0
H676 H 0.89314 0.97717 0.53134 0.0
H677 H 0.93265 0.94499 0.48056 0.0
C678 C 0.01988 0.96205 0.46145 0.0
C679 C 0.06605 0.97361 0.45456 0.0
C680 C 0.99738 0.97979 0.49104 0.0
C681 C 0.08953 0.00333 0.47766 0.0
C682 C 0.06726 0.02136 0.50714 0.0
C683 C 0.99832 0.028 0.54348 0.0
C684 C 0.9519 0.01676 0.54991 0.0
C685 C 0.02117 0.00981 0.5141 0.0
C686 C 0.92887 0.98642 0.52701 0.0
C687 C 0.95139 0.96806 0.49789 0.0
H688 H 0.5266 0.07808 0.47354 0.0
H689 H 0.56267 0.95659 0.41424 0.0
H690 H 0.52878 0.90753 0.45981 0.0
H691 H 0.48707 0.89963 0.51591 0.0
H692 H 0.45071 0.02215 0.57404 0.0
H693 H 0.48688 0.07035 0.52949 0.0
C694 C 0.52715 0.04086 0.47053 0.0
C695 C 0.54694 0.02099 0.44054 0.0
C696 C 0.50761 0.01308 0.49664 0.0
C697 C 0.54752 0.97271 0.43711 0.0
C698 C 0.52817 0.94467 0.46314 0.0
C699 C 0.48736 0.93685 0.51889 0.0
C700 C 0.46616 0.95729 0.54817 0.0
C701 C 0.5079 0.96453 0.49295 0.0
C702 C 0.46665 0.00556 0.55168 0.0
C703 C 0.48729 0.03319 0.52621 0.0
H704 H 0.49957 0.4366 0.55161 0.0
H705 H 0.62565 0.50318 0.51885 0.0
H706 H 0.58497 0.54028 0.47036 0.0
H707 H 0.51379 0.55371 0.4372 0.0
H708 H 0.3876 0.48724 0.46975 0.0
H709 H 0.42823 0.45006 0.51833 0.0
C710 C 0.51813 0.4593 0.5339 0.0
C711 C 0.56556 0.46713 0.53885 0.0
C712 C 0.49456 0.48042 0.50598 0.0
C713 C 0.58912 0.49657 0.51564 0.0
C714 C 0.56591 0.51778 0.48787 0.0
C715 C 0.49516 0.53101 0.45486 0.0
C716 C 0.44775 0.52321 0.44983 0.0
C717 C 0.51867 0.50988 0.48276 0.0
C718 C 0.42412 0.49378 0.47301 0.0
C719 C 0.44731 0.47255 0.50082 0.0
H720 H 0.98119 0.40986 0.47996 0.0
H721 H 0.94468 0.53152 0.42077 0.0
H722 H 0.97443 0.58059 0.46768 0.0
H723 H 0.01012 0.58906 0.52562 0.0
H724 H 0.04633 0.46768 0.5852 0.0
H725 H 0.01713 0.4184 0.53808 0.0
C726 C 0.97997 0.4471 0.47727 0.0
C727 C 0.96083 0.46701 0.44694 0.0
C728 C 0.99681 0.47517 0.50447 0.0
C729 C 0.95924 0.51532 0.44388 0.0
C730 C 0.97618 0.54344 0.4707 0.0
C731 C 0.01152 0.55183 0.52835 0.0
C732 C 0.03029 0.53206 0.55886 0.0
C733 C 0.99484 0.52374 0.50116 0.0
C734 C 0.03198 0.48376 0.56197 0.0
C735 C 0.01537 0.45555 0.53502 0.0
loop_
_geom_bond_atom_site_label_1
_geom_bond_atom_site_label_2
_geom_bond_distance
_geom_bond_site_symmetry_2
_ccdc_geom_bond_type
Co0 O1 2.216 . S
Co0 O2 2.092 . S
Co0 O4 2.004 . S
Co0 O10 2.021 . S
Co0 O12 2.137 . S
Co0 O13 2.244 . S
O1 Co0 2.216 . S
O1 C8 1.247 . S
O2 Co0 2.092 . S
O2 C8 1.262 . S
C3 O12 1.247 . S
C3 O13 1.272 . S
O4 Co0 2.004 . S
O4 C9 1.259 . S
Co5 O6 2.061 . S
Co5 O11 2.052 . S
Co5 O13 2.135 . S
O6 Co5 2.061 . S
O6 C9 1.235 . S
C7 O10 1.238 . S
C7 O11 1.241 . S
C8 O1 1.247 . S
C8 O2 1.262 . S
C9 O4 1.259 . S
C9 O6 1.235 . S
O10 Co0 2.021 . S
O10 C7 1.238 . S
O11 Co5 2.052 . S
O11 C7 1.241 . S
O12 Co0 2.137 . S
O12 C3 1.247 . S
O13 Co0 2.244 . S
O13 C3 1.272 . S
O13 Co5 2.135 . S
Co14 O15 2.216 . S
Co14 O16 2.092 . S
Co14 O18 2.004 . S
Co14 O24 2.021 . S
Co14 O26 2.137 . S
Co14 O27 2.244 . S
O15 Co14 2.216 . S
O15 C22 1.247 . S
O16 Co14 2.092 . S
O16 C22 1.262 . S
C17 O26 1.247 . S
C17 O27 1.272 . S
O18 Co14 2.004 . S
O18 C23 1.259 . S
Co19 O20 2.061 . S
Co19 O25 2.052 . S
Co19 O27 2.135 . S
O20 Co19 2.061 . S
O20 C23 1.235 . S
C21 O24 1.238 . S
C21 O25 1.241 . S
C22 O15 1.247 . S
C22 O16 1.262 . S
C23 O18 1.259 . S
C23 O20 1.235 . S
O24 Co14 2.021 . S
O24 C21 1.238 . S
O25 Co19 2.052 . S
O25 C21 1.241 . S
O26 Co14 2.137 . S
O26 C17 1.247 . S
O27 Co14 2.244 . S
O27 C17 1.272 . S
O27 Co19 2.135 . S
Co28 O29 2.216 . S
Co28 O30 2.091 . S
Co28 O32 2.004 . S
Co28 O38 2.021 . S
Co28 O40 2.137 . S
Co28 O41 2.244 . S
O29 Co28 2.216 . S
O29 C36 1.247 . S
O30 Co28 2.091 . S
O30 C36 1.261 . S
C31 O40 1.247 . S
C31 O41 1.272 . S
O32 Co28 2.004 . S
O32 C37 1.259 . S
Co33 O34 2.061 . S
Co33 O39 2.052 . S
Co33 O41 2.135 . S
O34 Co33 2.061 . S
O34 C37 1.235 . S
C35 O38 1.238 . S
C35 O39 1.241 . S
C36 O29 1.247 . S
C36 O30 1.261 . S
C37 O32 1.259 . S
C37 O34 1.235 . S
O38 Co28 2.021 . S
O38 C35 1.238 . S
O39 Co33 2.052 . S
O39 C35 1.241 . S
O40 Co28 2.137 . S
O40 C31 1.247 . S
O41 Co28 2.244 . S
O41 C31 1.272 . S
O41 Co33 2.135 . S
Co42 O43 2.216 . S
Co42 O44 2.091 . S
Co42 O46 2.004 . S
Co42 O52 2.021 . S
Co42 O54 2.137 . S
Co42 O55 2.244 . S
O43 Co42 2.216 . S
O43 C50 1.247 . S
O44 Co42 2.091 . S
O44 C50 1.261 . S
C45 O54 1.247 . S
C45 O55 1.272 . S
O46 Co42 2.004 . S
O46 C51 1.259 . S
Co47 O48 2.061 . S
Co47 O53 2.052 . S
Co47 O55 2.135 . S
O48 Co47 2.061 . S
O48 C51 1.235 . S
C49 O52 1.238 . S
C49 O53 1.241 . S
C50 O43 1.247 . S
C50 O44 1.261 . S
C51 O46 1.259 . S
C51 O48 1.235 . S
O52 Co42 2.021 . S
O52 C49 1.238 . S
O53 Co47 2.052 . S
O53 C49 1.241 . S
O54 Co42 2.137 . S
O54 C45 1.247 . S
O55 Co42 2.244 . S
O55 C45 1.272 . S
O55 Co47 2.135 . S
Co56 O57 2.216 . S
Co56 O58 2.092 . S
Co56 O60 2.004 . S
Co56 O66 2.021 . S
Co56 O68 2.137 . S
Co56 O69 2.244 . S
O57 Co56 2.216 . S
O57 C64 1.247 . S
O58 Co56 2.092 . S
O58 C64 1.262 . S
C59 O68 1.247 . S
C59 O69 1.272 . S
O60 Co56 2.004 . S
O60 C65 1.259 . S
Co61 O62 2.061 . S
Co61 O67 2.052 . S
Co61 O69 2.135 . S
O62 Co61 2.061 . S
O62 C65 1.235 . S
C63 O66 1.238 . S
C63 O67 1.241 . S
C64 O57 1.247 . S
C64 O58 1.262 . S
C65 O60 1.259 . S
C65 O62 1.235 . S
O66 Co56 2.021 . S
O66 C63 1.238 . S
O67 Co61 2.052 . S
O67 C63 1.241 . S
O68 Co56 2.137 . S
O68 C59 1.247 . S
O69 Co56 2.244 . S
O69 C59 1.272 . S
O69 Co61 2.135 . S
Co70 O71 2.216 . S
Co70 O72 2.092 . S
Co70 O74 2.004 . S
Co70 O80 2.021 . S
Co70 O82 2.137 . S
Co70 O83 2.244 . S
O71 Co70 2.216 . S
O71 C78 1.247 . S
O72 Co70 2.092 . S
O72 C78 1.262 . S
C73 O82 1.247 . S
C73 O83 1.272 . S
O74 Co70 2.004 . S
O74 C79 1.259 . S
Co75 O76 2.061 . S
Co75 O81 2.052 . S
Co75 O83 2.135 . S
O76 Co75 2.061 . S
O76 C79 1.235 . S
C77 O80 1.238 . S
C77 O81 1.241 . S
C78 O71 1.247 . S
C78 O72 1.262 . S
C79 O74 1.259 . S
C79 O76 1.235 . S
O80 Co70 2.021 . S
O80 C77 1.238 . S
O81 Co75 2.052 . S
O81 C77 1.241 . S
O82 Co70 2.137 . S
O82 C73 1.247 . S
O83 Co70 2.244 . S
O83 C73 1.272 . S
O83 Co75 2.135 . S
Co84 O85 2.216 . S
Co84 O86 2.091 . S
Co84 O88 2.004 . S
Co84 O94 2.021 . S
Co84 O96 2.137 . S
Co84 O97 2.244 . S
O85 Co84 2.216 . S
O85 C92 1.247 . S
O86 Co84 2.091 . S
O86 C92 1.261 . S
C87 O96 1.247 . S
C87 O97 1.272 . S
O88 Co84 2.004 . S
O88 C93 1.259 . S
Co89 O90 2.061 . S
Co89 O95 2.052 . S
Co89 O97 2.135 . S
O90 Co89 2.061 . S
O90 C93 1.235 . S
C91 O94 1.238 . S
C91 O95 1.241 . S
C92 O85 1.247 . S
C92 O86 1.261 . S
C93 O88 1.259 . S
C93 O90 1.235 . S
O94 Co84 2.021 . S
O94 C91 1.238 . S
O95 Co89 2.052 . S
O95 C91 1.241 . S
O96 Co84 2.137 . S
O96 C87 1.247 . S
O97 Co84 2.244 . S
O97 C87 1.272 . S
O97 Co89 2.135 . S
Co98 O99 2.216 . S
Co98 O100 2.091 . S
Co98 O102 2.004 . S
Co98 O108 2.021 . S
Co98 O110 2.137 . S
Co98 O111 2.244 . S
O99 Co98 2.216 . S
O99 C106 1.247 . S
O100 Co98 2.091 . S
O100 C106 1.261 . S
C101 O110 1.247 . S
C101 O111 1.272 . S
O102 Co98 2.004 . S
O102 C107 1.259 . S
Co103 O104 2.061 . S
Co103 O109 2.052 . S
Co103 O111 2.135 . S
O104 Co103 2.061 . S
O104 C107 1.235 . S
C105 O108 1.238 . S
C105 O109 1.241 . S
C106 O99 1.247 . S
C106 O100 1.261 . S
C107 O102 1.259 . S
C107 O104 1.235 . S
O108 Co98 2.021 . S
O108 C105 1.238 . S
O109 Co103 2.052 . S
O109 C105 1.241 . S
O110 Co98 2.137 . S
O110 C101 1.247 . S
O111 Co98 2.244 . S
O111 C101 1.272 . S
O111 Co103 2.135 . S
Co112 O113 2.216 . S
Co112 O114 2.092 . S
Co112 O116 2.004 . S
Co112 O122 2.021 . S
Co112 O124 2.137 . S
Co112 O125 2.244 . S
O113 Co112 2.216 . S
O113 C120 1.247 . S
O114 Co112 2.092 . S
O114 C120 1.262 . S
C115 O124 1.247 . S
C115 O125 1.272 . S
O116 Co112 2.004 . S
O116 C121 1.259 . S
Co117 O118 2.061 . S
Co117 O123 2.052 . S
Co117 O125 2.135 . S
O118 Co117 2.061 . S
O118 C121 1.235 . S
C119 O122 1.238 . S
C119 O123 1.241 . S
C120 O113 1.247 . S
C120 O114 1.262 . S
C121 O116 1.259 . S
C121 O118 1.235 . S
O122 Co112 2.021 . S
O122 C119 1.238 . S
O123 Co117 2.052 . S
O123 C119 1.241 . S
O124 Co112 2.137 . S
O124 C115 1.247 . S
O125 Co112 2.244 . S
O125 C115 1.272 . S
O125 Co117 2.135 . S
Co126 O127 2.216 . S
Co126 O128 2.092 . S
Co126 O130 2.004 . S
Co126 O136 2.021 . S
Co126 O138 2.137 . S
Co126 O139 2.244 . S
O127 Co126 2.216 . S
O127 C134 1.247 . S
O128 Co126 2.092 . S
O128 C134 1.262 . S
C129 O138 1.247 . S
C129 O139 1.272 . S
O130 Co126 2.004 . S
O130 C135 1.259 . S
Co131 O132 2.061 . S
Co131 O137 2.052 . S
Co131 O139 2.135 . S
O132 Co131 2.061 . S
O132 C135 1.235 . S
C133 O136 1.238 . S
C133 O137 1.241 . S
C134 O127 1.247 . S
C134 O128 1.262 . S
C135 O130 1.259 . S
C135 O132 1.235 . S
O136 Co126 2.021 . S
O136 C133 1.238 . S
O137 Co131 2.052 . S
O137 C133 1.241 . S
O138 Co126 2.137 . S
O138 C129 1.247 . S
O139 Co126 2.244 . S
O139 C129 1.272 . S
O139 Co131 2.135 . S
Co140 O141 2.216 . S
Co140 O142 2.091 . S
Co140 O144 2.004 . S
Co140 O150 2.021 . S
Co140 O152 2.137 . S
Co140 O153 2.244 . S
O141 Co140 2.216 . S
O141 C148 1.247 . S
O142 Co140 2.091 . S
O142 C148 1.261 . S
C143 O152 1.247 . S
C143 O153 1.272 . S
O144 Co140 2.004 . S
O144 C149 1.259 . S
Co145 O146 2.061 . S
Co145 O151 2.052 . S
Co145 O153 2.135 . S
O146 Co145 2.061 . S
O146 C149 1.235 . S
C147 O150 1.238 . S
C147 O151 1.241 . S
C148 O141 1.247 . S
C148 O142 1.261 . S
C149 O144 1.259 . S
C149 O146 1.235 . S
O150 Co140 2.021 . S
O150 C147 1.238 . S
O151 Co145 2.052 . S
O151 C147 1.241 . S
O152 Co140 2.137 . S
O152 C143 1.247 . S
O153 Co140 2.244 . S
O153 C143 1.272 . S
O153 Co145 2.135 . S
Co154 O155 2.216 . S
Co154 O156 2.091 . S
Co154 O158 2.004 . S
Co154 O164 2.021 . S
Co154 O166 2.137 . S
Co154 O167 2.244 . S
O155 Co154 2.216 . S
O155 C162 1.247 . S
O156 Co154 2.091 . S
O156 C162 1.261 . S
C157 O166 1.247 . S
C157 O167 1.272 . S
O158 Co154 2.004 . S
O158 C163 1.259 . S
Co159 O160 2.061 . S
Co159 O165 2.052 . S
Co159 O167 2.135 . S
O160 Co159 2.061 . S
O160 C163 1.235 . S
C161 O164 1.238 . S
C161 O165 1.241 . S
C162 O155 1.247 . S
C162 O156 1.261 . S
C163 O158 1.259 . S
C163 O160 1.235 . S
O164 Co154 2.021 . S
O164 C161 1.238 . S
O165 Co159 2.052 . S
O165 C161 1.241 . S
O166 Co154 2.137 . S
O166 C157 1.247 . S
O167 Co154 2.244 . S
O167 C157 1.272 . S
O167 Co159 2.135 . S
Co168 O169 2.216 . S
Co168 O170 2.092 . S
Co168 O172 2.004 . S
Co168 O178 2.021 . S
Co168 O180 2.137 . S
Co168 O181 2.244 . S
O169 Co168 2.216 . S
O169 C176 1.247 . S
O170 Co168 2.092 . S
O170 C176 1.262 . S
C171 O180 1.247 . S
C171 O181 1.272 . S
O172 Co168 2.004 . S
O172 C177 1.259 . S
Co173 O174 2.061 . S
Co173 O179 2.052 . S
Co173 O181 2.135 . S
O174 Co173 2.061 . S
O174 C177 1.235 . S
C175 O178 1.238 . S
C175 O179 1.241 . S
C176 O169 1.247 . S
C176 O170 1.262 . S
C177 O172 1.259 . S
C177 O174 1.235 . S
O178 Co168 2.021 . S
O178 C175 1.238 . S
O179 Co173 2.052 . S
O179 C175 1.241 . S
O180 Co168 2.137 . S
O180 C171 1.247 . S
O181 Co168 2.244 . S
O181 C171 1.272 . S
O181 Co173 2.135 . S
Co182 O183 2.216 . S
Co182 O184 2.092 . S
Co182 O186 2.004 . S
Co182 O192 2.021 . S
Co182 O194 2.137 . S
Co182 O195 2.244 . S
O183 Co182 2.216 . S
O183 C190 1.247 . S
O184 Co182 2.092 . S
O184 C190 1.262 . S
C185 O194 1.247 . S
C185 O195 1.272 . S
O186 Co182 2.004 . S
O186 C191 1.259 . S
Co187 O188 2.061 . S
Co187 O193 2.052 . S
Co187 O195 2.135 . S
O188 Co187 2.061 . S
O188 C191 1.235 . S
C189 O192 1.238 . S
C189 O193 1.241 . S
C190 O183 1.247 . S
C190 O184 1.262 . S
C191 O186 1.259 . S
C191 O188 1.235 . S
O192 Co182 2.021 . S
O192 C189 1.238 . S
O193 Co187 2.052 . S
O193 C189 1.241 . S
O194 Co182 2.137 . S
O194 C185 1.247 . S
O195 Co182 2.244 . S
O195 C185 1.272 . S
O195 Co187 2.135 . S
Co196 O197 2.216 . S
Co196 O198 2.091 . S
Co196 O200 2.004 . S
Co196 O206 2.021 . S
Co196 O208 2.137 . S
Co196 O209 2.244 . S
O197 Co196 2.216 . S
O197 C204 1.247 . S
O198 Co196 2.091 . S
O198 C204 1.261 . S
C199 O208 1.247 . S
C199 O209 1.272 . S
O200 Co196 2.004 . S
O200 C205 1.259 . S
Co201 O202 2.061 . S
Co201 O207 2.052 . S
Co201 O209 2.135 . S
O202 Co201 2.061 . S
O202 C205 1.235 . S
C203 O206 1.238 . S
C203 O207 1.241 . S
C204 O197 1.247 . S
C204 O198 1.261 . S
C205 O200 1.259 . S
C205 O202 1.235 . S
O206 Co196 2.021 . S
O206 C203 1.238 . S
O207 Co201 2.052 . S
O207 C203 1.241 . S
O208 Co196 2.137 . S
O208 C199 1.247 . S
O209 Co196 2.244 . S
O209 C199 1.272 . S
O209 Co201 2.135 . S
Co210 O211 2.216 . S
Co210 O212 2.091 . S
Co210 O214 2.004 . S
Co210 O220 2.021 . S
Co210 O222 2.137 . S
Co210 O223 2.244 . S
O211 Co210 2.216 . S
O211 C218 1.247 . S
O212 Co210 2.091 . S
O212 C218 1.261 . S
C213 O222 1.247 . S
C213 O223 1.272 . S
O214 Co210 2.004 . S
O214 C219 1.259 . S
Co215 O216 2.061 . S
Co215 O221 2.052 . S
Co215 O223 2.135 . S
O216 Co215 2.061 . S
O216 C219 1.235 . S
C217 O220 1.238 . S
C217 O221 1.241 . S
C218 O211 1.247 . S
C218 O212 1.261 . S
C219 O214 1.259 . S
C219 O216 1.235 . S
O220 Co210 2.021 . S
O220 C217 1.238 . S
O221 Co215 2.052 . S
O221 C217 1.241 . S
O222 Co210 2.137 . S
O222 C213 1.247 . S
O223 Co210 2.244 . S
O223 C213 1.272 . S
O223 Co215 2.135 . S
H224 C230 0.930 . S
H225 C233 0.930 . S
H226 C234 0.930 . S
H227 C235 0.930 . S
H228 C238 0.930 . S
H229 C239 0.930 . S
C230 H224 0.930 . S
C230 C231 1.355 . S
C230 C232 1.415 . S
C231 C230 1.355 . S
C231 C233 1.419 . S
C232 C230 1.415 . S
C232 C237 1.425 . S
C232 C239 1.409 . S
C233 H225 0.930 . S
C233 C231 1.419 . S
C233 C234 1.362 . S
C234 H226 0.930 . S
C234 C233 1.362 . S
C234 C237 1.409 . S
C235 H227 0.930 . S
C235 C236 1.355 . S
C235 C237 1.415 . S
C236 C235 1.355 . S
C236 C238 1.419 . S
C237 C232 1.425 . S
C237 C234 1.409 . S
C237 C235 1.415 . S
C238 H228 0.930 . S
C238 C236 1.419 . S
C238 C239 1.362 . S
C239 H229 0.930 . S
C239 C232 1.409 . S
C239 C238 1.362 . S
H240 C246 0.930 . S
H241 C249 0.930 . S
H242 C250 0.930 . S
H243 C251 0.930 . S
H244 C254 0.930 . S
H245 C255 0.930 . S
C246 H240 0.930 . S
C246 C247 1.355 . S
C246 C248 1.415 . S
C247 C246 1.355 . S
C247 C249 1.419 . S
C248 C246 1.415 . S
C248 C253 1.425 . S
C248 C255 1.409 . S
C249 H241 0.930 . S
C249 C247 1.419 . S
C249 C250 1.362 . S
C250 H242 0.930 . S
C250 C249 1.362 . S
C250 C253 1.409 . S
C251 H243 0.930 . S
C251 C252 1.355 . S
C251 C253 1.415 . S
C252 C251 1.355 . S
C252 C254 1.419 . S
C253 C248 1.425 . S
C253 C250 1.409 . S
C253 C251 1.415 . S
C254 H244 0.930 . S
C254 C252 1.419 . S
C254 C255 1.362 . S
C255 H245 0.930 . S
C255 C248 1.409 . S
C255 C254 1.362 . S
H256 C262 0.930 . S
H257 C265 0.930 . S
H258 C266 0.930 . S
H259 C267 0.930 . S
H260 C270 0.930 . S
H261 C271 0.930 . S
C262 H256 0.930 . S
C262 C263 1.355 . S
C262 C264 1.415 . S
C263 C262 1.355 . S
C263 C265 1.419 . S
C264 C262 1.415 . S
C264 C269 1.425 . S
C264 C271 1.409 . S
C265 H257 0.930 . S
C265 C263 1.419 . S
C265 C266 1.362 . S
C266 H258 0.930 . S
C266 C265 1.362 . S
C266 C269 1.409 . S
C267 H259 0.930 . S
C267 C268 1.355 . S
C267 C269 1.415 . S
C268 C267 1.355 . S
C268 C270 1.419 . S
C269 C264 1.425 . S
C269 C266 1.409 . S
C269 C267 1.415 . S
C270 H260 0.930 . S
C270 C268 1.419 . S
C270 C271 1.362 . S
C271 H261 0.930 . S
C271 C264 1.409 . S
C271 C270 1.362 . S
H272 C278 0.930 . S
H273 C281 0.930 . S
H274 C282 0.930 . S
H275 C283 0.930 . S
H276 C286 0.930 . S
H277 C287 0.930 . S
C278 H272 0.930 . S
C278 C279 1.355 . S
C278 C280 1.415 . S
C279 C278 1.355 . S
C279 C281 1.419 . S
C280 C278 1.415 . S
C280 C285 1.425 . S
C280 C287 1.409 . S
C281 H273 0.930 . S
C281 C279 1.419 . S
C281 C282 1.362 . S
C282 H274 0.930 . S
C282 C281 1.362 . S
C282 C285 1.409 . S
C283 H275 0.930 . S
C283 C284 1.355 . S
C283 C285 1.415 . S
C284 C283 1.355 . S
C284 C286 1.419 . S
C285 C280 1.425 . S
C285 C282 1.409 . S
C285 C283 1.415 . S
C286 H276 0.930 . S
C286 C284 1.419 . S
C286 C287 1.362 . S
C287 H277 0.930 . S
C287 C280 1.409 . S
C287 C286 1.362 . S
H288 C294 0.930 . S
H289 C297 0.930 . S
H290 C298 0.930 . S
H291 C299 0.930 . S
H292 C302 0.930 . S
H293 C303 0.930 . S
C294 H288 0.930 . S
C294 C295 1.355 . S
C294 C296 1.415 . S
C295 C294 1.355 . S
C295 C297 1.419 . S
C296 C294 1.415 . S
C296 C301 1.425 . S
C296 C303 1.409 . S
C297 H289 0.930 . S
C297 C295 1.419 . S
C297 C298 1.362 . S
C298 H290 0.930 . S
C298 C297 1.362 . S
C298 C301 1.409 . S
C299 H291 0.930 . S
C299 C300 1.355 . S
C299 C301 1.415 . S
C300 C299 1.355 . S
C300 C302 1.419 . S
C301 C296 1.425 . S
C301 C298 1.409 . S
C301 C299 1.415 . S
C302 H292 0.930 . S
C302 C300 1.419 . S
C302 C303 1.362 . S
C303 H293 0.930 . S
C303 C296 1.409 . S
C303 C302 1.362 . S
H304 C310 0.930 . S
H305 C313 0.930 . S
H306 C314 0.930 . S
H307 C315 0.930 . S
H308 C318 0.930 . S
H309 C319 0.930 . S
C310 H304 0.930 . S
C310 C311 1.355 . S
C310 C312 1.415 . S
C311 C310 1.355 . S
C311 C313 1.419 . S
C312 C310 1.415 . S
C312 C317 1.425 . S
C312 C319 1.409 . S
C313 H305 0.930 . S
C313 C311 1.419 . S
C313 C314 1.362 . S
C314 H306 0.930 . S
C314 C313 1.362 . S
C314 C317 1.409 . S
C315 H307 0.930 . S
C315 C316 1.355 . S
C315 C317 1.415 . S
C316 C315 1.355 . S
C316 C318 1.419 . S
C317 C312 1.425 . S
C317 C314 1.409 . S
C317 C315 1.415 . S
C318 H308 0.930 . S
C318 C316 1.419 . S
C318 C319 1.362 . S
C319 H309 0.930 . S
C319 C312 1.409 . S
C319 C318 1.362 . S
H320 C326 0.930 . S
H321 C329 0.930 . S
H322 C330 0.930 . S
H323 C331 0.930 . S
H324 C334 0.930 . S
H325 C335 0.930 . S
C326 H320 0.930 . S
C326 C327 1.355 . S
C326 C328 1.415 . S
C327 C326 1.355 . S
C327 C329 1.419 . S
C328 C326 1.415 . S
C328 C333 1.425 . S
C328 C335 1.409 . S
C329 H321 0.930 . S
C329 C327 1.419 . S
C329 C330 1.362 . S
C330 H322 0.930 . S
C330 C329 1.362 . S
C330 C333 1.409 . S
C331 H323 0.930 . S
C331 C332 1.355 . S
C331 C333 1.415 . S
C332 C331 1.355 . S
C332 C334 1.419 . S
C333 C328 1.425 . S
C333 C330 1.409 . S
C333 C331 1.415 . S
C334 H324 0.930 . S
C334 C332 1.419 . S
C334 C335 1.362 . S
C335 H325 0.930 . S
C335 C328 1.409 . S
C335 C334 1.362 . S
H336 C342 0.930 . S
H337 C345 0.930 . S
H338 C346 0.930 . S
H339 C347 0.930 . S
H340 C350 0.930 . S
H341 C351 0.930 . S
C342 H336 0.930 . S
C342 C343 1.355 . S
C342 C344 1.415 . S
C343 C342 1.355 . S
C343 C345 1.419 . S
C344 C342 1.415 . S
C344 C349 1.425 . S
C344 C351 1.409 . S
C345 H337 0.930 . S
C345 C343 1.419 . S
C345 C346 1.362 . S
C346 H338 0.930 . S
C346 C345 1.362 . S
C346 C349 1.409 . S
C347 H339 0.930 . S
C347 C348 1.355 . S
C347 C349 1.415 . S
C348 C347 1.355 . S
C348 C350 1.419 . S
C349 C344 1.425 . S
C349 C346 1.409 . S
C349 C347 1.415 . S
C350 H340 0.930 . S
C350 C348 1.419 . S
C350 C351 1.362 . S
C351 H341 0.930 . S
C351 C344 1.409 . S
C351 C350 1.362 . S
H352 C358 0.930 . S
H353 C361 0.930 . S
H354 C362 0.930 1_455 S
H355 C363 0.930 . S
H356 C366 0.930 . S
H357 C367 0.930 . S
C358 H352 0.930 . S
C358 C359 1.355 . S
C358 C360 1.415 . S
C359 C358 1.355 . S
C359 C361 1.419 . S
C360 C358 1.415 . S
C360 C365 1.425 . S
C360 C367 1.409 . S
C361 H353 0.930 . S
C361 C359 1.419 . S
C361 C362 1.362 . S
C362 H354 0.930 1_655 S
C362 C361 1.362 . S
C362 C365 1.409 . S
C363 H355 0.930 . S
C363 C364 1.355 1_455 S
C363 C365 1.415 1_455 S
C364 C363 1.355 1_655 S
C364 C366 1.419 . S
C365 C360 1.425 . S
C365 C362 1.409 . S
C365 C363 1.415 1_655 S
C366 H356 0.930 . S
C366 C364 1.419 . S
C366 C367 1.362 . S
C367 H357 0.930 . S
C367 C360 1.409 . S
C367 C366 1.362 . S
H368 C374 0.930 . S
H369 C377 0.930 . S
H370 C378 0.918 1_455 S
H371 C379 0.930 . S
H372 C382 0.930 . S
H373 C383 0.930 . S
C374 H368 0.930 . S
C374 C375 1.333 1_565 S
C374 C376 1.415 . S
C375 C374 1.333 1_545 S
C375 C377 1.435 . S
C376 C374 1.415 . S
C376 C381 1.425 . S
C376 C383 1.409 . S
C377 H369 0.930 . S
C377 C375 1.435 . S
C377 C378 1.362 . S
C378 H370 0.918 1_655 S
C378 C377 1.362 . S
C378 C381 1.409 1_545 S
C379 H371 0.930 . S
C379 C380 1.355 1_455 S
C379 C381 1.415 1_455 S
C380 C379 1.355 1_655 S
C380 C382 1.419 . S
C381 C376 1.425 . S
C381 C378 1.409 1_565 S
C381 C379 1.415 1_655 S
C382 H372 0.930 . S
C382 C380 1.419 . S
C382 C383 1.362 . S
C383 H373 0.930 . S
C383 C376 1.409 . S
C383 C382 1.362 . S
H384 C390 0.930 1_545 S
H385 C393 0.930 . S
H386 C394 0.930 . S
H387 C395 0.930 . S
H388 C398 0.930 . S
H389 C399 0.930 . S
C390 H384 0.930 1_565 S
C390 C391 1.355 . S
C390 C392 1.415 . S
C391 C390 1.355 . S
C391 C393 1.419 . S
C392 C390 1.415 . S
C392 C397 1.425 . S
C392 C399 1.409 . S
C393 H385 0.930 . S
C393 C391 1.419 . S
C393 C394 1.362 . S
C394 H386 0.930 . S
C394 C393 1.362 . S
C394 C397 1.409 . S
C395 H387 0.930 . S
C395 C396 1.355 . S
C395 C397 1.415 . S
C396 C395 1.355 . S
C396 C398 1.419 . S
C397 C392 1.425 . S
C397 C394 1.409 . S
C397 C395 1.415 . S
C398 H388 0.930 . S
C398 C396 1.419 . S
C398 C399 1.362 . S
C399 H389 0.930 . S
C399 C392 1.409 . S
C399 C398 1.362 . S
H400 C406 0.930 . S
H401 C409 0.930 . S
H402 C410 0.930 . S
H403 C411 0.930 . S
H404 C414 0.930 . S
H405 C415 0.930 . S
C406 H400 0.930 . S
C406 C407 1.355 . S
C406 C408 1.415 . S
C407 C406 1.355 . S
C407 C409 1.419 . S
C408 C406 1.415 . S
C408 C413 1.425 . S
C408 C415 1.409 . S
C409 H401 0.930 . S
C409 C407 1.419 . S
C409 C410 1.362 . S
C410 H402 0.930 . S
C410 C409 1.362 . S
C410 C413 1.409 . S
C411 H403 0.930 . S
C411 C412 1.355 . S
C411 C413 1.415 . S
C412 C411 1.355 . S
C412 C414 1.419 . S
C413 C408 1.425 . S
C413 C410 1.409 . S
C413 C411 1.415 . S
C414 H404 0.930 . S
C414 C412 1.419 . S
C414 C415 1.362 . S
C415 H405 0.930 . S
C415 C408 1.409 . S
C415 C414 1.362 . S
H416 C422 0.930 . S
H417 C425 0.930 . S
H418 C426 0.930 . S
H419 C427 0.930 . S
H420 C430 0.930 . S
H421 C431 0.930 . S
C422 H416 0.930 . S
C422 C423 1.355 . S
C422 C424 1.415 . S
C423 C422 1.355 . S
C423 C425 1.419 . S
C424 C422 1.415 . S
C424 C429 1.425 . S
C424 C431 1.409 . S
C425 H417 0.930 . S
C425 C423 1.419 . S
C425 C426 1.362 . S
C426 H418 0.930 . S
C426 C425 1.362 . S
C426 C429 1.409 . S
C427 H419 0.930 . S
C427 C428 1.355 . S
C427 C429 1.415 . S
C428 C427 1.355 . S
C428 C430 1.419 . S
C429 C424 1.425 . S
C429 C426 1.409 . S
C429 C427 1.415 . S
C430 H420 0.930 . S
C430 C428 1.419 . S
C430 C431 1.362 . S
C431 H421 0.930 . S
C431 C424 1.409 . S
C431 C430 1.362 . S
H432 C438 0.930 . S
H433 C441 0.930 . S
H434 C442 0.930 . S
H435 C443 0.945 . S
H436 C446 0.930 . S
H437 C447 0.930 1_565 S
C438 H432 0.930 . S
C438 C439 1.355 1_565 S
C438 C440 1.415 1_565 S
C439 C438 1.355 1_545 S
C439 C441 1.419 . S
C440 C438 1.415 1_545 S
C440 C445 1.425 . S
C440 C447 1.409 . S
C441 H433 0.930 . S
C441 C439 1.419 . S
C441 C442 1.362 . S
C442 H434 0.930 . S
C442 C441 1.362 . S
C442 C445 1.409 . S
C443 H435 0.945 . S
C443 C444 1.352 1_655 S
C443 C445 1.403 1_655 S
C444 C443 1.352 1_455 S
C444 C446 1.419 . S
C445 C440 1.425 . S
C445 C442 1.409 . S
C445 C443 1.403 1_455 S
C446 H436 0.930 . S
C446 C444 1.419 . S
C446 C447 1.362 . S
C447 H437 0.930 1_545 S
C447 C440 1.409 . S
C447 C446 1.362 . S
H448 C454 0.930 . S
H449 C457 0.930 . S
H450 C458 0.930 . S
H451 C459 0.930 . S
H452 C462 0.930 . S
H453 C463 0.930 . S
C454 H448 0.930 . S
C454 C455 1.355 . S
C454 C456 1.415 . S
C455 C454 1.355 . S
C455 C457 1.419 . S
C456 C454 1.415 . S
C456 C461 1.425 . S
C456 C463 1.409 . S
C457 H449 0.930 . S
C457 C455 1.419 . S
C457 C458 1.362 . S
C458 H450 0.930 . S
C458 C457 1.362 . S
C458 C461 1.409 . S
C459 H451 0.930 . S
C459 C460 1.355 . S
C459 C461 1.415 . S
C460 C459 1.355 . S
C460 C462 1.419 . S
C461 C456 1.425 . S
C461 C458 1.409 . S
C461 C459 1.415 . S
C462 H452 0.930 . S
C462 C460 1.419 . S
C462 C463 1.362 . S
C463 H453 0.930 . S
C463 C456 1.409 . S
C463 C462 1.362 . S
H464 C470 0.930 . S
H465 C473 0.930 . S
H466 C474 0.930 . S
H467 C475 0.930 . S
H468 C478 0.930 . S
H469 C479 0.930 . S
C470 H464 0.930 . S
C470 C471 1.355 . S
C470 C472 1.415 . S
C471 C470 1.355 . S
C471 C473 1.419 . S
C472 C470 1.415 . S
C472 C477 1.425 . S
C472 C479 1.409 . S
C473 H465 0.930 . S
C473 C471 1.419 . S
C473 C474 1.362 . S
C474 H466 0.930 . S
C474 C473 1.362 . S
C474 C477 1.409 . S
C475 H467 0.930 . S
C475 C476 1.355 . S
C475 C477 1.415 . S
C476 C475 1.355 . S
C476 C478 1.419 . S
C477 C472 1.425 . S
C477 C474 1.409 . S
C477 C475 1.415 . S
C478 H468 0.930 . S
C478 C476 1.419 . S
C478 C479 1.362 . S
C479 H469 0.930 . S
C479 C472 1.409 . S
C479 C478 1.362 . S
H480 C486 0.930 . S
H481 C489 0.930 . S
H482 C490 0.930 . S
H483 C491 0.930 . S
H484 C494 0.930 . S
H485 C495 0.930 . S
C486 H480 0.930 . S
C486 C487 1.355 1_655 S
C486 C488 1.415 . S
C487 C486 1.355 1_455 S
C487 C489 1.419 . S
C488 C486 1.415 . S
C488 C493 1.425 1_655 S
C488 C495 1.409 . S
C489 H481 0.930 . S
C489 C487 1.419 . S
C489 C490 1.362 . S
C490 H482 0.930 . S
C490 C489 1.362 . S
C490 C493 1.409 . S
C491 H483 0.930 . S
C491 C492 1.355 . S
C491 C493 1.415 . S
C492 C491 1.355 . S
C492 C494 1.419 1_455 S
C493 C488 1.425 1_455 S
C493 C490 1.409 . S
C493 C491 1.415 . S
C494 H484 0.930 . S
C494 C492 1.419 1_655 S
C494 C495 1.362 . S
C495 H485 0.930 . S
C495 C488 1.409 . S
C495 C494 1.362 . S
H496 C502 0.930 1_565 S
H497 C505 0.930 . S
H498 C506 0.930 . S
H499 C507 0.930 . S
H500 C510 0.930 1_565 S
H501 C511 0.930 1_565 S
C502 H496 0.930 1_545 S
C502 C503 1.355 . S
C502 C504 1.415 . S
C503 C502 1.355 . S
C503 C505 1.419 . S
C504 C502 1.415 . S
C504 C509 1.425 . S
C504 C511 1.409 . S
C505 H497 0.930 . S
C505 C503 1.419 . S
C505 C506 1.362 . S
C506 H498 0.930 . S
C506 C505 1.362 . S
C506 C509 1.409 . S
C507 H499 0.930 . S
C507 C508 1.355 . S
C507 C509 1.415 . S
C508 C507 1.355 . S
C508 C510 1.419 . S
C509 C504 1.425 . S
C509 C506 1.409 . S
C509 C507 1.415 . S
C510 H500 0.930 1_545 S
C510 C508 1.419 . S
C510 C511 1.362 . S
C511 H501 0.930 1_545 S
C511 C504 1.409 . S
C511 C510 1.362 . S
H512 C518 0.930 . S
H513 C521 0.930 . S
H514 C522 0.930 . S
H515 C523 0.930 . S
H516 C526 0.930 . S
H517 C527 0.930 . S
C518 H512 0.930 . S
C518 C519 1.355 . S
C518 C520 1.415 . S
C519 C518 1.355 . S
C519 C521 1.419 . S
C520 C518 1.415 . S
C520 C525 1.425 . S
C520 C527 1.409 . S
C521 H513 0.930 . S
C521 C519 1.419 . S
C521 C522 1.362 . S
C522 H514 0.930 . S
C522 C521 1.362 . S
C522 C525 1.409 . S
C523 H515 0.930 . S
C523 C524 1.355 . S
C523 C525 1.415 . S
C524 C523 1.355 . S
C524 C526 1.419 . S
C525 C520 1.425 . S
C525 C522 1.409 . S
C525 C523 1.415 . S
C526 H516 0.930 . S
C526 C524 1.419 . S
C526 C527 1.362 . S
C527 H517 0.930 . S
C527 C520 1.409 . S
C527 C526 1.362 . S
H528 C534 0.930 . S
H529 C537 0.930 . S
H530 C538 0.930 . S
H531 C539 0.930 . S
H532 C542 0.930 . S
H533 C543 0.930 . S
C534 H528 0.930 . S
C534 C535 1.355 . S
C534 C536 1.415 . S
C535 C534 1.355 . S
C535 C537 1.419 . S
C536 C534 1.415 . S
C536 C541 1.425 . S
C536 C543 1.409 . S
C537 H529 0.930 . S
C537 C535 1.419 . S
C537 C538 1.362 . S
C538 H530 0.930 . S
C538 C537 1.362 . S
C538 C541 1.409 . S
C539 H531 0.930 . S
C539 C540 1.355 . S
C539 C541 1.415 . S
C540 C539 1.355 . S
C540 C542 1.419 . S
C541 C536 1.425 . S
C541 C538 1.409 . S
C541 C539 1.415 . S
C542 H532 0.930 . S
C542 C540 1.419 . S
C542 C543 1.362 . S
C543 H533 0.930 . S
C543 C536 1.409 . S
C543 C542 1.362 . S
H544 C550 0.930 . S
H545 C553 0.930 . S
H546 C554 0.930 . S
H547 C555 0.930 . S
H548 C558 0.930 . S
H549 C559 0.930 . S
C550 H544 0.930 . S
C550 C551 1.355 1_455 S
C550 C552 1.415 . S
C551 C550 1.355 1_655 S
C551 C553 1.419 . S
C552 C550 1.415 . S
C552 C557 1.425 1_455 S
C552 C559 1.409 . S
C553 H545 0.930 . S
C553 C551 1.419 . S
C553 C554 1.362 . S
C554 H546 0.930 . S
C554 C553 1.362 . S
C554 C557 1.409 . S
C555 H547 0.930 . S
C555 C556 1.355 . S
C555 C557 1.415 . S
C556 C555 1.355 . S
C556 C558 1.419 1_655 S
C557 C552 1.425 1_655 S
C557 C554 1.409 . S
C557 C555 1.415 . S
C558 H548 0.930 . S
C558 C556 1.419 1_455 S
C558 C559 1.362 . S
C559 H549 0.930 . S
C559 C552 1.409 . S
C559 C558 1.362 . S
H560 C566 0.930 . S
H561 C569 0.930 . S
H562 C570 0.930 . S
H563 C571 0.930 . S
H564 C574 0.930 . S
H565 C575 0.930 . S
C566 H560 0.930 . S
C566 C567 1.355 1_545 S
C566 C568 1.415 . S
C567 C566 1.355 1_565 S
C567 C569 1.419 . S
C568 C566 1.415 . S
C568 C573 1.425 1_545 S
C568 C575 1.409 . S
C569 H561 0.930 . S
C569 C567 1.419 . S
C569 C570 1.362 . S
C570 H562 0.930 . S
C570 C569 1.362 . S
C570 C573 1.409 . S
C571 H563 0.930 . S
C571 C572 1.355 . S
C571 C573 1.415 . S
C572 C571 1.355 . S
C572 C574 1.419 1_565 S
C573 C568 1.425 1_565 S
C573 C570 1.409 . S
C573 C571 1.415 . S
C574 H564 0.930 . S
C574 C572 1.419 1_545 S
C574 C575 1.362 . S
C575 H565 0.930 . S
C575 C568 1.409 . S
C575 C574 1.362 . S
H576 C582 0.930 . S
H577 C585 0.930 . S
H578 C586 0.930 . S
H579 C587 0.930 . S
H580 C590 0.930 . S
H581 C591 0.930 . S
C582 H576 0.930 . S
C582 C583 1.355 . S
C582 C584 1.415 . S
C583 C582 1.355 . S
C583 C585 1.419 . S
C584 C582 1.415 . S
C584 C589 1.425 . S
C584 C591 1.409 . S
C585 H577 0.930 . S
C585 C583 1.419 . S
C585 C586 1.362 . S
C586 H578 0.930 . S
C586 C585 1.362 . S
C586 C589 1.409 . S
C587 H579 0.930 . S
C587 C588 1.355 . S
C587 C589 1.415 . S
C588 C587 1.355 . S
C588 C590 1.419 . S
C589 C584 1.425 . S
C589 C586 1.409 . S
C589 C587 1.415 . S
C590 H580 0.930 . S
C590 C588 1.419 . S
C590 C591 1.362 . S
C591 H581 0.930 . S
C591 C584 1.409 . S
C591 C590 1.362 . S
H592 C598 0.930 . S
H593 C601 0.930 . S
H594 C602 0.930 . S
H595 C603 0.930 . S
H596 C606 0.930 . S
H597 C607 0.930 . S
C598 H592 0.930 . S
C598 C599 1.355 . S
C598 C600 1.415 . S
C599 C598 1.355 . S
C599 C601 1.419 . S
C600 C598 1.415 . S
C600 C605 1.425 . S
C600 C607 1.409 . S
C601 H593 0.930 . S
C601 C599 1.419 . S
C601 C602 1.362 . S
C602 H594 0.930 . S
C602 C601 1.362 . S
C602 C605 1.409 . S
C603 H595 0.930 . S
C603 C604 1.355 . S
C603 C605 1.415 . S
C604 C603 1.355 . S
C604 C606 1.419 . S
C605 C600 1.425 . S
C605 C602 1.409 . S
C605 C603 1.415 . S
C606 H596 0.930 . S
C606 C604 1.419 . S
C606 C607 1.362 . S
C607 H597 0.930 . S
C607 C600 1.409 . S
C607 C606 1.362 . S
H608 C614 0.930 . S
H609 C617 0.930 . S
H610 C618 0.930 . S
H611 C619 0.930 . S
H612 C622 0.930 . S
H613 C623 0.930 . S
C614 H608 0.930 . S
C614 C615 1.355 . S
C614 C616 1.415 1_554 S
C615 C614 1.355 . S
C615 C617 1.419 1_455 S
C616 C614 1.415 1_556 S
C616 C621 1.425 1_456 S
C616 C623 1.409 . S
C617 H609 0.930 . S
C617 C615 1.419 1_655 S
C617 C618 1.362 . S
C618 H610 0.930 . S
C618 C617 1.362 . S
C618 C621 1.409 . S
C619 H611 0.930 . S
C619 C620 1.355 . S
C619 C621 1.415 1_556 S
C620 C619 1.355 . S
C620 C622 1.419 1_655 S
C621 C616 1.425 1_654 S
C621 C618 1.409 . S
C621 C619 1.415 1_554 S
C622 H612 0.930 . S
C622 C620 1.419 1_455 S
C622 C623 1.362 . S
C623 H613 0.930 . S
C623 C616 1.409 . S
C623 C622 1.362 . S
H624 C630 0.930 . S
H625 C633 0.929 . S
H626 C634 0.930 . S
H627 C635 0.930 . S
H628 C638 0.929 . S
H629 C639 0.930 . S
C630 H624 0.930 . S
C630 C631 1.355 . S
C630 C632 1.415 1_455 S
C631 C630 1.355 . S
C631 C633 1.419 1_565 S
C632 C630 1.415 1_655 S
C632 C637 1.425 1_666 S
C632 C639 1.409 . S
C633 H625 0.929 . S
C633 C631 1.419 1_545 S
C633 C634 1.362 1_556 S
C634 H626 0.930 . S
C634 C633 1.362 1_554 S
C634 C637 1.409 . S
C635 H627 0.930 . S
C635 C636 1.355 . S
C635 C637 1.415 1_655 S
C636 C635 1.355 . S
C636 C638 1.419 1_545 S
C637 C632 1.425 1_444 S
C637 C634 1.409 . S
C637 C635 1.415 1_455 S
C638 H628 0.929 . S
C638 C636 1.419 1_565 S
C638 C639 1.362 1_554 S
C639 H629 0.930 . S
C639 C632 1.409 . S
C639 C638 1.362 1_556 S
H640 C646 0.930 . S
H641 C649 0.930 . S
H642 C650 0.930 . S
H643 C651 0.930 . S
H644 C654 0.930 . S
H645 C655 0.930 . S
C646 H640 0.930 . S
C646 C647 1.355 . S
C646 C648 1.398 1_565 S
C647 C646 1.355 . S
C647 C649 1.419 . S
C648 C646 1.398 1_545 S
C648 C653 1.424 1_544 S
C648 C655 1.427 . S
C649 H641 0.930 . S
C649 C647 1.419 . S
C649 C650 1.362 1_554 S
C650 H642 0.930 . S
C650 C649 1.362 1_556 S
C650 C653 1.427 . S
C651 H643 0.930 . S
C651 C652 1.355 . S
C651 C653 1.398 1_545 S
C652 C651 1.355 . S
C652 C654 1.419 . S
C653 C648 1.424 1_566 S
C653 C650 1.427 . S
C653 C651 1.398 1_565 S
C654 H644 0.930 . S
C654 C652 1.419 . S
C654 C655 1.362 1_556 S
C655 H645 0.930 . S
C655 C648 1.427 . S
C655 C654 1.362 1_554 S
H656 C662 0.930 . S
H657 C665 0.930 . S
H658 C666 0.930 . S
H659 C667 0.930 . S
H660 C670 0.930 . S
H661 C671 0.930 . S
C662 H656 0.930 . S
C662 C663 1.355 . S
C662 C664 1.415 . S
C663 C662 1.355 . S
C663 C665 1.419 1_556 S
C664 C662 1.415 . S
C664 C669 1.425 1_556 S
C664 C671 1.409 . S
C665 H657 0.930 . S
C665 C663 1.419 1_554 S
C665 C666 1.362 . S
C666 H658 0.930 . S
C666 C665 1.362 . S
C666 C669 1.409 . S
C667 H659 0.930 . S
C667 C668 1.355 . S
C667 C669 1.415 . S
C668 C667 1.355 . S
C668 C670 1.419 1_554 S
C669 C664 1.425 1_554 S
C669 C666 1.409 . S
C669 C667 1.415 . S
C670 H660 0.930 . S
C670 C668 1.419 1_556 S
C670 C671 1.362 . S
C671 H661 0.930 . S
C671 C664 1.409 . S
C671 C670 1.362 . S
H672 C678 0.930 . S
H673 C681 0.930 . S
H674 C682 0.930 . S
H675 C683 0.930 . S
H676 C686 0.930 . S
H677 C687 0.930 . S
C678 H672 0.930 . S
C678 C679 1.355 1_655 S
C678 C680 1.403 1_565 S
C679 C678 1.355 1_455 S
C679 C681 1.419 . S
C680 C678 1.403 1_545 S
C680 C685 1.425 1_645 S
C680 C687 1.421 . S
C681 H673 0.930 . S
C681 C679 1.419 . S
C681 C682 1.362 . S
C682 H674 0.930 . S
C682 C681 1.362 . S
C682 C685 1.421 . S
C683 H675 0.930 . S
C683 C684 1.355 1_455 S
C683 C685 1.403 1_545 S
C684 C683 1.355 1_655 S
C684 C686 1.419 . S
C685 C680 1.425 1_465 S
C685 C682 1.421 . S
C685 C683 1.403 1_565 S
C686 H676 0.930 . S
C686 C684 1.419 . S
C686 C687 1.362 . S
C687 H677 0.930 . S
C687 C680 1.421 . S
C687 C686 1.362 . S
H688 C694 0.930 . S
H689 C697 0.930 . S
H690 C698 0.930 . S
H691 C699 0.930 . S
H692 C702 0.930 . S
H693 C703 0.930 . S
C694 H688 0.930 . S
C694 C695 1.355 . S
C694 C696 1.415 . S
C695 C694 1.355 . S
C695 C697 1.419 1_545 S
C696 C694 1.415 . S
C696 C701 1.425 1_545 S
C696 C703 1.409 . S
C697 H689 0.930 . S
C697 C695 1.419 1_565 S
C697 C698 1.362 . S
C698 H690 0.930 . S
C698 C697 1.362 . S
C698 C701 1.409 . S
C699 H691 0.930 . S
C699 C700 1.355 . S
C699 C701 1.415 . S
C700 C699 1.355 . S
C700 C702 1.419 1_565 S
C701 C696 1.425 1_565 S
C701 C698 1.409 . S
C701 C699 1.415 . S
C702 H692 0.930 . S
C702 C700 1.419 1_545 S
C702 C703 1.362 . S
C703 H693 0.930 . S
C703 C696 1.409 . S
C703 C702 1.362 . S
H704 C710 0.930 . S
H705 C713 0.930 . S
H706 C714 0.930 . S
H707 C715 0.930 . S
H708 C718 0.930 . S
H709 C719 0.930 . S
C710 H704 0.930 . S
C710 C711 1.355 . S
C710 C712 1.415 . S
C711 C710 1.355 . S
C711 C713 1.419 . S
C712 C710 1.415 . S
C712 C717 1.425 . S
C712 C719 1.409 . S
C713 H705 0.930 . S
C713 C711 1.419 . S
C713 C714 1.362 . S
C714 H706 0.930 . S
C714 C713 1.362 . S
C714 C717 1.409 . S
C715 H707 0.930 . S
C715 C716 1.355 . S
C715 C717 1.415 . S
C716 C715 1.355 . S
C716 C718 1.419 . S
C717 C712 1.425 . S
C717 C714 1.409 . S
C717 C715 1.415 . S
C718 H708 0.930 . S
C718 C716 1.419 . S
C718 C719 1.362 . S
C719 H709 0.930 . S
C719 C712 1.409 . S
C719 C718 1.362 . S
H720 C726 0.930 . S
H721 C729 0.930 . S
H722 C730 0.930 . S
H723 C731 0.930 . S
H724 C734 0.930 . S
H725 C735 0.930 . S
C726 H720 0.930 . S
C726 C727 1.355 . S
C726 C728 1.415 1_655 S
C727 C726 1.355 . S
C727 C729 1.419 . S
C728 C726 1.415 1_455 S
C728 C733 1.425 1_455 S
C728 C735 1.409 . S
C729 H721 0.930 . S
C729 C727 1.419 . S
C729 C730 1.362 . S
C730 H722 0.930 . S
C730 C729 1.362 . S
C730 C733 1.409 . S
C731 H723 0.930 . S
C731 C732 1.355 . S
C731 C733 1.415 1_455 S
C732 C731 1.355 . S
C732 C734 1.419 . S
C733 C728 1.425 1_655 S
C733 C730 1.409 . S
C733 C731 1.415 1_655 S
C734 H724 0.930 . S
C734 C732 1.419 . S
C734 C735 1.362 . S
C735 H725 0.930 . S
C735 C728 1.409 . S
C735 C734 1.362 . S
C231 C3 1.624 . S
C236 C31 1.630 . S
C247 C17 1.677 . S
C252 C45 1.677 . S
C263 C59 1.664 . S
C268 C87 1.671 . S
C279 C101 1.630 . S
C284 C73 1.638 . S
C295 C115 1.677 . S
C300 C143 1.674 . S
C311 C157 1.638 . S
C316 C129 1.647 . S
C327 C199 1.642 . S
C332 C171 1.651 . S
C343 C213 1.622 . S
C348 C185 1.623 . S
C359 C105 1.215 . S
C364 C7 1.192 1_655 S
C375 C21 1.214 . S
C380 C63 1.184 1_655 S
C391 C77 1.273 1_565 S
C396 C35 1.259 . S
C407 C49 1.251 . S
C412 C91 1.228 . S
C423 C217 1.212 . S
C428 C119 1.190 1_455 S
C439 C133 1.265 1_545 S
C444 C175 1.276 1_455 S
C455 C147 1.245 . S
C460 C189 1.264 1_545 S
C471 C203 1.182 . S
C476 C161 1.202 . S
C487 C9 0.847 . S
C492 C65 0.948 . S
C503 C23 0.998 . S
C508 C79 0.992 . S
C519 C93 0.984 . S
C524 C37 0.894 . S
C535 C51 0.831 . S
C540 C107 0.932 . S
C551 C177 0.848 . S
C556 C121 0.949 . S
C567 C191 0.787 . S
C572 C135 0.844 . S
C583 C149 0.996 . S
C588 C205 0.995 . S
C599 C163 1.003 . S
C604 C219 0.940 . S
C615 C8 1.755 . S
C620 C120 1.755 . S
C631 C134 1.764 . S
C636 C22 1.764 . S
C647 C36 1.769 . S
C652 C148 1.769 . S
C663 C162 1.770 . S
C668 C50 1.770 . S
C679 C64 1.743 . S
C684 C176 1.743 . S
C695 C78 1.724 . S
C700 C190 1.724 . S
C711 C204 1.725 . S
C716 C92 1.725 . S
C727 C106 1.766 . S
C732 C218 1.766 . S
