# Generated by pormake.
# Topology uou, (4)-cn, num edge types: 1
# Building blocks:
#     Node 0, Type 0, BuildingBlock: QUQFOY_clean_sbu_1, # of connection points: 4
#     Node 1, Type 0, BuildingBlock: QUQFOY_clean_sbu_1, # of connection points: 4
#     Node 2, Type 0, BuildingBlock: QUQFOY_clean_sbu_1, # of connection points: 4
#     Node 3, Type 0, BuildingBlock: QUQFOY_clean_sbu_1, # of connection points: 4
#     Node 4, Type 0, BuildingBlock: QUQFOY_clean_sbu_1, # of connection points: 4
#     Node 5, Type 0, BuildingBlock: QUQFOY_clean_sbu_1, # of connection points: 4
#     Node 6, Type 0, BuildingBlock: QUQFOY_clean_sbu_1, # of connection points: 4
#     Node 7, Type 0, BuildingBlock: QUQFOY_clean_sbu_1, # of connection points: 4
#     Node 8, Type 0, BuildingBlock: QUQFOY_clean_sbu_1, # of connection points: 4
#     Node 9, Type 0, BuildingBlock: QUQFOY_clean_sbu_1, # of connection points: 4
#     Node 10, Type 0, BuildingBlock: QUQFOY_clean_sbu_1, # of connection points: 4
#     Node 11, Type 0, BuildingBlock: QUQFOY_clean_sbu_1, # of connection points: 4
#     Node 12, Type 0, BuildingBlock: QUQFOY_clean_sbu_1, # of connection points: 4
#     Node 13, Type 0, BuildingBlock: QUQFOY_clean_sbu_1, # of connection points: 4
#     Node 14, Type 0, BuildingBlock: QUQFOY_clean_sbu_1, # of connection points: 4
#     Node 15, Type 0, BuildingBlock: QUQFOY_clean_sbu_1, # of connection points: 4
#     Edge 16, Type (0, 0), BuildingBlock: EZIPEK_clean_linker_0, # of connection points: 2
#     Edge 17, Type (0, 0), BuildingBlock: EZIPEK_clean_linker_0, # of connection points: 2
#     Edge 18, Type (0, 0), BuildingBlock: EZIPEK_clean_linker_0, # of connection points: 2
#     Edge 19, Type (0, 0), BuildingBlock: EZIPEK_clean_linker_0, # of connection points: 2
#     Edge 20, Type (0, 0), BuildingBlock: EZIPEK_clean_linker_0, # of connection points: 2
#     Edge 21, Type (0, 0), BuildingBlock: EZIPEK_clean_linker_0, # of connection points: 2
#     Edge 22, Type (0, 0), BuildingBlock: EZIPEK_clean_linker_0, # of connection points: 2
#     Edge 23, Type (0, 0), BuildingBlock: EZIPEK_clean_linker_0, # of connection points: 2
#     Edge 24, Type (0, 0), BuildingBlock: EZIPEK_clean_linker_0, # of connection points: 2
#     Edge 25, Type (0, 0), BuildingBlock: EZIPEK_clean_linker_0, # of connection points: 2
#     Edge 26, Type (0, 0), BuildingBlock: EZIPEK_clean_linker_0, # of connection points: 2
#     Edge 27, Type (0, 0), BuildingBlock: EZIPEK_clean_linker_0, # of connection points: 2
#     Edge 28, Type (0, 0), BuildingBlock: EZIPEK_clean_linker_0, # of connection points: 2
#     Edge 29, Type (0, 0), BuildingBlock: EZIPEK_clean_linker_0, # of connection points: 2
#     Edge 30, Type (0, 0), BuildingBlock: EZIPEK_clean_linker_0, # of connection points: 2
#     Edge 31, Type (0, 0), BuildingBlock: EZIPEK_clean_linker_0, # of connection points: 2
#     Edge 32, Type (0, 0), BuildingBlock: EZIPEK_clean_linker_0, # of connection points: 2
#     Edge 33, Type (0, 0), BuildingBlock: EZIPEK_clean_linker_0, # of connection points: 2
#     Edge 34, Type (0, 0), BuildingBlock: EZIPEK_clean_linker_0, # of connection points: 2
#     Edge 35, Type (0, 0), BuildingBlock: EZIPEK_clean_linker_0, # of connection points: 2
#     Edge 36, Type (0, 0), BuildingBlock: EZIPEK_clean_linker_0, # of connection points: 2
#     Edge 37, Type (0, 0), BuildingBlock: EZIPEK_clean_linker_0, # of connection points: 2
#     Edge 38, Type (0, 0), BuildingBlock: EZIPEK_clean_linker_0, # of connection points: 2
#     Edge 39, Type (0, 0), BuildingBlock: EZIPEK_clean_linker_0, # of connection points: 2
#     Edge 40, Type (0, 0), BuildingBlock: EZIPEK_clean_linker_0, # of connection points: 2
#     Edge 41, Type (0, 0), BuildingBlock: EZIPEK_clean_linker_0, # of connection points: 2
#     Edge 42, Type (0, 0), BuildingBlock: EZIPEK_clean_linker_0, # of connection points: 2
#     Edge 43, Type (0, 0), BuildingBlock: EZIPEK_clean_linker_0, # of connection points: 2
#     Edge 44, Type (0, 0), BuildingBlock: EZIPEK_clean_linker_0, # of connection points: 2
#     Edge 45, Type (0, 0), BuildingBlock: EZIPEK_clean_linker_0, # of connection points: 2
#     Edge 46, Type (0, 0), BuildingBlock: EZIPEK_clean_linker_0, # of connection points: 2
#     Edge 47, Type (0, 0), BuildingBlock: EZIPEK_clean_linker_0, # of connection points: 2
# Relax obj value: 0.061
# Max RMSD: 0.094
# Mean RMSD: 0.094
data_MOF--net-uou--node1-QUQFOY_clean_sbu_1--edge1-EZIPEK_clean_linker_0
_symmetry_space_group_name_H-M    P1
_symmetry_Int_Tables_number       1
_symmetry_cell_setting            triclinic
loop_
_symmetry_equiv_pos_as_xyz
'x, y, z'
_cell_length_a     30.176769
_cell_length_b     27.793238
_cell_length_c     41.922715
_cell_angle_alpha  90.047445
_cell_angle_beta   89.954156
_cell_angle_gamma 90.044271
loop_
_atom_site_label
_atom_site_type_symbol
_atom_site_fract_x
_atom_site_fract_y
_atom_site_fract_z
_atom_type_partial_charge
O0 O 1.03416 0.10606 0.13901 0.0
Cd1 Cd 0.0461 0.03348 0.1406 0.0
Cd2 Cd 0.12401 0.06101 0.11919 0.0
O3 O 0.10448 0.12746 0.13634 0.0
O4 O 1.01016 0.00965 0.177 0.0
O5 O 0.0839 0.00992 0.17611 0.0
C6 C 0.04737 0.00455 0.19187 0.0
C7 C 0.19563 0.03081 0.12597 0.0
C8 C 0.06381 0.13838 0.13968 0.0
C9 C 0.06074 0.0117 0.07396 0.0
O10 O 0.09394 0.03938 0.07739 0.0
O11 O 0.03804 -0.0018 0.09793 0.0
O12 O 0.18797 0.06704 0.10761 0.0
O13 O 0.16292 0.01308 0.14196 0.0
O14 O 0.53011 0.86815 0.13891 0.0
Cd15 Cd 0.51848 0.9409 0.13998 0.0
Cd16 Cd 0.44156 0.91321 0.11548 0.0
O17 O 0.46092 0.84562 0.13048 0.0
O18 O 0.55478 0.96437 0.1764 0.0
O19 O 0.48117 0.96618 0.1755 0.0
C20 C 0.51774 0.97101 0.19124 0.0
C21 C 0.37012 0.94318 0.12355 0.0
C22 C 0.50107 0.83534 0.13659 0.0
C23 C 0.50647 0.96517 0.0728 0.0
O24 O 0.47256 0.93821 0.07487 0.0
O25 O 0.52885 0.97629 0.09744 0.0
O26 O 0.37759 0.90857 0.10377 0.0
O27 O 0.40298 0.95939 0.14008 0.0
O28 O 0.54052 0.87223 0.38205 0.0
Cd29 Cd 0.55075 0.94511 0.3791 0.0
Cd30 Cd 0.62909 0.91948 0.40067 0.0
O31 O 0.61119 0.85212 0.38415 0.0
O32 O 0.50614 0.96732 0.34757 0.0
O33 O 0.57873 0.96856 0.33866 0.0
C34 C 0.53877 0.97366 0.32808 0.0
C35 C 0.6994 0.95243 0.39232 0.0
C36 C 0.57066 0.8405 0.38121 0.0
C37 C 0.56569 0.96837 0.44571 0.0
O38 O 0.59887 0.94061 0.44269 0.0
O39 O 0.54351 0.98151 0.42148 0.0
O40 O 0.6934 0.91646 0.41124 0.0
O41 O 0.66564 0.96846 0.37665 0.0
O42 O 0.0352 0.11393 0.37949 0.0
Cd43 Cd 1.02121 0.04184 0.37908 0.0
Cd44 Cd 0.94432 0.07211 0.40226 0.0
O45 O 0.9667 0.13906 0.38755 0.0
O46 O 0.06319 0.01536 0.34713 0.0
O47 O 0.9902 0.0169 0.34026 0.0
C48 C 1.02932 0.00902 0.32882 0.0
C49 C 0.87286 0.04314 0.39281 0.0
C50 C 1.00729 0.14783 0.3817 0.0
C51 C 1.00589 0.01927 0.44651 0.0
O52 O 0.97219 0.04635 0.44379 0.0
O53 O 1.02885 0.0078 0.42223 0.0
O54 O 0.87996 0.0783 0.41225 0.0
O55 O 0.90614 0.02624 0.37697 0.0
O56 O 0.97525 0.94334 0.94104 0.0
Cd57 Cd 0.94496 0.92175 0.89931 0.0
Cd58 Cd 1.02294 0.9488 0.87776 0.0
O59 O 1.0313 0.98414 0.92039 0.0
O60 O 0.88103 0.91615 0.911 0.0
O61 O 0.90623 0.96981 0.8765 0.0
C62 C 0.87348 0.95234 0.89258 0.0
C63 C 1.022 0.97765 0.82646 0.0
C64 C 1.00859 0.97083 0.94439 0.0
C65 C 1.00469 0.84398 0.87883 0.0
O66 O 1.03449 0.87615 0.87939 0.0
O67 O 0.96409 0.85512 0.88225 0.0
O68 O 0.05912 0.97226 0.84139 0.0
O69 O 0.98539 0.97264 0.84218 0.0
O70 O 0.59681 0.04529 0.94396 0.0
Cd71 Cd 0.6277 0.07022 0.90329 0.0
Cd72 Cd 0.55084 0.04217 0.87886 0.0
O73 O 0.54062 0.00692 0.92146 0.0
O74 O 0.69171 0.07505 0.91488 0.0
O75 O 0.66628 0.02401 0.87872 0.0
C76 C 0.69917 0.04036 0.89517 0.0
C77 C 0.5518 0.01182 0.82766 0.0
C78 C 0.56299 0.01821 0.94608 0.0
C79 C 0.56793 0.14779 0.88203 0.0
O80 O 0.53898 0.11488 0.87978 0.0
O81 O 0.60811 0.13767 0.88815 0.0
O82 O 0.5147 0.01835 0.84243 0.0
O83 O 0.58831 0.0169 0.84343 0.0
O84 O 0.4721 0.04056 0.57599 0.0
Cd85 Cd 0.44173 0.06181 0.61793 0.0
Cd86 Cd 0.52 0.03646 0.63961 0.0
O87 O 0.52744 -0.0002 0.59735 0.0
O88 O 0.37743 0.06468 0.60728 0.0
O89 O 0.4052 0.01289 0.642 0.0
C90 C 0.37145 0.0288 0.62628 0.0
C91 C 0.53161 0.00824 0.69075 0.0
C92 C 0.50531 0.01281 0.57306 0.0
C93 C 0.49998 0.141 0.63727 0.0
O94 O 0.53018 0.10933 0.63648 0.0
O95 O 0.45947 0.12928 0.63434 0.0
O96 O 0.56439 0.01447 0.67138 0.0
O97 O 0.49173 0.01325 0.68 0.0
O98 O 0.09887 0.93467 0.57479 0.0
Cd99 Cd 0.12658 0.90906 0.61641 0.0
Cd100 Cd 0.04966 0.93957 0.63944 0.0
O101 O 0.04225 0.97344 0.59621 0.0
O102 O 0.19096 0.90275 0.60652 0.0
O103 O 0.16472 0.95501 0.64165 0.0
C104 C 0.19803 0.93801 0.62589 0.0
C105 C 0.04107 0.9726 0.68961 0.0
C106 C 0.06523 0.96181 0.57197 0.0
C107 C 0.06346 0.83353 0.63702 0.0
O108 O 0.0356 0.8675 0.63912 0.0
O109 O 0.10408 0.8422 0.63121 0.0
O110 O 1.00738 0.9662 0.67113 0.0
O111 O 0.0803 0.96468 0.67838 0.0
O112 O 0.53654 0.60679 0.13643 0.0
Cd113 Cd 0.5499 0.53465 0.13934 0.0
Cd114 Cd 0.62645 0.5638 0.11737 0.0
O115 O 0.60622 0.63055 0.13359 0.0
O116 O 0.50709 0.51065 0.17154 0.0
O117 O 0.57997 0.51244 0.17917 0.0
C118 C 0.54056 0.50553 0.19039 0.0
C119 C 0.69711 0.53222 0.12595 0.0
C120 C 0.56526 0.64009 0.13679 0.0
C121 C 0.5645 0.51242 0.07275 0.0
O122 O 0.59672 0.54154 0.07555 0.0
O123 O 0.54323 0.49805 0.09712 0.0
O124 O 0.69082 0.56815 0.10704 0.0
O125 O 0.66347 0.51567 0.14157 0.0
O126 O 1.03167 0.36912 0.13977 0.0
Cd127 Cd 1.01864 0.4414 0.14001 0.0
Cd128 Cd 0.94167 0.41164 0.11653 0.0
O129 O 0.96305 0.34452 0.13146 0.0
O130 O 0.0616 0.46724 0.17153 0.0
O131 O 0.98874 0.46721 0.17913 0.0
C132 C 1.02819 0.47429 0.19018 0.0
C133 C 0.87047 0.44153 0.12566 0.0
C134 C 1.0035 0.33543 0.13748 0.0
C135 C 1.00457 0.46284 0.07229 0.0
O136 O 0.97038 0.43644 0.07501 0.0
O137 O 1.02706 0.47485 0.09667 0.0
O138 O 0.87735 0.40622 0.1063 0.0
O139 O 0.90382 0.45816 0.14155 0.0
O140 O 0.03739 0.37699 0.37941 0.0
Cd141 Cd 0.04849 0.44972 0.37815 0.0
Cd142 Cd 0.12689 0.42319 0.39934 0.0
O143 O 0.10788 0.35646 0.38232 0.0
O144 O 1.01185 0.47317 0.34207 0.0
O145 O 0.08558 0.47446 0.34248 0.0
C146 C 0.0488 0.47914 0.32696 0.0
C147 C 0.19855 0.45355 0.39239 0.0
C148 C 0.06734 0.34505 0.37886 0.0
C149 C 0.06283 0.47103 0.44491 0.0
O150 O 0.09667 0.44438 0.44125 0.0
O151 O 0.03968 0.48406 0.4211 0.0
O152 O 0.19087 0.41742 0.41084 0.0
O153 O 0.16579 0.47121 0.37647 0.0
O154 O 0.53585 0.61159 0.38001 0.0
Cd155 Cd 0.52232 0.53928 0.37838 0.0
Cd156 Cd 0.44558 0.56886 0.40153 0.0
O157 O 0.46657 0.6356 0.3857 0.0
O158 O 0.55813 0.51469 0.34208 0.0
O159 O 0.48445 0.51564 0.34281 0.0
C160 C 0.52096 0.50942 0.32719 0.0
C161 C 0.37373 0.53991 0.3936 0.0
C162 C 0.50729 0.64499 0.38094 0.0
C163 C 0.50846 0.51585 0.4451 0.0
O164 O 0.47558 0.54414 0.4426 0.0
O165 O 0.53067 0.50327 0.42069 0.0
O166 O 0.38158 0.57493 0.41298 0.0
O167 O 0.40643 0.52276 0.37731 0.0
O168 O 0.47217 0.44176 0.94242 0.0
Cd169 Cd 0.44231 0.41931 0.9007 0.0
Cd170 Cd 0.51883 0.44836 0.87858 0.0
O171 O 0.52558 0.48521 0.9207 0.0
O172 O 0.37801 0.41493 0.91121 0.0
O173 O 0.40512 0.46729 0.8765 0.0
C174 C 0.37158 0.45077 0.89225 0.0
C175 C 0.52834 0.47716 0.82747 0.0
C176 C 0.50439 0.47092 0.94513 0.0
C177 C 0.50345 0.34293 0.88141 0.0
O178 O 0.53217 0.37623 0.88169 0.0
O179 O 0.46249 0.35248 0.8846 0.0
O180 O 0.56175 0.47209 0.84637 0.0
O181 O 0.48889 0.4704 0.83866 0.0
O182 O 0.0984 0.54624 0.94389 0.0
Cd183 Cd 0.12688 0.57092 0.90224 0.0
Cd184 Cd 0.04993 0.54091 0.87901 0.0
O185 O 0.04175 0.50757 0.9224 0.0
O186 O 0.19125 0.57654 0.91228 0.0
O187 O 0.16468 0.52436 0.87723 0.0
C188 C 0.19809 0.54115 0.89298 0.0
C189 C 0.04072 0.50781 0.82887 0.0
C190 C 0.06428 0.51975 0.94672 0.0
C191 C 0.06479 0.64689 0.88128 0.0
O192 O 0.03666 0.61314 0.87917 0.0
O193 O 0.10529 0.63791 0.88719 0.0
O194 O 1.0072 0.51473 0.84745 0.0
O195 O 0.08009 0.51517 0.83999 0.0
O196 O 0.97366 0.53712 0.57765 0.0
Cd197 Cd 0.94332 0.55845 0.61949 0.0
Cd198 Cd 1.0216 0.53178 0.64082 0.0
O199 O 1.0305 0.49733 0.59792 0.0
O200 O 0.87939 0.56434 0.60786 0.0
O201 O 0.90425 0.51055 0.64232 0.0
C202 C 0.87158 0.52825 0.62632 0.0
C203 C 1.02093 0.50251 0.69204 0.0
C204 C 1.00745 0.51039 0.57406 0.0
C205 C 1.00295 0.63649 0.63999 0.0
O206 O 1.03284 0.60448 0.6395 0.0
O207 O 0.9624 0.62517 0.63649 0.0
O208 O 0.05799 0.50834 0.67704 0.0
O209 O 0.98426 0.50724 0.67641 0.0
O210 O 0.5948 0.43732 0.57549 0.0
Cd211 Cd 0.62462 0.41284 0.61669 0.0
Cd212 Cd 0.54773 0.44236 0.63959 0.0
O213 O 0.53956 0.47819 0.5972 0.0
O214 O 0.68869 0.40682 0.60543 0.0
O215 O 0.66359 0.4591 0.64094 0.0
C216 C 0.6964 0.44193 0.62478 0.0
C217 C 0.54869 0.47247 0.69072 0.0
C218 C 0.5619 0.46555 0.57286 0.0
C219 C 0.56293 0.33667 0.63727 0.0
O220 O 0.53431 0.37002 0.63805 0.0
O221 O 0.60366 0.34614 0.63261 0.0
O222 O 0.51164 0.46706 0.67571 0.0
O223 O 0.58532 0.46621 0.67525 0.0
C224 C 0.30504 0.98073 0.09617 0.0
C225 C 0.3257 0.96616 0.12499 0.0
C226 C 0.26269 -0.00131 0.15524 0.0
C227 C 0.24003 0.00772 0.12617 0.0
N228 N 0.2357 -0.00512 0.06918 0.0
N229 N 0.32066 0.95365 0.18187 0.0
C230 C 0.26006 -0.00482 0.09668 0.0
C231 C 0.3036 0.97308 0.15459 0.0
N232 N 0.3288 0.98301 0.06843 0.0
N233 N 0.24612 0.01607 0.18331 0.0
H234 H 0.34993 0.93377 0.18227 0.0
H235 H 0.30366 0.95338 0.20351 0.0
H236 H 0.21678 0.03576 0.18469 0.0
H237 H 0.26354 0.01484 0.20474 0.0
H238 H 0.31616 -0.0021 0.04752 0.0
H239 H 0.36258 0.97535 0.06712 0.0
H240 H 0.24786 0.98142 0.04767 0.0
H241 H 0.20193 0.00276 0.06852 0.0
C242 C 0.76318 0.99094 0.42059 0.0
C243 C 0.74309 0.97721 0.39138 0.0
C244 C 0.80635 0.01168 0.36226 0.0
C245 C 0.82853 0.0197 0.39168 0.0
N246 N 0.83197 0.00441 0.44843 0.0
N247 N 0.74873 0.96765 0.3343 0.0
C248 C 0.80806 0.0058 0.42075 0.0
C249 C 0.76547 0.98578 0.36209 0.0
N250 N 0.73896 -0.00823 0.44818 0.0
N251 N 0.82337 0.03019 0.33467 0.0
H252 H 0.71936 0.94793 0.33328 0.0
H253 H 0.76595 0.96845 0.31276 0.0
H254 H 0.85272 0.04998 0.33394 0.0
H255 H 0.80637 0.02971 0.31305 0.0
H256 H 0.75111 0.006 0.46946 0.0
H257 H 0.70525 0.98358 0.44903 0.0
H258 H 0.81949 0.98999 0.46956 0.0
H259 H 0.86573 0.01225 0.44953 0.0
C260 C 0.80934 0.98845 0.92192 0.0
C261 C 0.82919 0.97566 0.89241 0.0
C262 C 0.76556 0.01031 0.86406 0.0
C263 C 0.74361 0.01742 0.89369 0.0
N264 N 0.74076 0.00094 0.95032 0.0
N265 N 0.82283 0.96704 0.8353 0.0
C266 C 0.76439 0.00301 0.9225 0.0
C267 C 0.80643 0.9846 0.86337 0.0
N268 N 0.83383 0.98884 0.94935 0.0
N269 N 0.74841 0.02963 0.83678 0.0
H270 H 0.85213 0.94729 0.8339 0.0
H271 H 0.80532 0.9682 0.81391 0.0
H272 H 0.71918 0.04959 0.8364 0.0
H273 H 0.76531 0.02975 0.8151 0.0
H274 H 0.82182 0.00247 0.97086 0.0
H275 H 0.86758 0.98086 0.94994 0.0
H276 H 0.75349 0.98615 0.97123 0.0
H277 H 0.70701 0.00866 0.95169 0.0
C278 C 0.26286 0.97519 0.5979 0.0
C279 C 0.24235 0.96145 0.62699 0.0
C280 C 0.30536 -0.00445 0.65654 0.0
C281 C 0.32778 0.00397 0.62725 0.0
N282 N 0.332 0.9891 0.57049 0.0
N283 N 0.24744 0.95127 0.68403 0.0
C284 C 0.30774 0.99008 0.59805 0.0
C285 C 0.26449 0.96964 0.65641 0.0
N286 N 0.239 0.97643 0.5702 0.0
N287 N 0.32206 0.01384 0.6843 0.0
H288 H 0.21809 0.93148 0.68478 0.0
H289 H 0.26441 0.95188 0.70566 0.0
H290 H 0.35142 0.03358 0.68529 0.0
H291 H 0.30482 0.01315 0.70583 0.0
H292 H 0.2515 0.99073 0.54905 0.0
H293 H 0.20524 0.96857 0.56909 0.0
H294 H 0.31988 0.97474 0.54924 0.0
H295 H 0.36571 -0.0027 0.56964 0.0
C296 C 0.80404 0.47345 0.15611 0.0
C297 C 0.82632 0.4653 0.12673 0.0
C298 C 0.76118 0.49414 0.0977 0.0
C299 C 0.74098 0.5079 0.12689 0.0
N300 N 0.74639 0.5176 0.18396 0.0
N301 N 0.83005 0.48041 0.06996 0.0
C302 C 0.76323 0.4994 0.15621 0.0
C303 C 0.80602 0.47919 0.09762 0.0
N304 N 0.82087 0.45496 0.18375 0.0
N305 N 0.73708 0.49326 0.07009 0.0
H306 H 0.86378 0.47244 0.06892 0.0
H307 H 0.81772 0.49478 0.0488 0.0
H308 H 0.70341 0.50152 0.06916 0.0
H309 H 0.74929 0.47894 0.04884 0.0
H310 H 0.80376 0.45552 0.20533 0.0
H311 H 0.85015 0.43511 0.18454 0.0
H312 H 0.7635 0.51683 0.20553 0.0
H313 H 0.71706 0.53735 0.18491 0.0
C314 C 0.30667 0.51052 0.36302 0.0
C315 C 0.32909 0.51736 0.39247 0.0
C316 C 0.26357 0.48878 0.42124 0.0
C317 C 0.24308 0.47643 0.39188 0.0
N318 N 0.24854 0.46796 0.3347 0.0
N319 N 0.33271 0.50064 0.44902 0.0
C320 C 0.26551 0.48526 0.36265 0.0
C321 C 0.30865 0.50297 0.42143 0.0
N322 N 0.32372 0.52961 0.3356 0.0
N323 N 0.23955 0.48916 0.44891 0.0
H324 H 0.36651 0.50829 0.4501 0.0
H325 H 0.32027 0.48579 0.47002 0.0
H326 H 0.20573 0.48153 0.4498 0.0
H327 H 0.25205 0.50245 0.47035 0.0
H328 H 0.30654 0.53 0.31406 0.0
H329 H 0.35326 0.54907 0.335 0.0
H330 H 0.26574 0.46902 0.31316 0.0
H331 H 0.21905 0.44846 0.33351 0.0
C332 C 0.26282 0.50382 0.92086 0.0
C333 C 0.24229 0.51751 0.8918 0.0
C334 C 0.30522 0.48337 0.86216 0.0
C335 C 0.32769 0.47505 0.89141 0.0
N336 N 0.33199 0.49002 0.94816 0.0
N337 N 0.24731 0.52756 0.83474 0.0
C338 C 0.30769 0.48895 0.92064 0.0
C339 C 0.26437 0.50925 0.86235 0.0
N340 N 0.239 0.5027 0.94861 0.0
N341 N 0.32189 0.46507 0.83438 0.0
H342 H 0.218 0.54736 0.83401 0.0
H343 H 0.26426 0.52691 0.81308 0.0
H344 H 0.35125 0.44537 0.83337 0.0
H345 H 0.30463 0.4657 0.81288 0.0
H346 H 0.25151 0.48846 0.96976 0.0
H347 H 0.20526 0.5106 0.94977 0.0
H348 H 0.31992 0.50444 0.96942 0.0
H349 H 0.36568 0.4818 0.94898 0.0
C350 C 0.76328 0.47146 0.65549 0.0
C351 C 0.74101 0.46453 0.62599 0.0
C352 C 0.80667 0.49301 0.59734 0.0
C353 C 0.82702 0.50543 0.62674 0.0
N354 N 0.8213 0.51408 0.6839 0.0
N355 N 0.73766 0.48106 0.56941 0.0
C356 C 0.80444 0.4967 0.65592 0.0
C357 C 0.76159 0.47882 0.59706 0.0
N358 N 0.74609 0.45247 0.68289 0.0
N359 N 0.83081 0.49256 0.56973 0.0
H360 H 0.70386 0.4734 0.56825 0.0
H361 H 0.7502 0.49585 0.54842 0.0
H362 H 0.86464 0.50018 0.56891 0.0
H363 H 0.81841 0.47921 0.54827 0.0
H364 H 0.76316 0.45214 0.70447 0.0
H365 H 0.71654 0.43303 0.68344 0.0
H366 H 0.804 0.51309 0.7054 0.0
H367 H 0.8508 0.53356 0.68512 0.0
C368 C 1.02472 0.9627 0.27715 0.0
C369 C 0.03602 0.0052 0.29398 0.0
C370 C 0.06278 0.04251 0.24467 0.0
C371 C 0.04764 0.00186 0.22716 0.0
N372 N 1.01211 0.92424 0.2258 0.0
N373 N 0.0573 0.08901 0.2932 0.0
C374 C 1.02797 0.96214 0.24317 0.0
C375 C 0.05312 0.04587 0.27766 0.0
N376 N 1.01187 0.92276 0.29376 0.0
N377 N 0.08588 0.07858 0.22991 0.0
H378 H 0.04996 0.09379 0.31728 0.0
H379 H 0.06384 0.1214 0.28163 0.0
H380 H 0.09079 0.08081 0.2054 0.0
H381 H 0.10299 0.1052 0.24235 0.0
H382 H 1.00713 0.88911 0.28342 0.0
H383 H 1.00878 0.92258 0.31856 0.0
H384 H 0.99304 0.89661 0.23541 0.0
H385 H 1.01654 0.92144 0.20118 0.0
C386 C 0.53956 0.01542 0.24131 0.0
C387 C 0.51759 0.97605 0.22649 0.0
C388 C 0.51025 0.93581 0.27825 0.0
C389 C 0.5302 0.97612 0.29334 0.0
N390 N 0.55845 0.05693 0.29064 0.0
N391 N 0.47511 0.90231 0.23159 0.0
C392 C 0.54337 0.01677 0.27525 0.0
C393 C 0.50034 0.93772 0.24523 0.0
N394 N 0.55704 0.05124 0.22284 0.0
N395 N 0.50378 0.89402 0.29494 0.0
H396 H 0.46991 0.89875 0.20719 0.0
H397 H 0.45656 0.87781 0.24484 0.0
H398 H 0.51123 0.8901 0.31905 0.0
H399 H 0.4951 0.86149 0.28429 0.0
H400 H 0.57788 0.07805 0.23154 0.0
H401 H 0.5521 0.05303 0.19824 0.0
H402 H 0.56474 0.08955 0.27934 0.0
H403 H 0.56166 0.05867 0.3154 0.0
C404 C 1.01637 0.93622 0.74071 0.0
C405 C 1.03402 0.97663 0.7244 0.0
C406 C 0.04205 0.01976 0.77519 0.0
C407 C 1.02186 0.98032 0.79117 0.0
N408 N 0.98281 0.90409 0.78834 0.0
N409 N 0.05892 0.05881 0.72462 0.0
C410 C 1.00644 0.93982 0.77364 0.0
C411 C 0.04557 0.01907 0.74122 0.0
N412 N 1.01197 0.89305 0.72523 0.0
N413 N 0.05813 0.05754 0.79258 0.0
H414 H 0.0622 0.05889 0.69983 0.0
H415 H 0.06388 0.09245 0.73494 0.0
H416 H 0.0535 0.06047 0.81717 0.0
H417 H 0.07757 0.0849 0.78301 0.0
H418 H 1.005 0.86079 0.73683 0.0
H419 H 1.01956 0.88806 0.70121 0.0
H420 H 0.96553 0.87766 0.77584 0.0
H421 H 0.97763 0.902 0.81282 0.0
C422 C 0.55956 0.04658 0.74057 0.0
C423 C 0.53991 0.00606 0.72553 0.0
C424 C 0.53037 0.96704 0.77764 0.0
C425 C 0.55208 0.00662 0.79242 0.0
N426 N 0.59421 0.08058 0.78726 0.0
N427 N 0.51195 0.92514 0.72836 0.0
C428 C 0.56926 0.04494 0.77363 0.0
C429 C 0.52677 0.96547 0.74369 0.0
N430 N 0.56597 0.08828 0.72378 0.0
N431 N 0.51293 0.93125 0.79615 0.0
H432 H 0.50889 0.92324 0.70359 0.0
H433 H 0.50571 0.89256 0.73972 0.0
H434 H 0.51772 0.92964 0.82077 0.0
H435 H 0.49227 0.90427 0.78745 0.0
H436 H 0.57443 0.12093 0.73436 0.0
H437 H 0.55869 0.09199 0.69962 0.0
H438 H 0.61275 0.10509 0.774 0.0
H439 H 0.59922 0.08434 0.81166 0.0
C440 C 0.51552 0.54524 0.24034 0.0
C441 C 0.53316 0.50377 0.22521 0.0
C442 C 0.54084 0.46398 0.27715 0.0
C443 C 0.52082 0.50452 0.29199 0.0
N444 N 0.48195 0.58052 0.28701 0.0
N445 N 0.55776 0.42162 0.22774 0.0
C446 C 0.50553 0.54385 0.27334 0.0
C447 C 0.54449 0.46245 0.24321 0.0
N448 N 0.51116 0.58731 0.22363 0.0
N449 N 0.55662 0.42725 0.29558 0.0
H450 H 0.56111 0.4199 0.20298 0.0
H451 H 0.56257 0.38868 0.23898 0.0
H452 H 0.55177 0.42583 0.32021 0.0
H453 H 0.576 0.39924 0.28682 0.0
H454 H 0.50426 0.62033 0.23429 0.0
H455 H 0.51866 0.59064 0.19947 0.0
H456 H 0.46484 0.6062 0.27378 0.0
H457 H 0.47656 0.58406 0.3114 0.0
C458 C 0.064 0.44162 0.27397 0.0
C459 C 0.0486 0.48197 0.29165 0.0
C460 C 1.02409 0.52062 0.24191 0.0
C461 C 0.0356 0.4783 0.22496 0.0
N462 N 0.05778 0.39478 0.22564 0.0
N463 N 1.01186 0.55884 0.2934 0.0
C464 C 0.05358 0.43797 0.24113 0.0
C465 C 1.02799 0.52126 0.27586 0.0
N466 N 0.08805 0.40608 0.28843 0.0
N467 N 1.01042 0.56034 0.22545 0.0
H468 H 1.01673 0.56174 0.31797 0.0
H469 H 0.99213 0.58604 0.28399 0.0
H470 H 1.00689 0.56049 0.20069 0.0
H471 H 1.00547 0.59391 0.23586 0.0
H472 H 0.10525 0.37978 0.27576 0.0
H473 H 0.09368 0.40406 0.31286 0.0
H474 H 0.06504 0.36259 0.23721 0.0
H475 H 0.04966 0.38968 0.20173 0.0
C476 C 0.5285 0.51819 0.74059 0.0
C477 C 0.54859 0.47755 0.72591 0.0
C478 C 0.5535 0.4371 0.77767 0.0
C479 C 0.53584 0.47868 0.79265 0.0
N480 N 0.51135 0.56085 0.78985 0.0
N481 N 0.58732 0.40152 0.7312 0.0
C482 C 0.52466 0.51991 0.77452 0.0
C483 C 0.5637 0.4383 0.74471 0.0
N484 N 0.51285 0.55482 0.72202 0.0
N485 N 0.55769 0.39511 0.79449 0.0
H486 H 0.59289 0.39787 0.70684 0.0
H487 H 0.6043 0.37588 0.74454 0.0
H488 H 0.55002 0.39193 0.81864 0.0
H489 H 0.56462 0.36202 0.78394 0.0
H490 H 0.49345 0.5829 0.73066 0.0
H491 H 0.51783 0.55609 0.69741 0.0
H492 H 0.50664 0.59373 0.77851 0.0
H493 H 0.50784 0.56271 0.81459 0.0
C494 C 1.01561 0.54397 0.77781 0.0
C495 C 1.03348 0.50368 0.79409 0.0
C496 C 0.04138 0.46055 0.74327 0.0
C497 C 1.02092 0.49982 0.72735 0.0
N498 N 0.98153 0.57577 0.73033 0.0
N499 N 0.05863 0.42164 0.79379 0.0
C500 C 1.00543 0.54024 0.74493 0.0
C501 C 0.04508 0.4613 0.77723 0.0
N502 N 1.01128 0.58719 0.79323 0.0
N503 N 0.05758 0.42289 0.72584 0.0
H504 H 0.06201 0.42158 0.81857 0.0
H505 H 0.06364 0.38803 0.78345 0.0
H506 H 0.05286 0.41991 0.70126 0.0
H507 H 0.07722 0.3957 0.73535 0.0
H508 H 1.00412 0.61936 0.78161 0.0
H509 H 1.01917 0.59233 0.81718 0.0
H510 H 0.96425 0.60211 0.7429 0.0
H511 H 0.97613 0.57776 0.70587 0.0
C512 C 0.05781 0.21808 0.11271 0.0
C513 C 0.05006 0.18937 0.1401 0.0
C514 C 1.00849 0.25541 0.16503 0.0
C515 C 1.01924 0.28512 0.13863 0.0
N516 N 0.05983 0.29759 0.08955 0.0
N517 N 1.0229 0.1813 0.1939 0.0
C518 C 0.04583 0.26736 0.11324 0.0
C519 C 1.02658 0.20815 0.16671 0.0
N520 N 0.0741 0.19759 0.0854 0.0
N521 N 0.98098 0.2724 0.18839 0.0
H522 H 0.03554 0.14653 0.19579 0.0
H523 H 1.01034 0.19443 0.21533 0.0
H524 H 0.96907 0.30762 0.18875 0.0
H525 H 0.96784 0.25105 0.20646 0.0
H526 H 0.07533 0.21534 0.06355 0.0
H527 H 0.0826 0.16134 0.08357 0.0
H528 H 0.08383 0.2882 0.07281 0.0
H529 H 0.05003 0.33339 0.08787 0.0
C530 C 0.51801 0.75874 0.10804 0.0
C531 C 0.51563 0.78466 0.13717 0.0
C532 C 0.55026 0.71734 0.16565 0.0
C533 C 0.54991 0.69043 0.13691 0.0
N534 N 0.52914 0.68218 0.08156 0.0
N535 N 0.52448 0.78816 0.19421 0.0
C536 C 0.53242 0.71015 0.10835 0.0
C537 C 0.53051 0.76386 0.16616 0.0
N538 N 0.50859 0.78134 0.07985 0.0
N539 N 0.56977 0.69844 0.19227 0.0
H540 H 0.51023 0.82229 0.19525 0.0
H541 H 0.53051 0.77352 0.21662 0.0
H542 H 0.58331 0.66392 0.19284 0.0
H543 H 0.57511 0.71769 0.21321 0.0
H544 H 0.51499 0.7664 0.05754 0.0
H545 H 0.4974 0.81676 0.07848 0.0
H546 H 0.51144 0.69225 0.06134 0.0
H547 H 0.54187 0.64736 0.08008 0.0
C548 C 0.53574 0.717 0.35124 0.0
C549 C 0.52284 0.69535 0.38047 0.0
C550 C 0.54819 0.76625 0.41009 0.0
C551 C 0.55753 0.78942 0.38072 0.0
N552 N 0.55764 0.78983 0.3233 0.0
N553 N 0.51298 0.69962 0.43755 0.0
C554 C 0.55067 0.76559 0.35123 0.0
C555 C 0.52791 0.72012 0.40987 0.0
N556 N 0.53442 0.69076 0.32366 0.0
N557 N 0.55985 0.78799 0.43817 0.0
H558 H 0.49986 0.66494 0.4387 0.0
H559 H 0.51086 0.71789 0.45917 0.0
H560 H 0.57463 0.82189 0.43923 0.0
H561 H 0.5583 0.77119 0.46032 0.0
H562 H 0.54767 0.70244 0.30208 0.0
H563 H 0.52232 0.65566 0.32273 0.0
H564 H 0.54839 0.77678 0.301 0.0
H565 H 0.57077 0.82455 0.32254 0.0
C566 C 0.06165 0.26544 0.40601 0.0
C567 C 0.05401 0.2939 0.37851 0.0
C568 C 1.0128 0.22747 0.3537 0.0
C569 C 1.02334 0.19805 0.38027 0.0
N570 N 0.06397 0.18607 0.42933 0.0
N571 N 1.02738 0.30136 0.32457 0.0
C572 C 0.04985 0.21609 0.4056 0.0
C573 C 1.03083 0.27478 0.35189 0.0
N574 N 0.07765 0.2862 0.43331 0.0
N575 N 0.98553 0.21017 0.3303 0.0
H576 H 0.04006 0.33613 0.32258 0.0
H577 H 1.01501 0.28801 0.30316 0.0
H578 H 0.97374 0.17488 0.33002 0.0
H579 H 0.97252 0.23131 0.31211 0.0
H580 H 0.07869 0.26861 0.45522 0.0
H581 H 0.08609 0.32249 0.43505 0.0
H582 H 0.08784 0.19575 0.44608 0.0
H583 H 0.05449 0.15017 0.43098 0.0
C584 C 1.02268 0.71511 0.90552 0.0
C585 C 0.04898 0.69716 0.88004 0.0
C586 C 0.04137 0.77393 0.85175 0.0
C587 C 1.01823 0.79292 0.87845 0.0
N588 N 0.99468 0.78508 0.93328 0.0
N589 N 0.08662 0.70946 0.82998 0.0
C590 C 1.01072 0.7644 0.90596 0.0
C591 C 0.05942 0.72666 0.85347 0.0
N592 N 1.00892 0.68504 0.92937 0.0
N593 N 0.04476 0.8006 0.82446 0.0
H594 H 0.09849 0.67422 0.82966 0.0
H595 H 0.09953 0.73065 0.81175 0.0
H596 H 1.03211 0.83536 0.82255 0.0
H597 H 0.05706 0.78733 0.803 0.0
H598 H 0.98512 0.69455 0.94623 0.0
H599 H 1.01873 0.64925 0.93109 0.0
H600 H 0.99365 0.76748 0.95519 0.0
H601 H 0.98615 0.82133 0.93504 0.0
C602 C 0.53638 0.27306 0.91 0.0
C603 C 0.51881 0.29259 0.88141 0.0
C604 C 0.53823 0.21902 0.85232 0.0
C605 C 0.55322 0.19843 0.88134 0.0
N606 N 0.56037 0.20207 0.93865 0.0
N607 N 0.49881 0.28423 0.8261 0.0
C608 C 0.55086 0.2245 0.91041 0.0
C609 C 0.51842 0.26552 0.85274 0.0
N610 N 0.53968 0.30119 0.93671 0.0
N611 N 0.54423 0.19458 0.82433 0.0
H612 H 0.48523 0.31873 0.82546 0.0
H613 H 0.49344 0.26485 0.80521 0.0
H614 H 0.55851 0.16046 0.82335 0.0
H615 H 0.53813 0.20908 0.80189 0.0
H616 H 0.55744 0.29126 0.95694 0.0
H617 H 0.52689 0.33599 0.93813 0.0
H618 H 0.55399 0.21713 0.96093 0.0
H619 H 0.5716 0.16667 0.94009 0.0
C620 C 0.52279 0.21503 0.60828 0.0
C621 C 0.51302 0.19211 0.63766 0.0
C622 C 0.53412 0.26488 0.66702 0.0
C623 C 0.54749 0.28628 0.63781 0.0
N624 N 0.55831 0.28146 0.58084 0.0
N625 N 0.51197 0.19224 0.69508 0.0
C626 C 0.54297 0.26121 0.60848 0.0
C627 C 0.51932 0.21624 0.66711 0.0
N628 N 0.51158 0.19302 0.58019 0.0
N629 N 0.53489 0.29139 0.6945 0.0
H630 H 0.49895 0.15747 0.69587 0.0
H631 H 0.52081 0.20555 0.7174 0.0
H632 H 0.5469 0.32653 0.69539 0.0
H633 H 0.52128 0.27988 0.716 0.0
H634 H 0.51347 0.20962 0.558 0.0
H635 H 0.4968 0.15912 0.57916 0.0
H636 H 0.56087 0.26297 0.55932 0.0
H637 H 0.57133 0.31619 0.57964 0.0
C638 C 0.05767 0.75399 0.66511 0.0
C639 C 0.04731 0.78335 0.63847 0.0
C640 C 1.00895 0.71599 0.61274 0.0
C641 C 1.0164 0.6876 0.64031 0.0
N642 N 0.04278 0.68023 0.69431 0.0
N643 N 1.00697 0.79528 0.58929 0.0
C644 C 0.0395 0.70674 0.66695 0.0
C645 C 1.02088 0.76531 0.61311 0.0
N646 N 0.08488 0.77129 0.68854 0.0
N647 N 0.993 0.69519 0.58544 0.0
H648 H 1.01657 0.83115 0.5876 0.0
H649 H 0.98314 0.78563 0.5725 0.0
H650 H 0.98445 0.65893 0.58374 0.0
H651 H 0.99209 0.71271 0.5635 0.0
H652 H 0.09776 0.75017 0.7068 0.0
H653 H 0.09678 0.80654 0.68879 0.0
H654 H 0.05509 0.69362 0.71573 0.0
H655 H 1.03001 0.64551 0.69632 0.0
C656 C 0.99562 0.01272 0.99637 0.0
C657 C 1.02305 0.98322 0.97704 0.0
C658 C 0.07381 0.96995 0.02195 0.0
C659 C 0.04635 -0.0006 0.04129 0.0
N660 N 0.98538 0.05504 0.0465 0.0
N661 N 0.084 0.92754 0.97185 0.0
C662 C 1.00809 0.02211 0.0285 0.0
C663 C 0.06131 0.96052 0.98983 0.0
N664 N 0.95716 0.03098 0.98404 0.0
N665 N 0.11233 0.95178 0.03425 0.0
H666 H 0.07605 0.91954 0.94824 0.0
H667 H 0.10892 0.90546 0.9807 0.0
H668 H 0.121 0.95504 0.05824 0.0
H669 H 0.13692 0.93551 0.0206 0.0
H670 H 0.93257 0.04731 0.99766 0.0
H671 H 0.94853 0.0278 0.96004 0.0
H672 H 0.96044 0.07711 0.03767 0.0
H673 H 0.99331 0.063 0.07012 0.0
C674 C 0.5283 0.03961 0.99831 0.0
C675 C 0.54743 0.00404 0.97816 0.0
C676 C 0.54124 0.94379 0.0206 0.0
C677 C 0.52212 0.97936 0.04075 0.0
N678 N 0.50111 0.06144 0.05103 0.0
N679 N 0.56857 0.92199 0.96791 0.0
C680 C 0.51674 0.02745 0.03024 0.0
C681 C 0.55285 0.95596 0.98868 0.0
N682 N 0.51925 0.0843 0.98623 0.0
N683 N 0.55023 0.89907 0.03267 0.0
H684 H 0.57901 0.93017 0.94481 0.0
H685 H 0.56929 0.88528 0.9726 0.0
H686 H 0.54291 0.88918 0.05609 0.0
H687 H 0.56755 0.87243 0.02053 0.0
H688 H 0.50186 0.11091 0.99837 0.0
H689 H 0.52654 0.0942 0.96282 0.0
H690 H 0.50045 0.09815 0.04634 0.0
H691 H 0.49071 0.05327 0.07413 0.0
C692 C 0.51615 0.95366 0.52859 0.0
C693 C 0.52141 0.00092 0.5407 0.0
C694 C 0.555 0.02745 0.49024 0.0
C695 C 0.54972 0.9802 0.47811 0.0
N696 N 0.52004 0.89991 0.48292 0.0
N697 N 0.55121 0.08115 0.53593 0.0
C698 C 0.52917 0.94355 0.49663 0.0
C699 C 0.54201 0.03755 0.5222 0.0
N700 N 0.49931 0.91843 0.54791 0.0
N701 N 0.57184 0.0627 0.47092 0.0
H702 H 0.54303 0.0895 0.55946 0.0
H703 H 0.56967 0.10819 0.5251 0.0
H704 H 0.58344 0.05598 0.4479 0.0
H705 H 0.57228 0.09907 0.47672 0.0
H706 H 0.49883 0.88205 0.54211 0.0
H707 H 0.48771 0.92516 0.57093 0.0
H708 H 0.50163 0.87285 0.49376 0.0
H709 H 0.52827 0.89154 0.4594 0.0
C710 C 0.03659 0.94088 0.51758 0.0
C711 C 0.05072 0.97664 0.53971 0.0
C712 C 1.03468 0.04018 0.50086 0.0
C713 C 1.02053 0.00443 0.47874 0.0
N714 N 1.01092 0.9212 0.46421 0.0
N715 N 0.06049 0.05986 0.5542 0.0
C716 C 1.02241 0.95487 0.48659 0.0
C717 C 0.0489 0.02619 0.53185 0.0
N718 N 1.03415 0.89379 0.52697 0.0
N719 N 0.03707 0.08728 0.49148 0.0
H720 H 0.07469 0.05104 0.57609 0.0
H721 H 0.05452 0.09654 0.55192 0.0
H722 H 1.02679 0.09918 0.46917 0.0
H723 H 0.05173 0.11458 0.50476 0.0
H724 H 1.01945 0.86652 0.51368 0.0
H725 H 0.04441 0.88188 0.54928 0.0
H726 H 1.01697 0.88454 0.46649 0.0
H727 H 0.99678 0.93 0.4423 0.0
C728 C 0.57451 0.47062 0.0204 0.0
C729 C 0.54842 0.50033 0.04048 0.0
C730 C 0.49447 0.51286 0.99744 0.0
C731 C 0.52054 0.48312 0.97736 0.0
N732 N 0.58117 0.42749 0.97027 0.0
N733 N 0.4878 0.55598 0.04757 0.0
C734 C 0.55971 0.46065 0.98887 0.0
C735 C 0.50926 0.52283 0.02897 0.0
N736 N 0.61393 0.45281 0.03138 0.0
N737 N 0.45506 0.53069 0.98645 0.0
H738 H 0.49736 0.56426 0.07084 0.0
H739 H 0.46227 0.57794 0.03952 0.0
H740 H 0.44454 0.52661 0.9629 0.0
H741 H 0.43155 0.54743 1.00082 0.0
H742 H 0.63744 0.4361 0.017 0.0
H743 H 0.62446 0.4569 0.05492 0.0
H744 H 0.60671 0.40554 0.97832 0.0
H745 H 0.57162 0.41922 0.947 0.0
C746 C 1.03316 0.44166 0.01781 0.0
C747 C 1.01968 0.47746 0.04011 0.0
C748 C 0.03585 0.54099 1.00124 0.0
C749 C 0.04932 0.50518 0.97894 0.0
N750 N 0.06777 0.42287 0.96694 0.0
N751 N 1.0014 0.55979 0.05217 0.0
C752 C 0.04943 0.45581 0.98736 0.0
C753 C 1.01964 0.52684 0.03171 0.0
N754 N 1.02985 0.39401 0.02564 0.0
N755 N 0.03909 0.58863 0.99338 0.0
H756 H 0.98871 0.55067 0.07451 0.0
H757 H 0.99561 0.59563 0.04645 0.0
H758 H 0.04784 0.60063 0.97073 0.0
H759 H 0.03546 0.61673 0.00956 0.0
H760 H 1.03345 0.36594 0.00943 0.0
H761 H 1.02104 0.38199 0.04827 0.0
H762 H 0.07362 0.38706 0.97271 0.0
H763 H 0.08051 0.43199 0.94462 0.0
C764 C 0.04017 0.53779 0.52245 0.0
C765 C 1.02266 0.49971 0.54131 0.0
C766 C 1.03024 0.44357 0.49655 0.0
C767 C 0.04771 0.48166 0.47769 0.0
N768 N 0.06555 0.56537 0.47049 0.0
N769 N 1.00479 0.41602 0.54851 0.0
C770 C 0.05154 0.52896 0.49002 0.0
C771 C 1.01883 0.45242 0.52899 0.0
N772 N 0.04799 0.58171 0.53621 0.0
N773 N 1.02248 0.39963 0.48281 0.0
H774 H 0.99434 0.42172 0.57193 0.0
H775 H 1.00552 0.37976 0.54243 0.0
H776 H 1.02966 0.39202 0.45899 0.0
H777 H 1.0062 0.37133 0.49402 0.0
H778 H 0.06433 0.60998 0.525 0.0
H779 H 0.04085 0.58932 0.56003 0.0
H780 H 0.06478 0.60162 0.47658 0.0
H781 H 0.07599 0.55967 0.44706 0.0
C782 C 0.5087 0.45859 0.52743 0.0
C783 C 0.54741 0.47992 0.54061 0.0
C784 C 0.56179 0.52262 0.49046 0.0
C785 C 0.52305 0.50133 0.4773 0.0
N786 N 0.45678 0.45376 0.48328 0.0
N787 N 0.6137 0.52746 0.53462 0.0
C788 C 0.49568 0.47063 0.49583 0.0
C789 C 0.5748 0.5106 0.52208 0.0
N790 N 0.48602 0.42452 0.54449 0.0
N791 N 0.5845 0.55665 0.47339 0.0
H792 H 0.62284 0.52215 0.55835 0.0
H793 H 0.63815 0.54468 0.52136 0.0
H794 H 0.57614 0.56654 0.45018 0.0
H795 H 0.60989 0.57772 0.48269 0.0
H796 H 0.46065 0.40344 0.53518 0.0
H797 H 0.4944 0.4146 0.5677 0.0
H798 H 0.43234 0.43652 0.49654 0.0
H799 H 0.44764 0.45908 0.45955 0.0
loop_
_geom_bond_atom_site_label_1
_geom_bond_atom_site_label_2
_geom_bond_distance
_geom_bond_site_symmetry_2
_ccdc_geom_bond_type
O0 Cd1 2.223 1_655 S
O0 C8 1.315 1_655 S
Cd1 O0 2.223 1_455 S
Cd1 O4 2.297 1_455 S
Cd1 O5 2.439 . S
Cd1 O11 2.240 . S
Cd2 O3 2.240 . S
Cd2 O10 2.223 . S
Cd2 O12 2.297 . S
Cd2 O13 2.439 . S
O3 Cd2 2.240 . S
O3 C8 1.279 . S
O4 Cd1 2.297 1_655 S
O4 C6 1.247 1_655 S
O5 Cd1 2.439 . S
O5 C6 1.208 . S
C6 O4 1.247 1_455 S
C6 O5 1.208 . S
C7 O12 1.247 . S
C7 O13 1.208 . S
C8 O0 1.315 1_455 S
C8 O3 1.279 . S
C9 O10 1.315 . S
C9 O11 1.279 . S
O10 Cd2 2.223 . S
O10 C9 1.315 . S
O11 Cd1 2.240 . S
O11 C9 1.279 . S
O12 Cd2 2.297 . S
O12 C7 1.247 . S
O13 Cd2 2.439 . S
O13 C7 1.208 . S
O14 Cd15 2.223 . S
O14 C22 1.315 . S
Cd15 O14 2.223 . S
Cd15 O18 2.297 . S
Cd15 O19 2.439 . S
Cd15 O25 2.240 . S
Cd16 O17 2.240 . S
Cd16 O24 2.223 . S
Cd16 O26 2.297 . S
Cd16 O27 2.439 . S
O17 Cd16 2.240 . S
O17 C22 1.279 . S
O18 Cd15 2.297 . S
O18 C20 1.247 . S
O19 Cd15 2.439 . S
O19 C20 1.208 . S
C20 O18 1.247 . S
C20 O19 1.208 . S
C21 O26 1.247 . S
C21 O27 1.208 . S
C22 O14 1.315 . S
C22 O17 1.279 . S
C23 O24 1.315 . S
C23 O25 1.279 . S
O24 Cd16 2.223 . S
O24 C23 1.315 . S
O25 Cd15 2.240 . S
O25 C23 1.279 . S
O26 Cd16 2.297 . S
O26 C21 1.247 . S
O27 Cd16 2.439 . S
O27 C21 1.208 . S
O28 Cd29 2.223 . S
O28 C36 1.315 . S
Cd29 O28 2.223 . S
Cd29 O32 2.297 . S
Cd29 O33 2.439 . S
Cd29 O39 2.240 . S
Cd30 O31 2.240 . S
Cd30 O38 2.223 . S
Cd30 O40 2.297 . S
Cd30 O41 2.439 . S
O31 Cd30 2.240 . S
O31 C36 1.279 . S
O32 Cd29 2.297 . S
O32 C34 1.247 . S
O33 Cd29 2.439 . S
O33 C34 1.208 . S
C34 O32 1.247 . S
C34 O33 1.208 . S
C35 O40 1.247 . S
C35 O41 1.208 . S
C36 O28 1.315 . S
C36 O31 1.279 . S
C37 O38 1.315 . S
C37 O39 1.279 . S
O38 Cd30 2.223 . S
O38 C37 1.315 . S
O39 Cd29 2.240 . S
O39 C37 1.279 . S
O40 Cd30 2.297 . S
O40 C35 1.247 . S
O41 Cd30 2.439 . S
O41 C35 1.208 . S
O42 Cd43 2.223 1_455 S
O42 C50 1.315 1_455 S
Cd43 O42 2.223 1_655 S
Cd43 O46 2.297 1_655 S
Cd43 O47 2.439 . S
Cd43 O53 2.240 . S
Cd44 O45 2.240 . S
Cd44 O52 2.223 . S
Cd44 O54 2.297 . S
Cd44 O55 2.439 . S
O45 Cd44 2.240 . S
O45 C50 1.279 . S
O46 Cd43 2.297 1_455 S
O46 C48 1.247 1_455 S
O47 Cd43 2.439 . S
O47 C48 1.208 . S
C48 O46 1.247 1_655 S
C48 O47 1.208 . S
C49 O54 1.247 . S
C49 O55 1.208 . S
C50 O42 1.315 1_655 S
C50 O45 1.279 . S
C51 O52 1.315 . S
C51 O53 1.279 . S
O52 Cd44 2.223 . S
O52 C51 1.315 . S
O53 Cd43 2.240 . S
O53 C51 1.279 . S
O54 Cd44 2.297 . S
O54 C49 1.247 . S
O55 Cd44 2.439 . S
O55 C49 1.208 . S
O56 Cd57 2.223 . S
O56 C64 1.315 . S
Cd57 O56 2.223 . S
Cd57 O60 2.297 . S
Cd57 O61 2.439 . S
Cd57 O67 2.240 . S
Cd58 O59 2.240 . S
Cd58 O66 2.223 1_655 S
Cd58 O68 2.297 1_655 S
Cd58 O69 2.439 . S
O59 Cd58 2.240 . S
O59 C64 1.279 . S
O60 Cd57 2.297 . S
O60 C62 1.247 . S
O61 Cd57 2.439 . S
O61 C62 1.208 . S
C62 O60 1.247 . S
C62 O61 1.208 . S
C63 O68 1.247 1_655 S
C63 O69 1.208 . S
C64 O56 1.315 . S
C64 O59 1.279 . S
C65 O66 1.315 1_655 S
C65 O67 1.279 . S
O66 Cd58 2.223 1_455 S
O66 C65 1.315 1_455 S
O67 Cd57 2.240 . S
O67 C65 1.279 . S
O68 Cd58 2.297 1_455 S
O68 C63 1.247 1_455 S
O69 Cd58 2.439 . S
O69 C63 1.208 . S
O70 Cd71 2.223 . S
O70 C78 1.315 . S
Cd71 O70 2.223 . S
Cd71 O74 2.297 . S
Cd71 O75 2.439 . S
Cd71 O81 2.240 . S
Cd72 O73 2.240 . S
Cd72 O80 2.223 . S
Cd72 O82 2.297 . S
Cd72 O83 2.439 . S
O73 Cd72 2.240 . S
O73 C78 1.279 . S
O74 Cd71 2.297 . S
O74 C76 1.247 . S
O75 Cd71 2.439 . S
O75 C76 1.208 . S
C76 O74 1.247 . S
C76 O75 1.208 . S
C77 O82 1.247 . S
C77 O83 1.208 . S
C78 O70 1.315 . S
C78 O73 1.279 . S
C79 O80 1.315 . S
C79 O81 1.279 . S
O80 Cd72 2.223 . S
O80 C79 1.315 . S
O81 Cd71 2.240 . S
O81 C79 1.279 . S
O82 Cd72 2.297 . S
O82 C77 1.247 . S
O83 Cd72 2.439 . S
O83 C77 1.208 . S
O84 Cd85 2.223 . S
O84 C92 1.315 . S
Cd85 O84 2.223 . S
Cd85 O88 2.297 . S
Cd85 O89 2.439 . S
Cd85 O95 2.240 . S
Cd86 O87 2.240 . S
Cd86 O94 2.223 . S
Cd86 O96 2.297 . S
Cd86 O97 2.439 . S
O87 Cd86 2.240 . S
O87 C92 1.279 . S
O88 Cd85 2.297 . S
O88 C90 1.247 . S
O89 Cd85 2.439 . S
O89 C90 1.208 . S
C90 O88 1.247 . S
C90 O89 1.208 . S
C91 O96 1.247 . S
C91 O97 1.208 . S
C92 O84 1.315 . S
C92 O87 1.279 . S
C93 O94 1.315 . S
C93 O95 1.279 . S
O94 Cd86 2.223 . S
O94 C93 1.315 . S
O95 Cd85 2.240 . S
O95 C93 1.279 . S
O96 Cd86 2.297 . S
O96 C91 1.247 . S
O97 Cd86 2.439 . S
O97 C91 1.208 . S
O98 Cd99 2.223 . S
O98 C106 1.315 . S
Cd99 O98 2.223 . S
Cd99 O102 2.297 . S
Cd99 O103 2.439 . S
Cd99 O109 2.240 . S
Cd100 O101 2.240 . S
Cd100 O108 2.223 1_455 S
Cd100 O110 2.297 1_455 S
Cd100 O111 2.439 . S
O101 Cd100 2.240 . S
O101 C106 1.279 . S
O102 Cd99 2.297 . S
O102 C104 1.247 . S
O103 Cd99 2.439 . S
O103 C104 1.208 . S
C104 O102 1.247 . S
C104 O103 1.208 . S
C105 O110 1.247 1_455 S
C105 O111 1.208 . S
C106 O98 1.315 . S
C106 O101 1.279 . S
C107 O108 1.315 1_455 S
C107 O109 1.279 . S
O108 Cd100 2.223 1_655 S
O108 C107 1.315 1_655 S
O109 Cd99 2.240 . S
O109 C107 1.279 . S
O110 Cd100 2.297 1_655 S
O110 C105 1.247 1_655 S
O111 Cd100 2.439 . S
O111 C105 1.208 . S
O112 Cd113 2.223 . S
O112 C120 1.315 . S
Cd113 O112 2.223 . S
Cd113 O116 2.297 . S
Cd113 O117 2.439 . S
Cd113 O123 2.240 . S
Cd114 O115 2.240 . S
Cd114 O122 2.223 . S
Cd114 O124 2.297 . S
Cd114 O125 2.439 . S
O115 Cd114 2.240 . S
O115 C120 1.279 . S
O116 Cd113 2.297 . S
O116 C118 1.247 . S
O117 Cd113 2.439 . S
O117 C118 1.208 . S
C118 O116 1.247 . S
C118 O117 1.208 . S
C119 O124 1.247 . S
C119 O125 1.208 . S
C120 O112 1.315 . S
C120 O115 1.279 . S
C121 O122 1.315 . S
C121 O123 1.279 . S
O122 Cd114 2.223 . S
O122 C121 1.315 . S
O123 Cd113 2.240 . S
O123 C121 1.279 . S
O124 Cd114 2.297 . S
O124 C119 1.247 . S
O125 Cd114 2.439 . S
O125 C119 1.208 . S
O126 Cd127 2.223 1_455 S
O126 C134 1.315 1_455 S
Cd127 O126 2.223 1_655 S
Cd127 O130 2.297 1_655 S
Cd127 O131 2.439 . S
Cd127 O137 2.240 . S
Cd128 O129 2.240 . S
Cd128 O136 2.223 . S
Cd128 O138 2.297 . S
Cd128 O139 2.439 . S
O129 Cd128 2.240 . S
O129 C134 1.279 . S
O130 Cd127 2.297 1_455 S
O130 C132 1.247 1_455 S
O131 Cd127 2.439 . S
O131 C132 1.208 . S
C132 O130 1.247 1_655 S
C132 O131 1.208 . S
C133 O138 1.247 . S
C133 O139 1.208 . S
C134 O126 1.315 1_655 S
C134 O129 1.279 . S
C135 O136 1.315 . S
C135 O137 1.279 . S
O136 Cd128 2.223 . S
O136 C135 1.315 . S
O137 Cd127 2.240 . S
O137 C135 1.279 . S
O138 Cd128 2.297 . S
O138 C133 1.247 . S
O139 Cd128 2.439 . S
O139 C133 1.208 . S
O140 Cd141 2.223 1_655 S
O140 C148 1.315 1_655 S
Cd141 O140 2.223 1_455 S
Cd141 O144 2.297 1_455 S
Cd141 O145 2.439 . S
Cd141 O151 2.240 . S
Cd142 O143 2.240 . S
Cd142 O150 2.223 . S
Cd142 O152 2.297 . S
Cd142 O153 2.439 . S
O143 Cd142 2.240 . S
O143 C148 1.279 . S
O144 Cd141 2.297 1_655 S
O144 C146 1.247 1_655 S
O145 Cd141 2.439 . S
O145 C146 1.208 . S
C146 O144 1.247 1_455 S
C146 O145 1.208 . S
C147 O152 1.247 . S
C147 O153 1.208 . S
C148 O140 1.315 1_455 S
C148 O143 1.279 . S
C149 O150 1.315 . S
C149 O151 1.279 . S
O150 Cd142 2.223 . S
O150 C149 1.315 . S
O151 Cd141 2.240 . S
O151 C149 1.279 . S
O152 Cd142 2.297 . S
O152 C147 1.247 . S
O153 Cd142 2.439 . S
O153 C147 1.208 . S
O154 Cd155 2.223 . S
O154 C162 1.315 . S
Cd155 O154 2.223 . S
Cd155 O158 2.297 . S
Cd155 O159 2.439 . S
Cd155 O165 2.240 . S
Cd156 O157 2.240 . S
Cd156 O164 2.223 . S
Cd156 O166 2.297 . S
Cd156 O167 2.439 . S
O157 Cd156 2.240 . S
O157 C162 1.279 . S
O158 Cd155 2.297 . S
O158 C160 1.247 . S
O159 Cd155 2.439 . S
O159 C160 1.208 . S
C160 O158 1.247 . S
C160 O159 1.208 . S
C161 O166 1.247 . S
C161 O167 1.208 . S
C162 O154 1.315 . S
C162 O157 1.279 . S
C163 O164 1.315 . S
C163 O165 1.279 . S
O164 Cd156 2.223 . S
O164 C163 1.315 . S
O165 Cd155 2.240 . S
O165 C163 1.279 . S
O166 Cd156 2.297 . S
O166 C161 1.247 . S
O167 Cd156 2.439 . S
O167 C161 1.208 . S
O168 Cd169 2.223 . S
O168 C176 1.315 . S
Cd169 O168 2.223 . S
Cd169 O172 2.297 . S
Cd169 O173 2.439 . S
Cd169 O179 2.240 . S
Cd170 O171 2.240 . S
Cd170 O178 2.223 . S
Cd170 O180 2.297 . S
Cd170 O181 2.439 . S
O171 Cd170 2.240 . S
O171 C176 1.279 . S
O172 Cd169 2.297 . S
O172 C174 1.247 . S
O173 Cd169 2.439 . S
O173 C174 1.208 . S
C174 O172 1.247 . S
C174 O173 1.208 . S
C175 O180 1.247 . S
C175 O181 1.208 . S
C176 O168 1.315 . S
C176 O171 1.279 . S
C177 O178 1.315 . S
C177 O179 1.279 . S
O178 Cd170 2.223 . S
O178 C177 1.315 . S
O179 Cd169 2.240 . S
O179 C177 1.279 . S
O180 Cd170 2.297 . S
O180 C175 1.247 . S
O181 Cd170 2.439 . S
O181 C175 1.208 . S
O182 Cd183 2.223 . S
O182 C190 1.315 . S
Cd183 O182 2.223 . S
Cd183 O186 2.297 . S
Cd183 O187 2.439 . S
Cd183 O193 2.240 . S
Cd184 O185 2.240 . S
Cd184 O192 2.223 1_455 S
Cd184 O194 2.297 1_455 S
Cd184 O195 2.439 . S
O185 Cd184 2.240 . S
O185 C190 1.279 . S
O186 Cd183 2.297 . S
O186 C188 1.247 . S
O187 Cd183 2.439 . S
O187 C188 1.208 . S
C188 O186 1.247 . S
C188 O187 1.208 . S
C189 O194 1.247 1_455 S
C189 O195 1.208 . S
C190 O182 1.315 . S
C190 O185 1.279 . S
C191 O192 1.315 1_455 S
C191 O193 1.279 . S
O192 Cd184 2.223 1_655 S
O192 C191 1.315 1_655 S
O193 Cd183 2.240 . S
O193 C191 1.279 . S
O194 Cd184 2.297 1_655 S
O194 C189 1.247 1_655 S
O195 Cd184 2.439 . S
O195 C189 1.208 . S
O196 Cd197 2.223 . S
O196 C204 1.315 . S
Cd197 O196 2.223 . S
Cd197 O200 2.297 . S
Cd197 O201 2.439 . S
Cd197 O207 2.240 . S
Cd198 O199 2.240 . S
Cd198 O206 2.223 1_655 S
Cd198 O208 2.297 1_655 S
Cd198 O209 2.439 . S
O199 Cd198 2.240 . S
O199 C204 1.279 . S
O200 Cd197 2.297 . S
O200 C202 1.247 . S
O201 Cd197 2.439 . S
O201 C202 1.208 . S
C202 O200 1.247 . S
C202 O201 1.208 . S
C203 O208 1.247 1_655 S
C203 O209 1.208 . S
C204 O196 1.315 . S
C204 O199 1.279 . S
C205 O206 1.315 1_655 S
C205 O207 1.279 . S
O206 Cd198 2.223 1_455 S
O206 C205 1.315 1_455 S
O207 Cd197 2.240 . S
O207 C205 1.279 . S
O208 Cd198 2.297 1_455 S
O208 C203 1.247 1_455 S
O209 Cd198 2.439 . S
O209 C203 1.208 . S
O210 Cd211 2.223 . S
O210 C218 1.315 . S
Cd211 O210 2.223 . S
Cd211 O214 2.297 . S
Cd211 O215 2.439 . S
Cd211 O221 2.240 . S
Cd212 O213 2.240 . S
Cd212 O220 2.223 . S
Cd212 O222 2.297 . S
Cd212 O223 2.439 . S
O213 Cd212 2.240 . S
O213 C218 1.279 . S
O214 Cd211 2.297 . S
O214 C216 1.247 . S
O215 Cd211 2.439 . S
O215 C216 1.208 . S
C216 O214 1.247 . S
C216 O215 1.208 . S
C217 O222 1.247 . S
C217 O223 1.208 . S
C218 O210 1.315 . S
C218 O213 1.279 . S
C219 O220 1.315 . S
C219 O221 1.279 . S
O220 Cd212 2.223 . S
O220 C219 1.315 . S
O221 Cd211 2.240 . S
O221 C219 1.279 . S
O222 Cd212 2.297 . S
O222 C217 1.247 . S
O223 Cd212 2.439 . S
O223 C217 1.208 . S
C224 C225 1.363 1_545 S
C224 C230 1.379 . S
C224 N232 1.356 . S
C225 C224 1.363 1_565 S
C225 C231 1.363 . S
C226 C227 1.363 1_565 S
C226 C231 1.379 . S
C226 N233 1.356 . S
C227 C226 1.363 1_545 S
C227 C230 1.363 . S
N228 C230 1.356 . S
N228 H240 0.984 . S
N228 H241 0.985 . S
N229 C231 1.356 . S
N229 H234 0.984 . S
N229 H235 0.985 . S
C230 C224 1.379 . S
C230 C227 1.363 . S
C230 N228 1.356 . S
C231 C225 1.363 . S
C231 C226 1.379 . S
C231 N229 1.356 . S
N232 C224 1.356 . S
N232 H238 0.984 . S
N232 H239 0.984 . S
N233 C226 1.356 . S
N233 H236 0.984 . S
N233 H237 0.985 . S
H234 N229 0.984 . S
H235 N229 0.985 . S
H236 N233 0.984 . S
H237 N233 0.985 . S
H238 N232 0.984 . S
H239 N232 0.984 . S
H240 N228 0.984 . S
H241 N228 0.985 . S
C242 C243 1.363 1_545 S
C242 C248 1.379 . S
C242 N250 1.356 . S
C243 C242 1.363 1_565 S
C243 C249 1.363 . S
C244 C245 1.363 1_565 S
C244 C249 1.379 . S
C244 N251 1.356 . S
C245 C244 1.363 1_545 S
C245 C248 1.363 . S
N246 C248 1.356 . S
N246 H258 0.984 . S
N246 H259 0.985 . S
N247 C249 1.356 . S
N247 H252 0.984 . S
N247 H253 0.985 . S
C248 C242 1.379 . S
C248 C245 1.363 . S
C248 N246 1.356 . S
C249 C243 1.363 . S
C249 C244 1.379 . S
C249 N247 1.356 . S
N250 C242 1.356 . S
N250 H256 0.984 . S
N250 H257 0.984 . S
N251 C244 1.356 . S
N251 H254 0.984 . S
N251 H255 0.985 . S
H252 N247 0.984 . S
H253 N247 0.985 . S
H254 N251 0.984 . S
H255 N251 0.985 . S
H256 N250 0.984 . S
H257 N250 0.984 . S
H258 N246 0.984 . S
H259 N246 0.985 . S
C260 C261 1.363 . S
C260 C266 1.379 . S
C260 N268 1.356 . S
C261 C260 1.363 . S
C261 C267 1.363 1_565 S
C262 C263 1.363 . S
C262 C267 1.379 . S
C262 N269 1.356 . S
C263 C262 1.363 . S
C263 C266 1.363 1_545 S
N264 C266 1.356 . S
N264 H276 0.984 . S
N264 H277 0.985 . S
N265 C267 1.356 . S
N265 H270 0.984 . S
N265 H271 0.985 . S
C266 C260 1.379 . S
C266 C263 1.363 1_565 S
C266 N264 1.356 . S
C267 C261 1.363 1_545 S
C267 C262 1.379 . S
C267 N265 1.356 . S
N268 C260 1.356 . S
N268 H274 0.984 . S
N268 H275 0.984 . S
N269 C262 1.356 . S
N269 H272 0.984 . S
N269 H273 0.985 . S
H270 N265 0.984 . S
H271 N265 0.985 . S
H272 N269 0.984 . S
H273 N269 0.985 . S
H274 N268 0.984 . S
H275 N268 0.984 . S
H276 N264 0.984 . S
H277 N264 0.985 . S
C278 C279 1.363 . S
C278 C284 1.379 . S
C278 N286 1.356 . S
C279 C278 1.363 . S
C279 C285 1.363 1_565 S
C280 C281 1.363 . S
C280 C285 1.379 . S
C280 N287 1.356 . S
C281 C280 1.363 . S
C281 C284 1.363 1_545 S
N282 C284 1.356 . S
N282 H294 0.984 . S
N282 H295 0.985 . S
N283 C285 1.356 . S
N283 H288 0.984 . S
N283 H289 0.985 . S
C284 C278 1.379 . S
C284 C281 1.363 1_565 S
C284 N282 1.356 . S
C285 C279 1.363 1_545 S
C285 C280 1.379 . S
C285 N283 1.356 . S
N286 C278 1.356 . S
N286 H292 0.984 . S
N286 H293 0.984 . S
N287 C280 1.356 . S
N287 H290 0.984 . S
N287 H291 0.985 . S
H288 N283 0.984 . S
H289 N283 0.985 . S
H290 N287 0.984 . S
H291 N287 0.985 . S
H292 N286 0.984 . S
H293 N286 0.984 . S
H294 N282 0.984 . S
H295 N282 0.985 . S
C296 C297 1.363 . S
C296 C302 1.379 . S
C296 N304 1.356 . S
C297 C296 1.363 . S
C297 C303 1.363 . S
C298 C299 1.363 . S
C298 C303 1.379 . S
C298 N305 1.356 . S
C299 C298 1.363 . S
C299 C302 1.363 . S
N300 C302 1.356 . S
N300 H312 0.984 . S
N300 H313 0.985 . S
N301 C303 1.356 . S
N301 H306 0.984 . S
N301 H307 0.985 . S
C302 C296 1.379 . S
C302 C299 1.363 . S
C302 N300 1.356 . S
C303 C297 1.363 . S
C303 C298 1.379 . S
C303 N301 1.356 . S
N304 C296 1.356 . S
N304 H310 0.984 . S
N304 H311 0.984 . S
N305 C298 1.356 . S
N305 H308 0.984 . S
N305 H309 0.985 . S
H306 N301 0.984 . S
H307 N301 0.985 . S
H308 N305 0.984 . S
H309 N305 0.985 . S
H310 N304 0.984 . S
H311 N304 0.984 . S
H312 N300 0.984 . S
H313 N300 0.985 . S
C314 C315 1.363 . S
C314 C320 1.379 . S
C314 N322 1.356 . S
C315 C314 1.363 . S
C315 C321 1.363 . S
C316 C317 1.363 . S
C316 C321 1.379 . S
C316 N323 1.356 . S
C317 C316 1.363 . S
C317 C320 1.363 . S
N318 C320 1.356 . S
N318 H330 0.984 . S
N318 H331 0.985 . S
N319 C321 1.356 . S
N319 H324 0.984 . S
N319 H325 0.985 . S
C320 C314 1.379 . S
C320 C317 1.363 . S
C320 N318 1.356 . S
C321 C315 1.363 . S
C321 C316 1.379 . S
C321 N319 1.356 . S
N322 C314 1.356 . S
N322 H328 0.984 . S
N322 H329 0.984 . S
N323 C316 1.356 . S
N323 H326 0.984 . S
N323 H327 0.985 . S
H324 N319 0.984 . S
H325 N319 0.985 . S
H326 N323 0.984 . S
H327 N323 0.985 . S
H328 N322 0.984 . S
H329 N322 0.984 . S
H330 N318 0.984 . S
H331 N318 0.985 . S
C332 C333 1.363 . S
C332 C338 1.379 . S
C332 N340 1.356 . S
C333 C332 1.363 . S
C333 C339 1.363 . S
C334 C335 1.363 . S
C334 C339 1.379 . S
C334 N341 1.356 . S
C335 C334 1.363 . S
C335 C338 1.363 . S
N336 C338 1.356 . S
N336 H348 0.984 . S
N336 H349 0.985 . S
N337 C339 1.356 . S
N337 H342 0.984 . S
N337 H343 0.985 . S
C338 C332 1.379 . S
C338 C335 1.363 . S
C338 N336 1.356 . S
C339 C333 1.363 . S
C339 C334 1.379 . S
C339 N337 1.356 . S
N340 C332 1.356 . S
N340 H346 0.984 . S
N340 H347 0.984 . S
N341 C334 1.356 . S
N341 H344 0.984 . S
N341 H345 0.985 . S
H342 N337 0.984 . S
H343 N337 0.985 . S
H344 N341 0.984 . S
H345 N341 0.985 . S
H346 N340 0.984 . S
H347 N340 0.984 . S
H348 N336 0.984 . S
H349 N336 0.985 . S
C350 C351 1.363 . S
C350 C356 1.379 . S
C350 N358 1.356 . S
C351 C350 1.363 . S
C351 C357 1.363 . S
C352 C353 1.363 . S
C352 C357 1.379 . S
C352 N359 1.356 . S
C353 C352 1.363 . S
C353 C356 1.363 . S
N354 C356 1.356 . S
N354 H366 0.984 . S
N354 H367 0.985 . S
N355 C357 1.356 . S
N355 H360 0.984 . S
N355 H361 0.985 . S
C356 C350 1.379 . S
C356 C353 1.363 . S
C356 N354 1.356 . S
C357 C351 1.363 . S
C357 C352 1.379 . S
C357 N355 1.356 . S
N358 C350 1.356 . S
N358 H364 0.984 . S
N358 H365 0.984 . S
N359 C352 1.356 . S
N359 H362 0.984 . S
N359 H363 0.985 . S
H360 N355 0.984 . S
H361 N355 0.985 . S
H362 N359 0.984 . S
H363 N359 0.985 . S
H364 N358 0.984 . S
H365 N358 0.984 . S
H366 N354 0.984 . S
H367 N354 0.985 . S
C368 C369 1.363 1_455 S
C368 C374 1.379 . S
C368 N376 1.356 . S
C369 C368 1.363 1_655 S
C369 C375 1.363 . S
C370 C371 1.363 1_655 S
C370 C375 1.379 . S
C370 N377 1.356 . S
C371 C370 1.363 1_455 S
C371 C374 1.363 . S
N372 C374 1.356 . S
N372 H384 0.984 1_545 S
N372 H385 0.985 . S
N373 C375 1.356 . S
N373 H378 0.984 . S
N373 H379 0.985 . S
C374 C368 1.379 . S
C374 C371 1.363 . S
C374 N372 1.356 . S
C375 C369 1.363 . S
C375 C370 1.379 . S
C375 N373 1.356 . S
N376 C368 1.356 . S
N376 H382 0.984 1_545 S
N376 H383 0.984 . S
N377 C370 1.356 . S
N377 H380 0.984 . S
N377 H381 0.985 . S
H378 N373 0.984 . S
H379 N373 0.985 . S
H380 N377 0.984 . S
H381 N377 0.985 . S
H382 N376 0.984 1_565 S
H383 N376 0.984 . S
H384 N372 0.984 1_565 S
H385 N372 0.985 . S
C386 C387 1.363 . S
C386 C392 1.379 . S
C386 N394 1.356 . S
C387 C386 1.363 . S
C387 C393 1.363 . S
C388 C389 1.363 . S
C388 C393 1.379 . S
C388 N395 1.356 . S
C389 C388 1.363 . S
C389 C392 1.363 . S
N390 C392 1.356 . S
N390 H402 0.984 1_565 S
N390 H403 0.985 . S
N391 C393 1.356 . S
N391 H396 0.984 . S
N391 H397 0.985 . S
C392 C386 1.379 . S
C392 C389 1.363 . S
C392 N390 1.356 . S
C393 C387 1.363 . S
C393 C388 1.379 . S
C393 N391 1.356 . S
N394 C386 1.356 . S
N394 H400 0.984 1_565 S
N394 H401 0.984 . S
N395 C388 1.356 . S
N395 H398 0.984 . S
N395 H399 0.985 . S
H396 N391 0.984 . S
H397 N391 0.985 . S
H398 N395 0.984 . S
H399 N395 0.985 . S
H400 N394 0.984 1_545 S
H401 N394 0.984 . S
H402 N390 0.984 1_545 S
H403 N390 0.985 . S
C404 C405 1.363 1_655 S
C404 C410 1.379 . S
C404 N412 1.356 . S
C405 C404 1.363 1_455 S
C405 C411 1.363 . S
C406 C407 1.363 1_455 S
C406 C411 1.379 . S
C406 N413 1.356 . S
C407 C406 1.363 1_655 S
C407 C410 1.363 . S
N408 C410 1.356 . S
N408 H420 0.984 . S
N408 H421 0.985 . S
N409 C411 1.356 . S
N409 H414 0.984 . S
N409 H415 0.985 1_565 S
C410 C404 1.379 . S
C410 C407 1.363 . S
C410 N408 1.356 . S
C411 C405 1.363 . S
C411 C406 1.379 . S
C411 N409 1.356 . S
N412 C404 1.356 . S
N412 H418 0.984 . S
N412 H419 0.984 . S
N413 C406 1.356 . S
N413 H416 0.984 . S
N413 H417 0.985 1_565 S
H414 N409 0.984 . S
H415 N409 0.985 1_545 S
H416 N413 0.984 . S
H417 N413 0.985 1_545 S
H418 N412 0.984 . S
H419 N412 0.984 . S
H420 N408 0.984 . S
H421 N408 0.985 . S
C422 C423 1.363 . S
C422 C428 1.379 . S
C422 N430 1.356 . S
C423 C422 1.363 . S
C423 C429 1.363 . S
C424 C425 1.363 . S
C424 C429 1.379 . S
C424 N431 1.356 . S
C425 C424 1.363 . S
C425 C428 1.363 . S
N426 C428 1.356 . S
N426 H438 0.984 . S
N426 H439 0.985 . S
N427 C429 1.356 . S
N427 H432 0.984 . S
N427 H433 0.985 1_545 S
C428 C422 1.379 . S
C428 C425 1.363 . S
C428 N426 1.356 . S
C429 C423 1.363 . S
C429 C424 1.379 . S
C429 N427 1.356 . S
N430 C422 1.356 . S
N430 H436 0.984 . S
N430 H437 0.984 . S
N431 C424 1.356 . S
N431 H434 0.984 . S
N431 H435 0.985 1_545 S
H432 N427 0.984 . S
H433 N427 0.985 1_565 S
H434 N431 0.984 . S
H435 N431 0.985 1_565 S
H436 N430 0.984 . S
H437 N430 0.984 . S
H438 N426 0.984 . S
H439 N426 0.985 . S
C440 C441 1.363 . S
C440 C446 1.379 . S
C440 N448 1.356 . S
C441 C440 1.363 . S
C441 C447 1.363 . S
C442 C443 1.363 . S
C442 C447 1.379 . S
C442 N449 1.356 . S
C443 C442 1.363 . S
C443 C446 1.363 . S
N444 C446 1.356 . S
N444 H456 0.984 . S
N444 H457 0.985 . S
N445 C447 1.356 . S
N445 H450 0.984 . S
N445 H451 0.985 . S
C446 C440 1.379 . S
C446 C443 1.363 . S
C446 N444 1.356 . S
C447 C441 1.363 . S
C447 C442 1.379 . S
C447 N445 1.356 . S
N448 C440 1.356 . S
N448 H454 0.984 . S
N448 H455 0.984 . S
N449 C442 1.356 . S
N449 H452 0.984 . S
N449 H453 0.985 . S
H450 N445 0.984 . S
H451 N445 0.985 . S
H452 N449 0.984 . S
H453 N449 0.985 . S
H454 N448 0.984 . S
H455 N448 0.984 . S
H456 N444 0.984 . S
H457 N444 0.985 . S
C458 C459 1.363 . S
C458 C464 1.379 . S
C458 N466 1.356 . S
C459 C458 1.363 . S
C459 C465 1.363 1_455 S
C460 C461 1.363 . S
C460 C465 1.379 . S
C460 N467 1.356 . S
C461 C460 1.363 . S
C461 C464 1.363 1_655 S
N462 C464 1.356 . S
N462 H474 0.984 . S
N462 H475 0.985 . S
N463 C465 1.356 . S
N463 H468 0.984 . S
N463 H469 0.985 . S
C464 C458 1.379 . S
C464 C461 1.363 1_455 S
C464 N462 1.356 . S
C465 C459 1.363 1_655 S
C465 C460 1.379 . S
C465 N463 1.356 . S
N466 C458 1.356 . S
N466 H472 0.984 . S
N466 H473 0.984 . S
N467 C460 1.356 . S
N467 H470 0.984 . S
N467 H471 0.985 . S
H468 N463 0.984 . S
H469 N463 0.985 . S
H470 N467 0.984 . S
H471 N467 0.985 . S
H472 N466 0.984 . S
H473 N466 0.984 . S
H474 N462 0.984 . S
H475 N462 0.985 . S
C476 C477 1.363 . S
C476 C482 1.379 . S
C476 N484 1.356 . S
C477 C476 1.363 . S
C477 C483 1.363 . S
C478 C479 1.363 . S
C478 C483 1.379 . S
C478 N485 1.356 . S
C479 C478 1.363 . S
C479 C482 1.363 . S
N480 C482 1.356 . S
N480 H492 0.984 . S
N480 H493 0.985 . S
N481 C483 1.356 . S
N481 H486 0.984 . S
N481 H487 0.985 . S
C482 C476 1.379 . S
C482 C479 1.363 . S
C482 N480 1.356 . S
C483 C477 1.363 . S
C483 C478 1.379 . S
C483 N481 1.356 . S
N484 C476 1.356 . S
N484 H490 0.984 . S
N484 H491 0.984 . S
N485 C478 1.356 . S
N485 H488 0.984 . S
N485 H489 0.985 . S
H486 N481 0.984 . S
H487 N481 0.985 . S
H488 N485 0.984 . S
H489 N485 0.985 . S
H490 N484 0.984 . S
H491 N484 0.984 . S
H492 N480 0.984 . S
H493 N480 0.985 . S
C494 C495 1.363 1_655 S
C494 C500 1.379 . S
C494 N502 1.356 . S
C495 C494 1.363 1_455 S
C495 C501 1.363 . S
C496 C497 1.363 1_455 S
C496 C501 1.379 . S
C496 N503 1.356 . S
C497 C496 1.363 1_655 S
C497 C500 1.363 . S
N498 C500 1.356 . S
N498 H510 0.984 . S
N498 H511 0.985 . S
N499 C501 1.356 . S
N499 H504 0.984 . S
N499 H505 0.985 . S
C500 C494 1.379 . S
C500 C497 1.363 . S
C500 N498 1.356 . S
C501 C495 1.363 . S
C501 C496 1.379 . S
C501 N499 1.356 . S
N502 C494 1.356 . S
N502 H508 0.984 . S
N502 H509 0.984 . S
N503 C496 1.356 . S
N503 H506 0.984 . S
N503 H507 0.985 . S
H504 N499 0.984 . S
H505 N499 0.985 . S
H506 N503 0.984 . S
H507 N503 0.985 . S
H508 N502 0.984 . S
H509 N502 0.984 . S
H510 N498 0.984 . S
H511 N498 0.985 . S
C512 C513 1.363 . S
C512 C518 1.379 . S
C512 N520 1.356 . S
C513 C512 1.363 . S
C513 C519 1.363 1_455 S
C514 C515 1.363 . S
C514 C519 1.379 . S
C514 N521 1.356 . S
C515 C514 1.363 . S
C515 C518 1.363 1_655 S
N516 C518 1.356 . S
N516 H528 0.984 . S
N516 H529 0.985 . S
N517 C519 1.356 . S
N517 H522 0.984 . S
N517 H523 0.985 . S
C518 C512 1.379 . S
C518 C515 1.363 1_455 S
C518 N516 1.356 . S
C519 C513 1.363 1_655 S
C519 C514 1.379 . S
C519 N517 1.356 . S
N520 C512 1.356 . S
N520 H526 0.984 . S
N520 H527 0.984 . S
N521 C514 1.356 . S
N521 H524 0.984 . S
N521 H525 0.985 . S
H522 N517 0.984 . S
H523 N517 0.985 . S
H524 N521 0.984 . S
H525 N521 0.985 . S
H526 N520 0.984 . S
H527 N520 0.984 . S
H528 N516 0.984 . S
H529 N516 0.985 . S
C530 C531 1.363 . S
C530 C536 1.379 . S
C530 N538 1.356 . S
C531 C530 1.363 . S
C531 C537 1.363 . S
C532 C533 1.363 . S
C532 C537 1.379 . S
C532 N539 1.356 . S
C533 C532 1.363 . S
C533 C536 1.363 . S
N534 C536 1.356 . S
N534 H546 0.984 . S
N534 H547 0.985 . S
N535 C537 1.356 . S
N535 H540 0.984 . S
N535 H541 0.985 . S
C536 C530 1.379 . S
C536 C533 1.363 . S
C536 N534 1.356 . S
C537 C531 1.363 . S
C537 C532 1.379 . S
C537 N535 1.356 . S
N538 C530 1.356 . S
N538 H544 0.984 . S
N538 H545 0.984 . S
N539 C532 1.356 . S
N539 H542 0.984 . S
N539 H543 0.985 . S
H540 N535 0.984 . S
H541 N535 0.985 . S
H542 N539 0.984 . S
H543 N539 0.985 . S
H544 N538 0.984 . S
H545 N538 0.984 . S
H546 N534 0.984 . S
H547 N534 0.985 . S
C548 C549 1.363 . S
C548 C554 1.379 . S
C548 N556 1.356 . S
C549 C548 1.363 . S
C549 C555 1.363 . S
C550 C551 1.363 . S
C550 C555 1.379 . S
C550 N557 1.356 . S
C551 C550 1.363 . S
C551 C554 1.363 . S
N552 C554 1.356 . S
N552 H564 0.984 . S
N552 H565 0.985 . S
N553 C555 1.356 . S
N553 H558 0.984 . S
N553 H559 0.985 . S
C554 C548 1.379 . S
C554 C551 1.363 . S
C554 N552 1.356 . S
C555 C549 1.363 . S
C555 C550 1.379 . S
C555 N553 1.356 . S
N556 C548 1.356 . S
N556 H562 0.984 . S
N556 H563 0.984 . S
N557 C550 1.356 . S
N557 H560 0.984 . S
N557 H561 0.985 . S
H558 N553 0.984 . S
H559 N553 0.985 . S
H560 N557 0.984 . S
H561 N557 0.985 . S
H562 N556 0.984 . S
H563 N556 0.984 . S
H564 N552 0.984 . S
H565 N552 0.985 . S
C566 C567 1.363 . S
C566 C572 1.379 . S
C566 N574 1.356 . S
C567 C566 1.363 . S
C567 C573 1.363 1_455 S
C568 C569 1.363 . S
C568 C573 1.379 . S
C568 N575 1.356 . S
C569 C568 1.363 . S
C569 C572 1.363 1_655 S
N570 C572 1.356 . S
N570 H582 0.984 . S
N570 H583 0.985 . S
N571 C573 1.356 . S
N571 H576 0.984 . S
N571 H577 0.985 . S
C572 C566 1.379 . S
C572 C569 1.363 1_455 S
C572 N570 1.356 . S
C573 C567 1.363 1_655 S
C573 C568 1.379 . S
C573 N571 1.356 . S
N574 C566 1.356 . S
N574 H580 0.984 . S
N574 H581 0.984 . S
N575 C568 1.356 . S
N575 H578 0.984 . S
N575 H579 0.985 . S
H576 N571 0.984 . S
H577 N571 0.985 . S
H578 N575 0.984 . S
H579 N575 0.985 . S
H580 N574 0.984 . S
H581 N574 0.984 . S
H582 N570 0.984 . S
H583 N570 0.985 . S
C584 C585 1.363 1_655 S
C584 C590 1.379 . S
C584 N592 1.356 . S
C585 C584 1.363 1_455 S
C585 C591 1.363 . S
C586 C587 1.363 1_455 S
C586 C591 1.379 . S
C586 N593 1.356 . S
C587 C586 1.363 1_655 S
C587 C590 1.363 . S
N588 C590 1.356 . S
N588 H600 0.984 . S
N588 H601 0.985 . S
N589 C591 1.356 . S
N589 H594 0.984 . S
N589 H595 0.985 . S
C590 C584 1.379 . S
C590 C587 1.363 . S
C590 N588 1.356 . S
C591 C585 1.363 . S
C591 C586 1.379 . S
C591 N589 1.356 . S
N592 C584 1.356 . S
N592 H598 0.984 . S
N592 H599 0.984 . S
N593 C586 1.356 . S
N593 H596 0.984 . S
N593 H597 0.985 . S
H594 N589 0.984 . S
H595 N589 0.985 . S
H596 N593 0.984 . S
H597 N593 0.985 . S
H598 N592 0.984 . S
H599 N592 0.984 . S
H600 N588 0.984 . S
H601 N588 0.985 . S
C602 C603 1.363 . S
C602 C608 1.379 . S
C602 N610 1.356 . S
C603 C602 1.363 . S
C603 C609 1.363 . S
C604 C605 1.363 . S
C604 C609 1.379 . S
C604 N611 1.356 . S
C605 C604 1.363 . S
C605 C608 1.363 . S
N606 C608 1.356 . S
N606 H618 0.984 . S
N606 H619 0.985 . S
N607 C609 1.356 . S
N607 H612 0.984 . S
N607 H613 0.985 . S
C608 C602 1.379 . S
C608 C605 1.363 . S
C608 N606 1.356 . S
C609 C603 1.363 . S
C609 C604 1.379 . S
C609 N607 1.356 . S
N610 C602 1.356 . S
N610 H616 0.984 . S
N610 H617 0.984 . S
N611 C604 1.356 . S
N611 H614 0.984 . S
N611 H615 0.985 . S
H612 N607 0.984 . S
H613 N607 0.985 . S
H614 N611 0.984 . S
H615 N611 0.985 . S
H616 N610 0.984 . S
H617 N610 0.984 . S
H618 N606 0.984 . S
H619 N606 0.985 . S
C620 C621 1.363 . S
C620 C626 1.379 . S
C620 N628 1.356 . S
C621 C620 1.363 . S
C621 C627 1.363 . S
C622 C623 1.363 . S
C622 C627 1.379 . S
C622 N629 1.356 . S
C623 C622 1.363 . S
C623 C626 1.363 . S
N624 C626 1.356 . S
N624 H636 0.984 . S
N624 H637 0.985 . S
N625 C627 1.356 . S
N625 H630 0.984 . S
N625 H631 0.985 . S
C626 C620 1.379 . S
C626 C623 1.363 . S
C626 N624 1.356 . S
C627 C621 1.363 . S
C627 C622 1.379 . S
C627 N625 1.356 . S
N628 C620 1.356 . S
N628 H634 0.984 . S
N628 H635 0.984 . S
N629 C622 1.356 . S
N629 H632 0.984 . S
N629 H633 0.985 . S
H630 N625 0.984 . S
H631 N625 0.985 . S
H632 N629 0.984 . S
H633 N629 0.985 . S
H634 N628 0.984 . S
H635 N628 0.984 . S
H636 N624 0.984 . S
H637 N624 0.985 . S
C638 C639 1.363 . S
C638 C644 1.379 . S
C638 N646 1.356 . S
C639 C638 1.363 . S
C639 C645 1.363 1_455 S
C640 C641 1.363 . S
C640 C645 1.379 . S
C640 N647 1.356 . S
C641 C640 1.363 . S
C641 C644 1.363 1_655 S
N642 C644 1.356 . S
N642 H654 0.984 . S
N642 H655 0.985 . S
N643 C645 1.356 . S
N643 H648 0.984 . S
N643 H649 0.985 . S
C644 C638 1.379 . S
C644 C641 1.363 1_455 S
C644 N642 1.356 . S
C645 C639 1.363 1_655 S
C645 C640 1.379 . S
C645 N643 1.356 . S
N646 C638 1.356 . S
N646 H652 0.984 . S
N646 H653 0.984 . S
N647 C640 1.356 . S
N647 H650 0.984 . S
N647 H651 0.985 . S
H648 N643 0.984 . S
H649 N643 0.985 . S
H650 N647 0.984 . S
H651 N647 0.985 . S
H652 N646 0.984 . S
H653 N646 0.984 . S
H654 N642 0.984 . S
H655 N642 0.985 . S
C656 C657 1.363 1_554 S
C656 C662 1.370 1_565 S
C656 N664 1.356 1_554 S
C657 C656 1.363 1_556 S
C657 C663 1.372 1_655 S
C658 C659 1.363 1_556 S
C658 C663 1.370 1_545 S
C658 N665 1.356 1_556 S
C659 C658 1.363 1_554 S
C659 C662 1.372 1_455 S
N660 C662 1.360 . S
N660 H672 0.984 1_545 S
N660 H673 0.985 . S
N661 C663 1.360 . S
N661 H666 0.984 . S
N661 H667 0.985 1_565 S
C662 C656 1.370 1_545 S
C662 C659 1.372 1_655 S
C662 N660 1.360 . S
C663 C657 1.372 1_455 S
C663 C658 1.370 1_565 S
C663 N661 1.360 . S
N664 C656 1.356 1_556 S
N664 H670 0.984 1_556 S
N664 H671 0.984 . S
N665 C658 1.356 1_554 S
N665 H668 0.984 . S
N665 H669 0.985 1_554 S
H666 N661 0.984 . S
H667 N661 0.985 1_545 S
H668 N665 0.984 . S
H669 N665 0.985 1_556 S
H670 N664 0.984 1_554 S
H671 N664 0.984 . S
H672 N660 0.984 1_565 S
H673 N660 0.985 . S
C674 C675 1.363 1_554 S
C674 C680 1.379 . S
C674 N682 1.356 1_554 S
C675 C674 1.363 1_556 S
C675 C681 1.363 1_545 S
C676 C677 1.363 1_556 S
C676 C681 1.379 . S
C676 N683 1.356 1_556 S
C677 C676 1.363 1_554 S
C677 C680 1.363 1_565 S
N678 C680 1.356 . S
N678 H690 0.984 . S
N678 H691 0.985 . S
N679 C681 1.356 . S
N679 H684 0.984 . S
N679 H685 0.985 . S
C680 C674 1.379 . S
C680 C677 1.363 1_545 S
C680 N678 1.356 . S
C681 C675 1.363 1_565 S
C681 C676 1.379 . S
C681 N679 1.356 . S
N682 C674 1.356 1_556 S
N682 H688 0.984 1_556 S
N682 H689 0.984 . S
N683 C676 1.356 1_554 S
N683 H686 0.984 . S
N683 H687 0.985 1_554 S
H684 N679 0.984 . S
H685 N679 0.985 . S
H686 N683 0.984 . S
H687 N683 0.985 1_556 S
H688 N682 0.984 1_554 S
H689 N682 0.984 . S
H690 N678 0.984 . S
H691 N678 0.985 . S
C692 C693 1.363 1_565 S
C692 C698 1.379 . S
C692 N700 1.356 . S
C693 C692 1.363 1_545 S
C693 C699 1.363 . S
C694 C695 1.363 1_545 S
C694 C699 1.379 . S
C694 N701 1.356 . S
C695 C694 1.363 1_565 S
C695 C698 1.363 . S
N696 C698 1.356 . S
N696 H708 0.984 . S
N696 H709 0.985 . S
N697 C699 1.356 . S
N697 H702 0.984 . S
N697 H703 0.985 . S
C698 C692 1.379 . S
C698 C695 1.363 . S
C698 N696 1.356 . S
C699 C693 1.363 . S
C699 C694 1.379 . S
C699 N697 1.356 . S
N700 C692 1.356 . S
N700 H706 0.984 . S
N700 H707 0.984 1_565 S
N701 C694 1.356 . S
N701 H704 0.984 1_545 S
N701 H705 0.985 . S
H702 N697 0.984 . S
H703 N697 0.985 . S
H704 N701 0.984 1_565 S
H705 N701 0.985 . S
H706 N700 0.984 . S
H707 N700 0.984 1_545 S
H708 N696 0.984 . S
H709 N696 0.985 . S
C710 C711 1.363 . S
C710 C716 1.379 . S
C710 N718 1.356 . S
C711 C710 1.363 . S
C711 C717 1.363 1_465 S
C712 C713 1.363 . S
C712 C717 1.379 . S
C712 N719 1.356 . S
C713 C712 1.363 . S
C713 C716 1.363 1_645 S
N714 C716 1.356 . S
N714 H726 0.984 . S
N714 H727 0.985 1_455 S
N715 C717 1.356 . S
N715 H720 0.984 1_655 S
N715 H721 0.985 . S
C716 C710 1.379 . S
C716 C713 1.363 1_465 S
C716 N714 1.356 . S
C717 C711 1.363 1_645 S
C717 C712 1.379 . S
C717 N715 1.356 . S
N718 C710 1.356 . S
N718 H724 0.984 . S
N718 H725 0.984 . S
N719 C712 1.356 . S
N719 H722 0.984 . S
N719 H723 0.985 . S
H720 N715 0.984 1_455 S
H721 N715 0.985 . S
H722 N719 0.984 . S
H723 N719 0.985 . S
H724 N718 0.984 . S
H725 N718 0.984 . S
H726 N714 0.984 . S
H727 N714 0.985 1_655 S
C728 C729 1.363 . S
C728 C734 1.379 1_554 S
C728 N736 1.356 . S
C729 C728 1.363 . S
C729 C735 1.363 . S
C730 C731 1.363 . S
C730 C735 1.379 1_556 S
C730 N737 1.356 . S
C731 C730 1.363 . S
C731 C734 1.363 . S
N732 C734 1.356 . S
N732 H744 0.984 . S
N732 H745 0.985 . S
N733 C735 1.356 . S
N733 H738 0.984 . S
N733 H739 0.985 . S
C734 C728 1.379 1_556 S
C734 C731 1.363 . S
C734 N732 1.356 . S
C735 C729 1.363 . S
C735 C730 1.379 1_554 S
C735 N733 1.356 . S
N736 C728 1.356 . S
N736 H742 0.984 . S
N736 H743 0.984 . S
N737 C730 1.356 . S
N737 H740 0.984 . S
N737 H741 0.985 . S
H738 N733 0.984 . S
H739 N733 0.985 . S
H740 N737 0.984 . S
H741 N737 0.985 . S
H742 N736 0.984 . S
H743 N736 0.984 . S
H744 N732 0.984 . S
H745 N732 0.985 . S
C746 C747 1.363 1_455 S
C746 C752 1.379 1_554 S
C746 N754 1.356 . S
C747 C746 1.363 1_655 S
C747 C753 1.363 . S
C748 C749 1.363 1_655 S
C748 C753 1.379 1_556 S
C748 N755 1.356 . S
C749 C748 1.363 1_455 S
C749 C752 1.363 . S
N750 C752 1.356 . S
N750 H762 0.984 . S
N750 H763 0.985 . S
N751 C753 1.356 . S
N751 H756 0.984 . S
N751 H757 0.985 . S
C752 C746 1.379 1_556 S
C752 C749 1.363 . S
C752 N750 1.356 . S
C753 C747 1.363 . S
C753 C748 1.379 1_554 S
C753 N751 1.356 . S
N754 C746 1.356 . S
N754 H760 0.984 . S
N754 H761 0.984 1_455 S
N755 C748 1.356 . S
N755 H758 0.984 1_655 S
N755 H759 0.985 . S
H756 N751 0.984 . S
H757 N751 0.985 . S
H758 N755 0.984 1_455 S
H759 N755 0.985 . S
H760 N754 0.984 . S
H761 N754 0.984 1_655 S
H762 N750 0.984 . S
H763 N750 0.985 . S
C764 C765 1.363 . S
C764 C770 1.379 . S
C764 N772 1.356 . S
C765 C764 1.363 . S
C765 C771 1.363 1_655 S
C766 C767 1.363 . S
C766 C771 1.379 . S
C766 N773 1.356 . S
C767 C766 1.363 . S
C767 C770 1.363 1_455 S
N768 C770 1.356 . S
N768 H780 0.984 . S
N768 H781 0.985 1_655 S
N769 C771 1.356 . S
N769 H774 0.984 1_455 S
N769 H775 0.985 . S
C770 C764 1.379 . S
C770 C767 1.363 1_655 S
C770 N768 1.356 . S
C771 C765 1.363 1_455 S
C771 C766 1.379 . S
C771 N769 1.356 . S
N772 C764 1.356 . S
N772 H778 0.984 . S
N772 H779 0.984 . S
N773 C766 1.356 . S
N773 H776 0.984 . S
N773 H777 0.985 . S
H774 N769 0.984 1_655 S
H775 N769 0.985 . S
H776 N773 0.984 . S
H777 N773 0.985 . S
H778 N772 0.984 . S
H779 N772 0.984 . S
H780 N768 0.984 . S
H781 N768 0.985 1_455 S
C782 C783 1.363 . S
C782 C788 1.379 . S
C782 N790 1.356 . S
C783 C782 1.363 . S
C783 C789 1.363 . S
C784 C785 1.363 . S
C784 C789 1.379 . S
C784 N791 1.356 . S
C785 C784 1.363 . S
C785 C788 1.363 . S
N786 C788 1.356 . S
N786 H798 0.984 . S
N786 H799 0.985 . S
N787 C789 1.356 . S
N787 H792 0.984 . S
N787 H793 0.985 . S
C788 C782 1.379 . S
C788 C785 1.363 . S
C788 N786 1.356 . S
C789 C783 1.363 . S
C789 C784 1.379 . S
C789 N787 1.356 . S
N790 C782 1.356 . S
N790 H796 0.984 . S
N790 H797 0.984 . S
N791 C784 1.356 . S
N791 H794 0.984 . S
N791 H795 0.985 . S
H792 N787 0.984 . S
H793 N787 0.985 . S
H794 N791 0.984 . S
H795 N791 0.985 . S
H796 N790 0.984 . S
H797 N790 0.984 . S
H798 N786 0.984 . S
H799 N786 0.985 . S
C225 C21 1.522 . S
C227 C7 1.522 . S
C243 C35 1.522 . S
C245 C49 1.522 . S
C261 C62 1.522 . S
C263 C76 1.522 . S
C279 C104 1.522 . S
C281 C90 1.522 . S
C297 C133 1.522 . S
C299 C119 1.522 . S
C315 C161 1.522 . S
C317 C147 1.522 . S
C333 C188 1.522 . S
C335 C174 1.522 . S
C351 C216 1.522 . S
C353 C202 1.522 . S
C369 C48 1.507 . S
C371 C6 1.507 . S
C387 C20 1.507 . S
C389 C34 1.507 . S
C405 C105 1.507 . S
C407 C63 1.507 . S
C423 C91 1.507 . S
C425 C77 1.507 . S
C441 C118 1.507 . S
C443 C160 1.507 . S
C459 C146 1.507 . S
C461 C132 1.507 . S
C477 C217 1.507 . S
C479 C175 1.507 . S
C495 C189 1.507 . S
C497 C203 1.507 . S
C513 C8 1.487 . S
C515 C134 1.487 . S
C531 C22 1.487 . S
C533 C120 1.487 . S
C549 C162 1.487 . S
C551 C36 1.487 . S
C567 C148 1.487 . S
C569 C50 1.487 . S
C585 C191 1.487 . S
C587 C65 1.487 . S
C603 C177 1.487 . S
C605 C79 1.487 . S
C621 C93 1.487 . S
C623 C219 1.487 . S
C639 C107 1.487 . S
C641 C205 1.487 . S
C657 C64 1.581 . S
C659 C9 1.581 . S
C675 C78 1.581 . S
C677 C23 1.581 . S
C693 C92 1.581 . S
C695 C37 1.581 . S
C711 C106 1.581 . S
C713 C51 1.581 . S
C729 C121 1.581 . S
C731 C176 1.581 . S
C747 C135 1.581 . S
C749 C190 1.581 . S
C765 C204 1.581 . S
C767 C149 1.581 . S
C783 C218 1.581 . S
C785 C163 1.581 . S
