# Generated by pormake.
# Topology lta, (4)-cn, num edge types: 1
# Building blocks:
#     Node 0, Type 0, BuildingBlock: KUFVIS_clean_sbu_0, # of connection points: 4
#     Node 1, Type 0, BuildingBlock: KUFVIS_clean_sbu_0, # of connection points: 4
#     Node 2, Type 0, BuildingBlock: KUFVIS_clean_sbu_0, # of connection points: 4
#     Node 3, Type 0, BuildingBlock: KUFVIS_clean_sbu_0, # of connection points: 4
#     Node 4, Type 0, BuildingBlock: KUFVIS_clean_sbu_0, # of connection points: 4
#     Node 5, Type 0, BuildingBlock: KUFVIS_clean_sbu_0, # of connection points: 4
#     Node 6, Type 0, BuildingBlock: KUFVIS_clean_sbu_0, # of connection points: 4
#     Node 7, Type 0, BuildingBlock: KUFVIS_clean_sbu_0, # of connection points: 4
#     Node 8, Type 0, BuildingBlock: KUFVIS_clean_sbu_0, # of connection points: 4
#     Node 9, Type 0, BuildingBlock: KUFVIS_clean_sbu_0, # of connection points: 4
#     Node 10, Type 0, BuildingBlock: KUFVIS_clean_sbu_0, # of connection points: 4
#     Node 11, Type 0, BuildingBlock: KUFVIS_clean_sbu_0, # of connection points: 4
#     Node 12, Type 0, BuildingBlock: KUFVIS_clean_sbu_0, # of connection points: 4
#     Node 13, Type 0, BuildingBlock: KUFVIS_clean_sbu_0, # of connection points: 4
#     Node 14, Type 0, BuildingBlock: KUFVIS_clean_sbu_0, # of connection points: 4
#     Node 15, Type 0, BuildingBlock: KUFVIS_clean_sbu_0, # of connection points: 4
#     Node 16, Type 0, BuildingBlock: KUFVIS_clean_sbu_0, # of connection points: 4
#     Node 17, Type 0, BuildingBlock: KUFVIS_clean_sbu_0, # of connection points: 4
#     Node 18, Type 0, BuildingBlock: KUFVIS_clean_sbu_0, # of connection points: 4
#     Node 19, Type 0, BuildingBlock: KUFVIS_clean_sbu_0, # of connection points: 4
#     Node 20, Type 0, BuildingBlock: KUFVIS_clean_sbu_0, # of connection points: 4
#     Node 21, Type 0, BuildingBlock: KUFVIS_clean_sbu_0, # of connection points: 4
#     Node 22, Type 0, BuildingBlock: KUFVIS_clean_sbu_0, # of connection points: 4
#     Node 23, Type 0, BuildingBlock: KUFVIS_clean_sbu_0, # of connection points: 4
#     Edge 24, Type (0, 0), BuildingBlock: AJUNOK_clean_linker_0, # of connection points: 2
#     Edge 25, Type (0, 0), BuildingBlock: AJUNOK_clean_linker_0, # of connection points: 2
#     Edge 26, Type (0, 0), BuildingBlock: AJUNOK_clean_linker_0, # of connection points: 2
#     Edge 27, Type (0, 0), BuildingBlock: AJUNOK_clean_linker_0, # of connection points: 2
#     Edge 28, Type (0, 0), BuildingBlock: AJUNOK_clean_linker_0, # of connection points: 2
#     Edge 29, Type (0, 0), BuildingBlock: AJUNOK_clean_linker_0, # of connection points: 2
#     Edge 30, Type (0, 0), BuildingBlock: AJUNOK_clean_linker_0, # of connection points: 2
#     Edge 31, Type (0, 0), BuildingBlock: AJUNOK_clean_linker_0, # of connection points: 2
#     Edge 32, Type (0, 0), BuildingBlock: AJUNOK_clean_linker_0, # of connection points: 2
#     Edge 33, Type (0, 0), BuildingBlock: AJUNOK_clean_linker_0, # of connection points: 2
#     Edge 34, Type (0, 0), BuildingBlock: AJUNOK_clean_linker_0, # of connection points: 2
#     Edge 35, Type (0, 0), BuildingBlock: AJUNOK_clean_linker_0, # of connection points: 2
#     Edge 36, Type (0, 0), BuildingBlock: AJUNOK_clean_linker_0, # of connection points: 2
#     Edge 37, Type (0, 0), BuildingBlock: AJUNOK_clean_linker_0, # of connection points: 2
#     Edge 38, Type (0, 0), BuildingBlock: AJUNOK_clean_linker_0, # of connection points: 2
#     Edge 39, Type (0, 0), BuildingBlock: AJUNOK_clean_linker_0, # of connection points: 2
#     Edge 40, Type (0, 0), BuildingBlock: AJUNOK_clean_linker_0, # of connection points: 2
#     Edge 41, Type (0, 0), BuildingBlock: AJUNOK_clean_linker_0, # of connection points: 2
#     Edge 42, Type (0, 0), BuildingBlock: AJUNOK_clean_linker_0, # of connection points: 2
#     Edge 43, Type (0, 0), BuildingBlock: AJUNOK_clean_linker_0, # of connection points: 2
#     Edge 44, Type (0, 0), BuildingBlock: AJUNOK_clean_linker_0, # of connection points: 2
#     Edge 45, Type (0, 0), BuildingBlock: AJUNOK_clean_linker_0, # of connection points: 2
#     Edge 46, Type (0, 0), BuildingBlock: AJUNOK_clean_linker_0, # of connection points: 2
#     Edge 47, Type (0, 0), BuildingBlock: AJUNOK_clean_linker_0, # of connection points: 2
#     Edge 48, Type (0, 0), BuildingBlock: AJUNOK_clean_linker_0, # of connection points: 2
#     Edge 49, Type (0, 0), BuildingBlock: AJUNOK_clean_linker_0, # of connection points: 2
#     Edge 50, Type (0, 0), BuildingBlock: AJUNOK_clean_linker_0, # of connection points: 2
#     Edge 51, Type (0, 0), BuildingBlock: AJUNOK_clean_linker_0, # of connection points: 2
#     Edge 52, Type (0, 0), BuildingBlock: AJUNOK_clean_linker_0, # of connection points: 2
#     Edge 53, Type (0, 0), BuildingBlock: AJUNOK_clean_linker_0, # of connection points: 2
#     Edge 54, Type (0, 0), BuildingBlock: AJUNOK_clean_linker_0, # of connection points: 2
#     Edge 55, Type (0, 0), BuildingBlock: AJUNOK_clean_linker_0, # of connection points: 2
#     Edge 56, Type (0, 0), BuildingBlock: AJUNOK_clean_linker_0, # of connection points: 2
#     Edge 57, Type (0, 0), BuildingBlock: AJUNOK_clean_linker_0, # of connection points: 2
#     Edge 58, Type (0, 0), BuildingBlock: AJUNOK_clean_linker_0, # of connection points: 2
#     Edge 59, Type (0, 0), BuildingBlock: AJUNOK_clean_linker_0, # of connection points: 2
#     Edge 60, Type (0, 0), BuildingBlock: AJUNOK_clean_linker_0, # of connection points: 2
#     Edge 61, Type (0, 0), BuildingBlock: AJUNOK_clean_linker_0, # of connection points: 2
#     Edge 62, Type (0, 0), BuildingBlock: AJUNOK_clean_linker_0, # of connection points: 2
#     Edge 63, Type (0, 0), BuildingBlock: AJUNOK_clean_linker_0, # of connection points: 2
#     Edge 64, Type (0, 0), BuildingBlock: AJUNOK_clean_linker_0, # of connection points: 2
#     Edge 65, Type (0, 0), BuildingBlock: AJUNOK_clean_linker_0, # of connection points: 2
#     Edge 66, Type (0, 0), BuildingBlock: AJUNOK_clean_linker_0, # of connection points: 2
#     Edge 67, Type (0, 0), BuildingBlock: AJUNOK_clean_linker_0, # of connection points: 2
#     Edge 68, Type (0, 0), BuildingBlock: AJUNOK_clean_linker_0, # of connection points: 2
#     Edge 69, Type (0, 0), BuildingBlock: AJUNOK_clean_linker_0, # of connection points: 2
#     Edge 70, Type (0, 0), BuildingBlock: AJUNOK_clean_linker_0, # of connection points: 2
#     Edge 71, Type (0, 0), BuildingBlock: AJUNOK_clean_linker_0, # of connection points: 2
# Relax obj value: 0.246
# Max RMSD: 0.134
# Mean RMSD: 0.134
data_MOF--net-lta--node1-KUFVIS_clean_sbu_0--edge1-AJUNOK_clean_linker_0
_symmetry_space_group_name_H-M    P1
_symmetry_Int_Tables_number       1
_symmetry_cell_setting            triclinic
loop_
_symmetry_equiv_pos_as_xyz
'x, y, z'
_cell_length_a     41.405346
_cell_length_b     41.415937
_cell_length_c     41.453233
_cell_angle_alpha  89.979371
_cell_angle_beta   90.022453
_cell_angle_gamma 90.035228
loop_
_atom_site_label
_atom_site_type_symbol
_atom_site_fract_x
_atom_site_fract_y
_atom_site_fract_z
_atom_type_partial_charge
Mn0 Mn 0.13025 0.32713 0.52249 0.0
Mn1 Mn 0.19996 0.36578 0.52619 0.0
C2 C 0.1473 0.35032 0.57219 0.0
C3 C 0.07454 0.32797 0.51154 0.0
C4 C 0.19368 0.29505 0.51038 0.0
O5 O 0.14121 0.34053 0.4753 0.0
O6 O 0.17782 0.37983 0.48584 0.0
C7 C 0.18065 0.43325 0.53635 0.0
N8 N 0.19811 0.4072 0.54552 0.0
C9 C 0.22509 0.43732 0.58697 0.0
C10 C 0.2108 0.46536 0.575 0.0
C11 C 0.1875 0.46321 0.55036 0.0
C12 C 0.21821 0.40844 0.57114 0.0
H13 H 0.16263 0.43108 0.51763 0.0
C14 C 0.15815 0.3652 0.46674 0.0
O15 O 0.09164 0.30187 0.50894 0.0
O16 O 0.08991 0.35384 0.52028 0.0
N17 N 0.22264 0.35309 0.56485 0.0
C18 C 0.23294 0.32335 0.57462 0.0
C19 C 0.25254 0.32046 0.60211 0.0
C20 C 0.26174 0.34815 0.61927 0.0
C21 C 0.25075 0.37844 0.60906 0.0
C22 C 0.23094 0.37974 0.58166 0.0
H23 H 0.22656 0.30183 0.56175 0.0
O24 O 0.12603 0.32721 0.57204 0.0
O25 O 0.158 0.35685 0.54387 0.0
O26 O 0.16541 0.29126 0.52206 0.0
O27 O 0.20565 0.32307 0.50638 0.0
C28 C 0.25836 0.40738 0.62521 0.0
C29 C 0.24571 0.43691 0.614 0.0
H30 H 0.21748 0.48829 0.58521 0.0
H31 H 0.17509 0.48431 0.54163 0.0
H32 H 0.26076 0.29691 0.60991 0.0
H33 H 0.27697 0.34585 0.6404 0.0
H34 H 0.27368 0.40716 0.6464 0.0
H35 H 0.25143 0.45904 0.62672 0.0
Mn36 Mn 0.68635 0.13437 0.52676 0.0
Mn37 Mn 0.65235 0.20716 0.5302 0.0
C38 C 0.66214 0.15225 0.57533 0.0
C39 C 0.68318 0.07882 0.51608 0.0
C40 C 0.7238 0.19593 0.51864 0.0
O41 O 0.676 0.14625 0.47925 0.0
O42 O 0.64108 0.1876 0.48754 0.0
C43 C 0.58355 0.18886 0.534 0.0
N44 N 0.60897 0.20606 0.5454 0.0
C45 C 0.57614 0.23073 0.58631 0.0
C46 C 0.54894 0.21703 0.57197 0.0
C47 C 0.5527 0.19487 0.54653 0.0
C48 C 0.60601 0.22469 0.572 0.0
H49 H 0.58693 0.17158 0.51479 0.0
C50 C 0.65418 0.16607 0.46936 0.0
O51 O 0.71022 0.09452 0.51442 0.0
O52 O 0.65772 0.09558 0.52318 0.0
N53 N 0.66177 0.22739 0.57089 0.0
C54 C 0.69081 0.23548 0.58395 0.0
C55 C 0.69205 0.25293 0.61295 0.0
C56 C 0.6633 0.26205 0.62833 0.0
C57 C 0.63362 0.25322 0.6147 0.0
C58 C 0.63403 0.23578 0.58572 0.0
H59 H 0.71276 0.22869 0.57236 0.0
O60 O 0.68406 0.12979 0.57591 0.0
O61 O 0.65747 0.16392 0.54696 0.0
O62 O 0.72414 0.16673 0.52824 0.0
O63 O 0.69773 0.212 0.51527 0.0
C64 C 0.60365 0.26046 0.62905 0.0
C65 C 0.57484 0.24937 0.61471 0.0
H66 H 0.5254 0.22298 0.58118 0.0
H67 H 0.53207 0.18261 0.53641 0.0
H68 H 0.71514 0.25942 0.62336 0.0
H69 H 0.66429 0.27546 0.65074 0.0
H70 H 0.60252 0.27402 0.65136 0.0
H71 H 0.55192 0.25444 0.62625 0.0
Mn72 Mn 0.8798 0.68622 0.53137 0.0
Mn73 Mn 0.8068 0.65278 0.52944 0.0
C74 C 0.85974 0.65998 0.57806 0.0
C75 C 0.9358 0.68565 0.5222 0.0
C76 C 0.8195 0.7241 0.52155 0.0
O77 O 0.8696 0.6776 0.4828 0.0
O78 O 0.82884 0.64144 0.48835 0.0
C79 C 0.82459 0.58406 0.53438 0.0
N80 N 0.8067 0.60945 0.54474 0.0
C81 C 0.78119 0.57702 0.58548 0.0
C82 C 0.79583 0.54981 0.57224 0.0
C83 C 0.81873 0.55342 0.54745 0.0
C84 C 0.78749 0.60674 0.57095 0.0
H85 H 0.8423 0.58718 0.51548 0.0
C86 C 0.85078 0.65547 0.47147 0.0
O87 O 0.91894 0.71189 0.52144 0.0
O88 O 0.91997 0.65905 0.52761 0.0
N89 N 0.7835 0.66245 0.56845 0.0
C90 C 0.77054 0.69106 0.57814 0.0
C91 C 0.75119 0.6924 0.60589 0.0
C92 C 0.74399 0.66395 0.62275 0.0
C93 C 0.75585 0.63444 0.61132 0.0
C94 C 0.77545 0.63481 0.58373 0.0
H95 H 0.7737 0.71247 0.56414 0.0
O96 O 0.88246 0.68155 0.58048 0.0
O97 O 0.84936 0.6565 0.54899 0.0
O98 O 0.84734 0.72339 0.53428 0.0
O99 O 0.804 0.69844 0.51427 0.0
C100 C 0.74867 0.60463 0.62601 0.0
C101 C 0.76126 0.57585 0.61299 0.0
H102 H 0.78998 0.5264 0.58183 0.0
H103 H 0.83179 0.5329 0.53823 0.0
H104 H 0.74116 0.7152 0.61377 0.0
H105 H 0.72875 0.66495 0.64397 0.0
H106 H 0.73359 0.60357 0.64733 0.0
H107 H 0.75601 0.55304 0.62468 0.0
Mn108 Mn 0.3289 0.88286 0.52584 0.0
Mn109 Mn 0.36867 0.81406 0.52881 0.0
C110 C 0.35313 0.86624 0.5751 0.0
C111 C 0.33015 0.93852 0.51516 0.0
C112 C 0.29756 0.81882 0.51485 0.0
O113 O 0.34168 0.87206 0.47842 0.0
O114 O 0.38197 0.83642 0.48841 0.0
C115 C 0.43637 0.83371 0.53805 0.0
N116 N 0.41043 0.81613 0.54754 0.0
C117 C 0.44152 0.78831 0.58772 0.0
C118 C 0.46929 0.8028 0.57539 0.0
C119 C 0.46664 0.82663 0.55134 0.0
C120 C 0.41228 0.79546 0.57268 0.0
H121 H 0.43395 0.85179 0.51941 0.0
C122 C 0.36661 0.85571 0.4695 0.0
O123 O 0.30361 0.92194 0.51286 0.0
O124 O 0.35583 0.92268 0.52336 0.0
N125 N 0.35674 0.7913 0.56774 0.0
C126 C 0.32715 0.78234 0.57916 0.0
C127 C 0.32488 0.76247 0.60651 0.0
C128 C 0.35301 0.75215 0.62224 0.0
C129 C 0.38312 0.76261 0.61098 0.0
C130 C 0.38382 0.78255 0.58364 0.0
H131 H 0.30525 0.79025 0.56796 0.0
O132 O 0.32976 0.88718 0.57536 0.0
O133 O 0.35929 0.85564 0.54669 0.0
O134 O 0.29332 0.84717 0.52624 0.0
O135 O 0.32578 0.8082 0.50922 0.0
C136 C 0.41245 0.75463 0.62626 0.0
C137 C 0.44174 0.76728 0.61443 0.0
H138 H 0.49243 0.79586 0.5849 0.0
H139 H 0.48767 0.83914 0.54246 0.0
H140 H 0.30144 0.75513 0.61544 0.0
H141 H 0.35118 0.73686 0.64337 0.0
H142 H 0.4127 0.73917 0.64734 0.0
H143 H 0.46417 0.76135 0.62653 0.0
Mn144 Mn 0.13169 0.68847 0.49325 0.0
Mn145 Mn 0.20028 0.64868 0.49092 0.0
C146 C 0.14875 0.66453 0.44399 0.0
C147 C 0.07587 0.68816 0.50356 0.0
C148 C 0.19575 0.71932 0.50525 0.0
O149 O 0.14203 0.67524 0.54067 0.0
O150 O 0.17718 0.63456 0.53061 0.0
C151 C 0.18037 0.58157 0.47922 0.0
N152 N 0.19886 0.60739 0.4714 0.0
C153 C 0.22859 0.57689 0.43227 0.0
C154 C 0.21335 0.54902 0.44338 0.0
C155 C 0.18813 0.55146 0.46605 0.0
C156 C 0.22086 0.60586 0.44744 0.0
H157 H 0.16121 0.58391 0.49675 0.0
C158 C 0.15788 0.64993 0.54948 0.0
O159 O 0.09306 0.71426 0.50608 0.0
O160 O 0.09123 0.66215 0.49548 0.0
N161 N 0.22377 0.6614 0.45264 0.0
C162 C 0.23146 0.69119 0.44082 0.0
C163 C 0.25189 0.69398 0.41393 0.0
C164 C 0.26376 0.66613 0.39883 0.0
C165 C 0.25421 0.63576 0.41017 0.0
C166 C 0.23384 0.63455 0.43716 0.0
H167 H 0.22198 0.71285 0.45119 0.0
O168 O 0.12774 0.68784 0.4437 0.0
O169 O 0.1589 0.65798 0.47247 0.0
O170 O 0.16774 0.72378 0.49311 0.0
O171 O 0.20561 0.69106 0.51169 0.0
C172 C 0.26318 0.60665 0.39508 0.0
C173 C 0.25061 0.5771 0.40638 0.0
H174 H 0.22075 0.52605 0.43387 0.0
H175 H 0.17506 0.53045 0.47407 0.0
H176 H 0.25831 0.71759 0.40476 0.0
H177 H 0.27937 0.66837 0.37798 0.0
H178 H 0.27914 0.60677 0.37438 0.0
H179 H 0.2571 0.55486 0.39426 0.0
Mn180 Mn 0.3283 0.13371 0.48345 0.0
Mn181 Mn 0.36539 0.20427 0.48132 0.0
C182 C 0.35311 0.15143 0.43476 0.0
C183 C 0.33018 0.07803 0.49379 0.0
C184 C 0.29426 0.19646 0.49437 0.0
O185 O 0.34003 0.14456 0.53111 0.0
O186 O 0.37848 0.1826 0.52238 0.0
C187 C 0.43375 0.18656 0.47318 0.0
N188 N 0.40759 0.20364 0.46354 0.0
C189 C 0.43846 0.23222 0.42371 0.0
C190 C 0.46641 0.21845 0.43639 0.0
C191 C 0.46403 0.19454 0.46044 0.0
C192 C 0.40924 0.22431 0.43838 0.0
H193 H 0.43142 0.1682 0.49155 0.0
C194 C 0.36384 0.16219 0.54075 0.0
O195 O 0.30344 0.09424 0.49568 0.0
O196 O 0.35587 0.09426 0.48619 0.0
N197 N 0.35355 0.22629 0.44202 0.0
C198 C 0.32387 0.23376 0.42982 0.0
C199 C 0.32138 0.25343 0.40233 0.0
C200 C 0.34942 0.26496 0.38726 0.0
C201 C 0.37968 0.25585 0.39926 0.0
C202 C 0.38058 0.23614 0.42675 0.0
H203 H 0.30212 0.22468 0.44048 0.0
O204 O 0.33031 0.12985 0.4339 0.0
O205 O 0.3583 0.16211 0.46336 0.0
O206 O 0.29162 0.16801 0.48284 0.0
O207 O 0.32178 0.20912 0.49957 0.0
C208 C 0.40899 0.26481 0.38453 0.0
C209 C 0.43846 0.25317 0.39692 0.0
H210 H 0.48947 0.22605 0.42717 0.0
H211 H 0.48522 0.18261 0.46967 0.0
H212 H 0.29786 0.25962 0.39276 0.0
H213 H 0.34743 0.28004 0.36599 0.0
H214 H 0.4091 0.28015 0.36335 0.0
H215 H 0.46089 0.25973 0.38516 0.0
Mn216 Mn 0.87912 0.32898 0.47848 0.0
Mn217 Mn 0.80682 0.36336 0.48005 0.0
C218 C 0.85926 0.35449 0.43122 0.0
C219 C 0.93508 0.32977 0.48796 0.0
C220 C 0.81853 0.29224 0.49034 0.0
O221 O 0.86916 0.3386 0.52686 0.0
O222 O 0.82948 0.37577 0.5206 0.0
C223 C 0.82485 0.4318 0.47286 0.0
N224 N 0.80692 0.4061 0.46328 0.0
C225 C 0.78107 0.43732 0.42183 0.0
C226 C 0.79591 0.4649 0.43412 0.0
C227 C 0.8189 0.46203 0.45895 0.0
C228 C 0.78741 0.40805 0.4372 0.0
H229 H 0.84263 0.42923 0.49177 0.0
C230 C 0.85101 0.36142 0.53778 0.0
O231 O 0.9182 0.3035 0.48906 0.0
O232 O 0.91934 0.3562 0.48162 0.0
N233 N 0.78312 0.35248 0.44155 0.0
C234 C 0.7704 0.3235 0.43255 0.0
C235 C 0.75055 0.32143 0.40518 0.0
C236 C 0.74281 0.34945 0.38786 0.0
C237 C 0.75485 0.37926 0.3983 0.0
C238 C 0.77497 0.37966 0.42554 0.0
H239 H 0.77431 0.30227 0.44666 0.0
O240 O 0.88166 0.33257 0.42918 0.0
O241 O 0.84905 0.35857 0.46027 0.0
O242 O 0.84604 0.29201 0.47681 0.0
O243 O 0.80368 0.31842 0.49693 0.0
C244 C 0.7476 0.40864 0.3828 0.0
C245 C 0.76069 0.43772 0.39461 0.0
H246 H 0.79006 0.48802 0.42384 0.0
H247 H 0.83194 0.4828 0.46764 0.0
H248 H 0.74065 0.29835 0.39789 0.0
H249 H 0.72725 0.34786 0.36691 0.0
H250 H 0.73219 0.40909 0.36168 0.0
H251 H 0.75539 0.46017 0.38228 0.0
Mn252 Mn 0.68802 0.88318 0.49008 0.0
Mn253 Mn 0.65468 0.81009 0.48814 0.0
C254 C 0.66522 0.86385 0.44135 0.0
C255 C 0.68417 0.9388 0.49987 0.0
C256 C 0.72572 0.82236 0.50035 0.0
O257 O 0.67694 0.87229 0.53772 0.0
O258 O 0.64196 0.83099 0.52977 0.0
C259 C 0.58697 0.83021 0.47965 0.0
N260 N 0.61198 0.81086 0.47124 0.0
C261 C 0.58031 0.78489 0.43024 0.0
C262 C 0.55304 0.8005 0.44222 0.0
C263 C 0.55652 0.82445 0.46603 0.0
C264 C 0.60968 0.79093 0.44556 0.0
H265 H 0.59031 0.84891 0.49751 0.0
C266 C 0.65481 0.85286 0.54773 0.0
O267 O 0.71135 0.92346 0.50209 0.0
O268 O 0.65898 0.92169 0.49256 0.0
N269 N 0.66532 0.78773 0.44883 0.0
C270 C 0.69452 0.77707 0.43823 0.0
C271 C 0.69648 0.75773 0.41049 0.0
C272 C 0.66819 0.74886 0.39413 0.0
C273 C 0.63828 0.75948 0.40572 0.0
C274 C 0.63799 0.77882 0.43349 0.0
H275 H 0.71605 0.78266 0.45113 0.0
O276 O 0.68667 0.88678 0.44085 0.0
O277 O 0.66003 0.85277 0.46988 0.0
O278 O 0.72591 0.85111 0.48953 0.0
O279 O 0.6997 0.80631 0.50462 0.0
C280 C 0.60874 0.75196 0.39063 0.0
C281 C 0.57967 0.76459 0.40298 0.0
H282 H 0.5298 0.79477 0.43215 0.0
H283 H 0.53604 0.83835 0.47412 0.0
H284 H 0.71973 0.74934 0.40201 0.0
H285 H 0.66972 0.73388 0.37277 0.0
H286 H 0.60816 0.73697 0.36922 0.0
H287 H 0.55713 0.75942 0.39074 0.0
Mn288 Mn 0.53131 0.13342 0.32776 0.0
Mn289 Mn 0.52924 0.20657 0.3606 0.0
C290 C 0.57891 0.15494 0.35127 0.0
C291 C 0.52322 0.07738 0.33124 0.0
C292 C 0.51858 0.1933 0.28978 0.0
O293 O 0.48284 0.14259 0.33799 0.0
O294 O 0.48903 0.18346 0.37374 0.0
C295 C 0.53776 0.18881 0.42883 0.0
N296 N 0.5465 0.20706 0.40312 0.0
C297 C 0.58787 0.23372 0.4338 0.0
C298 C 0.57616 0.21869 0.46152 0.0
C299 C 0.55176 0.19516 0.45891 0.0
C300 C 0.57227 0.22702 0.40473 0.0
H301 H 0.51953 0.17031 0.4263 0.0
C302 C 0.47194 0.16125 0.36035 0.0
O303 O 0.52107 0.09289 0.30418 0.0
O304 O 0.5298 0.09453 0.35666 0.0
N305 N 0.56718 0.23103 0.34927 0.0
C306 C 0.57512 0.24446 0.32033 0.0
C307 C 0.602 0.26498 0.31788 0.0
C308 C 0.61975 0.27283 0.34559 0.0
C309 C 0.61013 0.26037 0.37548 0.0
C310 C 0.58339 0.23956 0.37621 0.0
H311 H 0.56035 0.24079 0.29954 0.0
O312 O 0.58074 0.13192 0.33003 0.0
O313 O 0.54977 0.16476 0.35585 0.0
O314 O 0.53153 0.16548 0.28994 0.0
O315 O 0.51219 0.20875 0.31568 0.0
C316 C 0.62586 0.26798 0.40463 0.0
C317 C 0.6147 0.25465 0.43384 0.0
H318 H 0.58655 0.2248 0.48451 0.0
H319 H 0.54352 0.18196 0.47974 0.0
H320 H 0.60847 0.2754 0.29482 0.0
H321 H 0.64028 0.28896 0.34374 0.0
H322 H 0.64663 0.2839 0.40482 0.0
H323 H 0.62719 0.26025 0.45612 0.0
Mn324 Mn 0.8814 0.53318 0.32782 0.0
Mn325 Mn 0.80808 0.53489 0.36052 0.0
C326 C 0.86247 0.58118 0.35282 0.0
C327 C 0.93705 0.52266 0.33115 0.0
C328 C 0.82073 0.52433 0.28931 0.0
O329 O 0.86989 0.48521 0.33718 0.0
O330 O 0.82817 0.49245 0.37187 0.0
C331 C 0.82432 0.53847 0.42972 0.0
N332 N 0.80774 0.54981 0.40391 0.0
C333 C 0.78083 0.5896 0.43633 0.0
C334 C 0.79376 0.57509 0.46376 0.0
C335 C 0.81672 0.55026 0.46048 0.0
C336 C 0.78834 0.57591 0.40655 0.0
H337 H 0.84219 0.51974 0.42667 0.0
C338 C 0.85003 0.4747 0.35869 0.0
O339 O 0.92151 0.52161 0.30404 0.0
O340 O 0.92012 0.52935 0.35663 0.0
N341 N 0.78736 0.57531 0.35082 0.0
C342 C 0.77996 0.58855 0.32172 0.0
C343 C 0.7618 0.61714 0.32021 0.0
C344 C 0.7513 0.63192 0.34879 0.0
C345 C 0.75953 0.61817 0.37855 0.0
C346 C 0.77777 0.58966 0.37839 0.0
H347 H 0.78785 0.57747 0.2999 0.0
O348 O 0.88529 0.58245 0.33132 0.0
O349 O 0.85119 0.55249 0.35676 0.0
O350 O 0.84954 0.53505 0.28961 0.0
O351 O 0.80446 0.52002 0.31506 0.0
C352 C 0.75088 0.63192 0.40839 0.0
C353 C 0.76134 0.61746 0.43735 0.0
H354 H 0.78635 0.58355 0.48714 0.0
H355 H 0.82832 0.53993 0.48134 0.0
H356 H 0.75583 0.62767 0.29707 0.0
H357 H 0.73731 0.65398 0.34761 0.0
H358 H 0.73663 0.65383 0.40932 0.0
H359 H 0.75509 0.62849 0.4602 0.0
Mn360 Mn 0.49226 0.88191 0.32843 0.0
Mn361 Mn 0.48847 0.81176 0.36656 0.0
C362 C 0.44279 0.86501 0.3523 0.0
C363 C 0.50348 0.93754 0.33068 0.0
C364 C 0.50335 0.81872 0.29553 0.0
O365 O 0.53947 0.87049 0.34076 0.0
O366 O 0.52959 0.8331 0.37948 0.0
C367 C 0.48071 0.83095 0.43438 0.0
N368 N 0.47045 0.81379 0.40853 0.0
C369 C 0.42938 0.7874 0.4397 0.0
C370 C 0.44256 0.80119 0.46744 0.0
C371 C 0.46761 0.82404 0.46469 0.0
C372 C 0.4445 0.79413 0.41043 0.0
H373 H 0.49985 0.8485 0.43184 0.0
C374 C 0.54847 0.85289 0.36474 0.0
O375 O 0.50557 0.92139 0.30393 0.0
O376 O 0.49516 0.92132 0.35605 0.0
N377 N 0.44913 0.78981 0.35494 0.0
C378 C 0.43845 0.77983 0.32544 0.0
C379 C 0.41025 0.76111 0.32318 0.0
C380 C 0.39343 0.75241 0.35125 0.0
C381 C 0.4048 0.76286 0.38131 0.0
C382 C 0.43286 0.7818 0.38198 0.0
H383 H 0.45123 0.78578 0.30369 0.0
O384 O 0.44275 0.88653 0.32946 0.0
O385 O 0.47111 0.85388 0.35809 0.0
O386 O 0.49218 0.84726 0.29204 0.0
O387 O 0.5067 0.80609 0.32332 0.0
C388 C 0.38929 0.75546 0.41065 0.0
C389 C 0.40179 0.76747 0.43993 0.0
H390 H 0.433 0.79449 0.49064 0.0
H391 H 0.47736 0.83599 0.4856 0.0
H392 H 0.40166 0.75315 0.29983 0.0
H393 H 0.37179 0.73783 0.34943 0.0
H394 H 0.36767 0.74072 0.41095 0.0
H395 H 0.38959 0.76188 0.46237 0.0
Mn396 Mn 0.13248 0.49248 0.32828 0.0
Mn397 Mn 0.20284 0.48965 0.366 0.0
C398 C 0.15076 0.44284 0.35039 0.0
C399 C 0.0767 0.50214 0.33082 0.0
C400 C 0.19524 0.5063 0.29552 0.0
O401 O 0.14257 0.53967 0.34204 0.0
O402 O 0.18044 0.52986 0.38027 0.0
C403 C 0.18283 0.47843 0.43304 0.0
N404 N 0.20105 0.47008 0.40726 0.0
C405 C 0.22805 0.42854 0.43722 0.0
C406 C 0.21318 0.43996 0.46518 0.0
C407 C 0.18953 0.46428 0.46293 0.0
C408 C 0.22138 0.44465 0.40846 0.0
H409 H 0.1645 0.49684 0.43077 0.0
C410 C 0.16003 0.54858 0.36617 0.0
O411 O 0.09283 0.50546 0.30418 0.0
O412 O 0.09301 0.49332 0.35602 0.0
N413 N 0.22604 0.45144 0.35322 0.0
C414 C 0.23702 0.44241 0.32353 0.0
C415 C 0.25703 0.4152 0.32054 0.0
C416 C 0.26605 0.39774 0.34811 0.0
C417 C 0.25459 0.40741 0.37839 0.0
C418 C 0.23439 0.43451 0.37978 0.0
H419 H 0.23098 0.45582 0.30219 0.0
O420 O 0.12922 0.44292 0.32757 0.0
O421 O 0.16116 0.47128 0.35706 0.0
O422 O 0.16702 0.49436 0.29199 0.0
O423 O 0.20806 0.50941 0.32328 0.0
C424 C 0.26212 0.39104 0.40723 0.0
C425 C 0.24898 0.40173 0.43673 0.0
H426 H 0.21953 0.42952 0.48811 0.0
H427 H 0.17673 0.4727 0.48389 0.0
H428 H 0.26577 0.40793 0.29704 0.0
H429 H 0.2816 0.37685 0.34574 0.0
H430 H 0.27771 0.37005 0.40695 0.0
H431 H 0.25459 0.38881 0.45876 0.0
Mn432 Mn 0.528 0.88324 0.68832 0.0
Mn433 Mn 0.52837 0.81438 0.64906 0.0
C434 C 0.57705 0.86474 0.66431 0.0
C435 C 0.51864 0.93921 0.68678 0.0
C436 C 0.5138 0.82013 0.71965 0.0
O437 O 0.48017 0.87375 0.67549 0.0
O438 O 0.48959 0.83879 0.6346 0.0
C439 C 0.54104 0.8337 0.5821 0.0
N440 N 0.54816 0.815 0.60794 0.0
C441 C 0.5868 0.78424 0.57783 0.0
C442 C 0.57653 0.79998 0.54994 0.0
C443 C 0.55442 0.82573 0.5522 0.0
C444 C 0.57153 0.79234 0.60663 0.0
H445 H 0.5239 0.85324 0.58423 0.0
C446 C 0.47102 0.85823 0.65012 0.0
O447 O 0.51598 0.92284 0.71338 0.0
O448 O 0.52658 0.92301 0.6613 0.0
N449 N 0.56563 0.78941 0.66206 0.0
C450 C 0.57631 0.78047 0.69191 0.0
C451 C 0.60234 0.75896 0.69486 0.0
C452 C 0.61761 0.74705 0.66714 0.0
C453 C 0.60722 0.75749 0.63675 0.0
C454 C 0.58108 0.77895 0.63536 0.0
H455 H 0.56564 0.78967 0.71352 0.0
O456 O 0.57779 0.88607 0.68729 0.0
O457 O 0.54826 0.85508 0.65821 0.0
O458 O 0.52714 0.84762 0.72399 0.0
O459 O 0.50733 0.81022 0.6914 0.0
C460 C 0.62237 0.74817 0.6078 0.0
C461 C 0.61194 0.76135 0.57823 0.0
H462 H 0.58619 0.79241 0.52712 0.0
H463 H 0.54691 0.8391 0.53122 0.0
H464 H 0.61066 0.75164 0.71851 0.0
H465 H 0.63777 0.73056 0.66951 0.0
H466 H 0.64245 0.73141 0.60806 0.0
H467 H 0.6241 0.75456 0.55612 0.0
Mn468 Mn 0.12788 0.52238 0.68829 0.0
Mn469 Mn 0.19801 0.52567 0.65051 0.0
C470 C 0.14551 0.57197 0.66517 0.0
C471 C 0.07207 0.51238 0.68598 0.0
C472 C 0.19108 0.51104 0.7213 0.0
O473 O 0.13873 0.47498 0.67522 0.0
O474 O 0.17588 0.48526 0.63641 0.0
C475 C 0.1788 0.53612 0.58298 0.0
N476 N 0.19676 0.54465 0.60893 0.0
C477 C 0.22523 0.58495 0.57859 0.0
C478 C 0.21056 0.5733 0.55067 0.0
C479 C 0.18614 0.54975 0.55297 0.0
C480 C 0.2178 0.56954 0.60753 0.0
H481 H 0.16024 0.51789 0.58518 0.0
C482 C 0.15582 0.46629 0.65072 0.0
O483 O 0.08818 0.50948 0.7127 0.0
O484 O 0.08853 0.52045 0.66069 0.0
N485 N 0.22062 0.56446 0.66304 0.0
C486 C 0.22875 0.57582 0.69286 0.0
C487 C 0.24836 0.60335 0.6957 0.0
C488 C 0.25931 0.61925 0.66791 0.0
C489 C 0.24985 0.6079 0.63753 0.0
C490 C 0.23019 0.58035 0.63626 0.0
H491 H 0.22026 0.56448 0.71446 0.0
O492 O 0.12387 0.57195 0.68787 0.0
O493 O 0.15614 0.54357 0.65889 0.0
O494 O 0.16255 0.52223 0.72462 0.0
O495 O 0.20316 0.50612 0.69349 0.0
C496 C 0.25843 0.62332 0.60848 0.0
C497 C 0.24635 0.61164 0.57891 0.0
H498 H 0.21766 0.58314 0.52774 0.0
H499 H 0.17332 0.5415 0.53192 0.0
H500 H 0.25499 0.61231 0.71932 0.0
H501 H 0.27437 0.64052 0.67019 0.0
H502 H 0.2738 0.6445 0.60865 0.0
H503 H 0.25255 0.62398 0.55671 0.0
Mn504 Mn 0.48629 0.13442 0.6854 0.0
Mn505 Mn 0.48483 0.20374 0.64598 0.0
C506 C 0.43764 0.1518 0.65986 0.0
C507 C 0.49669 0.07866 0.68487 0.0
C508 C 0.49892 0.19749 0.71723 0.0
O509 O 0.53404 0.14489 0.67356 0.0
O510 O 0.52519 0.18107 0.63342 0.0
C511 C 0.47714 0.18518 0.57792 0.0
N512 N 0.46692 0.20217 0.60392 0.0
C513 C 0.42693 0.23001 0.5726 0.0
C514 C 0.43988 0.21606 0.54488 0.0
C515 C 0.46432 0.1926 0.54759 0.0
C516 C 0.44159 0.22261 0.60194 0.0
H517 H 0.49614 0.16747 0.5803 0.0
C518 C 0.54359 0.16152 0.64905 0.0
O519 O 0.49842 0.09545 0.71123 0.0
O520 O 0.48907 0.09431 0.65889 0.0
N521 N 0.44616 0.2269 0.65744 0.0
C522 C 0.43574 0.23739 0.68686 0.0
C523 C 0.40821 0.25705 0.68895 0.0
C524 C 0.39181 0.26622 0.6608 0.0
C525 C 0.4029 0.25528 0.63083 0.0
C526 C 0.43024 0.23534 0.63032 0.0
H527 H 0.44818 0.23117 0.7087 0.0
O528 O 0.43661 0.13072 0.6831 0.0
O529 O 0.46633 0.16218 0.6546 0.0
O530 O 0.48614 0.16971 0.72117 0.0
O531 O 0.50321 0.20899 0.68916 0.0
C532 C 0.38782 0.26324 0.60143 0.0
C533 C 0.40006 0.25086 0.57222 0.0
H534 H 0.43067 0.22331 0.52173 0.0
H535 H 0.47391 0.18065 0.52661 0.0
H536 H 0.39986 0.26541 0.71223 0.0
H537 H 0.37071 0.28158 0.66248 0.0
H538 H 0.36676 0.27874 0.60101 0.0
H539 H 0.38825 0.25697 0.54971 0.0
Mn540 Mn 0.87662 0.48249 0.68394 0.0
Mn541 Mn 0.80693 0.47871 0.64524 0.0
C542 C 0.86114 0.43421 0.65715 0.0
C543 C 0.93212 0.49411 0.68358 0.0
C544 C 0.81241 0.48956 0.71695 0.0
O545 O 0.86454 0.53004 0.67332 0.0
O546 O 0.82674 0.52138 0.63454 0.0
C547 C 0.82407 0.47595 0.57628 0.0
N548 N 0.80854 0.46335 0.60214 0.0
C549 C 0.78054 0.4248 0.56911 0.0
C550 C 0.79255 0.44043 0.54186 0.0
C551 C 0.81547 0.4653 0.54537 0.0
C552 C 0.78867 0.43762 0.59909 0.0
H553 H 0.84147 0.49513 0.57943 0.0
C554 C 0.84675 0.5398 0.64971 0.0
O555 O 0.91536 0.4949 0.71002 0.0
O556 O 0.91649 0.48718 0.6574 0.0
N557 N 0.7876 0.43747 0.65481 0.0
C558 C 0.78398 0.42169 0.68346 0.0
C559 C 0.76669 0.39252 0.68454 0.0
C560 C 0.75434 0.37917 0.65597 0.0
C561 C 0.76062 0.39446 0.62648 0.0
C562 C 0.77796 0.42352 0.62706 0.0
H563 H 0.79418 0.43108 0.70539 0.0
O564 O 0.88207 0.43317 0.68051 0.0
O565 O 0.84973 0.46262 0.65243 0.0
O566 O 0.84152 0.47983 0.71991 0.0
O567 O 0.80001 0.49459 0.68939 0.0
C568 C 0.75151 0.38142 0.59645 0.0
C569 C 0.76108 0.3969 0.56769 0.0
H570 H 0.78425 0.43303 0.51839 0.0
H571 H 0.82602 0.47678 0.52455 0.0
H572 H 0.76309 0.38027 0.70732 0.0
H573 H 0.74117 0.35658 0.65683 0.0
H574 H 0.73774 0.35921 0.59518 0.0
H575 H 0.75437 0.38651 0.54466 0.0
Mn576 Mn 0.33005 0.52959 0.13499 0.0
Mn577 Mn 0.36744 0.53412 0.20569 0.0
C578 C 0.35641 0.57803 0.15067 0.0
C579 C 0.32941 0.51783 0.07953 0.0
C580 C 0.29576 0.52325 0.19853 0.0
O581 O 0.34074 0.48216 0.14755 0.0
O582 O 0.37814 0.49113 0.1867 0.0
C583 C 0.43636 0.53698 0.18793 0.0
N584 N 0.41071 0.54923 0.20408 0.0
C585 C 0.44386 0.58878 0.23055 0.0
C586 C 0.47106 0.57368 0.21778 0.0
C587 C 0.46732 0.54852 0.19525 0.0
C588 C 0.41384 0.57538 0.22335 0.0
H589 H 0.4331 0.51754 0.17085 0.0
C590 C 0.36368 0.47256 0.16632 0.0
O591 O 0.30354 0.51686 0.09706 0.0
O592 O 0.35612 0.52473 0.09445 0.0
N593 N 0.35804 0.57544 0.22473 0.0
C594 C 0.3292 0.59055 0.22955 0.0
C595 C 0.32821 0.61978 0.24667 0.0
C596 C 0.35696 0.63367 0.25803 0.0
C597 C 0.3865 0.61871 0.25116 0.0
C598 C 0.38587 0.58955 0.23403 0.0
H599 H 0.30712 0.58083 0.22003 0.0
O600 O 0.33338 0.57883 0.12934 0.0
O601 O 0.36114 0.54972 0.16235 0.0
O602 O 0.29378 0.53246 0.16929 0.0
O603 O 0.32285 0.51902 0.21235 0.0
C604 C 0.4166 0.63215 0.25957 0.0
C605 C 0.44536 0.61695 0.24954 0.0
H606 H 0.49464 0.58195 0.22491 0.0
H607 H 0.48802 0.53765 0.18389 0.0
H608 H 0.30534 0.63168 0.25089 0.0
H609 H 0.35616 0.65632 0.27106 0.0
H610 H 0.41791 0.65449 0.27308 0.0
H611 H 0.46842 0.62777 0.25553 0.0
Mn612 Mn 0.32525 0.4903 0.8837 0.0
Mn613 Mn 0.36299 0.48839 0.81348 0.0
C614 C 0.34921 0.44136 0.86563 0.0
C615 C 0.32625 0.49988 0.93956 0.0
C616 C 0.29193 0.50161 0.82058 0.0
O617 O 0.33773 0.53799 0.87344 0.0
O618 O 0.37626 0.52905 0.83566 0.0
C619 C 0.43021 0.4784 0.83379 0.0
N620 N 0.40488 0.47018 0.81485 0.0
C621 C 0.43618 0.43043 0.78677 0.0
C622 C 0.46368 0.442 0.80238 0.0
C623 C 0.46053 0.46517 0.82705 0.0
C624 C 0.40693 0.44554 0.79365 0.0
H625 H 0.42725 0.49604 0.85276 0.0
C626 C 0.3618 0.54746 0.85608 0.0
O627 O 0.29995 0.50243 0.92276 0.0
O628 O 0.35221 0.49242 0.92377 0.0
N629 N 0.35129 0.44957 0.79053 0.0
C630 C 0.32171 0.43791 0.78186 0.0
C631 C 0.3195 0.41057 0.76195 0.0
C632 C 0.34769 0.39522 0.75119 0.0
C633 C 0.37782 0.40696 0.76108 0.0
C634 C 0.37847 0.43434 0.78094 0.0
H635 H 0.29982 0.44892 0.79009 0.0
O636 O 0.32644 0.44073 0.8872 0.0
O637 O 0.35513 0.46999 0.85533 0.0
O638 O 0.289 0.49012 0.84899 0.0
O639 O 0.31959 0.50703 0.80832 0.0
C640 C 0.40724 0.39203 0.75278 0.0
C641 C 0.43651 0.40394 0.76546 0.0
H642 H 0.48687 0.43226 0.79593 0.0
H643 H 0.4811 0.47335 0.84068 0.0
H644 H 0.29607 0.40135 0.75492 0.0
H645 H 0.34589 0.37407 0.73593 0.0
H646 H 0.40755 0.37098 0.73728 0.0
H647 H 0.45896 0.39186 0.75962 0.0
Mn648 Mn 0.52123 0.3273 0.88357 0.0
Mn649 Mn 0.5276 0.36649 0.81468 0.0
C650 C 0.57101 0.35161 0.86908 0.0
C651 C 0.50884 0.32917 0.93881 0.0
C652 C 0.51385 0.29542 0.81895 0.0
O653 O 0.47438 0.33993 0.87077 0.0
O654 O 0.48547 0.37934 0.83437 0.0
C655 C 0.53485 0.43446 0.83377 0.0
N656 N 0.5454 0.40855 0.81697 0.0
C657 C 0.58547 0.44014 0.78951 0.0
C658 C 0.57166 0.46787 0.80265 0.0
C659 C 0.54712 0.46498 0.82599 0.0
C660 C 0.57098 0.41068 0.79687 0.0
H661 H 0.51602 0.43171 0.85159 0.0
C662 C 0.46598 0.36445 0.85354 0.0
O663 O 0.50703 0.3024 0.92257 0.0
O664 O 0.51715 0.35464 0.92281 0.0
N665 N 0.56839 0.355 0.79529 0.0
C666 C 0.58304 0.32571 0.79175 0.0
C667 C 0.61214 0.32345 0.77451 0.0
C668 C 0.62672 0.35148 0.76223 0.0
C669 C 0.61273 0.38159 0.76857 0.0
C670 C 0.58359 0.38218 0.78575 0.0
H671 H 0.5728 0.30416 0.80195 0.0
O672 O 0.57052 0.32829 0.89004 0.0
O673 O 0.54306 0.35775 0.85725 0.0
O674 O 0.52311 0.2914 0.84812 0.0
O675 O 0.50907 0.32344 0.80755 0.0
C676 C 0.6273 0.41112 0.75994 0.0
C677 C 0.61337 0.44049 0.77005 0.0
H678 H 0.58054 0.49116 0.79531 0.0
H679 H 0.5371 0.48594 0.83761 0.0
H680 H 0.62345 0.30017 0.77095 0.0
H681 H 0.64932 0.3497 0.7492 0.0
H682 H 0.64962 0.41149 0.74633 0.0
H683 H 0.62506 0.46309 0.76393 0.0
Mn684 Mn 0.68662 0.52469 0.88263 0.0
Mn685 Mn 0.64501 0.52607 0.81478 0.0
C686 C 0.6629 0.57402 0.86478 0.0
C687 C 0.68731 0.51531 0.93855 0.0
C688 C 0.71571 0.50895 0.81889 0.0
O689 O 0.67258 0.47727 0.87382 0.0
O690 O 0.63131 0.48704 0.83927 0.0
C691 C 0.57825 0.53785 0.83566 0.0
N692 N 0.60401 0.54615 0.81731 0.0
C693 C 0.57337 0.58601 0.78859 0.0
C694 C 0.54562 0.57478 0.80397 0.0
C695 C 0.54819 0.5515 0.82859 0.0
C696 C 0.60238 0.57062 0.79583 0.0
H697 H 0.58055 0.51968 0.85422 0.0
C698 C 0.64698 0.46838 0.85855 0.0
O699 O 0.71296 0.51213 0.92088 0.0
O700 O 0.66113 0.52399 0.9237 0.0
N701 N 0.65746 0.56333 0.78981 0.0
C702 C 0.68688 0.57179 0.7776 0.0
C703 C 0.68939 0.59802 0.75628 0.0
C704 C 0.66159 0.61509 0.74717 0.0
C705 C 0.63161 0.60605 0.75993 0.0
C706 C 0.63074 0.58005 0.78156 0.0
H707 H 0.7084 0.55871 0.78364 0.0
O708 O 0.68679 0.5745 0.88514 0.0
O709 O 0.65605 0.54536 0.85533 0.0
O710 O 0.72117 0.52236 0.84611 0.0
O711 O 0.68705 0.50542 0.80855 0.0
C712 C 0.60255 0.62192 0.75216 0.0
C713 C 0.57332 0.6117 0.7663 0.0
H714 H 0.52258 0.58445 0.79694 0.0
H715 H 0.52729 0.54326 0.84167 0.0
H716 H 0.71268 0.60481 0.74655 0.0
H717 H 0.66357 0.63514 0.7305 0.0
H718 H 0.60242 0.64204 0.73545 0.0
H719 H 0.55107 0.62407 0.76029 0.0
Mn720 Mn 0.4891 0.68816 0.88363 0.0
Mn721 Mn 0.48616 0.64891 0.8149 0.0
C722 C 0.43953 0.66405 0.86688 0.0
C723 C 0.49996 0.68661 0.93917 0.0
C724 C 0.5005 0.71968 0.81991 0.0
O725 O 0.53661 0.67536 0.87275 0.0
O726 O 0.52628 0.63486 0.83755 0.0
C727 C 0.47454 0.58194 0.83509 0.0
N728 N 0.46679 0.60756 0.81637 0.0
C729 C 0.42732 0.57693 0.78714 0.0
C730 C 0.43845 0.54916 0.80256 0.0
C731 C 0.46124 0.55181 0.82767 0.0
C732 C 0.44264 0.60593 0.79457 0.0
H733 H 0.49202 0.5845 0.85429 0.0
C734 C 0.54538 0.65018 0.85669 0.0
O735 O 0.50224 0.71326 0.92279 0.0
O736 O 0.4917 0.66108 0.92319 0.0
N737 N 0.44754 0.66149 0.79189 0.0
C738 C 0.43534 0.69125 0.78476 0.0
C739 C 0.40814 0.69401 0.76471 0.0
C740 C 0.39309 0.66614 0.75274 0.0
C741 C 0.40477 0.63577 0.76186 0.0
C742 C 0.4321 0.63461 0.7818 0.0
H743 H 0.44575 0.71289 0.79437 0.0
O744 O 0.43944 0.68717 0.88806 0.0
O745 O 0.46798 0.65791 0.85632 0.0
O746 O 0.4887 0.72389 0.84808 0.0
O747 O 0.50659 0.69149 0.80954 0.0
C748 C 0.38964 0.6066 0.75301 0.0
C749 C 0.40114 0.57708 0.76543 0.0
H750 H 0.42874 0.52615 0.79551 0.0
H751 H 0.46923 0.53097 0.84099 0.0
H752 H 0.39869 0.7176 0.75866 0.0
H753 H 0.37196 0.66834 0.73747 0.0
H754 H 0.36867 0.60668 0.73737 0.0
H755 H 0.38891 0.55481 0.75916 0.0
Mn756 Mn 0.68868 0.4823 0.13372 0.0
Mn757 Mn 0.65449 0.48394 0.20595 0.0
C758 C 0.6637 0.43471 0.15387 0.0
C759 C 0.68748 0.49164 0.0778 0.0
C760 C 0.72547 0.49512 0.19395 0.0
O761 O 0.67863 0.53073 0.14347 0.0
O762 O 0.6413 0.52407 0.18286 0.0
C763 C 0.58614 0.47526 0.18834 0.0
N764 N 0.61205 0.46637 0.20626 0.0
C765 C 0.58156 0.42496 0.23303 0.0
C766 C 0.55369 0.43677 0.21833 0.0
C767 C 0.55607 0.46127 0.19492 0.0
C768 C 0.61059 0.44058 0.22617 0.0
H769 H 0.58847 0.49369 0.17003 0.0
C770 C 0.65551 0.54142 0.16137 0.0
O771 O 0.71386 0.49303 0.09448 0.0
O772 O 0.66122 0.485 0.09371 0.0
N773 N 0.66611 0.44589 0.23009 0.0
C774 C 0.69524 0.43769 0.243 0.0
C775 C 0.69783 0.41071 0.26334 0.0
C776 C 0.67012 0.39302 0.27142 0.0
C777 C 0.64011 0.40272 0.25926 0.0
C778 C 0.63922 0.42955 0.23861 0.0
H779 H 0.71618 0.45219 0.23895 0.0
O780 O 0.68555 0.43286 0.1314 0.0
O781 O 0.65937 0.46379 0.16395 0.0
O782 O 0.72579 0.48118 0.16666 0.0
O783 O 0.6992 0.50164 0.20869 0.0
C784 C 0.61099 0.38692 0.26697 0.0
C785 C 0.58165 0.3981 0.25388 0.0
H786 H 0.53074 0.42642 0.22471 0.0
H787 H 0.53506 0.46967 0.18208 0.0
H788 H 0.72102 0.40407 0.27339 0.0
H789 H 0.67209 0.3724 0.2874 0.0
H790 H 0.61091 0.3661 0.2828 0.0
H791 H 0.55939 0.38559 0.2596 0.0
Mn792 Mn 0.53339 0.68603 0.1337 0.0
Mn793 Mn 0.53541 0.64824 0.20383 0.0
C794 C 0.58188 0.66059 0.15104 0.0
C795 C 0.52274 0.68492 0.07821 0.0
C796 C 0.52269 0.71956 0.19657 0.0
O797 O 0.48565 0.67465 0.14459 0.0
O798 O 0.49414 0.63575 0.18223 0.0
C799 C 0.54201 0.57956 0.18649 0.0
N800 N 0.55263 0.60578 0.20292 0.0
C801 C 0.5924 0.57444 0.23114 0.0
C802 C 0.57895 0.5466 0.2179 0.0
C803 C 0.55446 0.54916 0.19448 0.0
C804 C 0.57809 0.60384 0.22325 0.0
H805 H 0.52304 0.58189 0.16873 0.0
C806 C 0.4759 0.6507 0.16192 0.0
O807 O 0.52124 0.71149 0.0947 0.0
O808 O 0.53023 0.65895 0.09403 0.0
N809 N 0.57508 0.65955 0.22547 0.0
C810 C 0.58788 0.68907 0.23254 0.0
C811 C 0.61575 0.69125 0.25172 0.0
C812 C 0.63064 0.66304 0.26308 0.0
C813 C 0.61808 0.63293 0.25421 0.0
C814 C 0.59023 0.63235 0.23497 0.0
H815 H 0.5774 0.71091 0.22345 0.0
O816 O 0.58297 0.6836 0.12972 0.0
O817 O 0.55322 0.65553 0.16169 0.0
O818 O 0.53429 0.72235 0.16821 0.0
O819 O 0.51767 0.69201 0.20921 0.0
C820 C 0.63258 0.60345 0.26297 0.0
C821 C 0.61953 0.57413 0.25167 0.0
H822 H 0.58784 0.52346 0.22561 0.0
H823 H 0.54464 0.52797 0.18302 0.0
H824 H 0.6258 0.71464 0.25763 0.0
H825 H 0.6522 0.66478 0.27778 0.0
H826 H 0.65401 0.60309 0.27796 0.0
H827 H 0.63104 0.55156 0.25817 0.0
Mn828 Mn 0.48515 0.32869 0.13483 0.0
Mn829 Mn 0.48576 0.36186 0.20799 0.0
C830 C 0.43769 0.35356 0.15513 0.0
C831 C 0.49349 0.33119 0.07887 0.0
C832 C 0.49553 0.29054 0.19531 0.0
O833 O 0.53356 0.33848 0.14473 0.0
O834 O 0.52741 0.37327 0.1865 0.0
C835 C 0.48072 0.43047 0.18981 0.0
N836 N 0.47047 0.40518 0.20789 0.0
C837 C 0.43002 0.43776 0.23363 0.0
C838 C 0.4433 0.46492 0.21887 0.0
C839 C 0.46794 0.46118 0.1958 0.0
C840 C 0.44448 0.40801 0.22738 0.0
H841 H 0.49918 0.42708 0.17171 0.0
C842 C 0.54456 0.36017 0.16417 0.0
O843 O 0.49536 0.30433 0.09474 0.0
O844 O 0.48756 0.35696 0.09567 0.0
N845 N 0.44622 0.35227 0.23049 0.0
C846 C 0.43475 0.32331 0.24097 0.0
C847 C 0.40672 0.322 0.25997 0.0
C848 C 0.39095 0.35066 0.26865 0.0
C849 C 0.40344 0.38029 0.25821 0.0
C850 C 0.43144 0.37995 0.23918 0.0
H851 H 0.44715 0.30145 0.23547 0.0
O852 O 0.4358 0.33193 0.13248 0.0
O853 O 0.4667 0.35767 0.16549 0.0
O854 O 0.48398 0.29091 0.16691 0.0
O855 O 0.50086 0.3163 0.21137 0.0
C856 C 0.38905 0.41017 0.26568 0.0
C857 C 0.40244 0.43897 0.25348 0.0
H858 H 0.43382 0.48837 0.22472 0.0
H859 H 0.4772 0.48164 0.18265 0.0
H860 H 0.39754 0.29896 0.26822 0.0
H861 H 0.36936 0.34962 0.28337 0.0
H862 H 0.36746 0.41122 0.2804 0.0
H863 H 0.39084 0.46181 0.25875 0.0
C864 C 0.13221 0.42766 0.40533 0.0
C865 C 0.14896 0.4188 0.37711 0.0
C866 C 0.13402 0.40911 0.43364 0.0
C867 C 0.15222 0.38055 0.43484 0.0
H868 H 0.11886 0.45015 0.40605 0.0
H869 H 0.12216 0.41794 0.4552 0.0
S870 S 0.19751 0.34444 0.36667 0.0
N871 N 0.1821 0.37795 0.35135 0.0
N872 N 0.18547 0.34288 0.40468 0.0
C873 C 0.16757 0.37028 0.40632 0.0
C874 C 0.16581 0.38936 0.37735 0.0
C875 C 0.61067 0.14168 0.43602 0.0
C876 C 0.63889 0.16042 0.4374 0.0
C877 C 0.59261 0.13911 0.40746 0.0
C878 C 0.60175 0.15543 0.37907 0.0
H879 H 0.6018 0.1298 0.45757 0.0
H880 H 0.57046 0.12516 0.40794 0.0
S881 S 0.67557 0.20505 0.36905 0.0
N882 N 0.67654 0.19387 0.40735 0.0
N883 N 0.64259 0.18877 0.35341 0.0
C884 C 0.63086 0.17293 0.37957 0.0
C885 C 0.64933 0.17563 0.40886 0.0
C886 C 0.84172 0.65021 0.41115 0.0
C887 C 0.85799 0.6407 0.43954 0.0
C888 C 0.84447 0.63214 0.38222 0.0
C889 C 0.86288 0.60355 0.3811 0.0
H890 H 0.82587 0.671 0.41163 0.0
H891 H 0.8309 0.63967 0.3612 0.0
S892 S 0.91018 0.56871 0.4488 0.0
N893 N 0.89355 0.60145 0.46428 0.0
N894 N 0.89825 0.56745 0.41081 0.0
C895 C 0.8798 0.59451 0.40916 0.0
C896 C 0.87733 0.61297 0.43818 0.0
C897 C 0.37257 0.84576 0.40947 0.0
C898 C 0.38174 0.86251 0.43768 0.0
C899 C 0.39096 0.84812 0.38073 0.0
C900 C 0.41931 0.86693 0.37956 0.0
H901 H 0.352 0.8296 0.41007 0.0
H902 H 0.38402 0.83379 0.36001 0.0
S903 S 0.45235 0.91668 0.44641 0.0
N904 N 0.41987 0.89959 0.46198 0.0
N905 N 0.45427 0.90391 0.40873 0.0
C906 C 0.42763 0.8848 0.40726 0.0
C907 C 0.40899 0.8825 0.43616 0.0
C908 C 0.16473 0.62345 0.63769 0.0
C909 C 0.14442 0.59615 0.63849 0.0
C910 C 0.16791 0.64222 0.60927 0.0
C911 C 0.15048 0.63454 0.58103 0.0
H912 H 0.17954 0.62923 0.65844 0.0
H913 H 0.18516 0.66188 0.60894 0.0
S914 S 0.0926 0.56708 0.57137 0.0
N915 N 0.10544 0.56378 0.60895 0.0
N916 N 0.11128 0.59891 0.55629 0.0
C917 C 0.12903 0.6084 0.5822 0.0
C918 C 0.12593 0.58935 0.61078 0.0
C919 C 0.36941 0.17289 0.60081 0.0
C920 C 0.3786 0.15565 0.5729 0.0
C921 C 0.387 0.17005 0.63005 0.0
C922 C 0.41462 0.15028 0.63209 0.0
H923 H 0.34938 0.18965 0.59965 0.0
H924 H 0.38005 0.18474 0.6505 0.0
S925 S 0.44753 0.09912 0.5663 0.0
N926 N 0.41602 0.11716 0.54983 0.0
N927 N 0.44899 0.11204 0.60396 0.0
C928 C 0.42298 0.13202 0.60466 0.0
C929 C 0.40511 0.13476 0.57525 0.0
C930 C 0.84543 0.38265 0.62756 0.0
C931 C 0.86309 0.41171 0.62908 0.0
C932 C 0.84275 0.36516 0.59828 0.0
C933 C 0.85818 0.37587 0.56986 0.0
H934 H 0.83221 0.37438 0.64852 0.0
H935 H 0.82744 0.34397 0.59754 0.0
S936 S 0.90892 0.4491 0.56175 0.0
N937 N 0.89746 0.44922 0.59989 0.0
N938 N 0.89269 0.41643 0.54566 0.0
C939 C 0.87702 0.40395 0.57164 0.0
C940 C 0.87954 0.42173 0.60108 0.0
C941 C 0.62649 0.84245 0.63529 0.0
C942 C 0.60128 0.8652 0.63751 0.0
C943 C 0.64488 0.83916 0.60662 0.0
C944 C 0.63925 0.85912 0.57958 0.0
H945 H 0.6309 0.82603 0.65513 0.0
H946 H 0.66285 0.82023 0.60523 0.0
S947 S 0.57747 0.92348 0.57369 0.0
N948 N 0.57274 0.90862 0.61037 0.0
N949 N 0.6076 0.90303 0.55749 0.0
C950 C 0.61527 0.88287 0.5822 0.0
C951 C 0.59634 0.88586 0.61095 0.0
C952 C 0.40933 0.13455 0.4216 0.0
C953 C 0.38081 0.15026 0.41166 0.0
C954 C 0.43815 0.13684 0.40379 0.0
C955 C 0.4397 0.15462 0.37497 0.0
H956 H 0.40979 0.12155 0.44429 0.0
H957 H 0.45979 0.12571 0.4134 0.0
S958 S 0.37126 0.1976 0.3364 0.0
N959 N 0.35538 0.18211 0.36959 0.0
N960 N 0.40967 0.18667 0.33615 0.0
C961 C 0.41103 0.16915 0.36379 0.0
C962 C 0.38151 0.16675 0.38202 0.0
C963 C 0.87575 0.41104 0.41918 0.0
C964 C 0.85961 0.38287 0.40898 0.0
C965 C 0.87364 0.4401 0.40179 0.0
C966 C 0.85556 0.44226 0.3732 0.0
H967 H 0.88913 0.41096 0.44165 0.0
H968 H 0.88529 0.46144 0.4115 0.0
S969 S 0.81172 0.37482 0.33386 0.0
N970 N 0.82721 0.35831 0.36676 0.0
N971 N 0.82299 0.41314 0.33411 0.0
C972 C 0.84061 0.41395 0.36172 0.0
C973 C 0.84284 0.38415 0.3795 0.0
C974 C 0.60804 0.84161 0.37217 0.0
C975 C 0.58013 0.85942 0.38012 0.0
C976 C 0.63664 0.84436 0.3907 0.0
C977 C 0.63783 0.86448 0.41805 0.0
H978 H 0.60734 0.82456 0.35238 0.0
H979 H 0.65727 0.82952 0.38459 0.0
S980 S 0.57156 0.91704 0.44777 0.0
N981 N 0.55604 0.89875 0.41596 0.0
N982 N 0.60898 0.90363 0.4508 0.0
C983 C 0.61039 0.88325 0.42518 0.0
C984 C 0.58168 0.88067 0.40631 0.0
C985 C 0.16893 0.63646 0.39336 0.0
C986 C 0.14755 0.63795 0.41973 0.0
C987 C 0.17203 0.60789 0.37484 0.0
C988 C 0.15339 0.58021 0.38176 0.0
H989 H 0.18457 0.65677 0.38814 0.0
H990 H 0.19 0.60702 0.35588 0.0
S991 S 0.09266 0.57242 0.44681 0.0
N992 N 0.10652 0.60963 0.4506 0.0
N993 N 0.11203 0.55672 0.41574 0.0
C994 C 0.13093 0.58208 0.40696 0.0
C995 C 0.12798 0.6108 0.42584 0.0
C996 C 0.40855 0.88463 0.58894 0.0
C997 C 0.38027 0.86835 0.59864 0.0
C998 C 0.43727 0.88268 0.60687 0.0
C999 C 0.43884 0.86486 0.63564 0.0
H1000 H 0.40897 0.89762 0.56624 0.0
H1001 H 0.45884 0.89407 0.59738 0.0
S1002 S 0.37087 0.82066 0.67365 0.0
N1003 N 0.35498 0.83593 0.64036 0.0
N1004 N 0.40907 0.83235 0.67429 0.0
C1005 C 0.41031 0.85001 0.64673 0.0
C1006 C 0.38094 0.85187 0.62826 0.0
C1007 C 0.13189 0.4339 0.6061 0.0
C1008 C 0.14954 0.43455 0.63502 0.0
C1009 C 0.12978 0.40572 0.58735 0.0
C1010 C 0.14567 0.37701 0.59635 0.0
H1011 H 0.12067 0.4558 0.59718 0.0
H1012 H 0.11686 0.40688 0.56464 0.0
S1013 S 0.1928 0.36511 0.6714 0.0
N1014 N 0.18152 0.40338 0.673 0.0
N1015 N 0.17759 0.35031 0.63758 0.0
C1016 C 0.16202 0.37674 0.62608 0.0
C1017 C 0.16409 0.40559 0.64536 0.0
C1018 C 0.60384 0.17064 0.64468 0.0
C1019 C 0.57554 0.15464 0.63447 0.0
C1020 C 0.63286 0.16846 0.62673 0.0
C1021 C 0.63412 0.15068 0.5978 0.0
H1022 H 0.60315 0.18606 0.66577 0.0
H1023 H 0.65378 0.18205 0.63457 0.0
S1024 S 0.56696 0.10315 0.56203 0.0
N1025 N 0.55116 0.11934 0.59479 0.0
N1026 N 0.60489 0.11544 0.56112 0.0
C1027 C 0.60625 0.13361 0.58836 0.0
C1028 C 0.57711 0.13566 0.60659 0.0
C1029 C 0.83712 0.60013 0.64507 0.0
C1030 C 0.85346 0.57194 0.63517 0.0
C1031 C 0.8404 0.6295 0.6278 0.0
C1032 C 0.85968 0.63131 0.59986 0.0
H1033 H 0.82082 0.59916 0.66547 0.0
H1034 H 0.82659 0.65035 0.6354 0.0
S1035 S 0.90886 0.56479 0.56543 0.0
N1036 N 0.89083 0.54833 0.59693 0.0
N1037 N 0.89678 0.60278 0.56459 0.0
C1038 C 0.8771 0.60357 0.59081 0.0
C1039 C 0.87393 0.57404 0.60833 0.0
C1040 C 0.36952 0.41246 0.177 0.0
C1041 C 0.37882 0.4406 0.16018 0.0
C1042 C 0.38737 0.3834 0.17416 0.0
C1043 C 0.41539 0.38188 0.15493 0.0
H1044 H 0.34907 0.41324 0.19326 0.0
H1045 H 0.38013 0.36257 0.1882 0.0
S1046 S 0.4488 0.44857 0.10516 0.0
N1047 N 0.41682 0.46454 0.12276 0.0
N1048 N 0.45033 0.41077 0.11774 0.0
C1049 C 0.424 0.40962 0.13725 0.0
C1050 C 0.40583 0.4388 0.13991 0.0
C1051 C 0.3887 0.6356 0.84704 0.0
C1052 C 0.41533 0.63723 0.86817 0.0
C1053 C 0.3701 0.60697 0.84418 0.0
C1054 C 0.37711 0.57934 0.86286 0.0
H1055 H 0.38332 0.65585 0.83142 0.0
H1056 H 0.35102 0.60602 0.82632 0.0
S1057 S 0.44289 0.57183 0.92292 0.0
N1058 N 0.44655 0.609 0.90896 0.0
N1059 N 0.4116 0.55604 0.90389 0.0
C1060 C 0.40259 0.58135 0.88504 0.0
C1061 C 0.42156 0.61012 0.88774 0.0
C1062 C 0.40628 0.37239 0.84221 0.0
C1063 C 0.4343 0.38006 0.86003 0.0
C1064 C 0.37756 0.3907 0.84555 0.0
C1065 C 0.37623 0.41752 0.86642 0.0
H1066 H 0.40696 0.35299 0.82471 0.0
H1067 H 0.35697 0.38493 0.83051 0.0
S1068 S 0.44251 0.44615 0.91959 0.0
N1069 N 0.4582 0.41498 0.90035 0.0
N1070 N 0.405 0.44932 0.9064 0.0
C1071 C 0.4037 0.42425 0.8853 0.0
C1072 C 0.43258 0.40566 0.88205 0.0
C1073 C 0.64174 0.40808 0.85061 0.0
C1074 C 0.63196 0.43675 0.86617 0.0
C1075 C 0.62347 0.37931 0.85343 0.0
C1076 C 0.59471 0.37857 0.87153 0.0
H1077 H 0.66264 0.40834 0.83491 0.0
H1078 H 0.63082 0.35821 0.83989 0.0
S1079 S 0.56039 0.44655 0.91874 0.0
N1080 N 0.59306 0.46189 0.90178 0.0
N1081 N 0.55894 0.40846 0.90707 0.0
C1082 C 0.58593 0.40666 0.88851 0.0
C1083 C 0.60439 0.43564 0.88569 0.0
C1084 C 0.60827 0.58966 0.8843 0.0
C1085 C 0.63613 0.59812 0.86666 0.0
C1086 C 0.57963 0.60776 0.88223 0.0
C1087 C 0.57766 0.63547 0.8628 0.0
H1088 H 0.60805 0.5677 0.89852 0.0
H1089 H 0.55838 0.59917 0.89486 0.0
S1090 S 0.64458 0.67033 0.81457 0.0
N1091 N 0.66065 0.63776 0.83117 0.0
N1092 N 0.60676 0.67196 0.82731 0.0
C1093 C 0.60582 0.6454 0.84648 0.0
C1094 C 0.63512 0.62679 0.84852 0.0
C1095 C 0.61182 0.57512 0.13741 0.0
C1096 C 0.64107 0.57366 0.15452 0.0
C1097 C 0.59424 0.60404 0.13491 0.0
C1098 C 0.6048 0.63276 0.14981 0.0
H1099 H 0.60174 0.55336 0.12695 0.0
H1100 H 0.57124 0.60353 0.12243 0.0
S1101 S 0.68122 0.64252 0.19533 0.0
N1102 N 0.68093 0.60393 0.18507 0.0
N1103 N 0.64781 0.65841 0.18027 0.0
C1104 C 0.63484 0.63212 0.16563 0.0
C1105 C 0.65289 0.6025 0.16816 0.0
C1106 C 0.38591 0.62951 0.16673 0.0
C1107 C 0.38448 0.60057 0.14892 0.0
C1108 C 0.41527 0.64685 0.16986 0.0
C1109 C 0.44388 0.63597 0.1549 0.0
H1110 H 0.36481 0.63778 0.17972 0.0
H1111 H 0.41591 0.66804 0.18515 0.0
S1112 S 0.45212 0.56343 0.10338 0.0
N1113 N 0.41381 0.56333 0.11446 0.0
N1114 N 0.46826 0.59577 0.1202 0.0
C1115 C 0.44217 0.60813 0.13578 0.0
C1116 C 0.41262 0.59057 0.1327 0.0
C1117 C 0.60732 0.42134 0.13741 0.0
C1118 C 0.63562 0.41196 0.15383 0.0
C1119 C 0.57858 0.40333 0.13956 0.0
C1120 C 0.57687 0.37489 0.15798 0.0
H1121 H 0.60702 0.44364 0.12374 0.0
H1122 H 0.5571 0.41249 0.12775 0.0
S1123 S 0.64479 0.3378 0.20305 0.0
N1124 N 0.66075 0.37077 0.18708 0.0
N1125 N 0.60655 0.33706 0.1915 0.0
C1126 C 0.60532 0.36432 0.17336 0.0
C1127 C 0.63479 0.3827 0.17104 0.0
C1128 C 0.02177 0.35735 0.50382 0.0
C1129 C 0.0391 0.32807 0.50515 0.0
C1130 C 0.98825 0.35785 0.49798 0.0
C1131 C 0.97066 0.32908 0.49354 0.0
H1132 H 0.03417 0.38013 0.50723 0.0
H1133 H 0.97603 0.38096 0.49724 0.0
S1134 S 1.00455 0.24594 0.4946 0.0
N1135 N 0.03593 0.26955 0.50133 0.0
N1136 N 0.9734 0.27042 0.49061 0.0
C1137 C 0.98776 0.29966 0.49478 0.0
C1138 C 0.0218 0.29917 0.5005 0.0
C1139 C 0.71121 0.02598 0.50837 0.0
C1140 C 0.6821 0.04322 0.51143 0.0
C1141 C 0.71147 0.99233 0.505 0.0
C1142 C 0.68263 0.97438 0.50424 0.0
H1143 H 0.73419 0.03849 0.50884 0.0
H1144 H 0.73462 0.98037 0.50272 0.0
S1145 S 0.59969 0.00768 0.51136 0.0
N1146 N 0.62344 0.03965 0.51365 0.0
N1147 N 0.62396 0.97637 0.50694 0.0
C1148 C 0.65323 0.99122 0.50714 0.0
C1149 C 0.65297 0.02561 0.51083 0.0
C1150 C 0.98933 0.65794 0.51385 0.0
C1151 C 0.97151 0.6866 0.51773 0.0
C1152 C 0.02303 0.65864 0.50939 0.0
C1153 C 0.0403 0.68801 0.50894 0.0
H1154 H 0.97718 0.63476 0.51399 0.0
H1155 H 0.0356 0.63592 0.50629 0.0
S1156 S 1.00518 0.76989 0.51873 0.0
N1157 N 0.97395 0.74527 0.52123 0.0
N1158 N 0.03688 0.74645 0.51311 0.0
C1159 C 0.02279 0.71679 0.51311 0.0
C1160 C 0.98855 0.71612 0.51742 0.0
C1161 C 0.302 0.02493 0.50125 0.0
C1162 C 0.33104 0.04256 0.49941 0.0
C1163 C 0.30198 0.99136 0.50598 0.0
C1164 C 0.33099 0.97399 0.50937 0.0
H1165 H 0.27898 0.0371 0.4988 0.0
H1166 H 0.27895 0.979 0.50723 0.0
S1167 S 0.41376 0.00866 0.50667 0.0
N1168 N 0.38971 0.04001 0.50147 0.0
N1169 N 0.38971 0.9771 0.51052 0.0
C1170 C 0.36025 0.99131 0.50767 0.0
C1171 C 0.36027 0.0255 0.50265 0.0
C1172 C 0.51168 0.9907 0.30306 0.0
C1173 C 0.50938 0.97299 0.33191 0.0
C1174 C 0.5161 0.02428 0.30328 0.0
C1175 C 0.51871 0.0417 0.33236 0.0
H1176 H 0.50966 0.97863 0.27996 0.0
H1177 H 0.5175 0.03664 0.28029 0.0
S1178 S 0.51529 1.00669 0.41478 0.0
N1179 N 0.51064 0.97536 0.39058 0.0
N1180 N 0.51922 0.03842 0.39096 0.0
C1181 C 0.51688 0.02427 0.36148 0.0
C1182 C 0.51213 0.98999 0.36126 0.0
C1183 C 0.98991 0.51376 0.30328 0.0
C1184 C 0.97259 0.51725 0.33231 0.0
C1185 C 0.02346 0.50918 0.30314 0.0
C1186 C 0.04121 0.50756 0.33203 0.0
H1187 H 0.97753 0.51474 0.28028 0.0
H1188 H 0.0355 0.50661 0.28009 0.0
S1189 S 1.00772 0.51577 0.41475 0.0
N1190 N 0.97596 0.5192 0.39088 0.0
N1191 N 0.03898 0.51027 0.39063 0.0
C1192 C 0.02428 0.51099 0.36132 0.0
C1193 C 0.99003 0.51593 0.36146 0.0
C1194 C 0.50875 0.99233 0.71427 0.0
C1195 C 0.51311 0.97473 0.68555 0.0
C1196 C 0.5038 0.02589 0.71381 0.0
C1197 C 0.50267 0.04323 0.68461 0.0
H1198 H 0.50931 0.98017 0.7374 0.0
H1199 H 0.50053 0.03825 0.7366 0.0
S1200 S 0.51306 0.00877 0.60255 0.0
N1201 N 0.5163 0.97743 0.62695 0.0
N1202 N 0.50675 0.04023 0.62614 0.0
C1203 C 0.50701 0.02596 0.65568 0.0
C1204 C 0.5123 0.99182 0.65614 0.0
C1205 C 0.985 0.4994 0.71269 0.0
C1206 C 0.96763 0.49956 0.68348 0.0
C1207 C 0.0187 0.50323 0.71323 0.0
C1208 C 0.03645 0.50766 0.6846 0.0
H1209 H 0.97254 0.4959 0.7354 0.0
H1210 H 0.03088 0.50284 0.73635 0.0
S1211 S 1.00241 0.51088 0.60166 0.0
N1212 N 0.97074 0.50503 0.62513 0.0
N1213 N 0.03386 0.51244 0.6261 0.0
C1214 C 0.01933 0.50818 0.6552 0.0
C1215 C 0.98503 0.50408 0.65465 0.0
C1216 C 0.35598 0.50648 0.9921 0.0
C1217 C 0.32651 0.50448 0.9752 0.0
C1218 C 0.35677 0.51062 0.02578 0.0
C1219 C 0.32812 0.5126 0.04398 0.0
H1220 H 0.3787 0.50504 0.97923 0.0
H1221 H 0.38005 0.51226 0.0376 0.0
S1222 S 0.24455 0.50815 0.01143 0.0
N1223 N 0.26791 0.50452 0.97941 0.0
N1224 N 0.26934 0.512 0.04237 0.0
C1225 C 0.29849 0.51037 0.02737 0.0
C1226 C 0.2977 0.50642 0.99311 0.0
C1227 C 0.50283 0.3018 0.99239 0.0
C1228 C 0.50345 0.33048 0.97425 0.0
C1229 C 0.49978 0.30242 0.02609 0.0
C1230 C 0.49696 0.33174 0.04314 0.0
H1231 H 0.50526 0.27861 0.98056 0.0
H1232 H 0.49965 0.2796 0.03885 0.0
S1233 S 0.49585 0.41372 1.00686 0.0
N1234 N 0.50011 0.38916 0.97579 0.0
N1235 N 0.49414 0.39026 0.03903 0.0
C1236 C 0.49702 0.36063 0.02525 0.0
C1237 C 0.50032 0.36001 0.99089 0.0
C1238 C 0.65875 0.50706 0.99156 0.0
C1239 C 0.68782 0.5092 0.97398 0.0
C1240 C 0.65872 0.50112 0.02501 0.0
C1241 C 0.68777 0.49739 0.04229 0.0
H1242 H 0.63576 0.50982 0.9794 0.0
H1243 H 0.63575 0.4997 0.03742 0.0
S1244 S 0.77054 0.5009 0.00764 0.0
N1245 N 0.74645 0.50703 0.97653 0.0
N1246 N 0.74649 0.49614 0.039 0.0
C1247 C 0.717 0.49951 0.02494 0.0
C1248 C 0.717 0.50532 0.99094 0.0
C1249 C 0.51109 0.71412 0.99194 0.0
C1250 C 0.50596 0.6854 0.97454 0.0
C1251 C 0.51621 0.7137 0.02541 0.0
C1252 C 0.51671 0.68453 0.04287 0.0
H1253 H 0.51099 0.73722 0.97967 0.0
H1254 H 0.52007 0.7365 0.03763 0.0
S1255 S 0.50411 0.60251 0.00896 0.0
N1256 N 0.50135 0.62683 0.97753 0.0
N1257 N 0.51117 0.62612 0.04025 0.0
C1258 C 0.51162 0.6556 0.02582 0.0
C1259 C 0.50619 0.65602 0.99174 0.0
C1260 C 0.24898 0.27555 0.49788 0.0
C1261 C 0.21658 0.26752 0.50459 0.0
C1262 C 0.27285 0.25227 0.49487 0.0
C1263 C 0.26616 0.21906 0.49741 0.0
H1264 H 0.25673 0.30043 0.49565 0.0
H1265 H 0.29713 0.26089 0.49029 0.0
S1266 S 0.18522 0.1839 0.51317 0.0
N1267 N 0.17874 0.22332 0.51312 0.0
N1268 N 0.22419 0.17886 0.506 0.0
C1269 C 0.23378 0.21006 0.50307 0.0
C1270 C 0.20899 0.23433 0.50699 0.0
C1271 C 0.77027 0.23024 0.53667 0.0
C1272 C 0.75448 0.21314 0.51191 0.0
C1273 C 0.79274 0.25465 0.52955 0.0
C1274 C 0.80167 0.26149 0.49758 0.0
H1275 H 0.76407 0.22616 0.56164 0.0
H1276 H 0.80222 0.26918 0.54913 0.0
S1277 S 0.77279 0.21852 0.42461 0.0
N1278 N 0.75206 0.20214 0.45449 0.0
N1279 N 0.79718 0.24531 0.44138 0.0
C1280 C 0.78915 0.24175 0.47295 0.0
C1281 C 0.76487 0.21816 0.48006 0.0
C1282 C 0.79492 0.76537 0.48524 0.0
C1283 C 0.80308 0.75547 0.51661 0.0
C1284 C 0.77294 0.79069 0.48006 0.0
C1285 C 0.75653 0.80512 0.50605 0.0
H1286 H 0.80461 0.75261 0.46458 0.0
H1287 H 0.76711 0.79726 0.45548 0.0
S1288 S 0.77418 0.79248 0.59271 0.0
N1289 N 0.7986 0.76714 0.57393 0.0
N1290 N 0.75353 0.8112 0.56416 0.0
C1291 C 0.76646 0.79729 0.53745 0.0
C1292 C 0.79061 0.77321 0.54272 0.0
C1293 C 0.21302 0.77895 0.5089 0.0
C1294 C 0.22067 0.74571 0.50807 0.0
C1295 C 0.23755 0.8029 0.51119 0.0
C1296 C 0.27064 0.7945 0.51167 0.0
H1297 H 0.188 0.78648 0.50817 0.0
H1298 H 0.23058 0.82806 0.51232 0.0
S1299 S 0.30378 0.71064 0.50906 0.0
N1300 N 0.26438 0.70611 0.50803 0.0
N1301 N 0.30924 0.74989 0.51058 0.0
C1302 C 0.27833 0.76123 0.51024 0.0
C1303 C 0.25377 0.73725 0.50894 0.0
C1304 C 0.48105 0.21981 0.25092 0.0
C1305 C 0.51262 0.21021 0.25884 0.0
C1306 C 0.47536 0.24314 0.22697 0.0
C1307 C 0.50117 0.25934 0.21189 0.0
H1308 H 0.46072 0.21028 0.26436 0.0
H1309 H 0.45067 0.25 0.22193 0.0
S1310 S 0.58789 0.23907 0.21995 0.0
N1311 N 0.56955 0.21399 0.24499 0.0
N1312 N 0.55908 0.2611 0.20331 0.0
C1313 C 0.53262 0.24819 0.21777 0.0
C1314 C 0.53828 0.22283 0.24051 0.0
C1315 C 0.78691 0.54213 0.24237 0.0
C1316 C 0.80408 0.51751 0.25832 0.0
C1317 C 0.76269 0.53478 0.21976 0.0
C1318 C 0.75617 0.5027 0.21081 0.0
H1319 H 0.7907 0.56716 0.2486 0.0
H1320 H 0.74804 0.55424 0.21021 0.0
S1321 S 0.79953 0.43007 0.24005 0.0
N1322 N 0.8155 0.46013 0.26087 0.0
N1323 N 0.77283 0.44662 0.21544 0.0
C1324 C 0.77608 0.47826 0.22345 0.0
C1325 C 0.7994 0.48559 0.2479 0.0
C1326 C 0.52405 0.7412 0.25212 0.0
C1327 C 0.51949 0.74757 0.21912 0.0
C1328 C 0.52011 0.76481 0.27547 0.0
C1329 C 0.51029 0.79649 0.26777 0.0
H1330 H 0.53069 0.71733 0.26048 0.0
H1331 H 0.52413 0.75734 0.30019 0.0
S1332 S 0.4958 0.8268 0.18467 0.0
N1333 N 0.50592 0.78853 0.17934 0.0
N1334 N 0.49701 0.83341 0.22401 0.0
C1335 C 0.5061 0.80382 0.23474 0.0
C1336 C 0.511 0.77937 0.21035 0.0
C1337 C 0.24663 0.52925 0.2749 0.0
C1338 C 0.21691 0.51429 0.26768 0.0
C1339 C 0.27102 0.53225 0.2521 0.0
C1340 C 0.26692 0.52196 0.22007 0.0
H1341 H 0.25209 0.53761 0.29906 0.0
H1342 H 0.2938 0.54216 0.26022 0.0
S1343 S 0.19277 0.48434 0.18674 0.0
N1344 N 0.18399 0.49054 0.22517 0.0
N1345 N 0.22986 0.49816 0.1813 0.0
C1346 C 0.23667 0.50892 0.21146 0.0
C1347 C 0.21169 0.50478 0.23538 0.0
C1348 C 0.50678 0.77935 0.8036 0.0
C1349 C 0.50356 0.74638 0.79543 0.0
C1350 C 0.51009 0.80353 0.77943 0.0
C1351 C 0.50921 0.7957 0.74625 0.0
H1352 H 0.50736 0.78644 0.82873 0.0
H1353 H 0.51321 0.82843 0.78677 0.0
S1354 S 0.50002 0.71276 0.7119 0.0
N1355 N 0.49971 0.70765 0.75119 0.0
N1356 N 0.504 0.75192 0.70703 0.0
C1357 C 0.5052 0.76275 0.73807 0.0
C1358 C 0.50291 0.73849 0.76224 0.0
C1359 C 0.27131 0.50618 0.76459 0.0
C1360 C 0.26398 0.50459 0.79772 0.0
C1361 C 0.24748 0.50738 0.74112 0.0
C1362 C 0.21437 0.508 0.74889 0.0
H1363 H 0.29605 0.50587 0.7561 0.0
H1364 H 0.25566 0.50849 0.71632 0.0
S1365 S 0.18114 0.50486 0.832 0.0
N1366 N 0.2207 0.5034 0.8374 0.0
N1367 N 0.17519 0.50717 0.7926 0.0
C1368 C 0.20615 0.50685 0.78192 0.0
C1369 C 0.23099 0.50476 0.80636 0.0
C1370 C 0.49902 0.2131 0.77733 0.0
C1371 C 0.50609 0.22023 0.74469 0.0
C1372 C 0.5027 0.23672 0.80198 0.0
C1373 C 0.51245 0.26856 0.79462 0.0
H1374 H 0.48999 0.18943 0.78378 0.0
H1375 H 0.49661 0.2304 0.82658 0.0
S1376 S 0.53594 0.29937 0.7133 0.0
N1377 N 0.52679 0.2612 0.70757 0.0
N1378 N 0.52963 0.30531 0.75196 0.0
C1379 C 0.51994 0.27556 0.76211 0.0
C1380 C 0.51788 0.25154 0.73774 0.0
C1381 C 0.77502 0.50734 0.80051 0.0
C1382 C 0.74202 0.50016 0.79534 0.0
C1383 C 0.79844 0.50259 0.77587 0.0
C1384 C 0.78946 0.49154 0.74491 0.0
H1385 H 0.78269 0.51744 0.82335 0.0
H1386 H 0.82335 0.50897 0.78063 0.0
S1387 S 0.70669 0.467 0.71932 0.0
N1388 N 0.70282 0.47779 0.75726 0.0
N1389 N 0.74509 0.47284 0.71117 0.0
C1390 C 0.75666 0.48377 0.7399 0.0
C1391 C 0.73348 0.48698 0.765 0.0
loop_
_geom_bond_atom_site_label_1
_geom_bond_atom_site_label_2
_geom_bond_distance
_geom_bond_site_symmetry_2
_ccdc_geom_bond_type
Mn0 O5 2.095 . S
Mn0 O15 2.162 . S
Mn0 O16 2.297 . S
Mn0 O24 2.385 . S
Mn0 O25 2.209 . S
Mn0 O26 2.094 . S
Mn1 O6 2.121 . S
Mn1 N8 2.257 . S
Mn1 N17 2.282 . S
Mn1 O25 2.215 . S
Mn1 O27 2.117 . S
C2 O24 1.234 . S
C2 O25 1.283 . S
C3 O15 1.281 . S
C3 O16 1.236 . S
C4 O26 1.240 . S
C4 O27 1.264 . S
O5 Mn0 2.095 . S
O5 C14 1.250 . S
O6 Mn1 2.121 . S
O6 C14 1.258 . S
C7 N8 1.326 . S
C7 C11 1.460 . S
C7 H13 0.929 . S
N8 Mn1 2.257 . S
N8 C7 1.326 . S
N8 C12 1.362 . S
C9 C10 1.258 . S
C9 C12 1.431 . S
C9 C29 1.449 . S
C10 C9 1.258 . S
C10 C11 1.477 . S
C10 H30 0.931 . S
C11 C7 1.460 . S
C11 C10 1.477 . S
C11 H31 0.930 . S
C12 N8 1.362 . S
C12 C9 1.431 . S
C12 C22 1.476 . S
H13 C7 0.929 . S
C14 O5 1.250 . S
C14 O6 1.258 . S
O15 Mn0 2.162 . S
O15 C3 1.281 . S
O16 Mn0 2.297 . S
O16 C3 1.236 . S
N17 Mn1 2.282 . S
N17 C18 1.328 . S
N17 C22 1.318 . S
C18 N17 1.328 . S
C18 C19 1.457 . S
C18 H23 0.929 . S
C19 C18 1.457 . S
C19 C20 1.291 . S
C19 H32 0.931 . S
C20 C19 1.291 . S
C20 C21 1.373 . S
C20 H33 0.929 . S
C21 C20 1.373 . S
C21 C22 1.396 . S
C21 C28 1.403 . S
C22 C12 1.476 . S
C22 N17 1.318 . S
C22 C21 1.396 . S
H23 C18 0.929 . S
O24 Mn0 2.385 . S
O24 C2 1.234 . S
O25 Mn0 2.209 . S
O25 Mn1 2.215 . S
O25 C2 1.283 . S
O26 Mn0 2.094 . S
O26 C4 1.240 . S
O27 Mn1 2.117 . S
O27 C4 1.264 . S
C28 C21 1.403 . S
C28 C29 1.399 . S
C28 H34 0.929 . S
C29 C9 1.449 . S
C29 C28 1.399 . S
C29 H35 0.930 . S
H30 C10 0.931 . S
H31 C11 0.930 . S
H32 C19 0.931 . S
H33 C20 0.929 . S
H34 C28 0.929 . S
H35 C29 0.930 . S
Mn36 O41 2.095 . S
Mn36 O51 2.162 . S
Mn36 O52 2.297 . S
Mn36 O60 2.385 . S
Mn36 O61 2.209 . S
Mn36 O62 2.094 . S
Mn37 O42 2.121 . S
Mn37 N44 2.257 . S
Mn37 N53 2.282 . S
Mn37 O61 2.215 . S
Mn37 O63 2.117 . S
C38 O60 1.234 . S
C38 O61 1.283 . S
C39 O51 1.281 . S
C39 O52 1.236 . S
C40 O62 1.240 . S
C40 O63 1.264 . S
O41 Mn36 2.095 . S
O41 C50 1.250 . S
O42 Mn37 2.121 . S
O42 C50 1.258 . S
C43 N44 1.326 . S
C43 C47 1.460 . S
C43 H49 0.929 . S
N44 Mn37 2.257 . S
N44 C43 1.326 . S
N44 C48 1.362 . S
C45 C46 1.258 . S
C45 C48 1.431 . S
C45 C65 1.449 . S
C46 C45 1.258 . S
C46 C47 1.477 . S
C46 H66 0.931 . S
C47 C43 1.460 . S
C47 C46 1.477 . S
C47 H67 0.930 . S
C48 N44 1.362 . S
C48 C45 1.431 . S
C48 C58 1.476 . S
H49 C43 0.929 . S
C50 O41 1.250 . S
C50 O42 1.258 . S
O51 Mn36 2.162 . S
O51 C39 1.281 . S
O52 Mn36 2.297 . S
O52 C39 1.236 . S
N53 Mn37 2.282 . S
N53 C54 1.328 . S
N53 C58 1.318 . S
C54 N53 1.328 . S
C54 C55 1.457 . S
C54 H59 0.929 . S
C55 C54 1.457 . S
C55 C56 1.291 . S
C55 H68 0.931 . S
C56 C55 1.291 . S
C56 C57 1.373 . S
C56 H69 0.929 . S
C57 C56 1.373 . S
C57 C58 1.396 . S
C57 C64 1.403 . S
C58 C48 1.476 . S
C58 N53 1.318 . S
C58 C57 1.396 . S
H59 C54 0.929 . S
O60 Mn36 2.385 . S
O60 C38 1.234 . S
O61 Mn36 2.209 . S
O61 Mn37 2.215 . S
O61 C38 1.283 . S
O62 Mn36 2.094 . S
O62 C40 1.240 . S
O63 Mn37 2.117 . S
O63 C40 1.264 . S
C64 C57 1.403 . S
C64 C65 1.399 . S
C64 H70 0.929 . S
C65 C45 1.449 . S
C65 C64 1.399 . S
C65 H71 0.930 . S
H66 C46 0.931 . S
H67 C47 0.930 . S
H68 C55 0.931 . S
H69 C56 0.929 . S
H70 C64 0.929 . S
H71 C65 0.930 . S
Mn72 O77 2.095 . S
Mn72 O87 2.162 . S
Mn72 O88 2.297 . S
Mn72 O96 2.385 . S
Mn72 O97 2.209 . S
Mn72 O98 2.094 . S
Mn73 O78 2.121 . S
Mn73 N80 2.257 . S
Mn73 N89 2.282 . S
Mn73 O97 2.215 . S
Mn73 O99 2.117 . S
C74 O96 1.234 . S
C74 O97 1.283 . S
C75 O87 1.281 . S
C75 O88 1.236 . S
C76 O98 1.240 . S
C76 O99 1.264 . S
O77 Mn72 2.095 . S
O77 C86 1.250 . S
O78 Mn73 2.121 . S
O78 C86 1.258 . S
C79 N80 1.326 . S
C79 C83 1.460 . S
C79 H85 0.929 . S
N80 Mn73 2.257 . S
N80 C79 1.326 . S
N80 C84 1.362 . S
C81 C82 1.258 . S
C81 C84 1.431 . S
C81 C101 1.449 . S
C82 C81 1.258 . S
C82 C83 1.477 . S
C82 H102 0.931 . S
C83 C79 1.460 . S
C83 C82 1.477 . S
C83 H103 0.930 . S
C84 N80 1.362 . S
C84 C81 1.431 . S
C84 C94 1.476 . S
H85 C79 0.929 . S
C86 O77 1.250 . S
C86 O78 1.258 . S
O87 Mn72 2.162 . S
O87 C75 1.281 . S
O88 Mn72 2.297 . S
O88 C75 1.236 . S
N89 Mn73 2.282 . S
N89 C90 1.328 . S
N89 C94 1.318 . S
C90 N89 1.328 . S
C90 C91 1.457 . S
C90 H95 0.929 . S
C91 C90 1.457 . S
C91 C92 1.291 . S
C91 H104 0.931 . S
C92 C91 1.291 . S
C92 C93 1.373 . S
C92 H105 0.929 . S
C93 C92 1.373 . S
C93 C94 1.396 . S
C93 C100 1.403 . S
C94 C84 1.476 . S
C94 N89 1.318 . S
C94 C93 1.396 . S
H95 C90 0.929 . S
O96 Mn72 2.385 . S
O96 C74 1.234 . S
O97 Mn72 2.209 . S
O97 Mn73 2.215 . S
O97 C74 1.283 . S
O98 Mn72 2.094 . S
O98 C76 1.240 . S
O99 Mn73 2.117 . S
O99 C76 1.264 . S
C100 C93 1.403 . S
C100 C101 1.399 . S
C100 H106 0.929 . S
C101 C81 1.449 . S
C101 C100 1.399 . S
C101 H107 0.930 . S
H102 C82 0.931 . S
H103 C83 0.930 . S
H104 C91 0.931 . S
H105 C92 0.929 . S
H106 C100 0.929 . S
H107 C101 0.930 . S
Mn108 O113 2.095 . S
Mn108 O123 2.162 . S
Mn108 O124 2.297 . S
Mn108 O132 2.385 . S
Mn108 O133 2.209 . S
Mn108 O134 2.094 . S
Mn109 O114 2.121 . S
Mn109 N116 2.257 . S
Mn109 N125 2.282 . S
Mn109 O133 2.215 . S
Mn109 O135 2.117 . S
C110 O132 1.234 . S
C110 O133 1.283 . S
C111 O123 1.281 . S
C111 O124 1.236 . S
C112 O134 1.240 . S
C112 O135 1.264 . S
O113 Mn108 2.095 . S
O113 C122 1.250 . S
O114 Mn109 2.121 . S
O114 C122 1.258 . S
C115 N116 1.326 . S
C115 C119 1.460 . S
C115 H121 0.929 . S
N116 Mn109 2.257 . S
N116 C115 1.326 . S
N116 C120 1.362 . S
C117 C118 1.258 . S
C117 C120 1.431 . S
C117 C137 1.449 . S
C118 C117 1.258 . S
C118 C119 1.477 . S
C118 H138 0.931 . S
C119 C115 1.460 . S
C119 C118 1.477 . S
C119 H139 0.930 . S
C120 N116 1.362 . S
C120 C117 1.431 . S
C120 C130 1.476 . S
H121 C115 0.929 . S
C122 O113 1.250 . S
C122 O114 1.258 . S
O123 Mn108 2.162 . S
O123 C111 1.281 . S
O124 Mn108 2.297 . S
O124 C111 1.236 . S
N125 Mn109 2.282 . S
N125 C126 1.328 . S
N125 C130 1.318 . S
C126 N125 1.328 . S
C126 C127 1.457 . S
C126 H131 0.929 . S
C127 C126 1.457 . S
C127 C128 1.291 . S
C127 H140 0.931 . S
C128 C127 1.291 . S
C128 C129 1.373 . S
C128 H141 0.929 . S
C129 C128 1.373 . S
C129 C130 1.396 . S
C129 C136 1.403 . S
C130 C120 1.476 . S
C130 N125 1.318 . S
C130 C129 1.396 . S
H131 C126 0.929 . S
O132 Mn108 2.385 . S
O132 C110 1.234 . S
O133 Mn108 2.209 . S
O133 Mn109 2.215 . S
O133 C110 1.283 . S
O134 Mn108 2.094 . S
O134 C112 1.240 . S
O135 Mn109 2.117 . S
O135 C112 1.264 . S
C136 C129 1.403 . S
C136 C137 1.399 . S
C136 H142 0.929 . S
C137 C117 1.449 . S
C137 C136 1.399 . S
C137 H143 0.930 . S
H138 C118 0.931 . S
H139 C119 0.930 . S
H140 C127 0.931 . S
H141 C128 0.929 . S
H142 C136 0.929 . S
H143 C137 0.930 . S
Mn144 O149 2.095 . S
Mn144 O159 2.162 . S
Mn144 O160 2.297 . S
Mn144 O168 2.385 . S
Mn144 O169 2.209 . S
Mn144 O170 2.094 . S
Mn145 O150 2.121 . S
Mn145 N152 2.257 . S
Mn145 N161 2.282 . S
Mn145 O169 2.215 . S
Mn145 O171 2.117 . S
C146 O168 1.234 . S
C146 O169 1.283 . S
C147 O159 1.281 . S
C147 O160 1.236 . S
C148 O170 1.240 . S
C148 O171 1.264 . S
O149 Mn144 2.095 . S
O149 C158 1.250 . S
O150 Mn145 2.121 . S
O150 C158 1.258 . S
C151 N152 1.326 . S
C151 C155 1.460 . S
C151 H157 0.929 . S
N152 Mn145 2.257 . S
N152 C151 1.326 . S
N152 C156 1.362 . S
C153 C154 1.258 . S
C153 C156 1.431 . S
C153 C173 1.449 . S
C154 C153 1.258 . S
C154 C155 1.477 . S
C154 H174 0.931 . S
C155 C151 1.460 . S
C155 C154 1.477 . S
C155 H175 0.930 . S
C156 N152 1.362 . S
C156 C153 1.431 . S
C156 C166 1.476 . S
H157 C151 0.929 . S
C158 O149 1.250 . S
C158 O150 1.258 . S
O159 Mn144 2.162 . S
O159 C147 1.281 . S
O160 Mn144 2.297 . S
O160 C147 1.236 . S
N161 Mn145 2.282 . S
N161 C162 1.328 . S
N161 C166 1.318 . S
C162 N161 1.328 . S
C162 C163 1.457 . S
C162 H167 0.929 . S
C163 C162 1.457 . S
C163 C164 1.291 . S
C163 H176 0.931 . S
C164 C163 1.291 . S
C164 C165 1.373 . S
C164 H177 0.929 . S
C165 C164 1.373 . S
C165 C166 1.396 . S
C165 C172 1.403 . S
C166 C156 1.476 . S
C166 N161 1.318 . S
C166 C165 1.396 . S
H167 C162 0.929 . S
O168 Mn144 2.385 . S
O168 C146 1.234 . S
O169 Mn144 2.209 . S
O169 Mn145 2.215 . S
O169 C146 1.283 . S
O170 Mn144 2.094 . S
O170 C148 1.240 . S
O171 Mn145 2.117 . S
O171 C148 1.264 . S
C172 C165 1.403 . S
C172 C173 1.399 . S
C172 H178 0.929 . S
C173 C153 1.449 . S
C173 C172 1.399 . S
C173 H179 0.930 . S
H174 C154 0.931 . S
H175 C155 0.930 . S
H176 C163 0.931 . S
H177 C164 0.929 . S
H178 C172 0.929 . S
H179 C173 0.930 . S
Mn180 O185 2.095 . S
Mn180 O195 2.162 . S
Mn180 O196 2.297 . S
Mn180 O204 2.385 . S
Mn180 O205 2.209 . S
Mn180 O206 2.094 . S
Mn181 O186 2.121 . S
Mn181 N188 2.257 . S
Mn181 N197 2.282 . S
Mn181 O205 2.215 . S
Mn181 O207 2.117 . S
C182 O204 1.234 . S
C182 O205 1.283 . S
C183 O195 1.281 . S
C183 O196 1.236 . S
C184 O206 1.240 . S
C184 O207 1.264 . S
O185 Mn180 2.095 . S
O185 C194 1.250 . S
O186 Mn181 2.121 . S
O186 C194 1.258 . S
C187 N188 1.326 . S
C187 C191 1.460 . S
C187 H193 0.929 . S
N188 Mn181 2.257 . S
N188 C187 1.326 . S
N188 C192 1.362 . S
C189 C190 1.258 . S
C189 C192 1.431 . S
C189 C209 1.449 . S
C190 C189 1.258 . S
C190 C191 1.477 . S
C190 H210 0.931 . S
C191 C187 1.460 . S
C191 C190 1.477 . S
C191 H211 0.930 . S
C192 N188 1.362 . S
C192 C189 1.431 . S
C192 C202 1.476 . S
H193 C187 0.929 . S
C194 O185 1.250 . S
C194 O186 1.258 . S
O195 Mn180 2.162 . S
O195 C183 1.281 . S
O196 Mn180 2.297 . S
O196 C183 1.236 . S
N197 Mn181 2.282 . S
N197 C198 1.328 . S
N197 C202 1.318 . S
C198 N197 1.328 . S
C198 C199 1.457 . S
C198 H203 0.929 . S
C199 C198 1.457 . S
C199 C200 1.291 . S
C199 H212 0.931 . S
C200 C199 1.291 . S
C200 C201 1.373 . S
C200 H213 0.929 . S
C201 C200 1.373 . S
C201 C202 1.396 . S
C201 C208 1.403 . S
C202 C192 1.476 . S
C202 N197 1.318 . S
C202 C201 1.396 . S
H203 C198 0.929 . S
O204 Mn180 2.385 . S
O204 C182 1.234 . S
O205 Mn180 2.209 . S
O205 Mn181 2.215 . S
O205 C182 1.283 . S
O206 Mn180 2.094 . S
O206 C184 1.240 . S
O207 Mn181 2.117 . S
O207 C184 1.264 . S
C208 C201 1.403 . S
C208 C209 1.399 . S
C208 H214 0.929 . S
C209 C189 1.449 . S
C209 C208 1.399 . S
C209 H215 0.930 . S
H210 C190 0.931 . S
H211 C191 0.930 . S
H212 C199 0.931 . S
H213 C200 0.929 . S
H214 C208 0.929 . S
H215 C209 0.930 . S
Mn216 O221 2.095 . S
Mn216 O231 2.162 . S
Mn216 O232 2.297 . S
Mn216 O240 2.385 . S
Mn216 O241 2.209 . S
Mn216 O242 2.094 . S
Mn217 O222 2.121 . S
Mn217 N224 2.257 . S
Mn217 N233 2.282 . S
Mn217 O241 2.215 . S
Mn217 O243 2.117 . S
C218 O240 1.234 . S
C218 O241 1.283 . S
C219 O231 1.281 . S
C219 O232 1.236 . S
C220 O242 1.240 . S
C220 O243 1.264 . S
O221 Mn216 2.095 . S
O221 C230 1.250 . S
O222 Mn217 2.121 . S
O222 C230 1.258 . S
C223 N224 1.326 . S
C223 C227 1.460 . S
C223 H229 0.929 . S
N224 Mn217 2.257 . S
N224 C223 1.326 . S
N224 C228 1.362 . S
C225 C226 1.258 . S
C225 C228 1.431 . S
C225 C245 1.449 . S
C226 C225 1.258 . S
C226 C227 1.477 . S
C226 H246 0.931 . S
C227 C223 1.460 . S
C227 C226 1.477 . S
C227 H247 0.930 . S
C228 N224 1.362 . S
C228 C225 1.431 . S
C228 C238 1.476 . S
H229 C223 0.929 . S
C230 O221 1.250 . S
C230 O222 1.258 . S
O231 Mn216 2.162 . S
O231 C219 1.281 . S
O232 Mn216 2.297 . S
O232 C219 1.236 . S
N233 Mn217 2.282 . S
N233 C234 1.328 . S
N233 C238 1.318 . S
C234 N233 1.328 . S
C234 C235 1.457 . S
C234 H239 0.929 . S
C235 C234 1.457 . S
C235 C236 1.291 . S
C235 H248 0.931 . S
C236 C235 1.291 . S
C236 C237 1.373 . S
C236 H249 0.929 . S
C237 C236 1.373 . S
C237 C238 1.396 . S
C237 C244 1.403 . S
C238 C228 1.476 . S
C238 N233 1.318 . S
C238 C237 1.396 . S
H239 C234 0.929 . S
O240 Mn216 2.385 . S
O240 C218 1.234 . S
O241 Mn216 2.209 . S
O241 Mn217 2.215 . S
O241 C218 1.283 . S
O242 Mn216 2.094 . S
O242 C220 1.240 . S
O243 Mn217 2.117 . S
O243 C220 1.264 . S
C244 C237 1.403 . S
C244 C245 1.399 . S
C244 H250 0.929 . S
C245 C225 1.449 . S
C245 C244 1.399 . S
C245 H251 0.930 . S
H246 C226 0.931 . S
H247 C227 0.930 . S
H248 C235 0.931 . S
H249 C236 0.929 . S
H250 C244 0.929 . S
H251 C245 0.930 . S
Mn252 O257 2.095 . S
Mn252 O267 2.162 . S
Mn252 O268 2.297 . S
Mn252 O276 2.385 . S
Mn252 O277 2.209 . S
Mn252 O278 2.094 . S
Mn253 O258 2.121 . S
Mn253 N260 2.257 . S
Mn253 N269 2.282 . S
Mn253 O277 2.215 . S
Mn253 O279 2.117 . S
C254 O276 1.234 . S
C254 O277 1.283 . S
C255 O267 1.281 . S
C255 O268 1.236 . S
C256 O278 1.240 . S
C256 O279 1.264 . S
O257 Mn252 2.095 . S
O257 C266 1.250 . S
O258 Mn253 2.121 . S
O258 C266 1.258 . S
C259 N260 1.326 . S
C259 C263 1.460 . S
C259 H265 0.929 . S
N260 Mn253 2.257 . S
N260 C259 1.326 . S
N260 C264 1.362 . S
C261 C262 1.258 . S
C261 C264 1.431 . S
C261 C281 1.449 . S
C262 C261 1.258 . S
C262 C263 1.477 . S
C262 H282 0.931 . S
C263 C259 1.460 . S
C263 C262 1.477 . S
C263 H283 0.930 . S
C264 N260 1.362 . S
C264 C261 1.431 . S
C264 C274 1.476 . S
H265 C259 0.929 . S
C266 O257 1.250 . S
C266 O258 1.258 . S
O267 Mn252 2.162 . S
O267 C255 1.281 . S
O268 Mn252 2.297 . S
O268 C255 1.236 . S
N269 Mn253 2.282 . S
N269 C270 1.328 . S
N269 C274 1.318 . S
C270 N269 1.328 . S
C270 C271 1.457 . S
C270 H275 0.929 . S
C271 C270 1.457 . S
C271 C272 1.291 . S
C271 H284 0.931 . S
C272 C271 1.291 . S
C272 C273 1.373 . S
C272 H285 0.929 . S
C273 C272 1.373 . S
C273 C274 1.396 . S
C273 C280 1.403 . S
C274 C264 1.476 . S
C274 N269 1.318 . S
C274 C273 1.396 . S
H275 C270 0.929 . S
O276 Mn252 2.385 . S
O276 C254 1.234 . S
O277 Mn252 2.209 . S
O277 Mn253 2.215 . S
O277 C254 1.283 . S
O278 Mn252 2.094 . S
O278 C256 1.240 . S
O279 Mn253 2.117 . S
O279 C256 1.264 . S
C280 C273 1.403 . S
C280 C281 1.399 . S
C280 H286 0.929 . S
C281 C261 1.449 . S
C281 C280 1.399 . S
C281 H287 0.930 . S
H282 C262 0.931 . S
H283 C263 0.930 . S
H284 C271 0.931 . S
H285 C272 0.929 . S
H286 C280 0.929 . S
H287 C281 0.930 . S
Mn288 O293 2.095 . S
Mn288 O303 2.162 . S
Mn288 O304 2.297 . S
Mn288 O312 2.385 . S
Mn288 O313 2.209 . S
Mn288 O314 2.094 . S
Mn289 O294 2.121 . S
Mn289 N296 2.257 . S
Mn289 N305 2.282 . S
Mn289 O313 2.215 . S
Mn289 O315 2.117 . S
C290 O312 1.234 . S
C290 O313 1.283 . S
C291 O303 1.281 . S
C291 O304 1.236 . S
C292 O314 1.240 . S
C292 O315 1.264 . S
O293 Mn288 2.095 . S
O293 C302 1.250 . S
O294 Mn289 2.121 . S
O294 C302 1.258 . S
C295 N296 1.326 . S
C295 C299 1.460 . S
C295 H301 0.929 . S
N296 Mn289 2.257 . S
N296 C295 1.326 . S
N296 C300 1.362 . S
C297 C298 1.258 . S
C297 C300 1.431 . S
C297 C317 1.449 . S
C298 C297 1.258 . S
C298 C299 1.477 . S
C298 H318 0.931 . S
C299 C295 1.460 . S
C299 C298 1.477 . S
C299 H319 0.930 . S
C300 N296 1.362 . S
C300 C297 1.431 . S
C300 C310 1.476 . S
H301 C295 0.929 . S
C302 O293 1.250 . S
C302 O294 1.258 . S
O303 Mn288 2.162 . S
O303 C291 1.281 . S
O304 Mn288 2.297 . S
O304 C291 1.236 . S
N305 Mn289 2.282 . S
N305 C306 1.328 . S
N305 C310 1.318 . S
C306 N305 1.328 . S
C306 C307 1.457 . S
C306 H311 0.929 . S
C307 C306 1.457 . S
C307 C308 1.291 . S
C307 H320 0.931 . S
C308 C307 1.291 . S
C308 C309 1.373 . S
C308 H321 0.929 . S
C309 C308 1.373 . S
C309 C310 1.396 . S
C309 C316 1.403 . S
C310 C300 1.476 . S
C310 N305 1.318 . S
C310 C309 1.396 . S
H311 C306 0.929 . S
O312 Mn288 2.385 . S
O312 C290 1.234 . S
O313 Mn288 2.209 . S
O313 Mn289 2.215 . S
O313 C290 1.283 . S
O314 Mn288 2.094 . S
O314 C292 1.240 . S
O315 Mn289 2.117 . S
O315 C292 1.264 . S
C316 C309 1.403 . S
C316 C317 1.399 . S
C316 H322 0.929 . S
C317 C297 1.449 . S
C317 C316 1.399 . S
C317 H323 0.930 . S
H318 C298 0.931 . S
H319 C299 0.930 . S
H320 C307 0.931 . S
H321 C308 0.929 . S
H322 C316 0.929 . S
H323 C317 0.930 . S
Mn324 O329 2.095 . S
Mn324 O339 2.162 . S
Mn324 O340 2.297 . S
Mn324 O348 2.385 . S
Mn324 O349 2.209 . S
Mn324 O350 2.094 . S
Mn325 O330 2.121 . S
Mn325 N332 2.257 . S
Mn325 N341 2.282 . S
Mn325 O349 2.215 . S
Mn325 O351 2.117 . S
C326 O348 1.234 . S
C326 O349 1.283 . S
C327 O339 1.281 . S
C327 O340 1.236 . S
C328 O350 1.240 . S
C328 O351 1.264 . S
O329 Mn324 2.095 . S
O329 C338 1.250 . S
O330 Mn325 2.121 . S
O330 C338 1.258 . S
C331 N332 1.326 . S
C331 C335 1.460 . S
C331 H337 0.929 . S
N332 Mn325 2.257 . S
N332 C331 1.326 . S
N332 C336 1.362 . S
C333 C334 1.258 . S
C333 C336 1.431 . S
C333 C353 1.449 . S
C334 C333 1.258 . S
C334 C335 1.477 . S
C334 H354 0.931 . S
C335 C331 1.460 . S
C335 C334 1.477 . S
C335 H355 0.930 . S
C336 N332 1.362 . S
C336 C333 1.431 . S
C336 C346 1.476 . S
H337 C331 0.929 . S
C338 O329 1.250 . S
C338 O330 1.258 . S
O339 Mn324 2.162 . S
O339 C327 1.281 . S
O340 Mn324 2.297 . S
O340 C327 1.236 . S
N341 Mn325 2.282 . S
N341 C342 1.328 . S
N341 C346 1.318 . S
C342 N341 1.328 . S
C342 C343 1.457 . S
C342 H347 0.929 . S
C343 C342 1.457 . S
C343 C344 1.291 . S
C343 H356 0.931 . S
C344 C343 1.291 . S
C344 C345 1.373 . S
C344 H357 0.929 . S
C345 C344 1.373 . S
C345 C346 1.396 . S
C345 C352 1.403 . S
C346 C336 1.476 . S
C346 N341 1.318 . S
C346 C345 1.396 . S
H347 C342 0.929 . S
O348 Mn324 2.385 . S
O348 C326 1.234 . S
O349 Mn324 2.209 . S
O349 Mn325 2.215 . S
O349 C326 1.283 . S
O350 Mn324 2.094 . S
O350 C328 1.240 . S
O351 Mn325 2.117 . S
O351 C328 1.264 . S
C352 C345 1.403 . S
C352 C353 1.399 . S
C352 H358 0.929 . S
C353 C333 1.449 . S
C353 C352 1.399 . S
C353 H359 0.930 . S
H354 C334 0.931 . S
H355 C335 0.930 . S
H356 C343 0.931 . S
H357 C344 0.929 . S
H358 C352 0.929 . S
H359 C353 0.930 . S
Mn360 O365 2.095 . S
Mn360 O375 2.162 . S
Mn360 O376 2.297 . S
Mn360 O384 2.385 . S
Mn360 O385 2.209 . S
Mn360 O386 2.094 . S
Mn361 O366 2.121 . S
Mn361 N368 2.257 . S
Mn361 N377 2.282 . S
Mn361 O385 2.215 . S
Mn361 O387 2.117 . S
C362 O384 1.234 . S
C362 O385 1.283 . S
C363 O375 1.281 . S
C363 O376 1.236 . S
C364 O386 1.240 . S
C364 O387 1.264 . S
O365 Mn360 2.095 . S
O365 C374 1.250 . S
O366 Mn361 2.121 . S
O366 C374 1.258 . S
C367 N368 1.326 . S
C367 C371 1.460 . S
C367 H373 0.929 . S
N368 Mn361 2.257 . S
N368 C367 1.326 . S
N368 C372 1.362 . S
C369 C370 1.258 . S
C369 C372 1.431 . S
C369 C389 1.449 . S
C370 C369 1.258 . S
C370 C371 1.477 . S
C370 H390 0.931 . S
C371 C367 1.460 . S
C371 C370 1.477 . S
C371 H391 0.930 . S
C372 N368 1.362 . S
C372 C369 1.431 . S
C372 C382 1.476 . S
H373 C367 0.929 . S
C374 O365 1.250 . S
C374 O366 1.258 . S
O375 Mn360 2.162 . S
O375 C363 1.281 . S
O376 Mn360 2.297 . S
O376 C363 1.236 . S
N377 Mn361 2.282 . S
N377 C378 1.328 . S
N377 C382 1.318 . S
C378 N377 1.328 . S
C378 C379 1.457 . S
C378 H383 0.929 . S
C379 C378 1.457 . S
C379 C380 1.291 . S
C379 H392 0.931 . S
C380 C379 1.291 . S
C380 C381 1.373 . S
C380 H393 0.929 . S
C381 C380 1.373 . S
C381 C382 1.396 . S
C381 C388 1.403 . S
C382 C372 1.476 . S
C382 N377 1.318 . S
C382 C381 1.396 . S
H383 C378 0.929 . S
O384 Mn360 2.385 . S
O384 C362 1.234 . S
O385 Mn360 2.209 . S
O385 Mn361 2.215 . S
O385 C362 1.283 . S
O386 Mn360 2.094 . S
O386 C364 1.240 . S
O387 Mn361 2.117 . S
O387 C364 1.264 . S
C388 C381 1.403 . S
C388 C389 1.399 . S
C388 H394 0.929 . S
C389 C369 1.449 . S
C389 C388 1.399 . S
C389 H395 0.930 . S
H390 C370 0.931 . S
H391 C371 0.930 . S
H392 C379 0.931 . S
H393 C380 0.929 . S
H394 C388 0.929 . S
H395 C389 0.930 . S
Mn396 O401 2.095 . S
Mn396 O411 2.162 . S
Mn396 O412 2.297 . S
Mn396 O420 2.385 . S
Mn396 O421 2.209 . S
Mn396 O422 2.094 . S
Mn397 O402 2.121 . S
Mn397 N404 2.257 . S
Mn397 N413 2.282 . S
Mn397 O421 2.215 . S
Mn397 O423 2.117 . S
C398 O420 1.234 . S
C398 O421 1.283 . S
C399 O411 1.281 . S
C399 O412 1.236 . S
C400 O422 1.240 . S
C400 O423 1.264 . S
O401 Mn396 2.095 . S
O401 C410 1.250 . S
O402 Mn397 2.121 . S
O402 C410 1.258 . S
C403 N404 1.326 . S
C403 C407 1.460 . S
C403 H409 0.929 . S
N404 Mn397 2.257 . S
N404 C403 1.326 . S
N404 C408 1.362 . S
C405 C406 1.258 . S
C405 C408 1.431 . S
C405 C425 1.449 . S
C406 C405 1.258 . S
C406 C407 1.477 . S
C406 H426 0.931 . S
C407 C403 1.460 . S
C407 C406 1.477 . S
C407 H427 0.930 . S
C408 N404 1.362 . S
C408 C405 1.431 . S
C408 C418 1.476 . S
H409 C403 0.929 . S
C410 O401 1.250 . S
C410 O402 1.258 . S
O411 Mn396 2.162 . S
O411 C399 1.281 . S
O412 Mn396 2.297 . S
O412 C399 1.236 . S
N413 Mn397 2.282 . S
N413 C414 1.328 . S
N413 C418 1.318 . S
C414 N413 1.328 . S
C414 C415 1.457 . S
C414 H419 0.929 . S
C415 C414 1.457 . S
C415 C416 1.291 . S
C415 H428 0.931 . S
C416 C415 1.291 . S
C416 C417 1.373 . S
C416 H429 0.929 . S
C417 C416 1.373 . S
C417 C418 1.396 . S
C417 C424 1.403 . S
C418 C408 1.476 . S
C418 N413 1.318 . S
C418 C417 1.396 . S
H419 C414 0.929 . S
O420 Mn396 2.385 . S
O420 C398 1.234 . S
O421 Mn396 2.209 . S
O421 Mn397 2.215 . S
O421 C398 1.283 . S
O422 Mn396 2.094 . S
O422 C400 1.240 . S
O423 Mn397 2.117 . S
O423 C400 1.264 . S
C424 C417 1.403 . S
C424 C425 1.399 . S
C424 H430 0.929 . S
C425 C405 1.449 . S
C425 C424 1.399 . S
C425 H431 0.930 . S
H426 C406 0.931 . S
H427 C407 0.930 . S
H428 C415 0.931 . S
H429 C416 0.929 . S
H430 C424 0.929 . S
H431 C425 0.930 . S
Mn432 O437 2.095 . S
Mn432 O447 2.162 . S
Mn432 O448 2.297 . S
Mn432 O456 2.385 . S
Mn432 O457 2.209 . S
Mn432 O458 2.094 . S
Mn433 O438 2.121 . S
Mn433 N440 2.257 . S
Mn433 N449 2.282 . S
Mn433 O457 2.215 . S
Mn433 O459 2.117 . S
C434 O456 1.234 . S
C434 O457 1.283 . S
C435 O447 1.281 . S
C435 O448 1.236 . S
C436 O458 1.240 . S
C436 O459 1.264 . S
O437 Mn432 2.095 . S
O437 C446 1.250 . S
O438 Mn433 2.121 . S
O438 C446 1.258 . S
C439 N440 1.326 . S
C439 C443 1.460 . S
C439 H445 0.929 . S
N440 Mn433 2.257 . S
N440 C439 1.326 . S
N440 C444 1.362 . S
C441 C442 1.258 . S
C441 C444 1.431 . S
C441 C461 1.449 . S
C442 C441 1.258 . S
C442 C443 1.477 . S
C442 H462 0.931 . S
C443 C439 1.460 . S
C443 C442 1.477 . S
C443 H463 0.930 . S
C444 N440 1.362 . S
C444 C441 1.431 . S
C444 C454 1.476 . S
H445 C439 0.929 . S
C446 O437 1.250 . S
C446 O438 1.258 . S
O447 Mn432 2.162 . S
O447 C435 1.281 . S
O448 Mn432 2.297 . S
O448 C435 1.236 . S
N449 Mn433 2.282 . S
N449 C450 1.328 . S
N449 C454 1.318 . S
C450 N449 1.328 . S
C450 C451 1.457 . S
C450 H455 0.929 . S
C451 C450 1.457 . S
C451 C452 1.291 . S
C451 H464 0.931 . S
C452 C451 1.291 . S
C452 C453 1.373 . S
C452 H465 0.929 . S
C453 C452 1.373 . S
C453 C454 1.396 . S
C453 C460 1.403 . S
C454 C444 1.476 . S
C454 N449 1.318 . S
C454 C453 1.396 . S
H455 C450 0.929 . S
O456 Mn432 2.385 . S
O456 C434 1.234 . S
O457 Mn432 2.209 . S
O457 Mn433 2.215 . S
O457 C434 1.283 . S
O458 Mn432 2.094 . S
O458 C436 1.240 . S
O459 Mn433 2.117 . S
O459 C436 1.264 . S
C460 C453 1.403 . S
C460 C461 1.399 . S
C460 H466 0.929 . S
C461 C441 1.449 . S
C461 C460 1.399 . S
C461 H467 0.930 . S
H462 C442 0.931 . S
H463 C443 0.930 . S
H464 C451 0.931 . S
H465 C452 0.929 . S
H466 C460 0.929 . S
H467 C461 0.930 . S
Mn468 O473 2.095 . S
Mn468 O483 2.162 . S
Mn468 O484 2.297 . S
Mn468 O492 2.385 . S
Mn468 O493 2.209 . S
Mn468 O494 2.094 . S
Mn469 O474 2.121 . S
Mn469 N476 2.257 . S
Mn469 N485 2.282 . S
Mn469 O493 2.215 . S
Mn469 O495 2.117 . S
C470 O492 1.234 . S
C470 O493 1.283 . S
C471 O483 1.281 . S
C471 O484 1.236 . S
C472 O494 1.240 . S
C472 O495 1.264 . S
O473 Mn468 2.095 . S
O473 C482 1.250 . S
O474 Mn469 2.121 . S
O474 C482 1.258 . S
C475 N476 1.326 . S
C475 C479 1.460 . S
C475 H481 0.929 . S
N476 Mn469 2.257 . S
N476 C475 1.326 . S
N476 C480 1.362 . S
C477 C478 1.258 . S
C477 C480 1.431 . S
C477 C497 1.449 . S
C478 C477 1.258 . S
C478 C479 1.477 . S
C478 H498 0.931 . S
C479 C475 1.460 . S
C479 C478 1.477 . S
C479 H499 0.930 . S
C480 N476 1.362 . S
C480 C477 1.431 . S
C480 C490 1.476 . S
H481 C475 0.929 . S
C482 O473 1.250 . S
C482 O474 1.258 . S
O483 Mn468 2.162 . S
O483 C471 1.281 . S
O484 Mn468 2.297 . S
O484 C471 1.236 . S
N485 Mn469 2.282 . S
N485 C486 1.328 . S
N485 C490 1.318 . S
C486 N485 1.328 . S
C486 C487 1.457 . S
C486 H491 0.929 . S
C487 C486 1.457 . S
C487 C488 1.291 . S
C487 H500 0.931 . S
C488 C487 1.291 . S
C488 C489 1.373 . S
C488 H501 0.929 . S
C489 C488 1.373 . S
C489 C490 1.396 . S
C489 C496 1.403 . S
C490 C480 1.476 . S
C490 N485 1.318 . S
C490 C489 1.396 . S
H491 C486 0.929 . S
O492 Mn468 2.385 . S
O492 C470 1.234 . S
O493 Mn468 2.209 . S
O493 Mn469 2.215 . S
O493 C470 1.283 . S
O494 Mn468 2.094 . S
O494 C472 1.240 . S
O495 Mn469 2.117 . S
O495 C472 1.264 . S
C496 C489 1.403 . S
C496 C497 1.399 . S
C496 H502 0.929 . S
C497 C477 1.449 . S
C497 C496 1.399 . S
C497 H503 0.930 . S
H498 C478 0.931 . S
H499 C479 0.930 . S
H500 C487 0.931 . S
H501 C488 0.929 . S
H502 C496 0.929 . S
H503 C497 0.930 . S
Mn504 O509 2.095 . S
Mn504 O519 2.162 . S
Mn504 O520 2.297 . S
Mn504 O528 2.385 . S
Mn504 O529 2.209 . S
Mn504 O530 2.094 . S
Mn505 O510 2.121 . S
Mn505 N512 2.257 . S
Mn505 N521 2.282 . S
Mn505 O529 2.215 . S
Mn505 O531 2.117 . S
C506 O528 1.234 . S
C506 O529 1.283 . S
C507 O519 1.281 . S
C507 O520 1.236 . S
C508 O530 1.240 . S
C508 O531 1.264 . S
O509 Mn504 2.095 . S
O509 C518 1.250 . S
O510 Mn505 2.121 . S
O510 C518 1.258 . S
C511 N512 1.326 . S
C511 C515 1.460 . S
C511 H517 0.929 . S
N512 Mn505 2.257 . S
N512 C511 1.326 . S
N512 C516 1.362 . S
C513 C514 1.258 . S
C513 C516 1.431 . S
C513 C533 1.449 . S
C514 C513 1.258 . S
C514 C515 1.477 . S
C514 H534 0.931 . S
C515 C511 1.460 . S
C515 C514 1.477 . S
C515 H535 0.930 . S
C516 N512 1.362 . S
C516 C513 1.431 . S
C516 C526 1.476 . S
H517 C511 0.929 . S
C518 O509 1.250 . S
C518 O510 1.258 . S
O519 Mn504 2.162 . S
O519 C507 1.281 . S
O520 Mn504 2.297 . S
O520 C507 1.236 . S
N521 Mn505 2.282 . S
N521 C522 1.328 . S
N521 C526 1.318 . S
C522 N521 1.328 . S
C522 C523 1.457 . S
C522 H527 0.929 . S
C523 C522 1.457 . S
C523 C524 1.291 . S
C523 H536 0.931 . S
C524 C523 1.291 . S
C524 C525 1.373 . S
C524 H537 0.929 . S
C525 C524 1.373 . S
C525 C526 1.396 . S
C525 C532 1.403 . S
C526 C516 1.476 . S
C526 N521 1.318 . S
C526 C525 1.396 . S
H527 C522 0.929 . S
O528 Mn504 2.385 . S
O528 C506 1.234 . S
O529 Mn504 2.209 . S
O529 Mn505 2.215 . S
O529 C506 1.283 . S
O530 Mn504 2.094 . S
O530 C508 1.240 . S
O531 Mn505 2.117 . S
O531 C508 1.264 . S
C532 C525 1.403 . S
C532 C533 1.399 . S
C532 H538 0.929 . S
C533 C513 1.449 . S
C533 C532 1.399 . S
C533 H539 0.930 . S
H534 C514 0.931 . S
H535 C515 0.930 . S
H536 C523 0.931 . S
H537 C524 0.929 . S
H538 C532 0.929 . S
H539 C533 0.930 . S
Mn540 O545 2.095 . S
Mn540 O555 2.162 . S
Mn540 O556 2.297 . S
Mn540 O564 2.385 . S
Mn540 O565 2.209 . S
Mn540 O566 2.094 . S
Mn541 O546 2.121 . S
Mn541 N548 2.257 . S
Mn541 N557 2.282 . S
Mn541 O565 2.215 . S
Mn541 O567 2.117 . S
C542 O564 1.234 . S
C542 O565 1.283 . S
C543 O555 1.281 . S
C543 O556 1.236 . S
C544 O566 1.240 . S
C544 O567 1.264 . S
O545 Mn540 2.095 . S
O545 C554 1.250 . S
O546 Mn541 2.121 . S
O546 C554 1.258 . S
C547 N548 1.326 . S
C547 C551 1.460 . S
C547 H553 0.929 . S
N548 Mn541 2.257 . S
N548 C547 1.326 . S
N548 C552 1.362 . S
C549 C550 1.258 . S
C549 C552 1.431 . S
C549 C569 1.449 . S
C550 C549 1.258 . S
C550 C551 1.477 . S
C550 H570 0.931 . S
C551 C547 1.460 . S
C551 C550 1.477 . S
C551 H571 0.930 . S
C552 N548 1.362 . S
C552 C549 1.431 . S
C552 C562 1.476 . S
H553 C547 0.929 . S
C554 O545 1.250 . S
C554 O546 1.258 . S
O555 Mn540 2.162 . S
O555 C543 1.281 . S
O556 Mn540 2.297 . S
O556 C543 1.236 . S
N557 Mn541 2.282 . S
N557 C558 1.328 . S
N557 C562 1.318 . S
C558 N557 1.328 . S
C558 C559 1.457 . S
C558 H563 0.929 . S
C559 C558 1.457 . S
C559 C560 1.291 . S
C559 H572 0.931 . S
C560 C559 1.291 . S
C560 C561 1.373 . S
C560 H573 0.929 . S
C561 C560 1.373 . S
C561 C562 1.396 . S
C561 C568 1.403 . S
C562 C552 1.476 . S
C562 N557 1.318 . S
C562 C561 1.396 . S
H563 C558 0.929 . S
O564 Mn540 2.385 . S
O564 C542 1.234 . S
O565 Mn540 2.209 . S
O565 Mn541 2.215 . S
O565 C542 1.283 . S
O566 Mn540 2.094 . S
O566 C544 1.240 . S
O567 Mn541 2.117 . S
O567 C544 1.264 . S
C568 C561 1.403 . S
C568 C569 1.399 . S
C568 H574 0.929 . S
C569 C549 1.449 . S
C569 C568 1.399 . S
C569 H575 0.930 . S
H570 C550 0.931 . S
H571 C551 0.930 . S
H572 C559 0.931 . S
H573 C560 0.929 . S
H574 C568 0.929 . S
H575 C569 0.930 . S
Mn576 O581 2.095 . S
Mn576 O591 2.162 . S
Mn576 O592 2.297 . S
Mn576 O600 2.385 . S
Mn576 O601 2.209 . S
Mn576 O602 2.094 . S
Mn577 O582 2.121 . S
Mn577 N584 2.257 . S
Mn577 N593 2.282 . S
Mn577 O601 2.215 . S
Mn577 O603 2.117 . S
C578 O600 1.234 . S
C578 O601 1.283 . S
C579 O591 1.281 . S
C579 O592 1.236 . S
C580 O602 1.240 . S
C580 O603 1.264 . S
O581 Mn576 2.095 . S
O581 C590 1.250 . S
O582 Mn577 2.121 . S
O582 C590 1.258 . S
C583 N584 1.326 . S
C583 C587 1.460 . S
C583 H589 0.929 . S
N584 Mn577 2.257 . S
N584 C583 1.326 . S
N584 C588 1.362 . S
C585 C586 1.258 . S
C585 C588 1.431 . S
C585 C605 1.449 . S
C586 C585 1.258 . S
C586 C587 1.477 . S
C586 H606 0.931 . S
C587 C583 1.460 . S
C587 C586 1.477 . S
C587 H607 0.930 . S
C588 N584 1.362 . S
C588 C585 1.431 . S
C588 C598 1.476 . S
H589 C583 0.929 . S
C590 O581 1.250 . S
C590 O582 1.258 . S
O591 Mn576 2.162 . S
O591 C579 1.281 . S
O592 Mn576 2.297 . S
O592 C579 1.236 . S
N593 Mn577 2.282 . S
N593 C594 1.328 . S
N593 C598 1.318 . S
C594 N593 1.328 . S
C594 C595 1.457 . S
C594 H599 0.929 . S
C595 C594 1.457 . S
C595 C596 1.291 . S
C595 H608 0.931 . S
C596 C595 1.291 . S
C596 C597 1.373 . S
C596 H609 0.929 . S
C597 C596 1.373 . S
C597 C598 1.396 . S
C597 C604 1.403 . S
C598 C588 1.476 . S
C598 N593 1.318 . S
C598 C597 1.396 . S
H599 C594 0.929 . S
O600 Mn576 2.385 . S
O600 C578 1.234 . S
O601 Mn576 2.209 . S
O601 Mn577 2.215 . S
O601 C578 1.283 . S
O602 Mn576 2.094 . S
O602 C580 1.240 . S
O603 Mn577 2.117 . S
O603 C580 1.264 . S
C604 C597 1.403 . S
C604 C605 1.399 . S
C604 H610 0.929 . S
C605 C585 1.449 . S
C605 C604 1.399 . S
C605 H611 0.930 . S
H606 C586 0.931 . S
H607 C587 0.930 . S
H608 C595 0.931 . S
H609 C596 0.929 . S
H610 C604 0.929 . S
H611 C605 0.930 . S
Mn612 O617 2.095 . S
Mn612 O627 2.162 . S
Mn612 O628 2.297 . S
Mn612 O636 2.385 . S
Mn612 O637 2.209 . S
Mn612 O638 2.094 . S
Mn613 O618 2.121 . S
Mn613 N620 2.257 . S
Mn613 N629 2.282 . S
Mn613 O637 2.215 . S
Mn613 O639 2.117 . S
C614 O636 1.234 . S
C614 O637 1.283 . S
C615 O627 1.281 . S
C615 O628 1.236 . S
C616 O638 1.240 . S
C616 O639 1.264 . S
O617 Mn612 2.095 . S
O617 C626 1.250 . S
O618 Mn613 2.121 . S
O618 C626 1.258 . S
C619 N620 1.326 . S
C619 C623 1.460 . S
C619 H625 0.929 . S
N620 Mn613 2.257 . S
N620 C619 1.326 . S
N620 C624 1.362 . S
C621 C622 1.258 . S
C621 C624 1.431 . S
C621 C641 1.449 . S
C622 C621 1.258 . S
C622 C623 1.477 . S
C622 H642 0.931 . S
C623 C619 1.460 . S
C623 C622 1.477 . S
C623 H643 0.930 . S
C624 N620 1.362 . S
C624 C621 1.431 . S
C624 C634 1.476 . S
H625 C619 0.929 . S
C626 O617 1.250 . S
C626 O618 1.258 . S
O627 Mn612 2.162 . S
O627 C615 1.281 . S
O628 Mn612 2.297 . S
O628 C615 1.236 . S
N629 Mn613 2.282 . S
N629 C630 1.328 . S
N629 C634 1.318 . S
C630 N629 1.328 . S
C630 C631 1.457 . S
C630 H635 0.929 . S
C631 C630 1.457 . S
C631 C632 1.291 . S
C631 H644 0.931 . S
C632 C631 1.291 . S
C632 C633 1.373 . S
C632 H645 0.929 . S
C633 C632 1.373 . S
C633 C634 1.396 . S
C633 C640 1.403 . S
C634 C624 1.476 . S
C634 N629 1.318 . S
C634 C633 1.396 . S
H635 C630 0.929 . S
O636 Mn612 2.385 . S
O636 C614 1.234 . S
O637 Mn612 2.209 . S
O637 Mn613 2.215 . S
O637 C614 1.283 . S
O638 Mn612 2.094 . S
O638 C616 1.240 . S
O639 Mn613 2.117 . S
O639 C616 1.264 . S
C640 C633 1.403 . S
C640 C641 1.399 . S
C640 H646 0.929 . S
C641 C621 1.449 . S
C641 C640 1.399 . S
C641 H647 0.930 . S
H642 C622 0.931 . S
H643 C623 0.930 . S
H644 C631 0.931 . S
H645 C632 0.929 . S
H646 C640 0.929 . S
H647 C641 0.930 . S
Mn648 O653 2.095 . S
Mn648 O663 2.162 . S
Mn648 O664 2.297 . S
Mn648 O672 2.385 . S
Mn648 O673 2.209 . S
Mn648 O674 2.094 . S
Mn649 O654 2.121 . S
Mn649 N656 2.257 . S
Mn649 N665 2.282 . S
Mn649 O673 2.215 . S
Mn649 O675 2.117 . S
C650 O672 1.234 . S
C650 O673 1.283 . S
C651 O663 1.281 . S
C651 O664 1.236 . S
C652 O674 1.240 . S
C652 O675 1.264 . S
O653 Mn648 2.095 . S
O653 C662 1.250 . S
O654 Mn649 2.121 . S
O654 C662 1.258 . S
C655 N656 1.326 . S
C655 C659 1.460 . S
C655 H661 0.929 . S
N656 Mn649 2.257 . S
N656 C655 1.326 . S
N656 C660 1.362 . S
C657 C658 1.258 . S
C657 C660 1.431 . S
C657 C677 1.449 . S
C658 C657 1.258 . S
C658 C659 1.477 . S
C658 H678 0.931 . S
C659 C655 1.460 . S
C659 C658 1.477 . S
C659 H679 0.930 . S
C660 N656 1.362 . S
C660 C657 1.431 . S
C660 C670 1.476 . S
H661 C655 0.929 . S
C662 O653 1.250 . S
C662 O654 1.258 . S
O663 Mn648 2.162 . S
O663 C651 1.281 . S
O664 Mn648 2.297 . S
O664 C651 1.236 . S
N665 Mn649 2.282 . S
N665 C666 1.328 . S
N665 C670 1.318 . S
C666 N665 1.328 . S
C666 C667 1.457 . S
C666 H671 0.929 . S
C667 C666 1.457 . S
C667 C668 1.291 . S
C667 H680 0.931 . S
C668 C667 1.291 . S
C668 C669 1.373 . S
C668 H681 0.929 . S
C669 C668 1.373 . S
C669 C670 1.396 . S
C669 C676 1.403 . S
C670 C660 1.476 . S
C670 N665 1.318 . S
C670 C669 1.396 . S
H671 C666 0.929 . S
O672 Mn648 2.385 . S
O672 C650 1.234 . S
O673 Mn648 2.209 . S
O673 Mn649 2.215 . S
O673 C650 1.283 . S
O674 Mn648 2.094 . S
O674 C652 1.240 . S
O675 Mn649 2.117 . S
O675 C652 1.264 . S
C676 C669 1.403 . S
C676 C677 1.399 . S
C676 H682 0.929 . S
C677 C657 1.449 . S
C677 C676 1.399 . S
C677 H683 0.930 . S
H678 C658 0.931 . S
H679 C659 0.930 . S
H680 C667 0.931 . S
H681 C668 0.929 . S
H682 C676 0.929 . S
H683 C677 0.930 . S
Mn684 O689 2.095 . S
Mn684 O699 2.162 . S
Mn684 O700 2.297 . S
Mn684 O708 2.385 . S
Mn684 O709 2.209 . S
Mn684 O710 2.094 . S
Mn685 O690 2.121 . S
Mn685 N692 2.257 . S
Mn685 N701 2.282 . S
Mn685 O709 2.215 . S
Mn685 O711 2.117 . S
C686 O708 1.234 . S
C686 O709 1.283 . S
C687 O699 1.281 . S
C687 O700 1.236 . S
C688 O710 1.240 . S
C688 O711 1.264 . S
O689 Mn684 2.095 . S
O689 C698 1.250 . S
O690 Mn685 2.121 . S
O690 C698 1.258 . S
C691 N692 1.326 . S
C691 C695 1.460 . S
C691 H697 0.929 . S
N692 Mn685 2.257 . S
N692 C691 1.326 . S
N692 C696 1.362 . S
C693 C694 1.258 . S
C693 C696 1.431 . S
C693 C713 1.449 . S
C694 C693 1.258 . S
C694 C695 1.477 . S
C694 H714 0.931 . S
C695 C691 1.460 . S
C695 C694 1.477 . S
C695 H715 0.930 . S
C696 N692 1.362 . S
C696 C693 1.431 . S
C696 C706 1.476 . S
H697 C691 0.929 . S
C698 O689 1.250 . S
C698 O690 1.258 . S
O699 Mn684 2.162 . S
O699 C687 1.281 . S
O700 Mn684 2.297 . S
O700 C687 1.236 . S
N701 Mn685 2.282 . S
N701 C702 1.328 . S
N701 C706 1.318 . S
C702 N701 1.328 . S
C702 C703 1.457 . S
C702 H707 0.929 . S
C703 C702 1.457 . S
C703 C704 1.291 . S
C703 H716 0.931 . S
C704 C703 1.291 . S
C704 C705 1.373 . S
C704 H717 0.929 . S
C705 C704 1.373 . S
C705 C706 1.396 . S
C705 C712 1.403 . S
C706 C696 1.476 . S
C706 N701 1.318 . S
C706 C705 1.396 . S
H707 C702 0.929 . S
O708 Mn684 2.385 . S
O708 C686 1.234 . S
O709 Mn684 2.209 . S
O709 Mn685 2.215 . S
O709 C686 1.283 . S
O710 Mn684 2.094 . S
O710 C688 1.240 . S
O711 Mn685 2.117 . S
O711 C688 1.264 . S
C712 C705 1.403 . S
C712 C713 1.399 . S
C712 H718 0.929 . S
C713 C693 1.449 . S
C713 C712 1.399 . S
C713 H719 0.930 . S
H714 C694 0.931 . S
H715 C695 0.930 . S
H716 C703 0.931 . S
H717 C704 0.929 . S
H718 C712 0.929 . S
H719 C713 0.930 . S
Mn720 O725 2.095 . S
Mn720 O735 2.162 . S
Mn720 O736 2.297 . S
Mn720 O744 2.385 . S
Mn720 O745 2.209 . S
Mn720 O746 2.094 . S
Mn721 O726 2.121 . S
Mn721 N728 2.257 . S
Mn721 N737 2.282 . S
Mn721 O745 2.215 . S
Mn721 O747 2.117 . S
C722 O744 1.234 . S
C722 O745 1.283 . S
C723 O735 1.281 . S
C723 O736 1.236 . S
C724 O746 1.240 . S
C724 O747 1.264 . S
O725 Mn720 2.095 . S
O725 C734 1.250 . S
O726 Mn721 2.121 . S
O726 C734 1.258 . S
C727 N728 1.326 . S
C727 C731 1.460 . S
C727 H733 0.929 . S
N728 Mn721 2.257 . S
N728 C727 1.326 . S
N728 C732 1.362 . S
C729 C730 1.258 . S
C729 C732 1.431 . S
C729 C749 1.449 . S
C730 C729 1.258 . S
C730 C731 1.477 . S
C730 H750 0.931 . S
C731 C727 1.460 . S
C731 C730 1.477 . S
C731 H751 0.930 . S
C732 N728 1.362 . S
C732 C729 1.431 . S
C732 C742 1.476 . S
H733 C727 0.929 . S
C734 O725 1.250 . S
C734 O726 1.258 . S
O735 Mn720 2.162 . S
O735 C723 1.281 . S
O736 Mn720 2.297 . S
O736 C723 1.236 . S
N737 Mn721 2.282 . S
N737 C738 1.328 . S
N737 C742 1.318 . S
C738 N737 1.328 . S
C738 C739 1.457 . S
C738 H743 0.929 . S
C739 C738 1.457 . S
C739 C740 1.291 . S
C739 H752 0.931 . S
C740 C739 1.291 . S
C740 C741 1.373 . S
C740 H753 0.929 . S
C741 C740 1.373 . S
C741 C742 1.396 . S
C741 C748 1.403 . S
C742 C732 1.476 . S
C742 N737 1.318 . S
C742 C741 1.396 . S
H743 C738 0.929 . S
O744 Mn720 2.385 . S
O744 C722 1.234 . S
O745 Mn720 2.209 . S
O745 Mn721 2.215 . S
O745 C722 1.283 . S
O746 Mn720 2.094 . S
O746 C724 1.240 . S
O747 Mn721 2.117 . S
O747 C724 1.264 . S
C748 C741 1.403 . S
C748 C749 1.399 . S
C748 H754 0.929 . S
C749 C729 1.449 . S
C749 C748 1.399 . S
C749 H755 0.930 . S
H750 C730 0.931 . S
H751 C731 0.930 . S
H752 C739 0.931 . S
H753 C740 0.929 . S
H754 C748 0.929 . S
H755 C749 0.930 . S
Mn756 O761 2.095 . S
Mn756 O771 2.162 . S
Mn756 O772 2.297 . S
Mn756 O780 2.385 . S
Mn756 O781 2.209 . S
Mn756 O782 2.094 . S
Mn757 O762 2.121 . S
Mn757 N764 2.257 . S
Mn757 N773 2.282 . S
Mn757 O781 2.215 . S
Mn757 O783 2.117 . S
C758 O780 1.234 . S
C758 O781 1.283 . S
C759 O771 1.281 . S
C759 O772 1.236 . S
C760 O782 1.240 . S
C760 O783 1.264 . S
O761 Mn756 2.095 . S
O761 C770 1.250 . S
O762 Mn757 2.121 . S
O762 C770 1.258 . S
C763 N764 1.326 . S
C763 C767 1.460 . S
C763 H769 0.929 . S
N764 Mn757 2.257 . S
N764 C763 1.326 . S
N764 C768 1.362 . S
C765 C766 1.258 . S
C765 C768 1.431 . S
C765 C785 1.449 . S
C766 C765 1.258 . S
C766 C767 1.477 . S
C766 H786 0.931 . S
C767 C763 1.460 . S
C767 C766 1.477 . S
C767 H787 0.930 . S
C768 N764 1.362 . S
C768 C765 1.431 . S
C768 C778 1.476 . S
H769 C763 0.929 . S
C770 O761 1.250 . S
C770 O762 1.258 . S
O771 Mn756 2.162 . S
O771 C759 1.281 . S
O772 Mn756 2.297 . S
O772 C759 1.236 . S
N773 Mn757 2.282 . S
N773 C774 1.328 . S
N773 C778 1.318 . S
C774 N773 1.328 . S
C774 C775 1.457 . S
C774 H779 0.929 . S
C775 C774 1.457 . S
C775 C776 1.291 . S
C775 H788 0.931 . S
C776 C775 1.291 . S
C776 C777 1.373 . S
C776 H789 0.929 . S
C777 C776 1.373 . S
C777 C778 1.396 . S
C777 C784 1.403 . S
C778 C768 1.476 . S
C778 N773 1.318 . S
C778 C777 1.396 . S
H779 C774 0.929 . S
O780 Mn756 2.385 . S
O780 C758 1.234 . S
O781 Mn756 2.209 . S
O781 Mn757 2.215 . S
O781 C758 1.283 . S
O782 Mn756 2.094 . S
O782 C760 1.240 . S
O783 Mn757 2.117 . S
O783 C760 1.264 . S
C784 C777 1.403 . S
C784 C785 1.399 . S
C784 H790 0.929 . S
C785 C765 1.449 . S
C785 C784 1.399 . S
C785 H791 0.930 . S
H786 C766 0.931 . S
H787 C767 0.930 . S
H788 C775 0.931 . S
H789 C776 0.929 . S
H790 C784 0.929 . S
H791 C785 0.930 . S
Mn792 O797 2.095 . S
Mn792 O807 2.162 . S
Mn792 O808 2.297 . S
Mn792 O816 2.385 . S
Mn792 O817 2.209 . S
Mn792 O818 2.094 . S
Mn793 O798 2.121 . S
Mn793 N800 2.257 . S
Mn793 N809 2.282 . S
Mn793 O817 2.215 . S
Mn793 O819 2.117 . S
C794 O816 1.234 . S
C794 O817 1.283 . S
C795 O807 1.281 . S
C795 O808 1.236 . S
C796 O818 1.240 . S
C796 O819 1.264 . S
O797 Mn792 2.095 . S
O797 C806 1.250 . S
O798 Mn793 2.121 . S
O798 C806 1.258 . S
C799 N800 1.326 . S
C799 C803 1.460 . S
C799 H805 0.929 . S
N800 Mn793 2.257 . S
N800 C799 1.326 . S
N800 C804 1.362 . S
C801 C802 1.258 . S
C801 C804 1.431 . S
C801 C821 1.449 . S
C802 C801 1.258 . S
C802 C803 1.477 . S
C802 H822 0.931 . S
C803 C799 1.460 . S
C803 C802 1.477 . S
C803 H823 0.930 . S
C804 N800 1.362 . S
C804 C801 1.431 . S
C804 C814 1.476 . S
H805 C799 0.929 . S
C806 O797 1.250 . S
C806 O798 1.258 . S
O807 Mn792 2.162 . S
O807 C795 1.281 . S
O808 Mn792 2.297 . S
O808 C795 1.236 . S
N809 Mn793 2.282 . S
N809 C810 1.328 . S
N809 C814 1.318 . S
C810 N809 1.328 . S
C810 C811 1.457 . S
C810 H815 0.929 . S
C811 C810 1.457 . S
C811 C812 1.291 . S
C811 H824 0.931 . S
C812 C811 1.291 . S
C812 C813 1.373 . S
C812 H825 0.929 . S
C813 C812 1.373 . S
C813 C814 1.396 . S
C813 C820 1.403 . S
C814 C804 1.476 . S
C814 N809 1.318 . S
C814 C813 1.396 . S
H815 C810 0.929 . S
O816 Mn792 2.385 . S
O816 C794 1.234 . S
O817 Mn792 2.209 . S
O817 Mn793 2.215 . S
O817 C794 1.283 . S
O818 Mn792 2.094 . S
O818 C796 1.240 . S
O819 Mn793 2.117 . S
O819 C796 1.264 . S
C820 C813 1.403 . S
C820 C821 1.399 . S
C820 H826 0.929 . S
C821 C801 1.449 . S
C821 C820 1.399 . S
C821 H827 0.930 . S
H822 C802 0.931 . S
H823 C803 0.930 . S
H824 C811 0.931 . S
H825 C812 0.929 . S
H826 C820 0.929 . S
H827 C821 0.930 . S
Mn828 O833 2.095 . S
Mn828 O843 2.162 . S
Mn828 O844 2.297 . S
Mn828 O852 2.385 . S
Mn828 O853 2.209 . S
Mn828 O854 2.094 . S
Mn829 O834 2.121 . S
Mn829 N836 2.257 . S
Mn829 N845 2.282 . S
Mn829 O853 2.215 . S
Mn829 O855 2.117 . S
C830 O852 1.234 . S
C830 O853 1.283 . S
C831 O843 1.281 . S
C831 O844 1.236 . S
C832 O854 1.240 . S
C832 O855 1.264 . S
O833 Mn828 2.095 . S
O833 C842 1.250 . S
O834 Mn829 2.121 . S
O834 C842 1.258 . S
C835 N836 1.326 . S
C835 C839 1.460 . S
C835 H841 0.929 . S
N836 Mn829 2.257 . S
N836 C835 1.326 . S
N836 C840 1.362 . S
C837 C838 1.258 . S
C837 C840 1.431 . S
C837 C857 1.449 . S
C838 C837 1.258 . S
C838 C839 1.477 . S
C838 H858 0.931 . S
C839 C835 1.460 . S
C839 C838 1.477 . S
C839 H859 0.930 . S
C840 N836 1.362 . S
C840 C837 1.431 . S
C840 C850 1.476 . S
H841 C835 0.929 . S
C842 O833 1.250 . S
C842 O834 1.258 . S
O843 Mn828 2.162 . S
O843 C831 1.281 . S
O844 Mn828 2.297 . S
O844 C831 1.236 . S
N845 Mn829 2.282 . S
N845 C846 1.328 . S
N845 C850 1.318 . S
C846 N845 1.328 . S
C846 C847 1.457 . S
C846 H851 0.929 . S
C847 C846 1.457 . S
C847 C848 1.291 . S
C847 H860 0.931 . S
C848 C847 1.291 . S
C848 C849 1.373 . S
C848 H861 0.929 . S
C849 C848 1.373 . S
C849 C850 1.396 . S
C849 C856 1.403 . S
C850 C840 1.476 . S
C850 N845 1.318 . S
C850 C849 1.396 . S
H851 C846 0.929 . S
O852 Mn828 2.385 . S
O852 C830 1.234 . S
O853 Mn828 2.209 . S
O853 Mn829 2.215 . S
O853 C830 1.283 . S
O854 Mn828 2.094 . S
O854 C832 1.240 . S
O855 Mn829 2.117 . S
O855 C832 1.264 . S
C856 C849 1.403 . S
C856 C857 1.399 . S
C856 H862 0.929 . S
C857 C837 1.449 . S
C857 C856 1.399 . S
C857 H863 0.930 . S
H858 C838 0.931 . S
H859 C839 0.930 . S
H860 C847 0.931 . S
H861 C848 0.929 . S
H862 C856 0.929 . S
H863 C857 0.930 . S
C864 C865 1.369 . S
C864 C866 1.419 . S
C864 H868 0.930 . S
C865 C864 1.369 . S
C865 C874 1.429 . S
C866 C864 1.419 . S
C866 C867 1.363 . S
C866 H869 0.929 . S
C867 C866 1.363 . S
C867 C873 1.428 . S
H868 C864 0.930 . S
H869 C866 0.929 . S
S870 N871 1.613 . S
S870 N872 1.610 . S
N871 S870 1.613 . S
N871 C874 1.350 . S
N872 S870 1.610 . S
N872 C873 1.351 . S
C873 C867 1.428 . S
C873 N872 1.351 . S
C873 C874 1.434 . S
C874 C865 1.429 . S
C874 N871 1.350 . S
C874 C873 1.434 . S
C875 C876 1.369 . S
C875 C877 1.419 . S
C875 H879 0.930 . S
C876 C875 1.369 . S
C876 C885 1.429 . S
C877 C875 1.419 . S
C877 C878 1.363 . S
C877 H880 0.929 . S
C878 C877 1.363 . S
C878 C884 1.428 . S
H879 C875 0.930 . S
H880 C877 0.929 . S
S881 N882 1.613 . S
S881 N883 1.610 . S
N882 S881 1.613 . S
N882 C885 1.350 . S
N883 S881 1.610 . S
N883 C884 1.351 . S
C884 C878 1.428 . S
C884 N883 1.351 . S
C884 C885 1.434 . S
C885 C876 1.429 . S
C885 N882 1.350 . S
C885 C884 1.434 . S
C886 C887 1.369 . S
C886 C888 1.419 . S
C886 H890 0.930 . S
C887 C886 1.369 . S
C887 C896 1.429 . S
C888 C886 1.419 . S
C888 C889 1.363 . S
C888 H891 0.929 . S
C889 C888 1.363 . S
C889 C895 1.428 . S
H890 C886 0.930 . S
H891 C888 0.929 . S
S892 N893 1.613 . S
S892 N894 1.610 . S
N893 S892 1.613 . S
N893 C896 1.350 . S
N894 S892 1.610 . S
N894 C895 1.351 . S
C895 C889 1.428 . S
C895 N894 1.351 . S
C895 C896 1.434 . S
C896 C887 1.429 . S
C896 N893 1.350 . S
C896 C895 1.434 . S
C897 C898 1.369 . S
C897 C899 1.419 . S
C897 H901 0.930 . S
C898 C897 1.369 . S
C898 C907 1.429 . S
C899 C897 1.419 . S
C899 C900 1.363 . S
C899 H902 0.929 . S
C900 C899 1.363 . S
C900 C906 1.428 . S
H901 C897 0.930 . S
H902 C899 0.929 . S
S903 N904 1.613 . S
S903 N905 1.610 . S
N904 S903 1.613 . S
N904 C907 1.350 . S
N905 S903 1.610 . S
N905 C906 1.351 . S
C906 C900 1.428 . S
C906 N905 1.351 . S
C906 C907 1.434 . S
C907 C898 1.429 . S
C907 N904 1.350 . S
C907 C906 1.434 . S
C908 C909 1.369 . S
C908 C910 1.419 . S
C908 H912 0.930 . S
C909 C908 1.369 . S
C909 C918 1.429 . S
C910 C908 1.419 . S
C910 C911 1.363 . S
C910 H913 0.929 . S
C911 C910 1.363 . S
C911 C917 1.428 . S
H912 C908 0.930 . S
H913 C910 0.929 . S
S914 N915 1.613 . S
S914 N916 1.610 . S
N915 S914 1.613 . S
N915 C918 1.350 . S
N916 S914 1.610 . S
N916 C917 1.351 . S
C917 C911 1.428 . S
C917 N916 1.351 . S
C917 C918 1.434 . S
C918 C909 1.429 . S
C918 N915 1.350 . S
C918 C917 1.434 . S
C919 C920 1.369 . S
C919 C921 1.419 . S
C919 H923 0.930 . S
C920 C919 1.369 . S
C920 C929 1.429 . S
C921 C919 1.419 . S
C921 C922 1.363 . S
C921 H924 0.929 . S
C922 C921 1.363 . S
C922 C928 1.428 . S
H923 C919 0.930 . S
H924 C921 0.929 . S
S925 N926 1.613 . S
S925 N927 1.610 . S
N926 S925 1.613 . S
N926 C929 1.350 . S
N927 S925 1.610 . S
N927 C928 1.351 . S
C928 C922 1.428 . S
C928 N927 1.351 . S
C928 C929 1.434 . S
C929 C920 1.429 . S
C929 N926 1.350 . S
C929 C928 1.434 . S
C930 C931 1.369 . S
C930 C932 1.419 . S
C930 H934 0.930 . S
C931 C930 1.369 . S
C931 C940 1.429 . S
C932 C930 1.419 . S
C932 C933 1.363 . S
C932 H935 0.929 . S
C933 C932 1.363 . S
C933 C939 1.428 . S
H934 C930 0.930 . S
H935 C932 0.929 . S
S936 N937 1.613 . S
S936 N938 1.610 . S
N937 S936 1.613 . S
N937 C940 1.350 . S
N938 S936 1.610 . S
N938 C939 1.351 . S
C939 C933 1.428 . S
C939 N938 1.351 . S
C939 C940 1.434 . S
C940 C931 1.429 . S
C940 N937 1.350 . S
C940 C939 1.434 . S
C941 C942 1.369 . S
C941 C943 1.419 . S
C941 H945 0.930 . S
C942 C941 1.369 . S
C942 C951 1.429 . S
C943 C941 1.419 . S
C943 C944 1.363 . S
C943 H946 0.929 . S
C944 C943 1.363 . S
C944 C950 1.428 . S
H945 C941 0.930 . S
H946 C943 0.929 . S
S947 N948 1.613 . S
S947 N949 1.610 . S
N948 S947 1.613 . S
N948 C951 1.350 . S
N949 S947 1.610 . S
N949 C950 1.351 . S
C950 C944 1.428 . S
C950 N949 1.351 . S
C950 C951 1.434 . S
C951 C942 1.429 . S
C951 N948 1.350 . S
C951 C950 1.434 . S
C952 C953 1.369 . S
C952 C954 1.419 . S
C952 H956 0.930 . S
C953 C952 1.369 . S
C953 C962 1.429 . S
C954 C952 1.419 . S
C954 C955 1.363 . S
C954 H957 0.929 . S
C955 C954 1.363 . S
C955 C961 1.428 . S
H956 C952 0.930 . S
H957 C954 0.929 . S
S958 N959 1.613 . S
S958 N960 1.610 . S
N959 S958 1.613 . S
N959 C962 1.350 . S
N960 S958 1.610 . S
N960 C961 1.351 . S
C961 C955 1.428 . S
C961 N960 1.351 . S
C961 C962 1.434 . S
C962 C953 1.429 . S
C962 N959 1.350 . S
C962 C961 1.434 . S
C963 C964 1.369 . S
C963 C965 1.419 . S
C963 H967 0.930 . S
C964 C963 1.369 . S
C964 C973 1.429 . S
C965 C963 1.419 . S
C965 C966 1.363 . S
C965 H968 0.929 . S
C966 C965 1.363 . S
C966 C972 1.428 . S
H967 C963 0.930 . S
H968 C965 0.929 . S
S969 N970 1.613 . S
S969 N971 1.610 . S
N970 S969 1.613 . S
N970 C973 1.350 . S
N971 S969 1.610 . S
N971 C972 1.351 . S
C972 C966 1.428 . S
C972 N971 1.351 . S
C972 C973 1.434 . S
C973 C964 1.429 . S
C973 N970 1.350 . S
C973 C972 1.434 . S
C974 C975 1.369 . S
C974 C976 1.419 . S
C974 H978 0.930 . S
C975 C974 1.369 . S
C975 C984 1.429 . S
C976 C974 1.419 . S
C976 C977 1.363 . S
C976 H979 0.929 . S
C977 C976 1.363 . S
C977 C983 1.428 . S
H978 C974 0.930 . S
H979 C976 0.929 . S
S980 N981 1.613 . S
S980 N982 1.610 . S
N981 S980 1.613 . S
N981 C984 1.350 . S
N982 S980 1.610 . S
N982 C983 1.351 . S
C983 C977 1.428 . S
C983 N982 1.351 . S
C983 C984 1.434 . S
C984 C975 1.429 . S
C984 N981 1.350 . S
C984 C983 1.434 . S
C985 C986 1.369 . S
C985 C987 1.419 . S
C985 H989 0.930 . S
C986 C985 1.369 . S
C986 C995 1.429 . S
C987 C985 1.419 . S
C987 C988 1.363 . S
C987 H990 0.929 . S
C988 C987 1.363 . S
C988 C994 1.428 . S
H989 C985 0.930 . S
H990 C987 0.929 . S
S991 N992 1.613 . S
S991 N993 1.610 . S
N992 S991 1.613 . S
N992 C995 1.350 . S
N993 S991 1.610 . S
N993 C994 1.351 . S
C994 C988 1.428 . S
C994 N993 1.351 . S
C994 C995 1.434 . S
C995 C986 1.429 . S
C995 N992 1.350 . S
C995 C994 1.434 . S
C996 C997 1.369 . S
C996 C998 1.419 . S
C996 H1000 0.930 . S
C997 C996 1.369 . S
C997 C1006 1.429 . S
C998 C996 1.419 . S
C998 C999 1.363 . S
C998 H1001 0.929 . S
C999 C998 1.363 . S
C999 C1005 1.428 . S
H1000 C996 0.930 . S
H1001 C998 0.929 . S
S1002 N1003 1.613 . S
S1002 N1004 1.610 . S
N1003 S1002 1.613 . S
N1003 C1006 1.350 . S
N1004 S1002 1.610 . S
N1004 C1005 1.351 . S
C1005 C999 1.428 . S
C1005 N1004 1.351 . S
C1005 C1006 1.434 . S
C1006 C997 1.429 . S
C1006 N1003 1.350 . S
C1006 C1005 1.434 . S
C1007 C1008 1.369 . S
C1007 C1009 1.419 . S
C1007 H1011 0.930 . S
C1008 C1007 1.369 . S
C1008 C1017 1.429 . S
C1009 C1007 1.419 . S
C1009 C1010 1.363 . S
C1009 H1012 0.929 . S
C1010 C1009 1.363 . S
C1010 C1016 1.428 . S
H1011 C1007 0.930 . S
H1012 C1009 0.929 . S
S1013 N1014 1.613 . S
S1013 N1015 1.610 . S
N1014 S1013 1.613 . S
N1014 C1017 1.350 . S
N1015 S1013 1.610 . S
N1015 C1016 1.351 . S
C1016 C1010 1.428 . S
C1016 N1015 1.351 . S
C1016 C1017 1.434 . S
C1017 C1008 1.429 . S
C1017 N1014 1.350 . S
C1017 C1016 1.434 . S
C1018 C1019 1.369 . S
C1018 C1020 1.419 . S
C1018 H1022 0.930 . S
C1019 C1018 1.369 . S
C1019 C1028 1.429 . S
C1020 C1018 1.419 . S
C1020 C1021 1.363 . S
C1020 H1023 0.929 . S
C1021 C1020 1.363 . S
C1021 C1027 1.428 . S
H1022 C1018 0.930 . S
H1023 C1020 0.929 . S
S1024 N1025 1.613 . S
S1024 N1026 1.610 . S
N1025 S1024 1.613 . S
N1025 C1028 1.350 . S
N1026 S1024 1.610 . S
N1026 C1027 1.351 . S
C1027 C1021 1.428 . S
C1027 N1026 1.351 . S
C1027 C1028 1.434 . S
C1028 C1019 1.429 . S
C1028 N1025 1.350 . S
C1028 C1027 1.434 . S
C1029 C1030 1.369 . S
C1029 C1031 1.419 . S
C1029 H1033 0.930 . S
C1030 C1029 1.369 . S
C1030 C1039 1.429 . S
C1031 C1029 1.419 . S
C1031 C1032 1.363 . S
C1031 H1034 0.929 . S
C1032 C1031 1.363 . S
C1032 C1038 1.428 . S
H1033 C1029 0.930 . S
H1034 C1031 0.929 . S
S1035 N1036 1.613 . S
S1035 N1037 1.610 . S
N1036 S1035 1.613 . S
N1036 C1039 1.350 . S
N1037 S1035 1.610 . S
N1037 C1038 1.351 . S
C1038 C1032 1.428 . S
C1038 N1037 1.351 . S
C1038 C1039 1.434 . S
C1039 C1030 1.429 . S
C1039 N1036 1.350 . S
C1039 C1038 1.434 . S
C1040 C1041 1.369 . S
C1040 C1042 1.419 . S
C1040 H1044 0.930 . S
C1041 C1040 1.369 . S
C1041 C1050 1.429 . S
C1042 C1040 1.419 . S
C1042 C1043 1.363 . S
C1042 H1045 0.929 . S
C1043 C1042 1.363 . S
C1043 C1049 1.428 . S
H1044 C1040 0.930 . S
H1045 C1042 0.929 . S
S1046 N1047 1.613 . S
S1046 N1048 1.610 . S
N1047 S1046 1.613 . S
N1047 C1050 1.350 . S
N1048 S1046 1.610 . S
N1048 C1049 1.351 . S
C1049 C1043 1.428 . S
C1049 N1048 1.351 . S
C1049 C1050 1.434 . S
C1050 C1041 1.429 . S
C1050 N1047 1.350 . S
C1050 C1049 1.434 . S
C1051 C1052 1.369 . S
C1051 C1053 1.419 . S
C1051 H1055 0.930 . S
C1052 C1051 1.369 . S
C1052 C1061 1.429 . S
C1053 C1051 1.419 . S
C1053 C1054 1.363 . S
C1053 H1056 0.929 . S
C1054 C1053 1.363 . S
C1054 C1060 1.428 . S
H1055 C1051 0.930 . S
H1056 C1053 0.929 . S
S1057 N1058 1.613 . S
S1057 N1059 1.610 . S
N1058 S1057 1.613 . S
N1058 C1061 1.350 . S
N1059 S1057 1.610 . S
N1059 C1060 1.351 . S
C1060 C1054 1.428 . S
C1060 N1059 1.351 . S
C1060 C1061 1.434 . S
C1061 C1052 1.429 . S
C1061 N1058 1.350 . S
C1061 C1060 1.434 . S
C1062 C1063 1.369 . S
C1062 C1064 1.419 . S
C1062 H1066 0.930 . S
C1063 C1062 1.369 . S
C1063 C1072 1.429 . S
C1064 C1062 1.419 . S
C1064 C1065 1.363 . S
C1064 H1067 0.929 . S
C1065 C1064 1.363 . S
C1065 C1071 1.428 . S
H1066 C1062 0.930 . S
H1067 C1064 0.929 . S
S1068 N1069 1.613 . S
S1068 N1070 1.610 . S
N1069 S1068 1.613 . S
N1069 C1072 1.350 . S
N1070 S1068 1.610 . S
N1070 C1071 1.351 . S
C1071 C1065 1.428 . S
C1071 N1070 1.351 . S
C1071 C1072 1.434 . S
C1072 C1063 1.429 . S
C1072 N1069 1.350 . S
C1072 C1071 1.434 . S
C1073 C1074 1.369 . S
C1073 C1075 1.419 . S
C1073 H1077 0.930 . S
C1074 C1073 1.369 . S
C1074 C1083 1.429 . S
C1075 C1073 1.419 . S
C1075 C1076 1.363 . S
C1075 H1078 0.929 . S
C1076 C1075 1.363 . S
C1076 C1082 1.428 . S
H1077 C1073 0.930 . S
H1078 C1075 0.929 . S
S1079 N1080 1.613 . S
S1079 N1081 1.610 . S
N1080 S1079 1.613 . S
N1080 C1083 1.350 . S
N1081 S1079 1.610 . S
N1081 C1082 1.351 . S
C1082 C1076 1.428 . S
C1082 N1081 1.351 . S
C1082 C1083 1.434 . S
C1083 C1074 1.429 . S
C1083 N1080 1.350 . S
C1083 C1082 1.434 . S
C1084 C1085 1.369 . S
C1084 C1086 1.419 . S
C1084 H1088 0.930 . S
C1085 C1084 1.369 . S
C1085 C1094 1.429 . S
C1086 C1084 1.419 . S
C1086 C1087 1.363 . S
C1086 H1089 0.929 . S
C1087 C1086 1.363 . S
C1087 C1093 1.428 . S
H1088 C1084 0.930 . S
H1089 C1086 0.929 . S
S1090 N1091 1.613 . S
S1090 N1092 1.610 . S
N1091 S1090 1.613 . S
N1091 C1094 1.350 . S
N1092 S1090 1.610 . S
N1092 C1093 1.351 . S
C1093 C1087 1.428 . S
C1093 N1092 1.351 . S
C1093 C1094 1.434 . S
C1094 C1085 1.429 . S
C1094 N1091 1.350 . S
C1094 C1093 1.434 . S
C1095 C1096 1.369 . S
C1095 C1097 1.419 . S
C1095 H1099 0.930 . S
C1096 C1095 1.369 . S
C1096 C1105 1.429 . S
C1097 C1095 1.419 . S
C1097 C1098 1.363 . S
C1097 H1100 0.929 . S
C1098 C1097 1.363 . S
C1098 C1104 1.428 . S
H1099 C1095 0.930 . S
H1100 C1097 0.929 . S
S1101 N1102 1.613 . S
S1101 N1103 1.610 . S
N1102 S1101 1.613 . S
N1102 C1105 1.350 . S
N1103 S1101 1.610 . S
N1103 C1104 1.351 . S
C1104 C1098 1.428 . S
C1104 N1103 1.351 . S
C1104 C1105 1.434 . S
C1105 C1096 1.429 . S
C1105 N1102 1.350 . S
C1105 C1104 1.434 . S
C1106 C1107 1.369 . S
C1106 C1108 1.419 . S
C1106 H1110 0.930 . S
C1107 C1106 1.369 . S
C1107 C1116 1.429 . S
C1108 C1106 1.419 . S
C1108 C1109 1.363 . S
C1108 H1111 0.929 . S
C1109 C1108 1.363 . S
C1109 C1115 1.428 . S
H1110 C1106 0.930 . S
H1111 C1108 0.929 . S
S1112 N1113 1.613 . S
S1112 N1114 1.610 . S
N1113 S1112 1.613 . S
N1113 C1116 1.350 . S
N1114 S1112 1.610 . S
N1114 C1115 1.351 . S
C1115 C1109 1.428 . S
C1115 N1114 1.351 . S
C1115 C1116 1.434 . S
C1116 C1107 1.429 . S
C1116 N1113 1.350 . S
C1116 C1115 1.434 . S
C1117 C1118 1.369 . S
C1117 C1119 1.419 . S
C1117 H1121 0.930 . S
C1118 C1117 1.369 . S
C1118 C1127 1.429 . S
C1119 C1117 1.419 . S
C1119 C1120 1.363 . S
C1119 H1122 0.929 . S
C1120 C1119 1.363 . S
C1120 C1126 1.428 . S
H1121 C1117 0.930 . S
H1122 C1119 0.929 . S
S1123 N1124 1.613 . S
S1123 N1125 1.610 . S
N1124 S1123 1.613 . S
N1124 C1127 1.350 . S
N1125 S1123 1.610 . S
N1125 C1126 1.351 . S
C1126 C1120 1.428 . S
C1126 N1125 1.351 . S
C1126 C1127 1.434 . S
C1127 C1118 1.429 . S
C1127 N1124 1.350 . S
C1127 C1126 1.434 . S
C1128 C1129 1.369 . S
C1128 C1130 1.419 1_455 S
C1128 H1132 0.930 . S
C1129 C1128 1.369 . S
C1129 C1138 1.429 . S
C1130 C1128 1.419 1_655 S
C1130 C1131 1.363 . S
C1130 H1133 0.929 . S
C1131 C1130 1.363 . S
C1131 C1137 1.428 . S
H1132 C1128 0.930 . S
H1133 C1130 0.929 . S
S1134 N1135 1.610 1_655 S
S1134 N1136 1.613 . S
N1135 S1134 1.610 1_455 S
N1135 C1138 1.350 . S
N1136 S1134 1.613 . S
N1136 C1137 1.351 . S
C1137 C1131 1.428 . S
C1137 N1136 1.351 . S
C1137 C1138 1.434 1_655 S
C1138 C1129 1.429 . S
C1138 N1135 1.350 . S
C1138 C1137 1.434 1_455 S
C1139 C1140 1.369 . S
C1139 C1141 1.419 1_545 S
C1139 H1143 0.930 . S
C1140 C1139 1.369 . S
C1140 C1149 1.429 . S
C1141 C1139 1.419 1_565 S
C1141 C1142 1.363 . S
C1141 H1144 0.929 . S
C1142 C1141 1.363 . S
C1142 C1148 1.428 . S
H1143 C1139 0.930 . S
H1144 C1141 0.929 . S
S1145 N1146 1.610 1_565 S
S1145 N1147 1.614 . S
N1146 S1145 1.610 1_545 S
N1146 C1149 1.350 . S
N1147 S1145 1.614 . S
N1147 C1148 1.351 . S
C1148 C1142 1.428 . S
C1148 N1147 1.351 . S
C1148 C1149 1.434 1_565 S
C1149 C1140 1.429 . S
C1149 N1146 1.350 . S
C1149 C1148 1.434 1_545 S
C1150 C1151 1.369 . S
C1150 C1152 1.419 1_655 S
C1150 H1154 0.930 . S
C1151 C1150 1.369 . S
C1151 C1160 1.429 . S
C1152 C1150 1.419 1_455 S
C1152 C1153 1.363 . S
C1152 H1155 0.929 . S
C1153 C1152 1.363 . S
C1153 C1159 1.428 . S
H1154 C1150 0.930 . S
H1155 C1152 0.929 . S
S1156 N1157 1.613 1_455 S
S1156 N1158 1.611 . S
N1157 S1156 1.613 1_655 S
N1157 C1160 1.350 . S
N1158 S1156 1.611 . S
N1158 C1159 1.351 . S
C1159 C1153 1.428 . S
C1159 N1158 1.351 . S
C1159 C1160 1.434 1_455 S
C1160 C1151 1.429 . S
C1160 N1157 1.350 . S
C1160 C1159 1.434 1_655 S
C1161 C1162 1.369 . S
C1161 C1163 1.419 1_545 S
C1161 H1165 0.930 . S
C1162 C1161 1.369 . S
C1162 C1171 1.429 . S
C1163 C1161 1.419 1_565 S
C1163 C1164 1.363 . S
C1163 H1166 0.929 . S
C1164 C1163 1.363 . S
C1164 C1170 1.428 . S
H1165 C1161 0.930 . S
H1166 C1163 0.929 . S
S1167 N1168 1.619 . S
S1167 N1169 1.605 1_545 S
N1168 S1167 1.619 . S
N1168 C1171 1.350 . S
N1169 S1167 1.605 1_565 S
N1169 C1170 1.351 . S
C1170 C1164 1.428 . S
C1170 N1169 1.351 . S
C1170 C1171 1.434 1_565 S
C1171 C1162 1.429 . S
C1171 N1168 1.350 . S
C1171 C1170 1.434 1_545 S
C1172 C1173 1.369 . S
C1172 C1174 1.419 1_565 S
C1172 H1176 0.930 . S
C1173 C1172 1.369 . S
C1173 C1182 1.429 . S
C1174 C1172 1.419 1_545 S
C1174 C1175 1.363 . S
C1174 H1177 0.929 . S
C1175 C1174 1.363 . S
C1175 C1181 1.428 . S
H1176 C1172 0.930 . S
H1177 C1174 0.929 . S
S1178 N1179 1.617 . S
S1178 N1180 1.607 1_565 S
N1179 S1178 1.617 . S
N1179 C1182 1.350 . S
N1180 S1178 1.607 1_545 S
N1180 C1181 1.351 . S
C1181 C1175 1.428 . S
C1181 N1180 1.351 . S
C1181 C1182 1.434 1_545 S
C1182 C1173 1.429 . S
C1182 N1179 1.350 . S
C1182 C1181 1.434 1_565 S
C1183 C1184 1.369 . S
C1183 C1185 1.419 1_655 S
C1183 H1187 0.930 . S
C1184 C1183 1.369 . S
C1184 C1193 1.429 . S
C1185 C1183 1.419 1_455 S
C1185 C1186 1.363 . S
C1185 H1188 0.929 . S
C1186 C1185 1.363 . S
C1186 C1192 1.428 . S
H1187 C1183 0.930 . S
H1188 C1185 0.929 . S
S1189 N1190 1.618 . S
S1189 N1191 1.605 1_655 S
N1190 S1189 1.618 . S
N1190 C1193 1.350 . S
N1191 S1189 1.605 1_455 S
N1191 C1192 1.351 . S
C1192 C1186 1.428 . S
C1192 N1191 1.351 . S
C1192 C1193 1.434 1_455 S
C1193 C1184 1.429 . S
C1193 N1190 1.350 . S
C1193 C1192 1.434 1_655 S
C1194 C1195 1.369 . S
C1194 C1196 1.419 1_565 S
C1194 H1198 0.930 . S
C1195 C1194 1.369 . S
C1195 C1204 1.429 . S
C1196 C1194 1.419 1_545 S
C1196 C1197 1.363 . S
C1196 H1199 0.929 . S
C1197 C1196 1.363 . S
C1197 C1203 1.428 . S
H1198 C1194 0.930 . S
H1199 C1196 0.929 . S
S1200 N1201 1.611 . S
S1200 N1202 1.613 1_565 S
N1201 S1200 1.611 . S
N1201 C1204 1.350 . S
N1202 S1200 1.613 1_545 S
N1202 C1203 1.351 . S
C1203 C1197 1.428 . S
C1203 N1202 1.351 . S
C1203 C1204 1.434 1_545 S
C1204 C1195 1.429 . S
C1204 N1201 1.350 . S
C1204 C1203 1.434 1_565 S
C1205 C1206 1.369 . S
C1205 C1207 1.419 1_655 S
C1205 H1209 0.930 . S
C1206 C1205 1.369 . S
C1206 C1215 1.429 . S
C1207 C1205 1.419 1_455 S
C1207 C1208 1.363 . S
C1207 H1210 0.929 . S
C1208 C1207 1.363 . S
C1208 C1214 1.428 . S
H1209 C1205 0.930 . S
H1210 C1207 0.929 . S
S1211 N1212 1.614 . S
S1211 N1213 1.609 1_655 S
N1212 S1211 1.614 . S
N1212 C1215 1.350 . S
N1213 S1211 1.609 1_455 S
N1213 C1214 1.351 . S
C1214 C1208 1.428 . S
C1214 N1213 1.351 . S
C1214 C1215 1.434 1_455 S
C1215 C1206 1.429 . S
C1215 N1212 1.350 . S
C1215 C1214 1.434 1_655 S
C1216 C1217 1.369 . S
C1216 C1218 1.419 1_556 S
C1216 H1220 0.930 . S
C1217 C1216 1.369 . S
C1217 C1226 1.429 . S
C1218 C1216 1.419 1_554 S
C1218 C1219 1.363 . S
C1218 H1221 0.929 . S
C1219 C1218 1.363 . S
C1219 C1225 1.428 . S
H1220 C1216 0.930 . S
H1221 C1218 0.929 . S
S1222 N1223 1.616 1_554 S
S1222 N1224 1.608 . S
N1223 S1222 1.616 1_556 S
N1223 C1226 1.350 . S
N1224 S1222 1.608 . S
N1224 C1225 1.351 . S
C1225 C1219 1.428 . S
C1225 N1224 1.351 . S
C1225 C1226 1.434 1_554 S
C1226 C1217 1.429 . S
C1226 N1223 1.350 . S
C1226 C1225 1.434 1_556 S
C1227 C1228 1.369 . S
C1227 C1229 1.419 1_556 S
C1227 H1231 0.930 . S
C1228 C1227 1.369 . S
C1228 C1237 1.429 . S
C1229 C1227 1.419 1_554 S
C1229 C1230 1.363 . S
C1229 H1232 0.929 . S
C1230 C1229 1.363 . S
C1230 C1236 1.428 . S
H1231 C1227 0.930 . S
H1232 C1229 0.929 . S
S1233 N1234 1.615 . S
S1233 N1235 1.609 1_556 S
N1234 S1233 1.615 . S
N1234 C1237 1.350 . S
N1235 S1233 1.609 1_554 S
N1235 C1236 1.351 . S
C1236 C1230 1.428 . S
C1236 N1235 1.351 . S
C1236 C1237 1.434 1_554 S
C1237 C1228 1.429 . S
C1237 N1234 1.350 . S
C1237 C1236 1.434 1_556 S
C1238 C1239 1.369 . S
C1238 C1240 1.419 1_556 S
C1238 H1242 0.930 . S
C1239 C1238 1.369 . S
C1239 C1248 1.429 . S
C1240 C1238 1.419 1_554 S
C1240 C1241 1.363 . S
C1240 H1243 0.929 . S
C1241 C1240 1.363 . S
C1241 C1247 1.428 . S
H1242 C1238 0.930 . S
H1243 C1240 0.929 . S
S1244 N1245 1.608 1_554 S
S1244 N1246 1.616 . S
N1245 S1244 1.608 1_556 S
N1245 C1248 1.350 . S
N1246 S1244 1.616 . S
N1246 C1247 1.351 . S
C1247 C1241 1.428 . S
C1247 N1246 1.351 . S
C1247 C1248 1.434 1_554 S
C1248 C1239 1.429 . S
C1248 N1245 1.350 . S
C1248 C1247 1.434 1_556 S
C1249 C1250 1.369 . S
C1249 C1251 1.419 1_556 S
C1249 H1253 0.930 . S
C1250 C1249 1.369 . S
C1250 C1259 1.429 . S
C1251 C1249 1.419 1_554 S
C1251 C1252 1.363 . S
C1251 H1254 0.929 . S
C1252 C1251 1.363 . S
C1252 C1258 1.428 . S
H1253 C1249 0.930 . S
H1254 C1251 0.929 . S
S1255 N1256 1.613 . S
S1255 N1257 1.611 1_556 S
N1256 S1255 1.613 . S
N1256 C1259 1.350 . S
N1257 S1255 1.611 1_554 S
N1257 C1258 1.351 . S
C1258 C1252 1.428 . S
C1258 N1257 1.351 . S
C1258 C1259 1.434 1_554 S
C1259 C1250 1.429 . S
C1259 N1256 1.350 . S
C1259 C1258 1.434 1_556 S
C1260 C1261 1.369 . S
C1260 C1262 1.419 . S
C1260 H1264 0.930 . S
C1261 C1260 1.369 . S
C1261 C1270 1.429 . S
C1262 C1260 1.419 . S
C1262 C1263 1.363 . S
C1262 H1265 0.929 . S
C1263 C1262 1.363 . S
C1263 C1269 1.428 . S
H1264 C1260 0.930 . S
H1265 C1262 0.929 . S
S1266 N1267 1.613 . S
S1266 N1268 1.610 . S
N1267 S1266 1.613 . S
N1267 C1270 1.350 . S
N1268 S1266 1.610 . S
N1268 C1269 1.351 . S
C1269 C1263 1.428 . S
C1269 N1268 1.351 . S
C1269 C1270 1.434 . S
C1270 C1261 1.429 . S
C1270 N1267 1.350 . S
C1270 C1269 1.434 . S
C1271 C1272 1.369 . S
C1271 C1273 1.419 . S
C1271 H1275 0.930 . S
C1272 C1271 1.369 . S
C1272 C1281 1.429 . S
C1273 C1271 1.419 . S
C1273 C1274 1.363 . S
C1273 H1276 0.929 . S
C1274 C1273 1.363 . S
C1274 C1280 1.428 . S
H1275 C1271 0.930 . S
H1276 C1273 0.929 . S
S1277 N1278 1.613 . S
S1277 N1279 1.610 . S
N1278 S1277 1.613 . S
N1278 C1281 1.350 . S
N1279 S1277 1.610 . S
N1279 C1280 1.351 . S
C1280 C1274 1.428 . S
C1280 N1279 1.351 . S
C1280 C1281 1.434 . S
C1281 C1272 1.429 . S
C1281 N1278 1.350 . S
C1281 C1280 1.434 . S
C1282 C1283 1.369 . S
C1282 C1284 1.419 . S
C1282 H1286 0.930 . S
C1283 C1282 1.369 . S
C1283 C1292 1.429 . S
C1284 C1282 1.419 . S
C1284 C1285 1.363 . S
C1284 H1287 0.929 . S
C1285 C1284 1.363 . S
C1285 C1291 1.428 . S
H1286 C1282 0.930 . S
H1287 C1284 0.929 . S
S1288 N1289 1.613 . S
S1288 N1290 1.610 . S
N1289 S1288 1.613 . S
N1289 C1292 1.350 . S
N1290 S1288 1.610 . S
N1290 C1291 1.351 . S
C1291 C1285 1.428 . S
C1291 N1290 1.351 . S
C1291 C1292 1.434 . S
C1292 C1283 1.429 . S
C1292 N1289 1.350 . S
C1292 C1291 1.434 . S
C1293 C1294 1.369 . S
C1293 C1295 1.419 . S
C1293 H1297 0.930 . S
C1294 C1293 1.369 . S
C1294 C1303 1.429 . S
C1295 C1293 1.419 . S
C1295 C1296 1.363 . S
C1295 H1298 0.929 . S
C1296 C1295 1.363 . S
C1296 C1302 1.428 . S
H1297 C1293 0.930 . S
H1298 C1295 0.929 . S
S1299 N1300 1.613 . S
S1299 N1301 1.610 . S
N1300 S1299 1.613 . S
N1300 C1303 1.350 . S
N1301 S1299 1.610 . S
N1301 C1302 1.351 . S
C1302 C1296 1.428 . S
C1302 N1301 1.351 . S
C1302 C1303 1.434 . S
C1303 C1294 1.429 . S
C1303 N1300 1.350 . S
C1303 C1302 1.434 . S
C1304 C1305 1.369 . S
C1304 C1306 1.419 . S
C1304 H1308 0.930 . S
C1305 C1304 1.369 . S
C1305 C1314 1.429 . S
C1306 C1304 1.419 . S
C1306 C1307 1.363 . S
C1306 H1309 0.929 . S
C1307 C1306 1.363 . S
C1307 C1313 1.428 . S
H1308 C1304 0.930 . S
H1309 C1306 0.929 . S
S1310 N1311 1.613 . S
S1310 N1312 1.610 . S
N1311 S1310 1.613 . S
N1311 C1314 1.350 . S
N1312 S1310 1.610 . S
N1312 C1313 1.351 . S
C1313 C1307 1.428 . S
C1313 N1312 1.351 . S
C1313 C1314 1.434 . S
C1314 C1305 1.429 . S
C1314 N1311 1.350 . S
C1314 C1313 1.434 . S
C1315 C1316 1.369 . S
C1315 C1317 1.419 . S
C1315 H1319 0.930 . S
C1316 C1315 1.369 . S
C1316 C1325 1.429 . S
C1317 C1315 1.419 . S
C1317 C1318 1.363 . S
C1317 H1320 0.929 . S
C1318 C1317 1.363 . S
C1318 C1324 1.428 . S
H1319 C1315 0.930 . S
H1320 C1317 0.929 . S
S1321 N1322 1.613 . S
S1321 N1323 1.610 . S
N1322 S1321 1.613 . S
N1322 C1325 1.350 . S
N1323 S1321 1.610 . S
N1323 C1324 1.351 . S
C1324 C1318 1.428 . S
C1324 N1323 1.351 . S
C1324 C1325 1.434 . S
C1325 C1316 1.429 . S
C1325 N1322 1.350 . S
C1325 C1324 1.434 . S
C1326 C1327 1.369 . S
C1326 C1328 1.419 . S
C1326 H1330 0.930 . S
C1327 C1326 1.369 . S
C1327 C1336 1.429 . S
C1328 C1326 1.419 . S
C1328 C1329 1.363 . S
C1328 H1331 0.929 . S
C1329 C1328 1.363 . S
C1329 C1335 1.428 . S
H1330 C1326 0.930 . S
H1331 C1328 0.929 . S
S1332 N1333 1.613 . S
S1332 N1334 1.610 . S
N1333 S1332 1.613 . S
N1333 C1336 1.350 . S
N1334 S1332 1.610 . S
N1334 C1335 1.351 . S
C1335 C1329 1.428 . S
C1335 N1334 1.351 . S
C1335 C1336 1.434 . S
C1336 C1327 1.429 . S
C1336 N1333 1.350 . S
C1336 C1335 1.434 . S
C1337 C1338 1.369 . S
C1337 C1339 1.419 . S
C1337 H1341 0.930 . S
C1338 C1337 1.369 . S
C1338 C1347 1.429 . S
C1339 C1337 1.419 . S
C1339 C1340 1.363 . S
C1339 H1342 0.929 . S
C1340 C1339 1.363 . S
C1340 C1346 1.428 . S
H1341 C1337 0.930 . S
H1342 C1339 0.929 . S
S1343 N1344 1.613 . S
S1343 N1345 1.610 . S
N1344 S1343 1.613 . S
N1344 C1347 1.350 . S
N1345 S1343 1.610 . S
N1345 C1346 1.351 . S
C1346 C1340 1.428 . S
C1346 N1345 1.351 . S
C1346 C1347 1.434 . S
C1347 C1338 1.429 . S
C1347 N1344 1.350 . S
C1347 C1346 1.434 . S
C1348 C1349 1.369 . S
C1348 C1350 1.419 . S
C1348 H1352 0.930 . S
C1349 C1348 1.369 . S
C1349 C1358 1.429 . S
C1350 C1348 1.419 . S
C1350 C1351 1.363 . S
C1350 H1353 0.929 . S
C1351 C1350 1.363 . S
C1351 C1357 1.428 . S
H1352 C1348 0.930 . S
H1353 C1350 0.929 . S
S1354 N1355 1.613 . S
S1354 N1356 1.610 . S
N1355 S1354 1.613 . S
N1355 C1358 1.350 . S
N1356 S1354 1.610 . S
N1356 C1357 1.351 . S
C1357 C1351 1.428 . S
C1357 N1356 1.351 . S
C1357 C1358 1.434 . S
C1358 C1349 1.429 . S
C1358 N1355 1.350 . S
C1358 C1357 1.434 . S
C1359 C1360 1.369 . S
C1359 C1361 1.419 . S
C1359 H1363 0.930 . S
C1360 C1359 1.369 . S
C1360 C1369 1.429 . S
C1361 C1359 1.419 . S
C1361 C1362 1.363 . S
C1361 H1364 0.929 . S
C1362 C1361 1.363 . S
C1362 C1368 1.428 . S
H1363 C1359 0.930 . S
H1364 C1361 0.929 . S
S1365 N1366 1.613 . S
S1365 N1367 1.610 . S
N1366 S1365 1.613 . S
N1366 C1369 1.350 . S
N1367 S1365 1.610 . S
N1367 C1368 1.351 . S
C1368 C1362 1.428 . S
C1368 N1367 1.351 . S
C1368 C1369 1.434 . S
C1369 C1360 1.429 . S
C1369 N1366 1.350 . S
C1369 C1368 1.434 . S
C1370 C1371 1.369 . S
C1370 C1372 1.419 . S
C1370 H1374 0.930 . S
C1371 C1370 1.369 . S
C1371 C1380 1.429 . S
C1372 C1370 1.419 . S
C1372 C1373 1.363 . S
C1372 H1375 0.929 . S
C1373 C1372 1.363 . S
C1373 C1379 1.428 . S
H1374 C1370 0.930 . S
H1375 C1372 0.929 . S
S1376 N1377 1.613 . S
S1376 N1378 1.610 . S
N1377 S1376 1.613 . S
N1377 C1380 1.350 . S
N1378 S1376 1.610 . S
N1378 C1379 1.351 . S
C1379 C1373 1.428 . S
C1379 N1378 1.351 . S
C1379 C1380 1.434 . S
C1380 C1371 1.429 . S
C1380 N1377 1.350 . S
C1380 C1379 1.434 . S
C1381 C1382 1.369 . S
C1381 C1383 1.419 . S
C1381 H1385 0.930 . S
C1382 C1381 1.369 . S
C1382 C1391 1.429 . S
C1383 C1381 1.419 . S
C1383 C1384 1.363 . S
C1383 H1386 0.929 . S
C1384 C1383 1.363 . S
C1384 C1390 1.428 . S
H1385 C1381 0.930 . S
H1386 C1383 0.929 . S
S1387 N1388 1.613 . S
S1387 N1389 1.610 . S
N1388 S1387 1.613 . S
N1388 C1391 1.350 . S
N1389 S1387 1.610 . S
N1389 C1390 1.351 . S
C1390 C1384 1.428 . S
C1390 N1389 1.351 . S
C1390 C1391 1.434 . S
C1391 C1382 1.429 . S
C1391 N1388 1.350 . S
C1391 C1390 1.434 . S
C865 C398 1.487 . S
C867 C14 1.435 . S
C876 C50 1.434 . S
C878 C290 1.487 . S
C887 C86 1.433 . S
C889 C326 1.485 . S
C898 C122 1.440 . S
C900 C362 1.485 . S
C909 C470 1.484 . S
C911 C158 1.437 . S
C920 C194 1.442 . S
C922 C506 1.485 . S
C931 C542 1.485 . S
C933 C230 1.435 . S
C942 C434 1.484 . S
C944 C266 1.439 . S
C953 C182 1.485 . S
C955 C302 1.441 . S
C964 C218 1.485 . S
C966 C338 1.441 . S
C975 C374 1.437 . S
C977 C254 1.485 . S
C986 C146 1.484 . S
C988 C410 1.437 . S
C997 C110 1.486 . S
C999 C446 1.440 . S
C1008 C482 1.441 . S
C1010 C2 1.486 . S
C1019 C518 1.433 . S
C1021 C38 1.486 . S
C1030 C554 1.434 . S
C1032 C74 1.485 . S
C1041 C590 1.438 . S
C1043 C830 1.485 . S
C1052 C722 1.484 . S
C1054 C626 1.438 . S
C1063 C662 1.442 . S
C1065 C614 1.485 . S
C1074 C698 1.433 . S
C1076 C650 1.485 . S
C1085 C686 1.487 . S
C1087 C734 1.436 . S
C1096 C770 1.441 . S
C1098 C794 1.486 . S
C1107 C578 1.486 . S
C1109 C806 1.434 . S
C1118 C758 1.487 . S
C1120 C842 1.438 . S
C1129 C3 1.515 . S
C1131 C219 1.514 . S
C1140 C39 1.514 . S
C1142 C255 1.513 . S
C1151 C75 1.515 . S
C1153 C147 1.515 . S
C1162 C183 1.513 . S
C1164 C111 1.514 . S
C1173 C363 1.513 . S
C1175 C291 1.514 . S
C1184 C327 1.513 . S
C1186 C399 1.514 . S
C1195 C435 1.513 . S
C1197 C507 1.513 . S
C1206 C543 1.513 . S
C1208 C471 1.513 . S
C1217 C615 1.514 . S
C1219 C579 1.515 . S
C1228 C651 1.513 . S
C1230 C831 1.514 . S
C1239 C687 1.515 . S
C1241 C759 1.514 . S
C1250 C723 1.513 . S
C1252 C795 1.513 . S
C1261 C4 1.142 . S
C1263 C184 1.143 . S
C1272 C40 1.142 . S
C1274 C220 1.140 . S
C1283 C76 1.140 . S
C1285 C256 1.142 . S
C1294 C148 1.140 . S
C1296 C112 1.140 . S
C1305 C292 1.140 . S
C1307 C832 1.142 . S
C1316 C328 1.143 . S
C1318 C760 1.140 . S
C1327 C796 1.143 . S
C1329 C364 1.142 . S
C1338 C400 1.143 . S
C1340 C580 1.143 . S
C1349 C724 1.139 . S
C1351 C436 1.141 . S
C1360 C616 1.142 . S
C1362 C472 1.143 . S
C1371 C508 1.141 . S
C1373 C652 1.140 . S
C1382 C688 1.141 . S
C1384 C544 1.140 . S
