# Generated by pormake.
# Topology sxa, (6)-cn, num edge types: 1
# Building blocks:
#     Node 0, Type 0, BuildingBlock: OJICUG_clean_sbu_0, # of connection points: 6
#     Node 1, Type 0, BuildingBlock: OJICUG_clean_sbu_0, # of connection points: 6
#     Node 2, Type 0, BuildingBlock: OJICUG_clean_sbu_0, # of connection points: 6
#     Node 3, Type 0, BuildingBlock: OJICUG_clean_sbu_0, # of connection points: 6
#     Edge 4, Type (0, 0), BuildingBlock: FUNLAD_clean_linker_1, # of connection points: 2
#     Edge 5, Type (0, 0), BuildingBlock: FUNLAD_clean_linker_1, # of connection points: 2
#     Edge 6, Type (0, 0), BuildingBlock: FUNLAD_clean_linker_1, # of connection points: 2
#     Edge 7, Type (0, 0), BuildingBlock: FUNLAD_clean_linker_1, # of connection points: 2
#     Edge 8, Type (0, 0), BuildingBlock: FUNLAD_clean_linker_1, # of connection points: 2
#     Edge 9, Type (0, 0), BuildingBlock: FUNLAD_clean_linker_1, # of connection points: 2
#     Edge 10, Type (0, 0), BuildingBlock: FUNLAD_clean_linker_1, # of connection points: 2
#     Edge 11, Type (0, 0), BuildingBlock: FUNLAD_clean_linker_1, # of connection points: 2
#     Edge 12, Type (0, 0), BuildingBlock: FUNLAD_clean_linker_1, # of connection points: 2
#     Edge 13, Type (0, 0), BuildingBlock: FUNLAD_clean_linker_1, # of connection points: 2
#     Edge 14, Type (0, 0), BuildingBlock: FUNLAD_clean_linker_1, # of connection points: 2
#     Edge 15, Type (0, 0), BuildingBlock: FUNLAD_clean_linker_1, # of connection points: 2
# Relax obj value: 0.172
# Max RMSD: 0.251
# Mean RMSD: 0.251
data_MOF--net-sxa--node1-OJICUG_clean_sbu_0--edge1-FUNLAD_clean_linker_1
_symmetry_space_group_name_H-M    P1
_symmetry_Int_Tables_number       1
_symmetry_cell_setting            triclinic
loop_
_symmetry_equiv_pos_as_xyz
'x, y, z'
_cell_length_a     25.809255
_cell_length_b     30.780332
_cell_length_c     18.619174
_cell_angle_alpha  89.480875
_cell_angle_beta   89.330749
_cell_angle_gamma 109.45047
loop_
_atom_site_label
_atom_site_type_symbol
_atom_site_fract_x
_atom_site_fract_y
_atom_site_fract_z
_atom_type_partial_charge
Sc0 Sc 1.00012 0.74395 0.12318 0.0
Sc1 Sc 0.06197 0.82404 0.25599 0.0
Sc2 Sc 0.9828 0.70934 0.30448 0.0
O3 O 0.01543 0.75907 0.22797 0.0
C4 C 0.88358 0.7025 0.19863 0.0
C5 C 0.00366 0.84904 0.12048 0.0
C6 C 0.96548 0.79803 0.37512 0.0
C7 C 0.12663 0.79934 0.12183 0.0
C8 C 1.00273 0.64642 0.18001 0.0
C9 C 0.10314 0.76036 0.3641 0.0
O10 O 0.91492 0.72039 0.14544 0.0
O11 O 0.02503 0.85906 0.18178 0.0
O12 O 0.95919 0.75539 0.37281 0.0
O13 O 0.08513 0.76761 0.09864 0.0
O14 O 0.9993 0.65449 0.24629 0.0
O15 O 0.10667 0.79855 0.33392 0.0
O16 O 1.00271 0.67537 0.13135 0.0
O17 O 0.12521 0.82473 0.17546 0.0
O18 O 0.0619 0.72373 0.35655 0.0
O19 O 0.99418 0.80973 0.09303 0.0
O20 O 0.90112 0.69371 0.25903 0.0
O21 O 1.0007 0.82805 0.33576 0.0
Sc22 Sc 0.50656 0.26909 0.11736 0.0
Sc23 Sc 0.53983 0.32156 0.28197 0.0
Sc24 Sc 0.46516 0.2044 0.27437 0.0
O25 O 0.5035 0.2649 0.22483 0.0
C26 C 0.3857 0.20189 0.14931 0.0
C27 C 0.49015 0.36181 0.14918 0.0
C28 C 0.42972 0.27673 0.36843 0.0
C29 C 0.62585 0.32892 0.16079 0.0
C30 C 0.52345 0.17459 0.13843 0.0
C31 C 0.56902 0.24351 0.36995 0.0
O32 O 0.42574 0.21973 0.10615 0.0
O33 O 0.52093 0.36778 0.20399 0.0
O34 O 0.43277 0.23662 0.35895 0.0
O35 O 0.58774 0.31963 0.11496 0.0
O36 O 0.49134 0.16487 0.19335 0.0
O37 O 0.56607 0.28396 0.36511 0.0
O38 O 0.54147 0.21475 0.11037 0.0
O39 O 0.61629 0.32818 0.22793 0.0
O40 O 0.53802 0.20968 0.3348 0.0
O41 O 0.47138 0.32328 0.11817 0.0
O42 O 0.39131 0.19807 0.21651 0.0
O43 O 0.46297 0.31292 0.33839 0.0
Sc44 Sc 0.99704 0.25885 0.91012 0.0
Sc45 Sc 0.95288 0.19662 0.75165 0.0
Sc46 Sc 0.0386 0.31275 0.74179 0.0
O47 O 0.99606 0.25607 0.80135 0.0
C48 C 1.00107 0.36132 0.87427 0.0
C49 C 0.87156 0.20689 0.87571 0.0
C50 C 0.92892 0.2742 0.65378 0.0
C51 C 0.99298 0.15514 0.88996 0.0
C52 C 0.12174 0.30699 0.86373 0.0
C53 C 0.06148 0.2311 0.65554 0.0
O54 O 0.99034 0.32639 0.91556 0.0
O55 O 0.87951 0.19272 0.8137 0.0
O56 O 0.96696 0.3085 0.67872 0.0
O57 O 0.00392 0.19211 0.92475 0.0
O58 O 0.11284 0.31915 0.80071 0.0
O59 O 0.02401 0.19802 0.68654 0.0
O60 O 0.08422 0.28666 0.90911 0.0
O61 O 0.97435 0.15103 0.82659 0.0
O62 O 0.0667 0.27316 0.66535 0.0
O63 O 0.91002 0.23025 0.91595 0.0
O64 O 0.01823 0.36147 0.81009 0.0
O65 O 0.92336 0.23267 0.67033 0.0
Sc66 Sc 0.48098 0.75731 0.908 0.0
Sc67 Sc 0.47939 0.71517 0.7327 0.0
Sc68 Sc 0.5598 0.82944 0.77096 0.0
O69 O 0.50679 0.76725 0.804 0.0
C70 C 0.49667 0.86381 0.89566 0.0
C71 C 0.37146 0.70695 0.82684 0.0
C72 C 0.46603 0.80345 0.65261 0.0
C73 C 0.49289 0.65916 0.87084 0.0
C74 C 0.61087 0.8066 0.91553 0.0
C75 C 0.60054 0.76304 0.66955 0.0
O76 O 0.47132 0.82387 0.92087 0.0
O77 O 0.39483 0.69722 0.77161 0.0
O78 O 0.50004 0.83411 0.69093 0.0
O79 O 0.48631 0.68876 0.91396 0.0
O80 O 0.61822 0.82417 0.85198 0.0
O81 O 0.55991 0.72685 0.68342 0.0
O82 O 0.5638 0.78415 0.94218 0.0
O83 O 0.49528 0.66487 0.80303 0.0
O84 O 0.60322 0.80212 0.69358 0.0
O85 O 0.39711 0.72988 0.87928 0.0
O86 O 0.53 0.87065 0.8429 0.0
O87 O 0.45972 0.76065 0.65763 0.0
H88 H 0.99837 0.4324 0.86565 0.0
C89 C 0.9961 0.40446 0.90301 0.0
H90 H 0.99383 0.38446 1.01227 0.0
H91 H 0.09859 0.59463 0.10397 0.0
H92 H 0.1814 0.57431 0.09689 0.0
H93 H 0.17925 0.49934 0.04872 0.0
H94 H 0.09422 0.44453 1.00615 0.0
C95 C 0.99291 0.41106 0.97409 0.0
C96 C 0.99372 0.45608 1.00354 0.0
C97 C 0.04324 0.48705 0.03074 0.0
C98 C 0.04421 0.52986 0.06014 0.0
C99 C 0.09498 0.56111 0.08314 0.0
C100 C 0.143 0.54999 0.07899 0.0
C101 C 0.1418 0.50781 0.05177 0.0
C102 C 0.09268 0.47662 0.02769 0.0
H103 H 0.01135 0.57766 0.19833 0.0
C104 C 0.00471 0.60085 0.15788 0.0
H105 H 0.98631 0.60926 0.04949 0.0
H106 H 0.89203 0.40432 0.95678 0.0
H107 H 0.80866 0.42407 0.96455 0.0
H108 H 0.80944 0.49714 0.01868 0.0
H109 H 0.89363 0.55103 0.06508 0.0
C110 C 0.99624 0.58721 0.08909 0.0
C111 C 0.99516 0.54103 0.06417 0.0
C112 C 0.94551 0.50975 0.03751 0.0
C113 C 0.94488 0.4674 1.00681 0.0
C114 C 0.89482 0.437 0.9804 0.0
C115 C 0.84664 0.44787 0.98461 0.0
C116 C 0.84708 0.489 0.01513 0.0
C117 C 0.89576 0.5197 0.04135 0.0
H118 H 0.43862 0.39495 0.09149 0.0
C119 C 0.47819 0.4014 0.11676 0.0
H120 H 0.55704 0.44909 0.13349 0.0
H121 H 0.43631 0.53294 0.87125 0.0
H122 H 0.42916 0.46354 0.80601 0.0
H123 H 0.46318 0.40445 0.85808 0.0
H124 H 0.49976 0.41233 0.9783 0.0
C125 C 0.51702 0.44328 0.10985 0.0
C126 C 0.50735 0.48291 0.07136 0.0
C127 C 0.4896 0.47903 0.99893 0.0
C128 C 0.47621 0.51567 0.96533 0.0
C129 C 0.45183 0.5082 0.89678 0.0
C130 C 0.44675 0.46819 0.85905 0.0
C131 C 0.46524 0.43463 0.88876 0.0
C132 C 0.4859 0.43953 0.95808 0.0
H133 H 0.52254 0.59959 0.86989 0.0
C134 C 0.49909 0.61655 0.90093 0.0
H135 H 0.45292 0.61585 0.99501 0.0
H136 H 0.54322 0.50339 0.20898 0.0
H137 H 0.56419 0.57718 0.26689 0.0
H138 H 0.55173 0.6436 0.20355 0.0
H139 H 0.5172 0.63642 0.08262 0.0
C140 C 0.47665 0.59865 0.96499 0.0
C141 C 0.48708 0.55847 1.00065 0.0
C142 C 0.50833 0.56337 0.07135 0.0
C143 C 0.51745 0.52544 0.10706 0.0
C144 C 0.53686 0.53118 0.17845 0.0
C145 C 0.54893 0.57339 0.21258 0.0
C146 C 0.54174 0.61073 0.17703 0.0
C147 C 0.52151 0.60597 0.10752 0.0
H148 H 0.45939 0.89719 0.97638 0.0
C149 C 0.49004 0.9039 0.93344 0.0
H150 H 0.55662 0.95467 0.88159 0.0
H151 H 0.41874 0.07795 0.03906 0.0
H152 H 0.34992 0.04594 0.94885 0.0
H153 H 0.36015 0.98848 0.86325 0.0
H154 H 0.43913 0.96245 0.86817 0.0
C155 C 0.52352 0.94751 0.92125 0.0
C156 C 0.52059 0.98629 0.96705 0.0
C157 C 0.47565 1.00283 0.96178 0.0
C158 C 0.47086 0.03718 1.00958 0.0
C159 C 0.42465 0.05206 1.00408 0.0
C160 C 0.38491 0.03411 0.95232 0.0
C161 C 0.39059 1.00169 0.90425 0.0
C162 C 0.43561 0.98647 0.90829 0.0
H163 H 0.56862 0.14692 0.05957 0.0
C164 C 0.53675 0.1373 0.10101 0.0
H165 H 0.47229 0.0826 0.14832 0.0
H166 H 0.61429 0.96516 0.98776 0.0
H167 H 0.68563 0.99987 0.07378 0.0
H168 H 0.67839 0.06056 0.15495 0.0
H169 H 0.59968 0.08685 0.15083 0.0
C170 C 0.50662 0.09257 0.11029 0.0
C171 C 0.51244 0.05667 0.06047 0.0
C172 C 0.5588 0.04176 0.06343 0.0
C173 C 0.56284 1.00654 0.01672 0.0
C174 C 0.60919 0.99186 0.02167 0.0
C175 C 0.65043 1.01145 0.07087 0.0
C176 C 0.64637 0.04565 0.11655 0.0
C177 C 0.60107 0.06059 0.11338 0.0
H178 H 0.98043 0.87602 0.02042 0.0
C179 C 0.99292 0.88487 0.07547 0.0
H180 H 0.01511 0.93781 0.15181 0.0
H181 H 0.09633 0.10154 0.92701 0.0
H182 H 0.17949 0.10798 0.99127 0.0
H183 H 0.18129 0.04886 0.08056 0.0
H184 H 0.10001 0.98302 0.10599 0.0
C185 C 1.00107 0.92808 0.09763 0.0
C186 C 0.99833 0.96499 0.04641 0.0
C187 C 0.04627 1.00362 0.03249 0.0
C188 C 0.04503 0.03822 0.98189 0.0
C189 C 0.09421 0.07528 0.96698 0.0
C190 C 0.14253 0.07912 1.00285 0.0
C191 C 0.14354 0.04583 0.05307 0.0
C192 C 0.09635 1.00825 0.06739 0.0
H193 H 0.01064 0.12026 0.98501 0.0
C194 C 0.99981 0.1154 0.92873 0.0
H195 H 0.97918 0.06732 0.84473 0.0
H196 H 0.89723 0.89838 0.06544 0.0
H197 H 0.81426 0.89216 1.00081 0.0
H198 H 0.81281 0.95116 0.91129 0.0
H199 H 0.89447 0.01668 0.88548 0.0
C200 C 0.99191 0.07384 0.90014 0.0
C201 C 0.99541 0.03496 0.94651 0.0
C202 C 0.94769 0.99609 0.95965 0.0
C203 C 0.94885 0.96147 1.01039 0.0
C204 C 0.89955 0.92459 0.02536 0.0
C205 C 0.85131 0.92089 0.98932 0.0
C206 C 0.85049 0.95413 0.93891 0.0
C207 C 0.8978 0.99154 0.92447 0.0
H208 H 0.43134 0.85279 0.5994 0.0
C209 C 0.42748 0.81668 0.60503 0.0
H210 H 0.38088 0.74787 0.58019 0.0
H211 H 0.17198 0.81866 0.54514 0.0
H212 H 0.18252 0.83737 0.67175 0.0
H213 H 0.26443 0.83555 0.73678 0.0
H214 H 0.33672 0.81566 0.6757 0.0
C215 C 0.38454 0.78397 0.57497 0.0
C216 C 0.33966 0.79318 0.53399 0.0
C217 C 0.29788 0.80534 0.57044 0.0
C218 C 0.25006 0.8058 0.5331 0.0
C219 C 0.20897 0.81775 0.57094 0.0
C220 C 0.21444 0.82845 0.64361 0.0
C221 C 0.2606 0.82743 0.68023 0.0
C222 C 0.30188 0.81598 0.64443 0.0
H223 H 0.14898 0.72496 0.42959 0.0
C224 C 0.15009 0.75818 0.40799 0.0
H225 H 0.19596 0.82934 0.39943 0.0
H226 H 0.4121 0.76995 0.44725 0.0
H227 H 0.40079 0.75034 0.32106 0.0
H228 H 0.31796 0.75092 0.25681 0.0
H229 H 0.24571 0.77078 0.31835 0.0
C230 C 0.19444 0.79577 0.41988 0.0
C231 C 0.24352 0.79354 0.45968 0.0
C232 C 0.28562 0.78216 0.42297 0.0
C233 C 0.33351 0.78188 0.46011 0.0
C234 C 0.37469 0.77022 0.4219 0.0
C235 C 0.36884 0.75912 0.34939 0.0
C236 C 0.32222 0.75947 0.31319 0.0
C237 C 0.28103 0.77091 0.3492 0.0
H238 H 0.10253 0.18539 0.60581 0.0
C239 C 0.10397 0.22093 0.61072 0.0
H240 H 0.14839 0.2908 0.58563 0.0
H241 H 0.36876 0.23669 0.57213 0.0
H242 H 0.35802 0.23003 0.70199 0.0
H243 H 0.27262 0.23124 0.76142 0.0
H244 H 0.19778 0.23989 0.69184 0.0
C245 C 0.14665 0.25517 0.58143 0.0
C246 C 0.19463 0.24739 0.54531 0.0
C247 C 0.23819 0.24259 0.58692 0.0
C248 C 0.28748 0.24177 0.55258 0.0
C249 C 0.3304 0.23728 0.59548 0.0
C250 C 0.32483 0.23354 0.67003 0.0
C251 C 0.27681 0.23438 0.70353 0.0
C252 C 0.23403 0.23916 0.66284 0.0
H253 H 0.37884 0.31451 0.41774 0.0
C254 C 0.38324 0.28077 0.41244 0.0
H255 H 0.34812 0.20946 0.43655 0.0
H256 H 0.11849 0.25502 0.44993 0.0
H257 H 0.12796 0.25905 0.3198 0.0
H258 H 0.21267 0.25634 0.26015 0.0
H259 H 0.28866 0.2501 0.33001 0.0
C260 C 0.3442 0.24341 0.44083 0.0
C261 C 0.29338 0.24605 0.47678 0.0
C262 C 0.24919 0.24946 0.43505 0.0
C263 C 0.2 0.25048 0.46941 0.0
C264 C 0.15674 0.25424 0.42649 0.0
C265 C 0.16157 0.25642 0.3518 0.0
C266 C 0.20927 0.25489 0.3182 0.0
C267 C 0.25267 0.25143 0.35902 0.0
H268 H 0.89084 0.31827 0.59383 0.0
C269 C 0.88699 0.28286 0.60714 0.0
H270 H 0.83716 0.2129 0.60132 0.0
H271 H 0.6104 0.24213 0.5648 0.0
H272 H 0.60367 0.21619 0.68909 0.0
H273 H 0.6843 0.2084 0.75069 0.0
H274 H 0.77215 0.22655 0.68849 0.0
C275 C 0.84244 0.24822 0.58558 0.0
C276 C 0.7952 0.25619 0.54884 0.0
C277 C 0.74384 0.24501 0.58571 0.0
C278 C 0.69721 0.2494 0.55017 0.0
C279 C 0.64689 0.23888 0.58889 0.0
C280 C 0.64249 0.22409 0.66035 0.0
C281 C 0.68788 0.21969 0.69503 0.0
C282 C 0.73805 0.23006 0.65853 0.0
H283 H 0.61169 0.20099 0.42465 0.0
C284 C 0.6121 0.23604 0.41561 0.0
H285 H 0.65656 0.3068 0.4285 0.0
H286 H 0.88633 0.278 0.46089 0.0
H287 H 0.89306 0.30445 0.33692 0.0
H288 H 0.81273 0.31335 0.27605 0.0
H289 H 0.72503 0.29559 0.33868 0.0
C290 C 0.65404 0.27156 0.44072 0.0
C291 C 0.70187 0.26482 0.47764 0.0
C292 C 0.75327 0.27629 0.44088 0.0
C293 C 0.79986 0.27165 0.47627 0.0
C294 C 0.84999 0.28177 0.43722 0.0
C295 C 0.85436 0.2968 0.36587 0.0
C296 C 0.80912 0.3018 0.33158 0.0
C297 C 0.75906 0.29161 0.36828 0.0
H298 H 0.93157 0.8483 0.42668 0.0
C299 C 0.92603 0.81194 0.42098 0.0
H300 H 0.87387 0.7435 0.44092 0.0
H301 H 0.76364 0.82031 0.70462 0.0
H302 H 0.8523 0.83966 0.76152 0.0
H303 H 0.93371 0.83635 0.6941 0.0
H304 H 0.92704 0.81395 0.56906 0.0
C305 C 0.88085 0.77982 0.44996 0.0
C306 C 0.83485 0.79037 0.48731 0.0
C307 C 0.83938 0.80406 0.5601 0.0
C308 C 0.79217 0.80587 0.59907 0.0
C309 C 0.79801 0.8188 0.67215 0.0
C310 C 0.84867 0.82981 0.70563 0.0
C311 C 0.89451 0.82793 0.66768 0.0
C312 C 0.89012 0.81504 0.59589 0.0
H313 H 0.64532 0.72577 0.60553 0.0
C314 C 0.64703 0.75952 0.62435 0.0
H315 H 0.6939 0.83033 0.62736 0.0
H316 H 0.8125 0.7659 0.34744 0.0
H317 H 0.72455 0.74886 0.28897 0.0
H318 H 0.64345 0.75369 0.35531 0.0
H319 H 0.6494 0.77485 0.48083 0.0
C320 C 0.69127 0.79671 0.607 0.0
C321 C 0.74018 0.79379 0.56544 0.0
C322 C 0.73622 0.78195 0.49165 0.0
C323 C 0.78339 0.77991 0.4529 0.0
C324 C 0.77801 0.76767 0.37948 0.0
C325 C 0.72788 0.7581 0.34511 0.0
C326 C 0.68218 0.76076 0.38252 0.0
C327 C 0.68609 0.77267 0.45478 0.0
H328 H 0.29385 0.67246 0.87856 0.0
C329 C 0.31164 0.69355 0.83145 0.0
H330 H 0.30758 0.74655 0.76365 0.0
H331 H 0.11599 0.69765 0.03367 0.0
H332 H 0.06962 0.62708 0.97124 0.0
H333 H 0.10817 0.60773 0.85937 0.0
H334 H 0.19339 0.66 0.80774 0.0
C335 C 0.28871 0.72442 0.80913 0.0
C336 C 0.25705 0.74134 0.86317 0.0
C337 C 0.20754 0.71092 0.89288 0.0
C338 C 0.18607 0.72195 0.95826 0.0
C339 C 0.13557 0.69091 0.98545 0.0
C340 C 0.10813 0.65022 0.94994 0.0
C341 C 0.12979 0.63934 0.88675 0.0
C342 C 0.1788 0.66935 0.85808 0.0
H343 H 0.18738 0.83668 0.04137 0.0
C344 C 0.17693 0.80768 0.0788 0.0
H345 H 0.18113 0.74269 0.1041 0.0
H346 H 0.34463 0.81321 0.81013 0.0
H347 H 0.38828 0.88551 0.86661 0.0
H348 H 0.35861 0.90159 0.9874 0.0
H349 H 0.28218 0.84532 0.04923 0.0
C350 C 0.19437 0.77177 0.06664 0.0
C351 C 0.21506 0.7633 0.9947 0.0
C352 C 0.26259 0.79532 0.962 0.0
C353 C 0.28219 0.78503 0.89465 0.0
C354 C 0.32826 0.81836 0.86169 0.0
C355 C 0.35415 0.86035 0.89398 0.0
C356 C 0.33709 0.8694 0.96145 0.0
C357 C 0.29248 0.83702 0.9959 0.0
H358 H 0.20278 0.33618 0.91246 0.0
C359 C 0.17657 0.30726 0.88237 0.0
H360 H 0.15496 0.23677 0.85905 0.0
H361 H 0.39507 0.28139 0.02396 0.0
H362 H 0.43679 0.32569 0.91773 0.0
H363 H 0.37927 0.33894 0.82036 0.0
H364 H 0.27984 0.30786 0.8294 0.0
C365 C 0.18417 0.26617 0.88517 0.0
C366 C 0.21928 0.25621 0.94081 0.0
C367 C 0.2771 0.27534 0.93512 0.0
C368 C 0.30999 0.26772 0.99113 0.0
C369 C 0.36792 0.28655 0.9836 0.0
C370 C 0.39244 0.31198 0.92264 0.0
C371 C 0.36012 0.31943 0.86792 0.0
C372 C 0.30309 0.3015 0.87387 0.0
H373 H 0.31051 0.16649 0.09014 0.0
C374 C 0.33176 0.19698 0.12076 0.0
H375 H 0.34492 0.26726 0.13788 0.0
H376 H 0.10892 0.2127 0.96734 0.0
H377 H 0.06757 0.1677 0.0734 0.0
H378 H 0.12506 0.15495 0.17058 0.0
H379 H 0.22439 0.18813 0.16308 0.0
C380 C 0.31968 0.23581 0.11216 0.0
C381 C 0.28477 0.24108 0.05262 0.0
C382 C 0.22703 0.22089 0.0575 0.0
C383 C 0.19409 0.22822 1.00126 0.0
C384 C 0.1362 0.20827 1.00811 0.0
C385 C 0.11183 0.18221 0.06868 0.0
C386 C 0.14419 0.17513 0.12356 0.0
C387 C 0.20116 0.19425 0.11844 0.0
H388 H 0.70421 0.31716 0.17394 0.0
C389 C 0.67993 0.32877 0.13567 0.0
H390 H 0.66671 0.3407 0.02711 0.0
H391 H 0.88294 0.26405 0.0379 0.0
H392 H 0.93033 0.33212 0.10464 0.0
H393 H 0.88383 0.38712 0.13921 0.0
H394 H 0.78913 0.37379 0.10712 0.0
C395 C 0.69098 0.3288 0.06492 0.0
C396 C 0.72131 0.29896 0.03711 0.0
C397 C 0.77698 0.30769 0.05485 0.0
C398 C 0.80375 0.27614 0.03411 0.0
C399 C 0.85973 0.28611 0.05245 0.0
C400 C 0.8878 0.32541 0.09071 0.0
C401 C 0.86158 0.35625 0.11045 0.0
C402 C 0.80703 0.34794 0.09221 0.0
H403 H 0.79109 0.21377 0.8584 0.0
C404 C 0.81591 0.20415 0.89823 0.0
H405 H 0.82975 0.19498 1.0071 0.0
H406 H 0.61358 0.27174 0.99297 0.0
H407 H 0.5655 0.20291 0.92799 0.0
H408 H 0.61138 0.14706 0.89552 0.0
H409 H 0.70622 0.16046 0.92722 0.0
C410 C 0.80468 0.20553 0.96869 0.0
C411 C 0.77471 0.23609 0.99482 0.0
C412 C 0.71897 0.2273 0.97732 0.0
C413 C 0.69238 0.25909 0.99749 0.0
C414 C 0.6365 0.24934 0.9789 0.0
C415 C 0.60812 0.20969 0.94158 0.0
C416 C 0.63394 0.17827 0.92326 0.0
C417 C 0.68854 0.1866 0.94129 0.0
H418 H 0.80041 0.6964 0.24045 0.0
C419 C 0.82574 0.69995 0.19227 0.0
H420 H 0.83385 0.71446 0.08057 0.0
H421 H 0.60831 0.70627 0.98067 0.0
H422 H 0.59815 0.62582 0.9621 0.0
H423 H 0.65914 0.59035 0.02089 0.0
H424 H 0.73389 0.63602 0.0955 0.0
C425 C 0.80904 0.7117 0.12908 0.0
C426 C 0.7617 0.72786 0.12079 0.0
C427 C 0.71659 0.70045 0.08121 0.0
C428 C 0.68024 0.72065 0.04955 0.0
C429 C 0.6371 0.69278 1.00672 0.0
C430 C 0.63047 0.64649 0.99587 0.0
C431 C 0.66517 0.62652 0.02862 0.0
C432 C 0.70789 0.65305 0.07088 0.0
H433 H 0.69803 0.81262 0.93126 0.0
C434 C 0.65847 0.80586 0.95818 0.0
H435 H 0.61085 0.78145 0.05295 0.0
H436 H 0.84212 0.78948 0.19945 0.0
H437 H 0.85212 0.86942 0.2205 0.0
H438 H 0.78645 0.90371 0.16972 0.0
H439 H 0.71082 0.85819 0.09634 0.0
C440 C 0.65044 0.78872 0.02593 0.0
C441 C 0.68855 0.76814 0.05956 0.0
C442 C 0.73107 0.79474 0.10413 0.0
C443 C 0.76826 0.7747 0.13428 0.0
C444 C 0.81227 0.80266 0.17569 0.0
C445 C 0.8184 0.84864 0.1884 0.0
C446 C 0.7814 0.86793 0.15987 0.0
C447 C 0.7382 0.84148 0.11797 0.0
loop_
_geom_bond_atom_site_label_1
_geom_bond_atom_site_label_2
_geom_bond_distance
_geom_bond_site_symmetry_2
_ccdc_geom_bond_type
Sc0 O3 2.025 . S
Sc0 O10 2.083 1_455 S
Sc0 O13 2.127 . S
Sc0 O16 2.115 1_455 S
Sc0 O19 2.098 . S
Sc1 O3 2.035 . S
Sc1 O11 2.105 . S
Sc1 O15 2.105 . S
Sc1 O17 2.105 . S
Sc1 O21 2.105 1_455 S
Sc2 O3 2.016 1_655 S
Sc2 O12 2.105 . S
Sc2 O14 2.105 . S
Sc2 O18 2.105 1_655 S
Sc2 O20 2.105 . S
O3 Sc0 2.025 . S
O3 Sc1 2.035 . S
O3 Sc2 2.016 1_455 S
C4 O10 1.268 . S
C4 O20 1.268 . S
C5 O11 1.268 . S
C5 O19 1.268 . S
C6 O12 1.268 . S
C6 O21 1.268 . S
C7 O13 1.268 . S
C7 O17 1.268 . S
C8 O14 1.268 . S
C8 O16 1.268 . S
C9 O15 1.268 . S
C9 O18 1.268 . S
O10 Sc0 2.083 1_655 S
O10 C4 1.268 . S
O11 Sc1 2.105 . S
O11 C5 1.268 . S
O12 Sc2 2.105 . S
O12 C6 1.268 . S
O13 Sc0 2.127 . S
O13 C7 1.268 . S
O14 Sc2 2.105 . S
O14 C8 1.268 . S
O15 Sc1 2.105 . S
O15 C9 1.268 . S
O16 Sc0 2.115 1_655 S
O16 C8 1.268 . S
O17 Sc1 2.105 . S
O17 C7 1.268 . S
O18 Sc2 2.105 1_455 S
O18 C9 1.268 . S
O19 Sc0 2.098 . S
O19 C5 1.268 . S
O20 Sc2 2.105 . S
O20 C4 1.268 . S
O21 Sc1 2.105 1_655 S
O21 C6 1.268 . S
Sc22 O25 2.025 . S
Sc22 O32 2.105 . S
Sc22 O35 2.105 . S
Sc22 O38 2.105 . S
Sc22 O41 2.105 . S
Sc23 O25 2.025 . S
Sc23 O33 2.105 . S
Sc23 O37 2.105 . S
Sc23 O39 2.105 . S
Sc23 O43 2.105 . S
Sc24 O25 2.025 . S
Sc24 O34 2.105 . S
Sc24 O36 2.105 . S
Sc24 O40 2.105 . S
Sc24 O42 2.105 . S
O25 Sc22 2.025 . S
O25 Sc23 2.025 . S
O25 Sc24 2.025 . S
C26 O32 1.268 . S
C26 O42 1.268 . S
C27 O33 1.268 . S
C27 O41 1.268 . S
C28 O34 1.268 . S
C28 O43 1.268 . S
C29 O35 1.268 . S
C29 O39 1.268 . S
C30 O36 1.268 . S
C30 O38 1.268 . S
C31 O37 1.268 . S
C31 O40 1.268 . S
O32 Sc22 2.105 . S
O32 C26 1.268 . S
O33 Sc23 2.105 . S
O33 C27 1.268 . S
O34 Sc24 2.105 . S
O34 C28 1.268 . S
O35 Sc22 2.105 . S
O35 C29 1.268 . S
O36 Sc24 2.105 . S
O36 C30 1.268 . S
O37 Sc23 2.105 . S
O37 C31 1.268 . S
O38 Sc22 2.105 . S
O38 C30 1.268 . S
O39 Sc23 2.105 . S
O39 C29 1.268 . S
O40 Sc24 2.105 . S
O40 C31 1.268 . S
O41 Sc22 2.105 . S
O41 C27 1.268 . S
O42 Sc24 2.105 . S
O42 C26 1.268 . S
O43 Sc23 2.105 . S
O43 C28 1.268 . S
Sc44 O47 2.025 . S
Sc44 O54 2.098 . S
Sc44 O57 2.115 1_455 S
Sc44 O60 2.127 . S
Sc44 O63 2.083 1_455 S
Sc45 O47 2.016 1_655 S
Sc45 O55 2.105 . S
Sc45 O59 2.105 1_655 S
Sc45 O61 2.105 . S
Sc45 O65 2.105 . S
Sc46 O47 2.035 . S
Sc46 O56 2.105 1_455 S
Sc46 O58 2.105 . S
Sc46 O62 2.105 . S
Sc46 O64 2.105 . S
O47 Sc44 2.025 . S
O47 Sc45 2.016 1_455 S
O47 Sc46 2.035 . S
C48 O54 1.268 . S
C48 O64 1.268 . S
C49 O55 1.268 . S
C49 O63 1.268 . S
C50 O56 1.268 . S
C50 O65 1.268 . S
C51 O57 1.268 . S
C51 O61 1.268 . S
C52 O58 1.268 . S
C52 O60 1.268 . S
C53 O59 1.268 . S
C53 O62 1.268 . S
O54 Sc44 2.098 . S
O54 C48 1.268 . S
O55 Sc45 2.105 . S
O55 C49 1.268 . S
O56 Sc46 2.105 1_655 S
O56 C50 1.268 . S
O57 Sc44 2.115 1_655 S
O57 C51 1.268 . S
O58 Sc46 2.105 . S
O58 C52 1.268 . S
O59 Sc45 2.105 1_455 S
O59 C53 1.268 . S
O60 Sc44 2.127 . S
O60 C52 1.268 . S
O61 Sc45 2.105 . S
O61 C51 1.268 . S
O62 Sc46 2.105 . S
O62 C53 1.268 . S
O63 Sc44 2.083 1_655 S
O63 C49 1.268 . S
O64 Sc46 2.105 . S
O64 C48 1.268 . S
O65 Sc45 2.105 . S
O65 C50 1.268 . S
Sc66 O69 2.025 . S
Sc66 O76 2.105 . S
Sc66 O79 2.105 . S
Sc66 O82 2.105 . S
Sc66 O85 2.105 . S
Sc67 O69 2.025 . S
Sc67 O77 2.105 . S
Sc67 O81 2.105 . S
Sc67 O83 2.105 . S
Sc67 O87 2.105 . S
Sc68 O69 2.025 . S
Sc68 O78 2.105 . S
Sc68 O80 2.105 . S
Sc68 O84 2.105 . S
Sc68 O86 2.105 . S
O69 Sc66 2.025 . S
O69 Sc67 2.025 . S
O69 Sc68 2.025 . S
C70 O76 1.268 . S
C70 O86 1.268 . S
C71 O77 1.268 . S
C71 O85 1.268 . S
C72 O78 1.268 . S
C72 O87 1.268 . S
C73 O79 1.268 . S
C73 O83 1.268 . S
C74 O80 1.268 . S
C74 O82 1.268 . S
C75 O81 1.268 . S
C75 O84 1.268 . S
O76 Sc66 2.105 . S
O76 C70 1.268 . S
O77 Sc67 2.105 . S
O77 C71 1.268 . S
O78 Sc68 2.105 . S
O78 C72 1.268 . S
O79 Sc66 2.105 . S
O79 C73 1.268 . S
O80 Sc68 2.105 . S
O80 C74 1.268 . S
O81 Sc67 2.105 . S
O81 C75 1.268 . S
O82 Sc66 2.105 . S
O82 C74 1.268 . S
O83 Sc67 2.105 . S
O83 C73 1.268 . S
O84 Sc68 2.105 . S
O84 C75 1.268 . S
O85 Sc66 2.105 . S
O85 C71 1.268 . S
O86 Sc68 2.105 . S
O86 C70 1.268 . S
O87 Sc67 2.105 . S
O87 C72 1.268 . S
H88 C89 0.951 . S
C89 H88 0.951 . S
C89 C95 1.265 1_455 S
H90 C95 0.950 . S
H91 C99 0.949 . S
H92 C100 0.950 . S
H93 C101 0.951 . S
H94 C102 0.951 . S
C95 C89 1.265 1_655 S
C95 H90 0.950 . S
C95 C96 1.478 . S
C96 C95 1.478 . S
C96 C97 1.397 1_656 S
C96 C113 1.394 . S
C97 C96 1.397 1_454 S
C97 C98 1.438 . S
C97 C102 1.429 . S
C98 C97 1.438 . S
C98 C99 1.428 . S
C98 C111 1.394 . S
C99 H91 0.949 . S
C99 C98 1.428 . S
C99 C100 1.345 . S
C100 H92 0.950 . S
C100 C99 1.345 . S
C100 C101 1.424 . S
C101 H93 0.951 . S
C101 C100 1.424 . S
C101 C102 1.347 . S
C102 H94 0.951 . S
C102 C97 1.429 . S
C102 C101 1.347 . S
H103 C104 0.951 . S
C104 H103 0.951 . S
C104 C110 1.265 1_655 S
H105 C110 0.950 . S
H106 C114 0.949 . S
H107 C115 0.950 . S
H108 C116 0.951 . S
H109 C117 0.951 . S
C110 C104 1.265 1_455 S
C110 H105 0.950 . S
C110 C111 1.478 . S
C111 C98 1.394 . S
C111 C110 1.478 . S
C111 C112 1.397 1_454 S
C112 C111 1.397 1_656 S
C112 C113 1.438 . S
C112 C117 1.429 . S
C113 C96 1.394 . S
C113 C112 1.438 . S
C113 C114 1.428 . S
C114 H106 0.949 . S
C114 C113 1.428 . S
C114 C115 1.345 . S
C115 H107 0.950 . S
C115 C114 1.345 . S
C115 C116 1.424 . S
C116 H108 0.951 . S
C116 C115 1.424 . S
C116 C117 1.347 . S
C117 H109 0.951 . S
C117 C112 1.429 . S
C117 C116 1.347 . S
H118 C119 0.951 . S
C119 H118 0.951 . S
C119 C125 1.265 . S
H120 C125 0.950 . S
H121 C129 0.949 . S
H122 C130 0.950 . S
H123 C131 0.951 . S
H124 C132 0.951 . S
C125 C119 1.265 . S
C125 H120 0.950 . S
C125 C126 1.478 . S
C126 C125 1.478 . S
C126 C127 1.397 1_554 S
C126 C143 1.394 . S
C127 C126 1.397 1_556 S
C127 C128 1.438 . S
C127 C132 1.429 . S
C128 C127 1.438 . S
C128 C129 1.428 . S
C128 C141 1.394 . S
C129 H121 0.949 . S
C129 C128 1.428 . S
C129 C130 1.345 . S
C130 H122 0.950 . S
C130 C129 1.345 . S
C130 C131 1.424 . S
C131 H123 0.951 . S
C131 C130 1.424 . S
C131 C132 1.347 . S
C132 H124 0.951 . S
C132 C127 1.429 . S
C132 C131 1.347 . S
H133 C134 0.951 . S
C134 H133 0.951 . S
C134 C140 1.265 . S
H135 C140 0.950 . S
H136 C144 0.949 . S
H137 C145 0.950 . S
H138 C146 0.951 . S
H139 C147 0.951 . S
C140 C134 1.265 . S
C140 H135 0.950 . S
C140 C141 1.478 . S
C141 C128 1.394 . S
C141 C140 1.478 . S
C141 C142 1.397 1_556 S
C142 C141 1.397 1_554 S
C142 C143 1.438 . S
C142 C147 1.429 . S
C143 C126 1.394 . S
C143 C142 1.438 . S
C143 C144 1.428 . S
C144 H136 0.949 . S
C144 C143 1.428 . S
C144 C145 1.345 . S
C145 H137 0.950 . S
C145 C144 1.345 . S
C145 C146 1.424 . S
C146 H138 0.951 . S
C146 C145 1.424 . S
C146 C147 1.347 . S
C147 H139 0.951 . S
C147 C142 1.429 . S
C147 C146 1.347 . S
H148 C149 0.951 . S
C149 H148 0.951 . S
C149 C155 1.265 . S
H150 C155 0.950 . S
H151 C159 0.944 1_554 S
H152 C160 0.950 . S
H153 C161 0.951 . S
H154 C162 0.951 . S
C155 C149 1.265 . S
C155 H150 0.950 . S
C155 C156 1.478 . S
C156 C155 1.478 . S
C156 C157 1.397 . S
C156 C173 1.400 . S
C157 C156 1.397 . S
C157 C158 1.432 1_566 S
C157 C162 1.429 . S
C158 C157 1.432 1_544 S
C158 C159 1.428 1_554 S
C158 C171 1.400 . S
C159 H151 0.944 1_556 S
C159 C158 1.428 1_556 S
C159 C160 1.350 . S
C160 H152 0.950 . S
C160 C159 1.350 . S
C160 C161 1.424 1_545 S
C161 H153 0.951 . S
C161 C160 1.424 1_565 S
C161 C162 1.347 . S
C162 H154 0.951 . S
C162 C157 1.429 . S
C162 C161 1.347 . S
H163 C164 0.951 . S
C164 H163 0.951 . S
C164 C170 1.265 . S
H165 C170 0.950 . S
H166 C174 0.944 1_556 S
H167 C175 0.950 . S
H168 C176 0.951 . S
H169 C177 0.951 . S
C170 C164 1.265 . S
C170 H165 0.950 . S
C170 C171 1.478 . S
C171 C158 1.400 . S
C171 C170 1.478 . S
C171 C172 1.397 . S
C172 C171 1.397 . S
C172 C173 1.432 1_544 S
C172 C177 1.429 . S
C173 C156 1.400 . S
C173 C172 1.432 1_566 S
C173 C174 1.428 1_556 S
C174 H166 0.944 1_554 S
C174 C173 1.428 1_554 S
C174 C175 1.350 . S
C175 H167 0.950 . S
C175 C174 1.350 . S
C175 C176 1.424 1_565 S
C176 H168 0.951 . S
C176 C175 1.424 1_545 S
C176 C177 1.347 . S
C177 H169 0.951 . S
C177 C172 1.429 . S
C177 C176 1.347 . S
H178 C179 0.951 . S
C179 H178 0.951 . S
C179 C185 1.265 1_455 S
H180 C185 0.950 . S
H181 C189 0.949 . S
H182 C190 0.950 . S
H183 C191 0.951 1_655 S
H184 C192 0.951 1_565 S
C185 C179 1.265 1_655 S
C185 H180 0.950 . S
C185 C186 1.478 . S
C186 C185 1.478 . S
C186 C187 1.397 . S
C186 C203 1.394 1_554 S
C187 C186 1.397 . S
C187 C188 1.438 1_665 S
C187 C192 1.429 1_565 S
C188 C187 1.438 1_445 S
C188 C189 1.428 . S
C188 C201 1.394 1_554 S
C189 H181 0.949 . S
C189 C188 1.428 . S
C189 C190 1.345 . S
C190 H182 0.950 . S
C190 C189 1.345 . S
C190 C191 1.424 . S
C191 H183 0.951 1_455 S
C191 C190 1.424 . S
C191 C192 1.347 1_455 S
C192 H184 0.951 1_545 S
C192 C187 1.429 1_545 S
C192 C191 1.347 1_655 S
H193 C194 0.951 . S
C194 H193 0.951 . S
C194 C200 1.265 1_655 S
H195 C200 0.950 . S
H196 C204 0.949 . S
H197 C205 0.950 . S
H198 C206 0.952 . S
H199 C207 0.951 1_545 S
C200 C194 1.265 1_455 S
C200 H195 0.950 . S
C200 C201 1.478 . S
C201 C188 1.394 1_556 S
C201 C200 1.478 . S
C201 C202 1.397 . S
C202 C201 1.397 . S
C202 C203 1.438 1_445 S
C202 C207 1.429 1_545 S
C203 C186 1.394 1_556 S
C203 C202 1.438 1_665 S
C203 C204 1.428 . S
C204 H196 0.949 . S
C204 C203 1.428 . S
C204 C205 1.345 . S
C205 H197 0.950 . S
C205 C204 1.345 . S
C205 C206 1.425 1_655 S
C206 H198 0.952 . S
C206 C205 1.425 1_455 S
C206 C207 1.345 . S
C207 H199 0.951 1_565 S
C207 C202 1.429 1_565 S
C207 C206 1.345 . S
H208 C209 0.951 . S
C209 H208 0.951 . S
C209 C215 1.265 . S
H210 C215 0.950 . S
H211 C219 0.949 . S
H212 C220 0.950 . S
H213 C221 0.951 . S
H214 C222 0.951 . S
C215 C209 1.265 . S
C215 H210 0.950 . S
C215 C216 1.478 . S
C216 C215 1.478 . S
C216 C217 1.397 . S
C216 C233 1.394 . S
C217 C216 1.397 . S
C217 C218 1.438 . S
C217 C222 1.429 . S
C218 C217 1.438 . S
C218 C219 1.428 . S
C218 C231 1.394 . S
C219 H211 0.949 . S
C219 C218 1.428 . S
C219 C220 1.345 . S
C220 H212 0.950 . S
C220 C219 1.345 . S
C220 C221 1.424 . S
C221 H213 0.951 . S
C221 C220 1.424 . S
C221 C222 1.347 . S
C222 H214 0.951 . S
C222 C217 1.429 . S
C222 C221 1.347 . S
H223 C224 0.951 . S
C224 H223 0.951 . S
C224 C230 1.265 . S
H225 C230 0.950 . S
H226 C234 0.949 . S
H227 C235 0.950 . S
H228 C236 0.951 . S
H229 C237 0.951 . S
C230 C224 1.265 . S
C230 H225 0.950 . S
C230 C231 1.478 . S
C231 C218 1.394 . S
C231 C230 1.478 . S
C231 C232 1.397 . S
C232 C231 1.397 . S
C232 C233 1.438 . S
C232 C237 1.429 . S
C233 C216 1.394 . S
C233 C232 1.438 . S
C233 C234 1.428 . S
C234 H226 0.949 . S
C234 C233 1.428 . S
C234 C235 1.345 . S
C235 H227 0.950 . S
C235 C234 1.345 . S
C235 C236 1.424 . S
C236 H228 0.951 . S
C236 C235 1.424 . S
C236 C237 1.347 . S
C237 H229 0.951 . S
C237 C232 1.429 . S
C237 C236 1.347 . S
H238 C239 0.951 . S
C239 H238 0.951 . S
C239 C245 1.265 . S
H240 C245 0.950 . S
H241 C249 0.949 . S
H242 C250 0.950 . S
H243 C251 0.951 . S
H244 C252 0.951 . S
C245 C239 1.265 . S
C245 H240 0.950 . S
C245 C246 1.478 . S
C246 C245 1.478 . S
C246 C247 1.397 . S
C246 C263 1.394 . S
C247 C246 1.397 . S
C247 C248 1.438 . S
C247 C252 1.429 . S
C248 C247 1.438 . S
C248 C249 1.428 . S
C248 C261 1.394 . S
C249 H241 0.949 . S
C249 C248 1.428 . S
C249 C250 1.345 . S
C250 H242 0.950 . S
C250 C249 1.345 . S
C250 C251 1.424 . S
C251 H243 0.951 . S
C251 C250 1.424 . S
C251 C252 1.347 . S
C252 H244 0.951 . S
C252 C247 1.429 . S
C252 C251 1.347 . S
H253 C254 0.951 . S
C254 H253 0.951 . S
C254 C260 1.265 . S
H255 C260 0.950 . S
H256 C264 0.949 . S
H257 C265 0.950 . S
H258 C266 0.951 . S
H259 C267 0.951 . S
C260 C254 1.265 . S
C260 H255 0.950 . S
C260 C261 1.478 . S
C261 C248 1.394 . S
C261 C260 1.478 . S
C261 C262 1.397 . S
C262 C261 1.397 . S
C262 C263 1.438 . S
C262 C267 1.429 . S
C263 C246 1.394 . S
C263 C262 1.438 . S
C263 C264 1.428 . S
C264 H256 0.949 . S
C264 C263 1.428 . S
C264 C265 1.345 . S
C265 H257 0.950 . S
C265 C264 1.345 . S
C265 C266 1.424 . S
C266 H258 0.951 . S
C266 C265 1.424 . S
C266 C267 1.347 . S
C267 H259 0.951 . S
C267 C262 1.429 . S
C267 C266 1.347 . S
H268 C269 0.951 . S
C269 H268 0.951 . S
C269 C275 1.265 . S
H270 C275 0.950 . S
H271 C279 0.949 . S
H272 C280 0.950 . S
H273 C281 0.951 . S
H274 C282 0.951 . S
C275 C269 1.265 . S
C275 H270 0.950 . S
C275 C276 1.478 . S
C276 C275 1.478 . S
C276 C277 1.397 . S
C276 C293 1.394 . S
C277 C276 1.397 . S
C277 C278 1.438 . S
C277 C282 1.429 . S
C278 C277 1.438 . S
C278 C279 1.428 . S
C278 C291 1.394 . S
C279 H271 0.949 . S
C279 C278 1.428 . S
C279 C280 1.345 . S
C280 H272 0.950 . S
C280 C279 1.345 . S
C280 C281 1.424 . S
C281 H273 0.951 . S
C281 C280 1.424 . S
C281 C282 1.347 . S
C282 H274 0.951 . S
C282 C277 1.429 . S
C282 C281 1.347 . S
H283 C284 0.951 . S
C284 H283 0.951 . S
C284 C290 1.265 . S
H285 C290 0.950 . S
H286 C294 0.949 . S
H287 C295 0.950 . S
H288 C296 0.951 . S
H289 C297 0.951 . S
C290 C284 1.265 . S
C290 H285 0.950 . S
C290 C291 1.478 . S
C291 C278 1.394 . S
C291 C290 1.478 . S
C291 C292 1.397 . S
C292 C291 1.397 . S
C292 C293 1.438 . S
C292 C297 1.429 . S
C293 C276 1.394 . S
C293 C292 1.438 . S
C293 C294 1.428 . S
C294 H286 0.949 . S
C294 C293 1.428 . S
C294 C295 1.345 . S
C295 H287 0.950 . S
C295 C294 1.345 . S
C295 C296 1.424 . S
C296 H288 0.951 . S
C296 C295 1.424 . S
C296 C297 1.347 . S
C297 H289 0.951 . S
C297 C292 1.429 . S
C297 C296 1.347 . S
H298 C299 0.951 . S
C299 H298 0.951 . S
C299 C305 1.265 . S
H300 C305 0.950 . S
H301 C309 0.949 . S
H302 C310 0.950 . S
H303 C311 0.951 . S
H304 C312 0.951 . S
C305 C299 1.265 . S
C305 H300 0.950 . S
C305 C306 1.478 . S
C306 C305 1.478 . S
C306 C307 1.397 . S
C306 C323 1.394 . S
C307 C306 1.397 . S
C307 C308 1.438 . S
C307 C312 1.429 . S
C308 C307 1.438 . S
C308 C309 1.428 . S
C308 C321 1.394 . S
C309 H301 0.949 . S
C309 C308 1.428 . S
C309 C310 1.345 . S
C310 H302 0.950 . S
C310 C309 1.345 . S
C310 C311 1.424 . S
C311 H303 0.951 . S
C311 C310 1.424 . S
C311 C312 1.347 . S
C312 H304 0.951 . S
C312 C307 1.429 . S
C312 C311 1.347 . S
H313 C314 0.951 . S
C314 H313 0.951 . S
C314 C320 1.265 . S
H315 C320 0.950 . S
H316 C324 0.949 . S
H317 C325 0.950 . S
H318 C326 0.951 . S
H319 C327 0.951 . S
C320 C314 1.265 . S
C320 H315 0.950 . S
C320 C321 1.478 . S
C321 C308 1.394 . S
C321 C320 1.478 . S
C321 C322 1.397 . S
C322 C321 1.397 . S
C322 C323 1.438 . S
C322 C327 1.429 . S
C323 C306 1.394 . S
C323 C322 1.438 . S
C323 C324 1.428 . S
C324 H316 0.949 . S
C324 C323 1.428 . S
C324 C325 1.345 . S
C325 H317 0.950 . S
C325 C324 1.345 . S
C325 C326 1.424 . S
C326 H318 0.951 . S
C326 C325 1.424 . S
C326 C327 1.347 . S
C327 H319 0.951 . S
C327 C322 1.429 . S
C327 C326 1.347 . S
H328 C329 0.951 . S
C329 H328 0.951 . S
C329 C335 1.265 . S
H330 C335 0.950 . S
H331 C339 0.949 . S
H332 C340 0.950 . S
H333 C341 0.951 . S
H334 C342 0.951 . S
C335 C329 1.265 . S
C335 H330 0.950 . S
C335 C336 1.478 . S
C336 C335 1.478 . S
C336 C337 1.397 . S
C336 C353 1.394 . S
C337 C336 1.397 . S
C337 C338 1.438 1_556 S
C337 C342 1.429 . S
C338 C337 1.438 1_554 S
C338 C339 1.428 . S
C338 C351 1.394 . S
C339 H331 0.949 . S
C339 C338 1.428 . S
C339 C340 1.345 . S
C340 H332 0.950 . S
C340 C339 1.345 . S
C340 C341 1.424 . S
C341 H333 0.951 . S
C341 C340 1.424 . S
C341 C342 1.347 1_554 S
C342 H334 0.951 . S
C342 C337 1.429 . S
C342 C341 1.347 1_556 S
H343 C344 0.951 . S
C344 H343 0.951 . S
C344 C350 1.265 . S
H345 C350 0.950 . S
H346 C354 0.949 . S
H347 C355 0.950 . S
H348 C356 0.951 . S
H349 C357 0.951 . S
C350 C344 1.265 . S
C350 H345 0.950 . S
C350 C351 1.478 . S
C351 C338 1.394 . S
C351 C350 1.478 . S
C351 C352 1.397 . S
C352 C351 1.397 . S
C352 C353 1.438 1_554 S
C352 C357 1.429 . S
C353 C336 1.394 . S
C353 C352 1.438 1_556 S
C353 C354 1.428 . S
C354 H346 0.949 . S
C354 C353 1.428 . S
C354 C355 1.345 . S
C355 H347 0.950 . S
C355 C354 1.345 . S
C355 C356 1.424 . S
C356 H348 0.951 . S
C356 C355 1.424 . S
C356 C357 1.347 1_556 S
C357 H349 0.951 . S
C357 C352 1.429 . S
C357 C356 1.347 1_554 S
H358 C359 0.951 . S
C359 H358 0.951 . S
C359 C365 1.265 . S
H360 C365 0.950 . S
H361 C369 0.949 . S
H362 C370 0.950 . S
H363 C371 0.951 . S
H364 C372 0.951 . S
C365 C359 1.265 . S
C365 H360 0.950 . S
C365 C366 1.478 . S
C366 C365 1.478 . S
C366 C367 1.397 . S
C366 C383 1.394 1_556 S
C367 C366 1.397 . S
C367 C368 1.438 . S
C367 C372 1.429 . S
C368 C367 1.438 . S
C368 C369 1.428 . S
C368 C381 1.394 1_556 S
C369 H361 0.949 . S
C369 C368 1.428 . S
C369 C370 1.345 . S
C370 H362 0.950 . S
C370 C369 1.345 . S
C370 C371 1.424 . S
C371 H363 0.951 . S
C371 C370 1.424 . S
C371 C372 1.347 . S
C372 H364 0.951 . S
C372 C367 1.429 . S
C372 C371 1.347 . S
H373 C374 0.951 . S
C374 H373 0.951 . S
C374 C380 1.265 . S
H375 C380 0.950 . S
H376 C384 0.949 . S
H377 C385 0.950 . S
H378 C386 0.951 . S
H379 C387 0.951 . S
C380 C374 1.265 . S
C380 H375 0.950 . S
C380 C381 1.478 . S
C381 C368 1.394 1_554 S
C381 C380 1.478 . S
C381 C382 1.397 . S
C382 C381 1.397 . S
C382 C383 1.438 . S
C382 C387 1.429 . S
C383 C366 1.394 1_554 S
C383 C382 1.438 . S
C383 C384 1.428 . S
C384 H376 0.949 . S
C384 C383 1.428 . S
C384 C385 1.345 . S
C385 H377 0.950 . S
C385 C384 1.345 . S
C385 C386 1.424 . S
C386 H378 0.951 . S
C386 C385 1.424 . S
C386 C387 1.347 . S
C387 H379 0.951 . S
C387 C382 1.429 . S
C387 C386 1.347 . S
H388 C389 0.951 . S
C389 H388 0.951 . S
C389 C395 1.265 . S
H390 C395 0.950 . S
H391 C399 0.949 . S
H392 C400 0.950 . S
H393 C401 0.951 . S
H394 C402 0.951 . S
C395 C389 1.265 . S
C395 H390 0.950 . S
C395 C396 1.478 . S
C396 C395 1.478 . S
C396 C397 1.397 . S
C396 C413 1.394 . S
C397 C396 1.397 . S
C397 C398 1.438 1_554 S
C397 C402 1.429 . S
C398 C397 1.438 1_556 S
C398 C399 1.428 . S
C398 C411 1.394 . S
C399 H391 0.949 . S
C399 C398 1.428 . S
C399 C400 1.345 1_556 S
C400 H392 0.950 . S
C400 C399 1.345 1_554 S
C400 C401 1.424 . S
C401 H393 0.951 . S
C401 C400 1.424 . S
C401 C402 1.347 . S
C402 H394 0.951 . S
C402 C397 1.429 . S
C402 C401 1.347 . S
H403 C404 0.951 . S
C404 H403 0.951 . S
C404 C410 1.265 . S
H405 C410 0.950 . S
H406 C414 0.949 . S
H407 C415 0.950 . S
H408 C416 0.951 . S
H409 C417 0.951 . S
C410 C404 1.265 . S
C410 H405 0.950 . S
C410 C411 1.478 . S
C411 C398 1.394 . S
C411 C410 1.478 . S
C411 C412 1.397 . S
C412 C411 1.397 . S
C412 C413 1.438 1_556 S
C412 C417 1.429 . S
C413 C396 1.394 . S
C413 C412 1.438 1_554 S
C413 C414 1.428 . S
C414 H406 0.949 . S
C414 C413 1.428 . S
C414 C415 1.345 1_554 S
C415 H407 0.950 . S
C415 C414 1.345 1_556 S
C415 C416 1.424 . S
C416 H408 0.951 . S
C416 C415 1.424 . S
C416 C417 1.347 . S
C417 H409 0.951 . S
C417 C412 1.429 . S
C417 C416 1.347 . S
H418 C419 0.951 . S
C419 H418 0.951 . S
C419 C425 1.265 . S
H420 C425 0.950 . S
H421 C429 0.949 . S
H422 C430 0.950 . S
H423 C431 0.951 1_554 S
H424 C432 0.951 . S
C425 C419 1.265 . S
C425 H420 0.950 . S
C425 C426 1.478 . S
C426 C425 1.478 . S
C426 C427 1.397 . S
C426 C443 1.394 . S
C427 C426 1.397 . S
C427 C428 1.438 1_554 S
C427 C432 1.429 . S
C428 C427 1.438 1_556 S
C428 C429 1.428 . S
C428 C441 1.394 . S
C429 H421 0.949 . S
C429 C428 1.428 . S
C429 C430 1.345 . S
C430 H422 0.950 . S
C430 C429 1.345 . S
C430 C431 1.424 . S
C431 H423 0.951 1_556 S
C431 C430 1.424 . S
C431 C432 1.347 1_556 S
C432 H424 0.951 . S
C432 C427 1.429 . S
C432 C431 1.347 1_554 S
H433 C434 0.951 . S
C434 H433 0.951 . S
C434 C440 1.265 . S
H435 C440 0.950 . S
H436 C444 0.949 . S
H437 C445 0.950 . S
H438 C446 0.951 1_556 S
H439 C447 0.951 . S
C440 C434 1.265 . S
C440 H435 0.950 . S
C440 C441 1.478 . S
C441 C428 1.394 . S
C441 C440 1.478 . S
C441 C442 1.397 . S
C442 C441 1.397 . S
C442 C443 1.438 1_556 S
C442 C447 1.429 . S
C443 C426 1.394 . S
C443 C442 1.438 1_554 S
C443 C444 1.428 . S
C444 H436 0.949 . S
C444 C443 1.428 . S
C444 C445 1.345 . S
C445 H437 0.950 . S
C445 C444 1.345 . S
C445 C446 1.424 . S
C446 H438 0.951 1_554 S
C446 C445 1.424 . S
C446 C447 1.347 1_554 S
C447 H439 0.951 . S
C447 C442 1.429 . S
C447 C446 1.347 1_556 S
C89 C48 1.536 . S
C104 C8 1.536 . S
C119 C27 1.565 . S
C134 C73 1.565 . S
C149 C70 1.527 . S
C164 C30 1.527 . S
C179 C5 1.515 . S
C194 C51 1.515 . S
C209 C72 2.130 . S
C224 C9 2.130 . S
C239 C53 2.136 . S
C254 C28 2.136 . S
C269 C50 2.136 . S
C284 C31 2.136 . S
C299 C6 2.133 . S
C314 C75 2.133 . S
C329 C71 0.538 . S
C344 C7 0.538 . S
C359 C52 0.650 . S
C374 C26 0.650 . S
C389 C29 0.635 . S
C404 C49 0.635 . S
C419 C4 0.662 . S
C434 C74 0.662 . S
