# Generated by pormake.
# Topology utp, (3)-cn, num edge types: 1
# Building blocks:
#     Node 0, Type 0, BuildingBlock: WUSLED_clean_sbu_0, # of connection points: 3
#     Node 1, Type 0, BuildingBlock: WUSLED_clean_sbu_0, # of connection points: 3
#     Node 2, Type 0, BuildingBlock: WUSLED_clean_sbu_0, # of connection points: 3
#     Node 3, Type 0, BuildingBlock: WUSLED_clean_sbu_0, # of connection points: 3
#     Node 4, Type 0, BuildingBlock: WUSLED_clean_sbu_0, # of connection points: 3
#     Node 5, Type 0, BuildingBlock: WUSLED_clean_sbu_0, # of connection points: 3
#     Node 6, Type 0, BuildingBlock: WUSLED_clean_sbu_0, # of connection points: 3
#     Node 7, Type 0, BuildingBlock: WUSLED_clean_sbu_0, # of connection points: 3
#     Edge 8, Type (0, 0), BuildingBlock: FUNLAD_clean_linker_1, # of connection points: 2
#     Edge 9, Type (0, 0), BuildingBlock: FUNLAD_clean_linker_1, # of connection points: 2
#     Edge 10, Type (0, 0), BuildingBlock: FUNLAD_clean_linker_1, # of connection points: 2
#     Edge 11, Type (0, 0), BuildingBlock: FUNLAD_clean_linker_1, # of connection points: 2
#     Edge 12, Type (0, 0), BuildingBlock: FUNLAD_clean_linker_1, # of connection points: 2
#     Edge 13, Type (0, 0), BuildingBlock: FUNLAD_clean_linker_1, # of connection points: 2
#     Edge 14, Type (0, 0), BuildingBlock: FUNLAD_clean_linker_1, # of connection points: 2
#     Edge 15, Type (0, 0), BuildingBlock: FUNLAD_clean_linker_1, # of connection points: 2
#     Edge 16, Type (0, 0), BuildingBlock: FUNLAD_clean_linker_1, # of connection points: 2
#     Edge 17, Type (0, 0), BuildingBlock: FUNLAD_clean_linker_1, # of connection points: 2
#     Edge 18, Type (0, 0), BuildingBlock: FUNLAD_clean_linker_1, # of connection points: 2
#     Edge 19, Type (0, 0), BuildingBlock: FUNLAD_clean_linker_1, # of connection points: 2
# Relax obj value: 0.000
# Max RMSD: 0.003
# Mean RMSD: 0.003
data_MOF--net-utp--node1-WUSLED_clean_sbu_0--edge1-FUNLAD_clean_linker_1
_symmetry_space_group_name_H-M    P1
_symmetry_Int_Tables_number       1
_symmetry_cell_setting            triclinic
loop_
_symmetry_equiv_pos_as_xyz
'x, y, z'
_cell_length_a     80.080747
_cell_length_b     70.483134
_cell_length_c     19.728458
_cell_angle_alpha  89.728778
_cell_angle_beta   90.042819
_cell_angle_gamma 89.807329
loop_
_atom_site_label
_atom_site_type_symbol
_atom_site_fract_x
_atom_site_fract_y
_atom_site_fract_z
_atom_type_partial_charge
C0 C 0.09611 0.08923 0.08884 0.0
C1 C 0.10073 0.07223 0.05714 0.0
C2 C 0.07151 0.0623 0.05212 0.0
C3 C 0.08855 0.05893 0.03903 0.0
C4 C 0.06702 0.07932 0.0849 0.0
C5 C 0.0792 0.09261 0.10281 0.0
U6 U 0.1412 0.10532 0.12442 0.0
O7 O 0.15375 0.13203 0.09666 0.0
O8 O 0.15072 0.12433 0.20375 0.0
C9 C 0.15543 0.13741 0.16007 0.0
C10 C 0.10863 0.10366 0.10742 0.0
C11 C 0.15121 0.15748 0.1766 0.0
C12 C 0.14844 0.19071 0.14218 0.0
C13 C 0.15026 0.17147 0.12557 0.0
C14 C 0.14822 0.18241 0.26119 0.0
C15 C 0.14757 0.19646 0.21046 0.0
C16 C 0.15004 0.16322 0.2446 0.0
C17 C 0.17707 0.06857 0.11094 0.0
C18 C 0.20684 0.07541 0.1089 0.0
C19 C 0.19744 0.04298 0.12132 0.0
C20 C 0.18084 0.04925 0.11878 0.0
C21 C 0.21072 0.05598 0.11558 0.0
C22 C 0.19019 0.08166 0.1065 0.0
C23 C 0.15941 0.07456 0.10691 0.0
O24 O 0.11595 0.10126 0.16648 0.0
O25 O 0.11906 0.10875 0.05928 0.0
O26 O 0.15549 0.08636 0.05754 0.0
O27 O 0.15222 0.07886 0.1647 0.0
H28 H 0.11374 0.06928 0.04619 0.0
H29 H 0.09248 0.04596 0.01432 0.0
H30 H 0.05421 0.08254 0.09754 0.0
H31 H 0.0754 0.1056 0.12768 0.0
H32 H 0.14838 0.20095 0.10122 0.0
H33 H 0.15146 0.16766 0.07267 0.0
H34 H 0.14771 0.18632 0.3142 0.0
H35 H 0.15103 0.15292 0.28534 0.0
H36 H 0.21673 0.08581 0.10497 0.0
H37 H 0.19965 0.02798 0.12853 0.0
H38 H 0.17088 0.03893 0.12289 0.0
H39 H 0.18757 0.09668 0.10087 0.0
C40 C 0.4423 0.95315 0.08303 0.0
C41 C 0.43769 0.97019 0.05087 0.0
C42 C 0.46681 0.98056 0.04915 0.0
C43 C 0.44983 0.98373 0.0342 0.0
C44 C 0.47128 0.96355 0.0826 0.0
C45 C 0.45914 0.95001 0.09904 0.0
U46 U 0.39731 0.93632 0.11681 0.0
O47 O 0.38482 0.91003 0.08404 0.0
O48 O 0.38795 0.91592 0.19237 0.0
C49 C 0.38311 0.90366 0.14637 0.0
C50 C 0.42985 0.93841 0.09961 0.0
C51 C 0.38771 0.88357 0.15838 0.0
C52 C 0.40651 0.85923 0.20239 0.0
C53 C 0.40299 0.87835 0.18819 0.0
C54 C 0.37974 0.85024 0.15576 0.0
C55 C 0.39487 0.8449 0.18731 0.0
C56 C 0.37623 0.86934 0.14178 0.0
C57 C 0.36123 0.97305 0.10934 0.0
C58 C 0.33153 0.96711 0.09435 0.0
C59 C 0.34082 0.99787 0.13281 0.0
C60 C 0.3574 0.99155 0.13023 0.0
C61 C 0.32762 0.9858 0.11389 0.0
C62 C 0.34814 0.96078 0.092 0.0
C63 C 0.37894 0.96719 0.1046 0.0
O64 O 0.42261 0.93986 0.15913 0.0
O65 O 0.41937 0.93398 0.05091 0.0
O66 O 0.38299 0.95629 0.05322 0.0
O67 O 0.38615 0.96202 0.16165 0.0
H68 H 0.42473 0.97298 0.03839 0.0
H69 H 0.44591 0.99671 0.00909 0.0
H70 H 0.48404 0.96056 0.09697 0.0
H71 H 0.46294 0.93702 0.12435 0.0
H72 H 0.41832 0.85564 0.2261 0.0
H73 H 0.4121 0.88905 0.2012 0.0
H74 H 0.37052 0.83985 0.14139 0.0
H75 H 0.3644 0.87305 0.1184 0.0
H76 H 0.32169 0.95739 0.08016 0.0
H77 H 0.33854 1.01216 0.15016 0.0
H78 H 0.36731 1.0012 0.14433 0.0
H79 H 0.35076 0.94638 0.07615 0.0
C80 C 0.09704 0.45141 0.40681 0.0
C81 C 0.0994 0.47065 0.39093 0.0
C82 C 0.0721 0.47861 0.43875 0.0
C83 C 0.08706 0.48407 0.40674 0.0
C84 C 0.06998 0.4593 0.45574 0.0
C85 C 0.0823 0.4459 0.43967 0.0
U86 U 0.14185 0.43556 0.36378 0.0
O87 O 0.15536 0.40947 0.39384 0.0
O88 O 0.15067 0.41557 0.28632 0.0
C89 C 0.15622 0.40322 0.33124 0.0
C90 C 0.10958 0.43686 0.38877 0.0
C91 C 0.15176 0.38305 0.32038 0.0
C92 C 0.1352 0.35854 0.26561 0.0
C93 C 0.13821 0.37773 0.27943 0.0
C94 C 0.15887 0.3496 0.3351 0.0
C95 C 0.14564 0.3442 0.29214 0.0
C96 C 0.1619 0.36879 0.34863 0.0
C97 C 0.17654 0.47444 0.36061 0.0
C98 C 0.20617 0.47564 0.38964 0.0
C99 C 0.19433 0.49918 0.31383 0.0
C100 C 0.17871 0.49051 0.31945 0.0
C101 C 0.20825 0.49207 0.34929 0.0
C102 C 0.19046 0.46694 0.39521 0.0
C103 C 0.15939 0.46702 0.37044 0.0
O104 O 0.11596 0.43816 0.32753 0.0
O105 O 0.12082 0.43291 0.43538 0.0
O106 O 0.15673 0.45585 0.4229 0.0
O107 O 0.15138 0.46166 0.31563 0.0
H108 H 0.11073 0.47527 0.36593 0.0
H109 H 0.08918 0.4988 0.39343 0.0
H110 H 0.05896 0.45432 0.48172 0.0
H111 H 0.08029 0.43114 0.45281 0.0
H112 H 0.12481 0.35491 0.23296 0.0
H113 H 0.13009 0.38838 0.25713 0.0
H114 H 0.167 0.33922 0.3585 0.0
H115 H 0.17239 0.37251 0.3806 0.0
H116 H 0.21641 0.46965 0.41834 0.0
H117 H 0.19544 0.51175 0.28236 0.0
H118 H 0.16818 0.49669 0.29267 0.0
H119 H 0.18916 0.4546 0.42767 0.0
C120 C 0.42949 0.57019 0.41368 0.0
C121 C 0.43275 0.55876 0.47062 0.0
C122 C 0.46185 0.55488 0.43633 0.0
C123 C 0.44873 0.55127 0.48216 0.0
C124 C 0.45866 0.56687 0.38052 0.0
C125 C 0.44267 0.57442 0.36914 0.0
U126 U 0.39503 0.60708 0.36732 0.0
O127 O 0.40525 0.63359 0.40915 0.0
O128 O 0.40851 0.62711 0.30138 0.0
C129 C 0.4105 0.63965 0.34982 0.0
C130 C 0.41209 0.5764 0.40013 0.0
C131 C 0.40635 0.65954 0.33243 0.0
C132 C 0.41424 0.69289 0.33271 0.0
C133 C 0.4176 0.67394 0.34965 0.0
C134 C 0.38814 0.68338 0.28138 0.0
C135 C 0.39951 0.69789 0.29755 0.0
C136 C 0.39151 0.6644 0.29852 0.0
C137 C 0.34921 0.59064 0.35781 0.0
C138 C 0.31962 0.58283 0.35849 0.0
C139 C 0.34024 0.55786 0.37072 0.0
C140 C 0.35306 0.57134 0.36638 0.0
C141 C 0.32336 0.56337 0.36619 0.0
C142 C 0.33243 0.59626 0.35414 0.0
C143 C 0.36239 0.60516 0.35285 0.0
O144 O 0.40833 0.58109 0.33733 0.0
O145 O 0.40523 0.58766 0.44522 0.0
O146 O 0.36972 0.60976 0.41006 0.0
O147 O 0.37294 0.60327 0.30231 0.0
H148 H 0.42282 0.55536 0.50588 0.0
H149 H 0.45061 0.54267 0.52705 0.0
H150 H 0.46851 0.57012 0.3447 0.0
H151 H 0.44058 0.58327 0.32491 0.0
H152 H 0.4232 0.70346 0.3481 0.0
H153 H 0.42906 0.6705 0.37633 0.0
H154 H 0.37664 0.68671 0.2549 0.0
H155 H 0.38259 0.65353 0.28506 0.0
H156 H 0.30687 0.5879 0.35696 0.0
H157 H 0.34354 0.54304 0.37733 0.0
H158 H 0.36595 0.56672 0.36971 0.0
H159 H 0.3292 0.61112 0.34819 0.0
C160 C 0.94165 0.95099 0.90121 0.0
C161 C 0.93703 0.96851 0.92901 0.0
C162 C 0.96632 0.97817 0.93487 0.0
C163 C 0.94924 0.98194 0.94564 0.0
C164 C 0.97082 0.96061 0.90586 0.0
C165 C 0.9586 0.94721 0.88942 0.0
U166 U 0.89664 0.93457 0.8656 0.0
O167 O 0.88747 0.91356 0.79224 0.0
O168 O 0.8836 0.9089 0.9011 0.0
C169 C 0.88228 0.90182 0.83976 0.0
C170 C 0.92912 0.93633 0.88525 0.0
C171 C 0.88628 0.88131 0.83184 0.0
C172 C 0.89543 0.85456 0.7625 0.0
C173 C 0.89367 0.87419 0.77238 0.0
C174 C 0.88276 0.84877 0.87179 0.0
C175 C 0.88978 0.84154 0.81191 0.0
C176 C 0.88099 0.86833 0.88157 0.0
C177 C 0.86089 0.97169 0.8666 0.0
C178 C 0.8311 0.96544 0.87594 0.0
C179 C 0.84064 0.99689 0.84539 0.0
C180 C 0.85721 0.99055 0.84906 0.0
C181 C 0.82732 0.98447 0.85982 0.0
C182 C 0.84771 0.95911 0.87943 0.0
C183 C 0.87855 0.96575 0.87272 0.0
O184 O 0.91837 0.93238 0.93357 0.0
O185 O 0.92217 0.9375 0.82499 0.0
O186 O 0.88582 0.96001 0.81672 0.0
O187 O 0.88237 0.95521 0.92572 0.0
H188 H 0.924 0.97176 0.93831 0.0
H189 H 0.9453 0.99529 0.96752 0.0
H190 H 0.98366 0.95699 0.89546 0.0
H191 H 0.96242 0.93379 0.8677 0.0
H192 H 0.90073 0.84983 0.71515 0.0
H193 H 0.89769 0.88373 0.73247 0.0
H194 H 0.87822 0.83921 0.91078 0.0
H195 H 0.87502 0.87329 0.92748 0.0
H196 H 0.82117 0.95547 0.88662 0.0
H197 H 0.83845 1.01147 0.83069 0.0
H198 H 0.8672 1.00045 0.83844 0.0
H199 H 0.85025 0.94444 0.89266 0.0
C200 C 0.59729 0.0913 0.89786 0.0
C201 C 0.60171 0.07372 0.92644 0.0
C202 C 0.57238 0.06417 0.92975 0.0
C203 C 0.58938 0.06033 0.94219 0.0
C204 C 0.56808 0.08176 0.89989 0.0
C205 C 0.58042 0.09515 0.8844 0.0
U206 U 0.64253 0.10672 0.86374 0.0
O207 O 0.65235 0.12777 0.79136 0.0
O208 O 0.65631 0.1317 0.90054 0.0
C209 C 0.65818 0.13883 0.83935 0.0
C210 C 0.61 0.10586 0.88248 0.0
C211 C 0.65544 0.15953 0.83167 0.0
C212 C 0.64049 0.18693 0.78544 0.0
C213 C 0.64175 0.16723 0.79617 0.0
C214 C 0.66638 0.1914 0.84651 0.0
C215 C 0.65293 0.19928 0.81012 0.0
C216 C 0.6676 0.17183 0.85719 0.0
C217 C 0.67739 0.06868 0.8654 0.0
C218 C 0.70723 0.07483 0.87147 0.0
C219 C 0.69741 0.04301 0.84957 0.0
C220 C 0.68089 0.04954 0.85254 0.0
C221 C 0.71086 0.05555 0.85994 0.0
C222 C 0.69068 0.08135 0.87427 0.0
C223 C 0.65981 0.07493 0.87081 0.0
O224 O 0.62078 0.10938 0.9311 0.0
O225 O 0.61699 0.10482 0.82235 0.0
O226 O 0.65282 0.08116 0.81467 0.0
O227 O 0.65608 0.0853 0.92392 0.0
H228 H 0.61468 0.07039 0.93692 0.0
H229 H 0.59317 0.04692 0.96458 0.0
H230 H 0.5553 0.08535 0.88778 0.0
H231 H 0.57676 0.10859 0.8619 0.0
H232 H 0.62999 0.19224 0.75649 0.0
H233 H 0.63221 0.15803 0.77566 0.0
H234 H 0.67617 0.20042 0.86619 0.0
H235 H 0.67832 0.16624 0.88439 0.0
H236 H 0.71725 0.0849 0.87908 0.0
H237 H 0.69944 0.02817 0.83868 0.0
H238 H 0.6708 0.03956 0.84505 0.0
H239 H 0.68826 0.09623 0.88392 0.0
C240 C 0.9409 0.58888 0.58853 0.0
C241 C 0.93855 0.56967 0.60476 0.0
C242 C 0.96594 0.5617 0.55774 0.0
C243 C 0.95095 0.55625 0.58952 0.0
C244 C 0.96805 0.58099 0.54047 0.0
C245 C 0.95568 0.59439 0.55597 0.0
U246 U 0.89594 0.60479 0.62905 0.0
O247 O 0.88699 0.6253 0.70471 0.0
O248 O 0.88241 0.63059 0.59666 0.0
C249 C 0.88121 0.63717 0.65869 0.0
C250 C 0.92828 0.60343 0.60569 0.0
C251 C 0.88544 0.65738 0.66791 0.0
C252 C 0.9054 0.68272 0.6882 0.0
C253 C 0.90193 0.66342 0.67818 0.0
C254 C 0.87599 0.69015 0.67698 0.0
C255 C 0.89247 0.69633 0.68857 0.0
C256 C 0.87256 0.6709 0.66705 0.0
C257 C 0.86064 0.56673 0.63057 0.0
C258 C 0.83459 0.55577 0.57968 0.0
C259 C 0.83893 0.5523 0.70038 0.0
C260 C 0.85467 0.56074 0.69418 0.0
C261 C 0.8287 0.54957 0.64335 0.0
C262 C 0.85035 0.5642 0.57348 0.0
C263 C 0.87814 0.57349 0.62242 0.0
O264 O 0.91718 0.60727 0.55844 0.0
O265 O 0.92172 0.60223 0.66665 0.0
O266 O 0.88604 0.57895 0.67742 0.0
O267 O 0.88138 0.58427 0.56948 0.0
H268 H 0.92719 0.56506 0.62953 0.0
H269 H 0.94882 0.54154 0.60303 0.0
H270 H 0.9791 0.58595 0.51465 0.0
H271 H 0.95768 0.60913 0.54256 0.0
H272 H 0.91822 0.68702 0.69621 0.0
H273 H 0.91208 0.65323 0.67866 0.0
H274 H 0.86567 0.70004 0.67439 0.0
H275 H 0.85976 0.66654 0.65858 0.0
H276 H 0.82742 0.55356 0.53396 0.0
H277 H 0.83485 0.54757 0.75 0.0
H278 H 0.86233 0.56211 0.73916 0.0
H279 H 0.85468 0.56821 0.52345 0.0
C280 C 0.59606 0.45075 0.59666 0.0
C281 C 0.58784 0.45066 0.53364 0.0
C282 C 0.56856 0.47536 0.57132 0.0
C283 C 0.57429 0.46281 0.52097 0.0
C284 C 0.57685 0.47551 0.63413 0.0
C285 C 0.59044 0.46343 0.64668 0.0
U286 U 0.64205 0.4358 0.62789 0.0
O287 O 0.65237 0.41537 0.70162 0.0
O288 O 0.65558 0.41038 0.5928 0.0
C289 C 0.6576 0.40363 0.65452 0.0
C290 C 0.60944 0.43658 0.61108 0.0
C291 C 0.65333 0.38344 0.66466 0.0
C292 C 0.63315 0.35826 0.68433 0.0
C293 C 0.63676 0.3775 0.67332 0.0
C294 C 0.66259 0.35067 0.67732 0.0
C295 C 0.64601 0.34459 0.68732 0.0
C296 C 0.66617 0.36988 0.66638 0.0
C297 C 0.67559 0.47586 0.62199 0.0
C298 C 0.70592 0.47272 0.62293 0.0
C299 C 0.69315 0.5039 0.62485 0.0
C300 C 0.67733 0.49561 0.6239 0.0
C301 C 0.70768 0.49266 0.62427 0.0
C302 C 0.68997 0.46441 0.62183 0.0
C303 C 0.65859 0.46792 0.61791 0.0
O304 O 0.61999 0.43301 0.56164 0.0
O305 O 0.61673 0.43741 0.67076 0.0
O306 O 0.65201 0.46174 0.67486 0.0
O307 O 0.6554 0.45691 0.56593 0.0
H308 H 0.59165 0.44082 0.49451 0.0
H309 H 0.56803 0.46177 0.47257 0.0
H310 H 0.57266 0.48488 0.67412 0.0
H311 H 0.59631 0.4638 0.69613 0.0
H312 H 0.62025 0.35405 0.6911 0.0
H313 H 0.62664 0.38774 0.67183 0.0
H314 H 0.67287 0.3407 0.67691 0.0
H315 H 0.67904 0.37415 0.65921 0.0
H316 H 0.7167 0.46348 0.62126 0.0
H317 H 0.69402 0.51924 0.6257 0.0
H318 H 0.66639 0.50471 0.62387 0.0
H319 H 0.68888 0.44911 0.62 0.0
H320 H 0.15013 0.21993 0.28417 0.0
C321 C 0.14719 0.21684 0.23153 0.0
H322 H 0.14077 0.22935 0.13706 0.0
H323 H 0.128 0.29925 0.35971 0.0
H324 H 0.10558 0.27975 0.40376 0.0
H325 H 0.10076 0.24757 0.35947 0.0
H326 H 0.11853 0.23454 0.27164 0.0
C327 C 0.14376 0.23161 0.18998 0.0
C328 C 0.14554 0.25173 0.21311 0.0
C329 C 0.13464 0.25946 0.26268 0.0
C330 C 0.13699 0.27838 0.28623 0.0
C331 C 0.12646 0.28528 0.33825 0.0
C332 C 0.11358 0.27419 0.36428 0.0
C333 C 0.11089 0.25604 0.3395 0.0
C334 C 0.12125 0.24869 0.28932 0.0
H335 H 0.13079 0.32098 0.24613 0.0
C336 C 0.14232 0.32399 0.27315 0.0
H337 H 0.16512 0.31191 0.30718 0.0
H338 H 0.1684 0.24165 0.11655 0.0
H339 H 0.19 0.26163 0.06869 0.0
H340 H 0.19334 0.29474 0.10603 0.0
H341 H 0.17516 0.30807 0.19177 0.0
C342 C 0.15302 0.30945 0.28435 0.0
C343 C 0.14984 0.28985 0.25836 0.0
C344 C 0.1604 0.28229 0.20735 0.0
C345 C 0.15829 0.26325 0.18493 0.0
C346 C 0.16927 0.25606 0.13487 0.0
C347 C 0.18176 0.26736 0.10699 0.0
C348 C 0.18365 0.286 0.12809 0.0
C349 C 0.17315 0.29345 0.17758 0.0
H350 H 0.41181 0.8217 0.22122 0.0
C351 C 0.39908 0.82475 0.20516 0.0
H352 H 0.37522 0.81242 0.1896 0.0
H353 H 0.4025 0.72891 0.14874 0.0
H354 H 0.39634 0.73763 0.03238 0.0
H355 H 0.38854 0.77049 0.00226 0.0
H356 H 0.38695 0.79489 0.08835 0.0
C357 C 0.38807 0.81028 0.20501 0.0
C358 C 0.39305 0.79045 0.22383 0.0
C359 C 0.39361 0.77621 0.17327 0.0
C360 C 0.3979 0.75715 0.19083 0.0
C361 C 0.39894 0.74347 0.13868 0.0
C362 C 0.39552 0.7483 0.07153 0.0
C363 C 0.39114 0.76681 0.05456 0.0
C364 C 0.39023 0.78066 0.10454 0.0
H365 H 0.38269 0.72086 0.26079 0.0
C366 C 0.39536 0.71792 0.27789 0.0
H367 H 0.41914 0.73031 0.29452 0.0
H368 H 0.39192 0.81378 0.33438 0.0
H369 H 0.39803 0.80505 0.45076 0.0
H370 H 0.40581 0.77219 0.48091 0.0
H371 H 0.4074 0.74779 0.39485 0.0
C372 C 0.40634 0.73242 0.27823 0.0
C373 C 0.40136 0.75224 0.25929 0.0
C374 C 0.40079 0.76648 0.30986 0.0
C375 C 0.39651 0.78553 0.29229 0.0
C376 C 0.39547 0.79922 0.34445 0.0
C377 C 0.39886 0.79438 0.41161 0.0
C378 C 0.40323 0.77588 0.4286 0.0
C379 C 0.40415 0.76202 0.37862 0.0
H380 H 0.88315 0.81195 0.839 0.0
C381 C 0.88997 0.82047 0.80221 0.0
H382 H 0.90435 0.81898 0.71209 0.0
H383 H 0.90361 0.72947 0.82697 0.0
H384 H 0.92024 0.74116 0.9206 0.0
H385 H 0.92621 0.77531 0.93188 0.0
H386 H 0.91537 0.79804 0.85014 0.0
C387 C 0.89754 0.81128 0.75077 0.0
C388 C 0.89543 0.79035 0.74109 0.0
C389 C 0.90233 0.77713 0.78802 0.0
C390 C 0.89936 0.7573 0.78017 0.0
C391 C 0.90581 0.74458 0.82945 0.0
C392 C 0.91534 0.75111 0.88359 0.0
C393 C 0.91867 0.77034 0.89004 0.0
C394 C 0.91229 0.78326 0.84296 0.0
H395 H 0.9096 0.72108 0.69186 0.0
C396 C 0.89669 0.71679 0.69907 0.0
H397 H 0.87255 0.72644 0.7269 0.0
H398 H 0.88105 0.81156 0.63998 0.0
H399 H 0.86546 0.79974 0.54378 0.0
H400 H 0.861 0.76541 0.52864 0.0
H401 H 0.87207 0.74267 0.60981 0.0
C402 C 0.88551 0.7301 0.71819 0.0
C403 C 0.88991 0.75063 0.7243 0.0
C404 C 0.88355 0.7638 0.6761 0.0
C405 C 0.88631 0.78362 0.68444 0.0
C406 C 0.87952 0.79637 0.6359 0.0
C407 C 0.87051 0.78978 0.58043 0.0
C408 C 0.86798 0.77045 0.57195 0.0
C409 C 0.87438 0.75755 0.61904 0.0
H410 H 0.62868 0.32002 0.69187 0.0
C411 C 0.64161 0.32421 0.69921 0.0
H412 H 0.66533 0.31475 0.73309 0.0
H413 H 0.64114 0.24325 0.89573 0.0
H414 H 0.64661 0.26504 0.98773 0.0
H415 H 0.65266 0.29875 0.96474 0.0
H416 H 0.65311 0.31092 0.84956 0.0
C417 C 0.65262 0.31089 0.72028 0.0
C418 C 0.6477 0.29074 0.73369 0.0
C419 C 0.64773 0.2837 0.8012 0.0
C420 C 0.64457 0.26414 0.8144 0.0
C421 C 0.64405 0.25778 0.88258 0.0
C422 C 0.64702 0.27018 0.93597 0.0
C423 C 0.6504 0.28917 0.92303 0.0
C424 C 0.6507 0.29595 0.85661 0.0
H425 H 0.66438 0.22782 0.8101 0.0
C426 C 0.65298 0.22024 0.7975 0.0
H427 H 0.62846 0.22379 0.75856 0.0
H428 H 0.64664 0.29931 0.59816 0.0
H429 H 0.6406 0.27764 0.50648 0.0
H430 H 0.63498 0.24384 0.5294 0.0
H431 H 0.63544 0.23146 0.64423 0.0
C432 C 0.6401 0.23052 0.77263 0.0
C433 C 0.64179 0.25143 0.75992 0.0
C434 C 0.64108 0.25861 0.69262 0.0
C435 C 0.64414 0.27822 0.67942 0.0
C436 C 0.64405 0.28471 0.61139 0.0
C437 C 0.64069 0.27239 0.55813 0.0
C438 C 0.63754 0.25335 0.57103 0.0
C439 C 0.6378 0.24644 0.63728 0.0
H440 H 0.30024 0.98102 0.10933 0.0
C441 C 0.3097 0.99195 0.11467 0.0
H442 H 0.31346 0.02166 0.12062 0.0
H443 H 0.24448 0.04655 -0.00369 0.0
H444 H 0.26356 0.05534 0.90634 0.0
H445 H 0.29326 0.04606 0.91147 0.0
H446 H 0.30404 0.02785 0.00645 0.0
C447 C 0.30453 1.01015 0.11963 0.0
C448 C 0.28644 1.01554 0.11702 0.0
C449 C 0.28033 0.02647 0.06161 0.0
C450 C 0.26319 0.032 0.05894 0.0
C451 C 0.2574 0.04234 0.0018 0.0
C452 C 0.26821 0.04739 0.94952 0.0
C453 C 0.28493 0.04216 0.95239 0.0
C454 C 0.29097 0.03176 0.00743 0.0
H455 H 0.238 0.061 0.12434 0.0
C456 C 0.22867 0.05 0.11742 0.0
H457 H 0.22534 0.02047 0.1014 0.0
H458 H 0.29419 0.99632 0.23409 0.0
H459 H 0.27505 0.98744 0.3237 0.0
H460 H 0.24526 0.9963 0.31752 0.0
H461 H 0.23447 1.01428 0.22186 0.0
C462 C 0.23406 0.03199 0.10896 0.0
C463 C 0.25217 0.02681 0.11213 0.0
C464 C 0.25827 1.0159 0.16754 0.0
C465 C 0.27543 1.01046 0.17045 0.0
C466 C 0.28123 1.00032 0.22805 0.0
C467 C 0.27039 0.99525 0.28019 0.0
C468 C 0.25362 1.00025 0.27676 0.0
C469 C 0.24758 1.01053 0.22142 0.0
H470 H 0.31357 0.5348 0.39259 0.0
C471 C 0.31007 0.54858 0.3719 0.0
H472 H 0.29039 0.5642 0.32618 0.0
H473 H 0.24586 0.49514 0.24185 0.0
H474 H 0.25787 0.50375 0.13326 0.0
H475 H 0.28062 0.52718 0.12589 0.0
H476 H 0.2916 0.54201 0.22719 0.0
C477 C 0.29412 0.5512 0.35171 0.0
C478 C 0.28118 0.53601 0.35742 0.0
C479 C 0.27469 0.52763 0.29774 0.0
C480 C 0.26133 0.51436 0.30187 0.0
C481 C 0.25558 0.50575 0.24152 0.0
C482 C 0.26246 0.51045 0.17886 0.0
C483 C 0.27528 0.52362 0.17472 0.0
C484 C 0.28142 0.53209 0.23326 0.0
H485 H 0.2239 0.51638 0.31764 0.0
C486 C 0.2243 0.50282 0.34422 0.0
H487 H 0.24033 0.48401 0.39807 0.0
H488 H 0.29045 0.54938 0.48209 0.0
H489 H 0.27882 0.54026 0.59066 0.0
H490 H 0.25589 0.51708 0.59784 0.0
H491 H 0.24438 0.50294 0.49635 0.0
C492 C 0.23912 0.49722 0.37014 0.0
C493 C 0.25417 0.50975 0.36566 0.0
C494 C 0.26109 0.51756 0.42558 0.0
C495 C 0.2745 0.53079 0.42149 0.0
C496 C 0.28059 0.53896 0.4821 0.0
C497 C 0.27395 0.53393 0.54487 0.0
C498 C 0.26103 0.52089 0.54891 0.0
C499 C 0.25456 0.51284 0.49018 0.0
H500 H 0.73826 0.06023 0.85693 0.0
C501 C 0.72874 0.04926 0.85862 0.0
H502 H 0.72496 1.01948 0.86393 0.0
H503 H 0.7952 0.99845 0.73718 0.0
H504 H 0.77709 0.99249 0.64126 0.0
H505 H 0.74731 1.00145 0.64456 0.0
H506 H 0.73548 1.01663 0.7437 0.0
C507 C 0.73385 0.03101 0.86185 0.0
C508 C 0.75194 0.02566 0.86054 0.0
C509 C 0.75863 1.01638 0.80291 0.0
C510 C 0.77578 1.01088 0.80152 0.0
C511 C 0.78221 1.00242 0.74197 0.0
C512 C 0.77196 0.99902 0.68625 0.0
C513 C 0.7552 1.00409 0.68807 0.0
C514 C 0.74856 1.01274 0.74542 0.0
H515 H 0.79993 0.97961 0.85799 0.0
C516 C 0.80942 0.99062 0.85765 0.0
H517 H 0.81322 1.02034 0.86174 0.0
H518 H 0.74296 0.04187 0.98109 0.0
H519 H 0.761 0.04771 0.07734 0.0
H520 H 0.79069 0.03836 0.07481 0.0
H521 H 0.80252 0.02301 0.97612 0.0
C522 C 0.80429 1.00889 0.85744 0.0
C523 C 0.78619 1.01427 0.8585 0.0
C524 C 0.77947 0.02352 0.91619 0.0
C525 C 0.76234 0.0291 0.91742 0.0
C526 C 0.75592 0.03772 0.97669 0.0
C527 C 0.76612 0.04107 0.03254 0.0
C528 C 0.78284 0.03579 0.03114 0.0
C529 C 0.78948 0.02705 0.97397 0.0
H530 H 0.72403 0.5177 0.61162 0.0
C531 C 0.72416 0.50255 0.62264 0.0
H532 H 0.74004 0.47928 0.64605 0.0
H533 H 0.80437 0.51527 0.5116 0.0
H534 H 0.79844 0.4895 0.43441 0.0
H535 H 0.77257 0.47085 0.44537 0.0
H536 H 0.7525 0.47777 0.53388 0.0
C537 C 0.73908 0.49433 0.63507 0.0
C538 C 0.75496 0.50545 0.6301 0.0
C539 C 0.76658 0.5013 0.57796 0.0
C540 C 0.78141 0.51226 0.57102 0.0
C541 C 0.79281 0.50761 0.51873 0.0
C542 C 0.78959 0.49281 0.47411 0.0
C543 C 0.77503 0.4823 0.48033 0.0
C544 C 0.76362 0.48642 0.53148 0.0
H545 H 0.81082 0.53125 0.69892 0.0
C546 C 0.81255 0.53923 0.65215 0.0
H547 H 0.80112 0.54702 0.55913 0.0
H548 H 0.73664 0.51562 0.74137 0.0
H549 H 0.74208 0.54202 0.81645 0.0
H550 H 0.7666 0.56256 0.79907 0.0
H551 H 0.78601 0.5566 0.70743 0.0
C552 C 0.80002 0.53923 0.60641 0.0
C553 C 0.78464 0.52747 0.61602 0.0
C554 C 0.77303 0.53162 0.66833 0.0
C555 C 0.75841 0.52033 0.67633 0.0
C556 C 0.74754 0.52419 0.73121 0.0
C557 C 0.75058 0.53923 0.77499 0.0
C558 C 0.76441 0.55075 0.76537 0.0
C559 C 0.77553 0.54708 0.71274 0.0
H560 H 0.97402 1.00643 0.9728 0.0
C561 C 0.97883 0.99292 0.95473 0.0
H562 H 1.00117 0.97756 0.93489 0.0
H563 H 0.04684 0.04994 0.90264 0.0
H564 H 0.04383 0.04063 0.78518 0.0
H565 H 0.02419 1.01538 0.75257 0.0
H566 H 1.00734 0.99935 0.83725 0.0
C567 C 0.99557 0.99055 0.95326 0.0
C568 C 1.0073 1.00599 0.97366 0.0
C569 C 1.01733 1.01501 0.92385 0.0
C570 C 0.02884 0.02944 0.94281 0.0
C571 C 0.03821 0.03862 0.89146 0.0
C572 C 0.03654 0.03348 0.8237 0.0
C573 C 0.02547 1.01927 0.80533 0.0
C574 C 1.01591 1.01015 0.85451 0.0
H575 H 0.06383 0.03413 0.01315 0.0
C576 C 0.05902 0.04763 0.03138 0.0
H577 H 0.03672 0.06313 0.05027 0.0
H578 H 0.99105 0.99067 0.08299 0.0
H579 H 0.99405 0.99999 0.20041 0.0
H580 H 1.01365 0.02529 0.23297 0.0
H581 H 0.03048 0.04133 0.14826 0.0
C582 C 0.04229 0.05008 0.03232 0.0
C583 C 0.03054 0.03466 0.01187 0.0
C584 C 0.02051 0.02564 0.06169 0.0
C585 C 1.009 1.01121 0.04274 0.0
C586 C 0.99966 1.00201 0.09412 0.0
C587 C 1.00133 1.00716 0.16187 0.0
C588 C 1.01238 0.02139 0.18021 0.0
C589 C 0.02192 0.03052 0.13101 0.0
H590 H 0.47445 1.00915 0.01327 0.0
C591 C 0.47927 0.99547 0.03012 0.0
H592 H 0.50143 0.97932 0.04341 0.0
H593 H 0.54682 0.02788 0.84923 0.0
H594 H 0.54358 0.99904 0.78442 0.0
H595 H 0.52402 0.97411 0.82143 0.0
H596 H 0.50748 0.97796 0.92328 0.0
C597 C 0.496 0.99301 0.03109 0.0
C598 C 0.50781 1.0083 0.00923 0.0
C599 C 0.51768 1.00574 0.9502 0.0
C600 C 0.52919 1.02002 0.92938 0.0
C601 C 0.5383 1.01732 0.86864 0.0
C602 C 0.53646 1.00086 0.83057 0.0
C603 C 0.52544 0.98684 0.85137 0.0
C604 C 0.51606 0.98921 0.91017 0.0
H605 H 0.56441 0.03557 0.96433 0.0
C606 C 0.55974 0.04937 0.94799 0.0
H607 H 0.53768 0.06572 0.93458 0.0
H608 H 0.49206 1.01721 0.12827 0.0
H609 H 0.49529 0.04606 0.19304 0.0
H610 H 0.51486 0.07097 0.15604 0.0
H611 H 0.53142 0.06712 0.05424 0.0
C612 C 0.54302 0.05199 0.94683 0.0
C613 C 0.53111 0.03676 0.96836 0.0
C614 C 0.52122 0.03934 0.02733 0.0
C615 C 0.5097 0.02506 0.04815 0.0
C616 C 0.50059 0.02777 0.10886 0.0
C617 C 0.50242 0.04422 0.14691 0.0
C618 C 0.51345 0.05824 0.12612 0.0
C619 C 0.52283 0.05587 0.06735 0.0
H620 H 0.97528 0.53206 0.55159 0.0
C621 C 0.97878 0.54677 0.543 0.0
H622 H 0.99893 0.56467 0.51525 0.0
H623 H 0.05649 0.50645 0.58095 0.0
H624 H 0.06007 0.52938 0.67076 0.0
H625 H 0.03946 0.55497 0.68803 0.0
H626 H 1.01507 0.5577 0.61587 0.0
C627 C 0.99445 0.55027 0.52104 0.0
C628 C 1.00688 0.53468 0.50969 0.0
C629 C 0.0213 0.53345 0.55142 0.0
C630 C 0.03336 0.51883 0.54074 0.0
C631 C 0.04721 0.51755 0.58524 0.0
C632 C 0.04937 0.53055 0.63744 0.0
C633 C 0.03776 0.54495 0.64722 0.0
C634 C 0.02383 0.54639 0.60517 0.0
H635 H 0.06278 0.50825 0.44533 0.0
C636 C 0.05928 0.49354 0.45386 0.0
H637 H 0.03915 0.47563 0.48172 0.0
H638 H 0.9816 0.53387 0.416 0.0
H639 H 0.97802 0.51095 0.32619 0.0
H640 H 0.99862 0.48535 0.30895 0.0
H641 H 0.02301 0.48261 0.38114 0.0
C642 C 0.04363 0.49003 0.47596 0.0
C643 C 0.03119 0.50562 0.48734 0.0
C644 C 1.01678 0.50686 0.4456 0.0
C645 C 1.00472 0.52148 0.45628 0.0
C646 C 0.99087 0.52277 0.41174 0.0
C647 C 0.98872 0.50977 0.35953 0.0
C648 C 1.00033 0.49537 0.34977 0.0
C649 C 1.01425 0.49392 0.39184 0.0
H650 H 0.48893 0.55217 0.41347 0.0
C651 C 0.47891 0.5464 0.44445 0.0
H652 H 0.4726 0.52433 0.51288 0.0
H653 H 0.52963 0.4671 0.4439 0.0
H654 H 0.50578 0.45186 0.39209 0.0
H655 H 0.4788 0.4686 0.38177 0.0
H656 H 0.47547 0.50067 0.42357 0.0
C657 C 0.48243 0.5314 0.48484 0.0
C658 C 0.49928 0.52216 0.48622 0.0
C659 C 0.50115 0.50348 0.46067 0.0
C660 C 0.51682 0.49393 0.46556 0.0
C661 C 0.51813 0.47515 0.44071 0.0
C662 C 0.50452 0.46619 0.41094 0.0
C663 C 0.48932 0.47561 0.40523 0.0
C664 C 0.48758 0.49401 0.42968 0.0
H665 H 0.54707 0.49242 0.60773 0.0
C666 C 0.55337 0.48749 0.56222 0.0
H667 H 0.55296 0.48818 0.45491 0.0
H668 H 0.49999 0.55744 0.54374 0.0
H669 H 0.52419 0.57328 0.59049 0.0
H670 H 0.55175 0.55756 0.5919 0.0
H671 H 0.55522 0.52575 0.5477 0.0
C672 C 0.54698 0.49264 0.50155 0.0
C673 C 0.53072 0.50307 0.49564 0.0
C674 C 0.52901 0.52199 0.51924 0.0
C675 C 0.51322 0.53139 0.51573 0.0
C676 C 0.51175 0.54987 0.54296 0.0
C677 C 0.52553 0.55911 0.57027 0.0
C678 C 0.54104 0.55023 0.57126 0.0
C679 C 0.54284 0.53191 0.5461 0.0
loop_
_geom_bond_atom_site_label_1
_geom_bond_atom_site_label_2
_geom_bond_distance
_geom_bond_site_symmetry_2
_ccdc_geom_bond_type
C0 C1 1.264 . S
C0 C5 1.479 . S
C0 C10 1.465 . S
C1 C0 1.264 . S
C1 C3 1.339 . S
C1 H28 0.931 . S
C2 C3 1.395 . S
C2 C4 1.320 . S
C3 C1 1.339 . S
C3 C2 1.395 . S
C3 H29 0.929 . S
C4 C2 1.320 . S
C4 C5 1.405 . S
C4 H30 0.930 . S
C5 C0 1.479 . S
C5 C4 1.405 . S
C5 H31 0.931 . S
U6 O7 2.454 . S
U6 O8 2.458 . S
U6 C9 2.984 . S
U6 C10 2.847 . S
U6 C23 2.882 . S
U6 O24 2.441 . S
U6 O25 2.420 . S
U6 O26 2.455 . S
U6 O27 2.449 . S
O7 U6 2.454 . S
O7 C9 1.353 . S
O8 U6 2.458 . S
O8 C9 1.286 . S
C9 U6 2.984 . S
C9 O7 1.353 . S
C9 O8 1.286 . S
C9 C11 1.363 . S
C10 C0 1.465 . S
C10 U6 2.847 . S
C10 O24 1.249 . S
C10 O25 1.202 . S
C11 C9 1.363 . S
C11 C13 1.408 . S
C11 C16 1.342 . S
C12 C13 1.310 . S
C12 C15 1.461 . S
C12 H32 0.932 . S
C13 C11 1.408 . S
C13 C12 1.310 . S
C13 H33 0.930 . S
C14 C15 1.474 . S
C14 C16 1.285 . S
C14 H34 0.929 . S
C15 C12 1.461 . S
C15 C14 1.474 . S
C16 C11 1.342 . S
C16 C14 1.285 . S
C16 H35 0.930 . S
C17 C20 1.424 . S
C17 C22 1.245 . S
C17 C23 1.428 . S
C18 C21 1.260 . S
C18 C22 1.477 . S
C18 H36 0.932 . S
C19 C20 1.384 . S
C19 C21 1.479 . S
C19 H37 0.929 . S
C20 C17 1.424 . S
C20 C19 1.384 . S
C20 H38 0.928 . S
C21 C18 1.260 . S
C21 C19 1.479 . S
C22 C17 1.245 . S
C22 C18 1.477 . S
C22 H39 0.932 . S
C23 U6 2.882 . S
C23 C17 1.428 . S
C23 O26 1.301 . S
C23 O27 1.282 . S
O24 U6 2.441 . S
O24 C10 1.249 . S
O25 U6 2.420 . S
O25 C10 1.202 . S
O26 U6 2.455 . S
O26 C23 1.301 . S
O27 U6 2.449 . S
O27 C23 1.282 . S
H28 C1 0.931 . S
H29 C3 0.929 . S
H30 C4 0.930 . S
H31 C5 0.931 . S
H32 C12 0.932 . S
H33 C13 0.930 . S
H34 C14 0.929 . S
H35 C16 0.930 . S
H36 C18 0.932 . S
H37 C19 0.929 . S
H38 C20 0.928 . S
H39 C22 0.932 . S
C40 C41 1.264 . S
C40 C45 1.479 . S
C40 C50 1.465 . S
C41 C40 1.264 . S
C41 C43 1.339 . S
C41 H68 0.931 . S
C42 C43 1.395 . S
C42 C44 1.320 . S
C43 C41 1.339 . S
C43 C42 1.395 . S
C43 H69 0.929 . S
C44 C42 1.320 . S
C44 C45 1.405 . S
C44 H70 0.930 . S
C45 C40 1.479 . S
C45 C44 1.405 . S
C45 H71 0.931 . S
U46 O47 2.454 . S
U46 O48 2.458 . S
U46 C49 2.984 . S
U46 C50 2.847 . S
U46 C63 2.882 . S
U46 O64 2.441 . S
U46 O65 2.420 . S
U46 O66 2.455 . S
U46 O67 2.449 . S
O47 U46 2.454 . S
O47 C49 1.353 . S
O48 U46 2.458 . S
O48 C49 1.286 . S
C49 U46 2.984 . S
C49 O47 1.353 . S
C49 O48 1.286 . S
C49 C51 1.363 . S
C50 C40 1.465 . S
C50 U46 2.847 . S
C50 O64 1.249 . S
C50 O65 1.202 . S
C51 C49 1.363 . S
C51 C53 1.408 . S
C51 C56 1.342 . S
C52 C53 1.310 . S
C52 C55 1.461 . S
C52 H72 0.932 . S
C53 C51 1.408 . S
C53 C52 1.310 . S
C53 H73 0.930 . S
C54 C55 1.474 . S
C54 C56 1.285 . S
C54 H74 0.929 . S
C55 C52 1.461 . S
C55 C54 1.474 . S
C56 C51 1.342 . S
C56 C54 1.285 . S
C56 H75 0.930 . S
C57 C60 1.424 . S
C57 C62 1.245 . S
C57 C63 1.428 . S
C58 C61 1.260 . S
C58 C62 1.477 . S
C58 H76 0.932 . S
C59 C60 1.384 . S
C59 C61 1.479 . S
C59 H77 0.929 . S
C60 C57 1.424 . S
C60 C59 1.384 . S
C60 H78 0.928 . S
C61 C58 1.260 . S
C61 C59 1.479 . S
C62 C57 1.245 . S
C62 C58 1.477 . S
C62 H79 0.932 . S
C63 U46 2.882 . S
C63 C57 1.428 . S
C63 O66 1.301 . S
C63 O67 1.282 . S
O64 U46 2.441 . S
O64 C50 1.249 . S
O65 U46 2.420 . S
O65 C50 1.202 . S
O66 U46 2.455 . S
O66 C63 1.301 . S
O67 U46 2.449 . S
O67 C63 1.282 . S
H68 C41 0.931 . S
H69 C43 0.929 . S
H70 C44 0.930 . S
H71 C45 0.931 . S
H72 C52 0.932 . S
H73 C53 0.930 . S
H74 C54 0.929 . S
H75 C56 0.930 . S
H76 C58 0.932 . S
H77 C59 0.929 . S
H78 C60 0.928 . S
H79 C62 0.932 . S
C80 C81 1.264 . S
C80 C85 1.479 . S
C80 C90 1.465 . S
C81 C80 1.264 . S
C81 C83 1.339 . S
C81 H108 0.931 . S
C82 C83 1.395 . S
C82 C84 1.320 . S
C83 C81 1.339 . S
C83 C82 1.395 . S
C83 H109 0.929 . S
C84 C82 1.320 . S
C84 C85 1.405 . S
C84 H110 0.930 . S
C85 C80 1.479 . S
C85 C84 1.405 . S
C85 H111 0.931 . S
U86 O87 2.454 . S
U86 O88 2.458 . S
U86 C89 2.984 . S
U86 C90 2.847 . S
U86 C103 2.882 . S
U86 O104 2.441 . S
U86 O105 2.420 . S
U86 O106 2.455 . S
U86 O107 2.449 . S
O87 U86 2.454 . S
O87 C89 1.353 . S
O88 U86 2.458 . S
O88 C89 1.286 . S
C89 U86 2.984 . S
C89 O87 1.353 . S
C89 O88 1.286 . S
C89 C91 1.363 . S
C90 C80 1.465 . S
C90 U86 2.847 . S
C90 O104 1.249 . S
C90 O105 1.202 . S
C91 C89 1.363 . S
C91 C93 1.408 . S
C91 C96 1.342 . S
C92 C93 1.310 . S
C92 C95 1.461 . S
C92 H112 0.932 . S
C93 C91 1.408 . S
C93 C92 1.310 . S
C93 H113 0.930 . S
C94 C95 1.474 . S
C94 C96 1.285 . S
C94 H114 0.929 . S
C95 C92 1.461 . S
C95 C94 1.474 . S
C96 C91 1.342 . S
C96 C94 1.285 . S
C96 H115 0.930 . S
C97 C100 1.424 . S
C97 C102 1.245 . S
C97 C103 1.428 . S
C98 C101 1.260 . S
C98 C102 1.477 . S
C98 H116 0.932 . S
C99 C100 1.384 . S
C99 C101 1.479 . S
C99 H117 0.929 . S
C100 C97 1.424 . S
C100 C99 1.384 . S
C100 H118 0.928 . S
C101 C98 1.260 . S
C101 C99 1.479 . S
C102 C97 1.245 . S
C102 C98 1.477 . S
C102 H119 0.932 . S
C103 U86 2.882 . S
C103 C97 1.428 . S
C103 O106 1.301 . S
C103 O107 1.282 . S
O104 U86 2.441 . S
O104 C90 1.249 . S
O105 U86 2.420 . S
O105 C90 1.202 . S
O106 U86 2.455 . S
O106 C103 1.301 . S
O107 U86 2.449 . S
O107 C103 1.282 . S
H108 C81 0.931 . S
H109 C83 0.929 . S
H110 C84 0.930 . S
H111 C85 0.931 . S
H112 C92 0.932 . S
H113 C93 0.930 . S
H114 C94 0.929 . S
H115 C96 0.930 . S
H116 C98 0.932 . S
H117 C99 0.929 . S
H118 C100 0.928 . S
H119 C102 0.932 . S
C120 C121 1.264 . S
C120 C125 1.479 . S
C120 C130 1.465 . S
C121 C120 1.264 . S
C121 C123 1.339 . S
C121 H148 0.931 . S
C122 C123 1.395 . S
C122 C124 1.320 . S
C123 C121 1.339 . S
C123 C122 1.395 . S
C123 H149 0.929 . S
C124 C122 1.320 . S
C124 C125 1.405 . S
C124 H150 0.930 . S
C125 C120 1.479 . S
C125 C124 1.405 . S
C125 H151 0.931 . S
U126 O127 2.454 . S
U126 O128 2.458 . S
U126 C129 2.984 . S
U126 C130 2.847 . S
U126 C143 2.882 . S
U126 O144 2.441 . S
U126 O145 2.420 . S
U126 O146 2.455 . S
U126 O147 2.449 . S
O127 U126 2.454 . S
O127 C129 1.353 . S
O128 U126 2.458 . S
O128 C129 1.286 . S
C129 U126 2.984 . S
C129 O127 1.353 . S
C129 O128 1.286 . S
C129 C131 1.363 . S
C130 C120 1.465 . S
C130 U126 2.847 . S
C130 O144 1.249 . S
C130 O145 1.202 . S
C131 C129 1.363 . S
C131 C133 1.408 . S
C131 C136 1.342 . S
C132 C133 1.310 . S
C132 C135 1.461 . S
C132 H152 0.932 . S
C133 C131 1.408 . S
C133 C132 1.310 . S
C133 H153 0.930 . S
C134 C135 1.474 . S
C134 C136 1.285 . S
C134 H154 0.929 . S
C135 C132 1.461 . S
C135 C134 1.474 . S
C136 C131 1.342 . S
C136 C134 1.285 . S
C136 H155 0.930 . S
C137 C140 1.424 . S
C137 C142 1.245 . S
C137 C143 1.428 . S
C138 C141 1.260 . S
C138 C142 1.477 . S
C138 H156 0.932 . S
C139 C140 1.384 . S
C139 C141 1.479 . S
C139 H157 0.929 . S
C140 C137 1.424 . S
C140 C139 1.384 . S
C140 H158 0.928 . S
C141 C138 1.260 . S
C141 C139 1.479 . S
C142 C137 1.245 . S
C142 C138 1.477 . S
C142 H159 0.932 . S
C143 U126 2.882 . S
C143 C137 1.428 . S
C143 O146 1.301 . S
C143 O147 1.282 . S
O144 U126 2.441 . S
O144 C130 1.249 . S
O145 U126 2.420 . S
O145 C130 1.202 . S
O146 U126 2.455 . S
O146 C143 1.301 . S
O147 U126 2.449 . S
O147 C143 1.282 . S
H148 C121 0.931 . S
H149 C123 0.929 . S
H150 C124 0.930 . S
H151 C125 0.931 . S
H152 C132 0.932 . S
H153 C133 0.930 . S
H154 C134 0.929 . S
H155 C136 0.930 . S
H156 C138 0.932 . S
H157 C139 0.929 . S
H158 C140 0.928 . S
H159 C142 0.932 . S
C160 C161 1.264 . S
C160 C165 1.479 . S
C160 C170 1.465 . S
C161 C160 1.264 . S
C161 C163 1.339 . S
C161 H188 0.931 . S
C162 C163 1.395 . S
C162 C164 1.320 . S
C163 C161 1.339 . S
C163 C162 1.395 . S
C163 H189 0.929 . S
C164 C162 1.320 . S
C164 C165 1.405 . S
C164 H190 0.930 . S
C165 C160 1.479 . S
C165 C164 1.405 . S
C165 H191 0.931 . S
U166 O167 2.454 . S
U166 O168 2.458 . S
U166 C169 2.984 . S
U166 C170 2.847 . S
U166 C183 2.882 . S
U166 O184 2.441 . S
U166 O185 2.420 . S
U166 O186 2.455 . S
U166 O187 2.449 . S
O167 U166 2.454 . S
O167 C169 1.353 . S
O168 U166 2.458 . S
O168 C169 1.286 . S
C169 U166 2.984 . S
C169 O167 1.353 . S
C169 O168 1.286 . S
C169 C171 1.363 . S
C170 C160 1.465 . S
C170 U166 2.847 . S
C170 O184 1.249 . S
C170 O185 1.202 . S
C171 C169 1.363 . S
C171 C173 1.408 . S
C171 C176 1.342 . S
C172 C173 1.310 . S
C172 C175 1.461 . S
C172 H192 0.932 . S
C173 C171 1.408 . S
C173 C172 1.310 . S
C173 H193 0.930 . S
C174 C175 1.474 . S
C174 C176 1.285 . S
C174 H194 0.929 . S
C175 C172 1.461 . S
C175 C174 1.474 . S
C176 C171 1.342 . S
C176 C174 1.285 . S
C176 H195 0.930 . S
C177 C180 1.424 . S
C177 C182 1.245 . S
C177 C183 1.428 . S
C178 C181 1.260 . S
C178 C182 1.477 . S
C178 H196 0.932 . S
C179 C180 1.384 . S
C179 C181 1.479 . S
C179 H197 0.929 . S
C180 C177 1.424 . S
C180 C179 1.384 . S
C180 H198 0.928 . S
C181 C178 1.260 . S
C181 C179 1.479 . S
C182 C177 1.245 . S
C182 C178 1.477 . S
C182 H199 0.932 . S
C183 U166 2.882 . S
C183 C177 1.428 . S
C183 O186 1.301 . S
C183 O187 1.282 . S
O184 U166 2.441 . S
O184 C170 1.249 . S
O185 U166 2.420 . S
O185 C170 1.202 . S
O186 U166 2.455 . S
O186 C183 1.301 . S
O187 U166 2.449 . S
O187 C183 1.282 . S
H188 C161 0.931 . S
H189 C163 0.929 . S
H190 C164 0.930 . S
H191 C165 0.931 . S
H192 C172 0.932 . S
H193 C173 0.930 . S
H194 C174 0.929 . S
H195 C176 0.930 . S
H196 C178 0.932 . S
H197 C179 0.929 . S
H198 C180 0.928 . S
H199 C182 0.932 . S
C200 C201 1.264 . S
C200 C205 1.479 . S
C200 C210 1.465 . S
C201 C200 1.264 . S
C201 C203 1.339 . S
C201 H228 0.931 . S
C202 C203 1.395 . S
C202 C204 1.320 . S
C203 C201 1.339 . S
C203 C202 1.395 . S
C203 H229 0.929 . S
C204 C202 1.320 . S
C204 C205 1.405 . S
C204 H230 0.930 . S
C205 C200 1.479 . S
C205 C204 1.405 . S
C205 H231 0.931 . S
U206 O207 2.454 . S
U206 O208 2.458 . S
U206 C209 2.984 . S
U206 C210 2.847 . S
U206 C223 2.882 . S
U206 O224 2.441 . S
U206 O225 2.420 . S
U206 O226 2.455 . S
U206 O227 2.449 . S
O207 U206 2.454 . S
O207 C209 1.353 . S
O208 U206 2.458 . S
O208 C209 1.286 . S
C209 U206 2.984 . S
C209 O207 1.353 . S
C209 O208 1.286 . S
C209 C211 1.363 . S
C210 C200 1.465 . S
C210 U206 2.847 . S
C210 O224 1.249 . S
C210 O225 1.202 . S
C211 C209 1.363 . S
C211 C213 1.408 . S
C211 C216 1.342 . S
C212 C213 1.310 . S
C212 C215 1.461 . S
C212 H232 0.932 . S
C213 C211 1.408 . S
C213 C212 1.310 . S
C213 H233 0.930 . S
C214 C215 1.474 . S
C214 C216 1.285 . S
C214 H234 0.929 . S
C215 C212 1.461 . S
C215 C214 1.474 . S
C216 C211 1.342 . S
C216 C214 1.285 . S
C216 H235 0.930 . S
C217 C220 1.424 . S
C217 C222 1.245 . S
C217 C223 1.428 . S
C218 C221 1.260 . S
C218 C222 1.477 . S
C218 H236 0.932 . S
C219 C220 1.384 . S
C219 C221 1.479 . S
C219 H237 0.929 . S
C220 C217 1.424 . S
C220 C219 1.384 . S
C220 H238 0.928 . S
C221 C218 1.260 . S
C221 C219 1.479 . S
C222 C217 1.245 . S
C222 C218 1.477 . S
C222 H239 0.932 . S
C223 U206 2.882 . S
C223 C217 1.428 . S
C223 O226 1.301 . S
C223 O227 1.282 . S
O224 U206 2.441 . S
O224 C210 1.249 . S
O225 U206 2.420 . S
O225 C210 1.202 . S
O226 U206 2.455 . S
O226 C223 1.301 . S
O227 U206 2.449 . S
O227 C223 1.282 . S
H228 C201 0.931 . S
H229 C203 0.929 . S
H230 C204 0.930 . S
H231 C205 0.931 . S
H232 C212 0.932 . S
H233 C213 0.930 . S
H234 C214 0.929 . S
H235 C216 0.930 . S
H236 C218 0.932 . S
H237 C219 0.929 . S
H238 C220 0.928 . S
H239 C222 0.932 . S
C240 C241 1.264 . S
C240 C245 1.479 . S
C240 C250 1.465 . S
C241 C240 1.264 . S
C241 C243 1.339 . S
C241 H268 0.931 . S
C242 C243 1.395 . S
C242 C244 1.320 . S
C243 C241 1.339 . S
C243 C242 1.395 . S
C243 H269 0.929 . S
C244 C242 1.320 . S
C244 C245 1.405 . S
C244 H270 0.930 . S
C245 C240 1.479 . S
C245 C244 1.405 . S
C245 H271 0.931 . S
U246 O247 2.454 . S
U246 O248 2.458 . S
U246 C249 2.984 . S
U246 C250 2.847 . S
U246 C263 2.882 . S
U246 O264 2.441 . S
U246 O265 2.420 . S
U246 O266 2.455 . S
U246 O267 2.449 . S
O247 U246 2.454 . S
O247 C249 1.353 . S
O248 U246 2.458 . S
O248 C249 1.286 . S
C249 U246 2.984 . S
C249 O247 1.353 . S
C249 O248 1.286 . S
C249 C251 1.363 . S
C250 C240 1.465 . S
C250 U246 2.847 . S
C250 O264 1.249 . S
C250 O265 1.202 . S
C251 C249 1.363 . S
C251 C253 1.408 . S
C251 C256 1.342 . S
C252 C253 1.310 . S
C252 C255 1.461 . S
C252 H272 0.932 . S
C253 C251 1.408 . S
C253 C252 1.310 . S
C253 H273 0.930 . S
C254 C255 1.474 . S
C254 C256 1.285 . S
C254 H274 0.929 . S
C255 C252 1.461 . S
C255 C254 1.474 . S
C256 C251 1.342 . S
C256 C254 1.285 . S
C256 H275 0.930 . S
C257 C260 1.424 . S
C257 C262 1.245 . S
C257 C263 1.428 . S
C258 C261 1.260 . S
C258 C262 1.477 . S
C258 H276 0.932 . S
C259 C260 1.384 . S
C259 C261 1.479 . S
C259 H277 0.929 . S
C260 C257 1.424 . S
C260 C259 1.384 . S
C260 H278 0.928 . S
C261 C258 1.260 . S
C261 C259 1.479 . S
C262 C257 1.245 . S
C262 C258 1.477 . S
C262 H279 0.932 . S
C263 U246 2.882 . S
C263 C257 1.428 . S
C263 O266 1.301 . S
C263 O267 1.282 . S
O264 U246 2.441 . S
O264 C250 1.249 . S
O265 U246 2.420 . S
O265 C250 1.202 . S
O266 U246 2.455 . S
O266 C263 1.301 . S
O267 U246 2.449 . S
O267 C263 1.282 . S
H268 C241 0.931 . S
H269 C243 0.929 . S
H270 C244 0.930 . S
H271 C245 0.931 . S
H272 C252 0.932 . S
H273 C253 0.930 . S
H274 C254 0.929 . S
H275 C256 0.930 . S
H276 C258 0.932 . S
H277 C259 0.929 . S
H278 C260 0.928 . S
H279 C262 0.932 . S
C280 C281 1.264 . S
C280 C285 1.479 . S
C280 C290 1.465 . S
C281 C280 1.264 . S
C281 C283 1.339 . S
C281 H308 0.931 . S
C282 C283 1.395 . S
C282 C284 1.320 . S
C283 C281 1.339 . S
C283 C282 1.395 . S
C283 H309 0.929 . S
C284 C282 1.320 . S
C284 C285 1.405 . S
C284 H310 0.930 . S
C285 C280 1.479 . S
C285 C284 1.405 . S
C285 H311 0.931 . S
U286 O287 2.454 . S
U286 O288 2.458 . S
U286 C289 2.984 . S
U286 C290 2.847 . S
U286 C303 2.882 . S
U286 O304 2.441 . S
U286 O305 2.420 . S
U286 O306 2.455 . S
U286 O307 2.449 . S
O287 U286 2.454 . S
O287 C289 1.353 . S
O288 U286 2.458 . S
O288 C289 1.286 . S
C289 U286 2.984 . S
C289 O287 1.353 . S
C289 O288 1.286 . S
C289 C291 1.363 . S
C290 C280 1.465 . S
C290 U286 2.847 . S
C290 O304 1.249 . S
C290 O305 1.202 . S
C291 C289 1.363 . S
C291 C293 1.408 . S
C291 C296 1.342 . S
C292 C293 1.310 . S
C292 C295 1.461 . S
C292 H312 0.932 . S
C293 C291 1.408 . S
C293 C292 1.310 . S
C293 H313 0.930 . S
C294 C295 1.474 . S
C294 C296 1.285 . S
C294 H314 0.929 . S
C295 C292 1.461 . S
C295 C294 1.474 . S
C296 C291 1.342 . S
C296 C294 1.285 . S
C296 H315 0.930 . S
C297 C300 1.424 . S
C297 C302 1.245 . S
C297 C303 1.428 . S
C298 C301 1.260 . S
C298 C302 1.477 . S
C298 H316 0.932 . S
C299 C300 1.384 . S
C299 C301 1.479 . S
C299 H317 0.929 . S
C300 C297 1.424 . S
C300 C299 1.384 . S
C300 H318 0.928 . S
C301 C298 1.260 . S
C301 C299 1.479 . S
C302 C297 1.245 . S
C302 C298 1.477 . S
C302 H319 0.932 . S
C303 U286 2.882 . S
C303 C297 1.428 . S
C303 O306 1.301 . S
C303 O307 1.282 . S
O304 U286 2.441 . S
O304 C290 1.249 . S
O305 U286 2.420 . S
O305 C290 1.202 . S
O306 U286 2.455 . S
O306 C303 1.301 . S
O307 U286 2.449 . S
O307 C303 1.282 . S
H308 C281 0.931 . S
H309 C283 0.929 . S
H310 C284 0.930 . S
H311 C285 0.931 . S
H312 C292 0.932 . S
H313 C293 0.930 . S
H314 C294 0.929 . S
H315 C296 0.930 . S
H316 C298 0.932 . S
H317 C299 0.929 . S
H318 C300 0.928 . S
H319 C302 0.932 . S
H320 C321 0.951 . S
C321 H320 0.951 . S
C321 C327 1.265 . S
H322 C327 0.950 . S
H323 C331 0.949 . S
H324 C332 0.950 . S
H325 C333 0.951 . S
H326 C334 0.951 . S
C327 C321 1.265 . S
C327 H322 0.950 . S
C327 C328 1.478 . S
C328 C327 1.478 . S
C328 C329 1.397 . S
C328 C345 1.394 . S
C329 C328 1.397 . S
C329 C330 1.438 . S
C329 C334 1.429 . S
C330 C329 1.438 . S
C330 C331 1.428 . S
C330 C343 1.394 . S
C331 H323 0.949 . S
C331 C330 1.428 . S
C331 C332 1.345 . S
C332 H324 0.950 . S
C332 C331 1.345 . S
C332 C333 1.424 . S
C333 H325 0.951 . S
C333 C332 1.424 . S
C333 C334 1.347 . S
C334 H326 0.951 . S
C334 C329 1.429 . S
C334 C333 1.347 . S
H335 C336 0.951 . S
C336 H335 0.951 . S
C336 C342 1.265 . S
H337 C342 0.950 . S
H338 C346 0.949 . S
H339 C347 0.950 . S
H340 C348 0.951 . S
H341 C349 0.951 . S
C342 C336 1.265 . S
C342 H337 0.950 . S
C342 C343 1.478 . S
C343 C330 1.394 . S
C343 C342 1.478 . S
C343 C344 1.397 . S
C344 C343 1.397 . S
C344 C345 1.438 . S
C344 C349 1.429 . S
C345 C328 1.394 . S
C345 C344 1.438 . S
C345 C346 1.428 . S
C346 H338 0.949 . S
C346 C345 1.428 . S
C346 C347 1.345 . S
C347 H339 0.950 . S
C347 C346 1.345 . S
C347 C348 1.424 . S
C348 H340 0.951 . S
C348 C347 1.424 . S
C348 C349 1.347 . S
C349 H341 0.951 . S
C349 C344 1.429 . S
C349 C348 1.347 . S
H350 C351 0.951 . S
C351 H350 0.951 . S
C351 C357 1.265 . S
H352 C357 0.950 . S
H353 C361 0.949 . S
H354 C362 0.950 . S
H355 C363 0.951 . S
H356 C364 0.951 . S
C357 C351 1.265 . S
C357 H352 0.950 . S
C357 C358 1.478 . S
C358 C357 1.478 . S
C358 C359 1.397 . S
C358 C375 1.394 . S
C359 C358 1.397 . S
C359 C360 1.438 . S
C359 C364 1.429 . S
C360 C359 1.438 . S
C360 C361 1.428 . S
C360 C373 1.394 . S
C361 H353 0.949 . S
C361 C360 1.428 . S
C361 C362 1.345 . S
C362 H354 0.950 . S
C362 C361 1.345 . S
C362 C363 1.424 . S
C363 H355 0.951 . S
C363 C362 1.424 . S
C363 C364 1.347 . S
C364 H356 0.951 . S
C364 C359 1.429 . S
C364 C363 1.347 . S
H365 C366 0.951 . S
C366 H365 0.951 . S
C366 C372 1.265 . S
H367 C372 0.950 . S
H368 C376 0.949 . S
H369 C377 0.950 . S
H370 C378 0.951 . S
H371 C379 0.951 . S
C372 C366 1.265 . S
C372 H367 0.950 . S
C372 C373 1.478 . S
C373 C360 1.394 . S
C373 C372 1.478 . S
C373 C374 1.397 . S
C374 C373 1.397 . S
C374 C375 1.438 . S
C374 C379 1.429 . S
C375 C358 1.394 . S
C375 C374 1.438 . S
C375 C376 1.428 . S
C376 H368 0.949 . S
C376 C375 1.428 . S
C376 C377 1.345 . S
C377 H369 0.950 . S
C377 C376 1.345 . S
C377 C378 1.424 . S
C378 H370 0.951 . S
C378 C377 1.424 . S
C378 C379 1.347 . S
C379 H371 0.951 . S
C379 C374 1.429 . S
C379 C378 1.347 . S
H380 C381 0.951 . S
C381 H380 0.951 . S
C381 C387 1.265 . S
H382 C387 0.950 . S
H383 C391 0.949 . S
H384 C392 0.950 . S
H385 C393 0.951 . S
H386 C394 0.951 . S
C387 C381 1.265 . S
C387 H382 0.950 . S
C387 C388 1.478 . S
C388 C387 1.478 . S
C388 C389 1.397 . S
C388 C405 1.394 . S
C389 C388 1.397 . S
C389 C390 1.438 . S
C389 C394 1.429 . S
C390 C389 1.438 . S
C390 C391 1.428 . S
C390 C403 1.394 . S
C391 H383 0.949 . S
C391 C390 1.428 . S
C391 C392 1.345 . S
C392 H384 0.950 . S
C392 C391 1.345 . S
C392 C393 1.424 . S
C393 H385 0.951 . S
C393 C392 1.424 . S
C393 C394 1.347 . S
C394 H386 0.951 . S
C394 C389 1.429 . S
C394 C393 1.347 . S
H395 C396 0.951 . S
C396 H395 0.951 . S
C396 C402 1.265 . S
H397 C402 0.950 . S
H398 C406 0.949 . S
H399 C407 0.950 . S
H400 C408 0.951 . S
H401 C409 0.951 . S
C402 C396 1.265 . S
C402 H397 0.950 . S
C402 C403 1.478 . S
C403 C390 1.394 . S
C403 C402 1.478 . S
C403 C404 1.397 . S
C404 C403 1.397 . S
C404 C405 1.438 . S
C404 C409 1.429 . S
C405 C388 1.394 . S
C405 C404 1.438 . S
C405 C406 1.428 . S
C406 H398 0.949 . S
C406 C405 1.428 . S
C406 C407 1.345 . S
C407 H399 0.950 . S
C407 C406 1.345 . S
C407 C408 1.424 . S
C408 H400 0.951 . S
C408 C407 1.424 . S
C408 C409 1.347 . S
C409 H401 0.951 . S
C409 C404 1.429 . S
C409 C408 1.347 . S
H410 C411 0.951 . S
C411 H410 0.951 . S
C411 C417 1.265 . S
H412 C417 0.950 . S
H413 C421 0.949 . S
H414 C422 0.950 . S
H415 C423 0.951 . S
H416 C424 0.951 . S
C417 C411 1.265 . S
C417 H412 0.950 . S
C417 C418 1.478 . S
C418 C417 1.478 . S
C418 C419 1.397 . S
C418 C435 1.394 . S
C419 C418 1.397 . S
C419 C420 1.438 . S
C419 C424 1.429 . S
C420 C419 1.438 . S
C420 C421 1.428 . S
C420 C433 1.394 . S
C421 H413 0.949 . S
C421 C420 1.428 . S
C421 C422 1.345 . S
C422 H414 0.950 . S
C422 C421 1.345 . S
C422 C423 1.424 . S
C423 H415 0.951 . S
C423 C422 1.424 . S
C423 C424 1.347 . S
C424 H416 0.951 . S
C424 C419 1.429 . S
C424 C423 1.347 . S
H425 C426 0.951 . S
C426 H425 0.951 . S
C426 C432 1.265 . S
H427 C432 0.950 . S
H428 C436 0.949 . S
H429 C437 0.950 . S
H430 C438 0.951 . S
H431 C439 0.951 . S
C432 C426 1.265 . S
C432 H427 0.950 . S
C432 C433 1.478 . S
C433 C420 1.394 . S
C433 C432 1.478 . S
C433 C434 1.397 . S
C434 C433 1.397 . S
C434 C435 1.438 . S
C434 C439 1.429 . S
C435 C418 1.394 . S
C435 C434 1.438 . S
C435 C436 1.428 . S
C436 H428 0.949 . S
C436 C435 1.428 . S
C436 C437 1.345 . S
C437 H429 0.950 . S
C437 C436 1.345 . S
C437 C438 1.424 . S
C438 H430 0.951 . S
C438 C437 1.424 . S
C438 C439 1.347 . S
C439 H431 0.951 . S
C439 C434 1.429 . S
C439 C438 1.347 . S
H440 C441 0.951 . S
C441 H440 0.951 . S
C441 C447 1.265 . S
H442 C447 0.950 . S
H443 C451 0.949 . S
H444 C452 0.950 . S
H445 C453 0.951 . S
H446 C454 0.951 . S
C447 C441 1.265 . S
C447 H442 0.950 . S
C447 C448 1.478 . S
C448 C447 1.478 . S
C448 C449 1.397 1_565 S
C448 C465 1.394 . S
C449 C448 1.397 1_545 S
C449 C450 1.438 . S
C449 C454 1.429 . S
C450 C449 1.438 . S
C450 C451 1.428 . S
C450 C463 1.394 . S
C451 H443 0.949 . S
C451 C450 1.428 . S
C451 C452 1.345 1_554 S
C452 H444 0.950 . S
C452 C451 1.345 1_556 S
C452 C453 1.424 . S
C453 H445 0.951 . S
C453 C452 1.424 . S
C453 C454 1.347 1_556 S
C454 H446 0.951 . S
C454 C449 1.429 . S
C454 C453 1.347 1_554 S
H455 C456 0.951 . S
C456 H455 0.951 . S
C456 C462 1.265 . S
H457 C462 0.950 . S
H458 C466 0.949 . S
H459 C467 0.950 . S
H460 C468 0.951 . S
H461 C469 0.951 . S
C462 C456 1.265 . S
C462 H457 0.950 . S
C462 C463 1.478 . S
C463 C450 1.394 . S
C463 C462 1.478 . S
C463 C464 1.397 1_545 S
C464 C463 1.397 1_565 S
C464 C465 1.438 . S
C464 C469 1.429 . S
C465 C448 1.394 . S
C465 C464 1.438 . S
C465 C466 1.428 . S
C466 H458 0.949 . S
C466 C465 1.428 . S
C466 C467 1.345 . S
C467 H459 0.950 . S
C467 C466 1.345 . S
C467 C468 1.424 . S
C468 H460 0.951 . S
C468 C467 1.424 . S
C468 C469 1.347 . S
C469 H461 0.951 . S
C469 C464 1.429 . S
C469 C468 1.347 . S
H470 C471 0.951 . S
C471 H470 0.951 . S
C471 C477 1.265 . S
H472 C477 0.950 . S
H473 C481 0.949 . S
H474 C482 0.950 . S
H475 C483 0.951 . S
H476 C484 0.951 . S
C477 C471 1.265 . S
C477 H472 0.950 . S
C477 C478 1.478 . S
C478 C477 1.478 . S
C478 C479 1.397 . S
C478 C495 1.394 . S
C479 C478 1.397 . S
C479 C480 1.438 . S
C479 C484 1.429 . S
C480 C479 1.438 . S
C480 C481 1.428 . S
C480 C493 1.394 . S
C481 H473 0.949 . S
C481 C480 1.428 . S
C481 C482 1.345 . S
C482 H474 0.950 . S
C482 C481 1.345 . S
C482 C483 1.424 . S
C483 H475 0.951 . S
C483 C482 1.424 . S
C483 C484 1.347 . S
C484 H476 0.951 . S
C484 C479 1.429 . S
C484 C483 1.347 . S
H485 C486 0.951 . S
C486 H485 0.951 . S
C486 C492 1.265 . S
H487 C492 0.950 . S
H488 C496 0.949 . S
H489 C497 0.950 . S
H490 C498 0.951 . S
H491 C499 0.951 . S
C492 C486 1.265 . S
C492 H487 0.950 . S
C492 C493 1.478 . S
C493 C480 1.394 . S
C493 C492 1.478 . S
C493 C494 1.397 . S
C494 C493 1.397 . S
C494 C495 1.438 . S
C494 C499 1.429 . S
C495 C478 1.394 . S
C495 C494 1.438 . S
C495 C496 1.428 . S
C496 H488 0.949 . S
C496 C495 1.428 . S
C496 C497 1.345 . S
C497 H489 0.950 . S
C497 C496 1.345 . S
C497 C498 1.424 . S
C498 H490 0.951 . S
C498 C497 1.424 . S
C498 C499 1.347 . S
C499 H491 0.951 . S
C499 C494 1.429 . S
C499 C498 1.347 . S
H500 C501 0.951 . S
C501 H500 0.951 . S
C501 C507 1.265 . S
H502 C507 0.950 . S
H503 C511 0.949 . S
H504 C512 0.950 . S
H505 C513 0.951 . S
H506 C514 0.951 . S
C507 C501 1.265 . S
C507 H502 0.950 . S
C507 C508 1.478 . S
C508 C507 1.478 . S
C508 C509 1.397 1_545 S
C508 C525 1.394 . S
C509 C508 1.397 1_565 S
C509 C510 1.438 . S
C509 C514 1.429 . S
C510 C509 1.438 . S
C510 C511 1.428 . S
C510 C523 1.394 . S
C511 H503 0.949 . S
C511 C510 1.428 . S
C511 C512 1.345 . S
C512 H504 0.950 . S
C512 C511 1.345 . S
C512 C513 1.424 . S
C513 H505 0.951 . S
C513 C512 1.424 . S
C513 C514 1.347 . S
C514 H506 0.951 . S
C514 C509 1.429 . S
C514 C513 1.347 . S
H515 C516 0.951 . S
C516 H515 0.951 . S
C516 C522 1.265 . S
H517 C522 0.950 . S
H518 C526 0.949 . S
H519 C527 0.950 . S
H520 C528 0.951 . S
H521 C529 0.951 . S
C522 C516 1.265 . S
C522 H517 0.950 . S
C522 C523 1.478 . S
C523 C510 1.394 . S
C523 C522 1.478 . S
C523 C524 1.397 1_565 S
C524 C523 1.397 1_545 S
C524 C525 1.438 . S
C524 C529 1.429 . S
C525 C508 1.394 . S
C525 C524 1.438 . S
C525 C526 1.428 . S
C526 H518 0.949 . S
C526 C525 1.428 . S
C526 C527 1.345 1_556 S
C527 H519 0.950 . S
C527 C526 1.345 1_554 S
C527 C528 1.424 . S
C528 H520 0.951 . S
C528 C527 1.424 . S
C528 C529 1.347 1_554 S
C529 H521 0.951 . S
C529 C524 1.429 . S
C529 C528 1.347 1_556 S
H530 C531 0.951 . S
C531 H530 0.951 . S
C531 C537 1.265 . S
H532 C537 0.950 . S
H533 C541 0.949 . S
H534 C542 0.950 . S
H535 C543 0.951 . S
H536 C544 0.951 . S
C537 C531 1.265 . S
C537 H532 0.950 . S
C537 C538 1.478 . S
C538 C537 1.478 . S
C538 C539 1.397 . S
C538 C555 1.394 . S
C539 C538 1.397 . S
C539 C540 1.438 . S
C539 C544 1.429 . S
C540 C539 1.438 . S
C540 C541 1.428 . S
C540 C553 1.394 . S
C541 H533 0.949 . S
C541 C540 1.428 . S
C541 C542 1.345 . S
C542 H534 0.950 . S
C542 C541 1.345 . S
C542 C543 1.424 . S
C543 H535 0.951 . S
C543 C542 1.424 . S
C543 C544 1.347 . S
C544 H536 0.951 . S
C544 C539 1.429 . S
C544 C543 1.347 . S
H545 C546 0.951 . S
C546 H545 0.951 . S
C546 C552 1.265 . S
H547 C552 0.950 . S
H548 C556 0.949 . S
H549 C557 0.950 . S
H550 C558 0.951 . S
H551 C559 0.951 . S
C552 C546 1.265 . S
C552 H547 0.950 . S
C552 C553 1.478 . S
C553 C540 1.394 . S
C553 C552 1.478 . S
C553 C554 1.397 . S
C554 C553 1.397 . S
C554 C555 1.438 . S
C554 C559 1.429 . S
C555 C538 1.394 . S
C555 C554 1.438 . S
C555 C556 1.428 . S
C556 H548 0.949 . S
C556 C555 1.428 . S
C556 C557 1.345 . S
C557 H549 0.950 . S
C557 C556 1.345 . S
C557 C558 1.424 . S
C558 H550 0.951 . S
C558 C557 1.424 . S
C558 C559 1.347 . S
C559 H551 0.951 . S
C559 C554 1.429 . S
C559 C558 1.347 . S
H560 C561 0.951 . S
C561 H560 0.951 . S
C561 C567 1.265 . S
H562 C567 0.950 . S
H563 C571 0.949 . S
H564 C572 0.950 . S
H565 C573 0.947 1_565 S
H566 C574 0.951 . S
C567 C561 1.265 . S
C567 H562 0.950 . S
C567 C568 1.478 . S
C568 C567 1.478 . S
C568 C569 1.397 . S
C568 C585 1.394 1_556 S
C569 C568 1.397 . S
C569 C570 1.438 1_665 S
C569 C574 1.429 . S
C570 C569 1.438 1_445 S
C570 C571 1.428 . S
C570 C583 1.394 1_556 S
C571 H563 0.949 . S
C571 C570 1.428 . S
C571 C572 1.345 . S
C572 H564 0.950 . S
C572 C571 1.345 . S
C572 C573 1.424 . S
C573 H565 0.947 1_545 S
C573 C572 1.424 . S
C573 C574 1.347 1_445 S
C574 H566 0.951 . S
C574 C569 1.429 . S
C574 C573 1.347 1_665 S
H575 C576 0.951 . S
C576 H575 0.951 . S
C576 C582 1.265 . S
H577 C582 0.950 . S
H578 C586 0.949 . S
H579 C587 0.950 . S
H580 C588 0.947 1_545 S
H581 C589 0.951 . S
C582 C576 1.265 . S
C582 H577 0.950 . S
C582 C583 1.478 . S
C583 C570 1.394 1_554 S
C583 C582 1.478 . S
C583 C584 1.397 . S
C584 C583 1.397 . S
C584 C585 1.438 1_445 S
C584 C589 1.429 . S
C585 C568 1.394 1_554 S
C585 C584 1.438 1_665 S
C585 C586 1.428 . S
C586 H578 0.949 . S
C586 C585 1.428 . S
C586 C587 1.345 . S
C587 H579 0.950 . S
C587 C586 1.345 . S
C587 C588 1.424 . S
C588 H580 0.947 1_565 S
C588 C587 1.424 . S
C588 C589 1.347 1_665 S
C589 H581 0.951 . S
C589 C584 1.429 . S
C589 C588 1.347 1_445 S
H590 C591 0.951 . S
C591 H590 0.951 . S
C591 C597 1.265 . S
H592 C597 0.950 . S
H593 C601 0.917 1_545 S
H594 C602 0.950 . S
H595 C603 0.951 . S
H596 C604 0.951 . S
C597 C591 1.265 . S
C597 H592 0.950 . S
C597 C598 1.478 . S
C598 C597 1.478 . S
C598 C599 1.397 1_554 S
C598 C615 1.394 1_565 S
C599 C598 1.397 1_556 S
C599 C600 1.438 . S
C599 C604 1.429 . S
C600 C599 1.438 . S
C600 C601 1.428 . S
C600 C613 1.394 1_565 S
C601 H593 0.917 1_565 S
C601 C600 1.428 . S
C601 C602 1.345 . S
C602 H594 0.950 . S
C602 C601 1.345 . S
C602 C603 1.424 . S
C603 H595 0.951 . S
C603 C602 1.424 . S
C603 C604 1.347 . S
C604 H596 0.951 . S
C604 C599 1.429 . S
C604 C603 1.347 . S
H605 C606 0.951 . S
C606 H605 0.951 . S
C606 C612 1.265 . S
H607 C612 0.950 . S
H608 C616 0.917 1_565 S
H609 C617 0.950 . S
H610 C618 0.951 . S
H611 C619 0.951 . S
C612 C606 1.265 . S
C612 H607 0.950 . S
C612 C613 1.478 . S
C613 C600 1.394 1_545 S
C613 C612 1.478 . S
C613 C614 1.397 1_556 S
C614 C613 1.397 1_554 S
C614 C615 1.438 . S
C614 C619 1.429 . S
C615 C598 1.394 1_545 S
C615 C614 1.438 . S
C615 C616 1.428 . S
C616 H608 0.917 1_545 S
C616 C615 1.428 . S
C616 C617 1.345 . S
C617 H609 0.950 . S
C617 C616 1.345 . S
C617 C618 1.424 . S
C618 H610 0.951 . S
C618 C617 1.424 . S
C618 C619 1.347 . S
C619 H611 0.951 . S
C619 C614 1.429 . S
C619 C618 1.347 . S
H620 C621 0.951 . S
C621 H620 0.951 . S
C621 C627 1.265 . S
H622 C627 0.950 . S
H623 C631 0.949 . S
H624 C632 0.950 . S
H625 C633 0.951 . S
H626 C634 0.951 1_655 S
C627 C621 1.265 . S
C627 H622 0.950 . S
C627 C628 1.478 . S
C628 C627 1.478 . S
C628 C629 1.397 1_655 S
C628 C645 1.394 . S
C629 C628 1.397 1_455 S
C629 C630 1.438 . S
C629 C634 1.429 . S
C630 C629 1.438 . S
C630 C631 1.428 . S
C630 C643 1.394 . S
C631 H623 0.949 . S
C631 C630 1.428 . S
C631 C632 1.345 . S
C632 H624 0.950 . S
C632 C631 1.345 . S
C632 C633 1.424 . S
C633 H625 0.951 . S
C633 C632 1.424 . S
C633 C634 1.347 . S
C634 H626 0.951 1_455 S
C634 C629 1.429 . S
C634 C633 1.347 . S
H635 C636 0.951 . S
C636 H635 0.951 . S
C636 C642 1.265 . S
H637 C642 0.950 . S
H638 C646 0.949 . S
H639 C647 0.950 . S
H640 C648 0.951 . S
H641 C649 0.951 1_455 S
C642 C636 1.265 . S
C642 H637 0.950 . S
C642 C643 1.478 . S
C643 C630 1.394 . S
C643 C642 1.478 . S
C643 C644 1.397 1_455 S
C644 C643 1.397 1_655 S
C644 C645 1.438 . S
C644 C649 1.429 . S
C645 C628 1.394 . S
C645 C644 1.438 . S
C645 C646 1.428 . S
C646 H638 0.949 . S
C646 C645 1.428 . S
C646 C647 1.345 . S
C647 H639 0.950 . S
C647 C646 1.345 . S
C647 C648 1.424 . S
C648 H640 0.951 . S
C648 C647 1.424 . S
C648 C649 1.347 . S
C649 H641 0.951 1_655 S
C649 C644 1.429 . S
C649 C648 1.347 . S
H650 C651 0.951 . S
C651 H650 0.951 . S
C651 C657 1.265 . S
H652 C657 0.950 . S
H653 C661 0.949 . S
H654 C662 0.950 . S
H655 C663 0.951 . S
H656 C664 0.951 . S
C657 C651 1.265 . S
C657 H652 0.950 . S
C657 C658 1.478 . S
C658 C657 1.478 . S
C658 C659 1.397 . S
C658 C675 1.394 . S
C659 C658 1.397 . S
C659 C660 1.438 . S
C659 C664 1.429 . S
C660 C659 1.438 . S
C660 C661 1.428 . S
C660 C673 1.394 . S
C661 H653 0.949 . S
C661 C660 1.428 . S
C661 C662 1.345 . S
C662 H654 0.950 . S
C662 C661 1.345 . S
C662 C663 1.424 . S
C663 H655 0.951 . S
C663 C662 1.424 . S
C663 C664 1.347 . S
C664 H656 0.951 . S
C664 C659 1.429 . S
C664 C663 1.347 . S
H665 C666 0.951 . S
C666 H665 0.951 . S
C666 C672 1.265 . S
H667 C672 0.950 . S
H668 C676 0.949 . S
H669 C677 0.950 . S
H670 C678 0.951 . S
H671 C679 0.951 . S
C672 C666 1.265 . S
C672 H667 0.950 . S
C672 C673 1.478 . S
C673 C660 1.394 . S
C673 C672 1.478 . S
C673 C674 1.397 . S
C674 C673 1.397 . S
C674 C675 1.438 . S
C674 C679 1.429 . S
C675 C658 1.394 . S
C675 C674 1.438 . S
C675 C676 1.428 . S
C676 H668 0.949 . S
C676 C675 1.428 . S
C676 C677 1.345 . S
C677 H669 0.950 . S
C677 C676 1.345 . S
C677 C678 1.424 . S
C678 H670 0.951 . S
C678 C677 1.424 . S
C678 C679 1.347 . S
C679 H671 0.951 . S
C679 C674 1.429 . S
C679 C678 1.347 . S
C321 C15 1.490 . S
C336 C95 1.490 . S
C351 C55 1.490 . S
C366 C135 1.491 . S
C381 C175 1.490 . S
C396 C255 1.489 . S
C411 C295 1.489 . S
C426 C215 1.490 . S
C441 C61 1.473 . S
C456 C21 1.479 . S
C471 C141 1.479 . S
C486 C101 1.481 . S
C501 C221 1.487 . S
C516 C181 1.485 . S
C531 C301 1.475 . S
C546 C261 1.467 . S
C561 C162 1.495 . S
C576 C2 1.480 . S
C591 C42 1.483 . S
C606 C202 1.493 . S
C621 C242 1.480 . S
C636 C82 1.496 . S
C651 C122 1.473 . S
C666 C282 1.460 . S
