# Generated by pormake.
# Topology umd, (4)-cn, num edge types: 1
# Building blocks:
#     Node 0, Type 0, BuildingBlock: ICAMEG_clean_sbu_1, # of connection points: 4
#     Node 1, Type 0, BuildingBlock: ICAMEG_clean_sbu_1, # of connection points: 4
#     Node 2, Type 0, BuildingBlock: ICAMEG_clean_sbu_1, # of connection points: 4
#     Node 3, Type 0, BuildingBlock: ICAMEG_clean_sbu_1, # of connection points: 4
#     Node 4, Type 0, BuildingBlock: ICAMEG_clean_sbu_1, # of connection points: 4
#     Node 5, Type 0, BuildingBlock: ICAMEG_clean_sbu_1, # of connection points: 4
#     Node 6, Type 0, BuildingBlock: ICAMEG_clean_sbu_1, # of connection points: 4
#     Node 7, Type 0, BuildingBlock: ICAMEG_clean_sbu_1, # of connection points: 4
#     Node 8, Type 0, BuildingBlock: ICAMEG_clean_sbu_1, # of connection points: 4
#     Node 9, Type 0, BuildingBlock: ICAMEG_clean_sbu_1, # of connection points: 4
#     Node 10, Type 0, BuildingBlock: ICAMEG_clean_sbu_1, # of connection points: 4
#     Node 11, Type 0, BuildingBlock: ICAMEG_clean_sbu_1, # of connection points: 4
#     Node 12, Type 0, BuildingBlock: ICAMEG_clean_sbu_1, # of connection points: 4
#     Node 13, Type 0, BuildingBlock: ICAMEG_clean_sbu_1, # of connection points: 4
#     Node 14, Type 0, BuildingBlock: ICAMEG_clean_sbu_1, # of connection points: 4
#     Node 15, Type 0, BuildingBlock: ICAMEG_clean_sbu_1, # of connection points: 4
#     Edge 16, Type (0, 0), BuildingBlock: XUDNAN_clean_linker_2, # of connection points: 2
#     Edge 17, Type (0, 0), BuildingBlock: XUDNAN_clean_linker_2, # of connection points: 2
#     Edge 18, Type (0, 0), BuildingBlock: XUDNAN_clean_linker_2, # of connection points: 2
#     Edge 19, Type (0, 0), BuildingBlock: XUDNAN_clean_linker_2, # of connection points: 2
#     Edge 20, Type (0, 0), BuildingBlock: XUDNAN_clean_linker_2, # of connection points: 2
#     Edge 21, Type (0, 0), BuildingBlock: XUDNAN_clean_linker_2, # of connection points: 2
#     Edge 22, Type (0, 0), BuildingBlock: XUDNAN_clean_linker_2, # of connection points: 2
#     Edge 23, Type (0, 0), BuildingBlock: XUDNAN_clean_linker_2, # of connection points: 2
#     Edge 24, Type (0, 0), BuildingBlock: XUDNAN_clean_linker_2, # of connection points: 2
#     Edge 25, Type (0, 0), BuildingBlock: XUDNAN_clean_linker_2, # of connection points: 2
#     Edge 26, Type (0, 0), BuildingBlock: XUDNAN_clean_linker_2, # of connection points: 2
#     Edge 27, Type (0, 0), BuildingBlock: XUDNAN_clean_linker_2, # of connection points: 2
#     Edge 28, Type (0, 0), BuildingBlock: XUDNAN_clean_linker_2, # of connection points: 2
#     Edge 29, Type (0, 0), BuildingBlock: XUDNAN_clean_linker_2, # of connection points: 2
#     Edge 30, Type (0, 0), BuildingBlock: XUDNAN_clean_linker_2, # of connection points: 2
#     Edge 31, Type (0, 0), BuildingBlock: XUDNAN_clean_linker_2, # of connection points: 2
#     Edge 32, Type (0, 0), BuildingBlock: XUDNAN_clean_linker_2, # of connection points: 2
#     Edge 33, Type (0, 0), BuildingBlock: XUDNAN_clean_linker_2, # of connection points: 2
#     Edge 34, Type (0, 0), BuildingBlock: XUDNAN_clean_linker_2, # of connection points: 2
#     Edge 35, Type (0, 0), BuildingBlock: XUDNAN_clean_linker_2, # of connection points: 2
#     Edge 36, Type (0, 0), BuildingBlock: XUDNAN_clean_linker_2, # of connection points: 2
#     Edge 37, Type (0, 0), BuildingBlock: XUDNAN_clean_linker_2, # of connection points: 2
#     Edge 38, Type (0, 0), BuildingBlock: XUDNAN_clean_linker_2, # of connection points: 2
#     Edge 39, Type (0, 0), BuildingBlock: XUDNAN_clean_linker_2, # of connection points: 2
#     Edge 40, Type (0, 0), BuildingBlock: XUDNAN_clean_linker_2, # of connection points: 2
#     Edge 41, Type (0, 0), BuildingBlock: XUDNAN_clean_linker_2, # of connection points: 2
#     Edge 42, Type (0, 0), BuildingBlock: XUDNAN_clean_linker_2, # of connection points: 2
#     Edge 43, Type (0, 0), BuildingBlock: XUDNAN_clean_linker_2, # of connection points: 2
#     Edge 44, Type (0, 0), BuildingBlock: XUDNAN_clean_linker_2, # of connection points: 2
#     Edge 45, Type (0, 0), BuildingBlock: XUDNAN_clean_linker_2, # of connection points: 2
#     Edge 46, Type (0, 0), BuildingBlock: XUDNAN_clean_linker_2, # of connection points: 2
#     Edge 47, Type (0, 0), BuildingBlock: XUDNAN_clean_linker_2, # of connection points: 2
# Relax obj value: 0.055
# Max RMSD: 0.157
# Mean RMSD: 0.157
data_MOF--net-umd--node1-ICAMEG_clean_sbu_1--edge1-XUDNAN_clean_linker_2
_symmetry_space_group_name_H-M    P1
_symmetry_Int_Tables_number       1
_symmetry_cell_setting            triclinic
loop_
_symmetry_equiv_pos_as_xyz
'x, y, z'
_cell_length_a     41.703104
_cell_length_b     41.707924
_cell_length_c     60.860555
_cell_angle_alpha  90.005973
_cell_angle_beta   90.004265
_cell_angle_gamma 89.921711
loop_
_atom_site_label
_atom_site_type_symbol
_atom_site_fract_x
_atom_site_fract_y
_atom_site_fract_z
_atom_type_partial_charge
Co0 Co 0.17998 0.48197 0.12544 0.0
Co1 Co 0.16423 0.41117 0.15297 0.0
O2 O 0.1842 0.43549 0.12927 0.0
C3 C 0.15507 0.4542 0.08446 0.0
O4 O 0.138 0.43588 0.09749 0.0
C5 C 0.23312 0.39211 0.15562 0.0
O6 O 0.24162 0.42158 0.15085 0.0
O7 O 0.18111 0.44152 0.17519 0.0
O8 O 0.18596 0.48906 0.15798 0.0
H9 H 0.10087 0.39851 0.22263 0.0
H10 H 0.22647 0.4458 0.09805 0.0
O11 O 0.1737 0.47519 0.09279 0.0
H12 H 0.29121 0.52377 0.13972 0.0
H13 H 0.19915 0.58619 0.08595 0.0
H14 H 0.14738 0.53449 0.14958 0.0
H15 H 0.23245 0.52199 0.14416 0.0
H16 H 0.20425 0.52787 0.09186 0.0
O17 O 0.20364 0.38429 0.15642 0.0
H18 H 0.12522 0.42843 0.19194 0.0
H19 H 0.1617 0.34181 0.16496 0.0
H20 H 0.14183 0.5929 0.14438 0.0
H21 H 0.28514 0.44695 0.09295 0.0
H22 H 0.16783 0.61911 0.11237 0.0
H23 H 0.31792 0.48607 0.11393 0.0
O24 O 0.13244 0.48072 0.12984 0.0
H25 H 0.17215 0.34055 0.08635 0.0
H26 H 0.10006 0.38234 0.14386 0.0
H27 H 0.07845 0.3464 0.11531 0.0
H28 H 0.11461 0.32526 0.08627 0.0
H29 H 0.19269 0.37677 0.11513 0.0
H30 H 0.13778 0.31095 0.1954 0.0
H31 H 0.10705 0.33933 0.22448 0.0
O32 O 0.12431 0.43702 0.15054 0.0
C33 C 0.18673 0.47156 0.17528 0.0
C34 C 0.11408 0.38586 0.21 0.0
C35 C 0.13484 0.33672 0.19474 0.0
N36 N 0.14463 0.38686 0.17658 0.0
C37 C 0.12786 0.40265 0.19256 0.0
C38 C 0.14835 0.35432 0.17756 0.0
C39 C 0.1176 0.35266 0.21105 0.0
C40 C 0.24054 0.46311 0.10707 0.0
N41 N 0.22605 0.48389 0.12132 0.0
C42 C 0.27376 0.46355 0.10418 0.0
C43 C 0.29215 0.48548 0.11599 0.0
C44 C 0.27718 0.50662 0.13048 0.0
C45 C 0.24391 0.50544 0.13297 0.0
C46 C 0.18777 0.57506 0.09998 0.0
C47 C 0.15894 0.54577 0.13569 0.0
C48 C 0.19052 0.54205 0.10339 0.0
N49 N 0.17633 0.52787 0.12114 0.0
C50 C 0.15563 0.57883 0.13279 0.0
C51 C 0.1702 0.59352 0.11482 0.0
C52 C 0.11432 0.46238 0.14109 0.0
C53 C 0.15618 0.34953 0.09895 0.0
C54 C 0.11593 0.37326 0.13128 0.0
C55 C 0.10358 0.35287 0.11517 0.0
C56 C 0.12388 0.341 0.09889 0.0
N57 N 0.14764 0.38153 0.13121 0.0
C58 C 0.16771 0.36992 0.11534 0.0
Co59 Co 0.50747 0.17728 0.62979 0.0
Co60 Co 0.58785 0.15948 0.63788 0.0
O61 O 0.55333 0.18409 0.62424 0.0
C62 C 0.51616 0.16514 0.58284 0.0
O63 O 0.54008 0.14668 0.58888 0.0
C64 C 0.60631 0.22842 0.64594 0.0
O65 O 0.57623 0.23762 0.64529 0.0
O66 O 0.56819 0.16551 0.66737 0.0
O67 O 0.51553 0.17502 0.66205 0.0
H68 H 0.63292 0.07544 0.68834 0.0
H69 H 0.52779 0.23229 0.60213 0.0
O70 O 0.49928 0.17933 0.59734 0.0
H71 H 0.47151 0.28012 0.66544 0.0
H72 H 0.38993 0.19782 0.6172 0.0
H73 H 0.46946 0.13569 0.65949 0.0
H74 H 0.47707 0.22143 0.6622 0.0
H75 H 0.44788 0.20559 0.61094 0.0
O76 O 0.61396 0.1992 0.64277 0.0
H77 H 0.59 0.10658 0.67032 0.0
H78 H 0.65937 0.16058 0.63515 0.0
H79 H 0.41181 0.12736 0.66642 0.0
H80 H 0.52243 0.29107 0.6046 0.0
H81 H 0.37159 0.15855 0.64518 0.0
H82 H 0.49422 0.31536 0.63647 0.0
O83 O 0.51153 0.12961 0.62784 0.0
H84 H 0.62209 0.19674 0.56302 0.0
H85 H 0.61582 0.10418 0.61319 0.0
H86 H 0.63693 0.09655 0.57568 0.0
H87 H 0.64003 0.14306 0.55028 0.0
H88 H 0.60091 0.20316 0.60061 0.0
H89 H 0.70302 0.13023 0.65294 0.0
H90 H 0.6899 0.08722 0.67968 0.0
O91 O 0.56355 0.11873 0.63363 0.0
C92 C 0.53986 0.17086 0.67447 0.0
C93 C 0.63893 0.09404 0.67666 0.0
C94 C 0.67828 0.12482 0.65681 0.0
N95 N 0.62215 0.13515 0.65155 0.0
C96 C 0.61474 0.11167 0.66635 0.0
C97 C 0.65346 0.14196 0.64682 0.0
C98 C 0.6709 0.10069 0.67181 0.0
C99 C 0.51518 0.24265 0.61593 0.0
N100 N 0.50266 0.22344 0.63196 0.0
C101 C 0.51236 0.27596 0.61729 0.0
C102 C 0.49657 0.28958 0.6352 0.0
C103 C 0.48385 0.26982 0.65147 0.0
C104 C 0.48717 0.23661 0.64958 0.0
C105 C 0.40723 0.18413 0.62658 0.0
C106 C 0.45211 0.14951 0.65029 0.0
C107 C 0.44005 0.18838 0.62308 0.0
N108 N 0.462 0.17128 0.63496 0.0
C109 C 0.4195 0.14461 0.65424 0.0
C110 C 0.39695 0.1621 0.64229 0.0
C111 C 0.53475 0.10998 0.63005 0.0
C112 C 0.62085 0.17629 0.57393 0.0
C113 C 0.617 0.12446 0.60221 0.0
C114 C 0.62909 0.12005 0.58102 0.0
C115 C 0.63088 0.14616 0.56678 0.0
N116 N 0.60698 0.15402 0.60904 0.0
C117 C 0.60899 0.1798 0.59526 0.0
Co118 Co 0.82286 0.51585 0.12297 0.0
Co119 Co 0.84448 0.59237 0.13917 0.0
O120 O 0.82326 0.56226 0.11961 0.0
C121 C 0.85503 0.52816 0.08091 0.0
O122 O 0.87193 0.54895 0.09216 0.0
C123 C 0.77604 0.60803 0.14134 0.0
O124 O 0.77228 0.57696 0.14325 0.0
O125 O 0.82872 0.5692 0.16559 0.0
O126 O 0.81331 0.51959 0.15535 0.0
H127 H 0.91246 0.6252 0.2035 0.0
H128 H 0.78312 0.54637 0.0883 0.0
O129 O 0.8333 0.51183 0.09056 0.0
H130 H 0.7068 0.48941 0.13626 0.0
H131 H 0.7972 0.40376 0.09805 0.0
H132 H 0.84684 0.46944 0.15614 0.0
H133 H 0.76492 0.48722 0.1437 0.0
H134 H 0.79792 0.46277 0.09514 0.0
O135 O 0.80425 0.61956 0.13937 0.0
H136 H 0.88621 0.5868 0.17847 0.0
H137 H 0.84639 0.66362 0.14163 0.0
H138 H 0.84644 0.41057 0.15983 0.0
H139 H 0.72524 0.54899 0.08015 0.0
H140 H 0.82148 0.3773 0.13063 0.0
H141 H 0.68663 0.52048 0.10429 0.0
O142 O 0.86925 0.51499 0.13029 0.0
H143 H 0.83408 0.64318 0.06466 0.0
H144 H 0.90841 0.6166 0.12502 0.0
H145 H 0.92908 0.64358 0.09186 0.0
H146 H 0.89178 0.65706 0.06139 0.0
H147 H 0.81449 0.61596 0.09805 0.0
H148 H 0.87199 0.70288 0.16636 0.0
H149 H 0.9054 0.6837 0.19751 0.0
O150 O 0.88444 0.56518 0.13952 0.0
C151 C 0.81761 0.54138 0.16987 0.0
C152 C 0.89806 0.63385 0.18994 0.0
C153 C 0.87531 0.67745 0.16911 0.0
N154 N 0.86507 0.62299 0.1585 0.0
C155 C 0.88323 0.61223 0.17567 0.0
C156 C 0.86084 0.65512 0.15519 0.0
C157 C 0.89406 0.66667 0.18658 0.0
C158 C 0.7665 0.53359 0.09872 0.0
N159 N 0.77738 0.51648 0.11636 0.0
C160 C 0.73374 0.53529 0.09409 0.0
C161 C 0.71209 0.51932 0.10766 0.0
C162 C 0.72339 0.5019 0.12561 0.0
C163 C 0.75631 0.50077 0.12975 0.0
C164 C 0.80812 0.41799 0.11089 0.0
C165 C 0.83582 0.45514 0.14343 0.0
C166 C 0.80867 0.4514 0.10931 0.0
N167 N 0.82227 0.46951 0.12552 0.0
C168 C 0.83572 0.42181 0.14558 0.0
C169 C 0.82174 0.40316 0.12918 0.0
C170 C 0.89018 0.53534 0.13656 0.0
C171 C 0.85054 0.63752 0.07786 0.0
C172 C 0.89204 0.6224 0.11183 0.0
C173 C 0.90387 0.6377 0.0931 0.0
C174 C 0.88293 0.64527 0.07602 0.0
N175 N 0.86024 0.61492 0.11351 0.0
C176 C 0.83956 0.62225 0.09683 0.0
Co177 Co 0.47713 0.81332 0.62594 0.0
Co178 Co 0.40796 0.84498 0.64834 0.0
O179 O 0.43084 0.81617 0.62855 0.0
C180 C 0.45565 0.82747 0.5809 0.0
O181 O 0.4374 0.85009 0.58921 0.0
C182 C 0.38888 0.78003 0.6611 0.0
O183 O 0.41982 0.77469 0.66237 0.0
O184 O 0.43669 0.8341 0.6736 0.0
O185 O 0.48251 0.8168 0.65822 0.0
H186 H 0.39677 0.93123 0.70547 0.0
H187 H 0.43625 0.76391 0.605 0.0
O188 O 0.47284 0.81006 0.59341 0.0
H189 H 0.50469 0.70509 0.6574 0.0
H190 H 0.58001 0.77 0.59437 0.0
H191 H 0.53212 0.84751 0.64606 0.0
H192 H 0.51033 0.76359 0.65289 0.0
H193 H 0.52129 0.77349 0.59872 0.0
O194 O 0.37875 0.80804 0.65619 0.0
H195 H 0.42629 0.89545 0.68028 0.0
H196 H 0.33879 0.85414 0.65863 0.0
H197 H 0.59095 0.84466 0.64235 0.0
H198 H 0.42993 0.70539 0.6089 0.0
H199 H 0.61526 0.80568 0.61635 0.0
H200 H 0.46423 0.67561 0.63532 0.0
O201 O 0.48049 0.86057 0.62354 0.0
H202 H 0.33795 0.82137 0.58308 0.0
H203 H 0.38451 0.90651 0.62934 0.0
H204 H 0.35069 0.92126 0.59765 0.0
H205 H 0.32714 0.87852 0.57428 0.0
H206 H 0.37214 0.80768 0.61478 0.0
H207 H 0.3083 0.8893 0.68372 0.0
H208 H 0.33734 0.92826 0.7073 0.0
O209 O 0.43728 0.88169 0.64046 0.0
C210 C 0.46575 0.82459 0.67487 0.0
C211 C 0.38384 0.91442 0.69523 0.0
C212 C 0.33419 0.89085 0.68304 0.0
N213 N 0.38423 0.87295 0.6679 0.0
C214 C 0.40041 0.89418 0.68089 0.0
C215 C 0.35156 0.87097 0.66891 0.0
C216 C 0.3505 0.91272 0.69626 0.0
C217 C 0.4515 0.75106 0.61635 0.0
N218 N 0.47377 0.7671 0.62859 0.0
C219 C 0.44772 0.71795 0.61856 0.0
C220 C 0.46694 0.70126 0.63341 0.0
C221 C 0.48964 0.71779 0.64581 0.0
C222 C 0.4927 0.75092 0.6432 0.0
C223 C 0.56971 0.78703 0.60579 0.0
C224 C 0.54253 0.83033 0.63483 0.0
C225 C 0.53648 0.78914 0.60831 0.0
N226 N 0.52332 0.81045 0.6228 0.0
C227 C 0.57585 0.8289 0.63275 0.0
C228 C 0.58948 0.80704 0.61814 0.0
C229 C 0.46429 0.88444 0.6306 0.0
C230 C 0.348 0.84021 0.59318 0.0
C231 C 0.37438 0.88777 0.61923 0.0
C232 C 0.3552 0.89627 0.60133 0.0
C233 C 0.34198 0.87228 0.58823 0.0
N234 N 0.38016 0.85626 0.62398 0.0
C235 C 0.36726 0.8326 0.61122 0.0
Co236 Co 0.18378 0.50601 0.37561 0.0
Co237 Co 0.16528 0.58444 0.36453 0.0
O238 O 0.18694 0.5517 0.38169 0.0
C239 C 0.16551 0.51312 0.42221 0.0
O240 O 0.14467 0.53446 0.41529 0.0
C241 C 0.2325 0.60723 0.36481 0.0
O242 O 0.24148 0.57914 0.35722 0.0
O243 O 0.18424 0.56719 0.3371 0.0
O244 O 0.18494 0.51387 0.34279 0.0
H245 H 0.10112 0.62688 0.30095 0.0
H246 H 0.23433 0.53037 0.40559 0.0
O247 O 0.18281 0.498 0.40831 0.0
H248 H 0.29216 0.47577 0.34559 0.0
H249 H 0.20942 0.38982 0.3894 0.0
H250 H 0.14793 0.46588 0.34379 0.0
H251 H 0.23304 0.47738 0.34599 0.0
H252 H 0.21298 0.44807 0.39609 0.0
O253 O 0.20304 0.61308 0.36861 0.0
H254 H 0.12762 0.58509 0.32317 0.0
H255 H 0.15885 0.65531 0.36893 0.0
H256 H 0.14394 0.40788 0.33636 0.0
H257 H 0.29346 0.52911 0.40593 0.0
H258 H 0.17483 0.36941 0.35927 0.0
H259 H 0.32277 0.50174 0.37573 0.0
O260 O 0.13601 0.50819 0.37507 0.0
H261 H 0.16747 0.61904 0.44361 0.0
H262 H 0.09908 0.60275 0.37844 0.0
H263 H 0.0746 0.62088 0.41318 0.0
H264 H 0.10887 0.62906 0.4461 0.0
H265 H 0.19094 0.60072 0.40858 0.0
H266 H 0.13286 0.69791 0.34713 0.0
H267 H 0.10363 0.68377 0.31291 0.0
O268 O 0.12709 0.55656 0.35996 0.0
C269 C 0.18746 0.53845 0.33025 0.0
C270 C 0.11367 0.63333 0.31587 0.0
C271 C 0.13152 0.6732 0.34177 0.0
N272 N 0.14448 0.61772 0.34743 0.0
C273 C 0.12864 0.60976 0.32855 0.0
C274 C 0.14622 0.64899 0.35403 0.0
C275 C 0.11512 0.66525 0.32258 0.0
C276 C 0.2469 0.51814 0.39251 0.0
N277 N 0.23025 0.5038 0.37587 0.0
C278 C 0.28039 0.51762 0.39274 0.0
C279 C 0.29682 0.5023 0.37578 0.0
C280 C 0.27966 0.48774 0.35885 0.0
C281 C 0.24619 0.48878 0.35915 0.0
C282 C 0.19588 0.40634 0.37928 0.0
C283 C 0.16159 0.44929 0.35373 0.0
C284 C 0.19774 0.43933 0.38304 0.0
N285 N 0.18086 0.46032 0.37023 0.0
C286 C 0.15916 0.41648 0.34949 0.0
C287 C 0.17648 0.39491 0.36237 0.0
C288 C 0.11774 0.52899 0.36619 0.0
C289 C 0.15231 0.61569 0.42935 0.0
C290 C 0.11417 0.60632 0.39267 0.0
C291 C 0.10017 0.61663 0.4123 0.0
C292 C 0.11942 0.62125 0.43075 0.0
N293 N 0.14644 0.60081 0.39145 0.0
C294 C 0.16549 0.60548 0.40944 0.0
Co295 Co 0.47749 0.17906 0.87719 0.0
Co296 Co 0.40791 0.15096 0.85321 0.0
O297 O 0.43079 0.17868 0.87386 0.0
C298 C 0.45485 0.16745 0.92253 0.0
O299 O 0.4364 0.1446 0.91478 0.0
C300 C 0.38287 0.2166 0.84364 0.0
O301 O 0.41211 0.22795 0.8453 0.0
O302 O 0.43651 0.16435 0.8286 0.0
O303 O 0.48363 0.17449 0.84497 0.0
H304 H 0.39966 0.06951 0.7927 0.0
H305 H 0.4389 0.23117 0.89721 0.0
O306 O 0.47251 0.18371 0.90963 0.0
H307 H 0.51136 0.28493 0.84491 0.0
H308 H 0.58153 0.21805 0.90951 0.0
H309 H 0.53129 0.14174 0.85811 0.0
H310 H 0.51361 0.2263 0.84989 0.0
H311 H 0.52282 0.21736 0.90451 0.0
O312 O 0.37762 0.18672 0.84597 0.0
H313 H 0.42783 0.10375 0.81952 0.0
H314 H 0.33884 0.14027 0.84254 0.0
H315 H 0.59009 0.14177 0.86249 0.0
H316 H 0.43604 0.2899 0.89287 0.0
H317 H 0.61558 0.18014 0.88834 0.0
H318 H 0.47238 0.31715 0.86651 0.0
O319 O 0.47878 0.13156 0.88048 0.0
H320 H 0.33849 0.16991 0.91944 0.0
H321 H 0.38323 0.08816 0.86952 0.0
H322 H 0.34919 0.07129 0.90056 0.0
H323 H 0.32657 0.11232 0.92579 0.0
H324 H 0.37283 0.1857 0.88828 0.0
H325 H 0.30972 0.10657 0.81589 0.0
H326 H 0.34017 0.0708 0.79077 0.0
O327 O 0.43692 0.11417 0.86039 0.0
C328 C 0.46642 0.17066 0.8279 0.0
C329 C 0.38611 0.08492 0.80361 0.0
C330 C 0.33564 0.10576 0.8166 0.0
N331 N 0.38499 0.1238 0.83267 0.0
C332 C 0.40192 0.10428 0.81886 0.0
C333 C 0.35226 0.12483 0.83162 0.0
C334 C 0.35274 0.08568 0.80252 0.0
C335 C 0.45502 0.24289 0.88588 0.0
N336 N 0.47645 0.22532 0.87388 0.0
C337 C 0.45319 0.27614 0.88342 0.0
C338 C 0.47355 0.2914 0.86859 0.0
C339 C 0.49541 0.27333 0.85645 0.0
C340 C 0.4965 0.24012 0.8593 0.0
C341 C 0.57071 0.20126 0.89816 0.0
C342 C 0.54222 0.15863 0.8693 0.0
C343 C 0.53748 0.20072 0.89529 0.0
N344 N 0.52368 0.17971 0.88089 0.0
C345 C 0.57552 0.15848 0.87175 0.0
C346 C 0.5898 0.17999 0.88627 0.0
C347 C 0.46217 0.10933 0.87176 0.0
C348 C 0.34816 0.15181 0.90854 0.0
C349 C 0.37351 0.10615 0.88044 0.0
C350 C 0.3542 0.09646 0.89797 0.0
C351 C 0.34151 0.11949 0.91211 0.0
N352 N 0.38 0.13789 0.87709 0.0
C353 C 0.36755 0.16061 0.89083 0.0
Co354 Co 0.82305 0.48623 0.37294 0.0
Co355 Co 0.84819 0.41736 0.3478 0.0
O356 O 0.8248 0.43962 0.3711 0.0
C357 C 0.84153 0.4676 0.41866 0.0
O358 O 0.86432 0.44932 0.41058 0.0
C359 C 0.78445 0.3865 0.34756 0.0
O360 O 0.77159 0.4152 0.34628 0.0
O361 O 0.82421 0.44136 0.32483 0.0
O362 O 0.82207 0.49033 0.33999 0.0
H363 H 0.90876 0.40892 0.27666 0.0
H364 H 0.77578 0.44701 0.39731 0.0
O365 O 0.82333 0.48354 0.40585 0.0
H366 H 0.71155 0.5159 0.34828 0.0
H367 H 0.78643 0.59161 0.40469 0.0
H368 H 0.85538 0.53931 0.34943 0.0
H369 H 0.77051 0.52009 0.34887 0.0
H370 H 0.78793 0.53266 0.4015 0.0
O371 O 0.81478 0.38319 0.34791 0.0
H372 H 0.88093 0.43718 0.30672 0.0
H373 H 0.86335 0.34866 0.33903 0.0
H374 H 0.8544 0.59834 0.35191 0.0
H375 H 0.71683 0.44221 0.39739 0.0
H376 H 0.81974 0.62486 0.37971 0.0
H377 H 0.68431 0.47675 0.37269 0.0
O378 O 0.87077 0.48832 0.37271 0.0
H379 H 0.85965 0.35416 0.41767 0.0
H380 H 0.91748 0.40336 0.35559 0.0
H381 H 0.94802 0.37581 0.3847 0.0
H382 H 0.91908 0.3509 0.41601 0.0
H383 H 0.83006 0.38229 0.38834 0.0
H384 H 0.89098 0.31942 0.30929 0.0
H385 H 0.91396 0.3496 0.27783 0.0
O386 O 0.88229 0.45093 0.3473 0.0
C387 C 0.81946 0.4715 0.32351 0.0
C388 C 0.89896 0.39551 0.29031 0.0
C389 C 0.88893 0.34527 0.30861 0.0
N390 N 0.87072 0.3946 0.32468 0.0
C391 C 0.88323 0.41138 0.30741 0.0
C392 C 0.87328 0.36195 0.32539 0.0
C393 C 0.90183 0.36222 0.29097 0.0
C394 C 0.76177 0.46232 0.38665 0.0
N395 N 0.77658 0.48383 0.37311 0.0
C396 C 0.72841 0.45941 0.38672 0.0
C397 C 0.71018 0.47876 0.37283 0.0
C398 C 0.72545 0.50071 0.35911 0.0
C399 C 0.75886 0.5029 0.35945 0.0
C400 C 0.8016 0.58034 0.39249 0.0
C401 C 0.84011 0.55069 0.36148 0.0
C402 C 0.80261 0.54697 0.39065 0.0
N403 N 0.82159 0.53259 0.37521 0.0
C404 C 0.83971 0.58412 0.36285 0.0
C405 C 0.82028 0.59898 0.37846 0.0
C406 C 0.88999 0.47463 0.3594 0.0
C407 C 0.87253 0.36481 0.40408 0.0
C408 C 0.9047 0.39266 0.36918 0.0
C409 C 0.92213 0.37702 0.38559 0.0
C410 C 0.90587 0.36304 0.40315 0.0
N411 N 0.87199 0.39432 0.37021 0.0
C412 C 0.85589 0.38065 0.38736 0.0
Co413 Co 0.50498 0.81339 0.87367 0.0
Co414 Co 0.58287 0.839 0.86548 0.0
O415 O 0.55089 0.81156 0.87918 0.0
C416 C 0.51299 0.82551 0.92053 0.0
O417 O 0.53501 0.84603 0.91433 0.0
C418 C 0.60072 0.77286 0.85427 0.0
O419 O 0.57059 0.76967 0.84849 0.0
O420 O 0.56371 0.83209 0.83598 0.0
O421 O 0.51227 0.81755 0.84134 0.0
H422 H 0.62239 0.92675 0.81589 0.0
H423 H 0.53206 0.76005 0.90006 0.0
O424 O 0.49738 0.80971 0.90614 0.0
H425 H 0.48012 0.7086 0.8364 0.0
H426 H 0.39038 0.78051 0.88618 0.0
H427 H 0.46256 0.85222 0.84498 0.0
H428 H 0.47847 0.76736 0.84092 0.0
H429 H 0.44889 0.77851 0.89217 0.0
O430 O 0.61083 0.79995 0.86117 0.0
H431 H 0.58151 0.8926 0.83349 0.0
H432 H 0.65409 0.84185 0.86798 0.0
H433 H 0.40427 0.85479 0.83828 0.0
H434 H 0.53413 0.7012 0.89625 0.0
H435 H 0.36775 0.81876 0.85898 0.0
H436 H 0.50813 0.67512 0.86419 0.0
O437 O 0.5049 0.86071 0.8764 0.0
H438 H 0.62222 0.80479 0.93995 0.0
H439 H 0.60383 0.89672 0.89055 0.0
H440 H 0.6247 0.90618 0.92792 0.0
H441 H 0.6339 0.86001 0.95293 0.0
H442 H 0.60123 0.79643 0.9025 0.0
H443 H 0.69582 0.87521 0.85059 0.0
H444 H 0.68001 0.91811 0.82441 0.0
O445 O 0.55503 0.87813 0.86962 0.0
C446 C 0.5359 0.82458 0.82891 0.0
C447 C 0.62957 0.9082 0.82732 0.0
C448 C 0.67078 0.87925 0.84678 0.0
N449 N 0.61542 0.8655 0.85189 0.0
C450 C 0.60652 0.88888 0.83739 0.0
C451 C 0.64707 0.8604 0.85654 0.0
C452 C 0.6619 0.90333 0.8321 0.0
C453 C 0.52037 0.74884 0.8862 0.0
N454 N 0.50498 0.76708 0.87082 0.0
C455 C 0.52175 0.71552 0.88408 0.0
C456 C 0.5072 0.70091 0.86606 0.0
C457 C 0.4915 0.71968 0.85046 0.0
C458 C 0.49066 0.75294 0.8531 0.0
C459 C 0.40605 0.79627 0.87702 0.0
C460 C 0.44683 0.83629 0.85391 0.0
C461 C 0.43917 0.79529 0.88037 0.0
N462 N 0.45909 0.81499 0.86876 0.0
C463 C 0.41385 0.83794 0.85011 0.0
C464 C 0.39337 0.81773 0.86175 0.0
C465 C 0.52545 0.88308 0.8741 0.0
C466 C 0.61841 0.82509 0.92918 0.0
C467 C 0.60791 0.8765 0.9013 0.0
C468 C 0.61973 0.882 0.92244 0.0
C469 C 0.62491 0.85608 0.93646 0.0
N470 N 0.60148 0.84603 0.8943 0.0
C471 C 0.60669 0.82049 0.90791 0.0
Co472 Co 0.83045 0.52052 0.87625 0.0
Co473 Co 0.8409 0.60047 0.86272 0.0
O474 O 0.82248 0.56629 0.88049 0.0
C475 C 0.85533 0.53488 0.92022 0.0
O476 O 0.86937 0.55919 0.91056 0.0
C477 C 0.77097 0.60904 0.85793 0.0
O478 O 0.76944 0.57795 0.85474 0.0
O479 O 0.8305 0.57702 0.8352 0.0
O480 O 0.82407 0.52478 0.84358 0.0
H481 H 0.90858 0.64601 0.80202 0.0
H482 H 0.78221 0.54186 0.90897 0.0
O483 O 0.83759 0.51601 0.90904 0.0
H484 H 0.72247 0.47607 0.85555 0.0
H485 H 0.82105 0.40405 0.89678 0.0
H486 H 0.8665 0.48124 0.84395 0.0
H487 H 0.78077 0.48415 0.85148 0.0
H488 H 0.81114 0.46208 0.90101 0.0
O489 O 0.79796 0.62231 0.86156 0.0
H490 H 0.88591 0.60297 0.82507 0.0
H491 H 0.83345 0.67158 0.86212 0.0
H492 H 0.87682 0.42345 0.839 0.0
H493 H 0.72398 0.53419 0.91377 0.0
H494 H 0.85401 0.38441 0.86555 0.0
H495 H 0.69371 0.50117 0.88689 0.0
O496 O 0.87731 0.52744 0.87205 0.0
H497 H 0.81735 0.6437 0.93806 0.0
H498 H 0.89907 0.63363 0.87991 0.0
H499 H 0.91281 0.66112 0.91454 0.0
H500 H 0.87176 0.66632 0.9439 0.0
H501 H 0.80477 0.61612 0.90326 0.0
H502 H 0.85531 0.71532 0.83935 0.0
H503 H 0.89327 0.70265 0.80911 0.0
O504 O 0.88406 0.57945 0.86351 0.0
C505 C 0.82497 0.54794 0.8298 0.0
C506 C 0.89216 0.65184 0.8152 0.0
C507 C 0.86223 0.69075 0.83613 0.0
N508 N 0.85864 0.6348 0.84504 0.0
C509 C 0.87934 0.62759 0.82835 0.0
C510 C 0.84988 0.66587 0.84894 0.0
C511 C 0.88353 0.68362 0.81917 0.0
C512 C 0.76924 0.52721 0.89733 0.0
N513 N 0.78487 0.51331 0.88004 0.0
C514 C 0.73626 0.52306 0.90008 0.0
C515 C 0.71928 0.50456 0.88497 0.0
C516 C 0.7354 0.49048 0.86738 0.0
C517 C 0.76839 0.49519 0.86514 0.0
C518 C 0.83105 0.42081 0.88508 0.0
C519 C 0.8563 0.46438 0.85547 0.0
C520 C 0.82557 0.45369 0.88741 0.0
N521 N 0.83799 0.47496 0.87263 0.0
C522 C 0.86232 0.4317 0.85263 0.0
C523 C 0.84954 0.40981 0.86755 0.0
C524 C 0.89495 0.55126 0.86696 0.0
C525 C 0.83543 0.64163 0.92538 0.0
C526 C 0.88115 0.63568 0.89265 0.0
C527 C 0.88903 0.65135 0.91219 0.0
C528 C 0.86597 0.65428 0.92865 0.0
N529 N 0.85115 0.62332 0.88957 0.0
C530 C 0.82841 0.62615 0.90561 0.0
Co531 Co 0.48827 0.83194 0.37511 0.0
Co532 Co 0.41478 0.84355 0.35168 0.0
O533 O 0.44229 0.82432 0.37394 0.0
C534 C 0.46682 0.84471 0.42051 0.0
O535 O 0.44578 0.86515 0.41264 0.0
C536 C 0.39521 0.77472 0.35166 0.0
O537 O 0.42489 0.7656 0.34805 0.0
O538 O 0.44238 0.82549 0.32793 0.0
O539 O 0.49125 0.83307 0.34248 0.0
H540 H 0.39146 0.90371 0.28198 0.0
H541 H 0.45988 0.77672 0.3988 0.0
O542 O 0.48619 0.83032 0.40774 0.0
H543 H 0.53926 0.72972 0.34807 0.0
H544 H 0.59961 0.81643 0.40534 0.0
H545 H 0.53314 0.87516 0.35172 0.0
H546 H 0.53135 0.78825 0.34974 0.0
H547 H 0.54153 0.80599 0.40262 0.0
O548 O 0.38779 0.80429 0.35214 0.0
H549 H 0.42589 0.881 0.31103 0.0
H550 H 0.34402 0.84444 0.34408 0.0
H551 H 0.59113 0.88625 0.35383 0.0
H552 H 0.46722 0.71806 0.39781 0.0
H553 H 0.62479 0.85674 0.38078 0.0
H554 H 0.50709 0.69418 0.37226 0.0
O555 O 0.48093 0.87905 0.37556 0.0
H556 H 0.35653 0.83996 0.42395 0.0
H557 H 0.38383 0.90715 0.36006 0.0
H558 H 0.35189 0.93025 0.39024 0.0
H559 H 0.33796 0.89652 0.42249 0.0
H560 H 0.38879 0.81802 0.39353 0.0
H561 H 0.30871 0.86664 0.31533 0.0
H562 H 0.3324 0.89662 0.28404 0.0
O563 O 0.44044 0.88402 0.35149 0.0
C564 C 0.47288 0.82685 0.32628 0.0
C565 C 0.38083 0.89082 0.29558 0.0
C566 C 0.3344 0.86996 0.31428 0.0
N567 N 0.38697 0.86166 0.32933 0.0
C568 C 0.4002 0.87797 0.31211 0.0
C569 C 0.35452 0.85738 0.33048 0.0
C570 C 0.34771 0.88679 0.29673 0.0
C571 C 0.47747 0.76654 0.38776 0.0
N572 N 0.49523 0.78593 0.37439 0.0
C573 C 0.48144 0.73329 0.38723 0.0
C574 C 0.50378 0.71991 0.37287 0.0
C575 C 0.52182 0.73983 0.35927 0.0
C576 C 0.51717 0.77297 0.36024 0.0
C577 C 0.58521 0.82938 0.3935 0.0
C578 C 0.54766 0.8621 0.3634 0.0
C579 C 0.55231 0.82361 0.3919 0.0
N580 N 0.53403 0.83976 0.37689 0.0
C581 C 0.58047 0.86854 0.36456 0.0
C582 C 0.59933 0.852 0.37971 0.0
C583 C 0.46278 0.89593 0.36325 0.0
C584 C 0.3624 0.85489 0.40998 0.0
C585 C 0.37814 0.89243 0.37409 0.0
C586 C 0.35988 0.90558 0.39109 0.0
C587 C 0.35204 0.88664 0.40917 0.0
N588 N 0.3883 0.8613 0.375 0.0
C589 C 0.38059 0.84257 0.39265 0.0
Co590 Co 0.1881 0.47742 0.88111 0.0
Co591 Co 0.15325 0.41412 0.85321 0.0
O592 O 0.18035 0.43185 0.87626 0.0
C593 C 0.15917 0.4539 0.92209 0.0
O594 O 0.13817 0.44029 0.90905 0.0
C595 C 0.21689 0.38414 0.84633 0.0
O596 O 0.22943 0.41273 0.84896 0.0
O597 O 0.17328 0.44221 0.83071 0.0
O598 O 0.19371 0.48479 0.84862 0.0
H599 H 0.08053 0.41921 0.78749 0.0
H600 H 0.22547 0.42912 0.90613 0.0
O601 O 0.18178 0.47062 0.91381 0.0
H602 H 0.30536 0.49056 0.86384 0.0
H603 H 0.23473 0.57118 0.92211 0.0
H604 H 0.16841 0.53778 0.85907 0.0
H605 H 0.24787 0.50429 0.86167 0.0
H606 H 0.2247 0.51384 0.91486 0.0
O607 O 0.18656 0.38039 0.8473 0.0
H608 H 0.11378 0.44153 0.8173 0.0
H609 H 0.13636 0.34763 0.83948 0.0
H610 H 0.17803 0.59534 0.86558 0.0
H611 H 0.28272 0.41464 0.90886 0.0
H612 H 0.2114 0.61236 0.8973 0.0
H613 H 0.32308 0.44538 0.88752 0.0
O614 O 0.14177 0.48785 0.87796 0.0
H615 H 0.15368 0.33857 0.91751 0.0
H616 H 0.08582 0.39768 0.86493 0.0
H617 H 0.06035 0.36474 0.89368 0.0
H618 H 0.09437 0.33489 0.92024 0.0
H619 H 0.17813 0.37205 0.88863 0.0
H620 H 0.10344 0.32426 0.80984 0.0
H621 H 0.07519 0.36016 0.78363 0.0
O622 O 0.11956 0.4475 0.85869 0.0
C623 C 0.18704 0.46951 0.83094 0.0
C624 C 0.09261 0.40332 0.79886 0.0
C625 C 0.10552 0.35003 0.81139 0.0
N626 N 0.12674 0.3959 0.83022 0.0
C627 C 0.11139 0.41582 0.81582 0.0
C628 C 0.12415 0.36339 0.82811 0.0
C629 C 0.08966 0.37019 0.79669 0.0
C630 C 0.24294 0.44284 0.89701 0.0
N631 N 0.23339 0.46764 0.88387 0.0
C632 C 0.2753 0.43445 0.89854 0.0
C633 C 0.29793 0.45167 0.88654 0.0
C634 C 0.288 0.47701 0.87323 0.0
C635 C 0.25543 0.48466 0.87206 0.0
C636 C 0.2202 0.56406 0.9082 0.0
C637 C 0.18314 0.545 0.87281 0.0
C638 C 0.2144 0.53165 0.90405 0.0
N639 N 0.1962 0.5225 0.88646 0.0
C640 C 0.18842 0.57762 0.87646 0.0
C641 C 0.20711 0.58715 0.89428 0.0
C642 C 0.11801 0.47465 0.86835 0.0
C643 C 0.1386 0.3514 0.90601 0.0
C644 C 0.10077 0.38483 0.87645 0.0
C645 C 0.08622 0.36615 0.89267 0.0
C646 C 0.10532 0.34938 0.90755 0.0
N647 N 0.13342 0.38674 0.87508 0.0
C648 C 0.15231 0.37028 0.88956 0.0
Co649 Co 0.51477 0.19423 0.37591 0.0
Co650 Co 0.58832 0.15723 0.36871 0.0
O651 O 0.56011 0.18825 0.38275 0.0
C652 C 0.51737 0.17495 0.422 0.0
O653 O 0.53657 0.15218 0.41507 0.0
C654 C 0.61936 0.21975 0.36094 0.0
O655 O 0.59093 0.23121 0.356 0.0
O656 O 0.57248 0.16988 0.33911 0.0
O657 O 0.52409 0.19316 0.34371 0.0
H658 H 0.616 0.06873 0.31599 0.0
H659 H 0.54733 0.23878 0.4067 0.0
O660 O 0.50517 0.19462 0.40828 0.0
H661 H 0.50958 0.30621 0.34535 0.0
H662 H 0.40582 0.24336 0.38759 0.0
H663 H 0.46925 0.16724 0.34333 0.0
H664 H 0.49861 0.2481 0.34575 0.0
H665 H 0.46331 0.2349 0.39531 0.0
O666 O 0.6226 0.19053 0.36661 0.0
H667 H 0.5803 0.1078 0.33414 0.0
H668 H 0.65782 0.14158 0.373 0.0
H669 H 0.41196 0.1752 0.33487 0.0
H670 H 0.55865 0.29682 0.40704 0.0
H671 H 0.37983 0.21349 0.35711 0.0
H672 H 0.53983 0.33092 0.37616 0.0
O673 O 0.50679 0.14719 0.37505 0.0
H674 H 0.62693 0.17827 0.44558 0.0
H675 H 0.59886 0.09479 0.39155 0.0
H676 H 0.61527 0.07894 0.42894 0.0
H677 H 0.62935 0.12086 0.45627 0.0
H678 H 0.61019 0.19305 0.40802 0.0
H679 H 0.69445 0.1031 0.35511 0.0
H680 H 0.67353 0.06622 0.32645 0.0
O681 O 0.55476 0.12339 0.37037 0.0
C682 C 0.54702 0.183 0.33164 0.0
C683 C 0.62538 0.0846 0.3285 0.0
C684 C 0.66942 0.10392 0.35044 0.0
N685 N 0.61692 0.12674 0.35473 0.0
C686 C 0.60526 0.1067 0.33888 0.0
C687 C 0.64859 0.1257 0.36047 0.0
C688 C 0.65766 0.08323 0.33436 0.0
C689 C 0.53875 0.25353 0.39333 0.0
N690 N 0.52215 0.24012 0.3763 0.0
C691 C 0.54536 0.28635 0.39356 0.0
C692 C 0.53483 0.30546 0.37621 0.0
C693 C 0.51787 0.29161 0.35892 0.0
C694 C 0.51176 0.2587 0.35922 0.0
C695 C 0.41958 0.22666 0.37776 0.0
C696 C 0.45549 0.18411 0.35296 0.0
C697 C 0.45211 0.22172 0.38208 0.0
N698 N 0.46965 0.2008 0.36965 0.0
C699 C 0.42303 0.18844 0.34815 0.0
C700 C 0.40501 0.2099 0.36065 0.0
C701 C 0.52438 0.12243 0.37249 0.0
C702 C 0.62094 0.15979 0.43379 0.0
C703 C 0.60499 0.11315 0.40334 0.0
C704 C 0.61432 0.10404 0.42448 0.0
C705 C 0.62225 0.12757 0.4398 0.0
N706 N 0.60363 0.14481 0.3976 0.0
C707 C 0.61159 0.16801 0.41248 0.0
Co708 Co 0.8258 0.48841 0.6265 0.0
Co709 Co 0.841 0.41454 0.6502 0.0
O710 O 0.81939 0.44195 0.62864 0.0
C711 C 0.84109 0.46676 0.58086 0.0
O712 O 0.86098 0.44541 0.589 0.0
C713 C 0.77128 0.39571 0.65413 0.0
O714 O 0.76176 0.42489 0.64938 0.0
O715 O 0.82849 0.44375 0.67481 0.0
O716 O 0.82568 0.49248 0.6592 0.0
H717 H 0.91298 0.39302 0.71473 0.0
H718 H 0.77277 0.45801 0.60163 0.0
O719 O 0.82559 0.48544 0.5936 0.0
H720 H 0.72058 0.53576 0.65115 0.0
H721 H 0.80664 0.59801 0.5943 0.0
H722 H 0.86606 0.53586 0.64997 0.0
H723 H 0.7794 0.52982 0.65088 0.0
H724 H 0.79866 0.53963 0.5977 0.0
O725 O 0.80103 0.38886 0.65497 0.0
H726 H 0.88609 0.42654 0.68686 0.0
H727 H 0.84134 0.34416 0.65966 0.0
H728 H 0.87463 0.59422 0.64723 0.0
H729 H 0.71389 0.46349 0.60113 0.0
H730 H 0.84479 0.6257 0.61923 0.0
H731 H 0.6874 0.50249 0.62609 0.0
O732 O 0.87349 0.48363 0.62672 0.0
H733 H 0.82089 0.35285 0.58066 0.0
H734 H 0.90088 0.37977 0.63728 0.0
H735 H 0.91661 0.34541 0.60612 0.0
H736 H 0.8764 0.3317 0.57752 0.0
H737 H 0.80641 0.38749 0.61197 0.0
H738 H 0.86755 0.30979 0.68733 0.0
H739 H 0.90376 0.33419 0.71507 0.0
O740 O 0.88202 0.43847 0.64596 0.0
C741 C 0.82524 0.47415 0.67599 0.0
C742 C 0.89734 0.38209 0.70268 0.0
C743 C 0.8718 0.33539 0.68733 0.0
N744 N 0.86233 0.38732 0.67157 0.0
C745 C 0.88212 0.40093 0.68682 0.0
C746 C 0.85695 0.35499 0.67174 0.0
C747 C 0.89212 0.34909 0.70288 0.0
C748 C 0.76145 0.47525 0.6124 0.0
N749 N 0.77953 0.49354 0.6263 0.0
C750 C 0.72808 0.47815 0.6121 0.0
C751 C 0.71323 0.5 0.62614 0.0
C752 C 0.73183 0.51864 0.64022 0.0
C753 C 0.76513 0.51506 0.64009 0.0
C754 C 0.81975 0.58456 0.60659 0.0
C755 C 0.85286 0.54942 0.63782 0.0
C756 C 0.81538 0.55149 0.60856 0.0
N757 N 0.83175 0.53439 0.6241 0.0
C758 C 0.85787 0.58245 0.63631 0.0
C759 C 0.84115 0.60009 0.62059 0.0
C760 C 0.89206 0.46357 0.63615 0.0
C761 C 0.83866 0.35873 0.59298 0.0
C762 C 0.88346 0.37432 0.62476 0.0
C763 C 0.89239 0.35463 0.60723 0.0
C764 C 0.86981 0.3469 0.59121 0.0
N765 N 0.85293 0.38602 0.62632 0.0
C766 C 0.83059 0.37831 0.61077 0.0
Co767 Co 0.50866 0.80908 0.12784 0.0
Co768 Co 0.58551 0.83833 0.13501 0.0
O769 O 0.55423 0.8102 0.12119 0.0
C770 C 0.51354 0.82502 0.08129 0.0
O771 O 0.53465 0.84639 0.08762 0.0
C772 C 0.60618 0.77267 0.14446 0.0
O773 O 0.5763 0.76851 0.15052 0.0
O774 O 0.56778 0.82936 0.16474 0.0
O775 O 0.51743 0.81109 0.16003 0.0
H776 H 0.62313 0.92556 0.18575 0.0
H777 H 0.53709 0.75948 0.09878 0.0
O778 O 0.49949 0.80755 0.09551 0.0
H779 H 0.49126 0.70023 0.16144 0.0
H780 H 0.39532 0.77112 0.11672 0.0
H781 H 0.46584 0.84305 0.15908 0.0
H782 H 0.48635 0.7591 0.15928 0.0
H783 H 0.45346 0.77282 0.10927 0.0
O784 O 0.61535 0.80029 0.13796 0.0
H785 H 0.58308 0.89042 0.16816 0.0
H786 H 0.65639 0.84442 0.13134 0.0
H787 H 0.40793 0.84186 0.16725 0.0
H788 H 0.54239 0.70061 0.10021 0.0
H789 H 0.37224 0.8057 0.14597 0.0
H790 H 0.51947 0.67061 0.13175 0.0
O791 O 0.50601 0.85651 0.1272 0.0
H792 H 0.62318 0.8095 0.05908 0.0
H793 H 0.6028 0.89808 0.11094 0.0
H794 H 0.62166 0.91027 0.07344 0.0
H795 H 0.63187 0.86579 0.0472 0.0
H796 H 0.60419 0.7984 0.0967 0.0
H797 H 0.69731 0.87883 0.14868 0.0
H798 H 0.68071 0.91985 0.17603 0.0
O799 O 0.55569 0.87625 0.13238 0.0
C800 C 0.5409 0.81951 0.17218 0.0
C801 C 0.63064 0.90785 0.1738 0.0
C802 C 0.67229 0.88159 0.15302 0.0
N803 N 0.61739 0.86563 0.14861 0.0
C804 C 0.60807 0.88796 0.16374 0.0
C805 C 0.64904 0.86214 0.14329 0.0
C806 C 0.66295 0.90461 0.16836 0.0
C807 C 0.52672 0.74656 0.11242 0.0
N808 N 0.51121 0.76267 0.12884 0.0
C809 C 0.52993 0.71324 0.1132 0.0
C810 C 0.5171 0.69642 0.13092 0.0
C811 C 0.50129 0.71303 0.14759 0.0
C812 C 0.4986 0.74636 0.14629 0.0
C813 C 0.41063 0.78692 0.12614 0.0
C814 C 0.4505 0.82706 0.14988 0.0
C815 C 0.44355 0.78803 0.12196 0.0
N816 N 0.46304 0.80778 0.13388 0.0
C817 C 0.41771 0.82658 0.15452 0.0
C818 C 0.3977 0.80632 0.14256 0.0
C819 C 0.52547 0.87984 0.1296 0.0
C820 C 0.61893 0.82908 0.07039 0.0
C821 C 0.60734 0.87859 0.09964 0.0
C822 C 0.61801 0.88564 0.07844 0.0
C823 C 0.62375 0.86067 0.06373 0.0
N824 N 0.60259 0.84755 0.10604 0.0
C825 C 0.60833 0.82293 0.09175 0.0
Co826 Co 0.19015 0.51392 0.6309 0.0
Co827 Co 0.16032 0.58954 0.64247 0.0
O828 O 0.1883 0.56013 0.6265 0.0
C829 C 0.173 0.52231 0.58401 0.0
O830 O 0.15191 0.54352 0.59076 0.0
C831 C 0.22581 0.6099 0.65298 0.0
O832 O 0.23091 0.57922 0.65611 0.0
O833 O 0.17054 0.56876 0.67115 0.0
O834 O 0.1894 0.51932 0.66375 0.0
H835 H 0.07414 0.62021 0.69622 0.0
H836 H 0.23834 0.54549 0.60239 0.0
O837 O 0.19062 0.50774 0.59799 0.0
H838 H 0.30043 0.49392 0.66164 0.0
H839 H 0.22862 0.40227 0.61372 0.0
H840 H 0.158 0.46782 0.66074 0.0
H841 H 0.24152 0.48891 0.66037 0.0
H842 H 0.22616 0.461 0.60911 0.0
O843 O 0.19807 0.61942 0.64687 0.0
H844 H 0.10923 0.58272 0.67604 0.0
H845 H 0.15326 0.66056 0.64276 0.0
H846 H 0.15996 0.40924 0.66608 0.0
H847 H 0.29724 0.5509 0.60293 0.0
H848 H 0.19545 0.37604 0.64244 0.0
H849 H 0.32866 0.5251 0.63277 0.0
O850 O 0.14277 0.51096 0.6308 0.0
H851 H 0.18686 0.63719 0.56889 0.0
H852 H 0.09972 0.60885 0.62007 0.0
H853 H 0.08642 0.63239 0.58402 0.0
H854 H 0.13018 0.64665 0.55812 0.0
H855 H 0.19906 0.61338 0.60505 0.0
H856 H 0.11887 0.69895 0.66274 0.0
H857 H 0.07887 0.67878 0.68962 0.0
O858 O 0.12258 0.55977 0.63862 0.0
C859 C 0.18133 0.54148 0.67718 0.0
C860 C 0.0914 0.62928 0.6845 0.0
C861 C 0.11654 0.67348 0.66572 0.0
N862 N 0.13304 0.61945 0.65812 0.0
C863 C 0.11125 0.60816 0.67297 0.0
C864 C 0.13598 0.65165 0.6545 0.0
C865 C 0.09409 0.66214 0.6808 0.0
C866 C 0.25189 0.5339 0.61528 0.0
N867 N 0.23655 0.51674 0.63124 0.0
C868 C 0.28522 0.53717 0.61556 0.0
C869 C 0.30283 0.52272 0.63233 0.0
C870 C 0.287 0.50524 0.64854 0.0
C871 C 0.25365 0.50252 0.64775 0.0
C872 C 0.2131 0.41648 0.62414 0.0
C873 C 0.17368 0.45356 0.65051 0.0
C874 C 0.21155 0.44972 0.62157 0.0
N875 N 0.19213 0.46782 0.63475 0.0
C876 C 0.1746 0.42039 0.65355 0.0
C877 C 0.19449 0.40178 0.64027 0.0
C878 C 0.11927 0.52989 0.63437 0.0
C879 C 0.16759 0.63115 0.58005 0.0
C880 C 0.11888 0.61504 0.6089 0.0
C881 C 0.11121 0.62839 0.58852 0.0
C882 C 0.13578 0.63641 0.57401 0.0
N883 N 0.15014 0.60988 0.61468 0.0
C884 C 0.17436 0.6178 0.60058 0.0
Co885 Co 0.49129 0.17399 0.12806 0.0
Co886 Co 0.41785 0.15974 0.15257 0.0
O887 O 0.44517 0.18185 0.13131 0.0
C888 C 0.46575 0.16246 0.08344 0.0
O889 O 0.44466 0.14287 0.09214 0.0
C890 C 0.40209 0.22964 0.15885 0.0
O891 O 0.43104 0.23826 0.15288 0.0
O892 O 0.44853 0.16949 0.17679 0.0
O893 O 0.49682 0.17189 0.16049 0.0
H894 H 0.39634 0.0838 0.21488 0.0
H895 H 0.46216 0.2297 0.1051 0.0
O896 O 0.48649 0.1763 0.09548 0.0
H897 H 0.54295 0.27567 0.15514 0.0
H898 H 0.59979 0.1915 0.09386 0.0
H899 H 0.53856 0.13071 0.14922 0.0
H900 H 0.53476 0.2172 0.15333 0.0
H901 H 0.54186 0.20112 0.09885 0.0
O902 O 0.39407 0.20022 0.15932 0.0
H903 H 0.42968 0.11147 0.1873 0.0
H904 H 0.34801 0.16177 0.1637 0.0
H905 H 0.59646 0.12043 0.14485 0.0
H906 H 0.46993 0.28827 0.10616 0.0
H907 H 0.62748 0.15097 0.11701 0.0
H908 H 0.51047 0.31164 0.13139 0.0
O909 O 0.48502 0.12658 0.12705 0.0
H910 H 0.35412 0.18719 0.08508 0.0
H911 H 0.38019 0.10232 0.13851 0.0
H912 H 0.34401 0.09018 0.10758 0.0
H913 H 0.33074 0.13285 0.08058 0.0
H914 H 0.39053 0.19807 0.11611 0.0
H915 H 0.31386 0.13486 0.19113 0.0
H916 H 0.33799 0.09546 0.21691 0.0
O917 O 0.43997 0.11819 0.14641 0.0
C918 C 0.47902 0.17193 0.17751 0.0
C919 C 0.38552 0.10083 0.20368 0.0
C920 C 0.33924 0.12952 0.19037 0.0
N921 N 0.39078 0.13799 0.17378 0.0
C922 C 0.40426 0.11648 0.18798 0.0
C923 C 0.35872 0.14474 0.17491 0.0
C924 C 0.35279 0.10741 0.20483 0.0
C925 C 0.48011 0.23964 0.11594 0.0
N926 N 0.49801 0.22001 0.12911 0.0
C927 C 0.48429 0.27285 0.11655 0.0
C928 C 0.50699 0.28594 0.13074 0.0
C929 C 0.5252 0.26578 0.14409 0.0
C930 C 0.52035 0.23268 0.14306 0.0
C931 C 0.58655 0.17808 0.10607 0.0
C932 C 0.55193 0.14421 0.13715 0.0
C933 C 0.55374 0.18339 0.10895 0.0
N934 N 0.53691 0.16665 0.12442 0.0
C935 C 0.58469 0.13823 0.13471 0.0
C936 C 0.60208 0.15535 0.11907 0.0
C937 C 0.46453 0.10808 0.13599 0.0
C938 C 0.35979 0.16837 0.0967 0.0
C939 C 0.3749 0.12082 0.12668 0.0
C940 C 0.35419 0.11391 0.10928 0.0
C941 C 0.3467 0.13787 0.09417 0.0
N942 N 0.38784 0.1507 0.12897 0.0
C943 C 0.38036 0.1744 0.11433 0.0
H944 H 0.08081 0.51513 0.12505 0.0
H945 H 0.06916 0.42725 0.16272 0.0
H946 H 0.01192 0.43861 0.16689 0.0
H947 H 0.02351 0.56271 0.15688 0.0
H948 H 0.00811 0.58381 0.13327 0.0
H949 H 0.04899 0.56971 0.13344 0.0
H950 H 0.03873 0.53846 0.09734 0.0
H951 H 0.99787 0.55251 0.09704 0.0
H952 H 0.00617 0.51011 0.09609 0.0
H953 H 0.95618 0.45676 0.16573 0.0
H954 H 0.90358 0.48193 0.15954 0.0
H955 H 0.94908 0.55959 0.12387 0.0
C956 C 0.06622 0.49834 0.13422 0.0
C957 C 0.07973 0.47018 0.14344 0.0
C958 C 0.05968 0.44891 0.15537 0.0
C959 C 0.027 0.45517 0.15793 0.0
C960 C 0.0145 0.48291 0.14864 0.0
C961 C 0.0333 0.5043 0.13707 0.0
C962 C 0.01317 0.53204 0.12849 0.0
C963 C 0.0241 0.56396 0.13863 0.0
C964 C 0.01404 0.53334 0.10324 0.0
C965 C 0.98017 0.52249 0.13683 0.0
C966 C 0.98175 0.49402 0.14841 0.0
C967 C 0.95459 0.4792 0.15687 0.0
C968 C 0.92483 0.49361 0.15321 0.0
C969 C 0.9224 0.52266 0.14135 0.0
C970 C 0.95046 0.53762 0.13331 0.0
H971 H 0.43744 0.94421 0.63932 0.0
H972 H 0.52428 0.89801 0.61543 0.0
H973 H 0.55019 0.95041 0.61198 0.0
H974 H 0.44317 0.01451 0.60334 0.0
H975 H 0.42841 0.04196 0.62388 0.0
H976 H 0.41569 0.00067 0.62414 0.0
H977 H 0.43526 0.99508 0.66435 0.0
H978 H 0.44808 0.03631 0.66419 0.0
H979 H 0.47618 0.005 0.67104 0.0
H980 H 0.56843 0.00638 0.61305 0.0
H981 H 0.57711 0.06434 0.61663 0.0
H982 H 0.47858 0.07669 0.63813 0.0
C983 C 0.46181 0.94515 0.63321 0.0
C984 C 0.47869 0.91674 0.62768 0.0
C985 C 0.51062 0.91918 0.61976 0.0
C986 C 0.52569 0.94893 0.61774 0.0
C987 C 0.50857 0.97628 0.62347 0.0
C988 C 0.47729 0.97489 0.63085 0.0
C989 C 0.46471 0.00832 0.63594 0.0
C990 C 0.43631 0.01686 0.62093 0.0
C991 C 0.45552 0.01134 0.66033 0.0
C992 C 0.49402 0.02845 0.63053 0.0
C993 C 0.51899 0.00928 0.62345 0.0
C994 C 0.54899 0.02175 0.61835 0.0
C995 C 0.55373 0.05478 0.62053 0.0
C996 C 0.52855 0.07518 0.62753 0.0
C997 C 0.49818 0.06177 0.63245 0.0
H998 H 0.07111 0.50912 0.39493 0.0
H999 H 0.08951 0.53136 0.32651 0.0
H1000 H 0.03264 0.52108 0.3176 0.0
H1001 H 0.01218 0.44633 0.38619 0.0
H1002 H 0.9872 0.45857 0.40886 0.0
H1003 H 0.02973 0.46598 0.40968 0.0
H1004 H 0.01872 0.52642 0.41614 0.0
H1005 H 0.97615 0.51924 0.4151 0.0
H1006 H 0.99408 0.54819 0.39689 0.0
H1007 H 0.97501 0.50708 0.31581 0.0
H1008 H 0.91837 0.49178 0.32144 0.0
H1009 H 0.93524 0.4831 0.39147 0.0
C1010 C 0.06305 0.51131 0.37808 0.0
C1011 C 0.08442 0.52053 0.36127 0.0
C1012 C 0.07327 0.52406 0.33948 0.0
C1013 C 0.04112 0.51834 0.3343 0.0
C1014 C 0.02041 0.50972 0.35122 0.0
C1015 C 0.03074 0.50638 0.37269 0.0
C1016 C 0.00303 0.49808 0.3878 0.0
C1017 C 0.00836 0.46529 0.39877 0.0
C1018 C 0.99769 0.52457 0.405 0.0
C1019 C 0.97569 0.49692 0.37139 0.0
C1020 C 0.98641 0.50352 0.35037 0.0
C1021 C 0.96618 0.5023 0.3322 0.0
C1022 C 0.93415 0.49369 0.33553 0.0
C1023 C 0.92264 0.48703 0.35688 0.0
C1024 C 0.94349 0.489 0.37508 0.0
H1025 H 0.55179 0.94035 0.85958 0.0
H1026 H 0.47289 0.90078 0.89748 0.0
H1027 H 0.45127 0.9549 0.90312 0.0
H1028 H 0.56063 0.01498 0.89173 0.0
H1029 H 0.56867 0.03925 0.86786 0.0
H1030 H 0.58001 0.99752 0.8681 0.0
H1031 H 0.5473 0.9881 0.83252 0.0
H1032 H 0.53587 0.02974 0.83216 0.0
H1033 H 0.50547 0.99907 0.83183 0.0
H1034 H 0.43577 0.01169 0.90298 0.0
H1035 H 0.42681 0.06936 0.89641 0.0
H1036 H 0.51469 0.07416 0.85856 0.0
C1037 C 0.53024 0.94321 0.86932 0.0
C1038 C 0.51405 0.91624 0.87805 0.0
C1039 C 0.48565 0.92094 0.89047 0.0
C1040 C 0.47322 0.95165 0.89391 0.0
C1041 C 0.48937 0.9776 0.88485 0.0
C1042 C 0.51723 0.9739 0.8728 0.0
C1043 C 0.52854 0.00598 0.86387 0.0
C1044 C 0.56142 0.01496 0.87347 0.0
C1045 C 0.52933 0.00569 0.8386 0.0
C1046 C 0.50235 0.02801 0.87248 0.0
C1047 C 0.48021 0.01098 0.88469 0.0
C1048 C 0.45303 0.02538 0.8936 0.0
C1049 C 0.44802 0.05803 0.8897 0.0
C1050 C 0.47003 0.07588 0.87703 0.0
C1051 C 0.4978 0.06091 0.86855 0.0
H1052 H 0.92751 0.49424 0.86301 0.0
H1053 H 0.94204 0.59692 0.86942 0.0
H1054 H 0.00052 0.58837 0.87037 0.0
H1055 H 0.99071 0.46922 0.89841 0.0
H1056 H 0.00231 0.4354 0.88176 0.0
H1057 H 0.96146 0.44947 0.88132 0.0
H1058 H 0.96441 0.45614 0.83906 0.0
H1059 H 0.00523 0.44194 0.83932 0.0
H1060 H 0.99581 0.48025 0.8272 0.0
H1061 H 0.05717 0.56848 0.87287 0.0
H1062 H 0.1085 0.53905 0.87348 0.0
H1063 H 0.05745 0.44961 0.86327 0.0
C1064 C 0.94297 0.51496 0.86456 0.0
C1065 C 0.93011 0.54627 0.86631 0.0
C1066 C 0.95123 0.57272 0.86808 0.0
C1067 C 0.98452 0.56811 0.86868 0.0
C1068 C 0.99635 0.53694 0.86718 0.0
C1069 C 0.97627 0.51084 0.86486 0.0
C1070 C 0.99521 0.47989 0.86324 0.0
C1071 C 0.98692 0.45716 0.88232 0.0
C1072 C 0.98985 0.4636 0.84087 0.0
C1073 C 0.02906 0.49265 0.8653 0.0
C1074 C 0.02915 0.52559 0.86773 0.0
C1075 C 0.05744 0.54272 0.87076 0.0
C1076 C 0.08647 0.52575 0.87118 0.0
C1077 C 0.08705 0.49203 0.86832 0.0
C1078 C 0.05787 0.47538 0.86529 0.0
H1079 H 0.54927 0.06413 0.38442 0.0
H1080 H 0.46426 0.10954 0.35737 0.0
H1081 H 0.4396 0.05635 0.35202 0.0
H1082 H 0.55103 0.99632 0.34936 0.0
H1083 H 0.56322 0.9684 0.37037 0.0
H1084 H 0.5742 0.01003 0.37253 0.0
H1085 H 0.54749 0.01328 0.41091 0.0
H1086 H 0.53669 0.97156 0.40897 0.0
H1087 H 0.50621 0.00134 0.41405 0.0
H1088 H 0.42664 0.99882 0.34626 0.0
H1089 H 0.42214 0.94023 0.34523 0.0
H1090 H 0.51331 0.93159 0.37935 0.0
C1091 C 0.52539 0.06286 0.37751 0.0
C1092 C 0.50869 0.09088 0.37118 0.0
C1093 C 0.47737 0.08835 0.3624 0.0
C1094 C 0.46326 0.05827 0.3592 0.0
C1095 C 0.48058 0.03111 0.36526 0.0
C1096 C 0.51067 0.03307 0.37463 0.0
C1097 C 0.52378 1.00011 0.38009 0.0
C1098 C 0.5549 0.99333 0.36732 0.0
C1099 C 0.52883 0.99636 0.40498 0.0
C1100 C 0.49651 0.97929 0.37199 0.0
C1101 C 0.47207 0.99773 0.36326 0.0
C1102 C 0.44521 0.9841 0.35353 0.0
C1103 C 0.44288 0.95069 0.3531 0.0
C1104 C 0.46689 0.93116 0.36282 0.0
C1105 C 0.49421 0.9458 0.37221 0.0
H1106 H 0.92586 0.52056 0.63087 0.0
H1107 H 0.93835 0.41808 0.64035 0.0
H1108 H 0.99654 0.42464 0.63962 0.0
H1109 H 0.9949 0.53317 0.59516 0.0
H1110 H 0.0062 0.57075 0.60757 0.0
H1111 H 0.96478 0.55845 0.60752 0.0
H1112 H 0.96282 0.56427 0.64984 0.0
H1113 H 0.00423 0.57656 0.65003 0.0
H1114 H 0.99157 0.54294 0.66647 0.0
H1115 H 0.05252 0.44079 0.63766 0.0
H1116 H 0.10515 0.46648 0.63709 0.0
H1117 H 0.0596 0.56 0.63138 0.0
C1118 C 0.94091 0.49952 0.63257 0.0
C1119 C 0.92728 0.46863 0.63535 0.0
C1120 C 0.94787 0.44186 0.63798 0.0
C1121 C 0.98113 0.44533 0.6376 0.0
C1122 C 0.99376 0.47587 0.63491 0.0
C1123 C 0.97453 0.50265 0.63268 0.0
C1124 C 0.99495 0.53282 0.63119 0.0
C1125 C 0.9899 0.5498 0.60904 0.0
C1126 C 0.98797 0.55549 0.65054 0.0
C1127 C 0.02849 0.51855 0.63284 0.0
C1128 C 0.02691 0.4856 0.63476 0.0
C1129 C 0.05418 0.46659 0.63624 0.0
C1130 C 0.08407 0.48155 0.63585 0.0
C1131 C 0.08675 0.51537 0.63422 0.0
C1132 C 0.05842 0.53414 0.63273 0.0
H1133 H 0.52061 0.07307 0.13066 0.0
H1134 H 0.41739 0.0632 0.137 0.0
H1135 H 0.42242 0.00488 0.13447 0.0
H1136 H 0.53318 0.00605 0.09284 0.0
H1137 H 0.56984 0.99298 0.10575 0.0
H1138 H 0.55854 0.0347 0.10661 0.0
H1139 H 0.56233 0.03396 0.14907 0.0
H1140 H 0.5736 0.99226 0.14835 0.0
H1141 H 0.53949 0.00486 0.16437 0.0
H1142 H 0.43742 0.94846 0.1317 0.0
H1143 H 0.46205 0.89523 0.13083 0.0
H1144 H 0.55672 0.93878 0.12816 0.0
C1145 C 0.4991 0.05858 0.13126 0.0
C1146 C 0.46848 0.0729 0.13383 0.0
C1147 C 0.44101 0.05305 0.13498 0.0
C1148 C 0.44361 0.01976 0.13349 0.0
C1149 C 0.47395 0.00642 0.13114 0.0
C1150 C 0.50132 0.02497 0.13019 0.0
C1151 C 0.53105 0.00387 0.12881 0.0
C1152 C 0.54922 0.00976 0.10721 0.0
C1153 C 0.55291 0.00905 0.14884 0.0
C1154 C 0.51589 0.97073 0.12916 0.0
C1155 C 0.4829 0.97305 0.13029 0.0
C1156 C 0.46325 0.94621 0.13081 0.0
C1157 C 0.4776 0.91598 0.13028 0.0
C1158 C 0.51144 0.91258 0.12943 0.0
C1159 C 0.53083 0.94048 0.12883 0.0
H1160 H 0.18366 0.48223 0.30639 0.0
H1161 H 0.20297 0.58409 0.2997 0.0
H1162 H 0.20826 0.57747 0.25966 0.0
H1163 H 0.2379 0.45503 0.2627 0.0
H1164 H 0.21087 0.42408 0.25357 0.0
H1165 H 0.21095 0.43631 0.28197 0.0
H1166 H 0.15008 0.4483 0.27967 0.0
H1167 H 0.14982 0.43623 0.25127 0.0
H1168 H 0.13541 0.47543 0.2589 0.0
H1169 H 0.20811 0.56061 0.21992 0.0
H1170 H 0.20245 0.53452 0.18369 0.0
H1171 H 0.18336 0.44377 0.2162 0.0
C1172 C 0.18951 0.50307 0.29657 0.0
C1173 C 0.19301 0.53367 0.30633 0.0
C1174 C 0.20019 0.56036 0.29273 0.0
C1175 C 0.20331 0.55687 0.26991 0.0
C1176 C 0.19924 0.52652 0.2608 0.0
C1177 C 0.19257 0.50006 0.2737 0.0
C1178 C 0.18779 0.47041 0.25966 0.0
C1179 C 0.21341 0.44496 0.26478 0.0
C1180 C 0.15376 0.45681 0.26255 0.0
C1181 C 0.19241 0.48446 0.23689 0.0
C1182 C 0.19916 0.51682 0.2379 0.0
C1183 C 0.20314 0.53519 0.21893 0.0
C1184 C 0.19986 0.52014 0.1984 0.0
C1185 C 0.19263 0.48701 0.19694 0.0
C1186 C 0.18922 0.46905 0.21658 0.0
H1187 H 0.48284 0.16735 0.69697 0.0
H1188 H 0.58564 0.17752 0.70635 0.0
H1189 H 0.57746 0.17997 0.74644 0.0
H1190 H 0.45798 0.22004 0.74076 0.0
H1191 H 0.42443 0.19544 0.74871 0.0
H1192 H 0.43812 0.19532 0.72064 0.0
H1193 H 0.44508 0.13364 0.72221 0.0
H1194 H 0.43142 0.13352 0.75029 0.0
H1195 H 0.46972 0.11615 0.74341 0.0
H1196 H 0.55852 0.18151 0.7851 0.0
H1197 H 0.53043 0.17958 0.82049 0.0
H1198 H 0.43968 0.16673 0.78641 0.0
C1199 C 0.50365 0.17025 0.70742 0.0
C1200 C 0.5349 0.17236 0.6985 0.0
C1201 C 0.56149 0.1758 0.71279 0.0
C1202 C 0.55709 0.17731 0.73558 0.0
C1203 C 0.52601 0.17513 0.7438 0.0
C1204 C 0.49975 0.17147 0.73022 0.0
C1205 C 0.46901 0.16875 0.74339 0.0
C1206 C 0.44603 0.19655 0.73805 0.0
C1207 C 0.45287 0.13607 0.7396 0.0
C1208 C 0.48216 0.17148 0.76652 0.0
C1209 C 0.51506 0.17535 0.7663 0.0
C1210 C 0.53276 0.17845 0.78552 0.0
C1211 C 0.51647 0.17734 0.80558 0.0
C1212 C 0.48273 0.17296 0.80634 0.0
C1213 C 0.46542 0.17012 0.78645 0.0
H1214 H 0.8214 0.48378 0.19213 0.0
H1215 H 0.79721 0.58431 0.20038 0.0
H1216 H 0.79042 0.57581 0.24016 0.0
H1217 H 0.76756 0.4519 0.23576 0.0
H1218 H 0.79643 0.42234 0.24452 0.0
H1219 H 0.79543 0.43513 0.21623 0.0
H1220 H 0.85551 0.45037 0.21854 0.0
H1221 H 0.85666 0.43787 0.24684 0.0
H1222 H 0.86868 0.47794 0.23949 0.0
H1223 H 0.79162 0.55841 0.27904 0.0
H1224 H 0.80004 0.53294 0.31499 0.0
H1225 H 0.82369 0.44318 0.28248 0.0
C1226 C 0.81382 0.50374 0.20225 0.0
C1227 C 0.80958 0.53467 0.19312 0.0
C1228 C 0.80051 0.56041 0.207 0.0
C1229 C 0.79651 0.55581 0.22962 0.0
C1230 C 0.80172 0.52532 0.23821 0.0
C1231 C 0.81006 0.49964 0.22502 0.0
C1232 C 0.81669 0.47 0.23882 0.0
C1233 C 0.79258 0.44326 0.23352 0.0
C1234 C 0.85145 0.45837 0.23573 0.0
C1235 C 0.81139 0.48329 0.26177 0.0
C1236 C 0.80252 0.51519 0.26095 0.0
C1237 C 0.79806 0.5333 0.27992 0.0
C1238 C 0.80296 0.51855 0.30032 0.0
C1239 C 0.81222 0.48588 0.30171 0.0
C1240 C 0.81614 0.46802 0.28207 0.0
H1241 H 0.4792 0.82872 0.80606 0.0
H1242 H 0.582 0.81704 0.79755 0.0
H1243 H 0.57457 0.81439 0.75743 0.0
H1244 H 0.45435 0.77637 0.76195 0.0
H1245 H 0.42139 0.80159 0.75361 0.0
H1246 H 0.43444 0.8015 0.78183 0.0
H1247 H 0.44242 0.86303 0.78028 0.0
H1248 H 0.42942 0.86336 0.75206 0.0
H1249 H 0.46783 0.88002 0.75934 0.0
H1250 H 0.5565 0.81244 0.71876 0.0
H1251 H 0.5293 0.81447 0.68306 0.0
H1252 H 0.43802 0.82988 0.71598 0.0
C1253 C 0.50012 0.82542 0.79575 0.0
C1254 C 0.53119 0.82298 0.80491 0.0
C1255 C 0.558 0.81908 0.79088 0.0
C1256 C 0.55403 0.81741 0.76809 0.0
C1257 C 0.52314 0.81999 0.7596 0.0
C1258 C 0.49665 0.82417 0.77291 0.0
C1259 C 0.46627 0.82744 0.7594 0.0
C1260 C 0.44273 0.80009 0.7645 0.0
C1261 C 0.45057 0.86043 0.76299 0.0
C1262 C 0.47991 0.82442 0.73642 0.0
C1263 C 0.51272 0.81985 0.73701 0.0
C1264 C 0.53083 0.81611 0.71803 0.0
C1265 C 0.51505 0.81729 0.6978 0.0
C1266 C 0.48145 0.82248 0.69663 0.0
C1267 C 0.4637 0.82601 0.71628 0.0
H1268 H 0.82994 0.48997 0.80772 0.0
H1269 H 0.80875 0.59104 0.79807 0.0
H1270 H 0.80405 0.582 0.75831 0.0
H1271 H 0.8787 0.48108 0.76035 0.0
H1272 H 0.86498 0.44137 0.75348 0.0
H1273 H 0.86428 0.45471 0.78163 0.0
H1274 H 0.80362 0.44205 0.78397 0.0
H1275 H 0.80415 0.42849 0.75584 0.0
H1276 H 0.77655 0.45949 0.76418 0.0
H1277 H 0.8051 0.56375 0.71982 0.0
H1278 H 0.81074 0.53691 0.68421 0.0
H1279 H 0.83096 0.44686 0.71747 0.0
C1280 C 0.82379 0.51006 0.79727 0.0
C1281 C 0.81968 0.54124 0.80611 0.0
C1282 C 0.81212 0.56697 0.79178 0.0
C1283 C 0.8093 0.56209 0.76913 0.0
C1284 C 0.81408 0.53133 0.76091 0.0
C1285 C 0.82105 0.50566 0.77444 0.0
C1286 C 0.82643 0.47538 0.761 0.0
C1287 C 0.86063 0.46238 0.76432 0.0
C1288 C 0.80118 0.44984 0.76658 0.0
C1289 C 0.82179 0.48827 0.73785 0.0
C1290 C 0.81456 0.52059 0.73832 0.0
C1291 C 0.81038 0.53835 0.7192 0.0
C1292 C 0.81366 0.52277 0.69898 0.0
C1293 C 0.82098 0.48957 0.69786 0.0
C1294 C 0.82496 0.47212 0.71768 0.0
H1295 H 0.44427 0.8193 0.28555 0.0
H1296 H 0.53711 0.825 0.31789 0.0
H1297 H 0.56398 0.8207 0.28227 0.0
H1298 H 0.46892 0.76243 0.24251 0.0
H1299 H 0.44494 0.78155 0.22163 0.0
H1300 H 0.43238 0.78288 0.24995 0.0
H1301 H 0.43007 0.84493 0.24817 0.0
H1302 H 0.44265 0.84374 0.21988 0.0
H1303 H 0.46511 0.86689 0.23959 0.0
H1304 H 0.58132 0.8197 0.24358 0.0
H1305 H 0.58799 0.82062 0.20338 0.0
H1306 H 0.48459 0.81461 0.19542 0.0
C1307 C 0.47023 0.81917 0.28516 0.0
C1308 C 0.48844 0.82232 0.30464 0.0
C1309 C 0.52244 0.82246 0.30333 0.0
C1310 C 0.53807 0.82002 0.28312 0.0
C1311 C 0.5195 0.81734 0.26428 0.0
C1312 C 0.48638 0.81673 0.26502 0.0
C1313 C 0.47234 0.81489 0.24208 0.0
C1314 C 0.45354 0.78357 0.23886 0.0
C1315 C 0.45131 0.84437 0.23715 0.0
C1316 C 0.5028 0.8151 0.22847 0.0
C1317 C 0.52968 0.81644 0.24166 0.0
C1318 C 0.56051 0.81831 0.23301 0.0
C1319 C 0.56404 0.81893 0.21016 0.0
C1320 C 0.53685 0.81756 0.19624 0.0
C1321 C 0.50587 0.81533 0.20559 0.0
H1322 H 0.18235 0.44271 0.78972 0.0
H1323 H 0.20463 0.53201 0.82312 0.0
H1324 H 0.20773 0.5595 0.78727 0.0
H1325 H 0.23467 0.45625 0.7418 0.0
H1326 H 0.20673 0.43779 0.72309 0.0
H1327 H 0.20858 0.42471 0.75128 0.0
H1328 H 0.14776 0.43587 0.75553 0.0
H1329 H 0.14578 0.4492 0.72743 0.0
H1330 H 0.13233 0.4752 0.74923 0.0
H1331 H 0.20269 0.57844 0.74812 0.0
H1332 H 0.1949 0.58653 0.70828 0.0
H1333 H 0.17853 0.48451 0.70004 0.0
C1334 C 0.18845 0.46794 0.78955 0.0
C1335 C 0.19321 0.48515 0.80938 0.0
C1336 C 0.20099 0.51819 0.80827 0.0
C1337 C 0.20273 0.53406 0.78795 0.0
C1338 C 0.19706 0.51654 0.76882 0.0
C1339 C 0.19059 0.48409 0.76942 0.0
C1340 C 0.18463 0.47096 0.74652 0.0
C1341 C 0.21018 0.44595 0.74031 0.0
C1342 C 0.15061 0.45699 0.74457 0.0
C1343 C 0.18817 0.50123 0.73295 0.0
C1344 C 0.19519 0.52728 0.74616 0.0
C1345 C 0.19768 0.55815 0.7376 0.0
C1346 C 0.19303 0.56252 0.71496 0.0
C1347 C 0.1863 0.53614 0.70103 0.0
C1348 C 0.18409 0.50507 0.71021 0.0
H1349 H 0.49123 0.18908 0.30806 0.0
H1350 H 0.59449 0.18057 0.3007 0.0
H1351 H 0.58813 0.17921 0.26041 0.0
H1352 H 0.47161 0.13416 0.26614 0.0
H1353 H 0.43674 0.15568 0.25667 0.0
H1354 H 0.44933 0.15921 0.28487 0.0
H1355 H 0.45235 0.22095 0.28088 0.0
H1356 H 0.43951 0.21769 0.25269 0.0
H1357 H 0.47632 0.23818 0.25925 0.0
H1358 H 0.57072 0.17624 0.22137 0.0
H1359 H 0.5435 0.1713 0.18573 0.0
H1360 H 0.45107 0.17965 0.21831 0.0
C1361 C 0.51256 0.1875 0.29799 0.0
C1362 C 0.54339 0.18512 0.30753 0.0
C1363 C 0.57064 0.18248 0.29375 0.0
C1364 C 0.56729 0.18174 0.27086 0.0
C1365 C 0.53653 0.18346 0.26202 0.0
C1366 C 0.50962 0.18628 0.27511 0.0
C1367 C 0.4792 0.18576 0.26148 0.0
C1368 C 0.45798 0.15699 0.26766 0.0
C1369 C 0.46076 0.21754 0.26371 0.0
C1370 C 0.49326 0.18193 0.23868 0.0
C1371 C 0.52636 0.18094 0.2394 0.0
C1372 C 0.54481 0.17713 0.22055 0.0
C1373 C 0.52903 0.1743 0.20036 0.0
C1374 C 0.49505 0.17507 0.19913 0.0
C1375 C 0.47703 0.17895 0.21864 0.0
H1376 H 0.18969 0.48659 0.95599 0.0
H1377 H 0.1217 0.4101 0.94283 0.0
H1378 H 0.11446 0.40191 0.98248 0.0
H1379 H 0.2262 0.44993 0.00441 0.0
H1380 H 0.23025 0.48728 0.01905 0.0
H1381 H 0.23122 0.4869 0.98945 0.0
H1382 H 0.18473 0.52808 0.98843 0.0
H1383 H 0.18357 0.52853 0.01802 0.0
H1384 H 0.14784 0.51924 0.00263 0.0
H1385 H 0.11338 0.40197 0.02306 0.0
H1386 H 0.11834 0.41046 0.06285 0.0
H1387 H 0.18645 0.48738 0.05119 0.0
C1388 C 0.17347 0.46799 0.96149 0.0
C1389 C 0.15624 0.44902 0.9462 0.0
C1390 C 0.13507 0.42509 0.95411 0.0
C1391 C 0.13081 0.42015 0.97666 0.0
C1392 C 0.1478 0.43935 0.99126 0.0
C1393 C 0.16872 0.46281 0.98413 0.0
C1394 C 0.18336 0.48044 0.00358 0.0
C1395 C 0.21993 0.47585 0.00415 0.0
C1396 C 0.17433 0.51619 0.00313 0.0
C1397 C 0.16725 0.46324 0.02265 0.0
C1398 C 0.14695 0.43958 0.01504 0.0
C1399 C 0.12921 0.42042 0.02925 0.0
C1400 C 0.13219 0.42551 0.05189 0.0
C1401 C 0.15271 0.44967 0.06027 0.0
C1402 C 0.17053 0.46875 0.04535 0.0
H1403 H 0.54956 0.14524 0.45514 0.0
H1404 H 0.47189 0.2122 0.44258 0.0
H1405 H 0.46236 0.21679 0.48265 0.0
H1406 H 0.51372 0.10401 0.50014 0.0
H1407 H 0.55085 0.09978 0.51503 0.0
H1408 H 0.55124 0.10191 0.48549 0.0
H1409 H 0.59051 0.14996 0.4872 0.0
H1410 H 0.59035 0.14792 0.51675 0.0
H1411 H 0.57994 0.18485 0.50312 0.0
H1412 H 0.46137 0.21331 0.52437 0.0
H1413 H 0.46999 0.20341 0.56403 0.0
H1414 H 0.54893 0.1394 0.54825 0.0
C1415 C 0.53041 0.1608 0.46074 0.0
C1416 C 0.51128 0.17821 0.44577 0.0
C1417 C 0.48678 0.19861 0.45381 0.0
C1418 C 0.48118 0.20133 0.4765 0.0
C1419 C 0.50048 0.18368 0.49082 0.0
C1420 C 0.52472 0.16398 0.4832 0.0
C1421 C 0.54252 0.14794 0.50184 0.0
C1422 C 0.53937 0.11124 0.50054 0.0
C1423 C 0.57792 0.1583 0.50225 0.0
C1424 C 0.52431 0.1614 0.52121 0.0
C1425 C 0.50015 0.18197 0.51459 0.0
C1426 C 0.48023 0.19726 0.52972 0.0
C1427 C 0.48527 0.19146 0.55219 0.0
C1428 C 0.51006 0.17057 0.55923 0.0
C1429 C 0.52969 0.1554 0.54344 0.0
H1430 H 0.81413 0.50809 0.04766 0.0
H1431 H 0.91098 0.5413 0.06047 0.0
H1432 H 0.92236 0.54116 0.02088 0.0
H1433 H 0.83422 0.45702 0.99912 0.0
H1434 H 0.79825 0.46807 0.98453 0.0
H1435 H 0.7983 0.46694 0.01415 0.0
H1436 H 0.77867 0.52583 0.01525 0.0
H1437 H 0.77864 0.52718 0.98569 0.0
H1438 H 0.80132 0.55628 1.00109 0.0
H1439 H 0.9223 0.54326 0.98074 0.0
H1440 H 0.91092 0.54686 0.94117 0.0
H1441 H 0.81442 0.5117 0.95243 0.0
C1442 C 0.83792 0.51454 0.04207 0.0
C1443 C 0.86176 0.52453 0.05717 0.0
C1444 C 0.89236 0.53358 0.04925 0.0
C1445 C 0.89913 0.53345 0.02677 0.0
C1446 C 0.87507 0.52422 0.01228 0.0
C1447 C 0.84509 0.5148 0.01947 0.0
C1448 C 0.82303 0.50837 1.00004 0.0
C1449 C 0.81285 0.47299 0.99943 0.0
C1450 C 0.79368 0.53075 1.00056 0.0
C1451 C 0.84516 0.51641 0.98095 0.0
C1452 C 0.87511 0.52525 0.98856 0.0
C1453 C 0.89914 0.53591 0.97451 0.0
C1454 C 0.8924 0.53799 0.95207 0.0
C1455 C 0.86194 0.52928 0.94376 0.0
C1456 C 0.83812 0.51784 0.95835 0.0
H1457 H 0.42683 0.86325 0.54838 0.0
H1458 H 0.49062 0.78225 0.55915 0.0
H1459 H 0.49849 0.77713 0.51928 0.0
H1460 H 0.39014 0.8324 0.49769 0.0
H1461 H 0.3881 0.87144 0.48507 0.0
H1462 H 0.38565 0.86768 0.51453 0.0
H1463 H 0.43342 0.90687 0.51874 0.0
H1464 H 0.43616 0.9106 0.48933 0.0
H1465 H 0.47071 0.89817 0.50498 0.0
H1466 H 0.50261 0.7826 0.4791 0.0
H1467 H 0.50104 0.79692 0.43998 0.0
H1468 H 0.43406 0.87407 0.45439 0.0
C1469 C 0.44211 0.84419 0.54233 0.0
C1470 C 0.45814 0.82319 0.5569 0.0
C1471 C 0.4781 0.79866 0.54834 0.0
C1472 C 0.48273 0.79551 0.52571 0.0
C1473 C 0.46709 0.81691 0.51184 0.0
C1474 C 0.44699 0.84063 0.51971 0.0
C1475 C 0.43394 0.86103 0.50112 0.0
C1476 C 0.39728 0.85794 0.49951 0.0
C1477 C 0.44418 0.89625 0.5037 0.0
C1478 C 0.45038 0.84538 0.48167 0.0
C1479 C 0.46929 0.81994 0.48832 0.0
C1480 C 0.4877 0.80228 0.47361 0.0
C1481 C 0.48672 0.81075 0.45142 0.0
C1482 C 0.46742 0.83666 0.44411 0.0
C1483 C 0.44892 0.8541 0.45947 0.0
H1484 H 0.13607 0.54523 0.45605 0.0
H1485 H 0.20623 0.47072 0.44271 0.0
H1486 H 0.21562 0.46458 0.48262 0.0
H1487 H 0.17802 0.58169 0.50065 0.0
H1488 H 0.14227 0.59049 0.51617 0.0
H1489 H 0.1405 0.58833 0.48664 0.0
H1490 H 0.09574 0.54548 0.48922 0.0
H1491 H 0.0973 0.54756 0.51876 0.0
H1492 H 0.10258 0.5096 0.50506 0.0
H1493 H 0.21797 0.46737 0.52427 0.0
H1494 H 0.21263 0.4784 0.56402 0.0
H1495 H 0.14103 0.5512 0.54983 0.0
C1496 C 0.15325 0.52741 0.46147 0.0
C1497 C 0.1703 0.50833 0.44618 0.0
C1498 C 0.19277 0.48553 0.45406 0.0
C1499 C 0.19829 0.4819 0.47672 0.0
C1500 C 0.1812 0.50123 0.49131 0.0
C1501 C 0.15909 0.5235 0.48398 0.0
C1502 C 0.14414 0.54163 0.503 0.0
C1503 C 0.1517 0.57767 0.50152 0.0
C1504 C 0.10778 0.5357 0.50407 0.0
C1505 C 0.16132 0.52613 0.52221 0.0
C1506 C 0.1826 0.50288 0.51516 0.0
C1507 C 0.20131 0.48547 0.52996 0.0
C1508 C 0.19812 0.49193 0.55253 0.0
C1509 C 0.17635 0.5156 0.56013 0.0
C1510 C 0.15781 0.53286 0.54464 0.0
H1511 H 0.42661 0.13352 0.95628 0.0
H1512 H 0.48807 0.21527 0.94279 0.0
H1513 H 0.49507 0.22397 0.98243 0.0
H1514 H 0.38816 0.16747 0.00558 0.0
H1515 H 0.38721 0.12949 0.01969 0.0
H1516 H 0.38502 0.13073 0.99012 0.0
H1517 H 0.43408 0.09272 0.98766 0.0
H1518 H 0.43652 0.09148 0.01718 0.0
H1519 H 0.47088 0.10363 1.00128 0.0
H1520 H 0.49883 0.22195 0.02285 0.0
H1521 H 0.49775 0.21034 0.06245 0.0
H1522 H 0.43328 0.13039 0.05065 0.0
C1523 C 0.44116 0.1535 0.96168 0.0
C1524 C 0.45681 0.17367 0.94639 0.0
C1525 C 0.47587 0.19942 0.95414 0.0
C1526 C 0.47998 0.20464 0.97665 0.0
C1527 C 0.46473 0.18405 0.99125 0.0
C1528 C 0.44553 0.15913 0.98418 0.0
C1529 C 0.43289 0.13992 0.00349 0.0
C1530 C 0.39614 0.14204 0.00479 0.0
C1531 C 0.44429 0.10487 0.00233 0.0
C1532 C 0.44856 0.15763 0.02242 0.0
C1533 C 0.4667 0.18306 0.0149 0.0
C1534 C 0.48449 0.2023 0.02901 0.0
C1535 C 0.48381 0.19539 0.05147 0.0
C1536 C 0.46541 0.16945 0.05965 0.0
C1537 C 0.44737 0.1505 0.0449 0.0
H1538 H 0.8743 0.43673 0.45225 0.0
H1539 H 0.79757 0.50497 0.43978 0.0
H1540 H 0.78911 0.51101 0.4795 0.0
H1541 H 0.8367 0.39848 0.49938 0.0
H1542 H 0.87375 0.39346 0.51425 0.0
H1543 H 0.87392 0.39386 0.48464 0.0
H1544 H 0.91532 0.44008 0.48496 0.0
H1545 H 0.91528 0.43983 0.51456 0.0
H1546 H 0.90641 0.47634 0.49991 0.0
H1547 H 0.78913 0.51096 0.52012 0.0
H1548 H 0.79735 0.50448 0.55984 0.0
H1549 H 0.87372 0.43589 0.54722 0.0
C1550 C 0.85569 0.45288 0.45789 0.0
C1551 C 0.83666 0.4704 0.44277 0.0
C1552 C 0.81253 0.49126 0.4509 0.0
C1553 C 0.80747 0.49489 0.47349 0.0
C1554 C 0.82662 0.47743 0.4879 0.0
C1555 C 0.8502 0.45677 0.48053 0.0
C1556 C 0.86743 0.4411 0.49975 0.0
C1557 C 0.86265 0.40455 0.49948 0.0
C1558 C 0.90323 0.44987 0.49979 0.0
C1559 C 0.84996 0.45643 0.51899 0.0
C1560 C 0.82651 0.47726 0.51166 0.0
C1561 C 0.80736 0.49466 0.5261 0.0
C1562 C 0.8123 0.49081 0.54869 0.0
C1563 C 0.83622 0.46968 0.55677 0.0
C1564 C 0.85519 0.45215 0.54162 0.0
H1565 H 0.5461 0.85232 0.0474 0.0
H1566 H 0.4678 0.78706 0.06175 0.0
H1567 H 0.4588 0.77953 0.02185 0.0
H1568 H 0.51061 0.8905 1.00097 0.0
H1569 H 0.54793 0.89364 0.98619 0.0
H1570 H 0.54795 0.89354 0.01577 0.0
H1571 H 0.58732 0.84538 0.01579 0.0
H1572 H 0.58743 0.84531 0.9862 0.0
H1573 H 0.57691 0.80941 1.001 0.0
H1574 H 0.45861 0.77967 0.98002 0.0
H1575 H 0.46737 0.78737 0.9401 0.0
H1576 H 0.546 0.85227 0.95442 0.0
C1577 C 0.52693 0.83653 0.04223 0.0
C1578 C 0.50751 0.82041 0.05764 0.0
C1579 C 0.48291 0.7997 0.05017 0.0
C1580 C 0.47764 0.79528 0.02758 0.0
C1581 C 0.49729 0.81162 0.01281 0.0
C1582 C 0.52147 0.83175 0.0199 0.0
C1583 C 0.53945 0.84645 1.00088 0.0
C1584 C 0.53627 0.88321 1.00096 0.0
C1585 C 0.57487 0.836 1.00098 0.0
C1586 C 0.52144 0.83169 0.98191 0.0
C1587 C 0.49725 0.8116 0.98902 0.0
C1588 C 0.47749 0.79535 0.97427 0.0
C1589 C 0.48262 0.79986 0.95167 0.0
C1590 C 0.50726 0.82049 0.94418 0.0
C1591 C 0.52684 0.83645 0.95958 0.0
H1592 H 0.29597 0.38764 0.14139 0.0
H1593 H 0.22455 0.34066 0.18206 0.0
H1594 H 0.26275 0.29736 0.19024 0.0
H1595 H 0.3256 0.31671 0.11727 0.0
H1596 H 0.36699 0.32905 0.11644 0.0
H1597 H 0.33561 0.3587 0.11569 0.0
H1598 H 0.36029 0.38684 0.14963 0.0
H1599 H 0.39177 0.3572 0.15051 0.0
H1600 H 0.36721 0.36416 0.17441 0.0
H1601 H 0.3057 0.25737 0.19187 0.0
H1602 H 0.35123 0.22098 0.18576 0.0
H1603 H 0.39627 0.29194 0.14372 0.0
C1604 C 0.28872 0.36852 0.15235 0.0
C1605 C 0.25736 0.36756 0.16118 0.0
C1606 C 0.24841 0.34184 0.17507 0.0
C1607 C 0.27001 0.31722 0.17994 0.0
C1608 C 0.30052 0.31852 0.17077 0.0
C1609 C 0.31 0.34334 0.15721 0.0
C1610 C 0.34341 0.3372 0.14813 0.0
C1611 C 0.34285 0.3353 0.12289 0.0
C1612 C 0.36707 0.36288 0.15615 0.0
C1613 C 0.35076 0.30476 0.15834 0.0
C1614 C 0.32571 0.29479 0.17154 0.0
C1615 C 0.32566 0.265 0.18179 0.0
C1616 C 0.35161 0.24446 0.17816 0.0
C1617 C 0.37733 0.2537 0.16436 0.0
C1618 C 0.3772 0.28454 0.15467 0.0
H1619 H 0.70739 0.39218 0.64142 0.0
H1620 H 0.78274 0.33939 0.67498 0.0
H1621 H 0.7471 0.29292 0.67848 0.0
H1622 H 0.63958 0.35777 0.67339 0.0
H1623 H 0.61348 0.35586 0.64982 0.0
H1624 H 0.64377 0.38657 0.65149 0.0
H1625 H 0.66667 0.36832 0.61398 0.0
H1626 H 0.63659 0.3375 0.61223 0.0
H1627 H 0.67845 0.32706 0.61027 0.0
H1628 H 0.70659 0.25064 0.67542 0.0
H1629 H 0.66143 0.21468 0.66734 0.0
H1630 H 0.60995 0.29343 0.63672 0.0
C1631 C 0.71607 0.37105 0.6499 0.0
C1632 C 0.74794 0.36948 0.6579 0.0
C1633 C 0.75857 0.3412 0.66858 0.0
C1634 C 0.73844 0.31464 0.67075 0.0
C1635 C 0.70755 0.3166 0.66228 0.0
C1636 C 0.69614 0.34404 0.65221 0.0
C1637 C 0.66229 0.33878 0.64362 0.0
C1638 C 0.63836 0.36108 0.65528 0.0
C1639 C 0.66094 0.34317 0.61854 0.0
C1640 C 0.65691 0.30396 0.65005 0.0
C1641 C 0.68345 0.29185 0.66084 0.0
C1642 C 0.68545 0.25991 0.66728 0.0
C1643 C 0.65972 0.23963 0.66251 0.0
C1644 C 0.63213 0.2513 0.65154 0.0
C1645 C 0.63054 0.28404 0.64546 0.0
H1646 H 0.77221 0.67432 0.13707 0.0
H1647 H 0.71435 0.58877 0.14652 0.0
H1648 H 0.66579 0.62184 0.14799 0.0
H1649 H 0.72668 0.72567 0.17314 0.0
H1650 H 0.72994 0.76075 0.15599 0.0
H1651 H 0.76091 0.73059 0.15538 0.0
H1652 H 0.75376 0.72484 0.1133 0.0
H1653 H 0.72278 0.75501 0.11378 0.0
H1654 H 0.71462 0.71605 0.10227 0.0
H1655 H 0.62371 0.6628 0.14939 0.0
H1656 H 0.58916 0.71039 0.14967 0.0
H1657 H 0.67228 0.77109 0.1386 0.0
C1658 C 0.7493 0.66262 0.13941 0.0
C1659 C 0.74723 0.62888 0.14175 0.0
C1660 C 0.71675 0.61449 0.14473 0.0
C1661 C 0.6889 0.63308 0.14559 0.0
C1662 C 0.69171 0.66611 0.14335 0.0
C1663 C 0.72097 0.68091 0.14022 0.0
C1664 C 0.71675 0.71703 0.13826 0.0
C1665 C 0.73463 0.73454 0.1568 0.0
C1666 C 0.72762 0.72893 0.11555 0.0
C1667 C 0.68062 0.72001 0.14094 0.0
C1668 C 0.66687 0.6902 0.14388 0.0
C1669 C 0.63411 0.68631 0.14705 0.0
C1670 C 0.61469 0.71361 0.14724 0.0
C1671 C 0.62795 0.74458 0.1442 0.0
C1672 C 0.66143 0.74776 0.14092 0.0
H1673 H 0.22927 0.67503 0.64331 0.0
H1674 H 0.28305 0.59604 0.67193 0.0
H1675 H 0.32843 0.63196 0.67876 0.0
H1676 H 0.29631 0.71087 0.61576 0.0
H1677 H 0.28391 0.75167 0.62065 0.0
H1678 H 0.25435 0.72033 0.61883 0.0
H1679 H 0.23246 0.73611 0.65716 0.0
H1680 H 0.26203 0.76747 0.65912 0.0
H1681 H 0.25942 0.7374 0.68031 0.0
H1682 H 0.36868 0.67458 0.6815 0.0
H1683 H 0.40293 0.7223 0.67921 0.0
H1684 H 0.32492 0.77542 0.64887 0.0
C1685 C 0.25052 0.66544 0.65117 0.0
C1686 C 0.25245 0.63265 0.65713 0.0
C1687 C 0.28083 0.62097 0.66718 0.0
C1688 C 0.30682 0.64123 0.67122 0.0
C1689 C 0.30427 0.67324 0.66513 0.0
C1690 C 0.27701 0.68544 0.65527 0.0
C1691 C 0.28148 0.7207 0.64967 0.0
C1692 C 0.27886 0.72621 0.62475 0.0
C1693 C 0.25741 0.74166 0.66233 0.0
C1694 C 0.31555 0.72612 0.65778 0.0
C1695 C 0.32799 0.69832 0.66671 0.0
C1696 C 0.3592 0.6966 0.67469 0.0
C1697 C 0.37848 0.7239 0.67328 0.0
C1698 C 0.36661 0.75271 0.66398 0.0
C1699 C 0.33453 0.75389 0.65635 0.0
H1700 H 0.39082 0.71013 0.34114 0.0
H1701 H 0.34234 0.7872 0.37593 0.0
H1702 H 0.29894 0.75066 0.386 0.0
H1703 H 0.32019 0.67746 0.31803 0.0
H1704 H 0.33236 0.63609 0.32024 0.0
H1705 H 0.36217 0.66704 0.3177 0.0
H1706 H 0.3893 0.64735 0.35354 0.0
H1707 H 0.35948 0.61633 0.35621 0.0
H1708 H 0.36593 0.64427 0.37837 0.0
H1709 H 0.25932 0.70846 0.39054 0.0
H1710 H 0.22313 0.66231 0.38764 0.0
H1711 H 0.29458 0.61123 0.34915 0.0
C1712 C 0.37128 0.71903 0.35115 0.0
C1713 C 0.37012 0.75148 0.35785 0.0
C1714 C 0.34387 0.76249 0.37059 0.0
C1715 C 0.31909 0.74186 0.37655 0.0
C1716 C 0.32065 0.71023 0.36954 0.0
C1717 C 0.34582 0.69872 0.35702 0.0
C1718 C 0.33979 0.6642 0.35023 0.0
C1719 C 0.33855 0.66103 0.32506 0.0
C1720 C 0.36514 0.64171 0.36019 0.0
C1721 C 0.30706 0.65863 0.36049 0.0
C1722 C 0.29688 0.68548 0.37181 0.0
C1723 C 0.26702 0.68713 0.38189 0.0
C1724 C 0.2466 0.6608 0.38008 0.0
C1725 C 0.25601 0.63318 0.36815 0.0
C1726 C 0.2869 0.63189 0.35856 0.0
H1727 H 0.38005 0.28232 0.84928 0.0
H1728 H 0.32261 0.19973 0.83097 0.0
H1729 H 0.27489 0.23419 0.82808 0.0
H1730 H 0.32109 0.31912 0.88288 0.0
H1731 H 0.33053 0.35965 0.87494 0.0
H1732 H 0.36111 0.32914 0.87406 0.0
H1733 H 0.37158 0.34177 0.83302 0.0
H1734 H 0.34111 0.37244 0.8338 0.0
H1735 H 0.3387 0.34067 0.81379 0.0
H1736 H 0.23277 0.27621 0.82928 0.0
H1737 H 0.19863 0.32399 0.83389 0.0
H1738 H 0.2825 0.38018 0.85132 0.0
C1739 C 0.35754 0.27163 0.84429 0.0
C1740 C 0.35514 0.2383 0.84028 0.0
C1741 C 0.32511 0.22515 0.83416 0.0
C1742 C 0.29782 0.24454 0.83242 0.0
C1743 C 0.30083 0.27713 0.83683 0.0
C1744 C 0.32987 0.29071 0.84256 0.0
C1745 C 0.32599 0.32624 0.84733 0.0
C1746 C 0.33522 0.33398 0.87122 0.0
C1747 C 0.34551 0.34647 0.83101 0.0
C1748 C 0.29022 0.3303 0.8436 0.0
C1749 C 0.27627 0.30163 0.83749 0.0
C1750 C 0.24342 0.2989 0.83387 0.0
C1751 C 0.2242 0.32618 0.83659 0.0
C1752 C 0.23786 0.3559 0.84285 0.0
C1753 C 0.27138 0.35791 0.84627 0.0
H1754 H 0.62179 0.28519 0.35506 0.0
H1755 H 0.68185 0.20087 0.36361 0.0
H1756 H 0.73006 0.23454 0.36079 0.0
H1757 H 0.67216 0.32533 0.31577 0.0
H1758 H 0.66508 0.3648 0.32684 0.0
H1759 H 0.63489 0.3342 0.32951 0.0
H1760 H 0.63449 0.34215 0.37172 0.0
H1761 H 0.66464 0.37283 0.36919 0.0
H1762 H 0.67151 0.33882 0.38686 0.0
H1763 H 0.77156 0.27638 0.35664 0.0
H1764 H 0.80461 0.32473 0.35252 0.0
H1765 H 0.71835 0.38286 0.34719 0.0
C1766 C 0.64509 0.27383 0.35631 0.0
C1767 C 0.64804 0.24037 0.3595 0.0
C1768 C 0.67895 0.22643 0.3612 0.0
C1769 C 0.70652 0.24534 0.35958 0.0
C1770 C 0.7028 0.27816 0.35637 0.0
C1771 C 0.67296 0.2924 0.35486 0.0
C1772 C 0.6759 0.32835 0.35166 0.0
C1773 C 0.66114 0.33877 0.32963 0.0
C1774 C 0.66074 0.34661 0.37101 0.0
C1775 C 0.71208 0.33195 0.3515 0.0
C1776 C 0.72701 0.30262 0.3542 0.0
C1777 C 0.7602 0.29953 0.35454 0.0
C1778 C 0.77875 0.32719 0.35215 0.0
C1779 C 0.7641 0.35765 0.3495 0.0
C1780 C 0.73027 0.35996 0.34915 0.0
H1781 H 0.76503 0.67412 0.86447 0.0
H1782 H 0.71 0.58866 0.84907 0.0
H1783 H 0.66088 0.62143 0.84651 0.0
H1784 H 0.70427 0.71226 0.89796 0.0
H1785 H 0.71341 0.75208 0.88833 0.0
H1786 H 0.74436 0.72192 0.88911 0.0
H1787 H 0.75559 0.73104 0.84771 0.0
H1788 H 0.72464 0.76118 0.8468 0.0
H1789 H 0.7232 0.72751 0.82825 0.0
H1790 H 0.61803 0.66319 0.84495 0.0
H1791 H 0.5836 0.71114 0.84535 0.0
H1792 H 0.66594 0.76997 0.86219 0.0
C1793 C 0.74265 0.66226 0.86061 0.0
C1794 C 0.74142 0.62876 0.85691 0.0
C1795 C 0.71161 0.61423 0.85194 0.0
C1796 C 0.68355 0.63265 0.85044 0.0
C1797 C 0.68564 0.66557 0.85404 0.0
C1798 C 0.71435 0.68028 0.85911 0.0
C1799 C 0.7099 0.71611 0.86223 0.0
C1800 C 0.71849 0.72617 0.88581 0.0
C1801 C 0.72949 0.73507 0.84523 0.0
C1802 C 0.6742 0.71924 0.858 0.0
C1803 C 0.66075 0.68976 0.85329 0.0
C1804 C 0.62826 0.68641 0.84864 0.0
C1805 C 0.60892 0.71388 0.84886 0.0
C1806 C 0.62204 0.74441 0.85374 0.0
C1807 C 0.65517 0.74701 0.85839 0.0
loop_
_geom_bond_atom_site_label_1
_geom_bond_atom_site_label_2
_geom_bond_distance
_geom_bond_site_symmetry_2
_ccdc_geom_bond_type
Co0 O2 2.143 . S
Co0 O8 2.074 . S
Co0 O11 2.093 . S
Co0 O24 2.097 . S
Co0 N41 2.151 . S
Co0 N49 2.214 . S
Co1 O2 2.160 . S
Co1 O7 2.058 . S
Co1 O17 2.057 . S
Co1 O32 2.037 . S
Co1 N36 2.145 . S
Co1 N57 2.257 . S
O2 Co0 2.143 . S
O2 Co1 2.160 . S
C3 O4 1.278 . S
C3 O11 1.224 . S
O4 C3 1.278 . S
C5 O6 1.245 . S
C5 O17 1.232 . S
O6 C5 1.245 . S
O7 Co1 2.058 . S
O7 C33 1.269 . S
O8 Co0 2.074 . S
O8 C33 1.257 . S
H9 C34 0.930 . S
H10 C40 0.930 . S
O11 Co0 2.093 . S
O11 C3 1.224 . S
H12 C44 0.929 . S
H13 C46 0.930 . S
H14 C47 0.930 . S
H15 C45 0.929 . S
H16 C48 0.928 . S
O17 Co1 2.057 . S
O17 C5 1.232 . S
H18 C37 0.929 . S
H19 C38 0.929 . S
H20 C50 0.931 . S
H21 C42 0.929 . S
H22 C51 0.930 . S
H23 C43 0.931 . S
O24 Co0 2.097 . S
O24 C52 1.214 . S
H25 C53 0.929 . S
H26 C54 0.929 . S
H27 C55 0.930 . S
H28 C56 0.929 . S
H29 C58 0.930 . S
H30 C35 0.930 . S
H31 C39 0.930 . S
O32 Co1 2.037 . S
O32 C52 1.234 . S
C33 O7 1.269 . S
C33 O8 1.257 . S
C34 H9 0.930 . S
C34 C37 1.388 . S
C34 C39 1.418 . S
C35 H30 0.930 . S
C35 C38 1.404 . S
C35 C39 1.353 . S
N36 Co1 2.145 . S
N36 C37 1.397 . S
N36 C38 1.334 . S
C37 H18 0.929 . S
C37 C34 1.388 . S
C37 N36 1.397 . S
C38 H19 0.929 . S
C38 C35 1.404 . S
C38 N36 1.334 . S
C39 H31 0.930 . S
C39 C34 1.418 . S
C39 C35 1.353 . S
C40 H10 0.930 . S
C40 N41 1.330 . S
C40 C42 1.446 . S
N41 Co0 2.151 . S
N41 C40 1.330 . S
N41 C45 1.418 . S
C42 H21 0.929 . S
C42 C40 1.446 . S
C42 C43 1.332 . S
C43 H23 0.931 . S
C43 C42 1.332 . S
C43 C44 1.267 . S
C44 H12 0.929 . S
C44 C43 1.267 . S
C44 C45 1.251 . S
C45 H15 0.929 . S
C45 N41 1.418 . S
C45 C44 1.251 . S
C46 H13 0.930 . S
C46 C48 1.406 . S
C46 C51 1.261 . S
C47 H14 0.930 . S
C47 N49 1.325 . S
C47 C50 1.357 . S
C48 H16 0.928 . S
C48 C46 1.406 . S
C48 N49 1.261 . S
N49 Co0 2.214 . S
N49 C47 1.325 . S
N49 C48 1.261 . S
C50 H20 0.931 . S
C50 C47 1.357 . S
C50 C51 1.312 . S
C51 H22 0.930 . S
C51 C46 1.261 . S
C51 C50 1.312 . S
C52 O24 1.214 . S
C52 O32 1.234 . S
C53 H25 0.929 . S
C53 C56 1.391 . S
C53 C58 1.391 . S
C54 H26 0.929 . S
C54 C55 1.390 . S
C54 N57 1.391 . S
C55 H27 0.930 . S
C55 C54 1.390 . S
C55 C56 1.392 . S
C56 H28 0.929 . S
C56 C53 1.391 . S
C56 C55 1.392 . S
N57 Co1 2.257 . S
N57 C54 1.391 . S
N57 C58 1.388 . S
C58 H29 0.930 . S
C58 C53 1.391 . S
C58 N57 1.388 . S
Co59 O61 2.143 . S
Co59 O67 2.074 . S
Co59 O70 2.093 . S
Co59 O83 2.097 . S
Co59 N100 2.151 . S
Co59 N108 2.214 . S
Co60 O61 2.160 . S
Co60 O66 2.058 . S
Co60 O76 2.057 . S
Co60 O91 2.037 . S
Co60 N95 2.145 . S
Co60 N116 2.257 . S
O61 Co59 2.143 . S
O61 Co60 2.160 . S
C62 O63 1.278 . S
C62 O70 1.224 . S
O63 C62 1.278 . S
C64 O65 1.245 . S
C64 O76 1.232 . S
O65 C64 1.245 . S
O66 Co60 2.058 . S
O66 C92 1.269 . S
O67 Co59 2.074 . S
O67 C92 1.257 . S
H68 C93 0.930 . S
H69 C99 0.930 . S
O70 Co59 2.093 . S
O70 C62 1.224 . S
H71 C103 0.929 . S
H72 C105 0.930 . S
H73 C106 0.930 . S
H74 C104 0.929 . S
H75 C107 0.928 . S
O76 Co60 2.057 . S
O76 C64 1.232 . S
H77 C96 0.929 . S
H78 C97 0.929 . S
H79 C109 0.931 . S
H80 C101 0.929 . S
H81 C110 0.930 . S
H82 C102 0.931 . S
O83 Co59 2.097 . S
O83 C111 1.214 . S
H84 C112 0.929 . S
H85 C113 0.929 . S
H86 C114 0.930 . S
H87 C115 0.929 . S
H88 C117 0.930 . S
H89 C94 0.930 . S
H90 C98 0.930 . S
O91 Co60 2.037 . S
O91 C111 1.234 . S
C92 O66 1.269 . S
C92 O67 1.257 . S
C93 H68 0.930 . S
C93 C96 1.388 . S
C93 C98 1.418 . S
C94 H89 0.930 . S
C94 C97 1.404 . S
C94 C98 1.353 . S
N95 Co60 2.145 . S
N95 C96 1.397 . S
N95 C97 1.334 . S
C96 H77 0.929 . S
C96 C93 1.388 . S
C96 N95 1.397 . S
C97 H78 0.929 . S
C97 C94 1.404 . S
C97 N95 1.334 . S
C98 H90 0.930 . S
C98 C93 1.418 . S
C98 C94 1.353 . S
C99 H69 0.930 . S
C99 N100 1.330 . S
C99 C101 1.446 . S
N100 Co59 2.151 . S
N100 C99 1.330 . S
N100 C104 1.418 . S
C101 H80 0.929 . S
C101 C99 1.446 . S
C101 C102 1.332 . S
C102 H82 0.931 . S
C102 C101 1.332 . S
C102 C103 1.267 . S
C103 H71 0.929 . S
C103 C102 1.267 . S
C103 C104 1.251 . S
C104 H74 0.929 . S
C104 N100 1.418 . S
C104 C103 1.251 . S
C105 H72 0.930 . S
C105 C107 1.406 . S
C105 C110 1.261 . S
C106 H73 0.930 . S
C106 N108 1.325 . S
C106 C109 1.357 . S
C107 H75 0.928 . S
C107 C105 1.406 . S
C107 N108 1.261 . S
N108 Co59 2.214 . S
N108 C106 1.325 . S
N108 C107 1.261 . S
C109 H79 0.931 . S
C109 C106 1.357 . S
C109 C110 1.312 . S
C110 H81 0.930 . S
C110 C105 1.261 . S
C110 C109 1.312 . S
C111 O83 1.214 . S
C111 O91 1.234 . S
C112 H84 0.929 . S
C112 C115 1.391 . S
C112 C117 1.391 . S
C113 H85 0.929 . S
C113 C114 1.390 . S
C113 N116 1.391 . S
C114 H86 0.930 . S
C114 C113 1.390 . S
C114 C115 1.392 . S
C115 H87 0.929 . S
C115 C112 1.391 . S
C115 C114 1.392 . S
N116 Co60 2.257 . S
N116 C113 1.391 . S
N116 C117 1.388 . S
C117 H88 0.930 . S
C117 C112 1.391 . S
C117 N116 1.388 . S
Co118 O120 2.143 . S
Co118 O126 2.074 . S
Co118 O129 2.093 . S
Co118 O142 2.097 . S
Co118 N159 2.151 . S
Co118 N167 2.214 . S
Co119 O120 2.160 . S
Co119 O125 2.058 . S
Co119 O135 2.057 . S
Co119 O150 2.037 . S
Co119 N154 2.145 . S
Co119 N175 2.257 . S
O120 Co118 2.143 . S
O120 Co119 2.160 . S
C121 O122 1.278 . S
C121 O129 1.224 . S
O122 C121 1.278 . S
C123 O124 1.245 . S
C123 O135 1.232 . S
O124 C123 1.245 . S
O125 Co119 2.058 . S
O125 C151 1.269 . S
O126 Co118 2.074 . S
O126 C151 1.257 . S
H127 C152 0.930 . S
H128 C158 0.930 . S
O129 Co118 2.093 . S
O129 C121 1.224 . S
H130 C162 0.929 . S
H131 C164 0.930 . S
H132 C165 0.930 . S
H133 C163 0.929 . S
H134 C166 0.928 . S
O135 Co119 2.057 . S
O135 C123 1.232 . S
H136 C155 0.929 . S
H137 C156 0.929 . S
H138 C168 0.931 . S
H139 C160 0.929 . S
H140 C169 0.930 . S
H141 C161 0.931 . S
O142 Co118 2.097 . S
O142 C170 1.214 . S
H143 C171 0.929 . S
H144 C172 0.929 . S
H145 C173 0.930 . S
H146 C174 0.929 . S
H147 C176 0.930 . S
H148 C153 0.930 . S
H149 C157 0.930 . S
O150 Co119 2.037 . S
O150 C170 1.234 . S
C151 O125 1.269 . S
C151 O126 1.257 . S
C152 H127 0.930 . S
C152 C155 1.388 . S
C152 C157 1.418 . S
C153 H148 0.930 . S
C153 C156 1.404 . S
C153 C157 1.353 . S
N154 Co119 2.145 . S
N154 C155 1.397 . S
N154 C156 1.334 . S
C155 H136 0.929 . S
C155 C152 1.388 . S
C155 N154 1.397 . S
C156 H137 0.929 . S
C156 C153 1.404 . S
C156 N154 1.334 . S
C157 H149 0.930 . S
C157 C152 1.418 . S
C157 C153 1.353 . S
C158 H128 0.930 . S
C158 N159 1.330 . S
C158 C160 1.446 . S
N159 Co118 2.151 . S
N159 C158 1.330 . S
N159 C163 1.418 . S
C160 H139 0.929 . S
C160 C158 1.446 . S
C160 C161 1.332 . S
C161 H141 0.931 . S
C161 C160 1.332 . S
C161 C162 1.267 . S
C162 H130 0.929 . S
C162 C161 1.267 . S
C162 C163 1.251 . S
C163 H133 0.929 . S
C163 N159 1.418 . S
C163 C162 1.251 . S
C164 H131 0.930 . S
C164 C166 1.406 . S
C164 C169 1.261 . S
C165 H132 0.930 . S
C165 N167 1.325 . S
C165 C168 1.357 . S
C166 H134 0.928 . S
C166 C164 1.406 . S
C166 N167 1.261 . S
N167 Co118 2.214 . S
N167 C165 1.325 . S
N167 C166 1.261 . S
C168 H138 0.931 . S
C168 C165 1.357 . S
C168 C169 1.312 . S
C169 H140 0.930 . S
C169 C164 1.261 . S
C169 C168 1.312 . S
C170 O142 1.214 . S
C170 O150 1.234 . S
C171 H143 0.929 . S
C171 C174 1.391 . S
C171 C176 1.391 . S
C172 H144 0.929 . S
C172 C173 1.390 . S
C172 N175 1.391 . S
C173 H145 0.930 . S
C173 C172 1.390 . S
C173 C174 1.392 . S
C174 H146 0.929 . S
C174 C171 1.391 . S
C174 C173 1.392 . S
N175 Co119 2.257 . S
N175 C172 1.391 . S
N175 C176 1.388 . S
C176 H147 0.930 . S
C176 C171 1.391 . S
C176 N175 1.388 . S
Co177 O179 2.143 . S
Co177 O185 2.074 . S
Co177 O188 2.093 . S
Co177 O201 2.097 . S
Co177 N218 2.151 . S
Co177 N226 2.214 . S
Co178 O179 2.160 . S
Co178 O184 2.058 . S
Co178 O194 2.057 . S
Co178 O209 2.037 . S
Co178 N213 2.145 . S
Co178 N234 2.257 . S
O179 Co177 2.143 . S
O179 Co178 2.160 . S
C180 O181 1.278 . S
C180 O188 1.224 . S
O181 C180 1.278 . S
C182 O183 1.245 . S
C182 O194 1.232 . S
O183 C182 1.245 . S
O184 Co178 2.058 . S
O184 C210 1.269 . S
O185 Co177 2.074 . S
O185 C210 1.257 . S
H186 C211 0.930 . S
H187 C217 0.930 . S
O188 Co177 2.093 . S
O188 C180 1.224 . S
H189 C221 0.929 . S
H190 C223 0.930 . S
H191 C224 0.930 . S
H192 C222 0.929 . S
H193 C225 0.928 . S
O194 Co178 2.057 . S
O194 C182 1.232 . S
H195 C214 0.929 . S
H196 C215 0.929 . S
H197 C227 0.931 . S
H198 C219 0.929 . S
H199 C228 0.930 . S
H200 C220 0.931 . S
O201 Co177 2.097 . S
O201 C229 1.214 . S
H202 C230 0.929 . S
H203 C231 0.929 . S
H204 C232 0.930 . S
H205 C233 0.929 . S
H206 C235 0.930 . S
H207 C212 0.930 . S
H208 C216 0.930 . S
O209 Co178 2.037 . S
O209 C229 1.234 . S
C210 O184 1.269 . S
C210 O185 1.257 . S
C211 H186 0.930 . S
C211 C214 1.388 . S
C211 C216 1.418 . S
C212 H207 0.930 . S
C212 C215 1.404 . S
C212 C216 1.353 . S
N213 Co178 2.145 . S
N213 C214 1.397 . S
N213 C215 1.334 . S
C214 H195 0.929 . S
C214 C211 1.388 . S
C214 N213 1.397 . S
C215 H196 0.929 . S
C215 C212 1.404 . S
C215 N213 1.334 . S
C216 H208 0.930 . S
C216 C211 1.418 . S
C216 C212 1.353 . S
C217 H187 0.930 . S
C217 N218 1.330 . S
C217 C219 1.446 . S
N218 Co177 2.151 . S
N218 C217 1.330 . S
N218 C222 1.418 . S
C219 H198 0.929 . S
C219 C217 1.446 . S
C219 C220 1.332 . S
C220 H200 0.931 . S
C220 C219 1.332 . S
C220 C221 1.267 . S
C221 H189 0.929 . S
C221 C220 1.267 . S
C221 C222 1.251 . S
C222 H192 0.929 . S
C222 N218 1.418 . S
C222 C221 1.251 . S
C223 H190 0.930 . S
C223 C225 1.406 . S
C223 C228 1.261 . S
C224 H191 0.930 . S
C224 N226 1.325 . S
C224 C227 1.357 . S
C225 H193 0.928 . S
C225 C223 1.406 . S
C225 N226 1.261 . S
N226 Co177 2.214 . S
N226 C224 1.325 . S
N226 C225 1.261 . S
C227 H197 0.931 . S
C227 C224 1.357 . S
C227 C228 1.312 . S
C228 H199 0.930 . S
C228 C223 1.261 . S
C228 C227 1.312 . S
C229 O201 1.214 . S
C229 O209 1.234 . S
C230 H202 0.929 . S
C230 C233 1.391 . S
C230 C235 1.391 . S
C231 H203 0.929 . S
C231 C232 1.390 . S
C231 N234 1.391 . S
C232 H204 0.930 . S
C232 C231 1.390 . S
C232 C233 1.392 . S
C233 H205 0.929 . S
C233 C230 1.391 . S
C233 C232 1.392 . S
N234 Co178 2.257 . S
N234 C231 1.391 . S
N234 C235 1.388 . S
C235 H206 0.930 . S
C235 C230 1.391 . S
C235 N234 1.388 . S
Co236 O238 2.143 . S
Co236 O244 2.074 . S
Co236 O247 2.093 . S
Co236 O260 2.097 . S
Co236 N277 2.151 . S
Co236 N285 2.214 . S
Co237 O238 2.160 . S
Co237 O243 2.058 . S
Co237 O253 2.057 . S
Co237 O268 2.037 . S
Co237 N272 2.145 . S
Co237 N293 2.257 . S
O238 Co236 2.143 . S
O238 Co237 2.160 . S
C239 O240 1.278 . S
C239 O247 1.224 . S
O240 C239 1.278 . S
C241 O242 1.245 . S
C241 O253 1.232 . S
O242 C241 1.245 . S
O243 Co237 2.058 . S
O243 C269 1.269 . S
O244 Co236 2.074 . S
O244 C269 1.257 . S
H245 C270 0.930 . S
H246 C276 0.930 . S
O247 Co236 2.093 . S
O247 C239 1.224 . S
H248 C280 0.929 . S
H249 C282 0.930 . S
H250 C283 0.930 . S
H251 C281 0.929 . S
H252 C284 0.928 . S
O253 Co237 2.057 . S
O253 C241 1.232 . S
H254 C273 0.929 . S
H255 C274 0.929 . S
H256 C286 0.931 . S
H257 C278 0.929 . S
H258 C287 0.930 . S
H259 C279 0.931 . S
O260 Co236 2.097 . S
O260 C288 1.214 . S
H261 C289 0.929 . S
H262 C290 0.929 . S
H263 C291 0.930 . S
H264 C292 0.929 . S
H265 C294 0.930 . S
H266 C271 0.930 . S
H267 C275 0.930 . S
O268 Co237 2.037 . S
O268 C288 1.234 . S
C269 O243 1.269 . S
C269 O244 1.257 . S
C270 H245 0.930 . S
C270 C273 1.388 . S
C270 C275 1.418 . S
C271 H266 0.930 . S
C271 C274 1.404 . S
C271 C275 1.353 . S
N272 Co237 2.145 . S
N272 C273 1.397 . S
N272 C274 1.334 . S
C273 H254 0.929 . S
C273 C270 1.388 . S
C273 N272 1.397 . S
C274 H255 0.929 . S
C274 C271 1.404 . S
C274 N272 1.334 . S
C275 H267 0.930 . S
C275 C270 1.418 . S
C275 C271 1.353 . S
C276 H246 0.930 . S
C276 N277 1.330 . S
C276 C278 1.446 . S
N277 Co236 2.151 . S
N277 C276 1.330 . S
N277 C281 1.418 . S
C278 H257 0.929 . S
C278 C276 1.446 . S
C278 C279 1.332 . S
C279 H259 0.931 . S
C279 C278 1.332 . S
C279 C280 1.267 . S
C280 H248 0.929 . S
C280 C279 1.267 . S
C280 C281 1.251 . S
C281 H251 0.929 . S
C281 N277 1.418 . S
C281 C280 1.251 . S
C282 H249 0.930 . S
C282 C284 1.406 . S
C282 C287 1.261 . S
C283 H250 0.930 . S
C283 N285 1.325 . S
C283 C286 1.357 . S
C284 H252 0.928 . S
C284 C282 1.406 . S
C284 N285 1.261 . S
N285 Co236 2.214 . S
N285 C283 1.325 . S
N285 C284 1.261 . S
C286 H256 0.931 . S
C286 C283 1.357 . S
C286 C287 1.312 . S
C287 H258 0.930 . S
C287 C282 1.261 . S
C287 C286 1.312 . S
C288 O260 1.214 . S
C288 O268 1.234 . S
C289 H261 0.929 . S
C289 C292 1.391 . S
C289 C294 1.391 . S
C290 H262 0.929 . S
C290 C291 1.390 . S
C290 N293 1.391 . S
C291 H263 0.930 . S
C291 C290 1.390 . S
C291 C292 1.392 . S
C292 H264 0.929 . S
C292 C289 1.391 . S
C292 C291 1.392 . S
N293 Co237 2.257 . S
N293 C290 1.391 . S
N293 C294 1.388 . S
C294 H265 0.930 . S
C294 C289 1.391 . S
C294 N293 1.388 . S
Co295 O297 2.143 . S
Co295 O303 2.074 . S
Co295 O306 2.093 . S
Co295 O319 2.097 . S
Co295 N336 2.151 . S
Co295 N344 2.214 . S
Co296 O297 2.160 . S
Co296 O302 2.058 . S
Co296 O312 2.057 . S
Co296 O327 2.037 . S
Co296 N331 2.145 . S
Co296 N352 2.257 . S
O297 Co295 2.143 . S
O297 Co296 2.160 . S
C298 O299 1.278 . S
C298 O306 1.224 . S
O299 C298 1.278 . S
C300 O301 1.245 . S
C300 O312 1.232 . S
O301 C300 1.245 . S
O302 Co296 2.058 . S
O302 C328 1.269 . S
O303 Co295 2.074 . S
O303 C328 1.257 . S
H304 C329 0.930 . S
H305 C335 0.930 . S
O306 Co295 2.093 . S
O306 C298 1.224 . S
H307 C339 0.929 . S
H308 C341 0.930 . S
H309 C342 0.930 . S
H310 C340 0.929 . S
H311 C343 0.928 . S
O312 Co296 2.057 . S
O312 C300 1.232 . S
H313 C332 0.929 . S
H314 C333 0.929 . S
H315 C345 0.931 . S
H316 C337 0.929 . S
H317 C346 0.930 . S
H318 C338 0.931 . S
O319 Co295 2.097 . S
O319 C347 1.214 . S
H320 C348 0.929 . S
H321 C349 0.929 . S
H322 C350 0.930 . S
H323 C351 0.929 . S
H324 C353 0.930 . S
H325 C330 0.930 . S
H326 C334 0.930 . S
O327 Co296 2.037 . S
O327 C347 1.234 . S
C328 O302 1.269 . S
C328 O303 1.257 . S
C329 H304 0.930 . S
C329 C332 1.388 . S
C329 C334 1.418 . S
C330 H325 0.930 . S
C330 C333 1.404 . S
C330 C334 1.353 . S
N331 Co296 2.145 . S
N331 C332 1.397 . S
N331 C333 1.334 . S
C332 H313 0.929 . S
C332 C329 1.388 . S
C332 N331 1.397 . S
C333 H314 0.929 . S
C333 C330 1.404 . S
C333 N331 1.334 . S
C334 H326 0.930 . S
C334 C329 1.418 . S
C334 C330 1.353 . S
C335 H305 0.930 . S
C335 N336 1.330 . S
C335 C337 1.446 . S
N336 Co295 2.151 . S
N336 C335 1.330 . S
N336 C340 1.418 . S
C337 H316 0.929 . S
C337 C335 1.446 . S
C337 C338 1.332 . S
C338 H318 0.931 . S
C338 C337 1.332 . S
C338 C339 1.267 . S
C339 H307 0.929 . S
C339 C338 1.267 . S
C339 C340 1.251 . S
C340 H310 0.929 . S
C340 N336 1.418 . S
C340 C339 1.251 . S
C341 H308 0.930 . S
C341 C343 1.406 . S
C341 C346 1.261 . S
C342 H309 0.930 . S
C342 N344 1.325 . S
C342 C345 1.357 . S
C343 H311 0.928 . S
C343 C341 1.406 . S
C343 N344 1.261 . S
N344 Co295 2.214 . S
N344 C342 1.325 . S
N344 C343 1.261 . S
C345 H315 0.931 . S
C345 C342 1.357 . S
C345 C346 1.312 . S
C346 H317 0.930 . S
C346 C341 1.261 . S
C346 C345 1.312 . S
C347 O319 1.214 . S
C347 O327 1.234 . S
C348 H320 0.929 . S
C348 C351 1.391 . S
C348 C353 1.391 . S
C349 H321 0.929 . S
C349 C350 1.390 . S
C349 N352 1.391 . S
C350 H322 0.930 . S
C350 C349 1.390 . S
C350 C351 1.392 . S
C351 H323 0.929 . S
C351 C348 1.391 . S
C351 C350 1.392 . S
N352 Co296 2.257 . S
N352 C349 1.391 . S
N352 C353 1.388 . S
C353 H324 0.930 . S
C353 C348 1.391 . S
C353 N352 1.388 . S
Co354 O356 2.143 . S
Co354 O362 2.074 . S
Co354 O365 2.093 . S
Co354 O378 2.097 . S
Co354 N395 2.151 . S
Co354 N403 2.214 . S
Co355 O356 2.160 . S
Co355 O361 2.058 . S
Co355 O371 2.057 . S
Co355 O386 2.037 . S
Co355 N390 2.145 . S
Co355 N411 2.257 . S
O356 Co354 2.143 . S
O356 Co355 2.160 . S
C357 O358 1.278 . S
C357 O365 1.224 . S
O358 C357 1.278 . S
C359 O360 1.245 . S
C359 O371 1.232 . S
O360 C359 1.245 . S
O361 Co355 2.058 . S
O361 C387 1.269 . S
O362 Co354 2.074 . S
O362 C387 1.257 . S
H363 C388 0.930 . S
H364 C394 0.930 . S
O365 Co354 2.093 . S
O365 C357 1.224 . S
H366 C398 0.929 . S
H367 C400 0.930 . S
H368 C401 0.930 . S
H369 C399 0.929 . S
H370 C402 0.928 . S
O371 Co355 2.057 . S
O371 C359 1.232 . S
H372 C391 0.929 . S
H373 C392 0.929 . S
H374 C404 0.931 . S
H375 C396 0.929 . S
H376 C405 0.930 . S
H377 C397 0.931 . S
O378 Co354 2.097 . S
O378 C406 1.214 . S
H379 C407 0.929 . S
H380 C408 0.929 . S
H381 C409 0.930 . S
H382 C410 0.929 . S
H383 C412 0.930 . S
H384 C389 0.930 . S
H385 C393 0.930 . S
O386 Co355 2.037 . S
O386 C406 1.234 . S
C387 O361 1.269 . S
C387 O362 1.257 . S
C388 H363 0.930 . S
C388 C391 1.388 . S
C388 C393 1.418 . S
C389 H384 0.930 . S
C389 C392 1.404 . S
C389 C393 1.353 . S
N390 Co355 2.145 . S
N390 C391 1.397 . S
N390 C392 1.334 . S
C391 H372 0.929 . S
C391 C388 1.388 . S
C391 N390 1.397 . S
C392 H373 0.929 . S
C392 C389 1.404 . S
C392 N390 1.334 . S
C393 H385 0.930 . S
C393 C388 1.418 . S
C393 C389 1.353 . S
C394 H364 0.930 . S
C394 N395 1.330 . S
C394 C396 1.446 . S
N395 Co354 2.151 . S
N395 C394 1.330 . S
N395 C399 1.418 . S
C396 H375 0.929 . S
C396 C394 1.446 . S
C396 C397 1.332 . S
C397 H377 0.931 . S
C397 C396 1.332 . S
C397 C398 1.267 . S
C398 H366 0.929 . S
C398 C397 1.267 . S
C398 C399 1.251 . S
C399 H369 0.929 . S
C399 N395 1.418 . S
C399 C398 1.251 . S
C400 H367 0.930 . S
C400 C402 1.406 . S
C400 C405 1.261 . S
C401 H368 0.930 . S
C401 N403 1.325 . S
C401 C404 1.357 . S
C402 H370 0.928 . S
C402 C400 1.406 . S
C402 N403 1.261 . S
N403 Co354 2.214 . S
N403 C401 1.325 . S
N403 C402 1.261 . S
C404 H374 0.931 . S
C404 C401 1.357 . S
C404 C405 1.312 . S
C405 H376 0.930 . S
C405 C400 1.261 . S
C405 C404 1.312 . S
C406 O378 1.214 . S
C406 O386 1.234 . S
C407 H379 0.929 . S
C407 C410 1.391 . S
C407 C412 1.391 . S
C408 H380 0.929 . S
C408 C409 1.390 . S
C408 N411 1.391 . S
C409 H381 0.930 . S
C409 C408 1.390 . S
C409 C410 1.392 . S
C410 H382 0.929 . S
C410 C407 1.391 . S
C410 C409 1.392 . S
N411 Co355 2.257 . S
N411 C408 1.391 . S
N411 C412 1.388 . S
C412 H383 0.930 . S
C412 C407 1.391 . S
C412 N411 1.388 . S
Co413 O415 2.143 . S
Co413 O421 2.074 . S
Co413 O424 2.093 . S
Co413 O437 2.097 . S
Co413 N454 2.151 . S
Co413 N462 2.214 . S
Co414 O415 2.160 . S
Co414 O420 2.058 . S
Co414 O430 2.057 . S
Co414 O445 2.037 . S
Co414 N449 2.145 . S
Co414 N470 2.257 . S
O415 Co413 2.143 . S
O415 Co414 2.160 . S
C416 O417 1.278 . S
C416 O424 1.224 . S
O417 C416 1.278 . S
C418 O419 1.245 . S
C418 O430 1.232 . S
O419 C418 1.245 . S
O420 Co414 2.058 . S
O420 C446 1.269 . S
O421 Co413 2.074 . S
O421 C446 1.257 . S
H422 C447 0.930 . S
H423 C453 0.930 . S
O424 Co413 2.093 . S
O424 C416 1.224 . S
H425 C457 0.929 . S
H426 C459 0.930 . S
H427 C460 0.930 . S
H428 C458 0.929 . S
H429 C461 0.928 . S
O430 Co414 2.057 . S
O430 C418 1.232 . S
H431 C450 0.929 . S
H432 C451 0.929 . S
H433 C463 0.931 . S
H434 C455 0.929 . S
H435 C464 0.930 . S
H436 C456 0.931 . S
O437 Co413 2.097 . S
O437 C465 1.214 . S
H438 C466 0.929 . S
H439 C467 0.929 . S
H440 C468 0.930 . S
H441 C469 0.929 . S
H442 C471 0.930 . S
H443 C448 0.930 . S
H444 C452 0.930 . S
O445 Co414 2.037 . S
O445 C465 1.234 . S
C446 O420 1.269 . S
C446 O421 1.257 . S
C447 H422 0.930 . S
C447 C450 1.388 . S
C447 C452 1.418 . S
C448 H443 0.930 . S
C448 C451 1.404 . S
C448 C452 1.353 . S
N449 Co414 2.145 . S
N449 C450 1.397 . S
N449 C451 1.334 . S
C450 H431 0.929 . S
C450 C447 1.388 . S
C450 N449 1.397 . S
C451 H432 0.929 . S
C451 C448 1.404 . S
C451 N449 1.334 . S
C452 H444 0.930 . S
C452 C447 1.418 . S
C452 C448 1.353 . S
C453 H423 0.930 . S
C453 N454 1.330 . S
C453 C455 1.446 . S
N454 Co413 2.151 . S
N454 C453 1.330 . S
N454 C458 1.418 . S
C455 H434 0.929 . S
C455 C453 1.446 . S
C455 C456 1.332 . S
C456 H436 0.931 . S
C456 C455 1.332 . S
C456 C457 1.267 . S
C457 H425 0.929 . S
C457 C456 1.267 . S
C457 C458 1.251 . S
C458 H428 0.929 . S
C458 N454 1.418 . S
C458 C457 1.251 . S
C459 H426 0.930 . S
C459 C461 1.406 . S
C459 C464 1.261 . S
C460 H427 0.930 . S
C460 N462 1.325 . S
C460 C463 1.357 . S
C461 H429 0.928 . S
C461 C459 1.406 . S
C461 N462 1.261 . S
N462 Co413 2.214 . S
N462 C460 1.325 . S
N462 C461 1.261 . S
C463 H433 0.931 . S
C463 C460 1.357 . S
C463 C464 1.312 . S
C464 H435 0.930 . S
C464 C459 1.261 . S
C464 C463 1.312 . S
C465 O437 1.214 . S
C465 O445 1.234 . S
C466 H438 0.929 . S
C466 C469 1.391 . S
C466 C471 1.391 . S
C467 H439 0.929 . S
C467 C468 1.390 . S
C467 N470 1.391 . S
C468 H440 0.930 . S
C468 C467 1.390 . S
C468 C469 1.392 . S
C469 H441 0.929 . S
C469 C466 1.391 . S
C469 C468 1.392 . S
N470 Co414 2.257 . S
N470 C467 1.391 . S
N470 C471 1.388 . S
C471 H442 0.930 . S
C471 C466 1.391 . S
C471 N470 1.388 . S
Co472 O474 2.143 . S
Co472 O480 2.074 . S
Co472 O483 2.093 . S
Co472 O496 2.097 . S
Co472 N513 2.151 . S
Co472 N521 2.214 . S
Co473 O474 2.160 . S
Co473 O479 2.058 . S
Co473 O489 2.057 . S
Co473 O504 2.037 . S
Co473 N508 2.145 . S
Co473 N529 2.257 . S
O474 Co472 2.143 . S
O474 Co473 2.160 . S
C475 O476 1.278 . S
C475 O483 1.224 . S
O476 C475 1.278 . S
C477 O478 1.245 . S
C477 O489 1.232 . S
O478 C477 1.245 . S
O479 Co473 2.058 . S
O479 C505 1.269 . S
O480 Co472 2.074 . S
O480 C505 1.257 . S
H481 C506 0.930 . S
H482 C512 0.930 . S
O483 Co472 2.093 . S
O483 C475 1.224 . S
H484 C516 0.929 . S
H485 C518 0.930 . S
H486 C519 0.930 . S
H487 C517 0.929 . S
H488 C520 0.928 . S
O489 Co473 2.057 . S
O489 C477 1.232 . S
H490 C509 0.929 . S
H491 C510 0.929 . S
H492 C522 0.931 . S
H493 C514 0.929 . S
H494 C523 0.930 . S
H495 C515 0.931 . S
O496 Co472 2.097 . S
O496 C524 1.214 . S
H497 C525 0.929 . S
H498 C526 0.929 . S
H499 C527 0.930 . S
H500 C528 0.929 . S
H501 C530 0.930 . S
H502 C507 0.930 . S
H503 C511 0.930 . S
O504 Co473 2.037 . S
O504 C524 1.234 . S
C505 O479 1.269 . S
C505 O480 1.257 . S
C506 H481 0.930 . S
C506 C509 1.388 . S
C506 C511 1.418 . S
C507 H502 0.930 . S
C507 C510 1.404 . S
C507 C511 1.353 . S
N508 Co473 2.145 . S
N508 C509 1.397 . S
N508 C510 1.334 . S
C509 H490 0.929 . S
C509 C506 1.388 . S
C509 N508 1.397 . S
C510 H491 0.929 . S
C510 C507 1.404 . S
C510 N508 1.334 . S
C511 H503 0.930 . S
C511 C506 1.418 . S
C511 C507 1.353 . S
C512 H482 0.930 . S
C512 N513 1.330 . S
C512 C514 1.446 . S
N513 Co472 2.151 . S
N513 C512 1.330 . S
N513 C517 1.418 . S
C514 H493 0.929 . S
C514 C512 1.446 . S
C514 C515 1.332 . S
C515 H495 0.931 . S
C515 C514 1.332 . S
C515 C516 1.267 . S
C516 H484 0.929 . S
C516 C515 1.267 . S
C516 C517 1.251 . S
C517 H487 0.929 . S
C517 N513 1.418 . S
C517 C516 1.251 . S
C518 H485 0.930 . S
C518 C520 1.406 . S
C518 C523 1.261 . S
C519 H486 0.930 . S
C519 N521 1.325 . S
C519 C522 1.357 . S
C520 H488 0.928 . S
C520 C518 1.406 . S
C520 N521 1.261 . S
N521 Co472 2.214 . S
N521 C519 1.325 . S
N521 C520 1.261 . S
C522 H492 0.931 . S
C522 C519 1.357 . S
C522 C523 1.312 . S
C523 H494 0.930 . S
C523 C518 1.261 . S
C523 C522 1.312 . S
C524 O496 1.214 . S
C524 O504 1.234 . S
C525 H497 0.929 . S
C525 C528 1.391 . S
C525 C530 1.391 . S
C526 H498 0.929 . S
C526 C527 1.390 . S
C526 N529 1.391 . S
C527 H499 0.930 . S
C527 C526 1.390 . S
C527 C528 1.392 . S
C528 H500 0.929 . S
C528 C525 1.391 . S
C528 C527 1.392 . S
N529 Co473 2.257 . S
N529 C526 1.391 . S
N529 C530 1.388 . S
C530 H501 0.930 . S
C530 C525 1.391 . S
C530 N529 1.388 . S
Co531 O533 2.143 . S
Co531 O539 2.074 . S
Co531 O542 2.093 . S
Co531 O555 2.097 . S
Co531 N572 2.151 . S
Co531 N580 2.214 . S
Co532 O533 2.160 . S
Co532 O538 2.058 . S
Co532 O548 2.057 . S
Co532 O563 2.037 . S
Co532 N567 2.145 . S
Co532 N588 2.257 . S
O533 Co531 2.143 . S
O533 Co532 2.160 . S
C534 O535 1.278 . S
C534 O542 1.224 . S
O535 C534 1.278 . S
C536 O537 1.245 . S
C536 O548 1.232 . S
O537 C536 1.245 . S
O538 Co532 2.058 . S
O538 C564 1.269 . S
O539 Co531 2.074 . S
O539 C564 1.257 . S
H540 C565 0.930 . S
H541 C571 0.930 . S
O542 Co531 2.093 . S
O542 C534 1.224 . S
H543 C575 0.929 . S
H544 C577 0.930 . S
H545 C578 0.930 . S
H546 C576 0.929 . S
H547 C579 0.928 . S
O548 Co532 2.057 . S
O548 C536 1.232 . S
H549 C568 0.929 . S
H550 C569 0.929 . S
H551 C581 0.931 . S
H552 C573 0.929 . S
H553 C582 0.930 . S
H554 C574 0.931 . S
O555 Co531 2.097 . S
O555 C583 1.214 . S
H556 C584 0.929 . S
H557 C585 0.929 . S
H558 C586 0.930 . S
H559 C587 0.929 . S
H560 C589 0.930 . S
H561 C566 0.930 . S
H562 C570 0.930 . S
O563 Co532 2.037 . S
O563 C583 1.234 . S
C564 O538 1.269 . S
C564 O539 1.257 . S
C565 H540 0.930 . S
C565 C568 1.388 . S
C565 C570 1.418 . S
C566 H561 0.930 . S
C566 C569 1.404 . S
C566 C570 1.353 . S
N567 Co532 2.145 . S
N567 C568 1.397 . S
N567 C569 1.334 . S
C568 H549 0.929 . S
C568 C565 1.388 . S
C568 N567 1.397 . S
C569 H550 0.929 . S
C569 C566 1.404 . S
C569 N567 1.334 . S
C570 H562 0.930 . S
C570 C565 1.418 . S
C570 C566 1.353 . S
C571 H541 0.930 . S
C571 N572 1.330 . S
C571 C573 1.446 . S
N572 Co531 2.151 . S
N572 C571 1.330 . S
N572 C576 1.418 . S
C573 H552 0.929 . S
C573 C571 1.446 . S
C573 C574 1.332 . S
C574 H554 0.931 . S
C574 C573 1.332 . S
C574 C575 1.267 . S
C575 H543 0.929 . S
C575 C574 1.267 . S
C575 C576 1.251 . S
C576 H546 0.929 . S
C576 N572 1.418 . S
C576 C575 1.251 . S
C577 H544 0.930 . S
C577 C579 1.406 . S
C577 C582 1.261 . S
C578 H545 0.930 . S
C578 N580 1.325 . S
C578 C581 1.357 . S
C579 H547 0.928 . S
C579 C577 1.406 . S
C579 N580 1.261 . S
N580 Co531 2.214 . S
N580 C578 1.325 . S
N580 C579 1.261 . S
C581 H551 0.931 . S
C581 C578 1.357 . S
C581 C582 1.312 . S
C582 H553 0.930 . S
C582 C577 1.261 . S
C582 C581 1.312 . S
C583 O555 1.214 . S
C583 O563 1.234 . S
C584 H556 0.929 . S
C584 C587 1.391 . S
C584 C589 1.391 . S
C585 H557 0.929 . S
C585 C586 1.390 . S
C585 N588 1.391 . S
C586 H558 0.930 . S
C586 C585 1.390 . S
C586 C587 1.392 . S
C587 H559 0.929 . S
C587 C584 1.391 . S
C587 C586 1.392 . S
N588 Co532 2.257 . S
N588 C585 1.391 . S
N588 C589 1.388 . S
C589 H560 0.930 . S
C589 C584 1.391 . S
C589 N588 1.388 . S
Co590 O592 2.143 . S
Co590 O598 2.074 . S
Co590 O601 2.093 . S
Co590 O614 2.097 . S
Co590 N631 2.151 . S
Co590 N639 2.214 . S
Co591 O592 2.160 . S
Co591 O597 2.058 . S
Co591 O607 2.057 . S
Co591 O622 2.037 . S
Co591 N626 2.145 . S
Co591 N647 2.257 . S
O592 Co590 2.143 . S
O592 Co591 2.160 . S
C593 O594 1.278 . S
C593 O601 1.224 . S
O594 C593 1.278 . S
C595 O596 1.245 . S
C595 O607 1.232 . S
O596 C595 1.245 . S
O597 Co591 2.058 . S
O597 C623 1.269 . S
O598 Co590 2.074 . S
O598 C623 1.257 . S
H599 C624 0.930 . S
H600 C630 0.930 . S
O601 Co590 2.093 . S
O601 C593 1.224 . S
H602 C634 0.929 . S
H603 C636 0.930 . S
H604 C637 0.930 . S
H605 C635 0.929 . S
H606 C638 0.928 . S
O607 Co591 2.057 . S
O607 C595 1.232 . S
H608 C627 0.929 . S
H609 C628 0.929 . S
H610 C640 0.931 . S
H611 C632 0.929 . S
H612 C641 0.930 . S
H613 C633 0.931 . S
O614 Co590 2.097 . S
O614 C642 1.214 . S
H615 C643 0.929 . S
H616 C644 0.929 . S
H617 C645 0.930 . S
H618 C646 0.929 . S
H619 C648 0.930 . S
H620 C625 0.930 . S
H621 C629 0.930 . S
O622 Co591 2.037 . S
O622 C642 1.234 . S
C623 O597 1.269 . S
C623 O598 1.257 . S
C624 H599 0.930 . S
C624 C627 1.388 . S
C624 C629 1.418 . S
C625 H620 0.930 . S
C625 C628 1.404 . S
C625 C629 1.353 . S
N626 Co591 2.145 . S
N626 C627 1.397 . S
N626 C628 1.334 . S
C627 H608 0.929 . S
C627 C624 1.388 . S
C627 N626 1.397 . S
C628 H609 0.929 . S
C628 C625 1.404 . S
C628 N626 1.334 . S
C629 H621 0.930 . S
C629 C624 1.418 . S
C629 C625 1.353 . S
C630 H600 0.930 . S
C630 N631 1.330 . S
C630 C632 1.446 . S
N631 Co590 2.151 . S
N631 C630 1.330 . S
N631 C635 1.418 . S
C632 H611 0.929 . S
C632 C630 1.446 . S
C632 C633 1.332 . S
C633 H613 0.931 . S
C633 C632 1.332 . S
C633 C634 1.267 . S
C634 H602 0.929 . S
C634 C633 1.267 . S
C634 C635 1.251 . S
C635 H605 0.929 . S
C635 N631 1.418 . S
C635 C634 1.251 . S
C636 H603 0.930 . S
C636 C638 1.406 . S
C636 C641 1.261 . S
C637 H604 0.930 . S
C637 N639 1.325 . S
C637 C640 1.357 . S
C638 H606 0.928 . S
C638 C636 1.406 . S
C638 N639 1.261 . S
N639 Co590 2.214 . S
N639 C637 1.325 . S
N639 C638 1.261 . S
C640 H610 0.931 . S
C640 C637 1.357 . S
C640 C641 1.312 . S
C641 H612 0.930 . S
C641 C636 1.261 . S
C641 C640 1.312 . S
C642 O614 1.214 . S
C642 O622 1.234 . S
C643 H615 0.929 . S
C643 C646 1.391 . S
C643 C648 1.391 . S
C644 H616 0.929 . S
C644 C645 1.390 . S
C644 N647 1.391 . S
C645 H617 0.930 . S
C645 C644 1.390 . S
C645 C646 1.392 . S
C646 H618 0.929 . S
C646 C643 1.391 . S
C646 C645 1.392 . S
N647 Co591 2.257 . S
N647 C644 1.391 . S
N647 C648 1.388 . S
C648 H619 0.930 . S
C648 C643 1.391 . S
C648 N647 1.388 . S
Co649 O651 2.143 . S
Co649 O657 2.074 . S
Co649 O660 2.093 . S
Co649 O673 2.097 . S
Co649 N690 2.151 . S
Co649 N698 2.214 . S
Co650 O651 2.160 . S
Co650 O656 2.058 . S
Co650 O666 2.057 . S
Co650 O681 2.037 . S
Co650 N685 2.145 . S
Co650 N706 2.257 . S
O651 Co649 2.143 . S
O651 Co650 2.160 . S
C652 O653 1.278 . S
C652 O660 1.224 . S
O653 C652 1.278 . S
C654 O655 1.245 . S
C654 O666 1.232 . S
O655 C654 1.245 . S
O656 Co650 2.058 . S
O656 C682 1.269 . S
O657 Co649 2.074 . S
O657 C682 1.257 . S
H658 C683 0.930 . S
H659 C689 0.930 . S
O660 Co649 2.093 . S
O660 C652 1.224 . S
H661 C693 0.929 . S
H662 C695 0.930 . S
H663 C696 0.930 . S
H664 C694 0.929 . S
H665 C697 0.928 . S
O666 Co650 2.057 . S
O666 C654 1.232 . S
H667 C686 0.929 . S
H668 C687 0.929 . S
H669 C699 0.931 . S
H670 C691 0.929 . S
H671 C700 0.930 . S
H672 C692 0.931 . S
O673 Co649 2.097 . S
O673 C701 1.214 . S
H674 C702 0.929 . S
H675 C703 0.929 . S
H676 C704 0.930 . S
H677 C705 0.929 . S
H678 C707 0.930 . S
H679 C684 0.930 . S
H680 C688 0.930 . S
O681 Co650 2.037 . S
O681 C701 1.234 . S
C682 O656 1.269 . S
C682 O657 1.257 . S
C683 H658 0.930 . S
C683 C686 1.388 . S
C683 C688 1.418 . S
C684 H679 0.930 . S
C684 C687 1.404 . S
C684 C688 1.353 . S
N685 Co650 2.145 . S
N685 C686 1.397 . S
N685 C687 1.334 . S
C686 H667 0.929 . S
C686 C683 1.388 . S
C686 N685 1.397 . S
C687 H668 0.929 . S
C687 C684 1.404 . S
C687 N685 1.334 . S
C688 H680 0.930 . S
C688 C683 1.418 . S
C688 C684 1.353 . S
C689 H659 0.930 . S
C689 N690 1.330 . S
C689 C691 1.446 . S
N690 Co649 2.151 . S
N690 C689 1.330 . S
N690 C694 1.418 . S
C691 H670 0.929 . S
C691 C689 1.446 . S
C691 C692 1.332 . S
C692 H672 0.931 . S
C692 C691 1.332 . S
C692 C693 1.267 . S
C693 H661 0.929 . S
C693 C692 1.267 . S
C693 C694 1.251 . S
C694 H664 0.929 . S
C694 N690 1.418 . S
C694 C693 1.251 . S
C695 H662 0.930 . S
C695 C697 1.406 . S
C695 C700 1.261 . S
C696 H663 0.930 . S
C696 N698 1.325 . S
C696 C699 1.357 . S
C697 H665 0.928 . S
C697 C695 1.406 . S
C697 N698 1.261 . S
N698 Co649 2.214 . S
N698 C696 1.325 . S
N698 C697 1.261 . S
C699 H669 0.931 . S
C699 C696 1.357 . S
C699 C700 1.312 . S
C700 H671 0.930 . S
C700 C695 1.261 . S
C700 C699 1.312 . S
C701 O673 1.214 . S
C701 O681 1.234 . S
C702 H674 0.929 . S
C702 C705 1.391 . S
C702 C707 1.391 . S
C703 H675 0.929 . S
C703 C704 1.390 . S
C703 N706 1.391 . S
C704 H676 0.930 . S
C704 C703 1.390 . S
C704 C705 1.392 . S
C705 H677 0.929 . S
C705 C702 1.391 . S
C705 C704 1.392 . S
N706 Co650 2.257 . S
N706 C703 1.391 . S
N706 C707 1.388 . S
C707 H678 0.930 . S
C707 C702 1.391 . S
C707 N706 1.388 . S
Co708 O710 2.143 . S
Co708 O716 2.074 . S
Co708 O719 2.093 . S
Co708 O732 2.097 . S
Co708 N749 2.151 . S
Co708 N757 2.214 . S
Co709 O710 2.160 . S
Co709 O715 2.058 . S
Co709 O725 2.057 . S
Co709 O740 2.037 . S
Co709 N744 2.145 . S
Co709 N765 2.257 . S
O710 Co708 2.143 . S
O710 Co709 2.160 . S
C711 O712 1.278 . S
C711 O719 1.224 . S
O712 C711 1.278 . S
C713 O714 1.245 . S
C713 O725 1.232 . S
O714 C713 1.245 . S
O715 Co709 2.058 . S
O715 C741 1.269 . S
O716 Co708 2.074 . S
O716 C741 1.257 . S
H717 C742 0.930 . S
H718 C748 0.930 . S
O719 Co708 2.093 . S
O719 C711 1.224 . S
H720 C752 0.929 . S
H721 C754 0.930 . S
H722 C755 0.930 . S
H723 C753 0.929 . S
H724 C756 0.928 . S
O725 Co709 2.057 . S
O725 C713 1.232 . S
H726 C745 0.929 . S
H727 C746 0.929 . S
H728 C758 0.931 . S
H729 C750 0.929 . S
H730 C759 0.930 . S
H731 C751 0.931 . S
O732 Co708 2.097 . S
O732 C760 1.214 . S
H733 C761 0.929 . S
H734 C762 0.929 . S
H735 C763 0.930 . S
H736 C764 0.929 . S
H737 C766 0.930 . S
H738 C743 0.930 . S
H739 C747 0.930 . S
O740 Co709 2.037 . S
O740 C760 1.234 . S
C741 O715 1.269 . S
C741 O716 1.257 . S
C742 H717 0.930 . S
C742 C745 1.388 . S
C742 C747 1.418 . S
C743 H738 0.930 . S
C743 C746 1.404 . S
C743 C747 1.353 . S
N744 Co709 2.145 . S
N744 C745 1.397 . S
N744 C746 1.334 . S
C745 H726 0.929 . S
C745 C742 1.388 . S
C745 N744 1.397 . S
C746 H727 0.929 . S
C746 C743 1.404 . S
C746 N744 1.334 . S
C747 H739 0.930 . S
C747 C742 1.418 . S
C747 C743 1.353 . S
C748 H718 0.930 . S
C748 N749 1.330 . S
C748 C750 1.446 . S
N749 Co708 2.151 . S
N749 C748 1.330 . S
N749 C753 1.418 . S
C750 H729 0.929 . S
C750 C748 1.446 . S
C750 C751 1.332 . S
C751 H731 0.931 . S
C751 C750 1.332 . S
C751 C752 1.267 . S
C752 H720 0.929 . S
C752 C751 1.267 . S
C752 C753 1.251 . S
C753 H723 0.929 . S
C753 N749 1.418 . S
C753 C752 1.251 . S
C754 H721 0.930 . S
C754 C756 1.406 . S
C754 C759 1.261 . S
C755 H722 0.930 . S
C755 N757 1.325 . S
C755 C758 1.357 . S
C756 H724 0.928 . S
C756 C754 1.406 . S
C756 N757 1.261 . S
N757 Co708 2.214 . S
N757 C755 1.325 . S
N757 C756 1.261 . S
C758 H728 0.931 . S
C758 C755 1.357 . S
C758 C759 1.312 . S
C759 H730 0.930 . S
C759 C754 1.261 . S
C759 C758 1.312 . S
C760 O732 1.214 . S
C760 O740 1.234 . S
C761 H733 0.929 . S
C761 C764 1.391 . S
C761 C766 1.391 . S
C762 H734 0.929 . S
C762 C763 1.390 . S
C762 N765 1.391 . S
C763 H735 0.930 . S
C763 C762 1.390 . S
C763 C764 1.392 . S
C764 H736 0.929 . S
C764 C761 1.391 . S
C764 C763 1.392 . S
N765 Co709 2.257 . S
N765 C762 1.391 . S
N765 C766 1.388 . S
C766 H737 0.930 . S
C766 C761 1.391 . S
C766 N765 1.388 . S
Co767 O769 2.143 . S
Co767 O775 2.074 . S
Co767 O778 2.093 . S
Co767 O791 2.097 . S
Co767 N808 2.151 . S
Co767 N816 2.214 . S
Co768 O769 2.160 . S
Co768 O774 2.058 . S
Co768 O784 2.057 . S
Co768 O799 2.037 . S
Co768 N803 2.145 . S
Co768 N824 2.257 . S
O769 Co767 2.143 . S
O769 Co768 2.160 . S
C770 O771 1.278 . S
C770 O778 1.224 . S
O771 C770 1.278 . S
C772 O773 1.245 . S
C772 O784 1.232 . S
O773 C772 1.245 . S
O774 Co768 2.058 . S
O774 C800 1.269 . S
O775 Co767 2.074 . S
O775 C800 1.257 . S
H776 C801 0.930 . S
H777 C807 0.930 . S
O778 Co767 2.093 . S
O778 C770 1.224 . S
H779 C811 0.929 . S
H780 C813 0.930 . S
H781 C814 0.930 . S
H782 C812 0.929 . S
H783 C815 0.928 . S
O784 Co768 2.057 . S
O784 C772 1.232 . S
H785 C804 0.929 . S
H786 C805 0.929 . S
H787 C817 0.931 . S
H788 C809 0.929 . S
H789 C818 0.930 . S
H790 C810 0.931 . S
O791 Co767 2.097 . S
O791 C819 1.214 . S
H792 C820 0.929 . S
H793 C821 0.929 . S
H794 C822 0.930 . S
H795 C823 0.929 . S
H796 C825 0.930 . S
H797 C802 0.930 . S
H798 C806 0.930 . S
O799 Co768 2.037 . S
O799 C819 1.234 . S
C800 O774 1.269 . S
C800 O775 1.257 . S
C801 H776 0.930 . S
C801 C804 1.388 . S
C801 C806 1.418 . S
C802 H797 0.930 . S
C802 C805 1.404 . S
C802 C806 1.353 . S
N803 Co768 2.145 . S
N803 C804 1.397 . S
N803 C805 1.334 . S
C804 H785 0.929 . S
C804 C801 1.388 . S
C804 N803 1.397 . S
C805 H786 0.929 . S
C805 C802 1.404 . S
C805 N803 1.334 . S
C806 H798 0.930 . S
C806 C801 1.418 . S
C806 C802 1.353 . S
C807 H777 0.930 . S
C807 N808 1.330 . S
C807 C809 1.446 . S
N808 Co767 2.151 . S
N808 C807 1.330 . S
N808 C812 1.418 . S
C809 H788 0.929 . S
C809 C807 1.446 . S
C809 C810 1.332 . S
C810 H790 0.931 . S
C810 C809 1.332 . S
C810 C811 1.267 . S
C811 H779 0.929 . S
C811 C810 1.267 . S
C811 C812 1.251 . S
C812 H782 0.929 . S
C812 N808 1.418 . S
C812 C811 1.251 . S
C813 H780 0.930 . S
C813 C815 1.406 . S
C813 C818 1.261 . S
C814 H781 0.930 . S
C814 N816 1.325 . S
C814 C817 1.357 . S
C815 H783 0.928 . S
C815 C813 1.406 . S
C815 N816 1.261 . S
N816 Co767 2.214 . S
N816 C814 1.325 . S
N816 C815 1.261 . S
C817 H787 0.931 . S
C817 C814 1.357 . S
C817 C818 1.312 . S
C818 H789 0.930 . S
C818 C813 1.261 . S
C818 C817 1.312 . S
C819 O791 1.214 . S
C819 O799 1.234 . S
C820 H792 0.929 . S
C820 C823 1.391 . S
C820 C825 1.391 . S
C821 H793 0.929 . S
C821 C822 1.390 . S
C821 N824 1.391 . S
C822 H794 0.930 . S
C822 C821 1.390 . S
C822 C823 1.392 . S
C823 H795 0.929 . S
C823 C820 1.391 . S
C823 C822 1.392 . S
N824 Co768 2.257 . S
N824 C821 1.391 . S
N824 C825 1.388 . S
C825 H796 0.930 . S
C825 C820 1.391 . S
C825 N824 1.388 . S
Co826 O828 2.143 . S
Co826 O834 2.074 . S
Co826 O837 2.093 . S
Co826 O850 2.097 . S
Co826 N867 2.151 . S
Co826 N875 2.214 . S
Co827 O828 2.160 . S
Co827 O833 2.058 . S
Co827 O843 2.057 . S
Co827 O858 2.037 . S
Co827 N862 2.145 . S
Co827 N883 2.257 . S
O828 Co826 2.143 . S
O828 Co827 2.160 . S
C829 O830 1.278 . S
C829 O837 1.224 . S
O830 C829 1.278 . S
C831 O832 1.245 . S
C831 O843 1.232 . S
O832 C831 1.245 . S
O833 Co827 2.058 . S
O833 C859 1.269 . S
O834 Co826 2.074 . S
O834 C859 1.257 . S
H835 C860 0.930 . S
H836 C866 0.930 . S
O837 Co826 2.093 . S
O837 C829 1.224 . S
H838 C870 0.929 . S
H839 C872 0.930 . S
H840 C873 0.930 . S
H841 C871 0.929 . S
H842 C874 0.928 . S
O843 Co827 2.057 . S
O843 C831 1.232 . S
H844 C863 0.929 . S
H845 C864 0.929 . S
H846 C876 0.931 . S
H847 C868 0.929 . S
H848 C877 0.930 . S
H849 C869 0.931 . S
O850 Co826 2.097 . S
O850 C878 1.214 . S
H851 C879 0.929 . S
H852 C880 0.929 . S
H853 C881 0.930 . S
H854 C882 0.929 . S
H855 C884 0.930 . S
H856 C861 0.930 . S
H857 C865 0.930 . S
O858 Co827 2.037 . S
O858 C878 1.234 . S
C859 O833 1.269 . S
C859 O834 1.257 . S
C860 H835 0.930 . S
C860 C863 1.388 . S
C860 C865 1.418 . S
C861 H856 0.930 . S
C861 C864 1.404 . S
C861 C865 1.353 . S
N862 Co827 2.145 . S
N862 C863 1.397 . S
N862 C864 1.334 . S
C863 H844 0.929 . S
C863 C860 1.388 . S
C863 N862 1.397 . S
C864 H845 0.929 . S
C864 C861 1.404 . S
C864 N862 1.334 . S
C865 H857 0.930 . S
C865 C860 1.418 . S
C865 C861 1.353 . S
C866 H836 0.930 . S
C866 N867 1.330 . S
C866 C868 1.446 . S
N867 Co826 2.151 . S
N867 C866 1.330 . S
N867 C871 1.418 . S
C868 H847 0.929 . S
C868 C866 1.446 . S
C868 C869 1.332 . S
C869 H849 0.931 . S
C869 C868 1.332 . S
C869 C870 1.267 . S
C870 H838 0.929 . S
C870 C869 1.267 . S
C870 C871 1.251 . S
C871 H841 0.929 . S
C871 N867 1.418 . S
C871 C870 1.251 . S
C872 H839 0.930 . S
C872 C874 1.406 . S
C872 C877 1.261 . S
C873 H840 0.930 . S
C873 N875 1.325 . S
C873 C876 1.357 . S
C874 H842 0.928 . S
C874 C872 1.406 . S
C874 N875 1.261 . S
N875 Co826 2.214 . S
N875 C873 1.325 . S
N875 C874 1.261 . S
C876 H846 0.931 . S
C876 C873 1.357 . S
C876 C877 1.312 . S
C877 H848 0.930 . S
C877 C872 1.261 . S
C877 C876 1.312 . S
C878 O850 1.214 . S
C878 O858 1.234 . S
C879 H851 0.929 . S
C879 C882 1.391 . S
C879 C884 1.391 . S
C880 H852 0.929 . S
C880 C881 1.390 . S
C880 N883 1.391 . S
C881 H853 0.930 . S
C881 C880 1.390 . S
C881 C882 1.392 . S
C882 H854 0.929 . S
C882 C879 1.391 . S
C882 C881 1.392 . S
N883 Co827 2.257 . S
N883 C880 1.391 . S
N883 C884 1.388 . S
C884 H855 0.930 . S
C884 C879 1.391 . S
C884 N883 1.388 . S
Co885 O887 2.143 . S
Co885 O893 2.074 . S
Co885 O896 2.093 . S
Co885 O909 2.097 . S
Co885 N926 2.151 . S
Co885 N934 2.214 . S
Co886 O887 2.160 . S
Co886 O892 2.058 . S
Co886 O902 2.057 . S
Co886 O917 2.037 . S
Co886 N921 2.145 . S
Co886 N942 2.257 . S
O887 Co885 2.143 . S
O887 Co886 2.160 . S
C888 O889 1.278 . S
C888 O896 1.224 . S
O889 C888 1.278 . S
C890 O891 1.245 . S
C890 O902 1.232 . S
O891 C890 1.245 . S
O892 Co886 2.058 . S
O892 C918 1.269 . S
O893 Co885 2.074 . S
O893 C918 1.257 . S
H894 C919 0.930 . S
H895 C925 0.930 . S
O896 Co885 2.093 . S
O896 C888 1.224 . S
H897 C929 0.929 . S
H898 C931 0.930 . S
H899 C932 0.930 . S
H900 C930 0.929 . S
H901 C933 0.928 . S
O902 Co886 2.057 . S
O902 C890 1.232 . S
H903 C922 0.929 . S
H904 C923 0.929 . S
H905 C935 0.931 . S
H906 C927 0.929 . S
H907 C936 0.930 . S
H908 C928 0.931 . S
O909 Co885 2.097 . S
O909 C937 1.214 . S
H910 C938 0.929 . S
H911 C939 0.929 . S
H912 C940 0.930 . S
H913 C941 0.929 . S
H914 C943 0.930 . S
H915 C920 0.930 . S
H916 C924 0.930 . S
O917 Co886 2.037 . S
O917 C937 1.234 . S
C918 O892 1.269 . S
C918 O893 1.257 . S
C919 H894 0.930 . S
C919 C922 1.388 . S
C919 C924 1.418 . S
C920 H915 0.930 . S
C920 C923 1.404 . S
C920 C924 1.353 . S
N921 Co886 2.145 . S
N921 C922 1.397 . S
N921 C923 1.334 . S
C922 H903 0.929 . S
C922 C919 1.388 . S
C922 N921 1.397 . S
C923 H904 0.929 . S
C923 C920 1.404 . S
C923 N921 1.334 . S
C924 H916 0.930 . S
C924 C919 1.418 . S
C924 C920 1.353 . S
C925 H895 0.930 . S
C925 N926 1.330 . S
C925 C927 1.446 . S
N926 Co885 2.151 . S
N926 C925 1.330 . S
N926 C930 1.418 . S
C927 H906 0.929 . S
C927 C925 1.446 . S
C927 C928 1.332 . S
C928 H908 0.931 . S
C928 C927 1.332 . S
C928 C929 1.267 . S
C929 H897 0.929 . S
C929 C928 1.267 . S
C929 C930 1.251 . S
C930 H900 0.929 . S
C930 N926 1.418 . S
C930 C929 1.251 . S
C931 H898 0.930 . S
C931 C933 1.406 . S
C931 C936 1.261 . S
C932 H899 0.930 . S
C932 N934 1.325 . S
C932 C935 1.357 . S
C933 H901 0.928 . S
C933 C931 1.406 . S
C933 N934 1.261 . S
N934 Co885 2.214 . S
N934 C932 1.325 . S
N934 C933 1.261 . S
C935 H905 0.931 . S
C935 C932 1.357 . S
C935 C936 1.312 . S
C936 H907 0.930 . S
C936 C931 1.261 . S
C936 C935 1.312 . S
C937 O909 1.214 . S
C937 O917 1.234 . S
C938 H910 0.929 . S
C938 C941 1.391 . S
C938 C943 1.391 . S
C939 H911 0.929 . S
C939 C940 1.390 . S
C939 N942 1.391 . S
C940 H912 0.930 . S
C940 C939 1.390 . S
C940 C941 1.392 . S
C941 H913 0.929 . S
C941 C938 1.391 . S
C941 C940 1.392 . S
N942 Co886 2.257 . S
N942 C939 1.391 . S
N942 C943 1.388 . S
C943 H914 0.930 . S
C943 C938 1.391 . S
C943 N942 1.388 . S
H944 C956 0.930 . S
H945 C958 0.930 . S
H946 C959 0.930 . S
H947 C963 0.959 . S
H948 C963 0.959 1_655 S
H949 C963 0.961 . S
H950 C964 0.960 1_455 S
H951 C964 0.961 . S
H952 C964 0.959 . S
H953 C967 0.929 . S
H954 C968 0.931 . S
H955 C970 0.930 . S
C956 H944 0.930 . S
C956 C957 1.399 . S
C956 C961 1.399 . S
C957 C956 1.399 . S
C957 C958 1.376 . S
C958 H945 0.930 . S
C958 C957 1.376 . S
C958 C959 1.388 . S
C959 H946 0.930 . S
C959 C958 1.388 . S
C959 C960 1.390 . S
C960 C959 1.390 . S
C960 C961 1.394 . S
C960 C966 1.465 1_455 S
C961 C956 1.399 . S
C961 C960 1.394 . S
C961 C962 1.516 . S
C962 C961 1.516 . S
C962 C963 1.502 . S
C962 C964 1.561 1_455 S
C962 C965 1.526 1_455 S
C963 H947 0.959 . S
C963 H948 0.959 1_455 S
C963 H949 0.961 . S
C963 C962 1.502 . S
C964 H950 0.960 1_655 S
C964 H951 0.961 . S
C964 H952 0.959 . S
C964 C962 1.561 1_655 S
C965 C962 1.526 1_655 S
C965 C966 1.396 . S
C965 C970 1.390 . S
C966 C960 1.465 1_655 S
C966 C965 1.396 . S
C966 C967 1.399 . S
C967 H953 0.929 . S
C967 C966 1.399 . S
C967 C968 1.385 . S
C968 H954 0.931 . S
C968 C967 1.385 . S
C968 C969 1.389 . S
C969 C968 1.389 . S
C969 C970 1.387 . S
C970 H955 0.930 . S
C970 C965 1.390 . S
C970 C969 1.387 . S
H971 C983 0.930 . S
H972 C985 0.930 . S
H973 C986 0.930 . S
H974 C990 0.959 . S
H975 C990 0.959 . S
H976 C990 0.961 1_565 S
H977 C991 0.987 . S
H978 C991 0.933 1_545 S
H979 C991 0.966 . S
H980 C994 0.929 . S
H981 C995 0.931 . S
H982 C997 0.930 . S
C983 H971 0.930 . S
C983 C984 1.399 . S
C983 C988 1.399 . S
C984 C983 1.399 . S
C984 C985 1.376 . S
C985 H972 0.930 . S
C985 C984 1.376 . S
C985 C986 1.388 . S
C986 H973 0.930 . S
C986 C985 1.388 . S
C986 C987 1.390 . S
C987 C986 1.390 . S
C987 C988 1.394 . S
C987 C993 1.465 1_565 S
C988 C983 1.399 . S
C988 C987 1.394 . S
C988 C989 1.516 1_565 S
C989 C988 1.516 1_545 S
C989 C990 1.502 . S
C989 C991 1.557 1_545 S
C989 C992 1.526 . S
C990 H974 0.959 . S
C990 H975 0.959 . S
C990 H976 0.961 1_545 S
C990 C989 1.502 . S
C991 H977 0.987 . S
C991 H978 0.933 1_565 S
C991 H979 0.966 . S
C991 C989 1.557 1_565 S
C992 C989 1.526 . S
C992 C993 1.396 . S
C992 C997 1.390 . S
C993 C987 1.465 1_545 S
C993 C992 1.396 . S
C993 C994 1.399 . S
C994 H980 0.929 . S
C994 C993 1.399 . S
C994 C995 1.385 . S
C995 H981 0.931 . S
C995 C994 1.385 . S
C995 C996 1.389 . S
C996 C995 1.389 . S
C996 C997 1.387 . S
C997 H982 0.930 . S
C997 C992 1.390 . S
C997 C996 1.387 . S
H998 C1010 0.930 . S
H999 C1012 0.930 . S
H1000 C1013 0.930 . S
H1001 C1017 0.959 . S
H1002 C1017 0.959 1_655 S
H1003 C1017 0.961 . S
H1004 C1018 0.960 1_455 S
H1005 C1018 0.961 . S
H1006 C1018 0.959 . S
H1007 C1021 0.929 . S
H1008 C1022 0.931 . S
H1009 C1024 0.930 . S
C1010 H998 0.930 . S
C1010 C1011 1.399 . S
C1010 C1015 1.399 . S
C1011 C1010 1.399 . S
C1011 C1012 1.376 . S
C1012 H999 0.930 . S
C1012 C1011 1.376 . S
C1012 C1013 1.388 . S
C1013 H1000 0.930 . S
C1013 C1012 1.388 . S
C1013 C1014 1.390 . S
C1014 C1013 1.390 . S
C1014 C1015 1.394 . S
C1014 C1020 1.465 1_455 S
C1015 C1010 1.399 . S
C1015 C1014 1.394 . S
C1015 C1016 1.516 . S
C1016 C1015 1.516 . S
C1016 C1017 1.502 . S
C1016 C1018 1.561 1_455 S
C1016 C1019 1.526 1_455 S
C1017 H1001 0.959 . S
C1017 H1002 0.959 1_455 S
C1017 H1003 0.961 . S
C1017 C1016 1.502 . S
C1018 H1004 0.960 1_655 S
C1018 H1005 0.961 . S
C1018 H1006 0.959 . S
C1018 C1016 1.561 1_655 S
C1019 C1016 1.526 1_655 S
C1019 C1020 1.396 . S
C1019 C1024 1.390 . S
C1020 C1014 1.465 1_655 S
C1020 C1019 1.396 . S
C1020 C1021 1.399 . S
C1021 H1007 0.929 . S
C1021 C1020 1.399 . S
C1021 C1022 1.385 . S
C1022 H1008 0.931 . S
C1022 C1021 1.385 . S
C1022 C1023 1.389 . S
C1023 C1022 1.389 . S
C1023 C1024 1.387 . S
C1024 H1009 0.930 . S
C1024 C1019 1.390 . S
C1024 C1023 1.387 . S
H1025 C1037 0.930 . S
H1026 C1039 0.930 . S
H1027 C1040 0.930 . S
H1028 C1044 0.959 . S
H1029 C1044 0.959 . S
H1030 C1044 0.961 1_565 S
H1031 C1045 0.960 . S
H1032 C1045 0.961 1_545 S
H1033 C1045 0.959 . S
H1034 C1048 0.929 . S
H1035 C1049 0.931 . S
H1036 C1051 0.930 . S
C1037 H1025 0.930 . S
C1037 C1038 1.399 . S
C1037 C1042 1.399 . S
C1038 C1037 1.399 . S
C1038 C1039 1.376 . S
C1039 H1026 0.930 . S
C1039 C1038 1.376 . S
C1039 C1040 1.388 . S
C1040 H1027 0.930 . S
C1040 C1039 1.388 . S
C1040 C1041 1.390 . S
C1041 C1040 1.390 . S
C1041 C1042 1.394 . S
C1041 C1047 1.465 1_565 S
C1042 C1037 1.399 . S
C1042 C1041 1.394 . S
C1042 C1043 1.516 1_565 S
C1043 C1042 1.516 1_545 S
C1043 C1044 1.502 . S
C1043 C1045 1.561 1_545 S
C1043 C1046 1.526 . S
C1044 H1028 0.959 . S
C1044 H1029 0.959 . S
C1044 H1030 0.961 1_545 S
C1044 C1043 1.502 . S
C1045 H1031 0.960 . S
C1045 H1032 0.961 1_565 S
C1045 H1033 0.959 . S
C1045 C1043 1.561 1_565 S
C1046 C1043 1.526 . S
C1046 C1047 1.396 . S
C1046 C1051 1.390 . S
C1047 C1041 1.465 1_545 S
C1047 C1046 1.396 . S
C1047 C1048 1.399 . S
C1048 H1034 0.929 . S
C1048 C1047 1.399 . S
C1048 C1049 1.385 . S
C1049 H1035 0.931 . S
C1049 C1048 1.385 . S
C1049 C1050 1.389 . S
C1050 C1049 1.389 . S
C1050 C1051 1.387 . S
C1051 H1036 0.930 . S
C1051 C1046 1.390 . S
C1051 C1050 1.387 . S
H1052 C1064 0.930 . S
H1053 C1066 0.930 . S
H1054 C1067 0.930 . S
H1055 C1071 0.959 . S
H1056 C1071 0.959 1_455 S
H1057 C1071 0.961 . S
H1058 C1072 0.959 . S
H1059 C1072 0.961 1_455 S
H1060 C1072 0.959 1_455 S
H1061 C1075 0.929 . S
H1062 C1076 0.931 . S
H1063 C1078 0.930 . S
C1064 H1052 0.930 . S
C1064 C1065 1.399 . S
C1064 C1069 1.399 . S
C1065 C1064 1.399 . S
C1065 C1066 1.376 . S
C1066 H1053 0.930 . S
C1066 C1065 1.376 . S
C1066 C1067 1.388 . S
C1067 H1054 0.930 . S
C1067 C1066 1.388 . S
C1067 C1068 1.390 . S
C1068 C1067 1.390 . S
C1068 C1069 1.394 . S
C1068 C1074 1.465 1_655 S
C1069 C1064 1.399 . S
C1069 C1068 1.394 . S
C1069 C1070 1.516 . S
C1070 C1069 1.516 . S
C1070 C1071 1.502 . S
C1070 C1072 1.561 . S
C1070 C1073 1.526 1_655 S
C1071 H1055 0.959 . S
C1071 H1056 0.959 1_655 S
C1071 H1057 0.961 . S
C1071 C1070 1.502 . S
C1072 H1058 0.959 . S
C1072 H1059 0.961 1_655 S
C1072 H1060 0.959 1_655 S
C1072 C1070 1.561 . S
C1073 C1070 1.526 1_455 S
C1073 C1074 1.396 . S
C1073 C1078 1.390 . S
C1074 C1068 1.465 1_455 S
C1074 C1073 1.396 . S
C1074 C1075 1.399 . S
C1075 H1061 0.929 . S
C1075 C1074 1.399 . S
C1075 C1076 1.385 . S
C1076 H1062 0.931 . S
C1076 C1075 1.385 . S
C1076 C1077 1.389 . S
C1077 C1076 1.389 . S
C1077 C1078 1.387 . S
C1078 H1063 0.930 . S
C1078 C1073 1.390 . S
C1078 C1077 1.387 . S
H1079 C1091 0.930 . S
H1080 C1093 0.930 . S
H1081 C1094 0.930 . S
H1082 C1098 0.959 . S
H1083 C1098 0.959 . S
H1084 C1098 0.961 . S
H1085 C1099 0.960 1_545 S
H1086 C1099 0.961 . S
H1087 C1099 0.961 . S
H1088 C1102 0.929 . S
H1089 C1103 0.931 . S
H1090 C1105 0.930 . S
C1091 H1079 0.930 . S
C1091 C1092 1.399 . S
C1091 C1096 1.399 . S
C1092 C1091 1.399 . S
C1092 C1093 1.376 . S
C1093 H1080 0.930 . S
C1093 C1092 1.376 . S
C1093 C1094 1.388 . S
C1094 H1081 0.930 . S
C1094 C1093 1.388 . S
C1094 C1095 1.390 . S
C1095 C1094 1.390 . S
C1095 C1096 1.394 . S
C1095 C1101 1.465 1_545 S
C1096 C1091 1.399 . S
C1096 C1095 1.394 . S
C1096 C1097 1.516 1_545 S
C1097 C1096 1.516 1_565 S
C1097 C1098 1.502 . S
C1097 C1099 1.561 . S
C1097 C1100 1.526 . S
C1098 H1082 0.959 . S
C1098 H1083 0.959 . S
C1098 H1084 0.961 . S
C1098 C1097 1.502 . S
C1099 H1085 0.960 1_565 S
C1099 H1086 0.961 . S
C1099 H1087 0.961 . S
C1099 C1097 1.561 . S
C1100 C1097 1.526 . S
C1100 C1101 1.396 . S
C1100 C1105 1.390 . S
C1101 C1095 1.465 1_565 S
C1101 C1100 1.396 . S
C1101 C1102 1.399 . S
C1102 H1088 0.929 . S
C1102 C1101 1.399 . S
C1102 C1103 1.385 . S
C1103 H1089 0.931 . S
C1103 C1102 1.385 . S
C1103 C1104 1.389 . S
C1104 C1103 1.389 . S
C1104 C1105 1.387 . S
C1105 H1090 0.930 . S
C1105 C1100 1.390 . S
C1105 C1104 1.387 . S
H1106 C1118 0.930 . S
H1107 C1120 0.930 . S
H1108 C1121 0.930 . S
H1109 C1125 0.959 . S
H1110 C1125 0.959 . S
H1111 C1125 0.961 . S
H1112 C1126 0.960 . S
H1113 C1126 0.961 1_455 S
H1114 C1126 0.959 1_455 S
H1115 C1129 0.929 . S
H1116 C1130 0.931 . S
H1117 C1132 0.930 . S
C1118 H1106 0.930 . S
C1118 C1119 1.399 . S
C1118 C1123 1.399 . S
C1119 C1118 1.399 . S
C1119 C1120 1.376 . S
C1120 H1107 0.930 . S
C1120 C1119 1.376 . S
C1120 C1121 1.388 . S
C1121 H1108 0.930 . S
C1121 C1120 1.388 . S
C1121 C1122 1.390 . S
C1122 C1121 1.390 . S
C1122 C1123 1.394 . S
C1122 C1128 1.465 1_655 S
C1123 C1118 1.399 . S
C1123 C1122 1.394 . S
C1123 C1124 1.516 . S
C1124 C1123 1.516 . S
C1124 C1125 1.502 . S
C1124 C1126 1.561 . S
C1124 C1127 1.526 1_655 S
C1125 H1109 0.959 . S
C1125 H1110 0.959 . S
C1125 H1111 0.961 . S
C1125 C1124 1.502 . S
C1126 H1112 0.960 . S
C1126 H1113 0.961 1_655 S
C1126 H1114 0.959 1_655 S
C1126 C1124 1.561 . S
C1127 C1124 1.526 1_455 S
C1127 C1128 1.396 . S
C1127 C1132 1.390 . S
C1128 C1122 1.465 1_455 S
C1128 C1127 1.396 . S
C1128 C1129 1.399 . S
C1129 H1115 0.929 . S
C1129 C1128 1.399 . S
C1129 C1130 1.385 . S
C1130 H1116 0.931 . S
C1130 C1129 1.385 . S
C1130 C1131 1.389 . S
C1131 C1130 1.389 . S
C1131 C1132 1.387 . S
C1132 H1117 0.930 . S
C1132 C1127 1.390 . S
C1132 C1131 1.387 . S
H1133 C1145 0.930 . S
H1134 C1147 0.930 . S
H1135 C1148 0.930 . S
H1136 C1152 0.959 . S
H1137 C1152 0.959 . S
H1138 C1152 0.961 . S
H1139 C1153 0.960 . S
H1140 C1153 0.961 1_565 S
H1141 C1153 0.959 . S
H1142 C1156 0.929 . S
H1143 C1157 0.931 . S
H1144 C1159 0.930 . S
C1145 H1133 0.930 . S
C1145 C1146 1.399 . S
C1145 C1150 1.399 . S
C1146 C1145 1.399 . S
C1146 C1147 1.376 . S
C1147 H1134 0.930 . S
C1147 C1146 1.376 . S
C1147 C1148 1.388 . S
C1148 H1135 0.930 . S
C1148 C1147 1.388 . S
C1148 C1149 1.390 . S
C1149 C1148 1.390 . S
C1149 C1150 1.394 . S
C1149 C1155 1.465 1_545 S
C1150 C1145 1.399 . S
C1150 C1149 1.394 . S
C1150 C1151 1.516 . S
C1151 C1150 1.516 . S
C1151 C1152 1.502 . S
C1151 C1153 1.561 . S
C1151 C1154 1.526 1_545 S
C1152 H1136 0.959 . S
C1152 H1137 0.959 . S
C1152 H1138 0.961 . S
C1152 C1151 1.502 . S
C1153 H1139 0.960 . S
C1153 H1140 0.961 1_545 S
C1153 H1141 0.959 . S
C1153 C1151 1.561 . S
C1154 C1151 1.526 1_565 S
C1154 C1155 1.396 . S
C1154 C1159 1.390 . S
C1155 C1149 1.465 1_565 S
C1155 C1154 1.396 . S
C1155 C1156 1.399 . S
C1156 H1142 0.929 . S
C1156 C1155 1.399 . S
C1156 C1157 1.385 . S
C1157 H1143 0.931 . S
C1157 C1156 1.385 . S
C1157 C1158 1.389 . S
C1158 C1157 1.389 . S
C1158 C1159 1.387 . S
C1159 H1144 0.930 . S
C1159 C1154 1.390 . S
C1159 C1158 1.387 . S
H1160 C1172 0.930 . S
H1161 C1174 0.930 . S
H1162 C1175 0.930 . S
H1163 C1179 0.959 . S
H1164 C1179 0.959 . S
H1165 C1179 0.961 . S
H1166 C1180 0.960 . S
H1167 C1180 0.961 . S
H1168 C1180 0.959 . S
H1169 C1183 0.929 . S
H1170 C1184 0.931 . S
H1171 C1186 0.930 . S
C1172 H1160 0.930 . S
C1172 C1173 1.399 . S
C1172 C1177 1.399 . S
C1173 C1172 1.399 . S
C1173 C1174 1.376 . S
C1174 H1161 0.930 . S
C1174 C1173 1.376 . S
C1174 C1175 1.388 . S
C1175 H1162 0.930 . S
C1175 C1174 1.388 . S
C1175 C1176 1.390 . S
C1176 C1175 1.390 . S
C1176 C1177 1.394 . S
C1176 C1182 1.465 . S
C1177 C1172 1.399 . S
C1177 C1176 1.394 . S
C1177 C1178 1.516 . S
C1178 C1177 1.516 . S
C1178 C1179 1.502 . S
C1178 C1180 1.561 . S
C1178 C1181 1.526 . S
C1179 H1163 0.959 . S
C1179 H1164 0.959 . S
C1179 H1165 0.961 . S
C1179 C1178 1.502 . S
C1180 H1166 0.960 . S
C1180 H1167 0.961 . S
C1180 H1168 0.959 . S
C1180 C1178 1.561 . S
C1181 C1178 1.526 . S
C1181 C1182 1.396 . S
C1181 C1186 1.390 . S
C1182 C1176 1.465 . S
C1182 C1181 1.396 . S
C1182 C1183 1.399 . S
C1183 H1169 0.929 . S
C1183 C1182 1.399 . S
C1183 C1184 1.385 . S
C1184 H1170 0.931 . S
C1184 C1183 1.385 . S
C1184 C1185 1.389 . S
C1185 C1184 1.389 . S
C1185 C1186 1.387 . S
C1186 H1171 0.930 . S
C1186 C1181 1.390 . S
C1186 C1185 1.387 . S
H1187 C1199 0.930 . S
H1188 C1201 0.930 . S
H1189 C1202 0.930 . S
H1190 C1206 0.959 . S
H1191 C1206 0.959 . S
H1192 C1206 0.961 . S
H1193 C1207 0.960 . S
H1194 C1207 0.961 . S
H1195 C1207 0.959 . S
H1196 C1210 0.929 . S
H1197 C1211 0.931 . S
H1198 C1213 0.930 . S
C1199 H1187 0.930 . S
C1199 C1200 1.399 . S
C1199 C1204 1.399 . S
C1200 C1199 1.399 . S
C1200 C1201 1.376 . S
C1201 H1188 0.930 . S
C1201 C1200 1.376 . S
C1201 C1202 1.388 . S
C1202 H1189 0.930 . S
C1202 C1201 1.388 . S
C1202 C1203 1.390 . S
C1203 C1202 1.390 . S
C1203 C1204 1.394 . S
C1203 C1209 1.465 . S
C1204 C1199 1.399 . S
C1204 C1203 1.394 . S
C1204 C1205 1.516 . S
C1205 C1204 1.516 . S
C1205 C1206 1.502 . S
C1205 C1207 1.561 . S
C1205 C1208 1.526 . S
C1206 H1190 0.959 . S
C1206 H1191 0.959 . S
C1206 H1192 0.961 . S
C1206 C1205 1.502 . S
C1207 H1193 0.960 . S
C1207 H1194 0.961 . S
C1207 H1195 0.959 . S
C1207 C1205 1.561 . S
C1208 C1205 1.526 . S
C1208 C1209 1.396 . S
C1208 C1213 1.390 . S
C1209 C1203 1.465 . S
C1209 C1208 1.396 . S
C1209 C1210 1.399 . S
C1210 H1196 0.929 . S
C1210 C1209 1.399 . S
C1210 C1211 1.385 . S
C1211 H1197 0.931 . S
C1211 C1210 1.385 . S
C1211 C1212 1.389 . S
C1212 C1211 1.389 . S
C1212 C1213 1.387 . S
C1213 H1198 0.930 . S
C1213 C1208 1.390 . S
C1213 C1212 1.387 . S
H1214 C1226 0.930 . S
H1215 C1228 0.930 . S
H1216 C1229 0.930 . S
H1217 C1233 0.959 . S
H1218 C1233 0.959 . S
H1219 C1233 0.961 . S
H1220 C1234 0.960 . S
H1221 C1234 0.961 . S
H1222 C1234 0.959 . S
H1223 C1237 0.929 . S
H1224 C1238 0.931 . S
H1225 C1240 0.930 . S
C1226 H1214 0.930 . S
C1226 C1227 1.399 . S
C1226 C1231 1.399 . S
C1227 C1226 1.399 . S
C1227 C1228 1.376 . S
C1228 H1215 0.930 . S
C1228 C1227 1.376 . S
C1228 C1229 1.388 . S
C1229 H1216 0.930 . S
C1229 C1228 1.388 . S
C1229 C1230 1.390 . S
C1230 C1229 1.390 . S
C1230 C1231 1.394 . S
C1230 C1236 1.465 . S
C1231 C1226 1.399 . S
C1231 C1230 1.394 . S
C1231 C1232 1.516 . S
C1232 C1231 1.516 . S
C1232 C1233 1.502 . S
C1232 C1234 1.561 . S
C1232 C1235 1.526 . S
C1233 H1217 0.959 . S
C1233 H1218 0.959 . S
C1233 H1219 0.961 . S
C1233 C1232 1.502 . S
C1234 H1220 0.960 . S
C1234 H1221 0.961 . S
C1234 H1222 0.959 . S
C1234 C1232 1.561 . S
C1235 C1232 1.526 . S
C1235 C1236 1.396 . S
C1235 C1240 1.390 . S
C1236 C1230 1.465 . S
C1236 C1235 1.396 . S
C1236 C1237 1.399 . S
C1237 H1223 0.929 . S
C1237 C1236 1.399 . S
C1237 C1238 1.385 . S
C1238 H1224 0.931 . S
C1238 C1237 1.385 . S
C1238 C1239 1.389 . S
C1239 C1238 1.389 . S
C1239 C1240 1.387 . S
C1240 H1225 0.930 . S
C1240 C1235 1.390 . S
C1240 C1239 1.387 . S
H1241 C1253 0.930 . S
H1242 C1255 0.930 . S
H1243 C1256 0.930 . S
H1244 C1260 0.959 . S
H1245 C1260 0.959 . S
H1246 C1260 0.961 . S
H1247 C1261 0.960 . S
H1248 C1261 0.961 . S
H1249 C1261 0.959 . S
H1250 C1264 0.929 . S
H1251 C1265 0.931 . S
H1252 C1267 0.930 . S
C1253 H1241 0.930 . S
C1253 C1254 1.399 . S
C1253 C1258 1.399 . S
C1254 C1253 1.399 . S
C1254 C1255 1.376 . S
C1255 H1242 0.930 . S
C1255 C1254 1.376 . S
C1255 C1256 1.388 . S
C1256 H1243 0.930 . S
C1256 C1255 1.388 . S
C1256 C1257 1.390 . S
C1257 C1256 1.390 . S
C1257 C1258 1.394 . S
C1257 C1263 1.465 . S
C1258 C1253 1.399 . S
C1258 C1257 1.394 . S
C1258 C1259 1.516 . S
C1259 C1258 1.516 . S
C1259 C1260 1.502 . S
C1259 C1261 1.561 . S
C1259 C1262 1.526 . S
C1260 H1244 0.959 . S
C1260 H1245 0.959 . S
C1260 H1246 0.961 . S
C1260 C1259 1.502 . S
C1261 H1247 0.960 . S
C1261 H1248 0.961 . S
C1261 H1249 0.959 . S
C1261 C1259 1.561 . S
C1262 C1259 1.526 . S
C1262 C1263 1.396 . S
C1262 C1267 1.390 . S
C1263 C1257 1.465 . S
C1263 C1262 1.396 . S
C1263 C1264 1.399 . S
C1264 H1250 0.929 . S
C1264 C1263 1.399 . S
C1264 C1265 1.385 . S
C1265 H1251 0.931 . S
C1265 C1264 1.385 . S
C1265 C1266 1.389 . S
C1266 C1265 1.389 . S
C1266 C1267 1.387 . S
C1267 H1252 0.930 . S
C1267 C1262 1.390 . S
C1267 C1266 1.387 . S
H1268 C1280 0.930 . S
H1269 C1282 0.930 . S
H1270 C1283 0.930 . S
H1271 C1287 0.959 . S
H1272 C1287 0.959 . S
H1273 C1287 0.961 . S
H1274 C1288 0.960 . S
H1275 C1288 0.961 . S
H1276 C1288 0.959 . S
H1277 C1291 0.929 . S
H1278 C1292 0.931 . S
H1279 C1294 0.930 . S
C1280 H1268 0.930 . S
C1280 C1281 1.399 . S
C1280 C1285 1.399 . S
C1281 C1280 1.399 . S
C1281 C1282 1.376 . S
C1282 H1269 0.930 . S
C1282 C1281 1.376 . S
C1282 C1283 1.388 . S
C1283 H1270 0.930 . S
C1283 C1282 1.388 . S
C1283 C1284 1.390 . S
C1284 C1283 1.390 . S
C1284 C1285 1.394 . S
C1284 C1290 1.465 . S
C1285 C1280 1.399 . S
C1285 C1284 1.394 . S
C1285 C1286 1.516 . S
C1286 C1285 1.516 . S
C1286 C1287 1.502 . S
C1286 C1288 1.561 . S
C1286 C1289 1.526 . S
C1287 H1271 0.959 . S
C1287 H1272 0.959 . S
C1287 H1273 0.961 . S
C1287 C1286 1.502 . S
C1288 H1274 0.960 . S
C1288 H1275 0.961 . S
C1288 H1276 0.959 . S
C1288 C1286 1.561 . S
C1289 C1286 1.526 . S
C1289 C1290 1.396 . S
C1289 C1294 1.390 . S
C1290 C1284 1.465 . S
C1290 C1289 1.396 . S
C1290 C1291 1.399 . S
C1291 H1277 0.929 . S
C1291 C1290 1.399 . S
C1291 C1292 1.385 . S
C1292 H1278 0.931 . S
C1292 C1291 1.385 . S
C1292 C1293 1.389 . S
C1293 C1292 1.389 . S
C1293 C1294 1.387 . S
C1294 H1279 0.930 . S
C1294 C1289 1.390 . S
C1294 C1293 1.387 . S
H1295 C1307 0.930 . S
H1296 C1309 0.930 . S
H1297 C1310 0.930 . S
H1298 C1314 0.959 . S
H1299 C1314 0.959 . S
H1300 C1314 0.961 . S
H1301 C1315 0.960 . S
H1302 C1315 0.961 . S
H1303 C1315 0.959 . S
H1304 C1318 0.929 . S
H1305 C1319 0.931 . S
H1306 C1321 0.930 . S
C1307 H1295 0.930 . S
C1307 C1308 1.399 . S
C1307 C1312 1.399 . S
C1308 C1307 1.399 . S
C1308 C1309 1.376 . S
C1309 H1296 0.930 . S
C1309 C1308 1.376 . S
C1309 C1310 1.388 . S
C1310 H1297 0.930 . S
C1310 C1309 1.388 . S
C1310 C1311 1.390 . S
C1311 C1310 1.390 . S
C1311 C1312 1.394 . S
C1311 C1317 1.465 . S
C1312 C1307 1.399 . S
C1312 C1311 1.394 . S
C1312 C1313 1.516 . S
C1313 C1312 1.516 . S
C1313 C1314 1.502 . S
C1313 C1315 1.561 . S
C1313 C1316 1.526 . S
C1314 H1298 0.959 . S
C1314 H1299 0.959 . S
C1314 H1300 0.961 . S
C1314 C1313 1.502 . S
C1315 H1301 0.960 . S
C1315 H1302 0.961 . S
C1315 H1303 0.959 . S
C1315 C1313 1.561 . S
C1316 C1313 1.526 . S
C1316 C1317 1.396 . S
C1316 C1321 1.390 . S
C1317 C1311 1.465 . S
C1317 C1316 1.396 . S
C1317 C1318 1.399 . S
C1318 H1304 0.929 . S
C1318 C1317 1.399 . S
C1318 C1319 1.385 . S
C1319 H1305 0.931 . S
C1319 C1318 1.385 . S
C1319 C1320 1.389 . S
C1320 C1319 1.389 . S
C1320 C1321 1.387 . S
C1321 H1306 0.930 . S
C1321 C1316 1.390 . S
C1321 C1320 1.387 . S
H1322 C1334 0.930 . S
H1323 C1336 0.930 . S
H1324 C1337 0.930 . S
H1325 C1341 0.959 . S
H1326 C1341 0.959 . S
H1327 C1341 0.961 . S
H1328 C1342 0.960 . S
H1329 C1342 0.961 . S
H1330 C1342 0.959 . S
H1331 C1345 0.929 . S
H1332 C1346 0.931 . S
H1333 C1348 0.930 . S
C1334 H1322 0.930 . S
C1334 C1335 1.399 . S
C1334 C1339 1.399 . S
C1335 C1334 1.399 . S
C1335 C1336 1.376 . S
C1336 H1323 0.930 . S
C1336 C1335 1.376 . S
C1336 C1337 1.388 . S
C1337 H1324 0.930 . S
C1337 C1336 1.388 . S
C1337 C1338 1.390 . S
C1338 C1337 1.390 . S
C1338 C1339 1.394 . S
C1338 C1344 1.465 . S
C1339 C1334 1.399 . S
C1339 C1338 1.394 . S
C1339 C1340 1.516 . S
C1340 C1339 1.516 . S
C1340 C1341 1.502 . S
C1340 C1342 1.561 . S
C1340 C1343 1.526 . S
C1341 H1325 0.959 . S
C1341 H1326 0.959 . S
C1341 H1327 0.961 . S
C1341 C1340 1.502 . S
C1342 H1328 0.960 . S
C1342 H1329 0.961 . S
C1342 H1330 0.959 . S
C1342 C1340 1.561 . S
C1343 C1340 1.526 . S
C1343 C1344 1.396 . S
C1343 C1348 1.390 . S
C1344 C1338 1.465 . S
C1344 C1343 1.396 . S
C1344 C1345 1.399 . S
C1345 H1331 0.929 . S
C1345 C1344 1.399 . S
C1345 C1346 1.385 . S
C1346 H1332 0.931 . S
C1346 C1345 1.385 . S
C1346 C1347 1.389 . S
C1347 C1346 1.389 . S
C1347 C1348 1.387 . S
C1348 H1333 0.930 . S
C1348 C1343 1.390 . S
C1348 C1347 1.387 . S
H1349 C1361 0.930 . S
H1350 C1363 0.930 . S
H1351 C1364 0.930 . S
H1352 C1368 0.959 . S
H1353 C1368 0.959 . S
H1354 C1368 0.961 . S
H1355 C1369 0.960 . S
H1356 C1369 0.961 . S
H1357 C1369 0.959 . S
H1358 C1372 0.929 . S
H1359 C1373 0.931 . S
H1360 C1375 0.930 . S
C1361 H1349 0.930 . S
C1361 C1362 1.399 . S
C1361 C1366 1.399 . S
C1362 C1361 1.399 . S
C1362 C1363 1.376 . S
C1363 H1350 0.930 . S
C1363 C1362 1.376 . S
C1363 C1364 1.388 . S
C1364 H1351 0.930 . S
C1364 C1363 1.388 . S
C1364 C1365 1.390 . S
C1365 C1364 1.390 . S
C1365 C1366 1.394 . S
C1365 C1371 1.465 . S
C1366 C1361 1.399 . S
C1366 C1365 1.394 . S
C1366 C1367 1.516 . S
C1367 C1366 1.516 . S
C1367 C1368 1.502 . S
C1367 C1369 1.561 . S
C1367 C1370 1.526 . S
C1368 H1352 0.959 . S
C1368 H1353 0.959 . S
C1368 H1354 0.961 . S
C1368 C1367 1.502 . S
C1369 H1355 0.960 . S
C1369 H1356 0.961 . S
C1369 H1357 0.959 . S
C1369 C1367 1.561 . S
C1370 C1367 1.526 . S
C1370 C1371 1.396 . S
C1370 C1375 1.390 . S
C1371 C1365 1.465 . S
C1371 C1370 1.396 . S
C1371 C1372 1.399 . S
C1372 H1358 0.929 . S
C1372 C1371 1.399 . S
C1372 C1373 1.385 . S
C1373 H1359 0.931 . S
C1373 C1372 1.385 . S
C1373 C1374 1.389 . S
C1374 C1373 1.389 . S
C1374 C1375 1.387 . S
C1375 H1360 0.930 . S
C1375 C1370 1.390 . S
C1375 C1374 1.387 . S
H1376 C1388 0.930 . S
H1377 C1390 0.930 . S
H1378 C1391 0.930 . S
H1379 C1395 0.962 . S
H1380 C1395 0.978 . S
H1381 C1395 0.940 1_556 S
H1382 C1396 0.958 1_556 S
H1383 C1396 0.963 . S
H1384 C1396 0.959 . S
H1385 C1399 0.929 . S
H1386 C1400 0.931 . S
H1387 C1402 0.930 . S
C1388 H1376 0.930 . S
C1388 C1389 1.399 . S
C1388 C1393 1.399 . S
C1389 C1388 1.399 . S
C1389 C1390 1.376 . S
C1390 H1377 0.930 . S
C1390 C1389 1.376 . S
C1390 C1391 1.388 . S
C1391 H1378 0.930 . S
C1391 C1390 1.388 . S
C1391 C1392 1.390 . S
C1392 C1391 1.390 . S
C1392 C1393 1.394 . S
C1392 C1398 1.465 1_556 S
C1393 C1388 1.399 . S
C1393 C1392 1.394 . S
C1393 C1394 1.517 1_556 S
C1394 C1393 1.517 1_554 S
C1394 C1395 1.502 . S
C1394 C1396 1.561 . S
C1394 C1397 1.525 . S
C1395 H1379 0.962 . S
C1395 H1380 0.978 . S
C1395 H1381 0.940 1_554 S
C1395 C1394 1.502 . S
C1396 H1382 0.958 1_554 S
C1396 H1383 0.963 . S
C1396 H1384 0.959 . S
C1396 C1394 1.561 . S
C1397 C1394 1.525 . S
C1397 C1398 1.396 . S
C1397 C1402 1.390 . S
C1398 C1392 1.465 1_554 S
C1398 C1397 1.396 . S
C1398 C1399 1.399 . S
C1399 H1385 0.929 . S
C1399 C1398 1.399 . S
C1399 C1400 1.385 . S
C1400 H1386 0.931 . S
C1400 C1399 1.385 . S
C1400 C1401 1.389 . S
C1401 C1400 1.389 . S
C1401 C1402 1.387 . S
C1402 H1387 0.930 . S
C1402 C1397 1.390 . S
C1402 C1401 1.387 . S
H1403 C1415 0.930 . S
H1404 C1417 0.930 . S
H1405 C1418 0.930 . S
H1406 C1422 0.959 . S
H1407 C1422 0.959 . S
H1408 C1422 0.961 . S
H1409 C1423 0.960 . S
H1410 C1423 0.961 . S
H1411 C1423 0.959 . S
H1412 C1426 0.929 . S
H1413 C1427 0.931 . S
H1414 C1429 0.930 . S
C1415 H1403 0.930 . S
C1415 C1416 1.399 . S
C1415 C1420 1.399 . S
C1416 C1415 1.399 . S
C1416 C1417 1.376 . S
C1417 H1404 0.930 . S
C1417 C1416 1.376 . S
C1417 C1418 1.388 . S
C1418 H1405 0.930 . S
C1418 C1417 1.388 . S
C1418 C1419 1.390 . S
C1419 C1418 1.390 . S
C1419 C1420 1.394 . S
C1419 C1425 1.465 . S
C1420 C1415 1.399 . S
C1420 C1419 1.394 . S
C1420 C1421 1.516 . S
C1421 C1420 1.516 . S
C1421 C1422 1.502 . S
C1421 C1423 1.561 . S
C1421 C1424 1.526 . S
C1422 H1406 0.959 . S
C1422 H1407 0.959 . S
C1422 H1408 0.961 . S
C1422 C1421 1.502 . S
C1423 H1409 0.960 . S
C1423 H1410 0.961 . S
C1423 H1411 0.959 . S
C1423 C1421 1.561 . S
C1424 C1421 1.526 . S
C1424 C1425 1.396 . S
C1424 C1429 1.390 . S
C1425 C1419 1.465 . S
C1425 C1424 1.396 . S
C1425 C1426 1.399 . S
C1426 H1412 0.929 . S
C1426 C1425 1.399 . S
C1426 C1427 1.385 . S
C1427 H1413 0.931 . S
C1427 C1426 1.385 . S
C1427 C1428 1.389 . S
C1428 C1427 1.389 . S
C1428 C1429 1.387 . S
C1429 H1414 0.930 . S
C1429 C1424 1.390 . S
C1429 C1428 1.387 . S
H1430 C1442 0.930 . S
H1431 C1444 0.930 . S
H1432 C1445 0.930 . S
H1433 C1449 0.962 . S
H1434 C1449 0.979 . S
H1435 C1449 0.940 1_554 S
H1436 C1450 0.958 1_554 S
H1437 C1450 0.963 . S
H1438 C1450 0.959 . S
H1439 C1453 0.929 . S
H1440 C1454 0.931 . S
H1441 C1456 0.930 . S
C1442 H1430 0.930 . S
C1442 C1443 1.399 . S
C1442 C1447 1.399 . S
C1443 C1442 1.399 . S
C1443 C1444 1.376 . S
C1444 H1431 0.930 . S
C1444 C1443 1.376 . S
C1444 C1445 1.388 . S
C1445 H1432 0.930 . S
C1445 C1444 1.388 . S
C1445 C1446 1.390 . S
C1446 C1445 1.390 . S
C1446 C1447 1.394 . S
C1446 C1452 1.465 1_554 S
C1447 C1442 1.399 . S
C1447 C1446 1.394 . S
C1447 C1448 1.517 1_554 S
C1448 C1447 1.517 1_556 S
C1448 C1449 1.502 . S
C1448 C1450 1.561 . S
C1448 C1451 1.525 . S
C1449 H1433 0.962 . S
C1449 H1434 0.979 . S
C1449 H1435 0.940 1_556 S
C1449 C1448 1.502 . S
C1450 H1436 0.958 1_556 S
C1450 H1437 0.963 . S
C1450 H1438 0.959 . S
C1450 C1448 1.561 . S
C1451 C1448 1.525 . S
C1451 C1452 1.396 . S
C1451 C1456 1.390 . S
C1452 C1446 1.465 1_556 S
C1452 C1451 1.396 . S
C1452 C1453 1.399 . S
C1453 H1439 0.929 . S
C1453 C1452 1.399 . S
C1453 C1454 1.385 . S
C1454 H1440 0.931 . S
C1454 C1453 1.385 . S
C1454 C1455 1.389 . S
C1455 C1454 1.389 . S
C1455 C1456 1.387 . S
C1456 H1441 0.930 . S
C1456 C1451 1.390 . S
C1456 C1455 1.387 . S
H1457 C1469 0.930 . S
H1458 C1471 0.930 . S
H1459 C1472 0.930 . S
H1460 C1476 0.959 . S
H1461 C1476 0.959 . S
H1462 C1476 0.961 . S
H1463 C1477 0.960 . S
H1464 C1477 0.961 . S
H1465 C1477 0.959 . S
H1466 C1480 0.929 . S
H1467 C1481 0.931 . S
H1468 C1483 0.930 . S
C1469 H1457 0.930 . S
C1469 C1470 1.399 . S
C1469 C1474 1.399 . S
C1470 C1469 1.399 . S
C1470 C1471 1.376 . S
C1471 H1458 0.930 . S
C1471 C1470 1.376 . S
C1471 C1472 1.388 . S
C1472 H1459 0.930 . S
C1472 C1471 1.388 . S
C1472 C1473 1.390 . S
C1473 C1472 1.390 . S
C1473 C1474 1.394 . S
C1473 C1479 1.465 . S
C1474 C1469 1.399 . S
C1474 C1473 1.394 . S
C1474 C1475 1.516 . S
C1475 C1474 1.516 . S
C1475 C1476 1.502 . S
C1475 C1477 1.561 . S
C1475 C1478 1.526 . S
C1476 H1460 0.959 . S
C1476 H1461 0.959 . S
C1476 H1462 0.961 . S
C1476 C1475 1.502 . S
C1477 H1463 0.960 . S
C1477 H1464 0.961 . S
C1477 H1465 0.959 . S
C1477 C1475 1.561 . S
C1478 C1475 1.526 . S
C1478 C1479 1.396 . S
C1478 C1483 1.390 . S
C1479 C1473 1.465 . S
C1479 C1478 1.396 . S
C1479 C1480 1.399 . S
C1480 H1466 0.929 . S
C1480 C1479 1.399 . S
C1480 C1481 1.385 . S
C1481 H1467 0.931 . S
C1481 C1480 1.385 . S
C1481 C1482 1.389 . S
C1482 C1481 1.389 . S
C1482 C1483 1.387 . S
C1483 H1468 0.930 . S
C1483 C1478 1.390 . S
C1483 C1482 1.387 . S
H1484 C1496 0.930 . S
H1485 C1498 0.930 . S
H1486 C1499 0.930 . S
H1487 C1503 0.959 . S
H1488 C1503 0.959 . S
H1489 C1503 0.961 . S
H1490 C1504 0.960 . S
H1491 C1504 0.961 . S
H1492 C1504 0.959 . S
H1493 C1507 0.929 . S
H1494 C1508 0.931 . S
H1495 C1510 0.930 . S
C1496 H1484 0.930 . S
C1496 C1497 1.399 . S
C1496 C1501 1.399 . S
C1497 C1496 1.399 . S
C1497 C1498 1.376 . S
C1498 H1485 0.930 . S
C1498 C1497 1.376 . S
C1498 C1499 1.388 . S
C1499 H1486 0.930 . S
C1499 C1498 1.388 . S
C1499 C1500 1.390 . S
C1500 C1499 1.390 . S
C1500 C1501 1.394 . S
C1500 C1506 1.465 . S
C1501 C1496 1.399 . S
C1501 C1500 1.394 . S
C1501 C1502 1.516 . S
C1502 C1501 1.516 . S
C1502 C1503 1.502 . S
C1502 C1504 1.561 . S
C1502 C1505 1.526 . S
C1503 H1487 0.959 . S
C1503 H1488 0.959 . S
C1503 H1489 0.961 . S
C1503 C1502 1.502 . S
C1504 H1490 0.960 . S
C1504 H1491 0.961 . S
C1504 H1492 0.959 . S
C1504 C1502 1.561 . S
C1505 C1502 1.526 . S
C1505 C1506 1.396 . S
C1505 C1510 1.390 . S
C1506 C1500 1.465 . S
C1506 C1505 1.396 . S
C1506 C1507 1.399 . S
C1507 H1493 0.929 . S
C1507 C1506 1.399 . S
C1507 C1508 1.385 . S
C1508 H1494 0.931 . S
C1508 C1507 1.385 . S
C1508 C1509 1.389 . S
C1509 C1508 1.389 . S
C1509 C1510 1.387 . S
C1510 H1495 0.930 . S
C1510 C1505 1.390 . S
C1510 C1509 1.387 . S
H1511 C1523 0.930 . S
H1512 C1525 0.930 . S
H1513 C1526 0.930 . S
H1514 C1530 0.962 . S
H1515 C1530 0.979 . S
H1516 C1530 0.940 1_556 S
H1517 C1531 0.958 1_556 S
H1518 C1531 0.963 . S
H1519 C1531 0.959 . S
H1520 C1534 0.929 . S
H1521 C1535 0.931 . S
H1522 C1537 0.930 . S
C1523 H1511 0.930 . S
C1523 C1524 1.399 . S
C1523 C1528 1.399 . S
C1524 C1523 1.399 . S
C1524 C1525 1.376 . S
C1525 H1512 0.930 . S
C1525 C1524 1.376 . S
C1525 C1526 1.388 . S
C1526 H1513 0.930 . S
C1526 C1525 1.388 . S
C1526 C1527 1.390 . S
C1527 C1526 1.390 . S
C1527 C1528 1.394 . S
C1527 C1533 1.465 1_556 S
C1528 C1523 1.399 . S
C1528 C1527 1.394 . S
C1528 C1529 1.517 1_556 S
C1529 C1528 1.517 1_554 S
C1529 C1530 1.502 . S
C1529 C1531 1.561 . S
C1529 C1532 1.525 . S
C1530 H1514 0.962 . S
C1530 H1515 0.979 . S
C1530 H1516 0.940 1_554 S
C1530 C1529 1.502 . S
C1531 H1517 0.958 1_554 S
C1531 H1518 0.963 . S
C1531 H1519 0.959 . S
C1531 C1529 1.561 . S
C1532 C1529 1.525 . S
C1532 C1533 1.396 . S
C1532 C1537 1.390 . S
C1533 C1527 1.465 1_554 S
C1533 C1532 1.396 . S
C1533 C1534 1.399 . S
C1534 H1520 0.929 . S
C1534 C1533 1.399 . S
C1534 C1535 1.385 . S
C1535 H1521 0.931 . S
C1535 C1534 1.385 . S
C1535 C1536 1.389 . S
C1536 C1535 1.389 . S
C1536 C1537 1.387 . S
C1537 H1522 0.930 . S
C1537 C1532 1.390 . S
C1537 C1536 1.387 . S
H1538 C1550 0.930 . S
H1539 C1552 0.930 . S
H1540 C1553 0.930 . S
H1541 C1557 0.959 . S
H1542 C1557 0.959 . S
H1543 C1557 0.961 . S
H1544 C1558 0.960 . S
H1545 C1558 0.961 . S
H1546 C1558 0.959 . S
H1547 C1561 0.929 . S
H1548 C1562 0.931 . S
H1549 C1564 0.930 . S
C1550 H1538 0.930 . S
C1550 C1551 1.399 . S
C1550 C1555 1.399 . S
C1551 C1550 1.399 . S
C1551 C1552 1.376 . S
C1552 H1539 0.930 . S
C1552 C1551 1.376 . S
C1552 C1553 1.388 . S
C1553 H1540 0.930 . S
C1553 C1552 1.388 . S
C1553 C1554 1.390 . S
C1554 C1553 1.390 . S
C1554 C1555 1.394 . S
C1554 C1560 1.465 . S
C1555 C1550 1.399 . S
C1555 C1554 1.394 . S
C1555 C1556 1.516 . S
C1556 C1555 1.516 . S
C1556 C1557 1.502 . S
C1556 C1558 1.561 . S
C1556 C1559 1.526 . S
C1557 H1541 0.959 . S
C1557 H1542 0.959 . S
C1557 H1543 0.961 . S
C1557 C1556 1.502 . S
C1558 H1544 0.960 . S
C1558 H1545 0.961 . S
C1558 H1546 0.959 . S
C1558 C1556 1.561 . S
C1559 C1556 1.526 . S
C1559 C1560 1.396 . S
C1559 C1564 1.390 . S
C1560 C1554 1.465 . S
C1560 C1559 1.396 . S
C1560 C1561 1.399 . S
C1561 H1547 0.929 . S
C1561 C1560 1.399 . S
C1561 C1562 1.385 . S
C1562 H1548 0.931 . S
C1562 C1561 1.385 . S
C1562 C1563 1.389 . S
C1563 C1562 1.389 . S
C1563 C1564 1.387 . S
C1564 H1549 0.930 . S
C1564 C1559 1.390 . S
C1564 C1563 1.387 . S
H1565 C1577 0.930 . S
H1566 C1579 0.930 . S
H1567 C1580 0.930 . S
H1568 C1584 0.962 . S
H1569 C1584 0.979 . S
H1570 C1584 0.940 1_554 S
H1571 C1585 0.958 1_554 S
H1572 C1585 0.963 . S
H1573 C1585 0.959 . S
H1574 C1588 0.929 . S
H1575 C1589 0.931 . S
H1576 C1591 0.930 . S
C1577 H1565 0.930 . S
C1577 C1578 1.399 . S
C1577 C1582 1.399 . S
C1578 C1577 1.399 . S
C1578 C1579 1.376 . S
C1579 H1566 0.930 . S
C1579 C1578 1.376 . S
C1579 C1580 1.388 . S
C1580 H1567 0.930 . S
C1580 C1579 1.388 . S
C1580 C1581 1.390 . S
C1581 C1580 1.390 . S
C1581 C1582 1.394 . S
C1581 C1587 1.465 1_554 S
C1582 C1577 1.399 . S
C1582 C1581 1.394 . S
C1582 C1583 1.517 1_554 S
C1583 C1582 1.517 1_556 S
C1583 C1584 1.502 . S
C1583 C1585 1.561 . S
C1583 C1586 1.525 . S
C1584 H1568 0.962 . S
C1584 H1569 0.979 . S
C1584 H1570 0.940 1_556 S
C1584 C1583 1.502 . S
C1585 H1571 0.958 1_556 S
C1585 H1572 0.963 . S
C1585 H1573 0.959 . S
C1585 C1583 1.561 . S
C1586 C1583 1.525 . S
C1586 C1587 1.396 . S
C1586 C1591 1.390 . S
C1587 C1581 1.465 1_556 S
C1587 C1586 1.396 . S
C1587 C1588 1.399 . S
C1588 H1574 0.929 . S
C1588 C1587 1.399 . S
C1588 C1589 1.385 . S
C1589 H1575 0.931 . S
C1589 C1588 1.385 . S
C1589 C1590 1.389 . S
C1590 C1589 1.389 . S
C1590 C1591 1.387 . S
C1591 H1576 0.930 . S
C1591 C1586 1.390 . S
C1591 C1590 1.387 . S
H1592 C1604 0.930 . S
H1593 C1606 0.930 . S
H1594 C1607 0.930 . S
H1595 C1611 0.959 . S
H1596 C1611 0.959 . S
H1597 C1611 0.961 . S
H1598 C1612 0.960 . S
H1599 C1612 0.961 . S
H1600 C1612 0.959 . S
H1601 C1615 0.929 . S
H1602 C1616 0.931 . S
H1603 C1618 0.930 . S
C1604 H1592 0.930 . S
C1604 C1605 1.399 . S
C1604 C1609 1.399 . S
C1605 C1604 1.399 . S
C1605 C1606 1.376 . S
C1606 H1593 0.930 . S
C1606 C1605 1.376 . S
C1606 C1607 1.388 . S
C1607 H1594 0.930 . S
C1607 C1606 1.388 . S
C1607 C1608 1.390 . S
C1608 C1607 1.390 . S
C1608 C1609 1.394 . S
C1608 C1614 1.465 . S
C1609 C1604 1.399 . S
C1609 C1608 1.394 . S
C1609 C1610 1.516 . S
C1610 C1609 1.516 . S
C1610 C1611 1.502 . S
C1610 C1612 1.561 . S
C1610 C1613 1.526 . S
C1611 H1595 0.959 . S
C1611 H1596 0.959 . S
C1611 H1597 0.961 . S
C1611 C1610 1.502 . S
C1612 H1598 0.960 . S
C1612 H1599 0.961 . S
C1612 H1600 0.959 . S
C1612 C1610 1.561 . S
C1613 C1610 1.526 . S
C1613 C1614 1.396 . S
C1613 C1618 1.390 . S
C1614 C1608 1.465 . S
C1614 C1613 1.396 . S
C1614 C1615 1.399 . S
C1615 H1601 0.929 . S
C1615 C1614 1.399 . S
C1615 C1616 1.385 . S
C1616 H1602 0.931 . S
C1616 C1615 1.385 . S
C1616 C1617 1.389 . S
C1617 C1616 1.389 . S
C1617 C1618 1.387 . S
C1618 H1603 0.930 . S
C1618 C1613 1.390 . S
C1618 C1617 1.387 . S
H1619 C1631 0.930 . S
H1620 C1633 0.930 . S
H1621 C1634 0.930 . S
H1622 C1638 0.959 . S
H1623 C1638 0.959 . S
H1624 C1638 0.961 . S
H1625 C1639 0.960 . S
H1626 C1639 0.961 . S
H1627 C1639 0.959 . S
H1628 C1642 0.929 . S
H1629 C1643 0.931 . S
H1630 C1645 0.930 . S
C1631 H1619 0.930 . S
C1631 C1632 1.399 . S
C1631 C1636 1.399 . S
C1632 C1631 1.399 . S
C1632 C1633 1.376 . S
C1633 H1620 0.930 . S
C1633 C1632 1.376 . S
C1633 C1634 1.388 . S
C1634 H1621 0.930 . S
C1634 C1633 1.388 . S
C1634 C1635 1.390 . S
C1635 C1634 1.390 . S
C1635 C1636 1.394 . S
C1635 C1641 1.465 . S
C1636 C1631 1.399 . S
C1636 C1635 1.394 . S
C1636 C1637 1.516 . S
C1637 C1636 1.516 . S
C1637 C1638 1.502 . S
C1637 C1639 1.561 . S
C1637 C1640 1.526 . S
C1638 H1622 0.959 . S
C1638 H1623 0.959 . S
C1638 H1624 0.961 . S
C1638 C1637 1.502 . S
C1639 H1625 0.960 . S
C1639 H1626 0.961 . S
C1639 H1627 0.959 . S
C1639 C1637 1.561 . S
C1640 C1637 1.526 . S
C1640 C1641 1.396 . S
C1640 C1645 1.390 . S
C1641 C1635 1.465 . S
C1641 C1640 1.396 . S
C1641 C1642 1.399 . S
C1642 H1628 0.929 . S
C1642 C1641 1.399 . S
C1642 C1643 1.385 . S
C1643 H1629 0.931 . S
C1643 C1642 1.385 . S
C1643 C1644 1.389 . S
C1644 C1643 1.389 . S
C1644 C1645 1.387 . S
C1645 H1630 0.930 . S
C1645 C1640 1.390 . S
C1645 C1644 1.387 . S
H1646 C1658 0.930 . S
H1647 C1660 0.930 . S
H1648 C1661 0.930 . S
H1649 C1665 0.959 . S
H1650 C1665 0.959 . S
H1651 C1665 0.961 . S
H1652 C1666 0.960 . S
H1653 C1666 0.961 . S
H1654 C1666 0.959 . S
H1655 C1669 0.929 . S
H1656 C1670 0.931 . S
H1657 C1672 0.930 . S
C1658 H1646 0.930 . S
C1658 C1659 1.399 . S
C1658 C1663 1.399 . S
C1659 C1658 1.399 . S
C1659 C1660 1.376 . S
C1660 H1647 0.930 . S
C1660 C1659 1.376 . S
C1660 C1661 1.388 . S
C1661 H1648 0.930 . S
C1661 C1660 1.388 . S
C1661 C1662 1.390 . S
C1662 C1661 1.390 . S
C1662 C1663 1.394 . S
C1662 C1668 1.465 . S
C1663 C1658 1.399 . S
C1663 C1662 1.394 . S
C1663 C1664 1.516 . S
C1664 C1663 1.516 . S
C1664 C1665 1.502 . S
C1664 C1666 1.561 . S
C1664 C1667 1.526 . S
C1665 H1649 0.959 . S
C1665 H1650 0.959 . S
C1665 H1651 0.961 . S
C1665 C1664 1.502 . S
C1666 H1652 0.960 . S
C1666 H1653 0.961 . S
C1666 H1654 0.959 . S
C1666 C1664 1.561 . S
C1667 C1664 1.526 . S
C1667 C1668 1.396 . S
C1667 C1672 1.390 . S
C1668 C1662 1.465 . S
C1668 C1667 1.396 . S
C1668 C1669 1.399 . S
C1669 H1655 0.929 . S
C1669 C1668 1.399 . S
C1669 C1670 1.385 . S
C1670 H1656 0.931 . S
C1670 C1669 1.385 . S
C1670 C1671 1.389 . S
C1671 C1670 1.389 . S
C1671 C1672 1.387 . S
C1672 H1657 0.930 . S
C1672 C1667 1.390 . S
C1672 C1671 1.387 . S
H1673 C1685 0.930 . S
H1674 C1687 0.930 . S
H1675 C1688 0.930 . S
H1676 C1692 0.959 . S
H1677 C1692 0.959 . S
H1678 C1692 0.961 . S
H1679 C1693 0.960 . S
H1680 C1693 0.961 . S
H1681 C1693 0.959 . S
H1682 C1696 0.929 . S
H1683 C1697 0.931 . S
H1684 C1699 0.930 . S
C1685 H1673 0.930 . S
C1685 C1686 1.399 . S
C1685 C1690 1.399 . S
C1686 C1685 1.399 . S
C1686 C1687 1.376 . S
C1687 H1674 0.930 . S
C1687 C1686 1.376 . S
C1687 C1688 1.388 . S
C1688 H1675 0.930 . S
C1688 C1687 1.388 . S
C1688 C1689 1.390 . S
C1689 C1688 1.390 . S
C1689 C1690 1.394 . S
C1689 C1695 1.465 . S
C1690 C1685 1.399 . S
C1690 C1689 1.394 . S
C1690 C1691 1.516 . S
C1691 C1690 1.516 . S
C1691 C1692 1.502 . S
C1691 C1693 1.561 . S
C1691 C1694 1.526 . S
C1692 H1676 0.959 . S
C1692 H1677 0.959 . S
C1692 H1678 0.961 . S
C1692 C1691 1.502 . S
C1693 H1679 0.960 . S
C1693 H1680 0.961 . S
C1693 H1681 0.959 . S
C1693 C1691 1.561 . S
C1694 C1691 1.526 . S
C1694 C1695 1.396 . S
C1694 C1699 1.390 . S
C1695 C1689 1.465 . S
C1695 C1694 1.396 . S
C1695 C1696 1.399 . S
C1696 H1682 0.929 . S
C1696 C1695 1.399 . S
C1696 C1697 1.385 . S
C1697 H1683 0.931 . S
C1697 C1696 1.385 . S
C1697 C1698 1.389 . S
C1698 C1697 1.389 . S
C1698 C1699 1.387 . S
C1699 H1684 0.930 . S
C1699 C1694 1.390 . S
C1699 C1698 1.387 . S
H1700 C1712 0.930 . S
H1701 C1714 0.930 . S
H1702 C1715 0.930 . S
H1703 C1719 0.959 . S
H1704 C1719 0.959 . S
H1705 C1719 0.961 . S
H1706 C1720 0.960 . S
H1707 C1720 0.961 . S
H1708 C1720 0.959 . S
H1709 C1723 0.929 . S
H1710 C1724 0.931 . S
H1711 C1726 0.930 . S
C1712 H1700 0.930 . S
C1712 C1713 1.399 . S
C1712 C1717 1.399 . S
C1713 C1712 1.399 . S
C1713 C1714 1.376 . S
C1714 H1701 0.930 . S
C1714 C1713 1.376 . S
C1714 C1715 1.388 . S
C1715 H1702 0.930 . S
C1715 C1714 1.388 . S
C1715 C1716 1.390 . S
C1716 C1715 1.390 . S
C1716 C1717 1.394 . S
C1716 C1722 1.465 . S
C1717 C1712 1.399 . S
C1717 C1716 1.394 . S
C1717 C1718 1.516 . S
C1718 C1717 1.516 . S
C1718 C1719 1.502 . S
C1718 C1720 1.561 . S
C1718 C1721 1.526 . S
C1719 H1703 0.959 . S
C1719 H1704 0.959 . S
C1719 H1705 0.961 . S
C1719 C1718 1.502 . S
C1720 H1706 0.960 . S
C1720 H1707 0.961 . S
C1720 H1708 0.959 . S
C1720 C1718 1.561 . S
C1721 C1718 1.526 . S
C1721 C1722 1.396 . S
C1721 C1726 1.390 . S
C1722 C1716 1.465 . S
C1722 C1721 1.396 . S
C1722 C1723 1.399 . S
C1723 H1709 0.929 . S
C1723 C1722 1.399 . S
C1723 C1724 1.385 . S
C1724 H1710 0.931 . S
C1724 C1723 1.385 . S
C1724 C1725 1.389 . S
C1725 C1724 1.389 . S
C1725 C1726 1.387 . S
C1726 H1711 0.930 . S
C1726 C1721 1.390 . S
C1726 C1725 1.387 . S
H1727 C1739 0.930 . S
H1728 C1741 0.930 . S
H1729 C1742 0.930 . S
H1730 C1746 0.959 . S
H1731 C1746 0.959 . S
H1732 C1746 0.961 . S
H1733 C1747 0.960 . S
H1734 C1747 0.961 . S
H1735 C1747 0.959 . S
H1736 C1750 0.929 . S
H1737 C1751 0.931 . S
H1738 C1753 0.930 . S
C1739 H1727 0.930 . S
C1739 C1740 1.399 . S
C1739 C1744 1.399 . S
C1740 C1739 1.399 . S
C1740 C1741 1.376 . S
C1741 H1728 0.930 . S
C1741 C1740 1.376 . S
C1741 C1742 1.388 . S
C1742 H1729 0.930 . S
C1742 C1741 1.388 . S
C1742 C1743 1.390 . S
C1743 C1742 1.390 . S
C1743 C1744 1.394 . S
C1743 C1749 1.465 . S
C1744 C1739 1.399 . S
C1744 C1743 1.394 . S
C1744 C1745 1.516 . S
C1745 C1744 1.516 . S
C1745 C1746 1.502 . S
C1745 C1747 1.561 . S
C1745 C1748 1.526 . S
C1746 H1730 0.959 . S
C1746 H1731 0.959 . S
C1746 H1732 0.961 . S
C1746 C1745 1.502 . S
C1747 H1733 0.960 . S
C1747 H1734 0.961 . S
C1747 H1735 0.959 . S
C1747 C1745 1.561 . S
C1748 C1745 1.526 . S
C1748 C1749 1.396 . S
C1748 C1753 1.390 . S
C1749 C1743 1.465 . S
C1749 C1748 1.396 . S
C1749 C1750 1.399 . S
C1750 H1736 0.929 . S
C1750 C1749 1.399 . S
C1750 C1751 1.385 . S
C1751 H1737 0.931 . S
C1751 C1750 1.385 . S
C1751 C1752 1.389 . S
C1752 C1751 1.389 . S
C1752 C1753 1.387 . S
C1753 H1738 0.930 . S
C1753 C1748 1.390 . S
C1753 C1752 1.387 . S
H1754 C1766 0.930 . S
H1755 C1768 0.930 . S
H1756 C1769 0.930 . S
H1757 C1773 0.959 . S
H1758 C1773 0.959 . S
H1759 C1773 0.961 . S
H1760 C1774 0.960 . S
H1761 C1774 0.961 . S
H1762 C1774 0.959 . S
H1763 C1777 0.929 . S
H1764 C1778 0.931 . S
H1765 C1780 0.930 . S
C1766 H1754 0.930 . S
C1766 C1767 1.399 . S
C1766 C1771 1.399 . S
C1767 C1766 1.399 . S
C1767 C1768 1.376 . S
C1768 H1755 0.930 . S
C1768 C1767 1.376 . S
C1768 C1769 1.388 . S
C1769 H1756 0.930 . S
C1769 C1768 1.388 . S
C1769 C1770 1.390 . S
C1770 C1769 1.390 . S
C1770 C1771 1.394 . S
C1770 C1776 1.465 . S
C1771 C1766 1.399 . S
C1771 C1770 1.394 . S
C1771 C1772 1.516 . S
C1772 C1771 1.516 . S
C1772 C1773 1.502 . S
C1772 C1774 1.561 . S
C1772 C1775 1.526 . S
C1773 H1757 0.959 . S
C1773 H1758 0.959 . S
C1773 H1759 0.961 . S
C1773 C1772 1.502 . S
C1774 H1760 0.960 . S
C1774 H1761 0.961 . S
C1774 H1762 0.959 . S
C1774 C1772 1.561 . S
C1775 C1772 1.526 . S
C1775 C1776 1.396 . S
C1775 C1780 1.390 . S
C1776 C1770 1.465 . S
C1776 C1775 1.396 . S
C1776 C1777 1.399 . S
C1777 H1763 0.929 . S
C1777 C1776 1.399 . S
C1777 C1778 1.385 . S
C1778 H1764 0.931 . S
C1778 C1777 1.385 . S
C1778 C1779 1.389 . S
C1779 C1778 1.389 . S
C1779 C1780 1.387 . S
C1780 H1765 0.930 . S
C1780 C1775 1.390 . S
C1780 C1779 1.387 . S
H1781 C1793 0.930 . S
H1782 C1795 0.930 . S
H1783 C1796 0.930 . S
H1784 C1800 0.959 . S
H1785 C1800 0.959 . S
H1786 C1800 0.961 . S
H1787 C1801 0.960 . S
H1788 C1801 0.961 . S
H1789 C1801 0.959 . S
H1790 C1804 0.929 . S
H1791 C1805 0.931 . S
H1792 C1807 0.930 . S
C1793 H1781 0.930 . S
C1793 C1794 1.399 . S
C1793 C1798 1.399 . S
C1794 C1793 1.399 . S
C1794 C1795 1.376 . S
C1795 H1782 0.930 . S
C1795 C1794 1.376 . S
C1795 C1796 1.388 . S
C1796 H1783 0.930 . S
C1796 C1795 1.388 . S
C1796 C1797 1.390 . S
C1797 C1796 1.390 . S
C1797 C1798 1.394 . S
C1797 C1803 1.465 . S
C1798 C1793 1.399 . S
C1798 C1797 1.394 . S
C1798 C1799 1.516 . S
C1799 C1798 1.516 . S
C1799 C1800 1.502 . S
C1799 C1801 1.561 . S
C1799 C1802 1.526 . S
C1800 H1784 0.959 . S
C1800 H1785 0.959 . S
C1800 H1786 0.961 . S
C1800 C1799 1.502 . S
C1801 H1787 0.960 . S
C1801 H1788 0.961 . S
C1801 H1789 0.959 . S
C1801 C1799 1.561 . S
C1802 C1799 1.526 . S
C1802 C1803 1.396 . S
C1802 C1807 1.390 . S
C1803 C1797 1.465 . S
C1803 C1802 1.396 . S
C1803 C1804 1.399 . S
C1804 H1790 0.929 . S
C1804 C1803 1.399 . S
C1804 C1805 1.385 . S
C1805 H1791 0.931 . S
C1805 C1804 1.385 . S
C1805 C1806 1.389 . S
C1806 C1805 1.389 . S
C1806 C1807 1.387 . S
C1807 H1792 0.930 . S
C1807 C1802 1.390 . S
C1807 C1806 1.387 . S
C957 C52 1.425 . S
C969 C170 1.419 . S
C984 C229 1.398 . S
C996 C111 1.406 . S
C1011 C288 1.425 . S
C1023 C406 1.419 . S
C1038 C465 1.397 . S
C1050 C347 1.405 . S
C1065 C524 1.411 . S
C1077 C642 1.397 . S
C1092 C701 1.407 . S
C1104 C583 1.424 . S
C1119 C760 1.416 . S
C1131 C878 1.399 . S
C1146 C937 1.419 . S
C1158 C819 1.400 . S
C1173 C269 1.241 . S
C1185 C33 1.299 . S
C1200 C92 1.258 . S
C1212 C328 1.303 . S
C1227 C151 1.242 . S
C1239 C387 1.297 . S
C1254 C446 1.245 . S
C1266 C210 1.309 . S
C1281 C505 1.253 . S
C1293 C741 1.309 . S
C1308 C564 1.240 . S
C1320 C800 1.283 . S
C1335 C623 1.287 . S
C1347 C859 1.240 . S
C1362 C682 1.241 . S
C1374 C918 1.279 . S
C1389 C593 1.343 . S
C1401 C3 1.347 . S
C1416 C652 1.362 . S
C1428 C62 1.355 . S
C1443 C121 1.358 . S
C1455 C475 1.352 . S
C1470 C180 1.395 . S
C1482 C534 1.396 . S
C1497 C239 1.379 . S
C1509 C829 1.372 . S
C1524 C298 1.394 . S
C1536 C888 1.396 . S
C1551 C357 1.355 . S
C1563 C711 1.363 . S
C1578 C770 1.374 . S
C1590 C416 1.382 . S
C1605 C5 1.426 . S
C1617 C890 1.429 . S
C1632 C713 1.436 . S
C1644 C64 1.435 . S
C1659 C123 1.424 . S
C1671 C772 1.422 . S
C1686 C831 1.433 . S
C1698 C182 1.431 . S
C1713 C536 1.434 . S
C1725 C241 1.436 . S
C1740 C300 1.426 . S
C1752 C595 1.429 . S
C1767 C654 1.437 . S
C1779 C359 1.435 . S
C1794 C477 1.420 . S
C1806 C418 1.421 . S
