# Generated by pormake.
# Topology bcs, (6)-cn, num edge types: 1
# Building blocks:
#     Node 0, Type 0, BuildingBlock: UKALOJ_clean_sbu_0, # of connection points: 6
#     Node 1, Type 0, BuildingBlock: UKALOJ_clean_sbu_0, # of connection points: 6
#     Node 2, Type 0, BuildingBlock: UKALOJ_clean_sbu_0, # of connection points: 6
#     Node 3, Type 0, BuildingBlock: UKALOJ_clean_sbu_0, # of connection points: 6
#     Node 4, Type 0, BuildingBlock: UKALOJ_clean_sbu_0, # of connection points: 6
#     Node 5, Type 0, BuildingBlock: UKALOJ_clean_sbu_0, # of connection points: 6
#     Node 6, Type 0, BuildingBlock: UKALOJ_clean_sbu_0, # of connection points: 6
#     Node 7, Type 0, BuildingBlock: UKALOJ_clean_sbu_0, # of connection points: 6
#     Node 8, Type 0, BuildingBlock: UKALOJ_clean_sbu_0, # of connection points: 6
#     Node 9, Type 0, BuildingBlock: UKALOJ_clean_sbu_0, # of connection points: 6
#     Node 10, Type 0, BuildingBlock: UKALOJ_clean_sbu_0, # of connection points: 6
#     Node 11, Type 0, BuildingBlock: UKALOJ_clean_sbu_0, # of connection points: 6
#     Node 12, Type 0, BuildingBlock: UKALOJ_clean_sbu_0, # of connection points: 6
#     Node 13, Type 0, BuildingBlock: UKALOJ_clean_sbu_0, # of connection points: 6
#     Node 14, Type 0, BuildingBlock: UKALOJ_clean_sbu_0, # of connection points: 6
#     Node 15, Type 0, BuildingBlock: UKALOJ_clean_sbu_0, # of connection points: 6
#     Edge 16, Type (0, 0), BuildingBlock: KIFKEQ_clean_linker_1, # of connection points: 2
#     Edge 17, Type (0, 0), BuildingBlock: KIFKEQ_clean_linker_1, # of connection points: 2
#     Edge 18, Type (0, 0), BuildingBlock: KIFKEQ_clean_linker_1, # of connection points: 2
#     Edge 19, Type (0, 0), BuildingBlock: KIFKEQ_clean_linker_1, # of connection points: 2
#     Edge 20, Type (0, 0), BuildingBlock: KIFKEQ_clean_linker_1, # of connection points: 2
#     Edge 21, Type (0, 0), BuildingBlock: KIFKEQ_clean_linker_1, # of connection points: 2
#     Edge 22, Type (0, 0), BuildingBlock: KIFKEQ_clean_linker_1, # of connection points: 2
#     Edge 23, Type (0, 0), BuildingBlock: KIFKEQ_clean_linker_1, # of connection points: 2
#     Edge 24, Type (0, 0), BuildingBlock: KIFKEQ_clean_linker_1, # of connection points: 2
#     Edge 25, Type (0, 0), BuildingBlock: KIFKEQ_clean_linker_1, # of connection points: 2
#     Edge 26, Type (0, 0), BuildingBlock: KIFKEQ_clean_linker_1, # of connection points: 2
#     Edge 27, Type (0, 0), BuildingBlock: KIFKEQ_clean_linker_1, # of connection points: 2
#     Edge 28, Type (0, 0), BuildingBlock: KIFKEQ_clean_linker_1, # of connection points: 2
#     Edge 29, Type (0, 0), BuildingBlock: KIFKEQ_clean_linker_1, # of connection points: 2
#     Edge 30, Type (0, 0), BuildingBlock: KIFKEQ_clean_linker_1, # of connection points: 2
#     Edge 31, Type (0, 0), BuildingBlock: KIFKEQ_clean_linker_1, # of connection points: 2
#     Edge 32, Type (0, 0), BuildingBlock: KIFKEQ_clean_linker_1, # of connection points: 2
#     Edge 33, Type (0, 0), BuildingBlock: KIFKEQ_clean_linker_1, # of connection points: 2
#     Edge 34, Type (0, 0), BuildingBlock: KIFKEQ_clean_linker_1, # of connection points: 2
#     Edge 35, Type (0, 0), BuildingBlock: KIFKEQ_clean_linker_1, # of connection points: 2
#     Edge 36, Type (0, 0), BuildingBlock: KIFKEQ_clean_linker_1, # of connection points: 2
#     Edge 37, Type (0, 0), BuildingBlock: KIFKEQ_clean_linker_1, # of connection points: 2
#     Edge 38, Type (0, 0), BuildingBlock: KIFKEQ_clean_linker_1, # of connection points: 2
#     Edge 39, Type (0, 0), BuildingBlock: KIFKEQ_clean_linker_1, # of connection points: 2
#     Edge 40, Type (0, 0), BuildingBlock: KIFKEQ_clean_linker_1, # of connection points: 2
#     Edge 41, Type (0, 0), BuildingBlock: KIFKEQ_clean_linker_1, # of connection points: 2
#     Edge 42, Type (0, 0), BuildingBlock: KIFKEQ_clean_linker_1, # of connection points: 2
#     Edge 43, Type (0, 0), BuildingBlock: KIFKEQ_clean_linker_1, # of connection points: 2
#     Edge 44, Type (0, 0), BuildingBlock: KIFKEQ_clean_linker_1, # of connection points: 2
#     Edge 45, Type (0, 0), BuildingBlock: KIFKEQ_clean_linker_1, # of connection points: 2
#     Edge 46, Type (0, 0), BuildingBlock: KIFKEQ_clean_linker_1, # of connection points: 2
#     Edge 47, Type (0, 0), BuildingBlock: KIFKEQ_clean_linker_1, # of connection points: 2
#     Edge 48, Type (0, 0), BuildingBlock: KIFKEQ_clean_linker_1, # of connection points: 2
#     Edge 49, Type (0, 0), BuildingBlock: KIFKEQ_clean_linker_1, # of connection points: 2
#     Edge 50, Type (0, 0), BuildingBlock: KIFKEQ_clean_linker_1, # of connection points: 2
#     Edge 51, Type (0, 0), BuildingBlock: KIFKEQ_clean_linker_1, # of connection points: 2
#     Edge 52, Type (0, 0), BuildingBlock: KIFKEQ_clean_linker_1, # of connection points: 2
#     Edge 53, Type (0, 0), BuildingBlock: KIFKEQ_clean_linker_1, # of connection points: 2
#     Edge 54, Type (0, 0), BuildingBlock: KIFKEQ_clean_linker_1, # of connection points: 2
#     Edge 55, Type (0, 0), BuildingBlock: KIFKEQ_clean_linker_1, # of connection points: 2
#     Edge 56, Type (0, 0), BuildingBlock: KIFKEQ_clean_linker_1, # of connection points: 2
#     Edge 57, Type (0, 0), BuildingBlock: KIFKEQ_clean_linker_1, # of connection points: 2
#     Edge 58, Type (0, 0), BuildingBlock: KIFKEQ_clean_linker_1, # of connection points: 2
#     Edge 59, Type (0, 0), BuildingBlock: KIFKEQ_clean_linker_1, # of connection points: 2
#     Edge 60, Type (0, 0), BuildingBlock: KIFKEQ_clean_linker_1, # of connection points: 2
#     Edge 61, Type (0, 0), BuildingBlock: KIFKEQ_clean_linker_1, # of connection points: 2
#     Edge 62, Type (0, 0), BuildingBlock: KIFKEQ_clean_linker_1, # of connection points: 2
#     Edge 63, Type (0, 0), BuildingBlock: KIFKEQ_clean_linker_1, # of connection points: 2
# Relax obj value: 0.483
# Max RMSD: 0.296
# Mean RMSD: 0.266
data_MOF--net-bcs--node1-UKALOJ_clean_sbu_0--edge1-KIFKEQ_clean_linker_1
_symmetry_space_group_name_H-M    P1
_symmetry_Int_Tables_number       1
_symmetry_cell_setting            triclinic
loop_
_symmetry_equiv_pos_as_xyz
'x, y, z'
_cell_length_a     37.423937
_cell_length_b     36.906239
_cell_length_c     39.745959
_cell_angle_alpha  89.340571
_cell_angle_beta   90.773532
_cell_angle_gamma 77.697011
loop_
_atom_site_label
_atom_site_type_symbol
_atom_site_fract_x
_atom_site_fract_y
_atom_site_fract_z
_atom_type_partial_charge
Zn0 Zn 0.01701 0.03158 -0.00293 0.0
O1 O 0.05377 0.00822 0.03629 0.0
C2 C 0.04 0.96193 0.95861 0.0
Zn3 Zn 0.9823 0.99026 0.00641 0.0
C4 C 0.0458 0.98258 0.05445 0.0
O5 O 0.01728 0.97029 0.04778 0.0
C6 C 0.95374 0.03957 0.94883 0.0
O7 O 0.95036 0.02939 0.03728 0.0
O8 O 0.98654 0.0687 0.03153 0.0
N9 N 0.95026 0.95269 0.0166 0.0
C10 C 0.93405 0.9443 0.04494 0.0
C11 C 0.9208 0.90948 0.00636 0.0
N12 N 0.94195 0.93097 0.99269 0.0
N13 N 0.91528 0.9176 0.03903 0.0
C14 C 0.08206 0.06553 0.97324 0.0
C15 C 0.05806 0.12329 0.97175 0.0
N16 N 0.04791 0.06966 0.98531 0.0
N17 N 0.03319 0.10562 0.98459 0.0
N18 N 0.08897 0.09877 0.96421 0.0
H19 H 0.10431 0.01038 0.99251 0.0
H20 H 0.13755 0.03377 0.97444 0.0
H21 H 0.10648 0.01587 0.94766 0.0
C22 C 0.10923 0.0293 0.97206 0.0
C23 C 0.93822 0.96015 0.07894 0.0
H24 H 0.95884 0.97756 0.0793 0.0
H25 H 0.94621 0.93724 0.09771 0.0
H26 H 0.91144 0.97687 0.08666 0.0
O27 O 0.94794 0.01127 0.96462 0.0
O28 O 0.98013 0.05403 0.95809 0.0
C29 C 0.95869 0.05998 0.04466 0.0
O30 O 0.04586 0.99421 0.96277 0.0
O31 O 0.01501 0.95157 0.97506 0.0
Zn32 Zn 0.2219 0.75806 0.27093 0.0
O33 O 0.25398 0.70859 0.29255 0.0
C34 C 0.27205 0.7981 0.30374 0.0
Zn35 Zn 0.26851 0.76054 0.23743 0.0
C36 C 0.28599 0.69468 0.28239 0.0
O37 O 0.29912 0.71049 0.25837 0.0
C38 C 0.20427 0.8236 0.22609 0.0
O39 O 0.24858 0.73085 0.19909 0.0
O40 O 0.20319 0.72703 0.23242 0.0
N41 N 0.31222 0.76623 0.20916 0.0
C42 C 0.31413 0.7838 0.17953 0.0
C43 C 0.36848 0.76725 0.19919 0.0
N44 N 0.34606 0.75569 0.22119 0.0
N45 N 0.34912 0.78519 0.17288 0.0
C46 C 0.17481 0.73734 0.32917 0.0
C47 C 0.12134 0.75104 0.30714 0.0
N48 N 0.17777 0.75271 0.2987 0.0
N49 N 0.14445 0.76149 0.28519 0.0
N50 N 0.13971 0.73559 0.33491 0.0
H51 H 0.21871 0.69632 0.35016 0.0
H52 H 0.19588 0.72912 0.38003 0.0
H53 H 0.22701 0.74238 0.3501 0.0
C54 C 0.2059 0.72585 0.35385 0.0
C55 C 0.28205 0.79789 0.1564 0.0
H56 H 0.26114 0.7809 0.15904 0.0
H57 H 0.29091 0.79745 0.12984 0.0
H58 H 0.26935 0.82688 0.1628 0.0
O59 O 0.23705 0.81119 0.21727 0.0
O60 O 0.19057 0.80658 0.24879 0.0
C61 C 0.21912 0.72001 0.20445 0.0
O62 O 0.24124 0.78985 0.30882 0.0
O63 O 0.2884 0.78923 0.27629 0.0
Zn64 Zn 0.52517 0.03005 0.49639 0.0
O65 O 0.49355 0.07174 0.46635 0.0
C66 C 0.46843 0.04142 0.55136 0.0
Zn67 Zn 0.48663 0.99166 0.49298 0.0
C68 C 0.46233 0.06615 0.45805 0.0
O69 O 0.45369 0.0356 0.46558 0.0
C70 C 0.54885 0.95725 0.53359 0.0
O71 O 0.51501 0.9687 0.44901 0.0
O72 O 0.55371 0.00534 0.45335 0.0
N73 N 0.44899 0.95935 0.48616 0.0
C74 C 0.43375 0.94912 0.45784 0.0
C75 C 0.41255 0.92346 0.49916 0.0
N76 N 0.43572 0.94346 0.5118 0.0
N77 N 0.41096 0.92632 0.46531 0.0
C78 C 0.56693 0.08946 0.52226 0.0
C79 C 0.62054 0.06803 0.50442 0.0
N80 N 0.56498 0.06005 0.50313 0.0
N81 N 0.59831 0.0471 0.49169 0.0
N82 N 0.60145 0.0948 0.52377 0.0
H83 H 0.50977 0.11518 0.5242 0.0
H84 H 0.54015 0.14154 0.54323 0.0
H85 H 0.53209 0.10086 0.5644 0.0
C86 C 0.53522 0.11325 0.53938 0.0
C87 C 0.43989 0.96295 0.42317 0.0
H88 H 0.44782 0.99007 0.42386 0.0
H89 H 0.41487 0.96559 0.40723 0.0
H90 H 0.46247 0.94303 0.41135 0.0
O91 O 0.51978 0.94944 0.52177 0.0
O92 O 0.55631 0.98846 0.52681 0.0
C93 C 0.54319 0.97909 0.4384 0.0
O94 O 0.4953 0.0536 0.53982 0.0
O95 O 0.45916 0.01413 0.53703 0.0
Zn96 Zn 0.27726 0.25548 0.76803 0.0
O97 O 0.24063 0.30003 0.79143 0.0
C98 C 0.23686 0.20351 0.79827 0.0
Zn99 Zn 0.23203 0.24807 0.73357 0.0
C100 C 0.20729 0.30974 0.78204 0.0
O101 O 0.19592 0.29292 0.75768 0.0
C102 C 0.30209 0.19412 0.71926 0.0
O103 O 0.24524 0.28528 0.697 0.0
O104 O 0.28949 0.29282 0.73127 0.0
N105 N 0.18915 0.23879 0.70495 0.0
C106 C 0.18726 0.22396 0.67429 0.0
C107 C 0.13433 0.23131 0.6956 0.0
N108 N 0.15614 0.24359 0.718 0.0
N109 N 0.15319 0.21861 0.66797 0.0
C110 C 0.32219 0.27845 0.82788 0.0
C111 C 0.37507 0.27164 0.80656 0.0
N112 N 0.32014 0.26464 0.7968 0.0
N113 N 0.35312 0.2602 0.78374 0.0
N114 N 0.35632 0.28344 0.83448 0.0
H115 H 0.27613 0.31414 0.84969 0.0
H116 H 0.30221 0.28059 0.87854 0.0
H117 H 0.27231 0.26657 0.84738 0.0
C118 C 0.29144 0.28508 0.85232 0.0
C119 C 0.21812 0.21671 0.64996 0.0
H120 H 0.23662 0.23609 0.65395 0.0
H121 H 0.20744 0.21957 0.62366 0.0
H122 H 0.23412 0.18806 0.65384 0.0
O123 O 0.26858 0.20331 0.71034 0.0
O124 O 0.31352 0.21107 0.7435 0.0
C125 C 0.27221 0.30017 0.7034 0.0
O126 O 0.26416 0.21795 0.80451 0.0
O127 O 0.21948 0.21109 0.77049 0.0
Zn128 Zn 0.02618 0.98789 0.48801 0.0
O129 O -0.00227 0.94787 0.47043 0.0
C130 C 0.95843 0.04802 0.47797 0.0
Zn131 Zn 0.9869 0.99361 0.52977 0.0
C132 C 0.97 0.93937 0.48395 0.0
O133 O 0.95734 0.95559 0.5106 0.0
C134 C 0.04331 0.04189 0.53447 0.0
O135 O 0.02433 0.94859 0.55201 0.0
O136 O 0.06432 0.9453 0.51155 0.0
N137 N 0.9564 0.00043 0.5719 0.0
C138 C 0.96584 0.99431 0.60465 0.0
C139 C 0.90838 0.01614 0.6021 0.0
N140 N 0.92074 0.01429 0.57038 0.0
N141 N 0.93621 0.004 0.62405 0.0
C142 C 0.04513 0.9876 0.41276 0.0
C143 C 0.10301 0.98112 0.41437 0.0
N144 N 0.05602 0.98265 0.4453 0.0
N145 N 0.09204 0.97811 0.44622 0.0
N146 N 0.07411 0.98727 0.39282 0.0
H147 H 0.99176 0.97382 0.41504 0.0
H148 H 0.00576 0.98336 0.3735 0.0
H149 H 0.99129 0.02055 0.40253 0.0
C150 C 0.00637 0.99141 0.40029 0.0
C151 C 0.00414 0.98067 0.61785 0.0
H152 H 0.02386 0.99186 0.60245 0.0
H153 H 0.01127 0.94994 0.61679 0.0
H154 H 0.00664 0.98893 0.64439 0.0
O155 O 0.01651 0.03223 0.54869 0.0
O156 O 0.05472 0.02717 0.50681 0.0
C157 C 0.0548 0.93354 0.53941 0.0
O158 O 0.98825 0.03182 0.46501 0.0
O159 O 0.94944 0.03742 0.50645 0.0
Zn160 Zn 0.27256 0.77244 0.75993 0.0
O161 O 0.23968 0.78959 0.71697 0.0
C162 C 0.20683 0.79397 0.80375 0.0
Zn163 Zn 0.24072 0.72838 0.76706 0.0
C164 C 0.21347 0.77464 0.70833 0.0
O165 O 0.20633 0.7481 0.7257 0.0
C166 C 0.30004 0.72553 0.81852 0.0
O167 O 0.2796 0.69593 0.7352 0.0
O168 O 0.31115 0.73941 0.72978 0.0
N169 N 0.21557 0.68489 0.7744 0.0
C170 C 0.20988 0.65836 0.75329 0.0
C171 C 0.19006 0.64604 0.80124 0.0
N172 N 0.20318 0.67724 0.8042 0.0
N173 N 0.19446 0.63353 0.76959 0.0
C174 C 0.31074 0.83739 0.77461 0.0
C175 C 0.31661 0.85905 0.72546 0.0
N176 N 0.29734 0.81605 0.75256 0.0
N177 N 0.30098 0.82954 0.72204 0.0
N178 N 0.32317 0.86432 0.75821 0.0
H179 H 0.3073 0.86054 0.82447 0.0
H180 H 0.33547 0.81472 0.82116 0.0
H181 H 0.28656 0.82106 0.81998 0.0
C182 C 0.3097 0.8333 0.81218 0.0
C183 C 0.21729 0.65756 0.71628 0.0
H184 H 0.22306 0.68391 0.70679 0.0
H185 H 0.19346 0.65152 0.70221 0.0
H186 H 0.24102 0.6348 0.71124 0.0
O187 O 0.27471 0.70989 0.8087 0.0
O188 O 0.30583 0.7536 0.80247 0.0
C189 C 0.30662 0.70718 0.72301 0.0
O190 O 0.23305 0.80555 0.7904 0.0
O191 O 0.20313 0.76114 0.7984 0.0
Zn192 Zn 0.51816 0.00745 0.03303 0.0
O193 O 0.48705 0.04594 0.06683 0.0
C194 C 0.46329 0.96079 0.04111 0.0
Zn195 Zn 0.47193 0.02358 -0.00356 0.0
C196 C 0.45591 0.06584 0.05885 0.0
O197 O 0.44234 0.06271 0.02981 0.0
C198 C 0.53355 0.96441 0.97097 0.0
O199 O 0.49671 0.06496 0.97662 0.0
O200 O 0.54305 0.04965 0.01218 0.0
N201 N 0.4302 0.03536 0.96181 0.0
C202 C 0.43109 0.03784 0.92799 0.0
C203 C 0.37804 0.03079 0.94092 0.0
N204 N 0.39696 0.03168 0.96983 0.0
N205 N 0.39888 0.03421 0.91413 0.0
C206 C 0.57074 0.01104 0.09306 0.0
C207 C 0.60075 0.95509 0.09733 0.0
N208 N 0.55914 0.9921 0.06793 0.0
N209 N 0.57784 0.95736 0.07055 0.0
N210 N 0.59646 0.98834 0.11208 0.0
H211 H 0.54906 0.06637 0.07364 0.0
H212 H 0.58082 0.06386 0.10861 0.0
H213 H 0.5352 0.05728 0.1155 0.0
C214 C 0.55836 0.05204 0.09782 0.0
C215 C 0.46246 0.04666 0.9087 0.0
H216 H 0.46941 0.07222 0.91868 0.0
H217 H 0.45541 0.05161 0.8816 0.0
H218 H 0.48693 0.02395 0.91156 0.0
O219 O 0.50216 0.98382 0.9632 0.0
O220 O 0.54773 0.96881 -0.00058 0.0
C221 C 0.52715 0.07001 0.98796 0.0
O222 O 0.49365 0.96569 0.05265 0.0
O223 O 0.44742 0.98163 0.0173 0.0
Zn224 Zn 0.24954 0.28357 0.26196 0.0
O225 O 0.28059 0.26377 0.30515 0.0
C226 C 0.29069 0.22405 0.22221 0.0
Zn227 Zn 0.22062 0.23729 0.26309 0.0
C228 C 0.27551 0.23396 0.31858 0.0
O229 O 0.25188 0.21775 0.30594 0.0
C230 C 0.19557 0.28562 0.20586 0.0
O231 O 0.1773 0.26496 0.29455 0.0
O232 O 0.20676 0.31025 0.29285 0.0
N233 N 0.20171 0.19 0.26198 0.0
C234 C 0.16795 0.1828 0.26142 0.0
C235 C 0.20609 0.13108 0.25818 0.0
N236 N 0.22533 0.15788 0.25976 0.0
N237 N 0.16998 0.14592 0.25896 0.0
C238 C 0.30223 0.33797 0.2603 0.0
C239 C 0.26425 0.38999 0.25958 0.0
N240 N 0.26846 0.33096 0.26196 0.0
N241 N 0.24494 0.36329 0.26184 0.0
N242 N 0.30033 0.37496 0.25852 0.0
H243 H 0.33313 0.28503 0.27828 0.0
H244 H 0.35983 0.3199 0.2722 0.0
H245 H 0.34356 0.2977 0.23655 0.0
C246 C 0.33675 0.30856 0.26211 0.0
C247 C 0.13331 0.21203 0.26167 0.0
H248 H 0.13684 0.23742 0.24822 0.0
H249 H 0.12633 0.21961 0.28808 0.0
H250 H 0.11037 0.20182 0.24984 0.0
O251 O 0.18975 0.25664 0.22011 0.0
O252 O 0.21865 0.30253 0.21845 0.0
C253 C 0.18005 0.29731 0.30337 0.0
O254 O 0.29225 0.25669 0.23083 0.0
O255 O 0.26432 0.21023 0.23225 0.0
Zn256 Zn 0.49 0.50074 0.02649 0.0
O257 O 0.52275 0.45589 0.05346 0.0
C258 C 0.54949 0.54391 0.03479 0.0
Zn259 Zn 0.53072 0.49228 0.98581 0.0
C260 C 0.55211 0.43759 0.04107 0.0
O261 O 0.56196 0.44677 0.0124 0.0
C262 C 0.46893 0.55655 0.97243 0.0
O263 O 0.49968 0.45712 0.9639 0.0
O264 O 0.45941 0.46438 0.00431 0.0
N265 N 0.56722 0.48108 0.94783 0.0
C266 C 0.5648 0.48979 0.91479 0.0
C267 C 0.6206 0.46643 0.92614 0.0
N268 N 0.60183 0.46563 0.95465 0.0
N269 N 0.59805 0.48152 0.90055 0.0
C270 C 0.44629 0.49081 0.09003 0.0
C271 C 0.42571 0.54687 0.10429 0.0
N272 N 0.45573 0.51265 0.06593 0.0
N273 N 0.44281 0.54748 0.07471 0.0
N274 N 0.42806 0.51158 0.11456 0.0
H275 H 0.45917 0.43917 0.06301 0.0
H276 H 0.42917 0.43946 0.09834 0.0
H277 H 0.47688 0.43743 0.10543 0.0
C278 C 0.45323 0.44933 0.08883 0.0
C279 C 0.53028 0.50855 0.8968 0.0
H280 H 0.50605 0.5019 0.90915 0.0
H281 H 0.5303 0.49946 0.87034 0.0
H282 H 0.52845 0.53891 0.89665 0.0
O283 O 0.49888 0.53934 0.96019 0.0
O284 O 0.45811 0.54529 -6e-05 0.0
C285 C 0.47119 0.44946 0.97675 0.0
O286 O 0.52057 0.53713 0.0474 0.0
O287 O 0.56183 0.52764 0.00806 0.0
Zn288 Zn 0.77656 0.27604 0.2614 0.0
O289 O 0.74418 0.29751 0.21924 0.0
C290 C 0.71093 0.29586 0.30583 0.0
Zn291 Zn 0.74353 0.23277 0.26565 0.0
C292 C 0.71798 0.28341 0.20891 0.0
O293 O 0.7109 0.25556 0.22434 0.0
C294 C 0.80205 0.22438 0.3179 0.0
O295 O 0.78124 0.20251 0.23202 0.0
O296 O 0.81439 0.24489 0.22913 0.0
N297 N 0.71556 0.19128 0.26849 0.0
C298 C 0.72592 0.15446 0.26385 0.0
C299 C 0.66829 0.16679 0.27058 0.0
N300 N 0.67979 0.19883 0.27308 0.0
N301 N 0.69671 0.13847 0.2648 0.0
C302 C 0.79109 0.35566 0.25996 0.0
C303 C 0.84882 0.34526 0.26737 0.0
N304 N 0.80361 0.31857 0.25955 0.0
N305 N 0.83955 0.31221 0.26369 0.0
N306 N 0.81892 0.37309 0.2654 0.0
H307 H 0.73931 0.36098 0.2336 0.0
H308 H 0.74997 0.40412 0.24548 0.0
H309 H 0.73594 0.37442 0.27674 0.0
C310 C 0.75192 0.37487 0.25354 0.0
C311 C 0.76474 0.13392 0.26004 0.0
H312 H 0.77246 0.13447 0.23325 0.0
H313 H 0.76796 0.10454 0.26826 0.0
H314 H 0.78352 0.14714 0.27504 0.0
O315 O 0.77593 0.21036 0.30731 0.0
O316 O 0.80926 0.25261 0.30314 0.0
C317 C 0.8084 0.21379 0.22025 0.0
O318 O 0.73812 0.3072 0.29426 0.0
O319 O 0.70611 0.26407 0.29793 0.0
Zn320 Zn 0.01358 0.5135 0.52823 0.0
O321 O 0.98808 0.55711 0.56054 0.0
C322 C 0.95745 0.46994 0.54359 0.0
Zn323 Zn 0.96646 0.52647 0.49218 0.0
C324 C 0.95683 0.57635 0.55211 0.0
O325 O 0.94195 0.56913 0.52483 0.0
C326 C 0.02329 0.46383 0.46796 0.0
O327 O 0.99183 0.56436 0.46664 0.0
O328 O 0.03837 0.55179 0.50223 0.0
N329 N 0.92127 0.54124 0.46157 0.0
C330 C 0.91538 0.53709 0.42846 0.0
C331 C 0.86375 0.55913 0.45009 0.0
N332 N 0.8892 0.55562 0.47481 0.0
N333 N 0.87941 0.54797 0.42056 0.0
C334 C 0.06393 0.50253 0.59251 0.0
C335 C 0.11604 0.48138 0.5713 0.0
N336 N 0.05863 0.49902 0.55919 0.0
N337 N 0.09098 0.4853 0.54619 0.0
N338 N 0.09986 0.49177 0.60078 0.0
H339 H 0.03221 0.54982 0.61649 0.0
H340 H 0.03979 0.50857 0.64205 0.0
H341 H 0.00771 0.51355 0.60773 0.0
C342 C 0.03424 0.51943 0.61608 0.0
C343 C 0.94452 0.51979 0.40455 0.0
H344 H 0.97118 0.52602 0.41206 0.0
H345 H 0.93797 0.5302 0.37851 0.0
H346 H 0.94679 0.48934 0.4048 0.0
O347 O 0.99177 0.48275 0.45992 0.0
O348 O 0.03838 0.47104 0.49517 0.0
C349 C 0.02259 0.56983 0.47675 0.0
O350 O 0.98832 0.47524 0.55357 0.0
O351 O 0.94149 0.48831 0.51836 0.0
Zn352 Zn 0.73604 0.747 0.23588 0.0
O353 O 0.75369 0.78367 0.20114 0.0
C354 C 0.80416 0.68895 0.22399 0.0
Zn355 Zn 0.78062 0.75024 0.27247 0.0
C356 C 0.78269 0.79476 0.20869 0.0
O357 O 0.79852 0.78527 0.23691 0.0
C358 C 0.73462 0.70192 0.29955 0.0
O359 O 0.7452 0.79715 0.29459 0.0
O360 O 0.70093 0.79274 0.25927 0.0
N361 N 0.82286 0.7557 0.30357 0.0
C362 C 0.8239 0.76903 0.33491 0.0
C363 C 0.87832 0.75834 0.3166 0.0
N364 N 0.85676 0.74878 0.29237 0.0
N365 N 0.85838 0.7713 0.34356 0.0
C366 C 0.69291 0.72644 0.174 0.0
C367 C 0.63881 0.73568 0.19293 0.0
N368 N 0.69379 0.74097 0.20488 0.0
N369 N 0.66007 0.74702 0.21644 0.0
N370 N 0.65877 0.7224 0.16607 0.0
H371 H 0.74398 0.73678 0.15603 0.0
H372 H 0.7155 0.72149 0.12428 0.0
H373 H 0.73987 0.68923 0.1551 0.0
C374 C 0.7249 0.71821 0.15097 0.0
C375 C 0.79161 0.77797 0.35756 0.0
H376 H 0.77164 0.76061 0.35174 0.0
H377 H 0.77779 0.80739 0.3538 0.0
H378 H 0.80048 0.77367 0.38433 0.0
O379 O 0.76251 0.71465 0.30752 0.0
O380 O 0.71912 0.71052 0.27103 0.0
C381 C 0.71236 0.80863 0.2842 0.0
O382 O 0.77159 0.70107 0.21326 0.0
O383 O 0.81544 0.70393 0.24955 0.0
Zn384 Zn 0.72231 0.25487 0.77219 0.0
O385 O 0.75464 0.20395 0.79065 0.0
C386 C 0.77182 0.29535 0.8055 0.0
Zn387 Zn 0.76799 0.26009 0.73819 0.0
C388 C 0.78702 0.19194 0.78049 0.0
O389 O 0.79986 0.21024 0.75811 0.0
C390 C 0.7036 0.32301 0.7295 0.0
O391 O 0.74842 0.23053 0.69957 0.0
O392 O 0.70238 0.22679 0.73223 0.0
N393 N 0.81141 0.26753 0.71023 0.0
C394 C 0.81331 0.28537 0.68073 0.0
C395 C 0.86716 0.2719 0.70193 0.0
N396 N 0.84498 0.25889 0.72318 0.0
N397 N 0.84795 0.28891 0.67515 0.0
C398 C 0.67761 0.23112 0.83123 0.0
C399 C 0.62298 0.24691 0.81212 0.0
N400 N 0.6791 0.24771 0.80099 0.0
N401 N 0.64507 0.25768 0.78929 0.0
N402 N 0.64273 0.22996 0.83864 0.0
H403 H 0.7209 0.18799 0.84997 0.0
H404 H 0.70168 0.22125 0.8809 0.0
H405 H 0.73192 0.23294 0.84938 0.0
C406 C 0.70993 0.21782 0.85421 0.0
C407 C 0.78173 0.29742 0.65666 0.0
H408 H 0.7616 0.27955 0.65925 0.0
H409 H 0.79146 0.29658 0.63036 0.0
H410 H 0.7678 0.32624 0.66209 0.0
O411 O 0.73563 0.31004 0.71901 0.0
O412 O 0.69065 0.30571 0.75263 0.0
C413 C 0.71847 0.22035 0.70425 0.0
O414 O 0.74298 0.28355 0.81141 0.0
O415 O 0.78688 0.28957 0.77707 0.0
Zn416 Zn 0.76334 0.79499 0.76417 0.0
O417 O 0.7966 0.77011 0.80452 0.0
C418 C 0.7998 0.7412 0.7166 0.0
Zn419 Zn 0.73309 0.74957 0.76165 0.0
C420 C 0.79239 0.73846 0.81432 0.0
O421 O 0.76812 0.72409 0.80036 0.0
C422 C 0.70498 0.80503 0.71073 0.0
O423 O 0.69328 0.77157 0.79772 0.0
O424 O 0.72133 0.8179 0.79796 0.0
N425 N 0.71362 0.7027 0.75684 0.0
C426 C 0.68018 0.6952 0.76007 0.0
C427 C 0.71741 0.64417 0.75085 0.0
N428 N 0.73662 0.67104 0.75069 0.0
N429 N 0.68182 0.65844 0.75666 0.0
C430 C 0.81406 0.85318 0.77005 0.0
C431 C 0.77279 0.90172 0.7778 0.0
N432 N 0.78156 0.84289 0.76982 0.0
N433 N 0.75615 0.8731 0.77508 0.0
N434 N 0.80926 0.89025 0.77488 0.0
H435 H 0.84672 0.79844 0.76066 0.0
H436 H 0.86696 0.82581 0.78858 0.0
H437 H 0.8649 0.83669 0.74421 0.0
C438 C 0.85008 0.82693 0.76531 0.0
C439 C 0.64594 0.72424 0.76465 0.0
H440 H 0.64748 0.74994 0.75058 0.0
H441 H 0.64291 0.73125 0.79167 0.0
H442 H 0.62154 0.7142 0.75585 0.0
O443 O 0.69876 0.77516 0.72294 0.0
O444 O 0.73023 0.81911 0.72328 0.0
C445 C 0.69555 0.80337 0.80816 0.0
O446 O 0.80454 0.77132 0.72933 0.0
O447 O 0.7728 0.72796 0.72584 0.0
Zn448 Zn 0.51611 0.52871 0.49973 0.0
O449 O 0.5539 0.50415 0.53819 0.0
C450 C 0.53729 0.46206 0.45663 0.0
Zn451 Zn 0.48136 0.48693 0.50698 0.0
C452 C 0.54708 0.47599 0.55356 0.0
O453 O 0.51923 0.46353 0.54485 0.0
C454 C 0.45008 0.53971 0.45335 0.0
O455 O 0.45277 0.52234 0.54295 0.0
O456 O 0.48644 0.56367 0.53566 0.0
N457 N 0.45158 0.44768 0.51774 0.0
C458 C 0.41787 0.45043 0.53042 0.0
C459 C 0.4429 0.39297 0.5292 0.0
N460 N 0.46695 0.41191 0.51676 0.0
N461 N 0.41188 0.41648 0.53816 0.0
C462 C 0.57838 0.56753 0.47562 0.0
C463 C 0.55071 0.62421 0.47684 0.0
N464 N 0.54534 0.56862 0.4893 0.0
N465 N 0.5285 0.60396 0.49047 0.0
N466 N 0.58232 0.60208 0.46736 0.0
H467 H 0.60205 0.50975 0.48516 0.0
H468 H 0.63381 0.5366 0.47057 0.0
H469 H 0.60123 0.52483 0.44155 0.0
C470 C 0.60543 0.53258 0.46794 0.0
C471 C 0.39019 0.48611 0.53343 0.0
H472 H 0.39412 0.50617 0.51357 0.0
H473 H 0.39345 0.49845 0.55827 0.0
H474 H 0.36202 0.48115 0.5314 0.0
O475 O 0.44379 0.51125 0.46856 0.0
O476 O 0.47783 0.55241 0.46193 0.0
C477 C 0.46065 0.55302 0.55058 0.0
O478 O 0.5447 0.49316 0.46357 0.0
O479 O 0.51136 0.45161 0.47155 0.0
Zn480 Zn 0.0252 0.52237 0.00215 0.0
O481 O -0.00317 0.56756 0.97379 0.0
C482 C 0.96889 0.53512 0.05667 0.0
Zn483 Zn 0.98373 0.48753 -0.00397 0.0
C484 C 0.96557 0.56406 0.96339 0.0
O485 O 0.95499 0.53406 0.96891 0.0
C486 C 0.04312 0.44667 0.03584 0.0
O487 O 0.01077 0.46461 0.9513 0.0
O488 O 0.05187 0.49837 0.95811 0.0
N489 N 0.94097 0.46241 0.98724 0.0
C490 C 0.93826 0.43045 0.9724 0.0
C491 C 0.8841 0.46015 0.98194 0.0
N492 N 0.90729 0.48062 0.99342 0.0
N493 N 0.90273 0.42853 0.96838 0.0
C494 C 0.07079 0.57775 0.02903 0.0
C495 C 0.12461 0.55201 0.01426 0.0
N496 N 0.06793 0.54792 0.01084 0.0
N497 N 0.10142 0.5322 0.00135 0.0
N498 N 0.10599 0.58075 0.03176 0.0
H499 H 0.01408 0.60588 0.02849 0.0
H500 H 0.04546 0.63235 0.04561 0.0
H501 H 0.03498 0.59467 0.0697 0.0
C502 C 0.03931 0.6043 0.04388 0.0
C503 C 0.97046 0.40064 0.96347 0.0
H504 H 0.97865 0.40559 0.93747 0.0
H505 H 0.96341 0.37295 0.96489 0.0
H506 H 0.99409 0.40099 0.9804 0.0
O507 O 0.01276 0.4422 0.0239 0.0
O508 O 0.0532 0.47694 0.03047 0.0
C509 C 0.03986 0.474 0.94163 0.0
O510 O -0.00271 0.54554 0.04656 0.0
O511 O 0.95752 0.51025 0.04043 0.0
H512 H 0.18675 0.16067 0.78917 0.0
H513 H 0.25492 0.19561 0.86554 0.0
H514 H 0.15723 0.13046 0.83201 0.0
H515 H 0.22543 0.16476 0.9087 0.0
H516 H 0.12086 0.15709 0.97172 0.0
H517 H 0.16346 0.17726 0.93312 0.0
H518 H 0.16506 0.0801 0.87311 0.0
H519 H 0.12154 0.06106 0.9108 0.0
C520 C 0.19591 0.16134 0.81508 0.0
C521 C 0.22305 0.18074 0.82395 0.0
C522 C 0.17912 0.14377 0.83968 0.0
C523 C 0.1889 0.14525 0.87383 0.0
C524 C 0.21707 0.16341 0.88263 0.0
C525 C 0.23413 0.18084 0.8579 0.0
C526 C 0.13101 0.13978 0.95063 0.0
C527 C 0.11842 0.10717 0.94469 0.0
C528 C 0.15554 0.15115 0.92864 0.0
C529 C 0.16765 0.13029 0.89999 0.0
C530 C 0.15613 0.09689 0.89484 0.0
C531 C 0.13165 0.08558 0.91681 0.0
H532 H 0.12008 0.9637 0.05677 0.0
H533 H 0.02424 0.96616 0.11639 0.0
H534 H 0.15851 0.93048 0.10204 0.0
H535 H 0.06244 0.93612 0.16302 0.0
H536 H 0.13092 0.83551 0.21707 0.0
H537 H 0.09316 0.8787 0.17839 0.0
H538 H 0.18636 0.92581 0.15401 0.0
H539 H 0.22478 0.88013 0.19128 0.0
C540 C 0.10746 0.95787 0.08003 0.0
C541 C 0.06936 0.9668 0.08311 0.0
C542 C 0.12945 0.93912 0.1062 0.0
C543 C 0.11376 0.92994 0.13636 0.0
C544 C 0.07561 0.94135 0.13993 0.0
C545 C 0.05363 0.95889 0.11336 0.0
C546 C 0.14322 0.85549 0.20384 0.0
C547 C 0.1808 0.85432 0.20699 0.0
C548 C 0.12144 0.88062 0.18166 0.0
C549 C 0.13648 0.906 0.16265 0.0
C550 C 0.17384 0.90619 0.16743 0.0
C551 C 0.19587 0.88027 0.18904 0.0
H552 H 0.43216 0.89449 0.40562 0.0
H553 H 0.34371 0.91335 0.47603 0.0
H554 H 0.39649 0.8654 0.36751 0.0
H555 H 0.30882 0.88038 0.43931 0.0
H556 H 0.24183 0.85141 0.34875 0.0
H557 H 0.27478 0.88267 0.389 0.0
H558 H 0.37682 0.81177 0.35945 0.0
H559 H 0.34418 0.78303 0.31804 0.0
C560 C 0.40479 0.8929 0.41276 0.0
C561 C 0.39017 0.90766 0.4432 0.0
C562 C 0.38454 0.87515 0.39126 0.0
C563 C 0.34959 0.87023 0.40019 0.0
C564 C 0.33529 0.88417 0.43118 0.0
C565 C 0.35537 0.90273 0.45241 0.0
C566 C 0.27131 0.84277 0.35105 0.0
C567 C 0.29062 0.8154 0.33001 0.0
C568 C 0.29024 0.86044 0.37421 0.0
C569 C 0.3287 0.85032 0.37721 0.0
C570 C 0.34747 0.82147 0.35714 0.0
C571 C 0.32874 0.80468 0.33352 0.0
H572 H 0.37703 0.18078 0.72012 0.0
H573 H 0.28597 0.14462 0.67361 0.0
H574 H 0.41899 0.14059 0.683 0.0
H575 H 0.32766 0.10538 0.63587 0.0
H576 H 0.41463 0.01817 0.58657 0.0
H577 H 0.37632 0.05092 0.63067 0.0
H578 H 0.43379 0.14048 0.62386 0.0
H579 H 0.47193 0.10782 0.58014 0.0
C580 C 0.36595 0.16402 0.70219 0.0
C581 C 0.328 0.16637 0.69957 0.0
C582 C 0.39001 0.1412 0.68067 0.0
C583 C 0.37677 0.11998 0.65608 0.0
C584 C 0.33896 0.12112 0.65454 0.0
C585 C 0.31493 0.14399 0.67599 0.0
C586 C 0.41934 0.0447 0.59471 0.0
C587 C 0.44674 0.06013 0.57985 0.0
C588 C 0.39722 0.06358 0.61992 0.0
C589 C 0.40189 0.09842 0.63096 0.0
C590 C 0.42976 0.11345 0.61653 0.0
C591 C 0.45177 0.09462 0.59132 0.0
H592 H 0.03614 0.87564 0.5718 0.0
H593 H 0.12788 0.92461 0.54866 0.0
H594 H 0.07557 0.82866 0.6069 0.0
H595 H 0.16687 0.88022 0.58609 0.0
H596 H 0.23653 0.79231 0.64734 0.0
H597 H 0.19887 0.82266 0.60038 0.0
H598 H 0.10178 0.82365 0.65894 0.0
H599 H 0.13965 0.79021 0.70414 0.0
C600 C 0.06489 0.87618 0.57439 0.0
C601 C 0.07921 0.90352 0.55789 0.0
C602 C 0.08746 0.84956 0.59473 0.0
C603 C 0.12447 0.85076 0.59999 0.0
C604 C 0.13883 0.87769 0.58237 0.0
C605 C 0.11648 0.90346 0.56109 0.0
C606 C 0.20703 0.79847 0.64958 0.0
C607 C 0.19073 0.78932 0.67908 0.0
C608 C 0.1854 0.81618 0.6229 0.0
C609 C 0.14713 0.82641 0.62584 0.0
C610 C 0.13098 0.81583 0.65521 0.0
C611 C 0.15261 0.79692 0.68136 0.0
H612 H 0.3796 0.85513 0.80191 0.0
H613 H 0.30246 0.93777 0.74569 0.0
H614 H 0.40145 0.90357 0.83176 0.0
H615 H 0.32485 0.9871 0.77501 0.0
H616 H 0.3347 0.04644 0.87998 0.0
H617 H 0.31955 0.00935 0.83343 0.0
H618 H 0.43311 0.95347 0.82799 0.0
H619 H 0.44751 0.98823 0.87557 0.0
C620 C 0.36779 0.88387 0.79572 0.0
C621 C 0.33905 0.89298 0.77217 0.0
C622 C 0.38052 0.91168 0.81241 0.0
C623 C 0.36487 0.94929 0.80574 0.0
C624 C 0.33724 0.9584 0.78084 0.0
C625 C 0.32459 0.93036 0.76398 0.0
C626 C 0.35648 0.02704 0.86802 0.0
C627 C 0.39229 0.02072 0.88128 0.0
C628 C 0.34791 0.00591 0.84129 0.0
C629 C 0.3751 0.97808 0.82737 0.0
C630 C 0.41147 0.97432 0.83851 0.0
C631 C 0.41989 0.99495 0.86546 0.0
H632 H 0.46343 0.0627 0.1273 0.0
H633 H 0.4012 0.1266 0.04617 0.0
H634 H 0.42618 0.10253 0.16826 0.0
H635 H 0.36462 0.16691 0.08726 0.0
H636 H 0.33397 0.24986 0.1767 0.0
H637 H 0.37683 0.21313 0.13745 0.0
H638 H 0.35353 0.1125 0.17941 0.0
H639 H 0.31008 0.14897 0.21788 0.0
C640 C 0.44216 0.08553 0.11822 0.0
C641 C 0.4351 0.09145 0.08353 0.0
C642 C 0.42084 0.1082 0.14165 0.0
C643 C 0.39267 0.13773 0.13082 0.0
C644 C 0.38639 0.14445 0.09618 0.0
C645 C 0.40716 0.12128 0.07274 0.0
C646 C 0.33824 0.21989 0.17766 0.0
C647 C 0.3186 0.20225 0.20021 0.0
C648 C 0.3626 0.19897 0.15517 0.0
C649 C 0.3684 0.16007 0.15553 0.0
C650 C 0.34966 0.14244 0.17881 0.0
C651 C 0.32472 0.16332 0.20067 0.0
H652 H 0.02437 0.04323 0.36236 0.0
H653 H 0.12712 0.96619 0.34769 0.0
H654 H 0.03442 0.07798 0.31321 0.0
H655 H 0.13904 0.00358 0.29994 0.0
H656 H 0.16586 0.08255 0.22784 0.0
H657 H 0.12983 0.03803 0.2464 0.0
H658 H 0.07768 0.11674 0.31984 0.0
H659 H 0.11367 0.1599 0.3019 0.0
C660 C 0.04823 0.03231 0.34778 0.0
C661 C 0.07491 0.00153 0.35904 0.0
C662 C 0.0543 0.05287 0.31969 0.0
C663 C 0.08793 0.04425 0.30331 0.0
C664 C 0.11277 0.01107 0.312 0.0
C665 C 0.10619 0.98983 0.33961 0.0
C666 C 0.1456 0.09056 0.24709 0.0
C667 C 0.14231 0.12478 0.26324 0.0
C668 C 0.12506 0.06518 0.25768 0.0
C669 C 0.10099 0.07373 0.28464 0.0
C670 C 0.09533 0.10938 0.29851 0.0
C671 C 0.11597 0.13448 0.28811 0.0
H672 H 0.87874 0.21537 0.20395 0.0
H673 H 0.78872 0.16394 0.17837 0.0
H674 H 0.91582 0.17899 0.16093 0.0
H675 H 0.82471 0.12919 0.13454 0.0
H676 H 0.90842 0.0418 0.08632 0.0
H677 H 0.874 0.0791 0.12922 0.0
H678 H 0.92347 0.17079 0.10171 0.0
H679 H 0.95992 0.13212 0.05962 0.0
C680 C 0.86691 0.1964 0.189 0.0
C681 C 0.83117 0.19194 0.19474 0.0
C682 C 0.88797 0.17584 0.1642 0.0
C683 C 0.87334 0.15097 0.14443 0.0
C684 C 0.83722 0.14731 0.14987 0.0
C685 C 0.81652 0.16727 0.17496 0.0
C686 C 0.9121 0.06984 0.08936 0.0
C687 C 0.93689 0.08399 0.06959 0.0
C688 C 0.89206 0.09143 0.11385 0.0
C689 C 0.89565 0.12811 0.11873 0.0
C690 C 0.92038 0.14248 0.09885 0.0
C691 C 0.94102 0.12048 0.07459 0.0
H692 H 0.99343 0.61736 0.4255 0.0
H693 H 0.09047 0.58402 0.48821 0.0
H694 H 0.0224 0.66091 0.39522 0.0
H695 H 0.11928 0.62787 0.45798 0.0
H696 H 0.07427 0.75651 0.36418 0.0
H697 H 0.04533 0.71905 0.4023 0.0
H698 H 0.14206 0.63111 0.39977 0.0
H699 H 0.17023 0.66801 0.36142 0.0
C700 C 0.02086 0.61947 0.43296 0.0
C701 C 0.03976 0.59703 0.4591 0.0
C702 C 0.0373 0.64467 0.4158 0.0
C703 C 0.07307 0.64781 0.42428 0.0
C704 C 0.09177 0.62582 0.45076 0.0
C705 C 0.07524 0.60077 0.46807 0.0
C706 C 0.08943 0.72943 0.37238 0.0
C707 C 0.12488 0.71565 0.36064 0.0
C708 C 0.0729 0.70796 0.39398 0.0
C709 C 0.09155 0.67224 0.40414 0.0
C710 C 0.12733 0.65886 0.39301 0.0
C711 C 0.14369 0.6802 0.37128 0.0
H712 H 0.60396 0.97239 0.57185 0.0
H713 H 0.549 0.88415 0.5467 0.0
H714 H 0.64277 0.93194 0.61181 0.0
H715 H 0.58938 0.84264 0.58618 0.0
H716 H 0.63556 0.80131 0.69244 0.0
H717 H 0.59905 0.83481 0.64601 0.0
H718 H 0.69164 0.87991 0.61597 0.0
H719 H 0.72718 0.84813 0.66335 0.0
C720 C 0.60058 0.94406 0.57448 0.0
C721 C 0.57342 0.93139 0.55624 0.0
C722 C 0.62309 0.92073 0.59724 0.0
C723 C 0.61937 0.88398 0.60195 0.0
C724 C 0.59262 0.87097 0.58326 0.0
C725 C 0.56966 0.8946 0.56063 0.0
C726 C 0.64796 0.81834 0.67574 0.0
C727 C 0.68375 0.82291 0.68166 0.0
C728 C 0.62726 0.8372 0.64902 0.0
C729 C 0.64237 0.86032 0.62759 0.0
C730 C 0.67893 0.86308 0.63259 0.0
C731 C 0.69929 0.84491 0.65964 0.0
H732 H 0.40524 0.43171 0.99141 0.0
H733 H 0.49615 0.40638 0.92348 0.0
H734 H 0.37577 0.38755 0.96191 0.0
H735 H 0.46692 0.36278 0.89438 0.0
H736 H 0.32153 0.34674 0.86427 0.0
H737 H 0.3482 0.38386 0.90385 0.0
H738 H 0.44976 0.30221 0.90362 0.0
H739 H 0.42265 0.26478 0.86427 0.0
C740 C 0.41896 0.41669 0.97034 0.0
C741 C 0.45295 0.42267 0.95972 0.0
C742 C 0.4021 0.39149 0.95347 0.0
C743 C 0.4192 0.37149 0.92603 0.0
C744 C 0.45334 0.37724 0.91579 0.0
C745 C 0.46993 0.40256 0.93233 0.0
C746 C 0.34896 0.33591 0.87377 0.0
C747 C 0.36982 0.30246 0.86169 0.0
C748 C 0.36437 0.35736 0.89626 0.0
C749 C 0.4011 0.34604 0.90672 0.0
C750 C 0.42147 0.31182 0.89573 0.0
C751 C 0.406 0.29034 0.87337 0.0
H752 H 0.82472 0.83624 0.37113 0.0
H753 H 0.92272 0.75007 0.37659 0.0
H754 H 0.85105 0.87247 0.4115 0.0
H755 H 0.94974 0.78691 0.41668 0.0
H756 H -0.00203 0.89196 0.43443 0.0
H757 H 0.96973 0.84656 0.40673 0.0
H758 H 0.8758 0.87604 0.47058 0.0
H759 H 0.90419 0.92186 0.49857 0.0
C760 C 0.85125 0.82428 0.38206 0.0
C761 C 0.87136 0.78988 0.3713 0.0
C762 C 0.86651 0.84524 0.40501 0.0
C763 C 0.90243 0.83253 0.4172 0.0
C764 C 0.92203 0.79746 0.40751 0.0
C765 C 0.90663 0.77637 0.38473 0.0
C766 C 0.97141 0.88864 0.44281 0.0
C767 C 0.95317 0.91069 0.46854 0.0
C768 C 0.95541 0.86233 0.42714 0.0
C769 C 0.92067 0.85764 0.43662 0.0
C770 C 0.90261 0.87918 0.46276 0.0
C771 C 0.91884 0.90533 0.47876 0.0
H772 H 0.42537 0.52846 0.6023 0.0
H773 H 0.45146 0.62758 0.55944 0.0
H774 H 0.39122 0.56492 0.6464 0.0
H775 H 0.41588 0.66459 0.60289 0.0
H776 H 0.37314 0.71655 0.70147 0.0
H777 H 0.41314 0.67845 0.66155 0.0
H778 H 0.33513 0.60781 0.65158 0.0
H779 H 0.29634 0.64477 0.69228 0.0
C780 C 0.42339 0.55818 0.60214 0.0
C781 C 0.44056 0.57537 0.5773 0.0
C782 C 0.4038 0.57909 0.62737 0.0
C783 C 0.40048 0.61772 0.62796 0.0
C784 C 0.41826 0.63483 0.60337 0.0
C785 C 0.43839 0.61375 0.57838 0.0
C786 C 0.36478 0.69267 0.69089 0.0
C787 C 0.33162 0.68355 0.70002 0.0
C788 C 0.38755 0.67101 0.66789 0.0
C789 C 0.37733 0.64009 0.65337 0.0
C790 C 0.34423 0.63098 0.66275 0.0
C791 C 0.3218 0.65231 0.68599 0.0
H792 H 0.49572 0.12414 0.94303 0.0
H793 H 0.59752 0.07955 -0.00411 0.0
H794 H 0.52513 0.16605 0.9114 0.0
H795 H 0.62697 0.12222 0.96444 0.0
H796 H 0.67164 0.16128 0.86378 0.0
H797 H 0.64474 0.12667 0.90533 0.0
H798 H 0.55339 0.21969 0.91444 0.0
H799 H 0.58089 0.25449 0.87284 0.0
C800 C 0.52432 0.12355 0.94818 0.0
C801 C 0.54439 0.09816 0.9717 0.0
C802 C 0.54112 0.14789 0.93024 0.0
C803 C 0.57844 0.14742 0.93529 0.0
C804 C 0.59825 0.12297 0.95971 0.0
C805 C 0.58135 0.09868 0.97785 0.0
C806 C 0.6466 0.17489 0.87559 0.0
C807 C 0.6288 0.21096 0.8657 0.0
C808 C 0.63099 0.15494 0.89929 0.0
C809 C 0.59696 0.17043 0.91333 0.0
C810 C 0.57952 0.20685 0.90394 0.0
C811 C 0.59523 0.22683 0.88027 0.0
H812 H 0.10407 0.45277 0.07053 0.0
H813 H 0.03586 0.37508 0.04712 0.0
H814 H 0.14257 0.4068 0.10608 0.0
H815 H 0.07574 0.32792 0.08241 0.0
H816 H 0.12525 0.28418 0.18912 0.0
H817 H 0.08947 0.31747 0.14211 0.0
H818 H 0.18649 0.35011 0.10547 0.0
H819 H 0.22141 0.31882 0.1535 0.0
C820 C 0.09759 0.42559 0.0726 0.0
C821 C 0.06685 0.41754 0.05619 0.0
C822 C 0.11998 0.39901 0.09273 0.0
C823 C 0.11248 0.36354 0.09669 0.0
C824 C 0.08205 0.35512 0.07985 0.0
C825 C 0.05931 0.38202 0.05972 0.0
C826 C 0.13883 0.29811 0.17064 0.0
C827 C 0.17559 0.30003 0.1751 0.0
C828 C 0.11852 0.31684 0.14362 0.0
C829 C 0.13507 0.33703 0.12055 0.0
C830 C 0.17279 0.33572 0.12346 0.0
C831 C 0.19276 0.31786 0.15083 0.0
H832 H 0.63998 0.5309 0.90708 0.0
H833 H 0.58056 0.48029 0.83394 0.0
H834 H 0.65128 0.57479 0.86475 0.0
H835 H 0.59122 0.52552 0.79091 0.0
H836 H 0.6759 0.59228 0.73192 0.0
H837 H 0.64978 0.54589 0.76195 0.0
H838 H 0.60495 0.62791 0.83512 0.0
H839 H 0.63265 0.67289 0.80701 0.0
C840 C 0.62987 0.52889 0.88166 0.0
C841 C 0.60921 0.50258 0.87369 0.0
C842 C 0.63577 0.55433 0.8576 0.0
C843 C 0.62106 0.55415 0.82497 0.0
C844 C 0.60223 0.52645 0.81615 0.0
C845 C 0.59619 0.50077 0.84056 0.0
C846 C 0.65927 0.60064 0.75373 0.0
C847 C 0.65644 0.63635 0.76698 0.0
C848 C 0.64424 0.57419 0.77075 0.0
C849 C 0.62608 0.58337 0.80107 0.0
C850 C 0.61924 0.62021 0.81187 0.0
C851 C 0.63469 0.64633 0.7953 0.0
H852 H 0.65534 0.26554 0.18496 0.0
H853 H 0.72979 0.33843 0.167 0.0
H854 H 0.6156 0.29631 0.13926 0.0
H855 H 0.68997 0.36915 0.12159 0.0
H856 H 0.53552 0.40445 0.09871 0.0
H857 H 0.57698 0.36091 0.13506 0.0
H858 H 0.66402 0.35916 0.06442 0.0
H859 H 0.62245 0.40311 0.02796 0.0
C860 C 0.6634 0.28784 0.17106 0.0
C861 C 0.69544 0.29989 0.17975 0.0
C862 C 0.64067 0.3054 0.14498 0.0
C863 C 0.64978 0.33504 0.12703 0.0
C864 C 0.68256 0.34604 0.1348 0.0
C865 C 0.70515 0.32869 0.161 0.0
C866 C 0.56328 0.39447 0.09068 0.0
C867 C 0.57581 0.40762 0.06076 0.0
C868 C 0.58696 0.36927 0.11136 0.0
C869 C 0.62368 0.35692 0.10256 0.0
C870 C 0.63585 0.3686 0.07185 0.0
C871 C 0.61204 0.39363 0.051 0.0
H872 H 0.83328 0.5024 0.42534 0.0
H873 H 0.88339 0.56414 0.354 0.0
H874 H 0.81002 0.4705 0.37991 0.0
H875 H 0.8601 0.5318 0.30747 0.0
H876 H 0.87036 0.41325 0.25629 0.0
H877 H 0.87701 0.46745 0.28848 0.0
H878 H 0.77128 0.47151 0.33238 0.0
H879 H 0.76658 0.41581 0.30342 0.0
C880 C 0.83836 0.50982 0.39967 0.0
C881 C 0.86064 0.53499 0.39303 0.0
C882 C 0.82491 0.4917 0.37349 0.0
C883 C 0.83331 0.49847 0.33992 0.0
C884 C 0.85359 0.52566 0.3331 0.0
C885 C 0.86699 0.54401 0.35956 0.0
C886 C 0.84819 0.42641 0.27218 0.0
C887 C 0.81783 0.41021 0.27685 0.0
C888 C 0.85179 0.45768 0.29038 0.0
C889 C 0.82488 0.47344 0.31341 0.0
C890 C 0.79277 0.45965 0.31525 0.0
C891 C 0.78967 0.42792 0.29786 0.0
H892 H 0.56404 0.63713 0.40847 0.0
H893 H 0.65616 0.59198 0.47351 0.0
H894 H 0.6046 0.65674 0.36798 0.0
H895 H 0.69763 0.61023 0.43221 0.0
H896 H 0.7481 0.6938 0.36748 0.0
H897 H 0.71383 0.66579 0.40861 0.0
H898 H 0.65013 0.63203 0.32792 0.0
H899 H 0.68348 0.66095 0.28707 0.0
C900 C 0.59318 0.63116 0.41383 0.0
C901 C 0.60712 0.6127 0.44376 0.0
C902 C 0.61651 0.64196 0.39052 0.0
C903 C 0.65451 0.63457 0.39655 0.0
C904 C 0.66851 0.6163 0.42677 0.0
C905 C 0.64495 0.6055 0.45021 0.0
C906 C 0.72715 0.67989 0.35854 0.0
C907 C 0.71815 0.68004 0.32406 0.0
C908 C 0.70757 0.66372 0.38211 0.0
C909 C 0.67878 0.64721 0.37162 0.0
C910 C 0.67148 0.64536 0.33695 0.0
C911 C 0.69076 0.66174 0.31348 0.0
H912 H 0.81571 0.34372 0.795 0.0
H913 H 0.7665 0.29072 0.87408 0.0
H914 H 0.84737 0.37328 0.8366 0.0
H915 H 0.79986 0.31903 0.91625 0.0
H916 H 0.83871 0.4088 0.98017 0.0
H917 H 0.80544 0.37565 0.94215 0.0
H918 H 0.89664 0.35863 0.87428 0.0
H919 H 0.92775 0.39444 0.91034 0.0
C920 C 0.81186 0.33825 0.8214 0.0
C921 C 0.78881 0.31483 0.83134 0.0
C922 C 0.83034 0.35489 0.84532 0.0
C923 C 0.82689 0.34793 0.87987 0.0
C924 C 0.80308 0.3251 0.88989 0.0
C925 C 0.784 0.30887 0.86579 0.0
C926 C 0.85168 0.3975 0.95726 0.0
C927 C 0.8863 0.40359 0.94879 0.0
C928 C 0.83274 0.37834 0.93556 0.0
C929 C 0.84815 0.36474 0.90492 0.0
C930 C 0.88354 0.36931 0.89733 0.0
C931 C 0.90205 0.38903 0.91864 0.0
H932 H 0.75156 0.83416 0.15269 0.0
H933 H 0.8535 0.80176 0.20858 0.0
H934 H 0.78245 0.86528 0.11048 0.0
H935 H 0.88413 0.83185 0.16614 0.0
H936 H 0.92908 0.84604 0.05835 0.0
H937 H 0.89507 0.81725 0.09974 0.0
H938 H 0.82 0.92238 0.11223 0.0
H939 H 0.85476 0.95116 0.07136 0.0
C940 C 0.78041 0.83382 0.15603 0.0
C941 C 0.80005 0.81563 0.184 0.0
C942 C 0.798 0.8516 0.13196 0.0
C943 C 0.83564 0.85064 0.13508 0.0
C944 C 0.85514 0.83271 0.1631 0.0
C945 C 0.83749 0.81572 0.18746 0.0
C946 C 0.90524 0.86274 0.06998 0.0
C947 C 0.89448 0.90064 0.06216 0.0
C948 C 0.88591 0.84645 0.09357 0.0
C949 C 0.85501 0.8677 0.10908 0.0
C950 C 0.84365 0.90546 0.10049 0.0
C951 C 0.86351 0.9219 0.07742 0.0
H952 H 0.76847 0.14511 0.82792 0.0
H953 H 0.86015 0.1656 0.77144 0.0
H954 H 0.81009 0.10236 0.8649 0.0
H955 H 0.9017 0.12143 0.8074 0.0
H956 H 0.95999 0.0994 0.91059 0.0
H957 H 0.92054 0.12836 0.86467 0.0
H958 H 0.85535 0.04533 0.87455 0.0
H959 H 0.8947 0.01654 0.92146 0.0
C960 C 0.79743 0.14003 0.82304 0.0
C961 C 0.81106 0.15979 0.79754 0.0
C962 C 0.82132 0.11511 0.84399 0.0
C963 C 0.8593 0.10917 0.83958 0.0
C964 C 0.87262 0.12622 0.81201 0.0
C965 C 0.84876 0.15134 0.79125 0.0
C966 C 0.9374 0.08709 0.90294 0.0
C967 C 0.93031 0.05583 0.91989 0.0
C968 C 0.91497 0.1035 0.87628 0.0
C969 C 0.8849 0.08903 0.86575 0.0
C970 C 0.87817 0.05726 0.88222 0.0
C971 C 0.90071 0.04077 0.90904 0.0
H972 H 0.64896 0.20921 0.70128 0.0
H973 H 0.74922 0.19228 0.64531 0.0
H974 H 0.61997 0.18159 0.65619 0.0
H975 H 0.72055 0.1631 0.60052 0.0
H976 H 0.64674 0.14147 0.51293 0.0
H977 H 0.67522 0.17391 0.55599 0.0
H978 H 0.62194 0.12239 0.63344 0.0
H979 H 0.59327 0.09129 0.59047 0.0
C980 C 0.66496 0.19918 0.67948 0.0
C981 C 0.70149 0.20262 0.67699 0.0
C982 C 0.64836 0.18322 0.65361 0.0
C983 C 0.66799 0.16982 0.62479 0.0
C984 C 0.7045 0.17351 0.62217 0.0
C985 C 0.72103 0.18992 0.64796 0.0
C986 C 0.64101 0.13772 0.53923 0.0
C987 C 0.61712 0.11497 0.54854 0.0
C988 C 0.65742 0.15591 0.56386 0.0
C989 C 0.65056 0.15108 0.59822 0.0
C990 C 0.62704 0.12768 0.60728 0.0
C991 C 0.6105 0.1099 0.58272 0.0
H992 H 0.53184 0.91777 0.40513 0.0
H993 H 0.60528 0.99342 0.41002 0.0
H994 H 0.57176 0.8801 0.36511 0.0
H995 H 0.64489 0.95614 0.36932 0.0
H996 H 0.63798 0.83092 0.27602 0.0
H997 H 0.59581 0.87556 0.3093 0.0
H998 H 0.68691 0.89735 0.36775 0.0
H999 H 0.729 0.8538 0.33373 0.0
C1000 C 0.55617 0.92679 0.39723 0.0
C1001 C 0.56532 0.95864 0.41099 0.0
C1002 C 0.57909 0.90518 0.37409 0.0
C1003 C 0.61181 0.91482 0.36399 0.0
C1004 C 0.62029 0.94743 0.37688 0.0
C1005 C 0.59738 0.96902 0.40007 0.0
C1006 C 0.64908 0.84557 0.2957 0.0
C1007 C 0.68697 0.83832 0.30242 0.0
C1008 C 0.62481 0.871 0.31501 0.0
C1009 C 0.63776 0.88995 0.34154 0.0
C1010 C 0.6758 0.8836 0.34743 0.0
C1011 C 0.70003 0.85822 0.32811 0.0
H1012 H 0.77939 0.20229 0.37757 0.0
H1013 H 0.87583 0.20512 0.3204 0.0
H1014 H 0.81699 0.16592 0.4217 0.0
H1015 H 0.91346 0.1658 0.36248 0.0
H1016 H 0.97922 0.10527 0.44667 0.0
H1017 H 0.94107 0.15498 0.41352 0.0
H1018 H 0.84708 0.10693 0.43265 0.0
H1019 H 0.88503 0.05966 0.46838 0.0
C1020 C 0.8088 0.19503 0.37467 0.0
C1021 C 0.82498 0.20628 0.34592 0.0
C1022 C 0.83038 0.17379 0.39967 0.0
C1023 C 0.86843 0.16212 0.39568 0.0
C1024 C 0.8845 0.1746 0.36708 0.0
C1025 C 0.86299 0.19697 0.34271 0.0
C1026 C 0.95021 0.10598 0.44406 0.0
C1027 C 0.93483 0.07891 0.45978 0.0
C1028 C 0.92833 0.1342 0.4248 0.0
C1029 C 0.89084 0.13501 0.41977 0.0
C1030 C 0.87553 0.108 0.43629 0.0
C1031 C 0.89725 0.08059 0.45656 0.0
H1032 H 0.65522 0.09391 0.29024 0.0
H1033 H 0.7276 0.10516 0.20916 0.0
H1034 H 0.6363 0.04305 0.26067 0.0
H1035 H 0.70898 0.05521 0.17966 0.0
H1036 H 0.66881 0.96967 0.12543 0.0
H1037 H 0.70125 0.99264 0.17188 0.0
H1038 H 0.59747 0.04934 0.21147 0.0
H1039 H 0.5657 0.02501 0.16606 0.0
C1040 C 0.66801 0.08453 0.26671 0.0
C1041 C 0.69308 0.10315 0.25216 0.0
C1042 C 0.65715 0.05564 0.24971 0.0
C1043 C 0.67082 0.04534 0.21761 0.0
C1044 C 0.69829 0.0619 0.20453 0.0
C1045 C 0.70918 0.0906 0.22157 0.0
C1046 C 0.65321 0.98631 0.14467 0.0
C1047 C 0.61503 0.99691 0.14175 0.0
C1048 C 0.67163 -0.00049 0.17113 0.0
C1049 C 0.65201 0.02334 0.19508 0.0
C1050 C 0.61355 0.03097 0.19364 0.0
C1051 C 0.59528 0.01771 0.16729 0.0
H1052 H 0.65483 0.77646 0.85563 0.0
H1053 H 0.67487 0.87799 0.81223 0.0
H1054 H 0.6123 0.813 0.89554 0.0
H1055 H 0.63182 0.91405 0.85108 0.0
H1056 H 0.52142 0.9611 0.90319 0.0
H1057 H 0.55772 0.91941 0.86305 0.0
H1058 H 0.6266 0.86422 0.94426 0.0
H1059 H 0.59109 0.90659 0.98452 0.0
C1060 C 0.64981 0.80646 0.85438 0.0
C1061 C 0.66825 0.82443 0.83105 0.0
C1062 C 0.62566 0.82725 0.87716 0.0
C1063 C 0.61887 0.8662 0.87613 0.0
C1064 C 0.63649 0.88405 0.85216 0.0
C1065 C 0.66122 0.86339 0.8301 0.0
C1066 C 0.54414 0.93999 0.91256 0.0
C1067 C 0.55367 0.93744 0.94697 0.0
C1068 C 0.5648 0.91613 0.88959 0.0
C1069 C 0.59474 0.88868 0.90072 0.0
C1070 C 0.6034 0.88503 0.93521 0.0
C1071 C 0.58326 0.90944 0.95812 0.0
H1072 H 0.96211 0.93877 0.6557 0.0
H1073 H 0.89934 0.04958 0.66993 0.0
H1074 H 0.93946 0.91869 0.70804 0.0
H1075 H 0.87708 0.02998 0.72332 0.0
H1076 H 0.79105 0.95683 0.74425 0.0
H1077 H 0.83188 0.99284 0.72175 0.0
H1078 H 0.92411 0.91684 0.76761 0.0
H1079 H 0.88236 0.8811 0.79149 0.0
C1080 C 0.94502 0.95929 0.67107 0.0
C1081 C 0.93204 0.99556 0.65883 0.0
C1082 C 0.93205 0.94786 0.70123 0.0
C1083 C 0.90577 0.97257 0.71948 0.0
C1084 C 0.89671 0.01013 0.70939 0.0
C1085 C 0.90935 0.0214 0.67896 0.0
C1086 C 0.8199 0.94821 0.75047 0.0
C1087 C 0.8336 0.91477 0.76801 0.0
C1088 C 0.84346 0.96921 0.73777 0.0
C1089 C 0.88145 0.95731 0.74227 0.0
C1090 C 0.89498 0.92616 0.76304 0.0
C1091 C 0.87114 0.90522 0.77612 0.0
H1092 H 0.14092 0.78402 0.82607 0.0
H1093 H 0.21524 0.85892 0.83103 0.0
H1094 H 0.09864 0.82479 0.86234 0.0
H1095 H 0.17378 0.89885 0.86822 0.0
H1096 H 0.07713 0.98149 0.9057 0.0
H1097 H 0.11587 0.94073 0.86712 0.0
H1098 H 0.09241 0.84527 0.91946 0.0
H1099 H 0.05253 0.88638 0.95748 0.0
C1100 C 0.14828 0.80908 0.83508 0.0
C1101 C 0.18126 0.81841 0.82567 0.0
C1102 C 0.12418 0.83231 0.85599 0.0
C1103 C 0.13282 0.86508 0.86809 0.0
C1104 C 0.16597 0.87418 0.85879 0.0
C1105 C 0.18984 0.8512 0.83763 0.0
C1106 C 0.08032 0.95179 0.90898 0.0
C1107 C 0.06223 0.937 0.93474 0.0
C1108 C 0.10258 0.92843 0.88695 0.0
C1109 C 0.10755 0.88976 0.89046 0.0
C1110 C 0.08885 0.87496 0.91589 0.0
C1111 C 0.06618 0.89843 0.93774 0.0
H1112 H 0.98763 0.42092 0.59343 0.0
H1113 H 0.88962 0.4554 0.53221 0.0
H1114 H 0.96029 0.37467 0.62155 0.0
H1115 H 0.86241 0.40887 0.56031 0.0
H1116 H 0.81448 0.35776 0.65324 0.0
H1117 H 0.84044 0.39954 0.61804 0.0
H1118 H 0.93994 0.31589 0.61015 0.0
H1119 H 0.9133 0.27356 0.64503 0.0
C1120 C 0.96029 0.41859 0.58591 0.0
C1121 C 0.94074 0.44196 0.56068 0.0
C1122 C 0.94477 0.39185 0.60182 0.0
C1123 C 0.90928 0.38804 0.59302 0.0
C1124 C 0.88975 0.41133 0.56774 0.0
C1125 C 0.90536 0.43792 0.55163 0.0
C1126 C 0.84121 0.34761 0.64283 0.0
C1127 C 0.86145 0.3119 0.65103 0.0
C1128 C 0.85629 0.37176 0.62293 0.0
C1129 C 0.8922 0.36099 0.61128 0.0
C1130 C 0.91227 0.32504 0.61897 0.0
C1131 C 0.89703 0.30078 0.6387 0.0
H1132 H 0.39002 0.07979 0.46919 0.0
H1133 H 0.47252 0.12008 0.41386 0.0
H1134 H 0.34267 0.12766 0.44331 0.0
H1135 H 0.42479 0.16687 0.38603 0.0
H1136 H 0.3327 0.25716 0.34897 0.0
H1137 H 0.37711 0.22174 0.38912 0.0
H1138 H 0.3167 0.13398 0.38911 0.0
H1139 H 0.27205 0.16965 0.35064 0.0
C1140 C 0.39788 0.09882 0.45116 0.0
C1141 C 0.43462 0.09594 0.44276 0.0
C1142 C 0.37082 0.12623 0.43639 0.0
C1143 C 0.37988 0.15063 0.41217 0.0
C1144 C 0.41693 0.1487 0.40482 0.0
C1145 C 0.4442 0.12172 0.42035 0.0
C1146 C 0.32859 0.23066 0.35824 0.0
C1147 C 0.29916 0.21596 0.34644 0.0
C1148 C 0.35413 0.21029 0.38098 0.0
C1149 C 0.35061 0.17495 0.39208 0.0
C1150 C 0.32004 0.16133 0.38153 0.0
C1151 C 0.2945 0.1817 0.35916 0.0
H1152 H 0.6158 0.56036 0.01995 0.0
H1153 H 0.52291 0.59094 0.08506 0.0
H1154 H 0.64399 0.60739 0.04625 0.0
H1155 H 0.55095 0.63749 0.11104 0.0
H1156 H 0.59383 0.73874 0.13353 0.0
H1157 H 0.56809 0.69762 0.09682 0.0
H1158 H 0.66957 0.6161 0.1043 0.0
H1159 H 0.69475 0.6567 0.14134 0.0
C1160 C 0.60141 0.57709 0.03978 0.0
C1161 C 0.56722 0.5718 0.05053 0.0
C1162 C 0.61752 0.60396 0.05478 0.0
C1163 C 0.59947 0.62632 0.08044 0.0
C1164 C 0.56521 0.62116 0.09091 0.0
C1165 C 0.54934 0.59416 0.07624 0.0
C1166 C 0.6108 0.71239 0.12658 0.0
C1167 C 0.64651 0.70132 0.13973 0.0
C1168 C 0.5961 0.68883 0.10577 0.0
C1169 C 0.61683 0.65362 0.09781 0.0
C1170 C 0.65317 0.6433 0.10956 0.0
C1171 C 0.66776 0.66678 0.13054 0.0
H1172 H 0.0864 0.23435 0.63883 0.0
H1173 H 0.18913 0.15469 0.63985 0.0
H1174 H 0.05995 0.19424 0.60164 0.0
H1175 H 0.16316 0.11509 0.60227 0.0
H1176 H 0.01757 0.08611 0.58688 0.0
H1177 H 0.04521 0.13247 0.61373 0.0
H1178 H 0.13497 0.1092 0.5446 0.0
H1179 H 0.10715 0.06243 0.5174 0.0
C1180 C 0.10354 0.20875 0.63036 0.0
C1181 C 0.13999 0.19807 0.64171 0.0
C1182 C 0.08844 0.18576 0.60924 0.0
C1183 C 0.10951 0.15152 0.59912 0.0
C1184 C 0.14646 0.1416 0.6092 0.0
C1185 C 0.16147 0.1645 0.63051 0.0
C1186 C 0.04312 0.0909 0.57722 0.0
C1187 C 0.06024 0.07048 0.55006 0.0
C1188 C 0.05878 0.11775 0.59244 0.0
C1189 C 0.0921 0.12465 0.5811 0.0
C1190 C 0.10927 0.10438 0.55386 0.0
C1191 C 0.09334 0.0777 0.5383 0.0
H1192 H 0.71949 0.35882 0.33713 0.0
H1193 H 0.64328 0.28687 0.32367 0.0
H1194 H 0.67588 0.39879 0.37264 0.0
H1195 H 0.59914 0.32751 0.35835 0.0
H1196 H 0.54758 0.38696 0.45251 0.0
H1197 H 0.58926 0.34632 0.41563 0.0
H1198 H 0.61835 0.44213 0.36873 0.0
H1199 H 0.57744 0.48251 0.4062 0.0
C1200 C 0.6933 0.35171 0.34157 0.0
C1201 C 0.68475 0.31978 0.32765 0.0
C1202 C 0.66822 0.37472 0.36175 0.0
C1203 C 0.63396 0.36642 0.36814 0.0
C1204 C 0.62547 0.3344 0.35423 0.0
C1205 C 0.6507 0.31121 0.33428 0.0
C1206 C 0.5627 0.39925 0.43411 0.0
C1207 C 0.55976 0.43777 0.43244 0.0
C1208 C 0.58648 0.37603 0.41293 0.0
C1209 C 0.60738 0.39101 0.38949 0.0
C1210 C 0.60332 0.42969 0.38709 0.0
C1211 C 0.57985 0.45282 0.40846 0.0
H1212 H 0.49389 0.90711 0.08684 0.0
H1213 H 0.39487 0.94821 0.02856 0.0
H1214 H 0.46529 0.86121 0.11378 0.0
H1215 H 0.36632 0.90191 0.0555 0.0
H1216 H 0.31877 0.85491 0.15124 0.0
H1217 H 0.34587 0.89389 0.11404 0.0
H1218 H 0.4406 0.80485 0.10331 0.0
H1219 H 0.41272 0.76536 0.14029 0.0
C1220 C 0.46611 0.90614 0.07955 0.0
C1221 C 0.44652 0.93152 0.05577 0.0
C1222 C 0.44986 0.8796 0.09479 0.0
C1223 C 0.41358 0.87797 0.08674 0.0
C1224 C 0.39425 0.90273 0.06235 0.0
C1225 C 0.41062 0.92916 0.0469 0.0
C1226 C 0.34458 0.84304 0.13982 0.0
C1227 C 0.36318 0.80668 0.14787 0.0
C1228 C 0.36031 0.86553 0.1187 0.0
C1229 C 0.39528 0.85239 0.10564 0.0
C1230 C 0.41365 0.81576 0.11314 0.0
C1231 C 0.39773 0.79316 0.13412 0.0
H1232 H 0.89213 0.57928 0.96648 0.0
H1233 H 0.98244 0.61853 0.92327 0.0
H1234 H 0.8491 0.62716 0.93575 0.0
H1235 H 0.93914 0.6657 0.89086 0.0
H1236 H 0.84821 0.75916 0.84951 0.0
H1237 H 0.88994 0.72145 0.8906 0.0
H1238 H 0.83298 0.63207 0.87756 0.0
H1239 H 0.79107 0.66964 0.83791 0.0
C1240 C 0.90269 0.5982 0.95024 0.0
C1241 C 0.94043 0.59491 0.94652 0.0
C1242 C 0.8781 0.62558 0.93266 0.0
C1243 C 0.89077 0.64964 0.91038 0.0
C1244 C 0.92861 0.64761 0.90798 0.0
C1245 C 0.95335 0.62052 0.92622 0.0
C1246 C 0.84445 0.73161 0.85586 0.0
C1247 C 0.8164 0.71733 0.84055 0.0
C1248 C 0.86841 0.71002 0.87917 0.0
C1249 C 0.86458 0.67393 0.88742 0.0
C1250 C 0.83619 0.66006 0.87235 0.0
C1251 C 0.81229 0.68155 0.84935 0.0
H1252 H 0.36094 0.53312 0.14017 0.0
H1253 H 0.46737 0.46348 0.15942 0.0
H1254 H 0.33626 0.50328 0.18735 0.0
H1255 H 0.44281 0.43292 0.20601 0.0
H1256 H 0.30278 0.44424 0.27728 0.0
H1257 H 0.34 0.48414 0.25173 0.0
H1258 H 0.39574 0.39178 0.1934 0.0
H1259 H 0.35761 0.35316 0.21691 0.0
C1260 C 0.3791 0.51204 0.15511 0.0
C1261 C 0.41547 0.49931 0.14563 0.0
C1262 C 0.36519 0.49519 0.18214 0.0
C1263 C 0.38766 0.46553 0.19988 0.0
C1264 C 0.42494 0.45543 0.19238 0.0
C1265 C 0.4388 0.47244 0.16556 0.0
C1266 C 0.32376 0.43235 0.25969 0.0
C1267 C 0.32772 0.39526 0.24973 0.0
C1268 C 0.34496 0.4551 0.24519 0.0
C1269 C 0.37084 0.44083 0.22093 0.0
C1270 C 0.37656 0.40319 0.21271 0.0
C1271 C 0.35488 0.38079 0.22657 0.0
H1272 H 0.40264 0.59671 0.99122 0.0
H1273 H 0.48399 0.58999 0.91403 0.0
H1274 H 0.36222 0.64605 0.95947 0.0
H1275 H 0.44306 0.63868 0.88185 0.0
H1276 H 0.2867 0.67549 0.86453 0.0
H1277 H 0.32888 0.64164 0.90652 0.0
H1278 H 0.40928 0.70484 0.87936 0.0
H1279 H 0.36684 0.73881 0.83672 0.0
C1280 C 0.41204 0.60589 0.96758 0.0
C1281 C 0.44618 0.5888 0.95467 0.0
C1282 C 0.38887 0.63416 0.94946 0.0
C1283 C 0.39937 0.64586 0.91808 0.0
C1284 C 0.43436 0.63035 0.9061 0.0
C1285 C 0.4576 0.60208 0.92429 0.0
C1286 C 0.31315 0.68261 0.86782 0.0
C1287 C 0.32372 0.70939 0.84708 0.0
C1288 C 0.33721 0.66343 0.8921 0.0
C1289 C 0.37239 0.67054 0.89607 0.0
C1290 C 0.38237 0.69866 0.87654 0.0
C1291 C 0.35808 0.71815 0.85231 0.0
H1292 H 0.15263 0.53042 0.60113 0.0
H1293 H 0.09044 0.47386 0.66636 0.0
H1294 H 0.17981 0.55403 0.64994 0.0
H1295 H 0.11607 0.49967 0.71574 0.0
H1296 H 0.23908 0.5769 0.73975 0.0
H1297 H 0.21983 0.53112 0.70353 0.0
H1298 H 0.10784 0.57182 0.7326 0.0
H1299 H 0.12739 0.61806 0.76846 0.0
C1300 C 0.14511 0.52276 0.62602 0.0
C1301 C 0.11854 0.50146 0.63004 0.0
C1302 C 0.16066 0.53619 0.65394 0.0
C1303 C 0.14977 0.52882 0.68651 0.0
C1304 C 0.12452 0.50599 0.69078 0.0
C1305 C 0.10952 0.49178 0.66265 0.0
C1306 C 0.21052 0.57533 0.73886 0.0
C1307 C 0.18445 0.60129 0.75593 0.0
C1308 C 0.19956 0.54915 0.71841 0.0
C1309 C 0.16236 0.54838 0.71504 0.0
C1310 C 0.13672 0.57179 0.73496 0.0
C1311 C 0.14777 0.5982 0.75534 0.0
H1312 H 0.32218 0.34313 0.71275 0.0
H1313 H 0.25269 0.3099 0.63654 0.0
H1314 H 0.34962 0.37593 0.67031 0.0
H1315 H 0.28007 0.34337 0.59383 0.0
H1316 H 0.38137 0.35751 0.52891 0.0
H1317 H 0.341 0.33397 0.56761 0.0
H1318 H 0.33886 0.42842 0.63133 0.0
H1319 H 0.38021 0.4508 0.5935 0.0
C1320 C 0.31233 0.34331 0.68697 0.0
C1321 C 0.28536 0.32374 0.67801 0.0
C1322 C 0.32791 0.36238 0.66263 0.0
C1323 C 0.31705 0.36228 0.62864 0.0
C1324 C 0.28921 0.34371 0.61977 0.0
C1325 C 0.27338 0.32476 0.64425 0.0
C1326 C 0.37154 0.37351 0.55086 0.0
C1327 C 0.38339 0.40632 0.55781 0.0
C1328 C 0.3483 0.36021 0.57292 0.0
C1329 C 0.33677 0.3793 0.60261 0.0
C1330 C 0.34742 0.41295 0.60878 0.0
C1331 C 0.37062 0.42618 0.58675 0.0
H1332 H 0.14963 0.70887 0.20155 0.0
H1333 H 0.25136 0.68739 0.14777 0.0
H1334 H 0.12189 0.6774 0.15832 0.0
H1335 H 0.22405 0.65424 0.10503 0.0
H1336 H 0.15319 0.62476 0.01862 0.0
H1337 H 0.18075 0.66039 0.05964 0.0
H1338 H 0.12355 0.61706 0.13944 0.0
H1339 H 0.09555 0.58301 0.09826 0.0
C1340 C 0.16621 0.69704 0.18063 0.0
C1341 C 0.20276 0.70036 0.17819 0.0
C1342 C 0.15034 0.67882 0.15586 0.0
C1343 C 0.17079 0.66292 0.12826 0.0
C1344 C 0.20734 0.66651 0.12569 0.0
C1345 C 0.2231 0.68524 0.15031 0.0
C1346 C 0.14648 0.62343 0.04496 0.0
C1347 C 0.12169 0.60216 0.0554 0.0
C1348 C 0.16235 0.64346 0.06848 0.0
C1349 C 0.1541 0.64194 0.10289 0.0
C1350 C 0.12975 0.61986 0.11313 0.0
C1351 C 0.11367 0.60033 0.08963 0.0
H1352 H 0.62927 0.3461 0.73204 0.0
H1353 H 0.72493 0.37244 0.68658 0.0
H1354 H 0.59029 0.3895 0.69339 0.0
H1355 H 0.68619 0.41415 0.64671 0.0
H1356 H 0.60431 0.49873 0.58497 0.0
H1357 H 0.64057 0.46933 0.63352 0.0
H1358 H 0.578 0.38348 0.63473 0.0
H1359 H 0.54156 0.41305 0.58731 0.0
C1360 C 0.642 0.36154 0.71413 0.0
C1361 C 0.68021 0.35494 0.7116 0.0
C1362 C 0.61968 0.38613 0.69174 0.0
C1363 C 0.63513 0.40445 0.66628 0.0
C1364 C 0.67331 0.40037 0.66582 0.0
C1365 C 0.69559 0.37603 0.6884 0.0
C1366 C 0.59836 0.47362 0.59572 0.0
C1367 C 0.57013 0.4582 0.58223 0.0
C1368 C 0.61908 0.4568 0.62353 0.0
C1369 C 0.61194 0.42425 0.63829 0.0
C1370 C 0.58369 0.40901 0.62464 0.0
C1371 C 0.56303 0.42578 0.59709 0.0
H1372 H 0.787 0.64234 0.1762 0.0
H1373 H 0.879 0.67067 0.22832 0.0
H1374 H 0.82851 0.60244 0.13888 0.0
H1375 H 0.92079 0.62953 0.19176 0.0
H1376 H 0.97705 0.59767 0.08996 0.0
H1377 H 0.93902 0.63025 0.13387 0.0
H1378 H 0.87411 0.54648 0.13311 0.0
H1379 H 0.912 0.51414 0.08867 0.0
C1380 C 0.81611 0.63982 0.17989 0.0
C1381 C 0.82957 0.66031 0.20485 0.0
C1382 C 0.84003 0.61652 0.1587 0.0
C1383 C 0.87812 0.61295 0.16199 0.0
C1384 C 0.89163 0.63209 0.18805 0.0
C1385 C 0.86766 0.65542 0.20927 0.0
C1386 C 0.95515 0.58578 0.09948 0.0
C1387 C 0.94777 0.5532 0.08568 0.0
C1388 C 0.93325 0.60449 0.12483 0.0
C1389 C 0.90332 0.59113 0.13711 0.0
C1390 C 0.89657 0.55793 0.12397 0.0
C1391 C 0.91846 0.53925 0.09857 0.0
H1392 H 0.88866 0.61914 0.54161 0.0
H1393 H 0.97948 0.60032 0.61258 0.0
H1394 H 0.85294 0.66317 0.57971 0.0
H1395 H 0.94323 0.64445 0.65102 0.0
H1396 H 0.869 0.74941 0.69955 0.0
H1397 H 0.90965 0.7132 0.65812 0.0
H1398 H 0.82668 0.65149 0.63523 0.0
H1399 H 0.78662 0.68701 0.67597 0.0
C1400 C 0.90119 0.62458 0.56522 0.0
C1401 C 0.93682 0.6057 0.57423 0.0
C1402 C 0.88064 0.64981 0.58708 0.0
C1403 C 0.89515 0.65695 0.61849 0.0
C1404 C 0.9314 0.63958 0.62691 0.0
C1405 C 0.95203 0.61409 0.605 0.0
C1406 C 0.85951 0.72825 0.68544 0.0
C1407 C 0.82461 0.7211 0.69104 0.0
C1408 C 0.88278 0.70746 0.66193 0.0
C1409 C 0.87119 0.67973 0.6433 0.0
C1410 C 0.8362 0.67302 0.64879 0.0
C1411 C 0.81331 0.6933 0.67237 0.0
H1412 H 0.45697 0.60047 0.4167 0.0
H1413 H 0.38889 0.52002 0.42675 0.0
H1414 H 0.41767 0.63131 0.37138 0.0
H1415 H 0.34969 0.55071 0.38048 0.0
H1416 H 0.26562 0.6505 0.33118 0.0
H1417 H 0.30581 0.60864 0.37 0.0
H1418 H 0.3995 0.62443 0.31382 0.0
H1419 H 0.35938 0.66766 0.27595 0.0
C1420 C 0.43373 0.58915 0.40906 0.0
C1421 C 0.42599 0.55785 0.42547 0.0
C1422 C 0.41137 0.60665 0.38276 0.0
C1423 C 0.3807 0.59329 0.37205 0.0
C1424 C 0.37302 0.56179 0.38826 0.0
C1425 C 0.39548 0.5442 0.41471 0.0
C1426 C 0.29475 0.64494 0.32703 0.0
C1427 C 0.30934 0.66333 0.30114 0.0
C1428 C 0.3178 0.62055 0.34906 0.0
C1429 C 0.35594 0.61381 0.34544 0.0
C1430 C 0.37028 0.6298 0.31781 0.0
C1431 C 0.34724 0.65434 0.29591 0.0
H1432 H 0.13248 0.32998 0.77546 0.0
H1433 H 0.22372 0.35532 0.83108 0.0
H1434 H 0.09028 0.37359 0.80969 0.0
H1435 H 0.18184 0.39734 0.86624 0.0
H1436 H 0.1011 0.48966 0.91282 0.0
H1437 H 0.13965 0.45439 0.87039 0.0
H1438 H 0.06678 0.37813 0.86491 0.0
H1439 H 0.02768 0.41423 0.90625 0.0
C1440 C 0.1436 0.3449 0.79492 0.0
C1441 C 0.18159 0.33866 0.80078 0.0
C1442 C 0.11935 0.36972 0.81479 0.0
C1443 C 0.13244 0.38891 0.8411 0.0
C1444 C 0.17053 0.3835 0.84612 0.0
C1445 C 0.1947 0.3589 0.82616 0.0
C1446 C 0.09302 0.46565 0.90224 0.0
C1447 C 0.06128 0.45471 0.91325 0.0
C1448 C 0.11534 0.44517 0.87803 0.0
C1449 C 0.10673 0.41299 0.86432 0.0
C1450 C 0.07426 0.40288 0.87449 0.0
C1451 C 0.05181 0.42353 0.8985 0.0
H1452 H 0.18714 0.3611 0.33333 0.0
H1453 H 0.11433 0.28478 0.3268 0.0
H1454 H 0.14717 0.39779 0.37348 0.0
H1455 H 0.07365 0.32245 0.36741 0.0
H1456 H -0.00213 0.43502 0.41095 0.0
H1457 H 0.03357 0.39182 0.37126 0.0
H1458 H 0.12984 0.38485 0.43401 0.0
H1459 H 0.09461 0.42761 0.47349 0.0
C1460 C 0.16248 0.35214 0.34033 0.0
C1461 C 0.15407 0.31979 0.32688 0.0
C1462 C 0.13965 0.37318 0.36354 0.0
C1463 C 0.10752 0.36279 0.37382 0.0
C1464 C 0.09833 0.33103 0.35987 0.0
C1465 C 0.12162 0.30947 0.33677 0.0
C1466 C 0.02657 0.42402 0.41639 0.0
C1467 C 0.04345 0.43517 0.44522 0.0
C1468 C 0.04689 0.3991 0.39379 0.0
C1469 C 0.0845 0.38526 0.39945 0.0
C1470 C 0.10096 0.39538 0.42885 0.0
C1471 C 0.08069 0.41985 0.45151 0.0
loop_
_geom_bond_atom_site_label_1
_geom_bond_atom_site_label_2
_geom_bond_distance
_geom_bond_site_symmetry_2
_ccdc_geom_bond_type
Zn0 O1 2.055 . S
Zn0 O8 2.046 . S
Zn0 N16 2.036 1_554 S
Zn0 O28 2.053 1_454 S
Zn0 O30 2.066 1_544 S
O1 Zn0 2.055 . S
O1 C4 1.259 1_545 S
C2 O30 1.256 . S
C2 O31 1.244 . S
Zn3 O5 2.046 1_655 S
Zn3 O7 2.055 1_565 S
Zn3 N9 2.036 . S
Zn3 O27 2.066 1_564 S
Zn3 O31 2.053 1_654 S
C4 O1 1.259 1_565 S
C4 O5 1.254 . S
O5 Zn3 2.046 1_455 S
O5 C4 1.254 . S
C6 O27 1.256 . S
C6 O28 1.244 . S
O7 Zn3 2.055 1_545 S
O7 C29 1.259 . S
O8 Zn0 2.046 . S
O8 C29 1.254 1_455 S
N9 Zn3 2.036 . S
N9 C10 1.298 . S
N9 N12 1.398 . S
C10 N9 1.298 . S
C10 N13 1.367 . S
C10 C23 1.481 . S
C11 N12 1.299 . S
C11 N13 1.379 . S
N12 N9 1.398 . S
N12 C11 1.299 . S
N13 C10 1.367 . S
N13 C11 1.379 . S
C14 N16 1.298 . S
C14 N18 1.367 . S
C14 C22 1.481 . S
C15 N17 1.299 . S
C15 N18 1.379 . S
N16 Zn0 2.036 1_556 S
N16 C14 1.298 . S
N16 N17 1.398 . S
N17 C15 1.299 . S
N17 N16 1.398 . S
N18 C14 1.367 . S
N18 C15 1.379 . S
H19 C22 0.980 1_554 S
H20 C22 0.981 1_554 S
H21 C22 0.981 . S
C22 C14 1.481 . S
C22 H19 0.980 1_556 S
C22 H20 0.981 1_556 S
C22 H21 0.981 . S
C23 C10 1.481 . S
C23 H24 0.980 1_565 S
C23 H25 0.981 . S
C23 H26 0.981 . S
H24 C23 0.980 1_545 S
H25 C23 0.981 . S
H26 C23 0.981 . S
O27 Zn3 2.066 1_546 S
O27 C6 1.256 . S
O28 Zn0 2.053 1_656 S
O28 C6 1.244 . S
C29 O7 1.259 . S
C29 O8 1.254 1_655 S
O30 Zn0 2.066 1_566 S
O30 C2 1.256 . S
O31 C2 1.244 . S
O31 Zn3 2.053 1_456 S
Zn32 O33 2.055 . S
Zn32 O40 2.046 . S
Zn32 N48 2.036 . S
Zn32 O60 2.053 . S
Zn32 O62 2.066 . S
O33 Zn32 2.055 . S
O33 C36 1.259 . S
C34 O62 1.256 . S
C34 O63 1.244 . S
Zn35 O37 2.046 . S
Zn35 O39 2.055 . S
Zn35 N41 2.036 . S
Zn35 O59 2.066 . S
Zn35 O63 2.053 . S
C36 O33 1.259 . S
C36 O37 1.254 . S
O37 Zn35 2.046 . S
O37 C36 1.254 . S
C38 O59 1.256 . S
C38 O60 1.244 . S
O39 Zn35 2.055 . S
O39 C61 1.259 . S
O40 Zn32 2.046 . S
O40 C61 1.254 . S
N41 Zn35 2.036 . S
N41 C42 1.298 . S
N41 N44 1.398 . S
C42 N41 1.298 . S
C42 N45 1.367 . S
C42 C55 1.481 . S
C43 N44 1.299 . S
C43 N45 1.379 . S
N44 N41 1.398 . S
N44 C43 1.299 . S
N45 C42 1.367 . S
N45 C43 1.379 . S
C46 N48 1.298 . S
C46 N50 1.367 . S
C46 C54 1.481 . S
C47 N49 1.299 . S
C47 N50 1.379 . S
N48 Zn32 2.036 . S
N48 C46 1.298 . S
N48 N49 1.398 . S
N49 C47 1.299 . S
N49 N48 1.398 . S
N50 C46 1.367 . S
N50 C47 1.379 . S
H51 C54 0.980 . S
H52 C54 0.981 . S
H53 C54 0.981 . S
C54 C46 1.481 . S
C54 H51 0.980 . S
C54 H52 0.981 . S
C54 H53 0.981 . S
C55 C42 1.481 . S
C55 H56 0.980 . S
C55 H57 0.981 . S
C55 H58 0.981 . S
H56 C55 0.980 . S
H57 C55 0.981 . S
H58 C55 0.981 . S
O59 Zn35 2.066 . S
O59 C38 1.256 . S
O60 Zn32 2.053 . S
O60 C38 1.244 . S
C61 O39 1.259 . S
C61 O40 1.254 . S
O62 Zn32 2.066 . S
O62 C34 1.256 . S
O63 C34 1.244 . S
O63 Zn35 2.053 . S
Zn64 O65 2.055 . S
Zn64 O72 2.046 . S
Zn64 N80 2.036 . S
Zn64 O92 2.053 1_545 S
Zn64 O94 2.066 . S
O65 Zn64 2.055 . S
O65 C68 1.259 . S
C66 O94 1.256 . S
C66 O95 1.244 . S
Zn67 O69 2.046 1_565 S
Zn67 O71 2.055 . S
Zn67 N73 2.036 . S
Zn67 O91 2.066 . S
Zn67 O95 2.053 1_565 S
C68 O65 1.259 . S
C68 O69 1.254 . S
O69 Zn67 2.046 1_545 S
O69 C68 1.254 . S
C70 O91 1.256 . S
C70 O92 1.244 . S
O71 Zn67 2.055 . S
O71 C93 1.259 . S
O72 Zn64 2.046 . S
O72 C93 1.254 1_545 S
N73 Zn67 2.036 . S
N73 C74 1.298 . S
N73 N76 1.398 . S
C74 N73 1.298 . S
C74 N77 1.367 . S
C74 C87 1.481 . S
C75 N76 1.299 . S
C75 N77 1.379 . S
N76 N73 1.398 . S
N76 C75 1.299 . S
N77 C74 1.367 . S
N77 C75 1.379 . S
C78 N80 1.298 . S
C78 N82 1.367 . S
C78 C86 1.481 . S
C79 N81 1.299 . S
C79 N82 1.379 . S
N80 Zn64 2.036 . S
N80 C78 1.298 . S
N80 N81 1.398 . S
N81 C79 1.299 . S
N81 N80 1.398 . S
N82 C78 1.367 . S
N82 C79 1.379 . S
H83 C86 0.980 . S
H84 C86 0.981 . S
H85 C86 0.981 . S
C86 C78 1.481 . S
C86 H83 0.980 . S
C86 H84 0.981 . S
C86 H85 0.981 . S
C87 C74 1.481 . S
C87 H88 0.980 . S
C87 H89 0.981 . S
C87 H90 0.981 . S
H88 C87 0.980 . S
H89 C87 0.981 . S
H90 C87 0.981 . S
O91 Zn67 2.066 . S
O91 C70 1.256 . S
O92 Zn64 2.053 1_565 S
O92 C70 1.244 . S
C93 O71 1.259 . S
C93 O72 1.254 1_565 S
O94 Zn64 2.066 . S
O94 C66 1.256 . S
O95 C66 1.244 . S
O95 Zn67 2.053 1_545 S
Zn96 O97 2.055 . S
Zn96 O104 2.046 . S
Zn96 N112 2.036 . S
Zn96 O124 2.053 . S
Zn96 O126 2.066 . S
O97 Zn96 2.055 . S
O97 C100 1.259 . S
C98 O126 1.256 . S
C98 O127 1.244 . S
Zn99 O101 2.046 . S
Zn99 O103 2.055 . S
Zn99 N105 2.036 . S
Zn99 O123 2.066 . S
Zn99 O127 2.053 . S
C100 O97 1.259 . S
C100 O101 1.254 . S
O101 Zn99 2.046 . S
O101 C100 1.254 . S
C102 O123 1.256 . S
C102 O124 1.244 . S
O103 Zn99 2.055 . S
O103 C125 1.259 . S
O104 Zn96 2.046 . S
O104 C125 1.254 . S
N105 Zn99 2.036 . S
N105 C106 1.298 . S
N105 N108 1.398 . S
C106 N105 1.298 . S
C106 N109 1.367 . S
C106 C119 1.481 . S
C107 N108 1.299 . S
C107 N109 1.379 . S
N108 N105 1.398 . S
N108 C107 1.299 . S
N109 C106 1.367 . S
N109 C107 1.379 . S
C110 N112 1.298 . S
C110 N114 1.367 . S
C110 C118 1.481 . S
C111 N113 1.299 . S
C111 N114 1.379 . S
N112 Zn96 2.036 . S
N112 C110 1.298 . S
N112 N113 1.398 . S
N113 C111 1.299 . S
N113 N112 1.398 . S
N114 C110 1.367 . S
N114 C111 1.379 . S
H115 C118 0.980 . S
H116 C118 0.981 . S
H117 C118 0.981 . S
C118 C110 1.481 . S
C118 H115 0.980 . S
C118 H116 0.981 . S
C118 H117 0.981 . S
C119 C106 1.481 . S
C119 H120 0.980 . S
C119 H121 0.981 . S
C119 H122 0.981 . S
H120 C119 0.980 . S
H121 C119 0.981 . S
H122 C119 0.981 . S
O123 Zn99 2.066 . S
O123 C102 1.256 . S
O124 Zn96 2.053 . S
O124 C102 1.244 . S
C125 O103 1.259 . S
C125 O104 1.254 . S
O126 Zn96 2.066 . S
O126 C98 1.256 . S
O127 C98 1.244 . S
O127 Zn99 2.053 . S
Zn128 O129 2.055 1_545 S
Zn128 O136 2.046 1_545 S
Zn128 N144 2.036 . S
Zn128 O156 2.053 . S
Zn128 O158 2.066 1_455 S
O129 Zn128 2.055 1_565 S
O129 C132 1.259 1_455 S
C130 O158 1.256 . S
C130 O159 1.244 . S
Zn131 O133 2.046 . S
Zn131 O135 2.055 1_655 S
Zn131 N137 2.036 . S
Zn131 O155 2.066 1_565 S
Zn131 O159 2.053 1_565 S
C132 O129 1.259 1_655 S
C132 O133 1.254 . S
O133 Zn131 2.046 . S
O133 C132 1.254 . S
C134 O155 1.256 1_455 S
C134 O156 1.244 . S
O135 Zn131 2.055 1_455 S
O135 C157 1.259 . S
O136 Zn128 2.046 1_565 S
O136 C157 1.254 . S
N137 Zn131 2.036 . S
N137 C138 1.298 . S
N137 N140 1.398 . S
C138 N137 1.298 . S
C138 N141 1.367 . S
C138 C151 1.481 . S
C139 N140 1.299 . S
C139 N141 1.379 . S
N140 N137 1.398 . S
N140 C139 1.299 . S
N141 C138 1.367 . S
N141 C139 1.379 . S
C142 N144 1.298 . S
C142 N146 1.367 . S
C142 C150 1.481 . S
C143 N145 1.299 . S
C143 N146 1.379 . S
N144 Zn128 2.036 . S
N144 C142 1.298 . S
N144 N145 1.398 . S
N145 C143 1.299 . S
N145 N144 1.398 . S
N146 C142 1.367 . S
N146 C143 1.379 . S
H147 C150 0.980 1_565 S
H148 C150 0.981 . S
H149 C150 0.981 . S
C150 C142 1.481 . S
C150 H147 0.980 1_545 S
C150 H148 0.981 . S
C150 H149 0.981 . S
C151 C138 1.481 . S
C151 H152 0.980 . S
C151 H153 0.981 . S
C151 H154 0.981 . S
H152 C151 0.980 . S
H153 C151 0.981 . S
H154 C151 0.981 . S
O155 Zn131 2.066 1_545 S
O155 C134 1.256 1_655 S
O156 Zn128 2.053 . S
O156 C134 1.244 . S
C157 O135 1.259 . S
C157 O136 1.254 . S
O158 Zn128 2.066 1_655 S
O158 C130 1.256 . S
O159 C130 1.244 . S
O159 Zn131 2.053 1_545 S
Zn160 O161 2.055 . S
Zn160 O168 2.046 . S
Zn160 N176 2.036 . S
Zn160 O188 2.053 . S
Zn160 O190 2.066 . S
O161 Zn160 2.055 . S
O161 C164 1.259 . S
C162 O190 1.256 . S
C162 O191 1.244 . S
Zn163 O165 2.046 . S
Zn163 O167 2.055 . S
Zn163 N169 2.036 . S
Zn163 O187 2.066 . S
Zn163 O191 2.053 . S
C164 O161 1.259 . S
C164 O165 1.254 . S
O165 Zn163 2.046 . S
O165 C164 1.254 . S
C166 O187 1.256 . S
C166 O188 1.244 . S
O167 Zn163 2.055 . S
O167 C189 1.259 . S
O168 Zn160 2.046 . S
O168 C189 1.254 . S
N169 Zn163 2.036 . S
N169 C170 1.298 . S
N169 N172 1.398 . S
C170 N169 1.298 . S
C170 N173 1.367 . S
C170 C183 1.481 . S
C171 N172 1.299 . S
C171 N173 1.379 . S
N172 N169 1.398 . S
N172 C171 1.299 . S
N173 C170 1.367 . S
N173 C171 1.379 . S
C174 N176 1.298 . S
C174 N178 1.367 . S
C174 C182 1.481 . S
C175 N177 1.299 . S
C175 N178 1.379 . S
N176 Zn160 2.036 . S
N176 C174 1.298 . S
N176 N177 1.398 . S
N177 C175 1.299 . S
N177 N176 1.398 . S
N178 C174 1.367 . S
N178 C175 1.379 . S
H179 C182 0.980 . S
H180 C182 0.981 . S
H181 C182 0.981 . S
C182 C174 1.481 . S
C182 H179 0.980 . S
C182 H180 0.981 . S
C182 H181 0.981 . S
C183 C170 1.481 . S
C183 H184 0.980 . S
C183 H185 0.981 . S
C183 H186 0.981 . S
H184 C183 0.980 . S
H185 C183 0.981 . S
H186 C183 0.981 . S
O187 Zn163 2.066 . S
O187 C166 1.256 . S
O188 Zn160 2.053 . S
O188 C166 1.244 . S
C189 O167 1.259 . S
C189 O168 1.254 . S
O190 Zn160 2.066 . S
O190 C162 1.256 . S
O191 C162 1.244 . S
O191 Zn163 2.053 . S
Zn192 O193 2.055 . S
Zn192 O200 2.020 1_554 S
Zn192 N208 2.036 . S
Zn192 O220 2.053 1_545 S
Zn192 O222 2.066 1_545 S
O193 Zn192 2.055 . S
O193 C196 1.259 . S
C194 O222 1.256 . S
C194 O223 1.244 . S
Zn195 O197 2.046 1_556 S
Zn195 O199 2.055 . S
Zn195 N201 2.036 1_545 S
Zn195 O219 2.066 1_545 S
Zn195 O223 2.053 1_546 S
C196 O193 1.259 . S
C196 O197 1.254 . S
O197 Zn195 2.046 1_554 S
O197 C196 1.254 . S
C198 O219 1.256 . S
C198 O220 1.244 1_556 S
O199 Zn195 2.055 . S
O199 C221 1.259 . S
O200 Zn192 2.020 1_556 S
O200 C221 1.285 . S
N201 Zn195 2.036 1_565 S
N201 C202 1.298 . S
N201 N204 1.398 . S
C202 N201 1.298 . S
C202 N205 1.367 . S
C202 C215 1.481 1_565 S
C203 N204 1.299 . S
C203 N205 1.379 . S
N204 N201 1.398 . S
N204 C203 1.299 . S
N205 C202 1.367 . S
N205 C203 1.379 . S
C206 N208 1.298 . S
C206 N210 1.367 . S
C206 C214 1.481 . S
C207 N209 1.299 . S
C207 N210 1.379 . S
N208 Zn192 2.036 . S
N208 C206 1.298 . S
N208 N209 1.398 . S
N209 C207 1.299 . S
N209 N208 1.398 . S
N210 C206 1.367 . S
N210 C207 1.379 . S
H211 C214 0.980 . S
H212 C214 0.981 . S
H213 C214 0.981 . S
C214 C206 1.481 . S
C214 H211 0.980 . S
C214 H212 0.981 . S
C214 H213 0.981 . S
C215 C202 1.481 1_545 S
C215 H216 0.980 . S
C215 H217 0.981 . S
C215 H218 0.981 1_545 S
H216 C215 0.980 . S
H217 C215 0.981 . S
H218 C215 0.981 1_565 S
O219 Zn195 2.066 1_565 S
O219 C198 1.256 . S
O220 Zn192 2.053 1_565 S
O220 C198 1.244 1_554 S
C221 O199 1.259 . S
C221 O200 1.285 . S
O222 Zn192 2.066 1_565 S
O222 C194 1.256 . S
O223 C194 1.244 . S
O223 Zn195 2.053 1_564 S
Zn224 O225 2.055 . S
Zn224 O232 2.046 . S
Zn224 N240 2.036 . S
Zn224 O252 2.053 . S
Zn224 O254 2.066 . S
O225 Zn224 2.055 . S
O225 C228 1.259 . S
C226 O254 1.256 . S
C226 O255 1.244 . S
Zn227 O229 2.046 . S
Zn227 O231 2.055 . S
Zn227 N233 2.036 . S
Zn227 O251 2.066 . S
Zn227 O255 2.053 . S
C228 O225 1.259 . S
C228 O229 1.254 . S
O229 Zn227 2.046 . S
O229 C228 1.254 . S
C230 O251 1.256 . S
C230 O252 1.244 . S
O231 Zn227 2.055 . S
O231 C253 1.259 . S
O232 Zn224 2.046 . S
O232 C253 1.254 . S
N233 Zn227 2.036 . S
N233 C234 1.298 . S
N233 N236 1.398 . S
C234 N233 1.298 . S
C234 N237 1.367 . S
C234 C247 1.481 . S
C235 N236 1.299 . S
C235 N237 1.379 . S
N236 N233 1.398 . S
N236 C235 1.299 . S
N237 C234 1.367 . S
N237 C235 1.379 . S
C238 N240 1.298 . S
C238 N242 1.367 . S
C238 C246 1.481 . S
C239 N241 1.299 . S
C239 N242 1.379 . S
N240 Zn224 2.036 . S
N240 C238 1.298 . S
N240 N241 1.398 . S
N241 C239 1.299 . S
N241 N240 1.398 . S
N242 C238 1.367 . S
N242 C239 1.379 . S
H243 C246 0.980 . S
H244 C246 0.981 . S
H245 C246 0.981 . S
C246 C238 1.481 . S
C246 H243 0.980 . S
C246 H244 0.981 . S
C246 H245 0.981 . S
C247 C234 1.481 . S
C247 H248 0.980 . S
C247 H249 0.981 . S
C247 H250 0.981 . S
H248 C247 0.980 . S
H249 C247 0.981 . S
H250 C247 0.981 . S
O251 Zn227 2.066 . S
O251 C230 1.256 . S
O252 Zn224 2.053 . S
O252 C230 1.244 . S
C253 O231 1.259 . S
C253 O232 1.254 . S
O254 Zn224 2.066 . S
O254 C226 1.256 . S
O255 C226 1.244 . S
O255 Zn227 2.053 . S
Zn256 O257 2.055 . S
Zn256 O264 2.046 1_554 S
Zn256 N272 2.036 . S
Zn256 O284 2.053 1_554 S
Zn256 O286 2.066 . S
O257 Zn256 2.055 . S
O257 C260 1.259 . S
C258 O286 1.256 . S
C258 O287 1.244 . S
Zn259 O261 2.046 1_556 S
Zn259 O263 2.055 . S
Zn259 N265 2.036 . S
Zn259 O283 2.066 . S
Zn259 O287 2.053 1_556 S
C260 O257 1.259 . S
C260 O261 1.254 . S
O261 Zn259 2.046 1_554 S
O261 C260 1.254 . S
C262 O283 1.256 . S
C262 O284 1.244 . S
O263 Zn259 2.055 . S
O263 C285 1.259 . S
O264 Zn256 2.046 1_556 S
O264 C285 1.254 . S
N265 Zn259 2.036 . S
N265 C266 1.298 . S
N265 N268 1.398 . S
C266 N265 1.298 . S
C266 N269 1.367 . S
C266 C279 1.481 . S
C267 N268 1.299 . S
C267 N269 1.379 . S
N268 N265 1.398 . S
N268 C267 1.299 . S
N269 C266 1.367 . S
N269 C267 1.379 . S
C270 N272 1.298 . S
C270 N274 1.367 . S
C270 C278 1.481 . S
C271 N273 1.299 . S
C271 N274 1.379 . S
N272 Zn256 2.036 . S
N272 C270 1.298 . S
N272 N273 1.398 . S
N273 C271 1.299 . S
N273 N272 1.398 . S
N274 C270 1.367 . S
N274 C271 1.379 . S
H275 C278 0.980 . S
H276 C278 0.981 . S
H277 C278 0.981 . S
C278 C270 1.481 . S
C278 H275 0.980 . S
C278 H276 0.981 . S
C278 H277 0.981 . S
C279 C266 1.481 . S
C279 H280 0.980 . S
C279 H281 0.981 . S
C279 H282 0.981 . S
H280 C279 0.980 . S
H281 C279 0.981 . S
H282 C279 0.981 . S
O283 Zn259 2.066 . S
O283 C262 1.256 . S
O284 Zn256 2.053 1_556 S
O284 C262 1.244 . S
C285 O263 1.259 . S
C285 O264 1.254 . S
O286 Zn256 2.066 . S
O286 C258 1.256 . S
O287 C258 1.244 . S
O287 Zn259 2.053 1_554 S
Zn288 O289 2.055 . S
Zn288 O296 2.046 . S
Zn288 N304 2.036 . S
Zn288 O316 2.053 . S
Zn288 O318 2.066 . S
O289 Zn288 2.055 . S
O289 C292 1.259 . S
C290 O318 1.256 . S
C290 O319 1.244 . S
Zn291 O293 2.046 . S
Zn291 O295 2.055 . S
Zn291 N297 2.036 . S
Zn291 O315 2.066 . S
Zn291 O319 2.053 . S
C292 O289 1.259 . S
C292 O293 1.254 . S
O293 Zn291 2.046 . S
O293 C292 1.254 . S
C294 O315 1.256 . S
C294 O316 1.244 . S
O295 Zn291 2.055 . S
O295 C317 1.259 . S
O296 Zn288 2.046 . S
O296 C317 1.254 . S
N297 Zn291 2.036 . S
N297 C298 1.298 . S
N297 N300 1.398 . S
C298 N297 1.298 . S
C298 N301 1.367 . S
C298 C311 1.481 . S
C299 N300 1.299 . S
C299 N301 1.379 . S
N300 N297 1.398 . S
N300 C299 1.299 . S
N301 C298 1.367 . S
N301 C299 1.379 . S
C302 N304 1.298 . S
C302 N306 1.367 . S
C302 C310 1.481 . S
C303 N305 1.299 . S
C303 N306 1.379 . S
N304 Zn288 2.036 . S
N304 C302 1.298 . S
N304 N305 1.398 . S
N305 C303 1.299 . S
N305 N304 1.398 . S
N306 C302 1.367 . S
N306 C303 1.379 . S
H307 C310 0.980 . S
H308 C310 0.981 . S
H309 C310 0.981 . S
C310 C302 1.481 . S
C310 H307 0.980 . S
C310 H308 0.981 . S
C310 H309 0.981 . S
C311 C298 1.481 . S
C311 H312 0.980 . S
C311 H313 0.981 . S
C311 H314 0.981 . S
H312 C311 0.980 . S
H313 C311 0.981 . S
H314 C311 0.981 . S
O315 Zn291 2.066 . S
O315 C294 1.256 . S
O316 Zn288 2.053 . S
O316 C294 1.244 . S
C317 O295 1.259 . S
C317 O296 1.254 . S
O318 Zn288 2.066 . S
O318 C290 1.256 . S
O319 C290 1.244 . S
O319 Zn291 2.053 . S
Zn320 O321 2.055 1_455 S
Zn320 O328 2.046 . S
Zn320 N336 2.036 . S
Zn320 O348 2.053 . S
Zn320 O350 2.066 . S
O321 Zn320 2.055 1_655 S
O321 C324 1.259 . S
C322 O350 1.256 1_655 S
C322 O351 1.244 . S
Zn323 O325 2.046 . S
Zn323 O327 2.055 . S
Zn323 N329 2.036 . S
Zn323 O347 2.066 1_655 S
Zn323 O351 2.053 . S
C324 O321 1.259 . S
C324 O325 1.254 . S
O325 Zn323 2.046 . S
O325 C324 1.254 . S
C326 O347 1.256 . S
C326 O348 1.244 . S
O327 Zn323 2.055 . S
O327 C349 1.259 1_655 S
O328 Zn320 2.046 . S
O328 C349 1.254 . S
N329 Zn323 2.036 . S
N329 C330 1.298 . S
N329 N332 1.398 . S
C330 N329 1.298 . S
C330 N333 1.367 . S
C330 C343 1.481 . S
C331 N332 1.299 . S
C331 N333 1.379 . S
N332 N329 1.398 . S
N332 C331 1.299 . S
N333 C330 1.367 . S
N333 C331 1.379 . S
C334 N336 1.298 . S
C334 N338 1.367 . S
C334 C342 1.481 . S
C335 N337 1.299 . S
C335 N338 1.379 . S
N336 Zn320 2.036 . S
N336 C334 1.298 . S
N336 N337 1.398 . S
N337 C335 1.299 . S
N337 N336 1.398 . S
N338 C334 1.367 . S
N338 C335 1.379 . S
H339 C342 0.980 . S
H340 C342 0.981 . S
H341 C342 0.981 . S
C342 C334 1.481 . S
C342 H339 0.980 . S
C342 H340 0.981 . S
C342 H341 0.981 . S
C343 C330 1.481 . S
C343 H344 0.980 . S
C343 H345 0.981 . S
C343 H346 0.981 . S
H344 C343 0.980 . S
H345 C343 0.981 . S
H346 C343 0.981 . S
O347 Zn323 2.066 1_455 S
O347 C326 1.256 . S
O348 Zn320 2.053 . S
O348 C326 1.244 . S
C349 O327 1.259 1_455 S
C349 O328 1.254 . S
O350 Zn320 2.066 . S
O350 C322 1.256 1_455 S
O351 C322 1.244 . S
O351 Zn323 2.053 . S
Zn352 O353 2.055 . S
Zn352 O360 2.046 . S
Zn352 N368 2.036 . S
Zn352 O380 2.053 . S
Zn352 O382 2.066 . S
O353 Zn352 2.055 . S
O353 C356 1.259 . S
C354 O382 1.256 . S
C354 O383 1.244 . S
Zn355 O357 2.046 . S
Zn355 O359 2.055 . S
Zn355 N361 2.036 . S
Zn355 O379 2.066 . S
Zn355 O383 2.053 . S
C356 O353 1.259 . S
C356 O357 1.254 . S
O357 Zn355 2.046 . S
O357 C356 1.254 . S
C358 O379 1.256 . S
C358 O380 1.244 . S
O359 Zn355 2.055 . S
O359 C381 1.259 . S
O360 Zn352 2.046 . S
O360 C381 1.254 . S
N361 Zn355 2.036 . S
N361 C362 1.298 . S
N361 N364 1.398 . S
C362 N361 1.298 . S
C362 N365 1.367 . S
C362 C375 1.481 . S
C363 N364 1.299 . S
C363 N365 1.379 . S
N364 N361 1.398 . S
N364 C363 1.299 . S
N365 C362 1.367 . S
N365 C363 1.379 . S
C366 N368 1.298 . S
C366 N370 1.367 . S
C366 C374 1.481 . S
C367 N369 1.299 . S
C367 N370 1.379 . S
N368 Zn352 2.036 . S
N368 C366 1.298 . S
N368 N369 1.398 . S
N369 C367 1.299 . S
N369 N368 1.398 . S
N370 C366 1.367 . S
N370 C367 1.379 . S
H371 C374 0.980 . S
H372 C374 0.981 . S
H373 C374 0.981 . S
C374 C366 1.481 . S
C374 H371 0.980 . S
C374 H372 0.981 . S
C374 H373 0.981 . S
C375 C362 1.481 . S
C375 H376 0.980 . S
C375 H377 0.981 . S
C375 H378 0.981 . S
H376 C375 0.980 . S
H377 C375 0.981 . S
H378 C375 0.981 . S
O379 Zn355 2.066 . S
O379 C358 1.256 . S
O380 Zn352 2.053 . S
O380 C358 1.244 . S
C381 O359 1.259 . S
C381 O360 1.254 . S
O382 Zn352 2.066 . S
O382 C354 1.256 . S
O383 C354 1.244 . S
O383 Zn355 2.053 . S
Zn384 O385 2.055 . S
Zn384 O392 2.046 . S
Zn384 N400 2.036 . S
Zn384 O412 2.053 . S
Zn384 O414 2.066 . S
O385 Zn384 2.055 . S
O385 C388 1.259 . S
C386 O414 1.256 . S
C386 O415 1.244 . S
Zn387 O389 2.046 . S
Zn387 O391 2.055 . S
Zn387 N393 2.036 . S
Zn387 O411 2.066 . S
Zn387 O415 2.053 . S
C388 O385 1.259 . S
C388 O389 1.254 . S
O389 Zn387 2.046 . S
O389 C388 1.254 . S
C390 O411 1.256 . S
C390 O412 1.244 . S
O391 Zn387 2.055 . S
O391 C413 1.259 . S
O392 Zn384 2.046 . S
O392 C413 1.254 . S
N393 Zn387 2.036 . S
N393 C394 1.298 . S
N393 N396 1.398 . S
C394 N393 1.298 . S
C394 N397 1.367 . S
C394 C407 1.481 . S
C395 N396 1.299 . S
C395 N397 1.379 . S
N396 N393 1.398 . S
N396 C395 1.299 . S
N397 C394 1.367 . S
N397 C395 1.379 . S
C398 N400 1.298 . S
C398 N402 1.367 . S
C398 C406 1.481 . S
C399 N401 1.299 . S
C399 N402 1.379 . S
N400 Zn384 2.036 . S
N400 C398 1.298 . S
N400 N401 1.398 . S
N401 C399 1.299 . S
N401 N400 1.398 . S
N402 C398 1.367 . S
N402 C399 1.379 . S
H403 C406 0.980 . S
H404 C406 0.981 . S
H405 C406 0.981 . S
C406 C398 1.481 . S
C406 H403 0.980 . S
C406 H404 0.981 . S
C406 H405 0.981 . S
C407 C394 1.481 . S
C407 H408 0.980 . S
C407 H409 0.981 . S
C407 H410 0.981 . S
H408 C407 0.980 . S
H409 C407 0.981 . S
H410 C407 0.981 . S
O411 Zn387 2.066 . S
O411 C390 1.256 . S
O412 Zn384 2.053 . S
O412 C390 1.244 . S
C413 O391 1.259 . S
C413 O392 1.254 . S
O414 Zn384 2.066 . S
O414 C386 1.256 . S
O415 C386 1.244 . S
O415 Zn387 2.053 . S
Zn416 O417 2.055 . S
Zn416 O424 2.046 . S
Zn416 N432 2.036 . S
Zn416 O444 2.053 . S
Zn416 O446 2.066 . S
O417 Zn416 2.055 . S
O417 C420 1.259 . S
C418 O446 1.256 . S
C418 O447 1.244 . S
Zn419 O421 2.046 . S
Zn419 O423 2.055 . S
Zn419 N425 2.036 . S
Zn419 O443 2.066 . S
Zn419 O447 2.053 . S
C420 O417 1.259 . S
C420 O421 1.254 . S
O421 Zn419 2.046 . S
O421 C420 1.254 . S
C422 O443 1.256 . S
C422 O444 1.244 . S
O423 Zn419 2.055 . S
O423 C445 1.259 . S
O424 Zn416 2.046 . S
O424 C445 1.254 . S
N425 Zn419 2.036 . S
N425 C426 1.298 . S
N425 N428 1.398 . S
C426 N425 1.298 . S
C426 N429 1.367 . S
C426 C439 1.481 . S
C427 N428 1.299 . S
C427 N429 1.379 . S
N428 N425 1.398 . S
N428 C427 1.299 . S
N429 C426 1.367 . S
N429 C427 1.379 . S
C430 N432 1.298 . S
C430 N434 1.367 . S
C430 C438 1.481 . S
C431 N433 1.299 . S
C431 N434 1.379 . S
N432 Zn416 2.036 . S
N432 C430 1.298 . S
N432 N433 1.398 . S
N433 C431 1.299 . S
N433 N432 1.398 . S
N434 C430 1.367 . S
N434 C431 1.379 . S
H435 C438 0.980 . S
H436 C438 0.981 . S
H437 C438 0.981 . S
C438 C430 1.481 . S
C438 H435 0.980 . S
C438 H436 0.981 . S
C438 H437 0.981 . S
C439 C426 1.481 . S
C439 H440 0.980 . S
C439 H441 0.981 . S
C439 H442 0.981 . S
H440 C439 0.980 . S
H441 C439 0.981 . S
H442 C439 0.981 . S
O443 Zn419 2.066 . S
O443 C422 1.256 . S
O444 Zn416 2.053 . S
O444 C422 1.244 . S
C445 O423 1.259 . S
C445 O424 1.254 . S
O446 Zn416 2.066 . S
O446 C418 1.256 . S
O447 C418 1.244 . S
O447 Zn419 2.053 . S
Zn448 O449 2.055 . S
Zn448 O456 2.046 . S
Zn448 N464 2.036 . S
Zn448 O476 2.053 . S
Zn448 O478 2.066 . S
O449 Zn448 2.055 . S
O449 C452 1.259 . S
C450 O478 1.256 . S
C450 O479 1.244 . S
Zn451 O453 2.046 . S
Zn451 O455 2.055 . S
Zn451 N457 2.036 . S
Zn451 O475 2.066 . S
Zn451 O479 2.053 . S
C452 O449 1.259 . S
C452 O453 1.254 . S
O453 Zn451 2.046 . S
O453 C452 1.254 . S
C454 O475 1.256 . S
C454 O476 1.244 . S
O455 Zn451 2.055 . S
O455 C477 1.259 . S
O456 Zn448 2.046 . S
O456 C477 1.254 . S
N457 Zn451 2.036 . S
N457 C458 1.298 . S
N457 N460 1.398 . S
C458 N457 1.298 . S
C458 N461 1.367 . S
C458 C471 1.481 . S
C459 N460 1.299 . S
C459 N461 1.379 . S
N460 N457 1.398 . S
N460 C459 1.299 . S
N461 C458 1.367 . S
N461 C459 1.379 . S
C462 N464 1.298 . S
C462 N466 1.367 . S
C462 C470 1.481 . S
C463 N465 1.299 . S
C463 N466 1.379 . S
N464 Zn448 2.036 . S
N464 C462 1.298 . S
N464 N465 1.398 . S
N465 C463 1.299 . S
N465 N464 1.398 . S
N466 C462 1.367 . S
N466 C463 1.379 . S
H467 C470 0.980 . S
H468 C470 0.981 . S
H469 C470 0.981 . S
C470 C462 1.481 . S
C470 H467 0.980 . S
C470 H468 0.981 . S
C470 H469 0.981 . S
C471 C458 1.481 . S
C471 H472 0.980 . S
C471 H473 0.981 . S
C471 H474 0.981 . S
H472 C471 0.980 . S
H473 C471 0.981 . S
H474 C471 0.981 . S
O475 Zn451 2.066 . S
O475 C454 1.256 . S
O476 Zn448 2.053 . S
O476 C454 1.244 . S
C477 O455 1.259 . S
C477 O456 1.254 . S
O478 Zn448 2.066 . S
O478 C450 1.256 . S
O479 C450 1.244 . S
O479 Zn451 2.053 . S
Zn480 O481 2.055 1_454 S
Zn480 O488 2.046 1_554 S
Zn480 N496 2.036 . S
Zn480 O508 2.053 . S
Zn480 O510 2.066 1_455 S
O481 Zn480 2.055 1_656 S
O481 C484 1.259 . S
C482 O510 1.256 . S
C482 O511 1.244 . S
Zn483 O485 2.046 . S
Zn483 O487 2.055 1_655 S
Zn483 N489 2.036 . S
Zn483 O507 2.066 1_656 S
Zn483 O511 2.053 1_556 S
C484 O481 1.259 . S
C484 O485 1.254 . S
O485 Zn483 2.046 . S
O485 C484 1.254 . S
C486 O507 1.256 . S
C486 O508 1.244 . S
O487 Zn483 2.055 1_455 S
O487 C509 1.259 . S
O488 Zn480 2.046 1_556 S
O488 C509 1.254 . S
N489 Zn483 2.036 . S
N489 C490 1.298 . S
N489 N492 1.398 . S
C490 N489 1.298 . S
C490 N493 1.367 . S
C490 C503 1.481 . S
C491 N492 1.299 . S
C491 N493 1.379 . S
N492 N489 1.398 . S
N492 C491 1.299 . S
N493 C490 1.367 . S
N493 C491 1.379 . S
C494 N496 1.298 . S
C494 N498 1.367 . S
C494 C502 1.481 . S
C495 N497 1.299 . S
C495 N498 1.379 . S
N496 Zn480 2.036 . S
N496 C494 1.298 . S
N496 N497 1.398 . S
N497 C495 1.299 . S
N497 N496 1.398 . S
N498 C494 1.367 . S
N498 C495 1.379 . S
H499 C502 0.980 . S
H500 C502 0.981 . S
H501 C502 0.981 . S
C502 C494 1.481 . S
C502 H499 0.980 . S
C502 H500 0.981 . S
C502 H501 0.981 . S
C503 C490 1.481 . S
C503 H504 0.980 . S
C503 H505 0.981 . S
C503 H506 0.981 . S
H504 C503 0.980 . S
H505 C503 0.981 . S
H506 C503 0.981 . S
O507 Zn483 2.066 1_454 S
O507 C486 1.256 . S
O508 Zn480 2.053 . S
O508 C486 1.244 . S
C509 O487 1.259 . S
C509 O488 1.254 . S
O510 Zn480 2.066 1_655 S
O510 C482 1.256 . S
O511 C482 1.244 . S
O511 Zn483 2.053 1_554 S
H512 C520 0.950 . S
H513 C525 0.950 . S
H514 C522 0.950 . S
H515 C524 0.950 . S
H516 C526 0.950 . S
H517 C528 0.950 . S
H518 C530 0.950 . S
H519 C531 0.950 . S
C520 H512 0.950 . S
C520 C521 1.386 . S
C520 C522 1.391 . S
C521 C520 1.386 . S
C521 C525 1.393 . S
C522 H514 0.950 . S
C522 C520 1.391 . S
C522 C523 1.400 . S
C523 C522 1.400 . S
C523 C524 1.398 . S
C523 C529 1.491 . S
C524 H515 0.950 . S
C524 C523 1.398 . S
C524 C525 1.391 . S
C525 H513 0.950 . S
C525 C521 1.393 . S
C525 C524 1.391 . S
C526 H516 0.950 . S
C526 C527 1.386 . S
C526 C528 1.391 . S
C527 C526 1.386 . S
C527 C531 1.393 . S
C528 H517 0.950 . S
C528 C526 1.391 . S
C528 C529 1.400 . S
C529 C523 1.491 . S
C529 C528 1.400 . S
C529 C530 1.398 . S
C530 H518 0.950 . S
C530 C529 1.398 . S
C530 C531 1.391 . S
C531 H519 0.950 . S
C531 C527 1.393 . S
C531 C530 1.391 . S
H532 C540 0.950 . S
H533 C545 0.950 . S
H534 C542 0.950 . S
H535 C544 0.950 . S
H536 C546 0.950 . S
H537 C548 0.950 . S
H538 C550 0.950 . S
H539 C551 0.950 . S
C540 H532 0.950 . S
C540 C541 1.386 . S
C540 C542 1.391 . S
C541 C540 1.386 . S
C541 C545 1.393 . S
C542 H534 0.950 . S
C542 C540 1.391 . S
C542 C543 1.400 . S
C543 C542 1.400 . S
C543 C544 1.398 . S
C543 C549 1.491 . S
C544 H535 0.950 . S
C544 C543 1.398 . S
C544 C545 1.391 . S
C545 H533 0.950 . S
C545 C541 1.393 . S
C545 C544 1.391 . S
C546 H536 0.950 . S
C546 C547 1.386 . S
C546 C548 1.391 . S
C547 C546 1.386 . S
C547 C551 1.393 . S
C548 H537 0.950 . S
C548 C546 1.391 . S
C548 C549 1.400 . S
C549 C543 1.491 . S
C549 C548 1.400 . S
C549 C550 1.398 . S
C550 H538 0.950 . S
C550 C549 1.398 . S
C550 C551 1.391 . S
C551 H539 0.950 . S
C551 C547 1.393 . S
C551 C550 1.391 . S
H552 C560 0.950 . S
H553 C565 0.950 . S
H554 C562 0.950 . S
H555 C564 0.950 . S
H556 C566 0.950 . S
H557 C568 0.950 . S
H558 C570 0.950 . S
H559 C571 0.950 . S
C560 H552 0.950 . S
C560 C561 1.386 . S
C560 C562 1.391 . S
C561 C560 1.386 . S
C561 C565 1.393 . S
C562 H554 0.950 . S
C562 C560 1.391 . S
C562 C563 1.400 . S
C563 C562 1.400 . S
C563 C564 1.398 . S
C563 C569 1.491 . S
C564 H555 0.950 . S
C564 C563 1.398 . S
C564 C565 1.391 . S
C565 H553 0.950 . S
C565 C561 1.393 . S
C565 C564 1.391 . S
C566 H556 0.950 . S
C566 C567 1.386 . S
C566 C568 1.391 . S
C567 C566 1.386 . S
C567 C571 1.393 . S
C568 H557 0.950 . S
C568 C566 1.391 . S
C568 C569 1.400 . S
C569 C563 1.491 . S
C569 C568 1.400 . S
C569 C570 1.398 . S
C570 H558 0.950 . S
C570 C569 1.398 . S
C570 C571 1.391 . S
C571 H559 0.950 . S
C571 C567 1.393 . S
C571 C570 1.391 . S
H572 C580 0.950 . S
H573 C585 0.950 . S
H574 C582 0.950 . S
H575 C584 0.950 . S
H576 C586 0.950 . S
H577 C588 0.950 . S
H578 C590 0.950 . S
H579 C591 0.950 . S
C580 H572 0.950 . S
C580 C581 1.386 . S
C580 C582 1.391 . S
C581 C580 1.386 . S
C581 C585 1.393 . S
C582 H574 0.950 . S
C582 C580 1.391 . S
C582 C583 1.400 . S
C583 C582 1.400 . S
C583 C584 1.398 . S
C583 C589 1.491 . S
C584 H575 0.950 . S
C584 C583 1.398 . S
C584 C585 1.391 . S
C585 H573 0.950 . S
C585 C581 1.393 . S
C585 C584 1.391 . S
C586 H576 0.950 . S
C586 C587 1.386 . S
C586 C588 1.391 . S
C587 C586 1.386 . S
C587 C591 1.393 . S
C588 H577 0.950 . S
C588 C586 1.391 . S
C588 C589 1.400 . S
C589 C583 1.491 . S
C589 C588 1.400 . S
C589 C590 1.398 . S
C590 H578 0.950 . S
C590 C589 1.398 . S
C590 C591 1.391 . S
C591 H579 0.950 . S
C591 C587 1.393 . S
C591 C590 1.391 . S
H592 C600 0.950 . S
H593 C605 0.950 . S
H594 C602 0.950 . S
H595 C604 0.950 . S
H596 C606 0.950 . S
H597 C608 0.950 . S
H598 C610 0.950 . S
H599 C611 0.950 . S
C600 H592 0.950 . S
C600 C601 1.386 . S
C600 C602 1.391 . S
C601 C600 1.386 . S
C601 C605 1.393 . S
C602 H594 0.950 . S
C602 C600 1.391 . S
C602 C603 1.400 . S
C603 C602 1.400 . S
C603 C604 1.398 . S
C603 C609 1.491 . S
C604 H595 0.950 . S
C604 C603 1.398 . S
C604 C605 1.391 . S
C605 H593 0.950 . S
C605 C601 1.393 . S
C605 C604 1.391 . S
C606 H596 0.950 . S
C606 C607 1.386 . S
C606 C608 1.391 . S
C607 C606 1.386 . S
C607 C611 1.393 . S
C608 H597 0.950 . S
C608 C606 1.391 . S
C608 C609 1.400 . S
C609 C603 1.491 . S
C609 C608 1.400 . S
C609 C610 1.398 . S
C610 H598 0.950 . S
C610 C609 1.398 . S
C610 C611 1.391 . S
C611 H599 0.950 . S
C611 C607 1.393 . S
C611 C610 1.391 . S
H612 C620 0.950 . S
H613 C625 0.950 . S
H614 C622 0.950 . S
H615 C624 0.950 . S
H616 C626 0.950 1_545 S
H617 C628 0.950 . S
H618 C630 0.950 . S
H619 C631 0.950 . S
C620 H612 0.950 . S
C620 C621 1.386 . S
C620 C622 1.391 . S
C621 C620 1.386 . S
C621 C625 1.393 . S
C622 H614 0.950 . S
C622 C620 1.391 . S
C622 C623 1.400 . S
C623 C622 1.400 . S
C623 C624 1.398 . S
C623 C629 1.491 . S
C624 H615 0.950 . S
C624 C623 1.398 . S
C624 C625 1.391 . S
C625 H613 0.950 . S
C625 C621 1.393 . S
C625 C624 1.391 . S
C626 H616 0.950 1_565 S
C626 C627 1.386 . S
C626 C628 1.391 . S
C627 C626 1.386 . S
C627 C631 1.393 . S
C628 H617 0.950 . S
C628 C626 1.391 . S
C628 C629 1.400 . S
C629 C623 1.491 . S
C629 C628 1.400 . S
C629 C630 1.398 . S
C630 H618 0.950 . S
C630 C629 1.398 . S
C630 C631 1.391 . S
C631 H619 0.950 . S
C631 C627 1.393 . S
C631 C630 1.391 . S
H632 C640 0.950 . S
H633 C645 0.950 . S
H634 C642 0.950 . S
H635 C644 0.950 . S
H636 C646 0.950 . S
H637 C648 0.950 . S
H638 C650 0.950 . S
H639 C651 0.950 . S
C640 H632 0.950 . S
C640 C641 1.386 . S
C640 C642 1.391 . S
C641 C640 1.386 . S
C641 C645 1.393 . S
C642 H634 0.950 . S
C642 C640 1.391 . S
C642 C643 1.400 . S
C643 C642 1.400 . S
C643 C644 1.398 . S
C643 C649 1.491 . S
C644 H635 0.950 . S
C644 C643 1.398 . S
C644 C645 1.391 . S
C645 H633 0.950 . S
C645 C641 1.393 . S
C645 C644 1.391 . S
C646 H636 0.950 . S
C646 C647 1.386 . S
C646 C648 1.391 . S
C647 C646 1.386 . S
C647 C651 1.393 . S
C648 H637 0.950 . S
C648 C646 1.391 . S
C648 C649 1.400 . S
C649 C643 1.491 . S
C649 C648 1.400 . S
C649 C650 1.398 . S
C650 H638 0.950 . S
C650 C649 1.398 . S
C650 C651 1.391 . S
C651 H639 0.950 . S
C651 C647 1.393 . S
C651 C650 1.391 . S
H652 C660 0.950 . S
H653 C665 0.950 . S
H654 C662 0.950 . S
H655 C664 0.950 . S
H656 C666 0.950 . S
H657 C668 0.950 . S
H658 C670 0.950 . S
H659 C671 0.950 . S
C660 H652 0.950 . S
C660 C661 1.386 . S
C660 C662 1.391 . S
C661 C660 1.386 . S
C661 C665 1.393 . S
C662 H654 0.950 . S
C662 C660 1.391 . S
C662 C663 1.400 . S
C663 C662 1.400 . S
C663 C664 1.398 . S
C663 C669 1.491 . S
C664 H655 0.950 . S
C664 C663 1.398 . S
C664 C665 1.391 . S
C665 H653 0.950 . S
C665 C661 1.393 . S
C665 C664 1.391 . S
C666 H656 0.950 . S
C666 C667 1.386 . S
C666 C668 1.391 . S
C667 C666 1.386 . S
C667 C671 1.393 . S
C668 H657 0.950 . S
C668 C666 1.391 . S
C668 C669 1.400 . S
C669 C663 1.491 . S
C669 C668 1.400 . S
C669 C670 1.398 . S
C670 H658 0.950 . S
C670 C669 1.398 . S
C670 C671 1.391 . S
C671 H659 0.950 . S
C671 C667 1.393 . S
C671 C670 1.391 . S
H672 C680 0.950 . S
H673 C685 0.950 . S
H674 C682 0.950 . S
H675 C684 0.950 . S
H676 C686 0.950 . S
H677 C688 0.950 . S
H678 C690 0.950 . S
H679 C691 0.950 . S
C680 H672 0.950 . S
C680 C681 1.386 . S
C680 C682 1.391 . S
C681 C680 1.386 . S
C681 C685 1.393 . S
C682 H674 0.950 . S
C682 C680 1.391 . S
C682 C683 1.400 . S
C683 C682 1.400 . S
C683 C684 1.398 . S
C683 C689 1.491 . S
C684 H675 0.950 . S
C684 C683 1.398 . S
C684 C685 1.391 . S
C685 H673 0.950 . S
C685 C681 1.393 . S
C685 C684 1.391 . S
C686 H676 0.950 . S
C686 C687 1.386 . S
C686 C688 1.391 . S
C687 C686 1.386 . S
C687 C691 1.393 . S
C688 H677 0.950 . S
C688 C686 1.391 . S
C688 C689 1.400 . S
C689 C683 1.491 . S
C689 C688 1.400 . S
C689 C690 1.398 . S
C690 H678 0.950 . S
C690 C689 1.398 . S
C690 C691 1.391 . S
C691 H679 0.950 . S
C691 C687 1.393 . S
C691 C690 1.391 . S
H692 C700 0.950 . S
H693 C705 0.950 . S
H694 C702 0.950 . S
H695 C704 0.950 . S
H696 C706 0.950 . S
H697 C708 0.950 . S
H698 C710 0.950 . S
H699 C711 0.950 . S
C700 H692 0.950 . S
C700 C701 1.386 . S
C700 C702 1.391 . S
C701 C700 1.386 . S
C701 C705 1.393 . S
C702 H694 0.950 . S
C702 C700 1.391 . S
C702 C703 1.400 . S
C703 C702 1.400 . S
C703 C704 1.398 . S
C703 C709 1.491 . S
C704 H695 0.950 . S
C704 C703 1.398 . S
C704 C705 1.391 . S
C705 H693 0.950 . S
C705 C701 1.393 . S
C705 C704 1.391 . S
C706 H696 0.950 . S
C706 C707 1.386 . S
C706 C708 1.391 . S
C707 C706 1.386 . S
C707 C711 1.393 . S
C708 H697 0.950 . S
C708 C706 1.391 . S
C708 C709 1.400 . S
C709 C703 1.491 . S
C709 C708 1.400 . S
C709 C710 1.398 . S
C710 H698 0.950 . S
C710 C709 1.398 . S
C710 C711 1.391 . S
C711 H699 0.950 . S
C711 C707 1.393 . S
C711 C710 1.391 . S
H712 C720 0.950 . S
H713 C725 0.950 . S
H714 C722 0.950 . S
H715 C724 0.950 . S
H716 C726 0.950 . S
H717 C728 0.950 . S
H718 C730 0.950 . S
H719 C731 0.950 . S
C720 H712 0.950 . S
C720 C721 1.386 . S
C720 C722 1.391 . S
C721 C720 1.386 . S
C721 C725 1.393 . S
C722 H714 0.950 . S
C722 C720 1.391 . S
C722 C723 1.400 . S
C723 C722 1.400 . S
C723 C724 1.398 . S
C723 C729 1.491 . S
C724 H715 0.950 . S
C724 C723 1.398 . S
C724 C725 1.391 . S
C725 H713 0.950 . S
C725 C721 1.393 . S
C725 C724 1.391 . S
C726 H716 0.950 . S
C726 C727 1.386 . S
C726 C728 1.391 . S
C727 C726 1.386 . S
C727 C731 1.393 . S
C728 H717 0.950 . S
C728 C726 1.391 . S
C728 C729 1.400 . S
C729 C723 1.491 . S
C729 C728 1.400 . S
C729 C730 1.398 . S
C730 H718 0.950 . S
C730 C729 1.398 . S
C730 C731 1.391 . S
C731 H719 0.950 . S
C731 C727 1.393 . S
C731 C730 1.391 . S
H732 C740 0.950 . S
H733 C745 0.950 . S
H734 C742 0.950 . S
H735 C744 0.950 . S
H736 C746 0.950 . S
H737 C748 0.950 . S
H738 C750 0.950 . S
H739 C751 0.950 . S
C740 H732 0.950 . S
C740 C741 1.386 . S
C740 C742 1.391 . S
C741 C740 1.386 . S
C741 C745 1.393 . S
C742 H734 0.950 . S
C742 C740 1.391 . S
C742 C743 1.400 . S
C743 C742 1.400 . S
C743 C744 1.398 . S
C743 C749 1.491 . S
C744 H735 0.950 . S
C744 C743 1.398 . S
C744 C745 1.391 . S
C745 H733 0.950 . S
C745 C741 1.393 . S
C745 C744 1.391 . S
C746 H736 0.950 . S
C746 C747 1.386 . S
C746 C748 1.391 . S
C747 C746 1.386 . S
C747 C751 1.393 . S
C748 H737 0.950 . S
C748 C746 1.391 . S
C748 C749 1.400 . S
C749 C743 1.491 . S
C749 C748 1.400 . S
C749 C750 1.398 . S
C750 H738 0.950 . S
C750 C749 1.398 . S
C750 C751 1.391 . S
C751 H739 0.950 . S
C751 C747 1.393 . S
C751 C750 1.391 . S
H752 C760 0.950 . S
H753 C765 0.950 . S
H754 C762 0.950 . S
H755 C764 0.950 . S
H756 C766 0.950 1_455 S
H757 C768 0.950 . S
H758 C770 0.950 . S
H759 C771 0.950 . S
C760 H752 0.950 . S
C760 C761 1.386 . S
C760 C762 1.391 . S
C761 C760 1.386 . S
C761 C765 1.393 . S
C762 H754 0.950 . S
C762 C760 1.391 . S
C762 C763 1.400 . S
C763 C762 1.400 . S
C763 C764 1.398 . S
C763 C769 1.491 . S
C764 H755 0.950 . S
C764 C763 1.398 . S
C764 C765 1.391 . S
C765 H753 0.950 . S
C765 C761 1.393 . S
C765 C764 1.391 . S
C766 H756 0.950 1_655 S
C766 C767 1.386 . S
C766 C768 1.391 . S
C767 C766 1.386 . S
C767 C771 1.393 . S
C768 H757 0.950 . S
C768 C766 1.391 . S
C768 C769 1.400 . S
C769 C763 1.491 . S
C769 C768 1.400 . S
C769 C770 1.398 . S
C770 H758 0.950 . S
C770 C769 1.398 . S
C770 C771 1.391 . S
C771 H759 0.950 . S
C771 C767 1.393 . S
C771 C770 1.391 . S
H772 C780 0.950 . S
H773 C785 0.950 . S
H774 C782 0.950 . S
H775 C784 0.950 . S
H776 C786 0.950 . S
H777 C788 0.950 . S
H778 C790 0.950 . S
H779 C791 0.950 . S
C780 H772 0.950 . S
C780 C781 1.386 . S
C780 C782 1.391 . S
C781 C780 1.386 . S
C781 C785 1.393 . S
C782 H774 0.950 . S
C782 C780 1.391 . S
C782 C783 1.400 . S
C783 C782 1.400 . S
C783 C784 1.398 . S
C783 C789 1.491 . S
C784 H775 0.950 . S
C784 C783 1.398 . S
C784 C785 1.391 . S
C785 H773 0.950 . S
C785 C781 1.393 . S
C785 C784 1.391 . S
C786 H776 0.950 . S
C786 C787 1.386 . S
C786 C788 1.391 . S
C787 C786 1.386 . S
C787 C791 1.393 . S
C788 H777 0.950 . S
C788 C786 1.391 . S
C788 C789 1.400 . S
C789 C783 1.491 . S
C789 C788 1.400 . S
C789 C790 1.398 . S
C790 H778 0.950 . S
C790 C789 1.398 . S
C790 C791 1.391 . S
C791 H779 0.950 . S
C791 C787 1.393 . S
C791 C790 1.391 . S
H792 C800 0.950 . S
H793 C805 0.950 . S
H794 C802 0.950 . S
H795 C804 0.950 . S
H796 C806 0.950 . S
H797 C808 0.950 . S
H798 C810 0.950 . S
H799 C811 0.950 . S
C800 H792 0.950 . S
C800 C801 1.386 . S
C800 C802 1.391 . S
C801 C800 1.386 . S
C801 C805 1.393 . S
C802 H794 0.950 . S
C802 C800 1.391 . S
C802 C803 1.400 . S
C803 C802 1.400 . S
C803 C804 1.398 . S
C803 C809 1.491 . S
C804 H795 0.950 . S
C804 C803 1.398 . S
C804 C805 1.391 . S
C805 H793 0.950 . S
C805 C801 1.393 . S
C805 C804 1.391 . S
C806 H796 0.950 . S
C806 C807 1.386 . S
C806 C808 1.391 . S
C807 C806 1.386 . S
C807 C811 1.393 . S
C808 H797 0.950 . S
C808 C806 1.391 . S
C808 C809 1.400 . S
C809 C803 1.491 . S
C809 C808 1.400 . S
C809 C810 1.398 . S
C810 H798 0.950 . S
C810 C809 1.398 . S
C810 C811 1.391 . S
C811 H799 0.950 . S
C811 C807 1.393 . S
C811 C810 1.391 . S
H812 C820 0.950 . S
H813 C825 0.950 . S
H814 C822 0.950 . S
H815 C824 0.950 . S
H816 C826 0.950 . S
H817 C828 0.950 . S
H818 C830 0.950 . S
H819 C831 0.950 . S
C820 H812 0.950 . S
C820 C821 1.386 . S
C820 C822 1.391 . S
C821 C820 1.386 . S
C821 C825 1.393 . S
C822 H814 0.950 . S
C822 C820 1.391 . S
C822 C823 1.400 . S
C823 C822 1.400 . S
C823 C824 1.398 . S
C823 C829 1.491 . S
C824 H815 0.950 . S
C824 C823 1.398 . S
C824 C825 1.391 . S
C825 H813 0.950 . S
C825 C821 1.393 . S
C825 C824 1.391 . S
C826 H816 0.950 . S
C826 C827 1.386 . S
C826 C828 1.391 . S
C827 C826 1.386 . S
C827 C831 1.393 . S
C828 H817 0.950 . S
C828 C826 1.391 . S
C828 C829 1.400 . S
C829 C823 1.491 . S
C829 C828 1.400 . S
C829 C830 1.398 . S
C830 H818 0.950 . S
C830 C829 1.398 . S
C830 C831 1.391 . S
C831 H819 0.950 . S
C831 C827 1.393 . S
C831 C830 1.391 . S
H832 C840 0.950 . S
H833 C845 0.950 . S
H834 C842 0.950 . S
H835 C844 0.950 . S
H836 C846 0.950 . S
H837 C848 0.950 . S
H838 C850 0.950 . S
H839 C851 0.950 . S
C840 H832 0.950 . S
C840 C841 1.386 . S
C840 C842 1.391 . S
C841 C840 1.386 . S
C841 C845 1.393 . S
C842 H834 0.950 . S
C842 C840 1.391 . S
C842 C843 1.400 . S
C843 C842 1.400 . S
C843 C844 1.398 . S
C843 C849 1.491 . S
C844 H835 0.950 . S
C844 C843 1.398 . S
C844 C845 1.391 . S
C845 H833 0.950 . S
C845 C841 1.393 . S
C845 C844 1.391 . S
C846 H836 0.950 . S
C846 C847 1.386 . S
C846 C848 1.391 . S
C847 C846 1.386 . S
C847 C851 1.393 . S
C848 H837 0.950 . S
C848 C846 1.391 . S
C848 C849 1.400 . S
C849 C843 1.491 . S
C849 C848 1.400 . S
C849 C850 1.398 . S
C850 H838 0.950 . S
C850 C849 1.398 . S
C850 C851 1.391 . S
C851 H839 0.950 . S
C851 C847 1.393 . S
C851 C850 1.391 . S
H852 C860 0.950 . S
H853 C865 0.950 . S
H854 C862 0.950 . S
H855 C864 0.950 . S
H856 C866 0.950 . S
H857 C868 0.950 . S
H858 C870 0.950 . S
H859 C871 0.950 . S
C860 H852 0.950 . S
C860 C861 1.386 . S
C860 C862 1.391 . S
C861 C860 1.386 . S
C861 C865 1.393 . S
C862 H854 0.950 . S
C862 C860 1.391 . S
C862 C863 1.400 . S
C863 C862 1.400 . S
C863 C864 1.398 . S
C863 C869 1.491 . S
C864 H855 0.950 . S
C864 C863 1.398 . S
C864 C865 1.391 . S
C865 H853 0.950 . S
C865 C861 1.393 . S
C865 C864 1.391 . S
C866 H856 0.950 . S
C866 C867 1.386 . S
C866 C868 1.391 . S
C867 C866 1.386 . S
C867 C871 1.393 . S
C868 H857 0.950 . S
C868 C866 1.391 . S
C868 C869 1.400 . S
C869 C863 1.491 . S
C869 C868 1.400 . S
C869 C870 1.398 . S
C870 H858 0.950 . S
C870 C869 1.398 . S
C870 C871 1.391 . S
C871 H859 0.950 . S
C871 C867 1.393 . S
C871 C870 1.391 . S
H872 C880 0.950 . S
H873 C885 0.950 . S
H874 C882 0.950 . S
H875 C884 0.950 . S
H876 C886 0.950 . S
H877 C888 0.950 . S
H878 C890 0.950 . S
H879 C891 0.950 . S
C880 H872 0.950 . S
C880 C881 1.386 . S
C880 C882 1.391 . S
C881 C880 1.386 . S
C881 C885 1.393 . S
C882 H874 0.950 . S
C882 C880 1.391 . S
C882 C883 1.400 . S
C883 C882 1.400 . S
C883 C884 1.398 . S
C883 C889 1.491 . S
C884 H875 0.950 . S
C884 C883 1.398 . S
C884 C885 1.391 . S
C885 H873 0.950 . S
C885 C881 1.393 . S
C885 C884 1.391 . S
C886 H876 0.950 . S
C886 C887 1.386 . S
C886 C888 1.391 . S
C887 C886 1.386 . S
C887 C891 1.393 . S
C888 H877 0.950 . S
C888 C886 1.391 . S
C888 C889 1.400 . S
C889 C883 1.491 . S
C889 C888 1.400 . S
C889 C890 1.398 . S
C890 H878 0.950 . S
C890 C889 1.398 . S
C890 C891 1.391 . S
C891 H879 0.950 . S
C891 C887 1.393 . S
C891 C890 1.391 . S
H892 C900 0.950 . S
H893 C905 0.950 . S
H894 C902 0.950 . S
H895 C904 0.950 . S
H896 C906 0.950 . S
H897 C908 0.950 . S
H898 C910 0.950 . S
H899 C911 0.950 . S
C900 H892 0.950 . S
C900 C901 1.386 . S
C900 C902 1.391 . S
C901 C900 1.386 . S
C901 C905 1.393 . S
C902 H894 0.950 . S
C902 C900 1.391 . S
C902 C903 1.400 . S
C903 C902 1.400 . S
C903 C904 1.398 . S
C903 C909 1.491 . S
C904 H895 0.950 . S
C904 C903 1.398 . S
C904 C905 1.391 . S
C905 H893 0.950 . S
C905 C901 1.393 . S
C905 C904 1.391 . S
C906 H896 0.950 . S
C906 C907 1.386 . S
C906 C908 1.391 . S
C907 C906 1.386 . S
C907 C911 1.393 . S
C908 H897 0.950 . S
C908 C906 1.391 . S
C908 C909 1.400 . S
C909 C903 1.491 . S
C909 C908 1.400 . S
C909 C910 1.398 . S
C910 H898 0.950 . S
C910 C909 1.398 . S
C910 C911 1.391 . S
C911 H899 0.950 . S
C911 C907 1.393 . S
C911 C910 1.391 . S
H912 C920 0.950 . S
H913 C925 0.950 . S
H914 C922 0.950 . S
H915 C924 0.950 . S
H916 C926 0.950 . S
H917 C928 0.950 . S
H918 C930 0.950 . S
H919 C931 0.950 . S
C920 H912 0.950 . S
C920 C921 1.386 . S
C920 C922 1.391 . S
C921 C920 1.386 . S
C921 C925 1.393 . S
C922 H914 0.950 . S
C922 C920 1.391 . S
C922 C923 1.400 . S
C923 C922 1.400 . S
C923 C924 1.398 . S
C923 C929 1.491 . S
C924 H915 0.950 . S
C924 C923 1.398 . S
C924 C925 1.391 . S
C925 H913 0.950 . S
C925 C921 1.393 . S
C925 C924 1.391 . S
C926 H916 0.950 . S
C926 C927 1.386 . S
C926 C928 1.391 . S
C927 C926 1.386 . S
C927 C931 1.393 . S
C928 H917 0.950 . S
C928 C926 1.391 . S
C928 C929 1.400 . S
C929 C923 1.491 . S
C929 C928 1.400 . S
C929 C930 1.398 . S
C930 H918 0.950 . S
C930 C929 1.398 . S
C930 C931 1.391 . S
C931 H919 0.950 . S
C931 C927 1.393 . S
C931 C930 1.391 . S
H932 C940 0.950 . S
H933 C945 0.950 . S
H934 C942 0.950 . S
H935 C944 0.950 . S
H936 C946 0.950 . S
H937 C948 0.950 . S
H938 C950 0.950 . S
H939 C951 0.950 . S
C940 H932 0.950 . S
C940 C941 1.386 . S
C940 C942 1.391 . S
C941 C940 1.386 . S
C941 C945 1.393 . S
C942 H934 0.950 . S
C942 C940 1.391 . S
C942 C943 1.400 . S
C943 C942 1.400 . S
C943 C944 1.398 . S
C943 C949 1.491 . S
C944 H935 0.950 . S
C944 C943 1.398 . S
C944 C945 1.391 . S
C945 H933 0.950 . S
C945 C941 1.393 . S
C945 C944 1.391 . S
C946 H936 0.950 . S
C946 C947 1.386 . S
C946 C948 1.391 . S
C947 C946 1.386 . S
C947 C951 1.393 . S
C948 H937 0.950 . S
C948 C946 1.391 . S
C948 C949 1.400 . S
C949 C943 1.491 . S
C949 C948 1.400 . S
C949 C950 1.398 . S
C950 H938 0.950 . S
C950 C949 1.398 . S
C950 C951 1.391 . S
C951 H939 0.950 . S
C951 C947 1.393 . S
C951 C950 1.391 . S
H952 C960 0.950 . S
H953 C965 0.950 . S
H954 C962 0.950 . S
H955 C964 0.950 . S
H956 C966 0.950 . S
H957 C968 0.950 . S
H958 C970 0.950 . S
H959 C971 0.950 . S
C960 H952 0.950 . S
C960 C961 1.386 . S
C960 C962 1.391 . S
C961 C960 1.386 . S
C961 C965 1.393 . S
C962 H954 0.950 . S
C962 C960 1.391 . S
C962 C963 1.400 . S
C963 C962 1.400 . S
C963 C964 1.398 . S
C963 C969 1.491 . S
C964 H955 0.950 . S
C964 C963 1.398 . S
C964 C965 1.391 . S
C965 H953 0.950 . S
C965 C961 1.393 . S
C965 C964 1.391 . S
C966 H956 0.950 . S
C966 C967 1.386 . S
C966 C968 1.391 . S
C967 C966 1.386 . S
C967 C971 1.393 . S
C968 H957 0.950 . S
C968 C966 1.391 . S
C968 C969 1.400 . S
C969 C963 1.491 . S
C969 C968 1.400 . S
C969 C970 1.398 . S
C970 H958 0.950 . S
C970 C969 1.398 . S
C970 C971 1.391 . S
C971 H959 0.950 . S
C971 C967 1.393 . S
C971 C970 1.391 . S
H972 C980 0.950 . S
H973 C985 0.950 . S
H974 C982 0.950 . S
H975 C984 0.950 . S
H976 C986 0.950 . S
H977 C988 0.950 . S
H978 C990 0.950 . S
H979 C991 0.950 . S
C980 H972 0.950 . S
C980 C981 1.386 . S
C980 C982 1.391 . S
C981 C980 1.386 . S
C981 C985 1.393 . S
C982 H974 0.950 . S
C982 C980 1.391 . S
C982 C983 1.400 . S
C983 C982 1.400 . S
C983 C984 1.398 . S
C983 C989 1.491 . S
C984 H975 0.950 . S
C984 C983 1.398 . S
C984 C985 1.391 . S
C985 H973 0.950 . S
C985 C981 1.393 . S
C985 C984 1.391 . S
C986 H976 0.950 . S
C986 C987 1.386 . S
C986 C988 1.391 . S
C987 C986 1.386 . S
C987 C991 1.393 . S
C988 H977 0.950 . S
C988 C986 1.391 . S
C988 C989 1.400 . S
C989 C983 1.491 . S
C989 C988 1.400 . S
C989 C990 1.398 . S
C990 H978 0.950 . S
C990 C989 1.398 . S
C990 C991 1.391 . S
C991 H979 0.950 . S
C991 C987 1.393 . S
C991 C990 1.391 . S
H992 C1000 0.950 . S
H993 C1005 0.950 . S
H994 C1002 0.950 . S
H995 C1004 0.950 . S
H996 C1006 0.950 . S
H997 C1008 0.950 . S
H998 C1010 0.950 . S
H999 C1011 0.950 . S
C1000 H992 0.950 . S
C1000 C1001 1.386 . S
C1000 C1002 1.391 . S
C1001 C1000 1.386 . S
C1001 C1005 1.393 . S
C1002 H994 0.950 . S
C1002 C1000 1.391 . S
C1002 C1003 1.400 . S
C1003 C1002 1.400 . S
C1003 C1004 1.398 . S
C1003 C1009 1.491 . S
C1004 H995 0.950 . S
C1004 C1003 1.398 . S
C1004 C1005 1.391 . S
C1005 H993 0.950 . S
C1005 C1001 1.393 . S
C1005 C1004 1.391 . S
C1006 H996 0.950 . S
C1006 C1007 1.386 . S
C1006 C1008 1.391 . S
C1007 C1006 1.386 . S
C1007 C1011 1.393 . S
C1008 H997 0.950 . S
C1008 C1006 1.391 . S
C1008 C1009 1.400 . S
C1009 C1003 1.491 . S
C1009 C1008 1.400 . S
C1009 C1010 1.398 . S
C1010 H998 0.950 . S
C1010 C1009 1.398 . S
C1010 C1011 1.391 . S
C1011 H999 0.950 . S
C1011 C1007 1.393 . S
C1011 C1010 1.391 . S
H1012 C1020 0.950 . S
H1013 C1025 0.950 . S
H1014 C1022 0.950 . S
H1015 C1024 0.950 . S
H1016 C1026 0.950 . S
H1017 C1028 0.950 . S
H1018 C1030 0.950 . S
H1019 C1031 0.950 . S
C1020 H1012 0.950 . S
C1020 C1021 1.386 . S
C1020 C1022 1.391 . S
C1021 C1020 1.386 . S
C1021 C1025 1.393 . S
C1022 H1014 0.950 . S
C1022 C1020 1.391 . S
C1022 C1023 1.400 . S
C1023 C1022 1.400 . S
C1023 C1024 1.398 . S
C1023 C1029 1.491 . S
C1024 H1015 0.950 . S
C1024 C1023 1.398 . S
C1024 C1025 1.391 . S
C1025 H1013 0.950 . S
C1025 C1021 1.393 . S
C1025 C1024 1.391 . S
C1026 H1016 0.950 . S
C1026 C1027 1.386 . S
C1026 C1028 1.391 . S
C1027 C1026 1.386 . S
C1027 C1031 1.393 . S
C1028 H1017 0.950 . S
C1028 C1026 1.391 . S
C1028 C1029 1.400 . S
C1029 C1023 1.491 . S
C1029 C1028 1.400 . S
C1029 C1030 1.398 . S
C1030 H1018 0.950 . S
C1030 C1029 1.398 . S
C1030 C1031 1.391 . S
C1031 H1019 0.950 . S
C1031 C1027 1.393 . S
C1031 C1030 1.391 . S
H1032 C1040 0.950 . S
H1033 C1045 0.950 . S
H1034 C1042 0.950 . S
H1035 C1044 0.950 . S
H1036 C1046 0.950 . S
H1037 C1048 0.950 . S
H1038 C1050 0.950 . S
H1039 C1051 0.950 1_565 S
C1040 H1032 0.950 . S
C1040 C1041 1.386 . S
C1040 C1042 1.391 . S
C1041 C1040 1.386 . S
C1041 C1045 1.393 . S
C1042 H1034 0.950 . S
C1042 C1040 1.391 . S
C1042 C1043 1.400 . S
C1043 C1042 1.400 . S
C1043 C1044 1.398 . S
C1043 C1049 1.491 . S
C1044 H1035 0.950 . S
C1044 C1043 1.398 . S
C1044 C1045 1.391 . S
C1045 H1033 0.950 . S
C1045 C1041 1.393 . S
C1045 C1044 1.391 . S
C1046 H1036 0.950 . S
C1046 C1047 1.386 . S
C1046 C1048 1.391 . S
C1047 C1046 1.386 . S
C1047 C1051 1.393 . S
C1048 H1037 0.950 . S
C1048 C1046 1.391 . S
C1048 C1049 1.400 . S
C1049 C1043 1.491 . S
C1049 C1048 1.400 . S
C1049 C1050 1.398 . S
C1050 H1038 0.950 . S
C1050 C1049 1.398 . S
C1050 C1051 1.391 . S
C1051 H1039 0.950 1_545 S
C1051 C1047 1.393 . S
C1051 C1050 1.391 . S
H1052 C1060 0.950 . S
H1053 C1065 0.950 . S
H1054 C1062 0.950 . S
H1055 C1064 0.950 . S
H1056 C1066 0.950 . S
H1057 C1068 0.950 . S
H1058 C1070 0.950 . S
H1059 C1071 0.950 . S
C1060 H1052 0.950 . S
C1060 C1061 1.386 . S
C1060 C1062 1.391 . S
C1061 C1060 1.386 . S
C1061 C1065 1.393 . S
C1062 H1054 0.950 . S
C1062 C1060 1.391 . S
C1062 C1063 1.400 . S
C1063 C1062 1.400 . S
C1063 C1064 1.398 . S
C1063 C1069 1.491 . S
C1064 H1055 0.950 . S
C1064 C1063 1.398 . S
C1064 C1065 1.391 . S
C1065 H1053 0.950 . S
C1065 C1061 1.393 . S
C1065 C1064 1.391 . S
C1066 H1056 0.950 . S
C1066 C1067 1.386 . S
C1066 C1068 1.391 . S
C1067 C1066 1.386 . S
C1067 C1071 1.393 . S
C1068 H1057 0.950 . S
C1068 C1066 1.391 . S
C1068 C1069 1.400 . S
C1069 C1063 1.491 . S
C1069 C1068 1.400 . S
C1069 C1070 1.398 . S
C1070 H1058 0.950 . S
C1070 C1069 1.398 . S
C1070 C1071 1.391 . S
C1071 H1059 0.950 . S
C1071 C1067 1.393 . S
C1071 C1070 1.391 . S
H1072 C1080 0.950 . S
H1073 C1085 0.950 . S
H1074 C1082 0.950 . S
H1075 C1084 0.950 . S
H1076 C1086 0.950 . S
H1077 C1088 0.950 . S
H1078 C1090 0.950 . S
H1079 C1091 0.950 . S
C1080 H1072 0.950 . S
C1080 C1081 1.386 . S
C1080 C1082 1.391 . S
C1081 C1080 1.386 . S
C1081 C1085 1.393 . S
C1082 H1074 0.950 . S
C1082 C1080 1.391 . S
C1082 C1083 1.400 . S
C1083 C1082 1.400 . S
C1083 C1084 1.398 . S
C1083 C1089 1.491 . S
C1084 H1075 0.950 . S
C1084 C1083 1.398 . S
C1084 C1085 1.391 . S
C1085 H1073 0.950 . S
C1085 C1081 1.393 . S
C1085 C1084 1.391 . S
C1086 H1076 0.950 . S
C1086 C1087 1.386 . S
C1086 C1088 1.391 . S
C1087 C1086 1.386 . S
C1087 C1091 1.393 . S
C1088 H1077 0.950 . S
C1088 C1086 1.391 . S
C1088 C1089 1.400 . S
C1089 C1083 1.491 . S
C1089 C1088 1.400 . S
C1089 C1090 1.398 . S
C1090 H1078 0.950 . S
C1090 C1089 1.398 . S
C1090 C1091 1.391 . S
C1091 H1079 0.950 . S
C1091 C1087 1.393 . S
C1091 C1090 1.391 . S
H1092 C1100 0.950 . S
H1093 C1105 0.950 . S
H1094 C1102 0.950 . S
H1095 C1104 0.950 . S
H1096 C1106 0.950 . S
H1097 C1108 0.950 . S
H1098 C1110 0.950 . S
H1099 C1111 0.950 . S
C1100 H1092 0.950 . S
C1100 C1101 1.386 . S
C1100 C1102 1.391 . S
C1101 C1100 1.386 . S
C1101 C1105 1.393 . S
C1102 H1094 0.950 . S
C1102 C1100 1.391 . S
C1102 C1103 1.400 . S
C1103 C1102 1.400 . S
C1103 C1104 1.398 . S
C1103 C1109 1.491 . S
C1104 H1095 0.950 . S
C1104 C1103 1.398 . S
C1104 C1105 1.391 . S
C1105 H1093 0.950 . S
C1105 C1101 1.393 . S
C1105 C1104 1.391 . S
C1106 H1096 0.950 . S
C1106 C1107 1.386 . S
C1106 C1108 1.391 . S
C1107 C1106 1.386 . S
C1107 C1111 1.393 . S
C1108 H1097 0.950 . S
C1108 C1106 1.391 . S
C1108 C1109 1.400 . S
C1109 C1103 1.491 . S
C1109 C1108 1.400 . S
C1109 C1110 1.398 . S
C1110 H1098 0.950 . S
C1110 C1109 1.398 . S
C1110 C1111 1.391 . S
C1111 H1099 0.950 . S
C1111 C1107 1.393 . S
C1111 C1110 1.391 . S
H1112 C1120 0.950 1_455 S
H1113 C1125 0.950 . S
H1114 C1122 0.950 . S
H1115 C1124 0.950 . S
H1116 C1126 0.950 . S
H1117 C1128 0.950 . S
H1118 C1130 0.950 . S
H1119 C1131 0.950 . S
C1120 H1112 0.950 1_655 S
C1120 C1121 1.386 . S
C1120 C1122 1.391 . S
C1121 C1120 1.386 . S
C1121 C1125 1.393 . S
C1122 H1114 0.950 . S
C1122 C1120 1.391 . S
C1122 C1123 1.400 . S
C1123 C1122 1.400 . S
C1123 C1124 1.398 . S
C1123 C1129 1.491 . S
C1124 H1115 0.950 . S
C1124 C1123 1.398 . S
C1124 C1125 1.391 . S
C1125 H1113 0.950 . S
C1125 C1121 1.393 . S
C1125 C1124 1.391 . S
C1126 H1116 0.950 . S
C1126 C1127 1.386 . S
C1126 C1128 1.391 . S
C1127 C1126 1.386 . S
C1127 C1131 1.393 . S
C1128 H1117 0.950 . S
C1128 C1126 1.391 . S
C1128 C1129 1.400 . S
C1129 C1123 1.491 . S
C1129 C1128 1.400 . S
C1129 C1130 1.398 . S
C1130 H1118 0.950 . S
C1130 C1129 1.398 . S
C1130 C1131 1.391 . S
C1131 H1119 0.950 . S
C1131 C1127 1.393 . S
C1131 C1130 1.391 . S
H1132 C1140 0.950 . S
H1133 C1145 0.950 . S
H1134 C1142 0.950 . S
H1135 C1144 0.950 . S
H1136 C1146 0.950 . S
H1137 C1148 0.950 . S
H1138 C1150 0.950 . S
H1139 C1151 0.950 . S
C1140 H1132 0.950 . S
C1140 C1141 1.386 . S
C1140 C1142 1.391 . S
C1141 C1140 1.386 . S
C1141 C1145 1.393 . S
C1142 H1134 0.950 . S
C1142 C1140 1.391 . S
C1142 C1143 1.400 . S
C1143 C1142 1.400 . S
C1143 C1144 1.398 . S
C1143 C1149 1.491 . S
C1144 H1135 0.950 . S
C1144 C1143 1.398 . S
C1144 C1145 1.391 . S
C1145 H1133 0.950 . S
C1145 C1141 1.393 . S
C1145 C1144 1.391 . S
C1146 H1136 0.950 . S
C1146 C1147 1.386 . S
C1146 C1148 1.391 . S
C1147 C1146 1.386 . S
C1147 C1151 1.393 . S
C1148 H1137 0.950 . S
C1148 C1146 1.391 . S
C1148 C1149 1.400 . S
C1149 C1143 1.491 . S
C1149 C1148 1.400 . S
C1149 C1150 1.398 . S
C1150 H1138 0.950 . S
C1150 C1149 1.398 . S
C1150 C1151 1.391 . S
C1151 H1139 0.950 . S
C1151 C1147 1.393 . S
C1151 C1150 1.391 . S
H1152 C1160 0.950 . S
H1153 C1165 0.950 . S
H1154 C1162 0.950 . S
H1155 C1164 0.950 . S
H1156 C1166 0.950 . S
H1157 C1168 0.950 . S
H1158 C1170 0.950 . S
H1159 C1171 0.950 . S
C1160 H1152 0.950 . S
C1160 C1161 1.386 . S
C1160 C1162 1.391 . S
C1161 C1160 1.386 . S
C1161 C1165 1.393 . S
C1162 H1154 0.950 . S
C1162 C1160 1.391 . S
C1162 C1163 1.400 . S
C1163 C1162 1.400 . S
C1163 C1164 1.398 . S
C1163 C1169 1.491 . S
C1164 H1155 0.950 . S
C1164 C1163 1.398 . S
C1164 C1165 1.391 . S
C1165 H1153 0.950 . S
C1165 C1161 1.393 . S
C1165 C1164 1.391 . S
C1166 H1156 0.950 . S
C1166 C1167 1.386 . S
C1166 C1168 1.391 . S
C1167 C1166 1.386 . S
C1167 C1171 1.393 . S
C1168 H1157 0.950 . S
C1168 C1166 1.391 . S
C1168 C1169 1.400 . S
C1169 C1163 1.491 . S
C1169 C1168 1.400 . S
C1169 C1170 1.398 . S
C1170 H1158 0.950 . S
C1170 C1169 1.398 . S
C1170 C1171 1.391 . S
C1171 H1159 0.950 . S
C1171 C1167 1.393 . S
C1171 C1170 1.391 . S
H1172 C1180 0.950 . S
H1173 C1185 0.950 . S
H1174 C1182 0.950 . S
H1175 C1184 0.950 . S
H1176 C1186 0.950 . S
H1177 C1188 0.950 . S
H1178 C1190 0.950 . S
H1179 C1191 0.950 . S
C1180 H1172 0.950 . S
C1180 C1181 1.386 . S
C1180 C1182 1.391 . S
C1181 C1180 1.386 . S
C1181 C1185 1.393 . S
C1182 H1174 0.950 . S
C1182 C1180 1.391 . S
C1182 C1183 1.400 . S
C1183 C1182 1.400 . S
C1183 C1184 1.398 . S
C1183 C1189 1.491 . S
C1184 H1175 0.950 . S
C1184 C1183 1.398 . S
C1184 C1185 1.391 . S
C1185 H1173 0.950 . S
C1185 C1181 1.393 . S
C1185 C1184 1.391 . S
C1186 H1176 0.950 . S
C1186 C1187 1.386 . S
C1186 C1188 1.391 . S
C1187 C1186 1.386 . S
C1187 C1191 1.393 . S
C1188 H1177 0.950 . S
C1188 C1186 1.391 . S
C1188 C1189 1.400 . S
C1189 C1183 1.491 . S
C1189 C1188 1.400 . S
C1189 C1190 1.398 . S
C1190 H1178 0.950 . S
C1190 C1189 1.398 . S
C1190 C1191 1.391 . S
C1191 H1179 0.950 . S
C1191 C1187 1.393 . S
C1191 C1190 1.391 . S
H1192 C1200 0.950 . S
H1193 C1205 0.950 . S
H1194 C1202 0.950 . S
H1195 C1204 0.950 . S
H1196 C1206 0.950 . S
H1197 C1208 0.950 . S
H1198 C1210 0.950 . S
H1199 C1211 0.950 . S
C1200 H1192 0.950 . S
C1200 C1201 1.386 . S
C1200 C1202 1.391 . S
C1201 C1200 1.386 . S
C1201 C1205 1.393 . S
C1202 H1194 0.950 . S
C1202 C1200 1.391 . S
C1202 C1203 1.400 . S
C1203 C1202 1.400 . S
C1203 C1204 1.398 . S
C1203 C1209 1.491 . S
C1204 H1195 0.950 . S
C1204 C1203 1.398 . S
C1204 C1205 1.391 . S
C1205 H1193 0.950 . S
C1205 C1201 1.393 . S
C1205 C1204 1.391 . S
C1206 H1196 0.950 . S
C1206 C1207 1.386 . S
C1206 C1208 1.391 . S
C1207 C1206 1.386 . S
C1207 C1211 1.393 . S
C1208 H1197 0.950 . S
C1208 C1206 1.391 . S
C1208 C1209 1.400 . S
C1209 C1203 1.491 . S
C1209 C1208 1.400 . S
C1209 C1210 1.398 . S
C1210 H1198 0.950 . S
C1210 C1209 1.398 . S
C1210 C1211 1.391 . S
C1211 H1199 0.950 . S
C1211 C1207 1.393 . S
C1211 C1210 1.391 . S
H1212 C1220 0.950 . S
H1213 C1225 0.950 . S
H1214 C1222 0.950 . S
H1215 C1224 0.950 . S
H1216 C1226 0.950 . S
H1217 C1228 0.950 . S
H1218 C1230 0.950 . S
H1219 C1231 0.950 . S
C1220 H1212 0.950 . S
C1220 C1221 1.386 . S
C1220 C1222 1.391 . S
C1221 C1220 1.386 . S
C1221 C1225 1.393 . S
C1222 H1214 0.950 . S
C1222 C1220 1.391 . S
C1222 C1223 1.400 . S
C1223 C1222 1.400 . S
C1223 C1224 1.398 . S
C1223 C1229 1.491 . S
C1224 H1215 0.950 . S
C1224 C1223 1.398 . S
C1224 C1225 1.391 . S
C1225 H1213 0.950 . S
C1225 C1221 1.393 . S
C1225 C1224 1.391 . S
C1226 H1216 0.950 . S
C1226 C1227 1.386 . S
C1226 C1228 1.391 . S
C1227 C1226 1.386 . S
C1227 C1231 1.393 . S
C1228 H1217 0.950 . S
C1228 C1226 1.391 . S
C1228 C1229 1.400 . S
C1229 C1223 1.491 . S
C1229 C1228 1.400 . S
C1229 C1230 1.398 . S
C1230 H1218 0.950 . S
C1230 C1229 1.398 . S
C1230 C1231 1.391 . S
C1231 H1219 0.950 . S
C1231 C1227 1.393 . S
C1231 C1230 1.391 . S
H1232 C1240 0.950 . S
H1233 C1245 0.950 . S
H1234 C1242 0.950 . S
H1235 C1244 0.950 . S
H1236 C1246 0.950 . S
H1237 C1248 0.950 . S
H1238 C1250 0.950 . S
H1239 C1251 0.950 . S
C1240 H1232 0.950 . S
C1240 C1241 1.386 . S
C1240 C1242 1.391 . S
C1241 C1240 1.386 . S
C1241 C1245 1.393 . S
C1242 H1234 0.950 . S
C1242 C1240 1.391 . S
C1242 C1243 1.400 . S
C1243 C1242 1.400 . S
C1243 C1244 1.398 . S
C1243 C1249 1.491 . S
C1244 H1235 0.950 . S
C1244 C1243 1.398 . S
C1244 C1245 1.391 . S
C1245 H1233 0.950 . S
C1245 C1241 1.393 . S
C1245 C1244 1.391 . S
C1246 H1236 0.950 . S
C1246 C1247 1.386 . S
C1246 C1248 1.391 . S
C1247 C1246 1.386 . S
C1247 C1251 1.393 . S
C1248 H1237 0.950 . S
C1248 C1246 1.391 . S
C1248 C1249 1.400 . S
C1249 C1243 1.491 . S
C1249 C1248 1.400 . S
C1249 C1250 1.398 . S
C1250 H1238 0.950 . S
C1250 C1249 1.398 . S
C1250 C1251 1.391 . S
C1251 H1239 0.950 . S
C1251 C1247 1.393 . S
C1251 C1250 1.391 . S
H1252 C1260 0.950 . S
H1253 C1265 0.950 . S
H1254 C1262 0.950 . S
H1255 C1264 0.950 . S
H1256 C1266 0.950 . S
H1257 C1268 0.950 . S
H1258 C1270 0.950 . S
H1259 C1271 0.950 . S
C1260 H1252 0.950 . S
C1260 C1261 1.386 . S
C1260 C1262 1.391 . S
C1261 C1260 1.386 . S
C1261 C1265 1.393 . S
C1262 H1254 0.950 . S
C1262 C1260 1.391 . S
C1262 C1263 1.400 . S
C1263 C1262 1.400 . S
C1263 C1264 1.398 . S
C1263 C1269 1.491 . S
C1264 H1255 0.950 . S
C1264 C1263 1.398 . S
C1264 C1265 1.391 . S
C1265 H1253 0.950 . S
C1265 C1261 1.393 . S
C1265 C1264 1.391 . S
C1266 H1256 0.950 . S
C1266 C1267 1.386 . S
C1266 C1268 1.391 . S
C1267 C1266 1.386 . S
C1267 C1271 1.393 . S
C1268 H1257 0.950 . S
C1268 C1266 1.391 . S
C1268 C1269 1.400 . S
C1269 C1263 1.491 . S
C1269 C1268 1.400 . S
C1269 C1270 1.398 . S
C1270 H1258 0.950 . S
C1270 C1269 1.398 . S
C1270 C1271 1.391 . S
C1271 H1259 0.950 . S
C1271 C1267 1.393 . S
C1271 C1270 1.391 . S
H1272 C1280 0.950 . S
H1273 C1285 0.950 . S
H1274 C1282 0.950 . S
H1275 C1284 0.950 . S
H1276 C1286 0.950 . S
H1277 C1288 0.950 . S
H1278 C1290 0.950 . S
H1279 C1291 0.950 . S
C1280 H1272 0.950 . S
C1280 C1281 1.386 . S
C1280 C1282 1.391 . S
C1281 C1280 1.386 . S
C1281 C1285 1.393 . S
C1282 H1274 0.950 . S
C1282 C1280 1.391 . S
C1282 C1283 1.400 . S
C1283 C1282 1.400 . S
C1283 C1284 1.398 . S
C1283 C1289 1.491 . S
C1284 H1275 0.950 . S
C1284 C1283 1.398 . S
C1284 C1285 1.391 . S
C1285 H1273 0.950 . S
C1285 C1281 1.393 . S
C1285 C1284 1.391 . S
C1286 H1276 0.950 . S
C1286 C1287 1.386 . S
C1286 C1288 1.391 . S
C1287 C1286 1.386 . S
C1287 C1291 1.393 . S
C1288 H1277 0.950 . S
C1288 C1286 1.391 . S
C1288 C1289 1.400 . S
C1289 C1283 1.491 . S
C1289 C1288 1.400 . S
C1289 C1290 1.398 . S
C1290 H1278 0.950 . S
C1290 C1289 1.398 . S
C1290 C1291 1.391 . S
C1291 H1279 0.950 . S
C1291 C1287 1.393 . S
C1291 C1290 1.391 . S
H1292 C1300 0.950 . S
H1293 C1305 0.950 . S
H1294 C1302 0.950 . S
H1295 C1304 0.950 . S
H1296 C1306 0.950 . S
H1297 C1308 0.950 . S
H1298 C1310 0.950 . S
H1299 C1311 0.950 . S
C1300 H1292 0.950 . S
C1300 C1301 1.386 . S
C1300 C1302 1.391 . S
C1301 C1300 1.386 . S
C1301 C1305 1.393 . S
C1302 H1294 0.950 . S
C1302 C1300 1.391 . S
C1302 C1303 1.400 . S
C1303 C1302 1.400 . S
C1303 C1304 1.398 . S
C1303 C1309 1.491 . S
C1304 H1295 0.950 . S
C1304 C1303 1.398 . S
C1304 C1305 1.391 . S
C1305 H1293 0.950 . S
C1305 C1301 1.393 . S
C1305 C1304 1.391 . S
C1306 H1296 0.950 . S
C1306 C1307 1.386 . S
C1306 C1308 1.391 . S
C1307 C1306 1.386 . S
C1307 C1311 1.393 . S
C1308 H1297 0.950 . S
C1308 C1306 1.391 . S
C1308 C1309 1.400 . S
C1309 C1303 1.491 . S
C1309 C1308 1.400 . S
C1309 C1310 1.398 . S
C1310 H1298 0.950 . S
C1310 C1309 1.398 . S
C1310 C1311 1.391 . S
C1311 H1299 0.950 . S
C1311 C1307 1.393 . S
C1311 C1310 1.391 . S
H1312 C1320 0.950 . S
H1313 C1325 0.950 . S
H1314 C1322 0.950 . S
H1315 C1324 0.950 . S
H1316 C1326 0.950 . S
H1317 C1328 0.950 . S
H1318 C1330 0.950 . S
H1319 C1331 0.950 . S
C1320 H1312 0.950 . S
C1320 C1321 1.386 . S
C1320 C1322 1.391 . S
C1321 C1320 1.386 . S
C1321 C1325 1.393 . S
C1322 H1314 0.950 . S
C1322 C1320 1.391 . S
C1322 C1323 1.400 . S
C1323 C1322 1.400 . S
C1323 C1324 1.398 . S
C1323 C1329 1.491 . S
C1324 H1315 0.950 . S
C1324 C1323 1.398 . S
C1324 C1325 1.391 . S
C1325 H1313 0.950 . S
C1325 C1321 1.393 . S
C1325 C1324 1.391 . S
C1326 H1316 0.950 . S
C1326 C1327 1.386 . S
C1326 C1328 1.391 . S
C1327 C1326 1.386 . S
C1327 C1331 1.393 . S
C1328 H1317 0.950 . S
C1328 C1326 1.391 . S
C1328 C1329 1.400 . S
C1329 C1323 1.491 . S
C1329 C1328 1.400 . S
C1329 C1330 1.398 . S
C1330 H1318 0.950 . S
C1330 C1329 1.398 . S
C1330 C1331 1.391 . S
C1331 H1319 0.950 . S
C1331 C1327 1.393 . S
C1331 C1330 1.391 . S
H1332 C1340 0.950 . S
H1333 C1345 0.950 . S
H1334 C1342 0.950 . S
H1335 C1344 0.950 . S
H1336 C1346 0.950 . S
H1337 C1348 0.950 . S
H1338 C1350 0.950 . S
H1339 C1351 0.950 . S
C1340 H1332 0.950 . S
C1340 C1341 1.386 . S
C1340 C1342 1.391 . S
C1341 C1340 1.386 . S
C1341 C1345 1.393 . S
C1342 H1334 0.950 . S
C1342 C1340 1.391 . S
C1342 C1343 1.400 . S
C1343 C1342 1.400 . S
C1343 C1344 1.398 . S
C1343 C1349 1.491 . S
C1344 H1335 0.950 . S
C1344 C1343 1.398 . S
C1344 C1345 1.391 . S
C1345 H1333 0.950 . S
C1345 C1341 1.393 . S
C1345 C1344 1.391 . S
C1346 H1336 0.950 . S
C1346 C1347 1.386 . S
C1346 C1348 1.391 . S
C1347 C1346 1.386 . S
C1347 C1351 1.393 . S
C1348 H1337 0.950 . S
C1348 C1346 1.391 . S
C1348 C1349 1.400 . S
C1349 C1343 1.491 . S
C1349 C1348 1.400 . S
C1349 C1350 1.398 . S
C1350 H1338 0.950 . S
C1350 C1349 1.398 . S
C1350 C1351 1.391 . S
C1351 H1339 0.950 . S
C1351 C1347 1.393 . S
C1351 C1350 1.391 . S
H1352 C1360 0.950 . S
H1353 C1365 0.950 . S
H1354 C1362 0.950 . S
H1355 C1364 0.950 . S
H1356 C1366 0.950 . S
H1357 C1368 0.950 . S
H1358 C1370 0.950 . S
H1359 C1371 0.950 . S
C1360 H1352 0.950 . S
C1360 C1361 1.386 . S
C1360 C1362 1.391 . S
C1361 C1360 1.386 . S
C1361 C1365 1.393 . S
C1362 H1354 0.950 . S
C1362 C1360 1.391 . S
C1362 C1363 1.400 . S
C1363 C1362 1.400 . S
C1363 C1364 1.398 . S
C1363 C1369 1.491 . S
C1364 H1355 0.950 . S
C1364 C1363 1.398 . S
C1364 C1365 1.391 . S
C1365 H1353 0.950 . S
C1365 C1361 1.393 . S
C1365 C1364 1.391 . S
C1366 H1356 0.950 . S
C1366 C1367 1.386 . S
C1366 C1368 1.391 . S
C1367 C1366 1.386 . S
C1367 C1371 1.393 . S
C1368 H1357 0.950 . S
C1368 C1366 1.391 . S
C1368 C1369 1.400 . S
C1369 C1363 1.491 . S
C1369 C1368 1.400 . S
C1369 C1370 1.398 . S
C1370 H1358 0.950 . S
C1370 C1369 1.398 . S
C1370 C1371 1.391 . S
C1371 H1359 0.950 . S
C1371 C1367 1.393 . S
C1371 C1370 1.391 . S
H1372 C1380 0.950 . S
H1373 C1385 0.950 . S
H1374 C1382 0.950 . S
H1375 C1384 0.950 . S
H1376 C1386 0.950 . S
H1377 C1388 0.950 . S
H1378 C1390 0.950 . S
H1379 C1391 0.950 . S
C1380 H1372 0.950 . S
C1380 C1381 1.386 . S
C1380 C1382 1.391 . S
C1381 C1380 1.386 . S
C1381 C1385 1.393 . S
C1382 H1374 0.950 . S
C1382 C1380 1.391 . S
C1382 C1383 1.400 . S
C1383 C1382 1.400 . S
C1383 C1384 1.398 . S
C1383 C1389 1.491 . S
C1384 H1375 0.950 . S
C1384 C1383 1.398 . S
C1384 C1385 1.391 . S
C1385 H1373 0.950 . S
C1385 C1381 1.393 . S
C1385 C1384 1.391 . S
C1386 H1376 0.950 . S
C1386 C1387 1.386 . S
C1386 C1388 1.391 . S
C1387 C1386 1.386 . S
C1387 C1391 1.393 . S
C1388 H1377 0.950 . S
C1388 C1386 1.391 . S
C1388 C1389 1.400 . S
C1389 C1383 1.491 . S
C1389 C1388 1.400 . S
C1389 C1390 1.398 . S
C1390 H1378 0.950 . S
C1390 C1389 1.398 . S
C1390 C1391 1.391 . S
C1391 H1379 0.950 . S
C1391 C1387 1.393 . S
C1391 C1390 1.391 . S
H1392 C1400 0.950 . S
H1393 C1405 0.950 . S
H1394 C1402 0.950 . S
H1395 C1404 0.950 . S
H1396 C1406 0.950 . S
H1397 C1408 0.950 . S
H1398 C1410 0.950 . S
H1399 C1411 0.950 . S
C1400 H1392 0.950 . S
C1400 C1401 1.386 . S
C1400 C1402 1.391 . S
C1401 C1400 1.386 . S
C1401 C1405 1.393 . S
C1402 H1394 0.950 . S
C1402 C1400 1.391 . S
C1402 C1403 1.400 . S
C1403 C1402 1.400 . S
C1403 C1404 1.398 . S
C1403 C1409 1.491 . S
C1404 H1395 0.950 . S
C1404 C1403 1.398 . S
C1404 C1405 1.391 . S
C1405 H1393 0.950 . S
C1405 C1401 1.393 . S
C1405 C1404 1.391 . S
C1406 H1396 0.950 . S
C1406 C1407 1.386 . S
C1406 C1408 1.391 . S
C1407 C1406 1.386 . S
C1407 C1411 1.393 . S
C1408 H1397 0.950 . S
C1408 C1406 1.391 . S
C1408 C1409 1.400 . S
C1409 C1403 1.491 . S
C1409 C1408 1.400 . S
C1409 C1410 1.398 . S
C1410 H1398 0.950 . S
C1410 C1409 1.398 . S
C1410 C1411 1.391 . S
C1411 H1399 0.950 . S
C1411 C1407 1.393 . S
C1411 C1410 1.391 . S
H1412 C1420 0.950 . S
H1413 C1425 0.950 . S
H1414 C1422 0.950 . S
H1415 C1424 0.950 . S
H1416 C1426 0.950 . S
H1417 C1428 0.950 . S
H1418 C1430 0.950 . S
H1419 C1431 0.950 . S
C1420 H1412 0.950 . S
C1420 C1421 1.386 . S
C1420 C1422 1.391 . S
C1421 C1420 1.386 . S
C1421 C1425 1.393 . S
C1422 H1414 0.950 . S
C1422 C1420 1.391 . S
C1422 C1423 1.400 . S
C1423 C1422 1.400 . S
C1423 C1424 1.398 . S
C1423 C1429 1.491 . S
C1424 H1415 0.950 . S
C1424 C1423 1.398 . S
C1424 C1425 1.391 . S
C1425 H1413 0.950 . S
C1425 C1421 1.393 . S
C1425 C1424 1.391 . S
C1426 H1416 0.950 . S
C1426 C1427 1.386 . S
C1426 C1428 1.391 . S
C1427 C1426 1.386 . S
C1427 C1431 1.393 . S
C1428 H1417 0.950 . S
C1428 C1426 1.391 . S
C1428 C1429 1.400 . S
C1429 C1423 1.491 . S
C1429 C1428 1.400 . S
C1429 C1430 1.398 . S
C1430 H1418 0.950 . S
C1430 C1429 1.398 . S
C1430 C1431 1.391 . S
C1431 H1419 0.950 . S
C1431 C1427 1.393 . S
C1431 C1430 1.391 . S
H1432 C1440 0.950 . S
H1433 C1445 0.950 . S
H1434 C1442 0.950 . S
H1435 C1444 0.950 . S
H1436 C1446 0.950 . S
H1437 C1448 0.950 . S
H1438 C1450 0.950 . S
H1439 C1451 0.950 . S
C1440 H1432 0.950 . S
C1440 C1441 1.386 . S
C1440 C1442 1.391 . S
C1441 C1440 1.386 . S
C1441 C1445 1.393 . S
C1442 H1434 0.950 . S
C1442 C1440 1.391 . S
C1442 C1443 1.400 . S
C1443 C1442 1.400 . S
C1443 C1444 1.398 . S
C1443 C1449 1.491 . S
C1444 H1435 0.950 . S
C1444 C1443 1.398 . S
C1444 C1445 1.391 . S
C1445 H1433 0.950 . S
C1445 C1441 1.393 . S
C1445 C1444 1.391 . S
C1446 H1436 0.950 . S
C1446 C1447 1.386 . S
C1446 C1448 1.391 . S
C1447 C1446 1.386 . S
C1447 C1451 1.393 . S
C1448 H1437 0.950 . S
C1448 C1446 1.391 . S
C1448 C1449 1.400 . S
C1449 C1443 1.491 . S
C1449 C1448 1.400 . S
C1449 C1450 1.398 . S
C1450 H1438 0.950 . S
C1450 C1449 1.398 . S
C1450 C1451 1.391 . S
C1451 H1439 0.950 . S
C1451 C1447 1.393 . S
C1451 C1450 1.391 . S
H1452 C1460 0.950 . S
H1453 C1465 0.950 . S
H1454 C1462 0.950 . S
H1455 C1464 0.950 . S
H1456 C1466 0.950 . S
H1457 C1468 0.950 . S
H1458 C1470 0.950 . S
H1459 C1471 0.950 . S
C1460 H1452 0.950 . S
C1460 C1461 1.386 . S
C1460 C1462 1.391 . S
C1461 C1460 1.386 . S
C1461 C1465 1.393 . S
C1462 H1454 0.950 . S
C1462 C1460 1.391 . S
C1462 C1463 1.400 . S
C1463 C1462 1.400 . S
C1463 C1464 1.398 . S
C1463 C1469 1.491 . S
C1464 H1455 0.950 . S
C1464 C1463 1.398 . S
C1464 C1465 1.391 . S
C1465 H1453 0.950 . S
C1465 C1461 1.393 . S
C1465 C1464 1.391 . S
C1466 H1456 0.950 . S
C1466 C1467 1.386 . S
C1466 C1468 1.391 . S
C1467 C1466 1.386 . S
C1467 C1471 1.393 . S
C1468 H1457 0.950 . S
C1468 C1466 1.391 . S
C1468 C1469 1.400 . S
C1469 C1463 1.491 . S
C1469 C1468 1.400 . S
C1469 C1470 1.398 . S
C1470 H1458 0.950 . S
C1470 C1469 1.398 . S
C1470 C1471 1.391 . S
C1471 H1459 0.950 . S
C1471 C1467 1.393 . S
C1471 C1470 1.391 . S
C521 C98 1.244 . S
C527 N18 1.179 . S
C541 C4 1.381 . S
C547 C38 1.388 . S
C561 N77 1.220 . S
C567 C34 1.314 . S
C581 C102 1.686 . S
C587 C66 1.689 . S
C601 C157 1.436 . S
C607 C164 1.407 . S
C621 N178 0.356 . S
C627 N205 0.371 . S
C641 C196 1.718 . S
C647 C226 1.719 . S
C661 N146 0.334 . S
C667 N237 0.737 . S
C681 C317 1.570 . S
C687 C29 1.563 . S
C701 C349 1.396 . S
C707 N50 1.297 . S
C721 C70 1.404 . S
C727 C422 1.416 . S
C741 C285 1.370 . S
C747 N114 1.258 . S
C761 N365 1.292 . S
C767 C132 1.390 . S
C781 C477 1.561 . S
C787 C189 1.563 . S
C801 C221 1.371 . S
C807 N402 1.257 . S
C821 C486 1.410 . S
C827 C230 1.410 . S
C841 N269 0.399 . S
C847 N429 0.731 . S
C861 C292 1.396 . S
C867 C260 1.432 . S
C881 N333 0.417 . S
C887 N306 0.318 . S
C901 N466 1.198 . S
C907 C358 1.237 . S
C921 C386 1.325 . S
C927 N493 1.229 . S
C941 C356 1.402 . S
C947 N13 1.342 . S
C961 C388 1.451 . S
C967 C6 1.442 . S
C981 C413 1.402 . S
C987 N82 1.313 . S
C1001 C93 1.836 . S
C1007 C381 1.838 . S
C1021 C294 1.446 . S
C1027 C130 1.453 . S
C1041 N301 0.428 . S
C1047 N210 0.501 . S
C1061 C445 1.811 . S
C1067 C198 1.803 . S
C1081 N141 0.498 . S
C1087 N434 0.567 . S
C1101 C162 1.874 . S
C1107 C2 1.872 . S
C1121 C322 1.447 . S
C1127 N397 1.379 . S
C1141 C68 1.404 . S
C1147 C228 1.393 . S
C1161 C258 1.462 . S
C1167 N370 1.382 . S
C1181 N109 1.405 . S
C1187 C134 1.475 . S
C1201 C290 1.873 . S
C1207 C450 1.877 . S
C1221 C194 1.440 . S
C1227 N45 1.369 . S
C1241 C484 1.396 . S
C1247 C420 1.402 . S
C1261 N274 0.483 . S
C1267 N242 0.584 . S
C1281 C262 1.449 . S
C1287 C166 1.449 . S
C1301 N338 0.519 . S
C1307 N173 0.450 . S
C1321 C125 1.401 . S
C1327 N461 1.348 . S
C1341 C61 1.402 . S
C1347 N498 1.313 . S
C1361 C390 1.403 . S
C1367 C452 1.394 . S
C1381 C354 1.684 . S
C1387 C482 1.693 . S
C1401 C324 1.718 . S
C1407 C418 1.708 . S
C1421 C454 1.443 . S
C1427 C36 1.450 . S
C1441 C100 1.846 . S
C1447 C509 1.844 . S
C1461 C253 1.816 . S
C1467 C326 1.810 . S
