# Generated by pormake.
# Topology zfj, (5)-cn, num edge types: 1
# Building blocks:
#     Node 0, Type 0, BuildingBlock: XOMCOT_clean_sbu_0, # of connection points: 5
#     Node 1, Type 0, BuildingBlock: XOMCOT_clean_sbu_0, # of connection points: 5
#     Node 2, Type 0, BuildingBlock: XOMCOT_clean_sbu_0, # of connection points: 5
#     Node 3, Type 0, BuildingBlock: XOMCOT_clean_sbu_0, # of connection points: 5
#     Node 4, Type 0, BuildingBlock: XOMCOT_clean_sbu_0, # of connection points: 5
#     Node 5, Type 0, BuildingBlock: XOMCOT_clean_sbu_0, # of connection points: 5
#     Node 6, Type 0, BuildingBlock: XOMCOT_clean_sbu_0, # of connection points: 5
#     Node 7, Type 0, BuildingBlock: XOMCOT_clean_sbu_0, # of connection points: 5
#     Node 8, Type 0, BuildingBlock: XOMCOT_clean_sbu_0, # of connection points: 5
#     Node 9, Type 0, BuildingBlock: XOMCOT_clean_sbu_0, # of connection points: 5
#     Node 10, Type 0, BuildingBlock: XOMCOT_clean_sbu_0, # of connection points: 5
#     Node 11, Type 0, BuildingBlock: XOMCOT_clean_sbu_0, # of connection points: 5
#     Node 12, Type 0, BuildingBlock: XOMCOT_clean_sbu_0, # of connection points: 5
#     Node 13, Type 0, BuildingBlock: XOMCOT_clean_sbu_0, # of connection points: 5
#     Node 14, Type 0, BuildingBlock: XOMCOT_clean_sbu_0, # of connection points: 5
#     Node 15, Type 0, BuildingBlock: XOMCOT_clean_sbu_0, # of connection points: 5
#     Edge 16, Type (0, 0), BuildingBlock: MIFKUJ_clean_linker_0, # of connection points: 2
#     Edge 17, Type (0, 0), BuildingBlock: MIFKUJ_clean_linker_0, # of connection points: 2
#     Edge 18, Type (0, 0), BuildingBlock: MIFKUJ_clean_linker_0, # of connection points: 2
#     Edge 19, Type (0, 0), BuildingBlock: MIFKUJ_clean_linker_0, # of connection points: 2
#     Edge 20, Type (0, 0), BuildingBlock: MIFKUJ_clean_linker_0, # of connection points: 2
#     Edge 21, Type (0, 0), BuildingBlock: MIFKUJ_clean_linker_0, # of connection points: 2
#     Edge 22, Type (0, 0), BuildingBlock: MIFKUJ_clean_linker_0, # of connection points: 2
#     Edge 23, Type (0, 0), BuildingBlock: MIFKUJ_clean_linker_0, # of connection points: 2
#     Edge 24, Type (0, 0), BuildingBlock: MIFKUJ_clean_linker_0, # of connection points: 2
#     Edge 25, Type (0, 0), BuildingBlock: MIFKUJ_clean_linker_0, # of connection points: 2
#     Edge 26, Type (0, 0), BuildingBlock: MIFKUJ_clean_linker_0, # of connection points: 2
#     Edge 27, Type (0, 0), BuildingBlock: MIFKUJ_clean_linker_0, # of connection points: 2
#     Edge 28, Type (0, 0), BuildingBlock: MIFKUJ_clean_linker_0, # of connection points: 2
#     Edge 29, Type (0, 0), BuildingBlock: MIFKUJ_clean_linker_0, # of connection points: 2
#     Edge 30, Type (0, 0), BuildingBlock: MIFKUJ_clean_linker_0, # of connection points: 2
#     Edge 31, Type (0, 0), BuildingBlock: MIFKUJ_clean_linker_0, # of connection points: 2
#     Edge 32, Type (0, 0), BuildingBlock: MIFKUJ_clean_linker_0, # of connection points: 2
#     Edge 33, Type (0, 0), BuildingBlock: MIFKUJ_clean_linker_0, # of connection points: 2
#     Edge 34, Type (0, 0), BuildingBlock: MIFKUJ_clean_linker_0, # of connection points: 2
#     Edge 35, Type (0, 0), BuildingBlock: MIFKUJ_clean_linker_0, # of connection points: 2
#     Edge 36, Type (0, 0), BuildingBlock: MIFKUJ_clean_linker_0, # of connection points: 2
#     Edge 37, Type (0, 0), BuildingBlock: MIFKUJ_clean_linker_0, # of connection points: 2
#     Edge 38, Type (0, 0), BuildingBlock: MIFKUJ_clean_linker_0, # of connection points: 2
#     Edge 39, Type (0, 0), BuildingBlock: MIFKUJ_clean_linker_0, # of connection points: 2
#     Edge 40, Type (0, 0), BuildingBlock: MIFKUJ_clean_linker_0, # of connection points: 2
#     Edge 41, Type (0, 0), BuildingBlock: MIFKUJ_clean_linker_0, # of connection points: 2
#     Edge 42, Type (0, 0), BuildingBlock: MIFKUJ_clean_linker_0, # of connection points: 2
#     Edge 43, Type (0, 0), BuildingBlock: MIFKUJ_clean_linker_0, # of connection points: 2
#     Edge 44, Type (0, 0), BuildingBlock: MIFKUJ_clean_linker_0, # of connection points: 2
#     Edge 45, Type (0, 0), BuildingBlock: MIFKUJ_clean_linker_0, # of connection points: 2
#     Edge 46, Type (0, 0), BuildingBlock: MIFKUJ_clean_linker_0, # of connection points: 2
#     Edge 47, Type (0, 0), BuildingBlock: MIFKUJ_clean_linker_0, # of connection points: 2
#     Edge 48, Type (0, 0), BuildingBlock: MIFKUJ_clean_linker_0, # of connection points: 2
#     Edge 49, Type (0, 0), BuildingBlock: MIFKUJ_clean_linker_0, # of connection points: 2
#     Edge 50, Type (0, 0), BuildingBlock: MIFKUJ_clean_linker_0, # of connection points: 2
#     Edge 51, Type (0, 0), BuildingBlock: MIFKUJ_clean_linker_0, # of connection points: 2
#     Edge 52, Type (0, 0), BuildingBlock: MIFKUJ_clean_linker_0, # of connection points: 2
#     Edge 53, Type (0, 0), BuildingBlock: MIFKUJ_clean_linker_0, # of connection points: 2
#     Edge 54, Type (0, 0), BuildingBlock: MIFKUJ_clean_linker_0, # of connection points: 2
#     Edge 55, Type (0, 0), BuildingBlock: MIFKUJ_clean_linker_0, # of connection points: 2
# Relax obj value: 0.188
# Max RMSD: 0.168
# Mean RMSD: 0.168
data_MOF--net-zfj--node1-XOMCOT_clean_sbu_0--edge1-MIFKUJ_clean_linker_0
_symmetry_space_group_name_H-M    P1
_symmetry_Int_Tables_number       1
_symmetry_cell_setting            triclinic
loop_
_symmetry_equiv_pos_as_xyz
'x, y, z'
_cell_length_a     44.167399
_cell_length_b     44.205771
_cell_length_c     63.68543
_cell_angle_alpha  89.939776
_cell_angle_beta   89.962099
_cell_angle_gamma 89.962085
loop_
_atom_site_label
_atom_site_type_symbol
_atom_site_fract_x
_atom_site_fract_y
_atom_site_fract_z
_atom_type_partial_charge
Co0 Co 0.51531 0.21948 0.13903 0.0
C1 C 0.50664 0.28591 0.14104 0.0
C2 C 0.46791 0.26167 0.15259 0.0
C3 C 0.46179 0.29218 0.15341 0.0
N4 N 0.49599 0.25778 0.14487 0.0
N5 N 0.48609 0.30746 0.14608 0.0
H6 H 0.52859 0.29038 0.13416 0.0
H7 H 0.45273 0.24356 0.15702 0.0
C8 C 0.504 0.18225 0.1774 0.0
O9 O 0.53286 0.17499 0.17747 0.0
N10 N 0.53393 0.18039 0.13286 0.0
C11 C 0.56195 0.17425 0.12559 0.0
C12 C 0.56525 0.14343 0.12371 0.0
C13 C 0.52028 0.15304 0.13445 0.0
N14 N 0.53909 0.12996 0.12941 0.0
C15 C 0.57594 0.23977 0.14599 0.0
C16 C 0.5722 0.24745 0.18895 0.0
C17 C 0.59992 0.25245 0.17886 0.0
C18 C 0.60136 0.24927 0.15704 0.0
C19 C 0.54699 0.23854 0.17712 0.0
N20 N 0.54966 0.23253 0.15611 0.0
H21 H 0.57749 0.23866 0.12914 0.0
H22 H 0.52538 0.23669 0.18492 0.0
H23 H 0.57906 0.19057 0.12161 0.0
H24 H 0.49699 0.15018 0.13931 0.0
O25 O 0.52876 0.23484 0.11235 0.0
O26 O 0.48513 0.21133 0.11759 0.0
O27 O 0.49356 0.20063 0.16367 0.0
C28 C 0.50351 0.22482 0.1046 0.0
H29 H 0.44097 0.30228 0.15899 0.0
H30 H 0.58573 0.13195 0.11889 0.0
H31 H 0.56993 0.25088 0.20572 0.0
H32 H 0.62217 0.25368 0.14855 0.0
Co33 Co 0.27887 0.51785 0.6477 0.0
C34 C 0.21236 0.50979 0.65146 0.0
C35 C 0.23706 0.46942 0.65929 0.0
C36 C 0.20657 0.46308 0.66008 0.0
N37 N 0.24065 0.49862 0.65386 0.0
N38 N 0.19108 0.48842 0.65513 0.0
H39 H 0.20751 0.5326 0.64626 0.0
H40 H 0.25538 0.45359 0.66185 0.0
C41 C 0.31743 0.50605 0.68536 0.0
O42 O 0.32523 0.53473 0.68497 0.0
N43 N 0.31801 0.5361 0.64112 0.0
C44 C 0.3249 0.5647 0.63535 0.0
C45 C 0.35581 0.56724 0.63328 0.0
C46 C 0.34492 0.5214 0.64144 0.0
N47 N 0.36834 0.54005 0.6372 0.0
C48 C 0.26004 0.57876 0.65495 0.0
C49 C 0.25655 0.5764 0.69823 0.0
C50 C 0.25449 0.60448 0.6881 0.0
C51 C 0.25476 0.60518 0.66616 0.0
C52 C 0.26196 0.55028 0.68623 0.0
N53 N 0.26654 0.55229 0.665 0.0
H54 H 0.25981 0.57996 0.63805 0.0
H55 H 0.26317 0.5287 0.69414 0.0
H56 H 0.30912 0.5828 0.63261 0.0
H57 H 0.34742 0.49778 0.6456 0.0
O58 O 0.26305 0.53149 0.62114 0.0
O59 O 0.28671 0.48791 0.62604 0.0
O60 O 0.29812 0.49586 0.67217 0.0
C61 C 0.27328 0.50648 0.61317 0.0
H62 H 0.19655 0.44136 0.66373 0.0
H63 H 0.36818 0.58757 0.62925 0.0
H64 H 0.25504 0.5748 0.71517 0.0
H65 H 0.25152 0.62622 0.65769 0.0
Co66 Co 0.9969 0.28906 0.14296 0.0
C67 C 0.9976 0.22231 0.14717 0.0
C68 C 0.03142 0.24297 0.16664 0.0
C69 C 0.03327 0.21203 0.16898 0.0
N70 N 0.00895 0.24942 0.15304 0.0
N71 N 0.01211 0.19909 0.15666 0.0
H72 H 0.97923 0.21958 0.1361 0.0
H73 H 0.04597 0.25945 0.17406 0.0
C74 C 0.0096 0.32861 0.18029 0.0
O75 O 0.98169 0.33886 0.17931 0.0
N76 N 0.98546 0.32906 0.13224 0.0
C77 C 0.96442 0.33538 0.11748 0.0
C78 C 0.96431 0.36593 0.11354 0.0
C79 C 0.9992 0.35597 0.1359 0.0
N80 N 0.98602 0.37895 0.12528 0.0
C81 C 0.93264 0.28624 0.14809 0.0
C82 C 0.93177 0.27785 0.19108 0.0
C83 C 0.90432 0.28221 0.18042 0.0
C84 C 0.90503 0.2854 0.15856 0.0
C85 C 0.95909 0.27891 0.17986 0.0
N86 N 0.9593 0.28522 0.15881 0.0
H87 H 0.93237 0.28714 0.13126 0.0
H88 H 0.98009 0.27534 0.1882 0.0
H89 H 0.95085 0.31904 0.10918 0.0
H90 H 0.01868 0.35885 0.14592 0.0
O91 O 0.98362 0.27108 0.11707 0.0
O92 O 0.0299 0.28863 0.12295 0.0
O93 O 0.01885 0.30866 0.16723 0.0
C94 C 0.01078 0.27611 0.11003 0.0
H95 H 0.04965 0.19993 0.17845 0.0
H96 H 0.94986 0.37753 0.10241 0.0
H97 H 0.93218 0.27423 0.20789 0.0
H98 H 0.88431 0.28687 0.14951 0.0
Co99 Co 0.2201 0.00438 0.63861 0.0
C100 C 0.28779 0.00746 0.64487 0.0
C101 C 0.265 0.04976 0.64939 0.0
C102 C 0.29553 0.0545 0.65133 0.0
N103 N 0.25992 0.02026 0.64558 0.0
N104 N 0.31008 0.02793 0.64853 0.0
H105 H 0.29189 0.98404 0.64124 0.0
H106 H 0.24759 0.06697 0.65 0.0
C107 C 0.21294 0.03071 0.68142 0.0
O108 O 0.23748 0.01638 0.68754 0.0
N109 N 0.18034 0.98933 0.63143 0.0
C110 C 0.17451 0.96242 0.62239 0.0
C111 C 0.14368 0.95826 0.62174 0.0
C112 C 0.15299 1.00143 0.63593 0.0
N113 N 0.1302 0.98273 0.63025 0.0
C114 C 0.24434 0.94561 0.64682 0.0
C115 C 0.20919 0.93264 0.68154 0.0
C116 C 0.2278 0.90967 0.67338 0.0
C117 C 0.24533 0.9167 0.65557 0.0
C118 C 0.20784 0.96084 0.67167 0.0
N119 N 0.22619 0.96759 0.65502 0.0
H120 H 0.25691 0.94961 0.63258 0.0
H121 H 0.19086 0.97658 0.67699 0.0
H122 H 0.19155 0.94651 0.61722 0.0
H123 H 0.14981 0.02279 0.64393 0.0
O124 O 0.23521 0.99055 0.61189 0.0
O125 O 0.21596 0.03608 0.61794 0.0
O126 O 0.20245 0.02719 0.66293 0.0
C127 C 0.22791 0.01711 0.60471 0.0
H128 H 0.30609 0.07629 0.65369 0.0
H129 H 0.13203 0.93856 0.6157 0.0
H130 H 0.19504 0.929 0.69516 0.0
H131 H 0.25892 0.89987 0.64765 0.0
Co132 Co 0.51217 0.27229 0.85016 0.0
C133 C 0.50335 0.20578 0.84855 0.0
C134 C 0.46661 0.22974 0.83402 0.0
C135 C 0.46073 0.19918 0.83303 0.0
N136 N 0.49332 0.23386 0.84371 0.0
N137 N 0.48376 0.184 0.84225 0.0
H138 H 0.52423 0.20153 0.85693 0.0
H139 H 0.45219 0.24769 0.82824 0.0
C140 C 0.50236 0.31167 0.81281 0.0
O141 O 0.53125 0.31861 0.81386 0.0
N142 N 0.5305 0.31132 0.85702 0.0
C143 C 0.55899 0.3175 0.86326 0.0
C144 C 0.56213 0.34827 0.86548 0.0
C145 C 0.51646 0.3386 0.85641 0.0
N146 N 0.53545 0.36172 0.86102 0.0
C147 C 0.57286 0.25161 0.84373 0.0
C148 C 0.57081 0.24694 0.8005 0.0
C149 C 0.59817 0.24137 0.8109 0.0
C150 C 0.59874 0.24294 0.83283 0.0
C151 C 0.54513 0.25498 0.81217 0.0
N152 N 0.54702 0.25966 0.83338 0.0
H153 H 0.57384 0.25196 0.86063 0.0
H154 H 0.52385 0.25745 0.80404 0.0
H155 H 0.57666 0.30127 0.86608 0.0
H156 H 0.49289 0.34135 0.85223 0.0
O157 O 0.52498 0.2567 0.87694 0.0
O158 O 0.48133 0.28003 0.87123 0.0
O159 O 0.49123 0.29194 0.82536 0.0
C160 C 0.49961 0.26689 0.88443 0.0
H161 H 0.44093 0.18906 0.82596 0.0
H162 H 0.58295 0.35972 0.86953 0.0
H163 H 0.56925 0.2448 0.78359 0.0
H164 H 0.61928 0.2382 0.84152 0.0
Co165 Co 0.23737 0.5108 0.35556 0.0
C166 C 0.30446 0.50309 0.34993 0.0
C167 C 0.27926 0.46487 0.33908 0.0
C168 C 0.30959 0.4583 0.33746 0.0
N169 N 0.27581 0.49334 0.34633 0.0
N170 N 0.3255 0.48233 0.34434 0.0
H171 H 0.31002 0.5237 0.35809 0.0
H172 H 0.26098 0.4492 0.33613 0.0
C173 C 0.22098 0.48427 0.31371 0.0
O174 O 0.24542 0.49676 0.30573 0.0
N175 N 0.19914 0.52721 0.36529 0.0
C176 C 0.195 0.55235 0.37693 0.0
C177 C 0.16442 0.55601 0.38059 0.0
C178 C 0.17111 0.51603 0.36195 0.0
N179 N 0.14955 0.53326 0.37103 0.0
C180 C 0.26477 0.56577 0.34041 0.0
C181 C 0.21958 0.58042 0.31216 0.0
C182 C 0.24367 0.60062 0.31493 0.0
C183 C 0.26656 0.59288 0.3292 0.0
C184 C 0.21873 0.5535 0.32365 0.0
N185 N 0.24157 0.54595 0.3372 0.0
H186 H 0.28108 0.56183 0.3526 0.0
H187 H 0.19891 0.53938 0.32225 0.0
H188 H 0.21292 0.56715 0.38222 0.0
H189 H 0.16644 0.49562 0.35325 0.0
O190 O 0.25704 0.52641 0.38034 0.0
O191 O 0.23591 0.48107 0.37785 0.0
O192 O 0.21489 0.48738 0.33322 0.0
C193 C 0.25013 0.50088 0.38932 0.0
H194 H 0.31911 0.43706 0.33219 0.0
H195 H 0.15386 0.57438 0.38911 0.0
H196 H 0.20106 0.58574 0.30164 0.0
H197 H 0.28483 0.60845 0.33262 0.0
Co198 Co 0.99844 0.22746 0.85593 0.0
C199 C 0.00413 0.29486 0.84948 0.0
C200 C 0.04327 0.27015 0.83953 0.0
C201 C 0.04916 0.30049 0.83734 0.0
N202 N 0.01474 0.26633 0.84663 0.0
N203 N 0.02455 0.31607 0.84361 0.0
H204 H 0.98313 0.30038 0.85718 0.0
H205 H 0.05938 0.25209 0.83696 0.0
C206 C 0.02355 0.21302 0.81345 0.0
O207 O 0.01007 0.23721 0.8059 0.0
N208 N 0.98347 0.18867 0.86553 0.0
C209 C 0.95777 0.18324 0.87631 0.0
C210 C 0.95484 0.1524 0.87906 0.0
C211 C 0.99582 0.16123 0.86192 0.0
N212 N 0.97869 0.13869 0.86985 0.0
C213 C 0.94187 0.25381 0.84254 0.0
C214 C 0.92707 0.20849 0.81447 0.0
C215 C 0.9066 0.23214 0.81775 0.0
C216 C 0.91429 0.25514 0.83185 0.0
C217 C 0.95465 0.20838 0.82515 0.0
N218 N 0.96222 0.23127 0.83862 0.0
H219 H 0.94586 0.26989 0.85486 0.0
H220 H 0.96927 0.18901 0.82324 0.0
H221 H 0.94193 0.20043 0.88135 0.0
H222 H 0.01685 0.15772 0.85362 0.0
O223 O 0.98402 0.24605 0.88148 0.0
O224 O 0.02957 0.22577 0.87703 0.0
O225 O 0.02109 0.20624 0.83285 0.0
C226 C 0.01033 0.23917 0.8894 0.0
H227 H 0.07026 0.31032 0.83203 0.0
H228 H 0.93611 0.14091 0.88658 0.0
H229 H 0.92152 0.18988 0.80411 0.0
H230 H 0.8984 0.27308 0.83546 0.0
Co231 Co 0.2711 1.00232 0.35176 0.0
C232 C 0.20481 0.01029 0.34762 0.0
C233 C 0.22918 0.04822 0.33502 0.0
C234 C 0.19858 0.05396 0.33345 0.0
N235 N 0.23303 0.02086 0.34388 0.0
N236 N 0.1832 0.03015 0.34145 0.0
H237 H 0.20029 0.98894 0.35533 0.0
H238 H 0.24734 0.06323 0.33039 0.0
C239 C 0.30993 0.01019 0.31355 0.0
O240 O 0.31632 0.98117 0.31439 0.0
N241 N 0.30971 0.984 0.36026 0.0
C242 C 0.31365 0.95961 0.37274 0.0
C243 C 0.34407 0.95464 0.37561 0.0
C244 C 0.3382 0.99443 0.35677 0.0
N245 N 0.35966 0.97632 0.36536 0.0
C246 C 0.25346 0.94063 0.34672 0.0
C247 C 0.24746 0.94105 0.30354 0.0
C248 C 0.24452 0.91379 0.31451 0.0
C249 C 0.24639 0.91392 0.33636 0.0
C250 C 0.25373 0.9676 0.31471 0.0
N251 N 0.25937 0.96657 0.33583 0.0
H252 H 0.25392 0.94027 0.36358 0.0
H253 H 0.25474 0.98877 0.30627 0.0
H254 H 0.29592 0.94676 0.38017 0.0
H255 H 0.34321 0.01485 0.34811 0.0
O256 O 0.25372 0.99109 0.37822 0.0
O257 O 0.27786 0.0342 0.37213 0.0
O258 O 0.29167 0.02194 0.32685 0.0
C259 C 0.26352 0.01678 0.38532 0.0
H260 H 0.1885 0.07422 0.32696 0.0
H261 H 0.35386 0.93677 0.38504 0.0
H262 H 0.24523 0.94174 0.28661 0.0
H263 H 0.24335 0.89328 0.34532 0.0
Co264 Co 0.50188 0.77207 0.85566 0.0
C265 C 0.51006 0.70595 0.85079 0.0
C266 C 0.5491 0.73074 0.84034 0.0
C267 C 0.55501 0.70023 0.83848 0.0
N268 N 0.52095 0.73425 0.84804 0.0
N269 N 0.53046 0.68466 0.84505 0.0
H270 H 0.48806 0.70106 0.85747 0.0
H271 H 0.56444 0.74907 0.83671 0.0
C272 C 0.50726 0.81084 0.81737 0.0
O273 O 0.47838 0.81757 0.81915 0.0
N274 N 0.48335 0.81066 0.86359 0.0
C275 C 0.45589 0.8159 0.87216 0.0
C276 C 0.45166 0.84662 0.8741 0.0
C277 C 0.49592 0.83851 0.86141 0.0
N278 N 0.47671 0.86088 0.86717 0.0
C279 C 0.44131 0.75011 0.85324 0.0
C280 C 0.43701 0.74606 0.81011 0.0
C281 C 0.41106 0.74107 0.82237 0.0
C282 C 0.41401 0.74162 0.84423 0.0
C283 C 0.46429 0.75396 0.81993 0.0
N284 N 0.46538 0.7586 0.84115 0.0
H285 H 0.44278 0.75006 0.87011 0.0
H286 H 0.48427 0.75672 0.81037 0.0
H287 H 0.43976 0.79901 0.87692 0.0
H288 H 0.51825 0.84237 0.85495 0.0
O289 O 0.49299 0.75551 0.88282 0.0
O290 O 0.53485 0.78082 0.87488 0.0
O291 O 0.51954 0.79187 0.82991 0.0
C292 C 0.51895 0.76613 0.88876 0.0
H293 H 0.57583 0.69029 0.83275 0.0
H294 H 0.43161 0.85763 0.8802 0.0
H295 H 0.43611 0.7448 0.79315 0.0
H296 H 0.39514 0.73607 0.8544 0.0
Co297 Co 0.73831 0.49787 0.35389 0.0
C298 C 0.80565 0.50693 0.3536 0.0
C299 C 0.7824 0.54295 0.33797 0.0
C300 C 0.81296 0.54881 0.33725 0.0
N301 N 0.77768 0.51597 0.34742 0.0
N302 N 0.82751 0.52614 0.34709 0.0
H303 H 0.81015 0.48741 0.36329 0.0
H304 H 0.7649 0.55819 0.33265 0.0
C305 C 0.72508 0.52531 0.31167 0.0
O306 O 0.74883 0.51159 0.30366 0.0
N307 N 0.69914 0.48065 0.36069 0.0
C308 C 0.69422 0.45337 0.36944 0.0
C309 C 0.66349 0.44861 0.37069 0.0
C310 C 0.67135 0.49221 0.35681 0.0
N311 N 0.64902 0.47295 0.36263 0.0
C312 C 0.76886 0.44443 0.34009 0.0
C313 C 0.72631 0.42696 0.31069 0.0
C314 C 0.74967 0.40698 0.316 0.0
C315 C 0.77154 0.41633 0.33045 0.0
C316 C 0.72437 0.45498 0.32082 0.0
N317 N 0.74558 0.46354 0.33534 0.0
H318 H 0.78412 0.44945 0.35269 0.0
H319 H 0.70462 0.4688 0.31803 0.0
H320 H 0.71179 0.4378 0.37426 0.0
H321 H 0.66757 0.51389 0.3494 0.0
O322 O 0.75449 0.481 0.37936 0.0
O323 O 0.73361 0.52653 0.37656 0.0
O324 O 0.7185 0.52218 0.33106 0.0
C325 C 0.74612 0.50599 0.38842 0.0
H326 H 0.82362 0.56879 0.33076 0.0
H327 H 0.65273 0.42866 0.37712 0.0
H328 H 0.70845 0.42008 0.30006 0.0
H329 H 0.78953 0.40118 0.33529 0.0
Co330 Co 0.01709 0.72844 0.84615 0.0
C331 C 0.01074 0.79599 0.84248 0.0
C332 C 0.96835 0.77247 0.84101 0.0
C333 C 0.96268 0.80301 0.84024 0.0
N334 N 0.99851 0.76791 0.84195 0.0
N335 N 0.9893 0.81782 0.8412 0.0
H336 H 0.03456 0.80061 0.84428 0.0
H337 H 0.95154 0.75469 0.84135 0.0
C338 C 0.98188 0.72244 0.80606 0.0
O339 O 0.98877 0.7503 0.80072 0.0
N340 N 0.03474 0.68901 0.85079 0.0
C341 C 0.06262 0.68316 0.8582 0.0
C342 C 0.06625 0.6523 0.85954 0.0
C343 C 0.02171 0.66173 0.84776 0.0
N344 N 0.04055 0.63868 0.8529 0.0
C345 C 0.07345 0.75557 0.83464 0.0
C346 C 0.0806 0.72705 0.7964 0.0
C347 C 0.10449 0.74501 0.80392 0.0
C348 C 0.10033 0.75933 0.82345 0.0
C349 C 0.05449 0.72295 0.80854 0.0
N350 N 0.05067 0.73778 0.8272 0.0
H351 H 0.07179 0.76582 0.84995 0.0
H352 H 0.03831 0.7065 0.80318 0.0
H353 H 0.07907 0.70017 0.8625 0.0
H354 H 0.99895 0.65895 0.84185 0.0
O355 O 0.0341 0.74262 0.87229 0.0
O356 O 0.98905 0.7212 0.86896 0.0
O357 O 0.99194 0.71073 0.82299 0.0
C358 C 0.00917 0.73356 0.88114 0.0
H359 H 0.94054 0.81352 0.83993 0.0
H360 H 0.08628 0.64098 0.86534 0.0
H361 H 0.08215 0.71526 0.78157 0.0
H362 H 0.11813 0.77224 0.83085 0.0
Co363 Co 0.77144 0.9988 0.35512 0.0
C364 C 0.70435 0.98985 0.34931 0.0
C365 C 0.73009 0.95026 0.34188 0.0
C366 C 0.69975 0.9434 0.34015 0.0
N367 N 0.73316 0.9796 0.34727 0.0
N368 N 0.68356 0.96837 0.34481 0.0
H369 H 0.69822 0.01172 0.35529 0.0
H370 H 0.74869 0.93457 0.33996 0.0
C371 C 0.78431 0.97365 0.31228 0.0
O372 O 0.75778 0.98341 0.30586 0.0
N373 N 0.80956 0.01716 0.36322 0.0
C374 C 0.81318 0.04439 0.37229 0.0
C375 C 0.84371 0.05045 0.37379 0.0
C376 C 0.83791 0.00687 0.3595 0.0
N377 N 0.85932 0.02693 0.36563 0.0
C378 C 0.74075 0.05391 0.3458 0.0
C379 C 0.77772 0.07283 0.31338 0.0
C380 C 0.75501 0.09231 0.32073 0.0
C381 C 0.73596 0.08211 0.33679 0.0
C382 C 0.78144 0.04431 0.3227 0.0
N383 N 0.76263 0.03484 0.3385 0.0
H384 H 0.72806 0.0486 0.35972 0.0
H385 H 0.80074 0.03089 0.31809 0.0
H386 H 0.79487 0.05915 0.37702 0.0
H387 H 0.84274 0.98558 0.35189 0.0
O388 O 0.75341 0.01147 0.38114 0.0
O389 O 0.77725 0.96781 0.3764 0.0
O390 O 0.79286 0.97821 0.33116 0.0
C391 C 0.76239 0.98584 0.38888 0.0
H392 H 0.69038 0.92155 0.33612 0.0
H393 H 0.85355 0.0708 0.38027 0.0
H394 H 0.7936 0.08021 0.30147 0.0
H395 H 0.71828 0.09643 0.34314 0.0
Co396 Co 0.50065 0.71915 0.14291 0.0
C397 C 0.50654 0.78642 0.1493 0.0
C398 C 0.54734 0.7619 0.15582 0.0
C399 C 0.55363 0.7923 0.15677 0.0
N400 N 0.51771 0.75797 0.15141 0.0
N401 N 0.52801 0.8077 0.15263 0.0
H402 H 0.48411 0.79179 0.14382 0.0
H403 H 0.56372 0.7438 0.15711 0.0
C404 C 0.52745 0.70705 0.18511 0.0
O405 O 0.51605 0.73277 0.19179 0.0
N406 N 0.48461 0.68051 0.13399 0.0
C407 C 0.45799 0.67594 0.12424 0.0
C408 C 0.45384 0.64532 0.12165 0.0
C409 C 0.49645 0.65266 0.13708 0.0
N410 N 0.47795 0.63062 0.12982 0.0
C411 C 0.44323 0.74495 0.1538 0.0
C412 C 0.42853 0.7031 0.18442 0.0
C413 C 0.4066 0.72416 0.17818 0.0
C414 C 0.41445 0.74552 0.16282 0.0
C415 C 0.45706 0.70328 0.17495 0.0
N416 N 0.46443 0.72437 0.16004 0.0
H417 H 0.44746 0.75962 0.14063 0.0
H418 H 0.47233 0.68502 0.17869 0.0
H419 H 0.44243 0.69365 0.11965 0.0
H420 H 0.51776 0.64861 0.14494 0.0
O421 O 0.48662 0.7374 0.11722 0.0
O422 O 0.53175 0.71626 0.1217 0.0
O423 O 0.52297 0.69827 0.16628 0.0
C424 C 0.51284 0.73022 0.10937 0.0
H425 H 0.57563 0.80233 0.15952 0.0
H426 H 0.43447 0.63476 0.1143 0.0
H427 H 0.4234 0.6859 0.19601 0.0
H428 H 0.39792 0.76143 0.15683 0.0
Co429 Co 0.7788 0.49344 0.64675 0.0
C430 C 0.71103 0.49973 0.65114 0.0
C431 C 0.73501 0.54114 0.6562 0.0
C432 C 0.7045 0.54701 0.65734 0.0
N433 N 0.73934 0.51135 0.65281 0.0
N434 N 0.68933 0.52095 0.65417 0.0
H435 H 0.70608 0.47668 0.64705 0.0
H436 H 0.75289 0.5578 0.65701 0.0
C437 C 0.78902 0.52605 0.68727 0.0
O438 O 0.76366 0.51462 0.69459 0.0
N439 N 0.81823 0.47668 0.64035 0.0
C440 C 0.82422 0.4481 0.63442 0.0
C441 C 0.85513 0.44454 0.63304 0.0
C442 C 0.84549 0.49022 0.64235 0.0
N443 N 0.8686 0.47102 0.63807 0.0
C444 C 0.75161 0.43858 0.6619 0.0
C445 C 0.7924 0.42856 0.69407 0.0
C446 C 0.77046 0.40671 0.68976 0.0
C447 C 0.74964 0.41202 0.67368 0.0
C448 C 0.79322 0.45511 0.68217 0.0
N449 N 0.77264 0.46022 0.66649 0.0
H450 H 0.73784 0.4404 0.64804 0.0
H451 H 0.8119 0.47041 0.68464 0.0
H452 H 0.80729 0.43081 0.63189 0.0
H453 H 0.84826 0.51358 0.64694 0.0
O454 O 0.76265 0.47506 0.62168 0.0
O455 O 0.78273 0.52101 0.62345 0.0
O456 O 0.79804 0.51957 0.66877 0.0
C457 C 0.77015 0.5 0.61213 0.0
H458 H 0.69435 0.56908 0.65942 0.0
H459 H 0.86669 0.42366 0.62929 0.0
H460 H 0.80974 0.42443 0.70576 0.0
H461 H 0.73346 0.39477 0.66922 0.0
Co462 Co 0.01075 0.7884 0.13688 0.0
C463 C 0.00974 0.7215 0.1415 0.0
C464 C 0.96893 0.74236 0.15283 0.0
C465 C 0.96596 0.7115 0.15456 0.0
N466 N 0.99635 0.74861 0.1447 0.0
N467 N 0.99154 0.69837 0.14737 0.0
H468 H 0.03178 0.71877 0.1343 0.0
H469 H 0.9519 0.75902 0.15672 0.0
C470 C 0.99535 0.8221 0.17636 0.0
O471 O 0.0239 0.83007 0.17807 0.0
N472 N 0.02394 0.82907 0.12833 0.0
C473 C 0.04266 0.83614 0.11221 0.0
C474 C 0.04302 0.86701 0.10937 0.0
C475 C 0.01224 0.85611 0.13433 0.0
N476 N 0.02402 0.87951 0.12341 0.0
C477 C 0.07417 0.78763 0.14591 0.0
C478 C 0.07022 0.76132 0.18524 0.0
C479 C 0.0988 0.76763 0.17677 0.0
C480 C 0.10054 0.78104 0.15691 0.0
C481 C 0.04419 0.76889 0.1738 0.0
N482 N 0.04637 0.78229 0.15445 0.0
H483 H 0.07634 0.7958 0.13011 0.0
H484 H 0.02226 0.76353 0.18036 0.0
H485 H 0.05462 0.82002 0.10251 0.0
H486 H 0.99407 0.85893 0.14546 0.0
O487 O 0.02676 0.77159 0.11142 0.0
O488 O 0.98026 0.78999 0.11501 0.0
O489 O 0.98658 0.80613 0.16079 0.0
C490 C 1.00055 0.77723 0.10303 0.0
H491 H 0.94624 0.69963 0.1604 0.0
H492 H 0.05607 0.87929 0.09777 0.0
H493 H 0.06804 0.75051 0.20043 0.0
H494 H 0.12224 0.78521 0.1495 0.0
Co495 Co 0.7211 0.01235 0.64429 0.0
C496 C 0.78705 1.00308 0.64743 0.0
C497 C 0.76246 0.96615 0.66118 0.0
C498 C 0.79301 0.96046 0.66309 0.0
N499 N 0.75884 0.99289 0.65142 0.0
N500 N 0.80854 0.98367 0.65439 0.0
H501 H 0.79158 0.02409 0.6393 0.0
H502 H 0.74423 0.95174 0.6665 0.0
C503 C 0.68236 0.0038 0.68233 0.0
O504 O 0.67583 0.0328 0.68186 0.0
N505 N 0.6826 0.03124 0.63687 0.0
C506 C 0.67712 0.05893 0.62876 0.0
C507 C 0.64638 0.06265 0.62642 0.0
C508 C 0.65499 0.01808 0.63837 0.0
N509 N 0.63247 0.03704 0.63261 0.0
C510 C 0.74195 0.07297 0.64999 0.0
C511 C 0.74926 0.0711 0.69304 0.0
C512 C 0.75479 0.09829 0.68237 0.0
C513 C 0.75162 0.09875 0.66051 0.0
C514 C 0.73986 0.04557 0.68175 0.0
N515 N 0.73416 0.04735 0.66065 0.0
H516 H 0.74121 0.07366 0.6331 0.0
H517 H 0.73745 0.0244 0.69003 0.0
H518 H 0.69383 0.07545 0.62438 0.0
H519 H 0.65139 0.99534 0.64416 0.0
O520 O 0.73786 0.02382 0.61756 0.0
O521 O 0.713 0.98117 0.62366 0.0
O522 O 0.7009 0.99243 0.66909 0.0
C523 C 0.7275 0.99835 0.61042 0.0
H524 H 0.80285 0.94076 0.67051 0.0
H525 H 0.63514 0.08263 0.62042 0.0
H526 H 0.75261 0.06947 0.70985 0.0
H527 H 0.75619 0.11905 0.65151 0.0
H528 H 0.54144 0.24516 0.07428 0.0
H529 H 0.53026 0.2545 0.03749 0.0
H530 H 0.43826 0.22468 0.04699 0.0
H531 H 0.44963 0.21451 0.08415 0.0
H532 H 0.46039 0.20304 0.01065 0.0
H533 H 0.45294 0.29962 0.04152 0.0
H534 H 0.46726 0.34255 0.0641 0.0
H535 H 0.54829 0.35566 0.02795 0.0
H536 H 0.53475 0.31249 0.00536 0.0
H537 H 0.44418 0.26727 0.90403 0.0
H538 H 0.43439 0.26215 0.942 0.0
H539 H 0.53046 0.25729 0.95349 0.0
H540 H 0.54031 0.2614 0.91588 0.0
H541 H 0.49191 0.30116 0.97962 0.0
H542 H 0.50124 0.19616 0.95441 0.0
H543 H 0.48488 0.15379 0.93197 0.0
H544 H 0.39522 0.15939 0.95781 0.0
H545 H 0.41099 0.20216 0.98018 0.0
C546 C 0.51879 0.24055 0.06862 0.0
C547 C 0.49634 0.22931 0.08216 0.0
C548 C 0.51237 0.24608 0.04756 0.0
C549 C 0.48322 0.24099 0.03956 0.0
C550 C 0.46084 0.22903 0.05288 0.0
C551 C 0.46735 0.22324 0.07407 0.0
C552 C 0.47686 0.24798 0.01718 0.0
C553 C 0.46655 0.22476 0.00396 0.0
C554 C 0.48467 0.27639 0.00839 0.0
C555 C 0.49284 0.30268 0.02177 0.0
C556 C 0.4739 0.31154 0.03845 0.0
C557 C 0.48188 0.33593 0.05125 0.0
C558 C 0.50867 0.3518 0.04747 0.0
C559 C 0.52752 0.34335 0.03085 0.0
C560 C 0.51968 0.31894 0.01801 0.0
C561 C 0.46311 0.26512 0.91473 0.0
C562 C 0.49297 0.26458 0.90707 0.0
C563 C 0.45751 0.2622 0.93632 0.0
C564 C 0.48176 0.2594 0.95043 0.0
C565 C 0.51151 0.25948 0.9428 0.0
C566 C 0.51706 0.26168 0.92132 0.0
C567 C 0.47673 0.25589 0.97325 0.0
C568 C 0.48491 0.27981 0.98648 0.0
C569 C 0.4665 0.22838 0.98204 0.0
C570 C 0.45716 0.2026 0.96872 0.0
C571 C 0.47796 0.18857 0.95513 0.0
C572 C 0.46882 0.16444 0.94247 0.0
C573 C 0.43899 0.15398 0.9434 0.0
C574 C 0.41829 0.16757 0.95706 0.0
C575 C 0.42731 0.19175 0.96973 0.0
H576 H 0.43196 0.13528 0.93359 0.0
H577 H 0.51482 0.37067 0.05741 0.0
H578 H 0.23225 0.45305 0.41371 0.0
H579 H 0.23869 0.44729 0.45172 0.0
H580 H 0.28841 0.53118 0.45378 0.0
H581 H 0.28226 0.53698 0.41587 0.0
H582 H 0.31327 0.48911 0.47999 0.0
H583 H 0.21471 0.53065 0.46471 0.0
H584 H 0.16444 0.53127 0.44787 0.0
H585 H 0.14159 0.44781 0.47858 0.0
H586 H 0.19196 0.44644 0.49532 0.0
H587 H 0.24192 0.53941 0.58443 0.0
H588 H 0.23966 0.53197 0.54656 0.0
H589 H 0.29587 0.45255 0.55226 0.0
H590 H 0.29848 0.46006 0.59042 0.0
H591 H 0.21874 0.48759 0.52215 0.0
H592 H 0.3422 0.45075 0.50784 0.0
H593 H 0.39244 0.45552 0.52447 0.0
H594 H 0.36516 0.53905 0.55319 0.0
H595 H 0.31495 0.53499 0.53649 0.0
C596 C 0.24491 0.47005 0.42222 0.0
C597 C 0.25653 0.4956 0.41183 0.0
C598 C 0.24853 0.46675 0.44394 0.0
C599 C 0.26379 0.48896 0.45561 0.0
C600 C 0.2766 0.51375 0.44509 0.0
C601 C 0.27291 0.51711 0.42343 0.0
C602 C 0.26454 0.48771 0.47891 0.0
C603 C 0.29263 0.48844 0.48923 0.0
C604 C 0.2376 0.48734 0.49097 0.0
C605 C 0.20722 0.48826 0.48106 0.0
C606 C 0.19905 0.51231 0.46774 0.0
C607 C 0.17053 0.51281 0.45823 0.0
C608 C 0.14986 0.48954 0.4621 0.0
C609 C 0.15765 0.46578 0.47555 0.0
C610 C 0.18617 0.46512 0.48505 0.0
C611 C 0.2537 0.52023 0.57769 0.0
C612 C 0.27052 0.50039 0.59041 0.0
C613 C 0.25226 0.51594 0.55602 0.0
C614 C 0.26774 0.49184 0.54653 0.0
C615 C 0.28398 0.47148 0.55923 0.0
C616 C 0.28537 0.47572 0.58102 0.0
C617 C 0.26747 0.48897 0.52329 0.0
C618 C 0.23943 0.48757 0.51296 0.0
C619 C 0.29445 0.48939 0.51125 0.0
C620 C 0.3247 0.49233 0.52113 0.0
C621 C 0.34697 0.47016 0.51766 0.0
C622 C 0.37544 0.47275 0.5271 0.0
C623 C 0.38195 0.49751 0.53995 0.0
C624 C 0.36005 0.51982 0.54331 0.0
C625 C 0.33158 0.51736 0.53388 0.0
H626 H 0.40398 0.49945 0.54726 0.0
H627 H 0.1278 0.48997 0.45473 0.0
H628 H 0.97771 0.27228 0.91761 0.0
H629 H 0.98779 0.27846 0.95514 0.0
H630 H 0.06856 0.22422 0.94922 0.0
H631 H 0.05872 0.21804 0.91163 0.0
H632 H 0.0317 0.20607 0.98211 0.0
H633 H 0.077 0.29691 0.95676 0.0
H634 H 0.07952 0.3442 0.93628 0.0
H635 H 0.00473 0.38031 0.97133 0.0
H636 H 1.00144 0.33304 0.99182 0.0
H637 H 0.06176 0.29267 0.0883 0.0
H638 H 0.07182 0.28493 0.05075 0.0
H639 H 0.98688 0.23763 0.0446 0.0
H640 H 0.97687 0.24497 0.08187 0.0
H641 H 0.0383 0.30568 0.01769 0.0
H642 H 0.99253 0.18348 0.00814 0.0
H643 H 0.9895 0.13654 0.02899 0.0
H644 H 0.06833 0.16288 0.06386 0.0
H645 H 0.07215 0.20976 0.04301 0.0
C646 C 0.99777 0.26191 0.92426 0.0
C647 C 0.01743 0.24469 0.9117 0.0
C648 C 1.00355 0.26554 0.94567 0.0
C649 C 0.02901 0.25191 0.95489 0.0
C650 C 0.04883 0.23494 0.94236 0.0
C651 C 0.04322 0.23154 0.9209 0.0
C652 C 0.03401 0.25435 0.97782 0.0
C653 C 0.03344 0.2278 0.98991 0.0
C654 C 0.03678 0.28271 0.98788 0.0
C655 C 0.03887 0.31133 0.97575 0.0
C656 C 0.06096 0.31485 0.96002 0.0
C657 C 0.06254 0.34167 0.94841 0.0
C658 C 0.04227 0.36523 0.95248 0.0
C659 C 0.02042 0.36204 0.9682 0.0
C660 C 0.01871 0.33525 0.97983 0.0
C661 C 0.04549 0.28024 0.07896 0.0
C662 C 0.01854 0.26942 0.08799 0.0
C663 C 0.0512 0.27596 0.05754 0.0
C664 C 0.03021 0.2605 0.04495 0.0
C665 C 1.00361 0.24921 0.05408 0.0
C666 C 0.99786 0.25356 0.07538 0.0
C667 C 0.03495 0.25746 0.02203 0.0
C668 C 0.0372 0.2839 0.0099 0.0
C669 C 0.0339 0.22897 0.01193 0.0
C670 C 0.03251 0.20026 0.02406 0.0
C671 C 0.00939 0.17915 0.02012 0.0
C672 C 0.00749 0.15258 0.03198 0.0
C673 C 0.02865 0.14678 0.04777 0.0
C674 C 0.0519 0.16744 0.05166 0.0
C675 C 0.05393 0.19404 0.03983 0.0
H676 H 0.02699 0.12628 0.057 0.0
H677 H 0.04353 0.38596 0.94347 0.0
H678 H 0.27364 0.07146 0.40471 0.0
H679 H 0.26548 0.08344 0.442 0.0
H680 H 0.23594 0.9917 0.45299 0.0
H681 H 0.2431 0.98001 0.41613 0.0
H682 H 0.1997 0.02875 0.4722 0.0
H683 H 0.309 0.01779 0.46488 0.0
H684 H 0.35918 0.03127 0.45066 0.0
H685 H 0.34931 0.12164 0.4744 0.0
H686 H 0.29887 0.10874 0.48855 0.0
H687 H 0.23894 0.97846 0.57254 0.0
H688 H 0.24343 0.99071 0.53526 0.0
H689 H 0.23166 0.08543 0.54914 0.0
H690 H 0.22648 0.07329 0.58667 0.0
H691 H 0.28429 0.06188 0.51795 0.0
H692 H 0.1764 0.06607 0.5309 0.0
H693 H 0.12896 0.04699 0.54646 0.0
H694 H 0.1389 0.96368 0.51252 0.0
H695 H 0.18668 0.98209 0.49704 0.0
C696 C 0.26531 0.05399 0.41515 0.0
C697 C 0.25895 0.02484 0.40754 0.0
C698 C 0.26072 0.06081 0.43641 0.0
C699 C 0.25014 0.03843 0.45029 0.0
C700 C 0.24382 0.00942 0.44257 0.0
C701 C 0.24806 1.00274 0.42146 0.0
C702 C 0.24596 0.0443 0.47301 0.0
C703 C 0.21816 0.03625 0.48215 0.0
C704 C 0.26979 0.05472 0.486 0.0
C705 C 0.30004 0.06243 0.47751 0.0
C706 C 0.31744 0.0406 0.46691 0.0
C707 C 0.34594 0.04812 0.4589 0.0
C708 C 0.35738 0.07733 0.46155 0.0
C709 C 0.34038 0.09905 0.4723 0.0
C710 C 0.31185 0.09165 0.48032 0.0
C711 C 0.23751 1.00192 0.56771 0.0
C712 C 0.23222 0.02493 0.58244 0.0
C713 C 0.2401 0.00886 0.54645 0.0
C714 C 0.23783 0.03891 0.53961 0.0
C715 C 0.2335 0.06213 0.55426 0.0
C716 C 0.23041 0.05514 0.57559 0.0
C717 C 0.23854 0.04526 0.5169 0.0
C718 C 0.26559 0.05549 0.50785 0.0
C719 C 0.21424 0.03634 0.50394 0.0
C720 C 0.18522 0.02541 0.51292 0.0
C721 C 0.16859 0.0436 0.52688 0.0
C722 C 0.14161 0.03292 0.53566 0.0
C723 C 0.13094 0.00412 0.53051 0.0
C724 C 0.14719 0.98598 0.5165 0.0
C725 C 0.1742 0.99655 0.5077 0.0
H726 H 0.11007 0.99588 0.53733 0.0
H727 H 0.37945 0.08311 0.45534 0.0
H728 H 0.54563 0.80679 0.91516 0.0
H729 H 0.55303 0.80046 0.95314 0.0
H730 H 0.52329 0.70764 0.94839 0.0
H731 H 0.51432 0.71459 0.9109 0.0
H732 H 0.49282 0.73287 0.97661 0.0
H733 H 0.59867 0.72946 0.9612 0.0
H734 H 0.64702 0.74693 0.94609 0.0
H735 H 0.64225 0.82795 0.98308 0.0
H736 H 0.59366 0.81115 -0.00178 0.0
H737 H 0.56086 0.7093 0.08647 0.0
H738 H 0.56981 0.71652 0.0488 0.0
H739 H 0.49117 0.77424 0.04515 0.0
H740 H 0.4817 0.76657 0.08253 0.0
H741 H 0.57902 0.76378 0.02163 0.0
H742 H 0.45102 0.75552 0.00261 0.0
H743 H 0.40478 0.73292 0.0177 0.0
H744 H 0.45828 0.66496 0.04849 0.0
H745 H 0.50476 0.68685 0.03333 0.0
C746 C 0.54139 0.78493 0.92228 0.0
C747 C 0.52926 0.76121 0.91036 0.0
C748 C 0.54569 0.78126 0.94392 0.0
C749 C 0.53866 0.75355 0.95368 0.0
C750 C 0.52857 0.7293 0.94131 0.0
C751 C 0.52354 0.73322 0.91991 0.0
C752 C 0.53836 0.75056 0.97691 0.0
C753 C 0.51182 0.73953 0.98635 0.0
C754 C 0.56313 0.75901 0.98974 0.0
C755 C 0.59238 0.76915 0.98071 0.0
C756 C 0.60781 0.75111 0.966 0.0
C757 C 0.63529 0.76087 0.95745 0.0
C758 C 0.64766 0.78857 0.96358 0.0
C759 C 0.63263 0.80652 0.97833 0.0
C760 C 0.60513 0.79687 0.98692 0.0
C761 C 0.54569 0.72378 0.07765 0.0
C762 C 0.52029 0.73697 0.08731 0.0
C763 C 0.55094 0.72802 0.05619 0.0
C764 C 0.5309 0.74554 0.04417 0.0
C765 C 0.50662 0.76023 0.0541 0.0
C766 C 0.50121 0.75578 0.07544 0.0
C767 C 0.53353 0.74631 0.02101 0.0
C768 C 0.56027 0.75703 0.0117 0.0
C769 C 0.5093 0.73675 0.00814 0.0
C770 C 0.48138 0.72303 0.01699 0.0
C771 C 0.45289 0.73567 0.01252 0.0
C772 C 0.42665 0.72299 0.02109 0.0
C773 C 0.4286 0.69758 0.0341 0.0
C774 C 0.4568 0.6847 0.03847 0.0
C775 C 0.4831 0.69725 0.0299 0.0
H776 H 0.40827 0.68784 0.04075 0.0
H777 H 0.66893 0.79609 0.95695 0.0
H778 H 0.75781 0.46212 0.4171 0.0
H779 H 0.75932 0.46699 0.45525 0.0
H780 H 0.7426 0.56279 0.44991 0.0
H781 H 0.74044 0.55804 0.41146 0.0
H782 H 0.7926 0.54179 0.4792 0.0
H783 H 0.68685 0.52849 0.4638 0.0
H784 H 0.64339 0.50378 0.44665 0.0
H785 H 0.66506 0.42016 0.47755 0.0
H786 H 0.70898 0.44425 0.49462 0.0
H787 H 0.77187 0.55261 0.58969 0.0
H788 H 0.765 0.55887 0.55182 0.0
H789 H 0.7517 0.46258 0.5454 0.0
H790 H 0.75731 0.45642 0.58331 0.0
H791 H 0.71352 0.49025 0.52151 0.0
H792 H 0.82076 0.49939 0.53372 0.0
H793 H 0.86689 0.52067 0.54973 0.0
H794 H 0.84555 0.60803 0.52415 0.0
H795 H 0.79905 0.58733 0.5082 0.0
C796 C 0.75466 0.4843 0.42398 0.0
C797 C 0.74896 0.50972 0.41133 0.0
C798 C 0.75544 0.48699 0.44577 0.0
C799 C 0.75089 0.51519 0.45529 0.0
C800 C 0.7461 0.54085 0.44275 0.0
C801 C 0.74483 0.53809 0.42087 0.0
C802 C 0.75057 0.51729 0.47842 0.0
C803 C 0.77504 0.53113 0.48855 0.0
C804 C 0.728 0.50261 0.49041 0.0
C805 C 0.70137 0.48814 0.48036 0.0
C806 C 0.68251 0.50477 0.46681 0.0
C807 C 0.65776 0.49089 0.45712 0.0
C808 C 0.6515 0.4604 0.46097 0.0
C809 C 0.66994 0.44377 0.47457 0.0
C810 C 0.69475 0.45754 0.48427 0.0
C811 C 0.76736 0.53282 0.58018 0.0
C812 C 0.76526 0.50401 0.5894 0.0
C813 C 0.76358 0.5364 0.55853 0.0
C814 C 0.75833 0.51114 0.54567 0.0
C815 C 0.75572 0.48242 0.55497 0.0
C816 C 0.75901 0.47891 0.57663 0.0
C817 C 0.75595 0.51433 0.52251 0.0
C818 C 0.73093 0.50139 0.51231 0.0
C819 C 0.77831 0.52944 0.51044 0.0
C820 C 0.80626 0.5419 0.51998 0.0
C821 C 0.82579 0.52319 0.53165 0.0
C822 C 0.85202 0.53513 0.54069 0.0
C823 C 0.85909 0.5657 0.53802 0.0
C824 C 0.84 0.58437 0.52624 0.0
C825 C 0.81372 0.57254 0.51719 0.0
H826 H 0.87941 0.57491 0.54502 0.0
H827 H 0.63233 0.4497 0.45345 0.0
H828 H 0.03526 0.74215 0.07774 0.0
H829 H 0.02914 0.73302 0.04028 0.0
H830 H 0.94724 0.78625 0.04024 0.0
H831 H 0.95333 0.79567 0.07803 0.0
H832 H 0.98587 0.7073 0.01584 0.0
H833 H 0.94865 0.82755 0.9936 0.0
H834 H 0.95084 0.87945 0.00781 0.0
H835 H 0.03281 0.85768 0.04077 0.0
H836 H 0.03135 0.80585 0.02649 0.0
H837 H 0.96146 0.71286 0.90453 0.0
H838 H 0.95329 0.71939 0.94233 0.0
H839 H 0.03663 0.76979 0.94676 0.0
H840 H 0.04489 0.76346 0.90909 0.0
H841 H 0.99113 0.79675 0.96883 0.0
H842 H 0.03467 0.69719 0.96091 0.0
H843 H 0.03732 0.64511 0.94718 0.0
H844 H 0.95111 0.625 0.97509 0.0
H845 H 0.94775 0.67715 0.98872 0.0
C846 C 0.01577 0.75176 0.06984 0.0
C847 C 0.99492 0.7699 0.08076 0.0
C848 C 0.01221 0.74631 0.04844 0.0
C849 C 0.98787 0.7591 0.03745 0.0
C850 C 0.96631 0.77634 0.04843 0.0
C851 C 0.96978 0.78167 0.06998 0.0
C852 C 0.98669 0.75598 0.01429 0.0
C853 C 0.98659 0.72685 0.00553 0.0
C854 C 0.98813 0.78148 0.00088 0.0
C855 C 0.98964 0.81276 0.00919 0.0
C856 C 0.96718 0.83391 0.00382 0.0
C857 C 0.9683 0.8633 0.01188 0.0
C858 C 0.99188 0.87182 0.02525 0.0
C859 C 0.0145 0.85102 0.03048 0.0
C860 C 0.01352 0.82164 0.02242 0.0
C861 C 0.978 0.72538 0.91357 0.0
C862 C 1.00389 0.73753 0.90388 0.0
C863 C 0.97331 0.72906 0.93515 0.0
C864 C 0.99441 0.74499 0.94734 0.0
C865 C 0.02002 0.75752 0.93761 0.0
C866 C 0.02479 0.75372 0.91611 0.0
C867 C 0.99046 0.74806 0.97036 0.0
C868 C 0.98965 0.77719 0.97909 0.0
C869 C 0.98876 0.72254 0.98375 0.0
C870 C 0.99078 0.69118 0.97559 0.0
C871 C 0.01615 0.68175 0.96395 0.0
C872 C 0.01781 0.6522 0.95622 0.0
C873 C 0.99435 0.63179 0.9602 0.0
C874 C 0.96923 0.64086 0.97197 0.0
C875 C 0.96744 0.67041 0.9797 0.0
H876 H 0.99568 0.60892 0.95421 0.0
H877 H 0.99267 0.89456 0.03151 0.0
H878 H 0.79734 0.95369 0.41651 0.0
H879 H 0.78881 0.94832 0.45443 0.0
H880 H 0.70316 0.99468 0.4482 0.0
H881 H 0.71251 1.00147 0.41075 0.0
H882 H 0.73149 0.01928 0.47739 0.0
H883 H 0.71057 0.9162 0.4609 0.0
H884 H 0.71975 0.86582 0.44557 0.0
H885 H 0.79916 0.85544 0.48377 0.0
H886 H 0.79069 0.90595 0.49913 0.0
H887 H 0.69775 0.95472 0.58785 0.0
H888 H 0.70194 0.94519 0.54994 0.0
H889 H 0.77186 0.01299 0.54543 0.0
H890 H 0.76727 0.02309 0.58291 0.0
H891 H 0.74622 0.92841 0.52202 0.0
H892 H 0.75971 0.0563 0.50356 0.0
H893 H 0.7449 0.10541 0.51884 0.0
H894 H 0.66908 0.06347 0.54942 0.0
H895 H 0.68314 0.01424 0.53406 0.0
C896 C 0.77652 0.96223 0.42329 0.0
C897 C 0.75569 0.97821 0.41088 0.0
C898 C 0.77155 0.95905 0.44492 0.0
C899 C 0.74527 0.97107 0.45426 0.0
C900 C 0.72373 0.98548 0.44148 0.0
C901 C 0.72905 0.9893 0.42008 0.0
C902 C 0.74137 0.97146 0.47747 0.0
C903 C 0.73457 0.99927 0.48703 0.0
C904 C 0.74498 0.94539 0.4902 0.0
C905 C 0.75012 0.91498 0.48104 0.0
C906 C 0.73011 0.90327 0.46592 0.0
C907 C 0.73517 0.87467 0.45725 0.0
C908 C 0.76006 0.85747 0.46366 0.0
C909 C 0.7799 0.8688 0.47881 0.0
C910 C 0.77496 0.8974 0.48752 0.0
C911 C 0.71419 0.96732 0.57875 0.0
C912 C 0.73182 0.98998 0.58821 0.0
C913 C 0.71666 0.96178 0.55716 0.0
C914 C 0.73685 0.97875 0.54484 0.0
C915 C 0.75573 1.00004 0.55457 0.0
C916 C 0.75304 0.00581 0.57599 0.0
C917 C 0.73677 0.97618 0.52163 0.0
C918 C 0.74293 0.94818 0.51217 0.0
C919 C 0.73166 1.00186 0.50883 0.0
C920 C 0.72266 0.03154 0.51779 0.0
C921 C 0.73979 0.0576 0.51345 0.0
C922 C 0.73154 0.08545 0.52214 0.0
C923 C 0.70612 0.08754 0.53514 0.0
C924 C 0.68881 0.0618 0.5394 0.0
C925 C 0.69693 0.03392 0.53072 0.0
H926 H 0.69981 0.10911 0.54188 0.0
H927 H 0.76393 0.83533 0.45693 0.0
H928 H 0.56869 0.84469 0.13428 0.0
H929 H 0.56597 0.8996 0.13102 0.0
H930 H 0.4791 0.89927 0.16211 0.0
H931 H 0.48136 0.84373 0.16454 0.0
H932 H 0.47768 0.93993 0.13287 0.0
H933 H 0.54683 0.91999 0.18812 0.0
H934 H 0.59034 0.89648 0.20608 0.0
H935 H 0.65094 0.93546 0.16079 0.0
H936 H 0.60775 0.95888 0.14238 0.0
H937 H 0.4955 0.10142 0.1526 0.0
H938 H 0.4888 0.04681 0.15706 0.0
H939 H 0.56382 0.0304 0.1153 0.0
H940 H 0.5701 0.08459 0.11015 0.0
H941 H 0.56782 0.99941 0.15406 0.0
H942 H 0.49446 0.01766 0.09855 0.0
H943 H 0.44939 0.04238 0.08342 0.0
H944 H 0.39475 0.00816 0.13392 0.0
H945 H 0.43962 0.98357 0.14951 0.0
C946 C 0.54904 0.85633 0.14044 0.0
C947 C 0.52543 0.84001 0.14993 0.0
C948 C 0.54751 0.88779 0.13865 0.0
C949 C 0.52274 0.90389 0.14687 0.0
C950 C 0.4986 0.88752 0.15578 0.0
C951 C 0.49987 0.85582 0.15719 0.0
C952 C 0.52249 0.93771 0.14622 0.0
C953 C 0.49723 0.9529 0.13784 0.0
C954 C 0.5479 0.95495 0.15271 0.0
C955 C 0.574 0.94101 0.16378 0.0
C956 C 0.56942 0.92339 0.18191 0.0
C957 C 0.59403 0.9101 0.19218 0.0
C958 C 0.62338 0.91442 0.18456 0.0
C959 C 0.62819 0.93211 0.16667 0.0
C960 C 0.60365 0.94544 0.15632 0.0
C961 C 0.51025 0.08629 0.14402 0.0
C962 C 0.53353 0.09772 0.13108 0.0
C963 C 0.50644 0.055 0.14669 0.0
C964 C 0.52589 0.03451 0.13656 0.0
C965 C 0.5487 0.04578 0.12339 0.0
C966 C 0.55234 0.07692 0.12055 0.0
C967 C 0.52349 1.00132 0.14017 0.0
C968 C 0.54824 0.98633 0.14924 0.0
C969 C 0.49741 0.98447 0.13478 0.0
C970 C 0.47044 0.99905 0.12531 0.0
C971 C 0.47288 0.01562 0.10652 0.0
C972 C 0.44737 0.02956 0.09784 0.0
C973 C 0.41924 0.02691 0.10774 0.0
C974 C 0.41656 0.01023 0.12629 0.0
C975 C 0.44201 0.99627 0.13505 0.0
H976 H 0.39951 0.03773 0.101 0.0
H977 H 0.64241 0.90411 0.19253 0.0
H978 H 0.6469 0.55666 0.67243 0.0
H979 H 0.59218 0.55235 0.66965 0.0
H980 H 0.60221 0.47214 0.63179 0.0
H981 H 0.65733 0.47708 0.63372 0.0
H982 H 0.56043 0.50685 0.61521 0.0
H983 H 0.57724 0.46801 0.68331 0.0
H984 H 0.59725 0.46502 0.71938 0.0
H985 H 0.55022 0.54678 0.73554 0.0
H986 H 0.53024 0.55052 0.69947 0.0
H987 H 0.39724 0.48908 0.62455 0.0
H988 H 0.45188 0.4785 0.62719 0.0
H989 H 0.46547 0.5651 0.65683 0.0
H990 H 0.41133 0.57592 0.65375 0.0
H991 H 0.49425 0.51678 0.67781 0.0
H992 H 0.48286 0.55628 0.60656 0.0
H993 H 0.46098 0.55499 0.57095 0.0
H994 H 0.49676 0.46565 0.56164 0.0
H995 H 0.51848 0.46626 0.59734 0.0
C996 C 0.63763 0.53816 0.66338 0.0
C997 C 0.65677 0.5173 0.65325 0.0
C998 C 0.60617 0.53549 0.66204 0.0
C999 C 0.59289 0.51164 0.65077 0.0
C1000 C 0.61185 0.49065 0.64067 0.0
C1001 C 0.64345 0.49338 0.64195 0.0
C1002 C 0.55926 0.50959 0.64902 0.0
C1003 C 0.54601 0.50842 0.62896 0.0
C1004 C 0.54022 0.51158 0.6669 0.0
C1005 C 0.55241 0.50965 0.6886 0.0
C1006 C 0.57136 0.4855 0.69449 0.0
C1007 C 0.58266 0.48365 0.71496 0.0
C1008 C 0.57505 0.50572 0.72973 0.0
C1009 C 0.5561 0.5297 0.72407 0.0
C1010 C 0.54475 0.53168 0.70362 0.0
C1011 C 0.412 0.50576 0.63159 0.0
C1012 C 0.40018 0.5334 0.63881 0.0
C1013 C 0.44313 0.49977 0.63305 0.0
C1014 C 0.46272 0.52101 0.64224 0.0
C1015 C 0.45078 0.54837 0.64974 0.0
C1016 C 0.41991 0.55462 0.64784 0.0
C1017 C 0.49577 0.51523 0.64407 0.0
C1018 C 0.50881 0.51481 0.66415 0.0
C1019 C 0.51452 0.51125 0.62628 0.0
C1020 C 0.50201 0.51119 0.60468 0.0
C1021 C 0.48589 0.53629 0.59697 0.0
C1022 C 0.47354 0.53569 0.57676 0.0
C1023 C 0.4774 0.51022 0.56406 0.0
C1024 C 0.49374 0.48535 0.57151 0.0
C1025 C 0.50609 0.48581 0.59172 0.0
H1026 H 0.46778 0.50978 0.54844 0.0
H1027 H 0.58379 0.50421 0.74558 0.0
H1028 H 0.03971 0.40581 0.13521 0.0
H1029 H 0.0495 0.46027 0.13824 0.0
H1030 H 0.95629 0.47874 0.12254 0.0
H1031 H 0.94654 0.42482 0.11936 0.0
H1032 H 0.99211 0.51495 0.10128 0.0
H1033 H 0.98556 0.4808 0.17385 0.0
H1034 H 1.00159 0.45038 0.20438 0.0
H1035 H 0.09028 0.48985 0.20133 0.0
H1036 H 0.07494 0.52012 0.17053 0.0
H1037 H 0.94951 0.65534 0.1399 0.0
H1038 H 0.95782 0.60123 0.13561 0.0
H1039 H 0.05374 0.61393 0.14447 0.0
H1040 H 0.04545 0.66864 0.14904 0.0
H1041 H 0.0286 0.56285 0.16697 0.0
H1042 H 0.03267 0.60198 0.09737 0.0
H1043 H 0.01612 0.63285 0.06722 0.0
H1044 H 0.93222 0.58398 0.06485 0.0
H1045 H 0.94804 0.55312 0.09521 0.0
C1046 C 0.02132 0.42151 0.13247 0.0
C1047 C 0.99236 0.41091 0.1269 0.0
C1048 C 0.02694 0.45264 0.13422 0.0
C1049 C 1.0036 0.47368 0.13071 0.0
C1050 C 0.97476 0.46304 0.12516 0.0
C1051 C 0.96922 0.43212 0.12327 0.0
C1052 C 0.0086 0.50687 0.13262 0.0
C1053 C 1.00001 0.52536 0.11569 0.0
C1054 C 0.02006 0.52054 0.15112 0.0
C1055 C 0.02921 0.50245 0.16971 0.0
C1056 C 0.00856 0.48281 0.17957 0.0
C1057 C 0.01752 0.46561 0.19694 0.0
C1058 C 0.04696 0.46813 0.20476 0.0
C1059 C 0.06751 0.48787 0.19523 0.0
C1060 C 0.0587 0.50504 0.17781 0.0
C1061 C 0.97236 0.64671 0.14117 0.0
C1062 C 0.99682 0.66634 0.14486 0.0
C1063 C 0.97711 0.61575 0.13857 0.0
C1064 C 0.00641 0.60357 0.13959 0.0
C1065 C 0.03095 0.6229 0.14361 0.0
C1066 C 0.02622 0.65412 0.14604 0.0
C1067 C 0.01081 0.57067 0.13596 0.0
C1068 C 0.02126 0.55233 0.15246 0.0
C1069 C 1.00106 0.557 0.11707 0.0
C1070 C 0.9915 0.57533 0.09866 0.0
C1071 C 0.0106 0.59794 0.09052 0.0
C1072 C 1.00136 0.61543 0.07337 0.0
C1073 C 0.97312 0.61041 0.06414 0.0
C1074 C 0.95409 0.58784 0.07201 0.0
C1075 C 0.9632 0.57032 0.08918 0.0
H1076 H 0.96601 0.62397 0.05087 0.0
H1077 H 0.05378 0.45488 0.21825 0.0
H1078 H 0.84094 0.03513 0.64673 0.0
H1079 H 0.89583 0.03966 0.64333 0.0
H1080 H 0.90552 0.9441 0.65505 0.0
H1081 H 0.85083 0.93908 0.65794 0.0
H1082 H 0.94574 0.97871 0.67823 0.0
H1083 H 0.91133 0.9707 0.60625 0.0
H1084 H 0.88124 0.98611 0.57543 0.0
H1085 H 0.92303 0.07378 0.5764 0.0
H1086 H 0.95307 0.05901 0.60743 0.0
H1087 H 0.09054 0.93955 0.64185 0.0
H1088 H 0.03605 0.94522 0.6472 0.0
H1089 H 0.04252 0.04 0.63188 0.0
H1090 H 0.09757 0.03444 0.62679 0.0
H1091 H 0.99455 0.01272 0.61208 0.0
H1092 H 0.03072 0.02155 0.68195 0.0
H1093 H 0.06116 0.00813 0.71307 0.0
H1094 H 0.0161 0.92225 0.71689 0.0
H1095 H 0.98573 0.93502 0.6856 0.0
C1096 C 0.85458 0.01495 0.64838 0.0
C1097 C 0.8411 0.98668 0.6526 0.0
C1098 C 0.88606 0.01765 0.64651 0.0
C1099 C 0.90477 0.9922 0.64887 0.0
C1100 C 0.89152 0.96409 0.65328 0.0
C1101 C 0.8601 0.9613 0.65501 0.0
C1102 C 0.93819 0.99458 0.64668 0.0
C1103 C 0.9564 0.98592 0.66371 0.0
C1104 C 0.95212 0.00504 0.628 0.0
C1105 C 0.93417 0.01387 0.60931 0.0
C1106 C 0.9139 0.99335 0.6 0.0
C1107 C 0.89689 1.00195 0.58248 0.0
C1108 C 0.90015 0.03094 0.574 0.0
C1109 C 0.92049 0.05135 0.58301 0.0
C1110 C 0.93752 0.04288 0.60056 0.0
C1111 C 0.08037 0.96161 0.63966 0.0
C1112 C 0.09824 0.98657 0.63392 0.0
C1113 C 0.04927 0.96489 0.64285 0.0
C1114 C 0.03527 0.99316 0.64024 0.0
C1115 C 0.05297 0.0181 0.63422 0.0
C1116 C 0.08431 0.01493 0.63138 0.0
C1117 C 1.00207 0.99617 0.64347 0.0
C1118 C 0.98389 0.00585 0.62668 0.0
C1119 C 0.98812 0.98696 0.66244 0.0
C1120 C 0.0062 0.97913 0.68131 0.0
C1121 C 0.02754 0.9997 0.68932 0.0
C1122 C 0.04473 0.99224 0.70701 0.0
C1123 C 0.04063 0.96432 0.71691 0.0
C1124 C 0.01927 0.94385 0.70918 0.0
C1125 C 1.00204 0.95121 0.69149 0.0
H1126 H 0.05395 0.95858 0.73061 0.0
H1127 H 0.88696 0.03756 0.56043 0.0
H1128 H 0.47904 0.65156 0.84067 0.0
H1129 H 0.47442 0.59631 0.842 0.0
H1130 H 0.57024 0.58897 0.8542 0.0
H1131 H 0.57495 0.64389 0.8524 0.0
H1132 H 0.55578 0.54873 0.82683 0.0
H1133 H 0.51276 0.57964 0.89315 0.0
H1134 H 0.47736 0.6073 0.91616 0.0
H1135 H 0.40203 0.56308 0.88669 0.0
H1136 H 0.43698 0.53543 0.86332 0.0
H1137 H 0.56924 0.40713 0.87792 0.0
H1138 H 0.56255 0.46127 0.87303 0.0
H1139 H 0.48142 0.44529 0.83729 0.0
H1140 H 0.48856 0.39058 0.84116 0.0
H1141 H 0.48275 0.49568 0.87323 0.0
H1142 H 0.52754 0.46276 0.80808 0.0
H1143 H 0.56425 0.43455 0.78646 0.0
H1144 H 0.63759 0.48256 0.8155 0.0
H1145 H 0.60128 0.51076 0.83753 0.0
C1146 C 0.49904 0.63812 0.84377 0.0
C1147 C 0.52738 0.65215 0.84637 0.0
C1148 C 0.49639 0.6065 0.84457 0.0
C1149 C 0.52193 0.58826 0.84839 0.0
C1150 C 0.55018 0.60236 0.8511 0.0
C1151 C 0.55288 0.63384 0.85005 0.0
C1152 C 0.5197 0.55452 0.84931 0.0
C1153 C 0.53987 0.53729 0.8371 0.0
C1154 C 0.49846 0.53922 0.86225 0.0
C1155 C 0.47746 0.55574 0.87633 0.0
C1156 C 0.48863 0.57599 0.89148 0.0
C1157 C 0.46865 0.59163 0.9046 0.0
C1158 C 0.43746 0.58702 0.90284 0.0
C1159 C 0.42619 0.56667 0.888 0.0
C1160 C 0.44607 0.551 0.87482 0.0
C1161 C 0.55001 0.41478 0.86887 0.0
C1162 C 0.52968 0.39402 0.85977 0.0
C1163 C 0.54612 0.44593 0.86625 0.0
C1164 C 0.52156 0.45726 0.85477 0.0
C1165 C 0.50047 0.43693 0.8463 0.0
C1166 C 0.50458 0.4056 0.84862 0.0
C1167 C 0.51911 0.49037 0.85107 0.0
C1168 C 0.49825 0.50734 0.86278 0.0
C1169 C 0.5398 0.50553 0.8378 0.0
C1170 C 0.56171 0.48863 0.8246 0.0
C1171 C 0.55151 0.46707 0.81001 0.0
C1172 C 0.57224 0.45114 0.79764 0.0
C1173 C 0.60324 0.4567 0.79964 0.0
C1174 C 0.61357 0.47825 0.81398 0.0
C1175 C 0.59292 0.49424 0.8264 0.0
H1176 H 0.61926 0.44435 0.79004 0.0
H1177 H 0.42203 0.59915 0.91302 0.0
H1178 H 0.87133 0.53932 0.31912 0.0
H1179 H 0.92628 0.53641 0.32463 0.0
H1180 H 0.91147 0.50549 0.38801 0.0
H1181 H 0.85636 0.50757 0.38234 0.0
H1182 H 0.95482 0.56211 0.37725 0.0
H1183 H 0.93371 0.45557 0.36444 0.0
H1184 H 0.9122 0.41357 0.34384 0.0
H1185 H 0.96607 0.43953 0.29064 0.0
H1186 H 0.9875 0.48204 0.31083 0.0
H1187 H 0.10892 0.5396 0.40236 0.0
H1188 H 0.05382 0.53443 0.39985 0.0
H1189 H 0.06222 0.51478 0.33367 0.0
H1190 H 0.11741 0.51801 0.33665 0.0
H1191 H 0.02051 0.48213 0.34706 0.0
H1192 H 0.04002 0.58771 0.3554 0.0
H1193 H 0.06078 0.63372 0.37184 0.0
H1194 H 0.00991 0.61561 0.42793 0.0
H1195 H 0.98912 0.56926 0.41191 0.0
C1196 C 0.87985 0.53181 0.33418 0.0
C1197 C 0.85969 0.52367 0.35031 0.0
C1198 C 0.91115 0.53006 0.33728 0.0
C1199 C 0.92283 0.52068 0.35669 0.0
C1200 C 0.90281 0.51267 0.37289 0.0
C1201 C 0.87144 0.51374 0.36963 0.0
C1202 C 0.95602 0.52027 0.36013 0.0
C1203 C 0.96925 0.54439 0.37102 0.0
C1204 C 0.97474 0.4978 0.35118 0.0
C1205 C 0.96193 0.4722 0.33907 0.0
C1206 C 0.9407 0.45254 0.34827 0.0
C1207 C 0.92858 0.42859 0.33669 0.0
C1208 C 0.93769 0.42394 0.31592 0.0
C1209 C 0.95899 0.44319 0.30672 0.0
C1210 C 0.97114 0.4672 0.31823 0.0
C1211 C 0.09885 0.53405 0.38735 0.0
C1212 C 0.11726 0.52936 0.36968 0.0
C1213 C 0.06736 0.5313 0.38584 0.0
C1214 C 0.05352 0.52497 0.36643 0.0
C1215 C 0.07211 0.51972 0.34884 0.0
C1216 C 0.10365 0.52162 0.3505 0.0
C1217 C 0.0198 0.5241 0.36435 0.0
C1218 C 0.00632 0.49983 0.35356 0.0
C1219 C 1.00086 0.54699 0.37286 0.0
C1220 C 0.01328 0.57485 0.38254 0.0
C1221 C 0.03343 0.59343 0.37129 0.0
C1222 C 0.04518 0.61958 0.38053 0.0
C1223 C 0.03674 0.62753 0.40094 0.0
C1224 C 0.01646 0.60939 0.41214 0.0
C1225 C 0.00467 0.58319 0.40299 0.0
H1226 H 0.04586 0.64779 0.40806 0.0
H1227 H 0.92829 0.40537 0.30698 0.0
H1228 H 0.96612 0.09502 0.89824 0.0
H1229 H 0.97311 0.04042 0.89396 0.0
H1230 H 0.00754 0.05521 0.83132 0.0
H1231 H 1.00183 0.10981 0.83604 0.0
H1232 H 0.94823 1.00244 0.87021 0.0
H1233 H 0.0525 0.99886 0.81521 0.0
H1234 H 0.09842 0.02891 0.80799 0.0
H1235 H 0.09767 0.06232 0.87127 0.0
H1236 H 0.05194 0.03225 0.87893 0.0
H1237 H 0.95435 0.86028 0.82269 0.0
H1238 H 0.95714 0.91501 0.82741 0.0
H1239 H 0.03542 0.90399 0.86713 0.0
H1240 H 0.03282 0.84897 0.86229 0.0
H1241 H 0.04118 0.95384 0.84226 0.0
H1242 H 0.96648 0.91345 0.88899 0.0
H1243 H 0.92155 0.88346 0.89873 0.0
H1244 H 0.86635 0.93764 0.85787 0.0
H1245 H 0.91106 0.9677 0.84765 0.0
C1246 C 0.9754 0.08653 0.88365 0.0
C1247 C 0.98359 0.10662 0.86754 0.0
C1248 C 0.97939 0.05533 0.88118 0.0
C1249 C 0.99124 0.04347 0.8624 0.0
C1250 C 0.99918 0.06362 0.84619 0.0
C1251 C 0.99579 0.09487 0.84885 0.0
C1252 C 0.99391 0.01005 0.8595 0.0
C1253 C 0.96865 0.99194 0.86416 0.0
C1254 C 0.02062 0.99599 0.85182 0.0
C1255 C 0.04865 0.01346 0.84758 0.0
C1256 C 0.06225 0.01247 0.82762 0.0
C1257 C 0.08821 0.02955 0.82344 0.0
C1258 C 0.10091 0.04757 0.83914 0.0
C1259 C 0.08776 0.04843 0.8591 0.0
C1260 C 0.0618 0.03139 0.86336 0.0
C1261 C 0.97223 0.86949 0.83237 0.0
C1262 C 0.99311 0.85023 0.84234 0.0
C1263 C 0.97385 0.90081 0.83503 0.0
C1264 C 0.99614 0.91363 0.84795 0.0
C1265 C 0.01797 0.89462 0.85713 0.0
C1266 C 0.01649 0.86318 0.85433 0.0
C1267 C 0.9954 0.9466 0.85276 0.0
C1268 C 0.02091 0.96451 0.84841 0.0
C1269 C 0.96917 0.9605 0.86118 0.0
C1270 C 0.94217 0.94266 0.86743 0.0
C1271 C 0.94479 0.91885 0.88198 0.0
C1272 C 0.91936 0.90185 0.8876 0.0
C1273 C 0.89112 0.9086 0.8789 0.0
C1274 C 0.88824 0.93242 0.86459 0.0
C1275 C 0.91362 0.94946 0.85889 0.0
H1276 H 0.87146 0.89541 0.88326 0.0
H1277 H 0.12096 0.0608 0.83587 0.0
H1278 H 0.4004 0.93069 0.36934 0.0
H1279 H 0.45518 0.93364 0.36634 0.0
H1280 H 0.44893 0.02916 0.3534 0.0
H1281 H 0.39361 0.02649 0.35651 0.0
H1282 H 0.48862 0.99982 0.32653 0.0
H1283 H 0.47333 0.00662 0.40042 0.0
H1284 H 0.45257 0.99204 0.43491 0.0
H1285 H 0.49679 0.90574 0.43057 0.0
H1286 H 0.51746 0.91963 0.39588 0.0
H1287 H 0.64963 0.01891 0.33872 0.0
H1288 H 0.5945 0.02362 0.34188 0.0
H1289 H 0.58825 0.92877 0.35711 0.0
H1290 H 0.64324 0.92403 0.35424 0.0
H1291 H 0.55493 0.96272 0.38382 0.0
H1292 H 0.56871 0.95548 0.30926 0.0
H1293 H 0.58765 0.96937 0.27414 0.0
H1294 H 0.54498 0.05636 0.2792 0.0
H1295 H 0.52626 0.04322 0.31455 0.0
C1296 C 0.41048 0.95251 0.36616 0.0
C1297 C 0.39231 0.97843 0.36346 0.0
C1298 C 0.44197 0.95411 0.36437 0.0
C1299 C 0.45631 0.98168 0.35991 0.0
C1300 C 0.43839 0.00762 0.35692 0.0
C1301 C 0.40671 0.00603 0.35866 0.0
C1302 C 0.48999 0.98295 0.35818 0.0
C1303 C 0.50315 0.99229 0.33919 0.0
C1304 C 0.50902 0.97251 0.37455 0.0
C1305 C 0.49675 0.96409 0.39546 0.0
C1306 C 0.47844 0.98444 0.40674 0.0
C1307 C 0.46672 0.97632 0.42634 0.0
C1308 C 0.47331 0.94796 0.43491 0.0
C1309 C 0.49169 0.92769 0.4239 0.0
C1310 C 0.50344 0.93569 0.40428 0.0
C1311 C 0.63652 0.99908 0.3428 0.0
C1312 C 0.65095 0.97108 0.34621 0.0
C1313 C 0.60495 1.00175 0.34444 0.0
C1314 C 0.5871 0.97651 0.34961 0.0
C1315 C 0.60146 0.94857 0.35306 0.0
C1316 C 0.63295 0.94584 0.35126 0.0
C1317 C 0.55358 0.97918 0.352 0.0
C1318 C 0.54044 0.97056 0.37119 0.0
C1319 C 0.5346 0.99034 0.33578 0.0
C1320 C 0.54653 0.99855 0.31474 0.0
C1321 C 0.56375 0.97775 0.30304 0.0
C1322 C 0.57436 0.98545 0.28305 0.0
C1323 C 0.56765 0.01378 0.27449 0.0
C1324 C 0.55027 0.03446 0.28589 0.0
C1325 C 0.53968 0.02691 0.30591 0.0
H1326 H 0.57583 0.01967 0.25899 0.0
H1327 H 0.46421 0.94171 0.45009 0.0
H1328 H 0.5347 0.15061 0.85001 0.0
H1329 H 0.53783 0.09585 0.85542 0.0
H1330 H 0.44141 0.08849 0.84618 0.0
H1331 H 0.43789 0.14294 0.84168 0.0
H1332 H 0.45698 0.05578 0.87831 0.0
H1333 H 0.49551 0.06769 0.80786 0.0
H1334 H 0.52978 0.08703 0.78036 0.0
H1335 H 0.60589 0.04756 0.81216 0.0
H1336 H 0.5721 0.02833 0.84 0.0
H1337 H 0.43335 0.902 0.85813 0.0
H1338 H 0.43905 0.95665 0.855 0.0
H1339 H 0.53459 0.94841 0.86778 0.0
H1340 H 0.52899 0.89315 0.87046 0.0
H1341 H 0.52489 0.98908 0.83706 0.0
H1342 H 0.48483 0.97357 0.90591 0.0
H1343 H 0.44976 0.95303 0.93247 0.0
H1344 H 0.3754 0.99874 0.90278 0.0
H1345 H 0.40995 0.01923 0.87586 0.0
C1346 C 0.51411 0.13743 0.84927 0.0
C1347 C 0.48604 0.15151 0.84528 0.0
C1348 C 0.51599 0.10596 0.85215 0.0
C1349 C 0.4899 0.08779 0.85098 0.0
C1350 C 0.46193 0.10184 0.84712 0.0
C1351 C 0.46 0.13317 0.84433 0.0
C1352 C 0.4912 0.05428 0.85423 0.0
C1353 C 0.47162 0.04123 0.86908 0.0
C1354 C 0.51098 0.03513 0.84276 0.0
C1355 C 0.53133 0.04694 0.82616 0.0
C1356 C 0.51959 0.06341 0.8091 0.0
C1357 C 0.53892 0.07428 0.79342 0.0
C1358 C 0.57001 0.06862 0.79455 0.0
C1359 C 0.58182 0.052 0.81133 0.0
C1360 C 0.56259 0.0411 0.82706 0.0
C1361 C 0.45556 0.91177 0.86045 0.0
C1362 C 0.48063 0.89321 0.86488 0.0
C1363 C 0.45881 0.94311 0.85866 0.0
C1364 C 0.48712 0.9569 0.86165 0.0
C1365 C 0.51244 0.9384 0.86558 0.0
C1366 C 0.50925 0.90683 0.86709 0.0
C1367 C 0.4899 0.99058 0.86059 0.0
C1368 C 0.51033 0.00365 0.8463 0.0
C1369 C 0.47078 0.00981 0.87248 0.0
C1370 C 0.44997 0.99778 0.88878 0.0
C1371 C 0.46097 0.9791 0.90497 0.0
C1372 C 0.44118 0.96748 0.9201 0.0
C1373 C 0.41036 0.97453 0.91929 0.0
C1374 C 0.39928 0.99329 0.90339 0.0
C1375 C 0.41896 0.00495 0.8882 0.0
H1376 H 0.39508 0.9655 0.93102 0.0
H1377 H 0.58494 0.07705 0.7824 0.0
H1378 H 0.36022 0.53312 0.34406 0.0
H1379 H 0.41544 0.53599 0.34775 0.0
H1380 H 0.41975 0.43887 0.35346 0.0
H1381 H 0.36486 0.43592 0.35032 0.0
H1382 H 0.45488 0.46545 0.38228 0.0
H1383 H 0.43754 0.47597 0.30775 0.0
H1384 H 0.41687 0.49946 0.27569 0.0
H1385 H 0.4627 0.58246 0.29024 0.0
H1386 H 0.48326 0.55962 0.3226 0.0
H1387 H 0.60624 0.42882 0.36142 0.0
H1388 H 0.55167 0.43511 0.35899 0.0
H1389 H 0.56267 0.53184 0.35522 0.0
H1390 H 0.61766 0.52582 0.35794 0.0
H1391 H 0.52005 0.51117 0.32736 0.0
H1392 H 0.53994 0.50056 0.40053 0.0
H1393 H 0.56205 0.47717 0.43216 0.0
H1394 H 0.51234 0.39552 0.42031 0.0
H1395 H 0.49031 0.41824 0.38839 0.0
C1396 C 0.37293 0.51242 0.34626 0.0
C1397 C 0.35802 0.48428 0.34677 0.0
C1398 C 0.40453 0.51406 0.3482 0.0
C1399 C 0.42186 0.48761 0.35068 0.0
C1400 C 0.40695 0.4596 0.3515 0.0
C1401 C 0.37548 0.45793 0.3495 0.0
C1402 C 0.45549 0.48875 0.35256 0.0
C1403 C 0.46911 0.47528 0.37018 0.0
C1404 C 0.47416 0.50242 0.33713 0.0
C1405 C 0.46154 0.51623 0.31778 0.0
C1406 C 0.44292 0.49935 0.30426 0.0
C1407 C 0.43128 0.51252 0.286 0.0
C1408 C 0.43835 0.54248 0.28098 0.0
C1409 C 0.45715 0.55929 0.29419 0.0
C1410 C 0.46879 0.54625 0.31249 0.0
C1411 C 0.59726 0.45152 0.36033 0.0
C1412 C 0.61662 0.47682 0.36027 0.0
C1413 C 0.5659 0.45506 0.35885 0.0
C1414 C 0.55296 0.48397 0.35733 0.0
C1415 C 0.57212 0.5093 0.35653 0.0
C1416 C 0.60362 0.50579 0.35805 0.0
C1417 C 0.5194 0.48743 0.35685 0.0
C1418 C 0.50582 0.50173 0.33957 0.0
C1419 C 0.50072 0.47469 0.37262 0.0
C1420 C 0.51364 0.46104 0.39196 0.0
C1421 C 0.53387 0.47754 0.40458 0.0
C1422 C 0.54638 0.46442 0.42258 0.0
C1423 C 0.53864 0.43487 0.42822 0.0
C1424 C 0.51832 0.41841 0.41591 0.0
C1425 C 0.5058 0.43141 0.39787 0.0
H1426 H 0.54836 0.42474 0.44216 0.0
H1427 H 0.42935 0.55262 0.26682 0.0
H1428 H 0.9736 0.35005 0.83939 0.0
H1429 H 0.96986 0.40551 0.84121 0.0
H1430 H 0.06581 0.41093 0.8531 0.0
H1431 H 0.06956 0.35595 0.85153 0.0
H1432 H 0.03398 0.4465 0.87971 0.0
H1433 H 0.03655 0.42611 0.80524 0.0
H1434 H 0.0192 0.40529 0.77144 0.0
H1435 H 0.93482 0.45268 0.77777 0.0
H1436 H 0.95145 0.47339 0.81183 0.0
H1437 H 0.08183 0.5929 0.85515 0.0
H1438 H 0.07211 0.53892 0.85459 0.0
H1439 H 0.97671 0.55566 0.84661 0.0
H1440 H 0.98593 0.61015 0.84767 0.0
H1441 H 0.99954 0.5098 0.81994 0.0
H1442 H 0.9987 0.53387 0.89266 0.0
H1443 H 0.01721 0.55702 0.92542 0.0
H1444 H 0.09834 0.50367 0.92194 0.0
H1445 H 0.08054 0.48055 0.88895 0.0
C1446 C 0.9938 0.36313 0.84252 0.0
C1447 C 0.0219 0.34858 0.8452 0.0
C1448 C 0.99169 0.3948 0.84339 0.0
C1449 C 0.01761 0.41245 0.84713 0.0
C1450 C 0.04552 0.39787 0.85014 0.0
C1451 C 0.04767 0.36638 0.84909 0.0
C1452 C 0.01608 0.44608 0.84826 0.0
C1453 C 0.02657 0.46029 0.86658 0.0
C1454 C 0.00545 0.46418 0.83141 0.0
C1455 C 0.99506 0.45089 0.81128 0.0
C1456 C 0.01411 0.43172 0.7996 0.0
C1457 C 0.00444 0.42003 0.78035 0.0
C1458 C 0.97587 0.42756 0.7725 0.0
C1459 C 0.95689 0.44678 0.78391 0.0
C1460 C 0.96642 0.45847 0.8032 0.0
C1461 C 0.05865 0.58547 0.85353 0.0
C1462 C 0.03471 0.60641 0.85177 0.0
C1463 C 0.05317 0.55438 0.8531 0.0
C1464 C 0.02365 0.54322 0.85082 0.0
C1465 C 0.99968 0.56379 0.84844 0.0
C1466 C 0.00509 0.59506 0.84903 0.0
C1467 C 0.01826 0.51 0.85111 0.0
C1468 C 0.00644 0.49593 0.83316 0.0
C1469 C 0.02761 0.49194 0.86829 0.0
C1470 C 0.03836 0.50563 0.88822 0.0
C1471 C 0.02059 0.52723 0.89878 0.0
C1472 C 0.03094 0.54033 0.91741 0.0
C1473 C 0.05896 0.53186 0.92573 0.0
C1474 C 0.07665 0.51022 0.91546 0.0
C1475 C 0.06642 0.49709 0.89681 0.0
H1476 H 0.06693 0.54202 0.94016 0.0
H1477 H 0.96849 0.4186 0.75754 0.0
H1478 H 0.8935 0.97578 0.36191 0.0
H1479 H 0.94844 0.97272 0.3569 0.0
H1480 H 0.95414 0.07006 0.35824 0.0
H1481 H 0.89944 0.07332 0.36267 0.0
H1482 H 0.98769 0.04763 0.32686 0.0
H1483 H 0.97477 0.02616 0.40076 0.0
H1484 H 0.95442 0.99824 0.43119 0.0
H1485 H 0.99492 0.91625 0.40844 0.0
H1486 H 0.01519 0.94362 0.3777 0.0
H1487 H 0.14216 0.07573 0.34447 0.0
H1488 H 0.08738 0.07139 0.34761 0.0
H1489 H 0.09476 0.97413 0.34707 0.0
H1490 H 0.14994 0.97833 0.34391 0.0
H1491 H 0.05445 0.9917 0.37605 0.0
H1492 H 0.07008 0.0129 0.3035 0.0
H1493 H 0.09048 0.04 0.27273 0.0
H1494 H 0.04464 0.12103 0.29203 0.0
H1495 H 0.02429 0.09453 0.32309 0.0
C1496 C 0.90639 0.99655 0.36103 0.0
C1497 C 0.89185 0.02481 0.36286 0.0
C1498 C 0.9379 0.99475 0.35833 0.0
C1499 C 0.95561 0.02116 0.35739 0.0
C1500 C 0.94109 0.04934 0.35897 0.0
C1501 C 0.90971 0.05115 0.36172 0.0
C1502 C 0.98918 0.01978 0.35458 0.0
C1503 C 1.00227 0.03563 0.33775 0.0
C1504 C 0.00831 1.00331 0.36834 0.0
C1505 C 0.9962 0.98687 0.38682 0.0
C1506 C 0.97912 1.00213 0.40216 0.0
C1507 C 0.96764 0.98641 0.41948 0.0
C1508 C 0.97329 0.95547 0.42171 0.0
C1509 C 0.99051 0.9402 0.40666 0.0
C1510 C 1.00202 0.95581 0.3893 0.0
C1511 C 0.13226 0.05336 0.34478 0.0
C1512 C 0.15065 0.02739 0.3437 0.0
C1513 C 0.10079 0.05091 0.34662 0.0
C1514 C 0.08671 0.02242 0.34722 0.0
C1515 C 0.10499 0.99638 0.34658 0.0
C1516 C 0.1366 0.99882 0.34481 0.0
C1517 C 0.05299 0.0201 0.34856 0.0
C1518 C 0.03987 1.00352 0.36506 0.0
C1519 C 0.03376 0.03576 0.33442 0.0
C1520 C 0.04586 0.05178 0.31572 0.0
C1521 C 0.06452 0.03656 0.30127 0.0
C1522 C 0.07605 0.0518 0.28376 0.0
C1523 C 0.06891 0.08223 0.28045 0.0
C1524 C 0.05017 0.09746 0.29462 0.0
C1525 C 0.0386 0.08233 0.31217 0.0
H1526 H 0.07786 0.09399 0.26689 0.0
H1527 H 0.96439 0.94335 0.43514 0.0
H1528 H 0.53768 0.34122 0.14567 0.0
H1529 H 0.54149 0.39628 0.14168 0.0
H1530 H 0.44426 0.40233 0.13702 0.0
H1531 H 0.44039 0.3476 0.14037 0.0
H1532 H 0.47058 0.43683 0.10795 0.0
H1533 H 0.48287 0.42014 0.18265 0.0
H1534 H 0.50732 0.39859 0.21411 0.0
H1535 H 0.59121 0.44121 0.19718 0.0
H1536 H 0.56734 0.46269 0.16546 0.0
H1537 H 0.43418 0.58756 0.13004 0.0
H1538 H 0.4409 0.53298 0.13154 0.0
H1539 H 0.5377 0.5446 0.13486 0.0
H1540 H 0.53114 0.59964 0.13323 0.0
H1541 H 0.51849 0.50141 0.16223 0.0
H1542 H 0.50535 0.52193 0.08938 0.0
H1543 H 0.48113 0.54401 0.05804 0.0
H1544 H 0.39978 0.49422 0.071 0.0
H1545 H 0.42335 0.47217 0.10261 0.0
C1546 C 0.51715 0.35426 0.14362 0.0
C1547 C 0.4887 0.33988 0.14349 0.0
C1548 C 0.51934 0.38579 0.14152 0.0
C1549 C 0.49313 0.40357 0.13927 0.0
C1550 C 0.46482 0.38918 0.13881 0.0
C1551 C 0.46262 0.35781 0.14093 0.0
C1552 C 0.49476 0.43714 0.13729 0.0
C1553 C 0.48087 0.45093 0.11991 0.0
C1554 C 0.50909 0.45562 0.1525 0.0
C1555 C 0.52342 0.4427 0.17156 0.0
C1556 C 0.5066 0.42469 0.18554 0.0
C1557 C 0.52034 0.41254 0.20344 0.0
C1558 C 0.55082 0.41844 0.2076 0.0
C1559 C 0.56761 0.43659 0.19391 0.0
C1560 C 0.55399 0.44877 0.17598 0.0
C1561 C 0.45697 0.57867 0.13083 0.0
C1562 C 0.48213 0.59819 0.13122 0.0
C1563 C 0.46078 0.54733 0.13176 0.0
C1564 C 0.48984 0.53456 0.13295 0.0
C1565 C 0.51504 0.55389 0.13387 0.0
C1566 C 0.51124 0.58539 0.13297 0.0
C1567 C 0.49354 0.50104 0.13318 0.0
C1568 C 0.5085 0.48729 0.15016 0.0
C1569 C 0.48028 0.48252 0.11756 0.0
C1570 C 0.46606 0.49556 0.09846 0.0
C1571 C 0.48222 0.51584 0.08563 0.0
C1572 C 0.46862 0.52833 0.0678 0.0
C1573 C 0.43892 0.52057 0.06255 0.0
C1574 C 0.42278 0.50023 0.07509 0.0
C1575 C 0.43627 0.4877 0.09295 0.0
H1576 H 0.42842 0.53027 0.04874 0.0
H1577 H 0.56141 0.40902 0.22147 0.0
H1578 H 0.15292 0.44604 0.64008 0.0
H1579 H 0.09783 0.4495 0.63704 0.0
H1580 H 0.10031 0.53995 0.66224 0.0
H1581 H 0.15587 0.53667 0.66507 0.0
H1582 H 0.05513 0.49813 0.681 0.0
H1583 H 0.08726 0.53676 0.61421 0.0
H1584 H 0.11665 0.53635 0.58128 0.0
H1585 H 0.07476 0.45262 0.56344 0.0
H1586 H 0.04546 0.45228 0.59643 0.0
H1587 H 0.89702 0.51617 0.65973 0.0
H1588 H 0.95147 0.5249 0.66246 0.0
H1589 H 0.96824 0.44713 0.62328 0.0
H1590 H 0.91406 0.43918 0.6196 0.0
H1591 H 0.0042 0.48978 0.61185 0.0
H1592 H 0.97706 0.44665 0.67871 0.0
H1593 H 0.9499 0.44257 0.71245 0.0
H1594 H 0.98321 0.52986 0.73078 0.0
H1595 H 0.01038 0.53456 0.69705 0.0
C1596 C 0.14176 0.46665 0.64501 0.0
C1597 C 0.15868 0.49106 0.65287 0.0
C1598 C 0.1103 0.46865 0.64318 0.0
C1599 C 0.09498 0.49498 0.64939 0.0
C1600 C 0.11172 0.51942 0.65736 0.0
C1601 C 0.14339 0.51761 0.65885 0.0
C1602 C 0.06146 0.4965 0.64753 0.0
C1603 C 0.04388 0.49696 0.66589 0.0
C1604 C 0.04691 0.49414 0.62783 0.0
C1605 C 0.06433 0.49438 0.60789 0.0
C1606 C 0.08449 0.51813 0.60335 0.0
C1607 C 0.1011 0.51806 0.58466 0.0
C1608 C 0.09762 0.49445 0.5703 0.0
C1609 C 0.07745 0.47089 0.57458 0.0
C1610 C 0.06081 0.47084 0.59327 0.0
C1611 C 0.91219 0.5011 0.65146 0.0
C1612 C 0.90084 0.4768 0.6395 0.0
C1613 C 0.94347 0.50593 0.65326 0.0
C1614 C 0.96416 0.48643 0.64334 0.0
C1615 C 0.95287 0.46249 0.63117 0.0
C1616 C 0.9217 0.45778 0.62924 0.0
C1617 C 0.99757 0.49078 0.64538 0.0
C1618 C 0.01525 0.49139 0.62701 0.0
C1619 C 0.01219 0.49366 0.66512 0.0
C1620 C 0.99544 0.49112 0.68524 0.0
C1621 C 0.97835 0.4651 0.68985 0.0
C1622 C 0.96302 0.46264 0.709 0.0
C1623 C 0.96475 0.48598 0.72372 0.0
C1624 C 0.98185 0.51182 0.71934 0.0
C1625 C 0.99723 0.51439 0.70022 0.0
H1626 H 0.95292 0.48401 0.73855 0.0
H1627 H 0.1105 0.49443 0.55583 0.0
H1628 H 0.01398 0.90859 0.16005 0.0
H1629 H 0.00706 0.963 0.16514 0.0
H1630 H 0.01188 0.97661 0.09806 0.0
H1631 H 0.02024 0.92235 0.09315 0.0
H1632 H 0.0435 0.01687 0.11457 0.0
H1633 H 0.94355 0.98277 0.12916 0.0
H1634 H 0.90297 0.95284 0.14575 0.0
H1635 H 0.92704 0.98846 0.20615 0.0
H1636 H 0.96815 0.0183 0.18997 0.0
H1637 H 0.99674 0.17141 0.12024 0.0
H1638 H 0.99361 0.11674 0.11391 0.0
H1639 H 0.01492 0.0997 0.17892 0.0
H1640 H 0.01823 0.1543 0.18527 0.0
H1641 H 0.96719 0.06228 0.16225 0.0
H1642 H 0.06904 0.09515 0.14536 0.0
H1643 H 0.10656 0.12659 0.12675 0.0
H1644 H 0.07415 0.09351 0.06753 0.0
H1645 H 0.03591 0.0624 0.08578 0.0
C1646 C 0.01321 0.92322 0.14641 0.0
C1647 C 0.01769 0.91127 0.12621 0.0
C1648 C 0.00909 0.95436 0.1493 0.0
C1649 C 0.00849 0.97417 0.13198 0.0
C1650 C 0.01234 0.96202 0.11173 0.0
C1651 C 0.0171 0.93098 0.1089 0.0
C1652 C 0.00559 0.0076 0.13498 0.0
C1653 C 0.02636 0.02667 0.1247 0.0
C1654 C 0.98362 0.02075 0.14848 0.0
C1655 C 0.95916 1.00257 0.15835 0.0
C1656 C 0.94041 0.98402 0.146 0.0
C1657 C 0.91728 0.96711 0.15533 0.0
C1658 C 0.91251 0.96871 0.17698 0.0
C1659 C 0.93083 0.98723 0.18937 0.0
C1660 C 0.95404 0.00416 0.18013 0.0
C1661 C 1.00029 0.156 0.13323 0.0
C1662 C 0.00784 0.16711 0.15324 0.0
C1663 C 0.99864 0.12479 0.12958 0.0
C1664 C 0.00417 0.10415 0.14593 0.0
C1665 C 0.01055 0.11521 0.16609 0.0
C1666 C 0.01264 0.14637 0.16967 0.0
C1667 C 0.00498 0.07104 0.14183 0.0
C1668 C 0.98399 0.0522 0.15197 0.0
C1669 C 0.02631 0.0581 0.12791 0.0
C1670 C 0.04937 0.07672 0.11694 0.0
C1671 C 0.06969 0.09482 0.12837 0.0
C1672 C 0.0911 0.11257 0.11788 0.0
C1673 C 0.09264 0.11215 0.09597 0.0
C1674 C 0.07284 0.0939 0.0845 0.0
C1675 C 0.05128 0.07623 0.09491 0.0
H1676 H 0.10923 0.12589 0.08787 0.0
H1677 H 0.89455 0.95568 0.18413 0.0
H1678 H 0.34175 0.97984 0.63238 0.0
H1679 H 0.39686 0.975 0.62959 0.0
H1680 H 0.40781 0.06128 0.65998 0.0
H1681 H 0.35333 0.06584 0.66379 0.0
H1682 H 0.43803 0.05325 0.61887 0.0
H1683 H 0.42474 0.00574 0.68723 0.0
H1684 H 0.40394 0.96729 0.71131 0.0
H1685 H 0.44412 0.89676 0.67427 0.0
H1686 H 0.46481 0.93483 0.64978 0.0
H1687 H 0.58973 0.07872 0.64151 0.0
H1688 H 0.53518 0.07116 0.6435 0.0
H1689 H 0.54703 0.97655 0.62904 0.0
H1690 H 0.60215 0.98402 0.62756 0.0
H1691 H 0.50458 0.98242 0.65795 0.0
H1692 H 0.52171 0.02754 0.59138 0.0
H1693 H 0.54242 0.06414 0.56592 0.0
H1694 H 0.49428 0.13617 0.59644 0.0
H1695 H 0.47362 0.10007 0.62229 0.0
C1696 C 0.35574 0.9976 0.63882 0.0
C1697 C 0.34264 0.02353 0.64802 0.0
C1698 C 0.38732 0.99479 0.63712 0.0
C1699 C 0.40634 0.01791 0.64443 0.0
C1700 C 0.39349 0.04331 0.65406 0.0
C1701 C 0.36213 0.04594 0.65606 0.0
C1702 C 0.43961 0.01678 0.64122 0.0
C1703 C 0.45264 0.03788 0.62748 0.0
C1704 C 0.45847 0.99594 0.65184 0.0
C1705 C 0.44595 0.9731 0.66652 0.0
C1706 C 0.42884 0.98202 0.68408 0.0
C1707 C 0.41715 0.9603 0.69784 0.0
C1708 C 0.4226 0.92959 0.69428 0.0
C1709 C 0.43985 0.92055 0.67698 0.0
C1710 C 0.45157 0.94219 0.66316 0.0
C1711 C 0.58076 0.05635 0.63859 0.0
C1712 C 0.60023 0.03208 0.63405 0.0
C1713 C 0.5495 0.05201 0.63973 0.0
C1714 C 0.53679 0.02342 0.63591 0.0
C1715 C 0.55622 0.99887 0.63191 0.0
C1716 C 0.58769 1.00315 0.63105 0.0
C1717 C 0.50323 0.01961 0.63602 0.0
C1718 C 0.49007 0.99755 0.64908 0.0
C1719 C 0.48409 0.03928 0.62447 0.0
C1720 C 0.49627 0.0611 0.60886 0.0
C1721 C 0.51568 0.05121 0.59275 0.0
C1722 C 0.5274 0.07187 0.57823 0.0
C1723 C 0.51971 0.10247 0.57958 0.0
C1724 C 0.50022 0.11246 0.59542 0.0
C1725 C 0.48847 0.0919 0.60999 0.0
H1726 H 0.52881 0.11843 0.56833 0.0
H1727 H 0.41354 0.91281 0.70495 0.0
H1728 H 0.88391 0.24427 0.21161 0.0
H1729 H 0.83218 0.24107 0.2253 0.0
H1730 H 0.80621 0.31748 0.18731 0.0
H1731 H 0.85781 0.32146 0.17411 0.0
H1732 H 0.77637 0.3186 0.22347 0.0
H1733 H 0.80277 0.24286 0.17103 0.0
H1734 H 0.83083 0.19866 0.15767 0.0
H1735 H 0.79726 0.1447 0.20872 0.0
H1736 H 0.76913 0.18863 0.22245 0.0
H1737 H 0.63846 0.29909 0.17113 0.0
H1738 H 0.68921 0.30602 0.18549 0.0
H1739 H 0.67545 0.23003 0.22699 0.0
H1740 H 0.62439 0.22298 0.21249 0.0
H1741 H 0.72519 0.22352 0.20257 0.0
H1742 H 0.68434 0.29912 0.24571 0.0
H1743 H 0.65562 0.34433 0.25639 0.0
H1744 H 0.71408 0.40037 0.21917 0.0
H1745 H 0.74258 0.3555 0.20767 0.0
C1746 C 0.86735 0.26088 0.20665 0.0
C1747 C 0.87474 0.28276 0.19147 0.0
C1748 C 0.83776 0.25892 0.21444 0.0
C1749 C 0.81514 0.27863 0.20712 0.0
C1750 C 0.82316 0.30188 0.19318 0.0
C1751 C 0.85261 0.30394 0.18546 0.0
C1752 C 0.78256 0.27343 0.21174 0.0
C1753 C 0.76505 0.29787 0.21891 0.0
C1754 C 0.76799 0.24585 0.20661 0.0
C1755 C 0.78463 0.21932 0.19816 0.0
C1756 C 0.80168 0.22168 0.17957 0.0
C1757 C 0.8175 0.19663 0.17187 0.0
C1758 C 0.81605 0.16896 0.18244 0.0
C1759 C 0.79856 0.16621 0.20063 0.0
C1760 C 0.78271 0.19119 0.20839 0.0
C1761 C 0.646 0.28435 0.18369 0.0
C1762 C 0.62767 0.2604 0.19063 0.0
C1763 C 0.67492 0.28843 0.19199 0.0
C1764 C 0.68611 0.2686 0.20737 0.0
C1765 C 0.66719 0.24566 0.2152 0.0
C1766 C 0.63804 0.24174 0.207 0.0
C1767 C 0.71875 0.26948 0.21284 0.0
C1768 C 0.73634 0.24409 0.20773 0.0
C1769 C 0.73324 0.29648 0.21928 0.0
C1770 C 0.71569 0.32371 0.22579 0.0
C1771 C 0.69091 0.321 0.23957 0.0
C1772 C 0.67466 0.34662 0.2458 0.0
C1773 C 0.68308 0.3752 0.23852 0.0
C1774 C 0.70764 0.37821 0.22487 0.0
C1775 C 0.72385 0.35265 0.21848 0.0
H1776 H 0.67055 0.39502 0.24344 0.0
H1777 H 0.82833 0.14959 0.17647 0.0
H1778 H 0.21424 0.62262 0.71877 0.0
H1779 H 0.20716 0.67468 0.73162 0.0
H1780 H 0.28478 0.70329 0.69545 0.0
H1781 H 0.29214 0.6518 0.68323 0.0
H1782 H 0.28127 0.7371 0.72889 0.0
H1783 H 0.20701 0.69973 0.67549 0.0
H1784 H 0.16479 0.66623 0.66532 0.0
H1785 H 0.11266 0.69785 0.71788 0.0
H1786 H 0.15467 0.73145 0.72834 0.0
H1787 H 0.27277 0.86622 0.67073 0.0
H1788 H 0.27195 0.81507 0.68351 0.0
H1789 H 0.18546 0.83075 0.713 0.0
H1790 H 0.18342 0.88075 0.69722 0.0
H1791 H 0.18562 0.77714 0.69891 0.0
H1792 H 0.25659 0.83095 0.74029 0.0
H1793 H 0.29794 0.86817 0.7426 0.0
H1794 H 0.3578 0.80679 0.71088 0.0
H1795 H 0.31653 0.76964 0.70761 0.0
C1796 C 0.23023 0.63997 0.71417 0.0
C1797 C 0.25334 0.63349 0.69968 0.0
C1798 C 0.22613 0.6697 0.72142 0.0
C1799 C 0.24506 0.69313 0.71418 0.0
C1800 C 0.26979 0.6858 0.7013 0.0
C1801 C 0.27386 0.65636 0.69413 0.0
C1802 C 0.23721 0.72567 0.71676 0.0
C1803 C 0.26021 0.74594 0.72262 0.0
C1804 C 0.20932 0.73743 0.70937 0.0
C1805 C 0.18403 0.71767 0.70285 0.0
C1806 C 0.18654 0.69944 0.68487 0.0
C1807 C 0.16267 0.68045 0.67906 0.0
C1808 C 0.1361 0.67982 0.69099 0.0
C1809 C 0.13329 0.69828 0.7087 0.0
C1810 C 0.15711 0.71727 0.71458 0.0
C1811 C 0.25297 0.85901 0.67936 0.0
C1812 C 0.22815 0.87846 0.68271 0.0
C1813 C 0.25298 0.82963 0.68724 0.0
C1814 C 0.22927 0.81929 0.70007 0.0
C1815 C 0.20435 0.83832 0.7035 0.0
C1816 C 0.20357 0.86736 0.69469 0.0
C1817 C 0.23063 0.78836 0.70936 0.0
C1818 C 0.20625 0.76863 0.70604 0.0
C1819 C 0.25734 0.77717 0.719 0.0
C1820 C 0.28331 0.7975 0.72363 0.0
C1821 C 0.27858 0.82534 0.73384 0.0
C1822 C 0.30191 0.84659 0.73508 0.0
C1823 C 0.33037 0.84 0.72664 0.0
C1824 C 0.33567 0.81194 0.71726 0.0
C1825 C 0.3123 0.79075 0.71573 0.0
H1826 H 0.34842 0.85647 0.72766 0.0
H1827 H 0.11766 0.6651 0.68648 0.0
H1828 H 0.86527 0.18676 0.8197 0.0
H1829 H 0.81321 0.18737 0.80684 0.0
H1830 H 0.82763 0.2765 0.78097 0.0
H1831 H 0.87937 0.27633 0.7946 0.0
H1832 H 0.77926 0.27841 0.79841 0.0
H1833 H 0.82118 0.20594 0.75403 0.0
H1834 H 0.84562 0.16116 0.73882 0.0
H1835 H 0.77715 0.1042 0.7657 0.0
H1836 H 0.75227 0.14858 0.78125 0.0
H1837 H 0.62293 0.27416 0.77889 0.0
H1838 H 0.67544 0.27139 0.76649 0.0
H1839 H 0.69018 0.19264 0.80527 0.0
H1840 H 0.63787 0.19528 0.81751 0.0
H1841 H 0.72415 0.19054 0.76901 0.0
H1842 H 0.69982 0.26534 0.82463 0.0
H1843 H 0.67292 0.31103 0.83685 0.0
H1844 H 0.71059 0.36209 0.78571 0.0
H1845 H 0.73742 0.31656 0.77308 0.0
C1846 C 0.8574 0.20622 0.81089 0.0
C1847 C 0.87624 0.23145 0.80803 0.0
C1848 C 0.82769 0.2065 0.8034 0.0
C1849 C 0.81649 0.23169 0.79234 0.0
C1850 C 0.83572 0.25662 0.7891 0.0
C1851 C 0.86524 0.2566 0.79696 0.0
C1852 C 0.78402 0.23318 0.786 0.0
C1853 C 0.76763 0.25929 0.79145 0.0
C1854 C 0.7684 0.20832 0.77687 0.0
C1855 C 0.78444 0.18104 0.76861 0.0
C1856 C 0.8112 0.18397 0.75676 0.0
C1857 C 0.82523 0.15855 0.74807 0.0
C1858 C 0.81288 0.12985 0.7512 0.0
C1859 C 0.78663 0.12649 0.76319 0.0
C1860 C 0.7725 0.15185 0.7719 0.0
C1861 C 0.63711 0.25564 0.78413 0.0
C1862 C 0.62661 0.23519 0.79937 0.0
C1863 C 0.66712 0.25413 0.77711 0.0
C1864 C 0.68688 0.23209 0.78523 0.0
C1865 C 0.67541 0.20987 0.79882 0.0
C1866 C 0.64557 0.21149 0.80591 0.0
C1867 C 0.72019 0.23463 0.78266 0.0
C1868 C 0.73657 0.20953 0.77543 0.0
C1869 C 0.73606 0.26025 0.79002 0.0
C1870 C 0.7203 0.28758 0.79782 0.0
C1871 C 0.70224 0.28631 0.81598 0.0
C1872 C 0.68702 0.31215 0.82297 0.0
C1873 C 0.68998 0.33943 0.81204 0.0
C1874 C 0.70826 0.34094 0.79414 0.0
C1875 C 0.72346 0.31514 0.78705 0.0
H1876 H 0.67818 0.35941 0.81747 0.0
H1877 H 0.8237 0.1102 0.74438 0.0
H1878 H 0.2899 0.8843 0.2953 0.0
H1879 H 0.29094 0.83066 0.28621 0.0
H1880 H 0.19606 0.82326 0.30151 0.0
H1881 H 0.19543 0.87689 0.31154 0.0
H1882 H 0.28003 0.78708 0.31408 0.0
H1883 H 0.16574 0.76029 0.27191 0.0
H1884 H 0.12961 0.7852 0.24804 0.0
H1885 H 0.19964 0.84472 0.22623 0.0
H1886 H 0.23637 0.81986 0.24956 0.0
H1887 H 0.19554 0.639 0.31057 0.0
H1888 H 0.19675 0.69207 0.30012 0.0
H1889 H 0.2922 0.68462 0.28667 0.0
H1890 H 0.29116 0.63133 0.29719 0.0
H1891 H 0.2121 0.72831 0.26748 0.0
H1892 H 0.32695 0.74808 0.30978 0.0
H1893 H 0.35882 0.72327 0.33649 0.0
H1894 H 0.28025 0.68086 0.36317 0.0
H1895 H 0.24789 0.70571 0.33679 0.0
C1896 C 0.26904 0.87142 0.29589 0.0
C1897 C 0.24245 0.88456 0.30368 0.0
C1898 C 0.26963 0.8408 0.2907 0.0
C1899 C 0.24344 0.82305 0.29268 0.0
C1900 C 0.21636 0.83666 0.29941 0.0
C1901 C 0.21595 0.86721 0.30506 0.0
C1902 C 0.2454 0.78975 0.29035 0.0
C1903 C 0.26563 0.7743 0.30352 0.0
C1904 C 0.22579 0.77312 0.2771 0.0
C1905 C 0.20387 0.7883 0.26278 0.0
C1906 C 0.17355 0.7786 0.26198 0.0
C1907 C 0.1529 0.79277 0.24854 0.0
C1908 C 0.16225 0.81674 0.23581 0.0
C1909 C 0.19235 0.82635 0.23628 0.0
C1910 C 0.21311 0.81221 0.24962 0.0
C1911 C 0.21662 0.64834 0.30479 0.0
C1912 C 0.24337 0.63106 0.30499 0.0
C1913 C 0.21726 0.67874 0.29878 0.0
C1914 C 0.24464 0.69243 0.29293 0.0
C1915 C 0.27089 0.67459 0.29142 0.0
C1916 C 0.2703 0.64422 0.29754 0.0
C1917 C 0.24639 0.72588 0.29141 0.0
C1918 C 0.22683 0.74129 0.27767 0.0
C1919 C 0.26589 0.74269 0.30462 0.0
C1920 C 0.2851 0.72811 0.32089 0.0
C1921 C 0.31649 0.73334 0.32125 0.0
C1922 C 0.33464 0.71935 0.3364 0.0
C1923 C 0.32161 0.7003 0.35141 0.0
C1924 C 0.29036 0.69543 0.35143 0.0
C1925 C 0.27211 0.70944 0.33636 0.0
H1926 H 0.33571 0.68945 0.3631 0.0
H1927 H 0.14622 0.82771 0.22545 0.0
H1928 H 0.13001 0.70441 0.77528 0.0
H1929 H 0.18177 0.70323 0.76276 0.0
H1930 H 0.20061 0.78552 0.79673 0.0
H1931 H 0.14807 0.78981 0.80616 0.0
H1932 H 0.23807 0.78467 0.76987 0.0
H1933 H 0.20413 0.70254 0.81625 0.0
H1934 H 0.1746 0.65688 0.8251 0.0
H1935 H 0.21377 0.61005 0.77262 0.0
H1936 H 0.24352 0.65546 0.76354 0.0
H1937 H 0.35828 0.76526 0.83629 0.0
H1938 H 0.30822 0.76101 0.82098 0.0
H1939 H 0.34403 0.70581 0.77101 0.0
H1940 H 0.39482 0.70898 0.78684 0.0
H1941 H 0.28468 0.68711 0.79086 0.0
H1942 H 0.33555 0.77307 0.76173 0.0
H1943 H 0.3673 0.81812 0.76703 0.0
H1944 H 0.29511 0.86134 0.80075 0.0
H1945 H 0.26361 0.81579 0.79698 0.0
C1946 C 0.14459 0.72304 0.77951 0.0
C1947 C 0.13456 0.74651 0.79288 0.0
C1948 C 0.17468 0.72195 0.77255 0.0
C1949 C 0.19589 0.7432 0.77978 0.0
C1950 C 0.18522 0.76821 0.79121 0.0
C1951 C 0.15492 0.77021 0.79719 0.0
C1952 C 0.22929 0.73809 0.77802 0.0
C1953 C 0.24812 0.76327 0.77446 0.0
C1954 C 0.24299 0.70991 0.78324 0.0
C1955 C 0.2253 0.68261 0.78884 0.0
C1956 C 0.20623 0.68255 0.80653 0.0
C1957 C 0.18953 0.65671 0.81162 0.0
C1958 C 0.19211 0.63065 0.79933 0.0
C1959 C 0.21159 0.63031 0.78203 0.0
C1960 C 0.22833 0.65611 0.77688 0.0
C1961 C 0.35562 0.7516 0.82231 0.0
C1962 C 0.38061 0.73732 0.81285 0.0
C1963 C 0.32696 0.74938 0.81351 0.0
C1964 C 0.32258 0.73336 0.7948 0.0
C1965 C 0.34712 0.71834 0.78546 0.0
C1966 C 0.37607 0.72045 0.79438 0.0
C1967 C 0.29239 0.73425 0.78483 0.0
C1968 C 0.2745 0.70821 0.78572 0.0
C1969 C 0.2793 0.76209 0.77865 0.0
C1970 C 0.29716 0.7907 0.77915 0.0
C1971 C 0.3265 0.79198 0.77052 0.0
C1972 C 0.3446 0.81755 0.77344 0.0
C1973 C 0.33327 0.84255 0.78428 0.0
C1974 C 0.30386 0.84195 0.79234 0.0
C1975 C 0.28592 0.81615 0.78991 0.0
H1976 H 0.34722 0.86244 0.78634 0.0
H1977 H 0.17915 0.61067 0.80329 0.0
H1978 H 0.75947 0.11501 0.28046 0.0
H1979 H 0.75442 0.16826 0.26954 0.0
H1980 H 0.741 0.19426 0.33414 0.0
H1981 H 0.74658 0.14197 0.3451 0.0
H1982 H 0.69869 0.22004 0.30715 0.0
H1983 H 0.81027 0.2121 0.31506 0.0
H1984 H 0.85718 0.18391 0.307 0.0
H1985 H 0.83873 0.19166 0.24104 0.0
H1986 H 0.79208 0.2208 0.24888 0.0
H1987 H 0.74946 0.3585 0.34159 0.0
H1988 H 0.74643 0.3052 0.33206 0.0
H1989 H 0.74475 0.32926 0.26645 0.0
H1990 H 0.7469 0.38337 0.27601 0.0
H1991 H 0.78717 0.27806 0.28091 0.0
H1992 H 0.68379 0.31042 0.28321 0.0
H1993 H 0.6392 0.33634 0.29789 0.0
H1994 H 0.64296 0.27929 0.35242 0.0
H1995 H 0.68786 0.25336 0.33813 0.0
C1996 C 0.75556 0.13219 0.29227 0.0
C1997 C 0.75288 0.12421 0.3136 0.0
C1998 C 0.75255 0.16248 0.28602 0.0
C1999 C 0.7469 0.18505 0.30104 0.0
C2000 C 0.74473 0.1771 0.32227 0.0
C2001 C 0.74785 0.14713 0.32849 0.0
C2002 C 0.74419 0.21736 0.29528 0.0
C2003 C 0.71779 0.23281 0.30112 0.0
C2004 C 0.769 0.23375 0.28719 0.0
C2005 C 0.79793 0.21847 0.28245 0.0
C2006 C 0.81649 0.20806 0.29884 0.0
C2007 C 0.84298 0.192 0.29434 0.0
C2008 C 0.85098 0.18613 0.2735 0.0
C2009 C 0.8326 0.19648 0.25715 0.0
C2010 C 0.80626 0.21288 0.26159 0.0
C2011 C 0.74859 0.35247 0.32512 0.0
C2012 C 0.74857 0.37492 0.30952 0.0
C2013 C 0.74676 0.32208 0.31971 0.0
C2014 C 0.74506 0.31344 0.29858 0.0
C2015 C 0.74572 0.33566 0.28283 0.0
C2016 C 0.74695 0.36638 0.28828 0.0
C2017 C 0.74199 0.28095 0.29363 0.0
C2018 C 0.76741 0.2654 0.28594 0.0
C2019 C 0.71649 0.26448 0.30079 0.0
C2020 C 0.68922 0.27986 0.30945 0.0
C2021 C 0.67515 0.30344 0.29829 0.0
C2022 C 0.64982 0.31816 0.30658 0.0
C2023 C 0.63821 0.30944 0.32607 0.0
C2024 C 0.65193 0.28598 0.33729 0.0
C2025 C 0.67731 0.27123 0.32906 0.0
H2026 H 0.6186 0.32086 0.33248 0.0
H2027 H 0.87138 0.1735 0.27003 0.0
H2028 H 0.36884 0.77106 0.18798 0.0
H2029 H 0.31527 0.76859 0.19664 0.0
H2030 H 0.31892 0.67108 0.19575 0.0
H2031 H 0.37245 0.67338 0.18586 0.0
H2032 H 0.27166 0.69166 0.17347 0.0
H2033 H 0.30077 0.70603 0.24622 0.0
H2034 H 0.33396 0.72875 0.27305 0.0
H2035 H 0.30822 0.81764 0.25232 0.0
H2036 H 0.27437 0.79532 0.2258 0.0
H2037 H 0.11382 0.71197 0.19235 0.0
H2038 H 0.16462 0.69497 0.20284 0.0
H2039 H 0.19825 0.78587 0.195 0.0
H2040 H 0.14782 0.80282 0.18454 0.0
H2041 H 0.22504 0.75485 0.22908 0.0
H2042 H 0.20024 0.73983 0.15469 0.0
H2043 H 0.16946 0.71769 0.12629 0.0
H2044 H 0.18936 0.6284 0.14909 0.0
H2045 H 0.21992 0.65011 0.17783 0.0
C2046 C 0.35837 0.74905 0.18973 0.0
C2047 C 0.375 0.72245 0.18617 0.0
C2048 C 0.32777 0.74764 0.19502 0.0
C2049 C 0.31315 0.71961 0.19731 0.0
C2050 C 0.3298 0.69294 0.19429 0.0
C2051 C 0.36048 0.69432 0.18882 0.0
C2052 C 0.27997 0.71876 0.201 0.0
C2053 C 0.26141 0.70463 0.18606 0.0
C2054 C 0.26646 0.73566 0.21733 0.0
C2055 C 0.28494 0.74909 0.23424 0.0
C2056 C 0.30196 0.73042 0.24763 0.0
C2057 C 0.32081 0.74323 0.26282 0.0
C2058 C 0.32294 0.77466 0.26462 0.0
C2059 C 0.30614 0.79332 0.25125 0.0
C2060 C 0.28692 0.78062 0.23627 0.0
C2061 C 0.1319 0.72842 0.19355 0.0
C2062 C 0.12709 0.75863 0.18751 0.0
C2063 C 0.16086 0.71869 0.19944 0.0
C2064 C 0.18518 0.73914 0.19949 0.0
C2065 C 0.17978 0.76975 0.19507 0.0
C2066 C 0.15103 0.77938 0.18901 0.0
C2067 C 0.21688 0.72859 0.20129 0.0
C2068 C 0.23516 0.7407 0.21715 0.0
C2069 C 0.23002 0.70956 0.18591 0.0
C2070 C 0.212 0.69657 0.16852 0.0
C2071 C 0.19786 0.71549 0.15372 0.0
C2072 C 0.18048 0.70303 0.13756 0.0
C2073 C 0.17738 0.67166 0.13593 0.0
C2074 C 0.19172 0.65269 0.15041 0.0
C2075 C 0.20906 0.66506 0.16663 0.0
H2076 H 0.16392 0.66205 0.12341 0.0
H2077 H 0.33771 0.78457 0.27628 0.0
H2078 H 0.72954 0.12151 0.71824 0.0
H2079 H 0.73598 0.17286 0.73194 0.0
H2080 H 0.80412 0.19035 0.68489 0.0
H2081 H 0.79858 0.13896 0.67172 0.0
H2082 H 0.81765 0.21997 0.7189 0.0
H2083 H 0.72493 0.20551 0.67753 0.0
H2084 H 0.67518 0.18186 0.67106 0.0
H2085 H 0.64375 0.21246 0.73126 0.0
H2086 H 0.69348 0.23603 0.73802 0.0
H2087 H 0.81126 0.36413 0.67977 0.0
H2088 H 0.81154 0.31124 0.69044 0.0
H2089 H 0.73523 0.32783 0.73139 0.0
H2090 H 0.73396 0.38079 0.71945 0.0
H2091 H 0.72398 0.28081 0.71171 0.0
H2092 H 0.80921 0.3086 0.74937 0.0
H2093 H 0.858 0.33164 0.75892 0.0
H2094 H 0.90354 0.27609 0.71355 0.0
H2095 H 0.85499 0.25306 0.70338 0.0
C2096 C 0.74652 0.13605 0.71126 0.0
C2097 C 0.76305 0.12651 0.69359 0.0
C2098 C 0.75 0.16548 0.71898 0.0
C2099 C 0.7699 0.18579 0.70906 0.0
C2100 C 0.78837 0.17527 0.69268 0.0
C2101 C 0.78501 0.14594 0.68504 0.0
C2102 C 0.76959 0.21865 0.71393 0.0
C2103 C 0.79716 0.23334 0.71778 0.0
C2104 C 0.74272 0.23602 0.71278 0.0
C2105 C 0.71286 0.22222 0.7084 0.0
C2106 C 0.7074 0.20707 0.68939 0.0
C2107 C 0.67924 0.19369 0.68566 0.0
C2108 C 0.65633 0.19558 0.70076 0.0
C2109 C 0.6615 0.21095 0.71958 0.0
C2110 C 0.68963 0.22432 0.72337 0.0
C2111 C 0.79498 0.35652 0.69137 0.0
C2112 C 0.77277 0.37628 0.69898 0.0
C2113 C 0.79526 0.32633 0.69765 0.0
C2114 C 0.77381 0.31544 0.71214 0.0
C2115 C 0.75213 0.33562 0.7203 0.0
C2116 C 0.75144 0.36581 0.7136 0.0
C2117 C 0.77229 0.28242 0.71666 0.0
C2118 C 0.74439 0.26762 0.7142 0.0
C2119 C 0.79879 0.26491 0.7199 0.0
C2120 C 0.82825 0.27904 0.72559 0.0
C2121 C 0.82954 0.30148 0.74123 0.0
C2122 C 0.85721 0.31452 0.7468 0.0
C2123 C 0.88386 0.30533 0.73686 0.0
C2124 C 0.88288 0.28312 0.72129 0.0
C2125 C 0.85526 0.27 0.71565 0.0
H2126 H 0.90527 0.31542 0.74122 0.0
H2127 H 0.63455 0.18519 0.69785 0.0
H2128 H 0.33883 0.99366 0.27746 0.0
H2129 H 0.3703 0.02539 0.25482 0.0
H2130 H 0.35193 0.10237 0.29451 0.0
H2131 H 0.31935 0.07104 0.3166 0.0
H2132 H 0.35314 0.12101 0.25695 0.0
H2133 H 0.41754 0.05889 0.29759 0.0
H2134 H 0.43861 0.01213 0.31259 0.0
H2135 H 0.46553 0.98251 0.25121 0.0
H2136 H 0.44335 0.02856 0.23562 0.0
H2137 H 0.51786 0.15952 0.21601 0.0
H2138 H 0.48381 0.13403 0.24061 0.0
H2139 H 0.40998 0.14511 0.19683 0.0
H2140 H 0.44358 0.17209 0.17281 0.0
H2141 H 0.45639 0.08495 0.23924 0.0
H2142 H 0.34253 0.1462 0.22029 0.0
H2143 H 0.32479 0.19719 0.21038 0.0
H2144 H 0.4043 0.23642 0.23792 0.0
H2145 H 0.42231 0.18574 0.24825 0.0
C2146 C 0.34126 0.01743 0.28121 0.0
C2147 C 0.32676 0.02984 0.29885 0.0
C2148 C 0.3594 0.03552 0.26833 0.0
C2149 C 0.36408 0.06618 0.27319 0.0
C2150 C 0.34877 0.0788 0.29042 0.0
C2151 C 0.33015 0.06085 0.30306 0.0
C2152 C 0.38548 0.08488 0.26064 0.0
C2153 C 0.37571 0.11311 0.25308 0.0
C2154 C 0.41536 0.07509 0.25613 0.0
C2155 C 0.42843 0.04711 0.26539 0.0
C2156 C 0.4276 0.04227 0.28723 0.0
C2157 C 0.4398 0.01588 0.29585 0.0
C2158 C 0.45354 0.9944 0.2829 0.0
C2159 C 0.45488 0.99917 0.26124 0.0
C2160 C 0.44237 0.02536 0.25248 0.0
C2161 C 0.49425 0.15681 0.2118 0.0
C2162 C 0.48327 0.16794 0.1926 0.0
C2163 C 0.47482 0.14215 0.22582 0.0
C2164 C 0.44414 0.13787 0.22075 0.0
C2165 C 0.43327 0.14881 0.20144 0.0
C2166 C 0.45254 0.16411 0.18765 0.0
C2167 C 0.42388 0.12086 0.23524 0.0
C2168 C 0.43383 0.0929 0.24314 0.0
C2169 C 0.39471 0.1315 0.24084 0.0
C2170 C 0.38389 0.16212 0.23486 0.0
C2171 C 0.35616 0.16572 0.22431 0.0
C2172 C 0.34608 0.19457 0.2186 0.0
C2173 C 0.36345 0.22001 0.22346 0.0
C2174 C 0.39091 0.21668 0.2341 0.0
C2175 C 0.40109 0.1879 0.23986 0.0
H2176 H 0.35561 0.24232 0.21902 0.0
H2177 H 0.46314 0.97407 0.28967 0.0
H2178 H 0.51848 0.3569 0.78586 0.0
H2179 H 0.48523 0.3888 0.76478 0.0
H2180 H 0.40776 0.33806 0.78627 0.0
H2181 H 0.44092 0.30615 0.80771 0.0
H2182 H 0.44765 0.3786 0.73309 0.0
H2183 H 0.34838 0.38761 0.79238 0.0
H2184 H 0.34003 0.38514 0.83066 0.0
H2185 H 0.43171 0.41325 0.84148 0.0
H2186 H 0.44052 0.41629 0.80329 0.0
H2187 H 0.32017 0.44433 0.68337 0.0
H2188 H 0.34986 0.41039 0.70574 0.0
H2189 H 0.37918 0.48643 0.74287 0.0
H2190 H 0.34989 0.52062 0.72041 0.0
H2191 H 0.3635 0.43461 0.7672 0.0
H2192 H 0.42787 0.46359 0.71043 0.0
H2193 H 0.44183 0.47237 0.67353 0.0
H2194 H 0.42794 0.37825 0.65988 0.0
H2195 H 0.41383 0.36895 0.69687 0.0
C2196 C 0.4944 0.35227 0.78599 0.0
C2197 C 0.48235 0.32899 0.79853 0.0
C2198 C 0.47542 0.37055 0.77389 0.0
C2199 C 0.44399 0.36602 0.7741 0.0
C2200 C 0.43193 0.34221 0.78609 0.0
C2201 C 0.45093 0.32389 0.79825 0.0
C2202 C 0.42394 0.38676 0.76214 0.0
C2203 C 0.42912 0.39062 0.74056 0.0
C2204 C 0.40029 0.40318 0.77196 0.0
C2205 C 0.39516 0.40184 0.79497 0.0
C2206 C 0.36672 0.39336 0.80293 0.0
C2207 C 0.36192 0.39185 0.82461 0.0
C2208 C 0.38537 0.39892 0.83849 0.0
C2209 C 0.41363 0.40765 0.83071 0.0
C2210 C 0.41854 0.40924 0.80905 0.0
C2211 C 0.33262 0.4538 0.69645 0.0
C2212 C 0.3328 0.48517 0.70008 0.0
C2213 C 0.34961 0.43439 0.70918 0.0
C2214 C 0.36677 0.44596 0.72588 0.0
C2215 C 0.36601 0.47708 0.73007 0.0
C2216 C 0.34938 0.49657 0.71718 0.0
C2217 C 0.38688 0.42579 0.73818 0.0
C2218 C 0.38177 0.42217 0.75977 0.0
C2219 C 0.41122 0.4103 0.72856 0.0
C2220 C 0.41947 0.41566 0.70632 0.0
C2221 C 0.42754 0.44482 0.69951 0.0
C2222 C 0.43555 0.44988 0.67858 0.0
C2223 C 0.43561 0.42592 0.66429 0.0
C2224 C 0.42781 0.39681 0.67096 0.0
C2225 C 0.41988 0.39161 0.69192 0.0
H2226 H 0.44181 0.42986 0.64808 0.0
H2227 H 0.38161 0.39771 0.85526 0.0
H2228 H 0.22924 0.46682 0.27283 0.0
H2229 H 0.19334 0.44037 0.25015 0.0
H2230 H 0.12777 0.43952 0.30043 0.0
H2231 H 0.16388 0.46472 0.32333 0.0
H2232 H 0.12684 0.3879 0.28297 0.0
H2233 H 0.12252 0.48856 0.25685 0.0
H2234 H 0.14061 0.5372 0.24264 0.0
H2235 H 0.17638 0.49175 0.18848 0.0
H2236 H 0.15887 0.44274 0.20251 0.0
H2237 H 0.99743 0.36146 0.21564 0.0
H2238 H 0.03389 0.38733 0.23845 0.0
H2239 H 0.10731 0.3555 0.1997 0.0
H2240 H 0.07121 0.32899 0.17711 0.0
H2241 H 0.10341 0.42331 0.21084 0.0
H2242 H 0.10486 0.32157 0.23986 0.0
H2243 H 0.08058 0.27602 0.25458 0.0
H2244 H 0.04284 0.32901 0.30466 0.0
H2245 H 0.06653 0.37498 0.29003 0.0
C2246 C 0.20719 0.46097 0.27906 0.0
C2247 C 0.19945 0.46799 0.29991 0.0
C2248 C 0.18656 0.44603 0.26601 0.0
C2249 C 0.15759 0.4383 0.27343 0.0
C2250 C 0.14994 0.44519 0.29429 0.0
C2251 C 0.17065 0.45973 0.30739 0.0
C2252 C 0.13548 0.42239 0.25971 0.0
C2253 C 0.12151 0.39599 0.26732 0.0
C2254 C 0.12852 0.43262 0.23916 0.0
C2255 C 0.13974 0.46193 0.23088 0.0
C2256 C 0.13456 0.48889 0.24203 0.0
C2257 C 0.14463 0.51654 0.23398 0.0
C2258 C 0.15973 0.51755 0.2147 0.0
C2259 C 0.16476 0.49091 0.20343 0.0
C2260 C 0.15476 0.4632 0.21143 0.0
C2261 C 0.02135 0.35979 0.21207 0.0
C2262 C 0.03148 0.34306 0.19467 0.0
C2263 C 0.04209 0.37457 0.22509 0.0
C2264 C 0.07318 0.37322 0.22069 0.0
C2265 C 0.08336 0.35672 0.20329 0.0
C2266 C 0.06272 0.34147 0.19051 0.0
C2267 C 0.0951 0.3892 0.23422 0.0
C2268 C 0.10893 0.41548 0.22653 0.0
C2269 C 0.10129 0.37939 0.25487 0.0
C2270 C 0.08718 0.35175 0.26372 0.0
C2271 C 0.09113 0.32356 0.25389 0.0
C2272 C 0.07753 0.29765 0.26224 0.0
C2273 C 0.0601 0.29963 0.28051 0.0
C2274 C 0.0563 0.32751 0.29049 0.0
C2275 C 0.06983 0.3535 0.28218 0.0
H2276 H 0.0496 0.27954 0.28696 0.0
H2277 H 0.16746 0.53899 0.20848 0.0
H2278 H 0.04576 0.15688 0.82238 0.0
H2279 H 0.07737 0.12494 0.80032 0.0
H2280 H 0.07519 0.19253 0.75142 0.0
H2281 H 0.0427 0.2245 0.77332 0.0
H2282 H 0.06821 0.13614 0.73582 0.0
H2283 H 0.13703 0.18526 0.78435 0.0
H2284 H 0.1549 0.19948 0.81968 0.0
H2285 H 0.16342 0.10567 0.83625 0.0
H2286 H 0.14526 0.0909 0.80108 0.0
H2287 H 0.18679 0.08446 0.67281 0.0
H2288 H 0.15581 0.11542 0.69619 0.0
H2289 H 0.16855 0.05016 0.74595 0.0
H2290 H 0.20144 0.0202 0.72285 0.0
H2291 H 0.16886 0.10333 0.76198 0.0
H2292 H 0.10343 0.05343 0.71301 0.0
H2293 H 0.08628 0.03866 0.67764 0.0
H2294 H 0.06912 0.13175 0.66245 0.0
H2295 H 0.08706 0.1472 0.69748 0.0
C2296 C 0.05188 0.16502 0.80694 0.0
C2297 C 0.04189 0.19338 0.79967 0.0
C2298 C 0.07007 0.14672 0.79436 0.0
C2299 C 0.07909 0.15661 0.7744 0.0
C2300 C 0.06857 0.18456 0.76685 0.0
C2301 C 0.05007 0.20281 0.77937 0.0
C2302 C 0.09977 0.13794 0.76151 0.0
C2303 C 0.09037 0.12922 0.7414 0.0
C2304 C 0.12823 0.12812 0.76914 0.0
C2305 C 0.13962 0.13699 0.79015 0.0
C2306 C 0.1426 0.16768 0.79556 0.0
C2307 C 0.15278 0.17583 0.81555 0.0
C2308 C 0.16024 0.15349 0.83021 0.0
C2309 C 0.15762 0.12294 0.82488 0.0
C2310 C 0.14744 0.11467 0.80492 0.0
C2311 C 0.18317 0.07697 0.68882 0.0
C2312 C 0.19617 0.04998 0.6961 0.0
C2313 C 0.16531 0.0945 0.70212 0.0
C2314 C 0.15902 0.08465 0.72264 0.0
C2315 C 0.17288 0.05811 0.73013 0.0
C2316 C 0.19161 0.04102 0.71699 0.0
C2317 C 0.13754 0.10178 0.73605 0.0
C2318 C 0.14669 0.11009 0.75634 0.0
C2319 C 0.10867 0.11093 0.72865 0.0
C2320 C 0.09682 0.10149 0.70784 0.0
C2321 C 0.09611 0.07076 0.70211 0.0
C2322 C 0.08629 0.06228 0.6821 0.0
C2323 C 0.0766 0.08427 0.66783 0.0
C2324 C 0.07664 0.11476 0.67353 0.0
C2325 C 0.08668 0.1234 0.69344 0.0
H2326 H 0.06912 0.07779 0.65233 0.0
H2327 H 0.16809 0.15985 0.84568 0.0
H2328 H 0.66101 0.01777 0.72134 0.0
H2329 H 0.63405 0.98428 0.74566 0.0
H2330 H 0.63891 0.91212 0.70009 0.0
H2331 H 0.66748 0.94489 0.67649 0.0
H2332 H 0.58368 0.95911 0.74551 0.0
H2333 H 0.63833 0.84395 0.72129 0.0
H2334 H 0.68785 0.82459 0.70942 0.0
H2335 H 0.73239 0.9002 0.73825 0.0
H2336 H 0.6832 0.91979 0.75053 0.0
H2337 H 0.4893 0.84305 0.78289 0.0
H2338 H 0.52083 0.87487 0.76029 0.0
H2339 H 0.59963 0.85047 0.79666 0.0
H2340 H 0.56852 0.81764 0.8186 0.0
H2341 H 0.61568 0.85323 0.75879 0.0
H2342 H 0.55965 0.91752 0.80337 0.0
H2343 H 0.51464 0.93898 0.82057 0.0
H2344 H 0.48193 0.9712 0.76118 0.0
H2345 H 0.52616 0.94872 0.74339 0.0
C2346 C 0.65658 0.99462 0.71671 0.0
C2347 C 0.6666 0.98374 0.69721 0.0
C2348 C 0.64108 0.97553 0.73054 0.0
C2349 C 0.6348 0.94542 0.72492 0.0
C2350 C 0.64426 0.93487 0.70516 0.0
C2351 C 0.66047 0.95366 0.69161 0.0
C2352 C 0.6177 0.92525 0.7394 0.0
C2353 C 0.59075 0.93599 0.74845 0.0
C2354 C 0.62726 0.8953 0.74379 0.0
C2355 C 0.65702 0.88347 0.73666 0.0
C2356 C 0.6587 0.85637 0.72518 0.0
C2357 C 0.68671 0.84537 0.71836 0.0
C2358 C 0.71324 0.8612 0.72302 0.0
C2359 C 0.71182 0.88801 0.73458 0.0
C2360 C 0.68387 0.89909 0.74146 0.0
C2361 C 0.51341 0.84424 0.78588 0.0
C2362 C 0.52643 0.82795 0.80254 0.0
C2363 C 0.53139 0.86257 0.77306 0.0
C2364 C 0.56255 0.86559 0.77702 0.0
C2365 C 0.57568 0.84857 0.79326 0.0
C2366 C 0.55784 0.8298 0.80582 0.0
C2367 C 0.58141 0.88692 0.76457 0.0
C2368 C 0.60866 0.87638 0.75589 0.0
C2369 C 0.57285 0.9175 0.76138 0.0
C2370 C 0.54613 0.93111 0.77199 0.0
C2371 C 0.54273 0.92889 0.79391 0.0
C2372 C 0.51734 0.94127 0.80379 0.0
C2373 C 0.49549 0.95659 0.79203 0.0
C2374 C 0.49888 0.95935 0.77029 0.0
C2375 C 0.52406 0.94667 0.76028 0.0
H2376 H 0.47594 0.9663 0.79977 0.0
H2377 H 0.7349 0.85266 0.71771 0.0
H2378 H 0.55885 0.72461 0.21995 0.0
H2379 H 0.59218 0.69317 0.24177 0.0
H2380 H 0.57031 0.61525 0.20403 0.0
H2381 H 0.53737 0.64647 0.18205 0.0
H2382 H 0.56988 0.60485 0.24872 0.0
H2383 H 0.63247 0.64687 0.19362 0.0
H2384 H 0.65361 0.68856 0.17246 0.0
H2385 H 0.69218 0.728 0.22792 0.0
H2386 H 0.67084 0.68675 0.24946 0.0
H2387 H 0.7284 0.53451 0.26912 0.0
H2388 H 0.69426 0.56519 0.24747 0.0
H2389 H 0.64397 0.59067 0.30278 0.0
H2390 H 0.67747 0.55997 0.32441 0.0
H2391 H 0.68034 0.62572 0.24799 0.0
H2392 H 0.56979 0.59464 0.29065 0.0
H2393 H 0.54937 0.55306 0.31221 0.0
H2394 H 0.6072 0.4898 0.28039 0.0
H2395 H 0.62773 0.53102 0.25848 0.0
C2396 C 0.56096 0.70072 0.21646 0.0
C2397 C 0.54574 0.688 0.19924 0.0
C2398 C 0.58001 0.68287 0.22886 0.0
C2399 C 0.58372 0.65201 0.22437 0.0
C2400 C 0.56769 0.63904 0.20768 0.0
C2401 C 0.54905 0.65694 0.1951 0.0
C2402 C 0.60526 0.6334 0.23652 0.0
C2403 C 0.59402 0.60939 0.24862 0.0
C2404 C 0.63672 0.63925 0.23613 0.0
C2405 C 0.6498 0.6639 0.22317 0.0
C2406 C 0.64524 0.66457 0.20133 0.0
C2407 C 0.6573 0.68809 0.18926 0.0
C2408 C 0.67416 0.71096 0.19885 0.0
C2409 C 0.67908 0.7103 0.22052 0.0
C2410 C 0.66702 0.68684 0.23266 0.0
C2411 C 0.71011 0.5467 0.27666 0.0
C2412 C 0.7055 0.54459 0.29844 0.0
C2413 C 0.6907 0.56425 0.26429 0.0
C2414 C 0.6664 0.57983 0.27352 0.0
C2415 C 0.66228 0.57839 0.29531 0.0
C2416 C 0.68153 0.56084 0.30764 0.0
C2417 C 0.64498 0.59728 0.26039 0.0
C2418 C 0.65621 0.62113 0.24812 0.0
C2419 C 0.6135 0.59119 0.26057 0.0
C2420 C 0.60044 0.56597 0.27304 0.0
C2421 C 0.57797 0.57182 0.28815 0.0
C2422 C 0.56642 0.5483 0.30046 0.0
C2423 C 0.57702 0.51878 0.29771 0.0
C2424 C 0.59907 0.51269 0.28255 0.0
C2425 C 0.61069 0.53613 0.27019 0.0
H2426 H 0.56817 0.50059 0.3073 0.0
H2427 H 0.68348 0.72916 0.18948 0.0
H2428 H 0.7756 0.54958 0.72602 0.0
H2429 H 0.80665 0.58438 0.74685 0.0
H2430 H 0.87606 0.58193 0.69919 0.0
H2431 H 0.84526 0.54778 0.67826 0.0
H2432 H 0.8629 0.57942 0.76385 0.0
H2433 H 0.9068 0.65096 0.69384 0.0
H2434 H 0.88963 0.66708 0.65871 0.0
H2435 H 0.79696 0.65854 0.67825 0.0
H2436 H 0.81356 0.6428 0.71358 0.0
H2437 H 0.98851 0.66274 0.79786 0.0
H2438 H 0.9549 0.63049 0.77728 0.0
H2439 H 0.89757 0.70746 0.76424 0.0
H2440 H 0.93253 0.74016 0.78365 0.0
H2441 H 0.89952 0.67491 0.73159 0.0
H2442 H 0.88208 0.6516 0.80455 0.0
H2443 H 0.89792 0.63712 0.84032 0.0
H2444 H 0.93213 0.55262 0.81701 0.0
H2445 H 0.91679 0.56674 0.78107 0.0
C2446 C 0.79749 0.55645 0.72001 0.0
C2447 C 0.80783 0.54614 0.7004 0.0
C2448 C 0.8152 0.57624 0.73194 0.0
C2449 C 0.84341 0.58604 0.72439 0.0
C2450 C 0.8541 0.5751 0.70511 0.0
C2451 C 0.83644 0.55549 0.69319 0.0
C2452 C 0.86177 0.60797 0.73645 0.0
C2453 C 0.87079 0.60039 0.75688 0.0
C2454 C 0.87168 0.63549 0.72741 0.0
C2455 C 0.86146 0.64546 0.7063 0.0
C2456 C 0.88276 0.65268 0.69067 0.0
C2457 C 0.87312 0.66172 0.67072 0.0
C2458 C 0.84222 0.66375 0.66624 0.0
C2459 C 0.82089 0.65686 0.68172 0.0
C2460 C 0.8304 0.64785 0.70171 0.0
C2461 C 0.96888 0.67275 0.79038 0.0
C2462 C 0.96287 0.70379 0.79234 0.0
C2463 C 0.94953 0.65429 0.7788 0.0
C2464 C 0.92313 0.66632 0.76976 0.0
C2465 C 0.91767 0.6976 0.77119 0.0
C2466 C 0.93759 0.71627 0.78224 0.0
C2467 C 0.90114 0.64627 0.75898 0.0
C2468 C 0.89145 0.65412 0.73872 0.0
C2469 C 0.89017 0.61929 0.76837 0.0
C2470 C 0.89841 0.61031 0.7901 0.0
C2471 C 0.893 0.62995 0.80705 0.0
C2472 C 0.90192 0.62182 0.82736 0.0
C2473 C 0.91606 0.59399 0.83093 0.0
C2474 C 0.92117 0.57417 0.81422 0.0
C2475 C 0.91231 0.5822 0.79389 0.0
H2476 H 0.92303 0.58779 0.84665 0.0
H2477 H 0.83481 0.67072 0.65077 0.0
H2478 H 0.00543 0.85133 0.2135 0.0
H2479 H 0.96784 0.87519 0.23638 0.0
H2480 H 0.89649 0.84679 0.19465 0.0
H2481 H 0.93382 0.82264 0.17176 0.0
H2482 H 0.89393 0.90852 0.20592 0.0
H2483 H 0.90339 0.81116 0.23897 0.0
H2484 H 0.93107 0.76854 0.25498 0.0
H2485 H 0.96556 0.82754 0.30283 0.0
H2486 H 0.93842 0.87064 0.28692 0.0
H2487 H 0.77175 0.95125 0.27308 0.0
H2488 H 0.80635 0.92454 0.24943 0.0
H2489 H 0.87869 0.93537 0.29432 0.0
H2490 H 0.84421 0.96116 0.31813 0.0
H2491 H 0.87922 0.88047 0.28065 0.0
H2492 H 0.87546 0.97801 0.2475 0.0
H2493 H 0.85217 0.02299 0.23121 0.0
H2494 H 0.81116 0.96699 0.1841 0.0
H2495 H 0.834 0.92163 0.20025 0.0
C2496 C 0.98173 0.84997 0.20926 0.0
C2497 C 0.97261 0.83508 0.19083 0.0
C2498 C 0.96029 0.86355 0.22237 0.0
C2499 C 0.92942 0.86263 0.21721 0.0
C2500 C 0.92022 0.84771 0.19888 0.0
C2501 C 0.94159 0.83382 0.18589 0.0
C2502 C 0.90683 0.87799 0.23066 0.0
C2503 C 0.89032 0.90218 0.22218 0.0
C2504 C 0.90285 0.8701 0.25199 0.0
C2505 C 0.91909 0.84419 0.26163 0.0
C2506 C 0.91708 0.81511 0.2528 0.0
C2507 C 0.93263 0.79085 0.26188 0.0
C2508 C 0.95012 0.79534 0.27988 0.0
C2509 C 0.95203 0.8241 0.28888 0.0
C2510 C 0.93655 0.84844 0.27984 0.0
C2511 C 0.79506 0.94802 0.27786 0.0
C2512 C 0.80517 0.95826 0.29753 0.0
C2513 C 0.81487 0.93288 0.26428 0.0
C2514 C 0.84525 0.92814 0.27 0.0
C2515 C 0.85537 0.93862 0.28956 0.0
C2516 C 0.83557 0.95344 0.30318 0.0
C2517 C 0.86641 0.91146 0.25602 0.0
C2518 C 0.88266 0.8869 0.26438 0.0
C2519 C 0.87053 0.91934 0.23465 0.0
C2520 C 0.85613 0.94642 0.22523 0.0
C2521 C 0.86122 0.97527 0.2338 0.0
C2522 C 0.84818 1.00084 0.22455 0.0
C2523 C 0.83012 0.99784 0.20667 0.0
C2524 C 0.82508 0.96927 0.19798 0.0
C2525 C 0.83807 0.94363 0.20717 0.0
H2526 H 0.82009 0.01767 0.19951 0.0
H2527 H 0.96214 0.77653 0.28689 0.0
loop_
_geom_bond_atom_site_label_1
_geom_bond_atom_site_label_2
_geom_bond_distance
_geom_bond_site_symmetry_2
_ccdc_geom_bond_type
Co0 N4 2.148 . S
Co0 N10 2.128 . S
Co0 N20 2.194 . S
Co0 O25 2.351 . S
Co0 O26 2.155 . S
Co0 O27 2.096 . S
C1 N4 1.301 . S
C1 N5 1.328 . S
C1 H6 0.930 . S
C2 C3 1.333 . S
C2 N4 1.317 . S
C2 H7 0.930 . S
C3 C2 1.333 . S
C3 N5 1.350 . S
C3 H29 0.931 . S
N4 Co0 2.148 . S
N4 C1 1.301 . S
N4 C2 1.317 . S
N5 C1 1.328 . S
N5 C3 1.350 . S
H6 C1 0.930 . S
H7 C2 0.930 . S
C8 O9 1.224 . S
C8 O27 1.247 . S
O9 C8 1.224 . S
N10 Co0 2.128 . S
N10 C11 1.355 . S
N10 C13 1.311 . S
C11 N10 1.355 . S
C11 C12 1.363 . S
C11 H23 0.929 . S
C12 C11 1.363 . S
C12 N14 1.375 . S
C12 H30 0.931 . S
C13 N10 1.311 . S
C13 N14 1.347 . S
C13 H24 0.929 . S
N14 C12 1.375 . S
N14 C13 1.347 . S
C15 C18 1.365 . S
C15 N20 1.328 . S
C15 H21 0.929 . S
C16 C17 1.362 . S
C16 C19 1.378 . S
C16 H31 0.929 . S
C17 C16 1.362 . S
C17 C18 1.366 . S
C18 C15 1.365 . S
C18 C17 1.366 . S
C18 H32 0.930 . S
C19 C16 1.378 . S
C19 N20 1.315 . S
C19 H22 0.930 . S
N20 Co0 2.194 . S
N20 C15 1.328 . S
N20 C19 1.315 . S
H21 C15 0.929 . S
H22 C19 0.930 . S
H23 C11 0.929 . S
H24 C13 0.929 . S
O25 Co0 2.351 . S
O25 C28 1.244 . S
O26 Co0 2.155 . S
O26 C28 1.240 . S
O27 Co0 2.096 . S
O27 C8 1.247 . S
C28 O25 1.244 . S
C28 O26 1.240 . S
H29 C3 0.931 . S
H30 C12 0.931 . S
H31 C16 0.929 . S
H32 C18 0.930 . S
Co33 N37 2.148 . S
Co33 N43 2.128 . S
Co33 N53 2.194 . S
Co33 O58 2.351 . S
Co33 O59 2.155 . S
Co33 O60 2.096 . S
C34 N37 1.301 . S
C34 N38 1.328 . S
C34 H39 0.930 . S
C35 C36 1.333 . S
C35 N37 1.317 . S
C35 H40 0.930 . S
C36 C35 1.333 . S
C36 N38 1.350 . S
C36 H62 0.931 . S
N37 Co33 2.148 . S
N37 C34 1.301 . S
N37 C35 1.317 . S
N38 C34 1.328 . S
N38 C36 1.350 . S
H39 C34 0.930 . S
H40 C35 0.930 . S
C41 O42 1.224 . S
C41 O60 1.247 . S
O42 C41 1.224 . S
N43 Co33 2.128 . S
N43 C44 1.355 . S
N43 C46 1.311 . S
C44 N43 1.355 . S
C44 C45 1.363 . S
C44 H56 0.929 . S
C45 C44 1.363 . S
C45 N47 1.375 . S
C45 H63 0.931 . S
C46 N43 1.311 . S
C46 N47 1.347 . S
C46 H57 0.929 . S
N47 C45 1.375 . S
N47 C46 1.347 . S
C48 C51 1.365 . S
C48 N53 1.328 . S
C48 H54 0.929 . S
C49 C50 1.362 . S
C49 C52 1.378 . S
C49 H64 0.929 . S
C50 C49 1.362 . S
C50 C51 1.366 . S
C51 C48 1.365 . S
C51 C50 1.366 . S
C51 H65 0.930 . S
C52 C49 1.378 . S
C52 N53 1.315 . S
C52 H55 0.930 . S
N53 Co33 2.194 . S
N53 C48 1.328 . S
N53 C52 1.315 . S
H54 C48 0.929 . S
H55 C52 0.930 . S
H56 C44 0.929 . S
H57 C46 0.929 . S
O58 Co33 2.351 . S
O58 C61 1.244 . S
O59 Co33 2.155 . S
O59 C61 1.240 . S
O60 Co33 2.096 . S
O60 C41 1.247 . S
C61 O58 1.244 . S
C61 O59 1.240 . S
H62 C36 0.931 . S
H63 C45 0.931 . S
H64 C49 0.929 . S
H65 C51 0.930 . S
Co66 N70 2.148 . S
Co66 N76 2.128 . S
Co66 N86 2.194 1_455 S
Co66 O91 2.351 1_455 S
Co66 O92 2.155 . S
Co66 O93 2.096 . S
C67 N70 1.301 . S
C67 N71 1.328 . S
C67 H72 0.930 1_455 S
C68 C69 1.333 . S
C68 N70 1.317 . S
C68 H73 0.930 . S
C69 C68 1.333 . S
C69 N71 1.350 . S
C69 H95 0.931 . S
N70 Co66 2.148 . S
N70 C67 1.301 . S
N70 C68 1.317 . S
N71 C67 1.328 . S
N71 C69 1.350 . S
H72 C67 0.930 1_655 S
H73 C68 0.930 . S
C74 O75 1.224 . S
C74 O93 1.247 . S
O75 C74 1.224 . S
N76 Co66 2.128 . S
N76 C77 1.355 1_455 S
N76 C79 1.311 . S
C77 N76 1.355 1_655 S
C77 C78 1.363 . S
C77 H89 0.929 . S
C78 C77 1.363 . S
C78 N80 1.390 . S
C78 H96 0.931 . S
C79 N76 1.311 . S
C79 N80 1.338 1_455 S
C79 H90 0.929 . S
N80 C78 1.390 . S
N80 C79 1.338 1_655 S
C81 C84 1.365 . S
C81 N86 1.328 . S
C81 H87 0.929 . S
C82 C83 1.362 . S
C82 C85 1.378 . S
C82 H97 0.929 . S
C83 C82 1.362 . S
C83 C84 1.366 . S
C84 C81 1.365 . S
C84 C83 1.366 . S
C84 H98 0.930 . S
C85 C82 1.378 . S
C85 N86 1.315 . S
C85 H88 0.930 . S
N86 Co66 2.194 1_655 S
N86 C81 1.328 . S
N86 C85 1.315 . S
H87 C81 0.929 . S
H88 C85 0.930 . S
H89 C77 0.929 . S
H90 C79 0.929 . S
O91 Co66 2.351 1_655 S
O91 C94 1.244 1_655 S
O92 Co66 2.155 . S
O92 C94 1.240 . S
O93 Co66 2.096 . S
O93 C74 1.247 . S
C94 O91 1.244 1_455 S
C94 O92 1.240 . S
H95 C69 0.931 . S
H96 C78 0.931 . S
H97 C82 0.929 . S
H98 C84 0.930 . S
Co99 N103 2.148 . S
Co99 N109 2.128 . S
Co99 N119 2.194 1_545 S
Co99 O124 2.351 1_545 S
Co99 O125 2.155 . S
Co99 O126 2.096 . S
C100 N103 1.301 . S
C100 N104 1.328 . S
C100 H105 0.930 1_545 S
C101 C102 1.333 . S
C101 N103 1.317 . S
C101 H106 0.930 . S
C102 C101 1.333 . S
C102 N104 1.350 . S
C102 H128 0.931 . S
N103 Co99 2.148 . S
N103 C100 1.301 . S
N103 C101 1.317 . S
N104 C100 1.328 . S
N104 C102 1.350 . S
H105 C100 0.930 1_565 S
H106 C101 0.930 . S
C107 O108 1.224 . S
C107 O126 1.247 . S
O108 C107 1.224 . S
N109 Co99 2.128 . S
N109 C110 1.355 1_545 S
N109 C112 1.311 . S
C110 N109 1.355 1_565 S
C110 C111 1.363 . S
C110 H122 0.929 . S
C111 C110 1.363 . S
C111 N113 1.390 . S
C111 H129 0.931 . S
C112 N109 1.311 . S
C112 N113 1.338 1_545 S
C112 H123 0.929 . S
N113 C111 1.390 . S
N113 C112 1.338 1_565 S
C114 C117 1.365 . S
C114 N119 1.328 . S
C114 H120 0.929 . S
C115 C116 1.362 . S
C115 C118 1.378 . S
C115 H130 0.929 . S
C116 C115 1.362 . S
C116 C117 1.366 . S
C117 C114 1.365 . S
C117 C116 1.366 . S
C117 H131 0.930 . S
C118 C115 1.378 . S
C118 N119 1.315 . S
C118 H121 0.930 . S
N119 Co99 2.194 1_565 S
N119 C114 1.328 . S
N119 C118 1.315 . S
H120 C114 0.929 . S
H121 C118 0.930 . S
H122 C110 0.929 . S
H123 C112 0.929 . S
O124 Co99 2.351 1_565 S
O124 C127 1.244 1_565 S
O125 Co99 2.155 . S
O125 C127 1.240 . S
O126 Co99 2.096 . S
O126 C107 1.247 . S
C127 O124 1.244 1_545 S
C127 O125 1.240 . S
H128 C102 0.931 . S
H129 C111 0.931 . S
H130 C115 0.929 . S
H131 C117 0.930 . S
Co132 N136 2.148 . S
Co132 N142 2.128 . S
Co132 N152 2.194 . S
Co132 O157 2.351 . S
Co132 O158 2.155 . S
Co132 O159 2.096 . S
C133 N136 1.301 . S
C133 N137 1.328 . S
C133 H138 0.930 . S
C134 C135 1.333 . S
C134 N136 1.317 . S
C134 H139 0.930 . S
C135 C134 1.333 . S
C135 N137 1.350 . S
C135 H161 0.931 . S
N136 Co132 2.148 . S
N136 C133 1.301 . S
N136 C134 1.317 . S
N137 C133 1.328 . S
N137 C135 1.350 . S
H138 C133 0.930 . S
H139 C134 0.930 . S
C140 O141 1.224 . S
C140 O159 1.247 . S
O141 C140 1.224 . S
N142 Co132 2.128 . S
N142 C143 1.355 . S
N142 C145 1.311 . S
C143 N142 1.355 . S
C143 C144 1.363 . S
C143 H155 0.929 . S
C144 C143 1.363 . S
C144 N146 1.375 . S
C144 H162 0.931 . S
C145 N142 1.311 . S
C145 N146 1.347 . S
C145 H156 0.929 . S
N146 C144 1.375 . S
N146 C145 1.347 . S
C147 C150 1.365 . S
C147 N152 1.328 . S
C147 H153 0.929 . S
C148 C149 1.362 . S
C148 C151 1.378 . S
C148 H163 0.929 . S
C149 C148 1.362 . S
C149 C150 1.366 . S
C150 C147 1.365 . S
C150 C149 1.366 . S
C150 H164 0.930 . S
C151 C148 1.378 . S
C151 N152 1.315 . S
C151 H154 0.930 . S
N152 Co132 2.194 . S
N152 C147 1.328 . S
N152 C151 1.315 . S
H153 C147 0.929 . S
H154 C151 0.930 . S
H155 C143 0.929 . S
H156 C145 0.929 . S
O157 Co132 2.351 . S
O157 C160 1.244 . S
O158 Co132 2.155 . S
O158 C160 1.240 . S
O159 Co132 2.096 . S
O159 C140 1.247 . S
C160 O157 1.244 . S
C160 O158 1.240 . S
H161 C135 0.931 . S
H162 C144 0.931 . S
H163 C148 0.929 . S
H164 C150 0.930 . S
Co165 N169 2.148 . S
Co165 N175 2.128 . S
Co165 N185 2.194 . S
Co165 O190 2.351 . S
Co165 O191 2.155 . S
Co165 O192 2.096 . S
C166 N169 1.301 . S
C166 N170 1.328 . S
C166 H171 0.930 . S
C167 C168 1.333 . S
C167 N169 1.317 . S
C167 H172 0.930 . S
C168 C167 1.333 . S
C168 N170 1.350 . S
C168 H194 0.931 . S
N169 Co165 2.148 . S
N169 C166 1.301 . S
N169 C167 1.317 . S
N170 C166 1.328 . S
N170 C168 1.350 . S
H171 C166 0.930 . S
H172 C167 0.930 . S
C173 O174 1.224 . S
C173 O192 1.247 . S
O174 C173 1.224 . S
N175 Co165 2.128 . S
N175 C176 1.355 . S
N175 C178 1.311 . S
C176 N175 1.355 . S
C176 C177 1.363 . S
C176 H188 0.929 . S
C177 C176 1.363 . S
C177 N179 1.375 . S
C177 H195 0.931 . S
C178 N175 1.311 . S
C178 N179 1.347 . S
C178 H189 0.929 . S
N179 C177 1.375 . S
N179 C178 1.347 . S
C180 C183 1.365 . S
C180 N185 1.328 . S
C180 H186 0.929 . S
C181 C182 1.362 . S
C181 C184 1.378 . S
C181 H196 0.929 . S
C182 C181 1.362 . S
C182 C183 1.366 . S
C183 C180 1.365 . S
C183 C182 1.366 . S
C183 H197 0.930 . S
C184 C181 1.378 . S
C184 N185 1.315 . S
C184 H187 0.930 . S
N185 Co165 2.194 . S
N185 C180 1.328 . S
N185 C184 1.315 . S
H186 C180 0.929 . S
H187 C184 0.930 . S
H188 C176 0.929 . S
H189 C178 0.929 . S
O190 Co165 2.351 . S
O190 C193 1.244 . S
O191 Co165 2.155 . S
O191 C193 1.240 . S
O192 Co165 2.096 . S
O192 C173 1.247 . S
C193 O190 1.244 . S
C193 O191 1.240 . S
H194 C168 0.931 . S
H195 C177 0.931 . S
H196 C181 0.929 . S
H197 C183 0.930 . S
Co198 N202 2.148 . S
Co198 N208 2.128 . S
Co198 N218 2.194 1_455 S
Co198 O223 2.351 1_455 S
Co198 O224 2.155 . S
Co198 O225 2.096 . S
C199 N202 1.301 . S
C199 N203 1.328 . S
C199 H204 0.930 1_455 S
C200 C201 1.333 . S
C200 N202 1.317 . S
C200 H205 0.930 . S
C201 C200 1.333 . S
C201 N203 1.350 . S
C201 H227 0.931 . S
N202 Co198 2.148 . S
N202 C199 1.301 . S
N202 C200 1.317 . S
N203 C199 1.328 . S
N203 C201 1.350 . S
H204 C199 0.930 1_655 S
H205 C200 0.930 . S
C206 O207 1.224 . S
C206 O225 1.247 . S
O207 C206 1.224 . S
N208 Co198 2.128 . S
N208 C209 1.355 1_455 S
N208 C211 1.311 . S
C209 N208 1.355 1_655 S
C209 C210 1.363 . S
C209 H221 0.929 . S
C210 C209 1.363 . S
C210 N212 1.390 . S
C210 H228 0.931 . S
C211 N208 1.311 . S
C211 N212 1.338 1_455 S
C211 H222 0.929 . S
N212 C210 1.390 . S
N212 C211 1.338 1_655 S
C213 C216 1.365 . S
C213 N218 1.328 . S
C213 H219 0.929 . S
C214 C215 1.362 . S
C214 C217 1.378 . S
C214 H229 0.929 . S
C215 C214 1.362 . S
C215 C216 1.366 . S
C216 C213 1.365 . S
C216 C215 1.366 . S
C216 H230 0.930 . S
C217 C214 1.378 . S
C217 N218 1.315 . S
C217 H220 0.930 . S
N218 Co198 2.194 1_655 S
N218 C213 1.328 . S
N218 C217 1.315 . S
H219 C213 0.929 . S
H220 C217 0.930 . S
H221 C209 0.929 . S
H222 C211 0.929 . S
O223 Co198 2.351 1_655 S
O223 C226 1.244 1_655 S
O224 Co198 2.155 . S
O224 C226 1.240 . S
O225 Co198 2.096 . S
O225 C206 1.247 . S
C226 O223 1.244 1_455 S
C226 O224 1.240 . S
H227 C201 0.931 . S
H228 C210 0.931 . S
H229 C214 0.929 . S
H230 C216 0.930 . S
Co231 N235 2.148 . S
Co231 N241 2.128 . S
Co231 N251 2.194 1_545 S
Co231 O256 2.351 1_545 S
Co231 O257 2.155 . S
Co231 O258 2.096 . S
C232 N235 1.301 . S
C232 N236 1.328 . S
C232 H237 0.930 1_545 S
C233 C234 1.333 . S
C233 N235 1.317 . S
C233 H238 0.930 . S
C234 C233 1.333 . S
C234 N236 1.350 . S
C234 H260 0.931 . S
N235 Co231 2.148 . S
N235 C232 1.301 . S
N235 C233 1.317 . S
N236 C232 1.328 . S
N236 C234 1.350 . S
H237 C232 0.930 1_565 S
H238 C233 0.930 . S
C239 O240 1.224 . S
C239 O258 1.247 . S
O240 C239 1.224 . S
N241 Co231 2.128 . S
N241 C242 1.355 1_545 S
N241 C244 1.311 . S
C242 N241 1.355 1_565 S
C242 C243 1.363 . S
C242 H254 0.929 . S
C243 C242 1.363 . S
C243 N245 1.390 . S
C243 H261 0.931 . S
C244 N241 1.311 . S
C244 N245 1.338 1_545 S
C244 H255 0.929 . S
N245 C243 1.390 . S
N245 C244 1.338 1_565 S
C246 C249 1.365 . S
C246 N251 1.328 . S
C246 H252 0.929 . S
C247 C248 1.362 . S
C247 C250 1.378 . S
C247 H262 0.929 . S
C248 C247 1.362 . S
C248 C249 1.366 . S
C249 C246 1.365 . S
C249 C248 1.366 . S
C249 H263 0.930 . S
C250 C247 1.378 . S
C250 N251 1.315 . S
C250 H253 0.930 . S
N251 Co231 2.194 1_565 S
N251 C246 1.328 . S
N251 C250 1.315 . S
H252 C246 0.929 . S
H253 C250 0.930 . S
H254 C242 0.929 . S
H255 C244 0.929 . S
O256 Co231 2.351 1_565 S
O256 C259 1.244 1_565 S
O257 Co231 2.155 . S
O257 C259 1.240 . S
O258 Co231 2.096 . S
O258 C239 1.247 . S
C259 O256 1.244 1_545 S
C259 O257 1.240 . S
H260 C234 0.931 . S
H261 C243 0.931 . S
H262 C247 0.929 . S
H263 C249 0.930 . S
Co264 N268 2.148 . S
Co264 N274 2.128 . S
Co264 N284 2.194 . S
Co264 O289 2.351 . S
Co264 O290 2.155 . S
Co264 O291 2.096 . S
C265 N268 1.301 . S
C265 N269 1.328 . S
C265 H270 0.930 . S
C266 C267 1.333 . S
C266 N268 1.317 . S
C266 H271 0.930 . S
C267 C266 1.333 . S
C267 N269 1.350 . S
C267 H293 0.931 . S
N268 Co264 2.148 . S
N268 C265 1.301 . S
N268 C266 1.317 . S
N269 C265 1.328 . S
N269 C267 1.350 . S
H270 C265 0.930 . S
H271 C266 0.930 . S
C272 O273 1.224 . S
C272 O291 1.247 . S
O273 C272 1.224 . S
N274 Co264 2.128 . S
N274 C275 1.355 . S
N274 C277 1.311 . S
C275 N274 1.355 . S
C275 C276 1.363 . S
C275 H287 0.929 . S
C276 C275 1.363 . S
C276 N278 1.375 . S
C276 H294 0.931 . S
C277 N274 1.311 . S
C277 N278 1.347 . S
C277 H288 0.929 . S
N278 C276 1.375 . S
N278 C277 1.347 . S
C279 C282 1.365 . S
C279 N284 1.328 . S
C279 H285 0.929 . S
C280 C281 1.362 . S
C280 C283 1.378 . S
C280 H295 0.929 . S
C281 C280 1.362 . S
C281 C282 1.366 . S
C282 C279 1.365 . S
C282 C281 1.366 . S
C282 H296 0.930 . S
C283 C280 1.378 . S
C283 N284 1.315 . S
C283 H286 0.930 . S
N284 Co264 2.194 . S
N284 C279 1.328 . S
N284 C283 1.315 . S
H285 C279 0.929 . S
H286 C283 0.930 . S
H287 C275 0.929 . S
H288 C277 0.929 . S
O289 Co264 2.351 . S
O289 C292 1.244 . S
O290 Co264 2.155 . S
O290 C292 1.240 . S
O291 Co264 2.096 . S
O291 C272 1.247 . S
C292 O289 1.244 . S
C292 O290 1.240 . S
H293 C267 0.931 . S
H294 C276 0.931 . S
H295 C280 0.929 . S
H296 C282 0.930 . S
Co297 N301 2.148 . S
Co297 N307 2.128 . S
Co297 N317 2.194 . S
Co297 O322 2.351 . S
Co297 O323 2.155 . S
Co297 O324 2.096 . S
C298 N301 1.301 . S
C298 N302 1.328 . S
C298 H303 0.930 . S
C299 C300 1.333 . S
C299 N301 1.317 . S
C299 H304 0.930 . S
C300 C299 1.333 . S
C300 N302 1.350 . S
C300 H326 0.931 . S
N301 Co297 2.148 . S
N301 C298 1.301 . S
N301 C299 1.317 . S
N302 C298 1.328 . S
N302 C300 1.350 . S
H303 C298 0.930 . S
H304 C299 0.930 . S
C305 O306 1.224 . S
C305 O324 1.247 . S
O306 C305 1.224 . S
N307 Co297 2.128 . S
N307 C308 1.355 . S
N307 C310 1.311 . S
C308 N307 1.355 . S
C308 C309 1.363 . S
C308 H320 0.929 . S
C309 C308 1.363 . S
C309 N311 1.375 . S
C309 H327 0.931 . S
C310 N307 1.311 . S
C310 N311 1.347 . S
C310 H321 0.929 . S
N311 C309 1.375 . S
N311 C310 1.347 . S
C312 C315 1.365 . S
C312 N317 1.328 . S
C312 H318 0.929 . S
C313 C314 1.362 . S
C313 C316 1.378 . S
C313 H328 0.929 . S
C314 C313 1.362 . S
C314 C315 1.366 . S
C315 C312 1.365 . S
C315 C314 1.366 . S
C315 H329 0.930 . S
C316 C313 1.378 . S
C316 N317 1.315 . S
C316 H319 0.930 . S
N317 Co297 2.194 . S
N317 C312 1.328 . S
N317 C316 1.315 . S
H318 C312 0.929 . S
H319 C316 0.930 . S
H320 C308 0.929 . S
H321 C310 0.929 . S
O322 Co297 2.351 . S
O322 C325 1.244 . S
O323 Co297 2.155 . S
O323 C325 1.240 . S
O324 Co297 2.096 . S
O324 C305 1.247 . S
C325 O322 1.244 . S
C325 O323 1.240 . S
H326 C300 0.931 . S
H327 C309 0.931 . S
H328 C313 0.929 . S
H329 C315 0.930 . S
Co330 N334 2.148 . S
Co330 N340 2.128 . S
Co330 N350 2.194 1_655 S
Co330 O355 2.351 1_655 S
Co330 O356 2.155 . S
Co330 O357 2.096 . S
C331 N334 1.301 . S
C331 N335 1.328 . S
C331 H336 0.930 1_655 S
C332 C333 1.333 . S
C332 N334 1.317 . S
C332 H337 0.930 . S
C333 C332 1.333 . S
C333 N335 1.350 . S
C333 H359 0.931 . S
N334 Co330 2.148 . S
N334 C331 1.301 . S
N334 C332 1.317 . S
N335 C331 1.328 . S
N335 C333 1.350 . S
H336 C331 0.930 1_455 S
H337 C332 0.930 . S
C338 O339 1.224 . S
C338 O357 1.247 . S
O339 C338 1.224 . S
N340 Co330 2.128 . S
N340 C341 1.355 1_655 S
N340 C343 1.311 . S
C341 N340 1.355 1_455 S
C341 C342 1.363 . S
C341 H353 0.929 . S
C342 C341 1.363 . S
C342 N344 1.390 . S
C342 H360 0.931 . S
C343 N340 1.311 . S
C343 N344 1.338 1_655 S
C343 H354 0.929 . S
N344 C342 1.390 . S
N344 C343 1.338 1_455 S
C345 C348 1.365 . S
C345 N350 1.328 . S
C345 H351 0.929 . S
C346 C347 1.362 . S
C346 C349 1.378 . S
C346 H361 0.929 . S
C347 C346 1.362 . S
C347 C348 1.366 . S
C348 C345 1.365 . S
C348 C347 1.366 . S
C348 H362 0.930 . S
C349 C346 1.378 . S
C349 N350 1.315 . S
C349 H352 0.930 . S
N350 Co330 2.194 1_455 S
N350 C345 1.328 . S
N350 C349 1.315 . S
H351 C345 0.929 . S
H352 C349 0.930 . S
H353 C341 0.929 . S
H354 C343 0.929 . S
O355 Co330 2.351 1_455 S
O355 C358 1.244 1_455 S
O356 Co330 2.155 . S
O356 C358 1.240 . S
O357 Co330 2.096 . S
O357 C338 1.247 . S
C358 O355 1.244 1_655 S
C358 O356 1.240 . S
H359 C333 0.931 . S
H360 C342 0.931 . S
H361 C346 0.929 . S
H362 C348 0.930 . S
Co363 N367 2.148 . S
Co363 N373 2.128 . S
Co363 N383 2.194 1_565 S
Co363 O388 2.351 1_565 S
Co363 O389 2.155 . S
Co363 O390 2.096 . S
C364 N367 1.301 . S
C364 N368 1.328 . S
C364 H369 0.930 1_565 S
C365 C366 1.333 . S
C365 N367 1.317 . S
C365 H370 0.930 . S
C366 C365 1.333 . S
C366 N368 1.350 . S
C366 H392 0.931 . S
N367 Co363 2.148 . S
N367 C364 1.301 . S
N367 C365 1.317 . S
N368 C364 1.328 . S
N368 C366 1.350 . S
H369 C364 0.930 1_545 S
H370 C365 0.930 . S
C371 O372 1.224 . S
C371 O390 1.247 . S
O372 C371 1.224 . S
N373 Co363 2.128 . S
N373 C374 1.355 1_565 S
N373 C376 1.311 . S
C374 N373 1.355 1_545 S
C374 C375 1.363 . S
C374 H386 0.929 . S
C375 C374 1.363 . S
C375 N377 1.390 . S
C375 H393 0.931 . S
C376 N373 1.311 . S
C376 N377 1.338 1_565 S
C376 H387 0.929 . S
N377 C375 1.390 . S
N377 C376 1.338 1_545 S
C378 C381 1.365 . S
C378 N383 1.328 . S
C378 H384 0.929 . S
C379 C380 1.362 . S
C379 C382 1.378 . S
C379 H394 0.929 . S
C380 C379 1.362 . S
C380 C381 1.366 . S
C381 C378 1.365 . S
C381 C380 1.366 . S
C381 H395 0.930 . S
C382 C379 1.378 . S
C382 N383 1.315 . S
C382 H385 0.930 . S
N383 Co363 2.194 1_545 S
N383 C378 1.328 . S
N383 C382 1.315 . S
H384 C378 0.929 . S
H385 C382 0.930 . S
H386 C374 0.929 . S
H387 C376 0.929 . S
O388 Co363 2.351 1_545 S
O388 C391 1.244 1_545 S
O389 Co363 2.155 . S
O389 C391 1.240 . S
O390 Co363 2.096 . S
O390 C371 1.247 . S
C391 O388 1.244 1_565 S
C391 O389 1.240 . S
H392 C366 0.931 . S
H393 C375 0.931 . S
H394 C379 0.929 . S
H395 C381 0.930 . S
Co396 N400 2.148 . S
Co396 N406 2.128 . S
Co396 N416 2.194 . S
Co396 O421 2.351 . S
Co396 O422 2.155 . S
Co396 O423 2.096 . S
C397 N400 1.301 . S
C397 N401 1.328 . S
C397 H402 0.930 . S
C398 C399 1.333 . S
C398 N400 1.317 . S
C398 H403 0.930 . S
C399 C398 1.333 . S
C399 N401 1.350 . S
C399 H425 0.931 . S
N400 Co396 2.148 . S
N400 C397 1.301 . S
N400 C398 1.317 . S
N401 C397 1.328 . S
N401 C399 1.350 . S
H402 C397 0.930 . S
H403 C398 0.930 . S
C404 O405 1.224 . S
C404 O423 1.247 . S
O405 C404 1.224 . S
N406 Co396 2.128 . S
N406 C407 1.355 . S
N406 C409 1.311 . S
C407 N406 1.355 . S
C407 C408 1.363 . S
C407 H419 0.929 . S
C408 C407 1.363 . S
C408 N410 1.375 . S
C408 H426 0.931 . S
C409 N406 1.311 . S
C409 N410 1.347 . S
C409 H420 0.929 . S
N410 C408 1.375 . S
N410 C409 1.347 . S
C411 C414 1.365 . S
C411 N416 1.328 . S
C411 H417 0.929 . S
C412 C413 1.362 . S
C412 C415 1.378 . S
C412 H427 0.929 . S
C413 C412 1.362 . S
C413 C414 1.366 . S
C414 C411 1.365 . S
C414 C413 1.366 . S
C414 H428 0.930 . S
C415 C412 1.378 . S
C415 N416 1.315 . S
C415 H418 0.930 . S
N416 Co396 2.194 . S
N416 C411 1.328 . S
N416 C415 1.315 . S
H417 C411 0.929 . S
H418 C415 0.930 . S
H419 C407 0.929 . S
H420 C409 0.929 . S
O421 Co396 2.351 . S
O421 C424 1.244 . S
O422 Co396 2.155 . S
O422 C424 1.240 . S
O423 Co396 2.096 . S
O423 C404 1.247 . S
C424 O421 1.244 . S
C424 O422 1.240 . S
H425 C399 0.931 . S
H426 C408 0.931 . S
H427 C412 0.929 . S
H428 C414 0.930 . S
Co429 N433 2.148 . S
Co429 N439 2.128 . S
Co429 N449 2.194 . S
Co429 O454 2.351 . S
Co429 O455 2.155 . S
Co429 O456 2.096 . S
C430 N433 1.301 . S
C430 N434 1.328 . S
C430 H435 0.930 . S
C431 C432 1.333 . S
C431 N433 1.317 . S
C431 H436 0.930 . S
C432 C431 1.333 . S
C432 N434 1.350 . S
C432 H458 0.931 . S
N433 Co429 2.148 . S
N433 C430 1.301 . S
N433 C431 1.317 . S
N434 C430 1.328 . S
N434 C432 1.350 . S
H435 C430 0.930 . S
H436 C431 0.930 . S
C437 O438 1.224 . S
C437 O456 1.247 . S
O438 C437 1.224 . S
N439 Co429 2.128 . S
N439 C440 1.355 . S
N439 C442 1.311 . S
C440 N439 1.355 . S
C440 C441 1.363 . S
C440 H452 0.929 . S
C441 C440 1.363 . S
C441 N443 1.375 . S
C441 H459 0.931 . S
C442 N439 1.311 . S
C442 N443 1.347 . S
C442 H453 0.929 . S
N443 C441 1.375 . S
N443 C442 1.347 . S
C444 C447 1.365 . S
C444 N449 1.328 . S
C444 H450 0.929 . S
C445 C446 1.362 . S
C445 C448 1.378 . S
C445 H460 0.929 . S
C446 C445 1.362 . S
C446 C447 1.366 . S
C447 C444 1.365 . S
C447 C446 1.366 . S
C447 H461 0.930 . S
C448 C445 1.378 . S
C448 N449 1.315 . S
C448 H451 0.930 . S
N449 Co429 2.194 . S
N449 C444 1.328 . S
N449 C448 1.315 . S
H450 C444 0.929 . S
H451 C448 0.930 . S
H452 C440 0.929 . S
H453 C442 0.929 . S
O454 Co429 2.351 . S
O454 C457 1.244 . S
O455 Co429 2.155 . S
O455 C457 1.240 . S
O456 Co429 2.096 . S
O456 C437 1.247 . S
C457 O454 1.244 . S
C457 O455 1.240 . S
H458 C432 0.931 . S
H459 C441 0.931 . S
H460 C445 0.929 . S
H461 C447 0.930 . S
Co462 N466 2.148 . S
Co462 N472 2.128 . S
Co462 N482 2.194 1_655 S
Co462 O487 2.351 1_655 S
Co462 O488 2.155 . S
Co462 O489 2.096 . S
C463 N466 1.301 . S
C463 N467 1.328 . S
C463 H468 0.930 1_655 S
C464 C465 1.333 . S
C464 N466 1.317 . S
C464 H469 0.930 . S
C465 C464 1.333 . S
C465 N467 1.350 . S
C465 H491 0.931 . S
N466 Co462 2.148 . S
N466 C463 1.301 . S
N466 C464 1.317 . S
N467 C463 1.328 . S
N467 C465 1.350 . S
H468 C463 0.930 1_455 S
H469 C464 0.930 . S
C470 O471 1.224 . S
C470 O489 1.247 . S
O471 C470 1.224 . S
N472 Co462 2.128 . S
N472 C473 1.355 1_655 S
N472 C475 1.311 . S
C473 N472 1.355 1_455 S
C473 C474 1.363 . S
C473 H485 0.929 . S
C474 C473 1.363 . S
C474 N476 1.390 . S
C474 H492 0.931 . S
C475 N472 1.311 . S
C475 N476 1.338 1_655 S
C475 H486 0.929 . S
N476 C474 1.390 . S
N476 C475 1.338 1_455 S
C477 C480 1.365 . S
C477 N482 1.328 . S
C477 H483 0.929 . S
C478 C479 1.362 . S
C478 C481 1.378 . S
C478 H493 0.929 . S
C479 C478 1.362 . S
C479 C480 1.366 . S
C480 C477 1.365 . S
C480 C479 1.366 . S
C480 H494 0.930 . S
C481 C478 1.378 . S
C481 N482 1.315 . S
C481 H484 0.930 . S
N482 Co462 2.194 1_455 S
N482 C477 1.328 . S
N482 C481 1.315 . S
H483 C477 0.929 . S
H484 C481 0.930 . S
H485 C473 0.929 . S
H486 C475 0.929 . S
O487 Co462 2.351 1_455 S
O487 C490 1.244 1_455 S
O488 Co462 2.155 . S
O488 C490 1.240 . S
O489 Co462 2.096 . S
O489 C470 1.247 . S
C490 O487 1.244 1_655 S
C490 O488 1.240 . S
H491 C465 0.931 . S
H492 C474 0.931 . S
H493 C478 0.929 . S
H494 C480 0.930 . S
Co495 N499 2.148 . S
Co495 N505 2.128 . S
Co495 N515 2.194 1_565 S
Co495 O520 2.351 1_565 S
Co495 O521 2.155 . S
Co495 O522 2.096 . S
C496 N499 1.301 . S
C496 N500 1.328 . S
C496 H501 0.930 1_565 S
C497 C498 1.333 . S
C497 N499 1.317 . S
C497 H502 0.930 . S
C498 C497 1.333 . S
C498 N500 1.350 . S
C498 H524 0.931 . S
N499 Co495 2.148 . S
N499 C496 1.301 . S
N499 C497 1.317 . S
N500 C496 1.328 . S
N500 C498 1.350 . S
H501 C496 0.930 1_545 S
H502 C497 0.930 . S
C503 O504 1.224 . S
C503 O522 1.247 . S
O504 C503 1.224 . S
N505 Co495 2.128 . S
N505 C506 1.355 1_565 S
N505 C508 1.311 . S
C506 N505 1.355 1_545 S
C506 C507 1.363 . S
C506 H518 0.929 . S
C507 C506 1.363 . S
C507 N509 1.390 . S
C507 H525 0.931 . S
C508 N505 1.311 . S
C508 N509 1.338 1_565 S
C508 H519 0.929 . S
N509 C507 1.390 . S
N509 C508 1.338 1_545 S
C510 C513 1.365 . S
C510 N515 1.328 . S
C510 H516 0.929 . S
C511 C512 1.362 . S
C511 C514 1.378 . S
C511 H526 0.929 . S
C512 C511 1.362 . S
C512 C513 1.366 . S
C513 C510 1.365 . S
C513 C512 1.366 . S
C513 H527 0.930 . S
C514 C511 1.378 . S
C514 N515 1.315 . S
C514 H517 0.930 . S
N515 Co495 2.194 1_545 S
N515 C510 1.328 . S
N515 C514 1.315 . S
H516 C510 0.929 . S
H517 C514 0.930 . S
H518 C506 0.929 . S
H519 C508 0.929 . S
O520 Co495 2.351 1_545 S
O520 C523 1.244 1_545 S
O521 Co495 2.155 . S
O521 C523 1.240 . S
O522 Co495 2.096 . S
O522 C503 1.247 . S
C523 O520 1.244 1_565 S
C523 O521 1.240 . S
H524 C498 0.931 . S
H525 C507 0.931 . S
H526 C511 0.929 . S
H527 C513 0.930 . S
H528 C546 0.951 . S
H529 C548 0.951 . S
H530 C550 0.950 . S
H531 C551 0.950 . S
H532 C553 0.950 . S
H533 C556 0.950 . S
H534 C557 0.950 . S
H535 C559 0.950 . S
H536 C560 0.950 . S
H537 C561 0.951 . S
H538 C563 0.951 . S
H539 C565 0.950 . S
H540 C566 0.950 . S
H541 C568 0.950 . S
H542 C571 0.950 . S
H543 C572 0.950 . S
H544 C574 0.950 . S
H545 C575 0.950 . S
C546 H528 0.951 . S
C546 C547 1.366 . S
C546 C548 1.388 . S
C547 C546 1.366 . S
C547 C551 1.385 . S
C548 H529 0.951 . S
C548 C546 1.388 . S
C548 C549 1.366 . S
C549 C548 1.366 . S
C549 C550 1.414 . S
C549 C552 1.499 . S
C550 H530 0.950 . S
C550 C549 1.414 . S
C550 C551 1.374 . S
C551 H531 0.950 . S
C551 C547 1.385 . S
C551 C550 1.374 . S
C552 C549 1.499 . S
C552 C553 1.373 . S
C552 C554 1.389 . S
C553 H532 0.950 . S
C553 C552 1.373 . S
C553 C569 1.377 1_554 S
C554 C552 1.389 . S
C554 C555 1.524 . S
C554 C568 1.377 1_554 S
C555 C554 1.524 . S
C555 C556 1.397 . S
C555 C560 1.363 . S
C556 H533 0.950 . S
C556 C555 1.397 . S
C556 C557 1.334 . S
C557 H534 0.950 . S
C557 C556 1.334 . S
C557 C558 1.287 . S
C558 C557 1.287 . S
C558 C559 1.524 . S
C558 H577 0.913 . S
C559 H535 0.950 . S
C559 C558 1.524 . S
C559 C560 1.415 . S
C560 H536 0.950 . S
C560 C555 1.363 . S
C560 C559 1.415 . S
C561 H537 0.951 . S
C561 C562 1.366 . S
C561 C563 1.388 . S
C562 C561 1.366 . S
C562 C566 1.385 . S
C563 H538 0.951 . S
C563 C561 1.388 . S
C563 C564 1.366 . S
C564 C563 1.366 . S
C564 C565 1.414 . S
C564 C567 1.499 . S
C565 H539 0.950 . S
C565 C564 1.414 . S
C565 C566 1.374 . S
C566 H540 0.950 . S
C566 C562 1.385 . S
C566 C565 1.374 . S
C567 C564 1.499 . S
C567 C568 1.373 . S
C567 C569 1.389 . S
C568 H541 0.950 . S
C568 C554 1.377 1_556 S
C568 C567 1.373 . S
C569 C553 1.377 1_556 S
C569 C567 1.389 . S
C569 C570 1.524 . S
C570 C569 1.524 . S
C570 C571 1.397 . S
C570 C575 1.363 . S
C571 H542 0.950 . S
C571 C570 1.397 . S
C571 C572 1.334 . S
C572 H543 0.950 . S
C572 C571 1.334 . S
C572 C573 1.287 . S
C573 C572 1.287 . S
C573 C574 1.524 . S
C573 H576 0.999 . S
C574 H544 0.950 . S
C574 C573 1.524 . S
C574 C575 1.415 . S
C575 H545 0.950 . S
C575 C570 1.363 . S
C575 C574 1.415 . S
H576 C573 0.999 . S
H577 C558 0.913 . S
H578 C596 0.951 . S
H579 C598 0.951 . S
H580 C600 0.950 . S
H581 C601 0.950 . S
H582 C603 0.950 . S
H583 C606 0.950 . S
H584 C607 0.950 . S
H585 C609 0.950 . S
H586 C610 0.950 . S
H587 C611 0.951 . S
H588 C613 0.951 . S
H589 C615 0.950 . S
H590 C616 0.950 . S
H591 C618 0.950 . S
H592 C621 0.950 . S
H593 C622 0.950 . S
H594 C624 0.950 . S
H595 C625 0.950 . S
C596 H578 0.951 . S
C596 C597 1.366 . S
C596 C598 1.388 . S
C597 C596 1.366 . S
C597 C601 1.385 . S
C598 H579 0.951 . S
C598 C596 1.388 . S
C598 C599 1.366 . S
C599 C598 1.366 . S
C599 C600 1.414 . S
C599 C602 1.499 . S
C600 H580 0.950 . S
C600 C599 1.414 . S
C600 C601 1.374 . S
C601 H581 0.950 . S
C601 C597 1.385 . S
C601 C600 1.374 . S
C602 C599 1.499 . S
C602 C603 1.373 . S
C602 C604 1.389 . S
C603 H582 0.950 . S
C603 C602 1.373 . S
C603 C619 1.377 . S
C604 C602 1.389 . S
C604 C605 1.524 . S
C604 C618 1.377 . S
C605 C604 1.524 . S
C605 C606 1.397 . S
C605 C610 1.363 . S
C606 H583 0.950 . S
C606 C605 1.397 . S
C606 C607 1.334 . S
C607 H584 0.950 . S
C607 C606 1.334 . S
C607 C608 1.287 . S
C608 C607 1.287 . S
C608 C609 1.524 . S
C608 H627 0.913 . S
C609 H585 0.950 . S
C609 C608 1.524 . S
C609 C610 1.415 . S
C610 H586 0.950 . S
C610 C605 1.363 . S
C610 C609 1.415 . S
C611 H587 0.951 . S
C611 C612 1.366 . S
C611 C613 1.388 . S
C612 C611 1.366 . S
C612 C616 1.385 . S
C613 H588 0.951 . S
C613 C611 1.388 . S
C613 C614 1.366 . S
C614 C613 1.366 . S
C614 C615 1.414 . S
C614 C617 1.499 . S
C615 H589 0.950 . S
C615 C614 1.414 . S
C615 C616 1.374 . S
C616 H590 0.950 . S
C616 C612 1.385 . S
C616 C615 1.374 . S
C617 C614 1.499 . S
C617 C618 1.373 . S
C617 C619 1.389 . S
C618 H591 0.950 . S
C618 C604 1.377 . S
C618 C617 1.373 . S
C619 C603 1.377 . S
C619 C617 1.389 . S
C619 C620 1.524 . S
C620 C619 1.524 . S
C620 C621 1.397 . S
C620 C625 1.363 . S
C621 H592 0.950 . S
C621 C620 1.397 . S
C621 C622 1.334 . S
C622 H593 0.950 . S
C622 C621 1.334 . S
C622 C623 1.287 . S
C623 C622 1.287 . S
C623 C624 1.524 . S
C623 H626 0.999 . S
C624 H594 0.950 . S
C624 C623 1.524 . S
C624 C625 1.415 . S
C625 H595 0.950 . S
C625 C620 1.363 . S
C625 C624 1.415 . S
H626 C623 0.999 . S
H627 C608 0.913 . S
H628 C646 0.951 1_655 S
H629 C648 0.951 1_655 S
H630 C650 0.950 . S
H631 C651 0.950 . S
H632 C653 0.950 . S
H633 C656 0.950 . S
H634 C657 0.950 . S
H635 C659 0.950 . S
H636 C660 0.950 . S
H637 C661 0.951 . S
H638 C663 0.951 . S
H639 C665 0.950 1_655 S
H640 C666 0.950 1_655 S
H641 C668 0.950 . S
H642 C671 0.950 . S
H643 C672 0.950 . S
H644 C674 0.950 . S
H645 C675 0.950 . S
C646 H628 0.951 1_455 S
C646 C647 1.366 . S
C646 C648 1.388 . S
C647 C646 1.366 . S
C647 C651 1.385 . S
C648 H629 0.951 1_455 S
C648 C646 1.388 . S
C648 C649 1.366 . S
C649 C648 1.366 . S
C649 C650 1.414 . S
C649 C652 1.499 . S
C650 H630 0.950 . S
C650 C649 1.414 . S
C650 C651 1.374 . S
C651 H631 0.950 . S
C651 C647 1.385 . S
C651 C650 1.374 . S
C652 C649 1.499 . S
C652 C653 1.373 . S
C652 C654 1.389 . S
C653 H632 0.950 . S
C653 C652 1.373 . S
C653 C669 1.377 1_556 S
C654 C652 1.389 . S
C654 C655 1.524 . S
C654 C668 1.377 1_556 S
C655 C654 1.524 . S
C655 C656 1.397 . S
C655 C660 1.363 . S
C656 H633 0.950 . S
C656 C655 1.397 . S
C656 C657 1.334 . S
C657 H634 0.950 . S
C657 C656 1.334 . S
C657 C658 1.287 . S
C658 C657 1.287 . S
C658 C659 1.524 . S
C658 H677 0.913 . S
C659 H635 0.950 . S
C659 C658 1.524 . S
C659 C660 1.415 . S
C660 H636 0.950 . S
C660 C655 1.363 . S
C660 C659 1.415 . S
C661 H637 0.951 . S
C661 C662 1.366 . S
C661 C663 1.388 . S
C662 C661 1.366 . S
C662 C666 1.385 . S
C663 H638 0.951 . S
C663 C661 1.388 . S
C663 C664 1.366 . S
C664 C663 1.366 . S
C664 C665 1.414 . S
C664 C667 1.499 . S
C665 H639 0.950 1_455 S
C665 C664 1.414 . S
C665 C666 1.374 . S
C666 H640 0.950 1_455 S
C666 C662 1.385 . S
C666 C665 1.374 . S
C667 C664 1.499 . S
C667 C668 1.373 . S
C667 C669 1.389 . S
C668 H641 0.950 . S
C668 C654 1.377 1_554 S
C668 C667 1.373 . S
C669 C653 1.377 1_554 S
C669 C667 1.389 . S
C669 C670 1.524 . S
C670 C669 1.524 . S
C670 C671 1.397 1_455 S
C670 C675 1.363 . S
C671 H642 0.950 . S
C671 C670 1.397 1_655 S
C671 C672 1.334 . S
C672 H643 0.950 . S
C672 C671 1.334 . S
C672 C673 1.287 1_655 S
C673 C672 1.287 1_455 S
C673 C674 1.524 . S
C673 H676 0.998 1_455 S
C674 H644 0.950 . S
C674 C673 1.524 . S
C674 C675 1.415 . S
C675 H645 0.950 . S
C675 C670 1.363 . S
C675 C674 1.415 . S
H676 C673 0.998 1_655 S
H677 C658 0.913 . S
H678 C696 0.951 . S
H679 C698 0.951 . S
H680 C700 0.950 1_565 S
H681 C701 0.950 1_565 S
H682 C703 0.950 1_565 S
H683 C706 0.950 . S
H684 C707 0.950 . S
H685 C709 0.950 . S
H686 C710 0.950 . S
H687 C711 0.951 1_565 S
H688 C713 0.951 1_565 S
H689 C715 0.950 . S
H690 C716 0.950 . S
H691 C718 0.950 . S
H692 C721 0.950 . S
H693 C722 0.950 . S
H694 C724 0.950 . S
H695 C725 0.950 . S
C696 H678 0.951 . S
C696 C697 1.366 . S
C696 C698 1.388 . S
C697 C696 1.366 . S
C697 C701 1.385 . S
C698 H679 0.951 . S
C698 C696 1.388 . S
C698 C699 1.366 . S
C699 C698 1.366 . S
C699 C700 1.414 . S
C699 C702 1.499 . S
C700 H680 0.950 1_545 S
C700 C699 1.414 . S
C700 C701 1.374 . S
C701 H681 0.950 1_545 S
C701 C697 1.385 . S
C701 C700 1.374 . S
C702 C699 1.499 . S
C702 C703 1.373 . S
C702 C704 1.389 . S
C703 H682 0.950 1_545 S
C703 C702 1.373 . S
C703 C719 1.377 . S
C704 C702 1.389 . S
C704 C705 1.524 . S
C704 C718 1.377 . S
C705 C704 1.524 . S
C705 C706 1.397 . S
C705 C710 1.363 . S
C706 H683 0.950 . S
C706 C705 1.397 . S
C706 C707 1.334 . S
C707 H684 0.950 . S
C707 C706 1.334 . S
C707 C708 1.287 . S
C708 C707 1.287 . S
C708 C709 1.524 . S
C708 H727 0.913 . S
C709 H685 0.950 . S
C709 C708 1.524 . S
C709 C710 1.415 . S
C710 H686 0.950 . S
C710 C705 1.363 . S
C710 C709 1.415 . S
C711 H687 0.951 1_545 S
C711 C712 1.366 . S
C711 C713 1.388 . S
C712 C711 1.366 . S
C712 C716 1.385 . S
C713 H688 0.951 1_545 S
C713 C711 1.388 . S
C713 C714 1.366 . S
C714 C713 1.366 . S
C714 C715 1.414 . S
C714 C717 1.499 . S
C715 H689 0.950 . S
C715 C714 1.414 . S
C715 C716 1.374 . S
C716 H690 0.950 . S
C716 C712 1.385 . S
C716 C715 1.374 . S
C717 C714 1.499 . S
C717 C718 1.373 . S
C717 C719 1.389 . S
C718 H691 0.950 . S
C718 C704 1.377 . S
C718 C717 1.373 . S
C719 C703 1.377 . S
C719 C717 1.389 . S
C719 C720 1.524 1_545 S
C720 C719 1.524 1_565 S
C720 C721 1.397 . S
C720 C725 1.363 . S
C721 H692 0.950 . S
C721 C720 1.397 . S
C721 C722 1.334 . S
C722 H693 0.950 . S
C722 C721 1.334 . S
C722 C723 1.287 . S
C723 C722 1.287 . S
C723 C724 1.524 . S
C723 H726 0.999 . S
C724 H694 0.950 . S
C724 C723 1.524 . S
C724 C725 1.415 . S
C725 H695 0.950 . S
C725 C720 1.363 . S
C725 C724 1.415 . S
H726 C723 0.999 . S
H727 C708 0.913 . S
H728 C746 0.951 . S
H729 C748 0.951 . S
H730 C750 0.950 . S
H731 C751 0.950 . S
H732 C753 0.950 . S
H733 C756 0.950 . S
H734 C757 0.950 . S
H735 C759 0.950 . S
H736 C760 0.950 . S
H737 C761 0.951 . S
H738 C763 0.951 . S
H739 C765 0.950 . S
H740 C766 0.950 . S
H741 C768 0.950 . S
H742 C771 0.950 . S
H743 C772 0.950 . S
H744 C774 0.950 . S
H745 C775 0.950 . S
C746 H728 0.951 . S
C746 C747 1.366 . S
C746 C748 1.388 . S
C747 C746 1.366 . S
C747 C751 1.385 . S
C748 H729 0.951 . S
C748 C746 1.388 . S
C748 C749 1.366 . S
C749 C748 1.366 . S
C749 C750 1.414 . S
C749 C752 1.499 . S
C750 H730 0.950 . S
C750 C749 1.414 . S
C750 C751 1.374 . S
C751 H731 0.950 . S
C751 C747 1.385 . S
C751 C750 1.374 . S
C752 C749 1.499 . S
C752 C753 1.373 . S
C752 C754 1.389 . S
C753 H732 0.950 . S
C753 C752 1.373 . S
C753 C769 1.377 1_556 S
C754 C752 1.389 . S
C754 C755 1.524 . S
C754 C768 1.377 1_556 S
C755 C754 1.524 . S
C755 C756 1.397 . S
C755 C760 1.363 . S
C756 H733 0.950 . S
C756 C755 1.397 . S
C756 C757 1.334 . S
C757 H734 0.950 . S
C757 C756 1.334 . S
C757 C758 1.287 . S
C758 C757 1.287 . S
C758 C759 1.524 . S
C758 H777 0.913 . S
C759 H735 0.950 . S
C759 C758 1.524 . S
C759 C760 1.415 . S
C760 H736 0.950 . S
C760 C755 1.363 . S
C760 C759 1.415 . S
C761 H737 0.951 . S
C761 C762 1.366 . S
C761 C763 1.388 . S
C762 C761 1.366 . S
C762 C766 1.385 . S
C763 H738 0.951 . S
C763 C761 1.388 . S
C763 C764 1.366 . S
C764 C763 1.366 . S
C764 C765 1.414 . S
C764 C767 1.499 . S
C765 H739 0.950 . S
C765 C764 1.414 . S
C765 C766 1.374 . S
C766 H740 0.950 . S
C766 C762 1.385 . S
C766 C765 1.374 . S
C767 C764 1.499 . S
C767 C768 1.373 . S
C767 C769 1.389 . S
C768 H741 0.950 . S
C768 C754 1.377 1_554 S
C768 C767 1.373 . S
C769 C753 1.377 1_554 S
C769 C767 1.389 . S
C769 C770 1.524 . S
C770 C769 1.524 . S
C770 C771 1.397 . S
C770 C775 1.363 . S
C771 H742 0.950 . S
C771 C770 1.397 . S
C771 C772 1.334 . S
C772 H743 0.950 . S
C772 C771 1.334 . S
C772 C773 1.287 . S
C773 C772 1.287 . S
C773 C774 1.524 . S
C773 H776 0.999 . S
C774 H744 0.950 . S
C774 C773 1.524 . S
C774 C775 1.415 . S
C775 H745 0.950 . S
C775 C770 1.363 . S
C775 C774 1.415 . S
H776 C773 0.999 . S
H777 C758 0.913 . S
H778 C796 0.951 . S
H779 C798 0.951 . S
H780 C800 0.950 . S
H781 C801 0.950 . S
H782 C803 0.950 . S
H783 C806 0.950 . S
H784 C807 0.950 . S
H785 C809 0.950 . S
H786 C810 0.950 . S
H787 C811 0.951 . S
H788 C813 0.951 . S
H789 C815 0.950 . S
H790 C816 0.950 . S
H791 C818 0.950 . S
H792 C821 0.950 . S
H793 C822 0.950 . S
H794 C824 0.950 . S
H795 C825 0.950 . S
C796 H778 0.951 . S
C796 C797 1.366 . S
C796 C798 1.388 . S
C797 C796 1.366 . S
C797 C801 1.385 . S
C798 H779 0.951 . S
C798 C796 1.388 . S
C798 C799 1.366 . S
C799 C798 1.366 . S
C799 C800 1.414 . S
C799 C802 1.499 . S
C800 H780 0.950 . S
C800 C799 1.414 . S
C800 C801 1.374 . S
C801 H781 0.950 . S
C801 C797 1.385 . S
C801 C800 1.374 . S
C802 C799 1.499 . S
C802 C803 1.373 . S
C802 C804 1.389 . S
C803 H782 0.950 . S
C803 C802 1.373 . S
C803 C819 1.377 . S
C804 C802 1.389 . S
C804 C805 1.524 . S
C804 C818 1.377 . S
C805 C804 1.524 . S
C805 C806 1.397 . S
C805 C810 1.363 . S
C806 H783 0.950 . S
C806 C805 1.397 . S
C806 C807 1.334 . S
C807 H784 0.950 . S
C807 C806 1.334 . S
C807 C808 1.287 . S
C808 C807 1.287 . S
C808 C809 1.524 . S
C808 H827 0.913 . S
C809 H785 0.950 . S
C809 C808 1.524 . S
C809 C810 1.415 . S
C810 H786 0.950 . S
C810 C805 1.363 . S
C810 C809 1.415 . S
C811 H787 0.951 . S
C811 C812 1.366 . S
C811 C813 1.388 . S
C812 C811 1.366 . S
C812 C816 1.385 . S
C813 H788 0.951 . S
C813 C811 1.388 . S
C813 C814 1.366 . S
C814 C813 1.366 . S
C814 C815 1.414 . S
C814 C817 1.499 . S
C815 H789 0.950 . S
C815 C814 1.414 . S
C815 C816 1.374 . S
C816 H790 0.950 . S
C816 C812 1.385 . S
C816 C815 1.374 . S
C817 C814 1.499 . S
C817 C818 1.373 . S
C817 C819 1.389 . S
C818 H791 0.950 . S
C818 C804 1.377 . S
C818 C817 1.373 . S
C819 C803 1.377 . S
C819 C817 1.389 . S
C819 C820 1.524 . S
C820 C819 1.524 . S
C820 C821 1.397 . S
C820 C825 1.363 . S
C821 H792 0.950 . S
C821 C820 1.397 . S
C821 C822 1.334 . S
C822 H793 0.950 . S
C822 C821 1.334 . S
C822 C823 1.287 . S
C823 C822 1.287 . S
C823 C824 1.524 . S
C823 H826 0.999 . S
C824 H794 0.950 . S
C824 C823 1.524 . S
C824 C825 1.415 . S
C825 H795 0.950 . S
C825 C820 1.363 . S
C825 C824 1.415 . S
H826 C823 0.999 . S
H827 C808 0.913 . S
H828 C846 0.951 . S
H829 C848 0.951 . S
H830 C850 0.950 . S
H831 C851 0.950 . S
H832 C853 0.950 . S
H833 C856 0.950 . S
H834 C857 0.950 . S
H835 C859 0.950 . S
H836 C860 0.950 . S
H837 C861 0.951 . S
H838 C863 0.951 . S
H839 C865 0.950 . S
H840 C866 0.950 . S
H841 C868 0.950 . S
H842 C871 0.950 . S
H843 C872 0.950 . S
H844 C874 0.950 1_655 S
H845 C875 0.950 . S
C846 H828 0.951 . S
C846 C847 1.366 . S
C846 C848 1.388 . S
C847 C846 1.366 . S
C847 C851 1.385 . S
C848 H829 0.951 . S
C848 C846 1.388 . S
C848 C849 1.366 . S
C849 C848 1.366 . S
C849 C850 1.414 . S
C849 C852 1.499 . S
C850 H830 0.950 . S
C850 C849 1.414 . S
C850 C851 1.374 . S
C851 H831 0.950 . S
C851 C847 1.385 . S
C851 C850 1.374 . S
C852 C849 1.499 . S
C852 C853 1.373 . S
C852 C854 1.389 . S
C853 H832 0.950 . S
C853 C852 1.373 . S
C853 C869 1.377 1_554 S
C854 C852 1.389 . S
C854 C855 1.524 . S
C854 C868 1.377 1_554 S
C855 C854 1.524 . S
C855 C856 1.397 . S
C855 C860 1.363 . S
C856 H833 0.950 . S
C856 C855 1.397 . S
C856 C857 1.334 . S
C857 H834 0.950 . S
C857 C856 1.334 . S
C857 C858 1.287 . S
C858 C857 1.287 . S
C858 C859 1.524 . S
C858 H877 0.913 . S
C859 H835 0.950 . S
C859 C858 1.524 . S
C859 C860 1.415 . S
C860 H836 0.950 . S
C860 C855 1.363 . S
C860 C859 1.415 . S
C861 H837 0.951 . S
C861 C862 1.366 . S
C861 C863 1.388 . S
C862 C861 1.366 . S
C862 C866 1.385 . S
C863 H838 0.951 . S
C863 C861 1.388 . S
C863 C864 1.366 . S
C864 C863 1.366 . S
C864 C865 1.414 . S
C864 C867 1.499 . S
C865 H839 0.950 . S
C865 C864 1.414 . S
C865 C866 1.374 . S
C866 H840 0.950 . S
C866 C862 1.385 . S
C866 C865 1.374 . S
C867 C864 1.499 . S
C867 C868 1.373 . S
C867 C869 1.389 . S
C868 H841 0.950 . S
C868 C854 1.377 1_556 S
C868 C867 1.373 . S
C869 C853 1.377 1_556 S
C869 C867 1.389 . S
C869 C870 1.524 . S
C870 C869 1.524 . S
C870 C871 1.397 1_655 S
C870 C875 1.363 . S
C871 H842 0.950 . S
C871 C870 1.397 1_455 S
C871 C872 1.334 . S
C872 H843 0.950 . S
C872 C871 1.334 . S
C872 C873 1.287 . S
C873 C872 1.287 . S
C873 C874 1.524 . S
C873 H876 0.999 . S
C874 H844 0.950 1_455 S
C874 C873 1.524 . S
C874 C875 1.415 1_455 S
C875 H845 0.950 . S
C875 C870 1.363 . S
C875 C874 1.415 1_655 S
H876 C873 0.999 . S
H877 C858 0.913 . S
H878 C896 0.951 . S
H879 C898 0.951 . S
H880 C900 0.950 . S
H881 C901 0.950 . S
H882 C903 0.950 1_545 S
H883 C906 0.950 . S
H884 C907 0.950 . S
H885 C909 0.950 . S
H886 C910 0.950 . S
H887 C911 0.951 . S
H888 C913 0.951 . S
H889 C915 0.950 . S
H890 C916 0.950 . S
H891 C918 0.950 . S
H892 C921 0.950 . S
H893 C922 0.950 . S
H894 C924 0.950 . S
H895 C925 0.950 . S
C896 H878 0.951 . S
C896 C897 1.366 . S
C896 C898 1.388 . S
C897 C896 1.366 . S
C897 C901 1.385 . S
C898 H879 0.951 . S
C898 C896 1.388 . S
C898 C899 1.366 . S
C899 C898 1.366 . S
C899 C900 1.414 . S
C899 C902 1.499 . S
C900 H880 0.950 . S
C900 C899 1.414 . S
C900 C901 1.374 . S
C901 H881 0.950 . S
C901 C897 1.385 . S
C901 C900 1.374 . S
C902 C899 1.499 . S
C902 C903 1.373 . S
C902 C904 1.389 . S
C903 H882 0.950 1_565 S
C903 C902 1.373 . S
C903 C919 1.377 . S
C904 C902 1.389 . S
C904 C905 1.524 . S
C904 C918 1.377 . S
C905 C904 1.524 . S
C905 C906 1.397 . S
C905 C910 1.363 . S
C906 H883 0.950 . S
C906 C905 1.397 . S
C906 C907 1.334 . S
C907 H884 0.950 . S
C907 C906 1.334 . S
C907 C908 1.287 . S
C908 C907 1.287 . S
C908 C909 1.524 . S
C908 H927 0.913 . S
C909 H885 0.950 . S
C909 C908 1.524 . S
C909 C910 1.415 . S
C910 H886 0.950 . S
C910 C905 1.363 . S
C910 C909 1.415 . S
C911 H887 0.951 . S
C911 C912 1.366 . S
C911 C913 1.388 . S
C912 C911 1.366 . S
C912 C916 1.385 . S
C913 H888 0.951 . S
C913 C911 1.388 . S
C913 C914 1.366 . S
C914 C913 1.366 . S
C914 C915 1.414 . S
C914 C917 1.499 . S
C915 H889 0.950 . S
C915 C914 1.414 . S
C915 C916 1.374 . S
C916 H890 0.950 . S
C916 C912 1.385 . S
C916 C915 1.374 . S
C917 C914 1.499 . S
C917 C918 1.373 . S
C917 C919 1.389 . S
C918 H891 0.950 . S
C918 C904 1.377 . S
C918 C917 1.373 . S
C919 C903 1.377 . S
C919 C917 1.389 . S
C919 C920 1.524 1_565 S
C920 C919 1.524 1_545 S
C920 C921 1.397 . S
C920 C925 1.363 . S
C921 H892 0.950 . S
C921 C920 1.397 . S
C921 C922 1.334 . S
C922 H893 0.950 . S
C922 C921 1.334 . S
C922 C923 1.287 . S
C923 C922 1.287 . S
C923 C924 1.524 . S
C923 H926 0.999 . S
C924 H894 0.950 . S
C924 C923 1.524 . S
C924 C925 1.415 . S
C925 H895 0.950 . S
C925 C920 1.363 . S
C925 C924 1.415 . S
H926 C923 0.999 . S
H927 C908 0.913 . S
H928 C946 0.951 . S
H929 C948 0.951 . S
H930 C950 0.950 . S
H931 C951 0.950 . S
H932 C953 0.950 . S
H933 C956 0.950 . S
H934 C957 0.950 . S
H935 C959 0.950 . S
H936 C960 0.950 . S
H937 C961 0.951 . S
H938 C963 0.951 . S
H939 C965 0.950 . S
H940 C966 0.950 . S
H941 C968 0.950 1_545 S
H942 C971 0.950 . S
H943 C972 0.950 . S
H944 C974 0.944 1_565 S
H945 C975 0.950 . S
C946 H928 0.951 . S
C946 C947 1.366 . S
C946 C948 1.388 . S
C947 C946 1.366 . S
C947 C951 1.385 . S
C948 H929 0.951 . S
C948 C946 1.388 . S
C948 C949 1.366 . S
C949 C948 1.366 . S
C949 C950 1.414 . S
C949 C952 1.499 . S
C950 H930 0.950 . S
C950 C949 1.414 . S
C950 C951 1.374 . S
C951 H931 0.950 . S
C951 C947 1.385 . S
C951 C950 1.374 . S
C952 C949 1.499 . S
C952 C953 1.373 . S
C952 C954 1.389 . S
C953 H932 0.950 . S
C953 C952 1.373 . S
C953 C969 1.377 . S
C954 C952 1.389 . S
C954 C955 1.524 . S
C954 C968 1.377 . S
C955 C954 1.524 . S
C955 C956 1.397 . S
C955 C960 1.363 . S
C956 H933 0.950 . S
C956 C955 1.397 . S
C956 C957 1.334 . S
C957 H934 0.950 . S
C957 C956 1.334 . S
C957 C958 1.287 . S
C958 C957 1.287 . S
C958 C959 1.524 . S
C958 H977 0.913 . S
C959 H935 0.950 . S
C959 C958 1.524 . S
C959 C960 1.415 . S
C960 H936 0.950 . S
C960 C955 1.363 . S
C960 C959 1.415 . S
C961 H937 0.951 . S
C961 C962 1.366 . S
C961 C963 1.388 . S
C962 C961 1.366 . S
C962 C966 1.385 . S
C963 H938 0.951 . S
C963 C961 1.388 . S
C963 C964 1.366 . S
C964 C963 1.366 . S
C964 C965 1.414 . S
C964 C967 1.499 . S
C965 H939 0.950 . S
C965 C964 1.414 . S
C965 C966 1.374 . S
C966 H940 0.950 . S
C966 C962 1.385 . S
C966 C965 1.374 . S
C967 C964 1.499 . S
C967 C968 1.373 1_545 S
C967 C969 1.389 1_545 S
C968 H941 0.950 1_565 S
C968 C954 1.377 . S
C968 C967 1.373 1_565 S
C969 C953 1.377 . S
C969 C967 1.389 1_565 S
C969 C970 1.525 1_565 S
C970 C969 1.525 1_545 S
C970 C971 1.396 . S
C970 C975 1.363 1_545 S
C971 H942 0.950 . S
C971 C970 1.396 . S
C971 C972 1.334 . S
C972 H943 0.950 . S
C972 C971 1.334 . S
C972 C973 1.287 . S
C973 C972 1.287 . S
C973 C974 1.538 . S
C973 H976 0.999 . S
C974 H944 0.944 1_545 S
C974 C973 1.538 . S
C974 C975 1.407 1_545 S
C975 H945 0.950 . S
C975 C970 1.363 1_565 S
C975 C974 1.407 1_565 S
H976 C973 0.999 . S
H977 C958 0.913 . S
H978 C996 0.951 . S
H979 C998 0.951 . S
H980 C1000 0.950 . S
H981 C1001 0.950 . S
H982 C1003 0.950 . S
H983 C1006 0.950 . S
H984 C1007 0.950 . S
H985 C1009 0.950 . S
H986 C1010 0.950 . S
H987 C1011 0.951 . S
H988 C1013 0.951 . S
H989 C1015 0.950 . S
H990 C1016 0.950 . S
H991 C1018 0.950 . S
H992 C1021 0.950 . S
H993 C1022 0.950 . S
H994 C1024 0.950 . S
H995 C1025 0.950 . S
C996 H978 0.951 . S
C996 C997 1.366 . S
C996 C998 1.388 . S
C997 C996 1.366 . S
C997 C1001 1.385 . S
C998 H979 0.951 . S
C998 C996 1.388 . S
C998 C999 1.366 . S
C999 C998 1.366 . S
C999 C1000 1.414 . S
C999 C1002 1.499 . S
C1000 H980 0.950 . S
C1000 C999 1.414 . S
C1000 C1001 1.374 . S
C1001 H981 0.950 . S
C1001 C997 1.385 . S
C1001 C1000 1.374 . S
C1002 C999 1.499 . S
C1002 C1003 1.373 . S
C1002 C1004 1.389 . S
C1003 H982 0.950 . S
C1003 C1002 1.373 . S
C1003 C1019 1.377 . S
C1004 C1002 1.389 . S
C1004 C1005 1.524 . S
C1004 C1018 1.377 . S
C1005 C1004 1.524 . S
C1005 C1006 1.397 . S
C1005 C1010 1.363 . S
C1006 H983 0.950 . S
C1006 C1005 1.397 . S
C1006 C1007 1.334 . S
C1007 H984 0.950 . S
C1007 C1006 1.334 . S
C1007 C1008 1.287 . S
C1008 C1007 1.287 . S
C1008 C1009 1.524 . S
C1008 H1027 0.913 . S
C1009 H985 0.950 . S
C1009 C1008 1.524 . S
C1009 C1010 1.415 . S
C1010 H986 0.950 . S
C1010 C1005 1.363 . S
C1010 C1009 1.415 . S
C1011 H987 0.951 . S
C1011 C1012 1.366 . S
C1011 C1013 1.388 . S
C1012 C1011 1.366 . S
C1012 C1016 1.385 . S
C1013 H988 0.951 . S
C1013 C1011 1.388 . S
C1013 C1014 1.366 . S
C1014 C1013 1.366 . S
C1014 C1015 1.414 . S
C1014 C1017 1.499 . S
C1015 H989 0.950 . S
C1015 C1014 1.414 . S
C1015 C1016 1.374 . S
C1016 H990 0.950 . S
C1016 C1012 1.385 . S
C1016 C1015 1.374 . S
C1017 C1014 1.499 . S
C1017 C1018 1.373 . S
C1017 C1019 1.389 . S
C1018 H991 0.950 . S
C1018 C1004 1.377 . S
C1018 C1017 1.373 . S
C1019 C1003 1.377 . S
C1019 C1017 1.389 . S
C1019 C1020 1.524 . S
C1020 C1019 1.524 . S
C1020 C1021 1.397 . S
C1020 C1025 1.363 . S
C1021 H992 0.950 . S
C1021 C1020 1.397 . S
C1021 C1022 1.334 . S
C1022 H993 0.950 . S
C1022 C1021 1.334 . S
C1022 C1023 1.287 . S
C1023 C1022 1.287 . S
C1023 C1024 1.524 . S
C1023 H1026 0.999 . S
C1024 H994 0.950 . S
C1024 C1023 1.524 . S
C1024 C1025 1.415 . S
C1025 H995 0.950 . S
C1025 C1020 1.363 . S
C1025 C1024 1.415 . S
H1026 C1023 0.999 . S
H1027 C1008 0.913 . S
H1028 C1046 0.951 . S
H1029 C1048 0.951 . S
H1030 C1050 0.950 . S
H1031 C1051 0.950 . S
H1032 C1053 0.950 . S
H1033 C1056 0.950 . S
H1034 C1057 0.950 . S
H1035 C1059 0.950 . S
H1036 C1060 0.950 . S
H1037 C1061 0.951 . S
H1038 C1063 0.951 . S
H1039 C1065 0.950 . S
H1040 C1066 0.950 . S
H1041 C1068 0.950 . S
H1042 C1071 0.950 . S
H1043 C1072 0.950 . S
H1044 C1074 0.950 . S
H1045 C1075 0.950 . S
C1046 H1028 0.951 . S
C1046 C1047 1.366 . S
C1046 C1048 1.388 . S
C1047 C1046 1.366 . S
C1047 C1051 1.385 1_455 S
C1048 H1029 0.951 . S
C1048 C1046 1.388 . S
C1048 C1049 1.366 1_455 S
C1049 C1048 1.366 1_655 S
C1049 C1050 1.414 . S
C1049 C1052 1.499 . S
C1050 H1030 0.950 . S
C1050 C1049 1.414 . S
C1050 C1051 1.374 . S
C1051 H1031 0.950 . S
C1051 C1047 1.385 1_655 S
C1051 C1050 1.374 . S
C1052 C1049 1.499 . S
C1052 C1053 1.373 . S
C1052 C1054 1.389 . S
C1053 H1032 0.950 . S
C1053 C1052 1.373 . S
C1053 C1069 1.377 . S
C1054 C1052 1.389 . S
C1054 C1055 1.524 . S
C1054 C1068 1.377 . S
C1055 C1054 1.524 . S
C1055 C1056 1.397 . S
C1055 C1060 1.363 1_655 S
C1056 H1033 0.950 . S
C1056 C1055 1.397 . S
C1056 C1057 1.334 . S
C1057 H1034 0.950 . S
C1057 C1056 1.334 . S
C1057 C1058 1.287 . S
C1058 C1057 1.287 . S
C1058 C1059 1.524 1_655 S
C1058 H1077 0.913 . S
C1059 H1035 0.950 . S
C1059 C1058 1.524 1_455 S
C1059 C1060 1.415 . S
C1060 H1036 0.950 . S
C1060 C1055 1.363 1_455 S
C1060 C1059 1.415 . S
C1061 H1037 0.951 . S
C1061 C1062 1.366 . S
C1061 C1063 1.388 . S
C1062 C1061 1.366 . S
C1062 C1066 1.385 1_655 S
C1063 H1038 0.951 . S
C1063 C1061 1.388 . S
C1063 C1064 1.366 . S
C1064 C1063 1.366 . S
C1064 C1065 1.414 1_655 S
C1064 C1067 1.499 . S
C1065 H1039 0.950 . S
C1065 C1064 1.414 1_455 S
C1065 C1066 1.374 . S
C1066 H1040 0.950 . S
C1066 C1062 1.385 1_455 S
C1066 C1065 1.374 . S
C1067 C1064 1.499 . S
C1067 C1068 1.373 . S
C1067 C1069 1.389 . S
C1068 H1041 0.950 . S
C1068 C1054 1.377 . S
C1068 C1067 1.373 . S
C1069 C1053 1.377 . S
C1069 C1067 1.389 . S
C1069 C1070 1.524 . S
C1070 C1069 1.524 . S
C1070 C1071 1.397 1_655 S
C1070 C1075 1.363 . S
C1071 H1042 0.950 . S
C1071 C1070 1.397 1_455 S
C1071 C1072 1.334 . S
C1072 H1043 0.950 . S
C1072 C1071 1.334 . S
C1072 C1073 1.287 1_455 S
C1073 C1072 1.287 1_655 S
C1073 C1074 1.524 . S
C1073 H1076 0.999 . S
C1074 H1044 0.950 . S
C1074 C1073 1.524 . S
C1074 C1075 1.415 . S
C1075 H1045 0.950 . S
C1075 C1070 1.363 . S
C1075 C1074 1.415 . S
H1076 C1073 0.999 . S
H1077 C1058 0.913 . S
H1078 C1096 0.951 . S
H1079 C1098 0.951 . S
H1080 C1100 0.950 . S
H1081 C1101 0.950 . S
H1082 C1103 0.950 . S
H1083 C1106 0.950 1_565 S
H1084 C1107 0.950 . S
H1085 C1109 0.950 . S
H1086 C1110 0.950 . S
H1087 C1111 0.951 . S
H1088 C1113 0.951 . S
H1089 C1115 0.950 . S
H1090 C1116 0.950 . S
H1091 C1118 0.947 1_455 S
H1092 C1121 0.950 . S
H1093 C1122 0.950 . S
H1094 C1124 0.950 . S
H1095 C1125 0.950 1_655 S
C1096 H1078 0.951 . S
C1096 C1097 1.366 1_545 S
C1096 C1098 1.388 . S
C1097 C1096 1.366 1_565 S
C1097 C1101 1.385 . S
C1098 H1079 0.951 . S
C1098 C1096 1.388 . S
C1098 C1099 1.366 1_545 S
C1099 C1098 1.366 1_565 S
C1099 C1100 1.414 . S
C1099 C1102 1.499 . S
C1100 H1080 0.950 . S
C1100 C1099 1.414 . S
C1100 C1101 1.374 . S
C1101 H1081 0.950 . S
C1101 C1097 1.385 . S
C1101 C1100 1.374 . S
C1102 C1099 1.499 . S
C1102 C1103 1.373 . S
C1102 C1104 1.389 1_565 S
C1103 H1082 0.950 . S
C1103 C1102 1.373 . S
C1103 C1119 1.377 . S
C1104 C1102 1.389 1_545 S
C1104 C1105 1.524 . S
C1104 C1118 1.377 . S
C1105 C1104 1.524 . S
C1105 C1106 1.397 . S
C1105 C1110 1.363 . S
C1106 H1083 0.950 1_545 S
C1106 C1105 1.397 . S
C1106 C1107 1.334 . S
C1107 H1084 0.950 . S
C1107 C1106 1.334 . S
C1107 C1108 1.287 . S
C1108 C1107 1.287 . S
C1108 C1109 1.524 . S
C1108 H1127 0.913 . S
C1109 H1085 0.950 . S
C1109 C1108 1.524 . S
C1109 C1110 1.415 . S
C1110 H1086 0.950 . S
C1110 C1105 1.363 . S
C1110 C1109 1.415 . S
C1111 H1087 0.951 . S
C1111 C1112 1.366 1_565 S
C1111 C1113 1.388 . S
C1112 C1111 1.366 1_545 S
C1112 C1116 1.385 . S
C1113 H1088 0.951 . S
C1113 C1111 1.388 . S
C1113 C1114 1.366 . S
C1114 C1113 1.366 . S
C1114 C1115 1.414 1_565 S
C1114 C1117 1.499 . S
C1115 H1089 0.950 . S
C1115 C1114 1.414 1_545 S
C1115 C1116 1.374 . S
C1116 H1090 0.950 . S
C1116 C1112 1.385 . S
C1116 C1115 1.374 . S
C1117 C1114 1.499 . S
C1117 C1118 1.373 1_465 S
C1117 C1119 1.389 1_455 S
C1118 H1091 0.947 1_655 S
C1118 C1104 1.377 . S
C1118 C1117 1.373 1_645 S
C1119 C1103 1.377 . S
C1119 C1117 1.389 1_655 S
C1119 C1120 1.524 1_655 S
C1120 C1119 1.524 1_455 S
C1120 C1121 1.397 . S
C1120 C1125 1.363 . S
C1121 H1092 0.950 . S
C1121 C1120 1.397 . S
C1121 C1122 1.334 . S
C1122 H1093 0.950 . S
C1122 C1121 1.334 . S
C1122 C1123 1.287 . S
C1123 C1122 1.287 . S
C1123 C1124 1.524 . S
C1123 H1126 0.999 . S
C1124 H1094 0.950 . S
C1124 C1123 1.524 . S
C1124 C1125 1.415 . S
C1125 H1095 0.950 1_455 S
C1125 C1120 1.363 . S
C1125 C1124 1.415 . S
H1126 C1123 0.999 . S
H1127 C1108 0.913 . S
H1128 C1146 0.951 . S
H1129 C1148 0.951 . S
H1130 C1150 0.950 . S
H1131 C1151 0.950 . S
H1132 C1153 0.950 . S
H1133 C1156 0.950 . S
H1134 C1157 0.950 . S
H1135 C1159 0.950 . S
H1136 C1160 0.950 . S
H1137 C1161 0.951 . S
H1138 C1163 0.951 . S
H1139 C1165 0.950 . S
H1140 C1166 0.950 . S
H1141 C1168 0.950 . S
H1142 C1171 0.950 . S
H1143 C1172 0.950 . S
H1144 C1174 0.950 . S
H1145 C1175 0.950 . S
C1146 H1128 0.951 . S
C1146 C1147 1.366 . S
C1146 C1148 1.388 . S
C1147 C1146 1.366 . S
C1147 C1151 1.385 . S
C1148 H1129 0.951 . S
C1148 C1146 1.388 . S
C1148 C1149 1.366 . S
C1149 C1148 1.366 . S
C1149 C1150 1.414 . S
C1149 C1152 1.499 . S
C1150 H1130 0.950 . S
C1150 C1149 1.414 . S
C1150 C1151 1.374 . S
C1151 H1131 0.950 . S
C1151 C1147 1.385 . S
C1151 C1150 1.374 . S
C1152 C1149 1.499 . S
C1152 C1153 1.373 . S
C1152 C1154 1.389 . S
C1153 H1132 0.950 . S
C1153 C1152 1.373 . S
C1153 C1169 1.377 . S
C1154 C1152 1.389 . S
C1154 C1155 1.524 . S
C1154 C1168 1.377 . S
C1155 C1154 1.524 . S
C1155 C1156 1.397 . S
C1155 C1160 1.363 . S
C1156 H1133 0.950 . S
C1156 C1155 1.397 . S
C1156 C1157 1.334 . S
C1157 H1134 0.950 . S
C1157 C1156 1.334 . S
C1157 C1158 1.287 . S
C1158 C1157 1.287 . S
C1158 C1159 1.524 . S
C1158 H1177 0.913 . S
C1159 H1135 0.950 . S
C1159 C1158 1.524 . S
C1159 C1160 1.415 . S
C1160 H1136 0.950 . S
C1160 C1155 1.363 . S
C1160 C1159 1.415 . S
C1161 H1137 0.951 . S
C1161 C1162 1.366 . S
C1161 C1163 1.388 . S
C1162 C1161 1.366 . S
C1162 C1166 1.385 . S
C1163 H1138 0.951 . S
C1163 C1161 1.388 . S
C1163 C1164 1.366 . S
C1164 C1163 1.366 . S
C1164 C1165 1.414 . S
C1164 C1167 1.499 . S
C1165 H1139 0.950 . S
C1165 C1164 1.414 . S
C1165 C1166 1.374 . S
C1166 H1140 0.950 . S
C1166 C1162 1.385 . S
C1166 C1165 1.374 . S
C1167 C1164 1.499 . S
C1167 C1168 1.373 . S
C1167 C1169 1.389 . S
C1168 H1141 0.950 . S
C1168 C1154 1.377 . S
C1168 C1167 1.373 . S
C1169 C1153 1.377 . S
C1169 C1167 1.389 . S
C1169 C1170 1.524 . S
C1170 C1169 1.524 . S
C1170 C1171 1.397 . S
C1170 C1175 1.363 . S
C1171 H1142 0.950 . S
C1171 C1170 1.397 . S
C1171 C1172 1.334 . S
C1172 H1143 0.950 . S
C1172 C1171 1.334 . S
C1172 C1173 1.287 . S
C1173 C1172 1.287 . S
C1173 C1174 1.524 . S
C1173 H1176 0.999 . S
C1174 H1144 0.950 . S
C1174 C1173 1.524 . S
C1174 C1175 1.415 . S
C1175 H1145 0.950 . S
C1175 C1170 1.363 . S
C1175 C1174 1.415 . S
H1176 C1173 0.999 . S
H1177 C1158 0.913 . S
H1178 C1196 0.951 . S
H1179 C1198 0.951 . S
H1180 C1200 0.950 . S
H1181 C1201 0.950 . S
H1182 C1203 0.950 . S
H1183 C1206 0.950 . S
H1184 C1207 0.950 . S
H1185 C1209 0.950 . S
H1186 C1210 0.950 . S
H1187 C1211 0.951 . S
H1188 C1213 0.951 . S
H1189 C1215 0.950 . S
H1190 C1216 0.950 . S
H1191 C1218 0.950 1_455 S
H1192 C1221 0.950 . S
H1193 C1222 0.950 . S
H1194 C1224 0.950 . S
H1195 C1225 0.944 1_655 S
C1196 H1178 0.951 . S
C1196 C1197 1.366 . S
C1196 C1198 1.388 . S
C1197 C1196 1.366 . S
C1197 C1201 1.385 . S
C1198 H1179 0.951 . S
C1198 C1196 1.388 . S
C1198 C1199 1.366 . S
C1199 C1198 1.366 . S
C1199 C1200 1.414 . S
C1199 C1202 1.499 . S
C1200 H1180 0.950 . S
C1200 C1199 1.414 . S
C1200 C1201 1.374 . S
C1201 H1181 0.950 . S
C1201 C1197 1.385 . S
C1201 C1200 1.374 . S
C1202 C1199 1.499 . S
C1202 C1203 1.373 . S
C1202 C1204 1.389 . S
C1203 H1182 0.950 . S
C1203 C1202 1.373 . S
C1203 C1219 1.377 . S
C1204 C1202 1.389 . S
C1204 C1205 1.524 . S
C1204 C1218 1.377 . S
C1205 C1204 1.524 . S
C1205 C1206 1.397 . S
C1205 C1210 1.363 . S
C1206 H1183 0.950 . S
C1206 C1205 1.397 . S
C1206 C1207 1.334 . S
C1207 H1184 0.950 . S
C1207 C1206 1.334 . S
C1207 C1208 1.287 . S
C1208 C1207 1.287 . S
C1208 C1209 1.524 . S
C1208 H1227 0.913 . S
C1209 H1185 0.950 . S
C1209 C1208 1.524 . S
C1209 C1210 1.415 . S
C1210 H1186 0.950 . S
C1210 C1205 1.363 . S
C1210 C1209 1.415 . S
C1211 H1187 0.951 . S
C1211 C1212 1.366 . S
C1211 C1213 1.388 . S
C1212 C1211 1.366 . S
C1212 C1216 1.385 . S
C1213 H1188 0.951 . S
C1213 C1211 1.388 . S
C1213 C1214 1.366 . S
C1214 C1213 1.366 . S
C1214 C1215 1.414 . S
C1214 C1217 1.499 . S
C1215 H1189 0.950 . S
C1215 C1214 1.414 . S
C1215 C1216 1.374 . S
C1216 H1190 0.950 . S
C1216 C1212 1.385 . S
C1216 C1215 1.374 . S
C1217 C1214 1.499 . S
C1217 C1218 1.373 1_455 S
C1217 C1219 1.389 1_455 S
C1218 H1191 0.950 1_655 S
C1218 C1204 1.377 . S
C1218 C1217 1.373 1_655 S
C1219 C1203 1.377 . S
C1219 C1217 1.389 1_655 S
C1219 C1220 1.524 1_655 S
C1220 C1219 1.524 1_455 S
C1220 C1221 1.397 . S
C1220 C1225 1.365 . S
C1221 H1192 0.950 . S
C1221 C1220 1.397 . S
C1221 C1222 1.334 . S
C1222 H1193 0.950 . S
C1222 C1221 1.334 . S
C1222 C1223 1.287 . S
C1223 C1222 1.287 . S
C1223 C1224 1.524 . S
C1223 H1226 0.999 . S
C1224 H1194 0.950 . S
C1224 C1223 1.524 . S
C1224 C1225 1.419 . S
C1225 H1195 0.944 1_455 S
C1225 C1220 1.365 . S
C1225 C1224 1.419 . S
H1226 C1223 0.999 . S
H1227 C1208 0.913 . S
H1228 C1246 0.951 . S
H1229 C1248 0.951 . S
H1230 C1250 0.950 . S
H1231 C1251 0.950 . S
H1232 C1253 0.950 1_545 S
H1233 C1256 0.950 . S
H1234 C1257 0.950 . S
H1235 C1259 0.947 1_565 S
H1236 C1260 0.950 . S
H1237 C1261 0.951 . S
H1238 C1263 0.951 . S
H1239 C1265 0.958 . S
H1240 C1266 0.950 . S
H1241 C1268 0.950 . S
H1242 C1271 0.950 . S
H1243 C1272 0.950 . S
H1244 C1274 0.950 . S
H1245 C1275 0.950 . S
C1246 H1228 0.951 . S
C1246 C1247 1.366 . S
C1246 C1248 1.388 . S
C1247 C1246 1.366 . S
C1247 C1251 1.385 1_455 S
C1248 H1229 0.951 . S
C1248 C1246 1.388 . S
C1248 C1249 1.366 1_455 S
C1249 C1248 1.366 1_655 S
C1249 C1250 1.414 . S
C1249 C1252 1.499 . S
C1250 H1230 0.950 . S
C1250 C1249 1.414 . S
C1250 C1251 1.374 . S
C1251 H1231 0.950 . S
C1251 C1247 1.385 1_655 S
C1251 C1250 1.374 . S
C1252 C1249 1.499 . S
C1252 C1253 1.373 1_545 S
C1252 C1254 1.389 1_645 S
C1253 H1232 0.950 1_565 S
C1253 C1252 1.373 1_565 S
C1253 C1269 1.377 . S
C1254 C1252 1.389 1_465 S
C1254 C1255 1.523 . S
C1254 C1268 1.377 . S
C1255 C1254 1.523 . S
C1255 C1256 1.399 1_565 S
C1255 C1260 1.362 . S
C1256 H1233 0.950 . S
C1256 C1255 1.399 1_545 S
C1256 C1257 1.334 . S
C1257 H1234 0.950 . S
C1257 C1256 1.334 . S
C1257 C1258 1.287 . S
C1258 C1257 1.287 . S
C1258 C1259 1.530 . S
C1258 H1277 0.913 . S
C1259 H1235 0.947 1_545 S
C1259 C1258 1.530 . S
C1259 C1260 1.412 1_545 S
C1260 H1236 0.950 . S
C1260 C1255 1.362 . S
C1260 C1259 1.412 1_565 S
C1261 H1237 0.951 . S
C1261 C1262 1.366 . S
C1261 C1263 1.388 . S
C1262 C1261 1.366 . S
C1262 C1266 1.385 . S
C1263 H1238 0.951 . S
C1263 C1261 1.388 . S
C1263 C1264 1.366 . S
C1264 C1263 1.366 . S
C1264 C1265 1.414 . S
C1264 C1267 1.499 . S
C1265 H1239 0.958 . S
C1265 C1264 1.414 . S
C1265 C1266 1.374 . S
C1266 H1240 0.950 . S
C1266 C1262 1.385 . S
C1266 C1265 1.374 . S
C1267 C1264 1.499 . S
C1267 C1268 1.373 1_655 S
C1267 C1269 1.389 . S
C1268 H1241 0.950 . S
C1268 C1254 1.377 . S
C1268 C1267 1.373 1_455 S
C1269 C1253 1.377 . S
C1269 C1267 1.389 . S
C1269 C1270 1.524 . S
C1270 C1269 1.524 . S
C1270 C1271 1.397 . S
C1270 C1275 1.363 . S
C1271 H1242 0.950 . S
C1271 C1270 1.397 . S
C1271 C1272 1.334 . S
C1272 H1243 0.950 . S
C1272 C1271 1.334 . S
C1272 C1273 1.287 . S
C1273 C1272 1.287 . S
C1273 C1274 1.524 . S
C1273 H1276 0.999 . S
C1274 H1244 0.950 . S
C1274 C1273 1.524 . S
C1274 C1275 1.415 . S
C1275 H1245 0.950 . S
C1275 C1270 1.363 . S
C1275 C1274 1.415 . S
H1276 C1273 0.999 . S
H1277 C1258 0.913 . S
H1278 C1296 0.951 . S
H1279 C1298 0.951 . S
H1280 C1300 0.950 . S
H1281 C1301 0.950 . S
H1282 C1303 0.950 . S
H1283 C1306 0.950 . S
H1284 C1307 0.950 . S
H1285 C1309 0.950 . S
H1286 C1310 0.950 . S
H1287 C1311 0.951 . S
H1288 C1313 0.951 . S
H1289 C1315 0.950 . S
H1290 C1316 0.950 . S
H1291 C1318 0.950 . S
H1292 C1321 0.950 . S
H1293 C1322 0.950 . S
H1294 C1324 0.950 . S
H1295 C1325 0.950 . S
C1296 H1278 0.951 . S
C1296 C1297 1.366 1_565 S
C1296 C1298 1.388 . S
C1297 C1296 1.366 1_545 S
C1297 C1301 1.385 . S
C1298 H1279 0.951 . S
C1298 C1296 1.388 . S
C1298 C1299 1.366 . S
C1299 C1298 1.366 . S
C1299 C1300 1.414 1_565 S
C1299 C1302 1.499 . S
C1300 H1280 0.950 . S
C1300 C1299 1.414 1_545 S
C1300 C1301 1.374 . S
C1301 H1281 0.950 . S
C1301 C1297 1.385 . S
C1301 C1300 1.374 . S
C1302 C1299 1.499 . S
C1302 C1303 1.373 1_565 S
C1302 C1304 1.389 . S
C1303 H1282 0.950 . S
C1303 C1302 1.373 1_545 S
C1303 C1319 1.377 1_545 S
C1304 C1302 1.389 . S
C1304 C1305 1.524 . S
C1304 C1318 1.377 . S
C1305 C1304 1.524 . S
C1305 C1306 1.397 1_565 S
C1305 C1310 1.363 . S
C1306 H1283 0.950 . S
C1306 C1305 1.397 1_545 S
C1306 C1307 1.334 . S
C1307 H1284 0.950 . S
C1307 C1306 1.334 . S
C1307 C1308 1.287 1_545 S
C1308 C1307 1.287 1_565 S
C1308 C1309 1.524 . S
C1308 H1327 0.913 . S
C1309 H1285 0.950 . S
C1309 C1308 1.524 . S
C1309 C1310 1.415 . S
C1310 H1286 0.950 . S
C1310 C1305 1.363 . S
C1310 C1309 1.415 . S
C1311 H1287 0.951 . S
C1311 C1312 1.366 1_545 S
C1311 C1313 1.388 . S
C1312 C1311 1.366 1_565 S
C1312 C1316 1.385 . S
C1313 H1288 0.951 . S
C1313 C1311 1.388 . S
C1313 C1314 1.366 1_545 S
C1314 C1313 1.366 1_565 S
C1314 C1315 1.414 . S
C1314 C1317 1.499 . S
C1315 H1289 0.950 . S
C1315 C1314 1.414 . S
C1315 C1316 1.374 . S
C1316 H1290 0.950 . S
C1316 C1312 1.385 . S
C1316 C1315 1.374 . S
C1317 C1314 1.499 . S
C1317 C1318 1.373 . S
C1317 C1319 1.389 . S
C1318 H1291 0.950 . S
C1318 C1304 1.377 . S
C1318 C1317 1.373 . S
C1319 C1303 1.377 1_565 S
C1319 C1317 1.389 . S
C1319 C1320 1.524 1_565 S
C1320 C1319 1.524 1_545 S
C1320 C1321 1.397 1_545 S
C1320 C1325 1.363 . S
C1321 H1292 0.950 . S
C1321 C1320 1.397 1_565 S
C1321 C1322 1.334 . S
C1322 H1293 0.950 . S
C1322 C1321 1.334 . S
C1322 C1323 1.287 1_565 S
C1323 C1322 1.287 1_545 S
C1323 C1324 1.524 . S
C1323 H1326 0.999 . S
C1324 H1294 0.950 . S
C1324 C1323 1.524 . S
C1324 C1325 1.415 . S
C1325 H1295 0.950 . S
C1325 C1320 1.363 . S
C1325 C1324 1.415 . S
H1326 C1323 0.999 . S
H1327 C1308 0.913 . S
H1328 C1346 0.951 . S
H1329 C1348 0.951 . S
H1330 C1350 0.950 . S
H1331 C1351 0.950 . S
H1332 C1353 0.950 . S
H1333 C1356 0.950 . S
H1334 C1357 0.950 . S
H1335 C1359 0.950 . S
H1336 C1360 0.950 . S
H1337 C1361 0.951 . S
H1338 C1363 0.951 . S
H1339 C1365 0.950 . S
H1340 C1366 0.950 . S
H1341 C1368 0.949 1_565 S
H1342 C1371 0.950 . S
H1343 C1372 0.950 . S
H1344 C1374 0.950 . S
H1345 C1375 0.950 1_545 S
C1346 H1328 0.951 . S
C1346 C1347 1.366 . S
C1346 C1348 1.388 . S
C1347 C1346 1.366 . S
C1347 C1351 1.385 . S
C1348 H1329 0.951 . S
C1348 C1346 1.388 . S
C1348 C1349 1.366 . S
C1349 C1348 1.366 . S
C1349 C1350 1.414 . S
C1349 C1352 1.499 . S
C1350 H1330 0.950 . S
C1350 C1349 1.414 . S
C1350 C1351 1.374 . S
C1351 H1331 0.950 . S
C1351 C1347 1.385 . S
C1351 C1350 1.374 . S
C1352 C1349 1.499 . S
C1352 C1353 1.373 . S
C1352 C1354 1.389 . S
C1353 H1332 0.950 . S
C1353 C1352 1.373 . S
C1353 C1369 1.377 . S
C1354 C1352 1.389 . S
C1354 C1355 1.524 . S
C1354 C1368 1.377 . S
C1355 C1354 1.524 . S
C1355 C1356 1.397 . S
C1355 C1360 1.363 . S
C1356 H1333 0.950 . S
C1356 C1355 1.397 . S
C1356 C1357 1.334 . S
C1357 H1334 0.950 . S
C1357 C1356 1.334 . S
C1357 C1358 1.287 . S
C1358 C1357 1.287 . S
C1358 C1359 1.524 . S
C1358 H1377 0.913 . S
C1359 H1335 0.950 . S
C1359 C1358 1.524 . S
C1359 C1360 1.415 . S
C1360 H1336 0.950 . S
C1360 C1355 1.363 . S
C1360 C1359 1.415 . S
C1361 H1337 0.951 . S
C1361 C1362 1.366 . S
C1361 C1363 1.388 . S
C1362 C1361 1.366 . S
C1362 C1366 1.385 . S
C1363 H1338 0.951 . S
C1363 C1361 1.388 . S
C1363 C1364 1.366 . S
C1364 C1363 1.366 . S
C1364 C1365 1.414 . S
C1364 C1367 1.499 . S
C1365 H1339 0.950 . S
C1365 C1364 1.414 . S
C1365 C1366 1.374 . S
C1366 H1340 0.950 . S
C1366 C1362 1.385 . S
C1366 C1365 1.374 . S
C1367 C1364 1.499 . S
C1367 C1368 1.373 1_565 S
C1367 C1369 1.389 1_565 S
C1368 H1341 0.949 1_545 S
C1368 C1354 1.377 . S
C1368 C1367 1.373 1_545 S
C1369 C1353 1.377 . S
C1369 C1367 1.389 1_545 S
C1369 C1370 1.524 1_545 S
C1370 C1369 1.524 1_565 S
C1370 C1371 1.397 . S
C1370 C1375 1.363 . S
C1371 H1342 0.950 . S
C1371 C1370 1.397 . S
C1371 C1372 1.334 . S
C1372 H1343 0.950 . S
C1372 C1371 1.334 . S
C1372 C1373 1.287 . S
C1373 C1372 1.287 . S
C1373 C1374 1.524 . S
C1373 H1376 0.999 . S
C1374 H1344 0.950 . S
C1374 C1373 1.524 . S
C1374 C1375 1.415 . S
C1375 H1345 0.950 1_565 S
C1375 C1370 1.363 . S
C1375 C1374 1.415 . S
H1376 C1373 0.999 . S
H1377 C1358 0.913 . S
H1378 C1396 0.951 . S
H1379 C1398 0.951 . S
H1380 C1400 0.950 . S
H1381 C1401 0.950 . S
H1382 C1403 0.950 . S
H1383 C1406 0.950 . S
H1384 C1407 0.950 . S
H1385 C1409 0.950 . S
H1386 C1410 0.950 . S
H1387 C1411 0.951 . S
H1388 C1413 0.951 . S
H1389 C1415 0.950 . S
H1390 C1416 0.950 . S
H1391 C1418 0.950 . S
H1392 C1421 0.950 . S
H1393 C1422 0.950 . S
H1394 C1424 0.950 . S
H1395 C1425 0.950 . S
C1396 H1378 0.951 . S
C1396 C1397 1.366 . S
C1396 C1398 1.388 . S
C1397 C1396 1.366 . S
C1397 C1401 1.385 . S
C1398 H1379 0.951 . S
C1398 C1396 1.388 . S
C1398 C1399 1.366 . S
C1399 C1398 1.366 . S
C1399 C1400 1.414 . S
C1399 C1402 1.499 . S
C1400 H1380 0.950 . S
C1400 C1399 1.414 . S
C1400 C1401 1.374 . S
C1401 H1381 0.950 . S
C1401 C1397 1.385 . S
C1401 C1400 1.374 . S
C1402 C1399 1.499 . S
C1402 C1403 1.373 . S
C1402 C1404 1.389 . S
C1403 H1382 0.950 . S
C1403 C1402 1.373 . S
C1403 C1419 1.377 . S
C1404 C1402 1.389 . S
C1404 C1405 1.524 . S
C1404 C1418 1.377 . S
C1405 C1404 1.524 . S
C1405 C1406 1.397 . S
C1405 C1410 1.363 . S
C1406 H1383 0.950 . S
C1406 C1405 1.397 . S
C1406 C1407 1.334 . S
C1407 H1384 0.950 . S
C1407 C1406 1.334 . S
C1407 C1408 1.287 . S
C1408 C1407 1.287 . S
C1408 C1409 1.524 . S
C1408 H1427 0.913 . S
C1409 H1385 0.950 . S
C1409 C1408 1.524 . S
C1409 C1410 1.415 . S
C1410 H1386 0.950 . S
C1410 C1405 1.363 . S
C1410 C1409 1.415 . S
C1411 H1387 0.951 . S
C1411 C1412 1.366 . S
C1411 C1413 1.388 . S
C1412 C1411 1.366 . S
C1412 C1416 1.385 . S
C1413 H1388 0.951 . S
C1413 C1411 1.388 . S
C1413 C1414 1.366 . S
C1414 C1413 1.366 . S
C1414 C1415 1.414 . S
C1414 C1417 1.499 . S
C1415 H1389 0.950 . S
C1415 C1414 1.414 . S
C1415 C1416 1.374 . S
C1416 H1390 0.950 . S
C1416 C1412 1.385 . S
C1416 C1415 1.374 . S
C1417 C1414 1.499 . S
C1417 C1418 1.373 . S
C1417 C1419 1.389 . S
C1418 H1391 0.950 . S
C1418 C1404 1.377 . S
C1418 C1417 1.373 . S
C1419 C1403 1.377 . S
C1419 C1417 1.389 . S
C1419 C1420 1.524 . S
C1420 C1419 1.524 . S
C1420 C1421 1.397 . S
C1420 C1425 1.363 . S
C1421 H1392 0.950 . S
C1421 C1420 1.397 . S
C1421 C1422 1.334 . S
C1422 H1393 0.950 . S
C1422 C1421 1.334 . S
C1422 C1423 1.287 . S
C1423 C1422 1.287 . S
C1423 C1424 1.524 . S
C1423 H1426 0.999 . S
C1424 H1394 0.950 . S
C1424 C1423 1.524 . S
C1424 C1425 1.415 . S
C1425 H1395 0.950 . S
C1425 C1420 1.363 . S
C1425 C1424 1.415 . S
H1426 C1423 0.999 . S
H1427 C1408 0.913 . S
H1428 C1446 0.951 . S
H1429 C1448 0.951 . S
H1430 C1450 0.950 . S
H1431 C1451 0.950 . S
H1432 C1453 0.950 . S
H1433 C1456 0.950 . S
H1434 C1457 0.950 . S
H1435 C1459 0.950 . S
H1436 C1460 0.950 . S
H1437 C1461 0.951 . S
H1438 C1463 0.951 . S
H1439 C1465 0.950 . S
H1440 C1466 0.950 . S
H1441 C1468 0.950 . S
H1442 C1471 0.950 . S
H1443 C1472 0.950 . S
H1444 C1474 0.950 . S
H1445 C1475 0.950 . S
C1446 H1428 0.951 . S
C1446 C1447 1.366 1_655 S
C1446 C1448 1.388 . S
C1447 C1446 1.366 1_455 S
C1447 C1451 1.385 . S
C1448 H1429 0.951 . S
C1448 C1446 1.388 . S
C1448 C1449 1.366 1_655 S
C1449 C1448 1.366 1_455 S
C1449 C1450 1.414 . S
C1449 C1452 1.499 . S
C1450 H1430 0.950 . S
C1450 C1449 1.414 . S
C1450 C1451 1.374 . S
C1451 H1431 0.950 . S
C1451 C1447 1.385 . S
C1451 C1450 1.374 . S
C1452 C1449 1.499 . S
C1452 C1453 1.373 . S
C1452 C1454 1.389 . S
C1453 H1432 0.950 . S
C1453 C1452 1.373 . S
C1453 C1469 1.377 . S
C1454 C1452 1.389 . S
C1454 C1455 1.521 1_455 S
C1454 C1468 1.377 1_455 S
C1455 C1454 1.521 1_655 S
C1455 C1456 1.367 1_655 S
C1455 C1460 1.395 . S
C1456 H1433 0.950 . S
C1456 C1455 1.367 1_455 S
C1456 C1457 1.334 . S
C1457 H1434 0.950 . S
C1457 C1456 1.334 . S
C1457 C1458 1.271 1_455 S
C1458 C1457 1.271 1_655 S
C1458 C1459 1.541 . S
C1458 H1477 0.914 . S
C1459 H1435 0.950 . S
C1459 C1458 1.541 . S
C1459 C1460 1.415 . S
C1460 H1436 0.950 . S
C1460 C1455 1.395 . S
C1460 C1459 1.415 . S
C1461 H1437 0.951 . S
C1461 C1462 1.366 1_455 S
C1461 C1463 1.388 . S
C1462 C1461 1.366 1_655 S
C1462 C1466 1.385 . S
C1463 H1438 0.951 . S
C1463 C1461 1.388 . S
C1463 C1464 1.366 . S
C1464 C1463 1.366 . S
C1464 C1465 1.414 1_455 S
C1464 C1467 1.499 . S
C1465 H1439 0.950 . S
C1465 C1464 1.414 1_655 S
C1465 C1466 1.374 . S
C1466 H1440 0.950 . S
C1466 C1462 1.385 . S
C1466 C1465 1.374 . S
C1467 C1464 1.499 . S
C1467 C1468 1.373 1_455 S
C1467 C1469 1.389 . S
C1468 H1441 0.950 . S
C1468 C1454 1.377 1_655 S
C1468 C1467 1.373 1_655 S
C1469 C1453 1.377 . S
C1469 C1467 1.389 . S
C1469 C1470 1.524 . S
C1470 C1469 1.524 . S
C1470 C1471 1.397 1_455 S
C1470 C1475 1.363 . S
C1471 H1442 0.950 . S
C1471 C1470 1.397 1_655 S
C1471 C1472 1.334 . S
C1472 H1443 0.950 . S
C1472 C1471 1.334 . S
C1472 C1473 1.287 1_655 S
C1473 C1472 1.287 1_455 S
C1473 C1474 1.524 . S
C1473 H1476 0.999 . S
C1474 H1444 0.950 . S
C1474 C1473 1.524 . S
C1474 C1475 1.415 . S
C1475 H1445 0.950 . S
C1475 C1470 1.363 . S
C1475 C1474 1.415 . S
H1476 C1473 0.999 . S
H1477 C1458 0.914 . S
H1478 C1496 0.951 . S
H1479 C1498 0.951 . S
H1480 C1500 0.950 . S
H1481 C1501 0.950 . S
H1482 C1503 0.950 1_655 S
H1483 C1506 0.950 . S
H1484 C1507 0.950 . S
H1485 C1509 0.947 1_455 S
H1486 C1510 0.950 . S
H1487 C1511 0.951 . S
H1488 C1513 0.951 . S
H1489 C1515 0.950 . S
H1490 C1516 0.950 . S
H1491 C1518 0.950 . S
H1492 C1521 0.950 . S
H1493 C1522 0.950 . S
H1494 C1524 0.950 . S
H1495 C1525 0.950 . S
C1496 H1478 0.951 . S
C1496 C1497 1.366 . S
C1496 C1498 1.388 . S
C1497 C1496 1.366 . S
C1497 C1501 1.385 1_565 S
C1498 H1479 0.951 . S
C1498 C1496 1.388 . S
C1498 C1499 1.366 1_565 S
C1499 C1498 1.366 1_545 S
C1499 C1500 1.414 . S
C1499 C1502 1.499 . S
C1500 H1480 0.950 . S
C1500 C1499 1.414 . S
C1500 C1501 1.374 . S
C1501 H1481 0.950 . S
C1501 C1497 1.385 1_545 S
C1501 C1500 1.374 . S
C1502 C1499 1.499 . S
C1502 C1503 1.373 1_655 S
C1502 C1504 1.389 1_645 S
C1503 H1482 0.950 1_455 S
C1503 C1502 1.373 1_455 S
C1503 C1519 1.377 . S
C1504 C1502 1.389 1_465 S
C1504 C1505 1.521 1_455 S
C1504 C1518 1.377 . S
C1505 C1504 1.521 1_655 S
C1505 C1506 1.403 . S
C1505 C1510 1.359 1_655 S
C1506 H1483 0.950 . S
C1506 C1505 1.403 . S
C1506 C1507 1.334 . S
C1507 H1484 0.950 . S
C1507 C1506 1.334 . S
C1507 C1508 1.287 . S
C1508 C1507 1.287 . S
C1508 C1509 1.530 . S
C1508 H1527 0.913 . S
C1509 H1485 0.947 1_655 S
C1509 C1508 1.530 . S
C1509 C1510 1.412 1_655 S
C1510 H1486 0.950 . S
C1510 C1505 1.359 1_455 S
C1510 C1509 1.412 1_455 S
C1511 H1487 0.951 . S
C1511 C1512 1.366 . S
C1511 C1513 1.388 . S
C1512 C1511 1.366 . S
C1512 C1516 1.385 1_545 S
C1513 H1488 0.951 . S
C1513 C1511 1.388 . S
C1513 C1514 1.366 . S
C1514 C1513 1.366 . S
C1514 C1515 1.414 1_545 S
C1514 C1517 1.499 . S
C1515 H1489 0.950 . S
C1515 C1514 1.414 1_565 S
C1515 C1516 1.374 . S
C1516 H1490 0.950 . S
C1516 C1512 1.385 1_565 S
C1516 C1515 1.374 . S
C1517 C1514 1.499 . S
C1517 C1518 1.373 1_545 S
C1517 C1519 1.389 . S
C1518 H1491 0.950 . S
C1518 C1504 1.377 . S
C1518 C1517 1.373 1_565 S
C1519 C1503 1.377 . S
C1519 C1517 1.389 . S
C1519 C1520 1.524 . S
C1520 C1519 1.524 . S
C1520 C1521 1.397 . S
C1520 C1525 1.363 . S
C1521 H1492 0.950 . S
C1521 C1520 1.397 . S
C1521 C1522 1.334 . S
C1522 H1493 0.950 . S
C1522 C1521 1.334 . S
C1522 C1523 1.287 . S
C1523 C1522 1.287 . S
C1523 C1524 1.524 . S
C1523 H1526 0.999 . S
C1524 H1494 0.950 . S
C1524 C1523 1.524 . S
C1524 C1525 1.415 . S
C1525 H1495 0.950 . S
C1525 C1520 1.363 . S
C1525 C1524 1.415 . S
H1526 C1523 0.999 . S
H1527 C1508 0.913 . S
H1528 C1546 0.951 . S
H1529 C1548 0.951 . S
H1530 C1550 0.950 . S
H1531 C1551 0.950 . S
H1532 C1553 0.950 . S
H1533 C1556 0.950 . S
H1534 C1557 0.950 . S
H1535 C1559 0.950 . S
H1536 C1560 0.950 . S
H1537 C1561 0.951 . S
H1538 C1563 0.951 . S
H1539 C1565 0.950 . S
H1540 C1566 0.950 . S
H1541 C1568 0.950 . S
H1542 C1571 0.950 . S
H1543 C1572 0.950 . S
H1544 C1574 0.950 . S
H1545 C1575 0.950 . S
C1546 H1528 0.951 . S
C1546 C1547 1.366 . S
C1546 C1548 1.388 . S
C1547 C1546 1.366 . S
C1547 C1551 1.385 . S
C1548 H1529 0.951 . S
C1548 C1546 1.388 . S
C1548 C1549 1.366 . S
C1549 C1548 1.366 . S
C1549 C1550 1.414 . S
C1549 C1552 1.499 . S
C1550 H1530 0.950 . S
C1550 C1549 1.414 . S
C1550 C1551 1.374 . S
C1551 H1531 0.950 . S
C1551 C1547 1.385 . S
C1551 C1550 1.374 . S
C1552 C1549 1.499 . S
C1552 C1553 1.373 . S
C1552 C1554 1.389 . S
C1553 H1532 0.950 . S
C1553 C1552 1.373 . S
C1553 C1569 1.377 . S
C1554 C1552 1.389 . S
C1554 C1555 1.524 . S
C1554 C1568 1.377 . S
C1555 C1554 1.524 . S
C1555 C1556 1.397 . S
C1555 C1560 1.363 . S
C1556 H1533 0.950 . S
C1556 C1555 1.397 . S
C1556 C1557 1.334 . S
C1557 H1534 0.950 . S
C1557 C1556 1.334 . S
C1557 C1558 1.287 . S
C1558 C1557 1.287 . S
C1558 C1559 1.524 . S
C1558 H1577 0.913 . S
C1559 H1535 0.950 . S
C1559 C1558 1.524 . S
C1559 C1560 1.415 . S
C1560 H1536 0.950 . S
C1560 C1555 1.363 . S
C1560 C1559 1.415 . S
C1561 H1537 0.951 . S
C1561 C1562 1.366 . S
C1561 C1563 1.388 . S
C1562 C1561 1.366 . S
C1562 C1566 1.385 . S
C1563 H1538 0.951 . S
C1563 C1561 1.388 . S
C1563 C1564 1.366 . S
C1564 C1563 1.366 . S
C1564 C1565 1.414 . S
C1564 C1567 1.499 . S
C1565 H1539 0.950 . S
C1565 C1564 1.414 . S
C1565 C1566 1.374 . S
C1566 H1540 0.950 . S
C1566 C1562 1.385 . S
C1566 C1565 1.374 . S
C1567 C1564 1.499 . S
C1567 C1568 1.373 . S
C1567 C1569 1.389 . S
C1568 H1541 0.950 . S
C1568 C1554 1.377 . S
C1568 C1567 1.373 . S
C1569 C1553 1.377 . S
C1569 C1567 1.389 . S
C1569 C1570 1.524 . S
C1570 C1569 1.524 . S
C1570 C1571 1.397 . S
C1570 C1575 1.363 . S
C1571 H1542 0.950 . S
C1571 C1570 1.397 . S
C1571 C1572 1.334 . S
C1572 H1543 0.950 . S
C1572 C1571 1.334 . S
C1572 C1573 1.287 . S
C1573 C1572 1.287 . S
C1573 C1574 1.524 . S
C1573 H1576 0.999 . S
C1574 H1544 0.950 . S
C1574 C1573 1.524 . S
C1574 C1575 1.415 . S
C1575 H1545 0.950 . S
C1575 C1570 1.363 . S
C1575 C1574 1.415 . S
H1576 C1573 0.999 . S
H1577 C1558 0.913 . S
H1578 C1596 0.951 . S
H1579 C1598 0.951 . S
H1580 C1600 0.950 . S
H1581 C1601 0.950 . S
H1582 C1603 0.950 . S
H1583 C1606 0.950 . S
H1584 C1607 0.950 . S
H1585 C1609 0.950 . S
H1586 C1610 0.950 . S
H1587 C1611 0.951 . S
H1588 C1613 0.951 . S
H1589 C1615 0.950 . S
H1590 C1616 0.950 . S
H1591 C1618 0.950 1_655 S
H1592 C1621 0.950 . S
H1593 C1622 0.950 . S
H1594 C1624 0.950 . S
H1595 C1625 0.950 . S
C1596 H1578 0.951 . S
C1596 C1597 1.366 . S
C1596 C1598 1.388 . S
C1597 C1596 1.366 . S
C1597 C1601 1.385 . S
C1598 H1579 0.951 . S
C1598 C1596 1.388 . S
C1598 C1599 1.366 . S
C1599 C1598 1.366 . S
C1599 C1600 1.414 . S
C1599 C1602 1.499 . S
C1600 H1580 0.950 . S
C1600 C1599 1.414 . S
C1600 C1601 1.374 . S
C1601 H1581 0.950 . S
C1601 C1597 1.385 . S
C1601 C1600 1.374 . S
C1602 C1599 1.499 . S
C1602 C1603 1.373 . S
C1602 C1604 1.389 . S
C1603 H1582 0.950 . S
C1603 C1602 1.373 . S
C1603 C1619 1.377 . S
C1604 C1602 1.389 . S
C1604 C1605 1.524 . S
C1604 C1618 1.377 . S
C1605 C1604 1.524 . S
C1605 C1606 1.397 . S
C1605 C1610 1.363 . S
C1606 H1583 0.950 . S
C1606 C1605 1.397 . S
C1606 C1607 1.334 . S
C1607 H1584 0.950 . S
C1607 C1606 1.334 . S
C1607 C1608 1.287 . S
C1608 C1607 1.287 . S
C1608 C1609 1.524 . S
C1608 H1627 0.913 . S
C1609 H1585 0.950 . S
C1609 C1608 1.524 . S
C1609 C1610 1.415 . S
C1610 H1586 0.950 . S
C1610 C1605 1.363 . S
C1610 C1609 1.415 . S
C1611 H1587 0.951 . S
C1611 C1612 1.366 . S
C1611 C1613 1.388 . S
C1612 C1611 1.366 . S
C1612 C1616 1.385 . S
C1613 H1588 0.951 . S
C1613 C1611 1.388 . S
C1613 C1614 1.366 . S
C1614 C1613 1.366 . S
C1614 C1615 1.414 . S
C1614 C1617 1.499 . S
C1615 H1589 0.950 . S
C1615 C1614 1.414 . S
C1615 C1616 1.374 . S
C1616 H1590 0.950 . S
C1616 C1612 1.385 . S
C1616 C1615 1.374 . S
C1617 C1614 1.499 . S
C1617 C1618 1.373 1_655 S
C1617 C1619 1.389 1_655 S
C1618 H1591 0.950 1_455 S
C1618 C1604 1.377 . S
C1618 C1617 1.373 1_455 S
C1619 C1603 1.377 . S
C1619 C1617 1.389 1_455 S
C1619 C1620 1.524 1_455 S
C1620 C1619 1.524 1_655 S
C1620 C1621 1.397 . S
C1620 C1625 1.363 1_655 S
C1621 H1592 0.950 . S
C1621 C1620 1.397 . S
C1621 C1622 1.334 . S
C1622 H1593 0.950 . S
C1622 C1621 1.334 . S
C1622 C1623 1.287 . S
C1623 C1622 1.287 . S
C1623 C1624 1.524 . S
C1623 H1626 0.999 . S
C1624 H1594 0.950 . S
C1624 C1623 1.524 . S
C1624 C1625 1.415 1_655 S
C1625 H1595 0.950 . S
C1625 C1620 1.363 1_455 S
C1625 C1624 1.415 1_455 S
H1626 C1623 0.999 . S
H1627 C1608 0.913 . S
H1628 C1646 0.951 . S
H1629 C1648 0.951 . S
H1630 C1650 0.950 . S
H1631 C1651 0.950 . S
H1632 C1653 0.950 1_565 S
H1633 C1656 0.950 . S
H1634 C1657 0.950 . S
H1635 C1659 0.950 . S
H1636 C1660 0.950 . S
H1637 C1661 0.951 . S
H1638 C1663 0.951 . S
H1639 C1665 0.950 . S
H1640 C1666 0.950 . S
H1641 C1668 0.950 . S
H1642 C1671 0.950 . S
H1643 C1672 0.950 . S
H1644 C1674 0.950 . S
H1645 C1675 0.950 . S
C1646 H1628 0.951 . S
C1646 C1647 1.366 1_455 S
C1646 C1648 1.388 . S
C1647 C1646 1.366 1_655 S
C1647 C1651 1.385 . S
C1648 H1629 0.951 . S
C1648 C1646 1.388 . S
C1648 C1649 1.366 . S
C1649 C1648 1.366 . S
C1649 C1650 1.414 1_455 S
C1649 C1652 1.499 . S
C1650 H1630 0.950 . S
C1650 C1649 1.414 1_655 S
C1650 C1651 1.374 . S
C1651 H1631 0.950 . S
C1651 C1647 1.385 . S
C1651 C1650 1.374 . S
C1652 C1649 1.499 . S
C1652 C1653 1.373 1_565 S
C1652 C1654 1.389 1_465 S
C1653 H1632 0.950 1_545 S
C1653 C1652 1.373 1_545 S
C1653 C1669 1.377 . S
C1654 C1652 1.389 1_645 S
C1654 C1655 1.524 1_545 S
C1654 C1668 1.377 . S
C1655 C1654 1.524 1_565 S
C1655 C1656 1.397 . S
C1655 C1660 1.363 1_565 S
C1656 H1633 0.950 . S
C1656 C1655 1.397 . S
C1656 C1657 1.334 . S
C1657 H1634 0.950 . S
C1657 C1656 1.334 . S
C1657 C1658 1.287 . S
C1658 C1657 1.287 . S
C1658 C1659 1.524 . S
C1658 H1677 0.913 . S
C1659 H1635 0.950 . S
C1659 C1658 1.524 . S
C1659 C1660 1.415 1_565 S
C1660 H1636 0.950 . S
C1660 C1655 1.363 1_545 S
C1660 C1659 1.415 1_545 S
C1661 H1637 0.951 . S
C1661 C1662 1.366 . S
C1661 C1663 1.388 . S
C1662 C1661 1.366 . S
C1662 C1666 1.385 . S
C1663 H1638 0.951 . S
C1663 C1661 1.388 . S
C1663 C1664 1.366 . S
C1664 C1663 1.366 . S
C1664 C1665 1.414 . S
C1664 C1667 1.499 . S
C1665 H1639 0.950 . S
C1665 C1664 1.414 . S
C1665 C1666 1.374 . S
C1666 H1640 0.950 . S
C1666 C1662 1.385 . S
C1666 C1665 1.374 . S
C1667 C1664 1.499 . S
C1667 C1668 1.373 1_455 S
C1667 C1669 1.389 . S
C1668 H1641 0.950 . S
C1668 C1654 1.377 . S
C1668 C1667 1.373 1_655 S
C1669 C1653 1.377 . S
C1669 C1667 1.389 . S
C1669 C1670 1.524 . S
C1670 C1669 1.524 . S
C1670 C1671 1.397 . S
C1670 C1675 1.363 . S
C1671 H1642 0.950 . S
C1671 C1670 1.397 . S
C1671 C1672 1.334 . S
C1672 H1643 0.950 . S
C1672 C1671 1.334 . S
C1672 C1673 1.287 . S
C1673 C1672 1.287 . S
C1673 C1674 1.524 . S
C1673 H1676 0.999 . S
C1674 H1644 0.950 . S
C1674 C1673 1.524 . S
C1674 C1675 1.415 . S
C1675 H1645 0.950 . S
C1675 C1670 1.363 . S
C1675 C1674 1.415 . S
H1676 C1673 0.999 . S
H1677 C1658 0.913 . S
H1678 C1696 0.951 . S
H1679 C1698 0.951 . S
H1680 C1700 0.950 . S
H1681 C1701 0.950 . S
H1682 C1703 0.950 . S
H1683 C1706 0.950 . S
H1684 C1707 0.950 . S
H1685 C1709 0.950 . S
H1686 C1710 0.950 . S
H1687 C1711 0.951 . S
H1688 C1713 0.951 . S
H1689 C1715 0.950 . S
H1690 C1716 0.950 . S
H1691 C1718 0.950 . S
H1692 C1721 0.950 . S
H1693 C1722 0.950 . S
H1694 C1724 0.950 . S
H1695 C1725 0.950 . S
C1696 H1678 0.951 . S
C1696 C1697 1.366 1_565 S
C1696 C1698 1.388 . S
C1697 C1696 1.366 1_545 S
C1697 C1701 1.385 . S
C1698 H1679 0.951 . S
C1698 C1696 1.388 . S
C1698 C1699 1.366 1_565 S
C1699 C1698 1.366 1_545 S
C1699 C1700 1.414 . S
C1699 C1702 1.499 . S
C1700 H1680 0.950 . S
C1700 C1699 1.414 . S
C1700 C1701 1.374 . S
C1701 H1681 0.950 . S
C1701 C1697 1.385 . S
C1701 C1700 1.374 . S
C1702 C1699 1.499 . S
C1702 C1703 1.373 . S
C1702 C1704 1.389 1_545 S
C1703 H1682 0.950 . S
C1703 C1702 1.373 . S
C1703 C1719 1.377 . S
C1704 C1702 1.389 1_565 S
C1704 C1705 1.524 . S
C1704 C1718 1.377 . S
C1705 C1704 1.524 . S
C1705 C1706 1.397 . S
C1705 C1710 1.363 . S
C1706 H1683 0.950 . S
C1706 C1705 1.397 . S
C1706 C1707 1.334 . S
C1707 H1684 0.950 . S
C1707 C1706 1.334 . S
C1707 C1708 1.287 . S
C1708 C1707 1.287 . S
C1708 C1709 1.524 . S
C1708 H1727 0.913 . S
C1709 H1685 0.950 . S
C1709 C1708 1.524 . S
C1709 C1710 1.415 . S
C1710 H1686 0.950 . S
C1710 C1705 1.363 . S
C1710 C1709 1.415 . S
C1711 H1687 0.951 . S
C1711 C1712 1.366 1_545 S
C1711 C1713 1.388 . S
C1712 C1711 1.366 1_565 S
C1712 C1716 1.385 . S
C1713 H1688 0.951 . S
C1713 C1711 1.388 . S
C1713 C1714 1.366 . S
C1714 C1713 1.366 . S
C1714 C1715 1.414 1_545 S
C1714 C1717 1.499 . S
C1715 H1689 0.950 . S
C1715 C1714 1.414 1_565 S
C1715 C1716 1.374 . S
C1716 H1690 0.950 . S
C1716 C1712 1.385 . S
C1716 C1715 1.374 . S
C1717 C1714 1.499 . S
C1717 C1718 1.373 1_545 S
C1717 C1719 1.389 . S
C1718 H1691 0.950 . S
C1718 C1704 1.377 . S
C1718 C1717 1.373 1_565 S
C1719 C1703 1.377 . S
C1719 C1717 1.389 . S
C1719 C1720 1.524 . S
C1720 C1719 1.524 . S
C1720 C1721 1.397 . S
C1720 C1725 1.363 . S
C1721 H1692 0.950 . S
C1721 C1720 1.397 . S
C1721 C1722 1.334 . S
C1722 H1693 0.950 . S
C1722 C1721 1.334 . S
C1722 C1723 1.287 . S
C1723 C1722 1.287 . S
C1723 C1724 1.524 . S
C1723 H1726 0.999 . S
C1724 H1694 0.950 . S
C1724 C1723 1.524 . S
C1724 C1725 1.415 . S
C1725 H1695 0.950 . S
C1725 C1720 1.363 . S
C1725 C1724 1.415 . S
H1726 C1723 0.999 . S
H1727 C1708 0.913 . S
H1728 C1746 0.951 . S
H1729 C1748 0.951 . S
H1730 C1750 0.950 . S
H1731 C1751 0.950 . S
H1732 C1753 0.950 . S
H1733 C1756 0.950 . S
H1734 C1757 0.950 . S
H1735 C1759 0.950 . S
H1736 C1760 0.950 . S
H1737 C1761 0.951 . S
H1738 C1763 0.951 . S
H1739 C1765 0.950 . S
H1740 C1766 0.950 . S
H1741 C1768 0.950 . S
H1742 C1771 0.950 . S
H1743 C1772 0.950 . S
H1744 C1774 0.950 . S
H1745 C1775 0.950 . S
C1746 H1728 0.951 . S
C1746 C1747 1.366 . S
C1746 C1748 1.388 . S
C1747 C1746 1.366 . S
C1747 C1751 1.385 . S
C1748 H1729 0.951 . S
C1748 C1746 1.388 . S
C1748 C1749 1.366 . S
C1749 C1748 1.366 . S
C1749 C1750 1.414 . S
C1749 C1752 1.499 . S
C1750 H1730 0.950 . S
C1750 C1749 1.414 . S
C1750 C1751 1.374 . S
C1751 H1731 0.950 . S
C1751 C1747 1.385 . S
C1751 C1750 1.374 . S
C1752 C1749 1.499 . S
C1752 C1753 1.373 . S
C1752 C1754 1.389 . S
C1753 H1732 0.950 . S
C1753 C1752 1.373 . S
C1753 C1769 1.377 . S
C1754 C1752 1.389 . S
C1754 C1755 1.524 . S
C1754 C1768 1.377 . S
C1755 C1754 1.524 . S
C1755 C1756 1.397 . S
C1755 C1760 1.363 . S
C1756 H1733 0.950 . S
C1756 C1755 1.397 . S
C1756 C1757 1.334 . S
C1757 H1734 0.950 . S
C1757 C1756 1.334 . S
C1757 C1758 1.287 . S
C1758 C1757 1.287 . S
C1758 C1759 1.524 . S
C1758 H1777 0.913 . S
C1759 H1735 0.950 . S
C1759 C1758 1.524 . S
C1759 C1760 1.415 . S
C1760 H1736 0.950 . S
C1760 C1755 1.363 . S
C1760 C1759 1.415 . S
C1761 H1737 0.951 . S
C1761 C1762 1.366 . S
C1761 C1763 1.388 . S
C1762 C1761 1.366 . S
C1762 C1766 1.385 . S
C1763 H1738 0.951 . S
C1763 C1761 1.388 . S
C1763 C1764 1.366 . S
C1764 C1763 1.366 . S
C1764 C1765 1.414 . S
C1764 C1767 1.499 . S
C1765 H1739 0.950 . S
C1765 C1764 1.414 . S
C1765 C1766 1.374 . S
C1766 H1740 0.950 . S
C1766 C1762 1.385 . S
C1766 C1765 1.374 . S
C1767 C1764 1.499 . S
C1767 C1768 1.373 . S
C1767 C1769 1.389 . S
C1768 H1741 0.950 . S
C1768 C1754 1.377 . S
C1768 C1767 1.373 . S
C1769 C1753 1.377 . S
C1769 C1767 1.389 . S
C1769 C1770 1.524 . S
C1770 C1769 1.524 . S
C1770 C1771 1.397 . S
C1770 C1775 1.363 . S
C1771 H1742 0.950 . S
C1771 C1770 1.397 . S
C1771 C1772 1.334 . S
C1772 H1743 0.950 . S
C1772 C1771 1.334 . S
C1772 C1773 1.287 . S
C1773 C1772 1.287 . S
C1773 C1774 1.524 . S
C1773 H1776 0.999 . S
C1774 H1744 0.950 . S
C1774 C1773 1.524 . S
C1774 C1775 1.415 . S
C1775 H1745 0.950 . S
C1775 C1770 1.363 . S
C1775 C1774 1.415 . S
H1776 C1773 0.999 . S
H1777 C1758 0.913 . S
H1778 C1796 0.951 . S
H1779 C1798 0.951 . S
H1780 C1800 0.950 . S
H1781 C1801 0.950 . S
H1782 C1803 0.950 . S
H1783 C1806 0.950 . S
H1784 C1807 0.950 . S
H1785 C1809 0.950 . S
H1786 C1810 0.950 . S
H1787 C1811 0.951 . S
H1788 C1813 0.951 . S
H1789 C1815 0.950 . S
H1790 C1816 0.950 . S
H1791 C1818 0.950 . S
H1792 C1821 0.950 . S
H1793 C1822 0.950 . S
H1794 C1824 0.950 . S
H1795 C1825 0.950 . S
C1796 H1778 0.951 . S
C1796 C1797 1.366 . S
C1796 C1798 1.388 . S
C1797 C1796 1.366 . S
C1797 C1801 1.385 . S
C1798 H1779 0.951 . S
C1798 C1796 1.388 . S
C1798 C1799 1.366 . S
C1799 C1798 1.366 . S
C1799 C1800 1.414 . S
C1799 C1802 1.499 . S
C1800 H1780 0.950 . S
C1800 C1799 1.414 . S
C1800 C1801 1.374 . S
C1801 H1781 0.950 . S
C1801 C1797 1.385 . S
C1801 C1800 1.374 . S
C1802 C1799 1.499 . S
C1802 C1803 1.373 . S
C1802 C1804 1.389 . S
C1803 H1782 0.950 . S
C1803 C1802 1.373 . S
C1803 C1819 1.377 . S
C1804 C1802 1.389 . S
C1804 C1805 1.524 . S
C1804 C1818 1.377 . S
C1805 C1804 1.524 . S
C1805 C1806 1.397 . S
C1805 C1810 1.363 . S
C1806 H1783 0.950 . S
C1806 C1805 1.397 . S
C1806 C1807 1.334 . S
C1807 H1784 0.950 . S
C1807 C1806 1.334 . S
C1807 C1808 1.287 . S
C1808 C1807 1.287 . S
C1808 C1809 1.524 . S
C1808 H1827 0.913 . S
C1809 H1785 0.950 . S
C1809 C1808 1.524 . S
C1809 C1810 1.415 . S
C1810 H1786 0.950 . S
C1810 C1805 1.363 . S
C1810 C1809 1.415 . S
C1811 H1787 0.951 . S
C1811 C1812 1.366 . S
C1811 C1813 1.388 . S
C1812 C1811 1.366 . S
C1812 C1816 1.385 . S
C1813 H1788 0.951 . S
C1813 C1811 1.388 . S
C1813 C1814 1.366 . S
C1814 C1813 1.366 . S
C1814 C1815 1.414 . S
C1814 C1817 1.499 . S
C1815 H1789 0.950 . S
C1815 C1814 1.414 . S
C1815 C1816 1.374 . S
C1816 H1790 0.950 . S
C1816 C1812 1.385 . S
C1816 C1815 1.374 . S
C1817 C1814 1.499 . S
C1817 C1818 1.373 . S
C1817 C1819 1.389 . S
C1818 H1791 0.950 . S
C1818 C1804 1.377 . S
C1818 C1817 1.373 . S
C1819 C1803 1.377 . S
C1819 C1817 1.389 . S
C1819 C1820 1.524 . S
C1820 C1819 1.524 . S
C1820 C1821 1.397 . S
C1820 C1825 1.363 . S
C1821 H1792 0.950 . S
C1821 C1820 1.397 . S
C1821 C1822 1.334 . S
C1822 H1793 0.950 . S
C1822 C1821 1.334 . S
C1822 C1823 1.287 . S
C1823 C1822 1.287 . S
C1823 C1824 1.524 . S
C1823 H1826 0.999 . S
C1824 H1794 0.950 . S
C1824 C1823 1.524 . S
C1824 C1825 1.415 . S
C1825 H1795 0.950 . S
C1825 C1820 1.363 . S
C1825 C1824 1.415 . S
H1826 C1823 0.999 . S
H1827 C1808 0.913 . S
H1828 C1846 0.951 . S
H1829 C1848 0.951 . S
H1830 C1850 0.950 . S
H1831 C1851 0.950 . S
H1832 C1853 0.950 . S
H1833 C1856 0.950 . S
H1834 C1857 0.950 . S
H1835 C1859 0.950 . S
H1836 C1860 0.950 . S
H1837 C1861 0.951 . S
H1838 C1863 0.951 . S
H1839 C1865 0.950 . S
H1840 C1866 0.950 . S
H1841 C1868 0.950 . S
H1842 C1871 0.950 . S
H1843 C1872 0.950 . S
H1844 C1874 0.950 . S
H1845 C1875 0.950 . S
C1846 H1828 0.951 . S
C1846 C1847 1.366 . S
C1846 C1848 1.388 . S
C1847 C1846 1.366 . S
C1847 C1851 1.385 . S
C1848 H1829 0.951 . S
C1848 C1846 1.388 . S
C1848 C1849 1.366 . S
C1849 C1848 1.366 . S
C1849 C1850 1.414 . S
C1849 C1852 1.499 . S
C1850 H1830 0.950 . S
C1850 C1849 1.414 . S
C1850 C1851 1.374 . S
C1851 H1831 0.950 . S
C1851 C1847 1.385 . S
C1851 C1850 1.374 . S
C1852 C1849 1.499 . S
C1852 C1853 1.373 . S
C1852 C1854 1.389 . S
C1853 H1832 0.950 . S
C1853 C1852 1.373 . S
C1853 C1869 1.377 . S
C1854 C1852 1.389 . S
C1854 C1855 1.524 . S
C1854 C1868 1.377 . S
C1855 C1854 1.524 . S
C1855 C1856 1.397 . S
C1855 C1860 1.363 . S
C1856 H1833 0.950 . S
C1856 C1855 1.397 . S
C1856 C1857 1.334 . S
C1857 H1834 0.950 . S
C1857 C1856 1.334 . S
C1857 C1858 1.287 . S
C1858 C1857 1.287 . S
C1858 C1859 1.524 . S
C1858 H1877 0.913 . S
C1859 H1835 0.950 . S
C1859 C1858 1.524 . S
C1859 C1860 1.415 . S
C1860 H1836 0.950 . S
C1860 C1855 1.363 . S
C1860 C1859 1.415 . S
C1861 H1837 0.951 . S
C1861 C1862 1.366 . S
C1861 C1863 1.388 . S
C1862 C1861 1.366 . S
C1862 C1866 1.385 . S
C1863 H1838 0.951 . S
C1863 C1861 1.388 . S
C1863 C1864 1.366 . S
C1864 C1863 1.366 . S
C1864 C1865 1.414 . S
C1864 C1867 1.499 . S
C1865 H1839 0.950 . S
C1865 C1864 1.414 . S
C1865 C1866 1.374 . S
C1866 H1840 0.950 . S
C1866 C1862 1.385 . S
C1866 C1865 1.374 . S
C1867 C1864 1.499 . S
C1867 C1868 1.373 . S
C1867 C1869 1.389 . S
C1868 H1841 0.950 . S
C1868 C1854 1.377 . S
C1868 C1867 1.373 . S
C1869 C1853 1.377 . S
C1869 C1867 1.389 . S
C1869 C1870 1.524 . S
C1870 C1869 1.524 . S
C1870 C1871 1.397 . S
C1870 C1875 1.363 . S
C1871 H1842 0.950 . S
C1871 C1870 1.397 . S
C1871 C1872 1.334 . S
C1872 H1843 0.950 . S
C1872 C1871 1.334 . S
C1872 C1873 1.287 . S
C1873 C1872 1.287 . S
C1873 C1874 1.524 . S
C1873 H1876 0.999 . S
C1874 H1844 0.950 . S
C1874 C1873 1.524 . S
C1874 C1875 1.415 . S
C1875 H1845 0.950 . S
C1875 C1870 1.363 . S
C1875 C1874 1.415 . S
H1876 C1873 0.999 . S
H1877 C1858 0.913 . S
H1878 C1896 0.951 . S
H1879 C1898 0.951 . S
H1880 C1900 0.950 . S
H1881 C1901 0.950 . S
H1882 C1903 0.950 . S
H1883 C1906 0.950 . S
H1884 C1907 0.950 . S
H1885 C1909 0.950 . S
H1886 C1910 0.950 . S
H1887 C1911 0.951 . S
H1888 C1913 0.951 . S
H1889 C1915 0.950 . S
H1890 C1916 0.950 . S
H1891 C1918 0.950 . S
H1892 C1921 0.950 . S
H1893 C1922 0.950 . S
H1894 C1924 0.950 . S
H1895 C1925 0.950 . S
C1896 H1878 0.951 . S
C1896 C1897 1.366 . S
C1896 C1898 1.388 . S
C1897 C1896 1.366 . S
C1897 C1901 1.385 . S
C1898 H1879 0.951 . S
C1898 C1896 1.388 . S
C1898 C1899 1.366 . S
C1899 C1898 1.366 . S
C1899 C1900 1.414 . S
C1899 C1902 1.499 . S
C1900 H1880 0.950 . S
C1900 C1899 1.414 . S
C1900 C1901 1.374 . S
C1901 H1881 0.950 . S
C1901 C1897 1.385 . S
C1901 C1900 1.374 . S
C1902 C1899 1.499 . S
C1902 C1903 1.373 . S
C1902 C1904 1.389 . S
C1903 H1882 0.950 . S
C1903 C1902 1.373 . S
C1903 C1919 1.377 . S
C1904 C1902 1.389 . S
C1904 C1905 1.524 . S
C1904 C1918 1.377 . S
C1905 C1904 1.524 . S
C1905 C1906 1.397 . S
C1905 C1910 1.363 . S
C1906 H1883 0.950 . S
C1906 C1905 1.397 . S
C1906 C1907 1.334 . S
C1907 H1884 0.950 . S
C1907 C1906 1.334 . S
C1907 C1908 1.287 . S
C1908 C1907 1.287 . S
C1908 C1909 1.524 . S
C1908 H1927 0.913 . S
C1909 H1885 0.950 . S
C1909 C1908 1.524 . S
C1909 C1910 1.415 . S
C1910 H1886 0.950 . S
C1910 C1905 1.363 . S
C1910 C1909 1.415 . S
C1911 H1887 0.951 . S
C1911 C1912 1.366 . S
C1911 C1913 1.388 . S
C1912 C1911 1.366 . S
C1912 C1916 1.385 . S
C1913 H1888 0.951 . S
C1913 C1911 1.388 . S
C1913 C1914 1.366 . S
C1914 C1913 1.366 . S
C1914 C1915 1.414 . S
C1914 C1917 1.499 . S
C1915 H1889 0.950 . S
C1915 C1914 1.414 . S
C1915 C1916 1.374 . S
C1916 H1890 0.950 . S
C1916 C1912 1.385 . S
C1916 C1915 1.374 . S
C1917 C1914 1.499 . S
C1917 C1918 1.373 . S
C1917 C1919 1.389 . S
C1918 H1891 0.950 . S
C1918 C1904 1.377 . S
C1918 C1917 1.373 . S
C1919 C1903 1.377 . S
C1919 C1917 1.389 . S
C1919 C1920 1.524 . S
C1920 C1919 1.524 . S
C1920 C1921 1.397 . S
C1920 C1925 1.363 . S
C1921 H1892 0.950 . S
C1921 C1920 1.397 . S
C1921 C1922 1.334 . S
C1922 H1893 0.950 . S
C1922 C1921 1.334 . S
C1922 C1923 1.287 . S
C1923 C1922 1.287 . S
C1923 C1924 1.524 . S
C1923 H1926 0.999 . S
C1924 H1894 0.950 . S
C1924 C1923 1.524 . S
C1924 C1925 1.415 . S
C1925 H1895 0.950 . S
C1925 C1920 1.363 . S
C1925 C1924 1.415 . S
H1926 C1923 0.999 . S
H1927 C1908 0.913 . S
H1928 C1946 0.951 . S
H1929 C1948 0.951 . S
H1930 C1950 0.950 . S
H1931 C1951 0.950 . S
H1932 C1953 0.950 . S
H1933 C1956 0.950 . S
H1934 C1957 0.950 . S
H1935 C1959 0.950 . S
H1936 C1960 0.950 . S
H1937 C1961 0.951 . S
H1938 C1963 0.951 . S
H1939 C1965 0.950 . S
H1940 C1966 0.950 . S
H1941 C1968 0.950 . S
H1942 C1971 0.950 . S
H1943 C1972 0.950 . S
H1944 C1974 0.950 . S
H1945 C1975 0.950 . S
C1946 H1928 0.951 . S
C1946 C1947 1.366 . S
C1946 C1948 1.388 . S
C1947 C1946 1.366 . S
C1947 C1951 1.385 . S
C1948 H1929 0.951 . S
C1948 C1946 1.388 . S
C1948 C1949 1.366 . S
C1949 C1948 1.366 . S
C1949 C1950 1.414 . S
C1949 C1952 1.499 . S
C1950 H1930 0.950 . S
C1950 C1949 1.414 . S
C1950 C1951 1.374 . S
C1951 H1931 0.950 . S
C1951 C1947 1.385 . S
C1951 C1950 1.374 . S
C1952 C1949 1.499 . S
C1952 C1953 1.373 . S
C1952 C1954 1.389 . S
C1953 H1932 0.950 . S
C1953 C1952 1.373 . S
C1953 C1969 1.377 . S
C1954 C1952 1.389 . S
C1954 C1955 1.524 . S
C1954 C1968 1.377 . S
C1955 C1954 1.524 . S
C1955 C1956 1.397 . S
C1955 C1960 1.363 . S
C1956 H1933 0.950 . S
C1956 C1955 1.397 . S
C1956 C1957 1.334 . S
C1957 H1934 0.950 . S
C1957 C1956 1.334 . S
C1957 C1958 1.287 . S
C1958 C1957 1.287 . S
C1958 C1959 1.524 . S
C1958 H1977 0.913 . S
C1959 H1935 0.950 . S
C1959 C1958 1.524 . S
C1959 C1960 1.415 . S
C1960 H1936 0.950 . S
C1960 C1955 1.363 . S
C1960 C1959 1.415 . S
C1961 H1937 0.951 . S
C1961 C1962 1.366 . S
C1961 C1963 1.388 . S
C1962 C1961 1.366 . S
C1962 C1966 1.385 . S
C1963 H1938 0.951 . S
C1963 C1961 1.388 . S
C1963 C1964 1.366 . S
C1964 C1963 1.366 . S
C1964 C1965 1.414 . S
C1964 C1967 1.499 . S
C1965 H1939 0.950 . S
C1965 C1964 1.414 . S
C1965 C1966 1.374 . S
C1966 H1940 0.950 . S
C1966 C1962 1.385 . S
C1966 C1965 1.374 . S
C1967 C1964 1.499 . S
C1967 C1968 1.373 . S
C1967 C1969 1.389 . S
C1968 H1941 0.950 . S
C1968 C1954 1.377 . S
C1968 C1967 1.373 . S
C1969 C1953 1.377 . S
C1969 C1967 1.389 . S
C1969 C1970 1.524 . S
C1970 C1969 1.524 . S
C1970 C1971 1.397 . S
C1970 C1975 1.363 . S
C1971 H1942 0.950 . S
C1971 C1970 1.397 . S
C1971 C1972 1.334 . S
C1972 H1943 0.950 . S
C1972 C1971 1.334 . S
C1972 C1973 1.287 . S
C1973 C1972 1.287 . S
C1973 C1974 1.524 . S
C1973 H1976 0.999 . S
C1974 H1944 0.950 . S
C1974 C1973 1.524 . S
C1974 C1975 1.415 . S
C1975 H1945 0.950 . S
C1975 C1970 1.363 . S
C1975 C1974 1.415 . S
H1976 C1973 0.999 . S
H1977 C1958 0.913 . S
H1978 C1996 0.951 . S
H1979 C1998 0.951 . S
H1980 C2000 0.950 . S
H1981 C2001 0.950 . S
H1982 C2003 0.950 . S
H1983 C2006 0.950 . S
H1984 C2007 0.950 . S
H1985 C2009 0.950 . S
H1986 C2010 0.950 . S
H1987 C2011 0.951 . S
H1988 C2013 0.951 . S
H1989 C2015 0.950 . S
H1990 C2016 0.950 . S
H1991 C2018 0.950 . S
H1992 C2021 0.950 . S
H1993 C2022 0.950 . S
H1994 C2024 0.950 . S
H1995 C2025 0.950 . S
C1996 H1978 0.951 . S
C1996 C1997 1.366 . S
C1996 C1998 1.388 . S
C1997 C1996 1.366 . S
C1997 C2001 1.385 . S
C1998 H1979 0.951 . S
C1998 C1996 1.388 . S
C1998 C1999 1.366 . S
C1999 C1998 1.366 . S
C1999 C2000 1.414 . S
C1999 C2002 1.499 . S
C2000 H1980 0.950 . S
C2000 C1999 1.414 . S
C2000 C2001 1.374 . S
C2001 H1981 0.950 . S
C2001 C1997 1.385 . S
C2001 C2000 1.374 . S
C2002 C1999 1.499 . S
C2002 C2003 1.373 . S
C2002 C2004 1.389 . S
C2003 H1982 0.950 . S
C2003 C2002 1.373 . S
C2003 C2019 1.377 . S
C2004 C2002 1.389 . S
C2004 C2005 1.524 . S
C2004 C2018 1.377 . S
C2005 C2004 1.524 . S
C2005 C2006 1.397 . S
C2005 C2010 1.363 . S
C2006 H1983 0.950 . S
C2006 C2005 1.397 . S
C2006 C2007 1.334 . S
C2007 H1984 0.950 . S
C2007 C2006 1.334 . S
C2007 C2008 1.287 . S
C2008 C2007 1.287 . S
C2008 C2009 1.524 . S
C2008 H2027 0.913 . S
C2009 H1985 0.950 . S
C2009 C2008 1.524 . S
C2009 C2010 1.415 . S
C2010 H1986 0.950 . S
C2010 C2005 1.363 . S
C2010 C2009 1.415 . S
C2011 H1987 0.951 . S
C2011 C2012 1.366 . S
C2011 C2013 1.388 . S
C2012 C2011 1.366 . S
C2012 C2016 1.385 . S
C2013 H1988 0.951 . S
C2013 C2011 1.388 . S
C2013 C2014 1.366 . S
C2014 C2013 1.366 . S
C2014 C2015 1.414 . S
C2014 C2017 1.499 . S
C2015 H1989 0.950 . S
C2015 C2014 1.414 . S
C2015 C2016 1.374 . S
C2016 H1990 0.950 . S
C2016 C2012 1.385 . S
C2016 C2015 1.374 . S
C2017 C2014 1.499 . S
C2017 C2018 1.373 . S
C2017 C2019 1.389 . S
C2018 H1991 0.950 . S
C2018 C2004 1.377 . S
C2018 C2017 1.373 . S
C2019 C2003 1.377 . S
C2019 C2017 1.389 . S
C2019 C2020 1.524 . S
C2020 C2019 1.524 . S
C2020 C2021 1.397 . S
C2020 C2025 1.363 . S
C2021 H1992 0.950 . S
C2021 C2020 1.397 . S
C2021 C2022 1.334 . S
C2022 H1993 0.950 . S
C2022 C2021 1.334 . S
C2022 C2023 1.287 . S
C2023 C2022 1.287 . S
C2023 C2024 1.524 . S
C2023 H2026 0.999 . S
C2024 H1994 0.950 . S
C2024 C2023 1.524 . S
C2024 C2025 1.415 . S
C2025 H1995 0.950 . S
C2025 C2020 1.363 . S
C2025 C2024 1.415 . S
H2026 C2023 0.999 . S
H2027 C2008 0.913 . S
H2028 C2046 0.951 . S
H2029 C2048 0.951 . S
H2030 C2050 0.950 . S
H2031 C2051 0.950 . S
H2032 C2053 0.950 . S
H2033 C2056 0.950 . S
H2034 C2057 0.950 . S
H2035 C2059 0.950 . S
H2036 C2060 0.950 . S
H2037 C2061 0.951 . S
H2038 C2063 0.951 . S
H2039 C2065 0.950 . S
H2040 C2066 0.950 . S
H2041 C2068 0.950 . S
H2042 C2071 0.950 . S
H2043 C2072 0.950 . S
H2044 C2074 0.950 . S
H2045 C2075 0.950 . S
C2046 H2028 0.951 . S
C2046 C2047 1.366 . S
C2046 C2048 1.388 . S
C2047 C2046 1.366 . S
C2047 C2051 1.385 . S
C2048 H2029 0.951 . S
C2048 C2046 1.388 . S
C2048 C2049 1.366 . S
C2049 C2048 1.366 . S
C2049 C2050 1.414 . S
C2049 C2052 1.499 . S
C2050 H2030 0.950 . S
C2050 C2049 1.414 . S
C2050 C2051 1.374 . S
C2051 H2031 0.950 . S
C2051 C2047 1.385 . S
C2051 C2050 1.374 . S
C2052 C2049 1.499 . S
C2052 C2053 1.373 . S
C2052 C2054 1.389 . S
C2053 H2032 0.950 . S
C2053 C2052 1.373 . S
C2053 C2069 1.377 . S
C2054 C2052 1.389 . S
C2054 C2055 1.524 . S
C2054 C2068 1.377 . S
C2055 C2054 1.524 . S
C2055 C2056 1.397 . S
C2055 C2060 1.363 . S
C2056 H2033 0.950 . S
C2056 C2055 1.397 . S
C2056 C2057 1.334 . S
C2057 H2034 0.950 . S
C2057 C2056 1.334 . S
C2057 C2058 1.287 . S
C2058 C2057 1.287 . S
C2058 C2059 1.524 . S
C2058 H2077 0.913 . S
C2059 H2035 0.950 . S
C2059 C2058 1.524 . S
C2059 C2060 1.415 . S
C2060 H2036 0.950 . S
C2060 C2055 1.363 . S
C2060 C2059 1.415 . S
C2061 H2037 0.951 . S
C2061 C2062 1.366 . S
C2061 C2063 1.388 . S
C2062 C2061 1.366 . S
C2062 C2066 1.385 . S
C2063 H2038 0.951 . S
C2063 C2061 1.388 . S
C2063 C2064 1.366 . S
C2064 C2063 1.366 . S
C2064 C2065 1.414 . S
C2064 C2067 1.499 . S
C2065 H2039 0.950 . S
C2065 C2064 1.414 . S
C2065 C2066 1.374 . S
C2066 H2040 0.950 . S
C2066 C2062 1.385 . S
C2066 C2065 1.374 . S
C2067 C2064 1.499 . S
C2067 C2068 1.373 . S
C2067 C2069 1.389 . S
C2068 H2041 0.950 . S
C2068 C2054 1.377 . S
C2068 C2067 1.373 . S
C2069 C2053 1.377 . S
C2069 C2067 1.389 . S
C2069 C2070 1.524 . S
C2070 C2069 1.524 . S
C2070 C2071 1.397 . S
C2070 C2075 1.363 . S
C2071 H2042 0.950 . S
C2071 C2070 1.397 . S
C2071 C2072 1.334 . S
C2072 H2043 0.950 . S
C2072 C2071 1.334 . S
C2072 C2073 1.287 . S
C2073 C2072 1.287 . S
C2073 C2074 1.524 . S
C2073 H2076 0.999 . S
C2074 H2044 0.950 . S
C2074 C2073 1.524 . S
C2074 C2075 1.415 . S
C2075 H2045 0.950 . S
C2075 C2070 1.363 . S
C2075 C2074 1.415 . S
H2076 C2073 0.999 . S
H2077 C2058 0.913 . S
H2078 C2096 0.951 . S
H2079 C2098 0.951 . S
H2080 C2100 0.950 . S
H2081 C2101 0.950 . S
H2082 C2103 0.950 . S
H2083 C2106 0.950 . S
H2084 C2107 0.950 . S
H2085 C2109 0.950 . S
H2086 C2110 0.950 . S
H2087 C2111 0.951 . S
H2088 C2113 0.951 . S
H2089 C2115 0.950 . S
H2090 C2116 0.950 . S
H2091 C2118 0.950 . S
H2092 C2121 0.950 . S
H2093 C2122 0.950 . S
H2094 C2124 0.950 . S
H2095 C2125 0.950 . S
C2096 H2078 0.951 . S
C2096 C2097 1.366 . S
C2096 C2098 1.388 . S
C2097 C2096 1.366 . S
C2097 C2101 1.385 . S
C2098 H2079 0.951 . S
C2098 C2096 1.388 . S
C2098 C2099 1.366 . S
C2099 C2098 1.366 . S
C2099 C2100 1.414 . S
C2099 C2102 1.499 . S
C2100 H2080 0.950 . S
C2100 C2099 1.414 . S
C2100 C2101 1.374 . S
C2101 H2081 0.950 . S
C2101 C2097 1.385 . S
C2101 C2100 1.374 . S
C2102 C2099 1.499 . S
C2102 C2103 1.373 . S
C2102 C2104 1.389 . S
C2103 H2082 0.950 . S
C2103 C2102 1.373 . S
C2103 C2119 1.377 . S
C2104 C2102 1.389 . S
C2104 C2105 1.524 . S
C2104 C2118 1.377 . S
C2105 C2104 1.524 . S
C2105 C2106 1.397 . S
C2105 C2110 1.363 . S
C2106 H2083 0.950 . S
C2106 C2105 1.397 . S
C2106 C2107 1.334 . S
C2107 H2084 0.950 . S
C2107 C2106 1.334 . S
C2107 C2108 1.287 . S
C2108 C2107 1.287 . S
C2108 C2109 1.524 . S
C2108 H2127 0.913 . S
C2109 H2085 0.950 . S
C2109 C2108 1.524 . S
C2109 C2110 1.415 . S
C2110 H2086 0.950 . S
C2110 C2105 1.363 . S
C2110 C2109 1.415 . S
C2111 H2087 0.951 . S
C2111 C2112 1.366 . S
C2111 C2113 1.388 . S
C2112 C2111 1.366 . S
C2112 C2116 1.385 . S
C2113 H2088 0.951 . S
C2113 C2111 1.388 . S
C2113 C2114 1.366 . S
C2114 C2113 1.366 . S
C2114 C2115 1.414 . S
C2114 C2117 1.499 . S
C2115 H2089 0.950 . S
C2115 C2114 1.414 . S
C2115 C2116 1.374 . S
C2116 H2090 0.950 . S
C2116 C2112 1.385 . S
C2116 C2115 1.374 . S
C2117 C2114 1.499 . S
C2117 C2118 1.373 . S
C2117 C2119 1.389 . S
C2118 H2091 0.950 . S
C2118 C2104 1.377 . S
C2118 C2117 1.373 . S
C2119 C2103 1.377 . S
C2119 C2117 1.389 . S
C2119 C2120 1.524 . S
C2120 C2119 1.524 . S
C2120 C2121 1.397 . S
C2120 C2125 1.363 . S
C2121 H2092 0.950 . S
C2121 C2120 1.397 . S
C2121 C2122 1.334 . S
C2122 H2093 0.950 . S
C2122 C2121 1.334 . S
C2122 C2123 1.287 . S
C2123 C2122 1.287 . S
C2123 C2124 1.524 . S
C2123 H2126 0.999 . S
C2124 H2094 0.950 . S
C2124 C2123 1.524 . S
C2124 C2125 1.415 . S
C2125 H2095 0.950 . S
C2125 C2120 1.363 . S
C2125 C2124 1.415 . S
H2126 C2123 0.999 . S
H2127 C2108 0.913 . S
H2128 C2146 0.951 . S
H2129 C2148 0.951 . S
H2130 C2150 0.950 . S
H2131 C2151 0.950 . S
H2132 C2153 0.950 . S
H2133 C2156 0.950 . S
H2134 C2157 0.950 . S
H2135 C2159 0.950 . S
H2136 C2160 0.950 . S
H2137 C2161 0.951 . S
H2138 C2163 0.951 . S
H2139 C2165 0.950 . S
H2140 C2166 0.950 . S
H2141 C2168 0.950 . S
H2142 C2171 0.950 . S
H2143 C2172 0.950 . S
H2144 C2174 0.950 . S
H2145 C2175 0.950 . S
C2146 H2128 0.951 . S
C2146 C2147 1.366 . S
C2146 C2148 1.388 . S
C2147 C2146 1.366 . S
C2147 C2151 1.385 . S
C2148 H2129 0.951 . S
C2148 C2146 1.388 . S
C2148 C2149 1.366 . S
C2149 C2148 1.366 . S
C2149 C2150 1.414 . S
C2149 C2152 1.499 . S
C2150 H2130 0.950 . S
C2150 C2149 1.414 . S
C2150 C2151 1.374 . S
C2151 H2131 0.950 . S
C2151 C2147 1.385 . S
C2151 C2150 1.374 . S
C2152 C2149 1.499 . S
C2152 C2153 1.373 . S
C2152 C2154 1.389 . S
C2153 H2132 0.950 . S
C2153 C2152 1.373 . S
C2153 C2169 1.377 . S
C2154 C2152 1.389 . S
C2154 C2155 1.524 . S
C2154 C2168 1.377 . S
C2155 C2154 1.524 . S
C2155 C2156 1.397 . S
C2155 C2160 1.363 . S
C2156 H2133 0.950 . S
C2156 C2155 1.397 . S
C2156 C2157 1.334 . S
C2157 H2134 0.950 . S
C2157 C2156 1.334 . S
C2157 C2158 1.287 . S
C2158 C2157 1.287 . S
C2158 C2159 1.524 . S
C2158 H2177 0.913 1_545 S
C2159 H2135 0.950 . S
C2159 C2158 1.524 . S
C2159 C2160 1.415 . S
C2160 H2136 0.950 . S
C2160 C2155 1.363 . S
C2160 C2159 1.415 . S
C2161 H2137 0.951 . S
C2161 C2162 1.366 . S
C2161 C2163 1.388 . S
C2162 C2161 1.366 . S
C2162 C2166 1.385 . S
C2163 H2138 0.951 . S
C2163 C2161 1.388 . S
C2163 C2164 1.366 . S
C2164 C2163 1.366 . S
C2164 C2165 1.414 . S
C2164 C2167 1.499 . S
C2165 H2139 0.950 . S
C2165 C2164 1.414 . S
C2165 C2166 1.374 . S
C2166 H2140 0.950 . S
C2166 C2162 1.385 . S
C2166 C2165 1.374 . S
C2167 C2164 1.499 . S
C2167 C2168 1.373 . S
C2167 C2169 1.389 . S
C2168 H2141 0.950 . S
C2168 C2154 1.377 . S
C2168 C2167 1.373 . S
C2169 C2153 1.377 . S
C2169 C2167 1.389 . S
C2169 C2170 1.524 . S
C2170 C2169 1.524 . S
C2170 C2171 1.397 . S
C2170 C2175 1.363 . S
C2171 H2142 0.950 . S
C2171 C2170 1.397 . S
C2171 C2172 1.334 . S
C2172 H2143 0.950 . S
C2172 C2171 1.334 . S
C2172 C2173 1.287 . S
C2173 C2172 1.287 . S
C2173 C2174 1.524 . S
C2173 H2176 0.999 . S
C2174 H2144 0.950 . S
C2174 C2173 1.524 . S
C2174 C2175 1.415 . S
C2175 H2145 0.950 . S
C2175 C2170 1.363 . S
C2175 C2174 1.415 . S
H2176 C2173 0.999 . S
H2177 C2158 0.913 1_565 S
H2178 C2196 0.951 . S
H2179 C2198 0.951 . S
H2180 C2200 0.950 . S
H2181 C2201 0.950 . S
H2182 C2203 0.950 . S
H2183 C2206 0.950 . S
H2184 C2207 0.950 . S
H2185 C2209 0.950 . S
H2186 C2210 0.950 . S
H2187 C2211 0.951 . S
H2188 C2213 0.951 . S
H2189 C2215 0.950 . S
H2190 C2216 0.950 . S
H2191 C2218 0.950 . S
H2192 C2221 0.950 . S
H2193 C2222 0.950 . S
H2194 C2224 0.950 . S
H2195 C2225 0.950 . S
C2196 H2178 0.951 . S
C2196 C2197 1.366 . S
C2196 C2198 1.388 . S
C2197 C2196 1.366 . S
C2197 C2201 1.385 . S
C2198 H2179 0.951 . S
C2198 C2196 1.388 . S
C2198 C2199 1.366 . S
C2199 C2198 1.366 . S
C2199 C2200 1.414 . S
C2199 C2202 1.499 . S
C2200 H2180 0.950 . S
C2200 C2199 1.414 . S
C2200 C2201 1.374 . S
C2201 H2181 0.950 . S
C2201 C2197 1.385 . S
C2201 C2200 1.374 . S
C2202 C2199 1.499 . S
C2202 C2203 1.373 . S
C2202 C2204 1.389 . S
C2203 H2182 0.950 . S
C2203 C2202 1.373 . S
C2203 C2219 1.377 . S
C2204 C2202 1.389 . S
C2204 C2205 1.524 . S
C2204 C2218 1.377 . S
C2205 C2204 1.524 . S
C2205 C2206 1.397 . S
C2205 C2210 1.363 . S
C2206 H2183 0.950 . S
C2206 C2205 1.397 . S
C2206 C2207 1.334 . S
C2207 H2184 0.950 . S
C2207 C2206 1.334 . S
C2207 C2208 1.287 . S
C2208 C2207 1.287 . S
C2208 C2209 1.524 . S
C2208 H2227 0.913 . S
C2209 H2185 0.950 . S
C2209 C2208 1.524 . S
C2209 C2210 1.415 . S
C2210 H2186 0.950 . S
C2210 C2205 1.363 . S
C2210 C2209 1.415 . S
C2211 H2187 0.951 . S
C2211 C2212 1.366 . S
C2211 C2213 1.388 . S
C2212 C2211 1.366 . S
C2212 C2216 1.385 . S
C2213 H2188 0.951 . S
C2213 C2211 1.388 . S
C2213 C2214 1.366 . S
C2214 C2213 1.366 . S
C2214 C2215 1.414 . S
C2214 C2217 1.499 . S
C2215 H2189 0.950 . S
C2215 C2214 1.414 . S
C2215 C2216 1.374 . S
C2216 H2190 0.950 . S
C2216 C2212 1.385 . S
C2216 C2215 1.374 . S
C2217 C2214 1.499 . S
C2217 C2218 1.373 . S
C2217 C2219 1.389 . S
C2218 H2191 0.950 . S
C2218 C2204 1.377 . S
C2218 C2217 1.373 . S
C2219 C2203 1.377 . S
C2219 C2217 1.389 . S
C2219 C2220 1.524 . S
C2220 C2219 1.524 . S
C2220 C2221 1.397 . S
C2220 C2225 1.363 . S
C2221 H2192 0.950 . S
C2221 C2220 1.397 . S
C2221 C2222 1.334 . S
C2222 H2193 0.950 . S
C2222 C2221 1.334 . S
C2222 C2223 1.287 . S
C2223 C2222 1.287 . S
C2223 C2224 1.524 . S
C2223 H2226 0.999 . S
C2224 H2194 0.950 . S
C2224 C2223 1.524 . S
C2224 C2225 1.415 . S
C2225 H2195 0.950 . S
C2225 C2220 1.363 . S
C2225 C2224 1.415 . S
H2226 C2223 0.999 . S
H2227 C2208 0.913 . S
H2228 C2246 0.951 . S
H2229 C2248 0.951 . S
H2230 C2250 0.950 . S
H2231 C2251 0.950 . S
H2232 C2253 0.950 . S
H2233 C2256 0.950 . S
H2234 C2257 0.950 . S
H2235 C2259 0.950 . S
H2236 C2260 0.950 . S
H2237 C2261 0.951 . S
H2238 C2263 0.951 . S
H2239 C2265 0.950 . S
H2240 C2266 0.950 . S
H2241 C2268 0.950 . S
H2242 C2271 0.950 . S
H2243 C2272 0.950 . S
H2244 C2274 0.950 . S
H2245 C2275 0.950 . S
C2246 H2228 0.951 . S
C2246 C2247 1.366 . S
C2246 C2248 1.388 . S
C2247 C2246 1.366 . S
C2247 C2251 1.385 . S
C2248 H2229 0.951 . S
C2248 C2246 1.388 . S
C2248 C2249 1.366 . S
C2249 C2248 1.366 . S
C2249 C2250 1.414 . S
C2249 C2252 1.499 . S
C2250 H2230 0.950 . S
C2250 C2249 1.414 . S
C2250 C2251 1.374 . S
C2251 H2231 0.950 . S
C2251 C2247 1.385 . S
C2251 C2250 1.374 . S
C2252 C2249 1.499 . S
C2252 C2253 1.373 . S
C2252 C2254 1.389 . S
C2253 H2232 0.950 . S
C2253 C2252 1.373 . S
C2253 C2269 1.377 . S
C2254 C2252 1.389 . S
C2254 C2255 1.524 . S
C2254 C2268 1.377 . S
C2255 C2254 1.524 . S
C2255 C2256 1.397 . S
C2255 C2260 1.363 . S
C2256 H2233 0.950 . S
C2256 C2255 1.397 . S
C2256 C2257 1.334 . S
C2257 H2234 0.950 . S
C2257 C2256 1.334 . S
C2257 C2258 1.287 . S
C2258 C2257 1.287 . S
C2258 C2259 1.524 . S
C2258 H2277 0.913 . S
C2259 H2235 0.950 . S
C2259 C2258 1.524 . S
C2259 C2260 1.415 . S
C2260 H2236 0.950 . S
C2260 C2255 1.363 . S
C2260 C2259 1.415 . S
C2261 H2237 0.951 . S
C2261 C2262 1.366 . S
C2261 C2263 1.388 . S
C2262 C2261 1.366 . S
C2262 C2266 1.385 . S
C2263 H2238 0.951 . S
C2263 C2261 1.388 . S
C2263 C2264 1.366 . S
C2264 C2263 1.366 . S
C2264 C2265 1.414 . S
C2264 C2267 1.499 . S
C2265 H2239 0.950 . S
C2265 C2264 1.414 . S
C2265 C2266 1.374 . S
C2266 H2240 0.950 . S
C2266 C2262 1.385 . S
C2266 C2265 1.374 . S
C2267 C2264 1.499 . S
C2267 C2268 1.373 . S
C2267 C2269 1.389 . S
C2268 H2241 0.950 . S
C2268 C2254 1.377 . S
C2268 C2267 1.373 . S
C2269 C2253 1.377 . S
C2269 C2267 1.389 . S
C2269 C2270 1.524 . S
C2270 C2269 1.524 . S
C2270 C2271 1.397 . S
C2270 C2275 1.363 . S
C2271 H2242 0.950 . S
C2271 C2270 1.397 . S
C2271 C2272 1.334 . S
C2272 H2243 0.950 . S
C2272 C2271 1.334 . S
C2272 C2273 1.287 . S
C2273 C2272 1.287 . S
C2273 C2274 1.524 . S
C2273 H2276 0.999 . S
C2274 H2244 0.950 . S
C2274 C2273 1.524 . S
C2274 C2275 1.415 . S
C2275 H2245 0.950 . S
C2275 C2270 1.363 . S
C2275 C2274 1.415 . S
H2276 C2273 0.999 . S
H2277 C2258 0.913 . S
H2278 C2296 0.951 . S
H2279 C2298 0.951 . S
H2280 C2300 0.950 . S
H2281 C2301 0.950 . S
H2282 C2303 0.950 . S
H2283 C2306 0.950 . S
H2284 C2307 0.950 . S
H2285 C2309 0.950 . S
H2286 C2310 0.950 . S
H2287 C2311 0.951 . S
H2288 C2313 0.951 . S
H2289 C2315 0.950 . S
H2290 C2316 0.950 . S
H2291 C2318 0.950 . S
H2292 C2321 0.950 . S
H2293 C2322 0.950 . S
H2294 C2324 0.950 . S
H2295 C2325 0.950 . S
C2296 H2278 0.951 . S
C2296 C2297 1.366 . S
C2296 C2298 1.388 . S
C2297 C2296 1.366 . S
C2297 C2301 1.385 . S
C2298 H2279 0.951 . S
C2298 C2296 1.388 . S
C2298 C2299 1.366 . S
C2299 C2298 1.366 . S
C2299 C2300 1.414 . S
C2299 C2302 1.499 . S
C2300 H2280 0.950 . S
C2300 C2299 1.414 . S
C2300 C2301 1.374 . S
C2301 H2281 0.950 . S
C2301 C2297 1.385 . S
C2301 C2300 1.374 . S
C2302 C2299 1.499 . S
C2302 C2303 1.373 . S
C2302 C2304 1.389 . S
C2303 H2282 0.950 . S
C2303 C2302 1.373 . S
C2303 C2319 1.377 . S
C2304 C2302 1.389 . S
C2304 C2305 1.524 . S
C2304 C2318 1.377 . S
C2305 C2304 1.524 . S
C2305 C2306 1.397 . S
C2305 C2310 1.363 . S
C2306 H2283 0.950 . S
C2306 C2305 1.397 . S
C2306 C2307 1.334 . S
C2307 H2284 0.950 . S
C2307 C2306 1.334 . S
C2307 C2308 1.287 . S
C2308 C2307 1.287 . S
C2308 C2309 1.524 . S
C2308 H2327 0.913 . S
C2309 H2285 0.950 . S
C2309 C2308 1.524 . S
C2309 C2310 1.415 . S
C2310 H2286 0.950 . S
C2310 C2305 1.363 . S
C2310 C2309 1.415 . S
C2311 H2287 0.951 . S
C2311 C2312 1.366 . S
C2311 C2313 1.388 . S
C2312 C2311 1.366 . S
C2312 C2316 1.385 . S
C2313 H2288 0.951 . S
C2313 C2311 1.388 . S
C2313 C2314 1.366 . S
C2314 C2313 1.366 . S
C2314 C2315 1.414 . S
C2314 C2317 1.499 . S
C2315 H2289 0.950 . S
C2315 C2314 1.414 . S
C2315 C2316 1.374 . S
C2316 H2290 0.950 . S
C2316 C2312 1.385 . S
C2316 C2315 1.374 . S
C2317 C2314 1.499 . S
C2317 C2318 1.373 . S
C2317 C2319 1.389 . S
C2318 H2291 0.950 . S
C2318 C2304 1.377 . S
C2318 C2317 1.373 . S
C2319 C2303 1.377 . S
C2319 C2317 1.389 . S
C2319 C2320 1.524 . S
C2320 C2319 1.524 . S
C2320 C2321 1.397 . S
C2320 C2325 1.363 . S
C2321 H2292 0.950 . S
C2321 C2320 1.397 . S
C2321 C2322 1.334 . S
C2322 H2293 0.950 . S
C2322 C2321 1.334 . S
C2322 C2323 1.287 . S
C2323 C2322 1.287 . S
C2323 C2324 1.524 . S
C2323 H2326 0.999 . S
C2324 H2294 0.950 . S
C2324 C2323 1.524 . S
C2324 C2325 1.415 . S
C2325 H2295 0.950 . S
C2325 C2320 1.363 . S
C2325 C2324 1.415 . S
H2326 C2323 0.999 . S
H2327 C2308 0.913 . S
H2328 C2346 0.951 . S
H2329 C2348 0.951 . S
H2330 C2350 0.950 . S
H2331 C2351 0.950 . S
H2332 C2353 0.950 . S
H2333 C2356 0.950 . S
H2334 C2357 0.950 . S
H2335 C2359 0.950 . S
H2336 C2360 0.950 . S
H2337 C2361 0.951 . S
H2338 C2363 0.951 . S
H2339 C2365 0.950 . S
H2340 C2366 0.950 . S
H2341 C2368 0.950 . S
H2342 C2371 0.950 . S
H2343 C2372 0.950 . S
H2344 C2374 0.950 . S
H2345 C2375 0.950 . S
C2346 H2328 0.951 . S
C2346 C2347 1.366 . S
C2346 C2348 1.388 . S
C2347 C2346 1.366 . S
C2347 C2351 1.385 . S
C2348 H2329 0.951 . S
C2348 C2346 1.388 . S
C2348 C2349 1.366 . S
C2349 C2348 1.366 . S
C2349 C2350 1.414 . S
C2349 C2352 1.499 . S
C2350 H2330 0.950 . S
C2350 C2349 1.414 . S
C2350 C2351 1.374 . S
C2351 H2331 0.950 . S
C2351 C2347 1.385 . S
C2351 C2350 1.374 . S
C2352 C2349 1.499 . S
C2352 C2353 1.373 . S
C2352 C2354 1.389 . S
C2353 H2332 0.950 . S
C2353 C2352 1.373 . S
C2353 C2369 1.377 . S
C2354 C2352 1.389 . S
C2354 C2355 1.524 . S
C2354 C2368 1.377 . S
C2355 C2354 1.524 . S
C2355 C2356 1.397 . S
C2355 C2360 1.363 . S
C2356 H2333 0.950 . S
C2356 C2355 1.397 . S
C2356 C2357 1.334 . S
C2357 H2334 0.950 . S
C2357 C2356 1.334 . S
C2357 C2358 1.287 . S
C2358 C2357 1.287 . S
C2358 C2359 1.524 . S
C2358 H2377 0.913 . S
C2359 H2335 0.950 . S
C2359 C2358 1.524 . S
C2359 C2360 1.415 . S
C2360 H2336 0.950 . S
C2360 C2355 1.363 . S
C2360 C2359 1.415 . S
C2361 H2337 0.951 . S
C2361 C2362 1.366 . S
C2361 C2363 1.388 . S
C2362 C2361 1.366 . S
C2362 C2366 1.385 . S
C2363 H2338 0.951 . S
C2363 C2361 1.388 . S
C2363 C2364 1.366 . S
C2364 C2363 1.366 . S
C2364 C2365 1.414 . S
C2364 C2367 1.499 . S
C2365 H2339 0.950 . S
C2365 C2364 1.414 . S
C2365 C2366 1.374 . S
C2366 H2340 0.950 . S
C2366 C2362 1.385 . S
C2366 C2365 1.374 . S
C2367 C2364 1.499 . S
C2367 C2368 1.373 . S
C2367 C2369 1.389 . S
C2368 H2341 0.950 . S
C2368 C2354 1.377 . S
C2368 C2367 1.373 . S
C2369 C2353 1.377 . S
C2369 C2367 1.389 . S
C2369 C2370 1.524 . S
C2370 C2369 1.524 . S
C2370 C2371 1.397 . S
C2370 C2375 1.363 . S
C2371 H2342 0.950 . S
C2371 C2370 1.397 . S
C2371 C2372 1.334 . S
C2372 H2343 0.950 . S
C2372 C2371 1.334 . S
C2372 C2373 1.287 . S
C2373 C2372 1.287 . S
C2373 C2374 1.524 . S
C2373 H2376 0.999 . S
C2374 H2344 0.950 . S
C2374 C2373 1.524 . S
C2374 C2375 1.415 . S
C2375 H2345 0.950 . S
C2375 C2370 1.363 . S
C2375 C2374 1.415 . S
H2376 C2373 0.999 . S
H2377 C2358 0.913 . S
H2378 C2396 0.951 . S
H2379 C2398 0.951 . S
H2380 C2400 0.950 . S
H2381 C2401 0.950 . S
H2382 C2403 0.950 . S
H2383 C2406 0.950 . S
H2384 C2407 0.950 . S
H2385 C2409 0.950 . S
H2386 C2410 0.950 . S
H2387 C2411 0.951 . S
H2388 C2413 0.951 . S
H2389 C2415 0.950 . S
H2390 C2416 0.950 . S
H2391 C2418 0.950 . S
H2392 C2421 0.950 . S
H2393 C2422 0.950 . S
H2394 C2424 0.950 . S
H2395 C2425 0.950 . S
C2396 H2378 0.951 . S
C2396 C2397 1.366 . S
C2396 C2398 1.388 . S
C2397 C2396 1.366 . S
C2397 C2401 1.385 . S
C2398 H2379 0.951 . S
C2398 C2396 1.388 . S
C2398 C2399 1.366 . S
C2399 C2398 1.366 . S
C2399 C2400 1.414 . S
C2399 C2402 1.499 . S
C2400 H2380 0.950 . S
C2400 C2399 1.414 . S
C2400 C2401 1.374 . S
C2401 H2381 0.950 . S
C2401 C2397 1.385 . S
C2401 C2400 1.374 . S
C2402 C2399 1.499 . S
C2402 C2403 1.373 . S
C2402 C2404 1.389 . S
C2403 H2382 0.950 . S
C2403 C2402 1.373 . S
C2403 C2419 1.377 . S
C2404 C2402 1.389 . S
C2404 C2405 1.524 . S
C2404 C2418 1.377 . S
C2405 C2404 1.524 . S
C2405 C2406 1.397 . S
C2405 C2410 1.363 . S
C2406 H2383 0.950 . S
C2406 C2405 1.397 . S
C2406 C2407 1.334 . S
C2407 H2384 0.950 . S
C2407 C2406 1.334 . S
C2407 C2408 1.287 . S
C2408 C2407 1.287 . S
C2408 C2409 1.524 . S
C2408 H2427 0.913 . S
C2409 H2385 0.950 . S
C2409 C2408 1.524 . S
C2409 C2410 1.415 . S
C2410 H2386 0.950 . S
C2410 C2405 1.363 . S
C2410 C2409 1.415 . S
C2411 H2387 0.951 . S
C2411 C2412 1.366 . S
C2411 C2413 1.388 . S
C2412 C2411 1.366 . S
C2412 C2416 1.385 . S
C2413 H2388 0.951 . S
C2413 C2411 1.388 . S
C2413 C2414 1.366 . S
C2414 C2413 1.366 . S
C2414 C2415 1.414 . S
C2414 C2417 1.499 . S
C2415 H2389 0.950 . S
C2415 C2414 1.414 . S
C2415 C2416 1.374 . S
C2416 H2390 0.950 . S
C2416 C2412 1.385 . S
C2416 C2415 1.374 . S
C2417 C2414 1.499 . S
C2417 C2418 1.373 . S
C2417 C2419 1.389 . S
C2418 H2391 0.950 . S
C2418 C2404 1.377 . S
C2418 C2417 1.373 . S
C2419 C2403 1.377 . S
C2419 C2417 1.389 . S
C2419 C2420 1.524 . S
C2420 C2419 1.524 . S
C2420 C2421 1.397 . S
C2420 C2425 1.363 . S
C2421 H2392 0.950 . S
C2421 C2420 1.397 . S
C2421 C2422 1.334 . S
C2422 H2393 0.950 . S
C2422 C2421 1.334 . S
C2422 C2423 1.287 . S
C2423 C2422 1.287 . S
C2423 C2424 1.524 . S
C2423 H2426 0.999 . S
C2424 H2394 0.950 . S
C2424 C2423 1.524 . S
C2424 C2425 1.415 . S
C2425 H2395 0.950 . S
C2425 C2420 1.363 . S
C2425 C2424 1.415 . S
H2426 C2423 0.999 . S
H2427 C2408 0.913 . S
H2428 C2446 0.951 . S
H2429 C2448 0.951 . S
H2430 C2450 0.950 . S
H2431 C2451 0.950 . S
H2432 C2453 0.950 . S
H2433 C2456 0.950 . S
H2434 C2457 0.950 . S
H2435 C2459 0.950 . S
H2436 C2460 0.950 . S
H2437 C2461 0.951 . S
H2438 C2463 0.951 . S
H2439 C2465 0.950 . S
H2440 C2466 0.950 . S
H2441 C2468 0.950 . S
H2442 C2471 0.950 . S
H2443 C2472 0.950 . S
H2444 C2474 0.950 . S
H2445 C2475 0.950 . S
C2446 H2428 0.951 . S
C2446 C2447 1.366 . S
C2446 C2448 1.388 . S
C2447 C2446 1.366 . S
C2447 C2451 1.385 . S
C2448 H2429 0.951 . S
C2448 C2446 1.388 . S
C2448 C2449 1.366 . S
C2449 C2448 1.366 . S
C2449 C2450 1.414 . S
C2449 C2452 1.499 . S
C2450 H2430 0.950 . S
C2450 C2449 1.414 . S
C2450 C2451 1.374 . S
C2451 H2431 0.950 . S
C2451 C2447 1.385 . S
C2451 C2450 1.374 . S
C2452 C2449 1.499 . S
C2452 C2453 1.373 . S
C2452 C2454 1.389 . S
C2453 H2432 0.950 . S
C2453 C2452 1.373 . S
C2453 C2469 1.377 . S
C2454 C2452 1.389 . S
C2454 C2455 1.524 . S
C2454 C2468 1.377 . S
C2455 C2454 1.524 . S
C2455 C2456 1.397 . S
C2455 C2460 1.363 . S
C2456 H2433 0.950 . S
C2456 C2455 1.397 . S
C2456 C2457 1.334 . S
C2457 H2434 0.950 . S
C2457 C2456 1.334 . S
C2457 C2458 1.287 . S
C2458 C2457 1.287 . S
C2458 C2459 1.524 . S
C2458 H2477 0.913 . S
C2459 H2435 0.950 . S
C2459 C2458 1.524 . S
C2459 C2460 1.415 . S
C2460 H2436 0.950 . S
C2460 C2455 1.363 . S
C2460 C2459 1.415 . S
C2461 H2437 0.951 . S
C2461 C2462 1.366 . S
C2461 C2463 1.388 . S
C2462 C2461 1.366 . S
C2462 C2466 1.385 . S
C2463 H2438 0.951 . S
C2463 C2461 1.388 . S
C2463 C2464 1.366 . S
C2464 C2463 1.366 . S
C2464 C2465 1.414 . S
C2464 C2467 1.499 . S
C2465 H2439 0.950 . S
C2465 C2464 1.414 . S
C2465 C2466 1.374 . S
C2466 H2440 0.950 . S
C2466 C2462 1.385 . S
C2466 C2465 1.374 . S
C2467 C2464 1.499 . S
C2467 C2468 1.373 . S
C2467 C2469 1.389 . S
C2468 H2441 0.950 . S
C2468 C2454 1.377 . S
C2468 C2467 1.373 . S
C2469 C2453 1.377 . S
C2469 C2467 1.389 . S
C2469 C2470 1.524 . S
C2470 C2469 1.524 . S
C2470 C2471 1.397 . S
C2470 C2475 1.363 . S
C2471 H2442 0.950 . S
C2471 C2470 1.397 . S
C2471 C2472 1.334 . S
C2472 H2443 0.950 . S
C2472 C2471 1.334 . S
C2472 C2473 1.287 . S
C2473 C2472 1.287 . S
C2473 C2474 1.524 . S
C2473 H2476 0.999 . S
C2474 H2444 0.950 . S
C2474 C2473 1.524 . S
C2474 C2475 1.415 . S
C2475 H2445 0.950 . S
C2475 C2470 1.363 . S
C2475 C2474 1.415 . S
H2476 C2473 0.999 . S
H2477 C2458 0.913 . S
H2478 C2496 0.951 . S
H2479 C2498 0.951 . S
H2480 C2500 0.950 . S
H2481 C2501 0.950 . S
H2482 C2503 0.950 . S
H2483 C2506 0.950 . S
H2484 C2507 0.950 . S
H2485 C2509 0.950 . S
H2486 C2510 0.950 . S
H2487 C2511 0.951 . S
H2488 C2513 0.951 . S
H2489 C2515 0.950 . S
H2490 C2516 0.950 . S
H2491 C2518 0.950 . S
H2492 C2521 0.950 . S
H2493 C2522 0.950 . S
H2494 C2524 0.950 . S
H2495 C2525 0.950 . S
C2496 H2478 0.951 . S
C2496 C2497 1.366 . S
C2496 C2498 1.388 . S
C2497 C2496 1.366 . S
C2497 C2501 1.385 . S
C2498 H2479 0.951 . S
C2498 C2496 1.388 . S
C2498 C2499 1.366 . S
C2499 C2498 1.366 . S
C2499 C2500 1.414 . S
C2499 C2502 1.499 . S
C2500 H2480 0.950 . S
C2500 C2499 1.414 . S
C2500 C2501 1.374 . S
C2501 H2481 0.950 . S
C2501 C2497 1.385 . S
C2501 C2500 1.374 . S
C2502 C2499 1.499 . S
C2502 C2503 1.373 . S
C2502 C2504 1.389 . S
C2503 H2482 0.950 . S
C2503 C2502 1.373 . S
C2503 C2519 1.377 . S
C2504 C2502 1.389 . S
C2504 C2505 1.524 . S
C2504 C2518 1.377 . S
C2505 C2504 1.524 . S
C2505 C2506 1.397 . S
C2505 C2510 1.363 . S
C2506 H2483 0.950 . S
C2506 C2505 1.397 . S
C2506 C2507 1.334 . S
C2507 H2484 0.950 . S
C2507 C2506 1.334 . S
C2507 C2508 1.287 . S
C2508 C2507 1.287 . S
C2508 C2509 1.524 . S
C2508 H2527 0.913 . S
C2509 H2485 0.950 . S
C2509 C2508 1.524 . S
C2509 C2510 1.415 . S
C2510 H2486 0.950 . S
C2510 C2505 1.363 . S
C2510 C2509 1.415 . S
C2511 H2487 0.951 . S
C2511 C2512 1.366 . S
C2511 C2513 1.388 . S
C2512 C2511 1.366 . S
C2512 C2516 1.385 . S
C2513 H2488 0.951 . S
C2513 C2511 1.388 . S
C2513 C2514 1.366 . S
C2514 C2513 1.366 . S
C2514 C2515 1.414 . S
C2514 C2517 1.499 . S
C2515 H2489 0.950 . S
C2515 C2514 1.414 . S
C2515 C2516 1.374 . S
C2516 H2490 0.950 . S
C2516 C2512 1.385 . S
C2516 C2515 1.374 . S
C2517 C2514 1.499 . S
C2517 C2518 1.373 . S
C2517 C2519 1.389 . S
C2518 H2491 0.950 . S
C2518 C2504 1.377 . S
C2518 C2517 1.373 . S
C2519 C2503 1.377 . S
C2519 C2517 1.389 . S
C2519 C2520 1.524 . S
C2520 C2519 1.524 . S
C2520 C2521 1.397 . S
C2520 C2525 1.363 . S
C2521 H2492 0.950 . S
C2521 C2520 1.397 . S
C2521 C2522 1.334 . S
C2522 H2493 0.950 . S
C2522 C2521 1.334 . S
C2522 C2523 1.287 . S
C2523 C2522 1.287 . S
C2523 C2524 1.524 . S
C2523 H2526 0.999 1_565 S
C2524 H2494 0.950 . S
C2524 C2523 1.524 . S
C2524 C2525 1.415 . S
C2525 H2495 0.950 . S
C2525 C2520 1.363 . S
C2525 C2524 1.415 . S
H2526 C2523 0.999 1_545 S
H2527 C2508 0.913 . S
C547 C28 1.446 . S
C562 C160 1.446 . S
C597 C193 1.447 . S
C612 C61 1.446 . S
C647 C226 1.446 . S
C662 C94 1.446 . S
C697 C259 1.446 . S
C712 C127 1.447 . S
C747 C292 1.446 . S
C762 C424 1.447 . S
C797 C325 1.447 . S
C812 C457 1.446 . S
C847 C490 1.446 . S
C862 C358 1.447 . S
C897 C391 1.446 . S
C912 C523 1.447 . S
C947 N401 1.266 . S
C962 N14 1.252 . S
C997 N434 1.266 . S
C1012 N47 1.252 . S
C1047 N80 1.250 1_455 S
C1062 N467 1.265 . S
C1097 N500 1.265 . S
C1112 N113 1.250 1_545 S
C1147 N269 1.265 . S
C1162 N146 1.252 . S
C1197 N302 1.265 . S
C1212 N179 1.253 . S
C1247 N212 1.250 1_455 S
C1262 N335 1.266 . S
C1297 N245 1.251 1_545 S
C1312 N368 1.266 . S
C1347 N137 1.266 . S
C1362 N278 1.253 . S
C1397 N170 1.266 . S
C1412 N311 1.252 . S
C1447 N203 1.266 . S
C1462 N344 1.251 1_655 S
C1497 N377 1.250 1_565 S
C1512 N236 1.266 . S
C1547 N5 1.266 . S
C1562 N410 1.253 . S
C1597 N38 1.265 . S
C1612 N443 1.252 . S
C1647 N476 1.250 1_655 S
C1662 N71 1.265 . S
C1697 N104 1.265 . S
C1712 N509 1.251 1_565 S
C1747 C83 1.293 . S
C1762 C17 1.292 . S
C1797 C50 1.293 . S
C1812 C116 1.293 . S
C1847 C215 1.292 . S
C1862 C149 1.293 . S
C1897 C248 1.292 . S
C1912 C182 1.293 . S
C1947 C347 1.293 . S
C1962 C281 1.292 . S
C1997 C380 1.292 . S
C2012 C314 1.292 . S
C2047 C413 1.292 . S
C2062 C479 1.293 . S
C2097 C512 1.292 . S
C2112 C446 1.292 . S
C2147 C239 0.879 . S
C2162 C8 0.878 . S
C2197 C140 0.878 . S
C2212 C41 0.879 . S
C2247 C173 0.879 . S
C2262 C74 0.878 . S
C2297 C206 0.878 . S
C2312 C107 0.879 . S
C2347 C503 0.878 . S
C2362 C272 0.879 . S
C2397 C404 0.878 . S
C2412 C305 0.879 . S
C2447 C437 0.878 . S
C2462 C338 0.879 . S
C2497 C470 0.878 . S
C2512 C371 0.878 . S
