# Generated by pormake.
# Topology tfs, (6)-cn, num edge types: 1
# Building blocks:
#     Node 0, Type 0, BuildingBlock: MIFKUJ_clean_sbu_0, # of connection points: 6
#     Node 1, Type 0, BuildingBlock: MIFKUJ_clean_sbu_0, # of connection points: 6
#     Node 2, Type 0, BuildingBlock: MIFKUJ_clean_sbu_0, # of connection points: 6
#     Node 3, Type 0, BuildingBlock: MIFKUJ_clean_sbu_0, # of connection points: 6
#     Node 4, Type 0, BuildingBlock: MIFKUJ_clean_sbu_0, # of connection points: 6
#     Node 5, Type 0, BuildingBlock: MIFKUJ_clean_sbu_0, # of connection points: 6
#     Edge 6, Type (0, 0), BuildingBlock: UVAHIK_clean_linker_0, # of connection points: 2
#     Edge 7, Type (0, 0), BuildingBlock: UVAHIK_clean_linker_0, # of connection points: 2
#     Edge 8, Type (0, 0), BuildingBlock: UVAHIK_clean_linker_0, # of connection points: 2
#     Edge 9, Type (0, 0), BuildingBlock: UVAHIK_clean_linker_0, # of connection points: 2
#     Edge 10, Type (0, 0), BuildingBlock: UVAHIK_clean_linker_0, # of connection points: 2
#     Edge 11, Type (0, 0), BuildingBlock: UVAHIK_clean_linker_0, # of connection points: 2
#     Edge 12, Type (0, 0), BuildingBlock: UVAHIK_clean_linker_0, # of connection points: 2
#     Edge 13, Type (0, 0), BuildingBlock: UVAHIK_clean_linker_0, # of connection points: 2
#     Edge 14, Type (0, 0), BuildingBlock: UVAHIK_clean_linker_0, # of connection points: 2
#     Edge 15, Type (0, 0), BuildingBlock: UVAHIK_clean_linker_0, # of connection points: 2
#     Edge 16, Type (0, 0), BuildingBlock: UVAHIK_clean_linker_0, # of connection points: 2
#     Edge 17, Type (0, 0), BuildingBlock: UVAHIK_clean_linker_0, # of connection points: 2
#     Edge 18, Type (0, 0), BuildingBlock: UVAHIK_clean_linker_0, # of connection points: 2
#     Edge 19, Type (0, 0), BuildingBlock: UVAHIK_clean_linker_0, # of connection points: 2
#     Edge 20, Type (0, 0), BuildingBlock: UVAHIK_clean_linker_0, # of connection points: 2
#     Edge 21, Type (0, 0), BuildingBlock: UVAHIK_clean_linker_0, # of connection points: 2
#     Edge 22, Type (0, 0), BuildingBlock: UVAHIK_clean_linker_0, # of connection points: 2
#     Edge 23, Type (0, 0), BuildingBlock: UVAHIK_clean_linker_0, # of connection points: 2
# Relax obj value: 0.401
# Max RMSD: 0.242
# Mean RMSD: 0.242
data_MOF--net-tfs--node1-MIFKUJ_clean_sbu_0--edge1-UVAHIK_clean_linker_0
_symmetry_space_group_name_H-M    P1
_symmetry_Int_Tables_number       1
_symmetry_cell_setting            triclinic
loop_
_symmetry_equiv_pos_as_xyz
'x, y, z'
_cell_length_a     58.701984
_cell_length_b     58.775284
_cell_length_c     18.754691
_cell_angle_alpha  90.037217
_cell_angle_beta   90.04624
_cell_angle_gamma 119.98907
loop_
_atom_site_label
_atom_site_type_symbol
_atom_site_fract_x
_atom_site_fract_y
_atom_site_fract_z
_atom_type_partial_charge
Zn0 Zn 0.20733 0.44658 0.01105 0.0
Zn1 Zn 0.21415 0.39486 0.00457 0.0
C2 C 0.25947 0.48063 0.06244 0.0
O3 O 0.24622 0.47936 0.12019 0.0
C4 C 0.16055 0.35957 0.95382 0.0
O5 O 0.17225 0.35873 0.895 0.0
O6 O 0.19668 0.47437 0.01723 0.0
O7 O 0.19379 0.42671 0.91986 0.0
O8 O 0.22612 0.41806 0.91946 0.0
C9 C 0.19392 0.48511 0.96157 0.0
O10 O 0.19648 0.4768 0.89865 0.0
O11 O 0.24701 0.46718 0.00816 0.0
C12 C 0.23198 0.35877 0.04776 0.0
O13 O 0.22528 0.36262 0.11152 0.0
O14 O 0.22865 0.37018 -0.00551 0.0
O15 O 0.2254 0.41304 0.09816 0.0
O16 O 0.19523 0.42498 0.09995 0.0
O17 O 0.17442 0.37337 0.00601 0.0
C18 C 0.20874 0.42064 0.88623 0.0
C19 C 0.20905 0.41707 0.13214 0.0
Zn20 Zn 0.76484 0.21099 0.94256 0.0
Zn21 Zn 0.82415 0.20585 0.95823 0.0
C22 C 0.78503 0.26293 -0.00063 0.0
O23 O 0.7727 0.24953 0.05655 0.0
C24 C 0.8113 0.15186 0.95304 0.0
O25 O 0.8255 0.15999 0.89462 0.0
O26 O 0.72678 0.20148 0.94851 0.0
O27 O 0.77143 0.19868 0.84931 0.0
O28 O 0.81167 0.20402 0.85804 0.0
C29 C 0.71446 0.20511 0.8981 0.0
O30 O 0.72637 0.21421 0.83678 0.0
O31 O 0.78532 0.25058 0.94401 0.0
C32 C 0.87748 0.22339 0.00751 0.0
O33 O 0.86566 0.21236 0.0676 0.0
O34 O 0.86375 0.22286 0.95443 0.0
O35 O 0.81413 0.22438 0.03025 0.0
O36 O 0.77165 0.19657 0.03118 0.0
O37 O 0.80859 0.16832 -0.00928 0.0
C38 C 0.79156 0.19942 0.82148 0.0
C39 C 0.79342 0.20871 0.06398 0.0
Zn40 Zn 0.55532 0.75999 0.03441 0.0
Zn41 Zn 0.62086 0.81831 0.02892 0.0
C42 C 0.5235 0.78416 0.05396 0.0
O43 O 0.52429 0.77794 0.12084 0.0
C44 C 0.6561 0.80192 0.96454 0.0
O45 O 0.65557 0.8147 0.90772 0.0
O46 O 0.52682 0.72216 0.04384 0.0
O47 O 0.5789 0.76285 0.95461 0.0
O48 O 0.59419 0.80536 0.95021 0.0
C49 C 0.51373 0.70891 -0.01 0.0
O50 O 0.51985 0.71981 0.92656 0.0
O51 O 0.53639 0.77944 0.00763 0.0
C52 C 0.64271 0.87381 0.05783 0.0
O53 O 0.62419 0.86499 0.1066 0.0
O54 O 0.64483 0.85748 0.01783 0.0
O55 O 0.60762 0.81081 0.12925 0.0
O56 O 0.57186 0.77113 0.13024 0.0
O57 O 0.64306 0.80115 0.01947 0.0
C58 C 0.59025 0.7843 0.9204 0.0
C59 C 0.59013 0.79086 0.16237 0.0
Zn60 Zn 0.80292 0.55781 0.9791 0.0
Zn61 Zn 0.79649 0.60849 0.9743 0.0
C62 C 0.74976 0.52233 0.02336 0.0
O63 O 0.76179 0.52237 0.08251 0.0
C64 C 0.85045 0.64442 0.93103 0.0
O65 O 0.83918 0.64862 0.876 0.0
O66 O 0.81426 0.53076 -0.013 0.0
O67 O 0.81722 0.57804 0.88865 0.0
O68 O 0.78448 0.58603 0.88797 0.0
C69 C 0.81385 0.51733 0.93338 0.0
O70 O 0.80725 0.52225 0.87072 0.0
O71 O 0.76331 0.53686 0.97192 0.0
C72 C 0.78424 0.64863 0.01538 0.0
O73 O 0.79247 0.64576 0.07809 0.0
O74 O 0.78437 0.63489 0.96324 0.0
O75 O 0.78346 0.59021 0.06688 0.0
O76 O 0.81379 0.57857 0.06972 0.0
O77 O 0.83615 0.6282 0.97869 0.0
C78 C 0.80222 0.58404 0.85491 0.0
C79 C 0.79949 0.58592 0.10167 0.0
Zn80 Zn 0.24487 0.79375 0.94154 0.0
Zn81 Zn 0.18708 0.80335 0.95345 0.0
C82 C 0.22675 0.74255 0.0021 0.0
O83 O 0.24112 0.75672 0.05612 0.0
C84 C 0.2029 0.85781 0.94403 0.0
O85 O 0.19137 0.84982 0.88168 0.0
O86 O 0.28299 0.80353 0.94493 0.0
O87 O 0.23735 0.80429 0.8467 0.0
O88 O 0.19984 0.80501 0.85314 0.0
C89 C 0.29484 0.80023 0.89274 0.0
O90 O 0.2822 0.79101 0.83226 0.0
O91 O 0.2244 0.75418 0.94783 0.0
C92 C 0.13283 0.77641 0.0027 0.0
O93 O 0.14353 0.77614 0.064 0.0
O94 O 0.14759 0.78706 0.94901 0.0
O95 O 0.19645 0.7839 0.02484 0.0
O96 O 0.23915 0.81011 0.02823 0.0
O97 O 0.20306 0.84103 -0.0135 0.0
C98 C 0.21904 0.80662 0.8176 0.0
C99 C 0.21703 0.79948 0.05922 0.0
Zn100 Zn 0.45247 0.24742 -0.00489 0.0
Zn101 Zn 0.39941 0.18995 0.00071 0.0
C102 C 0.48651 0.22732 0.03441 0.0
O103 O 0.48689 0.2385 0.09543 0.0
C104 C 0.36385 0.20891 0.96066 0.0
O105 O 0.36135 0.19584 0.90157 0.0
O106 O 0.48098 0.28548 -0.00153 0.0
O107 O 0.43018 0.24136 0.90952 0.0
O108 O 0.41814 0.19934 0.90676 0.0
C109 C 0.49336 0.29779 0.94286 0.0
O110 O 0.48638 0.28586 0.88077 0.0
O111 O 0.47199 0.22743 0.98423 0.0
C112 C 0.36616 0.13639 0.05274 0.0
O113 O 0.37591 0.14696 0.11512 0.0
O114 O 0.37325 0.1509 -0.00244 0.0
O115 O 0.42124 0.19777 0.08911 0.0
O116 O 0.43339 0.23976 0.08719 0.0
O117 O 0.37881 0.20899 0.00985 0.0
C118 C 0.422 0.22008 0.87512 0.0
C119 C 0.4259 0.21862 0.12156 0.0
C120 C 0.33744 0.22809 0.91103 0.0
C121 C 0.34971 0.2237 0.96955 0.0
C122 C 0.32436 0.24233 0.91923 0.0
C123 C 0.31886 0.28909 0.04236 0.0
H124 H 0.25528 0.26952 0.93447 0.0
C125 C 0.25239 0.33363 0.09818 0.0
C126 C 0.24422 0.34219 0.0385 0.0
C127 C 0.26482 0.31879 0.08958 0.0
C128 C 0.27312 0.27532 0.96456 0.0
H129 H 0.35757 0.23055 0.08286 0.0
H130 H 0.33414 0.25467 0.09769 0.0
H131 H 0.27764 0.24422 0.92052 0.0
H132 H 0.2423 0.34144 0.92293 0.0
H133 H 0.26379 0.31527 0.90805 0.0
H134 H 0.31397 0.31989 0.08729 0.0
C135 C 0.33514 0.24772 0.04495 0.0
C136 C 0.28602 0.26089 0.95644 0.0
C137 C 0.34845 0.23372 0.03657 0.0
C138 C 0.24838 0.33519 0.97002 0.0
C139 C 0.26057 0.3201 0.96147 0.0
C140 C 0.30581 0.30332 0.051 0.0
C141 C 0.323 0.25233 0.98634 0.0
C142 C 0.30911 0.2676 -0.00485 0.0
C143 C 0.26912 0.31193 0.02114 0.0
C144 C 0.28282 0.29663 0.01213 0.0
H145 H 0.33822 0.22081 0.85854 0.0
H146 H 0.31567 0.24584 0.87259 0.0
H147 H 0.33684 0.29522 0.07203 0.0
H148 H 0.24949 0.33866 0.15168 0.0
H149 H 0.27095 0.31254 0.13658 0.0
C150 C 0.11583 0.33472 0.89783 0.0
C151 C 0.1315 0.34494 0.95913 0.0
C152 C 0.08838 0.32132 0.90285 0.0
C153 C 0.03405 0.31121 0.02511 0.0
H154 H 0.99201 0.25216 0.90024 0.0
C155 C 0.92215 0.24214 0.06327 0.0
C156 C 0.90651 0.2366 0.00182 0.0
C157 C 0.94958 0.25512 0.05801 0.0
C158 C 1.00351 0.26872 0.93514 0.0
H159 H 0.13065 0.34876 0.07397 0.0
H160 H 0.08292 0.32472 0.08312 0.0
H161 H 0.03986 0.27495 0.8917 0.0
H162 H 0.90742 0.24001 0.88653 0.0
H163 H 0.95531 0.26236 0.87743 0.0
H164 H 0.99756 0.30449 0.06944 0.0
C165 C 0.0917 0.32762 0.03077 0.0
C166 C 0.03096 0.28189 0.93011 0.0
C167 C 0.11913 0.34127 0.02562 0.0
C168 C 0.9189 0.24403 0.93492 0.0
C169 C 0.94631 0.2567 0.92962 0.0
C170 C 0.00663 0.29783 0.03067 0.0
C171 C 0.07591 0.31756 0.96943 0.0
C172 C 0.04663 0.30337 0.97493 0.0
C173 C 0.96195 0.26252 -0.00886 0.0
C174 C 0.99107 0.2765 0.98563 0.0
H175 H 0.12476 0.33739 0.84572 0.0
H176 H 0.07696 0.3143 0.85426 0.0
H177 H 0.04534 0.32795 0.05957 0.0
H178 H 0.91324 0.23671 0.11559 0.0
H179 H 0.96114 0.25916 0.10627 0.0
C180 C 0.7798 0.1145 0.03035 0.0
C181 C 0.79679 0.12355 0.97127 0.0
C182 C 0.76453 0.08761 0.04421 0.0
C183 C 0.75777 0.02285 0.00279 0.0
H184 H 0.68446 0.99647 0.04965 0.0
C185 C 0.68033 0.91212 -0.00344 0.0
C186 C 0.66108 0.9024 0.05032 0.0
C187 C 0.69765 0.93913 -0.01025 0.0
C188 C 0.70495 0.00351 0.03758 0.0
H189 H 0.81164 0.11143 0.88176 0.0
H190 H 0.7849 0.06454 0.90575 0.0
H191 H 0.71379 0.04349 0.03467 0.0
H192 H 0.64515 0.91347 0.13954 0.0
H193 H 0.6755 0.96046 0.12816 0.0
H194 H 0.74886 0.9828 0.00535 0.0
C195 C 0.78351 0.07824 0.94165 0.0
C196 C 0.72179 0.0305 0.02902 0.0
C197 C 0.79875 0.10514 0.92769 0.0
C198 C 0.65963 0.92029 0.09727 0.0
C199 C 0.67697 0.94727 0.09053 0.0
C200 C 0.74093 0.99583 0.01148 0.0
C201 C 0.76593 0.06914 -0.00056 0.0
C202 C 0.74837 0.04049 0.01122 0.0
C203 C 0.69615 0.95704 0.03659 0.0
C204 C 0.71427 0.98582 0.02867 0.0
H205 H 0.77791 0.12816 0.06523 0.0
H206 H 0.75148 0.08125 0.08981 0.0
H207 H 0.77822 0.02994 -0.01004 0.0
H208 H 0.68195 0.89889 0.9594 0.0
H209 H 0.71195 0.94599 0.947 0.0
C210 C 0.76931 0.67849 0.06555 0.0
C211 C 0.77405 0.66695 0.00603 0.0
C212 C 0.75871 0.69498 0.05703 0.0
C213 C 0.72103 0.71132 0.92835 0.0
H214 H 0.74113 0.7703 0.05602 0.0
C215 C 0.68128 0.78373 0.90157 0.0
C216 C 0.67168 0.78844 0.96523 0.0
C217 C 0.69551 0.77044 0.90274 0.0
C218 C 0.73529 0.75385 0.0201 0.0
H219 H 0.77203 0.66421 0.8906 0.0
H220 H 0.75417 0.69348 0.87557 0.0
H221 H 0.76332 0.7447 0.06446 0.0
H222 H 0.6698 0.78325 0.08005 0.0
H223 H 0.69481 0.76039 0.082 0.0
H224 H 0.69308 0.72071 0.8839 0.0
C225 C 0.75804 0.68932 0.92905 0.0
C226 C 0.74791 0.73909 0.02508 0.0
C227 C 0.76843 0.67265 0.93764 0.0
C228 C 0.67688 0.7799 0.03004 0.0
C229 C 0.69136 0.76696 0.03127 0.0
C230 C 0.7086 0.72627 0.92293 0.0
C231 C 0.75283 0.70053 -0.01131 0.0
C232 C 0.74065 0.71736 0.98006 0.0
C233 C 0.70072 0.76197 0.96767 0.0
C234 C 0.71532 0.74742 0.96951 0.0
H235 H 0.77329 0.67441 0.119 0.0
H236 H 0.75457 0.70286 0.10431 0.0
H237 H 0.71464 0.69454 0.89341 0.0
H238 H 0.67754 0.79002 0.85078 0.0
H239 H 0.7026 0.76695 0.85295 0.0
C240 C 0.08733 0.74953 0.05252 0.0
C241 C 0.10388 0.76391 -0.00429 0.0
C242 C 0.06 0.73722 0.04536 0.0
C243 C 0.00727 0.71332 0.90876 0.0
H244 H 0.96438 0.71168 0.068 0.0
C245 C 0.89555 0.67477 0.88277 0.0
C246 C 0.87948 0.65844 0.93783 0.0
C247 C 0.92296 0.68802 0.88943 0.0
C248 C 0.97608 0.71178 0.02324 0.0
H249 H 0.10465 0.77697 0.88711 0.0
H250 H 0.05704 0.75594 0.8751 0.0
H251 H 0.01211 0.73442 0.08049 0.0
H252 H 0.87962 0.64319 0.04311 0.0
H253 H 0.92737 0.66629 0.0546 0.0
H254 H 0.97117 0.69081 0.85144 0.0
C255 C 0.06514 0.75371 0.92477 0.0
C256 C 1.00345 0.72478 0.0304 0.0
C257 C 0.09247 0.76592 0.93181 0.0
C258 C 0.89141 0.65566 -0.00029 0.0
C259 C 0.91879 0.66902 0.00652 0.0
C260 C 0.97991 0.70044 0.9015 0.0
C261 C 0.04853 0.73909 0.98132 0.0
C262 C 0.0194 0.72564 0.97335 0.0
C263 C 0.93488 0.68534 0.95146 0.0
C264 C 0.96399 0.69943 0.95875 0.0
H265 H 0.09546 0.74749 0.10238 0.0
H266 H 0.04784 0.72583 0.08969 0.0
H267 H 0.01887 0.71319 0.86407 0.0
H268 H 0.887 0.67734 0.83441 0.0
H269 H 0.93482 0.70064 0.84635 0.0
C270 C 0.21901 0.90473 0.91162 0.0
C271 C 0.21696 0.88616 0.96219 0.0
C272 C 0.23345 0.93158 0.92666 0.0
C273 C 0.28645 0.9795 0.04435 0.0
H274 H 0.2645 0.02712 0.97011 0.0
C275 C 0.34269 0.09109 0.10529 0.0
C276 C 0.34753 0.10778 0.04657 0.0
C277 C 0.32561 0.06401 0.09903 0.0
C278 C 0.27095 0.01407 -0.00916 0.0
H279 H 0.22797 0.88127 0.0691 0.0
H280 H 0.25277 0.92819 0.09596 0.0
H281 H 0.23624 0.97989 0.95375 0.0
H282 H 0.33792 0.10908 0.93548 0.0
H283 H 0.30805 0.06185 0.92475 0.0
H284 H 0.32115 0.01379 0.08155 0.0
C285 C 0.24361 0.92199 0.04405 0.0
C286 C 0.25479 0.98699 0.98138 0.0
C287 C 0.22924 0.89507 0.02884 0.0
C288 C 0.33465 0.0968 0.98174 0.0
C289 C 0.3174 0.06975 0.97569 0.0
C290 C 0.30252 0.00658 0.05425 0.0
C291 C 0.2461 0.94061 -0.00713 0.0
C292 C 0.26248 0.96934 0.00718 0.0
C293 C 0.31281 0.05303 0.03413 0.0
C294 C 0.2951 0.02419 0.02684 0.0
H295 H 0.20989 0.89858 0.85964 0.0
H296 H 0.23524 0.94529 0.88548 0.0
H297 H 0.29323 0.96659 0.06404 0.0
H298 H 0.35227 0.0989 0.15603 0.0
H299 H 0.32229 0.05166 0.14518 0.0
C300 C 0.21886 0.7009 0.06076 0.0
C301 C 0.21626 0.71378 0.00081 0.0
C302 C 0.21163 0.67435 0.05716 0.0
C303 C 0.20563 0.62516 0.92713 0.0
H304 H 0.17171 0.57579 0.0817 0.0
C305 C 0.18529 0.5189 0.90641 0.0
C306 C 0.19055 0.5084 0.96739 0.0
C307 C 0.18445 0.54223 0.91053 0.0
C308 C 0.18139 0.58938 0.03827 0.0
H309 H 0.20293 0.70852 0.89094 0.0
H310 H 0.19034 0.66222 0.88477 0.0
H311 H 0.17726 0.61977 0.08937 0.0
H312 H 0.19831 0.51382 0.08104 0.0
H313 H 0.19747 0.55477 0.08798 0.0
H314 H 0.21061 0.59532 0.87688 0.0
C315 C 0.19822 0.67275 0.93434 0.0
C316 C 0.18449 0.61456 0.04264 0.0
C317 C 0.2053 0.69925 0.93804 0.0
C318 C 0.19413 0.52133 0.03305 0.0
C319 C 0.19351 0.54478 0.03708 0.0
C320 C 0.20269 0.6001 0.92296 0.0
C321 C 0.20177 0.66013 -0.00657 0.0
C322 C 0.19683 0.6328 -0.01268 0.0
C323 C 0.18909 0.55578 0.97563 0.0
C324 C 0.19072 0.58192 0.97869 0.0
H325 H 0.22718 0.71149 0.10999 0.0
H326 H 0.21478 0.66526 0.10347 0.0
H327 H 0.21562 0.63888 0.88414 0.0
H328 H 0.1822 0.50931 0.8551 0.0
H329 H 0.18045 0.54978 0.86239 0.0
C330 C 0.51883 0.21458 0.07856 0.0
C331 C 0.50539 0.21801 0.02138 0.0
C332 C 0.53887 0.20879 0.06607 0.0
C333 C 0.57013 0.18854 0.92468 0.0
H334 H 0.63137 0.22504 0.04673 0.0
C335 C 0.6736 0.20452 0.85525 0.0
C336 C 0.68792 0.20148 0.91092 0.0
C337 C 0.64949 0.20314 0.86883 0.0
C338 C 0.61431 0.21444 0.01269 0.0
H339 H 0.50179 0.21715 0.90619 0.0
H340 H 0.5372 0.20784 0.88424 0.0
H341 H 0.59257 0.22855 0.07057 0.0
H342 H 0.68769 0.19379 0.0242 0.0
H343 H 0.6458 0.19157 0.04774 0.0
H344 H 0.59256 0.17527 0.86539 0.0
C345 C 0.53199 0.20907 0.9389 0.0
C346 C 0.59195 0.21635 0.0265 0.0
C347 C 0.51171 0.21453 0.95147 0.0
C348 C 0.67724 0.19631 0.98006 0.0
C349 C 0.65329 0.19516 -0.00631 0.0
C350 C 0.59267 0.18686 0.91044 0.0
C351 C 0.54622 0.20666 -0.00398 0.0
C352 C 0.56954 0.20349 0.98264 0.0
C353 C 0.63933 0.19893 0.93846 0.0
C354 C 0.61501 0.19984 0.95427 0.0
H355 H 0.51423 0.21686 0.13309 0.0
H356 H 0.54888 0.20641 0.11149 0.0
H357 H 0.55317 0.17806 0.8903 0.0
H358 H 0.68124 0.20848 0.80137 0.0
H359 H 0.63926 0.20629 0.82527 0.0
C360 C 0.47616 0.66745 0.9402 0.0
C361 C 0.49048 0.68242 -0.00046 0.0
C362 C 0.45307 0.64333 0.94946 0.0
C363 C 0.39997 0.60857 0.07856 0.0
H364 H 0.38142 0.54749 0.9607 0.0
C365 C 0.30209 0.51276 0.11999 0.0
C366 C 0.28799 0.49974 0.05829 0.0
C367 C 0.3283 0.53284 0.11542 0.0
C368 C 0.3862 0.56444 -0.00633 0.0
H369 H 0.49219 0.68334 0.11519 0.0
H370 H 0.45191 0.64131 0.13117 0.0
H371 H 0.42455 0.58686 0.94727 0.0
H372 H 0.29066 0.49694 0.94361 0.0
H373 H 0.33616 0.53236 0.93535 0.0
H374 H 0.36154 0.58671 0.12354 0.0
C375 C 0.45844 0.64835 0.07752 0.0
C376 C 0.41093 0.58696 0.98604 0.0
C377 C 0.4816 0.67237 0.06829 0.0
C378 C 0.30099 0.50655 -0.0078 0.0
C379 C 0.32716 0.52682 -0.01247 0.0
C380 C 0.37523 0.58618 0.08586 0.0
C381 C 0.44372 0.63374 0.01824 0.0
C382 C 0.41802 0.60931 0.02819 0.0
C383 C 0.34099 0.54058 0.04894 0.0
C384 C 0.36794 0.56384 0.0433 0.0
H385 H 0.48248 0.6746 0.88652 0.0
H386 H 0.44205 0.63263 0.90274 0.0
H387 H 0.40465 0.62562 0.11098 0.0
H388 H 0.29273 0.50779 0.17183 0.0
H389 H 0.33849 0.54257 0.16403 0.0
C390 C 0.82059 0.48661 0.01158 0.0
C391 C 0.81812 0.49471 0.94287 0.0
C392 C 0.82198 0.46376 0.02106 0.0
C393 C 0.83455 0.41546 0.92904 0.0
H394 H 0.78622 0.3669 0.06918 0.0
C395 C 0.80195 0.30501 0.9314 0.0
C396 C 0.79563 0.29166 -0.00308 0.0
C397 C 0.8089 0.33148 0.92827 0.0
C398 C 0.80026 0.38036 0.03081 0.0
H399 H 0.81638 0.48578 0.83007 0.0
H400 H 0.81887 0.4459 0.84674 0.0
H401 H 0.79115 0.4103 0.05749 0.0
H402 H 0.79323 0.296 0.11103 0.0
H403 H 0.80608 0.34231 0.10591 0.0
H404 H 0.84354 0.38542 0.90201 0.0
C405 C 0.81977 0.45727 0.89321 0.0
C406 C 0.80302 0.40526 0.02401 0.0
C407 C 0.81819 0.48005 0.88372 0.0
C408 C 0.7977 0.30566 0.05961 0.0
C409 C 0.8049 0.33218 0.05658 0.0
C410 C 0.83196 0.39057 0.93622 0.0
C411 C 0.82113 0.4486 0.96207 0.0
C412 C 0.81992 0.42297 0.97247 0.0
C413 C 0.80993 0.34527 -0.0093 0.0
C414 C 0.8145 0.37256 -0.01342 0.0
H415 H 0.82069 0.4975 0.05832 0.0
H416 H 0.82334 0.45772 0.07472 0.0
H417 H 0.84795 0.42882 0.88936 0.0
H418 H 0.80048 0.29477 0.88206 0.0
H419 H 0.81234 0.34076 0.87649 0.0
C420 C 0.33379 0.81079 0.96977 0.0
C421 C 0.32186 0.80475 0.90211 0.0
C422 C 0.35845 0.81312 0.98004 0.0
C423 C 0.40229 0.79184 0.90076 0.0
H424 H 0.45206 0.83997 0.03968 0.0
C425 C 0.50007 0.79462 0.9589 0.0
C426 C 0.50519 0.79328 0.03159 0.0
C427 C 0.48047 0.80013 0.93799 0.0
C428 C 0.43833 0.82641 0.00079 0.0
H429 H 0.32698 0.79745 0.79154 0.0
H430 H 0.37026 0.80203 0.80916 0.0
H431 H 0.41266 0.84226 0.01121 0.0
H432 H 0.49465 0.79802 0.13917 0.0
H433 H 0.46053 0.80771 0.10265 0.0
H434 H 0.42783 0.77582 0.89095 0.0
C435 C 0.36029 0.80441 0.85467 0.0
C436 C 0.41572 0.82765 0.98458 0.0
C437 C 0.33554 0.80193 0.84446 0.0
C438 C 0.49115 0.79882 0.08276 0.0
C439 C 0.47168 0.80451 0.06182 0.0
C440 C 0.42497 0.79072 0.91663 0.0
C441 C 0.37189 0.80964 0.92283 0.0
C442 C 0.39717 0.81006 0.93527 0.0
C443 C 0.46572 0.80465 -0.01073 0.0
C444 C 0.44303 0.80769 0.96768 0.0
H445 H 0.32379 0.81303 0.01543 0.0
H446 H 0.36653 0.81678 0.03347 0.0
H447 H 0.3883 0.7777 0.8634 0.0
H448 H 0.51058 0.79054 0.91806 0.0
H449 H 0.47654 0.80042 0.88166 0.0
C450 C 0.70942 0.49936 0.94671 0.0
C451 C 0.72128 0.50363 0.01428 0.0
C452 C 0.68317 0.47983 0.9369 0.0
C453 C 0.62077 0.43725 0.03134 0.0
H454 H 0.60742 0.38918 0.87441 0.0
C455 C 0.52754 0.33485 0.0162 0.0
C456 C 0.51689 0.32429 0.94896 0.0
C457 C 0.55102 0.35882 0.0219 0.0
C458 C 0.61058 0.40265 0.91771 0.0
H459 H 0.71453 0.49151 0.12511 0.0
H460 H 0.66872 0.45756 0.10798 0.0
H461 H 0.65085 0.42768 0.8884 0.0
H462 H 0.52199 0.33122 0.83502 0.0
H463 H 0.56258 0.37333 0.84495 0.0
H464 H 0.58054 0.41218 0.06092 0.0
C465 C 0.67971 0.46931 0.06261 0.0
C466 C 0.63555 0.42472 0.92578 0.0
C467 C 0.70602 0.48868 0.07233 0.0
C468 C 0.52977 0.3387 0.88762 0.0
C469 C 0.55315 0.36278 0.89333 0.0
C470 C 0.59571 0.41527 0.02297 0.0
C471 C 0.66815 0.46434 -0.00545 0.0
C472 C 0.64103 0.44208 0.9832 0.0
C473 C 0.56434 0.37295 0.96052 0.0
C474 C 0.59038 0.39746 0.9666 0.0
H475 H 0.7206 0.51057 0.90088 0.0
H476 H 0.6747 0.47664 0.88397 0.0
H477 H 0.62432 0.45046 0.07563 0.0
H478 H 0.51818 0.32422 0.06457 0.0
H479 H 0.55916 0.36579 0.0745 0.0
C480 C 0.21873 0.40394 0.77596 0.0
C481 C 0.20507 0.41489 0.80963 0.0
C482 C 0.21594 0.39897 0.70317 0.0
C483 C 0.1755 0.3922 0.54642 0.0
H484 H 0.24199 0.42023 0.44645 0.0
C485 C 0.18823 0.41708 0.24784 0.0
C486 C 0.20583 0.4122 0.20922 0.0
C487 C 0.18558 0.41292 0.32116 0.0
C488 C 0.22323 0.41183 0.47358 0.0
H489 H 0.17703 0.4283 0.79445 0.0
H490 H 0.17265 0.42015 0.66611 0.0
H491 H 0.24161 0.42079 0.57576 0.0
H492 H 0.2339 0.39845 0.2165 0.0
H493 H 0.22892 0.39082 0.34432 0.0
H494 H 0.15723 0.38381 0.44355 0.0
C495 C 0.18522 0.41513 0.6965 0.0
C496 C 0.22301 0.41218 0.54757 0.0
C497 C 0.18791 0.42001 0.76964 0.0
C498 C 0.22025 0.40249 0.24485 0.0
C499 C 0.21748 0.39819 0.31801 0.0
C500 C 0.1757 0.3918 0.47211 0.0
C501 C 0.19958 0.40499 0.66264 0.0
C502 C 0.1992 0.40266 0.58456 0.0
C503 C 0.20042 0.40374 0.35691 0.0
C504 C 0.19963 0.40192 0.43519 0.0
H505 H 0.23175 0.39934 0.80567 0.0
H506 H 0.2269 0.39075 0.67833 0.0
H507 H 0.15688 0.38453 0.57401 0.0
H508 H 0.17679 0.42451 0.22176 0.0
H509 H 0.17256 0.4177 0.35012 0.0
C510 C 0.76917 0.18665 0.70258 0.0
C511 C 0.79202 0.1954 0.744 0.0
C512 C 0.77017 0.18433 0.62874 0.0
C513 C 0.81499 0.21397 0.4821 0.0
H514 H 0.76407 0.15412 0.37212 0.0
C515 C 0.81876 0.21473 0.17637 0.0
C516 C 0.79452 0.20419 0.14082 0.0
C517 C 0.81963 0.21072 0.24938 0.0
C518 C 0.7783 0.17107 0.40206 0.0
H519 H 0.83364 0.20779 0.74072 0.0
H520 H 0.83533 0.20414 0.61172 0.0
H521 H 0.76274 0.1521 0.50227 0.0
H522 H 0.75216 0.18119 0.15371 0.0
H523 H 0.7536 0.17519 0.28126 0.0
H524 H 0.82982 0.23358 0.38297 0.0
C525 C 0.81673 0.19906 0.63659 0.0
C526 C 0.77758 0.16982 0.47638 0.0
C527 C 0.81569 0.20109 0.71036 0.0
C528 C 0.77117 0.18946 0.17954 0.0
C529 C 0.77201 0.18579 0.25265 0.0
C530 C 0.81549 0.21539 0.40796 0.0
C531 C 0.79407 0.191 0.59519 0.0
C532 C 0.79577 0.19136 0.51684 0.0
C533 C 0.79624 0.1965 0.28854 0.0
C534 C 0.79697 0.19407 0.36705 0.0
H535 H 0.75061 0.18198 0.72697 0.0
H536 H 0.75249 0.17825 0.59762 0.0
H537 H 0.82903 0.23095 0.51237 0.0
H538 H 0.83708 0.22622 0.14798 0.0
H539 H 0.83864 0.21891 0.27514 0.0
C540 C 0.58597 0.76021 0.80707 0.0
C541 C 0.59528 0.7841 0.84367 0.0
C542 C 0.58855 0.76002 0.73328 0.0
C543 C 0.62294 0.80006 0.57758 0.0
H544 H 0.55637 0.75703 0.48107 0.0
C545 C 0.60783 0.81268 0.27995 0.0
C546 C 0.59179 0.78984 0.24046 0.0
C547 C 0.60988 0.81133 0.35375 0.0
C548 C 0.57523 0.7688 0.50698 0.0
H549 H 0.61602 0.82655 0.83262 0.0
H550 H 0.62054 0.82613 0.70351 0.0
H551 H 0.55862 0.75507 0.61013 0.0
H552 H 0.56572 0.74763 0.24681 0.0
H553 H 0.56981 0.74521 0.37488 0.0
H554 H 0.63959 0.81377 0.47431 0.0
C555 C 0.61123 0.80762 0.732 0.0
C556 C 0.57648 0.76766 0.58085 0.0
C557 C 0.60843 0.80783 0.80569 0.0
C558 C 0.57797 0.76565 0.27591 0.0
C559 C 0.58027 0.76425 0.34938 0.0
C560 C 0.62177 0.80099 0.50342 0.0
C561 C 0.60071 0.7837 0.69514 0.0
C562 C 0.60026 0.78345 0.61673 0.0
C563 C 0.59613 0.78707 0.38915 0.0
C564 C 0.59781 0.78555 0.46747 0.0
H565 H 0.57593 0.74161 0.83499 0.0
H566 H 0.5805 0.74135 0.70578 0.0
H567 H 0.64152 0.81232 0.60437 0.0
H568 H 0.61866 0.83161 0.25398 0.0
H569 H 0.62193 0.82932 0.3831 0.0
C570 C 0.82261 0.58455 0.73776 0.0
C571 C 0.80612 0.59032 0.77867 0.0
C572 C 0.82517 0.58961 0.6647 0.0
C573 C 0.78741 0.59415 0.51777 0.0
H574 H 0.85219 0.61944 0.41107 0.0
C575 C 0.78885 0.60147 0.21373 0.0
C576 C 0.80253 0.5908 0.17881 0.0
C577 C 0.7919 0.60618 0.28681 0.0
C578 C 0.83399 0.61233 0.44036 0.0
H579 H 0.78071 0.60735 0.77667 0.0
H580 H 0.78534 0.61625 0.6495 0.0
H581 H 0.8534 0.61942 0.54145 0.0
H582 H 0.83036 0.57699 0.19254 0.0
H583 H 0.83507 0.58456 0.32051 0.0
H584 H 0.76781 0.58621 0.41739 0.0
C585 C 0.79583 0.60737 0.67347 0.0
C586 C 0.83469 0.61233 0.51465 0.0
C587 C 0.79316 0.60221 0.74615 0.0
C588 C 0.81953 0.58521 0.21805 0.0
C589 C 0.82247 0.58981 0.29116 0.0
C590 C 0.7867 0.59409 0.44375 0.0
C591 C 0.81137 0.60059 0.63189 0.0
C592 C 0.81134 0.60289 0.55381 0.0
C593 C 0.80852 0.60014 0.32622 0.0
C594 C 0.8099 0.6028 0.40439 0.0
H595 H 0.83294 0.57551 0.76172 0.0
H596 H 0.83711 0.58399 0.63353 0.0
H597 H 0.76906 0.58635 0.54673 0.0
H598 H 0.77574 0.60614 0.18479 0.0
H599 H 0.78111 0.6144 0.31259 0.0
C600 C 0.1946 0.78707 0.17743 0.0
C601 C 0.2155 0.80514 0.13497 0.0
C602 C 0.19449 0.79135 0.25063 0.0
C603 C 0.1935 0.80862 0.40186 0.0
H604 H 0.26088 0.83568 0.49673 0.0
C605 C 0.20313 0.81866 0.70786 0.0
C606 C 0.2198 0.81086 0.73983 0.0
C607 C 0.20319 0.82171 0.63403 0.0
C608 C 0.24188 0.82797 0.47113 0.0
H609 H 0.25181 0.8426 0.13438 0.0
H610 H 0.25124 0.85051 0.26168 0.0
H611 H 0.25881 0.83361 0.36753 0.0
H612 H 0.24978 0.80037 0.71948 0.0
H613 H 0.24936 0.80493 0.59088 0.0
H614 H 0.17642 0.8015 0.50582 0.0
C615 C 0.23536 0.83261 0.23916 0.0
C616 C 0.24072 0.82717 0.39687 0.0
C617 C 0.23565 0.82814 0.16621 0.0
C618 C 0.23679 0.80654 0.69657 0.0
C619 C 0.23667 0.80934 0.62278 0.0
C620 C 0.19463 0.80917 0.47625 0.0
C621 C 0.21512 0.81396 0.28258 0.0
C622 C 0.21647 0.8171 0.3613 0.0
C623 C 0.21976 0.81681 0.59055 0.0
C624 C 0.21879 0.81843 0.51174 0.0
H625 H 0.17889 0.76909 0.15469 0.0
H626 H 0.17877 0.77637 0.28247 0.0
H627 H 0.17455 0.80113 0.37619 0.0
H628 H 0.18996 0.82238 0.73982 0.0
H629 H 0.19022 0.82789 0.61105 0.0
C630 C 0.41788 0.24115 0.76438 0.0
C631 C 0.41668 0.2193 0.79839 0.0
C632 C 0.41369 0.24069 0.69121 0.0
C633 C 0.38869 0.1969 0.53416 0.0
H634 H 0.44229 0.25804 0.43421 0.0
C635 C 0.41542 0.19601 0.23962 0.0
C636 C 0.42099 0.21812 0.19844 0.0
C637 C 0.41081 0.19584 0.31257 0.0
C638 C 0.42691 0.24102 0.46133 0.0
H639 H 0.40923 0.17952 0.7833 0.0
H640 H 0.40262 0.17902 0.65522 0.0
H641 H 0.44076 0.25842 0.56353 0.0
H642 H 0.42533 0.25707 0.20056 0.0
H643 H 0.41724 0.25668 0.32767 0.0
H644 H 0.37546 0.17925 0.43139 0.0
C645 C 0.40635 0.1963 0.68522 0.0
C646 C 0.42599 0.24125 0.53534 0.0
C647 C 0.41041 0.1967 0.75842 0.0
C648 C 0.42142 0.23985 0.23109 0.0
C649 C 0.41676 0.23965 0.30378 0.0
C650 C 0.38966 0.19665 0.45993 0.0
C651 C 0.40836 0.21844 0.65084 0.0
C652 C 0.40717 0.21905 0.57246 0.0
C653 C 0.4117 0.21778 0.34524 0.0
C654 C 0.40905 0.21857 0.42309 0.0
H655 H 0.4223 0.2587 0.79408 0.0
H656 H 0.415 0.25789 0.66601 0.0
H657 H 0.37379 0.17965 0.56163 0.0
H658 H 0.41502 0.17902 0.21583 0.0
H659 H 0.40729 0.17887 0.3437 0.0
loop_
_geom_bond_atom_site_label_1
_geom_bond_atom_site_label_2
_geom_bond_distance
_geom_bond_site_symmetry_2
_ccdc_geom_bond_type
Zn0 O6 1.969 . S
Zn0 O7 1.965 1_554 S
Zn0 O11 2.024 1_554 S
Zn0 O16 1.969 . S
Zn1 O8 1.969 . S
Zn1 O14 1.969 . S
Zn1 O15 1.965 1_556 S
Zn1 O17 2.024 1_556 S
C2 O3 1.229 . S
C2 O11 1.058 1_554 S
O3 C2 1.229 . S
C4 O5 1.229 . S
C4 O17 1.058 1_556 S
O5 C4 1.229 . S
O6 Zn0 1.969 . S
O6 C9 1.267 1_554 S
O7 Zn0 1.965 1_556 S
O7 C18 1.260 . S
O8 Zn1 1.969 . S
O8 C18 1.258 . S
C9 O6 1.267 1_556 S
C9 O10 1.228 . S
O10 C9 1.228 . S
O11 Zn0 2.024 1_556 S
O11 C2 1.058 1_556 S
C12 O13 1.228 . S
C12 O14 1.267 1_554 S
O13 C12 1.228 . S
O14 Zn1 1.969 . S
O14 C12 1.267 1_556 S
O15 Zn1 1.965 1_554 S
O15 C19 1.260 . S
O16 Zn0 1.969 . S
O16 C19 1.258 . S
O17 Zn1 2.024 1_554 S
O17 C4 1.058 1_554 S
C18 O7 1.260 . S
C18 O8 1.258 . S
C19 O15 1.260 . S
C19 O16 1.258 . S
Zn20 O26 1.969 . S
Zn20 O27 1.965 1_554 S
Zn20 O31 2.024 1_554 S
Zn20 O36 1.969 . S
Zn21 O28 1.969 . S
Zn21 O34 1.969 . S
Zn21 O35 1.965 1_556 S
Zn21 O37 2.024 1_556 S
C22 O23 1.229 . S
C22 O31 1.058 1_554 S
O23 C22 1.229 . S
C24 O25 1.229 . S
C24 O37 1.058 1_556 S
O25 C24 1.229 . S
O26 Zn20 1.969 . S
O26 C29 1.267 1_554 S
O27 Zn20 1.965 1_556 S
O27 C38 1.260 . S
O28 Zn21 1.969 . S
O28 C38 1.258 . S
C29 O26 1.267 1_556 S
C29 O30 1.228 . S
O30 C29 1.228 . S
O31 Zn20 2.024 1_556 S
O31 C22 1.058 1_556 S
C32 O33 1.228 . S
C32 O34 1.267 1_554 S
O33 C32 1.228 . S
O34 Zn21 1.969 . S
O34 C32 1.267 1_556 S
O35 Zn21 1.965 1_554 S
O35 C39 1.260 . S
O36 Zn20 1.969 . S
O36 C39 1.258 . S
O37 Zn21 2.024 1_554 S
O37 C24 1.058 1_554 S
C38 O27 1.260 . S
C38 O28 1.258 . S
C39 O35 1.260 . S
C39 O36 1.258 . S
Zn40 O46 1.969 . S
Zn40 O47 1.965 1_554 S
Zn40 O51 2.024 1_554 S
Zn40 O56 1.969 . S
Zn41 O48 1.969 . S
Zn41 O54 1.969 . S
Zn41 O55 1.965 1_556 S
Zn41 O57 2.024 1_556 S
C42 O43 1.229 . S
C42 O51 1.058 1_554 S
O43 C42 1.229 . S
C44 O45 1.229 . S
C44 O57 1.058 1_556 S
O45 C44 1.229 . S
O46 Zn40 1.969 . S
O46 C49 1.267 1_554 S
O47 Zn40 1.965 1_556 S
O47 C58 1.260 . S
O48 Zn41 1.969 . S
O48 C58 1.258 . S
C49 O46 1.267 1_556 S
C49 O50 1.228 . S
O50 C49 1.228 . S
O51 Zn40 2.024 1_556 S
O51 C42 1.058 1_556 S
C52 O53 1.228 . S
C52 O54 1.267 1_554 S
O53 C52 1.228 . S
O54 Zn41 1.969 . S
O54 C52 1.267 1_556 S
O55 Zn41 1.965 1_554 S
O55 C59 1.260 . S
O56 Zn40 1.969 . S
O56 C59 1.258 . S
O57 Zn41 2.024 1_554 S
O57 C44 1.058 1_554 S
C58 O47 1.260 . S
C58 O48 1.258 . S
C59 O55 1.260 . S
C59 O56 1.258 . S
Zn60 O66 1.969 . S
Zn60 O67 1.965 1_554 S
Zn60 O71 2.024 1_554 S
Zn60 O76 1.969 . S
Zn61 O68 1.969 . S
Zn61 O74 1.969 . S
Zn61 O75 1.965 1_556 S
Zn61 O77 2.024 1_556 S
C62 O63 1.229 . S
C62 O71 1.058 1_554 S
O63 C62 1.229 . S
C64 O65 1.229 . S
C64 O77 1.058 1_556 S
O65 C64 1.229 . S
O66 Zn60 1.969 . S
O66 C69 1.267 1_554 S
O67 Zn60 1.965 1_556 S
O67 C78 1.260 . S
O68 Zn61 1.969 . S
O68 C78 1.258 . S
C69 O66 1.267 1_556 S
C69 O70 1.228 . S
O70 C69 1.228 . S
O71 Zn60 2.024 1_556 S
O71 C62 1.058 1_556 S
C72 O73 1.228 . S
C72 O74 1.267 1_554 S
O73 C72 1.228 . S
O74 Zn61 1.969 . S
O74 C72 1.267 1_556 S
O75 Zn61 1.965 1_554 S
O75 C79 1.260 . S
O76 Zn60 1.969 . S
O76 C79 1.258 . S
O77 Zn61 2.024 1_554 S
O77 C64 1.058 1_554 S
C78 O67 1.260 . S
C78 O68 1.258 . S
C79 O75 1.260 . S
C79 O76 1.258 . S
Zn80 O86 1.969 . S
Zn80 O87 1.965 1_554 S
Zn80 O91 2.024 1_554 S
Zn80 O96 1.969 . S
Zn81 O88 1.969 . S
Zn81 O94 1.969 . S
Zn81 O95 1.965 1_556 S
Zn81 O97 2.024 1_556 S
C82 O83 1.229 . S
C82 O91 1.058 1_554 S
O83 C82 1.229 . S
C84 O85 1.229 . S
C84 O97 1.058 1_556 S
O85 C84 1.229 . S
O86 Zn80 1.969 . S
O86 C89 1.267 1_554 S
O87 Zn80 1.965 1_556 S
O87 C98 1.260 . S
O88 Zn81 1.969 . S
O88 C98 1.258 . S
C89 O86 1.267 1_556 S
C89 O90 1.228 . S
O90 C89 1.228 . S
O91 Zn80 2.024 1_556 S
O91 C82 1.058 1_556 S
C92 O93 1.228 . S
C92 O94 1.267 1_554 S
O93 C92 1.228 . S
O94 Zn81 1.969 . S
O94 C92 1.267 1_556 S
O95 Zn81 1.965 1_554 S
O95 C99 1.260 . S
O96 Zn80 1.969 . S
O96 C99 1.258 . S
O97 Zn81 2.024 1_554 S
O97 C84 1.058 1_554 S
C98 O87 1.260 . S
C98 O88 1.258 . S
C99 O95 1.260 . S
C99 O96 1.258 . S
Zn100 O106 1.969 . S
Zn100 O107 1.965 1_554 S
Zn100 O111 2.024 1_554 S
Zn100 O116 1.969 . S
Zn101 O108 1.969 . S
Zn101 O114 1.969 . S
Zn101 O115 1.965 1_556 S
Zn101 O117 2.024 1_556 S
C102 O103 1.229 . S
C102 O111 1.058 1_554 S
O103 C102 1.229 . S
C104 O105 1.229 . S
C104 O117 1.058 1_556 S
O105 C104 1.229 . S
O106 Zn100 1.969 . S
O106 C109 1.267 1_554 S
O107 Zn100 1.965 1_556 S
O107 C118 1.260 . S
O108 Zn101 1.969 . S
O108 C118 1.258 . S
C109 O106 1.267 1_556 S
C109 O110 1.228 . S
O110 C109 1.228 . S
O111 Zn100 2.024 1_556 S
O111 C102 1.058 1_556 S
C112 O113 1.228 . S
C112 O114 1.267 1_554 S
O113 C112 1.228 . S
O114 Zn101 1.969 . S
O114 C112 1.267 1_556 S
O115 Zn101 1.965 1_554 S
O115 C119 1.260 . S
O116 Zn100 1.969 . S
O116 C119 1.258 . S
O117 Zn101 2.024 1_554 S
O117 C104 1.058 1_554 S
C118 O107 1.260 . S
C118 O108 1.258 . S
C119 O115 1.260 . S
C119 O116 1.258 . S
C120 C121 1.349 . S
C120 C122 1.327 . S
C120 H145 0.950 . S
C121 C120 1.349 . S
C121 C137 1.349 1_556 S
C122 C120 1.327 . S
C122 C141 1.429 1_556 S
C122 H146 0.950 . S
C123 C140 1.574 . S
C123 C142 1.368 . S
C123 H147 0.949 . S
H124 C128 0.949 . S
C125 C126 1.349 . S
C125 C127 1.327 . S
C125 H148 0.950 . S
C126 C125 1.349 . S
C126 C138 1.349 1_554 S
C127 C125 1.327 . S
C127 C143 1.429 . S
C127 H149 0.950 . S
C128 H124 0.949 . S
C128 C136 1.574 . S
C128 C144 1.368 1_556 S
H129 C137 0.950 . S
H130 C135 0.950 . S
H131 C136 0.949 . S
H132 C138 0.950 . S
H133 C139 0.950 . S
H134 C140 0.949 . S
C135 H130 0.950 . S
C135 C137 1.327 . S
C135 C141 1.429 . S
C136 C128 1.574 . S
C136 H131 0.949 . S
C136 C142 1.368 1_556 S
C137 C121 1.349 1_554 S
C137 H129 0.950 . S
C137 C135 1.327 . S
C138 C126 1.349 1_556 S
C138 H132 0.950 . S
C138 C139 1.327 . S
C139 H133 0.950 . S
C139 C138 1.327 . S
C139 C143 1.429 1_556 S
C140 C123 1.574 . S
C140 H134 0.949 . S
C140 C144 1.368 . S
C141 C122 1.429 1_554 S
C141 C135 1.429 . S
C141 C142 1.523 . S
C142 C123 1.368 . S
C142 C136 1.368 1_554 S
C142 C141 1.523 . S
C143 C127 1.429 . S
C143 C139 1.429 1_554 S
C143 C144 1.523 . S
C144 C128 1.368 1_554 S
C144 C140 1.368 . S
C144 C143 1.523 . S
H145 C120 0.950 . S
H146 C122 0.950 . S
H147 C123 0.949 . S
H148 C125 0.950 . S
H149 C127 0.950 . S
C150 C151 1.349 . S
C150 C152 1.327 . S
C150 H175 0.950 . S
C151 C150 1.349 . S
C151 C167 1.349 1_556 S
C152 C150 1.327 . S
C152 C171 1.429 1_556 S
C152 H176 0.950 . S
C153 C170 1.574 1_455 S
C153 C172 1.368 . S
C153 H177 0.949 . S
H154 C158 0.949 . S
C155 C156 1.349 . S
C155 C157 1.327 . S
C155 H178 0.950 . S
C156 C155 1.349 . S
C156 C168 1.349 1_554 S
C157 C155 1.327 . S
C157 C173 1.429 . S
C157 H179 0.950 . S
C158 H154 0.949 . S
C158 C166 1.574 1_655 S
C158 C174 1.368 1_556 S
H159 C167 0.950 . S
H160 C165 0.950 . S
H161 C166 0.949 . S
H162 C168 0.950 . S
H163 C169 0.950 . S
H164 C170 0.949 . S
C165 H160 0.950 . S
C165 C167 1.327 . S
C165 C171 1.429 . S
C166 C158 1.574 1_455 S
C166 H161 0.949 . S
C166 C172 1.368 1_556 S
C167 C151 1.349 1_554 S
C167 H159 0.950 . S
C167 C165 1.327 . S
C168 C156 1.349 1_556 S
C168 H162 0.950 . S
C168 C169 1.327 . S
C169 H163 0.950 . S
C169 C168 1.327 . S
C169 C173 1.429 1_556 S
C170 C153 1.574 1_655 S
C170 H164 0.949 . S
C170 C174 1.368 . S
C171 C152 1.429 1_554 S
C171 C165 1.429 . S
C171 C172 1.523 . S
C172 C153 1.368 . S
C172 C166 1.368 1_554 S
C172 C171 1.523 . S
C173 C157 1.429 . S
C173 C169 1.429 1_554 S
C173 C174 1.523 . S
C174 C158 1.368 1_554 S
C174 C170 1.368 . S
C174 C173 1.523 . S
H175 C150 0.950 . S
H176 C152 0.950 . S
H177 C153 0.949 . S
H178 C155 0.950 . S
H179 C157 0.950 . S
C180 C181 1.349 1_554 S
C180 C182 1.327 . S
C180 H205 0.950 . S
C181 C180 1.349 1_556 S
C181 C197 1.349 . S
C182 C180 1.327 . S
C182 C201 1.429 . S
C182 H206 0.950 . S
C183 C200 1.574 1_545 S
C183 C202 1.368 1_556 S
C183 H207 0.949 . S
H184 C188 0.949 . S
C185 C186 1.349 1_556 S
C185 C187 1.327 . S
C185 H208 0.950 . S
C186 C185 1.349 1_554 S
C186 C198 1.349 . S
C187 C185 1.327 . S
C187 C203 1.429 1_556 S
C187 H209 0.950 . S
C188 H184 0.949 . S
C188 C196 1.574 1_565 S
C188 C204 1.368 . S
H189 C197 0.950 . S
H190 C195 0.950 . S
H191 C196 0.949 . S
H192 C198 0.950 . S
H193 C199 0.950 . S
H194 C200 0.949 . S
C195 H190 0.950 . S
C195 C197 1.327 . S
C195 C201 1.429 1_556 S
C196 C188 1.574 1_545 S
C196 H191 0.949 . S
C196 C202 1.368 . S
C197 C181 1.349 . S
C197 H189 0.950 . S
C197 C195 1.327 . S
C198 C186 1.349 . S
C198 H192 0.950 . S
C198 C199 1.327 . S
C199 H193 0.950 . S
C199 C198 1.327 . S
C199 C203 1.429 . S
C200 C183 1.574 1_565 S
C200 H194 0.949 . S
C200 C204 1.368 1_556 S
C201 C182 1.429 . S
C201 C195 1.429 1_554 S
C201 C202 1.523 . S
C202 C183 1.368 1_554 S
C202 C196 1.368 . S
C202 C201 1.523 . S
C203 C187 1.429 1_554 S
C203 C199 1.429 . S
C203 C204 1.523 . S
C204 C188 1.368 . S
C204 C200 1.368 1_554 S
C204 C203 1.523 . S
H205 C180 0.950 . S
H206 C182 0.950 . S
H207 C183 0.949 . S
H208 C185 0.950 . S
H209 C187 0.950 . S
C210 C211 1.349 . S
C210 C212 1.327 . S
C210 H235 0.950 . S
C211 C210 1.349 . S
C211 C227 1.349 1_554 S
C212 C210 1.327 . S
C212 C231 1.429 . S
C212 H236 0.950 . S
C213 C230 1.574 . S
C213 C232 1.368 1_556 S
C213 H237 0.949 . S
H214 C218 0.949 . S
C215 C216 1.349 . S
C215 C217 1.327 . S
C215 H238 0.950 . S
C216 C215 1.349 . S
C216 C228 1.349 1_556 S
C217 C215 1.327 . S
C217 C233 1.429 1_556 S
C217 H239 0.950 . S
C218 H214 0.949 . S
C218 C226 1.574 . S
C218 C234 1.368 . S
H219 C227 0.950 . S
H220 C225 0.950 . S
H221 C226 0.949 . S
H222 C228 0.950 . S
H223 C229 0.950 . S
H224 C230 0.949 . S
C225 H220 0.950 . S
C225 C227 1.327 . S
C225 C231 1.429 1_556 S
C226 C218 1.574 . S
C226 H221 0.949 . S
C226 C232 1.368 . S
C227 C211 1.349 1_556 S
C227 H219 0.950 . S
C227 C225 1.327 . S
C228 C216 1.349 1_554 S
C228 H222 0.950 . S
C228 C229 1.327 . S
C229 H223 0.950 . S
C229 C228 1.327 . S
C229 C233 1.429 . S
C230 C213 1.574 . S
C230 H224 0.949 . S
C230 C234 1.368 1_556 S
C231 C212 1.429 . S
C231 C225 1.429 1_554 S
C231 C232 1.523 . S
C232 C213 1.368 1_554 S
C232 C226 1.368 . S
C232 C231 1.523 . S
C233 C217 1.429 1_554 S
C233 C229 1.429 . S
C233 C234 1.523 . S
C234 C218 1.368 . S
C234 C230 1.368 1_554 S
C234 C233 1.523 . S
H235 C210 0.950 . S
H236 C212 0.950 . S
H237 C213 0.949 . S
H238 C215 0.950 . S
H239 C217 0.950 . S
C240 C241 1.349 . S
C240 C242 1.327 . S
C240 H265 0.950 . S
C241 C240 1.349 . S
C241 C257 1.349 1_554 S
C242 C240 1.327 . S
C242 C261 1.429 . S
C242 H266 0.950 . S
C243 C260 1.574 1_455 S
C243 C262 1.368 1_556 S
C243 H267 0.949 . S
H244 C248 0.949 . S
C245 C246 1.349 . S
C245 C247 1.327 . S
C245 H268 0.950 . S
C246 C245 1.349 . S
C246 C258 1.349 1_556 S
C247 C245 1.327 . S
C247 C263 1.429 1_556 S
C247 H269 0.950 . S
C248 H244 0.949 . S
C248 C256 1.574 1_655 S
C248 C264 1.368 . S
H249 C257 0.950 . S
H250 C255 0.950 . S
H251 C256 0.949 . S
H252 C258 0.950 . S
H253 C259 0.950 . S
H254 C260 0.949 . S
C255 H250 0.950 . S
C255 C257 1.327 . S
C255 C261 1.429 1_556 S
C256 C248 1.574 1_455 S
C256 H251 0.949 . S
C256 C262 1.368 . S
C257 C241 1.349 1_556 S
C257 H249 0.950 . S
C257 C255 1.327 . S
C258 C246 1.349 1_554 S
C258 H252 0.950 . S
C258 C259 1.327 . S
C259 H253 0.950 . S
C259 C258 1.327 . S
C259 C263 1.429 . S
C260 C243 1.574 1_655 S
C260 H254 0.949 . S
C260 C264 1.368 1_556 S
C261 C242 1.429 . S
C261 C255 1.429 1_554 S
C261 C262 1.523 . S
C262 C243 1.368 1_554 S
C262 C256 1.368 . S
C262 C261 1.523 . S
C263 C247 1.429 1_554 S
C263 C259 1.429 . S
C263 C264 1.523 . S
C264 C248 1.368 . S
C264 C260 1.368 1_554 S
C264 C263 1.523 . S
H265 C240 0.950 . S
H266 C242 0.950 . S
H267 C243 0.949 . S
H268 C245 0.950 . S
H269 C247 0.950 . S
C270 C271 1.349 . S
C270 C272 1.327 . S
C270 H295 0.950 . S
C271 C270 1.349 . S
C271 C287 1.349 1_556 S
C272 C270 1.327 . S
C272 C291 1.429 1_556 S
C272 H296 0.950 . S
C273 C290 1.574 1_565 S
C273 C292 1.368 . S
C273 H297 0.949 . S
H274 C278 0.949 . S
C275 C276 1.349 . S
C275 C277 1.327 . S
C275 H298 0.950 . S
C276 C275 1.349 . S
C276 C288 1.349 1_554 S
C277 C275 1.327 . S
C277 C293 1.429 . S
C277 H299 0.950 . S
C278 H274 0.949 . S
C278 C286 1.574 1_545 S
C278 C294 1.368 1_556 S
H279 C287 0.950 . S
H280 C285 0.950 . S
H281 C286 0.949 . S
H282 C288 0.950 . S
H283 C289 0.950 . S
H284 C290 0.949 . S
C285 H280 0.950 . S
C285 C287 1.327 . S
C285 C291 1.429 . S
C286 C278 1.574 1_565 S
C286 H281 0.949 . S
C286 C292 1.368 1_556 S
C287 C271 1.349 1_554 S
C287 H279 0.950 . S
C287 C285 1.327 . S
C288 C276 1.349 1_556 S
C288 H282 0.950 . S
C288 C289 1.327 . S
C289 H283 0.950 . S
C289 C288 1.327 . S
C289 C293 1.429 1_556 S
C290 C273 1.574 1_545 S
C290 H284 0.949 . S
C290 C294 1.368 . S
C291 C272 1.429 1_554 S
C291 C285 1.429 . S
C291 C292 1.523 . S
C292 C273 1.368 . S
C292 C286 1.368 1_554 S
C292 C291 1.523 . S
C293 C277 1.429 . S
C293 C289 1.429 1_554 S
C293 C294 1.523 . S
C294 C278 1.368 1_554 S
C294 C290 1.368 . S
C294 C293 1.523 . S
H295 C270 0.950 . S
H296 C272 0.950 . S
H297 C273 0.949 . S
H298 C275 0.950 . S
H299 C277 0.950 . S
C300 C301 1.359 . S
C300 C302 1.327 . S
C300 H325 0.950 . S
C301 C300 1.359 . S
C301 C317 1.338 1_554 S
C302 C300 1.327 . S
C302 C321 1.429 1_554 S
C302 H326 0.950 . S
C303 C320 1.574 . S
C303 C322 1.368 . S
C303 H327 0.949 . S
H304 C308 0.949 . S
C305 C306 1.349 . S
C305 C307 1.327 . S
C305 H328 0.950 . S
C306 C305 1.349 . S
C306 C318 1.349 1_556 S
C307 C305 1.327 . S
C307 C323 1.429 . S
C307 H329 0.950 . S
C308 H304 0.949 . S
C308 C316 1.574 . S
C308 C324 1.368 1_554 S
H309 C317 0.950 . S
H310 C315 0.950 . S
H311 C316 0.949 . S
H312 C318 0.950 . S
H313 C319 0.950 . S
H314 C320 0.949 . S
C315 H310 0.950 . S
C315 C317 1.327 . S
C315 C321 1.429 . S
C316 C308 1.574 . S
C316 H311 0.949 . S
C316 C322 1.368 1_554 S
C317 C301 1.338 1_556 S
C317 H309 0.950 . S
C317 C315 1.327 . S
C318 C306 1.349 1_554 S
C318 H312 0.950 . S
C318 C319 1.327 . S
C319 H313 0.950 . S
C319 C318 1.327 . S
C319 C323 1.429 1_554 S
C320 C303 1.574 . S
C320 H314 0.949 . S
C320 C324 1.368 . S
C321 C302 1.429 1_556 S
C321 C315 1.429 . S
C321 C322 1.523 . S
C322 C303 1.368 . S
C322 C316 1.368 1_556 S
C322 C321 1.523 . S
C323 C307 1.429 . S
C323 C319 1.429 1_556 S
C323 C324 1.523 . S
C324 C308 1.368 1_556 S
C324 C320 1.368 . S
C324 C323 1.523 . S
H325 C300 0.950 . S
H326 C302 0.950 . S
H327 C303 0.949 . S
H328 C305 0.950 . S
H329 C307 0.950 . S
C330 C331 1.356 . S
C330 C332 1.327 . S
C330 H355 0.950 . S
C331 C330 1.356 . S
C331 C347 1.342 1_554 S
C332 C330 1.327 . S
C332 C351 1.429 1_554 S
C332 H356 0.950 . S
C333 C350 1.574 . S
C333 C352 1.368 . S
C333 H357 0.949 . S
H334 C338 0.949 . S
C335 C336 1.349 . S
C335 C337 1.327 . S
C335 H358 0.950 . S
C336 C335 1.349 . S
C336 C348 1.349 1_556 S
C337 C335 1.327 . S
C337 C353 1.429 . S
C337 H359 0.950 . S
C338 H334 0.949 . S
C338 C346 1.574 . S
C338 C354 1.368 1_554 S
H339 C347 0.950 . S
H340 C345 0.950 . S
H341 C346 0.949 . S
H342 C348 0.950 . S
H343 C349 0.950 . S
H344 C350 0.949 . S
C345 H340 0.950 . S
C345 C347 1.327 . S
C345 C351 1.429 . S
C346 C338 1.574 . S
C346 H341 0.949 . S
C346 C352 1.368 1_554 S
C347 C331 1.342 1_556 S
C347 H339 0.950 . S
C347 C345 1.327 . S
C348 C336 1.349 1_554 S
C348 H342 0.950 . S
C348 C349 1.327 . S
C349 H343 0.950 . S
C349 C348 1.327 . S
C349 C353 1.429 1_554 S
C350 C333 1.574 . S
C350 H344 0.949 . S
C350 C354 1.368 . S
C351 C332 1.429 1_556 S
C351 C345 1.429 . S
C351 C352 1.523 . S
C352 C333 1.368 . S
C352 C346 1.368 1_556 S
C352 C351 1.523 . S
C353 C337 1.429 . S
C353 C349 1.429 1_556 S
C353 C354 1.523 . S
C354 C338 1.368 1_556 S
C354 C350 1.368 . S
C354 C353 1.523 . S
H355 C330 0.950 . S
H356 C332 0.950 . S
H357 C333 0.949 . S
H358 C335 0.950 . S
H359 C337 0.950 . S
C360 C361 1.349 . S
C360 C362 1.327 . S
C360 H385 0.950 . S
C361 C360 1.349 . S
C361 C377 1.349 1_556 S
C362 C360 1.327 . S
C362 C381 1.429 . S
C362 H386 0.950 . S
C363 C380 1.574 . S
C363 C382 1.368 1_554 S
C363 H387 0.949 . S
H364 C368 0.949 . S
C365 C366 1.359 . S
C365 C367 1.327 . S
C365 H388 0.950 . S
C366 C365 1.359 . S
C366 C378 1.339 1_554 S
C367 C365 1.327 . S
C367 C383 1.429 1_554 S
C367 H389 0.950 . S
C368 H364 0.949 . S
C368 C376 1.574 . S
C368 C384 1.368 . S
H369 C377 0.950 . S
H370 C375 0.950 . S
H371 C376 0.949 . S
H372 C378 0.950 . S
H373 C379 0.950 . S
H374 C380 0.949 . S
C375 H370 0.950 . S
C375 C377 1.327 . S
C375 C381 1.429 1_554 S
C376 C368 1.574 . S
C376 H371 0.949 . S
C376 C382 1.368 . S
C377 C361 1.349 1_554 S
C377 H369 0.950 . S
C377 C375 1.327 . S
C378 C366 1.339 1_556 S
C378 H372 0.950 . S
C378 C379 1.327 . S
C379 H373 0.950 . S
C379 C378 1.327 . S
C379 C383 1.429 . S
C380 C363 1.574 . S
C380 H374 0.949 . S
C380 C384 1.368 1_554 S
C381 C362 1.429 . S
C381 C375 1.429 1_556 S
C381 C382 1.523 . S
C382 C363 1.368 1_556 S
C382 C376 1.368 . S
C382 C381 1.523 . S
C383 C367 1.429 1_556 S
C383 C379 1.429 . S
C383 C384 1.523 . S
C384 C368 1.368 . S
C384 C380 1.368 1_556 S
C384 C383 1.523 . S
H385 C360 0.950 . S
H386 C362 0.950 . S
H387 C363 0.949 . S
H388 C365 0.950 . S
H389 C367 0.950 . S
C390 C391 1.349 1_554 S
C390 C392 1.327 . S
C390 H415 0.950 . S
C391 C390 1.349 1_556 S
C391 C407 1.349 . S
C392 C390 1.327 . S
C392 C411 1.429 1_554 S
C392 H416 0.950 . S
C393 C410 1.574 . S
C393 C412 1.368 . S
C393 H417 0.949 . S
H394 C398 0.949 . S
C395 C396 1.339 1_556 S
C395 C397 1.327 . S
C395 H418 0.950 . S
C396 C395 1.339 1_554 S
C396 C408 1.358 . S
C397 C395 1.327 . S
C397 C413 1.429 . S
C397 H419 0.950 . S
C398 H394 0.949 . S
C398 C406 1.574 . S
C398 C414 1.368 1_554 S
H399 C407 0.950 . S
H400 C405 0.950 . S
H401 C406 0.949 . S
H402 C408 0.950 . S
H403 C409 0.950 . S
H404 C410 0.949 . S
C405 H400 0.950 . S
C405 C407 1.327 . S
C405 C411 1.429 . S
C406 C398 1.574 . S
C406 H401 0.949 . S
C406 C412 1.368 1_554 S
C407 C391 1.349 . S
C407 H399 0.950 . S
C407 C405 1.327 . S
C408 C396 1.358 . S
C408 H402 0.950 . S
C408 C409 1.327 . S
C409 H403 0.950 . S
C409 C408 1.327 . S
C409 C413 1.429 1_554 S
C410 C393 1.574 . S
C410 H404 0.949 . S
C410 C414 1.368 . S
C411 C392 1.429 1_556 S
C411 C405 1.429 . S
C411 C412 1.523 . S
C412 C393 1.368 . S
C412 C406 1.368 1_556 S
C412 C411 1.523 . S
C413 C397 1.429 . S
C413 C409 1.429 1_556 S
C413 C414 1.523 . S
C414 C398 1.368 1_556 S
C414 C410 1.368 . S
C414 C413 1.523 . S
H415 C390 0.950 . S
H416 C392 0.950 . S
H417 C393 0.949 . S
H418 C395 0.950 . S
H419 C397 0.950 . S
C420 C421 1.349 1_554 S
C420 C422 1.327 . S
C420 H445 0.950 . S
C421 C420 1.349 1_556 S
C421 C437 1.349 . S
C422 C420 1.327 . S
C422 C441 1.429 1_554 S
C422 H446 0.950 . S
C423 C440 1.574 . S
C423 C442 1.368 . S
C423 H447 0.949 . S
H424 C428 0.949 . S
C425 C426 1.342 1_556 S
C425 C427 1.327 . S
C425 H448 0.950 . S
C426 C425 1.342 1_554 S
C426 C438 1.355 . S
C427 C425 1.327 . S
C427 C443 1.429 . S
C427 H449 0.950 . S
C428 H424 0.949 . S
C428 C436 1.574 . S
C428 C444 1.368 1_554 S
H429 C437 0.950 . S
H430 C435 0.950 . S
H431 C436 0.949 . S
H432 C438 0.950 . S
H433 C439 0.950 . S
H434 C440 0.949 . S
C435 H430 0.950 . S
C435 C437 1.327 . S
C435 C441 1.429 . S
C436 C428 1.574 . S
C436 H431 0.949 . S
C436 C442 1.368 1_554 S
C437 C421 1.349 . S
C437 H429 0.950 . S
C437 C435 1.327 . S
C438 C426 1.355 . S
C438 H432 0.950 . S
C438 C439 1.327 . S
C439 H433 0.950 . S
C439 C438 1.327 . S
C439 C443 1.429 1_554 S
C440 C423 1.574 . S
C440 H434 0.949 . S
C440 C444 1.368 . S
C441 C422 1.429 1_556 S
C441 C435 1.429 . S
C441 C442 1.523 . S
C442 C423 1.368 . S
C442 C436 1.368 1_556 S
C442 C441 1.523 . S
C443 C427 1.429 . S
C443 C439 1.429 1_556 S
C443 C444 1.523 . S
C444 C428 1.368 1_556 S
C444 C440 1.368 . S
C444 C443 1.523 . S
H445 C420 0.950 . S
H446 C422 0.950 . S
H447 C423 0.949 . S
H448 C425 0.950 . S
H449 C427 0.950 . S
C450 C451 1.338 1_556 S
C450 C452 1.327 . S
C450 H475 0.950 . S
C451 C450 1.338 1_554 S
C451 C467 1.359 . S
C452 C450 1.327 . S
C452 C471 1.429 . S
C452 H476 0.950 . S
C453 C470 1.574 . S
C453 C472 1.368 1_554 S
C453 H477 0.949 . S
H454 C458 0.949 . S
C455 C456 1.349 1_554 S
C455 C457 1.327 . S
C455 H478 0.950 . S
C456 C455 1.349 1_556 S
C456 C468 1.349 . S
C457 C455 1.327 . S
C457 C473 1.429 1_554 S
C457 H479 0.950 . S
C458 H454 0.949 . S
C458 C466 1.574 . S
C458 C474 1.368 . S
H459 C467 0.950 . S
H460 C465 0.950 . S
H461 C466 0.949 . S
H462 C468 0.950 . S
H463 C469 0.950 . S
H464 C470 0.949 . S
C465 H460 0.950 . S
C465 C467 1.327 . S
C465 C471 1.429 1_554 S
C466 C458 1.574 . S
C466 H461 0.949 . S
C466 C472 1.368 . S
C467 C451 1.359 . S
C467 H459 0.950 . S
C467 C465 1.327 . S
C468 C456 1.349 . S
C468 H462 0.950 . S
C468 C469 1.327 . S
C469 H463 0.950 . S
C469 C468 1.327 . S
C469 C473 1.429 . S
C470 C453 1.574 . S
C470 H464 0.949 . S
C470 C474 1.368 1_554 S
C471 C452 1.429 . S
C471 C465 1.429 1_556 S
C471 C472 1.523 . S
C472 C453 1.368 1_556 S
C472 C466 1.368 . S
C472 C471 1.523 . S
C473 C457 1.429 1_556 S
C473 C469 1.429 . S
C473 C474 1.523 . S
C474 C458 1.368 . S
C474 C470 1.368 1_556 S
C474 C473 1.523 . S
H475 C450 0.950 . S
H476 C452 0.950 . S
H477 C453 0.949 . S
H478 C455 0.950 . S
H479 C457 0.950 . S
C480 C481 1.349 . S
C480 C482 1.327 . S
C480 H505 0.950 . S
C481 C480 1.349 . S
C481 C497 1.349 . S
C482 C480 1.327 . S
C482 C501 1.429 . S
C482 H506 0.950 . S
C483 C500 1.574 . S
C483 C502 1.368 . S
C483 H507 0.949 . S
H484 C488 0.949 . S
C485 C486 1.349 . S
C485 C487 1.327 . S
C485 H508 0.950 . S
C486 C485 1.349 . S
C486 C498 1.349 . S
C487 C485 1.327 . S
C487 C503 1.429 . S
C487 H509 0.950 . S
C488 H484 0.949 . S
C488 C496 1.574 . S
C488 C504 1.368 . S
H489 C497 0.950 . S
H490 C495 0.950 . S
H491 C496 0.949 . S
H492 C498 0.950 . S
H493 C499 0.950 . S
H494 C500 0.949 . S
C495 H490 0.950 . S
C495 C497 1.327 . S
C495 C501 1.429 . S
C496 C488 1.574 . S
C496 H491 0.949 . S
C496 C502 1.368 . S
C497 C481 1.349 . S
C497 H489 0.950 . S
C497 C495 1.327 . S
C498 C486 1.349 . S
C498 H492 0.950 . S
C498 C499 1.327 . S
C499 H493 0.950 . S
C499 C498 1.327 . S
C499 C503 1.429 . S
C500 C483 1.574 . S
C500 H494 0.949 . S
C500 C504 1.368 . S
C501 C482 1.429 . S
C501 C495 1.429 . S
C501 C502 1.523 . S
C502 C483 1.368 . S
C502 C496 1.368 . S
C502 C501 1.523 . S
C503 C487 1.429 . S
C503 C499 1.429 . S
C503 C504 1.523 . S
C504 C488 1.368 . S
C504 C500 1.368 . S
C504 C503 1.523 . S
H505 C480 0.950 . S
H506 C482 0.950 . S
H507 C483 0.949 . S
H508 C485 0.950 . S
H509 C487 0.950 . S
C510 C511 1.349 . S
C510 C512 1.327 . S
C510 H535 0.950 . S
C511 C510 1.349 . S
C511 C527 1.349 . S
C512 C510 1.327 . S
C512 C531 1.429 . S
C512 H536 0.950 . S
C513 C530 1.574 . S
C513 C532 1.368 . S
C513 H537 0.949 . S
H514 C518 0.949 . S
C515 C516 1.349 . S
C515 C517 1.327 . S
C515 H538 0.950 . S
C516 C515 1.349 . S
C516 C528 1.349 . S
C517 C515 1.327 . S
C517 C533 1.429 . S
C517 H539 0.950 . S
C518 H514 0.949 . S
C518 C526 1.574 . S
C518 C534 1.368 . S
H519 C527 0.950 . S
H520 C525 0.950 . S
H521 C526 0.949 . S
H522 C528 0.950 . S
H523 C529 0.950 . S
H524 C530 0.949 . S
C525 H520 0.950 . S
C525 C527 1.327 . S
C525 C531 1.429 . S
C526 C518 1.574 . S
C526 H521 0.949 . S
C526 C532 1.368 . S
C527 C511 1.349 . S
C527 H519 0.950 . S
C527 C525 1.327 . S
C528 C516 1.349 . S
C528 H522 0.950 . S
C528 C529 1.327 . S
C529 H523 0.950 . S
C529 C528 1.327 . S
C529 C533 1.429 . S
C530 C513 1.574 . S
C530 H524 0.949 . S
C530 C534 1.368 . S
C531 C512 1.429 . S
C531 C525 1.429 . S
C531 C532 1.523 . S
C532 C513 1.368 . S
C532 C526 1.368 . S
C532 C531 1.523 . S
C533 C517 1.429 . S
C533 C529 1.429 . S
C533 C534 1.523 . S
C534 C518 1.368 . S
C534 C530 1.368 . S
C534 C533 1.523 . S
H535 C510 0.950 . S
H536 C512 0.950 . S
H537 C513 0.949 . S
H538 C515 0.950 . S
H539 C517 0.950 . S
C540 C541 1.349 . S
C540 C542 1.327 . S
C540 H565 0.950 . S
C541 C540 1.349 . S
C541 C557 1.349 . S
C542 C540 1.327 . S
C542 C561 1.429 . S
C542 H566 0.950 . S
C543 C560 1.574 . S
C543 C562 1.368 . S
C543 H567 0.949 . S
H544 C548 0.949 . S
C545 C546 1.349 . S
C545 C547 1.327 . S
C545 H568 0.950 . S
C546 C545 1.349 . S
C546 C558 1.349 . S
C547 C545 1.327 . S
C547 C563 1.429 . S
C547 H569 0.950 . S
C548 H544 0.949 . S
C548 C556 1.574 . S
C548 C564 1.368 . S
H549 C557 0.950 . S
H550 C555 0.950 . S
H551 C556 0.949 . S
H552 C558 0.950 . S
H553 C559 0.950 . S
H554 C560 0.949 . S
C555 H550 0.950 . S
C555 C557 1.327 . S
C555 C561 1.429 . S
C556 C548 1.574 . S
C556 H551 0.949 . S
C556 C562 1.368 . S
C557 C541 1.349 . S
C557 H549 0.950 . S
C557 C555 1.327 . S
C558 C546 1.349 . S
C558 H552 0.950 . S
C558 C559 1.327 . S
C559 H553 0.950 . S
C559 C558 1.327 . S
C559 C563 1.429 . S
C560 C543 1.574 . S
C560 H554 0.949 . S
C560 C564 1.368 . S
C561 C542 1.429 . S
C561 C555 1.429 . S
C561 C562 1.523 . S
C562 C543 1.368 . S
C562 C556 1.368 . S
C562 C561 1.523 . S
C563 C547 1.429 . S
C563 C559 1.429 . S
C563 C564 1.523 . S
C564 C548 1.368 . S
C564 C560 1.368 . S
C564 C563 1.523 . S
H565 C540 0.950 . S
H566 C542 0.950 . S
H567 C543 0.949 . S
H568 C545 0.950 . S
H569 C547 0.950 . S
C570 C571 1.349 . S
C570 C572 1.327 . S
C570 H595 0.950 . S
C571 C570 1.349 . S
C571 C587 1.349 . S
C572 C570 1.327 . S
C572 C591 1.429 . S
C572 H596 0.950 . S
C573 C590 1.574 . S
C573 C592 1.368 . S
C573 H597 0.949 . S
H574 C578 0.949 . S
C575 C576 1.349 . S
C575 C577 1.327 . S
C575 H598 0.950 . S
C576 C575 1.349 . S
C576 C588 1.349 . S
C577 C575 1.327 . S
C577 C593 1.429 . S
C577 H599 0.950 . S
C578 H574 0.949 . S
C578 C586 1.574 . S
C578 C594 1.368 . S
H579 C587 0.950 . S
H580 C585 0.950 . S
H581 C586 0.949 . S
H582 C588 0.950 . S
H583 C589 0.950 . S
H584 C590 0.949 . S
C585 H580 0.950 . S
C585 C587 1.327 . S
C585 C591 1.429 . S
C586 C578 1.574 . S
C586 H581 0.949 . S
C586 C592 1.368 . S
C587 C571 1.349 . S
C587 H579 0.950 . S
C587 C585 1.327 . S
C588 C576 1.349 . S
C588 H582 0.950 . S
C588 C589 1.327 . S
C589 H583 0.950 . S
C589 C588 1.327 . S
C589 C593 1.429 . S
C590 C573 1.574 . S
C590 H584 0.949 . S
C590 C594 1.368 . S
C591 C572 1.429 . S
C591 C585 1.429 . S
C591 C592 1.523 . S
C592 C573 1.368 . S
C592 C586 1.368 . S
C592 C591 1.523 . S
C593 C577 1.429 . S
C593 C589 1.429 . S
C593 C594 1.523 . S
C594 C578 1.368 . S
C594 C590 1.368 . S
C594 C593 1.523 . S
H595 C570 0.950 . S
H596 C572 0.950 . S
H597 C573 0.949 . S
H598 C575 0.950 . S
H599 C577 0.950 . S
C600 C601 1.349 . S
C600 C602 1.327 . S
C600 H625 0.950 . S
C601 C600 1.349 . S
C601 C617 1.349 . S
C602 C600 1.327 . S
C602 C621 1.429 . S
C602 H626 0.950 . S
C603 C620 1.574 . S
C603 C622 1.368 . S
C603 H627 0.949 . S
H604 C608 0.949 . S
C605 C606 1.349 . S
C605 C607 1.327 . S
C605 H628 0.950 . S
C606 C605 1.349 . S
C606 C618 1.349 . S
C607 C605 1.327 . S
C607 C623 1.429 . S
C607 H629 0.950 . S
C608 H604 0.949 . S
C608 C616 1.574 . S
C608 C624 1.368 . S
H609 C617 0.950 . S
H610 C615 0.950 . S
H611 C616 0.949 . S
H612 C618 0.950 . S
H613 C619 0.950 . S
H614 C620 0.949 . S
C615 H610 0.950 . S
C615 C617 1.327 . S
C615 C621 1.429 . S
C616 C608 1.574 . S
C616 H611 0.949 . S
C616 C622 1.368 . S
C617 C601 1.349 . S
C617 H609 0.950 . S
C617 C615 1.327 . S
C618 C606 1.349 . S
C618 H612 0.950 . S
C618 C619 1.327 . S
C619 H613 0.950 . S
C619 C618 1.327 . S
C619 C623 1.429 . S
C620 C603 1.574 . S
C620 H614 0.949 . S
C620 C624 1.368 . S
C621 C602 1.429 . S
C621 C615 1.429 . S
C621 C622 1.523 . S
C622 C603 1.368 . S
C622 C616 1.368 . S
C622 C621 1.523 . S
C623 C607 1.429 . S
C623 C619 1.429 . S
C623 C624 1.523 . S
C624 C608 1.368 . S
C624 C620 1.368 . S
C624 C623 1.523 . S
H625 C600 0.950 . S
H626 C602 0.950 . S
H627 C603 0.949 . S
H628 C605 0.950 . S
H629 C607 0.950 . S
C630 C631 1.349 . S
C630 C632 1.327 . S
C630 H655 0.950 . S
C631 C630 1.349 . S
C631 C647 1.349 . S
C632 C630 1.327 . S
C632 C651 1.429 . S
C632 H656 0.950 . S
C633 C650 1.574 . S
C633 C652 1.368 . S
C633 H657 0.949 . S
H634 C638 0.949 . S
C635 C636 1.349 . S
C635 C637 1.327 . S
C635 H658 0.950 . S
C636 C635 1.349 . S
C636 C648 1.349 . S
C637 C635 1.327 . S
C637 C653 1.429 . S
C637 H659 0.950 . S
C638 H634 0.949 . S
C638 C646 1.574 . S
C638 C654 1.368 . S
H639 C647 0.950 . S
H640 C645 0.950 . S
H641 C646 0.949 . S
H642 C648 0.950 . S
H643 C649 0.950 . S
H644 C650 0.949 . S
C645 H640 0.950 . S
C645 C647 1.327 . S
C645 C651 1.429 . S
C646 C638 1.574 . S
C646 H641 0.949 . S
C646 C652 1.368 . S
C647 C631 1.349 . S
C647 H639 0.950 . S
C647 C645 1.327 . S
C648 C636 1.349 . S
C648 H642 0.950 . S
C648 C649 1.327 . S
C649 H643 0.950 . S
C649 C648 1.327 . S
C649 C653 1.429 . S
C650 C633 1.574 . S
C650 H644 0.949 . S
C650 C654 1.368 . S
C651 C632 1.429 . S
C651 C645 1.429 . S
C651 C652 1.523 . S
C652 C633 1.368 . S
C652 C646 1.368 . S
C652 C651 1.523 . S
C653 C637 1.429 . S
C653 C649 1.429 . S
C653 C654 1.523 . S
C654 C638 1.368 . S
C654 C650 1.368 . S
C654 C653 1.523 . S
H655 C630 0.950 . S
H656 C632 0.950 . S
H657 C633 0.949 . S
H658 C635 0.950 . S
H659 C637 0.950 . S
C121 C104 1.300 . S
C126 C12 1.306 . S
C151 C4 1.300 . S
C156 C32 1.306 . S
C181 C24 1.300 . S
C186 C52 1.306 . S
C211 C72 1.306 . S
C216 C44 1.300 . S
C241 C92 1.306 . S
C246 C64 1.300 . S
C271 C84 1.300 . S
C276 C112 1.306 . S
C301 C82 1.659 . S
C306 C9 1.715 . S
C331 C102 1.659 . S
C336 C29 1.715 . S
C361 C49 1.715 . S
C366 C2 1.659 . S
C391 C69 1.715 . S
C396 C22 1.659 . S
C421 C89 1.715 . S
C426 C42 1.659 . S
C451 C62 1.659 . S
C456 C109 1.715 . S
C481 C18 1.492 . S
C486 C19 1.492 . S
C511 C38 1.492 . S
C516 C39 1.492 . S
C541 C58 1.492 . S
C546 C59 1.492 . S
C571 C78 1.492 . S
C576 C79 1.492 . S
C601 C99 1.492 . S
C606 C98 1.492 . S
C631 C118 1.492 . S
C636 C119 1.492 . S
