# Generated by pormake.
# Topology lcy-e, (6)-cn, num edge types: 1
# Building blocks:
#     Node 0, Type 0, BuildingBlock: INOVEN_clean_sbu_0, # of connection points: 6
#     Node 1, Type 0, BuildingBlock: INOVEN_clean_sbu_0, # of connection points: 6
#     Node 2, Type 0, BuildingBlock: INOVEN_clean_sbu_0, # of connection points: 6
#     Node 3, Type 0, BuildingBlock: INOVEN_clean_sbu_0, # of connection points: 6
#     Node 4, Type 0, BuildingBlock: INOVEN_clean_sbu_0, # of connection points: 6
#     Node 5, Type 0, BuildingBlock: INOVEN_clean_sbu_0, # of connection points: 6
#     Node 6, Type 0, BuildingBlock: INOVEN_clean_sbu_0, # of connection points: 6
#     Node 7, Type 0, BuildingBlock: INOVEN_clean_sbu_0, # of connection points: 6
#     Node 8, Type 0, BuildingBlock: INOVEN_clean_sbu_0, # of connection points: 6
#     Node 9, Type 0, BuildingBlock: INOVEN_clean_sbu_0, # of connection points: 6
#     Node 10, Type 0, BuildingBlock: INOVEN_clean_sbu_0, # of connection points: 6
#     Node 11, Type 0, BuildingBlock: INOVEN_clean_sbu_0, # of connection points: 6
#     Edge 12, Type (0, 0), BuildingBlock: XUDNAN_clean_linker_2, # of connection points: 2
#     Edge 13, Type (0, 0), BuildingBlock: XUDNAN_clean_linker_2, # of connection points: 2
#     Edge 14, Type (0, 0), BuildingBlock: XUDNAN_clean_linker_2, # of connection points: 2
#     Edge 15, Type (0, 0), BuildingBlock: XUDNAN_clean_linker_2, # of connection points: 2
#     Edge 16, Type (0, 0), BuildingBlock: XUDNAN_clean_linker_2, # of connection points: 2
#     Edge 17, Type (0, 0), BuildingBlock: XUDNAN_clean_linker_2, # of connection points: 2
#     Edge 18, Type (0, 0), BuildingBlock: XUDNAN_clean_linker_2, # of connection points: 2
#     Edge 19, Type (0, 0), BuildingBlock: XUDNAN_clean_linker_2, # of connection points: 2
#     Edge 20, Type (0, 0), BuildingBlock: XUDNAN_clean_linker_2, # of connection points: 2
#     Edge 21, Type (0, 0), BuildingBlock: XUDNAN_clean_linker_2, # of connection points: 2
#     Edge 22, Type (0, 0), BuildingBlock: XUDNAN_clean_linker_2, # of connection points: 2
#     Edge 23, Type (0, 0), BuildingBlock: XUDNAN_clean_linker_2, # of connection points: 2
#     Edge 24, Type (0, 0), BuildingBlock: XUDNAN_clean_linker_2, # of connection points: 2
#     Edge 25, Type (0, 0), BuildingBlock: XUDNAN_clean_linker_2, # of connection points: 2
#     Edge 26, Type (0, 0), BuildingBlock: XUDNAN_clean_linker_2, # of connection points: 2
#     Edge 27, Type (0, 0), BuildingBlock: XUDNAN_clean_linker_2, # of connection points: 2
#     Edge 28, Type (0, 0), BuildingBlock: XUDNAN_clean_linker_2, # of connection points: 2
#     Edge 29, Type (0, 0), BuildingBlock: XUDNAN_clean_linker_2, # of connection points: 2
#     Edge 30, Type (0, 0), BuildingBlock: XUDNAN_clean_linker_2, # of connection points: 2
#     Edge 31, Type (0, 0), BuildingBlock: XUDNAN_clean_linker_2, # of connection points: 2
#     Edge 32, Type (0, 0), BuildingBlock: XUDNAN_clean_linker_2, # of connection points: 2
#     Edge 33, Type (0, 0), BuildingBlock: XUDNAN_clean_linker_2, # of connection points: 2
#     Edge 34, Type (0, 0), BuildingBlock: XUDNAN_clean_linker_2, # of connection points: 2
#     Edge 35, Type (0, 0), BuildingBlock: XUDNAN_clean_linker_2, # of connection points: 2
#     Edge 36, Type (0, 0), BuildingBlock: XUDNAN_clean_linker_2, # of connection points: 2
#     Edge 37, Type (0, 0), BuildingBlock: XUDNAN_clean_linker_2, # of connection points: 2
#     Edge 38, Type (0, 0), BuildingBlock: XUDNAN_clean_linker_2, # of connection points: 2
#     Edge 39, Type (0, 0), BuildingBlock: XUDNAN_clean_linker_2, # of connection points: 2
#     Edge 40, Type (0, 0), BuildingBlock: XUDNAN_clean_linker_2, # of connection points: 2
#     Edge 41, Type (0, 0), BuildingBlock: XUDNAN_clean_linker_2, # of connection points: 2
#     Edge 42, Type (0, 0), BuildingBlock: XUDNAN_clean_linker_2, # of connection points: 2
#     Edge 43, Type (0, 0), BuildingBlock: XUDNAN_clean_linker_2, # of connection points: 2
#     Edge 44, Type (0, 0), BuildingBlock: XUDNAN_clean_linker_2, # of connection points: 2
#     Edge 45, Type (0, 0), BuildingBlock: XUDNAN_clean_linker_2, # of connection points: 2
#     Edge 46, Type (0, 0), BuildingBlock: XUDNAN_clean_linker_2, # of connection points: 2
#     Edge 47, Type (0, 0), BuildingBlock: XUDNAN_clean_linker_2, # of connection points: 2
# Relax obj value: 0.185
# Max RMSD: 0.306
# Mean RMSD: 0.290
data_MOF--net-lcy-e--node1-INOVEN_clean_sbu_0--edge1-XUDNAN_clean_linker_2
_symmetry_space_group_name_H-M    P1
_symmetry_Int_Tables_number       1
_symmetry_cell_setting            triclinic
loop_
_symmetry_equiv_pos_as_xyz
'x, y, z'
_cell_length_a     44.996293
_cell_length_b     42.885476
_cell_length_c     44.215944
_cell_angle_alpha  89.872342
_cell_angle_beta   90.286871
_cell_angle_gamma 88.07092
loop_
_atom_site_label
_atom_site_type_symbol
_atom_site_fract_x
_atom_site_fract_y
_atom_site_fract_z
_atom_type_partial_charge
Gd0 Gd 0.14748 0.23822 0.52459 0.0
Gd1 Gd 0.12773 0.28804 0.47543 0.0
C2 C 0.10045 0.21956 0.47295 0.0
C3 C 0.14996 0.20501 0.57327 0.0
C4 C 0.13105 0.18427 0.59108 0.0
C5 C 0.11906 0.15749 0.57806 0.0
C6 C 0.12801 0.18902 0.62228 0.0
C7 C 0.10568 0.13825 0.62785 0.0
C8 C 0.1153 0.16635 0.64046 0.0
C9 C 0.1066 0.13469 0.59626 0.0
C10 C 0.1855 0.234 0.47689 0.0
C11 C 0.18257 0.30185 0.51664 0.0
C12 C 0.11609 0.32186 0.42791 0.0
C13 C 0.12899 0.32898 0.3979 0.0
C14 C 0.12399 0.30976 0.37276 0.0
C15 C 0.14456 0.35653 0.39362 0.0
C16 C 0.14859 0.34625 0.33956 0.0
C17 C 0.15435 0.36499 0.36484 0.0
C18 C 0.13371 0.31828 0.34397 0.0
C19 C 0.09971 0.29104 0.53021 0.0
O20 O 0.10999 0.21408 0.50094 0.0
O21 O 0.10783 0.24449 0.45744 0.0
O22 O 0.15835 0.19467 0.54669 0.0
O23 O 0.14378 0.23516 0.57368 0.0
O24 O 0.18735 0.2165 0.50074 0.0
O25 O 0.1634 0.25254 0.47966 0.0
O26 O 0.17309 0.30204 0.48839 0.0
O27 O 0.17182 0.2824 0.537 0.0
O28 O 0.12991 0.33223 0.45179 0.0
O29 O 0.10562 0.29406 0.43203 0.0
O30 O 0.10526 0.31538 0.5141 0.0
O31 O 0.10747 0.26721 0.51565 0.0
H32 H 0.12075 0.15325 0.55398 0.0
H33 H 0.1368 0.20958 0.63282 0.0
H34 H 0.11421 0.17026 0.66463 0.0
H35 H 0.0995 0.11342 0.5857 0.0
H36 H 0.11196 0.28845 0.37514 0.0
H37 H 0.14847 0.37206 0.4124 0.0
H38 H 0.16536 0.3869 0.36223 0.0
H39 H 0.12917 0.30315 0.32503 0.0
Gd40 Gd 1.00362 0.88494 0.72524 0.0
Gd41 Gd 0.04977 0.88691 0.77623 0.0
C42 C 0.04801 0.9414 0.72363 0.0
C43 C 0.95729 0.88298 0.69023 0.0
C44 C 0.94756 0.88928 0.65888 0.0
C45 C 0.92243 0.8746 0.64772 0.0
C46 C 0.96095 0.91206 0.64114 0.0
C47 C 0.92254 0.90715 0.60245 0.0
C48 C 0.94855 0.92091 0.61315 0.0
C49 C 0.91007 0.88336 0.61978 0.0
C50 C 0.05662 0.85697 0.71301 0.0
C51 C 1.00122 0.83912 0.78531 0.0
C52 C 0.10013 0.88677 0.80456 0.0
C53 C 0.1233 0.86645 0.81872 0.0
C54 C 0.13544 0.87571 0.84635 0.0
C55 C 0.13529 0.83977 0.80418 0.0
C56 C 0.17239 0.83299 0.84425 0.0
C57 C 0.15971 0.8232 0.81684 0.0
C58 C 0.15969 0.85921 0.85899 0.0
C59 C 0.99754 0.91736 0.78878 0.0
O60 O 0.02332 0.93055 0.71193 0.0
O61 O 0.06189 0.92743 0.74665 0.0
O62 O 0.97516 0.85875 0.6952 0.0
O63 O 0.96422 0.90739 0.70608 0.0
O64 O 0.04106 0.87331 0.69356 0.0
O65 O 0.04303 0.85502 0.73779 0.0
O66 O 0.03008 0.84187 0.78874 0.0
O67 O 0.98636 0.85541 0.7642 0.0
O68 O 0.07452 0.88978 0.81838 0.0
O69 O 0.0977 0.88577 0.77505 0.0
O70 O 1.01477 0.905 0.80952 0.0
O71 O 1.01039 0.91576 0.76361 0.0
H72 H 0.91177 0.85701 0.6611 0.0
H73 H 0.98032 0.9238 0.6494 0.0
H74 H 0.95863 0.93942 0.60053 0.0
H75 H 0.89041 0.87185 0.61198 0.0
H76 H 0.12673 0.89639 0.85775 0.0
H77 H 0.12628 0.83214 0.78277 0.0
H78 H 0.16884 0.80296 0.80507 0.0
H79 H 0.16918 0.86778 0.87981 0.0
Gd80 Gd 0.38609 0.78913 0.01545 0.0
Gd81 Gd 0.40024 0.73995 0.96847 0.0
C82 C 0.43247 0.80225 0.96265 0.0
C83 C 0.38468 0.83211 0.05661 0.0
C84 C 0.40215 0.8547 0.07404 0.0
C85 C 0.40429 0.88574 0.06409 0.0
C86 C 0.41292 0.84666 0.10302 0.0
C87 C 0.42451 0.90076 0.11294 0.0
C88 C 0.42404 0.86939 0.12219 0.0
C89 C 0.41551 0.90851 0.0833 0.0
C90 C 0.34531 0.78551 0.97073 0.0
C91 C 0.35398 0.72433 0.02186 0.0
C92 C 0.39819 0.69972 0.92486 0.0
C93 C 0.38755 0.69648 0.89327 0.0
C94 C 0.3571 0.69911 0.88597 0.0
C95 C 0.40778 0.68759 0.87057 0.0
C96 C 0.36717 0.68161 0.83442 0.0
C97 C 0.39776 0.68041 0.84145 0.0
C98 C 0.34704 0.69169 0.85695 0.0
C99 C 0.43829 0.73908 0.01699 0.0
O100 O 0.42806 0.80476 0.99212 0.0
O101 O 0.41709 0.78254 0.94664 0.0
O102 O 0.37927 0.83776 0.02796 0.0
O103 O 0.38913 0.8024 0.0625 0.0
O104 O 0.33896 0.79181 0.99861 0.0
O105 O 0.37307 0.78349 0.96715 0.0
O106 O 0.36293 0.71852 0.99401 0.0
O107 O 0.36249 0.74926 0.03676 0.0
O108 O 0.37795 0.70278 0.94585 0.0
O109 O 0.42121 0.7169 0.92979 0.0
O110 O 0.44568 0.73017 0.98998 0.0
O111 O 0.41081 0.74443 0.0172 0.0
H112 H 0.3959 0.89281 0.04203 0.0
H113 H 0.41139 0.82307 0.11153 0.0
H114 H 0.4312 0.86261 0.14476 0.0
H115 H 0.41543 0.93251 0.07559 0.0
H116 H 0.34084 0.70586 0.90293 0.0
H117 H 0.43135 0.68532 0.87557 0.0
H118 H 0.41402 0.67339 0.82461 0.0
H119 H 0.32333 0.69262 0.85265 0.0
Gd120 Gd 0.53246 0.13569 0.23597 0.0
Gd121 Gd 0.48615 0.12958 0.29143 0.0
C122 C 0.4833 0.0824 0.23305 0.0
C123 C 0.57727 0.12629 0.2005 0.0
C124 C 0.5838 0.12315 0.16819 0.0
C125 C 0.61348 0.12243 0.15888 0.0
C126 C 0.56128 0.11675 0.14726 0.0
C127 C 0.59852 0.1061 0.10853 0.0
C128 C 0.56859 0.10829 0.11762 0.0
C129 C 0.62082 0.11402 0.12931 0.0
C130 C 0.48423 0.17515 0.22903 0.0
C131 C 0.53547 0.17807 0.29664 0.0
C132 C 0.43698 0.1288 0.32143 0.0
C133 C 0.41031 0.14721 0.33069 0.0
C134 C 0.41094 0.17908 0.33795 0.0
C135 C 0.38351 0.13174 0.333 0.0
C136 C 0.35847 0.17891 0.35191 0.0
C137 C 0.3579 0.14736 0.34343 0.0
C138 C 0.38511 0.19487 0.34843 0.0
C139 C 0.54011 0.10012 0.29918 0.0
O140 O 0.50365 0.09789 0.21816 0.0
O141 O 0.47486 0.08951 0.26099 0.0
O142 O 0.56933 0.15408 0.21061 0.0
O143 O 0.56179 0.10383 0.21196 0.0
O144 O 0.50552 0.17257 0.20935 0.0
O145 O 0.49004 0.15624 0.25001 0.0
O146 O 0.50632 0.17587 0.29891 0.0
O147 O 0.55097 0.16174 0.27619 0.0
O148 O 0.46262 0.13505 0.33391 0.0
O149 O 0.43895 0.12173 0.29272 0.0
O150 O 0.5229 0.10801 0.3217 0.0
O151 O 0.52596 0.10477 0.27487 0.0
H152 H 0.63114 0.12694 0.17489 0.0
H153 H 0.53821 0.11705 0.1542 0.0
H154 H 0.5509 0.10269 0.10205 0.0
H155 H 0.6441 0.11216 0.12324 0.0
H156 H 0.43139 0.19154 0.33606 0.0
H157 H 0.38248 0.10724 0.32724 0.0
H158 H 0.33765 0.13453 0.34529 0.0
H159 H 0.38625 0.21916 0.35482 0.0
Gd160 Gd 0.63228 0.25411 0.55937 0.0
Gd161 Gd 0.63843 0.30773 0.5153 0.0
C162 C 0.67977 0.30798 0.57419 0.0
C163 C 0.63964 0.20605 0.5943 0.0
C164 C 0.65462 0.19755 0.62317 0.0
C165 C 0.64099 0.20418 0.65108 0.0
C166 C 0.68206 0.18092 0.62291 0.0
C167 C 0.68127 0.17639 0.67776 0.0
C168 C 0.6953 0.17058 0.6499 0.0
C169 C 0.65422 0.19376 0.67809 0.0
C170 C 0.58866 0.29862 0.56346 0.0
C171 C 0.59679 0.25212 0.49661 0.0
C172 C 0.63263 0.35778 0.48245 0.0
C173 C 0.61216 0.38176 0.46886 0.0
C174 C 0.59736 0.37662 0.44136 0.0
C175 C 0.61075 0.41183 0.48148 0.0
C176 C 0.58278 0.43193 0.43797 0.0
C177 C 0.59621 0.43658 0.46629 0.0
C178 C 0.58269 0.40142 0.42616 0.0
C179 C 0.67857 0.25847 0.50782 0.0
O180 O 0.67049 0.27981 0.58068 0.0
O181 O 0.66894 0.32434 0.55121 0.0
O182 O 0.61632 0.22508 0.59552 0.0
O183 O 0.65684 0.21158 0.57124 0.0
O184 O 0.58466 0.269 0.56663 0.0
O185 O 0.61595 0.30367 0.55957 0.0
O186 O 0.59846 0.28292 0.49652 0.0
O187 O 0.61131 0.23516 0.51736 0.0
O188 O 0.63411 0.32965 0.47097 0.0
O189 O 0.63555 0.35794 0.51186 0.0
O190 O 0.68402 0.28727 0.50127 0.0
O191 O 0.65178 0.25811 0.5149 0.0
H192 H 0.61972 0.21671 0.65209 0.0
H193 H 0.69304 0.1753 0.60176 0.0
H194 H 0.7163 0.15752 0.64892 0.0
H195 H 0.64261 0.19823 0.69912 0.0
H196 H 0.59809 0.35377 0.43096 0.0
H197 H 0.62226 0.41665 0.50246 0.0
H198 H 0.59711 0.45971 0.47596 0.0
H199 H 0.57214 0.39687 0.40463 0.0
Gd200 Gd 0.98872 0.38339 0.7482 0.0
Gd201 Gd 0.03831 0.36479 0.79269 0.0
C202 C 0.97797 0.32904 0.79599 0.0
C203 C 0.9537 0.39071 0.70193 0.0
C204 C 0.92249 0.38437 0.69334 0.0
C205 C 0.89818 0.40094 0.70614 0.0
C206 C 0.91694 0.36168 0.67128 0.0
C207 C 0.86353 0.37278 0.67434 0.0
C208 C 0.88785 0.35585 0.662 0.0
C209 C 0.86907 0.39522 0.69672 0.0
C210 C 0.98268 0.41007 0.80387 0.0
C211 C 0.05071 0.421 0.74731 0.0
C212 C 0.07671 0.35908 0.83632 0.0
C213 C 0.09193 0.37796 0.85902 0.0
C214 C 0.09631 0.40993 0.85483 0.0
C215 C 0.10066 0.36377 0.88635 0.0
C216 C 0.11788 0.41327 0.90553 0.0
C217 C 0.11341 0.38118 0.90936 0.0
C218 C 0.10927 0.42743 0.87788 0.0
C219 C 0.03683 0.33103 0.74022 0.0
O220 O 0.97289 0.33768 0.76765 0.0
O221 O 0.99879 0.34216 0.81203 0.0
O222 O 0.95844 0.413 0.72151 0.0
O223 O 0.97137 0.36612 0.70597 0.0
O224 O 0.96063 0.40118 0.78727 0.0
O225 O 1.0066 0.40518 0.78971 0.0
O226 O 0.05853 0.40688 0.77283 0.0
O227 O 0.02542 0.41526 0.73292 0.0
O228 O 0.0843 0.36217 0.80793 0.0
O229 O 0.04803 0.35693 0.84003 0.0
O230 O 0.04438 0.31894 0.76619 0.0
O231 O 0.03199 0.35955 0.74387 0.0
H232 H 0.9016 0.41851 0.72325 0.0
H233 H 0.93522 0.34868 0.66085 0.0
H234 H 0.88449 0.33873 0.64444 0.0
H235 H 0.85085 0.40849 0.70692 0.0
H236 H 0.08944 0.42137 0.83394 0.0
H237 H 0.09708 0.3392 0.89013 0.0
H238 H 0.11907 0.36954 0.93047 0.0
H239 H 0.11258 0.452 0.874 0.0
Gd240 Gd 0.89949 0.77359 0.04876 0.0
Gd241 Gd 0.88304 0.72222 1.00344 0.0
C242 C 0.84523 0.72653 0.06428 0.0
C243 C 0.89496 0.82138 0.08458 0.0
C244 C 0.88673 0.83054 0.11581 0.0
C245 C 0.90025 0.81674 0.14147 0.0
C246 C 0.86477 0.85421 0.11984 0.0
C247 C 0.87054 0.85106 0.1746 0.0
C248 C 0.8567 0.8643 0.14881 0.0
C249 C 0.89226 0.82694 0.17056 0.0
C250 C 0.93624 0.72327 0.05144 0.0
C251 C 0.9323 0.77014 0.98439 0.0
C252 C 0.88053 0.673 0.96942 0.0
C253 C 0.89683 0.64668 0.95462 0.0
C254 C 0.92474 0.64971 0.94101 0.0
C255 C 0.8834 0.61764 0.95374 0.0
C256 C 0.92512 0.59485 0.92545 0.0
C257 C 0.89729 0.59209 0.93938 0.0
C258 C 0.93877 0.624 0.9266 0.0
C259 C 0.8522 0.77823 0.99793 0.0
O260 O 0.86191 0.74989 0.07255 0.0
O261 O 0.84937 0.71154 0.0386 0.0
O262 O 0.9201 0.80571 0.07999 0.0
O263 O 0.87317 0.81174 0.06775 0.0
O264 O 0.94403 0.75166 0.0567 0.0
O265 O 0.90824 0.72208 0.04739 0.0
O266 O 0.92648 0.74006 0.98518 0.0
O267 O 0.92051 0.78939 1.005 0.0
O268 O 0.88305 0.70127 0.95864 0.0
O269 O 0.87887 0.67224 0.99893 0.0
O270 O 0.84073 0.75197 0.99019 0.0
O271 O 0.87864 0.77276 1.00485 0.0
H272 H 0.91708 0.79827 0.13909 0.0
H273 H 0.85403 0.86525 0.1004 0.0
H274 H 0.84025 0.88318 0.15093 0.0
H275 H 0.90315 0.81597 0.18992 0.0
H276 H 0.93558 0.67188 0.94137 0.0
H277 H 0.86191 0.61472 0.96415 0.0
H278 H 0.88629 0.57001 0.93951 0.0
H279 H 0.96008 0.62712 0.91593 0.0
Gd280 Gd 0.54284 0.62419 0.23087 0.0
Gd281 Gd 0.49994 0.6491 0.28009 0.0
C282 C 0.55937 0.68621 0.27114 0.0
C283 C 0.57613 0.62142 0.18323 0.0
C284 C 0.60682 0.62913 0.17541 0.0
C285 C 0.62817 0.63408 0.19797 0.0
C286 C 0.6141 0.63434 0.14508 0.0
C287 C 0.66363 0.65043 0.15985 0.0
C288 C 0.64218 0.64486 0.13735 0.0
C289 C 0.65635 0.64447 0.19026 0.0
C290 C 0.54987 0.5941 0.28348 0.0
C291 C 0.48412 0.58753 0.2445 0.0
C292 C 0.46565 0.65577 0.3268 0.0
C293 C 0.45413 0.63704 0.35223 0.0
C294 C 0.42347 0.63241 0.35456 0.0
C295 C 0.47308 0.62535 0.37534 0.0
C296 C 0.43095 0.60504 0.40256 0.0
C297 C 0.46166 0.60924 0.40002 0.0
C298 C 0.41198 0.61669 0.37949 0.0
C299 C 0.49126 0.67219 0.22285 0.0
O300 O 0.56581 0.66708 0.24841 0.0
O301 O 0.53545 0.68326 0.28785 0.0
O302 O 0.57262 0.5976 0.20136 0.0
O303 O 0.55876 0.64545 0.18992 0.0
O304 O 0.55574 0.58177 0.25728 0.0
O305 O 0.5437 0.62317 0.28109 0.0
O306 O 0.48656 0.59956 0.27184 0.0
O307 O 0.50078 0.59759 0.22198 0.0
O308 O 0.45558 0.64999 0.29961 0.0
O309 O 0.49403 0.66146 0.32709 0.0
O310 O 0.48588 0.68889 0.24683 0.0
O311 O 0.49848 0.64521 0.23099 0.0
H312 H 0.62286 0.63051 0.22157 0.0
H313 H 0.59775 0.63109 0.12739 0.0
H314 H 0.64667 0.64966 0.11379 0.0
H315 H 0.67233 0.64807 0.20819 0.0
H316 H 0.40828 0.64144 0.33732 0.0
H317 H 0.49669 0.6292 0.37485 0.0
H318 H 0.4768 0.60096 0.41762 0.0
H319 H 0.38821 0.61369 0.38076 0.0
Gd320 Gd 0.22665 0.52616 0.15134 0.0
Gd321 Gd 0.2709 0.47469 0.13185 0.0
C322 C 0.21534 0.49062 0.08935 0.0
C323 C 0.19344 0.57448 0.16413 0.0
C324 C 0.16224 0.58291 0.1566 0.0
C325 C 0.14437 0.56156 0.14156 0.0
C326 C 0.15122 0.61343 0.16129 0.0
C327 C 0.10534 0.60177 0.13446 0.0
C328 C 0.12303 0.62278 0.15039 0.0
C329 C 0.11612 0.57085 0.13071 0.0
C330 C 0.21151 0.46708 0.16593 0.0
C331 C 0.28776 0.51438 0.19 0.0
C332 C 0.30439 0.425 0.12665 0.0
C333 C 0.31983 0.4012 0.14584 0.0
C334 C 0.35075 0.39694 0.14349 0.0
C335 C 0.30414 0.38133 0.16495 0.0
C336 C 0.34993 0.35189 0.17713 0.0
C337 C 0.31906 0.35691 0.18044 0.0
C338 C 0.36566 0.37272 0.15907 0.0
C339 C 0.27742 0.5316 0.10562 0.0
O340 O 0.21355 0.51807 0.10283 0.0
O341 O 0.23246 0.46765 0.10033 0.0
O342 O 0.19807 0.55123 0.18315 0.0
O343 O 0.21113 0.57308 0.14069 0.0
O344 O 0.19314 0.48843 0.15567 0.0
O345 O 0.23703 0.47799 0.16792 0.0
O346 O 0.29075 0.48698 0.17668 0.0
O347 O 0.26613 0.53482 0.1824 0.0
O348 O 0.31491 0.45314 0.12692 0.0
O349 O 0.27524 0.42485 0.1257 0.0
O350 O 0.28308 0.50565 0.09139 0.0
O351 O 0.27085 0.52553 0.13223 0.0
H352 H 0.15269 0.53799 0.13728 0.0
H353 H 0.16477 0.63031 0.1726 0.0
H354 H 0.11526 0.64664 0.15404 0.0
H355 H 0.10327 0.55418 0.1183 0.0
H356 H 0.36337 0.41197 0.129 0.0
H357 H 0.28025 0.38408 0.16735 0.0
H358 H 0.30623 0.34127 0.19404 0.0
H359 H 0.38953 0.37001 0.15654 0.0
Gd360 Gd 0.73271 0.98239 0.87812 0.0
Gd361 Gd 0.76977 0.03641 0.90096 0.0
C362 C 0.70699 0.02847 0.93154 0.0
C363 C 0.69956 0.93499 0.86895 0.0
C364 C 0.67257 0.92091 0.88066 0.0
C365 C 0.65169 0.93816 0.8979 0.0
C366 C 0.66674 0.89013 0.8727 0.0
C367 C 0.61828 0.89467 0.89679 0.0
C368 C 0.63982 0.87714 0.88061 0.0
C369 C 0.62476 0.92504 0.9061 0.0
C370 C 0.73294 0.033 0.84217 0.0
C371 C 0.79822 0.98738 0.8526 0.0
C372 C 0.79929 0.08727 0.9046 0.0
C373 C 0.82059 0.10714 0.88838 0.0
C374 C 0.85127 0.10384 0.89416 0.0
C375 C 0.81022 0.13224 0.87011 0.0
C376 C 0.86029 0.15199 0.86654 0.0
C377 C 0.82986 0.15432 0.85919 0.0
C378 C 0.87085 0.12589 0.88329 0.0
C379 C 0.7723 0.98445 0.93633 0.0
O380 O 0.70573 1.00119 0.91767 0.0
O381 O 0.72844 0.04797 0.92645 0.0
O382 O 0.69584 0.96172 0.85494 0.0
O383 O 0.72304 0.93387 0.88644 0.0
O384 O 0.7333 1.00464 0.83213 0.0
O385 O 0.73128 0.03332 0.8706 0.0
O386 O 0.79787 0.01617 0.86327 0.0
O387 O 0.77662 0.96799 0.85797 0.0
O388 O 0.80904 0.06046 0.91574 0.0
O389 O 0.77222 0.0862 0.89381 0.0
O390 O 0.77443 1.01273 0.94657 0.0
O391 O 0.77161 0.98521 0.90787 0.0
H392 H 0.65581 0.96203 0.90409 0.0
H393 H 0.68264 0.87644 0.85951 0.0
H394 H 0.63551 0.85357 0.87343 0.0
H395 H 0.60847 0.93909 0.91842 0.0
H396 H 0.86008 0.08495 0.90821 0.0
H397 H 0.78669 0.13569 0.86538 0.0
H398 H 0.82094 0.17419 0.84653 0.0
H399 H 0.89423 0.12311 0.88899 0.0
Gd400 Gd 0.74094 0.98472 0.39942 0.0
Gd401 Gd 0.79404 0.02821 0.3914 0.0
C402 C 0.79497 0.96596 0.35232 0.0
C403 C 0.69414 0.95219 0.3904 0.0
C404 C 0.68499 0.92245 0.3772 0.0
C405 C 0.70584 0.89913 0.36851 0.0
C406 C 0.65469 0.91798 0.37204 0.0
C407 C 0.66587 0.86703 0.34957 0.0
C408 C 0.64521 0.89063 0.3584 0.0
C409 C 0.69636 0.87164 0.35486 0.0
C410 C 0.7863 0.97488 0.43856 0.0
C411 C 0.74035 0.05044 0.43608 0.0
C412 C 0.84127 0.0592 0.39985 0.0
C413 C 0.86859 0.07661 0.40527 0.0
C414 C 0.87642 0.10077 0.38573 0.0
C415 C 0.88772 0.06832 0.4294 0.0
C416 C 0.92275 0.10727 0.41361 0.0
C417 C 0.91454 0.08343 0.4335 0.0
C418 C 0.90311 0.11604 0.38994 0.0
C419 C 0.74594 0.03949 0.35478 0.0
O420 O 0.76661 0.96277 0.35965 0.0
O421 O 0.81139 0.98722 0.36514 0.0
O422 O 0.70978 0.95088 0.41548 0.0
O423 O 0.70354 0.97289 0.37123 0.0
O424 O 0.75861 0.97104 0.44548 0.0
O425 O 0.78871 0.98139 0.41087 0.0
O426 O 0.76914 0.05159 0.4303 0.0
O427 O 0.72388 0.02855 0.42373 0.0
O428 O 0.82674 0.06003 0.37404 0.0
O429 O 0.82968 0.04203 0.42101 0.0
O430 O 0.77291 0.04534 0.34654 0.0
O431 O 0.74648 0.03117 0.38178 0.0
H432 H 0.72938 0.90227 0.37211 0.0
H433 H 0.6383 0.9359 0.37824 0.0
H434 H 0.62166 0.88831 0.35421 0.0
H435 H 0.71291 0.85392 0.34863 0.0
H436 H 0.86199 0.10778 0.36706 0.0
H437 H 0.88233 0.04961 0.44472 0.0
H438 H 0.92919 0.07578 0.45175 0.0
H439 H 0.90834 0.13473 0.37455 0.0
Gd440 Gd 0.29346 0.5016 0.63785 0.0
Gd441 Gd 0.25831 0.55707 0.61049 0.0
C442 C 0.32079 0.53934 0.58233 0.0
C443 C 0.32006 0.44922 0.65172 0.0
C444 C 0.35122 0.43858 0.64678 0.0
C445 C 0.36103 0.40829 0.65475 0.0
C446 C 0.3707 0.45801 0.63153 0.0
C447 C 0.40924 0.41656 0.6311 0.0
C448 C 0.39927 0.44713 0.62366 0.0
C449 C 0.3898 0.39742 0.64713 0.0
C450 C 0.30921 0.55839 0.65878 0.0
C451 C 0.2271 0.51811 0.6633 0.0
C452 C 0.22991 0.60889 0.59789 0.0
C453 C 0.21253 0.6345 0.61203 0.0
C454 C 0.19883 0.65708 0.59329 0.0
C455 C 0.21132 0.6382 0.64357 0.0
C456 C 0.18498 0.68843 0.63717 0.0
C457 C 0.19755 0.66501 0.65609 0.0
C458 C 0.18514 0.68373 0.60569 0.0
C459 C 0.255 0.50203 0.58054 0.0
O460 O 0.318 0.51139 0.59443 0.0
O461 O 0.30319 0.56301 0.59036 0.0
O462 O 0.31565 0.47175 0.67142 0.0
O463 O 0.30464 0.45361 0.62677 0.0
O464 O 0.32769 0.53516 0.65398 0.0
O465 O 0.28318 0.55012 0.65319 0.0
O466 O 0.22774 0.54459 0.64799 0.0
O467 O 0.24952 0.49707 0.66263 0.0
O468 O 0.21766 0.58167 0.59612 0.0
O469 O 0.25824 0.60703 0.6049 0.0
O470 O 0.25596 0.52868 0.56671 0.0
O471 O 0.25473 0.50635 0.6084 0.0
H472 H 0.34629 0.39287 0.66639 0.0
H473 H 0.36351 0.48141 0.62495 0.0
H474 H 0.41318 0.46247 0.61091 0.0
H475 H 0.39673 0.37394 0.65371 0.0
H476 H 0.19946 0.65454 0.56891 0.0
H477 H 0.22168 0.62084 0.65839 0.0
H478 H 0.19774 0.66795 0.68041 0.0
H479 H 0.17507 0.70097 0.59053 0.0
H480 H 0.18789 0.33299 0.57087 0.0
H481 H 0.22316 0.32721 0.47986 0.0
H482 H 0.24893 0.37627 0.48761 0.0
H483 H 0.1717 0.41129 0.57078 0.0
H484 H 0.1826 0.41919 0.60922 0.0
H485 H 0.17091 0.38092 0.59901 0.0
H486 H 0.22055 0.3564 0.6192 0.0
H487 H 0.23216 0.39463 0.63004 0.0
H488 H 0.25529 0.37068 0.60562 0.0
H489 H 0.26305 0.43027 0.50136 0.0
H490 H 0.27055 0.48253 0.52362 0.0
H491 H 0.2289 0.45254 0.60648 0.0
C492 C 0.20211 0.34138 0.55314 0.0
C493 C 0.20361 0.32625 0.52483 0.0
C494 C 0.22171 0.33844 0.50176 0.0
C495 C 0.23644 0.36633 0.50591 0.0
C496 C 0.23325 0.38166 0.53343 0.0
C497 C 0.21716 0.36931 0.55698 0.0
C498 C 0.2157 0.39168 0.5835 0.0
C499 C 0.18331 0.40133 0.59104 0.0
C500 C 0.2319 0.3775 0.61123 0.0
C501 C 0.23239 0.41882 0.57063 0.0
C502 C 0.24234 0.4126 0.54172 0.0
C503 C 0.25603 0.43519 0.52428 0.0
C504 C 0.26 0.46482 0.53691 0.0
C505 C 0.25056 0.47131 0.5667 0.0
C506 C 0.23677 0.44794 0.58375 0.0
H507 H 0.85549 0.99978 0.86673 0.0
H508 H 0.8013 0.94765 0.80463 0.0
H509 H 0.84692 0.92596 0.78028 0.0
H510 H 0.91585 0.01693 0.81561 0.0
H511 H 0.94433 1.01079 0.84401 0.0
H512 H 0.90755 0.02427 0.85485 0.0
H513 H 0.90417 0.97768 0.89196 0.0
H514 H 0.94089 0.964 0.8812 0.0
H515 H 0.91001 0.93847 0.87805 0.0
H516 H 0.89758 0.91002 0.76326 0.0
H517 H 0.95038 0.89705 0.75653 0.0
H518 H 0.97282 0.95617 0.83185 0.0
C519 C 0.85332 0.98422 0.84764 0.0
C520 C 0.82506 0.9757 0.83702 0.0
C521 C 0.82286 0.95455 0.81275 0.0
C522 C 0.84857 0.94223 0.79883 0.0
C523 C 0.87614 0.95089 0.80998 0.0
C524 C 0.87875 0.97108 0.83404 0.0
C525 C 0.91105 0.97471 0.843 0.0
C526 C 0.92023 1.0087 0.83912 0.0
C527 C 0.91686 0.96301 0.87548 0.0
C528 C 0.92625 0.9535 0.82004 0.0
C529 C 0.90559 0.94041 0.80105 0.0
C530 C 0.91395 0.92029 0.77785 0.0
C531 C 0.9442 0.91335 0.77389 0.0
C532 C 0.96584 0.92604 0.79311 0.0
C533 C 0.95671 0.9462 0.81673 0.0
H534 H 0.34282 0.66541 1.00193 0.0
H535 H 0.32668 0.72864 0.07715 0.0
H536 H 0.30183 0.6867 0.10468 0.0
H537 H 0.27368 0.62218 1.00811 0.0
H538 H 0.29202 0.58548 0.99873 0.0
H539 H 0.30557 0.62135 0.98358 0.0
H540 H 0.35779 0.60782 1.00586 0.0
H541 H 0.34441 0.57205 0.02123 0.0
H542 H 0.36165 0.59976 0.04575 0.0
H543 H 0.28274 0.63748 0.12548 0.0
H544 H 0.27038 0.58395 0.13894 0.0
H545 H 0.29923 0.5516 0.05052 0.0
C546 C 0.33352 0.67074 0.02394 0.0
C547 C 0.3365 0.70047 0.03732 0.0
C548 C 0.32453 0.70616 0.06639 0.0
C549 C 0.31035 0.68249 0.08216 0.0
C550 C 0.30834 0.65333 0.06852 0.0
C551 C 0.31952 0.64735 0.04004 0.0
C552 C 0.3163 0.61338 0.0314 0.0
C553 C 0.29566 0.61044 1.00382 0.0
C554 C 0.34686 0.59732 0.02574 0.0
C555 C 0.30205 0.60098 0.05976 0.0
C556 C 0.29745 0.62459 0.08069 0.0
C557 C 0.28584 0.61892 0.10914 0.0
C558 C 0.27886 0.58835 0.11651 0.0
C559 C 0.28352 0.56363 0.09562 0.0
C560 C 0.2951 0.57009 0.06676 0.0
H561 H 0.57006 0.06925 0.34546 0.0
H562 H 0.58358 0.1152 0.25996 0.0
H563 H 0.63709 0.10217 0.26242 0.0
H564 H 0.6371 0.09564 0.38043 0.0
H565 H 0.64395 0.05986 0.40119 0.0
H566 H 0.60651 0.07197 0.39119 0.0
H567 H 0.6 0.01842 0.36478 0.0
H568 H 0.63777 1.00687 0.37428 0.0
H569 H 0.62555 1.00634 0.33543 0.0
H570 H 0.69024 0.08556 0.27544 0.0
H571 H 0.73819 0.06745 0.29877 0.0
H572 H 0.68992 0.03299 0.37593 0.0
C573 C 0.5843 0.07624 0.32716 0.0
C574 C 0.57238 0.09209 0.3016 0.0
C575 C 0.59185 0.10136 0.27853 0.0
C576 C 0.62248 0.09456 0.28014 0.0
C577 C 0.63355 0.07843 0.30527 0.0
C578 C 0.61508 0.06944 0.32846 0.0
C579 C 0.63282 0.05314 0.35339 0.0
C580 C 0.62993 0.07125 0.3833 0.0
C581 C 0.62347 0.01918 0.35718 0.0
C582 C 0.66396 0.05462 0.34063 0.0
C583 C 0.66403 0.06925 0.31285 0.0
C584 C 0.69046 0.0739 0.29717 0.0
C585 C 0.71756 0.06352 0.31047 0.0
C586 C 0.71785 0.04872 0.33907 0.0
C587 C 0.69058 0.04403 0.35396 0.0
H588 H 0.71898 0.21242 0.52654 0.0
H589 H 0.66359 0.24335 0.45109 0.0
H590 H 0.67149 0.19214 0.42652 0.0
H591 H 0.77312 0.16604 0.47835 0.0
H592 H 0.77882 0.13644 0.507 0.0
H593 H 0.77008 0.17618 0.51779 0.0
H594 H 0.72546 0.15713 0.54872 0.0
H595 H 0.73347 0.11744 0.5373 0.0
H596 H 0.69723 0.13518 0.53012 0.0
H597 H 0.67822 0.13573 0.41447 0.0
H598 H 0.69589 0.08144 0.40685 0.0
H599 H 0.75279 0.08732 0.4859 0.0
C600 C 0.70956 0.20869 0.50431 0.0
C601 C 0.69105 0.23191 0.49037 0.0
C602 C 0.67834 0.22603 0.46171 0.0
C603 C 0.68235 0.19689 0.44783 0.0
C604 C 0.69961 0.17398 0.46266 0.0
C605 C 0.7141 0.17983 0.4896 0.0
C606 C 0.73221 0.15111 0.49997 0.0
C607 C 0.76554 0.15784 0.50082 0.0
C608 C 0.72144 0.13954 0.53086 0.0
C609 C 0.72506 0.12815 0.47498 0.0
C610 C 0.70552 0.14176 0.45424 0.0
C611 C 0.694 0.125 0.4302 0.0
C612 C 0.70381 0.09394 0.42633 0.0
C613 C 0.72546 0.08002 0.44589 0.0
C614 C 0.73605 0.09731 0.47074 0.0
H615 H 0.11082 0.41408 0.75115 0.0
H616 H 0.04062 0.47293 0.71148 0.0
H617 H 0.07872 0.50635 0.68886 0.0
H618 H 0.16327 0.47383 0.76761 0.0
H619 H 0.19521 0.44986 0.75706 0.0
H620 H 0.16253 0.43204 0.77169 0.0
H621 H 0.15964 0.39746 0.72381 0.0
H622 H 0.19236 0.41504 0.7091 0.0
H623 H 0.15857 0.41564 0.687 0.0
H624 H 0.12448 0.53356 0.67183 0.0
H625 H 0.17373 0.54905 0.65512 0.0
H626 H 0.21455 0.46954 0.70246 0.0
C627 C 0.10342 0.43426 0.73802 0.0
C628 C 0.07277 0.44139 0.73349 0.0
C629 C 0.06398 0.46733 0.7154 0.0
C630 C 0.08545 0.48642 0.70263 0.0
C631 C 0.11551 0.47882 0.70777 0.0
C632 C 0.12448 0.45304 0.72459 0.0
C633 C 0.1581 0.4486 0.72491 0.0
C634 C 0.1705 0.45124 0.75724 0.0
C635 C 0.16772 0.41734 0.71033 0.0
C636 C 0.1668 0.476 0.70558 0.0
C637 C 0.14187 0.4934 0.69644 0.0
C638 C 0.1441 0.52002 0.67874 0.0
C639 C 0.17237 0.52868 0.66951 0.0
C640 C 0.19828 0.51053 0.67743 0.0
C641 C 0.19533 0.48398 0.69605 0.0
H642 H 0.75641 0.92345 0.92885 0.0
H643 H 0.81315 0.98238 0.98172 0.0
H644 H 0.83692 0.93554 1.00512 0.0
H645 H 0.74709 0.86369 0.98971 0.0
H646 H 0.74687 0.83189 0.96313 0.0
H647 H 0.73264 0.87005 0.95201 0.0
H648 H 0.76877 0.86964 0.9067 0.0
H649 H 0.78336 0.83168 0.91775 0.0
H650 H 0.8081 0.86356 0.91338 0.0
H651 H 0.8611 0.88427 0.01356 0.0
H652 H 0.87851 0.83013 0.01665 0.0
H653 H 0.80112 0.80088 0.96675 0.0
C654 C 0.77339 0.92646 0.94571 0.0
C655 C 0.78302 0.95655 0.95336 0.0
C656 C 0.80531 0.9596 0.97567 0.0
C657 C 0.819 0.93313 0.98898 0.0
C658 C 0.80952 0.90381 0.98035 0.0
C659 C 0.78667 0.90018 0.95993 0.0
C660 C 0.7812 0.86572 0.9546 0.0
C661 C 0.7501 0.85734 0.96552 0.0
C662 C 0.78563 0.85716 0.92112 0.0
C663 C 0.8054 0.85059 0.97441 0.0
C664 C 0.82157 0.87333 0.98855 0.0
C665 C 0.84763 0.86616 1.00423 0.0
C666 C 0.85712 0.835 1.00625 0.0
C667 C 0.84001 0.81071 0.99427 0.0
C668 C 0.8138 0.81868 0.9777 0.0
H669 H 0.44232 0.59787 0.20042 0.0
H670 H 0.4646 0.5385 0.27718 0.0
H671 H 0.41538 0.51451 0.27333 0.0
H672 H 0.36791 0.61406 0.22259 0.0
H673 H 0.35271 0.61478 0.18478 0.0
H674 H 0.39078 0.62482 0.19113 0.0
H675 H 0.40881 0.58239 0.15319 0.0
H676 H 0.37073 0.57282 0.14618 0.0
H677 H 0.39733 0.54282 0.15805 0.0
H678 H 0.36356 0.49679 0.26057 0.0
H679 H 0.3134 0.48693 0.23985 0.0
H680 H 0.32279 0.56222 0.17558 0.0
C681 C 0.43715 0.57906 0.21571 0.0
C682 C 0.45753 0.5692 0.23848 0.0
C683 C 0.44951 0.5457 0.25911 0.0
C684 C 0.42154 0.53217 0.25723 0.0
C685 C 0.40156 0.54299 0.23505 0.0
C686 C 0.40899 0.56593 0.21466 0.0
C687 C 0.38286 0.57475 0.19419 0.0
C688 C 0.37299 0.60914 0.19844 0.0
C689 C 0.39038 0.56776 0.16094 0.0
C690 C 0.35965 0.55306 0.20608 0.0
C691 C 0.37094 0.53472 0.22949 0.0
C692 C 0.35431 0.51142 0.24265 0.0
C693 C 0.32577 0.50616 0.23102 0.0
C694 C 0.31387 0.52468 0.20709 0.0
C695 C 0.33087 0.54874 0.19488 0.0
H696 H 0.51952 0.22766 0.33394 0.0
H697 H 0.58685 0.15415 0.32057 0.0
H698 H 0.60714 0.16385 0.37116 0.0
H699 H 0.57184 0.27974 0.3749 0.0
H700 H 0.54303 0.29509 0.39942 0.0
H701 H 0.53391 0.28289 0.3616 0.0
H702 H 0.49496 0.24607 0.38357 0.0
H703 H 0.50446 0.25755 0.42148 0.0
H704 H 0.50648 0.21692 0.41105 0.0
H705 H 0.61443 0.1748 0.42539 0.0
H706 H 0.61994 0.1973 0.47588 0.0
H707 H 0.55469 0.27074 0.4531 0.0
C708 C 0.53904 0.21428 0.34141 0.0
C709 C 0.55145 0.18995 0.32334 0.0
C710 C 0.57695 0.17288 0.33386 0.0
C711 C 0.58853 0.17804 0.36274 0.0
C712 C 0.57508 0.20121 0.38046 0.0
C713 C 0.55184 0.22009 0.36985 0.0
C714 C 0.54278 0.24443 0.39338 0.0
C715 C 0.54822 0.2775 0.38163 0.0
C716 C 0.51023 0.24102 0.40293 0.0
C717 C 0.56404 0.23552 0.41907 0.0
C718 C 0.58178 0.20993 0.41118 0.0
C719 C 0.60136 0.19544 0.43158 0.0
C720 C 0.60405 0.2083 0.4604 0.0
C721 C 0.58808 0.23613 0.4684 0.0
C722 C 0.56742 0.24968 0.44753 0.0
H723 H 0.08894 0.34108 0.56804 0.0
H724 H 0.08413 0.2404 0.56333 0.0
H725 H 0.06824 0.23891 0.61673 0.0
H726 H 0.11587 0.34574 0.64425 0.0
H727 H 0.09377 0.38023 0.6534 0.0
H728 H 0.10521 0.37325 0.61496 0.0
H729 H 0.05019 0.37744 0.59721 0.0
H730 H 0.03865 0.38455 0.6356 0.0
H731 H 0.02325 0.35293 0.61453 0.0
H732 H 0.05495 0.24855 0.67226 0.0
H733 H 0.04134 0.2692 0.72307 0.0
H734 H 0.05118 0.36343 0.68972 0.0
C735 C 0.08437 0.31877 0.57822 0.0
C736 C 0.08829 0.2908 0.56168 0.0
C737 C 0.08179 0.26209 0.57574 0.0
C738 C 0.07268 0.261 0.60607 0.0
C739 C 0.06952 0.28893 0.62199 0.0
C740 C 0.07478 0.31733 0.60839 0.0
C741 C 0.06909 0.34403 0.63022 0.0
C742 C 0.09768 0.36186 0.63605 0.0
C743 C 0.04379 0.36603 0.6187 0.0
C744 C 0.05985 0.32628 0.65815 0.0
C745 C 0.06056 0.29449 0.65319 0.0
C746 C 0.054 0.27345 0.67627 0.0
C747 C 0.04635 0.2853 0.70504 0.0
C748 C 0.04488 0.31783 0.71025 0.0
C749 C 0.05168 0.3384 0.68637 0.0
H750 H 0.02161 0.79778 0.82974 0.0
H751 H 0.94291 0.85043 0.79914 0.0
H752 H 0.91797 0.83875 0.8469 0.0
H753 H 0.97872 0.73623 0.86958 0.0
H754 H 1.00607 0.73202 0.89935 0.0
H755 H 1.0173 0.74279 0.86178 0.0
H756 H 0.04182 0.79166 0.88367 0.0
H757 H 0.0301 0.78147 0.9212 0.0
H758 H 0.01973 0.81916 0.90556 0.0
H759 H 0.90446 0.82893 0.90032 0.0
H760 H 0.898 0.81094 0.95271 0.0
H761 H 0.98206 0.75861 0.94829 0.0
C762 C 0.99882 0.80605 0.83274 0.0
C763 C 0.98435 0.82521 0.81056 0.0
C764 C 0.95456 0.83569 0.81552 0.0
C765 C 0.9402 0.82935 0.84278 0.0
C766 C 0.9555 0.81166 0.86463 0.0
C767 C 0.9837 0.79913 0.85961 0.0
C768 C 0.99476 0.78047 0.88702 0.0
C769 C 0.99949 0.74582 0.87895 0.0
C770 C 0.0233 0.79401 0.90012 0.0
C771 C 0.96873 0.78539 0.90849 0.0
C772 C 0.94661 0.80394 0.89511 0.0
C773 C 0.92131 0.81384 0.91083 0.0
C774 C 0.91802 0.80379 0.94072 0.0
C775 C 0.93956 0.78351 0.95456 0.0
C776 C 0.96528 0.77412 0.93821 0.0
H777 H 0.46589 0.72648 0.19615 0.0
H778 H 0.50605 0.63561 0.1756 0.0
H779 H 0.50403 0.64742 0.12171 0.0
H780 H 0.41263 0.72081 0.13578 0.0
H781 H 0.41129 0.7618 0.12659 0.0
H782 H 0.4204 0.74924 0.16449 0.0
H783 H 0.46926 0.77922 0.16197 0.0
H784 H 0.46062 0.79151 0.12382 0.0
H785 H 0.4953 0.77089 0.13196 0.0
H786 H 0.49835 0.6677 0.07011 0.0
H787 H 0.47828 0.69048 0.02266 0.0
H788 H 0.43418 0.76466 0.07371 0.0
C789 C 0.47475 0.70947 0.18024 0.0
C790 C 0.48795 0.68085 0.19041 0.0
C791 C 0.49759 0.65844 0.16874 0.0
C792 C 0.4964 0.66482 0.13785 0.0
C793 C 0.48413 0.69331 0.12847 0.0
C794 C 0.47245 0.71492 0.14877 0.0
C795 C 0.45637 0.74149 0.13184 0.0
C796 C 0.4232 0.74343 0.14017 0.0
C797 C 0.47128 0.77263 0.13776 0.0
C798 C 0.46081 0.73101 0.09923 0.0
C799 C 0.47775 0.70366 0.09797 0.0
C800 C 0.48495 0.68912 0.07067 0.0
C801 C 0.47362 0.7023 0.04381 0.0
C802 C 0.45467 0.72922 0.04458 0.0
C803 C 0.44864 0.74406 0.07258 0.0
H804 H 0.19961 0.37429 0.32049 0.0
H805 H 0.11403 0.34365 0.28862 0.0
H806 H 0.12398 0.36561 0.23826 0.0
H807 H 0.19706 0.44626 0.28392 0.0
H808 H 0.236 0.44636 0.27455 0.0
H809 H 0.22393 0.42479 0.30692 0.0
H810 H 0.24951 0.37452 0.28554 0.0
H811 H 0.26158 0.39599 0.25299 0.0
H812 H 0.24015 0.36161 0.24801 0.0
H813 H 0.13983 0.39701 0.19383 0.0
H814 H 0.16138 0.43443 0.15808 0.0
H815 H 0.2376 0.44313 0.21743 0.0
C816 C 0.18316 0.3718 0.30278 0.0
C817 C 0.1561 0.35701 0.30852 0.0
C818 C 0.13514 0.35432 0.28471 0.0
C819 C 0.14055 0.36683 0.256 0.0
C820 C 0.1672 0.38168 0.25124 0.0
C821 C 0.18833 0.38395 0.27386 0.0
C822 C 0.21429 0.40281 0.26335 0.0
C823 C 0.21802 0.43177 0.28337 0.0
C824 C 0.24309 0.38251 0.26242 0.0
C825 C 0.20391 0.41178 0.23174 0.0
C826 C 0.17677 0.39913 0.22512 0.0
C827 C 0.16138 0.40646 0.19845 0.0
C828 C 0.17374 0.42771 0.17829 0.0
C829 C 0.20129 0.44116 0.1848 0.0
C830 C 0.21687 0.43249 0.21152 0.0
H831 H 0.86271 0.9166 0.59231 0.0
H832 H 0.94839 0.92388 0.54866 0.0
H833 H 0.92313 0.94355 0.50222 0.0
H834 H 0.8232 0.88946 0.5274 0.0
H835 H 0.78935 0.91102 0.53651 0.0
H836 H 0.8144 0.89824 0.56626 0.0
H837 H 0.81722 0.9552 0.5853 0.0
H838 H 0.79228 0.96818 0.55551 0.0
H839 H 0.82811 0.98531 0.5595 0.0
H840 H 0.88789 0.96172 0.46 0.0
H841 H 0.84582 0.97613 0.42581 0.0
H842 H 0.78374 0.95638 0.49752 0.0
C843 C 0.87623 0.92198 0.57292 0.0
C844 C 0.90759 0.91853 0.57416 0.0
C845 C 0.92437 0.92654 0.54839 0.0
C846 C 0.91021 0.93763 0.52187 0.0
C847 C 0.87925 0.94068 0.52148 0.0
C848 C 0.8625 0.93305 0.54637 0.0
C849 C 0.82957 0.93819 0.54022 0.0
C850 C 0.81317 0.90739 0.54274 0.0
C851 C 0.81601 0.96321 0.56139 0.0
C852 C 0.83031 0.94969 0.50787 0.0
C853 C 0.85914 0.95109 0.49742 0.0
C854 C 0.86525 0.96075 0.46801 0.0
C855 C 0.84125 0.96892 0.44877 0.0
C856 C 0.81158 0.9674 0.45907 0.0
C857 C 0.80619 0.95783 0.48905 0.0
H858 H 0.3573 0.56278 0.69635 0.0
H859 H 0.27524 0.61113 0.66945 0.0
H860 H 0.28327 0.65104 0.70883 0.0
H861 H 0.34664 0.57178 0.77398 0.0
H862 H 0.3853 0.57654 0.78312 0.0
H863 H 0.3752 0.55453 0.75027 0.0
H864 H 0.40651 0.59023 0.71649 0.0
H865 H 0.41682 0.61234 0.74931 0.0
H866 H 0.39957 0.63187 0.71729 0.0
H867 H 0.29885 0.68355 0.75372 0.0
H868 H 0.31943 0.70493 0.80089 0.0
H869 H 0.38951 0.63277 0.80007 0.0
C870 C 0.34142 0.58222 0.69823 0.0
C871 C 0.31579 0.58417 0.67965 0.0
C872 C 0.2951 0.60944 0.68334 0.0
C873 C 0.29953 0.63218 0.70561 0.0
C874 C 0.32471 0.62918 0.72409 0.0
C875 C 0.34529 0.60478 0.72061 0.0
C876 C 0.36904 0.60522 0.745 0.0
C877 C 0.36902 0.57525 0.76423 0.0
C878 C 0.3998 0.61022 0.73119 0.0
C879 C 0.35843 0.63339 0.76304 0.0
C880 C 0.33306 0.64716 0.75043 0.0
C881 C 0.31877 0.67298 0.76371 0.0
C882 C 0.33052 0.68482 0.79068 0.0
C883 C 0.35617 0.67064 0.80444 0.0
C884 C 0.3703 0.64471 0.79004 0.0
H885 H 0.64212 0.12583 0.07044 0.0
H886 H 0.57457 0.05651 0.0792 0.0
H887 H 0.59235 0.0313 0.03222 0.0
H888 H 0.64175 0.13053 0.98726 0.0
H889 H 0.68148 0.13441 0.98561 0.0
H890 H 0.66104 0.14907 0.01782 0.0
H891 H 0.69522 0.1156 0.05344 0.0
H892 H 0.71562 0.10073 0.02139 0.0
H893 H 0.699 0.0741 0.04741 0.0
H894 H 0.62109 1.01033 0.98737 0.0
H895 H 0.65724 0.99666 0.94729 0.0
H896 H 0.70591 0.07966 0.96842 0.0
C897 C 0.6308 0.10559 0.06229 0.0
C898 C 0.60685 0.09327 0.07845 0.0
C899 C 0.59261 0.06675 0.06695 0.0
C900 C 0.60267 0.05214 0.04036 0.0
C901 C 0.62685 0.06443 0.02545 0.0
C902 C 0.64055 0.09073 0.03588 0.0
C903 C 0.66722 0.09821 0.01682 0.0
C904 C 0.66258 0.12994 1.00093 0.0
C905 C 0.69595 0.09708 0.03591 0.0
C906 C 0.66678 0.07162 0.99443 0.0
C907 C 0.64327 0.05246 0.99963 0.0
C908 C 0.63933 0.02544 0.9828 0.0
C909 C 0.66002 0.01783 0.96009 0.0
C910 C 0.68432 0.03717 0.95446 0.0
C911 C 0.68743 0.06452 0.97181 0.0
H912 H 0.70465 0.11733 0.68522 0.0
H913 H 0.6843 0.20279 0.73438 0.0
H914 H 0.69986 0.17664 0.78211 0.0
H915 H 0.67693 0.06673 0.73781 0.0
H916 H 0.70503 0.03631 0.73252 0.0
H917 H 0.69579 0.0628 0.70207 0.0
H918 H 0.75098 0.07781 0.69821 0.0
H919 H 0.76048 0.05115 0.7286 0.0
H920 H 0.76998 0.09155 0.73136 0.0
H921 H 0.71306 0.13927 0.82501 0.0
H922 H 0.72249 0.09397 0.859 0.0
H923 H 0.73512 0.03405 0.78093 0.0
C924 C 0.70432 0.1309 0.70585 0.0
C925 C 0.69346 0.16217 0.70604 0.0
C926 C 0.69244 0.17875 0.73373 0.0
C927 C 0.70142 0.16416 0.7609 0.0
C928 C 0.71152 0.13309 0.75992 0.0
C929 C 0.71318 0.11676 0.73303 0.0
C930 C 0.72267 0.08301 0.73815 0.0
C931 C 0.69867 0.06093 0.72699 0.0
C932 C 0.75282 0.07545 0.72319 0.0
C933 C 0.72529 0.08261 0.77222 0.0
C934 C 0.71911 0.11174 0.78445 0.0
C935 C 0.7184 0.11648 0.81565 0.0
C936 C 0.72382 0.09068 0.83477 0.0
C937 C 0.72975 0.06067 0.82251 0.0
C938 C 0.73089 0.05681 0.7909 0.0
H939 H 0.21702 0.43874 0.05311 0.0
H940 H 0.17483 0.53084 0.06161 0.0
H941 H 0.14652 0.52207 0.0145 0.0
H942 H 0.22416 0.43956 0.97188 0.0
H943 H 0.21644 0.3988 0.96796 0.0
H944 H 0.23359 0.41262 1.00206 0.0
H945 H 0.19153 0.38923 0.03391 0.0
H946 H 0.17427 0.3753 0.99992 0.0
H947 H 0.15334 0.40017 0.02547 0.0
H948 H 0.12175 0.50234 0.96675 0.0
H949 H 0.10234 0.47321 0.92317 0.0
H950 H 0.16232 0.39498 0.94545 0.0
C951 C 0.20187 0.45714 0.04513 0.0
C952 C 0.19819 0.4855 0.06114 0.0
C953 C 0.17811 0.50892 0.04977 0.0
C954 C 0.16192 0.50417 0.02299 0.0
C955 C 0.16615 0.47593 1.00777 0.0
C956 C 0.18566 0.45285 0.01845 0.0
C957 C 0.18597 0.42446 0.99814 0.0
C958 C 0.21687 0.41853 0.98418 0.0
C959 C 0.17566 0.39559 0.01539 0.0
C960 C 0.16339 0.43504 0.97445 0.0
C961 C 0.15222 0.46479 0.98031 0.0
C962 C 0.13054 0.47911 0.96184 0.0
C963 C 0.11979 0.46243 0.93697 0.0
C964 C 0.13074 0.43172 0.93071 0.0
C965 C 0.15313 0.41821 0.94967 0.0
H966 H 0.77085 0.93626 0.30263 0.0
H967 H 0.85322 0.94781 0.3522 0.0
H968 H 0.88032 0.91621 0.3143 0.0
H969 H 0.78812 0.8557 0.27544 0.0
H970 H 0.77134 0.86296 0.23889 0.0
H971 H 0.75746 0.88361 0.27165 0.0
H972 H 0.76556 0.93623 0.24456 0.0
H973 H 0.77958 0.91577 0.21182 0.0
H974 H 0.80187 0.94444 0.23009 0.0
H975 H 0.89947 0.88665 0.26987 0.0
H976 H 0.90974 0.86215 0.22052 0.0
H977 H 0.81571 0.86974 0.19804 0.0
C978 C 0.79445 0.93153 0.30575 0.0
C979 C 0.80988 0.9444 0.33049 0.0
C980 C 0.84091 0.93827 0.33345 0.0
C981 C 0.85653 0.9202 0.31209 0.0
C982 C 0.84092 0.9084 0.28765 0.0
C983 C 0.8106 0.91374 0.28426 0.0
C984 C 0.79981 0.90007 0.25463 0.0
C985 C 0.77788 0.87404 0.26051 0.0
C986 C 0.78589 0.92566 0.23406 0.0
C987 C 0.8289 0.88697 0.24173 0.0
C988 C 0.85221 0.89166 0.26144 0.0
C989 C 0.88136 0.8825 0.25437 0.0
C990 C 0.88696 0.86841 0.22628 0.0
C991 C 0.8636 0.86374 0.20533 0.0
C992 C 0.83412 0.873 0.21344 0.0
H993 H 0.32109 0.58781 0.54215 0.0
H994 H 0.36825 0.50108 0.56553 0.0
H995 H 0.40224 0.50847 0.52234 0.0
H996 H 0.32385 0.5773 0.46242 0.0
H997 H 0.32835 0.61807 0.45428 0.0
H998 H 0.30894 0.60663 0.48782 0.0
H999 H 0.34494 0.63812 0.5209 0.0
H1000 H 0.36436 0.64982 0.48744 0.0
H1001 H 0.38446 0.63053 0.5179 0.0
H1002 H 0.43114 0.52597 0.47602 0.0
H1003 H 0.45115 0.55087 0.43015 0.0
H1004 H 0.38335 0.62479 0.43674 0.0
C1005 C 0.33876 0.57048 0.53849 0.0
C1006 C 0.34217 0.54398 0.55743 0.0
C1007 C 0.36527 0.52162 0.5514 0.0
C1008 C 0.38468 0.52564 0.52693 0.0
C1009 C 0.38048 0.55198 0.50856 0.0
C1010 C 0.35798 0.57392 0.51405 0.0
C1011 C 0.35737 0.59961 0.49049 0.0
C1012 C 0.32788 0.60043 0.4727 0.0
C1013 C 0.36314 0.63139 0.50506 0.0
C1014 C 0.3831 0.58882 0.4708 0.0
C1015 C 0.39633 0.56142 0.48164 0.0
C1016 C 0.42087 0.54737 0.46734 0.0
C1017 C 0.43212 0.5617 0.44136 0.0
C1018 C 0.41868 0.58964 0.42976 0.0
C1019 C 0.39382 0.6032 0.44477 0.0
H1020 H 0.22284 0.18542 0.46566 0.0
H1021 H 0.19781 0.2779 0.43275 0.0
H1022 H 0.23936 0.27445 0.39572 0.0
H1023 H 0.29981 0.19252 0.46275 0.0
H1024 H 0.30732 0.15284 0.45095 0.0
H1025 H 0.27472 0.16235 0.47289 0.0
H1026 H 0.24133 0.13859 0.43152 0.0
H1027 H 0.27388 0.12868 0.40955 0.0
H1028 H 0.24398 0.15211 0.39302 0.0
H1029 H 0.28739 0.26089 0.36476 0.0
H1030 H 0.3329 0.23755 0.34102 0.0
H1031 H 0.32389 0.15432 0.39555 0.0
C1032 C 0.2258 0.20487 0.45041 0.0
C1033 C 0.20725 0.23194 0.45201 0.0
C1034 C 0.21177 0.25687 0.4317 0.0
C1035 C 0.23537 0.25511 0.41075 0.0
C1036 C 0.25381 0.22814 0.41034 0.0
C1037 C 0.24882 0.20336 0.42948 0.0
C1038 C 0.27159 0.17707 0.4254 0.0
C1039 C 0.28941 0.17085 0.45474 0.0
C1040 C 0.25681 0.14736 0.4142 0.0
C1041 C 0.29068 0.19088 0.40121 0.0
C1042 C 0.28034 0.22035 0.39266 0.0
C1043 C 0.29538 0.23771 0.37116 0.0
C1044 C 0.3213 0.22439 0.35794 0.0
C1045 C 0.33174 0.19396 0.36616 0.0
C1046 C 0.31618 0.17734 0.38826 0.0
H1047 H 0.06238 0.09427 0.6195 0.0
H1048 H 0.13333 0.12048 0.68047 0.0
H1049 H 0.12508 0.07396 0.71134 0.0
H1050 H 1.01434 0.06138 0.6773 0.0
H1051 H 1.00276 0.02992 0.65349 0.0
H1052 H 1.01272 0.06648 0.63684 0.0
H1053 H 0.05148 0.03733 0.6032 0.0
H1054 H 0.0418 1.00072 0.6199 0.0
H1055 H 0.07985 1.01256 0.62068 0.0
H1056 H 0.11222 0.0237 0.73374 0.0
H1057 H 0.09306 0.97329 0.74899 0.0
H1058 H 0.02982 0.97777 0.67427 0.0
C1059 C 0.07602 0.09035 0.63947 0.0
C1060 C 0.09831 0.11144 0.64766 0.0
C1061 C 0.11563 0.10531 0.67402 0.0
C1062 C 0.11133 0.07871 0.6916 0.0
C1063 C 0.08959 0.05829 0.68267 0.0
C1064 C 0.072 0.06378 0.65742 0.0
C1065 C 0.05063 0.03745 0.65275 0.0
C1066 C 0.01818 0.04954 0.65525 0.0
C1067 C 0.05629 0.02105 0.62232 0.0
C1068 C 0.05928 0.01626 0.67917 0.0
C1069 C 0.08188 0.02888 0.69596 0.0
C1070 C 0.09436 0.01365 0.72095 0.0
C1071 C 0.0833 0.98485 0.72934 0.0
C1072 C 0.05979 0.9714 0.71292 0.0
C1073 C 0.04769 0.98741 0.68738 0.0
H1074 H 0.18452 0.81959 0.90363 0.0
H1075 H 0.2223 0.81195 0.81379 0.0
H1076 H 0.2701 0.79289 0.83609 0.0
H1077 H 0.24557 0.85141 0.93724 0.0
H1078 H 0.24191 0.83176 0.97304 0.0
H1079 H 0.20961 0.8395 0.94979 0.0
H1080 H 0.19798 0.78068 0.95017 0.0
H1081 H 0.23022 0.77276 0.97365 0.0
H1082 H 0.22609 0.75239 0.93834 0.0
H1083 H 0.31579 0.78089 0.86916 0.0
H1084 H 0.35416 0.77695 0.90968 0.0
H1085 H 0.28581 0.79404 0.97698 0.0
C1086 C 0.20268 0.81344 0.88856 0.0
C1087 C 0.19965 0.81725 0.85697 0.0
C1088 C 0.22395 0.8088 0.83805 0.0
C1089 C 0.25123 0.79807 0.85053 0.0
C1090 C 0.25375 0.7957 0.88191 0.0
C1091 C 0.22995 0.80291 0.90061 0.0
C1092 C 0.2388 0.80109 0.93358 0.0
C1093 C 0.23368 0.83282 0.94931 0.0
C1094 C 0.22229 0.77518 0.94989 0.0
C1095 C 0.27153 0.79276 0.93063 0.0
C1096 C 0.27982 0.78928 0.90073 0.0
C1097 C 0.30943 0.78325 0.89264 0.0
C1098 C 0.33107 0.78116 0.91572 0.0
C1099 C 0.32287 0.78535 0.94634 0.0
C1100 C 0.2927 0.79066 0.95374 0.0
H1101 H 0.49306 0.05891 0.17548 0.0
H1102 H 0.44459 0.04228 0.25848 0.0
H1103 H 0.42518 0.99438 0.2367 0.0
H1104 H 0.43606 0.03112 0.12451 0.0
H1105 H 0.46238 0.01338 0.09861 0.0
H1106 H 0.47249 0.04686 0.12045 0.0
H1107 H 0.51845 0.0159 0.14154 0.0
H1108 H 0.50843 0.98224 0.11992 0.0
H1109 H 0.51349 0.97907 0.16029 0.0
H1110 H 0.41221 0.94758 0.20734 0.0
H1111 H 0.40375 0.90583 0.17046 0.0
H1112 H 0.45946 0.95216 0.10554 0.0
C1113 C 0.47823 0.04532 0.18903 0.0
C1114 C 0.47047 0.05451 0.2188 0.0
C1115 C 0.45096 0.03594 0.23567 0.0
C1116 C 0.43981 1.00856 0.22352 0.0
C1117 C 0.44815 1.0 0.19437 0.0
C1118 C 0.46667 0.01788 0.17716 0.0
C1119 C 0.47192 1.00325 0.14631 0.0
C1120 C 0.45999 0.02495 0.12097 0.0
C1121 C 0.50504 0.9946 0.14176 0.0
C1122 C 0.45355 0.97432 0.14903 0.0
C1123 C 0.44021 0.97294 0.17706 0.0
C1124 C 0.4225 0.94837 0.1853 0.0
C1125 C 0.41803 0.92463 0.16426 0.0
C1126 C 0.43112 0.92557 0.1352 0.0
C1127 C 0.44911 0.95085 0.12755 0.0
H1128 H 0.83644 0.31753 0.66026 0.0
H1129 H 0.82116 0.41802 0.66119 0.0
H1130 H 0.77128 0.41164 0.63928 0.0
H1131 H 0.80125 0.3039 0.58983 0.0
H1132 H 0.78501 0.26781 0.601 0.0
H1133 H 0.81881 0.27988 0.61876 0.0
H1134 H 0.79408 0.27604 0.67134 0.0
H1135 H 0.76014 0.26399 0.65371 0.0
H1136 H 0.75962 0.29739 0.67839 0.0
H1137 H 0.72518 0.3952 0.61334 0.0
H1138 H 0.68466 0.36952 0.5864 0.0
H1139 H 0.72796 0.27917 0.60319 0.0
C1140 C 0.82251 0.33817 0.65602 0.0
C1141 C 0.83276 0.36833 0.66268 0.0
C1142 C 0.81374 0.39469 0.65684 0.0
C1143 C 0.78537 0.3913 0.64424 0.0
C1144 C 0.77608 0.36137 0.63778 0.0
C1145 C 0.79392 0.33519 0.64364 0.0
C1146 C 0.7787 0.30576 0.63368 0.0
C1147 C 0.79704 0.28832 0.60937 0.0
C1148 C 0.77279 0.28454 0.66091 0.0
C1149 C 0.74984 0.3196 0.62065 0.0
C1150 C 0.74888 0.35173 0.62335 0.0
C1151 C 0.72548 0.37004 0.61147 0.0
C1152 C 0.7026 0.35523 0.59613 0.0
C1153 C 0.703 0.32235 0.59296 0.0
C1154 C 0.72677 0.30428 0.60581 0.0
H1155 H 0.93139 0.44117 0.82216 0.0
H1156 H 0.02672 0.43575 0.83738 0.0
H1157 H 0.0225 0.48154 0.87123 0.0
H1158 H 0.92453 0.52313 0.81818 0.0
H1159 H 0.88921 0.52618 0.83719 0.0
H1160 H 0.89929 0.4914 0.8164 0.0
H1161 H 0.89112 0.45774 0.86417 0.0
H1162 H 0.88073 0.49241 0.88507 0.0
H1163 H 0.91039 0.46673 0.89875 0.0
H1164 H 1.00806 0.5305 0.9008 0.0
H1165 H 0.98443 0.57654 0.92561 0.0
H1166 H 0.89867 0.55052 0.89008 0.0
C1167 C 0.95129 0.44922 0.83311 0.0
C1168 C 0.9794 0.43477 0.82724 0.0
C1169 C 1.00496 0.44636 0.84165 0.0
C1170 C 1.00277 0.47242 0.86086 0.0
C1171 C 0.97484 0.48668 0.86551 0.0
C1172 C 0.94952 0.47531 0.85224 0.0
C1173 C 0.92234 0.4956 0.85994 0.0
C1174 C 0.90801 0.50992 0.83122 0.0
C1175 C 0.89982 0.47701 0.87806 0.0
C1176 C 0.93632 0.52034 0.87934 0.0
C1177 C 0.96661 0.51479 0.88235 0.0
C1178 C 0.98433 0.53494 0.89869 0.0
C1179 C 0.97071 0.56124 0.91251 0.0
C1180 C 0.93962 0.56731 0.90998 0.0
C1181 C 0.92239 0.54644 0.89298 0.0
H1182 H 0.80346 0.68213 0.05395 0.0
H1183 H 0.83081 0.75034 0.12011 0.0
H1184 H 0.78866 0.73682 0.15252 0.0
H1185 H 0.7257 0.69697 0.06129 0.0
H1186 H 0.71598 0.65679 0.05696 0.0
H1187 H 0.74918 0.6706 0.03959 0.0
H1188 H 0.78066 0.62752 0.06727 0.0
H1189 H 0.74752 0.61349 0.08466 0.0
H1190 H 0.77857 0.62429 0.10786 0.0
H1191 H 0.74213 0.71755 0.17681 0.0
H1192 H 0.69493 0.69406 0.19107 0.0
H1193 H 0.69841 0.63749 0.10971 0.0
C1194 C 0.80082 0.69405 0.07538 0.0
C1195 C 0.82064 0.71728 0.08443 0.0
C1196 C 0.81608 0.73243 0.1126 0.0
C1197 C 0.79216 0.72489 0.13123 0.0
C1198 C 0.77295 0.70211 0.12148 0.0
C1199 C 0.77705 0.68685 0.09426 0.0
C1200 C 0.7527 0.6639 0.08867 0.0
C1201 C 0.73484 0.6726 0.05993 0.0
C1202 C 0.76564 0.63031 0.08702 0.0
C1203 C 0.73411 0.66886 0.11686 0.0
C1204 C 0.74623 0.69091 0.13554 0.0
C1205 C 0.73261 0.7 0.1625 0.0
C1206 C 0.70585 0.68631 0.17052 0.0
C1207 C 0.69285 0.66367 0.1517 0.0
C1208 C 0.70748 0.65483 0.12458 0.0
H1209 H 0.5893 0.44065 0.37712 0.0
H1210 H 0.55264 0.48557 0.45716 0.0
H1211 H 0.54003 0.53288 0.42688 0.0
H1212 H 0.62217 0.50639 0.34636 0.0
H1213 H 0.61375 0.49677 0.30767 0.0
H1214 H 0.6185 0.46623 0.33541 0.0
H1215 H 0.56627 0.44604 0.32244 0.0
H1216 H 0.56155 0.47624 0.2943 0.0
H1217 H 0.53437 0.47259 0.3238 0.0
H1218 H 0.53438 0.57711 0.38712 0.0
H1219 H 0.53326 0.61119 0.3413 0.0
H1220 H 0.57165 0.53499 0.28885 0.0
C1221 C 0.57793 0.46004 0.38827 0.0
C1222 C 0.5719 0.45922 0.41956 0.0
C1223 C 0.55774 0.48566 0.43325 0.0
C1224 C 0.55042 0.51263 0.41623 0.0
C1225 C 0.55729 0.51279 0.3855 0.0
C1226 C 0.57043 0.48694 0.37169 0.0
C1227 C 0.57614 0.49285 0.3386 0.0
C1228 C 0.60962 0.49042 0.33162 0.0
C1229 C 0.55852 0.47062 0.31862 0.0
C1230 C 0.56424 0.52607 0.33582 0.0
C1231 C 0.55357 0.53748 0.36301 0.0
C1232 C 0.54239 0.5682 0.36567 0.0
C1233 C 0.5418 0.5874 0.33971 0.0
C1234 C 0.55196 0.57561 0.31166 0.0
C1235 C 0.56345 0.54466 0.30995 0.0
H1236 H 0.39337 0.3148 0.15147 0.0
H1237 H 0.34171 0.32577 0.2336 0.0
H1238 H 0.36828 0.2794 0.25554 0.0
H1239 H 0.39701 0.23109 0.15009 0.0
H1240 H 0.43463 0.22919 0.13624 0.0
H1241 H 0.41048 0.26219 0.12691 0.0
H1242 H 0.44895 0.29968 0.14916 0.0
H1243 H 0.47329 0.26684 0.15835 0.0
H1244 H 0.46196 0.29401 0.18748 0.0
H1245 H 0.40267 0.23192 0.26884 0.0
H1246 H 0.44196 0.18985 0.27218 0.0
H1247 H 0.47046 0.21239 0.18146 0.0
C1248 C 0.38772 0.30774 0.17419 0.0
C1249 C 0.36555 0.32411 0.19085 0.0
C1250 C 0.35848 0.31349 0.22028 0.0
C1251 C 0.3735 0.28723 0.23296 0.0
C1252 C 0.39544 0.27181 0.21587 0.0
C1253 C 0.40246 0.28183 0.18712 0.0
C1254 C 0.42734 0.26209 0.1735 0.0
C1255 C 0.41672 0.24513 0.145 0.0
C1256 C 0.45449 0.28183 0.16675 0.0
C1257 C 0.43359 0.23949 0.19915 0.0
C1258 C 0.41492 0.24514 0.22342 0.0
C1259 C 0.41727 0.2273 0.24988 0.0
C1260 C 0.43953 0.20344 0.25159 0.0
C1261 C 0.45907 0.19796 0.22704 0.0
C1262 C 0.45573 0.21602 0.20053 0.0
H1263 H 0.93385 0.29142 0.77203 0.0
H1264 H 0.98441 0.30896 0.854 0.0
H1265 H 0.9601 0.26619 0.87946 0.0
H1266 H 0.86518 0.27162 0.81077 0.0
H1267 H 0.85606 0.24118 0.78461 0.0
H1268 H 0.87711 0.27373 0.77197 0.0
H1269 H 0.91873 0.23559 0.75304 0.0
H1270 H 0.89788 0.20293 0.76573 0.0
H1271 H 0.93544 0.2075 0.77893 0.0
H1272 H 0.93248 0.22121 0.89647 0.0
H1273 H 0.90009 0.17711 0.90509 0.0
H1274 H 0.86533 0.18692 0.81361 0.0
C1275 C 0.93962 0.28635 0.79537 0.0
C1276 C 0.96125 0.30377 0.8108 0.0
C1277 C 0.9681 0.2962 0.84139 0.0
C1278 C 0.95439 0.2718 0.85623 0.0
C1279 C 0.93358 0.25495 0.84044 0.0
C1280 C 0.9259 0.26187 0.81082 0.0
C1281 C 0.90255 0.23967 0.79956 0.0
C1282 C 0.8735 0.25763 0.79124 0.0
C1283 C 0.91436 0.22027 0.77272 0.0
C1284 C 0.89862 0.21933 0.82748 0.0
C1285 C 0.91697 0.22867 0.85063 0.0
C1286 C 0.91798 0.2136 0.87854 0.0
C1287 C 0.89963 0.18835 0.88313 0.0
C1288 C 0.88033 0.17821 0.86 0.0
C1289 C 0.8798 0.1941 0.83177 0.0
H1290 H 0.09353 0.65651 0.10421 0.0
H1291 H 0.05209 0.57159 0.13281 0.0
H1292 H 1.00438 0.59068 0.11006 0.0
H1293 H 0.03327 0.70789 0.12063 0.0
H1294 H 0.03924 0.73291 0.08857 0.0
H1295 H 0.07004 0.71109 0.10515 0.0
H1296 H 0.08197 0.6864 0.05291 0.0
H1297 H 0.05097 0.70798 0.03623 0.0
H1298 H 0.0535 0.6661 0.03288 0.0
H1299 H 0.95967 0.62187 0.08649 0.0
H1300 H 0.92356 0.66223 0.06655 0.0
H1301 H 0.99583 0.72515 0.05373 0.0
C1302 C 0.07445 0.64188 0.10579 0.0
C1303 C 0.07656 0.61262 0.12049 0.0
C1304 C 0.05109 0.59403 0.12152 0.0
C1305 C 0.02388 0.6047 0.10867 0.0
C1306 C 0.02257 0.63386 0.09454 0.0
C1307 C 0.04733 0.65206 0.09302 0.0
C1308 C 0.04022 0.68299 0.07779 0.0
C1309 C 0.04602 0.71032 0.09932 0.0
C1310 C 0.05771 0.68602 0.0482 0.0
C1311 C 1.00739 0.67985 0.07164 0.0
C1312 C 0.99743 0.65131 0.08107 0.0
C1313 C 0.96737 0.64415 0.07879 0.0
C1314 C 0.94701 0.66708 0.06733 0.0
C1315 C 0.95694 0.69673 0.05863 0.0
C1316 C 0.98758 0.70264 0.06015 0.0
H1317 H 0.61593 0.83392 0.36231 0.0
H1318 H 0.69202 0.83468 0.30235 0.0
H1319 H 0.67385 0.788 0.27638 0.0
H1320 H 0.61147 0.75038 0.36879 0.0
H1321 H 0.5714 0.75126 0.36883 0.0
H1322 H 0.59108 0.78397 0.38331 0.0
H1323 H 0.56218 0.82082 0.34614 0.0
H1324 H 0.54244 0.78822 0.33153 0.0
H1325 H 0.56288 0.81245 0.30621 0.0
H1326 H 0.64619 0.74168 0.25584 0.0
H1327 H 0.61201 0.69965 0.24319 0.0
H1328 H 0.5537 0.73026 0.31608 0.0
C1329 C 0.62879 0.82443 0.34363 0.0
C1330 C 0.65551 0.83813 0.33448 0.0
C1331 C 0.67175 0.82449 0.31017 0.0
C1332 C 0.66149 0.79804 0.29511 0.0
C1333 C 0.63492 0.7854 0.30457 0.0
C1334 C 0.61885 0.79814 0.32833 0.0
C1335 C 0.59078 0.78047 0.33387 0.0
C1336 C 0.59122 0.76564 0.36558 0.0
C1337 C 0.56293 0.80176 0.32915 0.0
C1338 C 0.59343 0.75585 0.30942 0.0
C1339 C 0.61905 0.75901 0.29275 0.0
C1340 C 0.6261 0.739 0.26881 0.0
C1341 C 0.60649 0.71517 0.26177 0.0
C1342 C 0.58006 0.71151 0.27858 0.0
C1343 C 0.57365 0.73226 0.30272 0.0
H1344 H 0.5298 0.28942 0.57231 0.0
H1345 H 0.59503 0.36158 0.57253 0.0
H1346 H 0.55622 0.40001 0.58962 0.0
H1347 H 0.46751 0.33842 0.5452 0.0
H1348 H 0.44093 0.31894 0.56832 0.0
H1349 H 0.47368 0.29792 0.55515 0.0
H1350 H 0.48742 0.28306 0.61044 0.0
H1351 H 0.4549 0.3043 0.62381 0.0
H1352 H 0.49113 0.31344 0.63818 0.0
H1353 H 0.51033 0.42961 0.6098 0.0
H1354 H 0.46126 0.44872 0.6279 0.0
H1355 H 0.4259 0.35713 0.61218 0.0
C1356 C 0.5359 0.31338 0.57571 0.0
C1357 C 0.56544 0.32255 0.57123 0.0
C1358 C 0.57252 0.3541 0.57583 0.0
C1359 C 0.55063 0.37602 0.58561 0.0
C1360 C 0.52179 0.36602 0.5904 0.0
C1361 C 0.51437 0.33548 0.58525 0.0
C1362 C 0.48191 0.33048 0.59215 0.0
C1363 C 0.46501 0.32088 0.5635 0.0
C1364 C 0.47867 0.3064 0.61766 0.0
C1365 C 0.47217 0.36288 0.6024 0.0
C1366 C 0.49546 0.38306 0.6013 0.0
C1367 C 0.49189 0.41406 0.61037 0.0
C1368 C 0.46379 0.42474 0.62051 0.0
C1369 C 0.43938 0.40461 0.62139 0.0
C1370 C 0.44394 0.3732 0.61222 0.0
H1371 H 0.14808 0.6979 0.68641 0.0
H1372 H 0.19448 0.7468 0.61579 0.0
H1373 H 0.17115 0.7965 0.63245 0.0
H1374 H 0.08105 0.73906 0.68006 0.0
H1375 H 0.07274 0.74079 0.71988 0.0
H1376 H 0.09606 0.70945 0.70539 0.0
H1377 H 0.13771 0.72349 0.74321 0.0
H1378 H 0.11439 0.75493 0.75785 0.0
H1379 H 0.15098 0.76269 0.74391 0.0
H1380 H 0.13819 0.83906 0.6512 0.0
H1381 H 0.09779 0.87267 0.67218 0.0
H1382 H 0.07382 0.79827 0.73295 0.0
C1383 C 0.15388 0.71921 0.67502 0.0
C1384 C 0.17293 0.71843 0.64963 0.0
C1385 C 0.1796 0.74674 0.63497 0.0
C1386 C 0.1667 0.77516 0.64446 0.0
C1387 C 0.14743 0.77508 0.66897 0.0
C1388 C 0.14121 0.74798 0.68433 0.0
C1389 C 0.1179 0.7543 0.7085 0.0
C1390 C 0.09031 0.73475 0.70311 0.0
C1391 C 0.13104 0.74851 0.74025 0.0
C1392 C 0.11104 0.7888 0.70324 0.0
C1393 C 0.1287 0.80031 0.68056 0.0
C1394 C 0.12471 0.8306 0.66948 0.0
C1395 C 0.10171 0.84947 0.68144 0.0
C1396 C 0.08315 0.83813 0.70438 0.0
C1397 C 0.08831 0.80769 0.71597 0.0
H1398 H 0.47612 0.83801 0.98836 0.0
H1399 H 0.44363 0.80383 0.90227 0.0
H1400 H 0.48624 0.82606 0.87652 0.0
H1401 H 0.50589 0.91143 0.9577 0.0
H1402 H 0.5377 0.90995 0.98267 0.0
H1403 H 0.50324 0.89358 0.9945 0.0
H1404 H 0.53085 0.84067 1.00493 0.0
H1405 H 0.56531 0.85676 0.99292 0.0
H1406 H 0.55205 0.82207 0.9751 0.0
H1407 H 0.53387 0.84705 0.86035 0.0
H1408 H 0.58329 0.86919 0.85403 0.0
H1409 H 0.58577 0.89173 0.94962 0.0
C1410 C 0.47768 0.83578 0.96403 0.0
C1411 C 0.45644 0.81912 0.9474 0.0
C1412 C 0.45952 0.81641 0.91561 0.0
C1413 C 0.48368 0.82899 0.90068 0.0
C1414 C 0.50456 0.84454 0.91773 0.0
C1415 C 0.50176 0.8484 0.94861 0.0
C1416 C 0.52815 0.86529 0.96145 0.0
C1417 C 0.51814 0.89695 0.97487 0.0
C1418 C 0.54509 0.84497 0.98499 0.0
C1419 C 0.54646 0.8695 0.93304 0.0
C1420 C 0.53226 0.85737 0.90814 0.0
C1421 C 0.54511 0.85698 0.87957 0.0
C1422 C 0.57325 0.86939 0.87625 0.0
C1423 C 0.5883 0.88211 0.90131 0.0
C1424 C 0.57458 0.88242 0.93004 0.0
H1425 H 0.95197 0.12329 0.46627 0.0
H1426 H 0.96013 0.12514 0.36843 0.0
H1427 H 1.00795 0.15096 0.37338 0.0
H1428 H 0.98232 0.19695 0.48042 0.0
H1429 H 1.002 0.18496 0.51433 0.0
H1430 H 0.96878 0.16562 0.50325 0.0
H1431 H 0.99781 0.11241 0.50426 0.0
H1432 H 0.03118 0.13164 0.51524 0.0
H1433 H 0.03111 0.1073 0.48206 0.0
H1434 H 0.05317 0.17924 0.38847 0.0
H1435 H 0.09315 0.2082 0.41296 0.0
H1436 H 0.05775 0.18567 0.50115 0.0
C1437 C 0.96398 0.12867 0.44587 0.0
C1438 C 0.95202 0.12229 0.41691 0.0
C1439 C 0.96839 0.13027 0.39085 0.0
C1440 C 0.99578 0.14468 0.39342 0.0
C1441 C 1.0068 0.15071 0.42222 0.0
C1442 C 0.99153 0.14288 0.44801 0.0
C1443 C 1.00804 0.1528 0.47624 0.0
C1444 C 0.98916 0.17649 0.49463 0.0
C1445 C 1.0176 0.12434 0.49559 0.0
C1446 C 0.03471 0.16788 0.46221 0.0
C1447 C 0.03352 0.16632 0.431 0.0
C1448 C 0.05458 0.18024 0.41289 0.0
C1449 C 0.07718 0.19665 0.427 0.0
C1450 C 0.07874 0.19882 0.45891 0.0
C1451 C 0.0575 0.18375 0.47673 0.0
loop_
_geom_bond_atom_site_label_1
_geom_bond_atom_site_label_2
_geom_bond_distance
_geom_bond_site_symmetry_2
_ccdc_geom_bond_type
Gd0 C3 2.818 . S
Gd0 O20 2.377 . S
Gd0 O22 2.448 . S
Gd0 O23 2.506 . S
Gd0 O24 2.435 . S
Gd0 O25 2.717 . S
Gd0 O27 2.395 . S
Gd0 O31 2.327 . S
Gd1 C12 2.818 . S
Gd1 O21 2.395 . S
Gd1 O25 2.327 . S
Gd1 O26 2.377 . S
Gd1 O28 2.448 . S
Gd1 O29 2.506 . S
Gd1 O30 2.435 . S
Gd1 O31 2.717 . S
C2 O20 1.240 . S
C2 O21 1.240 . S
C3 Gd0 2.818 . S
C3 C4 1.510 . S
C3 O22 1.249 . S
C3 O23 1.252 . S
C4 C3 1.510 . S
C4 C5 1.404 . S
C4 C6 1.352 . S
C5 C4 1.404 . S
C5 C9 1.389 . S
C5 H32 0.930 . S
C6 C4 1.352 . S
C6 C8 1.374 . S
C6 H33 0.931 . S
C7 C8 1.359 . S
C7 C9 1.364 . S
C8 C6 1.374 . S
C8 C7 1.359 . S
C8 H34 0.931 . S
C9 C5 1.389 . S
C9 C7 1.364 . S
C9 H35 0.931 . S
C10 O24 1.256 . S
C10 O25 1.257 . S
C11 O26 1.240 . S
C11 O27 1.240 . S
C12 Gd1 2.818 . S
C12 C13 1.510 . S
C12 O28 1.249 . S
C12 O29 1.252 . S
C13 C12 1.510 . S
C13 C14 1.404 . S
C13 C15 1.352 . S
C14 C13 1.404 . S
C14 C18 1.389 . S
C14 H36 0.930 . S
C15 C13 1.352 . S
C15 C17 1.374 . S
C15 H37 0.931 . S
C16 C17 1.359 . S
C16 C18 1.364 . S
C17 C15 1.374 . S
C17 C16 1.359 . S
C17 H38 0.931 . S
C18 C14 1.389 . S
C18 C16 1.364 . S
C18 H39 0.931 . S
C19 O30 1.256 . S
C19 O31 1.257 . S
O20 Gd0 2.377 . S
O20 C2 1.240 . S
O21 Gd1 2.395 . S
O21 C2 1.240 . S
O22 Gd0 2.448 . S
O22 C3 1.249 . S
O23 Gd0 2.506 . S
O23 C3 1.252 . S
O24 Gd0 2.435 . S
O24 C10 1.256 . S
O25 Gd0 2.717 . S
O25 Gd1 2.327 . S
O25 C10 1.257 . S
O26 Gd1 2.377 . S
O26 C11 1.240 . S
O27 Gd0 2.395 . S
O27 C11 1.240 . S
O28 Gd1 2.448 . S
O28 C12 1.249 . S
O29 Gd1 2.506 . S
O29 C12 1.252 . S
O30 Gd1 2.435 . S
O30 C19 1.256 . S
O31 Gd0 2.327 . S
O31 Gd1 2.717 . S
O31 C19 1.257 . S
H32 C5 0.930 . S
H33 C6 0.931 . S
H34 C8 0.931 . S
H35 C9 0.931 . S
H36 C14 0.930 . S
H37 C15 0.931 . S
H38 C17 0.931 . S
H39 C18 0.931 . S
Gd40 C43 2.818 . S
Gd40 O60 2.377 1_655 S
Gd40 O62 2.448 . S
Gd40 O63 2.506 . S
Gd40 O64 2.435 1_655 S
Gd40 O65 2.717 1_655 S
Gd40 O67 2.395 . S
Gd40 O71 2.327 . S
Gd41 C52 2.818 . S
Gd41 O61 2.395 . S
Gd41 O65 2.327 . S
Gd41 O66 2.377 . S
Gd41 O68 2.448 . S
Gd41 O69 2.506 . S
Gd41 O70 2.435 1_455 S
Gd41 O71 2.717 1_455 S
C42 O60 1.240 . S
C42 O61 1.240 . S
C43 Gd40 2.818 . S
C43 C44 1.510 . S
C43 O62 1.249 . S
C43 O63 1.252 . S
C44 C43 1.510 . S
C44 C45 1.404 . S
C44 C46 1.352 . S
C45 C44 1.404 . S
C45 C49 1.389 . S
C45 H72 0.930 . S
C46 C44 1.352 . S
C46 C48 1.374 . S
C46 H73 0.931 . S
C47 C48 1.359 . S
C47 C49 1.364 . S
C48 C46 1.374 . S
C48 C47 1.359 . S
C48 H74 0.931 . S
C49 C45 1.389 . S
C49 C47 1.364 . S
C49 H75 0.931 . S
C50 O64 1.256 . S
C50 O65 1.257 . S
C51 O66 1.240 1_655 S
C51 O67 1.240 . S
C52 Gd41 2.818 . S
C52 C53 1.510 . S
C52 O68 1.249 . S
C52 O69 1.252 . S
C53 C52 1.510 . S
C53 C54 1.404 . S
C53 C55 1.352 . S
C54 C53 1.404 . S
C54 C58 1.389 . S
C54 H76 0.930 . S
C55 C53 1.352 . S
C55 C57 1.374 . S
C55 H77 0.931 . S
C56 C57 1.359 . S
C56 C58 1.364 . S
C57 C55 1.374 . S
C57 C56 1.359 . S
C57 H78 0.931 . S
C58 C54 1.389 . S
C58 C56 1.364 . S
C58 H79 0.931 . S
C59 O70 1.256 . S
C59 O71 1.257 . S
O60 Gd40 2.377 1_455 S
O60 C42 1.240 . S
O61 Gd41 2.395 . S
O61 C42 1.240 . S
O62 Gd40 2.448 . S
O62 C43 1.249 . S
O63 Gd40 2.506 . S
O63 C43 1.252 . S
O64 Gd40 2.435 1_455 S
O64 C50 1.256 . S
O65 Gd40 2.717 1_455 S
O65 Gd41 2.327 . S
O65 C50 1.257 . S
O66 Gd41 2.377 . S
O66 C51 1.240 1_455 S
O67 Gd40 2.395 . S
O67 C51 1.240 . S
O68 Gd41 2.448 . S
O68 C52 1.249 . S
O69 Gd41 2.506 . S
O69 C52 1.252 . S
O70 Gd41 2.435 1_655 S
O70 C59 1.256 . S
O71 Gd40 2.327 . S
O71 Gd41 2.717 1_655 S
O71 C59 1.257 . S
H72 C45 0.930 . S
H73 C46 0.931 . S
H74 C48 0.931 . S
H75 C49 0.931 . S
H76 C54 0.930 . S
H77 C55 0.931 . S
H78 C57 0.931 . S
H79 C58 0.931 . S
Gd80 C83 2.818 . S
Gd80 O100 2.377 1_554 S
Gd80 O102 2.448 . S
Gd80 O103 2.506 . S
Gd80 O104 2.435 1_554 S
Gd80 O105 2.717 1_554 S
Gd80 O107 2.395 . S
Gd80 O111 2.327 . S
Gd81 C92 2.818 . S
Gd81 O101 2.395 . S
Gd81 O105 2.327 . S
Gd81 O106 2.377 . S
Gd81 O108 2.448 . S
Gd81 O109 2.506 . S
Gd81 O110 2.435 . S
Gd81 O111 2.717 1_556 S
C82 O100 1.240 . S
C82 O101 1.240 . S
C83 Gd80 2.818 . S
C83 C84 1.510 . S
C83 O102 1.249 . S
C83 O103 1.252 . S
C84 C83 1.510 . S
C84 C85 1.404 . S
C84 C86 1.352 . S
C85 C84 1.404 . S
C85 C89 1.389 . S
C85 H112 0.930 . S
C86 C84 1.352 . S
C86 C88 1.374 . S
C86 H113 0.931 . S
C87 C88 1.359 . S
C87 C89 1.364 . S
C88 C86 1.374 . S
C88 C87 1.359 . S
C88 H114 0.931 . S
C89 C85 1.389 . S
C89 C87 1.364 . S
C89 H115 0.931 . S
C90 O104 1.256 . S
C90 O105 1.257 . S
C91 O106 1.240 1_554 S
C91 O107 1.240 . S
C92 Gd81 2.818 . S
C92 C93 1.510 . S
C92 O108 1.249 . S
C92 O109 1.252 . S
C93 C92 1.510 . S
C93 C94 1.404 . S
C93 C95 1.352 . S
C94 C93 1.404 . S
C94 C98 1.389 . S
C94 H116 0.930 . S
C95 C93 1.352 . S
C95 C97 1.374 . S
C95 H117 0.931 . S
C96 C97 1.359 . S
C96 C98 1.364 . S
C97 C95 1.374 . S
C97 C96 1.359 . S
C97 H118 0.931 . S
C98 C94 1.389 . S
C98 C96 1.364 . S
C98 H119 0.931 . S
C99 O110 1.256 1_554 S
C99 O111 1.257 . S
O100 Gd80 2.377 1_556 S
O100 C82 1.240 . S
O101 Gd81 2.395 . S
O101 C82 1.240 . S
O102 Gd80 2.448 . S
O102 C83 1.249 . S
O103 Gd80 2.506 . S
O103 C83 1.252 . S
O104 Gd80 2.435 1_556 S
O104 C90 1.256 . S
O105 Gd80 2.717 1_556 S
O105 Gd81 2.327 . S
O105 C90 1.257 . S
O106 Gd81 2.377 . S
O106 C91 1.240 1_556 S
O107 Gd80 2.395 . S
O107 C91 1.240 . S
O108 Gd81 2.448 . S
O108 C92 1.249 . S
O109 Gd81 2.506 . S
O109 C92 1.252 . S
O110 Gd81 2.435 . S
O110 C99 1.256 1_556 S
O111 Gd80 2.327 . S
O111 Gd81 2.717 1_554 S
O111 C99 1.257 . S
H112 C85 0.930 . S
H113 C86 0.931 . S
H114 C88 0.931 . S
H115 C89 0.931 . S
H116 C94 0.930 . S
H117 C95 0.931 . S
H118 C97 0.931 . S
H119 C98 0.931 . S
Gd120 C123 2.818 . S
Gd120 O140 2.377 . S
Gd120 O142 2.448 . S
Gd120 O143 2.506 . S
Gd120 O144 2.435 . S
Gd120 O145 2.717 . S
Gd120 O147 2.395 . S
Gd120 O151 2.327 . S
Gd121 C132 2.818 . S
Gd121 O141 2.395 . S
Gd121 O145 2.327 . S
Gd121 O146 2.377 . S
Gd121 O148 2.448 . S
Gd121 O149 2.506 . S
Gd121 O150 2.435 . S
Gd121 O151 2.717 . S
C122 O140 1.240 . S
C122 O141 1.240 . S
C123 Gd120 2.818 . S
C123 C124 1.510 . S
C123 O142 1.249 . S
C123 O143 1.252 . S
C124 C123 1.510 . S
C124 C125 1.404 . S
C124 C126 1.352 . S
C125 C124 1.404 . S
C125 C129 1.389 . S
C125 H152 0.930 . S
C126 C124 1.352 . S
C126 C128 1.374 . S
C126 H153 0.931 . S
C127 C128 1.359 . S
C127 C129 1.364 . S
C128 C126 1.374 . S
C128 C127 1.359 . S
C128 H154 0.931 . S
C129 C125 1.389 . S
C129 C127 1.364 . S
C129 H155 0.931 . S
C130 O144 1.256 . S
C130 O145 1.257 . S
C131 O146 1.240 . S
C131 O147 1.240 . S
C132 Gd121 2.818 . S
C132 C133 1.510 . S
C132 O148 1.249 . S
C132 O149 1.252 . S
C133 C132 1.510 . S
C133 C134 1.404 . S
C133 C135 1.352 . S
C134 C133 1.404 . S
C134 C138 1.389 . S
C134 H156 0.930 . S
C135 C133 1.352 . S
C135 C137 1.374 . S
C135 H157 0.931 . S
C136 C137 1.359 . S
C136 C138 1.364 . S
C137 C135 1.374 . S
C137 C136 1.359 . S
C137 H158 0.931 . S
C138 C134 1.389 . S
C138 C136 1.364 . S
C138 H159 0.931 . S
C139 O150 1.256 . S
C139 O151 1.257 . S
O140 Gd120 2.377 . S
O140 C122 1.240 . S
O141 Gd121 2.395 . S
O141 C122 1.240 . S
O142 Gd120 2.448 . S
O142 C123 1.249 . S
O143 Gd120 2.506 . S
O143 C123 1.252 . S
O144 Gd120 2.435 . S
O144 C130 1.256 . S
O145 Gd120 2.717 . S
O145 Gd121 2.327 . S
O145 C130 1.257 . S
O146 Gd121 2.377 . S
O146 C131 1.240 . S
O147 Gd120 2.395 . S
O147 C131 1.240 . S
O148 Gd121 2.448 . S
O148 C132 1.249 . S
O149 Gd121 2.506 . S
O149 C132 1.252 . S
O150 Gd121 2.435 . S
O150 C139 1.256 . S
O151 Gd120 2.327 . S
O151 Gd121 2.717 . S
O151 C139 1.257 . S
H152 C125 0.930 . S
H153 C126 0.931 . S
H154 C128 0.931 . S
H155 C129 0.931 . S
H156 C134 0.930 . S
H157 C135 0.931 . S
H158 C137 0.931 . S
H159 C138 0.931 . S
Gd160 C163 2.818 . S
Gd160 O180 2.377 . S
Gd160 O182 2.448 . S
Gd160 O183 2.506 . S
Gd160 O184 2.435 . S
Gd160 O185 2.717 . S
Gd160 O187 2.395 . S
Gd160 O191 2.327 . S
Gd161 C172 2.818 . S
Gd161 O181 2.395 . S
Gd161 O185 2.327 . S
Gd161 O186 2.377 . S
Gd161 O188 2.448 . S
Gd161 O189 2.506 . S
Gd161 O190 2.435 . S
Gd161 O191 2.717 . S
C162 O180 1.240 . S
C162 O181 1.240 . S
C163 Gd160 2.818 . S
C163 C164 1.510 . S
C163 O182 1.249 . S
C163 O183 1.252 . S
C164 C163 1.510 . S
C164 C165 1.404 . S
C164 C166 1.352 . S
C165 C164 1.404 . S
C165 C169 1.389 . S
C165 H192 0.930 . S
C166 C164 1.352 . S
C166 C168 1.374 . S
C166 H193 0.931 . S
C167 C168 1.359 . S
C167 C169 1.364 . S
C168 C166 1.374 . S
C168 C167 1.359 . S
C168 H194 0.931 . S
C169 C165 1.389 . S
C169 C167 1.364 . S
C169 H195 0.931 . S
C170 O184 1.256 . S
C170 O185 1.257 . S
C171 O186 1.240 . S
C171 O187 1.240 . S
C172 Gd161 2.818 . S
C172 C173 1.510 . S
C172 O188 1.249 . S
C172 O189 1.252 . S
C173 C172 1.510 . S
C173 C174 1.404 . S
C173 C175 1.352 . S
C174 C173 1.404 . S
C174 C178 1.389 . S
C174 H196 0.930 . S
C175 C173 1.352 . S
C175 C177 1.374 . S
C175 H197 0.931 . S
C176 C177 1.359 . S
C176 C178 1.364 . S
C177 C175 1.374 . S
C177 C176 1.359 . S
C177 H198 0.931 . S
C178 C174 1.389 . S
C178 C176 1.364 . S
C178 H199 0.931 . S
C179 O190 1.256 . S
C179 O191 1.257 . S
O180 Gd160 2.377 . S
O180 C162 1.240 . S
O181 Gd161 2.395 . S
O181 C162 1.240 . S
O182 Gd160 2.448 . S
O182 C163 1.249 . S
O183 Gd160 2.506 . S
O183 C163 1.252 . S
O184 Gd160 2.435 . S
O184 C170 1.256 . S
O185 Gd160 2.717 . S
O185 Gd161 2.327 . S
O185 C170 1.257 . S
O186 Gd161 2.377 . S
O186 C171 1.240 . S
O187 Gd160 2.395 . S
O187 C171 1.240 . S
O188 Gd161 2.448 . S
O188 C172 1.249 . S
O189 Gd161 2.506 . S
O189 C172 1.252 . S
O190 Gd161 2.435 . S
O190 C179 1.256 . S
O191 Gd160 2.327 . S
O191 Gd161 2.717 . S
O191 C179 1.257 . S
H192 C165 0.930 . S
H193 C166 0.931 . S
H194 C168 0.931 . S
H195 C169 0.931 . S
H196 C174 0.930 . S
H197 C175 0.931 . S
H198 C177 0.931 . S
H199 C178 0.931 . S
Gd200 C203 2.818 . S
Gd200 O220 2.377 . S
Gd200 O222 2.448 . S
Gd200 O223 2.506 . S
Gd200 O224 2.435 . S
Gd200 O225 2.717 . S
Gd200 O227 2.395 1_655 S
Gd200 O231 2.327 . S
Gd201 C212 2.818 . S
Gd201 O221 2.395 1_455 S
Gd201 O225 2.327 1_455 S
Gd201 O226 2.377 . S
Gd201 O228 2.448 . S
Gd201 O229 2.506 . S
Gd201 O230 2.435 . S
Gd201 O231 2.717 1_455 S
C202 O220 1.240 . S
C202 O221 1.240 . S
C203 Gd200 2.818 . S
C203 C204 1.510 . S
C203 O222 1.249 . S
C203 O223 1.252 . S
C204 C203 1.510 . S
C204 C205 1.404 . S
C204 C206 1.352 . S
C205 C204 1.404 . S
C205 C209 1.389 . S
C205 H232 0.930 . S
C206 C204 1.352 . S
C206 C208 1.374 . S
C206 H233 0.931 . S
C207 C208 1.359 . S
C207 C209 1.364 . S
C208 C206 1.374 . S
C208 C207 1.359 . S
C208 H234 0.931 . S
C209 C205 1.389 . S
C209 C207 1.364 . S
C209 H235 0.931 . S
C210 O224 1.256 . S
C210 O225 1.257 . S
C211 O226 1.240 . S
C211 O227 1.240 . S
C212 Gd201 2.818 . S
C212 C213 1.510 . S
C212 O228 1.249 . S
C212 O229 1.252 . S
C213 C212 1.510 . S
C213 C214 1.404 . S
C213 C215 1.352 . S
C214 C213 1.404 . S
C214 C218 1.389 . S
C214 H236 0.930 . S
C215 C213 1.352 . S
C215 C217 1.374 . S
C215 H237 0.931 . S
C216 C217 1.359 . S
C216 C218 1.364 . S
C217 C215 1.374 . S
C217 C216 1.359 . S
C217 H238 0.931 . S
C218 C214 1.389 . S
C218 C216 1.364 . S
C218 H239 0.931 . S
C219 O230 1.256 . S
C219 O231 1.257 1_455 S
O220 Gd200 2.377 . S
O220 C202 1.240 . S
O221 Gd201 2.395 1_655 S
O221 C202 1.240 . S
O222 Gd200 2.448 . S
O222 C203 1.249 . S
O223 Gd200 2.506 . S
O223 C203 1.252 . S
O224 Gd200 2.435 . S
O224 C210 1.256 . S
O225 Gd200 2.717 . S
O225 Gd201 2.327 1_655 S
O225 C210 1.257 . S
O226 Gd201 2.377 . S
O226 C211 1.240 . S
O227 Gd200 2.395 1_455 S
O227 C211 1.240 . S
O228 Gd201 2.448 . S
O228 C212 1.249 . S
O229 Gd201 2.506 . S
O229 C212 1.252 . S
O230 Gd201 2.435 . S
O230 C219 1.256 . S
O231 Gd200 2.327 . S
O231 Gd201 2.717 1_655 S
O231 C219 1.257 1_655 S
H232 C205 0.930 . S
H233 C206 0.931 . S
H234 C208 0.931 . S
H235 C209 0.931 . S
H236 C214 0.930 . S
H237 C215 0.931 . S
H238 C217 0.931 . S
H239 C218 0.931 . S
Gd240 C243 2.818 . S
Gd240 O260 2.377 . S
Gd240 O262 2.448 . S
Gd240 O263 2.506 . S
Gd240 O264 2.435 . S
Gd240 O265 2.717 . S
Gd240 O267 2.395 1_554 S
Gd240 O271 2.313 1_554 S
Gd241 C252 2.818 . S
Gd241 O261 2.395 1_556 S
Gd241 O265 2.327 1_556 S
Gd241 O266 2.377 . S
Gd241 O268 2.448 . S
Gd241 O269 2.506 . S
Gd241 O270 2.435 . S
Gd241 O271 2.725 . S
C242 O260 1.240 . S
C242 O261 1.240 . S
C243 Gd240 2.818 . S
C243 C244 1.510 . S
C243 O262 1.249 . S
C243 O263 1.252 . S
C244 C243 1.510 . S
C244 C245 1.404 . S
C244 C246 1.352 . S
C245 C244 1.404 . S
C245 C249 1.389 . S
C245 H272 0.930 . S
C246 C244 1.352 . S
C246 C248 1.374 . S
C246 H273 0.931 . S
C247 C248 1.359 . S
C247 C249 1.364 . S
C248 C246 1.374 . S
C248 C247 1.359 . S
C248 H274 0.931 . S
C249 C245 1.389 . S
C249 C247 1.364 . S
C249 H275 0.931 . S
C250 O264 1.256 . S
C250 O265 1.257 . S
C251 O266 1.240 . S
C251 O267 1.240 . S
C252 Gd241 2.818 . S
C252 C253 1.510 . S
C252 O268 1.249 . S
C252 O269 1.252 . S
C253 C252 1.510 . S
C253 C254 1.404 . S
C253 C255 1.352 . S
C254 C253 1.404 . S
C254 C258 1.389 . S
C254 H276 0.930 . S
C255 C253 1.352 . S
C255 C257 1.374 . S
C255 H277 0.931 . S
C256 C257 1.359 . S
C256 C258 1.364 . S
C257 C255 1.374 . S
C257 C256 1.359 . S
C257 H278 0.931 . S
C258 C254 1.389 . S
C258 C256 1.364 . S
C258 H279 0.931 . S
C259 O270 1.256 . S
C259 O271 1.273 . S
O260 Gd240 2.377 . S
O260 C242 1.240 . S
O261 Gd241 2.395 1_554 S
O261 C242 1.240 . S
O262 Gd240 2.448 . S
O262 C243 1.249 . S
O263 Gd240 2.506 . S
O263 C243 1.252 . S
O264 Gd240 2.435 . S
O264 C250 1.256 . S
O265 Gd240 2.717 . S
O265 Gd241 2.327 1_554 S
O265 C250 1.257 . S
O266 Gd241 2.377 . S
O266 C251 1.240 . S
O267 Gd240 2.395 1_556 S
O267 C251 1.240 . S
O268 Gd241 2.448 . S
O268 C252 1.249 . S
O269 Gd241 2.506 . S
O269 C252 1.252 . S
O270 Gd241 2.435 . S
O270 C259 1.256 . S
O271 Gd240 2.313 1_556 S
O271 Gd241 2.725 . S
O271 C259 1.273 . S
H272 C245 0.930 . S
H273 C246 0.931 . S
H274 C248 0.931 . S
H275 C249 0.931 . S
H276 C254 0.930 . S
H277 C255 0.931 . S
H278 C257 0.931 . S
H279 C258 0.931 . S
Gd280 C283 2.818 . S
Gd280 O300 2.377 . S
Gd280 O302 2.448 . S
Gd280 O303 2.506 . S
Gd280 O304 2.435 . S
Gd280 O305 2.717 . S
Gd280 O307 2.395 . S
Gd280 O311 2.327 . S
Gd281 C292 2.818 . S
Gd281 O301 2.395 . S
Gd281 O305 2.327 . S
Gd281 O306 2.377 . S
Gd281 O308 2.448 . S
Gd281 O309 2.506 . S
Gd281 O310 2.435 . S
Gd281 O311 2.717 . S
C282 O300 1.240 . S
C282 O301 1.240 . S
C283 Gd280 2.818 . S
C283 C284 1.510 . S
C283 O302 1.249 . S
C283 O303 1.252 . S
C284 C283 1.510 . S
C284 C285 1.404 . S
C284 C286 1.352 . S
C285 C284 1.404 . S
C285 C289 1.389 . S
C285 H312 0.930 . S
C286 C284 1.352 . S
C286 C288 1.374 . S
C286 H313 0.931 . S
C287 C288 1.359 . S
C287 C289 1.364 . S
C288 C286 1.374 . S
C288 C287 1.359 . S
C288 H314 0.931 . S
C289 C285 1.389 . S
C289 C287 1.364 . S
C289 H315 0.931 . S
C290 O304 1.256 . S
C290 O305 1.257 . S
C291 O306 1.240 . S
C291 O307 1.240 . S
C292 Gd281 2.818 . S
C292 C293 1.510 . S
C292 O308 1.249 . S
C292 O309 1.252 . S
C293 C292 1.510 . S
C293 C294 1.404 . S
C293 C295 1.352 . S
C294 C293 1.404 . S
C294 C298 1.389 . S
C294 H316 0.930 . S
C295 C293 1.352 . S
C295 C297 1.374 . S
C295 H317 0.931 . S
C296 C297 1.359 . S
C296 C298 1.364 . S
C297 C295 1.374 . S
C297 C296 1.359 . S
C297 H318 0.931 . S
C298 C294 1.389 . S
C298 C296 1.364 . S
C298 H319 0.931 . S
C299 O310 1.256 . S
C299 O311 1.257 . S
O300 Gd280 2.377 . S
O300 C282 1.240 . S
O301 Gd281 2.395 . S
O301 C282 1.240 . S
O302 Gd280 2.448 . S
O302 C283 1.249 . S
O303 Gd280 2.506 . S
O303 C283 1.252 . S
O304 Gd280 2.435 . S
O304 C290 1.256 . S
O305 Gd280 2.717 . S
O305 Gd281 2.327 . S
O305 C290 1.257 . S
O306 Gd281 2.377 . S
O306 C291 1.240 . S
O307 Gd280 2.395 . S
O307 C291 1.240 . S
O308 Gd281 2.448 . S
O308 C292 1.249 . S
O309 Gd281 2.506 . S
O309 C292 1.252 . S
O310 Gd281 2.435 . S
O310 C299 1.256 . S
O311 Gd280 2.327 . S
O311 Gd281 2.717 . S
O311 C299 1.257 . S
H312 C285 0.930 . S
H313 C286 0.931 . S
H314 C288 0.931 . S
H315 C289 0.931 . S
H316 C294 0.930 . S
H317 C295 0.931 . S
H318 C297 0.931 . S
H319 C298 0.931 . S
Gd320 C323 2.818 . S
Gd320 O340 2.377 . S
Gd320 O342 2.448 . S
Gd320 O343 2.506 . S
Gd320 O344 2.435 . S
Gd320 O345 2.717 . S
Gd320 O347 2.395 . S
Gd320 O351 2.327 . S
Gd321 C332 2.818 . S
Gd321 O341 2.395 . S
Gd321 O345 2.327 . S
Gd321 O346 2.377 . S
Gd321 O348 2.448 . S
Gd321 O349 2.506 . S
Gd321 O350 2.435 . S
Gd321 O351 2.717 . S
C322 O340 1.240 . S
C322 O341 1.240 . S
C323 Gd320 2.818 . S
C323 C324 1.510 . S
C323 O342 1.249 . S
C323 O343 1.252 . S
C324 C323 1.510 . S
C324 C325 1.404 . S
C324 C326 1.352 . S
C325 C324 1.404 . S
C325 C329 1.389 . S
C325 H352 0.930 . S
C326 C324 1.352 . S
C326 C328 1.374 . S
C326 H353 0.931 . S
C327 C328 1.359 . S
C327 C329 1.364 . S
C328 C326 1.374 . S
C328 C327 1.359 . S
C328 H354 0.931 . S
C329 C325 1.389 . S
C329 C327 1.364 . S
C329 H355 0.931 . S
C330 O344 1.256 . S
C330 O345 1.257 . S
C331 O346 1.240 . S
C331 O347 1.240 . S
C332 Gd321 2.818 . S
C332 C333 1.510 . S
C332 O348 1.249 . S
C332 O349 1.252 . S
C333 C332 1.510 . S
C333 C334 1.404 . S
C333 C335 1.352 . S
C334 C333 1.404 . S
C334 C338 1.389 . S
C334 H356 0.930 . S
C335 C333 1.352 . S
C335 C337 1.374 . S
C335 H357 0.931 . S
C336 C337 1.359 . S
C336 C338 1.364 . S
C337 C335 1.374 . S
C337 C336 1.359 . S
C337 H358 0.931 . S
C338 C334 1.389 . S
C338 C336 1.364 . S
C338 H359 0.931 . S
C339 O350 1.256 . S
C339 O351 1.257 . S
O340 Gd320 2.377 . S
O340 C322 1.240 . S
O341 Gd321 2.395 . S
O341 C322 1.240 . S
O342 Gd320 2.448 . S
O342 C323 1.249 . S
O343 Gd320 2.506 . S
O343 C323 1.252 . S
O344 Gd320 2.435 . S
O344 C330 1.256 . S
O345 Gd320 2.717 . S
O345 Gd321 2.327 . S
O345 C330 1.257 . S
O346 Gd321 2.377 . S
O346 C331 1.240 . S
O347 Gd320 2.395 . S
O347 C331 1.240 . S
O348 Gd321 2.448 . S
O348 C332 1.249 . S
O349 Gd321 2.506 . S
O349 C332 1.252 . S
O350 Gd321 2.435 . S
O350 C339 1.256 . S
O351 Gd320 2.327 . S
O351 Gd321 2.717 . S
O351 C339 1.257 . S
H352 C325 0.930 . S
H353 C326 0.931 . S
H354 C328 0.931 . S
H355 C329 0.931 . S
H356 C334 0.930 . S
H357 C335 0.931 . S
H358 C337 0.931 . S
H359 C338 0.931 . S
Gd360 C363 2.818 . S
Gd360 O380 2.377 1_565 S
Gd360 O382 2.448 . S
Gd360 O383 2.506 . S
Gd360 O384 2.435 1_565 S
Gd360 O385 2.717 1_565 S
Gd360 O387 2.395 . S
Gd360 O391 2.327 . S
Gd361 C372 2.818 . S
Gd361 O381 2.395 . S
Gd361 O385 2.327 . S
Gd361 O386 2.377 . S
Gd361 O388 2.448 . S
Gd361 O389 2.506 . S
Gd361 O390 2.435 . S
Gd361 O391 2.717 1_545 S
C362 O380 1.240 . S
C362 O381 1.240 . S
C363 Gd360 2.818 . S
C363 C364 1.510 . S
C363 O382 1.249 . S
C363 O383 1.252 . S
C364 C363 1.510 . S
C364 C365 1.404 . S
C364 C366 1.352 . S
C365 C364 1.404 . S
C365 C369 1.389 . S
C365 H392 0.930 . S
C366 C364 1.352 . S
C366 C368 1.374 . S
C366 H393 0.931 . S
C367 C368 1.359 . S
C367 C369 1.364 . S
C368 C366 1.374 . S
C368 C367 1.359 . S
C368 H394 0.931 . S
C369 C365 1.389 . S
C369 C367 1.364 . S
C369 H395 0.931 . S
C370 O384 1.256 . S
C370 O385 1.257 . S
C371 O386 1.240 1_565 S
C371 O387 1.240 . S
C372 Gd361 2.818 . S
C372 C373 1.510 . S
C372 O388 1.249 . S
C372 O389 1.252 . S
C373 C372 1.510 . S
C373 C374 1.404 . S
C373 C375 1.352 . S
C374 C373 1.404 . S
C374 C378 1.389 . S
C374 H396 0.930 . S
C375 C373 1.352 . S
C375 C377 1.374 . S
C375 H397 0.931 . S
C376 C377 1.359 . S
C376 C378 1.364 . S
C377 C375 1.374 . S
C377 C376 1.359 . S
C377 H398 0.931 . S
C378 C374 1.389 . S
C378 C376 1.364 . S
C378 H399 0.931 . S
C379 O390 1.256 1_565 S
C379 O391 1.257 . S
O380 Gd360 2.377 1_545 S
O380 C362 1.240 . S
O381 Gd361 2.395 . S
O381 C362 1.240 . S
O382 Gd360 2.448 . S
O382 C363 1.249 . S
O383 Gd360 2.506 . S
O383 C363 1.252 . S
O384 Gd360 2.435 1_545 S
O384 C370 1.256 . S
O385 Gd360 2.717 1_545 S
O385 Gd361 2.327 . S
O385 C370 1.257 . S
O386 Gd361 2.377 . S
O386 C371 1.240 1_545 S
O387 Gd360 2.395 . S
O387 C371 1.240 . S
O388 Gd361 2.448 . S
O388 C372 1.249 . S
O389 Gd361 2.506 . S
O389 C372 1.252 . S
O390 Gd361 2.435 . S
O390 C379 1.256 1_545 S
O391 Gd360 2.327 . S
O391 Gd361 2.717 1_565 S
O391 C379 1.257 . S
H392 C365 0.930 . S
H393 C366 0.931 . S
H394 C368 0.931 . S
H395 C369 0.931 . S
H396 C374 0.930 . S
H397 C375 0.931 . S
H398 C377 0.931 . S
H399 C378 0.931 . S
Gd400 C403 2.818 . S
Gd400 O420 2.377 . S
Gd400 O422 2.448 . S
Gd400 O423 2.506 . S
Gd400 O424 2.435 . S
Gd400 O425 2.717 . S
Gd400 O427 2.395 1_565 S
Gd400 O431 2.327 . S
Gd401 C412 2.818 . S
Gd401 O421 2.395 1_545 S
Gd401 O425 2.327 1_545 S
Gd401 O426 2.377 . S
Gd401 O428 2.448 . S
Gd401 O429 2.506 . S
Gd401 O430 2.435 . S
Gd401 O431 2.717 1_545 S
C402 O420 1.240 . S
C402 O421 1.240 . S
C403 Gd400 2.818 . S
C403 C404 1.510 . S
C403 O422 1.249 . S
C403 O423 1.252 . S
C404 C403 1.510 . S
C404 C405 1.404 . S
C404 C406 1.352 . S
C405 C404 1.404 . S
C405 C409 1.389 . S
C405 H432 0.930 . S
C406 C404 1.352 . S
C406 C408 1.374 . S
C406 H433 0.931 . S
C407 C408 1.359 . S
C407 C409 1.364 . S
C408 C406 1.374 . S
C408 C407 1.359 . S
C408 H434 0.931 . S
C409 C405 1.389 . S
C409 C407 1.364 . S
C409 H435 0.931 . S
C410 O424 1.256 . S
C410 O425 1.257 . S
C411 O426 1.240 . S
C411 O427 1.240 . S
C412 Gd401 2.818 . S
C412 C413 1.510 . S
C412 O428 1.249 . S
C412 O429 1.252 . S
C413 C412 1.510 . S
C413 C414 1.404 . S
C413 C415 1.352 . S
C414 C413 1.404 . S
C414 C418 1.389 . S
C414 H436 0.930 . S
C415 C413 1.352 . S
C415 C417 1.374 . S
C415 H437 0.931 . S
C416 C417 1.359 . S
C416 C418 1.364 . S
C417 C415 1.374 . S
C417 C416 1.359 . S
C417 H438 0.931 . S
C418 C414 1.389 . S
C418 C416 1.364 . S
C418 H439 0.931 . S
C419 O430 1.256 . S
C419 O431 1.257 1_545 S
O420 Gd400 2.377 . S
O420 C402 1.240 . S
O421 Gd401 2.395 1_565 S
O421 C402 1.240 . S
O422 Gd400 2.448 . S
O422 C403 1.249 . S
O423 Gd400 2.506 . S
O423 C403 1.252 . S
O424 Gd400 2.435 . S
O424 C410 1.256 . S
O425 Gd400 2.717 . S
O425 Gd401 2.327 1_565 S
O425 C410 1.257 . S
O426 Gd401 2.377 . S
O426 C411 1.240 . S
O427 Gd400 2.395 1_545 S
O427 C411 1.240 . S
O428 Gd401 2.448 . S
O428 C412 1.249 . S
O429 Gd401 2.506 . S
O429 C412 1.252 . S
O430 Gd401 2.435 . S
O430 C419 1.256 . S
O431 Gd400 2.327 . S
O431 Gd401 2.717 1_565 S
O431 C419 1.257 1_565 S
H432 C405 0.930 . S
H433 C406 0.931 . S
H434 C408 0.931 . S
H435 C409 0.931 . S
H436 C414 0.930 . S
H437 C415 0.931 . S
H438 C417 0.931 . S
H439 C418 0.931 . S
Gd440 C443 2.818 . S
Gd440 O460 2.377 . S
Gd440 O462 2.448 . S
Gd440 O463 2.506 . S
Gd440 O464 2.435 . S
Gd440 O465 2.717 . S
Gd440 O467 2.395 . S
Gd440 O471 2.327 . S
Gd441 C452 2.818 . S
Gd441 O461 2.395 . S
Gd441 O465 2.327 . S
Gd441 O466 2.377 . S
Gd441 O468 2.448 . S
Gd441 O469 2.506 . S
Gd441 O470 2.435 . S
Gd441 O471 2.717 . S
C442 O460 1.240 . S
C442 O461 1.240 . S
C443 Gd440 2.818 . S
C443 C444 1.510 . S
C443 O462 1.249 . S
C443 O463 1.252 . S
C444 C443 1.510 . S
C444 C445 1.404 . S
C444 C446 1.352 . S
C445 C444 1.404 . S
C445 C449 1.389 . S
C445 H472 0.930 . S
C446 C444 1.352 . S
C446 C448 1.374 . S
C446 H473 0.931 . S
C447 C448 1.359 . S
C447 C449 1.364 . S
C448 C446 1.374 . S
C448 C447 1.359 . S
C448 H474 0.931 . S
C449 C445 1.389 . S
C449 C447 1.364 . S
C449 H475 0.931 . S
C450 O464 1.256 . S
C450 O465 1.257 . S
C451 O466 1.240 . S
C451 O467 1.240 . S
C452 Gd441 2.818 . S
C452 C453 1.510 . S
C452 O468 1.249 . S
C452 O469 1.252 . S
C453 C452 1.510 . S
C453 C454 1.404 . S
C453 C455 1.352 . S
C454 C453 1.404 . S
C454 C458 1.389 . S
C454 H476 0.930 . S
C455 C453 1.352 . S
C455 C457 1.374 . S
C455 H477 0.931 . S
C456 C457 1.359 . S
C456 C458 1.364 . S
C457 C455 1.374 . S
C457 C456 1.359 . S
C457 H478 0.931 . S
C458 C454 1.389 . S
C458 C456 1.364 . S
C458 H479 0.931 . S
C459 O470 1.256 . S
C459 O471 1.257 . S
O460 Gd440 2.377 . S
O460 C442 1.240 . S
O461 Gd441 2.395 . S
O461 C442 1.240 . S
O462 Gd440 2.448 . S
O462 C443 1.249 . S
O463 Gd440 2.506 . S
O463 C443 1.252 . S
O464 Gd440 2.435 . S
O464 C450 1.256 . S
O465 Gd440 2.717 . S
O465 Gd441 2.327 . S
O465 C450 1.257 . S
O466 Gd441 2.377 . S
O466 C451 1.240 . S
O467 Gd440 2.395 . S
O467 C451 1.240 . S
O468 Gd441 2.448 . S
O468 C452 1.249 . S
O469 Gd441 2.506 . S
O469 C452 1.252 . S
O470 Gd441 2.435 . S
O470 C459 1.256 . S
O471 Gd440 2.327 . S
O471 Gd441 2.717 . S
O471 C459 1.257 . S
H472 C445 0.930 . S
H473 C446 0.931 . S
H474 C448 0.931 . S
H475 C449 0.931 . S
H476 C454 0.930 . S
H477 C455 0.931 . S
H478 C457 0.931 . S
H479 C458 0.931 . S
H480 C492 0.930 . S
H481 C494 0.930 . S
H482 C495 0.930 . S
H483 C499 0.959 . S
H484 C499 0.959 . S
H485 C499 0.961 . S
H486 C500 0.960 . S
H487 C500 0.961 . S
H488 C500 0.959 . S
H489 C503 0.929 . S
H490 C504 0.931 . S
H491 C506 0.930 . S
C492 H480 0.930 . S
C492 C493 1.399 . S
C492 C497 1.399 . S
C493 C492 1.399 . S
C493 C494 1.376 . S
C494 H481 0.930 . S
C494 C493 1.376 . S
C494 C495 1.388 . S
C495 H482 0.930 . S
C495 C494 1.388 . S
C495 C496 1.390 . S
C496 C495 1.390 . S
C496 C497 1.394 . S
C496 C502 1.465 . S
C497 C492 1.399 . S
C497 C496 1.394 . S
C497 C498 1.516 . S
C498 C497 1.516 . S
C498 C499 1.502 . S
C498 C500 1.561 . S
C498 C501 1.526 . S
C499 H483 0.959 . S
C499 H484 0.959 . S
C499 H485 0.961 . S
C499 C498 1.502 . S
C500 H486 0.960 . S
C500 H487 0.961 . S
C500 H488 0.959 . S
C500 C498 1.561 . S
C501 C498 1.526 . S
C501 C502 1.396 . S
C501 C506 1.390 . S
C502 C496 1.465 . S
C502 C501 1.396 . S
C502 C503 1.399 . S
C503 H489 0.929 . S
C503 C502 1.399 . S
C503 C504 1.385 . S
C504 H490 0.931 . S
C504 C503 1.385 . S
C504 C505 1.389 . S
C505 C504 1.389 . S
C505 C506 1.387 . S
C506 H491 0.930 . S
C506 C501 1.390 . S
C506 C505 1.387 . S
H507 C519 0.930 . S
H508 C521 0.930 . S
H509 C522 0.930 . S
H510 C526 0.945 1_545 S
H511 C526 0.962 . S
H512 C526 0.944 1_545 S
H513 C527 0.960 . S
H514 C527 0.961 . S
H515 C527 0.959 . S
H516 C530 0.929 . S
H517 C531 0.931 . S
H518 C533 0.930 . S
C519 H507 0.930 . S
C519 C520 1.399 . S
C519 C524 1.399 . S
C520 C519 1.399 . S
C520 C521 1.376 . S
C521 H508 0.930 . S
C521 C520 1.376 . S
C521 C522 1.388 . S
C522 H509 0.930 . S
C522 C521 1.388 . S
C522 C523 1.390 . S
C523 C522 1.390 . S
C523 C524 1.394 . S
C523 C529 1.465 . S
C524 C519 1.399 . S
C524 C523 1.394 . S
C524 C525 1.516 . S
C525 C524 1.516 . S
C525 C526 1.530 . S
C525 C527 1.561 . S
C525 C528 1.526 . S
C526 H510 0.945 1_565 S
C526 H511 0.962 . S
C526 H512 0.944 1_565 S
C526 C525 1.530 . S
C527 H513 0.960 . S
C527 H514 0.961 . S
C527 H515 0.959 . S
C527 C525 1.561 . S
C528 C525 1.526 . S
C528 C529 1.396 . S
C528 C533 1.390 . S
C529 C523 1.465 . S
C529 C528 1.396 . S
C529 C530 1.399 . S
C530 H516 0.929 . S
C530 C529 1.399 . S
C530 C531 1.385 . S
C531 H517 0.931 . S
C531 C530 1.385 . S
C531 C532 1.389 . S
C532 C531 1.389 . S
C532 C533 1.387 . S
C533 H518 0.930 . S
C533 C528 1.390 . S
C533 C532 1.387 . S
H534 C546 0.930 . S
H535 C548 0.930 . S
H536 C549 0.930 . S
H537 C553 0.959 1_554 S
H538 C553 0.959 . S
H539 C553 0.961 . S
H540 C554 0.960 . S
H541 C554 0.961 . S
H542 C554 0.959 . S
H543 C557 0.929 . S
H544 C558 0.931 . S
H545 C560 0.930 . S
C546 H534 0.930 . S
C546 C547 1.399 1_556 S
C546 C551 1.399 1_556 S
C547 C546 1.399 1_554 S
C547 C548 1.376 . S
C548 H535 0.930 . S
C548 C547 1.376 . S
C548 C549 1.388 . S
C549 H536 0.930 . S
C549 C548 1.388 . S
C549 C550 1.390 . S
C550 C549 1.390 . S
C550 C551 1.394 . S
C550 C556 1.465 . S
C551 C546 1.399 1_554 S
C551 C550 1.394 . S
C551 C552 1.516 . S
C552 C551 1.516 . S
C552 C553 1.502 1_554 S
C552 C554 1.561 1_554 S
C552 C555 1.526 . S
C553 H537 0.959 1_556 S
C553 H538 0.959 . S
C553 H539 0.961 . S
C553 C552 1.502 1_556 S
C554 H540 0.960 . S
C554 H541 0.961 . S
C554 H542 0.959 . S
C554 C552 1.561 1_556 S
C555 C552 1.526 . S
C555 C556 1.396 . S
C555 C560 1.390 . S
C556 C550 1.465 . S
C556 C555 1.396 . S
C556 C557 1.399 . S
C557 H543 0.929 . S
C557 C556 1.399 . S
C557 C558 1.385 . S
C558 H544 0.931 . S
C558 C557 1.385 . S
C558 C559 1.389 . S
C559 C558 1.389 . S
C559 C560 1.387 . S
C560 H545 0.930 . S
C560 C555 1.390 . S
C560 C559 1.387 . S
H561 C573 0.930 . S
H562 C575 0.930 . S
H563 C576 0.930 . S
H564 C580 0.959 . S
H565 C580 0.959 1_565 S
H566 C580 0.961 . S
H567 C581 0.960 . S
H568 C581 0.961 . S
H569 C581 0.959 . S
H570 C584 0.929 . S
H571 C585 0.931 . S
H572 C587 0.930 1_565 S
C573 H561 0.930 . S
C573 C574 1.399 . S
C573 C578 1.399 . S
C574 C573 1.399 . S
C574 C575 1.376 . S
C575 H562 0.930 . S
C575 C574 1.376 . S
C575 C576 1.388 . S
C576 H563 0.930 . S
C576 C575 1.388 . S
C576 C577 1.390 . S
C577 C576 1.390 . S
C577 C578 1.394 . S
C577 C583 1.465 . S
C578 C573 1.399 . S
C578 C577 1.394 . S
C578 C579 1.516 . S
C579 C578 1.516 . S
C579 C580 1.502 . S
C579 C581 1.561 1_545 S
C579 C582 1.526 . S
C580 H564 0.959 . S
C580 H565 0.959 1_545 S
C580 H566 0.961 . S
C580 C579 1.502 . S
C581 H567 0.960 . S
C581 H568 0.961 . S
C581 H569 0.959 . S
C581 C579 1.561 1_565 S
C582 C579 1.526 . S
C582 C583 1.396 . S
C582 C587 1.390 . S
C583 C577 1.465 . S
C583 C582 1.396 . S
C583 C584 1.399 . S
C584 H570 0.929 . S
C584 C583 1.399 . S
C584 C585 1.385 . S
C585 H571 0.931 . S
C585 C584 1.385 . S
C585 C586 1.389 . S
C586 C585 1.389 . S
C586 C587 1.387 . S
C587 H572 0.930 1_545 S
C587 C582 1.390 . S
C587 C586 1.387 . S
H588 C600 0.930 . S
H589 C602 0.930 . S
H590 C603 0.930 . S
H591 C607 0.959 . S
H592 C607 0.959 . S
H593 C607 0.961 . S
H594 C608 0.960 . S
H595 C608 0.961 . S
H596 C608 0.959 . S
H597 C611 0.929 . S
H598 C612 0.931 . S
H599 C614 0.930 . S
C600 H588 0.930 . S
C600 C601 1.399 . S
C600 C605 1.399 . S
C601 C600 1.399 . S
C601 C602 1.376 . S
C602 H589 0.930 . S
C602 C601 1.376 . S
C602 C603 1.388 . S
C603 H590 0.930 . S
C603 C602 1.388 . S
C603 C604 1.390 . S
C604 C603 1.390 . S
C604 C605 1.394 . S
C604 C610 1.465 . S
C605 C600 1.399 . S
C605 C604 1.394 . S
C605 C606 1.516 . S
C606 C605 1.516 . S
C606 C607 1.502 . S
C606 C608 1.561 . S
C606 C609 1.526 . S
C607 H591 0.959 . S
C607 H592 0.959 . S
C607 H593 0.961 . S
C607 C606 1.502 . S
C608 H594 0.960 . S
C608 H595 0.961 . S
C608 H596 0.959 . S
C608 C606 1.561 . S
C609 C606 1.526 . S
C609 C610 1.396 . S
C609 C614 1.390 . S
C610 C604 1.465 . S
C610 C609 1.396 . S
C610 C611 1.399 . S
C611 H597 0.929 . S
C611 C610 1.399 . S
C611 C612 1.385 . S
C612 H598 0.931 . S
C612 C611 1.385 . S
C612 C613 1.389 . S
C613 C612 1.389 . S
C613 C614 1.387 . S
C614 H599 0.930 . S
C614 C609 1.390 . S
C614 C613 1.387 . S
H615 C627 0.930 . S
H616 C629 0.930 . S
H617 C630 0.930 . S
H618 C634 0.959 . S
H619 C634 0.959 . S
H620 C634 0.961 . S
H621 C635 0.960 . S
H622 C635 0.961 . S
H623 C635 0.959 . S
H624 C638 0.929 . S
H625 C639 0.931 . S
H626 C641 0.930 . S
C627 H615 0.930 . S
C627 C628 1.399 . S
C627 C632 1.399 . S
C628 C627 1.399 . S
C628 C629 1.376 . S
C629 H616 0.930 . S
C629 C628 1.376 . S
C629 C630 1.388 . S
C630 H617 0.930 . S
C630 C629 1.388 . S
C630 C631 1.390 . S
C631 C630 1.390 . S
C631 C632 1.394 . S
C631 C637 1.465 . S
C632 C627 1.399 . S
C632 C631 1.394 . S
C632 C633 1.516 . S
C633 C632 1.516 . S
C633 C634 1.502 . S
C633 C635 1.561 . S
C633 C636 1.526 . S
C634 H618 0.959 . S
C634 H619 0.959 . S
C634 H620 0.961 . S
C634 C633 1.502 . S
C635 H621 0.960 . S
C635 H622 0.961 . S
C635 H623 0.959 . S
C635 C633 1.561 . S
C636 C633 1.526 . S
C636 C637 1.396 . S
C636 C641 1.390 . S
C637 C631 1.465 . S
C637 C636 1.396 . S
C637 C638 1.399 . S
C638 H624 0.929 . S
C638 C637 1.399 . S
C638 C639 1.385 . S
C639 H625 0.931 . S
C639 C638 1.385 . S
C639 C640 1.389 . S
C640 C639 1.389 . S
C640 C641 1.387 . S
C641 H626 0.930 . S
C641 C636 1.390 . S
C641 C640 1.387 . S
H642 C654 0.930 . S
H643 C656 0.930 . S
H644 C657 0.930 . S
H645 C661 0.959 . S
H646 C661 0.959 . S
H647 C661 0.961 . S
H648 C662 0.960 . S
H649 C662 0.961 . S
H650 C662 0.959 . S
H651 C665 0.929 . S
H652 C666 0.931 . S
H653 C668 0.930 . S
C654 H642 0.930 . S
C654 C655 1.399 . S
C654 C659 1.399 . S
C655 C654 1.399 . S
C655 C656 1.376 . S
C656 H643 0.930 . S
C656 C655 1.376 . S
C656 C657 1.388 . S
C657 H644 0.930 . S
C657 C656 1.388 . S
C657 C658 1.390 . S
C658 C657 1.390 . S
C658 C659 1.394 . S
C658 C664 1.465 . S
C659 C654 1.399 . S
C659 C658 1.394 . S
C659 C660 1.516 . S
C660 C659 1.516 . S
C660 C661 1.502 . S
C660 C662 1.561 . S
C660 C663 1.526 . S
C661 H645 0.959 . S
C661 H646 0.959 . S
C661 H647 0.961 . S
C661 C660 1.502 . S
C662 H648 0.960 . S
C662 H649 0.961 . S
C662 H650 0.959 . S
C662 C660 1.561 . S
C663 C660 1.526 . S
C663 C664 1.396 . S
C663 C668 1.390 . S
C664 C658 1.465 . S
C664 C663 1.396 . S
C664 C665 1.399 . S
C665 H651 0.929 . S
C665 C664 1.399 . S
C665 C666 1.385 . S
C666 H652 0.931 . S
C666 C665 1.385 . S
C666 C667 1.389 . S
C667 C666 1.389 . S
C667 C668 1.387 . S
C668 H653 0.930 . S
C668 C663 1.390 . S
C668 C667 1.387 . S
H669 C681 0.930 . S
H670 C683 0.930 . S
H671 C684 0.930 . S
H672 C688 0.959 . S
H673 C688 0.959 . S
H674 C688 0.961 . S
H675 C689 0.960 . S
H676 C689 0.961 . S
H677 C689 0.959 . S
H678 C692 0.929 . S
H679 C693 0.931 . S
H680 C695 0.930 . S
C681 H669 0.930 . S
C681 C682 1.399 . S
C681 C686 1.399 . S
C682 C681 1.399 . S
C682 C683 1.376 . S
C683 H670 0.930 . S
C683 C682 1.376 . S
C683 C684 1.388 . S
C684 H671 0.930 . S
C684 C683 1.388 . S
C684 C685 1.390 . S
C685 C684 1.390 . S
C685 C686 1.394 . S
C685 C691 1.465 . S
C686 C681 1.399 . S
C686 C685 1.394 . S
C686 C687 1.516 . S
C687 C686 1.516 . S
C687 C688 1.502 . S
C687 C689 1.561 . S
C687 C690 1.526 . S
C688 H672 0.959 . S
C688 H673 0.959 . S
C688 H674 0.961 . S
C688 C687 1.502 . S
C689 H675 0.960 . S
C689 H676 0.961 . S
C689 H677 0.959 . S
C689 C687 1.561 . S
C690 C687 1.526 . S
C690 C691 1.396 . S
C690 C695 1.390 . S
C691 C685 1.465 . S
C691 C690 1.396 . S
C691 C692 1.399 . S
C692 H678 0.929 . S
C692 C691 1.399 . S
C692 C693 1.385 . S
C693 H679 0.931 . S
C693 C692 1.385 . S
C693 C694 1.389 . S
C694 C693 1.389 . S
C694 C695 1.387 . S
C695 H680 0.930 . S
C695 C690 1.390 . S
C695 C694 1.387 . S
H696 C708 0.930 . S
H697 C710 0.930 . S
H698 C711 0.930 . S
H699 C715 0.959 . S
H700 C715 0.959 . S
H701 C715 0.961 . S
H702 C716 0.960 . S
H703 C716 0.961 . S
H704 C716 0.959 . S
H705 C719 0.929 . S
H706 C720 0.931 . S
H707 C722 0.930 . S
C708 H696 0.930 . S
C708 C709 1.399 . S
C708 C713 1.399 . S
C709 C708 1.399 . S
C709 C710 1.376 . S
C710 H697 0.930 . S
C710 C709 1.376 . S
C710 C711 1.388 . S
C711 H698 0.930 . S
C711 C710 1.388 . S
C711 C712 1.390 . S
C712 C711 1.390 . S
C712 C713 1.394 . S
C712 C718 1.465 . S
C713 C708 1.399 . S
C713 C712 1.394 . S
C713 C714 1.516 . S
C714 C713 1.516 . S
C714 C715 1.502 . S
C714 C716 1.561 . S
C714 C717 1.526 . S
C715 H699 0.959 . S
C715 H700 0.959 . S
C715 H701 0.961 . S
C715 C714 1.502 . S
C716 H702 0.960 . S
C716 H703 0.961 . S
C716 H704 0.959 . S
C716 C714 1.561 . S
C717 C714 1.526 . S
C717 C718 1.396 . S
C717 C722 1.390 . S
C718 C712 1.465 . S
C718 C717 1.396 . S
C718 C719 1.399 . S
C719 H705 0.929 . S
C719 C718 1.399 . S
C719 C720 1.385 . S
C720 H706 0.931 . S
C720 C719 1.385 . S
C720 C721 1.389 . S
C721 C720 1.389 . S
C721 C722 1.387 . S
C722 H707 0.930 . S
C722 C717 1.390 . S
C722 C721 1.387 . S
H723 C735 0.930 . S
H724 C737 0.930 . S
H725 C738 0.930 . S
H726 C742 0.959 . S
H727 C742 0.959 . S
H728 C742 0.961 . S
H729 C743 0.960 . S
H730 C743 0.961 . S
H731 C743 0.959 1_655 S
H732 C746 0.929 . S
H733 C747 0.931 . S
H734 C749 0.930 . S
C735 H723 0.930 . S
C735 C736 1.399 . S
C735 C740 1.399 . S
C736 C735 1.399 . S
C736 C737 1.376 . S
C737 H724 0.930 . S
C737 C736 1.376 . S
C737 C738 1.388 . S
C738 H725 0.930 . S
C738 C737 1.388 . S
C738 C739 1.390 . S
C739 C738 1.390 . S
C739 C740 1.394 . S
C739 C745 1.465 . S
C740 C735 1.399 . S
C740 C739 1.394 . S
C740 C741 1.516 . S
C741 C740 1.516 . S
C741 C742 1.502 . S
C741 C743 1.561 . S
C741 C744 1.526 . S
C742 H726 0.959 . S
C742 H727 0.959 . S
C742 H728 0.961 . S
C742 C741 1.502 . S
C743 H729 0.960 . S
C743 H730 0.961 . S
C743 H731 0.959 1_455 S
C743 C741 1.561 . S
C744 C741 1.526 . S
C744 C745 1.396 . S
C744 C749 1.390 . S
C745 C739 1.465 . S
C745 C744 1.396 . S
C745 C746 1.399 . S
C746 H732 0.929 . S
C746 C745 1.399 . S
C746 C747 1.385 . S
C747 H733 0.931 . S
C747 C746 1.385 . S
C747 C748 1.389 . S
C748 C747 1.389 . S
C748 C749 1.387 . S
C749 H734 0.930 . S
C749 C744 1.390 . S
C749 C748 1.387 . S
H750 C762 0.930 1_455 S
H751 C764 0.930 . S
H752 C765 0.930 . S
H753 C769 0.959 . S
H754 C769 0.959 . S
H755 C769 0.961 . S
H756 C770 0.960 . S
H757 C770 0.961 . S
H758 C770 0.959 . S
H759 C773 0.929 . S
H760 C774 0.931 . S
H761 C776 0.930 . S
C762 H750 0.930 1_655 S
C762 C763 1.399 . S
C762 C767 1.399 . S
C763 C762 1.399 . S
C763 C764 1.376 . S
C764 H751 0.930 . S
C764 C763 1.376 . S
C764 C765 1.388 . S
C765 H752 0.930 . S
C765 C764 1.388 . S
C765 C766 1.390 . S
C766 C765 1.390 . S
C766 C767 1.394 . S
C766 C772 1.465 . S
C767 C762 1.399 . S
C767 C766 1.394 . S
C767 C768 1.516 . S
C768 C767 1.516 . S
C768 C769 1.502 1_655 S
C768 C770 1.561 . S
C768 C771 1.526 . S
C769 H753 0.959 . S
C769 H754 0.959 . S
C769 H755 0.961 . S
C769 C768 1.502 1_455 S
C770 H756 0.960 . S
C770 H757 0.961 . S
C770 H758 0.959 . S
C770 C768 1.561 . S
C771 C768 1.526 . S
C771 C772 1.396 . S
C771 C776 1.390 . S
C772 C766 1.465 . S
C772 C771 1.396 . S
C772 C773 1.399 . S
C773 H759 0.929 . S
C773 C772 1.399 . S
C773 C774 1.385 . S
C774 H760 0.931 . S
C774 C773 1.385 . S
C774 C775 1.389 . S
C775 C774 1.389 . S
C775 C776 1.387 . S
C776 H761 0.930 . S
C776 C771 1.390 . S
C776 C775 1.387 . S
H777 C789 0.930 . S
H778 C791 0.930 . S
H779 C792 0.930 . S
H780 C796 0.959 . S
H781 C796 0.959 . S
H782 C796 0.961 . S
H783 C797 0.960 . S
H784 C797 0.961 . S
H785 C797 0.959 . S
H786 C800 0.929 . S
H787 C801 0.931 . S
H788 C803 0.930 . S
C789 H777 0.930 . S
C789 C790 1.399 . S
C789 C794 1.399 . S
C790 C789 1.399 . S
C790 C791 1.376 . S
C791 H778 0.930 . S
C791 C790 1.376 . S
C791 C792 1.388 . S
C792 H779 0.930 . S
C792 C791 1.388 . S
C792 C793 1.390 . S
C793 C792 1.390 . S
C793 C794 1.394 . S
C793 C799 1.465 . S
C794 C789 1.399 . S
C794 C793 1.394 . S
C794 C795 1.516 . S
C795 C794 1.516 . S
C795 C796 1.502 . S
C795 C797 1.561 . S
C795 C798 1.526 . S
C796 H780 0.959 . S
C796 H781 0.959 . S
C796 H782 0.961 . S
C796 C795 1.502 . S
C797 H783 0.960 . S
C797 H784 0.961 . S
C797 H785 0.959 . S
C797 C795 1.561 . S
C798 C795 1.526 . S
C798 C799 1.396 . S
C798 C803 1.390 . S
C799 C793 1.465 . S
C799 C798 1.396 . S
C799 C800 1.399 . S
C800 H786 0.929 . S
C800 C799 1.399 . S
C800 C801 1.385 . S
C801 H787 0.931 . S
C801 C800 1.385 . S
C801 C802 1.389 . S
C802 C801 1.389 . S
C802 C803 1.387 . S
C803 H788 0.930 . S
C803 C798 1.390 . S
C803 C802 1.387 . S
H804 C816 0.930 . S
H805 C818 0.930 . S
H806 C819 0.930 . S
H807 C823 0.959 . S
H808 C823 0.959 . S
H809 C823 0.961 . S
H810 C824 0.960 . S
H811 C824 0.961 . S
H812 C824 0.959 . S
H813 C827 0.929 . S
H814 C828 0.931 . S
H815 C830 0.930 . S
C816 H804 0.930 . S
C816 C817 1.399 . S
C816 C821 1.399 . S
C817 C816 1.399 . S
C817 C818 1.376 . S
C818 H805 0.930 . S
C818 C817 1.376 . S
C818 C819 1.388 . S
C819 H806 0.930 . S
C819 C818 1.388 . S
C819 C820 1.390 . S
C820 C819 1.390 . S
C820 C821 1.394 . S
C820 C826 1.465 . S
C821 C816 1.399 . S
C821 C820 1.394 . S
C821 C822 1.516 . S
C822 C821 1.516 . S
C822 C823 1.502 . S
C822 C824 1.561 . S
C822 C825 1.526 . S
C823 H807 0.959 . S
C823 H808 0.959 . S
C823 H809 0.961 . S
C823 C822 1.502 . S
C824 H810 0.960 . S
C824 H811 0.961 . S
C824 H812 0.959 . S
C824 C822 1.561 . S
C825 C822 1.526 . S
C825 C826 1.396 . S
C825 C830 1.390 . S
C826 C820 1.465 . S
C826 C825 1.396 . S
C826 C827 1.399 . S
C827 H813 0.929 . S
C827 C826 1.399 . S
C827 C828 1.385 . S
C828 H814 0.931 . S
C828 C827 1.385 . S
C828 C829 1.389 . S
C829 C828 1.389 . S
C829 C830 1.387 . S
C830 H815 0.930 . S
C830 C825 1.390 . S
C830 C829 1.387 . S
H831 C843 0.930 . S
H832 C845 0.930 . S
H833 C846 0.930 . S
H834 C850 0.959 . S
H835 C850 0.959 . S
H836 C850 0.961 . S
H837 C851 0.960 . S
H838 C851 0.961 . S
H839 C851 0.959 . S
H840 C854 0.929 . S
H841 C855 0.931 1_545 S
H842 C857 0.930 . S
C843 H831 0.930 . S
C843 C844 1.399 . S
C843 C848 1.399 . S
C844 C843 1.399 . S
C844 C845 1.376 . S
C845 H832 0.930 . S
C845 C844 1.376 . S
C845 C846 1.388 . S
C846 H833 0.930 . S
C846 C845 1.388 . S
C846 C847 1.390 . S
C847 C846 1.390 . S
C847 C848 1.394 . S
C847 C853 1.465 . S
C848 C843 1.399 . S
C848 C847 1.394 . S
C848 C849 1.516 . S
C849 C848 1.516 . S
C849 C850 1.502 . S
C849 C851 1.561 . S
C849 C852 1.526 . S
C850 H834 0.959 . S
C850 H835 0.959 . S
C850 H836 0.961 . S
C850 C849 1.502 . S
C851 H837 0.960 . S
C851 H838 0.961 . S
C851 H839 0.959 . S
C851 C849 1.561 . S
C852 C849 1.526 . S
C852 C853 1.396 . S
C852 C857 1.390 . S
C853 C847 1.465 . S
C853 C852 1.396 . S
C853 C854 1.399 . S
C854 H840 0.929 . S
C854 C853 1.399 . S
C854 C855 1.385 . S
C855 H841 0.931 1_565 S
C855 C854 1.385 . S
C855 C856 1.389 . S
C856 C855 1.389 . S
C856 C857 1.387 . S
C857 H842 0.930 . S
C857 C852 1.390 . S
C857 C856 1.387 . S
H858 C870 0.930 . S
H859 C872 0.930 . S
H860 C873 0.930 . S
H861 C877 0.959 . S
H862 C877 0.959 . S
H863 C877 0.961 . S
H864 C878 0.960 . S
H865 C878 0.961 . S
H866 C878 0.959 . S
H867 C881 0.929 . S
H868 C882 0.931 . S
H869 C884 0.930 . S
C870 H858 0.930 . S
C870 C871 1.399 . S
C870 C875 1.399 . S
C871 C870 1.399 . S
C871 C872 1.376 . S
C872 H859 0.930 . S
C872 C871 1.376 . S
C872 C873 1.388 . S
C873 H860 0.930 . S
C873 C872 1.388 . S
C873 C874 1.390 . S
C874 C873 1.390 . S
C874 C875 1.394 . S
C874 C880 1.465 . S
C875 C870 1.399 . S
C875 C874 1.394 . S
C875 C876 1.516 . S
C876 C875 1.516 . S
C876 C877 1.502 . S
C876 C878 1.561 . S
C876 C879 1.526 . S
C877 H861 0.959 . S
C877 H862 0.959 . S
C877 H863 0.961 . S
C877 C876 1.502 . S
C878 H864 0.960 . S
C878 H865 0.961 . S
C878 H866 0.959 . S
C878 C876 1.561 . S
C879 C876 1.526 . S
C879 C880 1.396 . S
C879 C884 1.390 . S
C880 C874 1.465 . S
C880 C879 1.396 . S
C880 C881 1.399 . S
C881 H867 0.929 . S
C881 C880 1.399 . S
C881 C882 1.385 . S
C882 H868 0.931 . S
C882 C881 1.385 . S
C882 C883 1.389 . S
C883 C882 1.389 . S
C883 C884 1.387 . S
C884 H869 0.930 . S
C884 C879 1.390 . S
C884 C883 1.387 . S
H885 C897 0.930 . S
H886 C899 0.930 . S
H887 C900 0.930 . S
H888 C904 0.959 . S
H889 C904 0.959 . S
H890 C904 0.961 . S
H891 C905 0.960 . S
H892 C905 0.961 . S
H893 C905 0.959 . S
H894 C908 0.929 . S
H895 C909 0.931 . S
H896 C911 0.930 . S
C897 H885 0.930 . S
C897 C898 1.399 . S
C897 C902 1.399 . S
C898 C897 1.399 . S
C898 C899 1.376 . S
C899 H886 0.930 . S
C899 C898 1.376 . S
C899 C900 1.388 . S
C900 H887 0.930 . S
C900 C899 1.388 . S
C900 C901 1.390 . S
C901 C900 1.390 . S
C901 C902 1.394 . S
C901 C907 1.465 . S
C902 C897 1.399 . S
C902 C901 1.394 . S
C902 C903 1.516 1_554 S
C903 C902 1.516 1_556 S
C903 C904 1.502 . S
C903 C905 1.561 . S
C903 C906 1.526 . S
C904 H888 0.959 . S
C904 H889 0.959 . S
C904 H890 0.961 . S
C904 C903 1.502 . S
C905 H891 0.960 . S
C905 H892 0.961 . S
C905 H893 0.959 . S
C905 C903 1.561 . S
C906 C903 1.526 . S
C906 C907 1.396 1_556 S
C906 C911 1.390 . S
C907 C901 1.465 . S
C907 C906 1.396 1_554 S
C907 C908 1.399 . S
C908 H894 0.929 . S
C908 C907 1.399 . S
C908 C909 1.385 1_554 S
C909 H895 0.931 . S
C909 C908 1.385 1_556 S
C909 C910 1.389 . S
C910 C909 1.389 . S
C910 C911 1.387 . S
C911 H896 0.930 . S
C911 C906 1.390 . S
C911 C910 1.387 . S
H912 C924 0.930 . S
H913 C926 0.930 . S
H914 C927 0.930 . S
H915 C931 0.959 . S
H916 C931 0.959 . S
H917 C931 0.961 . S
H918 C932 0.960 . S
H919 C932 0.961 . S
H920 C932 0.959 . S
H921 C935 0.929 . S
H922 C936 0.931 . S
H923 C938 0.930 . S
C924 H912 0.930 . S
C924 C925 1.399 . S
C924 C929 1.399 . S
C925 C924 1.399 . S
C925 C926 1.376 . S
C926 H913 0.930 . S
C926 C925 1.376 . S
C926 C927 1.388 . S
C927 H914 0.930 . S
C927 C926 1.388 . S
C927 C928 1.390 . S
C928 C927 1.390 . S
C928 C929 1.394 . S
C928 C934 1.465 . S
C929 C924 1.399 . S
C929 C928 1.394 . S
C929 C930 1.516 . S
C930 C929 1.516 . S
C930 C931 1.502 . S
C930 C932 1.561 . S
C930 C933 1.526 . S
C931 H915 0.959 . S
C931 H916 0.959 . S
C931 H917 0.961 . S
C931 C930 1.502 . S
C932 H918 0.960 . S
C932 H919 0.961 . S
C932 H920 0.959 . S
C932 C930 1.561 . S
C933 C930 1.526 . S
C933 C934 1.396 . S
C933 C938 1.390 . S
C934 C928 1.465 . S
C934 C933 1.396 . S
C934 C935 1.399 . S
C935 H921 0.929 . S
C935 C934 1.399 . S
C935 C936 1.385 . S
C936 H922 0.931 . S
C936 C935 1.385 . S
C936 C937 1.389 . S
C937 C936 1.389 . S
C937 C938 1.387 . S
C938 H923 0.930 . S
C938 C933 1.390 . S
C938 C937 1.387 . S
H939 C951 0.930 . S
H940 C953 0.930 . S
H941 C954 0.930 . S
H942 C958 0.959 . S
H943 C958 0.959 . S
H944 C958 0.961 1_554 S
H945 C959 0.960 . S
H946 C959 0.961 . S
H947 C959 0.959 . S
H948 C962 0.929 . S
H949 C963 0.931 . S
H950 C965 0.930 . S
C951 H939 0.930 . S
C951 C952 1.399 . S
C951 C956 1.399 1_554 S
C952 C951 1.399 . S
C952 C953 1.376 . S
C953 H940 0.930 . S
C953 C952 1.376 . S
C953 C954 1.388 1_554 S
C954 H941 0.930 . S
C954 C953 1.388 1_556 S
C954 C955 1.390 . S
C955 C954 1.390 . S
C955 C956 1.394 . S
C955 C961 1.465 . S
C956 C951 1.399 1_556 S
C956 C955 1.394 . S
C956 C957 1.516 . S
C957 C956 1.516 . S
C957 C958 1.502 . S
C957 C959 1.561 . S
C957 C960 1.526 . S
C958 H942 0.959 . S
C958 H943 0.959 . S
C958 H944 0.961 1_556 S
C958 C957 1.502 . S
C959 H945 0.960 . S
C959 H946 0.961 . S
C959 H947 0.959 . S
C959 C957 1.561 . S
C960 C957 1.526 . S
C960 C961 1.396 . S
C960 C965 1.390 . S
C961 C955 1.465 . S
C961 C960 1.396 . S
C961 C962 1.399 . S
C962 H948 0.929 . S
C962 C961 1.399 . S
C962 C963 1.385 . S
C963 H949 0.931 . S
C963 C962 1.385 . S
C963 C964 1.389 . S
C964 C963 1.389 . S
C964 C965 1.387 . S
C965 H950 0.930 . S
C965 C960 1.390 . S
C965 C964 1.387 . S
H966 C978 0.930 . S
H967 C980 0.930 . S
H968 C981 0.930 . S
H969 C985 0.959 . S
H970 C985 0.959 . S
H971 C985 0.961 . S
H972 C986 0.960 . S
H973 C986 0.961 . S
H974 C986 0.959 . S
H975 C989 0.929 . S
H976 C990 0.931 . S
H977 C992 0.930 . S
C978 H966 0.930 . S
C978 C979 1.399 . S
C978 C983 1.399 . S
C979 C978 1.399 . S
C979 C980 1.376 . S
C980 H967 0.930 . S
C980 C979 1.376 . S
C980 C981 1.388 . S
C981 H968 0.930 . S
C981 C980 1.388 . S
C981 C982 1.390 . S
C982 C981 1.390 . S
C982 C983 1.394 . S
C982 C988 1.465 . S
C983 C978 1.399 . S
C983 C982 1.394 . S
C983 C984 1.516 . S
C984 C983 1.516 . S
C984 C985 1.502 . S
C984 C986 1.561 . S
C984 C987 1.526 . S
C985 H969 0.959 . S
C985 H970 0.959 . S
C985 H971 0.961 . S
C985 C984 1.502 . S
C986 H972 0.960 . S
C986 H973 0.961 . S
C986 H974 0.959 . S
C986 C984 1.561 . S
C987 C984 1.526 . S
C987 C988 1.396 . S
C987 C992 1.390 . S
C988 C982 1.465 . S
C988 C987 1.396 . S
C988 C989 1.399 . S
C989 H975 0.929 . S
C989 C988 1.399 . S
C989 C990 1.385 . S
C990 H976 0.931 . S
C990 C989 1.385 . S
C990 C991 1.389 . S
C991 C990 1.389 . S
C991 C992 1.387 . S
C992 H977 0.930 . S
C992 C987 1.390 . S
C992 C991 1.387 . S
H993 C1005 0.930 . S
H994 C1007 0.930 . S
H995 C1008 0.930 . S
H996 C1012 0.959 . S
H997 C1012 0.959 . S
H998 C1012 0.961 . S
H999 C1013 0.960 . S
H1000 C1013 0.961 . S
H1001 C1013 0.959 . S
H1002 C1016 0.929 . S
H1003 C1017 0.931 . S
H1004 C1019 0.930 . S
C1005 H993 0.930 . S
C1005 C1006 1.399 . S
C1005 C1010 1.399 . S
C1006 C1005 1.399 . S
C1006 C1007 1.376 . S
C1007 H994 0.930 . S
C1007 C1006 1.376 . S
C1007 C1008 1.388 . S
C1008 H995 0.930 . S
C1008 C1007 1.388 . S
C1008 C1009 1.390 . S
C1009 C1008 1.390 . S
C1009 C1010 1.394 . S
C1009 C1015 1.465 . S
C1010 C1005 1.399 . S
C1010 C1009 1.394 . S
C1010 C1011 1.516 . S
C1011 C1010 1.516 . S
C1011 C1012 1.502 . S
C1011 C1013 1.561 . S
C1011 C1014 1.526 . S
C1012 H996 0.959 . S
C1012 H997 0.959 . S
C1012 H998 0.961 . S
C1012 C1011 1.502 . S
C1013 H999 0.960 . S
C1013 H1000 0.961 . S
C1013 H1001 0.959 . S
C1013 C1011 1.561 . S
C1014 C1011 1.526 . S
C1014 C1015 1.396 . S
C1014 C1019 1.390 . S
C1015 C1009 1.465 . S
C1015 C1014 1.396 . S
C1015 C1016 1.399 . S
C1016 H1002 0.929 . S
C1016 C1015 1.399 . S
C1016 C1017 1.385 . S
C1017 H1003 0.931 . S
C1017 C1016 1.385 . S
C1017 C1018 1.389 . S
C1018 C1017 1.389 . S
C1018 C1019 1.387 . S
C1019 H1004 0.930 . S
C1019 C1014 1.390 . S
C1019 C1018 1.387 . S
H1020 C1032 0.930 . S
H1021 C1034 0.930 . S
H1022 C1035 0.930 . S
H1023 C1039 0.959 . S
H1024 C1039 0.959 . S
H1025 C1039 0.961 . S
H1026 C1040 0.960 . S
H1027 C1040 0.961 . S
H1028 C1040 0.959 . S
H1029 C1043 0.929 . S
H1030 C1044 0.931 . S
H1031 C1046 0.930 . S
C1032 H1020 0.930 . S
C1032 C1033 1.399 . S
C1032 C1037 1.399 . S
C1033 C1032 1.399 . S
C1033 C1034 1.376 . S
C1034 H1021 0.930 . S
C1034 C1033 1.376 . S
C1034 C1035 1.388 . S
C1035 H1022 0.930 . S
C1035 C1034 1.388 . S
C1035 C1036 1.390 . S
C1036 C1035 1.390 . S
C1036 C1037 1.394 . S
C1036 C1042 1.465 . S
C1037 C1032 1.399 . S
C1037 C1036 1.394 . S
C1037 C1038 1.516 . S
C1038 C1037 1.516 . S
C1038 C1039 1.502 . S
C1038 C1040 1.561 . S
C1038 C1041 1.526 . S
C1039 H1023 0.959 . S
C1039 H1024 0.959 . S
C1039 H1025 0.961 . S
C1039 C1038 1.502 . S
C1040 H1026 0.960 . S
C1040 H1027 0.961 . S
C1040 H1028 0.959 . S
C1040 C1038 1.561 . S
C1041 C1038 1.526 . S
C1041 C1042 1.396 . S
C1041 C1046 1.390 . S
C1042 C1036 1.465 . S
C1042 C1041 1.396 . S
C1042 C1043 1.399 . S
C1043 H1029 0.929 . S
C1043 C1042 1.399 . S
C1043 C1044 1.385 . S
C1044 H1030 0.931 . S
C1044 C1043 1.385 . S
C1044 C1045 1.389 . S
C1045 C1044 1.389 . S
C1045 C1046 1.387 . S
C1046 H1031 0.930 . S
C1046 C1041 1.390 . S
C1046 C1045 1.387 . S
H1047 C1059 0.930 . S
H1048 C1061 0.930 . S
H1049 C1062 0.930 . S
H1050 C1066 0.959 . S
H1051 C1066 0.959 . S
H1052 C1066 0.961 . S
H1053 C1067 0.960 . S
H1054 C1067 0.961 . S
H1055 C1067 0.959 . S
H1056 C1070 0.929 1_545 S
H1057 C1071 0.931 . S
H1058 C1073 0.930 . S
C1059 H1047 0.930 . S
C1059 C1060 1.399 . S
C1059 C1064 1.399 . S
C1060 C1059 1.399 . S
C1060 C1061 1.376 . S
C1061 H1048 0.930 . S
C1061 C1060 1.376 . S
C1061 C1062 1.388 . S
C1062 H1049 0.930 . S
C1062 C1061 1.388 . S
C1062 C1063 1.390 . S
C1063 C1062 1.390 . S
C1063 C1064 1.394 . S
C1063 C1069 1.465 . S
C1064 C1059 1.399 . S
C1064 C1063 1.394 . S
C1064 C1065 1.516 1_545 S
C1065 C1064 1.516 1_565 S
C1065 C1066 1.502 . S
C1065 C1067 1.561 . S
C1065 C1068 1.526 . S
C1066 H1050 0.959 . S
C1066 H1051 0.959 . S
C1066 H1052 0.961 . S
C1066 C1065 1.502 . S
C1067 H1053 0.960 . S
C1067 H1054 0.961 . S
C1067 H1055 0.959 . S
C1067 C1065 1.561 . S
C1068 C1065 1.526 . S
C1068 C1069 1.396 1_565 S
C1068 C1073 1.390 . S
C1069 C1063 1.465 . S
C1069 C1068 1.396 1_545 S
C1069 C1070 1.399 1_545 S
C1070 H1056 0.929 1_565 S
C1070 C1069 1.399 1_565 S
C1070 C1071 1.385 . S
C1071 H1057 0.931 . S
C1071 C1070 1.385 . S
C1071 C1072 1.389 . S
C1072 C1071 1.389 . S
C1072 C1073 1.387 . S
C1073 H1058 0.930 . S
C1073 C1068 1.390 . S
C1073 C1072 1.387 . S
H1074 C1086 0.930 . S
H1075 C1088 0.930 . S
H1076 C1089 0.930 . S
H1077 C1093 0.959 . S
H1078 C1093 0.959 . S
H1079 C1093 0.961 . S
H1080 C1094 0.960 . S
H1081 C1094 0.948 1_554 S
H1082 C1094 0.959 . S
H1083 C1097 0.929 . S
H1084 C1098 0.931 . S
H1085 C1100 0.930 . S
C1086 H1074 0.930 . S
C1086 C1087 1.399 . S
C1086 C1091 1.399 . S
C1087 C1086 1.399 . S
C1087 C1088 1.376 . S
C1088 H1075 0.930 . S
C1088 C1087 1.376 . S
C1088 C1089 1.388 . S
C1089 H1076 0.930 . S
C1089 C1088 1.388 . S
C1089 C1090 1.390 . S
C1090 C1089 1.390 . S
C1090 C1091 1.394 . S
C1090 C1096 1.465 . S
C1091 C1086 1.399 . S
C1091 C1090 1.394 . S
C1091 C1092 1.516 . S
C1092 C1091 1.516 . S
C1092 C1093 1.502 . S
C1092 C1094 1.561 . S
C1092 C1095 1.526 . S
C1093 H1077 0.959 . S
C1093 H1078 0.959 . S
C1093 H1079 0.961 . S
C1093 C1092 1.502 . S
C1094 H1080 0.960 . S
C1094 H1081 0.948 1_556 S
C1094 H1082 0.959 . S
C1094 C1092 1.561 . S
C1095 C1092 1.526 . S
C1095 C1096 1.396 . S
C1095 C1100 1.390 . S
C1096 C1090 1.465 . S
C1096 C1095 1.396 . S
C1096 C1097 1.399 . S
C1097 H1083 0.929 . S
C1097 C1096 1.399 . S
C1097 C1098 1.385 . S
C1098 H1084 0.931 . S
C1098 C1097 1.385 . S
C1098 C1099 1.389 . S
C1099 C1098 1.389 . S
C1099 C1100 1.387 . S
C1100 H1085 0.930 . S
C1100 C1095 1.390 . S
C1100 C1099 1.387 . S
H1101 C1113 0.930 . S
H1102 C1115 0.930 . S
H1103 C1116 0.930 1_565 S
H1104 C1120 0.959 . S
H1105 C1120 0.959 . S
H1106 C1120 0.961 . S
H1107 C1121 0.960 . S
H1108 C1121 0.961 . S
H1109 C1121 0.959 1_565 S
H1110 C1124 0.929 . S
H1111 C1125 0.931 . S
H1112 C1127 0.930 . S
C1113 H1101 0.930 . S
C1113 C1114 1.399 . S
C1113 C1118 1.399 . S
C1114 C1113 1.399 . S
C1114 C1115 1.376 . S
C1115 H1102 0.930 . S
C1115 C1114 1.376 . S
C1115 C1116 1.388 . S
C1116 H1103 0.930 1_545 S
C1116 C1115 1.388 . S
C1116 C1117 1.390 1_545 S
C1117 C1116 1.390 1_565 S
C1117 C1118 1.394 1_565 S
C1117 C1123 1.465 . S
C1118 C1113 1.399 . S
C1118 C1117 1.394 1_545 S
C1118 C1119 1.516 . S
C1119 C1118 1.516 . S
C1119 C1120 1.502 . S
C1119 C1121 1.561 . S
C1119 C1122 1.526 1_545 S
C1120 H1104 0.959 . S
C1120 H1105 0.959 . S
C1120 H1106 0.961 . S
C1120 C1119 1.502 . S
C1121 H1107 0.960 . S
C1121 H1108 0.961 . S
C1121 H1109 0.959 1_545 S
C1121 C1119 1.561 . S
C1122 C1119 1.526 1_565 S
C1122 C1123 1.396 . S
C1122 C1127 1.390 . S
C1123 C1117 1.465 . S
C1123 C1122 1.396 . S
C1123 C1124 1.399 . S
C1124 H1110 0.929 . S
C1124 C1123 1.399 . S
C1124 C1125 1.385 . S
C1125 H1111 0.931 . S
C1125 C1124 1.385 . S
C1125 C1126 1.389 . S
C1126 C1125 1.389 . S
C1126 C1127 1.387 . S
C1127 H1112 0.930 . S
C1127 C1122 1.390 . S
C1127 C1126 1.387 . S
H1128 C1140 0.930 . S
H1129 C1142 0.930 . S
H1130 C1143 0.930 . S
H1131 C1147 0.959 . S
H1132 C1147 0.959 . S
H1133 C1147 0.961 . S
H1134 C1148 0.960 . S
H1135 C1148 0.961 . S
H1136 C1148 0.959 . S
H1137 C1151 0.929 . S
H1138 C1152 0.931 . S
H1139 C1154 0.930 . S
C1140 H1128 0.930 . S
C1140 C1141 1.399 . S
C1140 C1145 1.399 . S
C1141 C1140 1.399 . S
C1141 C1142 1.376 . S
C1142 H1129 0.930 . S
C1142 C1141 1.376 . S
C1142 C1143 1.388 . S
C1143 H1130 0.930 . S
C1143 C1142 1.388 . S
C1143 C1144 1.390 . S
C1144 C1143 1.390 . S
C1144 C1145 1.394 . S
C1144 C1150 1.465 . S
C1145 C1140 1.399 . S
C1145 C1144 1.394 . S
C1145 C1146 1.516 . S
C1146 C1145 1.516 . S
C1146 C1147 1.502 . S
C1146 C1148 1.561 . S
C1146 C1149 1.526 . S
C1147 H1131 0.959 . S
C1147 H1132 0.959 . S
C1147 H1133 0.961 . S
C1147 C1146 1.502 . S
C1148 H1134 0.960 . S
C1148 H1135 0.961 . S
C1148 H1136 0.959 . S
C1148 C1146 1.561 . S
C1149 C1146 1.526 . S
C1149 C1150 1.396 . S
C1149 C1154 1.390 . S
C1150 C1144 1.465 . S
C1150 C1149 1.396 . S
C1150 C1151 1.399 . S
C1151 H1137 0.929 . S
C1151 C1150 1.399 . S
C1151 C1152 1.385 . S
C1152 H1138 0.931 . S
C1152 C1151 1.385 . S
C1152 C1153 1.389 . S
C1153 C1152 1.389 . S
C1153 C1154 1.387 . S
C1154 H1139 0.930 . S
C1154 C1149 1.390 . S
C1154 C1153 1.387 . S
H1155 C1167 0.930 . S
H1156 C1169 0.930 . S
H1157 C1170 0.930 . S
H1158 C1174 0.959 . S
H1159 C1174 0.959 . S
H1160 C1174 0.961 . S
H1161 C1175 0.960 . S
H1162 C1175 0.961 . S
H1163 C1175 0.959 . S
H1164 C1178 0.929 . S
H1165 C1179 0.931 . S
H1166 C1181 0.930 . S
C1167 H1155 0.930 . S
C1167 C1168 1.399 . S
C1167 C1172 1.399 . S
C1168 C1167 1.399 . S
C1168 C1169 1.376 . S
C1169 H1156 0.930 . S
C1169 C1168 1.376 . S
C1169 C1170 1.388 . S
C1170 H1157 0.930 . S
C1170 C1169 1.388 . S
C1170 C1171 1.390 . S
C1171 C1170 1.390 . S
C1171 C1172 1.394 . S
C1171 C1177 1.465 . S
C1172 C1167 1.399 . S
C1172 C1171 1.394 . S
C1172 C1173 1.516 . S
C1173 C1172 1.516 . S
C1173 C1174 1.502 . S
C1173 C1175 1.561 . S
C1173 C1176 1.526 . S
C1174 H1158 0.959 . S
C1174 H1159 0.959 . S
C1174 H1160 0.961 . S
C1174 C1173 1.502 . S
C1175 H1161 0.960 . S
C1175 H1162 0.961 . S
C1175 H1163 0.959 . S
C1175 C1173 1.561 . S
C1176 C1173 1.526 . S
C1176 C1177 1.396 . S
C1176 C1181 1.390 . S
C1177 C1171 1.465 . S
C1177 C1176 1.396 . S
C1177 C1178 1.399 . S
C1178 H1164 0.929 . S
C1178 C1177 1.399 . S
C1178 C1179 1.385 . S
C1179 H1165 0.931 . S
C1179 C1178 1.385 . S
C1179 C1180 1.389 . S
C1180 C1179 1.389 . S
C1180 C1181 1.387 . S
C1181 H1166 0.930 . S
C1181 C1176 1.390 . S
C1181 C1180 1.387 . S
H1182 C1194 0.930 . S
H1183 C1196 0.930 . S
H1184 C1197 0.930 . S
H1185 C1201 0.959 . S
H1186 C1201 0.959 . S
H1187 C1201 0.961 . S
H1188 C1202 0.960 . S
H1189 C1202 0.961 . S
H1190 C1202 0.959 . S
H1191 C1205 0.929 . S
H1192 C1206 0.931 . S
H1193 C1208 0.930 . S
C1194 H1182 0.930 . S
C1194 C1195 1.399 . S
C1194 C1199 1.399 . S
C1195 C1194 1.399 . S
C1195 C1196 1.376 . S
C1196 H1183 0.930 . S
C1196 C1195 1.376 . S
C1196 C1197 1.388 . S
C1197 H1184 0.930 . S
C1197 C1196 1.388 . S
C1197 C1198 1.390 . S
C1198 C1197 1.390 . S
C1198 C1199 1.394 . S
C1198 C1204 1.465 . S
C1199 C1194 1.399 . S
C1199 C1198 1.394 . S
C1199 C1200 1.516 . S
C1200 C1199 1.516 . S
C1200 C1201 1.502 . S
C1200 C1202 1.561 . S
C1200 C1203 1.526 . S
C1201 H1185 0.959 . S
C1201 H1186 0.959 . S
C1201 H1187 0.961 . S
C1201 C1200 1.502 . S
C1202 H1188 0.960 . S
C1202 H1189 0.961 . S
C1202 H1190 0.959 . S
C1202 C1200 1.561 . S
C1203 C1200 1.526 . S
C1203 C1204 1.396 . S
C1203 C1208 1.390 . S
C1204 C1198 1.465 . S
C1204 C1203 1.396 . S
C1204 C1205 1.399 . S
C1205 H1191 0.929 . S
C1205 C1204 1.399 . S
C1205 C1206 1.385 . S
C1206 H1192 0.931 . S
C1206 C1205 1.385 . S
C1206 C1207 1.389 . S
C1207 C1206 1.389 . S
C1207 C1208 1.387 . S
C1208 H1193 0.930 . S
C1208 C1203 1.390 . S
C1208 C1207 1.387 . S
H1209 C1221 0.930 . S
H1210 C1223 0.930 . S
H1211 C1224 0.930 . S
H1212 C1228 0.959 . S
H1213 C1228 0.959 . S
H1214 C1228 0.961 . S
H1215 C1229 0.960 . S
H1216 C1229 0.961 . S
H1217 C1229 0.959 . S
H1218 C1232 0.929 . S
H1219 C1233 0.931 . S
H1220 C1235 0.930 . S
C1221 H1209 0.930 . S
C1221 C1222 1.399 . S
C1221 C1226 1.399 . S
C1222 C1221 1.399 . S
C1222 C1223 1.376 . S
C1223 H1210 0.930 . S
C1223 C1222 1.376 . S
C1223 C1224 1.388 . S
C1224 H1211 0.930 . S
C1224 C1223 1.388 . S
C1224 C1225 1.390 . S
C1225 C1224 1.390 . S
C1225 C1226 1.394 . S
C1225 C1231 1.465 . S
C1226 C1221 1.399 . S
C1226 C1225 1.394 . S
C1226 C1227 1.516 . S
C1227 C1226 1.516 . S
C1227 C1228 1.502 . S
C1227 C1229 1.561 . S
C1227 C1230 1.526 . S
C1228 H1212 0.959 . S
C1228 H1213 0.959 . S
C1228 H1214 0.961 . S
C1228 C1227 1.502 . S
C1229 H1215 0.960 . S
C1229 H1216 0.961 . S
C1229 H1217 0.959 . S
C1229 C1227 1.561 . S
C1230 C1227 1.526 . S
C1230 C1231 1.396 . S
C1230 C1235 1.390 . S
C1231 C1225 1.465 . S
C1231 C1230 1.396 . S
C1231 C1232 1.399 . S
C1232 H1218 0.929 . S
C1232 C1231 1.399 . S
C1232 C1233 1.385 . S
C1233 H1219 0.931 . S
C1233 C1232 1.385 . S
C1233 C1234 1.389 . S
C1234 C1233 1.389 . S
C1234 C1235 1.387 . S
C1235 H1220 0.930 . S
C1235 C1230 1.390 . S
C1235 C1234 1.387 . S
H1236 C1248 0.930 . S
H1237 C1250 0.930 . S
H1238 C1251 0.930 . S
H1239 C1255 0.959 . S
H1240 C1255 0.959 . S
H1241 C1255 0.961 . S
H1242 C1256 0.960 . S
H1243 C1256 0.961 . S
H1244 C1256 0.959 . S
H1245 C1259 0.929 . S
H1246 C1260 0.931 . S
H1247 C1262 0.930 . S
C1248 H1236 0.930 . S
C1248 C1249 1.399 . S
C1248 C1253 1.399 . S
C1249 C1248 1.399 . S
C1249 C1250 1.376 . S
C1250 H1237 0.930 . S
C1250 C1249 1.376 . S
C1250 C1251 1.388 . S
C1251 H1238 0.930 . S
C1251 C1250 1.388 . S
C1251 C1252 1.390 . S
C1252 C1251 1.390 . S
C1252 C1253 1.394 . S
C1252 C1258 1.465 . S
C1253 C1248 1.399 . S
C1253 C1252 1.394 . S
C1253 C1254 1.516 . S
C1254 C1253 1.516 . S
C1254 C1255 1.502 . S
C1254 C1256 1.561 . S
C1254 C1257 1.526 . S
C1255 H1239 0.959 . S
C1255 H1240 0.959 . S
C1255 H1241 0.961 . S
C1255 C1254 1.502 . S
C1256 H1242 0.960 . S
C1256 H1243 0.961 . S
C1256 H1244 0.959 . S
C1256 C1254 1.561 . S
C1257 C1254 1.526 . S
C1257 C1258 1.396 . S
C1257 C1262 1.390 . S
C1258 C1252 1.465 . S
C1258 C1257 1.396 . S
C1258 C1259 1.399 . S
C1259 H1245 0.929 . S
C1259 C1258 1.399 . S
C1259 C1260 1.385 . S
C1260 H1246 0.931 . S
C1260 C1259 1.385 . S
C1260 C1261 1.389 . S
C1261 C1260 1.389 . S
C1261 C1262 1.387 . S
C1262 H1247 0.930 . S
C1262 C1257 1.390 . S
C1262 C1261 1.387 . S
H1263 C1275 0.930 . S
H1264 C1277 0.930 . S
H1265 C1278 0.930 . S
H1266 C1282 0.959 . S
H1267 C1282 0.959 . S
H1268 C1282 0.961 . S
H1269 C1283 0.960 . S
H1270 C1283 0.961 . S
H1271 C1283 0.959 . S
H1272 C1286 0.929 . S
H1273 C1287 0.931 . S
H1274 C1289 0.930 . S
C1275 H1263 0.930 . S
C1275 C1276 1.399 . S
C1275 C1280 1.399 . S
C1276 C1275 1.399 . S
C1276 C1277 1.376 . S
C1277 H1264 0.930 . S
C1277 C1276 1.376 . S
C1277 C1278 1.388 . S
C1278 H1265 0.930 . S
C1278 C1277 1.388 . S
C1278 C1279 1.390 . S
C1279 C1278 1.390 . S
C1279 C1280 1.394 . S
C1279 C1285 1.465 . S
C1280 C1275 1.399 . S
C1280 C1279 1.394 . S
C1280 C1281 1.516 . S
C1281 C1280 1.516 . S
C1281 C1282 1.502 . S
C1281 C1283 1.561 . S
C1281 C1284 1.526 . S
C1282 H1266 0.959 . S
C1282 H1267 0.959 . S
C1282 H1268 0.961 . S
C1282 C1281 1.502 . S
C1283 H1269 0.960 . S
C1283 H1270 0.961 . S
C1283 H1271 0.959 . S
C1283 C1281 1.561 . S
C1284 C1281 1.526 . S
C1284 C1285 1.396 . S
C1284 C1289 1.390 . S
C1285 C1279 1.465 . S
C1285 C1284 1.396 . S
C1285 C1286 1.399 . S
C1286 H1272 0.929 . S
C1286 C1285 1.399 . S
C1286 C1287 1.385 . S
C1287 H1273 0.931 . S
C1287 C1286 1.385 . S
C1287 C1288 1.389 . S
C1288 C1287 1.389 . S
C1288 C1289 1.387 . S
C1289 H1274 0.930 . S
C1289 C1284 1.390 . S
C1289 C1288 1.387 . S
H1290 C1302 0.930 . S
H1291 C1304 0.930 . S
H1292 C1305 0.930 . S
H1293 C1309 0.973 . S
H1294 C1309 0.940 1_556 S
H1295 C1309 0.953 1_556 S
H1296 C1310 0.960 1_556 S
H1297 C1310 0.961 1_656 S
H1298 C1310 0.959 1_655 S
H1299 C1313 0.929 . S
H1300 C1314 0.931 . S
H1301 C1316 0.930 . S
C1302 H1290 0.930 . S
C1302 C1303 1.399 . S
C1302 C1307 1.399 . S
C1303 C1302 1.399 . S
C1303 C1304 1.376 . S
C1304 H1291 0.930 . S
C1304 C1303 1.376 . S
C1304 C1305 1.388 . S
C1305 H1292 0.930 . S
C1305 C1304 1.388 . S
C1305 C1306 1.390 . S
C1306 C1305 1.390 . S
C1306 C1307 1.394 . S
C1306 C1312 1.465 1_455 S
C1307 C1302 1.399 . S
C1307 C1306 1.394 . S
C1307 C1308 1.516 . S
C1308 C1307 1.516 . S
C1308 C1309 1.516 . S
C1308 C1310 1.561 . S
C1308 C1311 1.526 1_455 S
C1309 H1293 0.973 . S
C1309 H1294 0.940 1_554 S
C1309 H1295 0.953 1_554 S
C1309 C1308 1.516 . S
C1310 H1296 0.960 1_554 S
C1310 H1297 0.961 1_454 S
C1310 H1298 0.959 1_455 S
C1310 C1308 1.561 . S
C1311 C1308 1.526 1_655 S
C1311 C1312 1.396 . S
C1311 C1316 1.390 . S
C1312 C1306 1.465 1_655 S
C1312 C1311 1.396 . S
C1312 C1313 1.399 . S
C1313 H1299 0.929 . S
C1313 C1312 1.399 . S
C1313 C1314 1.385 . S
C1314 H1300 0.931 . S
C1314 C1313 1.385 . S
C1314 C1315 1.389 . S
C1315 C1314 1.389 . S
C1315 C1316 1.387 . S
C1316 H1301 0.930 . S
C1316 C1311 1.390 . S
C1316 C1315 1.387 . S
H1317 C1329 0.930 . S
H1318 C1331 0.930 . S
H1319 C1332 0.930 . S
H1320 C1336 0.959 . S
H1321 C1336 0.959 . S
H1322 C1336 0.961 . S
H1323 C1337 0.960 . S
H1324 C1337 0.961 . S
H1325 C1337 0.959 . S
H1326 C1340 0.929 . S
H1327 C1341 0.931 . S
H1328 C1343 0.930 . S
C1329 H1317 0.930 . S
C1329 C1330 1.399 . S
C1329 C1334 1.399 . S
C1330 C1329 1.399 . S
C1330 C1331 1.376 . S
C1331 H1318 0.930 . S
C1331 C1330 1.376 . S
C1331 C1332 1.388 . S
C1332 H1319 0.930 . S
C1332 C1331 1.388 . S
C1332 C1333 1.390 . S
C1333 C1332 1.390 . S
C1333 C1334 1.394 . S
C1333 C1339 1.465 . S
C1334 C1329 1.399 . S
C1334 C1333 1.394 . S
C1334 C1335 1.516 . S
C1335 C1334 1.516 . S
C1335 C1336 1.502 . S
C1335 C1337 1.561 . S
C1335 C1338 1.526 . S
C1336 H1320 0.959 . S
C1336 H1321 0.959 . S
C1336 H1322 0.961 . S
C1336 C1335 1.502 . S
C1337 H1323 0.960 . S
C1337 H1324 0.961 . S
C1337 H1325 0.959 . S
C1337 C1335 1.561 . S
C1338 C1335 1.526 . S
C1338 C1339 1.396 . S
C1338 C1343 1.390 . S
C1339 C1333 1.465 . S
C1339 C1338 1.396 . S
C1339 C1340 1.399 . S
C1340 H1326 0.929 . S
C1340 C1339 1.399 . S
C1340 C1341 1.385 . S
C1341 H1327 0.931 . S
C1341 C1340 1.385 . S
C1341 C1342 1.389 . S
C1342 C1341 1.389 . S
C1342 C1343 1.387 . S
C1343 H1328 0.930 . S
C1343 C1338 1.390 . S
C1343 C1342 1.387 . S
H1344 C1356 0.930 . S
H1345 C1358 0.930 . S
H1346 C1359 0.930 . S
H1347 C1363 0.959 . S
H1348 C1363 0.959 . S
H1349 C1363 0.961 . S
H1350 C1364 0.960 . S
H1351 C1364 0.961 . S
H1352 C1364 0.959 . S
H1353 C1367 0.929 . S
H1354 C1368 0.931 . S
H1355 C1370 0.930 . S
C1356 H1344 0.930 . S
C1356 C1357 1.399 . S
C1356 C1361 1.399 . S
C1357 C1356 1.399 . S
C1357 C1358 1.376 . S
C1358 H1345 0.930 . S
C1358 C1357 1.376 . S
C1358 C1359 1.388 . S
C1359 H1346 0.930 . S
C1359 C1358 1.388 . S
C1359 C1360 1.390 . S
C1360 C1359 1.390 . S
C1360 C1361 1.394 . S
C1360 C1366 1.465 . S
C1361 C1356 1.399 . S
C1361 C1360 1.394 . S
C1361 C1362 1.516 . S
C1362 C1361 1.516 . S
C1362 C1363 1.502 . S
C1362 C1364 1.561 . S
C1362 C1365 1.526 . S
C1363 H1347 0.959 . S
C1363 H1348 0.959 . S
C1363 H1349 0.961 . S
C1363 C1362 1.502 . S
C1364 H1350 0.960 . S
C1364 H1351 0.961 . S
C1364 H1352 0.959 . S
C1364 C1362 1.561 . S
C1365 C1362 1.526 . S
C1365 C1366 1.396 . S
C1365 C1370 1.390 . S
C1366 C1360 1.465 . S
C1366 C1365 1.396 . S
C1366 C1367 1.399 . S
C1367 H1353 0.929 . S
C1367 C1366 1.399 . S
C1367 C1368 1.385 . S
C1368 H1354 0.931 . S
C1368 C1367 1.385 . S
C1368 C1369 1.389 . S
C1369 C1368 1.389 . S
C1369 C1370 1.387 . S
C1370 H1355 0.930 . S
C1370 C1365 1.390 . S
C1370 C1369 1.387 . S
H1371 C1383 0.930 . S
H1372 C1385 0.930 . S
H1373 C1386 0.930 . S
H1374 C1390 0.959 . S
H1375 C1390 0.959 . S
H1376 C1390 0.961 . S
H1377 C1391 0.960 . S
H1378 C1391 0.961 . S
H1379 C1391 0.959 . S
H1380 C1394 0.929 . S
H1381 C1395 0.931 . S
H1382 C1397 0.930 . S
C1383 H1371 0.930 . S
C1383 C1384 1.399 . S
C1383 C1388 1.399 . S
C1384 C1383 1.399 . S
C1384 C1385 1.376 . S
C1385 H1372 0.930 . S
C1385 C1384 1.376 . S
C1385 C1386 1.388 . S
C1386 H1373 0.930 . S
C1386 C1385 1.388 . S
C1386 C1387 1.390 . S
C1387 C1386 1.390 . S
C1387 C1388 1.394 . S
C1387 C1393 1.465 . S
C1388 C1383 1.399 . S
C1388 C1387 1.394 . S
C1388 C1389 1.516 . S
C1389 C1388 1.516 . S
C1389 C1390 1.502 . S
C1389 C1391 1.561 . S
C1389 C1392 1.526 . S
C1390 H1374 0.959 . S
C1390 H1375 0.959 . S
C1390 H1376 0.961 . S
C1390 C1389 1.502 . S
C1391 H1377 0.960 . S
C1391 H1378 0.961 . S
C1391 H1379 0.959 . S
C1391 C1389 1.561 . S
C1392 C1389 1.526 . S
C1392 C1393 1.396 . S
C1392 C1397 1.390 . S
C1393 C1387 1.465 . S
C1393 C1392 1.396 . S
C1393 C1394 1.399 . S
C1394 H1380 0.929 . S
C1394 C1393 1.399 . S
C1394 C1395 1.385 . S
C1395 H1381 0.931 . S
C1395 C1394 1.385 . S
C1395 C1396 1.389 . S
C1396 C1395 1.389 . S
C1396 C1397 1.387 . S
C1397 H1382 0.930 . S
C1397 C1392 1.390 . S
C1397 C1396 1.387 . S
H1398 C1410 0.930 . S
H1399 C1412 0.930 . S
H1400 C1413 0.930 . S
H1401 C1417 0.959 . S
H1402 C1417 0.959 . S
H1403 C1417 0.961 . S
H1404 C1418 0.960 . S
H1405 C1418 0.961 . S
H1406 C1418 0.952 1_554 S
H1407 C1421 0.929 . S
H1408 C1422 0.931 . S
H1409 C1424 0.930 . S
C1410 H1398 0.930 . S
C1410 C1411 1.399 . S
C1410 C1415 1.399 . S
C1411 C1410 1.399 . S
C1411 C1412 1.376 . S
C1412 H1399 0.930 . S
C1412 C1411 1.376 . S
C1412 C1413 1.388 . S
C1413 H1400 0.930 . S
C1413 C1412 1.388 . S
C1413 C1414 1.390 . S
C1414 C1413 1.390 . S
C1414 C1415 1.394 . S
C1414 C1420 1.465 . S
C1415 C1410 1.399 . S
C1415 C1414 1.394 . S
C1415 C1416 1.516 . S
C1416 C1415 1.516 . S
C1416 C1417 1.502 . S
C1416 C1418 1.561 . S
C1416 C1419 1.526 . S
C1417 H1401 0.959 . S
C1417 H1402 0.959 . S
C1417 H1403 0.961 . S
C1417 C1416 1.502 . S
C1418 H1404 0.960 . S
C1418 H1405 0.961 . S
C1418 H1406 0.952 1_556 S
C1418 C1416 1.561 . S
C1419 C1416 1.526 . S
C1419 C1420 1.396 . S
C1419 C1424 1.390 . S
C1420 C1414 1.465 . S
C1420 C1419 1.396 . S
C1420 C1421 1.399 . S
C1421 H1407 0.929 . S
C1421 C1420 1.399 . S
C1421 C1422 1.385 . S
C1422 H1408 0.931 . S
C1422 C1421 1.385 . S
C1422 C1423 1.389 . S
C1423 C1422 1.389 . S
C1423 C1424 1.387 . S
C1424 H1409 0.930 . S
C1424 C1419 1.390 . S
C1424 C1423 1.387 . S
H1425 C1437 0.930 . S
H1426 C1439 0.930 . S
H1427 C1440 0.930 . S
H1428 C1444 0.959 . S
H1429 C1444 0.959 . S
H1430 C1444 0.961 . S
H1431 C1445 0.960 . S
H1432 C1445 0.961 . S
H1433 C1445 0.959 . S
H1434 C1448 0.929 . S
H1435 C1449 0.931 . S
H1436 C1451 0.930 . S
C1437 H1425 0.930 . S
C1437 C1438 1.399 . S
C1437 C1442 1.399 . S
C1438 C1437 1.399 . S
C1438 C1439 1.376 . S
C1439 H1426 0.930 . S
C1439 C1438 1.376 . S
C1439 C1440 1.388 . S
C1440 H1427 0.930 . S
C1440 C1439 1.388 . S
C1440 C1441 1.390 . S
C1441 C1440 1.390 . S
C1441 C1442 1.394 . S
C1441 C1447 1.465 . S
C1442 C1437 1.399 . S
C1442 C1441 1.394 . S
C1442 C1443 1.516 . S
C1443 C1442 1.516 . S
C1443 C1444 1.502 . S
C1443 C1445 1.561 . S
C1443 C1446 1.526 . S
C1444 H1428 0.959 . S
C1444 H1429 0.959 . S
C1444 H1430 0.961 . S
C1444 C1443 1.502 . S
C1445 H1431 0.960 . S
C1445 H1432 0.961 . S
C1445 H1433 0.959 . S
C1445 C1443 1.561 . S
C1446 C1443 1.526 . S
C1446 C1447 1.396 . S
C1446 C1451 1.390 1_655 S
C1447 C1441 1.465 . S
C1447 C1446 1.396 . S
C1447 C1448 1.399 . S
C1448 H1434 0.929 . S
C1448 C1447 1.399 . S
C1448 C1449 1.385 1_655 S
C1449 H1435 0.931 . S
C1449 C1448 1.385 1_455 S
C1449 C1450 1.389 . S
C1450 C1449 1.389 . S
C1450 C1451 1.387 . S
C1451 H1436 0.930 . S
C1451 C1446 1.390 1_455 S
C1451 C1450 1.387 . S
C493 C11 1.290 . S
C505 C459 1.294 . S
C520 C371 1.818 . S
C532 C59 1.886 . S
C547 C91 1.237 . S
C559 C339 1.314 . S
C574 C139 1.998 . S
C586 C419 1.997 . S
C601 C179 1.777 . S
C613 C411 1.703 . S
C628 C211 1.449 . S
C640 C451 1.455 . S
C655 C379 1.894 . S
C667 C259 1.893 . S
C682 C291 1.595 . S
C694 C331 1.603 . S
C709 C131 1.566 . S
C721 C171 1.588 . S
C736 C19 1.609 . S
C748 C219 1.613 . S
C763 C51 1.575 . S
C775 C251 1.590 . S
C790 C299 1.795 . S
C802 C99 1.795 . S
C817 C16 1.977 . S
C829 C330 1.911 . S
C844 C47 1.291 . S
C856 C410 1.247 . S
C871 C450 1.907 . S
C883 C96 1.975 . S
C898 C127 1.561 . S
C910 C362 1.547 . S
C925 C167 1.178 . S
C937 C370 1.168 . S
C952 C322 2.160 . S
C964 C216 2.091 . S
C979 C402 1.426 . S
C991 C247 1.444 . S
C1006 C442 2.188 . S
C1018 C296 2.066 . S
C1033 C10 2.354 . S
C1045 C136 2.420 . S
C1060 C7 1.750 . S
C1072 C42 1.714 . S
C1087 C56 2.147 . S
C1099 C90 2.189 . S
C1114 C122 1.604 . S
C1126 C87 1.625 . S
C1141 C207 1.540 . S
C1153 C162 1.498 . S
C1168 C210 1.278 . S
C1180 C256 1.397 . S
C1195 C242 1.427 . S
C1207 C287 1.450 . S
C1222 C176 1.182 . S
C1234 C290 1.100 . S
C1249 C336 1.544 . S
C1261 C130 1.489 . S
C1276 C202 2.127 . S
C1288 C376 2.040 . S
C1303 C327 1.395 . S
C1315 C250 1.337 . S
C1330 C407 1.805 . S
C1342 C282 1.783 . S
C1357 C170 1.327 . S
C1369 C447 1.345 . S
C1384 C456 1.400 . S
C1396 C50 1.446 . S
C1411 C82 1.650 . S
C1423 C367 1.668 . S
C1438 C416 1.948 . S
C1450 C2 2.032 . S
