# Generated by pormake.
# Topology uoi, (4)-cn, num edge types: 1
# Building blocks:
#     Node 0, Type 0, BuildingBlock: QUQFOY_clean_sbu_1, # of connection points: 4
#     Node 1, Type 0, BuildingBlock: QUQFOY_clean_sbu_1, # of connection points: 4
#     Node 2, Type 0, BuildingBlock: QUQFOY_clean_sbu_1, # of connection points: 4
#     Node 3, Type 0, BuildingBlock: QUQFOY_clean_sbu_1, # of connection points: 4
#     Node 4, Type 0, BuildingBlock: QUQFOY_clean_sbu_1, # of connection points: 4
#     Node 5, Type 0, BuildingBlock: QUQFOY_clean_sbu_1, # of connection points: 4
#     Node 6, Type 0, BuildingBlock: QUQFOY_clean_sbu_1, # of connection points: 4
#     Node 7, Type 0, BuildingBlock: QUQFOY_clean_sbu_1, # of connection points: 4
#     Node 8, Type 0, BuildingBlock: QUQFOY_clean_sbu_1, # of connection points: 4
#     Node 9, Type 0, BuildingBlock: QUQFOY_clean_sbu_1, # of connection points: 4
#     Node 10, Type 0, BuildingBlock: QUQFOY_clean_sbu_1, # of connection points: 4
#     Node 11, Type 0, BuildingBlock: QUQFOY_clean_sbu_1, # of connection points: 4
#     Node 12, Type 0, BuildingBlock: QUQFOY_clean_sbu_1, # of connection points: 4
#     Node 13, Type 0, BuildingBlock: QUQFOY_clean_sbu_1, # of connection points: 4
#     Node 14, Type 0, BuildingBlock: QUQFOY_clean_sbu_1, # of connection points: 4
#     Node 15, Type 0, BuildingBlock: QUQFOY_clean_sbu_1, # of connection points: 4
#     Node 16, Type 0, BuildingBlock: QUQFOY_clean_sbu_1, # of connection points: 4
#     Node 17, Type 0, BuildingBlock: QUQFOY_clean_sbu_1, # of connection points: 4
#     Node 18, Type 0, BuildingBlock: QUQFOY_clean_sbu_1, # of connection points: 4
#     Node 19, Type 0, BuildingBlock: QUQFOY_clean_sbu_1, # of connection points: 4
#     Node 20, Type 0, BuildingBlock: QUQFOY_clean_sbu_1, # of connection points: 4
#     Node 21, Type 0, BuildingBlock: QUQFOY_clean_sbu_1, # of connection points: 4
#     Node 22, Type 0, BuildingBlock: QUQFOY_clean_sbu_1, # of connection points: 4
#     Node 23, Type 0, BuildingBlock: QUQFOY_clean_sbu_1, # of connection points: 4
#     Node 24, Type 0, BuildingBlock: QUQFOY_clean_sbu_1, # of connection points: 4
#     Node 25, Type 0, BuildingBlock: QUQFOY_clean_sbu_1, # of connection points: 4
#     Node 26, Type 0, BuildingBlock: QUQFOY_clean_sbu_1, # of connection points: 4
#     Node 27, Type 0, BuildingBlock: QUQFOY_clean_sbu_1, # of connection points: 4
#     Node 28, Type 0, BuildingBlock: QUQFOY_clean_sbu_1, # of connection points: 4
#     Node 29, Type 0, BuildingBlock: QUQFOY_clean_sbu_1, # of connection points: 4
#     Node 30, Type 0, BuildingBlock: QUQFOY_clean_sbu_1, # of connection points: 4
#     Node 31, Type 0, BuildingBlock: QUQFOY_clean_sbu_1, # of connection points: 4
#     Edge 32, Type (0, 0), BuildingBlock: CIFDUS_clean_linker_0, # of connection points: 2
#     Edge 33, Type (0, 0), BuildingBlock: CIFDUS_clean_linker_0, # of connection points: 2
#     Edge 34, Type (0, 0), BuildingBlock: CIFDUS_clean_linker_0, # of connection points: 2
#     Edge 35, Type (0, 0), BuildingBlock: CIFDUS_clean_linker_0, # of connection points: 2
#     Edge 36, Type (0, 0), BuildingBlock: CIFDUS_clean_linker_0, # of connection points: 2
#     Edge 37, Type (0, 0), BuildingBlock: CIFDUS_clean_linker_0, # of connection points: 2
#     Edge 38, Type (0, 0), BuildingBlock: CIFDUS_clean_linker_0, # of connection points: 2
#     Edge 39, Type (0, 0), BuildingBlock: CIFDUS_clean_linker_0, # of connection points: 2
#     Edge 40, Type (0, 0), BuildingBlock: CIFDUS_clean_linker_0, # of connection points: 2
#     Edge 41, Type (0, 0), BuildingBlock: CIFDUS_clean_linker_0, # of connection points: 2
#     Edge 42, Type (0, 0), BuildingBlock: CIFDUS_clean_linker_0, # of connection points: 2
#     Edge 43, Type (0, 0), BuildingBlock: CIFDUS_clean_linker_0, # of connection points: 2
#     Edge 44, Type (0, 0), BuildingBlock: CIFDUS_clean_linker_0, # of connection points: 2
#     Edge 45, Type (0, 0), BuildingBlock: CIFDUS_clean_linker_0, # of connection points: 2
#     Edge 46, Type (0, 0), BuildingBlock: CIFDUS_clean_linker_0, # of connection points: 2
#     Edge 47, Type (0, 0), BuildingBlock: CIFDUS_clean_linker_0, # of connection points: 2
#     Edge 48, Type (0, 0), BuildingBlock: CIFDUS_clean_linker_0, # of connection points: 2
#     Edge 49, Type (0, 0), BuildingBlock: CIFDUS_clean_linker_0, # of connection points: 2
#     Edge 50, Type (0, 0), BuildingBlock: CIFDUS_clean_linker_0, # of connection points: 2
#     Edge 51, Type (0, 0), BuildingBlock: CIFDUS_clean_linker_0, # of connection points: 2
#     Edge 52, Type (0, 0), BuildingBlock: CIFDUS_clean_linker_0, # of connection points: 2
#     Edge 53, Type (0, 0), BuildingBlock: CIFDUS_clean_linker_0, # of connection points: 2
#     Edge 54, Type (0, 0), BuildingBlock: CIFDUS_clean_linker_0, # of connection points: 2
#     Edge 55, Type (0, 0), BuildingBlock: CIFDUS_clean_linker_0, # of connection points: 2
#     Edge 56, Type (0, 0), BuildingBlock: CIFDUS_clean_linker_0, # of connection points: 2
#     Edge 57, Type (0, 0), BuildingBlock: CIFDUS_clean_linker_0, # of connection points: 2
#     Edge 58, Type (0, 0), BuildingBlock: CIFDUS_clean_linker_0, # of connection points: 2
#     Edge 59, Type (0, 0), BuildingBlock: CIFDUS_clean_linker_0, # of connection points: 2
#     Edge 60, Type (0, 0), BuildingBlock: CIFDUS_clean_linker_0, # of connection points: 2
#     Edge 61, Type (0, 0), BuildingBlock: CIFDUS_clean_linker_0, # of connection points: 2
#     Edge 62, Type (0, 0), BuildingBlock: CIFDUS_clean_linker_0, # of connection points: 2
#     Edge 63, Type (0, 0), BuildingBlock: CIFDUS_clean_linker_0, # of connection points: 2
#     Edge 64, Type (0, 0), BuildingBlock: CIFDUS_clean_linker_0, # of connection points: 2
#     Edge 65, Type (0, 0), BuildingBlock: CIFDUS_clean_linker_0, # of connection points: 2
#     Edge 66, Type (0, 0), BuildingBlock: CIFDUS_clean_linker_0, # of connection points: 2
#     Edge 67, Type (0, 0), BuildingBlock: CIFDUS_clean_linker_0, # of connection points: 2
#     Edge 68, Type (0, 0), BuildingBlock: CIFDUS_clean_linker_0, # of connection points: 2
#     Edge 69, Type (0, 0), BuildingBlock: CIFDUS_clean_linker_0, # of connection points: 2
#     Edge 70, Type (0, 0), BuildingBlock: CIFDUS_clean_linker_0, # of connection points: 2
#     Edge 71, Type (0, 0), BuildingBlock: CIFDUS_clean_linker_0, # of connection points: 2
#     Edge 72, Type (0, 0), BuildingBlock: CIFDUS_clean_linker_0, # of connection points: 2
#     Edge 73, Type (0, 0), BuildingBlock: CIFDUS_clean_linker_0, # of connection points: 2
#     Edge 74, Type (0, 0), BuildingBlock: CIFDUS_clean_linker_0, # of connection points: 2
#     Edge 75, Type (0, 0), BuildingBlock: CIFDUS_clean_linker_0, # of connection points: 2
#     Edge 76, Type (0, 0), BuildingBlock: CIFDUS_clean_linker_0, # of connection points: 2
#     Edge 77, Type (0, 0), BuildingBlock: CIFDUS_clean_linker_0, # of connection points: 2
#     Edge 78, Type (0, 0), BuildingBlock: CIFDUS_clean_linker_0, # of connection points: 2
#     Edge 79, Type (0, 0), BuildingBlock: CIFDUS_clean_linker_0, # of connection points: 2
#     Edge 80, Type (0, 0), BuildingBlock: CIFDUS_clean_linker_0, # of connection points: 2
#     Edge 81, Type (0, 0), BuildingBlock: CIFDUS_clean_linker_0, # of connection points: 2
#     Edge 82, Type (0, 0), BuildingBlock: CIFDUS_clean_linker_0, # of connection points: 2
#     Edge 83, Type (0, 0), BuildingBlock: CIFDUS_clean_linker_0, # of connection points: 2
#     Edge 84, Type (0, 0), BuildingBlock: CIFDUS_clean_linker_0, # of connection points: 2
#     Edge 85, Type (0, 0), BuildingBlock: CIFDUS_clean_linker_0, # of connection points: 2
#     Edge 86, Type (0, 0), BuildingBlock: CIFDUS_clean_linker_0, # of connection points: 2
#     Edge 87, Type (0, 0), BuildingBlock: CIFDUS_clean_linker_0, # of connection points: 2
#     Edge 88, Type (0, 0), BuildingBlock: CIFDUS_clean_linker_0, # of connection points: 2
#     Edge 89, Type (0, 0), BuildingBlock: CIFDUS_clean_linker_0, # of connection points: 2
#     Edge 90, Type (0, 0), BuildingBlock: CIFDUS_clean_linker_0, # of connection points: 2
#     Edge 91, Type (0, 0), BuildingBlock: CIFDUS_clean_linker_0, # of connection points: 2
#     Edge 92, Type (0, 0), BuildingBlock: CIFDUS_clean_linker_0, # of connection points: 2
#     Edge 93, Type (0, 0), BuildingBlock: CIFDUS_clean_linker_0, # of connection points: 2
#     Edge 94, Type (0, 0), BuildingBlock: CIFDUS_clean_linker_0, # of connection points: 2
#     Edge 95, Type (0, 0), BuildingBlock: CIFDUS_clean_linker_0, # of connection points: 2
# Relax obj value: 0.228
# Max RMSD: 0.153
# Mean RMSD: 0.153
data_MOF--net-uoi--node1-QUQFOY_clean_sbu_1--edge1-CIFDUS_clean_linker_0
_symmetry_space_group_name_H-M    P1
_symmetry_Int_Tables_number       1
_symmetry_cell_setting            triclinic
loop_
_symmetry_equiv_pos_as_xyz
'x, y, z'
_cell_length_a     77.567429
_cell_length_b     77.564407
_cell_length_c     17.817667
_cell_angle_alpha  90.042621
_cell_angle_beta   90.038725
_cell_angle_gamma 89.974493
loop_
_atom_site_label
_atom_site_type_symbol
_atom_site_fract_x
_atom_site_fract_y
_atom_site_fract_z
_atom_type_partial_charge
O0 O 0.1795 0.20605 0.18154 0.0
Cd1 Cd 0.17353 0.19107 0.27189 0.0
Cd2 Cd 0.20765 0.19305 0.28073 0.0
O3 O 0.20692 0.19956 0.16813 0.0
O4 O 0.14931 0.18434 0.24747 0.0
O5 O 0.17054 0.16544 0.255 0.0
C6 C 0.15466 0.16875 0.23825 0.0
C7 C 0.22798 0.17581 0.34217 0.0
C8 C 0.19341 0.20715 0.14456 0.0
C9 C 0.18641 0.21533 0.3831 0.0
O10 O 0.20046 0.21327 0.34767 0.0
O11 O 0.17369 0.20531 0.37053 0.0
O12 O 0.23244 0.18963 0.30714 0.0
O13 O 0.21213 0.17082 0.33672 0.0
O14 O 0.04918 0.92337 0.41926 0.0
Cd15 Cd 0.06287 0.91837 0.51488 0.0
Cd16 Cd 0.05937 0.95233 0.52124 0.0
O17 O 0.05344 0.95136 0.40822 0.0
O18 O 0.07096 0.89435 0.49514 0.0
O19 O 0.08878 0.91645 0.5048 0.0
C20 C 0.08639 0.90036 0.48895 0.0
C21 C 0.07673 0.97089 0.59102 0.0
C22 C 0.04746 0.93725 0.38242 0.0
C23 C 0.03695 0.93109 0.62069 0.0
O24 O 0.03879 0.94501 0.58427 0.0
O25 O 0.04744 0.91862 0.61064 0.0
O26 O 0.06369 0.97664 0.55356 0.0
O27 O 0.08114 0.95495 0.58153 0.0
O28 O 0.32914 0.79869 0.63848 0.0
Cd29 Cd 0.33536 0.81341 0.7296 0.0
Cd30 Cd 0.30092 0.81106 0.73959 0.0
O31 O 0.30158 0.80482 0.62659 0.0
O32 O 0.35948 0.82038 0.70436 0.0
O33 O 0.33821 0.83915 0.71551 0.0
C34 C 0.35406 0.83602 0.69762 0.0
C35 C 0.27993 0.82691 0.80422 0.0
C36 C 0.31514 0.79744 0.60217 0.0
C37 C 0.32285 0.78872 0.83939 0.0
O38 O 0.30876 0.79081 0.80438 0.0
O39 O 0.33552 0.79883 0.8273 0.0
O40 O 0.276 0.81322 0.767 0.0
O41 O 0.29551 0.83265 0.79893 0.0
O42 O 0.45507 0.07833 0.93039 0.0
Cd43 Cd 0.43991 0.08487 0.01955 0.0
Cd44 Cd 0.44254 0.04968 0.02989 0.0
O45 O 0.44917 0.05073 0.91746 0.0
O46 O 0.43609 0.10989 -0.00202 0.0
O47 O 0.41491 0.09099 0.99682 0.0
C48 C 0.42014 0.10654 0.98448 0.0
C49 C 0.42695 0.02774 0.08985 0.0
C50 C 0.45653 0.06436 0.89393 0.0
C51 C 0.46404 0.07189 0.13224 0.0
O52 O 0.46236 0.05777 0.097 0.0
O53 O 0.45378 0.0844 0.11925 0.0
O54 O 0.44105 0.02456 0.05438 0.0
O55 O 0.42077 0.04318 0.08606 0.0
O56 O 0.17572 0.79835 0.33308 0.0
Cd57 Cd 0.16929 0.81322 0.24275 0.0
Cd58 Cd 0.20415 0.81087 0.23372 0.0
O59 O 0.20318 0.80479 0.34672 0.0
O60 O 0.14423 0.81724 0.26247 0.0
O61 O 0.16325 0.83832 0.26335 0.0
C62 C 0.14763 0.83323 0.27482 0.0
C63 C 0.2251 0.82681 0.16956 0.0
C64 C 0.18964 0.79723 0.37016 0.0
C65 C 0.18258 0.78881 0.13242 0.0
O66 O 0.19652 0.79053 0.16893 0.0
O67 O 0.17007 0.79916 0.14363 0.0
O68 O 0.22909 0.8132 0.20711 0.0
O69 O 0.20946 0.83245 0.17435 0.0
O70 O 0.45987 0.91741 0.5738 0.0
Cd71 Cd 0.44639 0.91496 0.47628 0.0
Cd72 Cd 0.44553 0.94904 0.4922 0.0
O73 O 0.45258 0.94412 0.60249 0.0
O74 O 0.43988 0.89009 0.47626 0.0
O75 O 0.42078 0.91105 0.4889 0.0
C76 C 0.42425 0.89474 0.49038 0.0
C77 C 0.42647 0.96902 0.44093 0.0
C78 C 0.46007 0.93 0.61922 0.0
C79 C 0.46946 0.93466 0.3772 0.0
O80 O 0.46586 0.94705 0.4208 0.0
O81 O 0.46146 0.92034 0.38231 0.0
O82 O 0.43922 0.97387 0.48237 0.0
O83 O 0.42318 0.9527 0.43686 0.0
O84 O 0.33302 0.2045 0.84615 0.0
Cd85 Cd 0.33565 0.1913 0.74818 0.0
Cd86 Cd 0.30188 0.1913 0.76071 0.0
O87 O 0.30609 0.19769 0.87227 0.0
O88 O 0.35976 0.18254 0.75538 0.0
O89 O 0.3369 0.16546 0.75794 0.0
C90 C 0.35336 0.16738 0.76629 0.0
C91 C 0.2823 0.17258 0.70485 0.0
C92 C 0.3203 0.20478 0.89072 0.0
C93 C 0.31753 0.21536 0.64898 0.0
O94 O 0.30484 0.21188 0.69113 0.0
O95 O 0.3316 0.20694 0.65467 0.0
O96 O 0.27714 0.18524 0.7461 0.0
O97 O 0.29862 0.16917 0.70351 0.0
O98 O 0.04968 0.08641 0.08655 0.0
Cd99 Cd 0.06317 0.09185 0.99098 0.0
Cd100 Cd 0.0597 0.05754 0.98409 0.0
O101 O 0.05434 0.05848 0.09755 0.0
O102 O 0.06876 0.1167 0.00749 0.0
O103 O 0.08874 0.09647 0.00505 0.0
C104 C 0.08465 0.11238 0.01694 0.0
C105 C 0.07694 0.03916 0.91288 0.0
C106 C 0.04827 0.07252 0.12357 0.0
C107 C 0.03711 0.0787 0.88576 0.0
O108 O 0.03882 0.06484 0.92269 0.0
O109 O 0.04778 0.09104 0.89503 0.0
O110 O 0.0641 0.03329 0.95114 0.0
O111 O 0.08124 0.05513 0.92223 0.0
O112 O 0.83012 0.80397 0.82264 0.0
Cd113 Cd 0.83707 0.81917 0.73419 0.0
Cd114 Cd 0.80213 0.81715 0.72226 0.0
O115 O 0.80263 0.8105 0.83478 0.0
O116 O 0.86198 0.82321 0.75756 0.0
O117 O 0.84284 0.8442 0.75732 0.0
C118 C 0.8584 0.83913 0.77077 0.0
C119 C 0.78099 0.83299 0.65809 0.0
C120 C 0.81605 0.80276 0.85852 0.0
C121 C 0.82418 0.79522 0.62148 0.0
O122 O 0.81009 0.79708 0.65668 0.0
O123 O 0.83677 0.80537 0.63424 0.0
O124 O 0.7772 0.81916 0.69451 0.0
O125 O 0.79652 0.83886 0.6639 0.0
O126 O 0.95615 0.0827 0.5717 0.0
Cd127 Cd 0.94182 0.0871 0.47798 0.0
Cd128 Cd 0.94035 0.05295 0.48634 0.0
O129 O 0.94733 0.05642 0.598 0.0
O130 O 0.93673 0.11227 0.4857 0.0
O131 O 0.91655 0.09231 0.4952 0.0
C132 C 0.92093 0.10835 0.50021 0.0
C133 C 0.9212 0.03346 0.43173 0.0
C134 C 0.95595 0.06983 0.61549 0.0
C135 C 0.96418 0.0686 0.37345 0.0
O136 O 0.96072 0.0558 0.41502 0.0
O137 O 0.95609 0.0828 0.38125 0.0
O138 O 0.93411 0.02823 0.47129 0.0
O139 O 0.91788 0.0498 0.43098 0.0
O140 O 0.67537 0.20741 0.34461 0.0
Cd141 Cd 0.66944 0.19292 0.25237 0.0
Cd142 Cd 0.70296 0.19588 0.24244 0.0
O143 O 0.70297 0.20147 0.35607 0.0
O144 O 0.64549 0.18521 0.27609 0.0
O145 O 0.66731 0.16709 0.26496 0.0
C146 C 0.65133 0.16971 0.28218 0.0
C147 C 0.72025 0.17805 0.16915 0.0
C148 C 0.68937 0.20868 0.38104 0.0
C149 C 0.68132 0.21844 0.14509 0.0
O150 O 0.69536 0.21673 0.1809 0.0
O151 O 0.66904 0.20778 0.15553 0.0
O152 O 0.72677 0.19088 0.20562 0.0
O153 O 0.7043 0.1741 0.18162 0.0
O154 O 0.55383 0.92229 0.0821 0.0
Cd155 Cd 0.56683 0.91855 0.98418 0.0
Cd156 Cd 0.56599 0.95257 0.99088 0.0
O157 O 0.55968 0.9497 0.10328 0.0
O158 O 0.575 0.8943 0.9959 0.0
O159 O 0.5927 0.91665 0.99261 0.0
C160 C 0.59039 0.90035 0.00419 0.0
C161 C 0.58479 0.97029 0.92527 0.0
C162 C 0.55307 0.93545 0.1242 0.0
C163 C 0.54218 0.93531 0.88294 0.0
O164 O 0.5453 0.94836 0.92359 0.0
O165 O 0.55105 0.92154 0.89013 0.0
O166 O 0.57255 0.97676 0.96555 0.0
O167 O 0.58791 0.95395 0.93156 0.0
O168 O 0.8291 0.20653 0.65607 0.0
Cd169 Cd 0.83554 0.19213 0.7478 0.0
Cd170 Cd 0.8019 0.19463 0.759 0.0
O171 O 0.80158 0.20017 0.64538 0.0
O172 O 0.85943 0.18457 0.72175 0.0
O173 O 0.83778 0.16632 0.73491 0.0
C174 C 0.85364 0.16904 0.71595 0.0
C175 C 0.78445 0.17714 0.83308 0.0
C176 C 0.81503 0.20758 0.62006 0.0
C177 C 0.82356 0.21754 0.85537 0.0
O178 O 0.80949 0.21557 0.82 0.0
O179 O 0.83601 0.20707 0.84466 0.0
O180 O 0.77806 0.18994 0.79614 0.0
O181 O 0.80035 0.17299 0.82066 0.0
O182 O 0.54811 0.08087 0.43001 0.0
Cd183 Cd 0.56291 0.08731 0.5208 0.0
Cd184 Cd 0.56173 0.0533 0.52863 0.0
O185 O 0.55556 0.05369 0.41556 0.0
O186 O 0.56715 0.11237 0.50259 0.0
O187 O 0.58806 0.09309 0.50161 0.0
C188 C 0.58315 0.10882 0.49091 0.0
C189 C 0.58071 0.0364 0.59831 0.0
C190 C 0.54744 0.06697 0.39256 0.0
C191 C 0.53886 0.07324 0.63043 0.0
O192 O 0.54086 0.05949 0.59284 0.0
O193 O 0.54894 0.08599 0.61996 0.0
O194 O 0.56803 0.02953 0.56211 0.0
O195 O 0.58384 0.0526 0.58749 0.0
O196 O 0.6779 0.79782 0.1497 0.0
Cd197 Cd 0.67305 0.81244 0.24213 0.0
Cd198 Cd 0.70739 0.81386 0.23561 0.0
O199 O 0.70423 0.80662 0.12404 0.0
O200 O 0.64784 0.81713 0.23207 0.0
O201 O 0.66752 0.83758 0.22288 0.0
C202 C 0.65157 0.83294 0.21683 0.0
C203 C 0.72688 0.83269 0.29219 0.0
C204 C 0.69088 0.7979 0.10651 0.0
C205 C 0.69127 0.79043 0.34875 0.0
O206 O 0.70412 0.79366 0.30719 0.0
O207 O 0.67711 0.79854 0.34016 0.0
O208 O 0.73213 0.8198 0.25262 0.0
O209 O 0.71059 0.83625 0.29141 0.0
O210 O 0.95562 0.9281 0.93384 0.0
Cd211 Cd 0.94069 0.92398 0.02582 0.0
Cd212 Cd 0.94 0.95793 0.01974 0.0
O213 O 0.94755 0.95468 0.9086 0.0
O214 O 0.93245 0.89987 0.01068 0.0
O215 O 0.91505 0.9225 0.00877 0.0
C216 C 0.91731 0.90616 -0.00216 0.0
C217 C 0.92135 0.97817 0.07269 0.0
C218 C 0.95592 0.94112 0.89092 0.0
C219 C 0.96295 0.94106 0.13404 0.0
O220 O 0.9598 0.95411 0.09349 0.0
O221 O 0.95476 0.92699 0.1241 0.0
O222 O 0.93475 0.98287 0.03518 0.0
O223 O 0.91733 0.962 0.07238 0.0
O224 O 0.67492 0.7043 0.63537 0.0
Cd225 Cd 0.66989 0.69055 0.7305 0.0
Cd226 Cd 0.70439 0.69449 0.73745 0.0
O227 O 0.703 0.70065 0.62479 0.0
O228 O 0.64583 0.68285 0.70894 0.0
O229 O 0.66761 0.66467 0.71975 0.0
C230 C 0.65164 0.66735 0.70264 0.0
C231 C 0.72582 0.67904 0.80081 0.0
C232 C 0.68879 0.7063 0.59883 0.0
C233 C 0.68226 0.71639 0.83764 0.0
O234 O 0.69634 0.71456 0.80234 0.0
O235 O 0.66981 0.70596 0.82631 0.0
O236 O 0.72941 0.69276 0.76326 0.0
O237 O 0.71032 0.67303 0.79645 0.0
O238 O 0.54884 0.42909 0.9241 0.0
Cd239 Cd 0.5638 0.42483 0.01614 0.0
Cd240 Cd 0.56416 0.45897 0.01117 0.0
O241 O 0.55625 0.45593 0.90035 0.0
O242 O 0.57169 0.40057 0.00129 0.0
O243 O 0.58949 0.42286 0.00019 0.0
C244 C 0.58699 0.40655 0.98962 0.0
C245 C 0.58267 0.47927 0.06476 0.0
C246 C 0.54811 0.44227 0.88218 0.0
C247 C 0.54155 0.44169 0.12531 0.0
O248 O 0.54458 0.45485 0.08532 0.0
O249 O 0.54977 0.42767 0.1145 0.0
O250 O 0.56918 0.48393 0.02767 0.0
O251 O 0.58688 0.46314 0.0635 0.0
O252 O 0.82928 0.30091 0.15834 0.0
Cd253 Cd 0.83461 0.31551 0.25087 0.0
Cd254 Cd 0.80037 0.31271 0.25732 0.0
O255 O 0.80175 0.30688 0.14406 0.0
O256 O 0.85884 0.3228 0.22993 0.0
O257 O 0.83726 0.3413 0.23749 0.0
C258 C 0.8533 0.33837 0.22237 0.0
C259 C 0.77937 0.3289 0.3199 0.0
C260 C 0.81548 0.2997 0.12047 0.0
C261 C 0.82177 0.29048 0.35883 0.0
O262 O 0.80783 0.29233 0.32244 0.0
O263 O 0.83431 0.30082 0.34809 0.0
O264 O 0.77539 0.31526 0.2824 0.0
O265 O 0.79507 0.33438 0.31611 0.0
O266 O 0.95534 0.5839 0.40267 0.0
Cd267 Cd 0.94144 0.58853 0.49798 0.0
Cd268 Cd 0.9452 0.55401 0.50244 0.0
O269 O 0.95152 0.55588 0.39012 0.0
O270 O 0.93357 0.61266 0.47938 0.0
O271 O 0.91554 0.5907 0.48719 0.0
C272 C 0.9181 0.60682 0.47245 0.0
C273 C 0.92966 0.53222 0.56299 0.0
C274 C 0.95735 0.57012 0.36531 0.0
C275 C 0.96708 0.57565 0.60477 0.0
O276 O 0.9652 0.5617 0.56853 0.0
O277 O 0.95672 0.5882 0.59407 0.0
O278 O 0.94346 0.52885 0.52557 0.0
O279 O 0.92365 0.54774 0.56019 0.0
O280 O 0.67365 0.30164 0.84331 0.0
Cd281 Cd 0.66758 0.31617 0.75146 0.0
Cd282 Cd 0.70231 0.314 0.74446 0.0
O283 O 0.701 0.30843 0.85784 0.0
O284 O 0.64259 0.32087 0.76981 0.0
O285 O 0.66214 0.34149 0.76954 0.0
C286 C 0.64637 0.33683 0.78101 0.0
C287 C 0.72334 0.32997 0.68108 0.0
C288 C 0.68747 0.30085 0.88125 0.0
C289 C 0.68128 0.29143 0.64325 0.0
O290 O 0.69511 0.29337 0.68031 0.0
O291 O 0.66865 0.30171 0.65342 0.0
O292 O 0.72731 0.3165 0.71962 0.0
O293 O 0.70762 0.33546 0.68433 0.0
O294 O 0.95973 0.42401 0.07652 0.0
Cd295 Cd 0.94453 0.41819 0.98614 0.0
Cd296 Cd 0.94676 0.45284 0.97922 0.0
O297 O 0.95311 0.45139 0.09184 0.0
O298 O 0.93946 0.39327 0.00409 0.0
O299 O 0.91921 0.41323 0.00597 0.0
C300 C 0.9236 0.39734 0.01626 0.0
C301 C 0.93062 0.47419 0.91842 0.0
C302 C 0.96083 0.43784 0.1143 0.0
C303 C 0.9686 0.43172 0.87538 0.0
O304 O 0.96692 0.44555 0.91269 0.0
O305 O 0.95834 0.41914 0.88652 0.0
O306 O 0.94438 0.47792 0.95547 0.0
O307 O 0.92499 0.45854 0.92165 0.0
O308 O 0.8308 0.71119 0.32171 0.0
Cd309 Cd 0.83657 0.69593 0.2316 0.0
Cd310 Cd 0.80206 0.69811 0.22513 0.0
O311 O 0.80348 0.70451 0.33774 0.0
O312 O 0.86158 0.69127 0.24922 0.0
O313 O 0.84196 0.67073 0.25252 0.0
C314 C 0.85778 0.6754 0.26238 0.0
C315 C 0.78142 0.68132 0.16339 0.0
C316 C 0.81704 0.71227 0.35984 0.0
C317 C 0.82284 0.7199 0.12068 0.0
O318 O 0.80907 0.71833 0.15846 0.0
O319 O 0.8354 0.7096 0.13169 0.0
O320 O 0.79723 0.67615 0.1677 0.0
O321 O 0.77713 0.69497 0.2002 0.0
O322 O 0.54912 0.58333 0.56772 0.0
Cd323 Cd 0.56246 0.58646 0.4704 0.0
Cd324 Cd 0.56329 0.55242 0.48282 0.0
O325 O 0.55636 0.5565 0.59393 0.0
O326 O 0.56814 0.61151 0.47318 0.0
O327 O 0.58793 0.59113 0.4836 0.0
C328 C 0.58391 0.60729 0.487 0.0
C329 C 0.58277 0.53348 0.42734 0.0
C330 C 0.54893 0.57056 0.61202 0.0
C331 C 0.53916 0.56736 0.37018 0.0
O332 O 0.54275 0.55476 0.41266 0.0
O333 O 0.54732 0.58157 0.37613 0.0
O334 O 0.57023 0.52789 0.46818 0.0
O335 O 0.58561 0.54991 0.42622 0.0
O336 O 0.33265 0.29837 0.3506 0.0
Cd337 Cd 0.33636 0.31091 0.25162 0.0
Cd338 Cd 0.30259 0.31179 0.26171 0.0
O339 O 0.30585 0.30615 0.37468 0.0
O340 O 0.36153 0.31612 0.2553 0.0
O341 O 0.34153 0.33636 0.26181 0.0
C342 C 0.35759 0.33206 0.26681 0.0
C343 C 0.28732 0.33186 0.1922 0.0
C344 C 0.31979 0.29869 0.39445 0.0
C345 C 0.3174 0.2867 0.15478 0.0
O346 O 0.30485 0.29032 0.19748 0.0
O347 O 0.33145 0.29521 0.15891 0.0
O348 O 0.27936 0.32091 0.23447 0.0
O349 O 0.3039 0.33314 0.19909 0.0
O350 O 0.45556 0.58238 0.06845 0.0
Cd351 Cd 0.44231 0.58561 0.97076 0.0
Cd352 Cd 0.44239 0.55107 0.98235 0.0
O353 O 0.44917 0.55526 0.09347 0.0
O354 O 0.43666 0.6107 0.97428 0.0
O355 O 0.41679 0.59041 0.98283 0.0
C356 C 0.42083 0.60655 0.98686 0.0
C357 C 0.42426 0.53069 0.92754 0.0
C358 C 0.45615 0.5695 0.11217 0.0
C359 C 0.46608 0.5671 0.87027 0.0
O360 O 0.46277 0.55435 0.91226 0.0
O361 O 0.45763 0.58114 0.87667 0.0
O362 O 0.43715 0.52608 0.96867 0.0
O363 O 0.4203 0.54688 0.92559 0.0
O364 O 0.17543 0.70492 0.83306 0.0
Cd365 Cd 0.16902 0.69011 0.74239 0.0
Cd366 Cd 0.2038 0.69234 0.73355 0.0
O367 O 0.20287 0.69836 0.84663 0.0
O368 O 0.14402 0.68583 0.76233 0.0
O369 O 0.16326 0.66492 0.76195 0.0
C370 C 0.14759 0.66985 0.77393 0.0
C371 C 0.22463 0.67632 0.66897 0.0
C372 C 0.18936 0.70597 0.87016 0.0
C373 C 0.18235 0.71455 0.63256 0.0
O374 O 0.19627 0.71275 0.66911 0.0
O375 O 0.16979 0.70425 0.64358 0.0
O376 O 0.22871 0.68988 0.70681 0.0
O377 O 0.20897 0.67078 0.67376 0.0
O378 O 0.05287 0.42507 0.57698 0.0
Cd379 Cd 0.06822 0.41939 0.4872 0.0
Cd380 Cd 0.06564 0.45337 0.47798 0.0
O381 O 0.05897 0.45259 0.5904 0.0
O382 O 0.0761 0.39554 0.51178 0.0
O383 O 0.09395 0.41766 0.50411 0.0
C384 C 0.09143 0.40163 0.52068 0.0
C385 C 0.08213 0.47425 0.41618 0.0
C386 C 0.05146 0.43901 0.6137 0.0
C387 C 0.04393 0.43154 0.37547 0.0
O388 O 0.04566 0.44562 0.41105 0.0
O389 O 0.05422 0.41904 0.38801 0.0
O390 O 0.08767 0.45859 0.42164 0.0
O391 O 0.0682 0.47826 0.45149 0.0
O392 O 0.32851 0.70476 0.13873 0.0
Cd393 Cd 0.33425 0.68984 0.22969 0.0
Cd394 Cd 0.30005 0.69268 0.23877 0.0
O395 O 0.30091 0.69892 0.12583 0.0
O396 O 0.3582 0.68221 0.20504 0.0
O397 O 0.33639 0.66405 0.21488 0.0
C398 C 0.35234 0.66675 0.19751 0.0
C399 C 0.27913 0.67673 0.30291 0.0
C400 C 0.31459 0.70616 0.10193 0.0
C401 C 0.32203 0.71465 0.33961 0.0
O402 O 0.30796 0.71284 0.30407 0.0
O403 O 0.33453 0.70431 0.32775 0.0
O404 O 0.27515 0.69045 0.26605 0.0
O405 O 0.29473 0.67102 0.29746 0.0
O406 O 0.04918 0.57906 0.91449 0.0
Cd407 Cd 0.06393 0.58304 0.00746 0.0
Cd408 Cd 0.06445 0.54919 0.00024 0.0
O409 O 0.05718 0.55248 0.88891 0.0
O410 O 0.07214 0.60721 0.99434 0.0
O411 O 0.08964 0.58466 0.99251 0.0
C412 C 0.08737 0.60104 0.9827 0.0
C413 C 0.08309 0.52924 0.05484 0.0
C414 C 0.04887 0.56607 0.87133 0.0
C415 C 0.04136 0.56588 0.11394 0.0
O416 O 0.04445 0.5529 0.07277 0.0
O417 O 0.04969 0.57989 0.10506 0.0
O418 O 0.06992 0.52432 0.01621 0.0
O419 O 0.08696 0.54545 0.05447 0.0
O420 O 0.17951 0.29936 0.68139 0.0
Cd421 Cd 0.17293 0.31416 0.77189 0.0
Cd422 Cd 0.20704 0.31225 0.78164 0.0
O423 O 0.20689 0.30615 0.66842 0.0
O424 O 0.14793 0.31836 0.75176 0.0
O425 O 0.16713 0.33931 0.75198 0.0
C426 C 0.15147 0.33435 0.74 0.0
C427 C 0.22408 0.33067 0.85358 0.0
C428 C 0.19348 0.29837 0.64463 0.0
C429 C 0.18624 0.28969 0.88155 0.0
O430 O 0.20012 0.29145 0.84473 0.0
O431 O 0.17372 0.30006 0.87083 0.0
O432 O 0.2308 0.31789 0.81754 0.0
O433 O 0.20803 0.33425 0.8412 0.0
O434 O 0.45547 0.42304 0.41188 0.0
Cd435 Cd 0.4414 0.41818 0.50631 0.0
Cd436 Cd 0.44426 0.45263 0.5117 0.0
O437 O 0.45122 0.45101 0.39989 0.0
O438 O 0.43355 0.39412 0.48594 0.0
O439 O 0.41556 0.41614 0.49424 0.0
C440 C 0.41812 0.40007 0.47841 0.0
C441 C 0.42748 0.47374 0.57082 0.0
C442 C 0.45734 0.43688 0.375 0.0
C443 C 0.46637 0.43154 0.61531 0.0
O444 O 0.46416 0.44552 0.5797 0.0
O445 O 0.45647 0.41869 0.60319 0.0
O446 O 0.44138 0.47767 0.53523 0.0
O447 O 0.42211 0.45799 0.56701 0.0
H448 H 0.28974 0.16523 0.56064 0.0
H449 H 0.24804 0.16542 0.72021 0.0
H450 H 0.22713 0.16237 0.61807 0.0
H451 H 0.22064 0.16557 0.48344 0.0
H452 H 0.26237 0.1702 0.32536 0.0
H453 H 0.28332 0.16517 0.42575 0.0
C454 C 0.27612 0.1639 0.57314 0.0
C455 C 0.27043 0.16538 0.64786 0.0
C456 C 0.26415 0.16334 0.51379 0.0
C457 C 0.25271 0.16416 0.66318 0.0
C458 C 0.24076 0.16259 0.60467 0.0
C459 C 0.2343 0.16482 0.47073 0.0
C460 C 0.23999 0.16809 0.39713 0.0
C461 C 0.24628 0.16302 0.52963 0.0
C462 C 0.25772 0.16759 0.38155 0.0
C463 C 0.26969 0.16485 0.43907 0.0
H464 H 0.08294 0.0055 0.59646 0.0
H465 H 0.08475 0.95918 0.72968 0.0
H466 H 0.08714 0.97636 0.84419 0.0
H467 H 0.08357 0.00463 0.90697 0.0
H468 H 0.08422 0.05096 0.77366 0.0
H469 H 0.08638 0.03381 0.65899 0.0
C470 C 0.08447 0.9992 0.65039 0.0
C471 C 0.08353 0.98112 0.65468 0.0
C472 C 0.08607 0.00918 0.71616 0.0
C473 C 0.08556 0.97308 0.72483 0.0
C474 C 0.08674 0.98291 0.79052 0.0
C475 C 0.0848 0.01094 0.85294 0.0
C476 C 0.0836 0.02901 0.84873 0.0
C477 C 0.08627 1.00098 0.78706 0.0
C478 C 0.08523 0.03707 0.77845 0.0
C479 C 0.08628 0.02725 0.71268 0.0
H480 H 0.21793 0.83473 0.0255 0.0
H481 H 0.25961 0.8322 0.18494 0.0
H482 H 0.2806 0.8359 0.08357 0.0
H483 H 0.28711 0.83472 0.94841 0.0
H484 H 0.24542 0.83234 0.78895 0.0
H485 H 0.22444 0.836 0.89039 0.0
C486 C 0.23159 0.83562 0.03812 0.0
C487 C 0.23725 0.83345 0.11257 0.0
C488 C 0.24358 0.83662 0.97896 0.0
C489 C 0.25499 0.83404 0.12811 0.0
C490 C 0.26697 0.83601 0.07006 0.0
C491 C 0.27345 0.83563 0.93583 0.0
C492 C 0.26778 0.83353 0.86134 0.0
C493 C 0.26145 0.83661 0.99501 0.0
C494 C 0.25005 0.83414 0.84581 0.0
C495 C 0.23806 0.83608 0.9039 0.0
H496 H 0.41714 0.03302 0.23351 0.0
H497 H 0.42287 0.99336 0.06604 0.0
H498 H 0.41893 0.97111 0.16183 0.0
H499 H 0.41937 0.96311 0.29513 0.0
H500 H 0.41848 1.00288 0.46397 0.0
H501 H 0.41462 0.02486 0.36676 0.0
C502 C 0.41689 0.01951 0.21783 0.0
C503 C 0.42009 0.01479 0.14283 0.0
C504 C 0.4157 0.00679 0.27406 0.0
C505 C 0.42027 0.99725 0.12335 0.0
C506 C 0.41815 0.98455 0.17824 0.0
C507 C 0.41764 0.97653 0.31072 0.0
C508 C 0.41899 0.98137 0.38664 0.0
C509 C 0.41661 0.98916 0.25417 0.0
C510 C 0.41729 0.99885 0.40596 0.0
C511 C 0.41526 0.01142 0.35028 0.0
H512 H 0.71912 0.84004 0.43617 0.0
H513 H 0.76103 0.84038 0.27771 0.0
H514 H 0.78171 0.84441 0.38016 0.0
H515 H 0.78812 0.84232 0.51536 0.0
H516 H 0.74634 0.8372 0.67288 0.0
H517 H 0.72538 0.84083 0.57134 0.0
C518 C 0.73273 0.84168 0.42395 0.0
C519 C 0.73855 0.84014 0.34943 0.0
C520 C 0.7446 0.84284 0.48359 0.0
C521 C 0.75626 0.84171 0.33454 0.0
C522 C 0.76808 0.84385 0.39323 0.0
C523 C 0.77442 0.84264 0.52761 0.0
C524 C 0.76874 0.8397 0.60153 0.0
C525 C 0.76247 0.84365 0.46817 0.0
C526 C 0.75098 0.83959 0.6165 0.0
C527 C 0.73901 0.84154 0.55833 0.0
H528 H 0.91266 0.04063 0.28822 0.0
H529 H 0.91379 0.99937 0.44987 0.0
H530 H 0.9096 0.97822 0.34951 0.0
H531 H 0.91169 0.97132 0.21509 0.0
H532 H 0.91528 0.0125 0.05377 0.0
H533 H 0.91119 0.03379 0.15363 0.0
C534 C 0.91129 0.02706 0.30165 0.0
C535 C 0.91339 0.02156 0.37638 0.0
C536 C 0.91002 0.01492 0.24307 0.0
C537 C 0.91208 0.0039 0.39284 0.0
C538 C 0.90985 0.99181 0.33532 0.0
C539 C 0.91088 0.98493 0.20154 0.0
C540 C 0.91363 0.99035 0.12712 0.0
C541 C 0.90966 0.99711 0.25997 0.0
C542 C 0.91305 0.00804 0.11056 0.0
C543 C 0.91087 0.02021 0.1678 0.0
H544 H 0.75001 0.17067 0.84641 0.0
H545 H 0.79788 0.16951 0.96924 0.0
H546 H 0.78212 0.16744 0.08753 0.0
H547 H 0.75465 0.17126 0.15622 0.0
H548 H 0.70677 0.17005 0.03345 0.0
H549 H 0.72252 0.16737 0.91533 0.0
C550 C 0.75696 0.16934 0.89894 0.0
C551 C 0.77507 0.17039 0.89915 0.0
C552 C 0.7478 0.16794 0.96693 0.0
C553 C 0.78395 0.16862 0.96752 0.0
C554 C 0.77493 0.16763 0.03537 0.0
C555 C 0.74769 0.16979 0.10378 0.0
C556 C 0.72959 0.171 0.10349 0.0
C557 C 0.75684 0.16804 0.0359 0.0
C558 C 0.7207 0.16905 0.03524 0.0
C559 C 0.72971 0.1677 0.96748 0.0
H560 H 0.59062 0.00497 0.91647 0.0
H561 H 0.593 0.95798 0.78748 0.0
H562 H 0.59427 0.97457 0.67133 0.0
H563 H 0.58907 1.00228 0.60639 0.0
H564 H 0.58883 0.04936 0.73492 0.0
H565 H 0.59269 0.033 0.85081 0.0
C566 C 0.59207 0.9984 0.86308 0.0
C567 C 0.59153 0.98027 0.86068 0.0
C568 C 0.59291 0.00805 0.79617 0.0
C569 C 0.59347 0.97192 0.79109 0.0
C570 C 0.59399 0.98141 0.72438 0.0
C571 C 0.59049 0.00896 0.65953 0.0
C572 C 0.58851 0.02698 0.66216 0.0
C573 C 0.5929 0.99945 0.72611 0.0
C574 C 0.59041 0.03551 0.73131 0.0
C575 C 0.59244 0.02613 0.79782 0.0
H576 H 0.71914 0.67128 0.94534 0.0
H577 H 0.76038 0.67421 0.78417 0.0
H578 H 0.78167 0.67123 0.8849 0.0
H579 H 0.78846 0.67304 0.01965 0.0
H580 H 0.7471 0.67506 0.18059 0.0
H581 H 0.72598 0.67055 0.08025 0.0
C582 C 0.73278 0.67062 0.93225 0.0
C583 C 0.73822 0.67271 0.85749 0.0
C584 C 0.74493 0.67005 0.99098 0.0
C585 C 0.75593 0.67243 0.84127 0.0
C586 C 0.76809 0.67087 0.89894 0.0
C587 C 0.77486 0.67185 0.03285 0.0
C588 C 0.76931 0.67413 0.10739 0.0
C589 C 0.76275 0.67039 0.97423 0.0
C590 C 0.75164 0.67315 0.12368 0.0
C591 C 0.73957 0.67072 0.06621 0.0
H592 H 0.59092 0.54116 0.28387 0.0
H593 H 0.59063 0.4994 0.44316 0.0
H594 H 0.59486 0.47861 0.34141 0.0
H595 H 0.59262 0.47209 0.20662 0.0
H596 H 0.58826 0.51373 0.04785 0.0
H597 H 0.59223 0.53476 0.14887 0.0
C598 C 0.59248 0.52757 0.2965 0.0
C599 C 0.5906 0.52182 0.37099 0.0
C600 C 0.59378 0.51562 0.23717 0.0
C601 C 0.59216 0.50412 0.38635 0.0
C602 C 0.59442 0.49223 0.32804 0.0
C603 C 0.59323 0.48575 0.19387 0.0
C604 C 0.5903 0.49137 0.11982 0.0
C605 C 0.5944 0.49777 0.253 0.0
C606 C 0.59063 0.50912 0.10431 0.0
C607 C 0.59274 0.52114 0.16223 0.0
H608 H 0.78606 0.33731 0.46391 0.0
H609 H 0.74494 0.33437 0.30186 0.0
H610 H 0.72361 0.33841 0.40161 0.0
H611 H 0.71663 0.33755 0.53629 0.0
H612 H 0.75775 0.33559 0.69863 0.0
H613 H 0.77909 0.33901 0.59848 0.0
C614 C 0.77245 0.33819 0.45034 0.0
C615 C 0.76705 0.33578 0.37567 0.0
C616 C 0.76025 0.33939 0.50862 0.0
C617 C 0.74937 0.33637 0.3589 0.0
C618 C 0.73719 0.33854 0.41602 0.0
C619 C 0.73024 0.33851 0.54977 0.0
C620 C 0.73565 0.33656 0.62469 0.0
C621 C 0.74244 0.33934 0.49139 0.0
C622 C 0.75332 0.33725 0.6414 0.0
C623 C 0.76551 0.33906 0.58406 0.0
H624 H 0.92277 0.46818 0.77334 0.0
H625 H 0.92467 0.50844 0.93973 0.0
H626 H 0.9206 0.53026 0.84199 0.0
H627 H 0.92168 0.53799 0.70808 0.0
H628 H 0.92475 0.49781 0.54168 0.0
H629 H 0.9214 0.47587 0.63942 0.0
C630 C 0.92166 0.4817 0.78824 0.0
C631 C 0.92375 0.48673 0.86358 0.0
C632 C 0.92046 0.4942 0.73117 0.0
C633 C 0.92289 0.5043 0.88214 0.0
C634 C 0.9207 0.51677 0.82618 0.0
C635 C 0.92098 0.52444 0.69317 0.0
C636 C 0.9232 0.51948 0.61782 0.0
C637 C 0.92019 0.51191 0.75024 0.0
C638 C 0.92287 0.50189 0.59926 0.0
C639 C 0.92109 0.48937 0.65523 0.0
H640 H 0.25856 0.33695 0.86743 0.0
H641 H 0.21043 0.34013 0.98742 0.0
H642 H 0.22596 0.34347 0.10583 0.0
H643 H 0.25319 0.33996 0.17664 0.0
H644 H 0.30135 0.33872 0.05599 0.0
H645 H 0.28593 0.34061 0.93697 0.0
C646 C 0.2515 0.33899 0.91922 0.0
C647 C 0.23338 0.33812 0.9187 0.0
C648 C 0.26053 0.34105 0.98731 0.0
C649 C 0.22438 0.34084 0.98616 0.0
C650 C 0.23326 0.34257 0.05415 0.0
C651 C 0.26032 0.34074 0.12441 0.0
C652 C 0.27839 0.33898 0.12534 0.0
C653 C 0.25134 0.34191 0.05575 0.0
C654 C 0.28745 0.3401 0.05714 0.0
C655 C 0.27861 0.34098 0.98876 0.0
H656 H 0.41742 0.46749 0.71337 0.0
H657 H 0.42237 0.50811 0.55008 0.0
H658 H 0.41753 0.52976 0.64784 0.0
H659 H 0.41739 0.53711 0.78197 0.0
H660 H 0.41729 0.49651 0.94674 0.0
H661 H 0.41434 0.47492 0.84719 0.0
C662 C 0.4168 0.48107 0.69896 0.0
C663 C 0.42005 0.48623 0.6246 0.0
C664 C 0.4151 0.49346 0.75636 0.0
C665 C 0.41975 0.50386 0.60685 0.0
C666 C 0.41711 0.51623 0.66288 0.0
C667 C 0.41604 0.52358 0.79611 0.0
C668 C 0.41734 0.5184 0.8716 0.0
C669 C 0.41552 0.51121 0.73826 0.0
C670 C 0.41613 0.50079 0.88909 0.0
C671 C 0.41461 0.48845 0.83208 0.0
H672 H 0.28641 0.66856 0.44659 0.0
H673 H 0.2446 0.67143 0.28793 0.0
H674 H 0.22369 0.66763 0.38954 0.0
H675 H 0.21731 0.66866 0.52479 0.0
H676 H 0.25913 0.67071 0.68365 0.0
H677 H 0.28002 0.66712 0.58179 0.0
C678 C 0.27274 0.66773 0.43419 0.0
C679 C 0.26702 0.67002 0.3599 0.0
C680 C 0.2608 0.66667 0.49351 0.0
C681 C 0.24927 0.6695 0.34463 0.0
C682 C 0.23733 0.66747 0.40282 0.0
C683 C 0.23097 0.66769 0.53715 0.0
C684 C 0.23671 0.66969 0.61159 0.0
C685 C 0.24291 0.66675 0.47776 0.0
C686 C 0.25445 0.669 0.62683 0.0
C687 C 0.26638 0.66709 0.5685 0.0
H688 H 0.09168 0.46728 0.27369 0.0
H689 H 0.08725 0.50871 0.43362 0.0
H690 H 0.09151 0.52987 0.3335 0.0
H691 H 0.09084 0.53651 0.19877 0.0
H692 H 0.09034 0.49505 0.03784 0.0
H693 H 0.09406 0.47401 0.139 0.0
C694 C 0.0923 0.48093 0.28679 0.0
C695 C 0.08935 0.48647 0.3609 0.0
C696 C 0.09364 0.49302 0.22814 0.0
C697 C 0.08964 0.50418 0.37703 0.0
C698 C 0.09195 0.51627 0.31967 0.0
C699 C 0.09224 0.52291 0.18574 0.0
C700 C 0.09053 0.51732 0.11095 0.0
C701 C 0.09318 0.51086 0.24464 0.0
C702 C 0.09181 0.49964 0.09494 0.0
C703 C 0.09376 0.48761 0.15288 0.0
H704 H 0.11607 0.1061 0.08216 0.0
H705 H 0.08085 0.14715 0.02486 0.0
H706 H 0.09898 0.16786 0.09078 0.0
H707 H 0.12423 0.17434 0.1677 0.0
H708 H 0.16 0.13383 0.22495 0.0
H709 H 0.14216 0.11289 0.15714 0.0
C710 C 0.11251 0.11962 0.08314 0.0
C711 C 0.09711 0.12504 0.04827 0.0
C712 C 0.12293 0.13153 0.12234 0.0
C713 C 0.09262 0.14259 0.05097 0.0
C714 C 0.10293 0.15446 0.08908 0.0
C715 C 0.12809 0.16091 0.16606 0.0
C716 C 0.14335 0.15566 0.20224 0.0
C717 C 0.11797 0.14905 0.12586 0.0
C718 C 0.14825 0.13822 0.19822 0.0
C719 C 0.13809 0.12625 0.15905 0.0
H720 H 0.15184 0.86499 0.34053 0.0
H721 H 0.11326 0.82697 0.28471 0.0
H722 H 0.09137 0.84384 0.34947 0.0
H723 H 0.08306 0.86904 0.42317 0.0
H724 H 0.121 0.90766 0.47852 0.0
H725 H 0.14325 0.8908 0.41394 0.0
C726 C 0.1386 0.86052 0.34178 0.0
C727 C 0.13424 0.84472 0.3074 0.0
C728 C 0.12599 0.87025 0.38012 0.0
C729 C 0.11703 0.83905 0.3104 0.0
C730 C 0.10448 0.84866 0.34782 0.0
C731 C 0.09622 0.87373 0.42193 0.0
C732 C 0.10035 0.88954 0.4564 0.0
C733 C 0.10883 0.86417 0.38348 0.0
C734 C 0.11747 0.89548 0.45305 0.0
C735 C 0.13018 0.88588 0.41569 0.0
H736 H 0.39324 0.90047 0.55999 0.0
H737 H 0.42686 0.85982 0.48244 0.0
H738 H 0.40847 0.83834 0.54172 0.0
H739 H 0.38361 0.83101 0.61972 0.0
H740 H 0.34939 0.87115 0.69653 0.0
H741 H 0.36733 0.89287 0.63434 0.0
C742 C 0.39638 0.88689 0.555 0.0
C743 C 0.41145 0.88181 0.51657 0.0
C744 C 0.38581 0.87451 0.59032 0.0
C745 C 0.41538 0.86415 0.51144 0.0
C746 C 0.40491 0.85182 0.54578 0.0
C747 C 0.38011 0.84452 0.62346 0.0
C748 C 0.36529 0.84945 0.66371 0.0
C749 C 0.39028 0.85687 0.58643 0.0
C750 C 0.36081 0.867 0.66656 0.0
C751 C 0.37103 0.87943 0.63066 0.0
H752 H 0.38531 0.17044 0.82615 0.0
H753 H 0.34553 0.13298 0.78123 0.0
H754 H 0.36226 0.1109 0.84743 0.0
H755 H 0.38814 0.1024 0.92065 0.0
H756 H 0.42717 0.14061 0.96736 0.0
H757 H 0.41064 0.16221 0.89921 0.0
C758 C 0.38036 0.15739 0.8298 0.0
C759 C 0.36425 0.15336 0.7979 0.0
C760 C 0.38981 0.14492 0.8696 0.0
C761 C 0.35796 0.13643 0.80459 0.0
C762 C 0.36748 0.12381 0.84296 0.0
C763 C 0.39292 0.1155 0.91661 0.0
C764 C 0.40889 0.11984 0.94955 0.0
C765 C 0.38335 0.12795 0.8765 0.0
C766 C 0.41494 0.13686 0.94295 0.0
C767 C 0.40553 0.14924 0.90354 0.0
H768 H 0.9212 0.87455 0.93511 0.0
H769 H 0.88297 0.91369 0.97858 0.0
H770 H 0.86145 0.89688 0.90926 0.0
H771 H 0.85361 0.87101 0.83469 0.0
H772 H 0.89253 0.83254 0.79 0.0
H773 H 0.91365 0.84928 0.86014 0.0
C774 C 0.90811 0.87935 0.93032 0.0
C775 C 0.90369 0.8953 0.96284 0.0
C776 C 0.89596 0.86983 0.88896 0.0
C777 C 0.88671 0.9014 0.95473 0.0
C778 C 0.87442 0.89183 0.91464 0.0
C779 C 0.86676 0.8664 0.83957 0.0
C780 C 0.87144 0.85053 0.80669 0.0
C781 C 0.87893 0.87608 0.88088 0.0
C782 C 0.88852 0.8447 0.81438 0.0
C783 C 0.90063 0.85423 0.8549 0.0
H784 H 0.88359 0.17309 0.63973 0.0
H785 H 0.84757 0.13415 0.71195 0.0
H786 H 0.86452 0.11198 0.64734 0.0
H787 H 0.88991 0.10366 0.57106 0.0
H788 H 0.9254 0.14312 0.49843 0.0
H789 H 0.90814 0.16506 0.56118 0.0
C790 C 0.87948 0.15974 0.64202 0.0
C791 C 0.86441 0.15529 0.68152 0.0
C792 C 0.88909 0.14715 0.60362 0.0
C793 C 0.85918 0.13794 0.68257 0.0
C794 C 0.86883 0.12526 0.64526 0.0
C795 C 0.89372 0.11709 0.56802 0.0
C796 C 0.90895 0.12169 0.52975 0.0
C797 C 0.8838 0.12972 0.60532 0.0
C798 C 0.91376 0.13916 0.52721 0.0
C799 C 0.90394 0.15174 0.56351 0.0
H800 H 0.61502 0.10441 0.42689 0.0
H801 H 0.57734 0.14331 0.48309 0.0
H802 H 0.59467 0.1652 0.42076 0.0
H803 H 0.62011 0.17338 0.34844 0.0
H804 H 0.6583 0.13504 0.29231 0.0
H805 H 0.6411 0.11287 0.35539 0.0
C806 C 0.61072 0.11771 0.42627 0.0
C807 C 0.59488 0.12217 0.45997 0.0
C808 C 0.62071 0.13032 0.3893 0.0
C809 C 0.58945 0.13947 0.45784 0.0
C810 C 0.59932 0.15202 0.42184 0.0
C811 C 0.62464 0.16015 0.34929 0.0
C812 C 0.64042 0.15588 0.31496 0.0
C813 C 0.61486 0.14757 0.3867 0.0
C814 C 0.64615 0.13869 0.31774 0.0
C815 C 0.63635 0.12601 0.35419 0.0
H816 H 0.58682 0.86936 0.07243 0.0
H817 H 0.62517 0.90697 0.01028 0.0
H818 H 0.64744 0.88997 0.07403 0.0
H819 H 0.65595 0.86435 0.14854 0.0
H820 H 0.61696 0.82746 0.21238 0.0
H821 H 0.59504 0.84443 0.1482 0.0
C822 C 0.60008 0.87378 0.07189 0.0
C823 C 0.60432 0.88933 0.03567 0.0
C824 C 0.6127 0.86419 0.11022 0.0
C825 C 0.62155 0.89497 0.03703 0.0
C826 C 0.63428 0.8853 0.07395 0.0
C827 C 0.64262 0.86015 0.14925 0.0
C828 C 0.63816 0.84463 0.18565 0.0
C829 C 0.62998 0.86994 0.11132 0.0
C830 C 0.62082 0.83933 0.18518 0.0
C831 C 0.60824 0.84899 0.14803 0.0
H832 H 0.61473 0.6022 0.55907 0.0
H833 H 0.58031 0.64213 0.48124 0.0
H834 H 0.59777 0.66391 0.54389 0.0
H835 H 0.62207 0.67168 0.62428 0.0
H836 H 0.65717 0.63233 0.70123 0.0
H837 H 0.64006 0.61027 0.63649 0.0
C838 C 0.61123 0.61569 0.55476 0.0
C839 C 0.59621 0.62048 0.5152 0.0
C840 C 0.62125 0.62824 0.59204 0.0
C841 C 0.59178 0.63804 0.51104 0.0
C842 C 0.6017 0.65053 0.54732 0.0
C843 C 0.62593 0.65826 0.62763 0.0
C844 C 0.64076 0.65365 0.66856 0.0
C845 C 0.61628 0.64576 0.58898 0.0
C846 C 0.64572 0.63622 0.67081 0.0
C847 C 0.63598 0.62362 0.6334 0.0
H848 H 0.58294 0.37474 0.92917 0.0
H849 H 0.62156 0.4134 0.97383 0.0
H850 H 0.64328 0.39572 0.91 0.0
H851 H 0.65123 0.36913 0.84066 0.0
H852 H 0.61196 0.33111 0.79488 0.0
H853 H 0.59059 0.34881 0.85874 0.0
C854 C 0.59614 0.37926 0.92576 0.0
C855 C 0.60062 0.39531 0.95709 0.0
C856 C 0.60843 0.36922 0.88765 0.0
C857 C 0.61776 0.40104 0.95082 0.0
C858 C 0.63017 0.39097 0.91391 0.0
C859 C 0.63796 0.36483 0.84388 0.0
C860 C 0.63325 0.34879 0.81265 0.0
C861 C 0.62564 0.37506 0.88159 0.0
C862 C 0.61599 0.34337 0.81812 0.0
C863 C 0.60374 0.35346 0.85504 0.0
H864 H 0.88467 0.33392 0.15854 0.0
H865 H 0.84716 0.37319 0.21087 0.0
H866 H 0.86512 0.39487 0.1485 0.0
H867 H 0.89165 0.40262 0.07853 0.0
H868 H 0.92856 0.36274 0.02569 0.0
H869 H 0.91053 0.34139 0.08766 0.0
C870 C 0.88045 0.34725 0.15704 0.0
C871 C 0.86464 0.35192 0.19011 0.0
C872 C 0.89065 0.35954 0.11996 0.0
C873 C 0.85932 0.36924 0.18644 0.0
C874 C 0.86955 0.38163 0.15039 0.0
C875 C 0.89564 0.38923 0.07983 0.0
C876 C 0.91146 0.38433 0.04717 0.0
C877 C 0.88522 0.37692 0.1165 0.0
C878 C 0.91647 0.36692 0.05012 0.0
C879 C 0.90619 0.35467 0.08593 0.0
H880 H 0.85305 0.64363 0.32718 0.0
H881 H 0.89229 0.68093 0.27113 0.0
H882 H 0.91397 0.66353 0.33456 0.0
H883 H 0.92191 0.6381 0.40729 0.0
H884 H 0.88334 0.60013 0.46252 0.0
H885 H 0.8613 0.61751 0.39922 0.0
C886 C 0.86638 0.64783 0.32809 0.0
C887 C 0.871 0.66358 0.29409 0.0
C888 C 0.87888 0.63778 0.36559 0.0
C889 C 0.88833 0.66889 0.29657 0.0
C890 C 0.90076 0.65897 0.33322 0.0
C891 C 0.90865 0.63366 0.4063 0.0
C892 C 0.90428 0.61789 0.4404 0.0
C893 C 0.89617 0.64351 0.36854 0.0
C894 C 0.88706 0.61228 0.43732 0.0
C895 C 0.87446 0.62217 0.40071 0.0
H896 H 0.42222 0.36997 0.40348 0.0
H897 H 0.38321 0.40612 0.4742 0.0
H898 H 0.36109 0.38901 0.41002 0.0
H899 H 0.35283 0.36338 0.33498 0.0
H900 H 0.39238 0.32781 0.26356 0.0
H901 H 0.41428 0.34529 0.32542 0.0
C902 C 0.40886 0.37406 0.40559 0.0
C903 C 0.40437 0.3892 0.44461 0.0
C904 C 0.39631 0.36438 0.3673 0.0
C905 C 0.38702 0.39444 0.44527 0.0
C906 C 0.37437 0.3847 0.40817 0.0
C907 C 0.36627 0.35962 0.33186 0.0
C908 C 0.37092 0.34429 0.29435 0.0
C909 C 0.37888 0.36965 0.36875 0.0
C910 C 0.3884 0.33953 0.29176 0.0
C911 C 0.40096 0.34947 0.3276 0.0
H912 H 0.38959 0.60158 0.0555 0.0
H913 H 0.42463 0.64138 0.98224 0.0
H914 H 0.4069 0.66322 0.0431 0.0
H915 H 0.38219 0.67106 0.12107 0.0
H916 H 0.34657 0.6318 0.19372 0.0
H917 H 0.36387 0.60973 0.13012 0.0
C918 C 0.39318 0.61506 0.05178 0.0
C919 C 0.40845 0.61979 0.01408 0.0
C920 C 0.38299 0.62764 0.08804 0.0
C921 C 0.41297 0.63732 0.01066 0.0
C922 C 0.40288 0.64985 0.0459 0.0
C923 C 0.37825 0.65766 0.12363 0.0
C924 C 0.36321 0.65308 0.16308 0.0
C925 C 0.38805 0.64513 0.08579 0.0
C926 C 0.35816 0.63568 0.1644 0.0
C927 C 0.36802 0.62306 0.12768 0.0
H928 H 0.15204 0.63749 0.83348 0.0
H929 H 0.11333 0.67622 0.78946 0.0
H930 H 0.09178 0.65888 0.85385 0.0
H931 H 0.08379 0.63303 0.92376 0.0
H932 H 0.12183 0.59366 0.96653 0.0
H933 H 0.14376 0.61103 0.90275 0.0
C934 C 0.13885 0.64203 0.83725 0.0
C935 C 0.13436 0.65816 0.80629 0.0
C936 C 0.12642 0.63201 0.87521 0.0
C937 C 0.11721 0.66388 0.81245 0.0
C938 C 0.10485 0.65401 0.84967 0.0
C939 C 0.09692 0.62829 0.92 0.0
C940 C 0.10117 0.61211 0.9507 0.0
C941 C 0.10933 0.63815 0.88186 0.0
C942 C 0.11821 0.60611 0.94399 0.0
C943 C 0.13074 0.616 0.90709 0.0
H944 H 0.15605 0.36613 0.67543 0.0
H945 H 0.11706 0.32837 0.7287 0.0
H946 H 0.09546 0.34541 0.66289 0.0
H947 H 0.08757 0.37058 0.58813 0.0
H948 H 0.12596 0.40889 0.53506 0.0
H949 H 0.14785 0.392 0.6018 0.0
C950 C 0.14278 0.36176 0.67344 0.0
C951 C 0.13822 0.34598 0.70729 0.0
C952 C 0.13034 0.37158 0.63447 0.0
C953 C 0.12098 0.34044 0.70338 0.0
C954 C 0.10859 0.35015 0.66537 0.0
C955 C 0.10076 0.37521 0.59044 0.0
C956 C 0.10513 0.39092 0.55585 0.0
C957 C 0.11316 0.36561 0.62999 0.0
C958 C 0.12225 0.39678 0.56062 0.0
C959 C 0.13475 0.38717 0.59916 0.0
H960 H 0.16793 0.22865 0.09992 0.0
H961 H 0.22083 0.21494 0.05286 0.0
H962 H 0.22309 0.23944 0.96687 0.0
H963 H 0.21061 0.26559 0.91209 0.0
H964 H 0.15808 0.27984 0.96392 0.0
H965 H 0.15527 0.25427 0.04309 0.0
C966 C 0.17994 0.23081 0.07026 0.0
C967 C 0.19423 0.21993 0.08299 0.0
C968 C 0.18131 0.24518 0.02319 0.0
C969 C 0.20964 0.22304 0.04398 0.0
C970 C 0.21097 0.23713 0.99535 0.0
C971 C 0.19852 0.26317 0.94075 0.0
C972 C 0.18459 0.27471 0.93243 0.0
C973 C 0.197 0.24847 0.98591 0.0
C974 C 0.16904 0.27127 0.96978 0.0
C975 C 0.1674 0.25661 0.01466 0.0
H976 H 0.98832 0.91766 0.1584 0.0
H977 H 0.9704 0.96805 0.2242 0.0
H978 H 0.99647 0.97253 0.29889 0.0
H979 H 0.0241 0.96185 0.34757 0.0
H980 H 0.04212 0.91147 0.28205 0.0
H981 H 0.01668 0.9075 0.20283 0.0
C982 C 0.99004 0.92946 0.1903 0.0
C983 C 0.97738 0.94236 0.18739 0.0
C984 C 0.00532 0.93216 0.2312 0.0
C985 C 0.97993 0.95784 0.22682 0.0
C986 C 0.99489 0.96049 0.26878 0.0
C987 C 0.0227 0.95025 0.31406 0.0
C988 C 0.03504 0.93707 0.31979 0.0
C989 C 0.00774 0.94779 0.27094 0.0
C990 C 0.03286 0.92188 0.27769 0.0
C991 C 0.0182 0.9195 0.23329 0.0
H992 H 0.29771 0.73871 0.37105 0.0
H993 H 0.35041 0.7247 0.42071 0.0
H994 H 0.35332 0.75037 0.49953 0.0
H995 H 0.34066 0.77602 0.55673 0.0
H996 H 0.2876 0.78945 0.51132 0.0
H997 H 0.28526 0.76485 0.42578 0.0
C998 C 0.30986 0.74119 0.39913 0.0
C999 C 0.32382 0.72968 0.39032 0.0
C1000 C 0.31144 0.75595 0.444 0.0
C1001 C 0.33945 0.73323 0.42695 0.0
C1002 C 0.34113 0.74796 0.47163 0.0
C1003 C 0.3286 0.77378 0.52748 0.0
C1004 C 0.31429 0.78462 0.5406 0.0
C1005 C 0.32719 0.75935 0.48061 0.0
C1006 C 0.29881 0.78139 0.50215 0.0
C1007 C 0.29744 0.76725 0.45378 0.0
H1008 H 0.51541 0.04828 0.66148 0.0
H1009 H 0.52847 0.10111 0.71344 0.0
H1010 H 0.50292 0.10336 0.79296 0.0
H1011 H 0.47758 0.0902 0.84966 0.0
H1012 H 0.46501 0.03701 0.80264 0.0
H1013 H 0.48957 0.03522 0.71669 0.0
C1014 C 0.51273 0.06031 0.69028 0.0
C1015 C 0.52393 0.0745 0.68181 0.0
C1016 C 0.49803 0.06151 0.73567 0.0
C1017 C 0.52018 0.08997 0.71938 0.0
C1018 C 0.50551 0.09128 0.76446 0.0
C1019 C 0.48 0.07822 0.82006 0.0
C1020 C 0.46942 0.06372 0.83272 0.0
C1021 C 0.4944 0.07713 0.77301 0.0
C1022 C 0.47288 0.04836 0.7938 0.0
C1023 C 0.487 0.0473 0.74519 0.0
H1024 H 0.20677 0.73858 0.60196 0.0
H1025 H 0.15417 0.72455 0.55026 0.0
H1026 H 0.1514 0.75018 0.47131 0.0
H1027 H 0.16411 0.7758 0.41469 0.0
H1028 H 0.21707 0.78928 0.46182 0.0
H1029 H 0.21929 0.76472 0.54747 0.0
C1030 C 0.19467 0.74105 0.57338 0.0
C1031 C 0.1807 0.72955 0.58168 0.0
C1032 C 0.19317 0.75579 0.52838 0.0
C1033 C 0.16515 0.73307 0.54442 0.0
C1034 C 0.16353 0.74778 0.49967 0.0
C1035 C 0.17613 0.77357 0.4443 0.0
C1036 C 0.19044 0.78441 0.43166 0.0
C1037 C 0.17747 0.75916 0.4912 0.0
C1038 C 0.20585 0.78122 0.47061 0.0
C1039 C 0.20717 0.76709 0.51905 0.0
H1040 H 0.47998 0.95556 0.67426 0.0
H1041 H 0.46816 0.90165 0.70172 0.0
H1042 H 0.49321 0.89808 0.78374 0.0
H1043 H 0.51967 0.91 0.84119 0.0
H1044 H 0.53158 0.96384 0.80975 0.0
H1045 H 0.50564 0.96762 0.73436 0.0
C1046 C 0.48261 0.94316 0.70004 0.0
C1047 C 0.47216 0.92895 0.68288 0.0
C1048 C 0.4974 0.94106 0.74449 0.0
C1049 C 0.47596 0.91283 0.71496 0.0
C1050 C 0.4904 0.91073 0.76102 0.0
C1051 C 0.51666 0.92246 0.81688 0.0
C1052 C 0.52758 0.93656 0.83023 0.0
C1053 C 0.50149 0.92465 0.77452 0.0
C1054 C 0.52338 0.95276 0.79982 0.0
C1055 C 0.50849 0.95498 0.75719 0.0
H1056 H 0.29503 0.22491 0.94757 0.0
H1057 H 0.34866 0.21171 0.9746 0.0
H1058 H 0.35288 0.23653 0.05712 0.0
H1059 H 0.34179 0.26336 0.11358 0.0
H1060 H 0.28818 0.27658 0.0849 0.0
H1061 H 0.28357 0.25068 0.0097 0.0
C1062 C 0.30748 0.22717 0.97348 0.0
C1063 C 0.32147 0.21646 0.95566 0.0
C1064 C 0.30997 0.24182 0.01853 0.0
C1065 C 0.33767 0.21975 0.98815 0.0
C1066 C 0.34015 0.23405 0.03449 0.0
C1067 C 0.32918 0.26062 0.09003 0.0
C1068 C 0.31542 0.27193 0.10361 0.0
C1069 C 0.32652 0.24549 0.04815 0.0
C1070 C 0.29901 0.26808 0.07449 0.0
C1071 C 0.29632 0.25323 0.032 0.0
H1072 H 0.02562 0.04749 0.16196 0.0
H1073 H 0.04284 0.09847 0.22281 0.0
H1074 H 0.01754 0.10232 0.30266 0.0
H1075 H 0.98937 0.092 0.34777 0.0
H1076 H 0.97226 0.04096 0.28775 0.0
H1077 H 0.99837 0.03647 0.21332 0.0
C1078 C 0.0241 0.0592 0.19466 0.0
C1079 C 0.03612 0.07261 0.18713 0.0
C1080 C 0.00921 0.06156 0.23834 0.0
C1081 C 0.0338 0.0879 0.22838 0.0
C1082 C 0.01922 0.09021 0.27316 0.0
C1083 C 0.99129 0.08003 0.31734 0.0
C1084 C 0.97883 0.06698 0.32155 0.0
C1085 C 0.00658 0.07734 0.27668 0.0
C1086 C 0.98164 0.05128 0.28407 0.0
C1087 C 0.99661 0.04864 0.24223 0.0
H1088 H 0.84128 0.78088 0.90222 0.0
H1089 H 0.78839 0.79472 0.94869 0.0
H1090 H 0.78594 0.77004 0.03368 0.0
H1091 H 0.79836 0.74385 0.08874 0.0
H1092 H 0.85092 0.72958 0.03752 0.0
H1093 H 0.85378 0.75511 0.95826 0.0
C1094 C 0.82922 0.77871 0.93148 0.0
C1095 C 0.81501 0.78971 0.91903 0.0
C1096 C 0.82775 0.76425 0.978 0.0
C1097 C 0.79954 0.78655 0.95744 0.0
C1098 C 0.79809 0.77235 0.00549 0.0
C1099 C 0.81046 0.74625 0.06012 0.0
C1100 C 0.82441 0.73472 0.06882 0.0
C1101 C 0.81203 0.76096 0.01497 0.0
C1102 C 0.83996 0.73812 0.03143 0.0
C1103 C 0.84163 0.75278 0.98652 0.0
H1104 H 0.01188 0.05511 0.86249 0.0
H1105 H 0.02837 0.10603 0.79554 0.0
H1106 H 0.00335 0.10837 0.71252 0.0
H1107 H 0.97784 0.09545 0.65524 0.0
H1108 H 0.96198 0.04406 0.71808 0.0
H1109 H 0.98564 0.04264 0.80879 0.0
C1110 C 0.01006 0.06676 0.82982 0.0
C1111 C 0.02212 0.08034 0.83476 0.0
C1112 C 0.99571 0.06799 0.78234 0.0
C1113 C 0.01941 0.09535 0.7924 0.0
C1114 C 0.00507 0.09671 0.7452 0.0
C1115 C 0.97935 0.08397 0.68932 0.0
C1116 C 0.96814 0.06982 0.6795 0.0
C1117 C 0.99325 0.08305 0.73937 0.0
C1118 C 0.97036 0.05513 0.72447 0.0
C1119 C 0.98398 0.05427 0.77587 0.0
H1120 H 0.7061 0.26781 0.61165 0.0
H1121 H 0.65309 0.28078 0.56274 0.0
H1122 H 0.65056 0.25499 0.48463 0.0
H1123 H 0.66356 0.22954 0.42778 0.0
H1124 H 0.71695 0.21715 0.47118 0.0
H1125 H 0.71897 0.24182 0.55662 0.0
C1126 C 0.69397 0.26507 0.58386 0.0
C1127 C 0.67981 0.27633 0.59273 0.0
C1128 C 0.69261 0.25023 0.53921 0.0
C1129 C 0.66421 0.27246 0.55645 0.0
C1130 C 0.66274 0.25766 0.51218 0.0
C1131 C 0.67564 0.23202 0.45654 0.0
C1132 C 0.69012 0.22145 0.4429 0.0
C1133 C 0.67686 0.24651 0.50311 0.0
C1134 C 0.7056 0.22498 0.48079 0.0
C1135 C 0.70679 0.23918 0.52907 0.0
H1136 H 0.49533 0.91219 0.34688 0.0
H1137 H 0.47646 0.9631 0.29537 0.0
H1138 H 0.5023 0.96906 0.22135 0.0
H1139 H 0.52986 0.95942 0.16787 0.0
H1140 H 0.54877 0.90851 0.21895 0.0
H1141 H 0.52375 0.90315 0.29897 0.0
C1142 C 0.49682 0.92445 0.31834 0.0
C1143 C 0.48394 0.93706 0.32495 0.0
C1144 C 0.51195 0.92798 0.27777 0.0
C1145 C 0.48617 0.95312 0.28987 0.0
C1146 C 0.50099 0.9566 0.24827 0.0
C1147 C 0.52877 0.9474 0.19864 0.0
C1148 C 0.5412 0.93446 0.1885 0.0
C1149 C 0.51402 0.94416 0.2421 0.0
C1150 C 0.53942 0.91873 0.22689 0.0
C1151 C 0.525 0.91557 0.27166 0.0
H1152 H 0.79719 0.26673 0.39154 0.0
H1153 H 0.85027 0.27995 0.43752 0.0
H1154 H 0.85321 0.25412 0.51492 0.0
H1155 H 0.84057 0.22856 0.57193 0.0
H1156 H 0.78711 0.21591 0.53166 0.0
H1157 H 0.78466 0.24062 0.4468 0.0
C1158 C 0.80943 0.26403 0.41855 0.0
C1159 C 0.82349 0.27537 0.40906 0.0
C1160 C 0.81102 0.24916 0.46278 0.0
C1161 C 0.83922 0.27156 0.44433 0.0
C1162 C 0.84093 0.25674 0.48816 0.0
C1163 C 0.82838 0.23099 0.54399 0.0
C1164 C 0.814 0.22034 0.55835 0.0
C1165 C 0.82691 0.24551 0.49783 0.0
C1166 C 0.79838 0.22381 0.52148 0.0
C1167 C 0.79694 0.23803 0.47355 0.0
H1168 H 0.48866 0.04804 0.16337 0.0
H1169 H 0.4734 0.10034 0.21425 0.0
H1170 H 0.49907 0.10383 0.29249 0.0
H1171 H 0.52517 0.09187 0.34839 0.0
H1172 H 0.53999 0.03924 0.30171 0.0
H1173 H 0.51526 0.03626 0.21726 0.0
C1174 C 0.49086 0.06022 0.1917 0.0
C1175 C 0.47899 0.0739 0.18329 0.0
C1176 C 0.50566 0.06215 0.23618 0.0
C1177 C 0.48219 0.08958 0.22015 0.0
C1178 C 0.49693 0.09161 0.2645 0.0
C1179 C 0.5232 0.07976 0.31914 0.0
C1180 C 0.53448 0.06576 0.33155 0.0
C1181 C 0.5087 0.07798 0.27288 0.0
C1182 C 0.5316 0.05023 0.29306 0.0
C1183 C 0.51737 0.04848 0.24532 0.0
H1184 H 0.66524 0.77607 0.06613 0.0
H1185 H 0.71698 0.79139 0.00608 0.0
H1186 H 0.71852 0.76752 0.91647 0.0
H1187 H 0.70601 0.74136 0.86268 0.0
H1188 H 0.65469 0.72541 0.92621 0.0
H1189 H 0.6523 0.75054 0.00873 0.0
C1190 C 0.67683 0.77438 0.03291 0.0
C1191 C 0.69104 0.78552 0.04317 0.0
C1192 C 0.6778 0.76038 0.9834 0.0
C1193 C 0.70587 0.78308 -0.00069 0.0
C1194 C 0.7068 0.76935 0.94855 0.0
C1195 C 0.69426 0.7433 0.89452 0.0
C1196 C 0.68057 0.73137 0.88874 0.0
C1197 C 0.69299 0.75772 0.94155 0.0
C1198 C 0.66544 0.73427 0.93001 0.0
C1199 C 0.66406 0.74867 0.97691 0.0
H1200 H 0.01211 0.95504 0.64455 0.0
H1201 H 0.02792 0.90385 0.71106 0.0
H1202 H 1.00294 0.90192 0.79454 0.0
H1203 H 0.97762 0.91524 0.85201 0.0
H1204 H 0.96248 0.96686 0.78897 0.0
H1205 H 0.98616 0.96793 0.69847 0.0
C1206 C 0.01017 0.94341 0.67721 0.0
C1207 C 0.022 0.92963 0.672 0.0
C1208 C 0.99585 0.94241 0.72487 0.0
C1209 C 0.01911 0.91467 0.71438 0.0
C1210 C 0.00481 0.91354 0.76186 0.0
C1211 C 0.9793 0.9267 0.81794 0.0
C1212 C 0.96827 0.94101 0.82757 0.0
C1213 C 0.9932 0.92739 0.76786 0.0
C1214 C 0.97072 0.95567 0.78271 0.0
C1215 C 0.98434 0.95633 0.7314 0.0
H1216 H 0.66823 0.76489 0.37432 0.0
H1217 H 0.71862 0.78328 0.4373 0.0
H1218 H 0.72351 0.75736 0.51235 0.0
H1219 H 0.71315 0.72977 0.56237 0.0
H1220 H 0.66278 0.71125 0.49926 0.0
H1221 H 0.65843 0.73651 0.41957 0.0
C1222 C 0.68012 0.76329 0.40565 0.0
C1223 C 0.6929 0.77604 0.40193 0.0
C1224 C 0.68305 0.74811 0.4467 0.0
C1225 C 0.70851 0.77367 0.44059 0.0
C1226 C 0.71139 0.7588 0.48275 0.0
C1227 C 0.70146 0.73101 0.5293 0.0
C1228 C 0.68838 0.71861 0.53594 0.0
C1229 C 0.6988 0.74587 0.48583 0.0
C1230 C 0.67311 0.72059 0.49429 0.0
C1231 C 0.67051 0.73513 0.4496 0.0
H1232 H 0.49048 0.45611 0.64136 0.0
H1233 H 0.47615 0.40427 0.70417 0.0
H1234 H 0.5014 0.40257 0.78631 0.0
H1235 H 0.52671 0.41614 0.8429 0.0
H1236 H 0.5405 0.46831 0.78301 0.0
H1237 H 0.51635 0.46933 0.69475 0.0
C1238 C 0.49279 0.4444 0.67303 0.0
C1239 C 0.48129 0.43035 0.66704 0.0
C1240 C 0.50731 0.44351 0.7197 0.0
C1241 C 0.48467 0.41529 0.70811 0.0
C1242 C 0.49915 0.4143 0.75477 0.0
C1243 C 0.52463 0.42771 0.80999 0.0
C1244 C 0.53544 0.44218 0.81984 0.0
C1245 C 0.51048 0.42836 0.76116 0.0
C1246 C 0.53246 0.457 0.77651 0.0
C1247 C 0.51856 0.45762 0.72651 0.0
H1248 H 0.84132 0.27852 0.07608 0.0
H1249 H 0.78855 0.29217 0.02572 0.0
H1250 H 0.7867 0.26794 0.9381 0.0
H1251 H 0.79935 0.2419 0.88363 0.0
H1252 H 0.8517 0.22754 0.93829 0.0
H1253 H 0.85429 0.25307 0.01824 0.0
C1254 C 0.82944 0.27641 0.04526 0.0
C1255 C 0.81504 0.28718 0.0577 0.0
C1256 C 0.8283 0.26217 -0.00286 0.0
C1257 C 0.79981 0.28415 0.01719 0.0
C1258 C 0.79872 0.27021 0.96759 0.0
C1259 C 0.81137 0.24428 0.91296 0.0
C1260 C 0.8253 0.2327 0.9054 0.0
C1261 C 0.81275 0.25893 0.95862 0.0
C1262 C 0.84076 0.23613 0.94355 0.0
C1263 C 0.84226 0.25077 0.98893 0.0
H1264 H 0.98001 0.54521 0.32592 0.0
H1265 H 0.96345 0.59668 0.26965 0.0
H1266 H 0.98884 0.60052 0.19021 0.0
H1267 H 0.01674 0.58983 0.14281 0.0
H1268 H 0.03316 0.53836 0.19954 0.0
H1269 H 0.00714 0.53409 0.27445 0.0
C1270 C 0.9817 0.55706 0.29448 0.0
C1271 C 0.96981 0.57056 0.30294 0.0
C1272 C 0.99663 0.5594 0.25113 0.0
C1273 C 0.97239 0.58603 0.26333 0.0
C1274 C 0.987 0.58832 0.21874 0.0
C1275 C 0.0147 0.57782 0.17274 0.0
C1276 C 0.02692 0.56455 0.16712 0.0
C1277 C 0.99946 0.57528 0.21391 0.0
C1278 C 0.02397 0.54883 0.20412 0.0
C1279 C 0.00904 0.54632 0.24627 0.0
H1280 H 0.66215 0.27917 0.926 0.0
H1281 H 0.7147 0.2938 0.97521 0.0
H1282 H 0.71716 0.26954 0.06228 0.0
H1283 H 0.70509 0.2432 0.11659 0.0
H1284 H 0.65297 0.22792 0.06266 0.0
H1285 H 0.64979 0.25344 0.98335 0.0
C1286 C 0.67412 0.27727 0.95642 0.0
C1287 C 0.68827 0.28832 0.94383 0.0
C1288 C 0.67561 0.26301 0.00413 0.0
C1289 C 0.70362 0.28556 0.98388 0.0
C1290 C 0.70506 0.2716 0.03315 0.0
C1291 C 0.693 0.24538 0.08752 0.0
C1292 C 0.67931 0.23354 0.09513 0.0
C1293 C 0.69128 0.26004 0.0422 0.0
C1294 C 0.66374 0.23671 0.05733 0.0
C1295 C 0.6619 0.25135 0.01233 0.0
H1296 H 0.98311 0.41266 0.1556 0.0
H1297 H 0.96815 0.46494 0.20841 0.0
H1298 H 0.99273 0.46742 0.29383 0.0
H1299 H 0.01922 0.45538 0.34686 0.0
H1300 H 0.03469 0.40343 0.29074 0.0
H1301 H 0.00913 0.40034 0.21134 0.0
C1302 C 0.98502 0.42456 0.18646 0.0
C1303 C 0.97375 0.43863 0.17546 0.0
C1304 C 0.99943 0.42606 0.23348 0.0
C1305 C 0.97655 0.45392 0.2159 0.0
C1306 C 0.99068 0.45538 0.26425 0.0
C1307 C 0.01709 0.44336 0.31718 0.0
C1308 C 0.02898 0.42967 0.32436 0.0
C1309 C 1.00238 0.44166 0.27212 0.0
C1310 C 0.02587 0.41419 0.2858 0.0
C1311 C 0.01121 0.4124 0.24077 0.0
H1312 H 0.84248 0.73416 0.40201 0.0
H1313 H 0.78994 0.71994 0.45333 0.0
H1314 H 0.78771 0.74454 0.53881 0.0
H1315 H 0.80005 0.77085 0.59217 0.0
H1316 H 0.85227 0.78558 0.53754 0.0
H1317 H 0.8551 0.75998 0.45815 0.0
C1318 C 0.83057 0.73624 0.43252 0.0
C1319 C 0.81636 0.72518 0.42108 0.0
C1320 C 0.82922 0.75065 0.47956 0.0
C1321 C 0.80107 0.72818 0.46116 0.0
C1322 C 0.79975 0.74233 0.50953 0.0
C1323 C 0.81208 0.76856 0.56283 0.0
C1324 C 0.82591 0.78025 0.5704 0.0
C1325 C 0.81362 0.75382 0.51779 0.0
C1326 C 0.84139 0.77691 0.53228 0.0
C1327 C 0.84304 0.76223 0.48726 0.0
H1328 H 0.52793 0.54534 0.66239 0.0
H1329 H 0.54217 0.59838 0.69952 0.0
H1330 H 0.51703 0.60247 0.78036 0.0
H1331 H 0.48981 0.59145 0.83333 0.0
H1332 H 0.47552 0.53848 0.79422 0.0
H1333 H 0.50155 0.53399 0.71977 0.0
C1334 C 0.52581 0.55762 0.69017 0.0
C1335 C 0.53695 0.57147 0.67594 0.0
C1336 C 0.51098 0.56006 0.73405 0.0
C1337 C 0.53382 0.58747 0.71054 0.0
C1338 C 0.51934 0.58988 0.75586 0.0
C1339 C 0.49232 0.57903 0.80749 0.0
C1340 C 0.48069 0.5654 0.81804 0.0
C1341 C 0.50754 0.57641 0.76619 0.0
C1342 C 0.48426 0.54921 0.78606 0.0
C1343 C 0.4992 0.54659 0.74408 0.0
H1344 H 0.34108 0.24027 0.61765 0.0
H1345 H 0.2892 0.22379 0.56891 0.0
H1346 H 0.28418 0.24987 0.49531 0.0
H1347 H 0.29489 0.27687 0.44083 0.0
H1348 H 0.34684 0.29332 0.48781 0.0
H1349 H 0.35129 0.26821 0.56847 0.0
C1350 C 0.3288 0.24233 0.58988 0.0
C1351 C 0.31565 0.23005 0.59727 0.0
C1352 C 0.32585 0.2576 0.54925 0.0
C1353 C 0.29959 0.23303 0.56299 0.0
C1354 C 0.29665 0.24799 0.52156 0.0
C1355 C 0.30695 0.27525 0.4709 0.0
C1356 C 0.32043 0.28701 0.45946 0.0
C1357 C 0.30965 0.26041 0.51453 0.0
C1358 C 0.3362 0.28451 0.49686 0.0
C1359 C 0.33884 0.27003 0.54196 0.0
H1360 H 0.51508 0.59131 0.33289 0.0
H1361 H 0.53 0.53845 0.29531 0.0
H1362 H 0.504 0.53355 0.221 0.0
H1363 H 0.47748 0.54456 0.16312 0.0
H1364 H 0.46258 0.59746 0.19935 0.0
H1365 H 0.48768 0.60192 0.28003 0.0
C1366 C 0.51271 0.57882 0.30743 0.0
C1367 C 0.52452 0.56535 0.31828 0.0
C1368 C 0.4975 0.57597 0.26631 0.0
C1369 C 0.52113 0.54907 0.28686 0.0
C1370 C 0.50621 0.54621 0.24497 0.0
C1371 C 0.47945 0.55689 0.19065 0.0
C1372 C 0.46814 0.5706 0.1761 0.0
C1373 C 0.49426 0.55954 0.23456 0.0
C1374 C 0.47107 0.58666 0.21052 0.0
C1375 C 0.48553 0.58929 0.25575 0.0
H1376 H 0.20684 0.76458 0.10196 0.0
H1377 H 0.15437 0.77903 0.04984 0.0
H1378 H 0.15144 0.7534 0.97091 0.0
H1379 H 0.16397 0.72764 0.91446 0.0
H1380 H 0.2168 0.71372 0.96206 0.0
H1381 H 0.21918 0.73831 0.04764 0.0
C1382 C 0.19473 0.7622 0.07327 0.0
C1383 C 0.18085 0.77382 0.08146 0.0
C1384 C 0.19314 0.74745 0.02831 0.0
C1385 C 0.16529 0.77042 0.04409 0.0
C1386 C 0.16358 0.75571 -0.00065 0.0
C1387 C 0.17599 0.72977 0.94416 0.0
C1388 C 0.19022 0.7188 0.93168 0.0
C1389 C 0.17743 0.7442 0.99102 0.0
C1390 C 0.20564 0.72188 0.97074 0.0
C1391 C 0.20705 0.73603 0.01914 0.0
H1392 H 0.02953 0.41364 0.65542 0.0
H1393 H 0.04363 0.46625 0.70647 0.0
H1394 H 0.01901 0.46849 0.79179 0.0
H1395 H 0.99277 0.45604 0.84563 0.0
H1396 H 0.97819 0.40378 0.7906 0.0
H1397 H 0.00372 0.40103 0.71107 0.0
C1398 C 0.02742 0.42558 0.68583 0.0
C1399 C 0.03847 0.43978 0.6745 0.0
C1400 C 0.013 0.42693 0.73268 0.0
C1401 C 0.03541 0.45511 0.71431 0.0
C1402 C 0.02125 0.45643 0.76258 0.0
C1403 C 0.99509 0.44403 0.81615 0.0
C1404 C 0.98347 0.43014 0.82377 0.0
C1405 C 0.0098 0.44253 0.77093 0.0
C1406 C 0.98681 0.41469 0.78534 0.0
C1407 C 1.00146 0.41309 0.74025 0.0
H1408 H 0.34047 0.72715 0.05678 0.0
H1409 H 0.28726 0.71452 0.01058 0.0
H1410 H 0.28536 0.73909 0.92488 0.0
H1411 H 0.29821 0.765 0.87034 0.0
H1412 H 0.35108 0.77823 0.92057 0.0
H1413 H 0.35356 0.75255 -0.0005 0.0
C1414 C 0.32847 0.72955 0.02732 0.0
C1415 C 0.31399 0.71896 0.04029 0.0
C1416 C 0.32732 0.74397 0.98032 0.0
C1417 C 0.2986 0.72239 0.00155 0.0
C1418 C 0.29747 0.73653 0.95308 0.0
C1419 C 0.31031 0.76235 0.89855 0.0
C1420 C 0.32444 0.77365 0.88991 0.0
C1421 C 0.31164 0.74759 0.94346 0.0
C1422 C 0.33999 0.76987 0.92668 0.0
C1423 C 0.34143 0.75514 0.97143 0.0
H1424 H 0.99203 0.55179 0.6279 0.0
H1425 H 0.97613 0.6029 0.69527 0.0
H1426 H 1.00135 0.60501 0.77745 0.0
H1427 H 0.02696 0.59187 0.83341 0.0
H1428 H 0.04224 0.54034 0.76926 0.0
H1429 H 0.01825 0.5391 0.68019 0.0
C1430 C 0.994 0.56343 0.66053 0.0
C1431 C 0.98207 0.57714 0.65592 0.0
C1432 C 0.00847 0.56454 0.70731 0.0
C1433 C 0.985 0.59213 0.69818 0.0
C1434 C 0.99945 0.59336 0.74487 0.0
C1435 C 0.02525 0.5804 0.79935 0.0
C1436 C 0.0364 0.56616 0.80831 0.0
C1437 C 0.01118 0.57959 0.75014 0.0
C1438 C 0.03391 0.55148 0.7635 0.0
C1439 C 0.02011 0.55072 0.71304 0.0
H1440 H 0.16796 0.27713 0.59799 0.0
H1441 H 0.22128 0.28994 0.55581 0.0
H1442 H 0.22365 0.26516 0.47114 0.0
H1443 H 0.21106 0.23904 0.41597 0.0
H1444 H 0.15807 0.22576 0.46304 0.0
H1445 H 0.15525 0.25153 0.54111 0.0
C1446 C 0.1801 0.27471 0.56971 0.0
C1447 C 0.19446 0.28544 0.58344 0.0
C1448 C 0.18152 0.26018 0.52345 0.0
C1449 C 0.21003 0.28198 0.54613 0.0
C1450 C 0.21142 0.26772 0.49828 0.0
C1451 C 0.19887 0.2417 0.44341 0.0
C1452 C 0.1848 0.23036 0.43398 0.0
C1453 C 0.19734 0.25655 0.48791 0.0
C1454 C 0.16913 0.23414 0.46975 0.0
C1455 C 0.16749 0.24894 0.51399 0.0
H1456 H 0.48029 0.46175 0.33909 0.0
H1457 H 0.46332 0.41078 0.27679 0.0
H1458 H 0.48877 0.4071 0.19753 0.0
H1459 H 0.51679 0.41778 0.15167 0.0
H1460 H 0.53366 0.46873 0.21448 0.0
H1461 H 0.50763 0.47284 0.28958 0.0
C1462 C 0.48192 0.45006 0.30636 0.0
C1463 C 0.46988 0.43665 0.31296 0.0
C1464 C 0.49689 0.44779 0.26317 0.0
C1465 C 0.47237 0.42137 0.27181 0.0
C1466 C 0.48702 0.41916 0.22735 0.0
C1467 C 0.51485 0.42962 0.18302 0.0
C1468 C 0.5272 0.4428 0.17903 0.0
C1469 C 0.4996 0.43209 0.22424 0.0
C1470 C 0.52438 0.45832 0.21784 0.0
C1471 C 0.50944 0.46075 0.26006 0.0
loop_
_geom_bond_atom_site_label_1
_geom_bond_atom_site_label_2
_geom_bond_distance
_geom_bond_site_symmetry_2
_ccdc_geom_bond_type
O0 Cd1 2.223 . S
O0 C8 1.315 . S
Cd1 O0 2.223 . S
Cd1 O4 2.297 . S
Cd1 O5 2.439 . S
Cd1 O11 2.240 . S
Cd2 O3 2.240 . S
Cd2 O10 2.223 . S
Cd2 O12 2.297 . S
Cd2 O13 2.439 . S
O3 Cd2 2.240 . S
O3 C8 1.279 . S
O4 Cd1 2.297 . S
O4 C6 1.247 . S
O5 Cd1 2.439 . S
O5 C6 1.208 . S
C6 O4 1.247 . S
C6 O5 1.208 . S
C7 O12 1.247 . S
C7 O13 1.208 . S
C8 O0 1.315 . S
C8 O3 1.279 . S
C9 O10 1.315 . S
C9 O11 1.279 . S
O10 Cd2 2.223 . S
O10 C9 1.315 . S
O11 Cd1 2.240 . S
O11 C9 1.279 . S
O12 Cd2 2.297 . S
O12 C7 1.247 . S
O13 Cd2 2.439 . S
O13 C7 1.208 . S
O14 Cd15 2.223 . S
O14 C22 1.315 . S
Cd15 O14 2.223 . S
Cd15 O18 2.297 . S
Cd15 O19 2.439 . S
Cd15 O25 2.240 . S
Cd16 O17 2.240 . S
Cd16 O24 2.223 . S
Cd16 O26 2.297 . S
Cd16 O27 2.439 . S
O17 Cd16 2.240 . S
O17 C22 1.279 . S
O18 Cd15 2.297 . S
O18 C20 1.247 . S
O19 Cd15 2.439 . S
O19 C20 1.208 . S
C20 O18 1.247 . S
C20 O19 1.208 . S
C21 O26 1.247 . S
C21 O27 1.208 . S
C22 O14 1.315 . S
C22 O17 1.279 . S
C23 O24 1.315 . S
C23 O25 1.279 . S
O24 Cd16 2.223 . S
O24 C23 1.315 . S
O25 Cd15 2.240 . S
O25 C23 1.279 . S
O26 Cd16 2.297 . S
O26 C21 1.247 . S
O27 Cd16 2.439 . S
O27 C21 1.208 . S
O28 Cd29 2.223 . S
O28 C36 1.315 . S
Cd29 O28 2.223 . S
Cd29 O32 2.297 . S
Cd29 O33 2.439 . S
Cd29 O39 2.240 . S
Cd30 O31 2.240 . S
Cd30 O38 2.223 . S
Cd30 O40 2.297 . S
Cd30 O41 2.439 . S
O31 Cd30 2.240 . S
O31 C36 1.279 . S
O32 Cd29 2.297 . S
O32 C34 1.247 . S
O33 Cd29 2.439 . S
O33 C34 1.208 . S
C34 O32 1.247 . S
C34 O33 1.208 . S
C35 O40 1.247 . S
C35 O41 1.208 . S
C36 O28 1.315 . S
C36 O31 1.279 . S
C37 O38 1.315 . S
C37 O39 1.279 . S
O38 Cd30 2.223 . S
O38 C37 1.315 . S
O39 Cd29 2.240 . S
O39 C37 1.279 . S
O40 Cd30 2.297 . S
O40 C35 1.247 . S
O41 Cd30 2.439 . S
O41 C35 1.208 . S
O42 Cd43 2.223 . S
O42 C50 1.315 1_554 S
Cd43 O42 2.223 . S
Cd43 O46 2.297 1_554 S
Cd43 O47 2.439 . S
Cd43 O53 2.240 . S
Cd44 O45 2.240 1_554 S
Cd44 O52 2.223 . S
Cd44 O54 2.297 . S
Cd44 O55 2.439 . S
O45 Cd44 2.240 1_556 S
O45 C50 1.279 . S
O46 Cd43 2.297 1_556 S
O46 C48 1.247 . S
O47 Cd43 2.439 . S
O47 C48 1.208 1_554 S
C48 O46 1.247 . S
C48 O47 1.208 1_556 S
C49 O54 1.247 . S
C49 O55 1.208 . S
C50 O42 1.315 1_556 S
C50 O45 1.279 . S
C51 O52 1.315 . S
C51 O53 1.279 . S
O52 Cd44 2.223 . S
O52 C51 1.315 . S
O53 Cd43 2.240 . S
O53 C51 1.279 . S
O54 Cd44 2.297 . S
O54 C49 1.247 . S
O55 Cd44 2.439 . S
O55 C49 1.208 . S
O56 Cd57 2.223 . S
O56 C64 1.315 . S
Cd57 O56 2.223 . S
Cd57 O60 2.297 . S
Cd57 O61 2.439 . S
Cd57 O67 2.240 . S
Cd58 O59 2.240 . S
Cd58 O66 2.223 . S
Cd58 O68 2.297 . S
Cd58 O69 2.439 . S
O59 Cd58 2.240 . S
O59 C64 1.279 . S
O60 Cd57 2.297 . S
O60 C62 1.247 . S
O61 Cd57 2.439 . S
O61 C62 1.208 . S
C62 O60 1.247 . S
C62 O61 1.208 . S
C63 O68 1.247 . S
C63 O69 1.208 . S
C64 O56 1.315 . S
C64 O59 1.279 . S
C65 O66 1.315 . S
C65 O67 1.279 . S
O66 Cd58 2.223 . S
O66 C65 1.315 . S
O67 Cd57 2.240 . S
O67 C65 1.279 . S
O68 Cd58 2.297 . S
O68 C63 1.247 . S
O69 Cd58 2.439 . S
O69 C63 1.208 . S
O70 Cd71 2.223 . S
O70 C78 1.315 . S
Cd71 O70 2.223 . S
Cd71 O74 2.297 . S
Cd71 O75 2.439 . S
Cd71 O81 2.240 . S
Cd72 O73 2.240 . S
Cd72 O80 2.223 . S
Cd72 O82 2.297 . S
Cd72 O83 2.439 . S
O73 Cd72 2.240 . S
O73 C78 1.279 . S
O74 Cd71 2.297 . S
O74 C76 1.247 . S
O75 Cd71 2.439 . S
O75 C76 1.208 . S
C76 O74 1.247 . S
C76 O75 1.208 . S
C77 O82 1.247 . S
C77 O83 1.208 . S
C78 O70 1.315 . S
C78 O73 1.279 . S
C79 O80 1.315 . S
C79 O81 1.279 . S
O80 Cd72 2.223 . S
O80 C79 1.315 . S
O81 Cd71 2.240 . S
O81 C79 1.279 . S
O82 Cd72 2.297 . S
O82 C77 1.247 . S
O83 Cd72 2.439 . S
O83 C77 1.208 . S
O84 Cd85 2.223 . S
O84 C92 1.315 . S
Cd85 O84 2.223 . S
Cd85 O88 2.297 . S
Cd85 O89 2.439 . S
Cd85 O95 2.240 . S
Cd86 O87 2.240 . S
Cd86 O94 2.223 . S
Cd86 O96 2.297 . S
Cd86 O97 2.439 . S
O87 Cd86 2.240 . S
O87 C92 1.279 . S
O88 Cd85 2.297 . S
O88 C90 1.247 . S
O89 Cd85 2.439 . S
O89 C90 1.208 . S
C90 O88 1.247 . S
C90 O89 1.208 . S
C91 O96 1.247 . S
C91 O97 1.208 . S
C92 O84 1.315 . S
C92 O87 1.279 . S
C93 O94 1.315 . S
C93 O95 1.279 . S
O94 Cd86 2.223 . S
O94 C93 1.315 . S
O95 Cd85 2.240 . S
O95 C93 1.279 . S
O96 Cd86 2.297 . S
O96 C91 1.247 . S
O97 Cd86 2.439 . S
O97 C91 1.208 . S
O98 Cd99 2.223 . S
O98 C106 1.315 1_556 S
Cd99 O98 2.223 . S
Cd99 O102 2.297 1_556 S
Cd99 O103 2.439 . S
Cd99 O109 2.240 . S
Cd100 O101 2.240 1_556 S
Cd100 O108 2.223 . S
Cd100 O110 2.297 . S
Cd100 O111 2.439 . S
O101 Cd100 2.240 1_554 S
O101 C106 1.279 . S
O102 Cd99 2.297 1_554 S
O102 C104 1.247 . S
O103 Cd99 2.439 . S
O103 C104 1.208 1_556 S
C104 O102 1.247 . S
C104 O103 1.208 1_554 S
C105 O110 1.247 . S
C105 O111 1.208 . S
C106 O98 1.315 1_554 S
C106 O101 1.279 . S
C107 O108 1.315 . S
C107 O109 1.279 . S
O108 Cd100 2.223 . S
O108 C107 1.315 . S
O109 Cd99 2.240 . S
O109 C107 1.279 . S
O110 Cd100 2.297 . S
O110 C105 1.247 . S
O111 Cd100 2.439 . S
O111 C105 1.208 . S
O112 Cd113 2.223 . S
O112 C120 1.315 . S
Cd113 O112 2.223 . S
Cd113 O116 2.297 . S
Cd113 O117 2.439 . S
Cd113 O123 2.240 . S
Cd114 O115 2.240 . S
Cd114 O122 2.223 . S
Cd114 O124 2.297 . S
Cd114 O125 2.439 . S
O115 Cd114 2.240 . S
O115 C120 1.279 . S
O116 Cd113 2.297 . S
O116 C118 1.247 . S
O117 Cd113 2.439 . S
O117 C118 1.208 . S
C118 O116 1.247 . S
C118 O117 1.208 . S
C119 O124 1.247 . S
C119 O125 1.208 . S
C120 O112 1.315 . S
C120 O115 1.279 . S
C121 O122 1.315 . S
C121 O123 1.279 . S
O122 Cd114 2.223 . S
O122 C121 1.315 . S
O123 Cd113 2.240 . S
O123 C121 1.279 . S
O124 Cd114 2.297 . S
O124 C119 1.247 . S
O125 Cd114 2.439 . S
O125 C119 1.208 . S
O126 Cd127 2.223 . S
O126 C134 1.315 . S
Cd127 O126 2.223 . S
Cd127 O130 2.297 . S
Cd127 O131 2.439 . S
Cd127 O137 2.240 . S
Cd128 O129 2.240 . S
Cd128 O136 2.223 . S
Cd128 O138 2.297 . S
Cd128 O139 2.439 . S
O129 Cd128 2.240 . S
O129 C134 1.279 . S
O130 Cd127 2.297 . S
O130 C132 1.247 . S
O131 Cd127 2.439 . S
O131 C132 1.208 . S
C132 O130 1.247 . S
C132 O131 1.208 . S
C133 O138 1.247 . S
C133 O139 1.208 . S
C134 O126 1.315 . S
C134 O129 1.279 . S
C135 O136 1.315 . S
C135 O137 1.279 . S
O136 Cd128 2.223 . S
O136 C135 1.315 . S
O137 Cd127 2.240 . S
O137 C135 1.279 . S
O138 Cd128 2.297 . S
O138 C133 1.247 . S
O139 Cd128 2.439 . S
O139 C133 1.208 . S
O140 Cd141 2.223 . S
O140 C148 1.315 . S
Cd141 O140 2.223 . S
Cd141 O144 2.297 . S
Cd141 O145 2.439 . S
Cd141 O151 2.240 . S
Cd142 O143 2.240 . S
Cd142 O150 2.223 . S
Cd142 O152 2.297 . S
Cd142 O153 2.439 . S
O143 Cd142 2.240 . S
O143 C148 1.279 . S
O144 Cd141 2.297 . S
O144 C146 1.247 . S
O145 Cd141 2.439 . S
O145 C146 1.208 . S
C146 O144 1.247 . S
C146 O145 1.208 . S
C147 O152 1.247 . S
C147 O153 1.208 . S
C148 O140 1.315 . S
C148 O143 1.279 . S
C149 O150 1.315 . S
C149 O151 1.279 . S
O150 Cd142 2.223 . S
O150 C149 1.315 . S
O151 Cd141 2.240 . S
O151 C149 1.279 . S
O152 Cd142 2.297 . S
O152 C147 1.247 . S
O153 Cd142 2.439 . S
O153 C147 1.208 . S
O154 Cd155 2.223 . S
O154 C162 1.315 1_556 S
Cd155 O154 2.223 . S
Cd155 O158 2.297 1_556 S
Cd155 O159 2.439 . S
Cd155 O165 2.240 . S
Cd156 O157 2.240 1_556 S
Cd156 O164 2.223 . S
Cd156 O166 2.297 . S
Cd156 O167 2.439 . S
O157 Cd156 2.240 1_554 S
O157 C162 1.279 . S
O158 Cd155 2.297 1_554 S
O158 C160 1.247 . S
O159 Cd155 2.439 . S
O159 C160 1.208 1_556 S
C160 O158 1.247 . S
C160 O159 1.208 1_554 S
C161 O166 1.247 . S
C161 O167 1.208 . S
C162 O154 1.315 1_554 S
C162 O157 1.279 . S
C163 O164 1.315 . S
C163 O165 1.279 . S
O164 Cd156 2.223 . S
O164 C163 1.315 . S
O165 Cd155 2.240 . S
O165 C163 1.279 . S
O166 Cd156 2.297 . S
O166 C161 1.247 . S
O167 Cd156 2.439 . S
O167 C161 1.208 . S
O168 Cd169 2.223 . S
O168 C176 1.315 . S
Cd169 O168 2.223 . S
Cd169 O172 2.297 . S
Cd169 O173 2.439 . S
Cd169 O179 2.240 . S
Cd170 O171 2.240 . S
Cd170 O178 2.223 . S
Cd170 O180 2.297 . S
Cd170 O181 2.439 . S
O171 Cd170 2.240 . S
O171 C176 1.279 . S
O172 Cd169 2.297 . S
O172 C174 1.247 . S
O173 Cd169 2.439 . S
O173 C174 1.208 . S
C174 O172 1.247 . S
C174 O173 1.208 . S
C175 O180 1.247 . S
C175 O181 1.208 . S
C176 O168 1.315 . S
C176 O171 1.279 . S
C177 O178 1.315 . S
C177 O179 1.279 . S
O178 Cd170 2.223 . S
O178 C177 1.315 . S
O179 Cd169 2.240 . S
O179 C177 1.279 . S
O180 Cd170 2.297 . S
O180 C175 1.247 . S
O181 Cd170 2.439 . S
O181 C175 1.208 . S
O182 Cd183 2.223 . S
O182 C190 1.315 . S
Cd183 O182 2.223 . S
Cd183 O186 2.297 . S
Cd183 O187 2.439 . S
Cd183 O193 2.240 . S
Cd184 O185 2.240 . S
Cd184 O192 2.223 . S
Cd184 O194 2.297 . S
Cd184 O195 2.439 . S
O185 Cd184 2.240 . S
O185 C190 1.279 . S
O186 Cd183 2.297 . S
O186 C188 1.247 . S
O187 Cd183 2.439 . S
O187 C188 1.208 . S
C188 O186 1.247 . S
C188 O187 1.208 . S
C189 O194 1.247 . S
C189 O195 1.208 . S
C190 O182 1.315 . S
C190 O185 1.279 . S
C191 O192 1.315 . S
C191 O193 1.279 . S
O192 Cd184 2.223 . S
O192 C191 1.315 . S
O193 Cd183 2.240 . S
O193 C191 1.279 . S
O194 Cd184 2.297 . S
O194 C189 1.247 . S
O195 Cd184 2.439 . S
O195 C189 1.208 . S
O196 Cd197 2.223 . S
O196 C204 1.315 . S
Cd197 O196 2.223 . S
Cd197 O200 2.297 . S
Cd197 O201 2.439 . S
Cd197 O207 2.240 . S
Cd198 O199 2.240 . S
Cd198 O206 2.223 . S
Cd198 O208 2.297 . S
Cd198 O209 2.439 . S
O199 Cd198 2.240 . S
O199 C204 1.279 . S
O200 Cd197 2.297 . S
O200 C202 1.247 . S
O201 Cd197 2.439 . S
O201 C202 1.208 . S
C202 O200 1.247 . S
C202 O201 1.208 . S
C203 O208 1.247 . S
C203 O209 1.208 . S
C204 O196 1.315 . S
C204 O199 1.279 . S
C205 O206 1.315 . S
C205 O207 1.279 . S
O206 Cd198 2.223 . S
O206 C205 1.315 . S
O207 Cd197 2.240 . S
O207 C205 1.279 . S
O208 Cd198 2.297 . S
O208 C203 1.247 . S
O209 Cd198 2.439 . S
O209 C203 1.208 . S
O210 Cd211 2.223 . S
O210 C218 1.315 1_554 S
Cd211 O210 2.223 . S
Cd211 O214 2.297 1_554 S
Cd211 O215 2.439 . S
Cd211 O221 2.240 . S
Cd212 O213 2.240 1_554 S
Cd212 O220 2.223 . S
Cd212 O222 2.297 . S
Cd212 O223 2.439 . S
O213 Cd212 2.240 1_556 S
O213 C218 1.279 . S
O214 Cd211 2.297 1_556 S
O214 C216 1.247 . S
O215 Cd211 2.439 . S
O215 C216 1.208 1_554 S
C216 O214 1.247 . S
C216 O215 1.208 1_556 S
C217 O222 1.247 . S
C217 O223 1.208 . S
C218 O210 1.315 1_556 S
C218 O213 1.279 . S
C219 O220 1.315 . S
C219 O221 1.279 . S
O220 Cd212 2.223 . S
O220 C219 1.315 . S
O221 Cd211 2.240 . S
O221 C219 1.279 . S
O222 Cd212 2.297 . S
O222 C217 1.247 . S
O223 Cd212 2.439 . S
O223 C217 1.208 . S
O224 Cd225 2.223 . S
O224 C232 1.315 . S
Cd225 O224 2.223 . S
Cd225 O228 2.297 . S
Cd225 O229 2.439 . S
Cd225 O235 2.240 . S
Cd226 O227 2.240 . S
Cd226 O234 2.223 . S
Cd226 O236 2.297 . S
Cd226 O237 2.439 . S
O227 Cd226 2.240 . S
O227 C232 1.279 . S
O228 Cd225 2.297 . S
O228 C230 1.247 . S
O229 Cd225 2.439 . S
O229 C230 1.208 . S
C230 O228 1.247 . S
C230 O229 1.208 . S
C231 O236 1.247 . S
C231 O237 1.208 . S
C232 O224 1.315 . S
C232 O227 1.279 . S
C233 O234 1.315 . S
C233 O235 1.279 . S
O234 Cd226 2.223 . S
O234 C233 1.315 . S
O235 Cd225 2.240 . S
O235 C233 1.279 . S
O236 Cd226 2.297 . S
O236 C231 1.247 . S
O237 Cd226 2.439 . S
O237 C231 1.208 . S
O238 Cd239 2.223 . S
O238 C246 1.315 1_554 S
Cd239 O238 2.223 . S
Cd239 O242 2.297 1_554 S
Cd239 O243 2.439 . S
Cd239 O249 2.240 . S
Cd240 O241 2.240 1_554 S
Cd240 O248 2.223 . S
Cd240 O250 2.297 . S
Cd240 O251 2.439 . S
O241 Cd240 2.240 1_556 S
O241 C246 1.279 . S
O242 Cd239 2.297 1_556 S
O242 C244 1.247 . S
O243 Cd239 2.439 . S
O243 C244 1.208 1_554 S
C244 O242 1.247 . S
C244 O243 1.208 1_556 S
C245 O250 1.247 . S
C245 O251 1.208 . S
C246 O238 1.315 1_556 S
C246 O241 1.279 . S
C247 O248 1.315 . S
C247 O249 1.279 . S
O248 Cd240 2.223 . S
O248 C247 1.315 . S
O249 Cd239 2.240 . S
O249 C247 1.279 . S
O250 Cd240 2.297 . S
O250 C245 1.247 . S
O251 Cd240 2.439 . S
O251 C245 1.208 . S
O252 Cd253 2.223 . S
O252 C260 1.315 . S
Cd253 O252 2.223 . S
Cd253 O256 2.297 . S
Cd253 O257 2.439 . S
Cd253 O263 2.240 . S
Cd254 O255 2.240 . S
Cd254 O262 2.223 . S
Cd254 O264 2.297 . S
Cd254 O265 2.439 . S
O255 Cd254 2.240 . S
O255 C260 1.279 . S
O256 Cd253 2.297 . S
O256 C258 1.247 . S
O257 Cd253 2.439 . S
O257 C258 1.208 . S
C258 O256 1.247 . S
C258 O257 1.208 . S
C259 O264 1.247 . S
C259 O265 1.208 . S
C260 O252 1.315 . S
C260 O255 1.279 . S
C261 O262 1.315 . S
C261 O263 1.279 . S
O262 Cd254 2.223 . S
O262 C261 1.315 . S
O263 Cd253 2.240 . S
O263 C261 1.279 . S
O264 Cd254 2.297 . S
O264 C259 1.247 . S
O265 Cd254 2.439 . S
O265 C259 1.208 . S
O266 Cd267 2.223 . S
O266 C274 1.315 . S
Cd267 O266 2.223 . S
Cd267 O270 2.297 . S
Cd267 O271 2.439 . S
Cd267 O277 2.240 . S
Cd268 O269 2.240 . S
Cd268 O276 2.223 . S
Cd268 O278 2.297 . S
Cd268 O279 2.439 . S
O269 Cd268 2.240 . S
O269 C274 1.279 . S
O270 Cd267 2.297 . S
O270 C272 1.247 . S
O271 Cd267 2.439 . S
O271 C272 1.208 . S
C272 O270 1.247 . S
C272 O271 1.208 . S
C273 O278 1.247 . S
C273 O279 1.208 . S
C274 O266 1.315 . S
C274 O269 1.279 . S
C275 O276 1.315 . S
C275 O277 1.279 . S
O276 Cd268 2.223 . S
O276 C275 1.315 . S
O277 Cd267 2.240 . S
O277 C275 1.279 . S
O278 Cd268 2.297 . S
O278 C273 1.247 . S
O279 Cd268 2.439 . S
O279 C273 1.208 . S
O280 Cd281 2.223 . S
O280 C288 1.315 . S
Cd281 O280 2.223 . S
Cd281 O284 2.297 . S
Cd281 O285 2.439 . S
Cd281 O291 2.240 . S
Cd282 O283 2.240 . S
Cd282 O290 2.223 . S
Cd282 O292 2.297 . S
Cd282 O293 2.439 . S
O283 Cd282 2.240 . S
O283 C288 1.279 . S
O284 Cd281 2.297 . S
O284 C286 1.247 . S
O285 Cd281 2.439 . S
O285 C286 1.208 . S
C286 O284 1.247 . S
C286 O285 1.208 . S
C287 O292 1.247 . S
C287 O293 1.208 . S
C288 O280 1.315 . S
C288 O283 1.279 . S
C289 O290 1.315 . S
C289 O291 1.279 . S
O290 Cd282 2.223 . S
O290 C289 1.315 . S
O291 Cd281 2.240 . S
O291 C289 1.279 . S
O292 Cd282 2.297 . S
O292 C287 1.247 . S
O293 Cd282 2.439 . S
O293 C287 1.208 . S
O294 Cd295 2.223 . S
O294 C302 1.315 1_556 S
Cd295 O294 2.223 . S
Cd295 O298 2.297 1_556 S
Cd295 O299 2.439 . S
Cd295 O305 2.240 . S
Cd296 O297 2.240 1_556 S
Cd296 O304 2.223 . S
Cd296 O306 2.297 . S
Cd296 O307 2.439 . S
O297 Cd296 2.240 1_554 S
O297 C302 1.279 . S
O298 Cd295 2.297 1_554 S
O298 C300 1.247 . S
O299 Cd295 2.439 . S
O299 C300 1.208 1_556 S
C300 O298 1.247 . S
C300 O299 1.208 1_554 S
C301 O306 1.247 . S
C301 O307 1.208 . S
C302 O294 1.315 1_554 S
C302 O297 1.279 . S
C303 O304 1.315 . S
C303 O305 1.279 . S
O304 Cd296 2.223 . S
O304 C303 1.315 . S
O305 Cd295 2.240 . S
O305 C303 1.279 . S
O306 Cd296 2.297 . S
O306 C301 1.247 . S
O307 Cd296 2.439 . S
O307 C301 1.208 . S
O308 Cd309 2.223 . S
O308 C316 1.315 . S
Cd309 O308 2.223 . S
Cd309 O312 2.297 . S
Cd309 O313 2.439 . S
Cd309 O319 2.240 . S
Cd310 O311 2.240 . S
Cd310 O318 2.223 . S
Cd310 O320 2.297 . S
Cd310 O321 2.439 . S
O311 Cd310 2.240 . S
O311 C316 1.279 . S
O312 Cd309 2.297 . S
O312 C314 1.247 . S
O313 Cd309 2.439 . S
O313 C314 1.208 . S
C314 O312 1.247 . S
C314 O313 1.208 . S
C315 O320 1.247 . S
C315 O321 1.208 . S
C316 O308 1.315 . S
C316 O311 1.279 . S
C317 O318 1.315 . S
C317 O319 1.279 . S
O318 Cd310 2.223 . S
O318 C317 1.315 . S
O319 Cd309 2.240 . S
O319 C317 1.279 . S
O320 Cd310 2.297 . S
O320 C315 1.247 . S
O321 Cd310 2.439 . S
O321 C315 1.208 . S
O322 Cd323 2.223 . S
O322 C330 1.315 . S
Cd323 O322 2.223 . S
Cd323 O326 2.297 . S
Cd323 O327 2.439 . S
Cd323 O333 2.240 . S
Cd324 O325 2.240 . S
Cd324 O332 2.223 . S
Cd324 O334 2.297 . S
Cd324 O335 2.439 . S
O325 Cd324 2.240 . S
O325 C330 1.279 . S
O326 Cd323 2.297 . S
O326 C328 1.247 . S
O327 Cd323 2.439 . S
O327 C328 1.208 . S
C328 O326 1.247 . S
C328 O327 1.208 . S
C329 O334 1.247 . S
C329 O335 1.208 . S
C330 O322 1.315 . S
C330 O325 1.279 . S
C331 O332 1.315 . S
C331 O333 1.279 . S
O332 Cd324 2.223 . S
O332 C331 1.315 . S
O333 Cd323 2.240 . S
O333 C331 1.279 . S
O334 Cd324 2.297 . S
O334 C329 1.247 . S
O335 Cd324 2.439 . S
O335 C329 1.208 . S
O336 Cd337 2.223 . S
O336 C344 1.315 . S
Cd337 O336 2.223 . S
Cd337 O340 2.297 . S
Cd337 O341 2.439 . S
Cd337 O347 2.240 . S
Cd338 O339 2.240 . S
Cd338 O346 2.223 . S
Cd338 O348 2.297 . S
Cd338 O349 2.439 . S
O339 Cd338 2.240 . S
O339 C344 1.279 . S
O340 Cd337 2.297 . S
O340 C342 1.247 . S
O341 Cd337 2.439 . S
O341 C342 1.208 . S
C342 O340 1.247 . S
C342 O341 1.208 . S
C343 O348 1.247 . S
C343 O349 1.208 . S
C344 O336 1.315 . S
C344 O339 1.279 . S
C345 O346 1.315 . S
C345 O347 1.279 . S
O346 Cd338 2.223 . S
O346 C345 1.315 . S
O347 Cd337 2.240 . S
O347 C345 1.279 . S
O348 Cd338 2.297 . S
O348 C343 1.247 . S
O349 Cd338 2.439 . S
O349 C343 1.208 . S
O350 Cd351 2.223 . S
O350 C358 1.315 1_556 S
Cd351 O350 2.223 . S
Cd351 O354 2.297 1_556 S
Cd351 O355 2.439 . S
Cd351 O361 2.240 . S
Cd352 O353 2.240 1_556 S
Cd352 O360 2.223 . S
Cd352 O362 2.297 . S
Cd352 O363 2.439 . S
O353 Cd352 2.240 1_554 S
O353 C358 1.279 . S
O354 Cd351 2.297 1_554 S
O354 C356 1.247 . S
O355 Cd351 2.439 . S
O355 C356 1.208 1_556 S
C356 O354 1.247 . S
C356 O355 1.208 1_554 S
C357 O362 1.247 . S
C357 O363 1.208 . S
C358 O350 1.315 1_554 S
C358 O353 1.279 . S
C359 O360 1.315 . S
C359 O361 1.279 . S
O360 Cd352 2.223 . S
O360 C359 1.315 . S
O361 Cd351 2.240 . S
O361 C359 1.279 . S
O362 Cd352 2.297 . S
O362 C357 1.247 . S
O363 Cd352 2.439 . S
O363 C357 1.208 . S
O364 Cd365 2.223 . S
O364 C372 1.315 . S
Cd365 O364 2.223 . S
Cd365 O368 2.297 . S
Cd365 O369 2.439 . S
Cd365 O375 2.240 . S
Cd366 O367 2.240 . S
Cd366 O374 2.223 . S
Cd366 O376 2.297 . S
Cd366 O377 2.439 . S
O367 Cd366 2.240 . S
O367 C372 1.279 . S
O368 Cd365 2.297 . S
O368 C370 1.247 . S
O369 Cd365 2.439 . S
O369 C370 1.208 . S
C370 O368 1.247 . S
C370 O369 1.208 . S
C371 O376 1.247 . S
C371 O377 1.208 . S
C372 O364 1.315 . S
C372 O367 1.279 . S
C373 O374 1.315 . S
C373 O375 1.279 . S
O374 Cd366 2.223 . S
O374 C373 1.315 . S
O375 Cd365 2.240 . S
O375 C373 1.279 . S
O376 Cd366 2.297 . S
O376 C371 1.247 . S
O377 Cd366 2.439 . S
O377 C371 1.208 . S
O378 Cd379 2.223 . S
O378 C386 1.315 . S
Cd379 O378 2.223 . S
Cd379 O382 2.297 . S
Cd379 O383 2.439 . S
Cd379 O389 2.240 . S
Cd380 O381 2.240 . S
Cd380 O388 2.223 . S
Cd380 O390 2.297 . S
Cd380 O391 2.439 . S
O381 Cd380 2.240 . S
O381 C386 1.279 . S
O382 Cd379 2.297 . S
O382 C384 1.247 . S
O383 Cd379 2.439 . S
O383 C384 1.208 . S
C384 O382 1.247 . S
C384 O383 1.208 . S
C385 O390 1.247 . S
C385 O391 1.208 . S
C386 O378 1.315 . S
C386 O381 1.279 . S
C387 O388 1.315 . S
C387 O389 1.279 . S
O388 Cd380 2.223 . S
O388 C387 1.315 . S
O389 Cd379 2.240 . S
O389 C387 1.279 . S
O390 Cd380 2.297 . S
O390 C385 1.247 . S
O391 Cd380 2.439 . S
O391 C385 1.208 . S
O392 Cd393 2.223 . S
O392 C400 1.315 . S
Cd393 O392 2.223 . S
Cd393 O396 2.297 . S
Cd393 O397 2.439 . S
Cd393 O403 2.240 . S
Cd394 O395 2.240 . S
Cd394 O402 2.223 . S
Cd394 O404 2.297 . S
Cd394 O405 2.439 . S
O395 Cd394 2.240 . S
O395 C400 1.279 . S
O396 Cd393 2.297 . S
O396 C398 1.247 . S
O397 Cd393 2.439 . S
O397 C398 1.208 . S
C398 O396 1.247 . S
C398 O397 1.208 . S
C399 O404 1.247 . S
C399 O405 1.208 . S
C400 O392 1.315 . S
C400 O395 1.279 . S
C401 O402 1.315 . S
C401 O403 1.279 . S
O402 Cd394 2.223 . S
O402 C401 1.315 . S
O403 Cd393 2.240 . S
O403 C401 1.279 . S
O404 Cd394 2.297 . S
O404 C399 1.247 . S
O405 Cd394 2.439 . S
O405 C399 1.208 . S
O406 Cd407 2.223 . S
O406 C414 1.315 1_554 S
Cd407 O406 2.223 . S
Cd407 O410 2.297 1_554 S
Cd407 O411 2.439 . S
Cd407 O417 2.240 . S
Cd408 O409 2.240 1_554 S
Cd408 O416 2.223 . S
Cd408 O418 2.297 . S
Cd408 O419 2.439 . S
O409 Cd408 2.240 1_556 S
O409 C414 1.279 . S
O410 Cd407 2.297 1_556 S
O410 C412 1.247 . S
O411 Cd407 2.439 . S
O411 C412 1.208 1_554 S
C412 O410 1.247 . S
C412 O411 1.208 1_556 S
C413 O418 1.247 . S
C413 O419 1.208 . S
C414 O406 1.315 1_556 S
C414 O409 1.279 . S
C415 O416 1.315 . S
C415 O417 1.279 . S
O416 Cd408 2.223 . S
O416 C415 1.315 . S
O417 Cd407 2.240 . S
O417 C415 1.279 . S
O418 Cd408 2.297 . S
O418 C413 1.247 . S
O419 Cd408 2.439 . S
O419 C413 1.208 . S
O420 Cd421 2.223 . S
O420 C428 1.315 . S
Cd421 O420 2.223 . S
Cd421 O424 2.297 . S
Cd421 O425 2.439 . S
Cd421 O431 2.240 . S
Cd422 O423 2.240 . S
Cd422 O430 2.223 . S
Cd422 O432 2.297 . S
Cd422 O433 2.439 . S
O423 Cd422 2.240 . S
O423 C428 1.279 . S
O424 Cd421 2.297 . S
O424 C426 1.247 . S
O425 Cd421 2.439 . S
O425 C426 1.208 . S
C426 O424 1.247 . S
C426 O425 1.208 . S
C427 O432 1.247 . S
C427 O433 1.208 . S
C428 O420 1.315 . S
C428 O423 1.279 . S
C429 O430 1.315 . S
C429 O431 1.279 . S
O430 Cd422 2.223 . S
O430 C429 1.315 . S
O431 Cd421 2.240 . S
O431 C429 1.279 . S
O432 Cd422 2.297 . S
O432 C427 1.247 . S
O433 Cd422 2.439 . S
O433 C427 1.208 . S
O434 Cd435 2.223 . S
O434 C442 1.315 . S
Cd435 O434 2.223 . S
Cd435 O438 2.297 . S
Cd435 O439 2.439 . S
Cd435 O445 2.240 . S
Cd436 O437 2.240 . S
Cd436 O444 2.223 . S
Cd436 O446 2.297 . S
Cd436 O447 2.439 . S
O437 Cd436 2.240 . S
O437 C442 1.279 . S
O438 Cd435 2.297 . S
O438 C440 1.247 . S
O439 Cd435 2.439 . S
O439 C440 1.208 . S
C440 O438 1.247 . S
C440 O439 1.208 . S
C441 O446 1.247 . S
C441 O447 1.208 . S
C442 O434 1.315 . S
C442 O437 1.279 . S
C443 O444 1.315 . S
C443 O445 1.279 . S
O444 Cd436 2.223 . S
O444 C443 1.315 . S
O445 Cd435 2.240 . S
O445 C443 1.279 . S
O446 Cd436 2.297 . S
O446 C441 1.247 . S
O447 Cd436 2.439 . S
O447 C441 1.208 . S
H448 C454 0.930 . S
H449 C457 0.930 . S
H450 C458 0.930 . S
H451 C459 0.930 . S
H452 C462 0.930 . S
H453 C463 0.930 . S
C454 H448 0.930 . S
C454 C455 1.355 . S
C454 C456 1.415 . S
C455 C454 1.355 . S
C455 C457 1.419 . S
C456 C454 1.415 . S
C456 C461 1.425 . S
C456 C463 1.409 . S
C457 H449 0.930 . S
C457 C455 1.419 . S
C457 C458 1.362 . S
C458 H450 0.930 . S
C458 C457 1.362 . S
C458 C461 1.409 . S
C459 H451 0.930 . S
C459 C460 1.355 . S
C459 C461 1.415 . S
C460 C459 1.355 . S
C460 C462 1.419 . S
C461 C456 1.425 . S
C461 C458 1.409 . S
C461 C459 1.415 . S
C462 H452 0.930 . S
C462 C460 1.419 . S
C462 C463 1.362 . S
C463 H453 0.930 . S
C463 C456 1.409 . S
C463 C462 1.362 . S
H464 C470 0.930 . S
H465 C473 0.930 . S
H466 C474 0.930 . S
H467 C475 0.930 . S
H468 C478 0.930 . S
H469 C479 0.930 . S
C470 H464 0.930 . S
C470 C471 1.355 . S
C470 C472 1.433 . S
C471 C470 1.355 . S
C471 C473 1.419 . S
C472 C470 1.433 . S
C472 C477 1.424 1_565 S
C472 C479 1.391 1_565 S
C473 H465 0.930 . S
C473 C471 1.419 . S
C473 C474 1.362 . S
C474 H466 0.930 . S
C474 C473 1.362 . S
C474 C477 1.391 1_565 S
C475 H467 0.930 . S
C475 C476 1.355 . S
C475 C477 1.433 . S
C476 C475 1.355 . S
C476 C478 1.419 . S
C477 C472 1.424 1_545 S
C477 C474 1.391 1_545 S
C477 C475 1.433 . S
C478 H468 0.930 . S
C478 C476 1.419 . S
C478 C479 1.362 . S
C479 H469 0.930 . S
C479 C472 1.391 1_545 S
C479 C478 1.362 . S
H480 C486 0.930 . S
H481 C489 0.930 . S
H482 C490 0.930 . S
H483 C491 0.930 . S
H484 C494 0.930 . S
H485 C495 0.930 . S
C486 H480 0.930 . S
C486 C487 1.355 1_556 S
C486 C488 1.415 . S
C487 C486 1.355 1_554 S
C487 C489 1.419 . S
C488 C486 1.415 . S
C488 C493 1.425 1_556 S
C488 C495 1.409 . S
C489 H481 0.930 . S
C489 C487 1.419 . S
C489 C490 1.362 . S
C490 H482 0.930 . S
C490 C489 1.362 . S
C490 C493 1.409 . S
C491 H483 0.930 . S
C491 C492 1.355 1_554 S
C491 C493 1.415 . S
C492 C491 1.355 1_556 S
C492 C494 1.419 . S
C493 C488 1.425 1_554 S
C493 C490 1.409 . S
C493 C491 1.415 . S
C494 H484 0.930 . S
C494 C492 1.419 . S
C494 C495 1.362 . S
C495 H485 0.930 . S
C495 C488 1.409 . S
C495 C494 1.362 . S
H496 C502 0.930 . S
H497 C505 0.930 . S
H498 C506 0.932 1_565 S
H499 C507 0.930 . S
H500 C510 0.930 . S
H501 C511 0.932 1_545 S
C502 H496 0.930 . S
C502 C503 1.355 . S
C502 C504 1.415 . S
C503 C502 1.355 . S
C503 C505 1.419 . S
C504 C502 1.415 . S
C504 C509 1.425 1_545 S
C504 C511 1.409 1_545 S
C505 H497 0.930 . S
C505 C503 1.419 . S
C505 C506 1.362 . S
C506 H498 0.932 1_545 S
C506 C505 1.362 . S
C506 C509 1.409 1_545 S
C507 H499 0.930 . S
C507 C508 1.355 . S
C507 C509 1.415 . S
C508 C507 1.355 . S
C508 C510 1.419 . S
C509 C504 1.425 1_565 S
C509 C506 1.409 1_565 S
C509 C507 1.415 . S
C510 H500 0.930 . S
C510 C508 1.419 . S
C510 C511 1.362 . S
C511 H501 0.932 1_565 S
C511 C504 1.409 1_565 S
C511 C510 1.362 . S
H512 C518 0.930 . S
H513 C521 0.930 . S
H514 C522 0.930 . S
H515 C523 0.930 . S
H516 C526 0.930 . S
H517 C527 0.930 . S
C518 H512 0.930 . S
C518 C519 1.355 . S
C518 C520 1.415 . S
C519 C518 1.355 . S
C519 C521 1.419 . S
C520 C518 1.415 . S
C520 C525 1.425 . S
C520 C527 1.409 . S
C521 H513 0.930 . S
C521 C519 1.419 . S
C521 C522 1.362 . S
C522 H514 0.930 . S
C522 C521 1.362 . S
C522 C525 1.409 . S
C523 H515 0.930 . S
C523 C524 1.355 . S
C523 C525 1.415 . S
C524 C523 1.355 . S
C524 C526 1.419 . S
C525 C520 1.425 . S
C525 C522 1.409 . S
C525 C523 1.415 . S
C526 H516 0.930 . S
C526 C524 1.419 . S
C526 C527 1.362 . S
C527 H517 0.930 . S
C527 C520 1.409 . S
C527 C526 1.362 . S
H528 C534 0.930 . S
H529 C537 0.930 . S
H530 C538 0.930 . S
H531 C539 0.930 . S
H532 C542 0.930 . S
H533 C543 0.930 . S
C534 H528 0.930 . S
C534 C535 1.355 . S
C534 C536 1.415 . S
C535 C534 1.355 . S
C535 C537 1.419 . S
C536 C534 1.415 . S
C536 C541 1.425 1_545 S
C536 C543 1.409 1_545 S
C537 H529 0.930 . S
C537 C535 1.419 . S
C537 C538 1.362 . S
C538 H530 0.930 . S
C538 C537 1.362 . S
C538 C541 1.409 1_545 S
C539 H531 0.930 . S
C539 C540 1.355 . S
C539 C541 1.415 . S
C540 C539 1.355 . S
C540 C542 1.419 . S
C541 C536 1.425 1_565 S
C541 C538 1.409 1_565 S
C541 C539 1.415 . S
C542 H532 0.930 . S
C542 C540 1.419 . S
C542 C543 1.362 . S
C543 H533 0.930 . S
C543 C536 1.409 1_565 S
C543 C542 1.362 . S
H544 C550 0.930 . S
H545 C553 0.930 . S
H546 C554 0.930 . S
H547 C555 0.930 . S
H548 C558 0.930 . S
H549 C559 0.930 . S
C550 H544 0.930 . S
C550 C551 1.355 . S
C550 C552 1.415 . S
C551 C550 1.355 . S
C551 C553 1.419 1_556 S
C552 C550 1.415 . S
C552 C557 1.425 1_556 S
C552 C559 1.409 . S
C553 H545 0.930 . S
C553 C551 1.419 1_554 S
C553 C554 1.362 . S
C554 H546 0.930 . S
C554 C553 1.362 . S
C554 C557 1.409 . S
C555 H547 0.930 . S
C555 C556 1.355 . S
C555 C557 1.415 . S
C556 C555 1.355 . S
C556 C558 1.419 1_554 S
C557 C552 1.425 1_554 S
C557 C554 1.409 . S
C557 C555 1.415 . S
C558 H548 0.930 . S
C558 C556 1.419 1_556 S
C558 C559 1.362 . S
C559 H549 0.930 . S
C559 C552 1.409 . S
C559 C558 1.362 . S
H560 C566 0.930 . S
H561 C569 0.930 . S
H562 C570 0.930 . S
H563 C571 0.930 . S
H564 C574 0.930 . S
H565 C575 0.930 . S
C566 H560 0.930 . S
C566 C567 1.355 . S
C566 C568 1.411 . S
C567 C566 1.355 . S
C567 C569 1.419 . S
C568 C566 1.411 . S
C568 C573 1.425 1_565 S
C568 C575 1.413 1_565 S
C569 H561 0.930 . S
C569 C567 1.419 . S
C569 C570 1.362 . S
C570 H562 0.930 . S
C570 C569 1.362 . S
C570 C573 1.413 1_565 S
C571 H563 0.930 . S
C571 C572 1.355 . S
C571 C573 1.411 . S
C572 C571 1.355 . S
C572 C574 1.419 . S
C573 C568 1.425 1_545 S
C573 C570 1.413 1_545 S
C573 C571 1.411 . S
C574 H564 0.930 . S
C574 C572 1.419 . S
C574 C575 1.362 . S
C575 H565 0.930 . S
C575 C568 1.413 1_545 S
C575 C574 1.362 . S
H576 C582 0.930 . S
H577 C585 0.930 . S
H578 C586 0.930 . S
H579 C587 0.930 . S
H580 C590 0.930 . S
H581 C591 0.930 . S
C582 H576 0.930 . S
C582 C583 1.355 . S
C582 C584 1.415 1_556 S
C583 C582 1.355 . S
C583 C585 1.419 . S
C584 C582 1.415 1_554 S
C584 C589 1.425 1_554 S
C584 C591 1.409 . S
C585 H577 0.930 . S
C585 C583 1.419 . S
C585 C586 1.362 . S
C586 H578 0.930 . S
C586 C585 1.362 . S
C586 C589 1.409 . S
C587 H579 0.930 . S
C587 C588 1.355 . S
C587 C589 1.415 1_554 S
C588 C587 1.355 . S
C588 C590 1.419 . S
C589 C584 1.425 1_556 S
C589 C586 1.409 . S
C589 C587 1.415 1_556 S
C590 H580 0.930 . S
C590 C588 1.419 . S
C590 C591 1.362 . S
C591 H581 0.930 . S
C591 C584 1.409 . S
C591 C590 1.362 . S
H592 C598 0.930 . S
H593 C601 0.930 . S
H594 C602 0.930 . S
H595 C603 0.930 . S
H596 C606 0.930 . S
H597 C607 0.930 . S
C598 H592 0.930 . S
C598 C599 1.355 . S
C598 C600 1.415 . S
C599 C598 1.355 . S
C599 C601 1.419 . S
C600 C598 1.415 . S
C600 C605 1.425 . S
C600 C607 1.409 . S
C601 H593 0.930 . S
C601 C599 1.419 . S
C601 C602 1.362 . S
C602 H594 0.930 . S
C602 C601 1.362 . S
C602 C605 1.409 . S
C603 H595 0.930 . S
C603 C604 1.355 . S
C603 C605 1.415 . S
C604 C603 1.355 . S
C604 C606 1.419 . S
C605 C600 1.425 . S
C605 C602 1.409 . S
C605 C603 1.415 . S
C606 H596 0.930 . S
C606 C604 1.419 . S
C606 C607 1.362 . S
C607 H597 0.930 . S
C607 C600 1.409 . S
C607 C606 1.362 . S
H608 C614 0.930 . S
H609 C617 0.930 . S
H610 C618 0.930 . S
H611 C619 0.930 . S
H612 C622 0.930 . S
H613 C623 0.930 . S
C614 H608 0.930 . S
C614 C615 1.355 . S
C614 C616 1.415 . S
C615 C614 1.355 . S
C615 C617 1.419 . S
C616 C614 1.415 . S
C616 C621 1.425 . S
C616 C623 1.409 . S
C617 H609 0.930 . S
C617 C615 1.419 . S
C617 C618 1.362 . S
C618 H610 0.930 . S
C618 C617 1.362 . S
C618 C621 1.409 . S
C619 H611 0.930 . S
C619 C620 1.355 . S
C619 C621 1.415 . S
C620 C619 1.355 . S
C620 C622 1.419 . S
C621 C616 1.425 . S
C621 C618 1.409 . S
C621 C619 1.415 . S
C622 H612 0.930 . S
C622 C620 1.419 . S
C622 C623 1.362 . S
C623 H613 0.930 . S
C623 C616 1.409 . S
C623 C622 1.362 . S
H624 C630 0.930 . S
H625 C633 0.930 . S
H626 C634 0.930 . S
H627 C635 0.930 . S
H628 C638 0.930 . S
H629 C639 0.930 . S
C630 H624 0.930 . S
C630 C631 1.355 . S
C630 C632 1.415 . S
C631 C630 1.355 . S
C631 C633 1.419 . S
C632 C630 1.415 . S
C632 C637 1.425 . S
C632 C639 1.409 . S
C633 H625 0.930 . S
C633 C631 1.419 . S
C633 C634 1.362 . S
C634 H626 0.930 . S
C634 C633 1.362 . S
C634 C637 1.409 . S
C635 H627 0.930 . S
C635 C636 1.355 . S
C635 C637 1.415 . S
C636 C635 1.355 . S
C636 C638 1.419 . S
C637 C632 1.425 . S
C637 C634 1.409 . S
C637 C635 1.415 . S
C638 H628 0.930 . S
C638 C636 1.419 . S
C638 C639 1.362 . S
C639 H629 0.930 . S
C639 C632 1.409 . S
C639 C638 1.362 . S
H640 C646 0.930 . S
H641 C649 0.930 . S
H642 C650 0.930 . S
H643 C651 0.930 . S
H644 C654 0.930 . S
H645 C655 0.930 . S
C646 H640 0.930 . S
C646 C647 1.355 . S
C646 C648 1.415 . S
C647 C646 1.355 . S
C647 C649 1.419 1_556 S
C648 C646 1.415 . S
C648 C653 1.425 1_556 S
C648 C655 1.409 . S
C649 H641 0.930 . S
C649 C647 1.419 1_554 S
C649 C650 1.362 . S
C650 H642 0.930 . S
C650 C649 1.362 . S
C650 C653 1.409 . S
C651 H643 0.930 . S
C651 C652 1.355 . S
C651 C653 1.415 . S
C652 C651 1.355 . S
C652 C654 1.419 1_554 S
C653 C648 1.425 1_554 S
C653 C650 1.409 . S
C653 C651 1.415 . S
C654 H644 0.930 . S
C654 C652 1.419 1_556 S
C654 C655 1.362 . S
C655 H645 0.930 . S
C655 C648 1.409 . S
C655 C654 1.362 . S
H656 C662 0.930 . S
H657 C665 0.930 . S
H658 C666 0.930 . S
H659 C667 0.930 . S
H660 C670 0.930 . S
H661 C671 0.930 . S
C662 H656 0.930 . S
C662 C663 1.355 . S
C662 C664 1.415 . S
C663 C662 1.355 . S
C663 C665 1.419 . S
C664 C662 1.415 . S
C664 C669 1.425 . S
C664 C671 1.409 . S
C665 H657 0.930 . S
C665 C663 1.419 . S
C665 C666 1.362 . S
C666 H658 0.930 . S
C666 C665 1.362 . S
C666 C669 1.409 . S
C667 H659 0.930 . S
C667 C668 1.355 . S
C667 C669 1.415 . S
C668 C667 1.355 . S
C668 C670 1.419 . S
C669 C664 1.425 . S
C669 C666 1.409 . S
C669 C667 1.415 . S
C670 H660 0.930 . S
C670 C668 1.419 . S
C670 C671 1.362 . S
C671 H661 0.930 . S
C671 C664 1.409 . S
C671 C670 1.362 . S
H672 C678 0.930 . S
H673 C681 0.930 . S
H674 C682 0.930 . S
H675 C683 0.930 . S
H676 C686 0.930 . S
H677 C687 0.930 . S
C678 H672 0.930 . S
C678 C679 1.355 . S
C678 C680 1.415 . S
C679 C678 1.355 . S
C679 C681 1.419 . S
C680 C678 1.415 . S
C680 C685 1.425 . S
C680 C687 1.409 . S
C681 H673 0.930 . S
C681 C679 1.419 . S
C681 C682 1.362 . S
C682 H674 0.930 . S
C682 C681 1.362 . S
C682 C685 1.409 . S
C683 H675 0.930 . S
C683 C684 1.355 . S
C683 C685 1.415 . S
C684 C683 1.355 . S
C684 C686 1.419 . S
C685 C680 1.425 . S
C685 C682 1.409 . S
C685 C683 1.415 . S
C686 H676 0.930 . S
C686 C684 1.419 . S
C686 C687 1.362 . S
C687 H677 0.930 . S
C687 C680 1.409 . S
C687 C686 1.362 . S
H688 C694 0.930 . S
H689 C697 0.930 . S
H690 C698 0.930 . S
H691 C699 0.930 . S
H692 C702 0.930 . S
H693 C703 0.930 . S
C694 H688 0.930 . S
C694 C695 1.355 . S
C694 C696 1.415 . S
C695 C694 1.355 . S
C695 C697 1.419 . S
C696 C694 1.415 . S
C696 C701 1.425 . S
C696 C703 1.409 . S
C697 H689 0.930 . S
C697 C695 1.419 . S
C697 C698 1.362 . S
C698 H690 0.930 . S
C698 C697 1.362 . S
C698 C701 1.409 . S
C699 H691 0.930 . S
C699 C700 1.355 . S
C699 C701 1.415 . S
C700 C699 1.355 . S
C700 C702 1.419 . S
C701 C696 1.425 . S
C701 C698 1.409 . S
C701 C699 1.415 . S
C702 H692 0.930 . S
C702 C700 1.419 . S
C702 C703 1.362 . S
C703 H693 0.930 . S
C703 C696 1.409 . S
C703 C702 1.362 . S
H704 C710 0.930 . S
H705 C713 0.930 . S
H706 C714 0.930 . S
H707 C715 0.930 . S
H708 C718 0.930 . S
H709 C719 0.930 . S
C710 H704 0.930 . S
C710 C711 1.355 . S
C710 C712 1.415 . S
C711 C710 1.355 . S
C711 C713 1.419 . S
C712 C710 1.415 . S
C712 C717 1.425 . S
C712 C719 1.409 . S
C713 H705 0.930 . S
C713 C711 1.419 . S
C713 C714 1.362 . S
C714 H706 0.930 . S
C714 C713 1.362 . S
C714 C717 1.409 . S
C715 H707 0.930 . S
C715 C716 1.355 . S
C715 C717 1.415 . S
C716 C715 1.355 . S
C716 C718 1.419 . S
C717 C712 1.425 . S
C717 C714 1.409 . S
C717 C715 1.415 . S
C718 H708 0.930 . S
C718 C716 1.419 . S
C718 C719 1.362 . S
C719 H709 0.930 . S
C719 C712 1.409 . S
C719 C718 1.362 . S
H720 C726 0.930 . S
H721 C729 0.930 . S
H722 C730 0.930 . S
H723 C731 0.930 . S
H724 C734 0.930 . S
H725 C735 0.930 . S
C726 H720 0.930 . S
C726 C727 1.355 . S
C726 C728 1.415 . S
C727 C726 1.355 . S
C727 C729 1.419 . S
C728 C726 1.415 . S
C728 C733 1.425 . S
C728 C735 1.409 . S
C729 H721 0.930 . S
C729 C727 1.419 . S
C729 C730 1.362 . S
C730 H722 0.930 . S
C730 C729 1.362 . S
C730 C733 1.409 . S
C731 H723 0.930 . S
C731 C732 1.355 . S
C731 C733 1.415 . S
C732 C731 1.355 . S
C732 C734 1.419 . S
C733 C728 1.425 . S
C733 C730 1.409 . S
C733 C731 1.415 . S
C734 H724 0.930 . S
C734 C732 1.419 . S
C734 C735 1.362 . S
C735 H725 0.930 . S
C735 C728 1.409 . S
C735 C734 1.362 . S
H736 C742 0.930 . S
H737 C745 0.930 . S
H738 C746 0.930 . S
H739 C747 0.930 . S
H740 C750 0.930 . S
H741 C751 0.930 . S
C742 H736 0.930 . S
C742 C743 1.355 . S
C742 C744 1.415 . S
C743 C742 1.355 . S
C743 C745 1.419 . S
C744 C742 1.415 . S
C744 C749 1.425 . S
C744 C751 1.409 . S
C745 H737 0.930 . S
C745 C743 1.419 . S
C745 C746 1.362 . S
C746 H738 0.930 . S
C746 C745 1.362 . S
C746 C749 1.409 . S
C747 H739 0.930 . S
C747 C748 1.355 . S
C747 C749 1.415 . S
C748 C747 1.355 . S
C748 C750 1.419 . S
C749 C744 1.425 . S
C749 C746 1.409 . S
C749 C747 1.415 . S
C750 H740 0.930 . S
C750 C748 1.419 . S
C750 C751 1.362 . S
C751 H741 0.930 . S
C751 C744 1.409 . S
C751 C750 1.362 . S
H752 C758 0.930 . S
H753 C761 0.930 . S
H754 C762 0.930 . S
H755 C763 0.930 1_554 S
H756 C766 0.930 . S
H757 C767 0.930 . S
C758 H752 0.930 . S
C758 C759 1.355 . S
C758 C760 1.415 . S
C759 C758 1.355 . S
C759 C761 1.419 . S
C760 C758 1.415 . S
C760 C765 1.425 . S
C760 C767 1.409 . S
C761 H753 0.930 . S
C761 C759 1.419 . S
C761 C762 1.362 . S
C762 H754 0.930 . S
C762 C761 1.362 . S
C762 C765 1.409 . S
C763 H755 0.930 1_556 S
C763 C764 1.355 . S
C763 C765 1.415 . S
C764 C763 1.355 . S
C764 C766 1.419 . S
C765 C760 1.425 . S
C765 C762 1.409 . S
C765 C763 1.415 . S
C766 H756 0.930 . S
C766 C764 1.419 . S
C766 C767 1.362 . S
C767 H757 0.930 . S
C767 C760 1.409 . S
C767 C766 1.362 . S
H768 C774 0.930 . S
H769 C777 0.930 1_554 S
H770 C778 0.930 . S
H771 C779 0.930 . S
H772 C782 0.930 . S
H773 C783 0.930 . S
C774 H768 0.930 . S
C774 C775 1.355 . S
C774 C776 1.415 . S
C775 C774 1.355 . S
C775 C777 1.419 . S
C776 C774 1.415 . S
C776 C781 1.425 . S
C776 C783 1.409 . S
C777 H769 0.930 1_556 S
C777 C775 1.419 . S
C777 C778 1.362 . S
C778 H770 0.930 . S
C778 C777 1.362 . S
C778 C781 1.409 . S
C779 H771 0.930 . S
C779 C780 1.355 . S
C779 C781 1.415 . S
C780 C779 1.355 . S
C780 C782 1.419 . S
C781 C776 1.425 . S
C781 C778 1.409 . S
C781 C779 1.415 . S
C782 H772 0.930 . S
C782 C780 1.419 . S
C782 C783 1.362 . S
C783 H773 0.930 . S
C783 C776 1.409 . S
C783 C782 1.362 . S
H784 C790 0.930 . S
H785 C793 0.930 . S
H786 C794 0.930 . S
H787 C795 0.930 . S
H788 C798 0.930 . S
H789 C799 0.930 . S
C790 H784 0.930 . S
C790 C791 1.355 . S
C790 C792 1.415 . S
C791 C790 1.355 . S
C791 C793 1.419 . S
C792 C790 1.415 . S
C792 C797 1.425 . S
C792 C799 1.409 . S
C793 H785 0.930 . S
C793 C791 1.419 . S
C793 C794 1.362 . S
C794 H786 0.930 . S
C794 C793 1.362 . S
C794 C797 1.409 . S
C795 H787 0.930 . S
C795 C796 1.355 . S
C795 C797 1.415 . S
C796 C795 1.355 . S
C796 C798 1.419 . S
C797 C792 1.425 . S
C797 C794 1.409 . S
C797 C795 1.415 . S
C798 H788 0.930 . S
C798 C796 1.419 . S
C798 C799 1.362 . S
C799 H789 0.930 . S
C799 C792 1.409 . S
C799 C798 1.362 . S
H800 C806 0.930 . S
H801 C809 0.930 . S
H802 C810 0.930 . S
H803 C811 0.930 . S
H804 C814 0.930 . S
H805 C815 0.930 . S
C806 H800 0.930 . S
C806 C807 1.355 . S
C806 C808 1.415 . S
C807 C806 1.355 . S
C807 C809 1.419 . S
C808 C806 1.415 . S
C808 C813 1.425 . S
C808 C815 1.409 . S
C809 H801 0.930 . S
C809 C807 1.419 . S
C809 C810 1.362 . S
C810 H802 0.930 . S
C810 C809 1.362 . S
C810 C813 1.409 . S
C811 H803 0.930 . S
C811 C812 1.355 . S
C811 C813 1.415 . S
C812 C811 1.355 . S
C812 C814 1.419 . S
C813 C808 1.425 . S
C813 C810 1.409 . S
C813 C811 1.415 . S
C814 H804 0.930 . S
C814 C812 1.419 . S
C814 C815 1.362 . S
C815 H805 0.930 . S
C815 C808 1.409 . S
C815 C814 1.362 . S
H816 C822 0.930 . S
H817 C825 0.930 . S
H818 C826 0.936 . S
H819 C827 0.930 . S
H820 C830 0.930 . S
H821 C831 0.930 . S
C822 H816 0.930 . S
C822 C823 1.355 . S
C822 C824 1.415 . S
C823 C822 1.355 . S
C823 C825 1.419 1_554 S
C824 C822 1.415 . S
C824 C829 1.425 . S
C824 C831 1.409 . S
C825 H817 0.930 . S
C825 C823 1.419 1_556 S
C825 C826 1.362 1_556 S
C826 H818 0.936 . S
C826 C825 1.362 1_554 S
C826 C829 1.409 . S
C827 H819 0.930 . S
C827 C828 1.355 . S
C827 C829 1.415 . S
C828 C827 1.355 . S
C828 C830 1.419 . S
C829 C824 1.425 . S
C829 C826 1.409 . S
C829 C827 1.415 . S
C830 H820 0.930 . S
C830 C828 1.419 . S
C830 C831 1.362 . S
C831 H821 0.930 . S
C831 C824 1.409 . S
C831 C830 1.362 . S
H832 C838 0.930 . S
H833 C841 0.930 . S
H834 C842 0.930 . S
H835 C843 0.930 . S
H836 C846 0.930 . S
H837 C847 0.930 . S
C838 H832 0.930 . S
C838 C839 1.355 . S
C838 C840 1.415 . S
C839 C838 1.355 . S
C839 C841 1.419 . S
C840 C838 1.415 . S
C840 C845 1.425 . S
C840 C847 1.409 . S
C841 H833 0.930 . S
C841 C839 1.419 . S
C841 C842 1.362 . S
C842 H834 0.930 . S
C842 C841 1.362 . S
C842 C845 1.409 . S
C843 H835 0.930 . S
C843 C844 1.355 . S
C843 C845 1.415 . S
C844 C843 1.355 . S
C844 C846 1.419 . S
C845 C840 1.425 . S
C845 C842 1.409 . S
C845 C843 1.415 . S
C846 H836 0.930 . S
C846 C844 1.419 . S
C846 C847 1.362 . S
C847 H837 0.930 . S
C847 C840 1.409 . S
C847 C846 1.362 . S
H848 C854 0.930 . S
H849 C857 0.930 . S
H850 C858 0.930 . S
H851 C859 0.930 . S
H852 C862 0.930 . S
H853 C863 0.930 . S
C854 H848 0.930 . S
C854 C855 1.355 . S
C854 C856 1.415 . S
C855 C854 1.355 . S
C855 C857 1.419 1_556 S
C856 C854 1.415 . S
C856 C861 1.425 . S
C856 C863 1.409 . S
C857 H849 0.930 . S
C857 C855 1.419 1_554 S
C857 C858 1.362 1_554 S
C858 H850 0.930 . S
C858 C857 1.362 1_556 S
C858 C861 1.409 . S
C859 H851 0.930 . S
C859 C860 1.355 . S
C859 C861 1.415 . S
C860 C859 1.355 . S
C860 C862 1.419 . S
C861 C856 1.425 . S
C861 C858 1.409 . S
C861 C859 1.415 . S
C862 H852 0.930 . S
C862 C860 1.419 . S
C862 C863 1.362 . S
C863 H853 0.930 . S
C863 C856 1.409 . S
C863 C862 1.362 . S
H864 C870 0.930 . S
H865 C873 0.930 . S
H866 C874 0.930 . S
H867 C875 0.930 . S
H868 C878 0.930 . S
H869 C879 0.930 . S
C870 H864 0.930 . S
C870 C871 1.355 . S
C870 C872 1.415 . S
C871 C870 1.355 . S
C871 C873 1.419 . S
C872 C870 1.415 . S
C872 C877 1.425 . S
C872 C879 1.409 . S
C873 H865 0.930 . S
C873 C871 1.419 . S
C873 C874 1.362 . S
C874 H866 0.930 . S
C874 C873 1.362 . S
C874 C877 1.409 . S
C875 H867 0.930 . S
C875 C876 1.355 . S
C875 C877 1.415 . S
C876 C875 1.355 . S
C876 C878 1.419 . S
C877 C872 1.425 . S
C877 C874 1.409 . S
C877 C875 1.415 . S
C878 H868 0.930 . S
C878 C876 1.419 . S
C878 C879 1.362 . S
C879 H869 0.930 . S
C879 C872 1.409 . S
C879 C878 1.362 . S
H880 C886 0.930 . S
H881 C889 0.930 . S
H882 C890 0.930 . S
H883 C891 0.930 . S
H884 C894 0.930 . S
H885 C895 0.930 . S
C886 H880 0.930 . S
C886 C887 1.355 . S
C886 C888 1.415 . S
C887 C886 1.355 . S
C887 C889 1.419 . S
C888 C886 1.415 . S
C888 C893 1.425 . S
C888 C895 1.409 . S
C889 H881 0.930 . S
C889 C887 1.419 . S
C889 C890 1.362 . S
C890 H882 0.930 . S
C890 C889 1.362 . S
C890 C893 1.409 . S
C891 H883 0.930 . S
C891 C892 1.355 . S
C891 C893 1.415 . S
C892 C891 1.355 . S
C892 C894 1.419 . S
C893 C888 1.425 . S
C893 C890 1.409 . S
C893 C891 1.415 . S
C894 H884 0.930 . S
C894 C892 1.419 . S
C894 C895 1.362 . S
C895 H885 0.930 . S
C895 C888 1.409 . S
C895 C894 1.362 . S
H896 C902 0.930 . S
H897 C905 0.930 . S
H898 C906 0.930 . S
H899 C907 0.930 . S
H900 C910 0.930 . S
H901 C911 0.930 . S
C902 H896 0.930 . S
C902 C903 1.355 . S
C902 C904 1.415 . S
C903 C902 1.355 . S
C903 C905 1.419 . S
C904 C902 1.415 . S
C904 C909 1.425 . S
C904 C911 1.409 . S
C905 H897 0.930 . S
C905 C903 1.419 . S
C905 C906 1.362 . S
C906 H898 0.930 . S
C906 C905 1.362 . S
C906 C909 1.409 . S
C907 H899 0.930 . S
C907 C908 1.355 . S
C907 C909 1.415 . S
C908 C907 1.355 . S
C908 C910 1.419 . S
C909 C904 1.425 . S
C909 C906 1.409 . S
C909 C907 1.415 . S
C910 H900 0.930 . S
C910 C908 1.419 . S
C910 C911 1.362 . S
C911 H901 0.930 . S
C911 C904 1.409 . S
C911 C910 1.362 . S
H912 C918 0.930 . S
H913 C921 0.930 . S
H914 C922 0.930 . S
H915 C923 0.930 . S
H916 C926 0.930 . S
H917 C927 0.930 . S
C918 H912 0.930 . S
C918 C919 1.355 . S
C918 C920 1.415 . S
C919 C918 1.355 . S
C919 C921 1.419 . S
C920 C918 1.415 . S
C920 C925 1.425 . S
C920 C927 1.409 . S
C921 H913 0.930 . S
C921 C919 1.419 . S
C921 C922 1.362 . S
C922 H914 0.930 . S
C922 C921 1.362 . S
C922 C925 1.409 . S
C923 H915 0.930 . S
C923 C924 1.355 . S
C923 C925 1.415 . S
C924 C923 1.355 . S
C924 C926 1.419 . S
C925 C920 1.425 . S
C925 C922 1.409 . S
C925 C923 1.415 . S
C926 H916 0.930 . S
C926 C924 1.419 . S
C926 C927 1.362 . S
C927 H917 0.930 . S
C927 C920 1.409 . S
C927 C926 1.362 . S
H928 C934 0.930 . S
H929 C937 0.930 . S
H930 C938 0.930 . S
H931 C939 0.930 . S
H932 C942 0.930 1_554 S
H933 C943 0.930 . S
C934 H928 0.930 . S
C934 C935 1.355 . S
C934 C936 1.415 . S
C935 C934 1.355 . S
C935 C937 1.419 . S
C936 C934 1.415 . S
C936 C941 1.425 . S
C936 C943 1.409 . S
C937 H929 0.930 . S
C937 C935 1.419 . S
C937 C938 1.362 . S
C938 H930 0.930 . S
C938 C937 1.362 . S
C938 C941 1.409 . S
C939 H931 0.930 . S
C939 C940 1.355 . S
C939 C941 1.415 . S
C940 C939 1.355 . S
C940 C942 1.419 . S
C941 C936 1.425 . S
C941 C938 1.409 . S
C941 C939 1.415 . S
C942 H932 0.930 1_556 S
C942 C940 1.419 . S
C942 C943 1.362 . S
C943 H933 0.930 . S
C943 C936 1.409 . S
C943 C942 1.362 . S
H944 C950 0.930 . S
H945 C953 0.930 . S
H946 C954 0.930 . S
H947 C955 0.930 . S
H948 C958 0.930 . S
H949 C959 0.930 . S
C950 H944 0.930 . S
C950 C951 1.355 . S
C950 C952 1.415 . S
C951 C950 1.355 . S
C951 C953 1.419 . S
C952 C950 1.415 . S
C952 C957 1.425 . S
C952 C959 1.409 . S
C953 H945 0.930 . S
C953 C951 1.419 . S
C953 C954 1.362 . S
C954 H946 0.930 . S
C954 C953 1.362 . S
C954 C957 1.409 . S
C955 H947 0.930 . S
C955 C956 1.355 . S
C955 C957 1.415 . S
C956 C955 1.355 . S
C956 C958 1.419 . S
C957 C952 1.425 . S
C957 C954 1.409 . S
C957 C955 1.415 . S
C958 H948 0.930 . S
C958 C956 1.419 . S
C958 C959 1.362 . S
C959 H949 0.930 . S
C959 C952 1.409 . S
C959 C958 1.362 . S
H960 C966 0.930 . S
H961 C969 0.930 . S
H962 C970 0.930 . S
H963 C971 0.930 . S
H964 C974 0.930 . S
H965 C975 0.930 1_556 S
C966 H960 0.930 . S
C966 C967 1.355 . S
C966 C968 1.415 . S
C967 C966 1.355 . S
C967 C969 1.419 . S
C968 C966 1.415 . S
C968 C973 1.425 . S
C968 C975 1.409 . S
C969 H961 0.930 . S
C969 C967 1.419 . S
C969 C970 1.362 . S
C970 H962 0.930 . S
C970 C969 1.362 . S
C970 C973 1.409 . S
C971 H963 0.930 . S
C971 C972 1.355 1_554 S
C971 C973 1.415 . S
C972 C971 1.355 1_556 S
C972 C974 1.419 . S
C973 C968 1.425 . S
C973 C970 1.409 . S
C973 C971 1.415 . S
C974 H964 0.930 . S
C974 C972 1.419 . S
C974 C975 1.362 1_556 S
C975 H965 0.930 1_554 S
C975 C968 1.409 . S
C975 C974 1.362 1_554 S
H976 C982 0.930 . S
H977 C985 0.930 . S
H978 C986 0.930 . S
H979 C987 0.930 . S
H980 C990 0.930 . S
H981 C991 0.930 . S
C982 H976 0.930 . S
C982 C983 1.355 . S
C982 C984 1.367 1_655 S
C983 C982 1.355 . S
C983 C985 1.419 . S
C984 C982 1.367 1_455 S
C984 C989 1.424 . S
C984 C991 1.461 . S
C985 H977 0.930 . S
C985 C983 1.419 . S
C985 C986 1.362 . S
C986 H978 0.930 . S
C986 C985 1.362 . S
C986 C989 1.400 1_655 S
C987 H979 0.930 . S
C987 C988 1.355 . S
C987 C989 1.423 . S
C988 C987 1.355 . S
C988 C990 1.419 . S
C989 C984 1.424 . S
C989 C986 1.400 1_455 S
C989 C987 1.423 . S
C990 H980 0.930 . S
C990 C988 1.419 . S
C990 C991 1.362 . S
C991 H981 0.930 . S
C991 C984 1.461 . S
C991 C990 1.362 . S
H992 C998 0.930 . S
H993 C1001 0.930 . S
H994 C1002 0.930 . S
H995 C1003 0.930 . S
H996 C1006 0.930 . S
H997 C1007 0.930 . S
C998 H992 0.930 . S
C998 C999 1.355 . S
C998 C1000 1.415 . S
C999 C998 1.355 . S
C999 C1001 1.419 . S
C1000 C998 1.415 . S
C1000 C1005 1.425 . S
C1000 C1007 1.409 . S
C1001 H993 0.930 . S
C1001 C999 1.419 . S
C1001 C1002 1.362 . S
C1002 H994 0.930 . S
C1002 C1001 1.362 . S
C1002 C1005 1.409 . S
C1003 H995 0.930 . S
C1003 C1004 1.355 . S
C1003 C1005 1.415 . S
C1004 C1003 1.355 . S
C1004 C1006 1.419 . S
C1005 C1000 1.425 . S
C1005 C1002 1.409 . S
C1005 C1003 1.415 . S
C1006 H996 0.930 . S
C1006 C1004 1.419 . S
C1006 C1007 1.362 . S
C1007 H997 0.930 . S
C1007 C1000 1.409 . S
C1007 C1006 1.362 . S
H1008 C1014 0.930 . S
H1009 C1017 0.930 . S
H1010 C1018 0.930 . S
H1011 C1019 0.930 . S
H1012 C1022 0.930 . S
H1013 C1023 0.930 . S
C1014 H1008 0.930 . S
C1014 C1015 1.355 . S
C1014 C1016 1.415 . S
C1015 C1014 1.355 . S
C1015 C1017 1.419 . S
C1016 C1014 1.415 . S
C1016 C1021 1.425 . S
C1016 C1023 1.409 . S
C1017 H1009 0.930 . S
C1017 C1015 1.419 . S
C1017 C1018 1.362 . S
C1018 H1010 0.930 . S
C1018 C1017 1.362 . S
C1018 C1021 1.409 . S
C1019 H1011 0.930 . S
C1019 C1020 1.355 . S
C1019 C1021 1.415 . S
C1020 C1019 1.355 . S
C1020 C1022 1.419 . S
C1021 C1016 1.425 . S
C1021 C1018 1.409 . S
C1021 C1019 1.415 . S
C1022 H1012 0.930 . S
C1022 C1020 1.419 . S
C1022 C1023 1.362 . S
C1023 H1013 0.930 . S
C1023 C1016 1.409 . S
C1023 C1022 1.362 . S
H1024 C1030 0.930 . S
H1025 C1033 0.930 . S
H1026 C1034 0.930 . S
H1027 C1035 0.930 . S
H1028 C1038 0.930 . S
H1029 C1039 0.930 . S
C1030 H1024 0.930 . S
C1030 C1031 1.355 . S
C1030 C1032 1.415 . S
C1031 C1030 1.355 . S
C1031 C1033 1.419 . S
C1032 C1030 1.415 . S
C1032 C1037 1.425 . S
C1032 C1039 1.409 . S
C1033 H1025 0.930 . S
C1033 C1031 1.419 . S
C1033 C1034 1.362 . S
C1034 H1026 0.930 . S
C1034 C1033 1.362 . S
C1034 C1037 1.409 . S
C1035 H1027 0.930 . S
C1035 C1036 1.355 . S
C1035 C1037 1.415 . S
C1036 C1035 1.355 . S
C1036 C1038 1.419 . S
C1037 C1032 1.425 . S
C1037 C1034 1.409 . S
C1037 C1035 1.415 . S
C1038 H1028 0.930 . S
C1038 C1036 1.419 . S
C1038 C1039 1.362 . S
C1039 H1029 0.930 . S
C1039 C1032 1.409 . S
C1039 C1038 1.362 . S
H1040 C1046 0.930 . S
H1041 C1049 0.930 . S
H1042 C1050 0.930 . S
H1043 C1051 0.930 . S
H1044 C1054 0.930 . S
H1045 C1055 0.930 . S
C1046 H1040 0.930 . S
C1046 C1047 1.355 . S
C1046 C1048 1.415 . S
C1047 C1046 1.355 . S
C1047 C1049 1.419 . S
C1048 C1046 1.415 . S
C1048 C1053 1.425 . S
C1048 C1055 1.409 . S
C1049 H1041 0.930 . S
C1049 C1047 1.419 . S
C1049 C1050 1.362 . S
C1050 H1042 0.930 . S
C1050 C1049 1.362 . S
C1050 C1053 1.409 . S
C1051 H1043 0.930 . S
C1051 C1052 1.355 . S
C1051 C1053 1.415 . S
C1052 C1051 1.355 . S
C1052 C1054 1.419 . S
C1053 C1048 1.425 . S
C1053 C1050 1.409 . S
C1053 C1051 1.415 . S
C1054 H1044 0.930 . S
C1054 C1052 1.419 . S
C1054 C1055 1.362 . S
C1055 H1045 0.930 . S
C1055 C1048 1.409 . S
C1055 C1054 1.362 . S
H1056 C1062 0.930 . S
H1057 C1065 0.930 . S
H1058 C1066 0.930 . S
H1059 C1067 0.930 . S
H1060 C1070 0.930 . S
H1061 C1071 0.930 . S
C1062 H1056 0.930 . S
C1062 C1063 1.355 . S
C1062 C1064 1.415 . S
C1063 C1062 1.355 . S
C1063 C1065 1.419 . S
C1064 C1062 1.415 . S
C1064 C1069 1.425 . S
C1064 C1071 1.409 . S
C1065 H1057 0.930 . S
C1065 C1063 1.419 . S
C1065 C1066 1.362 . S
C1066 H1058 0.930 . S
C1066 C1065 1.362 . S
C1066 C1069 1.409 . S
C1067 H1059 0.930 . S
C1067 C1068 1.355 . S
C1067 C1069 1.415 1_554 S
C1068 C1067 1.355 . S
C1068 C1070 1.419 1_554 S
C1069 C1064 1.425 . S
C1069 C1066 1.409 . S
C1069 C1067 1.415 1_556 S
C1070 H1060 0.930 . S
C1070 C1068 1.419 1_556 S
C1070 C1071 1.362 . S
C1071 H1061 0.930 . S
C1071 C1064 1.409 . S
C1071 C1070 1.362 . S
H1072 C1078 0.930 . S
H1073 C1081 0.930 . S
H1074 C1082 0.909 1_655 S
H1075 C1083 0.930 . S
H1076 C1086 0.930 . S
H1077 C1087 0.930 1_455 S
C1078 H1072 0.930 . S
C1078 C1079 1.355 . S
C1078 C1080 1.415 . S
C1079 C1078 1.355 . S
C1079 C1081 1.419 . S
C1080 C1078 1.415 . S
C1080 C1085 1.425 1_455 S
C1080 C1087 1.409 1_455 S
C1081 H1073 0.930 . S
C1081 C1079 1.419 . S
C1081 C1082 1.362 . S
C1082 H1074 0.909 1_455 S
C1082 C1081 1.362 . S
C1082 C1085 1.409 1_455 S
C1083 H1075 0.930 . S
C1083 C1084 1.355 . S
C1083 C1085 1.415 . S
C1084 C1083 1.355 . S
C1084 C1086 1.419 . S
C1085 C1080 1.425 1_655 S
C1085 C1082 1.409 1_655 S
C1085 C1083 1.415 . S
C1086 H1076 0.930 . S
C1086 C1084 1.419 . S
C1086 C1087 1.362 . S
C1087 H1077 0.930 1_655 S
C1087 C1080 1.409 1_655 S
C1087 C1086 1.362 . S
H1088 C1094 0.930 . S
H1089 C1097 0.930 . S
H1090 C1098 0.930 . S
H1091 C1099 0.930 . S
H1092 C1102 0.930 . S
H1093 C1103 0.930 . S
C1094 H1088 0.930 . S
C1094 C1095 1.355 . S
C1094 C1096 1.415 . S
C1095 C1094 1.355 . S
C1095 C1097 1.419 . S
C1096 C1094 1.415 . S
C1096 C1101 1.425 . S
C1096 C1103 1.409 . S
C1097 H1089 0.930 . S
C1097 C1095 1.419 . S
C1097 C1098 1.362 . S
C1098 H1090 0.930 . S
C1098 C1097 1.362 . S
C1098 C1101 1.409 . S
C1099 H1091 0.930 . S
C1099 C1100 1.355 . S
C1099 C1101 1.415 1_554 S
C1100 C1099 1.355 . S
C1100 C1102 1.419 1_554 S
C1101 C1096 1.425 . S
C1101 C1098 1.409 . S
C1101 C1099 1.415 1_556 S
C1102 H1092 0.930 . S
C1102 C1100 1.419 1_556 S
C1102 C1103 1.362 . S
C1103 H1093 0.930 . S
C1103 C1096 1.409 . S
C1103 C1102 1.362 . S
H1104 C1110 0.930 . S
H1105 C1113 0.930 . S
H1106 C1114 0.930 . S
H1107 C1115 0.930 . S
H1108 C1118 0.930 . S
H1109 C1119 0.930 . S
C1110 H1104 0.930 . S
C1110 C1111 1.355 . S
C1110 C1112 1.415 1_455 S
C1111 C1110 1.355 . S
C1111 C1113 1.419 . S
C1112 C1110 1.415 1_655 S
C1112 C1117 1.425 1_655 S
C1112 C1119 1.409 . S
C1113 H1105 0.930 . S
C1113 C1111 1.419 . S
C1113 C1114 1.362 . S
C1114 H1106 0.930 . S
C1114 C1113 1.362 . S
C1114 C1117 1.409 . S
C1115 H1107 0.930 . S
C1115 C1116 1.355 . S
C1115 C1117 1.415 1_655 S
C1116 C1115 1.355 . S
C1116 C1118 1.419 . S
C1117 C1112 1.425 1_455 S
C1117 C1114 1.409 . S
C1117 C1115 1.415 1_455 S
C1118 H1108 0.930 . S
C1118 C1116 1.419 . S
C1118 C1119 1.362 . S
C1119 H1109 0.930 . S
C1119 C1112 1.409 . S
C1119 C1118 1.362 . S
H1120 C1126 0.930 . S
H1121 C1129 0.930 . S
H1122 C1130 0.930 . S
H1123 C1131 0.930 . S
H1124 C1134 0.930 . S
H1125 C1135 0.930 . S
C1126 H1120 0.930 . S
C1126 C1127 1.355 . S
C1126 C1128 1.415 . S
C1127 C1126 1.355 . S
C1127 C1129 1.419 . S
C1128 C1126 1.415 . S
C1128 C1133 1.425 . S
C1128 C1135 1.409 . S
C1129 H1121 0.930 . S
C1129 C1127 1.419 . S
C1129 C1130 1.362 . S
C1130 H1122 0.930 . S
C1130 C1129 1.362 . S
C1130 C1133 1.409 . S
C1131 H1123 0.930 . S
C1131 C1132 1.355 . S
C1131 C1133 1.415 . S
C1132 C1131 1.355 . S
C1132 C1134 1.419 . S
C1133 C1128 1.425 . S
C1133 C1130 1.409 . S
C1133 C1131 1.415 . S
C1134 H1124 0.930 . S
C1134 C1132 1.419 . S
C1134 C1135 1.362 . S
C1135 H1125 0.930 . S
C1135 C1128 1.409 . S
C1135 C1134 1.362 . S
H1136 C1142 0.930 . S
H1137 C1145 0.930 . S
H1138 C1146 0.930 . S
H1139 C1147 0.930 . S
H1140 C1150 0.930 . S
H1141 C1151 0.930 . S
C1142 H1136 0.930 . S
C1142 C1143 1.355 . S
C1142 C1144 1.415 . S
C1143 C1142 1.355 . S
C1143 C1145 1.419 . S
C1144 C1142 1.415 . S
C1144 C1149 1.425 . S
C1144 C1151 1.409 . S
C1145 H1137 0.930 . S
C1145 C1143 1.419 . S
C1145 C1146 1.362 . S
C1146 H1138 0.930 . S
C1146 C1145 1.362 . S
C1146 C1149 1.409 . S
C1147 H1139 0.930 . S
C1147 C1148 1.355 . S
C1147 C1149 1.415 . S
C1148 C1147 1.355 . S
C1148 C1150 1.419 . S
C1149 C1144 1.425 . S
C1149 C1146 1.409 . S
C1149 C1147 1.415 . S
C1150 H1140 0.930 . S
C1150 C1148 1.419 . S
C1150 C1151 1.362 . S
C1151 H1141 0.930 . S
C1151 C1144 1.409 . S
C1151 C1150 1.362 . S
H1152 C1158 0.930 . S
H1153 C1161 0.930 . S
H1154 C1162 0.930 . S
H1155 C1163 0.930 . S
H1156 C1166 0.930 . S
H1157 C1167 0.930 . S
C1158 H1152 0.930 . S
C1158 C1159 1.355 . S
C1158 C1160 1.415 . S
C1159 C1158 1.355 . S
C1159 C1161 1.419 . S
C1160 C1158 1.415 . S
C1160 C1165 1.425 . S
C1160 C1167 1.409 . S
C1161 H1153 0.930 . S
C1161 C1159 1.419 . S
C1161 C1162 1.362 . S
C1162 H1154 0.930 . S
C1162 C1161 1.362 . S
C1162 C1165 1.409 . S
C1163 H1155 0.930 . S
C1163 C1164 1.355 . S
C1163 C1165 1.415 . S
C1164 C1163 1.355 . S
C1164 C1166 1.419 . S
C1165 C1160 1.425 . S
C1165 C1162 1.409 . S
C1165 C1163 1.415 . S
C1166 H1156 0.930 . S
C1166 C1164 1.419 . S
C1166 C1167 1.362 . S
C1167 H1157 0.930 . S
C1167 C1160 1.409 . S
C1167 C1166 1.362 . S
H1168 C1174 0.930 . S
H1169 C1177 0.930 . S
H1170 C1178 0.930 . S
H1171 C1179 0.930 . S
H1172 C1182 0.930 . S
H1173 C1183 0.930 . S
C1174 H1168 0.930 . S
C1174 C1175 1.355 . S
C1174 C1176 1.415 . S
C1175 C1174 1.355 . S
C1175 C1177 1.419 . S
C1176 C1174 1.415 . S
C1176 C1181 1.425 . S
C1176 C1183 1.409 . S
C1177 H1169 0.930 . S
C1177 C1175 1.419 . S
C1177 C1178 1.362 . S
C1178 H1170 0.930 . S
C1178 C1177 1.362 . S
C1178 C1181 1.409 . S
C1179 H1171 0.930 . S
C1179 C1180 1.355 . S
C1179 C1181 1.415 . S
C1180 C1179 1.355 . S
C1180 C1182 1.419 . S
C1181 C1176 1.425 . S
C1181 C1178 1.409 . S
C1181 C1179 1.415 . S
C1182 H1172 0.930 . S
C1182 C1180 1.419 . S
C1182 C1183 1.362 . S
C1183 H1173 0.930 . S
C1183 C1176 1.409 . S
C1183 C1182 1.362 . S
H1184 C1190 0.930 . S
H1185 C1193 0.930 . S
H1186 C1194 0.930 . S
H1187 C1195 0.930 . S
H1188 C1198 0.930 . S
H1189 C1199 0.930 . S
C1190 H1184 0.930 . S
C1190 C1191 1.355 . S
C1190 C1192 1.415 . S
C1191 C1190 1.355 . S
C1191 C1193 1.419 . S
C1192 C1190 1.415 . S
C1192 C1197 1.425 . S
C1192 C1199 1.409 . S
C1193 H1185 0.930 . S
C1193 C1191 1.419 . S
C1193 C1194 1.362 . S
C1194 H1186 0.930 . S
C1194 C1193 1.362 . S
C1194 C1197 1.409 . S
C1195 H1187 0.930 . S
C1195 C1196 1.355 . S
C1195 C1197 1.415 1_556 S
C1196 C1195 1.355 . S
C1196 C1198 1.419 1_556 S
C1197 C1192 1.425 . S
C1197 C1194 1.409 . S
C1197 C1195 1.415 1_554 S
C1198 H1188 0.930 . S
C1198 C1196 1.419 1_554 S
C1198 C1199 1.362 . S
C1199 H1189 0.930 . S
C1199 C1192 1.409 . S
C1199 C1198 1.362 . S
H1200 C1206 0.930 . S
H1201 C1209 0.930 . S
H1202 C1210 0.930 . S
H1203 C1211 0.930 . S
H1204 C1214 0.930 . S
H1205 C1215 0.930 . S
C1206 H1200 0.930 . S
C1206 C1207 1.355 . S
C1206 C1208 1.415 1_455 S
C1207 C1206 1.355 . S
C1207 C1209 1.419 . S
C1208 C1206 1.415 1_655 S
C1208 C1213 1.425 1_655 S
C1208 C1215 1.409 . S
C1209 H1201 0.930 . S
C1209 C1207 1.419 . S
C1209 C1210 1.362 . S
C1210 H1202 0.930 . S
C1210 C1209 1.362 . S
C1210 C1213 1.409 . S
C1211 H1203 0.930 . S
C1211 C1212 1.355 . S
C1211 C1213 1.415 1_655 S
C1212 C1211 1.355 . S
C1212 C1214 1.419 . S
C1213 C1208 1.425 1_455 S
C1213 C1210 1.409 . S
C1213 C1211 1.415 1_455 S
C1214 H1204 0.930 . S
C1214 C1212 1.419 . S
C1214 C1215 1.362 . S
C1215 H1205 0.930 . S
C1215 C1208 1.409 . S
C1215 C1214 1.362 . S
H1216 C1222 0.930 . S
H1217 C1225 0.930 . S
H1218 C1226 0.930 . S
H1219 C1227 0.930 . S
H1220 C1230 0.930 . S
H1221 C1231 0.930 . S
C1222 H1216 0.930 . S
C1222 C1223 1.355 . S
C1222 C1224 1.415 . S
C1223 C1222 1.355 . S
C1223 C1225 1.419 . S
C1224 C1222 1.415 . S
C1224 C1229 1.425 . S
C1224 C1231 1.409 . S
C1225 H1217 0.930 . S
C1225 C1223 1.419 . S
C1225 C1226 1.362 . S
C1226 H1218 0.930 . S
C1226 C1225 1.362 . S
C1226 C1229 1.409 . S
C1227 H1219 0.930 . S
C1227 C1228 1.355 . S
C1227 C1229 1.415 . S
C1228 C1227 1.355 . S
C1228 C1230 1.419 . S
C1229 C1224 1.425 . S
C1229 C1226 1.409 . S
C1229 C1227 1.415 . S
C1230 H1220 0.930 . S
C1230 C1228 1.419 . S
C1230 C1231 1.362 . S
C1231 H1221 0.930 . S
C1231 C1224 1.409 . S
C1231 C1230 1.362 . S
H1232 C1238 0.930 . S
H1233 C1241 0.930 . S
H1234 C1242 0.930 . S
H1235 C1243 0.930 . S
H1236 C1246 0.930 1_554 S
H1237 C1247 0.930 . S
C1238 H1232 0.930 . S
C1238 C1239 1.355 . S
C1238 C1240 1.415 . S
C1239 C1238 1.355 . S
C1239 C1241 1.419 . S
C1240 C1238 1.415 . S
C1240 C1245 1.425 . S
C1240 C1247 1.409 . S
C1241 H1233 0.930 . S
C1241 C1239 1.419 . S
C1241 C1242 1.362 . S
C1242 H1234 0.930 . S
C1242 C1241 1.362 . S
C1242 C1245 1.409 . S
C1243 H1235 0.930 . S
C1243 C1244 1.355 . S
C1243 C1245 1.415 . S
C1244 C1243 1.355 . S
C1244 C1246 1.419 . S
C1245 C1240 1.425 . S
C1245 C1242 1.409 . S
C1245 C1243 1.415 . S
C1246 H1236 0.930 1_556 S
C1246 C1244 1.419 . S
C1246 C1247 1.362 . S
C1247 H1237 0.930 . S
C1247 C1240 1.409 . S
C1247 C1246 1.362 . S
H1248 C1254 0.930 . S
H1249 C1257 0.930 . S
H1250 C1258 0.930 . S
H1251 C1259 0.930 . S
H1252 C1262 0.930 . S
H1253 C1263 0.930 . S
C1254 H1248 0.930 . S
C1254 C1255 1.355 . S
C1254 C1256 1.415 . S
C1255 C1254 1.355 . S
C1255 C1257 1.419 . S
C1256 C1254 1.415 . S
C1256 C1261 1.425 . S
C1256 C1263 1.409 1_554 S
C1257 H1249 0.930 . S
C1257 C1255 1.419 . S
C1257 C1258 1.362 . S
C1258 H1250 0.930 . S
C1258 C1257 1.362 . S
C1258 C1261 1.409 . S
C1259 H1251 0.930 . S
C1259 C1260 1.355 1_554 S
C1259 C1261 1.415 . S
C1260 C1259 1.355 1_556 S
C1260 C1262 1.419 . S
C1261 C1256 1.425 . S
C1261 C1258 1.409 . S
C1261 C1259 1.415 . S
C1262 H1252 0.930 . S
C1262 C1260 1.419 . S
C1262 C1263 1.362 . S
C1263 H1253 0.930 . S
C1263 C1256 1.409 1_556 S
C1263 C1262 1.362 . S
H1264 C1270 0.930 . S
H1265 C1273 0.930 . S
H1266 C1274 0.930 . S
H1267 C1275 0.930 . S
H1268 C1278 0.930 . S
H1269 C1279 0.930 . S
C1270 H1264 0.930 . S
C1270 C1271 1.355 . S
C1270 C1272 1.415 . S
C1271 C1270 1.355 . S
C1271 C1273 1.419 . S
C1272 C1270 1.415 . S
C1272 C1277 1.425 1_655 S
C1272 C1279 1.409 . S
C1273 H1265 0.930 . S
C1273 C1271 1.419 . S
C1273 C1274 1.362 1_655 S
C1274 H1266 0.930 . S
C1274 C1273 1.362 1_455 S
C1274 C1277 1.409 . S
C1275 H1267 0.930 . S
C1275 C1276 1.355 . S
C1275 C1277 1.415 . S
C1276 C1275 1.355 . S
C1276 C1278 1.419 . S
C1277 C1272 1.425 1_455 S
C1277 C1274 1.409 . S
C1277 C1275 1.415 . S
C1278 H1268 0.930 . S
C1278 C1276 1.419 . S
C1278 C1279 1.362 1_455 S
C1279 H1269 0.930 . S
C1279 C1272 1.409 . S
C1279 C1278 1.362 1_655 S
H1280 C1286 0.930 . S
H1281 C1289 0.930 . S
H1282 C1290 0.930 . S
H1283 C1291 0.927 1_554 S
H1284 C1294 0.930 . S
H1285 C1295 0.930 . S
C1286 H1280 0.930 . S
C1286 C1287 1.355 . S
C1286 C1288 1.415 . S
C1287 C1286 1.355 . S
C1287 C1289 1.419 . S
C1288 C1286 1.415 . S
C1288 C1293 1.425 . S
C1288 C1295 1.409 . S
C1289 H1281 0.930 . S
C1289 C1287 1.419 . S
C1289 C1290 1.362 . S
C1290 H1282 0.930 . S
C1290 C1289 1.362 . S
C1290 C1293 1.409 . S
C1291 H1283 0.927 1_556 S
C1291 C1292 1.354 1_556 S
C1291 C1293 1.418 . S
C1292 C1291 1.354 1_554 S
C1292 C1294 1.419 1_554 S
C1293 C1288 1.425 . S
C1293 C1290 1.409 . S
C1293 C1291 1.418 . S
C1294 H1284 0.930 . S
C1294 C1292 1.419 1_556 S
C1294 C1295 1.362 . S
C1295 H1285 0.930 . S
C1295 C1288 1.409 . S
C1295 C1294 1.362 . S
H1296 C1302 0.930 . S
H1297 C1305 0.930 . S
H1298 C1306 0.930 1_455 S
H1299 C1307 0.930 . S
H1300 C1310 0.930 . S
H1301 C1311 0.918 1_655 S
C1302 H1296 0.930 . S
C1302 C1303 1.355 . S
C1302 C1304 1.415 . S
C1303 C1302 1.355 . S
C1303 C1305 1.419 . S
C1304 C1302 1.415 . S
C1304 C1309 1.425 1_655 S
C1304 C1311 1.401 1_655 S
C1305 H1297 0.930 . S
C1305 C1303 1.419 . S
C1305 C1306 1.362 . S
C1306 H1298 0.930 1_655 S
C1306 C1305 1.362 . S
C1306 C1309 1.409 1_655 S
C1307 H1299 0.930 . S
C1307 C1308 1.355 . S
C1307 C1309 1.415 . S
C1308 C1307 1.355 . S
C1308 C1310 1.419 . S
C1309 C1304 1.425 1_455 S
C1309 C1306 1.409 1_455 S
C1309 C1307 1.415 . S
C1310 H1300 0.930 . S
C1310 C1308 1.419 . S
C1310 C1311 1.383 . S
C1311 H1301 0.918 1_455 S
C1311 C1304 1.401 1_455 S
C1311 C1310 1.383 . S
H1312 C1318 0.930 . S
H1313 C1321 0.930 . S
H1314 C1322 0.930 . S
H1315 C1323 0.930 . S
H1316 C1326 0.930 . S
H1317 C1327 0.930 . S
C1318 H1312 0.930 . S
C1318 C1319 1.355 . S
C1318 C1320 1.415 . S
C1319 C1318 1.355 . S
C1319 C1321 1.419 . S
C1320 C1318 1.415 . S
C1320 C1325 1.425 . S
C1320 C1327 1.409 . S
C1321 H1313 0.930 . S
C1321 C1319 1.419 . S
C1321 C1322 1.362 . S
C1322 H1314 0.930 . S
C1322 C1321 1.362 . S
C1322 C1325 1.409 . S
C1323 H1315 0.930 . S
C1323 C1324 1.355 . S
C1323 C1325 1.415 . S
C1324 C1323 1.355 . S
C1324 C1326 1.419 . S
C1325 C1320 1.425 . S
C1325 C1322 1.409 . S
C1325 C1323 1.415 . S
C1326 H1316 0.930 . S
C1326 C1324 1.419 . S
C1326 C1327 1.362 . S
C1327 H1317 0.930 . S
C1327 C1320 1.409 . S
C1327 C1326 1.362 . S
H1328 C1334 0.930 . S
H1329 C1337 0.930 . S
H1330 C1338 0.930 . S
H1331 C1339 0.930 . S
H1332 C1342 0.930 . S
H1333 C1343 0.930 . S
C1334 H1328 0.930 . S
C1334 C1335 1.355 . S
C1334 C1336 1.415 . S
C1335 C1334 1.355 . S
C1335 C1337 1.419 . S
C1336 C1334 1.415 . S
C1336 C1341 1.425 . S
C1336 C1343 1.409 . S
C1337 H1329 0.930 . S
C1337 C1335 1.419 . S
C1337 C1338 1.362 . S
C1338 H1330 0.930 . S
C1338 C1337 1.362 . S
C1338 C1341 1.409 . S
C1339 H1331 0.930 . S
C1339 C1340 1.355 . S
C1339 C1341 1.415 . S
C1340 C1339 1.355 . S
C1340 C1342 1.419 . S
C1341 C1336 1.425 . S
C1341 C1338 1.409 . S
C1341 C1339 1.415 . S
C1342 H1332 0.930 . S
C1342 C1340 1.419 . S
C1342 C1343 1.362 . S
C1343 H1333 0.930 . S
C1343 C1336 1.409 . S
C1343 C1342 1.362 . S
H1344 C1350 0.930 . S
H1345 C1353 0.930 . S
H1346 C1354 0.930 . S
H1347 C1355 0.930 . S
H1348 C1358 0.930 . S
H1349 C1359 0.930 . S
C1350 H1344 0.930 . S
C1350 C1351 1.355 . S
C1350 C1352 1.415 . S
C1351 C1350 1.355 . S
C1351 C1353 1.419 . S
C1352 C1350 1.415 . S
C1352 C1357 1.425 . S
C1352 C1359 1.409 . S
C1353 H1345 0.930 . S
C1353 C1351 1.419 . S
C1353 C1354 1.362 . S
C1354 H1346 0.930 . S
C1354 C1353 1.362 . S
C1354 C1357 1.409 . S
C1355 H1347 0.930 . S
C1355 C1356 1.355 . S
C1355 C1357 1.415 . S
C1356 C1355 1.355 . S
C1356 C1358 1.419 . S
C1357 C1352 1.425 . S
C1357 C1354 1.409 . S
C1357 C1355 1.415 . S
C1358 H1348 0.930 . S
C1358 C1356 1.419 . S
C1358 C1359 1.362 . S
C1359 H1349 0.930 . S
C1359 C1352 1.409 . S
C1359 C1358 1.362 . S
H1360 C1366 0.930 . S
H1361 C1369 0.930 . S
H1362 C1370 0.930 . S
H1363 C1371 0.930 . S
H1364 C1374 0.930 1_556 S
H1365 C1375 0.930 . S
C1366 H1360 0.930 . S
C1366 C1367 1.355 . S
C1366 C1368 1.415 . S
C1367 C1366 1.355 . S
C1367 C1369 1.419 . S
C1368 C1366 1.415 . S
C1368 C1373 1.425 . S
C1368 C1375 1.409 . S
C1369 H1361 0.930 . S
C1369 C1367 1.419 . S
C1369 C1370 1.362 . S
C1370 H1362 0.930 . S
C1370 C1369 1.362 . S
C1370 C1373 1.409 . S
C1371 H1363 0.930 . S
C1371 C1372 1.355 . S
C1371 C1373 1.415 . S
C1372 C1371 1.355 . S
C1372 C1374 1.419 . S
C1373 C1368 1.425 . S
C1373 C1370 1.409 . S
C1373 C1371 1.415 . S
C1374 H1364 0.930 1_554 S
C1374 C1372 1.419 . S
C1374 C1375 1.362 . S
C1375 H1365 0.930 . S
C1375 C1368 1.409 . S
C1375 C1374 1.362 . S
H1376 C1382 0.930 . S
H1377 C1385 0.930 . S
H1378 C1386 0.930 . S
H1379 C1387 0.930 . S
H1380 C1390 0.930 . S
H1381 C1391 0.930 1_554 S
C1382 H1376 0.930 . S
C1382 C1383 1.355 . S
C1382 C1384 1.415 1_554 S
C1383 C1382 1.355 . S
C1383 C1385 1.419 1_554 S
C1384 C1382 1.415 1_556 S
C1384 C1389 1.425 . S
C1384 C1391 1.409 . S
C1385 H1377 0.930 . S
C1385 C1383 1.419 1_556 S
C1385 C1386 1.362 . S
C1386 H1378 0.930 . S
C1386 C1385 1.362 . S
C1386 C1389 1.409 . S
C1387 H1379 0.930 . S
C1387 C1388 1.355 . S
C1387 C1389 1.415 . S
C1388 C1387 1.355 . S
C1388 C1390 1.419 . S
C1389 C1384 1.425 . S
C1389 C1386 1.409 . S
C1389 C1387 1.415 . S
C1390 H1380 0.930 . S
C1390 C1388 1.419 . S
C1390 C1391 1.362 . S
C1391 H1381 0.930 1_556 S
C1391 C1384 1.409 . S
C1391 C1390 1.362 . S
H1392 C1398 0.930 . S
H1393 C1401 0.930 . S
H1394 C1402 0.930 . S
H1395 C1403 0.930 . S
H1396 C1406 0.930 . S
H1397 C1407 0.930 . S
C1398 H1392 0.930 . S
C1398 C1399 1.355 . S
C1398 C1400 1.415 . S
C1399 C1398 1.355 . S
C1399 C1401 1.419 . S
C1400 C1398 1.415 . S
C1400 C1405 1.426 . S
C1400 C1407 1.409 1_455 S
C1401 H1393 0.930 . S
C1401 C1399 1.419 . S
C1401 C1402 1.362 . S
C1402 H1394 0.930 . S
C1402 C1401 1.362 . S
C1402 C1405 1.413 . S
C1403 H1395 0.930 . S
C1403 C1404 1.355 . S
C1403 C1405 1.411 1_655 S
C1404 C1403 1.355 . S
C1404 C1406 1.419 . S
C1405 C1400 1.426 . S
C1405 C1402 1.413 . S
C1405 C1403 1.411 1_455 S
C1406 H1396 0.930 . S
C1406 C1404 1.419 . S
C1406 C1407 1.362 . S
C1407 H1397 0.930 . S
C1407 C1400 1.409 1_655 S
C1407 C1406 1.362 . S
H1408 C1414 0.930 . S
H1409 C1417 0.930 . S
H1410 C1418 0.930 . S
H1411 C1419 0.930 1_556 S
H1412 C1422 0.930 . S
H1413 C1423 0.930 . S
C1414 H1408 0.930 . S
C1414 C1415 1.355 . S
C1414 C1416 1.415 . S
C1415 C1414 1.355 . S
C1415 C1417 1.419 . S
C1416 C1414 1.415 . S
C1416 C1421 1.425 . S
C1416 C1423 1.409 . S
C1417 H1409 0.930 . S
C1417 C1415 1.419 . S
C1417 C1418 1.362 . S
C1418 H1410 0.930 . S
C1418 C1417 1.362 . S
C1418 C1421 1.409 . S
C1419 H1411 0.930 1_554 S
C1419 C1420 1.355 1_554 S
C1419 C1421 1.415 . S
C1420 C1419 1.355 1_556 S
C1420 C1422 1.419 1_556 S
C1421 C1416 1.425 . S
C1421 C1418 1.409 . S
C1421 C1419 1.415 . S
C1422 H1412 0.930 . S
C1422 C1420 1.419 1_554 S
C1422 C1423 1.362 . S
C1423 H1413 0.930 . S
C1423 C1416 1.409 . S
C1423 C1422 1.362 . S
H1424 C1430 0.930 . S
H1425 C1433 0.930 . S
H1426 C1434 0.930 . S
H1427 C1435 0.930 . S
H1428 C1438 0.930 . S
H1429 C1439 0.930 . S
C1430 H1424 0.930 . S
C1430 C1431 1.355 . S
C1430 C1432 1.415 1_655 S
C1431 C1430 1.355 . S
C1431 C1433 1.419 . S
C1432 C1430 1.415 1_455 S
C1432 C1437 1.425 1_455 S
C1432 C1439 1.409 . S
C1433 H1425 0.930 . S
C1433 C1431 1.419 . S
C1433 C1434 1.362 . S
C1434 H1426 0.930 . S
C1434 C1433 1.362 . S
C1434 C1437 1.409 . S
C1435 H1427 0.930 . S
C1435 C1436 1.355 . S
C1435 C1437 1.415 1_455 S
C1436 C1435 1.355 . S
C1436 C1438 1.419 . S
C1437 C1432 1.425 1_655 S
C1437 C1434 1.409 . S
C1437 C1435 1.415 1_655 S
C1438 H1428 0.930 . S
C1438 C1436 1.419 . S
C1438 C1439 1.362 . S
C1439 H1429 0.930 . S
C1439 C1432 1.409 . S
C1439 C1438 1.362 . S
H1440 C1446 0.930 . S
H1441 C1449 0.930 . S
H1442 C1450 0.930 . S
H1443 C1451 0.930 . S
H1444 C1454 0.930 . S
H1445 C1455 0.930 . S
C1446 H1440 0.930 . S
C1446 C1447 1.355 . S
C1446 C1448 1.415 . S
C1447 C1446 1.355 . S
C1447 C1449 1.419 . S
C1448 C1446 1.415 . S
C1448 C1453 1.425 . S
C1448 C1455 1.409 . S
C1449 H1441 0.930 . S
C1449 C1447 1.419 . S
C1449 C1450 1.362 . S
C1450 H1442 0.930 . S
C1450 C1449 1.362 . S
C1450 C1453 1.409 . S
C1451 H1443 0.930 . S
C1451 C1452 1.355 . S
C1451 C1453 1.415 . S
C1452 C1451 1.355 . S
C1452 C1454 1.419 . S
C1453 C1448 1.425 . S
C1453 C1450 1.409 . S
C1453 C1451 1.415 . S
C1454 H1444 0.930 . S
C1454 C1452 1.419 . S
C1454 C1455 1.362 . S
C1455 H1445 0.930 . S
C1455 C1448 1.409 . S
C1455 C1454 1.362 . S
H1456 C1462 0.930 . S
H1457 C1465 0.930 . S
H1458 C1466 0.930 . S
H1459 C1467 0.930 . S
H1460 C1470 0.930 . S
H1461 C1471 0.930 . S
C1462 H1456 0.930 . S
C1462 C1463 1.355 . S
C1462 C1464 1.415 . S
C1463 C1462 1.355 . S
C1463 C1465 1.419 . S
C1464 C1462 1.415 . S
C1464 C1469 1.425 . S
C1464 C1471 1.409 . S
C1465 H1457 0.930 . S
C1465 C1463 1.419 . S
C1465 C1466 1.362 . S
C1466 H1458 0.930 . S
C1466 C1465 1.362 . S
C1466 C1469 1.409 . S
C1467 H1459 0.930 . S
C1467 C1468 1.355 . S
C1467 C1469 1.415 . S
C1468 C1467 1.355 . S
C1468 C1470 1.419 . S
C1469 C1464 1.425 . S
C1469 C1466 1.409 . S
C1469 C1467 1.415 . S
C1470 H1460 0.930 . S
C1470 C1468 1.419 . S
C1470 C1471 1.362 . S
C1471 H1461 0.930 . S
C1471 C1464 1.409 . S
C1471 C1470 1.362 . S
C455 C91 1.285 . S
C460 C7 1.271 . S
C471 C21 1.309 . S
C476 C105 1.336 . S
C487 C63 1.297 . S
C492 C35 1.261 . S
C503 C49 1.322 . S
C508 C77 1.248 . S
C519 C203 1.301 . S
C524 C119 1.259 . S
C535 C133 1.354 . S
C540 C217 1.263 . S
C551 C175 1.306 . S
C556 C147 1.338 . S
C567 C161 1.326 . S
C572 C189 1.321 . S
C583 C231 1.329 . S
C588 C315 1.246 . S
C599 C329 1.248 . S
C604 C245 1.321 . S
C615 C259 1.254 . S
C620 C287 1.309 . S
C631 C301 1.297 . S
C636 C273 1.262 . S
C647 C427 1.322 . S
C652 C343 1.325 . S
C663 C441 1.340 . S
C668 C357 1.246 . S
C679 C399 1.297 . S
C684 C371 1.262 . S
C695 C385 1.246 . S
C700 C413 1.329 . S
C711 C104 1.061 . S
C716 C6 1.111 . S
C727 C62 1.051 . S
C732 C20 1.133 . S
C743 C76 1.071 . S
C748 C34 1.101 . S
C759 C90 1.102 . S
C764 C48 1.070 . S
C775 C216 1.133 . S
C780 C118 1.051 . S
C791 C174 1.106 . S
C796 C132 1.086 . S
C807 C188 1.057 . S
C812 C146 1.130 . S
C823 C160 1.120 . S
C828 C202 1.071 . S
C839 C328 1.073 . S
C844 C230 1.118 . S
C855 C244 1.103 . S
C860 C286 1.090 . S
C871 C258 1.134 . S
C876 C300 1.048 . S
C887 C314 1.050 . S
C892 C272 1.134 . S
C903 C440 1.132 . S
C908 C342 1.046 . S
C919 C356 1.046 . S
C924 C398 1.134 . S
C935 C370 1.071 . S
C940 C412 1.120 . S
C951 C426 1.079 . S
C956 C384 1.113 . S
C967 C8 1.553 . S
C972 C429 1.529 . S
C983 C219 1.482 . S
C988 C22 1.539 . S
C999 C401 1.529 . S
C1004 C36 1.551 . S
C1015 C191 1.532 . S
C1020 C50 1.553 . S
C1031 C373 1.530 . S
C1036 C64 1.553 . S
C1047 C78 1.537 . S
C1052 C163 1.472 . S
C1063 C92 1.538 . S
C1068 C345 1.476 . S
C1079 C106 1.539 . S
C1084 C135 1.470 . S
C1095 C120 1.553 . S
C1100 C317 1.533 . S
C1111 C107 1.503 . S
C1116 C134 1.543 . S
C1127 C289 1.532 . S
C1132 C148 1.553 . S
C1143 C79 1.477 . S
C1148 C162 1.538 . S
C1159 C261 1.529 . S
C1164 C176 1.553 . S
C1175 C51 1.510 . S
C1180 C190 1.545 . S
C1191 C204 1.552 . S
C1196 C233 1.532 . S
C1207 C23 1.479 . S
C1212 C218 1.538 . S
C1223 C205 1.480 . S
C1228 C232 1.538 . S
C1239 C443 1.502 . S
C1244 C246 1.548 . S
C1255 C260 1.550 . S
C1260 C177 1.512 . S
C1271 C274 1.549 . S
C1276 C415 1.505 . S
C1287 C288 1.549 . S
C1292 C149 1.525 . S
C1303 C302 1.553 . S
C1308 C387 1.532 . S
C1319 C316 1.546 . S
C1324 C121 1.514 . S
C1335 C330 1.547 . S
C1340 C359 1.498 . S
C1351 C93 1.474 . S
C1356 C344 1.538 . S
C1367 C331 1.504 . S
C1372 C358 1.548 . S
C1383 C65 1.496 . S
C1388 C372 1.542 . S
C1399 C386 1.553 . S
C1404 C303 1.532 . S
C1415 C400 1.553 . S
C1420 C37 1.532 . S
C1431 C275 1.499 . S
C1436 C414 1.542 . S
C1447 C428 1.551 . S
C1452 C9 1.516 . S
C1463 C442 1.539 . S
C1468 C247 1.470 . S
