# Generated by pormake.
# Topology sog, (5)-cn, num edge types: 1
# Building blocks:
#     Node 0, Type 0, BuildingBlock: BEQFEK_clean_sbu_0, # of connection points: 5
#     Node 1, Type 0, BuildingBlock: BEQFEK_clean_sbu_0, # of connection points: 5
#     Node 2, Type 0, BuildingBlock: BEQFEK_clean_sbu_0, # of connection points: 5
#     Node 3, Type 0, BuildingBlock: BEQFEK_clean_sbu_0, # of connection points: 5
#     Node 4, Type 0, BuildingBlock: BEQFEK_clean_sbu_0, # of connection points: 5
#     Node 5, Type 0, BuildingBlock: BEQFEK_clean_sbu_0, # of connection points: 5
#     Node 6, Type 0, BuildingBlock: BEQFEK_clean_sbu_0, # of connection points: 5
#     Node 7, Type 0, BuildingBlock: BEQFEK_clean_sbu_0, # of connection points: 5
#     Node 8, Type 0, BuildingBlock: BEQFEK_clean_sbu_0, # of connection points: 5
#     Node 9, Type 0, BuildingBlock: BEQFEK_clean_sbu_0, # of connection points: 5
#     Node 10, Type 0, BuildingBlock: BEQFEK_clean_sbu_0, # of connection points: 5
#     Node 11, Type 0, BuildingBlock: BEQFEK_clean_sbu_0, # of connection points: 5
#     Node 12, Type 0, BuildingBlock: BEQFEK_clean_sbu_0, # of connection points: 5
#     Node 13, Type 0, BuildingBlock: BEQFEK_clean_sbu_0, # of connection points: 5
#     Node 14, Type 0, BuildingBlock: BEQFEK_clean_sbu_0, # of connection points: 5
#     Node 15, Type 0, BuildingBlock: BEQFEK_clean_sbu_0, # of connection points: 5
#     Node 16, Type 0, BuildingBlock: BEQFEK_clean_sbu_0, # of connection points: 5
#     Node 17, Type 0, BuildingBlock: BEQFEK_clean_sbu_0, # of connection points: 5
#     Node 18, Type 0, BuildingBlock: BEQFEK_clean_sbu_0, # of connection points: 5
#     Node 19, Type 0, BuildingBlock: BEQFEK_clean_sbu_0, # of connection points: 5
#     Node 20, Type 0, BuildingBlock: BEQFEK_clean_sbu_0, # of connection points: 5
#     Node 21, Type 0, BuildingBlock: BEQFEK_clean_sbu_0, # of connection points: 5
#     Node 22, Type 0, BuildingBlock: BEQFEK_clean_sbu_0, # of connection points: 5
#     Node 23, Type 0, BuildingBlock: BEQFEK_clean_sbu_0, # of connection points: 5
#     Node 24, Type 0, BuildingBlock: BEQFEK_clean_sbu_0, # of connection points: 5
#     Node 25, Type 0, BuildingBlock: BEQFEK_clean_sbu_0, # of connection points: 5
#     Node 26, Type 0, BuildingBlock: BEQFEK_clean_sbu_0, # of connection points: 5
#     Node 27, Type 0, BuildingBlock: BEQFEK_clean_sbu_0, # of connection points: 5
#     Node 28, Type 0, BuildingBlock: BEQFEK_clean_sbu_0, # of connection points: 5
#     Node 29, Type 0, BuildingBlock: BEQFEK_clean_sbu_0, # of connection points: 5
#     Node 30, Type 0, BuildingBlock: BEQFEK_clean_sbu_0, # of connection points: 5
#     Node 31, Type 0, BuildingBlock: BEQFEK_clean_sbu_0, # of connection points: 5
#     Edge 32, Type (0, 0), BuildingBlock: CIFDUS_clean_linker_0, # of connection points: 2
#     Edge 33, Type (0, 0), BuildingBlock: CIFDUS_clean_linker_0, # of connection points: 2
#     Edge 34, Type (0, 0), BuildingBlock: CIFDUS_clean_linker_0, # of connection points: 2
#     Edge 35, Type (0, 0), BuildingBlock: CIFDUS_clean_linker_0, # of connection points: 2
#     Edge 36, Type (0, 0), BuildingBlock: CIFDUS_clean_linker_0, # of connection points: 2
#     Edge 37, Type (0, 0), BuildingBlock: CIFDUS_clean_linker_0, # of connection points: 2
#     Edge 38, Type (0, 0), BuildingBlock: CIFDUS_clean_linker_0, # of connection points: 2
#     Edge 39, Type (0, 0), BuildingBlock: CIFDUS_clean_linker_0, # of connection points: 2
#     Edge 40, Type (0, 0), BuildingBlock: CIFDUS_clean_linker_0, # of connection points: 2
#     Edge 41, Type (0, 0), BuildingBlock: CIFDUS_clean_linker_0, # of connection points: 2
#     Edge 42, Type (0, 0), BuildingBlock: CIFDUS_clean_linker_0, # of connection points: 2
#     Edge 43, Type (0, 0), BuildingBlock: CIFDUS_clean_linker_0, # of connection points: 2
#     Edge 44, Type (0, 0), BuildingBlock: CIFDUS_clean_linker_0, # of connection points: 2
#     Edge 45, Type (0, 0), BuildingBlock: CIFDUS_clean_linker_0, # of connection points: 2
#     Edge 46, Type (0, 0), BuildingBlock: CIFDUS_clean_linker_0, # of connection points: 2
#     Edge 47, Type (0, 0), BuildingBlock: CIFDUS_clean_linker_0, # of connection points: 2
#     Edge 48, Type (0, 0), BuildingBlock: CIFDUS_clean_linker_0, # of connection points: 2
#     Edge 49, Type (0, 0), BuildingBlock: CIFDUS_clean_linker_0, # of connection points: 2
#     Edge 50, Type (0, 0), BuildingBlock: CIFDUS_clean_linker_0, # of connection points: 2
#     Edge 51, Type (0, 0), BuildingBlock: CIFDUS_clean_linker_0, # of connection points: 2
#     Edge 52, Type (0, 0), BuildingBlock: CIFDUS_clean_linker_0, # of connection points: 2
#     Edge 53, Type (0, 0), BuildingBlock: CIFDUS_clean_linker_0, # of connection points: 2
#     Edge 54, Type (0, 0), BuildingBlock: CIFDUS_clean_linker_0, # of connection points: 2
#     Edge 55, Type (0, 0), BuildingBlock: CIFDUS_clean_linker_0, # of connection points: 2
#     Edge 56, Type (0, 0), BuildingBlock: CIFDUS_clean_linker_0, # of connection points: 2
#     Edge 57, Type (0, 0), BuildingBlock: CIFDUS_clean_linker_0, # of connection points: 2
#     Edge 58, Type (0, 0), BuildingBlock: CIFDUS_clean_linker_0, # of connection points: 2
#     Edge 59, Type (0, 0), BuildingBlock: CIFDUS_clean_linker_0, # of connection points: 2
#     Edge 60, Type (0, 0), BuildingBlock: CIFDUS_clean_linker_0, # of connection points: 2
#     Edge 61, Type (0, 0), BuildingBlock: CIFDUS_clean_linker_0, # of connection points: 2
#     Edge 62, Type (0, 0), BuildingBlock: CIFDUS_clean_linker_0, # of connection points: 2
#     Edge 63, Type (0, 0), BuildingBlock: CIFDUS_clean_linker_0, # of connection points: 2
#     Edge 64, Type (0, 0), BuildingBlock: CIFDUS_clean_linker_0, # of connection points: 2
#     Edge 65, Type (0, 0), BuildingBlock: CIFDUS_clean_linker_0, # of connection points: 2
#     Edge 66, Type (0, 0), BuildingBlock: CIFDUS_clean_linker_0, # of connection points: 2
#     Edge 67, Type (0, 0), BuildingBlock: CIFDUS_clean_linker_0, # of connection points: 2
#     Edge 68, Type (0, 0), BuildingBlock: CIFDUS_clean_linker_0, # of connection points: 2
#     Edge 69, Type (0, 0), BuildingBlock: CIFDUS_clean_linker_0, # of connection points: 2
#     Edge 70, Type (0, 0), BuildingBlock: CIFDUS_clean_linker_0, # of connection points: 2
#     Edge 71, Type (0, 0), BuildingBlock: CIFDUS_clean_linker_0, # of connection points: 2
#     Edge 72, Type (0, 0), BuildingBlock: CIFDUS_clean_linker_0, # of connection points: 2
#     Edge 73, Type (0, 0), BuildingBlock: CIFDUS_clean_linker_0, # of connection points: 2
#     Edge 74, Type (0, 0), BuildingBlock: CIFDUS_clean_linker_0, # of connection points: 2
#     Edge 75, Type (0, 0), BuildingBlock: CIFDUS_clean_linker_0, # of connection points: 2
#     Edge 76, Type (0, 0), BuildingBlock: CIFDUS_clean_linker_0, # of connection points: 2
#     Edge 77, Type (0, 0), BuildingBlock: CIFDUS_clean_linker_0, # of connection points: 2
#     Edge 78, Type (0, 0), BuildingBlock: CIFDUS_clean_linker_0, # of connection points: 2
#     Edge 79, Type (0, 0), BuildingBlock: CIFDUS_clean_linker_0, # of connection points: 2
#     Edge 80, Type (0, 0), BuildingBlock: CIFDUS_clean_linker_0, # of connection points: 2
#     Edge 81, Type (0, 0), BuildingBlock: CIFDUS_clean_linker_0, # of connection points: 2
#     Edge 82, Type (0, 0), BuildingBlock: CIFDUS_clean_linker_0, # of connection points: 2
#     Edge 83, Type (0, 0), BuildingBlock: CIFDUS_clean_linker_0, # of connection points: 2
#     Edge 84, Type (0, 0), BuildingBlock: CIFDUS_clean_linker_0, # of connection points: 2
#     Edge 85, Type (0, 0), BuildingBlock: CIFDUS_clean_linker_0, # of connection points: 2
#     Edge 86, Type (0, 0), BuildingBlock: CIFDUS_clean_linker_0, # of connection points: 2
#     Edge 87, Type (0, 0), BuildingBlock: CIFDUS_clean_linker_0, # of connection points: 2
#     Edge 88, Type (0, 0), BuildingBlock: CIFDUS_clean_linker_0, # of connection points: 2
#     Edge 89, Type (0, 0), BuildingBlock: CIFDUS_clean_linker_0, # of connection points: 2
#     Edge 90, Type (0, 0), BuildingBlock: CIFDUS_clean_linker_0, # of connection points: 2
#     Edge 91, Type (0, 0), BuildingBlock: CIFDUS_clean_linker_0, # of connection points: 2
#     Edge 92, Type (0, 0), BuildingBlock: CIFDUS_clean_linker_0, # of connection points: 2
#     Edge 93, Type (0, 0), BuildingBlock: CIFDUS_clean_linker_0, # of connection points: 2
#     Edge 94, Type (0, 0), BuildingBlock: CIFDUS_clean_linker_0, # of connection points: 2
#     Edge 95, Type (0, 0), BuildingBlock: CIFDUS_clean_linker_0, # of connection points: 2
#     Edge 96, Type (0, 0), BuildingBlock: CIFDUS_clean_linker_0, # of connection points: 2
#     Edge 97, Type (0, 0), BuildingBlock: CIFDUS_clean_linker_0, # of connection points: 2
#     Edge 98, Type (0, 0), BuildingBlock: CIFDUS_clean_linker_0, # of connection points: 2
#     Edge 99, Type (0, 0), BuildingBlock: CIFDUS_clean_linker_0, # of connection points: 2
#     Edge 100, Type (0, 0), BuildingBlock: CIFDUS_clean_linker_0, # of connection points: 2
#     Edge 101, Type (0, 0), BuildingBlock: CIFDUS_clean_linker_0, # of connection points: 2
#     Edge 102, Type (0, 0), BuildingBlock: CIFDUS_clean_linker_0, # of connection points: 2
#     Edge 103, Type (0, 0), BuildingBlock: CIFDUS_clean_linker_0, # of connection points: 2
#     Edge 104, Type (0, 0), BuildingBlock: CIFDUS_clean_linker_0, # of connection points: 2
#     Edge 105, Type (0, 0), BuildingBlock: CIFDUS_clean_linker_0, # of connection points: 2
#     Edge 106, Type (0, 0), BuildingBlock: CIFDUS_clean_linker_0, # of connection points: 2
#     Edge 107, Type (0, 0), BuildingBlock: CIFDUS_clean_linker_0, # of connection points: 2
#     Edge 108, Type (0, 0), BuildingBlock: CIFDUS_clean_linker_0, # of connection points: 2
#     Edge 109, Type (0, 0), BuildingBlock: CIFDUS_clean_linker_0, # of connection points: 2
#     Edge 110, Type (0, 0), BuildingBlock: CIFDUS_clean_linker_0, # of connection points: 2
#     Edge 111, Type (0, 0), BuildingBlock: CIFDUS_clean_linker_0, # of connection points: 2
# Relax obj value: 0.276
# Max RMSD: 0.214
# Mean RMSD: 0.214
data_MOF--net-sog--node1-BEQFEK_clean_sbu_0--edge1-CIFDUS_clean_linker_0
_symmetry_space_group_name_H-M    P1
_symmetry_Int_Tables_number       1
_symmetry_cell_setting            triclinic
loop_
_symmetry_equiv_pos_as_xyz
'x, y, z'
_cell_length_a     69.160406
_cell_length_b     16.484558
_cell_length_c     103.29836
_cell_angle_alpha  90.009893
_cell_angle_beta   89.992963
_cell_angle_gamma 89.916477
loop_
_atom_site_label
_atom_site_type_symbol
_atom_site_fract_x
_atom_site_fract_y
_atom_site_fract_z
_atom_type_partial_charge
Co0 Co 0.45598 0.18543 0.06747 0.0
Co1 Co 0.43376 0.02125 0.06864 0.0
C2 C 0.45618 0.08917 0.09155 0.0
O3 O 0.462 0.15104 0.08534 0.0
O4 O 0.44544 0.0362 0.0862 0.0
C5 C 0.47297 0.33746 0.07306 0.0
O6 O 0.47651 0.30434 0.08438 0.0
C7 C 0.43664 0.84773 0.07066 0.0
C8 C 0.40859 0.80408 0.06322 0.0
C9 C 0.42656 0.77768 0.06752 0.0
N10 N 0.42528 0.9119 0.06817 0.0
N11 N 0.40838 0.88567 0.06396 0.0
C12 C 0.45749 0.85539 0.07443 0.0
H13 H 0.46291 0.91734 0.07237 0.0
H14 H 0.46649 0.81043 0.06915 0.0
H15 H 0.45895 0.84415 0.08497 0.0
C16 C 0.47444 0.10508 0.04478 0.0
N17 N 0.46225 0.10564 0.05497 0.0
N18 N 0.45203 0.03838 0.05494 0.0
C19 C 0.45701 0.99385 0.04448 0.0
C20 C 0.47149 0.0342 0.03776 0.0
C21 C 0.48765 0.1738 0.0415 0.0
H22 H 0.47887 0.22883 0.03953 0.0
H23 H 0.49701 0.18732 0.04995 0.0
H24 H 0.49672 0.16005 0.03291 0.0
O25 O 0.42812 0.21045 0.06646 0.0
O26 O 0.41132 0.09617 0.06667 0.0
H27 H 0.45032 0.89816 0.0307 0.0
H28 H 0.45511 0.86537 0.04683 0.0
C29 C 0.44817 0.91376 0.04102 0.0
H30 H 0.43247 0.91466 0.0431 0.0
H31 H 0.39708 0.92344 0.06103 0.0
O32 O 0.46737 0.29258 0.06379 0.0
C33 C 0.41203 0.17336 0.06609 0.0
Co34 Co 0.78076 0.98705 0.0679 0.0
Co35 Co 0.80406 0.14927 0.06809 0.0
C36 C 0.7814 0.08813 0.09142 0.0
O37 O 0.77492 0.02552 0.08568 0.0
O38 O 0.79243 0.13809 0.08564 0.0
C39 C 0.76528 0.83372 0.07406 0.0
O40 O 0.7637 0.86582 0.08565 0.0
C41 C 0.8005 0.32259 0.06912 0.0
C42 C 0.82873 0.36778 0.06226 0.0
C43 C 0.81043 0.39304 0.06608 0.0
N44 N 0.81228 0.25904 0.06713 0.0
N45 N 0.82926 0.28622 0.06321 0.0
C46 C 0.7795 0.31414 0.07242 0.0
H47 H 0.77434 0.25178 0.07041 0.0
H48 H 0.77068 0.35832 0.06685 0.0
H49 H 0.77746 0.32621 0.08289 0.0
C50 C 0.76363 0.06352 0.04428 0.0
N51 N 0.7751 0.06452 0.05484 0.0
N52 N 0.78582 0.13033 0.05458 0.0
C53 C 0.78183 0.17241 0.04371 0.0
C54 C 0.76741 0.1324 0.03689 0.0
C55 C 0.74975 0.99674 0.04124 0.0
H56 H 0.75754 0.94794 0.03598 0.0
H57 H 0.74388 0.9707 0.05033 0.0
H58 H 0.73775 0.01913 0.03506 0.0
O59 O 0.80853 0.96037 0.06718 0.0
O60 O 0.82619 0.07241 0.06654 0.0
H61 H 0.80869 0.23695 0.0421 0.0
H62 H 0.79302 0.24816 0.02833 0.0
C63 C 0.79342 0.24333 0.03904 0.0
H64 H 0.78737 0.3 0.04318 0.0
H65 H 0.8409 0.24908 0.0607 0.0
O66 O 0.76933 0.87946 0.06454 0.0
C67 C 0.82489 0.99522 0.06655 0.0
Co68 Co 0.45915 0.03165 0.192 0.0
Co69 Co 0.43769 0.19713 0.19142 0.0
C70 C 0.459 0.1294 0.16807 0.0
O71 O 0.46469 0.06648 0.17408 0.0
O72 O 0.44878 0.18322 0.17369 0.0
C73 C 0.47645 0.87987 0.18628 0.0
O74 O 0.47965 0.91229 0.17487 0.0
C75 C 0.44139 0.3699 0.19035 0.0
C76 C 0.41315 0.41511 0.19731 0.0
C77 C 0.43141 0.44022 0.19345 0.0
N78 N 0.42965 0.30654 0.19236 0.0
N79 N 0.41267 0.33363 0.19634 0.0
C80 C 0.46235 0.36122 0.18696 0.0
H81 H 0.46431 0.37376 0.17649 0.0
H82 H 0.46749 0.29861 0.18886 0.0
H83 H 0.47124 0.40492 0.19256 0.0
C84 C 0.47772 0.10646 0.21502 0.0
N85 N 0.46606 0.10955 0.20459 0.0
N86 N 0.45607 0.17742 0.20485 0.0
C87 C 0.46069 0.21889 0.21568 0.0
C88 C 0.47475 0.1759 0.22245 0.0
C89 C 0.49105 0.03722 0.21786 0.0
H90 H 0.48284 0.98861 0.22285 0.0
H91 H 0.49686 0.01194 0.2087 0.0
H92 H 0.50318 0.05675 0.22417 0.0
O93 O 0.43117 0.0079 0.19336 0.0
O94 O 0.41513 0.12436 0.19347 0.0
H95 H 0.43457 0.28878 0.21741 0.0
H96 H 0.45052 0.29704 0.2311 0.0
C97 C 0.44992 0.2921 0.2204 0.0
H98 H 0.4565 0.34741 0.21618 0.0
H99 H 0.40107 0.29647 0.19887 0.0
O100 O 0.47062 0.92483 0.19547 0.0
C101 C 0.41534 0.04714 0.19394 0.0
Co102 Co 0.79008 0.18647 0.19089 0.0
Co103 Co 0.81368 0.02659 0.19093 0.0
C104 C 0.78937 0.08084 0.1679 0.0
O105 O 0.78297 0.14354 0.17364 0.0
O106 O 0.80122 0.03302 0.17346 0.0
C107 C 0.78409 0.33893 0.18428 0.0
O108 O 0.79185 0.3041 0.17408 0.0
C109 C 0.81274 0.85242 0.19093 0.0
C110 C 0.84348 0.81748 0.19277 0.0
C111 C 0.82499 0.78622 0.19138 0.0
N112 N 0.82339 0.9198 0.19217 0.0
N113 N 0.84176 0.89884 0.19336 0.0
C114 C 0.79147 0.85249 0.18818 0.0
H115 H 0.78612 0.91485 0.18637 0.0
H116 H 0.78355 0.82752 0.19661 0.0
H117 H 0.78834 0.81325 0.1797 0.0
C118 C 0.77388 0.114 0.21502 0.0
N119 N 0.78507 0.1115 0.20435 0.0
N120 N 0.79589 0.04587 0.20471 0.0
C121 C 0.79235 0.00558 0.21581 0.0
C122 C 0.77806 0.04659 0.22268 0.0
C123 C 0.75972 0.18041 0.2178 0.0
H124 H 0.76726 0.23028 0.22294 0.0
H125 H 0.75383 0.20504 0.20861 0.0
H126 H 0.74772 0.15812 0.22398 0.0
O127 O 0.81792 0.21584 0.19114 0.0
O128 O 0.8355 0.10383 0.19187 0.0
H129 H 0.81933 0.9408 0.21697 0.0
H130 H 0.80472 0.93483 0.23138 0.0
C131 C 0.80432 0.93603 0.22064 0.0
H132 H 0.79796 0.8782 0.21722 0.0
H133 H 0.85314 0.94002 0.19422 0.0
O134 O 0.77834 0.29405 0.19351 0.0
C135 C 0.83428 0.18083 0.19169 0.0
Co136 Co 0.52732 0.70535 0.94151 0.0
Co137 Co 0.55008 0.86895 0.9406 0.0
C138 C 0.52936 0.79873 0.91716 0.0
O139 O 0.52273 0.73837 0.92339 0.0
O140 O 0.53981 0.85194 0.92271 0.0
C141 C 0.51043 0.55327 0.93567 0.0
O142 O 0.50731 0.58652 0.92431 0.0
C143 C 0.5471 0.04252 0.93829 0.0
C144 C 0.57452 0.08709 0.94659 0.0
C145 C 0.55678 0.11293 0.94181 0.0
N146 N 0.55844 0.97869 0.94107 0.0
N147 N 0.575 0.00553 0.94578 0.0
C148 C 0.52651 0.03416 0.93398 0.0
H149 H 0.52116 0.97176 0.93575 0.0
H150 H 0.51709 0.07822 0.93912 0.0
H151 H 0.52562 0.04633 0.92343 0.0
C152 C 0.50805 0.7875 0.9637 0.0
N153 N 0.52055 0.78629 0.95369 0.0
N154 N 0.53093 0.85316 0.95382 0.0
C155 C 0.52568 0.89816 0.96418 0.0
C156 C 0.5109 0.85846 0.97072 0.0
C157 C 0.49479 0.71883 0.96693 0.0
H158 H 0.50356 0.66419 0.96918 0.0
H159 H 0.48577 0.70429 0.95836 0.0
H160 H 0.4854 0.73319 0.97533 0.0
O161 O 0.555 0.68018 0.94325 0.0
O162 O 0.57229 0.79324 0.94327 0.0
H163 H 0.53195 0.99435 0.97798 0.0
H164 H 0.52826 0.02632 0.96171 0.0
C165 C 0.53464 0.9778 0.96776 0.0
H166 H 0.55044 0.97558 0.9661 0.0
H167 H 0.58617 0.96816 0.94905 0.0
O168 O 0.51571 0.59812 0.94503 0.0
C169 C 0.57122 0.71609 0.94392 0.0
Co170 Co 0.21824 0.03107 0.94473 0.0
Co171 Co 0.1955 0.86807 0.94352 0.0
C172 C 0.21919 0.93285 0.92091 0.0
O173 O 0.22505 0.9949 0.92707 0.0
O174 O 0.20801 0.88118 0.92619 0.0
C175 C 0.23472 0.18397 0.93933 0.0
O176 O 0.23803 0.1516 0.92793 0.0
C177 C 0.1988 0.69457 0.94228 0.0
C178 C 0.17005 0.65044 0.94833 0.0
C179 C 0.18849 0.62441 0.94496 0.0
N180 N 0.18709 0.75855 0.94407 0.0
N181 N 0.16982 0.73204 0.9475 0.0
C182 C 0.21998 0.70242 0.93951 0.0
H183 H 0.22511 0.76467 0.94163 0.0
H184 H 0.22842 0.65809 0.94531 0.0
H185 H 0.22259 0.69029 0.92909 0.0
C186 C 0.23536 0.95136 0.96801 0.0
N187 N 0.22372 0.95213 0.95754 0.0
N188 N 0.21314 0.88593 0.95749 0.0
C189 C 0.2173 0.84199 0.96816 0.0
C190 C 0.23177 0.88106 0.97511 0.0
C191 C 0.24957 0.01692 0.97106 0.0
H192 H 0.24225 0.06464 0.97685 0.0
H193 H 0.25493 0.04499 0.96198 0.0
H194 H 0.26192 0.99265 0.97673 0.0
O195 O 0.19035 0.05694 0.94493 0.0
O196 O 0.17312 0.9438 0.94476 0.0
H197 H 0.19074 0.7747 0.96924 0.0
H198 H 0.20613 0.76369 0.98318 0.0
C199 C 0.20596 0.76951 0.97248 0.0
H200 H 0.21242 0.71385 0.96828 0.0
H201 H 0.15814 0.76963 0.94976 0.0
O202 O 0.22936 0.13847 0.94858 0.0
C203 C 0.1741 0.02101 0.94502 0.0
Co204 Co 0.53724 0.96547 0.81637 0.0
Co205 Co 0.56056 0.80173 0.81932 0.0
C206 C 0.53797 0.87785 0.84143 0.0
O207 O 0.53253 0.93797 0.83465 0.0
O208 O 0.54838 0.82169 0.83662 0.0
C209 C 0.51412 0.1261 0.81011 0.0
O210 O 0.49624 0.14246 0.80666 0.0
C211 C 0.55571 0.62873 0.82021 0.0
C212 C 0.58409 0.57714 0.81506 0.0
C213 C 0.56495 0.55626 0.81732 0.0
N214 N 0.5685 0.68973 0.81942 0.0
N215 N 0.58562 0.6584 0.81661 0.0
C216 C 0.5346 0.6406 0.82296 0.0
H217 H 0.5325 0.69015 0.83006 0.0
H218 H 0.52701 0.65797 0.81393 0.0
H219 H 0.52803 0.58403 0.82677 0.0
C220 C 0.5211 0.87517 0.79403 0.0
N221 N 0.53192 0.87824 0.8049 0.0
N222 N 0.54318 0.81411 0.8053 0.0
C223 C 0.54075 0.77079 0.79433 0.0
C224 C 0.52634 0.80681 0.78696 0.0
C225 C 0.50644 0.93787 0.79034 0.0
H226 H 0.514 0.99317 0.7869 0.0
H227 H 0.49761 0.95419 0.79891 0.0
H228 H 0.49669 0.91561 0.78259 0.0
O229 O 0.56499 0.99745 0.81448 0.0
O230 O 0.58175 0.88211 0.81691 0.0
H231 H 0.5691 0.71699 0.79391 0.0
H232 H 0.5557 0.70747 0.77899 0.0
C233 C 0.55456 0.707 0.78971 0.0
H234 H 0.54928 0.64665 0.79267 0.0
H235 H 0.59805 0.69272 0.81499 0.0
O236 O 0.5185 0.0522 0.812 0.0
C237 C 0.58107 0.95894 0.81504 0.0
Co238 Co 0.22175 0.72351 0.8223 0.0
Co239 Co 0.19961 0.88796 0.8227 0.0
C240 C 0.22133 0.82283 0.84609 0.0
O241 O 0.22732 0.76013 0.84014 0.0
O242 O 0.21075 0.87531 0.84045 0.0
C243 C 0.2383 0.57112 0.82833 0.0
O244 O 0.24074 0.60352 0.83983 0.0
C245 C 0.20323 0.06088 0.82378 0.0
C246 C 0.17518 0.10622 0.81654 0.0
C247 C 0.19337 0.13127 0.82056 0.0
N248 N 0.19151 0.99752 0.82168 0.0
N249 N 0.17464 0.02474 0.81754 0.0
C250 C 0.22414 0.05216 0.82733 0.0
H251 H 0.22932 0.98965 0.82541 0.0
H252 H 0.23312 0.09608 0.82185 0.0
H253 H 0.22589 0.06436 0.83783 0.0
C254 C 0.23952 0.79714 0.79894 0.0
N255 N 0.22819 0.80078 0.80954 0.0
N256 N 0.21811 0.86844 0.8093 0.0
C257 C 0.22248 0.90956 0.79839 0.0
C258 C 0.23633 0.86624 0.79151 0.0
C259 C 0.25248 0.72716 0.79583 0.0
H260 H 0.24381 0.67841 0.79125 0.0
H261 H 0.2589 0.70254 0.80486 0.0
H262 H 0.26415 0.7456 0.78907 0.0
O263 O 0.19394 0.69901 0.82101 0.0
O264 O 0.17713 0.81355 0.82069 0.0
H265 H 0.19629 0.97874 0.79656 0.0
H266 H 0.21251 0.98871 0.78303 0.0
C267 C 0.21169 0.98279 0.79372 0.0
H268 H 0.21808 0.03795 0.79811 0.0
H269 H 0.16307 0.98764 0.8149 0.0
O270 O 0.23325 0.61631 0.81896 0.0
C271 C 0.17787 0.7363 0.82031 0.0
Co272 Co 0.47218 0.78971 0.56971 0.0
Co273 Co 0.44908 0.62699 0.57023 0.0
C274 C 0.47174 0.69033 0.59341 0.0
O275 O 0.47803 0.75254 0.5875 0.0
O276 O 0.4607 0.63954 0.58781 0.0
C277 C 0.48813 0.94256 0.57577 0.0
O278 O 0.49031 0.90984 0.58727 0.0
C279 C 0.45215 0.45342 0.572 0.0
C280 C 0.42436 0.40895 0.56426 0.0
C281 C 0.44231 0.38311 0.56869 0.0
N282 N 0.44068 0.51731 0.56951 0.0
N283 N 0.42394 0.49054 0.5651 0.0
C284 C 0.47294 0.46152 0.57588 0.0
H285 H 0.47833 0.52349 0.57383 0.0
H286 H 0.48204 0.41659 0.57068 0.0
H287 H 0.47428 0.45045 0.58643 0.0
C288 C 0.49045 0.71009 0.54684 0.0
N289 N 0.47813 0.71095 0.55695 0.0
N290 N 0.46747 0.64487 0.55667 0.0
C291 C 0.47229 0.60103 0.5461 0.0
C292 C 0.48711 0.64041 0.53959 0.0
C293 C 0.50423 0.77735 0.54386 0.0
H294 H 0.49587 0.8331 0.54159 0.0
H295 H 0.51314 0.79039 0.55254 0.0
H296 H 0.51371 0.7623 0.53553 0.0
O297 O 0.44442 0.81612 0.56879 0.0
O298 O 0.42687 0.70379 0.56848 0.0
H299 H 0.4473 0.52465 0.5444 0.0
H300 H 0.46513 0.50781 0.53201 0.0
C301 C 0.46301 0.52233 0.54237 0.0
H302 H 0.46963 0.47251 0.54804 0.0
H303 H 0.4126 0.52796 0.56211 0.0
O304 O 0.48368 0.89724 0.56627 0.0
C305 C 0.42809 0.781 0.56823 0.0
Co306 Co 0.77769 0.48519 0.56864 0.0
Co307 Co 0.80199 0.64333 0.56931 0.0
C308 C 0.77883 0.58282 0.59247 0.0
O309 O 0.77137 0.52441 0.5862 0.0
O310 O 0.79082 0.63082 0.58712 0.0
C311 C 0.77204 0.33257 0.57509 0.0
O312 O 0.77978 0.36787 0.58524 0.0
C313 C 0.80123 0.81686 0.57142 0.0
C314 C 0.83105 0.85411 0.56658 0.0
C315 C 0.81298 0.88377 0.56997 0.0
N316 N 0.81167 0.75039 0.56876 0.0
N317 N 0.82951 0.77268 0.56588 0.0
C318 C 0.78071 0.81522 0.57606 0.0
H319 H 0.78021 0.8353 0.58631 0.0
H320 H 0.77457 0.75332 0.57527 0.0
H321 H 0.77166 0.85763 0.57035 0.0
C322 C 0.76009 0.56723 0.54568 0.0
N323 N 0.77239 0.56394 0.55578 0.0
N324 N 0.78334 0.62921 0.55574 0.0
C325 C 0.77872 0.67501 0.54535 0.0
C326 C 0.76371 0.63773 0.53869 0.0
C327 C 0.74567 0.50255 0.5426 0.0
H328 H 0.7527 0.44215 0.54323 0.0
H329 H 0.73393 0.50429 0.54991 0.0
H330 H 0.73938 0.51091 0.5328 0.0
O331 O 0.80542 0.45558 0.56795 0.0
O332 O 0.82368 0.56538 0.56728 0.0
H333 H 0.80389 0.75075 0.54404 0.0
H334 H 0.78606 0.77081 0.53176 0.0
C335 C 0.78818 0.75404 0.54203 0.0
H336 H 0.78169 0.80285 0.54799 0.0
H337 H 0.84062 0.73243 0.56351 0.0
O338 O 0.76607 0.37714 0.56585 0.0
C339 C 0.82197 0.48851 0.56727 0.0
Co340 Co 0.46937 0.46726 0.69123 0.0
Co341 Co 0.44799 0.63275 0.69094 0.0
C342 C 0.4704 0.56972 0.66778 0.0
O343 O 0.47571 0.50545 0.67359 0.0
O344 O 0.45992 0.62252 0.67341 0.0
C345 C 0.48583 0.31512 0.68513 0.0
O346 O 0.48821 0.3475 0.67363 0.0
C347 C 0.45132 0.80551 0.69015 0.0
C348 C 0.42299 0.84965 0.69713 0.0
C349 C 0.44118 0.87542 0.69323 0.0
N350 N 0.43973 0.74171 0.69217 0.0
N351 N 0.42271 0.76813 0.69618 0.0
C352 C 0.4723 0.79768 0.68674 0.0
H353 H 0.47767 0.73577 0.68891 0.0
H354 H 0.48106 0.84285 0.69213 0.0
H355 H 0.47415 0.80856 0.67622 0.0
C356 C 0.48767 0.5398 0.7146 0.0
N357 N 0.47587 0.5432 0.70423 0.0
N358 N 0.46595 0.61122 0.70458 0.0
C359 C 0.47076 0.6525 0.71538 0.0
C360 C 0.48489 0.60928 0.72205 0.0
C361 C 0.50119 0.47094 0.71726 0.0
H362 H 0.49319 0.42206 0.72234 0.0
H363 H 0.50681 0.44594 0.70802 0.0
H364 H 0.51345 0.49074 0.72344 0.0
O365 O 0.44135 0.4426 0.69199 0.0
O366 O 0.42541 0.55926 0.69212 0.0
H367 H 0.44494 0.72424 0.71721 0.0
H368 H 0.46115 0.73202 0.73077 0.0
C369 C 0.46035 0.72666 0.72008 0.0
H370 H 0.46707 0.78132 0.71575 0.0
H371 H 0.41118 0.7305 0.69869 0.0
O372 O 0.4808 0.36022 0.69451 0.0
C373 C 0.42553 0.482 0.69233 0.0
Co374 Co 0.78365 0.75652 0.69298 0.0
Co375 Co 0.80604 0.59346 0.6905 0.0
C376 C 0.7837 0.66668 0.66812 0.0
O377 O 0.77754 0.7255 0.67492 0.0
O378 O 0.79479 0.61275 0.67291 0.0
C379 C 0.77148 0.91206 0.68799 0.0
O380 O 0.77269 0.88382 0.67613 0.0
C381 C 0.80705 0.42284 0.68487 0.0
C382 C 0.83132 0.37728 0.69674 0.0
C383 C 0.81657 0.353 0.68855 0.0
N384 N 0.81573 0.48606 0.69056 0.0
N385 N 0.8305 0.45891 0.69745 0.0
C386 C 0.7883 0.42848 0.67767 0.0
H387 H 0.77963 0.48042 0.68128 0.0
H388 H 0.77974 0.37195 0.67868 0.0
H389 H 0.79143 0.43804 0.66725 0.0
C390 C 0.76579 0.67086 0.71528 0.0
N391 N 0.7777 0.67374 0.70497 0.0
N392 N 0.78714 0.60466 0.70401 0.0
C393 C 0.78142 0.55524 0.71371 0.0
C394 C 0.76775 0.59557 0.72122 0.0
C395 C 0.75381 0.74116 0.71975 0.0
H396 H 0.7629 0.79651 0.7201 0.0
H397 H 0.74207 0.75216 0.71264 0.0
H398 H 0.74745 0.73033 0.72945 0.0
O399 O 0.81131 0.78326 0.69388 0.0
O400 O 0.82815 0.66922 0.69307 0.0
H401 H 0.80418 0.46985 0.71713 0.0
H402 H 0.78108 0.43888 0.72365 0.0
C403 C 0.78834 0.46983 0.71547 0.0
H404 H 0.78528 0.43468 0.70659 0.0
H405 H 0.83935 0.49558 0.70316 0.0
O406 O 0.77194 0.86204 0.69733 0.0
C407 C 0.82742 0.74621 0.69396 0.0
Co408 Co 0.53871 0.30235 0.44282 0.0
Co409 Co 0.56227 0.4641 0.44171 0.0
C410 C 0.53888 0.39746 0.41889 0.0
O411 O 0.53235 0.33617 0.42494 0.0
O412 O 0.55028 0.44746 0.42434 0.0
C413 C 0.51535 0.13883 0.44905 0.0
O414 O 0.49744 0.15672 0.45218 0.0
C415 C 0.55805 0.63875 0.44031 0.0
C416 C 0.58722 0.68528 0.44473 0.0
C417 C 0.56836 0.70974 0.44228 0.0
N418 N 0.57008 0.57532 0.44187 0.0
N419 N 0.58757 0.60345 0.44438 0.0
C420 C 0.53711 0.63101 0.43674 0.0
H421 H 0.52811 0.63134 0.44561 0.0
H422 H 0.53253 0.6825 0.43052 0.0
H423 H 0.53433 0.57322 0.43166 0.0
C424 C 0.52108 0.38648 0.46571 0.0
N425 N 0.5331 0.38325 0.45543 0.0
N426 N 0.54429 0.4478 0.45554 0.0
C427 C 0.54033 0.49224 0.4662 0.0
C428 C 0.52528 0.45567 0.47289 0.0
C429 C 0.5068 0.32176 0.46899 0.0
H430 H 0.51459 0.26356 0.4704 0.0
H431 H 0.49666 0.31395 0.46077 0.0
H432 H 0.49857 0.33641 0.47791 0.0
O433 O 0.56651 0.2765 0.44372 0.0
O434 O 0.58457 0.38755 0.44358 0.0
H435 H 0.56617 0.56471 0.46663 0.0
H436 H 0.5512 0.57591 0.48069 0.0
C437 C 0.55103 0.5675 0.47007 0.0
H438 H 0.54378 0.62133 0.46587 0.0
H439 H 0.59962 0.56691 0.44613 0.0
O440 O 0.52716 0.19496 0.44622 0.0
C441 C 0.583 0.31045 0.44412 0.0
Co442 Co 0.2093 0.44404 0.4426 0.0
Co443 Co 0.18528 0.28514 0.44266 0.0
C444 C 0.20825 0.34243 0.4192 0.0
O445 O 0.21537 0.4031 0.42508 0.0
O446 O 0.19654 0.29452 0.42485 0.0
C447 C 0.21463 0.59666 0.43596 0.0
O448 O 0.20651 0.56139 0.42593 0.0
C449 C 0.18587 0.11143 0.4411 0.0
C450 C 0.15588 0.07538 0.4457 0.0
C451 C 0.17393 0.045 0.44246 0.0
N452 N 0.17553 0.17833 0.44366 0.0
N453 N 0.15759 0.15675 0.44642 0.0
C454 C 0.20639 0.11227 0.43646 0.0
H455 H 0.20689 0.09117 0.42626 0.0
H456 H 0.21261 0.17409 0.43712 0.0
H457 H 0.21538 0.07025 0.44229 0.0
C458 C 0.22724 0.36624 0.46578 0.0
N459 N 0.21489 0.36717 0.45569 0.0
N460 N 0.20406 0.30159 0.45607 0.0
C461 C 0.20888 0.25772 0.46663 0.0
C462 C 0.22384 0.29681 0.47308 0.0
C463 C 0.24133 0.43265 0.46861 0.0
H464 H 0.23383 0.49211 0.46815 0.0
H465 H 0.25273 0.43264 0.46105 0.0
H466 H 0.24811 0.42512 0.47827 0.0
O467 O 0.18162 0.47326 0.44352 0.0
O468 O 0.16353 0.36307 0.44443 0.0
H469 H 0.18387 0.18146 0.46842 0.0
H470 H 0.20204 0.16318 0.48057 0.0
C471 C 0.19963 0.17883 0.47029 0.0
H472 H 0.20602 0.12957 0.46438 0.0
H473 H 0.1465 0.19747 0.44861 0.0
O474 O 0.22095 0.55206 0.44508 0.0
C475 C 0.16513 0.43996 0.44434 0.0
Co476 Co 0.53329 0.49708 0.31922 0.0
Co477 Co 0.55651 0.33488 0.3182 0.0
C478 C 0.53465 0.3918 0.3422 0.0
O479 O 0.52795 0.45532 0.33683 0.0
O480 O 0.54559 0.34302 0.33605 0.0
C481 C 0.51921 0.651 0.32622 0.0
O482 O 0.51942 0.61906 0.33786 0.0
C483 C 0.55299 0.16175 0.31886 0.0
C484 C 0.58077 0.11657 0.31115 0.0
C485 C 0.56275 0.09138 0.31551 0.0
N486 N 0.5646 0.22527 0.31658 0.0
N487 N 0.5813 0.19813 0.31212 0.0
C488 C 0.53223 0.1701 0.32281 0.0
H489 H 0.52681 0.23209 0.32078 0.0
H490 H 0.52312 0.12506 0.31768 0.0
H491 H 0.53099 0.15928 0.33338 0.0
C492 C 0.515 0.4262 0.29573 0.0
N493 N 0.52699 0.42244 0.306 0.0
N494 N 0.53758 0.35634 0.30516 0.0
C495 C 0.5329 0.31654 0.29419 0.0
C496 C 0.51827 0.35884 0.28789 0.0
C497 C 0.50107 0.49411 0.29341 0.0
H498 H 0.50873 0.54434 0.28843 0.0
H499 H 0.49551 0.51744 0.30277 0.0
H500 H 0.48884 0.47393 0.28725 0.0
O501 O 0.56099 0.52315 0.31797 0.0
O502 O 0.57871 0.41146 0.31651 0.0
H503 H 0.55937 0.2502 0.29161 0.0
H504 H 0.5427 0.24131 0.2783 0.0
C505 C 0.54389 0.24523 0.28899 0.0
H506 H 0.53795 0.1887 0.29323 0.0
H507 H 0.59278 0.23529 0.30934 0.0
O508 O 0.52175 0.60512 0.31648 0.0
C509 C 0.57734 0.48861 0.31682 0.0
Co510 Co 0.2097 0.26914 0.31879 0.0
Co511 Co 0.18758 0.43357 0.31927 0.0
C512 C 0.20968 0.36847 0.34253 0.0
O513 O 0.21555 0.30553 0.33659 0.0
O514 O 0.19908 0.421 0.33691 0.0
C515 C 0.22612 0.11655 0.32471 0.0
O516 O 0.2288 0.14891 0.33619 0.0
C517 C 0.19093 0.60667 0.32035 0.0
C518 C 0.16252 0.65111 0.31358 0.0
C519 C 0.18077 0.67682 0.31739 0.0
N520 N 0.17931 0.54291 0.31832 0.0
N521 N 0.16224 0.56955 0.31445 0.0
C522 C 0.21194 0.59861 0.32366 0.0
H523 H 0.2172 0.53639 0.32161 0.0
H524 H 0.22068 0.64311 0.31812 0.0
H525 H 0.21393 0.61036 0.33415 0.0
C526 C 0.22771 0.34404 0.29555 0.0
N527 N 0.21607 0.34661 0.306 0.0
N528 N 0.20589 0.41402 0.30575 0.0
C529 C 0.21045 0.45585 0.29494 0.0
C530 C 0.2246 0.4135 0.28816 0.0
C531 C 0.24118 0.27539 0.29265 0.0
H532 H 0.23307 0.22675 0.28759 0.0
H533 H 0.24701 0.24989 0.30179 0.0
H534 H 0.25328 0.29561 0.28637 0.0
O535 O 0.18182 0.24461 0.3178 0.0
O536 O 0.16511 0.35932 0.31755 0.0
H537 H 0.18433 0.52581 0.29325 0.0
H538 H 0.20039 0.53481 0.27961 0.0
C539 C 0.1997 0.52929 0.29031 0.0
H540 H 0.20626 0.58437 0.29462 0.0
H541 H 0.15068 0.53206 0.31195 0.0
O542 O 0.22106 0.16186 0.31536 0.0
C543 C 0.16576 0.28209 0.31726 0.0
Co544 Co 0.96751 0.26229 0.56936 0.0
Co545 Co 0.94326 0.09726 0.56968 0.0
C546 C 0.96417 0.16163 0.5933 0.0
O547 O 0.97032 0.22505 0.58759 0.0
O548 O 0.95413 0.1086 0.58738 0.0
C549 C 0.98768 0.43111 0.5649 0.0
O550 O 0.00503 0.4588 0.56223 0.0
C551 C 0.94302 0.91886 0.57137 0.0
C552 C 0.91582 0.88425 0.56185 0.0
C553 C 0.93248 0.85177 0.56727 0.0
N554 N 0.93311 0.98722 0.5686 0.0
N555 N 0.91656 0.96574 0.5632 0.0
C556 C 0.96317 0.91816 0.57667 0.0
H557 H 0.97027 0.97768 0.57511 0.0
H558 H 0.97188 0.86917 0.57215 0.0
H559 H 0.9625 0.90621 0.58723 0.0
C560 C 0.98621 0.17632 0.54732 0.0
N561 N 0.97342 0.17844 0.55719 0.0
N562 N 0.96284 0.11205 0.55688 0.0
C563 C 0.96831 0.06677 0.54661 0.0
C564 C 0.98338 0.10554 0.54028 0.0
C565 C 0.99991 0.24366 0.54418 0.0
H566 H 0.99156 0.30005 0.54238 0.0
H567 H 0.00952 0.2546 0.55261 0.0
H568 H 0.0088 0.22981 0.53552 0.0
O569 O 0.94067 0.29707 0.56686 0.0
O570 O 0.92282 0.1842 0.56734 0.0
H571 H 0.94369 0.9893 0.54415 0.0
H572 H 0.96311 0.96818 0.53305 0.0
C573 C 0.9596 0.98678 0.54307 0.0
H574 H 0.96556 0.93988 0.5496 0.0
H575 H 0.90635 0.00679 0.55965 0.0
O576 O 0.98578 0.35473 0.56645 0.0
C577 C 0.92431 0.26156 0.56637 0.0
Co578 Co 0.28096 0.99455 0.57151 0.0
Co579 Co 0.30408 0.15671 0.57022 0.0
C580 C 0.28289 0.09985 0.59448 0.0
O581 O 0.27594 0.03663 0.58918 0.0
O582 O 0.29373 0.14812 0.58819 0.0
C583 C 0.26716 0.84113 0.5788 0.0
O584 O 0.26772 0.87371 0.59039 0.0
C585 C 0.30123 0.33018 0.57162 0.0
C586 C 0.3282 0.37412 0.5626 0.0
C587 C 0.31078 0.4002 0.56786 0.0
N588 N 0.31237 0.26608 0.56866 0.0
N589 N 0.32863 0.2925 0.56345 0.0
C590 C 0.28085 0.32264 0.57639 0.0
H591 H 0.27508 0.26117 0.5744 0.0
H592 H 0.27139 0.36859 0.57173 0.0
H593 H 0.28058 0.33258 0.58701 0.0
C594 C 0.26163 0.0669 0.54843 0.0
N595 N 0.27434 0.06946 0.55832 0.0
N596 N 0.28478 0.13584 0.55738 0.0
C597 C 0.27932 0.17691 0.54668 0.0
C598 C 0.26439 0.13492 0.54068 0.0
C599 C 0.24813 0.99766 0.54609 0.0
H600 H 0.25668 0.94135 0.54466 0.0
H601 H 0.23894 0.98857 0.55477 0.0
H602 H 0.23889 0.00801 0.53747 0.0
O603 O 0.30867 0.9676 0.57012 0.0
O604 O 0.32616 0.0795 0.56829 0.0
H605 H 0.28446 0.27088 0.53227 0.0
H606 H 0.28222 0.30531 0.54855 0.0
C607 C 0.288 0.25578 0.54242 0.0
H608 H 0.30393 0.25348 0.54352 0.0
H609 H 0.33964 0.25484 0.56002 0.0
O610 O 0.26929 0.88658 0.56896 0.0
C611 C 0.32494 0.00234 0.56876 0.0
Co612 Co 0.95668 0.0674 0.69282 0.0
Co613 Co 0.93328 0.2277 0.69322 0.0
C614 C 0.95687 0.17338 0.66989 0.0
O615 O 0.96338 0.11059 0.67556 0.0
O616 O 0.94522 0.22138 0.6756 0.0
C617 C 0.96255 0.91509 0.68605 0.0
O618 O 0.9545 0.94995 0.67596 0.0
C619 C 0.93423 0.40177 0.6932 0.0
C620 C 0.90355 0.43667 0.6955 0.0
C621 C 0.92198 0.46793 0.6938 0.0
N622 N 0.92363 0.33441 0.69464 0.0
N623 N 0.90531 0.35533 0.69611 0.0
C624 C 0.95538 0.40169 0.69007 0.0
H625 H 0.95813 0.44001 0.68143 0.0
H626 H 0.96072 0.33922 0.68833 0.0
H627 H 0.96362 0.42773 0.69828 0.0
C628 C 0.97375 0.13917 0.7167 0.0
N629 N 0.96215 0.14195 0.70623 0.0
N630 N 0.95147 0.20796 0.70676 0.0
C631 C 0.95555 0.2483 0.71778 0.0
C632 C 0.97002 0.20681 0.72439 0.0
C633 C 0.98793 0.07247 0.71922 0.0
H634 H 0.98051 0.02261 0.72444 0.0
H635 H 0.99349 0.04795 0.70993 0.0
H636 H 0.00016 0.09439 0.72523 0.0
O637 O 0.92883 0.0384 0.69334 0.0
O638 O 0.91144 0.15083 0.69435 0.0
H639 H 0.92886 0.31474 0.71939 0.0
H640 H 0.94411 0.32044 0.7335 0.0
C641 C 0.94403 0.31875 0.72276 0.0
H642 H 0.95044 0.37604 0.71915 0.0
H643 H 0.89397 0.31413 0.69716 0.0
O644 O 0.96849 0.95988 0.69523 0.0
C645 C 0.91254 0.07383 0.69407 0.0
Co646 Co 0.29242 0.18953 0.69462 0.0
Co647 Co 0.31363 0.02312 0.69338 0.0
C648 C 0.28931 0.09087 0.67106 0.0
O649 O 0.28445 0.15509 0.67709 0.0
O650 O 0.30024 0.03767 0.67627 0.0
C651 C 0.27418 0.34495 0.69153 0.0
O652 O 0.26858 0.31956 0.68008 0.0
C653 C 0.31398 0.84751 0.69048 0.0
C654 C 0.33738 0.81149 0.70384 0.0
C655 C 0.32235 0.78059 0.69644 0.0
N656 N 0.32291 0.9146 0.69474 0.0
N657 N 0.33732 0.89261 0.70237 0.0
C658 C 0.29888 0.84867 0.68011 0.0
H659 H 0.30348 0.89086 0.67238 0.0
H660 H 0.28498 0.87067 0.68419 0.0
H661 H 0.29696 0.78835 0.67555 0.0
C662 C 0.27533 0.11544 0.71808 0.0
N663 N 0.28662 0.11185 0.70747 0.0
N664 N 0.29617 0.04288 0.70741 0.0
C665 C 0.29146 0.00071 0.71818 0.0
C666 C 0.27801 0.04509 0.72528 0.0
C667 C 0.26236 0.18542 0.72121 0.0
H668 H 0.27108 0.23475 0.72559 0.0
H669 H 0.25568 0.20912 0.7122 0.0
H670 H 0.25083 0.1674 0.72811 0.0
O671 O 0.32044 0.21367 0.69433 0.0
O672 O 0.33625 0.09694 0.69431 0.0
H673 H 0.31725 0.93429 0.72215 0.0
H674 H 0.2975 0.90623 0.73234 0.0
C675 C 0.30144 0.92449 0.72237 0.0
H676 H 0.29771 0.87467 0.71562 0.0
H677 H 0.34633 0.93323 0.70723 0.0
O678 O 0.28185 0.29537 0.69938 0.0
C679 C 0.33623 0.17414 0.69437 0.0
Co680 Co 0.03957 0.78051 0.44352 0.0
Co681 Co 0.06358 0.93949 0.44351 0.0
C682 C 0.04039 0.88224 0.42016 0.0
O683 O 0.03335 0.82142 0.42604 0.0
O684 O 0.05212 0.93021 0.42577 0.0
C685 C 0.03416 0.62791 0.43686 0.0
O686 O 0.04217 0.66318 0.42681 0.0
C687 C 0.06296 0.11314 0.44189 0.0
C688 C 0.09297 0.14936 0.44641 0.0
C689 C 0.0749 0.17962 0.44319 0.0
N690 N 0.07332 0.04633 0.44445 0.0
N691 N 0.09127 0.068 0.44716 0.0
C692 C 0.04242 0.11217 0.43728 0.0
H693 H 0.04193 0.1319 0.42702 0.0
H694 H 0.03614 0.05058 0.43815 0.0
H695 H 0.0335 0.15516 0.44298 0.0
C696 C 0.0216 0.85882 0.46666 0.0
N697 N 0.03405 0.85742 0.45663 0.0
N698 N 0.04489 0.92297 0.45699 0.0
C699 C 0.03999 0.96725 0.46749 0.0
C700 C 0.02496 0.9285 0.47391 0.0
C701 C 0.00733 0.79299 0.46943 0.0
H702 H 0.01463 0.73314 0.46882 0.0
H703 H 0.99585 0.79426 0.46194 0.0
H704 H 0.00068 0.80026 0.47914 0.0
O705 O 0.06726 0.7514 0.44428 0.0
O706 O 0.08536 0.86159 0.44513 0.0
H707 H 0.06489 0.0443 0.46914 0.0
H708 H 0.04679 0.06237 0.48134 0.0
C709 C 0.04914 0.04652 0.47106 0.0
H710 H 0.04261 0.09544 0.46514 0.0
H711 H 0.10238 0.02735 0.44935 0.0
O712 O 0.02795 0.67248 0.44603 0.0
C713 C 0.08376 0.78471 0.44501 0.0
Co714 Co 0.70677 0.96076 0.44163 0.0
Co715 Co 0.68194 0.8027 0.44358 0.0
C716 C 0.70269 0.85801 0.41885 0.0
O717 O 0.71185 0.91643 0.42404 0.0
O718 O 0.69093 0.815 0.42539 0.0
C719 C 0.71836 0.11585 0.43403 0.0
O720 O 0.71634 0.08284 0.42254 0.0
C721 C 0.68436 0.62835 0.44159 0.0
C722 C 0.65748 0.58454 0.45072 0.0
C723 C 0.67474 0.55808 0.44526 0.0
N724 N 0.67344 0.69271 0.44484 0.0
N725 N 0.65722 0.66627 0.4501 0.0
C726 C 0.7046 0.63578 0.43656 0.0
H727 H 0.71046 0.69716 0.43852 0.0
H728 H 0.71416 0.58957 0.44106 0.0
H729 H 0.70454 0.62628 0.42593 0.0
C730 C 0.72607 0.88589 0.46464 0.0
N731 N 0.71304 0.88574 0.45493 0.0
N732 N 0.70202 0.82102 0.45599 0.0
C733 C 0.70743 0.77879 0.46658 0.0
C734 C 0.72291 0.81813 0.4724 0.0
C735 C 0.74047 0.95216 0.46675 0.0
H736 H 0.73287 0.01146 0.46696 0.0
H737 H 0.75071 0.95345 0.45849 0.0
H738 H 0.7486 0.94376 0.47592 0.0
O739 O 0.67909 0.98912 0.44307 0.0
O740 O 0.66053 0.88159 0.44629 0.0
H741 H 0.68229 0.70549 0.46986 0.0
H742 H 0.7018 0.68466 0.48091 0.0
C743 C 0.69821 0.70094 0.47082 0.0
H744 H 0.70349 0.65099 0.46458 0.0
H745 H 0.64635 0.70393 0.45373 0.0
O746 O 0.71807 0.07026 0.44397 0.0
C747 C 0.66255 0.95816 0.44514 0.0
Co748 Co 0.03641 0.96422 0.32012 0.0
Co749 Co 0.05941 0.80304 0.31947 0.0
C750 C 0.03813 0.86123 0.34344 0.0
O751 O 0.03123 0.92316 0.33776 0.0
O752 O 0.04915 0.81169 0.33752 0.0
C753 C 0.03124 0.11626 0.32702 0.0
O754 O 0.04 0.08101 0.33681 0.0
C755 C 0.0593 0.62951 0.32101 0.0
C756 C 0.08874 0.59436 0.31479 0.0
C757 C 0.07119 0.56352 0.31897 0.0
N758 N 0.06916 0.69666 0.31797 0.0
N759 N 0.08676 0.67567 0.31424 0.0
C760 C 0.03936 0.62981 0.32669 0.0
H761 H 0.03265 0.69069 0.32584 0.0
H762 H 0.03002 0.58491 0.32176 0.0
H763 H 0.04022 0.6125 0.33706 0.0
C764 C 0.01692 0.88923 0.29731 0.0
N765 N 0.02972 0.88829 0.30714 0.0
N766 N 0.03998 0.82108 0.30658 0.0
C767 C 0.03427 0.77767 0.29618 0.0
C768 C 0.01939 0.81913 0.28999 0.0
C769 C 0.0034 0.95816 0.29468 0.0
H770 H 0.01164 0.01586 0.29455 0.0
H771 H 0.9927 0.96223 0.30266 0.0
H772 H 0.99572 0.95051 0.28533 0.0
O773 O 0.06412 0.99263 0.31854 0.0
O774 O 0.08121 0.87956 0.31732 0.0
H775 H 0.0387 0.67895 0.28248 0.0
H776 H 0.03676 0.6499 0.29906 0.0
C777 C 0.04256 0.6969 0.29247 0.0
H778 H 0.05852 0.69816 0.2934 0.0
H779 H 0.09745 0.71676 0.31147 0.0
O780 O 0.02452 0.07181 0.31803 0.0
C781 C 0.08027 0.9566 0.3174 0.0
Co782 Co 0.72349 0.71836 0.31999 0.0
Co783 Co 0.6983 0.87425 0.3183 0.0
C784 C 0.71974 0.82075 0.34278 0.0
O785 O 0.72908 0.76345 0.3374 0.0
O786 O 0.70739 0.86255 0.33654 0.0
C787 C 0.72846 0.56495 0.32682 0.0
O788 O 0.71966 0.60003 0.33661 0.0
C789 C 0.70001 0.04887 0.3189 0.0
C790 C 0.66974 0.08676 0.31577 0.0
C791 C 0.68818 0.1164 0.31809 0.0
N792 N 0.68917 0.98248 0.31701 0.0
N793 N 0.67109 0.0053 0.31505 0.0
C794 C 0.72097 0.04651 0.32253 0.0
H795 H 0.7255 0.9841 0.32514 0.0
H796 H 0.72982 0.06675 0.31418 0.0
H797 H 0.72379 0.08844 0.33072 0.0
C798 C 0.74142 0.79094 0.29641 0.0
N799 N 0.72929 0.79272 0.30661 0.0
N800 N 0.71807 0.85697 0.3057 0.0
C801 C 0.72238 0.8972 0.29472 0.0
C802 C 0.73751 0.85753 0.28852 0.0
C803 C 0.75598 0.72535 0.29416 0.0
H804 H 0.749 0.67484 0.28883 0.0
H805 H 0.76126 0.70138 0.30356 0.0
H806 H 0.76832 0.74819 0.28834 0.0
O807 O 0.69562 0.68848 0.31881 0.0
O808 O 0.67702 0.79618 0.31579 0.0
H809 H 0.69512 0.95859 0.2924 0.0
H810 H 0.71091 0.96534 0.27856 0.0
C811 C 0.71038 0.96491 0.28929 0.0
H812 H 0.71604 0.02373 0.29284 0.0
H813 H 0.65962 0.96529 0.31355 0.0
O814 O 0.73532 0.60982 0.31792 0.0
C815 C 0.67903 0.71972 0.31693 0.0
Co816 Co 0.97208 0.78538 0.07004 0.0
Co817 Co 0.94899 0.6223 0.07145 0.0
C818 C 0.97052 0.69298 0.09448 0.0
O819 O 0.97698 0.75347 0.08821 0.0
O820 O 0.95984 0.64 0.08909 0.0
C821 C 0.98918 0.93768 0.07545 0.0
O822 O 0.99274 0.90472 0.08678 0.0
C823 C 0.9523 0.44862 0.07358 0.0
C824 C 0.92433 0.40356 0.06624 0.0
C825 C 0.94245 0.37803 0.07038 0.0
N826 N 0.94068 0.51229 0.07124 0.0
N827 N 0.92382 0.48511 0.0671 0.0
C828 C 0.97318 0.45721 0.0772 0.0
H829 H 0.97826 0.52011 0.07557 0.0
H830 H 0.98226 0.41445 0.07154 0.0
H831 H 0.97493 0.44321 0.08764 0.0
C832 C 0.99116 0.69849 0.04807 0.0
N833 N 0.97858 0.70279 0.05803 0.0
N834 N 0.96797 0.63653 0.05819 0.0
C835 C 0.97318 0.58894 0.04816 0.0
C836 C 0.98827 0.6256 0.04157 0.0
C837 C 0.00541 0.7634 0.04481 0.0
H838 H 0.01014 0.79505 0.05374 0.0
H839 H 0.01812 0.73761 0.03968 0.0
H840 H 0.99835 0.80849 0.03838 0.0
O841 O 0.94438 0.81078 0.06844 0.0
O842 O 0.92688 0.6983 0.06875 0.0
H843 H 0.96374 0.50605 0.03325 0.0
H844 H 0.96857 0.46062 0.04868 0.0
C845 C 0.96241 0.51487 0.04386 0.0
H846 H 0.94689 0.52037 0.04633 0.0
H847 H 0.91236 0.52227 0.06424 0.0
O848 O 0.98358 0.89253 0.06621 0.0
C849 C 0.92809 0.77534 0.06793 0.0
Co850 Co 0.28264 0.49763 0.06759 0.0
Co851 Co 0.30695 0.65938 0.07046 0.0
C852 C 0.28448 0.58368 0.09274 0.0
O853 O 0.27834 0.52468 0.08598 0.0
O854 O 0.29514 0.63856 0.08783 0.0
C855 C 0.25975 0.33647 0.06122 0.0
O856 O 0.24197 0.3199 0.05757 0.0
C857 C 0.30185 0.83275 0.07144 0.0
C858 C 0.3302 0.88509 0.06652 0.0
C859 C 0.311 0.90563 0.0687 0.0
N860 N 0.31477 0.77191 0.07065 0.0
N861 N 0.33186 0.80375 0.06797 0.0
C862 C 0.28074 0.82048 0.07405 0.0
H863 H 0.27853 0.76848 0.08066 0.0
H864 H 0.27314 0.80681 0.06486 0.0
H865 H 0.27423 0.87594 0.07833 0.0
C866 C 0.26637 0.59148 0.04555 0.0
N867 N 0.27751 0.58596 0.05625 0.0
N868 N 0.28924 0.64846 0.05661 0.0
C869 C 0.28682 0.69292 0.04577 0.0
C870 C 0.27187 0.65985 0.03856 0.0
C871 C 0.25117 0.53108 0.04194 0.0
H872 H 0.25823 0.47598 0.03796 0.0
H873 H 0.24286 0.51342 0.05068 0.0
H874 H 0.24105 0.55612 0.03463 0.0
O875 O 0.31023 0.46452 0.06558 0.0
O876 O 0.32791 0.57744 0.06779 0.0
H877 H 0.31554 0.74285 0.04522 0.0
H878 H 0.3021 0.7535 0.03033 0.0
C879 C 0.30104 0.75464 0.04105 0.0
H880 H 0.29622 0.81586 0.04394 0.0
H881 H 0.34438 0.76977 0.06639 0.0
O882 O 0.26399 0.41059 0.06308 0.0
C883 C 0.3266 0.50064 0.06598 0.0
Co884 Co 0.96288 0.49856 0.19344 0.0
Co885 Co 0.94074 0.66306 0.19181 0.0
C886 C 0.96476 0.59592 0.16956 0.0
O887 O 0.97016 0.53392 0.17592 0.0
O888 O 0.9536 0.64885 0.17457 0.0
C889 C 0.97989 0.34617 0.18815 0.0
O890 O 0.9839 0.3793 0.17691 0.0
C891 C 0.94356 0.83657 0.18992 0.0
C892 C 0.91511 0.88008 0.19675 0.0
C893 C 0.93324 0.90656 0.19283 0.0
N894 N 0.93215 0.77235 0.19217 0.0
N895 N 0.91503 0.79847 0.19602 0.0
C896 C 0.96458 0.82903 0.18659 0.0
H897 H 0.96649 0.83962 0.17606 0.0
H898 H 0.97 0.76729 0.18885 0.0
H899 H 0.97328 0.87443 0.19197 0.0
C900 C 0.98029 0.57805 0.21644 0.0
N901 N 0.96833 0.57756 0.20615 0.0
N902 N 0.95817 0.6451 0.20601 0.0
C903 C 0.96297 0.6898 0.21649 0.0
C904 C 0.9773 0.64924 0.22337 0.0
C905 C 0.99362 0.50963 0.21977 0.0
H906 H 0.98504 0.45336 0.22104 0.0
H907 H 0.00375 0.49923 0.2116 0.0
H908 H 0.00189 0.52184 0.22876 0.0
O909 O 0.93504 0.47399 0.19343 0.0
O910 O 0.91816 0.58817 0.1929 0.0
H911 H 0.93876 0.77137 0.21727 0.0
H912 H 0.95598 0.78586 0.23011 0.0
C913 C 0.95433 0.7707 0.21973 0.0
H914 H 0.96183 0.81846 0.21412 0.0
H915 H 0.90362 0.76064 0.19869 0.0
O916 O 0.97397 0.3911 0.19734 0.0
C917 C 0.9189 0.51095 0.1933 0.0
Co918 Co 0.28289 0.75337 0.19319 0.0
Co919 Co 0.30412 0.58754 0.19165 0.0
C920 C 0.28263 0.65991 0.16877 0.0
O921 O 0.27713 0.7215 0.1752 0.0
O922 O 0.29283 0.60449 0.174 0.0
C923 C 0.26471 0.9046 0.18817 0.0
O924 O 0.26023 0.87171 0.17699 0.0
C925 C 0.3004 0.41464 0.19027 0.0
C926 C 0.32886 0.36945 0.19681 0.0
C927 C 0.31047 0.34428 0.19323 0.0
N928 N 0.31219 0.47801 0.19214 0.0
N929 N 0.3293 0.4509 0.19583 0.0
C930 C 0.27932 0.4234 0.18722 0.0
H931 H 0.27433 0.48634 0.18902 0.0
H932 H 0.2706 0.38056 0.1931 0.0
H933 H 0.27694 0.40965 0.17683 0.0
C934 C 0.26469 0.67547 0.21604 0.0
N935 N 0.27613 0.67365 0.20549 0.0
N936 N 0.28599 0.60546 0.20537 0.0
C937 C 0.28152 0.56245 0.21608 0.0
C938 C 0.26768 0.6048 0.22315 0.0
C939 C 0.25157 0.7447 0.2193 0.0
H940 H 0.26 0.79224 0.22439 0.0
H941 H 0.2456 0.77159 0.2103 0.0
H942 H 0.23955 0.72463 0.22566 0.0
O943 O 0.31089 0.77638 0.19436 0.0
O944 O 0.32682 0.65974 0.19375 0.0
H945 H 0.30753 0.49133 0.21727 0.0
H946 H 0.29192 0.48215 0.23112 0.0
C947 C 0.29225 0.48829 0.22043 0.0
H948 H 0.28542 0.43372 0.21615 0.0
H949 H 0.34096 0.48807 0.19824 0.0
O950 O 0.27159 0.86002 0.19708 0.0
C951 C 0.3267 0.73685 0.19456 0.0
Co952 Co 0.04555 0.3432 0.94341 0.0
Co953 Co 0.0683 0.50628 0.94138 0.0
C954 C 0.04326 0.44065 0.91954 0.0
O955 O 0.03786 0.37841 0.92583 0.0
O956 O 0.05479 0.49225 0.92447 0.0
C957 C 0.02855 0.19051 0.9385 0.0
O958 O 0.0244 0.22319 0.92725 0.0
C959 C 0.06509 0.67998 0.93972 0.0
C960 C 0.09395 0.72402 0.94553 0.0
C961 C 0.07546 0.75019 0.9423 0.0
N962 N 0.07679 0.61591 0.94148 0.0
N963 N 0.09414 0.64241 0.94474 0.0
C964 C 0.04383 0.6722 0.93718 0.0
H965 H 0.03875 0.6099 0.93932 0.0
H966 H 0.03554 0.7163 0.94311 0.0
H967 H 0.04096 0.68474 0.92681 0.0
C968 C 0.02884 0.42755 0.96651 0.0
N969 N 0.04057 0.42384 0.95609 0.0
N970 N 0.05113 0.49015 0.95562 0.0
C971 C 0.04681 0.53706 0.96592 0.0
C972 C 0.0323 0.49999 0.97301 0.0
C973 C 0.01453 0.36333 0.97003 0.0
H974 H 0.00928 0.33219 0.96118 0.0
H975 H 0.00215 0.38968 0.97543 0.0
H976 H 0.02174 0.31771 0.97628 0.0
O977 O 0.07341 0.31723 0.94335 0.0
O978 O 0.09065 0.43024 0.94253 0.0
H979 H 0.0573 0.62041 0.98042 0.0
H980 H 0.05093 0.66564 0.96522 0.0
C981 C 0.0577 0.61176 0.96977 0.0
H982 H 0.07298 0.60722 0.96666 0.0
H983 H 0.10582 0.60481 0.94697 0.0
O984 O 0.03454 0.23587 0.94761 0.0
C985 C 0.08967 0.35311 0.94314 0.0
Co986 Co 0.71867 0.50139 0.94224 0.0
Co987 Co 0.69474 0.34282 0.93989 0.0
C988 C 0.71802 0.41343 0.91748 0.0
O989 O 0.72515 0.47057 0.92421 0.0
O990 O 0.70625 0.36288 0.92242 0.0
C991 C 0.73171 0.65693 0.93793 0.0
O992 O 0.73078 0.63059 0.92595 0.0
C993 C 0.69774 0.17327 0.93536 0.0
C994 C 0.67063 0.12102 0.94293 0.0
C995 C 0.68829 0.10107 0.93744 0.0
N996 N 0.68629 0.23391 0.93933 0.0
N997 N 0.66994 0.20276 0.94371 0.0
C998 C 0.71823 0.18394 0.93099 0.0
H999 H 0.72406 0.24309 0.93427 0.0
H1000 H 0.72747 0.13412 0.93475 0.0
H1001 H 0.71871 0.18171 0.92026 0.0
C1002 C 0.73477 0.41443 0.96508 0.0
N1003 N 0.72376 0.41809 0.95434 0.0
N1004 N 0.71295 0.35274 0.95367 0.0
C1005 C 0.71644 0.30593 0.96413 0.0
C1006 C 0.73053 0.34294 0.9717 0.0
C1007 C 0.74859 0.47959 0.96903 0.0
H1008 H 0.74056 0.52756 0.97432 0.0
H1009 H 0.75519 0.50754 0.96032 0.0
H1010 H 0.76009 0.45502 0.97541 0.0
O1011 O 0.69089 0.53028 0.94288 0.0
O1012 O 0.67287 0.41924 0.94245 0.0
H1013 H 0.68922 0.24428 0.96512 0.0
H1014 H 0.70532 0.22029 0.97822 0.0
C1015 C 0.70455 0.23346 0.96771 0.0
H1016 H 0.70986 0.17978 0.96229 0.0
H1017 H 0.65868 0.23688 0.94768 0.0
O1018 O 0.73053 0.60564 0.94706 0.0
C1019 C 0.67441 0.49619 0.94313 0.0
Co1020 Co 0.02957 0.53247 0.82056 0.0
Co1021 Co 0.05324 0.37262 0.8191 0.0
C1022 C 0.03177 0.42631 0.84337 0.0
O1023 O 0.02447 0.48881 0.83806 0.0
O1024 O 0.04293 0.37898 0.83711 0.0
C1025 C 0.02406 0.68505 0.82755 0.0
O1026 O 0.03283 0.65044 0.83739 0.0
C1027 C 0.05208 0.19847 0.81909 0.0
C1028 C 0.08249 0.16289 0.81575 0.0
C1029 C 0.06418 0.13197 0.81807 0.0
N1030 N 0.06265 0.26563 0.81732 0.0
N1031 N 0.08081 0.24428 0.81522 0.0
C1032 C 0.03118 0.19905 0.82289 0.0
H1033 H 0.02616 0.26146 0.82505 0.0
H1034 H 0.02231 0.17492 0.81483 0.0
H1035 H 0.0289 0.1594 0.83144 0.0
C1036 C 0.01105 0.46147 0.79709 0.0
N1037 N 0.02328 0.45833 0.80722 0.0
N1038 N 0.03402 0.39268 0.80628 0.0
C1039 C 0.02931 0.3529 0.79532 0.0
C1040 C 0.01439 0.39437 0.78919 0.0
C1041 C 0.99676 0.52833 0.79498 0.0
H1042 H 0.00396 0.57861 0.78971 0.0
H1043 H 0.99162 0.55209 0.80442 0.0
H1044 H 0.98429 0.50687 0.78916 0.0
O1045 O 0.05733 0.56177 0.81935 0.0
O1046 O 0.07489 0.45017 0.81742 0.0
H1047 H 0.05603 0.28778 0.7928 0.0
H1048 H 0.03987 0.28221 0.77916 0.0
C1049 C 0.04066 0.28327 0.78989 0.0
H1050 H 0.03464 0.22548 0.79359 0.0
H1051 H 0.09211 0.28522 0.8138 0.0
O1052 O 0.01753 0.64002 0.81857 0.0
C1053 C 0.07364 0.52711 0.81805 0.0
Co1054 Co 0.71386 0.2515 0.81638 0.0
Co1055 Co 0.69279 0.41663 0.81921 0.0
C1056 C 0.71419 0.33874 0.84154 0.0
O1057 O 0.71976 0.27931 0.83464 0.0
O1058 O 0.70373 0.39491 0.8368 0.0
C1059 C 0.72934 0.09746 0.82079 0.0
O1060 O 0.73055 0.12495 0.8327 0.0
C1061 C 0.69349 0.58642 0.82496 0.0
C1062 C 0.66883 0.63601 0.81388 0.0
C1063 C 0.68429 0.65766 0.82168 0.0
N1064 N 0.68394 0.52486 0.81945 0.0
N1065 N 0.66896 0.55438 0.81303 0.0
C1066 C 0.7127 0.57791 0.83153 0.0
H1067 H 0.72032 0.52275 0.82808 0.0
H1068 H 0.72193 0.63173 0.82971 0.0
H1069 H 0.71033 0.57289 0.84211 0.0
C1070 C 0.7325 0.3366 0.79435 0.0
N1071 N 0.72063 0.33476 0.80469 0.0
N1072 N 0.71162 0.40475 0.80573 0.0
C1073 C 0.71752 0.4537 0.79601 0.0
C1074 C 0.73091 0.41213 0.78845 0.0
C1075 C 0.74384 0.26484 0.78973 0.0
H1076 H 0.73399 0.21231 0.78854 0.0
H1077 H 0.7547 0.24823 0.79718 0.0
H1078 H 0.75121 0.27694 0.7804 0.0
O1079 O 0.68596 0.22721 0.81505 0.0
O1080 O 0.67025 0.34404 0.81629 0.0
H1081 H 0.69488 0.54029 0.793 0.0
H1082 H 0.71764 0.56885 0.78571 0.0
C1083 C 0.71081 0.53935 0.79419 0.0
H1084 H 0.7146 0.5753 0.80287 0.0
H1085 H 0.65947 0.51929 0.80753 0.0
O1086 O 0.72573 0.14713 0.81172 0.0
C1087 C 0.67022 0.26719 0.81502 0.0
H1088 H 0.46185 0.21214 0.10857 0.0
H1089 H 0.45914 0.95123 0.106 0.0
H1090 H 0.4623 0.94073 0.12953 0.0
H1091 H 0.46278 0.00607 0.15091 0.0
H1092 H 0.46201 0.26719 0.15357 0.0
H1093 H 0.46345 0.27746 0.12995 0.0
C1094 C 0.4623 0.15296 0.11315 0.0
C1095 C 0.46034 0.08251 0.10556 0.0
C1096 C 0.46336 0.14757 0.12671 0.0
C1097 C 0.4606 0.00629 0.11164 0.0
C1098 C 0.46238 0.0003 0.12509 0.0
C1099 C 0.4633 0.06522 0.14632 0.0
C1100 C 0.46238 0.13582 0.15396 0.0
C1101 C 0.46334 0.07056 0.13274 0.0
C1102 C 0.4627 0.21202 0.14788 0.0
C1103 C 0.46348 0.21788 0.13438 0.0
H1104 H 0.78018 0.97087 0.10976 0.0
H1105 H 0.77635 0.22981 0.10449 0.0
H1106 H 0.77605 0.24956 0.12797 0.0
H1107 H 0.78029 0.19417 0.14987 0.0
H1108 H 0.78788 0.93644 0.15501 0.0
H1109 H 0.7832 0.91494 0.13178 0.0
C1110 C 0.77884 0.0314 0.11378 0.0
C1111 C 0.77812 0.09881 0.10545 0.0
C1112 C 0.77959 0.04244 0.12728 0.0
C1113 C 0.77684 0.17709 0.11075 0.0
C1114 C 0.77675 0.18837 0.12416 0.0
C1115 C 0.78057 0.13317 0.14593 0.0
C1116 C 0.78438 0.06695 0.15414 0.0
C1117 C 0.77862 0.12166 0.13251 0.0
C1118 C 0.78502 0.98838 0.14887 0.0
C1119 C 0.78236 0.97609 0.13559 0.0
H1120 H 0.52968 0.93187 0.90157 0.0
H1121 H 0.52443 0.67116 0.90078 0.0
H1122 H 0.52596 0.67226 0.87717 0.0
H1123 H 0.53156 0.74651 0.85678 0.0
H1124 H 0.5347 0.00773 0.85747 0.0
H1125 H 0.53115 0.00732 0.88101 0.0
C1126 C 0.52859 0.87548 0.8962 0.0
C1127 C 0.52711 0.80157 0.90292 0.0
C1128 C 0.52928 0.87655 0.8826 0.0
C1129 C 0.52551 0.72897 0.89585 0.0
C1130 C 0.52653 0.72944 0.88234 0.0
C1131 C 0.53126 0.80326 0.8621 0.0
C1132 C 0.53359 0.87693 0.85544 0.0
C1133 C 0.52885 0.80269 0.87562 0.0
C1134 C 0.53291 0.9502 0.86239 0.0
C1135 C 0.53097 0.95003 0.87586 0.0
H1136 H 0.22464 0.96128 0.86026 0.0
H1137 H 0.22533 0.70044 0.86352 0.0
H1138 H 0.22589 0.71092 0.88711 0.0
H1139 H 0.22311 0.79436 0.90683 0.0
H1140 H 0.22452 0.05514 0.90362 0.0
H1141 H 0.22644 0.04465 0.88006 0.0
C1142 C 0.2252 0.90685 0.86616 0.0
C1143 C 0.22474 0.83026 0.86017 0.0
C1144 C 0.22579 0.9133 0.87973 0.0
C1145 C 0.22571 0.76014 0.8679 0.0
C1146 C 0.22591 0.76605 0.88139 0.0
C1147 C 0.22413 0.84875 0.90096 0.0
C1148 C 0.22349 0.92535 0.90693 0.0
C1149 C 0.2255 0.84228 0.88742 0.0
C1150 C 0.22504 0.99543 0.89925 0.0
C1151 C 0.22601 0.98951 0.88576 0.0
H1152 H 0.47467 0.71008 0.65421 0.0
H1153 H 0.47503 0.44974 0.64997 0.0
H1154 H 0.47671 0.46369 0.62646 0.0
H1155 H 0.47493 0.55005 0.60704 0.0
H1156 H 0.47654 0.81024 0.61123 0.0
H1157 H 0.47747 0.7963 0.63478 0.0
C1158 C 0.47541 0.65651 0.64813 0.0
C1159 C 0.47452 0.57905 0.6538 0.0
C1160 C 0.47662 0.66495 0.63461 0.0
C1161 C 0.47572 0.51007 0.64584 0.0
C1162 C 0.47657 0.51797 0.63238 0.0
C1163 C 0.47578 0.60356 0.61312 0.0
C1164 C 0.47547 0.681 0.60743 0.0
C1165 C 0.47655 0.59508 0.62665 0.0
C1166 C 0.47681 0.74993 0.61539 0.0
C1167 C 0.47721 0.74203 0.62886 0.0
H1168 H 0.77541 0.53685 0.65291 0.0
H1169 H 0.78352 0.79589 0.65189 0.0
H1170 H 0.78166 0.79448 0.62824 0.0
H1171 H 0.78051 0.71743 0.60776 0.0
H1172 H 0.77022 0.45944 0.60893 0.0
H1173 H 0.76993 0.4626 0.63254 0.0
C1174 C 0.77657 0.59291 0.64749 0.0
C1175 C 0.77981 0.66613 0.65407 0.0
C1176 C 0.77515 0.5918 0.63391 0.0
C1177 C 0.78096 0.73876 0.647 0.0
C1178 C 0.78001 0.73794 0.63348 0.0
C1179 C 0.77792 0.66221 0.6132 0.0
C1180 C 0.77558 0.58826 0.6066 0.0
C1181 C 0.77751 0.66456 0.62682 0.0
C1182 C 0.77202 0.51725 0.61376 0.0
C1183 C 0.77198 0.51884 0.62728 0.0
H1184 H 0.53371 0.28113 0.4006 0.0
H1185 H 0.5344 0.54037 0.40614 0.0
H1186 H 0.5305 0.56126 0.38285 0.0
H1187 H 0.53005 0.50612 0.36078 0.0
H1188 H 0.53301 0.24733 0.35502 0.0
H1189 H 0.53213 0.2257 0.37845 0.0
C1190 C 0.53265 0.34207 0.3967 0.0
C1191 C 0.53427 0.40913 0.40504 0.0
C1192 C 0.5312 0.35362 0.38324 0.0
C1193 C 0.53322 0.48786 0.39988 0.0
C1194 C 0.53102 0.49982 0.38657 0.0
C1195 C 0.53011 0.44496 0.36466 0.0
C1196 C 0.53149 0.37839 0.3562 0.0
C1197 C 0.53043 0.43321 0.37813 0.0
C1198 C 0.53194 0.29951 0.36135 0.0
C1199 C 0.53149 0.28716 0.37474 0.0
H1200 H 0.21246 0.24752 0.36017 0.0
H1201 H 0.2143 0.5079 0.35637 0.0
H1202 H 0.21645 0.522 0.37992 0.0
H1203 H 0.21482 0.4608 0.40158 0.0
H1204 H 0.20919 0.20138 0.40539 0.0
H1205 H 0.21166 0.18606 0.38186 0.0
C1206 C 0.2137 0.30723 0.3645 0.0
C1207 C 0.21336 0.37661 0.35656 0.0
C1208 C 0.21409 0.31491 0.37805 0.0
C1209 C 0.21457 0.4537 0.3623 0.0
C1210 C 0.21575 0.46173 0.37575 0.0
C1211 C 0.21448 0.40081 0.39727 0.0
C1212 C 0.21195 0.33222 0.40519 0.0
C1213 C 0.2151 0.39286 0.38373 0.0
C1214 C 0.21115 0.25501 0.39947 0.0
C1215 C 0.21252 0.24629 0.38603 0.0
H1216 H 0.96596 0.05966 0.65195 0.0
H1217 H 0.95741 0.31716 0.65677 0.0
H1218 H 0.96146 0.33742 0.63345 0.0
H1219 H 0.96446 0.28025 0.61149 0.0
H1220 H 0.96951 0.02127 0.60665 0.0
H1221 H 0.97003 0.00315 0.63015 0.0
C1222 C 0.96532 0.12038 0.64792 0.0
C1223 C 0.96145 0.18686 0.65606 0.0
C1224 C 0.96693 0.13113 0.63448 0.0
C1225 C 0.96034 0.26502 0.65068 0.0
C1226 C 0.96263 0.27659 0.63736 0.0
C1227 C 0.96606 0.22008 0.61561 0.0
C1228 C 0.96706 0.15219 0.60739 0.0
C1229 C 0.96552 0.2099 0.62913 0.0
C1230 C 0.96873 0.07436 0.61281 0.0
C1231 C 0.96898 0.064 0.62623 0.0
H1232 H 0.27605 0.98693 0.61309 0.0
H1233 H 0.28436 0.24379 0.60744 0.0
H1234 H 0.28466 0.2649 0.63085 0.0
H1235 H 0.28601 0.2085 0.65288 0.0
H1236 H 0.28031 0.95052 0.65843 0.0
H1237 H 0.27546 0.93157 0.63519 0.0
C1238 C 0.27753 0.04771 0.61698 0.0
C1239 C 0.28016 0.1137 0.60853 0.0
C1240 C 0.27841 0.059 0.63047 0.0
C1241 C 0.28235 0.19197 0.61374 0.0
C1242 C 0.28258 0.20405 0.62713 0.0
C1243 C 0.28336 0.14836 0.64901 0.0
C1244 C 0.28371 0.08086 0.65733 0.0
C1245 C 0.28113 0.13777 0.63558 0.0
C1246 C 0.28045 0.00318 0.65219 0.0
C1247 C 0.2776 0.9924 0.6389 0.0
H1248 H 0.03505 0.76389 0.40238 0.0
H1249 H 0.03798 0.02382 0.40661 0.0
H1250 H 0.03513 0.04022 0.38312 0.0
H1251 H 0.03459 0.98011 0.36134 0.0
H1252 H 0.03557 0.71992 0.35706 0.0
H1253 H 0.03396 0.70381 0.3806 0.0
C1254 C 0.03472 0.82413 0.39816 0.0
C1255 C 0.03656 0.89264 0.40619 0.0
C1256 C 0.03391 0.83283 0.38464 0.0
C1257 C 0.03654 0.97029 0.4006 0.0
C1258 C 0.03495 0.97961 0.38719 0.0
C1259 C 0.0341 0.91991 0.36557 0.0
C1260 C 0.03504 0.85122 0.35751 0.0
C1261 C 0.03401 0.91127 0.3791 0.0
C1262 C 0.03482 0.77359 0.36309 0.0
C1263 C 0.03394 0.76442 0.37654 0.0
H1264 H 0.69055 0.79956 0.35919 0.0
H1265 H 0.75093 0.86174 0.35783 0.0
H1266 H 0.75119 0.8807 0.38149 0.0
H1267 H 0.73363 0.88107 0.40258 0.0
H1268 H 0.6739 0.80558 0.4034 0.0
H1269 H 0.67395 0.78989 0.37999 0.0
C1270 C 0.70375 0.81729 0.36412 0.0
C1271 C 0.72062 0.83037 0.35692 0.0
C1272 C 0.70386 0.82542 0.37762 0.0
C1273 C 0.73777 0.85184 0.36329 0.0
C1274 C 0.73788 0.86266 0.37677 0.0
C1275 C 0.72071 0.8609 0.39759 0.0
C1276 C 0.70377 0.84475 0.40471 0.0
C1277 C 0.72095 0.84989 0.38405 0.0
C1278 C 0.68715 0.81789 0.39817 0.0
C1279 C 0.68712 0.80922 0.38476 0.0
H1280 H 0.96916 0.73254 0.15503 0.0
H1281 H 0.97102 0.47126 0.1529 0.0
H1282 H 0.97432 0.47793 0.1294 0.0
H1283 H 0.97355 0.55773 0.10929 0.0
H1284 H 0.9737 0.819 0.11136 0.0
H1285 H 0.97301 0.81276 0.13501 0.0
C1286 C 0.97056 0.67723 0.14941 0.0
C1287 C 0.96964 0.60158 0.15566 0.0
C1288 C 0.97273 0.68147 0.13589 0.0
C1289 C 0.97172 0.53029 0.14832 0.0
C1290 C 0.9735 0.53398 0.13487 0.0
C1291 C 0.97374 0.61319 0.11495 0.0
C1292 C 0.97348 0.68863 0.10863 0.0
C1293 C 0.97356 0.60916 0.12853 0.0
C1294 C 0.97395 0.76015 0.11603 0.0
C1295 C 0.97342 0.75665 0.12955 0.0
H1296 H 0.2803 0.71486 0.10845 0.0
H1297 H 0.28081 0.45329 0.10867 0.0
H1298 H 0.27922 0.45289 0.13231 0.0
H1299 H 0.28039 0.52739 0.15302 0.0
H1300 H 0.27776 0.78891 0.1527 0.0
H1301 H 0.27722 0.78882 0.12908 0.0
C1302 C 0.27982 0.65787 0.11369 0.0
C1303 C 0.28086 0.5843 0.10685 0.0
C1304 C 0.27859 0.65806 0.12728 0.0
C1305 C 0.27998 0.51078 0.11373 0.0
C1306 C 0.27918 0.51048 0.12725 0.0
C1307 C 0.27943 0.58422 0.14777 0.0
C1308 C 0.2793 0.65799 0.15461 0.0
C1309 C 0.27887 0.58378 0.13415 0.0
C1310 C 0.27783 0.7312 0.14768 0.0
C1311 C 0.27764 0.73129 0.13415 0.0
H1312 H 0.02828 0.54232 0.86171 0.0
H1313 H 0.03119 0.28301 0.85657 0.0
H1314 H 0.03253 0.26413 0.88007 0.0
H1315 H 0.03634 0.32229 0.90189 0.0
H1316 H 0.03724 0.5822 0.90662 0.0
H1317 H 0.03082 0.60017 0.88352 0.0
C1318 C 0.02877 0.48163 0.86576 0.0
C1319 C 0.02951 0.4141 0.85745 0.0
C1320 C 0.03045 0.47154 0.87921 0.0
C1321 C 0.03057 0.33585 0.8628 0.0
C1322 C 0.03141 0.3251 0.87621 0.0
C1323 C 0.03478 0.38277 0.89788 0.0
C1324 C 0.03722 0.45087 0.90592 0.0
C1325 C 0.03187 0.3926 0.8845 0.0
C1326 C 0.03548 0.52893 0.90059 0.0
C1327 C 0.03183 0.5392 0.8874 0.0
H1328 H 0.72106 0.46823 0.85721 0.0
H1329 H 0.71601 0.20763 0.85741 0.0
H1330 H 0.71797 0.20663 0.88104 0.0
H1331 H 0.71816 0.28123 0.90172 0.0
H1332 H 0.72524 0.54111 0.90149 0.0
H1333 H 0.72566 0.54109 0.87784 0.0
C1334 C 0.7206 0.4113 0.86244 0.0
C1335 C 0.71816 0.33828 0.85561 0.0
C1336 C 0.72204 0.41109 0.87602 0.0
C1337 C 0.71791 0.26466 0.86247 0.0
C1338 C 0.71893 0.26407 0.87598 0.0
C1339 C 0.72011 0.33763 0.89648 0.0
C1340 C 0.72151 0.41108 0.90334 0.0
C1341 C 0.72056 0.33707 0.88287 0.0
C1342 C 0.7242 0.48369 0.89644 0.0
C1343 C 0.72431 0.48382 0.88291 0.0
H1344 H 0.52617 0.89255 0.99429 0.0
H1345 H 0.47246 0.88798 0.97321 0.0
H1346 H 0.45546 0.94502 0.99197 0.0
H1347 H 0.45616 -0.00044 0.01422 0.0
H1348 H 0.50991 0.00476 0.03525 0.0
H1349 H 0.52689 0.94741 0.01651 0.0
C1350 C 0.51075 0.90443 0.99384 0.0
C1351 C 0.50053 0.88685 0.98242 0.0
C1352 C 0.50123 0.93855 1.00456 0.0
C1353 C 0.48054 0.90097 0.98195 0.0
C1354 C 0.47089 0.93407 0.99262 0.0
C1355 C 0.47159 0.9878 0.01466 0.0
C1356 C 0.48183 0.00563 0.02606 0.0
C1357 C 0.48111 0.95373 1.00393 0.0
C1358 C 0.50182 0.99159 0.02652 0.0
C1359 C 0.51146 0.95831 0.01586 0.0
H1360 H 0.75441 0.28073 0.02992 0.0
H1361 H 0.76293 0.03864 0.01523 0.0
H1362 H 0.75256 0.08279 0.99367 0.0
H1363 H 0.74232 0.19209 0.97881 0.0
H1364 H 0.73358 0.43372 0.9937 0.0
H1365 H 0.74354 0.38894 0.01525 0.0
C1366 C 0.75395 0.2377 0.02198 0.0
C1367 C 0.75938 0.15658 0.02414 0.0
C1368 C 0.74834 0.26393 0.00961 0.0
C1369 C 0.75855 0.10112 0.01384 0.0
C1370 C 0.75284 0.12659 1.00149 0.0
C1371 C 0.74256 0.23475 0.9868 0.0
C1372 C 0.73741 0.31628 0.98464 0.0
C1373 C 0.7479 0.20807 0.99923 0.0
C1374 C 0.73787 0.37111 0.99504 0.0
C1375 C 0.74335 0.3453 0.0074 0.0
H1376 H 0.48859 0.32161 0.23034 0.0
H1377 H 0.47884 0.07685 0.24348 0.0
H1378 H 0.49115 0.11233 0.26493 0.0
H1379 H 0.50418 0.2138 0.28009 0.0
H1380 H 0.51347 0.45908 0.26709 0.0
H1381 H 0.50114 0.42367 0.24561 0.0
C1382 C 0.48911 0.27621 0.23794 0.0
C1383 C 0.48297 0.19656 0.23531 0.0
C1384 C 0.49581 0.29758 0.25032 0.0
C1385 C 0.48385 0.13811 0.24518 0.0
C1386 C 0.49069 0.15861 0.25749 0.0
C1387 C 0.50348 0.25936 0.27252 0.0
C1388 C 0.50963 0.33895 0.27515 0.0
C1389 C 0.49664 0.2382 0.26017 0.0
C1390 C 0.50853 0.39774 0.26535 0.0
C1391 C 0.50167 0.37729 0.25303 0.0
H1392 H 0.76658 0.8982 0.23091 0.0
H1393 H 0.7725 0.14623 0.24353 0.0
H1394 H 0.76085 0.10908 0.26508 0.0
H1395 H 0.74947 0.00537 0.28045 0.0
H1396 H 0.7439 0.75713 0.26789 0.0
H1397 H 0.7557 0.79416 0.24636 0.0
C1398 C 0.76542 0.94396 0.23841 0.0
C1399 C 0.77028 0.02493 0.23561 0.0
C1400 C 0.7591 0.92177 0.25084 0.0
C1401 C 0.7685 0.08383 0.24536 0.0
C1402 C 0.76204 0.06243 0.25773 0.0
C1403 C 0.75086 0.9595 0.27298 0.0
C1404 C 0.74593 0.8786 0.27575 0.0
C1405 C 0.75736 0.98156 0.26058 0.0
C1406 C 0.74793 0.81951 0.26605 0.0
C1407 C 0.75447 0.84084 0.25371 0.0
H1408 H 0.24407 0.72988 0.98135 0.0
H1409 H 0.23865 0.97167 0.99685 0.0
H1410 H 0.25106 0.92477 0.01774 0.0
H1411 H 0.2621 0.81333 0.0319 0.0
H1412 H 0.26643 0.57085 0.01654 0.0
H1413 H 0.2552 0.61889 0.99541 0.0
C1414 C 0.24553 0.77219 0.98933 0.0
C1415 C 0.24045 0.85414 0.98755 0.0
C1416 C 0.25217 0.7443 1.00139 0.0
C1417 C 0.24273 0.90858 0.9979 0.0
C1418 C 0.24963 0.88159 0.00989 0.0
C1419 C 0.26061 0.77121 0.02389 0.0
C1420 C 0.26482 0.68852 0.02578 0.0
C1421 C 0.25421 0.79942 0.01178 0.0
C1422 C 0.26286 0.63442 0.01538 0.0
C1423 C 0.25661 0.66201 1.00328 0.0
H1424 H 0.4994 0.7552 0.72911 0.0
H1425 H 0.48999 0.51258 0.7433 0.0
H1426 H 0.50272 0.55156 0.76452 0.0
H1427 H 0.51504 0.65695 0.77937 0.0
H1428 H 0.5234 0.90046 0.76528 0.0
H1429 H 0.51214 0.85968 0.74379 0.0
C1430 C 0.50011 0.71099 0.73687 0.0
C1431 C 0.49379 0.63116 0.73465 0.0
C1432 C 0.50699 0.73441 0.7491 0.0
C1433 C 0.49503 0.5741 0.74471 0.0
C1434 C 0.50213 0.59658 0.75688 0.0
C1435 C 0.51443 0.70081 0.77155 0.0
C1436 C 0.51972 0.78181 0.77391 0.0
C1437 C 0.50795 0.67681 0.75923 0.0
C1438 C 0.51897 0.83821 0.76374 0.0
C1439 C 0.51267 0.81477 0.75144 0.0
H1440 H 0.26156 0.90376 0.73302 0.0
H1441 H 0.27702 0.14215 0.74664 0.0
H1442 H 0.26552 0.10783 0.76835 0.0
H1443 H 0.25186 0.0084 0.78363 0.0
H1444 H 0.2374 0.76855 0.7702 0.0
H1445 H 0.24834 0.80368 0.74837 0.0
C1446 C 0.26246 0.94793 0.74078 0.0
C1447 C 0.2701 0.02533 0.73825 0.0
C1448 C 0.25631 0.92695 0.7533 0.0
C1449 C 0.27097 0.08251 0.74831 0.0
C1450 C 0.26457 0.06265 0.76075 0.0
C1451 C 0.25117 0.96396 0.77589 0.0
C1452 C 0.244 0.88591 0.77849 0.0
C1453 C 0.25735 0.98486 0.76338 0.0
C1454 C 0.24318 0.82857 0.76846 0.0
C1455 C 0.24926 0.8489 0.75596 0.0
H1456 H 0.47196 0.61201 0.51583 0.0
H1457 H 0.5252 0.60302 0.5374 0.0
H1458 H 0.54173 0.54156 0.51881 0.0
H1459 H 0.54058 0.48564 0.49665 0.0
H1460 H 0.48742 0.49604 0.47501 0.0
H1461 H 0.47096 0.55821 0.49355 0.0
C1462 C 0.4872 0.59661 0.51639 0.0
C1463 C 0.49741 0.61142 0.52791 0.0
C1464 C 0.49643 0.56015 0.50576 0.0
C1465 C 0.51715 0.59233 0.52857 0.0
C1466 C 0.52652 0.55664 0.518 0.0
C1467 C 0.52544 0.50234 0.496 0.0
C1468 C 0.51521 0.48727 0.4845 0.0
C1469 C 0.51625 0.5395 0.50659 0.0
C1470 C 0.4955 0.50703 0.48382 0.0
C1471 C 0.48616 0.54308 0.49436 0.0
H1472 H 0.70859 0.78911 0.49638 0.0
H1473 H 0.76142 0.78701 0.47431 0.0
H1474 H 0.77883 0.72916 0.49284 0.0
H1475 H 0.77856 0.67351 0.51504 0.0
H1476 H 0.72549 0.67268 0.53687 0.0
H1477 H 0.70831 0.73385 0.51854 0.0
C1478 C 0.72391 0.77569 0.49566 0.0
C1479 C 0.73374 0.79134 0.48402 0.0
C1480 C 0.73362 0.74051 0.50621 0.0
C1481 C 0.75363 0.77547 0.48322 0.0
C1482 C 0.76351 0.7418 0.49375 0.0
C1483 C 0.76325 0.68721 0.51575 0.0
C1484 C 0.75326 0.66943 0.52726 0.0
C1485 C 0.75359 0.72307 0.50523 0.0
C1486 C 0.73339 0.68582 0.52806 0.0
C1487 C 0.72364 0.72126 0.51764 0.0
H1488 H 0.71417 0.47356 0.76681 0.0
H1489 H 0.76953 0.41534 0.78354 0.0
H1490 H 0.78593 0.46759 0.76423 0.0
H1491 H 0.78445 0.53285 0.74277 0.0
H1492 H 0.72909 0.59116 0.72604 0.0
H1493 H 0.71269 0.53828 0.7453 0.0
C1494 C 0.72983 0.47279 0.76621 0.0
C1495 C 0.74069 0.44119 0.77656 0.0
C1496 C 0.7391 0.50374 0.75516 0.0
C1497 C 0.76093 0.43922 0.77565 0.0
C1498 C 0.77028 0.46943 0.76466 0.0
C1499 C 0.76879 0.53345 0.74335 0.0
C1500 C 0.75794 0.56545 0.73303 0.0
C1501 C 0.75952 0.50222 0.75438 0.0
C1502 C 0.73769 0.56711 0.73392 0.0
C1503 C 0.72834 0.53653 0.74489 0.0
H1504 H 0.27917 0.16264 0.51678 0.0
H1505 H 0.2258 0.16184 0.53826 0.0
H1506 H 0.20842 0.21366 0.51928 0.0
H1507 H 0.20877 0.26418 0.49678 0.0
H1508 H 0.26225 0.26656 0.47541 0.0
H1509 H 0.27949 0.21238 0.49427 0.0
C1510 C 0.26374 0.17403 0.51726 0.0
C1511 C 0.25373 0.15918 0.52886 0.0
C1512 C 0.254 0.20536 0.50642 0.0
C1513 C 0.23372 0.17272 0.52938 0.0
C1514 C 0.22385 0.20289 0.51858 0.0
C1515 C 0.22418 0.2522 0.49628 0.0
C1516 C 0.23427 0.26844 0.48475 0.0
C1517 C 0.23388 0.22024 0.50709 0.0
C1518 C 0.25426 0.25448 0.48423 0.0
C1519 C 0.26406 0.22307 0.49496 0.0
H1520 H 0.25347 0.45867 0.23053 0.0
H1521 H 0.26439 0.70038 0.24466 0.0
H1522 H 0.25228 0.66213 0.26604 0.0
H1523 H 0.23909 0.55903 0.28085 0.0
H1524 H 0.22841 0.317 0.26681 0.0
H1525 H 0.24058 0.35514 0.24541 0.0
C1526 C 0.25324 0.50278 0.23832 0.0
C1527 C 0.25965 0.58241 0.236 0.0
C1528 C 0.2466 0.47985 0.25065 0.0
C1529 C 0.25917 0.6392 0.24613 0.0
C1530 C 0.25244 0.6171 0.25839 0.0
C1531 C 0.23942 0.51479 0.27308 0.0
C1532 C 0.23296 0.43526 0.2754 0.0
C1533 C 0.24617 0.53756 0.26077 0.0
C1534 C 0.2336 0.37821 0.26531 0.0
C1535 C 0.24038 0.40023 0.25305 0.0
H1536 H 0.03951 0.96362 0.49766 0.0
H1537 H 0.98648 0.95873 0.47581 0.0
H1538 H 0.96889 0.01606 0.49429 0.0
H1539 H 0.96886 0.07066 0.51653 0.0
H1540 H 0.02186 0.07523 0.5384 0.0
H1541 H 0.03948 0.01817 0.5199 0.0
C1542 C 0.02412 0.97568 0.49697 0.0
C1543 C 0.01427 0.95795 0.48541 0.0
C1544 C 0.01423 0.00966 0.50755 0.0
C1545 C 0.99429 0.97196 0.48465 0.0
C1546 C 0.98429 0.00518 0.49517 0.0
C1547 C 0.98426 0.05881 0.51721 0.0
C1548 C 0.99411 0.07641 0.52877 0.0
C1549 C 0.99415 0.02483 0.50663 0.0
C1550 C 0.01407 0.06221 0.52955 0.0
C1551 C 0.02408 0.02913 0.51902 0.0
H1552 H 0.98254 0.35448 0.73223 0.0
H1553 H 0.97592 0.10752 0.74521 0.0
H1554 H 0.98871 0.14434 0.76648 0.0
H1555 H 0.0013 0.24747 0.7815 0.0
H1556 H 0.00783 0.49451 0.76857 0.0
H1557 H 0.99482 0.45792 0.74733 0.0
C1558 C 0.98381 0.30891 0.73976 0.0
C1559 C 0.97841 0.22833 0.73715 0.0
C1560 C 0.99086 0.3309 0.75202 0.0
C1561 C 0.98032 0.16961 0.74691 0.0
C1562 C 0.98745 0.19083 0.75911 0.0
C1563 C 0.99988 0.29316 0.77401 0.0
C1564 C 0.00542 0.3736 0.77659 0.0
C1565 C 0.99271 0.27131 0.76178 0.0
C1566 C 0.00335 0.4325 0.76687 0.0
C1567 C 0.99611 0.41141 0.75469 0.0
H1568 H 0.03382 0.78359 0.26628 0.0
H1569 H 0.98062 0.79643 0.28786 0.0
H1570 H 0.96273 0.74335 0.26918 0.0
H1571 H 0.96256 0.68867 0.24692 0.0
H1572 H 0.01584 0.67533 0.22543 0.0
H1573 H 0.03361 0.7302 0.24399 0.0
C1574 C 0.01831 0.77439 0.26685 0.0
C1575 C 0.0085 0.79293 0.27839 0.0
C1576 C 0.00827 0.74266 0.25618 0.0
C1577 C 0.9884 0.78248 0.27903 0.0
C1578 C 0.97823 0.75168 0.2684 0.0
C1579 C 0.97804 0.69841 0.24633 0.0
C1580 C 0.98794 0.67868 0.23487 0.0
C1581 C 0.98805 0.73082 0.25697 0.0
C1582 C 0.00801 0.68997 0.23421 0.0
C1583 C 0.01811 0.72174 0.24477 0.0
H1584 H 0.02708 0.42601 0.99629 0.0
H1585 H 0.01654 0.64939 0.97581 0.0
H1586 H 0.00297 0.7105 0.99539 0.0
H1587 H 0.99395 0.70017 0.01842 0.0
H1588 H 0.00432 0.47669 0.03889 0.0
H1589 H 0.01812 0.41581 0.01935 0.0
C1590 C 0.02158 0.48766 0.99613 0.0
C1591 C 0.02274 0.53323 0.98469 0.0
C1592 C 0.01395 0.52259 0.00746 0.0
C1593 C 0.01585 0.61345 0.98458 0.0
C1594 C 0.00813 0.64842 0.99576 0.0
C1595 C 0.99952 0.63864 0.0186 0.0
C1596 C 0.99826 0.59297 0.03002 0.0
C1597 C 0.00722 0.6038 0.00729 0.0
C1598 C 0.00518 0.51279 0.03014 0.0
C1599 C 0.013 0.47794 0.01899 0.0
H1600 H 0.45227 0.70204 0.08363 0.0
H1601 H 0.41704 0.6633 0.04972 0.0
H1602 H 0.42994 0.52605 0.04758 0.0
H1603 H 0.4507 0.41687 0.05554 0.0
H1604 H 0.48581 0.4549 0.08956 0.0
H1605 H 0.47432 0.59497 0.09098 0.0
C1606 C 0.44778 0.66455 0.07557 0.0
C1607 C 0.43403 0.69365 0.06668 0.0
C1608 C 0.45548 0.5862 0.07428 0.0
C1609 C 0.42764 0.64244 0.05669 0.0
C1610 C 0.43513 0.56422 0.05538 0.0
C1611 C 0.45621 0.4562 0.06311 0.0
C1612 C 0.46918 0.42558 0.0724 0.0
C1613 C 0.44909 0.53561 0.06411 0.0
C1614 C 0.47589 0.47714 0.08225 0.0
C1615 C 0.4692 0.55695 0.08314 0.0
H1616 H 0.78615 0.75575 0.05563 0.0
H1617 H 0.75302 0.71482 0.09043 0.0
H1618 H 0.76399 0.57375 0.09098 0.0
H1619 H 0.78525 0.46657 0.08268 0.0
H1620 H 0.81896 0.50842 0.04821 0.0
H1621 H 0.80608 0.64629 0.04671 0.0
C1622 C 0.78094 0.71552 0.06317 0.0
C1623 C 0.76867 0.74553 0.07294 0.0
C1624 C 0.78782 0.63551 0.06367 0.0
C1625 C 0.76238 0.69297 0.08277 0.0
C1626 C 0.76878 0.61258 0.08315 0.0
C1627 C 0.78941 0.505 0.07466 0.0
C1628 C 0.80276 0.47678 0.06543 0.0
C1629 C 0.78184 0.58382 0.07382 0.0
C1630 C 0.8087 0.52882 0.05543 0.0
C1631 C 0.80123 0.60736 0.05452 0.0
H1632 H 0.45586 0.80053 0.20461 0.0
H1633 H 0.48903 0.76186 0.16973 0.0
H1634 H 0.47805 0.62101 0.16891 0.0
H1635 H 0.45659 0.51401 0.17695 0.0
H1636 H 0.42286 0.55428 0.21149 0.0
H1637 H 0.43585 0.69156 0.21326 0.0
C1638 C 0.46106 0.76098 0.19697 0.0
C1639 C 0.47328 0.79159 0.18724 0.0
C1640 C 0.45415 0.68134 0.1963 0.0
C1641 C 0.47966 0.73963 0.17734 0.0
C1642 C 0.47325 0.6594 0.17681 0.0
C1643 C 0.45246 0.55195 0.18505 0.0
C1644 C 0.43907 0.52357 0.19422 0.0
C1645 C 0.46011 0.63035 0.18605 0.0
C1646 C 0.43315 0.57492 0.20432 0.0
C1647 C 0.44069 0.65305 0.20539 0.0
H1648 H 0.81158 0.42885 0.17291 0.0
H1649 H 0.76563 0.44195 0.20111 0.0
H1650 H 0.77447 0.58289 0.20598 0.0
H1651 H 0.79607 0.70005 0.20257 0.0
H1652 H 0.84286 0.68183 0.17512 0.0
H1653 H 0.8332 0.54319 0.16982 0.0
C1654 C 0.80324 0.46276 0.17998 0.0
C1655 C 0.78775 0.42575 0.1865 0.0
C1656 C 0.8088 0.54194 0.18299 0.0
C1657 C 0.77748 0.46975 0.19589 0.0
C1658 C 0.7826 0.5499 0.19871 0.0
C1659 C 0.80395 0.66587 0.19532 0.0
C1660 C 0.81989 0.70101 0.18903 0.0
C1661 C 0.79835 0.58628 0.19238 0.0
C1662 C 0.83052 0.65558 0.18003 0.0
C1663 C 0.82491 0.57682 0.17693 0.0
H1664 H 0.53181 0.18907 0.9252 0.0
H1665 H 0.56474 0.22578 0.96019 0.0
H1666 H 0.55154 0.36257 0.96223 0.0
H1667 H 0.53142 0.47256 0.95378 0.0
H1668 H 0.49861 0.43653 0.9187 0.0
H1669 H 0.51016 0.29655 0.91742 0.0
C1670 C 0.53574 0.22603 0.93345 0.0
C1671 C 0.54898 0.19653 0.94265 0.0
C1672 C 0.52789 0.30425 0.93467 0.0
C1673 C 0.55459 0.247 0.95295 0.0
C1674 C 0.54692 0.32498 0.9542 0.0
C1675 C 0.52641 0.43368 0.94601 0.0
C1676 C 0.51411 0.46496 0.93637 0.0
C1677 C 0.53357 0.35421 0.94511 0.0
C1678 C 0.50803 0.41387 0.92627 0.0
C1679 C 0.51476 0.33407 0.92546 0.0
H1680 H 0.21139 0.26143 0.95643 0.0
H1681 H 0.24865 0.30297 0.92358 0.0
H1682 H 0.23751 0.44365 0.92235 0.0
H1683 H 0.21524 0.55038 0.92948 0.0
H1684 H 0.17766 0.5082 0.96212 0.0
H1685 H 0.19025 0.37024 0.96418 0.0
C1686 C 0.21744 0.30169 0.94919 0.0
C1687 C 0.23096 0.272 0.94016 0.0
C1688 C 0.21051 0.38145 0.94828 0.0
C1689 C 0.23832 0.3246 0.93068 0.0
C1690 C 0.23184 0.40474 0.92991 0.0
C1691 C 0.21017 0.512 0.93727 0.0
C1692 C 0.19586 0.54027 0.94583 0.0
C1693 C 0.21765 0.43323 0.93849 0.0
C1694 C 0.18873 0.48795 0.95543 0.0
C1695 C 0.19602 0.40933 0.95668 0.0
H1696 H 0.57408 0.4014 0.8252 0.0
H1697 H 0.53454 0.53729 0.80119 0.0
H1698 H 0.51687 0.41523 0.79607 0.0
H1699 H 0.51092 0.27283 0.79942 0.0
H1700 H 0.54829 0.13174 0.82409 0.0
H1701 H 0.56871 0.25172 0.82776 0.0
C1702 C 0.56168 0.40369 0.81879 0.0
C1703 C 0.55545 0.47886 0.81378 0.0
C1704 C 0.55117 0.33228 0.81601 0.0
C1705 C 0.53948 0.48102 0.80539 0.0
C1706 C 0.52933 0.41094 0.80241 0.0
C1707 C 0.52358 0.26786 0.80557 0.0
C1708 C 0.52805 0.19364 0.8115 0.0
C1709 C 0.53479 0.33681 0.80785 0.0
C1710 C 0.54466 0.18814 0.8193 0.0
C1711 C 0.55621 0.25695 0.82149 0.0
H1712 H 0.2181 0.20513 0.83736 0.0
H1713 H 0.18544 0.24524 0.80236 0.0
H1714 H 0.1985 0.38256 0.80076 0.0
H1715 H 0.21818 0.49191 0.80972 0.0
H1716 H 0.25028 0.45308 0.84503 0.0
H1717 H 0.23927 0.31226 0.84569 0.0
C1718 C 0.21421 0.24308 0.82921 0.0
C1719 C 0.2011 0.21463 0.81986 0.0
C1720 C 0.22188 0.32153 0.8283 0.0
C1721 C 0.19551 0.26594 0.80968 0.0
C1722 C 0.20308 0.34411 0.8087 0.0
C1723 C 0.22315 0.45227 0.81742 0.0
C1724 C 0.23508 0.48285 0.82731 0.0
C1725 C 0.21623 0.37253 0.81798 0.0
C1726 C 0.24114 0.43086 0.83729 0.0
C1727 C 0.23472 0.35063 0.83773 0.0
H1728 H 0.46724 0.30806 0.58537 0.0
H1729 H 0.43408 0.26888 0.55056 0.0
H1730 H 0.44713 0.13153 0.5488 0.0
H1731 H 0.46718 0.0218 0.55749 0.0
H1732 H 0.50006 0.06039 0.59246 0.0
H1733 H 0.48871 0.20079 0.59341 0.0
C1734 C 0.46323 0.27037 0.57722 0.0
C1735 C 0.44998 0.2993 0.56797 0.0
C1736 C 0.47097 0.19188 0.57618 0.0
C1737 C 0.44426 0.24805 0.55781 0.0
C1738 C 0.45183 0.16977 0.55673 0.0
C1739 C 0.47225 0.06138 0.56516 0.0
C1740 C 0.48454 0.03079 0.57486 0.0
C1741 C 0.46519 0.14108 0.56587 0.0
C1742 C 0.49067 0.08261 0.58485 0.0
C1743 C 0.48405 0.16263 0.58546 0.0
H1744 H 0.78416 0.96783 0.55836 0.0
H1745 H 0.83048 0.98978 0.58605 0.0
H1746 H 0.82087 0.12984 0.59063 0.0
H1747 H 0.79934 0.2438 0.5869 0.0
H1748 H 0.75398 0.22751 0.55833 0.0
H1749 H 0.76278 0.08542 0.55416 0.0
C1750 C 0.79193 0.00329 0.5655 0.0
C1751 C 0.80771 0.96894 0.57209 0.0
C1752 C 0.78636 0.08362 0.568 0.0
C1753 C 0.81823 0.01557 0.58096 0.0
C1754 C 0.81267 0.09512 0.58361 0.0
C1755 C 0.79114 0.20909 0.57987 0.0
C1756 C 0.77581 0.2455 0.57306 0.0
C1757 C 0.7967 0.12933 0.57726 0.0
C1758 C 0.76571 0.20028 0.56376 0.0
C1759 C 0.7708 0.11944 0.56135 0.0
H1760 H 0.46574 0.94897 0.67635 0.0
H1761 H 0.43272 0.99042 0.71116 0.0
H1762 H 0.4456 0.12813 0.71261 0.0
H1763 H 0.46545 0.2368 0.70367 0.0
H1764 H 0.49791 0.1967 0.66853 0.0
H1765 H 0.48688 0.05584 0.66795 0.0
C1766 C 0.46174 0.98732 0.68443 0.0
C1767 C 0.44862 0.95914 0.69379 0.0
C1768 C 0.46933 0.06585 0.68526 0.0
C1769 C 0.44283 0.01093 0.70386 0.0
C1770 C 0.4503 0.08928 0.70475 0.0
C1771 C 0.4705 0.1969 0.69603 0.0
C1772 C 0.48255 0.22701 0.68617 0.0
C1773 C 0.46356 0.11726 0.6955 0.0
C1774 C 0.48869 0.17475 0.67625 0.0
C1775 C 0.48225 0.09455 0.67585 0.0
H1776 H 0.7807 0.02478 0.67006 0.0
H1777 H 0.77458 0.99055 0.71131 0.0
H1778 H 0.78933 0.12309 0.71517 0.0
H1779 H 0.80527 0.24621 0.70675 0.0
H1780 H 0.81129 0.27855 0.66556 0.0
H1781 H 0.79577 0.14737 0.6617 0.0
C1782 C 0.78231 0.04652 0.67991 0.0
C1783 C 0.77658 0.99767 0.69038 0.0
C1784 C 0.79127 0.12129 0.68205 0.0
C1785 C 0.77882 0.02707 0.70307 0.0
C1786 C 0.78744 0.10241 0.70529 0.0
C1787 C 0.80344 0.22341 0.69697 0.0
C1788 C 0.80962 0.27022 0.68643 0.0
C1789 C 0.79409 0.14916 0.69486 0.0
C1790 C 0.80681 0.24216 0.67377 0.0
C1791 C 0.7978 0.1679 0.67158 0.0
H1792 H 0.53453 0.76488 0.45266 0.0
H1793 H 0.58615 0.84467 0.43302 0.0
H1794 H 0.57409 0.98435 0.43317 0.0
H1795 H 0.54916 0.08315 0.43908 0.0
H1796 H 0.49701 0.00295 0.45816 0.0
H1797 H 0.50896 0.86314 0.45788 0.0
C1798 C 0.54296 0.81237 0.44815 0.0
C1799 C 0.56099 0.79411 0.44251 0.0
C1800 C 0.53594 0.89232 0.44828 0.0
C1801 C 0.57217 0.8572 0.43732 0.0
C1802 C 0.56528 0.93694 0.43741 0.0
C1803 C 0.54034 0.0352 0.44318 0.0
C1804 C 0.5222 0.05362 0.44867 0.0
C1805 C 0.54723 0.95515 0.44291 0.0
C1806 C 0.51099 0.99052 0.45386 0.0
C1807 C 0.51784 0.91061 0.45372 0.0
H1808 H 0.20258 0.95898 0.45384 0.0
H1809 H 0.15627 0.94121 0.42606 0.0
H1810 H 0.16595 0.802 0.4209 0.0
H1811 H 0.1874 0.68711 0.4243 0.0
H1812 H 0.23283 0.69988 0.45288 0.0
H1813 H 0.22401 0.84121 0.45754 0.0
C1814 C 0.1948 0.92458 0.44656 0.0
C1815 C 0.17901 0.95988 0.44012 0.0
C1816 C 0.2004 0.84477 0.44374 0.0
C1817 C 0.16852 0.91465 0.43106 0.0
C1818 C 0.17413 0.83564 0.42806 0.0
C1819 C 0.19563 0.72096 0.43142 0.0
C1820 C 0.21096 0.68368 0.43811 0.0
C1821 C 0.19009 0.80044 0.4343 0.0
C1822 C 0.2211 0.72777 0.44753 0.0
C1823 C 0.21599 0.80818 0.45023 0.0
H1824 H 0.53948 0.01883 0.33332 0.0
H1825 H 0.56964 0.97506 0.29745 0.0
H1826 H 0.55682 0.8369 0.29677 0.0
H1827 H 0.538 0.72787 0.30676 0.0
H1828 H 0.50865 0.77053 0.34301 0.0
H1829 H 0.51941 0.91182 0.34282 0.0
C1830 C 0.54287 0.97985 0.32519 0.0
C1831 C 0.55518 0.00757 0.31532 0.0
C1832 C 0.53538 0.90088 0.32485 0.0
C1833 C 0.56016 0.95498 0.30515 0.0
C1834 C 0.55273 0.87629 0.30471 0.0
C1835 C 0.53354 0.76854 0.31446 0.0
C1836 C 0.52239 0.73906 0.32484 0.0
C1837 C 0.54036 0.84862 0.31452 0.0
C1838 C 0.51712 0.79207 0.33488 0.0
C1839 C 0.52341 0.87255 0.33483 0.0
H1840 H 0.20614 0.75034 0.33381 0.0
H1841 H 0.17144 0.79259 0.29977 0.0
H1842 H 0.18421 0.93035 0.29815 0.0
H1843 H 0.20457 0.03887 0.30668 0.0
H1844 H 0.23883 -0.0023 0.341 0.0
H1845 H 0.22772 0.85698 0.34179 0.0
C1846 C 0.20175 0.78878 0.32584 0.0
C1847 C 0.1882 0.76069 0.31676 0.0
C1848 C 0.20931 0.86739 0.3249 0.0
C1849 C 0.18191 0.81286 0.30687 0.0
C1850 C 0.18932 0.8913 0.30587 0.0
C1851 C 0.20998 -0.00127 0.31418 0.0
C1852 C 0.22261 0.02851 0.32374 0.0
C1853 C 0.20304 0.91908 0.31482 0.0
C1854 C 0.22918 0.976 0.3335 0.0
C1855 C 0.22271 0.89586 0.33402 0.0
H1856 H 0.9804 0.5508 0.5481 0.0
H1857 H 0.95972 0.44701 0.58373 0.0
H1858 H 0.93954 0.56789 0.58753 0.0
H1859 H 0.93118 0.71185 0.58184 0.0
H1860 H 0.95156 0.80951 0.54564 0.0
H1861 H 0.96855 0.68315 0.54095 0.0
C1862 C 0.97108 0.55376 0.55654 0.0
C1863 C 0.97156 0.49034 0.56563 0.0
C1864 C 0.95981 0.62344 0.55868 0.0
C1865 C 0.95944 0.49475 0.57653 0.0
C1866 C 0.94811 0.56439 0.57877 0.0
C1867 C 0.93915 0.70461 0.57288 0.0
C1868 C 0.94053 0.77047 0.56421 0.0
C1869 C 0.94871 0.6305 0.57013 0.0
C1870 C 0.95067 0.76035 0.55256 0.0
C1871 C 0.9603 0.68792 0.54985 0.0
H1872 H 0.28868 0.47448 0.58623 0.0
H1873 H 0.31648 0.51532 0.54943 0.0
H1874 H 0.30345 0.65321 0.54881 0.0
H1875 H 0.285 0.76286 0.55903 0.0
H1876 H 0.25777 0.72279 0.59607 0.0
H1877 H 0.2689 0.5819 0.59596 0.0
C1878 C 0.29151 0.51276 0.57793 0.0
C1879 C 0.30323 0.48421 0.56777 0.0
C1880 C 0.28384 0.59154 0.57759 0.0
C1881 C 0.30749 0.53598 0.55737 0.0
C1882 C 0.29992 0.61452 0.55695 0.0
C1883 C 0.28109 0.72281 0.56694 0.0
C1884 C 0.27044 0.75299 0.57751 0.0
C1885 C 0.28808 0.64291 0.56701 0.0
C1886 C 0.26585 0.70075 0.5878 0.0
C1887 C 0.27235 0.62049 0.58779 0.0
H1888 H 0.95118 0.55432 0.70457 0.0
H1889 H 0.90365 0.57184 0.6777 0.0
H1890 H 0.91315 0.71039 0.67221 0.0
H1891 H 0.93483 0.82489 0.675 0.0
H1892 H 0.98155 0.81232 0.70262 0.0
H1893 H 0.97288 0.67143 0.70764 0.0
C1894 C 0.9431 0.58832 0.6974 0.0
C1895 C 0.927 0.55305 0.69134 0.0
C1896 C 0.94863 0.66781 0.69435 0.0
C1897 C 0.91612 0.59823 0.68244 0.0
C1898 C 0.92163 0.67693 0.67924 0.0
C1899 C 0.94337 0.79108 0.68197 0.0
C1900 C 0.95902 0.82823 0.68829 0.0
C1901 C 0.93791 0.71195 0.68507 0.0
C1902 C 0.96957 0.78439 0.69755 0.0
C1903 C 0.96454 0.70428 0.70046 0.0
H1904 H 0.28538 0.72265 0.69314 0.0
H1905 H 0.34374 0.64672 0.70188 0.0
H1906 H 0.33292 0.50612 0.70308 0.0
H1907 H 0.30801 0.40445 0.69942 0.0
H1908 H 0.25104 0.47693 0.68701 0.0
H1909 H 0.26057 0.62034 0.68851 0.0
C1910 C 0.29606 0.67557 0.69456 0.0
C1911 C 0.31563 0.69534 0.69668 0.0
C1912 C 0.29005 0.59447 0.6944 0.0
C1913 C 0.32872 0.63321 0.69986 0.0
C1914 C 0.3226 0.5528 0.70047 0.0
C1915 C 0.29759 0.45177 0.69722 0.0
C1916 C 0.27878 0.43102 0.69332 0.0
C1917 C 0.30344 0.53275 0.69748 0.0
C1918 C 0.26553 0.49221 0.69014 0.0
C1919 C 0.27101 0.57374 0.69097 0.0
H1920 H 0.04643 0.26576 0.45473 0.0
H1921 H 0.09228 0.28306 0.4266 0.0
H1922 H 0.0825 0.42217 0.42145 0.0
H1923 H 0.06114 0.53718 0.42499 0.0
H1924 H 0.01619 0.52488 0.45392 0.0
H1925 H 0.02506 0.38359 0.45855 0.0
C1926 C 0.05409 0.30006 0.44739 0.0
C1927 C 0.06978 0.26468 0.44084 0.0
C1928 C 0.04844 0.37981 0.44457 0.0
C1929 C 0.08012 0.30971 0.43168 0.0
C1930 C 0.07444 0.38866 0.42868 0.0
C1931 C 0.05302 0.50344 0.43218 0.0
C1932 C 0.03781 0.54086 0.43898 0.0
C1933 C 0.05859 0.42398 0.43503 0.0
C1934 C 0.02782 0.49689 0.44849 0.0
C1935 C 0.03296 0.41651 0.45117 0.0
H1936 H 0.69722 0.48379 0.42695 0.0
H1937 H 0.66805 0.44067 0.4632 0.0
H1938 H 0.68067 0.30215 0.46367 0.0
H1939 H 0.6995 0.19256 0.45356 0.0
H1940 H 0.72798 0.23501 0.41704 0.0
H1941 H 0.71695 0.3761 0.41722 0.0
C1942 C 0.694 0.44496 0.43512 0.0
C1943 C 0.68206 0.47337 0.44518 0.0
C1944 C 0.70145 0.36564 0.43537 0.0
C1945 C 0.67727 0.4205 0.45535 0.0
C1946 C 0.6846 0.34146 0.45568 0.0
C1947 C 0.70372 0.23329 0.44581 0.0
C1948 C 0.71481 0.20386 0.43539 0.0
C1949 C 0.69676 0.31344 0.44576 0.0
C1950 C 0.71964 0.25665 0.42523 0.0
C1951 C 0.71319 0.33703 0.42528 0.0
H1952 H 0.05969 0.20552 0.33741 0.0
H1953 H 0.01144 0.21979 0.311 0.0
H1954 H 0.0199 0.36085 0.30595 0.0
H1955 H 0.0417 0.47797 0.30872 0.0
H1956 H 0.09062 0.45921 0.3344 0.0
H1957 H 0.08153 0.31984 0.33985 0.0
C1958 C 0.05079 0.2397 0.3307 0.0
C1959 C 0.03475 0.20304 0.32473 0.0
C1960 C 0.05609 0.31896 0.32758 0.0
C1961 C 0.02372 0.24736 0.31579 0.0
C1962 C 0.02862 0.32754 0.31286 0.0
C1963 C 0.05018 0.44328 0.31561 0.0
C1964 C 0.06653 0.47828 0.3214 0.0
C1965 C 0.04486 0.36361 0.31864 0.0
C1966 C 0.07793 0.43279 0.32992 0.0
C1967 C 0.07266 0.35373 0.33309 0.0
H1968 H 0.71912 0.20081 0.30889 0.0
H1969 H 0.66849 0.22272 0.33303 0.0
H1970 H 0.67743 0.36185 0.33852 0.0
H1971 H 0.69947 0.47578 0.33657 0.0
H1972 H 0.74908 0.46016 0.31136 0.0
H1973 H 0.74105 0.31832 0.30644 0.0
C1974 C 0.71023 0.23585 0.31548 0.0
C1975 C 0.69338 0.20145 0.32076 0.0
C1976 C 0.71539 0.31605 0.31849 0.0
C1977 C 0.68155 0.24815 0.32889 0.0
C1978 C 0.68671 0.32734 0.33209 0.0
C1979 C 0.70874 0.4412 0.33013 0.0
C1980 C 0.72505 0.47782 0.32449 0.0
C1981 C 0.70364 0.36155 0.32701 0.0
C1982 C 0.73657 0.43281 0.31591 0.0
C1983 C 0.73192 0.35206 0.31305 0.0
H1984 H 0.96694 0.01774 0.05793 0.0
H1985 H 0.00218 0.05501 0.0919 0.0
H1986 H 0.99079 0.19515 0.09339 0.0
H1987 H 0.96864 0.30239 0.0862 0.0
H1988 H 0.93324 0.26459 0.05235 0.0
H1989 H 0.94627 0.12765 0.05001 0.0
C1990 C 0.9725 0.05695 0.0655 0.0
C1991 C 0.98547 0.02598 0.07477 0.0
C1992 C 0.96544 0.13654 0.06653 0.0
C1993 C 0.99225 0.07744 0.08462 0.0
C1994 C 0.98561 0.15734 0.08554 0.0
C1995 C 0.96414 0.26522 0.07811 0.0
C1996 C 0.95024 0.29445 0.06933 0.0
C1997 C 0.97187 0.1869 0.07673 0.0
C1998 C 0.94391 0.24361 0.05926 0.0
C1999 C 0.95147 0.16553 0.05785 0.0
H2000 H 0.31948 0.06043 0.07703 0.0
H2001 H 0.281 0.92525 0.05222 0.0
H2002 H 0.26332 0.04738 0.04701 0.0
H2003 H 0.25709 0.18979 0.05038 0.0
H2004 H 0.29337 0.33016 0.07581 0.0
H2005 H 0.3137 0.20996 0.07976 0.0
C2006 C 0.30729 0.05828 0.07044 0.0
C2007 C 0.3014 0.98321 0.06521 0.0
C2008 C 0.29676 0.12975 0.0676 0.0
C2009 C 0.28569 0.98133 0.0566 0.0
C2010 C 0.27553 0.0515 0.05355 0.0
C2011 C 0.26951 0.19459 0.05676 0.0
C2012 C 0.27369 0.26876 0.06281 0.0
C2013 C 0.28069 0.12549 0.05917 0.0
C2014 C 0.28996 0.27389 0.07092 0.0
C2015 C 0.30147 0.20493 0.07326 0.0
H2016 H 0.95955 0.98196 0.17718 0.0
H2017 H 0.92278 0.02135 0.21035 0.0
H2018 H 0.93553 0.15858 0.2127 0.0
H2019 H 0.95671 0.26736 0.20517 0.0
H2020 H 0.99341 0.22852 0.17192 0.0
H2021 H 0.98193 0.08869 0.17026 0.0
C2022 C 0.95469 0.01959 0.18514 0.0
C2023 C 0.94057 0.99066 0.19376 0.0
C2024 C 0.96232 0.09787 0.18656 0.0
C2025 C 0.93369 0.04206 0.20359 0.0
C2026 C 0.94109 0.12026 0.20502 0.0
C2027 C 0.96255 0.22789 0.19773 0.0
C2028 C 0.97599 0.25818 0.18872 0.0
C2029 C 0.95546 0.14862 0.19659 0.0
C2030 C 0.98313 0.20649 0.17901 0.0
C2031 C 0.97645 0.12683 0.17799 0.0
H2032 H 0.28421 0.26948 0.17757 0.0
H2033 H 0.32004 0.23137 0.21122 0.0
H2034 H 0.30707 0.0945 0.21362 0.0
H2035 H 0.28648 0.98517 0.20576 0.0
H2036 H 0.25108 0.0217 0.17182 0.0
H2037 H 0.26212 0.16226 0.1704 0.0
C2038 C 0.28881 0.23215 0.18563 0.0
C2039 C 0.30279 0.26106 0.19435 0.0
C2040 C 0.28116 0.15396 0.18701 0.0
C2041 C 0.30929 0.21038 0.20437 0.0
C2042 C 0.30177 0.13245 0.20582 0.0
C2043 C 0.28082 0.02418 0.1982 0.0
C2044 C 0.26797 0.99297 0.1889 0.0
C2045 C 0.28773 0.10367 0.19718 0.0
C2046 C 0.26096 0.04433 0.17911 0.0
C2047 C 0.2674 0.12441 0.17822 0.0
H2048 H 0.05283 0.11221 0.95494 0.0
H2049 H 0.01388 0.07214 0.92293 0.0
H2050 H 0.02511 0.93184 0.92117 0.0
H2051 H 0.04789 0.8251 0.92753 0.0
H2052 H 0.08702 0.86558 0.9594 0.0
H2053 H 0.07443 0.0031 0.962 0.0
C2054 C 0.04644 0.07234 0.94777 0.0
C2055 C 0.03243 0.10242 0.93912 0.0
C2056 C 0.05339 0.99272 0.94655 0.0
C2057 C 0.02461 0.05027 0.92974 0.0
C2058 C 0.03114 0.97032 0.92865 0.0
C2059 C 0.05331 0.86297 0.93528 0.0
C2060 C 0.06807 0.83427 0.94345 0.0
C2061 C 0.04582 0.9415 0.93683 0.0
C2062 C 0.07562 0.88608 0.953 0.0
C2063 C 0.06832 0.96447 0.95456 0.0
H2064 H 0.72875 0.77801 0.92039 0.0
H2065 H 0.72371 0.72838 0.9613 0.0
H2066 H 0.70895 0.86137 0.96471 0.0
H2067 H 0.69531 0.9881 0.95574 0.0
H2068 H 0.70067 0.03673 0.91493 0.0
H2069 H 0.71704 0.90653 0.9117 0.0
C2070 C 0.72472 0.79661 0.9301 0.0
C2071 C 0.72717 0.74296 0.94054 0.0
C2072 C 0.71581 0.872 0.93193 0.0
C2073 C 0.72199 0.76846 0.95307 0.0
C2074 C 0.71334 0.84413 0.95501 0.0
C2075 C 0.69989 0.96922 0.94616 0.0
C2076 C 0.69654 0.02007 0.93551 0.0
C2077 C 0.70968 0.89536 0.94446 0.0
C2078 C 0.70294 0.99717 0.92317 0.0
C2079 C 0.7124 0.92336 0.92136 0.0
H2080 H 0.05299 0.77457 0.83723 0.0
H2081 H 0.00347 0.78832 0.81191 0.0
H2082 H 0.01169 0.92928 0.80657 0.0
H2083 H 0.03373 0.04621 0.80868 0.0
H2084 H 0.08404 0.02714 0.83316 0.0
H2085 H 0.07509 0.88844 0.83895 0.0
C2086 C 0.04377 0.80864 0.8307 0.0
C2087 C 0.02744 0.77185 0.82513 0.0
C2088 C 0.04897 0.88773 0.82736 0.0
C2089 C 0.01598 0.81599 0.8164 0.0
C2090 C 0.02075 0.89615 0.81331 0.0
C2091 C 0.04254 0.0119 0.81542 0.0
C2092 C 0.05929 0.04683 0.82072 0.0
C2093 C 0.0373 0.93232 0.81866 0.0
C2094 C 0.07107 0.0011 0.82901 0.0
C2095 C 0.06589 0.92227 0.83239 0.0
H2096 H 0.72256 0.98371 0.83909 0.0
H2097 H 0.72536 0.01825 0.79769 0.0
H2098 H 0.71065 0.88527 0.79431 0.0
H2099 H 0.69495 0.76332 0.80321 0.0
H2100 H 0.69213 0.73002 0.84453 0.0
H2101 H 0.70844 0.86009 0.84792 0.0
C2102 C 0.72031 0.96172 0.82931 0.0
C2103 C 0.72493 0.01103 0.81866 0.0
C2104 C 0.71131 0.8867 0.82745 0.0
C2105 C 0.7219 0.98142 0.80606 0.0
C2106 C 0.7133 0.90586 0.80412 0.0
C2107 C 0.6977 0.7856 0.81292 0.0
C2108 C 0.69209 0.73916 0.82364 0.0
C2109 C 0.70744 0.85914 0.81475 0.0
C2110 C 0.69612 0.76633 0.8362 0.0
C2111 C 0.70557 0.83993 0.83812 0.0
H2112 H 0.3293 0.33603 0.06435 0.0
H2113 H 0.36418 0.5531 0.06537 0.0
H2114 H 0.39351 0.47057 0.06504 0.0
H2115 H 0.40916 0.33761 0.06534 0.0
H2116 H 0.37444 0.11992 0.06489 0.0
H2117 H 0.34504 0.20241 0.06413 0.0
C2118 C 0.34328 0.36552 0.06446 0.0
C2119 C 0.34445 0.45089 0.06496 0.0
C2120 C 0.3601 0.31766 0.06444 0.0
C2121 C 0.36278 0.4877 0.06504 0.0
C2122 C 0.37958 0.44051 0.06487 0.0
C2123 C 0.39519 0.30782 0.06504 0.0
C2124 C 0.39406 0.2224 0.06522 0.0
C2125 C 0.37839 0.35551 0.06472 0.0
C2126 C 0.37577 0.18538 0.0648 0.0
C2127 C 0.35895 0.23256 0.06438 0.0
H2128 H 0.8627 0.04296 0.06534 0.0
H2129 H 0.8265 0.82978 0.06678 0.0
H2130 H 0.85496 0.74306 0.06693 0.0
H2131 H 0.89027 0.72688 0.06735 0.0
H2132 H 0.92643 0.94018 0.06586 0.0
H2133 H 0.89797 0.02661 0.06499 0.0
C2134 C 0.86103 0.97758 0.06564 0.0
C2135 C 0.84245 0.94342 0.06612 0.0
C2136 C 0.87751 0.92751 0.06574 0.0
C2137 C 0.8406 0.85826 0.06646 0.0
C2138 C 0.8569 0.80826 0.06655 0.0
C2139 C 0.89193 0.79219 0.06677 0.0
C2140 C 0.91051 0.82653 0.06674 0.0
C2141 C 0.87544 0.84215 0.0663 0.0
C2142 C 0.91234 0.91158 0.06595 0.0
C2143 C 0.89604 0.96143 0.06546 0.0
H2144 H 0.33117 0.9005 0.19572 0.0
H2145 H 0.36368 0.6765 0.19504 0.0
H2146 H 0.3939 0.75318 0.19523 0.0
H2147 H 0.41096 0.88327 0.19483 0.0
H2148 H 0.37839 0.10718 0.19519 0.0
H2149 H 0.34822 0.03045 0.19592 0.0
C2150 C 0.34484 0.86814 0.19566 0.0
C2151 C 0.34511 0.78265 0.19531 0.0
C2152 C 0.36212 0.91253 0.19567 0.0
C2153 C 0.36301 0.74214 0.19528 0.0
C2154 C 0.3803 0.78596 0.19537 0.0
C2155 C 0.39729 0.91557 0.19511 0.0
C2156 C 0.39699 0.00109 0.19489 0.0
C2157 C 0.38001 0.87113 0.19544 0.0
C2158 C 0.37909 0.04154 0.1953 0.0
C2159 C 0.36182 0.99768 0.19571 0.0
H2160 H 0.83648 0.34586 0.19191 0.0
H2161 H 0.87196 0.12983 0.19267 0.0
H2162 H 0.90104 0.21342 0.19347 0.0
H2163 H 0.91633 0.34674 0.19373 0.0
H2164 H 0.88112 0.56346 0.19294 0.0
H2165 H 0.8519 0.47993 0.19252 0.0
C2166 C 0.85056 0.31683 0.19225 0.0
C2167 C 0.85199 0.23142 0.1922 0.0
C2168 C 0.86724 0.36525 0.19272 0.0
C2169 C 0.87039 0.19522 0.19267 0.0
C2170 C 0.88704 0.24301 0.19314 0.0
C2171 C 0.90229 0.37615 0.19347 0.0
C2172 C 0.90097 0.46155 0.19334 0.0
C2173 C 0.88561 0.32796 0.19313 0.0
C2174 C 0.8826 0.49804 0.19302 0.0
C2175 C 0.86588 0.4503 0.19275 0.0
H2176 H 0.63672 0.44896 0.94527 0.0
H2177 H 0.67289 0.66179 0.94284 0.0
H2178 H 0.64443 0.74875 0.94337 0.0
H2179 H 0.60906 0.76497 0.94378 0.0
H2180 H 0.57305 0.55157 0.94628 0.0
H2181 H 0.60154 0.46529 0.94653 0.0
C2182 C 0.63839 0.51433 0.94489 0.0
C2183 C 0.65695 0.54837 0.94395 0.0
C2184 C 0.62193 0.56441 0.9452 0.0
C2185 C 0.6588 0.63348 0.94354 0.0
C2186 C 0.64251 0.68356 0.94384 0.0
C2187 C 0.60745 0.69968 0.94447 0.0
C2188 C 0.58888 0.66525 0.94493 0.0
C2189 C 0.62397 0.64975 0.94457 0.0
C2190 C 0.58712 0.58024 0.94584 0.0
C2191 C 0.60344 0.53047 0.94598 0.0
H2192 H 0.17181 0.18567 0.94488 0.0
H2193 H 0.1363 0.97017 0.9454 0.0
H2194 H 0.10718 0.05447 0.94499 0.0
H2195 H 0.09195 0.18854 0.94414 0.0
H2196 H 0.12746 0.40399 0.94344 0.0
H2197 H 0.15657 0.31976 0.94427 0.0
C2198 C 0.15772 0.15678 0.94493 0.0
C2199 C 0.15629 0.07138 0.94514 0.0
C2200 C 0.14108 0.20552 0.94463 0.0
C2201 C 0.13787 0.03553 0.94522 0.0
C2202 C 0.12121 0.08374 0.94497 0.0
C2203 C 0.10603 0.21744 0.94417 0.0
C2204 C 0.10747 0.30279 0.94369 0.0
C2205 C 0.12267 0.16871 0.94461 0.0
C2206 C 0.12589 0.33866 0.94377 0.0
C2207 C 0.14254 0.29049 0.94424 0.0
H2208 H 0.6654 0.10386 0.81385 0.0
H2209 H 0.63333 0.32892 0.81405 0.0
H2210 H 0.60295 0.25327 0.81348 0.0
H2211 H 0.58557 0.12322 0.81373 0.0
H2212 H 0.61793 0.89885 0.8141 0.0
H2213 H 0.64815 0.97471 0.81358 0.0
C2214 C 0.6518 0.13671 0.8137 0.0
C2215 C 0.65171 0.22216 0.81402 0.0
C2216 C 0.63442 0.09293 0.81351 0.0
C2217 C 0.63387 0.26326 0.81383 0.0
C2218 C 0.61648 0.22001 0.81352 0.0
C2219 C 0.59921 0.09076 0.81363 0.0
C2220 C 0.5994 0.00525 0.81401 0.0
C2221 C 0.61659 0.13481 0.81347 0.0
C2222 C 0.61728 0.96449 0.81386 0.0
C2223 C 0.6346 0.00785 0.81357 0.0
H2224 H 0.11111 0.47668 0.81658 0.0
H2225 H 0.07586 0.69263 0.81902 0.0
H2226 H 0.10479 0.77671 0.81965 0.0
H2227 H 0.14028 0.78911 0.82011 0.0
H2228 H 0.17526 0.57212 0.81785 0.0
H2229 H 0.14634 0.48913 0.81653 0.0
C2230 C 0.10973 0.54212 0.81718 0.0
C2231 C 0.09131 0.57793 0.81778 0.0
C2232 C 0.12644 0.59035 0.81761 0.0
C2233 C 0.08985 0.66307 0.81856 0.0
C2234 C 0.10641 0.71144 0.81894 0.0
C2235 C 0.14158 0.72374 0.81928 0.0
C2236 C 0.15998 0.68729 0.81914 0.0
C2237 C 0.1248 0.67573 0.81857 0.0
C2238 C 0.16133 0.60225 0.81805 0.0
C2239 C 0.14477 0.5544 0.81728 0.0
H2240 H 0.39019 0.73318 0.56808 0.0
H2241 H 0.42648 0.94615 0.56681 0.0
H2242 H 0.39806 0.03303 0.5665 0.0
H2243 H 0.36278 0.04981 0.56722 0.0
H2244 H 0.32648 0.83691 0.56856 0.0
H2245 H 0.35488 0.74988 0.56817 0.0
C2246 C 0.39188 0.79853 0.56768 0.0
C2247 C 0.4105 0.8326 0.56753 0.0
C2248 C 0.37542 0.84876 0.56755 0.0
C2249 C 0.41236 0.91772 0.56699 0.0
C2250 C 0.39609 0.96783 0.56681 0.0
C2251 C 0.36107 0.98443 0.56737 0.0
C2252 C 0.34247 0.95045 0.56798 0.0
C2253 C 0.37753 0.93415 0.56719 0.0
C2254 C 0.34059 0.86528 0.56815 0.0
C2255 C 0.35685 0.81509 0.56792 0.0
H2256 H 0.85974 0.53264 0.56414 0.0
H2257 H 0.82298 0.32337 0.56909 0.0
H2258 H 0.85108 0.23445 0.56876 0.0
H2259 H 0.88632 0.21564 0.56766 0.0
H2260 H 0.92299 0.42532 0.56265 0.0
H2261 H 0.89482 0.51348 0.56234 0.0
C2262 C 0.85787 0.46762 0.56512 0.0
C2263 C 0.83924 0.43516 0.56669 0.0
C2264 C 0.87413 0.41637 0.56489 0.0
C2265 C 0.83712 0.35045 0.56788 0.0
C2266 C 0.85321 0.29925 0.56769 0.0
C2267 C 0.88815 0.28049 0.5664 0.0
C2268 C 0.90681 0.31336 0.56525 0.0
C2269 C 0.87182 0.3315 0.56627 0.0
C2270 C 0.90884 0.39786 0.56363 0.0
C2271 C 0.89271 0.4487 0.56346 0.0
H2272 H 0.34114 0.33674 0.69142 0.0
H2273 H 0.373 0.11418 0.6973 0.0
H2274 H 0.40334 0.19009 0.69736 0.0
H2275 H 0.42075 0.31936 0.69568 0.0
H2276 H 0.38879 0.54147 0.68959 0.0
H2277 H 0.35859 0.46531 0.6894 0.0
C2278 C 0.35469 0.30459 0.69275 0.0
C2279 C 0.35473 0.2197 0.69439 0.0
C2280 C 0.37206 0.34849 0.69272 0.0
C2281 C 0.3725 0.17936 0.69601 0.0
C2282 C 0.38986 0.22276 0.69606 0.0
C2283 C 0.40717 0.35138 0.6944 0.0
C2284 C 0.40708 0.43627 0.6927 0.0
C2285 C 0.3898 0.30733 0.69443 0.0
C2286 C 0.38932 0.47641 0.69103 0.0
C2287 C 0.37201 0.4329 0.69096 0.0
H2288 H 0.83019 0.91028 0.69499 0.0
H2289 H 0.86509 0.69268 0.69435 0.0
H2290 H 0.89445 0.77534 0.69461 0.0
H2291 H 0.91008 0.90892 0.69434 0.0
H2292 H 0.87494 0.12594 0.69483 0.0
H2293 H 0.8457 0.0432 0.6952 0.0
C2294 C 0.84419 0.88052 0.69494 0.0
C2295 C 0.84538 0.79514 0.69463 0.0
C2296 C 0.86095 0.92823 0.69495 0.0
C2297 C 0.86371 0.75813 0.69458 0.0
C2298 C 0.8805 0.80537 0.69468 0.0
C2299 C 0.89604 0.93835 0.69455 0.0
C2300 C 0.89475 0.02377 0.69452 0.0
C2301 C 0.87928 0.89043 0.69476 0.0
C2302 C 0.87641 0.0605 0.69483 0.0
C2303 C 0.85966 0.01321 0.69504 0.0
H2304 H 0.66261 0.12254 0.44261 0.0
H2305 H 0.62465 0.91978 0.45009 0.0
H2306 H 0.5971 0.01245 0.45129 0.0
H2307 H 0.58358 0.14866 0.44889 0.0
H2308 H 0.62133 0.35185 0.44135 0.0
H2309 H 0.64927 0.26037 0.44137 0.0
C2310 C 0.64831 0.0982 0.44447 0.0
C2311 C 0.64572 0.01383 0.44614 0.0
C2312 C 0.6325 0.15163 0.44496 0.0
C2313 C 0.62708 0.98405 0.44865 0.0
C2314 C 0.6113 0.03701 0.44928 0.0
C2315 C 0.5979 0.17339 0.44727 0.0
C2316 C 0.6003 0.25721 0.44499 0.0
C2317 C 0.61382 0.12058 0.44725 0.0
C2318 C 0.61904 0.28778 0.44309 0.0
C2319 C 0.635 0.23543 0.44306 0.0
H2320 H 0.08457 0.62 0.44564 0.0
H2321 H 0.12197 0.82984 0.4455 0.0
H2322 H 0.1503 0.74094 0.44567 0.0
H2323 H 0.16434 0.60468 0.44507 0.0
H2324 H 0.12694 0.39485 0.44525 0.0
H2325 H 0.09862 0.48375 0.44591 0.0
C2326 C 0.0989 0.64666 0.44564 0.0
C2327 C 0.1011 0.73174 0.4455 0.0
C2328 C 0.1151 0.59538 0.44565 0.0
C2329 C 0.11982 0.76476 0.44557 0.0
C2330 C 0.13603 0.71397 0.44562 0.0
C2331 C 0.15001 0.57801 0.44524 0.0
C2332 C 0.14781 0.49294 0.44505 0.0
C2333 C 0.13382 0.6293 0.44553 0.0
C2334 C 0.12909 0.45993 0.44535 0.0
C2335 C 0.11289 0.51071 0.44568 0.0
H2336 H 0.61554 0.44357 0.31745 0.0
H2337 H 0.57815 0.65285 0.31418 0.0
H2338 H 0.60606 0.74191 0.31356 0.0
H2339 H 0.64107 0.76204 0.31455 0.0
H2340 H 0.67872 0.55402 0.31802 0.0
H2341 H 0.65086 0.46375 0.31795 0.0
C2342 C 0.61351 0.50856 0.31653 0.0
C2343 C 0.59472 0.54103 0.31592 0.0
C2344 C 0.62971 0.56019 0.31626 0.0
C2345 C 0.59241 0.6257 0.31475 0.0
C2346 C 0.60839 0.67706 0.31438 0.0
C2347 C 0.64321 0.69698 0.31523 0.0
C2348 C 0.66199 0.66524 0.31634 0.0
C2349 C 0.6271 0.64514 0.31523 0.0
C2350 C 0.66443 0.58051 0.31721 0.0
C2351 C 0.64849 0.52858 0.31716 0.0
H2352 H 0.16281 0.11816 0.31574 0.0
H2353 H 0.12817 0.33636 0.31726 0.0
H2354 H 0.09872 0.25439 0.31696 0.0
H2355 H 0.08295 0.12129 0.31712 0.0
H2356 H 0.11774 0.90346 0.31573 0.0
H2357 H 0.1471 0.98555 0.31518 0.0
C2358 C 0.14884 0.14818 0.316 0.0
C2359 C 0.14775 0.23353 0.31659 0.0
C2360 C 0.13202 0.10084 0.31593 0.0
C2361 C 0.12948 0.27092 0.31684 0.0
C2362 C 0.11263 0.22408 0.31671 0.0
C2363 C 0.09693 0.09152 0.31665 0.0
C2364 C 0.0981 0.00609 0.31652 0.0
C2365 C 0.11375 0.13903 0.31638 0.0
C2366 C 0.11638 0.96892 0.31587 0.0
C2367 C 0.13318 0.01584 0.31557 0.0
loop_
_geom_bond_atom_site_label_1
_geom_bond_atom_site_label_2
_geom_bond_distance
_geom_bond_site_symmetry_2
_ccdc_geom_bond_type
Co0 O3 1.970 . S
Co0 N17 1.989 . S
Co0 O25 1.967 . S
Co0 O32 1.920 . S
Co1 O4 1.966 . S
Co1 N10 2.022 1_545 S
Co1 N18 1.993 . S
Co1 O26 1.941 . S
C2 O3 1.258 . S
C2 O4 1.263 . S
O3 Co0 1.970 . S
O3 C2 1.258 . S
O4 Co1 1.966 . S
O4 C2 1.263 . S
C5 O6 1.235 . S
C5 O32 1.289 . S
O6 C5 1.235 . S
C7 C9 1.400 . S
C7 N10 1.351 . S
C7 C12 1.501 . S
C8 C9 1.387 . S
C8 N11 1.341 . S
C9 C7 1.400 . S
C9 C8 1.387 . S
N10 Co1 2.022 1_565 S
N10 C7 1.351 . S
N10 N11 1.365 . S
N11 C8 1.341 . S
N11 N10 1.365 . S
N11 H31 0.862 . S
C12 C7 1.501 . S
C12 H13 0.961 . S
C12 H14 0.961 . S
C12 H15 0.960 . S
H13 C12 0.961 . S
H14 C12 0.961 . S
H15 C12 0.960 . S
C16 N17 1.342 . S
C16 C20 1.401 . S
C16 C21 1.499 . S
N17 Co0 1.989 . S
N17 C16 1.342 . S
N17 N18 1.388 . S
N18 Co1 1.993 . S
N18 N17 1.388 . S
N18 C19 1.346 . S
C19 N18 1.346 . S
C19 C20 1.396 . S
C19 C29 1.510 1_545 S
C20 C16 1.401 . S
C20 C19 1.396 . S
C21 C16 1.499 . S
C21 H22 0.959 . S
C21 H23 0.960 . S
C21 H24 0.961 . S
H22 C21 0.959 . S
H23 C21 0.960 . S
H24 C21 0.961 . S
O25 Co0 1.967 . S
O25 C33 1.258 . S
O26 Co1 1.941 . S
O26 C33 1.266 . S
H27 C29 0.959 . S
H28 C29 0.961 . S
C29 C19 1.510 1_565 S
C29 H27 0.959 . S
C29 H28 0.961 . S
C29 H30 0.960 . S
H30 C29 0.960 . S
H31 N11 0.862 . S
O32 Co0 1.920 . S
O32 C5 1.289 . S
C33 O25 1.258 . S
C33 O26 1.266 . S
Co34 O37 1.970 1_565 S
Co34 N51 1.989 1_565 S
Co34 O59 1.967 1_565 S
Co34 O66 1.920 . S
Co35 O38 1.966 . S
Co35 N44 2.022 . S
Co35 N52 1.993 . S
Co35 O60 1.941 . S
C36 O37 1.258 . S
C36 O38 1.263 . S
O37 Co34 1.970 1_545 S
O37 C36 1.258 . S
O38 Co35 1.966 . S
O38 C36 1.263 . S
C39 O40 1.235 . S
C39 O66 1.289 . S
O40 C39 1.235 . S
C41 C43 1.400 . S
C41 N44 1.351 . S
C41 C46 1.501 . S
C42 C43 1.387 . S
C42 N45 1.341 . S
C43 C41 1.400 . S
C43 C42 1.387 . S
N44 Co35 2.022 . S
N44 C41 1.351 . S
N44 N45 1.365 . S
N45 C42 1.341 . S
N45 N44 1.365 . S
N45 H65 0.862 . S
C46 C41 1.501 . S
C46 H47 0.961 . S
C46 H48 0.961 . S
C46 H49 0.960 . S
H47 C46 0.961 . S
H48 C46 0.961 . S
H49 C46 0.960 . S
C50 N51 1.342 . S
C50 C54 1.401 . S
C50 C55 1.499 1_545 S
N51 Co34 1.989 1_545 S
N51 C50 1.342 . S
N51 N52 1.388 . S
N52 Co35 1.993 . S
N52 N51 1.388 . S
N52 C53 1.346 . S
C53 N52 1.346 . S
C53 C54 1.396 . S
C53 C63 1.510 . S
C54 C50 1.401 . S
C54 C53 1.396 . S
C55 C50 1.499 1_565 S
C55 H56 0.959 . S
C55 H57 0.960 . S
C55 H58 0.961 . S
H56 C55 0.959 . S
H57 C55 0.960 . S
H58 C55 0.961 . S
O59 Co34 1.967 1_545 S
O59 C67 1.258 . S
O60 Co35 1.941 . S
O60 C67 1.266 . S
H61 C63 0.959 . S
H62 C63 0.961 . S
C63 C53 1.510 . S
C63 H61 0.959 . S
C63 H62 0.961 . S
C63 H64 0.960 . S
H64 C63 0.960 . S
H65 N45 0.862 . S
O66 Co34 1.920 . S
O66 C39 1.289 . S
C67 O59 1.258 . S
C67 O60 1.266 . S
Co68 O71 1.970 1_565 S
Co68 N85 1.989 1_565 S
Co68 O93 1.967 1_565 S
Co68 O100 1.920 . S
Co69 O72 1.966 . S
Co69 N78 2.022 . S
Co69 N86 1.993 . S
Co69 O94 1.941 . S
C70 O71 1.258 . S
C70 O72 1.263 . S
O71 Co68 1.970 1_545 S
O71 C70 1.258 . S
O72 Co69 1.966 . S
O72 C70 1.263 . S
C73 O74 1.235 . S
C73 O100 1.289 . S
O74 C73 1.235 . S
C75 C77 1.400 . S
C75 N78 1.351 . S
C75 C80 1.501 . S
C76 C77 1.387 . S
C76 N79 1.341 . S
C77 C75 1.400 . S
C77 C76 1.387 . S
N78 Co69 2.022 . S
N78 C75 1.351 . S
N78 N79 1.365 . S
N79 C76 1.341 . S
N79 N78 1.365 . S
N79 H99 0.862 . S
C80 C75 1.501 . S
C80 H81 0.961 . S
C80 H82 0.961 . S
C80 H83 0.960 . S
H81 C80 0.961 . S
H82 C80 0.961 . S
H83 C80 0.960 . S
C84 N85 1.342 . S
C84 C88 1.401 . S
C84 C89 1.499 1_545 S
N85 Co68 1.989 1_545 S
N85 C84 1.342 . S
N85 N86 1.388 . S
N86 Co69 1.993 . S
N86 N85 1.388 . S
N86 C87 1.346 . S
C87 N86 1.346 . S
C87 C88 1.396 . S
C87 C97 1.510 . S
C88 C84 1.401 . S
C88 C87 1.396 . S
C89 C84 1.499 1_565 S
C89 H90 0.959 . S
C89 H91 0.960 . S
C89 H92 0.961 . S
H90 C89 0.959 . S
H91 C89 0.960 . S
H92 C89 0.961 . S
O93 Co68 1.967 1_545 S
O93 C101 1.258 . S
O94 Co69 1.941 . S
O94 C101 1.266 . S
H95 C97 0.959 . S
H96 C97 0.961 . S
C97 C87 1.510 . S
C97 H95 0.959 . S
C97 H96 0.961 . S
C97 H98 0.960 . S
H98 C97 0.960 . S
H99 N79 0.862 . S
O100 Co68 1.920 . S
O100 C73 1.289 . S
C101 O93 1.258 . S
C101 O94 1.266 . S
Co102 O105 1.970 . S
Co102 N119 1.989 . S
Co102 O127 1.967 . S
Co102 O134 1.920 . S
Co103 O106 1.966 . S
Co103 N112 2.022 1_545 S
Co103 N120 1.993 . S
Co103 O128 1.941 . S
C104 O105 1.258 . S
C104 O106 1.263 . S
O105 Co102 1.970 . S
O105 C104 1.258 . S
O106 Co103 1.966 . S
O106 C104 1.263 . S
C107 O108 1.235 . S
C107 O134 1.289 . S
O108 C107 1.235 . S
C109 C111 1.400 . S
C109 N112 1.351 . S
C109 C114 1.501 . S
C110 C111 1.387 . S
C110 N113 1.341 . S
C111 C109 1.400 . S
C111 C110 1.387 . S
N112 Co103 2.022 1_565 S
N112 C109 1.351 . S
N112 N113 1.365 . S
N113 C110 1.341 . S
N113 N112 1.365 . S
N113 H133 0.862 . S
C114 C109 1.501 . S
C114 H115 0.961 . S
C114 H116 0.961 . S
C114 H117 0.960 . S
H115 C114 0.961 . S
H116 C114 0.961 . S
H117 C114 0.960 . S
C118 N119 1.342 . S
C118 C122 1.401 . S
C118 C123 1.499 . S
N119 Co102 1.989 . S
N119 C118 1.342 . S
N119 N120 1.388 . S
N120 Co103 1.993 . S
N120 N119 1.388 . S
N120 C121 1.346 . S
C121 N120 1.346 . S
C121 C122 1.396 . S
C121 C131 1.510 1_545 S
C122 C118 1.401 . S
C122 C121 1.396 . S
C123 C118 1.499 . S
C123 H124 0.959 . S
C123 H125 0.960 . S
C123 H126 0.961 . S
H124 C123 0.959 . S
H125 C123 0.960 . S
H126 C123 0.961 . S
O127 Co102 1.967 . S
O127 C135 1.258 . S
O128 Co103 1.941 . S
O128 C135 1.266 . S
H129 C131 0.959 . S
H130 C131 0.961 . S
C131 C121 1.510 1_565 S
C131 H129 0.959 . S
C131 H130 0.961 . S
C131 H132 0.960 . S
H132 C131 0.960 . S
H133 N113 0.862 . S
O134 Co102 1.920 . S
O134 C107 1.289 . S
C135 O127 1.258 . S
C135 O128 1.266 . S
Co136 O139 1.970 . S
Co136 N153 1.989 . S
Co136 O161 1.967 . S
Co136 O168 1.920 . S
Co137 O140 1.966 . S
Co137 N146 2.022 1_565 S
Co137 N154 1.993 . S
Co137 O162 1.941 . S
C138 O139 1.258 . S
C138 O140 1.263 . S
O139 Co136 1.970 . S
O139 C138 1.258 . S
O140 Co137 1.966 . S
O140 C138 1.263 . S
C141 O142 1.235 . S
C141 O168 1.289 . S
O142 C141 1.235 . S
C143 C145 1.400 . S
C143 N146 1.351 . S
C143 C148 1.501 . S
C144 C145 1.387 . S
C144 N147 1.341 . S
C145 C143 1.400 . S
C145 C144 1.387 . S
N146 Co137 2.022 1_545 S
N146 C143 1.351 . S
N146 N147 1.365 . S
N147 C144 1.341 . S
N147 N146 1.365 . S
N147 H167 0.862 . S
C148 C143 1.501 . S
C148 H149 0.961 . S
C148 H150 0.961 . S
C148 H151 0.960 . S
H149 C148 0.961 . S
H150 C148 0.961 . S
H151 C148 0.960 . S
C152 N153 1.342 . S
C152 C156 1.401 . S
C152 C157 1.499 . S
N153 Co136 1.989 . S
N153 C152 1.342 . S
N153 N154 1.388 . S
N154 Co137 1.993 . S
N154 N153 1.388 . S
N154 C155 1.346 . S
C155 N154 1.346 . S
C155 C156 1.396 . S
C155 C165 1.510 1_565 S
C156 C152 1.401 . S
C156 C155 1.396 . S
C157 C152 1.499 . S
C157 H158 0.959 . S
C157 H159 0.960 . S
C157 H160 0.961 . S
H158 C157 0.959 . S
H159 C157 0.960 . S
H160 C157 0.961 . S
O161 Co136 1.967 . S
O161 C169 1.258 . S
O162 Co137 1.941 . S
O162 C169 1.266 . S
H163 C165 0.959 . S
H164 C165 0.961 . S
C165 C155 1.510 1_545 S
C165 H163 0.959 . S
C165 H164 0.961 . S
C165 H166 0.960 . S
H166 C165 0.960 . S
H167 N147 0.862 . S
O168 Co136 1.920 . S
O168 C141 1.289 . S
C169 O161 1.258 . S
C169 O162 1.266 . S
Co170 O173 1.970 1_545 S
Co170 N187 1.989 1_545 S
Co170 O195 1.967 1_545 S
Co170 O202 1.920 . S
Co171 O174 1.966 . S
Co171 N180 2.022 . S
Co171 N188 1.993 . S
Co171 O196 1.941 . S
C172 O173 1.258 . S
C172 O174 1.263 . S
O173 Co170 1.970 1_565 S
O173 C172 1.258 . S
O174 Co171 1.966 . S
O174 C172 1.263 . S
C175 O176 1.235 . S
C175 O202 1.289 . S
O176 C175 1.235 . S
C177 C179 1.400 . S
C177 N180 1.351 . S
C177 C182 1.501 . S
C178 C179 1.387 . S
C178 N181 1.341 . S
C179 C177 1.400 . S
C179 C178 1.387 . S
N180 Co171 2.022 . S
N180 C177 1.351 . S
N180 N181 1.365 . S
N181 C178 1.341 . S
N181 N180 1.365 . S
N181 H201 0.862 . S
C182 C177 1.501 . S
C182 H183 0.961 . S
C182 H184 0.961 . S
C182 H185 0.960 . S
H183 C182 0.961 . S
H184 C182 0.961 . S
H185 C182 0.960 . S
C186 N187 1.342 . S
C186 C190 1.401 . S
C186 C191 1.499 1_565 S
N187 Co170 1.989 1_565 S
N187 C186 1.342 . S
N187 N188 1.388 . S
N188 Co171 1.993 . S
N188 N187 1.388 . S
N188 C189 1.346 . S
C189 N188 1.346 . S
C189 C190 1.396 . S
C189 C199 1.510 . S
C190 C186 1.401 . S
C190 C189 1.396 . S
C191 C186 1.499 1_545 S
C191 H192 0.959 . S
C191 H193 0.960 . S
C191 H194 0.961 . S
H192 C191 0.959 . S
H193 C191 0.960 . S
H194 C191 0.961 . S
O195 Co170 1.967 1_565 S
O195 C203 1.258 . S
O196 Co171 1.941 . S
O196 C203 1.266 . S
H197 C199 0.959 . S
H198 C199 0.961 . S
C199 C189 1.510 . S
C199 H197 0.959 . S
C199 H198 0.961 . S
C199 H200 0.960 . S
H200 C199 0.960 . S
H201 N181 0.862 . S
O202 Co170 1.920 . S
O202 C175 1.289 . S
C203 O195 1.258 . S
C203 O196 1.266 . S
Co204 O207 1.970 1_545 S
Co204 N221 1.989 1_545 S
Co204 O229 1.967 1_545 S
Co204 O236 1.920 . S
Co205 O208 1.966 . S
Co205 N214 2.022 . S
Co205 N222 1.993 . S
Co205 O230 1.941 . S
C206 O207 1.258 . S
C206 O208 1.263 . S
O207 Co204 1.970 1_565 S
O207 C206 1.258 . S
O208 Co205 1.966 . S
O208 C206 1.263 . S
C209 O210 1.235 . S
C209 O236 1.289 . S
O210 C209 1.235 . S
C211 C213 1.400 . S
C211 N214 1.351 . S
C211 C216 1.501 . S
C212 C213 1.387 . S
C212 N215 1.341 . S
C213 C211 1.400 . S
C213 C212 1.387 . S
N214 Co205 2.022 . S
N214 C211 1.351 . S
N214 N215 1.365 . S
N215 C212 1.341 . S
N215 N214 1.365 . S
N215 H235 0.862 . S
C216 C211 1.501 . S
C216 H217 0.961 . S
C216 H218 0.961 . S
C216 H219 0.960 . S
H217 C216 0.961 . S
H218 C216 0.961 . S
H219 C216 0.960 . S
C220 N221 1.342 . S
C220 C224 1.401 . S
C220 C225 1.499 1_565 S
N221 Co204 1.989 1_565 S
N221 C220 1.342 . S
N221 N222 1.388 . S
N222 Co205 1.993 . S
N222 N221 1.388 . S
N222 C223 1.346 . S
C223 N222 1.346 . S
C223 C224 1.396 . S
C223 C233 1.510 . S
C224 C220 1.401 . S
C224 C223 1.396 . S
C225 C220 1.499 1_545 S
C225 H226 0.959 . S
C225 H227 0.960 . S
C225 H228 0.961 . S
H226 C225 0.959 . S
H227 C225 0.960 . S
H228 C225 0.961 . S
O229 Co204 1.967 1_565 S
O229 C237 1.258 . S
O230 Co205 1.941 . S
O230 C237 1.266 . S
H231 C233 0.959 . S
H232 C233 0.961 . S
C233 C223 1.510 . S
C233 H231 0.959 . S
C233 H232 0.961 . S
C233 H234 0.960 . S
H234 C233 0.960 . S
H235 N215 0.862 . S
O236 Co204 1.920 . S
O236 C209 1.289 . S
C237 O229 1.258 . S
C237 O230 1.266 . S
Co238 O241 1.970 . S
Co238 N255 1.989 . S
Co238 O263 1.967 . S
Co238 O270 1.920 . S
Co239 O242 1.966 . S
Co239 N248 2.022 1_565 S
Co239 N256 1.993 . S
Co239 O264 1.941 . S
C240 O241 1.258 . S
C240 O242 1.263 . S
O241 Co238 1.970 . S
O241 C240 1.258 . S
O242 Co239 1.966 . S
O242 C240 1.263 . S
C243 O244 1.235 . S
C243 O270 1.289 . S
O244 C243 1.235 . S
C245 C247 1.400 . S
C245 N248 1.351 . S
C245 C250 1.501 . S
C246 C247 1.387 . S
C246 N249 1.341 . S
C247 C245 1.400 . S
C247 C246 1.387 . S
N248 Co239 2.022 1_545 S
N248 C245 1.351 . S
N248 N249 1.365 . S
N249 C246 1.341 . S
N249 N248 1.365 . S
N249 H269 0.862 . S
C250 C245 1.501 . S
C250 H251 0.961 . S
C250 H252 0.961 . S
C250 H253 0.960 . S
H251 C250 0.961 . S
H252 C250 0.961 . S
H253 C250 0.960 . S
C254 N255 1.342 . S
C254 C258 1.401 . S
C254 C259 1.499 . S
N255 Co238 1.989 . S
N255 C254 1.342 . S
N255 N256 1.388 . S
N256 Co239 1.993 . S
N256 N255 1.388 . S
N256 C257 1.346 . S
C257 N256 1.346 . S
C257 C258 1.396 . S
C257 C267 1.510 1_565 S
C258 C254 1.401 . S
C258 C257 1.396 . S
C259 C254 1.499 . S
C259 H260 0.959 . S
C259 H261 0.960 . S
C259 H262 0.961 . S
H260 C259 0.959 . S
H261 C259 0.960 . S
H262 C259 0.961 . S
O263 Co238 1.967 . S
O263 C271 1.258 . S
O264 Co239 1.941 . S
O264 C271 1.266 . S
H265 C267 0.959 . S
H266 C267 0.961 . S
C267 C257 1.510 1_545 S
C267 H265 0.959 . S
C267 H266 0.961 . S
C267 H268 0.960 . S
H268 C267 0.960 . S
H269 N249 0.862 . S
O270 Co238 1.920 . S
O270 C243 1.289 . S
C271 O263 1.258 . S
C271 O264 1.266 . S
Co272 O275 1.970 . S
Co272 N289 1.989 . S
Co272 O297 1.967 . S
Co272 O304 1.920 . S
Co273 O276 1.966 . S
Co273 N282 2.022 . S
Co273 N290 1.993 . S
Co273 O298 1.941 . S
C274 O275 1.258 . S
C274 O276 1.263 . S
O275 Co272 1.970 . S
O275 C274 1.258 . S
O276 Co273 1.966 . S
O276 C274 1.263 . S
C277 O278 1.235 . S
C277 O304 1.289 . S
O278 C277 1.235 . S
C279 C281 1.400 . S
C279 N282 1.351 . S
C279 C284 1.501 . S
C280 C281 1.387 . S
C280 N283 1.341 . S
C281 C279 1.400 . S
C281 C280 1.387 . S
N282 Co273 2.022 . S
N282 C279 1.351 . S
N282 N283 1.365 . S
N283 C280 1.341 . S
N283 N282 1.365 . S
N283 H303 0.862 . S
C284 C279 1.501 . S
C284 H285 0.961 . S
C284 H286 0.961 . S
C284 H287 0.960 . S
H285 C284 0.961 . S
H286 C284 0.961 . S
H287 C284 0.960 . S
C288 N289 1.342 . S
C288 C292 1.401 . S
C288 C293 1.499 . S
N289 Co272 1.989 . S
N289 C288 1.342 . S
N289 N290 1.388 . S
N290 Co273 1.993 . S
N290 N289 1.388 . S
N290 C291 1.346 . S
C291 N290 1.346 . S
C291 C292 1.396 . S
C291 C301 1.510 . S
C292 C288 1.401 . S
C292 C291 1.396 . S
C293 C288 1.499 . S
C293 H294 0.959 . S
C293 H295 0.960 . S
C293 H296 0.961 . S
H294 C293 0.959 . S
H295 C293 0.960 . S
H296 C293 0.961 . S
O297 Co272 1.967 . S
O297 C305 1.258 . S
O298 Co273 1.941 . S
O298 C305 1.266 . S
H299 C301 0.959 . S
H300 C301 0.961 . S
C301 C291 1.510 . S
C301 H299 0.959 . S
C301 H300 0.961 . S
C301 H302 0.960 . S
H302 C301 0.960 . S
H303 N283 0.862 . S
O304 Co272 1.920 . S
O304 C277 1.289 . S
C305 O297 1.258 . S
C305 O298 1.266 . S
Co306 O309 1.970 . S
Co306 N323 1.989 . S
Co306 O331 1.967 . S
Co306 O338 1.920 . S
Co307 O310 1.966 . S
Co307 N316 2.022 . S
Co307 N324 1.993 . S
Co307 O332 1.941 . S
C308 O309 1.258 . S
C308 O310 1.263 . S
O309 Co306 1.970 . S
O309 C308 1.258 . S
O310 Co307 1.966 . S
O310 C308 1.263 . S
C311 O312 1.235 . S
C311 O338 1.289 . S
O312 C311 1.235 . S
C313 C315 1.400 . S
C313 N316 1.351 . S
C313 C318 1.501 . S
C314 C315 1.387 . S
C314 N317 1.341 . S
C315 C313 1.400 . S
C315 C314 1.387 . S
N316 Co307 2.022 . S
N316 C313 1.351 . S
N316 N317 1.365 . S
N317 C314 1.341 . S
N317 N316 1.365 . S
N317 H337 0.862 . S
C318 C313 1.501 . S
C318 H319 0.961 . S
C318 H320 0.961 . S
C318 H321 0.960 . S
H319 C318 0.961 . S
H320 C318 0.961 . S
H321 C318 0.960 . S
C322 N323 1.342 . S
C322 C326 1.401 . S
C322 C327 1.499 . S
N323 Co306 1.989 . S
N323 C322 1.342 . S
N323 N324 1.388 . S
N324 Co307 1.993 . S
N324 N323 1.388 . S
N324 C325 1.346 . S
C325 N324 1.346 . S
C325 C326 1.396 . S
C325 C335 1.510 . S
C326 C322 1.401 . S
C326 C325 1.396 . S
C327 C322 1.499 . S
C327 H328 0.959 . S
C327 H329 0.960 . S
C327 H330 0.961 . S
H328 C327 0.959 . S
H329 C327 0.960 . S
H330 C327 0.961 . S
O331 Co306 1.967 . S
O331 C339 1.258 . S
O332 Co307 1.941 . S
O332 C339 1.266 . S
H333 C335 0.959 . S
H334 C335 0.961 . S
C335 C325 1.510 . S
C335 H333 0.959 . S
C335 H334 0.961 . S
C335 H336 0.960 . S
H336 C335 0.960 . S
H337 N317 0.862 . S
O338 Co306 1.920 . S
O338 C311 1.289 . S
C339 O331 1.258 . S
C339 O332 1.266 . S
Co340 O343 1.970 . S
Co340 N357 1.989 . S
Co340 O365 1.967 . S
Co340 O372 1.920 . S
Co341 O344 1.966 . S
Co341 N350 2.022 . S
Co341 N358 1.993 . S
Co341 O366 1.941 . S
C342 O343 1.258 . S
C342 O344 1.263 . S
O343 Co340 1.970 . S
O343 C342 1.258 . S
O344 Co341 1.966 . S
O344 C342 1.263 . S
C345 O346 1.235 . S
C345 O372 1.289 . S
O346 C345 1.235 . S
C347 C349 1.400 . S
C347 N350 1.351 . S
C347 C352 1.501 . S
C348 C349 1.387 . S
C348 N351 1.341 . S
C349 C347 1.400 . S
C349 C348 1.387 . S
N350 Co341 2.022 . S
N350 C347 1.351 . S
N350 N351 1.365 . S
N351 C348 1.341 . S
N351 N350 1.365 . S
N351 H371 0.862 . S
C352 C347 1.501 . S
C352 H353 0.961 . S
C352 H354 0.961 . S
C352 H355 0.960 . S
H353 C352 0.961 . S
H354 C352 0.961 . S
H355 C352 0.960 . S
C356 N357 1.342 . S
C356 C360 1.401 . S
C356 C361 1.499 . S
N357 Co340 1.989 . S
N357 C356 1.342 . S
N357 N358 1.388 . S
N358 Co341 1.993 . S
N358 N357 1.388 . S
N358 C359 1.346 . S
C359 N358 1.346 . S
C359 C360 1.396 . S
C359 C369 1.510 . S
C360 C356 1.401 . S
C360 C359 1.396 . S
C361 C356 1.499 . S
C361 H362 0.959 . S
C361 H363 0.960 . S
C361 H364 0.961 . S
H362 C361 0.959 . S
H363 C361 0.960 . S
H364 C361 0.961 . S
O365 Co340 1.967 . S
O365 C373 1.258 . S
O366 Co341 1.941 . S
O366 C373 1.266 . S
H367 C369 0.959 . S
H368 C369 0.961 . S
C369 C359 1.510 . S
C369 H367 0.959 . S
C369 H368 0.961 . S
C369 H370 0.960 . S
H370 C369 0.960 . S
H371 N351 0.862 . S
O372 Co340 1.920 . S
O372 C345 1.289 . S
C373 O365 1.258 . S
C373 O366 1.266 . S
Co374 O377 1.970 . S
Co374 N391 1.989 . S
Co374 O399 1.967 . S
Co374 O406 1.920 . S
Co375 O378 1.966 . S
Co375 N384 2.022 . S
Co375 N392 1.993 . S
Co375 O400 1.941 . S
C376 O377 1.258 . S
C376 O378 1.263 . S
O377 Co374 1.970 . S
O377 C376 1.258 . S
O378 Co375 1.966 . S
O378 C376 1.263 . S
C379 O380 1.235 . S
C379 O406 1.289 . S
O380 C379 1.235 . S
C381 C383 1.400 . S
C381 N384 1.351 . S
C381 C386 1.501 . S
C382 C383 1.387 . S
C382 N385 1.341 . S
C383 C381 1.400 . S
C383 C382 1.387 . S
N384 Co375 2.022 . S
N384 C381 1.351 . S
N384 N385 1.365 . S
N385 C382 1.341 . S
N385 N384 1.365 . S
N385 H405 0.862 . S
C386 C381 1.501 . S
C386 H387 0.961 . S
C386 H388 0.961 . S
C386 H389 0.960 . S
H387 C386 0.961 . S
H388 C386 0.961 . S
H389 C386 0.960 . S
C390 N391 1.342 . S
C390 C394 1.401 . S
C390 C395 1.499 . S
N391 Co374 1.989 . S
N391 C390 1.342 . S
N391 N392 1.388 . S
N392 Co375 1.993 . S
N392 N391 1.388 . S
N392 C393 1.346 . S
C393 N392 1.346 . S
C393 C394 1.396 . S
C393 C403 1.510 . S
C394 C390 1.401 . S
C394 C393 1.396 . S
C395 C390 1.499 . S
C395 H396 0.959 . S
C395 H397 0.960 . S
C395 H398 0.961 . S
H396 C395 0.959 . S
H397 C395 0.960 . S
H398 C395 0.961 . S
O399 Co374 1.967 . S
O399 C407 1.258 . S
O400 Co375 1.941 . S
O400 C407 1.266 . S
H401 C403 0.959 . S
H402 C403 0.961 . S
C403 C393 1.510 . S
C403 H401 0.959 . S
C403 H402 0.961 . S
C403 H404 0.960 . S
H404 C403 0.960 . S
H405 N385 0.862 . S
O406 Co374 1.920 . S
O406 C379 1.289 . S
C407 O399 1.258 . S
C407 O400 1.266 . S
Co408 O411 1.970 . S
Co408 N425 1.989 . S
Co408 O433 1.967 . S
Co408 O440 1.920 . S
Co409 O412 1.966 . S
Co409 N418 2.022 . S
Co409 N426 1.993 . S
Co409 O434 1.941 . S
C410 O411 1.258 . S
C410 O412 1.263 . S
O411 Co408 1.970 . S
O411 C410 1.258 . S
O412 Co409 1.966 . S
O412 C410 1.263 . S
C413 O414 1.235 . S
C413 O440 1.289 . S
O414 C413 1.235 . S
C415 C417 1.400 . S
C415 N418 1.351 . S
C415 C420 1.501 . S
C416 C417 1.387 . S
C416 N419 1.341 . S
C417 C415 1.400 . S
C417 C416 1.387 . S
N418 Co409 2.022 . S
N418 C415 1.351 . S
N418 N419 1.365 . S
N419 C416 1.341 . S
N419 N418 1.365 . S
N419 H439 0.862 . S
C420 C415 1.501 . S
C420 H421 0.961 . S
C420 H422 0.961 . S
C420 H423 0.960 . S
H421 C420 0.961 . S
H422 C420 0.961 . S
H423 C420 0.960 . S
C424 N425 1.342 . S
C424 C428 1.401 . S
C424 C429 1.499 . S
N425 Co408 1.989 . S
N425 C424 1.342 . S
N425 N426 1.388 . S
N426 Co409 1.993 . S
N426 N425 1.388 . S
N426 C427 1.346 . S
C427 N426 1.346 . S
C427 C428 1.396 . S
C427 C437 1.510 . S
C428 C424 1.401 . S
C428 C427 1.396 . S
C429 C424 1.499 . S
C429 H430 0.959 . S
C429 H431 0.960 . S
C429 H432 0.961 . S
H430 C429 0.959 . S
H431 C429 0.960 . S
H432 C429 0.961 . S
O433 Co408 1.967 . S
O433 C441 1.258 . S
O434 Co409 1.941 . S
O434 C441 1.266 . S
H435 C437 0.959 . S
H436 C437 0.961 . S
C437 C427 1.510 . S
C437 H435 0.959 . S
C437 H436 0.961 . S
C437 H438 0.960 . S
H438 C437 0.960 . S
H439 N419 0.862 . S
O440 Co408 1.920 . S
O440 C413 1.289 . S
C441 O433 1.258 . S
C441 O434 1.266 . S
Co442 O445 1.970 . S
Co442 N459 1.989 . S
Co442 O467 1.967 . S
Co442 O474 1.920 . S
Co443 O446 1.966 . S
Co443 N452 2.022 . S
Co443 N460 1.993 . S
Co443 O468 1.941 . S
C444 O445 1.258 . S
C444 O446 1.263 . S
O445 Co442 1.970 . S
O445 C444 1.258 . S
O446 Co443 1.966 . S
O446 C444 1.263 . S
C447 O448 1.235 . S
C447 O474 1.289 . S
O448 C447 1.235 . S
C449 C451 1.400 . S
C449 N452 1.351 . S
C449 C454 1.501 . S
C450 C451 1.387 . S
C450 N453 1.341 . S
C451 C449 1.400 . S
C451 C450 1.387 . S
N452 Co443 2.022 . S
N452 C449 1.351 . S
N452 N453 1.365 . S
N453 C450 1.341 . S
N453 N452 1.365 . S
N453 H473 0.862 . S
C454 C449 1.501 . S
C454 H455 0.961 . S
C454 H456 0.961 . S
C454 H457 0.960 . S
H455 C454 0.961 . S
H456 C454 0.961 . S
H457 C454 0.960 . S
C458 N459 1.342 . S
C458 C462 1.401 . S
C458 C463 1.499 . S
N459 Co442 1.989 . S
N459 C458 1.342 . S
N459 N460 1.388 . S
N460 Co443 1.993 . S
N460 N459 1.388 . S
N460 C461 1.346 . S
C461 N460 1.346 . S
C461 C462 1.396 . S
C461 C471 1.510 . S
C462 C458 1.401 . S
C462 C461 1.396 . S
C463 C458 1.499 . S
C463 H464 0.959 . S
C463 H465 0.960 . S
C463 H466 0.961 . S
H464 C463 0.959 . S
H465 C463 0.960 . S
H466 C463 0.961 . S
O467 Co442 1.967 . S
O467 C475 1.258 . S
O468 Co443 1.941 . S
O468 C475 1.266 . S
H469 C471 0.959 . S
H470 C471 0.961 . S
C471 C461 1.510 . S
C471 H469 0.959 . S
C471 H470 0.961 . S
C471 H472 0.960 . S
H472 C471 0.960 . S
H473 N453 0.862 . S
O474 Co442 1.920 . S
O474 C447 1.289 . S
C475 O467 1.258 . S
C475 O468 1.266 . S
Co476 O479 1.970 . S
Co476 N493 1.989 . S
Co476 O501 1.967 . S
Co476 O508 1.920 . S
Co477 O480 1.966 . S
Co477 N486 2.022 . S
Co477 N494 1.993 . S
Co477 O502 1.941 . S
C478 O479 1.258 . S
C478 O480 1.263 . S
O479 Co476 1.970 . S
O479 C478 1.258 . S
O480 Co477 1.966 . S
O480 C478 1.263 . S
C481 O482 1.235 . S
C481 O508 1.289 . S
O482 C481 1.235 . S
C483 C485 1.400 . S
C483 N486 1.351 . S
C483 C488 1.501 . S
C484 C485 1.387 . S
C484 N487 1.341 . S
C485 C483 1.400 . S
C485 C484 1.387 . S
N486 Co477 2.022 . S
N486 C483 1.351 . S
N486 N487 1.365 . S
N487 C484 1.341 . S
N487 N486 1.365 . S
N487 H507 0.862 . S
C488 C483 1.501 . S
C488 H489 0.961 . S
C488 H490 0.961 . S
C488 H491 0.960 . S
H489 C488 0.961 . S
H490 C488 0.961 . S
H491 C488 0.960 . S
C492 N493 1.342 . S
C492 C496 1.401 . S
C492 C497 1.499 . S
N493 Co476 1.989 . S
N493 C492 1.342 . S
N493 N494 1.388 . S
N494 Co477 1.993 . S
N494 N493 1.388 . S
N494 C495 1.346 . S
C495 N494 1.346 . S
C495 C496 1.396 . S
C495 C505 1.510 . S
C496 C492 1.401 . S
C496 C495 1.396 . S
C497 C492 1.499 . S
C497 H498 0.959 . S
C497 H499 0.960 . S
C497 H500 0.961 . S
H498 C497 0.959 . S
H499 C497 0.960 . S
H500 C497 0.961 . S
O501 Co476 1.967 . S
O501 C509 1.258 . S
O502 Co477 1.941 . S
O502 C509 1.266 . S
H503 C505 0.959 . S
H504 C505 0.961 . S
C505 C495 1.510 . S
C505 H503 0.959 . S
C505 H504 0.961 . S
C505 H506 0.960 . S
H506 C505 0.960 . S
H507 N487 0.862 . S
O508 Co476 1.920 . S
O508 C481 1.289 . S
C509 O501 1.258 . S
C509 O502 1.266 . S
Co510 O513 1.970 . S
Co510 N527 1.989 . S
Co510 O535 1.967 . S
Co510 O542 1.920 . S
Co511 O514 1.966 . S
Co511 N520 2.022 . S
Co511 N528 1.993 . S
Co511 O536 1.941 . S
C512 O513 1.258 . S
C512 O514 1.263 . S
O513 Co510 1.970 . S
O513 C512 1.258 . S
O514 Co511 1.966 . S
O514 C512 1.263 . S
C515 O516 1.235 . S
C515 O542 1.289 . S
O516 C515 1.235 . S
C517 C519 1.400 . S
C517 N520 1.351 . S
C517 C522 1.501 . S
C518 C519 1.387 . S
C518 N521 1.341 . S
C519 C517 1.400 . S
C519 C518 1.387 . S
N520 Co511 2.022 . S
N520 C517 1.351 . S
N520 N521 1.365 . S
N521 C518 1.341 . S
N521 N520 1.365 . S
N521 H541 0.862 . S
C522 C517 1.501 . S
C522 H523 0.961 . S
C522 H524 0.961 . S
C522 H525 0.960 . S
H523 C522 0.961 . S
H524 C522 0.961 . S
H525 C522 0.960 . S
C526 N527 1.342 . S
C526 C530 1.401 . S
C526 C531 1.499 . S
N527 Co510 1.989 . S
N527 C526 1.342 . S
N527 N528 1.388 . S
N528 Co511 1.993 . S
N528 N527 1.388 . S
N528 C529 1.346 . S
C529 N528 1.346 . S
C529 C530 1.396 . S
C529 C539 1.510 . S
C530 C526 1.401 . S
C530 C529 1.396 . S
C531 C526 1.499 . S
C531 H532 0.959 . S
C531 H533 0.960 . S
C531 H534 0.961 . S
H532 C531 0.959 . S
H533 C531 0.960 . S
H534 C531 0.961 . S
O535 Co510 1.967 . S
O535 C543 1.258 . S
O536 Co511 1.941 . S
O536 C543 1.266 . S
H537 C539 0.959 . S
H538 C539 0.961 . S
C539 C529 1.510 . S
C539 H537 0.959 . S
C539 H538 0.961 . S
C539 H540 0.960 . S
H540 C539 0.960 . S
H541 N521 0.862 . S
O542 Co510 1.920 . S
O542 C515 1.289 . S
C543 O535 1.258 . S
C543 O536 1.266 . S
Co544 O547 1.970 . S
Co544 N561 1.989 . S
Co544 O569 1.967 . S
Co544 O576 1.920 . S
Co545 O548 1.966 . S
Co545 N554 2.022 1_545 S
Co545 N562 1.993 . S
Co545 O570 1.941 . S
C546 O547 1.258 . S
C546 O548 1.263 . S
O547 Co544 1.970 . S
O547 C546 1.258 . S
O548 Co545 1.966 . S
O548 C546 1.263 . S
C549 O550 1.235 . S
C549 O576 1.289 . S
O550 C549 1.235 . S
C551 C553 1.400 . S
C551 N554 1.351 . S
C551 C556 1.501 . S
C552 C553 1.387 . S
C552 N555 1.341 . S
C553 C551 1.400 . S
C553 C552 1.387 . S
N554 Co545 2.022 1_565 S
N554 C551 1.351 . S
N554 N555 1.365 . S
N555 C552 1.341 . S
N555 N554 1.365 . S
N555 H575 0.862 . S
C556 C551 1.501 . S
C556 H557 0.961 . S
C556 H558 0.961 . S
C556 H559 0.960 . S
H557 C556 0.961 . S
H558 C556 0.961 . S
H559 C556 0.960 . S
C560 N561 1.342 . S
C560 C564 1.401 . S
C560 C565 1.499 . S
N561 Co544 1.989 . S
N561 C560 1.342 . S
N561 N562 1.388 . S
N562 Co545 1.993 . S
N562 N561 1.388 . S
N562 C563 1.346 . S
C563 N562 1.346 . S
C563 C564 1.396 . S
C563 C573 1.510 1_545 S
C564 C560 1.401 . S
C564 C563 1.396 . S
C565 C560 1.499 . S
C565 H566 0.959 . S
C565 H567 1.010 . S
C565 H568 0.961 . S
H566 C565 0.959 . S
H567 C565 1.010 . S
H568 C565 0.961 . S
O569 Co544 1.967 . S
O569 C577 1.258 . S
O570 Co545 1.941 . S
O570 C577 1.266 . S
H571 C573 0.959 . S
H572 C573 0.961 . S
C573 C563 1.510 1_565 S
C573 H571 0.959 . S
C573 H572 0.961 . S
C573 H574 0.960 . S
H574 C573 0.960 . S
H575 N555 0.862 . S
O576 Co544 1.920 . S
O576 C549 1.289 . S
C577 O569 1.258 . S
C577 O570 1.266 . S
Co578 O581 1.970 1_565 S
Co578 N595 1.989 1_565 S
Co578 O603 1.967 1_565 S
Co578 O610 1.920 . S
Co579 O582 1.966 . S
Co579 N588 2.022 . S
Co579 N596 1.993 . S
Co579 O604 1.941 . S
C580 O581 1.258 . S
C580 O582 1.263 . S
O581 Co578 1.970 1_545 S
O581 C580 1.258 . S
O582 Co579 1.966 . S
O582 C580 1.263 . S
C583 O584 1.235 . S
C583 O610 1.289 . S
O584 C583 1.235 . S
C585 C587 1.400 . S
C585 N588 1.351 . S
C585 C590 1.501 . S
C586 C587 1.387 . S
C586 N589 1.341 . S
C587 C585 1.400 . S
C587 C586 1.387 . S
N588 Co579 2.022 . S
N588 C585 1.351 . S
N588 N589 1.365 . S
N589 C586 1.341 . S
N589 N588 1.365 . S
N589 H609 0.862 . S
C590 C585 1.501 . S
C590 H591 0.961 . S
C590 H592 0.961 . S
C590 H593 0.960 . S
H591 C590 0.961 . S
H592 C590 0.961 . S
H593 C590 0.960 . S
C594 N595 1.342 . S
C594 C598 1.401 . S
C594 C599 1.499 1_545 S
N595 Co578 1.989 1_545 S
N595 C594 1.342 . S
N595 N596 1.388 . S
N596 Co579 1.993 . S
N596 N595 1.388 . S
N596 C597 1.346 . S
C597 N596 1.346 . S
C597 C598 1.396 . S
C597 C607 1.510 . S
C598 C594 1.401 . S
C598 C597 1.396 . S
C599 C594 1.499 1_565 S
C599 H600 0.959 . S
C599 H601 0.960 . S
C599 H602 0.961 . S
H600 C599 0.959 . S
H601 C599 0.960 . S
H602 C599 0.961 . S
O603 Co578 1.967 1_545 S
O603 C611 1.258 . S
O604 Co579 1.941 . S
O604 C611 1.266 . S
H605 C607 0.959 . S
H606 C607 0.961 . S
C607 C597 1.510 . S
C607 H605 0.959 . S
C607 H606 0.961 . S
C607 H608 0.960 . S
H608 C607 0.960 . S
H609 N589 0.862 . S
O610 Co578 1.920 . S
O610 C583 1.289 . S
C611 O603 1.258 . S
C611 O604 1.266 . S
Co612 O615 1.970 1_565 S
Co612 N629 1.989 1_565 S
Co612 O637 1.967 1_565 S
Co612 O644 1.920 . S
Co613 O616 1.966 . S
Co613 N622 2.022 . S
Co613 N630 1.993 . S
Co613 O638 1.941 . S
C614 O615 1.258 . S
C614 O616 1.263 . S
O615 Co612 1.970 1_545 S
O615 C614 1.258 . S
O616 Co613 1.966 . S
O616 C614 1.263 . S
C617 O618 1.235 . S
C617 O644 1.289 . S
O618 C617 1.235 . S
C619 C621 1.400 . S
C619 N622 1.351 . S
C619 C624 1.501 . S
C620 C621 1.387 . S
C620 N623 1.341 . S
C621 C619 1.400 . S
C621 C620 1.387 . S
N622 Co613 2.022 . S
N622 C619 1.351 . S
N622 N623 1.365 . S
N623 C620 1.341 . S
N623 N622 1.365 . S
N623 H643 0.862 . S
C624 C619 1.501 . S
C624 H625 0.961 . S
C624 H626 0.961 . S
C624 H627 0.960 . S
H625 C624 0.961 . S
H626 C624 0.961 . S
H627 C624 0.960 . S
C628 N629 1.342 . S
C628 C632 1.401 . S
C628 C633 1.499 1_545 S
N629 Co612 1.989 1_545 S
N629 C628 1.342 . S
N629 N630 1.388 . S
N630 Co613 1.993 . S
N630 N629 1.388 . S
N630 C631 1.346 . S
C631 N630 1.346 . S
C631 C632 1.396 . S
C631 C641 1.510 . S
C632 C628 1.401 . S
C632 C631 1.396 . S
C633 C628 1.499 1_565 S
C633 H634 0.959 . S
C633 H635 1.010 . S
C633 H636 0.961 . S
H634 C633 0.959 . S
H635 C633 1.010 . S
H636 C633 0.961 . S
O637 Co612 1.967 1_545 S
O637 C645 1.258 . S
O638 Co613 1.941 . S
O638 C645 1.266 . S
H639 C641 0.959 . S
H640 C641 0.961 . S
C641 C631 1.510 . S
C641 H639 0.959 . S
C641 H640 0.961 . S
C641 H642 0.960 . S
H642 C641 0.960 . S
H643 N623 0.862 . S
O644 Co612 1.920 . S
O644 C617 1.289 . S
C645 O637 1.258 . S
C645 O638 1.266 . S
Co646 O649 1.970 . S
Co646 N663 1.989 . S
Co646 O671 1.967 . S
Co646 O678 1.920 . S
Co647 O650 1.966 . S
Co647 N656 2.022 1_545 S
Co647 N664 1.993 . S
Co647 O672 1.941 . S
C648 O649 1.258 . S
C648 O650 1.263 . S
O649 Co646 1.970 . S
O649 C648 1.258 . S
O650 Co647 1.966 . S
O650 C648 1.263 . S
C651 O652 1.235 . S
C651 O678 1.289 . S
O652 C651 1.235 . S
C653 C655 1.400 . S
C653 N656 1.351 . S
C653 C658 1.501 . S
C654 C655 1.387 . S
C654 N657 1.341 . S
C655 C653 1.400 . S
C655 C654 1.387 . S
N656 Co647 2.022 1_565 S
N656 C653 1.351 . S
N656 N657 1.365 . S
N657 C654 1.341 . S
N657 N656 1.365 . S
N657 H677 0.862 . S
C658 C653 1.501 . S
C658 H659 0.961 . S
C658 H660 0.961 . S
C658 H661 0.960 . S
H659 C658 0.961 . S
H660 C658 0.961 . S
H661 C658 0.960 . S
C662 N663 1.342 . S
C662 C666 1.401 . S
C662 C667 1.499 . S
N663 Co646 1.989 . S
N663 C662 1.342 . S
N663 N664 1.388 . S
N664 Co647 1.993 . S
N664 N663 1.388 . S
N664 C665 1.346 . S
C665 N664 1.346 . S
C665 C666 1.396 . S
C665 C675 1.510 1_545 S
C666 C662 1.401 . S
C666 C665 1.396 . S
C667 C662 1.499 . S
C667 H668 0.959 . S
C667 H669 0.960 . S
C667 H670 0.961 . S
H668 C667 0.959 . S
H669 C667 0.960 . S
H670 C667 0.961 . S
O671 Co646 1.967 . S
O671 C679 1.258 . S
O672 Co647 1.941 . S
O672 C679 1.266 . S
H673 C675 0.959 . S
H674 C675 0.961 . S
C675 C665 1.510 1_565 S
C675 H673 0.959 . S
C675 H674 0.961 . S
C675 H676 0.960 . S
H676 C675 0.960 . S
H677 N657 0.862 . S
O678 Co646 1.920 . S
O678 C651 1.289 . S
C679 O671 1.258 . S
C679 O672 1.266 . S
Co680 O683 1.970 . S
Co680 N697 1.989 . S
Co680 O705 1.967 . S
Co680 O712 1.920 . S
Co681 O684 1.966 . S
Co681 N690 2.022 1_565 S
Co681 N698 1.993 . S
Co681 O706 1.941 . S
C682 O683 1.258 . S
C682 O684 1.263 . S
O683 Co680 1.970 . S
O683 C682 1.258 . S
O684 Co681 1.966 . S
O684 C682 1.263 . S
C685 O686 1.235 . S
C685 O712 1.289 . S
O686 C685 1.235 . S
C687 C689 1.400 . S
C687 N690 1.351 . S
C687 C692 1.501 . S
C688 C689 1.387 . S
C688 N691 1.341 . S
C689 C687 1.400 . S
C689 C688 1.387 . S
N690 Co681 2.022 1_545 S
N690 C687 1.351 . S
N690 N691 1.365 . S
N691 C688 1.341 . S
N691 N690 1.365 . S
N691 H711 0.862 . S
C692 C687 1.501 . S
C692 H693 0.961 . S
C692 H694 0.961 . S
C692 H695 0.960 . S
H693 C692 0.961 . S
H694 C692 0.961 . S
H695 C692 0.960 . S
C696 N697 1.342 . S
C696 C700 1.401 . S
C696 C701 1.499 . S
N697 Co680 1.989 . S
N697 C696 1.342 . S
N697 N698 1.388 . S
N698 Co681 1.993 . S
N698 N697 1.388 . S
N698 C699 1.346 . S
C699 N698 1.346 . S
C699 C700 1.396 . S
C699 C709 1.510 1_565 S
C700 C696 1.401 . S
C700 C699 1.396 . S
C701 C696 1.499 . S
C701 H702 0.959 . S
C701 H703 1.010 . S
C701 H704 0.961 . S
H702 C701 0.959 . S
H703 C701 1.010 . S
H704 C701 0.961 . S
O705 Co680 1.967 . S
O705 C713 1.258 . S
O706 Co681 1.941 . S
O706 C713 1.266 . S
H707 C709 0.959 . S
H708 C709 0.961 . S
C709 C699 1.510 1_545 S
C709 H707 0.959 . S
C709 H708 0.961 . S
C709 H710 0.960 . S
H710 C709 0.960 . S
H711 N691 0.862 . S
O712 Co680 1.920 . S
O712 C685 1.289 . S
C713 O705 1.258 . S
C713 O706 1.266 . S
Co714 O717 1.970 1_545 S
Co714 N731 1.989 1_545 S
Co714 O739 1.967 1_545 S
Co714 O746 1.920 . S
Co715 O718 1.966 . S
Co715 N724 2.022 . S
Co715 N732 1.993 . S
Co715 O740 1.941 . S
C716 O717 1.258 . S
C716 O718 1.263 . S
O717 Co714 1.970 1_565 S
O717 C716 1.258 . S
O718 Co715 1.966 . S
O718 C716 1.263 . S
C719 O720 1.235 . S
C719 O746 1.289 . S
O720 C719 1.235 . S
C721 C723 1.400 . S
C721 N724 1.351 . S
C721 C726 1.501 . S
C722 C723 1.387 . S
C722 N725 1.341 . S
C723 C721 1.400 . S
C723 C722 1.387 . S
N724 Co715 2.022 . S
N724 C721 1.351 . S
N724 N725 1.365 . S
N725 C722 1.341 . S
N725 N724 1.365 . S
N725 H745 0.862 . S
C726 C721 1.501 . S
C726 H727 0.961 . S
C726 H728 0.961 . S
C726 H729 0.960 . S
H727 C726 0.961 . S
H728 C726 0.961 . S
H729 C726 0.960 . S
C730 N731 1.342 . S
C730 C734 1.401 . S
C730 C735 1.499 1_565 S
N731 Co714 1.989 1_565 S
N731 C730 1.342 . S
N731 N732 1.388 . S
N732 Co715 1.993 . S
N732 N731 1.388 . S
N732 C733 1.346 . S
C733 N732 1.346 . S
C733 C734 1.396 . S
C733 C743 1.510 . S
C734 C730 1.401 . S
C734 C733 1.396 . S
C735 C730 1.499 1_545 S
C735 H736 0.959 . S
C735 H737 0.960 . S
C735 H738 0.961 . S
H736 C735 0.959 . S
H737 C735 0.960 . S
H738 C735 0.961 . S
O739 Co714 1.967 1_565 S
O739 C747 1.258 . S
O740 Co715 1.941 . S
O740 C747 1.266 . S
H741 C743 0.959 . S
H742 C743 0.961 . S
C743 C733 1.510 . S
C743 H741 0.959 . S
C743 H742 0.961 . S
C743 H744 0.960 . S
H744 C743 0.960 . S
H745 N725 0.862 . S
O746 Co714 1.920 . S
O746 C719 1.289 . S
C747 O739 1.258 . S
C747 O740 1.266 . S
Co748 O751 1.970 1_545 S
Co748 N765 1.989 1_545 S
Co748 O773 1.967 1_545 S
Co748 O780 1.920 . S
Co749 O752 1.966 . S
Co749 N758 2.022 . S
Co749 N766 1.993 . S
Co749 O774 1.941 . S
C750 O751 1.258 . S
C750 O752 1.263 . S
O751 Co748 1.970 1_565 S
O751 C750 1.258 . S
O752 Co749 1.966 . S
O752 C750 1.263 . S
C753 O754 1.235 . S
C753 O780 1.289 . S
O754 C753 1.235 . S
C755 C757 1.400 . S
C755 N758 1.351 . S
C755 C760 1.501 . S
C756 C757 1.387 . S
C756 N759 1.341 . S
C757 C755 1.400 . S
C757 C756 1.387 . S
N758 Co749 2.022 . S
N758 C755 1.351 . S
N758 N759 1.365 . S
N759 C756 1.341 . S
N759 N758 1.365 . S
N759 H779 0.862 . S
C760 C755 1.501 . S
C760 H761 0.961 . S
C760 H762 0.961 . S
C760 H763 0.960 . S
H761 C760 0.961 . S
H762 C760 0.961 . S
H763 C760 0.960 . S
C764 N765 1.342 . S
C764 C768 1.401 . S
C764 C769 1.499 1_565 S
N765 Co748 1.989 1_565 S
N765 C764 1.342 . S
N765 N766 1.388 . S
N766 Co749 1.993 . S
N766 N765 1.388 . S
N766 C767 1.346 . S
C767 N766 1.346 . S
C767 C768 1.396 . S
C767 C777 1.510 . S
C768 C764 1.401 . S
C768 C767 1.396 . S
C769 C764 1.499 1_545 S
C769 H770 0.959 . S
C769 H771 1.010 . S
C769 H772 0.961 . S
H770 C769 0.959 . S
H771 C769 1.010 . S
H772 C769 0.961 . S
O773 Co748 1.967 1_565 S
O773 C781 1.258 . S
O774 Co749 1.941 . S
O774 C781 1.266 . S
H775 C777 0.959 . S
H776 C777 0.961 . S
C777 C767 1.510 . S
C777 H775 0.959 . S
C777 H776 0.961 . S
C777 H778 0.960 . S
H778 C777 0.960 . S
H779 N759 0.862 . S
O780 Co748 1.920 . S
O780 C753 1.289 . S
C781 O773 1.258 . S
C781 O774 1.266 . S
Co782 O785 1.970 . S
Co782 N799 1.989 . S
Co782 O807 1.967 . S
Co782 O814 1.920 . S
Co783 O786 1.966 . S
Co783 N792 2.022 1_565 S
Co783 N800 1.993 . S
Co783 O808 1.941 . S
C784 O785 1.258 . S
C784 O786 1.263 . S
O785 Co782 1.970 . S
O785 C784 1.258 . S
O786 Co783 1.966 . S
O786 C784 1.263 . S
C787 O788 1.235 . S
C787 O814 1.289 . S
O788 C787 1.235 . S
C789 C791 1.400 . S
C789 N792 1.351 . S
C789 C794 1.501 . S
C790 C791 1.387 . S
C790 N793 1.341 . S
C791 C789 1.400 . S
C791 C790 1.387 . S
N792 Co783 2.022 1_545 S
N792 C789 1.351 . S
N792 N793 1.365 . S
N793 C790 1.341 . S
N793 N792 1.365 . S
N793 H813 0.862 . S
C794 C789 1.501 . S
C794 H795 0.961 . S
C794 H796 0.961 . S
C794 H797 0.960 . S
H795 C794 0.961 . S
H796 C794 0.961 . S
H797 C794 0.960 . S
C798 N799 1.342 . S
C798 C802 1.401 . S
C798 C803 1.499 . S
N799 Co782 1.989 . S
N799 C798 1.342 . S
N799 N800 1.388 . S
N800 Co783 1.993 . S
N800 N799 1.388 . S
N800 C801 1.346 . S
C801 N800 1.346 . S
C801 C802 1.396 . S
C801 C811 1.510 1_565 S
C802 C798 1.401 . S
C802 C801 1.396 . S
C803 C798 1.499 . S
C803 H804 0.959 . S
C803 H805 0.960 . S
C803 H806 0.961 . S
H804 C803 0.959 . S
H805 C803 0.960 . S
H806 C803 0.961 . S
O807 Co782 1.967 . S
O807 C815 1.258 . S
O808 Co783 1.941 . S
O808 C815 1.266 . S
H809 C811 0.959 . S
H810 C811 0.961 . S
C811 C801 1.510 1_545 S
C811 H809 0.959 . S
C811 H810 0.961 . S
C811 H812 0.960 . S
H812 C811 0.960 . S
H813 N793 0.862 . S
O814 Co782 1.920 . S
O814 C787 1.289 . S
C815 O807 1.258 . S
C815 O808 1.266 . S
Co816 O819 1.970 . S
Co816 N833 1.989 . S
Co816 O841 1.967 . S
Co816 O848 1.920 . S
Co817 O820 1.966 . S
Co817 N826 2.022 . S
Co817 N834 1.993 . S
Co817 O842 1.941 . S
C818 O819 1.258 . S
C818 O820 1.263 . S
O819 Co816 1.970 . S
O819 C818 1.258 . S
O820 Co817 1.966 . S
O820 C818 1.263 . S
C821 O822 1.235 . S
C821 O848 1.289 . S
O822 C821 1.235 . S
C823 C825 1.400 . S
C823 N826 1.351 . S
C823 C828 1.501 . S
C824 C825 1.387 . S
C824 N827 1.341 . S
C825 C823 1.400 . S
C825 C824 1.387 . S
N826 Co817 2.022 . S
N826 C823 1.351 . S
N826 N827 1.365 . S
N827 C824 1.341 . S
N827 N826 1.365 . S
N827 H847 0.862 . S
C828 C823 1.501 . S
C828 H829 0.961 . S
C828 H830 0.961 . S
C828 H831 0.960 . S
H829 C828 0.961 . S
H830 C828 0.961 . S
H831 C828 0.960 . S
C832 N833 1.342 . S
C832 C836 1.401 . S
C832 C837 1.499 . S
N833 Co816 1.989 . S
N833 C832 1.342 . S
N833 N834 1.388 . S
N834 Co817 1.993 . S
N834 N833 1.388 . S
N834 C835 1.346 . S
C835 N834 1.346 . S
C835 C836 1.396 . S
C835 C845 1.510 . S
C836 C832 1.401 . S
C836 C835 1.396 . S
C837 C832 1.499 . S
C837 H838 0.959 . S
C837 H839 1.010 . S
C837 H840 0.961 . S
H838 C837 0.959 . S
H839 C837 1.010 . S
H840 C837 0.961 . S
O841 Co816 1.967 . S
O841 C849 1.258 . S
O842 Co817 1.941 . S
O842 C849 1.266 . S
H843 C845 0.959 . S
H844 C845 0.961 . S
C845 C835 1.510 . S
C845 H843 0.959 . S
C845 H844 0.961 . S
C845 H846 0.960 . S
H846 C845 0.960 . S
H847 N827 0.862 . S
O848 Co816 1.920 . S
O848 C821 1.289 . S
C849 O841 1.258 . S
C849 O842 1.266 . S
Co850 O853 1.970 . S
Co850 N867 1.989 . S
Co850 O875 1.967 . S
Co850 O882 1.920 . S
Co851 O854 1.966 . S
Co851 N860 2.022 . S
Co851 N868 1.993 . S
Co851 O876 1.941 . S
C852 O853 1.258 . S
C852 O854 1.263 . S
O853 Co850 1.970 . S
O853 C852 1.258 . S
O854 Co851 1.966 . S
O854 C852 1.263 . S
C855 O856 1.235 . S
C855 O882 1.289 . S
O856 C855 1.235 . S
C857 C859 1.400 . S
C857 N860 1.351 . S
C857 C862 1.501 . S
C858 C859 1.387 . S
C858 N861 1.341 . S
C859 C857 1.400 . S
C859 C858 1.387 . S
N860 Co851 2.022 . S
N860 C857 1.351 . S
N860 N861 1.365 . S
N861 C858 1.341 . S
N861 N860 1.365 . S
N861 H881 0.862 . S
C862 C857 1.501 . S
C862 H863 0.961 . S
C862 H864 0.961 . S
C862 H865 0.960 . S
H863 C862 0.961 . S
H864 C862 0.961 . S
H865 C862 0.960 . S
C866 N867 1.342 . S
C866 C870 1.401 . S
C866 C871 1.499 . S
N867 Co850 1.989 . S
N867 C866 1.342 . S
N867 N868 1.388 . S
N868 Co851 1.993 . S
N868 N867 1.388 . S
N868 C869 1.346 . S
C869 N868 1.346 . S
C869 C870 1.396 . S
C869 C879 1.510 . S
C870 C866 1.401 . S
C870 C869 1.396 . S
C871 C866 1.499 . S
C871 H872 0.959 . S
C871 H873 0.960 . S
C871 H874 0.961 . S
H872 C871 0.959 . S
H873 C871 0.960 . S
H874 C871 0.961 . S
O875 Co850 1.967 . S
O875 C883 1.258 . S
O876 Co851 1.941 . S
O876 C883 1.266 . S
H877 C879 0.959 . S
H878 C879 0.961 . S
C879 C869 1.510 . S
C879 H877 0.959 . S
C879 H878 0.961 . S
C879 H880 0.960 . S
H880 C879 0.960 . S
H881 N861 0.862 . S
O882 Co850 1.920 . S
O882 C855 1.289 . S
C883 O875 1.258 . S
C883 O876 1.266 . S
Co884 O887 1.970 . S
Co884 N901 1.989 . S
Co884 O909 1.967 . S
Co884 O916 1.920 . S
Co885 O888 1.966 . S
Co885 N894 2.022 . S
Co885 N902 1.993 . S
Co885 O910 1.941 . S
C886 O887 1.258 . S
C886 O888 1.263 . S
O887 Co884 1.970 . S
O887 C886 1.258 . S
O888 Co885 1.966 . S
O888 C886 1.263 . S
C889 O890 1.235 . S
C889 O916 1.289 . S
O890 C889 1.235 . S
C891 C893 1.400 . S
C891 N894 1.351 . S
C891 C896 1.501 . S
C892 C893 1.387 . S
C892 N895 1.341 . S
C893 C891 1.400 . S
C893 C892 1.387 . S
N894 Co885 2.022 . S
N894 C891 1.351 . S
N894 N895 1.365 . S
N895 C892 1.341 . S
N895 N894 1.365 . S
N895 H915 0.862 . S
C896 C891 1.501 . S
C896 H897 0.961 . S
C896 H898 0.961 . S
C896 H899 0.960 . S
H897 C896 0.961 . S
H898 C896 0.961 . S
H899 C896 0.960 . S
C900 N901 1.342 . S
C900 C904 1.401 . S
C900 C905 1.499 . S
N901 Co884 1.989 . S
N901 C900 1.342 . S
N901 N902 1.388 . S
N902 Co885 1.993 . S
N902 N901 1.388 . S
N902 C903 1.346 . S
C903 N902 1.346 . S
C903 C904 1.396 . S
C903 C913 1.510 . S
C904 C900 1.401 . S
C904 C903 1.396 . S
C905 C900 1.499 . S
C905 H906 0.959 . S
C905 H907 1.010 . S
C905 H908 0.961 . S
H906 C905 0.959 . S
H907 C905 1.010 . S
H908 C905 0.961 . S
O909 Co884 1.967 . S
O909 C917 1.258 . S
O910 Co885 1.941 . S
O910 C917 1.266 . S
H911 C913 0.959 . S
H912 C913 0.961 . S
C913 C903 1.510 . S
C913 H911 0.959 . S
C913 H912 0.961 . S
C913 H914 0.960 . S
H914 C913 0.960 . S
H915 N895 0.862 . S
O916 Co884 1.920 . S
O916 C889 1.289 . S
C917 O909 1.258 . S
C917 O910 1.266 . S
Co918 O921 1.970 . S
Co918 N935 1.989 . S
Co918 O943 1.967 . S
Co918 O950 1.920 . S
Co919 O922 1.966 . S
Co919 N928 2.022 . S
Co919 N936 1.993 . S
Co919 O944 1.941 . S
C920 O921 1.258 . S
C920 O922 1.263 . S
O921 Co918 1.970 . S
O921 C920 1.258 . S
O922 Co919 1.966 . S
O922 C920 1.263 . S
C923 O924 1.235 . S
C923 O950 1.289 . S
O924 C923 1.235 . S
C925 C927 1.400 . S
C925 N928 1.351 . S
C925 C930 1.501 . S
C926 C927 1.387 . S
C926 N929 1.341 . S
C927 C925 1.400 . S
C927 C926 1.387 . S
N928 Co919 2.022 . S
N928 C925 1.351 . S
N928 N929 1.365 . S
N929 C926 1.341 . S
N929 N928 1.365 . S
N929 H949 0.862 . S
C930 C925 1.501 . S
C930 H931 0.961 . S
C930 H932 0.961 . S
C930 H933 0.960 . S
H931 C930 0.961 . S
H932 C930 0.961 . S
H933 C930 0.960 . S
C934 N935 1.342 . S
C934 C938 1.401 . S
C934 C939 1.499 . S
N935 Co918 1.989 . S
N935 C934 1.342 . S
N935 N936 1.388 . S
N936 Co919 1.993 . S
N936 N935 1.388 . S
N936 C937 1.346 . S
C937 N936 1.346 . S
C937 C938 1.396 . S
C937 C947 1.510 . S
C938 C934 1.401 . S
C938 C937 1.396 . S
C939 C934 1.499 . S
C939 H940 0.959 . S
C939 H941 0.960 . S
C939 H942 0.961 . S
H940 C939 0.959 . S
H941 C939 0.960 . S
H942 C939 0.961 . S
O943 Co918 1.967 . S
O943 C951 1.258 . S
O944 Co919 1.941 . S
O944 C951 1.266 . S
H945 C947 0.959 . S
H946 C947 0.961 . S
C947 C937 1.510 . S
C947 H945 0.959 . S
C947 H946 0.961 . S
C947 H948 0.960 . S
H948 C947 0.960 . S
H949 N929 0.862 . S
O950 Co918 1.920 . S
O950 C923 1.289 . S
C951 O943 1.258 . S
C951 O944 1.266 . S
Co952 O955 1.970 . S
Co952 N969 1.989 . S
Co952 O977 1.967 . S
Co952 O984 1.920 . S
Co953 O956 1.966 . S
Co953 N962 2.022 . S
Co953 N970 1.993 . S
Co953 O978 1.941 . S
C954 O955 1.258 . S
C954 O956 1.263 . S
O955 Co952 1.970 . S
O955 C954 1.258 . S
O956 Co953 1.966 . S
O956 C954 1.263 . S
C957 O958 1.235 . S
C957 O984 1.289 . S
O958 C957 1.235 . S
C959 C961 1.400 . S
C959 N962 1.351 . S
C959 C964 1.501 . S
C960 C961 1.387 . S
C960 N963 1.341 . S
C961 C959 1.400 . S
C961 C960 1.387 . S
N962 Co953 2.022 . S
N962 C959 1.351 . S
N962 N963 1.365 . S
N963 C960 1.341 . S
N963 N962 1.365 . S
N963 H983 0.862 . S
C964 C959 1.501 . S
C964 H965 0.961 . S
C964 H966 0.961 . S
C964 H967 0.960 . S
H965 C964 0.961 . S
H966 C964 0.961 . S
H967 C964 0.960 . S
C968 N969 1.342 . S
C968 C972 1.401 . S
C968 C973 1.499 . S
N969 Co952 1.989 . S
N969 C968 1.342 . S
N969 N970 1.388 . S
N970 Co953 1.993 . S
N970 N969 1.388 . S
N970 C971 1.346 . S
C971 N970 1.346 . S
C971 C972 1.396 . S
C971 C981 1.510 . S
C972 C968 1.401 . S
C972 C971 1.396 . S
C973 C968 1.499 . S
C973 H974 0.959 . S
C973 H975 1.010 . S
C973 H976 0.961 . S
H974 C973 0.959 . S
H975 C973 1.010 . S
H976 C973 0.961 . S
O977 Co952 1.967 . S
O977 C985 1.258 . S
O978 Co953 1.941 . S
O978 C985 1.266 . S
H979 C981 0.959 . S
H980 C981 0.961 . S
C981 C971 1.510 . S
C981 H979 0.959 . S
C981 H980 0.961 . S
C981 H982 0.960 . S
H982 C981 0.960 . S
H983 N963 0.862 . S
O984 Co952 1.920 . S
O984 C957 1.289 . S
C985 O977 1.258 . S
C985 O978 1.266 . S
Co986 O989 1.970 . S
Co986 N1003 1.989 . S
Co986 O1011 1.967 . S
Co986 O1018 1.920 . S
Co987 O990 1.966 . S
Co987 N996 2.022 . S
Co987 N1004 1.993 . S
Co987 O1012 1.941 . S
C988 O989 1.258 . S
C988 O990 1.263 . S
O989 Co986 1.970 . S
O989 C988 1.258 . S
O990 Co987 1.966 . S
O990 C988 1.263 . S
C991 O992 1.235 . S
C991 O1018 1.289 . S
O992 C991 1.235 . S
C993 C995 1.400 . S
C993 N996 1.351 . S
C993 C998 1.501 . S
C994 C995 1.387 . S
C994 N997 1.341 . S
C995 C993 1.400 . S
C995 C994 1.387 . S
N996 Co987 2.022 . S
N996 C993 1.351 . S
N996 N997 1.365 . S
N997 C994 1.341 . S
N997 N996 1.365 . S
N997 H1017 0.862 . S
C998 C993 1.501 . S
C998 H999 0.961 . S
C998 H1000 0.961 . S
C998 H1001 0.960 . S
H999 C998 0.961 . S
H1000 C998 0.961 . S
H1001 C998 0.960 . S
C1002 N1003 1.342 . S
C1002 C1006 1.401 . S
C1002 C1007 1.499 . S
N1003 Co986 1.989 . S
N1003 C1002 1.342 . S
N1003 N1004 1.388 . S
N1004 Co987 1.993 . S
N1004 N1003 1.388 . S
N1004 C1005 1.346 . S
C1005 N1004 1.346 . S
C1005 C1006 1.396 . S
C1005 C1015 1.510 . S
C1006 C1002 1.401 . S
C1006 C1005 1.396 . S
C1007 C1002 1.499 . S
C1007 H1008 0.959 . S
C1007 H1009 0.960 . S
C1007 H1010 0.961 . S
H1008 C1007 0.959 . S
H1009 C1007 0.960 . S
H1010 C1007 0.961 . S
O1011 Co986 1.967 . S
O1011 C1019 1.258 . S
O1012 Co987 1.941 . S
O1012 C1019 1.266 . S
H1013 C1015 0.959 . S
H1014 C1015 0.961 . S
C1015 C1005 1.510 . S
C1015 H1013 0.959 . S
C1015 H1014 0.961 . S
C1015 H1016 0.960 . S
H1016 C1015 0.960 . S
H1017 N997 0.862 . S
O1018 Co986 1.920 . S
O1018 C991 1.289 . S
C1019 O1011 1.258 . S
C1019 O1012 1.266 . S
Co1020 O1023 1.970 . S
Co1020 N1037 1.989 . S
Co1020 O1045 1.967 . S
Co1020 O1052 1.920 . S
Co1021 O1024 1.966 . S
Co1021 N1030 2.022 . S
Co1021 N1038 1.993 . S
Co1021 O1046 1.941 . S
C1022 O1023 1.258 . S
C1022 O1024 1.263 . S
O1023 Co1020 1.970 . S
O1023 C1022 1.258 . S
O1024 Co1021 1.966 . S
O1024 C1022 1.263 . S
C1025 O1026 1.235 . S
C1025 O1052 1.289 . S
O1026 C1025 1.235 . S
C1027 C1029 1.400 . S
C1027 N1030 1.351 . S
C1027 C1032 1.501 . S
C1028 C1029 1.387 . S
C1028 N1031 1.341 . S
C1029 C1027 1.400 . S
C1029 C1028 1.387 . S
N1030 Co1021 2.022 . S
N1030 C1027 1.351 . S
N1030 N1031 1.365 . S
N1031 C1028 1.341 . S
N1031 N1030 1.365 . S
N1031 H1051 0.862 . S
C1032 C1027 1.501 . S
C1032 H1033 0.961 . S
C1032 H1034 0.961 . S
C1032 H1035 0.960 . S
H1033 C1032 0.961 . S
H1034 C1032 0.961 . S
H1035 C1032 0.960 . S
C1036 N1037 1.342 . S
C1036 C1040 1.401 . S
C1036 C1041 1.499 . S
N1037 Co1020 1.989 . S
N1037 C1036 1.342 . S
N1037 N1038 1.388 . S
N1038 Co1021 1.993 . S
N1038 N1037 1.388 . S
N1038 C1039 1.346 . S
C1039 N1038 1.346 . S
C1039 C1040 1.396 . S
C1039 C1049 1.510 . S
C1040 C1036 1.401 . S
C1040 C1039 1.396 . S
C1041 C1036 1.499 . S
C1041 H1042 0.959 . S
C1041 H1043 1.010 . S
C1041 H1044 0.961 . S
H1042 C1041 0.959 . S
H1043 C1041 1.010 . S
H1044 C1041 0.961 . S
O1045 Co1020 1.967 . S
O1045 C1053 1.258 . S
O1046 Co1021 1.941 . S
O1046 C1053 1.266 . S
H1047 C1049 0.959 . S
H1048 C1049 0.961 . S
C1049 C1039 1.510 . S
C1049 H1047 0.959 . S
C1049 H1048 0.961 . S
C1049 H1050 0.960 . S
H1050 C1049 0.960 . S
H1051 N1031 0.862 . S
O1052 Co1020 1.920 . S
O1052 C1025 1.289 . S
C1053 O1045 1.258 . S
C1053 O1046 1.266 . S
Co1054 O1057 1.970 . S
Co1054 N1071 1.989 . S
Co1054 O1079 1.967 . S
Co1054 O1086 1.920 . S
Co1055 O1058 1.966 . S
Co1055 N1064 2.022 . S
Co1055 N1072 1.993 . S
Co1055 O1080 1.941 . S
C1056 O1057 1.258 . S
C1056 O1058 1.263 . S
O1057 Co1054 1.970 . S
O1057 C1056 1.258 . S
O1058 Co1055 1.966 . S
O1058 C1056 1.263 . S
C1059 O1060 1.235 . S
C1059 O1086 1.289 . S
O1060 C1059 1.235 . S
C1061 C1063 1.400 . S
C1061 N1064 1.351 . S
C1061 C1066 1.501 . S
C1062 C1063 1.387 . S
C1062 N1065 1.341 . S
C1063 C1061 1.400 . S
C1063 C1062 1.387 . S
N1064 Co1055 2.022 . S
N1064 C1061 1.351 . S
N1064 N1065 1.365 . S
N1065 C1062 1.341 . S
N1065 N1064 1.365 . S
N1065 H1085 0.862 . S
C1066 C1061 1.501 . S
C1066 H1067 0.961 . S
C1066 H1068 0.961 . S
C1066 H1069 0.960 . S
H1067 C1066 0.961 . S
H1068 C1066 0.961 . S
H1069 C1066 0.960 . S
C1070 N1071 1.342 . S
C1070 C1074 1.401 . S
C1070 C1075 1.499 . S
N1071 Co1054 1.989 . S
N1071 C1070 1.342 . S
N1071 N1072 1.388 . S
N1072 Co1055 1.993 . S
N1072 N1071 1.388 . S
N1072 C1073 1.346 . S
C1073 N1072 1.346 . S
C1073 C1074 1.396 . S
C1073 C1083 1.510 . S
C1074 C1070 1.401 . S
C1074 C1073 1.396 . S
C1075 C1070 1.499 . S
C1075 H1076 0.959 . S
C1075 H1077 0.960 . S
C1075 H1078 0.961 . S
H1076 C1075 0.959 . S
H1077 C1075 0.960 . S
H1078 C1075 0.961 . S
O1079 Co1054 1.967 . S
O1079 C1087 1.258 . S
O1080 Co1055 1.941 . S
O1080 C1087 1.266 . S
H1081 C1083 0.959 . S
H1082 C1083 0.961 . S
C1083 C1073 1.510 . S
C1083 H1081 0.959 . S
C1083 H1082 0.961 . S
C1083 H1084 0.960 . S
H1084 C1083 0.960 . S
H1085 N1065 0.862 . S
O1086 Co1054 1.920 . S
O1086 C1059 1.289 . S
C1087 O1079 1.258 . S
C1087 O1080 1.266 . S
H1088 C1094 0.930 . S
H1089 C1097 0.930 . S
H1090 C1098 0.930 1_565 S
H1091 C1099 0.930 . S
H1092 C1102 0.930 . S
H1093 C1103 0.930 . S
C1094 H1088 0.930 . S
C1094 C1095 1.355 . S
C1094 C1096 1.415 . S
C1095 C1094 1.355 . S
C1095 C1097 1.419 . S
C1096 C1094 1.415 . S
C1096 C1101 1.425 . S
C1096 C1103 1.409 . S
C1097 H1089 0.930 . S
C1097 C1095 1.419 . S
C1097 C1098 1.362 . S
C1098 H1090 0.930 1_545 S
C1098 C1097 1.362 . S
C1098 C1101 1.409 . S
C1099 H1091 0.930 . S
C1099 C1100 1.355 . S
C1099 C1101 1.415 . S
C1100 C1099 1.355 . S
C1100 C1102 1.419 . S
C1101 C1096 1.425 . S
C1101 C1098 1.409 . S
C1101 C1099 1.415 . S
C1102 H1092 0.930 . S
C1102 C1100 1.419 . S
C1102 C1103 1.362 . S
C1103 H1093 0.930 . S
C1103 C1096 1.409 . S
C1103 C1102 1.362 . S
H1104 C1110 0.930 . S
H1105 C1113 0.930 . S
H1106 C1114 0.930 . S
H1107 C1115 0.930 . S
H1108 C1118 0.930 . S
H1109 C1119 0.930 1_565 S
C1110 H1104 0.930 . S
C1110 C1111 1.355 . S
C1110 C1112 1.415 . S
C1111 C1110 1.355 . S
C1111 C1113 1.419 . S
C1112 C1110 1.415 . S
C1112 C1117 1.425 . S
C1112 C1119 1.409 . S
C1113 H1105 0.930 . S
C1113 C1111 1.419 . S
C1113 C1114 1.362 . S
C1114 H1106 0.930 . S
C1114 C1113 1.362 . S
C1114 C1117 1.409 . S
C1115 H1107 0.930 . S
C1115 C1116 1.355 . S
C1115 C1117 1.415 . S
C1116 C1115 1.355 . S
C1116 C1118 1.419 . S
C1117 C1112 1.425 . S
C1117 C1114 1.409 . S
C1117 C1115 1.415 . S
C1118 H1108 0.930 . S
C1118 C1116 1.419 . S
C1118 C1119 1.362 . S
C1119 H1109 0.930 1_545 S
C1119 C1112 1.409 . S
C1119 C1118 1.362 . S
H1120 C1126 0.930 . S
H1121 C1129 0.930 . S
H1122 C1130 0.930 . S
H1123 C1131 0.930 . S
H1124 C1134 0.930 . S
H1125 C1135 0.930 . S
C1126 H1120 0.930 . S
C1126 C1127 1.355 . S
C1126 C1128 1.415 . S
C1127 C1126 1.355 . S
C1127 C1129 1.419 . S
C1128 C1126 1.415 . S
C1128 C1133 1.425 . S
C1128 C1135 1.409 . S
C1129 H1121 0.930 . S
C1129 C1127 1.419 . S
C1129 C1130 1.362 . S
C1130 H1122 0.930 . S
C1130 C1129 1.362 . S
C1130 C1133 1.409 . S
C1131 H1123 0.930 . S
C1131 C1132 1.355 . S
C1131 C1133 1.415 . S
C1132 C1131 1.355 . S
C1132 C1134 1.419 . S
C1133 C1128 1.425 . S
C1133 C1130 1.409 . S
C1133 C1131 1.415 . S
C1134 H1124 0.930 . S
C1134 C1132 1.419 . S
C1134 C1135 1.362 . S
C1135 H1125 0.930 . S
C1135 C1128 1.409 . S
C1135 C1134 1.362 . S
H1136 C1142 0.930 . S
H1137 C1145 0.930 . S
H1138 C1146 0.930 . S
H1139 C1147 0.930 . S
H1140 C1150 0.930 . S
H1141 C1151 0.930 . S
C1142 H1136 0.930 . S
C1142 C1143 1.355 . S
C1142 C1144 1.415 . S
C1143 C1142 1.355 . S
C1143 C1145 1.419 . S
C1144 C1142 1.415 . S
C1144 C1149 1.425 . S
C1144 C1151 1.409 . S
C1145 H1137 0.930 . S
C1145 C1143 1.419 . S
C1145 C1146 1.362 . S
C1146 H1138 0.930 . S
C1146 C1145 1.362 . S
C1146 C1149 1.409 . S
C1147 H1139 0.930 . S
C1147 C1148 1.355 . S
C1147 C1149 1.415 . S
C1148 C1147 1.355 . S
C1148 C1150 1.419 . S
C1149 C1144 1.425 . S
C1149 C1146 1.409 . S
C1149 C1147 1.415 . S
C1150 H1140 0.930 . S
C1150 C1148 1.419 . S
C1150 C1151 1.362 . S
C1151 H1141 0.930 . S
C1151 C1144 1.409 . S
C1151 C1150 1.362 . S
H1152 C1158 0.930 . S
H1153 C1161 0.930 . S
H1154 C1162 0.930 . S
H1155 C1163 0.930 . S
H1156 C1166 0.930 . S
H1157 C1167 0.930 . S
C1158 H1152 0.930 . S
C1158 C1159 1.355 . S
C1158 C1160 1.415 . S
C1159 C1158 1.355 . S
C1159 C1161 1.419 . S
C1160 C1158 1.415 . S
C1160 C1165 1.425 . S
C1160 C1167 1.409 . S
C1161 H1153 0.930 . S
C1161 C1159 1.419 . S
C1161 C1162 1.362 . S
C1162 H1154 0.930 . S
C1162 C1161 1.362 . S
C1162 C1165 1.409 . S
C1163 H1155 0.930 . S
C1163 C1164 1.355 . S
C1163 C1165 1.415 . S
C1164 C1163 1.355 . S
C1164 C1166 1.419 . S
C1165 C1160 1.425 . S
C1165 C1162 1.409 . S
C1165 C1163 1.415 . S
C1166 H1156 0.930 . S
C1166 C1164 1.419 . S
C1166 C1167 1.362 . S
C1167 H1157 0.930 . S
C1167 C1160 1.409 . S
C1167 C1166 1.362 . S
H1168 C1174 0.930 . S
H1169 C1177 0.930 . S
H1170 C1178 0.930 . S
H1171 C1179 0.930 . S
H1172 C1182 0.930 . S
H1173 C1183 0.930 . S
C1174 H1168 0.930 . S
C1174 C1175 1.355 . S
C1174 C1176 1.415 . S
C1175 C1174 1.355 . S
C1175 C1177 1.419 . S
C1176 C1174 1.415 . S
C1176 C1181 1.425 . S
C1176 C1183 1.409 . S
C1177 H1169 0.930 . S
C1177 C1175 1.419 . S
C1177 C1178 1.362 . S
C1178 H1170 0.930 . S
C1178 C1177 1.362 . S
C1178 C1181 1.409 . S
C1179 H1171 0.930 . S
C1179 C1180 1.355 . S
C1179 C1181 1.415 . S
C1180 C1179 1.355 . S
C1180 C1182 1.419 . S
C1181 C1176 1.425 . S
C1181 C1178 1.409 . S
C1181 C1179 1.415 . S
C1182 H1172 0.930 . S
C1182 C1180 1.419 . S
C1182 C1183 1.362 . S
C1183 H1173 0.930 . S
C1183 C1176 1.409 . S
C1183 C1182 1.362 . S
H1184 C1190 0.930 . S
H1185 C1193 0.930 . S
H1186 C1194 0.930 . S
H1187 C1195 0.930 . S
H1188 C1198 0.930 . S
H1189 C1199 0.930 . S
C1190 H1184 0.930 . S
C1190 C1191 1.355 . S
C1190 C1192 1.415 . S
C1191 C1190 1.355 . S
C1191 C1193 1.419 . S
C1192 C1190 1.415 . S
C1192 C1197 1.425 . S
C1192 C1199 1.409 . S
C1193 H1185 0.930 . S
C1193 C1191 1.419 . S
C1193 C1194 1.362 . S
C1194 H1186 0.930 . S
C1194 C1193 1.362 . S
C1194 C1197 1.409 . S
C1195 H1187 0.930 . S
C1195 C1196 1.355 . S
C1195 C1197 1.415 . S
C1196 C1195 1.355 . S
C1196 C1198 1.419 . S
C1197 C1192 1.425 . S
C1197 C1194 1.409 . S
C1197 C1195 1.415 . S
C1198 H1188 0.930 . S
C1198 C1196 1.419 . S
C1198 C1199 1.362 . S
C1199 H1189 0.930 . S
C1199 C1192 1.409 . S
C1199 C1198 1.362 . S
H1200 C1206 0.930 . S
H1201 C1209 0.930 . S
H1202 C1210 0.930 . S
H1203 C1211 0.930 . S
H1204 C1214 0.930 . S
H1205 C1215 0.930 . S
C1206 H1200 0.930 . S
C1206 C1207 1.355 . S
C1206 C1208 1.415 . S
C1207 C1206 1.355 . S
C1207 C1209 1.419 . S
C1208 C1206 1.415 . S
C1208 C1213 1.425 . S
C1208 C1215 1.409 . S
C1209 H1201 0.930 . S
C1209 C1207 1.419 . S
C1209 C1210 1.362 . S
C1210 H1202 0.930 . S
C1210 C1209 1.362 . S
C1210 C1213 1.409 . S
C1211 H1203 0.930 . S
C1211 C1212 1.355 . S
C1211 C1213 1.415 . S
C1212 C1211 1.355 . S
C1212 C1214 1.419 . S
C1213 C1208 1.425 . S
C1213 C1210 1.409 . S
C1213 C1211 1.415 . S
C1214 H1204 0.930 . S
C1214 C1212 1.419 . S
C1214 C1215 1.362 . S
C1215 H1205 0.930 . S
C1215 C1208 1.409 . S
C1215 C1214 1.362 . S
H1216 C1222 0.930 . S
H1217 C1225 0.930 . S
H1218 C1226 0.930 . S
H1219 C1227 0.930 . S
H1220 C1230 0.930 . S
H1221 C1231 0.930 1_565 S
C1222 H1216 0.930 . S
C1222 C1223 1.355 . S
C1222 C1224 1.415 . S
C1223 C1222 1.355 . S
C1223 C1225 1.419 . S
C1224 C1222 1.415 . S
C1224 C1229 1.425 . S
C1224 C1231 1.409 . S
C1225 H1217 0.930 . S
C1225 C1223 1.419 . S
C1225 C1226 1.362 . S
C1226 H1218 0.930 . S
C1226 C1225 1.362 . S
C1226 C1229 1.409 . S
C1227 H1219 0.930 . S
C1227 C1228 1.355 . S
C1227 C1229 1.415 . S
C1228 C1227 1.355 . S
C1228 C1230 1.419 . S
C1229 C1224 1.425 . S
C1229 C1226 1.409 . S
C1229 C1227 1.415 . S
C1230 H1220 0.930 . S
C1230 C1228 1.419 . S
C1230 C1231 1.362 . S
C1231 H1221 0.930 1_545 S
C1231 C1224 1.409 . S
C1231 C1230 1.362 . S
H1232 C1238 0.930 . S
H1233 C1241 0.930 . S
H1234 C1242 0.930 . S
H1235 C1243 0.930 . S
H1236 C1246 0.930 . S
H1237 C1247 0.930 1_565 S
C1238 H1232 0.930 . S
C1238 C1239 1.355 . S
C1238 C1240 1.415 . S
C1239 C1238 1.355 . S
C1239 C1241 1.419 . S
C1240 C1238 1.415 . S
C1240 C1245 1.425 . S
C1240 C1247 1.409 . S
C1241 H1233 0.930 . S
C1241 C1239 1.419 . S
C1241 C1242 1.362 . S
C1242 H1234 0.930 . S
C1242 C1241 1.362 . S
C1242 C1245 1.409 . S
C1243 H1235 0.930 . S
C1243 C1244 1.355 . S
C1243 C1245 1.415 . S
C1244 C1243 1.355 . S
C1244 C1246 1.419 . S
C1245 C1240 1.425 . S
C1245 C1242 1.409 . S
C1245 C1243 1.415 . S
C1246 H1236 0.930 . S
C1246 C1244 1.419 . S
C1246 C1247 1.362 . S
C1247 H1237 0.930 1_545 S
C1247 C1240 1.409 . S
C1247 C1246 1.362 . S
H1248 C1254 0.930 . S
H1249 C1257 0.930 . S
H1250 C1258 0.930 1_545 S
H1251 C1259 0.930 . S
H1252 C1262 0.930 . S
H1253 C1263 0.930 . S
C1254 H1248 0.930 . S
C1254 C1255 1.355 . S
C1254 C1256 1.415 . S
C1255 C1254 1.355 . S
C1255 C1257 1.419 . S
C1256 C1254 1.415 . S
C1256 C1261 1.425 . S
C1256 C1263 1.409 . S
C1257 H1249 0.930 . S
C1257 C1255 1.419 . S
C1257 C1258 1.362 . S
C1258 H1250 0.930 1_565 S
C1258 C1257 1.362 . S
C1258 C1261 1.409 . S
C1259 H1251 0.930 . S
C1259 C1260 1.355 . S
C1259 C1261 1.415 . S
C1260 C1259 1.355 . S
C1260 C1262 1.419 . S
C1261 C1256 1.425 . S
C1261 C1258 1.409 . S
C1261 C1259 1.415 . S
C1262 H1252 0.930 . S
C1262 C1260 1.419 . S
C1262 C1263 1.362 . S
C1263 H1253 0.930 . S
C1263 C1256 1.409 . S
C1263 C1262 1.362 . S
H1264 C1270 0.930 . S
H1265 C1273 0.930 . S
H1266 C1274 0.930 . S
H1267 C1275 0.930 . S
H1268 C1278 0.930 . S
H1269 C1279 0.930 . S
C1270 H1264 0.930 . S
C1270 C1271 1.355 . S
C1270 C1272 1.415 . S
C1271 C1270 1.355 . S
C1271 C1273 1.419 . S
C1272 C1270 1.415 . S
C1272 C1277 1.425 . S
C1272 C1279 1.409 . S
C1273 H1265 0.930 . S
C1273 C1271 1.419 . S
C1273 C1274 1.362 . S
C1274 H1266 0.930 . S
C1274 C1273 1.362 . S
C1274 C1277 1.409 . S
C1275 H1267 0.930 . S
C1275 C1276 1.355 . S
C1275 C1277 1.415 . S
C1276 C1275 1.355 . S
C1276 C1278 1.419 . S
C1277 C1272 1.425 . S
C1277 C1274 1.409 . S
C1277 C1275 1.415 . S
C1278 H1268 0.930 . S
C1278 C1276 1.419 . S
C1278 C1279 1.362 . S
C1279 H1269 0.930 . S
C1279 C1272 1.409 . S
C1279 C1278 1.362 . S
H1280 C1286 0.930 . S
H1281 C1289 0.930 . S
H1282 C1290 0.930 . S
H1283 C1291 0.930 . S
H1284 C1294 0.930 . S
H1285 C1295 0.930 . S
C1286 H1280 0.930 . S
C1286 C1287 1.355 . S
C1286 C1288 1.415 . S
C1287 C1286 1.355 . S
C1287 C1289 1.419 . S
C1288 C1286 1.415 . S
C1288 C1293 1.425 . S
C1288 C1295 1.409 . S
C1289 H1281 0.930 . S
C1289 C1287 1.419 . S
C1289 C1290 1.362 . S
C1290 H1282 0.930 . S
C1290 C1289 1.362 . S
C1290 C1293 1.409 . S
C1291 H1283 0.930 . S
C1291 C1292 1.355 . S
C1291 C1293 1.415 . S
C1292 C1291 1.355 . S
C1292 C1294 1.419 . S
C1293 C1288 1.425 . S
C1293 C1290 1.409 . S
C1293 C1291 1.415 . S
C1294 H1284 0.930 . S
C1294 C1292 1.419 . S
C1294 C1295 1.362 . S
C1295 H1285 0.930 . S
C1295 C1288 1.409 . S
C1295 C1294 1.362 . S
H1296 C1302 0.930 . S
H1297 C1305 0.930 . S
H1298 C1306 0.930 . S
H1299 C1307 0.930 . S
H1300 C1310 0.930 . S
H1301 C1311 0.930 . S
C1302 H1296 0.930 . S
C1302 C1303 1.355 . S
C1302 C1304 1.415 . S
C1303 C1302 1.355 . S
C1303 C1305 1.419 . S
C1304 C1302 1.415 . S
C1304 C1309 1.425 . S
C1304 C1311 1.409 . S
C1305 H1297 0.930 . S
C1305 C1303 1.419 . S
C1305 C1306 1.362 . S
C1306 H1298 0.930 . S
C1306 C1305 1.362 . S
C1306 C1309 1.409 . S
C1307 H1299 0.930 . S
C1307 C1308 1.355 . S
C1307 C1309 1.415 . S
C1308 C1307 1.355 . S
C1308 C1310 1.419 . S
C1309 C1304 1.425 . S
C1309 C1306 1.409 . S
C1309 C1307 1.415 . S
C1310 H1300 0.930 . S
C1310 C1308 1.419 . S
C1310 C1311 1.362 . S
C1311 H1301 0.930 . S
C1311 C1304 1.409 . S
C1311 C1310 1.362 . S
H1312 C1318 0.930 . S
H1313 C1321 0.930 . S
H1314 C1322 0.930 . S
H1315 C1323 0.930 . S
H1316 C1326 0.930 . S
H1317 C1327 0.930 . S
C1318 H1312 0.930 . S
C1318 C1319 1.355 . S
C1318 C1320 1.415 . S
C1319 C1318 1.355 . S
C1319 C1321 1.419 . S
C1320 C1318 1.415 . S
C1320 C1325 1.425 . S
C1320 C1327 1.409 . S
C1321 H1313 0.930 . S
C1321 C1319 1.419 . S
C1321 C1322 1.362 . S
C1322 H1314 0.930 . S
C1322 C1321 1.362 . S
C1322 C1325 1.409 . S
C1323 H1315 0.930 . S
C1323 C1324 1.355 . S
C1323 C1325 1.415 . S
C1324 C1323 1.355 . S
C1324 C1326 1.419 . S
C1325 C1320 1.425 . S
C1325 C1322 1.409 . S
C1325 C1323 1.415 . S
C1326 H1316 0.930 . S
C1326 C1324 1.419 . S
C1326 C1327 1.362 . S
C1327 H1317 0.930 . S
C1327 C1320 1.409 . S
C1327 C1326 1.362 . S
H1328 C1334 0.930 . S
H1329 C1337 0.930 . S
H1330 C1338 0.930 . S
H1331 C1339 0.930 . S
H1332 C1342 0.930 . S
H1333 C1343 0.930 . S
C1334 H1328 0.930 . S
C1334 C1335 1.355 . S
C1334 C1336 1.415 . S
C1335 C1334 1.355 . S
C1335 C1337 1.419 . S
C1336 C1334 1.415 . S
C1336 C1341 1.425 . S
C1336 C1343 1.409 . S
C1337 H1329 0.930 . S
C1337 C1335 1.419 . S
C1337 C1338 1.362 . S
C1338 H1330 0.930 . S
C1338 C1337 1.362 . S
C1338 C1341 1.409 . S
C1339 H1331 0.930 . S
C1339 C1340 1.355 . S
C1339 C1341 1.415 . S
C1340 C1339 1.355 . S
C1340 C1342 1.419 . S
C1341 C1336 1.425 . S
C1341 C1338 1.409 . S
C1341 C1339 1.415 . S
C1342 H1332 0.930 . S
C1342 C1340 1.419 . S
C1342 C1343 1.362 . S
C1343 H1333 0.930 . S
C1343 C1336 1.409 . S
C1343 C1342 1.362 . S
H1344 C1350 0.930 . S
H1345 C1353 0.930 . S
H1346 C1354 0.930 . S
H1347 C1355 0.930 . S
H1348 C1358 0.930 . S
H1349 C1359 0.930 . S
C1350 H1344 0.930 . S
C1350 C1351 1.355 . S
C1350 C1352 1.415 1_556 S
C1351 C1350 1.355 . S
C1351 C1353 1.418 1_565 S
C1352 C1350 1.415 1_554 S
C1352 C1357 1.425 1_564 S
C1352 C1359 1.409 . S
C1353 H1345 0.930 . S
C1353 C1351 1.418 1_545 S
C1353 C1354 1.363 . S
C1354 H1346 0.930 . S
C1354 C1353 1.363 . S
C1354 C1357 1.409 . S
C1355 H1347 0.930 . S
C1355 C1356 1.355 . S
C1355 C1357 1.415 1_554 S
C1356 C1355 1.355 . S
C1356 C1358 1.418 1_545 S
C1357 C1352 1.425 1_546 S
C1357 C1354 1.409 . S
C1357 C1355 1.415 1_556 S
C1358 H1348 0.930 . S
C1358 C1356 1.418 1_565 S
C1358 C1359 1.363 . S
C1359 H1349 0.930 . S
C1359 C1352 1.409 . S
C1359 C1358 1.363 . S
H1360 C1366 0.930 . S
H1361 C1369 0.930 . S
H1362 C1370 0.930 . S
H1363 C1371 0.930 . S
H1364 C1374 0.930 . S
H1365 C1375 0.930 . S
C1366 H1360 0.930 . S
C1366 C1367 1.355 . S
C1366 C1368 1.453 . S
C1367 C1366 1.355 . S
C1367 C1369 1.419 . S
C1368 C1366 1.453 . S
C1368 C1373 1.420 1_554 S
C1368 C1375 1.375 1_554 S
C1369 H1361 0.930 . S
C1369 C1367 1.419 . S
C1369 C1370 1.362 . S
C1370 H1362 0.930 . S
C1370 C1369 1.362 . S
C1370 C1373 1.375 1_554 S
C1371 H1363 0.930 . S
C1371 C1372 1.355 . S
C1371 C1373 1.453 . S
C1372 C1371 1.355 . S
C1372 C1374 1.419 . S
C1373 C1368 1.420 1_556 S
C1373 C1370 1.375 1_556 S
C1373 C1371 1.453 . S
C1374 H1364 0.930 . S
C1374 C1372 1.419 . S
C1374 C1375 1.362 . S
C1375 H1365 0.930 . S
C1375 C1368 1.375 1_556 S
C1375 C1374 1.362 . S
H1376 C1382 0.930 . S
H1377 C1385 0.930 . S
H1378 C1386 0.930 . S
H1379 C1387 0.930 . S
H1380 C1390 0.930 . S
H1381 C1391 0.930 . S
C1382 H1376 0.930 . S
C1382 C1383 1.355 . S
C1382 C1384 1.415 . S
C1383 C1382 1.355 . S
C1383 C1385 1.419 . S
C1384 C1382 1.415 . S
C1384 C1389 1.425 . S
C1384 C1391 1.409 . S
C1385 H1377 0.930 . S
C1385 C1383 1.419 . S
C1385 C1386 1.362 . S
C1386 H1378 0.930 . S
C1386 C1385 1.362 . S
C1386 C1389 1.409 . S
C1387 H1379 0.930 . S
C1387 C1388 1.355 . S
C1387 C1389 1.415 . S
C1388 C1387 1.355 . S
C1388 C1390 1.419 . S
C1389 C1384 1.425 . S
C1389 C1386 1.409 . S
C1389 C1387 1.415 . S
C1390 H1380 0.930 . S
C1390 C1388 1.419 . S
C1390 C1391 1.362 . S
C1391 H1381 0.930 . S
C1391 C1384 1.409 . S
C1391 C1390 1.362 . S
H1392 C1398 0.924 1_565 S
H1393 C1401 0.930 . S
H1394 C1402 0.930 . S
H1395 C1403 0.924 1_545 S
H1396 C1406 0.930 . S
H1397 C1407 0.930 . S
C1398 H1392 0.924 1_545 S
C1398 C1399 1.355 . S
C1398 C1400 1.415 1_545 S
C1399 C1398 1.355 . S
C1399 C1401 1.419 . S
C1400 C1398 1.415 1_565 S
C1400 C1405 1.425 1_565 S
C1400 C1407 1.409 . S
C1401 H1393 0.930 . S
C1401 C1399 1.419 . S
C1401 C1402 1.362 . S
C1402 H1394 0.930 . S
C1402 C1401 1.362 . S
C1402 C1405 1.409 . S
C1403 H1395 0.924 1_565 S
C1403 C1404 1.355 . S
C1403 C1405 1.415 1_565 S
C1404 C1403 1.355 . S
C1404 C1406 1.419 . S
C1405 C1400 1.425 1_545 S
C1405 C1402 1.409 . S
C1405 C1403 1.415 1_545 S
C1406 H1396 0.930 . S
C1406 C1404 1.419 . S
C1406 C1407 1.362 . S
C1407 H1397 0.930 . S
C1407 C1400 1.409 . S
C1407 C1406 1.362 . S
H1408 C1414 0.930 . S
H1409 C1417 0.930 . S
H1410 C1418 0.930 . S
H1411 C1419 0.930 . S
H1412 C1422 0.930 . S
H1413 C1423 0.930 . S
C1414 H1408 0.930 . S
C1414 C1415 1.355 . S
C1414 C1416 1.415 . S
C1415 C1414 1.355 . S
C1415 C1417 1.419 . S
C1416 C1414 1.415 . S
C1416 C1421 1.425 1_556 S
C1416 C1423 1.409 1_556 S
C1417 H1409 0.930 . S
C1417 C1415 1.419 . S
C1417 C1418 1.362 . S
C1418 H1410 0.930 . S
C1418 C1417 1.362 . S
C1418 C1421 1.409 1_556 S
C1419 H1411 0.930 . S
C1419 C1420 1.355 . S
C1419 C1421 1.415 . S
C1420 C1419 1.355 . S
C1420 C1422 1.419 . S
C1421 C1416 1.425 1_554 S
C1421 C1418 1.409 1_554 S
C1421 C1419 1.415 . S
C1422 H1412 0.930 . S
C1422 C1420 1.419 . S
C1422 C1423 1.362 . S
C1423 H1413 0.930 . S
C1423 C1416 1.409 1_554 S
C1423 C1422 1.362 . S
H1424 C1430 0.930 . S
H1425 C1433 0.930 . S
H1426 C1434 0.930 . S
H1427 C1435 0.930 . S
H1428 C1438 0.930 . S
H1429 C1439 0.930 . S
C1430 H1424 0.930 . S
C1430 C1431 1.355 . S
C1430 C1432 1.415 . S
C1431 C1430 1.355 . S
C1431 C1433 1.419 . S
C1432 C1430 1.415 . S
C1432 C1437 1.425 . S
C1432 C1439 1.409 . S
C1433 H1425 0.930 . S
C1433 C1431 1.419 . S
C1433 C1434 1.362 . S
C1434 H1426 0.930 . S
C1434 C1433 1.362 . S
C1434 C1437 1.409 . S
C1435 H1427 0.930 . S
C1435 C1436 1.355 . S
C1435 C1437 1.415 . S
C1436 C1435 1.355 . S
C1436 C1438 1.419 . S
C1437 C1432 1.425 . S
C1437 C1434 1.409 . S
C1437 C1435 1.415 . S
C1438 H1428 0.930 . S
C1438 C1436 1.419 . S
C1438 C1439 1.362 . S
C1439 H1429 0.930 . S
C1439 C1432 1.409 . S
C1439 C1438 1.362 . S
H1440 C1446 0.930 . S
H1441 C1449 0.930 . S
H1442 C1450 0.930 . S
H1443 C1451 0.930 . S
H1444 C1454 0.930 . S
H1445 C1455 0.930 . S
C1446 H1440 0.930 . S
C1446 C1447 1.355 . S
C1446 C1448 1.415 . S
C1447 C1446 1.355 . S
C1447 C1449 1.419 1_545 S
C1448 C1446 1.415 . S
C1448 C1453 1.425 1_545 S
C1448 C1455 1.409 . S
C1449 H1441 0.930 . S
C1449 C1447 1.419 1_565 S
C1449 C1450 1.362 . S
C1450 H1442 0.930 . S
C1450 C1449 1.362 . S
C1450 C1453 1.409 . S
C1451 H1443 0.930 . S
C1451 C1452 1.355 . S
C1451 C1453 1.415 . S
C1452 C1451 1.355 . S
C1452 C1454 1.419 1_565 S
C1453 C1448 1.425 1_565 S
C1453 C1450 1.409 . S
C1453 C1451 1.415 . S
C1454 H1444 0.930 . S
C1454 C1452 1.419 1_545 S
C1454 C1455 1.362 . S
C1455 H1445 0.930 . S
C1455 C1448 1.409 . S
C1455 C1454 1.362 . S
H1456 C1462 0.930 . S
H1457 C1465 0.930 . S
H1458 C1466 0.930 . S
H1459 C1467 0.930 . S
H1460 C1470 0.930 . S
H1461 C1471 0.930 . S
C1462 H1456 0.930 . S
C1462 C1463 1.355 . S
C1462 C1464 1.415 . S
C1463 C1462 1.355 . S
C1463 C1465 1.419 . S
C1464 C1462 1.415 . S
C1464 C1469 1.425 . S
C1464 C1471 1.409 . S
C1465 H1457 0.930 . S
C1465 C1463 1.419 . S
C1465 C1466 1.362 . S
C1466 H1458 0.930 . S
C1466 C1465 1.362 . S
C1466 C1469 1.409 . S
C1467 H1459 0.930 . S
C1467 C1468 1.355 . S
C1467 C1469 1.415 . S
C1468 C1467 1.355 . S
C1468 C1470 1.419 . S
C1469 C1464 1.425 . S
C1469 C1466 1.409 . S
C1469 C1467 1.415 . S
C1470 H1460 0.930 . S
C1470 C1468 1.419 . S
C1470 C1471 1.362 . S
C1471 H1461 0.930 . S
C1471 C1464 1.409 . S
C1471 C1470 1.362 . S
H1472 C1478 0.930 . S
H1473 C1481 0.930 . S
H1474 C1482 0.930 . S
H1475 C1483 0.930 . S
H1476 C1486 0.930 . S
H1477 C1487 0.930 . S
C1478 H1472 0.930 . S
C1478 C1479 1.355 . S
C1478 C1480 1.415 . S
C1479 C1478 1.355 . S
C1479 C1481 1.419 . S
C1480 C1478 1.415 . S
C1480 C1485 1.425 . S
C1480 C1487 1.409 . S
C1481 H1473 0.930 . S
C1481 C1479 1.419 . S
C1481 C1482 1.362 . S
C1482 H1474 0.930 . S
C1482 C1481 1.362 . S
C1482 C1485 1.409 . S
C1483 H1475 0.930 . S
C1483 C1484 1.355 . S
C1483 C1485 1.415 . S
C1484 C1483 1.355 . S
C1484 C1486 1.419 . S
C1485 C1480 1.425 . S
C1485 C1482 1.409 . S
C1485 C1483 1.415 . S
C1486 H1476 0.930 . S
C1486 C1484 1.419 . S
C1486 C1487 1.362 . S
C1487 H1477 0.930 . S
C1487 C1480 1.409 . S
C1487 C1486 1.362 . S
H1488 C1494 0.930 . S
H1489 C1497 0.930 . S
H1490 C1498 0.930 . S
H1491 C1499 0.930 . S
H1492 C1502 0.930 . S
H1493 C1503 0.930 . S
C1494 H1488 0.930 . S
C1494 C1495 1.355 . S
C1494 C1496 1.415 . S
C1495 C1494 1.355 . S
C1495 C1497 1.419 . S
C1496 C1494 1.415 . S
C1496 C1501 1.425 . S
C1496 C1503 1.409 . S
C1497 H1489 0.930 . S
C1497 C1495 1.419 . S
C1497 C1498 1.362 . S
C1498 H1490 0.930 . S
C1498 C1497 1.362 . S
C1498 C1501 1.409 . S
C1499 H1491 0.930 . S
C1499 C1500 1.355 . S
C1499 C1501 1.415 . S
C1500 C1499 1.355 . S
C1500 C1502 1.419 . S
C1501 C1496 1.425 . S
C1501 C1498 1.409 . S
C1501 C1499 1.415 . S
C1502 H1492 0.930 . S
C1502 C1500 1.419 . S
C1502 C1503 1.362 . S
C1503 H1493 0.930 . S
C1503 C1496 1.409 . S
C1503 C1502 1.362 . S
H1504 C1510 0.930 . S
H1505 C1513 0.930 . S
H1506 C1514 0.930 . S
H1507 C1515 0.930 . S
H1508 C1518 0.930 . S
H1509 C1519 0.930 . S
C1510 H1504 0.930 . S
C1510 C1511 1.355 . S
C1510 C1512 1.415 . S
C1511 C1510 1.355 . S
C1511 C1513 1.419 . S
C1512 C1510 1.415 . S
C1512 C1517 1.425 . S
C1512 C1519 1.409 . S
C1513 H1505 0.930 . S
C1513 C1511 1.419 . S
C1513 C1514 1.362 . S
C1514 H1506 0.930 . S
C1514 C1513 1.362 . S
C1514 C1517 1.409 . S
C1515 H1507 0.930 . S
C1515 C1516 1.355 . S
C1515 C1517 1.415 . S
C1516 C1515 1.355 . S
C1516 C1518 1.419 . S
C1517 C1512 1.425 . S
C1517 C1514 1.409 . S
C1517 C1515 1.415 . S
C1518 H1508 0.930 . S
C1518 C1516 1.419 . S
C1518 C1519 1.362 . S
C1519 H1509 0.930 . S
C1519 C1512 1.409 . S
C1519 C1518 1.362 . S
H1520 C1526 0.930 . S
H1521 C1529 0.930 . S
H1522 C1530 0.930 . S
H1523 C1531 0.930 . S
H1524 C1534 0.930 . S
H1525 C1535 0.930 . S
C1526 H1520 0.930 . S
C1526 C1527 1.355 . S
C1526 C1528 1.415 . S
C1527 C1526 1.355 . S
C1527 C1529 1.419 . S
C1528 C1526 1.415 . S
C1528 C1533 1.425 . S
C1528 C1535 1.409 . S
C1529 H1521 0.930 . S
C1529 C1527 1.419 . S
C1529 C1530 1.362 . S
C1530 H1522 0.930 . S
C1530 C1529 1.362 . S
C1530 C1533 1.409 . S
C1531 H1523 0.930 . S
C1531 C1532 1.355 . S
C1531 C1533 1.415 . S
C1532 C1531 1.355 . S
C1532 C1534 1.419 . S
C1533 C1528 1.425 . S
C1533 C1530 1.409 . S
C1533 C1531 1.415 . S
C1534 H1524 0.930 . S
C1534 C1532 1.419 . S
C1534 C1535 1.362 . S
C1535 H1525 0.930 . S
C1535 C1528 1.409 . S
C1535 C1534 1.362 . S
H1536 C1542 0.930 1_545 S
H1537 C1545 0.930 . S
H1538 C1546 0.930 . S
H1539 C1547 0.930 1_565 S
H1540 C1550 0.930 . S
H1541 C1551 0.930 . S
C1542 H1536 0.930 1_565 S
C1542 C1543 1.355 . S
C1542 C1544 1.415 1_565 S
C1543 C1542 1.355 . S
C1543 C1545 1.419 1_455 S
C1544 C1542 1.415 1_545 S
C1544 C1549 1.425 1_445 S
C1544 C1551 1.409 . S
C1545 H1537 0.930 . S
C1545 C1543 1.419 1_655 S
C1545 C1546 1.362 . S
C1546 H1538 0.930 . S
C1546 C1545 1.362 . S
C1546 C1549 1.409 . S
C1547 H1539 0.930 1_545 S
C1547 C1548 1.355 . S
C1547 C1549 1.415 1_545 S
C1548 C1547 1.355 . S
C1548 C1550 1.419 1_655 S
C1549 C1544 1.425 1_665 S
C1549 C1546 1.409 . S
C1549 C1547 1.415 1_565 S
C1550 H1540 0.930 . S
C1550 C1548 1.419 1_455 S
C1550 C1551 1.362 . S
C1551 H1541 0.930 . S
C1551 C1544 1.409 . S
C1551 C1550 1.362 . S
H1552 C1558 0.930 . S
H1553 C1561 0.930 . S
H1554 C1562 0.930 . S
H1555 C1563 0.930 . S
H1556 C1566 0.930 . S
H1557 C1567 0.930 . S
C1558 H1552 0.930 . S
C1558 C1559 1.355 1_455 S
C1558 C1560 1.415 . S
C1559 C1558 1.355 1_655 S
C1559 C1561 1.419 . S
C1560 C1558 1.415 . S
C1560 C1565 1.425 1_455 S
C1560 C1567 1.409 . S
C1561 H1553 0.930 . S
C1561 C1559 1.419 . S
C1561 C1562 1.362 . S
C1562 H1554 0.930 . S
C1562 C1561 1.362 . S
C1562 C1565 1.409 . S
C1563 H1555 0.930 . S
C1563 C1564 1.355 1_655 S
C1563 C1565 1.415 . S
C1564 C1563 1.355 1_455 S
C1564 C1566 1.419 . S
C1565 C1560 1.425 1_655 S
C1565 C1562 1.409 . S
C1565 C1563 1.415 . S
C1566 H1556 0.930 . S
C1566 C1564 1.419 . S
C1566 C1567 1.362 . S
C1567 H1557 0.930 . S
C1567 C1560 1.409 . S
C1567 C1566 1.362 . S
H1568 C1574 0.930 . S
H1569 C1577 0.930 . S
H1570 C1578 0.930 . S
H1571 C1579 0.930 . S
H1572 C1582 0.930 . S
H1573 C1583 0.930 . S
C1574 H1568 0.930 . S
C1574 C1575 1.355 . S
C1574 C1576 1.415 . S
C1575 C1574 1.355 . S
C1575 C1577 1.419 1_455 S
C1576 C1574 1.415 . S
C1576 C1581 1.425 1_455 S
C1576 C1583 1.409 . S
C1577 H1569 0.930 . S
C1577 C1575 1.419 1_655 S
C1577 C1578 1.362 . S
C1578 H1570 0.930 . S
C1578 C1577 1.362 . S
C1578 C1581 1.409 . S
C1579 H1571 0.930 . S
C1579 C1580 1.355 . S
C1579 C1581 1.415 . S
C1580 C1579 1.355 . S
C1580 C1582 1.419 1_655 S
C1581 C1576 1.425 1_655 S
C1581 C1578 1.409 . S
C1581 C1579 1.415 . S
C1582 H1572 0.930 . S
C1582 C1580 1.419 1_455 S
C1582 C1583 1.362 . S
C1583 H1573 0.930 . S
C1583 C1576 1.409 . S
C1583 C1582 1.362 . S
H1584 C1590 0.930 1_655 S
H1585 C1593 0.930 . S
H1586 C1594 0.930 . S
H1587 C1595 0.930 1_455 S
H1588 C1598 0.930 . S
H1589 C1599 0.930 . S
C1590 H1584 0.930 1_455 S
C1590 C1591 1.355 . S
C1590 C1592 1.350 1_456 S
C1591 C1590 1.355 . S
C1591 C1593 1.419 . S
C1592 C1590 1.350 1_654 S
C1592 C1597 1.411 1_654 S
C1592 C1599 1.488 . S
C1593 H1585 0.930 . S
C1593 C1591 1.419 . S
C1593 C1594 1.362 . S
C1594 H1586 0.930 . S
C1594 C1593 1.362 . S
C1594 C1597 1.488 . S
C1595 H1587 0.930 1_655 S
C1595 C1596 1.355 . S
C1595 C1597 1.350 1_654 S
C1596 C1595 1.355 . S
C1596 C1598 1.419 . S
C1597 C1592 1.411 1_456 S
C1597 C1594 1.488 . S
C1597 C1595 1.350 1_456 S
C1598 H1588 0.930 . S
C1598 C1596 1.419 . S
C1598 C1599 1.362 . S
C1599 H1589 0.930 . S
C1599 C1592 1.488 . S
C1599 C1598 1.362 . S
H1600 C1606 0.930 . S
H1601 C1609 0.930 . S
H1602 C1610 0.930 . S
H1603 C1611 0.930 . S
H1604 C1614 0.930 . S
H1605 C1615 0.930 . S
C1606 H1600 0.930 . S
C1606 C1607 1.355 . S
C1606 C1608 1.415 . S
C1607 C1606 1.355 . S
C1607 C1609 1.419 . S
C1608 C1606 1.415 . S
C1608 C1613 1.425 . S
C1608 C1615 1.409 . S
C1609 H1601 0.930 . S
C1609 C1607 1.419 . S
C1609 C1610 1.362 . S
C1610 H1602 0.930 . S
C1610 C1609 1.362 . S
C1610 C1613 1.409 . S
C1611 H1603 0.930 . S
C1611 C1612 1.355 . S
C1611 C1613 1.415 . S
C1612 C1611 1.355 . S
C1612 C1614 1.419 . S
C1613 C1608 1.425 . S
C1613 C1610 1.409 . S
C1613 C1611 1.415 . S
C1614 H1604 0.930 . S
C1614 C1612 1.419 . S
C1614 C1615 1.362 . S
C1615 H1605 0.930 . S
C1615 C1608 1.409 . S
C1615 C1614 1.362 . S
H1616 C1622 0.930 . S
H1617 C1625 0.930 . S
H1618 C1626 0.930 . S
H1619 C1627 0.930 . S
H1620 C1630 0.930 . S
H1621 C1631 0.930 . S
C1622 H1616 0.930 . S
C1622 C1623 1.355 . S
C1622 C1624 1.415 . S
C1623 C1622 1.355 . S
C1623 C1625 1.419 . S
C1624 C1622 1.415 . S
C1624 C1629 1.425 . S
C1624 C1631 1.409 . S
C1625 H1617 0.930 . S
C1625 C1623 1.419 . S
C1625 C1626 1.362 . S
C1626 H1618 0.930 . S
C1626 C1625 1.362 . S
C1626 C1629 1.409 . S
C1627 H1619 0.930 . S
C1627 C1628 1.355 . S
C1627 C1629 1.415 . S
C1628 C1627 1.355 . S
C1628 C1630 1.419 . S
C1629 C1624 1.425 . S
C1629 C1626 1.409 . S
C1629 C1627 1.415 . S
C1630 H1620 0.930 . S
C1630 C1628 1.419 . S
C1630 C1631 1.362 . S
C1631 H1621 0.930 . S
C1631 C1624 1.409 . S
C1631 C1630 1.362 . S
H1632 C1638 0.930 . S
H1633 C1641 0.930 . S
H1634 C1642 0.930 . S
H1635 C1643 0.930 . S
H1636 C1646 0.930 . S
H1637 C1647 0.930 . S
C1638 H1632 0.930 . S
C1638 C1639 1.355 . S
C1638 C1640 1.415 . S
C1639 C1638 1.355 . S
C1639 C1641 1.419 . S
C1640 C1638 1.415 . S
C1640 C1645 1.425 . S
C1640 C1647 1.409 . S
C1641 H1633 0.930 . S
C1641 C1639 1.419 . S
C1641 C1642 1.362 . S
C1642 H1634 0.930 . S
C1642 C1641 1.362 . S
C1642 C1645 1.409 . S
C1643 H1635 0.930 . S
C1643 C1644 1.355 . S
C1643 C1645 1.415 . S
C1644 C1643 1.355 . S
C1644 C1646 1.419 . S
C1645 C1640 1.425 . S
C1645 C1642 1.409 . S
C1645 C1643 1.415 . S
C1646 H1636 0.930 . S
C1646 C1644 1.419 . S
C1646 C1647 1.362 . S
C1647 H1637 0.930 . S
C1647 C1640 1.409 . S
C1647 C1646 1.362 . S
H1648 C1654 0.930 . S
H1649 C1657 0.930 . S
H1650 C1658 0.930 . S
H1651 C1659 0.930 . S
H1652 C1662 0.930 . S
H1653 C1663 0.930 . S
C1654 H1648 0.930 . S
C1654 C1655 1.355 . S
C1654 C1656 1.415 . S
C1655 C1654 1.355 . S
C1655 C1657 1.419 . S
C1656 C1654 1.415 . S
C1656 C1661 1.425 . S
C1656 C1663 1.409 . S
C1657 H1649 0.930 . S
C1657 C1655 1.419 . S
C1657 C1658 1.362 . S
C1658 H1650 0.930 . S
C1658 C1657 1.362 . S
C1658 C1661 1.409 . S
C1659 H1651 0.930 . S
C1659 C1660 1.355 . S
C1659 C1661 1.415 . S
C1660 C1659 1.355 . S
C1660 C1662 1.419 . S
C1661 C1656 1.425 . S
C1661 C1658 1.409 . S
C1661 C1659 1.415 . S
C1662 H1652 0.930 . S
C1662 C1660 1.419 . S
C1662 C1663 1.362 . S
C1663 H1653 0.930 . S
C1663 C1656 1.409 . S
C1663 C1662 1.362 . S
H1664 C1670 0.930 . S
H1665 C1673 0.930 . S
H1666 C1674 0.930 . S
H1667 C1675 0.930 . S
H1668 C1678 0.930 . S
H1669 C1679 0.930 . S
C1670 H1664 0.930 . S
C1670 C1671 1.355 . S
C1670 C1672 1.415 . S
C1671 C1670 1.355 . S
C1671 C1673 1.419 . S
C1672 C1670 1.415 . S
C1672 C1677 1.425 . S
C1672 C1679 1.409 . S
C1673 H1665 0.930 . S
C1673 C1671 1.419 . S
C1673 C1674 1.362 . S
C1674 H1666 0.930 . S
C1674 C1673 1.362 . S
C1674 C1677 1.409 . S
C1675 H1667 0.930 . S
C1675 C1676 1.355 . S
C1675 C1677 1.415 . S
C1676 C1675 1.355 . S
C1676 C1678 1.419 . S
C1677 C1672 1.425 . S
C1677 C1674 1.409 . S
C1677 C1675 1.415 . S
C1678 H1668 0.930 . S
C1678 C1676 1.419 . S
C1678 C1679 1.362 . S
C1679 H1669 0.930 . S
C1679 C1672 1.409 . S
C1679 C1678 1.362 . S
H1680 C1686 0.930 . S
H1681 C1689 0.930 . S
H1682 C1690 0.930 . S
H1683 C1691 0.930 . S
H1684 C1694 0.930 . S
H1685 C1695 0.930 . S
C1686 H1680 0.930 . S
C1686 C1687 1.355 . S
C1686 C1688 1.415 . S
C1687 C1686 1.355 . S
C1687 C1689 1.419 . S
C1688 C1686 1.415 . S
C1688 C1693 1.425 . S
C1688 C1695 1.409 . S
C1689 H1681 0.930 . S
C1689 C1687 1.419 . S
C1689 C1690 1.362 . S
C1690 H1682 0.930 . S
C1690 C1689 1.362 . S
C1690 C1693 1.409 . S
C1691 H1683 0.930 . S
C1691 C1692 1.355 . S
C1691 C1693 1.415 . S
C1692 C1691 1.355 . S
C1692 C1694 1.419 . S
C1693 C1688 1.425 . S
C1693 C1690 1.409 . S
C1693 C1691 1.415 . S
C1694 H1684 0.930 . S
C1694 C1692 1.419 . S
C1694 C1695 1.362 . S
C1695 H1685 0.930 . S
C1695 C1688 1.409 . S
C1695 C1694 1.362 . S
H1696 C1702 0.930 . S
H1697 C1705 0.930 . S
H1698 C1706 0.930 . S
H1699 C1707 0.930 . S
H1700 C1710 0.930 . S
H1701 C1711 0.930 . S
C1702 H1696 0.930 . S
C1702 C1703 1.355 . S
C1702 C1704 1.415 . S
C1703 C1702 1.355 . S
C1703 C1705 1.419 . S
C1704 C1702 1.415 . S
C1704 C1709 1.425 . S
C1704 C1711 1.409 . S
C1705 H1697 0.930 . S
C1705 C1703 1.419 . S
C1705 C1706 1.362 . S
C1706 H1698 0.930 . S
C1706 C1705 1.362 . S
C1706 C1709 1.409 . S
C1707 H1699 0.930 . S
C1707 C1708 1.355 . S
C1707 C1709 1.415 . S
C1708 C1707 1.355 . S
C1708 C1710 1.419 . S
C1709 C1704 1.425 . S
C1709 C1706 1.409 . S
C1709 C1707 1.415 . S
C1710 H1700 0.930 . S
C1710 C1708 1.419 . S
C1710 C1711 1.362 . S
C1711 H1701 0.930 . S
C1711 C1704 1.409 . S
C1711 C1710 1.362 . S
H1712 C1718 0.930 . S
H1713 C1721 0.930 . S
H1714 C1722 0.930 . S
H1715 C1723 0.930 . S
H1716 C1726 0.930 . S
H1717 C1727 0.930 . S
C1718 H1712 0.930 . S
C1718 C1719 1.355 . S
C1718 C1720 1.415 . S
C1719 C1718 1.355 . S
C1719 C1721 1.419 . S
C1720 C1718 1.415 . S
C1720 C1725 1.425 . S
C1720 C1727 1.409 . S
C1721 H1713 0.930 . S
C1721 C1719 1.419 . S
C1721 C1722 1.362 . S
C1722 H1714 0.930 . S
C1722 C1721 1.362 . S
C1722 C1725 1.409 . S
C1723 H1715 0.930 . S
C1723 C1724 1.355 . S
C1723 C1725 1.415 . S
C1724 C1723 1.355 . S
C1724 C1726 1.419 . S
C1725 C1720 1.425 . S
C1725 C1722 1.409 . S
C1725 C1723 1.415 . S
C1726 H1716 0.930 . S
C1726 C1724 1.419 . S
C1726 C1727 1.362 . S
C1727 H1717 0.930 . S
C1727 C1720 1.409 . S
C1727 C1726 1.362 . S
H1728 C1734 0.930 . S
H1729 C1737 0.930 . S
H1730 C1738 0.930 . S
H1731 C1739 0.925 1_565 S
H1732 C1742 0.930 1_565 S
H1733 C1743 0.930 . S
C1734 H1728 0.930 . S
C1734 C1735 1.355 . S
C1734 C1736 1.415 . S
C1735 C1734 1.355 . S
C1735 C1737 1.419 . S
C1736 C1734 1.415 . S
C1736 C1741 1.425 . S
C1736 C1743 1.409 . S
C1737 H1729 0.930 . S
C1737 C1735 1.419 . S
C1737 C1738 1.362 . S
C1738 H1730 0.930 . S
C1738 C1737 1.362 . S
C1738 C1741 1.409 . S
C1739 H1731 0.925 1_545 S
C1739 C1740 1.351 1_545 S
C1739 C1741 1.423 . S
C1740 C1739 1.351 1_565 S
C1740 C1742 1.419 1_565 S
C1741 C1736 1.425 . S
C1741 C1738 1.409 . S
C1741 C1739 1.423 . S
C1742 H1732 0.930 1_545 S
C1742 C1740 1.419 1_545 S
C1742 C1743 1.362 . S
C1743 H1733 0.930 . S
C1743 C1736 1.409 . S
C1743 C1742 1.362 . S
H1744 C1750 0.930 1_565 S
H1745 C1753 0.930 . S
H1746 C1754 0.930 . S
H1747 C1755 0.930 . S
H1748 C1758 0.930 . S
H1749 C1759 0.930 . S
C1750 H1744 0.930 1_545 S
C1750 C1751 1.355 . S
C1750 C1752 1.415 . S
C1751 C1750 1.355 . S
C1751 C1753 1.419 . S
C1752 C1750 1.415 . S
C1752 C1757 1.425 . S
C1752 C1759 1.409 . S
C1753 H1745 0.930 . S
C1753 C1751 1.419 . S
C1753 C1754 1.362 . S
C1754 H1746 0.930 . S
C1754 C1753 1.362 . S
C1754 C1757 1.409 . S
C1755 H1747 0.930 . S
C1755 C1756 1.355 . S
C1755 C1757 1.415 . S
C1756 C1755 1.355 . S
C1756 C1758 1.419 . S
C1757 C1752 1.425 . S
C1757 C1754 1.409 . S
C1757 C1755 1.415 . S
C1758 H1748 0.930 . S
C1758 C1756 1.419 . S
C1758 C1759 1.362 . S
C1759 H1749 0.930 . S
C1759 C1752 1.409 . S
C1759 C1758 1.362 . S
H1760 C1766 0.930 . S
H1761 C1769 0.930 . S
H1762 C1770 0.930 . S
H1763 C1771 0.930 . S
H1764 C1774 0.930 . S
H1765 C1775 0.930 . S
C1766 H1760 0.930 . S
C1766 C1767 1.348 1_545 S
C1766 C1768 1.415 . S
C1767 C1766 1.348 1_565 S
C1767 C1769 1.419 . S
C1768 C1766 1.415 . S
C1768 C1773 1.425 . S
C1768 C1775 1.409 . S
C1769 H1761 0.930 . S
C1769 C1767 1.419 . S
C1769 C1770 1.362 1_565 S
C1770 H1762 0.930 . S
C1770 C1769 1.362 1_545 S
C1770 C1773 1.409 . S
C1771 H1763 0.930 . S
C1771 C1772 1.355 . S
C1771 C1773 1.415 . S
C1772 C1771 1.355 . S
C1772 C1774 1.419 . S
C1773 C1768 1.425 . S
C1773 C1770 1.409 . S
C1773 C1771 1.415 . S
C1774 H1764 0.930 . S
C1774 C1772 1.419 . S
C1774 C1775 1.362 . S
C1775 H1765 0.930 . S
C1775 C1768 1.409 . S
C1775 C1774 1.362 . S
H1776 C1782 0.930 . S
H1777 C1785 0.930 . S
H1778 C1786 0.930 . S
H1779 C1787 0.930 . S
H1780 C1790 0.930 . S
H1781 C1791 0.930 . S
C1782 H1776 0.930 . S
C1782 C1783 1.355 1_545 S
C1782 C1784 1.415 . S
C1783 C1782 1.355 1_565 S
C1783 C1785 1.419 . S
C1784 C1782 1.415 . S
C1784 C1789 1.425 . S
C1784 C1791 1.409 . S
C1785 H1777 0.930 . S
C1785 C1783 1.419 . S
C1785 C1786 1.362 1_565 S
C1786 H1778 0.930 . S
C1786 C1785 1.362 1_545 S
C1786 C1789 1.409 . S
C1787 H1779 0.930 . S
C1787 C1788 1.355 . S
C1787 C1789 1.415 . S
C1788 C1787 1.355 . S
C1788 C1790 1.419 . S
C1789 C1784 1.425 . S
C1789 C1786 1.409 . S
C1789 C1787 1.415 . S
C1790 H1780 0.930 . S
C1790 C1788 1.419 . S
C1790 C1791 1.362 . S
C1791 H1781 0.930 . S
C1791 C1784 1.409 . S
C1791 C1790 1.362 . S
H1792 C1798 0.930 . S
H1793 C1801 0.930 . S
H1794 C1802 0.930 . S
H1795 C1803 0.930 . S
H1796 C1806 0.930 1_545 S
H1797 C1807 0.930 . S
C1798 H1792 0.930 . S
C1798 C1799 1.355 . S
C1798 C1800 1.415 . S
C1799 C1798 1.355 . S
C1799 C1801 1.419 . S
C1800 C1798 1.415 . S
C1800 C1805 1.425 . S
C1800 C1807 1.409 . S
C1801 H1793 0.930 . S
C1801 C1799 1.419 . S
C1801 C1802 1.362 . S
C1802 H1794 0.930 . S
C1802 C1801 1.362 . S
C1802 C1805 1.409 . S
C1803 H1795 0.930 . S
C1803 C1804 1.355 . S
C1803 C1805 1.415 1_545 S
C1804 C1803 1.355 . S
C1804 C1806 1.419 1_545 S
C1805 C1800 1.425 . S
C1805 C1802 1.409 . S
C1805 C1803 1.415 1_565 S
C1806 H1796 0.930 1_565 S
C1806 C1804 1.419 1_565 S
C1806 C1807 1.362 . S
C1807 H1797 0.930 . S
C1807 C1800 1.409 . S
C1807 C1806 1.362 . S
H1808 C1814 0.930 . S
H1809 C1817 0.930 1_545 S
H1810 C1818 0.930 . S
H1811 C1819 0.930 . S
H1812 C1822 0.930 . S
H1813 C1823 0.930 . S
C1814 H1808 0.930 . S
C1814 C1815 1.352 1_565 S
C1814 C1816 1.415 . S
C1815 C1814 1.352 1_545 S
C1815 C1817 1.419 1_545 S
C1816 C1814 1.415 . S
C1816 C1821 1.425 . S
C1816 C1823 1.409 . S
C1817 H1809 0.930 1_565 S
C1817 C1815 1.419 1_565 S
C1817 C1818 1.362 . S
C1818 H1810 0.930 . S
C1818 C1817 1.362 . S
C1818 C1821 1.409 . S
C1819 H1811 0.930 . S
C1819 C1820 1.355 . S
C1819 C1821 1.415 . S
C1820 C1819 1.355 . S
C1820 C1822 1.419 . S
C1821 C1816 1.425 . S
C1821 C1818 1.409 . S
C1821 C1819 1.415 . S
C1822 H1812 0.930 . S
C1822 C1820 1.419 . S
C1822 C1823 1.362 . S
C1823 H1813 0.930 . S
C1823 C1816 1.409 . S
C1823 C1822 1.362 . S
H1824 C1830 0.930 . S
H1825 C1833 0.930 . S
H1826 C1834 0.930 . S
H1827 C1835 0.930 . S
H1828 C1838 0.930 . S
H1829 C1839 0.930 . S
C1830 H1824 0.930 . S
C1830 C1831 1.355 . S
C1830 C1832 1.415 . S
C1831 C1830 1.355 . S
C1831 C1833 1.419 . S
C1832 C1830 1.415 . S
C1832 C1837 1.425 . S
C1832 C1839 1.409 . S
C1833 H1825 0.930 . S
C1833 C1831 1.419 . S
C1833 C1834 1.362 . S
C1834 H1826 0.930 . S
C1834 C1833 1.362 . S
C1834 C1837 1.409 . S
C1835 H1827 0.930 . S
C1835 C1836 1.355 . S
C1835 C1837 1.415 . S
C1836 C1835 1.355 . S
C1836 C1838 1.419 . S
C1837 C1832 1.425 . S
C1837 C1834 1.409 . S
C1837 C1835 1.415 . S
C1838 H1828 0.930 . S
C1838 C1836 1.419 . S
C1838 C1839 1.362 . S
C1839 H1829 0.930 . S
C1839 C1832 1.409 . S
C1839 C1838 1.362 . S
H1840 C1846 0.930 . S
H1841 C1849 0.930 . S
H1842 C1850 0.930 . S
H1843 C1851 0.930 . S
H1844 C1854 0.930 . S
H1845 C1855 0.930 . S
C1846 H1840 0.930 . S
C1846 C1847 1.355 . S
C1846 C1848 1.415 . S
C1847 C1846 1.355 . S
C1847 C1849 1.419 . S
C1848 C1846 1.415 . S
C1848 C1853 1.425 . S
C1848 C1855 1.409 . S
C1849 H1841 0.930 . S
C1849 C1847 1.419 . S
C1849 C1850 1.362 . S
C1850 H1842 0.930 . S
C1850 C1849 1.362 . S
C1850 C1853 1.409 . S
C1851 H1843 0.930 . S
C1851 C1852 1.355 1_565 S
C1851 C1853 1.415 . S
C1852 C1851 1.355 1_545 S
C1852 C1854 1.419 . S
C1853 C1848 1.425 . S
C1853 C1850 1.409 . S
C1853 C1851 1.415 . S
C1854 H1844 0.930 . S
C1854 C1852 1.419 . S
C1854 C1855 1.362 1_545 S
C1855 H1845 0.930 . S
C1855 C1848 1.409 . S
C1855 C1854 1.362 1_565 S
H1856 C1862 0.913 1_455 S
H1857 C1865 0.930 . S
H1858 C1866 0.930 . S
H1859 C1867 0.930 . S
H1860 C1870 0.930 . S
H1861 C1871 0.964 . S
C1862 H1856 0.913 1_655 S
C1862 C1863 1.355 . S
C1862 C1864 1.415 . S
C1863 C1862 1.355 . S
C1863 C1865 1.419 . S
C1864 C1862 1.415 . S
C1864 C1869 1.425 . S
C1864 C1871 1.409 . S
C1865 H1857 0.930 . S
C1865 C1863 1.419 . S
C1865 C1866 1.362 . S
C1866 H1858 0.930 . S
C1866 C1865 1.362 . S
C1866 C1869 1.409 . S
C1867 H1859 0.930 . S
C1867 C1868 1.355 . S
C1867 C1869 1.415 . S
C1868 C1867 1.355 . S
C1868 C1870 1.419 . S
C1869 C1864 1.425 . S
C1869 C1866 1.409 . S
C1869 C1867 1.415 . S
C1870 H1860 0.930 . S
C1870 C1868 1.419 . S
C1870 C1871 1.362 . S
C1871 H1861 0.964 . S
C1871 C1864 1.409 . S
C1871 C1870 1.362 . S
H1872 C1878 0.930 . S
H1873 C1881 0.930 . S
H1874 C1882 0.930 . S
H1875 C1883 0.930 . S
H1876 C1886 0.930 . S
H1877 C1887 0.930 . S
C1878 H1872 0.930 . S
C1878 C1879 1.355 . S
C1878 C1880 1.415 . S
C1879 C1878 1.355 . S
C1879 C1881 1.419 . S
C1880 C1878 1.415 . S
C1880 C1885 1.425 . S
C1880 C1887 1.409 . S
C1881 H1873 0.930 . S
C1881 C1879 1.419 . S
C1881 C1882 1.362 . S
C1882 H1874 0.930 . S
C1882 C1881 1.362 . S
C1882 C1885 1.409 . S
C1883 H1875 0.930 . S
C1883 C1884 1.355 . S
C1883 C1885 1.415 . S
C1884 C1883 1.355 . S
C1884 C1886 1.419 . S
C1885 C1880 1.425 . S
C1885 C1882 1.409 . S
C1885 C1883 1.415 . S
C1886 H1876 0.930 . S
C1886 C1884 1.419 . S
C1886 C1887 1.362 . S
C1887 H1877 0.930 . S
C1887 C1880 1.409 . S
C1887 C1886 1.362 . S
H1888 C1894 0.930 . S
H1889 C1897 0.930 . S
H1890 C1898 0.930 . S
H1891 C1899 0.930 . S
H1892 C1902 0.933 1_455 S
H1893 C1903 0.930 . S
C1894 H1888 0.930 . S
C1894 C1895 1.355 . S
C1894 C1896 1.415 . S
C1895 C1894 1.355 . S
C1895 C1897 1.419 . S
C1896 C1894 1.415 . S
C1896 C1901 1.425 . S
C1896 C1903 1.409 . S
C1897 H1889 0.930 . S
C1897 C1895 1.419 . S
C1897 C1898 1.362 . S
C1898 H1890 0.930 . S
C1898 C1897 1.362 . S
C1898 C1901 1.409 . S
C1899 H1891 0.930 . S
C1899 C1900 1.355 . S
C1899 C1901 1.415 . S
C1900 C1899 1.355 . S
C1900 C1902 1.419 . S
C1901 C1896 1.425 . S
C1901 C1898 1.409 . S
C1901 C1899 1.415 . S
C1902 H1892 0.933 1_655 S
C1902 C1900 1.419 . S
C1902 C1903 1.362 . S
C1903 H1893 0.930 . S
C1903 C1896 1.409 . S
C1903 C1902 1.362 . S
H1904 C1910 0.930 . S
H1905 C1913 0.930 . S
H1906 C1914 0.930 . S
H1907 C1915 0.930 . S
H1908 C1918 0.930 . S
H1909 C1919 0.930 . S
C1910 H1904 0.930 . S
C1910 C1911 1.355 . S
C1910 C1912 1.415 . S
C1911 C1910 1.355 . S
C1911 C1913 1.419 . S
C1912 C1910 1.415 . S
C1912 C1917 1.425 . S
C1912 C1919 1.409 . S
C1913 H1905 0.930 . S
C1913 C1911 1.419 . S
C1913 C1914 1.362 . S
C1914 H1906 0.930 . S
C1914 C1913 1.362 . S
C1914 C1917 1.409 . S
C1915 H1907 0.930 . S
C1915 C1916 1.355 . S
C1915 C1917 1.415 . S
C1916 C1915 1.355 . S
C1916 C1918 1.419 . S
C1917 C1912 1.425 . S
C1917 C1914 1.409 . S
C1917 C1915 1.415 . S
C1918 H1908 0.930 . S
C1918 C1916 1.419 . S
C1918 C1919 1.362 . S
C1919 H1909 0.930 . S
C1919 C1912 1.409 . S
C1919 C1918 1.362 . S
H1920 C1926 0.930 . S
H1921 C1929 0.930 . S
H1922 C1930 0.930 . S
H1923 C1931 0.930 . S
H1924 C1934 0.930 1_655 S
H1925 C1935 0.930 1_655 S
C1926 H1920 0.930 . S
C1926 C1927 1.355 . S
C1926 C1928 1.415 . S
C1927 C1926 1.355 . S
C1927 C1929 1.419 . S
C1928 C1926 1.415 . S
C1928 C1933 1.425 . S
C1928 C1935 1.409 . S
C1929 H1921 0.930 . S
C1929 C1927 1.419 . S
C1929 C1930 1.362 . S
C1930 H1922 0.930 . S
C1930 C1929 1.362 . S
C1930 C1933 1.409 . S
C1931 H1923 0.930 . S
C1931 C1932 1.355 . S
C1931 C1933 1.415 . S
C1932 C1931 1.355 . S
C1932 C1934 1.419 . S
C1933 C1928 1.425 . S
C1933 C1930 1.409 . S
C1933 C1931 1.415 . S
C1934 H1924 0.930 1_455 S
C1934 C1932 1.419 . S
C1934 C1935 1.362 . S
C1935 H1925 0.930 1_455 S
C1935 C1928 1.409 . S
C1935 C1934 1.362 . S
H1936 C1942 0.930 . S
H1937 C1945 0.930 . S
H1938 C1946 0.930 . S
H1939 C1947 0.930 . S
H1940 C1950 0.930 . S
H1941 C1951 0.930 . S
C1942 H1936 0.930 . S
C1942 C1943 1.355 . S
C1942 C1944 1.415 . S
C1943 C1942 1.355 . S
C1943 C1945 1.419 . S
C1944 C1942 1.415 . S
C1944 C1949 1.425 . S
C1944 C1951 1.409 . S
C1945 H1937 0.930 . S
C1945 C1943 1.419 . S
C1945 C1946 1.362 . S
C1946 H1938 0.930 . S
C1946 C1945 1.362 . S
C1946 C1949 1.409 . S
C1947 H1939 0.930 . S
C1947 C1948 1.355 . S
C1947 C1949 1.415 . S
C1948 C1947 1.355 . S
C1948 C1950 1.419 . S
C1949 C1944 1.425 . S
C1949 C1946 1.409 . S
C1949 C1947 1.415 . S
C1950 H1940 0.930 . S
C1950 C1948 1.419 . S
C1950 C1951 1.362 . S
C1951 H1941 0.930 . S
C1951 C1944 1.409 . S
C1951 C1950 1.362 . S
H1952 C1958 0.930 . S
H1953 C1961 0.930 . S
H1954 C1962 0.930 . S
H1955 C1963 0.930 . S
H1956 C1966 0.930 . S
H1957 C1967 0.930 . S
C1958 H1952 0.930 . S
C1958 C1959 1.355 . S
C1958 C1960 1.415 . S
C1959 C1958 1.355 . S
C1959 C1961 1.419 . S
C1960 C1958 1.415 . S
C1960 C1965 1.425 . S
C1960 C1967 1.409 . S
C1961 H1953 0.930 . S
C1961 C1959 1.419 . S
C1961 C1962 1.362 . S
C1962 H1954 0.930 . S
C1962 C1961 1.362 . S
C1962 C1965 1.409 . S
C1963 H1955 0.930 . S
C1963 C1964 1.355 . S
C1963 C1965 1.415 . S
C1964 C1963 1.355 . S
C1964 C1966 1.419 . S
C1965 C1960 1.425 . S
C1965 C1962 1.409 . S
C1965 C1963 1.415 . S
C1966 H1956 0.930 . S
C1966 C1964 1.419 . S
C1966 C1967 1.362 . S
C1967 H1957 0.930 . S
C1967 C1960 1.409 . S
C1967 C1966 1.362 . S
H1968 C1974 0.930 . S
H1969 C1977 0.930 . S
H1970 C1978 0.930 . S
H1971 C1979 0.930 . S
H1972 C1982 0.930 . S
H1973 C1983 0.930 . S
C1974 H1968 0.930 . S
C1974 C1975 1.355 . S
C1974 C1976 1.415 . S
C1975 C1974 1.355 . S
C1975 C1977 1.419 . S
C1976 C1974 1.415 . S
C1976 C1981 1.425 . S
C1976 C1983 1.409 . S
C1977 H1969 0.930 . S
C1977 C1975 1.419 . S
C1977 C1978 1.362 . S
C1978 H1970 0.930 . S
C1978 C1977 1.362 . S
C1978 C1981 1.409 . S
C1979 H1971 0.930 . S
C1979 C1980 1.355 . S
C1979 C1981 1.415 . S
C1980 C1979 1.355 . S
C1980 C1982 1.419 . S
C1981 C1976 1.425 . S
C1981 C1978 1.409 . S
C1981 C1979 1.415 . S
C1982 H1972 0.930 . S
C1982 C1980 1.419 . S
C1982 C1983 1.362 . S
C1983 H1973 0.930 . S
C1983 C1976 1.409 . S
C1983 C1982 1.362 . S
H1984 C1990 0.930 . S
H1985 C1993 0.930 . S
H1986 C1994 0.930 . S
H1987 C1995 0.930 . S
H1988 C1998 0.930 . S
H1989 C1999 0.930 . S
C1990 H1984 0.930 . S
C1990 C1991 1.355 1_545 S
C1990 C1992 1.415 . S
C1991 C1990 1.355 1_565 S
C1991 C1993 1.419 . S
C1992 C1990 1.415 . S
C1992 C1997 1.425 . S
C1992 C1999 1.409 . S
C1993 H1985 0.930 . S
C1993 C1991 1.419 . S
C1993 C1994 1.362 1_565 S
C1994 H1986 0.930 . S
C1994 C1993 1.362 1_545 S
C1994 C1997 1.409 . S
C1995 H1987 0.930 . S
C1995 C1996 1.355 . S
C1995 C1997 1.415 . S
C1996 C1995 1.355 . S
C1996 C1998 1.419 . S
C1997 C1992 1.425 . S
C1997 C1994 1.409 . S
C1997 C1995 1.415 . S
C1998 H1988 0.930 . S
C1998 C1996 1.419 . S
C1998 C1999 1.362 . S
C1999 H1989 0.930 . S
C1999 C1992 1.409 . S
C1999 C1998 1.362 . S
H2000 C2006 0.930 . S
H2001 C2009 0.930 . S
H2002 C2010 0.930 . S
H2003 C2011 0.930 . S
H2004 C2014 0.930 . S
H2005 C2015 0.930 . S
C2006 H2000 0.930 . S
C2006 C2007 1.355 1_545 S
C2006 C2008 1.415 . S
C2007 C2006 1.355 1_565 S
C2007 C2009 1.419 . S
C2008 C2006 1.415 . S
C2008 C2013 1.425 . S
C2008 C2015 1.409 . S
C2009 H2001 0.930 . S
C2009 C2007 1.419 . S
C2009 C2010 1.362 1_565 S
C2010 H2002 0.930 . S
C2010 C2009 1.362 1_545 S
C2010 C2013 1.409 . S
C2011 H2003 0.930 . S
C2011 C2012 1.355 . S
C2011 C2013 1.415 . S
C2012 C2011 1.355 . S
C2012 C2014 1.419 . S
C2013 C2008 1.425 . S
C2013 C2010 1.409 . S
C2013 C2011 1.415 . S
C2014 H2004 0.930 . S
C2014 C2012 1.419 . S
C2014 C2015 1.362 . S
C2015 H2005 0.930 . S
C2015 C2008 1.409 . S
C2015 C2014 1.362 . S
H2016 C2022 0.930 . S
H2017 C2025 0.930 . S
H2018 C2026 0.930 . S
H2019 C2027 0.930 . S
H2020 C2030 0.930 . S
H2021 C2031 0.930 . S
C2022 H2016 0.930 . S
C2022 C2023 1.348 1_545 S
C2022 C2024 1.415 . S
C2023 C2022 1.348 1_565 S
C2023 C2025 1.419 . S
C2024 C2022 1.415 . S
C2024 C2029 1.425 . S
C2024 C2031 1.409 . S
C2025 H2017 0.930 . S
C2025 C2023 1.419 . S
C2025 C2026 1.362 1_565 S
C2026 H2018 0.930 . S
C2026 C2025 1.362 1_545 S
C2026 C2029 1.409 . S
C2027 H2019 0.930 . S
C2027 C2028 1.355 . S
C2027 C2029 1.415 . S
C2028 C2027 1.355 . S
C2028 C2030 1.419 . S
C2029 C2024 1.425 . S
C2029 C2026 1.409 . S
C2029 C2027 1.415 . S
C2030 H2020 0.930 . S
C2030 C2028 1.419 . S
C2030 C2031 1.362 . S
C2031 H2021 0.930 . S
C2031 C2024 1.409 . S
C2031 C2030 1.362 . S
H2032 C2038 0.930 . S
H2033 C2041 0.930 . S
H2034 C2042 0.930 . S
H2035 C2043 0.930 1_565 S
H2036 C2046 0.930 . S
H2037 C2047 0.930 . S
C2038 H2032 0.930 . S
C2038 C2039 1.355 . S
C2038 C2040 1.415 . S
C2039 C2038 1.355 . S
C2039 C2041 1.419 . S
C2040 C2038 1.415 . S
C2040 C2045 1.425 . S
C2040 C2047 1.409 . S
C2041 H2033 0.930 . S
C2041 C2039 1.419 . S
C2041 C2042 1.362 . S
C2042 H2034 0.930 . S
C2042 C2041 1.362 . S
C2042 C2045 1.409 . S
C2043 H2035 0.930 1_545 S
C2043 C2044 1.355 1_545 S
C2043 C2045 1.415 . S
C2044 C2043 1.355 1_565 S
C2044 C2046 1.419 . S
C2045 C2040 1.425 . S
C2045 C2042 1.409 . S
C2045 C2043 1.415 . S
C2046 H2036 0.930 . S
C2046 C2044 1.419 . S
C2046 C2047 1.362 1_565 S
C2047 H2037 0.930 . S
C2047 C2040 1.409 . S
C2047 C2046 1.362 1_545 S
H2048 C2054 0.930 . S
H2049 C2057 0.930 . S
H2050 C2058 0.930 . S
H2051 C2059 0.930 . S
H2052 C2062 0.930 . S
H2053 C2063 0.930 . S
C2054 H2048 0.930 . S
C2054 C2055 1.355 1_565 S
C2054 C2056 1.415 . S
C2055 C2054 1.355 1_545 S
C2055 C2057 1.419 . S
C2056 C2054 1.415 . S
C2056 C2061 1.425 . S
C2056 C2063 1.409 . S
C2057 H2049 0.930 . S
C2057 C2055 1.419 . S
C2057 C2058 1.362 1_545 S
C2058 H2050 0.930 . S
C2058 C2057 1.362 1_565 S
C2058 C2061 1.409 . S
C2059 H2051 0.930 . S
C2059 C2060 1.355 . S
C2059 C2061 1.415 . S
C2060 C2059 1.355 . S
C2060 C2062 1.419 . S
C2061 C2056 1.425 . S
C2061 C2058 1.409 . S
C2061 C2059 1.415 . S
C2062 H2052 0.930 . S
C2062 C2060 1.419 . S
C2062 C2063 1.362 . S
C2063 H2053 0.930 . S
C2063 C2056 1.409 . S
C2063 C2062 1.362 . S
H2064 C2070 0.930 . S
H2065 C2073 0.930 . S
H2066 C2074 0.930 . S
H2067 C2075 0.930 . S
H2068 C2078 0.930 . S
H2069 C2079 0.930 . S
C2070 H2064 0.930 . S
C2070 C2071 1.355 . S
C2070 C2072 1.415 . S
C2071 C2070 1.355 . S
C2071 C2073 1.419 . S
C2072 C2070 1.415 . S
C2072 C2077 1.425 . S
C2072 C2079 1.409 . S
C2073 H2065 0.930 . S
C2073 C2071 1.419 . S
C2073 C2074 1.362 . S
C2074 H2066 0.930 . S
C2074 C2073 1.362 . S
C2074 C2077 1.409 . S
C2075 H2067 0.930 . S
C2075 C2076 1.355 . S
C2075 C2077 1.415 . S
C2076 C2075 1.355 . S
C2076 C2078 1.419 . S
C2077 C2072 1.425 . S
C2077 C2074 1.409 . S
C2077 C2075 1.415 . S
C2078 H2068 0.930 . S
C2078 C2076 1.419 . S
C2078 C2079 1.362 . S
C2079 H2069 0.930 . S
C2079 C2072 1.409 . S
C2079 C2078 1.362 . S
H2080 C2086 0.930 . S
H2081 C2089 0.930 . S
H2082 C2090 0.930 . S
H2083 C2091 0.930 . S
H2084 C2094 0.930 1_545 S
H2085 C2095 0.930 . S
C2086 H2080 0.930 . S
C2086 C2087 1.355 . S
C2086 C2088 1.415 . S
C2087 C2086 1.355 . S
C2087 C2089 1.419 . S
C2088 C2086 1.415 . S
C2088 C2093 1.425 . S
C2088 C2095 1.409 . S
C2089 H2081 0.930 . S
C2089 C2087 1.419 . S
C2089 C2090 1.362 . S
C2090 H2082 0.930 . S
C2090 C2089 1.362 . S
C2090 C2093 1.409 . S
C2091 H2083 0.930 . S
C2091 C2092 1.355 . S
C2091 C2093 1.415 . S
C2092 C2091 1.355 . S
C2092 C2094 1.419 . S
C2093 C2088 1.425 . S
C2093 C2090 1.409 . S
C2093 C2091 1.415 . S
C2094 H2084 0.930 1_565 S
C2094 C2092 1.419 . S
C2094 C2095 1.362 . S
C2095 H2085 0.930 . S
C2095 C2088 1.409 . S
C2095 C2094 1.362 . S
H2096 C2102 0.930 1_545 S
H2097 C2105 0.930 1_545 S
H2098 C2106 0.930 . S
H2099 C2107 0.930 . S
H2100 C2110 0.930 . S
H2101 C2111 0.930 . S
C2102 H2096 0.930 1_565 S
C2102 C2103 1.355 1_565 S
C2102 C2104 1.415 . S
C2103 C2102 1.355 1_545 S
C2103 C2105 1.419 1_545 S
C2104 C2102 1.415 . S
C2104 C2109 1.425 . S
C2104 C2111 1.409 . S
C2105 H2097 0.930 1_565 S
C2105 C2103 1.419 1_565 S
C2105 C2106 1.362 . S
C2106 H2098 0.930 . S
C2106 C2105 1.362 . S
C2106 C2109 1.409 . S
C2107 H2099 0.930 . S
C2107 C2108 1.355 . S
C2107 C2109 1.415 . S
C2108 C2107 1.355 . S
C2108 C2110 1.419 . S
C2109 C2104 1.425 . S
C2109 C2106 1.409 . S
C2109 C2107 1.415 . S
C2110 H2100 0.930 . S
C2110 C2108 1.419 . S
C2110 C2111 1.362 . S
C2111 H2101 0.930 . S
C2111 C2104 1.409 . S
C2111 C2110 1.362 . S
H2112 C2118 0.930 . S
H2113 C2121 0.930 . S
H2114 C2122 0.930 . S
H2115 C2123 0.930 . S
H2116 C2126 0.930 . S
H2117 C2127 0.930 . S
C2118 H2112 0.930 . S
C2118 C2119 1.355 . S
C2118 C2120 1.415 . S
C2119 C2118 1.355 . S
C2119 C2121 1.419 . S
C2120 C2118 1.415 . S
C2120 C2125 1.425 . S
C2120 C2127 1.409 . S
C2121 H2113 0.930 . S
C2121 C2119 1.419 . S
C2121 C2122 1.362 . S
C2122 H2114 0.930 . S
C2122 C2121 1.362 . S
C2122 C2125 1.409 . S
C2123 H2115 0.930 . S
C2123 C2124 1.355 . S
C2123 C2125 1.415 . S
C2124 C2123 1.355 . S
C2124 C2126 1.419 . S
C2125 C2120 1.425 . S
C2125 C2122 1.409 . S
C2125 C2123 1.415 . S
C2126 H2116 0.930 . S
C2126 C2124 1.419 . S
C2126 C2127 1.362 . S
C2127 H2117 0.930 . S
C2127 C2120 1.409 . S
C2127 C2126 1.362 . S
H2128 C2134 0.930 1_545 S
H2129 C2137 0.930 . S
H2130 C2138 0.930 . S
H2131 C2139 0.930 . S
H2132 C2142 0.930 . S
H2133 C2143 0.930 . S
C2134 H2128 0.930 1_565 S
C2134 C2135 1.355 . S
C2134 C2136 1.415 . S
C2135 C2134 1.355 . S
C2135 C2137 1.419 . S
C2136 C2134 1.415 . S
C2136 C2141 1.425 . S
C2136 C2143 1.409 . S
C2137 H2129 0.930 . S
C2137 C2135 1.419 . S
C2137 C2138 1.362 . S
C2138 H2130 0.930 . S
C2138 C2137 1.362 . S
C2138 C2141 1.409 . S
C2139 H2131 0.930 . S
C2139 C2140 1.355 . S
C2139 C2141 1.415 . S
C2140 C2139 1.355 . S
C2140 C2142 1.419 . S
C2141 C2136 1.425 . S
C2141 C2138 1.409 . S
C2141 C2139 1.415 . S
C2142 H2132 0.930 . S
C2142 C2140 1.419 . S
C2142 C2143 1.362 . S
C2143 H2133 0.930 . S
C2143 C2136 1.409 . S
C2143 C2142 1.362 . S
H2144 C2150 0.930 . S
H2145 C2153 0.930 . S
H2146 C2154 0.930 . S
H2147 C2155 0.930 . S
H2148 C2158 0.930 . S
H2149 C2159 0.930 . S
C2150 H2144 0.930 . S
C2150 C2151 1.355 . S
C2150 C2152 1.415 . S
C2151 C2150 1.355 . S
C2151 C2153 1.419 . S
C2152 C2150 1.415 . S
C2152 C2157 1.425 . S
C2152 C2159 1.409 . S
C2153 H2145 0.930 . S
C2153 C2151 1.419 . S
C2153 C2154 1.362 . S
C2154 H2146 0.930 . S
C2154 C2153 1.362 . S
C2154 C2157 1.409 . S
C2155 H2147 0.930 . S
C2155 C2156 1.355 . S
C2155 C2157 1.415 . S
C2156 C2155 1.355 . S
C2156 C2158 1.419 1_565 S
C2157 C2152 1.425 . S
C2157 C2154 1.409 . S
C2157 C2155 1.415 . S
C2158 H2148 0.930 . S
C2158 C2156 1.419 1_545 S
C2158 C2159 1.362 1_545 S
C2159 H2149 0.930 . S
C2159 C2152 1.409 . S
C2159 C2158 1.362 1_565 S
H2160 C2166 0.930 . S
H2161 C2169 0.930 . S
H2162 C2170 0.930 . S
H2163 C2171 0.930 . S
H2164 C2174 0.930 . S
H2165 C2175 0.930 . S
C2166 H2160 0.930 . S
C2166 C2167 1.355 . S
C2166 C2168 1.415 . S
C2167 C2166 1.355 . S
C2167 C2169 1.419 . S
C2168 C2166 1.415 . S
C2168 C2173 1.425 . S
C2168 C2175 1.409 . S
C2169 H2161 0.930 . S
C2169 C2167 1.419 . S
C2169 C2170 1.362 . S
C2170 H2162 0.930 . S
C2170 C2169 1.362 . S
C2170 C2173 1.409 . S
C2171 H2163 0.930 . S
C2171 C2172 1.355 . S
C2171 C2173 1.415 . S
C2172 C2171 1.355 . S
C2172 C2174 1.419 . S
C2173 C2168 1.425 . S
C2173 C2170 1.409 . S
C2173 C2171 1.415 . S
C2174 H2164 0.930 . S
C2174 C2172 1.419 . S
C2174 C2175 1.362 . S
C2175 H2165 0.930 . S
C2175 C2168 1.409 . S
C2175 C2174 1.362 . S
H2176 C2182 0.930 . S
H2177 C2185 0.930 . S
H2178 C2186 0.930 . S
H2179 C2187 0.930 . S
H2180 C2190 0.930 . S
H2181 C2191 0.930 . S
C2182 H2176 0.930 . S
C2182 C2183 1.355 . S
C2182 C2184 1.415 . S
C2183 C2182 1.355 . S
C2183 C2185 1.419 . S
C2184 C2182 1.415 . S
C2184 C2189 1.425 . S
C2184 C2191 1.409 . S
C2185 H2177 0.930 . S
C2185 C2183 1.419 . S
C2185 C2186 1.362 . S
C2186 H2178 0.930 . S
C2186 C2185 1.362 . S
C2186 C2189 1.409 . S
C2187 H2179 0.930 . S
C2187 C2188 1.355 . S
C2187 C2189 1.415 . S
C2188 C2187 1.355 . S
C2188 C2190 1.419 . S
C2189 C2184 1.425 . S
C2189 C2186 1.409 . S
C2189 C2187 1.415 . S
C2190 H2180 0.930 . S
C2190 C2188 1.419 . S
C2190 C2191 1.362 . S
C2191 H2181 0.930 . S
C2191 C2184 1.409 . S
C2191 C2190 1.362 . S
H2192 C2198 0.930 . S
H2193 C2201 0.930 . S
H2194 C2202 0.930 . S
H2195 C2203 0.930 . S
H2196 C2206 0.930 . S
H2197 C2207 0.930 . S
C2198 H2192 0.930 . S
C2198 C2199 1.355 . S
C2198 C2200 1.415 . S
C2199 C2198 1.355 . S
C2199 C2201 1.419 1_545 S
C2200 C2198 1.415 . S
C2200 C2205 1.425 . S
C2200 C2207 1.409 . S
C2201 H2193 0.930 . S
C2201 C2199 1.419 1_565 S
C2201 C2202 1.362 1_565 S
C2202 H2194 0.930 . S
C2202 C2201 1.362 1_545 S
C2202 C2205 1.409 . S
C2203 H2195 0.930 . S
C2203 C2204 1.355 . S
C2203 C2205 1.415 . S
C2204 C2203 1.355 . S
C2204 C2206 1.419 . S
C2205 C2200 1.425 . S
C2205 C2202 1.409 . S
C2205 C2203 1.415 . S
C2206 H2196 0.930 . S
C2206 C2204 1.419 . S
C2206 C2207 1.362 . S
C2207 H2197 0.930 . S
C2207 C2200 1.409 . S
C2207 C2206 1.362 . S
H2208 C2214 0.930 . S
H2209 C2217 0.930 . S
H2210 C2218 0.930 . S
H2211 C2219 0.930 . S
H2212 C2222 0.930 . S
H2213 C2223 0.930 . S
C2214 H2208 0.930 . S
C2214 C2215 1.355 . S
C2214 C2216 1.415 . S
C2215 C2214 1.355 . S
C2215 C2217 1.419 . S
C2216 C2214 1.415 . S
C2216 C2221 1.425 . S
C2216 C2223 1.409 . S
C2217 H2209 0.930 . S
C2217 C2215 1.419 . S
C2217 C2218 1.362 . S
C2218 H2210 0.930 . S
C2218 C2217 1.362 . S
C2218 C2221 1.409 . S
C2219 H2211 0.930 . S
C2219 C2220 1.355 . S
C2219 C2221 1.415 . S
C2220 C2219 1.355 . S
C2220 C2222 1.419 1_545 S
C2221 C2216 1.425 . S
C2221 C2218 1.409 . S
C2221 C2219 1.415 . S
C2222 H2212 0.930 . S
C2222 C2220 1.419 1_565 S
C2222 C2223 1.362 1_565 S
C2223 H2213 0.930 . S
C2223 C2216 1.409 . S
C2223 C2222 1.362 1_545 S
H2224 C2230 0.930 . S
H2225 C2233 0.930 . S
H2226 C2234 0.930 . S
H2227 C2235 0.930 . S
H2228 C2238 0.930 . S
H2229 C2239 0.930 . S
C2230 H2224 0.930 . S
C2230 C2231 1.355 . S
C2230 C2232 1.415 . S
C2231 C2230 1.355 . S
C2231 C2233 1.419 . S
C2232 C2230 1.415 . S
C2232 C2237 1.425 . S
C2232 C2239 1.409 . S
C2233 H2225 0.930 . S
C2233 C2231 1.419 . S
C2233 C2234 1.362 . S
C2234 H2226 0.930 . S
C2234 C2233 1.362 . S
C2234 C2237 1.409 . S
C2235 H2227 0.930 . S
C2235 C2236 1.355 . S
C2235 C2237 1.415 . S
C2236 C2235 1.355 . S
C2236 C2238 1.419 . S
C2237 C2232 1.425 . S
C2237 C2234 1.409 . S
C2237 C2235 1.415 . S
C2238 H2228 0.930 . S
C2238 C2236 1.419 . S
C2238 C2239 1.362 . S
C2239 H2229 0.930 . S
C2239 C2232 1.409 . S
C2239 C2238 1.362 . S
H2240 C2246 0.930 . S
H2241 C2249 0.930 . S
H2242 C2250 0.930 . S
H2243 C2251 0.930 . S
H2244 C2254 0.930 . S
H2245 C2255 0.930 . S
C2246 H2240 0.930 . S
C2246 C2247 1.355 . S
C2246 C2248 1.415 . S
C2247 C2246 1.355 . S
C2247 C2249 1.419 . S
C2248 C2246 1.415 . S
C2248 C2253 1.425 . S
C2248 C2255 1.409 . S
C2249 H2241 0.930 . S
C2249 C2247 1.419 . S
C2249 C2250 1.362 . S
C2250 H2242 0.930 . S
C2250 C2249 1.362 . S
C2250 C2253 1.409 . S
C2251 H2243 0.930 . S
C2251 C2252 1.355 . S
C2251 C2253 1.415 . S
C2252 C2251 1.355 . S
C2252 C2254 1.419 . S
C2253 C2248 1.425 . S
C2253 C2250 1.409 . S
C2253 C2251 1.415 . S
C2254 H2244 0.930 . S
C2254 C2252 1.419 . S
C2254 C2255 1.362 . S
C2255 H2245 0.930 . S
C2255 C2248 1.409 . S
C2255 C2254 1.362 . S
H2256 C2262 0.930 . S
H2257 C2265 0.930 . S
H2258 C2266 0.930 . S
H2259 C2267 0.930 . S
H2260 C2270 0.930 . S
H2261 C2271 0.930 . S
C2262 H2256 0.930 . S
C2262 C2263 1.355 . S
C2262 C2264 1.415 . S
C2263 C2262 1.355 . S
C2263 C2265 1.419 . S
C2264 C2262 1.415 . S
C2264 C2269 1.425 . S
C2264 C2271 1.409 . S
C2265 H2257 0.930 . S
C2265 C2263 1.419 . S
C2265 C2266 1.362 . S
C2266 H2258 0.930 . S
C2266 C2265 1.362 . S
C2266 C2269 1.409 . S
C2267 H2259 0.930 . S
C2267 C2268 1.355 . S
C2267 C2269 1.415 . S
C2268 C2267 1.355 . S
C2268 C2270 1.419 . S
C2269 C2264 1.425 . S
C2269 C2266 1.409 . S
C2269 C2267 1.415 . S
C2270 H2260 0.930 . S
C2270 C2268 1.419 . S
C2270 C2271 1.362 . S
C2271 H2261 0.930 . S
C2271 C2264 1.409 . S
C2271 C2270 1.362 . S
H2272 C2278 0.930 . S
H2273 C2281 0.930 . S
H2274 C2282 0.930 . S
H2275 C2283 0.930 . S
H2276 C2286 0.930 . S
H2277 C2287 0.930 . S
C2278 H2272 0.930 . S
C2278 C2279 1.355 . S
C2278 C2280 1.415 . S
C2279 C2278 1.355 . S
C2279 C2281 1.419 . S
C2280 C2278 1.415 . S
C2280 C2285 1.425 . S
C2280 C2287 1.409 . S
C2281 H2273 0.930 . S
C2281 C2279 1.419 . S
C2281 C2282 1.362 . S
C2282 H2274 0.930 . S
C2282 C2281 1.362 . S
C2282 C2285 1.409 . S
C2283 H2275 0.930 . S
C2283 C2284 1.355 . S
C2283 C2285 1.415 . S
C2284 C2283 1.355 . S
C2284 C2286 1.419 . S
C2285 C2280 1.425 . S
C2285 C2282 1.409 . S
C2285 C2283 1.415 . S
C2286 H2276 0.930 . S
C2286 C2284 1.419 . S
C2286 C2287 1.362 . S
C2287 H2277 0.930 . S
C2287 C2280 1.409 . S
C2287 C2286 1.362 . S
H2288 C2294 0.930 . S
H2289 C2297 0.930 . S
H2290 C2298 0.930 . S
H2291 C2299 0.930 . S
H2292 C2302 0.930 . S
H2293 C2303 0.930 . S
C2294 H2288 0.930 . S
C2294 C2295 1.355 . S
C2294 C2296 1.415 . S
C2295 C2294 1.355 . S
C2295 C2297 1.419 . S
C2296 C2294 1.415 . S
C2296 C2301 1.425 . S
C2296 C2303 1.409 . S
C2297 H2289 0.930 . S
C2297 C2295 1.419 . S
C2297 C2298 1.362 . S
C2298 H2290 0.930 . S
C2298 C2297 1.362 . S
C2298 C2301 1.409 . S
C2299 H2291 0.930 . S
C2299 C2300 1.355 . S
C2299 C2301 1.415 . S
C2300 C2299 1.355 . S
C2300 C2302 1.419 1_565 S
C2301 C2296 1.425 . S
C2301 C2298 1.409 . S
C2301 C2299 1.415 . S
C2302 H2292 0.930 . S
C2302 C2300 1.419 1_545 S
C2302 C2303 1.362 1_545 S
C2303 H2293 0.930 . S
C2303 C2296 1.409 . S
C2303 C2302 1.362 1_565 S
H2304 C2310 0.930 . S
H2305 C2313 0.930 . S
H2306 C2314 0.930 . S
H2307 C2315 0.930 . S
H2308 C2318 0.930 . S
H2309 C2319 0.930 . S
C2310 H2304 0.930 . S
C2310 C2311 1.355 . S
C2310 C2312 1.415 . S
C2311 C2310 1.355 . S
C2311 C2313 1.419 1_545 S
C2312 C2310 1.415 . S
C2312 C2317 1.425 . S
C2312 C2319 1.409 . S
C2313 H2305 0.930 . S
C2313 C2311 1.419 1_565 S
C2313 C2314 1.362 1_565 S
C2314 H2306 0.930 . S
C2314 C2313 1.362 1_545 S
C2314 C2317 1.409 . S
C2315 H2307 0.930 . S
C2315 C2316 1.355 . S
C2315 C2317 1.415 . S
C2316 C2315 1.355 . S
C2316 C2318 1.419 . S
C2317 C2312 1.425 . S
C2317 C2314 1.409 . S
C2317 C2315 1.415 . S
C2318 H2308 0.930 . S
C2318 C2316 1.419 . S
C2318 C2319 1.362 . S
C2319 H2309 0.930 . S
C2319 C2312 1.409 . S
C2319 C2318 1.362 . S
H2320 C2326 0.930 . S
H2321 C2329 0.930 . S
H2322 C2330 0.930 . S
H2323 C2331 0.930 . S
H2324 C2334 0.930 . S
H2325 C2335 0.930 . S
C2326 H2320 0.930 . S
C2326 C2327 1.355 . S
C2326 C2328 1.415 . S
C2327 C2326 1.355 . S
C2327 C2329 1.419 . S
C2328 C2326 1.415 . S
C2328 C2333 1.425 . S
C2328 C2335 1.409 . S
C2329 H2321 0.930 . S
C2329 C2327 1.419 . S
C2329 C2330 1.362 . S
C2330 H2322 0.930 . S
C2330 C2329 1.362 . S
C2330 C2333 1.409 . S
C2331 H2323 0.930 . S
C2331 C2332 1.355 . S
C2331 C2333 1.415 . S
C2332 C2331 1.355 . S
C2332 C2334 1.419 . S
C2333 C2328 1.425 . S
C2333 C2330 1.409 . S
C2333 C2331 1.415 . S
C2334 H2324 0.930 . S
C2334 C2332 1.419 . S
C2334 C2335 1.362 . S
C2335 H2325 0.930 . S
C2335 C2328 1.409 . S
C2335 C2334 1.362 . S
H2336 C2342 0.930 . S
H2337 C2345 0.930 . S
H2338 C2346 0.930 . S
H2339 C2347 0.930 . S
H2340 C2350 0.930 . S
H2341 C2351 0.930 . S
C2342 H2336 0.930 . S
C2342 C2343 1.355 . S
C2342 C2344 1.415 . S
C2343 C2342 1.355 . S
C2343 C2345 1.419 . S
C2344 C2342 1.415 . S
C2344 C2349 1.425 . S
C2344 C2351 1.409 . S
C2345 H2337 0.930 . S
C2345 C2343 1.419 . S
C2345 C2346 1.362 . S
C2346 H2338 0.930 . S
C2346 C2345 1.362 . S
C2346 C2349 1.409 . S
C2347 H2339 0.930 . S
C2347 C2348 1.355 . S
C2347 C2349 1.415 . S
C2348 C2347 1.355 . S
C2348 C2350 1.419 . S
C2349 C2344 1.425 . S
C2349 C2346 1.409 . S
C2349 C2347 1.415 . S
C2350 H2340 0.930 . S
C2350 C2348 1.419 . S
C2350 C2351 1.362 . S
C2351 H2341 0.930 . S
C2351 C2344 1.409 . S
C2351 C2350 1.362 . S
H2352 C2358 0.930 . S
H2353 C2361 0.930 . S
H2354 C2362 0.930 . S
H2355 C2363 0.930 . S
H2356 C2366 0.930 . S
H2357 C2367 0.930 . S
C2358 H2352 0.930 . S
C2358 C2359 1.355 . S
C2358 C2360 1.415 . S
C2359 C2358 1.355 . S
C2359 C2361 1.419 . S
C2360 C2358 1.415 . S
C2360 C2365 1.425 . S
C2360 C2367 1.409 . S
C2361 H2353 0.930 . S
C2361 C2359 1.419 . S
C2361 C2362 1.362 . S
C2362 H2354 0.930 . S
C2362 C2361 1.362 . S
C2362 C2365 1.409 . S
C2363 H2355 0.930 . S
C2363 C2364 1.355 . S
C2363 C2365 1.415 . S
C2364 C2363 1.355 . S
C2364 C2366 1.419 1_545 S
C2365 C2360 1.425 . S
C2365 C2362 1.409 . S
C2365 C2363 1.415 . S
C2366 H2356 0.930 . S
C2366 C2364 1.419 1_565 S
C2366 C2367 1.362 1_565 S
C2367 H2357 0.930 . S
C2367 C2360 1.409 . S
C2367 C2366 1.362 1_545 S
C1095 C2 1.504 . S
C1100 C70 1.507 . S
C1111 C36 1.507 . S
C1116 C104 1.504 . S
C1127 C138 1.519 . S
C1132 C206 1.506 . S
C1143 C240 1.517 . S
C1148 C172 1.503 . S
C1159 C342 1.514 . S
C1164 C274 1.518 . S
C1175 C376 1.511 . S
C1180 C308 1.519 . S
C1191 C410 1.502 . S
C1196 C478 1.516 . S
C1207 C512 1.502 . S
C1212 C444 1.512 . S
C1223 C614 1.513 . S
C1228 C546 1.502 . S
C1239 C580 1.506 . S
C1244 C648 1.505 . S
C1255 C682 1.506 . S
C1260 C750 1.506 . S
C1271 C784 1.515 . S
C1276 C716 1.502 . S
C1287 C886 1.508 . S
C1292 C818 1.520 . S
C1303 C852 1.509 . S
C1308 C920 1.519 . S
C1319 C1022 1.502 . S
C1324 C954 1.515 . S
C1335 C1056 1.519 . S
C1340 C988 1.510 . S
C1351 C156 1.632 . S
C1356 C20 1.632 . S
C1367 C54 1.625 . S
C1372 C1006 1.625 . S
C1383 C88 1.625 . S
C1388 C496 1.625 . S
C1399 C122 1.659 . S
C1404 C802 1.659 . S
C1415 C190 1.621 . S
C1420 C870 1.621 . S
C1431 C360 1.633 . S
C1436 C224 1.633 . S
C1447 C666 1.621 . S
C1452 C258 1.621 . S
C1463 C292 1.661 . S
C1468 C428 1.661 . S
C1479 C734 1.665 . S
C1484 C326 1.665 . S
C1495 C1074 1.645 . S
C1500 C394 1.645 . S
C1511 C598 1.623 . S
C1516 C462 1.623 . S
C1527 C938 1.654 . S
C1532 C530 1.654 . S
C1543 C700 1.665 . S
C1548 C564 1.665 . S
C1559 C632 1.647 . S
C1564 C1040 1.647 . S
C1575 C768 1.638 . S
C1580 C904 1.638 . S
C1591 C972 1.621 . S
C1596 C836 1.621 . S
C1607 C9 1.100 . S
C1612 C5 1.113 . S
C1623 C39 1.083 . S
C1628 C43 1.115 . S
C1639 C73 1.080 . S
C1644 C77 1.120 . S
C1655 C107 1.119 . S
C1660 C111 1.163 . S
C1671 C145 1.102 . S
C1676 C141 1.100 . S
C1687 C175 1.142 . S
C1692 C179 1.108 . S
C1703 C213 1.135 . S
C1708 C209 1.081 . S
C1719 C247 1.113 . S
C1724 C243 1.149 . S
C1735 C281 1.100 . S
C1740 C277 1.122 . S
C1751 C315 1.111 1_545 S
C1756 C311 1.146 . S
C1767 C349 1.143 . S
C1772 C345 1.082 . S
C1783 C379 1.087 . S
C1788 C383 1.145 . S
C1799 C417 1.160 . S
C1804 C413 1.148 . S
C1815 C451 1.149 . S
C1820 C447 1.088 . S
C1831 C485 1.108 1_565 S
C1836 C481 1.142 . S
C1847 C519 1.120 . S
C1852 C515 1.080 . S
C1863 C549 1.080 . S
C1868 C553 1.131 . S
C1879 C587 1.114 . S
C1884 C583 1.083 . S
C1895 C621 1.143 . S
C1900 C617 1.161 . S
C1911 C655 1.107 . S
C1916 C651 1.141 . S
C1927 C689 1.125 . S
C1932 C685 1.159 . S
C1943 C723 1.107 . S
C1948 C719 1.090 . S
C1959 C753 1.113 . S
C1964 C757 1.162 . S
C1975 C791 1.113 . S
C1980 C787 1.149 . S
C1991 C821 1.084 . S
C1996 C825 1.113 . S
C2007 C859 1.150 . S
C2012 C855 1.092 . S
C2023 C893 1.143 . S
C2028 C889 1.082 . S
C2039 C927 1.103 . S
C2044 C923 1.096 . S
C2055 C957 1.087 . S
C2060 C961 1.109 . S
C2071 C991 1.155 . S
C2076 C995 1.155 1_565 S
C2087 C1025 1.130 . S
C2092 C1029 1.164 1_565 S
C2103 C1059 1.155 . S
C2108 C1063 1.155 . S
C2119 C883 1.698 . S
C2124 C33 1.705 . S
C2135 C67 1.659 1_565 S
C2140 C849 1.660 . S
C2151 C951 1.714 . S
C2156 C101 1.717 1_565 S
C2167 C135 1.710 . S
C2172 C917 1.714 . S
C2183 C1019 1.659 . S
C2188 C169 1.661 . S
C2199 C203 1.715 1_545 S
C2204 C985 1.711 . S
C2215 C1087 1.717 . S
C2220 C237 1.714 1_545 S
C2231 C1053 1.659 . S
C2236 C271 1.659 . S
C2247 C305 1.690 . S
C2252 C611 1.683 1_565 S
C2263 C339 1.667 . S
C2268 C577 1.663 . S
C2279 C679 1.709 . S
C2284 C373 1.714 . S
C2295 C407 1.718 . S
C2300 C645 1.716 1_565 S
C2311 C747 1.715 1_545 S
C2316 C441 1.712 . S
C2327 C713 1.684 . S
C2332 C475 1.692 . S
C2343 C509 1.683 . S
C2348 C815 1.690 . S
C2359 C543 1.717 . S
C2364 C781 1.714 1_545 S
