# Generated by pormake.
# Topology whm, (6)-cn, num edge types: 1
# Building blocks:
#     Node 0, Type 0, BuildingBlock: OJICUG_clean_sbu_0, # of connection points: 6
#     Node 1, Type 0, BuildingBlock: OJICUG_clean_sbu_0, # of connection points: 6
#     Node 2, Type 0, BuildingBlock: OJICUG_clean_sbu_0, # of connection points: 6
#     Node 3, Type 0, BuildingBlock: OJICUG_clean_sbu_0, # of connection points: 6
#     Node 4, Type 0, BuildingBlock: OJICUG_clean_sbu_0, # of connection points: 6
#     Node 5, Type 0, BuildingBlock: OJICUG_clean_sbu_0, # of connection points: 6
#     Node 6, Type 0, BuildingBlock: OJICUG_clean_sbu_0, # of connection points: 6
#     Node 7, Type 0, BuildingBlock: OJICUG_clean_sbu_0, # of connection points: 6
#     Node 8, Type 0, BuildingBlock: OJICUG_clean_sbu_0, # of connection points: 6
#     Node 9, Type 0, BuildingBlock: OJICUG_clean_sbu_0, # of connection points: 6
#     Node 10, Type 0, BuildingBlock: OJICUG_clean_sbu_0, # of connection points: 6
#     Node 11, Type 0, BuildingBlock: OJICUG_clean_sbu_0, # of connection points: 6
#     Node 12, Type 0, BuildingBlock: OJICUG_clean_sbu_0, # of connection points: 6
#     Node 13, Type 0, BuildingBlock: OJICUG_clean_sbu_0, # of connection points: 6
#     Node 14, Type 0, BuildingBlock: OJICUG_clean_sbu_0, # of connection points: 6
#     Node 15, Type 0, BuildingBlock: OJICUG_clean_sbu_0, # of connection points: 6
#     Edge 16, Type (0, 0), BuildingBlock: XIVTED_clean_linker_0, # of connection points: 2
#     Edge 17, Type (0, 0), BuildingBlock: XIVTED_clean_linker_0, # of connection points: 2
#     Edge 18, Type (0, 0), BuildingBlock: XIVTED_clean_linker_0, # of connection points: 2
#     Edge 19, Type (0, 0), BuildingBlock: XIVTED_clean_linker_0, # of connection points: 2
#     Edge 20, Type (0, 0), BuildingBlock: XIVTED_clean_linker_0, # of connection points: 2
#     Edge 21, Type (0, 0), BuildingBlock: XIVTED_clean_linker_0, # of connection points: 2
#     Edge 22, Type (0, 0), BuildingBlock: XIVTED_clean_linker_0, # of connection points: 2
#     Edge 23, Type (0, 0), BuildingBlock: XIVTED_clean_linker_0, # of connection points: 2
#     Edge 24, Type (0, 0), BuildingBlock: XIVTED_clean_linker_0, # of connection points: 2
#     Edge 25, Type (0, 0), BuildingBlock: XIVTED_clean_linker_0, # of connection points: 2
#     Edge 26, Type (0, 0), BuildingBlock: XIVTED_clean_linker_0, # of connection points: 2
#     Edge 27, Type (0, 0), BuildingBlock: XIVTED_clean_linker_0, # of connection points: 2
#     Edge 28, Type (0, 0), BuildingBlock: XIVTED_clean_linker_0, # of connection points: 2
#     Edge 29, Type (0, 0), BuildingBlock: XIVTED_clean_linker_0, # of connection points: 2
#     Edge 30, Type (0, 0), BuildingBlock: XIVTED_clean_linker_0, # of connection points: 2
#     Edge 31, Type (0, 0), BuildingBlock: XIVTED_clean_linker_0, # of connection points: 2
#     Edge 32, Type (0, 0), BuildingBlock: XIVTED_clean_linker_0, # of connection points: 2
#     Edge 33, Type (0, 0), BuildingBlock: XIVTED_clean_linker_0, # of connection points: 2
#     Edge 34, Type (0, 0), BuildingBlock: XIVTED_clean_linker_0, # of connection points: 2
#     Edge 35, Type (0, 0), BuildingBlock: XIVTED_clean_linker_0, # of connection points: 2
#     Edge 36, Type (0, 0), BuildingBlock: XIVTED_clean_linker_0, # of connection points: 2
#     Edge 37, Type (0, 0), BuildingBlock: XIVTED_clean_linker_0, # of connection points: 2
#     Edge 38, Type (0, 0), BuildingBlock: XIVTED_clean_linker_0, # of connection points: 2
#     Edge 39, Type (0, 0), BuildingBlock: XIVTED_clean_linker_0, # of connection points: 2
#     Edge 40, Type (0, 0), BuildingBlock: XIVTED_clean_linker_0, # of connection points: 2
#     Edge 41, Type (0, 0), BuildingBlock: XIVTED_clean_linker_0, # of connection points: 2
#     Edge 42, Type (0, 0), BuildingBlock: XIVTED_clean_linker_0, # of connection points: 2
#     Edge 43, Type (0, 0), BuildingBlock: XIVTED_clean_linker_0, # of connection points: 2
#     Edge 44, Type (0, 0), BuildingBlock: XIVTED_clean_linker_0, # of connection points: 2
#     Edge 45, Type (0, 0), BuildingBlock: XIVTED_clean_linker_0, # of connection points: 2
#     Edge 46, Type (0, 0), BuildingBlock: XIVTED_clean_linker_0, # of connection points: 2
#     Edge 47, Type (0, 0), BuildingBlock: XIVTED_clean_linker_0, # of connection points: 2
#     Edge 48, Type (0, 0), BuildingBlock: XIVTED_clean_linker_0, # of connection points: 2
#     Edge 49, Type (0, 0), BuildingBlock: XIVTED_clean_linker_0, # of connection points: 2
#     Edge 50, Type (0, 0), BuildingBlock: XIVTED_clean_linker_0, # of connection points: 2
#     Edge 51, Type (0, 0), BuildingBlock: XIVTED_clean_linker_0, # of connection points: 2
#     Edge 52, Type (0, 0), BuildingBlock: XIVTED_clean_linker_0, # of connection points: 2
#     Edge 53, Type (0, 0), BuildingBlock: XIVTED_clean_linker_0, # of connection points: 2
#     Edge 54, Type (0, 0), BuildingBlock: XIVTED_clean_linker_0, # of connection points: 2
#     Edge 55, Type (0, 0), BuildingBlock: XIVTED_clean_linker_0, # of connection points: 2
#     Edge 56, Type (0, 0), BuildingBlock: XIVTED_clean_linker_0, # of connection points: 2
#     Edge 57, Type (0, 0), BuildingBlock: XIVTED_clean_linker_0, # of connection points: 2
#     Edge 58, Type (0, 0), BuildingBlock: XIVTED_clean_linker_0, # of connection points: 2
#     Edge 59, Type (0, 0), BuildingBlock: XIVTED_clean_linker_0, # of connection points: 2
#     Edge 60, Type (0, 0), BuildingBlock: XIVTED_clean_linker_0, # of connection points: 2
#     Edge 61, Type (0, 0), BuildingBlock: XIVTED_clean_linker_0, # of connection points: 2
#     Edge 62, Type (0, 0), BuildingBlock: XIVTED_clean_linker_0, # of connection points: 2
#     Edge 63, Type (0, 0), BuildingBlock: XIVTED_clean_linker_0, # of connection points: 2
# Relax obj value: 0.342
# Max RMSD: 0.245
# Mean RMSD: 0.245
data_MOF--net-whm--node1-OJICUG_clean_sbu_0--edge1-XIVTED_clean_linker_0
_symmetry_space_group_name_H-M    P1
_symmetry_Int_Tables_number       1
_symmetry_cell_setting            triclinic
loop_
_symmetry_equiv_pos_as_xyz
'x, y, z'
_cell_length_a     51.472266
_cell_length_b     51.497409
_cell_length_c     29.373111
_cell_angle_alpha  89.958452
_cell_angle_beta   90.041148
_cell_angle_gamma 90.033218
loop_
_atom_site_label
_atom_site_type_symbol
_atom_site_fract_x
_atom_site_fract_y
_atom_site_fract_z
_atom_type_partial_charge
Sc0 Sc 0.58547 0.16492 0.12267 0.0
Sc1 Sc 0.53112 0.1587 0.19449 0.0
Sc2 Sc 0.571 0.10483 0.17113 0.0
O3 O 0.56249 0.1428 0.16291 0.0
C4 C 0.59228 0.11101 0.07089 0.0
C5 C 0.52871 0.17966 0.09178 0.0
C6 C 0.51003 0.10288 0.16246 0.0
C7 C 0.56854 0.20694 0.19711 0.0
C8 C 0.62492 0.13498 0.18612 0.0
C9 C 0.54992 0.11981 0.27035 0.0
O10 O 0.59522 0.13528 0.07464 0.0
O11 O 0.51907 0.17714 0.13155 0.0
O12 O 0.5322 0.0929 0.15455 0.0
O13 O 0.58069 0.19944 0.16208 0.0
O14 O 0.61019 0.11514 0.1901 0.0
O15 O 0.53978 0.14154 0.26009 0.0
O16 O 0.61893 0.15513 0.16311 0.0
O17 O 0.55134 0.19322 0.2165 0.0
O18 O 0.56093 0.10532 0.24138 0.0
O19 O 0.55231 0.17464 0.08201 0.0
O20 O 0.58198 0.0974 0.10185 0.0
O21 O 0.50711 0.12585 0.17763 0.0
Sc22 Sc 0.32676 0.57187 0.61598 0.0
Sc23 Sc 0.32047 0.53589 0.71735 0.0
Sc24 Sc 0.38253 0.5531 0.6763 0.0
O25 O 0.34323 0.55352 0.66982 0.0
C26 C 0.37808 0.54843 0.56998 0.0
C27 C 0.29592 0.51828 0.62195 0.0
C28 C 0.36839 0.49696 0.71257 0.0
C29 C 0.28459 0.58385 0.69224 0.0
C30 C 0.37067 0.6116 0.6451 0.0
C31 C 0.36302 0.56417 0.77784 0.0
O32 O 0.35583 0.55897 0.56894 0.0
O33 O 0.29891 0.51504 0.66481 0.0
O34 O 0.38363 0.51239 0.692 0.0
O35 O 0.29454 0.58786 0.65343 0.0
O36 O 0.38533 0.59393 0.66122 0.0
O37 O 0.33992 0.55585 0.7724 0.0
O38 O 0.34806 0.60712 0.62926 0.0
O39 O 0.29239 0.56624 0.7189 0.0
O40 O 0.38022 0.56315 0.74693 0.0
O41 O 0.30502 0.53763 0.60016 0.0
O42 O 0.3901 0.54362 0.60663 0.0
O43 O 0.34565 0.50306 0.72504 0.0
Sc44 Sc 0.91058 0.30718 0.14397 0.0
Sc45 Sc 0.96662 0.32275 0.20794 0.0
Sc46 Sc 0.93244 0.3716 0.14982 0.0
O47 O 0.93654 0.33384 0.16739 0.0
C48 C 0.91691 0.34453 0.05758 0.0
C49 C 0.96609 0.28074 0.12884 0.0
C50 C 0.99388 0.36786 0.15132 0.0
C51 C 0.92217 0.28456 0.24273 0.0
C52 C 0.87357 0.35383 0.16799 0.0
C53 C 0.94655 0.37437 0.25577 0.0
O54 O 0.90848 0.32402 0.07663 0.0
O55 O 0.97807 0.29377 0.15908 0.0
O56 O 0.97293 0.37789 0.13696 0.0
O57 O 0.90812 0.28699 0.20757 0.0
O58 O 0.89114 0.37071 0.16088 0.0
O59 O 0.95742 0.35214 0.25792 0.0
O60 O 0.87768 0.32956 0.16567 0.0
O61 O 0.94395 0.29576 0.24693 0.0
O62 O 0.93703 0.38369 0.21925 0.0
O63 O 0.94188 0.28293 0.12062 0.0
O64 O 0.92782 0.36285 0.07918 0.0
O65 O 0.99422 0.34809 0.17691 0.0
Sc66 Sc 0.15981 0.91648 0.61112 0.0
Sc67 Sc 0.16273 0.95732 0.70633 0.0
Sc68 Sc 0.10486 0.9263 0.67712 0.0
O69 O 0.14262 0.9336 0.66461 0.0
C70 C 0.10347 0.93381 0.57334 0.0
C71 C 0.18363 0.97313 0.60733 0.0
C72 C 0.10993 0.98486 0.71282 0.0
C73 C 0.20472 0.91429 0.68637 0.0
C74 C 0.1232 0.87149 0.63904 0.0
C75 C 0.12914 0.92101 0.77354 0.0
O76 O 0.12571 0.92307 0.56923 0.0
O77 O 0.18258 0.97666 0.65029 0.0
O78 O 0.09767 0.96367 0.70753 0.0
O79 O 0.19565 0.90816 0.64747 0.0
O80 O 0.10562 0.8875 0.65023 0.0
O81 O 0.14497 0.93978 0.76664 0.0
O82 O 0.14633 0.87846 0.63052 0.0
O83 O 0.1937 0.93033 0.71274 0.0
O84 O 0.11496 0.91134 0.74241 0.0
O85 O 0.17459 0.95304 0.58779 0.0
O86 O 0.09368 0.94024 0.61145 0.0
O87 O 0.13391 0.98709 0.70424 0.0
Sc88 Sc 0.5807 0.32493 0.84631 0.0
Sc89 Sc 0.53193 0.32473 0.76271 0.0
Sc90 Sc 0.55764 0.38379 0.80363 0.0
O91 O 0.55671 0.34452 0.80417 0.0
C92 C 0.57311 0.37563 0.90676 0.0
C93 C 0.52673 0.29696 0.85968 0.0
C94 C 0.49747 0.37241 0.79854 0.0
C95 C 0.57901 0.28591 0.76163 0.0
C96 C 0.6173 0.36592 0.79777 0.0
C97 C 0.54754 0.37116 0.6985 0.0
O98 O 0.58019 0.35242 0.90058 0.0
O99 O 0.51958 0.30015 0.8185 0.0
O100 O 0.51616 0.38638 0.81319 0.0
O101 O 0.58675 0.29346 0.8003 0.0
O102 O 0.59925 0.38267 0.79199 0.0
O103 O 0.54143 0.3474 0.70311 0.0
O104 O 0.6138 0.34397 0.81695 0.0
O105 O 0.56024 0.2966 0.74092 0.0
O106 O 0.55265 0.38577 0.73194 0.0
O107 O 0.54784 0.30588 0.87611 0.0
O108 O 0.56296 0.38914 0.87549 0.0
O109 O 0.50076 0.35072 0.77871 0.0
Sc110 Sc 0.09525 0.55632 0.32331 0.0
Sc111 Sc 0.15471 0.52496 0.2999 0.0
Sc112 Sc 0.15041 0.5706 0.38876 0.0
O113 O 0.13344 0.55053 0.33733 0.0
C114 C 0.11338 0.61396 0.34974 0.0
C115 C 0.12176 0.55625 0.22585 0.0
C116 C 0.19668 0.56923 0.3175 0.0
C117 C 0.10022 0.49651 0.2974 0.0
C118 C 0.09448 0.55578 0.42968 0.0
C119 C 0.17275 0.51295 0.4013 0.0
O120 O 0.09722 0.59753 0.33434 0.0
O121 O 0.14166 0.54286 0.23684 0.0
O122 O 0.18513 0.58001 0.35066 0.0
O123 O 0.08725 0.51637 0.30888 0.0
O124 O 0.11777 0.56386 0.43297 0.0
O125 O 0.16962 0.50554 0.36023 0.0
O126 O 0.08346 0.55062 0.39216 0.0
O127 O 0.12476 0.49643 0.29504 0.0
O128 O 0.16717 0.53565 0.41521 0.0
O129 O 0.10383 0.56254 0.25336 0.0
O130 O 0.13487 0.60746 0.36763 0.0
O131 O 0.18785 0.54939 0.29748 0.0
Sc132 Sc 0.93772 0.11503 0.81932 0.0
Sc133 Sc 0.96992 0.16555 0.76274 0.0
Sc134 Sc 0.91316 0.1784 0.82602 0.0
O135 O 0.94018 0.15302 0.80263 0.0
C136 C 0.87887 0.13006 0.79637 0.0
C137 C 0.95344 0.11395 0.71335 0.0
C138 C 0.92448 0.20325 0.72942 0.0
C139 C -0.00184 0.12108 0.82055 0.0
C140 C 0.9189 0.14086 0.91181 0.0
C141 C 0.96807 0.20607 0.84348 0.0
O142 O 0.89729 0.11383 0.80117 0.0
O143 O 0.96048 0.13766 0.71046 0.0
O144 O 0.90954 0.19807 0.76237 0.0
O145 O 0.97769 0.11223 0.83883 0.0
O146 O 0.91196 0.16209 0.89354 0.0
O147 O 0.98092 0.19282 0.81468 0.0
O148 O 0.92893 0.12233 0.88953 0.0
O149 O -0.00231 0.13894 0.79084 0.0
O150 O 0.94355 0.2042 0.84908 0.0
O151 O 0.94655 0.10337 0.75066 0.0
O152 O 0.88142 0.15423 0.8042 0.0
O153 O 0.94735 0.19426 0.72656 0.0
Sc154 Sc 0.38376 0.91964 0.33205 0.0
Sc155 Sc 0.3309 0.95799 0.29999 0.0
Sc156 Sc 0.32805 0.91948 0.39834 0.0
O157 O 0.34748 0.93258 0.34366 0.0
C158 C 0.35754 0.86894 0.37425 0.0
C159 C 0.3603 0.9172 0.23479 0.0
C160 C 0.28397 0.92072 0.32147 0.0
C161 C 0.3872 0.97808 0.29452 0.0
C162 C 0.38614 0.92911 0.43576 0.0
C163 C 0.3111 0.9783 0.39712 0.0
O164 O 0.37706 0.88169 0.36024 0.0
O165 O 0.34709 0.93792 0.241 0.0
O166 O 0.29186 0.91502 0.36135 0.0
O167 O 0.39621 0.95543 0.30121 0.0
O168 O 0.36243 0.92238 0.4406 0.0
O169 O 0.31243 0.98046 0.35392 0.0
O170 O 0.39684 0.93256 0.39724 0.0
O171 O 0.36357 0.98378 0.3016 0.0
O172 O 0.31842 0.95814 0.41845 0.0
O173 O 0.3722 0.90557 0.26677 0.0
O174 O 0.33591 0.8795 0.38312 0.0
O175 O 0.29693 0.9346 0.2939 0.0
Sc176 Sc 0.4348 0.87625 0.82882 0.0
Sc177 Sc 0.46964 0.82334 0.78659 0.0
Sc178 Sc 0.41238 0.81311 0.84908 0.0
O179 O 0.43882 0.83752 0.8216 0.0
C180 C 0.41339 0.8571 0.92494 0.0
C181 C 0.49461 0.87322 0.83495 0.0
C182 C 0.46796 0.78917 0.87524 0.0
C183 C 0.45371 0.86997 0.72525 0.0
C184 C 0.37743 0.85757 0.80502 0.0
C185 C 0.42633 0.78172 0.76021 0.0
O186 O 0.42171 0.8745 0.89807 0.0
O187 O 0.49505 0.85393 0.80812 0.0
O188 O 0.44322 0.7899 0.87817 0.0
O189 O 0.44716 0.88315 0.76002 0.0
O190 O 0.38013 0.83482 0.8214 0.0
O191 O 0.44931 0.79052 0.75787 0.0
O192 O 0.39555 0.8744 0.80465 0.0
O193 O 0.45948 0.84592 0.72727 0.0
O194 O 0.4101 0.78956 0.78943 0.0
O195 O 0.47378 0.88134 0.85312 0.0
O196 O 0.41025 0.83365 0.91283 0.0
O197 O 0.48107 0.80141 0.84544 0.0
Sc198 Sc 0.65886 0.42067 0.35203 0.0
Sc199 Sc 0.66645 0.47231 0.27589 0.0
Sc200 Sc 0.60537 0.4453 0.29397 0.0
O201 O 0.64365 0.44599 0.30747 0.0
C202 C 0.61855 0.38588 0.29519 0.0
C203 C 0.70405 0.42316 0.28064 0.0
C204 C 0.63039 0.45567 0.19662 0.0
C205 C 0.68647 0.47496 0.37666 0.0
C206 C 0.60565 0.43177 0.39936 0.0
C207 C 0.61391 0.50415 0.29193 0.0
O208 O 0.63609 0.3885 0.32559 0.0
O209 O 0.69923 0.4467 0.27101 0.0
O210 O 0.61099 0.45499 0.22334 0.0
O211 O 0.682 0.45085 0.38293 0.0
O212 O 0.59375 0.43524 0.36207 0.0
O213 O 0.63636 0.50153 0.27445 0.0
O214 O 0.63007 0.42917 0.40207 0.0
O215 O 0.68051 0.48704 0.34021 0.0
O216 O 0.60206 0.48546 0.31105 0.0
O217 O 0.68955 0.40968 0.30639 0.0
O218 O 0.60711 0.40499 0.27639 0.0
O219 O 0.65367 0.45815 0.21057 0.0
Sc220 Sc 0.07379 0.67559 0.85418 0.0
Sc221 Sc 0.01947 0.66446 0.78278 0.0
Sc222 Sc 0.05539 0.61231 0.8261 0.0
O223 O 0.0495 0.65088 0.82118 0.0
C224 C 0.11242 0.63419 0.81105 0.0
C225 C 0.06382 0.70606 0.76174 0.0
C226 C 0.03753 0.6179 0.72239 0.0
C227 C 0.01716 0.69926 0.87132 0.0
C228 C 0.07183 0.63012 0.92597 0.0
C229 C 0.99482 0.61376 0.82972 0.0
O230 O 0.10799 0.65558 0.83121 0.0
O231 O 0.04156 0.69627 0.75427 0.0
O232 O 0.04526 0.60541 0.75699 0.0
O233 O 0.04137 0.6975 0.87961 0.0
O234 O 0.06603 0.61333 0.8962 0.0
O235 O 0.99375 0.6339 0.80467 0.0
O236 O 0.07404 0.65412 0.91709 0.0
O237 O 0.00579 0.68778 0.83862 0.0
O238 O 0.01599 0.60523 0.84633 0.0
O239 O 0.07771 0.69981 0.79564 0.0
O240 O 0.09516 0.61684 0.80468 0.0
O241 O 0.0302 0.64147 0.72431 0.0
Sc242 Sc 0.83691 0.07545 0.3888 0.0
Sc243 Sc 0.83293 0.04849 0.28033 0.0
Sc244 Sc 0.89294 0.0698 0.32281 0.0
O245 O 0.85436 0.06437 0.33064 0.0
C246 C 0.87491 0.12183 0.37325 0.0
C247 C 0.79469 0.09122 0.31443 0.0
C248 C 0.87265 0.08507 0.22558 0.0
C249 C 0.80921 0.0225 0.37064 0.0
C250 C 0.89173 0.05382 0.42477 0.0
C251 C 0.88328 0.01532 0.27239 0.0
O252 O 0.85202 0.11414 0.38235 0.0
O253 O 0.80614 0.08 0.28177 0.0
O254 O 0.88762 0.08932 0.25914 0.0
O255 O 0.82118 0.03741 0.398 0.0
O256 O 0.9023 0.05108 0.38603 0.0
O257 O 0.85863 0.01605 0.27353 0.0
O258 O 0.86948 0.06405 0.43017 0.0
O259 O 0.8093 0.02585 0.32758 0.0
O260 O 0.89768 0.03363 0.28696 0.0
O261 O 0.80163 0.0886 0.35572 0.0
O262 O 0.89226 0.10706 0.35643 0.0
O263 O 0.85347 0.06945 0.2274 0.0
Sc264 Sc 0.42379 0.6161 0.17231 0.0
Sc265 Sc 0.45384 0.66659 0.23327 0.0
Sc266 Sc 0.40052 0.67976 0.16097 0.0
O267 O 0.4261 0.65418 0.18886 0.0
C268 C 0.40952 0.64109 0.07739 0.0
C269 C 0.48483 0.62335 0.17799 0.0
C270 C 0.45523 0.70831 0.1532 0.0
C271 C 0.43524 0.61386 0.27908 0.0
C272 C 0.36432 0.63261 0.18688 0.0
C273 C 0.4068 0.70324 0.26078 0.0
O274 O 0.41993 0.62342 0.10118 0.0
O275 O 0.48344 0.64278 0.20431 0.0
O276 O 0.43199 0.7044 0.13999 0.0
O277 O 0.42755 0.60425 0.24165 0.0
O278 O 0.36787 0.65681 0.18127 0.0
O279 O 0.42818 0.69211 0.26955 0.0
O280 O 0.38229 0.61584 0.18224 0.0
O281 O 0.44459 0.6367 0.28249 0.0
O282 O 0.39531 0.7009 0.22288 0.0
O283 O 0.46489 0.61206 0.16195 0.0
O284 O 0.40071 0.66199 0.0943 0.0
O285 O 0.46582 0.69656 0.18649 0.0
Sc286 Sc 0.89148 0.42423 0.65073 0.0
Sc287 Sc 0.83335 0.44826 0.69635 0.0
Sc288 Sc 0.83338 0.41577 0.59239 0.0
O289 O 0.85276 0.42966 0.64656 0.0
C290 C 0.88686 0.43567 0.5481 0.0
C291 C 0.88474 0.48031 0.69691 0.0
C292 C 0.80808 0.47051 0.60417 0.0
C293 C 0.87362 0.41191 0.75049 0.0
C294 C 0.87151 0.37017 0.61006 0.0
C295 C 0.79217 0.40608 0.67183 0.0
O296 O 0.89832 0.44112 0.58517 0.0
O297 O 0.8601 0.48012 0.69739 0.0
O298 O 0.81842 0.45354 0.57855 0.0
O299 O 0.88761 0.40668 0.71611 0.0
O300 O 0.84805 0.37726 0.60438 0.0
O301 O 0.80515 0.41813 0.70168 0.0
O302 O 0.88958 0.38597 0.62059 0.0
O303 O 0.85483 0.42807 0.74942 0.0
O304 O 0.79845 0.40576 0.62998 0.0
O305 O 0.89824 0.46121 0.68302 0.0
O306 O 0.86499 0.42419 0.54653 0.0
O307 O 0.80933 0.46969 0.64761 0.0
Sc308 Sc 0.05388 0.88235 0.17794 0.0
Sc309 Sc 0.01921 0.83039 0.22425 0.0
Sc310 Sc 0.07619 0.81894 0.16112 0.0
O311 O 0.04988 0.84379 0.18771 0.0
C312 C 0.07514 0.86149 0.08293 0.0
C313 C 0.99389 0.87793 0.16983 0.0
C314 C 0.02073 0.79334 0.13914 0.0
C315 C 0.03537 0.87865 0.2819 0.0
C316 C 0.11128 0.86451 0.20182 0.0
C317 C 0.06299 0.78945 0.25255 0.0
O318 O 0.06709 0.87927 0.10913 0.0
O319 O 0.99319 0.85976 0.19907 0.0
O320 O 0.04535 0.79471 0.13465 0.0
O321 O 0.0417 0.89108 0.24617 0.0
O322 O 0.1085 0.84149 0.18665 0.0
O323 O 0.04022 0.79875 0.2556 0.0
O324 O 0.09313 0.88127 0.20203 0.0
O325 O 0.02918 0.85469 0.28142 0.0
O326 O 0.07887 0.79646 0.22204 0.0
O327 O 0.01501 0.88617 0.15283 0.0
O328 O 0.07791 0.83814 0.09589 0.0
O329 O 0.00777 0.80617 0.16831 0.0
Sc330 Sc 0.61122 0.0531 0.67613 0.0
Sc331 Sc 0.66957 0.01901 0.68563 0.0
Sc332 Sc 0.66271 0.06808 0.60421 0.0
O333 O 0.64784 0.04662 0.65505 0.0
C334 C 0.6059 0.06188 0.56918 0.0
C335 C 0.61255 0.99368 0.68515 0.0
C336 C 0.68374 0.01057 0.58298 0.0
C337 C 0.64095 0.04184 0.7695 0.0
C338 C 0.63129 0.10985 0.66251 0.0
C339 C 0.71133 0.06367 0.66824 0.0
O340 O 0.59641 0.06207 0.60906 0.0
O341 O 0.63657 0.99381 0.69546 0.0
O342 O 0.68106 0.03465 0.57434 0.0
O343 O 0.62045 0.04545 0.74627 0.0
O344 O 0.64524 0.10375 0.62838 0.0
O345 O 0.70488 0.04112 0.68164 0.0
O346 O 0.61972 0.09326 0.68733 0.0
O347 O 0.66269 0.03597 0.75178 0.0
O348 O 0.69681 0.0776 0.64317 0.0
O349 O 0.60118 0.0131 0.66725 0.0
O350 O 0.63006 0.06039 0.56129 0.0
O351 O 0.67841 0.00049 0.62148 0.0
H352 H 0.5667 0.22519 0.28519 0.0
H353 H 0.59762 0.37098 0.21415 0.0
H354 H 0.5834 0.24848 0.14708 0.0
H355 H 0.62118 0.34093 0.34507 0.0
H356 H 0.58389 0.32739 0.19195 0.0
H357 H 0.57845 0.26923 0.31097 0.0
C358 C 0.57266 0.23958 0.2604 0.0
C359 C 0.57428 0.23324 0.21405 0.0
C360 C 0.59208 0.33036 0.22553 0.0
C361 C 0.58724 0.28319 0.24293 0.0
C362 C 0.59986 0.3552 0.23825 0.0
C363 C 0.6107 0.35949 0.28139 0.0
C364 C 0.5947 0.30975 0.25643 0.0
C365 C 0.61317 0.33833 0.31129 0.0
C366 C 0.57947 0.26453 0.27508 0.0
C367 C 0.58215 0.2525 0.18319 0.0
N368 N 0.60507 0.3143 0.29834 0.0
N369 N 0.5882 0.27663 0.19815 0.0
H370 H 0.24349 0.59792 0.63916 0.0
H371 H 0.15842 0.65268 0.84404 0.0
H372 H 0.27268 0.60159 0.77672 0.0
H373 H 0.12577 0.60656 0.73547 0.0
H374 H 0.20184 0.64567 0.81189 0.0
H375 H 0.2013 0.61393 0.66635 0.0
C376 C 0.24119 0.6028 0.67481 0.0
C377 C 0.26136 0.59837 0.70592 0.0
C378 C 0.18509 0.63724 0.79514 0.0
C379 C 0.21365 0.61651 0.73687 0.0
C380 C 0.16042 0.64117 0.81339 0.0
C381 C 0.13862 0.62989 0.7926 0.0
C382 C 0.18779 0.62251 0.75531 0.0
C383 C 0.14217 0.61523 0.75287 0.0
C384 C 0.21716 0.61163 0.69028 0.0
C385 C 0.25743 0.60463 0.75184 0.0
N386 N 0.16635 0.61203 0.73533 0.0
N387 N 0.23394 0.61336 0.76605 0.0
H388 H 0.92259 0.14399 0.38391 0.0
H389 H 0.94934 0.26804 0.31788 0.0
H390 H 0.84138 0.16291 0.36892 0.0
H391 H 0.87504 0.26038 0.25068 0.0
H392 H 0.93695 0.23325 0.37004 0.0
H393 H 0.93366 0.18906 0.36916 0.0
C394 C 0.90704 0.15786 0.37883 0.0
C395 C 0.88109 0.14967 0.37668 0.0
C396 C 0.92338 0.2392 0.34389 0.0
C397 C 0.89353 0.20144 0.35996 0.0
C398 C 0.93036 0.25919 0.31425 0.0
C399 C 0.91355 0.26652 0.27881 0.0
C400 C 0.89954 0.2264 0.33771 0.0
C401 C 0.88894 0.25484 0.27658 0.0
C402 C 0.91335 0.18374 0.37082 0.0
C403 C 0.86167 0.16842 0.37046 0.0
N404 N 0.88283 0.2351 0.30521 0.0
N405 N 0.86834 0.19336 0.36101 0.0
H406 H 0.35943 0.90653 0.7907 0.0
H407 H 0.22886 0.86828 0.66279 0.0
H408 H 0.33805 0.82593 0.77428 0.0
H409 H 0.23855 0.93773 0.74339 0.0
H410 H 0.27163 0.85307 0.69003 0.0
H411 H 0.31777 0.91922 0.75861 0.0
C412 C 0.34599 0.89147 0.78025 0.0
C413 C 0.35213 0.86512 0.78552 0.0
C414 C 0.26417 0.87158 0.70161 0.0
C415 C 0.30442 0.8796 0.74846 0.0
C416 C 0.23996 0.88028 0.68601 0.0
C417 C 0.23014 0.90419 0.70111 0.0
C418 C 0.27863 0.88728 0.7314 0.0
C419 C 0.24521 0.91904 0.73123 0.0
C420 C 0.32219 0.89874 0.76205 0.0
C421 C 0.33391 0.84647 0.77127 0.0
N422 N 0.26871 0.91042 0.74512 0.0
N423 N 0.31078 0.85407 0.75318 0.0
H424 H 0.61508 0.25478 0.80205 0.0
H425 H 0.62653 0.15072 0.60358 0.0
H426 H 0.57138 0.26358 0.67723 0.0
H427 H 0.62791 0.13131 0.74649 0.0
H428 H 0.61719 0.19619 0.62382 0.0
H429 H 0.63168 0.21356 0.77443 0.0
C430 C 0.60915 0.24825 0.76857 0.0
C431 C 0.5914 0.26253 0.74221 0.0
C432 C 0.61979 0.18191 0.65053 0.0
C433 C 0.61062 0.21531 0.71053 0.0
C434 C 0.62522 0.15615 0.63913 0.0
C435 C 0.62782 0.13741 0.67354 0.0
C436 C 0.61769 0.18883 0.69654 0.0
C437 C 0.6258 0.14521 0.71904 0.0
C438 C 0.61864 0.22466 0.75298 0.0
C439 C 0.58474 0.25305 0.69891 0.0
N440 N 0.62094 0.17038 0.72925 0.0
N441 N 0.59427 0.22984 0.68441 0.0
H442 H 0.34582 0.58294 0.18919 0.0
H443 H 0.21752 0.61818 0.32918 0.0
H444 H 0.32482 0.66189 0.22257 0.0
H445 H 0.23251 0.54365 0.2671 0.0
H446 H 0.25824 0.63451 0.29603 0.0
H447 H 0.30518 0.56806 0.22239 0.0
C448 C 0.33257 0.59718 0.20321 0.0
C449 C 0.33872 0.62369 0.20303 0.0
C450 C 0.25248 0.6146 0.28978 0.0
C451 C 0.29221 0.60676 0.24162 0.0
C452 C 0.2294 0.60526 0.30889 0.0
C453 C 0.22157 0.5796 0.30067 0.0
C454 C 0.26776 0.598 0.26287 0.0
C455 C 0.23761 0.56366 0.27401 0.0
C456 C 0.30936 0.58868 0.22224 0.0
C457 C 0.32077 0.64126 0.22172 0.0
N458 N 0.25989 0.57312 0.25615 0.0
N459 N 0.29834 0.63246 0.24057 0.0
H460 H 0.91926 0.34834 0.5973 0.0
H461 H 0.87443 0.21726 0.71078 0.0
H462 H 0.83889 0.3285 0.62077 0.0
H463 H 0.95363 0.23292 0.671 0.0
H464 H 0.86014 0.25428 0.66558 0.0
H465 H 0.93127 0.30326 0.61103 0.0
C466 C 0.90407 0.33439 0.60465 0.0
C467 C 0.87809 0.34228 0.60891 0.0
C468 C 0.8806 0.2494 0.66605 0.0
C469 C 0.89177 0.29066 0.62524 0.0
C470 C 0.8888 0.22829 0.69198 0.0
C471 C 0.91534 0.22237 0.69549 0.0
C472 C 0.89911 0.26498 0.64401 0.0
C473 C 0.93301 0.23699 0.6697 0.0
C474 C 0.91095 0.30861 0.61239 0.0
C475 C 0.85918 0.32331 0.61764 0.0
N476 N 0.92463 0.25796 0.64576 0.0
N477 N 0.86647 0.29845 0.62646 0.0
H478 H 0.13066 0.91351 0.20779 0.0
H479 H 0.25717 0.87724 0.34888 0.0
H480 H 0.14952 0.83363 0.23803 0.0
H481 H 0.25241 0.94365 0.25943 0.0
H482 H 0.2146 0.86261 0.32044 0.0
H483 H 0.17247 0.92677 0.23911 0.0
C484 C 0.1436 0.89875 0.22111 0.0
C485 C 0.13672 0.87242 0.22014 0.0
C486 C 0.22303 0.88035 0.30719 0.0
C487 C 0.18441 0.88752 0.25637 0.0
C488 C 0.24712 0.88876 0.32351 0.0
C489 C 0.25828 0.91161 0.3063 0.0
C490 C 0.20997 0.89527 0.27436 0.0
C491 C 0.2446 0.9258 0.27333 0.0
C492 C 0.16746 0.90633 0.23882 0.0
C493 C 0.15426 0.85411 0.23777 0.0
N494 N 0.2211 0.91748 0.25864 0.0
N495 N 0.17735 0.86203 0.2555 0.0
H496 H 0.42064 0.62862 0.6548 0.0
H497 H 0.37708 0.76751 0.73658 0.0
H498 H 0.34177 0.65627 0.64236 0.0
H499 H 0.45746 0.74696 0.71539 0.0
H500 H 0.36396 0.72836 0.69602 0.0
H501 H 0.43492 0.67284 0.67068 0.0
C502 C 0.40635 0.64406 0.6549 0.0
C503 C 0.3799 0.63869 0.64798 0.0
C504 C 0.38447 0.73258 0.6996 0.0
C505 C 0.39611 0.68933 0.66652 0.0
C506 C 0.39198 0.75488 0.72293 0.0
C507 C 0.41841 0.76025 0.73 0.0
C508 C 0.40351 0.71527 0.6839 0.0
C509 C 0.43688 0.74345 0.71098 0.0
C510 C 0.41455 0.66933 0.66379 0.0
C511 C 0.36232 0.6595 0.64783 0.0
N512 N 0.42907 0.72143 0.68946 0.0
N513 N 0.37069 0.68387 0.65779 0.0
H514 H 0.72191 0.37307 0.29051 0.0
H515 H 0.85445 0.40298 0.15987 0.0
H516 H 0.74034 0.4464 0.22651 0.0
H517 H 0.83317 0.32597 0.20489 0.0
H518 H 0.81228 0.41882 0.18437 0.0
H519 H 0.76222 0.35498 0.25976 0.0
C520 C 0.73434 0.38534 0.26995 0.0
C521 C 0.72778 0.41136 0.26138 0.0
C522 C 0.81672 0.39841 0.18874 0.0
C523 C 0.77379 0.3908 0.22623 0.0
C524 C 0.84087 0.38936 0.17483 0.0
C525 C 0.84743 0.36313 0.18056 0.0
C526 C 0.79898 0.38122 0.20893 0.0
C527 C 0.82892 0.34635 0.19982 0.0
C528 C 0.7573 0.37498 0.25234 0.0
C529 C 0.74458 0.4263 0.23431 0.0
N530 N 0.80555 0.35574 0.21366 0.0
N531 N 0.76682 0.41583 0.21794 0.0
H532 H 0.07567 0.85016 0.6239 0.0
H533 H 0.11426 0.72116 0.75153 0.0
H534 H 0.15481 0.82986 0.65677 0.0
H535 H 0.03699 0.73643 0.70089 0.0
H536 H 0.13053 0.75768 0.70726 0.0
H537 H 0.06232 0.8058 0.64076 0.0
C538 C 0.09032 0.83618 0.634 0.0
C539 C 0.11629 0.84374 0.63988 0.0
C540 C 0.11008 0.75288 0.70529 0.0
C541 C 0.10109 0.79305 0.65991 0.0
C542 C 0.10071 0.73211 0.7308 0.0
C543 C 0.07409 0.72612 0.73069 0.0
C544 C 0.09266 0.76805 0.67993 0.0
C545 C 0.05759 0.74059 0.70241 0.0
C546 C 0.08269 0.81084 0.64356 0.0
C547 C 0.13455 0.82483 0.65222 0.0
N548 N 0.06708 0.76119 0.67874 0.0
N549 N 0.1265 0.80042 0.66276 0.0
H550 H 0.66952 0.16123 0.16444 0.0
H551 H 0.75102 0.09658 0.36641 0.0
H552 H 0.63708 0.1082 0.26315 0.0
H553 H 0.78449 0.11861 0.23735 0.0
H554 H 0.70901 0.11365 0.34065 0.0
H555 H 0.71173 0.15768 0.20282 0.0
C556 C 0.67123 0.14908 0.19441 0.0
C557 C 0.65 0.13457 0.2102 0.0
C558 C 0.72573 0.11515 0.31843 0.0
C559 C 0.69775 0.13089 0.25441 0.0
C560 C 0.74965 0.1056 0.33315 0.0
C561 C 0.771 0.10587 0.30358 0.0
C562 C 0.72342 0.12529 0.27422 0.0
C563 C 0.76829 0.11768 0.2608 0.0
C564 C 0.69523 0.1471 0.21622 0.0
C565 C 0.65314 0.11926 0.24934 0.0
N566 N 0.74481 0.12676 0.24719 0.0
N567 N 0.67664 0.11773 0.27005 0.0
H568 H 0.32053 0.83182 0.35832 0.0
H569 H 0.43029 0.72408 0.3362 0.0
H570 H 0.40081 0.84183 0.39682 0.0
H571 H 0.35762 0.72323 0.26254 0.0
H572 H 0.41396 0.75997 0.38237 0.0
H573 H 0.32865 0.78528 0.34736 0.0
C574 C 0.33965 0.82408 0.36561 0.0
C575 C 0.36024 0.8406 0.37728 0.0
C576 C 0.40144 0.75156 0.35664 0.0
C577 C 0.36958 0.78786 0.36504 0.0
C578 C 0.41073 0.73108 0.33028 0.0
C579 C 0.3956 0.72124 0.2945 0.0
C580 C 0.3769 0.76216 0.34709 0.0
C581 C 0.37025 0.73078 0.28889 0.0
C582 C 0.34429 0.79762 0.35925 0.0
C583 C 0.38461 0.82972 0.38662 0.0
N584 N 0.36184 0.75104 0.3144 0.0
N585 N 0.38872 0.80406 0.37968 0.0
H586 H 0.62973 0.3985 0.72745 0.0
H587 H 0.7817 0.38248 0.75249 0.0
H588 H 0.66378 0.34511 0.8239 0.0
H589 H 0.74621 0.40498 0.62536 0.0
H590 H 0.73883 0.37096 0.78213 0.0
H591 H 0.67263 0.40478 0.69309 0.0
C592 C 0.64626 0.38831 0.74167 0.0
C593 C 0.64325 0.37137 0.77874 0.0
C594 C 0.74046 0.37803 0.74752 0.0
C595 C 0.69213 0.37832 0.73949 0.0
C596 C 0.76487 0.38454 0.73059 0.0
C597 C 0.76738 0.39461 0.68646 0.0
C598 C 0.71839 0.38226 0.72049 0.0
C599 C 0.74504 0.39703 0.65944 0.0
C600 C 0.67062 0.39166 0.72171 0.0
C601 C 0.66525 0.35835 0.79538 0.0
N602 N 0.72134 0.3913 0.67718 0.0
N603 N 0.68882 0.36225 0.77583 0.0
H604 H 0.03128 0.75655 0.30044 0.0
H605 H 0.146 0.65615 0.35256 0.0
H606 H 0.11201 0.77193 0.27089 0.0
H607 H 0.06511 0.63501 0.34022 0.0
H608 H 0.13397 0.7018 0.34158 0.0
H609 H 0.04391 0.71537 0.33558 0.0
C610 C 0.0517 0.75156 0.30221 0.0
C611 C 0.07058 0.76745 0.28195 0.0
C612 C 0.11889 0.68713 0.34174 0.0
C613 C 0.08508 0.7204 0.32173 0.0
C614 C 0.12572 0.66113 0.34799 0.0
C615 C 0.10657 0.64174 0.3465 0.0
C616 C 0.09273 0.69373 0.33453 0.0
C617 C 0.08057 0.64928 0.34074 0.0
C618 C 0.05886 0.72798 0.32199 0.0
C619 C 0.09677 0.76001 0.28536 0.0
N620 N 0.07443 0.67466 0.33475 0.0
N621 N 0.10323 0.73687 0.30437 0.0
H622 H 0.86352 0.07961 0.78637 0.0
H623 H 0.7288 0.11412 0.66515 0.0
H624 H 0.83721 0.1584 0.76553 0.0
H625 H 0.75103 0.037 0.70806 0.0
H626 H 0.76964 0.13085 0.69649 0.0
H627 H 0.8232 0.0638 0.75333 0.0
C628 C 0.84922 0.09362 0.77503 0.0
C629 C 0.85378 0.1204 0.77882 0.0
C630 C 0.76551 0.11027 0.69892 0.0
C631 C 0.80751 0.10234 0.74057 0.0
C632 C 0.74231 0.1007 0.68084 0.0
C633 C 0.73644 0.07414 0.68415 0.0
C634 C 0.78295 0.09311 0.72009 0.0
C635 C 0.75461 0.05764 0.70498 0.0
C636 C 0.82617 0.08456 0.75611 0.0
C637 C 0.83447 0.13759 0.7635 0.0
N638 N 0.777 0.06741 0.72215 0.0
N639 N 0.81218 0.12826 0.74486 0.0
H640 H 0.62841 0.12953 0.01114 0.0
H641 H 0.60308 0.02359 0.82451 0.0
H642 H 0.57942 0.06304 0.03702 0.0
H643 H 0.67302 0.06968 0.82544 0.0
H644 H 0.59414 0.0372 0.90262 0.0
H645 H 0.64463 0.10836 0.94251 0.0
C646 C 0.62103 0.11048 0.00236 0.0
C647 C 0.60228 0.09815 0.02955 0.0
C648 C 0.61171 0.04395 0.88616 0.0
C649 C 0.62088 0.07383 0.95115 0.0
C650 C 0.61681 0.03619 0.8417 0.0
C651 C 0.63875 0.04565 0.81883 0.0
C652 C 0.62831 0.06185 0.90735 0.0
C653 C 0.65597 0.06192 0.84223 0.0
C654 C 0.63052 0.09831 0.96344 0.0
C655 C 0.59374 0.0733 0.01689 0.0
N656 N 0.65011 0.06997 0.88511 0.0
N657 N 0.60287 0.06208 0.97822 0.0
H658 H 0.4294 0.55756 0.55482 0.0
H659 H 0.4069 0.56936 0.2876 0.0
H660 H 0.35824 0.53612 0.48679 0.0
H661 H 0.45634 0.62128 0.36422 0.0
H662 H 0.39858 0.54471 0.35681 0.0
H663 H 0.44889 0.56749 0.48071 0.0
C664 C 0.41824 0.55399 0.52417 0.0
C665 C 0.39211 0.54635 0.52667 0.0
C666 C 0.41153 0.56128 0.35824 0.0
C667 C 0.41412 0.55773 0.4426 0.0
C668 C 0.4163 0.57545 0.31884 0.0
C669 C 0.43201 0.59776 0.32028 0.0
C670 C 0.4227 0.56929 0.39934 0.0
C671 C 0.44375 0.6045 0.36174 0.0
C672 C 0.42927 0.55992 0.48209 0.0
C673 C 0.37837 0.54226 0.48613 0.0
N674 N 0.43868 0.5904 0.39986 0.0
N675 N 0.38947 0.5483 0.44564 0.0
H676 H 0.87347 0.33124 0.00979 0.0
H677 H 0.92104 0.39439 0.77733 0.0
H678 H 0.94836 0.36804 -0.0043 0.0
H679 H 0.84127 0.39989 0.82162 0.0
H680 H 0.93222 0.37364 0.84961 0.0
H681 H 0.86254 0.34501 0.93193 0.0
C682 C 0.88779 0.34168 0.98989 0.0
C683 C 0.9118 0.34865 0.00892 0.0
C684 C 0.91227 0.37928 0.84329 0.0
C685 C 0.89953 0.36419 0.92071 0.0
C686 C 0.90584 0.39106 0.80217 0.0
C687 C 0.88021 0.39902 0.79375 0.0
C688 C 0.89286 0.37496 0.8758 0.0
C689 C 0.8613 0.39429 0.8271 0.0
C690 C 0.88146 0.3497 0.94586 0.0
C691 C 0.9296 0.36245 0.98214 0.0
N692 N 0.86799 0.38243 0.86679 0.0
N693 N 0.92311 0.36978 0.93926 0.0
H694 H 0.05481 0.9273 0.29591 0.0
H695 H 0.05302 0.91893 0.56618 0.0
H696 H 0.02164 0.86195 0.36786 0.0
H697 H 0.11716 0.94944 0.48832 0.0
H698 H 0.02955 0.9103 0.49485 0.0
H699 H 0.06525 0.94747 0.36849 0.0
C700 C 0.04927 0.91732 0.32689 0.0
C701 C 0.03779 0.89254 0.32572 0.0
C702 C 0.04846 0.91952 0.49367 0.0
C703 C 0.0495 0.91592 0.40878 0.0
C704 C 0.06172 0.92466 0.53412 0.0
C705 C 0.087 0.93482 0.5327 0.0
C706 C 0.06046 0.92519 0.45202 0.0
C707 C 0.09771 0.9415 0.49054 0.0
C708 C 0.05527 0.92894 0.36825 0.0
C709 C 0.03088 0.88084 0.36716 0.0
N710 N 0.0844 0.93645 0.4517 0.0
N711 N 0.0371 0.89255 0.40721 0.0
H712 H 0.60695 0.35773 0.9709 0.0
H713 H 0.58859 0.47112 0.14701 0.0
H714 H 0.55693 0.42282 0.94027 0.0
H715 H 0.65939 0.42664 0.13809 0.0
H716 H 0.57478 0.45332 0.07362 0.0
H717 H 0.62336 0.38096 0.03703 0.0
C718 C 0.59914 0.37679 0.97834 0.0
C719 C 0.58044 0.38833 0.94996 0.0
C720 C 0.59355 0.44787 0.08731 0.0
C721 C 0.59951 0.4151 0.02549 0.0
C722 C 0.60147 0.45805 0.12899 0.0
C723 C 0.6251 0.45021 0.14845 0.0
C724 C 0.60911 0.42928 0.06572 0.0
C725 C 0.64109 0.43324 0.124 0.0
C726 C 0.60882 0.39016 0.01579 0.0
C727 C 0.5713 0.41319 0.96124 0.0
N728 N 0.63256 0.4229 0.08418 0.0
N729 N 0.58085 0.42575 -0.00163 0.0
H730 H 0.04578 0.57509 0.43857 0.0
H731 H 0.05222 0.5678 0.7081 0.0
H732 H 0.1079 0.5388 0.51395 0.0
H733 H 0.02423 0.63582 0.63687 0.0
H734 H 0.05861 0.54622 0.63563 0.0
H735 H 0.02431 0.58598 0.51073 0.0
C736 C 0.05437 0.56862 0.4703 0.0
C737 C 0.07862 0.55623 0.47084 0.0
C738 C 0.05069 0.56571 0.63603 0.0
C739 C 0.05435 0.56838 0.55227 0.0
C740 C 0.04713 0.5782 0.67729 0.0
C741 C 0.03832 0.60404 0.67854 0.0
C742 C 0.04527 0.57898 0.59566 0.0
C743 C 0.03155 0.61612 0.63741 0.0
C744 C 0.04226 0.57502 0.51118 0.0
C745 C 0.08926 0.54853 0.51248 0.0
N746 N 0.03548 0.60354 0.59733 0.0
N747 N 0.07709 0.55488 0.55176 0.0
H748 H 0.94838 0.1139 0.97263 0.0
H749 H 0.83952 0.09804 0.15611 0.0
H750 H 0.87744 0.15801 0.96121 0.0
H751 H 0.92039 0.09976 0.19504 0.0
H752 H 0.85152 0.11562 0.08122 0.0
H753 H 0.9374 0.10383 0.05191 0.0
C754 C 0.93061 0.12161 0.98701 0.0
C755 C 0.91377 0.13679 0.96058 0.0
C756 C 0.86652 0.11238 0.10649 0.0
C757 C 0.90089 0.1249 0.05035 0.0
C758 C 0.85973 0.10226 0.14897 0.0
C759 C 0.87901 0.09742 0.18167 0.0
C760 C 0.89277 0.11695 0.09642 0.0
C761 C 0.90492 0.10332 0.17084 0.0
C762 C 0.92442 0.11595 0.03212 0.0
C763 C 0.89098 0.14637 0.98069 0.0
N764 N 0.91111 0.1124 0.12884 0.0
N765 N 0.88494 0.13989 0.0243 0.0
H766 H 0.44679 0.92176 0.70995 0.0
H767 H 0.37429 0.94756 0.51984 0.0
H768 H 0.45776 0.84903 0.63914 0.0
H769 H 0.43446 0.90856 0.44407 0.0
H770 H 0.39788 0.9383 0.59029 0.0
H771 H 0.43659 0.94263 0.63777 0.0
C772 C 0.44733 0.91016 0.67922 0.0
C773 C 0.45235 0.88333 0.68081 0.0
C774 C 0.40635 0.93252 0.55812 0.0
C775 C 0.44069 0.90731 0.59833 0.0
C776 C 0.39286 0.93771 0.51809 0.0
C777 C 0.40261 0.92891 0.47643 0.0
C778 C 0.42932 0.91783 0.55634 0.0
C779 C 0.42656 0.9159 0.4757 0.0
C780 C 0.44148 0.92217 0.63813 0.0
C781 C 0.4535 0.86961 0.63961 0.0
N782 N 0.43883 0.91008 0.51537 0.0
N783 N 0.44735 0.88173 0.5999 0.0
H784 H 0.40344 0.82595 -0.00111 0.0
H785 H 0.35376 0.94331 0.15424 0.0
H786 H 0.40433 0.90623 0.95616 0.0
H787 H 0.37599 0.8687 0.20898 0.0
H788 H 0.36556 0.92804 0.07815 0.0
H789 H 0.38774 0.83971 0.07377 0.0
C790 C 0.40042 0.84644 0.00526 0.0
C791 C 0.40533 0.86496 0.97124 0.0
C792 C 0.36769 0.91499 0.10685 0.0
C793 C 0.38701 0.88073 0.05642 0.0
C794 C 0.36075 0.92361 0.1502 0.0
C795 C 0.36408 0.90732 0.18805 0.0
C796 C 0.37774 0.88983 0.1013 0.0
C797 C 0.37336 0.88201 0.18079 0.0
C798 C 0.39144 0.85426 0.04794 0.0
C799 C 0.40103 0.89127 0.98141 0.0
N800 N 0.37993 0.87406 0.13828 0.0
N801 N 0.39201 0.89834 0.02299 0.0
H802 H 0.56091 0.40416 0.40934 0.0
H803 H 0.56141 0.42082 0.67814 0.0
H804 H 0.61692 0.44994 0.48354 0.0
H805 H 0.53876 0.3485 0.61461 0.0
H806 H 0.56932 0.43928 0.60356 0.0
H807 H 0.54074 0.39144 0.48197 0.0
C808 C 0.56847 0.41204 0.44088 0.0
C809 C 0.59057 0.42797 0.44096 0.0
C810 C 0.56238 0.41946 0.60599 0.0
C811 C 0.56777 0.41381 0.52289 0.0
C812 C 0.55788 0.40878 0.64854 0.0
C813 C 0.54991 0.38278 0.65277 0.0
C814 C 0.55879 0.40419 0.56719 0.0
C815 C 0.54528 0.36847 0.61293 0.0
C816 C 0.55714 0.40463 0.48202 0.0
C817 C 0.59996 0.43749 0.48237 0.0
N818 N 0.55004 0.37933 0.57153 0.0
N819 N 0.58851 0.43021 0.52183 0.0
H820 H 0.05087 0.58831 0.96813 0.0
H821 H 0.15357 0.58561 0.17155 0.0
H822 H 0.10737 0.64934 0.98677 0.0
H823 H 0.08001 0.5456 0.17469 0.0
H824 H 0.14141 0.60473 0.09746 0.0
H825 H 0.06506 0.56861 0.03931 0.0
C826 C 0.06611 0.59769 0.98757 0.0
C827 C 0.07792 0.62049 0.97182 0.0
C828 C 0.12813 0.59154 0.11431 0.0
C829 C 0.09464 0.59779 0.05272 0.0
C830 C 0.13519 0.58044 0.156 0.0
C831 C 0.11775 0.56401 0.17854 0.0
C832 C 0.10369 0.58576 0.09543 0.0
C833 C 0.09395 0.55816 0.15795 0.0
C834 C 0.07426 0.58641 0.02807 0.0
C835 C 0.09761 0.63188 -0.00183 0.0
N836 N 0.0876 0.56903 0.11752 0.0
N837 N 0.10558 0.62024 0.03735 0.0
H838 H 0.87586 0.03427 0.50604 0.0
H839 H 0.93757 0.06337 0.70597 0.0
H840 H 0.94243 0.06669 0.43744 0.0
H841 H 0.96537 0.12785 0.62528 0.0
H842 H 0.92913 0.0392 0.63626 0.0
H843 H 0.89727 0.04163 0.57897 0.0
C844 C 0.89546 0.04197 0.5064 0.0
C845 C 0.90744 0.04992 0.46593 0.0
C846 C 0.93716 0.05859 0.63391 0.0
C847 C 0.93184 0.05897 0.549 0.0
C848 C 0.94208 0.07245 0.67366 0.0
C849 C 0.95153 0.09805 0.67151 0.0
C850 C 0.94164 0.07041 0.59166 0.0
C851 C 0.95755 0.10843 0.62859 0.0
C852 C 0.90773 0.04616 0.54801 0.0
C853 C 0.93267 0.06014 0.46803 0.0
N854 N 0.95222 0.09464 0.59026 0.0
N855 N 0.94376 0.06516 0.50909 0.0
H856 H 0.41172 0.56961 0.81268 0.0
H857 H 0.36858 0.65636 0.02438 0.0
H858 H 0.33138 0.58747 0.84106 0.0
H859 H 0.43946 0.6117 0.02128 0.0
H860 H 0.35729 0.63919 0.94895 0.0
H861 H 0.42436 0.59217 0.88218 0.0
C862 C 0.39671 0.57825 0.83361 0.0
C863 C 0.37042 0.57653 0.82125 0.0
C864 C 0.37544 0.63346 0.96468 0.0
C865 C 0.38487 0.6027 0.90046 0.0
C866 C 0.38203 0.64346 0.00734 0.0
C867 C 0.40493 0.6353 0.02899 0.0
C868 C 0.39209 0.61558 0.94352 0.0
C869 C 0.42155 0.61831 0.00578 0.0
C870 C 0.40397 0.59113 0.87321 0.0
C871 C 0.35183 0.5881 0.84965 0.0
N872 N 0.41476 0.60894 0.96433 0.0
N873 N 0.35943 0.60084 0.88798 0.0
H874 H 0.96917 0.36612 0.33939 0.0
H875 H 0.86736 0.45036 0.46616 0.0
H876 H 0.91749 0.4182 0.26788 0.0
H877 H 0.93794 0.42555 0.53225 0.0
H878 H 0.88748 0.44229 0.39229 0.0
H879 H 0.96026 0.38977 0.40987 0.0
C880 C 0.95617 0.38265 0.33838 0.0
C881 C 0.94368 0.38986 0.29781 0.0
C882 C 0.89887 0.43926 0.42285 0.0
C883 C 0.93345 0.41691 0.37814 0.0
C884 C 0.8874 0.44395 0.46493 0.0
C885 C 0.90101 0.43842 0.50504 0.0
C886 C 0.92378 0.4282 0.42111 0.0
C887 C 0.92687 0.43008 0.50189 0.0
C888 C 0.95127 0.39627 0.37853 0.0
C889 C 0.92732 0.41169 0.2984 0.0
N890 N 0.93725 0.42452 0.46052 0.0
N891 N 0.92234 0.42415 0.33807 0.0
H892 H 0.13862 0.94574 0.85448 0.0
H893 H 0.08442 0.82991 0.00918 0.0
H894 H 0.11078 0.87339 0.79843 0.0
H895 H 0.08587 0.91019 0.05169 0.0
H896 H 0.10067 0.84329 0.93425 0.0
H897 H 0.12696 0.93026 0.93067 0.0
C898 C 0.13042 0.92648 0.85827 0.0
C899 C 0.12543 0.91092 0.82012 0.0
C900 C 0.09736 0.8579 0.9601 0.0
C901 C 0.11201 0.8932 0.9068 0.0
C902 C 0.08806 0.85031 0.00275 0.0
C903 C 0.08359 0.86897 0.03665 0.0
C904 C 0.1026 0.88425 0.95166 0.0
C905 C 0.08876 0.89514 0.0265 0.0
C906 C 0.12359 0.91774 0.90164 0.0
C907 C 0.11467 0.88614 0.82694 0.0
N908 N 0.09809 0.90197 0.98502 0.0
N909 N 0.10825 0.87805 0.86945 0.0
H910 H 0.56784 0.09832 0.56139 0.0
H911 H 0.55119 0.06955 0.29675 0.0
H912 H 0.60618 0.03673 0.48829 0.0
H913 H 0.54614 0.14731 0.35097 0.0
H914 H 0.55663 0.05277 0.37343 0.0
H915 H 0.54611 0.11158 0.49033 0.0
C916 C 0.571 0.08715 0.53065 0.0
C917 C 0.58875 0.06648 0.53022 0.0
C918 C 0.55403 0.07347 0.36864 0.0
C919 C 0.56416 0.0813 0.44997 0.0
C920 C 0.55104 0.08313 0.32491 0.0
C921 C 0.54901 0.10998 0.31745 0.0
C922 C 0.55512 0.09072 0.40536 0.0
C923 C 0.54807 0.12652 0.35532 0.0
C924 C 0.55883 0.09483 0.4903 0.0
C925 C 0.59265 0.05281 0.48973 0.0
N926 N 0.55161 0.11663 0.39792 0.0
N927 N 0.5805 0.06052 0.45112 0.0
H928 H 0.43586 0.97009 0.26088 0.0
H929 H 0.45959 0.11499 0.18418 0.0
H930 H 0.37681 0.02924 0.27413 0.0
H931 H 0.50857 0.05068 0.14485 0.0
H932 H 0.42693 0.08418 0.21057 0.0
H933 H 0.46186 -0.00015 0.21606 0.0
C934 C 0.42841 0.98944 0.25477 0.0
C935 C 0.40412 -0.0028 0.27167 0.0
C936 C 0.44461 0.07685 0.1953 0.0
C937 C 0.43385 0.0314 0.21949 0.0
C938 C 0.46325 0.09442 0.17993 0.0
C939 C 0.48728 0.08542 0.16361 0.0
C940 C 0.45017 0.0502 0.19451 0.0
C941 C 0.49064 0.05856 0.15819 0.0
C942 C 0.44318 0.00635 0.22857 0.0
C943 C 0.39548 0.02248 0.26206 0.0
N944 N 0.47254 0.04189 0.1746 0.0
N945 N 0.41043 0.03878 0.23675 0.0
H946 H 0.45714 0.35764 0.74432 0.0
H947 H 0.36678 0.47801 0.79838 0.0
H948 H 0.4779 0.41301 0.84874 0.0
H949 H 0.395 0.46093 0.66348 0.0
H950 H 0.39228 0.44136 0.82822 0.0
H951 H 0.41818 0.38289 0.72801 0.0
C952 C 0.45315 0.37462 0.76489 0.0
C953 C 0.47113 0.38361 0.79734 0.0
C954 C 0.39218 0.4453 0.79198 0.0
C955 C 0.42641 0.41199 0.77915 0.0
C956 C 0.37767 0.46597 0.77494 0.0
C957 C 0.37904 0.47229 0.72855 0.0
C958 C 0.40733 0.43062 0.76203 0.0
C959 C 0.39364 0.45655 0.69947 0.0
C960 C 0.43094 0.38895 0.75537 0.0
C961 C 0.46479 0.4057 0.82291 0.0
N962 N 0.40734 0.43634 0.71676 0.0
N963 N 0.44298 0.41942 0.81286 0.0
H964 H 0.04287 0.35488 0.18073 0.0
H965 H 0.05008 0.49608 0.26801 0.0
H966 H -0.00066 0.41756 0.11957 0.0
H967 H 0.1189 0.44815 0.27511 0.0
H968 H 0.03041 0.46464 0.21708 0.0
H969 H 0.07314 0.38662 0.21231 0.0
C970 C 0.04019 0.37521 0.17242 0.0
C971 C 0.01773 0.38372 0.14954 0.0
C972 C 0.04985 0.46103 0.22971 0.0
C973 C 0.05184 0.41978 0.18619 0.0
C974 C 0.06091 0.4787 0.25964 0.0
C975 C 0.08623 0.47477 0.27591 0.0
C976 C 0.06394 0.439 0.21652 0.0
C977 C 0.09933 0.45192 0.26334 0.0
C978 C 0.05739 0.39329 0.19081 0.0
C979 C 0.01577 0.41016 0.13858 0.0
N980 N 0.08796 0.43474 0.2344 0.0
N981 N 0.03207 0.42741 0.15848 0.0
H982 H 0.06641 0.98218 0.76485 0.0
H983 H 0.04599 0.13144 0.78349 0.0
H984 H 0.12399 0.0363 0.71536 0.0
H985 H 0.00562 0.07587 0.86802 0.0
H986 H 0.07868 0.09864 0.76673 0.0
H987 H 0.04602 0.01707 0.80726 0.0
C988 C 0.07464 0.0015 0.76255 0.0
C989 C 0.09665 0.00647 0.73583 0.0
C990 C 0.06305 0.09385 0.78992 0.0
C991 C 0.07356 0.04654 0.78505 0.0
C992 C 0.04439 0.11262 0.79972 0.0
C993 C 0.02238 0.10601 0.82553 0.0
C994 C 0.05941 0.06842 0.80582 0.0
C995 C 0.02177 0.08157 0.84664 0.0
C996 C 0.06323 0.02136 0.78744 0.0
C997 C 0.10683 0.03176 0.73511 0.0
N998 N 0.0396 0.06337 0.83519 0.0
N999 N 0.09497 0.051 0.75893 0.0
H1000 H 0.6278 0.9454 0.71397 0.0
H1001 H 0.49577 0.92546 0.8506 0.0
H1002 H 0.56103 -0.00401 0.70567 0.0
H1003 H 0.5448 0.86079 0.81371 0.0
H1004 H 0.52737 0.95498 0.81684 0.0
H1005 H 0.60297 0.91633 0.76382 0.0
C1006 C 0.6078 0.95014 0.72191 0.0
C1007 C 0.59642 0.97308 0.70543 0.0
C1008 C 0.53143 0.93434 0.81703 0.0
C1009 C 0.56858 0.94069 0.76373 0.0
C1010 C 0.51363 0.91749 0.83702 0.0
C1011 C 0.51733 0.89058 0.83368 0.0
C1012 C 0.55306 0.92414 0.79418 0.0
C1013 C 0.54096 0.88142 0.81595 0.0
C1014 C 0.59384 0.93375 0.75074 0.0
C1015 C 0.57054 0.97841 0.71711 0.0
N1016 N 0.55777 0.89818 0.79586 0.0
N1017 N 0.5576 0.96247 0.74596 0.0
H1018 H 0.5623 0.51241 0.30669 0.0
H1019 H 0.53319 0.64257 0.19879 0.0
H1020 H 0.63034 0.54822 0.24723 0.0
H1021 H 0.49377 0.57303 0.1539 0.0
H1022 H 0.56957 0.6157 0.22511 0.0
H1023 H 0.53523 0.54375 0.26687 0.0
C1024 C 0.57166 0.52718 0.28617 0.0
C1025 C 0.59864 0.5273 0.2795 0.0
C1026 C 0.55325 0.60661 0.20812 0.0
C1027 C 0.56765 0.56293 0.23389 0.0
C1028 C 0.53256 0.62181 0.19293 0.0
C1029 C 0.51003 0.60988 0.17557 0.0
C1030 C 0.55092 0.57959 0.2063 0.0
C1031 C 0.51043 0.58301 0.16803 0.0
C1032 C 0.55615 0.54478 0.26304 0.0
C1033 C 0.60958 0.54722 0.25277 0.0
N1034 N 0.53019 0.56862 0.18499 0.0
N1035 N 0.59395 0.56431 0.23047 0.0
H1036 H 0.86669 0.52958 0.71421 0.0
H1037 H 0.99165 0.56409 0.86274 0.0
H1038 H 0.93295 0.47945 0.73455 0.0
H1039 H 0.94601 0.62329 0.79575 0.0
H1040 H 0.96064 0.53155 0.83697 0.0
H1041 H 0.8883 0.56303 0.7604 0.0
C1042 C 0.8858 0.52569 0.72809 0.0
C1043 C 0.89822 0.50186 0.72 0.0
C1044 C 0.95719 0.55176 0.82873 0.0
C1045 C 0.92231 0.53936 0.77399 0.0
C1046 C 0.97473 0.57043 0.84383 0.0
C1047 C 0.97197 0.59637 0.82993 0.0
C1048 C 0.93672 0.55914 0.79995 0.0
C1049 C 0.94931 0.60339 0.80615 0.0
C1050 C 0.89794 0.54464 0.75467 0.0
C1051 C 0.92283 0.49768 0.73918 0.0
N1052 N 0.93279 0.58475 0.79094 0.0
N1053 N 0.93399 0.5162 0.76543 0.0
H1054 H 0.92869 0.01698 0.22617 0.0
H1055 H 0.945 0.86868 0.20333 0.0
H1056 H 0.86564 0.96537 0.2611 0.0
H1057 H 0.98872 0.92344 0.12235 0.0
H1058 H 0.91225 0.90198 0.21655 0.0
H1059 H 0.94906 0.98217 0.18348 0.0
C1060 C 0.91923 -0.00182 0.22511 0.0
C1061 C 0.89577 0.9938 0.24801 0.0
C1062 C 0.92863 0.90645 0.19481 0.0
C1063 C 0.91884 0.95388 0.19864 0.0
C1064 C 0.94737 0.88744 0.18714 0.0
C1065 C 0.97024 0.89367 0.16341 0.0
C1066 C 0.93309 0.93176 0.17898 0.0
C1067 C 0.97186 0.91803 0.14221 0.0
C1068 C 0.93064 0.97843 0.20005 0.0
C1069 C 0.88396 0.96933 0.24438 0.0
N1070 N 0.9539 0.93647 0.15164 0.0
N1071 N 0.89589 0.95004 0.22076 0.0
H1072 H 0.52819 0.16724 0.00196 0.0
H1073 H 0.51287 0.3069 0.94683 0.0
H1074 H 0.49358 0.21896 0.10003 0.0
H1075 H 0.50546 0.24979 0.84042 0.0
H1076 H 0.49715 0.27509 0.00185 0.0
H1077 H 0.51161 0.19455 0.94065 0.0
C1078 C 0.51645 0.18402 0.01042 0.0
C1079 C 0.51279 0.19139 0.05583 0.0
C1080 C 0.49809 0.26967 0.96628 0.0
C1081 C 0.49441 0.22299 0.98628 0.0
C1082 C 0.50721 0.28778 0.93501 0.0
C1083 C 0.51093 0.28059 0.88957 0.0
C1084 C 0.49378 0.24398 0.95212 0.0
C1085 C 0.50309 0.25583 0.87549 0.0
C1086 C 0.50683 0.19952 0.97547 0.0
C1087 C 0.49712 0.21295 0.06527 0.0
N1088 N 0.49565 0.23802 0.90703 0.0
N1089 N 0.48919 0.22857 0.03069 0.0
H1090 H 0.15946 0.50527 0.48947 0.0
H1091 H 0.2515 0.49307 0.64942 0.0
H1092 H 0.21639 0.48353 0.38912 0.0
H1093 H 0.30235 0.50325 0.5342 0.0
H1094 H 0.21827 0.47534 0.59834 0.0
H1095 H 0.1887 0.49124 0.54939 0.0
C1096 C 0.17781 0.49647 0.48011 0.0
C1097 C 0.18577 0.49592 0.43449 0.0
C1098 C 0.23678 0.48118 0.58422 0.0
C1099 C 0.21983 0.48011 0.50303 0.0
C1100 C 0.25589 0.49093 0.61355 0.0
C1101 C 0.27928 0.50042 0.59565 0.0
C1102 C 0.2412 0.48132 0.53686 0.0
C1103 C 0.28418 0.49687 0.5491 0.0
C1104 C 0.19461 0.48831 0.51446 0.0
C1105 C 0.20964 0.48438 0.42399 0.0
N1106 N 0.26511 0.48811 0.52119 0.0
N1107 N 0.22621 0.47767 0.45815 0.0
H1108 H 0.96271 0.2297 0.10549 0.0
H1109 H 0.96338 0.25686 0.86797 0.0
H1110 H 0.00191 0.30127 0.07277 0.0
H1111 H 0.00322 0.18574 0.90121 0.0
H1112 H 0.97694 0.27494 0.94157 0.0
H1113 H 0.97714 0.21159 0.03248 0.0
C1114 C 0.97529 0.24112 0.08371 0.0
C1115 C 0.98138 0.2668 0.09484 0.0
C1116 C 0.98357 0.25576 0.93186 0.0
C1117 C -0.00336 0.24695 0.01128 0.0
C1118 C 0.97585 0.24552 0.89007 0.0
C1119 C 0.98241 0.21998 0.87885 0.0
C1120 C -0.00324 0.23981 0.963 0.0
C1121 C -0.0019 0.20567 0.90882 0.0
C1122 C 0.98348 0.23087 0.04223 0.0
C1123 C -0.00284 0.28123 0.06524 0.0
N1124 N 0.00398 0.21544 0.95049 0.0
N1125 N 0.00348 0.27143 0.0238 0.0
H1126 H 0.32112 -0.00405 0.48269 0.0
H1127 H 0.174 0.98727 0.51962 0.0
H1128 H 0.26552 0.00168 0.37342 0.0
H1129 H 0.22842 -0.0011 0.62933 0.0
H1130 H 0.20559 0.00523 0.46641 0.0
H1131 H 0.28795 0.01049 0.53611 0.0
C1132 C 0.30215 0.00133 0.4697 0.0
C1133 C 0.29583 -0.00291 0.42384 0.0
C1134 C 0.21048 0.00461 0.50226 0.0
C1135 C 0.25743 0.0126 0.48497 0.0
C1136 C 0.19239 0.99433 0.53266 0.0
C1137 C 0.19889 0.99108 0.57869 0.0
C1138 C 0.23553 0.0109 0.5178 0.0
C1139 C 0.22279 0.00082 0.59397 0.0
C1140 C 0.28311 0.00947 0.50027 0.0
C1141 C 0.27109 0.00445 0.40864 0.0
N1142 N 0.24058 0.00959 0.56335 0.0
N1143 N 0.2525 0.01103 0.43941 0.0
H1144 H 0.49487 0.69062 0.10227 0.0
H1145 H 0.49134 0.81511 0.94306 0.0
H1146 H 0.4512 0.75973 0.13328 0.0
H1147 H 0.47366 0.73791 0.89585 0.0
H1148 H 0.50141 0.79731 0.01865 0.0
H1149 H 0.51165 0.71187 0.03335 0.0
C1150 C 0.4899 0.71073 0.09567 0.0
C1151 C 0.47169 0.72362 0.12294 0.0
C1152 C 0.49646 0.78423 0.99109 0.0
C1153 C 0.49083 0.74775 0.04548 0.0
C1154 C 0.49081 0.79427 0.94818 0.0
C1155 C 0.48172 0.77778 0.91377 0.0
C1156 C 0.49334 0.75759 -0.00108 0.0
C1157 C 0.48071 0.75106 0.92182 0.0
C1158 C 0.49935 0.72269 0.05645 0.0
C1159 C 0.46526 0.74935 0.11283 0.0
N1160 N 0.48621 0.74172 0.96398 0.0
N1161 N 0.47466 0.76058 0.07442 0.0
H1162 H 0.75922 0.48445 0.63029 0.0
H1163 H 0.72665 0.50971 0.37016 0.0
H1164 H 0.81624 0.49663 0.52503 0.0
H1165 H 0.67703 0.47106 0.46707 0.0
H1166 H 0.75495 0.52354 0.43316 0.0
H1167 H 0.72533 0.49935 0.57784 0.0
C1168 C 0.76476 0.49144 0.59687 0.0
C1169 C 0.79038 0.48885 0.58147 0.0
C1170 C 0.73742 0.5127 0.44066 0.0
C1171 C 0.75189 0.50532 0.52134 0.0
C1172 C 0.7213 0.50488 0.40482 0.0
C1173 C 0.69992 0.4888 0.41362 0.0
C1174 C 0.73182 0.50452 0.4853 0.0
C1175 C 0.69373 0.48301 0.45897 0.0
C1176 C 0.7454 0.49969 0.5668 0.0
C1177 C 0.79655 0.49797 0.53777 0.0
N1178 N 0.7098 0.49057 0.49309 0.0
N1179 N 0.77734 0.50527 0.5088 0.0
H1180 H 0.9933 0.67706 0.94266 0.0
H1181 H 0.98821 0.81161 0.07438 0.0
H1182 H 0.00781 0.75102 0.879 0.0
H1183 H 0.0223 0.74121 0.12653 0.0
H1184 H 0.97348 0.78766 0.00664 0.0
H1185 H 0.98099 0.69958 0.01296 0.0
C1186 C 0.99268 0.69809 0.943 0.0
C1187 C 0.00152 0.7124 0.90558 0.0
C1188 C 0.98336 0.77736 0.03376 0.0
C1189 C 0.98788 0.73797 0.98506 0.0
C1190 C 0.99169 0.7909 0.07219 0.0
C1191 C 0.00654 0.77818 0.10536 0.0
C1192 C 0.98964 0.75099 0.02938 0.0
C1193 C 0.01097 0.75153 0.10125 0.0
C1194 C 0.98582 0.71085 0.98298 0.0
C1195 C 0.00098 0.73951 0.90745 0.0
N1196 N 0.0027 0.73876 0.06356 0.0
N1197 N 0.99464 0.75154 0.94703 0.0
H1198 H 0.76179 0.00672 0.33888 0.0
H1199 H 0.72339 0.97581 0.59313 0.0
H1200 H 0.8155 -0.00423 0.44999 0.0
H1201 H 0.6736 0.01085 0.49235 0.0
H1202 H 0.75346 0.96301 0.53241 0.0
H1203 H 0.72723 0.98793 0.38577 0.0
C1204 C 0.76655 -0.00059 0.37246 0.0
C1205 C 0.79129 0.00345 0.39118 0.0
C1206 C 0.73547 0.97265 0.52345 0.0
C1207 C 0.75197 0.98231 0.44491 0.0
C1208 C 0.71825 0.97979 0.55803 0.0
C1209 C 0.69639 -0.00514 0.54756 0.0
C1210 C 0.73059 0.98067 0.47845 0.0
C1211 C 0.6906 -0.00035 0.50169 0.0
C1212 C 0.74679 0.98883 0.3993 0.0
C1213 C 0.79645 0.99358 0.43479 0.0
N1214 N 0.70787 0.99304 0.46883 0.0
N1215 N 0.77681 0.98397 0.4606 0.0
loop_
_geom_bond_atom_site_label_1
_geom_bond_atom_site_label_2
_geom_bond_distance
_geom_bond_site_symmetry_2
_ccdc_geom_bond_type
Sc0 O3 2.025 . S
Sc0 O10 2.105 . S
Sc0 O13 2.105 . S
Sc0 O16 2.105 . S
Sc0 O19 2.105 . S
Sc1 O3 2.025 . S
Sc1 O11 2.105 . S
Sc1 O15 2.105 . S
Sc1 O17 2.105 . S
Sc1 O21 2.105 . S
Sc2 O3 2.025 . S
Sc2 O12 2.105 . S
Sc2 O14 2.105 . S
Sc2 O18 2.105 . S
Sc2 O20 2.105 . S
O3 Sc0 2.025 . S
O3 Sc1 2.025 . S
O3 Sc2 2.025 . S
C4 O10 1.268 . S
C4 O20 1.268 . S
C5 O11 1.268 . S
C5 O19 1.268 . S
C6 O12 1.268 . S
C6 O21 1.268 . S
C7 O13 1.268 . S
C7 O17 1.268 . S
C8 O14 1.268 . S
C8 O16 1.268 . S
C9 O15 1.268 . S
C9 O18 1.268 . S
O10 Sc0 2.105 . S
O10 C4 1.268 . S
O11 Sc1 2.105 . S
O11 C5 1.268 . S
O12 Sc2 2.105 . S
O12 C6 1.268 . S
O13 Sc0 2.105 . S
O13 C7 1.268 . S
O14 Sc2 2.105 . S
O14 C8 1.268 . S
O15 Sc1 2.105 . S
O15 C9 1.268 . S
O16 Sc0 2.105 . S
O16 C8 1.268 . S
O17 Sc1 2.105 . S
O17 C7 1.268 . S
O18 Sc2 2.105 . S
O18 C9 1.268 . S
O19 Sc0 2.105 . S
O19 C5 1.268 . S
O20 Sc2 2.105 . S
O20 C4 1.268 . S
O21 Sc1 2.105 . S
O21 C6 1.268 . S
Sc22 O25 2.025 . S
Sc22 O32 2.105 . S
Sc22 O35 2.105 . S
Sc22 O38 2.105 . S
Sc22 O41 2.105 . S
Sc23 O25 2.025 . S
Sc23 O33 2.105 . S
Sc23 O37 2.105 . S
Sc23 O39 2.105 . S
Sc23 O43 2.105 . S
Sc24 O25 2.025 . S
Sc24 O34 2.105 . S
Sc24 O36 2.105 . S
Sc24 O40 2.105 . S
Sc24 O42 2.105 . S
O25 Sc22 2.025 . S
O25 Sc23 2.025 . S
O25 Sc24 2.025 . S
C26 O32 1.268 . S
C26 O42 1.268 . S
C27 O33 1.268 . S
C27 O41 1.268 . S
C28 O34 1.268 . S
C28 O43 1.268 . S
C29 O35 1.268 . S
C29 O39 1.268 . S
C30 O36 1.268 . S
C30 O38 1.268 . S
C31 O37 1.268 . S
C31 O40 1.268 . S
O32 Sc22 2.105 . S
O32 C26 1.268 . S
O33 Sc23 2.105 . S
O33 C27 1.268 . S
O34 Sc24 2.105 . S
O34 C28 1.268 . S
O35 Sc22 2.105 . S
O35 C29 1.268 . S
O36 Sc24 2.105 . S
O36 C30 1.268 . S
O37 Sc23 2.105 . S
O37 C31 1.268 . S
O38 Sc22 2.105 . S
O38 C30 1.268 . S
O39 Sc23 2.105 . S
O39 C29 1.268 . S
O40 Sc24 2.105 . S
O40 C31 1.268 . S
O41 Sc22 2.105 . S
O41 C27 1.268 . S
O42 Sc24 2.105 . S
O42 C26 1.268 . S
O43 Sc23 2.105 . S
O43 C28 1.268 . S
Sc44 O47 2.025 . S
Sc44 O54 2.105 . S
Sc44 O57 2.105 . S
Sc44 O60 2.105 . S
Sc44 O63 2.105 . S
Sc45 O47 2.025 . S
Sc45 O55 2.105 . S
Sc45 O59 2.105 . S
Sc45 O61 2.105 . S
Sc45 O65 2.105 . S
Sc46 O47 2.025 . S
Sc46 O56 2.105 . S
Sc46 O58 2.105 . S
Sc46 O62 2.105 . S
Sc46 O64 2.105 . S
O47 Sc44 2.025 . S
O47 Sc45 2.025 . S
O47 Sc46 2.025 . S
C48 O54 1.268 . S
C48 O64 1.268 . S
C49 O55 1.268 . S
C49 O63 1.268 . S
C50 O56 1.268 . S
C50 O65 1.268 . S
C51 O57 1.268 . S
C51 O61 1.268 . S
C52 O58 1.268 . S
C52 O60 1.268 . S
C53 O59 1.268 . S
C53 O62 1.268 . S
O54 Sc44 2.105 . S
O54 C48 1.268 . S
O55 Sc45 2.105 . S
O55 C49 1.268 . S
O56 Sc46 2.105 . S
O56 C50 1.268 . S
O57 Sc44 2.105 . S
O57 C51 1.268 . S
O58 Sc46 2.105 . S
O58 C52 1.268 . S
O59 Sc45 2.105 . S
O59 C53 1.268 . S
O60 Sc44 2.105 . S
O60 C52 1.268 . S
O61 Sc45 2.105 . S
O61 C51 1.268 . S
O62 Sc46 2.105 . S
O62 C53 1.268 . S
O63 Sc44 2.105 . S
O63 C49 1.268 . S
O64 Sc46 2.105 . S
O64 C48 1.268 . S
O65 Sc45 2.105 . S
O65 C50 1.268 . S
Sc66 O69 2.025 . S
Sc66 O76 2.105 . S
Sc66 O79 2.105 . S
Sc66 O82 2.105 . S
Sc66 O85 2.105 . S
Sc67 O69 2.025 . S
Sc67 O77 2.105 . S
Sc67 O81 2.105 . S
Sc67 O83 2.105 . S
Sc67 O87 2.105 . S
Sc68 O69 2.025 . S
Sc68 O78 2.105 . S
Sc68 O80 2.105 . S
Sc68 O84 2.105 . S
Sc68 O86 2.105 . S
O69 Sc66 2.025 . S
O69 Sc67 2.025 . S
O69 Sc68 2.025 . S
C70 O76 1.268 . S
C70 O86 1.268 . S
C71 O77 1.268 . S
C71 O85 1.268 . S
C72 O78 1.268 . S
C72 O87 1.268 . S
C73 O79 1.268 . S
C73 O83 1.268 . S
C74 O80 1.268 . S
C74 O82 1.268 . S
C75 O81 1.268 . S
C75 O84 1.268 . S
O76 Sc66 2.105 . S
O76 C70 1.268 . S
O77 Sc67 2.105 . S
O77 C71 1.268 . S
O78 Sc68 2.105 . S
O78 C72 1.268 . S
O79 Sc66 2.105 . S
O79 C73 1.268 . S
O80 Sc68 2.105 . S
O80 C74 1.268 . S
O81 Sc67 2.105 . S
O81 C75 1.268 . S
O82 Sc66 2.105 . S
O82 C74 1.268 . S
O83 Sc67 2.105 . S
O83 C73 1.268 . S
O84 Sc68 2.105 . S
O84 C75 1.268 . S
O85 Sc66 2.105 . S
O85 C71 1.268 . S
O86 Sc68 2.105 . S
O86 C70 1.268 . S
O87 Sc67 2.105 . S
O87 C72 1.268 . S
Sc88 O91 2.025 . S
Sc88 O98 2.105 . S
Sc88 O101 2.105 . S
Sc88 O104 2.105 . S
Sc88 O107 2.105 . S
Sc89 O91 2.025 . S
Sc89 O99 2.105 . S
Sc89 O103 2.105 . S
Sc89 O105 2.105 . S
Sc89 O109 2.105 . S
Sc90 O91 2.025 . S
Sc90 O100 2.105 . S
Sc90 O102 2.105 . S
Sc90 O106 2.105 . S
Sc90 O108 2.105 . S
O91 Sc88 2.025 . S
O91 Sc89 2.025 . S
O91 Sc90 2.025 . S
C92 O98 1.268 . S
C92 O108 1.268 . S
C93 O99 1.268 . S
C93 O107 1.268 . S
C94 O100 1.268 . S
C94 O109 1.268 . S
C95 O101 1.268 . S
C95 O105 1.268 . S
C96 O102 1.268 . S
C96 O104 1.268 . S
C97 O103 1.268 . S
C97 O106 1.268 . S
O98 Sc88 2.105 . S
O98 C92 1.268 . S
O99 Sc89 2.105 . S
O99 C93 1.268 . S
O100 Sc90 2.105 . S
O100 C94 1.268 . S
O101 Sc88 2.105 . S
O101 C95 1.268 . S
O102 Sc90 2.105 . S
O102 C96 1.268 . S
O103 Sc89 2.105 . S
O103 C97 1.268 . S
O104 Sc88 2.105 . S
O104 C96 1.268 . S
O105 Sc89 2.105 . S
O105 C95 1.268 . S
O106 Sc90 2.105 . S
O106 C97 1.268 . S
O107 Sc88 2.105 . S
O107 C93 1.268 . S
O108 Sc90 2.105 . S
O108 C92 1.268 . S
O109 Sc89 2.105 . S
O109 C94 1.268 . S
Sc110 O113 2.025 . S
Sc110 O120 2.105 . S
Sc110 O123 2.105 . S
Sc110 O126 2.105 . S
Sc110 O129 2.105 . S
Sc111 O113 2.025 . S
Sc111 O121 2.105 . S
Sc111 O125 2.105 . S
Sc111 O127 2.105 . S
Sc111 O131 2.105 . S
Sc112 O113 2.025 . S
Sc112 O122 2.105 . S
Sc112 O124 2.105 . S
Sc112 O128 2.105 . S
Sc112 O130 2.105 . S
O113 Sc110 2.025 . S
O113 Sc111 2.025 . S
O113 Sc112 2.025 . S
C114 O120 1.268 . S
C114 O130 1.268 . S
C115 O121 1.268 . S
C115 O129 1.268 . S
C116 O122 1.268 . S
C116 O131 1.268 . S
C117 O123 1.268 . S
C117 O127 1.268 . S
C118 O124 1.268 . S
C118 O126 1.268 . S
C119 O125 1.268 . S
C119 O128 1.268 . S
O120 Sc110 2.105 . S
O120 C114 1.268 . S
O121 Sc111 2.105 . S
O121 C115 1.268 . S
O122 Sc112 2.105 . S
O122 C116 1.268 . S
O123 Sc110 2.105 . S
O123 C117 1.268 . S
O124 Sc112 2.105 . S
O124 C118 1.268 . S
O125 Sc111 2.105 . S
O125 C119 1.268 . S
O126 Sc110 2.105 . S
O126 C118 1.268 . S
O127 Sc111 2.105 . S
O127 C117 1.268 . S
O128 Sc112 2.105 . S
O128 C119 1.268 . S
O129 Sc110 2.105 . S
O129 C115 1.268 . S
O130 Sc112 2.105 . S
O130 C114 1.268 . S
O131 Sc111 2.105 . S
O131 C116 1.268 . S
Sc132 O135 2.025 . S
Sc132 O142 2.105 . S
Sc132 O145 2.105 . S
Sc132 O148 2.105 . S
Sc132 O151 2.105 . S
Sc133 O135 2.025 . S
Sc133 O143 2.105 . S
Sc133 O147 2.105 . S
Sc133 O149 2.105 . S
Sc133 O153 2.105 . S
Sc134 O135 2.025 . S
Sc134 O144 2.105 . S
Sc134 O146 2.105 . S
Sc134 O150 2.105 . S
Sc134 O152 2.105 . S
O135 Sc132 2.025 . S
O135 Sc133 2.025 . S
O135 Sc134 2.025 . S
C136 O142 1.268 . S
C136 O152 1.268 . S
C137 O143 1.268 . S
C137 O151 1.268 . S
C138 O144 1.268 . S
C138 O153 1.268 . S
C139 O145 1.268 . S
C139 O149 1.268 . S
C140 O146 1.268 . S
C140 O148 1.268 . S
C141 O147 1.268 . S
C141 O150 1.268 . S
O142 Sc132 2.105 . S
O142 C136 1.268 . S
O143 Sc133 2.105 . S
O143 C137 1.268 . S
O144 Sc134 2.105 . S
O144 C138 1.268 . S
O145 Sc132 2.105 . S
O145 C139 1.268 . S
O146 Sc134 2.105 . S
O146 C140 1.268 . S
O147 Sc133 2.105 . S
O147 C141 1.268 . S
O148 Sc132 2.105 . S
O148 C140 1.268 . S
O149 Sc133 2.105 . S
O149 C139 1.268 . S
O150 Sc134 2.105 . S
O150 C141 1.268 . S
O151 Sc132 2.105 . S
O151 C137 1.268 . S
O152 Sc134 2.105 . S
O152 C136 1.268 . S
O153 Sc133 2.105 . S
O153 C138 1.268 . S
Sc154 O157 2.025 . S
Sc154 O164 2.105 . S
Sc154 O167 2.105 . S
Sc154 O170 2.105 . S
Sc154 O173 2.105 . S
Sc155 O157 2.025 . S
Sc155 O165 2.105 . S
Sc155 O169 2.105 . S
Sc155 O171 2.105 . S
Sc155 O175 2.105 . S
Sc156 O157 2.025 . S
Sc156 O166 2.105 . S
Sc156 O168 2.105 . S
Sc156 O172 2.105 . S
Sc156 O174 2.105 . S
O157 Sc154 2.025 . S
O157 Sc155 2.025 . S
O157 Sc156 2.025 . S
C158 O164 1.268 . S
C158 O174 1.268 . S
C159 O165 1.268 . S
C159 O173 1.268 . S
C160 O166 1.268 . S
C160 O175 1.268 . S
C161 O167 1.268 . S
C161 O171 1.268 . S
C162 O168 1.268 . S
C162 O170 1.268 . S
C163 O169 1.268 . S
C163 O172 1.268 . S
O164 Sc154 2.105 . S
O164 C158 1.268 . S
O165 Sc155 2.105 . S
O165 C159 1.268 . S
O166 Sc156 2.105 . S
O166 C160 1.268 . S
O167 Sc154 2.105 . S
O167 C161 1.268 . S
O168 Sc156 2.105 . S
O168 C162 1.268 . S
O169 Sc155 2.105 . S
O169 C163 1.268 . S
O170 Sc154 2.105 . S
O170 C162 1.268 . S
O171 Sc155 2.105 . S
O171 C161 1.268 . S
O172 Sc156 2.105 . S
O172 C163 1.268 . S
O173 Sc154 2.105 . S
O173 C159 1.268 . S
O174 Sc156 2.105 . S
O174 C158 1.268 . S
O175 Sc155 2.105 . S
O175 C160 1.268 . S
Sc176 O179 2.025 . S
Sc176 O186 2.105 . S
Sc176 O189 2.105 . S
Sc176 O192 2.105 . S
Sc176 O195 2.105 . S
Sc177 O179 2.025 . S
Sc177 O187 2.105 . S
Sc177 O191 2.105 . S
Sc177 O193 2.105 . S
Sc177 O197 2.105 . S
Sc178 O179 2.025 . S
Sc178 O188 2.105 . S
Sc178 O190 2.105 . S
Sc178 O194 2.105 . S
Sc178 O196 2.105 . S
O179 Sc176 2.025 . S
O179 Sc177 2.025 . S
O179 Sc178 2.025 . S
C180 O186 1.268 . S
C180 O196 1.268 . S
C181 O187 1.268 . S
C181 O195 1.268 . S
C182 O188 1.268 . S
C182 O197 1.268 . S
C183 O189 1.268 . S
C183 O193 1.268 . S
C184 O190 1.268 . S
C184 O192 1.268 . S
C185 O191 1.268 . S
C185 O194 1.268 . S
O186 Sc176 2.105 . S
O186 C180 1.268 . S
O187 Sc177 2.105 . S
O187 C181 1.268 . S
O188 Sc178 2.105 . S
O188 C182 1.268 . S
O189 Sc176 2.105 . S
O189 C183 1.268 . S
O190 Sc178 2.105 . S
O190 C184 1.268 . S
O191 Sc177 2.105 . S
O191 C185 1.268 . S
O192 Sc176 2.105 . S
O192 C184 1.268 . S
O193 Sc177 2.105 . S
O193 C183 1.268 . S
O194 Sc178 2.105 . S
O194 C185 1.268 . S
O195 Sc176 2.105 . S
O195 C181 1.268 . S
O196 Sc178 2.105 . S
O196 C180 1.268 . S
O197 Sc177 2.105 . S
O197 C182 1.268 . S
Sc198 O201 2.025 . S
Sc198 O208 2.105 . S
Sc198 O211 2.105 . S
Sc198 O214 2.105 . S
Sc198 O217 2.105 . S
Sc199 O201 2.025 . S
Sc199 O209 2.105 . S
Sc199 O213 2.105 . S
Sc199 O215 2.105 . S
Sc199 O219 2.105 . S
Sc200 O201 2.025 . S
Sc200 O210 2.105 . S
Sc200 O212 2.105 . S
Sc200 O216 2.105 . S
Sc200 O218 2.105 . S
O201 Sc198 2.025 . S
O201 Sc199 2.025 . S
O201 Sc200 2.025 . S
C202 O208 1.268 . S
C202 O218 1.268 . S
C203 O209 1.268 . S
C203 O217 1.268 . S
C204 O210 1.268 . S
C204 O219 1.268 . S
C205 O211 1.268 . S
C205 O215 1.268 . S
C206 O212 1.268 . S
C206 O214 1.268 . S
C207 O213 1.268 . S
C207 O216 1.268 . S
O208 Sc198 2.105 . S
O208 C202 1.268 . S
O209 Sc199 2.105 . S
O209 C203 1.268 . S
O210 Sc200 2.105 . S
O210 C204 1.268 . S
O211 Sc198 2.105 . S
O211 C205 1.268 . S
O212 Sc200 2.105 . S
O212 C206 1.268 . S
O213 Sc199 2.105 . S
O213 C207 1.268 . S
O214 Sc198 2.105 . S
O214 C206 1.268 . S
O215 Sc199 2.105 . S
O215 C205 1.268 . S
O216 Sc200 2.105 . S
O216 C207 1.268 . S
O217 Sc198 2.105 . S
O217 C203 1.268 . S
O218 Sc200 2.105 . S
O218 C202 1.268 . S
O219 Sc199 2.105 . S
O219 C204 1.268 . S
Sc220 O223 2.025 . S
Sc220 O230 2.105 . S
Sc220 O233 2.105 . S
Sc220 O236 2.105 . S
Sc220 O239 2.105 . S
Sc221 O223 2.025 . S
Sc221 O231 2.105 . S
Sc221 O235 2.105 . S
Sc221 O237 2.105 . S
Sc221 O241 2.105 . S
Sc222 O223 2.025 . S
Sc222 O232 2.105 . S
Sc222 O234 2.105 . S
Sc222 O238 2.105 . S
Sc222 O240 2.105 . S
O223 Sc220 2.025 . S
O223 Sc221 2.025 . S
O223 Sc222 2.025 . S
C224 O230 1.268 . S
C224 O240 1.268 . S
C225 O231 1.268 . S
C225 O239 1.268 . S
C226 O232 1.268 . S
C226 O241 1.268 . S
C227 O233 1.268 . S
C227 O237 1.268 . S
C228 O234 1.268 . S
C228 O236 1.268 . S
C229 O235 1.268 . S
C229 O238 1.268 . S
O230 Sc220 2.105 . S
O230 C224 1.268 . S
O231 Sc221 2.105 . S
O231 C225 1.268 . S
O232 Sc222 2.105 . S
O232 C226 1.268 . S
O233 Sc220 2.105 . S
O233 C227 1.268 . S
O234 Sc222 2.105 . S
O234 C228 1.268 . S
O235 Sc221 2.105 . S
O235 C229 1.268 . S
O236 Sc220 2.105 . S
O236 C228 1.268 . S
O237 Sc221 2.105 . S
O237 C227 1.268 . S
O238 Sc222 2.105 . S
O238 C229 1.268 . S
O239 Sc220 2.105 . S
O239 C225 1.268 . S
O240 Sc222 2.105 . S
O240 C224 1.268 . S
O241 Sc221 2.105 . S
O241 C226 1.268 . S
Sc242 O245 2.025 . S
Sc242 O252 2.105 . S
Sc242 O255 2.105 . S
Sc242 O258 2.105 . S
Sc242 O261 2.105 . S
Sc243 O245 2.025 . S
Sc243 O253 2.105 . S
Sc243 O257 2.105 . S
Sc243 O259 2.105 . S
Sc243 O263 2.105 . S
Sc244 O245 2.025 . S
Sc244 O254 2.105 . S
Sc244 O256 2.105 . S
Sc244 O260 2.105 . S
Sc244 O262 2.105 . S
O245 Sc242 2.025 . S
O245 Sc243 2.025 . S
O245 Sc244 2.025 . S
C246 O252 1.268 . S
C246 O262 1.268 . S
C247 O253 1.268 . S
C247 O261 1.268 . S
C248 O254 1.268 . S
C248 O263 1.268 . S
C249 O255 1.268 . S
C249 O259 1.268 . S
C250 O256 1.268 . S
C250 O258 1.268 . S
C251 O257 1.268 . S
C251 O260 1.268 . S
O252 Sc242 2.105 . S
O252 C246 1.268 . S
O253 Sc243 2.105 . S
O253 C247 1.268 . S
O254 Sc244 2.105 . S
O254 C248 1.268 . S
O255 Sc242 2.105 . S
O255 C249 1.268 . S
O256 Sc244 2.105 . S
O256 C250 1.268 . S
O257 Sc243 2.105 . S
O257 C251 1.268 . S
O258 Sc242 2.105 . S
O258 C250 1.268 . S
O259 Sc243 2.105 . S
O259 C249 1.268 . S
O260 Sc244 2.105 . S
O260 C251 1.268 . S
O261 Sc242 2.105 . S
O261 C247 1.268 . S
O262 Sc244 2.105 . S
O262 C246 1.268 . S
O263 Sc243 2.105 . S
O263 C248 1.268 . S
Sc264 O267 2.025 . S
Sc264 O274 2.105 . S
Sc264 O277 2.105 . S
Sc264 O280 2.105 . S
Sc264 O283 2.105 . S
Sc265 O267 2.025 . S
Sc265 O275 2.105 . S
Sc265 O279 2.105 . S
Sc265 O281 2.105 . S
Sc265 O285 2.105 . S
Sc266 O267 2.025 . S
Sc266 O276 2.105 . S
Sc266 O278 2.105 . S
Sc266 O282 2.105 . S
Sc266 O284 2.105 . S
O267 Sc264 2.025 . S
O267 Sc265 2.025 . S
O267 Sc266 2.025 . S
C268 O274 1.268 . S
C268 O284 1.268 . S
C269 O275 1.268 . S
C269 O283 1.268 . S
C270 O276 1.268 . S
C270 O285 1.268 . S
C271 O277 1.268 . S
C271 O281 1.268 . S
C272 O278 1.268 . S
C272 O280 1.268 . S
C273 O279 1.268 . S
C273 O282 1.268 . S
O274 Sc264 2.105 . S
O274 C268 1.268 . S
O275 Sc265 2.105 . S
O275 C269 1.268 . S
O276 Sc266 2.105 . S
O276 C270 1.268 . S
O277 Sc264 2.105 . S
O277 C271 1.268 . S
O278 Sc266 2.105 . S
O278 C272 1.268 . S
O279 Sc265 2.105 . S
O279 C273 1.268 . S
O280 Sc264 2.105 . S
O280 C272 1.268 . S
O281 Sc265 2.105 . S
O281 C271 1.268 . S
O282 Sc266 2.105 . S
O282 C273 1.268 . S
O283 Sc264 2.105 . S
O283 C269 1.268 . S
O284 Sc266 2.105 . S
O284 C268 1.268 . S
O285 Sc265 2.105 . S
O285 C270 1.268 . S
Sc286 O289 2.025 . S
Sc286 O296 2.105 . S
Sc286 O299 2.105 . S
Sc286 O302 2.105 . S
Sc286 O305 2.105 . S
Sc287 O289 2.025 . S
Sc287 O297 2.105 . S
Sc287 O301 2.105 . S
Sc287 O303 2.105 . S
Sc287 O307 2.105 . S
Sc288 O289 2.025 . S
Sc288 O298 2.105 . S
Sc288 O300 2.105 . S
Sc288 O304 2.105 . S
Sc288 O306 2.105 . S
O289 Sc286 2.025 . S
O289 Sc287 2.025 . S
O289 Sc288 2.025 . S
C290 O296 1.268 . S
C290 O306 1.268 . S
C291 O297 1.268 . S
C291 O305 1.268 . S
C292 O298 1.268 . S
C292 O307 1.268 . S
C293 O299 1.268 . S
C293 O303 1.268 . S
C294 O300 1.268 . S
C294 O302 1.268 . S
C295 O301 1.268 . S
C295 O304 1.268 . S
O296 Sc286 2.105 . S
O296 C290 1.268 . S
O297 Sc287 2.105 . S
O297 C291 1.268 . S
O298 Sc288 2.105 . S
O298 C292 1.268 . S
O299 Sc286 2.105 . S
O299 C293 1.268 . S
O300 Sc288 2.105 . S
O300 C294 1.268 . S
O301 Sc287 2.105 . S
O301 C295 1.268 . S
O302 Sc286 2.105 . S
O302 C294 1.268 . S
O303 Sc287 2.105 . S
O303 C293 1.268 . S
O304 Sc288 2.105 . S
O304 C295 1.268 . S
O305 Sc286 2.105 . S
O305 C291 1.268 . S
O306 Sc288 2.105 . S
O306 C290 1.268 . S
O307 Sc287 2.105 . S
O307 C292 1.268 . S
Sc308 O311 2.025 . S
Sc308 O318 2.105 . S
Sc308 O321 2.105 . S
Sc308 O324 2.105 . S
Sc308 O327 2.105 . S
Sc309 O311 2.025 . S
Sc309 O319 2.105 . S
Sc309 O323 2.105 . S
Sc309 O325 2.105 . S
Sc309 O329 2.105 . S
Sc310 O311 2.025 . S
Sc310 O320 2.105 . S
Sc310 O322 2.105 . S
Sc310 O326 2.105 . S
Sc310 O328 2.105 . S
O311 Sc308 2.025 . S
O311 Sc309 2.025 . S
O311 Sc310 2.025 . S
C312 O318 1.268 . S
C312 O328 1.268 . S
C313 O319 1.268 . S
C313 O327 1.268 . S
C314 O320 1.268 . S
C314 O329 1.268 . S
C315 O321 1.268 . S
C315 O325 1.268 . S
C316 O322 1.268 . S
C316 O324 1.268 . S
C317 O323 1.268 . S
C317 O326 1.268 . S
O318 Sc308 2.105 . S
O318 C312 1.268 . S
O319 Sc309 2.105 . S
O319 C313 1.268 . S
O320 Sc310 2.105 . S
O320 C314 1.268 . S
O321 Sc308 2.105 . S
O321 C315 1.268 . S
O322 Sc310 2.105 . S
O322 C316 1.268 . S
O323 Sc309 2.105 . S
O323 C317 1.268 . S
O324 Sc308 2.105 . S
O324 C316 1.268 . S
O325 Sc309 2.105 . S
O325 C315 1.268 . S
O326 Sc310 2.105 . S
O326 C317 1.268 . S
O327 Sc308 2.105 . S
O327 C313 1.268 . S
O328 Sc310 2.105 . S
O328 C312 1.268 . S
O329 Sc309 2.105 . S
O329 C314 1.268 . S
Sc330 O333 2.025 . S
Sc330 O340 2.105 . S
Sc330 O343 2.105 . S
Sc330 O346 2.105 . S
Sc330 O349 2.105 . S
Sc331 O333 2.025 . S
Sc331 O341 2.105 . S
Sc331 O345 2.105 . S
Sc331 O347 2.105 . S
Sc331 O351 2.105 . S
Sc332 O333 2.025 . S
Sc332 O342 2.105 . S
Sc332 O344 2.105 . S
Sc332 O348 2.105 . S
Sc332 O350 2.105 . S
O333 Sc330 2.025 . S
O333 Sc331 2.025 . S
O333 Sc332 2.025 . S
C334 O340 1.268 . S
C334 O350 1.268 . S
C335 O341 1.268 . S
C335 O349 1.268 . S
C336 O342 1.268 . S
C336 O351 1.268 . S
C337 O343 1.268 . S
C337 O347 1.268 . S
C338 O344 1.268 . S
C338 O346 1.268 . S
C339 O345 1.268 . S
C339 O348 1.268 . S
O340 Sc330 2.105 . S
O340 C334 1.268 . S
O341 Sc331 2.105 . S
O341 C335 1.268 . S
O342 Sc332 2.105 . S
O342 C336 1.268 . S
O343 Sc330 2.105 . S
O343 C337 1.268 . S
O344 Sc332 2.105 . S
O344 C338 1.268 . S
O345 Sc331 2.105 . S
O345 C339 1.268 . S
O346 Sc330 2.105 . S
O346 C338 1.268 . S
O347 Sc331 2.105 . S
O347 C337 1.268 . S
O348 Sc332 2.105 . S
O348 C339 1.268 . S
O349 Sc330 2.105 . S
O349 C335 1.268 . S
O350 Sc332 2.105 . S
O350 C334 1.268 . S
O351 Sc331 2.105 . S
O351 C336 1.268 . S
H352 C358 0.930 . S
H353 C362 0.930 . S
H354 C367 0.929 . S
H355 C365 0.929 . S
H356 C360 0.929 . S
H357 C366 0.929 . S
C358 H352 0.930 . S
C358 C359 1.367 . S
C358 C366 1.378 . S
C359 C358 1.367 . S
C359 C367 1.433 . S
C360 H356 0.929 . S
C360 C362 1.378 . S
C360 C364 1.350 . S
C361 C364 1.463 . S
C361 C366 1.350 . S
C361 N369 1.427 . S
C362 H353 0.930 . S
C362 C360 1.378 . S
C362 C363 1.367 . S
C363 C362 1.367 . S
C363 C365 1.433 . S
C364 C360 1.350 . S
C364 C361 1.463 . S
C364 N368 1.427 . S
C365 H355 0.929 . S
C365 C363 1.433 . S
C365 N368 1.384 . S
C366 H357 0.929 . S
C366 C358 1.378 . S
C366 C361 1.350 . S
C367 H354 0.929 . S
C367 C359 1.433 . S
C367 N369 1.384 . S
N368 C364 1.427 . S
N368 C365 1.384 . S
N369 C361 1.427 . S
N369 C367 1.384 . S
H370 C376 0.930 . S
H371 C380 0.930 . S
H372 C385 0.929 . S
H373 C383 0.929 . S
H374 C378 0.929 . S
H375 C384 0.929 . S
C376 H370 0.930 . S
C376 C377 1.367 . S
C376 C384 1.378 . S
C377 C376 1.367 . S
C377 C385 1.433 . S
C378 H374 0.929 . S
C378 C380 1.378 . S
C378 C382 1.350 . S
C379 C382 1.463 . S
C379 C384 1.350 . S
C379 N387 1.427 . S
C380 H371 0.930 . S
C380 C378 1.378 . S
C380 C381 1.367 . S
C381 C380 1.367 . S
C381 C383 1.433 . S
C382 C378 1.350 . S
C382 C379 1.463 . S
C382 N386 1.427 . S
C383 H373 0.929 . S
C383 C381 1.433 . S
C383 N386 1.384 . S
C384 H375 0.929 . S
C384 C376 1.378 . S
C384 C379 1.350 . S
C385 H372 0.929 . S
C385 C377 1.433 . S
C385 N387 1.384 . S
N386 C382 1.427 . S
N386 C383 1.384 . S
N387 C379 1.427 . S
N387 C385 1.384 . S
H388 C394 0.930 . S
H389 C398 0.930 . S
H390 C403 0.929 . S
H391 C401 0.929 . S
H392 C396 0.929 . S
H393 C402 0.929 . S
C394 H388 0.930 . S
C394 C395 1.367 . S
C394 C402 1.378 . S
C395 C394 1.367 . S
C395 C403 1.433 . S
C396 H392 0.929 . S
C396 C398 1.378 . S
C396 C400 1.350 . S
C397 C400 1.463 . S
C397 C402 1.350 . S
C397 N405 1.427 . S
C398 H389 0.930 . S
C398 C396 1.378 . S
C398 C399 1.367 . S
C399 C398 1.367 . S
C399 C401 1.433 . S
C400 C396 1.350 . S
C400 C397 1.463 . S
C400 N404 1.427 . S
C401 H391 0.929 . S
C401 C399 1.433 . S
C401 N404 1.384 . S
C402 H393 0.929 . S
C402 C394 1.378 . S
C402 C397 1.350 . S
C403 H390 0.929 . S
C403 C395 1.433 . S
C403 N405 1.384 . S
N404 C400 1.427 . S
N404 C401 1.384 . S
N405 C397 1.427 . S
N405 C403 1.384 . S
H406 C412 0.930 . S
H407 C416 0.930 . S
H408 C421 0.929 . S
H409 C419 0.929 . S
H410 C414 0.929 . S
H411 C420 0.929 . S
C412 H406 0.930 . S
C412 C413 1.367 . S
C412 C420 1.378 . S
C413 C412 1.367 . S
C413 C421 1.433 . S
C414 H410 0.929 . S
C414 C416 1.378 . S
C414 C418 1.350 . S
C415 C418 1.463 . S
C415 C420 1.350 . S
C415 N423 1.427 . S
C416 H407 0.930 . S
C416 C414 1.378 . S
C416 C417 1.367 . S
C417 C416 1.367 . S
C417 C419 1.433 . S
C418 C414 1.350 . S
C418 C415 1.463 . S
C418 N422 1.427 . S
C419 H409 0.929 . S
C419 C417 1.433 . S
C419 N422 1.384 . S
C420 H411 0.929 . S
C420 C412 1.378 . S
C420 C415 1.350 . S
C421 H408 0.929 . S
C421 C413 1.433 . S
C421 N423 1.384 . S
N422 C418 1.427 . S
N422 C419 1.384 . S
N423 C415 1.427 . S
N423 C421 1.384 . S
H424 C430 0.930 . S
H425 C434 0.930 . S
H426 C439 0.929 . S
H427 C437 0.929 . S
H428 C432 0.929 . S
H429 C438 0.929 . S
C430 H424 0.930 . S
C430 C431 1.367 . S
C430 C438 1.378 . S
C431 C430 1.367 . S
C431 C439 1.433 . S
C432 H428 0.929 . S
C432 C434 1.378 . S
C432 C436 1.350 . S
C433 C436 1.463 . S
C433 C438 1.350 . S
C433 N441 1.427 . S
C434 H425 0.930 . S
C434 C432 1.378 . S
C434 C435 1.367 . S
C435 C434 1.367 . S
C435 C437 1.433 . S
C436 C432 1.350 . S
C436 C433 1.463 . S
C436 N440 1.427 . S
C437 H427 0.929 . S
C437 C435 1.433 . S
C437 N440 1.384 . S
C438 H429 0.929 . S
C438 C430 1.378 . S
C438 C433 1.350 . S
C439 H426 0.929 . S
C439 C431 1.433 . S
C439 N441 1.384 . S
N440 C436 1.427 . S
N440 C437 1.384 . S
N441 C433 1.427 . S
N441 C439 1.384 . S
H442 C448 0.930 . S
H443 C452 0.930 . S
H444 C457 0.929 . S
H445 C455 0.929 . S
H446 C450 0.929 . S
H447 C456 0.929 . S
C448 H442 0.930 . S
C448 C449 1.367 . S
C448 C456 1.378 . S
C449 C448 1.367 . S
C449 C457 1.433 . S
C450 H446 0.929 . S
C450 C452 1.378 . S
C450 C454 1.350 . S
C451 C454 1.463 . S
C451 C456 1.350 . S
C451 N459 1.427 . S
C452 H443 0.930 . S
C452 C450 1.378 . S
C452 C453 1.367 . S
C453 C452 1.367 . S
C453 C455 1.433 . S
C454 C450 1.350 . S
C454 C451 1.463 . S
C454 N458 1.427 . S
C455 H445 0.929 . S
C455 C453 1.433 . S
C455 N458 1.384 . S
C456 H447 0.929 . S
C456 C448 1.378 . S
C456 C451 1.350 . S
C457 H444 0.929 . S
C457 C449 1.433 . S
C457 N459 1.384 . S
N458 C454 1.427 . S
N458 C455 1.384 . S
N459 C451 1.427 . S
N459 C457 1.384 . S
H460 C466 0.930 . S
H461 C470 0.930 . S
H462 C475 0.929 . S
H463 C473 0.929 . S
H464 C468 0.929 . S
H465 C474 0.929 . S
C466 H460 0.930 . S
C466 C467 1.367 . S
C466 C474 1.378 . S
C467 C466 1.367 . S
C467 C475 1.433 . S
C468 H464 0.929 . S
C468 C470 1.378 . S
C468 C472 1.350 . S
C469 C472 1.463 . S
C469 C474 1.350 . S
C469 N477 1.427 . S
C470 H461 0.930 . S
C470 C468 1.378 . S
C470 C471 1.367 . S
C471 C470 1.367 . S
C471 C473 1.433 . S
C472 C468 1.350 . S
C472 C469 1.463 . S
C472 N476 1.427 . S
C473 H463 0.929 . S
C473 C471 1.433 . S
C473 N476 1.384 . S
C474 H465 0.929 . S
C474 C466 1.378 . S
C474 C469 1.350 . S
C475 H462 0.929 . S
C475 C467 1.433 . S
C475 N477 1.384 . S
N476 C472 1.427 . S
N476 C473 1.384 . S
N477 C469 1.427 . S
N477 C475 1.384 . S
H478 C484 0.930 . S
H479 C488 0.930 . S
H480 C493 0.929 . S
H481 C491 0.929 . S
H482 C486 0.929 . S
H483 C492 0.929 . S
C484 H478 0.930 . S
C484 C485 1.367 . S
C484 C492 1.378 . S
C485 C484 1.367 . S
C485 C493 1.433 . S
C486 H482 0.929 . S
C486 C488 1.378 . S
C486 C490 1.350 . S
C487 C490 1.463 . S
C487 C492 1.350 . S
C487 N495 1.427 . S
C488 H479 0.930 . S
C488 C486 1.378 . S
C488 C489 1.367 . S
C489 C488 1.367 . S
C489 C491 1.433 . S
C490 C486 1.350 . S
C490 C487 1.463 . S
C490 N494 1.427 . S
C491 H481 0.929 . S
C491 C489 1.433 . S
C491 N494 1.384 . S
C492 H483 0.929 . S
C492 C484 1.378 . S
C492 C487 1.350 . S
C493 H480 0.929 . S
C493 C485 1.433 . S
C493 N495 1.384 . S
N494 C490 1.427 . S
N494 C491 1.384 . S
N495 C487 1.427 . S
N495 C493 1.384 . S
H496 C502 0.930 . S
H497 C506 0.930 . S
H498 C511 0.929 . S
H499 C509 0.929 . S
H500 C504 0.929 . S
H501 C510 0.929 . S
C502 H496 0.930 . S
C502 C503 1.367 . S
C502 C510 1.378 . S
C503 C502 1.367 . S
C503 C511 1.433 . S
C504 H500 0.929 . S
C504 C506 1.378 . S
C504 C508 1.350 . S
C505 C508 1.463 . S
C505 C510 1.350 . S
C505 N513 1.427 . S
C506 H497 0.930 . S
C506 C504 1.378 . S
C506 C507 1.367 . S
C507 C506 1.367 . S
C507 C509 1.433 . S
C508 C504 1.350 . S
C508 C505 1.463 . S
C508 N512 1.427 . S
C509 H499 0.929 . S
C509 C507 1.433 . S
C509 N512 1.384 . S
C510 H501 0.929 . S
C510 C502 1.378 . S
C510 C505 1.350 . S
C511 H498 0.929 . S
C511 C503 1.433 . S
C511 N513 1.384 . S
N512 C508 1.427 . S
N512 C509 1.384 . S
N513 C505 1.427 . S
N513 C511 1.384 . S
H514 C520 0.930 . S
H515 C524 0.930 . S
H516 C529 0.929 . S
H517 C527 0.929 . S
H518 C522 0.929 . S
H519 C528 0.929 . S
C520 H514 0.930 . S
C520 C521 1.367 . S
C520 C528 1.378 . S
C521 C520 1.367 . S
C521 C529 1.433 . S
C522 H518 0.929 . S
C522 C524 1.378 . S
C522 C526 1.350 . S
C523 C526 1.463 . S
C523 C528 1.350 . S
C523 N531 1.427 . S
C524 H515 0.930 . S
C524 C522 1.378 . S
C524 C525 1.367 . S
C525 C524 1.367 . S
C525 C527 1.433 . S
C526 C522 1.350 . S
C526 C523 1.463 . S
C526 N530 1.427 . S
C527 H517 0.929 . S
C527 C525 1.433 . S
C527 N530 1.384 . S
C528 H519 0.929 . S
C528 C520 1.378 . S
C528 C523 1.350 . S
C529 H516 0.929 . S
C529 C521 1.433 . S
C529 N531 1.384 . S
N530 C526 1.427 . S
N530 C527 1.384 . S
N531 C523 1.427 . S
N531 C529 1.384 . S
H532 C538 0.930 . S
H533 C542 0.930 . S
H534 C547 0.929 . S
H535 C545 0.929 . S
H536 C540 0.929 . S
H537 C546 0.929 . S
C538 H532 0.930 . S
C538 C539 1.367 . S
C538 C546 1.378 . S
C539 C538 1.367 . S
C539 C547 1.433 . S
C540 H536 0.929 . S
C540 C542 1.378 . S
C540 C544 1.350 . S
C541 C544 1.463 . S
C541 C546 1.350 . S
C541 N549 1.427 . S
C542 H533 0.930 . S
C542 C540 1.378 . S
C542 C543 1.367 . S
C543 C542 1.367 . S
C543 C545 1.433 . S
C544 C540 1.350 . S
C544 C541 1.463 . S
C544 N548 1.427 . S
C545 H535 0.929 . S
C545 C543 1.433 . S
C545 N548 1.384 . S
C546 H537 0.929 . S
C546 C538 1.378 . S
C546 C541 1.350 . S
C547 H534 0.929 . S
C547 C539 1.433 . S
C547 N549 1.384 . S
N548 C544 1.427 . S
N548 C545 1.384 . S
N549 C541 1.427 . S
N549 C547 1.384 . S
H550 C556 0.930 . S
H551 C560 0.930 . S
H552 C565 0.929 . S
H553 C563 0.929 . S
H554 C558 0.929 . S
H555 C564 0.929 . S
C556 H550 0.930 . S
C556 C557 1.367 . S
C556 C564 1.378 . S
C557 C556 1.367 . S
C557 C565 1.433 . S
C558 H554 0.929 . S
C558 C560 1.378 . S
C558 C562 1.350 . S
C559 C562 1.463 . S
C559 C564 1.350 . S
C559 N567 1.427 . S
C560 H551 0.930 . S
C560 C558 1.378 . S
C560 C561 1.367 . S
C561 C560 1.367 . S
C561 C563 1.433 . S
C562 C558 1.350 . S
C562 C559 1.463 . S
C562 N566 1.427 . S
C563 H553 0.929 . S
C563 C561 1.433 . S
C563 N566 1.384 . S
C564 H555 0.929 . S
C564 C556 1.378 . S
C564 C559 1.350 . S
C565 H552 0.929 . S
C565 C557 1.433 . S
C565 N567 1.384 . S
N566 C562 1.427 . S
N566 C563 1.384 . S
N567 C559 1.427 . S
N567 C565 1.384 . S
H568 C574 0.930 . S
H569 C578 0.930 . S
H570 C583 0.929 . S
H571 C581 0.929 . S
H572 C576 0.929 . S
H573 C582 0.929 . S
C574 H568 0.930 . S
C574 C575 1.367 . S
C574 C582 1.378 . S
C575 C574 1.367 . S
C575 C583 1.433 . S
C576 H572 0.929 . S
C576 C578 1.378 . S
C576 C580 1.350 . S
C577 C580 1.463 . S
C577 C582 1.350 . S
C577 N585 1.427 . S
C578 H569 0.930 . S
C578 C576 1.378 . S
C578 C579 1.367 . S
C579 C578 1.367 . S
C579 C581 1.433 . S
C580 C576 1.350 . S
C580 C577 1.463 . S
C580 N584 1.427 . S
C581 H571 0.929 . S
C581 C579 1.433 . S
C581 N584 1.384 . S
C582 H573 0.929 . S
C582 C574 1.378 . S
C582 C577 1.350 . S
C583 H570 0.929 . S
C583 C575 1.433 . S
C583 N585 1.384 . S
N584 C580 1.427 . S
N584 C581 1.384 . S
N585 C577 1.427 . S
N585 C583 1.384 . S
H586 C592 0.930 . S
H587 C596 0.930 . S
H588 C601 0.929 . S
H589 C599 0.929 . S
H590 C594 0.929 . S
H591 C600 0.929 . S
C592 H586 0.930 . S
C592 C593 1.367 . S
C592 C600 1.378 . S
C593 C592 1.367 . S
C593 C601 1.433 . S
C594 H590 0.929 . S
C594 C596 1.378 . S
C594 C598 1.350 . S
C595 C598 1.463 . S
C595 C600 1.350 . S
C595 N603 1.427 . S
C596 H587 0.930 . S
C596 C594 1.378 . S
C596 C597 1.367 . S
C597 C596 1.367 . S
C597 C599 1.433 . S
C598 C594 1.350 . S
C598 C595 1.463 . S
C598 N602 1.427 . S
C599 H589 0.929 . S
C599 C597 1.433 . S
C599 N602 1.384 . S
C600 H591 0.929 . S
C600 C592 1.378 . S
C600 C595 1.350 . S
C601 H588 0.929 . S
C601 C593 1.433 . S
C601 N603 1.384 . S
N602 C598 1.427 . S
N602 C599 1.384 . S
N603 C595 1.427 . S
N603 C601 1.384 . S
H604 C610 0.930 . S
H605 C614 0.930 . S
H606 C619 0.929 . S
H607 C617 0.929 . S
H608 C612 0.929 . S
H609 C618 0.929 . S
C610 H604 0.930 . S
C610 C611 1.367 . S
C610 C618 1.378 . S
C611 C610 1.367 . S
C611 C619 1.433 . S
C612 H608 0.929 . S
C612 C614 1.378 . S
C612 C616 1.350 . S
C613 C616 1.463 . S
C613 C618 1.350 . S
C613 N621 1.427 . S
C614 H605 0.930 . S
C614 C612 1.378 . S
C614 C615 1.367 . S
C615 C614 1.367 . S
C615 C617 1.433 . S
C616 C612 1.350 . S
C616 C613 1.463 . S
C616 N620 1.427 . S
C617 H607 0.929 . S
C617 C615 1.433 . S
C617 N620 1.384 . S
C618 H609 0.929 . S
C618 C610 1.378 . S
C618 C613 1.350 . S
C619 H606 0.929 . S
C619 C611 1.433 . S
C619 N621 1.384 . S
N620 C616 1.427 . S
N620 C617 1.384 . S
N621 C613 1.427 . S
N621 C619 1.384 . S
H622 C628 0.930 . S
H623 C632 0.930 . S
H624 C637 0.929 . S
H625 C635 0.929 . S
H626 C630 0.929 . S
H627 C636 0.929 . S
C628 H622 0.930 . S
C628 C629 1.367 . S
C628 C636 1.378 . S
C629 C628 1.367 . S
C629 C637 1.433 . S
C630 H626 0.929 . S
C630 C632 1.378 . S
C630 C634 1.350 . S
C631 C634 1.463 . S
C631 C636 1.350 . S
C631 N639 1.427 . S
C632 H623 0.930 . S
C632 C630 1.378 . S
C632 C633 1.367 . S
C633 C632 1.367 . S
C633 C635 1.433 . S
C634 C630 1.350 . S
C634 C631 1.463 . S
C634 N638 1.427 . S
C635 H625 0.929 . S
C635 C633 1.433 . S
C635 N638 1.384 . S
C636 H627 0.929 . S
C636 C628 1.378 . S
C636 C631 1.350 . S
C637 H624 0.929 . S
C637 C629 1.433 . S
C637 N639 1.384 . S
N638 C634 1.427 . S
N638 C635 1.384 . S
N639 C631 1.427 . S
N639 C637 1.384 . S
H640 C646 0.930 . S
H641 C650 0.930 . S
H642 C655 0.929 . S
H643 C653 0.929 . S
H644 C648 0.929 . S
H645 C654 0.929 . S
C646 H640 0.930 . S
C646 C647 1.367 . S
C646 C654 1.378 1_554 S
C647 C646 1.367 . S
C647 C655 1.433 . S
C648 H644 0.929 . S
C648 C650 1.378 . S
C648 C652 1.350 . S
C649 C652 1.463 . S
C649 C654 1.350 . S
C649 N657 1.427 1_556 S
C650 H641 0.930 . S
C650 C648 1.378 . S
C650 C651 1.367 . S
C651 C650 1.367 . S
C651 C653 1.433 . S
C652 C648 1.350 . S
C652 C649 1.463 . S
C652 N656 1.427 . S
C653 H643 0.929 . S
C653 C651 1.433 . S
C653 N656 1.384 . S
C654 H645 0.929 . S
C654 C646 1.378 1_556 S
C654 C649 1.350 . S
C655 H642 0.929 . S
C655 C647 1.433 . S
C655 N657 1.384 . S
N656 C652 1.427 . S
N656 C653 1.384 . S
N657 C649 1.427 1_554 S
N657 C655 1.384 . S
H658 C664 0.930 . S
H659 C668 0.930 . S
H660 C673 0.929 . S
H661 C671 0.929 . S
H662 C666 0.929 . S
H663 C672 0.929 . S
C664 H658 0.930 . S
C664 C665 1.367 . S
C664 C672 1.378 . S
C665 C664 1.367 . S
C665 C673 1.433 . S
C666 H662 0.929 . S
C666 C668 1.378 . S
C666 C670 1.350 . S
C667 C670 1.463 . S
C667 C672 1.350 . S
C667 N675 1.427 . S
C668 H659 0.930 . S
C668 C666 1.378 . S
C668 C669 1.367 . S
C669 C668 1.367 . S
C669 C671 1.433 . S
C670 C666 1.350 . S
C670 C667 1.463 . S
C670 N674 1.427 . S
C671 H661 0.929 . S
C671 C669 1.433 . S
C671 N674 1.384 . S
C672 H663 0.929 . S
C672 C664 1.378 . S
C672 C667 1.350 . S
C673 H660 0.929 . S
C673 C665 1.433 . S
C673 N675 1.384 . S
N674 C670 1.427 . S
N674 C671 1.384 . S
N675 C667 1.427 . S
N675 C673 1.384 . S
H676 C682 0.930 . S
H677 C686 0.930 . S
H678 C691 0.929 . S
H679 C689 0.929 . S
H680 C684 0.929 . S
H681 C690 0.929 . S
C682 H676 0.930 . S
C682 C683 1.367 . S
C682 C690 1.378 1_554 S
C683 C682 1.367 . S
C683 C691 1.433 . S
C684 H680 0.929 . S
C684 C686 1.378 . S
C684 C688 1.350 . S
C685 C688 1.463 . S
C685 C690 1.350 . S
C685 N693 1.427 1_556 S
C686 H677 0.930 . S
C686 C684 1.378 . S
C686 C687 1.367 . S
C687 C686 1.367 . S
C687 C689 1.433 . S
C688 C684 1.350 . S
C688 C685 1.463 . S
C688 N692 1.427 . S
C689 H679 0.929 . S
C689 C687 1.433 . S
C689 N692 1.384 . S
C690 H681 0.929 . S
C690 C682 1.378 1_556 S
C690 C685 1.350 . S
C691 H678 0.929 . S
C691 C683 1.433 . S
C691 N693 1.384 . S
N692 C688 1.427 . S
N692 C689 1.384 . S
N693 C685 1.427 1_554 S
N693 C691 1.384 . S
H694 C700 0.930 . S
H695 C704 0.930 . S
H696 C709 0.929 . S
H697 C707 0.929 . S
H698 C702 0.929 . S
H699 C708 0.929 . S
C700 H694 0.930 . S
C700 C701 1.367 . S
C700 C708 1.378 . S
C701 C700 1.367 . S
C701 C709 1.433 . S
C702 H698 0.929 . S
C702 C704 1.378 . S
C702 C706 1.350 . S
C703 C706 1.463 . S
C703 C708 1.350 . S
C703 N711 1.427 . S
C704 H695 0.930 . S
C704 C702 1.378 . S
C704 C705 1.367 . S
C705 C704 1.367 . S
C705 C707 1.433 . S
C706 C702 1.350 . S
C706 C703 1.463 . S
C706 N710 1.427 . S
C707 H697 0.929 . S
C707 C705 1.433 . S
C707 N710 1.384 . S
C708 H699 0.929 . S
C708 C700 1.378 . S
C708 C703 1.350 . S
C709 H696 0.929 . S
C709 C701 1.433 . S
C709 N711 1.384 . S
N710 C706 1.427 . S
N710 C707 1.384 . S
N711 C703 1.427 . S
N711 C709 1.384 . S
H712 C718 0.930 . S
H713 C722 0.930 . S
H714 C727 0.929 . S
H715 C725 0.929 . S
H716 C720 0.929 . S
H717 C726 0.929 . S
C718 H712 0.930 . S
C718 C719 1.367 . S
C718 C726 1.378 1_556 S
C719 C718 1.367 . S
C719 C727 1.433 . S
C720 H716 0.929 . S
C720 C722 1.378 . S
C720 C724 1.350 . S
C721 C724 1.463 . S
C721 C726 1.350 . S
C721 N729 1.427 1_554 S
C722 H713 0.930 . S
C722 C720 1.378 . S
C722 C723 1.367 . S
C723 C722 1.367 . S
C723 C725 1.433 . S
C724 C720 1.350 . S
C724 C721 1.463 . S
C724 N728 1.427 . S
C725 H715 0.929 . S
C725 C723 1.433 . S
C725 N728 1.384 . S
C726 H717 0.929 . S
C726 C718 1.378 1_554 S
C726 C721 1.350 . S
C727 H714 0.929 . S
C727 C719 1.433 . S
C727 N729 1.384 . S
N728 C724 1.427 . S
N728 C725 1.384 . S
N729 C721 1.427 1_556 S
N729 C727 1.384 . S
H730 C736 0.930 . S
H731 C740 0.930 . S
H732 C745 0.929 . S
H733 C743 0.929 . S
H734 C738 0.929 . S
H735 C744 0.929 . S
C736 H730 0.930 . S
C736 C737 1.367 . S
C736 C744 1.378 . S
C737 C736 1.367 . S
C737 C745 1.433 . S
C738 H734 0.929 . S
C738 C740 1.378 . S
C738 C742 1.350 . S
C739 C742 1.463 . S
C739 C744 1.350 . S
C739 N747 1.427 . S
C740 H731 0.930 . S
C740 C738 1.378 . S
C740 C741 1.367 . S
C741 C740 1.367 . S
C741 C743 1.433 . S
C742 C738 1.350 . S
C742 C739 1.463 . S
C742 N746 1.427 . S
C743 H733 0.929 . S
C743 C741 1.433 . S
C743 N746 1.384 . S
C744 H735 0.929 . S
C744 C736 1.378 . S
C744 C739 1.350 . S
C745 H732 0.929 . S
C745 C737 1.433 . S
C745 N747 1.384 . S
N746 C742 1.427 . S
N746 C743 1.384 . S
N747 C739 1.427 . S
N747 C745 1.384 . S
H748 C754 0.930 . S
H749 C758 0.930 . S
H750 C763 0.929 . S
H751 C761 0.929 . S
H752 C756 0.929 . S
H753 C762 0.929 . S
C754 H748 0.930 . S
C754 C755 1.367 . S
C754 C762 1.378 . S
C755 C754 1.367 . S
C755 C763 1.433 . S
C756 H752 0.929 . S
C756 C758 1.378 . S
C756 C760 1.350 . S
C757 C760 1.463 . S
C757 C762 1.350 1_554 S
C757 N765 1.427 . S
C758 H749 0.930 . S
C758 C756 1.378 . S
C758 C759 1.367 . S
C759 C758 1.367 . S
C759 C761 1.433 . S
C760 C756 1.350 . S
C760 C757 1.463 . S
C760 N764 1.427 . S
C761 H751 0.929 . S
C761 C759 1.433 . S
C761 N764 1.384 . S
C762 H753 0.929 . S
C762 C754 1.378 . S
C762 C757 1.350 1_556 S
C763 H750 0.929 . S
C763 C755 1.433 . S
C763 N765 1.384 1_556 S
N764 C760 1.427 . S
N764 C761 1.384 . S
N765 C757 1.427 . S
N765 C763 1.384 1_554 S
H766 C772 0.930 . S
H767 C776 0.930 . S
H768 C781 0.929 . S
H769 C779 0.929 . S
H770 C774 0.929 . S
H771 C780 0.929 . S
C772 H766 0.930 . S
C772 C773 1.367 . S
C772 C780 1.378 . S
C773 C772 1.367 . S
C773 C781 1.433 . S
C774 H770 0.929 . S
C774 C776 1.378 . S
C774 C778 1.350 . S
C775 C778 1.463 . S
C775 C780 1.350 . S
C775 N783 1.427 . S
C776 H767 0.930 . S
C776 C774 1.378 . S
C776 C777 1.367 . S
C777 C776 1.367 . S
C777 C779 1.433 . S
C778 C774 1.350 . S
C778 C775 1.463 . S
C778 N782 1.427 . S
C779 H769 0.929 . S
C779 C777 1.433 . S
C779 N782 1.384 . S
C780 H771 0.929 . S
C780 C772 1.378 . S
C780 C775 1.350 . S
C781 H768 0.929 . S
C781 C773 1.433 . S
C781 N783 1.384 . S
N782 C778 1.427 . S
N782 C779 1.384 . S
N783 C775 1.427 . S
N783 C781 1.384 . S
H784 C790 0.930 . S
H785 C794 0.930 . S
H786 C799 0.929 . S
H787 C797 0.929 . S
H788 C792 0.929 . S
H789 C798 0.929 . S
C790 H784 0.930 . S
C790 C791 1.367 . S
C790 C798 1.378 1_556 S
C791 C790 1.367 . S
C791 C799 1.433 . S
C792 H788 0.929 . S
C792 C794 1.378 . S
C792 C796 1.350 . S
C793 C796 1.463 . S
C793 C798 1.350 . S
C793 N801 1.427 1_554 S
C794 H785 0.930 . S
C794 C792 1.378 . S
C794 C795 1.367 . S
C795 C794 1.367 . S
C795 C797 1.433 . S
C796 C792 1.350 . S
C796 C793 1.463 . S
C796 N800 1.427 . S
C797 H787 0.929 . S
C797 C795 1.433 . S
C797 N800 1.384 . S
C798 H789 0.929 . S
C798 C790 1.378 1_554 S
C798 C793 1.350 . S
C799 H786 0.929 . S
C799 C791 1.433 . S
C799 N801 1.384 . S
N800 C796 1.427 . S
N800 C797 1.384 . S
N801 C793 1.427 1_556 S
N801 C799 1.384 . S
H802 C808 0.930 . S
H803 C812 0.930 . S
H804 C817 0.929 . S
H805 C815 0.929 . S
H806 C810 0.929 . S
H807 C816 0.929 . S
C808 H802 0.930 . S
C808 C809 1.367 . S
C808 C816 1.378 . S
C809 C808 1.367 . S
C809 C817 1.433 . S
C810 H806 0.929 . S
C810 C812 1.378 . S
C810 C814 1.350 . S
C811 C814 1.463 . S
C811 C816 1.350 . S
C811 N819 1.427 . S
C812 H803 0.930 . S
C812 C810 1.378 . S
C812 C813 1.367 . S
C813 C812 1.367 . S
C813 C815 1.433 . S
C814 C810 1.350 . S
C814 C811 1.463 . S
C814 N818 1.427 . S
C815 H805 0.929 . S
C815 C813 1.433 . S
C815 N818 1.384 . S
C816 H807 0.929 . S
C816 C808 1.378 . S
C816 C811 1.350 . S
C817 H804 0.929 . S
C817 C809 1.433 . S
C817 N819 1.384 . S
N818 C814 1.427 . S
N818 C815 1.384 . S
N819 C811 1.427 . S
N819 C817 1.384 . S
H820 C826 0.930 . S
H821 C830 0.930 . S
H822 C835 0.929 . S
H823 C833 0.929 . S
H824 C828 0.929 . S
H825 C834 0.929 1_554 S
C826 H820 0.930 . S
C826 C827 1.367 . S
C826 C834 1.378 . S
C827 C826 1.367 . S
C827 C835 1.433 . S
C828 H824 0.929 . S
C828 C830 1.378 . S
C828 C832 1.350 . S
C829 C832 1.463 . S
C829 C834 1.350 1_554 S
C829 N837 1.427 . S
C830 H821 0.930 . S
C830 C828 1.378 . S
C830 C831 1.367 . S
C831 C830 1.367 . S
C831 C833 1.433 . S
C832 C828 1.350 . S
C832 C829 1.463 . S
C832 N836 1.427 . S
C833 H823 0.929 . S
C833 C831 1.433 . S
C833 N836 1.384 . S
C834 H825 0.929 1_556 S
C834 C826 1.378 . S
C834 C829 1.350 1_556 S
C835 H822 0.929 . S
C835 C827 1.433 . S
C835 N837 1.384 1_556 S
N836 C832 1.427 . S
N836 C833 1.384 . S
N837 C829 1.427 . S
N837 C835 1.384 1_554 S
H838 C844 0.930 . S
H839 C848 0.930 . S
H840 C853 0.929 . S
H841 C851 0.929 . S
H842 C846 0.929 . S
H843 C852 0.929 . S
C844 H838 0.930 . S
C844 C845 1.367 . S
C844 C852 1.378 . S
C845 C844 1.367 . S
C845 C853 1.433 . S
C846 H842 0.929 . S
C846 C848 1.378 . S
C846 C850 1.350 . S
C847 C850 1.463 . S
C847 C852 1.350 . S
C847 N855 1.427 . S
C848 H839 0.930 . S
C848 C846 1.378 . S
C848 C849 1.367 . S
C849 C848 1.367 . S
C849 C851 1.433 . S
C850 C846 1.350 . S
C850 C847 1.463 . S
C850 N854 1.427 . S
C851 H841 0.929 . S
C851 C849 1.433 . S
C851 N854 1.384 . S
C852 H843 0.929 . S
C852 C844 1.378 . S
C852 C847 1.350 . S
C853 H840 0.929 . S
C853 C845 1.433 . S
C853 N855 1.384 . S
N854 C850 1.427 . S
N854 C851 1.384 . S
N855 C847 1.427 . S
N855 C853 1.384 . S
H856 C862 0.930 . S
H857 C866 0.930 . S
H858 C871 0.929 . S
H859 C869 0.929 . S
H860 C864 0.934 . S
H861 C870 0.929 . S
C862 H856 0.930 . S
C862 C863 1.367 . S
C862 C870 1.378 . S
C863 C862 1.367 . S
C863 C871 1.433 . S
C864 H860 0.934 . S
C864 C866 1.365 1_556 S
C864 C868 1.357 . S
C865 C868 1.463 . S
C865 C870 1.350 . S
C865 N873 1.427 . S
C866 H857 0.930 . S
C866 C864 1.365 1_554 S
C866 C867 1.367 . S
C867 C866 1.367 . S
C867 C869 1.433 . S
C868 C864 1.357 . S
C868 C865 1.463 . S
C868 N872 1.427 . S
C869 H859 0.929 . S
C869 C867 1.433 . S
C869 N872 1.384 1_554 S
C870 H861 0.929 . S
C870 C862 1.378 . S
C870 C865 1.350 . S
C871 H858 0.929 . S
C871 C863 1.433 . S
C871 N873 1.384 . S
N872 C868 1.427 . S
N872 C869 1.384 1_556 S
N873 C865 1.427 . S
N873 C871 1.384 . S
H874 C880 0.930 . S
H875 C884 0.930 . S
H876 C889 0.929 . S
H877 C887 0.929 . S
H878 C882 0.929 . S
H879 C888 0.929 . S
C880 H874 0.930 . S
C880 C881 1.367 . S
C880 C888 1.378 . S
C881 C880 1.367 . S
C881 C889 1.433 . S
C882 H878 0.929 . S
C882 C884 1.378 . S
C882 C886 1.350 . S
C883 C886 1.463 . S
C883 C888 1.350 . S
C883 N891 1.427 . S
C884 H875 0.930 . S
C884 C882 1.378 . S
C884 C885 1.367 . S
C885 C884 1.367 . S
C885 C887 1.433 . S
C886 C882 1.350 . S
C886 C883 1.463 . S
C886 N890 1.427 . S
C887 H877 0.929 . S
C887 C885 1.433 . S
C887 N890 1.384 . S
C888 H879 0.929 . S
C888 C880 1.378 . S
C888 C883 1.350 . S
C889 H876 0.929 . S
C889 C881 1.433 . S
C889 N891 1.384 . S
N890 C886 1.427 . S
N890 C887 1.384 . S
N891 C883 1.427 . S
N891 C889 1.384 . S
H892 C898 0.930 . S
H893 C902 0.930 . S
H894 C907 0.929 . S
H895 C905 0.929 . S
H896 C900 0.929 . S
H897 C906 0.929 . S
C898 H892 0.930 . S
C898 C899 1.367 . S
C898 C906 1.378 . S
C899 C898 1.367 . S
C899 C907 1.433 . S
C900 H896 0.929 . S
C900 C902 1.378 1_556 S
C900 C904 1.350 . S
C901 C904 1.463 . S
C901 C906 1.350 . S
C901 N909 1.427 . S
C902 H893 0.930 . S
C902 C900 1.378 1_554 S
C902 C903 1.367 . S
C903 C902 1.367 . S
C903 C905 1.433 . S
C904 C900 1.350 . S
C904 C901 1.463 . S
C904 N908 1.427 1_556 S
C905 H895 0.929 . S
C905 C903 1.433 . S
C905 N908 1.384 . S
C906 H897 0.929 . S
C906 C898 1.378 . S
C906 C901 1.350 . S
C907 H894 0.929 . S
C907 C899 1.433 . S
C907 N909 1.384 . S
N908 C904 1.427 1_554 S
N908 C905 1.384 . S
N909 C901 1.427 . S
N909 C907 1.384 . S
H910 C916 0.930 . S
H911 C920 0.930 . S
H912 C925 0.929 . S
H913 C923 0.929 . S
H914 C918 0.929 . S
H915 C924 0.929 . S
C916 H910 0.930 . S
C916 C917 1.367 . S
C916 C924 1.378 . S
C917 C916 1.367 . S
C917 C925 1.433 . S
C918 H914 0.929 . S
C918 C920 1.378 . S
C918 C922 1.350 . S
C919 C922 1.463 . S
C919 C924 1.350 . S
C919 N927 1.427 . S
C920 H911 0.930 . S
C920 C918 1.378 . S
C920 C921 1.367 . S
C921 C920 1.367 . S
C921 C923 1.433 . S
C922 C918 1.350 . S
C922 C919 1.463 . S
C922 N926 1.427 . S
C923 H913 0.929 . S
C923 C921 1.433 . S
C923 N926 1.384 . S
C924 H915 0.929 . S
C924 C916 1.378 . S
C924 C919 1.350 . S
C925 H912 0.929 . S
C925 C917 1.433 . S
C925 N927 1.384 . S
N926 C922 1.427 . S
N926 C923 1.384 . S
N927 C919 1.427 . S
N927 C925 1.384 . S
H928 C934 0.930 . S
H929 C938 0.930 . S
H930 C943 0.929 . S
H931 C941 0.929 . S
H932 C936 0.929 . S
H933 C942 0.929 . S
C934 H928 0.930 . S
C934 C935 1.367 . S
C934 C942 1.378 . S
C935 C934 1.367 . S
C935 C943 1.433 . S
C936 H932 0.929 . S
C936 C938 1.378 . S
C936 C940 1.350 . S
C937 C940 1.463 . S
C937 C942 1.350 . S
C937 N945 1.427 . S
C938 H929 0.930 . S
C938 C936 1.378 . S
C938 C939 1.367 . S
C939 C938 1.367 . S
C939 C941 1.433 . S
C940 C936 1.350 . S
C940 C937 1.463 . S
C940 N944 1.427 . S
C941 H931 0.929 . S
C941 C939 1.433 . S
C941 N944 1.384 . S
C942 H933 0.929 . S
C942 C934 1.378 . S
C942 C937 1.350 . S
C943 H930 0.929 . S
C943 C935 1.433 . S
C943 N945 1.384 . S
N944 C940 1.427 . S
N944 C941 1.384 . S
N945 C937 1.427 . S
N945 C943 1.384 . S
H946 C952 0.930 . S
H947 C956 0.930 . S
H948 C961 0.929 . S
H949 C959 0.929 . S
H950 C954 0.929 . S
H951 C960 0.929 . S
C952 H946 0.930 . S
C952 C953 1.367 . S
C952 C960 1.378 . S
C953 C952 1.367 . S
C953 C961 1.433 . S
C954 H950 0.929 . S
C954 C956 1.378 . S
C954 C958 1.350 . S
C955 C958 1.463 . S
C955 C960 1.350 . S
C955 N963 1.427 . S
C956 H947 0.930 . S
C956 C954 1.378 . S
C956 C957 1.367 . S
C957 C956 1.367 . S
C957 C959 1.433 . S
C958 C954 1.350 . S
C958 C955 1.463 . S
C958 N962 1.427 . S
C959 H949 0.929 . S
C959 C957 1.433 . S
C959 N962 1.384 . S
C960 H951 0.929 . S
C960 C952 1.378 . S
C960 C955 1.350 . S
C961 H948 0.929 . S
C961 C953 1.433 . S
C961 N963 1.384 . S
N962 C958 1.427 . S
N962 C959 1.384 . S
N963 C955 1.427 . S
N963 C961 1.384 . S
H964 C970 0.930 . S
H965 C974 0.930 . S
H966 C979 0.929 1_655 S
H967 C977 0.929 . S
H968 C972 0.929 . S
H969 C978 0.929 . S
C970 H964 0.930 . S
C970 C971 1.367 . S
C970 C978 1.378 . S
C971 C970 1.367 . S
C971 C979 1.433 . S
C972 H968 0.929 . S
C972 C974 1.378 . S
C972 C976 1.350 . S
C973 C976 1.463 . S
C973 C978 1.350 . S
C973 N981 1.427 . S
C974 H965 0.930 . S
C974 C972 1.378 . S
C974 C975 1.367 . S
C975 C974 1.367 . S
C975 C977 1.433 . S
C976 C972 1.350 . S
C976 C973 1.463 . S
C976 N980 1.427 . S
C977 H967 0.929 . S
C977 C975 1.433 . S
C977 N980 1.384 . S
C978 H969 0.929 . S
C978 C970 1.378 . S
C978 C973 1.350 . S
C979 H966 0.929 1_455 S
C979 C971 1.433 . S
C979 N981 1.384 . S
N980 C976 1.427 . S
N980 C977 1.384 . S
N981 C973 1.427 . S
N981 C979 1.384 . S
H982 C988 0.950 . S
H983 C992 0.930 . S
H984 C997 0.929 . S
H985 C995 0.929 . S
H986 C990 0.929 . S
H987 C996 0.929 . S
C988 H982 0.950 . S
C988 C989 1.367 . S
C988 C996 1.378 . S
C989 C988 1.367 . S
C989 C997 1.433 . S
C990 H986 0.929 . S
C990 C992 1.378 . S
C990 C994 1.350 . S
C991 C994 1.463 . S
C991 C996 1.350 . S
C991 N999 1.427 . S
C992 H983 0.930 . S
C992 C990 1.378 . S
C992 C993 1.367 . S
C993 C992 1.367 . S
C993 C995 1.433 . S
C994 C990 1.350 . S
C994 C991 1.463 . S
C994 N998 1.427 . S
C995 H985 0.929 . S
C995 C993 1.433 . S
C995 N998 1.384 . S
C996 H987 0.929 . S
C996 C988 1.378 . S
C996 C991 1.350 . S
C997 H984 0.929 . S
C997 C989 1.433 . S
C997 N999 1.384 . S
N998 C994 1.427 . S
N998 C995 1.384 . S
N999 C991 1.427 . S
N999 C997 1.384 . S
H1000 C1006 0.930 . S
H1001 C1010 0.930 . S
H1002 C1015 0.929 1_545 S
H1003 C1013 0.929 . S
H1004 C1008 0.929 . S
H1005 C1014 0.929 . S
C1006 H1000 0.930 . S
C1006 C1007 1.367 . S
C1006 C1014 1.378 . S
C1007 C1006 1.367 . S
C1007 C1015 1.433 . S
C1008 H1004 0.929 . S
C1008 C1010 1.378 . S
C1008 C1012 1.350 . S
C1009 C1012 1.463 . S
C1009 C1014 1.350 . S
C1009 N1017 1.427 . S
C1010 H1001 0.930 . S
C1010 C1008 1.378 . S
C1010 C1011 1.367 . S
C1011 C1010 1.367 . S
C1011 C1013 1.433 . S
C1012 C1008 1.350 . S
C1012 C1009 1.463 . S
C1012 N1016 1.427 . S
C1013 H1003 0.929 . S
C1013 C1011 1.433 . S
C1013 N1016 1.384 . S
C1014 H1005 0.929 . S
C1014 C1006 1.378 . S
C1014 C1009 1.350 . S
C1015 H1002 0.929 1_565 S
C1015 C1007 1.433 . S
C1015 N1017 1.384 . S
N1016 C1012 1.427 . S
N1016 C1013 1.384 . S
N1017 C1009 1.427 . S
N1017 C1015 1.384 . S
H1018 C1024 0.930 . S
H1019 C1028 0.930 . S
H1020 C1033 0.929 . S
H1021 C1031 0.929 . S
H1022 C1026 0.929 . S
H1023 C1032 0.929 . S
C1024 H1018 0.930 . S
C1024 C1025 1.367 . S
C1024 C1032 1.378 . S
C1025 C1024 1.367 . S
C1025 C1033 1.433 . S
C1026 H1022 0.929 . S
C1026 C1028 1.378 . S
C1026 C1030 1.350 . S
C1027 C1030 1.463 . S
C1027 C1032 1.350 . S
C1027 N1035 1.427 . S
C1028 H1019 0.930 . S
C1028 C1026 1.378 . S
C1028 C1029 1.367 . S
C1029 C1028 1.367 . S
C1029 C1031 1.433 . S
C1030 C1026 1.350 . S
C1030 C1027 1.463 . S
C1030 N1034 1.427 . S
C1031 H1021 0.929 . S
C1031 C1029 1.433 . S
C1031 N1034 1.384 . S
C1032 H1023 0.929 . S
C1032 C1024 1.378 . S
C1032 C1027 1.350 . S
C1033 H1020 0.929 . S
C1033 C1025 1.433 . S
C1033 N1035 1.384 . S
N1034 C1030 1.427 . S
N1034 C1031 1.384 . S
N1035 C1027 1.427 . S
N1035 C1033 1.384 . S
H1036 C1042 0.930 . S
H1037 C1046 0.930 . S
H1038 C1051 0.929 . S
H1039 C1049 0.929 . S
H1040 C1044 0.929 . S
H1041 C1050 0.929 . S
C1042 H1036 0.930 . S
C1042 C1043 1.367 . S
C1042 C1050 1.378 . S
C1043 C1042 1.367 . S
C1043 C1051 1.433 . S
C1044 H1040 0.929 . S
C1044 C1046 1.378 . S
C1044 C1048 1.350 . S
C1045 C1048 1.463 . S
C1045 C1050 1.350 . S
C1045 N1053 1.427 . S
C1046 H1037 0.930 . S
C1046 C1044 1.378 . S
C1046 C1047 1.367 . S
C1047 C1046 1.367 . S
C1047 C1049 1.433 . S
C1048 C1044 1.350 . S
C1048 C1045 1.463 . S
C1048 N1052 1.427 . S
C1049 H1039 0.929 . S
C1049 C1047 1.433 . S
C1049 N1052 1.384 . S
C1050 H1041 0.929 . S
C1050 C1042 1.378 . S
C1050 C1045 1.350 . S
C1051 H1038 0.929 . S
C1051 C1043 1.433 . S
C1051 N1053 1.384 . S
N1052 C1048 1.427 . S
N1052 C1049 1.384 . S
N1053 C1045 1.427 . S
N1053 C1051 1.384 . S
H1054 C1060 0.930 . S
H1055 C1064 0.930 . S
H1056 C1069 0.929 . S
H1057 C1067 0.929 1_455 S
H1058 C1062 0.929 . S
H1059 C1068 0.929 . S
C1060 H1054 0.930 . S
C1060 C1061 1.367 . S
C1060 C1068 1.378 . S
C1061 C1060 1.367 . S
C1061 C1069 1.433 . S
C1062 H1058 0.929 . S
C1062 C1064 1.378 . S
C1062 C1066 1.350 . S
C1063 C1066 1.463 . S
C1063 C1068 1.350 . S
C1063 N1071 1.427 . S
C1064 H1055 0.930 . S
C1064 C1062 1.378 . S
C1064 C1065 1.367 . S
C1065 C1064 1.367 . S
C1065 C1067 1.433 . S
C1066 C1062 1.350 . S
C1066 C1063 1.463 . S
C1066 N1070 1.427 . S
C1067 H1057 0.929 1_655 S
C1067 C1065 1.433 . S
C1067 N1070 1.384 . S
C1068 H1059 0.929 . S
C1068 C1060 1.378 . S
C1068 C1063 1.350 . S
C1069 H1056 0.929 . S
C1069 C1061 1.433 . S
C1069 N1071 1.384 . S
N1070 C1066 1.427 . S
N1070 C1067 1.384 . S
N1071 C1063 1.427 . S
N1071 C1069 1.384 . S
H1072 C1078 0.930 . S
H1073 C1082 0.930 . S
H1074 C1087 0.929 . S
H1075 C1085 0.929 . S
H1076 C1080 0.929 1_554 S
H1077 C1086 0.929 1_556 S
C1078 H1072 0.930 . S
C1078 C1079 1.367 . S
C1078 C1086 1.378 . S
C1079 C1078 1.367 . S
C1079 C1087 1.433 . S
C1080 H1076 0.929 1_556 S
C1080 C1082 1.378 . S
C1080 C1084 1.350 . S
C1081 C1084 1.463 1_554 S
C1081 C1086 1.350 . S
C1081 N1089 1.427 . S
C1082 H1073 0.930 . S
C1082 C1080 1.378 . S
C1082 C1083 1.367 . S
C1083 C1082 1.367 . S
C1083 C1085 1.433 . S
C1084 C1080 1.350 . S
C1084 C1081 1.463 1_556 S
C1084 N1088 1.427 . S
C1085 H1075 0.929 . S
C1085 C1083 1.433 . S
C1085 N1088 1.384 . S
C1086 H1077 0.929 1_554 S
C1086 C1078 1.378 . S
C1086 C1081 1.350 . S
C1087 H1074 0.929 . S
C1087 C1079 1.433 . S
C1087 N1089 1.384 . S
N1088 C1084 1.427 . S
N1088 C1085 1.384 . S
N1089 C1081 1.427 . S
N1089 C1087 1.384 . S
H1090 C1096 0.930 . S
H1091 C1100 0.930 . S
H1092 C1105 0.929 . S
H1093 C1103 0.929 . S
H1094 C1098 0.929 . S
H1095 C1104 0.929 . S
C1096 H1090 0.930 . S
C1096 C1097 1.367 . S
C1096 C1104 1.378 . S
C1097 C1096 1.367 . S
C1097 C1105 1.433 . S
C1098 H1094 0.929 . S
C1098 C1100 1.378 . S
C1098 C1102 1.350 . S
C1099 C1102 1.463 . S
C1099 C1104 1.350 . S
C1099 N1107 1.427 . S
C1100 H1091 0.930 . S
C1100 C1098 1.378 . S
C1100 C1101 1.367 . S
C1101 C1100 1.367 . S
C1101 C1103 1.433 . S
C1102 C1098 1.350 . S
C1102 C1099 1.463 . S
C1102 N1106 1.427 . S
C1103 H1093 0.929 . S
C1103 C1101 1.433 . S
C1103 N1106 1.384 . S
C1104 H1095 0.929 . S
C1104 C1096 1.378 . S
C1104 C1099 1.350 . S
C1105 H1092 0.929 . S
C1105 C1097 1.433 . S
C1105 N1107 1.384 . S
N1106 C1102 1.427 . S
N1106 C1103 1.384 . S
N1107 C1099 1.427 . S
N1107 C1105 1.384 . S
H1108 C1114 0.930 . S
H1109 C1118 0.930 . S
H1110 C1123 0.929 . S
H1111 C1121 0.929 . S
H1112 C1116 0.929 . S
H1113 C1122 0.929 . S
C1114 H1108 0.930 . S
C1114 C1115 1.367 . S
C1114 C1122 1.378 . S
C1115 C1114 1.367 . S
C1115 C1123 1.433 1_655 S
C1116 H1112 0.929 . S
C1116 C1118 1.378 . S
C1116 C1120 1.350 1_455 S
C1117 C1120 1.463 1_554 S
C1117 C1122 1.350 . S
C1117 N1125 1.427 1_655 S
C1118 H1109 0.930 . S
C1118 C1116 1.378 . S
C1118 C1119 1.367 1_455 S
C1119 C1118 1.367 1_655 S
C1119 C1121 1.433 . S
C1120 C1116 1.350 1_655 S
C1120 C1117 1.463 1_556 S
C1120 N1124 1.427 . S
C1121 H1111 0.929 . S
C1121 C1119 1.433 . S
C1121 N1124 1.384 . S
C1122 H1113 0.929 . S
C1122 C1114 1.378 . S
C1122 C1117 1.350 . S
C1123 H1110 0.929 . S
C1123 C1115 1.433 1_455 S
C1123 N1125 1.384 . S
N1124 C1120 1.427 . S
N1124 C1121 1.384 . S
N1125 C1117 1.427 1_455 S
N1125 C1123 1.384 . S
H1126 C1132 0.930 . S
H1127 C1136 0.930 1_545 S
H1128 C1141 0.929 1_545 S
H1129 C1139 0.929 . S
H1130 C1134 0.929 1_545 S
H1131 C1140 0.929 . S
C1132 H1126 0.930 . S
C1132 C1133 1.367 . S
C1132 C1140 1.378 . S
C1133 C1132 1.367 . S
C1133 C1141 1.433 . S
C1134 H1130 0.929 1_565 S
C1134 C1136 1.378 . S
C1134 C1138 1.350 . S
C1135 C1138 1.463 . S
C1135 C1140 1.350 . S
C1135 N1143 1.427 . S
C1136 H1127 0.930 1_565 S
C1136 C1134 1.378 . S
C1136 C1137 1.367 . S
C1137 C1136 1.367 . S
C1137 C1139 1.433 . S
C1138 C1134 1.350 . S
C1138 C1135 1.463 . S
C1138 N1142 1.427 . S
C1139 H1129 0.929 . S
C1139 C1137 1.433 . S
C1139 N1142 1.384 . S
C1140 H1131 0.929 . S
C1140 C1132 1.378 . S
C1140 C1135 1.350 . S
C1141 H1128 0.929 1_565 S
C1141 C1133 1.433 . S
C1141 N1143 1.384 . S
N1142 C1138 1.427 . S
N1142 C1139 1.384 . S
N1143 C1135 1.427 . S
N1143 C1141 1.384 . S
H1144 C1150 0.930 . S
H1145 C1154 0.930 . S
H1146 C1159 0.929 . S
H1147 C1157 0.929 . S
H1148 C1152 0.929 1_554 S
H1149 C1158 0.929 1_556 S
C1150 H1144 0.930 . S
C1150 C1151 1.367 . S
C1150 C1158 1.378 . S
C1151 C1150 1.367 . S
C1151 C1159 1.433 . S
C1152 H1148 0.929 1_556 S
C1152 C1154 1.378 . S
C1152 C1156 1.350 . S
C1153 C1156 1.463 1_554 S
C1153 C1158 1.350 . S
C1153 N1161 1.427 . S
C1154 H1145 0.930 . S
C1154 C1152 1.378 . S
C1154 C1155 1.367 . S
C1155 C1154 1.367 . S
C1155 C1157 1.433 . S
C1156 C1152 1.350 . S
C1156 C1153 1.463 1_556 S
C1156 N1160 1.427 . S
C1157 H1147 0.929 . S
C1157 C1155 1.433 . S
C1157 N1160 1.384 . S
C1158 H1149 0.929 1_554 S
C1158 C1150 1.378 . S
C1158 C1153 1.350 . S
C1159 H1146 0.929 . S
C1159 C1151 1.433 . S
C1159 N1161 1.384 . S
N1160 C1156 1.427 . S
N1160 C1157 1.384 . S
N1161 C1153 1.427 . S
N1161 C1159 1.384 . S
H1162 C1168 0.930 . S
H1163 C1172 0.930 . S
H1164 C1177 0.929 . S
H1165 C1175 0.929 . S
H1166 C1170 0.929 . S
H1167 C1176 0.929 . S
C1168 H1162 0.930 . S
C1168 C1169 1.367 . S
C1168 C1176 1.378 . S
C1169 C1168 1.367 . S
C1169 C1177 1.433 . S
C1170 H1166 0.929 . S
C1170 C1172 1.378 . S
C1170 C1174 1.350 . S
C1171 C1174 1.463 . S
C1171 C1176 1.350 . S
C1171 N1179 1.427 . S
C1172 H1163 0.930 . S
C1172 C1170 1.378 . S
C1172 C1173 1.367 . S
C1173 C1172 1.367 . S
C1173 C1175 1.433 . S
C1174 C1170 1.350 . S
C1174 C1171 1.463 . S
C1174 N1178 1.427 . S
C1175 H1165 0.929 . S
C1175 C1173 1.433 . S
C1175 N1178 1.384 . S
C1176 H1167 0.929 . S
C1176 C1168 1.378 . S
C1176 C1171 1.350 . S
C1177 H1164 0.929 . S
C1177 C1169 1.433 . S
C1177 N1179 1.384 . S
N1178 C1174 1.427 . S
N1178 C1175 1.384 . S
N1179 C1171 1.427 . S
N1179 C1177 1.384 . S
H1180 C1186 0.930 . S
H1181 C1190 0.930 1_655 S
H1182 C1195 0.929 1_655 S
H1183 C1193 0.929 . S
H1184 C1188 0.929 1_656 S
H1185 C1194 0.929 1_554 S
C1186 H1180 0.930 . S
C1186 C1187 1.367 . S
C1186 C1194 1.378 . S
C1187 C1186 1.367 . S
C1187 C1195 1.433 . S
C1188 H1184 0.929 1_454 S
C1188 C1190 1.378 . S
C1188 C1192 1.350 . S
C1189 C1192 1.463 1_556 S
C1189 C1194 1.350 . S
C1189 N1197 1.427 . S
C1190 H1181 0.930 1_455 S
C1190 C1188 1.378 . S
C1190 C1191 1.367 . S
C1191 C1190 1.367 . S
C1191 C1193 1.433 . S
C1192 C1188 1.350 . S
C1192 C1189 1.463 1_554 S
C1192 N1196 1.427 . S
C1193 H1183 0.929 . S
C1193 C1191 1.433 . S
C1193 N1196 1.384 . S
C1194 H1185 0.929 1_556 S
C1194 C1186 1.378 . S
C1194 C1189 1.350 . S
C1195 H1182 0.929 1_455 S
C1195 C1187 1.433 . S
C1195 N1197 1.384 . S
N1196 C1192 1.427 . S
N1196 C1193 1.384 . S
N1197 C1189 1.427 . S
N1197 C1195 1.384 . S
H1198 C1204 0.930 . S
H1199 C1208 0.930 1_565 S
H1200 C1213 0.929 1_565 S
H1201 C1211 0.929 . S
H1202 C1206 0.929 1_565 S
H1203 C1212 0.929 . S
C1204 H1198 0.930 . S
C1204 C1205 1.367 . S
C1204 C1212 1.378 . S
C1205 C1204 1.367 . S
C1205 C1213 1.433 . S
C1206 H1202 0.929 1_545 S
C1206 C1208 1.378 . S
C1206 C1210 1.350 . S
C1207 C1210 1.463 . S
C1207 C1212 1.350 . S
C1207 N1215 1.427 . S
C1208 H1199 0.930 1_545 S
C1208 C1206 1.378 . S
C1208 C1209 1.367 . S
C1209 C1208 1.367 . S
C1209 C1211 1.433 . S
C1210 C1206 1.350 . S
C1210 C1207 1.463 . S
C1210 N1214 1.427 . S
C1211 H1201 0.929 . S
C1211 C1209 1.433 . S
C1211 N1214 1.384 . S
C1212 H1203 0.929 . S
C1212 C1204 1.378 . S
C1212 C1207 1.350 . S
C1213 H1200 0.929 1_545 S
C1213 C1205 1.433 . S
C1213 N1215 1.384 . S
N1214 C1210 1.427 . S
N1214 C1211 1.384 . S
N1215 C1207 1.427 . S
N1215 C1213 1.384 . S
C359 C7 1.145 . S
C363 C202 1.151 . S
C377 C29 1.129 . S
C381 C224 1.143 . S
C395 C246 1.157 . S
C399 C51 1.144 . S
C413 C184 1.143 . S
C417 C73 1.133 . S
C431 C95 1.127 . S
C435 C338 1.145 . S
C449 C272 1.143 . S
C453 C116 1.131 . S
C467 C294 1.145 . S
C471 C138 1.139 . S
C485 C316 1.152 . S
C489 C160 1.146 . S
C503 C30 1.143 . S
C507 C185 1.131 . S
C521 C203 1.135 . S
C525 C52 1.143 . S
C539 C74 1.144 . S
C543 C225 1.137 . S
C557 C8 1.145 . S
C561 C247 1.127 . S
C575 C158 1.151 . S
C579 C273 1.128 . S
C593 C96 1.158 . S
C597 C295 1.143 . S
C611 C317 1.127 . S
C615 C114 1.148 . S
C629 C136 1.149 . S
C633 C339 1.144 . S
C647 C4 1.469 . S
C651 C337 1.507 . S
C665 C26 1.464 . S
C669 C271 1.502 . S
C683 C48 1.467 . S
C687 C293 1.505 . S
C701 C315 1.500 . S
C705 C70 1.464 . S
C719 C92 1.467 . S
C723 C204 1.506 . S
C737 C118 1.464 . S
C741 C226 1.500 . S
C755 C140 1.474 . S
C759 C248 1.505 . S
C773 C183 1.502 . S
C777 C162 1.464 . S
C791 C180 1.471 . S
C795 C159 1.508 . S
C809 C206 1.463 . S
C813 C97 1.500 . S
C827 C228 1.475 . S
C831 C115 1.506 . S
C845 C250 1.463 . S
C849 C137 1.502 . S
C863 C31 1.503 . S
C867 C268 1.464 . S
C881 C53 1.507 . S
C885 C290 1.470 . S
C899 C75 1.511 . S
C903 C312 1.478 . S
C917 C334 1.463 . S
C921 C9 1.500 . S
C935 C161 1.334 1_545 S
C939 C6 1.336 . S
C953 C94 1.334 . S
C957 C28 1.335 . S
C971 C50 1.356 1_455 S
C975 C117 1.350 . S
C989 C72 1.333 1_545 S
C993 C139 1.336 1_455 S
C1007 C335 1.354 1_565 S
C1011 C181 1.347 . S
C1025 C207 1.334 . S
C1029 C269 1.341 . S
C1043 C291 1.356 . S
C1047 C229 1.350 1_655 S
C1061 C251 1.350 1_565 S
C1065 C313 1.356 1_655 S
C1079 C5 1.301 . S
C1083 C93 1.291 . S
C1097 C119 1.302 . S
C1101 C27 1.282 . S
C1115 C49 1.282 . S
C1119 C141 1.301 . S
C1133 C163 1.288 . S
C1137 C71 1.302 . S
C1151 C270 1.293 . S
C1155 C182 1.299 . S
C1169 C292 1.286 . S
C1173 C205 1.291 . S
C1187 C227 1.288 . S
C1191 C314 1.302 . S
C1205 C249 1.284 . S
C1209 C336 1.294 . S
