# Generated by pormake.
# Topology twf-e, (6)-cn, num edge types: 1
# Building blocks:
#     Node 0, Type 0, BuildingBlock: CUKXOW_clean_sbu_0, # of connection points: 6
#     Node 1, Type 0, BuildingBlock: CUKXOW_clean_sbu_0, # of connection points: 6
#     Node 2, Type 0, BuildingBlock: CUKXOW_clean_sbu_0, # of connection points: 6
#     Node 3, Type 0, BuildingBlock: CUKXOW_clean_sbu_0, # of connection points: 6
#     Node 4, Type 0, BuildingBlock: CUKXOW_clean_sbu_0, # of connection points: 6
#     Node 5, Type 0, BuildingBlock: CUKXOW_clean_sbu_0, # of connection points: 6
#     Node 6, Type 0, BuildingBlock: CUKXOW_clean_sbu_0, # of connection points: 6
#     Node 7, Type 0, BuildingBlock: CUKXOW_clean_sbu_0, # of connection points: 6
#     Node 8, Type 0, BuildingBlock: CUKXOW_clean_sbu_0, # of connection points: 6
#     Node 9, Type 0, BuildingBlock: CUKXOW_clean_sbu_0, # of connection points: 6
#     Node 10, Type 0, BuildingBlock: CUKXOW_clean_sbu_0, # of connection points: 6
#     Node 11, Type 0, BuildingBlock: CUKXOW_clean_sbu_0, # of connection points: 6
#     Node 12, Type 0, BuildingBlock: CUKXOW_clean_sbu_0, # of connection points: 6
#     Node 13, Type 0, BuildingBlock: CUKXOW_clean_sbu_0, # of connection points: 6
#     Node 14, Type 0, BuildingBlock: CUKXOW_clean_sbu_0, # of connection points: 6
#     Node 15, Type 0, BuildingBlock: CUKXOW_clean_sbu_0, # of connection points: 6
#     Node 16, Type 0, BuildingBlock: CUKXOW_clean_sbu_0, # of connection points: 6
#     Node 17, Type 0, BuildingBlock: CUKXOW_clean_sbu_0, # of connection points: 6
#     Node 18, Type 0, BuildingBlock: CUKXOW_clean_sbu_0, # of connection points: 6
#     Node 19, Type 0, BuildingBlock: CUKXOW_clean_sbu_0, # of connection points: 6
#     Node 20, Type 0, BuildingBlock: CUKXOW_clean_sbu_0, # of connection points: 6
#     Node 21, Type 0, BuildingBlock: CUKXOW_clean_sbu_0, # of connection points: 6
#     Node 22, Type 0, BuildingBlock: CUKXOW_clean_sbu_0, # of connection points: 6
#     Node 23, Type 0, BuildingBlock: CUKXOW_clean_sbu_0, # of connection points: 6
#     Node 24, Type 0, BuildingBlock: CUKXOW_clean_sbu_0, # of connection points: 6
#     Node 25, Type 0, BuildingBlock: CUKXOW_clean_sbu_0, # of connection points: 6
#     Node 26, Type 0, BuildingBlock: CUKXOW_clean_sbu_0, # of connection points: 6
#     Node 27, Type 0, BuildingBlock: CUKXOW_clean_sbu_0, # of connection points: 6
#     Node 28, Type 0, BuildingBlock: CUKXOW_clean_sbu_0, # of connection points: 6
#     Node 29, Type 0, BuildingBlock: CUKXOW_clean_sbu_0, # of connection points: 6
#     Node 30, Type 0, BuildingBlock: CUKXOW_clean_sbu_0, # of connection points: 6
#     Node 31, Type 0, BuildingBlock: CUKXOW_clean_sbu_0, # of connection points: 6
#     Node 32, Type 0, BuildingBlock: CUKXOW_clean_sbu_0, # of connection points: 6
#     Node 33, Type 0, BuildingBlock: CUKXOW_clean_sbu_0, # of connection points: 6
#     Node 34, Type 0, BuildingBlock: CUKXOW_clean_sbu_0, # of connection points: 6
#     Node 35, Type 0, BuildingBlock: CUKXOW_clean_sbu_0, # of connection points: 6
#     Node 36, Type 0, BuildingBlock: CUKXOW_clean_sbu_0, # of connection points: 6
#     Node 37, Type 0, BuildingBlock: CUKXOW_clean_sbu_0, # of connection points: 6
#     Node 38, Type 0, BuildingBlock: CUKXOW_clean_sbu_0, # of connection points: 6
#     Node 39, Type 0, BuildingBlock: CUKXOW_clean_sbu_0, # of connection points: 6
#     Node 40, Type 0, BuildingBlock: CUKXOW_clean_sbu_0, # of connection points: 6
#     Node 41, Type 0, BuildingBlock: CUKXOW_clean_sbu_0, # of connection points: 6
#     Node 42, Type 0, BuildingBlock: CUKXOW_clean_sbu_0, # of connection points: 6
#     Node 43, Type 0, BuildingBlock: CUKXOW_clean_sbu_0, # of connection points: 6
#     Node 44, Type 0, BuildingBlock: CUKXOW_clean_sbu_0, # of connection points: 6
#     Node 45, Type 0, BuildingBlock: CUKXOW_clean_sbu_0, # of connection points: 6
#     Node 46, Type 0, BuildingBlock: CUKXOW_clean_sbu_0, # of connection points: 6
#     Node 47, Type 0, BuildingBlock: CUKXOW_clean_sbu_0, # of connection points: 6
#     Edge 48, Type (0, 0), BuildingBlock: TEMPAE_clean_linker_10, # of connection points: 2
#     Edge 49, Type (0, 0), BuildingBlock: TEMPAE_clean_linker_10, # of connection points: 2
#     Edge 50, Type (0, 0), BuildingBlock: TEMPAE_clean_linker_10, # of connection points: 2
#     Edge 51, Type (0, 0), BuildingBlock: TEMPAE_clean_linker_10, # of connection points: 2
#     Edge 52, Type (0, 0), BuildingBlock: TEMPAE_clean_linker_10, # of connection points: 2
#     Edge 53, Type (0, 0), BuildingBlock: TEMPAE_clean_linker_10, # of connection points: 2
#     Edge 54, Type (0, 0), BuildingBlock: TEMPAE_clean_linker_10, # of connection points: 2
#     Edge 55, Type (0, 0), BuildingBlock: TEMPAE_clean_linker_10, # of connection points: 2
#     Edge 56, Type (0, 0), BuildingBlock: TEMPAE_clean_linker_10, # of connection points: 2
#     Edge 57, Type (0, 0), BuildingBlock: TEMPAE_clean_linker_10, # of connection points: 2
#     Edge 58, Type (0, 0), BuildingBlock: TEMPAE_clean_linker_10, # of connection points: 2
#     Edge 59, Type (0, 0), BuildingBlock: TEMPAE_clean_linker_10, # of connection points: 2
#     Edge 60, Type (0, 0), BuildingBlock: TEMPAE_clean_linker_10, # of connection points: 2
#     Edge 61, Type (0, 0), BuildingBlock: TEMPAE_clean_linker_10, # of connection points: 2
#     Edge 62, Type (0, 0), BuildingBlock: TEMPAE_clean_linker_10, # of connection points: 2
#     Edge 63, Type (0, 0), BuildingBlock: TEMPAE_clean_linker_10, # of connection points: 2
#     Edge 64, Type (0, 0), BuildingBlock: TEMPAE_clean_linker_10, # of connection points: 2
#     Edge 65, Type (0, 0), BuildingBlock: TEMPAE_clean_linker_10, # of connection points: 2
#     Edge 66, Type (0, 0), BuildingBlock: TEMPAE_clean_linker_10, # of connection points: 2
#     Edge 67, Type (0, 0), BuildingBlock: TEMPAE_clean_linker_10, # of connection points: 2
#     Edge 68, Type (0, 0), BuildingBlock: TEMPAE_clean_linker_10, # of connection points: 2
#     Edge 69, Type (0, 0), BuildingBlock: TEMPAE_clean_linker_10, # of connection points: 2
#     Edge 70, Type (0, 0), BuildingBlock: TEMPAE_clean_linker_10, # of connection points: 2
#     Edge 71, Type (0, 0), BuildingBlock: TEMPAE_clean_linker_10, # of connection points: 2
#     Edge 72, Type (0, 0), BuildingBlock: TEMPAE_clean_linker_10, # of connection points: 2
#     Edge 73, Type (0, 0), BuildingBlock: TEMPAE_clean_linker_10, # of connection points: 2
#     Edge 74, Type (0, 0), BuildingBlock: TEMPAE_clean_linker_10, # of connection points: 2
#     Edge 75, Type (0, 0), BuildingBlock: TEMPAE_clean_linker_10, # of connection points: 2
#     Edge 76, Type (0, 0), BuildingBlock: TEMPAE_clean_linker_10, # of connection points: 2
#     Edge 77, Type (0, 0), BuildingBlock: TEMPAE_clean_linker_10, # of connection points: 2
#     Edge 78, Type (0, 0), BuildingBlock: TEMPAE_clean_linker_10, # of connection points: 2
#     Edge 79, Type (0, 0), BuildingBlock: TEMPAE_clean_linker_10, # of connection points: 2
#     Edge 80, Type (0, 0), BuildingBlock: TEMPAE_clean_linker_10, # of connection points: 2
#     Edge 81, Type (0, 0), BuildingBlock: TEMPAE_clean_linker_10, # of connection points: 2
#     Edge 82, Type (0, 0), BuildingBlock: TEMPAE_clean_linker_10, # of connection points: 2
#     Edge 83, Type (0, 0), BuildingBlock: TEMPAE_clean_linker_10, # of connection points: 2
#     Edge 84, Type (0, 0), BuildingBlock: TEMPAE_clean_linker_10, # of connection points: 2
#     Edge 85, Type (0, 0), BuildingBlock: TEMPAE_clean_linker_10, # of connection points: 2
#     Edge 86, Type (0, 0), BuildingBlock: TEMPAE_clean_linker_10, # of connection points: 2
#     Edge 87, Type (0, 0), BuildingBlock: TEMPAE_clean_linker_10, # of connection points: 2
#     Edge 88, Type (0, 0), BuildingBlock: TEMPAE_clean_linker_10, # of connection points: 2
#     Edge 89, Type (0, 0), BuildingBlock: TEMPAE_clean_linker_10, # of connection points: 2
#     Edge 90, Type (0, 0), BuildingBlock: TEMPAE_clean_linker_10, # of connection points: 2
#     Edge 91, Type (0, 0), BuildingBlock: TEMPAE_clean_linker_10, # of connection points: 2
#     Edge 92, Type (0, 0), BuildingBlock: TEMPAE_clean_linker_10, # of connection points: 2
#     Edge 93, Type (0, 0), BuildingBlock: TEMPAE_clean_linker_10, # of connection points: 2
#     Edge 94, Type (0, 0), BuildingBlock: TEMPAE_clean_linker_10, # of connection points: 2
#     Edge 95, Type (0, 0), BuildingBlock: TEMPAE_clean_linker_10, # of connection points: 2
#     Edge 96, Type (0, 0), BuildingBlock: TEMPAE_clean_linker_10, # of connection points: 2
#     Edge 97, Type (0, 0), BuildingBlock: TEMPAE_clean_linker_10, # of connection points: 2
#     Edge 98, Type (0, 0), BuildingBlock: TEMPAE_clean_linker_10, # of connection points: 2
#     Edge 99, Type (0, 0), BuildingBlock: TEMPAE_clean_linker_10, # of connection points: 2
#     Edge 100, Type (0, 0), BuildingBlock: TEMPAE_clean_linker_10, # of connection points: 2
#     Edge 101, Type (0, 0), BuildingBlock: TEMPAE_clean_linker_10, # of connection points: 2
#     Edge 102, Type (0, 0), BuildingBlock: TEMPAE_clean_linker_10, # of connection points: 2
#     Edge 103, Type (0, 0), BuildingBlock: TEMPAE_clean_linker_10, # of connection points: 2
#     Edge 104, Type (0, 0), BuildingBlock: TEMPAE_clean_linker_10, # of connection points: 2
#     Edge 105, Type (0, 0), BuildingBlock: TEMPAE_clean_linker_10, # of connection points: 2
#     Edge 106, Type (0, 0), BuildingBlock: TEMPAE_clean_linker_10, # of connection points: 2
#     Edge 107, Type (0, 0), BuildingBlock: TEMPAE_clean_linker_10, # of connection points: 2
#     Edge 108, Type (0, 0), BuildingBlock: TEMPAE_clean_linker_10, # of connection points: 2
#     Edge 109, Type (0, 0), BuildingBlock: TEMPAE_clean_linker_10, # of connection points: 2
#     Edge 110, Type (0, 0), BuildingBlock: TEMPAE_clean_linker_10, # of connection points: 2
#     Edge 111, Type (0, 0), BuildingBlock: TEMPAE_clean_linker_10, # of connection points: 2
#     Edge 112, Type (0, 0), BuildingBlock: TEMPAE_clean_linker_10, # of connection points: 2
#     Edge 113, Type (0, 0), BuildingBlock: TEMPAE_clean_linker_10, # of connection points: 2
#     Edge 114, Type (0, 0), BuildingBlock: TEMPAE_clean_linker_10, # of connection points: 2
#     Edge 115, Type (0, 0), BuildingBlock: TEMPAE_clean_linker_10, # of connection points: 2
#     Edge 116, Type (0, 0), BuildingBlock: TEMPAE_clean_linker_10, # of connection points: 2
#     Edge 117, Type (0, 0), BuildingBlock: TEMPAE_clean_linker_10, # of connection points: 2
#     Edge 118, Type (0, 0), BuildingBlock: TEMPAE_clean_linker_10, # of connection points: 2
#     Edge 119, Type (0, 0), BuildingBlock: TEMPAE_clean_linker_10, # of connection points: 2
#     Edge 120, Type (0, 0), BuildingBlock: TEMPAE_clean_linker_10, # of connection points: 2
#     Edge 121, Type (0, 0), BuildingBlock: TEMPAE_clean_linker_10, # of connection points: 2
#     Edge 122, Type (0, 0), BuildingBlock: TEMPAE_clean_linker_10, # of connection points: 2
#     Edge 123, Type (0, 0), BuildingBlock: TEMPAE_clean_linker_10, # of connection points: 2
#     Edge 124, Type (0, 0), BuildingBlock: TEMPAE_clean_linker_10, # of connection points: 2
#     Edge 125, Type (0, 0), BuildingBlock: TEMPAE_clean_linker_10, # of connection points: 2
#     Edge 126, Type (0, 0), BuildingBlock: TEMPAE_clean_linker_10, # of connection points: 2
#     Edge 127, Type (0, 0), BuildingBlock: TEMPAE_clean_linker_10, # of connection points: 2
#     Edge 128, Type (0, 0), BuildingBlock: TEMPAE_clean_linker_10, # of connection points: 2
#     Edge 129, Type (0, 0), BuildingBlock: TEMPAE_clean_linker_10, # of connection points: 2
#     Edge 130, Type (0, 0), BuildingBlock: TEMPAE_clean_linker_10, # of connection points: 2
#     Edge 131, Type (0, 0), BuildingBlock: TEMPAE_clean_linker_10, # of connection points: 2
#     Edge 132, Type (0, 0), BuildingBlock: TEMPAE_clean_linker_10, # of connection points: 2
#     Edge 133, Type (0, 0), BuildingBlock: TEMPAE_clean_linker_10, # of connection points: 2
#     Edge 134, Type (0, 0), BuildingBlock: TEMPAE_clean_linker_10, # of connection points: 2
#     Edge 135, Type (0, 0), BuildingBlock: TEMPAE_clean_linker_10, # of connection points: 2
#     Edge 136, Type (0, 0), BuildingBlock: TEMPAE_clean_linker_10, # of connection points: 2
#     Edge 137, Type (0, 0), BuildingBlock: TEMPAE_clean_linker_10, # of connection points: 2
#     Edge 138, Type (0, 0), BuildingBlock: TEMPAE_clean_linker_10, # of connection points: 2
#     Edge 139, Type (0, 0), BuildingBlock: TEMPAE_clean_linker_10, # of connection points: 2
#     Edge 140, Type (0, 0), BuildingBlock: TEMPAE_clean_linker_10, # of connection points: 2
#     Edge 141, Type (0, 0), BuildingBlock: TEMPAE_clean_linker_10, # of connection points: 2
#     Edge 142, Type (0, 0), BuildingBlock: TEMPAE_clean_linker_10, # of connection points: 2
#     Edge 143, Type (0, 0), BuildingBlock: TEMPAE_clean_linker_10, # of connection points: 2
#     Edge 144, Type (0, 0), BuildingBlock: TEMPAE_clean_linker_10, # of connection points: 2
#     Edge 145, Type (0, 0), BuildingBlock: TEMPAE_clean_linker_10, # of connection points: 2
#     Edge 146, Type (0, 0), BuildingBlock: TEMPAE_clean_linker_10, # of connection points: 2
#     Edge 147, Type (0, 0), BuildingBlock: TEMPAE_clean_linker_10, # of connection points: 2
#     Edge 148, Type (0, 0), BuildingBlock: TEMPAE_clean_linker_10, # of connection points: 2
#     Edge 149, Type (0, 0), BuildingBlock: TEMPAE_clean_linker_10, # of connection points: 2
#     Edge 150, Type (0, 0), BuildingBlock: TEMPAE_clean_linker_10, # of connection points: 2
#     Edge 151, Type (0, 0), BuildingBlock: TEMPAE_clean_linker_10, # of connection points: 2
#     Edge 152, Type (0, 0), BuildingBlock: TEMPAE_clean_linker_10, # of connection points: 2
#     Edge 153, Type (0, 0), BuildingBlock: TEMPAE_clean_linker_10, # of connection points: 2
#     Edge 154, Type (0, 0), BuildingBlock: TEMPAE_clean_linker_10, # of connection points: 2
#     Edge 155, Type (0, 0), BuildingBlock: TEMPAE_clean_linker_10, # of connection points: 2
#     Edge 156, Type (0, 0), BuildingBlock: TEMPAE_clean_linker_10, # of connection points: 2
#     Edge 157, Type (0, 0), BuildingBlock: TEMPAE_clean_linker_10, # of connection points: 2
#     Edge 158, Type (0, 0), BuildingBlock: TEMPAE_clean_linker_10, # of connection points: 2
#     Edge 159, Type (0, 0), BuildingBlock: TEMPAE_clean_linker_10, # of connection points: 2
#     Edge 160, Type (0, 0), BuildingBlock: TEMPAE_clean_linker_10, # of connection points: 2
#     Edge 161, Type (0, 0), BuildingBlock: TEMPAE_clean_linker_10, # of connection points: 2
#     Edge 162, Type (0, 0), BuildingBlock: TEMPAE_clean_linker_10, # of connection points: 2
#     Edge 163, Type (0, 0), BuildingBlock: TEMPAE_clean_linker_10, # of connection points: 2
#     Edge 164, Type (0, 0), BuildingBlock: TEMPAE_clean_linker_10, # of connection points: 2
#     Edge 165, Type (0, 0), BuildingBlock: TEMPAE_clean_linker_10, # of connection points: 2
#     Edge 166, Type (0, 0), BuildingBlock: TEMPAE_clean_linker_10, # of connection points: 2
#     Edge 167, Type (0, 0), BuildingBlock: TEMPAE_clean_linker_10, # of connection points: 2
#     Edge 168, Type (0, 0), BuildingBlock: TEMPAE_clean_linker_10, # of connection points: 2
#     Edge 169, Type (0, 0), BuildingBlock: TEMPAE_clean_linker_10, # of connection points: 2
#     Edge 170, Type (0, 0), BuildingBlock: TEMPAE_clean_linker_10, # of connection points: 2
#     Edge 171, Type (0, 0), BuildingBlock: TEMPAE_clean_linker_10, # of connection points: 2
#     Edge 172, Type (0, 0), BuildingBlock: TEMPAE_clean_linker_10, # of connection points: 2
#     Edge 173, Type (0, 0), BuildingBlock: TEMPAE_clean_linker_10, # of connection points: 2
#     Edge 174, Type (0, 0), BuildingBlock: TEMPAE_clean_linker_10, # of connection points: 2
#     Edge 175, Type (0, 0), BuildingBlock: TEMPAE_clean_linker_10, # of connection points: 2
#     Edge 176, Type (0, 0), BuildingBlock: TEMPAE_clean_linker_10, # of connection points: 2
#     Edge 177, Type (0, 0), BuildingBlock: TEMPAE_clean_linker_10, # of connection points: 2
#     Edge 178, Type (0, 0), BuildingBlock: TEMPAE_clean_linker_10, # of connection points: 2
#     Edge 179, Type (0, 0), BuildingBlock: TEMPAE_clean_linker_10, # of connection points: 2
#     Edge 180, Type (0, 0), BuildingBlock: TEMPAE_clean_linker_10, # of connection points: 2
#     Edge 181, Type (0, 0), BuildingBlock: TEMPAE_clean_linker_10, # of connection points: 2
#     Edge 182, Type (0, 0), BuildingBlock: TEMPAE_clean_linker_10, # of connection points: 2
#     Edge 183, Type (0, 0), BuildingBlock: TEMPAE_clean_linker_10, # of connection points: 2
#     Edge 184, Type (0, 0), BuildingBlock: TEMPAE_clean_linker_10, # of connection points: 2
#     Edge 185, Type (0, 0), BuildingBlock: TEMPAE_clean_linker_10, # of connection points: 2
#     Edge 186, Type (0, 0), BuildingBlock: TEMPAE_clean_linker_10, # of connection points: 2
#     Edge 187, Type (0, 0), BuildingBlock: TEMPAE_clean_linker_10, # of connection points: 2
#     Edge 188, Type (0, 0), BuildingBlock: TEMPAE_clean_linker_10, # of connection points: 2
#     Edge 189, Type (0, 0), BuildingBlock: TEMPAE_clean_linker_10, # of connection points: 2
#     Edge 190, Type (0, 0), BuildingBlock: TEMPAE_clean_linker_10, # of connection points: 2
#     Edge 191, Type (0, 0), BuildingBlock: TEMPAE_clean_linker_10, # of connection points: 2
# Relax obj value: 0.533
# Max RMSD: 0.261
# Mean RMSD: 0.251
data_MOF--net-twf-e--node1-CUKXOW_clean_sbu_0--edge1-TEMPAE_clean_linker_10
_symmetry_space_group_name_H-M    P1
_symmetry_Int_Tables_number       1
_symmetry_cell_setting            triclinic
loop_
_symmetry_equiv_pos_as_xyz
'x, y, z'
_cell_length_a     60.155689
_cell_length_b     60.212752
_cell_length_c     60.147877
_cell_angle_alpha  90.51041
_cell_angle_beta   88.68464
_cell_angle_gamma 89.957611
loop_
_atom_site_label
_atom_site_type_symbol
_atom_site_fract_x
_atom_site_fract_y
_atom_site_fract_z
_atom_type_partial_charge
Tb0 Tb 0.02674 0.22298 0.39401 0.0
C1 C 0.01627 0.2224 0.34459 0.0
Tb2 Tb 1.00513 0.18167 0.37935 0.0
O3 O 0.05789 0.21186 0.37756 0.0
O4 O 0.03643 0.18897 0.39206 0.0
O5 O 0.01845 0.23573 0.36196 0.0
C6 C 0.99347 0.14296 0.36069 0.0
O7 O 0.01414 0.20023 0.34736 0.0
C8 C 0.97711 0.21074 0.39425 0.0
C9 C 0.00943 0.19001 0.43201 0.0
O10 O 0.00988 0.14573 0.37409 0.0
O11 O 0.98419 0.16202 0.35753 0.0
O12 O 0.97347 0.18956 0.39505 0.0
O13 O 0.99454 0.21481 0.38297 0.0
O14 O 1.00527 0.17474 0.41624 0.0
O15 O 0.01668 0.20988 0.42632 0.0
C16 C 0.03899 0.25761 0.41905 0.0
O17 O 0.05166 0.2464 0.40531 0.0
O18 O 0.01901 0.25033 0.41668 0.0
C19 C 0.05414 0.19094 0.38081 0.0
Tb20 Tb 0.84313 0.99993 0.37316 0.0
C21 C 0.83411 0.98855 0.42546 0.0
Tb22 Tb 0.81656 0.96304 0.38417 0.0
O23 O 0.81634 0.02107 0.36331 0.0
O24 O 0.81104 0.99775 0.38876 0.0
O25 O 0.84721 0.9987 0.41034 0.0
C26 C 0.79423 0.92473 0.38729 0.0
O27 O 0.81833 0.97478 0.41867 0.0
C28 C 0.8596 0.95446 0.38395 0.0
C29 C 0.80999 0.98338 0.33608 0.0
O30 O 0.81176 0.92831 0.37506 0.0
O31 O 0.78873 0.94338 0.39705 0.0
O32 O 0.8455 0.94841 0.3991 0.0
O33 O 0.84939 0.96534 0.36937 0.0
O34 O 0.80177 0.97036 0.3519 0.0
O35 O 0.82849 0.99504 0.33967 0.0
C36 C 0.87858 0.02611 0.36655 0.0
O37 O 0.86127 0.03085 0.37888 0.0
O38 O 0.87592 0.00661 0.3577 0.0
C39 C 0.80171 0.01184 0.37649 0.0
Tb40 Tb 1.0054 0.80327 0.40002 0.0
C41 C 0.01622 0.80804 0.3489 0.0
Tb42 Tb 0.02189 0.84789 0.38544 0.0
O43 O 0.97193 0.81719 0.40686 0.0
O44 O 0.99221 0.83051 0.38197 0.0
O45 O 0.01297 0.79431 0.36561 0.0
C46 C 0.0269 0.89147 0.37714 0.0
O47 O 0.01723 0.83019 0.35237 0.0
C48 C 0.05359 0.81959 0.39152 0.0
C49 C 0.01336 0.83744 0.43932 0.0
O50 O 0.03434 0.87524 0.36483 0.0
O51 O 0.01621 0.88311 0.39405 0.0
O52 O 0.05583 0.83693 0.37911 0.0
O53 O 0.03559 0.82128 0.40255 0.0
O54 O 0.01776 0.85251 0.42325 0.0
O55 O 0.00936 0.81644 0.4338 0.0
C56 C 0.00631 0.76012 0.41109 0.0
O57 O 0.9886 0.77201 0.40779 0.0
O58 O 0.02325 0.77269 0.40658 0.0
C59 C 0.97428 0.83331 0.39274 0.0
Tb60 Tb 0.19134 0.98065 0.38405 0.0
C61 C 0.21238 1.00514 0.34303 0.0
Tb62 Tb 0.18434 0.02605 0.38569 0.0
O63 O 0.16822 0.98189 0.35689 0.0
O64 O 0.1612 0.99951 0.38534 0.0
O65 O 0.21211 0.9863 0.3543 0.0
C66 C 0.16447 0.06497 0.37714 0.0
O67 O 0.20139 0.02286 0.3516 0.0
C68 C 0.22343 0.01663 0.40184 0.0
C69 C 0.18093 1.00175 0.43181 0.0
O70 O 0.1799 0.06196 0.39154 0.0
O71 O 0.16064 0.04619 0.3673 0.0
O72 O 0.21052 0.03269 0.40876 0.0
O73 O 0.21439 0.00724 0.38555 0.0
O74 O 0.17262 0.01839 0.4201 0.0
O75 O 0.19184 0.98555 0.42091 0.0
C76 C 0.18914 0.93633 0.38495 0.0
O77 O 0.20646 0.94777 0.37871 0.0
O78 O 0.17416 0.94996 0.39244 0.0
C79 C 0.15276 0.99262 0.36756 0.0
Tb80 Tb 0.02711 0.79838 0.64789 0.0
C81 C 0.01656 0.8007 0.69967 0.0
Tb82 Tb 0.00948 0.84176 0.66595 0.0
O83 O 0.06019 0.81285 0.64273 0.0
O84 O 0.03936 0.82436 0.66853 0.0
O85 O 0.01995 0.7881 0.68181 0.0
C86 C 1.00181 0.88398 0.67798 0.0
O87 O 0.0144 0.82287 0.69785 0.0
C88 C 0.97925 0.81357 0.65424 0.0
C89 C 0.02018 0.83526 0.61149 0.0
O90 O 0.99145 0.86671 0.68558 0.0
O91 O 0.0171 0.87741 0.66379 0.0
O92 O 0.97576 0.82838 0.66964 0.0
O93 O 0.99781 0.81698 0.64516 0.0
O94 O 0.01462 0.84909 0.62867 0.0
O95 O 0.02456 0.81403 0.61529 0.0
C96 C 0.0246 0.75608 0.63386 0.0
O97 O 0.04271 0.76686 0.63857 0.0
O98 O 0.00804 0.7691 0.63895 0.0
C99 C 0.05738 0.8279 0.65816 0.0
Tb100 Tb 0.19639 0.04259 0.64777 0.0
C101 C 0.21426 0.02149 0.6914 0.0
Tb102 Tb 0.18046 0.99784 0.65589 0.0
O103 O 0.17485 0.05395 0.67509 0.0
O104 O 0.16414 0.02895 0.65421 0.0
O105 O 0.2173 0.03738 0.67645 0.0
C106 C 0.15382 0.96427 0.66859 0.0
O107 O 0.19889 1.00551 0.68789 0.0
C108 C 0.21673 0.99764 0.63269 0.0
C109 C 0.17983 0.01541 0.60535 0.0
O110 O 0.1754 0.96368 0.66777 0.0
O111 O 0.14739 0.98395 0.663 0.0
O112 O 0.20227 0.98164 0.63201 0.0
O113 O 0.2121 0.01123 0.64816 0.0
O114 O 0.17141 1.00053 0.61974 0.0
O115 O 0.1915 0.03245 0.61292 0.0
C116 C 0.20749 0.0824 0.63269 0.0
O117 O 0.18776 0.07399 0.63266 0.0
O118 O 0.2212 0.0683 0.64117 0.0
C119 C 0.15844 0.04086 0.67076 0.0
Tb120 Tb 0.98624 0.22317 0.6422 0.0
C121 C 0.99546 0.21827 0.69376 0.0
Tb122 Tb 0.01007 0.18134 0.65638 0.0
O123 O 0.95598 0.20535 0.6335 0.0
O124 O 0.97687 0.19257 0.65765 0.0
O125 O 0.98732 0.23045 0.67759 0.0
C126 C 0.03121 0.14236 0.66031 0.0
O127 O 1.00381 0.19774 0.6899 0.0
C128 C 0.03415 0.21653 0.65399 0.0
C129 C 1.00033 0.19041 0.60375 0.0
O130 O 0.03699 0.15868 0.64762 0.0
O131 O 0.01286 0.14775 0.67109 0.0
O132 O 0.03757 0.20105 0.66826 0.0
O133 O 0.01909 0.21099 0.64084 0.0
O134 O 1.00412 0.17543 0.6197 0.0
O135 O 0.99559 0.2113 0.60895 0.0
C136 C 0.98357 0.26604 0.63032 0.0
O137 O 0.96756 0.25148 0.62994 0.0
O138 O 1.00008 0.25652 0.63989 0.0
C139 C 0.96047 0.18817 0.64562 0.0
Tb140 Tb 0.84371 0.01174 0.64804 0.0
C141 C 0.83352 0.01985 0.59529 0.0
Tb142 Tb 0.81531 0.04654 0.6357 0.0
O143 O 0.81833 0.98981 0.66078 0.0
O144 O 0.8117 0.01137 0.63404 0.0
O145 O 0.84742 0.01137 0.61027 0.0
C146 C 0.79212 0.0838 0.63133 0.0
O147 O 0.81704 0.03294 0.6022 0.0
C148 C 0.85796 0.05726 0.63595 0.0
C149 C 0.80924 0.02996 0.68491 0.0
O150 O 0.80824 0.08079 0.64477 0.0
O151 O 0.78816 0.06506 0.62128 0.0
O152 O 0.84465 0.06154 0.62008 0.0
O153 O 0.84728 0.04653 0.65058 0.0
O154 O 0.79993 0.04024 0.66817 0.0
O155 O 0.82883 0.01968 0.68179 0.0
C156 C 0.88155 0.99001 0.65556 0.0
O157 O 0.86409 0.98155 0.64649 0.0
O158 O 0.87764 0.01062 0.66055 0.0
C159 C 0.80327 0.99785 0.64792 0.0
Tb160 Tb 0.38936 0.01798 0.22463 0.0
C161 C 0.33874 0.00937 0.22456 0.0
Tb162 Tb 0.37324 0.99433 0.1833 0.0
O163 O 0.37669 0.05039 0.21321 0.0
O164 O 0.38571 0.02577 0.19046 0.0
O165 O 0.35629 0.01208 0.23705 0.0
C166 C 0.35639 0.97501 0.14689 0.0
O167 O 0.34126 1.00483 0.20246 0.0
C168 C 0.38796 0.96875 0.21347 0.0
C169 C 0.42682 1.00386 0.18938 0.0
O170 O 0.35029 0.97137 0.1673 0.0
O171 O 0.37115 0.99078 0.1469 0.0
O172 O 0.39007 0.96412 0.19254 0.0
O173 O 0.37693 0.98621 0.21653 0.0
O174 O 0.41046 0.99797 0.1754 0.0
O175 O 0.42204 0.01133 0.20964 0.0
C176 C 0.41112 0.02177 0.26255 0.0
O177 O 0.39943 0.03735 0.25344 0.0
O178 O 0.40978 1.00407 0.25031 0.0
C179 C 0.37605 0.04414 0.19244 0.0
Tb180 Tb 0.01295 0.39357 0.22862 0.0
C181 C 0.02145 0.34285 0.22748 0.0
Tb182 Tb 0.02955 0.37471 0.18433 0.0
O183 O 0.97902 0.38062 0.22235 0.0
O184 O 1.00006 0.38875 0.19632 0.0
O185 O 0.02134 0.36089 0.24016 0.0
C186 C 0.03907 0.3547 0.14521 0.0
O187 O 0.02114 0.34437 0.20512 0.0
C188 C 0.06082 0.39236 0.20756 0.0
C189 C 0.0226 0.42827 0.19025 0.0
O190 O 0.04802 0.35045 0.16409 0.0
O191 O 0.02387 0.36979 0.14857 0.0
O192 O 0.06172 0.39019 0.18615 0.0
O193 O 0.04396 0.38204 0.21519 0.0
O194 O 0.02499 0.41107 0.17584 0.0
O195 O 0.01918 0.42496 0.21178 0.0
C196 C 0.00934 0.41711 0.26657 0.0
O197 O 0.99368 0.40563 0.25743 0.0
O198 O 0.0273 0.41387 0.25468 0.0
C199 C 0.98193 0.3796 0.20089 0.0
Tb200 Tb 0.63359 1.00607 0.22944 0.0
C201 C 0.6852 0.01549 0.22752 0.0
Tb202 Tb 0.65124 0.0291 0.18904 0.0
O203 O 0.62934 0.97479 0.21123 0.0
O204 O 0.65451 0.99701 0.20171 0.0
O205 O 0.66733 0.01214 0.24026 0.0
C206 C 0.66129 0.04996 0.15059 0.0
O207 O 0.68321 0.01899 0.20552 0.0
C208 C 0.63869 0.05496 0.22211 0.0
C209 C 0.59785 0.01552 0.19384 0.0
O210 O 0.66994 0.05367 0.16975 0.0
O211 O 0.64798 0.03302 0.15268 0.0
O212 O 0.65492 0.05956 0.20865 0.0
O213 O 0.62958 0.0376 0.21542 0.0
O214 O 0.61515 0.02129 0.18032 0.0
O215 O 0.60108 0.01111 0.21503 0.0
C216 C 0.61828 1.0032 0.27131 0.0
O217 O 0.62191 0.98662 0.2576 0.0
O218 O 0.62556 0.02099 0.26164 0.0
C219 C 0.64444 0.97959 0.19618 0.0
Tb220 Tb 0.03368 0.63223 0.23333 0.0
C221 C 0.02393 0.68402 0.23139 0.0
Tb222 Tb 0.01401 0.65038 0.19107 0.0
O223 O 0.06664 0.647 0.22432 0.0
O224 O 0.04489 0.63821 0.20018 0.0
O225 O 0.02591 0.66606 0.24354 0.0
C226 C 0.99953 0.65714 0.15012 0.0
O227 O 0.02263 0.68228 0.20914 0.0
C228 C 0.98576 0.64611 0.22439 0.0
C229 C 0.02164 0.59661 0.19737 0.0
O230 O 0.01544 0.66848 0.15924 0.0
O231 O 0.99216 0.64245 0.16397 0.0
O232 O 0.984 0.66096 0.20912 0.0
O233 O 1.00186 0.63365 0.21927 0.0
O234 O 0.01822 0.61372 0.18354 0.0
O235 O 0.0265 0.59982 0.21864 0.0
C236 C 0.03448 0.62267 0.27652 0.0
O237 O 0.048 0.61438 0.26119 0.0
O238 O 0.02032 0.63541 0.26698 0.0
C239 C 0.06289 0.64797 0.20314 0.0
Tb240 Tb 0.38438 0.99866 0.8222 0.0
C241 C 0.33842 0.01997 0.8097 0.0
Tb242 Tb 0.37591 0.04016 0.84144 0.0
O243 O 0.39758 0.98814 0.85347 0.0
O244 O 0.36925 0.00784 0.85391 0.0
O245 O 0.35429 1.00578 0.80389 0.0
C246 C 0.3723 0.07357 0.87172 0.0
O247 O 0.34199 0.03422 0.8266 0.0
C248 C 0.38115 0.04441 0.79877 0.0
C249 C 0.42777 0.02189 0.83551 0.0
O250 O 0.36083 0.05532 0.87188 0.0
O251 O 0.38547 0.07305 0.85439 0.0
O252 O 0.36799 0.05672 0.81113 0.0
O253 O 0.39199 0.03129 0.81084 0.0
O254 O 0.41334 0.0358 0.84608 0.0
O255 O 0.41988 1.00607 0.82237 0.0
C256 C 0.38014 0.95698 0.80794 0.0
O257 O 0.39454 0.97129 0.80017 0.0
O258 O 0.3681 0.96651 0.82328 0.0
C259 C 0.38255 0.9973 0.86608 0.0
Tb260 Tb 0.01832 0.39044 0.81278 0.0
C261 C 0.00828 0.33891 0.81283 0.0
Tb262 Tb 0.99615 0.37249 0.85388 0.0
O263 O 0.04928 0.39672 0.82973 0.0
O264 O 0.02868 0.37031 0.84003 0.0
O265 O 0.01341 0.35669 0.80106 0.0
C266 C 0.97977 0.36065 0.89416 0.0
O267 O 1.00352 0.34065 0.83479 0.0
C268 C 0.96951 0.38442 0.82266 0.0
C269 C 0.00806 0.42618 0.84981 0.0
O270 O 0.97305 0.35376 0.87505 0.0
O271 O 0.99668 0.37375 0.89069 0.0
O272 O 0.9647 0.3688 0.83646 0.0
O273 O 0.98702 0.39367 0.82852 0.0
O274 O 1.00095 0.40923 0.86278 0.0
O275 O 0.01429 0.42257 0.82885 0.0
C276 C 0.01866 0.40672 0.77155 0.0
O277 O 0.03612 0.40159 0.78293 0.0
O278 O 1.00126 0.40113 0.78326 0.0
C279 C 0.04567 0.38169 0.84484 0.0
Tb280 Tb 0.64388 0.04726 0.80512 0.0
C281 C 0.6924 0.02992 0.80915 0.0
Tb282 Tb 0.65181 0.01732 0.84383 0.0
O283 O 0.63553 0.07477 0.82831 0.0
O284 O 0.65858 0.05046 0.83659 0.0
O285 O 0.67959 0.04548 0.80091 0.0
C286 C 0.66597 0.99903 0.88099 0.0
O287 O 0.685 0.0164 0.8254 0.0
C288 C 0.63243 0.99786 0.81163 0.0
C289 C 0.60122 0.033 0.83291 0.0
O290 O 0.66917 0.99113 0.86106 0.0
O291 O 0.65468 0.01741 0.8801 0.0
O292 O 0.6295 0.99181 0.83211 0.0
O293 O 0.64719 0.0126 0.80995 0.0
O294 O 0.6154 0.02699 0.8489 0.0
O295 O 0.60912 0.0392 0.81311 0.0
C296 C 0.64314 0.05775 0.76201 0.0
O297 O 0.64245 0.07186 0.7786 0.0
O298 O 0.64434 0.03799 0.77025 0.0
C299 C 0.64809 0.0671 0.84388 0.0
Tb300 Tb 0.99287 0.63378 0.81867 0.0
C301 C 1.00421 0.68483 0.82133 0.0
Tb302 Tb 0.01586 0.64919 0.85981 0.0
O303 O 0.96079 0.62969 0.83567 0.0
O304 O 0.98357 0.65331 0.84746 0.0
O305 O 0.99771 0.66797 0.80891 0.0
C306 C 0.0334 0.66038 0.89913 0.0
O307 O 0.00981 0.68191 0.84267 0.0
C308 C 0.04194 0.63678 0.82683 0.0
C309 C 1.00204 0.59622 0.85343 0.0
O310 O 0.03995 0.66699 0.8797 0.0
O311 O 0.01607 0.64773 0.89668 0.0
O312 O 0.04739 0.65192 0.84096 0.0
O313 O 0.02386 0.62844 0.833 0.0
O314 O 0.0097 0.6124 0.86703 0.0
O315 O 0.9958 0.60094 0.83299 0.0
C316 C 0.99494 0.62075 0.77603 0.0
O317 O 0.97687 0.6226 0.78839 0.0
O318 O 0.01136 0.62771 0.78773 0.0
C319 C 0.96553 0.64322 0.85198 0.0
Tb320 Tb 0.20643 0.3838 0.0438 0.0
C321 C 0.21249 0.33417 0.02612 0.0
Tb322 Tb 0.18566 0.37298 1.0014 0.0
O323 O 0.17435 0.39634 0.05524 0.0
O324 O 0.1757 0.36829 0.03488 0.0
O325 O 0.21872 0.34979 0.04037 0.0
C326 C 0.15474 0.36832 0.96989 0.0
O327 O 0.19714 0.3386 0.01077 0.0
C328 C 0.22831 0.37332 0.99886 0.0
C329 C 0.19388 0.42532 0.01605 0.0
O330 O 0.17591 0.37108 0.96636 0.0
O331 O 0.15099 0.36792 0.99123 0.0
O332 O 0.2161 0.36123 0.98592 0.0
O333 O 0.21645 0.38684 0.01014 0.0
O334 O 0.18289 0.41081 1.00309 0.0
O335 O 0.20663 0.41784 0.03199 0.0
C336 C 0.22736 0.39126 0.08165 0.0
O337 O 0.2072 0.38411 0.07997 0.0
O338 O 0.236 0.39344 0.06183 0.0
C339 C 0.16272 0.38141 0.04527 0.0
Tb340 Tb 0.20366 0.64452 0.9857 0.0
C341 C 0.21887 0.68868 0.00983 0.0
Tb342 Tb 0.19341 0.64557 0.03291 0.0
O343 O 0.17643 0.66765 0.98133 0.0
O344 O 0.17317 0.6428 1.00455 0.0
O345 O 0.21973 0.67683 0.99101 0.0
C346 C 0.17201 0.65371 0.0722 0.0
O347 O 0.20832 0.68022 0.02798 0.0
C348 C 0.23426 0.63168 0.02338 0.0
C349 C 0.19266 0.59833 0.00952 0.0
O350 O 0.18871 0.64032 0.06895 0.0
O351 O 0.1677 0.66297 0.05335 0.0
O352 O 0.22194 0.6247 0.03993 0.0
O353 O 0.22339 0.64655 0.01402 0.0
O354 O 0.18376 0.61053 0.02609 0.0
O355 O 0.20372 0.60841 0.99309 0.0
C356 C 0.2133 0.63384 0.94344 0.0
O357 O 0.2274 0.64109 0.95779 0.0
O358 O 0.19383 0.63304 0.9529 0.0
C359 C 0.16297 0.65876 0.99581 0.0
Tb360 Tb 0.38937 0.22292 0.02206 0.0
C361 C 0.33848 0.21964 0.0281 0.0
Tb362 Tb 0.37375 0.18029 0.04177 0.0
O363 O 0.37707 0.21357 0.98907 0.0
O364 O 0.3876 0.18921 0.01069 0.0
O365 O 0.35561 0.2333 0.02775 0.0
C366 C 0.35804 0.14229 0.05956 0.0
O367 O 0.34168 0.19751 0.03087 0.0
C368 C 0.38653 0.20994 0.0702 0.0
C369 C 0.42702 0.1878 0.03291 0.0
O370 O 0.35159 0.16223 0.06469 0.0
O371 O 0.37226 0.14372 0.04302 0.0
O372 O 0.38995 0.18898 0.07266 0.0
O373 O 0.37571 0.21323 0.05299 0.0
O374 O 0.41064 0.17305 0.03707 0.0
O375 O 0.42224 0.20858 0.02784 0.0
C376 C 0.41023 0.26201 0.02104 0.0
O377 O 0.39955 0.25294 1.00468 0.0
O378 O 0.40835 0.24901 0.03798 0.0
C379 C 0.37824 0.19228 0.99248 0.0
Tb380 Tb 0.80949 0.39039 0.01189 0.0
C381 C 0.80336 0.34591 0.03456 0.0
Tb382 Tb 0.83912 0.38238 0.04642 0.0
O383 O 0.83678 0.39849 0.9893 0.0
O384 O 0.84131 0.37338 0.01255 0.0
O385 O 0.79264 0.36388 0.02915 0.0
C386 C 0.87304 0.37709 0.0748 0.0
O387 O 0.82491 0.34819 0.03922 0.0
C388 C 0.80037 0.39531 0.06334 0.0
C389 C 0.83071 0.43391 0.02763 0.0
O390 O 0.85403 0.36716 0.07562 0.0
O391 O 0.87336 0.38974 0.05741 0.0
O392 O 0.81282 0.38016 0.07162 0.0
O393 O 0.80984 0.40135 0.0456 0.0
O394 O 0.84393 0.41975 0.03886 0.0
O395 O 0.81353 0.42587 0.01671 0.0
C396 C 0.77897 0.3801 0.98254 0.0
O397 O 0.77979 0.39892 0.99338 0.0
O398 O 0.79578 0.36793 0.98744 0.0
C399 C 0.85082 0.38465 0.99741 0.0
Tb400 Tb 0.65186 0.85531 0.03005 0.0
C401 C 0.60123 0.8548 0.04889 0.0
Tb402 Tb 0.64486 0.83422 0.07061 0.0
O403 O 0.65461 0.82476 0.01122 0.0
O404 O 0.63295 0.82685 0.03844 0.0
O405 O 0.6158 0.86462 0.03495 0.0
C406 C 0.63624 0.82252 0.11214 0.0
O407 O 0.60898 0.84068 0.06393 0.0
C408 C 0.66912 0.87114 0.07312 0.0
C409 C 0.68642 0.8175 0.04409 0.0
O410 O 0.63028 0.84107 0.10343 0.0
O411 O 0.64517 0.80967 0.09695 0.0
O412 O 0.67474 0.85212 0.08076 0.0
O413 O 0.65165 0.86799 0.06265 0.0
O414 O 0.67041 0.81116 0.05809 0.0
O415 O 0.6843 0.837 0.03373 0.0
C416 C 0.66031 0.88652 0.99999 0.0
O417 O 0.67137 0.8836 0.01799 0.0
O418 O 0.64475 0.87168 0.99877 0.0
C419 C 0.63914 0.81445 0.02241 0.0
Tb420 Tb 0.83807 0.6587 0.02453 0.0
C421 C 0.82941 0.60577 0.01424 0.0
Tb422 Tb 0.81102 0.64638 0.98883 0.0
O423 O 0.81182 0.67029 0.04637 0.0
O424 O 0.80613 0.64368 0.02382 0.0
O425 O 0.84168 0.62111 0.02475 0.0
C426 C 0.78825 0.6399 0.95182 0.0
O427 O 0.81407 0.6122 1.00021 0.0
C428 C 0.85403 0.64782 0.97852 0.0
C429 C 0.80391 0.69535 0.00771 0.0
O430 O 0.80429 0.65388 0.95439 0.0
O431 O 0.78389 0.63088 0.97098 0.0
O432 O 0.84078 0.63197 0.97331 0.0
O433 O 0.84305 0.66215 0.98969 0.0
O434 O 0.79546 0.67884 0.99585 0.0
O435 O 0.82299 0.69222 0.01837 0.0
C436 C 0.87496 0.66676 0.04747 0.0
O437 O 0.85617 0.65982 0.05578 0.0
O438 O 0.87299 0.66918 0.02623 0.0
C439 C 0.79713 0.65719 0.03767 0.0
Tb440 Tb 0.39383 0.80718 0.02845 0.0
C441 C 0.34409 0.80715 0.01577 0.0
Tb442 Tb 0.37896 0.84911 1.00488 0.0
O443 O 0.37569 0.81714 0.0594 0.0
O444 O 0.38731 0.84076 0.03703 0.0
O445 O 0.36148 0.79507 0.0209 0.0
C446 C 0.36293 0.88582 0.98549 0.0
O447 O 0.34652 0.82907 0.01085 0.0
C448 C 0.4001 0.82053 0.98034 0.0
C449 C 0.43099 0.84392 0.02067 0.0
O450 O 0.36247 0.86573 0.97762 0.0
O451 O 0.37166 0.88521 1.00512 0.0
O452 O 0.4016 0.84169 0.97725 0.0
O453 O 0.38619 0.81637 0.99567 0.0
O454 O 0.4146 0.85791 0.01444 0.0
O455 O 0.42655 0.8229 0.02535 0.0
C456 C 0.41366 0.76788 0.03135 0.0
O457 O 0.40696 0.78023 0.04813 0.0
O458 O 0.40855 0.77777 0.0132 0.0
C459 C 0.37506 0.83803 0.05389 0.0
Tb460 Tb 0.63495 0.22411 0.03535 0.0
C461 C 0.68628 0.2228 0.02733 0.0
Tb462 Tb 0.65116 0.18447 0.00941 0.0
O463 O 0.62494 0.20283 0.06358 0.0
O464 O 0.65177 0.19392 0.04283 0.0
O465 O 0.66951 0.23288 0.03787 0.0
C466 C 0.66851 0.14955 0.98719 0.0
O467 O 0.68319 0.20387 0.01541 0.0
C468 C 0.63135 0.21405 0.98593 0.0
C469 C 0.59849 0.1898 0.02206 0.0
O470 O 0.67289 0.17028 0.98351 0.0
O471 O 0.65544 0.14841 1.00472 0.0
O472 O 0.63019 0.19306 0.98181 0.0
O473 O 0.64414 0.21753 1.00178 0.0
O474 O 0.61541 0.17536 0.0187 0.0
O475 O 0.6027 0.21106 0.02553 0.0
C476 C 0.62018 0.26578 0.0389 0.0
O477 O 0.62445 0.25268 0.05548 0.0
O478 O 0.62631 0.25557 0.0208 0.0
C479 C 0.63945 0.18737 0.05862 0.0
Tb480 Tb 0.53757 0.72314 0.88811 0.0
C481 C 0.52696 0.71938 0.83872 0.0
Tb482 Tb 0.51491 0.68125 0.87622 0.0
O483 O 0.56912 0.71079 0.87291 0.0
O484 O 0.54648 0.68915 0.88727 0.0
O485 O 0.52981 0.73345 0.85521 0.0
C486 C 0.50155 0.64314 0.85805 0.0
O487 O 0.52349 0.69761 0.84285 0.0
C488 C 0.48827 0.71162 0.8908 0.0
C489 C 0.52466 0.69128 0.92868 0.0
O490 O 0.49299 0.66252 0.85487 0.0
O491 O 0.51785 0.64505 0.87174 0.0
O492 O 0.4847 0.69065 0.89403 0.0
O493 O 0.50519 0.71445 0.87844 0.0
O494 O 0.51771 0.67621 0.91356 0.0
O495 O 0.53257 0.71078 0.92203 0.0
C496 C 0.54519 0.76282 0.90484 0.0
O497 O 0.55896 0.75166 0.8921 0.0
O498 O 0.52725 0.75136 0.9082 0.0
C499 C 0.56422 0.69005 0.8761 0.0
Tb500 Tb 0.34186 0.51463 0.86983 0.0
C501 C 0.33458 0.50424 0.92155 0.0
Tb502 Tb 0.31893 0.47555 0.87993 0.0
O503 O 0.31376 0.53376 0.85991 0.0
O504 O 0.31 0.50966 0.88511 0.0
O505 O 0.34519 0.51707 0.90673 0.0
C506 C 0.30954 0.43685 0.89828 0.0
O507 O 0.32189 0.4877 0.91447 0.0
C508 C 0.35798 0.4688 0.85966 0.0
C509 C 0.30823 0.49389 0.83384 0.0
O510 O 0.32875 0.44621 0.89741 0.0
O511 O 0.29485 0.44962 0.88913 0.0
O512 O 0.33935 0.46059 0.85325 0.0
O513 O 0.35347 0.48219 0.87534 0.0
O514 O 0.30005 0.48154 0.85021 0.0
O515 O 0.32703 0.50548 0.83682 0.0
C516 C 0.37658 0.54003 0.85942 0.0
O517 O 0.37294 0.52036 0.85136 0.0
O518 O 0.36039 0.54563 0.87302 0.0
C519 C 0.29983 0.5232 0.87282 0.0
Tb520 Tb 0.49 0.31104 0.89683 0.0
C521 C 0.50428 0.31217 0.84599 0.0
Tb522 Tb 0.51778 0.34932 0.88264 0.0
O523 O 0.45998 0.33091 0.90112 0.0
O524 O 0.48443 0.34007 0.87738 0.0
O525 O 0.49464 0.30106 0.86235 0.0
C526 C 0.53782 0.3878 0.87212 0.0
O527 O 0.51275 0.33252 0.84945 0.0
C528 C 0.5403 0.3145 0.89477 0.0
C529 C 0.5039 0.34323 0.93599 0.0
O530 O 0.54467 0.36805 0.86696 0.0
O531 O 0.51904 0.38613 0.88318 0.0
O532 O 0.54729 0.32815 0.87972 0.0
O533 O 0.52247 0.32197 0.90294 0.0
O534 O 0.5127 0.35645 0.91995 0.0
O535 O 0.49536 0.32362 0.93053 0.0
C536 C 0.48529 0.26786 0.9058 0.0
O537 O 0.46992 0.28309 0.90821 0.0
O538 O 0.50263 0.27725 0.89686 0.0
C539 C 0.46675 0.34633 0.88747 0.0
Tb540 Tb 0.71365 0.48032 0.88428 0.0
C541 C 0.71916 0.50167 0.83647 0.0
Tb542 Tb 0.69458 0.52302 0.87872 0.0
O543 O 0.68305 0.46878 0.89972 0.0
O544 O 0.6816 0.49091 0.8733 0.0
O545 O 0.72629 0.48698 0.85078 0.0
C546 C 0.66734 0.55817 0.87697 0.0
O547 O 0.70398 0.51671 0.843 0.0
C548 C 0.7379 0.52469 0.87672 0.0
C549 C 0.70204 0.50406 0.92895 0.0
O550 O 0.68526 0.55703 0.88846 0.0
O551 O 0.66454 0.53938 0.8667 0.0
O552 O 0.7248 0.53771 0.86602 0.0
O553 O 0.7264 0.51279 0.88988 0.0
O554 O 0.69078 0.51793 0.91588 0.0
O555 O 0.71497 0.48844 0.91973 0.0
C556 C 0.73234 0.44085 0.87703 0.0
O557 O 0.71324 0.44701 0.86991 0.0
O558 O 0.74058 0.45664 0.88925 0.0
C559 C 0.67003 0.48021 0.88741 0.0
Tb560 Tb 0.52281 0.30364 0.14198 0.0
C561 C 0.51467 0.30601 0.19416 0.0
Tb562 Tb 0.50667 0.34738 0.16101 0.0
O563 O 0.55587 0.31725 0.13487 0.0
O564 O 0.53663 0.3296 0.1617 0.0
O565 O 0.51683 0.29345 0.17609 0.0
C566 C 0.4981 0.38974 0.17246 0.0
O567 O 0.513 0.32827 0.19254 0.0
C568 C 0.47562 0.31979 0.14976 0.0
C569 C 0.51635 0.34103 0.10651 0.0
O570 O 0.48855 0.37232 0.18073 0.0
O571 O 0.51341 0.38322 0.15825 0.0
O572 O 0.47285 0.33417 0.16566 0.0
O573 O 0.49398 0.32309 0.1403 0.0
O574 O 0.51147 0.35486 0.12384 0.0
O575 O 0.52004 0.31964 0.10987 0.0
C576 C 0.518 0.26212 0.12654 0.0
O577 O 0.53673 0.27169 0.13151 0.0
O578 O 0.50215 0.27582 0.13208 0.0
C579 C 0.5541 0.33268 0.15013 0.0
Tb580 Tb 0.70016 0.54471 0.14483 0.0
C581 C 0.70877 0.52588 0.19311 0.0
Tb582 Tb 0.6844 0.50066 0.15377 0.0
O583 O 0.6677 0.55148 0.13193 0.0
O584 O 0.67016 0.5323 0.16041 0.0
O585 O 0.7139 0.54092 0.17792 0.0
C586 C 0.65628 0.46596 0.15693 0.0
O587 O 0.69423 0.5097 0.18847 0.0
C588 C 0.72751 0.50248 0.15039 0.0
C589 C 0.69248 0.51677 0.10178 0.0
O590 O 0.67779 0.4649 0.15761 0.0
O591 O 0.65061 0.48657 0.15466 0.0
O592 O 0.71668 0.48858 0.16303 0.0
O593 O 0.71384 0.51295 0.1388 0.0
O594 O 0.68304 0.50198 0.11583 0.0
O595 O 0.70256 0.53451 0.10999 0.0
C596 C 0.71543 0.58604 0.14208 0.0
O597 O 0.72685 0.56821 0.13756 0.0
O598 O 0.69551 0.58049 0.14818 0.0
C599 C 0.65664 0.54102 0.1472 0.0
Tb600 Tb 0.49861 0.72602 0.14216 0.0
C601 C 0.50363 0.72025 0.19327 0.0
Tb602 Tb 0.52011 0.68249 0.15519 0.0
O603 O 0.4652 0.71438 0.15209 0.0
O604 O 0.48993 0.69204 0.14148 0.0
O605 O 0.49879 0.73405 0.1771 0.0
C606 C 0.53563 0.64403 0.17099 0.0
O607 O 0.51038 0.69909 0.18872 0.0
C608 C 0.54677 0.71481 0.14669 0.0
C609 C 0.51385 0.69265 0.10225 0.0
O610 O 0.54523 0.66319 0.1718 0.0
O611 O 0.51649 0.64643 0.16157 0.0
O612 O 0.55178 0.6944 0.14173 0.0
O613 O 0.52825 0.71567 0.15651 0.0
O614 O 0.52012 0.67784 0.11765 0.0
O615 O 0.50538 0.71227 0.10843 0.0
C616 C 0.50421 0.76645 0.12514 0.0
O617 O 0.48506 0.7574 0.13046 0.0
O618 O 0.51973 0.75261 0.13013 0.0
C619 C 0.47072 0.69341 0.15013 0.0
Tb620 Tb 0.34358 0.52562 0.1437 0.0
C621 C 0.33157 0.53513 0.09184 0.0
Tb622 Tb 0.31513 0.56088 0.13371 0.0
O623 O 0.31873 0.50384 0.15718 0.0
O624 O 0.31064 0.52568 0.13126 0.0
O625 O 0.34595 0.52626 0.10606 0.0
C626 C 0.29281 0.59922 0.13389 0.0
O627 O 0.31544 0.5483 0.09961 0.0
C628 C 0.35765 0.57171 0.13209 0.0
C629 C 0.31101 0.54333 0.18251 0.0
O630 O 0.30971 0.59459 0.14581 0.0
O631 O 0.2878 0.5815 0.12244 0.0
O632 O 0.34348 0.57626 0.11705 0.0
O633 O 0.34793 0.56029 0.1469 0.0
O634 O 0.30117 0.55434 0.16664 0.0
O635 O 0.32988 0.53219 0.17811 0.0
C636 C 0.38084 0.50197 0.14936 0.0
O637 O 0.36311 0.49499 0.13964 0.0
O638 O 0.37758 0.52228 0.15595 0.0
C639 C 0.30291 0.51178 0.14521 0.0
Tb640 Tb 0.89153 0.52259 0.71815 0.0
C641 C 0.84019 0.51188 0.71672 0.0
Tb642 Tb 0.87631 0.49564 0.67945 0.0
O643 O 0.89756 0.55191 0.69782 0.0
O644 O 0.87271 0.52917 0.68905 0.0
O645 O 0.85718 0.51872 0.72846 0.0
C646 C 0.86828 0.47401 0.64113 0.0
O647 O 0.8432 0.50457 0.69564 0.0
C648 C 0.88625 0.47316 0.7146 0.0
C649 C 0.9296 0.50833 0.68516 0.0
O650 O 0.86013 0.46935 0.66059 0.0
O651 O 0.88031 0.49185 0.64294 0.0
O652 O 0.87127 0.46677 0.70098 0.0
O653 O 0.8959 0.48983 0.70682 0.0
O654 O 0.91337 0.50099 0.67175 0.0
O655 O 0.92483 0.51568 0.70548 0.0
C656 C 0.90246 0.52712 0.76068 0.0
O657 O 0.90167 0.54304 0.74612 0.0
O658 O 0.8956 0.50912 0.75118 0.0
C659 C 0.88366 0.54592 0.68255 0.0
Tb660 Tb 0.50331 0.89155 0.72804 0.0
C661 C 0.52081 0.84231 0.7247 0.0
Tb662 Tb 0.5252 0.87796 0.68462 0.0
O663 O 0.4731 0.9002 0.70976 0.0
O664 O 0.49346 0.8745 0.6987 0.0
O665 O 0.51626 0.85961 0.73759 0.0
C666 C 0.53944 0.86214 0.64521 0.0
O667 O 0.52394 0.84496 0.70264 0.0
C668 C 0.55176 0.89868 0.71066 0.0
C669 C 0.51337 0.9304 0.69614 0.0
O670 O 0.54837 0.85848 0.66426 0.0
O671 O 0.52166 0.87424 0.6484 0.0
O672 O 0.55394 0.89874 0.68926 0.0
O673 O 0.53648 0.88557 0.71661 0.0
O674 O 0.51517 0.91442 0.68014 0.0
O675 O 0.51177 0.9248 0.7174 0.0
C676 C 0.4883 0.88965 0.76971 0.0
O677 O 0.48282 0.87647 0.75366 0.0
O678 O 0.50118 0.90535 0.762 0.0
C679 C 0.47671 0.8857 0.69404 0.0
Tb680 Tb 0.13525 0.50362 0.72196 0.0
C681 C 0.18626 0.51562 0.72086 0.0
Tb682 Tb 0.15197 0.5311 0.68365 0.0
O683 O 0.13065 0.47424 0.70119 0.0
O684 O 0.1553 0.49748 0.69251 0.0
O685 O 0.16882 0.5094 0.73299 0.0
C686 C 0.1624 0.55354 0.6463 0.0
O687 O 0.1842 0.52146 0.69946 0.0
C688 C 0.13934 0.55313 0.71949 0.0
C689 C 0.09896 0.51781 0.68833 0.0
O690 O 0.17055 0.55677 0.66576 0.0
O691 O 0.149 0.53662 0.64751 0.0
O692 O 0.15441 0.56024 0.70576 0.0
O693 O 0.13084 0.53621 0.71118 0.0
O694 O 0.11586 0.52472 0.67496 0.0
O695 O 0.10267 0.51113 0.70883 0.0
C696 C 0.12053 0.49702 0.76361 0.0
O697 O 0.12313 0.4818 0.74821 0.0
O698 O 0.12814 0.51546 0.75559 0.0
C699 C 0.14479 0.48058 0.6858 0.0
Tb700 Tb 0.52033 0.1364 0.72914 0.0
C701 C 0.51253 0.18807 0.72988 0.0
Tb702 Tb 0.50424 0.15639 0.68737 0.0
O703 O 0.55151 0.12734 0.71158 0.0
O704 O 0.53491 0.15636 0.70326 0.0
O705 O 0.51323 0.16967 0.74166 0.0
C706 C 0.49671 0.17116 0.64631 0.0
O707 O 0.51189 0.18703 0.70758 0.0
C708 C 0.47246 0.1459 0.716 0.0
C709 C 0.51032 0.1018 0.6915 0.0
O710 O 0.48931 0.1799 0.66474 0.0
O711 O 0.50901 0.15417 0.651 0.0
O712 O 0.47041 0.1609 0.70094 0.0
O713 O 0.49045 0.13619 0.71194 0.0
O714 O 0.50779 0.11949 0.67804 0.0
O715 O 0.51341 0.10475 0.71301 0.0
C716 C 0.52288 0.11815 0.76955 0.0
O717 O 0.50511 0.12013 0.75789 0.0
O718 O 0.53847 0.12913 0.75905 0.0
C719 C 0.55113 0.14401 0.69806 0.0
Tb720 Tb 0.88136 0.51102 0.30528 0.0
C721 C 0.83106 0.52412 0.30841 0.0
Tb722 Tb 0.86888 0.54379 0.34046 0.0
O723 O 0.86357 0.48433 0.32273 0.0
O724 O 0.87796 0.50997 0.34072 0.0
O725 O 0.84766 0.51697 0.2956 0.0
C726 C 0.86545 0.5711 0.37592 0.0
O727 O 0.83495 0.5328 0.32872 0.0
C728 C 0.87026 0.5601 0.30042 0.0
C729 C 0.92187 0.53172 0.33048 0.0
O730 O 0.86078 0.54996 0.37617 0.0
O731 O 0.87178 0.57644 0.35602 0.0
O732 O 0.85566 0.5657 0.31563 0.0
O733 O 0.8832 0.54597 0.30856 0.0
O734 O 0.90671 0.54422 0.34181 0.0
O735 O 0.91545 0.51671 0.31568 0.0
C736 C 0.89635 0.49727 0.26543 0.0
O737 O 0.89785 0.48642 0.28402 0.0
O738 O 0.88508 0.51517 0.26958 0.0
C739 C 0.86579 0.49299 0.34247 0.0
Tb740 Tb 0.52231 0.89116 0.31055 0.0
C741 C 0.51442 0.84032 0.3132 0.0
Tb742 Tb 0.5022 0.87598 0.35433 0.0
O743 O 0.55496 0.87729 0.31888 0.0
O744 O 0.53323 0.88863 0.34393 0.0
O745 O 0.51781 0.85739 0.29994 0.0
C746 C 0.48667 0.8598 0.39323 0.0
O747 O 0.5103 0.84349 0.33532 0.0
C748 C 0.47407 0.8904 0.32663 0.0
C749 C 0.51045 0.92925 0.34629 0.0
O750 O 0.50272 0.87415 0.39089 0.0
O751 O 0.48062 0.85375 0.37358 0.0
O752 O 0.47119 0.89279 0.34784 0.0
O753 O 0.49121 0.8792 0.3221 0.0
O754 O 0.50425 0.91321 0.36069 0.0
O755 O 0.51793 0.9241 0.32597 0.0
C756 C 0.5207 0.91129 0.27118 0.0
O757 O 0.53872 0.90463 0.28079 0.0
O758 O 0.5039 0.90588 0.28377 0.0
C759 C 0.55135 0.87862 0.34034 0.0
Tb760 Tb 0.13981 0.56277 0.30371 0.0
C761 C 0.18246 0.5368 0.29373 0.0
Tb762 Tb 0.14365 0.52325 0.32944 0.0
O763 O 0.1641 0.57756 0.32623 0.0
O764 O 0.14035 0.55648 0.33865 0.0
O765 O 0.16676 0.5483 0.28398 0.0
C766 C 0.15581 0.49493 0.36101 0.0
O767 O 0.17807 0.5279 0.31376 0.0
C768 C 0.12436 0.51498 0.29261 0.0
C769 C 0.09474 0.54415 0.3255 0.0
O770 O 0.14943 0.51524 0.36427 0.0
O771 O 0.15532 0.49044 0.33991 0.0
O772 O 0.12017 0.50467 0.3111 0.0
O773 O 0.14049 0.5283 0.29457 0.0
O774 O 0.10769 0.53062 0.33719 0.0
O775 O 0.10384 0.55759 0.31036 0.0
C776 C 0.13564 0.60302 0.28506 0.0
O777 O 0.12072 0.58736 0.28537 0.0
O778 O 0.15331 0.59477 0.29348 0.0
C779 C 0.15674 0.56794 0.34384 0.0
Tb780 Tb 0.48861 0.14151 0.31267 0.0
C781 C 0.50333 0.19195 0.31773 0.0
Tb782 Tb 0.51499 0.15328 0.35277 0.0
O783 O 0.45789 0.13587 0.33145 0.0
O784 O 0.48173 0.15831 0.34342 0.0
O785 O 0.49225 0.17677 0.30649 0.0
C786 C 0.53626 0.15671 0.39137 0.0
O787 O 0.51306 0.18713 0.33705 0.0
C788 C 0.5378 0.14588 0.31643 0.0
C789 C 0.50028 0.10126 0.34343 0.0
O790 O 0.51818 0.16753 0.38673 0.0
O791 O 0.5418 0.14432 0.37451 0.0
O792 O 0.54361 0.16049 0.3311 0.0
O793 O 0.52089 0.13573 0.32341 0.0
O794 O 0.50618 0.11685 0.35846 0.0
O795 O 0.49475 0.10732 0.32308 0.0
C796 C 0.48657 0.1353 0.26863 0.0
O797 O 0.47031 0.13243 0.2831 0.0
O798 O 0.5032 0.14335 0.27935 0.0
C799 C 0.46404 0.14793 0.34836 0.0
Tb800 Tb 0.69888 0.887 0.54507 0.0
C801 C 0.71429 0.84318 0.52039 0.0
Tb802 Tb 0.68835 0.88589 0.49852 0.0
O803 O 0.67251 0.86293 0.55057 0.0
O804 O 0.66829 0.88792 0.5278 0.0
O805 O 0.71499 0.85492 0.53916 0.0
C806 C 0.66571 0.87682 0.46131 0.0
O807 O 0.70413 0.85168 0.50253 0.0
C808 C 0.72895 0.90037 0.50528 0.0
C809 C 0.68799 0.93306 0.522 0.0
O810 O 0.68225 0.89054 0.46287 0.0
O811 O 0.66233 0.86777 0.4806 0.0
O812 O 0.71623 0.90698 0.48941 0.0
O813 O 0.71864 0.88539 0.51564 0.0
O814 O 0.67868 0.92087 0.5061 0.0
O815 O 0.69933 0.923 0.53774 0.0
C816 C 0.70809 0.89588 0.58732 0.0
O817 O 0.6892 0.89932 0.57811 0.0
O818 O 0.72193 0.88761 0.57259 0.0
C819 C 0.65896 0.87128 0.53653 0.0
Tb820 Tb 0.70456 0.14791 0.48613 0.0
C821 C 0.71517 0.19496 0.50488 0.0
Tb822 Tb 0.68591 0.15699 0.53072 0.0
O823 O 0.68191 0.17258 0.47328 0.0
O824 O 0.67147 0.1526 0.49927 0.0
O825 O 0.72205 0.17898 0.49103 0.0
C826 C 0.6578 0.16122 0.56604 0.0
O827 O 0.6983 0.19108 0.51966 0.0
C828 C 0.72882 0.1557 0.5298 0.0
C829 C 0.69047 0.1056 0.51467 0.0
O830 O 0.65398 0.16806 0.54601 0.0
O831 O 0.67753 0.15251 0.56615 0.0
O832 O 0.71712 0.1678 0.54373 0.0
O833 O 0.71632 0.14306 0.51874 0.0
O834 O 0.68276 0.11972 0.53038 0.0
O835 O 0.70036 0.11328 0.4964 0.0
C836 C 0.71855 0.12983 0.4479 0.0
O837 O 0.69822 0.13016 0.45537 0.0
O838 O 0.73117 0.14024 0.46185 0.0
C839 C 0.66553 0.16816 0.48679 0.0
Tb840 Tb 0.89389 0.72809 0.51441 0.0
C841 C 0.84196 0.7288 0.5226 0.0
Tb842 Tb 0.87456 0.68865 0.53675 0.0
O843 O 0.9028 0.70782 0.48513 0.0
O844 O 0.87418 0.7003 0.50402 0.0
O845 O 0.8603 0.74035 0.51891 0.0
C846 C 0.86359 0.6488 0.55407 0.0
O847 O 0.84318 0.70681 0.52674 0.0
C848 C 0.88197 0.72208 0.56306 0.0
C849 C 0.92945 0.69388 0.52845 0.0
O850 O 0.85517 0.66784 0.55969 0.0
O851 O 0.87748 0.65199 0.53752 0.0
O852 O 0.86682 0.70745 0.567 0.0
O853 O 0.8939 0.71552 0.54694 0.0
O854 O 0.91196 0.68052 0.53354 0.0
O855 O 0.92607 0.71459 0.52245 0.0
C856 C 0.91023 0.7689 0.5087 0.0
O857 O 0.90416 0.75527 0.49301 0.0
O858 O 0.9049 0.75984 0.52752 0.0
C859 C 0.88663 0.69377 0.48814 0.0
Tb860 Tb 0.31154 0.89749 0.50168 0.0
C861 C 0.30949 0.84954 0.52157 0.0
Tb862 Tb 0.34697 0.88678 0.53515 0.0
O863 O 0.32843 0.87751 0.47545 0.0
O864 O 0.34649 0.89125 0.50074 0.0
O865 O 0.29971 0.86512 0.51021 0.0
C866 C 0.38134 0.87401 0.55958 0.0
O867 O 0.32937 0.85334 0.53088 0.0
C868 C 0.31406 0.90901 0.55235 0.0
C869 C 0.33975 0.93806 0.51707 0.0
O870 O 0.36061 0.86923 0.56334 0.0
O871 O 0.38292 0.88535 0.5413 0.0
O872 O 0.33339 0.90779 0.5613 0.0
O873 O 0.3133 0.895 0.53661 0.0
O874 O 0.35351 0.92345 0.527 0.0
O875 O 0.32142 0.9313 0.50736 0.0
C876 C 0.27173 0.90447 0.48611 0.0
O877 O 0.27587 0.89443 0.5044 0.0
O878 O 0.29014 0.9113 0.47654 0.0
C879 C 0.34766 0.87764 0.48486 0.0
Tb880 Tb 0.14846 0.35418 0.51429 0.0
C881 C 0.09916 0.35315 0.53349 0.0
Tb882 Tb 0.14281 0.33674 0.55828 0.0
O883 O 0.12712 0.32991 0.49854 0.0
O884 O 0.14457 0.3218 0.527 0.0
O885 O 0.11323 0.36417 0.52016 0.0
C886 C 0.13198 0.32283 0.59891 0.0
O887 O 0.10729 0.3397 0.54883 0.0
C888 C 0.16201 0.37622 0.55777 0.0
C889 C 0.18663 0.32091 0.53198 0.0
O890 O 0.12679 0.34188 0.59081 0.0
O891 O 0.14259 0.31123 0.58383 0.0
O892 O 0.16895 0.35905 0.56828 0.0
O893 O 0.14562 0.37013 0.54632 0.0
O894 O 0.17303 0.31738 0.54943 0.0
O895 O 0.18111 0.33604 0.51679 0.0
C896 C 0.16002 0.38004 0.47994 0.0
O897 O 0.14607 0.36372 0.47952 0.0
O898 O 0.16795 0.38169 0.49978 0.0
C899 C 0.12964 0.31563 0.5143 0.0
Tb900 Tb 0.33754 0.16179 0.51814 0.0
C901 C 0.33314 0.10885 0.50613 0.0
Tb902 Tb 0.31093 0.14791 0.48102 0.0
O903 O 0.30959 0.17075 0.5394 0.0
O904 O 0.30699 0.14462 0.51586 0.0
O905 O 0.34426 0.12483 0.51689 0.0
C906 C 0.28722 0.13798 0.44534 0.0
O907 O 0.31704 0.11415 0.49244 0.0
C908 C 0.35379 0.15191 0.47221 0.0
C909 C 0.30274 0.197 0.50032 0.0
O910 O 0.30442 0.15084 0.44575 0.0
O911 O 0.28251 0.13207 0.46564 0.0
O912 O 0.34151 0.13592 0.46526 0.0
O913 O 0.34183 0.16533 0.4834 0.0
O914 O 0.29517 0.18043 0.48782 0.0
O915 O 0.3214 0.19448 0.51178 0.0
C916 C 0.37366 0.17044 0.54179 0.0
O917 O 0.37124 0.17527 0.52103 0.0
O918 O 0.35559 0.16114 0.54931 0.0
C919 C 0.29633 0.1569 0.52957 0.0
Tb920 Tb 0.8934 0.3063 0.5137 0.0
C921 C 0.84159 0.30951 0.50596 0.0
Tb922 Tb 0.87699 0.34849 0.49196 0.0
O923 O 0.9021 0.32517 0.54394 0.0
O924 O 0.87633 0.33576 0.52416 0.0
O925 O 0.85895 0.29676 0.51023 0.0
C926 C 0.87331 0.38756 0.47096 0.0
O927 O 0.84419 0.33116 0.50034 0.0
C928 C 0.87927 0.31407 0.46615 0.0
C929 C 0.92996 0.34114 0.5039 0.0
O930 O 0.86003 0.38091 0.48712 0.0
O931 O 0.88845 0.37257 0.46756 0.0
O932 O 0.86585 0.33038 0.46291 0.0
O933 O 0.89261 0.31918 0.48121 0.0
O934 O 0.91307 0.35568 0.50141 0.0
O935 O 0.92586 0.31976 0.50575 0.0
C936 C 0.91021 0.26541 0.51757 0.0
O937 O 0.90895 0.27674 0.49947 0.0
O938 O 0.90029 0.2769 0.53339 0.0
C939 C 0.88797 0.34107 0.54041 0.0
Tb940 Tb 0.13852 0.72998 0.53648 0.0
C941 C 0.19016 0.72837 0.52355 0.0
Tb942 Tb 0.15343 0.69308 0.50698 0.0
O943 O 0.13054 0.70756 0.56398 0.0
O944 O 0.1562 0.6997 0.54112 0.0
O945 O 0.17357 0.73906 0.53384 0.0
C946 C 0.15719 0.65719 0.48086 0.0
O947 O 0.18676 0.70901 0.51276 0.0
C948 C 0.14654 0.73041 0.4869 0.0
C949 C 0.10084 0.69779 0.52205 0.0
O950 O 0.14444 0.67409 0.478 0.0
O951 O 0.16835 0.66018 0.49899 0.0
O952 O 0.16223 0.71671 0.48105 0.0
O953 O 0.13518 0.72216 0.50259 0.0
O954 O 0.11762 0.68398 0.51613 0.0
O955 O 0.10525 0.71849 0.52806 0.0
C956 C 0.12588 0.77146 0.54633 0.0
O957 O 0.12828 0.75534 0.56043 0.0
O958 O 0.13299 0.76427 0.52711 0.0
C959 C 0.14457 0.69235 0.55714 0.0
C960 C 0.02097 0.18008 0.56737 0.0
C961 C 1.00088 0.18433 0.57913 0.0
C962 C 0.02199 0.17848 0.54367 0.0
C963 C 1.00246 0.18107 0.53089 0.0
C964 C 0.98206 0.18471 0.54286 0.0
C965 C 0.98158 0.18637 0.56649 0.0
C966 C 0.04433 0.17526 0.53224 0.0
C967 C 0.96067 0.1877 0.53063 0.0
C968 C 0.00708 0.20507 0.47147 0.0
C969 C 0.00628 0.1864 0.45709 0.0
C970 C 0.00626 0.2034 0.49491 0.0
C971 C 1.00367 0.18249 0.5053 0.0
C972 C 1.00199 0.16345 0.49105 0.0
C973 C 1.00348 0.16556 0.46731 0.0
C974 C 0.00865 0.22428 0.50861 0.0
C975 C 0.99871 0.14077 0.50094 0.0
H976 H 0.03615 0.17903 0.57667 0.0
H977 H 0.96597 0.18976 0.57518 0.0
H978 H 0.04336 0.16245 0.51893 0.0
H979 H 0.0495 0.19104 0.52428 0.0
H980 H 0.05733 0.17034 0.54406 0.0
H981 H 0.94594 0.18832 0.54209 0.0
H982 H 0.96132 0.20339 0.5211 0.0
H983 H 0.9585 0.17393 0.51849 0.0
H984 H 0.0086 0.22148 0.46438 0.0
H985 H 1.00266 0.15086 0.45684 0.0
H986 H 0.02317 0.22266 0.51951 0.0
H987 H 0.9937 0.22662 0.51945 0.0
H988 H 0.01098 0.23931 0.49824 0.0
H989 H 0.01303 0.13662 0.51145 0.0
H990 H 0.99702 0.12765 0.48799 0.0
H991 H 0.9836 0.14075 0.51188 0.0
C992 C 0.85303 1.00211 0.56076 0.0
C993 C 0.8356 0.01485 0.57039 0.0
C994 C 0.85446 0.99776 0.53739 0.0
C995 C 0.83808 1.00617 0.52287 0.0
C996 C 0.82053 0.01902 0.53256 0.0
C997 C 0.81956 0.02318 0.55582 0.0
C998 C 0.87347 0.98389 0.5282 0.0
C999 C 0.80242 0.02828 0.51833 0.0
C1000 C 0.84816 0.01115 0.45888 0.0
C1001 C 0.83656 0.99275 0.45034 0.0
C1002 C 0.84924 0.01544 0.4822 0.0
C1003 C 0.83864 1.00099 0.49782 0.0
C1004 C 0.82749 0.98208 0.48923 0.0
C1005 C 0.82658 0.97833 0.46593 0.0
C1006 C 0.8614 0.03579 0.49014 0.0
C1007 C 0.81585 0.96595 0.50462 0.0
H1008 H 0.86561 0.99549 0.57148 0.0
H1009 H 0.80589 0.03302 0.56261 0.0
H1010 H 0.8669 0.96859 0.5203 0.0
H1011 H 0.88268 0.99321 0.5151 0.0
H1012 H 0.88526 0.97906 0.54126 0.0
H1013 H 0.79031 0.03862 0.52807 0.0
H1014 H 0.80981 0.03854 0.50484 0.0
H1015 H 0.7933 0.01445 0.51033 0.0
H1016 H 0.85605 0.02255 0.44731 0.0
H1017 H 0.81796 0.96389 0.45985 0.0
H1018 H 0.874 0.03106 0.50243 0.0
H1019 H 0.84951 0.04729 0.49868 0.0
H1020 H 0.86983 0.04477 0.47627 0.0
H1021 H 0.82613 0.96229 0.51922 0.0
H1022 H 0.81194 0.95004 0.49609 0.0
H1023 H 0.80003 0.97345 0.5109 0.0
C1024 C 0.036 0.8322 0.57169 0.0
C1025 C 0.02074 0.84235 0.58686 0.0
C1026 C 0.03532 0.83529 0.54821 0.0
C1027 C 0.01871 0.84874 0.53863 0.0
C1028 C 1.00406 0.86026 0.55389 0.0
C1029 C 1.00516 0.85692 0.5775 0.0
C1030 C 0.05218 0.82342 0.53349 0.0
C1031 C 0.98676 0.87589 0.54527 0.0
C1032 C 0.02688 0.85945 0.47425 0.0
C1033 C 0.01323 0.84311 0.4645 0.0
C1034 C 0.02813 0.86235 0.49798 0.0
C1035 C 0.01555 0.84863 0.51299 0.0
C1036 C 1.0009 0.83311 0.50311 0.0
C1037 C 1.00007 0.83051 0.47954 0.0
C1038 C 0.04344 0.87996 0.5068 0.0
C1039 C 0.98636 0.81853 0.51757 0.0
H1040 H 0.0484 0.82117 0.57821 0.0
H1041 H 0.99317 0.8651 0.58852 0.0
H1042 H 0.04397 0.80976 0.52429 0.0
H1043 H 0.05944 0.83485 0.52096 0.0
H1044 H 0.06594 0.81656 0.54324 0.0
H1045 H 0.98022 0.88722 0.55855 0.0
H1046 H 0.99376 0.88596 0.53142 0.0
H1047 H 0.97264 0.8662 0.53871 0.0
H1048 H 0.03722 0.86958 0.4634 0.0
H1049 H 0.98915 0.81806 0.47283 0.0
H1050 H 0.06015 0.87266 0.50914 0.0
H1051 H 0.03733 0.88672 0.52305 0.0
H1052 H 0.04533 0.89385 0.49487 0.0
H1053 H 0.97284 0.81093 0.50799 0.0
H1054 H 0.97864 0.82804 0.53157 0.0
H1055 H 0.99659 0.80524 0.52486 0.0
C1056 C 0.19121 0.02627 0.56558 0.0
C1057 C 0.17857 0.01242 0.57995 0.0
C1058 C 0.19148 0.02373 0.54201 0.0
C1059 C 0.17834 0.00719 0.53159 0.0
C1060 C 0.16533 0.99323 0.5459 0.0
C1061 C 0.16576 0.99582 0.5696 0.0
C1062 C 0.2062 0.03881 0.52822 0.0
C1063 C 0.15078 0.97547 0.5361 0.0
C1064 C 0.16458 0.0165 0.46911 0.0
C1065 C 0.17944 1.00224 0.45738 0.0
C1066 C 0.16363 0.01776 0.49285 0.0
C1067 C 0.17818 1.0048 0.50593 0.0
C1068 C 0.19321 0.99034 0.49418 0.0
C1069 C 0.19354 0.98916 0.47043 0.0
C1070 C 0.14702 0.03323 0.504 0.0
C1071 C 0.20959 0.97648 0.50668 0.0
H1072 H 0.20137 0.03919 0.57279 0.0
H1073 H 0.1559 0.98483 0.58003 0.0
H1074 H 0.21797 0.02873 0.51784 0.0
H1075 H 0.19596 0.04862 0.51675 0.0
H1076 H 0.21593 0.05047 0.5386 0.0
H1077 H 0.14123 0.96625 0.54906 0.0
H1078 H 0.13893 0.98305 0.5245 0.0
H1079 H 0.16115 0.96348 0.52631 0.0
H1080 H 0.15351 0.02682 0.45967 0.0
H1081 H 0.2054 0.97831 0.46203 0.0
H1082 H 0.15589 0.04647 0.51316 0.0
H1083 H 0.1367 0.02402 0.51635 0.0
H1084 H 0.13588 0.04116 0.4919 0.0
H1085 H 0.22192 0.98754 0.51459 0.0
H1086 H 0.21866 0.96448 0.49563 0.0
H1087 H 0.20099 0.96717 0.52017 0.0
C1088 C 0.55866 0.03165 0.1931 0.0
C1089 C 0.57376 0.0149 0.18631 0.0
C1090 C 0.53523 0.02963 0.1905 0.0
C1091 C 0.52577 0.00998 0.18104 0.0
C1092 C 0.5412 0.99334 0.17332 0.0
C1093 C 0.5646 0.99587 0.17629 0.0
C1094 C 0.5211 0.04897 0.19841 0.0
C1095 C 0.53344 0.97236 0.16208 0.0
C1096 C 0.4658 0.99051 0.19787 0.0
C1097 C 0.45173 1.00222 0.18361 0.0
C1098 C 0.48944 0.99198 0.19648 0.0
C1099 C 0.5002 1.00623 0.18078 0.0
C1100 C 0.4861 0.01734 0.16557 0.0
C1101 C 0.46235 0.01536 0.16724 0.0
C1102 C 0.50274 0.97853 0.21252 0.0
C1103 C 0.49602 0.03188 0.14768 0.0
H1104 H 0.56514 0.04632 0.20126 0.0
H1105 H 0.57571 0.98244 0.17132 0.0
H1106 H 0.50309 0.0453 0.19919 0.0
H1107 H 0.52645 0.0547 0.21506 0.0
H1108 H 0.52384 0.06308 0.18692 0.0
H1109 H 0.54428 0.96858 0.14732 0.0
H1110 H 0.53511 0.95826 0.17368 0.0
H1111 H 0.51598 0.97332 0.15664 0.0
H1112 H 0.4582 0.98061 0.21092 0.0
H1113 H 0.45208 0.02494 0.15627 0.0
H1114 H 0.51739 0.98787 0.21837 0.0
H1115 H 0.50876 0.96316 0.20407 0.0
H1116 H 0.49252 0.97347 0.2272 0.0
H1117 H 0.49984 0.04842 0.15489 0.0
H1118 H 0.48431 0.0343 0.13389 0.0
H1119 H 0.51174 0.02466 0.1408 0.0
C1120 C 0.0347 0.56322 0.17404 0.0
C1121 C 0.01947 0.57286 0.18934 0.0
C1122 C 0.03443 0.54005 0.16905 0.0
C1123 C 0.01856 0.52573 0.17963 0.0
C1124 C 1.00166 0.5361 0.19321 0.0
C1125 C 1.00278 0.55911 0.19835 0.0
C1126 C 0.05135 0.53137 0.15224 0.0
C1127 C 0.98159 0.52371 0.20199 0.0
C1128 C 0.00887 0.46232 0.16885 0.0
C1129 C 0.02399 0.45246 0.18334 0.0
C1130 C 0.00753 0.48589 0.16646 0.0
C1131 C 0.02137 0.50032 0.17906 0.0
C1132 C 0.03778 0.49021 0.19228 0.0
C1133 C 0.03846 0.4668 0.19462 0.0
C1134 C 0.99082 0.49521 0.15076 0.0
C1135 C 0.05441 0.50423 0.20455 0.0
H1136 H 0.04743 0.57363 0.16648 0.0
H1137 H 0.99037 0.56642 0.20956 0.0
H1138 H 0.06834 0.53399 0.15859 0.0
H1139 H 0.04912 0.51355 0.14807 0.0
H1140 H 0.05027 0.54109 0.13669 0.0
H1141 H 0.9667 0.52974 0.19329 0.0
H1142 H 0.98251 0.50555 0.19951 0.0
H1143 H 0.9787 0.52757 0.21987 0.0
H1144 H 0.99736 0.45172 0.16011 0.0
H1145 H 0.05009 0.45961 0.20593 0.0
H1146 H 0.99668 0.51107 0.14341 0.0
H1147 H 0.97494 0.49844 0.15997 0.0
H1148 H 0.98735 0.48324 0.13711 0.0
H1149 H 0.06532 0.51302 0.19247 0.0
H1150 H 0.06531 0.4942 0.21509 0.0
H1151 H 0.04576 0.51698 0.21502 0.0
C1152 C 0.56197 0.03498 0.81734 0.0
C1153 C 0.5757 0.03161 0.83583 0.0
C1154 C 0.53837 0.03336 0.81867 0.0
C1155 C 0.5272 0.02836 0.83907 0.0
C1156 C 0.54083 0.02471 0.85786 0.0
C1157 C 0.56462 0.02634 0.85605 0.0
C1158 C 0.52522 0.03702 0.79798 0.0
C1159 C 0.53024 0.01871 0.87992 0.0
C1160 C 0.46385 0.04341 0.84446 0.0
C1161 C 0.4531 0.02361 0.83808 0.0
C1162 C 0.48757 0.04509 0.84528 0.0
C1163 C 0.50151 0.02643 0.8402 0.0
C1164 C 0.49065 1.00625 0.8344 0.0
C1165 C 0.46702 1.00519 0.83316 0.0
C1166 C 0.49781 0.06721 0.85092 0.0
C1167 C 0.50411 0.98566 0.82898 0.0
H1168 H 0.56973 0.03859 0.80137 0.0
H1169 H 0.57452 0.02337 0.87055 0.0
H1170 H 0.53607 0.03865 0.783 0.0
H1171 H 0.51364 0.02303 0.79512 0.0
H1172 H 0.51502 0.05228 0.80008 0.0
H1173 H 0.54272 0.01638 0.89303 0.0
H1174 H 0.5184 0.0319 0.8854 0.0
H1175 H 0.52056 1.00313 0.87814 0.0
H1176 H 0.45372 0.05793 0.84818 0.0
H1177 H 0.45937 0.98966 0.82827 0.0
H1178 H 0.5077 0.07327 0.8364 0.0
H1179 H 0.50938 0.06538 0.86489 0.0
H1180 H 0.48509 0.07992 0.85555 0.0
H1181 H 0.51398 0.98816 0.8134 0.0
H1182 H 0.4935 0.97077 0.8268 0.0
H1183 H 0.51604 0.98241 0.84237 0.0
C1184 C 0.98777 0.5571 0.84722 0.0
C1185 C 1.00144 0.57159 0.85944 0.0
C1186 C 0.9888 0.53368 0.84907 0.0
C1187 C 1.00348 0.52364 0.86415 0.0
C1188 C 0.0164 0.53812 0.87767 0.0
C1189 C 0.0154 0.56172 0.87506 0.0
C1190 C 0.97484 0.51961 0.83387 0.0
C1191 C 0.03186 0.52871 0.89455 0.0
C1192 C 0.99299 0.46014 0.8723 0.0
C1193 C 0.00864 0.45046 0.85737 0.0
C1194 C 0.99193 0.48368 0.87579 0.0
C1195 C 0.00656 0.49827 0.86386 0.0
C1196 C 0.023 0.48836 0.84967 0.0
C1197 C 0.02399 0.46496 0.84694 0.0
C1198 C 0.97462 0.49298 0.89181 0.0
C1199 C 0.03909 0.50257 0.83641 0.0
H1200 H 0.97652 0.5641 0.83541 0.0
H1201 H 0.02611 0.57232 0.88474 0.0
H1202 H 0.98585 0.50943 0.8228 0.0
H1203 H 0.96437 0.50799 0.84372 0.0
H1204 H 0.96385 0.52974 0.82341 0.0
H1205 H 0.0364 0.54136 0.90722 0.0
H1206 H 0.0242 0.51425 0.90308 0.0
H1207 H 0.04736 0.52292 0.886 0.0
H1208 H 0.98098 0.44948 0.88061 0.0
H1209 H 0.03653 0.45799 0.83573 0.0
H1210 H 0.96088 0.5004 0.88238 0.0
H1211 H 0.98185 0.50633 0.90223 0.0
H1212 H 0.96753 0.47995 0.90283 0.0
H1213 H 0.02989 0.51482 0.82645 0.0
H1214 H 0.04995 0.49257 0.82499 0.0
H1215 H 0.04979 0.51206 0.84785 0.0
C1216 C 0.17994 0.56111 0.02656 0.0
C1217 C 0.19118 0.57288 0.00953 0.0
C1218 C 0.17922 0.53739 0.0269 0.0
C1219 C 0.19007 0.52447 0.00987 0.0
C1220 C 0.20114 0.5363 0.99245 0.0
C1221 C 0.20158 0.55997 0.99253 0.0
C1222 C 0.16691 0.52609 0.04575 0.0
C1223 C 0.21328 0.52431 0.9737 0.0
C1224 C 0.20859 0.46434 0.02359 0.0
C1225 C 0.19276 0.45059 0.01321 0.0
C1226 C 0.20798 0.48791 0.02245 0.0
C1227 C 0.19082 0.49887 0.01096 0.0
C1228 C 0.17486 0.48517 1.0002 0.0
C1229 C 0.17605 0.46145 1.00134 0.0
C1230 C 0.22603 0.50115 0.03346 0.0
C1231 C 0.15651 0.49567 0.98729 0.0
H1232 H 0.17174 0.57045 0.03987 0.0
H1233 H 0.21045 0.56835 0.97915 0.0
H1234 H 0.15449 0.51433 0.03904 0.0
H1235 H 0.17874 0.51627 0.05558 0.0
H1236 H 0.15824 0.53813 0.05705 0.0
H1237 H 0.20998 0.53254 0.95767 0.0
H1238 H 0.23143 0.5253 0.97648 0.0
H1239 H 0.2086 0.50657 0.97214 0.0
H1240 H 0.22183 0.45663 0.03271 0.0
H1241 H 0.16364 0.45145 0.99318 0.0
H1242 H 0.21861 0.5124 0.04632 0.0
H1243 H 0.2347 0.51168 0.02093 0.0
H1244 H 0.23851 0.49038 0.04141 0.0
H1245 H 0.14684 0.50728 0.99821 0.0
H1246 H 0.145 0.48314 0.98029 0.0
H1247 H 0.16381 0.50554 0.97344 0.0
C1248 C 0.55945 0.19321 0.00692 0.0
C1249 C 0.57395 0.18312 0.02188 0.0
C1250 C 0.53593 0.19055 0.00827 0.0
C1251 C 0.52569 0.1781 0.02582 0.0
C1252 C 0.54039 0.16712 0.04057 0.0
C1253 C 0.56401 0.16979 0.03848 0.0
C1254 C 0.52253 0.20128 0.99036 0.0
C1255 C 0.53148 0.15265 0.05903 0.0
C1256 C 0.46605 0.19482 0.0467 0.0
C1257 C 0.45176 0.18194 0.03356 0.0
C1258 C 0.48965 0.19288 0.04512 0.0
C1259 C 0.50007 0.17802 0.02956 0.0
C1260 C 0.48566 0.16425 0.01685 0.0
C1261 C 0.46196 0.16636 0.01894 0.0
C1262 C 0.5035 0.20758 0.05966 0.0
C1263 C 0.49532 0.14759 1.0005 0.0
H1264 H 0.56648 0.20379 0.99415 0.0
H1265 H 0.57464 0.16208 0.05051 0.0
H1266 H 0.50442 0.20144 0.99393 0.0
H1267 H 0.52829 0.21854 0.98745 0.0
H1268 H 0.52551 0.19203 0.97452 0.0
H1269 H 0.54257 0.13813 0.06135 0.0
H1270 H 0.53121 0.16228 0.07484 0.0
H1271 H 0.51445 0.14651 0.05588 0.0
H1272 H 0.45868 0.20709 0.05794 0.0
H1273 H 0.45145 0.15643 0.00836 0.0
H1274 H 0.51562 0.21698 0.04927 0.0
H1275 H 0.51306 0.19729 0.07126 0.0
H1276 H 0.49314 0.21945 0.0696 0.0
H1277 H 0.50217 0.15645 0.98577 0.0
H1278 H 0.48263 0.13555 0.99479 0.0
H1279 H 0.50919 0.13834 0.00804 0.0
C1280 C 0.83618 0.57137 0.03857 0.0
C1281 C 0.83256 0.58082 0.01759 0.0
C1282 C 0.83689 0.54784 0.04163 0.0
C1283 C 0.83482 0.5329 0.02323 0.0
C1284 C 0.83194 0.5425 1.00193 0.0
C1285 C 0.8304 0.56594 0.99951 0.0
C1286 C 0.83897 0.53893 0.06483 0.0
C1287 C 0.83013 0.52796 0.98149 0.0
C1288 C 0.85317 0.47062 0.02751 0.0
C1289 C 0.83275 0.45922 0.02889 0.0
C1290 C 0.85417 0.49432 0.02589 0.0
C1291 C 0.83436 0.50745 0.02623 0.0
C1292 C 0.8138 0.49594 0.02848 0.0
C1293 C 0.81328 0.47236 0.02951 0.0
C1294 C 0.87653 0.50529 0.02284 0.0
C1295 C 0.79209 0.50855 0.02938 0.0
H1296 H 0.83755 0.58238 0.05282 0.0
H1297 H 0.82758 0.57271 0.98317 0.0
H1298 H 0.82399 0.52899 0.06925 0.0
H1299 H 0.85352 0.52767 0.06563 0.0
H1300 H 0.84079 0.55238 0.07742 0.0
H1301 H 0.83157 0.53768 0.96591 0.0
H1302 H 0.84326 0.51499 0.98121 0.0
H1303 H 0.81382 0.51939 0.98175 0.0
H1304 H 0.86839 0.46098 0.02672 0.0
H1305 H 0.7973 0.46409 0.0307 0.0
H1306 H 0.87888 0.51811 0.03592 0.0
H1307 H 0.87728 0.51385 0.00657 0.0
H1308 H 0.89044 0.49318 0.02341 0.0
H1309 H 0.79273 0.52205 0.04203 0.0
H1310 H 0.77769 0.49763 0.03338 0.0
H1311 H 0.78921 0.51641 0.0131 0.0
C1312 C 0.56063 0.84314 0.05704 0.0
C1313 C 0.57593 0.85689 0.04551 0.0
C1314 C 0.53731 0.84341 0.05298 0.0
C1315 C 0.52807 0.8579 0.03699 0.0
C1316 C 0.54337 0.87224 0.02563 0.0
C1317 C 0.56673 0.87144 0.02983 0.0
C1318 C 0.52256 0.82731 0.06529 0.0
C1319 C 0.53527 0.88819 0.00844 0.0
C1320 C 0.47225 0.83867 0.01093 0.0
C1321 C 0.45553 0.85077 0.02263 0.0
C1322 C 0.49541 0.84189 0.01448 0.0
C1323 C 0.50296 0.85668 0.03125 0.0
C1324 C 0.48619 0.86917 0.04308 0.0
C1325 C 0.463 0.86625 0.03859 0.0
C1326 C 0.51201 0.82922 1.00024 0.0
C1327 C 0.49277 0.88541 0.06093 0.0
H1328 H 0.56696 0.83153 0.06902 0.0
H1329 H 0.57789 0.88217 0.02048 0.0
H1330 H 0.50798 0.83602 0.0729 0.0
H1331 H 0.51623 0.81491 0.05327 0.0
H1332 H 0.5315 0.81848 0.07853 0.0
H1333 H 0.54723 0.902 1.00567 0.0
H1334 H 0.5334 0.87921 0.99241 0.0
H1335 H 0.51883 0.89529 0.01336 0.0
H1336 H 0.46721 0.82621 0.99902 0.0
H1337 H 0.45066 0.8754 0.04835 0.0
H1338 H 0.52311 0.81954 0.01097 0.0
H1339 H 0.52256 0.84104 0.99073 0.0
H1340 H 0.50396 0.8179 0.98823 0.0
H1341 H 0.50036 0.87631 0.07482 0.0
H1342 H 0.47835 0.89511 0.06761 0.0
H1343 H 0.5055 0.89707 0.05426 0.0
C1344 C 0.53337 0.70349 0.96841 0.0
C1345 C 0.52377 0.68756 0.95408 0.0
C1346 C 0.53243 0.70189 0.992 0.0
C1347 C 0.52123 0.68399 1.00269 0.0
C1348 C 0.51175 0.66753 0.98844 0.0
C1349 C 0.51312 0.66945 0.96462 0.0
C1350 C 0.54293 0.72029 1.00523 0.0
C1351 C 0.4998 0.6479 0.99842 0.0
C1352 C 0.53279 0.67615 0.06633 0.0
C1353 C 0.51503 0.68765 0.07702 0.0
C1354 C 0.53469 0.67415 0.04253 0.0
C1355 C 0.51836 0.68353 0.02844 0.0
C1356 C 0.50001 0.69429 0.03927 0.0
C1357 C 0.49869 0.69627 0.06292 0.0
C1358 C 0.55477 0.6627 0.03235 0.0
C1359 C 0.48199 0.70467 0.02574 0.0
H1360 H 0.54169 0.71777 0.9612 0.0
H1361 H 0.50548 0.6569 0.9543 0.0
H1362 H 0.53087 0.73416 0.00676 0.0
H1363 H 0.54758 0.71514 0.02215 0.0
H1364 H 0.55805 0.72665 0.9965 0.0
H1365 H 0.49464 0.6357 0.98557 0.0
H1366 H 0.51066 0.63944 0.01037 0.0
H1367 H 0.48478 0.65367 0.00784 0.0
H1368 H 0.54576 0.66941 0.07651 0.0
H1369 H 0.48461 0.70481 0.07047 0.0
H1370 H 0.56517 0.67505 0.02329 0.0
H1371 H 0.54955 0.65 0.02005 0.0
H1372 H 0.56508 0.65459 0.04505 0.0
H1373 H 0.48861 0.7198 0.01754 0.0
H1374 H 0.4672 0.70926 0.03613 0.0
H1375 H 0.47663 0.69316 0.01241 0.0
C1376 C 0.32468 0.49459 0.96183 0.0
C1377 C 0.33553 0.50882 0.94654 0.0
C1378 C 0.32464 0.49856 0.98516 0.0
C1379 C 0.33577 0.51733 0.99411 0.0
C1380 C 0.34688 0.53173 0.97881 0.0
C1381 C 0.34667 0.52734 0.95546 0.0
C1382 C 0.31251 0.48254 1.00029 0.0
C1383 C 0.35885 0.55205 0.98713 0.0
C1384 C 0.31679 0.53867 0.05259 0.0
C1385 C 0.33309 0.53039 0.06686 0.0
C1386 C 0.31762 0.53483 0.02924 0.0
C1387 C 0.33515 0.52211 0.01925 0.0
C1388 C 0.35163 0.51355 0.03353 0.0
C1389 C 0.35044 0.51777 0.05691 0.0
C1390 C 0.2995 0.54438 0.01523 0.0
C1391 C 0.37055 0.49972 0.02409 0.0
H1392 H 0.316 0.48015 0.95556 0.0
H1393 H 0.35511 0.53862 0.94416 0.0
H1394 H 0.3245 0.47454 0.01146 0.0
H1395 H 0.30015 0.49154 0.01097 0.0
H1396 H 0.30375 0.46939 0.99087 0.0
H1397 H 0.3671 0.56143 0.97343 0.0
H1398 H 0.3469 0.56323 0.99602 0.0
H1399 H 0.37159 0.54717 0.99921 0.0
H1400 H 0.30306 0.54817 0.05972 0.0
H1401 H 0.36319 0.51111 0.06742 0.0
H1402 H 0.28701 0.55394 0.02529 0.0
H1403 H 0.29082 0.53083 1.00632 0.0
H1404 H 0.30688 0.55551 1.00245 0.0
H1405 H 0.36391 0.48468 0.01579 0.0
H1406 H 0.38225 0.49448 0.03707 0.0
H1407 H 0.37991 0.50928 0.01126 0.0
C1408 C 0.49283 0.33543 0.97633 0.0
C1409 C 0.5052 0.34841 0.96101 0.0
C1410 C 0.49457 0.33771 0.99973 0.0
C1411 C 0.50941 0.3534 0.00903 0.0
C1412 C 0.52144 0.36729 0.9938 0.0
C1413 C 0.51928 0.36463 0.97022 0.0
C1414 C 0.48068 0.32245 0.01419 0.0
C1415 C 0.53691 0.38488 1.0024 0.0
C1416 C 0.50087 0.36264 0.07316 0.0
C1417 C 0.51671 0.3482 0.08213 0.0
C1418 C 0.49908 0.36555 0.04965 0.0
C1419 C 0.51336 0.35378 0.03429 0.0
C1420 C 0.53003 0.34012 0.04342 0.0
C1421 C 0.53151 0.33766 0.06682 0.0
C1422 C 0.48101 0.38034 0.04115 0.0
C1423 C 0.54577 0.32713 0.02832 0.0
H1424 H 0.48174 0.3229 0.97006 0.0
H1425 H 0.52907 0.37493 0.95904 0.0
H1426 H 0.48848 0.30579 0.01418 0.0
H1427 H 0.4788 0.3282 0.03167 0.0
H1428 H 0.46382 0.32062 0.00732 0.0
H1429 H 0.54207 0.39672 0.98921 0.0
H1430 H 0.52884 0.39428 0.01636 0.0
H1431 H 0.55203 0.37692 0.0089 0.0
H1432 H 0.4891 0.37084 0.0844 0.0
H1433 H 0.54402 0.32666 0.07317 0.0
H1434 H 0.46793 0.36993 0.03357 0.0
H1435 H 0.48778 0.39143 0.02801 0.0
H1436 H 0.47323 0.39063 0.05463 0.0
H1437 H 0.53629 0.31514 0.01813 0.0
H1438 H 0.55842 0.31794 0.03771 0.0
H1439 H 0.55453 0.33845 0.01663 0.0
C1440 C 0.71332 0.49221 0.96795 0.0
C1441 C 0.70003 0.50559 0.95436 0.0
C1442 C 0.71183 0.49318 0.99161 0.0
C1443 C 0.69649 0.50776 1.00266 0.0
C1444 C 0.68293 0.52123 0.98907 0.0
C1445 C 0.68488 0.52006 0.96538 0.0
C1446 C 0.72699 0.47862 1.00484 0.0
C1447 C 0.66631 0.5371 0.9996 0.0
C1448 C 0.68028 0.49786 0.06517 0.0
C1449 C 0.69338 0.51351 0.07649 0.0
C1450 C 0.68101 0.49584 0.04145 0.0
C1451 C 0.69534 0.50958 0.02824 0.0
C1452 C 0.70881 0.52511 0.03968 0.0
C1453 C 0.7076 0.52691 0.06324 0.0
C1454 C 0.66624 0.47901 0.03044 0.0
C1455 C 0.72473 0.53995 0.02698 0.0
H1456 H 0.72517 0.48092 0.96008 0.0
H1457 H 0.67439 0.53052 0.95547 0.0
H1458 H 0.73781 0.4891 0.01532 0.0
H1459 H 0.71701 0.46795 0.01621 0.0
H1460 H 0.73772 0.46782 0.99404 0.0
H1461 H 0.65641 0.54592 0.98705 0.0
H1462 H 0.65478 0.52797 0.0109 0.0
H1463 H 0.67508 0.54961 0.00983 0.0
H1464 H 0.66919 0.48732 0.07482 0.0
H1465 H 0.71809 0.539 0.07134 0.0
H1466 H 0.67652 0.46707 0.0205 0.0
H1467 H 0.65506 0.48747 0.01879 0.0
H1468 H 0.65595 0.4696 0.04269 0.0
H1469 H 0.737 0.52968 0.01742 0.0
H1470 H 0.7339 0.5514 0.03808 0.0
H1471 H 0.71555 0.54998 0.01482 0.0
C1472 C 0.96438 0.522 0.66427 0.0
C1473 C 0.95415 0.50695 0.67905 0.0
C1474 C 0.98797 0.52432 0.66272 0.0
C1475 C 1.00205 0.51142 0.67634 0.0
C1476 C 0.99174 0.49562 0.69064 0.0
C1477 C 0.96822 0.49377 0.69191 0.0
C1478 C 0.99778 0.5414 0.64719 0.0
C1479 C 1.0055 0.48138 0.70564 0.0
C1480 C 0.06582 0.50479 0.66579 0.0
C1481 C 0.07482 0.51911 0.68184 0.0
C1482 C 0.0424 0.5027 0.6632 0.0
C1483 C 0.02725 0.51526 0.67689 0.0
C1484 C 0.03641 0.53048 0.69241 0.0
C1485 C 0.05979 0.53198 0.69482 0.0
C1486 C 0.03384 0.48626 0.64643 0.0
C1487 C 0.02146 0.54451 0.70736 0.0
H1488 H 0.9539 0.53281 0.65471 0.0
H1489 H 0.96076 0.48251 0.70383 0.0
H1490 H 1.00506 0.55514 0.65703 0.0
H1491 H 0.01143 0.53396 0.63686 0.0
H1492 H 0.98516 0.54845 0.63605 0.0
H1493 H 0.99543 0.4684 0.71415 0.0
H1494 H 0.01923 0.47321 0.69603 0.0
H1495 H 0.01316 0.492 0.71852 0.0
H1496 H 0.07706 0.49434 0.65598 0.0
H1497 H 0.06635 0.54279 0.70758 0.0
H1498 H 0.02132 0.49423 0.63583 0.0
H1499 H 0.02544 0.47237 0.65523 0.0
H1500 H 0.04739 0.47931 0.63559 0.0
H1501 H 0.00911 0.55353 0.69741 0.0
H1502 H 0.03092 0.55678 0.71728 0.0
H1503 H 0.01204 0.53365 0.71899 0.0
C1504 C 0.50855 0.96482 0.67056 0.0
C1505 C 0.51318 0.95546 0.69137 0.0
C1506 C 0.50728 0.98842 0.66752 0.0
C1507 C 0.51097 1.00357 0.68553 0.0
C1508 C 0.51572 0.99401 0.70646 0.0
C1509 C 0.51686 0.97061 0.70898 0.0
C1510 C 0.50132 0.99719 0.64505 0.0
C1511 C 0.52012 0.0084 0.72651 0.0
C1512 C 0.52764 0.06575 0.67621 0.0
C1513 C 0.50864 0.07763 0.68374 0.0
C1514 C 0.52848 0.04198 0.67612 0.0
C1515 C 0.50961 0.02913 0.68288 0.0
C1516 C 0.48991 0.04114 0.68894 0.0
C1517 C 0.48984 0.06485 0.6898 0.0
C1518 C 0.55029 0.03067 0.67059 0.0
C1519 C 0.46903 0.02895 0.69584 0.0
H1520 H 0.50542 0.95374 0.6567 0.0
H1521 H 0.52078 0.96415 0.72519 0.0
H1522 H 0.48596 0.00737 0.64662 0.0
H1523 H 0.51473 0.00819 0.63862 0.0
H1524 H 0.4986 0.98366 0.63274 0.0
H1525 H 0.51959 0.99885 0.74223 0.0
H1526 H 0.53692 0.01561 0.72454 0.0
H1527 H 0.50798 0.02221 0.72805 0.0
H1528 H 0.54261 0.07506 0.67227 0.0
H1529 H 0.47518 0.07345 0.69624 0.0
H1530 H 0.54798 0.01748 0.65787 0.0
H1531 H 0.55655 0.02253 0.68572 0.0
H1532 H 0.56311 0.04251 0.66439 0.0
H1533 H 0.46631 0.01433 0.68487 0.0
H1534 H 0.45416 0.03985 0.69539 0.0
H1535 H 0.47068 0.02283 0.71307 0.0
C1536 C 0.95726 0.55506 0.3376 0.0
C1537 C 0.94703 0.53444 0.33331 0.0
C1538 C 0.98095 0.55757 0.33738 0.0
C1539 C 0.99533 0.53909 0.33284 0.0
C1540 C 0.98501 0.5182 0.32905 0.0
C1541 C 0.96142 0.5162 0.32937 0.0
C1542 C 0.99067 0.58027 0.34139 0.0
C1543 C 0.99892 0.49791 0.32365 0.0
C1544 C 0.0558 0.54852 0.30985 0.0
C1545 C 0.06933 0.54335 0.32796 0.0
C1546 C 0.03214 0.54758 0.31122 0.0
C1547 C 0.02092 0.5415 0.3314 0.0
C1548 C 0.03452 0.53673 0.34993 0.0
C1549 C 0.05825 0.53735 0.34792 0.0
C1550 C 0.01949 0.55237 0.29042 0.0
C1551 C 0.02392 0.53101 0.3721 0.0
H1552 H 0.94675 0.56949 0.34039 0.0
H1553 H 0.95414 0.5001 0.32622 0.0
H1554 H 1.00323 0.57946 0.3546 0.0
H1555 H 0.99933 0.58605 0.32601 0.0
H1556 H 0.97776 0.59267 0.34633 0.0
H1557 H 0.98884 0.48248 0.32357 0.0
H1558 H 0.00707 0.49987 0.30704 0.0
H1559 H 0.0123 0.49596 0.33584 0.0
H1560 H 0.06378 0.55293 0.29416 0.0
H1561 H 0.06815 0.53341 0.36218 0.0
H1562 H 0.02827 0.565 0.28012 0.0
H1563 H 1.00232 0.55829 0.29402 0.0
H1564 H 0.01856 0.53688 0.28035 0.0
H1565 H 0.01174 0.54406 0.37719 0.0
H1566 H 0.03638 0.52933 0.38534 0.0
H1567 H 0.01466 0.51516 0.37072 0.0
C1568 C 0.51121 0.06662 0.36658 0.0
C1569 C 0.50047 0.07617 0.34834 0.0
C1570 C 0.51235 0.04301 0.36956 0.0
C1571 C 0.5026 0.02798 0.35402 0.0
C1572 C 0.49083 0.0377 0.3363 0.0
C1573 C 0.49024 0.06112 0.33362 0.0
C1574 C 0.52397 0.03411 0.38954 0.0
C1575 C 0.47838 0.02381 0.31975 0.0
C1576 C 0.52633 0.96845 0.34398 0.0
C1577 C 0.50949 0.95414 0.35209 0.0
C1578 C 0.52472 0.99203 0.34533 0.0
C1579 C 0.50571 1.00247 0.3553 0.0
C1580 C 0.489 0.98813 0.36451 0.0
C1581 C 0.49103 0.96443 0.36279 0.0
C1582 C 0.54301 1.00578 0.33477 0.0
C1583 C 0.46835 0.99789 0.37531 0.0
H1584 H 0.51915 0.07757 0.37838 0.0
H1585 H 0.48161 0.06761 0.31956 0.0
H1586 H 0.51312 0.02194 0.39831 0.0
H1587 H 0.53934 0.02522 0.38414 0.0
H1588 H 0.52851 0.04751 0.40141 0.0
H1589 H 0.46062 0.02882 0.32019 0.0
H1590 H 0.48495 0.02723 0.30279 0.0
H1591 H 0.4792 1.00572 0.32267 0.0
H1592 H 0.54087 0.9611 0.33603 0.0
H1593 H 0.47763 0.954 0.36897 0.0
H1594 H 0.55802 0.9957 0.33065 0.0
H1595 H 0.54791 0.01959 0.34592 0.0
H1596 H 0.53692 0.01331 0.31928 0.0
H1597 H 0.47276 0.01154 0.38692 0.0
H1598 H 0.4585 0.98522 0.38455 0.0
H1599 H 0.45776 1.00506 0.36232 0.0
C1600 C 0.67394 0.97019 0.5066 0.0
C1601 C 0.68689 0.95845 0.52184 0.0
C1602 C 0.67346 0.99388 0.50613 0.0
C1603 C 0.68641 0.00673 0.52105 0.0
C1604 C 0.69942 0.99495 0.53651 0.0
C1605 C 0.69942 0.97131 0.53679 0.0
C1606 C 0.65914 1.00522 0.48939 0.0
C1607 C 0.71397 0.00738 0.55247 0.0
C1608 C 0.70341 0.06653 0.5041 0.0
C1609 C 0.6893 0.08038 0.51724 0.0
C1610 C 0.70281 0.04299 0.5054 0.0
C1611 C 0.68726 0.03224 0.51982 0.0
C1612 C 0.67289 0.04606 0.53315 0.0
C1613 C 0.67422 0.06973 0.5319 0.0
C1614 C 0.71895 0.02963 0.4911 0.0
C1615 C 0.65584 0.0358 0.54866 0.0
H1616 H 0.66413 0.96084 0.49489 0.0
H1617 H 0.70967 0.96286 0.54865 0.0
H1618 H 0.64796 0.01742 0.49792 0.0
H1619 H 0.66981 0.01455 0.47744 0.0
H1620 H 0.64888 0.99324 0.47994 0.0
H1621 H 0.72193 0.99616 0.56447 0.0
H1622 H 0.72721 0.0163 0.54302 0.0
H1623 H 0.70411 0.02002 0.5619 0.0
H1624 H 0.7153 0.07414 0.4927 0.0
H1625 H 0.6631 0.07988 0.54213 0.0
H1626 H 0.7098 0.02085 0.47785 0.0
H1627 H 0.72729 0.01684 0.50114 0.0
H1628 H 0.7319 0.04022 0.48313 0.0
H1629 H 0.6447 0.02476 0.53912 0.0
H1630 H 0.64557 0.04849 0.55764 0.0
H1631 H 0.66423 0.02535 0.56105 0.0
C1632 C 0.06634 0.67673 0.53704 0.0
C1633 C 0.07635 0.69099 0.52129 0.0
C1634 C 0.04276 0.67346 0.53848 0.0
C1635 C 0.02811 0.68505 0.52415 0.0
C1636 C 0.03846 0.69867 0.50757 0.0
C1637 C 0.062 0.70145 0.50648 0.0
C1638 C 0.03385 0.65774 0.55588 0.0
C1639 C 0.02503 0.71186 0.49151 0.0
C1640 C 0.96475 0.67302 0.51471 0.0
C1641 C 0.95386 0.6871 0.53037 0.0
C1642 C 0.98853 0.67124 0.51325 0.0
C1643 C 1.00239 0.68425 0.5273 0.0
C1644 C 0.9913 0.69761 0.54377 0.0
C1645 C 0.96761 0.69893 0.54498 0.0
C1646 C 0.99886 0.65586 0.49604 0.0
C1647 C 1.00448 0.71182 0.55938 0.0
H1648 H 0.07689 0.66857 0.54885 0.0
H1649 H 0.06919 0.71267 0.49428 0.0
H1650 H 0.03356 0.66626 0.57231 0.0
H1651 H 0.01683 0.65181 0.55231 0.0
H1652 H 0.04498 0.64311 0.55718 0.0
H1653 H 0.03332 0.71192 0.47481 0.0
H1654 H 0.0078 0.70579 0.48973 0.0
H1655 H 0.02436 0.72926 0.49751 0.0
H1656 H 0.95473 0.66409 0.50286 0.0
H1657 H 0.95974 0.71025 0.55688 0.0
H1658 H 0.01258 0.6462 0.50335 0.0
H1659 H 0.00607 0.66575 0.48217 0.0
H1660 H 0.9865 0.64415 0.48911 0.0
H1661 H 0.01514 0.70128 0.56973 0.0
H1662 H 0.9935 0.72192 0.57057 0.0
H1663 H 0.01555 0.72306 0.5497 0.0
C1664 C 0.36281 0.9747 0.51874 0.0
C1665 C 0.34238 0.96334 0.5179 0.0
C1666 C 0.36389 0.99844 0.51744 0.0
C1667 C 0.34411 0.01149 0.51592 0.0
C1668 C 0.32356 1.00002 0.51582 0.0
C1669 C 0.32302 0.97656 0.51647 0.0
C1670 C 0.3863 0.00958 0.51699 0.0
C1671 C 0.30185 0.01256 0.51499 0.0
C1672 C 0.34138 0.07476 0.52992 0.0
C1673 C 0.33853 0.08438 0.50893 0.0
C1674 C 0.3439 0.05136 0.53246 0.0
C1675 C 0.34442 0.03689 0.51354 0.0
C1676 C 0.34262 0.0468 0.49225 0.0
C1677 C 0.33924 0.07005 0.49029 0.0
C1678 C 0.34451 0.04208 0.55563 0.0
C1679 C 0.34359 0.03274 0.47136 0.0
H1680 H 0.37798 0.96507 0.51962 0.0
H1681 H 0.30693 0.96849 0.51606 0.0
H1682 H 0.38857 0.01877 0.50118 0.0
H1683 H 0.38723 0.02192 0.53075 0.0
H1684 H 0.40013 0.9975 0.51849 0.0
H1685 H 0.30136 0.02281 0.49979 0.0
H1686 H 0.28722 1.00132 0.51507 0.0
H1687 H 0.30039 0.02406 0.52948 0.0
H1688 H 0.34053 0.08541 0.54453 0.0
H1689 H 0.33709 0.07708 0.47394 0.0
H1690 H 0.35668 0.02831 0.55664 0.0
H1691 H 0.32787 0.03529 0.56009 0.0
H1692 H 0.34869 0.05505 0.56811 0.0
H1693 H 0.35758 0.02073 0.47195 0.0
H1694 H 0.34563 0.04297 0.45616 0.0
H1695 H 0.32802 0.02303 0.46998 0.0
C1696 C 0.06463 0.36803 0.51375 0.0
C1697 C 0.07398 0.35412 0.52984 0.0
C1698 C 0.04139 0.36809 0.50935 0.0
C1699 C 0.02643 0.35375 0.52106 0.0
C1700 C 0.03575 0.33987 0.53756 0.0
C1701 C 0.05904 0.34018 0.54161 0.0
C1702 C 0.03285 0.38347 0.49184 0.0
C1703 C 0.02138 0.32389 0.55064 0.0
C1704 C 0.96185 0.36322 0.52175 0.0
C1705 C 0.9544 0.34772 0.50588 0.0
C1706 C 0.98495 0.36563 0.52659 0.0
C1707 C 1.00152 0.35245 0.51529 0.0
C1708 C 0.99404 0.33743 0.4987 0.0
C1709 C 0.97094 0.33507 0.4945 0.0
C1710 C 0.99158 0.38181 0.54449 0.0
C1711 C 0.0105 0.3232 0.4857 0.0
H1712 H 0.07558 0.37888 0.50429 0.0
H1713 H 0.06559 0.32903 0.5539 0.0
H1714 H 0.02619 0.37362 0.47783 0.0
H1715 H 0.01897 0.39371 0.49882 0.0
H1716 H 0.04601 0.3947 0.48522 0.0
H1717 H 0.02897 0.31953 0.56669 0.0
H1718 H 1.00447 0.33066 0.55405 0.0
H1719 H 0.01966 0.30835 0.54084 0.0
H1720 H 0.94954 0.37271 0.53123 0.0
H1721 H 0.96571 0.32272 0.48249 0.0
H1722 H 1.00459 0.39323 0.53798 0.0
H1723 H 0.99882 0.37259 0.5585 0.0
H1724 H 0.97726 0.39178 0.55096 0.0
H1725 H 0.02265 0.3339 0.47675 0.0
H1726 H 1.00235 0.31226 0.47337 0.0
H1727 H 0.02001 0.31273 0.49725 0.0
C1728 C 0.99898 0.25113 0.3204 0.0
C1729 C 0.01451 0.2338 0.32241 0.0
C1730 C 0.99966 0.26604 0.30232 0.0
C1731 C 0.01664 0.26425 0.2856 0.0
C1732 C 0.03185 0.24614 0.28698 0.0
C1733 C 0.0306 0.2312 0.30524 0.0
C1734 C 0.98286 0.28465 0.30192 0.0
C1735 C 0.05036 0.24335 0.26989 0.0
C1736 C 0.01072 0.3018 0.23357 0.0
C1737 C 0.02244 0.321 0.23984 0.0
C1738 C 0.00927 0.28291 0.24774 0.0
C1739 C 0.01996 0.28289 0.26869 0.0
C1740 C 0.03264 0.30187 0.27443 0.0
C1741 C 0.03358 0.32043 0.2602 0.0
C1742 C 0.99548 0.2633 0.2407 0.0
C1743 C 0.04462 0.30302 0.29619 0.0
H1744 H 0.98668 0.25362 0.33365 0.0
H1745 H 0.04306 0.21833 0.30675 0.0
H1746 H 0.99124 0.30067 0.30545 0.0
H1747 H 0.97555 0.28587 0.28521 0.0
H1748 H 0.9692 0.28236 0.31444 0.0
H1749 H 0.05881 0.22703 0.27126 0.0
H1750 H 0.0439 0.24498 0.25285 0.0
H1751 H 0.06286 0.25667 0.27219 0.0
H1752 H 1.00181 0.3019 0.21811 0.0
H1753 H 0.04285 0.33495 0.26537 0.0
H1754 H 0.98041 0.26221 0.25162 0.0
H1755 H 1.00495 0.24764 0.24263 0.0
H1756 H 0.99021 0.2646 0.22318 0.0
H1757 H 0.03232 0.3032 0.31022 0.0
H1758 H 0.05521 0.31806 0.29753 0.0
H1759 H 0.05526 0.28813 0.2981 0.0
C1760 C 0.77778 0.97326 0.31121 0.0
C1761 C 0.79572 0.9875 0.31591 0.0
C1762 C 0.76209 0.97817 0.29467 0.0
C1763 C 0.76384 0.99803 0.28216 0.0
C1764 C 0.78234 0.01215 0.28625 0.0
C1765 C 0.79793 0.00675 0.30288 0.0
C1766 C 0.74299 0.96237 0.29125 0.0
C1767 C 0.78516 0.03356 0.27371 0.0
C1768 C 0.72616 1.00309 0.23042 0.0
C1769 C 0.70721 0.01396 0.23937 0.0
C1770 C 0.74496 0.99843 0.24375 0.0
C1771 C 0.74515 1.00486 0.26666 0.0
C1772 C 0.72646 0.01676 0.27531 0.0
C1773 C 0.70798 0.02097 0.2618 0.0
C1774 C 0.76429 0.98576 0.23352 0.0
C1775 C 0.7255 0.02436 0.29932 0.0
H1776 H 0.77558 0.95835 0.32098 0.0
H1777 H 0.81137 0.01817 0.30629 0.0
H1778 H 0.72718 0.97047 0.2967 0.0
H1779 H 0.74158 0.95816 0.27334 0.0
H1780 H 0.74487 0.94675 0.30071 0.0
H1781 H 0.80154 0.04143 0.27665 0.0
H1782 H 0.78345 0.0306 0.2556 0.0
H1783 H 0.77188 0.04539 0.27904 0.0
H1784 H 0.72589 0.99724 0.21334 0.0
H1785 H 0.69363 0.02941 0.26911 0.0
H1786 H 0.76513 0.96903 0.24104 0.0
H1787 H 0.78014 0.99434 0.23708 0.0
H1788 H 0.76284 0.98378 0.21523 0.0
H1789 H 0.72504 0.00969 0.31036 0.0
H1790 H 0.71066 0.0348 0.3032 0.0
H1791 H 0.74062 0.034 0.30332 0.0
C1792 C 0.03842 0.78556 0.3204 0.0
C1793 C 0.01867 0.79703 0.32615 0.0
C1794 C 0.03964 0.76984 0.30258 0.0
C1795 C 0.02053 0.76475 0.28996 0.0
C1796 C 1.00072 0.77693 0.29519 0.0
C1797 C 1.0 0.79264 0.31311 0.0
C1798 C 0.06119 0.75755 0.29823 0.0
C1799 C 0.97972 0.77233 0.28276 0.0
C1800 C 0.02659 0.7271 0.23648 0.0
C1801 C 0.02195 0.70574 0.24482 0.0
C1802 C 0.02599 0.74642 0.25065 0.0
C1803 C 0.02049 0.74471 0.27384 0.0
C1804 C 0.01534 0.72326 0.28203 0.0
C1805 C 0.0161 0.70449 0.2677 0.0
C1806 C 0.03166 0.7687 0.24087 0.0
C1807 C 0.00912 0.71997 0.30626 0.0
H1808 H 0.05279 0.78802 0.33069 0.0
H1809 H 0.98437 0.80059 0.31772 0.0
H1810 H 0.05936 0.74009 0.30374 0.0
H1811 H 0.06535 0.75717 0.28017 0.0
H1812 H 0.07524 0.7652 0.30719 0.0
H1813 H 0.9667 0.78505 0.28635 0.0
H1814 H 0.98322 0.77177 0.26457 0.0
H1815 H 0.97306 0.75585 0.28761 0.0
H1816 H 0.03119 0.72871 0.21905 0.0
H1817 H 0.01203 0.68846 0.27474 0.0
H1818 H 0.04677 0.7754 0.24877 0.0
H1819 H 0.01796 0.78065 0.24444 0.0
H1820 H 0.03468 0.76772 0.2226 0.0
H1821 H 0.02275 0.72591 0.31691 0.0
H1822 H 1.00572 0.70229 0.31024 0.0
H1823 H 0.99411 0.7299 0.31072 0.0
C1824 C 0.29664 1.00088 0.23158 0.0
C1825 C 0.31658 0.01146 0.23746 0.0
C1826 C 0.27761 1.00073 0.24639 0.0
C1827 C 0.27834 0.01107 0.26788 0.0
C1828 C 0.29813 0.02241 0.27336 0.0
C1829 C 0.3165 0.02267 0.25826 0.0
C1830 C 0.25688 0.98887 0.23929 0.0
C1831 C 0.30044 0.03347 0.29584 0.0
C1832 C 0.22789 0.02455 0.30772 0.0
C1833 C 0.2279 0.0066 0.3226 0.0
C1834 C 0.2432 0.02566 0.28922 0.0
C1835 C 0.25957 0.00877 0.28549 0.0
C1836 C 0.25945 0.99061 0.30042 0.0
C1837 C 0.24372 0.98966 0.31833 0.0
C1838 C 0.24205 0.0452 0.27381 0.0
C1839 C 0.27665 0.97243 0.29804 0.0
H1840 H 0.2961 0.99206 0.21583 0.0
H1841 H 0.33139 0.0313 0.26329 0.0
H1842 H 0.25488 0.97332 0.24887 0.0
H1843 H 0.242 0.99932 0.24291 0.0
H1844 H 0.25747 0.98458 0.22128 0.0
H1845 H 0.31662 0.04214 0.2975 0.0
H1846 H 0.2869 0.04572 0.29878 0.0
H1847 H 0.29896 0.02085 0.30912 0.0
H1848 H 0.21594 0.0378 0.31051 0.0
H1849 H 0.24434 0.97567 0.32951 0.0
H1850 H 0.24272 0.03946 0.25622 0.0
H1851 H 0.25659 0.05617 0.27633 0.0
H1852 H 0.22667 0.05514 0.27671 0.0
H1853 H 0.27642 0.96513 0.28105 0.0
H1854 H 0.27393 0.95893 0.31027 0.0
H1855 H 0.29347 0.9795 0.30042 0.0
C1856 C 0.98863 0.71103 0.7932 0.0
C1857 C 1.00435 0.70716 0.80979 0.0
C1858 C 0.99046 0.72899 0.77826 0.0
C1859 C 0.0086 0.74397 0.77942 0.0
C1860 C 0.02389 0.74101 0.79696 0.0
C1861 C 0.02161 0.72276 0.81186 0.0
C1862 C 0.97358 0.731 0.76019 0.0
C1863 C 0.04345 0.7564 0.79924 0.0
C1864 C 0.02677 0.76734 0.72247 0.0
C1865 C 0.01652 0.78843 0.72172 0.0
C1866 C 0.02514 0.75348 0.74128 0.0
C1867 C 0.01289 0.76044 0.76053 0.0
C1868 C 1.00325 0.78213 0.76042 0.0
C1869 C 1.00518 0.79581 0.74116 0.0
C1870 C 0.03584 0.73079 0.74009 0.0
C1871 C 0.99017 0.79058 0.78041 0.0
H1872 H 0.97515 0.69928 0.79125 0.0
H1873 H 0.03409 0.72001 0.82425 0.0
H1874 H 0.96729 0.74828 0.75936 0.0
H1875 H 0.9816 0.72696 0.74385 0.0
H1876 H 0.95922 0.71966 0.7628 0.0
H1877 H 0.05164 0.75444 0.81547 0.0
H1878 H 0.05587 0.75279 0.78576 0.0
H1879 H 0.03817 0.77395 0.79749 0.0
H1880 H 0.03588 0.76124 0.7079 0.0
H1881 H 0.99708 0.81189 0.74107 0.0
H1882 H 0.02278 0.71779 0.74069 0.0
H1883 H 0.04659 0.72829 0.7546 0.0
H1884 H 0.04606 0.72831 0.72465 0.0
H1885 H 0.97435 0.78122 0.78203 0.0
H1886 H 0.98623 0.80854 0.77914 0.0
H1887 H 0.99955 0.7878 0.79582 0.0
C1888 C 0.29878 0.0335 0.79903 0.0
C1889 C 0.31796 0.02049 0.79477 0.0
C1890 C 0.28042 0.03357 0.78417 0.0
C1891 C 0.28096 0.02064 0.76409 0.0
C1892 C 0.30026 0.00754 0.75985 0.0
C1893 C 0.31805 0.00752 0.775 0.0
C1894 C 0.26038 0.04768 0.78994 0.0
C1895 C 0.30246 0.99376 0.73883 0.0
C1896 C 0.22899 1.0058 0.72856 0.0
C1897 C 0.23002 0.02145 0.71122 0.0
C1898 C 0.24468 1.00582 0.74617 0.0
C1899 C 0.26237 0.02165 0.74676 0.0
C1900 C 0.26325 0.03756 0.72945 0.0
C1901 C 0.24731 0.03734 0.71233 0.0
C1902 C 0.24249 0.98857 0.76407 0.0
C1903 C 0.28161 0.05463 0.72855 0.0
H1904 H 0.29805 0.04366 0.81398 0.0
H1905 H 0.33246 0.99735 0.77094 0.0
H1906 H 0.25873 0.06101 0.77748 0.0
H1907 H 0.24506 0.03745 0.78937 0.0
H1908 H 0.26147 0.05545 0.8067 0.0
H1909 H 0.31818 0.98406 0.73796 0.0
H1910 H 0.2883 0.98206 0.73768 0.0
H1911 H 0.30195 1.00472 0.72411 0.0
H1912 H 0.216 0.99335 0.72832 0.0
H1913 H 0.2488 0.04965 0.69936 0.0
H1914 H 0.24275 0.99664 0.78073 0.0
H1915 H 0.25686 0.97703 0.76294 0.0
H1916 H 0.22694 0.97876 0.76272 0.0
H1917 H 0.28197 0.06414 0.74441 0.0
H1918 H 0.27969 0.06649 0.71469 0.0
H1919 H 0.29792 0.04616 0.72643 0.0
C1920 C 0.99702 0.29774 0.80681 0.0
C1921 C 0.00827 0.31705 0.79976 0.0
C1922 C 0.99516 0.27869 0.79258 0.0
C1923 C 1.00462 0.2787 0.77058 0.0
C1924 C 0.01669 0.29781 0.76386 0.0
C1925 C 0.01839 0.31636 0.77832 0.0
C1926 C 0.98243 0.25876 0.80087 0.0
C1927 C 0.02714 0.29914 0.74083 0.0
C1928 C 0.01351 0.22767 0.7311 0.0
C1929 C 0.99581 0.22983 0.71634 0.0
C1930 C 0.01591 0.24244 0.74961 0.0
C1931 C 1.00039 0.26004 0.75367 0.0
C1932 C 0.98192 0.2614 0.73947 0.0
C1933 C 0.97991 0.24649 0.72129 0.0
C1934 C 0.03583 0.23991 0.76412 0.0
C1935 C 0.96485 0.27963 0.74257 0.0
H1936 H 0.98903 0.29774 0.82314 0.0
H1937 H 0.02741 0.33079 0.77237 0.0
H1938 H 0.96661 0.2573 0.79186 0.0
H1939 H 0.99209 0.24335 0.79746 0.0
H1940 H 0.97852 0.25994 0.81898 0.0
H1941 H 0.03703 0.31453 0.73841 0.0
H1942 H 0.03816 0.28463 0.7376 0.0
H1943 H 0.01395 0.29866 0.72823 0.0
H1944 H 0.02618 0.21527 0.72751 0.0
H1945 H 0.96611 0.24856 0.71021 0.0
H1946 H 0.031 0.24212 0.78192 0.0
H1947 H 0.04822 0.25292 0.75989 0.0
H1948 H 0.04389 0.22342 0.76177 0.0
H1949 H 0.95869 0.28031 0.76008 0.0
H1950 H 0.95043 0.27736 0.73158 0.0
H1951 H 0.97267 0.2959 0.73881 0.0
C1952 C 0.77177 0.02914 0.70448 0.0
C1953 C 0.79507 0.02737 0.70591 0.0
C1954 C 0.75741 0.02745 0.72329 0.0
C1955 C 0.76619 0.02418 0.74469 0.0
C1956 C 0.78969 0.0219 0.74634 0.0
C1957 C 0.80379 0.02328 0.727 0.0
C1958 C 0.73266 0.02959 0.72019 0.0
C1959 C 0.8 0.0185 0.76866 0.0
C1960 C 0.72653 0.04628 0.79078 0.0
C1961 C 0.71481 0.02721 0.79763 0.0
C1962 C 0.7443 0.04525 0.77498 0.0
C1963 C 0.75061 0.02463 0.76507 0.0
C1964 C 0.73965 1.0051 0.77281 0.0
C1965 C 0.72205 0.00659 0.789 0.0
C1966 C 0.75531 0.06659 0.76776 0.0
C1967 C 0.7454 0.98272 0.76282 0.0
H1968 H 0.76453 0.03179 0.68839 0.0
H1969 H 0.82164 0.02172 0.7285 0.0
H1970 H 0.72388 0.01511 0.72753 0.0
H1971 H 0.72635 0.04468 0.72899 0.0
H1972 H 0.72828 0.03072 0.70239 0.0
H1973 H 0.81823 0.01569 0.76722 0.0
H1974 H 0.79685 0.03332 0.77937 0.0
H1975 H 0.7922 1.0041 0.77715 0.0
H1976 H 0.72103 0.06236 0.79705 0.0
H1977 H 0.71291 0.99177 0.79363 0.0
H1978 H 0.75014 0.0707 0.75069 0.0
H1979 H 0.77366 0.06471 0.76731 0.0
H1980 H 0.75079 0.08074 0.77896 0.0
H1981 H 0.73901 0.98169 0.74568 0.0
H1982 H 0.73805 0.9689 0.77265 0.0
H1983 H 0.76369 0.98044 0.76164 0.0
C1984 C 0.31606 0.25171 0.01374 0.0
C1985 C 0.31608 0.2311 0.02485 0.0
C1986 C 0.29714 0.26567 0.01312 0.0
C1987 C 0.27683 0.25923 0.02358 0.0
C1988 C 0.27617 0.23786 0.0338 0.0
C1989 C 0.29567 0.22416 0.03442 0.0
C1990 C 0.29935 0.28802 1.00208 0.0
C1991 C 0.25497 0.22974 0.04477 0.0
C1992 C 0.2406 0.30876 0.04399 0.0
C1993 C 0.22586 0.31252 0.02643 0.0
C1994 C 0.25622 0.2911 0.04368 0.0
C1995 C 0.25748 0.27594 0.02548 0.0
C1996 C 0.2419 0.27883 0.00816 0.0
C1997 C 0.22654 0.297 0.00873 0.0
C1998 C 0.27233 0.28948 0.06248 0.0
C1999 C 0.242 0.26318 0.98848 0.0
H2000 H 0.33136 0.2575 1.0059 0.0
H2001 H 0.29509 0.20851 0.04316 0.0
H2002 H 0.28629 0.29003 0.98954 0.0
H2003 H 0.29692 0.30144 0.01468 0.0
H2004 H 0.31584 0.29032 0.99374 0.0
H2005 H 0.25585 0.21181 0.04888 0.0
H2006 H 0.25172 0.23928 0.06037 0.0
H2007 H 0.24067 0.23252 0.03379 0.0
H2008 H 0.24058 0.32028 0.05794 0.0
H2009 H 0.21562 0.29946 0.99489 0.0
H2010 H 0.28945 0.29286 0.05609 0.0
H2011 H 0.27225 0.27246 0.06936 0.0
H2012 H 0.26841 0.30144 0.07618 0.0
H2013 H 0.25634 0.26705 0.97727 0.0
H2014 H 0.22653 0.26461 0.97884 0.0
H2015 H 0.24389 0.24573 0.99395 0.0
C2016 C 0.32235 0.77235 0.02572 0.0
C2017 C 0.32215 0.79382 0.01618 0.0
C2018 C 0.30417 0.75747 0.02497 0.0
C2019 C 0.28401 0.76371 0.015 0.0
C2020 C 0.28303 0.78571 1.00613 0.0
C2021 C 0.30196 0.80033 0.00663 0.0
C2022 C 0.3069 0.73461 0.03464 0.0
C2023 C 0.26194 0.79374 0.99584 0.0
C2024 C 0.24851 0.71449 0.99314 0.0
C2025 C 0.23354 0.70961 0.01092 0.0
C2026 C 0.26409 0.73225 0.99397 0.0
C2027 C 0.26502 0.74652 0.01289 0.0
C2028 C 0.24943 0.74225 0.03065 0.0
C2029 C 0.23428 0.72392 0.02961 0.0
C2030 C 0.28048 0.73498 0.97482 0.0
C2031 C 0.24908 0.75675 0.0512 0.0
H2032 H 0.33722 0.76662 0.0337 0.0
H2033 H 0.30101 0.81661 0.9992 0.0
H2034 H 0.29555 0.73283 0.04929 0.0
H2035 H 0.30244 0.7217 0.02226 0.0
H2036 H 0.32414 0.7314 0.04003 0.0
H2037 H 0.26258 0.81176 0.99208 0.0
H2038 H 0.25911 0.78444 0.98016 0.0
H2039 H 0.2475 0.7905 0.00717 0.0
H2040 H 0.2487 0.70381 0.97855 0.0
H2041 H 0.22317 0.72068 0.04364 0.0
H2042 H 0.29756 0.73169 0.9806 0.0
H2043 H 0.28015 0.75228 0.96868 0.0
H2044 H 0.27704 0.72352 0.96074 0.0
H2045 H 0.26289 0.75187 0.06204 0.0
H2046 H 0.23322 0.75503 0.06087 0.0
H2047 H 0.25146 0.77446 0.0468 0.0
C2048 C 0.76857 0.32491 0.02441 0.0
C2049 C 0.79012 0.32422 0.03339 0.0
C2050 C 0.75462 0.30609 0.02303 0.0
C2051 C 0.76183 0.28518 0.03075 0.0
C2052 C 0.78375 0.28397 0.03941 0.0
C2053 C 0.79757 0.30334 0.0406 0.0
C2054 C 0.7317 0.30886 0.01367 0.0
C2055 C 0.7925 0.2622 0.04772 0.0
C2056 C 0.71258 0.24768 0.04831 0.0
C2057 C 0.70862 0.23458 0.02922 0.0
C2058 C 0.73053 0.26285 0.04951 0.0
C2059 C 0.7455 0.26554 0.03115 0.0
C2060 C 0.74246 0.25144 0.01223 0.0
C2061 C 0.72421 0.23623 0.01147 0.0
C2062 C 0.73253 0.27715 0.07011 0.0
C2063 C 0.75779 0.25328 0.99217 0.0
H2064 H 0.76222 0.34052 0.01837 0.0
H2065 H 0.81403 0.30214 0.04743 0.0
H2066 H 0.72922 0.29684 0.99987 0.0
H2067 H 0.71891 0.30532 0.02675 0.0
H2068 H 0.72882 0.32587 0.00733 0.0
H2069 H 0.81028 0.26327 0.05219 0.0
H2070 H 0.78265 0.25702 0.0626 0.0
H2071 H 0.79059 0.24906 0.03485 0.0
H2072 H 0.70091 0.24676 0.06228 0.0
H2073 H 0.72149 0.22661 0.99647 0.0
H2074 H 0.72816 0.29456 0.06615 0.0
H2075 H 0.74989 0.27714 0.07592 0.0
H2076 H 0.72138 0.27148 0.08391 0.0
H2077 H 0.75411 0.26885 0.98322 0.0
H2078 H 0.75583 0.23908 0.98047 0.0
H2079 H 0.77538 0.25412 0.99731 0.0
C2080 C 0.79381 0.73199 0.02827 0.0
C2081 C 0.78939 0.71596 0.01171 0.0
C2082 C 0.77865 0.74967 0.0335 0.0
C2083 C 0.75821 0.75171 0.02212 0.0
C2084 C 0.75395 0.73584 1.00511 0.0
C2085 C 0.76935 0.71847 1.00019 0.0
C2086 C 0.78431 0.76591 0.05172 0.0
C2087 C 0.73264 0.73677 0.9924 0.0
C2088 C 0.70691 0.78086 0.04988 0.0
C2089 C 0.7058 0.80158 0.03909 0.0
C2090 C 0.72387 0.765 0.0449 0.0
C2091 C 0.74074 0.76947 0.02861 0.0
C2092 C 0.74001 0.7905 0.01789 0.0
C2093 C 0.72273 0.80611 0.02316 0.0
C2094 C 0.72345 0.74309 0.05691 0.0
C2095 C 0.7574 0.79642 1.00051 0.0
H2096 H 0.8089 0.73042 0.03763 0.0
H2097 H 0.76532 0.70642 0.98743 0.0
H2098 H 0.78272 0.7832 0.0457 0.0
H2099 H 0.77238 0.76399 0.06591 0.0
H2100 H 0.80142 0.76343 0.0578 0.0
H2101 H 0.73206 0.724 0.97899 0.0
H2102 H 0.71824 0.73419 1.00396 0.0
H2103 H 0.73064 0.7534 0.98489 0.0
H2104 H 0.69418 0.77677 0.06221 0.0
H2105 H 0.72236 0.82182 0.01453 0.0
H2106 H 0.73949 0.7404 0.06524 0.0
H2107 H 0.72141 0.72929 0.04479 0.0
H2108 H 0.70978 0.7422 0.0696 0.0
H2109 H 0.77426 0.79448 0.00734 0.0
H2110 H 0.75551 0.8137 0.99452 0.0
H2111 H 0.75624 0.78489 0.98609 0.0
C2112 C 0.54578 0.74489 0.81143 0.0
C2113 C 0.52846 0.72968 0.81582 0.0
C2114 C 0.54523 0.76011 0.79362 0.0
C2115 C 0.52674 0.7607 0.77938 0.0
C2116 C 0.50978 0.7444 0.78279 0.0
C2117 C 0.51078 0.72924 0.80089 0.0
C2118 C 0.56377 0.77685 0.79123 0.0
C2119 C 0.48975 0.74394 0.76822 0.0
C2120 C 0.51213 0.81914 0.75862 0.0
C2121 C 0.52146 0.82011 0.73683 0.0
C2122 C 0.51315 0.79997 0.77194 0.0
C2123 C 0.52372 0.78042 0.76373 0.0
C2124 C 0.53258 0.78079 0.74148 0.0
C2125 C 0.53135 0.80048 0.72833 0.0
C2126 C 0.50336 0.80101 0.79529 0.0
C2127 C 0.5438 0.76046 0.73169 0.0
H2128 H 0.55941 0.74577 0.82289 0.0
H2129 H 0.49697 0.71811 0.8042 0.0
H2130 H 0.56951 0.77798 0.77363 0.0
H2131 H 0.55754 0.79351 0.79641 0.0
H2132 H 0.57822 0.77263 0.80158 0.0
H2133 H 0.48027 0.7282 0.77 0.0
H2134 H 0.47855 0.75795 0.77288 0.0
H2135 H 0.4948 0.74602 0.7505 0.0
H2136 H 0.50401 0.83372 0.76569 0.0
H2137 H 0.53857 0.8006 0.71167 0.0
H2138 H 0.51672 0.79877 0.80749 0.0
H2139 H 0.49122 0.78737 0.79784 0.0
H2140 H 0.49483 0.81704 0.799 0.0
H2141 H 0.55947 0.75727 0.7405 0.0
H2142 H 0.54777 0.76234 0.71368 0.0
H2143 H 0.53303 0.74568 0.73405 0.0
C2144 C 0.20778 0.52445 0.75504 0.0
C2145 C 0.20797 0.51611 0.73307 0.0
C2146 C 0.22598 0.52178 0.76924 0.0
C2147 C 0.24525 0.51008 0.76175 0.0
C2148 C 0.24599 0.50233 0.73924 0.0
C2149 C 0.22747 0.50549 0.72519 0.0
C2150 C 0.22409 0.53071 0.79275 0.0
C2151 C 0.26598 0.48974 0.73031 0.0
C2152 C 0.29666 0.51525 0.79931 0.0
C2153 C 0.29436 0.49671 0.81329 0.0
C2154 C 0.28151 0.51937 0.78196 0.0
C2155 C 0.26349 0.5046 0.77813 0.0
C2156 C 0.2617 0.48542 0.79164 0.0
C2157 C 0.2769 0.48183 0.80891 0.0
C2158 C 0.28424 0.54014 0.76836 0.0
C2159 C 0.24308 0.46899 0.78846 0.0
H2160 H 0.19287 0.53262 0.76147 0.0
H2161 H 0.22783 0.49859 0.70849 0.0
H2162 H 0.22339 0.51669 0.8046 0.0
H2163 H 0.23893 0.54078 0.79673 0.0
H2164 H 0.20901 0.54113 0.79552 0.0
H2165 H 0.26523 0.48685 0.71207 0.0
H2166 H 0.28147 0.49891 0.734 0.0
H2167 H 0.26695 0.47343 0.73866 0.0
H2168 H 0.30978 0.52711 0.80248 0.0
H2169 H 0.27473 0.46742 0.81941 0.0
H2170 H 0.27051 0.55186 0.7726 0.0
H2171 H 0.28323 0.53617 0.75037 0.0
H2172 H 0.3003 0.5486 0.77143 0.0
H2173 H 0.22694 0.47697 0.79296 0.0
H2174 H 0.24499 0.45396 0.79882 0.0
H2175 H 0.24237 0.46379 0.77075 0.0
C2176 C 0.50612 0.23035 0.73482 0.0
C2177 C 0.51332 0.20978 0.74303 0.0
C2178 C 0.50523 0.2498 0.7486 0.0
C2179 C 0.51181 0.24898 0.77123 0.0
C2180 C 0.51985 0.22845 0.77919 0.0
C2181 C 0.52044 0.20942 0.76523 0.0
C2182 C 0.49656 0.27112 0.73913 0.0
C2183 C 0.52723 0.22628 0.80291 0.0
C2184 C 0.52409 0.2995 0.80977 0.0
C2185 C 0.50495 0.30026 0.82366 0.0
C2186 C 0.52613 0.28391 0.79181 0.0
C2187 C 0.50865 0.26861 0.78736 0.0
C2188 C 0.48884 0.27039 0.80053 0.0
C2189 C 0.48732 0.2859 0.81832 0.0
C2190 C 0.5476 0.28295 0.77843 0.0
C2191 C 0.46956 0.25487 0.79677 0.0
H2192 H 0.50052 0.23113 0.71785 0.0
H2193 H 0.52634 0.19395 0.77202 0.0
H2194 H 0.48031 0.2753 0.74721 0.0
H2195 H 0.50811 0.285 0.74269 0.0
H2196 H 0.4943 0.26991 0.72088 0.0
H2197 H 0.53444 0.20969 0.80626 0.0
H2198 H 0.53982 0.23914 0.80671 0.0
H2199 H 0.51283 0.22902 0.81448 0.0
H2200 H 0.53803 0.31009 0.81375 0.0
H2201 H 0.47241 0.28613 0.8288 0.0
H2202 H 0.54426 0.28157 0.76041 0.0
H2203 H 0.5571 0.26797 0.78312 0.0
H2204 H 0.55812 0.29781 0.78135 0.0
H2205 H 0.4654 0.25432 0.77891 0.0
H2206 H 0.45447 0.25985 0.80659 0.0
H2207 H 0.47427 0.23779 0.80163 0.0
C2208 C 0.72891 0.51976 0.79878 0.0
C2209 C 0.73173 0.50269 0.81431 0.0
C2210 C 0.74315 0.52164 0.77961 0.0
C2211 C 0.76112 0.50648 0.77594 0.0
C2212 C 0.76341 0.48882 0.79115 0.0
C2213 C 0.74873 0.48702 0.80969 0.0
C2214 C 0.73941 0.54039 0.7637 0.0
C2215 C 0.78238 0.47245 0.78869 0.0
C2216 C 0.79916 0.50028 0.72312 0.0
C2217 C 0.81787 0.51285 0.72904 0.0
C2218 C 0.77991 0.49916 0.73741 0.0
C2219 C 0.77933 0.51047 0.75838 0.0
C2220 C 0.79776 0.52392 0.7638 0.0
C2221 C 0.81634 0.52514 0.74915 0.0
C2222 C 0.76049 0.48518 0.7304 0.0
C2223 C 0.79856 0.53608 0.78587 0.0
H2224 H 0.71599 0.53202 0.80187 0.0
H2225 H 0.75132 0.47358 0.82121 0.0
H2226 H 0.75179 0.55368 0.7666 0.0
H2227 H 0.74167 0.53457 0.74622 0.0
H2228 H 0.72253 0.54768 0.7659 0.0
H2229 H 0.78127 0.45893 0.80111 0.0
H2230 H 0.78268 0.46489 0.77181 0.0
H2231 H 0.79841 0.48126 0.79076 0.0
H2232 H 0.79982 0.49069 0.7078 0.0
H2233 H 0.83027 0.5353 0.7541 0.0
H2234 H 0.74456 0.49389 0.73423 0.0
H2235 H 0.76033 0.46942 0.7398 0.0
H2236 H 0.76139 0.48109 0.71235 0.0
H2237 H 0.78371 0.54682 0.78825 0.0
H2238 H 0.81364 0.54657 0.78732 0.0
H2239 H 0.79837 0.52389 0.79962 0.0
C2240 C 0.52445 0.22697 0.3051 0.0
C2241 C 0.50471 0.21447 0.30657 0.0
C2242 C 0.52688 0.24489 0.28981 0.0
C2243 C 0.50927 0.25062 0.27541 0.0
C2244 C 0.48892 0.2389 0.27797 0.0
C2245 C 0.48695 0.22125 0.29328 0.0
C2246 C 0.54886 0.2568 0.28815 0.0
C2247 C 0.46954 0.24388 0.2633 0.0
C2248 C 0.50816 0.30251 0.23687 0.0
C2249 C 0.51501 0.29347 0.21613 0.0
C2250 C 0.50704 0.28922 0.25648 0.0
C2251 C 0.51281 0.2662 0.25562 0.0
C2252 C 0.52039 0.25735 0.23488 0.0
C2253 C 0.52144 0.27087 0.2158 0.0
C2254 C 0.49911 0.29971 0.27807 0.0
C2255 C 0.52671 0.23314 0.23255 0.0
H2256 H 0.53849 0.22192 0.31483 0.0
H2257 H 0.47157 0.21189 0.29405 0.0
H2258 H 0.55806 0.25114 0.27294 0.0
H2259 H 0.54627 0.27498 0.28675 0.0
H2260 H 0.55933 0.25352 0.30274 0.0
H2261 H 0.45414 0.23517 0.26884 0.0
H2262 H 0.46619 0.26198 0.26307 0.0
H2263 H 0.47367 0.23856 0.24598 0.0
H2264 H 0.50314 0.31979 0.23771 0.0
H2265 H 0.52709 0.26332 0.20025 0.0
H2266 H 0.51058 0.29551 0.2916 0.0
H2267 H 0.48251 0.29299 0.28278 0.0
H2268 H 0.49782 0.31806 0.2769 0.0
H2269 H 0.5395 0.22883 0.24479 0.0
H2270 H 0.53329 0.2289 0.21563 0.0
H2271 H 0.51195 0.2226 0.2361 0.0
C2272 C 0.71855 0.51225 0.23251 0.0
C2273 C 0.72255 0.5262 0.21415 0.0
C2274 C 0.73301 0.51201 0.25105 0.0
C2275 C 0.75252 0.52551 0.25127 0.0
C2276 C 0.75633 0.53979 0.23294 0.0
C2277 C 0.74141 0.54014 0.21507 0.0
C2278 C 0.72763 0.49689 0.27026 0.0
C2279 C 0.77692 0.5541 0.23158 0.0
C2280 C 0.79086 0.53769 0.30147 0.0
C2281 C 0.80838 0.5225 0.29768 0.0
C2282 C 0.77188 0.53802 0.28752 0.0
C2283 C 0.77032 0.52313 0.26898 0.0
C2284 C 0.78747 0.50717 0.26591 0.0
C2285 C 0.80578 0.5069 0.28022 0.0
C2286 C 0.7539 0.55498 0.29214 0.0
C2287 C 0.78733 0.49111 0.24647 0.0
H2288 H 0.70424 0.50134 0.23234 0.0
H2289 H 0.74517 0.55101 0.20123 0.0
H2290 H 0.73918 0.48253 0.26985 0.0
H2291 H 0.72986 0.50577 0.2863 0.0
H2292 H 0.71034 0.49048 0.26967 0.0
H2293 H 0.77724 0.56493 0.21672 0.0
H2294 H 0.77801 0.56475 0.24665 0.0
H2295 H 0.79194 0.54337 0.23091 0.0
H2296 H 0.79239 0.54998 0.31461 0.0
H2297 H 0.81884 0.4948 0.27697 0.0
H2298 H 0.73722 0.54737 0.29039 0.0
H2299 H 0.75538 0.56855 0.27985 0.0
H2300 H 0.7551 0.56233 0.30907 0.0
H2301 H 0.77144 0.4818 0.24628 0.0
H2302 H 0.80123 0.47898 0.24687 0.0
H2303 H 0.78867 0.50046 0.23067 0.0
C2304 C 0.48794 0.74857 0.22066 0.0
C2305 C 0.50309 0.73102 0.21639 0.0
C2306 C 0.48979 0.76333 0.23906 0.0
C2307 C 0.50721 0.76088 0.25439 0.0
C2308 C 0.52185 0.74236 0.25103 0.0
C2309 C 0.51974 0.72786 0.23217 0.0
C2310 C 0.4738 0.78261 0.24113 0.0
C2311 C 0.54058 0.73845 0.26672 0.0
C2312 C 0.527 0.81608 0.28068 0.0
C2313 C 0.51508 0.81775 0.30119 0.0
C2314 C 0.52528 0.79756 0.26611 0.0
C2315 C 0.51146 0.77928 0.27178 0.0
C2316 C 0.50034 0.78009 0.29306 0.0
C2317 C 0.50214 0.79919 0.30736 0.0
C2318 C 0.53756 0.79815 0.24393 0.0
C2319 C 0.48585 0.76102 0.30044 0.0
H2320 H 0.47502 0.75156 0.20877 0.0
H2321 H 0.53194 0.71486 0.22916 0.0
H2322 H 0.46642 0.78353 0.25817 0.0
H2323 H 0.48292 0.79837 0.23817 0.0
H2324 H 0.46013 0.78141 0.22907 0.0
H2325 H 0.54696 0.72116 0.26539 0.0
H2326 H 0.55447 0.74991 0.26263 0.0
H2327 H 0.53514 0.74183 0.28419 0.0
H2328 H 0.53733 0.82991 0.27543 0.0
H2329 H 0.49265 0.79991 0.32288 0.0
H2330 H 0.52547 0.79787 0.23027 0.0
H2331 H 0.54825 0.78323 0.24188 0.0
H2332 H 0.54816 0.81315 0.24208 0.0
H2333 H 0.47044 0.76082 0.29066 0.0
H2334 H 0.48112 0.76229 0.31837 0.0
H2335 H 0.49454 0.74499 0.29731 0.0
C2336 C 0.294 0.52029 0.21381 0.0
C2337 C 0.29797 0.54109 0.20406 0.0
C2338 C 0.27717 0.51742 0.23053 0.0
C2339 C 0.26411 0.53584 0.23814 0.0
C2340 C 0.26916 0.55708 0.22928 0.0
C2341 C 0.28564 0.55935 0.21232 0.0
C2342 C 0.27237 0.49436 0.2389 0.0
C2343 C 0.25621 0.57738 0.23681 0.0
C2344 C 0.20305 0.53034 0.25744 0.0
C2345 C 0.20386 0.533 0.28068 0.0
C2346 C 0.22246 0.52996 0.24378 0.0
C2347 C 0.24367 0.53286 0.25324 0.0
C2348 C 0.24473 0.53477 0.27683 0.0
C2349 C 0.22491 0.53462 0.29025 0.0
C2350 C 0.22012 0.52735 0.21895 0.0
C2351 C 0.26676 0.53805 0.28783 0.0
H2352 H 0.303 0.50595 0.20732 0.0
H2353 H 0.28832 0.57547 0.20482 0.0
H2354 H 0.27011 0.49446 0.25725 0.0
H2355 H 0.25663 0.48831 0.23172 0.0
H2356 H 0.28583 0.48248 0.23416 0.0
H2357 H 0.26375 0.59297 0.23042 0.0
H2358 H 0.23894 0.57623 0.2308 0.0
H2359 H 0.25525 0.57833 0.25524 0.0
H2360 H 0.18696 0.52895 0.24977 0.0
H2361 H 0.22585 0.53693 0.30809 0.0
H2362 H 0.2315 0.51421 0.21241 0.0
H2363 H 0.22484 0.54308 0.21062 0.0
H2364 H 0.20286 0.52306 0.21432 0.0
H2365 H 0.2789 0.52536 0.28181 0.0
H2366 H 0.26523 0.53714 0.30624 0.0
H2367 H 0.27361 0.55455 0.28329 0.0
C2368 C 0.73707 0.81307 0.49907 0.0
C2369 C 0.72852 0.82214 0.5192 0.0
C2370 C 0.75333 0.79572 0.49869 0.0
C2371 C 0.76143 0.78678 0.51886 0.0
C2372 C 0.75206 0.79525 0.53911 0.0
C2373 C 0.736 0.81253 0.53902 0.0
C2374 C 0.76266 0.78769 0.4766 0.0
C2375 C 0.76009 0.78705 0.56116 0.0
C2376 C 0.79878 0.73344 0.52128 0.0
C2377 C 0.82042 0.74239 0.52176 0.0
C2378 C 0.77954 0.74741 0.51989 0.0
C2379 C 0.78161 0.77107 0.51914 0.0
C2380 C 0.80339 0.77999 0.51982 0.0
C2381 C 0.82208 0.76583 0.52096 0.0
C2382 C 0.75688 0.73684 0.51917 0.0
C2383 C 0.80737 0.80475 0.5189 0.0
H2384 H 0.73188 0.82024 0.48357 0.0
H2385 H 0.72979 0.81909 0.55481 0.0
H2386 H 0.78019 0.7932 0.47467 0.0
H2387 H 0.76261 0.76927 0.47586 0.0
H2388 H 0.75315 0.79419 0.46243 0.0
H2389 H 0.7498 0.79346 0.57539 0.0
H2390 H 0.75995 0.76863 0.56152 0.0
H2391 H 0.77753 0.7925 0.56341 0.0
H2392 H 0.79685 0.71556 0.52179 0.0
H2393 H 0.83833 0.77353 0.52132 0.0
H2394 H 0.74818 0.74231 0.50409 0.0
H2395 H 0.74667 0.74236 0.53379 0.0
H2396 H 0.75779 0.71841 0.51909 0.0
H2397 H 0.8068 0.81009 0.50133 0.0
H2398 H 0.82394 0.80932 0.52531 0.0
H2399 H 0.79452 0.81419 0.52854 0.0
C2400 C 0.81806 0.27752 0.5201 0.0
C2401 C 0.81917 0.29758 0.50802 0.0
C2402 C 0.79917 0.26351 0.52029 0.0
C2403 C 0.78001 0.26932 0.50834 0.0
C2404 C 0.78039 0.29009 0.49698 0.0
C2405 C 0.79983 0.30385 0.49686 0.0
C2406 C 0.80024 0.24176 0.53257 0.0
C2407 C 0.76043 0.29748 0.48429 0.0
C2408 C 0.74594 0.21891 0.48824 0.0
C2409 C 0.72919 0.21617 0.50487 0.0
C2410 C 0.76164 0.23643 0.48874 0.0
C2411 C 0.76095 0.25249 0.50615 0.0
C2412 C 0.74347 0.25056 0.52251 0.0
C2413 C 0.72803 0.2325 0.5218 0.0
C2414 C 0.77982 0.23703 0.47101 0.0
C2415 C 0.7415 0.26722 0.54129 0.0
H2416 H 0.83246 0.27223 0.52916 0.0
H2417 H 0.8001 0.31906 0.48738 0.0
H2418 H 0.78587 0.24026 0.54434 0.0
H2419 H 0.79926 0.22772 0.52055 0.0
H2420 H 0.81578 0.24001 0.54202 0.0
H2421 H 0.76176 0.31512 0.47918 0.0
H2422 H 0.75883 0.28702 0.46914 0.0
H2423 H 0.74501 0.29531 0.49453 0.0
H2424 H 0.74737 0.20677 0.47488 0.0
H2425 H 0.71548 0.23087 0.53488 0.0
H2426 H 0.79615 0.2341 0.4787 0.0
H2427 H 0.78052 0.25363 0.46319 0.0
H2428 H 0.77744 0.22431 0.4578 0.0
H2429 H 0.755 0.2644 0.5532 0.0
H2430 H 0.72529 0.26591 0.55042 0.0
H2431 H 0.7434 0.28436 0.53489 0.0
C2432 C 0.22702 0.74204 0.50587 0.0
C2433 C 0.21272 0.73975 0.52457 0.0
C2434 C 0.24547 0.75699 0.50594 0.0
C2435 C 0.25022 0.77001 0.52522 0.0
C2436 C 0.23662 0.76656 0.5445 0.0
C2437 C 0.21821 0.75186 0.54387 0.0
C2438 C 0.25907 0.7599 0.48481 0.0
C2439 C 0.24055 0.7796 0.56559 0.0
C2440 C 0.30359 0.80721 0.52982 0.0
C2441 C 0.2956 0.82826 0.52372 0.0
C2442 C 0.28937 0.78805 0.53017 0.0
C2443 C 0.2665 0.78967 0.52429 0.0
C2444 C 0.25852 0.81089 0.5184 0.0
C2445 C 0.27281 0.82947 0.51832 0.0
C2446 C 0.29883 0.76598 0.53679 0.0
C2447 C 0.23456 0.81416 0.51208 0.0
H2448 H 0.223 0.73323 0.49069 0.0
H2449 H 0.20745 0.75048 0.5585 0.0
H2450 H 0.255 0.77614 0.47734 0.0
H2451 H 0.27708 0.76 0.4884 0.0
H2452 H 0.25575 0.74658 0.47243 0.0
H2453 H 0.23092 0.77286 0.58 0.0
H2454 H 0.25846 0.77955 0.56957 0.0
H2455 H 0.23551 0.79713 0.56323 0.0
H2456 H 0.32092 0.8056 0.53405 0.0
H2457 H 0.26573 0.84532 0.51395 0.0
H2458 H 0.29681 0.75371 0.52311 0.0
H2459 H 0.28952 0.75956 0.55151 0.0
H2460 H 0.31673 0.76711 0.54078 0.0
H2461 H 0.23082 0.80376 0.49732 0.0
H2462 H 0.23072 0.83173 0.50819 0.0
H2463 H 0.22326 0.80882 0.52585 0.0
C2464 C 0.22094 0.3071 0.50951 0.0
C2465 C 0.20609 0.30501 0.52785 0.0
C2466 C 0.23797 0.29113 0.50483 0.0
C2467 C 0.24037 0.27212 0.51852 0.0
C2468 C 0.22564 0.27012 0.5372 0.0
C2469 C 0.20901 0.28643 0.54165 0.0
C2470 C 0.2532 0.29443 0.48488 0.0
C2471 C 0.22698 0.25028 0.55228 0.0
C2472 C 0.26665 0.21808 0.49431 0.0
C2473 C 0.28794 0.21742 0.50369 0.0
C2474 C 0.25144 0.23569 0.49869 0.0
C2475 C 0.25729 0.25375 0.51275 0.0
C2476 C 0.27894 0.25352 0.5219 0.0
C2477 C 0.29381 0.23547 0.51744 0.0
C2478 C 0.22869 0.23461 0.48865 0.0
C2479 C 0.28631 0.27225 0.53678 0.0
H2480 H 0.21911 0.32114 0.49856 0.0
H2481 H 0.19781 0.28422 0.55582 0.0
H2482 H 0.27082 0.29336 0.48987 0.0
H2483 H 0.25044 0.28102 0.47249 0.0
H2484 H 0.25048 0.31069 0.4768 0.0
H2485 H 0.21494 0.25133 0.56653 0.0
H2486 H 0.2236 0.23486 0.54269 0.0
H2487 H 0.24399 0.24875 0.55885 0.0
H2488 H 0.26149 0.2044 0.48381 0.0
H2489 H 0.30997 0.23539 0.52502 0.0
H2490 H 0.22557 0.24981 0.47891 0.0
H2491 H 0.21576 0.23393 0.50209 0.0
H2492 H 0.22673 0.2199 0.4776 0.0
H2493 H 0.28398 0.28841 0.52841 0.0
H2494 H 0.30402 0.27064 0.54137 0.0
H2495 H 0.2759 0.27258 0.55224 0.0
C2496 C 0.06732 0.15244 0.38811 0.0
C2497 C 0.07086 0.17302 0.3779 0.0
C2498 C 0.08345 0.1356 0.38677 0.0
C2499 C 0.10357 0.13926 0.37465 0.0
C2500 C 0.10703 0.15984 0.36384 0.0
C2501 C 0.09067 0.17655 0.36572 0.0
C2502 C 0.07912 0.114 0.3987 0.0
C2503 C 0.12805 0.16425 0.35044 0.0
C2504 C 0.15233 0.10265 0.39042 0.0
C2505 C 0.15088 0.0853 0.37485 0.0
C2506 C 0.13748 0.1207 0.39012 0.0
C2507 C 0.121 0.12156 0.37366 0.0
C2508 C 0.12022 0.10456 0.35725 0.0
C2509 C 0.13506 0.08656 0.35815 0.0
C2510 C 0.13876 0.13832 0.40806 0.0
C2511 C 0.10318 0.10497 0.33923 0.0
H2512 H 0.05205 0.14964 0.3976 0.0
H2513 H 0.09343 0.19241 0.35774 0.0
H2514 H 0.07995 0.09991 0.3867 0.0
H2515 H 0.09215 0.11121 0.41114 0.0
H2516 H 0.06261 0.11377 0.40736 0.0
H2517 H 0.12782 0.18074 0.3423 0.0
H2518 H 0.14263 0.16351 0.36138 0.0
H2519 H 0.13043 0.15122 0.33744 0.0
H2520 H 0.16449 0.10168 0.4034 0.0
H2521 H 0.13393 0.07317 0.34605 0.0
H2522 H 0.12343 0.13786 0.41867 0.0
H2523 H 0.13972 0.15506 0.40055 0.0
H2524 H 0.15334 0.136 0.41881 0.0
H2525 H 0.08632 0.10262 0.3467 0.0
H2526 H 0.10615 0.09175 0.3265 0.0
H2527 H 0.10331 0.12133 0.33087 0.0
C2528 C 0.98695 0.10277 0.36811 0.0
C2529 C 0.98264 0.12165 0.35548 0.0
C2530 C 0.9725 0.08445 0.36769 0.0
C2531 C 0.95352 0.08511 0.35417 0.0
C2532 C 0.9505 0.10322 0.3397 0.0
C2533 C 0.96506 0.12134 0.34061 0.0
C2534 C 0.97638 0.06542 0.38329 0.0
C2535 C 0.9307 0.10446 0.32477 0.0
C2536 C 0.91525 0.0351 0.34824 0.0
C2537 C 0.89817 0.04057 0.36357 0.0
C2538 C 0.93368 0.04922 0.34516 0.0
C2539 C 0.93501 0.06908 0.35785 0.0
C2540 C 0.91794 0.07437 0.37366 0.0
C2541 C 0.8997 0.0601 0.37623 0.0
C2542 C 0.95147 0.04313 0.32808 0.0
C2543 C 0.91875 0.0953 0.38766 0.0
H2544 H 1.00056 0.103 0.37963 0.0
H2545 H 0.96182 0.1359 0.33071 0.0
H2546 H 0.96465 0.06684 0.39775 0.0
H2547 H 0.9732 0.04926 0.37497 0.0
H2548 H 0.9936 0.06543 0.38958 0.0
H2549 H 0.93268 0.11766 0.31209 0.0
H2550 H 0.92804 0.08835 0.31615 0.0
H2551 H 0.91552 0.10813 0.33499 0.0
H2552 H 0.91407 0.01996 0.33846 0.0
H2553 H 0.88656 0.06428 0.38819 0.0
H2554 H 0.96805 0.04324 0.33577 0.0
H2555 H 0.95189 0.05567 0.31467 0.0
H2556 H 0.94863 0.02651 0.32049 0.0
H2557 H 0.9345 0.09596 0.39687 0.0
H2558 H 0.90462 0.09647 0.39984 0.0
H2559 H 0.91834 0.11007 0.37677 0.0
C2560 C 0.93722 0.85183 0.39961 0.0
C2561 C 0.9584 0.85192 0.3894 0.0
C2562 C 0.92218 0.86949 0.39663 0.0
C2563 C 0.92862 0.88802 0.38354 0.0
C2564 C 0.95008 0.8882 0.37329 0.0
C2565 C 0.96453 0.87003 0.37606 0.0
C2566 C 0.89938 0.86834 0.40759 0.0
C2567 C 0.95796 0.90775 0.35971 0.0
C2568 C 0.88166 0.92528 0.36331 0.0
C2569 C 0.88016 0.94122 0.3804 0.0
C2570 C 0.89787 0.9083 0.36362 0.0
C2571 C 0.91312 0.90744 0.38128 0.0
C2572 C 0.91245 0.92441 0.39778 0.0
C2573 C 0.89578 0.94081 0.39733 0.0
C2574 C 0.89766 0.89043 0.34589 0.0
C2575 C 0.92859 0.9246 0.41663 0.0
H2576 H 0.93233 0.83786 0.40986 0.0
H2577 H 0.98083 0.87018 0.36802 0.0
H2578 H 0.89738 0.88201 0.41997 0.0
H2579 H 0.88638 0.87058 0.395 0.0
H2580 H 0.89645 0.85231 0.41617 0.0
H2581 H 0.97524 0.90552 0.35315 0.0
H2582 H 0.94681 0.91029 0.34552 0.0
H2583 H 0.95725 0.9231 0.37005 0.0
H2584 H 0.86919 0.92513 0.35059 0.0
H2585 H 0.89434 0.95285 0.41081 0.0
H2586 H 0.89234 0.87449 0.35345 0.0
H2587 H 0.9146 0.88787 0.33866 0.0
H2588 H 0.88619 0.89446 0.33229 0.0
H2589 H 0.92491 0.91052 0.4279 0.0
H2590 H 0.92764 0.94026 0.4265 0.0
H2591 H 0.94587 0.92241 0.41012 0.0
C2592 C 0.12831 0.95965 0.36508 0.0
C2593 C 0.13022 0.98272 0.36781 0.0
C2594 C 0.10781 0.94892 0.36729 0.0
C2595 C 0.08828 0.96162 0.37124 0.0
C2596 C 0.08987 0.98509 0.37319 0.0
C2597 C 0.11099 0.99536 0.37204 0.0
C2598 C 0.10726 0.92382 0.36577 0.0
C2599 C 0.06942 0.99931 0.37665 0.0
C2600 C 0.04159 0.92355 0.35557 0.0
C2601 C 0.03627 0.91407 0.37617 0.0
C2602 C 0.05623 0.94168 0.35404 0.0
C2603 C 0.06663 0.94965 0.37346 0.0
C2604 C 0.05958 0.94148 0.3945 0.0
C2605 C 0.04414 0.92398 0.39561 0.0
C2606 C 0.06237 0.95067 0.3314 0.0
C2607 C 0.07047 0.94904 0.41561 0.0
H2608 H 0.14307 0.94969 0.36188 0.0
H2609 H 0.11244 0.01318 0.37422 0.0
H2610 H 0.09867 0.91687 0.38067 0.0
H2611 H 0.09785 0.91854 0.351 0.0
H2612 H 0.12417 0.91642 0.36442 0.0
H2613 H 0.07287 0.01705 0.37301 0.0
H2614 H 0.05578 0.99347 0.36594 0.0
H2615 H 0.06348 0.99814 0.39418 0.0
H2616 H 0.03536 0.91597 0.34052 0.0
H2617 H 0.04011 0.91655 0.41156 0.0
H2618 H 0.07822 0.94302 0.32542 0.0
H2619 H 0.06485 0.96893 0.33218 0.0
H2620 H 0.0494 0.94684 0.31908 0.0
H2621 H 0.08727 0.94147 0.41639 0.0
H2622 H 0.06073 0.94404 0.43066 0.0
H2623 H 0.07258 0.96732 0.4159 0.0
C2624 C 0.14721 0.9244 0.67834 0.0
C2625 C 0.13902 0.94473 0.67086 0.0
C2626 C 0.13388 0.90519 0.67818 0.0
C2627 C 0.11207 0.90625 0.6698 0.0
C2628 C 0.10358 0.92691 0.66272 0.0
C2629 C 0.11707 0.94594 0.66358 0.0
C2630 C 0.14334 0.88364 0.68643 0.0
C2631 C 0.0806 0.92875 0.65328 0.0
C2632 C 0.08749 0.85347 0.64511 0.0
C2633 C 0.07188 0.84739 0.66158 0.0
C2634 C 0.10066 0.87257 0.6476 0.0
C2635 C 0.09853 0.88562 0.66728 0.0
C2636 C 0.08308 0.87923 0.68417 0.0
C2637 C 0.06974 0.86034 0.68099 0.0
C2638 C 0.11651 0.87905 0.62894 0.0
C2639 C 0.08058 0.8924 0.70555 0.0
H2640 H 0.16416 0.92343 0.68399 0.0
H2641 H 0.11073 0.9616 0.65763 0.0
H2642 H 0.13169 0.87599 0.6987 0.0
H2643 H 0.14544 0.87174 0.67235 0.0
H2644 H 0.15972 0.88598 0.69429 0.0
H2645 H 0.07616 0.94616 0.64929 0.0
H2646 H 0.07969 0.91855 0.63787 0.0
H2647 H 0.06798 0.92217 0.66522 0.0
H2648 H 0.08904 0.84358 0.63 0.0
H2649 H 0.05767 0.85564 0.69376 0.0
H2650 H 0.13375 0.87977 0.63505 0.0
H2651 H 0.11228 0.89588 0.62295 0.0
H2652 H 0.11606 0.86723 0.61466 0.0
H2653 H 0.09696 0.89413 0.7135 0.0
H2654 H 0.06875 0.88452 0.71754 0.0
H2655 H 0.07455 0.90938 0.70199 0.0
C2656 C 0.04068 0.1061 0.67897 0.0
C2657 C 0.04532 0.12239 0.663 0.0
C2658 C 0.05585 0.08859 0.68249 0.0
C2659 C 0.07616 0.08767 0.66999 0.0
C2660 C 0.08034 0.10366 0.65329 0.0
C2661 C 0.06487 0.12062 0.64995 0.0
C2662 C 0.05049 0.07161 0.70008 0.0
C2663 C 0.10171 0.10355 0.63954 0.0
C2664 C 0.13125 0.0663 0.68984 0.0
C2665 C 0.13524 0.04851 0.67506 0.0
C2666 C 0.11101 0.07794 0.68999 0.0
C2667 C 0.09417 0.07149 0.67516 0.0
C2668 C 0.09716 0.05194 0.6621 0.0
C2669 C 0.11773 0.04073 0.6621 0.0
C2670 C 0.10866 0.09858 0.70429 0.0
C2671 C 0.07942 0.04403 0.64659 0.0
H2672 H 0.02555 0.10734 0.68904 0.0
H2673 H 0.06853 0.13303 0.63745 0.0
H2674 H 0.05501 0.05466 0.69414 0.0
H2675 H 0.06035 0.07517 0.71505 0.0
H2676 H 0.03259 0.07186 0.70502 0.0
H2677 H 0.10211 0.11679 0.6268 0.0
H2678 H 0.11609 0.10597 0.65055 0.0
H2679 H 0.10396 0.08729 0.63098 0.0
H2680 H 0.14459 0.07221 0.70018 0.0
H2681 H 0.12056 0.0268 0.65083 0.0
H2682 H 0.09207 0.09918 0.71269 0.0
H2683 H 0.11017 0.11347 0.69361 0.0
H2684 H 0.12163 0.09953 0.71712 0.0
H2685 H 0.06264 0.04586 0.65445 0.0
H2686 H 0.08198 0.02639 0.64158 0.0
H2687 H 0.07988 0.05428 0.63135 0.0
C2688 C 0.92486 0.16809 0.63918 0.0
C2689 C 0.94673 0.16775 0.6467 0.0
C2690 C 0.91168 0.14882 0.63936 0.0
C2691 C 0.92081 0.12846 0.64657 0.0
C2692 C 0.94295 0.12803 0.65414 0.0
C2693 C 0.95551 0.14778 0.65443 0.0
C2694 C 0.88801 0.15022 0.63162 0.0
C2695 C 0.9536 0.10663 0.66128 0.0
C2696 C 0.8789 0.08293 0.66088 0.0
C2697 C 0.8769 0.07221 0.64024 0.0
C2698 C 0.89378 0.10078 0.6635 0.0
C2699 C 0.90734 0.10763 0.6452 0.0
C2700 C 0.90642 0.09572 0.62482 0.0
C2701 C 0.89094 0.07843 0.62249 0.0
C2702 C 0.89381 0.11328 0.68535 0.0
C2703 C 0.92097 0.10196 0.60506 0.0
H2704 H 0.91796 0.18352 0.63324 0.0
H2705 H 0.97243 0.14744 0.66006 0.0
H2706 H 0.88616 0.1402 0.61621 0.0
H2707 H 0.87645 0.14322 0.64438 0.0
H2708 H 0.88288 0.16756 0.62818 0.0
H2709 H 0.97082 0.10915 0.66712 0.0
H2710 H 0.94355 0.09892 0.67483 0.0
H2711 H 0.9541 0.09467 0.64713 0.0
H2712 H 0.86779 0.07837 0.67453 0.0
H2713 H 0.88931 0.07019 0.6065 0.0
H2714 H 0.8866 0.13005 0.68306 0.0
H2715 H 0.91105 0.1156 0.6911 0.0
H2716 H 0.88399 0.10465 0.69853 0.0
H2717 H 0.91529 0.11802 0.59829 0.0
H2718 H 0.92049 0.08925 0.59158 0.0
H2719 H 0.93845 0.10416 0.61014 0.0
C2720 C 0.97591 0.91092 0.69583 0.0
C2721 C 0.992 0.90635 0.67923 0.0
C2722 C 0.96074 0.92835 0.6935 0.0
C2723 C 0.96167 0.94134 0.67401 0.0
C2724 C 0.97954 0.93842 0.65849 0.0
C2725 C 0.99465 0.92092 0.66135 0.0
C2726 C 0.94222 0.93112 0.71068 0.0
C2727 C 0.98131 0.9521 0.63764 0.0
C2728 C 0.90483 0.95597 0.65259 0.0
C2729 C 0.90247 0.97809 0.65951 0.0
C2730 C 0.92434 0.94411 0.65667 0.0
C2731 C 0.94189 0.95464 0.66803 0.0
C2732 C 0.93978 0.97717 0.67465 0.0
C2733 C 0.92003 0.98867 0.6703 0.0
C2734 C 0.92594 0.92011 0.64923 0.0
C2735 C 0.95812 0.98893 0.68676 0.0
H2736 H 0.97401 0.89972 0.70978 0.0
H2737 H 0.00712 0.9174 0.6485 0.0
H2738 H 0.93911 0.94894 0.71438 0.0
H2739 H 0.92666 0.92401 0.70407 0.0
H2740 H 0.94598 0.92254 0.72643 0.0
H2741 H 0.99821 0.95111 0.62985 0.0
H2742 H 0.9692 0.94582 0.62545 0.0
H2743 H 0.97724 0.96977 0.64118 0.0
H2744 H 0.89131 0.94783 0.64414 0.0
H2745 H 0.91822 1.00585 0.67558 0.0
H2746 H 0.92742 0.90925 0.66394 0.0
H2747 H 0.94105 0.91753 0.6386 0.0
H2748 H 0.91122 0.91471 0.63976 0.0
H2749 H 0.95999 0.98151 0.70343 0.0
H2750 H 0.95475 0.00697 0.68892 0.0
H2751 H 0.97422 0.98677 0.67763 0.0
C2752 C 0.36053 0.0481 0.15462 0.0
C2753 C 0.37013 0.05803 0.17324 0.0
C2754 C 0.35644 0.06033 0.13531 0.0
C2755 C 0.36267 0.08299 0.13432 0.0
C2756 C 0.37212 0.09319 0.15329 0.0
C2757 C 0.37543 0.08066 0.17264 0.0
C2758 C 0.34568 0.04891 0.11588 0.0
C2759 C 0.37945 0.11715 0.15287 0.0
C2760 C 0.37513 0.10957 0.07795 0.0
C2761 C 0.3569 0.12385 0.07577 0.0
C2762 C 0.37699 0.09583 0.09666 0.0
C2763 C 0.35991 0.09589 0.11333 0.0
C2764 C 0.34075 0.10916 0.11037 0.0
C2765 C 0.33965 0.12323 0.09184 0.0
C2766 C 0.3979 0.08229 0.09925 0.0
C2767 C 0.3218 0.10923 0.12726 0.0
H2768 H 0.35611 0.03069 0.15523 0.0
H2769 H 0.38303 0.08832 0.18696 0.0
H2770 H 0.33078 0.05834 0.11089 0.0
H2771 H 0.35738 0.0485 0.10136 0.0
H2772 H 0.34064 0.0316 0.11977 0.0
H2773 H 0.38655 0.12262 0.1689 0.0
H2774 H 0.39217 0.11951 0.13944 0.0
H2775 H 0.36517 0.12806 0.14914 0.0
H2776 H 0.38871 0.11025 0.06581 0.0
H2777 H 0.3256 0.13437 0.09031 0.0
H2778 H 0.3937 0.06462 0.10222 0.0
H2779 H 0.40697 0.08838 0.11397 0.0
H2780 H 0.40918 0.08327 0.08441 0.0
H2781 H 0.31683 0.09196 0.13133 0.0
H2782 H 0.30704 0.11829 0.12125 0.0
H2783 H 0.32723 0.11727 0.14288 0.0
C2784 C 0.96996 0.36483 0.16433 0.0
C2785 C 0.96456 0.37628 0.18409 0.0
C2786 C 0.95527 0.36417 0.14646 0.0
C2787 C 0.93462 0.37547 0.14826 0.0
C2788 C 0.92885 0.38666 0.16848 0.0
C2789 C 0.94383 0.3868 0.18622 0.0
C2790 C 0.96206 0.35169 0.12551 0.0
C2791 C 0.90716 0.39912 0.1711 0.0
C2792 C 0.90659 0.39211 0.09426 0.0
C2793 C 0.88983 0.37604 0.09256 0.0
C2794 C 0.92118 0.39221 0.11233 0.0
C2795 C 0.91921 0.37566 0.12894 0.0
C2796 C 0.90261 0.35913 0.12694 0.0
C2797 C 0.88806 0.35964 0.10894 0.0
C2798 C 0.93846 0.41028 0.11386 0.0
C2799 C 0.9001 0.34093 0.14392 0.0
H2800 H 0.98585 0.35645 0.16282 0.0
H2801 H 0.93976 0.39598 0.20136 0.0
H2802 H 0.9493 0.33908 0.12147 0.0
H2803 H 0.96317 0.36332 0.11132 0.0
H2804 H 0.97837 0.34323 0.127 0.0
H2805 H 0.90494 0.40667 0.18793 0.0
H2806 H 0.90649 0.4125 0.15856 0.0
H2807 H 0.893 0.3878 0.16803 0.0
H2808 H 0.90792 0.40495 0.08179 0.0
H2809 H 0.87512 0.34719 0.10775 0.0
H2810 H 0.95533 0.40284 0.11409 0.0
H2811 H 0.93602 0.41974 0.12964 0.0
H2812 H 0.93777 0.42204 0.09976 0.0
H2813 H 0.91599 0.33171 0.14523 0.0
H2814 H 0.88677 0.32897 0.13969 0.0
H2815 H 0.89618 0.34826 0.16054 0.0
C2816 C 0.66725 0.97253 0.16163 0.0
C2817 C 0.65034 0.96579 0.17654 0.0
C2818 C 0.67311 0.95949 0.14292 0.0
C2819 C 0.66181 0.93925 0.13913 0.0
C2820 C 0.64461 0.9325 0.15409 0.0
C2821 C 0.63906 0.94589 0.1726 0.0
C2822 C 0.69144 0.96729 0.12731 0.0
C2823 C 0.63211 0.91103 0.15061 0.0
C2824 C 0.65843 0.90995 0.08336 0.0
C2825 C 0.67209 0.89146 0.08672 0.0
C2826 C 0.65615 0.92667 0.09967 0.0
C2827 C 0.6679 0.92483 0.11971 0.0
C2828 C 0.68341 0.90736 0.12214 0.0
C2829 C 0.68538 0.89089 0.10555 0.0
C2830 C 0.63968 0.94519 0.09627 0.0
C2831 C 0.69648 0.90495 0.14312 0.0
H2832 H 0.67592 0.98802 0.16461 0.0
H2833 H 0.62592 0.94072 0.18407 0.0
H2834 H 0.70521 0.95501 0.12683 0.0
H2835 H 0.68516 0.96851 0.11016 0.0
H2836 H 0.69819 0.9837 0.13232 0.0
H2837 H 0.61911 0.90825 0.16371 0.0
H2838 H 0.62405 0.91113 0.1342 0.0
H2839 H 0.64386 0.89681 0.15055 0.0
H2840 H 0.64828 0.91057 0.06871 0.0
H2841 H 0.69614 0.87673 0.10814 0.0
H2842 H 0.64674 0.96141 0.1014 0.0
H2843 H 0.62459 0.94224 0.10679 0.0
H2844 H 0.6346 0.94626 0.07867 0.0
H2845 H 0.70379 0.92109 0.14812 0.0
H2846 H 0.71004 0.89251 0.14113 0.0
H2847 H 0.68515 0.89956 0.15686 0.0
C2848 C 0.10004 0.6622 0.18852 0.0
C2849 C 0.07981 0.6513 0.18494 0.0
C2850 C 0.11606 0.66457 0.1711 0.0
C2851 C 0.11203 0.65531 0.14974 0.0
C2852 C 0.09158 0.64432 0.14616 0.0
C2853 C 0.07571 0.64274 0.16362 0.0
C2854 C 0.13731 0.67694 0.17553 0.0
C2855 C 0.08659 0.63374 0.12397 0.0
C2856 C 0.14245 0.67259 0.09597 0.0
C2857 C 0.15826 0.6556 0.09309 0.0
C2858 C 0.12816 0.67342 0.11491 0.0
C2859 C 0.12919 0.6565 0.13115 0.0
C2860 C 0.14547 0.63956 0.12847 0.0
C2861 C 0.15994 0.63948 0.10968 0.0
C2862 C 0.1115 0.6921 0.11724 0.0
C2863 C 0.14692 0.62085 0.14492 0.0
H2864 H 0.10329 0.66893 0.2049 0.0
H2865 H 0.06016 0.63425 0.16063 0.0
H2866 H 0.15173 0.66555 0.17348 0.0
H2867 H 0.13963 0.69046 0.16326 0.0
H2868 H 0.13745 0.68425 0.19255 0.0
H2869 H 0.07009 0.62546 0.12398 0.0
H2870 H 0.08696 0.64648 0.11076 0.0
H2871 H 0.09954 0.62123 0.11953 0.0
H2872 H 0.14109 0.68514 0.08326 0.0
H2873 H 0.17203 0.62623 0.10754 0.0
H2874 H 0.11212 0.69962 0.13412 0.0
H2875 H 0.09446 0.68551 0.11512 0.0
H2876 H 0.11451 0.70529 0.10474 0.0
H2877 H 0.14861 0.62757 0.16202 0.0
H2878 H 0.16117 0.60957 0.14114 0.0
H2879 H 0.13135 0.61098 0.14471 0.0
C2880 C 0.3558 0.98741 0.89773 0.0
C2881 C 0.37727 0.98728 0.88813 0.0
C2882 C 0.35056 0.974 0.91635 0.0
C2883 C 0.36707 0.95995 0.92526 0.0
C2884 C 0.38904 0.9609 0.91634 0.0
C2885 C 0.39385 0.97465 0.89816 0.0
C2886 C 0.32708 0.97396 0.92566 0.0
C2887 C 0.40723 0.94615 0.92491 0.0
C2888 C 0.36429 0.92729 0.9795 0.0
C2889 C 0.35958 0.90585 0.97161 0.0
C2890 C 0.36499 0.94559 0.96493 0.0
C2891 C 0.36129 0.94229 0.9419 0.0
C2892 C 0.35521 0.92086 0.93423 0.0
C2893 C 0.35424 0.90305 0.94916 0.0
C2894 C 0.371 0.96819 0.97397 0.0
C2895 C 0.35142 0.91631 0.90986 0.0
H2896 H 0.34289 0.99712 0.89013 0.0
H2897 H 0.41055 0.97458 0.89097 0.0
H2898 H 0.31852 0.95859 0.92024 0.0
H2899 H 0.32704 0.97407 0.94412 0.0
H2900 H 0.31743 0.98846 0.9199 0.0
H2901 H 0.42374 0.94998 0.91723 0.0
H2902 H 0.40839 0.94793 0.94321 0.0
H2903 H 0.40324 0.92852 0.92124 0.0
H2904 H 0.36837 0.92963 0.99682 0.0
H2905 H 0.35051 0.88656 0.9429 0.0
H2906 H 0.36039 0.98123 0.96673 0.0
H2907 H 0.38851 0.97203 0.96928 0.0
H2908 H 0.36924 0.96898 0.99239 0.0
H2909 H 0.33959 0.92853 0.90314 0.0
H2910 H 0.34484 0.89933 0.90686 0.0
H2911 H 0.36736 0.91806 0.90037 0.0
C2912 C 0.14382 0.36339 0.93018 0.0
C2913 C 0.13763 0.36763 0.95243 0.0
C2914 C 0.12806 0.36393 0.91322 0.0
C2915 C 0.10562 0.36947 0.91848 0.0
C2916 C 0.09924 0.37348 0.94102 0.0
C2917 C 0.11526 0.37222 0.95774 0.0
C2918 C 0.13557 0.35901 0.88956 0.0
C2919 C 0.0757 0.37999 0.94739 0.0
C2920 C 0.07365 0.39587 0.87142 0.0
C2921 C 0.06009 0.37839 0.86428 0.0
C2922 C 0.08795 0.39335 0.8894 0.0
C2923 C 0.0893 0.37259 0.90023 0.0
C2924 C 0.07554 0.35486 0.89312 0.0
C2925 C 0.06085 0.35807 0.87544 0.0
C2926 C 0.10176 0.41292 0.8967 0.0
C2927 C 0.07676 0.33233 0.90381 0.0
H2928 H 0.16106 0.35972 0.926 0.0
H2929 H 0.1104 0.37563 0.9749 0.0
H2930 H 0.12459 0.34633 0.88204 0.0
H2931 H 0.13431 0.37426 0.87946 0.0
H2932 H 0.15301 0.35294 0.88848 0.0
H2933 H 0.07312 0.38149 0.96569 0.0
H2934 H 0.07166 0.39616 0.93976 0.0
H2935 H 0.06381 0.36759 0.94091 0.0
H2936 H 0.07296 0.41169 0.86299 0.0
H2937 H 0.05043 0.3445 0.86994 0.0
H2938 H 0.11967 0.40919 0.89394 0.0
H2939 H 0.09907 0.4161 0.91476 0.0
H2940 H 0.09771 0.4283 0.88754 0.0
H2941 H 0.09381 0.32549 0.90156 0.0
H2942 H 0.06477 0.32037 0.89666 0.0
H2943 H 0.07337 0.33382 0.92196 0.0
C2944 C 0.68276 0.13719 0.95002 0.0
C2945 C 0.67017 0.13253 0.96932 0.0
C2946 C 0.68007 0.12482 0.93038 0.0
C2947 C 0.66442 0.10727 0.93 0.0
C2948 C 0.65288 0.10141 0.94992 0.0
C2949 C 0.65589 0.11414 0.96938 0.0
C2950 C 0.69294 0.13149 0.90965 0.0
C2951 C 0.63632 0.08259 0.95032 0.0
C2952 C 0.63885 0.09527 0.87371 0.0
C2953 C 0.65153 0.07712 0.86611 0.0
C2954 C 0.64255 0.10494 0.89471 0.0
C2955 C 0.65924 0.09613 0.90845 0.0
C2956 C 0.67176 0.07751 0.90096 0.0
C2957 C 0.6679 0.0684 0.87983 0.0
C2958 C 0.62887 0.12482 0.90204 0.0
C2959 C 0.68955 0.06747 0.91506 0.0
H2960 H 0.69381 0.15142 0.94988 0.0
H2961 H 0.64599 0.11055 0.9842 0.0
H2962 H 0.70129 0.11683 0.90189 0.0
H2963 H 0.68132 0.13822 0.89732 0.0
H2964 H 0.70571 0.14431 0.91311 0.0
H2965 H 0.63069 0.07848 0.96751 0.0
H2966 H 0.62158 0.08727 0.94065 0.0
H2967 H 0.64363 0.06749 0.94236 0.0
H2968 H 0.62619 0.10204 0.86316 0.0
H2969 H 0.67797 0.05453 0.87394 0.0
H2970 H 0.63989 0.13939 0.90435 0.0
H2971 H 0.62051 0.12152 0.91831 0.0
H2972 H 0.61603 0.12917 0.88982 0.0
H2973 H 0.69636 0.05182 0.90772 0.0
H2974 H 0.68282 0.06395 0.93199 0.0
H2975 H 0.70339 0.07947 0.9169 0.0
C2976 C 0.95804 0.65864 0.89061 0.0
C2977 C 0.95056 0.64745 0.87164 0.0
C2978 C 0.9442 0.66111 0.90979 0.0
C2979 C 0.92214 0.65274 0.90979 0.0
C2980 C 0.91435 0.64213 0.89032 0.0
C2981 C 0.92869 0.63938 0.87169 0.0
C2982 C 0.95342 0.67204 0.93027 0.0
C2983 C 0.8909 0.63325 0.88928 0.0
C2984 C 0.88952 0.63435 0.96142 0.0
C2985 C 0.87437 0.65182 0.96474 0.0
C2986 C 0.90624 0.63524 0.94471 0.0
C2987 C 0.90745 0.65376 0.93034 0.0
C2988 C 0.89278 0.67195 0.93431 0.0
C2989 C 0.87654 0.67085 0.95162 0.0
C2990 C 0.92173 0.61566 0.94157 0.0
C2991 C 0.89309 0.69183 0.91922 0.0
H2992 H 0.97489 0.66495 0.89068 0.0
H2993 H 0.92272 0.6308 0.85707 0.0
H2994 H 0.94265 0.68612 0.93572 0.0
H2995 H 0.9535 0.65995 0.94409 0.0
H2996 H 0.97062 0.67826 0.92744 0.0
H2997 H 0.88683 0.62704 0.87241 0.0
H2998 H 0.8887 0.61942 0.90119 0.0
H2999 H 0.87878 0.64641 0.8942 0.0
H3000 H 0.88771 0.61951 0.97138 0.0
H3001 H 0.86454 0.68418 0.9538 0.0
H3002 H 0.93916 0.62139 0.93933 0.0
H3003 H 0.9173 0.60629 0.92635 0.0
H3004 H 0.92081 0.60415 0.9559 0.0
H3005 H 0.91032 0.69792 0.91651 0.0
H3006 H 0.88268 0.70566 0.92602 0.0
H3007 H 0.88666 0.6869 0.90275 0.0
C3008 C 0.12868 0.35708 0.04511 0.0
C3009 C 0.13984 0.37595 0.05289 0.0
C3010 C 0.10825 0.35048 0.05492 0.0
C3011 C 0.09933 0.36266 0.07335 0.0
C3012 C 0.11001 0.38241 0.08033 0.0
C3013 C 0.12988 0.38896 0.06978 0.0
C3014 C 0.09698 0.32993 0.0462 0.0
C3015 C 0.10136 0.39591 0.10002 0.0
C3016 C 0.0442 0.36107 0.10433 0.0
C3017 C 0.05049 0.35007 0.12365 0.0
C3018 C 0.05908 0.36274 0.08601 0.0
C3019 C 0.08077 0.35376 0.08749 0.0
C3020 C 0.08597 0.34024 0.1058 0.0
C3021 C 0.07061 0.33834 0.12355 0.0
C3022 C 0.05238 0.37599 0.06609 0.0
C3023 C 0.10878 0.33012 0.10805 0.0
H3024 H 0.13619 0.34709 0.03187 0.0
H3025 H 0.13827 0.40373 0.07568 0.0
H3026 H 0.10336 0.31517 0.05493 0.0
H3027 H 0.07868 0.33066 0.04891 0.0
H3028 H 0.10067 0.32755 0.02815 0.0
H3029 H 0.1115 0.411 0.10308 0.0
H3030 H 0.08397 0.40117 0.09734 0.0
H3031 H 0.10139 0.38562 0.11524 0.0
H3032 H 0.02846 0.36984 0.10416 0.0
H3033 H 0.07536 0.32945 0.13831 0.0
H3034 H 0.05962 0.3687 0.05052 0.0
H3035 H 0.05871 0.39321 0.06769 0.0
H3036 H 0.034 0.37676 0.06475 0.0
H3037 H 0.11393 0.32135 0.0925 0.0
H3038 H 0.10939 0.31822 0.12203 0.0
H3039 H 0.12107 0.34351 0.11105 0.0
C3040 C 0.13373 0.63992 0.97446 0.0
C3041 C 0.13948 0.65669 0.98954 0.0
C3042 C 0.11335 0.64043 0.96357 0.0
C3043 C 0.09807 0.65789 0.96826 0.0
C3044 C 0.10304 0.67375 0.98503 0.0
C3045 C 0.12396 0.67325 0.99514 0.0
C3046 C 0.10915 0.62344 0.94552 0.0
C3047 C 0.08693 0.6921 0.99121 0.0
C3048 C 0.06676 0.67545 0.91737 0.0
C3049 C 0.04722 0.66284 0.91912 0.0
C3050 C 0.08286 0.67481 0.93382 0.0
C3051 C 0.07921 0.66159 0.95291 0.0
C3052 C 0.05868 0.6502 0.95567 0.0
C3053 C 0.04297 0.65075 0.93857 0.0
C3054 C 0.1045 0.68707 0.9299 0.0
C3055 C 0.05379 0.63655 0.97609 0.0
H3056 H 0.14592 0.62728 0.96993 0.0
H3057 H 0.12849 0.68629 0.00672 0.0
H3058 H 0.09241 0.61601 0.94775 0.0
H3059 H 0.10968 0.6317 0.92909 0.0
H3060 H 0.1217 0.60989 0.94524 0.0
H3061 H 0.09082 0.69977 0.00753 0.0
H3062 H 0.0878 0.70523 0.9784 0.0
H3063 H 0.06961 0.68576 0.99189 0.0
H3064 H 0.0701 0.68495 0.90244 0.0
H3065 H 0.02787 0.64101 0.94005 0.0
H3066 H 0.11838 0.67497 0.92828 0.0
H3067 H 0.10802 0.6981 0.94425 0.0
H3068 H 0.10435 0.6973 0.91463 0.0
H3069 H 0.06307 0.62065 0.97486 0.0
H3070 H 0.03578 0.63269 0.97794 0.0
H3071 H 0.05928 0.64537 0.99128 0.0
C3072 C 0.38464 0.15354 0.97805 0.0
C3073 C 0.37565 0.17479 0.97508 0.0
C3074 C 0.38341 0.13707 0.96135 0.0
C3075 C 0.37254 0.14174 0.94124 0.0
C3076 C 0.36294 0.16303 0.9384 0.0
C3077 C 0.36478 0.17934 0.95525 0.0
C3078 C 0.39422 0.1148 0.96504 0.0
C3079 C 0.35087 0.16865 0.91746 0.0
C3080 C 0.38853 0.1075 0.88946 0.0
C3081 C 0.37174 0.09135 0.88908 0.0
C3082 C 0.38895 0.12394 0.90626 0.0
C3083 C 0.37192 0.12459 0.92295 0.0
C3084 C 0.35467 0.10854 0.92239 0.0
C3085 C 0.35492 0.09199 0.90561 0.0
C3086 C 0.40789 0.14038 0.90636 0.0
C3087 C 0.336 0.10879 0.93957 0.0
H3088 H 0.39312 0.14989 0.99331 0.0
H3089 H 0.35771 0.19569 0.95289 0.0
H3090 H 0.38178 0.10133 0.96345 0.0
H3091 H 0.40736 0.11181 0.95211 0.0
H3092 H 0.4018 0.11368 0.98166 0.0
H3093 H 0.34327 0.18547 0.91828 0.0
H3094 H 0.36259 0.1679 0.90297 0.0
H3095 H 0.33759 0.15627 0.91446 0.0
H3096 H 0.40165 0.10704 0.87681 0.0
H3097 H 0.34188 0.07958 0.90539 0.0
H3098 H 0.41697 0.13907 0.92215 0.0
H3099 H 0.40133 0.15756 0.90547 0.0
H3100 H 0.41985 0.13765 0.89226 0.0
H3101 H 0.34275 0.10607 0.95634 0.0
H3102 H 0.32333 0.09582 0.9363 0.0
H3103 H 0.32773 0.12527 0.9399 0.0
C3104 C 0.9469 0.34563 0.9148 0.0
C3105 C 0.96594 0.35906 0.91484 0.0
C3106 C 0.9303 0.34768 0.93148 0.0
C3107 C 0.93282 0.36346 0.94885 0.0
C3108 C 0.95301 0.37556 0.95012 0.0
C3109 C 0.96932 0.37331 0.933 0.0
C3110 C 0.90913 0.33445 0.92928 0.0
C3111 C 0.95664 0.39219 0.96858 0.0
C3112 C 0.8788 0.39147 0.96719 0.0
C3113 C 0.87264 0.37971 0.98639 0.0
C3114 C 0.8986 0.38673 0.95535 0.0
C3115 C 0.91297 0.36992 0.96296 0.0
C3116 C 0.90731 0.35851 0.98285 0.0
C3117 C 0.88709 0.36344 0.99428 0.0
C3118 C 0.90373 0.39927 0.93418 0.0
C3119 C 0.92234 0.34078 0.99175 0.0
H3120 H 0.94424 0.33447 0.90086 0.0
H3121 H 0.98401 0.38372 0.93316 0.0
H3122 H 0.90408 0.32706 0.94543 0.0
H3123 H 0.89553 0.34566 0.92422 0.0
H3124 H 0.91088 0.32093 0.91667 0.0
H3125 H 0.97445 0.39681 0.96981 0.0
H3126 H 0.94697 0.40747 0.96535 0.0
H3127 H 0.95072 0.38551 0.9848 0.0
H3128 H 0.86783 0.4042 0.96105 0.0
H3129 H 0.88252 0.35444 0.00923 0.0
H3130 H 0.90433 0.38754 0.91984 0.0
H3131 H 0.92028 0.40728 0.9351 0.0
H3132 H 0.89116 0.41228 0.93089 0.0
H3133 H 0.92219 0.32605 0.98054 0.0
H3134 H 0.91707 0.33548 0.00871 0.0
H3135 H 0.93974 0.34685 0.9922 0.0
C3136 C 0.68375 0.96734 0.89957 0.0
C3137 C 0.67085 0.98666 0.90125 0.0
C3138 C 0.68497 0.9527 0.91744 0.0
C3139 C 0.67281 0.9575 0.93732 0.0
C3140 C 0.66125 0.97793 0.9397 0.0
C3141 C 0.66048 0.99239 0.92156 0.0
C3142 C 0.69774 0.93125 0.91435 0.0
C3143 C 0.64818 0.98366 0.96069 0.0
C3144 C 0.64924 0.90707 0.96649 0.0
C3145 C 0.66378 0.90466 0.98412 0.0
C3146 C 0.65182 0.9245 0.95143 0.0
C3147 C 0.66949 0.93977 0.95402 0.0
C3148 C 0.68422 0.93746 0.97186 0.0
C3149 C 0.68115 0.91988 0.9868 0.0
C3150 C 0.63572 0.92644 0.93262 0.0
C3151 C 0.70329 0.95338 0.975 0.0
H3152 H 0.69199 0.96306 0.88389 0.0
H3153 H 0.65059 0.00743 0.92286 0.0
H3154 H 0.70791 0.92784 0.92908 0.0
H3155 H 0.68587 0.91728 0.91254 0.0
H3156 H 0.70885 0.93154 0.89934 0.0
H3157 H 0.6432 1.00143 0.96126 0.0
H3158 H 0.63291 0.97334 0.96155 0.0
H3159 H 0.65797 0.97995 0.97562 0.0
H3160 H 0.63574 0.89535 0.96451 0.0
H3161 H 0.69235 0.91801 1.00052 0.0
H3162 H 0.6448 0.92473 0.91642 0.0
H3163 H 0.62775 0.94306 0.93303 0.0
H3164 H 0.62248 0.9136 0.93341 0.0
H3165 H 0.71481 0.95252 0.96035 0.0
H3166 H 0.7128 0.9497 0.99016 0.0
H3167 H 0.69698 0.97067 0.97621 0.0
C3168 C 0.98281 0.68319 0.12305 0.0
C3169 C 0.98847 0.66154 0.12904 0.0
C3170 C 0.96654 0.68689 0.10701 0.0
C3171 C 0.95611 0.66848 0.0967 0.0
C3172 C 0.96355 0.6467 0.10121 0.0
C3173 C 0.97946 0.64352 0.11751 0.0
C3174 C 0.95911 0.71035 0.10265 0.0
C3175 C 0.95327 0.62659 0.09034 0.0
C3176 C 0.8949 0.66876 0.08322 0.0
C3177 C 0.89559 0.66977 0.05998 0.0
C3178 C 0.91448 0.66969 0.0954 0.0
C3179 C 0.93532 0.67138 0.08403 0.0
C3180 C 0.93603 0.6733 0.06057 0.0
C3181 C 0.91609 0.67256 0.0488 0.0
C3182 C 0.91291 0.66783 0.12042 0.0
C3183 C 0.95786 0.67498 0.04784 0.0
H3184 H 0.98962 0.69711 0.13219 0.0
H3185 H 0.9839 0.62676 0.1222 0.0
H3186 H 0.95646 0.71289 0.08466 0.0
H3187 H 0.94301 0.71346 0.11151 0.0
H3188 H 0.97136 0.72275 0.10855 0.0
H3189 H 0.96301 0.61123 0.09322 0.0
H3190 H 0.93619 0.62413 0.09723 0.0
H3191 H 0.95198 0.62903 0.07216 0.0
H3192 H 0.87903 0.66677 0.09189 0.0
H3193 H 0.91664 0.67338 0.0308 0.0
H3194 H 0.92263 0.68125 0.12837 0.0
H3195 H 0.92011 0.65175 0.12557 0.0
H3196 H 0.89546 0.66876 0.12682 0.0
H3197 H 0.96878 0.68755 0.05559 0.0
H3198 H 0.95551 0.6794 0.03015 0.0
H3199 H 0.96665 0.65879 0.04835 0.0
C3200 C 0.37124 0.9548 0.11332 0.0
C3201 C 0.35405 0.95803 0.12914 0.0
C3202 C 0.37239 0.93527 0.10031 0.0
C3203 C 0.35566 0.91883 0.10281 0.0
C3204 C 0.33735 0.92288 0.11752 0.0
C3205 C 0.33692 0.94229 0.13072 0.0
C3206 C 0.39233 0.93157 0.08501 0.0
C3207 C 0.3188 0.90619 0.12019 0.0
C3208 C 0.3553 0.87406 0.0577 0.0
C3209 C 0.36686 0.85678 0.06773 0.0
C3210 C 0.35064 0.89401 0.0692 0.0
C3211 C 0.35817 0.89688 0.09117 0.0
C3212 C 0.36918 0.87906 0.10166 0.0
C3213 C 0.37321 0.8591 0.08985 0.0
C3214 C 0.33838 0.91225 0.05755 0.0
C3215 C 0.37776 0.8815 0.12494 0.0
H3216 H 0.38467 0.96676 0.11225 0.0
H3217 H 0.32365 0.9447 0.14302 0.0
H3218 H 0.40226 0.91742 0.09111 0.0
H3219 H 0.38694 0.92717 0.06803 0.0
H3220 H 0.40323 0.94643 0.08399 0.0
H3221 H 0.30446 0.91304 0.13001 0.0
H3222 H 0.31291 0.90069 0.10368 0.0
H3223 H 0.32503 0.89129 0.12879 0.0
H3224 H 0.35019 0.87207 0.04065 0.0
H3225 H 0.38243 0.84581 0.09747 0.0
H3226 H 0.34974 0.92643 0.05443 0.0
H3227 H 0.32438 0.91847 0.06822 0.0
H3228 H 0.33174 0.90659 0.04137 0.0
H3229 H 0.39048 0.89483 0.12534 0.0
H3230 H 0.38531 0.8659 0.13099 0.0
H3231 H 0.36407 0.88648 0.13661 0.0
C3232 C 0.65789 0.15029 0.0621 0.0
C3233 C 0.64208 0.16575 0.07006 0.0
C3234 C 0.6611 0.1299 0.07282 0.0
C3235 C 0.64853 0.12492 0.09236 0.0
C3236 C 0.6323 0.14038 0.1003 0.0
C3237 C 0.62915 0.16051 0.08897 0.0
C3238 C 0.67831 0.11389 0.0635 0.0
C3239 C 0.61867 0.13592 0.12117 0.0
C3240 C 0.64515 0.06602 0.11588 0.0
C3241 C 0.66063 0.06711 0.13295 0.0
C3242 C 0.64154 0.0844 0.10197 0.0
C3243 C 0.65349 0.10443 0.1054 0.0
C3244 C 0.66981 0.10518 0.12199 0.0
C3245 C 0.67325 0.08654 0.1354 0.0
C3246 C 0.62432 0.0827 0.0842 0.0
C3247 C 0.68295 0.12608 0.12635 0.0
H3248 H 0.66797 0.15423 0.0475 0.0
H3249 H 0.61687 0.17235 0.09518 0.0
H3250 H 0.69229 0.11261 0.07513 0.0
H3251 H 0.67105 0.09704 0.06176 0.0
H3252 H 0.68506 0.11916 0.04703 0.0
H3253 H 0.60613 0.14912 0.12468 0.0
H3254 H 0.60997 0.11976 0.11969 0.0
H3255 H 0.6298 0.13479 0.13558 0.0
H3256 H 0.6352 0.05115 0.11398 0.0
H3257 H 0.68519 0.08759 0.1486 0.0
H3258 H 0.63137 0.08836 0.06802 0.0
H3259 H 0.61006 0.09373 0.08856 0.0
H3260 H 0.61802 0.06548 0.08219 0.0
H3261 H 0.69151 0.13163 0.11085 0.0
H3262 H 0.69559 0.12373 0.13931 0.0
H3263 H 0.6715 0.13961 0.13185 0.0
C3264 C 0.57451 0.65125 0.88499 0.0
C3265 C 0.57973 0.67105 0.87395 0.0
C3266 C 0.58918 0.63316 0.88446 0.0
C3267 C 0.60948 0.63472 0.87223 0.0
C3268 C 0.61463 0.65448 0.86053 0.0
C3269 C 0.59974 0.67256 0.86169 0.0
C3270 C 0.58312 0.61257 0.89743 0.0
C3271 C 0.63593 0.65657 0.84697 0.0
C3272 C 0.65546 0.59584 0.89006 0.0
C3273 C 0.65298 0.57795 0.87529 0.0
C3274 C 0.64172 0.61465 0.88894 0.0
C3275 C 0.62542 0.61575 0.87235 0.0
C3276 C 0.6233 0.59795 0.85699 0.0
C3277 C 0.63696 0.57913 0.85879 0.0
C3278 C 0.64421 0.63304 0.90593 0.0
C3279 C 0.60635 0.59862 0.83887 0.0
H3280 H 0.55909 0.65 0.89457 0.0
H3281 H 0.60375 0.68782 0.85307 0.0
H3282 H 0.58287 0.5979 0.88617 0.0
H3283 H 0.59585 0.6094 0.91008 0.0
H3284 H 0.56662 0.61402 0.90601 0.0
H3285 H 0.63694 0.67255 0.83792 0.0
H3286 H 0.65041 0.65536 0.858 0.0
H3287 H 0.63731 0.64271 0.83473 0.0
H3288 H 0.66787 0.59495 0.90281 0.0
H3289 H 0.63517 0.56537 0.84723 0.0
H3290 H 0.62865 0.63465 0.91609 0.0
H3291 H 0.647 0.64914 0.8975 0.0
H3292 H 0.65821 0.63001 0.91725 0.0
H3293 H 0.58933 0.59848 0.84637 0.0
H3294 H 0.60803 0.5843 0.82718 0.0
H3295 H 0.60811 0.61422 0.82931 0.0
C3296 C 0.40002 0.57294 0.86702 0.0
C3297 C 0.39708 0.55282 0.85571 0.0
C3298 C 0.41995 0.58475 0.8648 0.0
C3299 C 0.43729 0.57622 0.85083 0.0
C3300 C 0.43436 0.55594 0.83923 0.0
C3301 C 0.41421 0.54442 0.84184 0.0
C3302 C 0.42243 0.60639 0.87744 0.0
C3303 C 0.45246 0.54646 0.82415 0.0
C3304 C 0.47493 0.62323 0.83459 0.0
C3305 C 0.4903 0.62253 0.85169 0.0
C3306 C 0.45883 0.60666 0.8325 0.0
C3307 C 0.45807 0.58921 0.84808 0.0
C3308 C 0.47518 0.5871 0.86373 0.0
C3309 C 0.49129 0.60386 0.8653 0.0
C3310 C 0.44114 0.60932 0.8153 0.0
C3311 C 0.47505 0.56859 0.88048 0.0
H3312 H 0.38679 0.57935 0.87783 0.0
H3313 H 0.41193 0.52875 0.83318 0.0
H3314 H 0.43705 0.60555 0.8883 0.0
H3315 H 0.42533 0.62018 0.86561 0.0
H3316 H 0.4075 0.61043 0.88793 0.0
H3317 H 0.44757 0.53041 0.81644 0.0
H3318 H 0.45661 0.55838 0.81073 0.0
H3319 H 0.46781 0.54385 0.83367 0.0
H3320 H 0.4744 0.63763 0.82391 0.0
H3321 H 0.50325 0.60336 0.8785 0.0
H3322 H 0.42574 0.61589 0.82348 0.0
H3323 H 0.43702 0.5931 0.80755 0.0
H3324 H 0.44639 0.62103 0.80202 0.0
H3325 H 0.46246 0.57231 0.89377 0.0
H3326 H 0.49149 0.56672 0.88831 0.0
H3327 H 0.47044 0.55256 0.87262 0.0
C3328 C 0.39526 0.4584 0.8745 0.0
C3329 C 0.37832 0.45469 0.85924 0.0
C3330 C 0.41205 0.44246 0.87762 0.0
C3331 C 0.41191 0.42232 0.86522 0.0
C3332 C 0.39578 0.41929 0.84865 0.0
C3333 C 0.37926 0.43551 0.84583 0.0
C3334 C 0.42904 0.44655 0.89527 0.0
C3335 C 0.39498 0.39818 0.83495 0.0
C3336 C 0.46082 0.38157 0.86606 0.0
C3337 C 0.45333 0.36617 0.88191 0.0
C3338 C 0.44778 0.40019 0.86069 0.0
C3339 C 0.42671 0.40339 0.87133 0.0
C3340 C 0.41927 0.38797 0.88754 0.0
C3341 C 0.43266 0.36966 0.89265 0.0
C3342 C 0.45643 0.41628 0.84348 0.0
C3343 C 0.39695 0.39063 0.89933 0.0
H3344 H 0.39473 0.47321 0.88488 0.0
H3345 H 0.36632 0.43255 0.83391 0.0
H3346 H 0.42536 0.43574 0.90973 0.0
H3347 H 0.44597 0.44226 0.8889 0.0
H3348 H 0.42898 0.46411 0.90112 0.0
H3349 H 0.38314 0.39941 0.82111 0.0
H3350 H 0.4117 0.39408 0.82792 0.0
H3351 H 0.38974 0.3842 0.84576 0.0
H3352 H 0.47683 0.37903 0.85778 0.0
H3353 H 0.4268 0.3579 0.905 0.0
H3354 H 0.45627 0.43343 0.8504 0.0
H3355 H 0.4454 0.41616 0.82895 0.0
H3356 H 0.47361 0.41218 0.83764 0.0
H3357 H 0.39601 0.40699 0.90792 0.0
H3358 H 0.39375 0.37742 0.91178 0.0
H3359 H 0.38348 0.39017 0.88703 0.0
C3360 C 0.57246 0.40546 0.85815 0.0
C3361 C 0.55204 0.40772 0.86962 0.0
C3362 C 0.58886 0.42188 0.85943 0.0
C3363 C 0.58463 0.44136 0.8722 0.0
C3364 C 0.56317 0.44477 0.88194 0.0
C3365 C 0.54712 0.42774 0.88075 0.0
C3366 C 0.61146 0.41732 0.84884 0.0
C3367 C 0.55765 0.46567 0.89491 0.0
C3368 C 0.63692 0.45936 0.90075 0.0
C3369 C 0.64629 0.47421 0.88537 0.0
C3370 C 0.61603 0.44981 0.89746 0.0
C3371 C 0.60385 0.45558 0.87848 0.0
C3372 C 0.61226 0.47223 0.86401 0.0
C3373 C 0.63357 0.48122 0.86749 0.0
C3374 C 0.60794 0.43209 0.91334 0.0
C3375 C 0.59943 0.47955 0.84412 0.0
H3376 H 0.57625 0.39012 0.84927 0.0
H3377 H 0.53126 0.42965 0.88949 0.0
H3378 H 0.61707 0.43167 0.83877 0.0
H3379 H 0.6238 0.41483 0.86204 0.0
H3380 H 0.61147 0.4023 0.83798 0.0
H3381 H 0.5394 0.46839 0.8963 0.0
H3382 H 0.56415 0.46431 0.91195 0.0
H3383 H 0.56552 0.48038 0.88701 0.0
H3384 H 0.6465 0.45417 0.91485 0.0
H3385 H 0.6406 0.49297 0.85572 0.0
H3386 H 0.60779 0.41577 0.90461 0.0
H3387 H 0.59069 0.43567 0.91918 0.0
H3388 H 0.61862 0.43067 0.92809 0.0
H3389 H 0.602 0.46738 0.83034 0.0
H3390 H 0.60507 0.49607 0.83817 0.0
H3391 H 0.58133 0.4803 0.84809 0.0
C3392 C 0.58387 0.35731 0.13452 0.0
C3393 C 0.56905 0.35212 0.15202 0.0
C3394 C 0.59772 0.37607 0.13564 0.0
C3395 C 0.59712 0.38974 0.15496 0.0
C3396 C 0.5823 0.3844 0.17279 0.0
C3397 C 0.56825 0.3658 0.17099 0.0
C3398 C 0.61285 0.3814 0.11603 0.0
C3399 C 0.58138 0.39825 0.19383 0.0
C3400 C 0.64825 0.42584 0.16421 0.0
C3401 C 0.6409 0.44673 0.15736 0.0
C3402 C 0.634 0.40731 0.1641 0.0
C3403 C 0.61201 0.40959 0.15643 0.0
C3404 C 0.60451 0.43071 0.14954 0.0
C3405 C 0.61896 0.44907 0.15034 0.0
C3406 C 0.64253 0.38525 0.17207 0.0
C3407 C 0.58139 0.43381 0.1408 0.0
H3408 H 0.58438 0.34689 0.11972 0.0
H3409 H 0.55678 0.36184 0.18454 0.0
H3410 H 0.6093 0.39839 0.11004 0.0
H3411 H 0.63044 0.38113 0.12114 0.0
H3412 H 0.61089 0.36948 0.102 0.0
H3413 H 0.56938 0.39156 0.20639 0.0
H3414 H 0.59809 0.39897 0.20123 0.0
H3415 H 0.5765 0.41554 0.18997 0.0
H3416 H 0.66518 0.424 0.16975 0.0
H3417 H 0.61325 0.46518 0.14493 0.0
H3418 H 0.64278 0.37302 0.15817 0.0
H3419 H 0.63124 0.37865 0.18527 0.0
H3420 H 0.65957 0.38651 0.17873 0.0
H3421 H 0.57921 0.42317 0.12585 0.0
H3422 H 0.57802 0.45133 0.1363 0.0
H3423 H 0.56879 0.42854 0.15342 0.0
C3424 C 0.53946 0.60235 0.16826 0.0
C3425 C 0.54775 0.62306 0.1749 0.0
C3426 C 0.55345 0.58351 0.16731 0.0
C3427 C 0.57629 0.58579 0.17234 0.0
C3428 C 0.58403 0.60626 0.18095 0.0
C3429 C 0.56958 0.62447 0.18244 0.0
C3430 C 0.54412 0.56168 0.1594 0.0
C3431 C 0.60821 0.60973 0.18638 0.0
C3432 C 0.62341 0.54377 0.17355 0.0
C3433 C 0.63328 0.54726 0.15253 0.0
C3434 C 0.60314 0.55425 0.17962 0.0
C3435 C 0.59306 0.56897 0.16453 0.0
C3436 C 0.60201 0.57078 0.14264 0.0
C3437 C 0.62176 0.55964 0.13687 0.0
C3438 C 0.59344 0.55074 0.20265 0.0
C3439 C 0.59208 0.58628 0.1259 0.0
H3440 H 0.52249 0.60108 0.1627 0.0
H3441 H 0.57599 0.64037 0.18794 0.0
H3442 H 0.5463 0.56032 0.14108 0.0
H3443 H 0.55281 0.54743 0.16696 0.0
H3444 H 0.52605 0.56049 0.16344 0.0
H3445 H 0.61125 0.62628 0.19404 0.0
H3446 H 0.61386 0.59681 0.19797 0.0
H3447 H 0.61859 0.6083 0.17094 0.0
H3448 H 0.63203 0.53387 0.18562 0.0
H3449 H 0.62906 0.56198 0.1204 0.0
H3450 H 0.57502 0.55195 0.20279 0.0
H3451 H 0.59984 0.56368 0.21407 0.0
H3452 H 0.5983 0.53429 0.2092 0.0
H3453 H 0.57415 0.58275 0.12402 0.0
H3454 H 0.6004 0.58488 0.10927 0.0
H3455 H 0.59361 0.60371 0.13185 0.0
C3456 C 0.38312 0.60171 0.11927 0.0
C3457 C 0.37667 0.58679 0.13599 0.0
C3458 C 0.3989 0.61835 0.12314 0.0
C3459 C 0.40871 0.62011 0.14426 0.0
C3460 C 0.40286 0.6046 0.16102 0.0
C3461 C 0.38687 0.5881 0.1567 0.0
C3462 C 0.40466 0.63441 0.10473 0.0
C3463 C 0.41309 0.60581 0.18367 0.0
C3464 C 0.46248 0.65321 0.14424 0.0
C3465 C 0.45508 0.67439 0.15095 0.0
C3466 C 0.4478 0.63514 0.14309 0.0
C3467 C 0.425 0.63832 0.14853 0.0
C3468 C 0.41752 0.65952 0.156 0.0
C3469 C 0.43267 0.67732 0.15717 0.0
C3470 C 0.45656 0.6129 0.13507 0.0
C3471 C 0.39334 0.66363 0.16192 0.0
H3472 H 0.37532 0.60079 0.10321 0.0
H3473 H 0.38188 0.57666 0.1697 0.0
H3474 H 0.40031 0.65158 0.11008 0.0
H3475 H 0.42281 0.63405 0.10105 0.0
H3476 H 0.39579 0.63056 0.08916 0.0
H3477 H 0.43149 0.60547 0.182 0.0
H3478 H 0.40843 0.62174 0.19195 0.0
H3479 H 0.40761 0.59192 0.19452 0.0
H3480 H 0.47972 0.65084 0.13919 0.0
H3481 H 0.42686 0.69364 0.16236 0.0
H3482 H 0.45003 0.60916 0.11834 0.0
H3483 H 0.45078 0.5995 0.14634 0.0
H3484 H 0.47502 0.6125 0.13397 0.0
H3485 H 0.38324 0.66187 0.14679 0.0
H3486 H 0.39048 0.68046 0.16913 0.0
H3487 H 0.38724 0.65109 0.174 0.0
C3488 C 0.4189 0.49745 0.16478 0.0
C3489 C 0.40108 0.48865 0.15293 0.0
C3490 C 0.43777 0.48446 0.16905 0.0
C3491 C 0.43877 0.4622 0.16127 0.0
C3492 C 0.42099 0.45349 0.14881 0.0
C3493 C 0.40238 0.46681 0.14482 0.0
C3494 C 0.45636 0.49436 0.18233 0.0
C3495 C 0.42136 0.42987 0.14013 0.0
C3496 C 0.4908 0.42667 0.15547 0.0
C3497 C 0.48743 0.41184 0.17305 0.0
C3498 C 0.47599 0.44442 0.15231 0.0
C3499 C 0.45755 0.44734 0.16715 0.0
C3500 C 0.45547 0.43369 0.18614 0.0
C3501 C 0.47041 0.41608 0.18882 0.0
C3502 C 0.47898 0.45871 0.13199 0.0
C3503 C 0.43626 0.43636 0.20256 0.0
H3504 H 0.41795 0.51438 0.17101 0.0
H3505 H 0.38866 0.46 0.13558 0.0
H3506 H 0.45743 0.48572 0.19848 0.0
H3507 H 0.47254 0.49194 0.1734 0.0
H3508 H 0.45389 0.51239 0.18563 0.0
H3509 H 0.40671 0.42596 0.1299 0.0
H3510 H 0.43666 0.42689 0.12989 0.0
H3511 H 0.42163 0.41817 0.15428 0.0
H3512 H 0.50392 0.42341 0.1432 0.0
H3513 H 0.46783 0.40467 0.20249 0.0
H3514 H 0.47588 0.47645 0.13615 0.0
H3515 H 0.46673 0.45367 0.11938 0.0
H3516 H 0.49593 0.45703 0.12443 0.0
H3517 H 0.4339 0.45407 0.20723 0.0
H3518 H 0.43874 0.42662 0.21791 0.0
H3519 H 0.42073 0.43057 0.19476 0.0
C3520 C 0.86485 0.55075 0.64593 0.0
C3521 C 0.87982 0.55844 0.6618 0.0
C3522 C 0.86108 0.56281 0.62636 0.0
C3523 C 0.8724 0.58316 0.62267 0.0
C3524 C 0.88776 0.59077 0.63856 0.0
C3525 C 0.89134 0.57829 0.65781 0.0
C3526 C 0.84477 0.55395 0.60979 0.0
C3527 C 0.90013 0.61238 0.63547 0.0
C3528 C 0.87833 0.61186 0.5664 0.0
C3529 C 0.86282 0.62916 0.56888 0.0
C3530 C 0.88075 0.59586 0.5832 0.0
C3531 C 0.86745 0.59729 0.60296 0.0
C3532 C 0.8508 0.61391 0.6048 0.0
C3533 C 0.84868 0.62955 0.58776 0.0
C3534 C 0.89849 0.57827 0.58037 0.0
C3535 C 0.83621 0.61615 0.62546 0.0
H3536 H 0.856 0.53533 0.64884 0.0
H3537 H 0.90303 0.58428 0.66994 0.0
H3538 H 0.83033 0.56535 0.60895 0.0
H3539 H 0.85264 0.55319 0.59294 0.0
H3540 H 0.83862 0.53714 0.61422 0.0
H3541 H 0.91196 0.61568 0.64903 0.0
H3542 H 0.90954 0.61215 0.61939 0.0
H3543 H 0.88812 0.62635 0.63495 0.0
H3544 H 0.88938 0.6115 0.55191 0.0
H3545 H 0.83664 0.64286 0.58981 0.0
H3546 H 0.89182 0.56174 0.58504 0.0
H3547 H 0.9124 0.58204 0.59159 0.0
H3548 H 0.9052 0.57738 0.56302 0.0
H3549 H 0.82866 0.59993 0.62984 0.0
H3550 H 0.82269 0.6285 0.62345 0.0
H3551 H 0.84648 0.62147 0.63966 0.0
C3552 C 0.39373 0.86051 0.5962 0.0
C3553 C 0.3986 0.87209 0.57657 0.0
C3554 C 0.40777 0.86182 0.61448 0.0
C3555 C 0.42718 0.87505 0.61312 0.0
C3556 C 0.43284 0.88581 0.59289 0.0
C3557 C 0.41844 0.88419 0.57481 0.0
C3558 C 0.4012 0.8499 0.63562 0.0
C3559 C 0.4535 0.8999 0.59072 0.0
C3560 C 0.44725 0.89826 0.66825 0.0
C3561 C 0.46428 0.88339 0.67322 0.0
C3562 C 0.43539 0.89604 0.64847 0.0
C3563 C 0.44075 0.87854 0.63332 0.0
C3564 C 0.4582 0.8637 0.63817 0.0
C3565 C 0.46964 0.86621 0.65812 0.0
C3566 C 0.41688 0.91221 0.64395 0.0
C3567 C 0.46455 0.84491 0.62247 0.0
H3568 H 0.3784 0.85112 0.59763 0.0
H3569 H 0.42221 0.89325 0.55969 0.0
H3570 H 0.41518 0.83953 0.64131 0.0
H3571 H 0.39736 0.86224 0.64898 0.0
H3572 H 0.38642 0.83911 0.63349 0.0
H3573 H 0.45663 0.90544 0.57336 0.0
H3574 H 0.45173 0.91481 0.6016 0.0
H3575 H 0.46823 0.89056 0.5963 0.0
H3576 H 0.44313 0.91159 0.67986 0.0
H3577 H 0.48273 0.85458 0.66199 0.0
H3578 H 0.40083 0.90319 0.64317 0.0
H3579 H 0.41978 0.92018 0.62758 0.0
H3580 H 0.41536 0.92539 0.65694 0.0
H3581 H 0.45055 0.83299 0.62139 0.0
H3582 H 0.47953 0.83583 0.6279 0.0
H3583 H 0.46782 0.85137 0.60549 0.0
C3584 C 0.18025 0.40134 0.58482 0.0
C3585 C 0.16311 0.39793 0.5697 0.0
C3586 C 0.17861 0.41775 0.60152 0.0
C3587 C 0.15954 0.43154 0.60293 0.0
C3588 C 0.14335 0.42981 0.5862 0.0
C3589 C 0.14522 0.4129 0.56984 0.0
C3590 C 0.19624 0.41872 0.61897 0.0
C3591 C 0.12312 0.44464 0.58659 0.0
C3592 C 0.13981 0.44721 0.66161 0.0
C3593 C 0.1487 0.46853 0.66441 0.0
C3594 C 0.14305 0.43523 0.64165 0.0
C3595 C 0.15503 0.44498 0.62366 0.0
C3596 C 0.16358 0.4668 0.62618 0.0
C3597 C 0.16061 0.47818 0.64666 0.0
C3598 C 0.134 0.41188 0.64001 0.0
C3599 C 0.1759 0.47807 0.6073 0.0
H3600 H 0.19421 0.38992 0.58472 0.0
H3601 H 0.13191 0.41046 0.55823 0.0
H3602 H 0.20134 0.43612 0.62222 0.0
H3603 H 0.18936 0.412 0.63481 0.0
H3604 H 0.21124 0.4089 0.61406 0.0
H3605 H 0.11457 0.44434 0.57041 0.0
H3606 H 0.1112 0.43892 0.59967 0.0
H3607 H 0.12773 0.46202 0.59068 0.0
H3608 H 0.13055 0.43966 0.67524 0.0
H3609 H 0.16741 0.49472 0.6487 0.0
H3610 H 0.14779 0.40003 0.63644 0.0
H3611 H 0.1223 0.41062 0.62607 0.0
H3612 H 0.12516 0.40667 0.65552 0.0
H3613 H 0.19197 0.46952 0.60392 0.0
H3614 H 0.1793 0.49584 0.61103 0.0
H3615 H 0.16617 0.47697 0.59188 0.0
C3616 C 0.56966 0.16845 0.66959 0.0
C3617 C 0.56642 0.14726 0.67859 0.0
C3618 C 0.58437 0.1718 0.65133 0.0
C3619 C 0.5955 0.1534 0.64123 0.0
C3620 C 0.59179 0.13187 0.64999 0.0
C3621 C 0.57764 0.12913 0.66879 0.0
C3622 C 0.58831 0.19511 0.64312 0.0
C3623 C 0.60264 0.11165 0.63942 0.0
C3624 C 0.61875 0.15955 0.58172 0.0
C3625 C 0.64168 0.16098 0.58517 0.0
C3626 C 0.60354 0.157 0.59975 0.0
C3627 C 0.61135 0.15667 0.62184 0.0
C3628 C 0.63448 0.15896 0.62536 0.0
C3629 C 0.64935 0.16063 0.607 0.0
C3630 C 0.57918 0.15388 0.59509 0.0
C3631 C 0.64357 0.15951 0.64854 0.0
H3632 H 0.56105 0.18252 0.67716 0.0
H3633 H 0.57501 0.11268 0.67555 0.0
H3634 H 0.60629 0.19915 0.6438 0.0
H3635 H 0.58346 0.19642 0.6255 0.0
H3636 H 0.57883 0.20769 0.65309 0.0
H3637 H 0.5969 0.09597 0.64725 0.0
H3638 H 0.59898 0.11094 0.62142 0.0
H3639 H 0.62095 0.11275 0.64085 0.0
H3640 H 0.61277 0.15953 0.56486 0.0
H3641 H 0.66707 0.16175 0.60974 0.0
H3642 H 0.56914 0.16687 0.60379 0.0
H3643 H 0.57351 0.13759 0.60159 0.0
H3644 H 0.57574 0.15452 0.57703 0.0
H3645 H 0.63474 0.17232 0.65877 0.0
H3646 H 0.66167 0.16313 0.64854 0.0
H3647 H 0.64069 0.14328 0.65669 0.0
C3648 C 0.85089 0.4191 0.45495 0.0
C3649 C 0.8707 0.40688 0.45593 0.0
C3650 C 0.84789 0.43514 0.43819 0.0
C3651 C 0.86507 0.43894 0.42204 0.0
C3652 C 0.88538 0.42724 0.42367 0.0
C3653 C 0.88792 0.4115 0.44051 0.0
C3654 C 0.82608 0.44741 0.43726 0.0
C3655 C 0.90424 0.43065 0.40702 0.0
C3656 C 0.85442 0.4585 0.36302 0.0
C3657 C 0.86269 0.48027 0.36348 0.0
C3658 C 0.85394 0.4453 0.38226 0.0
C3659 C 0.86175 0.45406 0.40262 0.0
C3660 C 0.86895 0.47648 0.40343 0.0
C3661 C 0.86943 0.48925 0.38387 0.0
C3662 C 0.8462 0.42152 0.38048 0.0
C3663 C 0.87722 0.48667 0.4247 0.0
H3664 H 0.83747 0.41557 0.46672 0.0
H3665 H 0.90334 0.40221 0.44115 0.0
H3666 H 0.82902 0.46552 0.43571 0.0
H3667 H 0.81698 0.44195 0.42234 0.0
H3668 H 0.81537 0.44442 0.45223 0.0
H3669 H 0.91931 0.42099 0.41114 0.0
H3670 H 0.8989 0.42552 0.3902 0.0
H3671 H 0.90876 0.44849 0.40622 0.0
H3672 H 0.84908 0.45144 0.34739 0.0
H3673 H 0.87577 0.50608 0.38443 0.0
H3674 H 0.83381 0.41783 0.39388 0.0
H3675 H 0.86053 0.41018 0.38262 0.0
H3676 H 0.83868 0.41782 0.36416 0.0
H3677 H 0.86566 0.4829 0.43881 0.0
H3678 H 0.87911 0.50498 0.42346 0.0
H3679 H 0.89362 0.47941 0.42859 0.0
C3680 C 0.5654 0.88591 0.37855 0.0
C3681 C 0.56861 0.87607 0.35747 0.0
C3682 C 0.5819 0.88496 0.39472 0.0
C3683 C 0.60205 0.87345 0.38999 0.0
C3684 C 0.60516 0.86297 0.36891 0.0
C3685 C 0.58851 0.86461 0.35282 0.0
C3686 C 0.57792 0.89671 0.41674 0.0
C3687 C 0.62611 0.85011 0.36332 0.0
C3688 C 0.65195 0.89004 0.42467 0.0
C3689 C 0.651 0.87448 0.44188 0.0
C3690 C 0.63649 0.88959 0.40742 0.0
C3691 C 0.6199 0.87287 0.40704 0.0
C3692 C 0.61952 0.85652 0.42389 0.0
C3693 C 0.63488 0.85768 0.44122 0.0
C3694 C 0.63733 0.9076 0.39012 0.0
C3695 C 0.60248 0.83814 0.42396 0.0
H3696 H 0.55011 0.89487 0.38228 0.0
H3697 H 0.59105 0.8569 0.33661 0.0
H3698 H 0.5789 0.88469 0.43055 0.0
H3699 H 0.59104 0.90936 0.41931 0.0
H3700 H 0.56145 0.90507 0.41778 0.0
H3701 H 0.62555 0.84199 0.34669 0.0
H3702 H 0.64067 0.86139 0.36362 0.0
H3703 H 0.62878 0.83717 0.37602 0.0
H3704 H 0.66429 0.90315 0.42514 0.0
H3705 H 0.63408 0.84558 0.45445 0.0
H3706 H 0.62188 0.91767 0.39133 0.0
H3707 H 0.63818 0.90017 0.37319 0.0
H3708 H 0.65181 0.91882 0.39213 0.0
H3709 H 0.58566 0.84521 0.42712 0.0
H3710 H 0.60572 0.82554 0.43687 0.0
H3711 H 0.60233 0.82974 0.40746 0.0
C3712 C 0.17802 0.59128 0.37024 0.0
C3713 C 0.16209 0.57476 0.3667 0.0
C3714 C 0.18062 0.60072 0.39142 0.0
C3715 C 0.1671 0.59325 0.40945 0.0
C3716 C 0.15271 0.57495 0.40635 0.0
C3717 C 0.15012 0.56612 0.3849 0.0
C3718 C 0.19608 0.62027 0.39391 0.0
C3719 C 0.13841 0.56609 0.4252 0.0
C3720 C 0.17496 0.62205 0.46557 0.0
C3721 C 0.15909 0.639 0.46435 0.0
C3722 C 0.17737 0.60627 0.44819 0.0
C3723 C 0.16384 0.60792 0.42926 0.0
C3724 C 0.14738 0.62466 0.42845 0.0
C3725 C 0.14513 0.63978 0.44603 0.0
C3726 C 0.19476 0.58834 0.44978 0.0
C3727 C 0.13262 0.62723 0.40858 0.0
H3728 H 0.1875 0.59781 0.35621 0.0
H3729 H 0.1378 0.55331 0.38226 0.0
H3730 H 0.18615 0.63581 0.39486 0.0
H3731 H 0.2055 0.61908 0.40948 0.0
H3732 H 0.20807 0.62154 0.37965 0.0
H3733 H 0.13253 0.54896 0.42163 0.0
H3734 H 0.14762 0.56606 0.44098 0.0
H3735 H 0.12363 0.57694 0.42767 0.0
H3736 H 0.18571 0.62141 0.47977 0.0
H3737 H 0.13269 0.65275 0.44506 0.0
H3738 H 0.20893 0.59214 0.43833 0.0
H3739 H 0.18791 0.57202 0.44463 0.0
H3740 H 0.20115 0.58697 0.4669 0.0
H3741 H 0.14299 0.63034 0.39344 0.0
H3742 H 0.12059 0.64113 0.4107 0.0
H3743 H 0.12313 0.61173 0.40569 0.0
C3744 C 0.45819 0.16357 0.38688 0.0
C3745 C 0.44997 0.15204 0.36847 0.0
C3746 C 0.44506 0.16653 0.40637 0.0
C3747 C 0.42304 0.15822 0.40717 0.0
C3748 C 0.41448 0.14718 0.38829 0.0
C3749 C 0.42813 0.14401 0.36931 0.0
C3750 C 0.45494 0.17797 0.42626 0.0
C3751 C 0.39098 0.13832 0.38825 0.0
C3752 C 0.3908 0.14003 0.4584 0.0
C3753 C 0.37497 0.15697 0.4607 0.0
C3754 C 0.40808 0.14134 0.44243 0.0
C3755 C 0.40906 0.15974 0.42793 0.0
C3756 C 0.39409 0.17772 0.4314 0.0
C3757 C 0.37725 0.1762 0.44795 0.0
C3758 C 0.42398 0.12204 0.43974 0.0
C3759 C 0.39438 0.19753 0.41621 0.0
H3760 H 0.47502 0.16989 0.38621 0.0
H3761 H 0.42164 0.1352 0.35507 0.0
H3762 H 0.44427 0.1921 0.43179 0.0
H3763 H 0.45561 0.1662 0.44032 0.0
H3764 H 0.472 0.18424 0.42267 0.0
H3765 H 0.38639 0.13157 0.37174 0.0
H3766 H 0.38913 0.12489 0.40067 0.0
H3767 H 0.37903 0.15166 0.39307 0.0
H3768 H 0.38887 0.1251 0.46822 0.0
H3769 H 0.36472 0.18912 0.44952 0.0
H3770 H 0.44125 0.12802 0.43696 0.0
H3771 H 0.41943 0.11198 0.42499 0.0
H3772 H 0.42353 0.11108 0.45451 0.0
H3773 H 0.41164 0.20325 0.41284 0.0
H3774 H 0.38449 0.21159 0.42331 0.0
H3775 H 0.38722 0.19268 0.40003 0.0
C3776 C 0.54267 0.86556 0.60361 0.0
C3777 C 0.55155 0.85878 0.6238 0.0
C3778 C 0.5561 0.86624 0.5841 0.0
C3779 C 0.579 0.86083 0.58519 0.0
C3780 C 0.58758 0.85283 0.60535 0.0
C3781 C 0.57364 0.8515 0.62421 0.0
C3782 C 0.54596 0.87382 0.56276 0.0
C3783 C 0.61194 0.84718 0.60754 0.0
C3784 C 0.62351 0.85054 0.54128 0.0
C3785 C 0.63506 0.87068 0.54214 0.0
C3786 C 0.60311 0.84798 0.55283 0.0
C3787 C 0.59488 0.8656 0.56645 0.0
C3788 C 0.60552 0.88659 0.56562 0.0
C3789 C 0.62538 0.88895 0.55318 0.0
C3790 C 0.59152 0.82579 0.55214 0.0
C3791 C 0.59756 0.90579 0.58003 0.0
H3792 H 0.52552 0.87107 0.6032 0.0
H3793 H 0.58056 0.84613 0.63976 0.0
H3794 H 0.5482 0.89201 0.56111 0.0
H3795 H 0.55401 0.86563 0.54805 0.0
H3796 H 0.52783 0.87032 0.56269 0.0
H3797 H 0.61591 0.84132 0.62446 0.0
H3798 H 0.61686 0.83402 0.5954 0.0
H3799 H 0.62226 0.86203 0.60385 0.0
H3800 H 0.63106 0.83643 0.53268 0.0
H3801 H 0.63449 0.90446 0.55399 0.0
H3802 H 0.57319 0.82796 0.5526 0.0
H3803 H 0.59607 0.81596 0.56687 0.0
H3804 H 0.59644 0.81614 0.53698 0.0
H3805 H 0.57942 0.90826 0.57841 0.0
H3806 H 0.60618 0.92154 0.57571 0.0
H3807 H 0.6007 0.90206 0.59773 0.0
C3808 C 0.56912 0.14547 0.4125 0.0
C3809 C 0.55035 0.15914 0.41112 0.0
C3810 C 0.58488 0.1488 0.42894 0.0
C3811 C 0.58175 0.16614 0.44476 0.0
C3812 C 0.56207 0.17915 0.44439 0.0
C3813 C 0.5466 0.17561 0.4274 0.0
C3814 C 0.60556 0.13449 0.42851 0.0
C3815 C 0.55781 0.19741 0.46127 0.0
C3816 C 0.62464 0.15967 0.48941 0.0
C3817 C 0.64226 0.17204 0.48019 0.0
C3818 C 0.60366 0.15951 0.47946 0.0
C3819 C 0.60045 0.17173 0.45973 0.0
C3820 C 0.61756 0.18598 0.45183 0.0
C3821 C 0.63817 0.18606 0.46226 0.0
C3822 C 0.58562 0.14475 0.48892 0.0
C3823 C 0.61498 0.19935 0.43093 0.0
H3824 H 0.57202 0.13255 0.4001 0.0
H3825 H 0.53203 0.18614 0.42646 0.0
H3826 H 0.62041 0.14494 0.42502 0.0
H3827 H 0.6078 0.12668 0.44493 0.0
H3828 H 0.60499 0.12114 0.41566 0.0
H3829 H 0.54 0.20234 0.46202 0.0
H3830 H 0.56288 0.19222 0.47807 0.0
H3831 H 0.5678 0.21222 0.45665 0.0
H3832 H 0.62759 0.14906 0.5035 0.0
H3833 H 0.65163 0.19597 0.4553 0.0
H3834 H 0.58524 0.12897 0.47927 0.0
H3835 H 0.56907 0.15274 0.48769 0.0
H3836 H 0.58857 0.1407 0.5066 0.0
H3837 H 0.61531 0.18799 0.41629 0.0
H3838 H 0.6285 0.21175 0.4287 0.0
H3839 H 0.59879 0.20817 0.43119 0.0
C3840 C 0.8623 0.60969 0.39035 0.0
C3841 C 0.86504 0.58706 0.3948 0.0
C3842 C 0.86443 0.62588 0.40708 0.0
C3843 C 0.87009 0.6194 0.4288 0.0
C3844 C 0.87235 0.59646 0.43358 0.0
C3845 C 0.86952 0.58049 0.41654 0.0
C3846 C 0.86131 0.65002 0.40127 0.0
C3847 C 0.8788 0.58886 0.45638 0.0
C3848 C 0.89984 0.6652 0.46048 0.0
C3849 C 0.88271 0.67381 0.47418 0.0
C3850 C 0.89626 0.6467 0.44657 0.0
C3851 C 0.87485 0.63689 0.4459 0.0
C3852 C 0.85761 0.64527 0.4601 0.0
C3853 C 0.86183 0.66347 0.47426 0.0
C3854 C 0.91526 0.63806 0.43211 0.0
C3855 C 0.83446 0.63567 0.45962 0.0
H3856 H 0.85877 0.61481 0.37355 0.0
H3857 H 0.8719 0.56301 0.41994 0.0
H3858 H 0.84946 0.65807 0.41325 0.0
H3859 H 0.87739 0.65891 0.40245 0.0
H3860 H 0.85501 0.65214 0.3842 0.0
H3861 H 0.87822 0.5705 0.45792 0.0
H3862 H 0.89594 0.59456 0.4598 0.0
H3863 H 0.86764 0.59635 0.46933 0.0
H3864 H 0.91609 0.67298 0.46059 0.0
H3865 H 0.84855 0.67006 0.48489 0.0
H3866 H 0.9119 0.64139 0.41439 0.0
H3867 H 0.91685 0.6198 0.4339 0.0
H3868 H 0.93136 0.64592 0.4363 0.0
H3869 H 0.82711 0.63891 0.44321 0.0
H3870 H 0.82335 0.64293 0.4728 0.0
H3871 H 0.83501 0.6174 0.46172 0.0
C3872 C 0.37154 0.87414 0.45048 0.0
C3873 C 0.3689 0.87151 0.47349 0.0
C3874 C 0.39232 0.87074 0.43979 0.0
C3875 C 0.41077 0.86381 0.4523 0.0
C3876 C 0.40789 0.86027 0.47545 0.0
C3877 C 0.38706 0.86451 0.48582 0.0
C3878 C 0.39469 0.87525 0.41519 0.0
C3879 C 0.42682 0.85214 0.48928 0.0
C3880 C 0.45713 0.84012 0.41509 0.0
C3881 C 0.47128 0.85847 0.41273 0.0
C3882 C 0.43833 0.84096 0.42945 0.0
C3883 C 0.43307 0.86094 0.44104 0.0
C3884 C 0.44808 0.87907 0.4397 0.0
C3885 C 0.46719 0.87748 0.42583 0.0
C3886 C 0.42333 0.82093 0.43102 0.0
C3887 C 0.44296 0.90088 0.45131 0.0
H3888 H 0.35756 0.87976 0.44096 0.0
H3889 H 0.38492 0.86223 0.50358 0.0
H3890 H 0.40762 0.8881 0.41223 0.0
H3891 H 0.40018 0.85999 0.40619 0.0
H3892 H 0.37889 0.88103 0.40797 0.0
H3893 H 0.42154 0.84902 0.5068 0.0
H3894 H 0.43378 0.83657 0.48198 0.0
H3895 H 0.4404 0.86458 0.48922 0.0
H3896 H 0.46017 0.82546 0.40487 0.0
H3897 H 0.47786 0.89185 0.42376 0.0
H3898 H 0.40812 0.82391 0.4214 0.0
H3899 H 0.41806 0.81798 0.44854 0.0
H3900 H 0.4316 0.80571 0.42429 0.0
H3901 H 0.42849 0.90879 0.44342 0.0
H3902 H 0.45723 0.91256 0.45041 0.0
H3903 H 0.43837 0.89818 0.46903 0.0
C3904 C 0.15312 0.48324 0.40049 0.0
C3905 C 0.16071 0.479 0.37869 0.0
C3906 C 0.1555 0.46732 0.41715 0.0
C3907 C 0.16633 0.44696 0.41198 0.0
C3908 C 0.17523 0.4432 0.39025 0.0
C3909 C 0.17197 0.45915 0.37373 0.0
C3910 C 0.14526 0.47177 0.43992 0.0
C3911 C 0.18748 0.42201 0.38427 0.0
C3912 C 0.18075 0.41126 0.4616 0.0
C3913 C 0.16312 0.39608 0.46178 0.0
C3914 C 0.18263 0.42741 0.44489 0.0
C3915 C 0.16607 0.42876 0.42856 0.0
C3916 C 0.1484 0.41325 0.42864 0.0
C3917 C 0.14735 0.39691 0.44504 0.0
C3918 C 0.20209 0.44322 0.4449 0.0
C3919 C 0.13008 0.41441 0.4119 0.0
H3920 H 0.14439 0.49863 0.40431 0.0
H3921 H 0.17804 0.456 0.35688 0.0
H3922 H 0.13147 0.45989 0.44309 0.0
H3923 H 0.15769 0.46919 0.45297 0.0
H3924 H 0.13858 0.48893 0.44162 0.0
H3925 H 0.19603 0.42299 0.36774 0.0
H3926 H 0.19998 0.41822 0.39699 0.0
H3927 H 0.17559 0.40795 0.38393 0.0
H3928 H 0.19299 0.41053 0.47452 0.0
H3929 H 0.13362 0.38525 0.44524 0.0
H3930 H 0.19616 0.4603 0.44871 0.0
H3931 H 0.21028 0.44355 0.42818 0.0
H3932 H 0.21462 0.4386 0.45734 0.0
H3933 H 0.12157 0.43074 0.41327 0.0
H3934 H 0.11749 0.40111 0.41431 0.0
H3935 H 0.13717 0.41297 0.39477 0.0
C3936 C 0.39508 0.16548 0.5762 0.0
C3937 C 0.39428 0.17307 0.55433 0.0
C3938 C 0.41476 0.16675 0.58817 0.0
C3939 C 0.43411 0.17596 0.57803 0.0
C3940 C 0.43337 0.18381 0.55594 0.0
C3941 C 0.41341 0.18223 0.5443 0.0
C3942 C 0.41481 0.15817 0.61171 0.0
C3943 C 0.45362 0.1938 0.54465 0.0
C3944 C 0.47338 0.19445 0.62243 0.0
C3945 C 0.48628 0.17529 0.62482 0.0
C3946 C 0.4577 0.19588 0.60562 0.0
C3947 C 0.45479 0.17759 0.59105 0.0
C3948 C 0.46948 0.15921 0.59192 0.0
C3949 C 0.4852 0.15832 0.60882 0.0
C3950 C 0.44268 0.21596 0.60505 0.0
C3951 C 0.46707 0.13944 0.57657 0.0
H3952 H 0.38033 0.15831 0.58394 0.0
H3953 H 0.4128 0.18803 0.52731 0.0
H3954 H 0.42761 0.14503 0.6132 0.0
H3955 H 0.41912 0.17179 0.62337 0.0
H3956 H 0.39845 0.1512 0.61701 0.0
H3957 H 0.45029 0.19914 0.52741 0.0
H3958 H 0.4594 0.20838 0.55432 0.0
H3959 H 0.46741 0.18156 0.5441 0.0
H3960 H 0.47434 0.20768 0.63473 0.0
H3961 H 0.49518 0.14347 0.61065 0.0
H3962 H 0.42621 0.21168 0.61252 0.0
H3963 H 0.43999 0.22122 0.58769 0.0
H3964 H 0.44957 0.23019 0.61454 0.0
H3965 H 0.45252 0.12944 0.58215 0.0
H3966 H 0.48204 0.12862 0.57652 0.0
H3967 H 0.46405 0.14482 0.55931 0.0
C3968 C 0.89889 0.36648 0.57156 0.0
C3969 C 0.88587 0.36226 0.55299 0.0
C3970 C 0.89623 0.38624 0.58402 0.0
C3971 C 0.88034 0.40226 0.5776 0.0
C3972 C 0.86775 0.39836 0.55836 0.0
C3973 C 0.87055 0.37836 0.54641 0.0
C3974 C 0.90993 0.38966 0.60449 0.0
C3975 C 0.85084 0.41502 0.55073 0.0
C3976 C 0.85608 0.43839 0.62426 0.0
C3977 C 0.86886 0.45779 0.62246 0.0
C3978 C 0.85925 0.42052 0.6094 0.0
C3979 C 0.87554 0.42206 0.59211 0.0
C3980 C 0.88767 0.4421 0.58944 0.0
C3981 C 0.88423 0.45975 0.60472 0.0
C3982 C 0.84588 0.39956 0.61288 0.0
C3983 C 0.90494 0.44454 0.57103 0.0
H3984 H 0.91084 0.35413 0.57661 0.0
H3985 H 0.86048 0.3752 0.53202 0.0
H3986 H 0.91869 0.40585 0.60366 0.0
H3987 H 0.89883 0.39012 0.61948 0.0
H3988 H 0.92242 0.37628 0.60652 0.0
H3989 H 0.84417 0.41062 0.53419 0.0
H3990 H 0.83677 0.4159 0.56296 0.0
H3991 H 0.85833 0.43183 0.54982 0.0
H3992 H 0.84418 0.43677 0.63796 0.0
H3993 H 0.89425 0.47465 0.60334 0.0
H3994 H 0.85716 0.38568 0.61701 0.0
H3995 H 0.83734 0.39486 0.59739 0.0
H3996 H 0.8332 0.40138 0.6265 0.0
H3997 H 0.91911 0.43324 0.57404 0.0
H3998 H 0.91135 0.4618 0.56985 0.0
H3999 H 0.89788 0.43968 0.55481 0.0
C4000 C 0.14824 0.56994 0.61099 0.0
C4001 C 0.16312 0.57055 0.6286 0.0
C4002 C 0.14582 0.58839 0.59695 0.0
C4003 C 0.15844 0.6079 0.60075 0.0
C4004 C 0.17439 0.60802 0.61771 0.0
C4005 C 0.17658 0.58935 0.63132 0.0
C4006 C 0.1289 0.58742 0.57884 0.0
C4007 C 0.18822 0.62838 0.62241 0.0
C4008 C 0.16312 0.65509 0.55891 0.0
C4009 C 0.14756 0.67038 0.56764 0.0
C4010 C 0.16629 0.63433 0.56897 0.0
C4011 C 0.15382 0.62885 0.58843 0.0
C4012 C 0.13782 0.64415 0.59707 0.0
C4013 C 0.13481 0.66464 0.58651 0.0
C4014 C 0.18329 0.61846 0.55902 0.0
C4015 C 0.12425 0.63911 0.61785 0.0
H4016 H 0.13773 0.55549 0.60886 0.0
H4017 H 0.18812 0.58994 0.64489 0.0
H4018 H 0.11465 0.5984 0.58337 0.0
H4019 H 0.13622 0.59356 0.56295 0.0
H4020 H 0.12252 0.57032 0.57617 0.0
H4021 H 0.20101 0.62524 0.63505 0.0
H4022 H 0.19666 0.6342 0.60695 0.0
H4023 H 0.17725 0.64203 0.62858 0.0
H4024 H 0.17299 0.65942 0.5443 0.0
H4025 H 0.12266 0.67635 0.59325 0.0
H4026 H 0.17584 0.60177 0.55673 0.0
H4027 H 0.1973 0.61661 0.57055 0.0
H4028 H 0.19003 0.62424 0.54273 0.0
H4029 H 0.11526 0.62318 0.6158 0.0
H4030 H 0.11194 0.65237 0.62197 0.0
H4031 H 0.13544 0.63723 0.63213 0.0
C4032 C 0.0512 0.28255 0.44944 0.0
C4033 C 0.04669 0.26135 0.44145 0.0
C4034 C 0.06212 0.28509 0.4696 0.0
C4035 C 0.06825 0.26582 0.48163 0.0
C4036 C 0.06091 0.2447 0.47492 0.0
C4037 C 0.05075 0.24266 0.45447 0.0
C4038 C 0.06929 0.30812 0.47662 0.0
C4039 C 0.06596 0.22407 0.48798 0.0
C4040 C 0.12514 0.28061 0.49516 0.0
C4041 C 0.12018 0.29362 0.51383 0.0
C4042 C 0.10874 0.26725 0.48613 0.0
C4043 C 0.08727 0.26744 0.49638 0.0
C4044 C 0.08411 0.27641 0.51797 0.0
C4045 C 0.10094 0.28967 0.52664 0.0
C4046 C 0.11316 0.25709 0.46338 0.0
C4047 C 0.06192 0.27512 0.53004 0.0
H4048 H 0.04756 0.29687 0.43934 0.0
H4049 H 0.04723 0.22622 0.4481 0.0
H4050 H 0.06454 0.31134 0.49427 0.0
H4051 H 0.08765 0.30956 0.47501 0.0
H4052 H 0.0618 0.32126 0.46631 0.0
H4053 H 0.05466 0.2102 0.48365 0.0
H4054 H 0.08322 0.21851 0.48425 0.0
H4055 H 0.06456 0.22741 0.50611 0.0
H4056 H 0.14046 0.28355 0.48576 0.0
H4057 H 0.09767 0.29923 0.54168 0.0
H4058 H 0.10542 0.26757 0.45057 0.0
H4059 H 0.10588 0.24027 0.46217 0.0
H4060 H 0.13125 0.25586 0.4594 0.0
H4061 H 0.04983 0.28618 0.52196 0.0
H4062 H 0.06308 0.28016 0.54779 0.0
H4063 H 0.05533 0.25797 0.52905 0.0
C4064 C 0.74925 0.11216 0.42605 0.0
C4065 C 0.72648 0.11435 0.43056 0.0
C4066 C 0.75744 0.09398 0.41376 0.0
C4067 C 0.7424 0.07767 0.40603 0.0
C4068 C 0.71926 0.08078 0.40901 0.0
C4069 C 0.71153 0.09922 0.42123 0.0
C4070 C 0.78229 0.09145 0.41043 0.0
C4071 C 0.70272 0.06386 0.40092 0.0
C4072 C 0.77245 0.03851 0.3671 0.0
C4073 C 0.78111 0.02359 0.3824 0.0
C4074 C 0.75754 0.0551 0.37409 0.0
C4075 C 0.75137 0.05658 0.39686 0.0
C4076 C 0.7577 0.03965 0.41168 0.0
C4077 C 0.77262 0.0232 0.40421 0.0
C4078 C 0.75057 0.07241 0.35765 0.0
C4079 C 0.75078 0.04033 0.43596 0.0
H4080 H 0.76074 0.12395 0.43321 0.0
H4081 H 0.69384 0.10097 0.4247 0.0
H4082 H 0.78818 0.07708 0.42013 0.0
H4083 H 0.78648 0.08808 0.39266 0.0
H4084 H 0.79149 0.10648 0.41583 0.0
H4085 H 0.68582 0.07112 0.39967 0.0
H4086 H 0.70787 0.05686 0.38447 0.0
H4087 H 0.70178 0.04992 0.41286 0.0
H4088 H 0.77872 0.03836 0.35004 0.0
H4089 H 0.77913 0.0114 0.41593 0.0
H4090 H 0.7613 0.08728 0.35941 0.0
H4091 H 0.73311 0.0777 0.36084 0.0
H4092 H 0.75229 0.0662 0.34024 0.0
H4093 H 0.76024 0.05355 0.44457 0.0
H4094 H 0.75404 0.02429 0.4443 0.0
H4095 H 0.73285 0.04436 0.43793 0.0
C4096 C 0.01987 0.75335 0.44751 0.0
C4097 C 0.00682 0.74524 0.43025 0.0
C4098 C 0.00921 0.76041 0.46722 0.0
C4099 C 0.98689 0.75397 0.47118 0.0
C4100 C 0.97729 0.73782 0.45701 0.0
C4101 C 0.98714 0.73413 0.43595 0.0
C4102 C 0.02112 0.77705 0.48143 0.0
C4103 C 0.95489 0.72769 0.46229 0.0
C4104 C 0.94882 0.77091 0.51861 0.0
C4105 C 0.93171 0.77993 0.50601 0.0
C4106 C 0.9683 0.76333 0.50789 0.0
C4107 C 0.97164 0.76785 0.4851 0.0
C4108 C 0.95684 0.78247 0.47434 0.0
C4109 C 0.93682 0.78838 0.48504 0.0
C4110 C 0.98319 0.74765 0.51991 0.0
C4111 C 0.96025 0.78913 0.45046 0.0
H4112 H 0.03625 0.75989 0.44359 0.0
H4113 H 0.97766 0.72606 0.42307 0.0
H4114 H 0.03713 0.76986 0.48646 0.0
H4115 H 0.02534 0.79189 0.47139 0.0
H4116 H 0.0115 0.7823 0.49641 0.0
H4117 H 0.95297 0.71148 0.45358 0.0
H4118 H 0.95258 0.7252 0.48047 0.0
H4119 H 0.94157 0.73896 0.45667 0.0
H4120 H 0.94516 0.76537 0.53541 0.0
H4121 H 0.92383 0.79617 0.47561 0.0
H4122 H 0.978 0.74579 0.53761 0.0
H4123 H 1.00055 0.75361 0.51917 0.0
H4124 H 0.98274 0.73114 0.51164 0.0
H4125 H 0.95262 0.80561 0.44741 0.0
H4126 H 0.95214 0.77679 0.4395 0.0
H4127 H 0.97815 0.78984 0.44592 0.0
C4128 C 0.17416 0.90559 0.40697 0.0
C4129 C 0.1893 0.91269 0.39044 0.0
C4130 C 0.18204 0.89304 0.42461 0.0
C4131 C 0.2048 0.88741 0.42435 0.0
C4132 C 0.21686 0.88747 0.40388 0.0
C4133 C 0.20901 0.90078 0.38682 0.0
C4134 C 0.1678 0.89074 0.44536 0.0
C4135 C 0.24022 0.8785 0.4021 0.0
C4136 C 0.24257 0.91853 0.46234 0.0
C4137 C 0.25113 0.90127 0.47453 0.0
C4138 C 0.22545 0.91459 0.44764 0.0
C4139 C 0.21761 0.89244 0.44442 0.0
C4140 C 0.22516 0.87525 0.45817 0.0
C4141 C 0.24176 0.88 0.4734 0.0
C4142 C 0.21744 0.93403 0.43436 0.0
C4143 C 0.21736 0.85154 0.45588 0.0
H4144 H 0.15801 0.91353 0.40875 0.0
H4145 H 0.22007 0.90504 0.37302 0.0
H4146 H 0.17297 0.87621 0.45523 0.0
H4147 H 0.16957 0.90591 0.45581 0.0
H4148 H 0.14999 0.889 0.44117 0.0
H4149 H 0.25197 0.89128 0.40818 0.0
H4150 H 0.24197 0.86344 0.41241 0.0
H4151 H 0.24487 0.87441 0.38455 0.0
H4152 H 0.24989 0.93495 0.4637 0.0
H4153 H 0.2486 0.86664 0.4831 0.0
H4154 H 0.19904 0.93446 0.43415 0.0
H4155 H 0.22419 0.93265 0.41713 0.0
H4156 H 0.22328 0.95014 0.44115 0.0
H4157 H 0.20271 0.8497 0.44517 0.0
H4158 H 0.21312 0.84477 0.47255 0.0
H4159 H 0.23114 0.84125 0.44877 0.0
C4160 C 0.04369 0.7314 0.60757 0.0
C4161 C 0.02417 0.74288 0.61329 0.0
C4162 C 0.05568 0.73748 0.58833 0.0
C4163 C 0.04775 0.75548 0.57567 0.0
C4164 C 0.02528 0.76205 0.57831 0.0
C4165 C 0.0129 0.75356 0.59627 0.0
C4166 C 0.07825 0.72732 0.58377 0.0
C4167 C 0.01484 0.7799 0.56463 0.0
C4168 C 0.09869 0.79079 0.56919 0.0
C4169 C 0.10526 0.7842 0.54786 0.0
C4170 C 0.07829 0.78353 0.57791 0.0
C4171 C 0.0643 0.77013 0.56462 0.0
C4172 C 0.06909 0.76793 0.5417 0.0
C4173 C 0.08892 0.77698 0.53318 0.0
C4174 C 0.07354 0.78757 0.60213 0.0
C4175 C 0.05495 0.75367 0.52703 0.0
H4176 H 0.05165 0.72127 0.61991 0.0
H4177 H 0.99644 0.76026 0.59967 0.0
H4178 H 0.08215 0.72693 0.56567 0.0
H4179 H 0.09113 0.73742 0.59205 0.0
H4180 H 0.07908 0.71016 0.59032 0.0
H4181 H 0.0262 0.78683 0.55184 0.0
H4182 H 1.00003 0.77306 0.55641 0.0
H4183 H 0.00879 0.79355 0.57571 0.0
H4184 H 0.11099 0.79758 0.58028 0.0
H4185 H 0.09355 0.77383 0.51605 0.0
H4186 H 0.08014 0.77356 0.61186 0.0
H4187 H 0.05544 0.78882 0.60525 0.0
H4188 H 0.08175 0.80306 0.60779 0.0
H4189 H 0.05177 0.7374 0.53496 0.0
H4190 H 0.06284 0.75069 0.51045 0.0
H4191 H 0.03866 0.76178 0.52492 0.0
C4192 C 0.19892 0.11169 0.60557 0.0
C4193 C 0.21408 0.10189 0.6199 0.0
C4194 C 0.20634 0.12608 0.58885 0.0
C4195 C 0.22932 0.13053 0.5867 0.0
C4196 C 0.2442 0.12271 0.60285 0.0
C4197 C 0.23632 0.10836 0.61931 0.0
C4198 C 0.18985 0.13466 0.57246 0.0
C4199 C 0.26883 0.12763 0.60151 0.0
C4200 C 0.26454 0.13146 0.53546 0.0
C4201 C 0.2739 0.1525 0.53808 0.0
C4202 C 0.2469 0.12488 0.54942 0.0
C4203 C 0.23882 0.13987 0.56603 0.0
C4204 C 0.24557 0.1623 0.56579 0.0
C4205 C 0.26336 0.16838 0.55182 0.0
C4206 C 0.23933 0.10098 0.54856 0.0
C4207 C 0.2363 0.17906 0.58233 0.0
H4208 H 0.18156 0.10685 0.6063 0.0
H4209 H 0.24787 0.10099 0.6307 0.0
H4210 H 0.19535 0.15052 0.56488 0.0
H4211 H 0.18792 0.12221 0.55893 0.0
H4212 H 0.17326 0.13716 0.5806 0.0
H4213 H 0.27766 0.12175 0.61638 0.0
H4214 H 0.27635 0.11933 0.5866 0.0
H4215 H 0.2717 0.14574 0.59988 0.0
H4216 H 0.2724 0.11945 0.52426 0.0
H4217 H 0.27019 0.185 0.55307 0.0
H4218 H 0.22102 0.09988 0.55074 0.0
H4219 H 0.24693 0.09169 0.56234 0.0
H4220 H 0.2443 0.09274 0.53261 0.0
H4221 H 0.21854 0.17573 0.5864 0.0
H4222 H 0.23796 0.19624 0.57589 0.0
H4223 H 0.24571 0.17806 0.59794 0.0
C4224 C 1.00451 0.27014 0.59589 0.0
C4225 C 0.98791 0.27898 0.61014 0.0
C4226 C 0.99946 0.26492 0.57389 0.0
C4227 C 0.97924 0.27272 0.56542 0.0
C4228 C 0.96653 0.28848 0.57804 0.0
C4229 C 0.97033 0.29053 0.60087 0.0
C4230 C 0.01353 0.24787 0.56164 0.0
C4231 C 0.94634 0.29958 0.56868 0.0
C4232 C 0.95017 0.26151 0.51245 0.0
C4233 C 0.93056 0.25307 0.52221 0.0
C4234 C 0.96832 0.26631 0.52581 0.0
C4235 C 0.96747 0.25973 0.54827 0.0
C4236 C 0.95037 0.24506 0.55563 0.0
C4237 C 0.93166 0.24225 0.54253 0.0
C4238 C 0.98603 0.28174 0.51701 0.0
C4239 C 0.94957 0.23602 0.57892 0.0
H4240 H 0.01893 0.26249 0.60296 0.0
H4241 H 0.95792 0.29839 0.61168 0.0
H4242 H 1.00365 0.23259 0.55887 0.0
H4243 H 0.01885 0.25433 0.54528 0.0
H4244 H 0.02865 0.24329 0.57084 0.0
H4245 H 0.94247 0.31535 0.5777 0.0
H4246 H 0.94887 0.30315 0.55073 0.0
H4247 H 0.93175 0.28843 0.57062 0.0
H4248 H 0.94968 0.2688 0.49604 0.0
H4249 H 0.91675 0.23481 0.54969 0.0
H4250 H 1.00278 0.2759 0.5213 0.0
H4251 H 0.98353 0.29837 0.52473 0.0
H4252 H 0.98542 0.28334 0.49866 0.0
H4253 H 0.96652 0.23247 0.58478 0.0
H4254 H 0.93943 0.22063 0.57984 0.0
H4255 H 0.94171 0.24848 0.59032 0.0
C4256 C 0.77101 0.98656 0.62584 0.0
C4257 C 0.7813 0.98784 0.64633 0.0
C4258 C 0.75335 0.97186 0.62279 0.0
C4259 C 0.74575 0.95872 0.64093 0.0
C4260 C 0.75398 0.96257 0.66241 0.0
C4261 C 0.77205 0.97692 0.66481 0.0
C4262 C 0.74471 0.96856 0.5996 0.0
C4263 C 0.74541 0.95003 0.68243 0.0
C4264 C 0.70128 0.92277 0.6181 0.0
C4265 C 0.71478 0.90633 0.60815 0.0
C4266 C 0.71053 0.93878 0.63215 0.0
C4267 C 0.7336 0.93805 0.63592 0.0
C4268 C 0.74622 0.91921 0.62906 0.0
C4269 C 0.73656 0.90348 0.61511 0.0
C4270 C 0.69628 0.95786 0.64044 0.0
C4271 C 0.77075 0.91734 0.63357 0.0
H4272 H 0.77805 0.99542 0.61172 0.0
H4273 H 0.77973 0.97859 0.68088 0.0
H4274 H 0.74929 0.95174 0.59332 0.0
H4275 H 0.72632 0.9698 0.59978 0.0
H4276 H 0.75162 0.98095 0.58775 0.0
H4277 H 0.74627 0.96054 0.69767 0.0
H4278 H 0.72802 0.94438 0.6804 0.0
H4279 H 0.75601 0.93523 0.68496 0.0
H4280 H 0.68416 0.92458 0.61314 0.0
H4281 H 0.74675 0.89031 0.60782 0.0
H4282 H 0.69676 0.97134 0.62799 0.0
H4283 H 0.70236 0.9647 0.65638 0.0
H4284 H 0.67868 0.95261 0.64278 0.0
H4285 H 0.78008 0.92963 0.62337 0.0
H4286 H 0.77736 0.90052 0.62947 0.0
H4287 H 0.77396 0.92102 0.65129 0.0
C4288 C 0.45119 0.01924 0.26368 0.0
C4289 C 0.43157 0.02722 0.27393 0.0
C4290 C 0.46844 0.03404 0.25879 0.0
C4291 C 0.46687 0.05601 0.26692 0.0
C4292 C 0.44984 0.06171 0.28269 0.0
C4293 C 0.43202 0.04715 0.28585 0.0
C4294 C 0.48565 0.02715 0.24165 0.0
C4295 C 0.44822 0.08447 0.29323 0.0
C4296 C 0.50679 0.10265 0.25772 0.0
C4297 C 0.49062 0.11814 0.25167 0.0
C4298 C 0.50016 0.08084 0.26202 0.0
C4299 C 0.47882 0.0741 0.25534 0.0
C4300 C 0.46645 0.08805 0.24131 0.0
C4301 C 0.47218 0.11054 0.24018 0.0
C4302 C 0.51465 0.0669 0.27651 0.0
C4303 C 0.44522 0.08032 0.23086 0.0
H4304 H 0.45119 1.00325 0.25521 0.0
H4305 H 0.41709 0.0529 0.29459 0.0
H4306 H 0.50011 0.03841 0.24105 0.0
H4307 H 0.49144 0.01007 0.24497 0.0
H4308 H 0.47786 0.02728 0.22515 0.0
H4309 H 0.44007 0.08363 0.30996 0.0
H4310 H 0.46486 0.09206 0.29482 0.0
H4311 H 0.43797 0.09536 0.28276 0.0
H4312 H 0.5222 0.10846 0.26479 0.0
H4313 H 0.46035 0.12239 0.23388 0.0
H4314 H 0.53138 0.06542 0.26858 0.0
H4315 H 0.508 0.05006 0.2796 0.0
H4316 H 0.51683 0.07545 0.29275 0.0
H4317 H 0.44153 0.09024 0.2159 0.0
H4318 H 0.43115 0.08244 0.24294 0.0
H4319 H 0.44629 0.06249 0.22606 0.0
C4320 C 0.01253 0.45693 0.26301 0.0
C4321 C 1.00412 0.4392 0.27547 0.0
C4322 C 0.99938 0.47543 0.25893 0.0
C4323 C 0.97771 0.47614 0.2681 0.0
C4324 C 0.9714 0.46087 0.28496 0.0
C4325 C 0.98473 0.44217 0.2883 0.0
C4326 C 0.0067 0.49107 0.24094 0.0
C4327 C 0.94886 0.46181 0.29642 0.0
C4328 C 0.93115 0.51474 0.25633 0.0
C4329 C 0.91586 0.49813 0.25077 0.0
C4330 C 0.95316 0.50886 0.26034 0.0
C4331 C 0.95994 0.48685 0.25548 0.0
C4332 C 0.94604 0.47281 0.24278 0.0
C4333 C 0.92355 0.47826 0.24142 0.0
C4334 C 0.96771 0.52545 0.27205 0.0
C4335 C 0.9538 0.45042 0.23416 0.0
H4336 H 0.02706 0.4543 0.25251 0.0
H4337 H 0.97833 0.42857 0.29826 0.0
H4338 H 1.00121 0.50826 0.24466 0.0
H4339 H 0.02491 0.49105 0.23861 0.0
H4340 H 0.99945 0.48534 0.22516 0.0
H4341 H 0.95 0.45631 0.31394 0.0
H4342 H 0.94164 0.47875 0.29617 0.0
H4343 H 0.93738 0.45031 0.28785 0.0
H4344 H 0.92513 0.53076 0.26232 0.0
H4345 H 0.91175 0.46579 0.2361 0.0
H4346 H 0.97424 0.53755 0.25973 0.0
H4347 H 0.98199 0.51761 0.28019 0.0
H4348 H 0.95791 0.53509 0.28468 0.0
H4349 H 0.94388 0.44496 0.21974 0.0
H4350 H 0.95164 0.43787 0.24743 0.0
H4351 H 0.97164 0.45087 0.22903 0.0
C4352 C 0.58099 0.01759 0.27387 0.0
C4353 C 0.59696 1.00381 0.28335 0.0
C4354 C 0.56066 0.00862 0.26749 0.0
C4355 C 0.55544 0.98667 0.27366 0.0
C4356 C 0.56932 0.97526 0.28862 0.0
C4357 C 0.59014 0.98415 0.2934 0.0
C4358 C 0.54669 0.02114 0.25136 0.0
C4359 C 0.56435 0.95196 0.29631 0.0
C4360 C 0.508 0.94929 0.26795 0.0
C4361 C 0.52046 0.93182 0.25842 0.0
C4362 C 0.51766 0.97023 0.27023 0.0
C4363 C 0.53914 0.97359 0.26102 0.0
C4364 C 0.54783 0.95811 0.24517 0.0
C4365 C 0.53874 0.93673 0.24465 0.0
C4366 C 0.50663 0.98657 0.28598 0.0
C4367 C 0.56926 0.96244 0.23249 0.0
H4368 H 0.58616 0.03331 0.26681 0.0
H4369 H 0.60235 0.97387 0.30142 0.0
H4370 H 0.54547 0.01161 0.2356 0.0
H4371 H 0.52971 0.02295 0.2584 0.0
H4372 H 0.5535 0.03785 0.24752 0.0
H4373 H 0.57272 0.94835 0.31215 0.0
H4374 H 0.54626 0.94923 0.29865 0.0
H4375 H 0.57077 0.93995 0.28362 0.0
H4376 H 0.49309 0.9457 0.27771 0.0
H4377 H 0.54783 0.92338 0.23633 0.0
H4378 H 0.48942 0.98978 0.28058 0.0
H4379 H 0.51559 1.00255 0.28713 0.0
H4380 H 0.50529 0.97916 0.30277 0.0
H4381 H 0.57021 0.9524 0.21691 0.0
H4382 H 0.58352 0.95779 0.24288 0.0
H4383 H 0.57083 0.98026 0.22829 0.0
C4384 C 0.05679 0.61338 0.30915 0.0
C4385 C 0.04171 0.62753 0.29919 0.0
C4386 C 0.07309 0.62242 0.32278 0.0
C4387 C 0.07646 0.6458 0.32234 0.0
C4388 C 0.05747 0.65895 0.31892 0.0
C4389 C 0.03984 0.64955 0.30714 0.0
C4390 C 0.08834 0.60697 0.33467 0.0
C4391 C 0.05738 0.68342 0.32422 0.0
C4392 C 0.1334 0.6343 0.31175 0.0
C4393 C 0.12913 0.62597 0.2903 0.0
C4394 C 0.11768 0.64813 0.32261 0.0
C4395 C 0.09791 0.65313 0.31156 0.0
C4396 C 0.09881 0.65197 0.28791 0.0
C4397 C 0.11317 0.63647 0.27768 0.0
C4398 C 0.12056 0.65425 0.34668 0.0
C4399 C 0.08322 0.66483 0.27365 0.0
H4400 H 0.05714 0.59589 0.30483 0.0
H4401 H 0.02694 0.66036 0.3011 0.0
H4402 H 0.095 0.61501 0.34975 0.0
H4403 H 0.07933 0.59166 0.33973 0.0
H4404 H 0.1023 0.60187 0.3235 0.0
H4405 H 0.04459 0.6868 0.33741 0.0
H4406 H 0.07375 0.68924 0.33015 0.0
H4407 H 0.0526 0.69311 0.30945 0.0
H4408 H 0.14679 0.62739 0.32128 0.0
H4409 H 0.11093 0.63159 0.26047 0.0
H4410 H 0.12539 0.63945 0.35633 0.0
H4411 H 0.1053 0.66185 0.35423 0.0
H4412 H 0.13438 0.66637 0.34791 0.0
H4413 H 0.06834 0.65477 0.27012 0.0
H4414 H 0.09138 0.66873 0.2574 0.0
H4415 H 0.0781 0.68063 0.28181 0.0
C4416 C 0.38588 0.92257 0.82859 0.0
C4417 C 0.38464 0.93321 0.80798 0.0
C4418 C 0.40123 0.9054 0.83142 0.0
C4419 C 0.4148 0.89885 0.81306 0.0
C4420 C 0.40912 0.90574 0.79132 0.0
C4421 C 0.39443 0.9235 0.78914 0.0
C4422 C 0.40509 0.89707 0.85457 0.0
C4423 C 0.42141 0.89756 0.77066 0.0
C4424 C 0.47328 0.90856 0.80334 0.0
C4425 C 0.47728 0.88886 0.79158 0.0
C4426 C 0.45378 0.91068 0.81633 0.0
C4427 C 0.43831 0.89285 0.81649 0.0
C4428 C 0.4456 0.87147 0.81 0.0
C4429 C 0.46524 0.86968 0.79721 0.0
C4430 C 0.44773 0.9333 0.82564 0.0
C4431 C 0.43079 0.85146 0.81251 0.0
H4432 H 0.37759 0.92974 0.84317 0.0
H4433 H 0.39275 0.93142 0.77313 0.0
H4434 H 0.41622 0.88238 0.85469 0.0
H4435 H 0.41248 0.91052 0.86475 0.0
H4436 H 0.38893 0.89267 0.86269 0.0
H4437 H 0.41205 0.90121 0.7554 0.0
H4438 H 0.43774 0.90603 0.76919 0.0
H4439 H 0.42426 0.87941 0.77128 0.0
H4440 H 0.48332 0.92313 0.79982 0.0
H4441 H 0.46924 0.85399 0.78905 0.0
H4442 H 0.46276 0.94358 0.82831 0.0
H4443 H 0.43844 0.93181 0.84168 0.0
H4444 H 0.43702 0.94211 0.81377 0.0
H4445 H 0.41843 0.85372 0.82633 0.0
H4446 H 0.4409 0.83639 0.81556 0.0
H4447 H 0.42171 0.84864 0.79689 0.0
C4448 C 0.0075 0.44521 0.76946 0.0
C4449 C 0.01863 0.42737 0.75897 0.0
C4450 C 0.01832 0.46558 0.77181 0.0
C4451 C 0.03938 0.46829 0.76136 0.0
C4452 C 0.04664 0.45265 0.74496 0.0
C4453 C 0.03657 0.43171 0.74457 0.0
C4454 C 0.00911 0.48176 0.78886 0.0
C4455 C 0.06765 0.45619 0.73128 0.0
C4456 C 0.08328 0.51131 0.76877 0.0
C4457 C 0.09981 0.49716 0.77667 0.0
C4458 C 0.06195 0.50303 0.76529 0.0
C4459 C 0.05676 0.4814 0.77251 0.0
C4460 C 0.07183 0.46993 0.7862 0.0
C4461 C 0.09364 0.47775 0.7876 0.0
C4462 C 0.04683 0.51559 0.75035 0.0
C4463 C 0.0665 0.44748 0.79588 0.0
H4464 H 0.993 0.44204 0.78003 0.0
H4465 H 0.04468 0.41809 0.73568 0.0
H4466 H 0.01931 0.49693 0.79039 0.0
H4467 H 0.99187 0.48635 0.78464 0.0
H4468 H 0.00798 0.47355 0.80524 0.0
H4469 H 0.06749 0.44615 0.71569 0.0
H4470 H 0.0698 0.47396 0.72698 0.0
H4471 H 0.08219 0.45092 0.74097 0.0
H4472 H 0.08804 0.52679 0.76088 0.0
H4473 H 0.10638 0.46712 0.79429 0.0
H4474 H 0.05146 0.5334 0.74909 0.0
H4475 H 0.0295 0.51427 0.75643 0.0
H4476 H 0.04776 0.50798 0.73352 0.0
H4477 H 0.0758 0.44477 0.81137 0.0
H4478 H 0.07161 0.43435 0.78374 0.0
H4479 H 0.04848 0.44564 0.79964 0.0
C4480 C 0.62369 0.08321 0.7385 0.0
C4481 C 0.63141 0.06159 0.74124 0.0
C4482 C 0.60095 0.08741 0.74193 0.0
C4483 C 0.58674 0.06933 0.74755 0.0
C4484 C 0.59443 0.04736 0.74339 0.0
C4485 C 0.61662 0.04437 0.73649 0.0
C4486 C 0.59322 0.1112 0.74231 0.0
C4487 C 0.58095 0.02693 0.74868 0.0
C4488 C 0.54801 0.09517 0.79023 0.0
C4489 C 0.52894 0.09612 0.7775 0.0
C4490 C 0.56671 0.08363 0.78194 0.0
C4491 C 0.56587 0.07362 0.76046 0.0
C4492 C 0.54508 0.07092 0.7504 0.0
C4493 C 0.52612 0.07975 0.7611 0.0
C4494 C 0.58784 0.08499 0.79483 0.0
C4495 C 0.54323 0.0633 0.72668 0.0
H4496 H 0.63535 0.09694 0.73872 0.0
H4497 H 0.62302 0.02755 0.73491 0.0
H4498 H 0.5749 0.11254 0.74288 0.0
H4499 H 0.60001 0.11991 0.75699 0.0
H4500 H 0.59973 0.11986 0.72729 0.0
H4501 H 0.59135 0.01469 0.75734 0.0
H4502 H 0.56589 0.03028 0.75902 0.0
H4503 H 0.57595 0.01914 0.73285 0.0
H4504 H 0.54971 0.10647 0.80423 0.0
H4505 H 0.51046 0.079 0.75251 0.0
H4506 H 0.59535 0.10168 0.79276 0.0
H4507 H 0.60005 0.07229 0.7892 0.0
H4508 H 0.58417 0.08279 0.81287 0.0
H4509 H 0.55465 0.0496 0.72222 0.0
H4510 H 0.54802 0.07738 0.71582 0.0
H4511 H 0.52599 0.05818 0.72306 0.0
C4512 C 0.98083 0.59624 0.7469 0.0
C4513 C 0.99782 0.60136 0.76144 0.0
C4514 C 0.97248 0.57457 0.74613 0.0
C4515 C 0.98031 0.55897 0.76169 0.0
C4516 C 1.00075 0.56289 0.77211 0.0
C4517 C 0.01026 0.584 0.77038 0.0
C4518 C 0.95225 0.57002 0.73246 0.0
C4519 C 0.01023 0.54711 0.7887 0.0
C4520 C 0.92585 0.54534 0.78768 0.0
C4521 C 0.92133 0.52625 0.7754 0.0
C4522 C 0.94719 0.55446 0.78669 0.0
C4523 C 0.96351 0.5444 0.77239 0.0
C4524 C 0.95998 0.52271 0.76416 0.0
C4525 C 0.93905 0.51307 0.76737 0.0
C4526 C 0.9506 0.57688 0.79739 0.0
C4527 C 0.97629 0.51166 0.74833 0.0
H4528 H 0.97186 0.60954 0.739 0.0
H4529 H 0.02435 0.58784 0.78064 0.0
H4530 H 0.95116 0.55221 0.72774 0.0
H4531 H 0.93708 0.57458 0.74232 0.0
H4532 H 0.95257 0.58017 0.71711 0.0
H4533 H 0.00953 0.55491 0.80547 0.0
H4534 H 1.00128 0.53109 0.78935 0.0
H4535 H 0.02805 0.54407 0.78468 0.0
H4536 H 0.91219 0.55504 0.79474 0.0
H4537 H 0.93555 0.4976 0.75876 0.0
H4538 H 0.9447 0.58995 0.78603 0.0
H4539 H 0.96833 0.57995 0.80085 0.0
H4540 H 0.94077 0.57836 0.8132 0.0
H4541 H 0.97446 0.51891 0.73161 0.0
H4542 H 0.97346 0.49347 0.7471 0.0
H4543 H 0.99345 0.51478 0.7535 0.0
C4544 C 0.21886 0.4163 0.11333 0.0
C4545 C 0.23475 0.40452 0.1005 0.0
C4546 C 0.22496 0.43515 0.12551 0.0
C4547 C 0.2475 0.4417 0.1252 0.0
C4548 C 0.2639 0.42811 0.11458 0.0
C4549 C 0.25723 0.40978 0.102 0.0
C4550 C 0.20697 0.44917 0.13651 0.0
C4551 C 0.2883 0.43407 0.1147 0.0
C4552 C 0.27143 0.49874 0.12252 0.0
C4553 C 0.28234 0.49918 0.14276 0.0
C4554 C 0.25703 0.4812 0.11761 0.0
C4555 C 0.25405 0.46391 0.13326 0.0
C4556 C 0.2623 0.46629 0.15492 0.0
C4557 C 0.27632 0.48413 0.15948 0.0
C4558 C 0.24741 0.47972 0.09468 0.0
C4559 C 0.25903 0.44855 0.17226 0.0
H4560 H 0.20137 0.41225 0.11201 0.0
H4561 H 0.26941 0.40054 0.09206 0.0
H4562 H 0.21295 0.45792 0.15153 0.0
H4563 H 0.2015 0.46193 0.1246 0.0
H4564 H 0.19226 0.43894 0.14122 0.0
H4565 H 0.29898 0.42031 0.10818 0.0
H4566 H 0.29128 0.44887 0.10418 0.0
H4567 H 0.29348 0.43829 0.1318 0.0
H4568 H 0.27574 0.51074 0.10979 0.0
H4569 H 0.28434 0.48496 0.17543 0.0
H4570 H 0.23015 0.47324 0.09551 0.0
H4571 H 0.25755 0.46805 0.08425 0.0
H4572 H 0.24739 0.49613 0.08638 0.0
H4573 H 0.2423 0.44093 0.17135 0.0
H4574 H 0.26129 0.45532 0.18931 0.0
H4575 H 0.27153 0.43522 0.16927 0.0
C4576 C 0.20481 0.60472 0.91563 0.0
C4577 C 0.21958 0.62077 0.92364 0.0
C4578 C 0.21266 0.58693 0.90251 0.0
C4579 C 0.23563 0.5856 0.89722 0.0
C4580 C 0.24991 0.60345 0.90271 0.0
C4581 C 0.24167 0.62085 0.91604 0.0
C4582 C 0.19688 0.56842 0.89668 0.0
C4583 C 0.27443 0.60297 0.89672 0.0
C4584 C 0.2704 0.53423 0.9001 0.0
C4585 C 0.27806 0.53287 0.87805 0.0
C4586 C 0.2543 0.55001 0.90632 0.0
C4587 C 0.24573 0.5643 0.88995 0.0
C4588 C 0.25107 0.56059 0.86725 0.0
C4589 C 0.2674 0.54488 0.86154 0.0
C4590 C 0.24887 0.55333 0.93076 0.0
C4591 C 0.24174 0.57493 0.84925 0.0
H4592 H 0.18759 0.6048 0.92138 0.0
H4593 H 0.25295 0.63349 0.92203 0.0
H4594 H 0.20133 0.56078 0.88032 0.0
H4595 H 0.19783 0.55527 0.90944 0.0
H4596 H 0.17943 0.57444 0.89635 0.0
H4597 H 0.28252 0.61927 0.89973 0.0
H4598 H 0.28282 0.5903 0.90689 0.0
H4599 H 0.27708 0.59829 0.87898 0.0
H4600 H 0.27862 0.52475 0.91278 0.0
H4601 H 0.27317 0.54337 0.84436 0.0
H4602 H 0.23104 0.55742 0.9335 0.0
H4603 H 0.25876 0.56744 0.93721 0.0
H4604 H 0.25293 0.53835 0.94053 0.0
H4605 H 0.22427 0.57975 0.85315 0.0
H4606 H 0.24248 0.5663 0.83285 0.0
H4607 H 0.25172 0.59037 0.8479 0.0
C4608 C 0.43183 0.28637 0.99699 0.0
C4609 C 0.43076 0.27423 0.01661 0.0
C4610 C 0.44942 0.28268 0.98185 0.0
C4611 C 0.46571 0.26654 0.98693 0.0
C4612 C 0.46707 0.25856 0.0088 0.0
C4613 C 0.45005 0.26391 0.0241 0.0
C4614 C 0.44812 0.29303 0.95917 0.0
C4615 C 0.48352 0.24099 0.0149 0.0
C4616 C 0.46936 0.24069 0.93156 0.0
C4617 C 0.48818 0.25192 0.92365 0.0
C4618 C 0.46415 0.24117 0.95435 0.0
C4619 C 0.47718 0.25475 0.96837 0.0
C4620 C 0.49847 0.26163 0.96098 0.0
C4621 C 0.50459 0.25803 0.93871 0.0
C4622 C 0.44271 0.23078 0.96254 0.0
C4623 C 0.51335 0.27599 0.9748 0.0
H4624 H 0.41725 0.29535 0.99171 0.0
H4625 H 0.44961 0.25536 0.0399 0.0
H4626 H 0.4647 0.29392 0.95082 0.0
H4627 H 0.43704 0.28289 0.94863 0.0
H4628 H 0.44096 0.31002 0.96044 0.0
H4629 H 0.47607 0.22454 0.01136 0.0
H4630 H 0.49917 0.24223 1.00506 0.0
H4631 H 0.48721 0.24194 0.03284 0.0
H4632 H 0.45714 0.23475 0.91994 0.0
H4633 H 0.51996 0.26542 0.93255 0.0
H4634 H 0.42895 0.24295 0.9612 0.0
H4635 H 0.44381 0.22582 0.98023 0.0
H4636 H 0.43851 0.21597 0.95233 0.0
H4637 H 0.50695 0.27896 0.99194 0.0
H4638 H 0.51578 0.29226 0.96658 0.0
H4639 H 0.52982 0.26791 0.97555 0.0
C4640 C 0.7674 0.3556 0.95156 0.0
C4641 C 0.76353 0.37444 0.96501 0.0
C4642 C 0.75785 0.35403 0.93059 0.0
C4643 C 0.7448 0.37188 0.92326 0.0
C4644 C 0.73684 0.38796 0.93905 0.0
C4645 C 0.74678 0.38928 0.95974 0.0
C4646 C 0.76425 0.33487 0.91547 0.0
C4647 C 0.72076 0.40614 0.93317 0.0
C4648 C 0.76139 0.41346 0.88431 0.0
C4649 C 0.74008 0.41788 0.8769 0.0
C4650 C 0.7655 0.39371 0.89544 0.0
C4651 C 0.74736 0.37923 0.89993 0.0
C4652 C 0.72823 0.38077 0.88691 0.0
C4653 C 0.72455 0.40058 0.87548 0.0
C4654 C 0.78765 0.391 0.90638 0.0
C4655 C 0.70999 0.36372 0.88842 0.0
H4656 H 0.77947 0.34325 0.95634 0.0
H4657 H 0.74295 0.40313 0.97084 0.0
H4658 H 0.75487 0.33482 0.89979 0.0
H4659 H 0.78233 0.33553 0.91143 0.0
H4660 H 0.76114 0.31899 0.92425 0.0
H4661 H 0.71312 0.414 0.94829 0.0
H4662 H 0.72974 0.41928 0.92382 0.0
H4663 H 0.7072 0.39962 0.92284 0.0
H4664 H 0.77383 0.4265 0.88411 0.0
H4665 H 0.70838 0.40357 0.86849 0.0
H4666 H 0.79302 0.3734 0.90577 0.0
H4667 H 0.7862 0.39633 0.92406 0.0
H4668 H 0.80074 0.40124 0.89814 0.0
H4669 H 0.71594 0.3479 0.89555 0.0
H4670 H 0.70333 0.36042 0.87164 0.0
H4671 H 0.69605 0.3702 0.899 0.0
C4672 C 0.60732 0.82306 1.00011 0.0
C4673 C 0.62135 0.80671 0.0085 0.0
C4674 C 0.59157 0.81799 0.98457 0.0
C4675 C 0.59054 0.79611 0.97649 0.0
C4676 C 0.60407 0.77914 0.98527 0.0
C4677 C 0.61964 0.78473 1.00138 0.0
C4678 C 0.57723 0.8364 0.97564 0.0
C4679 C 0.60298 0.75554 0.97675 0.0
C4680 C 0.5424 0.77971 0.94167 0.0
C4681 C 0.55282 0.77914 0.92065 0.0
C4682 C 0.55451 0.78557 0.96024 0.0
C4683 C 0.57694 0.79179 0.95721 0.0
C4684 C 0.58643 0.79435 0.93567 0.0
C4685 C 0.57407 0.78798 0.91742 0.0
C4686 C 0.54401 0.78283 0.98302 0.0
C4687 C 0.61015 0.80199 0.93202 0.0
H4688 H 0.60956 0.84024 1.00458 0.0
H4689 H 0.63085 0.7723 0.0077 0.0
H4690 H 0.58246 0.84007 0.95825 0.0
H4691 H 0.55956 0.8312 0.97544 0.0
H4692 H 0.57845 0.85195 0.9856 0.0
H4693 H 0.61165 0.74382 0.98778 0.0
H4694 H 0.58545 0.75016 0.97516 0.0
H4695 H 0.61093 0.75458 0.95994 0.0
H4696 H 0.52579 0.77298 0.94402 0.0
H4697 H 0.58183 0.78771 0.90096 0.0
H4698 H 0.54899 0.76654 0.98971 0.0
H4699 H 0.52563 0.7833 0.98227 0.0
H4700 H 0.5497 0.79576 0.99479 0.0
H4701 H 0.61298 0.81792 0.9409 0.0
H4702 H 0.61444 0.80425 0.91411 0.0
H4703 H 0.62169 0.78956 0.9389 0.0
C4704 C 0.76676 0.67229 0.06133 0.0
C4705 C 0.77483 0.65514 0.04746 0.0
C4706 C 0.74988 0.66815 0.07707 0.0
C4707 C 0.74136 0.64641 0.07871 0.0
C4708 C 0.74639 0.6305 0.06178 0.0
C4709 C 0.76338 0.63505 0.04624 0.0
C4710 C 0.74389 0.68595 0.09395 0.0
C4711 C 0.73651 0.60746 0.06222 0.0
C4712 C 0.74363 0.61308 0.13027 0.0
C4713 C 0.72125 0.60767 0.13305 0.0
C4714 C 0.75026 0.62856 0.11434 0.0
C4715 C 0.73397 0.63812 0.10064 0.0
C4716 C 0.71114 0.6351 0.10569 0.0
C4717 C 0.70498 0.61992 0.1222 0.0
C4718 C 0.77486 0.63226 0.11026 0.0
C4719 C 0.69324 0.64548 0.09203 0.0
H4720 H 0.77509 0.68827 0.06144 0.0
H4721 H 0.76923 0.6221 0.0349 0.0
H4722 H 0.72655 0.68406 0.10033 0.0
H4723 H 0.75515 0.6847 0.10825 0.0
H4724 H 0.74593 0.70276 0.08672 0.0
H4725 H 0.73878 0.59876 0.04596 0.0
H4726 H 0.74479 0.59749 0.07509 0.0
H4727 H 0.7185 0.60815 0.06655 0.0
H4728 H 0.75606 0.60373 0.13904 0.0
H4729 H 0.68755 0.61578 0.12462 0.0
H4730 H 0.77845 0.65017 0.10805 0.0
H4731 H 0.78032 0.62339 0.09482 0.0
H4732 H 0.78492 0.62604 0.12417 0.0
H4733 H 0.69902 0.66081 0.08361 0.0
H4734 H 0.67838 0.64946 0.10264 0.0
H4735 H 0.68801 0.63342 0.07911 0.0
C4736 C 0.45158 0.7615 0.01868 0.0
C4737 C 0.43392 0.75479 0.03264 0.0
C4738 C 0.47237 0.76579 0.02772 0.0
C4739 C 0.47533 0.76155 0.05045 0.0
C4740 C 0.45923 0.7487 0.06228 0.0
C4741 C 0.43843 0.7454 0.05307 0.0
C4742 C 0.49 0.77687 0.01364 0.0
C4743 C 0.46213 0.74199 0.08609 0.0
C4744 C 0.521 0.7719 0.08875 0.0
C4745 C 0.50686 0.78057 0.1056 0.0
C4746 C 0.5123 0.76767 0.06777 0.0
C4747 C 0.49067 0.77534 0.06355 0.0
C4748 C 0.4809 0.79159 0.0779 0.0
C4749 C 0.4887 0.79344 0.09956 0.0
C4750 C 0.52494 0.753 0.0515 0.0
C4751 C 0.4599 0.80359 0.07195 0.0
H4752 H 0.44816 0.76769 1.00223 0.0
H4753 H 0.42483 0.73923 0.06344 0.0
H4754 H 0.50175 0.76392 0.00746 0.0
H4755 H 0.48283 0.78516 0.99903 0.0
H4756 H 0.49952 0.78921 0.02328 0.0
H4757 H 0.45349 0.72605 0.08959 0.0
H4758 H 0.47992 0.74022 0.08993 0.0
H4759 H 0.45456 0.75483 0.09724 0.0
H4760 H 0.53643 0.76389 0.09312 0.0
H4761 H 0.47858 0.80171 0.11228 0.0
H4762 H 0.53932 0.74469 0.05919 0.0
H4763 H 0.53132 0.76334 0.03757 0.0
H4764 H 0.51396 0.74012 0.04445 0.0
H4765 H 0.45903 0.80583 0.05368 0.0
H4766 H 0.45903 0.82012 0.08028 0.0
H4767 H 0.44524 0.79381 0.07764 0.0
C4768 C 0.58347 0.27109 0.02414 0.0
C4769 C 0.59943 0.27839 0.03924 0.0
C4770 C 0.56217 0.26541 0.03196 0.0
C4771 C 0.55631 0.27012 0.05432 0.0
C4772 C 0.57074 0.2833 0.06738 0.0
C4773 C 0.59238 0.28734 0.05958 0.0
C4774 C 0.54758 0.25126 0.01766 0.0
C4775 C 0.56515 0.28968 0.09105 0.0
C4776 C 0.50559 0.26017 0.08881 0.0
C4777 C 0.51677 0.24929 0.10581 0.0
C4778 C 0.51727 0.26562 0.06924 0.0
C4779 C 0.53892 0.25694 0.06593 0.0
C4780 C 0.54614 0.23938 0.0796 0.0
C4781 C 0.53507 0.23601 0.10001 0.0
C4782 C 0.50776 0.28338 0.05476 0.0
C4783 C 0.56762 0.22716 0.07475 0.0
H4784 H 0.58883 0.26516 0.0078 0.0
H4785 H 0.60461 0.29383 0.07091 0.0
H4786 H 0.53133 0.2595 0.01603 0.0
H4787 H 0.55501 0.24809 1.00087 0.0
H4788 H 0.54446 0.23509 0.02579 0.0
H4789 H 0.57343 0.30552 0.09557 0.0
H4790 H 0.547 0.2915 0.09371 0.0
H4791 H 0.57132 0.27659 0.10223 0.0
H4792 H 0.49032 0.26903 0.09275 0.0
H4793 H 0.54297 0.22623 0.11266 0.0
H4794 H 0.49088 0.27847 0.0496 0.0
H4795 H 0.51812 0.28675 0.03976 0.0
H4796 H 0.50575 0.29895 0.06459 0.0
H4797 H 0.56757 0.21061 0.08278 0.0
H4798 H 0.5817 0.2369 0.08137 0.0
H4799 H 0.57042 0.2249 0.05658 0.0
C4800 C 0.96466 0.79515 0.62096 0.0
C4801 C 0.96167 0.80127 0.64331 0.0
C4802 C 0.94819 0.78358 0.60986 0.0
C4803 C 0.92852 0.77763 0.62165 0.0
C4804 C 0.92515 0.78417 0.64412 0.0
C4805 C 0.94186 0.79614 0.65474 0.0
C4806 C 0.95222 0.77716 0.58572 0.0
C4807 C 0.90425 0.77801 0.65698 0.0
C4808 C 0.88554 0.75836 0.5817 0.0
C4809 C 0.89069 0.7358 0.58063 0.0
C4810 C 0.89633 0.77222 0.59678 0.0
C4811 C 0.91259 0.76299 0.61062 0.0
C4812 C 0.91659 0.73984 0.61053 0.0
C4813 C 0.90551 0.72643 0.59537 0.0
C4814 C 0.89186 0.79688 0.59639 0.0
C4815 C 0.93398 0.72949 0.62493 0.0
H4816 H 0.9799 0.79946 0.61204 0.0
H4817 H 0.93965 0.80112 0.67202 0.0
H4818 H 0.93741 0.78076 0.57573 0.0
H4819 H 0.9666 0.78613 0.57821 0.0
H4820 H 0.95553 0.75905 0.58441 0.0
H4821 H 0.90341 0.786 0.6737 0.0
H4822 H 0.88934 0.78288 0.64766 0.0
H4823 H 0.90358 0.75973 0.65907 0.0
H4824 H 0.87391 0.76528 0.57009 0.0
H4825 H 0.90921 0.70881 0.59427 0.0
H4826 H 0.90563 0.80528 0.5872 0.0
H4827 H 0.89117 0.80392 0.6135 0.0
H4828 H 0.87605 0.80075 0.58805 0.0
H4829 H 0.95078 0.73376 0.61825 0.0
H4830 H 0.93252 0.71111 0.62538 0.0
H4831 H 0.93264 0.73609 0.64218 0.0
C4832 C 0.23968 0.00712 0.60012 0.0
C4833 C 0.23762 0.99625 0.62049 0.0
C4834 C 0.25342 0.99839 0.58315 0.0
C4835 C 0.26527 0.97862 0.58715 0.0
C4836 C 0.26524 0.96932 0.60877 0.0
C4837 C 0.25128 0.97837 0.62523 0.0
C4838 C 0.25348 0.00926 0.56067 0.0
C4839 C 0.27832 0.94863 0.61411 0.0
C4840 C 0.27808 0.92966 0.5517 0.0
C4841 C 0.301 0.9294 0.55463 0.0
C4842 C 0.2656 0.94812 0.55904 0.0
C4843 C 0.2767 0.96631 0.56905 0.0
C4844 C 0.3 0.96761 0.56797 0.0
C4845 C 0.31191 0.94869 0.56178 0.0
C4846 C 0.24058 0.94687 0.55898 0.0
C4847 C 0.31234 0.98762 0.57654 0.0
H4848 H 0.22913 0.02115 0.5967 0.0
H4849 H 0.24936 0.97011 0.64113 0.0
H4850 H 0.26903 1.0058 0.55109 0.0
H4851 H 0.23932 1.0028 0.55106 0.0
H4852 H 0.25131 0.02753 0.56239 0.0
H4853 H 0.27611 0.94364 0.63176 0.0
H4854 H 0.27299 0.93459 0.60342 0.0
H4855 H 0.2963 0.95145 0.61081 0.0
H4856 H 0.26978 0.91486 0.54575 0.0
H4857 H 0.32982 0.94883 0.56343 0.0
H4858 H 0.23333 0.96321 0.55481 0.0
H4859 H 0.23431 0.94232 0.57583 0.0
H4860 H 0.2347 0.93421 0.54691 0.0
H4861 H 0.30297 1.00314 0.57351 0.0
H4862 H 0.32912 0.98892 0.56853 0.0
H4863 H 0.31447 0.98606 0.59474 0.0
C4864 C 0.05616 0.24596 0.67199 0.0
C4865 C 0.04713 0.23682 0.65272 0.0
C4866 C 0.0705 0.2642 0.67067 0.0
C4867 C 0.07603 0.27293 0.64953 0.0
C4868 C 0.06588 0.26436 0.63017 0.0
C4869 C 0.05161 0.24622 0.63207 0.0
C4870 C 0.08049 0.27311 0.69173 0.0
C4871 C 0.07104 0.27342 0.60723 0.0
C4872 C 0.10374 0.3238 0.62936 0.0
C4873 C 0.12252 0.31374 0.61943 0.0
C4874 C 0.08946 0.3114 0.64308 0.0
C4875 C 0.09444 0.2888 0.64662 0.0
C4876 C 0.11556 0.2802 0.64026 0.0
C4877 C 0.12939 0.29283 0.62638 0.0
C4878 C 0.06754 0.32138 0.65067 0.0
C4879 C 0.12191 0.25646 0.64483 0.0
H4880 H 0.05238 0.23856 0.68802 0.0
H4881 H 0.04486 0.23863 0.61728 0.0
H4882 H 0.09581 0.26362 0.69522 0.0
H4883 H 0.08496 0.29093 0.69037 0.0
H4884 H 0.06882 0.27101 0.70615 0.0
H4885 H 0.06094 0.2654 0.59418 0.0
H4886 H 0.06784 0.29156 0.60694 0.0
H4887 H 0.08886 0.27071 0.60284 0.0
H4888 H 0.09883 0.34034 0.62443 0.0
H4889 H 0.14439 0.28544 0.61919 0.0
H4890 H 0.06195 0.31447 0.6669 0.0
H4891 H 0.05472 0.31735 0.63828 0.0
H4892 H 0.06868 0.33974 0.65216 0.0
H4893 H 0.1167 0.2517 0.66193 0.0
H4894 H 0.14012 0.25377 0.64274 0.0
H4895 H 0.11333 0.24528 0.63302 0.0
C4896 C 0.76957 0.11176 0.61272 0.0
C4897 C 0.79026 0.10453 0.61939 0.0
C4898 C 0.76803 0.12671 0.59522 0.0
C4899 C 0.78776 0.13328 0.58347 0.0
C4900 C 0.80878 0.12772 0.59175 0.0
C4901 C 0.80975 0.11362 0.61001 0.0
C4902 C 0.7451 0.13345 0.58801 0.0
C4903 C 0.83027 0.13432 0.58018 0.0
C4904 C 0.76252 0.13244 0.52974 0.0
C4905 C 0.7528 0.15341 0.53195 0.0
C4906 C 0.77953 0.1266 0.54406 0.0
C4907 C 0.78562 0.14202 0.56079 0.0
C4908 C 0.78035 0.16467 0.5584 0.0
C4909 C 0.76383 0.17026 0.54352 0.0
C4910 C 0.78706 0.10273 0.54461 0.0
C4911 C 0.78806 0.18198 0.57472 0.0
H4912 H 0.75466 0.10462 0.62017 0.0
H4913 H 0.82586 0.10779 0.61529 0.0
H4914 H 0.74453 0.15145 0.58435 0.0
H4915 H 0.74074 0.12409 0.57276 0.0
H4916 H 0.73217 0.12989 0.60099 0.0
H4917 H 0.83697 0.11982 0.57067 0.0
H4918 H 0.82822 0.14829 0.56852 0.0
H4919 H 0.84284 0.13899 0.59264 0.0
H4920 H 0.75463 0.11969 0.51981 0.0
H4921 H 0.75697 0.18694 0.54401 0.0
H4922 H 0.77627 0.0934 0.55648 0.0
H4923 H 0.80447 0.10156 0.55023 0.0
H4924 H 0.78584 0.09471 0.52797 0.0
H4925 H 0.77597 0.18296 0.58893 0.0
H4926 H 0.78886 0.1986 0.56686 0.0
H4927 H 0.80459 0.17779 0.58131 0.0
C4928 C 0.93885 0.22397 0.38923 0.0
C4929 C 0.95967 0.22683 0.39872 0.0
C4930 C 0.92109 0.23784 0.39546 0.0
C4931 C 0.92448 0.25437 0.41183 0.0
C4932 C 0.94579 0.25766 0.4209 0.0
C4933 C 0.96317 0.2437 0.41416 0.0
C4934 C 0.89863 0.23404 0.38543 0.0
C4935 C 0.94999 0.27506 0.43862 0.0
C4936 C 0.89126 0.30405 0.42815 0.0
C4937 C 0.88419 0.29738 0.44933 0.0
C4938 C 0.90204 0.28895 0.41384 0.0
C4939 C 0.9057 0.26711 0.42132 0.0
C4940 C 0.89563 0.25968 0.44141 0.0
C4941 C 0.88483 0.27512 0.45529 0.0
C4942 C 0.91212 0.2972 0.39224 0.0
C4943 C 0.89892 0.23636 0.44976 0.0
H4944 H 0.93637 0.21061 0.37733 0.0
H4945 H 0.97909 0.24514 0.42197 0.0
H4946 H 0.88791 0.22473 0.39735 0.0
H4947 H 0.89022 0.25002 0.38205 0.0
H4948 H 0.89998 0.22423 0.36972 0.0
H4949 H 0.96778 0.27592 0.44316 0.0
H4950 H 0.9448 0.29167 0.43282 0.0
H4951 H 0.93999 0.27128 0.45385 0.0
H4952 H 0.89022 0.32141 0.42361 0.0
H4953 H 0.87828 0.27011 0.47142 0.0
H4954 H 0.91149 0.28422 0.37907 0.0
H4955 H 0.92985 0.30142 0.39475 0.0
H4956 H 0.9035 0.31233 0.38644 0.0
H4957 H 0.89771 0.22405 0.43602 0.0
H4958 H 0.88653 0.2321 0.46303 0.0
H4959 H 0.91577 0.23494 0.45676 0.0
C4960 C 0.80979 0.89553 0.40999 0.0
C4961 C 0.79123 0.9038 0.39901 0.0
C4962 C 0.80717 0.88622 0.43112 0.0
C4963 C 0.7855 0.8844 0.4404 0.0
C4964 C 0.76687 0.88709 0.42657 0.0
C4965 C 0.76994 0.89767 0.40612 0.0
C4966 C 0.82755 0.88272 0.44478 0.0
C4967 C 0.7434 0.88338 0.43516 0.0
C4968 C 0.76115 0.87636 0.49687 0.0
C4969 C 0.75264 0.89793 0.49975 0.0
C4970 C 0.77543 0.87146 0.47877 0.0
C4971 C 0.7818 0.88885 0.46442 0.0
C4972 C 0.77773 0.91124 0.47103 0.0
C4973 C 0.76301 0.91552 0.48883 0.0
C4974 C 0.78019 0.8475 0.47304 0.0
C4975 C 0.78504 0.93052 0.4568 0.0
H4976 H 0.8264 0.89987 0.4041 0.0
H4977 H 0.75564 0.90366 0.39727 0.0
H4978 H 0.82425 0.87167 0.45912 0.0
H4979 H 0.84128 0.8756 0.43428 0.0
H4980 H 0.83329 0.89901 0.45125 0.0
H4981 H 0.73173 0.88109 0.42128 0.0
H4982 H 0.74245 0.86863 0.44604 0.0
H4983 H 0.73784 0.8981 0.44506 0.0
H4984 H 0.75392 0.86277 0.50618 0.0
H4985 H 0.75688 0.93228 0.49169 0.0
H4986 H 0.79589 0.84555 0.46321 0.0
H4987 H 0.76645 0.84076 0.463 0.0
H4988 H 0.7811 0.83746 0.48837 0.0
H4989 H 0.80247 0.92825 0.45082 0.0
H4990 H 0.7835 0.94653 0.466 0.0
H4991 H 0.77431 0.93158 0.44209 0.0
C4992 C 0.07497 0.78539 0.398 0.0
C4993 C 0.07291 0.80835 0.40019 0.0
C4994 C 0.09162 0.77412 0.40919 0.0
C4995 C 0.10614 0.7863 0.42296 0.0
C4996 C 0.10527 0.80977 0.42351 0.0
C4997 C 0.08853 0.82059 0.41201 0.0
C4998 C 0.09215 0.74906 0.40808 0.0
C4999 C 0.12045 0.82331 0.43796 0.0
C5000 C 0.11639 0.75545 0.47569 0.0
C5001 C 0.1378 0.74709 0.47182 0.0
C5002 C 0.10656 0.76944 0.4604 0.0
C5003 C 0.11816 0.77444 0.44035 0.0
C5004 C 0.14008 0.7666 0.43656 0.0
C5005 C 0.14978 0.75305 0.45253 0.0
C5006 C 0.08334 0.77808 0.46518 0.0
C5007 C 0.15278 0.77153 0.41525 0.0
H5008 H 0.0631 0.7762 0.38824 0.0
H5009 H 0.08683 0.83849 0.41337 0.0
H5010 H 0.10952 0.74289 0.40691 0.0
H5011 H 0.08441 0.74229 0.42352 0.0
H5012 H 0.08287 0.74251 0.39367 0.0
H5013 H 0.12101 0.84099 0.43283 0.0
H5014 H 0.11426 0.82267 0.45546 0.0
H5015 H 0.13759 0.81651 0.43742 0.0
H5016 H 0.10692 0.75019 0.4902 0.0
H5017 H 0.16635 0.74643 0.4495 0.0
H5018 H 0.07193 0.77202 0.45229 0.0
H5019 H 0.0832 0.79649 0.4647 0.0
H5020 H 0.07671 0.77282 0.48159 0.0
H5021 H 0.14559 0.76176 0.40144 0.0
H5022 H 0.17067 0.7672 0.41634 0.0
H5023 H 0.15131 0.78934 0.41094 0.0
C5024 C 0.26302 0.11389 0.42317 0.0
C5025 C 0.28414 0.12225 0.42709 0.0
C5026 C 0.26055 0.09341 0.41237 0.0
C5027 C 0.27978 0.08063 0.40665 0.0
C5028 C 0.30112 0.09009 0.40861 0.0
C5029 C 0.30299 0.1112 0.41836 0.0
C5030 C 0.2373 0.08444 0.40964 0.0
C5031 C 0.32198 0.0773 0.40233 0.0
C5032 C 0.25722 0.02633 0.42152 0.0
C5033 C 0.24722 0.02143 0.40135 0.0
C5034 C 0.27275 0.04355 0.42269 0.0
C5035 C 0.27706 0.0564 0.40342 0.0
C5036 C 0.27101 0.04807 0.3824 0.0
C5037 C 0.25632 0.03008 0.38157 0.0
C5038 C 0.28087 0.05068 0.44521 0.0
C5039 C 0.27632 0.06052 0.36132 0.0
H5040 H 0.24856 0.12253 0.43002 0.0
H5041 H 0.3194 0.11783 0.42149 0.0
H5042 H 0.23566 0.0761 0.39325 0.0
H5043 H 0.23368 0.07206 0.42279 0.0
H5044 H 0.22456 0.09777 0.4111 0.0
H5045 H 0.32124 0.06011 0.40883 0.0
H5046 H 0.32361 0.07612 0.38396 0.0
H5047 H 0.33717 0.08547 0.40864 0.0
H5048 H 0.2506 0.01909 0.43674 0.0
H5049 H 0.24904 0.02572 0.36581 0.0
H5050 H 0.29797 0.05753 0.4439 0.0
H5051 H 0.28076 0.03659 0.45702 0.0
H5052 H 0.26976 0.06386 0.45217 0.0
H5053 H 0.26396 0.07403 0.35941 0.0
H5054 H 0.27554 0.04942 0.34649 0.0
H5055 H 0.29304 0.06817 0.36189 0.0
C5056 C 0.59721 0.98654 0.79545 0.0
C5057 C 0.6203 0.98829 0.79341 0.0
C5058 C 0.58527 0.97475 0.77969 0.0
C5059 C 0.5971 0.96291 0.76287 0.0
C5060 C 0.62044 0.96521 0.76035 0.0
C5061 C 0.6318 0.97855 0.77545 0.0
C5062 C 0.56017 0.97463 0.7813 0.0
C5063 C 0.63347 0.95264 0.74255 0.0
C5064 C 0.5685 0.90993 0.74615 0.0
C5065 C 0.56244 0.91504 0.72459 0.0
C5066 C 0.58046 0.92532 0.75862 0.0
C5067 C 0.58528 0.94647 0.74946 0.0
C5068 C 0.57862 0.95174 0.72778 0.0
C5069 C 0.56753 0.93574 0.71548 0.0
C5070 C 0.58839 0.91878 0.7813 0.0
C5071 C 0.58242 0.97417 0.71738 0.0
H5072 H 0.58849 0.9941 0.80951 0.0
H5073 H 0.64976 0.97999 0.77423 0.0
H5074 H 0.55305 0.97697 0.76461 0.0
H5075 H 0.55425 0.9584 0.78767 0.0
H5076 H 0.55366 0.98792 0.79262 0.0
H5077 H 0.65162 0.95589 0.74327 0.0
H5078 H 0.63058 0.93453 0.74439 0.0
H5079 H 0.62766 0.95739 0.72588 0.0
H5080 H 0.56462 0.89369 0.75286 0.0
H5081 H 0.56257 0.93959 0.69872 0.0
H5082 H 0.57959 0.92874 0.79436 0.0
H5083 H 0.60644 0.92224 0.78262 0.0
H5084 H 0.58546 0.90091 0.78477 0.0
H5085 H 0.59559 0.98398 0.72547 0.0
H5086 H 0.56662 0.98366 0.71848 0.0
H5087 H 0.58689 0.97231 0.69943 0.0
C5088 C 0.05799 0.60232 0.81084 0.0
C5089 C 0.05774 0.62553 0.81185 0.0
C5090 C 0.07279 0.59113 0.79644 0.0
C5091 C 0.08707 0.6036 0.78232 0.0
C5092 C 0.08687 0.6271 0.78335 0.0
C5093 C 0.07238 0.63785 0.7985 0.0
C5094 C 0.07288 0.56604 0.79609 0.0
C5095 C 0.10131 0.64083 0.7679 0.0
C5096 C 0.1362 0.57418 0.75488 0.0
C5097 C 0.12698 0.56755 0.73482 0.0
C5098 C 0.1234 0.58619 0.7706 0.0
C5099 C 0.10124 0.59198 0.76561 0.0
C5100 C 0.0922 0.58581 0.74495 0.0
C5101 C 0.10518 0.57337 0.72987 0.0
C5102 C 0.13321 0.59186 0.79282 0.0
C5103 C 0.06866 0.5917 0.73897 0.0
H5104 H 0.04667 0.5929 0.82141 0.0
H5105 H 0.07193 0.65584 0.7994 0.0
H5106 H 0.06682 0.55992 0.7799 0.0
H5107 H 0.09006 0.55968 0.79785 0.0
H5108 H 0.06215 0.55893 0.80953 0.0
H5109 H 0.09952 0.65893 0.77122 0.0
H5110 H 0.11903 0.63618 0.76953 0.0
H5111 H 0.09677 0.6374 0.75042 0.0
H5112 H 0.15305 0.56924 0.75858 0.0
H5113 H 0.09828 0.56806 0.7142 0.0
H5114 H 0.12349 0.58354 0.80626 0.0
H5115 H 0.13213 0.61 0.79602 0.0
H5116 H 0.15087 0.58664 0.79381 0.0
H5117 H 0.05684 0.5811 0.74848 0.0
H5118 H 0.06566 0.58909 0.72097 0.0
H5119 H 0.06488 0.60926 0.74336 0.0
C5120 C 0.41158 0.0481 0.77052 0.0
C5121 C 0.38981 0.05301 0.77761 0.0
C5122 C 0.42267 0.06199 0.75541 0.0
C5123 C 0.41154 0.081 0.74753 0.0
C5124 C 0.38861 0.08403 0.75217 0.0
C5125 C 0.3779 0.06978 0.76714 0.0
C5126 C 0.44703 0.05788 0.75026 0.0
C5127 C 0.37612 0.10397 0.74391 0.0
C5128 C 0.44874 0.1313 0.74619 0.0
C5129 C 0.45353 0.13288 0.72352 0.0
C5130 C 0.43415 0.11499 0.7541 0.0
C5131 C 0.42476 0.09974 0.73884 0.0
C5132 C 0.4291 0.10178 0.71579 0.0
C5133 C 0.44341 0.11857 0.70834 0.0
C5134 C 0.42975 0.11336 0.77887 0.0
C5135 C 0.41962 0.0856 0.6992 0.0
H5136 H 0.42065 0.03483 0.77836 0.0
H5137 H 0.36083 0.07317 0.77231 0.0
H5138 H 0.45152 0.06265 0.73297 0.0
H5139 H 0.45717 0.06814 0.76163 0.0
H5140 H 0.45153 0.04018 0.75266 0.0
H5141 H 0.35785 0.10128 0.7447 0.0
H5142 H 0.38 0.11858 0.75451 0.0
H5143 H 0.38118 0.10802 0.72658 0.0
H5144 H 0.45714 0.14219 0.75775 0.0
H5145 H 0.4478 0.11967 0.69079 0.0
H5146 H 0.43703 0.09775 0.78514 0.0
H5147 H 0.41159 0.11285 0.78252 0.0
H5148 H 0.43699 0.12753 0.78818 0.0
H5149 H 0.42438 0.06839 0.70348 0.0
H5150 H 0.42546 0.089 0.6819 0.0
H5151 H 0.40121 0.0864 0.69987 0.0
C5152 C 0.94759 0.4175 0.81373 0.0
C5153 C 0.95321 0.39539 0.80909 0.0
C5154 C 0.93378 0.42919 0.79961 0.0
C5155 C 0.9263 0.41863 0.78007 0.0
C5156 C 0.93157 0.39605 0.77564 0.0
C5157 C 0.94475 0.38451 0.79056 0.0
C5158 C 0.92824 0.45314 0.80505 0.0
C5159 C 0.92489 0.3847 0.75434 0.0
C5160 C 0.88256 0.44627 0.74547 0.0
C5161 C 0.896 0.45889 0.73119 0.0
C5162 C 0.89217 0.43309 0.76178 0.0
C5163 C 0.91563 0.43203 0.76292 0.0
C5164 C 0.92916 0.44438 0.74799 0.0
C5165 C 0.9191 0.45806 0.73263 0.0
C5166 C 0.87734 0.42091 0.77816 0.0
C5167 C 0.95425 0.44379 0.74848 0.0
H5168 H 0.95432 0.42573 0.82821 0.0
H5169 H 0.94954 0.36744 0.78707 0.0
H5170 H 0.93879 0.4642 0.79461 0.0
H5171 H 0.91062 0.45683 0.80145 0.0
H5172 H 0.93127 0.45725 0.82277 0.0
H5173 H 0.9287 0.36664 0.75432 0.0
H5174 H 0.90687 0.38693 0.75158 0.0
H5175 H 0.93396 0.39241 0.74011 0.0
H5176 H 0.86462 0.44724 0.7443 0.0
H5177 H 0.92934 0.46791 0.72146 0.0
H5178 H 0.88077 0.42675 0.7953 0.0
H5179 H 0.88096 0.40285 0.77749 0.0
H5180 H 0.85942 0.42347 0.77493 0.0
H5181 H 0.9599 0.45544 0.76156 0.0
H5182 H 0.96188 0.44912 0.73241 0.0
H5183 H 0.96054 0.42697 0.75233 0.0
C5184 C 0.60469 0.07709 0.22681 0.0
C5185 C 0.62618 0.07227 0.23366 0.0
C5186 C 0.59157 0.09247 0.23853 0.0
C5187 C 0.60013 0.10262 0.25781 0.0
C5188 C 0.62227 0.09852 0.26416 0.0
C5189 C 0.63525 0.08343 0.2517 0.0
C5190 C 0.56807 0.09654 0.23116 0.0
C5191 C 0.63163 0.10866 0.285 0.0
C5192 C 0.56666 0.14805 0.28655 0.0
C5193 C 0.55379 0.1354 0.3013 0.0
C5194 C 0.582 0.13762 0.27204 0.0
C5195 C 0.58476 0.11432 0.27318 0.0
C5196 C 0.57207 0.10168 0.28856 0.0
C5197 C 0.55642 0.11239 0.30221 0.0
C5198 C 0.59482 0.1513 0.25521 0.0
C5199 C 0.57491 0.07684 0.29053 0.0
H5200 H 0.59804 0.06853 0.2125 0.0
H5201 H 0.65201 0.07951 0.25669 0.0
H5202 H 0.55636 0.08669 0.24162 0.0
H5203 H 0.56344 0.1143 0.23314 0.0
H5204 H 0.56582 0.09147 0.21355 0.0
H5205 H 0.64986 0.10603 0.286 0.0
H5206 H 0.62814 0.12673 0.28583 0.0
H5207 H 0.62345 0.101 0.29977 0.0
H5208 H 0.56434 0.1659 0.28606 0.0
H5209 H 0.54651 0.10278 0.31395 0.0
H5210 H 0.59064 0.14576 0.23817 0.0
H5211 H 0.61294 0.14878 0.25705 0.0
H5212 H 0.59108 0.16932 0.2569 0.0
H5213 H 0.5709 0.06871 0.27454 0.0
H5214 H 0.56405 0.06963 0.3038 0.0
H5215 H 0.59247 0.07279 0.29408 0.0
C5216 C 0.94533 0.64656 0.23306 0.0
C5217 C 0.96656 0.63833 0.23744 0.0
C5218 C 0.92638 0.63636 0.24213 0.0
C5219 C 0.92898 0.61812 0.25644 0.0
C5220 C 0.95045 0.61071 0.26209 0.0
C5221 C 0.96904 0.62069 0.25212 0.0
C5222 C 0.90368 0.64417 0.23533 0.0
C5223 C 0.95381 0.59166 0.27791 0.0
C5224 C 0.8842 0.59802 0.29565 0.0
C5225 C 0.87957 0.57727 0.28612 0.0
C5226 C 0.89931 0.6124 0.28535 0.0
C5227 C 0.9094 0.60595 0.26487 0.0
C5228 C 0.90291 0.58606 0.25408 0.0
C5229 C 0.8882 0.5717 0.26509 0.0
C5230 C 0.90631 0.63315 0.29764 0.0
C5231 C 0.91295 0.57901 0.23189 0.0
H5232 H 0.94344 0.66012 0.22151 0.0
H5233 H 0.98543 0.61413 0.2552 0.0
H5234 H 0.8958 0.6311 0.22505 0.0
H5235 H 0.89269 0.64698 0.25014 0.0
H5236 H 0.90453 0.65973 0.22556 0.0
H5237 H 0.97154 0.58953 0.28223 0.0
H5238 H 0.9439 0.59436 0.29349 0.0
H5239 H 0.94796 0.57597 0.27023 0.0
H5240 H 0.87769 0.6021 0.31215 0.0
H5241 H 0.88439 0.5557 0.25779 0.0
H5242 H 0.90762 0.6475 0.28626 0.0
H5243 H 0.923 0.63045 0.30464 0.0
H5244 H 0.89455 0.63747 0.31152 0.0
H5245 H 0.90316 0.56558 0.22397 0.0
H5246 H 0.93007 0.57272 0.23427 0.0
H5247 H 0.91406 0.5933 0.2204 0.0
C5248 C 0.39017 0.95422 0.25137 0.0
C5249 C 0.39998 0.95745 0.23043 0.0
C5250 C 0.40172 0.94288 0.2676 0.0
C5251 C 0.42374 0.93582 0.26274 0.0
C5252 C 0.43379 0.93959 0.24164 0.0
C5253 C 0.42147 0.94998 0.22547 0.0
C5254 C 0.39028 0.93805 0.28964 0.0
C5255 C 0.45771 0.93352 0.23636 0.0
C5256 C 0.4598 0.92501 0.31149 0.0
C5257 C 0.46109 0.90188 0.31056 0.0
C5258 C 0.44791 0.93646 0.29565 0.0
C5259 C 0.43622 0.92415 0.27958 0.0
C5260 C 0.43692 0.90067 0.27916 0.0
C5261 C 0.44997 0.88974 0.29447 0.0
C5262 C 0.44833 0.96156 0.29572 0.0
C5263 C 0.42408 0.88719 0.26249 0.0
H5264 H 0.37336 0.96005 0.25479 0.0
H5265 H 0.42882 0.95282 0.20911 0.0
H5266 H 0.39059 0.91991 0.2928 0.0
H5267 H 0.39925 0.94628 0.30334 0.0
H5268 H 0.37272 0.9438 0.29023 0.0
H5269 H 0.46854 0.94533 0.24522 0.0
H5270 H 0.46174 0.91659 0.24214 0.0
H5271 H 0.4618 0.93455 0.21829 0.0
H5272 H 0.46864 0.9341 0.32416 0.0
H5273 H 0.45112 0.87175 0.2942 0.0
H5274 H 0.43143 0.96822 0.29929 0.0
H5275 H 0.45361 0.96765 0.27907 0.0
H5276 H 0.45979 0.96842 0.30828 0.0
H5277 H 0.40639 0.89245 0.26277 0.0
H5278 H 0.42487 0.86909 0.26581 0.0
H5279 H 0.43089 0.89017 0.24548 0.0
C5280 C 0.08333 0.42645 0.20569 0.0
C5281 C 0.07377 0.40964 0.21876 0.0
C5282 C 0.09428 0.44441 0.2153 0.0
C5283 C 0.09668 0.44504 0.23861 0.0
C5284 C 0.08865 0.42714 0.25177 0.0
C5285 C 0.07683 0.40978 0.24169 0.0
C5286 C 0.10249 0.46276 0.20018 0.0
C5287 C 0.09184 0.42642 0.27657 0.0
C5288 C 0.13468 0.4891 0.26243 0.0
C5289 C 0.11893 0.50344 0.27231 0.0
C5290 C 0.12778 0.47006 0.25086 0.0
C5291 C 0.10474 0.46565 0.24933 0.0
C5292 C 0.0891 0.48113 0.25814 0.0
C5293 C 0.09641 0.50004 0.26914 0.0
C5294 C 0.14495 0.45375 0.2421 0.0
C5295 C 0.06458 0.4769 0.25817 0.0
H5296 H 0.08133 0.42623 0.18781 0.0
H5297 H 0.07003 0.39641 0.25169 0.0
H5298 H 0.11883 0.45785 0.19274 0.0
H5299 H 0.09096 0.46519 0.18623 0.0
H5300 H 0.10451 0.47892 0.20887 0.0
H5301 H 0.09369 0.40901 0.28222 0.0
H5302 H 0.10663 0.43603 0.28171 0.0
H5303 H 0.07691 0.43342 0.28523 0.0
H5304 H 0.15218 0.49155 0.26569 0.0
H5305 H 0.0844 0.5109 0.27753 0.0
H5306 H 0.14354 0.45186 0.22384 0.0
H5307 H 0.14191 0.43718 0.24954 0.0
H5308 H 0.16217 0.45905 0.24579 0.0
H5309 H 0.05978 0.46834 0.24269 0.0
H5310 H 0.05503 0.4926 0.26019 0.0
H5311 H 0.06008 0.46617 0.27246 0.0
C5312 C 0.80733 0.61868 0.92213 0.0
C5313 C 0.78722 0.62644 0.93163 0.0
C5314 C 0.80785 0.59964 0.90866 0.0
C5315 C 0.78765 0.58884 0.90403 0.0
C5316 C 0.76708 0.59842 0.91134 0.0
C5317 C 0.76719 0.61684 0.92564 0.0
C5318 C 0.83019 0.59011 0.90169 0.0
C5319 C 0.74495 0.58812 0.90578 0.0
C5320 C 0.7704 0.54595 0.86453 0.0
C5321 C 0.76077 0.53175 0.88036 0.0
C5322 C 0.78355 0.56371 0.87143 0.0
C5323 C 0.78744 0.56623 0.89436 0.0
C5324 C 0.78308 0.54831 0.90893 0.0
C5325 C 0.76923 0.53112 0.90178 0.0
C5326 C 0.7891 0.58182 0.85508 0.0
C5327 C 0.78917 0.54951 0.93309 0.0
H5328 H 0.82294 0.62602 0.9271 0.0
H5329 H 0.75177 0.62289 0.9332 0.0
H5330 H 0.82919 0.57834 0.88747 0.0
H5331 H 0.84198 0.60364 0.89721 0.0
H5332 H 0.83721 0.58113 0.91596 0.0
H5333 H 0.73082 0.59945 0.90984 0.0
H5334 H 0.74443 0.58374 0.88785 0.0
H5335 H 0.74251 0.57266 0.91544 0.0
H5336 H 0.76458 0.54557 0.84758 0.0
H5337 H 0.7625 0.51945 0.9138 0.0
H5338 H 0.80459 0.59062 0.8595 0.0
H5339 H 0.77535 0.59414 0.85528 0.0
H5340 H 0.79097 0.57501 0.83791 0.0
H5341 H 0.80535 0.55805 0.93509 0.0
H5342 H 0.79012 0.53266 0.9404 0.0
H5343 H 0.77625 0.55909 0.94253 0.0
C5344 C 0.77243 0.41815 0.08414 0.0
C5345 C 0.79444 0.4133 0.07857 0.0
C5346 C 0.76736 0.43683 0.09733 0.0
C5347 C 0.78486 0.4509 0.10448 0.0
C5348 C 0.80714 0.44599 0.09868 0.0
C5349 C 0.81166 0.42704 0.08595 0.0
C5350 C 0.74331 0.44159 0.10344 0.0
C5351 C 0.82614 0.46098 0.10505 0.0
C5352 C 0.75644 0.50318 0.12072 0.0
C5353 C 0.74995 0.49717 0.14233 0.0
C5354 C 0.77132 0.48973 0.10855 0.0
C5355 C 0.77942 0.4703 0.11858 0.0
C5356 C 0.77668 0.46719 0.14173 0.0
C5357 C 0.76191 0.48099 0.15355 0.0
C5358 C 0.7754 0.49431 0.0842 0.0
C5359 C 0.78616 0.44722 0.15318 0.0
H5360 H 0.7593 0.40752 0.07807 0.0
H5361 H 0.82876 0.42318 0.08124 0.0
H5362 H 0.74111 0.44273 0.12179 0.0
H5363 H 0.7383 0.4578 0.09647 0.0
H5364 H 0.73192 0.42859 0.09712 0.0
H5365 H 0.84222 0.45188 0.1048 0.0
H5366 H 0.82754 0.47465 0.09284 0.0
H5367 H 0.82343 0.46857 0.12176 0.0
H5368 H 0.7478 0.5164 0.11236 0.0
H5369 H 0.75747 0.47709 0.17065 0.0
H5370 H 0.76404 0.48394 0.07419 0.0
H5371 H 0.79272 0.48999 0.0791 0.0
H5372 H 0.77227 0.51202 0.08028 0.0
H5373 H 0.77585 0.43244 0.14938 0.0
H5374 H 0.78623 0.44957 0.17152 0.0
H5375 H 0.80337 0.44375 0.14711 0.0
C5376 C 0.60928 0.82195 0.1433 0.0
C5377 C 0.62993 0.81535 0.13441 0.0
C5378 C 0.59725 0.80724 0.15677 0.0
C5379 C 0.60672 0.78625 0.16104 0.0
C5380 C 0.62981 0.78307 0.15787 0.0
C5381 C 0.64127 0.79756 0.14372 0.0
C5382 C 0.573 0.81194 0.16168 0.0
C5383 C 0.64092 0.76189 0.1648 0.0
C5384 C 0.56663 0.73932 0.17238 0.0
C5385 C 0.56345 0.73147 0.1507 0.0
C5386 C 0.58128 0.75681 0.17636 0.0
C5387 C 0.59241 0.7667 0.15806 0.0
C5388 C 0.58923 0.7584 0.13605 0.0
C5389 C 0.57497 0.74054 0.13279 0.0
C5390 C 0.58488 0.76418 0.20007 0.0
C5391 C 0.60023 0.76857 0.1157 0.0
H5392 H 0.60101 0.83645 0.1368 0.0
H5393 H 0.65785 0.79325 0.13764 0.0
H5394 H 0.56292 0.80484 0.1481 0.0
H5395 H 0.56742 0.80422 0.17751 0.0
H5396 H 0.56974 0.8301 0.16261 0.0
H5397 H 0.65897 0.76455 0.16728 0.0
H5398 H 0.63314 0.75544 0.18036 0.0
H5399 H 0.63905 0.74914 0.15152 0.0
H5400 H 0.55758 0.7318 0.18619 0.0
H5401 H 0.57205 0.73424 0.11615 0.0
H5402 H 0.58976 0.78189 0.20139 0.0
H5403 H 0.59845 0.75406 0.20702 0.0
H5404 H 0.5697 0.76143 0.21057 0.0
H5405 H 0.59603 0.78645 0.11476 0.0
H5406 H 0.59492 0.76053 0.09999 0.0
H5407 H 0.61853 0.76686 0.1165 0.0
C5408 C 0.26571 0.65643 0.03081 0.0
C5409 C 0.25801 0.63471 0.02731 0.0
C5410 C 0.28 0.6609 0.04834 0.0
C5411 C 0.28745 0.64295 0.06109 0.0
C5412 C 0.28526 0.62099 0.05258 0.0
C5413 C 0.26973 0.617 0.03609 0.0
C5414 C 0.28384 0.68459 0.05554 0.0
C5415 C 0.29534 0.60124 0.06387 0.0
C5416 C 0.30955 0.63159 0.11597 0.0
C5417 C 0.29026 0.62123 0.12444 0.0
C5418 C 0.30874 0.64359 0.09618 0.0
C5419 C 0.28818 0.64537 0.08557 0.0
C5420 C 0.26825 0.64044 0.09772 0.0
C5421 C 0.26957 0.62749 0.11678 0.0
C5422 C 0.3301 0.65076 0.08481 0.0
C5423 C 0.24557 0.64456 0.08843 0.0
H5424 H 0.25772 0.67016 0.02276 0.0
H5425 H 0.26452 0.60011 0.03254 0.0
H5426 H 0.27718 0.68745 0.07268 0.0
H5427 H 0.30196 0.68796 0.05566 0.0
H5428 H 0.27582 0.69659 0.04432 0.0
H5429 H 0.29739 0.58713 0.052 0.0
H5430 H 0.31179 0.6053 0.07074 0.0
H5431 H 0.28412 0.59582 0.07767 0.0
H5432 H 0.32565 0.62728 0.12248 0.0
H5433 H 0.25465 0.62001 0.12388 0.0
H5434 H 0.34379 0.65238 0.09682 0.0
H5435 H 0.32779 0.66685 0.07635 0.0
H5436 H 0.33513 0.63826 0.07199 0.0
H5437 H 0.24527 0.65985 0.07832 0.0
H5438 H 0.23278 0.6461 0.10199 0.0
H5439 H 0.24096 0.6302 0.07786 0.0
C5440 C 0.41344 0.2227 0.09769 0.0
C5441 C 0.39504 0.22725 0.08474 0.0
C5442 C 0.42329 0.23953 0.11011 0.0
C5443 C 0.41409 0.26117 0.10981 0.0
C5444 C 0.39466 0.2655 0.09779 0.0
C5445 C 0.38544 0.24841 0.0851 0.0
C5446 C 0.44439 0.23447 0.12229 0.0
C5447 C 0.38438 0.28836 0.09729 0.0
C5448 C 0.44007 0.29897 0.15212 0.0
C5449 C 0.45781 0.30735 0.13938 0.0
C5450 C 0.42446 0.28491 0.14235 0.0
C5451 C 0.42682 0.27958 0.11945 0.0
C5452 C 0.4437 0.28956 0.10624 0.0
C5453 C 0.45917 0.30321 0.11646 0.0
C5454 C 0.40638 0.27468 0.15671 0.0
C5455 C 0.44642 0.28458 0.08165 0.0
H5456 H 0.42078 0.20624 0.09725 0.0
H5457 H 0.37102 0.25169 0.07513 0.0
H5458 H 0.4586 0.24314 0.11408 0.0
H5459 H 0.44312 0.24063 0.1397 0.0
H5460 H 0.44815 0.21641 0.12246 0.0
H5461 H 0.36713 0.28788 0.09108 0.0
H5462 H 0.38415 0.29615 0.11408 0.0
H5463 H 0.39446 0.29914 0.08612 0.0
H5464 H 0.43905 0.30251 0.16982 0.0
H5465 H 0.47271 0.31018 0.10657 0.0
H5466 H 0.41032 0.25692 0.15948 0.0
H5467 H 0.39017 0.27535 0.14829 0.0
H5468 H 0.40468 0.28313 0.17316 0.0
H5469 H 0.4516 0.26702 0.07923 0.0
H5470 H 0.45905 0.29542 0.07347 0.0
H5471 H 0.43042 0.28673 0.07315 0.0
C5472 C 0.26363 0.39398 0.99903 0.0
C5473 C 0.25243 0.37389 0.99643 0.0
C5474 C 0.28271 0.39803 0.98599 0.0
C5475 C 0.28964 0.38168 0.9702 0.0
C5476 C 0.28203 0.35967 0.97242 0.0
C5477 C 0.26305 0.35596 0.98565 0.0
C5478 C 0.29224 0.42117 0.98568 0.0
C5479 C 0.29065 0.34132 0.95738 0.0
C5480 C 0.28337 0.41045 0.9159 0.0
C5481 C 0.3051 0.4175 0.91206 0.0
C5482 C 0.27843 0.39629 0.93358 0.0
C5483 C 0.29579 0.38955 0.94777 0.0
C5484 C 0.31811 0.39434 0.94206 0.0
C5485 C 0.32254 0.40827 0.92406 0.0
C5486 C 0.2543 0.39055 0.93821 0.0
C5487 C 0.33725 0.38674 0.95588 0.0
H5488 H 0.25584 0.40749 0.00837 0.0
H5489 H 0.25485 0.33993 0.98486 0.0
H5490 H 0.31047 0.42069 0.98258 0.0
H5491 H 0.28464 0.43072 0.97209 0.0
H5492 H 0.2887 0.43007 1.00163 0.0
H5493 H 0.28835 0.32487 0.96531 0.0
H5494 H 0.28123 0.34129 0.94173 0.0
H5495 H 0.30851 0.34373 0.95307 0.0
H5496 H 0.27007 0.41726 0.90617 0.0
H5497 H 0.33958 0.41329 0.92057 0.0
H5498 H 0.24821 0.39956 0.95333 0.0
H5499 H 0.25238 0.3725 0.94108 0.0
H5500 H 0.24349 0.39518 0.92425 0.0
H5501 H 0.343 0.40084 0.96626 0.0
H5502 H 0.35149 0.3816 0.94491 0.0
H5503 H 0.33273 0.37275 0.96696 0.0
C5504 C 0.62888 0.25194 0.97004 0.0
C5505 C 0.61977 0.23084 0.97328 0.0
C5506 C 0.61812 0.26744 0.95675 0.0
C5507 C 0.59746 0.26174 0.94744 0.0
C5508 C 0.58805 0.24053 0.95122 0.0
C5509 C 0.5997 0.22512 0.96358 0.0
C5510 C 0.62891 0.28974 0.95295 0.0
C5511 C 0.56555 0.23419 0.94249 0.0
C5512 C 0.55484 0.30384 0.93123 0.0
C5513 C 0.55579 0.3018 0.90801 0.0
C5514 C 0.56965 0.29219 0.94432 0.0
C5515 C 0.58519 0.27769 0.93387 0.0
C5516 C 0.58695 0.27644 0.91037 0.0
C5517 C 0.57221 0.28872 0.89762 0.0
C5518 C 0.5686 0.29531 0.96925 0.0
C5519 C 0.60405 0.26178 0.8988 0.0
H5520 H 0.64466 0.25611 0.97738 0.0
H5521 H 0.59299 0.20859 0.96588 0.0
H5522 H 0.62476 0.29674 0.93655 0.0
H5523 H 0.62303 0.30152 0.96609 0.0
H5524 H 0.64729 0.28857 0.954 0.0
H5525 H 0.56047 0.21715 0.9474 0.0
H5526 H 0.55283 0.24603 0.949 0.0
H5527 H 0.56568 0.2352 0.92408 0.0
H5528 H 0.54267 0.31473 0.93919 0.0
H5529 H 0.57316 0.28771 0.87962 0.0
H5530 H 0.5545 0.30605 0.97488 0.0
H5531 H 0.58422 0.30305 0.97488 0.0
H5532 H 0.56711 0.27901 0.9775 0.0
H5533 H 0.62071 0.2648 0.9058 0.0
H5534 H 0.60495 0.26462 0.88058 0.0
H5535 H 0.59985 0.24408 0.9017 0.0
C5536 C 0.43653 0.81 0.96416 0.0
C5537 C 0.41447 0.80436 0.96916 0.0
C5538 C 0.45058 0.795 0.95293 0.0
C5539 C 0.44176 0.77458 0.94553 0.0
C5540 C 0.41935 0.76889 0.95047 0.0
C5541 C 0.40602 0.78379 0.96274 0.0
C5542 C 0.47472 0.801 0.94893 0.0
C5543 C 0.40928 0.74748 0.94216 0.0
C5544 C 0.46888 0.7475 0.89508 0.0
C5545 C 0.47809 0.72875 0.90467 0.0
C5546 C 0.45698 0.7628 0.90831 0.0
C5547 C 0.45555 0.75957 0.93162 0.0
C5548 C 0.46612 0.74124 0.94138 0.0
C5549 C 0.47668 0.72561 0.92762 0.0
C5550 C 0.44508 0.78172 0.89731 0.0
C5551 C 0.46628 0.73807 0.96624 0.0
H5552 H 0.44278 0.82613 0.96913 0.0
H5553 H 0.38879 0.77975 0.96658 0.0
H5554 H 0.48549 0.78851 0.95683 0.0
H5555 H 0.47891 0.80071 0.93088 0.0
H5556 H 0.4788 0.8177 0.95568 0.0
H5557 H 0.39138 0.746 0.94689 0.0
H5558 H 0.41101 0.74649 0.92376 0.0
H5559 H 0.41825 0.73307 0.94899 0.0
H5560 H 0.47003 0.74956 0.87719 0.0
H5561 H 0.48385 0.71091 0.93482 0.0
H5562 H 0.45082 0.79786 0.90405 0.0
H5563 H 0.42695 0.78055 0.90098 0.0
H5564 H 0.44779 0.78167 0.87897 0.0
H5565 H 0.47468 0.75244 0.97399 0.0
H5566 H 0.47515 0.72269 0.97102 0.0
H5567 H 0.44905 0.7374 0.97315 0.0
loop_
_geom_bond_atom_site_label_1
_geom_bond_atom_site_label_2
_geom_bond_distance
_geom_bond_site_symmetry_2
_ccdc_geom_bond_type
Tb0 O3 2.453 . S
Tb0 O4 2.596 . S
Tb0 O5 2.374 . S
Tb0 O13 2.343 . S
Tb0 O15 2.353 . S
Tb0 O17 2.427 . S
Tb0 O18 2.513 . S
C1 O5 1.251 . S
C1 O7 1.263 1_455 S
Tb2 O4 2.343 1_655 S
Tb2 O7 2.353 . S
Tb2 O10 2.427 . S
Tb2 O11 2.513 . S
Tb2 O12 2.453 . S
Tb2 O13 2.596 1_655 S
Tb2 O14 2.374 . S
O3 Tb0 2.453 . S
O3 C19 1.245 . S
O4 Tb0 2.596 . S
O4 Tb2 2.343 1_455 S
O4 C19 1.259 . S
O5 Tb0 2.374 . S
O5 C1 1.251 . S
C6 O10 1.275 . S
C6 O11 1.246 . S
O7 C1 1.263 1_655 S
O7 Tb2 2.353 . S
C8 O12 1.245 . S
C8 O13 1.259 1_655 S
C9 O14 1.250 1_455 S
C9 O15 1.263 . S
O10 Tb2 2.427 . S
O10 C6 1.275 . S
O11 Tb2 2.513 . S
O11 C6 1.246 . S
O12 Tb2 2.453 . S
O12 C8 1.245 . S
O13 Tb0 2.343 . S
O13 Tb2 2.596 1_455 S
O13 C8 1.259 1_455 S
O14 Tb2 2.374 . S
O14 C9 1.250 1_655 S
O15 Tb0 2.353 . S
O15 C9 1.263 . S
C16 O17 1.275 . S
C16 O18 1.246 . S
O17 Tb0 2.427 . S
O17 C16 1.275 . S
O18 Tb0 2.513 . S
O18 C16 1.246 . S
C19 O3 1.245 . S
C19 O4 1.259 . S
Tb20 O23 2.453 . S
Tb20 O24 2.596 . S
Tb20 O25 2.374 . S
Tb20 O33 2.343 1_545 S
Tb20 O35 2.353 . S
Tb20 O37 2.427 . S
Tb20 O38 2.513 . S
C21 O25 1.251 . S
C21 O27 1.263 1_545 S
Tb22 O24 2.343 1_565 S
Tb22 O27 2.353 . S
Tb22 O30 2.427 . S
Tb22 O31 2.513 . S
Tb22 O32 2.453 . S
Tb22 O33 2.596 . S
Tb22 O34 2.374 . S
O23 Tb20 2.453 . S
O23 C39 1.245 . S
O24 Tb20 2.596 . S
O24 Tb22 2.343 1_545 S
O24 C39 1.259 . S
O25 Tb20 2.374 . S
O25 C21 1.251 . S
C26 O30 1.275 . S
C26 O31 1.246 . S
O27 C21 1.263 1_565 S
O27 Tb22 2.353 . S
C28 O32 1.245 . S
C28 O33 1.259 . S
C29 O34 1.250 . S
C29 O35 1.263 1_565 S
O30 Tb22 2.427 . S
O30 C26 1.275 . S
O31 Tb22 2.513 . S
O31 C26 1.246 . S
O32 Tb22 2.453 . S
O32 C28 1.245 . S
O33 Tb20 2.343 1_565 S
O33 Tb22 2.596 . S
O33 C28 1.259 . S
O34 Tb22 2.374 . S
O34 C29 1.250 . S
O35 Tb20 2.353 . S
O35 C29 1.263 1_545 S
C36 O37 1.275 . S
C36 O38 1.246 . S
O37 Tb20 2.427 . S
O37 C36 1.275 . S
O38 Tb20 2.513 . S
O38 C36 1.246 . S
C39 O23 1.245 . S
C39 O24 1.259 . S
Tb40 O43 2.453 . S
Tb40 O44 2.594 1_655 S
Tb40 O45 2.374 . S
Tb40 O53 2.343 1_655 S
Tb40 O55 2.353 . S
Tb40 O57 2.427 . S
Tb40 O58 2.513 . S
C41 O45 1.251 1_455 S
C41 O47 1.263 . S
Tb42 O44 2.347 . S
Tb42 O47 2.353 . S
Tb42 O50 2.427 . S
Tb42 O51 2.513 . S
Tb42 O52 2.453 . S
Tb42 O53 2.596 . S
Tb42 O54 2.374 . S
O43 Tb40 2.453 . S
O43 C59 1.245 . S
O44 Tb40 2.594 1_455 S
O44 Tb42 2.347 . S
O44 C59 1.256 1_455 S
O45 Tb40 2.374 . S
O45 C41 1.251 1_655 S
C46 O50 1.275 . S
C46 O51 1.246 . S
O47 C41 1.263 . S
O47 Tb42 2.353 . S
C48 O52 1.245 . S
C48 O53 1.259 . S
C49 O54 1.250 . S
C49 O55 1.263 1_455 S
O50 Tb42 2.427 . S
O50 C46 1.275 . S
O51 Tb42 2.513 . S
O51 C46 1.246 . S
O52 Tb42 2.453 . S
O52 C48 1.245 . S
O53 Tb40 2.343 1_455 S
O53 Tb42 2.596 . S
O53 C48 1.259 . S
O54 Tb42 2.374 . S
O54 C49 1.250 . S
O55 Tb40 2.353 . S
O55 C49 1.263 1_655 S
C56 O57 1.275 . S
C56 O58 1.246 . S
O57 Tb40 2.427 . S
O57 C56 1.275 . S
O58 Tb40 2.513 . S
O58 C56 1.246 . S
C59 O43 1.245 . S
C59 O44 1.256 1_655 S
Tb60 O63 2.453 . S
Tb60 O64 2.596 1_565 S
Tb60 O65 2.374 . S
Tb60 O73 2.343 1_565 S
Tb60 O75 2.353 . S
Tb60 O77 2.427 . S
Tb60 O78 2.513 . S
C61 O65 1.251 1_545 S
C61 O67 1.263 . S
Tb62 O64 2.343 . S
Tb62 O67 2.353 . S
Tb62 O70 2.427 . S
Tb62 O71 2.513 . S
Tb62 O72 2.453 . S
Tb62 O73 2.596 . S
Tb62 O74 2.374 . S
O63 Tb60 2.453 . S
O63 C79 1.245 . S
O64 Tb60 2.596 1_545 S
O64 Tb62 2.343 . S
O64 C79 1.259 1_545 S
O65 Tb60 2.374 . S
O65 C61 1.251 1_565 S
C66 O70 1.275 . S
C66 O71 1.246 . S
O67 C61 1.263 . S
O67 Tb62 2.353 . S
C68 O72 1.245 . S
C68 O73 1.259 . S
C69 O74 1.250 . S
C69 O75 1.263 1_545 S
O70 Tb62 2.427 . S
O70 C66 1.275 . S
O71 Tb62 2.513 . S
O71 C66 1.246 . S
O72 Tb62 2.453 . S
O72 C68 1.245 . S
O73 Tb60 2.343 1_545 S
O73 Tb62 2.596 . S
O73 C68 1.259 . S
O74 Tb62 2.374 . S
O74 C69 1.250 . S
O75 Tb60 2.353 . S
O75 C69 1.263 1_565 S
C76 O77 1.275 . S
C76 O78 1.246 . S
O77 Tb60 2.427 . S
O77 C76 1.275 . S
O78 Tb60 2.513 . S
O78 C76 1.246 . S
C79 O63 1.245 . S
C79 O64 1.259 1_565 S
Tb80 O83 2.453 . S
Tb80 O84 2.596 . S
Tb80 O85 2.374 . S
Tb80 O93 2.343 . S
Tb80 O95 2.353 . S
Tb80 O97 2.427 . S
Tb80 O98 2.513 . S
C81 O85 1.251 . S
C81 O87 1.263 1_455 S
Tb82 O84 2.343 1_655 S
Tb82 O87 2.353 . S
Tb82 O90 2.427 . S
Tb82 O91 2.513 . S
Tb82 O92 2.453 . S
Tb82 O93 2.596 1_655 S
Tb82 O94 2.374 . S
O83 Tb80 2.453 . S
O83 C99 1.245 . S
O84 Tb80 2.596 . S
O84 Tb82 2.343 1_455 S
O84 C99 1.259 . S
O85 Tb80 2.374 . S
O85 C81 1.251 . S
C86 O90 1.275 . S
C86 O91 1.246 . S
O87 C81 1.263 1_655 S
O87 Tb82 2.353 . S
C88 O92 1.245 . S
C88 O93 1.259 1_655 S
C89 O94 1.250 1_455 S
C89 O95 1.263 . S
O90 Tb82 2.427 . S
O90 C86 1.275 . S
O91 Tb82 2.513 . S
O91 C86 1.246 . S
O92 Tb82 2.453 . S
O92 C88 1.245 . S
O93 Tb80 2.343 . S
O93 Tb82 2.596 1_455 S
O93 C88 1.259 1_455 S
O94 Tb82 2.374 . S
O94 C89 1.250 1_655 S
O95 Tb80 2.353 . S
O95 C89 1.263 . S
C96 O97 1.275 . S
C96 O98 1.246 . S
O97 Tb80 2.427 . S
O97 C96 1.275 . S
O98 Tb80 2.513 . S
O98 C96 1.246 . S
C99 O83 1.245 . S
C99 O84 1.259 . S
Tb100 O103 2.453 . S
Tb100 O104 2.596 . S
Tb100 O105 2.374 . S
Tb100 O113 2.347 . S
Tb100 O115 2.353 . S
Tb100 O117 2.427 . S
Tb100 O118 2.513 . S
C101 O105 1.251 . S
C101 O107 1.263 1_545 S
Tb102 O104 2.343 1_565 S
Tb102 O107 2.353 . S
Tb102 O110 2.427 . S
Tb102 O111 2.513 . S
Tb102 O112 2.453 . S
Tb102 O113 2.593 1_565 S
Tb102 O114 2.374 . S
O103 Tb100 2.453 . S
O103 C119 1.245 . S
O104 Tb100 2.596 . S
O104 Tb102 2.343 1_545 S
O104 C119 1.259 . S
O105 Tb100 2.374 . S
O105 C101 1.251 . S
C106 O110 1.275 . S
C106 O111 1.246 . S
O107 C101 1.263 1_565 S
O107 Tb102 2.353 . S
C108 O112 1.245 . S
C108 O113 1.256 1_565 S
C109 O114 1.250 1_545 S
C109 O115 1.263 . S
O110 Tb102 2.427 . S
O110 C106 1.275 . S
O111 Tb102 2.513 . S
O111 C106 1.246 . S
O112 Tb102 2.453 . S
O112 C108 1.245 . S
O113 Tb100 2.347 . S
O113 Tb102 2.593 1_545 S
O113 C108 1.256 1_545 S
O114 Tb102 2.374 . S
O114 C109 1.250 1_565 S
O115 Tb100 2.353 . S
O115 C109 1.263 . S
C116 O117 1.275 . S
C116 O118 1.246 . S
O117 Tb100 2.427 . S
O117 C116 1.275 . S
O118 Tb100 2.513 . S
O118 C116 1.246 . S
C119 O103 1.245 . S
C119 O104 1.259 . S
Tb120 O123 2.453 . S
Tb120 O124 2.596 . S
Tb120 O125 2.374 . S
Tb120 O133 2.343 1_655 S
Tb120 O135 2.353 . S
Tb120 O137 2.427 . S
Tb120 O138 2.513 . S
C121 O125 1.221 1_455 S
C121 O127 1.299 . S
Tb122 O124 2.343 1_455 S
Tb122 O127 2.353 . S
Tb122 O130 2.427 . S
Tb122 O131 2.513 . S
Tb122 O132 2.453 . S
Tb122 O133 2.596 . S
Tb122 O134 2.374 . S
O123 Tb120 2.453 . S
O123 C139 1.245 . S
O124 Tb120 2.596 . S
O124 Tb122 2.343 1_655 S
O124 C139 1.259 . S
O125 Tb120 2.374 . S
O125 C121 1.221 1_655 S
C126 O130 1.275 . S
C126 O131 1.246 . S
O127 C121 1.299 . S
O127 Tb122 2.353 . S
C128 O132 1.245 . S
C128 O133 1.259 . S
C129 O134 1.250 . S
C129 O135 1.263 1_455 S
O130 Tb122 2.427 . S
O130 C126 1.275 . S
O131 Tb122 2.513 . S
O131 C126 1.246 . S
O132 Tb122 2.453 . S
O132 C128 1.245 . S
O133 Tb120 2.343 1_455 S
O133 Tb122 2.596 . S
O133 C128 1.259 . S
O134 Tb122 2.374 . S
O134 C129 1.250 . S
O135 Tb120 2.353 . S
O135 C129 1.263 1_655 S
C136 O137 1.275 . S
C136 O138 1.246 . S
O137 Tb120 2.427 . S
O137 C136 1.275 . S
O138 Tb120 2.513 . S
O138 C136 1.246 . S
C139 O123 1.245 . S
C139 O124 1.259 . S
Tb140 O143 2.453 . S
Tb140 O144 2.596 1_565 S
Tb140 O145 2.374 1_565 S
Tb140 O153 2.343 1_565 S
Tb140 O155 2.353 1_565 S
Tb140 O157 2.427 . S
Tb140 O158 2.513 . S
C141 O145 1.251 . S
C141 O147 1.263 . S
Tb142 O144 2.343 . S
Tb142 O147 2.353 . S
Tb142 O150 2.427 . S
Tb142 O151 2.513 . S
Tb142 O152 2.453 . S
Tb142 O153 2.596 . S
Tb142 O154 2.374 . S
O143 Tb140 2.453 . S
O143 C159 1.245 . S
O144 Tb140 2.596 1_545 S
O144 Tb142 2.343 . S
O144 C159 1.259 1_545 S
O145 Tb140 2.374 1_545 S
O145 C141 1.251 . S
C146 O150 1.275 . S
C146 O151 1.246 . S
O147 C141 1.263 . S
O147 Tb142 2.353 . S
C148 O152 1.245 . S
C148 O153 1.259 . S
C149 O154 1.250 . S
C149 O155 1.263 . S
O150 Tb142 2.427 . S
O150 C146 1.275 . S
O151 Tb142 2.513 . S
O151 C146 1.246 . S
O152 Tb142 2.453 . S
O152 C148 1.245 . S
O153 Tb140 2.343 1_545 S
O153 Tb142 2.596 . S
O153 C148 1.259 . S
O154 Tb142 2.374 . S
O154 C149 1.250 . S
O155 Tb140 2.353 1_545 S
O155 C149 1.263 . S
C156 O157 1.275 . S
C156 O158 1.246 . S
O157 Tb140 2.427 . S
O157 C156 1.275 . S
O158 Tb140 2.513 . S
O158 C156 1.246 . S
C159 O143 1.245 . S
C159 O144 1.259 1_565 S
Tb160 O163 2.453 . S
Tb160 O164 2.596 . S
Tb160 O165 2.374 . S
Tb160 O173 2.343 1_545 S
Tb160 O175 2.353 . S
Tb160 O177 2.427 . S
Tb160 O178 2.513 . S
C161 O165 1.251 . S
C161 O167 1.263 1_545 S
Tb162 O164 2.343 1_565 S
Tb162 O167 2.353 . S
Tb162 O170 2.427 . S
Tb162 O171 2.513 . S
Tb162 O172 2.453 . S
Tb162 O173 2.596 . S
Tb162 O174 2.374 . S
O163 Tb160 2.453 . S
O163 C179 1.245 . S
O164 Tb160 2.596 . S
O164 Tb162 2.343 1_545 S
O164 C179 1.259 . S
O165 Tb160 2.374 . S
O165 C161 1.251 . S
C166 O170 1.275 . S
C166 O171 1.246 . S
O167 C161 1.263 1_565 S
O167 Tb162 2.353 . S
C168 O172 1.245 . S
C168 O173 1.259 . S
C169 O174 1.250 . S
C169 O175 1.263 1_565 S
O170 Tb162 2.427 . S
O170 C166 1.275 . S
O171 Tb162 2.513 . S
O171 C166 1.246 . S
O172 Tb162 2.453 . S
O172 C168 1.245 . S
O173 Tb160 2.343 1_565 S
O173 Tb162 2.596 . S
O173 C168 1.259 . S
O174 Tb162 2.374 . S
O174 C169 1.250 . S
O175 Tb160 2.353 . S
O175 C169 1.263 1_545 S
C176 O177 1.275 . S
C176 O178 1.246 . S
O177 Tb160 2.427 . S
O177 C176 1.275 . S
O178 Tb160 2.513 . S
O178 C176 1.246 . S
C179 O163 1.245 . S
C179 O164 1.259 . S
Tb180 O183 2.453 . S
Tb180 O184 2.596 1_655 S
Tb180 O185 2.374 . S
Tb180 O193 2.343 1_655 S
Tb180 O195 2.353 . S
Tb180 O197 2.427 . S
Tb180 O198 2.513 . S
C181 O185 1.251 1_455 S
C181 O187 1.263 . S
Tb182 O184 2.343 . S
Tb182 O187 2.353 . S
Tb182 O190 2.427 . S
Tb182 O191 2.513 . S
Tb182 O192 2.453 . S
Tb182 O193 2.596 . S
Tb182 O194 2.374 . S
O183 Tb180 2.453 . S
O183 C199 1.245 . S
O184 Tb180 2.596 1_455 S
O184 Tb182 2.343 . S
O184 C199 1.259 1_455 S
O185 Tb180 2.374 . S
O185 C181 1.251 1_655 S
C186 O190 1.275 . S
C186 O191 1.246 . S
O187 C181 1.263 . S
O187 Tb182 2.353 . S
C188 O192 1.245 . S
C188 O193 1.259 . S
C189 O194 1.250 . S
C189 O195 1.263 1_455 S
O190 Tb182 2.427 . S
O190 C186 1.275 . S
O191 Tb182 2.513 . S
O191 C186 1.246 . S
O192 Tb182 2.453 . S
O192 C188 1.245 . S
O193 Tb180 2.343 1_455 S
O193 Tb182 2.596 . S
O193 C188 1.259 . S
O194 Tb182 2.374 . S
O194 C189 1.250 . S
O195 Tb180 2.353 . S
O195 C189 1.263 1_655 S
C196 O197 1.275 . S
C196 O198 1.246 . S
O197 Tb180 2.427 . S
O197 C196 1.275 . S
O198 Tb180 2.513 . S
O198 C196 1.246 . S
C199 O183 1.245 . S
C199 O184 1.259 1_655 S
Tb200 O203 2.453 . S
Tb200 O204 2.596 . S
Tb200 O205 2.374 . S
Tb200 O213 2.343 1_565 S
Tb200 O215 2.353 . S
Tb200 O217 2.427 . S
Tb200 O218 2.513 . S
C201 O205 1.251 1_545 S
C201 O207 1.263 . S
Tb202 O204 2.343 1_545 S
Tb202 O207 2.353 . S
Tb202 O210 2.427 . S
Tb202 O211 2.513 . S
Tb202 O212 2.453 . S
Tb202 O213 2.596 . S
Tb202 O214 2.374 . S
O203 Tb200 2.453 . S
O203 C219 1.245 . S
O204 Tb200 2.596 . S
O204 Tb202 2.343 1_565 S
O204 C219 1.259 . S
O205 Tb200 2.374 . S
O205 C201 1.251 1_565 S
C206 O210 1.275 . S
C206 O211 1.246 . S
O207 C201 1.263 . S
O207 Tb202 2.353 . S
C208 O212 1.245 . S
C208 O213 1.259 . S
C209 O214 1.250 . S
C209 O215 1.263 1_545 S
O210 Tb202 2.427 . S
O210 C206 1.275 . S
O211 Tb202 2.513 . S
O211 C206 1.246 . S
O212 Tb202 2.453 . S
O212 C208 1.245 . S
O213 Tb200 2.343 1_545 S
O213 Tb202 2.596 . S
O213 C208 1.259 . S
O214 Tb202 2.374 . S
O214 C209 1.250 . S
O215 Tb200 2.353 . S
O215 C209 1.263 1_565 S
C216 O217 1.275 . S
C216 O218 1.246 . S
O217 Tb200 2.427 . S
O217 C216 1.275 . S
O218 Tb200 2.513 . S
O218 C216 1.246 . S
C219 O203 1.245 . S
C219 O204 1.259 . S
Tb220 O223 2.453 . S
Tb220 O224 2.596 . S
Tb220 O225 2.374 . S
Tb220 O233 2.343 . S
Tb220 O235 2.353 . S
Tb220 O237 2.427 . S
Tb220 O238 2.513 . S
C221 O225 1.251 . S
C221 O227 1.263 1_455 S
Tb222 O224 2.343 1_655 S
Tb222 O227 2.353 . S
Tb222 O230 2.427 . S
Tb222 O231 2.513 . S
Tb222 O232 2.453 . S
Tb222 O233 2.596 1_655 S
Tb222 O234 2.374 . S
O223 Tb220 2.453 . S
O223 C239 1.245 . S
O224 Tb220 2.596 . S
O224 Tb222 2.343 1_455 S
O224 C239 1.259 . S
O225 Tb220 2.374 . S
O225 C221 1.251 . S
C226 O230 1.275 . S
C226 O231 1.246 . S
O227 C221 1.263 1_655 S
O227 Tb222 2.353 . S
C228 O232 1.245 . S
C228 O233 1.259 1_655 S
C229 O234 1.250 1_455 S
C229 O235 1.263 . S
O230 Tb222 2.427 . S
O230 C226 1.275 . S
O231 Tb222 2.513 . S
O231 C226 1.246 . S
O232 Tb222 2.453 . S
O232 C228 1.245 . S
O233 Tb220 2.343 . S
O233 Tb222 2.596 1_455 S
O233 C228 1.259 1_455 S
O234 Tb222 2.374 . S
O234 C229 1.250 1_655 S
O235 Tb220 2.353 . S
O235 C229 1.263 . S
C236 O237 1.275 . S
C236 O238 1.246 . S
O237 Tb220 2.427 . S
O237 C236 1.275 . S
O238 Tb220 2.513 . S
O238 C236 1.246 . S
C239 O223 1.245 . S
C239 O224 1.259 . S
Tb240 O243 2.453 . S
Tb240 O244 2.596 1_565 S
Tb240 O245 2.374 1_565 S
Tb240 O253 2.343 1_565 S
Tb240 O255 2.353 1_565 S
Tb240 O257 2.427 . S
Tb240 O258 2.513 . S
C241 O245 1.251 . S
C241 O247 1.263 . S
Tb242 O244 2.343 . S
Tb242 O247 2.353 . S
Tb242 O250 2.427 . S
Tb242 O251 2.513 . S
Tb242 O252 2.453 . S
Tb242 O253 2.596 . S
Tb242 O254 2.374 . S
O243 Tb240 2.453 . S
O243 C259 1.245 . S
O244 Tb240 2.596 1_545 S
O244 Tb242 2.343 . S
O244 C259 1.259 1_545 S
O245 Tb240 2.374 1_545 S
O245 C241 1.251 . S
C246 O250 1.275 . S
C246 O251 1.246 . S
O247 C241 1.263 . S
O247 Tb242 2.353 . S
C248 O252 1.245 . S
C248 O253 1.259 . S
C249 O254 1.250 . S
C249 O255 1.263 . S
O250 Tb242 2.427 . S
O250 C246 1.275 . S
O251 Tb242 2.513 . S
O251 C246 1.246 . S
O252 Tb242 2.453 . S
O252 C248 1.245 . S
O253 Tb240 2.343 1_545 S
O253 Tb242 2.596 . S
O253 C248 1.259 . S
O254 Tb242 2.374 . S
O254 C249 1.250 . S
O255 Tb240 2.353 1_545 S
O255 C249 1.263 . S
C256 O257 1.275 . S
C256 O258 1.246 . S
O257 Tb240 2.427 . S
O257 C256 1.275 . S
O258 Tb240 2.513 . S
O258 C256 1.246 . S
C259 O243 1.245 . S
C259 O244 1.259 1_565 S
Tb260 O263 2.453 . S
Tb260 O264 2.596 . S
Tb260 O265 2.374 . S
Tb260 O273 2.343 1_455 S
Tb260 O275 2.353 . S
Tb260 O277 2.427 . S
Tb260 O278 2.513 . S
C261 O265 1.251 . S
C261 O267 1.263 1_455 S
Tb262 O264 2.343 1_655 S
Tb262 O267 2.353 . S
Tb262 O270 2.427 . S
Tb262 O271 2.513 . S
Tb262 O272 2.453 . S
Tb262 O273 2.596 . S
Tb262 O274 2.374 . S
O263 Tb260 2.453 . S
O263 C279 1.245 . S
O264 Tb260 2.596 . S
O264 Tb262 2.343 1_455 S
O264 C279 1.259 . S
O265 Tb260 2.374 . S
O265 C261 1.251 . S
C266 O270 1.275 . S
C266 O271 1.246 . S
O267 C261 1.263 1_655 S
O267 Tb262 2.353 . S
C268 O272 1.245 . S
C268 O273 1.259 . S
C269 O274 1.250 . S
C269 O275 1.263 1_655 S
O270 Tb262 2.427 . S
O270 C266 1.275 . S
O271 Tb262 2.513 . S
O271 C266 1.246 . S
O272 Tb262 2.453 . S
O272 C268 1.245 . S
O273 Tb260 2.343 1_655 S
O273 Tb262 2.596 . S
O273 C268 1.259 . S
O274 Tb262 2.374 . S
O274 C269 1.250 . S
O275 Tb260 2.353 . S
O275 C269 1.263 1_455 S
C276 O277 1.275 . S
C276 O278 1.246 . S
O277 Tb260 2.427 . S
O277 C276 1.275 . S
O278 Tb260 2.513 . S
O278 C276 1.246 . S
C279 O263 1.245 . S
C279 O264 1.259 . S
Tb280 O283 2.453 . S
Tb280 O284 2.596 . S
Tb280 O285 2.374 . S
Tb280 O293 2.343 . S
Tb280 O295 2.353 . S
Tb280 O297 2.427 . S
Tb280 O298 2.513 . S
C281 O285 1.251 . S
C281 O287 1.263 . S
Tb282 O284 2.343 1_565 S
Tb282 O287 2.353 1_565 S
Tb282 O290 2.427 . S
Tb282 O291 2.513 . S
Tb282 O292 2.453 . S
Tb282 O293 2.596 1_565 S
Tb282 O294 2.374 1_565 S
O283 Tb280 2.453 . S
O283 C299 1.245 . S
O284 Tb280 2.596 . S
O284 Tb282 2.343 1_545 S
O284 C299 1.259 . S
O285 Tb280 2.374 . S
O285 C281 1.251 . S
C286 O290 1.275 . S
C286 O291 1.246 . S
O287 C281 1.263 . S
O287 Tb282 2.353 1_545 S
C288 O292 1.245 . S
C288 O293 1.259 1_565 S
C289 O294 1.250 . S
C289 O295 1.263 . S
O290 Tb282 2.427 . S
O290 C286 1.275 . S
O291 Tb282 2.513 . S
O291 C286 1.246 . S
O292 Tb282 2.453 . S
O292 C288 1.245 . S
O293 Tb280 2.343 . S
O293 Tb282 2.596 1_545 S
O293 C288 1.259 1_545 S
O294 Tb282 2.374 1_545 S
O294 C289 1.250 . S
O295 Tb280 2.353 . S
O295 C289 1.263 . S
C296 O297 1.275 . S
C296 O298 1.246 . S
O297 Tb280 2.427 . S
O297 C296 1.275 . S
O298 Tb280 2.513 . S
O298 C296 1.246 . S
C299 O283 1.245 . S
C299 O284 1.259 . S
Tb300 O303 2.453 . S
Tb300 O304 2.596 . S
Tb300 O305 2.374 . S
Tb300 O313 2.343 1_655 S
Tb300 O315 2.353 . S
Tb300 O317 2.427 . S
Tb300 O318 2.513 . S
C301 O305 1.251 1_455 S
C301 O307 1.263 . S
Tb302 O304 2.343 1_455 S
Tb302 O307 2.353 . S
Tb302 O310 2.427 . S
Tb302 O311 2.513 . S
Tb302 O312 2.453 . S
Tb302 O313 2.596 . S
Tb302 O314 2.374 . S
O303 Tb300 2.453 . S
O303 C319 1.245 . S
O304 Tb300 2.596 . S
O304 Tb302 2.343 1_655 S
O304 C319 1.259 . S
O305 Tb300 2.374 . S
O305 C301 1.251 1_655 S
C306 O310 1.275 . S
C306 O311 1.246 . S
O307 C301 1.263 . S
O307 Tb302 2.353 . S
C308 O312 1.245 . S
C308 O313 1.259 . S
C309 O314 1.250 . S
C309 O315 1.263 1_455 S
O310 Tb302 2.427 . S
O310 C306 1.275 . S
O311 Tb302 2.513 . S
O311 C306 1.246 . S
O312 Tb302 2.453 . S
O312 C308 1.245 . S
O313 Tb300 2.343 1_455 S
O313 Tb302 2.596 . S
O313 C308 1.259 . S
O314 Tb302 2.374 . S
O314 C309 1.250 . S
O315 Tb300 2.353 . S
O315 C309 1.263 1_655 S
C316 O317 1.275 . S
C316 O318 1.246 . S
O317 Tb300 2.427 . S
O317 C316 1.275 . S
O318 Tb300 2.513 . S
O318 C316 1.246 . S
C319 O303 1.245 . S
C319 O304 1.259 . S
Tb320 O323 2.453 . S
Tb320 O324 2.596 . S
Tb320 O325 2.374 . S
Tb320 O333 2.343 . S
Tb320 O335 2.353 . S
Tb320 O337 2.427 . S
Tb320 O338 2.513 . S
C321 O325 1.251 . S
C321 O327 1.263 1_554 S
Tb322 O324 2.343 1_556 S
Tb322 O327 2.353 . S
Tb322 O330 2.427 . S
Tb322 O331 2.513 . S
Tb322 O332 2.453 . S
Tb322 O333 2.596 1_556 S
Tb322 O334 2.374 . S
O323 Tb320 2.453 . S
O323 C339 1.245 . S
O324 Tb320 2.596 . S
O324 Tb322 2.343 1_554 S
O324 C339 1.259 . S
O325 Tb320 2.374 . S
O325 C321 1.251 . S
C326 O330 1.275 . S
C326 O331 1.246 . S
O327 C321 1.263 1_556 S
O327 Tb322 2.353 . S
C328 O332 1.245 . S
C328 O333 1.259 1_556 S
C329 O334 1.250 1_554 S
C329 O335 1.263 . S
O330 Tb322 2.427 . S
O330 C326 1.275 . S
O331 Tb322 2.513 . S
O331 C326 1.246 . S
O332 Tb322 2.453 . S
O332 C328 1.245 . S
O333 Tb320 2.343 . S
O333 Tb322 2.596 1_554 S
O333 C328 1.259 1_554 S
O334 Tb322 2.374 . S
O334 C329 1.250 1_556 S
O335 Tb320 2.353 . S
O335 C329 1.263 . S
C336 O337 1.275 . S
C336 O338 1.246 . S
O337 Tb320 2.427 . S
O337 C336 1.275 . S
O338 Tb320 2.513 . S
O338 C336 1.246 . S
C339 O323 1.245 . S
C339 O324 1.259 . S
Tb340 O343 2.453 . S
Tb340 O344 2.596 1_556 S
Tb340 O345 2.374 . S
Tb340 O353 2.343 1_556 S
Tb340 O355 2.353 . S
Tb340 O357 2.427 . S
Tb340 O358 2.513 . S
C341 O345 1.251 1_554 S
C341 O347 1.263 . S
Tb342 O344 2.343 . S
Tb342 O347 2.353 . S
Tb342 O350 2.427 . S
Tb342 O351 2.513 . S
Tb342 O352 2.453 . S
Tb342 O353 2.596 . S
Tb342 O354 2.374 . S
O343 Tb340 2.453 . S
O343 C359 1.245 . S
O344 Tb340 2.596 1_554 S
O344 Tb342 2.343 . S
O344 C359 1.259 1_554 S
O345 Tb340 2.374 . S
O345 C341 1.251 1_556 S
C346 O350 1.275 . S
C346 O351 1.246 . S
O347 C341 1.263 . S
O347 Tb342 2.353 . S
C348 O352 1.245 . S
C348 O353 1.259 . S
C349 O354 1.250 . S
C349 O355 1.263 1_554 S
O350 Tb342 2.427 . S
O350 C346 1.275 . S
O351 Tb342 2.513 . S
O351 C346 1.246 . S
O352 Tb342 2.453 . S
O352 C348 1.245 . S
O353 Tb340 2.343 1_554 S
O353 Tb342 2.596 . S
O353 C348 1.259 . S
O354 Tb342 2.374 . S
O354 C349 1.250 . S
O355 Tb340 2.353 . S
O355 C349 1.263 1_556 S
C356 O357 1.275 . S
C356 O358 1.246 . S
O357 Tb340 2.427 . S
O357 C356 1.275 . S
O358 Tb340 2.513 . S
O358 C356 1.246 . S
C359 O343 1.245 . S
C359 O344 1.259 1_556 S
Tb360 O363 2.453 . S
Tb360 O364 2.596 1_556 S
Tb360 O365 2.369 1_556 S
Tb360 O373 2.343 1_556 S
Tb360 O375 2.357 . S
Tb360 O377 2.427 . S
Tb360 O378 2.513 . S
C361 O365 1.261 . S
C361 O367 1.263 . S
Tb362 O364 2.343 . S
Tb362 O367 2.353 . S
Tb362 O370 2.427 . S
Tb362 O371 2.513 . S
Tb362 O372 2.453 . S
Tb362 O373 2.596 . S
Tb362 O374 2.374 . S
O363 Tb360 2.453 . S
O363 C379 1.245 . S
O364 Tb360 2.596 1_554 S
O364 Tb362 2.343 . S
O364 C379 1.259 1_554 S
O365 Tb360 2.369 1_554 S
O365 C361 1.261 . S
C366 O370 1.275 . S
C366 O371 1.246 . S
O367 C361 1.263 . S
O367 Tb362 2.353 . S
C368 O372 1.245 . S
C368 O373 1.259 . S
C369 O374 1.250 . S
C369 O375 1.254 1_554 S
O370 Tb362 2.427 . S
O370 C366 1.275 . S
O371 Tb362 2.513 . S
O371 C366 1.246 . S
O372 Tb362 2.453 . S
O372 C368 1.245 . S
O373 Tb360 2.343 1_554 S
O373 Tb362 2.596 . S
O373 C368 1.259 . S
O374 Tb362 2.374 . S
O374 C369 1.250 . S
O375 Tb360 2.357 . S
O375 C369 1.254 1_556 S
C376 O377 1.275 . S
C376 O378 1.246 . S
O377 Tb360 2.427 . S
O377 C376 1.275 . S
O378 Tb360 2.513 . S
O378 C376 1.246 . S
C379 O363 1.245 . S
C379 O364 1.259 1_556 S
Tb380 O383 2.453 . S
Tb380 O384 2.596 1_556 S
Tb380 O385 2.366 1_556 S
Tb380 O393 2.343 1_556 S
Tb380 O395 2.353 1_556 S
Tb380 O397 2.427 . S
Tb380 O398 2.513 . S
C381 O385 1.270 . S
C381 O387 1.263 . S
Tb382 O384 2.343 . S
Tb382 O387 2.353 . S
Tb382 O390 2.427 . S
Tb382 O391 2.513 . S
Tb382 O392 2.453 . S
Tb382 O393 2.596 . S
Tb382 O394 2.374 . S
O383 Tb380 2.453 . S
O383 C399 1.245 . S
O384 Tb380 2.596 1_554 S
O384 Tb382 2.343 . S
O384 C399 1.259 1_554 S
O385 Tb380 2.366 1_554 S
O385 C381 1.270 . S
C386 O390 1.275 . S
C386 O391 1.246 . S
O387 C381 1.263 . S
O387 Tb382 2.353 . S
C388 O392 1.245 . S
C388 O393 1.259 . S
C389 O394 1.250 . S
C389 O395 1.263 . S
O390 Tb382 2.427 . S
O390 C386 1.275 . S
O391 Tb382 2.513 . S
O391 C386 1.246 . S
O392 Tb382 2.453 . S
O392 C388 1.245 . S
O393 Tb380 2.343 1_554 S
O393 Tb382 2.596 . S
O393 C388 1.259 . S
O394 Tb382 2.374 . S
O394 C389 1.250 . S
O395 Tb380 2.353 1_554 S
O395 C389 1.263 . S
C396 O397 1.275 . S
C396 O398 1.246 . S
O397 Tb380 2.427 . S
O397 C396 1.275 . S
O398 Tb380 2.513 . S
O398 C396 1.246 . S
C399 O383 1.245 . S
C399 O384 1.259 1_556 S
Tb400 O403 2.453 . S
Tb400 O404 2.596 1_556 S
Tb400 O405 2.374 1_556 S
Tb400 O413 2.343 1_556 S
Tb400 O415 2.353 1_556 S
Tb400 O417 2.427 . S
Tb400 O418 2.513 . S
C401 O405 1.251 . S
C401 O407 1.263 . S
Tb402 O404 2.343 . S
Tb402 O407 2.353 . S
Tb402 O410 2.427 . S
Tb402 O411 2.513 . S
Tb402 O412 2.453 . S
Tb402 O413 2.596 . S
Tb402 O414 2.374 . S
O403 Tb400 2.453 . S
O403 C419 1.245 . S
O404 Tb400 2.596 1_554 S
O404 Tb402 2.343 . S
O404 C419 1.259 1_554 S
O405 Tb400 2.374 1_554 S
O405 C401 1.251 . S
C406 O410 1.275 . S
C406 O411 1.246 . S
O407 C401 1.263 . S
O407 Tb402 2.353 . S
C408 O412 1.245 . S
C408 O413 1.259 . S
C409 O414 1.250 . S
C409 O415 1.263 . S
O410 Tb402 2.427 . S
O410 C406 1.275 . S
O411 Tb402 2.513 . S
O411 C406 1.246 . S
O412 Tb402 2.453 . S
O412 C408 1.245 . S
O413 Tb400 2.343 1_554 S
O413 Tb402 2.596 . S
O413 C408 1.259 . S
O414 Tb402 2.374 . S
O414 C409 1.250 . S
O415 Tb400 2.353 1_554 S
O415 C409 1.263 . S
C416 O417 1.275 . S
C416 O418 1.246 . S
O417 Tb400 2.427 . S
O417 C416 1.275 . S
O418 Tb400 2.513 . S
O418 C416 1.246 . S
C419 O403 1.245 . S
C419 O404 1.259 1_556 S
Tb420 O423 2.453 . S
Tb420 O424 2.596 . S
Tb420 O425 2.374 . S
Tb420 O433 2.343 1_554 S
Tb420 O435 2.353 . S
Tb420 O437 2.427 . S
Tb420 O438 2.513 . S
C421 O425 1.251 . S
C421 O427 1.263 1_554 S
Tb422 O424 2.343 1_556 S
Tb422 O427 2.353 . S
Tb422 O430 2.427 . S
Tb422 O431 2.513 . S
Tb422 O432 2.453 . S
Tb422 O433 2.596 . S
Tb422 O434 2.374 . S
O423 Tb420 2.453 . S
O423 C439 1.245 . S
O424 Tb420 2.596 . S
O424 Tb422 2.343 1_554 S
O424 C439 1.259 . S
O425 Tb420 2.374 . S
O425 C421 1.251 . S
C426 O430 1.275 . S
C426 O431 1.246 . S
O427 C421 1.263 1_556 S
O427 Tb422 2.353 . S
C428 O432 1.245 . S
C428 O433 1.259 . S
C429 O434 1.250 1_554 S
C429 O435 1.263 . S
O430 Tb422 2.427 . S
O430 C426 1.275 . S
O431 Tb422 2.513 . S
O431 C426 1.246 . S
O432 Tb422 2.453 . S
O432 C428 1.245 . S
O433 Tb420 2.343 1_556 S
O433 Tb422 2.596 . S
O433 C428 1.259 . S
O434 Tb422 2.374 . S
O434 C429 1.250 1_556 S
O435 Tb420 2.353 . S
O435 C429 1.263 . S
C436 O437 1.275 . S
C436 O438 1.246 . S
O437 Tb420 2.427 . S
O437 C436 1.275 . S
O438 Tb420 2.513 . S
O438 C436 1.246 . S
C439 O423 1.245 . S
C439 O424 1.259 . S
Tb440 O443 2.453 . S
Tb440 O444 2.596 . S
Tb440 O445 2.374 . S
Tb440 O453 2.385 . S
Tb440 O455 2.353 . S
Tb440 O457 2.427 . S
Tb440 O458 2.513 . S
C441 O445 1.251 . S
C441 O447 1.263 1_554 S
Tb442 O444 2.343 1_556 S
Tb442 O447 2.353 . S
Tb442 O450 2.427 . S
Tb442 O451 2.513 . S
Tb442 O452 2.453 . S
Tb442 O453 2.572 1_556 S
Tb442 O454 2.374 . S
O443 Tb440 2.453 . S
O443 C459 1.245 . S
O444 Tb440 2.596 . S
O444 Tb442 2.343 1_554 S
O444 C459 1.259 . S
O445 Tb440 2.374 . S
O445 C441 1.251 . S
C446 O450 1.275 . S
C446 O451 1.246 . S
O447 C441 1.263 1_556 S
O447 Tb442 2.353 . S
C448 O452 1.245 . S
C448 O453 1.222 1_556 S
C449 O454 1.250 1_554 S
C449 O455 1.263 . S
O450 Tb442 2.427 . S
O450 C446 1.275 . S
O451 Tb442 2.513 . S
O451 C446 1.246 . S
O452 Tb442 2.453 . S
O452 C448 1.245 . S
O453 Tb440 2.385 . S
O453 Tb442 2.572 1_554 S
O453 C448 1.222 1_554 S
O454 Tb442 2.374 . S
O454 C449 1.250 1_556 S
O455 Tb440 2.353 . S
O455 C449 1.263 . S
C456 O457 1.275 . S
C456 O458 1.246 . S
O457 Tb440 2.427 . S
O457 C456 1.275 . S
O458 Tb440 2.513 . S
O458 C456 1.246 . S
C459 O443 1.245 . S
C459 O444 1.259 . S
Tb460 O463 2.453 . S
Tb460 O464 2.596 . S
Tb460 O465 2.374 . S
Tb460 O473 2.343 1_554 S
Tb460 O475 2.353 . S
Tb460 O477 2.427 . S
Tb460 O478 2.513 . S
C461 O465 1.251 . S
C461 O467 1.263 1_554 S
Tb462 O464 2.343 1_556 S
Tb462 O467 2.353 . S
Tb462 O470 2.427 . S
Tb462 O471 2.513 . S
Tb462 O472 2.453 . S
Tb462 O473 2.596 . S
Tb462 O474 2.374 . S
O463 Tb460 2.453 . S
O463 C479 1.245 . S
O464 Tb460 2.596 . S
O464 Tb462 2.343 1_554 S
O464 C479 1.259 . S
O465 Tb460 2.374 . S
O465 C461 1.251 . S
C466 O470 1.275 . S
C466 O471 1.246 . S
O467 C461 1.263 1_556 S
O467 Tb462 2.353 . S
C468 O472 1.245 . S
C468 O473 1.259 . S
C469 O474 1.250 1_554 S
C469 O475 1.263 . S
O470 Tb462 2.427 . S
O470 C466 1.275 . S
O471 Tb462 2.513 . S
O471 C466 1.246 . S
O472 Tb462 2.453 . S
O472 C468 1.245 . S
O473 Tb460 2.343 1_556 S
O473 Tb462 2.596 . S
O473 C468 1.259 . S
O474 Tb462 2.374 . S
O474 C469 1.250 1_556 S
O475 Tb460 2.353 . S
O475 C469 1.263 . S
C476 O477 1.275 . S
C476 O478 1.246 . S
O477 Tb460 2.427 . S
O477 C476 1.275 . S
O478 Tb460 2.513 . S
O478 C476 1.246 . S
C479 O463 1.245 . S
C479 O464 1.259 . S
Tb480 O483 2.453 . S
Tb480 O484 2.596 . S
Tb480 O485 2.374 . S
Tb480 O493 2.343 . S
Tb480 O495 2.353 . S
Tb480 O497 2.427 . S
Tb480 O498 2.513 . S
C481 O485 1.251 . S
C481 O487 1.263 . S
Tb482 O484 2.343 . S
Tb482 O487 2.353 . S
Tb482 O490 2.427 . S
Tb482 O491 2.513 . S
Tb482 O492 2.453 . S
Tb482 O493 2.596 . S
Tb482 O494 2.374 . S
O483 Tb480 2.453 . S
O483 C499 1.245 . S
O484 Tb480 2.596 . S
O484 Tb482 2.343 . S
O484 C499 1.259 . S
O485 Tb480 2.374 . S
O485 C481 1.251 . S
C486 O490 1.275 . S
C486 O491 1.246 . S
O487 C481 1.263 . S
O487 Tb482 2.353 . S
C488 O492 1.245 . S
C488 O493 1.259 . S
C489 O494 1.250 . S
C489 O495 1.263 . S
O490 Tb482 2.427 . S
O490 C486 1.275 . S
O491 Tb482 2.513 . S
O491 C486 1.246 . S
O492 Tb482 2.453 . S
O492 C488 1.245 . S
O493 Tb480 2.343 . S
O493 Tb482 2.596 . S
O493 C488 1.259 . S
O494 Tb482 2.374 . S
O494 C489 1.250 . S
O495 Tb480 2.353 . S
O495 C489 1.263 . S
C496 O497 1.275 . S
C496 O498 1.246 . S
O497 Tb480 2.427 . S
O497 C496 1.275 . S
O498 Tb480 2.513 . S
O498 C496 1.246 . S
C499 O483 1.245 . S
C499 O484 1.259 . S
Tb500 O503 2.453 . S
Tb500 O504 2.596 . S
Tb500 O505 2.374 . S
Tb500 O513 2.343 . S
Tb500 O515 2.353 . S
Tb500 O517 2.427 . S
Tb500 O518 2.513 . S
C501 O505 1.251 . S
C501 O507 1.263 . S
Tb502 O504 2.343 . S
Tb502 O507 2.353 . S
Tb502 O510 2.427 . S
Tb502 O511 2.513 . S
Tb502 O512 2.453 . S
Tb502 O513 2.596 . S
Tb502 O514 2.374 . S
O503 Tb500 2.453 . S
O503 C519 1.245 . S
O504 Tb500 2.596 . S
O504 Tb502 2.343 . S
O504 C519 1.259 . S
O505 Tb500 2.374 . S
O505 C501 1.251 . S
C506 O510 1.275 . S
C506 O511 1.246 . S
O507 C501 1.263 . S
O507 Tb502 2.353 . S
C508 O512 1.245 . S
C508 O513 1.259 . S
C509 O514 1.250 . S
C509 O515 1.263 . S
O510 Tb502 2.427 . S
O510 C506 1.275 . S
O511 Tb502 2.513 . S
O511 C506 1.246 . S
O512 Tb502 2.453 . S
O512 C508 1.245 . S
O513 Tb500 2.343 . S
O513 Tb502 2.596 . S
O513 C508 1.259 . S
O514 Tb502 2.374 . S
O514 C509 1.250 . S
O515 Tb500 2.353 . S
O515 C509 1.263 . S
C516 O517 1.275 . S
C516 O518 1.246 . S
O517 Tb500 2.427 . S
O517 C516 1.275 . S
O518 Tb500 2.513 . S
O518 C516 1.246 . S
C519 O503 1.245 . S
C519 O504 1.259 . S
Tb520 O523 2.453 . S
Tb520 O524 2.596 . S
Tb520 O525 2.374 . S
Tb520 O533 2.343 . S
Tb520 O535 2.353 . S
Tb520 O537 2.427 . S
Tb520 O538 2.513 . S
C521 O525 1.251 . S
C521 O527 1.263 . S
Tb522 O524 2.343 . S
Tb522 O527 2.353 . S
Tb522 O530 2.427 . S
Tb522 O531 2.513 . S
Tb522 O532 2.453 . S
Tb522 O533 2.596 . S
Tb522 O534 2.374 . S
O523 Tb520 2.453 . S
O523 C539 1.245 . S
O524 Tb520 2.596 . S
O524 Tb522 2.343 . S
O524 C539 1.259 . S
O525 Tb520 2.374 . S
O525 C521 1.251 . S
C526 O530 1.275 . S
C526 O531 1.246 . S
O527 C521 1.263 . S
O527 Tb522 2.353 . S
C528 O532 1.245 . S
C528 O533 1.259 . S
C529 O534 1.250 . S
C529 O535 1.263 . S
O530 Tb522 2.427 . S
O530 C526 1.275 . S
O531 Tb522 2.513 . S
O531 C526 1.246 . S
O532 Tb522 2.453 . S
O532 C528 1.245 . S
O533 Tb520 2.343 . S
O533 Tb522 2.596 . S
O533 C528 1.259 . S
O534 Tb522 2.374 . S
O534 C529 1.250 . S
O535 Tb520 2.353 . S
O535 C529 1.263 . S
C536 O537 1.275 . S
C536 O538 1.246 . S
O537 Tb520 2.427 . S
O537 C536 1.275 . S
O538 Tb520 2.513 . S
O538 C536 1.246 . S
C539 O523 1.245 . S
C539 O524 1.259 . S
Tb540 O543 2.453 . S
Tb540 O544 2.596 . S
Tb540 O545 2.374 . S
Tb540 O553 2.343 . S
Tb540 O555 2.353 . S
Tb540 O557 2.427 . S
Tb540 O558 2.513 . S
C541 O545 1.251 . S
C541 O547 1.263 . S
Tb542 O544 2.343 . S
Tb542 O547 2.353 . S
Tb542 O550 2.427 . S
Tb542 O551 2.513 . S
Tb542 O552 2.453 . S
Tb542 O553 2.596 . S
Tb542 O554 2.374 . S
O543 Tb540 2.453 . S
O543 C559 1.245 . S
O544 Tb540 2.596 . S
O544 Tb542 2.343 . S
O544 C559 1.259 . S
O545 Tb540 2.374 . S
O545 C541 1.251 . S
C546 O550 1.275 . S
C546 O551 1.246 . S
O547 C541 1.263 . S
O547 Tb542 2.353 . S
C548 O552 1.245 . S
C548 O553 1.259 . S
C549 O554 1.250 . S
C549 O555 1.263 . S
O550 Tb542 2.427 . S
O550 C546 1.275 . S
O551 Tb542 2.513 . S
O551 C546 1.246 . S
O552 Tb542 2.453 . S
O552 C548 1.245 . S
O553 Tb540 2.343 . S
O553 Tb542 2.596 . S
O553 C548 1.259 . S
O554 Tb542 2.374 . S
O554 C549 1.250 . S
O555 Tb540 2.353 . S
O555 C549 1.263 . S
C556 O557 1.275 . S
C556 O558 1.246 . S
O557 Tb540 2.427 . S
O557 C556 1.275 . S
O558 Tb540 2.513 . S
O558 C556 1.246 . S
C559 O543 1.245 . S
C559 O544 1.259 . S
Tb560 O563 2.453 . S
Tb560 O564 2.596 . S
Tb560 O565 2.374 . S
Tb560 O573 2.343 . S
Tb560 O575 2.353 . S
Tb560 O577 2.427 . S
Tb560 O578 2.513 . S
C561 O565 1.251 . S
C561 O567 1.263 . S
Tb562 O564 2.343 . S
Tb562 O567 2.353 . S
Tb562 O570 2.427 . S
Tb562 O571 2.513 . S
Tb562 O572 2.453 . S
Tb562 O573 2.596 . S
Tb562 O574 2.374 . S
O563 Tb560 2.453 . S
O563 C579 1.245 . S
O564 Tb560 2.596 . S
O564 Tb562 2.343 . S
O564 C579 1.259 . S
O565 Tb560 2.374 . S
O565 C561 1.251 . S
C566 O570 1.275 . S
C566 O571 1.246 . S
O567 C561 1.263 . S
O567 Tb562 2.353 . S
C568 O572 1.245 . S
C568 O573 1.259 . S
C569 O574 1.250 . S
C569 O575 1.263 . S
O570 Tb562 2.427 . S
O570 C566 1.275 . S
O571 Tb562 2.513 . S
O571 C566 1.246 . S
O572 Tb562 2.453 . S
O572 C568 1.245 . S
O573 Tb560 2.343 . S
O573 Tb562 2.596 . S
O573 C568 1.259 . S
O574 Tb562 2.374 . S
O574 C569 1.250 . S
O575 Tb560 2.353 . S
O575 C569 1.263 . S
C576 O577 1.275 . S
C576 O578 1.246 . S
O577 Tb560 2.427 . S
O577 C576 1.275 . S
O578 Tb560 2.513 . S
O578 C576 1.246 . S
C579 O563 1.245 . S
C579 O564 1.259 . S
Tb580 O583 2.453 . S
Tb580 O584 2.596 . S
Tb580 O585 2.374 . S
Tb580 O593 2.343 . S
Tb580 O595 2.353 . S
Tb580 O597 2.427 . S
Tb580 O598 2.513 . S
C581 O585 1.251 . S
C581 O587 1.263 . S
Tb582 O584 2.343 . S
Tb582 O587 2.353 . S
Tb582 O590 2.427 . S
Tb582 O591 2.513 . S
Tb582 O592 2.453 . S
Tb582 O593 2.596 . S
Tb582 O594 2.374 . S
O583 Tb580 2.453 . S
O583 C599 1.245 . S
O584 Tb580 2.596 . S
O584 Tb582 2.343 . S
O584 C599 1.259 . S
O585 Tb580 2.374 . S
O585 C581 1.251 . S
C586 O590 1.275 . S
C586 O591 1.246 . S
O587 C581 1.263 . S
O587 Tb582 2.353 . S
C588 O592 1.245 . S
C588 O593 1.259 . S
C589 O594 1.250 . S
C589 O595 1.263 . S
O590 Tb582 2.427 . S
O590 C586 1.275 . S
O591 Tb582 2.513 . S
O591 C586 1.246 . S
O592 Tb582 2.453 . S
O592 C588 1.245 . S
O593 Tb580 2.343 . S
O593 Tb582 2.596 . S
O593 C588 1.259 . S
O594 Tb582 2.374 . S
O594 C589 1.250 . S
O595 Tb580 2.353 . S
O595 C589 1.263 . S
C596 O597 1.275 . S
C596 O598 1.246 . S
O597 Tb580 2.427 . S
O597 C596 1.275 . S
O598 Tb580 2.513 . S
O598 C596 1.246 . S
C599 O583 1.245 . S
C599 O584 1.259 . S
Tb600 O603 2.453 . S
Tb600 O604 2.596 . S
Tb600 O605 2.374 . S
Tb600 O613 2.343 . S
Tb600 O615 2.353 . S
Tb600 O617 2.427 . S
Tb600 O618 2.513 . S
C601 O605 1.251 . S
C601 O607 1.263 . S
Tb602 O604 2.343 . S
Tb602 O607 2.353 . S
Tb602 O610 2.427 . S
Tb602 O611 2.513 . S
Tb602 O612 2.453 . S
Tb602 O613 2.596 . S
Tb602 O614 2.374 . S
O603 Tb600 2.453 . S
O603 C619 1.245 . S
O604 Tb600 2.596 . S
O604 Tb602 2.343 . S
O604 C619 1.259 . S
O605 Tb600 2.374 . S
O605 C601 1.251 . S
C606 O610 1.275 . S
C606 O611 1.246 . S
O607 C601 1.263 . S
O607 Tb602 2.353 . S
C608 O612 1.245 . S
C608 O613 1.259 . S
C609 O614 1.250 . S
C609 O615 1.263 . S
O610 Tb602 2.427 . S
O610 C606 1.275 . S
O611 Tb602 2.513 . S
O611 C606 1.246 . S
O612 Tb602 2.453 . S
O612 C608 1.245 . S
O613 Tb600 2.343 . S
O613 Tb602 2.596 . S
O613 C608 1.259 . S
O614 Tb602 2.374 . S
O614 C609 1.250 . S
O615 Tb600 2.353 . S
O615 C609 1.263 . S
C616 O617 1.275 . S
C616 O618 1.246 . S
O617 Tb600 2.427 . S
O617 C616 1.275 . S
O618 Tb600 2.513 . S
O618 C616 1.246 . S
C619 O603 1.245 . S
C619 O604 1.259 . S
Tb620 O623 2.453 . S
Tb620 O624 2.596 . S
Tb620 O625 2.374 . S
Tb620 O633 2.343 . S
Tb620 O635 2.353 . S
Tb620 O637 2.427 . S
Tb620 O638 2.513 . S
C621 O625 1.251 . S
C621 O627 1.263 . S
Tb622 O624 2.343 . S
Tb622 O627 2.353 . S
Tb622 O630 2.427 . S
Tb622 O631 2.513 . S
Tb622 O632 2.453 . S
Tb622 O633 2.596 . S
Tb622 O634 2.374 . S
O623 Tb620 2.453 . S
O623 C639 1.245 . S
O624 Tb620 2.596 . S
O624 Tb622 2.343 . S
O624 C639 1.259 . S
O625 Tb620 2.374 . S
O625 C621 1.251 . S
C626 O630 1.275 . S
C626 O631 1.246 . S
O627 C621 1.263 . S
O627 Tb622 2.353 . S
C628 O632 1.245 . S
C628 O633 1.259 . S
C629 O634 1.250 . S
C629 O635 1.263 . S
O630 Tb622 2.427 . S
O630 C626 1.275 . S
O631 Tb622 2.513 . S
O631 C626 1.246 . S
O632 Tb622 2.453 . S
O632 C628 1.245 . S
O633 Tb620 2.343 . S
O633 Tb622 2.596 . S
O633 C628 1.259 . S
O634 Tb622 2.374 . S
O634 C629 1.250 . S
O635 Tb620 2.353 . S
O635 C629 1.263 . S
C636 O637 1.275 . S
C636 O638 1.246 . S
O637 Tb620 2.427 . S
O637 C636 1.275 . S
O638 Tb620 2.513 . S
O638 C636 1.246 . S
C639 O623 1.245 . S
C639 O624 1.259 . S
Tb640 O643 2.453 . S
Tb640 O644 2.596 . S
Tb640 O645 2.374 . S
Tb640 O653 2.343 . S
Tb640 O655 2.353 . S
Tb640 O657 2.427 . S
Tb640 O658 2.513 . S
C641 O645 1.251 . S
C641 O647 1.263 . S
Tb642 O644 2.343 . S
Tb642 O647 2.353 . S
Tb642 O650 2.427 . S
Tb642 O651 2.513 . S
Tb642 O652 2.453 . S
Tb642 O653 2.596 . S
Tb642 O654 2.374 . S
O643 Tb640 2.453 . S
O643 C659 1.245 . S
O644 Tb640 2.596 . S
O644 Tb642 2.343 . S
O644 C659 1.259 . S
O645 Tb640 2.374 . S
O645 C641 1.251 . S
C646 O650 1.275 . S
C646 O651 1.246 . S
O647 C641 1.263 . S
O647 Tb642 2.353 . S
C648 O652 1.245 . S
C648 O653 1.259 . S
C649 O654 1.250 . S
C649 O655 1.263 . S
O650 Tb642 2.427 . S
O650 C646 1.275 . S
O651 Tb642 2.513 . S
O651 C646 1.246 . S
O652 Tb642 2.453 . S
O652 C648 1.245 . S
O653 Tb640 2.343 . S
O653 Tb642 2.596 . S
O653 C648 1.259 . S
O654 Tb642 2.374 . S
O654 C649 1.250 . S
O655 Tb640 2.353 . S
O655 C649 1.263 . S
C656 O657 1.275 . S
C656 O658 1.246 . S
O657 Tb640 2.427 . S
O657 C656 1.275 . S
O658 Tb640 2.513 . S
O658 C656 1.246 . S
C659 O643 1.245 . S
C659 O644 1.259 . S
Tb660 O663 2.453 . S
Tb660 O664 2.596 . S
Tb660 O665 2.374 . S
Tb660 O673 2.343 . S
Tb660 O675 2.353 . S
Tb660 O677 2.427 . S
Tb660 O678 2.513 . S
C661 O665 1.251 . S
C661 O667 1.263 . S
Tb662 O664 2.343 . S
Tb662 O667 2.353 . S
Tb662 O670 2.427 . S
Tb662 O671 2.513 . S
Tb662 O672 2.453 . S
Tb662 O673 2.596 . S
Tb662 O674 2.374 . S
O663 Tb660 2.453 . S
O663 C679 1.245 . S
O664 Tb660 2.596 . S
O664 Tb662 2.343 . S
O664 C679 1.259 . S
O665 Tb660 2.374 . S
O665 C661 1.251 . S
C666 O670 1.275 . S
C666 O671 1.246 . S
O667 C661 1.263 . S
O667 Tb662 2.353 . S
C668 O672 1.245 . S
C668 O673 1.259 . S
C669 O674 1.250 . S
C669 O675 1.263 . S
O670 Tb662 2.427 . S
O670 C666 1.275 . S
O671 Tb662 2.513 . S
O671 C666 1.246 . S
O672 Tb662 2.453 . S
O672 C668 1.245 . S
O673 Tb660 2.343 . S
O673 Tb662 2.596 . S
O673 C668 1.259 . S
O674 Tb662 2.374 . S
O674 C669 1.250 . S
O675 Tb660 2.353 . S
O675 C669 1.263 . S
C676 O677 1.275 . S
C676 O678 1.246 . S
O677 Tb660 2.427 . S
O677 C676 1.275 . S
O678 Tb660 2.513 . S
O678 C676 1.246 . S
C679 O663 1.245 . S
C679 O664 1.259 . S
Tb680 O683 2.453 . S
Tb680 O684 2.596 . S
Tb680 O685 2.374 . S
Tb680 O693 2.343 . S
Tb680 O695 2.353 . S
Tb680 O697 2.427 . S
Tb680 O698 2.513 . S
C681 O685 1.251 . S
C681 O687 1.263 . S
Tb682 O684 2.343 . S
Tb682 O687 2.353 . S
Tb682 O690 2.427 . S
Tb682 O691 2.513 . S
Tb682 O692 2.453 . S
Tb682 O693 2.596 . S
Tb682 O694 2.374 . S
O683 Tb680 2.453 . S
O683 C699 1.245 . S
O684 Tb680 2.596 . S
O684 Tb682 2.343 . S
O684 C699 1.259 . S
O685 Tb680 2.374 . S
O685 C681 1.251 . S
C686 O690 1.275 . S
C686 O691 1.246 . S
O687 C681 1.263 . S
O687 Tb682 2.353 . S
C688 O692 1.245 . S
C688 O693 1.259 . S
C689 O694 1.250 . S
C689 O695 1.263 . S
O690 Tb682 2.427 . S
O690 C686 1.275 . S
O691 Tb682 2.513 . S
O691 C686 1.246 . S
O692 Tb682 2.453 . S
O692 C688 1.245 . S
O693 Tb680 2.343 . S
O693 Tb682 2.596 . S
O693 C688 1.259 . S
O694 Tb682 2.374 . S
O694 C689 1.250 . S
O695 Tb680 2.353 . S
O695 C689 1.263 . S
C696 O697 1.275 . S
C696 O698 1.246 . S
O697 Tb680 2.427 . S
O697 C696 1.275 . S
O698 Tb680 2.513 . S
O698 C696 1.246 . S
C699 O683 1.245 . S
C699 O684 1.259 . S
Tb700 O703 2.453 . S
Tb700 O704 2.596 . S
Tb700 O705 2.374 . S
Tb700 O713 2.343 . S
Tb700 O715 2.353 . S
Tb700 O717 2.427 . S
Tb700 O718 2.513 . S
C701 O705 1.251 . S
C701 O707 1.263 . S
Tb702 O704 2.343 . S
Tb702 O707 2.353 . S
Tb702 O710 2.427 . S
Tb702 O711 2.513 . S
Tb702 O712 2.453 . S
Tb702 O713 2.596 . S
Tb702 O714 2.374 . S
O703 Tb700 2.453 . S
O703 C719 1.245 . S
O704 Tb700 2.596 . S
O704 Tb702 2.343 . S
O704 C719 1.259 . S
O705 Tb700 2.374 . S
O705 C701 1.251 . S
C706 O710 1.275 . S
C706 O711 1.246 . S
O707 C701 1.263 . S
O707 Tb702 2.353 . S
C708 O712 1.245 . S
C708 O713 1.259 . S
C709 O714 1.250 . S
C709 O715 1.263 . S
O710 Tb702 2.427 . S
O710 C706 1.275 . S
O711 Tb702 2.513 . S
O711 C706 1.246 . S
O712 Tb702 2.453 . S
O712 C708 1.245 . S
O713 Tb700 2.343 . S
O713 Tb702 2.596 . S
O713 C708 1.259 . S
O714 Tb702 2.374 . S
O714 C709 1.250 . S
O715 Tb700 2.353 . S
O715 C709 1.263 . S
C716 O717 1.275 . S
C716 O718 1.246 . S
O717 Tb700 2.427 . S
O717 C716 1.275 . S
O718 Tb700 2.513 . S
O718 C716 1.246 . S
C719 O703 1.245 . S
C719 O704 1.259 . S
Tb720 O723 2.453 . S
Tb720 O724 2.596 . S
Tb720 O725 2.374 . S
Tb720 O733 2.343 . S
Tb720 O735 2.353 . S
Tb720 O737 2.427 . S
Tb720 O738 2.513 . S
C721 O725 1.251 . S
C721 O727 1.263 . S
Tb722 O724 2.343 . S
Tb722 O727 2.353 . S
Tb722 O730 2.427 . S
Tb722 O731 2.513 . S
Tb722 O732 2.453 . S
Tb722 O733 2.596 . S
Tb722 O734 2.374 . S
O723 Tb720 2.453 . S
O723 C739 1.245 . S
O724 Tb720 2.596 . S
O724 Tb722 2.343 . S
O724 C739 1.259 . S
O725 Tb720 2.374 . S
O725 C721 1.251 . S
C726 O730 1.275 . S
C726 O731 1.246 . S
O727 C721 1.263 . S
O727 Tb722 2.353 . S
C728 O732 1.245 . S
C728 O733 1.259 . S
C729 O734 1.250 . S
C729 O735 1.263 . S
O730 Tb722 2.427 . S
O730 C726 1.275 . S
O731 Tb722 2.513 . S
O731 C726 1.246 . S
O732 Tb722 2.453 . S
O732 C728 1.245 . S
O733 Tb720 2.343 . S
O733 Tb722 2.596 . S
O733 C728 1.259 . S
O734 Tb722 2.374 . S
O734 C729 1.250 . S
O735 Tb720 2.353 . S
O735 C729 1.263 . S
C736 O737 1.275 . S
C736 O738 1.246 . S
O737 Tb720 2.427 . S
O737 C736 1.275 . S
O738 Tb720 2.513 . S
O738 C736 1.246 . S
C739 O723 1.245 . S
C739 O724 1.259 . S
Tb740 O743 2.453 . S
Tb740 O744 2.596 . S
Tb740 O745 2.374 . S
Tb740 O753 2.343 . S
Tb740 O755 2.353 . S
Tb740 O757 2.427 . S
Tb740 O758 2.513 . S
C741 O745 1.251 . S
C741 O747 1.263 . S
Tb742 O744 2.343 . S
Tb742 O747 2.353 . S
Tb742 O750 2.427 . S
Tb742 O751 2.513 . S
Tb742 O752 2.453 . S
Tb742 O753 2.596 . S
Tb742 O754 2.374 . S
O743 Tb740 2.453 . S
O743 C759 1.245 . S
O744 Tb740 2.596 . S
O744 Tb742 2.343 . S
O744 C759 1.259 . S
O745 Tb740 2.374 . S
O745 C741 1.251 . S
C746 O750 1.275 . S
C746 O751 1.246 . S
O747 C741 1.263 . S
O747 Tb742 2.353 . S
C748 O752 1.245 . S
C748 O753 1.259 . S
C749 O754 1.250 . S
C749 O755 1.263 . S
O750 Tb742 2.427 . S
O750 C746 1.275 . S
O751 Tb742 2.513 . S
O751 C746 1.246 . S
O752 Tb742 2.453 . S
O752 C748 1.245 . S
O753 Tb740 2.343 . S
O753 Tb742 2.596 . S
O753 C748 1.259 . S
O754 Tb742 2.374 . S
O754 C749 1.250 . S
O755 Tb740 2.353 . S
O755 C749 1.263 . S
C756 O757 1.275 . S
C756 O758 1.246 . S
O757 Tb740 2.427 . S
O757 C756 1.275 . S
O758 Tb740 2.513 . S
O758 C756 1.246 . S
C759 O743 1.245 . S
C759 O744 1.259 . S
Tb760 O763 2.453 . S
Tb760 O764 2.596 . S
Tb760 O765 2.374 . S
Tb760 O773 2.343 . S
Tb760 O775 2.353 . S
Tb760 O777 2.427 . S
Tb760 O778 2.513 . S
C761 O765 1.251 . S
C761 O767 1.263 . S
Tb762 O764 2.343 . S
Tb762 O767 2.353 . S
Tb762 O770 2.427 . S
Tb762 O771 2.513 . S
Tb762 O772 2.453 . S
Tb762 O773 2.596 . S
Tb762 O774 2.374 . S
O763 Tb760 2.453 . S
O763 C779 1.245 . S
O764 Tb760 2.596 . S
O764 Tb762 2.343 . S
O764 C779 1.259 . S
O765 Tb760 2.374 . S
O765 C761 1.251 . S
C766 O770 1.275 . S
C766 O771 1.246 . S
O767 C761 1.263 . S
O767 Tb762 2.353 . S
C768 O772 1.245 . S
C768 O773 1.259 . S
C769 O774 1.250 . S
C769 O775 1.263 . S
O770 Tb762 2.427 . S
O770 C766 1.275 . S
O771 Tb762 2.513 . S
O771 C766 1.246 . S
O772 Tb762 2.453 . S
O772 C768 1.245 . S
O773 Tb760 2.343 . S
O773 Tb762 2.596 . S
O773 C768 1.259 . S
O774 Tb762 2.374 . S
O774 C769 1.250 . S
O775 Tb760 2.353 . S
O775 C769 1.263 . S
C776 O777 1.275 . S
C776 O778 1.246 . S
O777 Tb760 2.427 . S
O777 C776 1.275 . S
O778 Tb760 2.513 . S
O778 C776 1.246 . S
C779 O763 1.245 . S
C779 O764 1.259 . S
Tb780 O783 2.453 . S
Tb780 O784 2.596 . S
Tb780 O785 2.374 . S
Tb780 O793 2.343 . S
Tb780 O795 2.353 . S
Tb780 O797 2.427 . S
Tb780 O798 2.513 . S
C781 O785 1.251 . S
C781 O787 1.263 . S
Tb782 O784 2.343 . S
Tb782 O787 2.353 . S
Tb782 O790 2.427 . S
Tb782 O791 2.513 . S
Tb782 O792 2.453 . S
Tb782 O793 2.596 . S
Tb782 O794 2.374 . S
O783 Tb780 2.453 . S
O783 C799 1.245 . S
O784 Tb780 2.596 . S
O784 Tb782 2.343 . S
O784 C799 1.259 . S
O785 Tb780 2.374 . S
O785 C781 1.251 . S
C786 O790 1.275 . S
C786 O791 1.246 . S
O787 C781 1.263 . S
O787 Tb782 2.353 . S
C788 O792 1.245 . S
C788 O793 1.259 . S
C789 O794 1.250 . S
C789 O795 1.263 . S
O790 Tb782 2.427 . S
O790 C786 1.275 . S
O791 Tb782 2.513 . S
O791 C786 1.246 . S
O792 Tb782 2.453 . S
O792 C788 1.245 . S
O793 Tb780 2.343 . S
O793 Tb782 2.596 . S
O793 C788 1.259 . S
O794 Tb782 2.374 . S
O794 C789 1.250 . S
O795 Tb780 2.353 . S
O795 C789 1.263 . S
C796 O797 1.275 . S
C796 O798 1.246 . S
O797 Tb780 2.427 . S
O797 C796 1.275 . S
O798 Tb780 2.513 . S
O798 C796 1.246 . S
C799 O783 1.245 . S
C799 O784 1.259 . S
Tb800 O803 2.453 . S
Tb800 O804 2.596 . S
Tb800 O805 2.374 . S
Tb800 O813 2.343 . S
Tb800 O815 2.353 . S
Tb800 O817 2.427 . S
Tb800 O818 2.513 . S
C801 O805 1.251 . S
C801 O807 1.263 . S
Tb802 O804 2.343 . S
Tb802 O807 2.353 . S
Tb802 O810 2.427 . S
Tb802 O811 2.513 . S
Tb802 O812 2.453 . S
Tb802 O813 2.596 . S
Tb802 O814 2.374 . S
O803 Tb800 2.453 . S
O803 C819 1.245 . S
O804 Tb800 2.596 . S
O804 Tb802 2.343 . S
O804 C819 1.259 . S
O805 Tb800 2.374 . S
O805 C801 1.251 . S
C806 O810 1.275 . S
C806 O811 1.246 . S
O807 C801 1.263 . S
O807 Tb802 2.353 . S
C808 O812 1.245 . S
C808 O813 1.259 . S
C809 O814 1.250 . S
C809 O815 1.263 . S
O810 Tb802 2.427 . S
O810 C806 1.275 . S
O811 Tb802 2.513 . S
O811 C806 1.246 . S
O812 Tb802 2.453 . S
O812 C808 1.245 . S
O813 Tb800 2.343 . S
O813 Tb802 2.596 . S
O813 C808 1.259 . S
O814 Tb802 2.374 . S
O814 C809 1.250 . S
O815 Tb800 2.353 . S
O815 C809 1.263 . S
C816 O817 1.275 . S
C816 O818 1.246 . S
O817 Tb800 2.427 . S
O817 C816 1.275 . S
O818 Tb800 2.513 . S
O818 C816 1.246 . S
C819 O803 1.245 . S
C819 O804 1.259 . S
Tb820 O823 2.453 . S
Tb820 O824 2.596 . S
Tb820 O825 2.374 . S
Tb820 O833 2.343 . S
Tb820 O835 2.353 . S
Tb820 O837 2.427 . S
Tb820 O838 2.513 . S
C821 O825 1.251 . S
C821 O827 1.263 . S
Tb822 O824 2.343 . S
Tb822 O827 2.353 . S
Tb822 O830 2.427 . S
Tb822 O831 2.513 . S
Tb822 O832 2.453 . S
Tb822 O833 2.596 . S
Tb822 O834 2.374 . S
O823 Tb820 2.453 . S
O823 C839 1.245 . S
O824 Tb820 2.596 . S
O824 Tb822 2.343 . S
O824 C839 1.259 . S
O825 Tb820 2.374 . S
O825 C821 1.251 . S
C826 O830 1.275 . S
C826 O831 1.246 . S
O827 C821 1.263 . S
O827 Tb822 2.353 . S
C828 O832 1.245 . S
C828 O833 1.259 . S
C829 O834 1.250 . S
C829 O835 1.263 . S
O830 Tb822 2.427 . S
O830 C826 1.275 . S
O831 Tb822 2.513 . S
O831 C826 1.246 . S
O832 Tb822 2.453 . S
O832 C828 1.245 . S
O833 Tb820 2.343 . S
O833 Tb822 2.596 . S
O833 C828 1.259 . S
O834 Tb822 2.374 . S
O834 C829 1.250 . S
O835 Tb820 2.353 . S
O835 C829 1.263 . S
C836 O837 1.275 . S
C836 O838 1.246 . S
O837 Tb820 2.427 . S
O837 C836 1.275 . S
O838 Tb820 2.513 . S
O838 C836 1.246 . S
C839 O823 1.245 . S
C839 O824 1.259 . S
Tb840 O843 2.453 . S
Tb840 O844 2.596 . S
Tb840 O845 2.374 . S
Tb840 O853 2.343 . S
Tb840 O855 2.353 . S
Tb840 O857 2.427 . S
Tb840 O858 2.513 . S
C841 O845 1.251 . S
C841 O847 1.263 . S
Tb842 O844 2.343 . S
Tb842 O847 2.353 . S
Tb842 O850 2.427 . S
Tb842 O851 2.513 . S
Tb842 O852 2.453 . S
Tb842 O853 2.596 . S
Tb842 O854 2.374 . S
O843 Tb840 2.453 . S
O843 C859 1.245 . S
O844 Tb840 2.596 . S
O844 Tb842 2.343 . S
O844 C859 1.259 . S
O845 Tb840 2.374 . S
O845 C841 1.251 . S
C846 O850 1.275 . S
C846 O851 1.246 . S
O847 C841 1.263 . S
O847 Tb842 2.353 . S
C848 O852 1.245 . S
C848 O853 1.259 . S
C849 O854 1.250 . S
C849 O855 1.263 . S
O850 Tb842 2.427 . S
O850 C846 1.275 . S
O851 Tb842 2.513 . S
O851 C846 1.246 . S
O852 Tb842 2.453 . S
O852 C848 1.245 . S
O853 Tb840 2.343 . S
O853 Tb842 2.596 . S
O853 C848 1.259 . S
O854 Tb842 2.374 . S
O854 C849 1.250 . S
O855 Tb840 2.353 . S
O855 C849 1.263 . S
C856 O857 1.275 . S
C856 O858 1.246 . S
O857 Tb840 2.427 . S
O857 C856 1.275 . S
O858 Tb840 2.513 . S
O858 C856 1.246 . S
C859 O843 1.245 . S
C859 O844 1.259 . S
Tb860 O863 2.453 . S
Tb860 O864 2.596 . S
Tb860 O865 2.374 . S
Tb860 O873 2.343 . S
Tb860 O875 2.353 . S
Tb860 O877 2.427 . S
Tb860 O878 2.513 . S
C861 O865 1.251 . S
C861 O867 1.263 . S
Tb862 O864 2.343 . S
Tb862 O867 2.353 . S
Tb862 O870 2.427 . S
Tb862 O871 2.513 . S
Tb862 O872 2.453 . S
Tb862 O873 2.596 . S
Tb862 O874 2.374 . S
O863 Tb860 2.453 . S
O863 C879 1.245 . S
O864 Tb860 2.596 . S
O864 Tb862 2.343 . S
O864 C879 1.259 . S
O865 Tb860 2.374 . S
O865 C861 1.251 . S
C866 O870 1.275 . S
C866 O871 1.246 . S
O867 C861 1.263 . S
O867 Tb862 2.353 . S
C868 O872 1.245 . S
C868 O873 1.259 . S
C869 O874 1.250 . S
C869 O875 1.263 . S
O870 Tb862 2.427 . S
O870 C866 1.275 . S
O871 Tb862 2.513 . S
O871 C866 1.246 . S
O872 Tb862 2.453 . S
O872 C868 1.245 . S
O873 Tb860 2.343 . S
O873 Tb862 2.596 . S
O873 C868 1.259 . S
O874 Tb862 2.374 . S
O874 C869 1.250 . S
O875 Tb860 2.353 . S
O875 C869 1.263 . S
C876 O877 1.275 . S
C876 O878 1.246 . S
O877 Tb860 2.427 . S
O877 C876 1.275 . S
O878 Tb860 2.513 . S
O878 C876 1.246 . S
C879 O863 1.245 . S
C879 O864 1.259 . S
Tb880 O883 2.453 . S
Tb880 O884 2.596 . S
Tb880 O885 2.374 . S
Tb880 O893 2.343 . S
Tb880 O895 2.353 . S
Tb880 O897 2.427 . S
Tb880 O898 2.513 . S
C881 O885 1.251 . S
C881 O887 1.263 . S
Tb882 O884 2.343 . S
Tb882 O887 2.353 . S
Tb882 O890 2.427 . S
Tb882 O891 2.513 . S
Tb882 O892 2.453 . S
Tb882 O893 2.596 . S
Tb882 O894 2.374 . S
O883 Tb880 2.453 . S
O883 C899 1.245 . S
O884 Tb880 2.596 . S
O884 Tb882 2.343 . S
O884 C899 1.259 . S
O885 Tb880 2.374 . S
O885 C881 1.251 . S
C886 O890 1.275 . S
C886 O891 1.246 . S
O887 C881 1.263 . S
O887 Tb882 2.353 . S
C888 O892 1.245 . S
C888 O893 1.259 . S
C889 O894 1.250 . S
C889 O895 1.263 . S
O890 Tb882 2.427 . S
O890 C886 1.275 . S
O891 Tb882 2.513 . S
O891 C886 1.246 . S
O892 Tb882 2.453 . S
O892 C888 1.245 . S
O893 Tb880 2.343 . S
O893 Tb882 2.596 . S
O893 C888 1.259 . S
O894 Tb882 2.374 . S
O894 C889 1.250 . S
O895 Tb880 2.353 . S
O895 C889 1.263 . S
C896 O897 1.275 . S
C896 O898 1.246 . S
O897 Tb880 2.427 . S
O897 C896 1.275 . S
O898 Tb880 2.513 . S
O898 C896 1.246 . S
C899 O883 1.245 . S
C899 O884 1.259 . S
Tb900 O903 2.453 . S
Tb900 O904 2.596 . S
Tb900 O905 2.374 . S
Tb900 O913 2.343 . S
Tb900 O915 2.353 . S
Tb900 O917 2.427 . S
Tb900 O918 2.513 . S
C901 O905 1.251 . S
C901 O907 1.263 . S
Tb902 O904 2.343 . S
Tb902 O907 2.353 . S
Tb902 O910 2.427 . S
Tb902 O911 2.513 . S
Tb902 O912 2.453 . S
Tb902 O913 2.596 . S
Tb902 O914 2.374 . S
O903 Tb900 2.453 . S
O903 C919 1.245 . S
O904 Tb900 2.596 . S
O904 Tb902 2.343 . S
O904 C919 1.259 . S
O905 Tb900 2.374 . S
O905 C901 1.251 . S
C906 O910 1.275 . S
C906 O911 1.246 . S
O907 C901 1.263 . S
O907 Tb902 2.353 . S
C908 O912 1.245 . S
C908 O913 1.259 . S
C909 O914 1.250 . S
C909 O915 1.263 . S
O910 Tb902 2.427 . S
O910 C906 1.275 . S
O911 Tb902 2.513 . S
O911 C906 1.246 . S
O912 Tb902 2.453 . S
O912 C908 1.245 . S
O913 Tb900 2.343 . S
O913 Tb902 2.596 . S
O913 C908 1.259 . S
O914 Tb902 2.374 . S
O914 C909 1.250 . S
O915 Tb900 2.353 . S
O915 C909 1.263 . S
C916 O917 1.275 . S
C916 O918 1.246 . S
O917 Tb900 2.427 . S
O917 C916 1.275 . S
O918 Tb900 2.513 . S
O918 C916 1.246 . S
C919 O903 1.245 . S
C919 O904 1.259 . S
Tb920 O923 2.453 . S
Tb920 O924 2.596 . S
Tb920 O925 2.374 . S
Tb920 O933 2.343 . S
Tb920 O935 2.353 . S
Tb920 O937 2.427 . S
Tb920 O938 2.513 . S
C921 O925 1.251 . S
C921 O927 1.263 . S
Tb922 O924 2.343 . S
Tb922 O927 2.353 . S
Tb922 O930 2.427 . S
Tb922 O931 2.513 . S
Tb922 O932 2.453 . S
Tb922 O933 2.596 . S
Tb922 O934 2.374 . S
O923 Tb920 2.453 . S
O923 C939 1.245 . S
O924 Tb920 2.596 . S
O924 Tb922 2.343 . S
O924 C939 1.259 . S
O925 Tb920 2.374 . S
O925 C921 1.251 . S
C926 O930 1.275 . S
C926 O931 1.246 . S
O927 C921 1.263 . S
O927 Tb922 2.353 . S
C928 O932 1.245 . S
C928 O933 1.259 . S
C929 O934 1.250 . S
C929 O935 1.263 . S
O930 Tb922 2.427 . S
O930 C926 1.275 . S
O931 Tb922 2.513 . S
O931 C926 1.246 . S
O932 Tb922 2.453 . S
O932 C928 1.245 . S
O933 Tb920 2.343 . S
O933 Tb922 2.596 . S
O933 C928 1.259 . S
O934 Tb922 2.374 . S
O934 C929 1.250 . S
O935 Tb920 2.353 . S
O935 C929 1.263 . S
C936 O937 1.275 . S
C936 O938 1.246 . S
O937 Tb920 2.427 . S
O937 C936 1.275 . S
O938 Tb920 2.513 . S
O938 C936 1.246 . S
C939 O923 1.245 . S
C939 O924 1.259 . S
Tb940 O943 2.453 . S
Tb940 O944 2.596 . S
Tb940 O945 2.374 . S
Tb940 O953 2.343 . S
Tb940 O955 2.353 . S
Tb940 O957 2.427 . S
Tb940 O958 2.513 . S
C941 O945 1.251 . S
C941 O947 1.263 . S
Tb942 O944 2.343 . S
Tb942 O947 2.353 . S
Tb942 O950 2.427 . S
Tb942 O951 2.513 . S
Tb942 O952 2.453 . S
Tb942 O953 2.596 . S
Tb942 O954 2.374 . S
O943 Tb940 2.453 . S
O943 C959 1.245 . S
O944 Tb940 2.596 . S
O944 Tb942 2.343 . S
O944 C959 1.259 . S
O945 Tb940 2.374 . S
O945 C941 1.251 . S
C946 O950 1.275 . S
C946 O951 1.246 . S
O947 C941 1.263 . S
O947 Tb942 2.353 . S
C948 O952 1.245 . S
C948 O953 1.259 . S
C949 O954 1.250 . S
C949 O955 1.263 . S
O950 Tb942 2.427 . S
O950 C946 1.275 . S
O951 Tb942 2.513 . S
O951 C946 1.246 . S
O952 Tb942 2.453 . S
O952 C948 1.245 . S
O953 Tb940 2.343 . S
O953 Tb942 2.596 . S
O953 C948 1.259 . S
O954 Tb942 2.374 . S
O954 C949 1.250 . S
O955 Tb940 2.353 . S
O955 C949 1.263 . S
C956 O957 1.275 . S
C956 O958 1.246 . S
O957 Tb940 2.427 . S
O957 C956 1.275 . S
O958 Tb940 2.513 . S
O958 C956 1.246 . S
C959 O943 1.245 . S
C959 O944 1.259 . S
C960 C961 1.391 . S
C960 C962 1.394 . S
C960 H976 0.931 . S
C961 C960 1.391 . S
C961 C965 1.376 1_455 S
C962 C960 1.394 . S
C962 C963 1.369 . S
C962 C966 1.531 . S
C963 C962 1.369 . S
C963 C964 1.410 1_455 S
C963 C971 1.503 . S
C964 C963 1.410 1_655 S
C964 C965 1.392 . S
C964 C967 1.511 . S
C965 C961 1.376 1_655 S
C965 C964 1.392 . S
C965 H977 0.929 . S
C966 C962 1.531 . S
C966 H978 0.960 . S
C966 H979 0.962 . S
C966 H980 0.960 . S
C967 C964 1.511 . S
C967 H981 0.961 . S
C967 H982 0.961 . S
C967 H983 0.961 . S
C968 C969 1.370 . S
C968 C970 1.363 . S
C968 H984 0.931 . S
C969 C968 1.370 . S
C969 C973 1.415 . S
C970 C968 1.363 . S
C970 C971 1.370 . S
C970 C974 1.524 . S
C971 C963 1.503 . S
C971 C970 1.370 . S
C971 C972 1.403 . S
C972 C971 1.403 . S
C972 C973 1.406 . S
C972 C975 1.539 1_455 S
C973 C969 1.415 . S
C973 C972 1.406 . S
C973 H985 0.923 1_455 S
C974 C970 1.524 . S
C974 H986 0.956 . S
C974 H987 0.961 . S
C974 H988 0.961 . S
C975 C972 1.539 1_655 S
C975 H989 0.958 1_655 S
C975 H990 0.961 . S
C975 H991 0.960 . S
H976 C960 0.931 . S
H977 C965 0.929 . S
H978 C966 0.960 . S
H979 C966 0.962 . S
H980 C966 0.960 . S
H981 C967 0.961 . S
H982 C967 0.961 . S
H983 C967 0.961 . S
H984 C968 0.931 . S
H985 C973 0.923 1_655 S
H986 C974 0.956 . S
H987 C974 0.961 . S
H988 C974 0.961 . S
H989 C975 0.958 1_455 S
H990 C975 0.961 . S
H991 C975 0.960 . S
C992 C993 1.383 1_565 S
C992 C994 1.395 . S
C992 H1008 0.937 . S
C993 C992 1.383 1_545 S
C993 C997 1.376 . S
C994 C992 1.395 . S
C994 C995 1.369 1_565 S
C994 C998 1.531 . S
C995 C994 1.369 1_545 S
C995 C996 1.410 . S
C995 C1003 1.503 . S
C996 C995 1.410 . S
C996 C997 1.392 . S
C996 C999 1.511 . S
C997 C993 1.376 . S
C997 C996 1.392 . S
C997 H1009 0.929 . S
C998 C994 1.531 . S
C998 H1010 0.960 . S
C998 H1011 0.962 . S
C998 H1012 0.960 . S
C999 C996 1.511 . S
C999 H1013 0.961 . S
C999 H1014 0.961 . S
C999 H1015 0.961 . S
C1000 C1001 1.370 . S
C1000 C1002 1.363 . S
C1000 H1016 0.931 . S
C1001 C1000 1.370 . S
C1001 C1005 1.408 1_545 S
C1002 C1000 1.363 . S
C1002 C1003 1.370 . S
C1002 C1006 1.524 . S
C1003 C995 1.503 . S
C1003 C1002 1.370 . S
C1003 C1004 1.403 1_545 S
C1004 C1003 1.403 1_565 S
C1004 C1005 1.404 . S
C1004 C1007 1.539 . S
C1005 C1001 1.408 1_565 S
C1005 C1004 1.404 . S
C1005 H1017 0.930 . S
C1006 C1002 1.524 . S
C1006 H1018 0.956 . S
C1006 H1019 0.961 . S
C1006 H1020 0.961 . S
C1007 C1004 1.539 . S
C1007 H1021 0.958 . S
C1007 H1022 0.961 . S
C1007 H1023 0.960 . S
H1008 C992 0.937 . S
H1009 C997 0.929 . S
H1010 C998 0.960 . S
H1011 C998 0.962 . S
H1012 C998 0.960 . S
H1013 C999 0.961 . S
H1014 C999 0.961 . S
H1015 C999 0.961 . S
H1016 C1000 0.931 . S
H1017 C1005 0.930 . S
H1018 C1006 0.956 . S
H1019 C1006 0.961 . S
H1020 C1006 0.961 . S
H1021 C1007 0.958 . S
H1022 C1007 0.961 . S
H1023 C1007 0.960 . S
C1024 C1025 1.391 . S
C1024 C1026 1.394 . S
C1024 H1040 0.931 . S
C1025 C1024 1.391 . S
C1025 C1029 1.376 1_455 S
C1026 C1024 1.394 . S
C1026 C1027 1.369 . S
C1026 C1030 1.531 . S
C1027 C1026 1.369 . S
C1027 C1028 1.410 1_455 S
C1027 C1035 1.503 . S
C1028 C1027 1.410 1_655 S
C1028 C1029 1.392 . S
C1028 C1031 1.511 . S
C1029 C1025 1.376 1_655 S
C1029 C1028 1.392 . S
C1029 H1041 0.929 . S
C1030 C1026 1.531 . S
C1030 H1042 0.960 . S
C1030 H1043 0.962 . S
C1030 H1044 0.960 . S
C1031 C1028 1.511 . S
C1031 H1045 0.961 . S
C1031 H1046 0.961 . S
C1031 H1047 0.961 . S
C1032 C1033 1.370 . S
C1032 C1034 1.363 . S
C1032 H1048 0.931 . S
C1033 C1032 1.370 . S
C1033 C1037 1.424 . S
C1034 C1032 1.363 . S
C1034 C1035 1.370 . S
C1034 C1038 1.524 . S
C1035 C1027 1.503 . S
C1035 C1034 1.370 . S
C1035 C1036 1.396 1_455 S
C1036 C1035 1.396 1_655 S
C1036 C1037 1.403 1_655 S
C1036 C1039 1.549 . S
C1037 C1033 1.424 . S
C1037 C1036 1.403 1_455 S
C1037 H1049 0.917 1_455 S
C1038 C1034 1.524 . S
C1038 H1050 0.956 . S
C1038 H1051 0.961 . S
C1038 H1052 0.961 . S
C1039 C1036 1.549 . S
C1039 H1053 0.987 . S
C1039 H1054 0.961 . S
C1039 H1055 0.960 . S
H1040 C1024 0.931 . S
H1041 C1029 0.929 . S
H1042 C1030 0.960 . S
H1043 C1030 0.962 . S
H1044 C1030 0.960 . S
H1045 C1031 0.961 . S
H1046 C1031 0.961 . S
H1047 C1031 0.961 . S
H1048 C1032 0.931 . S
H1049 C1037 0.917 1_655 S
H1050 C1038 0.956 . S
H1051 C1038 0.961 . S
H1052 C1038 0.961 . S
H1053 C1039 0.987 . S
H1054 C1039 0.961 . S
H1055 C1039 0.960 . S
C1056 C1057 1.391 . S
C1056 C1058 1.394 . S
C1056 H1072 0.931 . S
C1057 C1056 1.391 . S
C1057 C1061 1.376 1_545 S
C1058 C1056 1.394 . S
C1058 C1059 1.369 . S
C1058 C1062 1.531 . S
C1059 C1058 1.369 . S
C1059 C1060 1.410 1_545 S
C1059 C1067 1.503 . S
C1060 C1059 1.410 1_565 S
C1060 C1061 1.392 . S
C1060 C1063 1.511 . S
C1061 C1057 1.376 1_565 S
C1061 C1060 1.392 . S
C1061 H1073 0.929 . S
C1062 C1058 1.531 . S
C1062 H1074 0.960 . S
C1062 H1075 0.962 . S
C1062 H1076 0.960 . S
C1063 C1060 1.511 . S
C1063 H1077 0.961 . S
C1063 H1078 0.961 . S
C1063 H1079 0.961 . S
C1064 C1065 1.370 . S
C1064 C1066 1.363 . S
C1064 H1080 0.931 . S
C1065 C1064 1.370 . S
C1065 C1069 1.408 . S
C1066 C1064 1.363 . S
C1066 C1067 1.370 . S
C1066 C1070 1.524 1_545 S
C1067 C1059 1.503 . S
C1067 C1066 1.370 . S
C1067 C1068 1.403 . S
C1068 C1067 1.403 . S
C1068 C1069 1.404 . S
C1068 C1071 1.539 . S
C1069 C1065 1.408 . S
C1069 C1068 1.404 . S
C1069 H1081 0.930 . S
C1070 C1066 1.524 1_565 S
C1070 H1082 0.956 1_565 S
C1070 H1083 0.961 . S
C1070 H1084 0.961 . S
C1071 C1068 1.539 . S
C1071 H1085 0.958 . S
C1071 H1086 0.961 . S
C1071 H1087 0.960 . S
H1072 C1056 0.931 . S
H1073 C1061 0.929 . S
H1074 C1062 0.960 . S
H1075 C1062 0.962 . S
H1076 C1062 0.960 . S
H1077 C1063 0.961 . S
H1078 C1063 0.961 . S
H1079 C1063 0.961 . S
H1080 C1064 0.931 . S
H1081 C1069 0.930 . S
H1082 C1070 0.956 1_545 S
H1083 C1070 0.961 . S
H1084 C1070 0.961 . S
H1085 C1071 0.958 . S
H1086 C1071 0.961 . S
H1087 C1071 0.960 . S
C1088 C1089 1.391 . S
C1088 C1090 1.394 . S
C1088 H1104 0.931 . S
C1089 C1088 1.391 . S
C1089 C1093 1.376 1_545 S
C1090 C1088 1.394 . S
C1090 C1091 1.409 . S
C1090 C1094 1.531 . S
C1091 C1090 1.409 . S
C1091 C1092 1.373 1_545 S
C1091 C1099 1.502 1_545 S
C1092 C1091 1.373 1_565 S
C1092 C1093 1.392 . S
C1092 C1095 1.511 . S
C1093 C1089 1.376 1_565 S
C1093 C1092 1.392 . S
C1093 H1105 0.929 . S
C1094 C1090 1.531 . S
C1094 H1106 0.960 . S
C1094 H1107 0.962 . S
C1094 H1108 0.960 . S
C1095 C1092 1.511 . S
C1095 H1109 0.961 . S
C1095 H1110 0.961 . S
C1095 H1111 0.961 . S
C1096 C1097 1.370 1_545 S
C1096 C1098 1.363 . S
C1096 H1112 0.931 . S
C1097 C1096 1.370 1_565 S
C1097 C1101 1.408 . S
C1098 C1096 1.363 . S
C1098 C1099 1.368 1_545 S
C1098 C1102 1.524 . S
C1099 C1091 1.502 1_565 S
C1099 C1098 1.368 1_565 S
C1099 C1100 1.405 . S
C1100 C1099 1.405 . S
C1100 C1101 1.404 . S
C1100 C1103 1.539 . S
C1101 C1097 1.408 . S
C1101 C1100 1.404 . S
C1101 H1113 0.930 . S
C1102 C1098 1.524 . S
C1102 H1114 0.956 . S
C1102 H1115 0.961 . S
C1102 H1116 0.961 . S
C1103 C1100 1.539 . S
C1103 H1117 0.958 . S
C1103 H1118 0.961 . S
C1103 H1119 0.960 . S
H1104 C1088 0.931 . S
H1105 C1093 0.929 . S
H1106 C1094 0.960 . S
H1107 C1094 0.962 . S
H1108 C1094 0.960 . S
H1109 C1095 0.961 . S
H1110 C1095 0.961 . S
H1111 C1095 0.961 . S
H1112 C1096 0.931 . S
H1113 C1101 0.930 . S
H1114 C1102 0.956 . S
H1115 C1102 0.961 . S
H1116 C1102 0.961 . S
H1117 C1103 0.958 . S
H1118 C1103 0.961 . S
H1119 C1103 0.960 . S
C1120 C1121 1.391 . S
C1120 C1122 1.394 . S
C1120 H1136 0.931 . S
C1121 C1120 1.391 . S
C1121 C1125 1.376 1_455 S
C1122 C1120 1.394 . S
C1122 C1123 1.369 . S
C1122 C1126 1.531 . S
C1123 C1122 1.369 . S
C1123 C1124 1.410 1_455 S
C1123 C1131 1.503 . S
C1124 C1123 1.410 1_655 S
C1124 C1125 1.392 . S
C1124 C1127 1.511 . S
C1125 C1121 1.376 1_655 S
C1125 C1124 1.392 . S
C1125 H1137 0.929 . S
C1126 C1122 1.531 . S
C1126 H1138 0.960 . S
C1126 H1139 0.962 . S
C1126 H1140 0.960 . S
C1127 C1124 1.511 . S
C1127 H1141 0.961 . S
C1127 H1142 0.961 . S
C1127 H1143 0.961 . S
C1128 C1129 1.370 . S
C1128 C1130 1.363 . S
C1128 H1144 0.931 . S
C1129 C1128 1.370 . S
C1129 C1133 1.408 . S
C1130 C1128 1.363 . S
C1130 C1131 1.370 . S
C1130 C1134 1.524 . S
C1131 C1123 1.503 . S
C1131 C1130 1.370 . S
C1131 C1132 1.403 . S
C1132 C1131 1.403 . S
C1132 C1133 1.404 . S
C1132 C1135 1.539 . S
C1133 C1129 1.408 . S
C1133 C1132 1.404 . S
C1133 H1145 0.930 . S
C1134 C1130 1.524 . S
C1134 H1146 0.956 . S
C1134 H1147 0.961 . S
C1134 H1148 0.961 . S
C1135 C1132 1.539 . S
C1135 H1149 0.958 . S
C1135 H1150 0.961 1_455 S
C1135 H1151 0.960 1_455 S
H1136 C1120 0.931 . S
H1137 C1125 0.929 . S
H1138 C1126 0.960 . S
H1139 C1126 0.962 . S
H1140 C1126 0.960 . S
H1141 C1127 0.961 . S
H1142 C1127 0.961 . S
H1143 C1127 0.961 . S
H1144 C1128 0.931 . S
H1145 C1133 0.930 . S
H1146 C1134 0.956 . S
H1147 C1134 0.961 . S
H1148 C1134 0.961 . S
H1149 C1135 0.958 . S
H1150 C1135 0.961 1_655 S
H1151 C1135 0.960 1_655 S
C1152 C1153 1.391 . S
C1152 C1154 1.394 . S
C1152 H1168 0.931 . S
C1153 C1152 1.391 . S
C1153 C1157 1.376 1_545 S
C1154 C1152 1.394 . S
C1154 C1155 1.369 . S
C1154 C1158 1.531 . S
C1155 C1154 1.369 . S
C1155 C1156 1.366 1_545 S
C1155 C1163 1.503 . S
C1156 C1155 1.366 1_565 S
C1156 C1157 1.394 . S
C1156 C1159 1.554 . S
C1157 C1153 1.376 1_565 S
C1157 C1156 1.394 . S
C1157 H1169 0.929 . S
C1158 C1154 1.531 . S
C1158 H1170 0.960 . S
C1158 H1171 0.962 . S
C1158 H1172 0.960 . S
C1159 C1156 1.554 . S
C1159 H1173 0.961 . S
C1159 H1174 0.961 . S
C1159 H1175 0.961 . S
C1160 C1161 1.370 . S
C1160 C1162 1.363 . S
C1160 H1176 0.931 . S
C1161 C1160 1.370 . S
C1161 C1165 1.408 . S
C1162 C1160 1.363 . S
C1162 C1163 1.370 . S
C1162 C1166 1.524 . S
C1163 C1155 1.503 . S
C1163 C1162 1.370 . S
C1163 C1164 1.403 . S
C1164 C1163 1.403 . S
C1164 C1165 1.404 . S
C1164 C1167 1.530 1_545 S
C1165 C1161 1.408 . S
C1165 C1164 1.404 . S
C1165 H1177 0.930 . S
C1166 C1162 1.524 . S
C1166 H1178 0.956 . S
C1166 H1179 0.961 . S
C1166 H1180 0.961 . S
C1167 C1164 1.530 1_565 S
C1167 H1181 0.946 1_565 S
C1167 H1182 0.975 . S
C1167 H1183 0.968 . S
H1168 C1152 0.931 . S
H1169 C1157 0.929 . S
H1170 C1158 0.960 . S
H1171 C1158 0.962 . S
H1172 C1158 0.960 . S
H1173 C1159 0.961 . S
H1174 C1159 0.961 . S
H1175 C1159 0.961 . S
H1176 C1160 0.931 . S
H1177 C1165 0.930 . S
H1178 C1166 0.956 . S
H1179 C1166 0.961 . S
H1180 C1166 0.961 . S
H1181 C1167 0.946 1_545 S
H1182 C1167 0.975 . S
H1183 C1167 0.968 . S
C1184 C1185 1.391 1_655 S
C1184 C1186 1.394 . S
C1184 H1200 0.931 . S
C1185 C1184 1.391 1_455 S
C1185 C1189 1.376 . S
C1186 C1184 1.394 . S
C1186 C1187 1.369 1_655 S
C1186 C1190 1.531 . S
C1187 C1186 1.369 1_455 S
C1187 C1188 1.410 . S
C1187 C1195 1.503 . S
C1188 C1187 1.410 . S
C1188 C1189 1.392 . S
C1188 C1191 1.511 . S
C1189 C1185 1.376 . S
C1189 C1188 1.392 . S
C1189 H1201 0.929 . S
C1190 C1186 1.531 . S
C1190 H1202 0.960 . S
C1190 H1203 0.962 . S
C1190 H1204 0.960 . S
C1191 C1188 1.511 . S
C1191 H1205 0.961 . S
C1191 H1206 0.961 . S
C1191 H1207 0.961 . S
C1192 C1193 1.370 . S
C1192 C1194 1.363 . S
C1192 H1208 0.931 . S
C1193 C1192 1.370 . S
C1193 C1197 1.408 1_655 S
C1194 C1192 1.363 . S
C1194 C1195 1.370 1_655 S
C1194 C1198 1.524 . S
C1195 C1187 1.503 . S
C1195 C1194 1.370 1_455 S
C1195 C1196 1.403 . S
C1196 C1195 1.403 . S
C1196 C1197 1.404 . S
C1196 C1199 1.539 . S
C1197 C1193 1.408 1_455 S
C1197 C1196 1.404 . S
C1197 H1209 0.930 . S
C1198 C1194 1.524 . S
C1198 H1210 0.956 . S
C1198 H1211 0.961 . S
C1198 H1212 0.961 . S
C1199 C1196 1.539 . S
C1199 H1213 0.958 . S
C1199 H1214 0.961 . S
C1199 H1215 0.960 . S
H1200 C1184 0.931 . S
H1201 C1189 0.929 . S
H1202 C1190 0.960 . S
H1203 C1190 0.962 . S
H1204 C1190 0.960 . S
H1205 C1191 0.961 . S
H1206 C1191 0.961 . S
H1207 C1191 0.961 . S
H1208 C1192 0.931 . S
H1209 C1197 0.930 . S
H1210 C1198 0.956 . S
H1211 C1198 0.961 . S
H1212 C1198 0.961 . S
H1213 C1199 0.958 . S
H1214 C1199 0.961 . S
H1215 C1199 0.960 . S
C1216 C1217 1.391 . S
C1216 C1218 1.394 . S
C1216 H1232 0.931 . S
C1217 C1216 1.391 . S
C1217 C1221 1.376 1_554 S
C1218 C1216 1.394 . S
C1218 C1219 1.369 . S
C1218 C1222 1.531 . S
C1219 C1218 1.369 . S
C1219 C1220 1.410 1_554 S
C1219 C1227 1.503 . S
C1220 C1219 1.410 1_556 S
C1220 C1221 1.392 . S
C1220 C1223 1.511 . S
C1221 C1217 1.376 1_556 S
C1221 C1220 1.392 . S
C1221 H1233 0.929 . S
C1222 C1218 1.531 . S
C1222 H1234 0.960 . S
C1222 H1235 0.962 . S
C1222 H1236 0.960 . S
C1223 C1220 1.511 . S
C1223 H1237 0.961 . S
C1223 H1238 0.961 . S
C1223 H1239 0.961 . S
C1224 C1225 1.370 . S
C1224 C1226 1.363 . S
C1224 H1240 0.931 1_554 S
C1225 C1224 1.370 . S
C1225 C1229 1.408 . S
C1226 C1224 1.363 . S
C1226 C1227 1.370 . S
C1226 C1230 1.524 1_554 S
C1227 C1219 1.503 . S
C1227 C1226 1.370 . S
C1227 C1228 1.403 . S
C1228 C1227 1.403 . S
C1228 C1229 1.404 . S
C1228 C1231 1.539 . S
C1229 C1225 1.408 . S
C1229 C1228 1.404 . S
C1229 H1241 0.930 . S
C1230 C1226 1.524 1_556 S
C1230 H1242 0.956 1_556 S
C1230 H1243 0.961 . S
C1230 H1244 0.961 . S
C1231 C1228 1.539 . S
C1231 H1245 0.958 . S
C1231 H1246 0.961 . S
C1231 H1247 0.960 . S
H1232 C1216 0.931 . S
H1233 C1221 0.929 . S
H1234 C1222 0.960 . S
H1235 C1222 0.962 . S
H1236 C1222 0.960 . S
H1237 C1223 0.961 . S
H1238 C1223 0.961 . S
H1239 C1223 0.961 . S
H1240 C1224 0.931 1_556 S
H1241 C1229 0.930 . S
H1242 C1230 0.956 1_554 S
H1243 C1230 0.961 . S
H1244 C1230 0.961 . S
H1245 C1231 0.958 . S
H1246 C1231 0.961 . S
H1247 C1231 0.960 . S
C1248 C1249 1.391 1_556 S
C1248 C1250 1.394 . S
C1248 H1264 0.931 . S
C1249 C1248 1.391 1_554 S
C1249 C1253 1.376 . S
C1250 C1248 1.394 . S
C1250 C1251 1.369 1_556 S
C1250 C1254 1.531 . S
C1251 C1250 1.369 1_554 S
C1251 C1252 1.410 . S
C1251 C1259 1.503 . S
C1252 C1251 1.410 . S
C1252 C1253 1.392 . S
C1252 C1255 1.511 . S
C1253 C1249 1.376 . S
C1253 C1252 1.392 . S
C1253 H1265 0.929 . S
C1254 C1250 1.531 . S
C1254 H1266 0.960 . S
C1254 H1267 0.962 . S
C1254 H1268 0.960 . S
C1255 C1252 1.511 . S
C1255 H1269 0.961 . S
C1255 H1270 0.961 . S
C1255 H1271 0.961 . S
C1256 C1257 1.370 . S
C1256 C1258 1.363 . S
C1256 H1272 0.931 1_554 S
C1257 C1256 1.370 . S
C1257 C1261 1.408 . S
C1258 C1256 1.363 . S
C1258 C1259 1.370 . S
C1258 C1262 1.524 1_554 S
C1259 C1251 1.503 . S
C1259 C1258 1.370 . S
C1259 C1260 1.403 . S
C1260 C1259 1.403 . S
C1260 C1261 1.404 . S
C1260 C1263 1.539 . S
C1261 C1257 1.408 . S
C1261 C1260 1.404 . S
C1261 H1273 0.930 . S
C1262 C1258 1.524 1_556 S
C1262 H1274 0.956 . S
C1262 H1275 0.940 1_556 S
C1262 H1276 0.961 . S
C1263 C1260 1.539 . S
C1263 H1277 0.958 . S
C1263 H1278 0.961 . S
C1263 H1279 0.960 . S
H1264 C1248 0.931 . S
H1265 C1253 0.929 . S
H1266 C1254 0.960 . S
H1267 C1254 0.962 . S
H1268 C1254 0.960 . S
H1269 C1255 0.961 . S
H1270 C1255 0.961 . S
H1271 C1255 0.961 . S
H1272 C1256 0.931 1_556 S
H1273 C1261 0.930 . S
H1274 C1262 0.956 . S
H1275 C1262 0.940 1_554 S
H1276 C1262 0.961 . S
H1277 C1263 0.958 . S
H1278 C1263 0.961 . S
H1279 C1263 0.960 . S
C1280 C1281 1.391 . S
C1280 C1282 1.394 . S
C1280 H1296 0.931 . S
C1281 C1280 1.391 . S
C1281 C1285 1.376 1_554 S
C1282 C1280 1.394 . S
C1282 C1283 1.369 . S
C1282 C1286 1.531 . S
C1283 C1282 1.369 . S
C1283 C1284 1.410 1_554 S
C1283 C1291 1.503 . S
C1284 C1283 1.410 1_556 S
C1284 C1285 1.392 . S
C1284 C1287 1.511 . S
C1285 C1281 1.376 1_556 S
C1285 C1284 1.392 . S
C1285 H1297 0.929 . S
C1286 C1282 1.531 . S
C1286 H1298 0.960 . S
C1286 H1299 0.962 . S
C1286 H1300 0.960 . S
C1287 C1284 1.511 . S
C1287 H1301 0.961 . S
C1287 H1302 0.961 . S
C1287 H1303 0.961 . S
C1288 C1289 1.370 . S
C1288 C1290 1.363 . S
C1288 H1304 0.931 . S
C1289 C1288 1.370 . S
C1289 C1293 1.408 . S
C1290 C1288 1.363 . S
C1290 C1291 1.370 . S
C1290 C1294 1.518 1_554 S
C1291 C1283 1.503 . S
C1291 C1290 1.370 . S
C1291 C1292 1.403 . S
C1292 C1291 1.403 . S
C1292 C1293 1.404 . S
C1292 C1295 1.539 . S
C1293 C1289 1.408 . S
C1293 C1292 1.404 . S
C1293 H1305 0.930 . S
C1294 C1290 1.518 1_556 S
C1294 H1306 0.944 1_556 S
C1294 H1307 0.973 . S
C1294 H1308 0.967 . S
C1295 C1292 1.539 . S
C1295 H1309 0.958 . S
C1295 H1310 0.961 . S
C1295 H1311 0.960 . S
H1296 C1280 0.931 . S
H1297 C1285 0.929 . S
H1298 C1286 0.960 . S
H1299 C1286 0.962 . S
H1300 C1286 0.960 . S
H1301 C1287 0.961 . S
H1302 C1287 0.961 . S
H1303 C1287 0.961 . S
H1304 C1288 0.931 . S
H1305 C1293 0.930 . S
H1306 C1294 0.944 1_554 S
H1307 C1294 0.973 . S
H1308 C1294 0.967 . S
H1309 C1295 0.958 . S
H1310 C1295 0.961 . S
H1311 C1295 0.960 . S
C1312 C1313 1.391 . S
C1312 C1314 1.394 . S
C1312 H1328 0.931 . S
C1313 C1312 1.391 . S
C1313 C1317 1.376 1_554 S
C1314 C1312 1.394 . S
C1314 C1315 1.369 . S
C1314 C1318 1.531 . S
C1315 C1314 1.369 . S
C1315 C1316 1.410 1_554 S
C1315 C1323 1.503 . S
C1316 C1315 1.410 1_556 S
C1316 C1317 1.392 . S
C1316 C1319 1.511 . S
C1317 C1313 1.376 1_556 S
C1317 C1316 1.392 . S
C1317 H1329 0.929 . S
C1318 C1314 1.531 . S
C1318 H1330 0.960 . S
C1318 H1331 0.962 . S
C1318 H1332 0.960 . S
C1319 C1316 1.511 . S
C1319 H1333 0.961 . S
C1319 H1334 0.961 . S
C1319 H1335 0.961 . S
C1320 C1321 1.370 . S
C1320 C1322 1.363 . S
C1320 H1336 0.931 . S
C1321 C1320 1.370 . S
C1321 C1325 1.408 . S
C1322 C1320 1.363 . S
C1322 C1323 1.370 . S
C1322 C1326 1.524 . S
C1323 C1315 1.503 . S
C1323 C1322 1.370 . S
C1323 C1324 1.403 . S
C1324 C1323 1.403 . S
C1324 C1325 1.404 . S
C1324 C1327 1.539 . S
C1325 C1321 1.408 . S
C1325 C1324 1.404 . S
C1325 H1337 0.930 . S
C1326 C1322 1.524 . S
C1326 H1338 0.956 . S
C1326 H1339 0.961 . S
C1326 H1340 0.961 . S
C1327 C1324 1.539 . S
C1327 H1341 0.958 . S
C1327 H1342 0.961 1_554 S
C1327 H1343 0.975 . S
H1328 C1312 0.931 . S
H1329 C1317 0.929 . S
H1330 C1318 0.960 . S
H1331 C1318 0.962 . S
H1332 C1318 0.960 . S
H1333 C1319 0.961 . S
H1334 C1319 0.961 . S
H1335 C1319 0.961 . S
H1336 C1320 0.931 . S
H1337 C1325 0.930 . S
H1338 C1326 0.956 . S
H1339 C1326 0.961 . S
H1340 C1326 0.961 . S
H1341 C1327 0.958 . S
H1342 C1327 0.961 1_556 S
H1343 C1327 0.975 . S
C1344 C1345 1.391 . S
C1344 C1346 1.394 . S
C1344 H1360 0.931 . S
C1345 C1344 1.391 . S
C1345 C1349 1.376 . S
C1346 C1344 1.394 . S
C1346 C1347 1.369 1_556 S
C1346 C1350 1.531 1_556 S
C1347 C1346 1.369 1_554 S
C1347 C1348 1.410 1_554 S
C1347 C1355 1.503 . S
C1348 C1347 1.410 1_556 S
C1348 C1349 1.392 . S
C1348 C1351 1.511 1_556 S
C1349 C1345 1.376 . S
C1349 C1348 1.392 . S
C1349 H1361 0.929 . S
C1350 C1346 1.531 1_554 S
C1350 H1362 0.960 . S
C1350 H1363 0.962 . S
C1350 H1364 0.960 . S
C1351 C1348 1.511 1_554 S
C1351 H1365 0.938 1_554 S
C1351 H1366 0.961 . S
C1351 H1367 0.961 . S
C1352 C1353 1.370 . S
C1352 C1354 1.363 . S
C1352 H1368 0.931 . S
C1353 C1352 1.370 . S
C1353 C1357 1.408 . S
C1354 C1352 1.363 . S
C1354 C1355 1.370 . S
C1354 C1358 1.524 . S
C1355 C1347 1.503 . S
C1355 C1354 1.370 . S
C1355 C1356 1.403 . S
C1356 C1355 1.403 . S
C1356 C1357 1.404 . S
C1356 C1359 1.539 . S
C1357 C1353 1.408 . S
C1357 C1356 1.404 . S
C1357 H1369 0.930 . S
C1358 C1354 1.524 . S
C1358 H1370 0.956 . S
C1358 H1371 0.961 . S
C1358 H1372 0.961 . S
C1359 C1356 1.539 . S
C1359 H1373 0.958 . S
C1359 H1374 0.961 . S
C1359 H1375 0.960 . S
H1360 C1344 0.931 . S
H1361 C1349 0.929 . S
H1362 C1350 0.960 . S
H1363 C1350 0.962 . S
H1364 C1350 0.960 . S
H1365 C1351 0.938 1_556 S
H1366 C1351 0.961 . S
H1367 C1351 0.961 . S
H1368 C1352 0.931 . S
H1369 C1357 0.930 . S
H1370 C1358 0.956 . S
H1371 C1358 0.961 . S
H1372 C1358 0.961 . S
H1373 C1359 0.958 . S
H1374 C1359 0.961 . S
H1375 C1359 0.960 . S
C1376 C1377 1.391 . S
C1376 C1378 1.394 . S
C1376 H1392 0.931 . S
C1377 C1376 1.391 . S
C1377 C1381 1.376 . S
C1378 C1376 1.394 . S
C1378 C1379 1.369 . S
C1378 C1382 1.531 . S
C1379 C1378 1.369 . S
C1379 C1380 1.410 . S
C1379 C1387 1.503 1_556 S
C1380 C1379 1.410 . S
C1380 C1381 1.392 . S
C1380 C1383 1.511 . S
C1381 C1377 1.376 . S
C1381 C1380 1.392 . S
C1381 H1393 0.929 . S
C1382 C1378 1.531 . S
C1382 H1394 0.960 1_556 S
C1382 H1395 0.954 1_556 S
C1382 H1396 0.960 . S
C1383 C1380 1.511 . S
C1383 H1397 0.961 . S
C1383 H1398 0.961 1_556 S
C1383 H1399 0.961 . S
C1384 C1385 1.370 . S
C1384 C1386 1.363 . S
C1384 H1400 0.931 . S
C1385 C1384 1.370 . S
C1385 C1389 1.408 . S
C1386 C1384 1.363 . S
C1386 C1387 1.370 . S
C1386 C1390 1.524 . S
C1387 C1379 1.503 1_554 S
C1387 C1386 1.370 . S
C1387 C1388 1.403 . S
C1388 C1387 1.403 . S
C1388 C1389 1.404 . S
C1388 C1391 1.539 . S
C1389 C1385 1.408 . S
C1389 C1388 1.404 . S
C1389 H1401 0.930 . S
C1390 C1386 1.524 . S
C1390 H1402 0.956 . S
C1390 H1403 0.961 . S
C1390 H1404 0.961 . S
C1391 C1388 1.539 . S
C1391 H1405 0.958 . S
C1391 H1406 0.961 . S
C1391 H1407 0.960 . S
H1392 C1376 0.931 . S
H1393 C1381 0.929 . S
H1394 C1382 0.960 1_554 S
H1395 C1382 0.954 1_554 S
H1396 C1382 0.960 . S
H1397 C1383 0.961 . S
H1398 C1383 0.961 1_554 S
H1399 C1383 0.961 . S
H1400 C1384 0.931 . S
H1401 C1389 0.930 . S
H1402 C1390 0.956 . S
H1403 C1390 0.961 . S
H1404 C1390 0.961 . S
H1405 C1391 0.958 . S
H1406 C1391 0.961 . S
H1407 C1391 0.960 . S
C1408 C1409 1.391 . S
C1408 C1410 1.394 . S
C1408 H1424 0.931 . S
C1409 C1408 1.391 . S
C1409 C1413 1.376 . S
C1410 C1408 1.394 . S
C1410 C1411 1.369 . S
C1410 C1414 1.531 . S
C1411 C1410 1.369 . S
C1411 C1412 1.410 . S
C1411 C1419 1.503 1_556 S
C1412 C1411 1.410 . S
C1412 C1413 1.392 . S
C1412 C1415 1.526 . S
C1413 C1409 1.376 . S
C1413 C1412 1.392 . S
C1413 H1425 0.929 . S
C1414 C1410 1.531 . S
C1414 H1426 0.960 1_556 S
C1414 H1427 0.962 . S
C1414 H1428 0.960 . S
C1415 C1412 1.526 . S
C1415 H1429 0.974 . S
C1415 H1430 0.937 1_556 S
C1415 H1431 0.957 1_556 S
C1416 C1417 1.370 . S
C1416 C1418 1.363 . S
C1416 H1432 0.931 . S
C1417 C1416 1.370 . S
C1417 C1421 1.408 . S
C1418 C1416 1.363 . S
C1418 C1419 1.370 . S
C1418 C1422 1.524 . S
C1419 C1411 1.503 1_554 S
C1419 C1418 1.370 . S
C1419 C1420 1.403 . S
C1420 C1419 1.403 . S
C1420 C1421 1.404 . S
C1420 C1423 1.539 . S
C1421 C1417 1.408 . S
C1421 C1420 1.404 . S
C1421 H1433 0.930 . S
C1422 C1418 1.524 . S
C1422 H1434 0.956 . S
C1422 H1435 0.961 . S
C1422 H1436 0.961 . S
C1423 C1420 1.539 . S
C1423 H1437 0.958 . S
C1423 H1438 0.961 . S
C1423 H1439 0.960 . S
H1424 C1408 0.931 . S
H1425 C1413 0.929 . S
H1426 C1414 0.960 1_554 S
H1427 C1414 0.962 . S
H1428 C1414 0.960 . S
H1429 C1415 0.974 . S
H1430 C1415 0.937 1_554 S
H1431 C1415 0.957 1_554 S
H1432 C1416 0.931 . S
H1433 C1421 0.930 . S
H1434 C1422 0.956 . S
H1435 C1422 0.961 . S
H1436 C1422 0.961 . S
H1437 C1423 0.958 . S
H1438 C1423 0.961 . S
H1439 C1423 0.960 . S
C1440 C1441 1.391 . S
C1440 C1442 1.394 . S
C1440 H1456 0.931 . S
C1441 C1440 1.391 . S
C1441 C1445 1.376 . S
C1442 C1440 1.394 . S
C1442 C1443 1.369 . S
C1442 C1446 1.531 . S
C1443 C1442 1.369 . S
C1443 C1444 1.410 . S
C1443 C1451 1.503 1_556 S
C1444 C1443 1.410 . S
C1444 C1445 1.392 . S
C1444 C1447 1.511 . S
C1445 C1441 1.376 . S
C1445 C1444 1.392 . S
C1445 H1457 0.929 . S
C1446 C1442 1.531 . S
C1446 H1458 0.960 1_556 S
C1446 H1459 0.962 . S
C1446 H1460 0.960 . S
C1447 C1444 1.511 . S
C1447 H1461 0.961 . S
C1447 H1462 0.961 1_556 S
C1447 H1463 0.961 1_556 S
C1448 C1449 1.370 . S
C1448 C1450 1.363 . S
C1448 H1464 0.931 . S
C1449 C1448 1.370 . S
C1449 C1453 1.408 . S
C1450 C1448 1.363 . S
C1450 C1451 1.370 . S
C1450 C1454 1.524 . S
C1451 C1443 1.503 1_554 S
C1451 C1450 1.370 . S
C1451 C1452 1.403 . S
C1452 C1451 1.403 . S
C1452 C1453 1.404 . S
C1452 C1455 1.539 . S
C1453 C1449 1.408 . S
C1453 C1452 1.404 . S
C1453 H1465 0.930 . S
C1454 C1450 1.524 . S
C1454 H1466 0.956 . S
C1454 H1467 0.961 . S
C1454 H1468 0.961 . S
C1455 C1452 1.539 . S
C1455 H1469 0.958 . S
C1455 H1470 0.961 . S
C1455 H1471 0.960 . S
H1456 C1440 0.931 . S
H1457 C1445 0.929 . S
H1458 C1446 0.960 1_554 S
H1459 C1446 0.962 . S
H1460 C1446 0.960 . S
H1461 C1447 0.961 . S
H1462 C1447 0.961 1_554 S
H1463 C1447 0.961 1_554 S
H1464 C1448 0.931 . S
H1465 C1453 0.930 . S
H1466 C1454 0.956 . S
H1467 C1454 0.961 . S
H1468 C1454 0.961 . S
H1469 C1455 0.958 . S
H1470 C1455 0.961 . S
H1471 C1455 0.960 . S
C1472 C1473 1.391 . S
C1472 C1474 1.394 . S
C1472 H1488 0.931 . S
C1473 C1472 1.391 . S
C1473 C1477 1.376 . S
C1474 C1472 1.394 . S
C1474 C1475 1.369 . S
C1474 C1478 1.531 . S
C1475 C1474 1.369 . S
C1475 C1476 1.410 . S
C1475 C1483 1.503 1_655 S
C1476 C1475 1.410 . S
C1476 C1477 1.392 . S
C1476 C1479 1.511 . S
C1477 C1473 1.376 . S
C1477 C1476 1.392 . S
C1477 H1489 0.929 . S
C1478 C1474 1.531 . S
C1478 H1490 0.960 1_655 S
C1478 H1491 0.962 . S
C1478 H1492 0.960 . S
C1479 C1476 1.511 . S
C1479 H1493 0.961 . S
C1479 H1494 0.961 1_655 S
C1479 H1495 0.956 1_655 S
C1480 C1481 1.370 . S
C1480 C1482 1.363 . S
C1480 H1496 0.931 . S
C1481 C1480 1.370 . S
C1481 C1485 1.408 . S
C1482 C1480 1.363 . S
C1482 C1483 1.370 . S
C1482 C1486 1.524 . S
C1483 C1475 1.503 1_455 S
C1483 C1482 1.370 . S
C1483 C1484 1.403 . S
C1484 C1483 1.403 . S
C1484 C1485 1.404 . S
C1484 C1487 1.539 . S
C1485 C1481 1.408 . S
C1485 C1484 1.404 . S
C1485 H1497 0.930 . S
C1486 C1482 1.524 . S
C1486 H1498 0.956 . S
C1486 H1499 0.961 . S
C1486 H1500 0.961 . S
C1487 C1484 1.539 . S
C1487 H1501 0.958 . S
C1487 H1502 0.961 . S
C1487 H1503 0.960 . S
H1488 C1472 0.931 . S
H1489 C1477 0.929 . S
H1490 C1478 0.960 1_455 S
H1491 C1478 0.962 . S
H1492 C1478 0.960 . S
H1493 C1479 0.961 . S
H1494 C1479 0.961 1_455 S
H1495 C1479 0.956 1_455 S
H1496 C1480 0.931 . S
H1497 C1485 0.930 . S
H1498 C1486 0.956 . S
H1499 C1486 0.961 . S
H1500 C1486 0.961 . S
H1501 C1487 0.958 . S
H1502 C1487 0.961 . S
H1503 C1487 0.960 . S
C1504 C1505 1.391 . S
C1504 C1506 1.394 . S
C1504 H1520 0.931 . S
C1505 C1504 1.391 . S
C1505 C1509 1.376 . S
C1506 C1504 1.394 . S
C1506 C1507 1.369 1_565 S
C1506 C1510 1.532 1_565 S
C1507 C1506 1.369 1_545 S
C1507 C1508 1.410 1_545 S
C1507 C1515 1.503 . S
C1508 C1507 1.410 1_565 S
C1508 C1509 1.392 . S
C1508 C1511 1.511 1_565 S
C1509 C1505 1.376 . S
C1509 C1508 1.392 . S
C1509 H1521 0.929 . S
C1510 C1506 1.532 1_545 S
C1510 H1522 0.957 . S
C1510 H1523 0.961 . S
C1510 H1524 0.962 1_545 S
C1511 C1508 1.511 1_545 S
C1511 H1525 0.961 1_545 S
C1511 H1526 0.961 . S
C1511 H1527 0.961 . S
C1512 C1513 1.370 . S
C1512 C1514 1.363 . S
C1512 H1528 0.931 . S
C1513 C1512 1.370 . S
C1513 C1517 1.408 . S
C1514 C1512 1.363 . S
C1514 C1515 1.370 . S
C1514 C1518 1.524 . S
C1515 C1507 1.503 . S
C1515 C1514 1.370 . S
C1515 C1516 1.403 . S
C1516 C1515 1.403 . S
C1516 C1517 1.404 . S
C1516 C1519 1.539 . S
C1517 C1513 1.408 . S
C1517 C1516 1.404 . S
C1517 H1529 0.930 . S
C1518 C1514 1.524 . S
C1518 H1530 0.956 . S
C1518 H1531 0.961 . S
C1518 H1532 0.961 . S
C1519 C1516 1.539 . S
C1519 H1533 0.958 . S
C1519 H1534 0.961 . S
C1519 H1535 0.960 . S
H1520 C1504 0.931 . S
H1521 C1509 0.929 . S
H1522 C1510 0.957 . S
H1523 C1510 0.961 . S
H1524 C1510 0.962 1_565 S
H1525 C1511 0.961 1_565 S
H1526 C1511 0.961 . S
H1527 C1511 0.961 . S
H1528 C1512 0.931 . S
H1529 C1517 0.930 . S
H1530 C1518 0.956 . S
H1531 C1518 0.961 . S
H1532 C1518 0.961 . S
H1533 C1519 0.958 . S
H1534 C1519 0.961 . S
H1535 C1519 0.960 . S
C1536 C1537 1.391 . S
C1536 C1538 1.394 . S
C1536 H1552 0.931 . S
C1537 C1536 1.391 . S
C1537 C1541 1.376 . S
C1538 C1536 1.394 . S
C1538 C1539 1.369 . S
C1538 C1542 1.531 . S
C1539 C1538 1.369 . S
C1539 C1540 1.410 . S
C1539 C1547 1.503 1_655 S
C1540 C1539 1.410 . S
C1540 C1541 1.392 . S
C1540 C1543 1.511 . S
C1541 C1537 1.376 . S
C1541 C1540 1.392 . S
C1541 H1553 0.929 . S
C1542 C1538 1.531 . S
C1542 H1554 0.960 1_655 S
C1542 H1555 0.962 1_655 S
C1542 H1556 0.960 . S
C1543 C1540 1.511 . S
C1543 H1557 0.961 . S
C1543 H1558 0.961 1_655 S
C1543 H1559 0.961 . S
C1544 C1545 1.370 . S
C1544 C1546 1.363 . S
C1544 H1560 0.931 . S
C1545 C1544 1.370 . S
C1545 C1549 1.408 . S
C1546 C1544 1.363 . S
C1546 C1547 1.370 . S
C1546 C1550 1.524 . S
C1547 C1539 1.503 1_455 S
C1547 C1546 1.370 . S
C1547 C1548 1.403 . S
C1548 C1547 1.403 . S
C1548 C1549 1.404 . S
C1548 C1551 1.539 . S
C1549 C1545 1.408 . S
C1549 C1548 1.404 . S
C1549 H1561 0.930 . S
C1550 C1546 1.524 . S
C1550 H1562 0.956 . S
C1550 H1563 0.961 . S
C1550 H1564 0.961 . S
C1551 C1548 1.539 . S
C1551 H1565 0.958 . S
C1551 H1566 0.961 . S
C1551 H1567 0.960 . S
H1552 C1536 0.931 . S
H1553 C1541 0.929 . S
H1554 C1542 0.960 1_455 S
H1555 C1542 0.962 1_455 S
H1556 C1542 0.960 . S
H1557 C1543 0.961 . S
H1558 C1543 0.961 1_455 S
H1559 C1543 0.961 . S
H1560 C1544 0.931 . S
H1561 C1549 0.930 . S
H1562 C1550 0.956 . S
H1563 C1550 0.961 . S
H1564 C1550 0.961 . S
H1565 C1551 0.958 . S
H1566 C1551 0.961 . S
H1567 C1551 0.960 . S
C1568 C1569 1.391 . S
C1568 C1570 1.394 . S
C1568 H1584 0.931 . S
C1569 C1568 1.391 . S
C1569 C1573 1.376 . S
C1570 C1568 1.394 . S
C1570 C1571 1.369 . S
C1570 C1574 1.531 . S
C1571 C1570 1.369 . S
C1571 C1572 1.410 . S
C1571 C1579 1.503 1_545 S
C1572 C1571 1.410 . S
C1572 C1573 1.392 . S
C1572 C1575 1.511 . S
C1573 C1569 1.376 . S
C1573 C1572 1.392 . S
C1573 H1585 0.929 . S
C1574 C1570 1.531 . S
C1574 H1586 0.960 . S
C1574 H1587 0.962 . S
C1574 H1588 0.960 . S
C1575 C1572 1.511 . S
C1575 H1589 0.961 . S
C1575 H1590 0.961 . S
C1575 H1591 0.961 . S
C1576 C1577 1.370 . S
C1576 C1578 1.363 . S
C1576 H1592 0.931 . S
C1577 C1576 1.370 . S
C1577 C1581 1.408 . S
C1578 C1576 1.363 . S
C1578 C1579 1.370 . S
C1578 C1582 1.524 . S
C1579 C1571 1.503 1_565 S
C1579 C1578 1.370 . S
C1579 C1580 1.403 . S
C1580 C1579 1.403 . S
C1580 C1581 1.404 . S
C1580 C1583 1.539 . S
C1581 C1577 1.408 . S
C1581 C1580 1.404 . S
C1581 H1593 0.930 . S
C1582 C1578 1.524 . S
C1582 H1594 0.956 1_565 S
C1582 H1595 0.961 1_565 S
C1582 H1596 0.961 . S
C1583 C1580 1.539 . S
C1583 H1597 0.958 . S
C1583 H1598 0.961 . S
C1583 H1599 0.960 1_565 S
H1584 C1568 0.931 . S
H1585 C1573 0.929 . S
H1586 C1574 0.960 . S
H1587 C1574 0.962 . S
H1588 C1574 0.960 . S
H1589 C1575 0.961 . S
H1590 C1575 0.961 . S
H1591 C1575 0.961 . S
H1592 C1576 0.931 . S
H1593 C1581 0.930 . S
H1594 C1582 0.956 1_545 S
H1595 C1582 0.961 1_545 S
H1596 C1582 0.961 . S
H1597 C1583 0.958 . S
H1598 C1583 0.961 . S
H1599 C1583 0.960 1_545 S
C1600 C1601 1.391 . S
C1600 C1602 1.394 . S
C1600 H1616 0.931 . S
C1601 C1600 1.391 . S
C1601 C1605 1.376 . S
C1602 C1600 1.394 . S
C1602 C1603 1.369 . S
C1602 C1606 1.531 1_565 S
C1603 C1602 1.369 . S
C1603 C1604 1.410 . S
C1603 C1611 1.503 1_565 S
C1604 C1603 1.410 . S
C1604 C1605 1.392 . S
C1604 C1607 1.511 . S
C1605 C1601 1.376 . S
C1605 C1604 1.392 . S
C1605 H1617 0.929 . S
C1606 C1602 1.531 1_545 S
C1606 H1618 0.960 . S
C1606 H1619 0.962 . S
C1606 H1620 0.960 1_545 S
C1607 C1604 1.511 . S
C1607 H1621 0.961 . S
C1607 H1622 0.961 1_565 S
C1607 H1623 0.960 . S
C1608 C1609 1.370 . S
C1608 C1610 1.363 . S
C1608 H1624 0.931 . S
C1609 C1608 1.370 . S
C1609 C1613 1.408 . S
C1610 C1608 1.363 . S
C1610 C1611 1.370 . S
C1610 C1614 1.524 . S
C1611 C1603 1.503 1_545 S
C1611 C1610 1.370 . S
C1611 C1612 1.403 . S
C1612 C1611 1.403 . S
C1612 C1613 1.404 . S
C1612 C1615 1.539 . S
C1613 C1609 1.408 . S
C1613 C1612 1.404 . S
C1613 H1625 0.930 . S
C1614 C1610 1.524 . S
C1614 H1626 0.956 . S
C1614 H1627 0.961 . S
C1614 H1628 0.961 . S
C1615 C1612 1.539 . S
C1615 H1629 0.958 . S
C1615 H1630 0.961 . S
C1615 H1631 0.960 . S
H1616 C1600 0.931 . S
H1617 C1605 0.929 . S
H1618 C1606 0.960 . S
H1619 C1606 0.962 . S
H1620 C1606 0.960 1_565 S
H1621 C1607 0.961 . S
H1622 C1607 0.961 1_545 S
H1623 C1607 0.960 . S
H1624 C1608 0.931 . S
H1625 C1613 0.930 . S
H1626 C1614 0.956 . S
H1627 C1614 0.961 . S
H1628 C1614 0.961 . S
H1629 C1615 0.958 . S
H1630 C1615 0.961 . S
H1631 C1615 0.960 . S
C1632 C1633 1.391 . S
C1632 C1634 1.394 . S
C1632 H1648 0.931 . S
C1633 C1632 1.391 . S
C1633 C1637 1.376 . S
C1634 C1632 1.394 . S
C1634 C1635 1.369 . S
C1634 C1638 1.531 . S
C1635 C1634 1.369 . S
C1635 C1636 1.410 . S
C1635 C1643 1.503 1_455 S
C1636 C1635 1.410 . S
C1636 C1637 1.392 . S
C1636 C1639 1.511 . S
C1637 C1633 1.376 . S
C1637 C1636 1.392 . S
C1637 H1649 0.929 . S
C1638 C1634 1.531 . S
C1638 H1650 0.960 . S
C1638 H1651 0.962 . S
C1638 H1652 0.960 . S
C1639 C1636 1.511 . S
C1639 H1653 0.961 . S
C1639 H1654 0.961 . S
C1639 H1655 0.961 . S
C1640 C1641 1.370 . S
C1640 C1642 1.363 . S
C1640 H1656 0.931 . S
C1641 C1640 1.370 . S
C1641 C1645 1.408 . S
C1642 C1640 1.363 . S
C1642 C1643 1.370 . S
C1642 C1646 1.539 . S
C1643 C1635 1.503 1_655 S
C1643 C1642 1.370 . S
C1643 C1644 1.403 . S
C1644 C1643 1.403 . S
C1644 C1645 1.404 . S
C1644 C1647 1.539 . S
C1645 C1641 1.408 . S
C1645 C1644 1.404 . S
C1645 H1657 0.930 . S
C1646 C1642 1.539 . S
C1646 H1658 0.940 1_655 S
C1646 H1659 0.946 1_655 S
C1646 H1660 0.977 . S
C1647 C1644 1.539 . S
C1647 H1661 0.958 . S
C1647 H1662 0.961 . S
C1647 H1663 0.960 1_655 S
H1648 C1632 0.931 . S
H1649 C1637 0.929 . S
H1650 C1638 0.960 . S
H1651 C1638 0.962 . S
H1652 C1638 0.960 . S
H1653 C1639 0.961 . S
H1654 C1639 0.961 . S
H1655 C1639 0.961 . S
H1656 C1640 0.931 . S
H1657 C1645 0.930 . S
H1658 C1646 0.940 1_455 S
H1659 C1646 0.946 1_455 S
H1660 C1646 0.977 . S
H1661 C1647 0.958 . S
H1662 C1647 0.961 . S
H1663 C1647 0.960 1_455 S
C1664 C1665 1.391 . S
C1664 C1666 1.394 . S
C1664 H1680 0.931 . S
C1665 C1664 1.391 . S
C1665 C1669 1.376 . S
C1666 C1664 1.394 . S
C1666 C1667 1.369 . S
C1666 C1670 1.531 . S
C1667 C1666 1.369 . S
C1667 C1668 1.410 . S
C1667 C1675 1.503 1_565 S
C1668 C1667 1.410 . S
C1668 C1669 1.392 . S
C1668 C1671 1.517 . S
C1669 C1665 1.376 . S
C1669 C1668 1.392 . S
C1669 H1681 0.929 . S
C1670 C1666 1.531 . S
C1670 H1682 0.960 1_565 S
C1670 H1683 0.962 1_565 S
C1670 H1684 0.960 . S
C1671 C1668 1.517 . S
C1671 H1685 0.967 . S
C1671 H1686 0.950 1_565 S
C1671 H1687 0.959 1_565 S
C1672 C1673 1.370 . S
C1672 C1674 1.363 . S
C1672 H1688 0.931 . S
C1673 C1672 1.370 . S
C1673 C1677 1.408 . S
C1674 C1672 1.363 . S
C1674 C1675 1.370 . S
C1674 C1678 1.524 . S
C1675 C1667 1.503 1_545 S
C1675 C1674 1.370 . S
C1675 C1676 1.403 . S
C1676 C1675 1.403 . S
C1676 C1677 1.404 . S
C1676 C1679 1.539 . S
C1677 C1673 1.408 . S
C1677 C1676 1.404 . S
C1677 H1689 0.930 . S
C1678 C1674 1.524 . S
C1678 H1690 0.956 . S
C1678 H1691 0.961 . S
C1678 H1692 0.961 . S
C1679 C1676 1.539 . S
C1679 H1693 0.958 . S
C1679 H1694 0.961 . S
C1679 H1695 0.960 . S
H1680 C1664 0.931 . S
H1681 C1669 0.929 . S
H1682 C1670 0.960 1_545 S
H1683 C1670 0.962 1_545 S
H1684 C1670 0.960 . S
H1685 C1671 0.967 . S
H1686 C1671 0.950 1_545 S
H1687 C1671 0.959 1_545 S
H1688 C1672 0.931 . S
H1689 C1677 0.930 . S
H1690 C1678 0.956 . S
H1691 C1678 0.961 . S
H1692 C1678 0.961 . S
H1693 C1679 0.958 . S
H1694 C1679 0.961 . S
H1695 C1679 0.960 . S
C1696 C1697 1.391 . S
C1696 C1698 1.394 . S
C1696 H1712 0.931 . S
C1697 C1696 1.391 . S
C1697 C1701 1.376 . S
C1698 C1696 1.394 . S
C1698 C1699 1.369 . S
C1698 C1702 1.531 . S
C1699 C1698 1.369 . S
C1699 C1700 1.410 . S
C1699 C1707 1.503 1_455 S
C1700 C1699 1.410 . S
C1700 C1701 1.392 . S
C1700 C1703 1.511 . S
C1701 C1697 1.376 . S
C1701 C1700 1.392 . S
C1701 H1713 0.929 . S
C1702 C1698 1.531 . S
C1702 H1714 0.960 . S
C1702 H1715 0.962 . S
C1702 H1716 0.960 . S
C1703 C1700 1.511 . S
C1703 H1717 0.961 . S
C1703 H1718 0.961 . S
C1703 H1719 0.961 . S
C1704 C1705 1.370 . S
C1704 C1706 1.363 . S
C1704 H1720 0.931 . S
C1705 C1704 1.370 . S
C1705 C1709 1.408 . S
C1706 C1704 1.363 . S
C1706 C1707 1.370 . S
C1706 C1710 1.524 . S
C1707 C1699 1.503 1_655 S
C1707 C1706 1.370 . S
C1707 C1708 1.403 . S
C1708 C1707 1.403 . S
C1708 C1709 1.404 . S
C1708 C1711 1.539 . S
C1709 C1705 1.408 . S
C1709 C1708 1.404 . S
C1709 H1721 0.930 . S
C1710 C1706 1.524 . S
C1710 H1722 0.956 1_655 S
C1710 H1723 0.961 1_655 S
C1710 H1724 0.961 . S
C1711 C1708 1.539 . S
C1711 H1725 0.953 1_655 S
C1711 H1726 0.961 . S
C1711 H1727 0.960 1_655 S
H1712 C1696 0.931 . S
H1713 C1701 0.929 . S
H1714 C1702 0.960 . S
H1715 C1702 0.962 . S
H1716 C1702 0.960 . S
H1717 C1703 0.961 . S
H1718 C1703 0.961 . S
H1719 C1703 0.961 . S
H1720 C1704 0.931 . S
H1721 C1709 0.930 . S
H1722 C1710 0.956 1_455 S
H1723 C1710 0.961 1_455 S
H1724 C1710 0.961 . S
H1725 C1711 0.953 1_455 S
H1726 C1711 0.961 . S
H1727 C1711 0.960 1_455 S
C1728 C1729 1.403 . S
C1728 C1730 1.394 . S
C1728 H1744 0.919 1_455 S
C1729 C1728 1.403 . S
C1729 C1733 1.376 . S
C1730 C1728 1.394 . S
C1730 C1731 1.394 . S
C1730 C1734 1.505 1_455 S
C1731 C1730 1.394 . S
C1731 C1732 1.410 . S
C1731 C1739 1.503 . S
C1732 C1731 1.410 . S
C1732 C1733 1.392 . S
C1732 C1735 1.511 . S
C1733 C1729 1.376 . S
C1733 C1732 1.392 . S
C1733 H1745 0.929 . S
C1734 C1730 1.505 1_655 S
C1734 H1746 0.960 . S
C1734 H1747 0.962 . S
C1734 H1748 0.960 . S
C1735 C1732 1.511 . S
C1735 H1749 0.961 . S
C1735 H1750 0.961 . S
C1735 H1751 0.961 . S
C1736 C1737 1.370 . S
C1736 C1738 1.363 . S
C1736 H1752 0.931 1_455 S
C1737 C1736 1.370 . S
C1737 C1741 1.408 . S
C1738 C1736 1.363 . S
C1738 C1739 1.370 . S
C1738 C1742 1.524 1_455 S
C1739 C1731 1.503 . S
C1739 C1738 1.370 . S
C1739 C1740 1.403 . S
C1740 C1739 1.403 . S
C1740 C1741 1.404 . S
C1740 C1743 1.539 . S
C1741 C1737 1.408 . S
C1741 C1740 1.404 . S
C1741 H1753 0.930 . S
C1742 C1738 1.524 1_655 S
C1742 H1754 0.956 . S
C1742 H1755 0.961 1_655 S
C1742 H1756 0.961 . S
C1743 C1740 1.539 . S
C1743 H1757 0.958 . S
C1743 H1758 0.961 . S
C1743 H1759 0.960 . S
H1744 C1728 0.919 1_655 S
H1745 C1733 0.929 . S
H1746 C1734 0.960 . S
H1747 C1734 0.962 . S
H1748 C1734 0.960 . S
H1749 C1735 0.961 . S
H1750 C1735 0.961 . S
H1751 C1735 0.961 . S
H1752 C1736 0.931 1_655 S
H1753 C1741 0.930 . S
H1754 C1742 0.956 . S
H1755 C1742 0.961 1_455 S
H1756 C1742 0.961 . S
H1757 C1743 0.958 . S
H1758 C1743 0.961 . S
H1759 C1743 0.960 . S
C1760 C1761 1.391 . S
C1760 C1762 1.392 1_565 S
C1760 H1776 0.932 . S
C1761 C1760 1.391 . S
C1761 C1765 1.373 1_565 S
C1762 C1760 1.392 1_545 S
C1762 C1763 1.369 . S
C1762 C1766 1.531 . S
C1763 C1762 1.369 . S
C1763 C1764 1.410 . S
C1763 C1771 1.503 . S
C1764 C1763 1.410 . S
C1764 C1765 1.392 . S
C1764 C1767 1.511 . S
C1765 C1761 1.373 1_545 S
C1765 C1764 1.392 . S
C1765 H1777 0.929 . S
C1766 C1762 1.531 . S
C1766 H1778 0.960 . S
C1766 H1779 0.962 1_545 S
C1766 H1780 0.960 . S
C1767 C1764 1.511 . S
C1767 H1781 0.961 . S
C1767 H1782 0.961 1_545 S
C1767 H1783 0.961 . S
C1768 C1769 1.370 1_565 S
C1768 C1770 1.363 . S
C1768 H1784 0.931 . S
C1769 C1768 1.370 1_545 S
C1769 C1773 1.408 . S
C1770 C1768 1.363 . S
C1770 C1771 1.370 1_565 S
C1770 C1774 1.524 . S
C1771 C1763 1.503 . S
C1771 C1770 1.370 1_545 S
C1771 C1772 1.403 . S
C1772 C1771 1.403 . S
C1772 C1773 1.404 . S
C1772 C1775 1.539 . S
C1773 C1769 1.408 . S
C1773 C1772 1.404 . S
C1773 H1785 0.930 . S
C1774 C1770 1.524 . S
C1774 H1786 0.956 . S
C1774 H1787 0.961 . S
C1774 H1788 0.961 . S
C1775 C1772 1.539 . S
C1775 H1789 0.958 . S
C1775 H1790 0.961 . S
C1775 H1791 0.960 . S
H1776 C1760 0.932 . S
H1777 C1765 0.929 . S
H1778 C1766 0.960 . S
H1779 C1766 0.962 1_565 S
H1780 C1766 0.960 . S
H1781 C1767 0.961 . S
H1782 C1767 0.961 1_565 S
H1783 C1767 0.961 . S
H1784 C1768 0.931 . S
H1785 C1773 0.930 . S
H1786 C1774 0.956 . S
H1787 C1774 0.961 . S
H1788 C1774 0.961 . S
H1789 C1775 0.958 . S
H1790 C1775 0.961 . S
H1791 C1775 0.960 . S
C1792 C1793 1.391 . S
C1792 C1794 1.394 . S
C1792 H1808 0.931 . S
C1793 C1792 1.391 . S
C1793 C1797 1.376 1_455 S
C1794 C1792 1.394 . S
C1794 C1795 1.369 . S
C1794 C1798 1.531 . S
C1795 C1794 1.369 . S
C1795 C1796 1.410 1_455 S
C1795 C1803 1.503 . S
C1796 C1795 1.410 1_655 S
C1796 C1797 1.392 . S
C1796 C1799 1.511 . S
C1797 C1793 1.376 1_655 S
C1797 C1796 1.392 . S
C1797 H1809 0.929 . S
C1798 C1794 1.531 . S
C1798 H1810 0.960 . S
C1798 H1811 0.962 . S
C1798 H1812 0.960 . S
C1799 C1796 1.511 . S
C1799 H1813 0.961 . S
C1799 H1814 0.961 . S
C1799 H1815 0.961 . S
C1800 C1801 1.370 . S
C1800 C1802 1.363 . S
C1800 H1816 0.931 . S
C1801 C1800 1.370 . S
C1801 C1805 1.408 . S
C1802 C1800 1.363 . S
C1802 C1803 1.370 . S
C1802 C1806 1.524 . S
C1803 C1795 1.503 . S
C1803 C1802 1.370 . S
C1803 C1804 1.403 . S
C1804 C1803 1.403 . S
C1804 C1805 1.404 . S
C1804 C1807 1.539 1_455 S
C1805 C1801 1.408 . S
C1805 C1804 1.404 . S
C1805 H1817 0.930 . S
C1806 C1802 1.524 . S
C1806 H1818 0.956 . S
C1806 H1819 0.961 . S
C1806 H1820 0.961 . S
C1807 C1804 1.539 1_655 S
C1807 H1821 0.958 1_655 S
C1807 H1822 0.961 . S
C1807 H1823 0.960 . S
H1808 C1792 0.931 . S
H1809 C1797 0.929 . S
H1810 C1798 0.960 . S
H1811 C1798 0.962 . S
H1812 C1798 0.960 . S
H1813 C1799 0.961 . S
H1814 C1799 0.961 . S
H1815 C1799 0.961 . S
H1816 C1800 0.931 . S
H1817 C1805 0.930 . S
H1818 C1806 0.956 . S
H1819 C1806 0.961 . S
H1820 C1806 0.961 . S
H1821 C1807 0.958 1_455 S
H1822 C1807 0.961 . S
H1823 C1807 0.960 . S
C1824 C1825 1.391 . S
C1824 C1826 1.396 . S
C1824 H1840 0.930 1_545 S
C1825 C1824 1.391 . S
C1825 C1829 1.376 . S
C1826 C1824 1.396 . S
C1826 C1827 1.373 . S
C1826 C1830 1.525 1_545 S
C1827 C1826 1.373 . S
C1827 C1828 1.410 . S
C1827 C1835 1.503 . S
C1828 C1827 1.410 . S
C1828 C1829 1.392 . S
C1828 C1831 1.511 . S
C1829 C1825 1.376 . S
C1829 C1828 1.392 . S
C1829 H1841 0.929 . S
C1830 C1826 1.525 1_565 S
C1830 H1842 0.960 . S
C1830 H1843 0.962 1_565 S
C1830 H1844 0.960 . S
C1831 C1828 1.511 . S
C1831 H1845 0.961 . S
C1831 H1846 0.961 . S
C1831 H1847 0.961 1_545 S
C1832 C1833 1.370 . S
C1832 C1834 1.363 . S
C1832 H1848 0.931 . S
C1833 C1832 1.370 . S
C1833 C1837 1.408 1_545 S
C1834 C1832 1.363 . S
C1834 C1835 1.370 . S
C1834 C1838 1.524 . S
C1835 C1827 1.503 . S
C1835 C1834 1.370 . S
C1835 C1836 1.403 1_545 S
C1836 C1835 1.403 1_565 S
C1836 C1837 1.404 . S
C1836 C1839 1.539 . S
C1837 C1833 1.408 1_565 S
C1837 C1836 1.404 . S
C1837 H1849 0.930 . S
C1838 C1834 1.524 . S
C1838 H1850 0.956 . S
C1838 H1851 0.961 . S
C1838 H1852 0.961 . S
C1839 C1836 1.539 . S
C1839 H1853 0.958 . S
C1839 H1854 0.961 . S
C1839 H1855 0.960 . S
H1840 C1824 0.930 1_565 S
H1841 C1829 0.929 . S
H1842 C1830 0.960 . S
H1843 C1830 0.962 1_545 S
H1844 C1830 0.960 . S
H1845 C1831 0.961 . S
H1846 C1831 0.961 . S
H1847 C1831 0.961 1_565 S
H1848 C1832 0.931 . S
H1849 C1837 0.930 . S
H1850 C1838 0.956 . S
H1851 C1838 0.961 . S
H1852 C1838 0.961 . S
H1853 C1839 0.958 . S
H1854 C1839 0.961 . S
H1855 C1839 0.960 . S
C1856 C1857 1.391 1_655 S
C1856 C1858 1.394 . S
C1856 H1872 0.931 . S
C1857 C1856 1.391 1_455 S
C1857 C1861 1.376 . S
C1858 C1856 1.394 . S
C1858 C1859 1.369 1_655 S
C1858 C1862 1.531 . S
C1859 C1858 1.369 1_455 S
C1859 C1860 1.410 . S
C1859 C1867 1.503 . S
C1860 C1859 1.410 . S
C1860 C1861 1.392 . S
C1860 C1863 1.511 . S
C1861 C1857 1.376 . S
C1861 C1860 1.392 . S
C1861 H1873 0.929 . S
C1862 C1858 1.531 . S
C1862 H1874 0.960 . S
C1862 H1875 0.962 . S
C1862 H1876 0.960 . S
C1863 C1860 1.511 . S
C1863 H1877 0.961 . S
C1863 H1878 0.961 . S
C1863 H1879 0.961 . S
C1864 C1865 1.370 . S
C1864 C1866 1.363 . S
C1864 H1880 0.931 1_455 S
C1865 C1864 1.370 . S
C1865 C1869 1.408 . S
C1866 C1864 1.363 . S
C1866 C1867 1.370 . S
C1866 C1870 1.524 1_455 S
C1867 C1859 1.503 . S
C1867 C1866 1.370 . S
C1867 C1868 1.403 . S
C1868 C1867 1.403 . S
C1868 C1869 1.404 . S
C1868 C1871 1.539 . S
C1869 C1865 1.408 . S
C1869 C1868 1.404 . S
C1869 H1881 0.930 . S
C1870 C1866 1.524 1_655 S
C1870 H1882 0.956 . S
C1870 H1883 0.961 1_655 S
C1870 H1884 0.961 . S
C1871 C1868 1.539 . S
C1871 H1885 0.958 . S
C1871 H1886 0.961 . S
C1871 H1887 0.960 . S
H1872 C1856 0.931 . S
H1873 C1861 0.929 . S
H1874 C1862 0.960 . S
H1875 C1862 0.962 . S
H1876 C1862 0.960 . S
H1877 C1863 0.961 . S
H1878 C1863 0.961 . S
H1879 C1863 0.961 . S
H1880 C1864 0.931 1_655 S
H1881 C1869 0.930 . S
H1882 C1870 0.956 . S
H1883 C1870 0.961 1_455 S
H1884 C1870 0.961 . S
H1885 C1871 0.958 . S
H1886 C1871 0.961 . S
H1887 C1871 0.960 . S
C1888 C1889 1.391 . S
C1888 C1890 1.394 . S
C1888 H1904 0.931 . S
C1889 C1888 1.391 . S
C1889 C1893 1.376 1_545 S
C1890 C1888 1.394 . S
C1890 C1891 1.369 . S
C1890 C1894 1.531 . S
C1891 C1890 1.369 . S
C1891 C1892 1.410 1_545 S
C1891 C1899 1.503 . S
C1892 C1891 1.410 1_565 S
C1892 C1893 1.392 . S
C1892 C1895 1.511 . S
C1893 C1889 1.376 1_565 S
C1893 C1892 1.392 . S
C1893 H1905 0.929 . S
C1894 C1890 1.531 . S
C1894 H1906 0.960 . S
C1894 H1907 0.962 . S
C1894 H1908 0.960 . S
C1895 C1892 1.511 . S
C1895 H1909 0.961 . S
C1895 H1910 0.961 . S
C1895 H1911 0.961 . S
C1896 C1897 1.370 . S
C1896 C1898 1.363 . S
C1896 H1912 0.931 . S
C1897 C1896 1.370 . S
C1897 C1901 1.408 . S
C1898 C1896 1.363 . S
C1898 C1899 1.370 . S
C1898 C1902 1.524 . S
C1899 C1891 1.503 . S
C1899 C1898 1.370 . S
C1899 C1900 1.403 . S
C1900 C1899 1.403 . S
C1900 C1901 1.404 . S
C1900 C1903 1.539 . S
C1901 C1897 1.408 . S
C1901 C1900 1.404 . S
C1901 H1913 0.930 . S
C1902 C1898 1.524 . S
C1902 H1914 0.956 . S
C1902 H1915 0.961 1_545 S
C1902 H1916 0.961 . S
C1903 C1900 1.539 . S
C1903 H1917 0.958 . S
C1903 H1918 0.961 . S
C1903 H1919 0.960 . S
H1904 C1888 0.931 . S
H1905 C1893 0.929 . S
H1906 C1894 0.960 . S
H1907 C1894 0.962 . S
H1908 C1894 0.960 . S
H1909 C1895 0.961 . S
H1910 C1895 0.961 . S
H1911 C1895 0.961 . S
H1912 C1896 0.931 . S
H1913 C1901 0.930 . S
H1914 C1902 0.956 . S
H1915 C1902 0.961 1_565 S
H1916 C1902 0.961 . S
H1917 C1903 0.958 . S
H1918 C1903 0.961 . S
H1919 C1903 0.960 . S
C1920 C1921 1.391 . S
C1920 C1922 1.394 . S
C1920 H1936 0.931 . S
C1921 C1920 1.391 . S
C1921 C1925 1.376 1_455 S
C1922 C1920 1.394 . S
C1922 C1923 1.369 1_455 S
C1922 C1926 1.531 . S
C1923 C1922 1.369 1_655 S
C1923 C1924 1.410 . S
C1923 C1931 1.503 . S
C1924 C1923 1.410 . S
C1924 C1925 1.392 . S
C1924 C1927 1.511 . S
C1925 C1921 1.376 1_655 S
C1925 C1924 1.392 . S
C1925 H1937 0.929 . S
C1926 C1922 1.531 . S
C1926 H1938 0.960 . S
C1926 H1939 0.962 . S
C1926 H1940 0.960 . S
C1927 C1924 1.511 . S
C1927 H1941 0.961 . S
C1927 H1942 0.961 . S
C1927 H1943 0.961 . S
C1928 C1929 1.370 1_455 S
C1928 C1930 1.363 . S
C1928 H1944 0.931 . S
C1929 C1928 1.370 1_655 S
C1929 C1933 1.408 . S
C1930 C1928 1.363 . S
C1930 C1931 1.370 1_455 S
C1930 C1934 1.524 . S
C1931 C1923 1.503 . S
C1931 C1930 1.370 1_655 S
C1931 C1932 1.403 . S
C1932 C1931 1.403 . S
C1932 C1933 1.404 . S
C1932 C1935 1.539 . S
C1933 C1929 1.408 . S
C1933 C1932 1.404 . S
C1933 H1945 0.930 . S
C1934 C1930 1.524 . S
C1934 H1946 0.956 . S
C1934 H1947 0.961 . S
C1934 H1948 0.961 . S
C1935 C1932 1.539 . S
C1935 H1949 0.958 . S
C1935 H1950 0.961 . S
C1935 H1951 0.960 . S
H1936 C1920 0.931 . S
H1937 C1925 0.929 . S
H1938 C1926 0.960 . S
H1939 C1926 0.962 . S
H1940 C1926 0.960 . S
H1941 C1927 0.961 . S
H1942 C1927 0.961 . S
H1943 C1927 0.961 . S
H1944 C1928 0.931 . S
H1945 C1933 0.930 . S
H1946 C1934 0.956 . S
H1947 C1934 0.961 . S
H1948 C1934 0.961 . S
H1949 C1935 0.958 . S
H1950 C1935 0.961 . S
H1951 C1935 0.960 . S
C1952 C1953 1.391 . S
C1952 C1954 1.394 . S
C1952 H1968 0.931 . S
C1953 C1952 1.391 . S
C1953 C1957 1.376 . S
C1954 C1952 1.394 . S
C1954 C1955 1.369 . S
C1954 C1958 1.531 . S
C1955 C1954 1.369 . S
C1955 C1956 1.410 . S
C1955 C1963 1.503 . S
C1956 C1955 1.410 . S
C1956 C1957 1.392 . S
C1956 C1959 1.511 1_545 S
C1957 C1953 1.376 . S
C1957 C1956 1.392 . S
C1957 H1969 0.929 1_545 S
C1958 C1954 1.531 . S
C1958 H1970 0.960 . S
C1958 H1971 0.962 . S
C1958 H1972 0.960 . S
C1959 C1956 1.511 1_565 S
C1959 H1973 0.961 . S
C1959 H1974 0.961 . S
C1959 H1975 0.961 . S
C1960 C1961 1.370 . S
C1960 C1962 1.363 . S
C1960 H1976 0.931 . S
C1961 C1960 1.370 . S
C1961 C1965 1.408 . S
C1962 C1960 1.363 . S
C1962 C1963 1.370 . S
C1962 C1966 1.524 . S
C1963 C1955 1.503 . S
C1963 C1962 1.370 . S
C1963 C1964 1.403 . S
C1964 C1963 1.403 . S
C1964 C1965 1.404 . S
C1964 C1967 1.539 1_545 S
C1965 C1961 1.408 . S
C1965 C1964 1.404 . S
C1965 H1977 0.930 . S
C1966 C1962 1.524 . S
C1966 H1978 0.956 . S
C1966 H1979 0.961 . S
C1966 H1980 0.961 . S
C1967 C1964 1.539 1_565 S
C1967 H1981 0.958 1_565 S
C1967 H1982 0.961 . S
C1967 H1983 0.960 . S
H1968 C1952 0.931 . S
H1969 C1957 0.929 1_565 S
H1970 C1958 0.960 . S
H1971 C1958 0.962 . S
H1972 C1958 0.960 . S
H1973 C1959 0.961 . S
H1974 C1959 0.961 . S
H1975 C1959 0.961 . S
H1976 C1960 0.931 . S
H1977 C1965 0.930 . S
H1978 C1966 0.956 . S
H1979 C1966 0.961 . S
H1980 C1966 0.961 . S
H1981 C1967 0.958 1_545 S
H1982 C1967 0.961 . S
H1983 C1967 0.960 . S
C1984 C1985 1.391 1_556 S
C1984 C1986 1.394 . S
C1984 H2000 0.931 . S
C1985 C1984 1.391 1_554 S
C1985 C1989 1.376 . S
C1986 C1984 1.394 . S
C1986 C1987 1.369 1_556 S
C1986 C1990 1.531 . S
C1987 C1986 1.369 1_554 S
C1987 C1988 1.410 . S
C1987 C1995 1.503 . S
C1988 C1987 1.410 . S
C1988 C1989 1.392 . S
C1988 C1991 1.511 . S
C1989 C1985 1.376 . S
C1989 C1988 1.392 . S
C1989 H2001 0.929 . S
C1990 C1986 1.531 . S
C1990 H2002 0.960 . S
C1990 H2003 0.962 . S
C1990 H2004 0.960 . S
C1991 C1988 1.511 . S
C1991 H2005 0.961 . S
C1991 H2006 0.961 . S
C1991 H2007 0.961 . S
C1992 C1993 1.370 . S
C1992 C1994 1.363 . S
C1992 H2008 0.931 . S
C1993 C1992 1.370 . S
C1993 C1997 1.406 1_554 S
C1994 C1992 1.363 . S
C1994 C1995 1.370 . S
C1994 C1998 1.524 . S
C1995 C1987 1.503 . S
C1995 C1994 1.370 . S
C1995 C1996 1.403 1_554 S
C1996 C1995 1.403 1_556 S
C1996 C1997 1.404 . S
C1996 C1999 1.539 . S
C1997 C1993 1.406 1_556 S
C1997 C1996 1.404 . S
C1997 H2009 0.932 . S
C1998 C1994 1.524 . S
C1998 H2010 0.956 . S
C1998 H2011 0.961 . S
C1998 H2012 0.961 . S
C1999 C1996 1.539 . S
C1999 H2013 0.958 . S
C1999 H2014 0.961 . S
C1999 H2015 0.960 . S
H2000 C1984 0.931 . S
H2001 C1989 0.929 . S
H2002 C1990 0.960 . S
H2003 C1990 0.962 . S
H2004 C1990 0.960 . S
H2005 C1991 0.961 . S
H2006 C1991 0.961 . S
H2007 C1991 0.961 . S
H2008 C1992 0.931 . S
H2009 C1997 0.932 . S
H2010 C1998 0.956 . S
H2011 C1998 0.961 . S
H2012 C1998 0.961 . S
H2013 C1999 0.958 . S
H2014 C1999 0.961 . S
H2015 C1999 0.960 . S
C2016 C2017 1.391 . S
C2016 C2018 1.394 . S
C2016 H2032 0.931 . S
C2017 C2016 1.391 . S
C2017 C2021 1.376 1_554 S
C2018 C2016 1.394 . S
C2018 C2019 1.369 . S
C2018 C2022 1.531 . S
C2019 C2018 1.369 . S
C2019 C2020 1.410 1_554 S
C2019 C2027 1.503 . S
C2020 C2019 1.410 1_556 S
C2020 C2021 1.392 . S
C2020 C2023 1.511 . S
C2021 C2017 1.376 1_556 S
C2021 C2020 1.392 . S
C2021 H2033 0.929 . S
C2022 C2018 1.531 . S
C2022 H2034 0.960 . S
C2022 H2035 0.962 . S
C2022 H2036 0.960 . S
C2023 C2020 1.511 . S
C2023 H2037 0.961 . S
C2023 H2038 0.961 . S
C2023 H2039 0.961 . S
C2024 C2025 1.370 . S
C2024 C2026 1.363 . S
C2024 H2040 0.931 . S
C2025 C2024 1.370 . S
C2025 C2029 1.402 1_554 S
C2026 C2024 1.363 . S
C2026 C2027 1.370 . S
C2026 C2030 1.524 . S
C2027 C2019 1.503 . S
C2027 C2026 1.370 . S
C2027 C2028 1.406 . S
C2028 C2027 1.406 . S
C2028 C2029 1.403 1_554 S
C2028 C2031 1.535 1_554 S
C2029 C2025 1.402 1_556 S
C2029 C2028 1.403 1_556 S
C2029 H2041 0.937 . S
C2030 C2026 1.524 . S
C2030 H2042 0.956 . S
C2030 H2043 0.961 . S
C2030 H2044 0.961 . S
C2031 C2028 1.535 1_556 S
C2031 H2045 0.958 1_556 S
C2031 H2046 0.961 . S
C2031 H2047 0.960 . S
H2032 C2016 0.931 . S
H2033 C2021 0.929 . S
H2034 C2022 0.960 . S
H2035 C2022 0.962 . S
H2036 C2022 0.960 . S
H2037 C2023 0.961 . S
H2038 C2023 0.961 . S
H2039 C2023 0.961 . S
H2040 C2024 0.931 . S
H2041 C2029 0.937 . S
H2042 C2030 0.956 . S
H2043 C2030 0.961 . S
H2044 C2030 0.961 . S
H2045 C2031 0.958 1_554 S
H2046 C2031 0.961 . S
H2047 C2031 0.960 . S
C2048 C2049 1.391 . S
C2048 C2050 1.394 . S
C2048 H2064 0.931 . S
C2049 C2048 1.391 . S
C2049 C2053 1.376 . S
C2050 C2048 1.394 . S
C2050 C2051 1.369 . S
C2050 C2054 1.531 . S
C2051 C2050 1.369 . S
C2051 C2052 1.410 . S
C2051 C2059 1.503 . S
C2052 C2051 1.410 . S
C2052 C2053 1.392 . S
C2052 C2055 1.511 1_554 S
C2053 C2049 1.376 . S
C2053 C2052 1.392 . S
C2053 H2065 0.929 . S
C2054 C2050 1.531 . S
C2054 H2066 0.960 . S
C2054 H2067 0.962 . S
C2054 H2068 0.960 . S
C2055 C2052 1.511 1_556 S
C2055 H2069 0.961 1_556 S
C2055 H2070 0.961 1_556 S
C2055 H2071 0.961 . S
C2056 C2057 1.370 . S
C2056 C2058 1.363 . S
C2056 H2072 0.931 . S
C2057 C2056 1.370 . S
C2057 C2061 1.408 1_554 S
C2058 C2056 1.363 . S
C2058 C2059 1.370 . S
C2058 C2062 1.524 . S
C2059 C2051 1.503 . S
C2059 C2058 1.370 . S
C2059 C2060 1.403 1_554 S
C2060 C2059 1.403 1_556 S
C2060 C2061 1.404 . S
C2060 C2063 1.539 . S
C2061 C2057 1.408 1_556 S
C2061 C2060 1.404 . S
C2061 H2073 0.930 . S
C2062 C2058 1.524 . S
C2062 H2074 0.956 . S
C2062 H2075 0.961 . S
C2062 H2076 0.961 . S
C2063 C2060 1.539 . S
C2063 H2077 0.958 . S
C2063 H2078 0.961 . S
C2063 H2079 0.960 . S
H2064 C2048 0.931 . S
H2065 C2053 0.929 . S
H2066 C2054 0.960 . S
H2067 C2054 0.962 . S
H2068 C2054 0.960 . S
H2069 C2055 0.961 1_554 S
H2070 C2055 0.961 1_554 S
H2071 C2055 0.961 . S
H2072 C2056 0.931 . S
H2073 C2061 0.930 . S
H2074 C2062 0.956 . S
H2075 C2062 0.961 . S
H2076 C2062 0.961 . S
H2077 C2063 0.958 . S
H2078 C2063 0.961 . S
H2079 C2063 0.960 . S
C2080 C2081 1.391 . S
C2080 C2082 1.394 . S
C2080 H2096 0.931 . S
C2081 C2080 1.391 . S
C2081 C2085 1.376 . S
C2082 C2080 1.394 . S
C2082 C2083 1.369 . S
C2082 C2086 1.531 . S
C2083 C2082 1.369 . S
C2083 C2084 1.410 . S
C2083 C2091 1.503 . S
C2084 C2083 1.410 . S
C2084 C2085 1.392 . S
C2084 C2087 1.511 . S
C2085 C2081 1.376 . S
C2085 C2084 1.392 . S
C2085 H2097 0.929 . S
C2086 C2082 1.531 . S
C2086 H2098 0.960 1_554 S
C2086 H2099 0.962 . S
C2086 H2100 0.960 1_554 S
C2087 C2084 1.511 . S
C2087 H2101 0.961 . S
C2087 H2102 0.961 . S
C2087 H2103 0.961 1_554 S
C2088 C2089 1.370 . S
C2088 C2090 1.363 . S
C2088 H2104 0.931 . S
C2089 C2088 1.370 . S
C2089 C2093 1.408 1_554 S
C2090 C2088 1.363 . S
C2090 C2091 1.370 . S
C2090 C2094 1.524 . S
C2091 C2083 1.503 . S
C2091 C2090 1.370 . S
C2091 C2092 1.403 1_554 S
C2092 C2091 1.403 1_556 S
C2092 C2093 1.404 . S
C2092 C2095 1.539 . S
C2093 C2089 1.408 1_556 S
C2093 C2092 1.404 . S
C2093 H2105 0.930 . S
C2094 C2090 1.524 . S
C2094 H2106 0.956 . S
C2094 H2107 0.961 . S
C2094 H2108 0.961 . S
C2095 C2092 1.539 . S
C2095 H2109 0.958 . S
C2095 H2110 0.961 . S
C2095 H2111 0.960 . S
H2096 C2080 0.931 . S
H2097 C2085 0.929 . S
H2098 C2086 0.960 1_556 S
H2099 C2086 0.962 . S
H2100 C2086 0.960 1_556 S
H2101 C2087 0.961 . S
H2102 C2087 0.961 . S
H2103 C2087 0.961 1_556 S
H2104 C2088 0.931 . S
H2105 C2093 0.930 . S
H2106 C2094 0.956 . S
H2107 C2094 0.961 . S
H2108 C2094 0.961 . S
H2109 C2095 0.958 . S
H2110 C2095 0.961 . S
H2111 C2095 0.960 . S
C2112 C2113 1.391 . S
C2112 C2114 1.394 . S
C2112 H2128 0.931 . S
C2113 C2112 1.391 . S
C2113 C2117 1.376 . S
C2114 C2112 1.394 . S
C2114 C2115 1.369 . S
C2114 C2118 1.531 . S
C2115 C2114 1.369 . S
C2115 C2116 1.410 . S
C2115 C2123 1.503 . S
C2116 C2115 1.410 . S
C2116 C2117 1.392 . S
C2116 C2119 1.511 . S
C2117 C2113 1.376 . S
C2117 C2116 1.392 . S
C2117 H2129 0.929 . S
C2118 C2114 1.531 . S
C2118 H2130 0.960 . S
C2118 H2131 0.962 . S
C2118 H2132 0.960 . S
C2119 C2116 1.511 . S
C2119 H2133 0.961 . S
C2119 H2134 0.961 . S
C2119 H2135 0.961 . S
C2120 C2121 1.370 . S
C2120 C2122 1.363 . S
C2120 H2136 0.931 . S
C2121 C2120 1.370 . S
C2121 C2125 1.408 . S
C2122 C2120 1.363 . S
C2122 C2123 1.370 . S
C2122 C2126 1.524 . S
C2123 C2115 1.503 . S
C2123 C2122 1.370 . S
C2123 C2124 1.403 . S
C2124 C2123 1.403 . S
C2124 C2125 1.404 . S
C2124 C2127 1.539 . S
C2125 C2121 1.408 . S
C2125 C2124 1.404 . S
C2125 H2137 0.930 . S
C2126 C2122 1.524 . S
C2126 H2138 0.956 . S
C2126 H2139 0.961 . S
C2126 H2140 0.961 . S
C2127 C2124 1.539 . S
C2127 H2141 0.958 . S
C2127 H2142 0.961 . S
C2127 H2143 0.960 . S
H2128 C2112 0.931 . S
H2129 C2117 0.929 . S
H2130 C2118 0.960 . S
H2131 C2118 0.962 . S
H2132 C2118 0.960 . S
H2133 C2119 0.961 . S
H2134 C2119 0.961 . S
H2135 C2119 0.961 . S
H2136 C2120 0.931 . S
H2137 C2125 0.930 . S
H2138 C2126 0.956 . S
H2139 C2126 0.961 . S
H2140 C2126 0.961 . S
H2141 C2127 0.958 . S
H2142 C2127 0.961 . S
H2143 C2127 0.960 . S
C2144 C2145 1.391 . S
C2144 C2146 1.394 . S
C2144 H2160 0.931 . S
C2145 C2144 1.391 . S
C2145 C2149 1.376 . S
C2146 C2144 1.394 . S
C2146 C2147 1.369 . S
C2146 C2150 1.531 . S
C2147 C2146 1.369 . S
C2147 C2148 1.410 . S
C2147 C2155 1.503 . S
C2148 C2147 1.410 . S
C2148 C2149 1.392 . S
C2148 C2151 1.511 . S
C2149 C2145 1.376 . S
C2149 C2148 1.392 . S
C2149 H2161 0.929 . S
C2150 C2146 1.531 . S
C2150 H2162 0.960 . S
C2150 H2163 0.962 . S
C2150 H2164 0.960 . S
C2151 C2148 1.511 . S
C2151 H2165 0.961 . S
C2151 H2166 0.961 . S
C2151 H2167 0.961 . S
C2152 C2153 1.370 . S
C2152 C2154 1.363 . S
C2152 H2168 0.931 . S
C2153 C2152 1.370 . S
C2153 C2157 1.408 . S
C2154 C2152 1.363 . S
C2154 C2155 1.370 . S
C2154 C2158 1.524 . S
C2155 C2147 1.503 . S
C2155 C2154 1.370 . S
C2155 C2156 1.403 . S
C2156 C2155 1.403 . S
C2156 C2157 1.404 . S
C2156 C2159 1.539 . S
C2157 C2153 1.408 . S
C2157 C2156 1.404 . S
C2157 H2169 0.930 . S
C2158 C2154 1.524 . S
C2158 H2170 0.956 . S
C2158 H2171 0.961 . S
C2158 H2172 0.961 . S
C2159 C2156 1.539 . S
C2159 H2173 0.958 . S
C2159 H2174 0.961 . S
C2159 H2175 0.960 . S
H2160 C2144 0.931 . S
H2161 C2149 0.929 . S
H2162 C2150 0.960 . S
H2163 C2150 0.962 . S
H2164 C2150 0.960 . S
H2165 C2151 0.961 . S
H2166 C2151 0.961 . S
H2167 C2151 0.961 . S
H2168 C2152 0.931 . S
H2169 C2157 0.930 . S
H2170 C2158 0.956 . S
H2171 C2158 0.961 . S
H2172 C2158 0.961 . S
H2173 C2159 0.958 . S
H2174 C2159 0.961 . S
H2175 C2159 0.960 . S
C2176 C2177 1.391 . S
C2176 C2178 1.394 . S
C2176 H2192 0.931 . S
C2177 C2176 1.391 . S
C2177 C2181 1.376 . S
C2178 C2176 1.394 . S
C2178 C2179 1.369 . S
C2178 C2182 1.531 . S
C2179 C2178 1.369 . S
C2179 C2180 1.410 . S
C2179 C2187 1.503 . S
C2180 C2179 1.410 . S
C2180 C2181 1.392 . S
C2180 C2183 1.511 . S
C2181 C2177 1.376 . S
C2181 C2180 1.392 . S
C2181 H2193 0.929 . S
C2182 C2178 1.531 . S
C2182 H2194 0.960 . S
C2182 H2195 0.962 . S
C2182 H2196 0.960 . S
C2183 C2180 1.511 . S
C2183 H2197 0.961 . S
C2183 H2198 0.961 . S
C2183 H2199 0.961 . S
C2184 C2185 1.370 . S
C2184 C2186 1.363 . S
C2184 H2200 0.931 . S
C2185 C2184 1.370 . S
C2185 C2189 1.408 . S
C2186 C2184 1.363 . S
C2186 C2187 1.370 . S
C2186 C2190 1.524 . S
C2187 C2179 1.503 . S
C2187 C2186 1.370 . S
C2187 C2188 1.403 . S
C2188 C2187 1.403 . S
C2188 C2189 1.404 . S
C2188 C2191 1.539 . S
C2189 C2185 1.408 . S
C2189 C2188 1.404 . S
C2189 H2201 0.930 . S
C2190 C2186 1.524 . S
C2190 H2202 0.956 . S
C2190 H2203 0.961 . S
C2190 H2204 0.961 . S
C2191 C2188 1.539 . S
C2191 H2205 0.958 . S
C2191 H2206 0.961 . S
C2191 H2207 0.960 . S
H2192 C2176 0.931 . S
H2193 C2181 0.929 . S
H2194 C2182 0.960 . S
H2195 C2182 0.962 . S
H2196 C2182 0.960 . S
H2197 C2183 0.961 . S
H2198 C2183 0.961 . S
H2199 C2183 0.961 . S
H2200 C2184 0.931 . S
H2201 C2189 0.930 . S
H2202 C2190 0.956 . S
H2203 C2190 0.961 . S
H2204 C2190 0.961 . S
H2205 C2191 0.958 . S
H2206 C2191 0.961 . S
H2207 C2191 0.960 . S
C2208 C2209 1.391 . S
C2208 C2210 1.394 . S
C2208 H2224 0.931 . S
C2209 C2208 1.391 . S
C2209 C2213 1.376 . S
C2210 C2208 1.394 . S
C2210 C2211 1.369 . S
C2210 C2214 1.531 . S
C2211 C2210 1.369 . S
C2211 C2212 1.410 . S
C2211 C2219 1.503 . S
C2212 C2211 1.410 . S
C2212 C2213 1.392 . S
C2212 C2215 1.511 . S
C2213 C2209 1.376 . S
C2213 C2212 1.392 . S
C2213 H2225 0.929 . S
C2214 C2210 1.531 . S
C2214 H2226 0.960 . S
C2214 H2227 0.962 . S
C2214 H2228 0.960 . S
C2215 C2212 1.511 . S
C2215 H2229 0.961 . S
C2215 H2230 0.961 . S
C2215 H2231 0.961 . S
C2216 C2217 1.370 . S
C2216 C2218 1.363 . S
C2216 H2232 0.931 . S
C2217 C2216 1.370 . S
C2217 C2221 1.408 . S
C2218 C2216 1.363 . S
C2218 C2219 1.370 . S
C2218 C2222 1.524 . S
C2219 C2211 1.503 . S
C2219 C2218 1.370 . S
C2219 C2220 1.403 . S
C2220 C2219 1.403 . S
C2220 C2221 1.404 . S
C2220 C2223 1.539 . S
C2221 C2217 1.408 . S
C2221 C2220 1.404 . S
C2221 H2233 0.930 . S
C2222 C2218 1.524 . S
C2222 H2234 0.956 . S
C2222 H2235 0.961 . S
C2222 H2236 0.961 . S
C2223 C2220 1.539 . S
C2223 H2237 0.958 . S
C2223 H2238 0.961 . S
C2223 H2239 0.960 . S
H2224 C2208 0.931 . S
H2225 C2213 0.929 . S
H2226 C2214 0.960 . S
H2227 C2214 0.962 . S
H2228 C2214 0.960 . S
H2229 C2215 0.961 . S
H2230 C2215 0.961 . S
H2231 C2215 0.961 . S
H2232 C2216 0.931 . S
H2233 C2221 0.930 . S
H2234 C2222 0.956 . S
H2235 C2222 0.961 . S
H2236 C2222 0.961 . S
H2237 C2223 0.958 . S
H2238 C2223 0.961 . S
H2239 C2223 0.960 . S
C2240 C2241 1.391 . S
C2240 C2242 1.394 . S
C2240 H2256 0.931 . S
C2241 C2240 1.391 . S
C2241 C2245 1.376 . S
C2242 C2240 1.394 . S
C2242 C2243 1.369 . S
C2242 C2246 1.531 . S
C2243 C2242 1.369 . S
C2243 C2244 1.410 . S
C2243 C2251 1.503 . S
C2244 C2243 1.410 . S
C2244 C2245 1.392 . S
C2244 C2247 1.511 . S
C2245 C2241 1.376 . S
C2245 C2244 1.392 . S
C2245 H2257 0.929 . S
C2246 C2242 1.531 . S
C2246 H2258 0.960 . S
C2246 H2259 0.962 . S
C2246 H2260 0.960 . S
C2247 C2244 1.511 . S
C2247 H2261 0.961 . S
C2247 H2262 0.961 . S
C2247 H2263 0.961 . S
C2248 C2249 1.370 . S
C2248 C2250 1.363 . S
C2248 H2264 0.931 . S
C2249 C2248 1.370 . S
C2249 C2253 1.408 . S
C2250 C2248 1.363 . S
C2250 C2251 1.370 . S
C2250 C2254 1.524 . S
C2251 C2243 1.503 . S
C2251 C2250 1.370 . S
C2251 C2252 1.403 . S
C2252 C2251 1.403 . S
C2252 C2253 1.404 . S
C2252 C2255 1.539 . S
C2253 C2249 1.408 . S
C2253 C2252 1.404 . S
C2253 H2265 0.930 . S
C2254 C2250 1.524 . S
C2254 H2266 0.956 . S
C2254 H2267 0.961 . S
C2254 H2268 0.961 . S
C2255 C2252 1.539 . S
C2255 H2269 0.958 . S
C2255 H2270 0.961 . S
C2255 H2271 0.960 . S
H2256 C2240 0.931 . S
H2257 C2245 0.929 . S
H2258 C2246 0.960 . S
H2259 C2246 0.962 . S
H2260 C2246 0.960 . S
H2261 C2247 0.961 . S
H2262 C2247 0.961 . S
H2263 C2247 0.961 . S
H2264 C2248 0.931 . S
H2265 C2253 0.930 . S
H2266 C2254 0.956 . S
H2267 C2254 0.961 . S
H2268 C2254 0.961 . S
H2269 C2255 0.958 . S
H2270 C2255 0.961 . S
H2271 C2255 0.960 . S
C2272 C2273 1.391 . S
C2272 C2274 1.394 . S
C2272 H2288 0.931 . S
C2273 C2272 1.391 . S
C2273 C2277 1.376 . S
C2274 C2272 1.394 . S
C2274 C2275 1.369 . S
C2274 C2278 1.531 . S
C2275 C2274 1.369 . S
C2275 C2276 1.410 . S
C2275 C2283 1.503 . S
C2276 C2275 1.410 . S
C2276 C2277 1.392 . S
C2276 C2279 1.511 . S
C2277 C2273 1.376 . S
C2277 C2276 1.392 . S
C2277 H2289 0.929 . S
C2278 C2274 1.531 . S
C2278 H2290 0.960 . S
C2278 H2291 0.962 . S
C2278 H2292 0.960 . S
C2279 C2276 1.511 . S
C2279 H2293 0.961 . S
C2279 H2294 0.961 . S
C2279 H2295 0.961 . S
C2280 C2281 1.370 . S
C2280 C2282 1.363 . S
C2280 H2296 0.931 . S
C2281 C2280 1.370 . S
C2281 C2285 1.408 . S
C2282 C2280 1.363 . S
C2282 C2283 1.370 . S
C2282 C2286 1.524 . S
C2283 C2275 1.503 . S
C2283 C2282 1.370 . S
C2283 C2284 1.403 . S
C2284 C2283 1.403 . S
C2284 C2285 1.404 . S
C2284 C2287 1.539 . S
C2285 C2281 1.408 . S
C2285 C2284 1.404 . S
C2285 H2297 0.930 . S
C2286 C2282 1.524 . S
C2286 H2298 0.956 . S
C2286 H2299 0.961 . S
C2286 H2300 0.961 . S
C2287 C2284 1.539 . S
C2287 H2301 0.958 . S
C2287 H2302 0.961 . S
C2287 H2303 0.960 . S
H2288 C2272 0.931 . S
H2289 C2277 0.929 . S
H2290 C2278 0.960 . S
H2291 C2278 0.962 . S
H2292 C2278 0.960 . S
H2293 C2279 0.961 . S
H2294 C2279 0.961 . S
H2295 C2279 0.961 . S
H2296 C2280 0.931 . S
H2297 C2285 0.930 . S
H2298 C2286 0.956 . S
H2299 C2286 0.961 . S
H2300 C2286 0.961 . S
H2301 C2287 0.958 . S
H2302 C2287 0.961 . S
H2303 C2287 0.960 . S
C2304 C2305 1.391 . S
C2304 C2306 1.394 . S
C2304 H2320 0.931 . S
C2305 C2304 1.391 . S
C2305 C2309 1.376 . S
C2306 C2304 1.394 . S
C2306 C2307 1.369 . S
C2306 C2310 1.531 . S
C2307 C2306 1.369 . S
C2307 C2308 1.410 . S
C2307 C2315 1.503 . S
C2308 C2307 1.410 . S
C2308 C2309 1.392 . S
C2308 C2311 1.511 . S
C2309 C2305 1.376 . S
C2309 C2308 1.392 . S
C2309 H2321 0.929 . S
C2310 C2306 1.531 . S
C2310 H2322 0.960 . S
C2310 H2323 0.962 . S
C2310 H2324 0.960 . S
C2311 C2308 1.511 . S
C2311 H2325 0.961 . S
C2311 H2326 0.961 . S
C2311 H2327 0.961 . S
C2312 C2313 1.370 . S
C2312 C2314 1.363 . S
C2312 H2328 0.931 . S
C2313 C2312 1.370 . S
C2313 C2317 1.408 . S
C2314 C2312 1.363 . S
C2314 C2315 1.370 . S
C2314 C2318 1.524 . S
C2315 C2307 1.503 . S
C2315 C2314 1.370 . S
C2315 C2316 1.403 . S
C2316 C2315 1.403 . S
C2316 C2317 1.404 . S
C2316 C2319 1.539 . S
C2317 C2313 1.408 . S
C2317 C2316 1.404 . S
C2317 H2329 0.930 . S
C2318 C2314 1.524 . S
C2318 H2330 0.956 . S
C2318 H2331 0.961 . S
C2318 H2332 0.961 . S
C2319 C2316 1.539 . S
C2319 H2333 0.958 . S
C2319 H2334 0.961 . S
C2319 H2335 0.960 . S
H2320 C2304 0.931 . S
H2321 C2309 0.929 . S
H2322 C2310 0.960 . S
H2323 C2310 0.962 . S
H2324 C2310 0.960 . S
H2325 C2311 0.961 . S
H2326 C2311 0.961 . S
H2327 C2311 0.961 . S
H2328 C2312 0.931 . S
H2329 C2317 0.930 . S
H2330 C2318 0.956 . S
H2331 C2318 0.961 . S
H2332 C2318 0.961 . S
H2333 C2319 0.958 . S
H2334 C2319 0.961 . S
H2335 C2319 0.960 . S
C2336 C2337 1.391 . S
C2336 C2338 1.394 . S
C2336 H2352 0.931 . S
C2337 C2336 1.391 . S
C2337 C2341 1.376 . S
C2338 C2336 1.394 . S
C2338 C2339 1.369 . S
C2338 C2342 1.531 . S
C2339 C2338 1.369 . S
C2339 C2340 1.410 . S
C2339 C2347 1.503 . S
C2340 C2339 1.410 . S
C2340 C2341 1.392 . S
C2340 C2343 1.511 . S
C2341 C2337 1.376 . S
C2341 C2340 1.392 . S
C2341 H2353 0.929 . S
C2342 C2338 1.531 . S
C2342 H2354 0.960 . S
C2342 H2355 0.962 . S
C2342 H2356 0.960 . S
C2343 C2340 1.511 . S
C2343 H2357 0.961 . S
C2343 H2358 0.961 . S
C2343 H2359 0.961 . S
C2344 C2345 1.370 . S
C2344 C2346 1.363 . S
C2344 H2360 0.931 . S
C2345 C2344 1.370 . S
C2345 C2349 1.408 . S
C2346 C2344 1.363 . S
C2346 C2347 1.370 . S
C2346 C2350 1.524 . S
C2347 C2339 1.503 . S
C2347 C2346 1.370 . S
C2347 C2348 1.403 . S
C2348 C2347 1.403 . S
C2348 C2349 1.404 . S
C2348 C2351 1.539 . S
C2349 C2345 1.408 . S
C2349 C2348 1.404 . S
C2349 H2361 0.930 . S
C2350 C2346 1.524 . S
C2350 H2362 0.956 . S
C2350 H2363 0.961 . S
C2350 H2364 0.961 . S
C2351 C2348 1.539 . S
C2351 H2365 0.958 . S
C2351 H2366 0.961 . S
C2351 H2367 0.960 . S
H2352 C2336 0.931 . S
H2353 C2341 0.929 . S
H2354 C2342 0.960 . S
H2355 C2342 0.962 . S
H2356 C2342 0.960 . S
H2357 C2343 0.961 . S
H2358 C2343 0.961 . S
H2359 C2343 0.961 . S
H2360 C2344 0.931 . S
H2361 C2349 0.930 . S
H2362 C2350 0.956 . S
H2363 C2350 0.961 . S
H2364 C2350 0.961 . S
H2365 C2351 0.958 . S
H2366 C2351 0.961 . S
H2367 C2351 0.960 . S
C2368 C2369 1.391 . S
C2368 C2370 1.394 . S
C2368 H2384 0.931 . S
C2369 C2368 1.391 . S
C2369 C2373 1.376 . S
C2370 C2368 1.394 . S
C2370 C2371 1.369 . S
C2370 C2374 1.531 . S
C2371 C2370 1.369 . S
C2371 C2372 1.410 . S
C2371 C2379 1.503 . S
C2372 C2371 1.410 . S
C2372 C2373 1.392 . S
C2372 C2375 1.511 . S
C2373 C2369 1.376 . S
C2373 C2372 1.392 . S
C2373 H2385 0.929 . S
C2374 C2370 1.531 . S
C2374 H2386 0.960 . S
C2374 H2387 0.962 . S
C2374 H2388 0.960 . S
C2375 C2372 1.511 . S
C2375 H2389 0.961 . S
C2375 H2390 0.961 . S
C2375 H2391 0.961 . S
C2376 C2377 1.370 . S
C2376 C2378 1.363 . S
C2376 H2392 0.931 . S
C2377 C2376 1.370 . S
C2377 C2381 1.408 . S
C2378 C2376 1.363 . S
C2378 C2379 1.370 . S
C2378 C2382 1.524 . S
C2379 C2371 1.503 . S
C2379 C2378 1.370 . S
C2379 C2380 1.403 . S
C2380 C2379 1.403 . S
C2380 C2381 1.404 . S
C2380 C2383 1.539 . S
C2381 C2377 1.408 . S
C2381 C2380 1.404 . S
C2381 H2393 0.930 . S
C2382 C2378 1.524 . S
C2382 H2394 0.956 . S
C2382 H2395 0.961 . S
C2382 H2396 0.961 . S
C2383 C2380 1.539 . S
C2383 H2397 0.958 . S
C2383 H2398 0.961 . S
C2383 H2399 0.960 . S
H2384 C2368 0.931 . S
H2385 C2373 0.929 . S
H2386 C2374 0.960 . S
H2387 C2374 0.962 . S
H2388 C2374 0.960 . S
H2389 C2375 0.961 . S
H2390 C2375 0.961 . S
H2391 C2375 0.961 . S
H2392 C2376 0.931 . S
H2393 C2381 0.930 . S
H2394 C2382 0.956 . S
H2395 C2382 0.961 . S
H2396 C2382 0.961 . S
H2397 C2383 0.958 . S
H2398 C2383 0.961 . S
H2399 C2383 0.960 . S
C2400 C2401 1.391 . S
C2400 C2402 1.394 . S
C2400 H2416 0.931 . S
C2401 C2400 1.391 . S
C2401 C2405 1.376 . S
C2402 C2400 1.394 . S
C2402 C2403 1.369 . S
C2402 C2406 1.531 . S
C2403 C2402 1.369 . S
C2403 C2404 1.410 . S
C2403 C2411 1.503 . S
C2404 C2403 1.410 . S
C2404 C2405 1.392 . S
C2404 C2407 1.511 . S
C2405 C2401 1.376 . S
C2405 C2404 1.392 . S
C2405 H2417 0.929 . S
C2406 C2402 1.531 . S
C2406 H2418 0.960 . S
C2406 H2419 0.962 . S
C2406 H2420 0.960 . S
C2407 C2404 1.511 . S
C2407 H2421 0.961 . S
C2407 H2422 0.961 . S
C2407 H2423 0.961 . S
C2408 C2409 1.370 . S
C2408 C2410 1.363 . S
C2408 H2424 0.931 . S
C2409 C2408 1.370 . S
C2409 C2413 1.408 . S
C2410 C2408 1.363 . S
C2410 C2411 1.370 . S
C2410 C2414 1.524 . S
C2411 C2403 1.503 . S
C2411 C2410 1.370 . S
C2411 C2412 1.403 . S
C2412 C2411 1.403 . S
C2412 C2413 1.404 . S
C2412 C2415 1.539 . S
C2413 C2409 1.408 . S
C2413 C2412 1.404 . S
C2413 H2425 0.930 . S
C2414 C2410 1.524 . S
C2414 H2426 0.956 . S
C2414 H2427 0.961 . S
C2414 H2428 0.961 . S
C2415 C2412 1.539 . S
C2415 H2429 0.958 . S
C2415 H2430 0.961 . S
C2415 H2431 0.960 . S
H2416 C2400 0.931 . S
H2417 C2405 0.929 . S
H2418 C2406 0.960 . S
H2419 C2406 0.962 . S
H2420 C2406 0.960 . S
H2421 C2407 0.961 . S
H2422 C2407 0.961 . S
H2423 C2407 0.961 . S
H2424 C2408 0.931 . S
H2425 C2413 0.930 . S
H2426 C2414 0.956 . S
H2427 C2414 0.961 . S
H2428 C2414 0.961 . S
H2429 C2415 0.958 . S
H2430 C2415 0.961 . S
H2431 C2415 0.960 . S
C2432 C2433 1.391 . S
C2432 C2434 1.394 . S
C2432 H2448 0.931 . S
C2433 C2432 1.391 . S
C2433 C2437 1.376 . S
C2434 C2432 1.394 . S
C2434 C2435 1.369 . S
C2434 C2438 1.531 . S
C2435 C2434 1.369 . S
C2435 C2436 1.410 . S
C2435 C2443 1.503 . S
C2436 C2435 1.410 . S
C2436 C2437 1.392 . S
C2436 C2439 1.511 . S
C2437 C2433 1.376 . S
C2437 C2436 1.392 . S
C2437 H2449 0.929 . S
C2438 C2434 1.531 . S
C2438 H2450 0.960 . S
C2438 H2451 0.962 . S
C2438 H2452 0.960 . S
C2439 C2436 1.511 . S
C2439 H2453 0.961 . S
C2439 H2454 0.961 . S
C2439 H2455 0.961 . S
C2440 C2441 1.370 . S
C2440 C2442 1.363 . S
C2440 H2456 0.931 . S
C2441 C2440 1.370 . S
C2441 C2445 1.408 . S
C2442 C2440 1.363 . S
C2442 C2443 1.370 . S
C2442 C2446 1.524 . S
C2443 C2435 1.503 . S
C2443 C2442 1.370 . S
C2443 C2444 1.403 . S
C2444 C2443 1.403 . S
C2444 C2445 1.404 . S
C2444 C2447 1.539 . S
C2445 C2441 1.408 . S
C2445 C2444 1.404 . S
C2445 H2457 0.930 . S
C2446 C2442 1.524 . S
C2446 H2458 0.956 . S
C2446 H2459 0.961 . S
C2446 H2460 0.961 . S
C2447 C2444 1.539 . S
C2447 H2461 0.958 . S
C2447 H2462 0.961 . S
C2447 H2463 0.960 . S
H2448 C2432 0.931 . S
H2449 C2437 0.929 . S
H2450 C2438 0.960 . S
H2451 C2438 0.962 . S
H2452 C2438 0.960 . S
H2453 C2439 0.961 . S
H2454 C2439 0.961 . S
H2455 C2439 0.961 . S
H2456 C2440 0.931 . S
H2457 C2445 0.930 . S
H2458 C2446 0.956 . S
H2459 C2446 0.961 . S
H2460 C2446 0.961 . S
H2461 C2447 0.958 . S
H2462 C2447 0.961 . S
H2463 C2447 0.960 . S
C2464 C2465 1.391 . S
C2464 C2466 1.394 . S
C2464 H2480 0.931 . S
C2465 C2464 1.391 . S
C2465 C2469 1.376 . S
C2466 C2464 1.394 . S
C2466 C2467 1.369 . S
C2466 C2470 1.531 . S
C2467 C2466 1.369 . S
C2467 C2468 1.410 . S
C2467 C2475 1.503 . S
C2468 C2467 1.410 . S
C2468 C2469 1.392 . S
C2468 C2471 1.511 . S
C2469 C2465 1.376 . S
C2469 C2468 1.392 . S
C2469 H2481 0.929 . S
C2470 C2466 1.531 . S
C2470 H2482 0.960 . S
C2470 H2483 0.962 . S
C2470 H2484 0.960 . S
C2471 C2468 1.511 . S
C2471 H2485 0.961 . S
C2471 H2486 0.961 . S
C2471 H2487 0.961 . S
C2472 C2473 1.370 . S
C2472 C2474 1.363 . S
C2472 H2488 0.931 . S
C2473 C2472 1.370 . S
C2473 C2477 1.408 . S
C2474 C2472 1.363 . S
C2474 C2475 1.370 . S
C2474 C2478 1.524 . S
C2475 C2467 1.503 . S
C2475 C2474 1.370 . S
C2475 C2476 1.403 . S
C2476 C2475 1.403 . S
C2476 C2477 1.404 . S
C2476 C2479 1.539 . S
C2477 C2473 1.408 . S
C2477 C2476 1.404 . S
C2477 H2489 0.930 . S
C2478 C2474 1.524 . S
C2478 H2490 0.956 . S
C2478 H2491 0.961 . S
C2478 H2492 0.961 . S
C2479 C2476 1.539 . S
C2479 H2493 0.958 . S
C2479 H2494 0.961 . S
C2479 H2495 0.960 . S
H2480 C2464 0.931 . S
H2481 C2469 0.929 . S
H2482 C2470 0.960 . S
H2483 C2470 0.962 . S
H2484 C2470 0.960 . S
H2485 C2471 0.961 . S
H2486 C2471 0.961 . S
H2487 C2471 0.961 . S
H2488 C2472 0.931 . S
H2489 C2477 0.930 . S
H2490 C2478 0.956 . S
H2491 C2478 0.961 . S
H2492 C2478 0.961 . S
H2493 C2479 0.958 . S
H2494 C2479 0.961 . S
H2495 C2479 0.960 . S
C2496 C2497 1.391 . S
C2496 C2498 1.394 . S
C2496 H2512 0.931 . S
C2497 C2496 1.391 . S
C2497 C2501 1.376 . S
C2498 C2496 1.394 . S
C2498 C2499 1.369 . S
C2498 C2502 1.531 . S
C2499 C2498 1.369 . S
C2499 C2500 1.410 . S
C2499 C2507 1.503 . S
C2500 C2499 1.410 . S
C2500 C2501 1.392 . S
C2500 C2503 1.511 . S
C2501 C2497 1.376 . S
C2501 C2500 1.392 . S
C2501 H2513 0.929 . S
C2502 C2498 1.531 . S
C2502 H2514 0.960 . S
C2502 H2515 0.962 . S
C2502 H2516 0.960 . S
C2503 C2500 1.511 . S
C2503 H2517 0.961 . S
C2503 H2518 0.961 . S
C2503 H2519 0.961 . S
C2504 C2505 1.370 . S
C2504 C2506 1.363 . S
C2504 H2520 0.931 . S
C2505 C2504 1.370 . S
C2505 C2509 1.408 . S
C2506 C2504 1.363 . S
C2506 C2507 1.370 . S
C2506 C2510 1.524 . S
C2507 C2499 1.503 . S
C2507 C2506 1.370 . S
C2507 C2508 1.403 . S
C2508 C2507 1.403 . S
C2508 C2509 1.404 . S
C2508 C2511 1.539 . S
C2509 C2505 1.408 . S
C2509 C2508 1.404 . S
C2509 H2521 0.930 . S
C2510 C2506 1.524 . S
C2510 H2522 0.956 . S
C2510 H2523 0.961 . S
C2510 H2524 0.961 . S
C2511 C2508 1.539 . S
C2511 H2525 0.958 . S
C2511 H2526 0.961 . S
C2511 H2527 0.960 . S
H2512 C2496 0.931 . S
H2513 C2501 0.929 . S
H2514 C2502 0.960 . S
H2515 C2502 0.962 . S
H2516 C2502 0.960 . S
H2517 C2503 0.961 . S
H2518 C2503 0.961 . S
H2519 C2503 0.961 . S
H2520 C2504 0.931 . S
H2521 C2509 0.930 . S
H2522 C2510 0.956 . S
H2523 C2510 0.961 . S
H2524 C2510 0.961 . S
H2525 C2511 0.958 . S
H2526 C2511 0.961 . S
H2527 C2511 0.960 . S
C2528 C2529 1.391 . S
C2528 C2530 1.394 . S
C2528 H2544 0.931 . S
C2529 C2528 1.391 . S
C2529 C2533 1.376 . S
C2530 C2528 1.394 . S
C2530 C2531 1.369 . S
C2530 C2534 1.531 . S
C2531 C2530 1.369 . S
C2531 C2532 1.410 . S
C2531 C2539 1.503 . S
C2532 C2531 1.410 . S
C2532 C2533 1.392 . S
C2532 C2535 1.511 . S
C2533 C2529 1.376 . S
C2533 C2532 1.392 . S
C2533 H2545 0.929 . S
C2534 C2530 1.531 . S
C2534 H2546 0.960 . S
C2534 H2547 0.962 . S
C2534 H2548 0.960 . S
C2535 C2532 1.511 . S
C2535 H2549 0.961 . S
C2535 H2550 0.961 . S
C2535 H2551 0.961 . S
C2536 C2537 1.370 . S
C2536 C2538 1.363 . S
C2536 H2552 0.931 . S
C2537 C2536 1.370 . S
C2537 C2541 1.408 . S
C2538 C2536 1.363 . S
C2538 C2539 1.370 . S
C2538 C2542 1.524 . S
C2539 C2531 1.503 . S
C2539 C2538 1.370 . S
C2539 C2540 1.403 . S
C2540 C2539 1.403 . S
C2540 C2541 1.404 . S
C2540 C2543 1.539 . S
C2541 C2537 1.408 . S
C2541 C2540 1.404 . S
C2541 H2553 0.930 . S
C2542 C2538 1.524 . S
C2542 H2554 0.956 . S
C2542 H2555 0.961 . S
C2542 H2556 0.961 . S
C2543 C2540 1.539 . S
C2543 H2557 0.958 . S
C2543 H2558 0.961 . S
C2543 H2559 0.960 . S
H2544 C2528 0.931 . S
H2545 C2533 0.929 . S
H2546 C2534 0.960 . S
H2547 C2534 0.962 . S
H2548 C2534 0.960 . S
H2549 C2535 0.961 . S
H2550 C2535 0.961 . S
H2551 C2535 0.961 . S
H2552 C2536 0.931 . S
H2553 C2541 0.930 . S
H2554 C2542 0.956 . S
H2555 C2542 0.961 . S
H2556 C2542 0.961 . S
H2557 C2543 0.958 . S
H2558 C2543 0.961 . S
H2559 C2543 0.960 . S
C2560 C2561 1.391 . S
C2560 C2562 1.394 . S
C2560 H2576 0.931 . S
C2561 C2560 1.391 . S
C2561 C2565 1.376 . S
C2562 C2560 1.394 . S
C2562 C2563 1.369 . S
C2562 C2566 1.531 . S
C2563 C2562 1.369 . S
C2563 C2564 1.410 . S
C2563 C2571 1.503 . S
C2564 C2563 1.410 . S
C2564 C2565 1.392 . S
C2564 C2567 1.511 . S
C2565 C2561 1.376 . S
C2565 C2564 1.392 . S
C2565 H2577 0.929 . S
C2566 C2562 1.531 . S
C2566 H2578 0.960 . S
C2566 H2579 0.962 . S
C2566 H2580 0.960 . S
C2567 C2564 1.511 . S
C2567 H2581 0.961 . S
C2567 H2582 0.961 . S
C2567 H2583 0.961 . S
C2568 C2569 1.370 . S
C2568 C2570 1.363 . S
C2568 H2584 0.931 . S
C2569 C2568 1.370 . S
C2569 C2573 1.408 . S
C2570 C2568 1.363 . S
C2570 C2571 1.370 . S
C2570 C2574 1.524 . S
C2571 C2563 1.503 . S
C2571 C2570 1.370 . S
C2571 C2572 1.403 . S
C2572 C2571 1.403 . S
C2572 C2573 1.404 . S
C2572 C2575 1.539 . S
C2573 C2569 1.408 . S
C2573 C2572 1.404 . S
C2573 H2585 0.930 . S
C2574 C2570 1.524 . S
C2574 H2586 0.956 . S
C2574 H2587 0.961 . S
C2574 H2588 0.961 . S
C2575 C2572 1.539 . S
C2575 H2589 0.958 . S
C2575 H2590 0.961 . S
C2575 H2591 0.960 . S
H2576 C2560 0.931 . S
H2577 C2565 0.929 . S
H2578 C2566 0.960 . S
H2579 C2566 0.962 . S
H2580 C2566 0.960 . S
H2581 C2567 0.961 . S
H2582 C2567 0.961 . S
H2583 C2567 0.961 . S
H2584 C2568 0.931 . S
H2585 C2573 0.930 . S
H2586 C2574 0.956 . S
H2587 C2574 0.961 . S
H2588 C2574 0.961 . S
H2589 C2575 0.958 . S
H2590 C2575 0.961 . S
H2591 C2575 0.960 . S
C2592 C2593 1.391 . S
C2592 C2594 1.394 . S
C2592 H2608 0.931 . S
C2593 C2592 1.391 . S
C2593 C2597 1.376 . S
C2594 C2592 1.394 . S
C2594 C2595 1.369 . S
C2594 C2598 1.531 . S
C2595 C2594 1.369 . S
C2595 C2596 1.410 . S
C2595 C2603 1.503 . S
C2596 C2595 1.410 . S
C2596 C2597 1.392 . S
C2596 C2599 1.511 . S
C2597 C2593 1.376 . S
C2597 C2596 1.392 . S
C2597 H2609 0.929 1_565 S
C2598 C2594 1.531 . S
C2598 H2610 0.960 . S
C2598 H2611 0.962 . S
C2598 H2612 0.960 . S
C2599 C2596 1.511 . S
C2599 H2613 0.961 . S
C2599 H2614 0.961 . S
C2599 H2615 0.961 . S
C2600 C2601 1.370 . S
C2600 C2602 1.363 . S
C2600 H2616 0.931 . S
C2601 C2600 1.370 . S
C2601 C2605 1.408 . S
C2602 C2600 1.363 . S
C2602 C2603 1.370 . S
C2602 C2606 1.524 . S
C2603 C2595 1.503 . S
C2603 C2602 1.370 . S
C2603 C2604 1.403 . S
C2604 C2603 1.403 . S
C2604 C2605 1.404 . S
C2604 C2607 1.539 . S
C2605 C2601 1.408 . S
C2605 C2604 1.404 . S
C2605 H2617 0.930 . S
C2606 C2602 1.524 . S
C2606 H2618 0.956 . S
C2606 H2619 0.961 . S
C2606 H2620 0.961 . S
C2607 C2604 1.539 . S
C2607 H2621 0.958 . S
C2607 H2622 0.961 . S
C2607 H2623 0.960 . S
H2608 C2592 0.931 . S
H2609 C2597 0.929 1_545 S
H2610 C2598 0.960 . S
H2611 C2598 0.962 . S
H2612 C2598 0.960 . S
H2613 C2599 0.961 . S
H2614 C2599 0.961 . S
H2615 C2599 0.961 . S
H2616 C2600 0.931 . S
H2617 C2605 0.930 . S
H2618 C2606 0.956 . S
H2619 C2606 0.961 . S
H2620 C2606 0.961 . S
H2621 C2607 0.958 . S
H2622 C2607 0.961 . S
H2623 C2607 0.960 . S
C2624 C2625 1.391 . S
C2624 C2626 1.394 . S
C2624 H2640 0.931 . S
C2625 C2624 1.391 . S
C2625 C2629 1.376 . S
C2626 C2624 1.394 . S
C2626 C2627 1.369 . S
C2626 C2630 1.531 . S
C2627 C2626 1.369 . S
C2627 C2628 1.410 . S
C2627 C2635 1.503 . S
C2628 C2627 1.410 . S
C2628 C2629 1.392 . S
C2628 C2631 1.511 . S
C2629 C2625 1.376 . S
C2629 C2628 1.392 . S
C2629 H2641 0.929 . S
C2630 C2626 1.531 . S
C2630 H2642 0.960 . S
C2630 H2643 0.962 . S
C2630 H2644 0.960 . S
C2631 C2628 1.511 . S
C2631 H2645 0.961 . S
C2631 H2646 0.961 . S
C2631 H2647 0.961 . S
C2632 C2633 1.370 . S
C2632 C2634 1.363 . S
C2632 H2648 0.931 . S
C2633 C2632 1.370 . S
C2633 C2637 1.408 . S
C2634 C2632 1.363 . S
C2634 C2635 1.370 . S
C2634 C2638 1.524 . S
C2635 C2627 1.503 . S
C2635 C2634 1.370 . S
C2635 C2636 1.403 . S
C2636 C2635 1.403 . S
C2636 C2637 1.404 . S
C2636 C2639 1.539 . S
C2637 C2633 1.408 . S
C2637 C2636 1.404 . S
C2637 H2649 0.930 . S
C2638 C2634 1.524 . S
C2638 H2650 0.956 . S
C2638 H2651 0.961 . S
C2638 H2652 0.961 . S
C2639 C2636 1.539 . S
C2639 H2653 0.958 . S
C2639 H2654 0.961 . S
C2639 H2655 0.960 . S
H2640 C2624 0.931 . S
H2641 C2629 0.929 . S
H2642 C2630 0.960 . S
H2643 C2630 0.962 . S
H2644 C2630 0.960 . S
H2645 C2631 0.961 . S
H2646 C2631 0.961 . S
H2647 C2631 0.961 . S
H2648 C2632 0.931 . S
H2649 C2637 0.930 . S
H2650 C2638 0.956 . S
H2651 C2638 0.961 . S
H2652 C2638 0.961 . S
H2653 C2639 0.958 . S
H2654 C2639 0.961 . S
H2655 C2639 0.960 . S
C2656 C2657 1.391 . S
C2656 C2658 1.394 . S
C2656 H2672 0.931 . S
C2657 C2656 1.391 . S
C2657 C2661 1.376 . S
C2658 C2656 1.394 . S
C2658 C2659 1.369 . S
C2658 C2662 1.531 . S
C2659 C2658 1.369 . S
C2659 C2660 1.410 . S
C2659 C2667 1.503 . S
C2660 C2659 1.410 . S
C2660 C2661 1.392 . S
C2660 C2663 1.511 . S
C2661 C2657 1.376 . S
C2661 C2660 1.392 . S
C2661 H2673 0.929 . S
C2662 C2658 1.531 . S
C2662 H2674 0.960 . S
C2662 H2675 0.962 . S
C2662 H2676 0.960 . S
C2663 C2660 1.511 . S
C2663 H2677 0.961 . S
C2663 H2678 0.961 . S
C2663 H2679 0.961 . S
C2664 C2665 1.370 . S
C2664 C2666 1.363 . S
C2664 H2680 0.931 . S
C2665 C2664 1.370 . S
C2665 C2669 1.408 . S
C2666 C2664 1.363 . S
C2666 C2667 1.370 . S
C2666 C2670 1.524 . S
C2667 C2659 1.503 . S
C2667 C2666 1.370 . S
C2667 C2668 1.403 . S
C2668 C2667 1.403 . S
C2668 C2669 1.404 . S
C2668 C2671 1.539 . S
C2669 C2665 1.408 . S
C2669 C2668 1.404 . S
C2669 H2681 0.930 . S
C2670 C2666 1.524 . S
C2670 H2682 0.956 . S
C2670 H2683 0.961 . S
C2670 H2684 0.961 . S
C2671 C2668 1.539 . S
C2671 H2685 0.958 . S
C2671 H2686 0.961 . S
C2671 H2687 0.960 . S
H2672 C2656 0.931 . S
H2673 C2661 0.929 . S
H2674 C2662 0.960 . S
H2675 C2662 0.962 . S
H2676 C2662 0.960 . S
H2677 C2663 0.961 . S
H2678 C2663 0.961 . S
H2679 C2663 0.961 . S
H2680 C2664 0.931 . S
H2681 C2669 0.930 . S
H2682 C2670 0.956 . S
H2683 C2670 0.961 . S
H2684 C2670 0.961 . S
H2685 C2671 0.958 . S
H2686 C2671 0.961 . S
H2687 C2671 0.960 . S
C2688 C2689 1.391 . S
C2688 C2690 1.394 . S
C2688 H2704 0.931 . S
C2689 C2688 1.391 . S
C2689 C2693 1.376 . S
C2690 C2688 1.394 . S
C2690 C2691 1.369 . S
C2690 C2694 1.531 . S
C2691 C2690 1.369 . S
C2691 C2692 1.410 . S
C2691 C2699 1.503 . S
C2692 C2691 1.410 . S
C2692 C2693 1.392 . S
C2692 C2695 1.511 . S
C2693 C2689 1.376 . S
C2693 C2692 1.392 . S
C2693 H2705 0.929 . S
C2694 C2690 1.531 . S
C2694 H2706 0.960 . S
C2694 H2707 0.962 . S
C2694 H2708 0.960 . S
C2695 C2692 1.511 . S
C2695 H2709 0.961 . S
C2695 H2710 0.961 . S
C2695 H2711 0.961 . S
C2696 C2697 1.370 . S
C2696 C2698 1.363 . S
C2696 H2712 0.931 . S
C2697 C2696 1.370 . S
C2697 C2701 1.408 . S
C2698 C2696 1.363 . S
C2698 C2699 1.370 . S
C2698 C2702 1.524 . S
C2699 C2691 1.503 . S
C2699 C2698 1.370 . S
C2699 C2700 1.403 . S
C2700 C2699 1.403 . S
C2700 C2701 1.404 . S
C2700 C2703 1.539 . S
C2701 C2697 1.408 . S
C2701 C2700 1.404 . S
C2701 H2713 0.930 . S
C2702 C2698 1.524 . S
C2702 H2714 0.956 . S
C2702 H2715 0.961 . S
C2702 H2716 0.961 . S
C2703 C2700 1.539 . S
C2703 H2717 0.958 . S
C2703 H2718 0.961 . S
C2703 H2719 0.960 . S
H2704 C2688 0.931 . S
H2705 C2693 0.929 . S
H2706 C2694 0.960 . S
H2707 C2694 0.962 . S
H2708 C2694 0.960 . S
H2709 C2695 0.961 . S
H2710 C2695 0.961 . S
H2711 C2695 0.961 . S
H2712 C2696 0.931 . S
H2713 C2701 0.930 . S
H2714 C2702 0.956 . S
H2715 C2702 0.961 . S
H2716 C2702 0.961 . S
H2717 C2703 0.958 . S
H2718 C2703 0.961 . S
H2719 C2703 0.960 . S
C2720 C2721 1.391 . S
C2720 C2722 1.394 . S
C2720 H2736 0.931 . S
C2721 C2720 1.391 . S
C2721 C2725 1.376 . S
C2722 C2720 1.394 . S
C2722 C2723 1.369 . S
C2722 C2726 1.531 . S
C2723 C2722 1.369 . S
C2723 C2724 1.410 . S
C2723 C2731 1.503 . S
C2724 C2723 1.410 . S
C2724 C2725 1.392 . S
C2724 C2727 1.511 . S
C2725 C2721 1.376 . S
C2725 C2724 1.392 . S
C2725 H2737 0.929 . S
C2726 C2722 1.531 . S
C2726 H2738 0.960 . S
C2726 H2739 0.962 . S
C2726 H2740 0.960 . S
C2727 C2724 1.511 . S
C2727 H2741 0.961 . S
C2727 H2742 0.961 . S
C2727 H2743 0.961 . S
C2728 C2729 1.370 . S
C2728 C2730 1.363 . S
C2728 H2744 0.931 . S
C2729 C2728 1.370 . S
C2729 C2733 1.408 . S
C2730 C2728 1.363 . S
C2730 C2731 1.370 . S
C2730 C2734 1.524 . S
C2731 C2723 1.503 . S
C2731 C2730 1.370 . S
C2731 C2732 1.403 . S
C2732 C2731 1.403 . S
C2732 C2733 1.404 . S
C2732 C2735 1.539 . S
C2733 C2729 1.408 . S
C2733 C2732 1.404 . S
C2733 H2745 0.930 1_565 S
C2734 C2730 1.524 . S
C2734 H2746 0.956 . S
C2734 H2747 0.961 . S
C2734 H2748 0.961 . S
C2735 C2732 1.539 . S
C2735 H2749 0.958 . S
C2735 H2750 0.961 . S
C2735 H2751 0.960 . S
H2736 C2720 0.931 . S
H2737 C2725 0.929 . S
H2738 C2726 0.960 . S
H2739 C2726 0.962 . S
H2740 C2726 0.960 . S
H2741 C2727 0.961 . S
H2742 C2727 0.961 . S
H2743 C2727 0.961 . S
H2744 C2728 0.931 . S
H2745 C2733 0.930 1_545 S
H2746 C2734 0.956 . S
H2747 C2734 0.961 . S
H2748 C2734 0.961 . S
H2749 C2735 0.958 . S
H2750 C2735 0.961 . S
H2751 C2735 0.960 . S
C2752 C2753 1.391 . S
C2752 C2754 1.394 . S
C2752 H2768 0.931 . S
C2753 C2752 1.391 . S
C2753 C2757 1.376 . S
C2754 C2752 1.394 . S
C2754 C2755 1.369 . S
C2754 C2758 1.531 . S
C2755 C2754 1.369 . S
C2755 C2756 1.410 . S
C2755 C2763 1.503 . S
C2756 C2755 1.410 . S
C2756 C2757 1.392 . S
C2756 C2759 1.511 . S
C2757 C2753 1.376 . S
C2757 C2756 1.392 . S
C2757 H2769 0.929 . S
C2758 C2754 1.531 . S
C2758 H2770 0.960 . S
C2758 H2771 0.962 . S
C2758 H2772 0.960 . S
C2759 C2756 1.511 . S
C2759 H2773 0.961 . S
C2759 H2774 0.961 . S
C2759 H2775 0.961 . S
C2760 C2761 1.370 . S
C2760 C2762 1.363 . S
C2760 H2776 0.931 . S
C2761 C2760 1.370 . S
C2761 C2765 1.408 . S
C2762 C2760 1.363 . S
C2762 C2763 1.370 . S
C2762 C2766 1.524 . S
C2763 C2755 1.503 . S
C2763 C2762 1.370 . S
C2763 C2764 1.403 . S
C2764 C2763 1.403 . S
C2764 C2765 1.404 . S
C2764 C2767 1.539 . S
C2765 C2761 1.408 . S
C2765 C2764 1.404 . S
C2765 H2777 0.930 . S
C2766 C2762 1.524 . S
C2766 H2778 0.956 . S
C2766 H2779 0.961 . S
C2766 H2780 0.961 . S
C2767 C2764 1.539 . S
C2767 H2781 0.958 . S
C2767 H2782 0.961 . S
C2767 H2783 0.960 . S
H2768 C2752 0.931 . S
H2769 C2757 0.929 . S
H2770 C2758 0.960 . S
H2771 C2758 0.962 . S
H2772 C2758 0.960 . S
H2773 C2759 0.961 . S
H2774 C2759 0.961 . S
H2775 C2759 0.961 . S
H2776 C2760 0.931 . S
H2777 C2765 0.930 . S
H2778 C2766 0.956 . S
H2779 C2766 0.961 . S
H2780 C2766 0.961 . S
H2781 C2767 0.958 . S
H2782 C2767 0.961 . S
H2783 C2767 0.960 . S
C2784 C2785 1.391 . S
C2784 C2786 1.394 . S
C2784 H2800 0.931 1_655 S
C2785 C2784 1.391 . S
C2785 C2789 1.376 . S
C2786 C2784 1.394 . S
C2786 C2787 1.369 . S
C2786 C2790 1.531 . S
C2787 C2786 1.369 . S
C2787 C2788 1.410 . S
C2787 C2795 1.503 . S
C2788 C2787 1.410 . S
C2788 C2789 1.392 . S
C2788 C2791 1.511 . S
C2789 C2785 1.376 . S
C2789 C2788 1.392 . S
C2789 H2801 0.929 . S
C2790 C2786 1.531 . S
C2790 H2802 0.960 . S
C2790 H2803 0.962 . S
C2790 H2804 0.960 . S
C2791 C2788 1.511 . S
C2791 H2805 0.961 . S
C2791 H2806 0.961 . S
C2791 H2807 0.961 . S
C2792 C2793 1.370 . S
C2792 C2794 1.363 . S
C2792 H2808 0.931 . S
C2793 C2792 1.370 . S
C2793 C2797 1.408 . S
C2794 C2792 1.363 . S
C2794 C2795 1.370 . S
C2794 C2798 1.524 . S
C2795 C2787 1.503 . S
C2795 C2794 1.370 . S
C2795 C2796 1.403 . S
C2796 C2795 1.403 . S
C2796 C2797 1.404 . S
C2796 C2799 1.539 . S
C2797 C2793 1.408 . S
C2797 C2796 1.404 . S
C2797 H2809 0.930 . S
C2798 C2794 1.524 . S
C2798 H2810 0.956 . S
C2798 H2811 0.961 . S
C2798 H2812 0.961 . S
C2799 C2796 1.539 . S
C2799 H2813 0.958 . S
C2799 H2814 0.961 . S
C2799 H2815 0.960 . S
H2800 C2784 0.931 1_455 S
H2801 C2789 0.929 . S
H2802 C2790 0.960 . S
H2803 C2790 0.962 . S
H2804 C2790 0.960 . S
H2805 C2791 0.961 . S
H2806 C2791 0.961 . S
H2807 C2791 0.961 . S
H2808 C2792 0.931 . S
H2809 C2797 0.930 . S
H2810 C2798 0.956 . S
H2811 C2798 0.961 . S
H2812 C2798 0.961 . S
H2813 C2799 0.958 . S
H2814 C2799 0.961 . S
H2815 C2799 0.960 . S
C2816 C2817 1.391 . S
C2816 C2818 1.394 . S
C2816 H2832 0.931 . S
C2817 C2816 1.391 . S
C2817 C2821 1.376 . S
C2818 C2816 1.394 . S
C2818 C2819 1.369 . S
C2818 C2822 1.531 . S
C2819 C2818 1.369 . S
C2819 C2820 1.410 . S
C2819 C2827 1.503 . S
C2820 C2819 1.410 . S
C2820 C2821 1.392 . S
C2820 C2823 1.511 . S
C2821 C2817 1.376 . S
C2821 C2820 1.392 . S
C2821 H2833 0.929 . S
C2822 C2818 1.531 . S
C2822 H2834 0.960 . S
C2822 H2835 0.962 . S
C2822 H2836 0.960 . S
C2823 C2820 1.511 . S
C2823 H2837 0.961 . S
C2823 H2838 0.961 . S
C2823 H2839 0.961 . S
C2824 C2825 1.370 . S
C2824 C2826 1.363 . S
C2824 H2840 0.931 . S
C2825 C2824 1.370 . S
C2825 C2829 1.408 . S
C2826 C2824 1.363 . S
C2826 C2827 1.370 . S
C2826 C2830 1.524 . S
C2827 C2819 1.503 . S
C2827 C2826 1.370 . S
C2827 C2828 1.403 . S
C2828 C2827 1.403 . S
C2828 C2829 1.404 . S
C2828 C2831 1.539 . S
C2829 C2825 1.408 . S
C2829 C2828 1.404 . S
C2829 H2841 0.930 . S
C2830 C2826 1.524 . S
C2830 H2842 0.956 . S
C2830 H2843 0.961 . S
C2830 H2844 0.961 . S
C2831 C2828 1.539 . S
C2831 H2845 0.958 . S
C2831 H2846 0.961 . S
C2831 H2847 0.960 . S
H2832 C2816 0.931 . S
H2833 C2821 0.929 . S
H2834 C2822 0.960 . S
H2835 C2822 0.962 . S
H2836 C2822 0.960 . S
H2837 C2823 0.961 . S
H2838 C2823 0.961 . S
H2839 C2823 0.961 . S
H2840 C2824 0.931 . S
H2841 C2829 0.930 . S
H2842 C2830 0.956 . S
H2843 C2830 0.961 . S
H2844 C2830 0.961 . S
H2845 C2831 0.958 . S
H2846 C2831 0.961 . S
H2847 C2831 0.960 . S
C2848 C2849 1.391 . S
C2848 C2850 1.394 . S
C2848 H2864 0.931 . S
C2849 C2848 1.391 . S
C2849 C2853 1.376 . S
C2850 C2848 1.394 . S
C2850 C2851 1.369 . S
C2850 C2854 1.531 . S
C2851 C2850 1.369 . S
C2851 C2852 1.410 . S
C2851 C2859 1.503 . S
C2852 C2851 1.410 . S
C2852 C2853 1.392 . S
C2852 C2855 1.511 . S
C2853 C2849 1.376 . S
C2853 C2852 1.392 . S
C2853 H2865 0.929 . S
C2854 C2850 1.531 . S
C2854 H2866 0.960 . S
C2854 H2867 0.962 . S
C2854 H2868 0.960 . S
C2855 C2852 1.511 . S
C2855 H2869 0.961 . S
C2855 H2870 0.961 . S
C2855 H2871 0.961 . S
C2856 C2857 1.370 . S
C2856 C2858 1.363 . S
C2856 H2872 0.931 . S
C2857 C2856 1.370 . S
C2857 C2861 1.408 . S
C2858 C2856 1.363 . S
C2858 C2859 1.370 . S
C2858 C2862 1.524 . S
C2859 C2851 1.503 . S
C2859 C2858 1.370 . S
C2859 C2860 1.403 . S
C2860 C2859 1.403 . S
C2860 C2861 1.404 . S
C2860 C2863 1.539 . S
C2861 C2857 1.408 . S
C2861 C2860 1.404 . S
C2861 H2873 0.930 . S
C2862 C2858 1.524 . S
C2862 H2874 0.956 . S
C2862 H2875 0.961 . S
C2862 H2876 0.961 . S
C2863 C2860 1.539 . S
C2863 H2877 0.958 . S
C2863 H2878 0.961 . S
C2863 H2879 0.960 . S
H2864 C2848 0.931 . S
H2865 C2853 0.929 . S
H2866 C2854 0.960 . S
H2867 C2854 0.962 . S
H2868 C2854 0.960 . S
H2869 C2855 0.961 . S
H2870 C2855 0.961 . S
H2871 C2855 0.961 . S
H2872 C2856 0.931 . S
H2873 C2861 0.930 . S
H2874 C2862 0.956 . S
H2875 C2862 0.961 . S
H2876 C2862 0.961 . S
H2877 C2863 0.958 . S
H2878 C2863 0.961 . S
H2879 C2863 0.960 . S
C2880 C2881 1.391 . S
C2880 C2882 1.394 . S
C2880 H2896 0.931 . S
C2881 C2880 1.391 . S
C2881 C2885 1.376 . S
C2882 C2880 1.394 . S
C2882 C2883 1.369 . S
C2882 C2886 1.531 . S
C2883 C2882 1.369 . S
C2883 C2884 1.410 . S
C2883 C2891 1.503 . S
C2884 C2883 1.410 . S
C2884 C2885 1.392 . S
C2884 C2887 1.511 . S
C2885 C2881 1.376 . S
C2885 C2884 1.392 . S
C2885 H2897 0.929 . S
C2886 C2882 1.531 . S
C2886 H2898 0.960 . S
C2886 H2899 0.962 . S
C2886 H2900 0.960 . S
C2887 C2884 1.511 . S
C2887 H2901 0.961 . S
C2887 H2902 0.961 . S
C2887 H2903 0.961 . S
C2888 C2889 1.370 . S
C2888 C2890 1.363 . S
C2888 H2904 0.931 . S
C2889 C2888 1.370 . S
C2889 C2893 1.408 . S
C2890 C2888 1.363 . S
C2890 C2891 1.370 . S
C2890 C2894 1.524 . S
C2891 C2883 1.503 . S
C2891 C2890 1.370 . S
C2891 C2892 1.403 . S
C2892 C2891 1.403 . S
C2892 C2893 1.404 . S
C2892 C2895 1.539 . S
C2893 C2889 1.408 . S
C2893 C2892 1.404 . S
C2893 H2905 0.930 . S
C2894 C2890 1.524 . S
C2894 H2906 0.956 . S
C2894 H2907 0.961 . S
C2894 H2908 0.961 . S
C2895 C2892 1.539 . S
C2895 H2909 0.958 . S
C2895 H2910 0.961 . S
C2895 H2911 0.960 . S
H2896 C2880 0.931 . S
H2897 C2885 0.929 . S
H2898 C2886 0.960 . S
H2899 C2886 0.962 . S
H2900 C2886 0.960 . S
H2901 C2887 0.961 . S
H2902 C2887 0.961 . S
H2903 C2887 0.961 . S
H2904 C2888 0.931 . S
H2905 C2893 0.930 . S
H2906 C2894 0.956 . S
H2907 C2894 0.961 . S
H2908 C2894 0.961 . S
H2909 C2895 0.958 . S
H2910 C2895 0.961 . S
H2911 C2895 0.960 . S
C2912 C2913 1.391 . S
C2912 C2914 1.394 . S
C2912 H2928 0.931 . S
C2913 C2912 1.391 . S
C2913 C2917 1.376 . S
C2914 C2912 1.394 . S
C2914 C2915 1.369 . S
C2914 C2918 1.531 . S
C2915 C2914 1.369 . S
C2915 C2916 1.410 . S
C2915 C2923 1.503 . S
C2916 C2915 1.410 . S
C2916 C2917 1.392 . S
C2916 C2919 1.511 . S
C2917 C2913 1.376 . S
C2917 C2916 1.392 . S
C2917 H2929 0.929 . S
C2918 C2914 1.531 . S
C2918 H2930 0.960 . S
C2918 H2931 0.962 . S
C2918 H2932 0.960 . S
C2919 C2916 1.511 . S
C2919 H2933 0.961 . S
C2919 H2934 0.961 . S
C2919 H2935 0.961 . S
C2920 C2921 1.370 . S
C2920 C2922 1.363 . S
C2920 H2936 0.931 . S
C2921 C2920 1.370 . S
C2921 C2925 1.408 . S
C2922 C2920 1.363 . S
C2922 C2923 1.370 . S
C2922 C2926 1.524 . S
C2923 C2915 1.503 . S
C2923 C2922 1.370 . S
C2923 C2924 1.403 . S
C2924 C2923 1.403 . S
C2924 C2925 1.404 . S
C2924 C2927 1.539 . S
C2925 C2921 1.408 . S
C2925 C2924 1.404 . S
C2925 H2937 0.930 . S
C2926 C2922 1.524 . S
C2926 H2938 0.956 . S
C2926 H2939 0.961 . S
C2926 H2940 0.961 . S
C2927 C2924 1.539 . S
C2927 H2941 0.958 . S
C2927 H2942 0.961 . S
C2927 H2943 0.960 . S
H2928 C2912 0.931 . S
H2929 C2917 0.929 . S
H2930 C2918 0.960 . S
H2931 C2918 0.962 . S
H2932 C2918 0.960 . S
H2933 C2919 0.961 . S
H2934 C2919 0.961 . S
H2935 C2919 0.961 . S
H2936 C2920 0.931 . S
H2937 C2925 0.930 . S
H2938 C2926 0.956 . S
H2939 C2926 0.961 . S
H2940 C2926 0.961 . S
H2941 C2927 0.958 . S
H2942 C2927 0.961 . S
H2943 C2927 0.960 . S
C2944 C2945 1.391 . S
C2944 C2946 1.394 . S
C2944 H2960 0.931 . S
C2945 C2944 1.391 . S
C2945 C2949 1.376 . S
C2946 C2944 1.394 . S
C2946 C2947 1.369 . S
C2946 C2950 1.531 . S
C2947 C2946 1.369 . S
C2947 C2948 1.410 . S
C2947 C2955 1.503 . S
C2948 C2947 1.410 . S
C2948 C2949 1.392 . S
C2948 C2951 1.511 . S
C2949 C2945 1.376 . S
C2949 C2948 1.392 . S
C2949 H2961 0.929 . S
C2950 C2946 1.531 . S
C2950 H2962 0.960 . S
C2950 H2963 0.962 . S
C2950 H2964 0.960 . S
C2951 C2948 1.511 . S
C2951 H2965 0.961 . S
C2951 H2966 0.961 . S
C2951 H2967 0.961 . S
C2952 C2953 1.370 . S
C2952 C2954 1.363 . S
C2952 H2968 0.931 . S
C2953 C2952 1.370 . S
C2953 C2957 1.408 . S
C2954 C2952 1.363 . S
C2954 C2955 1.370 . S
C2954 C2958 1.524 . S
C2955 C2947 1.503 . S
C2955 C2954 1.370 . S
C2955 C2956 1.403 . S
C2956 C2955 1.403 . S
C2956 C2957 1.404 . S
C2956 C2959 1.539 . S
C2957 C2953 1.408 . S
C2957 C2956 1.404 . S
C2957 H2969 0.930 . S
C2958 C2954 1.524 . S
C2958 H2970 0.956 . S
C2958 H2971 0.961 . S
C2958 H2972 0.961 . S
C2959 C2956 1.539 . S
C2959 H2973 0.958 . S
C2959 H2974 0.961 . S
C2959 H2975 0.960 . S
H2960 C2944 0.931 . S
H2961 C2949 0.929 . S
H2962 C2950 0.960 . S
H2963 C2950 0.962 . S
H2964 C2950 0.960 . S
H2965 C2951 0.961 . S
H2966 C2951 0.961 . S
H2967 C2951 0.961 . S
H2968 C2952 0.931 . S
H2969 C2957 0.930 . S
H2970 C2958 0.956 . S
H2971 C2958 0.961 . S
H2972 C2958 0.961 . S
H2973 C2959 0.958 . S
H2974 C2959 0.961 . S
H2975 C2959 0.960 . S
C2976 C2977 1.391 . S
C2976 C2978 1.394 . S
C2976 H2992 0.931 . S
C2977 C2976 1.391 . S
C2977 C2981 1.376 . S
C2978 C2976 1.394 . S
C2978 C2979 1.369 . S
C2978 C2982 1.531 . S
C2979 C2978 1.369 . S
C2979 C2980 1.410 . S
C2979 C2987 1.503 . S
C2980 C2979 1.410 . S
C2980 C2981 1.392 . S
C2980 C2983 1.511 . S
C2981 C2977 1.376 . S
C2981 C2980 1.392 . S
C2981 H2993 0.929 . S
C2982 C2978 1.531 . S
C2982 H2994 0.960 . S
C2982 H2995 0.962 . S
C2982 H2996 0.960 . S
C2983 C2980 1.511 . S
C2983 H2997 0.961 . S
C2983 H2998 0.961 . S
C2983 H2999 0.961 . S
C2984 C2985 1.370 . S
C2984 C2986 1.363 . S
C2984 H3000 0.931 . S
C2985 C2984 1.370 . S
C2985 C2989 1.408 . S
C2986 C2984 1.363 . S
C2986 C2987 1.370 . S
C2986 C2990 1.524 . S
C2987 C2979 1.503 . S
C2987 C2986 1.370 . S
C2987 C2988 1.403 . S
C2988 C2987 1.403 . S
C2988 C2989 1.404 . S
C2988 C2991 1.539 . S
C2989 C2985 1.408 . S
C2989 C2988 1.404 . S
C2989 H3001 0.930 . S
C2990 C2986 1.524 . S
C2990 H3002 0.956 . S
C2990 H3003 0.961 . S
C2990 H3004 0.961 . S
C2991 C2988 1.539 . S
C2991 H3005 0.958 . S
C2991 H3006 0.961 . S
C2991 H3007 0.960 . S
H2992 C2976 0.931 . S
H2993 C2981 0.929 . S
H2994 C2982 0.960 . S
H2995 C2982 0.962 . S
H2996 C2982 0.960 . S
H2997 C2983 0.961 . S
H2998 C2983 0.961 . S
H2999 C2983 0.961 . S
H3000 C2984 0.931 . S
H3001 C2989 0.930 . S
H3002 C2990 0.956 . S
H3003 C2990 0.961 . S
H3004 C2990 0.961 . S
H3005 C2991 0.958 . S
H3006 C2991 0.961 . S
H3007 C2991 0.960 . S
C3008 C3009 1.391 . S
C3008 C3010 1.394 . S
C3008 H3024 0.931 . S
C3009 C3008 1.391 . S
C3009 C3013 1.376 . S
C3010 C3008 1.394 . S
C3010 C3011 1.369 . S
C3010 C3014 1.531 . S
C3011 C3010 1.369 . S
C3011 C3012 1.410 . S
C3011 C3019 1.503 . S
C3012 C3011 1.410 . S
C3012 C3013 1.392 . S
C3012 C3015 1.511 . S
C3013 C3009 1.376 . S
C3013 C3012 1.392 . S
C3013 H3025 0.929 . S
C3014 C3010 1.531 . S
C3014 H3026 0.960 . S
C3014 H3027 0.962 . S
C3014 H3028 0.960 . S
C3015 C3012 1.511 . S
C3015 H3029 0.961 . S
C3015 H3030 0.961 . S
C3015 H3031 0.961 . S
C3016 C3017 1.370 . S
C3016 C3018 1.363 . S
C3016 H3032 0.931 . S
C3017 C3016 1.370 . S
C3017 C3021 1.408 . S
C3018 C3016 1.363 . S
C3018 C3019 1.370 . S
C3018 C3022 1.524 . S
C3019 C3011 1.503 . S
C3019 C3018 1.370 . S
C3019 C3020 1.403 . S
C3020 C3019 1.403 . S
C3020 C3021 1.404 . S
C3020 C3023 1.539 . S
C3021 C3017 1.408 . S
C3021 C3020 1.404 . S
C3021 H3033 0.930 . S
C3022 C3018 1.524 . S
C3022 H3034 0.956 . S
C3022 H3035 0.961 . S
C3022 H3036 0.961 . S
C3023 C3020 1.539 . S
C3023 H3037 0.958 . S
C3023 H3038 0.961 . S
C3023 H3039 0.960 . S
H3024 C3008 0.931 . S
H3025 C3013 0.929 . S
H3026 C3014 0.960 . S
H3027 C3014 0.962 . S
H3028 C3014 0.960 . S
H3029 C3015 0.961 . S
H3030 C3015 0.961 . S
H3031 C3015 0.961 . S
H3032 C3016 0.931 . S
H3033 C3021 0.930 . S
H3034 C3022 0.956 . S
H3035 C3022 0.961 . S
H3036 C3022 0.961 . S
H3037 C3023 0.958 . S
H3038 C3023 0.961 . S
H3039 C3023 0.960 . S
C3040 C3041 1.391 . S
C3040 C3042 1.394 . S
C3040 H3056 0.931 . S
C3041 C3040 1.391 . S
C3041 C3045 1.376 . S
C3042 C3040 1.394 . S
C3042 C3043 1.369 . S
C3042 C3046 1.531 . S
C3043 C3042 1.369 . S
C3043 C3044 1.410 . S
C3043 C3051 1.503 . S
C3044 C3043 1.410 . S
C3044 C3045 1.392 . S
C3044 C3047 1.511 . S
C3045 C3041 1.376 . S
C3045 C3044 1.392 . S
C3045 H3057 0.929 1_556 S
C3046 C3042 1.531 . S
C3046 H3058 0.960 . S
C3046 H3059 0.962 . S
C3046 H3060 0.960 . S
C3047 C3044 1.511 . S
C3047 H3061 0.961 . S
C3047 H3062 0.961 . S
C3047 H3063 0.961 . S
C3048 C3049 1.370 . S
C3048 C3050 1.363 . S
C3048 H3064 0.931 . S
C3049 C3048 1.370 . S
C3049 C3053 1.408 . S
C3050 C3048 1.363 . S
C3050 C3051 1.370 . S
C3050 C3054 1.524 . S
C3051 C3043 1.503 . S
C3051 C3050 1.370 . S
C3051 C3052 1.403 . S
C3052 C3051 1.403 . S
C3052 C3053 1.404 . S
C3052 C3055 1.539 . S
C3053 C3049 1.408 . S
C3053 C3052 1.404 . S
C3053 H3065 0.930 . S
C3054 C3050 1.524 . S
C3054 H3066 0.956 . S
C3054 H3067 0.961 . S
C3054 H3068 0.961 . S
C3055 C3052 1.539 . S
C3055 H3069 0.958 . S
C3055 H3070 0.961 . S
C3055 H3071 0.960 . S
H3056 C3040 0.931 . S
H3057 C3045 0.929 1_554 S
H3058 C3046 0.960 . S
H3059 C3046 0.962 . S
H3060 C3046 0.960 . S
H3061 C3047 0.961 . S
H3062 C3047 0.961 . S
H3063 C3047 0.961 . S
H3064 C3048 0.931 . S
H3065 C3053 0.930 . S
H3066 C3054 0.956 . S
H3067 C3054 0.961 . S
H3068 C3054 0.961 . S
H3069 C3055 0.958 . S
H3070 C3055 0.961 . S
H3071 C3055 0.960 . S
C3072 C3073 1.391 . S
C3072 C3074 1.394 . S
C3072 H3088 0.931 1_556 S
C3073 C3072 1.391 . S
C3073 C3077 1.376 . S
C3074 C3072 1.394 . S
C3074 C3075 1.369 . S
C3074 C3078 1.531 . S
C3075 C3074 1.369 . S
C3075 C3076 1.410 . S
C3075 C3083 1.503 . S
C3076 C3075 1.410 . S
C3076 C3077 1.392 . S
C3076 C3079 1.511 . S
C3077 C3073 1.376 . S
C3077 C3076 1.392 . S
C3077 H3089 0.929 . S
C3078 C3074 1.531 . S
C3078 H3090 0.960 . S
C3078 H3091 0.962 . S
C3078 H3092 0.960 . S
C3079 C3076 1.511 . S
C3079 H3093 0.961 . S
C3079 H3094 0.961 . S
C3079 H3095 0.961 . S
C3080 C3081 1.370 . S
C3080 C3082 1.363 . S
C3080 H3096 0.931 . S
C3081 C3080 1.370 . S
C3081 C3085 1.408 . S
C3082 C3080 1.363 . S
C3082 C3083 1.370 . S
C3082 C3086 1.524 . S
C3083 C3075 1.503 . S
C3083 C3082 1.370 . S
C3083 C3084 1.403 . S
C3084 C3083 1.403 . S
C3084 C3085 1.404 . S
C3084 C3087 1.539 . S
C3085 C3081 1.408 . S
C3085 C3084 1.404 . S
C3085 H3097 0.930 . S
C3086 C3082 1.524 . S
C3086 H3098 0.956 . S
C3086 H3099 0.961 . S
C3086 H3100 0.961 . S
C3087 C3084 1.539 . S
C3087 H3101 0.958 . S
C3087 H3102 0.961 . S
C3087 H3103 0.960 . S
H3088 C3072 0.931 1_554 S
H3089 C3077 0.929 . S
H3090 C3078 0.960 . S
H3091 C3078 0.962 . S
H3092 C3078 0.960 . S
H3093 C3079 0.961 . S
H3094 C3079 0.961 . S
H3095 C3079 0.961 . S
H3096 C3080 0.931 . S
H3097 C3085 0.930 . S
H3098 C3086 0.956 . S
H3099 C3086 0.961 . S
H3100 C3086 0.961 . S
H3101 C3087 0.958 . S
H3102 C3087 0.961 . S
H3103 C3087 0.960 . S
C3104 C3105 1.391 . S
C3104 C3106 1.394 . S
C3104 H3120 0.931 . S
C3105 C3104 1.391 . S
C3105 C3109 1.376 . S
C3106 C3104 1.394 . S
C3106 C3107 1.369 . S
C3106 C3110 1.531 . S
C3107 C3106 1.369 . S
C3107 C3108 1.410 . S
C3107 C3115 1.503 . S
C3108 C3107 1.410 . S
C3108 C3109 1.392 . S
C3108 C3111 1.511 . S
C3109 C3105 1.376 . S
C3109 C3108 1.392 . S
C3109 H3121 0.929 . S
C3110 C3106 1.531 . S
C3110 H3122 0.960 . S
C3110 H3123 0.962 . S
C3110 H3124 0.960 . S
C3111 C3108 1.511 . S
C3111 H3125 0.961 . S
C3111 H3126 0.961 . S
C3111 H3127 0.961 . S
C3112 C3113 1.370 . S
C3112 C3114 1.363 . S
C3112 H3128 0.931 . S
C3113 C3112 1.370 . S
C3113 C3117 1.408 1_556 S
C3114 C3112 1.363 . S
C3114 C3115 1.370 . S
C3114 C3118 1.524 . S
C3115 C3107 1.503 . S
C3115 C3114 1.370 . S
C3115 C3116 1.403 . S
C3116 C3115 1.403 . S
C3116 C3117 1.404 1_556 S
C3116 C3119 1.539 . S
C3117 C3113 1.408 1_554 S
C3117 C3116 1.404 1_554 S
C3117 H3129 0.930 . S
C3118 C3114 1.524 . S
C3118 H3130 0.956 . S
C3118 H3131 0.961 . S
C3118 H3132 0.961 . S
C3119 C3116 1.539 . S
C3119 H3133 0.958 . S
C3119 H3134 0.961 1_556 S
C3119 H3135 0.960 . S
H3120 C3104 0.931 . S
H3121 C3109 0.929 . S
H3122 C3110 0.960 . S
H3123 C3110 0.962 . S
H3124 C3110 0.960 . S
H3125 C3111 0.961 . S
H3126 C3111 0.961 . S
H3127 C3111 0.961 . S
H3128 C3112 0.931 . S
H3129 C3117 0.930 . S
H3130 C3118 0.956 . S
H3131 C3118 0.961 . S
H3132 C3118 0.961 . S
H3133 C3119 0.958 . S
H3134 C3119 0.961 1_554 S
H3135 C3119 0.960 . S
C3136 C3137 1.391 . S
C3136 C3138 1.394 . S
C3136 H3152 0.931 . S
C3137 C3136 1.391 . S
C3137 C3141 1.376 . S
C3138 C3136 1.394 . S
C3138 C3139 1.369 . S
C3138 C3142 1.531 . S
C3139 C3138 1.369 . S
C3139 C3140 1.410 . S
C3139 C3147 1.503 . S
C3140 C3139 1.410 . S
C3140 C3141 1.392 . S
C3140 C3143 1.511 . S
C3141 C3137 1.376 . S
C3141 C3140 1.392 . S
C3141 H3153 0.929 . S
C3142 C3138 1.531 . S
C3142 H3154 0.960 . S
C3142 H3155 0.962 . S
C3142 H3156 0.960 . S
C3143 C3140 1.511 . S
C3143 H3157 0.961 . S
C3143 H3158 0.961 . S
C3143 H3159 0.961 . S
C3144 C3145 1.370 . S
C3144 C3146 1.363 . S
C3144 H3160 0.931 . S
C3145 C3144 1.370 . S
C3145 C3149 1.408 . S
C3146 C3144 1.363 . S
C3146 C3147 1.370 . S
C3146 C3150 1.524 . S
C3147 C3139 1.503 . S
C3147 C3146 1.370 . S
C3147 C3148 1.403 . S
C3148 C3147 1.403 . S
C3148 C3149 1.404 . S
C3148 C3151 1.539 . S
C3149 C3145 1.408 . S
C3149 C3148 1.404 . S
C3149 H3161 0.930 1_556 S
C3150 C3146 1.524 . S
C3150 H3162 0.956 . S
C3150 H3163 0.961 . S
C3150 H3164 0.961 . S
C3151 C3148 1.539 . S
C3151 H3165 0.958 . S
C3151 H3166 0.994 . S
C3151 H3167 0.960 . S
H3152 C3136 0.931 . S
H3153 C3141 0.929 . S
H3154 C3142 0.960 . S
H3155 C3142 0.962 . S
H3156 C3142 0.960 . S
H3157 C3143 0.961 . S
H3158 C3143 0.961 . S
H3159 C3143 0.961 . S
H3160 C3144 0.931 . S
H3161 C3149 0.930 1_554 S
H3162 C3150 0.956 . S
H3163 C3150 0.961 . S
H3164 C3150 0.961 . S
H3165 C3151 0.958 . S
H3166 C3151 0.994 . S
H3167 C3151 0.960 . S
C3168 C3169 1.391 . S
C3168 C3170 1.394 . S
C3168 H3184 0.931 . S
C3169 C3168 1.391 . S
C3169 C3173 1.376 . S
C3170 C3168 1.394 . S
C3170 C3171 1.369 . S
C3170 C3174 1.531 . S
C3171 C3170 1.369 . S
C3171 C3172 1.410 . S
C3171 C3179 1.503 . S
C3172 C3171 1.410 . S
C3172 C3173 1.392 . S
C3172 C3175 1.511 . S
C3173 C3169 1.376 . S
C3173 C3172 1.392 . S
C3173 H3185 0.929 . S
C3174 C3170 1.531 . S
C3174 H3186 0.960 . S
C3174 H3187 0.962 . S
C3174 H3188 0.960 . S
C3175 C3172 1.511 . S
C3175 H3189 0.961 . S
C3175 H3190 0.961 . S
C3175 H3191 0.961 . S
C3176 C3177 1.370 . S
C3176 C3178 1.363 . S
C3176 H3192 0.931 . S
C3177 C3176 1.370 . S
C3177 C3181 1.408 . S
C3178 C3176 1.363 . S
C3178 C3179 1.370 . S
C3178 C3182 1.524 . S
C3179 C3171 1.503 . S
C3179 C3178 1.370 . S
C3179 C3180 1.403 . S
C3180 C3179 1.403 . S
C3180 C3181 1.404 . S
C3180 C3183 1.539 . S
C3181 C3177 1.408 . S
C3181 C3180 1.404 . S
C3181 H3193 0.930 . S
C3182 C3178 1.524 . S
C3182 H3194 0.956 . S
C3182 H3195 0.961 . S
C3182 H3196 0.961 . S
C3183 C3180 1.539 . S
C3183 H3197 0.958 . S
C3183 H3198 0.961 . S
C3183 H3199 0.960 . S
H3184 C3168 0.931 . S
H3185 C3173 0.929 . S
H3186 C3174 0.960 . S
H3187 C3174 0.962 . S
H3188 C3174 0.960 . S
H3189 C3175 0.961 . S
H3190 C3175 0.961 . S
H3191 C3175 0.961 . S
H3192 C3176 0.931 . S
H3193 C3181 0.930 . S
H3194 C3182 0.956 . S
H3195 C3182 0.961 . S
H3196 C3182 0.961 . S
H3197 C3183 0.958 . S
H3198 C3183 0.961 . S
H3199 C3183 0.960 . S
C3200 C3201 1.391 . S
C3200 C3202 1.394 . S
C3200 H3216 0.931 . S
C3201 C3200 1.391 . S
C3201 C3205 1.376 . S
C3202 C3200 1.394 . S
C3202 C3203 1.369 . S
C3202 C3206 1.531 . S
C3203 C3202 1.369 . S
C3203 C3204 1.410 . S
C3203 C3211 1.503 . S
C3204 C3203 1.410 . S
C3204 C3205 1.392 . S
C3204 C3207 1.511 . S
C3205 C3201 1.376 . S
C3205 C3204 1.392 . S
C3205 H3217 0.929 . S
C3206 C3202 1.531 . S
C3206 H3218 0.960 . S
C3206 H3219 0.962 . S
C3206 H3220 0.960 . S
C3207 C3204 1.511 . S
C3207 H3221 0.961 . S
C3207 H3222 0.961 . S
C3207 H3223 0.961 . S
C3208 C3209 1.370 . S
C3208 C3210 1.363 . S
C3208 H3224 0.931 . S
C3209 C3208 1.370 . S
C3209 C3213 1.408 . S
C3210 C3208 1.363 . S
C3210 C3211 1.370 . S
C3210 C3214 1.524 . S
C3211 C3203 1.503 . S
C3211 C3210 1.370 . S
C3211 C3212 1.403 . S
C3212 C3211 1.403 . S
C3212 C3213 1.404 . S
C3212 C3215 1.539 . S
C3213 C3209 1.408 . S
C3213 C3212 1.404 . S
C3213 H3225 0.930 . S
C3214 C3210 1.524 . S
C3214 H3226 0.956 . S
C3214 H3227 0.961 . S
C3214 H3228 0.961 . S
C3215 C3212 1.539 . S
C3215 H3229 0.958 . S
C3215 H3230 0.961 . S
C3215 H3231 0.960 . S
H3216 C3200 0.931 . S
H3217 C3205 0.929 . S
H3218 C3206 0.960 . S
H3219 C3206 0.962 . S
H3220 C3206 0.960 . S
H3221 C3207 0.961 . S
H3222 C3207 0.961 . S
H3223 C3207 0.961 . S
H3224 C3208 0.931 . S
H3225 C3213 0.930 . S
H3226 C3214 0.956 . S
H3227 C3214 0.961 . S
H3228 C3214 0.961 . S
H3229 C3215 0.958 . S
H3230 C3215 0.961 . S
H3231 C3215 0.960 . S
C3232 C3233 1.391 . S
C3232 C3234 1.394 . S
C3232 H3248 0.931 . S
C3233 C3232 1.391 . S
C3233 C3237 1.376 . S
C3234 C3232 1.394 . S
C3234 C3235 1.369 . S
C3234 C3238 1.531 . S
C3235 C3234 1.369 . S
C3235 C3236 1.410 . S
C3235 C3243 1.503 . S
C3236 C3235 1.410 . S
C3236 C3237 1.392 . S
C3236 C3239 1.511 . S
C3237 C3233 1.376 . S
C3237 C3236 1.392 . S
C3237 H3249 0.929 . S
C3238 C3234 1.531 . S
C3238 H3250 0.960 . S
C3238 H3251 0.962 . S
C3238 H3252 0.960 . S
C3239 C3236 1.511 . S
C3239 H3253 0.961 . S
C3239 H3254 0.961 . S
C3239 H3255 0.961 . S
C3240 C3241 1.370 . S
C3240 C3242 1.363 . S
C3240 H3256 0.931 . S
C3241 C3240 1.370 . S
C3241 C3245 1.408 . S
C3242 C3240 1.363 . S
C3242 C3243 1.370 . S
C3242 C3246 1.524 . S
C3243 C3235 1.503 . S
C3243 C3242 1.370 . S
C3243 C3244 1.403 . S
C3244 C3243 1.403 . S
C3244 C3245 1.404 . S
C3244 C3247 1.539 . S
C3245 C3241 1.408 . S
C3245 C3244 1.404 . S
C3245 H3257 0.930 . S
C3246 C3242 1.524 . S
C3246 H3258 0.956 . S
C3246 H3259 0.961 . S
C3246 H3260 0.961 . S
C3247 C3244 1.539 . S
C3247 H3261 0.958 . S
C3247 H3262 0.961 . S
C3247 H3263 0.960 . S
H3248 C3232 0.931 . S
H3249 C3237 0.929 . S
H3250 C3238 0.960 . S
H3251 C3238 0.962 . S
H3252 C3238 0.960 . S
H3253 C3239 0.961 . S
H3254 C3239 0.961 . S
H3255 C3239 0.961 . S
H3256 C3240 0.931 . S
H3257 C3245 0.930 . S
H3258 C3246 0.956 . S
H3259 C3246 0.961 . S
H3260 C3246 0.961 . S
H3261 C3247 0.958 . S
H3262 C3247 0.961 . S
H3263 C3247 0.960 . S
C3264 C3265 1.391 . S
C3264 C3266 1.394 . S
C3264 H3280 0.931 . S
C3265 C3264 1.391 . S
C3265 C3269 1.376 . S
C3266 C3264 1.394 . S
C3266 C3267 1.369 . S
C3266 C3270 1.531 . S
C3267 C3266 1.369 . S
C3267 C3268 1.410 . S
C3267 C3275 1.503 . S
C3268 C3267 1.410 . S
C3268 C3269 1.392 . S
C3268 C3271 1.511 . S
C3269 C3265 1.376 . S
C3269 C3268 1.392 . S
C3269 H3281 0.929 . S
C3270 C3266 1.531 . S
C3270 H3282 0.960 . S
C3270 H3283 0.962 . S
C3270 H3284 0.960 . S
C3271 C3268 1.511 . S
C3271 H3285 0.961 . S
C3271 H3286 0.961 . S
C3271 H3287 0.961 . S
C3272 C3273 1.370 . S
C3272 C3274 1.363 . S
C3272 H3288 0.931 . S
C3273 C3272 1.370 . S
C3273 C3277 1.408 . S
C3274 C3272 1.363 . S
C3274 C3275 1.370 . S
C3274 C3278 1.524 . S
C3275 C3267 1.503 . S
C3275 C3274 1.370 . S
C3275 C3276 1.403 . S
C3276 C3275 1.403 . S
C3276 C3277 1.404 . S
C3276 C3279 1.539 . S
C3277 C3273 1.408 . S
C3277 C3276 1.404 . S
C3277 H3289 0.930 . S
C3278 C3274 1.524 . S
C3278 H3290 0.956 . S
C3278 H3291 0.961 . S
C3278 H3292 0.961 . S
C3279 C3276 1.539 . S
C3279 H3293 0.958 . S
C3279 H3294 0.961 . S
C3279 H3295 0.960 . S
H3280 C3264 0.931 . S
H3281 C3269 0.929 . S
H3282 C3270 0.960 . S
H3283 C3270 0.962 . S
H3284 C3270 0.960 . S
H3285 C3271 0.961 . S
H3286 C3271 0.961 . S
H3287 C3271 0.961 . S
H3288 C3272 0.931 . S
H3289 C3277 0.930 . S
H3290 C3278 0.956 . S
H3291 C3278 0.961 . S
H3292 C3278 0.961 . S
H3293 C3279 0.958 . S
H3294 C3279 0.961 . S
H3295 C3279 0.960 . S
C3296 C3297 1.391 . S
C3296 C3298 1.394 . S
C3296 H3312 0.931 . S
C3297 C3296 1.391 . S
C3297 C3301 1.376 . S
C3298 C3296 1.394 . S
C3298 C3299 1.369 . S
C3298 C3302 1.531 . S
C3299 C3298 1.369 . S
C3299 C3300 1.410 . S
C3299 C3307 1.503 . S
C3300 C3299 1.410 . S
C3300 C3301 1.392 . S
C3300 C3303 1.511 . S
C3301 C3297 1.376 . S
C3301 C3300 1.392 . S
C3301 H3313 0.929 . S
C3302 C3298 1.531 . S
C3302 H3314 0.960 . S
C3302 H3315 0.962 . S
C3302 H3316 0.960 . S
C3303 C3300 1.511 . S
C3303 H3317 0.961 . S
C3303 H3318 0.961 . S
C3303 H3319 0.961 . S
C3304 C3305 1.370 . S
C3304 C3306 1.363 . S
C3304 H3320 0.931 . S
C3305 C3304 1.370 . S
C3305 C3309 1.408 . S
C3306 C3304 1.363 . S
C3306 C3307 1.370 . S
C3306 C3310 1.524 . S
C3307 C3299 1.503 . S
C3307 C3306 1.370 . S
C3307 C3308 1.403 . S
C3308 C3307 1.403 . S
C3308 C3309 1.404 . S
C3308 C3311 1.539 . S
C3309 C3305 1.408 . S
C3309 C3308 1.404 . S
C3309 H3321 0.930 . S
C3310 C3306 1.524 . S
C3310 H3322 0.956 . S
C3310 H3323 0.961 . S
C3310 H3324 0.961 . S
C3311 C3308 1.539 . S
C3311 H3325 0.958 . S
C3311 H3326 0.961 . S
C3311 H3327 0.960 . S
H3312 C3296 0.931 . S
H3313 C3301 0.929 . S
H3314 C3302 0.960 . S
H3315 C3302 0.962 . S
H3316 C3302 0.960 . S
H3317 C3303 0.961 . S
H3318 C3303 0.961 . S
H3319 C3303 0.961 . S
H3320 C3304 0.931 . S
H3321 C3309 0.930 . S
H3322 C3310 0.956 . S
H3323 C3310 0.961 . S
H3324 C3310 0.961 . S
H3325 C3311 0.958 . S
H3326 C3311 0.961 . S
H3327 C3311 0.960 . S
C3328 C3329 1.391 . S
C3328 C3330 1.394 . S
C3328 H3344 0.931 . S
C3329 C3328 1.391 . S
C3329 C3333 1.376 . S
C3330 C3328 1.394 . S
C3330 C3331 1.369 . S
C3330 C3334 1.531 . S
C3331 C3330 1.369 . S
C3331 C3332 1.410 . S
C3331 C3339 1.503 . S
C3332 C3331 1.410 . S
C3332 C3333 1.392 . S
C3332 C3335 1.511 . S
C3333 C3329 1.376 . S
C3333 C3332 1.392 . S
C3333 H3345 0.929 . S
C3334 C3330 1.531 . S
C3334 H3346 0.960 . S
C3334 H3347 0.962 . S
C3334 H3348 0.960 . S
C3335 C3332 1.511 . S
C3335 H3349 0.961 . S
C3335 H3350 0.961 . S
C3335 H3351 0.961 . S
C3336 C3337 1.370 . S
C3336 C3338 1.363 . S
C3336 H3352 0.931 . S
C3337 C3336 1.370 . S
C3337 C3341 1.408 . S
C3338 C3336 1.363 . S
C3338 C3339 1.370 . S
C3338 C3342 1.524 . S
C3339 C3331 1.503 . S
C3339 C3338 1.370 . S
C3339 C3340 1.403 . S
C3340 C3339 1.403 . S
C3340 C3341 1.404 . S
C3340 C3343 1.539 . S
C3341 C3337 1.408 . S
C3341 C3340 1.404 . S
C3341 H3353 0.930 . S
C3342 C3338 1.524 . S
C3342 H3354 0.956 . S
C3342 H3355 0.961 . S
C3342 H3356 0.961 . S
C3343 C3340 1.539 . S
C3343 H3357 0.958 . S
C3343 H3358 0.961 . S
C3343 H3359 0.960 . S
H3344 C3328 0.931 . S
H3345 C3333 0.929 . S
H3346 C3334 0.960 . S
H3347 C3334 0.962 . S
H3348 C3334 0.960 . S
H3349 C3335 0.961 . S
H3350 C3335 0.961 . S
H3351 C3335 0.961 . S
H3352 C3336 0.931 . S
H3353 C3341 0.930 . S
H3354 C3342 0.956 . S
H3355 C3342 0.961 . S
H3356 C3342 0.961 . S
H3357 C3343 0.958 . S
H3358 C3343 0.961 . S
H3359 C3343 0.960 . S
C3360 C3361 1.391 . S
C3360 C3362 1.394 . S
C3360 H3376 0.931 . S
C3361 C3360 1.391 . S
C3361 C3365 1.376 . S
C3362 C3360 1.394 . S
C3362 C3363 1.369 . S
C3362 C3366 1.531 . S
C3363 C3362 1.369 . S
C3363 C3364 1.410 . S
C3363 C3371 1.503 . S
C3364 C3363 1.410 . S
C3364 C3365 1.392 . S
C3364 C3367 1.511 . S
C3365 C3361 1.376 . S
C3365 C3364 1.392 . S
C3365 H3377 0.929 . S
C3366 C3362 1.531 . S
C3366 H3378 0.960 . S
C3366 H3379 0.962 . S
C3366 H3380 0.960 . S
C3367 C3364 1.511 . S
C3367 H3381 0.961 . S
C3367 H3382 0.961 . S
C3367 H3383 0.961 . S
C3368 C3369 1.370 . S
C3368 C3370 1.363 . S
C3368 H3384 0.931 . S
C3369 C3368 1.370 . S
C3369 C3373 1.408 . S
C3370 C3368 1.363 . S
C3370 C3371 1.370 . S
C3370 C3374 1.524 . S
C3371 C3363 1.503 . S
C3371 C3370 1.370 . S
C3371 C3372 1.403 . S
C3372 C3371 1.403 . S
C3372 C3373 1.404 . S
C3372 C3375 1.539 . S
C3373 C3369 1.408 . S
C3373 C3372 1.404 . S
C3373 H3385 0.930 . S
C3374 C3370 1.524 . S
C3374 H3386 0.956 . S
C3374 H3387 0.961 . S
C3374 H3388 0.961 . S
C3375 C3372 1.539 . S
C3375 H3389 0.958 . S
C3375 H3390 0.961 . S
C3375 H3391 0.960 . S
H3376 C3360 0.931 . S
H3377 C3365 0.929 . S
H3378 C3366 0.960 . S
H3379 C3366 0.962 . S
H3380 C3366 0.960 . S
H3381 C3367 0.961 . S
H3382 C3367 0.961 . S
H3383 C3367 0.961 . S
H3384 C3368 0.931 . S
H3385 C3373 0.930 . S
H3386 C3374 0.956 . S
H3387 C3374 0.961 . S
H3388 C3374 0.961 . S
H3389 C3375 0.958 . S
H3390 C3375 0.961 . S
H3391 C3375 0.960 . S
C3392 C3393 1.391 . S
C3392 C3394 1.394 . S
C3392 H3408 0.931 . S
C3393 C3392 1.391 . S
C3393 C3397 1.376 . S
C3394 C3392 1.394 . S
C3394 C3395 1.369 . S
C3394 C3398 1.531 . S
C3395 C3394 1.369 . S
C3395 C3396 1.410 . S
C3395 C3403 1.503 . S
C3396 C3395 1.410 . S
C3396 C3397 1.392 . S
C3396 C3399 1.511 . S
C3397 C3393 1.376 . S
C3397 C3396 1.392 . S
C3397 H3409 0.929 . S
C3398 C3394 1.531 . S
C3398 H3410 0.960 . S
C3398 H3411 0.962 . S
C3398 H3412 0.960 . S
C3399 C3396 1.511 . S
C3399 H3413 0.961 . S
C3399 H3414 0.961 . S
C3399 H3415 0.961 . S
C3400 C3401 1.370 . S
C3400 C3402 1.363 . S
C3400 H3416 0.931 . S
C3401 C3400 1.370 . S
C3401 C3405 1.408 . S
C3402 C3400 1.363 . S
C3402 C3403 1.370 . S
C3402 C3406 1.524 . S
C3403 C3395 1.503 . S
C3403 C3402 1.370 . S
C3403 C3404 1.403 . S
C3404 C3403 1.403 . S
C3404 C3405 1.404 . S
C3404 C3407 1.539 . S
C3405 C3401 1.408 . S
C3405 C3404 1.404 . S
C3405 H3417 0.930 . S
C3406 C3402 1.524 . S
C3406 H3418 0.956 . S
C3406 H3419 0.961 . S
C3406 H3420 0.961 . S
C3407 C3404 1.539 . S
C3407 H3421 0.958 . S
C3407 H3422 0.961 . S
C3407 H3423 0.960 . S
H3408 C3392 0.931 . S
H3409 C3397 0.929 . S
H3410 C3398 0.960 . S
H3411 C3398 0.962 . S
H3412 C3398 0.960 . S
H3413 C3399 0.961 . S
H3414 C3399 0.961 . S
H3415 C3399 0.961 . S
H3416 C3400 0.931 . S
H3417 C3405 0.930 . S
H3418 C3406 0.956 . S
H3419 C3406 0.961 . S
H3420 C3406 0.961 . S
H3421 C3407 0.958 . S
H3422 C3407 0.961 . S
H3423 C3407 0.960 . S
C3424 C3425 1.391 . S
C3424 C3426 1.394 . S
C3424 H3440 0.931 . S
C3425 C3424 1.391 . S
C3425 C3429 1.376 . S
C3426 C3424 1.394 . S
C3426 C3427 1.369 . S
C3426 C3430 1.531 . S
C3427 C3426 1.369 . S
C3427 C3428 1.410 . S
C3427 C3435 1.503 . S
C3428 C3427 1.410 . S
C3428 C3429 1.392 . S
C3428 C3431 1.511 . S
C3429 C3425 1.376 . S
C3429 C3428 1.392 . S
C3429 H3441 0.929 . S
C3430 C3426 1.531 . S
C3430 H3442 0.960 . S
C3430 H3443 0.962 . S
C3430 H3444 0.960 . S
C3431 C3428 1.511 . S
C3431 H3445 0.961 . S
C3431 H3446 0.961 . S
C3431 H3447 0.961 . S
C3432 C3433 1.370 . S
C3432 C3434 1.363 . S
C3432 H3448 0.931 . S
C3433 C3432 1.370 . S
C3433 C3437 1.408 . S
C3434 C3432 1.363 . S
C3434 C3435 1.370 . S
C3434 C3438 1.524 . S
C3435 C3427 1.503 . S
C3435 C3434 1.370 . S
C3435 C3436 1.403 . S
C3436 C3435 1.403 . S
C3436 C3437 1.404 . S
C3436 C3439 1.539 . S
C3437 C3433 1.408 . S
C3437 C3436 1.404 . S
C3437 H3449 0.930 . S
C3438 C3434 1.524 . S
C3438 H3450 0.956 . S
C3438 H3451 0.961 . S
C3438 H3452 0.961 . S
C3439 C3436 1.539 . S
C3439 H3453 0.958 . S
C3439 H3454 0.961 . S
C3439 H3455 0.960 . S
H3440 C3424 0.931 . S
H3441 C3429 0.929 . S
H3442 C3430 0.960 . S
H3443 C3430 0.962 . S
H3444 C3430 0.960 . S
H3445 C3431 0.961 . S
H3446 C3431 0.961 . S
H3447 C3431 0.961 . S
H3448 C3432 0.931 . S
H3449 C3437 0.930 . S
H3450 C3438 0.956 . S
H3451 C3438 0.961 . S
H3452 C3438 0.961 . S
H3453 C3439 0.958 . S
H3454 C3439 0.961 . S
H3455 C3439 0.960 . S
C3456 C3457 1.391 . S
C3456 C3458 1.394 . S
C3456 H3472 0.931 . S
C3457 C3456 1.391 . S
C3457 C3461 1.376 . S
C3458 C3456 1.394 . S
C3458 C3459 1.369 . S
C3458 C3462 1.531 . S
C3459 C3458 1.369 . S
C3459 C3460 1.410 . S
C3459 C3467 1.503 . S
C3460 C3459 1.410 . S
C3460 C3461 1.392 . S
C3460 C3463 1.511 . S
C3461 C3457 1.376 . S
C3461 C3460 1.392 . S
C3461 H3473 0.929 . S
C3462 C3458 1.531 . S
C3462 H3474 0.960 . S
C3462 H3475 0.962 . S
C3462 H3476 0.960 . S
C3463 C3460 1.511 . S
C3463 H3477 0.961 . S
C3463 H3478 0.961 . S
C3463 H3479 0.961 . S
C3464 C3465 1.370 . S
C3464 C3466 1.363 . S
C3464 H3480 0.931 . S
C3465 C3464 1.370 . S
C3465 C3469 1.408 . S
C3466 C3464 1.363 . S
C3466 C3467 1.370 . S
C3466 C3470 1.524 . S
C3467 C3459 1.503 . S
C3467 C3466 1.370 . S
C3467 C3468 1.403 . S
C3468 C3467 1.403 . S
C3468 C3469 1.404 . S
C3468 C3471 1.539 . S
C3469 C3465 1.408 . S
C3469 C3468 1.404 . S
C3469 H3481 0.930 . S
C3470 C3466 1.524 . S
C3470 H3482 0.956 . S
C3470 H3483 0.961 . S
C3470 H3484 0.961 . S
C3471 C3468 1.539 . S
C3471 H3485 0.958 . S
C3471 H3486 0.961 . S
C3471 H3487 0.960 . S
H3472 C3456 0.931 . S
H3473 C3461 0.929 . S
H3474 C3462 0.960 . S
H3475 C3462 0.962 . S
H3476 C3462 0.960 . S
H3477 C3463 0.961 . S
H3478 C3463 0.961 . S
H3479 C3463 0.961 . S
H3480 C3464 0.931 . S
H3481 C3469 0.930 . S
H3482 C3470 0.956 . S
H3483 C3470 0.961 . S
H3484 C3470 0.961 . S
H3485 C3471 0.958 . S
H3486 C3471 0.961 . S
H3487 C3471 0.960 . S
C3488 C3489 1.391 . S
C3488 C3490 1.394 . S
C3488 H3504 0.931 . S
C3489 C3488 1.391 . S
C3489 C3493 1.376 . S
C3490 C3488 1.394 . S
C3490 C3491 1.369 . S
C3490 C3494 1.531 . S
C3491 C3490 1.369 . S
C3491 C3492 1.410 . S
C3491 C3499 1.503 . S
C3492 C3491 1.410 . S
C3492 C3493 1.392 . S
C3492 C3495 1.511 . S
C3493 C3489 1.376 . S
C3493 C3492 1.392 . S
C3493 H3505 0.929 . S
C3494 C3490 1.531 . S
C3494 H3506 0.960 . S
C3494 H3507 0.962 . S
C3494 H3508 0.960 . S
C3495 C3492 1.511 . S
C3495 H3509 0.961 . S
C3495 H3510 0.961 . S
C3495 H3511 0.961 . S
C3496 C3497 1.370 . S
C3496 C3498 1.363 . S
C3496 H3512 0.931 . S
C3497 C3496 1.370 . S
C3497 C3501 1.408 . S
C3498 C3496 1.363 . S
C3498 C3499 1.370 . S
C3498 C3502 1.524 . S
C3499 C3491 1.503 . S
C3499 C3498 1.370 . S
C3499 C3500 1.403 . S
C3500 C3499 1.403 . S
C3500 C3501 1.404 . S
C3500 C3503 1.539 . S
C3501 C3497 1.408 . S
C3501 C3500 1.404 . S
C3501 H3513 0.930 . S
C3502 C3498 1.524 . S
C3502 H3514 0.956 . S
C3502 H3515 0.961 . S
C3502 H3516 0.961 . S
C3503 C3500 1.539 . S
C3503 H3517 0.958 . S
C3503 H3518 0.961 . S
C3503 H3519 0.960 . S
H3504 C3488 0.931 . S
H3505 C3493 0.929 . S
H3506 C3494 0.960 . S
H3507 C3494 0.962 . S
H3508 C3494 0.960 . S
H3509 C3495 0.961 . S
H3510 C3495 0.961 . S
H3511 C3495 0.961 . S
H3512 C3496 0.931 . S
H3513 C3501 0.930 . S
H3514 C3502 0.956 . S
H3515 C3502 0.961 . S
H3516 C3502 0.961 . S
H3517 C3503 0.958 . S
H3518 C3503 0.961 . S
H3519 C3503 0.960 . S
C3520 C3521 1.391 . S
C3520 C3522 1.394 . S
C3520 H3536 0.931 . S
C3521 C3520 1.391 . S
C3521 C3525 1.376 . S
C3522 C3520 1.394 . S
C3522 C3523 1.369 . S
C3522 C3526 1.531 . S
C3523 C3522 1.369 . S
C3523 C3524 1.410 . S
C3523 C3531 1.503 . S
C3524 C3523 1.410 . S
C3524 C3525 1.392 . S
C3524 C3527 1.511 . S
C3525 C3521 1.376 . S
C3525 C3524 1.392 . S
C3525 H3537 0.929 . S
C3526 C3522 1.531 . S
C3526 H3538 0.960 . S
C3526 H3539 0.962 . S
C3526 H3540 0.960 . S
C3527 C3524 1.511 . S
C3527 H3541 0.961 . S
C3527 H3542 0.961 . S
C3527 H3543 0.961 . S
C3528 C3529 1.370 . S
C3528 C3530 1.363 . S
C3528 H3544 0.931 . S
C3529 C3528 1.370 . S
C3529 C3533 1.408 . S
C3530 C3528 1.363 . S
C3530 C3531 1.370 . S
C3530 C3534 1.524 . S
C3531 C3523 1.503 . S
C3531 C3530 1.370 . S
C3531 C3532 1.403 . S
C3532 C3531 1.403 . S
C3532 C3533 1.404 . S
C3532 C3535 1.539 . S
C3533 C3529 1.408 . S
C3533 C3532 1.404 . S
C3533 H3545 0.930 . S
C3534 C3530 1.524 . S
C3534 H3546 0.956 . S
C3534 H3547 0.961 . S
C3534 H3548 0.961 . S
C3535 C3532 1.539 . S
C3535 H3549 0.958 . S
C3535 H3550 0.961 . S
C3535 H3551 0.960 . S
H3536 C3520 0.931 . S
H3537 C3525 0.929 . S
H3538 C3526 0.960 . S
H3539 C3526 0.962 . S
H3540 C3526 0.960 . S
H3541 C3527 0.961 . S
H3542 C3527 0.961 . S
H3543 C3527 0.961 . S
H3544 C3528 0.931 . S
H3545 C3533 0.930 . S
H3546 C3534 0.956 . S
H3547 C3534 0.961 . S
H3548 C3534 0.961 . S
H3549 C3535 0.958 . S
H3550 C3535 0.961 . S
H3551 C3535 0.960 . S
C3552 C3553 1.391 . S
C3552 C3554 1.394 . S
C3552 H3568 0.931 . S
C3553 C3552 1.391 . S
C3553 C3557 1.376 . S
C3554 C3552 1.394 . S
C3554 C3555 1.369 . S
C3554 C3558 1.531 . S
C3555 C3554 1.369 . S
C3555 C3556 1.410 . S
C3555 C3563 1.503 . S
C3556 C3555 1.410 . S
C3556 C3557 1.392 . S
C3556 C3559 1.511 . S
C3557 C3553 1.376 . S
C3557 C3556 1.392 . S
C3557 H3569 0.929 . S
C3558 C3554 1.531 . S
C3558 H3570 0.960 . S
C3558 H3571 0.962 . S
C3558 H3572 0.960 . S
C3559 C3556 1.511 . S
C3559 H3573 0.961 . S
C3559 H3574 0.961 . S
C3559 H3575 0.961 . S
C3560 C3561 1.370 . S
C3560 C3562 1.363 . S
C3560 H3576 0.931 . S
C3561 C3560 1.370 . S
C3561 C3565 1.408 . S
C3562 C3560 1.363 . S
C3562 C3563 1.370 . S
C3562 C3566 1.524 . S
C3563 C3555 1.503 . S
C3563 C3562 1.370 . S
C3563 C3564 1.403 . S
C3564 C3563 1.403 . S
C3564 C3565 1.404 . S
C3564 C3567 1.539 . S
C3565 C3561 1.408 . S
C3565 C3564 1.404 . S
C3565 H3577 0.930 . S
C3566 C3562 1.524 . S
C3566 H3578 0.956 . S
C3566 H3579 0.961 . S
C3566 H3580 0.961 . S
C3567 C3564 1.539 . S
C3567 H3581 0.958 . S
C3567 H3582 0.961 . S
C3567 H3583 0.960 . S
H3568 C3552 0.931 . S
H3569 C3557 0.929 . S
H3570 C3558 0.960 . S
H3571 C3558 0.962 . S
H3572 C3558 0.960 . S
H3573 C3559 0.961 . S
H3574 C3559 0.961 . S
H3575 C3559 0.961 . S
H3576 C3560 0.931 . S
H3577 C3565 0.930 . S
H3578 C3566 0.956 . S
H3579 C3566 0.961 . S
H3580 C3566 0.961 . S
H3581 C3567 0.958 . S
H3582 C3567 0.961 . S
H3583 C3567 0.960 . S
C3584 C3585 1.391 . S
C3584 C3586 1.394 . S
C3584 H3600 0.931 . S
C3585 C3584 1.391 . S
C3585 C3589 1.376 . S
C3586 C3584 1.394 . S
C3586 C3587 1.369 . S
C3586 C3590 1.531 . S
C3587 C3586 1.369 . S
C3587 C3588 1.410 . S
C3587 C3595 1.503 . S
C3588 C3587 1.410 . S
C3588 C3589 1.392 . S
C3588 C3591 1.511 . S
C3589 C3585 1.376 . S
C3589 C3588 1.392 . S
C3589 H3601 0.929 . S
C3590 C3586 1.531 . S
C3590 H3602 0.960 . S
C3590 H3603 0.962 . S
C3590 H3604 0.960 . S
C3591 C3588 1.511 . S
C3591 H3605 0.961 . S
C3591 H3606 0.961 . S
C3591 H3607 0.961 . S
C3592 C3593 1.370 . S
C3592 C3594 1.363 . S
C3592 H3608 0.931 . S
C3593 C3592 1.370 . S
C3593 C3597 1.408 . S
C3594 C3592 1.363 . S
C3594 C3595 1.370 . S
C3594 C3598 1.524 . S
C3595 C3587 1.503 . S
C3595 C3594 1.370 . S
C3595 C3596 1.403 . S
C3596 C3595 1.403 . S
C3596 C3597 1.404 . S
C3596 C3599 1.539 . S
C3597 C3593 1.408 . S
C3597 C3596 1.404 . S
C3597 H3609 0.930 . S
C3598 C3594 1.524 . S
C3598 H3610 0.956 . S
C3598 H3611 0.961 . S
C3598 H3612 0.961 . S
C3599 C3596 1.539 . S
C3599 H3613 0.958 . S
C3599 H3614 0.961 . S
C3599 H3615 0.960 . S
H3600 C3584 0.931 . S
H3601 C3589 0.929 . S
H3602 C3590 0.960 . S
H3603 C3590 0.962 . S
H3604 C3590 0.960 . S
H3605 C3591 0.961 . S
H3606 C3591 0.961 . S
H3607 C3591 0.961 . S
H3608 C3592 0.931 . S
H3609 C3597 0.930 . S
H3610 C3598 0.956 . S
H3611 C3598 0.961 . S
H3612 C3598 0.961 . S
H3613 C3599 0.958 . S
H3614 C3599 0.961 . S
H3615 C3599 0.960 . S
C3616 C3617 1.391 . S
C3616 C3618 1.394 . S
C3616 H3632 0.931 . S
C3617 C3616 1.391 . S
C3617 C3621 1.376 . S
C3618 C3616 1.394 . S
C3618 C3619 1.369 . S
C3618 C3622 1.531 . S
C3619 C3618 1.369 . S
C3619 C3620 1.410 . S
C3619 C3627 1.503 . S
C3620 C3619 1.410 . S
C3620 C3621 1.392 . S
C3620 C3623 1.511 . S
C3621 C3617 1.376 . S
C3621 C3620 1.392 . S
C3621 H3633 0.929 . S
C3622 C3618 1.531 . S
C3622 H3634 0.960 . S
C3622 H3635 0.962 . S
C3622 H3636 0.960 . S
C3623 C3620 1.511 . S
C3623 H3637 0.961 . S
C3623 H3638 0.961 . S
C3623 H3639 0.961 . S
C3624 C3625 1.370 . S
C3624 C3626 1.363 . S
C3624 H3640 0.931 . S
C3625 C3624 1.370 . S
C3625 C3629 1.408 . S
C3626 C3624 1.363 . S
C3626 C3627 1.370 . S
C3626 C3630 1.524 . S
C3627 C3619 1.503 . S
C3627 C3626 1.370 . S
C3627 C3628 1.403 . S
C3628 C3627 1.403 . S
C3628 C3629 1.404 . S
C3628 C3631 1.539 . S
C3629 C3625 1.408 . S
C3629 C3628 1.404 . S
C3629 H3641 0.930 . S
C3630 C3626 1.524 . S
C3630 H3642 0.956 . S
C3630 H3643 0.961 . S
C3630 H3644 0.961 . S
C3631 C3628 1.539 . S
C3631 H3645 0.958 . S
C3631 H3646 0.961 . S
C3631 H3647 0.960 . S
H3632 C3616 0.931 . S
H3633 C3621 0.929 . S
H3634 C3622 0.960 . S
H3635 C3622 0.962 . S
H3636 C3622 0.960 . S
H3637 C3623 0.961 . S
H3638 C3623 0.961 . S
H3639 C3623 0.961 . S
H3640 C3624 0.931 . S
H3641 C3629 0.930 . S
H3642 C3630 0.956 . S
H3643 C3630 0.961 . S
H3644 C3630 0.961 . S
H3645 C3631 0.958 . S
H3646 C3631 0.961 . S
H3647 C3631 0.960 . S
C3648 C3649 1.391 . S
C3648 C3650 1.394 . S
C3648 H3664 0.931 . S
C3649 C3648 1.391 . S
C3649 C3653 1.376 . S
C3650 C3648 1.394 . S
C3650 C3651 1.369 . S
C3650 C3654 1.531 . S
C3651 C3650 1.369 . S
C3651 C3652 1.410 . S
C3651 C3659 1.503 . S
C3652 C3651 1.410 . S
C3652 C3653 1.392 . S
C3652 C3655 1.511 . S
C3653 C3649 1.376 . S
C3653 C3652 1.392 . S
C3653 H3665 0.929 . S
C3654 C3650 1.531 . S
C3654 H3666 0.960 . S
C3654 H3667 0.962 . S
C3654 H3668 0.960 . S
C3655 C3652 1.511 . S
C3655 H3669 0.961 . S
C3655 H3670 0.961 . S
C3655 H3671 0.961 . S
C3656 C3657 1.370 . S
C3656 C3658 1.363 . S
C3656 H3672 0.931 . S
C3657 C3656 1.370 . S
C3657 C3661 1.408 . S
C3658 C3656 1.363 . S
C3658 C3659 1.370 . S
C3658 C3662 1.524 . S
C3659 C3651 1.503 . S
C3659 C3658 1.370 . S
C3659 C3660 1.403 . S
C3660 C3659 1.403 . S
C3660 C3661 1.404 . S
C3660 C3663 1.539 . S
C3661 C3657 1.408 . S
C3661 C3660 1.404 . S
C3661 H3673 0.930 . S
C3662 C3658 1.524 . S
C3662 H3674 0.956 . S
C3662 H3675 0.961 . S
C3662 H3676 0.961 . S
C3663 C3660 1.539 . S
C3663 H3677 0.958 . S
C3663 H3678 0.961 . S
C3663 H3679 0.960 . S
H3664 C3648 0.931 . S
H3665 C3653 0.929 . S
H3666 C3654 0.960 . S
H3667 C3654 0.962 . S
H3668 C3654 0.960 . S
H3669 C3655 0.961 . S
H3670 C3655 0.961 . S
H3671 C3655 0.961 . S
H3672 C3656 0.931 . S
H3673 C3661 0.930 . S
H3674 C3662 0.956 . S
H3675 C3662 0.961 . S
H3676 C3662 0.961 . S
H3677 C3663 0.958 . S
H3678 C3663 0.961 . S
H3679 C3663 0.960 . S
C3680 C3681 1.391 . S
C3680 C3682 1.394 . S
C3680 H3696 0.931 . S
C3681 C3680 1.391 . S
C3681 C3685 1.376 . S
C3682 C3680 1.394 . S
C3682 C3683 1.369 . S
C3682 C3686 1.531 . S
C3683 C3682 1.369 . S
C3683 C3684 1.410 . S
C3683 C3691 1.503 . S
C3684 C3683 1.410 . S
C3684 C3685 1.392 . S
C3684 C3687 1.511 . S
C3685 C3681 1.376 . S
C3685 C3684 1.392 . S
C3685 H3697 0.929 . S
C3686 C3682 1.531 . S
C3686 H3698 0.960 . S
C3686 H3699 0.962 . S
C3686 H3700 0.960 . S
C3687 C3684 1.511 . S
C3687 H3701 0.961 . S
C3687 H3702 0.961 . S
C3687 H3703 0.961 . S
C3688 C3689 1.370 . S
C3688 C3690 1.363 . S
C3688 H3704 0.931 . S
C3689 C3688 1.370 . S
C3689 C3693 1.408 . S
C3690 C3688 1.363 . S
C3690 C3691 1.370 . S
C3690 C3694 1.524 . S
C3691 C3683 1.503 . S
C3691 C3690 1.370 . S
C3691 C3692 1.403 . S
C3692 C3691 1.403 . S
C3692 C3693 1.404 . S
C3692 C3695 1.539 . S
C3693 C3689 1.408 . S
C3693 C3692 1.404 . S
C3693 H3705 0.930 . S
C3694 C3690 1.524 . S
C3694 H3706 0.956 . S
C3694 H3707 0.961 . S
C3694 H3708 0.961 . S
C3695 C3692 1.539 . S
C3695 H3709 0.958 . S
C3695 H3710 0.961 . S
C3695 H3711 0.960 . S
H3696 C3680 0.931 . S
H3697 C3685 0.929 . S
H3698 C3686 0.960 . S
H3699 C3686 0.962 . S
H3700 C3686 0.960 . S
H3701 C3687 0.961 . S
H3702 C3687 0.961 . S
H3703 C3687 0.961 . S
H3704 C3688 0.931 . S
H3705 C3693 0.930 . S
H3706 C3694 0.956 . S
H3707 C3694 0.961 . S
H3708 C3694 0.961 . S
H3709 C3695 0.958 . S
H3710 C3695 0.961 . S
H3711 C3695 0.960 . S
C3712 C3713 1.391 . S
C3712 C3714 1.394 . S
C3712 H3728 0.931 . S
C3713 C3712 1.391 . S
C3713 C3717 1.376 . S
C3714 C3712 1.394 . S
C3714 C3715 1.369 . S
C3714 C3718 1.531 . S
C3715 C3714 1.369 . S
C3715 C3716 1.410 . S
C3715 C3723 1.503 . S
C3716 C3715 1.410 . S
C3716 C3717 1.392 . S
C3716 C3719 1.511 . S
C3717 C3713 1.376 . S
C3717 C3716 1.392 . S
C3717 H3729 0.929 . S
C3718 C3714 1.531 . S
C3718 H3730 0.960 . S
C3718 H3731 0.962 . S
C3718 H3732 0.960 . S
C3719 C3716 1.511 . S
C3719 H3733 0.961 . S
C3719 H3734 0.961 . S
C3719 H3735 0.961 . S
C3720 C3721 1.370 . S
C3720 C3722 1.363 . S
C3720 H3736 0.931 . S
C3721 C3720 1.370 . S
C3721 C3725 1.408 . S
C3722 C3720 1.363 . S
C3722 C3723 1.370 . S
C3722 C3726 1.524 . S
C3723 C3715 1.503 . S
C3723 C3722 1.370 . S
C3723 C3724 1.403 . S
C3724 C3723 1.403 . S
C3724 C3725 1.404 . S
C3724 C3727 1.539 . S
C3725 C3721 1.408 . S
C3725 C3724 1.404 . S
C3725 H3737 0.930 . S
C3726 C3722 1.524 . S
C3726 H3738 0.956 . S
C3726 H3739 0.961 . S
C3726 H3740 0.961 . S
C3727 C3724 1.539 . S
C3727 H3741 0.958 . S
C3727 H3742 0.961 . S
C3727 H3743 0.960 . S
H3728 C3712 0.931 . S
H3729 C3717 0.929 . S
H3730 C3718 0.960 . S
H3731 C3718 0.962 . S
H3732 C3718 0.960 . S
H3733 C3719 0.961 . S
H3734 C3719 0.961 . S
H3735 C3719 0.961 . S
H3736 C3720 0.931 . S
H3737 C3725 0.930 . S
H3738 C3726 0.956 . S
H3739 C3726 0.961 . S
H3740 C3726 0.961 . S
H3741 C3727 0.958 . S
H3742 C3727 0.961 . S
H3743 C3727 0.960 . S
C3744 C3745 1.391 . S
C3744 C3746 1.394 . S
C3744 H3760 0.931 . S
C3745 C3744 1.391 . S
C3745 C3749 1.376 . S
C3746 C3744 1.394 . S
C3746 C3747 1.369 . S
C3746 C3750 1.531 . S
C3747 C3746 1.369 . S
C3747 C3748 1.410 . S
C3747 C3755 1.503 . S
C3748 C3747 1.410 . S
C3748 C3749 1.392 . S
C3748 C3751 1.511 . S
C3749 C3745 1.376 . S
C3749 C3748 1.392 . S
C3749 H3761 0.929 . S
C3750 C3746 1.531 . S
C3750 H3762 0.960 . S
C3750 H3763 0.962 . S
C3750 H3764 0.960 . S
C3751 C3748 1.511 . S
C3751 H3765 0.961 . S
C3751 H3766 0.961 . S
C3751 H3767 0.961 . S
C3752 C3753 1.370 . S
C3752 C3754 1.363 . S
C3752 H3768 0.931 . S
C3753 C3752 1.370 . S
C3753 C3757 1.408 . S
C3754 C3752 1.363 . S
C3754 C3755 1.370 . S
C3754 C3758 1.524 . S
C3755 C3747 1.503 . S
C3755 C3754 1.370 . S
C3755 C3756 1.403 . S
C3756 C3755 1.403 . S
C3756 C3757 1.404 . S
C3756 C3759 1.539 . S
C3757 C3753 1.408 . S
C3757 C3756 1.404 . S
C3757 H3769 0.930 . S
C3758 C3754 1.524 . S
C3758 H3770 0.956 . S
C3758 H3771 0.961 . S
C3758 H3772 0.961 . S
C3759 C3756 1.539 . S
C3759 H3773 0.958 . S
C3759 H3774 0.961 . S
C3759 H3775 0.960 . S
H3760 C3744 0.931 . S
H3761 C3749 0.929 . S
H3762 C3750 0.960 . S
H3763 C3750 0.962 . S
H3764 C3750 0.960 . S
H3765 C3751 0.961 . S
H3766 C3751 0.961 . S
H3767 C3751 0.961 . S
H3768 C3752 0.931 . S
H3769 C3757 0.930 . S
H3770 C3758 0.956 . S
H3771 C3758 0.961 . S
H3772 C3758 0.961 . S
H3773 C3759 0.958 . S
H3774 C3759 0.961 . S
H3775 C3759 0.960 . S
C3776 C3777 1.391 . S
C3776 C3778 1.394 . S
C3776 H3792 0.931 . S
C3777 C3776 1.391 . S
C3777 C3781 1.376 . S
C3778 C3776 1.394 . S
C3778 C3779 1.369 . S
C3778 C3782 1.531 . S
C3779 C3778 1.369 . S
C3779 C3780 1.410 . S
C3779 C3787 1.503 . S
C3780 C3779 1.410 . S
C3780 C3781 1.392 . S
C3780 C3783 1.511 . S
C3781 C3777 1.376 . S
C3781 C3780 1.392 . S
C3781 H3793 0.929 . S
C3782 C3778 1.531 . S
C3782 H3794 0.960 . S
C3782 H3795 0.962 . S
C3782 H3796 0.960 . S
C3783 C3780 1.511 . S
C3783 H3797 0.961 . S
C3783 H3798 0.961 . S
C3783 H3799 0.961 . S
C3784 C3785 1.370 . S
C3784 C3786 1.363 . S
C3784 H3800 0.931 . S
C3785 C3784 1.370 . S
C3785 C3789 1.408 . S
C3786 C3784 1.363 . S
C3786 C3787 1.370 . S
C3786 C3790 1.524 . S
C3787 C3779 1.503 . S
C3787 C3786 1.370 . S
C3787 C3788 1.403 . S
C3788 C3787 1.403 . S
C3788 C3789 1.404 . S
C3788 C3791 1.539 . S
C3789 C3785 1.408 . S
C3789 C3788 1.404 . S
C3789 H3801 0.930 . S
C3790 C3786 1.524 . S
C3790 H3802 0.956 . S
C3790 H3803 0.961 . S
C3790 H3804 0.961 . S
C3791 C3788 1.539 . S
C3791 H3805 0.958 . S
C3791 H3806 0.961 . S
C3791 H3807 0.960 . S
H3792 C3776 0.931 . S
H3793 C3781 0.929 . S
H3794 C3782 0.960 . S
H3795 C3782 0.962 . S
H3796 C3782 0.960 . S
H3797 C3783 0.961 . S
H3798 C3783 0.961 . S
H3799 C3783 0.961 . S
H3800 C3784 0.931 . S
H3801 C3789 0.930 . S
H3802 C3790 0.956 . S
H3803 C3790 0.961 . S
H3804 C3790 0.961 . S
H3805 C3791 0.958 . S
H3806 C3791 0.961 . S
H3807 C3791 0.960 . S
C3808 C3809 1.391 . S
C3808 C3810 1.394 . S
C3808 H3824 0.931 . S
C3809 C3808 1.391 . S
C3809 C3813 1.376 . S
C3810 C3808 1.394 . S
C3810 C3811 1.369 . S
C3810 C3814 1.531 . S
C3811 C3810 1.369 . S
C3811 C3812 1.410 . S
C3811 C3819 1.503 . S
C3812 C3811 1.410 . S
C3812 C3813 1.392 . S
C3812 C3815 1.511 . S
C3813 C3809 1.376 . S
C3813 C3812 1.392 . S
C3813 H3825 0.929 . S
C3814 C3810 1.531 . S
C3814 H3826 0.960 . S
C3814 H3827 0.962 . S
C3814 H3828 0.960 . S
C3815 C3812 1.511 . S
C3815 H3829 0.961 . S
C3815 H3830 0.961 . S
C3815 H3831 0.961 . S
C3816 C3817 1.370 . S
C3816 C3818 1.363 . S
C3816 H3832 0.931 . S
C3817 C3816 1.370 . S
C3817 C3821 1.408 . S
C3818 C3816 1.363 . S
C3818 C3819 1.370 . S
C3818 C3822 1.524 . S
C3819 C3811 1.503 . S
C3819 C3818 1.370 . S
C3819 C3820 1.403 . S
C3820 C3819 1.403 . S
C3820 C3821 1.404 . S
C3820 C3823 1.539 . S
C3821 C3817 1.408 . S
C3821 C3820 1.404 . S
C3821 H3833 0.930 . S
C3822 C3818 1.524 . S
C3822 H3834 0.956 . S
C3822 H3835 0.961 . S
C3822 H3836 0.961 . S
C3823 C3820 1.539 . S
C3823 H3837 0.958 . S
C3823 H3838 0.961 . S
C3823 H3839 0.960 . S
H3824 C3808 0.931 . S
H3825 C3813 0.929 . S
H3826 C3814 0.960 . S
H3827 C3814 0.962 . S
H3828 C3814 0.960 . S
H3829 C3815 0.961 . S
H3830 C3815 0.961 . S
H3831 C3815 0.961 . S
H3832 C3816 0.931 . S
H3833 C3821 0.930 . S
H3834 C3822 0.956 . S
H3835 C3822 0.961 . S
H3836 C3822 0.961 . S
H3837 C3823 0.958 . S
H3838 C3823 0.961 . S
H3839 C3823 0.960 . S
C3840 C3841 1.391 . S
C3840 C3842 1.394 . S
C3840 H3856 0.931 . S
C3841 C3840 1.391 . S
C3841 C3845 1.376 . S
C3842 C3840 1.394 . S
C3842 C3843 1.369 . S
C3842 C3846 1.531 . S
C3843 C3842 1.369 . S
C3843 C3844 1.410 . S
C3843 C3851 1.503 . S
C3844 C3843 1.410 . S
C3844 C3845 1.392 . S
C3844 C3847 1.511 . S
C3845 C3841 1.376 . S
C3845 C3844 1.392 . S
C3845 H3857 0.929 . S
C3846 C3842 1.531 . S
C3846 H3858 0.960 . S
C3846 H3859 0.962 . S
C3846 H3860 0.960 . S
C3847 C3844 1.511 . S
C3847 H3861 0.961 . S
C3847 H3862 0.961 . S
C3847 H3863 0.961 . S
C3848 C3849 1.370 . S
C3848 C3850 1.363 . S
C3848 H3864 0.931 . S
C3849 C3848 1.370 . S
C3849 C3853 1.408 . S
C3850 C3848 1.363 . S
C3850 C3851 1.370 . S
C3850 C3854 1.524 . S
C3851 C3843 1.503 . S
C3851 C3850 1.370 . S
C3851 C3852 1.403 . S
C3852 C3851 1.403 . S
C3852 C3853 1.404 . S
C3852 C3855 1.539 . S
C3853 C3849 1.408 . S
C3853 C3852 1.404 . S
C3853 H3865 0.930 . S
C3854 C3850 1.524 . S
C3854 H3866 0.956 . S
C3854 H3867 0.961 . S
C3854 H3868 0.961 . S
C3855 C3852 1.539 . S
C3855 H3869 0.958 . S
C3855 H3870 0.961 . S
C3855 H3871 0.960 . S
H3856 C3840 0.931 . S
H3857 C3845 0.929 . S
H3858 C3846 0.960 . S
H3859 C3846 0.962 . S
H3860 C3846 0.960 . S
H3861 C3847 0.961 . S
H3862 C3847 0.961 . S
H3863 C3847 0.961 . S
H3864 C3848 0.931 . S
H3865 C3853 0.930 . S
H3866 C3854 0.956 . S
H3867 C3854 0.961 . S
H3868 C3854 0.961 . S
H3869 C3855 0.958 . S
H3870 C3855 0.961 . S
H3871 C3855 0.960 . S
C3872 C3873 1.391 . S
C3872 C3874 1.394 . S
C3872 H3888 0.931 . S
C3873 C3872 1.391 . S
C3873 C3877 1.376 . S
C3874 C3872 1.394 . S
C3874 C3875 1.369 . S
C3874 C3878 1.531 . S
C3875 C3874 1.369 . S
C3875 C3876 1.410 . S
C3875 C3883 1.503 . S
C3876 C3875 1.410 . S
C3876 C3877 1.392 . S
C3876 C3879 1.511 . S
C3877 C3873 1.376 . S
C3877 C3876 1.392 . S
C3877 H3889 0.929 . S
C3878 C3874 1.531 . S
C3878 H3890 0.960 . S
C3878 H3891 0.962 . S
C3878 H3892 0.960 . S
C3879 C3876 1.511 . S
C3879 H3893 0.961 . S
C3879 H3894 0.961 . S
C3879 H3895 0.961 . S
C3880 C3881 1.370 . S
C3880 C3882 1.363 . S
C3880 H3896 0.931 . S
C3881 C3880 1.370 . S
C3881 C3885 1.408 . S
C3882 C3880 1.363 . S
C3882 C3883 1.370 . S
C3882 C3886 1.524 . S
C3883 C3875 1.503 . S
C3883 C3882 1.370 . S
C3883 C3884 1.403 . S
C3884 C3883 1.403 . S
C3884 C3885 1.404 . S
C3884 C3887 1.539 . S
C3885 C3881 1.408 . S
C3885 C3884 1.404 . S
C3885 H3897 0.930 . S
C3886 C3882 1.524 . S
C3886 H3898 0.956 . S
C3886 H3899 0.961 . S
C3886 H3900 0.961 . S
C3887 C3884 1.539 . S
C3887 H3901 0.958 . S
C3887 H3902 0.961 . S
C3887 H3903 0.960 . S
H3888 C3872 0.931 . S
H3889 C3877 0.929 . S
H3890 C3878 0.960 . S
H3891 C3878 0.962 . S
H3892 C3878 0.960 . S
H3893 C3879 0.961 . S
H3894 C3879 0.961 . S
H3895 C3879 0.961 . S
H3896 C3880 0.931 . S
H3897 C3885 0.930 . S
H3898 C3886 0.956 . S
H3899 C3886 0.961 . S
H3900 C3886 0.961 . S
H3901 C3887 0.958 . S
H3902 C3887 0.961 . S
H3903 C3887 0.960 . S
C3904 C3905 1.391 . S
C3904 C3906 1.394 . S
C3904 H3920 0.931 . S
C3905 C3904 1.391 . S
C3905 C3909 1.376 . S
C3906 C3904 1.394 . S
C3906 C3907 1.369 . S
C3906 C3910 1.531 . S
C3907 C3906 1.369 . S
C3907 C3908 1.410 . S
C3907 C3915 1.503 . S
C3908 C3907 1.410 . S
C3908 C3909 1.392 . S
C3908 C3911 1.511 . S
C3909 C3905 1.376 . S
C3909 C3908 1.392 . S
C3909 H3921 0.929 . S
C3910 C3906 1.531 . S
C3910 H3922 0.960 . S
C3910 H3923 0.962 . S
C3910 H3924 0.960 . S
C3911 C3908 1.511 . S
C3911 H3925 0.961 . S
C3911 H3926 0.961 . S
C3911 H3927 0.961 . S
C3912 C3913 1.370 . S
C3912 C3914 1.363 . S
C3912 H3928 0.931 . S
C3913 C3912 1.370 . S
C3913 C3917 1.408 . S
C3914 C3912 1.363 . S
C3914 C3915 1.370 . S
C3914 C3918 1.524 . S
C3915 C3907 1.503 . S
C3915 C3914 1.370 . S
C3915 C3916 1.403 . S
C3916 C3915 1.403 . S
C3916 C3917 1.404 . S
C3916 C3919 1.539 . S
C3917 C3913 1.408 . S
C3917 C3916 1.404 . S
C3917 H3929 0.930 . S
C3918 C3914 1.524 . S
C3918 H3930 0.956 . S
C3918 H3931 0.961 . S
C3918 H3932 0.961 . S
C3919 C3916 1.539 . S
C3919 H3933 0.958 . S
C3919 H3934 0.961 . S
C3919 H3935 0.960 . S
H3920 C3904 0.931 . S
H3921 C3909 0.929 . S
H3922 C3910 0.960 . S
H3923 C3910 0.962 . S
H3924 C3910 0.960 . S
H3925 C3911 0.961 . S
H3926 C3911 0.961 . S
H3927 C3911 0.961 . S
H3928 C3912 0.931 . S
H3929 C3917 0.930 . S
H3930 C3918 0.956 . S
H3931 C3918 0.961 . S
H3932 C3918 0.961 . S
H3933 C3919 0.958 . S
H3934 C3919 0.961 . S
H3935 C3919 0.960 . S
C3936 C3937 1.391 . S
C3936 C3938 1.394 . S
C3936 H3952 0.931 . S
C3937 C3936 1.391 . S
C3937 C3941 1.376 . S
C3938 C3936 1.394 . S
C3938 C3939 1.369 . S
C3938 C3942 1.531 . S
C3939 C3938 1.369 . S
C3939 C3940 1.410 . S
C3939 C3947 1.503 . S
C3940 C3939 1.410 . S
C3940 C3941 1.392 . S
C3940 C3943 1.511 . S
C3941 C3937 1.376 . S
C3941 C3940 1.392 . S
C3941 H3953 0.929 . S
C3942 C3938 1.531 . S
C3942 H3954 0.960 . S
C3942 H3955 0.962 . S
C3942 H3956 0.960 . S
C3943 C3940 1.511 . S
C3943 H3957 0.961 . S
C3943 H3958 0.961 . S
C3943 H3959 0.961 . S
C3944 C3945 1.370 . S
C3944 C3946 1.363 . S
C3944 H3960 0.931 . S
C3945 C3944 1.370 . S
C3945 C3949 1.408 . S
C3946 C3944 1.363 . S
C3946 C3947 1.370 . S
C3946 C3950 1.524 . S
C3947 C3939 1.503 . S
C3947 C3946 1.370 . S
C3947 C3948 1.403 . S
C3948 C3947 1.403 . S
C3948 C3949 1.404 . S
C3948 C3951 1.539 . S
C3949 C3945 1.408 . S
C3949 C3948 1.404 . S
C3949 H3961 0.930 . S
C3950 C3946 1.524 . S
C3950 H3962 0.956 . S
C3950 H3963 0.961 . S
C3950 H3964 0.961 . S
C3951 C3948 1.539 . S
C3951 H3965 0.958 . S
C3951 H3966 0.961 . S
C3951 H3967 0.960 . S
H3952 C3936 0.931 . S
H3953 C3941 0.929 . S
H3954 C3942 0.960 . S
H3955 C3942 0.962 . S
H3956 C3942 0.960 . S
H3957 C3943 0.961 . S
H3958 C3943 0.961 . S
H3959 C3943 0.961 . S
H3960 C3944 0.931 . S
H3961 C3949 0.930 . S
H3962 C3950 0.956 . S
H3963 C3950 0.961 . S
H3964 C3950 0.961 . S
H3965 C3951 0.958 . S
H3966 C3951 0.961 . S
H3967 C3951 0.960 . S
C3968 C3969 1.391 . S
C3968 C3970 1.394 . S
C3968 H3984 0.931 . S
C3969 C3968 1.391 . S
C3969 C3973 1.376 . S
C3970 C3968 1.394 . S
C3970 C3971 1.369 . S
C3970 C3974 1.531 . S
C3971 C3970 1.369 . S
C3971 C3972 1.410 . S
C3971 C3979 1.503 . S
C3972 C3971 1.410 . S
C3972 C3973 1.392 . S
C3972 C3975 1.511 . S
C3973 C3969 1.376 . S
C3973 C3972 1.392 . S
C3973 H3985 0.929 . S
C3974 C3970 1.531 . S
C3974 H3986 0.960 . S
C3974 H3987 0.962 . S
C3974 H3988 0.960 . S
C3975 C3972 1.511 . S
C3975 H3989 0.961 . S
C3975 H3990 0.961 . S
C3975 H3991 0.961 . S
C3976 C3977 1.370 . S
C3976 C3978 1.363 . S
C3976 H3992 0.931 . S
C3977 C3976 1.370 . S
C3977 C3981 1.408 . S
C3978 C3976 1.363 . S
C3978 C3979 1.370 . S
C3978 C3982 1.524 . S
C3979 C3971 1.503 . S
C3979 C3978 1.370 . S
C3979 C3980 1.403 . S
C3980 C3979 1.403 . S
C3980 C3981 1.404 . S
C3980 C3983 1.539 . S
C3981 C3977 1.408 . S
C3981 C3980 1.404 . S
C3981 H3993 0.930 . S
C3982 C3978 1.524 . S
C3982 H3994 0.956 . S
C3982 H3995 0.961 . S
C3982 H3996 0.961 . S
C3983 C3980 1.539 . S
C3983 H3997 0.958 . S
C3983 H3998 0.961 . S
C3983 H3999 0.960 . S
H3984 C3968 0.931 . S
H3985 C3973 0.929 . S
H3986 C3974 0.960 . S
H3987 C3974 0.962 . S
H3988 C3974 0.960 . S
H3989 C3975 0.961 . S
H3990 C3975 0.961 . S
H3991 C3975 0.961 . S
H3992 C3976 0.931 . S
H3993 C3981 0.930 . S
H3994 C3982 0.956 . S
H3995 C3982 0.961 . S
H3996 C3982 0.961 . S
H3997 C3983 0.958 . S
H3998 C3983 0.961 . S
H3999 C3983 0.960 . S
C4000 C4001 1.391 . S
C4000 C4002 1.394 . S
C4000 H4016 0.931 . S
C4001 C4000 1.391 . S
C4001 C4005 1.376 . S
C4002 C4000 1.394 . S
C4002 C4003 1.369 . S
C4002 C4006 1.531 . S
C4003 C4002 1.369 . S
C4003 C4004 1.410 . S
C4003 C4011 1.503 . S
C4004 C4003 1.410 . S
C4004 C4005 1.392 . S
C4004 C4007 1.511 . S
C4005 C4001 1.376 . S
C4005 C4004 1.392 . S
C4005 H4017 0.929 . S
C4006 C4002 1.531 . S
C4006 H4018 0.960 . S
C4006 H4019 0.962 . S
C4006 H4020 0.960 . S
C4007 C4004 1.511 . S
C4007 H4021 0.961 . S
C4007 H4022 0.961 . S
C4007 H4023 0.961 . S
C4008 C4009 1.370 . S
C4008 C4010 1.363 . S
C4008 H4024 0.931 . S
C4009 C4008 1.370 . S
C4009 C4013 1.408 . S
C4010 C4008 1.363 . S
C4010 C4011 1.370 . S
C4010 C4014 1.524 . S
C4011 C4003 1.503 . S
C4011 C4010 1.370 . S
C4011 C4012 1.403 . S
C4012 C4011 1.403 . S
C4012 C4013 1.404 . S
C4012 C4015 1.539 . S
C4013 C4009 1.408 . S
C4013 C4012 1.404 . S
C4013 H4025 0.930 . S
C4014 C4010 1.524 . S
C4014 H4026 0.956 . S
C4014 H4027 0.961 . S
C4014 H4028 0.961 . S
C4015 C4012 1.539 . S
C4015 H4029 0.958 . S
C4015 H4030 0.961 . S
C4015 H4031 0.960 . S
H4016 C4000 0.931 . S
H4017 C4005 0.929 . S
H4018 C4006 0.960 . S
H4019 C4006 0.962 . S
H4020 C4006 0.960 . S
H4021 C4007 0.961 . S
H4022 C4007 0.961 . S
H4023 C4007 0.961 . S
H4024 C4008 0.931 . S
H4025 C4013 0.930 . S
H4026 C4014 0.956 . S
H4027 C4014 0.961 . S
H4028 C4014 0.961 . S
H4029 C4015 0.958 . S
H4030 C4015 0.961 . S
H4031 C4015 0.960 . S
C4032 C4033 1.391 . S
C4032 C4034 1.394 . S
C4032 H4048 0.931 . S
C4033 C4032 1.391 . S
C4033 C4037 1.376 . S
C4034 C4032 1.394 . S
C4034 C4035 1.369 . S
C4034 C4038 1.531 . S
C4035 C4034 1.369 . S
C4035 C4036 1.410 . S
C4035 C4043 1.503 . S
C4036 C4035 1.410 . S
C4036 C4037 1.392 . S
C4036 C4039 1.511 . S
C4037 C4033 1.376 . S
C4037 C4036 1.392 . S
C4037 H4049 0.929 . S
C4038 C4034 1.531 . S
C4038 H4050 0.960 . S
C4038 H4051 0.962 . S
C4038 H4052 0.960 . S
C4039 C4036 1.511 . S
C4039 H4053 0.961 . S
C4039 H4054 0.961 . S
C4039 H4055 0.961 . S
C4040 C4041 1.370 . S
C4040 C4042 1.363 . S
C4040 H4056 0.931 . S
C4041 C4040 1.370 . S
C4041 C4045 1.408 . S
C4042 C4040 1.363 . S
C4042 C4043 1.370 . S
C4042 C4046 1.524 . S
C4043 C4035 1.503 . S
C4043 C4042 1.370 . S
C4043 C4044 1.403 . S
C4044 C4043 1.403 . S
C4044 C4045 1.404 . S
C4044 C4047 1.539 . S
C4045 C4041 1.408 . S
C4045 C4044 1.404 . S
C4045 H4057 0.930 . S
C4046 C4042 1.524 . S
C4046 H4058 0.956 . S
C4046 H4059 0.961 . S
C4046 H4060 0.961 . S
C4047 C4044 1.539 . S
C4047 H4061 0.958 . S
C4047 H4062 0.961 . S
C4047 H4063 0.960 . S
H4048 C4032 0.931 . S
H4049 C4037 0.929 . S
H4050 C4038 0.960 . S
H4051 C4038 0.962 . S
H4052 C4038 0.960 . S
H4053 C4039 0.961 . S
H4054 C4039 0.961 . S
H4055 C4039 0.961 . S
H4056 C4040 0.931 . S
H4057 C4045 0.930 . S
H4058 C4046 0.956 . S
H4059 C4046 0.961 . S
H4060 C4046 0.961 . S
H4061 C4047 0.958 . S
H4062 C4047 0.961 . S
H4063 C4047 0.960 . S
C4064 C4065 1.391 . S
C4064 C4066 1.394 . S
C4064 H4080 0.931 . S
C4065 C4064 1.391 . S
C4065 C4069 1.376 . S
C4066 C4064 1.394 . S
C4066 C4067 1.369 . S
C4066 C4070 1.531 . S
C4067 C4066 1.369 . S
C4067 C4068 1.410 . S
C4067 C4075 1.503 . S
C4068 C4067 1.410 . S
C4068 C4069 1.392 . S
C4068 C4071 1.511 . S
C4069 C4065 1.376 . S
C4069 C4068 1.392 . S
C4069 H4081 0.929 . S
C4070 C4066 1.531 . S
C4070 H4082 0.960 . S
C4070 H4083 0.962 . S
C4070 H4084 0.960 . S
C4071 C4068 1.511 . S
C4071 H4085 0.961 . S
C4071 H4086 0.961 . S
C4071 H4087 0.961 . S
C4072 C4073 1.370 . S
C4072 C4074 1.363 . S
C4072 H4088 0.931 . S
C4073 C4072 1.370 . S
C4073 C4077 1.408 . S
C4074 C4072 1.363 . S
C4074 C4075 1.370 . S
C4074 C4078 1.524 . S
C4075 C4067 1.503 . S
C4075 C4074 1.370 . S
C4075 C4076 1.403 . S
C4076 C4075 1.403 . S
C4076 C4077 1.404 . S
C4076 C4079 1.539 . S
C4077 C4073 1.408 . S
C4077 C4076 1.404 . S
C4077 H4089 0.930 . S
C4078 C4074 1.524 . S
C4078 H4090 0.956 . S
C4078 H4091 0.961 . S
C4078 H4092 0.961 . S
C4079 C4076 1.539 . S
C4079 H4093 0.958 . S
C4079 H4094 0.961 . S
C4079 H4095 0.960 . S
H4080 C4064 0.931 . S
H4081 C4069 0.929 . S
H4082 C4070 0.960 . S
H4083 C4070 0.962 . S
H4084 C4070 0.960 . S
H4085 C4071 0.961 . S
H4086 C4071 0.961 . S
H4087 C4071 0.961 . S
H4088 C4072 0.931 . S
H4089 C4077 0.930 . S
H4090 C4078 0.956 . S
H4091 C4078 0.961 . S
H4092 C4078 0.961 . S
H4093 C4079 0.958 . S
H4094 C4079 0.961 . S
H4095 C4079 0.960 . S
C4096 C4097 1.391 . S
C4096 C4098 1.394 . S
C4096 H4112 0.931 . S
C4097 C4096 1.391 . S
C4097 C4101 1.376 . S
C4098 C4096 1.394 . S
C4098 C4099 1.369 . S
C4098 C4102 1.531 . S
C4099 C4098 1.369 . S
C4099 C4100 1.410 . S
C4099 C4107 1.503 . S
C4100 C4099 1.410 . S
C4100 C4101 1.392 . S
C4100 C4103 1.511 . S
C4101 C4097 1.376 . S
C4101 C4100 1.392 . S
C4101 H4113 0.929 . S
C4102 C4098 1.531 . S
C4102 H4114 0.960 . S
C4102 H4115 0.962 . S
C4102 H4116 0.960 . S
C4103 C4100 1.511 . S
C4103 H4117 0.961 . S
C4103 H4118 0.961 . S
C4103 H4119 0.961 . S
C4104 C4105 1.370 . S
C4104 C4106 1.363 . S
C4104 H4120 0.931 . S
C4105 C4104 1.370 . S
C4105 C4109 1.408 . S
C4106 C4104 1.363 . S
C4106 C4107 1.370 . S
C4106 C4110 1.524 . S
C4107 C4099 1.503 . S
C4107 C4106 1.370 . S
C4107 C4108 1.403 . S
C4108 C4107 1.403 . S
C4108 C4109 1.404 . S
C4108 C4111 1.539 . S
C4109 C4105 1.408 . S
C4109 C4108 1.404 . S
C4109 H4121 0.930 . S
C4110 C4106 1.524 . S
C4110 H4122 0.956 . S
C4110 H4123 0.961 . S
C4110 H4124 0.961 . S
C4111 C4108 1.539 . S
C4111 H4125 0.958 . S
C4111 H4126 0.961 . S
C4111 H4127 0.960 . S
H4112 C4096 0.931 . S
H4113 C4101 0.929 . S
H4114 C4102 0.960 . S
H4115 C4102 0.962 . S
H4116 C4102 0.960 . S
H4117 C4103 0.961 . S
H4118 C4103 0.961 . S
H4119 C4103 0.961 . S
H4120 C4104 0.931 . S
H4121 C4109 0.930 . S
H4122 C4110 0.956 . S
H4123 C4110 0.961 . S
H4124 C4110 0.961 . S
H4125 C4111 0.958 . S
H4126 C4111 0.961 . S
H4127 C4111 0.960 . S
C4128 C4129 1.391 . S
C4128 C4130 1.394 . S
C4128 H4144 0.931 . S
C4129 C4128 1.391 . S
C4129 C4133 1.376 . S
C4130 C4128 1.394 . S
C4130 C4131 1.369 . S
C4130 C4134 1.531 . S
C4131 C4130 1.369 . S
C4131 C4132 1.410 . S
C4131 C4139 1.503 . S
C4132 C4131 1.410 . S
C4132 C4133 1.392 . S
C4132 C4135 1.511 . S
C4133 C4129 1.376 . S
C4133 C4132 1.392 . S
C4133 H4145 0.929 . S
C4134 C4130 1.531 . S
C4134 H4146 0.960 . S
C4134 H4147 0.962 . S
C4134 H4148 0.960 . S
C4135 C4132 1.511 . S
C4135 H4149 0.961 . S
C4135 H4150 0.961 . S
C4135 H4151 0.961 . S
C4136 C4137 1.370 . S
C4136 C4138 1.363 . S
C4136 H4152 0.931 . S
C4137 C4136 1.370 . S
C4137 C4141 1.408 . S
C4138 C4136 1.363 . S
C4138 C4139 1.370 . S
C4138 C4142 1.524 . S
C4139 C4131 1.503 . S
C4139 C4138 1.370 . S
C4139 C4140 1.403 . S
C4140 C4139 1.403 . S
C4140 C4141 1.404 . S
C4140 C4143 1.539 . S
C4141 C4137 1.408 . S
C4141 C4140 1.404 . S
C4141 H4153 0.930 . S
C4142 C4138 1.524 . S
C4142 H4154 0.956 . S
C4142 H4155 0.961 . S
C4142 H4156 0.961 . S
C4143 C4140 1.539 . S
C4143 H4157 0.958 . S
C4143 H4158 0.961 . S
C4143 H4159 0.960 . S
H4144 C4128 0.931 . S
H4145 C4133 0.929 . S
H4146 C4134 0.960 . S
H4147 C4134 0.962 . S
H4148 C4134 0.960 . S
H4149 C4135 0.961 . S
H4150 C4135 0.961 . S
H4151 C4135 0.961 . S
H4152 C4136 0.931 . S
H4153 C4141 0.930 . S
H4154 C4142 0.956 . S
H4155 C4142 0.961 . S
H4156 C4142 0.961 . S
H4157 C4143 0.958 . S
H4158 C4143 0.961 . S
H4159 C4143 0.960 . S
C4160 C4161 1.391 . S
C4160 C4162 1.394 . S
C4160 H4176 0.931 . S
C4161 C4160 1.391 . S
C4161 C4165 1.376 . S
C4162 C4160 1.394 . S
C4162 C4163 1.369 . S
C4162 C4166 1.531 . S
C4163 C4162 1.369 . S
C4163 C4164 1.410 . S
C4163 C4171 1.503 . S
C4164 C4163 1.410 . S
C4164 C4165 1.392 . S
C4164 C4167 1.511 . S
C4165 C4161 1.376 . S
C4165 C4164 1.392 . S
C4165 H4177 0.929 . S
C4166 C4162 1.531 . S
C4166 H4178 0.960 . S
C4166 H4179 0.962 . S
C4166 H4180 0.960 . S
C4167 C4164 1.511 . S
C4167 H4181 0.961 . S
C4167 H4182 0.961 . S
C4167 H4183 0.961 . S
C4168 C4169 1.370 . S
C4168 C4170 1.363 . S
C4168 H4184 0.931 . S
C4169 C4168 1.370 . S
C4169 C4173 1.408 . S
C4170 C4168 1.363 . S
C4170 C4171 1.370 . S
C4170 C4174 1.524 . S
C4171 C4163 1.503 . S
C4171 C4170 1.370 . S
C4171 C4172 1.403 . S
C4172 C4171 1.403 . S
C4172 C4173 1.404 . S
C4172 C4175 1.539 . S
C4173 C4169 1.408 . S
C4173 C4172 1.404 . S
C4173 H4185 0.930 . S
C4174 C4170 1.524 . S
C4174 H4186 0.956 . S
C4174 H4187 0.961 . S
C4174 H4188 0.961 . S
C4175 C4172 1.539 . S
C4175 H4189 0.958 . S
C4175 H4190 0.961 . S
C4175 H4191 0.960 . S
H4176 C4160 0.931 . S
H4177 C4165 0.929 . S
H4178 C4166 0.960 . S
H4179 C4166 0.962 . S
H4180 C4166 0.960 . S
H4181 C4167 0.961 . S
H4182 C4167 0.961 . S
H4183 C4167 0.961 . S
H4184 C4168 0.931 . S
H4185 C4173 0.930 . S
H4186 C4174 0.956 . S
H4187 C4174 0.961 . S
H4188 C4174 0.961 . S
H4189 C4175 0.958 . S
H4190 C4175 0.961 . S
H4191 C4175 0.960 . S
C4192 C4193 1.391 . S
C4192 C4194 1.394 . S
C4192 H4208 0.931 . S
C4193 C4192 1.391 . S
C4193 C4197 1.376 . S
C4194 C4192 1.394 . S
C4194 C4195 1.369 . S
C4194 C4198 1.531 . S
C4195 C4194 1.369 . S
C4195 C4196 1.410 . S
C4195 C4203 1.503 . S
C4196 C4195 1.410 . S
C4196 C4197 1.392 . S
C4196 C4199 1.511 . S
C4197 C4193 1.376 . S
C4197 C4196 1.392 . S
C4197 H4209 0.929 . S
C4198 C4194 1.531 . S
C4198 H4210 0.960 . S
C4198 H4211 0.962 . S
C4198 H4212 0.960 . S
C4199 C4196 1.511 . S
C4199 H4213 0.961 . S
C4199 H4214 0.961 . S
C4199 H4215 0.961 . S
C4200 C4201 1.370 . S
C4200 C4202 1.363 . S
C4200 H4216 0.931 . S
C4201 C4200 1.370 . S
C4201 C4205 1.408 . S
C4202 C4200 1.363 . S
C4202 C4203 1.370 . S
C4202 C4206 1.524 . S
C4203 C4195 1.503 . S
C4203 C4202 1.370 . S
C4203 C4204 1.403 . S
C4204 C4203 1.403 . S
C4204 C4205 1.404 . S
C4204 C4207 1.539 . S
C4205 C4201 1.408 . S
C4205 C4204 1.404 . S
C4205 H4217 0.930 . S
C4206 C4202 1.524 . S
C4206 H4218 0.956 . S
C4206 H4219 0.961 . S
C4206 H4220 0.961 . S
C4207 C4204 1.539 . S
C4207 H4221 0.958 . S
C4207 H4222 0.961 . S
C4207 H4223 0.960 . S
H4208 C4192 0.931 . S
H4209 C4197 0.929 . S
H4210 C4198 0.960 . S
H4211 C4198 0.962 . S
H4212 C4198 0.960 . S
H4213 C4199 0.961 . S
H4214 C4199 0.961 . S
H4215 C4199 0.961 . S
H4216 C4200 0.931 . S
H4217 C4205 0.930 . S
H4218 C4206 0.956 . S
H4219 C4206 0.961 . S
H4220 C4206 0.961 . S
H4221 C4207 0.958 . S
H4222 C4207 0.961 . S
H4223 C4207 0.960 . S
C4224 C4225 1.391 . S
C4224 C4226 1.394 . S
C4224 H4240 0.931 . S
C4225 C4224 1.391 . S
C4225 C4229 1.376 . S
C4226 C4224 1.394 . S
C4226 C4227 1.369 . S
C4226 C4230 1.531 . S
C4227 C4226 1.369 . S
C4227 C4228 1.410 . S
C4227 C4235 1.503 . S
C4228 C4227 1.410 . S
C4228 C4229 1.392 . S
C4228 C4231 1.511 . S
C4229 C4225 1.376 . S
C4229 C4228 1.392 . S
C4229 H4241 0.929 . S
C4230 C4226 1.531 . S
C4230 H4242 0.960 . S
C4230 H4243 0.962 . S
C4230 H4244 0.960 . S
C4231 C4228 1.511 . S
C4231 H4245 0.961 . S
C4231 H4246 0.961 . S
C4231 H4247 0.961 . S
C4232 C4233 1.370 . S
C4232 C4234 1.363 . S
C4232 H4248 0.931 . S
C4233 C4232 1.370 . S
C4233 C4237 1.408 . S
C4234 C4232 1.363 . S
C4234 C4235 1.370 . S
C4234 C4238 1.524 . S
C4235 C4227 1.503 . S
C4235 C4234 1.370 . S
C4235 C4236 1.403 . S
C4236 C4235 1.403 . S
C4236 C4237 1.404 . S
C4236 C4239 1.539 . S
C4237 C4233 1.408 . S
C4237 C4236 1.404 . S
C4237 H4249 0.930 . S
C4238 C4234 1.524 . S
C4238 H4250 0.956 . S
C4238 H4251 0.961 . S
C4238 H4252 0.961 . S
C4239 C4236 1.539 . S
C4239 H4253 0.958 . S
C4239 H4254 0.961 . S
C4239 H4255 0.960 . S
H4240 C4224 0.931 . S
H4241 C4229 0.929 . S
H4242 C4230 0.960 . S
H4243 C4230 0.962 . S
H4244 C4230 0.960 . S
H4245 C4231 0.961 . S
H4246 C4231 0.961 . S
H4247 C4231 0.961 . S
H4248 C4232 0.931 . S
H4249 C4237 0.930 . S
H4250 C4238 0.956 . S
H4251 C4238 0.961 . S
H4252 C4238 0.961 . S
H4253 C4239 0.958 . S
H4254 C4239 0.961 . S
H4255 C4239 0.960 . S
C4256 C4257 1.391 . S
C4256 C4258 1.394 . S
C4256 H4272 0.931 1_565 S
C4257 C4256 1.391 . S
C4257 C4261 1.376 . S
C4258 C4256 1.394 . S
C4258 C4259 1.369 . S
C4258 C4262 1.531 . S
C4259 C4258 1.369 . S
C4259 C4260 1.410 . S
C4259 C4267 1.503 . S
C4260 C4259 1.410 . S
C4260 C4261 1.392 . S
C4260 C4263 1.511 . S
C4261 C4257 1.376 . S
C4261 C4260 1.392 . S
C4261 H4273 0.929 . S
C4262 C4258 1.531 . S
C4262 H4274 0.960 . S
C4262 H4275 0.962 . S
C4262 H4276 0.962 1_565 S
C4263 C4260 1.511 . S
C4263 H4277 0.961 . S
C4263 H4278 0.961 . S
C4263 H4279 0.961 . S
C4264 C4265 1.370 . S
C4264 C4266 1.363 . S
C4264 H4280 0.931 . S
C4265 C4264 1.370 . S
C4265 C4269 1.408 . S
C4266 C4264 1.363 . S
C4266 C4267 1.370 . S
C4266 C4270 1.524 . S
C4267 C4259 1.503 . S
C4267 C4266 1.370 . S
C4267 C4268 1.403 . S
C4268 C4267 1.403 . S
C4268 C4269 1.404 . S
C4268 C4271 1.539 . S
C4269 C4265 1.408 . S
C4269 C4268 1.404 . S
C4269 H4281 0.930 . S
C4270 C4266 1.524 . S
C4270 H4282 0.956 . S
C4270 H4283 0.961 . S
C4270 H4284 0.961 . S
C4271 C4268 1.539 . S
C4271 H4285 0.958 . S
C4271 H4286 0.961 . S
C4271 H4287 0.960 . S
H4272 C4256 0.931 1_545 S
H4273 C4261 0.929 . S
H4274 C4262 0.960 . S
H4275 C4262 0.962 . S
H4276 C4262 0.962 1_545 S
H4277 C4263 0.961 . S
H4278 C4263 0.961 . S
H4279 C4263 0.961 . S
H4280 C4264 0.931 . S
H4281 C4269 0.930 . S
H4282 C4270 0.956 . S
H4283 C4270 0.961 . S
H4284 C4270 0.961 . S
H4285 C4271 0.958 . S
H4286 C4271 0.961 . S
H4287 C4271 0.960 . S
C4288 C4289 1.391 . S
C4288 C4290 1.394 . S
C4288 H4304 0.931 . S
C4289 C4288 1.391 . S
C4289 C4293 1.376 . S
C4290 C4288 1.394 . S
C4290 C4291 1.369 . S
C4290 C4294 1.531 . S
C4291 C4290 1.369 . S
C4291 C4292 1.410 . S
C4291 C4299 1.503 . S
C4292 C4291 1.410 . S
C4292 C4293 1.392 . S
C4292 C4295 1.511 . S
C4293 C4289 1.376 . S
C4293 C4292 1.392 . S
C4293 H4305 0.929 . S
C4294 C4290 1.531 . S
C4294 H4306 0.960 . S
C4294 H4307 0.962 . S
C4294 H4308 0.960 . S
C4295 C4292 1.511 . S
C4295 H4309 0.961 . S
C4295 H4310 0.961 . S
C4295 H4311 0.961 . S
C4296 C4297 1.370 . S
C4296 C4298 1.363 . S
C4296 H4312 0.931 . S
C4297 C4296 1.370 . S
C4297 C4301 1.408 . S
C4298 C4296 1.363 . S
C4298 C4299 1.370 . S
C4298 C4302 1.524 . S
C4299 C4291 1.503 . S
C4299 C4298 1.370 . S
C4299 C4300 1.403 . S
C4300 C4299 1.403 . S
C4300 C4301 1.404 . S
C4300 C4303 1.539 . S
C4301 C4297 1.408 . S
C4301 C4300 1.404 . S
C4301 H4313 0.930 . S
C4302 C4298 1.524 . S
C4302 H4314 0.956 . S
C4302 H4315 0.961 . S
C4302 H4316 0.961 . S
C4303 C4300 1.539 . S
C4303 H4317 0.958 . S
C4303 H4318 0.961 . S
C4303 H4319 0.960 . S
H4304 C4288 0.931 . S
H4305 C4293 0.929 . S
H4306 C4294 0.960 . S
H4307 C4294 0.962 . S
H4308 C4294 0.960 . S
H4309 C4295 0.961 . S
H4310 C4295 0.961 . S
H4311 C4295 0.961 . S
H4312 C4296 0.931 . S
H4313 C4301 0.930 . S
H4314 C4302 0.956 . S
H4315 C4302 0.961 . S
H4316 C4302 0.961 . S
H4317 C4303 0.958 . S
H4318 C4303 0.961 . S
H4319 C4303 0.960 . S
C4320 C4321 1.391 . S
C4320 C4322 1.394 . S
C4320 H4336 0.931 . S
C4321 C4320 1.391 . S
C4321 C4325 1.376 . S
C4322 C4320 1.394 . S
C4322 C4323 1.369 . S
C4322 C4326 1.531 . S
C4323 C4322 1.369 . S
C4323 C4324 1.410 . S
C4323 C4331 1.503 . S
C4324 C4323 1.410 . S
C4324 C4325 1.392 . S
C4324 C4327 1.511 . S
C4325 C4321 1.376 . S
C4325 C4324 1.392 . S
C4325 H4337 0.929 . S
C4326 C4322 1.531 . S
C4326 H4338 0.960 . S
C4326 H4339 0.962 . S
C4326 H4340 0.960 . S
C4327 C4324 1.511 . S
C4327 H4341 0.961 . S
C4327 H4342 0.961 . S
C4327 H4343 0.961 . S
C4328 C4329 1.370 . S
C4328 C4330 1.363 . S
C4328 H4344 0.931 . S
C4329 C4328 1.370 . S
C4329 C4333 1.408 . S
C4330 C4328 1.363 . S
C4330 C4331 1.370 . S
C4330 C4334 1.524 . S
C4331 C4323 1.503 . S
C4331 C4330 1.370 . S
C4331 C4332 1.403 . S
C4332 C4331 1.403 . S
C4332 C4333 1.404 . S
C4332 C4335 1.539 . S
C4333 C4329 1.408 . S
C4333 C4332 1.404 . S
C4333 H4345 0.930 . S
C4334 C4330 1.524 . S
C4334 H4346 0.956 . S
C4334 H4347 0.961 . S
C4334 H4348 0.961 . S
C4335 C4332 1.539 . S
C4335 H4349 0.958 . S
C4335 H4350 0.961 . S
C4335 H4351 0.960 . S
H4336 C4320 0.931 . S
H4337 C4325 0.929 . S
H4338 C4326 0.960 . S
H4339 C4326 0.962 . S
H4340 C4326 0.960 . S
H4341 C4327 0.961 . S
H4342 C4327 0.961 . S
H4343 C4327 0.961 . S
H4344 C4328 0.931 . S
H4345 C4333 0.930 . S
H4346 C4334 0.956 . S
H4347 C4334 0.961 . S
H4348 C4334 0.961 . S
H4349 C4335 0.958 . S
H4350 C4335 0.961 . S
H4351 C4335 0.960 . S
C4352 C4353 1.391 . S
C4352 C4354 1.394 . S
C4352 H4368 0.931 . S
C4353 C4352 1.391 . S
C4353 C4357 1.376 . S
C4354 C4352 1.394 . S
C4354 C4355 1.369 . S
C4354 C4358 1.531 . S
C4355 C4354 1.369 . S
C4355 C4356 1.410 . S
C4355 C4363 1.503 . S
C4356 C4355 1.410 . S
C4356 C4357 1.392 . S
C4356 C4359 1.511 . S
C4357 C4353 1.376 . S
C4357 C4356 1.392 . S
C4357 H4369 0.929 . S
C4358 C4354 1.531 . S
C4358 H4370 0.960 . S
C4358 H4371 0.962 . S
C4358 H4372 0.960 . S
C4359 C4356 1.511 . S
C4359 H4373 0.961 . S
C4359 H4374 0.961 . S
C4359 H4375 0.961 . S
C4360 C4361 1.370 . S
C4360 C4362 1.363 . S
C4360 H4376 0.931 . S
C4361 C4360 1.370 . S
C4361 C4365 1.408 . S
C4362 C4360 1.363 . S
C4362 C4363 1.370 . S
C4362 C4366 1.524 . S
C4363 C4355 1.503 . S
C4363 C4362 1.370 . S
C4363 C4364 1.403 . S
C4364 C4363 1.403 . S
C4364 C4365 1.404 . S
C4364 C4367 1.539 . S
C4365 C4361 1.408 . S
C4365 C4364 1.404 . S
C4365 H4377 0.930 . S
C4366 C4362 1.524 . S
C4366 H4378 0.956 . S
C4366 H4379 0.961 . S
C4366 H4380 0.961 . S
C4367 C4364 1.539 . S
C4367 H4381 0.958 . S
C4367 H4382 0.961 . S
C4367 H4383 0.960 . S
H4368 C4352 0.931 . S
H4369 C4357 0.929 . S
H4370 C4358 0.960 . S
H4371 C4358 0.962 . S
H4372 C4358 0.960 . S
H4373 C4359 0.961 . S
H4374 C4359 0.961 . S
H4375 C4359 0.961 . S
H4376 C4360 0.931 . S
H4377 C4365 0.930 . S
H4378 C4366 0.956 . S
H4379 C4366 0.961 . S
H4380 C4366 0.961 . S
H4381 C4367 0.958 . S
H4382 C4367 0.961 . S
H4383 C4367 0.960 . S
C4384 C4385 1.391 . S
C4384 C4386 1.394 . S
C4384 H4400 0.931 . S
C4385 C4384 1.391 . S
C4385 C4389 1.376 . S
C4386 C4384 1.394 . S
C4386 C4387 1.369 . S
C4386 C4390 1.531 . S
C4387 C4386 1.369 . S
C4387 C4388 1.410 . S
C4387 C4395 1.503 . S
C4388 C4387 1.410 . S
C4388 C4389 1.392 . S
C4388 C4391 1.511 . S
C4389 C4385 1.376 . S
C4389 C4388 1.392 . S
C4389 H4401 0.929 . S
C4390 C4386 1.531 . S
C4390 H4402 0.960 . S
C4390 H4403 0.962 . S
C4390 H4404 0.960 . S
C4391 C4388 1.511 . S
C4391 H4405 0.961 . S
C4391 H4406 0.961 . S
C4391 H4407 0.961 . S
C4392 C4393 1.370 . S
C4392 C4394 1.363 . S
C4392 H4408 0.931 . S
C4393 C4392 1.370 . S
C4393 C4397 1.408 . S
C4394 C4392 1.363 . S
C4394 C4395 1.370 . S
C4394 C4398 1.524 . S
C4395 C4387 1.503 . S
C4395 C4394 1.370 . S
C4395 C4396 1.403 . S
C4396 C4395 1.403 . S
C4396 C4397 1.404 . S
C4396 C4399 1.539 . S
C4397 C4393 1.408 . S
C4397 C4396 1.404 . S
C4397 H4409 0.930 . S
C4398 C4394 1.524 . S
C4398 H4410 0.956 . S
C4398 H4411 0.961 . S
C4398 H4412 0.961 . S
C4399 C4396 1.539 . S
C4399 H4413 0.958 . S
C4399 H4414 0.961 . S
C4399 H4415 0.960 . S
H4400 C4384 0.931 . S
H4401 C4389 0.929 . S
H4402 C4390 0.960 . S
H4403 C4390 0.962 . S
H4404 C4390 0.960 . S
H4405 C4391 0.961 . S
H4406 C4391 0.961 . S
H4407 C4391 0.961 . S
H4408 C4392 0.931 . S
H4409 C4397 0.930 . S
H4410 C4398 0.956 . S
H4411 C4398 0.961 . S
H4412 C4398 0.961 . S
H4413 C4399 0.958 . S
H4414 C4399 0.961 . S
H4415 C4399 0.960 . S
C4416 C4417 1.391 . S
C4416 C4418 1.394 . S
C4416 H4432 0.931 . S
C4417 C4416 1.391 . S
C4417 C4421 1.376 . S
C4418 C4416 1.394 . S
C4418 C4419 1.369 . S
C4418 C4422 1.531 . S
C4419 C4418 1.369 . S
C4419 C4420 1.410 . S
C4419 C4427 1.503 . S
C4420 C4419 1.410 . S
C4420 C4421 1.392 . S
C4420 C4423 1.511 . S
C4421 C4417 1.376 . S
C4421 C4420 1.392 . S
C4421 H4433 0.929 . S
C4422 C4418 1.531 . S
C4422 H4434 0.960 . S
C4422 H4435 0.962 . S
C4422 H4436 0.960 . S
C4423 C4420 1.511 . S
C4423 H4437 0.961 . S
C4423 H4438 0.961 . S
C4423 H4439 0.961 . S
C4424 C4425 1.370 . S
C4424 C4426 1.363 . S
C4424 H4440 0.931 . S
C4425 C4424 1.370 . S
C4425 C4429 1.408 . S
C4426 C4424 1.363 . S
C4426 C4427 1.370 . S
C4426 C4430 1.524 . S
C4427 C4419 1.503 . S
C4427 C4426 1.370 . S
C4427 C4428 1.403 . S
C4428 C4427 1.403 . S
C4428 C4429 1.404 . S
C4428 C4431 1.539 . S
C4429 C4425 1.408 . S
C4429 C4428 1.404 . S
C4429 H4441 0.930 . S
C4430 C4426 1.524 . S
C4430 H4442 0.956 . S
C4430 H4443 0.961 . S
C4430 H4444 0.961 . S
C4431 C4428 1.539 . S
C4431 H4445 0.958 . S
C4431 H4446 0.961 . S
C4431 H4447 0.960 . S
H4432 C4416 0.931 . S
H4433 C4421 0.929 . S
H4434 C4422 0.960 . S
H4435 C4422 0.962 . S
H4436 C4422 0.960 . S
H4437 C4423 0.961 . S
H4438 C4423 0.961 . S
H4439 C4423 0.961 . S
H4440 C4424 0.931 . S
H4441 C4429 0.930 . S
H4442 C4430 0.956 . S
H4443 C4430 0.961 . S
H4444 C4430 0.961 . S
H4445 C4431 0.958 . S
H4446 C4431 0.961 . S
H4447 C4431 0.960 . S
C4448 C4449 1.391 . S
C4448 C4450 1.394 . S
C4448 H4464 0.931 . S
C4449 C4448 1.391 . S
C4449 C4453 1.376 . S
C4450 C4448 1.394 . S
C4450 C4451 1.369 . S
C4450 C4454 1.531 . S
C4451 C4450 1.369 . S
C4451 C4452 1.410 . S
C4451 C4459 1.503 . S
C4452 C4451 1.410 . S
C4452 C4453 1.392 . S
C4452 C4455 1.511 . S
C4453 C4449 1.376 . S
C4453 C4452 1.392 . S
C4453 H4465 0.929 . S
C4454 C4450 1.531 . S
C4454 H4466 0.960 . S
C4454 H4467 0.962 . S
C4454 H4468 0.960 . S
C4455 C4452 1.511 . S
C4455 H4469 0.961 . S
C4455 H4470 0.961 . S
C4455 H4471 0.961 . S
C4456 C4457 1.370 . S
C4456 C4458 1.363 . S
C4456 H4472 0.931 . S
C4457 C4456 1.370 . S
C4457 C4461 1.408 . S
C4458 C4456 1.363 . S
C4458 C4459 1.370 . S
C4458 C4462 1.524 . S
C4459 C4451 1.503 . S
C4459 C4458 1.370 . S
C4459 C4460 1.403 . S
C4460 C4459 1.403 . S
C4460 C4461 1.404 . S
C4460 C4463 1.539 . S
C4461 C4457 1.408 . S
C4461 C4460 1.404 . S
C4461 H4473 0.930 . S
C4462 C4458 1.524 . S
C4462 H4474 0.956 . S
C4462 H4475 0.961 . S
C4462 H4476 0.961 . S
C4463 C4460 1.539 . S
C4463 H4477 0.958 . S
C4463 H4478 0.961 . S
C4463 H4479 0.960 . S
H4464 C4448 0.931 . S
H4465 C4453 0.929 . S
H4466 C4454 0.960 . S
H4467 C4454 0.962 . S
H4468 C4454 0.960 . S
H4469 C4455 0.961 . S
H4470 C4455 0.961 . S
H4471 C4455 0.961 . S
H4472 C4456 0.931 . S
H4473 C4461 0.930 . S
H4474 C4462 0.956 . S
H4475 C4462 0.961 . S
H4476 C4462 0.961 . S
H4477 C4463 0.958 . S
H4478 C4463 0.961 . S
H4479 C4463 0.960 . S
C4480 C4481 1.391 . S
C4480 C4482 1.394 . S
C4480 H4496 0.931 . S
C4481 C4480 1.391 . S
C4481 C4485 1.376 . S
C4482 C4480 1.394 . S
C4482 C4483 1.369 . S
C4482 C4486 1.531 . S
C4483 C4482 1.369 . S
C4483 C4484 1.410 . S
C4483 C4491 1.503 . S
C4484 C4483 1.410 . S
C4484 C4485 1.392 . S
C4484 C4487 1.511 . S
C4485 C4481 1.376 . S
C4485 C4484 1.392 . S
C4485 H4497 0.929 . S
C4486 C4482 1.531 . S
C4486 H4498 0.960 . S
C4486 H4499 0.962 . S
C4486 H4500 0.960 . S
C4487 C4484 1.511 . S
C4487 H4501 0.961 . S
C4487 H4502 0.961 . S
C4487 H4503 0.961 . S
C4488 C4489 1.370 . S
C4488 C4490 1.363 . S
C4488 H4504 0.931 . S
C4489 C4488 1.370 . S
C4489 C4493 1.408 . S
C4490 C4488 1.363 . S
C4490 C4491 1.370 . S
C4490 C4494 1.524 . S
C4491 C4483 1.503 . S
C4491 C4490 1.370 . S
C4491 C4492 1.403 . S
C4492 C4491 1.403 . S
C4492 C4493 1.404 . S
C4492 C4495 1.539 . S
C4493 C4489 1.408 . S
C4493 C4492 1.404 . S
C4493 H4505 0.930 . S
C4494 C4490 1.524 . S
C4494 H4506 0.956 . S
C4494 H4507 0.961 . S
C4494 H4508 0.961 . S
C4495 C4492 1.539 . S
C4495 H4509 0.958 . S
C4495 H4510 0.961 . S
C4495 H4511 0.960 . S
H4496 C4480 0.931 . S
H4497 C4485 0.929 . S
H4498 C4486 0.960 . S
H4499 C4486 0.962 . S
H4500 C4486 0.960 . S
H4501 C4487 0.961 . S
H4502 C4487 0.961 . S
H4503 C4487 0.961 . S
H4504 C4488 0.931 . S
H4505 C4493 0.930 . S
H4506 C4494 0.956 . S
H4507 C4494 0.961 . S
H4508 C4494 0.961 . S
H4509 C4495 0.958 . S
H4510 C4495 0.961 . S
H4511 C4495 0.960 . S
C4512 C4513 1.391 . S
C4512 C4514 1.394 . S
C4512 H4528 0.931 . S
C4513 C4512 1.391 . S
C4513 C4517 1.376 . S
C4514 C4512 1.394 . S
C4514 C4515 1.369 . S
C4514 C4518 1.531 . S
C4515 C4514 1.369 . S
C4515 C4516 1.410 . S
C4515 C4523 1.503 . S
C4516 C4515 1.410 . S
C4516 C4517 1.392 . S
C4516 C4519 1.511 . S
C4517 C4513 1.376 . S
C4517 C4516 1.392 . S
C4517 H4529 0.929 . S
C4518 C4514 1.531 . S
C4518 H4530 0.960 . S
C4518 H4531 0.962 . S
C4518 H4532 0.960 . S
C4519 C4516 1.511 . S
C4519 H4533 0.961 . S
C4519 H4534 0.961 . S
C4519 H4535 0.961 . S
C4520 C4521 1.370 . S
C4520 C4522 1.363 . S
C4520 H4536 0.931 . S
C4521 C4520 1.370 . S
C4521 C4525 1.408 . S
C4522 C4520 1.363 . S
C4522 C4523 1.370 . S
C4522 C4526 1.524 . S
C4523 C4515 1.503 . S
C4523 C4522 1.370 . S
C4523 C4524 1.403 . S
C4524 C4523 1.403 . S
C4524 C4525 1.404 . S
C4524 C4527 1.539 . S
C4525 C4521 1.408 . S
C4525 C4524 1.404 . S
C4525 H4537 0.930 . S
C4526 C4522 1.524 . S
C4526 H4538 0.956 . S
C4526 H4539 0.961 . S
C4526 H4540 0.961 . S
C4527 C4524 1.539 . S
C4527 H4541 0.958 . S
C4527 H4542 0.961 . S
C4527 H4543 0.960 . S
H4528 C4512 0.931 . S
H4529 C4517 0.929 . S
H4530 C4518 0.960 . S
H4531 C4518 0.962 . S
H4532 C4518 0.960 . S
H4533 C4519 0.961 . S
H4534 C4519 0.961 . S
H4535 C4519 0.961 . S
H4536 C4520 0.931 . S
H4537 C4525 0.930 . S
H4538 C4526 0.956 . S
H4539 C4526 0.961 . S
H4540 C4526 0.961 . S
H4541 C4527 0.958 . S
H4542 C4527 0.961 . S
H4543 C4527 0.960 . S
C4544 C4545 1.391 . S
C4544 C4546 1.394 . S
C4544 H4560 0.931 . S
C4545 C4544 1.391 . S
C4545 C4549 1.376 . S
C4546 C4544 1.394 . S
C4546 C4547 1.369 . S
C4546 C4550 1.531 . S
C4547 C4546 1.369 . S
C4547 C4548 1.410 . S
C4547 C4555 1.503 . S
C4548 C4547 1.410 . S
C4548 C4549 1.392 . S
C4548 C4551 1.511 . S
C4549 C4545 1.376 . S
C4549 C4548 1.392 . S
C4549 H4561 0.929 . S
C4550 C4546 1.531 . S
C4550 H4562 0.960 . S
C4550 H4563 0.962 . S
C4550 H4564 0.960 . S
C4551 C4548 1.511 . S
C4551 H4565 0.961 . S
C4551 H4566 0.961 . S
C4551 H4567 0.961 . S
C4552 C4553 1.370 . S
C4552 C4554 1.363 . S
C4552 H4568 0.931 . S
C4553 C4552 1.370 . S
C4553 C4557 1.408 . S
C4554 C4552 1.363 . S
C4554 C4555 1.370 . S
C4554 C4558 1.524 . S
C4555 C4547 1.503 . S
C4555 C4554 1.370 . S
C4555 C4556 1.403 . S
C4556 C4555 1.403 . S
C4556 C4557 1.404 . S
C4556 C4559 1.539 . S
C4557 C4553 1.408 . S
C4557 C4556 1.404 . S
C4557 H4569 0.930 . S
C4558 C4554 1.524 . S
C4558 H4570 0.956 . S
C4558 H4571 0.961 . S
C4558 H4572 0.961 . S
C4559 C4556 1.539 . S
C4559 H4573 0.958 . S
C4559 H4574 0.961 . S
C4559 H4575 0.960 . S
H4560 C4544 0.931 . S
H4561 C4549 0.929 . S
H4562 C4550 0.960 . S
H4563 C4550 0.962 . S
H4564 C4550 0.960 . S
H4565 C4551 0.961 . S
H4566 C4551 0.961 . S
H4567 C4551 0.961 . S
H4568 C4552 0.931 . S
H4569 C4557 0.930 . S
H4570 C4558 0.956 . S
H4571 C4558 0.961 . S
H4572 C4558 0.961 . S
H4573 C4559 0.958 . S
H4574 C4559 0.961 . S
H4575 C4559 0.960 . S
C4576 C4577 1.391 . S
C4576 C4578 1.394 . S
C4576 H4592 0.931 . S
C4577 C4576 1.391 . S
C4577 C4581 1.376 . S
C4578 C4576 1.394 . S
C4578 C4579 1.369 . S
C4578 C4582 1.531 . S
C4579 C4578 1.369 . S
C4579 C4580 1.410 . S
C4579 C4587 1.503 . S
C4580 C4579 1.410 . S
C4580 C4581 1.392 . S
C4580 C4583 1.511 . S
C4581 C4577 1.376 . S
C4581 C4580 1.392 . S
C4581 H4593 0.929 . S
C4582 C4578 1.531 . S
C4582 H4594 0.960 . S
C4582 H4595 0.962 . S
C4582 H4596 0.960 . S
C4583 C4580 1.511 . S
C4583 H4597 0.961 . S
C4583 H4598 0.961 . S
C4583 H4599 0.961 . S
C4584 C4585 1.370 . S
C4584 C4586 1.363 . S
C4584 H4600 0.931 . S
C4585 C4584 1.370 . S
C4585 C4589 1.408 . S
C4586 C4584 1.363 . S
C4586 C4587 1.370 . S
C4586 C4590 1.524 . S
C4587 C4579 1.503 . S
C4587 C4586 1.370 . S
C4587 C4588 1.403 . S
C4588 C4587 1.403 . S
C4588 C4589 1.404 . S
C4588 C4591 1.539 . S
C4589 C4585 1.408 . S
C4589 C4588 1.404 . S
C4589 H4601 0.930 . S
C4590 C4586 1.524 . S
C4590 H4602 0.956 . S
C4590 H4603 0.961 . S
C4590 H4604 0.961 . S
C4591 C4588 1.539 . S
C4591 H4605 0.958 . S
C4591 H4606 0.961 . S
C4591 H4607 0.960 . S
H4592 C4576 0.931 . S
H4593 C4581 0.929 . S
H4594 C4582 0.960 . S
H4595 C4582 0.962 . S
H4596 C4582 0.960 . S
H4597 C4583 0.961 . S
H4598 C4583 0.961 . S
H4599 C4583 0.961 . S
H4600 C4584 0.931 . S
H4601 C4589 0.930 . S
H4602 C4590 0.956 . S
H4603 C4590 0.961 . S
H4604 C4590 0.961 . S
H4605 C4591 0.958 . S
H4606 C4591 0.961 . S
H4607 C4591 0.960 . S
C4608 C4609 1.391 . S
C4608 C4610 1.394 . S
C4608 H4624 0.931 . S
C4609 C4608 1.391 . S
C4609 C4613 1.376 . S
C4610 C4608 1.394 . S
C4610 C4611 1.369 . S
C4610 C4614 1.531 . S
C4611 C4610 1.369 . S
C4611 C4612 1.410 . S
C4611 C4619 1.503 . S
C4612 C4611 1.410 . S
C4612 C4613 1.392 . S
C4612 C4615 1.511 . S
C4613 C4609 1.376 . S
C4613 C4612 1.392 . S
C4613 H4625 0.929 . S
C4614 C4610 1.531 . S
C4614 H4626 0.960 . S
C4614 H4627 0.962 . S
C4614 H4628 0.960 . S
C4615 C4612 1.511 . S
C4615 H4629 0.961 . S
C4615 H4630 0.961 . S
C4615 H4631 0.961 . S
C4616 C4617 1.370 . S
C4616 C4618 1.363 . S
C4616 H4632 0.931 . S
C4617 C4616 1.370 . S
C4617 C4621 1.408 . S
C4618 C4616 1.363 . S
C4618 C4619 1.370 . S
C4618 C4622 1.524 . S
C4619 C4611 1.503 . S
C4619 C4618 1.370 . S
C4619 C4620 1.403 . S
C4620 C4619 1.403 . S
C4620 C4621 1.404 . S
C4620 C4623 1.539 . S
C4621 C4617 1.408 . S
C4621 C4620 1.404 . S
C4621 H4633 0.930 . S
C4622 C4618 1.524 . S
C4622 H4634 0.956 . S
C4622 H4635 0.961 . S
C4622 H4636 0.961 . S
C4623 C4620 1.539 . S
C4623 H4637 0.958 . S
C4623 H4638 0.961 . S
C4623 H4639 0.960 . S
H4624 C4608 0.931 . S
H4625 C4613 0.929 . S
H4626 C4614 0.960 . S
H4627 C4614 0.962 . S
H4628 C4614 0.960 . S
H4629 C4615 0.961 . S
H4630 C4615 0.961 . S
H4631 C4615 0.961 . S
H4632 C4616 0.931 . S
H4633 C4621 0.930 . S
H4634 C4622 0.956 . S
H4635 C4622 0.961 . S
H4636 C4622 0.961 . S
H4637 C4623 0.958 . S
H4638 C4623 0.961 . S
H4639 C4623 0.960 . S
C4640 C4641 1.391 . S
C4640 C4642 1.394 . S
C4640 H4656 0.931 . S
C4641 C4640 1.391 . S
C4641 C4645 1.376 . S
C4642 C4640 1.394 . S
C4642 C4643 1.369 . S
C4642 C4646 1.531 . S
C4643 C4642 1.369 . S
C4643 C4644 1.410 . S
C4643 C4651 1.503 . S
C4644 C4643 1.410 . S
C4644 C4645 1.392 . S
C4644 C4647 1.511 . S
C4645 C4641 1.376 . S
C4645 C4644 1.392 . S
C4645 H4657 0.929 . S
C4646 C4642 1.531 . S
C4646 H4658 0.960 . S
C4646 H4659 0.962 . S
C4646 H4660 0.960 . S
C4647 C4644 1.511 . S
C4647 H4661 0.961 . S
C4647 H4662 0.961 . S
C4647 H4663 0.961 . S
C4648 C4649 1.370 . S
C4648 C4650 1.363 . S
C4648 H4664 0.931 . S
C4649 C4648 1.370 . S
C4649 C4653 1.408 . S
C4650 C4648 1.363 . S
C4650 C4651 1.370 . S
C4650 C4654 1.524 . S
C4651 C4643 1.503 . S
C4651 C4650 1.370 . S
C4651 C4652 1.403 . S
C4652 C4651 1.403 . S
C4652 C4653 1.404 . S
C4652 C4655 1.539 . S
C4653 C4649 1.408 . S
C4653 C4652 1.404 . S
C4653 H4665 0.930 . S
C4654 C4650 1.524 . S
C4654 H4666 0.956 . S
C4654 H4667 0.961 . S
C4654 H4668 0.961 . S
C4655 C4652 1.539 . S
C4655 H4669 0.958 . S
C4655 H4670 0.961 . S
C4655 H4671 0.960 . S
H4656 C4640 0.931 . S
H4657 C4645 0.929 . S
H4658 C4646 0.960 . S
H4659 C4646 0.962 . S
H4660 C4646 0.960 . S
H4661 C4647 0.961 . S
H4662 C4647 0.961 . S
H4663 C4647 0.961 . S
H4664 C4648 0.931 . S
H4665 C4653 0.930 . S
H4666 C4654 0.956 . S
H4667 C4654 0.961 . S
H4668 C4654 0.961 . S
H4669 C4655 0.958 . S
H4670 C4655 0.961 . S
H4671 C4655 0.960 . S
C4672 C4673 1.391 . S
C4672 C4674 1.394 . S
C4672 H4688 0.931 . S
C4673 C4672 1.391 . S
C4673 C4677 1.376 . S
C4674 C4672 1.394 . S
C4674 C4675 1.369 . S
C4674 C4678 1.531 . S
C4675 C4674 1.369 . S
C4675 C4676 1.410 . S
C4675 C4683 1.503 . S
C4676 C4675 1.410 . S
C4676 C4677 1.392 . S
C4676 C4679 1.511 . S
C4677 C4673 1.376 . S
C4677 C4676 1.392 . S
C4677 H4689 0.929 . S
C4678 C4674 1.531 . S
C4678 H4690 0.960 . S
C4678 H4691 0.962 . S
C4678 H4692 0.960 . S
C4679 C4676 1.511 . S
C4679 H4693 0.961 . S
C4679 H4694 0.961 . S
C4679 H4695 0.961 . S
C4680 C4681 1.370 . S
C4680 C4682 1.363 . S
C4680 H4696 0.931 . S
C4681 C4680 1.370 . S
C4681 C4685 1.408 . S
C4682 C4680 1.363 . S
C4682 C4683 1.370 . S
C4682 C4686 1.524 . S
C4683 C4675 1.503 . S
C4683 C4682 1.370 . S
C4683 C4684 1.403 . S
C4684 C4683 1.403 . S
C4684 C4685 1.404 . S
C4684 C4687 1.539 . S
C4685 C4681 1.408 . S
C4685 C4684 1.404 . S
C4685 H4697 0.930 . S
C4686 C4682 1.524 . S
C4686 H4698 0.956 . S
C4686 H4699 0.961 . S
C4686 H4700 0.961 . S
C4687 C4684 1.539 . S
C4687 H4701 0.958 . S
C4687 H4702 0.961 . S
C4687 H4703 0.960 . S
H4688 C4672 0.931 . S
H4689 C4677 0.929 . S
H4690 C4678 0.960 . S
H4691 C4678 0.962 . S
H4692 C4678 0.960 . S
H4693 C4679 0.961 . S
H4694 C4679 0.961 . S
H4695 C4679 0.961 . S
H4696 C4680 0.931 . S
H4697 C4685 0.930 . S
H4698 C4686 0.956 . S
H4699 C4686 0.961 . S
H4700 C4686 0.961 . S
H4701 C4687 0.958 . S
H4702 C4687 0.961 . S
H4703 C4687 0.960 . S
C4704 C4705 1.391 . S
C4704 C4706 1.394 . S
C4704 H4720 0.931 . S
C4705 C4704 1.391 . S
C4705 C4709 1.376 . S
C4706 C4704 1.394 . S
C4706 C4707 1.369 . S
C4706 C4710 1.531 . S
C4707 C4706 1.369 . S
C4707 C4708 1.410 . S
C4707 C4715 1.503 . S
C4708 C4707 1.410 . S
C4708 C4709 1.392 . S
C4708 C4711 1.511 . S
C4709 C4705 1.376 . S
C4709 C4708 1.392 . S
C4709 H4721 0.929 . S
C4710 C4706 1.531 . S
C4710 H4722 0.960 . S
C4710 H4723 0.962 . S
C4710 H4724 0.960 . S
C4711 C4708 1.511 . S
C4711 H4725 0.961 . S
C4711 H4726 0.961 . S
C4711 H4727 0.961 . S
C4712 C4713 1.370 . S
C4712 C4714 1.363 . S
C4712 H4728 0.931 . S
C4713 C4712 1.370 . S
C4713 C4717 1.408 . S
C4714 C4712 1.363 . S
C4714 C4715 1.370 . S
C4714 C4718 1.524 . S
C4715 C4707 1.503 . S
C4715 C4714 1.370 . S
C4715 C4716 1.403 . S
C4716 C4715 1.403 . S
C4716 C4717 1.404 . S
C4716 C4719 1.539 . S
C4717 C4713 1.408 . S
C4717 C4716 1.404 . S
C4717 H4729 0.930 . S
C4718 C4714 1.524 . S
C4718 H4730 0.956 . S
C4718 H4731 0.961 . S
C4718 H4732 0.961 . S
C4719 C4716 1.539 . S
C4719 H4733 0.958 . S
C4719 H4734 0.961 . S
C4719 H4735 0.960 . S
H4720 C4704 0.931 . S
H4721 C4709 0.929 . S
H4722 C4710 0.960 . S
H4723 C4710 0.962 . S
H4724 C4710 0.960 . S
H4725 C4711 0.961 . S
H4726 C4711 0.961 . S
H4727 C4711 0.961 . S
H4728 C4712 0.931 . S
H4729 C4717 0.930 . S
H4730 C4718 0.956 . S
H4731 C4718 0.961 . S
H4732 C4718 0.961 . S
H4733 C4719 0.958 . S
H4734 C4719 0.961 . S
H4735 C4719 0.960 . S
C4736 C4737 1.391 . S
C4736 C4738 1.394 . S
C4736 H4752 0.931 . S
C4737 C4736 1.391 . S
C4737 C4741 1.376 . S
C4738 C4736 1.394 . S
C4738 C4739 1.369 . S
C4738 C4742 1.531 . S
C4739 C4738 1.369 . S
C4739 C4740 1.410 . S
C4739 C4747 1.503 . S
C4740 C4739 1.410 . S
C4740 C4741 1.392 . S
C4740 C4743 1.511 . S
C4741 C4737 1.376 . S
C4741 C4740 1.392 . S
C4741 H4753 0.929 . S
C4742 C4738 1.531 . S
C4742 H4754 0.960 . S
C4742 H4755 0.962 . S
C4742 H4756 0.960 . S
C4743 C4740 1.511 . S
C4743 H4757 0.961 . S
C4743 H4758 0.961 . S
C4743 H4759 0.961 . S
C4744 C4745 1.370 . S
C4744 C4746 1.363 . S
C4744 H4760 0.931 . S
C4745 C4744 1.370 . S
C4745 C4749 1.408 . S
C4746 C4744 1.363 . S
C4746 C4747 1.370 . S
C4746 C4750 1.524 . S
C4747 C4739 1.503 . S
C4747 C4746 1.370 . S
C4747 C4748 1.403 . S
C4748 C4747 1.403 . S
C4748 C4749 1.404 . S
C4748 C4751 1.539 . S
C4749 C4745 1.408 . S
C4749 C4748 1.404 . S
C4749 H4761 0.930 . S
C4750 C4746 1.524 . S
C4750 H4762 0.956 . S
C4750 H4763 0.961 . S
C4750 H4764 0.961 . S
C4751 C4748 1.539 . S
C4751 H4765 0.958 . S
C4751 H4766 0.961 . S
C4751 H4767 0.960 . S
H4752 C4736 0.931 . S
H4753 C4741 0.929 . S
H4754 C4742 0.960 . S
H4755 C4742 0.962 . S
H4756 C4742 0.960 . S
H4757 C4743 0.961 . S
H4758 C4743 0.961 . S
H4759 C4743 0.961 . S
H4760 C4744 0.931 . S
H4761 C4749 0.930 . S
H4762 C4750 0.956 . S
H4763 C4750 0.961 . S
H4764 C4750 0.961 . S
H4765 C4751 0.958 . S
H4766 C4751 0.961 . S
H4767 C4751 0.960 . S
C4768 C4769 1.391 . S
C4768 C4770 1.394 . S
C4768 H4784 0.931 . S
C4769 C4768 1.391 . S
C4769 C4773 1.376 . S
C4770 C4768 1.394 . S
C4770 C4771 1.369 . S
C4770 C4774 1.531 . S
C4771 C4770 1.369 . S
C4771 C4772 1.410 . S
C4771 C4779 1.503 . S
C4772 C4771 1.410 . S
C4772 C4773 1.392 . S
C4772 C4775 1.511 . S
C4773 C4769 1.376 . S
C4773 C4772 1.392 . S
C4773 H4785 0.929 . S
C4774 C4770 1.531 . S
C4774 H4786 0.960 . S
C4774 H4787 0.962 . S
C4774 H4788 0.960 . S
C4775 C4772 1.511 . S
C4775 H4789 0.961 . S
C4775 H4790 0.961 . S
C4775 H4791 0.961 . S
C4776 C4777 1.370 . S
C4776 C4778 1.363 . S
C4776 H4792 0.931 . S
C4777 C4776 1.370 . S
C4777 C4781 1.408 . S
C4778 C4776 1.363 . S
C4778 C4779 1.370 . S
C4778 C4782 1.524 . S
C4779 C4771 1.503 . S
C4779 C4778 1.370 . S
C4779 C4780 1.403 . S
C4780 C4779 1.403 . S
C4780 C4781 1.404 . S
C4780 C4783 1.539 . S
C4781 C4777 1.408 . S
C4781 C4780 1.404 . S
C4781 H4793 0.930 . S
C4782 C4778 1.524 . S
C4782 H4794 0.956 . S
C4782 H4795 0.961 . S
C4782 H4796 0.961 . S
C4783 C4780 1.539 . S
C4783 H4797 0.958 . S
C4783 H4798 0.961 . S
C4783 H4799 0.960 . S
H4784 C4768 0.931 . S
H4785 C4773 0.929 . S
H4786 C4774 0.960 . S
H4787 C4774 0.962 . S
H4788 C4774 0.960 . S
H4789 C4775 0.961 . S
H4790 C4775 0.961 . S
H4791 C4775 0.961 . S
H4792 C4776 0.931 . S
H4793 C4781 0.930 . S
H4794 C4782 0.956 . S
H4795 C4782 0.961 . S
H4796 C4782 0.961 . S
H4797 C4783 0.958 . S
H4798 C4783 0.961 . S
H4799 C4783 0.960 . S
C4800 C4801 1.391 . S
C4800 C4802 1.394 . S
C4800 H4816 0.931 . S
C4801 C4800 1.391 . S
C4801 C4805 1.376 . S
C4802 C4800 1.394 . S
C4802 C4803 1.369 . S
C4802 C4806 1.531 . S
C4803 C4802 1.369 . S
C4803 C4804 1.410 . S
C4803 C4811 1.503 . S
C4804 C4803 1.410 . S
C4804 C4805 1.392 . S
C4804 C4807 1.511 . S
C4805 C4801 1.376 . S
C4805 C4804 1.392 . S
C4805 H4817 0.929 . S
C4806 C4802 1.531 . S
C4806 H4818 0.960 . S
C4806 H4819 0.962 . S
C4806 H4820 0.960 . S
C4807 C4804 1.511 . S
C4807 H4821 0.961 . S
C4807 H4822 0.961 . S
C4807 H4823 0.961 . S
C4808 C4809 1.370 . S
C4808 C4810 1.363 . S
C4808 H4824 0.931 . S
C4809 C4808 1.370 . S
C4809 C4813 1.408 . S
C4810 C4808 1.363 . S
C4810 C4811 1.370 . S
C4810 C4814 1.524 . S
C4811 C4803 1.503 . S
C4811 C4810 1.370 . S
C4811 C4812 1.403 . S
C4812 C4811 1.403 . S
C4812 C4813 1.404 . S
C4812 C4815 1.539 . S
C4813 C4809 1.408 . S
C4813 C4812 1.404 . S
C4813 H4825 0.930 . S
C4814 C4810 1.524 . S
C4814 H4826 0.956 . S
C4814 H4827 0.961 . S
C4814 H4828 0.961 . S
C4815 C4812 1.539 . S
C4815 H4829 0.958 . S
C4815 H4830 0.961 . S
C4815 H4831 0.960 . S
H4816 C4800 0.931 . S
H4817 C4805 0.929 . S
H4818 C4806 0.960 . S
H4819 C4806 0.962 . S
H4820 C4806 0.960 . S
H4821 C4807 0.961 . S
H4822 C4807 0.961 . S
H4823 C4807 0.961 . S
H4824 C4808 0.931 . S
H4825 C4813 0.930 . S
H4826 C4814 0.956 . S
H4827 C4814 0.961 . S
H4828 C4814 0.961 . S
H4829 C4815 0.958 . S
H4830 C4815 0.961 . S
H4831 C4815 0.960 . S
C4832 C4833 1.391 . S
C4832 C4834 1.394 . S
C4832 H4848 0.931 . S
C4833 C4832 1.391 . S
C4833 C4837 1.376 . S
C4834 C4832 1.394 . S
C4834 C4835 1.369 . S
C4834 C4838 1.531 . S
C4835 C4834 1.369 . S
C4835 C4836 1.410 . S
C4835 C4843 1.503 . S
C4836 C4835 1.410 . S
C4836 C4837 1.392 . S
C4836 C4839 1.511 . S
C4837 C4833 1.376 . S
C4837 C4836 1.392 . S
C4837 H4849 0.929 . S
C4838 C4834 1.531 . S
C4838 H4850 0.960 . S
C4838 H4851 0.962 . S
C4838 H4852 0.960 . S
C4839 C4836 1.511 . S
C4839 H4853 0.961 . S
C4839 H4854 0.961 . S
C4839 H4855 0.961 . S
C4840 C4841 1.370 . S
C4840 C4842 1.363 . S
C4840 H4856 0.931 . S
C4841 C4840 1.370 . S
C4841 C4845 1.408 . S
C4842 C4840 1.363 . S
C4842 C4843 1.370 . S
C4842 C4846 1.524 . S
C4843 C4835 1.503 . S
C4843 C4842 1.370 . S
C4843 C4844 1.403 . S
C4844 C4843 1.403 . S
C4844 C4845 1.404 . S
C4844 C4847 1.539 . S
C4845 C4841 1.408 . S
C4845 C4844 1.404 . S
C4845 H4857 0.930 . S
C4846 C4842 1.524 . S
C4846 H4858 0.956 . S
C4846 H4859 0.961 . S
C4846 H4860 0.961 . S
C4847 C4844 1.539 . S
C4847 H4861 0.958 . S
C4847 H4862 0.961 . S
C4847 H4863 0.960 . S
H4848 C4832 0.931 . S
H4849 C4837 0.929 . S
H4850 C4838 0.960 . S
H4851 C4838 0.962 . S
H4852 C4838 0.960 . S
H4853 C4839 0.961 . S
H4854 C4839 0.961 . S
H4855 C4839 0.961 . S
H4856 C4840 0.931 . S
H4857 C4845 0.930 . S
H4858 C4846 0.956 . S
H4859 C4846 0.961 . S
H4860 C4846 0.961 . S
H4861 C4847 0.958 . S
H4862 C4847 0.961 . S
H4863 C4847 0.960 . S
C4864 C4865 1.391 . S
C4864 C4866 1.394 . S
C4864 H4880 0.931 . S
C4865 C4864 1.391 . S
C4865 C4869 1.376 . S
C4866 C4864 1.394 . S
C4866 C4867 1.369 . S
C4866 C4870 1.531 . S
C4867 C4866 1.369 . S
C4867 C4868 1.410 . S
C4867 C4875 1.503 . S
C4868 C4867 1.410 . S
C4868 C4869 1.392 . S
C4868 C4871 1.511 . S
C4869 C4865 1.376 . S
C4869 C4868 1.392 . S
C4869 H4881 0.929 . S
C4870 C4866 1.531 . S
C4870 H4882 0.960 . S
C4870 H4883 0.962 . S
C4870 H4884 0.960 . S
C4871 C4868 1.511 . S
C4871 H4885 0.961 . S
C4871 H4886 0.961 . S
C4871 H4887 0.961 . S
C4872 C4873 1.370 . S
C4872 C4874 1.363 . S
C4872 H4888 0.931 . S
C4873 C4872 1.370 . S
C4873 C4877 1.408 . S
C4874 C4872 1.363 . S
C4874 C4875 1.370 . S
C4874 C4878 1.524 . S
C4875 C4867 1.503 . S
C4875 C4874 1.370 . S
C4875 C4876 1.403 . S
C4876 C4875 1.403 . S
C4876 C4877 1.404 . S
C4876 C4879 1.539 . S
C4877 C4873 1.408 . S
C4877 C4876 1.404 . S
C4877 H4889 0.930 . S
C4878 C4874 1.524 . S
C4878 H4890 0.956 . S
C4878 H4891 0.961 . S
C4878 H4892 0.961 . S
C4879 C4876 1.539 . S
C4879 H4893 0.958 . S
C4879 H4894 0.961 . S
C4879 H4895 0.960 . S
H4880 C4864 0.931 . S
H4881 C4869 0.929 . S
H4882 C4870 0.960 . S
H4883 C4870 0.962 . S
H4884 C4870 0.960 . S
H4885 C4871 0.961 . S
H4886 C4871 0.961 . S
H4887 C4871 0.961 . S
H4888 C4872 0.931 . S
H4889 C4877 0.930 . S
H4890 C4878 0.956 . S
H4891 C4878 0.961 . S
H4892 C4878 0.961 . S
H4893 C4879 0.958 . S
H4894 C4879 0.961 . S
H4895 C4879 0.960 . S
C4896 C4897 1.391 . S
C4896 C4898 1.394 . S
C4896 H4912 0.931 . S
C4897 C4896 1.391 . S
C4897 C4901 1.376 . S
C4898 C4896 1.394 . S
C4898 C4899 1.369 . S
C4898 C4902 1.531 . S
C4899 C4898 1.369 . S
C4899 C4900 1.410 . S
C4899 C4907 1.503 . S
C4900 C4899 1.410 . S
C4900 C4901 1.392 . S
C4900 C4903 1.511 . S
C4901 C4897 1.376 . S
C4901 C4900 1.392 . S
C4901 H4913 0.929 . S
C4902 C4898 1.531 . S
C4902 H4914 0.960 . S
C4902 H4915 0.962 . S
C4902 H4916 0.960 . S
C4903 C4900 1.511 . S
C4903 H4917 0.961 . S
C4903 H4918 0.961 . S
C4903 H4919 0.961 . S
C4904 C4905 1.370 . S
C4904 C4906 1.363 . S
C4904 H4920 0.931 . S
C4905 C4904 1.370 . S
C4905 C4909 1.408 . S
C4906 C4904 1.363 . S
C4906 C4907 1.370 . S
C4906 C4910 1.524 . S
C4907 C4899 1.503 . S
C4907 C4906 1.370 . S
C4907 C4908 1.403 . S
C4908 C4907 1.403 . S
C4908 C4909 1.404 . S
C4908 C4911 1.539 . S
C4909 C4905 1.408 . S
C4909 C4908 1.404 . S
C4909 H4921 0.930 . S
C4910 C4906 1.524 . S
C4910 H4922 0.956 . S
C4910 H4923 0.961 . S
C4910 H4924 0.961 . S
C4911 C4908 1.539 . S
C4911 H4925 0.958 . S
C4911 H4926 0.961 . S
C4911 H4927 0.960 . S
H4912 C4896 0.931 . S
H4913 C4901 0.929 . S
H4914 C4902 0.960 . S
H4915 C4902 0.962 . S
H4916 C4902 0.960 . S
H4917 C4903 0.961 . S
H4918 C4903 0.961 . S
H4919 C4903 0.961 . S
H4920 C4904 0.931 . S
H4921 C4909 0.930 . S
H4922 C4910 0.956 . S
H4923 C4910 0.961 . S
H4924 C4910 0.961 . S
H4925 C4911 0.958 . S
H4926 C4911 0.961 . S
H4927 C4911 0.960 . S
C4928 C4929 1.391 . S
C4928 C4930 1.394 . S
C4928 H4944 0.931 . S
C4929 C4928 1.391 . S
C4929 C4933 1.376 . S
C4930 C4928 1.394 . S
C4930 C4931 1.369 . S
C4930 C4934 1.531 . S
C4931 C4930 1.369 . S
C4931 C4932 1.410 . S
C4931 C4939 1.503 . S
C4932 C4931 1.410 . S
C4932 C4933 1.392 . S
C4932 C4935 1.511 . S
C4933 C4929 1.376 . S
C4933 C4932 1.392 . S
C4933 H4945 0.929 . S
C4934 C4930 1.531 . S
C4934 H4946 0.960 . S
C4934 H4947 0.962 . S
C4934 H4948 0.960 . S
C4935 C4932 1.511 . S
C4935 H4949 0.961 . S
C4935 H4950 0.961 . S
C4935 H4951 0.961 . S
C4936 C4937 1.370 . S
C4936 C4938 1.363 . S
C4936 H4952 0.931 . S
C4937 C4936 1.370 . S
C4937 C4941 1.408 . S
C4938 C4936 1.363 . S
C4938 C4939 1.370 . S
C4938 C4942 1.524 . S
C4939 C4931 1.503 . S
C4939 C4938 1.370 . S
C4939 C4940 1.403 . S
C4940 C4939 1.403 . S
C4940 C4941 1.404 . S
C4940 C4943 1.539 . S
C4941 C4937 1.408 . S
C4941 C4940 1.404 . S
C4941 H4953 0.930 . S
C4942 C4938 1.524 . S
C4942 H4954 0.956 . S
C4942 H4955 0.961 . S
C4942 H4956 0.961 . S
C4943 C4940 1.539 . S
C4943 H4957 0.958 . S
C4943 H4958 0.961 . S
C4943 H4959 0.960 . S
H4944 C4928 0.931 . S
H4945 C4933 0.929 . S
H4946 C4934 0.960 . S
H4947 C4934 0.962 . S
H4948 C4934 0.960 . S
H4949 C4935 0.961 . S
H4950 C4935 0.961 . S
H4951 C4935 0.961 . S
H4952 C4936 0.931 . S
H4953 C4941 0.930 . S
H4954 C4942 0.956 . S
H4955 C4942 0.961 . S
H4956 C4942 0.961 . S
H4957 C4943 0.958 . S
H4958 C4943 0.961 . S
H4959 C4943 0.960 . S
C4960 C4961 1.391 . S
C4960 C4962 1.394 . S
C4960 H4976 0.931 . S
C4961 C4960 1.391 . S
C4961 C4965 1.376 . S
C4962 C4960 1.394 . S
C4962 C4963 1.369 . S
C4962 C4966 1.531 . S
C4963 C4962 1.369 . S
C4963 C4964 1.410 . S
C4963 C4971 1.503 . S
C4964 C4963 1.410 . S
C4964 C4965 1.392 . S
C4964 C4967 1.511 . S
C4965 C4961 1.376 . S
C4965 C4964 1.392 . S
C4965 H4977 0.929 . S
C4966 C4962 1.531 . S
C4966 H4978 0.960 . S
C4966 H4979 0.962 . S
C4966 H4980 0.960 . S
C4967 C4964 1.511 . S
C4967 H4981 0.961 . S
C4967 H4982 0.961 . S
C4967 H4983 0.961 . S
C4968 C4969 1.370 . S
C4968 C4970 1.363 . S
C4968 H4984 0.931 . S
C4969 C4968 1.370 . S
C4969 C4973 1.408 . S
C4970 C4968 1.363 . S
C4970 C4971 1.370 . S
C4970 C4974 1.524 . S
C4971 C4963 1.503 . S
C4971 C4970 1.370 . S
C4971 C4972 1.403 . S
C4972 C4971 1.403 . S
C4972 C4973 1.404 . S
C4972 C4975 1.539 . S
C4973 C4969 1.408 . S
C4973 C4972 1.404 . S
C4973 H4985 0.930 . S
C4974 C4970 1.524 . S
C4974 H4986 0.956 . S
C4974 H4987 0.961 . S
C4974 H4988 0.961 . S
C4975 C4972 1.539 . S
C4975 H4989 0.958 . S
C4975 H4990 0.961 . S
C4975 H4991 0.960 . S
H4976 C4960 0.931 . S
H4977 C4965 0.929 . S
H4978 C4966 0.960 . S
H4979 C4966 0.962 . S
H4980 C4966 0.960 . S
H4981 C4967 0.961 . S
H4982 C4967 0.961 . S
H4983 C4967 0.961 . S
H4984 C4968 0.931 . S
H4985 C4973 0.930 . S
H4986 C4974 0.956 . S
H4987 C4974 0.961 . S
H4988 C4974 0.961 . S
H4989 C4975 0.958 . S
H4990 C4975 0.961 . S
H4991 C4975 0.960 . S
C4992 C4993 1.391 . S
C4992 C4994 1.394 . S
C4992 H5008 0.931 . S
C4993 C4992 1.391 . S
C4993 C4997 1.376 . S
C4994 C4992 1.394 . S
C4994 C4995 1.369 . S
C4994 C4998 1.531 . S
C4995 C4994 1.369 . S
C4995 C4996 1.410 . S
C4995 C5003 1.503 . S
C4996 C4995 1.410 . S
C4996 C4997 1.392 . S
C4996 C4999 1.511 . S
C4997 C4993 1.376 . S
C4997 C4996 1.392 . S
C4997 H5009 0.929 . S
C4998 C4994 1.531 . S
C4998 H5010 0.960 . S
C4998 H5011 0.962 . S
C4998 H5012 0.960 . S
C4999 C4996 1.511 . S
C4999 H5013 0.961 . S
C4999 H5014 0.961 . S
C4999 H5015 0.961 . S
C5000 C5001 1.370 . S
C5000 C5002 1.363 . S
C5000 H5016 0.931 . S
C5001 C5000 1.370 . S
C5001 C5005 1.408 . S
C5002 C5000 1.363 . S
C5002 C5003 1.370 . S
C5002 C5006 1.524 . S
C5003 C4995 1.503 . S
C5003 C5002 1.370 . S
C5003 C5004 1.403 . S
C5004 C5003 1.403 . S
C5004 C5005 1.404 . S
C5004 C5007 1.539 . S
C5005 C5001 1.408 . S
C5005 C5004 1.404 . S
C5005 H5017 0.930 . S
C5006 C5002 1.524 . S
C5006 H5018 0.956 . S
C5006 H5019 0.961 . S
C5006 H5020 0.961 . S
C5007 C5004 1.539 . S
C5007 H5021 0.958 . S
C5007 H5022 0.961 . S
C5007 H5023 0.960 . S
H5008 C4992 0.931 . S
H5009 C4997 0.929 . S
H5010 C4998 0.960 . S
H5011 C4998 0.962 . S
H5012 C4998 0.960 . S
H5013 C4999 0.961 . S
H5014 C4999 0.961 . S
H5015 C4999 0.961 . S
H5016 C5000 0.931 . S
H5017 C5005 0.930 . S
H5018 C5006 0.956 . S
H5019 C5006 0.961 . S
H5020 C5006 0.961 . S
H5021 C5007 0.958 . S
H5022 C5007 0.961 . S
H5023 C5007 0.960 . S
C5024 C5025 1.391 . S
C5024 C5026 1.394 . S
C5024 H5040 0.931 . S
C5025 C5024 1.391 . S
C5025 C5029 1.376 . S
C5026 C5024 1.394 . S
C5026 C5027 1.369 . S
C5026 C5030 1.531 . S
C5027 C5026 1.369 . S
C5027 C5028 1.410 . S
C5027 C5035 1.503 . S
C5028 C5027 1.410 . S
C5028 C5029 1.392 . S
C5028 C5031 1.511 . S
C5029 C5025 1.376 . S
C5029 C5028 1.392 . S
C5029 H5041 0.929 . S
C5030 C5026 1.531 . S
C5030 H5042 0.960 . S
C5030 H5043 0.962 . S
C5030 H5044 0.960 . S
C5031 C5028 1.511 . S
C5031 H5045 0.961 . S
C5031 H5046 0.961 . S
C5031 H5047 0.961 . S
C5032 C5033 1.370 . S
C5032 C5034 1.363 . S
C5032 H5048 0.931 . S
C5033 C5032 1.370 . S
C5033 C5037 1.408 . S
C5034 C5032 1.363 . S
C5034 C5035 1.370 . S
C5034 C5038 1.524 . S
C5035 C5027 1.503 . S
C5035 C5034 1.370 . S
C5035 C5036 1.403 . S
C5036 C5035 1.403 . S
C5036 C5037 1.404 . S
C5036 C5039 1.539 . S
C5037 C5033 1.408 . S
C5037 C5036 1.404 . S
C5037 H5049 0.930 . S
C5038 C5034 1.524 . S
C5038 H5050 0.956 . S
C5038 H5051 0.961 . S
C5038 H5052 0.961 . S
C5039 C5036 1.539 . S
C5039 H5053 0.958 . S
C5039 H5054 0.961 . S
C5039 H5055 0.960 . S
H5040 C5024 0.931 . S
H5041 C5029 0.929 . S
H5042 C5030 0.960 . S
H5043 C5030 0.962 . S
H5044 C5030 0.960 . S
H5045 C5031 0.961 . S
H5046 C5031 0.961 . S
H5047 C5031 0.961 . S
H5048 C5032 0.931 . S
H5049 C5037 0.930 . S
H5050 C5038 0.956 . S
H5051 C5038 0.961 . S
H5052 C5038 0.961 . S
H5053 C5039 0.958 . S
H5054 C5039 0.961 . S
H5055 C5039 0.960 . S
C5056 C5057 1.391 . S
C5056 C5058 1.394 . S
C5056 H5072 0.931 . S
C5057 C5056 1.391 . S
C5057 C5061 1.376 . S
C5058 C5056 1.394 . S
C5058 C5059 1.369 . S
C5058 C5062 1.531 . S
C5059 C5058 1.369 . S
C5059 C5060 1.410 . S
C5059 C5067 1.503 . S
C5060 C5059 1.410 . S
C5060 C5061 1.392 . S
C5060 C5063 1.511 . S
C5061 C5057 1.376 . S
C5061 C5060 1.392 . S
C5061 H5073 0.929 . S
C5062 C5058 1.531 . S
C5062 H5074 0.960 . S
C5062 H5075 0.962 . S
C5062 H5076 0.960 . S
C5063 C5060 1.511 . S
C5063 H5077 0.961 . S
C5063 H5078 0.961 . S
C5063 H5079 0.961 . S
C5064 C5065 1.370 . S
C5064 C5066 1.363 . S
C5064 H5080 0.931 . S
C5065 C5064 1.370 . S
C5065 C5069 1.408 . S
C5066 C5064 1.363 . S
C5066 C5067 1.370 . S
C5066 C5070 1.524 . S
C5067 C5059 1.503 . S
C5067 C5066 1.370 . S
C5067 C5068 1.403 . S
C5068 C5067 1.403 . S
C5068 C5069 1.404 . S
C5068 C5071 1.539 . S
C5069 C5065 1.408 . S
C5069 C5068 1.404 . S
C5069 H5081 0.930 . S
C5070 C5066 1.524 . S
C5070 H5082 0.956 . S
C5070 H5083 0.961 . S
C5070 H5084 0.961 . S
C5071 C5068 1.539 . S
C5071 H5085 0.958 . S
C5071 H5086 0.961 . S
C5071 H5087 0.960 . S
H5072 C5056 0.931 . S
H5073 C5061 0.929 . S
H5074 C5062 0.960 . S
H5075 C5062 0.962 . S
H5076 C5062 0.960 . S
H5077 C5063 0.961 . S
H5078 C5063 0.961 . S
H5079 C5063 0.961 . S
H5080 C5064 0.931 . S
H5081 C5069 0.930 . S
H5082 C5070 0.956 . S
H5083 C5070 0.961 . S
H5084 C5070 0.961 . S
H5085 C5071 0.958 . S
H5086 C5071 0.961 . S
H5087 C5071 0.960 . S
C5088 C5089 1.391 . S
C5088 C5090 1.394 . S
C5088 H5104 0.931 . S
C5089 C5088 1.391 . S
C5089 C5093 1.376 . S
C5090 C5088 1.394 . S
C5090 C5091 1.369 . S
C5090 C5094 1.531 . S
C5091 C5090 1.369 . S
C5091 C5092 1.410 . S
C5091 C5099 1.503 . S
C5092 C5091 1.410 . S
C5092 C5093 1.392 . S
C5092 C5095 1.511 . S
C5093 C5089 1.376 . S
C5093 C5092 1.392 . S
C5093 H5105 0.929 . S
C5094 C5090 1.531 . S
C5094 H5106 0.960 . S
C5094 H5107 0.962 . S
C5094 H5108 0.960 . S
C5095 C5092 1.511 . S
C5095 H5109 0.961 . S
C5095 H5110 0.961 . S
C5095 H5111 0.961 . S
C5096 C5097 1.370 . S
C5096 C5098 1.363 . S
C5096 H5112 0.931 . S
C5097 C5096 1.370 . S
C5097 C5101 1.408 . S
C5098 C5096 1.363 . S
C5098 C5099 1.370 . S
C5098 C5102 1.524 . S
C5099 C5091 1.503 . S
C5099 C5098 1.370 . S
C5099 C5100 1.403 . S
C5100 C5099 1.403 . S
C5100 C5101 1.404 . S
C5100 C5103 1.539 . S
C5101 C5097 1.408 . S
C5101 C5100 1.404 . S
C5101 H5113 0.930 . S
C5102 C5098 1.524 . S
C5102 H5114 0.956 . S
C5102 H5115 0.961 . S
C5102 H5116 0.961 . S
C5103 C5100 1.539 . S
C5103 H5117 0.958 . S
C5103 H5118 0.961 . S
C5103 H5119 0.960 . S
H5104 C5088 0.931 . S
H5105 C5093 0.929 . S
H5106 C5094 0.960 . S
H5107 C5094 0.962 . S
H5108 C5094 0.960 . S
H5109 C5095 0.961 . S
H5110 C5095 0.961 . S
H5111 C5095 0.961 . S
H5112 C5096 0.931 . S
H5113 C5101 0.930 . S
H5114 C5102 0.956 . S
H5115 C5102 0.961 . S
H5116 C5102 0.961 . S
H5117 C5103 0.958 . S
H5118 C5103 0.961 . S
H5119 C5103 0.960 . S
C5120 C5121 1.391 . S
C5120 C5122 1.394 . S
C5120 H5136 0.931 . S
C5121 C5120 1.391 . S
C5121 C5125 1.376 . S
C5122 C5120 1.394 . S
C5122 C5123 1.369 . S
C5122 C5126 1.531 . S
C5123 C5122 1.369 . S
C5123 C5124 1.410 . S
C5123 C5131 1.503 . S
C5124 C5123 1.410 . S
C5124 C5125 1.392 . S
C5124 C5127 1.511 . S
C5125 C5121 1.376 . S
C5125 C5124 1.392 . S
C5125 H5137 0.929 . S
C5126 C5122 1.531 . S
C5126 H5138 0.960 . S
C5126 H5139 0.962 . S
C5126 H5140 0.960 . S
C5127 C5124 1.511 . S
C5127 H5141 0.961 . S
C5127 H5142 0.961 . S
C5127 H5143 0.961 . S
C5128 C5129 1.370 . S
C5128 C5130 1.363 . S
C5128 H5144 0.931 . S
C5129 C5128 1.370 . S
C5129 C5133 1.408 . S
C5130 C5128 1.363 . S
C5130 C5131 1.370 . S
C5130 C5134 1.524 . S
C5131 C5123 1.503 . S
C5131 C5130 1.370 . S
C5131 C5132 1.403 . S
C5132 C5131 1.403 . S
C5132 C5133 1.404 . S
C5132 C5135 1.539 . S
C5133 C5129 1.408 . S
C5133 C5132 1.404 . S
C5133 H5145 0.930 . S
C5134 C5130 1.524 . S
C5134 H5146 0.956 . S
C5134 H5147 0.961 . S
C5134 H5148 0.961 . S
C5135 C5132 1.539 . S
C5135 H5149 0.958 . S
C5135 H5150 0.961 . S
C5135 H5151 0.960 . S
H5136 C5120 0.931 . S
H5137 C5125 0.929 . S
H5138 C5126 0.960 . S
H5139 C5126 0.962 . S
H5140 C5126 0.960 . S
H5141 C5127 0.961 . S
H5142 C5127 0.961 . S
H5143 C5127 0.961 . S
H5144 C5128 0.931 . S
H5145 C5133 0.930 . S
H5146 C5134 0.956 . S
H5147 C5134 0.961 . S
H5148 C5134 0.961 . S
H5149 C5135 0.958 . S
H5150 C5135 0.961 . S
H5151 C5135 0.960 . S
C5152 C5153 1.391 . S
C5152 C5154 1.394 . S
C5152 H5168 0.931 . S
C5153 C5152 1.391 . S
C5153 C5157 1.376 . S
C5154 C5152 1.394 . S
C5154 C5155 1.369 . S
C5154 C5158 1.531 . S
C5155 C5154 1.369 . S
C5155 C5156 1.410 . S
C5155 C5163 1.503 . S
C5156 C5155 1.410 . S
C5156 C5157 1.392 . S
C5156 C5159 1.511 . S
C5157 C5153 1.376 . S
C5157 C5156 1.392 . S
C5157 H5169 0.929 . S
C5158 C5154 1.531 . S
C5158 H5170 0.960 . S
C5158 H5171 0.962 . S
C5158 H5172 0.960 . S
C5159 C5156 1.511 . S
C5159 H5173 0.961 . S
C5159 H5174 0.961 . S
C5159 H5175 0.961 . S
C5160 C5161 1.370 . S
C5160 C5162 1.363 . S
C5160 H5176 0.931 . S
C5161 C5160 1.370 . S
C5161 C5165 1.408 . S
C5162 C5160 1.363 . S
C5162 C5163 1.370 . S
C5162 C5166 1.524 . S
C5163 C5155 1.503 . S
C5163 C5162 1.370 . S
C5163 C5164 1.403 . S
C5164 C5163 1.403 . S
C5164 C5165 1.404 . S
C5164 C5167 1.539 . S
C5165 C5161 1.408 . S
C5165 C5164 1.404 . S
C5165 H5177 0.930 . S
C5166 C5162 1.524 . S
C5166 H5178 0.956 . S
C5166 H5179 0.961 . S
C5166 H5180 0.961 . S
C5167 C5164 1.539 . S
C5167 H5181 0.958 . S
C5167 H5182 0.961 . S
C5167 H5183 0.960 . S
H5168 C5152 0.931 . S
H5169 C5157 0.929 . S
H5170 C5158 0.960 . S
H5171 C5158 0.962 . S
H5172 C5158 0.960 . S
H5173 C5159 0.961 . S
H5174 C5159 0.961 . S
H5175 C5159 0.961 . S
H5176 C5160 0.931 . S
H5177 C5165 0.930 . S
H5178 C5166 0.956 . S
H5179 C5166 0.961 . S
H5180 C5166 0.961 . S
H5181 C5167 0.958 . S
H5182 C5167 0.961 . S
H5183 C5167 0.960 . S
C5184 C5185 1.391 . S
C5184 C5186 1.394 . S
C5184 H5200 0.931 . S
C5185 C5184 1.391 . S
C5185 C5189 1.376 . S
C5186 C5184 1.394 . S
C5186 C5187 1.369 . S
C5186 C5190 1.531 . S
C5187 C5186 1.369 . S
C5187 C5188 1.410 . S
C5187 C5195 1.503 . S
C5188 C5187 1.410 . S
C5188 C5189 1.392 . S
C5188 C5191 1.511 . S
C5189 C5185 1.376 . S
C5189 C5188 1.392 . S
C5189 H5201 0.929 . S
C5190 C5186 1.531 . S
C5190 H5202 0.960 . S
C5190 H5203 0.962 . S
C5190 H5204 0.960 . S
C5191 C5188 1.511 . S
C5191 H5205 0.961 . S
C5191 H5206 0.961 . S
C5191 H5207 0.961 . S
C5192 C5193 1.370 . S
C5192 C5194 1.363 . S
C5192 H5208 0.931 . S
C5193 C5192 1.370 . S
C5193 C5197 1.408 . S
C5194 C5192 1.363 . S
C5194 C5195 1.370 . S
C5194 C5198 1.524 . S
C5195 C5187 1.503 . S
C5195 C5194 1.370 . S
C5195 C5196 1.403 . S
C5196 C5195 1.403 . S
C5196 C5197 1.404 . S
C5196 C5199 1.539 . S
C5197 C5193 1.408 . S
C5197 C5196 1.404 . S
C5197 H5209 0.930 . S
C5198 C5194 1.524 . S
C5198 H5210 0.956 . S
C5198 H5211 0.961 . S
C5198 H5212 0.961 . S
C5199 C5196 1.539 . S
C5199 H5213 0.958 . S
C5199 H5214 0.961 . S
C5199 H5215 0.960 . S
H5200 C5184 0.931 . S
H5201 C5189 0.929 . S
H5202 C5190 0.960 . S
H5203 C5190 0.962 . S
H5204 C5190 0.960 . S
H5205 C5191 0.961 . S
H5206 C5191 0.961 . S
H5207 C5191 0.961 . S
H5208 C5192 0.931 . S
H5209 C5197 0.930 . S
H5210 C5198 0.956 . S
H5211 C5198 0.961 . S
H5212 C5198 0.961 . S
H5213 C5199 0.958 . S
H5214 C5199 0.961 . S
H5215 C5199 0.960 . S
C5216 C5217 1.391 . S
C5216 C5218 1.394 . S
C5216 H5232 0.931 . S
C5217 C5216 1.391 . S
C5217 C5221 1.376 . S
C5218 C5216 1.394 . S
C5218 C5219 1.369 . S
C5218 C5222 1.531 . S
C5219 C5218 1.369 . S
C5219 C5220 1.410 . S
C5219 C5227 1.503 . S
C5220 C5219 1.410 . S
C5220 C5221 1.392 . S
C5220 C5223 1.511 . S
C5221 C5217 1.376 . S
C5221 C5220 1.392 . S
C5221 H5233 0.929 . S
C5222 C5218 1.531 . S
C5222 H5234 0.960 . S
C5222 H5235 0.962 . S
C5222 H5236 0.960 . S
C5223 C5220 1.511 . S
C5223 H5237 0.961 . S
C5223 H5238 0.961 . S
C5223 H5239 0.961 . S
C5224 C5225 1.370 . S
C5224 C5226 1.363 . S
C5224 H5240 0.931 . S
C5225 C5224 1.370 . S
C5225 C5229 1.408 . S
C5226 C5224 1.363 . S
C5226 C5227 1.370 . S
C5226 C5230 1.524 . S
C5227 C5219 1.503 . S
C5227 C5226 1.370 . S
C5227 C5228 1.403 . S
C5228 C5227 1.403 . S
C5228 C5229 1.404 . S
C5228 C5231 1.539 . S
C5229 C5225 1.408 . S
C5229 C5228 1.404 . S
C5229 H5241 0.930 . S
C5230 C5226 1.524 . S
C5230 H5242 0.956 . S
C5230 H5243 0.961 . S
C5230 H5244 0.961 . S
C5231 C5228 1.539 . S
C5231 H5245 0.958 . S
C5231 H5246 0.961 . S
C5231 H5247 0.960 . S
H5232 C5216 0.931 . S
H5233 C5221 0.929 . S
H5234 C5222 0.960 . S
H5235 C5222 0.962 . S
H5236 C5222 0.960 . S
H5237 C5223 0.961 . S
H5238 C5223 0.961 . S
H5239 C5223 0.961 . S
H5240 C5224 0.931 . S
H5241 C5229 0.930 . S
H5242 C5230 0.956 . S
H5243 C5230 0.961 . S
H5244 C5230 0.961 . S
H5245 C5231 0.958 . S
H5246 C5231 0.961 . S
H5247 C5231 0.960 . S
C5248 C5249 1.391 . S
C5248 C5250 1.394 . S
C5248 H5264 0.931 . S
C5249 C5248 1.391 . S
C5249 C5253 1.376 . S
C5250 C5248 1.394 . S
C5250 C5251 1.369 . S
C5250 C5254 1.531 . S
C5251 C5250 1.369 . S
C5251 C5252 1.410 . S
C5251 C5259 1.503 . S
C5252 C5251 1.410 . S
C5252 C5253 1.392 . S
C5252 C5255 1.511 . S
C5253 C5249 1.376 . S
C5253 C5252 1.392 . S
C5253 H5265 0.929 . S
C5254 C5250 1.531 . S
C5254 H5266 0.960 . S
C5254 H5267 0.962 . S
C5254 H5268 0.960 . S
C5255 C5252 1.511 . S
C5255 H5269 0.961 . S
C5255 H5270 0.961 . S
C5255 H5271 0.961 . S
C5256 C5257 1.370 . S
C5256 C5258 1.363 . S
C5256 H5272 0.931 . S
C5257 C5256 1.370 . S
C5257 C5261 1.408 . S
C5258 C5256 1.363 . S
C5258 C5259 1.370 . S
C5258 C5262 1.524 . S
C5259 C5251 1.503 . S
C5259 C5258 1.370 . S
C5259 C5260 1.403 . S
C5260 C5259 1.403 . S
C5260 C5261 1.404 . S
C5260 C5263 1.539 . S
C5261 C5257 1.408 . S
C5261 C5260 1.404 . S
C5261 H5273 0.930 . S
C5262 C5258 1.524 . S
C5262 H5274 0.956 . S
C5262 H5275 0.961 . S
C5262 H5276 0.961 . S
C5263 C5260 1.539 . S
C5263 H5277 0.958 . S
C5263 H5278 0.961 . S
C5263 H5279 0.960 . S
H5264 C5248 0.931 . S
H5265 C5253 0.929 . S
H5266 C5254 0.960 . S
H5267 C5254 0.962 . S
H5268 C5254 0.960 . S
H5269 C5255 0.961 . S
H5270 C5255 0.961 . S
H5271 C5255 0.961 . S
H5272 C5256 0.931 . S
H5273 C5261 0.930 . S
H5274 C5262 0.956 . S
H5275 C5262 0.961 . S
H5276 C5262 0.961 . S
H5277 C5263 0.958 . S
H5278 C5263 0.961 . S
H5279 C5263 0.960 . S
C5280 C5281 1.391 . S
C5280 C5282 1.394 . S
C5280 H5296 0.931 . S
C5281 C5280 1.391 . S
C5281 C5285 1.376 . S
C5282 C5280 1.394 . S
C5282 C5283 1.369 . S
C5282 C5286 1.531 . S
C5283 C5282 1.369 . S
C5283 C5284 1.410 . S
C5283 C5291 1.503 . S
C5284 C5283 1.410 . S
C5284 C5285 1.392 . S
C5284 C5287 1.511 . S
C5285 C5281 1.376 . S
C5285 C5284 1.392 . S
C5285 H5297 0.929 . S
C5286 C5282 1.531 . S
C5286 H5298 0.960 . S
C5286 H5299 0.962 . S
C5286 H5300 0.960 . S
C5287 C5284 1.511 . S
C5287 H5301 0.961 . S
C5287 H5302 0.961 . S
C5287 H5303 0.961 . S
C5288 C5289 1.370 . S
C5288 C5290 1.363 . S
C5288 H5304 0.931 . S
C5289 C5288 1.370 . S
C5289 C5293 1.408 . S
C5290 C5288 1.363 . S
C5290 C5291 1.370 . S
C5290 C5294 1.524 . S
C5291 C5283 1.503 . S
C5291 C5290 1.370 . S
C5291 C5292 1.403 . S
C5292 C5291 1.403 . S
C5292 C5293 1.404 . S
C5292 C5295 1.539 . S
C5293 C5289 1.408 . S
C5293 C5292 1.404 . S
C5293 H5305 0.930 . S
C5294 C5290 1.524 . S
C5294 H5306 0.956 . S
C5294 H5307 0.961 . S
C5294 H5308 0.961 . S
C5295 C5292 1.539 . S
C5295 H5309 0.958 . S
C5295 H5310 0.961 . S
C5295 H5311 0.960 . S
H5296 C5280 0.931 . S
H5297 C5285 0.929 . S
H5298 C5286 0.960 . S
H5299 C5286 0.962 . S
H5300 C5286 0.960 . S
H5301 C5287 0.961 . S
H5302 C5287 0.961 . S
H5303 C5287 0.961 . S
H5304 C5288 0.931 . S
H5305 C5293 0.930 . S
H5306 C5294 0.956 . S
H5307 C5294 0.961 . S
H5308 C5294 0.961 . S
H5309 C5295 0.958 . S
H5310 C5295 0.961 . S
H5311 C5295 0.960 . S
C5312 C5313 1.391 . S
C5312 C5314 1.394 . S
C5312 H5328 0.931 . S
C5313 C5312 1.391 . S
C5313 C5317 1.376 . S
C5314 C5312 1.394 . S
C5314 C5315 1.369 . S
C5314 C5318 1.531 . S
C5315 C5314 1.369 . S
C5315 C5316 1.410 . S
C5315 C5323 1.503 . S
C5316 C5315 1.410 . S
C5316 C5317 1.392 . S
C5316 C5319 1.511 . S
C5317 C5313 1.376 . S
C5317 C5316 1.392 . S
C5317 H5329 0.929 . S
C5318 C5314 1.531 . S
C5318 H5330 0.960 . S
C5318 H5331 0.962 . S
C5318 H5332 0.960 . S
C5319 C5316 1.511 . S
C5319 H5333 0.961 . S
C5319 H5334 0.961 . S
C5319 H5335 0.961 . S
C5320 C5321 1.370 . S
C5320 C5322 1.363 . S
C5320 H5336 0.931 . S
C5321 C5320 1.370 . S
C5321 C5325 1.408 . S
C5322 C5320 1.363 . S
C5322 C5323 1.370 . S
C5322 C5326 1.524 . S
C5323 C5315 1.503 . S
C5323 C5322 1.370 . S
C5323 C5324 1.403 . S
C5324 C5323 1.403 . S
C5324 C5325 1.404 . S
C5324 C5327 1.539 . S
C5325 C5321 1.408 . S
C5325 C5324 1.404 . S
C5325 H5337 0.930 . S
C5326 C5322 1.524 . S
C5326 H5338 0.956 . S
C5326 H5339 0.961 . S
C5326 H5340 0.961 . S
C5327 C5324 1.539 . S
C5327 H5341 0.958 . S
C5327 H5342 0.961 . S
C5327 H5343 0.960 . S
H5328 C5312 0.931 . S
H5329 C5317 0.929 . S
H5330 C5318 0.960 . S
H5331 C5318 0.962 . S
H5332 C5318 0.960 . S
H5333 C5319 0.961 . S
H5334 C5319 0.961 . S
H5335 C5319 0.961 . S
H5336 C5320 0.931 . S
H5337 C5325 0.930 . S
H5338 C5326 0.956 . S
H5339 C5326 0.961 . S
H5340 C5326 0.961 . S
H5341 C5327 0.958 . S
H5342 C5327 0.961 . S
H5343 C5327 0.960 . S
C5344 C5345 1.391 . S
C5344 C5346 1.394 . S
C5344 H5360 0.931 . S
C5345 C5344 1.391 . S
C5345 C5349 1.376 . S
C5346 C5344 1.394 . S
C5346 C5347 1.369 . S
C5346 C5350 1.531 . S
C5347 C5346 1.369 . S
C5347 C5348 1.410 . S
C5347 C5355 1.503 . S
C5348 C5347 1.410 . S
C5348 C5349 1.392 . S
C5348 C5351 1.511 . S
C5349 C5345 1.376 . S
C5349 C5348 1.392 . S
C5349 H5361 0.929 . S
C5350 C5346 1.531 . S
C5350 H5362 0.960 . S
C5350 H5363 0.962 . S
C5350 H5364 0.960 . S
C5351 C5348 1.511 . S
C5351 H5365 0.961 . S
C5351 H5366 0.961 . S
C5351 H5367 0.961 . S
C5352 C5353 1.370 . S
C5352 C5354 1.363 . S
C5352 H5368 0.931 . S
C5353 C5352 1.370 . S
C5353 C5357 1.408 . S
C5354 C5352 1.363 . S
C5354 C5355 1.370 . S
C5354 C5358 1.524 . S
C5355 C5347 1.503 . S
C5355 C5354 1.370 . S
C5355 C5356 1.403 . S
C5356 C5355 1.403 . S
C5356 C5357 1.404 . S
C5356 C5359 1.539 . S
C5357 C5353 1.408 . S
C5357 C5356 1.404 . S
C5357 H5369 0.930 . S
C5358 C5354 1.524 . S
C5358 H5370 0.956 . S
C5358 H5371 0.961 . S
C5358 H5372 0.961 . S
C5359 C5356 1.539 . S
C5359 H5373 0.958 . S
C5359 H5374 0.961 . S
C5359 H5375 0.960 . S
H5360 C5344 0.931 . S
H5361 C5349 0.929 . S
H5362 C5350 0.960 . S
H5363 C5350 0.962 . S
H5364 C5350 0.960 . S
H5365 C5351 0.961 . S
H5366 C5351 0.961 . S
H5367 C5351 0.961 . S
H5368 C5352 0.931 . S
H5369 C5357 0.930 . S
H5370 C5358 0.956 . S
H5371 C5358 0.961 . S
H5372 C5358 0.961 . S
H5373 C5359 0.958 . S
H5374 C5359 0.961 . S
H5375 C5359 0.960 . S
C5376 C5377 1.391 . S
C5376 C5378 1.394 . S
C5376 H5392 0.931 . S
C5377 C5376 1.391 . S
C5377 C5381 1.376 . S
C5378 C5376 1.394 . S
C5378 C5379 1.369 . S
C5378 C5382 1.531 . S
C5379 C5378 1.369 . S
C5379 C5380 1.410 . S
C5379 C5387 1.503 . S
C5380 C5379 1.410 . S
C5380 C5381 1.392 . S
C5380 C5383 1.511 . S
C5381 C5377 1.376 . S
C5381 C5380 1.392 . S
C5381 H5393 0.929 . S
C5382 C5378 1.531 . S
C5382 H5394 0.960 . S
C5382 H5395 0.962 . S
C5382 H5396 0.960 . S
C5383 C5380 1.511 . S
C5383 H5397 0.961 . S
C5383 H5398 0.961 . S
C5383 H5399 0.961 . S
C5384 C5385 1.370 . S
C5384 C5386 1.363 . S
C5384 H5400 0.931 . S
C5385 C5384 1.370 . S
C5385 C5389 1.408 . S
C5386 C5384 1.363 . S
C5386 C5387 1.370 . S
C5386 C5390 1.524 . S
C5387 C5379 1.503 . S
C5387 C5386 1.370 . S
C5387 C5388 1.403 . S
C5388 C5387 1.403 . S
C5388 C5389 1.404 . S
C5388 C5391 1.539 . S
C5389 C5385 1.408 . S
C5389 C5388 1.404 . S
C5389 H5401 0.930 . S
C5390 C5386 1.524 . S
C5390 H5402 0.956 . S
C5390 H5403 0.961 . S
C5390 H5404 0.961 . S
C5391 C5388 1.539 . S
C5391 H5405 0.958 . S
C5391 H5406 0.961 . S
C5391 H5407 0.960 . S
H5392 C5376 0.931 . S
H5393 C5381 0.929 . S
H5394 C5382 0.960 . S
H5395 C5382 0.962 . S
H5396 C5382 0.960 . S
H5397 C5383 0.961 . S
H5398 C5383 0.961 . S
H5399 C5383 0.961 . S
H5400 C5384 0.931 . S
H5401 C5389 0.930 . S
H5402 C5390 0.956 . S
H5403 C5390 0.961 . S
H5404 C5390 0.961 . S
H5405 C5391 0.958 . S
H5406 C5391 0.961 . S
H5407 C5391 0.960 . S
C5408 C5409 1.391 . S
C5408 C5410 1.394 . S
C5408 H5424 0.931 . S
C5409 C5408 1.391 . S
C5409 C5413 1.376 . S
C5410 C5408 1.394 . S
C5410 C5411 1.369 . S
C5410 C5414 1.531 . S
C5411 C5410 1.369 . S
C5411 C5412 1.410 . S
C5411 C5419 1.503 . S
C5412 C5411 1.410 . S
C5412 C5413 1.392 . S
C5412 C5415 1.511 . S
C5413 C5409 1.376 . S
C5413 C5412 1.392 . S
C5413 H5425 0.929 . S
C5414 C5410 1.531 . S
C5414 H5426 0.960 . S
C5414 H5427 0.962 . S
C5414 H5428 0.960 . S
C5415 C5412 1.511 . S
C5415 H5429 0.961 . S
C5415 H5430 0.961 . S
C5415 H5431 0.961 . S
C5416 C5417 1.370 . S
C5416 C5418 1.363 . S
C5416 H5432 0.931 . S
C5417 C5416 1.370 . S
C5417 C5421 1.408 . S
C5418 C5416 1.363 . S
C5418 C5419 1.370 . S
C5418 C5422 1.524 . S
C5419 C5411 1.503 . S
C5419 C5418 1.370 . S
C5419 C5420 1.403 . S
C5420 C5419 1.403 . S
C5420 C5421 1.404 . S
C5420 C5423 1.539 . S
C5421 C5417 1.408 . S
C5421 C5420 1.404 . S
C5421 H5433 0.930 . S
C5422 C5418 1.524 . S
C5422 H5434 0.956 . S
C5422 H5435 0.961 . S
C5422 H5436 0.961 . S
C5423 C5420 1.539 . S
C5423 H5437 0.958 . S
C5423 H5438 0.961 . S
C5423 H5439 0.960 . S
H5424 C5408 0.931 . S
H5425 C5413 0.929 . S
H5426 C5414 0.960 . S
H5427 C5414 0.962 . S
H5428 C5414 0.960 . S
H5429 C5415 0.961 . S
H5430 C5415 0.961 . S
H5431 C5415 0.961 . S
H5432 C5416 0.931 . S
H5433 C5421 0.930 . S
H5434 C5422 0.956 . S
H5435 C5422 0.961 . S
H5436 C5422 0.961 . S
H5437 C5423 0.958 . S
H5438 C5423 0.961 . S
H5439 C5423 0.960 . S
C5440 C5441 1.391 . S
C5440 C5442 1.394 . S
C5440 H5456 0.931 . S
C5441 C5440 1.391 . S
C5441 C5445 1.376 . S
C5442 C5440 1.394 . S
C5442 C5443 1.369 . S
C5442 C5446 1.531 . S
C5443 C5442 1.369 . S
C5443 C5444 1.410 . S
C5443 C5451 1.503 . S
C5444 C5443 1.410 . S
C5444 C5445 1.392 . S
C5444 C5447 1.511 . S
C5445 C5441 1.376 . S
C5445 C5444 1.392 . S
C5445 H5457 0.929 . S
C5446 C5442 1.531 . S
C5446 H5458 0.960 . S
C5446 H5459 0.962 . S
C5446 H5460 0.960 . S
C5447 C5444 1.511 . S
C5447 H5461 0.961 . S
C5447 H5462 0.961 . S
C5447 H5463 0.961 . S
C5448 C5449 1.370 . S
C5448 C5450 1.363 . S
C5448 H5464 0.931 . S
C5449 C5448 1.370 . S
C5449 C5453 1.408 . S
C5450 C5448 1.363 . S
C5450 C5451 1.370 . S
C5450 C5454 1.524 . S
C5451 C5443 1.503 . S
C5451 C5450 1.370 . S
C5451 C5452 1.403 . S
C5452 C5451 1.403 . S
C5452 C5453 1.404 . S
C5452 C5455 1.539 . S
C5453 C5449 1.408 . S
C5453 C5452 1.404 . S
C5453 H5465 0.930 . S
C5454 C5450 1.524 . S
C5454 H5466 0.956 . S
C5454 H5467 0.961 . S
C5454 H5468 0.961 . S
C5455 C5452 1.539 . S
C5455 H5469 0.958 . S
C5455 H5470 0.961 . S
C5455 H5471 0.960 . S
H5456 C5440 0.931 . S
H5457 C5445 0.929 . S
H5458 C5446 0.960 . S
H5459 C5446 0.962 . S
H5460 C5446 0.960 . S
H5461 C5447 0.961 . S
H5462 C5447 0.961 . S
H5463 C5447 0.961 . S
H5464 C5448 0.931 . S
H5465 C5453 0.930 . S
H5466 C5454 0.956 . S
H5467 C5454 0.961 . S
H5468 C5454 0.961 . S
H5469 C5455 0.958 . S
H5470 C5455 0.961 . S
H5471 C5455 0.960 . S
C5472 C5473 1.391 . S
C5472 C5474 1.394 . S
C5472 H5488 0.931 . S
C5473 C5472 1.391 . S
C5473 C5477 1.376 . S
C5474 C5472 1.394 . S
C5474 C5475 1.369 . S
C5474 C5478 1.531 . S
C5475 C5474 1.369 . S
C5475 C5476 1.410 . S
C5475 C5483 1.503 . S
C5476 C5475 1.410 . S
C5476 C5477 1.392 . S
C5476 C5479 1.511 . S
C5477 C5473 1.376 . S
C5477 C5476 1.392 . S
C5477 H5489 0.929 . S
C5478 C5474 1.531 . S
C5478 H5490 0.960 . S
C5478 H5491 0.962 . S
C5478 H5492 0.960 . S
C5479 C5476 1.511 . S
C5479 H5493 0.961 . S
C5479 H5494 0.961 . S
C5479 H5495 0.961 . S
C5480 C5481 1.370 . S
C5480 C5482 1.363 . S
C5480 H5496 0.931 . S
C5481 C5480 1.370 . S
C5481 C5485 1.408 . S
C5482 C5480 1.363 . S
C5482 C5483 1.370 . S
C5482 C5486 1.524 . S
C5483 C5475 1.503 . S
C5483 C5482 1.370 . S
C5483 C5484 1.403 . S
C5484 C5483 1.403 . S
C5484 C5485 1.404 . S
C5484 C5487 1.539 . S
C5485 C5481 1.408 . S
C5485 C5484 1.404 . S
C5485 H5497 0.930 . S
C5486 C5482 1.524 . S
C5486 H5498 0.956 . S
C5486 H5499 0.961 . S
C5486 H5500 0.961 . S
C5487 C5484 1.539 . S
C5487 H5501 0.958 . S
C5487 H5502 0.961 . S
C5487 H5503 0.960 . S
H5488 C5472 0.931 . S
H5489 C5477 0.929 . S
H5490 C5478 0.960 . S
H5491 C5478 0.962 . S
H5492 C5478 0.960 . S
H5493 C5479 0.961 . S
H5494 C5479 0.961 . S
H5495 C5479 0.961 . S
H5496 C5480 0.931 . S
H5497 C5485 0.930 . S
H5498 C5486 0.956 . S
H5499 C5486 0.961 . S
H5500 C5486 0.961 . S
H5501 C5487 0.958 . S
H5502 C5487 0.961 . S
H5503 C5487 0.960 . S
C5504 C5505 1.391 . S
C5504 C5506 1.394 . S
C5504 H5520 0.931 . S
C5505 C5504 1.391 . S
C5505 C5509 1.376 . S
C5506 C5504 1.394 . S
C5506 C5507 1.369 . S
C5506 C5510 1.531 . S
C5507 C5506 1.369 . S
C5507 C5508 1.410 . S
C5507 C5515 1.503 . S
C5508 C5507 1.410 . S
C5508 C5509 1.392 . S
C5508 C5511 1.511 . S
C5509 C5505 1.376 . S
C5509 C5508 1.392 . S
C5509 H5521 0.929 . S
C5510 C5506 1.531 . S
C5510 H5522 0.960 . S
C5510 H5523 0.962 . S
C5510 H5524 0.960 . S
C5511 C5508 1.511 . S
C5511 H5525 0.961 . S
C5511 H5526 0.961 . S
C5511 H5527 0.961 . S
C5512 C5513 1.370 . S
C5512 C5514 1.363 . S
C5512 H5528 0.931 . S
C5513 C5512 1.370 . S
C5513 C5517 1.408 . S
C5514 C5512 1.363 . S
C5514 C5515 1.370 . S
C5514 C5518 1.524 . S
C5515 C5507 1.503 . S
C5515 C5514 1.370 . S
C5515 C5516 1.403 . S
C5516 C5515 1.403 . S
C5516 C5517 1.404 . S
C5516 C5519 1.539 . S
C5517 C5513 1.408 . S
C5517 C5516 1.404 . S
C5517 H5529 0.930 . S
C5518 C5514 1.524 . S
C5518 H5530 0.956 . S
C5518 H5531 0.961 . S
C5518 H5532 0.961 . S
C5519 C5516 1.539 . S
C5519 H5533 0.958 . S
C5519 H5534 0.961 . S
C5519 H5535 0.960 . S
H5520 C5504 0.931 . S
H5521 C5509 0.929 . S
H5522 C5510 0.960 . S
H5523 C5510 0.962 . S
H5524 C5510 0.960 . S
H5525 C5511 0.961 . S
H5526 C5511 0.961 . S
H5527 C5511 0.961 . S
H5528 C5512 0.931 . S
H5529 C5517 0.930 . S
H5530 C5518 0.956 . S
H5531 C5518 0.961 . S
H5532 C5518 0.961 . S
H5533 C5519 0.958 . S
H5534 C5519 0.961 . S
H5535 C5519 0.960 . S
C5536 C5537 1.391 . S
C5536 C5538 1.394 . S
C5536 H5552 0.931 . S
C5537 C5536 1.391 . S
C5537 C5541 1.376 . S
C5538 C5536 1.394 . S
C5538 C5539 1.369 . S
C5538 C5542 1.531 . S
C5539 C5538 1.369 . S
C5539 C5540 1.410 . S
C5539 C5547 1.503 . S
C5540 C5539 1.410 . S
C5540 C5541 1.392 . S
C5540 C5543 1.511 . S
C5541 C5537 1.376 . S
C5541 C5540 1.392 . S
C5541 H5553 0.929 . S
C5542 C5538 1.531 . S
C5542 H5554 0.960 . S
C5542 H5555 0.962 . S
C5542 H5556 0.960 . S
C5543 C5540 1.511 . S
C5543 H5557 0.961 . S
C5543 H5558 0.961 . S
C5543 H5559 0.961 . S
C5544 C5545 1.370 . S
C5544 C5546 1.363 . S
C5544 H5560 0.931 . S
C5545 C5544 1.370 . S
C5545 C5549 1.408 . S
C5546 C5544 1.363 . S
C5546 C5547 1.370 . S
C5546 C5550 1.524 . S
C5547 C5539 1.503 . S
C5547 C5546 1.370 . S
C5547 C5548 1.403 . S
C5548 C5547 1.403 . S
C5548 C5549 1.404 . S
C5548 C5551 1.539 . S
C5549 C5545 1.408 . S
C5549 C5548 1.404 . S
C5549 H5561 0.930 . S
C5550 C5546 1.524 . S
C5550 H5562 0.956 . S
C5550 H5563 0.961 . S
C5550 H5564 0.961 . S
C5551 C5548 1.539 . S
C5551 H5565 0.958 . S
C5551 H5566 0.961 . S
C5551 H5567 0.960 . S
H5552 C5536 0.931 . S
H5553 C5541 0.929 . S
H5554 C5542 0.960 . S
H5555 C5542 0.962 . S
H5556 C5542 0.960 . S
H5557 C5543 0.961 . S
H5558 C5543 0.961 . S
H5559 C5543 0.961 . S
H5560 C5544 0.931 . S
H5561 C5549 0.930 . S
H5562 C5550 0.956 . S
H5563 C5550 0.961 . S
H5564 C5550 0.961 . S
H5565 C5551 0.958 . S
H5566 C5551 0.961 . S
H5567 C5551 0.960 . S
C961 C129 2.271 . S
C969 C9 2.277 . S
C993 C141 2.263 . S
C1001 C21 2.265 . S
C1025 C89 2.274 . S
C1033 C49 2.271 . S
C1057 C109 2.286 . S
C1065 C69 2.293 . S
C1089 C209 2.308 . S
C1097 C169 2.317 . S
C1121 C229 2.235 . S
C1129 C189 2.236 . S
C1153 C289 2.237 . S
C1161 C249 2.233 . S
C1185 C309 2.316 . S
C1193 C269 2.313 . S
C1217 C349 2.271 . S
C1225 C329 2.271 . S
C1249 C469 2.279 . S
C1257 C369 2.292 . S
C1281 C421 2.279 . S
C1289 C389 2.272 . S
C1313 C401 2.281 . S
C1321 C449 2.277 . S
C1345 C489 2.278 . S
C1353 C609 2.271 . S
C1377 C501 2.257 . S
C1385 C621 2.268 . S
C1409 C529 2.270 . S
C1417 C569 2.273 . S
C1441 C549 2.297 . S
C1449 C589 2.290 . S
C1473 C649 2.310 . S
C1481 C689 2.315 . S
C1505 C669 2.234 . S
C1513 C709 2.237 . S
C1537 C729 2.230 . S
C1545 C769 2.240 . S
C1569 C789 2.311 . S
C1577 C749 2.317 . S
C1601 C809 2.272 . S
C1609 C829 2.272 . S
C1633 C949 2.286 . S
C1641 C849 2.287 . S
C1665 C869 2.257 . S
C1673 C901 2.283 . S
C1697 C881 2.282 . S
C1705 C929 2.279 . S
C1729 C1 2.597 . S
C1737 C181 2.577 . S
C1761 C29 2.709 . S
C1769 C201 2.735 . S
C1793 C41 2.441 . S
C1801 C221 2.457 . S
C1825 C161 2.453 . S
C1833 C61 2.446 . S
C1857 C301 2.653 . S
C1865 C81 2.649 . S
C1889 C241 2.650 . S
C1897 C101 2.692 . S
C1921 C261 2.558 . S
C1929 C121 2.531 1_655 S
C1953 C149 2.355 . S
C1961 C281 2.366 . S
C1985 C361 2.590 . S
C1993 C321 2.580 . S
C2017 C441 2.592 . S
C2025 C341 2.583 . S
C2049 C381 2.571 . S
C2057 C461 2.571 . S
C2081 C429 2.584 . S
C2089 C409 2.574 . S
C2113 C481 2.634 . S
C2121 C661 2.596 . S
C2145 C681 2.719 . S
C2153 C509 2.718 . S
C2177 C701 2.464 . S
C2185 C521 2.473 . S
C2209 C541 2.448 . S
C2217 C641 2.472 . S
C2241 C781 2.623 . S
C2249 C561 2.632 . S
C2273 C581 2.704 . S
C2281 C721 2.685 . S
C2305 C601 2.538 . S
C2313 C741 2.569 . S
C2337 C629 2.393 . S
C2345 C761 2.383 . S
C2369 C801 2.544 . S
C2377 C841 2.566 . S
C2401 C921 2.595 . S
C2409 C821 2.582 . S
C2433 C941 2.549 . S
C2441 C861 2.569 . S
C2465 C889 2.595 . S
C2473 C909 2.592 . S
C2497 C19 0.897 . S
C2505 C66 0.859 . S
C2529 C6 0.488 . S
C2537 C36 0.588 . S
C2561 C59 1.136 . S
C2569 C28 1.168 . S
C2593 C79 0.760 . S
C2601 C46 0.784 . S
C2625 C106 0.926 . S
C2633 C99 0.871 . S
C2657 C126 0.812 . S
C2665 C119 0.863 . S
C2689 C139 1.031 . S
C2697 C148 1.138 . S
C2721 C86 0.664 . S
C2729 C156 0.603 . S
C2753 C179 0.833 . S
C2761 C366 0.864 . S
C2785 C199 0.929 . S
C2793 C386 0.946 . S
C2817 C219 0.939 . S
C2825 C408 1.007 . S
C2849 C239 0.765 . S
C2857 C346 0.771 . S
C2881 C259 0.818 . S
C2889 C446 0.902 . S
C2913 C326 0.930 . S
C2921 C279 0.907 . S
C2945 C466 0.735 . S
C2953 C299 0.682 . S
C2977 C319 1.203 . S
C2985 C428 1.204 . S
C3009 C339 0.800 . S
C3017 C186 0.738 . S
C3041 C359 0.806 . S
C3049 C306 0.844 . S
C3073 C379 0.753 . S
C3081 C246 0.738 . S
C3105 C266 0.788 . S
C3113 C399 0.753 . S
C3137 C286 0.703 . S
C3145 C416 0.664 . S
C3169 C226 0.631 . S
C3177 C436 0.592 . S
C3201 C166 0.731 . S
C3209 C459 0.741 . S
C3233 C479 0.919 . S
C3241 C206 0.983 . S
C3265 C499 0.863 . S
C3273 C546 0.849 . S
C3297 C516 0.732 . S
C3305 C486 0.615 . S
C3329 C508 1.148 . S
C3337 C539 1.171 . S
C3361 C526 0.857 . S
C3369 C559 0.806 . S
C3393 C579 0.788 . S
C3401 C586 0.842 . S
C3425 C606 0.837 . S
C3433 C599 0.868 . S
C3457 C628 1.188 . S
C3465 C619 1.105 . S
C3489 C636 0.617 . S
C3497 C566 0.575 . S
C3521 C659 0.769 . S
C3529 C846 0.851 . S
C3553 C866 0.986 . S
C3561 C679 0.948 . S
C3585 C888 1.060 . S
C3593 C699 1.024 . S
C3617 C719 0.835 . S
C3625 C826 0.799 . S
C3649 C926 0.995 . S
C3657 C739 0.929 . S
C3681 C759 0.949 . S
C3689 C806 0.944 . S
C3713 C779 0.548 . S
C3721 C946 0.609 . S
C3745 C799 1.218 . S
C3753 C908 1.210 . S
C3777 C666 0.628 . S
C3785 C819 0.683 . S
C3809 C786 0.763 . S
C3817 C839 0.806 . S
C3841 C726 0.811 . S
C3849 C859 0.771 . S
C3873 C879 0.777 . S
C3881 C746 0.730 . S
C3905 C766 0.517 . S
C3913 C896 0.583 . S
C3937 C916 0.444 . S
C3945 C706 0.483 . S
C3969 C939 0.821 . S
C3977 C646 0.746 . S
C4001 C686 0.943 . S
C4009 C959 0.971 . S
C4033 C16 1.021 . S
C4041 C899 0.977 . S
C4065 C836 1.227 . S
C4073 C39 1.243 . S
C4097 C56 0.630 . S
C4105 C856 0.728 . S
C4129 C76 0.929 . S
C4137 C876 0.881 . S
C4161 C96 0.691 . S
C4169 C956 0.617 . S
C4193 C116 1.169 . S
C4201 C919 1.105 . S
C4225 C136 0.833 . S
C4233 C936 0.922 . S
C4257 C159 1.275 . S
C4265 C816 1.306 . S
C4289 C176 0.643 . S
C4297 C796 0.733 . S
C4321 C196 0.584 . S
C4329 C736 0.714 . S
C4353 C216 0.661 . S
C4361 C756 0.718 . S
C4385 C236 0.496 . S
C4393 C776 0.634 . S
C4417 C256 0.644 . S
C4425 C676 0.673 . S
C4449 C276 0.628 . S
C4457 C696 0.738 . S
C4481 C296 0.695 . S
C4489 C716 0.548 . S
C4513 C316 0.807 . S
C4521 C656 0.700 . S
C4545 C336 1.332 . S
C4553 C639 1.251 . S
C4577 C356 1.247 . S
C4585 C519 1.208 . S
C4609 C376 0.764 . S
C4617 C536 0.723 . S
C4641 C396 0.882 . S
C4649 C556 0.900 . S
C4673 C419 0.902 . S
C4681 C496 0.975 . S
C4705 C439 1.121 . S
C4713 C596 1.134 . S
C4737 C456 0.828 . S
C4745 C616 0.909 . S
C4769 C476 0.527 . S
C4777 C576 0.627 . S
C4801 C88 1.674 . S
C4809 C848 1.676 . S
C4833 C108 1.460 . S
C4841 C868 1.445 . S
C4865 C128 1.268 . S
C4873 C886 1.291 . S
C4897 C146 1.055 . S
C4905 C828 0.960 . S
C4929 C8 1.390 . S
C4937 C928 1.449 . S
C4961 C26 1.026 . S
C4969 C808 0.990 . S
C4993 C48 1.871 . S
C5001 C948 1.878 . S
C5025 C906 1.056 . S
C5033 C68 1.089 . S
C5057 C288 1.688 . S
C5065 C668 1.676 . S
C5089 C308 1.965 . S
C5097 C688 1.939 . S
C5121 C248 1.652 . S
C5129 C708 1.652 . S
C5153 C268 1.810 . S
C5161 C648 1.815 . S
C5185 C208 1.960 . S
C5193 C788 1.941 . S
C5217 C228 1.666 . S
C5225 C728 1.693 . S
C5249 C168 1.774 . S
C5257 C748 1.804 . S
C5281 C188 1.703 . S
C5289 C768 1.654 . S
C5313 C426 1.129 . S
C5321 C548 1.090 . S
C5345 C388 1.404 . S
C5353 C588 1.419 . S
C5377 C406 1.297 . S
C5385 C608 1.263 . S
C5409 C348 0.912 . S
C5417 C626 1.022 . S
C5441 C368 1.713 . S
C5449 C568 1.679 . S
C5473 C328 1.040 . S
C5481 C506 0.984 . S
C5505 C468 1.880 . S
C5513 C528 1.878 . S
C5537 C448 1.468 . S
C5545 C488 1.413 . S
