# Generated by pormake.
# Topology upa, (4)-cn, num edge types: 1
# Building blocks:
#     Node 0, Type 0, BuildingBlock: AZAVOO_clean_sbu_0, # of connection points: 4
#     Node 1, Type 0, BuildingBlock: AZAVOO_clean_sbu_0, # of connection points: 4
#     Node 2, Type 0, BuildingBlock: AZAVOO_clean_sbu_0, # of connection points: 4
#     Node 3, Type 0, BuildingBlock: AZAVOO_clean_sbu_0, # of connection points: 4
#     Node 4, Type 0, BuildingBlock: AZAVOO_clean_sbu_0, # of connection points: 4
#     Node 5, Type 0, BuildingBlock: AZAVOO_clean_sbu_0, # of connection points: 4
#     Node 6, Type 0, BuildingBlock: AZAVOO_clean_sbu_0, # of connection points: 4
#     Node 7, Type 0, BuildingBlock: AZAVOO_clean_sbu_0, # of connection points: 4
#     Edge 8, Type (0, 0), BuildingBlock: KIFKEQ_clean_linker_1, # of connection points: 2
#     Edge 9, Type (0, 0), BuildingBlock: KIFKEQ_clean_linker_1, # of connection points: 2
#     Edge 10, Type (0, 0), BuildingBlock: KIFKEQ_clean_linker_1, # of connection points: 2
#     Edge 11, Type (0, 0), BuildingBlock: KIFKEQ_clean_linker_1, # of connection points: 2
#     Edge 12, Type (0, 0), BuildingBlock: KIFKEQ_clean_linker_1, # of connection points: 2
#     Edge 13, Type (0, 0), BuildingBlock: KIFKEQ_clean_linker_1, # of connection points: 2
#     Edge 14, Type (0, 0), BuildingBlock: KIFKEQ_clean_linker_1, # of connection points: 2
#     Edge 15, Type (0, 0), BuildingBlock: KIFKEQ_clean_linker_1, # of connection points: 2
#     Edge 16, Type (0, 0), BuildingBlock: KIFKEQ_clean_linker_1, # of connection points: 2
#     Edge 17, Type (0, 0), BuildingBlock: KIFKEQ_clean_linker_1, # of connection points: 2
#     Edge 18, Type (0, 0), BuildingBlock: KIFKEQ_clean_linker_1, # of connection points: 2
#     Edge 19, Type (0, 0), BuildingBlock: KIFKEQ_clean_linker_1, # of connection points: 2
#     Edge 20, Type (0, 0), BuildingBlock: KIFKEQ_clean_linker_1, # of connection points: 2
#     Edge 21, Type (0, 0), BuildingBlock: KIFKEQ_clean_linker_1, # of connection points: 2
#     Edge 22, Type (0, 0), BuildingBlock: KIFKEQ_clean_linker_1, # of connection points: 2
#     Edge 23, Type (0, 0), BuildingBlock: KIFKEQ_clean_linker_1, # of connection points: 2
# Relax obj value: 0.204
# Max RMSD: 0.199
# Mean RMSD: 0.199
data_MOF--net-upa--node1-AZAVOO_clean_sbu_0--edge1-KIFKEQ_clean_linker_1
_symmetry_space_group_name_H-M    P1
_symmetry_Int_Tables_number       1
_symmetry_cell_setting            triclinic
loop_
_symmetry_equiv_pos_as_xyz
'x, y, z'
_cell_length_a     27.552708
_cell_length_b     27.512673
_cell_length_c     44.018294
_cell_angle_alpha  90.143623
_cell_angle_beta   89.950789
_cell_angle_gamma 90.164785
loop_
_atom_site_label
_atom_site_type_symbol
_atom_site_fract_x
_atom_site_fract_y
_atom_site_fract_z
_atom_type_partial_charge
Mg0 Mg 0.15732 0.24645 0.31989 0.0
O1 O 0.12009 0.17234 0.32193 0.0
O2 O 0.1698 0.11707 0.34204 0.0
Mg3 Mg 0.23922 0.15753 0.35529 0.0
C4 C 0.12926 0.12904 0.33032 0.0
C5 C 0.06493 0.30057 0.30016 0.0
O6 O 0.07592 0.3235 0.32545 0.0
O7 O 0.20701 0.22243 0.2805 0.0
O8 O 0.2559 0.17139 0.30546 0.0
O9 O 0.12902 0.26315 0.36607 0.0
O10 O 0.19932 0.2269 0.35733 0.0
C11 C 0.24331 0.19351 0.2813 0.0
C12 C 0.16703 0.24136 0.37644 0.0
O13 O 0.09477 0.26975 0.28942 0.0
Mg14 Mg 0.25867 0.66486 0.81899 0.0
O15 O 0.33252 0.62797 0.81811 0.0
O16 O 0.38951 0.67688 0.83748 0.0
Mg17 Mg 0.35036 0.74571 0.8533 0.0
C18 C 0.37641 0.63675 0.8254 0.0
C19 C 0.20243 0.57327 0.79944 0.0
O20 O 0.18151 0.58406 0.82541 0.0
O21 O 0.2794 0.71687 0.77999 0.0
O22 O 0.3314 0.76551 0.80464 0.0
O23 O 0.24584 0.63415 0.865 0.0
O24 O 0.28129 0.70521 0.85676 0.0
C25 C 0.30741 0.7541 0.78088 0.0
C26 C 0.26843 0.67179 0.87556 0.0
O27 O 0.23279 0.60317 0.78814 0.0
Mg28 Mg 0.8434 0.75448 0.32525 0.0
O29 O 0.87677 0.83032 0.32671 0.0
O30 O 0.82517 0.88493 0.34559 0.0
Mg31 Mg 0.75703 0.84202 0.35855 0.0
C32 C 0.86628 0.87367 0.33436 0.0
C33 C 0.94965 0.74015 0.30999 0.0
O34 O 0.94881 0.75971 0.33722 0.0
O35 O 0.7942 0.77488 0.28479 0.0
O36 O 0.74242 0.82448 0.30885 0.0
O37 O 0.8689 0.74101 0.3725 0.0
O38 O 0.79779 0.7732 0.36146 0.0
C39 C 0.75633 0.80188 0.28504 0.0
C40 C 0.82895 0.76072 0.38168 0.0
O41 O 0.9094 0.73157 0.29665 0.0
Mg42 Mg 0.74179 0.34143 0.82879 0.0
O43 O 0.66743 0.3772 0.82742 0.0
O44 O 0.60931 0.32708 0.84373 0.0
Mg45 Mg 0.64819 0.25752 0.85817 0.0
C46 C 0.62311 0.36794 0.83319 0.0
C47 C 0.76169 0.44741 0.815 0.0
O48 O 0.74064 0.44668 0.84177 0.0
O49 O 0.72369 0.29299 0.78734 0.0
O50 O 0.67022 0.24253 0.80925 0.0
O51 O 0.75162 0.36596 0.87671 0.0
O52 O 0.718 0.29598 0.86392 0.0
C53 C 0.69552 0.25583 0.78641 0.0
C54 C 0.72981 0.32643 0.88484 0.0
O55 O 0.76946 0.40711 0.80146 0.0
Mg56 Mg 0.65857 0.24814 0.16116 0.0
O57 O 0.6234 0.32281 0.15833 0.0
O58 O 0.67194 0.3757 0.13495 0.0
Mg59 Mg 0.7415 0.33431 0.12384 0.0
C60 C 0.63198 0.36519 0.14803 0.0
C61 C 0.56445 0.19719 0.18065 0.0
O62 O 0.5757 0.17367 0.15562 0.0
O63 O 0.70851 0.27305 0.20016 0.0
O64 O 0.7571 0.32361 0.17425 0.0
O65 O 0.63039 0.23172 0.1148 0.0
O66 O 0.70235 0.26433 0.1238 0.0
C67 C 0.74457 0.30247 0.19884 0.0
C68 C 0.67002 0.25083 0.10448 0.0
O69 O 0.59471 0.2276 0.19153 0.0
Mg70 Mg 0.23627 0.16993 0.65466 0.0
O71 O 0.16211 0.13286 0.65411 0.0
O72 O 0.10505 0.18103 0.63497 0.0
Mg73 Mg 0.14349 0.25242 0.6235 0.0
C74 C 0.11835 0.14057 0.64627 0.0
C75 C 0.25514 0.06427 0.66862 0.0
O76 O 0.23495 0.06533 0.64162 0.0
O77 O 0.21482 0.21716 0.69587 0.0
O78 O 0.16116 0.26622 0.67331 0.0
O79 O 0.25066 0.14557 0.60725 0.0
O80 O 0.21362 0.21441 0.61851 0.0
C81 C 0.18533 0.25306 0.69658 0.0
C82 C 0.2278 0.18379 0.59821 0.0
O83 O 0.26288 0.10443 0.6824 0.0
Mg84 Mg 0.34401 0.73569 0.15352 0.0
O85 O 0.37627 0.65947 0.15342 0.0
O86 O 0.32577 0.60518 0.13293 0.0
Mg87 Mg 0.2577 0.64778 0.11989 0.0
C88 C 0.36626 0.61616 0.14524 0.0
C89 C 0.44971 0.74939 0.16958 0.0
O90 O 0.4488 0.72823 0.14282 0.0
O91 O 0.29364 0.71622 0.19364 0.0
O92 O 0.24242 0.66609 0.16945 0.0
O93 O 0.37165 0.74904 0.10666 0.0
O94 O 0.30045 0.7154 0.11647 0.0
C95 C 0.25576 0.68908 0.19325 0.0
C96 C 0.3328 0.72789 0.09688 0.0
O97 O 0.40946 0.75928 0.18255 0.0
Mg98 Mg 0.75905 0.83918 0.65903 0.0
O99 O 0.83455 0.87259 0.65678 0.0
O100 O 0.88847 0.82381 0.63483 0.0
Mg101 Mg 0.84608 0.75427 0.62379 0.0
C102 C 0.87737 0.86404 0.64744 0.0
C103 C 0.74695 0.94565 0.67395 0.0
O104 O 0.76606 0.94372 0.64665 0.0
O105 O 0.78186 0.79033 0.69904 0.0
O106 O 0.83166 0.7399 0.67403 0.0
O107 O 0.74347 0.86461 0.61198 0.0
O108 O 0.77639 0.79356 0.62241 0.0
C109 C 0.80987 0.7532 0.69828 0.0
C110 C 0.76296 0.82473 0.60244 0.0
O111 O 0.73756 0.90586 0.68765 0.0
H112 H 0.13861 0.03319 0.31591 0.0
H113 H 0.03288 0.14223 0.33956 0.0
H114 H 0.07466 0.97211 0.31323 0.0
H115 H 0.96929 0.08094 0.33962 0.0
H116 H 0.85517 0.96892 0.31869 0.0
H117 H 0.9185 0.03048 0.3139 0.0
H118 H 0.02552 0.9245 0.34173 0.0
H119 H 0.9627 0.86278 0.34385 0.0
C120 C 0.10159 0.04384 0.3208 0.0
C121 C 0.09055 0.09223 0.32791 0.0
C122 C 0.06482 0.0088 0.31959 0.0
C123 C 0.01637 0.02104 0.32652 0.0
C124 C 0.00565 0.06986 0.33349 0.0
C125 C 0.0422 0.10512 0.33373 0.0
C126 C 0.89241 0.95904 0.32351 0.0
C127 C 0.90418 0.91124 0.33152 0.0
C128 C 0.92882 0.99435 0.32103 0.0
C129 C 0.97762 0.98295 0.32749 0.0
C130 C 0.98891 0.93485 0.33574 0.0
C131 C 0.95277 0.89934 0.33727 0.0
H132 H 0.47278 0.64467 0.8117 0.0
H133 H 0.36055 0.54024 0.83245 0.0
H134 H 0.53227 0.57943 0.8091 0.0
H135 H 0.41999 0.4755 0.83253 0.0
H136 H 0.52923 0.35923 0.81421 0.0
H137 H 0.47028 0.42413 0.80742 0.0
H138 H 0.57715 0.52888 0.83836 0.0
H139 H 0.63654 0.46442 0.8425 0.0
C140 C 0.46103 0.60767 0.81585 0.0
C141 C 0.41222 0.5974 0.82222 0.0
C142 C 0.49514 0.57017 0.81469 0.0
C143 C 0.48145 0.52175 0.82091 0.0
C144 C 0.4322 0.5118 0.82694 0.0
C145 C 0.39796 0.54906 0.82715 0.0
C146 C 0.53991 0.3963 0.81927 0.0
C147 C 0.58727 0.40692 0.82886 0.0
C148 C 0.50608 0.43362 0.81563 0.0
C149 C 0.51844 0.48223 0.82249 0.0
C150 C 0.56616 0.49243 0.83209 0.0
C151 C 0.60028 0.45534 0.83479 0.0
H152 H 0.63698 0.461 0.13146 0.0
H153 H 0.53943 0.35372 0.16951 0.0
H154 H 0.57208 0.52098 0.13282 0.0
H155 H 0.47486 0.41397 0.1711 0.0
H156 H 0.35994 0.51911 0.1313 0.0
H157 H 0.42438 0.45862 0.1339 0.0
H158 H 0.52251 0.5672 0.16968 0.0
H159 H 0.45857 0.62778 0.16689 0.0
C160 C 0.60187 0.45027 0.14032 0.0
C161 C 0.59346 0.40248 0.15029 0.0
C162 C 0.56475 0.48472 0.14123 0.0
C163 C 0.51837 0.47212 0.15202 0.0
C164 C 0.51008 0.42457 0.16235 0.0
C165 C 0.54723 0.39017 0.16158 0.0
C166 C 0.39514 0.53004 0.13992 0.0
C167 C 0.40405 0.57839 0.14874 0.0
C168 C 0.43198 0.49532 0.14153 0.0
C169 C 0.47855 0.50827 0.15185 0.0
C170 C 0.48718 0.55632 0.16124 0.0
C171 C 0.45036 0.59095 0.15978 0.0
H172 H 0.02101 0.14228 0.63357 0.0
H173 H 0.13524 0.04735 0.665 0.0
H174 H 0.9638 0.07463 0.63553 0.0
H175 H 0.07781 0.98005 0.66719 0.0
H176 H 0.97286 0.86224 0.62955 0.0
H177 H 0.03119 0.92919 0.63099 0.0
H178 H 0.92334 0.02142 0.67272 0.0
H179 H 0.86499 0.95509 0.67109 0.0
C180 C 0.03387 0.10717 0.64111 0.0
C181 C 0.08277 0.10034 0.64906 0.0
C182 C 0.00102 0.06844 0.64236 0.0
C183 C 0.01636 0.022 0.65145 0.0
C184 C 0.06506 0.01527 0.65975 0.0
C185 C 0.09787 0.054 0.65865 0.0
C186 C 0.96168 0.89668 0.63921 0.0
C187 C 0.91413 0.90325 0.65004 0.0
C188 C 0.99516 0.93497 0.64015 0.0
C189 C 0.98172 0.98063 0.65181 0.0
C190 C 0.93454 0.98688 0.66319 0.0
C191 C 0.90119 0.94867 0.66238 0.0
H192 H 0.19854 0.15779 0.4026 0.0
H193 H 0.14543 0.30143 0.42333 0.0
H194 H 0.21116 0.14234 0.45632 0.0
H195 H 0.15935 0.28689 0.47732 0.0
H196 H 0.14963 0.23 0.57324 0.0
H197 H 0.1322 0.24201 0.51988 0.0
H198 H 0.26388 0.16542 0.49631 0.0
H199 H 0.28024 0.15201 0.55003 0.0
C200 C 0.19038 0.18635 0.41867 0.0
C201 C 0.17205 0.23113 0.40893 0.0
C202 C 0.19751 0.17752 0.44949 0.0
C203 C 0.18691 0.21358 0.47114 0.0
C204 C 0.16745 0.2581 0.4613 0.0
C205 C 0.15966 0.26659 0.43044 0.0
C206 C 0.17507 0.2161 0.5568 0.0
C207 C 0.21661 0.19063 0.56585 0.0
C208 C 0.16507 0.22299 0.52609 0.0
C209 C 0.19677 0.205 0.50377 0.0
C210 C 0.23826 0.17916 0.51288 0.0
C211 C 0.24782 0.17168 0.54363 0.0
H212 H 0.21318 0.64394 0.92339 0.0
H213 H 0.35231 0.70613 0.90041 0.0
H214 H 0.23088 0.65558 0.97726 0.0
H215 H 0.37082 0.71671 0.95396 0.0
H216 H 0.36067 0.78314 0.04913 0.0
H217 H 0.34678 0.7669 -0.00468 0.0
H218 H 0.28044 0.62907 0.0182 0.0
H219 H 0.29333 0.64616 0.07174 0.0
C220 C 0.24774 0.65965 0.92995 0.0
C221 C 0.2809 0.6753 0.90787 0.0
C222 C 0.25804 0.66614 0.96073 0.0
C223 C 0.3021 0.68761 0.9699 0.0
C224 C 0.336 0.70137 0.94766 0.0
C225 C 0.32537 0.69546 0.91694 0.0
C226 C 0.34325 0.74938 0.04251 0.0
C227 C 0.32696 0.71643 0.06452 0.0
C228 C 0.3355 0.73989 0.01174 0.0
C229 C 0.31209 0.69682 0.00247 0.0
C230 C 0.29737 0.66316 0.0246 0.0
C231 C 0.30458 0.673 0.05533 0.0
H232 H 0.79982 0.74313 0.57602 0.0
H233 H 0.74865 0.8878 0.55546 0.0
H234 H 0.81825 0.72994 0.5226 0.0
H235 H 0.7665 0.87402 0.50171 0.0
H236 H 0.74743 0.79886 0.40742 0.0
H237 H 0.73326 0.81698 0.4608 0.0
H238 H 0.87635 0.76407 0.48278 0.0
H239 H 0.89111 0.74651 0.42911 0.0
C240 C 0.79298 0.77233 0.56018 0.0
C241 C 0.77332 0.81675 0.57 0.0
C242 C 0.80356 0.7647 0.52961 0.0
C243 C 0.79408 0.80109 0.50821 0.0
C244 C 0.77399 0.84537 0.51787 0.0
C245 C 0.76384 0.85322 0.54856 0.0
C246 C 0.77622 0.79174 0.42349 0.0
C247 C 0.8206 0.77171 0.41402 0.0
C248 C 0.76803 0.80215 0.45404 0.0
C249 C 0.8038 0.7921 0.47575 0.0
C250 C 0.84814 0.77193 0.46639 0.0
C251 C 0.85656 0.76196 0.43574 0.0
H252 H 0.68629 0.24568 0.90843 0.0
H253 H 0.74512 0.386 0.93359 0.0
H254 H 0.66797 0.22902 0.96148 0.0
H255 H 0.72726 0.36876 0.98685 0.0
H256 H 0.75131 0.2852 0.07673 0.0
H257 H 0.76174 0.30638 0.0236 0.0
H258 H 0.61466 0.26067 0.00501 0.0
H259 H 0.60363 0.24009 0.05867 0.0
C260 C 0.69465 0.27329 0.92517 0.0
C261 C 0.71693 0.3173 0.9168 0.0
C262 C 0.6841 0.26368 0.95554 0.0
C263 C 0.69621 0.29762 0.97811 0.0
C264 C 0.71788 0.3419 0.96978 0.0
C265 C 0.72801 0.35175 0.93935 0.0
C266 C 0.72089 0.28023 0.0615 0.0
C267 C 0.67639 0.26164 0.07197 0.0
C268 C 0.72693 0.29241 0.03108 0.0
C269 C 0.68882 0.28567 0.01041 0.0
C270 C 0.64455 0.26621 0.02062 0.0
C271 C 0.63829 0.25444 0.05124 0.0
H272 H 0.52047 0.25853 0.22111 0.0
H273 H 0.49458 0.13024 0.16656 0.0
H274 H 0.43594 0.25731 0.23769 0.0
H275 H 0.40995 0.12918 0.18318 0.0
H276 H 0.29182 0.11408 0.26146 0.0
H277 H 0.36735 0.11446 0.23262 0.0
H278 H 0.3511 0.26834 0.21659 0.0
H279 H 0.27505 0.2678 0.24548 0.0
C280 C 0.49686 0.22988 0.21282 0.0
C281 C 0.51437 0.19424 0.19272 0.0
C282 C 0.44825 0.22964 0.22194 0.0
C283 C 0.41619 0.19351 0.21139 0.0
C284 C 0.43381 0.15752 0.1916 0.0
C285 C 0.48231 0.15805 0.18222 0.0
C286 C 0.30341 0.14757 0.25072 0.0
C287 C 0.27774 0.19092 0.25572 0.0
C288 C 0.34675 0.14784 0.2343 0.0
C289 C 0.36557 0.19162 0.2229 0.0
C290 C 0.33771 0.23422 0.22558 0.0
C291 C 0.29386 0.23379 0.24168 0.0
H292 H 0.23503 0.77186 0.73968 0.0
H293 H 0.37757 0.82026 0.76743 0.0
H294 H 0.22537 0.84593 0.7098 0.0
H295 H 0.36814 0.8938 0.73742 0.0
H296 H 0.30049 0.04564 0.72297 0.0
H297 H 0.3174 0.96613 0.74523 0.0
H298 H 0.25341 0.8957 0.66706 0.0
H299 H 0.23596 0.97469 0.64508 0.0
C300 C 0.26494 0.79743 0.73855 0.0
C301 C 0.3068 0.79047 0.75618 0.0
C302 C 0.25934 0.84006 0.72158 0.0
C303 C 0.29557 0.87629 0.72188 0.0
C304 C 0.33905 0.86723 0.73742 0.0
C305 C 0.34462 0.82482 0.75434 0.0
C306 C 0.29022 0.01319 0.71054 0.0
C307 C 0.26688 0.0166 0.68231 0.0
C308 C 0.30019 0.96762 0.72314 0.0
C309 C 0.28688 0.92455 0.70782 0.0
C310 C 0.26379 0.92809 0.67954 0.0
C311 C 0.254 0.9735 0.66692 0.0
H312 H 0.73969 0.72854 0.24413 0.0
H313 H 0.69307 0.87288 0.26921 0.0
H314 H 0.66662 0.71852 0.21329 0.0
H315 H 0.62056 0.86319 0.23819 0.0
H316 H 0.46815 0.79697 0.22338 0.0
H317 H 0.5474 0.81389 0.24606 0.0
H318 H 0.61799 0.7445 0.16985 0.0
H319 H 0.53921 0.72694 0.14749 0.0
C320 C 0.71483 0.75879 0.24211 0.0
C321 C 0.72186 0.80127 0.25932 0.0
C322 C 0.67274 0.75298 0.22462 0.0
C323 C 0.63716 0.78964 0.22396 0.0
C324 C 0.64656 0.83376 0.23894 0.0
C325 C 0.68841 0.83951 0.2564 0.0
C326 C 0.50058 0.78545 0.21148 0.0
C327 C 0.49726 0.7606 0.18368 0.0
C328 C 0.54603 0.79546 0.22431 0.0
C329 C 0.58907 0.78074 0.20964 0.0
C330 C 0.58562 0.75602 0.18182 0.0
C331 C 0.54033 0.74616 0.16898 0.0
H332 H 0.77221 0.23683 0.74857 0.0
H333 H 0.6243 0.19441 0.7677 0.0
H334 H 0.78298 0.16282 0.71845 0.0
H335 H 0.6349 0.12092 0.73753 0.0
H336 H 0.69778 0.96647 0.72674 0.0
H337 H 0.68218 0.04678 0.74853 0.0
H338 H 0.75866 0.11388 0.67384 0.0
H339 H 0.77472 0.03401 0.65229 0.0
C340 C 0.74147 0.21272 0.74537 0.0
C341 C 0.6976 0.22116 0.76074 0.0
C342 C 0.74772 0.17009 0.72832 0.0
C343 C 0.71014 0.13541 0.72635 0.0
C344 C 0.66493 0.14625 0.73936 0.0
C345 C 0.65872 0.18866 0.75633 0.0
C346 C 0.71121 0.99835 0.71501 0.0
C347 C 0.73735 0.99378 0.6878 0.0
C348 C 0.70196 0.04439 0.72731 0.0
C349 C 0.7189 0.08673 0.71273 0.0
C350 C 0.74531 0.08204 0.68565 0.0
C351 C 0.75429 0.03615 0.67329 0.0
H352 H 0.99617 0.36894 0.31322 0.0
H353 H 0.02057 0.23922 0.25985 0.0
H354 H 0.91169 0.37055 0.2962 0.0
H355 H 0.93626 0.24086 0.24304 0.0
H356 H 0.77527 0.2303 0.23644 0.0
H357 H 0.85119 0.23097 0.26534 0.0
H358 H 0.86957 0.38361 0.24572 0.0
H359 H 0.79414 0.38279 0.21677 0.0
C360 C 0.98361 0.34096 0.29774 0.0
C361 C 0.01518 0.30415 0.28771 0.0
C362 C 0.93522 0.34179 0.28815 0.0
C363 C 0.91725 0.30542 0.2687 0.0
C364 C 0.94887 0.26881 0.25854 0.0
C365 C 0.99736 0.26832 0.2678 0.0
C366 C 0.7945 0.26438 0.23942 0.0
C367 C 0.77903 0.30646 0.22433 0.0
C368 C 0.83827 0.26462 0.25556 0.0
C369 C 0.86668 0.30713 0.25723 0.0
C370 C 0.8485 0.35033 0.24479 0.0
C371 C 0.80524 0.3499 0.22831 0.0
H372 H 0.26254 0.28364 0.73034 0.0
H373 H 0.10812 0.3022 0.71919 0.0
H374 H 0.2663 0.35965 0.75933 0.0
H375 H 0.11174 0.37777 0.74814 0.0
H376 H 0.13504 0.50441 0.81458 0.0
H377 H 0.13091 0.4201 0.79716 0.0
H378 H 0.25476 0.44494 0.73903 0.0
H379 H 0.25901 0.52916 0.75638 0.0
C380 C 0.22913 0.3028 0.73524 0.0
C381 C 0.18505 0.28716 0.7225 0.0
C382 C 0.23138 0.34669 0.75138 0.0
C383 C 0.18946 0.37511 0.75543 0.0
C384 C 0.14464 0.35676 0.74538 0.0
C385 C 0.14253 0.31336 0.72891 0.0
C386 C 0.16121 0.49198 0.79793 0.0
C387 C 0.19716 0.52363 0.7867 0.0
C388 C 0.15893 0.44364 0.78808 0.0
C389 C 0.19292 0.42572 0.76708 0.0
C390 C 0.22866 0.45744 0.75571 0.0
C391 C 0.23062 0.5059 0.76529 0.0
H392 H 0.19113 0.61848 0.20836 0.0
H393 H 0.23964 0.76194 0.23463 0.0
H394 H 0.11884 0.62797 0.23961 0.0
H395 H 0.16676 0.77171 0.26575 0.0
H396 H 0.0395 0.76136 0.33222 0.0
H397 H 0.11806 0.74439 0.3093 0.0
H398 H 0.04635 0.6783 0.2323 0.0
H399 H 0.96743 0.69469 0.25547 0.0
C400 C 0.18691 0.65163 0.22143 0.0
C401 C 0.22085 0.68968 0.2188 0.0
C402 C 0.1452 0.65725 0.23905 0.0
C403 C 0.13642 0.70105 0.25449 0.0
C404 C 0.17242 0.73752 0.25405 0.0
C405 C 0.21437 0.73184 0.23639 0.0
C406 C 0.04036 0.74299 0.31043 0.0
C407 C 0.99709 0.7293 0.29565 0.0
C408 C 0.0855 0.73348 0.29728 0.0
C409 C 0.08854 0.70982 0.26908 0.0
C410 C 0.04528 0.69589 0.25433 0.0
C411 C 2e-05 0.7056 0.26745 0.0
H412 H 0.74473 0.53745 0.8385 0.0
H413 H 0.80642 0.46512 0.76027 0.0
H414 H 0.76231 0.61607 0.81582 0.0
H415 H 0.82342 0.54416 0.73734 0.0
H416 H 0.88152 0.68909 0.71171 0.0
H417 H 0.87418 0.61696 0.74331 0.0
H418 H 0.7327 0.66466 0.77318 0.0
H419 H 0.74033 0.73731 0.74173 0.0
C420 C 0.76222 0.53825 0.81646 0.0
C421 C 0.77412 0.49488 0.80114 0.0
C422 C 0.77209 0.58345 0.80345 0.0
C423 C 0.79432 0.58647 0.77483 0.0
C424 C 0.80692 0.54311 0.75966 0.0
C425 C 0.79688 0.49778 0.77267 0.0
C426 C 0.84939 0.68488 0.72568 0.0
C427 C 0.81125 0.71866 0.72398 0.0
C428 C 0.84499 0.64325 0.74352 0.0
C429 C 0.80236 0.63443 0.76011 0.0
C430 C 0.76602 0.67034 0.7606 0.0
C431 C 0.77048 0.71219 0.74272 0.0
loop_
_geom_bond_atom_site_label_1
_geom_bond_atom_site_label_2
_geom_bond_distance
_geom_bond_site_symmetry_2
_ccdc_geom_bond_type
Mg0 O1 2.028 . S
Mg0 O7 1.986 . S
Mg0 O9 2.114 . S
Mg0 O10 2.251 . S
Mg0 O13 2.010 . S
O1 Mg0 2.028 . S
O1 C4 1.250 . S
O2 Mg3 2.028 . S
O2 C4 1.248 . S
Mg3 O2 2.028 . S
Mg3 O8 2.032 . S
Mg3 O10 2.079 . S
C4 O1 1.250 . S
C4 O2 1.248 . S
C5 O6 1.264 . S
C5 O13 1.249 1_655 S
O6 C5 1.264 . S
O7 Mg0 1.986 . S
O7 C11 1.246 . S
O8 Mg3 2.032 . S
O8 C11 1.259 . S
O9 Mg0 2.114 . S
O9 C12 1.252 . S
O10 Mg0 2.251 . S
O10 Mg3 2.079 . S
O10 C12 1.273 . S
C11 O7 1.246 . S
C11 O8 1.259 . S
C12 O9 1.252 . S
C12 O10 1.273 . S
O13 Mg0 2.010 . S
O13 C5 1.249 1_455 S
Mg14 O15 2.028 . S
Mg14 O21 1.986 . S
Mg14 O23 2.114 . S
Mg14 O24 2.251 . S
Mg14 O27 2.010 . S
O15 Mg14 2.028 . S
O15 C18 1.250 . S
O16 Mg17 2.028 . S
O16 C18 1.248 . S
Mg17 O16 2.028 . S
Mg17 O22 2.032 . S
Mg17 O24 2.079 . S
C18 O15 1.250 . S
C18 O16 1.248 . S
C19 O20 1.264 . S
C19 O27 1.249 . S
O20 C19 1.264 . S
O21 Mg14 1.986 . S
O21 C25 1.246 . S
O22 Mg17 2.032 . S
O22 C25 1.259 . S
O23 Mg14 2.114 . S
O23 C26 1.252 . S
O24 Mg14 2.251 . S
O24 Mg17 2.079 . S
O24 C26 1.273 . S
C25 O21 1.246 . S
C25 O22 1.259 . S
C26 O23 1.252 . S
C26 O24 1.273 . S
O27 Mg14 2.010 . S
O27 C19 1.249 . S
Mg28 O29 2.028 . S
Mg28 O35 1.986 . S
Mg28 O37 2.114 . S
Mg28 O38 2.251 . S
Mg28 O41 2.010 . S
O29 Mg28 2.028 . S
O29 C32 1.250 . S
O30 Mg31 2.028 . S
O30 C32 1.248 . S
Mg31 O30 2.028 . S
Mg31 O36 2.032 . S
Mg31 O38 2.079 . S
C32 O29 1.250 . S
C32 O30 1.248 . S
C33 O34 1.264 . S
C33 O41 1.249 1_455 S
O34 C33 1.264 . S
O35 Mg28 1.986 . S
O35 C39 1.246 . S
O36 Mg31 2.032 . S
O36 C39 1.259 . S
O37 Mg28 2.114 . S
O37 C40 1.252 . S
O38 Mg28 2.251 . S
O38 Mg31 2.079 . S
O38 C40 1.273 . S
C39 O35 1.246 . S
C39 O36 1.259 . S
C40 O37 1.252 . S
C40 O38 1.273 . S
O41 Mg28 2.010 . S
O41 C33 1.249 1_655 S
Mg42 O43 2.028 . S
Mg42 O49 1.986 . S
Mg42 O51 2.114 . S
Mg42 O52 2.251 . S
Mg42 O55 2.010 . S
O43 Mg42 2.028 . S
O43 C46 1.250 . S
O44 Mg45 2.028 . S
O44 C46 1.248 . S
Mg45 O44 2.028 . S
Mg45 O50 2.032 . S
Mg45 O52 2.079 . S
C46 O43 1.250 . S
C46 O44 1.248 . S
C47 O48 1.264 . S
C47 O55 1.249 . S
O48 C47 1.264 . S
O49 Mg42 1.986 . S
O49 C53 1.246 . S
O50 Mg45 2.032 . S
O50 C53 1.259 . S
O51 Mg42 2.114 . S
O51 C54 1.252 . S
O52 Mg42 2.251 . S
O52 Mg45 2.079 . S
O52 C54 1.273 . S
C53 O49 1.246 . S
C53 O50 1.259 . S
C54 O51 1.252 . S
C54 O52 1.273 . S
O55 Mg42 2.010 . S
O55 C47 1.249 . S
Mg56 O57 2.028 . S
Mg56 O63 1.986 . S
Mg56 O65 2.114 . S
Mg56 O66 2.251 . S
Mg56 O69 2.010 . S
O57 Mg56 2.028 . S
O57 C60 1.250 . S
O58 Mg59 2.028 . S
O58 C60 1.248 . S
Mg59 O58 2.028 . S
Mg59 O64 2.032 . S
Mg59 O66 2.079 . S
C60 O57 1.250 . S
C60 O58 1.248 . S
C61 O62 1.264 . S
C61 O69 1.249 . S
O62 C61 1.264 . S
O63 Mg56 1.986 . S
O63 C67 1.246 . S
O64 Mg59 2.032 . S
O64 C67 1.259 . S
O65 Mg56 2.114 . S
O65 C68 1.252 . S
O66 Mg56 2.251 . S
O66 Mg59 2.079 . S
O66 C68 1.273 . S
C67 O63 1.246 . S
C67 O64 1.259 . S
C68 O65 1.252 . S
C68 O66 1.273 . S
O69 Mg56 2.010 . S
O69 C61 1.249 . S
Mg70 O71 2.028 . S
Mg70 O77 1.986 . S
Mg70 O79 2.114 . S
Mg70 O80 2.251 . S
Mg70 O83 2.010 . S
O71 Mg70 2.028 . S
O71 C74 1.250 . S
O72 Mg73 2.028 . S
O72 C74 1.248 . S
Mg73 O72 2.028 . S
Mg73 O78 2.032 . S
Mg73 O80 2.079 . S
C74 O71 1.250 . S
C74 O72 1.248 . S
C75 O76 1.264 . S
C75 O83 1.249 1_565 S
O76 C75 1.264 . S
O77 Mg70 1.986 . S
O77 C81 1.246 . S
O78 Mg73 2.032 . S
O78 C81 1.259 . S
O79 Mg70 2.114 . S
O79 C82 1.252 . S
O80 Mg70 2.251 . S
O80 Mg73 2.079 . S
O80 C82 1.273 . S
C81 O77 1.246 . S
C81 O78 1.259 . S
C82 O79 1.252 . S
C82 O80 1.273 . S
O83 Mg70 2.010 . S
O83 C75 1.249 1_545 S
Mg84 O85 2.028 . S
Mg84 O91 1.986 . S
Mg84 O93 2.114 . S
Mg84 O94 2.251 . S
Mg84 O97 2.010 . S
O85 Mg84 2.028 . S
O85 C88 1.250 . S
O86 Mg87 2.028 . S
O86 C88 1.248 . S
Mg87 O86 2.028 . S
Mg87 O92 2.032 . S
Mg87 O94 2.079 . S
C88 O85 1.250 . S
C88 O86 1.248 . S
C89 O90 1.264 . S
C89 O97 1.249 . S
O90 C89 1.264 . S
O91 Mg84 1.986 . S
O91 C95 1.246 . S
O92 Mg87 2.032 . S
O92 C95 1.259 . S
O93 Mg84 2.114 . S
O93 C96 1.252 . S
O94 Mg84 2.251 . S
O94 Mg87 2.079 . S
O94 C96 1.273 . S
C95 O91 1.246 . S
C95 O92 1.259 . S
C96 O93 1.252 . S
C96 O94 1.273 . S
O97 Mg84 2.010 . S
O97 C89 1.249 . S
Mg98 O99 2.028 . S
Mg98 O105 1.986 . S
Mg98 O107 2.114 . S
Mg98 O108 2.251 . S
Mg98 O111 2.010 . S
O99 Mg98 2.028 . S
O99 C102 1.250 . S
O100 Mg101 2.028 . S
O100 C102 1.248 . S
Mg101 O100 2.028 . S
Mg101 O106 2.032 . S
Mg101 O108 2.079 . S
C102 O99 1.250 . S
C102 O100 1.248 . S
C103 O104 1.264 . S
C103 O111 1.249 1_545 S
O104 C103 1.264 . S
O105 Mg98 1.986 . S
O105 C109 1.246 . S
O106 Mg101 2.032 . S
O106 C109 1.259 . S
O107 Mg98 2.114 . S
O107 C110 1.252 . S
O108 Mg98 2.251 . S
O108 Mg101 2.079 . S
O108 C110 1.273 . S
C109 O105 1.246 . S
C109 O106 1.259 . S
C110 O107 1.252 . S
C110 O108 1.273 . S
O111 Mg98 2.010 . S
O111 C103 1.249 1_565 S
H112 C120 0.950 . S
H113 C125 0.950 . S
H114 C122 0.950 1_565 S
H115 C124 0.950 . S
H116 C126 0.950 . S
H117 C128 0.950 1_545 S
H118 C130 0.950 . S
H119 C131 0.950 . S
C120 H112 0.950 . S
C120 C121 1.386 . S
C120 C122 1.391 . S
C121 C120 1.386 . S
C121 C125 1.393 . S
C122 H114 0.950 1_545 S
C122 C120 1.391 . S
C122 C123 1.400 . S
C123 C122 1.400 . S
C123 C124 1.398 1_455 S
C123 C129 1.491 1_445 S
C124 H115 0.950 . S
C124 C123 1.398 1_655 S
C124 C125 1.391 1_655 S
C125 H113 0.950 . S
C125 C121 1.393 . S
C125 C124 1.391 1_455 S
C126 H116 0.950 . S
C126 C127 1.386 . S
C126 C128 1.391 . S
C127 C126 1.386 . S
C127 C131 1.393 . S
C128 H117 0.950 1_565 S
C128 C126 1.391 . S
C128 C129 1.400 . S
C129 C123 1.491 1_665 S
C129 C128 1.400 . S
C129 C130 1.398 1_655 S
C130 H118 0.950 . S
C130 C129 1.398 1_455 S
C130 C131 1.391 1_455 S
C131 H119 0.950 . S
C131 C127 1.393 . S
C131 C130 1.391 1_655 S
H132 C140 0.950 . S
H133 C145 0.950 . S
H134 C142 0.950 . S
H135 C144 0.950 . S
H136 C146 0.950 . S
H137 C148 0.950 . S
H138 C150 0.950 . S
H139 C151 0.950 . S
C140 H132 0.950 . S
C140 C141 1.386 . S
C140 C142 1.391 . S
C141 C140 1.386 . S
C141 C145 1.393 . S
C142 H134 0.950 . S
C142 C140 1.391 . S
C142 C143 1.400 . S
C143 C142 1.400 . S
C143 C144 1.398 . S
C143 C149 1.491 . S
C144 H135 0.950 . S
C144 C143 1.398 . S
C144 C145 1.391 . S
C145 H133 0.950 . S
C145 C141 1.393 . S
C145 C144 1.391 . S
C146 H136 0.950 . S
C146 C147 1.386 . S
C146 C148 1.391 . S
C147 C146 1.386 . S
C147 C151 1.393 . S
C148 H137 0.950 . S
C148 C146 1.391 . S
C148 C149 1.400 . S
C149 C143 1.491 . S
C149 C148 1.400 . S
C149 C150 1.398 . S
C150 H138 0.950 . S
C150 C149 1.398 . S
C150 C151 1.391 . S
C151 H139 0.950 . S
C151 C147 1.393 . S
C151 C150 1.391 . S
H152 C160 0.950 . S
H153 C165 0.950 . S
H154 C162 0.950 . S
H155 C164 0.950 . S
H156 C166 0.950 . S
H157 C168 0.950 . S
H158 C170 0.950 . S
H159 C171 0.950 . S
C160 H152 0.950 . S
C160 C161 1.386 . S
C160 C162 1.391 . S
C161 C160 1.386 . S
C161 C165 1.393 . S
C162 H154 0.950 . S
C162 C160 1.391 . S
C162 C163 1.400 . S
C163 C162 1.400 . S
C163 C164 1.398 . S
C163 C169 1.491 . S
C164 H155 0.950 . S
C164 C163 1.398 . S
C164 C165 1.391 . S
C165 H153 0.950 . S
C165 C161 1.393 . S
C165 C164 1.391 . S
C166 H156 0.950 . S
C166 C167 1.386 . S
C166 C168 1.391 . S
C167 C166 1.386 . S
C167 C171 1.393 . S
C168 H157 0.950 . S
C168 C166 1.391 . S
C168 C169 1.400 . S
C169 C163 1.491 . S
C169 C168 1.400 . S
C169 C170 1.398 . S
C170 H158 0.950 . S
C170 C169 1.398 . S
C170 C171 1.391 . S
C171 H159 0.950 . S
C171 C167 1.393 . S
C171 C170 1.391 . S
H172 C180 0.950 . S
H173 C185 0.950 . S
H174 C182 0.950 1_655 S
H175 C184 0.950 . S
H176 C186 0.950 . S
H177 C188 0.950 1_455 S
H178 C190 0.950 . S
H179 C191 0.950 . S
C180 H172 0.950 . S
C180 C181 1.386 . S
C180 C182 1.391 . S
C181 C180 1.386 . S
C181 C185 1.393 . S
C182 H174 0.950 1_455 S
C182 C180 1.391 . S
C182 C183 1.400 . S
C183 C182 1.400 . S
C183 C184 1.398 1_545 S
C183 C189 1.491 1_445 S
C184 H175 0.950 . S
C184 C183 1.398 1_565 S
C184 C185 1.391 1_565 S
C185 H173 0.950 . S
C185 C181 1.393 . S
C185 C184 1.391 1_545 S
C186 H176 0.950 . S
C186 C187 1.386 . S
C186 C188 1.391 . S
C187 C186 1.386 . S
C187 C191 1.393 . S
C188 H177 0.950 1_655 S
C188 C186 1.391 . S
C188 C189 1.400 . S
C189 C183 1.491 1_665 S
C189 C188 1.400 . S
C189 C190 1.398 1_565 S
C190 H178 0.950 . S
C190 C189 1.398 1_545 S
C190 C191 1.391 1_545 S
C191 H179 0.950 . S
C191 C187 1.393 . S
C191 C190 1.391 1_565 S
H192 C200 0.950 . S
H193 C205 0.950 . S
H194 C202 0.950 . S
H195 C204 0.950 . S
H196 C206 0.950 . S
H197 C208 0.950 . S
H198 C210 0.950 . S
H199 C211 0.950 . S
C200 H192 0.950 . S
C200 C201 1.386 . S
C200 C202 1.391 . S
C201 C200 1.386 . S
C201 C205 1.393 . S
C202 H194 0.950 . S
C202 C200 1.391 . S
C202 C203 1.400 . S
C203 C202 1.400 . S
C203 C204 1.398 . S
C203 C209 1.491 . S
C204 H195 0.950 . S
C204 C203 1.398 . S
C204 C205 1.391 . S
C205 H193 0.950 . S
C205 C201 1.393 . S
C205 C204 1.391 . S
C206 H196 0.950 . S
C206 C207 1.386 . S
C206 C208 1.391 . S
C207 C206 1.386 . S
C207 C211 1.393 . S
C208 H197 0.950 . S
C208 C206 1.391 . S
C208 C209 1.400 . S
C209 C203 1.491 . S
C209 C208 1.400 . S
C209 C210 1.398 . S
C210 H198 0.950 . S
C210 C209 1.398 . S
C210 C211 1.391 . S
C211 H199 0.950 . S
C211 C207 1.393 . S
C211 C210 1.391 . S
H212 C220 0.950 . S
H213 C225 0.950 . S
H214 C222 0.950 1_554 S
H215 C224 0.950 . S
H216 C226 0.950 . S
H217 C228 0.950 1_556 S
H218 C230 0.950 . S
H219 C231 0.950 . S
C220 H212 0.950 . S
C220 C221 1.386 . S
C220 C222 1.391 . S
C221 C220 1.386 . S
C221 C225 1.393 . S
C222 H214 0.950 1_556 S
C222 C220 1.391 . S
C222 C223 1.400 . S
C223 C222 1.400 . S
C223 C224 1.398 . S
C223 C229 1.491 1_556 S
C224 H215 0.950 . S
C224 C223 1.398 . S
C224 C225 1.391 . S
C225 H213 0.950 . S
C225 C221 1.393 . S
C225 C224 1.391 . S
C226 H216 0.950 . S
C226 C227 1.386 . S
C226 C228 1.391 . S
C227 C226 1.386 . S
C227 C231 1.393 . S
C228 H217 0.950 1_554 S
C228 C226 1.391 . S
C228 C229 1.400 . S
C229 C223 1.491 1_554 S
C229 C228 1.400 . S
C229 C230 1.398 . S
C230 H218 0.950 . S
C230 C229 1.398 . S
C230 C231 1.391 . S
C231 H219 0.950 . S
C231 C227 1.393 . S
C231 C230 1.391 . S
H232 C240 0.950 . S
H233 C245 0.950 . S
H234 C242 0.950 . S
H235 C244 0.950 . S
H236 C246 0.950 . S
H237 C248 0.950 . S
H238 C250 0.950 . S
H239 C251 0.950 . S
C240 H232 0.950 . S
C240 C241 1.386 . S
C240 C242 1.391 . S
C241 C240 1.386 . S
C241 C245 1.393 . S
C242 H234 0.950 . S
C242 C240 1.391 . S
C242 C243 1.400 . S
C243 C242 1.400 . S
C243 C244 1.398 . S
C243 C249 1.491 . S
C244 H235 0.950 . S
C244 C243 1.398 . S
C244 C245 1.391 . S
C245 H233 0.950 . S
C245 C241 1.393 . S
C245 C244 1.391 . S
C246 H236 0.950 . S
C246 C247 1.386 . S
C246 C248 1.391 . S
C247 C246 1.386 . S
C247 C251 1.393 . S
C248 H237 0.950 . S
C248 C246 1.391 . S
C248 C249 1.400 . S
C249 C243 1.491 . S
C249 C248 1.400 . S
C249 C250 1.398 . S
C250 H238 0.950 . S
C250 C249 1.398 . S
C250 C251 1.391 . S
C251 H239 0.950 . S
C251 C247 1.393 . S
C251 C250 1.391 . S
H252 C260 0.950 . S
H253 C265 0.950 . S
H254 C262 0.950 . S
H255 C264 0.950 . S
H256 C266 0.950 . S
H257 C268 0.950 . S
H258 C270 0.950 . S
H259 C271 0.950 . S
C260 H252 0.950 . S
C260 C261 1.386 . S
C260 C262 1.391 . S
C261 C260 1.386 . S
C261 C265 1.393 . S
C262 H254 0.950 . S
C262 C260 1.391 . S
C262 C263 1.400 . S
C263 C262 1.400 . S
C263 C264 1.398 . S
C263 C269 1.491 1_556 S
C264 H255 0.950 . S
C264 C263 1.398 . S
C264 C265 1.391 . S
C265 H253 0.950 . S
C265 C261 1.393 . S
C265 C264 1.391 . S
C266 H256 0.950 . S
C266 C267 1.386 . S
C266 C268 1.391 . S
C267 C266 1.386 . S
C267 C271 1.393 . S
C268 H257 0.950 . S
C268 C266 1.391 . S
C268 C269 1.400 . S
C269 C263 1.491 1_554 S
C269 C268 1.400 . S
C269 C270 1.398 . S
C270 H258 0.950 . S
C270 C269 1.398 . S
C270 C271 1.391 . S
C271 H259 0.950 . S
C271 C267 1.393 . S
C271 C270 1.391 . S
H272 C280 0.950 . S
H273 C285 0.950 . S
H274 C282 0.950 . S
H275 C284 0.950 . S
H276 C286 0.950 . S
H277 C288 0.950 . S
H278 C290 0.950 . S
H279 C291 0.950 . S
C280 H272 0.950 . S
C280 C281 1.386 . S
C280 C282 1.391 . S
C281 C280 1.386 . S
C281 C285 1.393 . S
C282 H274 0.950 . S
C282 C280 1.391 . S
C282 C283 1.400 . S
C283 C282 1.400 . S
C283 C284 1.398 . S
C283 C289 1.491 . S
C284 H275 0.950 . S
C284 C283 1.398 . S
C284 C285 1.391 . S
C285 H273 0.950 . S
C285 C281 1.393 . S
C285 C284 1.391 . S
C286 H276 0.950 . S
C286 C287 1.386 . S
C286 C288 1.391 . S
C287 C286 1.386 . S
C287 C291 1.393 . S
C288 H277 0.950 . S
C288 C286 1.391 . S
C288 C289 1.400 . S
C289 C283 1.491 . S
C289 C288 1.400 . S
C289 C290 1.398 . S
C290 H278 0.950 . S
C290 C289 1.398 . S
C290 C291 1.391 . S
C291 H279 0.950 . S
C291 C287 1.393 . S
C291 C290 1.391 . S
H292 C300 0.950 . S
H293 C305 0.950 . S
H294 C302 0.950 . S
H295 C304 0.950 . S
H296 C306 0.950 . S
H297 C308 0.950 . S
H298 C310 0.950 . S
H299 C311 0.950 . S
C300 H292 0.950 . S
C300 C301 1.386 . S
C300 C302 1.391 . S
C301 C300 1.386 . S
C301 C305 1.393 . S
C302 H294 0.950 . S
C302 C300 1.391 . S
C302 C303 1.400 . S
C303 C302 1.400 . S
C303 C304 1.398 . S
C303 C309 1.491 . S
C304 H295 0.950 . S
C304 C303 1.398 . S
C304 C305 1.391 . S
C305 H293 0.950 . S
C305 C301 1.393 . S
C305 C304 1.391 . S
C306 H296 0.950 . S
C306 C307 1.386 . S
C306 C308 1.391 . S
C307 C306 1.386 . S
C307 C311 1.393 . S
C308 H297 0.950 . S
C308 C306 1.391 . S
C308 C309 1.400 . S
C309 C303 1.491 . S
C309 C308 1.400 . S
C309 C310 1.398 . S
C310 H298 0.950 . S
C310 C309 1.398 . S
C310 C311 1.391 . S
C311 H299 0.950 . S
C311 C307 1.393 . S
C311 C310 1.391 . S
H312 C320 0.950 . S
H313 C325 0.950 . S
H314 C322 0.950 . S
H315 C324 0.950 . S
H316 C326 0.950 . S
H317 C328 0.950 . S
H318 C330 0.950 . S
H319 C331 0.950 . S
C320 H312 0.950 . S
C320 C321 1.386 . S
C320 C322 1.391 . S
C321 C320 1.386 . S
C321 C325 1.393 . S
C322 H314 0.950 . S
C322 C320 1.391 . S
C322 C323 1.400 . S
C323 C322 1.400 . S
C323 C324 1.398 . S
C323 C329 1.491 . S
C324 H315 0.950 . S
C324 C323 1.398 . S
C324 C325 1.391 . S
C325 H313 0.950 . S
C325 C321 1.393 . S
C325 C324 1.391 . S
C326 H316 0.950 . S
C326 C327 1.386 . S
C326 C328 1.391 . S
C327 C326 1.386 . S
C327 C331 1.393 . S
C328 H317 0.950 . S
C328 C326 1.391 . S
C328 C329 1.400 . S
C329 C323 1.491 . S
C329 C328 1.400 . S
C329 C330 1.398 . S
C330 H318 0.950 . S
C330 C329 1.398 . S
C330 C331 1.391 . S
C331 H319 0.950 . S
C331 C327 1.393 . S
C331 C330 1.391 . S
H332 C340 0.950 . S
H333 C345 0.950 . S
H334 C342 0.950 . S
H335 C344 0.950 . S
H336 C346 0.950 . S
H337 C348 0.950 . S
H338 C350 0.950 . S
H339 C351 0.950 . S
C340 H332 0.950 . S
C340 C341 1.386 . S
C340 C342 1.391 . S
C341 C340 1.386 . S
C341 C345 1.393 . S
C342 H334 0.950 . S
C342 C340 1.391 . S
C342 C343 1.400 . S
C343 C342 1.400 . S
C343 C344 1.398 . S
C343 C349 1.491 . S
C344 H335 0.950 . S
C344 C343 1.398 . S
C344 C345 1.391 . S
C345 H333 0.950 . S
C345 C341 1.393 . S
C345 C344 1.391 . S
C346 H336 0.950 . S
C346 C347 1.386 . S
C346 C348 1.391 . S
C347 C346 1.386 . S
C347 C351 1.393 . S
C348 H337 0.950 . S
C348 C346 1.391 . S
C348 C349 1.400 . S
C349 C343 1.491 . S
C349 C348 1.400 . S
C349 C350 1.398 . S
C350 H338 0.950 . S
C350 C349 1.398 . S
C350 C351 1.391 . S
C351 H339 0.950 . S
C351 C347 1.393 . S
C351 C350 1.391 . S
H352 C360 0.950 . S
H353 C365 0.950 . S
H354 C362 0.950 . S
H355 C364 0.950 . S
H356 C366 0.950 . S
H357 C368 0.950 . S
H358 C370 0.950 . S
H359 C371 0.950 . S
C360 H352 0.950 . S
C360 C361 1.386 . S
C360 C362 1.391 . S
C361 C360 1.386 . S
C361 C365 1.393 . S
C362 H354 0.950 . S
C362 C360 1.391 . S
C362 C363 1.400 . S
C363 C362 1.400 . S
C363 C364 1.398 . S
C363 C369 1.491 . S
C364 H355 0.950 . S
C364 C363 1.398 . S
C364 C365 1.391 . S
C365 H353 0.950 . S
C365 C361 1.393 . S
C365 C364 1.391 . S
C366 H356 0.950 . S
C366 C367 1.386 . S
C366 C368 1.391 . S
C367 C366 1.386 . S
C367 C371 1.393 . S
C368 H357 0.950 . S
C368 C366 1.391 . S
C368 C369 1.400 . S
C369 C363 1.491 . S
C369 C368 1.400 . S
C369 C370 1.398 . S
C370 H358 0.950 . S
C370 C369 1.398 . S
C370 C371 1.391 . S
C371 H359 0.950 . S
C371 C367 1.393 . S
C371 C370 1.391 . S
H372 C380 0.950 . S
H373 C385 0.950 . S
H374 C382 0.950 . S
H375 C384 0.950 . S
H376 C386 0.950 . S
H377 C388 0.950 . S
H378 C390 0.950 . S
H379 C391 0.950 . S
C380 H372 0.950 . S
C380 C381 1.386 . S
C380 C382 1.391 . S
C381 C380 1.386 . S
C381 C385 1.393 . S
C382 H374 0.950 . S
C382 C380 1.391 . S
C382 C383 1.400 . S
C383 C382 1.400 . S
C383 C384 1.398 . S
C383 C389 1.491 . S
C384 H375 0.950 . S
C384 C383 1.398 . S
C384 C385 1.391 . S
C385 H373 0.950 . S
C385 C381 1.393 . S
C385 C384 1.391 . S
C386 H376 0.950 . S
C386 C387 1.386 . S
C386 C388 1.391 . S
C387 C386 1.386 . S
C387 C391 1.393 . S
C388 H377 0.950 . S
C388 C386 1.391 . S
C388 C389 1.400 . S
C389 C383 1.491 . S
C389 C388 1.400 . S
C389 C390 1.398 . S
C390 H378 0.950 . S
C390 C389 1.398 . S
C390 C391 1.391 . S
C391 H379 0.950 . S
C391 C387 1.393 . S
C391 C390 1.391 . S
H392 C400 0.950 . S
H393 C405 0.950 . S
H394 C402 0.950 . S
H395 C404 0.950 . S
H396 C406 0.950 . S
H397 C408 0.950 . S
H398 C410 0.950 . S
H399 C411 0.950 . S
C400 H392 0.950 . S
C400 C401 1.386 . S
C400 C402 1.391 . S
C401 C400 1.386 . S
C401 C405 1.393 . S
C402 H394 0.950 . S
C402 C400 1.391 . S
C402 C403 1.400 . S
C403 C402 1.400 . S
C403 C404 1.398 . S
C403 C409 1.491 . S
C404 H395 0.950 . S
C404 C403 1.398 . S
C404 C405 1.391 . S
C405 H393 0.950 . S
C405 C401 1.393 . S
C405 C404 1.391 . S
C406 H396 0.950 . S
C406 C407 1.386 . S
C406 C408 1.391 . S
C407 C406 1.386 . S
C407 C411 1.393 . S
C408 H397 0.950 . S
C408 C406 1.391 . S
C408 C409 1.400 . S
C409 C403 1.491 . S
C409 C408 1.400 . S
C409 C410 1.398 . S
C410 H398 0.950 . S
C410 C409 1.398 . S
C410 C411 1.391 . S
C411 H399 0.950 . S
C411 C407 1.393 . S
C411 C410 1.391 . S
H412 C420 0.950 . S
H413 C425 0.950 . S
H414 C422 0.950 . S
H415 C424 0.950 . S
H416 C426 0.950 . S
H417 C428 0.950 . S
H418 C430 0.950 . S
H419 C431 0.950 . S
C420 H412 0.950 . S
C420 C421 1.386 . S
C420 C422 1.391 . S
C421 C420 1.386 . S
C421 C425 1.393 . S
C422 H414 0.950 . S
C422 C420 1.391 . S
C422 C423 1.400 . S
C423 C422 1.400 . S
C423 C424 1.398 . S
C423 C429 1.491 . S
C424 H415 0.950 . S
C424 C423 1.398 . S
C424 C425 1.391 . S
C425 H413 0.950 . S
C425 C421 1.393 . S
C425 C424 1.391 . S
C426 H416 0.950 . S
C426 C427 1.386 . S
C426 C428 1.391 . S
C427 C426 1.386 . S
C427 C431 1.393 . S
C428 H417 0.950 . S
C428 C426 1.391 . S
C428 C429 1.400 . S
C429 C423 1.491 . S
C429 C428 1.400 . S
C429 C430 1.398 . S
C430 H418 0.950 . S
C430 C429 1.398 . S
C430 C431 1.391 . S
C431 H419 0.950 . S
C431 C427 1.393 . S
C431 C430 1.391 . S
C121 C4 0.271 . S
C127 C32 0.342 . S
C141 C18 0.268 . S
C147 C46 0.341 . S
C161 C60 0.320 . S
C167 C88 0.312 . S
C181 C74 0.279 . S
C187 C102 0.341 . S
C201 C12 1.546 . S
C207 C82 1.538 . S
C221 C26 1.535 . S
C227 C96 1.543 . S
C241 C110 1.540 . S
C247 C40 1.533 . S
C261 C54 1.537 . S
C267 C68 1.531 . S
C281 C61 1.445 . S
C287 C11 1.457 . S
C301 C25 1.468 . S
C307 C75 1.428 . S
C321 C39 1.469 . S
C327 C89 1.427 . S
C341 C53 1.467 . S
C347 C103 1.429 . S
C361 C5 1.423 . S
C367 C67 1.480 . S
C381 C81 1.459 . S
C387 C19 1.441 . S
C401 C95 1.470 . S
C407 C33 1.445 . S
C421 C47 1.428 . S
C427 C109 1.468 . S
