# Generated by pormake.
# Topology zfa, (5)-cn, num edge types: 1
# Building blocks:
#     Node 0, Type 0, BuildingBlock: BEQFEK_clean_sbu_0, # of connection points: 5
#     Node 1, Type 0, BuildingBlock: BEQFEK_clean_sbu_0, # of connection points: 5
#     Node 2, Type 0, BuildingBlock: BEQFEK_clean_sbu_0, # of connection points: 5
#     Node 3, Type 0, BuildingBlock: BEQFEK_clean_sbu_0, # of connection points: 5
#     Node 4, Type 0, BuildingBlock: BEQFEK_clean_sbu_0, # of connection points: 5
#     Node 5, Type 0, BuildingBlock: BEQFEK_clean_sbu_0, # of connection points: 5
#     Node 6, Type 0, BuildingBlock: BEQFEK_clean_sbu_0, # of connection points: 5
#     Node 7, Type 0, BuildingBlock: BEQFEK_clean_sbu_0, # of connection points: 5
#     Edge 8, Type (0, 0), BuildingBlock: OJICUG_clean_linker_0, # of connection points: 2
#     Edge 9, Type (0, 0), BuildingBlock: OJICUG_clean_linker_0, # of connection points: 2
#     Edge 10, Type (0, 0), BuildingBlock: OJICUG_clean_linker_0, # of connection points: 2
#     Edge 11, Type (0, 0), BuildingBlock: OJICUG_clean_linker_0, # of connection points: 2
#     Edge 12, Type (0, 0), BuildingBlock: OJICUG_clean_linker_0, # of connection points: 2
#     Edge 13, Type (0, 0), BuildingBlock: OJICUG_clean_linker_0, # of connection points: 2
#     Edge 14, Type (0, 0), BuildingBlock: OJICUG_clean_linker_0, # of connection points: 2
#     Edge 15, Type (0, 0), BuildingBlock: OJICUG_clean_linker_0, # of connection points: 2
#     Edge 16, Type (0, 0), BuildingBlock: OJICUG_clean_linker_0, # of connection points: 2
#     Edge 17, Type (0, 0), BuildingBlock: OJICUG_clean_linker_0, # of connection points: 2
#     Edge 18, Type (0, 0), BuildingBlock: OJICUG_clean_linker_0, # of connection points: 2
#     Edge 19, Type (0, 0), BuildingBlock: OJICUG_clean_linker_0, # of connection points: 2
#     Edge 20, Type (0, 0), BuildingBlock: OJICUG_clean_linker_0, # of connection points: 2
#     Edge 21, Type (0, 0), BuildingBlock: OJICUG_clean_linker_0, # of connection points: 2
#     Edge 22, Type (0, 0), BuildingBlock: OJICUG_clean_linker_0, # of connection points: 2
#     Edge 23, Type (0, 0), BuildingBlock: OJICUG_clean_linker_0, # of connection points: 2
#     Edge 24, Type (0, 0), BuildingBlock: OJICUG_clean_linker_0, # of connection points: 2
#     Edge 25, Type (0, 0), BuildingBlock: OJICUG_clean_linker_0, # of connection points: 2
#     Edge 26, Type (0, 0), BuildingBlock: OJICUG_clean_linker_0, # of connection points: 2
#     Edge 27, Type (0, 0), BuildingBlock: OJICUG_clean_linker_0, # of connection points: 2
# Relax obj value: 0.473
# Max RMSD: 0.199
# Mean RMSD: 0.199
data_MOF--net-zfa--node1-BEQFEK_clean_sbu_0--edge1-OJICUG_clean_linker_0
_symmetry_space_group_name_H-M    P1
_symmetry_Int_Tables_number       1
_symmetry_cell_setting            triclinic
loop_
_symmetry_equiv_pos_as_xyz
'x, y, z'
_cell_length_a     23.41265
_cell_length_b     23.430776
_cell_length_c     27.659837
_cell_angle_alpha  89.688419
_cell_angle_beta   89.815681
_cell_angle_gamma 90.055884
loop_
_atom_site_label
_atom_site_type_symbol
_atom_site_fract_x
_atom_site_fract_y
_atom_site_fract_z
_atom_type_partial_charge
Co0 Co 0.20608 0.22268 0.30384 0.0
Co1 Co 0.2147 0.34912 0.3361 0.0
C2 C 0.21612 0.25846 0.40868 0.0
O3 O 0.21907 0.22115 0.37568 0.0
O4 O 0.21065 0.31082 0.39859 0.0
C5 C 0.13334 0.13737 0.32318 0.0
O6 O 0.12142 0.17803 0.35407 0.0
C7 C 0.17151 0.44872 0.38229 0.0
C8 C 0.20811 0.51911 0.33924 0.0
C9 C 0.16627 0.5069 0.3737 0.0
N10 N 0.2115 0.42765 0.35245 0.0
N11 N 0.23536 0.47024 0.32841 0.0
C12 C 0.13191 0.41145 0.4115 0.0
H13 H 0.1233 0.37097 0.39235 0.0
H14 H 0.09058 0.43214 0.41956 0.0
H15 H 0.15292 0.40086 0.44629 0.0
C16 C 0.09454 0.26575 0.26323 0.0
N17 N 0.14621 0.27491 0.28391 0.0
N18 N 0.14899 0.32847 0.29749 0.0
C19 C 0.09888 0.35443 0.28584 0.0
C20 C 0.06156 0.31494 0.26557 0.0
C21 C 0.07713 0.21221 0.23815 0.0
H22 H 0.11511 0.18821 0.22566 0.0
H23 H 0.05117 0.18572 0.26311 0.0
H24 H 0.04985 0.22252 0.20652 0.0
O25 O 0.28447 0.24072 0.27589 0.0
O26 O 0.2915 0.32784 0.30748 0.0
H27 H 0.05719 0.43344 0.2667 0.0
H28 H 0.06479 0.42067 0.32994 0.0
C29 C 0.08612 0.41577 0.29442 0.0
H30 H 0.12618 0.44047 0.29268 0.0
H31 H 0.26586 0.46521 0.30117 0.0
O32 O 0.17371 0.14503 0.29269 0.0
C33 C 0.31394 0.28544 0.2854 0.0
Co34 Co 0.37824 0.70566 0.80426 0.0
Co35 Co 0.2504 0.71107 0.83325 0.0
C36 C 0.33677 0.71617 0.90815 0.0
O37 O 0.37519 0.71922 0.87579 0.0
O38 O 0.28494 0.70884 0.89719 0.0
C39 C 0.46138 0.63222 0.82723 0.0
O40 O 0.41817 0.61995 0.85581 0.0
C41 C 0.1496 0.66462 0.87507 0.0
C42 C 0.08072 0.69961 0.82977 0.0
C43 C 0.09211 0.65798 0.86454 0.0
N44 N 0.1712 0.7056 0.84631 0.0
N45 N 0.12945 0.72837 0.8208 0.0
C46 C 0.1863 0.62572 0.90521 0.0
H47 H 0.22838 0.61922 0.88771 0.0
H48 H 0.16667 0.58338 0.91157 0.0
H49 H 0.19362 0.64605 0.94078 0.0
C50 C 0.33883 0.59519 0.75925 0.0
N51 N 0.32808 0.64525 0.78206 0.0
N52 N 0.27438 0.64586 0.79577 0.0
C53 C 0.25009 0.59544 0.78304 0.0
C54 C 0.29059 0.56016 0.76149 0.0
C55 C 0.3931 0.58225 0.73299 0.0
H56 H 0.42151 0.61976 0.73175 0.0
H57 H 0.41427 0.54478 0.74981 0.0
H58 H 0.3838 0.57212 0.69481 0.0
O59 O 0.3605 0.78344 0.77559 0.0
O60 O 0.27162 0.78812 0.80475 0.0
H61 H 0.17528 0.55138 0.75782 0.0
H62 H 0.17762 0.56363 0.82159 0.0
C63 C 0.18779 0.58264 0.78591 0.0
H64 H 0.16306 0.6223 0.78034 0.0
H65 H 0.13527 0.75923 0.79389 0.0
O66 O 0.45697 0.67397 0.79758 0.0
C67 C 0.31456 0.81166 0.7838 0.0
Co68 Co 0.88865 0.8796 0.30292 0.0
Co69 Co 0.88349 0.75183 0.33291 0.0
C70 C 0.87986 0.83931 0.40722 0.0
O71 O 0.87658 0.8777 0.37483 0.0
O72 O 0.886 0.78742 0.39626 0.0
C73 C 0.96286 0.96228 0.32301 0.0
O74 O 0.9756 0.91897 0.35127 0.0
C75 C 0.93072 0.65284 0.37725 0.0
C76 C 0.89843 0.58215 0.33292 0.0
C77 C 0.93845 0.59524 0.3683 0.0
N78 N 0.89028 0.67293 0.34738 0.0
N79 N 0.86917 0.63007 0.32237 0.0
C80 C 0.9686 0.6908 0.40688 0.0
H81 H 0.97609 0.73197 0.38802 0.0
H82 H 1.01055 0.67128 0.41485 0.0
H83 H 0.94686 0.69972 0.4417 0.0
C84 C 0.99874 0.84018 0.25689 0.0
N85 N 0.94869 0.8294 0.28018 0.0
N86 N 0.94834 0.77593 0.29455 0.0
C87 C 0.99897 0.75191 0.28196 0.0
C88 C 1.03402 0.7923 0.25963 0.0
C89 C 1.01177 0.89432 0.23021 0.0
H90 H 0.9739 0.92215 0.22811 0.0
H91 H 1.04841 0.9163 0.24736 0.0
H92 H 1.02331 0.88477 0.19231 0.0
O93 O 0.81068 0.86108 0.27566 0.0
O94 O 0.80604 0.77207 0.30474 0.0
H95 H 1.04474 0.67712 0.25902 0.0
H96 H 1.03086 0.68134 0.3226 0.0
C97 C 1.01261 0.69 0.28647 0.0
H98 H 0.97341 0.66447 0.28118 0.0
H99 H 0.83915 0.63456 0.2948 0.0
O100 O 0.92021 0.95816 0.29454 0.0
C101 C 0.7825 0.81503 0.28394 0.0
Co102 Co 0.71768 0.38587 0.80671 0.0
Co103 Co 0.84759 0.37576 0.82909 0.0
C104 C 0.7639 0.36913 0.90801 0.0
O105 O 0.72299 0.37454 0.87842 0.0
O106 O 0.81526 0.36983 0.89384 0.0
C107 C 0.63403 0.45948 0.82992 0.0
O108 O 0.67699 0.47205 0.85832 0.0
C109 C 0.94774 0.42138 0.87087 0.0
C110 C 1.01704 0.3905 0.82382 0.0
C111 C 1.00502 0.42971 0.86011 0.0
N112 N 0.92681 0.38171 0.84096 0.0
N113 N 0.96883 0.36135 0.81429 0.0
C114 C 0.9104 0.4579 0.9024 0.0
H115 H 0.86762 0.46329 0.88604 0.0
H116 H 0.92865 0.50076 0.90877 0.0
H117 H 0.90483 0.43628 0.93789 0.0
C118 C 0.75688 0.49605 0.76062 0.0
N119 N 0.76784 0.4454 0.78279 0.0
N120 N 0.82198 0.44378 0.79489 0.0
C121 C 0.84628 0.4944 0.78197 0.0
C122 C 0.80549 0.5305 0.7617 0.0
C123 C 0.70179 0.51027 0.7363 0.0
H124 H 0.67378 0.47252 0.73435 0.0
H125 H 0.68082 0.54631 0.75517 0.0
H126 H 0.70964 0.52308 0.69835 0.0
O127 O 0.73406 0.30704 0.77869 0.0
O128 O 0.82635 0.30123 0.79841 0.0
H129 H 0.92064 0.53964 0.75641 0.0
H130 H 0.91923 0.5246 0.81993 0.0
C131 C 0.90861 0.50713 0.78398 0.0
H132 H 0.93332 0.4678 0.77713 0.0
H133 H 0.96344 0.33203 0.78641 0.0
O134 O 0.63888 0.41767 0.80074 0.0
C135 C 0.78083 0.27863 0.78153 0.0
Co136 Co 0.70506 0.38213 0.20842 0.0
Co137 Co 0.71966 0.25138 0.19433 0.0
C138 C 0.72396 0.33131 0.11065 0.0
O139 O 0.714 0.37373 0.13748 0.0
O140 O 0.72852 0.28153 0.12816 0.0
C141 C 0.6339 0.46807 0.18313 0.0
O142 O 0.62062 0.42596 0.15415 0.0
C143 C 0.67483 0.15082 0.15334 0.0
C144 C 0.70459 0.08201 0.20157 0.0
C145 C 0.66638 0.09368 0.16432 0.0
N146 N 0.7138 0.17203 0.18381 0.0
N147 N 0.73349 0.13032 0.21127 0.0
C148 C 0.63874 0.18778 0.12098 0.0
H149 H 0.63438 0.23122 0.13608 0.0
H150 H 0.59536 0.17024 0.1155 0.0
H151 H 0.65997 0.19143 0.08517 0.0
C152 C 0.59461 0.34354 0.25463 0.0
N153 N 0.64624 0.33243 0.23427 0.0
N154 N 0.64992 0.27745 0.22576 0.0
C155 C 0.59973 0.25266 0.23935 0.0
C156 C 0.56209 0.29381 0.25655 0.0
C157 C 0.5762 0.40095 0.27175 0.0
H158 H 0.61393 0.42786 0.279 0.0
H159 H 0.5478 0.42058 0.24435 0.0
H160 H 0.55199 0.39808 0.30597 0.0
O161 O 0.78508 0.3676 0.2348 0.0
O162 O 0.79193 0.2728 0.2289 0.0
H163 H 0.55532 0.17895 0.26704 0.0
H164 H 0.57062 0.17799 0.20365 0.0
C165 C 0.58791 0.19017 0.23932 0.0
H166 H 0.62751 0.16619 0.24709 0.0
H167 H 0.76216 0.13598 0.23966 0.0
O168 O 0.67437 0.46126 0.21343 0.0
C169 C 0.81367 0.3212 0.23974 0.0
Co170 Co 0.21782 0.20553 0.71361 0.0
Co171 Co 0.34541 0.21165 0.6837 0.0
C172 C 0.25797 0.21482 0.60926 0.0
O173 O 0.21977 0.21787 0.64177 0.0
O174 O 0.31001 0.20889 0.6201 0.0
C175 C 0.13448 0.13185 0.69271 0.0
O176 O 0.17759 0.11907 0.66432 0.0
C177 C 0.44556 0.1658 0.6407 0.0
C178 C 0.51519 0.19981 0.68547 0.0
C179 C 0.50318 0.15903 0.65051 0.0
N180 N 0.42445 0.20622 0.6699 0.0
N181 N 0.46665 0.22839 0.69512 0.0
C182 C 0.40842 0.12723 0.61094 0.0
H183 H 0.36683 0.1199 0.62914 0.0
H184 H 0.42821 0.08523 0.60396 0.0
H185 H 0.40016 0.14828 0.57565 0.0
C186 C 0.2579 0.09505 0.759 0.0
N187 N 0.26835 0.14542 0.73608 0.0
N188 N 0.32192 0.14636 0.72196 0.0
C189 C 0.34638 0.09586 0.73448 0.0
C190 C 0.30616 0.06023 0.75638 0.0
C191 C 0.20364 0.08128 0.78517 0.0
H192 H 0.17551 0.11889 0.78729 0.0
H193 H 0.18208 1.04471 0.76758 0.0
H194 H 0.21293 0.06939 0.82307 0.0
O195 O 0.23587 0.28359 0.74112 0.0
O196 O 0.32467 0.28868 0.7118 0.0
H197 H 0.42151 0.05125 0.75849 0.0
H198 H 0.41793 0.06459 0.6948 0.0
C199 C 0.40856 0.08301 0.73068 0.0
H200 H 0.43354 0.12254 0.73599 0.0
H201 H 0.46129 0.25868 0.72228 0.0
O202 O 0.13916 0.17392 0.72163 0.0
C203 C 0.28177 0.31199 0.73272 0.0
Co204 Co 0.38805 0.72217 0.2123 0.0
Co205 Co 0.38353 0.84954 0.18278 0.0
C206 C 0.37852 0.76344 0.10813 0.0
O207 O 0.37458 0.72544 0.1408 0.0
O208 O 0.38646 0.81523 0.11872 0.0
C209 C 0.46146 0.6402 0.18907 0.0
O210 O 0.47396 0.68422 0.16144 0.0
C211 C 0.43096 0.95053 0.14216 0.0
C212 C 0.39551 1.01883 0.1876 0.0
C213 C 0.43789 1.00772 0.1535 0.0
N214 N 0.38924 0.92876 0.17006 0.0
N215 N 0.3662 0.97022 0.19558 0.0
C216 C 0.47002 0.914 0.11215 0.0
H217 H 0.47606 0.8717 0.12941 0.0
H218 H 0.51258 0.93337 0.10632 0.0
H219 H 0.45001 0.9072 0.07634 0.0
C220 C 0.49835 0.76061 0.25798 0.0
N221 N 0.44852 0.77177 0.23482 0.0
N222 N 0.44849 0.82535 0.22083 0.0
C223 C 0.4991 0.84915 0.23378 0.0
C224 C 0.53394 0.80838 0.25563 0.0
C225 C 0.51026 0.7067 0.28515 0.0
H226 H 0.47284 0.67812 0.28545 0.0
H227 H 0.54861 0.68555 0.26988 0.0
H228 H 0.51866 0.71664 0.32355 0.0
O229 O 0.31067 0.73983 0.24093 0.0
O230 O 0.30611 0.82833 0.2109 0.0
H231 H 0.5433 0.92339 0.25981 0.0
H232 H 0.53158 0.92184 0.19593 0.0
C233 C 0.51221 0.91135 0.23139 0.0
H234 H 0.47255 0.93611 0.23683 0.0
H235 H 0.33479 0.96416 0.22197 0.0
O236 O 0.41955 0.64362 0.21857 0.0
C237 C 0.28252 0.78565 0.23221 0.0
Co238 Co 0.87716 0.88596 0.71256 0.0
Co239 Co 0.74961 0.87928 0.68321 0.0
C240 C 0.83732 0.87753 0.60842 0.0
O241 O 0.87558 0.87452 0.64071 0.0
O242 O 0.78522 0.88278 0.61953 0.0
C243 C 0.96047 0.96033 0.6916 0.0
O244 O 0.91773 0.97314 0.66293 0.0
C245 C 0.64939 0.92509 0.6404 0.0
C246 C 0.57978 0.89034 0.68546 0.0
C247 C 0.59171 0.93154 0.6504 0.0
N248 N 0.67058 0.88446 0.6696 0.0
N249 N 0.6284 0.86185 0.695 0.0
C250 C 0.68646 0.96411 0.61043 0.0
H251 H 0.72802 0.97134 0.62841 0.0
H252 H 0.6666 1.00615 0.60352 0.0
H253 H 0.69479 0.9435 0.57511 0.0
C254 C 0.83627 0.99582 0.7577 0.0
N255 N 0.82616 0.94557 0.73501 0.0
N256 N 0.77263 0.94444 0.72109 0.0
C257 C 0.74787 0.99474 0.73347 0.0
C258 C 0.78783 1.03042 0.75508 0.0
C259 C 0.89033 1.0096 0.78375 0.0
H260 H 0.91852 0.97204 0.78603 0.0
H261 H 0.91191 1.04634 0.76597 0.0
H262 H 0.88081 1.02117 0.82162 0.0
O263 O 0.85954 0.80751 0.74032 0.0
O264 O 0.77077 0.80212 0.71153 0.0
H265 H 0.67246 1.03872 0.75768 0.0
H266 H 0.67628 1.02608 0.694 0.0
C267 C 0.68564 1.00731 0.72988 0.0
H268 H 0.66084 0.9676 0.73537 0.0
H269 H 0.6338 0.83132 0.72221 0.0
O270 O 0.95558 0.91791 0.72054 0.0
C271 C 0.81381 0.7789 0.7323 0.0
C272 C 1.02572 0.5598 0.32878 0.0
C273 C 0.99474 0.56763 0.37163 0.0
H274 H 0.10586 0.54111 0.29632 0.0
C275 C 1.02199 0.55924 0.4163 0.0
H276 H 1.00601 0.56642 0.29384 0.0
C277 C 0.07959 0.54307 0.41776 0.0
C278 C 0.11047 0.53595 0.37457 0.0
H279 H 0.999 0.56615 0.4498 0.0
H280 H 0.09961 0.53471 0.45233 0.0
C281 C 0.08332 0.54632 0.33027 0.0
C282 C 1.04133 0.5167 0.82005 0.0
C283 C 1.03257 0.48607 0.86311 0.0
H284 H 0.06116 0.59653 0.78715 0.0
C285 C 1.04008 0.51366 0.90761 0.0
H286 H 1.03521 0.49679 0.78519 0.0
C287 C 0.05577 0.57135 0.90874 0.0
C288 C 0.06377 0.60186 0.86538 0.0
H289 H 1.03263 0.49093 0.94125 0.0
H290 H 0.06309 0.59175 0.94322 0.0
C291 C 0.05491 0.57428 0.82118 0.0
C292 C 0.52653 1.04337 0.11179 0.0
C293 C 0.49434 1.03553 0.15425 0.0
H294 H 0.6083 0.06601 0.08159 0.0
C295 C 0.52035 1.04422 0.19923 0.0
H296 H 0.50735 1.03637 0.07673 0.0
C297 C 0.578 0.05737 0.20201 0.0
C298 C 0.61028 0.0659 0.15984 0.0
H299 H 0.49678 1.0382 0.23263 0.0
H300 H 0.59663 0.06354 0.2374 0.0
C301 C 0.58429 0.05858 0.11457 0.0
C302 C 0.55543 1.01674 0.60458 0.0
C303 C 0.56316 0.98743 0.64851 0.0
H304 H 0.53204 0.0961 0.57055 0.0
C305 C 0.55401 1.01617 0.69217 0.0
H306 H 0.56309 0.99547 0.5705 0.0
C307 C 0.54032 0.07372 0.69219 0.0
C308 C 0.53154 0.10307 0.64856 0.0
H309 H 0.56007 0.99484 0.7266 0.0
H310 H 0.53406 0.09459 0.72664 0.0
C311 C 0.53948 0.07435 0.60461 0.0
C312 C 0.47266 0.31186 0.30633 0.0
C313 C 0.49871 0.28818 0.26523 0.0
H314 H 0.39482 0.33101 0.34384 0.0
C315 C 0.46316 0.26106 0.23115 0.0
H316 H 0.49822 0.32979 0.33494 0.0
C317 C 0.40329 0.2593 0.23741 0.0
C318 C 0.37731 0.28595 0.27728 0.0
H319 H 0.48155 0.24215 0.19905 0.0
H320 H 0.37729 0.2383 0.2105 0.0
C321 C 0.41302 0.31181 0.31175 0.0
C322 C 0.2847 0.96955 0.80459 0.0
C323 C 0.31043 0.99649 0.7645 0.0
H324 H 0.26465 0.89112 0.84114 0.0
C325 C 0.33862 0.96133 0.73055 0.0
H326 H 0.26511 0.99412 0.83296 0.0
C327 C 0.34074 0.90153 0.73651 0.0
C328 C 0.31301 0.87492 0.77574 0.0
H329 H 0.35827 0.97985 0.69867 0.0
H330 H 0.36296 0.87606 0.70986 0.0
C331 C 0.28509 0.9099 0.80964 0.0
C332 C 0.62411 0.78368 0.30311 0.0
C333 C 0.5977 0.81186 0.26407 0.0
H334 H 0.70207 0.7614 0.339 0.0
C335 C 0.63351 0.84159 0.23121 0.0
H336 H 0.59916 0.76235 0.33056 0.0
C337 C 0.69327 0.84315 0.23734 0.0
C338 C 0.71931 0.81334 0.27558 0.0
H339 H 0.61559 0.86292 0.19999 0.0
H340 H 0.71916 0.86675 0.21158 0.0
C341 C 0.68377 0.78361 0.30828 0.0
C342 C 0.75305 0.18934 0.7349 0.0
C343 C 0.78096 0.21546 0.77385 0.0
H344 H 0.73541 0.1113 0.69741 0.0
C345 C 0.80852 0.18013 0.80785 0.0
H346 H 0.73108 0.21517 0.70824 0.0
C347 C 0.80868 0.12056 0.80306 0.0
C348 C 0.78317 0.09403 0.76308 0.0
H349 H 0.82903 0.19864 0.83915 0.0
H350 H 0.82806 0.09574 0.83149 0.0
C351 C 0.75501 0.12953 0.72915 0.0
C352 C 0.97111 0.36324 0.23424 0.0
C353 C 0.99764 0.31883 0.26029 0.0
H354 H 0.89244 0.40001 0.20899 0.0
C355 C 0.96227 0.27712 0.28195 0.0
H356 H 0.99647 0.39479 0.21525 0.0
C357 C 0.90258 0.27887 0.27674 0.0
C358 C 0.87611 0.32344 0.25102 0.0
H359 H 0.98077 0.24277 0.30299 0.0
H360 H 0.87706 0.24501 0.29265 0.0
C361 C 0.91118 0.36603 0.23037 0.0
C362 C 0.25702 0.46079 0.78615 0.0
C363 C 0.28631 0.49655 0.75295 0.0
H364 H 0.23173 0.37521 0.80594 0.0
C365 C 0.31311 0.47026 0.71329 0.0
H366 H 0.23657 0.47871 0.81772 0.0
C367 C 0.31256 0.41069 0.70793 0.0
C368 C 0.28349 0.37514 0.74106 0.0
H369 H 0.33371 0.49527 0.68548 0.0
H370 H 0.33383 0.39248 0.67678 0.0
C371 C 0.25481 0.4011 0.77986 0.0
C372 C 0.12435 0.81442 0.21127 0.0
C373 C 0.09777 0.78873 0.25156 0.0
H374 H 0.20258 0.83482 0.17455 0.0
C375 C 0.13328 0.76128 0.28578 0.0
H376 H 0.09947 0.83355 0.18278 0.0
C377 C 0.19308 0.75966 0.27982 0.0
C378 C 0.21931 0.7872 0.24032 0.0
H379 H 0.11503 0.74179 0.31784 0.0
H380 H 0.21883 0.73789 0.30663 0.0
C381 C 0.18403 0.81454 0.20621 0.0
C382 C 0.8409 0.68942 0.77969 0.0
C383 C 0.81251 0.71564 0.74075 0.0
H384 H 0.85917 0.61135 0.8177 0.0
C385 C 0.78417 0.68026 0.70753 0.0
H386 H 0.86357 0.71517 0.80577 0.0
C387 C 0.78387 0.62065 0.71302 0.0
C388 C 0.81004 0.59413 0.75296 0.0
H389 H 0.7633 0.69867 0.67622 0.0
H390 H 0.76403 0.59576 0.68507 0.0
C391 C 0.8389 0.62963 0.78611 0.0
C392 C 0.1899 0.27028 0.49523 0.0
C393 C 0.22163 0.2417 0.45966 0.0
H394 H 0.17564 0.28284 0.57099 0.0
C395 C 0.26194 0.2006 0.47356 0.0
H396 H 0.15828 0.30188 0.48518 0.0
C397 C 0.27282 0.19078 0.5225 0.0
C398 C 0.24235 0.22072 0.55809 0.0
H399 H 0.28697 0.17822 0.44666 0.0
H400 H 0.30566 0.16047 0.53254 0.0
C401 C 0.1996 0.25925 0.54414 0.0
C402 C 0.33278 0.70496 0.04408 0.0
C403 C 0.37181 0.74761 0.05714 0.0
H404 H 0.29043 0.66219 0.98603 0.0
C405 C 0.40222 0.77702 0.02093 0.0
H406 H 0.30877 0.68185 0.07144 0.0
C407 C 0.3929 0.76471 0.97225 0.0
C408 C 0.35177 0.72408 0.95918 0.0
H409 H 0.43282 0.80985 0.03027 0.0
H410 H 0.41601 0.78865 0.94485 0.0
C411 C 0.32218 0.6939 0.9954 0.0
C412 C 0.89587 0.83473 0.54268 0.0
C413 C 0.85297 0.87276 0.55714 0.0
H414 H 0.93755 0.79387 0.48316 0.0
C415 C 0.82242 0.90343 0.52195 0.0
H416 H 0.91991 0.81061 0.56923 0.0
C417 C 0.83341 0.89489 0.47289 0.0
C418 C 0.87393 0.85435 0.45844 0.0
H419 H 0.78949 0.93341 0.5324 0.0
H420 H 0.80836 0.91791 0.44632 0.0
C421 C 0.90571 0.82498 0.49362 0.0
C422 C 0.7743 0.30874 0.03398 0.0
C423 C 0.73252 0.34025 0.05853 0.0
H424 H 0.81778 0.29456 0.96694 0.0
C425 C 0.7001 0.3809 0.03313 0.0
H426 H 0.79995 0.27737 0.05292 0.0
C427 C 0.70913 0.38951 0.98361 0.0
C428 C 0.75206 0.35902 0.95948 0.0
H429 H 0.66751 0.40553 0.05147 0.0
H430 H 0.68364 0.42086 0.96448 0.0
C431 C 0.78465 0.31875 0.98501 0.0
C432 C 1.02433 1.03204 0.27761 0.0
C433 C 1.00312 1.01025 0.32155 0.0
H434 H 0.08657 0.08625 0.24328 0.0
C435 C 1.02772 1.02789 0.36511 0.0
H436 H 1.00644 1.01857 0.24351 0.0
C437 C 0.07198 0.06744 0.36503 0.0
C438 C 0.094 0.08867 0.32131 0.0
H439 H 1.01259 1.011 0.3994 0.0
H440 H 0.08889 0.08181 0.39932 0.0
C441 C 0.07067 0.06993 0.27745 0.0
C442 C 0.52874 0.56966 0.87058 0.0
C443 C 0.50935 0.59201 0.82648 0.0
H444 H 0.58361 0.50973 0.90587 0.0
C445 C 0.5289 0.56819 0.78303 0.0
H446 H 0.51355 0.58683 0.90457 0.0
C447 C 0.5657 0.52115 0.78386 0.0
C448 C 0.58626 0.49995 0.82808 0.0
H449 H 0.51439 0.58445 0.74854 0.0
H450 H 0.57946 0.50286 0.74997 0.0
C451 C 0.56777 0.52491 0.87134 0.0
C452 C 0.52263 0.57323 0.14444 0.0
C453 C 0.50158 0.59235 0.18898 0.0
H454 H 0.58163 0.51867 0.10799 0.0
C455 C 0.52698 0.57312 0.23193 0.0
H456 H 0.50424 0.58836 0.11082 0.0
C457 C 0.57434 0.53689 0.23015 0.0
C458 C 0.594 0.5162 0.18556 0.0
H459 H 0.51166 0.5874 0.26672 0.0
H460 H 0.59386 0.52338 0.26369 0.0
C461 C 0.56758 0.53453 0.14279 0.0
C462 C 0.06693 0.06943 0.65009 0.0
C463 C 0.08616 0.09203 0.69394 0.0
H464 H 1.01202 1.00948 0.61538 0.0
C465 C 0.066 0.0688 0.73768 0.0
H466 H 0.08257 0.08617 0.61591 0.0
C467 C 1.02854 1.02217 0.73735 0.0
C468 C 1.00841 1.00059 0.6933 0.0
H469 H 0.08057 0.08519 0.77198 0.0
H470 H 1.01402 1.00442 0.77142 0.0
C471 C 1.02758 1.02494 0.64978 0.0
loop_
_geom_bond_atom_site_label_1
_geom_bond_atom_site_label_2
_geom_bond_distance
_geom_bond_site_symmetry_2
_ccdc_geom_bond_type
Co0 O3 1.970 . S
Co0 N17 1.989 . S
Co0 O25 1.967 . S
Co0 O32 1.920 . S
Co1 O4 1.966 . S
Co1 N10 2.022 . S
Co1 N18 1.993 . S
Co1 O26 1.941 . S
C2 O3 1.258 . S
C2 O4 1.263 . S
O3 Co0 1.970 . S
O3 C2 1.258 . S
O4 Co1 1.966 . S
O4 C2 1.263 . S
C5 O6 1.235 . S
C5 O32 1.289 . S
O6 C5 1.235 . S
C7 C9 1.400 . S
C7 N10 1.351 . S
C7 C12 1.501 . S
C8 C9 1.387 . S
C8 N11 1.341 . S
C9 C7 1.400 . S
C9 C8 1.387 . S
N10 Co1 2.022 . S
N10 C7 1.351 . S
N10 N11 1.365 . S
N11 C8 1.341 . S
N11 N10 1.365 . S
N11 H31 0.862 . S
C12 C7 1.501 . S
C12 H13 0.961 . S
C12 H14 0.961 . S
C12 H15 0.960 . S
H13 C12 0.961 . S
H14 C12 0.961 . S
H15 C12 0.960 . S
C16 N17 1.342 1_655 S
C16 C20 1.401 . S
C16 C21 1.499 . S
N17 Co0 1.989 . S
N17 C16 1.342 1_455 S
N17 N18 1.388 . S
N18 Co1 1.993 . S
N18 N17 1.388 . S
N18 C19 1.346 1_455 S
C19 N18 1.346 1_655 S
C19 C20 1.396 . S
C19 C29 1.510 . S
C20 C16 1.401 . S
C20 C19 1.396 . S
C21 C16 1.499 . S
C21 H22 0.959 . S
C21 H23 0.960 . S
C21 H24 0.961 . S
H22 C21 0.959 . S
H23 C21 0.960 . S
H24 C21 0.961 . S
O25 Co0 1.967 . S
O25 C33 1.258 . S
O26 Co1 1.941 . S
O26 C33 1.266 . S
H27 C29 0.959 . S
H28 C29 0.961 . S
C29 C19 1.510 . S
C29 H27 0.959 . S
C29 H28 0.961 . S
C29 H30 0.960 . S
H30 C29 0.960 . S
H31 N11 0.862 . S
O32 Co0 1.920 . S
O32 C5 1.289 . S
C33 O25 1.258 . S
C33 O26 1.266 . S
Co34 O37 1.970 . S
Co34 N51 1.989 . S
Co34 O59 1.967 . S
Co34 O66 1.920 . S
Co35 O38 1.966 . S
Co35 N44 2.022 . S
Co35 N52 1.993 . S
Co35 O60 1.941 . S
C36 O37 1.258 . S
C36 O38 1.263 . S
O37 Co34 1.970 . S
O37 C36 1.258 . S
O38 Co35 1.966 . S
O38 C36 1.263 . S
C39 O40 1.235 . S
C39 O66 1.289 . S
O40 C39 1.235 . S
C41 C43 1.400 . S
C41 N44 1.351 . S
C41 C46 1.501 . S
C42 C43 1.387 . S
C42 N45 1.341 . S
C43 C41 1.400 . S
C43 C42 1.387 . S
N44 Co35 2.022 . S
N44 C41 1.351 . S
N44 N45 1.365 . S
N45 C42 1.341 . S
N45 N44 1.365 . S
N45 H65 0.862 . S
C46 C41 1.501 . S
C46 H47 0.961 . S
C46 H48 0.961 . S
C46 H49 0.960 . S
H47 C46 0.961 . S
H48 C46 0.961 . S
H49 C46 0.960 . S
C50 N51 1.342 . S
C50 C54 1.401 . S
C50 C55 1.499 . S
N51 Co34 1.989 . S
N51 C50 1.342 . S
N51 N52 1.388 . S
N52 Co35 1.993 . S
N52 N51 1.388 . S
N52 C53 1.346 . S
C53 N52 1.346 . S
C53 C54 1.396 . S
C53 C63 1.510 . S
C54 C50 1.401 . S
C54 C53 1.396 . S
C55 C50 1.499 . S
C55 H56 0.959 . S
C55 H57 0.960 . S
C55 H58 0.961 . S
H56 C55 0.959 . S
H57 C55 0.960 . S
H58 C55 0.961 . S
O59 Co34 1.967 . S
O59 C67 1.258 . S
O60 Co35 1.941 . S
O60 C67 1.266 . S
H61 C63 0.959 . S
H62 C63 0.961 . S
C63 C53 1.510 . S
C63 H61 0.959 . S
C63 H62 0.961 . S
C63 H64 0.960 . S
H64 C63 0.960 . S
H65 N45 0.862 . S
O66 Co34 1.920 . S
O66 C39 1.289 . S
C67 O59 1.258 . S
C67 O60 1.266 . S
Co68 O71 1.970 . S
Co68 N85 1.989 . S
Co68 O93 1.967 . S
Co68 O100 1.920 . S
Co69 O72 1.966 . S
Co69 N78 2.022 . S
Co69 N86 1.993 . S
Co69 O94 1.941 . S
C70 O71 1.258 . S
C70 O72 1.263 . S
O71 Co68 1.970 . S
O71 C70 1.258 . S
O72 Co69 1.966 . S
O72 C70 1.263 . S
C73 O74 1.235 . S
C73 O100 1.289 . S
O74 C73 1.235 . S
C75 C77 1.400 . S
C75 N78 1.351 . S
C75 C80 1.501 . S
C76 C77 1.387 . S
C76 N79 1.341 . S
C77 C75 1.400 . S
C77 C76 1.387 . S
N78 Co69 2.022 . S
N78 C75 1.351 . S
N78 N79 1.365 . S
N79 C76 1.341 . S
N79 N78 1.365 . S
N79 H99 0.862 . S
C80 C75 1.501 . S
C80 H81 0.961 . S
C80 H82 0.961 . S
C80 H83 0.960 . S
H81 C80 0.961 . S
H82 C80 0.961 . S
H83 C80 0.960 . S
C84 N85 1.342 1_455 S
C84 C88 1.401 . S
C84 C89 1.499 . S
N85 Co68 1.989 . S
N85 C84 1.342 1_655 S
N85 N86 1.388 . S
N86 Co69 1.993 . S
N86 N85 1.388 . S
N86 C87 1.346 1_655 S
C87 N86 1.346 1_455 S
C87 C88 1.396 . S
C87 C97 1.510 . S
C88 C84 1.401 . S
C88 C87 1.396 . S
C89 C84 1.499 . S
C89 H90 0.959 . S
C89 H91 0.960 . S
C89 H92 0.961 . S
H90 C89 0.959 . S
H91 C89 0.960 . S
H92 C89 0.961 . S
O93 Co68 1.967 . S
O93 C101 1.258 . S
O94 Co69 1.941 . S
O94 C101 1.266 . S
H95 C97 0.959 . S
H96 C97 0.961 . S
C97 C87 1.510 . S
C97 H95 0.959 . S
C97 H96 0.961 . S
C97 H98 0.960 . S
H98 C97 0.960 . S
H99 N79 0.862 . S
O100 Co68 1.920 . S
O100 C73 1.289 . S
C101 O93 1.258 . S
C101 O94 1.266 . S
Co102 O105 1.970 . S
Co102 N119 1.989 . S
Co102 O127 1.967 . S
Co102 O134 1.920 . S
Co103 O106 1.966 . S
Co103 N112 2.022 . S
Co103 N120 1.993 . S
Co103 O128 1.941 . S
C104 O105 1.258 . S
C104 O106 1.263 . S
O105 Co102 1.970 . S
O105 C104 1.258 . S
O106 Co103 1.966 . S
O106 C104 1.263 . S
C107 O108 1.235 . S
C107 O134 1.289 . S
O108 C107 1.235 . S
C109 C111 1.400 . S
C109 N112 1.351 . S
C109 C114 1.501 . S
C110 C111 1.387 . S
C110 N113 1.341 . S
C111 C109 1.400 . S
C111 C110 1.387 . S
N112 Co103 2.022 . S
N112 C109 1.351 . S
N112 N113 1.365 . S
N113 C110 1.341 . S
N113 N112 1.365 . S
N113 H133 0.862 . S
C114 C109 1.501 . S
C114 H115 0.961 . S
C114 H116 0.961 . S
C114 H117 0.960 . S
H115 C114 0.961 . S
H116 C114 0.961 . S
H117 C114 0.960 . S
C118 N119 1.342 . S
C118 C122 1.401 . S
C118 C123 1.499 . S
N119 Co102 1.989 . S
N119 C118 1.342 . S
N119 N120 1.388 . S
N120 Co103 1.993 . S
N120 N119 1.388 . S
N120 C121 1.346 . S
C121 N120 1.346 . S
C121 C122 1.396 . S
C121 C131 1.510 . S
C122 C118 1.401 . S
C122 C121 1.396 . S
C123 C118 1.499 . S
C123 H124 0.959 . S
C123 H125 0.960 . S
C123 H126 0.961 . S
H124 C123 0.959 . S
H125 C123 0.960 . S
H126 C123 0.961 . S
O127 Co102 1.967 . S
O127 C135 1.258 . S
O128 Co103 1.941 . S
O128 C135 1.266 . S
H129 C131 0.959 . S
H130 C131 0.961 . S
C131 C121 1.510 . S
C131 H129 0.959 . S
C131 H130 0.961 . S
C131 H132 0.960 . S
H132 C131 0.960 . S
H133 N113 0.862 . S
O134 Co102 1.920 . S
O134 C107 1.289 . S
C135 O127 1.258 . S
C135 O128 1.266 . S
Co136 O139 1.970 . S
Co136 N153 1.989 . S
Co136 O161 1.967 . S
Co136 O168 1.920 . S
Co137 O140 1.966 . S
Co137 N146 2.022 . S
Co137 N154 1.993 . S
Co137 O162 1.941 . S
C138 O139 1.258 . S
C138 O140 1.263 . S
O139 Co136 1.970 . S
O139 C138 1.258 . S
O140 Co137 1.966 . S
O140 C138 1.263 . S
C141 O142 1.235 . S
C141 O168 1.289 . S
O142 C141 1.235 . S
C143 C145 1.400 . S
C143 N146 1.351 . S
C143 C148 1.501 . S
C144 C145 1.387 . S
C144 N147 1.341 . S
C145 C143 1.400 . S
C145 C144 1.387 . S
N146 Co137 2.022 . S
N146 C143 1.351 . S
N146 N147 1.365 . S
N147 C144 1.341 . S
N147 N146 1.365 . S
N147 H167 0.862 . S
C148 C143 1.501 . S
C148 H149 0.961 . S
C148 H150 0.961 . S
C148 H151 0.960 . S
H149 C148 0.961 . S
H150 C148 0.961 . S
H151 C148 0.960 . S
C152 N153 1.342 . S
C152 C156 1.401 . S
C152 C157 1.499 . S
N153 Co136 1.989 . S
N153 C152 1.342 . S
N153 N154 1.388 . S
N154 Co137 1.993 . S
N154 N153 1.388 . S
N154 C155 1.346 . S
C155 N154 1.346 . S
C155 C156 1.396 . S
C155 C165 1.510 . S
C156 C152 1.401 . S
C156 C155 1.396 . S
C157 C152 1.499 . S
C157 H158 0.959 . S
C157 H159 0.960 . S
C157 H160 0.961 . S
H158 C157 0.959 . S
H159 C157 0.960 . S
H160 C157 0.961 . S
O161 Co136 1.967 . S
O161 C169 1.258 . S
O162 Co137 1.941 . S
O162 C169 1.266 . S
H163 C165 0.959 . S
H164 C165 0.961 . S
C165 C155 1.510 . S
C165 H163 0.959 . S
C165 H164 0.961 . S
C165 H166 0.960 . S
H166 C165 0.960 . S
H167 N147 0.862 . S
O168 Co136 1.920 . S
O168 C141 1.289 . S
C169 O161 1.258 . S
C169 O162 1.266 . S
Co170 O173 1.970 . S
Co170 N187 1.989 . S
Co170 O195 1.967 . S
Co170 O202 1.920 . S
Co171 O174 1.966 . S
Co171 N180 2.022 . S
Co171 N188 1.993 . S
Co171 O196 1.941 . S
C172 O173 1.258 . S
C172 O174 1.263 . S
O173 Co170 1.970 . S
O173 C172 1.258 . S
O174 Co171 1.966 . S
O174 C172 1.263 . S
C175 O176 1.235 . S
C175 O202 1.289 . S
O176 C175 1.235 . S
C177 C179 1.400 . S
C177 N180 1.351 . S
C177 C182 1.501 . S
C178 C179 1.387 . S
C178 N181 1.341 . S
C179 C177 1.400 . S
C179 C178 1.387 . S
N180 Co171 2.022 . S
N180 C177 1.351 . S
N180 N181 1.365 . S
N181 C178 1.341 . S
N181 N180 1.365 . S
N181 H201 0.862 . S
C182 C177 1.501 . S
C182 H183 0.961 . S
C182 H184 0.961 . S
C182 H185 0.960 . S
H183 C182 0.961 . S
H184 C182 0.961 . S
H185 C182 0.960 . S
C186 N187 1.342 1_565 S
C186 C190 1.401 . S
C186 C191 1.499 . S
N187 Co170 1.989 . S
N187 C186 1.342 1_545 S
N187 N188 1.388 . S
N188 Co171 1.993 . S
N188 N187 1.388 . S
N188 C189 1.346 1_545 S
C189 N188 1.346 1_565 S
C189 C190 1.396 . S
C189 C199 1.510 . S
C190 C186 1.401 . S
C190 C189 1.396 . S
C191 C186 1.499 . S
C191 H192 0.959 . S
C191 H193 0.960 . S
C191 H194 0.961 . S
H192 C191 0.959 . S
H193 C191 0.960 . S
H194 C191 0.961 . S
O195 Co170 1.967 . S
O195 C203 1.258 . S
O196 Co171 1.941 . S
O196 C203 1.266 . S
H197 C199 0.959 . S
H198 C199 0.961 . S
C199 C189 1.510 . S
C199 H197 0.959 . S
C199 H198 0.961 . S
C199 H200 0.960 . S
H200 C199 0.960 . S
H201 N181 0.862 . S
O202 Co170 1.920 . S
O202 C175 1.289 . S
C203 O195 1.258 . S
C203 O196 1.266 . S
Co204 O207 1.970 . S
Co204 N221 1.989 . S
Co204 O229 1.967 . S
Co204 O236 1.920 . S
Co205 O208 1.966 . S
Co205 N214 2.022 . S
Co205 N222 1.993 . S
Co205 O230 1.941 . S
C206 O207 1.258 . S
C206 O208 1.263 . S
O207 Co204 1.970 . S
O207 C206 1.258 . S
O208 Co205 1.966 . S
O208 C206 1.263 . S
C209 O210 1.235 . S
C209 O236 1.289 . S
O210 C209 1.235 . S
C211 C213 1.400 . S
C211 N214 1.351 . S
C211 C216 1.501 . S
C212 C213 1.387 . S
C212 N215 1.341 . S
C213 C211 1.400 . S
C213 C212 1.387 . S
N214 Co205 2.022 . S
N214 C211 1.351 . S
N214 N215 1.365 . S
N215 C212 1.341 . S
N215 N214 1.365 . S
N215 H235 0.862 . S
C216 C211 1.501 . S
C216 H217 0.961 . S
C216 H218 0.961 . S
C216 H219 0.960 . S
H217 C216 0.961 . S
H218 C216 0.961 . S
H219 C216 0.960 . S
C220 N221 1.342 . S
C220 C224 1.401 . S
C220 C225 1.499 . S
N221 Co204 1.989 . S
N221 C220 1.342 . S
N221 N222 1.388 . S
N222 Co205 1.993 . S
N222 N221 1.388 . S
N222 C223 1.346 . S
C223 N222 1.346 . S
C223 C224 1.396 . S
C223 C233 1.510 . S
C224 C220 1.401 . S
C224 C223 1.396 . S
C225 C220 1.499 . S
C225 H226 0.959 . S
C225 H227 0.960 . S
C225 H228 0.961 . S
H226 C225 0.959 . S
H227 C225 0.960 . S
H228 C225 0.961 . S
O229 Co204 1.967 . S
O229 C237 1.258 . S
O230 Co205 1.941 . S
O230 C237 1.266 . S
H231 C233 0.959 . S
H232 C233 0.961 . S
C233 C223 1.510 . S
C233 H231 0.959 . S
C233 H232 0.961 . S
C233 H234 0.960 . S
H234 C233 0.960 . S
H235 N215 0.862 . S
O236 Co204 1.920 . S
O236 C209 1.289 . S
C237 O229 1.258 . S
C237 O230 1.266 . S
Co238 O241 1.970 . S
Co238 N255 1.989 . S
Co238 O263 1.967 . S
Co238 O270 1.920 . S
Co239 O242 1.966 . S
Co239 N248 2.022 . S
Co239 N256 1.993 . S
Co239 O264 1.941 . S
C240 O241 1.258 . S
C240 O242 1.263 . S
O241 Co238 1.970 . S
O241 C240 1.258 . S
O242 Co239 1.966 . S
O242 C240 1.263 . S
C243 O244 1.235 . S
C243 O270 1.289 . S
O244 C243 1.235 . S
C245 C247 1.400 . S
C245 N248 1.351 . S
C245 C250 1.501 . S
C246 C247 1.387 . S
C246 N249 1.341 . S
C247 C245 1.400 . S
C247 C246 1.387 . S
N248 Co239 2.022 . S
N248 C245 1.351 . S
N248 N249 1.365 . S
N249 C246 1.341 . S
N249 N248 1.365 . S
N249 H269 0.862 . S
C250 C245 1.501 . S
C250 H251 0.961 . S
C250 H252 0.961 . S
C250 H253 0.960 . S
H251 C250 0.961 . S
H252 C250 0.961 . S
H253 C250 0.960 . S
C254 N255 1.342 1_545 S
C254 C258 1.401 . S
C254 C259 1.499 . S
N255 Co238 1.989 . S
N255 C254 1.342 1_565 S
N255 N256 1.388 . S
N256 Co239 1.993 . S
N256 N255 1.388 . S
N256 C257 1.346 1_565 S
C257 N256 1.346 1_545 S
C257 C258 1.396 . S
C257 C267 1.510 . S
C258 C254 1.401 . S
C258 C257 1.396 . S
C259 C254 1.499 . S
C259 H260 0.959 . S
C259 H261 0.960 . S
C259 H262 0.961 . S
H260 C259 0.959 . S
H261 C259 0.960 . S
H262 C259 0.961 . S
O263 Co238 1.967 . S
O263 C271 1.258 . S
O264 Co239 1.941 . S
O264 C271 1.266 . S
H265 C267 0.959 . S
H266 C267 0.961 . S
C267 C257 1.510 . S
C267 H265 0.959 . S
C267 H266 0.961 . S
C267 H268 0.960 . S
H268 C267 0.960 . S
H269 N249 0.862 . S
O270 Co238 1.920 . S
O270 C243 1.289 . S
C271 O263 1.258 . S
C271 O264 1.266 . S
C272 C273 1.387 . S
C272 H276 0.950 . S
C272 C281 1.390 1_655 S
C273 C272 1.387 . S
C273 C275 1.387 . S
H274 C281 0.950 . S
C275 C273 1.387 . S
C275 C277 1.390 1_655 S
C275 H279 0.950 . S
H276 C272 0.950 . S
C277 C275 1.390 1_455 S
C277 C278 1.387 . S
C277 H280 0.950 . S
C278 C277 1.387 . S
C278 C281 1.387 . S
H279 C275 0.950 . S
H280 C277 0.950 . S
C281 C272 1.390 1_455 S
C281 H274 0.950 . S
C281 C278 1.387 . S
C282 C283 1.387 . S
C282 H286 0.950 . S
C282 C291 1.390 1_655 S
C283 C282 1.387 . S
C283 C285 1.387 . S
H284 C291 0.950 . S
C285 C283 1.387 . S
C285 C287 1.390 1_655 S
C285 H289 0.950 . S
H286 C282 0.950 . S
C287 C285 1.390 1_455 S
C287 C288 1.387 . S
C287 H290 0.950 . S
C288 C287 1.387 . S
C288 C291 1.387 . S
H289 C285 0.950 . S
H290 C287 0.950 . S
C291 C282 1.390 1_455 S
C291 H284 0.950 . S
C291 C288 1.387 . S
C292 C293 1.387 . S
C292 H296 0.950 . S
C292 C301 1.390 1_565 S
C293 C292 1.387 . S
C293 C295 1.387 . S
H294 C301 0.950 . S
C295 C293 1.387 . S
C295 C297 1.390 1_565 S
C295 H299 0.950 . S
H296 C292 0.950 . S
C297 C295 1.390 1_545 S
C297 C298 1.387 . S
C297 H300 0.950 . S
C298 C297 1.387 . S
C298 C301 1.387 . S
H299 C295 0.950 . S
H300 C297 0.950 . S
C301 C292 1.390 1_545 S
C301 H294 0.950 . S
C301 C298 1.387 . S
C302 C303 1.387 . S
C302 H306 0.950 . S
C302 C311 1.390 1_565 S
C303 C302 1.387 . S
C303 C305 1.387 . S
H304 C311 0.950 . S
C305 C303 1.387 . S
C305 C307 1.390 1_565 S
C305 H309 0.950 . S
H306 C302 0.950 . S
C307 C305 1.390 1_545 S
C307 C308 1.387 . S
C307 H310 0.950 . S
C308 C307 1.387 . S
C308 C311 1.387 . S
H309 C305 0.950 . S
H310 C307 0.950 . S
C311 C302 1.390 1_545 S
C311 H304 0.950 . S
C311 C308 1.387 . S
C312 C313 1.387 . S
C312 H316 0.950 . S
C312 C321 1.390 . S
C313 C312 1.387 . S
C313 C315 1.387 . S
H314 C321 0.950 . S
C315 C313 1.387 . S
C315 C317 1.390 . S
C315 H319 0.950 . S
H316 C312 0.950 . S
C317 C315 1.390 . S
C317 C318 1.387 . S
C317 H320 0.950 . S
C318 C317 1.387 . S
C318 C321 1.387 . S
H319 C315 0.950 . S
H320 C317 0.950 . S
C321 C312 1.390 . S
C321 H314 0.950 . S
C321 C318 1.387 . S
C322 C323 1.387 . S
C322 H326 0.950 . S
C322 C331 1.390 . S
C323 C322 1.387 . S
C323 C325 1.387 . S
H324 C331 0.950 . S
C325 C323 1.387 . S
C325 C327 1.390 . S
C325 H329 0.950 . S
H326 C322 0.950 . S
C327 C325 1.390 . S
C327 C328 1.387 . S
C327 H330 0.950 . S
C328 C327 1.387 . S
C328 C331 1.387 . S
H329 C325 0.950 . S
H330 C327 0.950 . S
C331 C322 1.390 . S
C331 H324 0.950 . S
C331 C328 1.387 . S
C332 C333 1.387 . S
C332 H336 0.950 . S
C332 C341 1.390 . S
C333 C332 1.387 . S
C333 C335 1.387 . S
H334 C341 0.950 . S
C335 C333 1.387 . S
C335 C337 1.390 . S
C335 H339 0.950 . S
H336 C332 0.950 . S
C337 C335 1.390 . S
C337 C338 1.387 . S
C337 H340 0.950 . S
C338 C337 1.387 . S
C338 C341 1.387 . S
H339 C335 0.950 . S
H340 C337 0.950 . S
C341 C332 1.390 . S
C341 H334 0.950 . S
C341 C338 1.387 . S
C342 C343 1.387 . S
C342 H346 0.950 . S
C342 C351 1.390 . S
C343 C342 1.387 . S
C343 C345 1.387 . S
H344 C351 0.950 . S
C345 C343 1.387 . S
C345 C347 1.390 . S
C345 H349 0.950 . S
H346 C342 0.950 . S
C347 C345 1.390 . S
C347 C348 1.387 . S
C347 H350 0.950 . S
C348 C347 1.387 . S
C348 C351 1.387 . S
H349 C345 0.950 . S
H350 C347 0.950 . S
C351 C342 1.390 . S
C351 H344 0.950 . S
C351 C348 1.387 . S
C352 C353 1.387 . S
C352 H356 0.950 . S
C352 C361 1.390 . S
C353 C352 1.387 . S
C353 C355 1.387 . S
H354 C361 0.950 . S
C355 C353 1.387 . S
C355 C357 1.390 . S
C355 H359 0.950 . S
H356 C352 0.950 . S
C357 C355 1.390 . S
C357 C358 1.387 . S
C357 H360 0.950 . S
C358 C357 1.387 . S
C358 C361 1.387 . S
H359 C355 0.950 . S
H360 C357 0.950 . S
C361 C352 1.390 . S
C361 H354 0.950 . S
C361 C358 1.387 . S
C362 C363 1.387 . S
C362 H366 0.950 . S
C362 C371 1.390 . S
C363 C362 1.387 . S
C363 C365 1.387 . S
H364 C371 0.950 . S
C365 C363 1.387 . S
C365 C367 1.390 . S
C365 H369 0.950 . S
H366 C362 0.950 . S
C367 C365 1.390 . S
C367 C368 1.387 . S
C367 H370 0.950 . S
C368 C367 1.387 . S
C368 C371 1.387 . S
H369 C365 0.950 . S
H370 C367 0.950 . S
C371 C362 1.390 . S
C371 H364 0.950 . S
C371 C368 1.387 . S
C372 C373 1.387 . S
C372 H376 0.950 . S
C372 C381 1.390 . S
C373 C372 1.387 . S
C373 C375 1.387 . S
H374 C381 0.950 . S
C375 C373 1.387 . S
C375 C377 1.390 . S
C375 H379 0.950 . S
H376 C372 0.950 . S
C377 C375 1.390 . S
C377 C378 1.387 . S
C377 H380 0.950 . S
C378 C377 1.387 . S
C378 C381 1.387 . S
H379 C375 0.950 . S
H380 C377 0.950 . S
C381 C372 1.390 . S
C381 H374 0.950 . S
C381 C378 1.387 . S
C382 C383 1.387 . S
C382 H386 0.950 . S
C382 C391 1.390 . S
C383 C382 1.387 . S
C383 C385 1.387 . S
H384 C391 0.950 . S
C385 C383 1.387 . S
C385 C387 1.390 . S
C385 H389 0.950 . S
H386 C382 0.950 . S
C387 C385 1.390 . S
C387 C388 1.387 . S
C387 H390 0.950 . S
C388 C387 1.387 . S
C388 C391 1.387 . S
H389 C385 0.950 . S
H390 C387 0.950 . S
C391 C382 1.390 . S
C391 H384 0.950 . S
C391 C388 1.387 . S
C392 C393 1.387 . S
C392 H396 0.950 . S
C392 C401 1.390 . S
C393 C392 1.387 . S
C393 C395 1.387 . S
H394 C401 0.950 . S
C395 C393 1.387 . S
C395 C397 1.390 . S
C395 H399 0.950 . S
H396 C392 0.950 . S
C397 C395 1.390 . S
C397 C398 1.387 . S
C397 H400 0.950 . S
C398 C397 1.387 . S
C398 C401 1.387 . S
H399 C395 0.950 . S
H400 C397 0.950 . S
C401 C392 1.390 . S
C401 H394 0.950 . S
C401 C398 1.387 . S
C402 C403 1.387 . S
C402 H406 0.950 . S
C402 C411 1.390 . S
C403 C402 1.387 . S
C403 C405 1.387 1_554 S
H404 C411 0.950 . S
C405 C403 1.387 1_556 S
C405 C407 1.390 . S
C405 H409 0.950 . S
H406 C402 0.950 . S
C407 C405 1.390 . S
C407 C408 1.387 . S
C407 H410 0.950 . S
C408 C407 1.387 . S
C408 C411 1.387 1_556 S
H409 C405 0.950 . S
H410 C407 0.950 . S
C411 C402 1.390 . S
C411 H404 0.950 . S
C411 C408 1.387 1_554 S
C412 C413 1.387 . S
C412 H416 0.950 . S
C412 C421 1.390 . S
C413 C412 1.387 . S
C413 C415 1.387 . S
H414 C421 0.950 . S
C415 C413 1.387 . S
C415 C417 1.390 . S
C415 H419 0.950 . S
H416 C412 0.950 . S
C417 C415 1.390 . S
C417 C418 1.387 . S
C417 H420 0.950 . S
C418 C417 1.387 . S
C418 C421 1.387 . S
H419 C415 0.950 . S
H420 C417 0.950 . S
C421 C412 1.390 . S
C421 H414 0.950 . S
C421 C418 1.387 . S
C422 C423 1.387 . S
C422 H426 0.950 . S
C422 C431 1.390 1_554 S
C423 C422 1.387 . S
C423 C425 1.387 . S
H424 C431 0.950 . S
C425 C423 1.387 . S
C425 C427 1.390 1_554 S
C425 H429 0.950 . S
H426 C422 0.950 . S
C427 C425 1.390 1_556 S
C427 C428 1.387 . S
C427 H430 0.950 . S
C428 C427 1.387 . S
C428 C431 1.387 . S
H429 C425 0.950 . S
H430 C427 0.950 . S
C431 C422 1.390 1_556 S
C431 H424 0.950 . S
C431 C428 1.387 . S
C432 C433 1.387 . S
C432 H436 0.950 . S
C432 C441 1.390 1_665 S
C433 C432 1.387 . S
C433 C435 1.387 . S
H434 C441 0.950 . S
C435 C433 1.387 . S
C435 C437 1.390 1_665 S
C435 H439 0.950 . S
H436 C432 0.950 . S
C437 C435 1.390 1_445 S
C437 C438 1.387 . S
C437 H440 0.950 . S
C438 C437 1.387 . S
C438 C441 1.387 . S
H439 C435 0.950 . S
H440 C437 0.950 . S
C441 C432 1.390 1_445 S
C441 H434 0.950 . S
C441 C438 1.387 . S
C442 C443 1.387 . S
C442 H446 0.950 . S
C442 C451 1.390 . S
C443 C442 1.387 . S
C443 C445 1.387 . S
H444 C451 0.950 . S
C445 C443 1.387 . S
C445 C447 1.390 . S
C445 H449 0.950 . S
H446 C442 0.950 . S
C447 C445 1.390 . S
C447 C448 1.387 . S
C447 H450 0.950 . S
C448 C447 1.387 . S
C448 C451 1.387 . S
H449 C445 0.950 . S
H450 C447 0.950 . S
C451 C442 1.390 . S
C451 H444 0.950 . S
C451 C448 1.387 . S
C452 C453 1.387 . S
C452 H456 0.950 . S
C452 C461 1.390 . S
C453 C452 1.387 . S
C453 C455 1.387 . S
H454 C461 0.950 . S
C455 C453 1.387 . S
C455 C457 1.390 . S
C455 H459 0.950 . S
H456 C452 0.950 . S
C457 C455 1.390 . S
C457 C458 1.387 . S
C457 H460 0.950 . S
C458 C457 1.387 . S
C458 C461 1.387 . S
H459 C455 0.950 . S
H460 C457 0.950 . S
C461 C452 1.390 . S
C461 H454 0.950 . S
C461 C458 1.387 . S
C462 C463 1.387 . S
C462 H466 0.950 . S
C462 C471 1.390 1_445 S
C463 C462 1.387 . S
C463 C465 1.387 . S
H464 C471 0.950 . S
C465 C463 1.387 . S
C465 C467 1.390 1_445 S
C465 H469 0.950 . S
H466 C462 0.950 . S
C467 C465 1.390 1_665 S
C467 C468 1.387 . S
C467 H470 0.950 . S
C468 C467 1.387 . S
C468 C471 1.387 . S
H469 C465 0.950 . S
H470 C467 0.950 . S
C471 C462 1.390 1_665 S
C471 H464 0.950 . S
C471 C468 1.387 . S
C273 C77 0.622 . S
C278 C9 0.622 . S
C283 C111 0.622 . S
C288 C43 0.622 . S
C293 C213 0.619 . S
C298 C145 0.619 . S
C303 C247 0.619 . S
C308 C179 0.619 . S
C313 C156 2.401 . S
C318 C33 2.389 . S
C323 C190 2.401 . S
C328 C67 2.389 . S
C333 C224 2.401 . S
C338 C101 2.389 . S
C343 C135 2.390 . S
C348 C258 2.401 . S
C353 C20 2.400 . S
C358 C169 2.389 . S
C363 C54 2.400 . S
C368 C203 2.389 . S
C373 C88 2.402 . S
C378 C237 2.389 . S
C383 C271 2.389 . S
C388 C122 2.400 . S
C393 C2 1.734 . S
C398 C172 1.733 . S
C403 C206 1.734 . S
C408 C36 1.735 . S
C413 C240 1.733 . S
C418 C70 1.734 . S
C423 C138 1.733 . S
C428 C104 1.734 . S
C433 C73 0.663 . S
C438 C5 0.663 . S
C443 C39 0.672 . S
C448 C107 0.672 . S
C453 C209 0.672 . S
C458 C141 0.672 . S
C463 C175 0.672 . S
C468 C243 0.672 . S
